# Generated by pormake.
# Topology bcu-h, (3)-cn, num edge types: 1
# Building blocks:
#     Node 0, Type 0, BuildingBlock: WUSLED_clean_sbu_0, # of connection points: 3
#     Node 1, Type 0, BuildingBlock: WUSLED_clean_sbu_0, # of connection points: 3
#     Node 2, Type 0, BuildingBlock: WUSLED_clean_sbu_0, # of connection points: 3
#     Node 3, Type 0, BuildingBlock: WUSLED_clean_sbu_0, # of connection points: 3
#     Node 4, Type 0, BuildingBlock: WUSLED_clean_sbu_0, # of connection points: 3
#     Node 5, Type 0, BuildingBlock: WUSLED_clean_sbu_0, # of connection points: 3
#     Node 6, Type 0, BuildingBlock: WUSLED_clean_sbu_0, # of connection points: 3
#     Node 7, Type 0, BuildingBlock: WUSLED_clean_sbu_0, # of connection points: 3
#     Node 8, Type 0, BuildingBlock: WUSLED_clean_sbu_0, # of connection points: 3
#     Node 9, Type 0, BuildingBlock: WUSLED_clean_sbu_0, # of connection points: 3
#     Node 10, Type 0, BuildingBlock: WUSLED_clean_sbu_0, # of connection points: 3
#     Node 11, Type 0, BuildingBlock: WUSLED_clean_sbu_0, # of connection points: 3
#     Node 12, Type 0, BuildingBlock: WUSLED_clean_sbu_0, # of connection points: 3
#     Node 13, Type 0, BuildingBlock: WUSLED_clean_sbu_0, # of connection points: 3
#     Node 14, Type 0, BuildingBlock: WUSLED_clean_sbu_0, # of connection points: 3
#     Node 15, Type 0, BuildingBlock: WUSLED_clean_sbu_0, # of connection points: 3
#     Edge 16, Type (0, 0), BuildingBlock: EZIPEK_clean_linker_0, # of connection points: 2
#     Edge 17, Type (0, 0), BuildingBlock: EZIPEK_clean_linker_0, # of connection points: 2
#     Edge 18, Type (0, 0), BuildingBlock: EZIPEK_clean_linker_0, # of connection points: 2
#     Edge 19, Type (0, 0), BuildingBlock: EZIPEK_clean_linker_0, # of connection points: 2
#     Edge 20, Type (0, 0), BuildingBlock: EZIPEK_clean_linker_0, # of connection points: 2
#     Edge 21, Type (0, 0), BuildingBlock: EZIPEK_clean_linker_0, # of connection points: 2
#     Edge 22, Type (0, 0), BuildingBlock: EZIPEK_clean_linker_0, # of connection points: 2
#     Edge 23, Type (0, 0), BuildingBlock: EZIPEK_clean_linker_0, # of connection points: 2
#     Edge 24, Type (0, 0), BuildingBlock: EZIPEK_clean_linker_0, # of connection points: 2
#     Edge 25, Type (0, 0), BuildingBlock: EZIPEK_clean_linker_0, # of connection points: 2
#     Edge 26, Type (0, 0), BuildingBlock: EZIPEK_clean_linker_0, # of connection points: 2
#     Edge 27, Type (0, 0), BuildingBlock: EZIPEK_clean_linker_0, # of connection points: 2
#     Edge 28, Type (0, 0), BuildingBlock: EZIPEK_clean_linker_0, # of connection points: 2
#     Edge 29, Type (0, 0), BuildingBlock: EZIPEK_clean_linker_0, # of connection points: 2
#     Edge 30, Type (0, 0), BuildingBlock: EZIPEK_clean_linker_0, # of connection points: 2
#     Edge 31, Type (0, 0), BuildingBlock: EZIPEK_clean_linker_0, # of connection points: 2
#     Edge 32, Type (0, 0), BuildingBlock: EZIPEK_clean_linker_0, # of connection points: 2
#     Edge 33, Type (0, 0), BuildingBlock: EZIPEK_clean_linker_0, # of connection points: 2
#     Edge 34, Type (0, 0), BuildingBlock: EZIPEK_clean_linker_0, # of connection points: 2
#     Edge 35, Type (0, 0), BuildingBlock: EZIPEK_clean_linker_0, # of connection points: 2
#     Edge 36, Type (0, 0), BuildingBlock: EZIPEK_clean_linker_0, # of connection points: 2
#     Edge 37, Type (0, 0), BuildingBlock: EZIPEK_clean_linker_0, # of connection points: 2
#     Edge 38, Type (0, 0), BuildingBlock: EZIPEK_clean_linker_0, # of connection points: 2
#     Edge 39, Type (0, 0), BuildingBlock: EZIPEK_clean_linker_0, # of connection points: 2
# Relax obj value: 0.010
# Max RMSD: 0.023
# Mean RMSD: 0.022
data_MOF--net-bcu-h--node1-WUSLED_clean_sbu_0--edge1-EZIPEK_clean_linker_0
_symmetry_space_group_name_H-M    P1
_symmetry_Int_Tables_number       1
_symmetry_cell_setting            triclinic
loop_
_symmetry_equiv_pos_as_xyz
'x, y, z'
_cell_length_a     59.052689
_cell_length_b     59.232256
_cell_length_c     63.547667
_cell_angle_alpha  87.690287
_cell_angle_beta   87.486155
_cell_angle_gamma 89.577595
loop_
_atom_site_label
_atom_site_type_symbol
_atom_site_fract_x
_atom_site_fract_y
_atom_site_fract_z
_atom_type_partial_charge
C0 C 0.67929 0.03128 0.11811 0.0
C1 C 0.68878 0.03701 0.13705 0.0
C2 C 0.72659 0.03051 0.12175 0.0
C3 C 0.71232 0.03664 0.13885 0.0
C4 C 0.71707 1.02452 0.10292 0.0
C5 C 0.69354 0.02493 0.10111 0.0
U6 U 0.61973 0.04086 0.14131 0.0
O7 O 0.59091 0.05952 0.12823 0.0
O8 O 0.58778 1.02329 0.13632 0.0
C9 C 0.57852 0.04126 0.12734 0.0
C10 C 0.65464 0.0323 0.1158 0.0
C11 C 0.5685 0.03778 0.10692 0.0
C12 C 0.57206 0.03548 0.06879 0.0
C13 C 0.58193 0.03851 0.08811 0.0
C14 C 0.53532 0.03067 0.08692 0.0
C15 C 0.54869 0.03158 0.0681 0.0
C16 C 0.54517 0.03378 0.10621 0.0
C17 C 0.61386 0.05543 0.1999 0.0
C18 C 0.58031 0.07127 0.21747 0.0
C19 C 0.61293 0.06064 0.23763 0.0
C20 C 0.62426 0.0535 0.2193 0.0
C21 C 0.59102 0.06984 0.2368 0.0
C22 C 0.59167 0.06406 0.19909 0.0
C23 C 0.62694 0.04939 0.1807 0.0
O24 O 0.6429 1.01642 0.12628 0.0
O25 O 0.64551 0.0525 0.11739 0.0
O26 O 0.62774 0.0649 0.1653 0.0
O27 O 0.62391 0.02889 0.17421 0.0
H28 H 0.67799 0.04194 0.15034 0.0
H29 H 0.71943 0.04129 0.15349 0.0
H30 H 0.72787 1.01977 0.08958 0.0
H31 H 0.68648 1.02046 0.0864 0.0
H32 H 0.5826 0.03618 0.0544 0.0
H33 H 0.6 0.04149 0.08837 0.0
H34 H 0.51727 0.02764 0.08663 0.0
H35 H 0.53457 0.03312 0.12057 0.0
H36 H 0.56343 0.07841 0.21657 0.0
H37 H 0.62144 0.0595 0.2524 0.0
H38 H 0.64137 0.04689 0.2202 0.0
H39 H 0.58338 0.06566 0.18422 0.0
C40 C 0.53945 0.67841 0.61749 0.0
C41 C 0.53279 0.68877 0.6363 0.0
C42 C 0.54215 0.72557 0.62014 0.0
C43 C 0.53408 0.71224 0.63759 0.0
C44 C 0.54933 0.71516 0.60153 0.0
C45 C 0.54796 0.6917 0.60021 0.0
U46 U 0.52652 0.62025 0.64224 0.0
O47 O 0.50455 0.59345 0.63177 0.0
O48 O 0.54079 0.58676 0.63543 0.0
C49 C 0.52152 0.57928 0.62887 0.0
C50 C 0.53668 0.65396 0.6155 0.0
C51 C 0.5228 0.56882 0.60827 0.0
C52 C 0.52983 0.57137 0.57028 0.0
C53 C 0.5291 0.5815 0.58982 0.0
C54 C 0.51798 0.53583 0.58745 0.0
C55 C 0.52423 0.54848 0.56899 0.0
C56 C 0.51728 0.54595 0.60697 0.0
C57 C 0.51391 0.61521 0.70198 0.0
C58 C 0.4935 0.58435 0.72046 0.0
C59 C 0.51196 0.61258 0.74025 0.0
C60 C 0.51954 0.62356 0.7214 0.0
C61 C 0.49856 0.59314 0.73989 0.0
C62 C 0.50119 0.59529 0.70159 0.0
C63 C 0.52044 0.62816 0.68244 0.0
O64 O 0.5521 0.64105 0.62433 0.0
O65 O 0.51592 0.64655 0.61934 0.0
O66 O 0.50447 0.63087 0.66877 0.0
O67 O 0.54034 0.62321 0.67368 0.0
H68 H 0.52619 0.67873 0.6498 0.0
H69 H 0.52844 0.72005 0.65204 0.0
H70 H 0.55555 0.72526 0.58793 0.0
H71 H 0.55315 0.68396 0.5856 0.0
H72 H 0.53469 0.58135 0.55616 0.0
H73 H 0.53336 0.59921 0.59056 0.0
H74 H 0.5136 0.51816 0.5867 0.0
H75 H 0.51232 0.53596 0.62106 0.0
H76 H 0.48315 0.56938 0.71994 0.0
H77 H 0.51597 0.61958 0.75512 0.0
H78 H 0.52936 0.63889 0.72198 0.0
H79 H 0.49676 0.58854 0.68673 0.0
C80 C 0.86745 0.53444 0.11901 0.0
C81 C 0.85572 0.53841 0.13824 0.0
C82 C 0.81989 0.53772 0.12087 0.0
C83 C 0.83204 0.54013 0.13914 0.0
C84 C 0.83163 0.53387 0.10168 0.0
C85 C 0.85528 0.53227 0.10076 0.0
U86 U 0.92371 0.52262 0.14486 0.0
O87 O 0.95235 0.50131 0.13447 0.0
O88 O 0.95737 0.53761 0.13789 0.0
C89 C 0.96608 0.51858 0.13117 0.0
C90 C 0.89223 0.53174 0.11781 0.0
C91 C 0.97766 0.52007 0.1102 0.0
C92 C 0.97634 0.52169 0.07198 0.0
C93 C 0.96517 0.52081 0.09187 0.0
C94 C 1.01259 0.52142 0.08852 0.0
C95 C 1.00011 0.52194 0.0702 0.0
C96 C 1.00141 0.52047 0.10841 0.0
C97 C 0.92329 0.51054 0.20484 0.0
C98 C 0.95618 0.5095 0.22664 0.0
C99 C 0.92084 0.49257 0.23989 0.0
C100 C 0.91076 0.49897 0.22108 0.0
C101 C 0.94362 0.49769 0.24279 0.0
C102 C 0.9461 0.5158 0.2077 0.0
C103 C 0.91219 0.51656 0.18507 0.0
O104 O 0.90383 0.54743 0.1266 0.0
O105 O 0.89964 0.51118 0.12213 0.0
O106 O 0.9116 0.50041 0.17153 0.0
O107 O 0.9171 0.53646 0.17617 0.0
H108 H 0.86485 0.53997 0.15252 0.0
H109 H 0.82317 0.54301 0.15408 0.0
H110 H 0.82246 0.53191 0.08748 0.0
H111 H 0.86406 0.52909 0.08583 0.0
H112 H 0.9665 0.52211 0.05798 0.0
H113 H 0.94681 0.52057 0.09297 0.0
H114 H 0.03094 0.52162 0.08738 0.0
H115 H 1.01129 0.51992 0.12239 0.0
H116 H 0.97379 0.51358 0.22863 0.0
H117 H 0.91092 0.48347 0.25218 0.0
H118 H 0.89317 0.49475 0.21913 0.0
H119 H 0.9561 0.52463 0.1953 0.0
C120 C 0.03277 0.86785 0.62096 0.0
C121 C 0.04205 0.85575 0.63803 0.0
C122 C 0.03154 0.82034 0.62313 0.0
C123 C 0.04148 0.8321 0.63908 0.0
C124 C 1.02193 0.83247 0.60629 0.0
C125 C 1.02257 0.85609 0.60521 0.0
U126 U 0.04347 0.92515 0.64419 0.0
O127 O 0.06193 0.95459 0.63022 0.0
O128 O 1.02582 0.95769 0.63929 0.0
C129 C 0.04361 0.9673 0.62964 0.0
C130 C 0.03403 0.89265 0.6191 0.0
C131 C 0.03958 0.97859 0.60908 0.0
C132 C 0.03171 0.97691 0.57193 0.0
C133 C 0.03511 0.96597 0.59149 0.0
C134 C 0.03706 1.01316 0.58736 0.0
C135 C 0.03271 1.00057 0.56974 0.0
C136 C 0.04049 1.00222 0.6069 0.0
C137 C 0.0596 0.92634 0.70236 0.0
C138 C 0.05974 0.9592 0.72413 0.0
C139 C 0.07779 0.92434 0.73594 0.0
C140 C 0.0717 0.91414 0.71758 0.0
C141 C 0.07184 0.94691 0.73937 0.0
C142 C 0.05371 0.94899 0.70567 0.0
C143 C 0.05318 0.91485 0.68339 0.0
O144 O 1.01843 0.90363 0.63005 0.0
O145 O 0.05441 0.90117 0.62023 0.0
O146 O 0.06839 0.91512 0.66766 0.0
O147 O 0.03241 0.91843 0.67733 0.0
H148 H 0.04993 0.86458 0.65037 0.0
H149 H 0.04896 0.82296 0.65217 0.0
H150 H 1.01423 0.82363 0.59386 0.0
H151 H 1.01531 0.86517 0.59196 0.0
H152 H 0.02835 0.96696 0.55849 0.0
H153 H 0.03437 0.9477 0.5929 0.0
H154 H 0.0379 0.03143 0.58592 0.0
H155 H 0.04393 1.01221 0.6203 0.0
H156 H 0.05501 0.97664 0.72655 0.0
H157 H 0.08712 0.91461 0.74752 0.0
H158 H 0.07638 0.89666 0.7153 0.0
H159 H 0.04441 0.95871 0.69405 0.0
C160 C 0.18359 1.01688 0.93599 0.0
C161 C 0.19562 1.0083 0.91847 0.0
C162 C 0.23125 1.01792 0.93355 0.0
C163 C 0.21934 1.00878 0.91728 0.0
C164 C 0.2192 0.02678 0.95089 0.0
C165 C 0.19551 0.02624 0.9521 0.0
U166 U 0.12602 1.00697 0.91282 0.0
O167 O 0.09625 0.98888 0.92669 0.0
O168 O 0.0936 0.02499 0.918 0.0
C169 C 0.08377 1.00732 0.92757 0.0
C170 C 0.15871 1.01586 0.9379 0.0
C171 C 0.07259 1.01135 0.94826 0.0
C172 C 0.07427 1.01495 0.98615 0.0
C173 C 0.08517 1.01158 0.96651 0.0
C174 C 0.03818 1.01824 0.96948 0.0
C175 C 0.0507 1.01825 0.98775 0.0
C176 C 0.04907 1.01479 0.94986 0.0
C177 C 0.12467 0.99107 0.8545 0.0
C178 C 0.09285 0.99343 0.8314 0.0
C179 C 0.12591 0.97092 0.8219 0.0
C180 C 0.136 0.97682 0.84036 0.0
C181 C 0.10431 0.97921 0.81725 0.0
C182 C 0.10294 0.99927 0.84998 0.0
C183 C 0.1362 0.99732 0.87352 0.0
O184 O 0.14788 0.03158 0.92709 0.0
O185 O 0.14997 0.99565 0.93662 0.0
O186 O 0.13581 0.98211 0.88916 0.0
O187 O 0.13287 1.01805 0.87972 0.0
H188 H 0.18666 1.00107 0.90586 0.0
H189 H 0.22843 1.00189 0.90379 0.0
H190 H 0.22817 0.03387 0.96357 0.0
H191 H 0.18649 0.03295 0.96571 0.0
H192 H 0.08417 1.01494 1.00011 0.0
H193 H 0.10337 1.00902 0.96556 0.0
H194 H 1.01998 1.02078 0.97046 0.0
H195 H 0.03912 1.01469 0.93594 0.0
H196 H 0.07617 0.99998 0.82803 0.0
H197 H 0.13498 0.95994 0.81117 0.0
H198 H 0.15277 0.97035 0.84356 0.0
H199 H 0.09387 1.01024 0.86072 0.0
C200 C 0.51419 0.1831 0.43667 0.0
C201 C 0.52181 0.19547 0.41842 0.0
C202 C 0.51117 0.23053 0.43491 0.0
C203 C 0.52036 0.21908 0.41758 0.0
C204 C 0.50305 0.21814 0.45292 0.0
C205 C 0.50458 0.19455 0.45379 0.0
U206 U 0.52624 0.12638 0.41189 0.0
O207 O 0.54799 0.09826 0.4224 0.0
O208 O 0.51153 0.09283 0.4197 0.0
C209 C 0.53082 0.08447 0.42618 0.0
C210 C 0.51696 0.15841 0.43837 0.0
C211 C 0.52977 0.07302 0.44719 0.0
C212 C 0.53246 0.07384 0.48523 0.0
C213 C 0.533 0.08506 0.46541 0.0
C214 C 0.52501 0.03851 0.46889 0.0
C215 C 0.52852 0.05049 0.48706 0.0
C216 C 0.52567 0.04971 0.44907 0.0
C217 C 0.53759 0.12508 0.35195 0.0
C218 C 0.55726 0.09501 0.3335 0.0
C219 C 0.53885 0.12522 0.31368 0.0
C220 C 0.53175 0.13502 0.33252 0.0
C221 C 0.55199 0.10538 0.31404 0.0
C222 C 0.55005 0.10478 0.35236 0.0
C223 C 0.53161 0.1368 0.37142 0.0
O224 O 0.50122 0.14659 0.42989 0.0
O225 O 0.53759 0.15093 0.43411 0.0
O226 O 0.54789 0.13817 0.38476 0.0
O227 O 0.51182 0.13175 0.38063 0.0
H228 H 0.52923 0.18688 0.40503 0.0
H229 H 0.52672 0.22844 0.40358 0.0
H230 H 0.49597 0.22676 0.46643 0.0
H231 H 0.49862 0.18526 0.46798 0.0
H232 H 0.53514 0.08331 0.49913 0.0
H233 H 0.53605 0.1031 0.46429 0.0
H234 H 0.52192 1.02049 0.47008 0.0
H235 H 0.52308 0.04017 0.43519 0.0
H236 H 0.56741 0.07971 0.33404 0.0
H237 H 0.53467 0.13344 0.2988 0.0
H238 H 0.52213 0.15067 0.33191 0.0
H239 H 0.55466 0.09681 0.36723 0.0
C240 C 0.37121 0.5123 0.93886 0.0
C241 C 0.3608 0.52016 0.92048 0.0
C242 C 0.32392 0.50968 0.93614 0.0
C243 C 0.33727 0.51892 0.91916 0.0
C244 C 0.33438 0.50133 0.95429 0.0
C245 C 0.35791 0.50267 0.95565 0.0
U246 U 0.42978 0.52477 0.91427 0.0
O247 O 0.45694 0.54619 0.92481 0.0
O248 O 0.46316 0.50997 0.92103 0.0
C249 C 0.47087 0.52905 0.92773 0.0
C250 C 0.39576 0.5148 0.94091 0.0
C251 C 0.48123 0.52758 0.94838 0.0
C252 C 0.47809 0.52826 0.98662 0.0
C253 C 0.46788 0.5289 0.96714 0.0
C254 C 0.51502 0.52452 0.96881 0.0
C255 C 0.50172 0.52616 0.98754 0.0
C256 C 0.50482 0.52526 0.94934 0.0
C257 C 0.43496 0.53794 0.85469 0.0
C258 C 0.46877 0.55369 0.83667 0.0
C259 C 0.43596 0.54517 0.8168 0.0
C260 C 0.4245 0.53737 0.83535 0.0
C261 C 0.45803 0.55365 0.81739 0.0
C262 C 0.45729 0.54584 0.85526 0.0
C263 C 0.4219 0.53136 0.87414 0.0
O264 O 0.40856 0.49936 0.93191 0.0
O265 O 0.40345 0.53542 0.93732 0.0
O266 O 0.41946 0.54717 0.88799 0.0
O267 O 0.42669 0.5114 0.88267 0.0
H268 H 0.37084 0.5276 0.90734 0.0
H269 H 0.32941 0.52547 0.90506 0.0
H270 H 0.32427 0.4942 0.96753 0.0
H271 H 0.36568 0.49651 0.96993 0.0
H272 H 0.46762 0.5295 1.00096 0.0
H273 H 0.44963 0.53062 0.96669 0.0
H274 H 0.53327 0.52287 0.96929 0.0
H275 H 0.51535 0.5242 0.93501 0.0
H276 H 0.48577 0.56028 0.83737 0.0
H277 H 0.42744 0.54511 0.80205 0.0
H278 H 0.40728 0.53136 0.83467 0.0
H279 H 0.46559 0.5464 0.8701 0.0
C280 C 1.01813 0.37165 0.43844 0.0
C281 C 1.008 0.36197 0.42138 0.0
C282 C 1.0182 0.32446 0.43491 0.0
C283 C 1.008 0.33848 0.41965 0.0
C284 C 0.02854 0.33418 0.4518 0.0
C285 C 0.02848 0.35764 0.45356 0.0
U286 U 1.0079 0.43148 0.41638 0.0
O287 O 0.99204 0.46076 0.43151 0.0
O288 O 0.02742 0.4626 0.41955 0.0
C289 C 1.01101 0.47233 0.43059 0.0
C290 C 1.01791 0.39626 0.44072 0.0
C291 C 1.01769 0.48151 0.45058 0.0
C292 C 1.02543 0.47654 0.4877 0.0
C293 C 1.01816 0.46783 0.46901 0.0
C294 C 0.03081 0.51294 0.47004 0.0
C295 C 0.03394 0.49885 0.48829 0.0
C296 C 1.02342 0.50427 0.45138 0.0
C297 C 0.98809 0.43815 0.35925 0.0
C298 C 0.99065 0.47126 0.33533 0.0
C299 C 0.96694 0.43978 0.32729 0.0
C300 C 0.97306 0.42833 0.34584 0.0
C301 C 0.97579 0.46123 0.32182 0.0
C302 C 0.99672 0.45981 0.354 0.0
C303 C 0.99504 0.42498 0.37806 0.0
O304 O 0.03314 0.40756 0.42894 0.0
O305 O 0.99777 0.40588 0.44094 0.0
O306 O 0.98086 0.42506 0.39458 0.0
O307 O 1.01638 0.42669 0.38285 0.0
H308 H 1.0 0.37256 0.40951 0.0
H309 H 0.99996 0.33121 0.40652 0.0
H310 H 0.03647 0.32357 0.46369 0.0
H311 H 0.03641 0.36485 0.46678 0.0
H312 H 1.02362 0.46551 0.50154 0.0
H313 H 1.01269 0.4504 0.46902 0.0
H314 H 0.03361 0.53093 0.46991 0.0
H315 H 1.02208 0.51544 0.43756 0.0
H316 H 0.99765 0.48781 0.33131 0.0
H317 H 0.95549 0.43179 0.31703 0.0
H318 H 0.96627 0.41163 0.3496 0.0
H319 H 1.00833 0.4677 0.36416 0.0
C320 C 0.37654 1.01848 0.93896 0.0
C321 C 0.36719 1.01725 0.91909 0.0
C322 C 0.32923 1.01874 0.93539 0.0
C323 C 0.34364 1.01742 0.91731 0.0
C324 C 0.3386 1.02004 0.95521 0.0
C325 C 0.36212 1.01993 0.95698 0.0
U326 U 0.43603 1.00907 0.91551 0.0
O327 O 0.46793 0.02688 0.92002 0.0
O328 O 0.46503 0.99077 0.92873 0.0
C329 C 0.47736 1.00911 0.9292 0.0
C330 C 0.40122 1.01766 0.94113 0.0
C331 C 0.48748 1.01296 0.94949 0.0
C332 C 0.48394 1.02333 0.98613 0.0
C333 C 0.4741 1.02008 0.96683 0.0
C334 C 0.52056 1.01236 0.97093 0.0
C335 C 0.50722 1.01944 0.98829 0.0
C336 C 0.51074 1.00915 0.95164 0.0
C337 C 0.4416 0.99353 0.85712 0.0
C338 C 0.47602 0.99388 0.83461 0.0
C339 C 0.4424 0.97511 0.82364 0.0
C340 C 0.43076 0.98113 0.8422 0.0
C341 C 0.46508 0.98144 0.8197 0.0
C342 C 0.46436 0.99983 0.85329 0.0
C343 C 0.42864 0.9997 0.87636 0.0
O344 O 0.41045 0.9975 0.93969 0.0
O345 O 0.41282 0.03351 0.93044 0.0
O346 O 0.43136 1.02037 0.88259 0.0
O347 O 0.42817 0.9844 0.89192 0.0
H348 H 0.3781 1.016 0.90502 0.0
H349 H 0.33665 1.01633 0.90191 0.0
H350 H 0.32768 1.02102 0.9693 0.0
H351 H 0.36907 1.02081 0.97243 0.0
H352 H 0.47342 0.02876 0.99939 0.0
H353 H 0.45609 1.02302 0.96545 0.0
H354 H 0.53855 1.00928 0.97235 0.0
H355 H 0.52128 1.00361 0.93843 0.0
H356 H 0.49352 0.99892 0.83177 0.0
H357 H 0.43371 0.96554 0.8123 0.0
H358 H 0.41323 0.97612 0.84489 0.0
H359 H 0.47304 1.00935 0.86467 0.0
C360 C 0.51228 0.37532 0.44057 0.0
C361 C 0.51307 0.36574 0.42068 0.0
C362 C 0.51017 0.32818 0.43737 0.0
C363 C 0.51199 0.34228 0.41909 0.0
C364 C 0.50904 0.33779 0.45721 0.0
C365 C 0.51008 0.36124 0.4588 0.0
U366 U 0.52473 0.43342 0.41555 0.0
O367 O 0.51013 0.46685 0.42197 0.0
O368 O 0.54639 0.46052 0.42602 0.0
C369 C 0.52925 0.47452 0.42873 0.0
C370 C 0.51488 0.39979 0.44247 0.0
C371 C 0.52778 0.48523 0.44925 0.0
C372 C 0.51398 0.48597 0.48584 0.0
C373 C 0.51484 0.47565 0.46639 0.0
C374 C 0.53917 0.51535 0.47133 0.0
C375 C 0.5262 0.50584 0.48841 0.0
C376 C 0.53992 0.50512 0.45186 0.0
C377 C 0.53767 0.43801 0.35584 0.0
C378 C 0.54083 0.47325 0.33495 0.0
C379 C 0.5547 0.43829 0.32037 0.0
C380 C 0.5479 0.42653 0.33903 0.0
C381 C 0.55132 0.46172 0.31823 0.0
C382 C 0.53414 0.46147 0.35373 0.0
C383 C 0.53129 0.42518 0.37546 0.0
O384 O 0.53558 0.40729 0.43856 0.0
O385 O 0.49937 0.41255 0.4336 0.0
O386 O 0.51126 0.42977 0.38416 0.0
O387 O 0.54727 0.42303 0.38916 0.0
H388 H 0.51491 0.37639 0.40644 0.0
H389 H 0.51298 0.33509 0.40367 0.0
H390 H 0.50772 0.32711 0.47145 0.0
H391 H 0.50956 0.36836 0.47425 0.0
H392 H 0.50395 0.47841 0.49893 0.0
H393 H 0.50549 0.4602 0.46473 0.0
H394 H 0.54871 0.53066 0.4731 0.0
H395 H 0.55007 0.51267 0.43885 0.0
H396 H 0.53809 0.49134 0.33352 0.0
H397 H 0.56275 0.42915 0.30761 0.0
H398 H 0.55079 0.40845 0.34042 0.0
H399 H 0.52636 0.47063 0.36659 0.0
C400 C 0.17827 0.51209 0.93757 0.0
C401 C 0.19027 0.51394 0.91801 0.0
C402 C 0.22587 0.50964 0.93559 0.0
C403 C 0.21398 0.5127 0.91703 0.0
C404 C 0.21382 0.50746 0.95508 0.0
C405 C 0.19015 0.50867 0.95606 0.0
U406 U 0.12178 0.52442 0.91238 0.0
O407 O 0.08813 0.50947 0.9193 0.0
O408 O 0.09329 0.54563 0.92345 0.0
C409 C 0.07952 0.52837 0.92644 0.0
C410 C 0.1535 0.51468 0.93904 0.0
C411 C 0.06798 0.52653 0.94741 0.0
C412 C 0.06858 0.51731 0.98501 0.0
C413 C 0.07955 0.51837 0.96503 0.0
C414 C 0.03438 0.53258 0.96997 0.0
C415 C 0.04595 0.52449 0.98759 0.0
C416 C 0.04534 0.53358 0.94999 0.0
C417 C 0.12134 0.53759 0.8527 0.0
C418 C 0.08754 0.54052 0.83219 0.0
C419 C 0.12345 0.5546 0.81726 0.0
C420 C 0.13394 0.5479 0.8358 0.0
C421 C 0.10018 0.55106 0.81535 0.0
C422 C 0.09804 0.53391 0.85082 0.0
C423 C 0.13285 0.53126 0.87217 0.0
O424 O 0.146 0.5353 0.93517 0.0
O425 O 0.1419 0.4992 0.92997 0.0
O426 O 0.12805 0.5112 0.88079 0.0
O427 O 0.13361 0.54713 0.88597 0.0
H428 H 0.18132 0.51669 0.9036 0.0
H429 H 0.22306 0.5145 0.90188 0.0
H430 H 0.22279 0.50518 0.96954 0.0
H431 H 0.18114 0.50729 0.97127 0.0
H432 H 0.07773 0.51106 0.99847 0.0
H433 H 0.09709 0.51298 0.96332 0.0
H434 H 1.01693 0.5382 0.97173 0.0
H435 H 0.03621 0.54001 0.93657 0.0
H436 H 0.06956 0.53766 0.83095 0.0
H437 H 0.13345 0.56271 0.80444 0.0
H438 H 0.15191 0.5509 0.83699 0.0
H439 H 0.08801 0.52606 0.86376 0.0
C440 C 1.01778 0.17918 0.43733 0.0
C441 C 1.0154 0.19063 0.41775 0.0
C442 C 1.01816 0.22669 0.4344 0.0
C443 C 1.01562 0.21428 0.41629 0.0
C444 C 1.02063 0.21522 0.45392 0.0
C445 C 1.02046 0.1916 0.45536 0.0
U446 U 1.0087 0.12167 0.41406 0.0
O447 O 0.02671 0.0894 0.41916 0.0
O448 O 0.99045 0.09197 0.42789 0.0
C449 C 1.00895 0.07957 0.42869 0.0
C450 C 1.01696 0.15438 0.4393 0.0
C451 C 1.01285 0.06825 0.44929 0.0
C452 C 0.02776 0.06825 0.48438 0.0
C453 C 1.02438 0.0792 0.46482 0.0
C454 C 1.00791 0.03542 0.47322 0.0
C455 C 1.01952 0.0463 0.48869 0.0
C456 C 1.00462 0.04632 0.45363 0.0
C457 C 0.99367 0.12023 0.35558 0.0
C458 C 0.99502 0.08767 0.33337 0.0
C459 C 0.97539 0.12182 0.32204 0.0
C460 C 0.98102 0.13205 0.34052 0.0
C461 C 0.98236 0.09959 0.31831 0.0
C462 C 1.00059 0.0979 0.35197 0.0
C463 C 0.99955 0.13178 0.37468 0.0
O464 O 0.99678 0.14557 0.43778 0.0
O465 O 0.03297 0.14361 0.42867 0.0
O466 O 1.02026 0.12855 0.38107 0.0
O467 O 0.98407 0.13126 0.39019 0.0
H468 H 1.01323 0.18127 0.40368 0.0
H469 H 1.01363 0.22292 0.40113 0.0
H470 H 1.02256 0.22457 0.46803 0.0
H471 H 1.02224 0.18303 0.47059 0.0
H472 H 0.03671 0.07689 0.49618 0.0
H473 H 0.03072 0.0962 0.46181 0.0
H474 H 1.00142 1.0185 0.47633 0.0
H475 H 0.99561 0.03766 0.44188 0.0
H476 H 1.00055 0.0705 0.33072 0.0
H477 H 0.96562 0.13126 0.31059 0.0
H478 H 0.97554 0.14927 0.34303 0.0
H479 H 1.01032 0.08847 0.36344 0.0
C480 C 0.87226 0.03216 0.12025 0.0
C481 C 0.8606 0.0306 0.14001 0.0
C482 C 0.8246 0.03116 0.12286 0.0
C483 C 0.83688 0.03003 0.1413 0.0
C484 C 0.83626 0.03275 0.10315 0.0
C485 C 0.85995 0.03322 0.10186 0.0
U486 U 0.92968 0.04138 0.14396 0.0
O487 O 0.96215 1.02356 0.13879 0.0
O488 O 0.9595 0.05973 0.1304 0.0
C489 C 0.97202 0.04134 0.12945 0.0
C490 C 0.89715 0.03316 0.11849 0.0
C491 C 0.98332 0.03756 0.10878 0.0
C492 C 0.98194 0.02665 0.07237 0.0
C493 C 0.97105 0.02991 0.09204 0.0
C494 C 1.01743 0.03873 0.08594 0.0
C495 C 1.00519 0.03108 0.06921 0.0
C496 C 1.00655 0.04194 0.10561 0.0
C497 C 0.93059 0.0562 0.20257 0.0
C498 C 0.96267 0.05417 0.22539 0.0
C499 C 0.92894 0.07527 0.23575 0.0
C500 C 0.9189 0.06959 0.2172 0.0
C501 C 0.95086 0.06759 0.24001 0.0
C502 C 0.95262 0.04857 0.20671 0.0
C503 C 0.9192 0.05031 0.18338 0.0
O504 O 0.90584 0.05332 0.12023 0.0
O505 O 0.90798 1.0172 0.12903 0.0
O506 O 0.92259 0.02971 0.17687 0.0
O507 O 0.91974 0.06579 0.16797 0.0
H508 H 0.86985 0.02991 0.15438 0.0
H509 H 0.82808 0.02888 0.15662 0.0
H510 H 0.82701 0.03368 0.08879 0.0
H511 H 0.86867 0.03452 0.0865 0.0
H512 H 0.97226 1.02076 0.0596 0.0
H513 H 0.95307 0.02653 0.09419 0.0
H514 H 0.03538 0.04223 0.08374 0.0
H515 H 1.01625 0.04791 0.11834 0.0
H516 H 0.9796 0.0481 0.22844 0.0
H517 H 0.91959 0.08561 0.24686 0.0
H518 H 0.9019 0.07562 0.21429 0.0
H519 H 0.96198 0.03826 0.19558 0.0
C520 C 0.53951 0.8708 0.618 0.0
C521 C 0.53913 0.85908 0.63767 0.0
C522 C 0.54192 0.82335 0.62022 0.0
C523 C 0.54037 0.83545 0.63878 0.0
C524 C 0.54256 0.83509 0.60059 0.0
C525 C 0.54137 0.85869 0.5995 0.0
U526 U 0.52777 0.92717 0.64338 0.0
O527 O 0.54301 0.96062 0.63643 0.0
O528 O 0.50663 0.95576 0.63277 0.0
C529 C 0.52401 0.9694 0.62968 0.0
C530 C 0.53706 0.89551 0.61652 0.0
C531 C 0.52567 0.98109 0.60883 0.0
C532 C 0.53062 0.98019 0.5707 0.0
C533 C 0.52981 0.96895 0.59051 0.0
C534 C 0.52332 1.01581 0.58733 0.0
C535 C 0.52728 1.00368 0.569 0.0
C536 C 0.52252 1.00457 0.60714 0.0
C537 C 0.51494 0.92748 0.70325 0.0
C538 C 0.51613 0.95964 0.72584 0.0
C539 C 0.49464 0.92634 0.73736 0.0
C540 C 0.50105 0.91606 0.71861 0.0
C541 C 0.50207 0.9482 0.7411 0.0
C542 C 0.52243 0.94939 0.70695 0.0
C543 C 0.52113 0.91612 0.68359 0.0
O544 O 0.51645 0.90313 0.62062 0.0
O545 O 0.55276 0.907 0.62541 0.0
O546 O 0.54124 0.9207 0.6748 0.0
O547 O 0.5051 0.91544 0.66994 0.0
H548 H 0.53758 0.8682 0.65212 0.0
H549 H 0.53976 0.8266 0.65404 0.0
H550 H 0.54367 0.82596 0.58615 0.0
H551 H 0.54159 0.86748 0.5842 0.0
H552 H 0.53367 0.9706 0.55669 0.0
H553 H 0.53224 0.9508 0.59156 0.0
H554 H 0.52072 0.03394 0.58627 0.0
H555 H 0.51926 1.01417 0.62112 0.0
H556 H 0.52203 0.97652 0.7285 0.0
H557 H 0.4838 0.91727 0.74897 0.0
H558 H 0.49509 0.89917 0.71604 0.0
H559 H 0.53308 0.95856 0.69527 0.0
C560 C 0.67467 0.53805 0.11618 0.0
C561 C 0.6843 0.53489 0.13591 0.0
C562 C 0.72194 0.53985 0.11945 0.0
C563 C 0.70782 0.53579 0.13753 0.0
C564 C 0.71227 0.54342 0.0998 0.0
C565 C 0.68875 0.54251 0.09817 0.0
U566 U 0.61625 0.52601 0.14101 0.0
O567 O 0.58289 0.54102 0.13466 0.0
O568 O 0.58884 0.50484 0.13048 0.0
C569 C 0.57496 0.52206 0.12789 0.0
C570 C 0.65012 0.53575 0.11415 0.0
C571 C 0.56445 0.52374 0.10735 0.0
C572 C 0.56719 0.53064 0.06936 0.0
C573 C 0.57728 0.52988 0.0889 0.0
C574 C 0.53137 0.51924 0.08654 0.0
C575 C 0.5442 0.52523 0.06808 0.0
C576 C 0.54145 0.51851 0.10606 0.0
C577 C 0.61172 0.51238 0.20081 0.0
C578 C 0.57937 0.51572 0.2256 0.0
C579 C 0.60985 0.48948 0.23342 0.0
C580 C 0.62118 0.49603 0.21444 0.0
C581 C 0.58889 0.49927 0.23914 0.0
C582 C 0.59066 0.52216 0.20647 0.0
C583 C 0.62439 0.51893 0.18101 0.0
O584 O 0.64235 0.51517 0.11779 0.0
O585 O 0.63746 0.55125 0.12322 0.0
O586 O 0.62007 0.53906 0.17257 0.0
O587 O 0.62648 0.50315 0.1671 0.0
H588 H 0.67365 0.53137 0.14996 0.0
H589 H 0.71506 0.53297 0.1528 0.0
H590 H 0.72296 0.54652 0.0857 0.0
H591 H 0.68158 0.54492 0.08284 0.0
H592 H 0.5773 0.53526 0.05523 0.0
H593 H 0.5951 0.53388 0.08962 0.0
H594 H 0.51361 0.51501 0.08579 0.0
H595 H 0.53134 0.51367 0.12014 0.0
H596 H 0.56322 0.52346 0.22983 0.0
H597 H 0.61745 0.47681 0.24371 0.0
H598 H 0.63741 0.48831 0.21039 0.0
H599 H 0.58296 0.53477 0.19619 0.0
C600 C 0.03237 0.67553 0.6167 0.0
C601 C 0.03369 0.68482 0.6366 0.0
C602 C 0.03113 0.72267 0.62059 0.0
C603 C 0.03305 0.70828 0.63854 0.0
C604 C 0.02958 0.71335 0.60076 0.0
C605 C 0.03019 0.68991 0.59883 0.0
U606 U 0.04258 0.61641 0.64 0.0
O607 O 0.02692 0.58382 0.6339 0.0
O608 O 0.06348 0.58859 0.62767 0.0
C609 C 0.04591 0.57545 0.62577 0.0
C610 C 0.03417 0.65099 0.61431 0.0
C611 C 0.04482 0.56447 0.60533 0.0
C612 C 1.02585 0.55662 0.57312 0.0
C613 C 0.02634 0.56763 0.59222 0.0
C614 C 0.0623 0.5394 0.57986 0.0
C615 C 0.04386 0.54245 0.56684 0.0
C616 C 0.06273 0.55024 0.59895 0.0
C617 C 0.05529 0.61086 0.69911 0.0
C618 C 0.05132 0.57854 0.7239 0.0
C619 C 0.07679 0.60899 0.73088 0.0
C620 C 0.07095 0.62028 0.71217 0.0
C621 C 0.06699 0.58809 0.73692 0.0
C622 C 0.04556 0.58981 0.70504 0.0
C623 C 0.04926 0.62367 0.67974 0.0
O624 O 0.05456 0.64248 0.61661 0.0
O625 O 1.01814 0.6388 0.62413 0.0
O626 O 0.02911 0.62001 0.67253 0.0
O627 O 0.06535 0.62537 0.66483 0.0
H628 H 0.0355 0.67394 0.65055 0.0
H629 H 0.03434 0.71524 0.65394 0.0
H630 H 0.02815 0.72424 0.58676 0.0
H631 H 0.02925 0.68301 0.58336 0.0
H632 H 1.01151 0.55918 0.56323 0.0
H633 H 1.01231 0.57856 0.5967 0.0
H634 H 0.07636 0.52855 0.57523 0.0
H635 H 0.0771 0.54749 0.60879 0.0
H636 H 0.04357 0.56244 0.72837 0.0
H637 H 0.08888 0.61661 0.74076 0.0
H638 H 0.07861 0.63649 0.70791 0.0
H639 H 0.03347 0.58216 0.69519 0.0
C640 C 0.52335 0.04464 1.01473 0.0
C641 C 0.51769 1.0226 1.00882 0.0
C642 C 0.53403 1.00635 0.04096 0.0
C643 C 0.53812 0.02848 0.04761 0.0
N644 N 0.53401 0.06883 0.04256 0.0
N645 N 0.51449 0.98269 1.01735 0.0
C646 C 0.53203 0.04769 0.03496 0.0
C647 C 0.52217 1.00349 1.02223 0.0
N648 N 0.52104 0.06257 1.00073 0.0
N649 N 0.54201 0.98808 0.05228 0.0
H650 H 0.50597 0.97991 1.00366 0.0
H651 H 0.51496 0.96852 1.02756 0.0
H652 H 0.55043 0.98952 0.06626 0.0
H653 H 0.54187 0.97165 0.04708 0.0
H654 H 0.52721 0.07865 1.00309 0.0
H655 H 0.51445 0.06103 0.9859 0.0
H656 H 0.52751 0.08335 0.03522 0.0
H657 H 0.54069 0.07174 0.05713 0.0
C658 C 0.54321 0.52332 0.54255 0.0
C659 C 0.52479 0.53769 0.54825 0.0
C660 C 0.5081 0.53238 0.51411 0.0
C661 C 0.52558 0.51668 0.50911 0.0
N662 N 0.55809 0.49469 0.51935 0.0
N663 N 0.48806 0.55354 0.54111 0.0
C664 C 0.54267 0.51142 0.52357 0.0
C665 C 0.50678 0.54161 0.53446 0.0
N666 N 0.56153 0.52164 0.55496 0.0
N667 N 0.49307 0.53884 0.49921 0.0
H668 H 0.48657 0.56072 0.55583 0.0
H669 H 0.47329 0.55488 0.53279 0.0
H670 H 0.49315 0.532 0.48433 0.0
H671 H 0.48157 0.55211 0.50096 0.0
H672 H 0.57656 0.51345 0.55058 0.0
H673 H 0.56246 0.53 0.56904 0.0
H674 H 0.56936 0.48824 0.53025 0.0
H675 H 0.55855 0.48597 0.50539 0.0
C676 C 1.02501 0.50318 1.01731 0.0
C677 C 0.03438 0.52377 1.00885 0.0
C678 C 1.01991 0.54347 0.03997 0.0
C679 C 1.01199 0.52257 0.04908 0.0
N680 N 1.00961 0.48202 0.0481 0.0
N681 N 0.04382 0.56281 1.01303 0.0
C682 C 1.01527 0.50225 0.03821 0.0
C683 C 0.03269 0.54375 1.02045 0.0
N684 N 1.02486 0.48468 1.00511 0.0
N685 N 1.01467 0.56312 0.04973 0.0
H686 H 0.05307 0.56374 0.99866 0.0
H687 H 0.04539 0.57717 1.02177 0.0
H688 H 1.00568 0.56353 0.06421 0.0
H689 H 1.0177 0.5791 0.04282 0.0
H690 H 1.01607 0.46992 1.00941 0.0
H691 H 0.03217 0.48463 0.98986 0.0
H692 H 1.01386 0.46643 0.04201 0.0
H693 H 1.0021 0.48072 0.06327 0.0
C694 C 1.00814 1.02265 0.54485 0.0
C695 C 0.02931 1.01224 0.54893 0.0
C696 C 0.0435 1.02281 0.513 0.0
C697 C 1.02296 0.03467 0.5095 0.0
N698 N 0.98686 0.04869 0.52269 0.0
N699 N 0.06829 1.00497 0.53831 0.0
C700 C 1.00558 0.03538 0.52561 0.0
C701 C 0.04732 1.013 0.53337 0.0
N702 N 0.99027 1.01976 0.55912 0.0
N703 N 0.05912 1.02046 0.49669 0.0
H704 H 0.07167 0.99746 0.55297 0.0
H705 H 0.08276 1.00728 0.52852 0.0
H706 H 0.05713 0.02783 0.4817 0.0
H707 H 0.07324 1.00988 0.49751 0.0
H708 H 0.97375 1.02476 0.55613 0.0
H709 H 0.99157 1.01073 0.57346 0.0
H710 H 0.97479 0.052 0.53461 0.0
H711 H 0.9842 0.05789 0.50866 0.0
C712 C 0.0333 1.00246 1.02199 0.0
C713 C 0.03905 1.02154 1.00864 0.0
C714 C 1.02097 0.04668 0.03425 0.0
C715 C 1.01678 0.02777 0.04828 0.0
N716 N 1.02156 0.9881 0.05706 0.0
N717 N 0.04133 0.06194 1.0029 0.0
C718 C 1.02366 1.00575 0.04257 0.0
C719 C 0.0337 0.04371 1.01501 0.0
N720 N 0.03653 0.98119 1.01475 0.0
N721 N 1.0122 0.06736 0.03909 0.0
H722 H 0.05036 0.06041 0.98855 0.0
H723 H 0.04024 0.07851 1.00775 0.0
H724 H 1.00304 0.07023 0.05315 0.0
H725 H 1.01245 0.0813 0.02856 0.0
H726 H 0.03038 0.96665 1.02272 0.0
H727 H 0.04392 0.97812 0.99992 0.0
H728 H 0.02854 0.97216 0.05475 0.0
H729 H 1.01427 0.9898 0.07217 0.0
C730 C 0.54866 1.0205 0.53713 0.0
C731 C 0.52762 1.01559 0.54794 0.0
C732 C 0.5073 0.03509 0.51957 0.0
C733 C 0.52821 0.0385 0.50806 0.0
N734 N 0.5685 0.03203 0.50423 0.0
N735 N 0.48678 1.01508 0.54843 0.0
C736 C 0.54883 0.03051 0.51638 0.0
C737 C 0.50688 1.02205 0.53888 0.0
N738 N 0.56846 1.01625 0.54699 0.0
N739 N 0.48793 0.04476 0.51223 0.0
H740 H 0.48579 1.00566 0.56267 0.0
H741 H 0.4712 1.01706 0.54152 0.0
H742 H 0.4875 0.05397 0.49791 0.0
H743 H 0.47261 0.04513 0.52098 0.0
H744 H 0.58425 1.02169 0.54095 0.0
H745 H 0.56901 1.00873 0.56209 0.0
H746 H 0.58362 1.02425 0.50837 0.0
H747 H 0.56938 0.03974 0.48917 0.0
C748 C 0.53032 0.5049 0.03724 0.0
C749 C 0.53353 0.52552 0.04732 0.0
C750 C 0.51747 0.54666 1.01744 0.0
C751 C 0.51264 0.52593 1.00817 0.0
N752 N 0.51152 0.48523 1.01019 0.0
N753 N 0.52757 0.56574 0.04876 0.0
C754 C 0.51825 0.505 1.01834 0.0
C755 C 0.52641 0.54635 0.03788 0.0
N756 N 0.53941 0.48532 0.04543 0.0
N757 N 0.51402 0.56663 1.00644 0.0
H758 H 0.53431 0.56622 0.06364 0.0
H759 H 0.52034 0.58103 0.04383 0.0
H760 H 0.50707 0.56754 0.99162 0.0
H761 H 0.51956 0.58217 1.01123 0.0
H762 H 0.53987 0.47017 0.03767 0.0
H763 H 0.54816 0.48456 0.05936 0.0
H764 H 0.5128 0.46954 1.01805 0.0
H765 H 0.50304 0.48464 0.99617 0.0
C766 C 0.05019 0.54252 0.52737 0.0
C767 C 0.04378 0.53072 0.54657 0.0
C768 C 0.04323 0.49558 0.52764 0.0
C769 C 0.04341 0.50821 0.50819 0.0
N770 N 0.06554 0.53856 0.49183 0.0
N771 N 0.03406 0.49538 0.56502 0.0
C772 C 0.05214 0.53048 0.50844 0.0
C773 C 0.04033 0.50703 0.54675 0.0
N774 N 0.05439 0.56518 0.52709 0.0
N775 N 0.05014 0.47357 0.52812 0.0
H776 H 0.03167 0.5031 0.57943 0.0
H777 H 0.02947 0.47839 0.56534 0.0
H778 H 0.05723 0.4662 0.51469 0.0
H779 H 0.05222 0.4641 0.54211 0.0
H780 H 0.05666 0.57493 0.51314 0.0
H781 H 0.05418 0.57445 0.54071 0.0
H782 H 0.0742 0.55382 0.49182 0.0
H783 H 0.07042 0.52837 0.47936 0.0
C784 C 0.58756 0.10031 0.26298 0.0
C785 C 0.58002 0.07929 0.25604 0.0
C786 C 0.55232 0.0765 0.28597 0.0
C787 C 0.56149 0.09633 0.294 0.0
N788 N 0.59025 0.12517 0.29209 0.0
N789 N 0.55727 0.04583 0.26194 0.0
C790 C 0.57976 0.10774 0.28301 0.0
C791 C 0.5629 0.06695 0.26779 0.0
N792 N 0.60175 0.11345 0.25017 0.0
N793 N 0.53316 0.06717 0.2954 0.0
H794 H 0.56443 0.03847 0.24855 0.0
H795 H 0.54678 0.03494 0.27112 0.0
H796 H 0.52508 0.07365 0.30881 0.0
H797 H 0.52423 0.05416 0.28905 0.0
H798 H 0.60586 0.13 0.25334 0.0
H799 H 0.60786 0.10858 0.23537 0.0
H800 H 0.60523 0.13247 0.28593 0.0
H801 H 0.58514 0.13111 0.30679 0.0
C802 C 0.4862 0.5518 0.78656 0.0
C803 C 0.46919 0.56391 0.79793 0.0
C804 C 0.47029 0.59417 0.77045 0.0
C805 C 0.48853 0.58294 0.75989 0.0
N806 N 0.5163 0.55292 0.75926 0.0
N807 N 0.44797 0.59837 0.80297 0.0
C808 C 0.4972 0.56224 0.76833 0.0
C809 C 0.46209 0.58563 0.79053 0.0
N810 N 0.49134 0.53008 0.79282 0.0
N811 N 0.46022 0.61253 0.76094 0.0
H812 H 0.44156 0.59271 0.81779 0.0
H813 H 0.44421 0.61527 0.79946 0.0
H814 H 0.46563 0.61929 0.74617 0.0
H815 H 0.44529 0.61987 0.76679 0.0
H816 H 0.50174 0.51947 0.78394 0.0
H817 H 0.48384 0.52203 0.80625 0.0
H818 H 0.52487 0.53917 0.76592 0.0
H819 H 0.52468 0.56006 0.74584 0.0
C820 C 0.9789 0.46431 0.28234 0.0
C821 C 0.96979 0.47269 0.30155 0.0
C822 C 0.94759 0.5008 0.28175 0.0
C823 C 0.95418 0.49025 0.26276 0.0
N824 N 0.97421 0.46032 0.245 0.0
N825 N 0.94387 0.49754 0.3199 0.0
C826 C 0.9695 0.47166 0.26301 0.0
C827 C 0.95382 0.49072 0.30137 0.0
N828 N 0.99681 0.44955 0.2826 0.0
N829 N 0.9357 0.52069 0.28095 0.0
H830 H 0.94813 0.49072 0.3346 0.0
H831 H 0.93022 0.50875 0.32067 0.0
H832 H 0.93097 0.52856 0.26681 0.0
H833 H 0.93233 0.5304 0.29403 0.0
H834 H 1.00571 0.44461 0.26903 0.0
H835 H 1.00415 0.44387 0.2965 0.0
H836 H 0.98312 0.44509 0.24474 0.0
H837 H 0.96769 0.46513 0.2305 0.0
C838 C 0.06718 0.95058 0.77855 0.0
C839 C 0.07835 0.95739 0.75912 0.0
C840 C 0.10302 0.98222 0.7778 0.0
C841 C 0.09401 0.97299 0.79733 0.0
N842 N 0.06909 0.9466 0.81655 0.0
N843 N 0.1085 0.97787 0.74015 0.0
C844 C 0.07636 0.9568 0.7978 0.0
C845 C 0.09661 0.97288 0.75868 0.0
N846 N 0.04755 0.93849 0.77855 0.0
N847 N 0.11742 1.00021 0.77755 0.0
H848 H 0.10428 0.97149 0.72578 0.0
H849 H 0.12357 0.98694 0.73923 0.0
H850 H 0.12239 1.00752 0.79127 0.0
H851 H 0.12277 1.00918 0.76382 0.0
H852 H 0.03735 0.93498 0.79205 0.0
H853 H 0.04033 0.93372 0.76472 0.0
H854 H 0.05819 0.93283 0.81766 0.0
H855 H 0.0753 0.95075 0.831 0.0
C856 C 0.4931 0.95708 0.79978 0.0
C857 C 0.47704 0.97503 0.79971 0.0
C858 C 0.47819 0.97631 0.76105 0.0
C859 C 0.49486 0.95891 0.76111 0.0
N860 N 0.52201 0.93643 0.78007 0.0
N861 N 0.45832 1.00525 0.78066 0.0
C862 C 0.50354 0.95048 0.78037 0.0
C863 C 0.47089 0.98578 0.78042 0.0
N864 N 0.4976 0.94564 0.81826 0.0
N865 N 0.4685 0.98301 0.74265 0.0
H866 H 0.45278 1.01267 0.7946 0.0
H867 H 0.4552 1.01514 0.76717 0.0
H868 H 0.47333 0.97652 0.72811 0.0
H869 H 0.45445 0.99371 0.742 0.0
H870 H 0.5071 0.93078 0.819 0.0
H871 H 0.49043 0.95003 0.83283 0.0
H872 H 0.53055 0.9315 0.79351 0.0
H873 H 0.53012 0.93137 0.76611 0.0
C874 C 0.58665 0.49835 0.27865 0.0
C875 C 0.57725 0.49221 0.25954 0.0
C876 C 0.54767 0.47067 0.2796 0.0
C877 C 0.55913 0.47398 0.29838 0.0
N878 N 0.59097 0.48902 0.31572 0.0
N879 N 0.5501 0.4707 0.24144 0.0
C880 C 0.57892 0.48748 0.29795 0.0
C881 C 0.55795 0.47803 0.25989 0.0
N882 N 0.60275 0.51484 0.27833 0.0
N883 N 0.52679 0.46077 0.28069 0.0
H884 H 0.55712 0.47572 0.22666 0.0
H885 H 0.53777 0.4583 0.2408 0.0
H886 H 0.51876 0.45528 0.29491 0.0
H887 H 0.51656 0.45991 0.26781 0.0
H888 H 0.60863 0.52167 0.2919 0.0
H889 H 0.60868 0.52325 0.26445 0.0
H890 H 0.6069 0.49644 0.31575 0.0
H891 H 0.58592 0.48134 0.3302 0.0
C892 C 0.07526 0.57843 0.79553 0.0
C893 C 0.08922 0.55882 0.79567 0.0
C894 C 0.08776 0.55755 0.75721 0.0
C895 C 0.07308 0.57663 0.75718 0.0
N896 N 0.04857 0.60193 0.77651 0.0
N897 N 0.10456 0.52676 0.7776 0.0
C898 C 0.06546 0.58601 0.77645 0.0
C899 C 0.09413 0.54743 0.77677 0.0
N900 N 0.07224 0.59047 0.81337 0.0
N901 N 0.09647 0.54974 0.73857 0.0
H902 H 0.10936 0.51885 0.7917 0.0
H903 H 0.10657 0.51656 0.76467 0.0
H904 H 0.09215 0.5566 0.7239 0.0
H905 H 0.10927 0.53759 0.73761 0.0
H906 H 0.06444 0.60629 0.81358 0.0
H907 H 0.0791 0.58553 0.82769 0.0
H908 H 0.04068 0.60775 0.79025 0.0
H909 H 0.04094 0.60776 0.76281 0.0
C910 C 0.95264 0.06366 0.27938 0.0
C911 C 0.96114 0.07366 0.25998 0.0
C912 C 0.98714 0.09671 0.27906 0.0
C913 C 0.97633 0.08911 0.29842 0.0
N914 N 0.9472 0.06699 0.31716 0.0
N915 N 0.98489 0.10137 0.24114 0.0
C916 C 0.95876 0.07286 0.29866 0.0
C917 C 0.97812 0.09052 0.25973 0.0
N918 N 0.939 0.04511 0.27934 0.0
N919 N 1.00625 0.10958 0.2792 0.0
H920 H 0.9788 0.09726 0.22662 0.0
H921 H 0.99522 0.11557 0.24023 0.0
H922 H 1.01334 0.11434 0.2931 0.0
H923 H 1.01624 0.11375 0.26572 0.0
H924 H 0.93411 0.03565 0.29293 0.0
H925 H 0.93427 0.0379 0.26549 0.0
H926 H 0.93254 0.05728 0.31798 0.0
H927 H 0.95123 0.07324 0.33164 0.0
C928 C 0.78734 0.05178 0.12259 0.0
C929 C 0.79941 0.03101 0.12403 0.0
C930 C 0.76355 1.01019 0.12693 0.0
C931 C 0.75163 0.03078 0.12332 0.0
N932 N 0.7519 0.07093 0.11536 0.0
N933 N 0.79963 0.99029 0.1255 0.0
C934 C 0.76344 0.05155 0.1206 0.0
C935 C 0.78768 1.01015 0.12572 0.0
N936 N 0.79873 0.07171 0.12353 0.0
N937 N 0.75176 0.9908 0.13198 0.0
H938 H 0.8173 0.98959 0.12517 0.0
H939 H 0.79219 0.97456 0.12422 0.0
H940 H 0.73409 0.9902 0.1328 0.0
H941 H 0.75934 0.97572 0.13699 0.0
H942 H 0.79071 0.08733 0.12489 0.0
H943 H 0.81627 0.07252 0.12466 0.0
H944 H 0.75979 0.08611 0.11078 0.0
H945 H 0.73436 0.07151 0.11406 0.0
C946 C 0.56243 0.78614 0.62422 0.0
C947 C 0.54191 0.79825 0.62122 0.0
C948 C 0.52181 0.76278 0.6168 0.0
C949 C 0.54202 0.7506 0.62097 0.0
N950 N 0.58064 0.74998 0.63171 0.0
N951 N 0.50137 0.7984 0.61817 0.0
C952 C 0.56209 0.76209 0.62559 0.0
C953 C 0.52137 0.78663 0.61854 0.0
N954 N 0.58232 0.79767 0.62512 0.0
N955 N 0.50323 0.75158 0.61055 0.0
H956 H 0.50041 0.81592 0.61912 0.0
H957 H 0.48553 0.79074 0.61861 0.0
H958 H 0.50271 0.73406 0.60952 0.0
H959 H 0.48889 0.75969 0.60489 0.0
H960 H 0.5982 0.78992 0.62492 0.0
H961 H 0.58312 0.81527 0.62462 0.0
H962 H 0.59498 0.75725 0.63749 0.0
H963 H 0.58107 0.73235 0.63251 0.0
C964 C 0.78243 0.518 0.12428 0.0
C965 C 0.79473 0.53849 0.12183 0.0
C966 C 0.75913 0.56004 0.12055 0.0
C967 C 0.74698 0.53943 0.1209 0.0
N968 N 0.74683 0.49873 0.12054 0.0
N969 N 0.79546 0.57889 0.1156 0.0
C970 C 0.75856 0.51837 0.12217 0.0
C971 C 0.78325 0.55952 0.11946 0.0
N972 N 0.79357 0.49824 0.12901 0.0
N973 N 0.74754 0.58005 0.12176 0.0
H974 H 0.81313 0.57921 0.1153 0.0
H975 H 0.78823 0.59439 0.11132 0.0
H976 H 0.72988 0.58104 0.12237 0.0
H977 H 0.75527 0.5955 0.12381 0.0
H978 H 0.78536 0.48316 0.13332 0.0
H979 H 0.81111 0.49725 0.13027 0.0
H980 H 0.75457 0.48302 0.11889 0.0
H981 H 0.7293 0.49826 0.11921 0.0
C982 C 1.01142 0.75931 0.62877 0.0
C983 C 0.03147 0.74761 0.62239 0.0
C984 C 0.05145 0.7836 0.61617 0.0
C985 C 0.03178 0.79523 0.62362 0.0
N986 N 0.99431 0.7944 0.64021 0.0
N987 N 0.0716 0.74791 0.61361 0.0
C988 C 1.01211 0.78313 0.63088 0.0
C989 C 0.05181 0.75957 0.61715 0.0
N990 N 0.99156 0.74772 0.63212 0.0
N991 N 0.06952 0.79555 0.6075 0.0
H992 H 0.07248 0.7303 0.614 0.0
H993 H 0.08744 0.75554 0.612 0.0
H994 H 0.07008 0.81316 0.60685 0.0
H995 H 0.08327 0.78814 0.59955 0.0
H996 H 0.97585 0.75551 0.63447 0.0
H997 H 0.9905 0.73023 0.63106 0.0
H998 H 0.98047 0.78636 0.64787 0.0
H999 H 0.99416 0.81187 0.64177 0.0
C1000 C 0.26841 0.03775 0.92632 0.0
C1001 C 0.25645 1.01779 0.93279 0.0
C1002 C 0.29239 0.99776 0.9381 0.0
C1003 C 0.30421 1.01829 0.9337 0.0
N1004 N 0.30379 0.05842 0.92574 0.0
N1005 N 0.25645 0.97947 0.94712 0.0
C1006 C 0.29231 0.03846 0.9283 0.0
C1007 C 0.26828 0.99792 0.93923 0.0
N1008 N 0.25694 0.05583 0.91787 0.0
N1009 N 0.30427 0.97801 0.94074 0.0
H1010 H 0.23879 0.97879 0.94785 0.0
H1011 H 0.26401 0.96544 0.95437 0.0
H1012 H 0.32194 0.97728 0.94027 0.0
H1013 H 0.29675 0.96214 0.94169 0.0
H1014 H 0.26487 0.07 0.91078 0.0
H1015 H 0.23941 0.05595 0.91641 0.0
H1016 H 0.29586 0.07411 0.92417 0.0
H1017 H 0.32134 0.05952 0.92667 0.0
C1018 C 0.49035 0.2916 0.43169 0.0
C1019 C 0.51051 0.30322 0.43583 0.0
C1020 C 0.53085 0.26717 0.44 0.0
C1021 C 0.51106 0.25562 0.43467 0.0
N1022 N 0.47304 0.25651 0.42237 0.0
N1023 N 0.55084 0.30277 0.44037 0.0
C1024 C 0.49109 0.26776 0.4296 0.0
C1025 C 0.53104 0.29119 0.43895 0.0
N1026 N 0.47038 0.30331 0.4304 0.0
N1027 N 0.54924 0.25516 0.4467 0.0
H1028 H 0.55161 0.32037 0.43991 0.0
H1029 H 0.56674 0.29507 0.44029 0.0
H1030 H 0.54995 0.23754 0.44727 0.0
H1031 H 0.56315 0.26252 0.45317 0.0
H1032 H 0.45465 0.29563 0.42975 0.0
H1033 H 0.4693 0.32082 0.43147 0.0
H1034 H 0.4589 0.26455 0.41625 0.0
H1035 H 0.47291 0.23902 0.42098 0.0
C1036 C 0.26252 0.52984 0.93941 0.0
C1037 C 0.25105 0.50977 0.93482 0.0
C1038 C 0.28749 0.49033 0.9289 0.0
C1039 C 0.29882 0.50976 0.93533 0.0
N1040 N 0.29747 0.5471 0.94915 0.0
N1041 N 0.25195 0.47019 0.9274 0.0
C1042 C 0.28643 0.5293 0.94123 0.0
C1043 C 0.26336 0.48981 0.9301 0.0
N1044 N 0.25058 0.54956 0.94147 0.0
N1045 N 0.29983 0.47259 0.92126 0.0
H1046 H 0.2343 0.46931 0.92778 0.0
H1047 H 0.25983 0.45449 0.92625 0.0
H1048 H 0.31751 0.47225 0.92058 0.0
H1049 H 0.29269 0.45896 0.91417 0.0
H1050 H 0.25815 0.56527 0.94248 0.0
H1051 H 0.23301 0.55058 0.94046 0.0
H1052 H 0.28918 0.56069 0.95605 0.0
H1053 H 0.31503 0.54758 0.95026 0.0
C1054 C 0.99765 0.26349 0.43931 0.0
C1055 C 1.01778 0.25181 0.43314 0.0
C1056 C 0.03708 0.28793 0.42528 0.0
C1057 C 1.01772 0.29948 0.43351 0.0
N1058 N 0.98042 0.29856 0.45054 0.0
N1059 N 0.05741 0.25235 0.42228 0.0
C1060 C 0.99818 0.28734 0.44105 0.0
C1061 C 0.0377 0.26388 0.42658 0.0
N1062 N 0.97792 0.25178 0.44304 0.0
N1063 N 0.05466 0.29999 0.41583 0.0
H1064 H 0.0584 0.23475 0.42268 0.0
H1065 H 0.0731 0.26011 0.41976 0.0
H1066 H 0.05487 0.31761 0.41485 0.0
H1067 H 0.0682 0.29265 0.40752 0.0
H1068 H 0.96216 0.25948 0.44536 0.0
H1069 H 0.97695 0.23427 0.4421 0.0
H1070 H 0.96684 0.29046 0.45856 0.0
H1071 H 0.97999 0.31607 0.45176 0.0
loop_
_geom_bond_atom_site_label_1
_geom_bond_atom_site_label_2
_geom_bond_distance
_geom_bond_site_symmetry_2
_ccdc_geom_bond_type
C0 C1 1.264 . S
C0 C5 1.479 1_545 S
C0 C10 1.465 . S
C1 C0 1.264 . S
C1 C3 1.337 1_545 S
C1 H28 0.931 . S
C2 C3 1.398 . S
C2 C4 1.320 . S
C3 C1 1.337 1_565 S
C3 C2 1.398 . S
C3 H29 0.927 1_565 S
C4 C2 1.320 . S
C4 C5 1.405 . S
C4 H30 0.930 . S
C5 C0 1.479 1_565 S
C5 C4 1.405 . S
C5 H31 0.931 . S
U6 O7 2.439 1_545 S
U6 O8 2.458 . S
U6 C9 2.984 . S
U6 C10 2.847 . S
U6 C23 2.882 . S
U6 O24 2.441 . S
U6 O25 2.420 . S
U6 O26 2.455 . S
U6 O27 2.449 . S
O7 U6 2.439 1_565 S
O7 C9 1.351 1_565 S
O8 U6 2.458 . S
O8 C9 1.286 . S
C9 U6 2.984 . S
C9 O7 1.351 1_545 S
C9 O8 1.286 . S
C9 C11 1.363 1_545 S
C10 C0 1.465 . S
C10 U6 2.847 . S
C10 O24 1.249 . S
C10 O25 1.202 . S
C11 C9 1.363 1_565 S
C11 C13 1.408 . S
C11 C16 1.342 . S
C12 C13 1.310 . S
C12 C15 1.461 . S
C12 H32 0.932 . S
C13 C11 1.408 . S
C13 C12 1.310 . S
C13 H33 0.930 . S
C14 C15 1.474 . S
C14 C16 1.285 . S
C14 H34 0.929 . S
C15 C12 1.461 . S
C15 C14 1.474 . S
C16 C11 1.342 . S
C16 C14 1.285 . S
C16 H35 0.933 . S
C17 C20 1.424 . S
C17 C22 1.245 . S
C17 C23 1.428 . S
C18 C21 1.260 . S
C18 C22 1.477 . S
C18 H36 0.932 . S
C19 C20 1.384 . S
C19 C21 1.479 . S
C19 H37 0.929 . S
C20 C17 1.424 . S
C20 C19 1.384 . S
C20 H38 0.928 . S
C21 C18 1.260 . S
C21 C19 1.479 . S
C22 C17 1.245 . S
C22 C18 1.477 . S
C22 H39 0.932 . S
C23 U6 2.882 . S
C23 C17 1.428 . S
C23 O26 1.301 . S
C23 O27 1.282 . S
O24 U6 2.441 . S
O24 C10 1.249 . S
O25 U6 2.420 . S
O25 C10 1.202 . S
O26 U6 2.455 . S
O26 C23 1.301 . S
O27 U6 2.449 . S
O27 C23 1.282 . S
H28 C1 0.931 . S
H29 C3 0.927 1_545 S
H30 C4 0.930 . S
H31 C5 0.931 . S
H32 C12 0.932 . S
H33 C13 0.930 . S
H34 C14 0.929 . S
H35 C16 0.933 . S
H36 C18 0.932 . S
H37 C19 0.929 . S
H38 C20 0.928 . S
H39 C22 0.932 . S
C40 C41 1.264 . S
C40 C45 1.479 . S
C40 C50 1.465 . S
C41 C40 1.264 . S
C41 C43 1.339 . S
C41 H68 0.931 . S
C42 C43 1.395 . S
C42 C44 1.320 . S
C43 C41 1.339 . S
C43 C42 1.395 . S
C43 H69 0.929 . S
C44 C42 1.320 . S
C44 C45 1.405 . S
C44 H70 0.930 . S
C45 C40 1.479 . S
C45 C44 1.405 . S
C45 H71 0.931 . S
U46 O47 2.454 . S
U46 O48 2.458 . S
U46 C49 2.984 . S
U46 C50 2.847 . S
U46 C63 2.882 . S
U46 O64 2.441 . S
U46 O65 2.420 . S
U46 O66 2.455 . S
U46 O67 2.449 . S
O47 U46 2.454 . S
O47 C49 1.353 . S
O48 U46 2.458 . S
O48 C49 1.286 . S
C49 U46 2.984 . S
C49 O47 1.353 . S
C49 O48 1.286 . S
C49 C51 1.363 . S
C50 C40 1.465 . S
C50 U46 2.847 . S
C50 O64 1.249 . S
C50 O65 1.202 . S
C51 C49 1.363 . S
C51 C53 1.408 . S
C51 C56 1.342 . S
C52 C53 1.310 . S
C52 C55 1.461 . S
C52 H72 0.932 . S
C53 C51 1.408 . S
C53 C52 1.310 . S
C53 H73 0.930 . S
C54 C55 1.474 . S
C54 C56 1.285 . S
C54 H74 0.929 . S
C55 C52 1.461 . S
C55 C54 1.474 . S
C56 C51 1.342 . S
C56 C54 1.285 . S
C56 H75 0.930 . S
C57 C60 1.424 . S
C57 C62 1.245 . S
C57 C63 1.428 . S
C58 C61 1.260 . S
C58 C62 1.477 . S
C58 H76 0.932 . S
C59 C60 1.384 . S
C59 C61 1.479 . S
C59 H77 0.929 . S
C60 C57 1.424 . S
C60 C59 1.384 . S
C60 H78 0.928 . S
C61 C58 1.260 . S
C61 C59 1.479 . S
C62 C57 1.245 . S
C62 C58 1.477 . S
C62 H79 0.932 . S
C63 U46 2.882 . S
C63 C57 1.428 . S
C63 O66 1.301 . S
C63 O67 1.282 . S
O64 U46 2.441 . S
O64 C50 1.249 . S
O65 U46 2.420 . S
O65 C50 1.202 . S
O66 U46 2.455 . S
O66 C63 1.301 . S
O67 U46 2.449 . S
O67 C63 1.282 . S
H68 C41 0.931 . S
H69 C43 0.929 . S
H70 C44 0.930 . S
H71 C45 0.931 . S
H72 C52 0.932 . S
H73 C53 0.930 . S
H74 C54 0.929 . S
H75 C56 0.930 . S
H76 C58 0.932 . S
H77 C59 0.929 . S
H78 C60 0.928 . S
H79 C62 0.932 . S
C80 C81 1.264 . S
C80 C85 1.479 . S
C80 C90 1.465 . S
C81 C80 1.264 . S
C81 C83 1.339 . S
C81 H108 0.931 . S
C82 C83 1.395 . S
C82 C84 1.320 . S
C83 C81 1.339 . S
C83 C82 1.395 . S
C83 H109 0.929 . S
C84 C82 1.320 . S
C84 C85 1.405 . S
C84 H110 0.930 . S
C85 C80 1.479 . S
C85 C84 1.405 . S
C85 H111 0.931 . S
U86 O87 2.454 . S
U86 O88 2.458 . S
U86 C89 2.984 . S
U86 C90 2.847 . S
U86 C103 2.882 . S
U86 O104 2.441 . S
U86 O105 2.420 . S
U86 O106 2.455 . S
U86 O107 2.449 . S
O87 U86 2.454 . S
O87 C89 1.353 . S
O88 U86 2.458 . S
O88 C89 1.286 . S
C89 U86 2.984 . S
C89 O87 1.353 . S
C89 O88 1.286 . S
C89 C91 1.363 . S
C90 C80 1.465 . S
C90 U86 2.847 . S
C90 O104 1.249 . S
C90 O105 1.202 . S
C91 C89 1.363 . S
C91 C93 1.408 . S
C91 C96 1.342 . S
C92 C93 1.310 . S
C92 C95 1.461 . S
C92 H112 0.932 . S
C93 C91 1.408 . S
C93 C92 1.310 . S
C93 H113 0.930 . S
C94 C95 1.474 . S
C94 C96 1.285 . S
C94 H114 0.929 . S
C95 C92 1.461 . S
C95 C94 1.474 . S
C96 C91 1.342 . S
C96 C94 1.285 . S
C96 H115 0.930 . S
C97 C100 1.424 . S
C97 C102 1.245 . S
C97 C103 1.428 . S
C98 C101 1.260 . S
C98 C102 1.477 . S
C98 H116 0.932 . S
C99 C100 1.384 . S
C99 C101 1.479 . S
C99 H117 0.929 . S
C100 C97 1.424 . S
C100 C99 1.384 . S
C100 H118 0.928 . S
C101 C98 1.260 . S
C101 C99 1.479 . S
C102 C97 1.245 . S
C102 C98 1.477 . S
C102 H119 0.932 . S
C103 U86 2.882 . S
C103 C97 1.428 . S
C103 O106 1.301 . S
C103 O107 1.282 . S
O104 U86 2.441 . S
O104 C90 1.249 . S
O105 U86 2.420 . S
O105 C90 1.202 . S
O106 U86 2.455 . S
O106 C103 1.301 . S
O107 U86 2.449 . S
O107 C103 1.282 . S
H108 C81 0.931 . S
H109 C83 0.929 . S
H110 C84 0.930 . S
H111 C85 0.931 . S
H112 C92 0.932 . S
H113 C93 0.930 . S
H114 C94 0.929 . S
H115 C96 0.930 . S
H116 C98 0.932 . S
H117 C99 0.929 . S
H118 C100 0.928 . S
H119 C102 0.932 . S
C120 C121 1.264 . S
C120 C125 1.479 1_455 S
C120 C130 1.465 . S
C121 C120 1.264 . S
C121 C123 1.332 1_455 S
C121 H148 0.931 . S
C122 C123 1.406 . S
C122 C124 1.320 . S
C123 C121 1.332 1_655 S
C123 C122 1.406 . S
C123 H149 0.924 1_655 S
C124 C122 1.320 . S
C124 C125 1.405 . S
C124 H150 0.930 . S
C125 C120 1.479 1_655 S
C125 C124 1.405 . S
C125 H151 0.931 . S
U126 O127 2.454 1_455 S
U126 O128 2.458 . S
U126 C129 2.984 . S
U126 C130 2.847 . S
U126 C143 2.882 . S
U126 O144 2.441 . S
U126 O145 2.420 . S
U126 O146 2.455 . S
U126 O147 2.449 . S
O127 U126 2.454 1_655 S
O127 C129 1.353 1_655 S
O128 U126 2.458 . S
O128 C129 1.286 . S
C129 U126 2.984 . S
C129 O127 1.353 1_455 S
C129 O128 1.286 . S
C129 C131 1.363 1_455 S
C130 C120 1.465 . S
C130 U126 2.847 . S
C130 O144 1.249 . S
C130 O145 1.202 . S
C131 C129 1.363 1_655 S
C131 C133 1.408 . S
C131 C136 1.342 . S
C132 C133 1.310 . S
C132 C135 1.461 . S
C132 H152 0.932 . S
C133 C131 1.408 . S
C133 C132 1.310 . S
C133 H153 0.930 . S
C134 C135 1.474 . S
C134 C136 1.285 . S
C134 H154 0.929 . S
C135 C132 1.461 . S
C135 C134 1.474 . S
C136 C131 1.342 . S
C136 C134 1.285 . S
C136 H155 0.934 . S
C137 C140 1.424 . S
C137 C142 1.245 . S
C137 C143 1.428 . S
C138 C141 1.260 . S
C138 C142 1.477 . S
C138 H156 0.932 . S
C139 C140 1.384 . S
C139 C141 1.479 . S
C139 H157 0.929 . S
C140 C137 1.424 . S
C140 C139 1.384 . S
C140 H158 0.928 . S
C141 C138 1.260 . S
C141 C139 1.479 . S
C142 C137 1.245 . S
C142 C138 1.477 . S
C142 H159 0.932 . S
C143 U126 2.882 . S
C143 C137 1.428 . S
C143 O146 1.301 . S
C143 O147 1.282 . S
O144 U126 2.441 . S
O144 C130 1.249 . S
O145 U126 2.420 . S
O145 C130 1.202 . S
O146 U126 2.455 . S
O146 C143 1.301 . S
O147 U126 2.449 . S
O147 C143 1.282 . S
H148 C121 0.931 . S
H149 C123 0.924 1_455 S
H150 C124 0.930 . S
H151 C125 0.931 . S
H152 C132 0.932 . S
H153 C133 0.930 . S
H154 C134 0.929 . S
H155 C136 0.934 . S
H156 C138 0.932 . S
H157 C139 0.929 . S
H158 C140 0.928 . S
H159 C142 0.932 . S
C160 C161 1.264 . S
C160 C165 1.479 1_565 S
C160 C170 1.465 . S
C161 C160 1.264 . S
C161 C163 1.332 1_565 S
C161 H188 0.931 . S
C162 C163 1.406 . S
C162 C164 1.320 . S
C163 C161 1.332 1_545 S
C163 C162 1.406 . S
C163 H189 0.924 1_545 S
C164 C162 1.320 . S
C164 C165 1.405 . S
C164 H190 0.930 . S
C165 C160 1.479 1_545 S
C165 C164 1.405 . S
C165 H191 0.931 . S
U166 O167 2.454 1_565 S
U166 O168 2.458 . S
U166 C169 2.984 . S
U166 C170 2.847 . S
U166 C183 2.882 . S
U166 O184 2.441 . S
U166 O185 2.420 . S
U166 O186 2.455 . S
U166 O187 2.449 . S
O167 U166 2.454 1_545 S
O167 C169 1.353 1_545 S
O168 U166 2.458 . S
O168 C169 1.286 . S
C169 U166 2.984 . S
C169 O167 1.353 1_565 S
C169 O168 1.286 . S
C169 C171 1.363 1_565 S
C170 C160 1.465 . S
C170 U166 2.847 . S
C170 O184 1.249 . S
C170 O185 1.202 . S
C171 C169 1.363 1_545 S
C171 C173 1.408 . S
C171 C176 1.342 . S
C172 C173 1.310 . S
C172 C175 1.461 . S
C172 H192 0.932 . S
C173 C171 1.408 . S
C173 C172 1.310 . S
C173 H193 0.930 . S
C174 C175 1.474 . S
C174 C176 1.285 . S
C174 H194 0.929 . S
C175 C172 1.461 . S
C175 C174 1.474 . S
C176 C171 1.342 . S
C176 C174 1.285 . S
C176 H195 0.934 . S
C177 C180 1.424 . S
C177 C182 1.245 . S
C177 C183 1.428 . S
C178 C181 1.260 . S
C178 C182 1.477 . S
C178 H196 0.932 . S
C179 C180 1.384 . S
C179 C181 1.479 . S
C179 H197 0.929 . S
C180 C177 1.424 . S
C180 C179 1.384 . S
C180 H198 0.928 . S
C181 C178 1.260 . S
C181 C179 1.479 . S
C182 C177 1.245 . S
C182 C178 1.477 . S
C182 H199 0.932 . S
C183 U166 2.882 . S
C183 C177 1.428 . S
C183 O186 1.301 . S
C183 O187 1.282 . S
O184 U166 2.441 . S
O184 C170 1.249 . S
O185 U166 2.420 . S
O185 C170 1.202 . S
O186 U166 2.455 . S
O186 C183 1.301 . S
O187 U166 2.449 . S
O187 C183 1.282 . S
H188 C161 0.931 . S
H189 C163 0.924 1_565 S
H190 C164 0.930 . S
H191 C165 0.931 . S
H192 C172 0.932 . S
H193 C173 0.930 . S
H194 C174 0.929 . S
H195 C176 0.934 . S
H196 C178 0.932 . S
H197 C179 0.929 . S
H198 C180 0.928 . S
H199 C182 0.932 . S
C200 C201 1.264 . S
C200 C205 1.479 . S
C200 C210 1.465 . S
C201 C200 1.264 . S
C201 C203 1.339 . S
C201 H228 0.931 . S
C202 C203 1.395 . S
C202 C204 1.320 . S
C203 C201 1.339 . S
C203 C202 1.395 . S
C203 H229 0.929 . S
C204 C202 1.320 . S
C204 C205 1.405 . S
C204 H230 0.930 . S
C205 C200 1.479 . S
C205 C204 1.405 . S
C205 H231 0.931 . S
U206 O207 2.454 . S
U206 O208 2.458 . S
U206 C209 2.984 . S
U206 C210 2.847 . S
U206 C223 2.882 . S
U206 O224 2.441 . S
U206 O225 2.420 . S
U206 O226 2.455 . S
U206 O227 2.449 . S
O207 U206 2.454 . S
O207 C209 1.353 . S
O208 U206 2.458 . S
O208 C209 1.286 . S
C209 U206 2.984 . S
C209 O207 1.353 . S
C209 O208 1.286 . S
C209 C211 1.363 . S
C210 C200 1.465 . S
C210 U206 2.847 . S
C210 O224 1.249 . S
C210 O225 1.202 . S
C211 C209 1.363 . S
C211 C213 1.408 . S
C211 C216 1.342 . S
C212 C213 1.310 . S
C212 C215 1.461 . S
C212 H232 0.932 . S
C213 C211 1.408 . S
C213 C212 1.310 . S
C213 H233 0.930 . S
C214 C215 1.474 . S
C214 C216 1.285 . S
C214 H234 0.929 . S
C215 C212 1.461 . S
C215 C214 1.474 . S
C216 C211 1.342 . S
C216 C214 1.285 . S
C216 H235 0.930 . S
C217 C220 1.424 . S
C217 C222 1.245 . S
C217 C223 1.428 . S
C218 C221 1.260 . S
C218 C222 1.477 . S
C218 H236 0.932 . S
C219 C220 1.384 . S
C219 C221 1.479 . S
C219 H237 0.929 . S
C220 C217 1.424 . S
C220 C219 1.384 . S
C220 H238 0.928 . S
C221 C218 1.260 . S
C221 C219 1.479 . S
C222 C217 1.245 . S
C222 C218 1.477 . S
C222 H239 0.932 . S
C223 U206 2.882 . S
C223 C217 1.428 . S
C223 O226 1.301 . S
C223 O227 1.282 . S
O224 U206 2.441 . S
O224 C210 1.249 . S
O225 U206 2.420 . S
O225 C210 1.202 . S
O226 U206 2.455 . S
O226 C223 1.301 . S
O227 U206 2.449 . S
O227 C223 1.282 . S
H228 C201 0.931 . S
H229 C203 0.929 . S
H230 C204 0.930 . S
H231 C205 0.931 . S
H232 C212 0.932 . S
H233 C213 0.930 . S
H234 C214 0.929 . S
H235 C216 0.930 . S
H236 C218 0.932 . S
H237 C219 0.929 . S
H238 C220 0.928 . S
H239 C222 0.932 . S
C240 C241 1.264 . S
C240 C245 1.479 . S
C240 C250 1.465 . S
C241 C240 1.264 . S
C241 C243 1.339 . S
C241 H268 0.931 . S
C242 C243 1.395 . S
C242 C244 1.320 . S
C243 C241 1.339 . S
C243 C242 1.395 . S
C243 H269 0.929 . S
C244 C242 1.320 . S
C244 C245 1.405 . S
C244 H270 0.930 . S
C245 C240 1.479 . S
C245 C244 1.405 . S
C245 H271 0.931 . S
U246 O247 2.454 . S
U246 O248 2.458 . S
U246 C249 2.984 . S
U246 C250 2.847 . S
U246 C263 2.882 . S
U246 O264 2.441 . S
U246 O265 2.420 . S
U246 O266 2.455 . S
U246 O267 2.449 . S
O247 U246 2.454 . S
O247 C249 1.353 . S
O248 U246 2.458 . S
O248 C249 1.286 . S
C249 U246 2.984 . S
C249 O247 1.353 . S
C249 O248 1.286 . S
C249 C251 1.363 . S
C250 C240 1.465 . S
C250 U246 2.847 . S
C250 O264 1.249 . S
C250 O265 1.202 . S
C251 C249 1.363 . S
C251 C253 1.408 . S
C251 C256 1.342 . S
C252 C253 1.310 . S
C252 C255 1.461 . S
C252 H272 0.932 . S
C253 C251 1.408 . S
C253 C252 1.310 . S
C253 H273 0.930 . S
C254 C255 1.474 . S
C254 C256 1.285 . S
C254 H274 0.929 . S
C255 C252 1.461 . S
C255 C254 1.474 . S
C256 C251 1.342 . S
C256 C254 1.285 . S
C256 H275 0.930 . S
C257 C260 1.424 . S
C257 C262 1.245 . S
C257 C263 1.428 . S
C258 C261 1.260 . S
C258 C262 1.477 . S
C258 H276 0.932 . S
C259 C260 1.384 . S
C259 C261 1.479 . S
C259 H277 0.929 . S
C260 C257 1.424 . S
C260 C259 1.384 . S
C260 H278 0.928 . S
C261 C258 1.260 . S
C261 C259 1.479 . S
C262 C257 1.245 . S
C262 C258 1.477 . S
C262 H279 0.932 . S
C263 U246 2.882 . S
C263 C257 1.428 . S
C263 O266 1.301 . S
C263 O267 1.282 . S
O264 U246 2.441 . S
O264 C250 1.249 . S
O265 U246 2.420 . S
O265 C250 1.202 . S
O266 U246 2.455 . S
O266 C263 1.301 . S
O267 U246 2.449 . S
O267 C263 1.282 . S
H268 C241 0.931 . S
H269 C243 0.929 . S
H270 C244 0.930 . S
H271 C245 0.931 . S
H272 C252 0.932 . S
H273 C253 0.930 . S
H274 C254 0.929 . S
H275 C256 0.930 . S
H276 C258 0.932 . S
H277 C259 0.929 . S
H278 C260 0.928 . S
H279 C262 0.932 . S
C280 C281 1.264 . S
C280 C285 1.479 1_655 S
C280 C290 1.465 . S
C281 C280 1.264 . S
C281 C283 1.337 1_655 S
C281 H308 0.931 . S
C282 C283 1.398 . S
C282 C284 1.320 . S
C283 C281 1.337 1_455 S
C283 C282 1.398 . S
C283 H309 0.927 1_455 S
C284 C282 1.320 . S
C284 C285 1.405 . S
C284 H310 0.930 . S
C285 C280 1.479 1_455 S
C285 C284 1.405 . S
C285 H311 0.931 . S
U286 O287 2.439 1_655 S
U286 O288 2.458 . S
U286 C289 2.984 . S
U286 C290 2.847 . S
U286 C303 2.882 . S
U286 O304 2.441 . S
U286 O305 2.420 . S
U286 O306 2.455 . S
U286 O307 2.449 . S
O287 U286 2.439 1_455 S
O287 C289 1.351 1_455 S
O288 U286 2.458 . S
O288 C289 1.286 . S
C289 U286 2.984 . S
C289 O287 1.351 1_655 S
C289 O288 1.286 . S
C289 C291 1.363 1_655 S
C290 C280 1.465 . S
C290 U286 2.847 . S
C290 O304 1.249 . S
C290 O305 1.202 . S
C291 C289 1.363 1_455 S
C291 C293 1.408 . S
C291 C296 1.342 . S
C292 C293 1.310 . S
C292 C295 1.461 . S
C292 H312 0.932 . S
C293 C291 1.408 . S
C293 C292 1.310 . S
C293 H313 0.930 . S
C294 C295 1.474 . S
C294 C296 1.285 . S
C294 H314 0.929 . S
C295 C292 1.461 . S
C295 C294 1.474 . S
C296 C291 1.342 . S
C296 C294 1.285 . S
C296 H315 0.933 . S
C297 C300 1.424 . S
C297 C302 1.245 . S
C297 C303 1.428 . S
C298 C301 1.260 . S
C298 C302 1.477 . S
C298 H316 0.932 . S
C299 C300 1.384 . S
C299 C301 1.479 . S
C299 H317 0.929 . S
C300 C297 1.424 . S
C300 C299 1.384 . S
C300 H318 0.928 . S
C301 C298 1.260 . S
C301 C299 1.479 . S
C302 C297 1.245 . S
C302 C298 1.477 . S
C302 H319 0.932 . S
C303 U286 2.882 . S
C303 C297 1.428 . S
C303 O306 1.301 . S
C303 O307 1.282 . S
O304 U286 2.441 . S
O304 C290 1.249 . S
O305 U286 2.420 . S
O305 C290 1.202 . S
O306 U286 2.455 . S
O306 C303 1.301 . S
O307 U286 2.449 . S
O307 C303 1.282 . S
H308 C281 0.931 . S
H309 C283 0.927 1_655 S
H310 C284 0.930 . S
H311 C285 0.931 . S
H312 C292 0.932 . S
H313 C293 0.930 . S
H314 C294 0.929 . S
H315 C296 0.933 . S
H316 C298 0.932 . S
H317 C299 0.929 . S
H318 C300 0.928 . S
H319 C302 0.932 . S
C320 C321 1.264 . S
C320 C325 1.479 . S
C320 C330 1.465 . S
C321 C320 1.264 . S
C321 C323 1.339 . S
C321 H348 0.931 . S
C322 C323 1.395 . S
C322 C324 1.320 . S
C323 C321 1.339 . S
C323 C322 1.395 . S
C323 H349 0.929 . S
C324 C322 1.320 . S
C324 C325 1.405 . S
C324 H350 0.930 . S
C325 C320 1.479 . S
C325 C324 1.405 . S
C325 H351 0.931 . S
U326 O327 2.454 . S
U326 O328 2.458 . S
U326 C329 2.984 . S
U326 C330 2.847 . S
U326 C343 2.882 . S
U326 O344 2.441 . S
U326 O345 2.420 . S
U326 O346 2.455 . S
U326 O347 2.449 . S
O327 U326 2.454 . S
O327 C329 1.353 . S
O328 U326 2.458 . S
O328 C329 1.286 . S
C329 U326 2.984 . S
C329 O327 1.353 . S
C329 O328 1.286 . S
C329 C331 1.363 . S
C330 C320 1.465 . S
C330 U326 2.847 . S
C330 O344 1.249 . S
C330 O345 1.202 . S
C331 C329 1.363 . S
C331 C333 1.408 . S
C331 C336 1.342 . S
C332 C333 1.310 . S
C332 C335 1.461 . S
C332 H352 0.932 . S
C333 C331 1.408 . S
C333 C332 1.310 . S
C333 H353 0.930 . S
C334 C335 1.474 . S
C334 C336 1.285 . S
C334 H354 0.929 . S
C335 C332 1.461 . S
C335 C334 1.474 . S
C336 C331 1.342 . S
C336 C334 1.285 . S
C336 H355 0.930 . S
C337 C340 1.424 . S
C337 C342 1.245 . S
C337 C343 1.428 1_565 S
C338 C341 1.260 . S
C338 C342 1.477 . S
C338 H356 0.932 . S
C339 C340 1.384 . S
C339 C341 1.479 . S
C339 H357 0.929 . S
C340 C337 1.424 . S
C340 C339 1.384 . S
C340 H358 0.928 . S
C341 C338 1.260 . S
C341 C339 1.479 . S
C342 C337 1.245 . S
C342 C338 1.477 . S
C342 H359 0.932 . S
C343 U326 2.882 . S
C343 C337 1.428 1_545 S
C343 O346 1.301 . S
C343 O347 1.282 . S
O344 U326 2.441 . S
O344 C330 1.249 . S
O345 U326 2.420 . S
O345 C330 1.202 . S
O346 U326 2.455 . S
O346 C343 1.301 . S
O347 U326 2.449 . S
O347 C343 1.282 . S
H348 C321 0.931 . S
H349 C323 0.929 . S
H350 C324 0.930 . S
H351 C325 0.931 . S
H352 C332 0.932 . S
H353 C333 0.930 . S
H354 C334 0.929 . S
H355 C336 0.930 . S
H356 C338 0.932 . S
H357 C339 0.929 . S
H358 C340 0.928 . S
H359 C342 0.932 . S
C360 C361 1.264 . S
C360 C365 1.479 . S
C360 C370 1.465 . S
C361 C360 1.264 . S
C361 C363 1.339 . S
C361 H388 0.931 . S
C362 C363 1.395 . S
C362 C364 1.320 . S
C363 C361 1.339 . S
C363 C362 1.395 . S
C363 H389 0.929 . S
C364 C362 1.320 . S
C364 C365 1.405 . S
C364 H390 0.930 . S
C365 C360 1.479 . S
C365 C364 1.405 . S
C365 H391 0.931 . S
U366 O367 2.454 . S
U366 O368 2.458 . S
U366 C369 2.984 . S
U366 C370 2.847 . S
U366 C383 2.882 . S
U366 O384 2.441 . S
U366 O385 2.420 . S
U366 O386 2.455 . S
U366 O387 2.449 . S
O367 U366 2.454 . S
O367 C369 1.353 . S
O368 U366 2.458 . S
O368 C369 1.286 . S
C369 U366 2.984 . S
C369 O367 1.353 . S
C369 O368 1.286 . S
C369 C371 1.363 . S
C370 C360 1.465 . S
C370 U366 2.847 . S
C370 O384 1.249 . S
C370 O385 1.202 . S
C371 C369 1.363 . S
C371 C373 1.408 . S
C371 C376 1.342 . S
C372 C373 1.310 . S
C372 C375 1.461 . S
C372 H392 0.932 . S
C373 C371 1.408 . S
C373 C372 1.310 . S
C373 H393 0.930 . S
C374 C375 1.474 . S
C374 C376 1.285 . S
C374 H394 0.929 . S
C375 C372 1.461 . S
C375 C374 1.474 . S
C376 C371 1.342 . S
C376 C374 1.285 . S
C376 H395 0.930 . S
C377 C380 1.424 . S
C377 C382 1.245 . S
C377 C383 1.428 . S
C378 C381 1.260 . S
C378 C382 1.477 . S
C378 H396 0.932 . S
C379 C380 1.384 . S
C379 C381 1.479 . S
C379 H397 0.929 . S
C380 C377 1.424 . S
C380 C379 1.384 . S
C380 H398 0.928 . S
C381 C378 1.260 . S
C381 C379 1.479 . S
C382 C377 1.245 . S
C382 C378 1.477 . S
C382 H399 0.932 . S
C383 U366 2.882 . S
C383 C377 1.428 . S
C383 O386 1.301 . S
C383 O387 1.282 . S
O384 U366 2.441 . S
O384 C370 1.249 . S
O385 U366 2.420 . S
O385 C370 1.202 . S
O386 U366 2.455 . S
O386 C383 1.301 . S
O387 U366 2.449 . S
O387 C383 1.282 . S
H388 C361 0.931 . S
H389 C363 0.929 . S
H390 C364 0.930 . S
H391 C365 0.931 . S
H392 C372 0.932 . S
H393 C373 0.930 . S
H394 C374 0.929 . S
H395 C376 0.930 . S
H396 C378 0.932 . S
H397 C379 0.929 . S
H398 C380 0.928 . S
H399 C382 0.932 . S
C400 C401 1.264 . S
C400 C405 1.479 . S
C400 C410 1.465 . S
C401 C400 1.264 . S
C401 C403 1.339 . S
C401 H428 0.931 . S
C402 C403 1.395 . S
C402 C404 1.320 . S
C403 C401 1.339 . S
C403 C402 1.395 . S
C403 H429 0.929 . S
C404 C402 1.320 . S
C404 C405 1.405 . S
C404 H430 0.930 . S
C405 C400 1.479 . S
C405 C404 1.405 . S
C405 H431 0.931 . S
U406 O407 2.454 . S
U406 O408 2.458 . S
U406 C409 2.984 . S
U406 C410 2.847 . S
U406 C423 2.882 . S
U406 O424 2.441 . S
U406 O425 2.420 . S
U406 O426 2.455 . S
U406 O427 2.449 . S
O407 U406 2.454 . S
O407 C409 1.353 . S
O408 U406 2.458 . S
O408 C409 1.286 . S
C409 U406 2.984 . S
C409 O407 1.353 . S
C409 O408 1.286 . S
C409 C411 1.363 . S
C410 C400 1.465 . S
C410 U406 2.847 . S
C410 O424 1.249 . S
C410 O425 1.202 . S
C411 C409 1.363 . S
C411 C413 1.408 . S
C411 C416 1.342 . S
C412 C413 1.310 . S
C412 C415 1.461 . S
C412 H432 0.932 . S
C413 C411 1.408 . S
C413 C412 1.310 . S
C413 H433 0.930 . S
C414 C415 1.474 . S
C414 C416 1.285 . S
C414 H434 0.929 . S
C415 C412 1.461 . S
C415 C414 1.474 . S
C416 C411 1.342 . S
C416 C414 1.285 . S
C416 H435 0.930 . S
C417 C420 1.424 . S
C417 C422 1.245 . S
C417 C423 1.428 . S
C418 C421 1.260 . S
C418 C422 1.477 . S
C418 H436 0.932 . S
C419 C420 1.384 . S
C419 C421 1.479 . S
C419 H437 0.929 . S
C420 C417 1.424 . S
C420 C419 1.384 . S
C420 H438 0.928 . S
C421 C418 1.260 . S
C421 C419 1.479 . S
C422 C417 1.245 . S
C422 C418 1.477 . S
C422 H439 0.932 . S
C423 U406 2.882 . S
C423 C417 1.428 . S
C423 O426 1.301 . S
C423 O427 1.282 . S
O424 U406 2.441 . S
O424 C410 1.249 . S
O425 U406 2.420 . S
O425 C410 1.202 . S
O426 U406 2.455 . S
O426 C423 1.301 . S
O427 U406 2.449 . S
O427 C423 1.282 . S
H428 C401 0.931 . S
H429 C403 0.929 . S
H430 C404 0.930 . S
H431 C405 0.931 . S
H432 C412 0.932 . S
H433 C413 0.930 . S
H434 C414 0.929 . S
H435 C416 0.930 . S
H436 C418 0.932 . S
H437 C419 0.929 . S
H438 C420 0.928 . S
H439 C422 0.932 . S
C440 C441 1.264 . S
C440 C445 1.479 . S
C440 C450 1.465 . S
C441 C440 1.264 . S
C441 C443 1.339 . S
C441 H468 0.931 . S
C442 C443 1.395 . S
C442 C444 1.320 . S
C443 C441 1.339 . S
C443 C442 1.395 . S
C443 H469 0.929 . S
C444 C442 1.320 . S
C444 C445 1.405 . S
C444 H470 0.930 . S
C445 C440 1.479 . S
C445 C444 1.405 . S
C445 H471 0.931 . S
U446 O447 2.454 . S
U446 O448 2.458 . S
U446 C449 2.984 . S
U446 C450 2.847 . S
U446 C463 2.882 . S
U446 O464 2.441 . S
U446 O465 2.420 . S
U446 O466 2.455 . S
U446 O467 2.449 . S
O447 U446 2.454 . S
O447 C449 1.353 . S
O448 U446 2.458 . S
O448 C449 1.286 . S
C449 U446 2.984 . S
C449 O447 1.353 . S
C449 O448 1.286 . S
C449 C451 1.363 . S
C450 C440 1.465 . S
C450 U446 2.847 . S
C450 O464 1.249 . S
C450 O465 1.202 . S
C451 C449 1.363 . S
C451 C453 1.408 . S
C451 C456 1.342 . S
C452 C453 1.310 . S
C452 C455 1.461 . S
C452 H472 0.932 . S
C453 C451 1.408 . S
C453 C452 1.310 . S
C453 H473 0.930 . S
C454 C455 1.474 . S
C454 C456 1.285 . S
C454 H474 0.929 . S
C455 C452 1.461 . S
C455 C454 1.474 . S
C456 C451 1.342 . S
C456 C454 1.285 . S
C456 H475 0.930 . S
C457 C460 1.424 . S
C457 C462 1.245 . S
C457 C463 1.428 1_655 S
C458 C461 1.260 . S
C458 C462 1.477 . S
C458 H476 0.932 . S
C459 C460 1.384 . S
C459 C461 1.479 . S
C459 H477 0.929 . S
C460 C457 1.424 . S
C460 C459 1.384 . S
C460 H478 0.928 . S
C461 C458 1.260 . S
C461 C459 1.479 . S
C462 C457 1.245 . S
C462 C458 1.477 . S
C462 H479 0.932 . S
C463 U446 2.882 . S
C463 C457 1.428 1_455 S
C463 O466 1.301 . S
C463 O467 1.282 . S
O464 U446 2.441 . S
O464 C450 1.249 . S
O465 U446 2.420 . S
O465 C450 1.202 . S
O466 U446 2.455 . S
O466 C463 1.301 . S
O467 U446 2.449 . S
O467 C463 1.282 . S
H468 C441 0.931 . S
H469 C443 0.929 . S
H470 C444 0.930 . S
H471 C445 0.931 . S
H472 C452 0.932 . S
H473 C453 0.930 . S
H474 C454 0.929 . S
H475 C456 0.930 . S
H476 C458 0.932 . S
H477 C459 0.929 . S
H478 C460 0.928 . S
H479 C462 0.932 . S
C480 C481 1.264 . S
C480 C485 1.479 . S
C480 C490 1.465 . S
C481 C480 1.264 . S
C481 C483 1.339 . S
C481 H508 0.931 . S
C482 C483 1.395 . S
C482 C484 1.320 . S
C483 C481 1.339 . S
C483 C482 1.395 . S
C483 H509 0.929 . S
C484 C482 1.320 . S
C484 C485 1.405 . S
C484 H510 0.930 . S
C485 C480 1.479 . S
C485 C484 1.405 . S
C485 H511 0.931 . S
U486 O487 2.454 . S
U486 O488 2.458 . S
U486 C489 2.984 . S
U486 C490 2.847 . S
U486 C503 2.882 . S
U486 O504 2.441 . S
U486 O505 2.420 . S
U486 O506 2.455 . S
U486 O507 2.449 . S
O487 U486 2.454 . S
O487 C489 1.353 . S
O488 U486 2.458 . S
O488 C489 1.286 . S
C489 U486 2.984 . S
C489 O487 1.353 . S
C489 O488 1.286 . S
C489 C491 1.363 . S
C490 C480 1.465 . S
C490 U486 2.847 . S
C490 O504 1.249 . S
C490 O505 1.202 . S
C491 C489 1.363 . S
C491 C493 1.408 . S
C491 C496 1.342 . S
C492 C493 1.310 . S
C492 C495 1.461 . S
C492 H512 0.932 . S
C493 C491 1.408 . S
C493 C492 1.310 . S
C493 H513 0.930 . S
C494 C495 1.474 . S
C494 C496 1.285 . S
C494 H514 0.929 . S
C495 C492 1.461 . S
C495 C494 1.474 . S
C496 C491 1.342 . S
C496 C494 1.285 . S
C496 H515 0.930 . S
C497 C500 1.424 . S
C497 C502 1.245 . S
C497 C503 1.428 1_545 S
C498 C501 1.260 . S
C498 C502 1.477 . S
C498 H516 0.932 . S
C499 C500 1.384 . S
C499 C501 1.479 . S
C499 H517 0.929 . S
C500 C497 1.424 . S
C500 C499 1.384 . S
C500 H518 0.928 . S
C501 C498 1.260 . S
C501 C499 1.479 . S
C502 C497 1.245 . S
C502 C498 1.477 . S
C502 H519 0.932 . S
C503 U486 2.882 . S
C503 C497 1.428 1_565 S
C503 O506 1.301 . S
C503 O507 1.282 . S
O504 U486 2.441 . S
O504 C490 1.249 . S
O505 U486 2.420 . S
O505 C490 1.202 . S
O506 U486 2.455 . S
O506 C503 1.301 . S
O507 U486 2.449 . S
O507 C503 1.282 . S
H508 C481 0.931 . S
H509 C483 0.929 . S
H510 C484 0.930 . S
H511 C485 0.931 . S
H512 C492 0.932 . S
H513 C493 0.930 . S
H514 C494 0.929 . S
H515 C496 0.930 . S
H516 C498 0.932 . S
H517 C499 0.929 . S
H518 C500 0.928 . S
H519 C502 0.932 . S
C520 C521 1.264 . S
C520 C525 1.479 . S
C520 C530 1.465 . S
C521 C520 1.264 . S
C521 C523 1.339 . S
C521 H548 0.931 . S
C522 C523 1.395 . S
C522 C524 1.320 . S
C523 C521 1.339 . S
C523 C522 1.395 . S
C523 H549 0.929 . S
C524 C522 1.320 . S
C524 C525 1.405 . S
C524 H550 0.930 . S
C525 C520 1.479 . S
C525 C524 1.405 . S
C525 H551 0.931 . S
U526 O527 2.454 . S
U526 O528 2.458 . S
U526 C529 2.984 . S
U526 C530 2.847 . S
U526 C543 2.882 . S
U526 O544 2.441 . S
U526 O545 2.420 . S
U526 O546 2.455 . S
U526 O547 2.449 . S
O527 U526 2.454 . S
O527 C529 1.353 . S
O528 U526 2.458 . S
O528 C529 1.286 . S
C529 U526 2.984 . S
C529 O527 1.353 . S
C529 O528 1.286 . S
C529 C531 1.363 . S
C530 C520 1.465 . S
C530 U526 2.847 . S
C530 O544 1.249 . S
C530 O545 1.202 . S
C531 C529 1.363 . S
C531 C533 1.408 . S
C531 C536 1.342 . S
C532 C533 1.310 . S
C532 C535 1.461 . S
C532 H552 0.932 . S
C533 C531 1.408 . S
C533 C532 1.310 . S
C533 H553 0.930 . S
C534 C535 1.474 . S
C534 C536 1.285 . S
C534 H554 0.929 . S
C535 C532 1.461 . S
C535 C534 1.474 . S
C536 C531 1.342 . S
C536 C534 1.285 . S
C536 H555 0.930 . S
C537 C540 1.424 . S
C537 C542 1.245 . S
C537 C543 1.428 . S
C538 C541 1.260 . S
C538 C542 1.477 . S
C538 H556 0.932 . S
C539 C540 1.384 . S
C539 C541 1.479 . S
C539 H557 0.929 . S
C540 C537 1.424 . S
C540 C539 1.384 . S
C540 H558 0.928 . S
C541 C538 1.260 . S
C541 C539 1.479 . S
C542 C537 1.245 . S
C542 C538 1.477 . S
C542 H559 0.932 . S
C543 U526 2.882 . S
C543 C537 1.428 . S
C543 O546 1.301 . S
C543 O547 1.282 . S
O544 U526 2.441 . S
O544 C530 1.249 . S
O545 U526 2.420 . S
O545 C530 1.202 . S
O546 U526 2.455 . S
O546 C543 1.301 . S
O547 U526 2.449 . S
O547 C543 1.282 . S
H548 C521 0.931 . S
H549 C523 0.929 . S
H550 C524 0.930 . S
H551 C525 0.931 . S
H552 C532 0.932 . S
H553 C533 0.930 . S
H554 C534 0.929 . S
H555 C536 0.930 . S
H556 C538 0.932 . S
H557 C539 0.929 . S
H558 C540 0.928 . S
H559 C542 0.932 . S
C560 C561 1.264 . S
C560 C565 1.479 . S
C560 C570 1.465 . S
C561 C560 1.264 . S
C561 C563 1.339 . S
C561 H588 0.931 . S
C562 C563 1.395 . S
C562 C564 1.320 . S
C563 C561 1.339 . S
C563 C562 1.395 . S
C563 H589 0.929 . S
C564 C562 1.320 . S
C564 C565 1.405 . S
C564 H590 0.930 . S
C565 C560 1.479 . S
C565 C564 1.405 . S
C565 H591 0.931 . S
U566 O567 2.454 . S
U566 O568 2.458 . S
U566 C569 2.984 . S
U566 C570 2.847 . S
U566 C583 2.882 . S
U566 O584 2.441 . S
U566 O585 2.420 . S
U566 O586 2.455 . S
U566 O587 2.449 . S
O567 U566 2.454 . S
O567 C569 1.353 . S
O568 U566 2.458 . S
O568 C569 1.286 . S
C569 U566 2.984 . S
C569 O567 1.353 . S
C569 O568 1.286 . S
C569 C571 1.363 . S
C570 C560 1.465 . S
C570 U566 2.847 . S
C570 O584 1.249 . S
C570 O585 1.202 . S
C571 C569 1.363 . S
C571 C573 1.408 . S
C571 C576 1.342 . S
C572 C573 1.310 . S
C572 C575 1.461 . S
C572 H592 0.932 . S
C573 C571 1.408 . S
C573 C572 1.310 . S
C573 H593 0.930 . S
C574 C575 1.474 . S
C574 C576 1.285 . S
C574 H594 0.929 . S
C575 C572 1.461 . S
C575 C574 1.474 . S
C576 C571 1.342 . S
C576 C574 1.285 . S
C576 H595 0.930 . S
C577 C580 1.424 . S
C577 C582 1.245 . S
C577 C583 1.428 . S
C578 C581 1.260 . S
C578 C582 1.477 . S
C578 H596 0.932 . S
C579 C580 1.384 . S
C579 C581 1.479 . S
C579 H597 0.929 . S
C580 C577 1.424 . S
C580 C579 1.384 . S
C580 H598 0.928 . S
C581 C578 1.260 . S
C581 C579 1.479 . S
C582 C577 1.245 . S
C582 C578 1.477 . S
C582 H599 0.932 . S
C583 U566 2.882 . S
C583 C577 1.428 . S
C583 O586 1.301 . S
C583 O587 1.282 . S
O584 U566 2.441 . S
O584 C570 1.249 . S
O585 U566 2.420 . S
O585 C570 1.202 . S
O586 U566 2.455 . S
O586 C583 1.301 . S
O587 U566 2.449 . S
O587 C583 1.282 . S
H588 C561 0.931 . S
H589 C563 0.929 . S
H590 C564 0.930 . S
H591 C565 0.931 . S
H592 C572 0.932 . S
H593 C573 0.930 . S
H594 C574 0.929 . S
H595 C576 0.930 . S
H596 C578 0.932 . S
H597 C579 0.929 . S
H598 C580 0.928 . S
H599 C582 0.932 . S
C600 C601 1.264 . S
C600 C605 1.479 . S
C600 C610 1.465 . S
C601 C600 1.264 . S
C601 C603 1.339 . S
C601 H628 0.931 . S
C602 C603 1.395 . S
C602 C604 1.320 . S
C603 C601 1.339 . S
C603 C602 1.395 . S
C603 H629 0.929 . S
C604 C602 1.320 . S
C604 C605 1.405 . S
C604 H630 0.930 . S
C605 C600 1.479 . S
C605 C604 1.405 . S
C605 H631 0.931 . S
U606 O607 2.454 . S
U606 O608 2.458 . S
U606 C609 2.984 . S
U606 C610 2.847 . S
U606 C623 2.882 . S
U606 O624 2.441 . S
U606 O625 2.420 . S
U606 O626 2.455 . S
U606 O627 2.449 . S
O607 U606 2.454 . S
O607 C609 1.353 . S
O608 U606 2.458 . S
O608 C609 1.286 . S
C609 U606 2.984 . S
C609 O607 1.353 . S
C609 O608 1.286 . S
C609 C611 1.363 . S
C610 C600 1.465 . S
C610 U606 2.847 . S
C610 O624 1.249 . S
C610 O625 1.202 . S
C611 C609 1.363 . S
C611 C613 1.408 . S
C611 C616 1.342 . S
C612 C613 1.310 . S
C612 C615 1.461 . S
C612 H632 0.932 . S
C613 C611 1.408 . S
C613 C612 1.310 . S
C613 H633 0.930 . S
C614 C615 1.474 . S
C614 C616 1.285 . S
C614 H634 0.929 . S
C615 C612 1.461 . S
C615 C614 1.474 . S
C616 C611 1.342 . S
C616 C614 1.285 . S
C616 H635 0.930 . S
C617 C620 1.424 . S
C617 C622 1.245 . S
C617 C623 1.428 1_455 S
C618 C621 1.260 . S
C618 C622 1.477 . S
C618 H636 0.932 . S
C619 C620 1.384 . S
C619 C621 1.479 . S
C619 H637 0.929 . S
C620 C617 1.424 . S
C620 C619 1.384 . S
C620 H638 0.928 . S
C621 C618 1.260 . S
C621 C619 1.479 . S
C622 C617 1.245 . S
C622 C618 1.477 . S
C622 H639 0.932 . S
C623 U606 2.882 . S
C623 C617 1.428 1_655 S
C623 O626 1.301 . S
C623 O627 1.282 . S
O624 U606 2.441 . S
O624 C610 1.249 . S
O625 U606 2.420 . S
O625 C610 1.202 . S
O626 U606 2.455 . S
O626 C623 1.301 . S
O627 U606 2.449 . S
O627 C623 1.282 . S
H628 C601 0.931 . S
H629 C603 0.929 . S
H630 C604 0.930 . S
H631 C605 0.931 . S
H632 C612 0.932 . S
H633 C613 0.930 . S
H634 C614 0.929 . S
H635 C616 0.930 . S
H636 C618 0.932 . S
H637 C619 0.929 . S
H638 C620 0.928 . S
H639 C622 0.932 . S
C640 C641 1.363 . S
C640 C646 1.379 1_556 S
C640 N648 1.356 . S
C641 C640 1.363 . S
C641 C647 1.363 1_545 S
C642 C643 1.363 . S
C642 C647 1.379 1_554 S
C642 N649 1.356 . S
C643 C642 1.363 . S
C643 C646 1.363 1_565 S
N644 C646 1.356 . S
N644 H656 0.984 . S
N644 H657 0.985 . S
N645 C647 1.356 . S
N645 H650 0.984 . S
N645 H651 0.985 . S
C646 C640 1.379 1_554 S
C646 C643 1.363 1_545 S
C646 N644 1.356 . S
C647 C641 1.363 1_565 S
C647 C642 1.379 1_556 S
C647 N645 1.356 . S
N648 C640 1.356 . S
N648 H654 1.000 . S
N648 H655 0.984 . S
N649 C642 1.356 . S
N649 H652 0.984 . S
N649 H653 1.000 . S
H650 N645 0.984 . S
H651 N645 0.985 . S
H652 N649 0.984 . S
H653 N649 1.000 . S
H654 N648 1.000 . S
H655 N648 0.984 . S
H656 N644 0.984 . S
H657 N644 0.985 . S
C658 C659 1.363 . S
C658 C664 1.379 . S
C658 N666 1.356 . S
C659 C658 1.363 . S
C659 C665 1.363 . S
C660 C661 1.363 . S
C660 C665 1.379 . S
C660 N667 1.356 . S
C661 C660 1.363 . S
C661 C664 1.363 . S
N662 C664 1.356 . S
N662 H674 0.984 . S
N662 H675 0.985 . S
N663 C665 1.356 . S
N663 H668 0.984 . S
N663 H669 0.985 . S
C664 C658 1.379 . S
C664 C661 1.363 . S
C664 N662 1.356 . S
C665 C659 1.363 . S
C665 C660 1.379 . S
C665 N663 1.356 . S
N666 C658 1.356 . S
N666 H672 0.984 . S
N666 H673 0.984 . S
N667 C660 1.356 . S
N667 H670 0.984 . S
N667 H671 0.985 . S
H668 N663 0.984 . S
H669 N663 0.985 . S
H670 N667 0.984 . S
H671 N667 0.985 . S
H672 N666 0.984 . S
H673 N666 0.984 . S
H674 N662 0.984 . S
H675 N662 0.985 . S
C676 C677 1.363 1_654 S
C676 C682 1.379 . S
C676 N684 1.354 1_554 S
C677 C676 1.363 1_456 S
C677 C683 1.363 . S
C678 C679 1.363 1_456 S
C678 C683 1.379 . S
C678 N685 1.354 1_556 S
C679 C678 1.363 1_654 S
C679 C682 1.363 . S
N680 C682 1.356 . S
N680 H692 0.984 . S
N680 H693 0.985 . S
N681 C683 1.356 . S
N681 H686 0.984 . S
N681 H687 0.985 . S
C682 C676 1.379 . S
C682 C679 1.363 . S
C682 N680 1.356 . S
C683 C677 1.363 . S
C683 C678 1.379 . S
C683 N681 1.356 . S
N684 C676 1.354 1_556 S
N684 H690 0.977 1_556 S
N684 H691 0.994 . S
N685 C678 1.354 1_554 S
N685 H688 0.994 . S
N685 H689 0.977 1_554 S
H686 N681 0.984 . S
H687 N681 0.985 . S
H688 N685 0.994 . S
H689 N685 0.977 1_556 S
H690 N684 0.977 1_554 S
H691 N684 0.994 . S
H692 N680 0.984 . S
H693 N680 0.985 . S
C694 C695 1.363 1_545 S
C694 C700 1.379 . S
C694 N702 1.356 . S
C695 C694 1.363 1_565 S
C695 C701 1.363 1_655 S
C696 C697 1.363 1_565 S
C696 C701 1.379 . S
C696 N703 1.356 . S
C697 C696 1.363 1_545 S
C697 C700 1.363 1_455 S
N698 C700 1.356 . S
N698 H710 0.984 . S
N698 H711 0.985 1_655 S
N699 C701 1.356 . S
N699 H704 0.984 1_455 S
N699 H705 0.985 . S
C700 C694 1.379 . S
C700 C697 1.363 1_655 S
C700 N698 1.356 . S
C701 C695 1.363 1_455 S
C701 C696 1.379 . S
C701 N699 1.356 . S
N702 C694 1.356 . S
N702 H708 0.984 . S
N702 H709 0.984 . S
N703 C696 1.356 . S
N703 H706 0.984 . S
N703 H707 0.985 . S
H704 N699 0.984 1_655 S
H705 N699 0.985 . S
H706 N703 0.984 . S
H707 N703 0.985 . S
H708 N702 0.984 . S
H709 N702 0.984 . S
H710 N698 0.984 . S
H711 N698 0.985 1_455 S
C712 C713 1.363 1_565 S
C712 C718 1.379 1_456 S
C712 N720 1.356 . S
C713 C712 1.363 1_545 S
C713 C719 1.363 . S
C714 C715 1.363 1_545 S
C714 C719 1.379 1_654 S
C714 N721 1.356 . S
C715 C714 1.363 1_565 S
C715 C718 1.363 . S
N716 C718 1.356 . S
N716 H728 0.984 . S
N716 H729 0.985 . S
N717 C719 1.356 . S
N717 H722 0.984 . S
N717 H723 0.985 . S
C718 C712 1.379 1_654 S
C718 C715 1.363 . S
C718 N716 1.356 . S
C719 C713 1.363 . S
C719 C714 1.379 1_456 S
C719 N717 1.356 . S
N720 C712 1.356 . S
N720 H726 0.984 . S
N720 H727 0.984 . S
N721 C714 1.356 . S
N721 H724 0.984 . S
N721 H725 0.985 . S
H722 N717 0.984 . S
H723 N717 0.985 . S
H724 N721 0.984 . S
H725 N721 0.985 . S
H726 N720 0.984 . S
H727 N720 0.984 . S
H728 N716 0.984 . S
H729 N716 0.985 . S
C730 C731 1.363 . S
C730 C736 1.379 . S
C730 N738 1.356 . S
C731 C730 1.363 . S
C731 C737 1.363 1_565 S
C732 C733 1.363 . S
C732 C737 1.379 . S
C732 N739 1.356 . S
C733 C732 1.363 . S
C733 C736 1.363 1_545 S
N734 C736 1.356 . S
N734 H746 0.984 . S
N734 H747 0.985 1_565 S
N735 C737 1.356 . S
N735 H740 0.984 1_545 S
N735 H741 0.985 . S
C736 C730 1.379 . S
C736 C733 1.363 1_565 S
C736 N734 1.356 . S
C737 C731 1.363 1_545 S
C737 C732 1.379 . S
C737 N735 1.356 . S
N738 C730 1.356 . S
N738 H744 0.984 . S
N738 H745 0.984 . S
N739 C732 1.356 . S
N739 H742 0.984 . S
N739 H743 0.985 . S
H740 N735 0.984 1_565 S
H741 N735 0.985 . S
H742 N739 0.984 . S
H743 N739 0.985 . S
H744 N738 0.984 . S
H745 N738 0.984 . S
H746 N734 0.984 . S
H747 N734 0.985 1_545 S
C748 C749 1.363 . S
C748 C754 1.379 . S
C748 N756 1.356 . S
C749 C748 1.363 . S
C749 C755 1.363 1_554 S
C750 C751 1.363 . S
C750 C755 1.379 . S
C750 N757 1.356 . S
C751 C750 1.363 . S
C751 C754 1.363 1_556 S
N752 C754 1.356 . S
N752 H764 0.984 . S
N752 H765 0.985 1_554 S
N753 C755 1.356 . S
N753 H758 0.984 1_556 S
N753 H759 0.985 . S
C754 C748 1.379 . S
C754 C751 1.363 1_554 S
C754 N752 1.356 . S
C755 C749 1.363 1_556 S
C755 C750 1.379 . S
C755 N753 1.356 . S
N756 C748 1.356 . S
N756 H762 0.984 . S
N756 H763 0.984 . S
N757 C750 1.356 . S
N757 H760 0.984 . S
N757 H761 0.985 . S
H758 N753 0.984 1_554 S
H759 N753 0.985 . S
H760 N757 0.984 . S
H761 N757 0.985 . S
H762 N756 0.984 . S
H763 N756 0.984 . S
H764 N752 0.984 . S
H765 N752 0.985 1_556 S
C766 C767 1.363 . S
C766 C772 1.391 . S
C766 N774 1.356 . S
C767 C766 1.363 . S
C767 C773 1.344 1_655 S
C768 C769 1.363 . S
C768 C773 1.395 . S
C768 N775 1.356 . S
C769 C768 1.363 . S
C769 C772 1.348 1_455 S
N770 C772 1.356 1_455 S
N770 H782 0.969 1_455 S
N770 H783 1.006 . S
N771 C773 1.356 1_655 S
N771 H776 1.001 . S
N771 H777 0.972 1_655 S
C772 C766 1.391 . S
C772 C769 1.348 1_655 S
C772 N770 1.356 1_655 S
C773 C767 1.344 1_455 S
C773 C768 1.395 . S
C773 N771 1.356 1_455 S
N774 C766 1.356 . S
N774 H780 0.984 . S
N774 H781 0.984 . S
N775 C768 1.356 . S
N775 H778 0.984 . S
N775 H779 0.985 . S
H776 N771 1.001 . S
H777 N771 0.972 1_455 S
H778 N775 0.984 . S
H779 N775 0.985 . S
H780 N774 0.984 . S
H781 N774 0.984 . S
H782 N770 0.969 1_655 S
H783 N770 1.006 . S
C784 C785 1.363 . S
C784 C790 1.379 . S
C784 N792 1.356 . S
C785 C784 1.363 . S
C785 C791 1.363 . S
C786 C787 1.363 . S
C786 C791 1.379 . S
C786 N793 1.356 . S
C787 C786 1.363 . S
C787 C790 1.363 . S
N788 C790 1.356 . S
N788 H800 0.984 . S
N788 H801 0.985 . S
N789 C791 1.356 1_565 S
N789 H794 0.984 . S
N789 H795 0.985 . S
C790 C784 1.379 . S
C790 C787 1.363 . S
C790 N788 1.356 . S
C791 C785 1.363 . S
C791 C786 1.379 . S
C791 N789 1.356 1_545 S
N792 C784 1.356 . S
N792 H798 0.984 . S
N792 H799 0.984 . S
N793 C786 1.356 . S
N793 H796 0.984 . S
N793 H797 0.982 . S
H794 N789 0.984 . S
H795 N789 0.985 . S
H796 N793 0.984 . S
H797 N793 0.982 . S
H798 N792 0.984 . S
H799 N792 0.984 . S
H800 N788 0.984 . S
H801 N788 0.985 . S
C802 C803 1.363 . S
C802 C808 1.379 . S
C802 N810 1.356 . S
C803 C802 1.363 . S
C803 C809 1.363 . S
C804 C805 1.363 . S
C804 C809 1.379 . S
C804 N811 1.356 . S
C805 C804 1.363 . S
C805 C808 1.363 . S
N806 C808 1.356 . S
N806 H818 0.984 . S
N806 H819 0.985 . S
N807 C809 1.356 . S
N807 H812 0.984 . S
N807 H813 0.985 . S
C808 C802 1.379 . S
C808 C805 1.363 . S
C808 N806 1.356 . S
C809 C803 1.363 . S
C809 C804 1.379 . S
C809 N807 1.356 . S
N810 C802 1.356 . S
N810 H816 0.984 . S
N810 H817 0.984 . S
N811 C804 1.356 . S
N811 H814 0.984 . S
N811 H815 0.985 . S
H812 N807 0.984 . S
H813 N807 0.985 . S
H814 N811 0.984 . S
H815 N811 0.985 . S
H816 N810 0.984 . S
H817 N810 0.984 . S
H818 N806 0.984 . S
H819 N806 0.985 . S
C820 C821 1.363 . S
C820 C826 1.379 . S
C820 N828 1.356 . S
C821 C820 1.363 . S
C821 C827 1.363 . S
C822 C823 1.363 . S
C822 C827 1.379 . S
C822 N829 1.356 . S
C823 C822 1.363 . S
C823 C826 1.363 . S
N824 C826 1.356 . S
N824 H836 0.984 . S
N824 H837 0.985 . S
N825 C827 1.356 . S
N825 H830 0.984 . S
N825 H831 0.985 . S
C826 C820 1.379 . S
C826 C823 1.363 . S
C826 N824 1.356 . S
C827 C821 1.363 . S
C827 C822 1.379 . S
C827 N825 1.356 . S
N828 C820 1.356 . S
N828 H834 0.984 1_655 S
N828 H835 0.984 . S
N829 C822 1.356 . S
N829 H832 0.984 . S
N829 H833 0.985 . S
H830 N825 0.984 . S
H831 N825 0.985 . S
H832 N829 0.984 . S
H833 N829 0.985 . S
H834 N828 0.984 1_455 S
H835 N828 0.984 . S
H836 N824 0.984 . S
H837 N824 0.985 . S
C838 C839 1.363 . S
C838 C844 1.379 . S
C838 N846 1.356 . S
C839 C838 1.363 . S
C839 C845 1.363 . S
C840 C841 1.363 . S
C840 C845 1.379 . S
C840 N847 1.356 . S
C841 C840 1.363 . S
C841 C844 1.363 . S
N842 C844 1.356 . S
N842 H854 0.984 . S
N842 H855 0.985 . S
N843 C845 1.356 . S
N843 H848 0.984 . S
N843 H849 0.985 . S
C844 C838 1.379 . S
C844 C841 1.363 . S
C844 N842 1.356 . S
C845 C839 1.363 . S
C845 C840 1.379 . S
C845 N843 1.356 . S
N846 C838 1.356 . S
N846 H852 0.984 1_455 S
N846 H853 0.984 . S
N847 C840 1.356 . S
N847 H850 0.984 . S
N847 H851 0.985 . S
H848 N843 0.984 . S
H849 N843 0.985 . S
H850 N847 0.984 . S
H851 N847 0.985 . S
H852 N846 0.984 1_655 S
H853 N846 0.984 . S
H854 N842 0.984 . S
H855 N842 0.985 . S
C856 C857 1.363 . S
C856 C862 1.379 . S
C856 N864 1.356 . S
C857 C856 1.363 . S
C857 C863 1.363 . S
C858 C859 1.363 . S
C858 C863 1.379 . S
C858 N865 1.356 . S
C859 C858 1.363 . S
C859 C862 1.363 . S
N860 C862 1.356 . S
N860 H872 0.984 . S
N860 H873 0.985 . S
N861 C863 1.356 . S
N861 H866 0.984 . S
N861 H867 0.985 1_565 S
C862 C856 1.379 . S
C862 C859 1.363 . S
C862 N860 1.356 . S
C863 C857 1.363 . S
C863 C858 1.379 . S
C863 N861 1.356 . S
N864 C856 1.356 . S
N864 H870 0.984 . S
N864 H871 0.984 . S
N865 C858 1.356 . S
N865 H868 0.984 . S
N865 H869 0.985 . S
H866 N861 0.984 . S
H867 N861 0.985 1_545 S
H868 N865 0.984 . S
H869 N865 0.985 . S
H870 N864 0.984 . S
H871 N864 0.984 . S
H872 N860 0.984 . S
H873 N860 0.985 . S
C874 C875 1.363 . S
C874 C880 1.379 . S
C874 N882 1.356 . S
C875 C874 1.363 . S
C875 C881 1.363 . S
C876 C877 1.363 . S
C876 C881 1.379 . S
C876 N883 1.356 . S
C877 C876 1.363 . S
C877 C880 1.363 . S
N878 C880 1.356 . S
N878 H890 0.984 . S
N878 H891 0.985 . S
N879 C881 1.356 . S
N879 H884 0.984 . S
N879 H885 0.985 . S
C880 C874 1.379 . S
C880 C877 1.363 . S
C880 N878 1.356 . S
C881 C875 1.363 . S
C881 C876 1.379 . S
C881 N879 1.356 . S
N882 C874 1.356 . S
N882 H888 0.984 . S
N882 H889 0.984 . S
N883 C876 1.356 . S
N883 H886 0.984 . S
N883 H887 0.985 . S
H884 N879 0.984 . S
H885 N879 0.985 . S
H886 N883 0.984 . S
H887 N883 0.985 . S
H888 N882 0.984 . S
H889 N882 0.984 . S
H890 N878 0.984 . S
H891 N878 0.985 . S
C892 C893 1.363 . S
C892 C898 1.379 . S
C892 N900 1.356 . S
C893 C892 1.363 . S
C893 C899 1.363 . S
C894 C895 1.363 . S
C894 C899 1.379 . S
C894 N901 1.356 . S
C895 C894 1.363 . S
C895 C898 1.363 . S
N896 C898 1.356 . S
N896 H908 0.984 . S
N896 H909 0.985 . S
N897 C899 1.356 . S
N897 H902 0.984 . S
N897 H903 0.985 . S
C898 C892 1.379 . S
C898 C895 1.363 . S
C898 N896 1.356 . S
C899 C893 1.363 . S
C899 C894 1.379 . S
C899 N897 1.356 . S
N900 C892 1.356 . S
N900 H906 0.984 . S
N900 H907 0.984 . S
N901 C894 1.356 . S
N901 H904 0.984 . S
N901 H905 0.985 . S
H902 N897 0.984 . S
H903 N897 0.985 . S
H904 N901 0.984 . S
H905 N901 0.985 . S
H906 N900 0.984 . S
H907 N900 0.984 . S
H908 N896 0.984 . S
H909 N896 0.985 . S
C910 C911 1.363 . S
C910 C916 1.379 . S
C910 N918 1.356 . S
C911 C910 1.363 . S
C911 C917 1.363 . S
C912 C913 1.363 . S
C912 C917 1.379 . S
C912 N919 1.356 . S
C913 C912 1.363 . S
C913 C916 1.363 . S
N914 C916 1.356 . S
N914 H926 0.984 . S
N914 H927 0.985 . S
N915 C917 1.356 . S
N915 H920 0.984 . S
N915 H921 0.985 . S
C916 C910 1.379 . S
C916 C913 1.363 . S
C916 N914 1.356 . S
C917 C911 1.363 . S
C917 C912 1.379 . S
C917 N915 1.356 . S
N918 C910 1.356 . S
N918 H924 0.984 . S
N918 H925 0.984 . S
N919 C912 1.356 . S
N919 H922 0.984 . S
N919 H923 0.985 1_655 S
H920 N915 0.984 . S
H921 N915 0.985 . S
H922 N919 0.984 . S
H923 N919 0.985 1_455 S
H924 N918 0.984 . S
H925 N918 0.984 . S
H926 N914 0.984 . S
H927 N914 0.985 . S
C928 C929 1.363 1_545 S
C928 C934 1.379 . S
C928 N936 1.356 . S
C929 C928 1.363 1_565 S
C929 C935 1.363 . S
C930 C931 1.363 . S
C930 C935 1.379 . S
C930 N937 1.356 . S
C931 C930 1.363 . S
C931 C934 1.363 1_565 S
N932 C934 1.356 . S
N932 H944 0.984 . S
N932 H945 0.985 . S
N933 C935 1.356 . S
N933 H938 0.984 . S
N933 H939 0.985 . S
C934 C928 1.379 . S
C934 C931 1.363 1_545 S
C934 N932 1.356 . S
C935 C929 1.363 . S
C935 C930 1.379 . S
C935 N933 1.356 . S
N936 C928 1.356 . S
N936 H942 0.984 . S
N936 H943 0.984 . S
N937 C930 1.356 . S
N937 H940 0.984 . S
N937 H941 0.985 . S
H938 N933 0.984 . S
H939 N933 0.985 . S
H940 N937 0.984 . S
H941 N937 0.985 . S
H942 N936 0.984 . S
H943 N936 0.984 . S
H944 N932 0.984 . S
H945 N932 0.985 . S
C946 C947 1.363 . S
C946 C952 1.379 . S
C946 N954 1.356 . S
C947 C946 1.363 . S
C947 C953 1.363 . S
C948 C949 1.363 . S
C948 C953 1.379 . S
C948 N955 1.356 . S
C949 C948 1.363 . S
C949 C952 1.363 . S
N950 C952 1.356 . S
N950 H962 0.984 . S
N950 H963 0.985 . S
N951 C953 1.356 . S
N951 H956 0.984 . S
N951 H957 0.985 . S
C952 C946 1.379 . S
C952 C949 1.363 . S
C952 N950 1.356 . S
C953 C947 1.363 . S
C953 C948 1.379 . S
C953 N951 1.356 . S
N954 C946 1.356 . S
N954 H960 0.984 . S
N954 H961 0.984 . S
N955 C948 1.356 . S
N955 H958 0.984 . S
N955 H959 0.985 . S
H956 N951 0.984 . S
H957 N951 0.985 . S
H958 N955 0.984 . S
H959 N955 0.985 . S
H960 N954 0.984 . S
H961 N954 0.984 . S
H962 N950 0.984 . S
H963 N950 0.985 . S
C964 C965 1.363 . S
C964 C970 1.379 . S
C964 N972 1.356 . S
C965 C964 1.363 . S
C965 C971 1.363 . S
C966 C967 1.363 . S
C966 C971 1.379 . S
C966 N973 1.356 . S
C967 C966 1.363 . S
C967 C970 1.363 . S
N968 C970 1.356 . S
N968 H980 0.984 . S
N968 H981 0.985 . S
N969 C971 1.356 . S
N969 H974 0.984 . S
N969 H975 0.985 . S
C970 C964 1.379 . S
C970 C967 1.363 . S
C970 N968 1.356 . S
C971 C965 1.363 . S
C971 C966 1.379 . S
C971 N969 1.356 . S
N972 C964 1.356 . S
N972 H978 0.984 . S
N972 H979 0.984 . S
N973 C966 1.356 . S
N973 H976 0.984 . S
N973 H977 0.985 . S
H974 N969 0.984 . S
H975 N969 0.985 . S
H976 N973 0.984 . S
H977 N973 0.985 . S
H978 N972 0.984 . S
H979 N972 0.984 . S
H980 N968 0.984 . S
H981 N968 0.985 . S
C982 C983 1.363 . S
C982 C988 1.379 . S
C982 N990 1.356 . S
C983 C982 1.363 . S
C983 C989 1.363 . S
C984 C985 1.363 . S
C984 C989 1.379 . S
C984 N991 1.356 1_655 S
C985 C984 1.363 . S
C985 C988 1.363 . S
N986 C988 1.356 . S
N986 H998 0.984 . S
N986 H999 0.985 . S
N987 C989 1.356 1_455 S
N987 H992 0.984 . S
N987 H993 0.985 . S
C988 C982 1.379 . S
C988 C985 1.363 . S
C988 N986 1.356 . S
C989 C983 1.363 . S
C989 C984 1.379 . S
C989 N987 1.356 1_655 S
N990 C982 1.356 . S
N990 H996 0.984 . S
N990 H997 0.984 . S
N991 C984 1.356 1_455 S
N991 H994 0.984 . S
N991 H995 0.985 . S
H992 N987 0.984 . S
H993 N987 0.985 . S
H994 N991 0.984 . S
H995 N991 0.985 . S
H996 N990 0.984 . S
H997 N990 0.984 . S
H998 N986 0.984 . S
H999 N986 0.985 . S
C1000 C1001 1.363 . S
C1000 C1006 1.379 . S
C1000 N1008 1.356 . S
C1001 C1000 1.363 . S
C1001 C1007 1.363 1_545 S
C1002 C1003 1.363 1_565 S
C1002 C1007 1.379 . S
C1002 N1009 1.356 . S
C1003 C1002 1.363 1_545 S
C1003 C1006 1.363 . S
N1004 C1006 1.356 . S
N1004 H1016 0.984 . S
N1004 H1017 0.985 . S
N1005 C1007 1.356 . S
N1005 H1010 0.984 . S
N1005 H1011 0.985 . S
C1006 C1000 1.379 . S
C1006 C1003 1.363 . S
C1006 N1004 1.356 . S
C1007 C1001 1.363 1_565 S
C1007 C1002 1.379 . S
C1007 N1005 1.356 . S
N1008 C1000 1.356 . S
N1008 H1014 0.984 . S
N1008 H1015 0.984 . S
N1009 C1002 1.356 . S
N1009 H1012 0.984 . S
N1009 H1013 0.985 . S
H1010 N1005 0.984 . S
H1011 N1005 0.985 . S
H1012 N1009 0.984 . S
H1013 N1009 0.985 . S
H1014 N1008 0.984 . S
H1015 N1008 0.984 . S
H1016 N1004 0.984 . S
H1017 N1004 0.985 . S
C1018 C1019 1.363 . S
C1018 C1024 1.379 . S
C1018 N1026 1.356 . S
C1019 C1018 1.363 . S
C1019 C1025 1.363 . S
C1020 C1021 1.363 . S
C1020 C1025 1.379 . S
C1020 N1027 1.356 . S
C1021 C1020 1.363 . S
C1021 C1024 1.363 . S
N1022 C1024 1.356 . S
N1022 H1034 0.984 . S
N1022 H1035 0.985 . S
N1023 C1025 1.356 . S
N1023 H1028 0.984 . S
N1023 H1029 0.985 . S
C1024 C1018 1.379 . S
C1024 C1021 1.363 . S
C1024 N1022 1.356 . S
C1025 C1019 1.363 . S
C1025 C1020 1.379 . S
C1025 N1023 1.356 . S
N1026 C1018 1.356 . S
N1026 H1032 0.984 . S
N1026 H1033 0.984 . S
N1027 C1020 1.356 . S
N1027 H1030 0.984 . S
N1027 H1031 0.985 . S
H1028 N1023 0.984 . S
H1029 N1023 0.985 . S
H1030 N1027 0.984 . S
H1031 N1027 0.985 . S
H1032 N1026 0.984 . S
H1033 N1026 0.984 . S
H1034 N1022 0.984 . S
H1035 N1022 0.985 . S
C1036 C1037 1.363 . S
C1036 C1042 1.379 . S
C1036 N1044 1.356 . S
C1037 C1036 1.363 . S
C1037 C1043 1.363 . S
C1038 C1039 1.363 . S
C1038 C1043 1.379 . S
C1038 N1045 1.356 . S
C1039 C1038 1.363 . S
C1039 C1042 1.363 . S
N1040 C1042 1.356 . S
N1040 H1052 0.984 . S
N1040 H1053 0.985 . S
N1041 C1043 1.356 . S
N1041 H1046 0.984 . S
N1041 H1047 0.985 . S
C1042 C1036 1.379 . S
C1042 C1039 1.363 . S
C1042 N1040 1.356 . S
C1043 C1037 1.363 . S
C1043 C1038 1.379 . S
C1043 N1041 1.356 . S
N1044 C1036 1.356 . S
N1044 H1050 0.984 . S
N1044 H1051 0.984 . S
N1045 C1038 1.356 . S
N1045 H1048 0.984 . S
N1045 H1049 0.985 . S
H1046 N1041 0.984 . S
H1047 N1041 0.985 . S
H1048 N1045 0.984 . S
H1049 N1045 0.985 . S
H1050 N1044 0.984 . S
H1051 N1044 0.984 . S
H1052 N1040 0.984 . S
H1053 N1040 0.985 . S
C1054 C1055 1.363 . S
C1054 C1060 1.379 . S
C1054 N1062 1.356 1_455 S
C1055 C1054 1.363 . S
C1055 C1061 1.363 . S
C1056 C1057 1.363 . S
C1056 C1061 1.379 . S
C1056 N1063 1.356 . S
C1057 C1056 1.363 . S
C1057 C1060 1.363 . S
N1058 C1060 1.356 1_655 S
N1058 H1070 0.984 . S
N1058 H1071 0.985 . S
N1059 C1061 1.356 . S
N1059 H1064 0.984 . S
N1059 H1065 0.985 . S
C1060 C1054 1.379 . S
C1060 C1057 1.363 . S
C1060 N1058 1.356 1_455 S
C1061 C1055 1.363 . S
C1061 C1056 1.379 . S
C1061 N1059 1.356 . S
N1062 C1054 1.356 1_655 S
N1062 H1068 0.984 . S
N1062 H1069 0.984 . S
N1063 C1056 1.356 . S
N1063 H1066 0.984 . S
N1063 H1067 0.985 . S
H1064 N1059 0.984 . S
H1065 N1059 0.985 . S
H1066 N1063 0.984 . S
H1067 N1063 0.985 . S
H1068 N1062 0.984 . S
H1069 N1062 0.984 . S
H1070 N1058 0.984 . S
H1071 N1058 0.985 . S
C641 C335 1.559 . S
C643 C15 1.551 . S
C659 C55 2.057 . S
C661 C375 2.073 . S
C677 C415 2.231 . S
C679 C95 2.215 . S
C695 C135 1.622 . S
C697 C455 1.628 . S
C713 C175 1.622 . S
C715 C495 1.628 . S
C731 C535 2.231 . S
C733 C215 2.215 . S
C749 C575 2.073 . S
C751 C255 2.057 . S
C767 C615 1.559 . S
C769 C295 1.551 . S
C785 C21 1.704 . S
C787 C221 1.631 . S
C803 C261 1.743 . S
C805 C61 1.743 . S
C821 C301 1.704 . S
C823 C101 1.631 . S
C839 C141 1.538 . S
C841 C181 1.534 . S
C857 C341 1.727 . S
C859 C541 1.724 . S
C875 C581 1.814 . S
C877 C381 1.814 . S
C893 C421 1.726 . S
C895 C621 1.724 . S
C911 C501 1.567 . S
C913 C461 1.562 . S
C929 C482 1.495 . S
C931 C2 1.480 . S
C947 C522 1.853 . S
C949 C42 1.818 . S
C965 C82 1.803 . S
C967 C562 1.852 . S
C983 C602 1.495 . S
C985 C122 1.477 . S
C1001 C162 1.477 . S
C1003 C322 1.495 . S
C1019 C362 1.852 . S
C1021 C202 1.803 . S
C1037 C402 1.853 . S
C1039 C242 1.818 . S
C1055 C442 1.495 . S
C1057 C282 1.480 . S
