# Generated by pormake.
# Topology snl, (6)-cn, num edge types: 1
# Building blocks:
#     Node 0, Type 0, BuildingBlock: KUMBUR_clean_sbu_1, # of connection points: 6
#     Node 1, Type 0, BuildingBlock: KUMBUR_clean_sbu_1, # of connection points: 6
#     Node 2, Type 0, BuildingBlock: KUMBUR_clean_sbu_1, # of connection points: 6
#     Node 3, Type 0, BuildingBlock: KUMBUR_clean_sbu_1, # of connection points: 6
#     Node 4, Type 0, BuildingBlock: KUMBUR_clean_sbu_1, # of connection points: 6
#     Node 5, Type 0, BuildingBlock: KUMBUR_clean_sbu_1, # of connection points: 6
#     Node 6, Type 0, BuildingBlock: KUMBUR_clean_sbu_1, # of connection points: 6
#     Node 7, Type 0, BuildingBlock: KUMBUR_clean_sbu_1, # of connection points: 6
#     Node 8, Type 0, BuildingBlock: KUMBUR_clean_sbu_1, # of connection points: 6
#     Node 9, Type 0, BuildingBlock: KUMBUR_clean_sbu_1, # of connection points: 6
#     Node 10, Type 0, BuildingBlock: KUMBUR_clean_sbu_1, # of connection points: 6
#     Node 11, Type 0, BuildingBlock: KUMBUR_clean_sbu_1, # of connection points: 6
#     Node 12, Type 0, BuildingBlock: KUMBUR_clean_sbu_1, # of connection points: 6
#     Node 13, Type 0, BuildingBlock: KUMBUR_clean_sbu_1, # of connection points: 6
#     Node 14, Type 0, BuildingBlock: KUMBUR_clean_sbu_1, # of connection points: 6
#     Node 15, Type 0, BuildingBlock: KUMBUR_clean_sbu_1, # of connection points: 6
#     Edge 16, Type (0, 0), BuildingBlock: OJICUG_clean_linker_0, # of connection points: 2
#     Edge 17, Type (0, 0), BuildingBlock: OJICUG_clean_linker_0, # of connection points: 2
#     Edge 18, Type (0, 0), BuildingBlock: OJICUG_clean_linker_0, # of connection points: 2
#     Edge 19, Type (0, 0), BuildingBlock: OJICUG_clean_linker_0, # of connection points: 2
#     Edge 20, Type (0, 0), BuildingBlock: OJICUG_clean_linker_0, # of connection points: 2
#     Edge 21, Type (0, 0), BuildingBlock: OJICUG_clean_linker_0, # of connection points: 2
#     Edge 22, Type (0, 0), BuildingBlock: OJICUG_clean_linker_0, # of connection points: 2
#     Edge 23, Type (0, 0), BuildingBlock: OJICUG_clean_linker_0, # of connection points: 2
#     Edge 24, Type (0, 0), BuildingBlock: OJICUG_clean_linker_0, # of connection points: 2
#     Edge 25, Type (0, 0), BuildingBlock: OJICUG_clean_linker_0, # of connection points: 2
#     Edge 26, Type (0, 0), BuildingBlock: OJICUG_clean_linker_0, # of connection points: 2
#     Edge 27, Type (0, 0), BuildingBlock: OJICUG_clean_linker_0, # of connection points: 2
#     Edge 28, Type (0, 0), BuildingBlock: OJICUG_clean_linker_0, # of connection points: 2
#     Edge 29, Type (0, 0), BuildingBlock: OJICUG_clean_linker_0, # of connection points: 2
#     Edge 30, Type (0, 0), BuildingBlock: OJICUG_clean_linker_0, # of connection points: 2
#     Edge 31, Type (0, 0), BuildingBlock: OJICUG_clean_linker_0, # of connection points: 2
#     Edge 32, Type (0, 0), BuildingBlock: OJICUG_clean_linker_0, # of connection points: 2
#     Edge 33, Type (0, 0), BuildingBlock: OJICUG_clean_linker_0, # of connection points: 2
#     Edge 34, Type (0, 0), BuildingBlock: OJICUG_clean_linker_0, # of connection points: 2
#     Edge 35, Type (0, 0), BuildingBlock: OJICUG_clean_linker_0, # of connection points: 2
#     Edge 36, Type (0, 0), BuildingBlock: OJICUG_clean_linker_0, # of connection points: 2
#     Edge 37, Type (0, 0), BuildingBlock: OJICUG_clean_linker_0, # of connection points: 2
#     Edge 38, Type (0, 0), BuildingBlock: OJICUG_clean_linker_0, # of connection points: 2
#     Edge 39, Type (0, 0), BuildingBlock: OJICUG_clean_linker_0, # of connection points: 2
#     Edge 40, Type (0, 0), BuildingBlock: OJICUG_clean_linker_0, # of connection points: 2
#     Edge 41, Type (0, 0), BuildingBlock: OJICUG_clean_linker_0, # of connection points: 2
#     Edge 42, Type (0, 0), BuildingBlock: OJICUG_clean_linker_0, # of connection points: 2
#     Edge 43, Type (0, 0), BuildingBlock: OJICUG_clean_linker_0, # of connection points: 2
#     Edge 44, Type (0, 0), BuildingBlock: OJICUG_clean_linker_0, # of connection points: 2
#     Edge 45, Type (0, 0), BuildingBlock: OJICUG_clean_linker_0, # of connection points: 2
#     Edge 46, Type (0, 0), BuildingBlock: OJICUG_clean_linker_0, # of connection points: 2
#     Edge 47, Type (0, 0), BuildingBlock: OJICUG_clean_linker_0, # of connection points: 2
#     Edge 48, Type (0, 0), BuildingBlock: OJICUG_clean_linker_0, # of connection points: 2
#     Edge 49, Type (0, 0), BuildingBlock: OJICUG_clean_linker_0, # of connection points: 2
#     Edge 50, Type (0, 0), BuildingBlock: OJICUG_clean_linker_0, # of connection points: 2
#     Edge 51, Type (0, 0), BuildingBlock: OJICUG_clean_linker_0, # of connection points: 2
#     Edge 52, Type (0, 0), BuildingBlock: OJICUG_clean_linker_0, # of connection points: 2
#     Edge 53, Type (0, 0), BuildingBlock: OJICUG_clean_linker_0, # of connection points: 2
#     Edge 54, Type (0, 0), BuildingBlock: OJICUG_clean_linker_0, # of connection points: 2
#     Edge 55, Type (0, 0), BuildingBlock: OJICUG_clean_linker_0, # of connection points: 2
#     Edge 56, Type (0, 0), BuildingBlock: OJICUG_clean_linker_0, # of connection points: 2
#     Edge 57, Type (0, 0), BuildingBlock: OJICUG_clean_linker_0, # of connection points: 2
#     Edge 58, Type (0, 0), BuildingBlock: OJICUG_clean_linker_0, # of connection points: 2
#     Edge 59, Type (0, 0), BuildingBlock: OJICUG_clean_linker_0, # of connection points: 2
#     Edge 60, Type (0, 0), BuildingBlock: OJICUG_clean_linker_0, # of connection points: 2
#     Edge 61, Type (0, 0), BuildingBlock: OJICUG_clean_linker_0, # of connection points: 2
#     Edge 62, Type (0, 0), BuildingBlock: OJICUG_clean_linker_0, # of connection points: 2
#     Edge 63, Type (0, 0), BuildingBlock: OJICUG_clean_linker_0, # of connection points: 2
# Relax obj value: 0.157
# Max RMSD: 0.241
# Mean RMSD: 0.237
data_MOF--net-snl--node1-KUMBUR_clean_sbu_1--edge1-OJICUG_clean_linker_0
_symmetry_space_group_name_H-M    P1
_symmetry_Int_Tables_number       1
_symmetry_cell_setting            triclinic
loop_
_symmetry_equiv_pos_as_xyz
'x, y, z'
_cell_length_a     41.054207
_cell_length_b     41.060069
_cell_length_c     20.614509
_cell_angle_alpha  90.107886
_cell_angle_beta   90.270609
_cell_angle_gamma 89.956051
loop_
_atom_site_label
_atom_site_type_symbol
_atom_site_fract_x
_atom_site_fract_y
_atom_site_fract_z
_atom_type_partial_charge
Tb0 Tb 0.12692 0.61764 0.21798 0.0
C1 C 0.23135 0.67751 0.06111 0.0
N2 N 0.20024 0.68815 0.06897 0.0
C3 C 0.21981 0.74169 0.09387 0.0
C4 C 0.25801 0.69865 0.0695 0.0
C5 C 0.19421 0.72026 0.08093 0.0
C6 C 0.2519 0.73098 0.08731 0.0
C7 C 0.26801 0.63272 0.03832 0.0
C8 C 0.2363 0.64477 0.04765 0.0
C9 C 0.29471 0.65357 0.04703 0.0
C10 C 0.28977 0.6865 0.06238 0.0
Tb11 Tb 0.16071 0.64945 0.05695 0.0
N12 N 0.20991 0.62487 0.04303 0.0
C13 C 0.27182 0.60026 0.01904 0.0
C14 C 0.21332 0.59464 1.017 0.0
C15 C 0.24423 0.58138 1.0065 0.0
H16 H 0.16983 0.72971 0.07846 0.0
H17 H 0.2467 0.55705 0.98685 0.0
H18 H 0.13174 0.53642 0.22471 0.0
H19 H 0.03369 0.71029 0.22991 0.0
H20 H 0.19229 0.58186 0.99978 0.0
H21 H 0.29579 0.59012 1.01047 0.0
H22 H 0.08453 0.68851 0.20515 0.0
H23 H 0.2147 0.76678 0.10634 0.0
H24 H 0.31923 0.6443 0.04239 0.0
H25 H 0.31064 0.70229 0.06902 0.0
H26 H 0.10277 0.49198 0.2742 0.0
H27 H 0.27172 0.74793 0.09543 0.0
H28 H 0.99176 0.68091 0.2778 0.0
N29 N 0.09589 0.57268 0.24239 0.0
C30 C 0.06591 0.57971 0.26583 0.0
C31 C 0.09153 0.51584 0.27426 0.0
C32 C 0.04701 0.55003 0.30994 0.0
C33 C 0.10777 0.5415 0.24339 0.0
C34 C 0.06258 0.52008 0.30845 0.0
N35 N 0.07535 0.63912 0.22744 0.0
C36 C 0.0679 0.67143 0.22302 0.0
C37 C 0.01828 0.63324 0.2845 0.0
C38 C 0.05359 0.61826 0.25314 0.0
C39 C 1.01332 0.66678 0.26747 0.0
C40 C 0.03778 0.6846 0.23879 0.0
H41 H 0.05197 0.49947 0.33324 0.0
H42 H 1.00241 0.53153 0.37689 0.0
H43 H 0.96685 0.58757 0.38183 0.0
O44 O 0.13851 0.64507 0.30249 0.0
O45 O 0.09053 0.61546 0.13912 0.0
O46 O 0.10626 0.65525 0.06632 0.0
O47 O 0.12533 0.59484 0.30808 0.0
O48 O 0.14219 0.67064 0.21212 0.0
O49 O 0.13132 0.68466 0.1071 0.0
O50 O 0.16062 0.63248 0.96072 0.0
O51 O 0.19303 0.64985 0.14755 0.0
O52 O 0.17861 0.60548 0.20632 0.0
O53 O 0.16134 0.6837 0.98149 0.0
O54 O 0.14068 0.5998 0.05145 0.0
O55 O 0.1486 0.57887 0.15379 0.0
C56 C 0.08372 0.63574 0.09155 0.0
C57 C 0.15552 0.61442 0.39466 0.0
C58 C 0.16653 0.61794 0.51042 0.0
C59 C 0.19338 0.59708 0.50249 0.0
C60 C 0.18109 0.59211 0.38827 0.0
C61 C 0.20052 0.58417 0.44156 0.0
C62 C 0.14803 0.62705 0.45589 0.0
C63 C 0.13788 0.69322 0.16675 0.0
C64 C 0.13316 0.62043 0.34071 0.0
C65 C 1.01147 0.55265 0.35147 0.0
C66 C 0.98939 0.58778 0.35369 0.0
C67 C 0.20029 0.62788 0.19273 0.0
C68 C 0.13857 0.6669 0.88156 0.0
C69 C 0.12803 0.6604 0.76594 0.0
C70 C 0.09925 0.67865 0.77296 0.0
C71 C 0.1096 0.68464 0.88807 0.0
C72 C 0.14751 0.65451 0.82082 0.0
C73 C 0.09011 0.69058 0.83372 0.0
C74 C 0.14345 0.5747 0.09044 0.0
C75 C 0.16058 0.66159 0.93647 0.0
H76 H 0.20792 0.58963 0.54385 0.0
H77 H 0.18486 0.57975 0.34274 0.0
H78 H 0.22038 0.56706 0.43608 0.0
H79 H 0.12716 0.64304 0.46143 0.0
H80 H 0.08409 0.68419 0.73129 0.0
H81 H 0.10224 0.69413 0.93483 0.0
H82 H 0.16971 0.64034 0.81642 0.0
H83 H 0.06801 0.70473 0.83856 0.0
Tb84 Tb 0.63234 0.90981 0.31076 0.0
C85 C 0.73327 0.85777 0.48987 0.0
N86 N 0.70406 0.84572 0.47018 0.0
C87 C 0.72768 0.79305 0.45417 0.0
C88 C 0.76089 0.83749 0.49323 0.0
C89 C 0.7005 0.81336 0.45718 0.0
C90 C 0.75806 0.80506 0.47296 0.0
C91 C 0.76412 0.90257 0.53521 0.0
C92 C 0.73511 0.89042 0.50797 0.0
C93 C 0.7911 0.8819 0.54197 0.0
C94 C 0.78994 0.84983 0.51912 0.0
Tb95 Tb 0.66177 0.88081 0.47879 0.0
N96 N 0.7078 0.9093 0.50444 0.0
C97 C 0.76454 0.93448 0.55888 0.0
C98 C 0.7081 0.94009 0.52985 0.0
C99 C 0.73662 0.95351 0.55504 0.0
H100 H 0.67676 0.80276 0.45172 0.0
H101 H 0.73641 0.97777 0.57573 0.0
H102 H 0.59606 0.97353 0.3905 0.0
H103 H 0.60478 0.82446 0.12151 0.0
H104 H 0.6861 0.95334 0.53795 0.0
H105 H 0.78559 0.94411 0.58377 0.0
H106 H 0.63295 0.84587 0.21325 0.0
H107 H 0.72483 0.76773 0.44076 0.0
H108 H 0.81256 0.89024 0.56692 0.0
H109 H 0.8112 0.83438 0.52421 0.0
H110 H 0.5444 0.99714 0.40298 0.0
H111 H 0.77883 0.7888 0.47406 0.0
H112 H 0.55407 0.87385 0.14106 0.0
N113 N 0.58325 0.93679 0.32251 0.0
C114 C 0.5598 0.92644 0.28106 0.0
C115 C 0.54711 0.97779 0.36759 0.0
C116 C 0.52339 0.94651 0.27733 0.0
C117 C 0.57749 0.96294 0.3617 0.0
C118 C 0.52045 0.96962 0.32946 0.0
N119 N 0.59937 0.88313 0.23845 0.0
C120 C 0.60979 0.85701 0.20229 0.0
C121 C 0.54864 0.88476 0.15654 0.0
C122 C 0.57071 0.89821 0.22653 0.0
C123 C 0.56485 0.85713 0.12148 0.0
C124 C 0.59363 0.84458 0.14706 0.0
H125 H 0.49879 0.98353 0.34041 0.0
H126 H 0.46602 0.93556 0.15488 0.0
H127 H 0.49806 0.88909 0.08892 0.0
O128 O 0.66004 0.90121 0.22622 0.0
O129 O 0.59394 0.88544 0.36752 0.0
O130 O 0.60954 0.89646 0.47288 0.0
O131 O 0.62755 0.94359 0.23416 0.0
O132 O 0.6479 0.85745 0.32202 0.0
O133 O 0.63461 0.84322 0.42639 0.0
O134 O 0.66829 0.88901 0.57923 0.0
O135 O 0.69625 0.87773 0.39191 0.0
O136 O 0.6819 0.92335 0.33977 0.0
O137 O 0.64993 0.84353 0.5442 0.0
O138 O 0.6412 0.93022 0.47983 0.0
O139 O 0.64839 0.95119 0.37684 0.0
C140 C 0.58678 0.88933 0.42927 0.0
C141 C 0.65503 0.9357 0.13105 0.0
C142 C 0.65288 0.92793 1.01342 0.0
C143 C 0.66989 0.95735 1.00605 0.0
C144 C 0.67212 0.96478 0.12225 0.0
C145 C 0.67967 0.97542 0.06007 0.0
C146 C 0.64575 0.91681 0.07654 0.0
C147 C 0.63859 0.83536 0.36517 0.0
C148 C 0.64664 0.92612 0.19744 0.0
C149 C 0.4897 0.92804 0.17442 0.0
C150 C 0.50951 0.89927 0.13173 0.0
C151 C 0.70376 0.90076 0.34947 0.0
C152 C 0.63409 0.85973 0.65058 0.0
C153 C 0.62243 0.86995 0.76522 0.0
C154 C 0.59338 0.85239 0.75881 0.0
C155 C 0.60452 0.8427 0.64528 0.0
C156 C 0.64289 0.87364 0.71097 0.0
C157 C 0.5845 0.83892 0.69918 0.0
C158 C 0.64614 0.95514 0.44117 0.0
C159 C 0.65697 0.86076 0.59535 0.0
H160 H 0.676 0.9662 0.95814 0.0
H161 H 0.67967 0.97926 0.16367 0.0
H162 H 0.69318 0.99779 0.05364 0.0
H163 H 0.63227 0.8944 0.08297 0.0
H164 H 0.57753 0.84913 0.80015 0.0
H165 H 0.597 0.83186 0.59971 0.0
H166 H 0.6656 0.88692 0.71593 0.0
H167 H 0.56203 0.82532 0.69479 0.0
Tb168 Tb 0.36587 0.38286 0.56437 0.0
C169 C 0.42673 0.47609 0.75926 0.0
N170 N 0.4364 0.44553 0.7424 0.0
C171 C 0.49151 0.45858 0.7702 0.0
C172 C 0.44956 0.49941 0.78063 0.0
C173 C 0.46851 0.43672 0.74604 0.0
C174 C 0.48231 0.49036 0.7855 0.0
C175 C 0.38264 0.51339 0.78389 0.0
C176 C 0.39349 0.48325 0.75995 0.0
C177 C 0.40534 0.53676 0.80393 0.0
C178 C 0.43873 0.53009 0.80137 0.0
Tb179 Tb 0.39446 0.40998 0.73038 0.0
N180 N 0.37177 0.45986 0.74173 0.0
C181 C 0.3492 0.5184 0.79097 0.0
C182 C 0.33917 0.46525 0.74703 0.0
C183 C 0.32733 0.49463 0.77089 0.0
H184 H 0.47585 0.41185 0.73772 0.0
H185 H 0.3014 0.49821 0.77702 0.0
H186 H 0.2838 0.38418 0.56339 0.0
H187 H 0.45295 0.28891 0.50321 0.0
H188 H 0.32215 0.44658 0.7376 0.0
H189 H 0.34002 0.53971 0.81511 0.0
H190 H 0.43619 0.3413 0.54656 0.0
H191 H 0.51613 0.45052 0.77937 0.0
H192 H 0.39708 0.55959 0.82358 0.0
H193 H 0.45587 0.54827 0.81843 0.0
H194 H 0.24009 0.34824 0.52531 0.0
H195 H 0.50042 0.50723 0.80392 0.0
H196 H 0.41181 0.25111 0.45883 0.0
N197 N 0.32201 0.35051 0.54153 0.0
C198 C 0.32969 0.32109 0.51513 0.0
C199 C 0.26519 0.34028 0.5224 0.0
C200 C 0.3054 0.30098 0.48794 0.0
C201 C 0.29016 0.36029 0.54566 0.0
C202 C 0.27284 0.31067 0.4928 0.0
N203 N 0.38523 0.33244 0.53716 0.0
C204 C 0.41752 0.32471 0.53223 0.0
C205 C 0.37115 0.28228 0.48265 0.0
C206 C 0.36226 0.31191 0.5124 0.0
C207 C 0.40406 0.27367 0.48092 0.0
C208 C 0.42733 0.29495 0.50596 0.0
H209 H 0.25346 0.29563 0.47326 0.0
H210 H 0.29607 0.25651 0.43422 0.0
H211 H 0.35361 0.24033 0.42915 0.0
O212 O 0.39211 0.39999 0.48244 0.0
O213 O 0.36636 0.34243 0.6343 0.0
O214 O 0.40372 0.35705 0.71352 0.0
O215 O 0.34182 0.38479 0.47588 0.0
O216 O 0.41907 0.39614 0.57603 0.0
O217 O 0.43159 0.38279 0.68105 0.0
O218 O 0.37017 0.40435 0.82018 0.0
O219 O 0.39725 0.4466 0.64683 0.0
O220 O 0.35289 0.43306 0.58703 0.0
O221 O 0.42201 0.40953 0.81549 0.0
O222 O 0.34621 0.38693 0.72761 0.0
O223 O 0.32706 0.40295 0.62914 0.0
C224 C 0.38593 0.33492 0.68259 0.0
C225 C 0.36107 0.41356 0.38713 0.0
C226 C 0.35891 0.41114 0.26993 0.0
C227 C 0.33276 0.43315 0.27038 0.0
C228 C 0.3366 0.4374 0.38714 0.0
C229 C 0.3226 0.44727 0.32858 0.0
C230 C 0.37324 0.40161 0.32843 0.0
C231 C 0.44076 0.38889 0.6218 0.0
C232 C 0.36733 0.39406 0.44447 0.0
C233 C 0.31436 0.27207 0.45618 0.0
C234 C 0.34712 0.26272 0.4537 0.0
C235 C 0.37571 0.4542 0.60077 0.0
C236 C 0.40237 0.38121 0.90431 0.0
C237 C 0.40159 0.3695 0.01943 0.0
C238 C 0.42097 0.34193 1.00905 0.0
C239 C 0.42128 0.35315 0.89384 0.0
C240 C 0.39222 0.38906 0.96706 0.0
C241 C 0.43057 0.33366 0.94624 0.0
C242 C 0.32155 0.39228 0.68872 0.0
C243 C 0.39734 0.40516 0.85292 0.0
H244 H 0.32106 0.44017 0.22536 0.0
H245 H 0.32686 0.44659 0.43239 0.0
H246 H 0.3031 0.46501 0.32846 0.0
H247 H 0.39198 0.38294 0.3284 0.0
H248 H 0.42868 0.32694 0.04951 0.0
H249 H 0.42979 0.34701 0.84567 0.0
H250 H 0.3781 0.41102 0.97552 0.0
H251 H 0.44569 0.31245 0.93832 0.0
Tb252 Tb 0.87091 0.15093 0.97811 0.0
C253 C 0.93239 0.05207 0.80613 0.0
N254 N 0.9418 0.08359 0.81334 0.0
C255 C 0.99598 0.06626 0.83923 0.0
C256 C 0.95429 0.02627 0.81742 0.0
C257 C 0.97359 0.09095 0.82544 0.0
C258 C 0.9864 0.03374 0.83477 0.0
C259 C 0.88845 1.01368 0.78923 0.0
C260 C 0.8999 0.04589 0.79295 0.0
C261 C 0.90974 0.98794 0.80382 0.0
C262 C 0.94276 0.9941 0.81629 0.0
Tb263 Tb 0.90134 0.12169 0.80793 0.0
N264 N 0.87933 0.07161 0.78603 0.0
C265 C 0.85594 1.00844 0.77149 0.0
C266 C 0.84869 0.06668 0.76239 0.0
C267 C 0.83627 0.0351 0.75582 0.0
H268 H 0.98191 0.1158 0.82471 0.0
H269 H 0.81166 0.03136 0.73827 0.0
H270 H 0.80725 0.18624 0.89988 0.0
H271 H 0.95482 0.1808 0.16922 0.0
H272 H 0.83436 0.08692 0.74591 0.0
H273 H 0.84625 0.98399 0.76723 0.0
H274 H 0.93543 0.15119 0.07628 0.0
H275 H 0.02077 0.07235 0.85227 0.0
H276 H 0.90074 0.96329 0.80713 0.0
H277 H 0.95891 0.97393 0.82713 0.0
H278 H 0.78398 0.23819 0.8837 0.0
H279 H 1.00389 1.01466 0.84512 0.0
H280 H 0.92925 0.23063 0.20807 0.0
N281 N 0.84408 0.19978 0.96608 0.0
C282 C 0.85412 0.22315 1.00767 0.0
C283 C 0.80322 0.23565 0.91951 0.0
C284 C 0.83375 0.25936 1.01052 0.0
C285 C 0.81794 0.20529 0.92682 0.0
C286 C 0.81115 0.26239 0.95745 0.0
N287 N 0.89734 0.18395 0.05071 0.0
C288 C 0.92348 0.17396 0.08703 0.0
C289 C 0.8941 0.23315 0.13122 0.0
C290 C 0.88195 0.21231 0.06351 0.0
C291 C 0.91962 0.21892 0.16496 0.0
C292 C 0.93441 0.19067 0.14223 0.0
H293 H 0.79734 0.28406 0.94588 0.0
H294 H 0.84062 0.31914 0.13158 0.0
H295 H 0.86628 0.28493 0.14214 0.0
O296 O 0.87995 0.12382 0.06258 0.0
O297 O 0.89582 0.18884 0.92204 0.0
O298 O 0.88161 0.17234 0.81956 0.0
O299 O 0.83733 0.15541 0.05506 0.0
O300 O 0.92321 0.13559 0.96755 0.0
O301 O 0.93755 0.14926 0.86316 0.0
O302 O 0.89062 0.11646 0.70743 0.0
O303 O 0.90433 0.08829 0.89557 0.0
O304 O 0.85854 0.10159 0.94849 0.0
O305 O 0.93442 0.14119 0.74124 0.0
O306 O 0.85015 0.13531 0.8053 0.0
O307 O 0.8296 0.13572 0.91083 0.0
C308 C 0.89117 0.19541 0.86037 0.0
C309 C 0.84266 0.12221 0.15087 0.0
C310 C 0.84761 0.11276 0.26738 0.0
C311 C 0.82215 0.09003 0.26301 0.0
C312 C 0.81693 0.10002 0.14748 0.0
C313 C 0.80683 0.0839 0.20349 0.0
C314 C 0.85777 0.12882 0.21079 0.0
C315 C 0.94531 0.14457 0.92432 0.0
C316 C 0.85574 0.13758 0.09276 0.0
C317 C 0.8516 0.29265 0.11535 0.0
C318 C 0.88178 0.26987 0.15867 0.0
C319 C 0.88176 0.08056 0.93855 0.0
C320 C 0.92549 0.14087 0.62455 0.0
C321 C 0.91468 0.14118 0.50778 0.0
C322 C 0.94137 0.16207 0.49932 0.0
C323 C 0.9503 0.1637 0.61459 0.0
C324 C 0.90728 0.12969 0.57057 0.0
C325 C 0.95904 0.17321 0.55247 0.0
C326 C 0.82575 0.13491 0.84605 0.0
C327 C 0.91609 0.13332 0.69193 0.0
H328 H 0.81375 0.07741 0.30586 0.0
H329 H 0.80498 0.09494 0.10164 0.0
H330 H 0.78706 0.06653 0.20077 0.0
H331 H 0.87786 0.14598 0.21308 0.0
H332 H 0.94795 0.17062 0.45145 0.0
H333 H 0.96171 0.17577 0.65504 0.0
H334 H 0.88658 0.11372 0.57758 0.0
H335 H 0.9787 0.1904 0.54574 0.0
Tb336 Tb 0.13165 0.40701 0.8052 0.0
C337 C 0.23501 0.35985 0.97381 0.0
N338 N 0.20566 0.34661 0.95791 0.0
C339 C 0.23196 0.29677 0.92743 0.0
C340 C 0.26407 0.34193 0.96674 0.0
C341 C 0.20371 0.31483 0.93881 0.0
C342 C 0.26226 0.31008 0.94275 0.0
C343 C 0.26572 0.40662 1.01103 0.0
C344 C 0.23576 0.39202 0.99438 0.0
C345 C 0.29479 0.38898 1.0036 0.0
C346 C 0.29397 0.35672 0.98145 0.0
Tb347 Tb 0.16134 0.37901 0.97598 0.0
N348 N 0.2071 0.40848 1.00056 0.0
C349 C 0.26551 0.43815 0.03665 0.0
C350 C 0.20672 0.43764 0.03227 0.0
C351 C 0.2358 0.45344 0.04869 0.0
H352 H 0.18058 0.30303 0.93379 0.0
H353 H 0.23522 0.47696 0.07246 0.0
H354 H 0.13675 0.48833 0.7984 0.0
H355 H 0.04134 0.3238 0.71354 0.0
H356 H 0.18408 0.44787 0.04859 0.0
H357 H 0.288 0.45018 0.0503 0.0
H358 H 0.09435 0.33935 0.75964 0.0
H359 H 0.23026 0.27216 0.90884 0.0
H360 H 0.318 0.40004 1.01542 0.0
H361 H 0.31658 0.34343 0.97566 0.0
H362 H 0.10045 0.53387 0.77199 0.0
H363 H 0.28405 0.29566 0.93559 0.0
H364 H 1.00063 0.36617 0.6886 0.0
N365 N 0.09984 0.45194 0.78773 0.0
C366 C 0.06923 0.44554 0.7652 0.0
C367 C 0.09125 0.50918 0.7706 0.0
C368 C 0.04891 0.47086 0.74266 0.0
C369 C 0.11148 0.4832 0.78768 0.0
C370 C 0.05975 0.50301 0.74825 0.0
N371 N 0.08175 0.38943 0.77154 0.0
C372 C 0.07601 0.35783 0.75326 0.0
C373 C 0.03032 0.40561 0.72527 0.0
C374 C 0.06001 0.41324 0.75637 0.0
C375 C 0.0231 0.37295 0.71238 0.0
C376 C 0.04613 0.34896 0.72605 0.0
H377 H 0.04456 0.52313 0.73258 0.0
H378 H 1.00346 0.48244 0.69401 0.0
H379 H 0.98758 0.42539 0.67783 0.0
O380 O 0.16038 0.38542 0.73078 0.0
O381 O 0.09372 0.38607 0.86577 0.0
O382 O 0.10799 0.39286 0.97345 0.0
O383 O 0.12705 0.42445 0.71081 0.0
O384 O 0.14384 0.35387 0.8189 0.0
O385 O 0.1324 0.3426 0.92601 0.0
O386 O 0.16924 0.38528 0.07605 0.0
O387 O 0.19225 0.377 0.88526 0.0
O388 O 0.1798 0.42342 0.83399 0.0
O389 O 0.15313 0.33939 0.03825 0.0
O390 O 0.14 0.42779 0.98013 0.0
O391 O 0.14566 0.44744 0.87547 0.0
C392 C 0.08563 0.39015 0.92661 0.0
C393 C 0.1659 0.41529 0.6313 0.0
C394 C 0.17212 0.41506 0.51373 0.0
C395 C 0.19176 0.44299 0.51867 0.0
C396 C 0.18393 0.44415 0.63504 0.0
C397 C 0.19767 0.45735 0.57913 0.0
C398 C 0.1601 0.40082 0.57075 0.0
C399 C 0.13548 0.33318 0.86549 0.0
C400 C 0.14696 0.40355 0.68629 0.0
C401 C 0.01923 0.4633 0.71207 0.0
C402 C 1.00998 0.43079 0.70348 0.0
C403 C 0.20125 0.40082 0.84609 0.0
C404 C 0.14006 0.35179 0.14817 0.0
C405 C 0.13279 0.36086 0.26482 0.0
C406 C 0.10819 0.33693 0.26423 0.0
C407 C 0.11492 0.32872 0.14893 0.0
C408 C 0.14845 0.36828 0.2059 0.0
C409 C 0.09909 0.32146 0.20667 0.0
C410 C 0.14079 0.4521 0.9389 0.0
C411 C 0.16046 0.3559 0.09016 0.0
H412 H 0.20124 0.45462 0.47562 0.0
H413 H 0.18604 0.45723 0.68037 0.0
H414 H 0.21171 0.47959 0.58229 0.0
H415 H 0.14477 0.37934 0.56778 0.0
H416 H 0.09633 0.32939 0.30847 0.0
H417 H 0.10809 0.31554 0.1054 0.0
H418 H 0.16763 0.38638 0.20478 0.0
H419 H 0.08023 0.30307 0.20717 0.0
Tb420 Tb 0.89656 0.9138 0.21934 0.0
C421 C 0.80264 0.8547 0.03032 0.0
N422 N 0.83362 0.84438 0.04193 0.0
C423 C 0.81867 0.78984 1.01406 0.0
C424 C 0.77803 0.83241 1.01298 0.0
C425 C 0.84169 0.81215 0.03628 0.0
C426 C 0.78651 0.79974 1.00387 0.0
C427 C 0.76386 0.89917 0.02265 0.0
C428 C 0.79573 0.88795 0.03372 0.0
C429 C 0.73912 0.87688 1.00861 0.0
C430 C 0.74611 0.84362 1.00291 0.0
Tb431 Tb 0.87014 0.8854 0.05506 0.0
N432 N 0.82027 0.90926 0.04738 0.0
C433 C 0.75783 0.93263 0.02428 0.0
C434 C 0.8147 0.94198 0.04482 0.0
C435 C 0.78341 0.95416 0.03489 0.0
H436 H 0.86662 0.80422 0.04212 0.0
H437 H 0.77923 0.98019 0.03344 0.0
H438 H 0.89172 0.99558 0.2259 0.0
H439 H 0.99347 0.82952 0.2777 0.0
H440 H 0.83396 0.95901 0.04737 0.0
H441 H 0.73382 0.94211 1.01477 0.0
H442 H 0.94057 0.84511 0.23326 0.0
H443 H 0.82596 0.76513 1.00358 0.0
H444 H 0.7147 0.88558 1.001 0.0
H445 H 0.72676 0.82685 0.99006 0.0
H446 H 0.92596 0.04019 0.26621 0.0
H447 H 0.76858 0.7821 0.98781 0.0
H448 H 0.02978 0.87137 0.3249 0.0
N449 N 0.92705 0.95854 0.24547 0.0
C450 C 0.95684 0.95167 0.27144 0.0
C451 C 0.93497 0.01541 0.2677 0.0
C452 C 0.97599 0.97634 0.29994 0.0
C453 C 0.91593 0.98999 0.2432 0.0
C454 C 0.96497 1.00855 0.29674 0.0
N455 N 0.9475 0.89605 0.24708 0.0
C456 C 0.95638 0.86401 0.25018 0.0
C457 C 0.99705 0.91121 0.30278 0.0
C458 C 0.96717 0.91942 0.27306 0.0
C459 C 1.00685 0.8786 0.3031 0.0
C460 C 0.98644 0.85492 0.27651 0.0
H461 H 0.97923 0.02823 0.31738 0.0
H462 H 0.02 0.98662 0.35468 0.0
H463 H 0.03849 0.92965 0.35692 0.0
O464 O 0.87839 0.88611 0.29824 0.0
O465 O 0.93737 0.9133 0.15061 0.0
O466 O 0.92325 0.87546 0.07242 0.0
O467 O 0.89503 0.93569 0.30983 0.0
O468 O 0.88413 0.86015 0.20778 0.0
O469 O 0.89644 0.84653 0.10274 0.0
O470 O 0.87601 0.91022 0.9655 0.0
O471 O 0.8339 0.88211 0.14022 0.0
O472 O 0.84613 0.92701 0.1987 0.0
O473 O 0.86925 0.85865 0.96919 0.0
O474 O 0.89389 0.93345 0.05682 0.0
O475 O 0.87728 0.95309 0.15399 0.0
C476 C 0.94539 0.89312 0.10389 0.0
C477 C 0.86339 0.91595 0.39329 0.0
C478 C 0.86374 0.91907 0.51044 0.0
C479 C 0.84163 0.94515 0.50695 0.0
C480 C 0.83935 0.94017 0.3903 0.0
C481 C 0.82837 0.95462 0.44741 0.0
C482 C 0.87427 0.90432 0.45321 0.0
C483 C 0.89045 0.8379 0.16246 0.0
C484 C 0.88448 0.90986 0.33853 0.0
C485 C 1.00516 0.96805 0.33172 0.0
C486 C 0.01574 0.9356 0.33286 0.0
C487 C 0.82535 0.90382 0.18539 0.0
C488 C 0.89697 0.87773 0.87919 0.0
C489 C 0.9058 0.87671 0.76276 0.0
C490 C 0.9326 0.85602 0.77181 0.0
C491 C 0.92445 0.85778 0.88801 0.0
C492 C 0.88815 0.88769 0.81663 0.0
C493 C 0.94213 0.84698 0.83435 0.0
C494 C 0.88829 0.95845 0.09459 0.0
C495 C 0.87397 0.88337 0.93209 0.0
H496 H 0.83448 0.958 0.55038 0.0
H497 H 0.83113 0.9496 0.34399 0.0
H498 H 0.81074 0.9742 0.44536 0.0
H499 H 0.89327 0.88592 0.45515 0.0
H500 H 0.94629 0.8472 0.73055 0.0
H501 H 0.9314 0.8495 0.936 0.0
H502 H 0.86667 0.90273 0.80954 0.0
H503 H 0.96289 0.83108 0.84116 0.0
Tb504 Tb 0.36967 0.64535 0.47843 0.0
C505 C 0.41632 0.54495 0.30463 0.0
N506 N 0.42959 0.5734 0.32563 0.0
C507 C 0.47914 0.5458 0.35352 0.0
C508 C 0.43464 0.51597 0.30532 0.0
C509 C 0.4613 0.57447 0.34569 0.0
C510 C 0.46604 0.51644 0.3319 0.0
C511 C 0.37074 0.51649 0.25607 0.0
C512 C 0.38408 0.545 0.28309 0.0
C513 C 0.3901 0.48848 0.25119 0.0
C514 C 0.42143 0.48774 0.27802 0.0
Tb515 Tb 0.39748 0.61782 0.31007 0.0
N516 N 0.36673 0.57335 0.28437 0.0
C517 C 0.33897 0.5174 0.23149 0.0
C518 C 0.33649 0.57461 0.25644 0.0
C519 C 0.32167 0.54654 0.2322 0.0
H520 H 0.47334 0.59722 0.35351 0.0
H521 H 0.29769 0.54786 0.21029 0.0
H522 H 0.28773 0.64146 0.48075 0.0
H523 H 0.45385 0.73571 0.56701 0.0
H524 H 0.32495 0.59741 0.24623 0.0
H525 H 0.328 0.49618 0.20932 0.0
H526 H 0.43807 0.68332 0.51951 0.0
H527 H 0.50368 0.54663 0.37285 0.0
H528 H 0.38134 0.46767 0.22488 0.0
H529 H 0.4357 0.46562 0.27566 0.0
H530 H 0.24269 0.67773 0.50931 0.0
H531 H 0.48064 0.49449 0.33442 0.0
H532 H 0.41154 0.77526 0.59816 0.0
N533 N 0.32481 0.67715 0.49764 0.0
C534 C 0.33144 0.70719 0.52276 0.0
C535 C 0.26753 0.68641 0.51279 0.0
C536 C 0.30628 0.72743 0.54599 0.0
C537 C 0.29332 0.6662 0.49457 0.0
C538 C 0.27401 0.71716 0.53859 0.0
N539 N 0.38751 0.69507 0.51285 0.0
C540 C 0.41943 0.70114 0.5284 0.0
C541 C 0.3717 0.74564 0.56307 0.0
C542 C 0.36379 0.71625 0.53136 0.0
C543 C 0.40451 0.75307 0.57382 0.0
C544 C 0.42848 0.73069 0.55661 0.0
H545 H 0.25401 0.73232 0.5547 0.0
H546 H 0.29508 0.77251 0.5961 0.0
H547 H 0.35235 0.78831 0.61131 0.0
O548 O 0.39408 0.61956 0.55423 0.0
O549 O 0.38538 0.68642 0.41913 0.0
O550 O 0.38993 0.67189 0.31082 0.0
O551 O 0.35036 0.64737 0.57106 0.0
O552 O 0.42287 0.63278 0.46554 0.0
O553 O 0.43501 0.64581 0.36007 0.0
O554 O 0.38828 0.61223 0.21011 0.0
O555 O 0.3994 0.58458 0.39922 0.0
O556 O 0.35316 0.5969 0.45103 0.0
O557 O 0.43631 0.62297 0.24462 0.0
O558 O 0.34926 0.64142 0.30858 0.0
O559 O 0.32966 0.62877 0.40927 0.0
C560 C 0.38849 0.69402 0.35779 0.0
C561 C 0.36553 0.61323 0.65541 0.0
C562 C 0.36447 0.61651 0.7732 0.0
C563 C 0.33546 0.59847 0.77273 0.0
C564 C 0.3379 0.59327 0.65594 0.0
C565 C 0.32297 0.58587 0.71469 0.0
C566 C 0.37955 0.62372 0.7141 0.0
C567 C 0.44408 0.64209 0.42071 0.0
C568 C 0.374 0.63121 0.59721 0.0
C569 C 0.31409 0.75672 0.57776 0.0
C570 C 0.34671 0.76582 0.58615 0.0
C571 C 0.37555 0.57532 0.43834 0.0
C572 C 0.42183 0.64155 0.13916 0.0
C573 C 0.41475 0.65337 0.02404 0.0
C574 C 0.43244 0.68224 0.03206 0.0
C575 C 0.43901 0.6709 0.14662 0.0
C576 C 0.40931 0.63307 0.07769 0.0
C577 C 0.44432 0.69102 0.09318 0.0
C578 C 0.32446 0.63688 0.34745 0.0
C579 C 0.41793 0.61882 0.19377 0.0
H580 H 0.32292 0.59334 0.81767 0.0
H581 H 0.32664 0.58545 0.61089 0.0
H582 H 0.30109 0.5712 0.71514 0.0
H583 H 0.40057 0.63974 0.71356 0.0
H584 H 0.43696 0.69799 0.99098 0.0
H585 H 0.44867 0.67812 0.19345 0.0
H586 H 0.39584 0.61055 0.07139 0.0
H587 H 0.4579 0.71341 0.09908 0.0
Tb588 Tb 0.66123 0.15162 0.56721 0.0
C589 C 0.60379 0.04713 0.72833 0.0
N590 N 0.59246 0.07789 0.71878 0.0
C591 C 0.53924 0.05691 0.69583 0.0
C592 C 0.58312 0.01997 0.72208 0.0
C593 C 0.56022 0.08311 0.70668 0.0
C594 C 0.55058 0.02516 0.70441 0.0
C595 C 0.64921 1.01171 0.75427 0.0
C596 C 0.63662 0.04303 0.74223 0.0
C597 C 0.62878 0.98451 0.74799 0.0
C598 C 0.59581 0.9886 0.73183 0.0
Tb599 Tb 0.63021 0.11835 0.72949 0.0
N600 N 0.65596 0.06988 0.74576 0.0
C601 C 0.68167 1.00883 0.77436 0.0
C602 C 0.68612 0.06741 0.77284 0.0
C603 C 0.69996 0.03694 0.78542 0.0
H604 H 0.55033 0.10737 0.70726 0.0
H605 H 0.72427 0.03524 0.80569 0.0
H606 H 0.7424 0.14734 0.56178 0.0
H607 H 0.56719 0.24293 0.5466 0.0
H608 H 0.69853 0.08887 0.78913 0.0
H609 H 0.69222 0.98522 0.78485 0.0
H610 H 0.5891 0.19116 0.56379 0.0
H611 H 0.51402 0.0613 0.68316 0.0
H612 H 0.63831 0.96024 0.75577 0.0
H613 H 0.58033 0.96737 0.72707 0.0
H614 H 0.78695 0.177 0.51452 0.0
H615 H 0.53397 1.00492 0.698 0.0
H616 H 0.5971 0.28644 0.50579 0.0
N617 N 0.70603 0.18316 0.54441 0.0
C618 C 0.69893 0.21325 0.52135 0.0
C619 C 0.76302 0.18808 0.514 0.0
C620 C 0.72872 0.2325 0.47798 0.0
C621 C 0.73725 0.17141 0.5436 0.0
C622 C 0.75881 0.21722 0.48026 0.0
N623 N 0.63905 0.20275 0.55531 0.0
C624 C 0.60648 0.20924 0.55472 0.0
C625 C 0.645 0.26026 0.49964 0.0
C626 C 0.66006 0.22509 0.53202 0.0
C627 C 0.61128 0.26484 0.51562 0.0
C628 C 0.59321 0.23957 0.54081 0.0
H629 H 0.77947 0.22808 0.45612 0.0
H630 H 0.74683 0.27715 0.41061 0.0
H631 H 0.69039 0.31182 0.40366 0.0
O632 O 0.63499 0.13589 0.48351 0.0
O633 O 0.66291 0.18818 0.64553 0.0
O634 O 0.62322 0.17241 0.7184 0.0
O635 O 0.68321 0.15512 0.477 0.0
O636 O 0.60851 0.1363 0.57523 0.0
O637 O 0.59399 0.14723 0.68029 0.0
O638 O 0.64808 0.121 0.82513 0.0
O639 O 0.62991 0.08573 0.63978 0.0
O640 O 0.67436 0.10056 0.58189 0.0
O641 O 0.59683 0.11624 0.80592 0.0
O642 O 0.67952 0.13901 0.73193 0.0
O643 O 0.69972 0.12901 0.63009 0.0
C644 C 0.64242 0.19498 0.69254 0.0
C645 C 0.66755 0.12247 0.39132 0.0
C646 C 0.66653 0.11342 0.27475 0.0
C647 C 0.69176 0.09048 0.28163 0.0
C648 C 0.69369 0.10068 0.39702 0.0
C649 C 0.70514 0.0841 0.34264 0.0
C650 C 0.65403 0.12876 0.33027 0.0
C651 C 0.58592 0.14124 0.62018 0.0
C652 C 0.65875 0.14389 0.445 0.0
C653 C 0.72572 0.26782 0.43562 0.0
C654 C 0.69025 0.28934 0.43211 0.0
C655 C 0.65203 0.07878 0.59492 0.0
C656 C 0.61251 0.1403 0.90524 0.0
C657 C 0.61719 0.14949 0.02163 0.0
C658 C 0.5945 0.17509 1.01603 0.0
C659 C 0.59134 0.16689 0.89994 0.0
C660 C 0.62608 0.13227 0.9655 0.0
C661 C 0.582 0.1839 0.95542 0.0
C662 C 0.70427 0.13459 0.69295 0.0
C663 C 0.61924 0.11896 0.85017 0.0
H664 H 0.70207 0.0785 0.23963 0.0
H665 H 0.7063 0.09787 0.44279 0.0
H666 H 0.72535 0.06731 0.34738 0.0
H667 H 0.63473 0.14669 0.32575 0.0
H668 H 0.58612 0.18815 0.05845 0.0
H669 H 0.58182 0.17415 0.85315 0.0
H670 H 0.64341 0.11237 0.96835 0.0
H671 H 0.56477 0.20377 0.95157 0.0
Tb672 Tb 0.89956 0.41238 0.81035 0.0
C673 C 0.82946 0.31809 0.02009 0.0
N674 N 0.82267 0.34812 0.99645 0.0
C675 C 0.76555 0.34381 0.02655 0.0
C676 C 0.79935 0.29917 0.06321 0.0
C677 C 0.79153 0.36014 0.99695 0.0
C678 C 0.7694 0.31471 0.06052 0.0
C679 C 0.88284 0.27052 0.04244 0.0
C680 C 0.8682 0.30581 1.00971 0.0
C681 C 0.83708 0.24195 0.1095 0.0
C682 C 0.80186 0.26384 0.10561 0.0
Tb683 Tb 0.86783 0.37899 0.97245 0.0
N684 N 0.88935 0.32758 0.98489 0.0
C685 C 0.91654 0.26556 0.02687 0.0
C686 C 0.92181 0.32048 0.98416 0.0
C687 C 0.93479 0.29028 1.0001 0.0
H688 H 0.7866 0.38422 0.97853 0.0
H689 H 0.9607 0.28644 0.99367 0.0
H690 H 0.97979 0.42135 0.83448 0.0
H691 H 0.80873 0.49847 0.73254 0.0
H692 H 0.93935 0.33775 0.97097 0.0
H693 H 0.93055 0.24394 0.03752 0.0
H694 H 0.83291 0.44405 0.74944 0.0
H695 H 0.74174 0.35512 0.02573 0.0
H696 H 0.8366 0.21947 0.13793 0.0
H697 H 0.78057 0.25473 0.13036 0.0
H698 H 0.01674 0.46604 0.86384 0.0
H699 H 0.74858 0.30407 0.0845 0.0
H700 H 0.84208 0.54754 0.7545 0.0
N701 N 0.93839 0.45185 0.82315 0.0
C702 C 0.92807 0.48299 0.81406 0.0
C703 C 0.9918 0.47123 0.85015 0.0
C704 C 0.94939 0.50954 0.82215 0.0
C705 C 0.97036 0.44572 0.83657 0.0
C706 C 0.98143 0.50334 0.84201 0.0
N707 N 0.87558 0.46179 0.79406 0.0
C708 C 0.8457 0.46517 0.76627 0.0
C709 C 0.88406 0.5198 0.78635 0.0
C710 C 0.89559 0.48809 0.79875 0.0
C711 C 0.85186 0.52362 0.76518 0.0
C712 C 0.83283 0.49605 0.75351 0.0
H713 H 0.99847 0.52307 0.85009 0.0
H714 H 0.95388 0.56204 0.8173 0.0
H715 H 0.89687 0.57098 0.78404 0.0
O716 O 0.88221 0.41083 0.71435 0.0
O717 O 0.89984 0.44442 0.90024 0.0
O718 O 0.85485 0.4299 0.95649 0.0
O719 O 0.93347 0.41314 0.73469 0.0
O720 O 0.84949 0.39319 0.8058 0.0
O721 O 0.82895 0.4008 0.90851 0.0
O722 O 0.89448 0.39394 0.05611 0.0
O723 O 0.8657 0.34264 0.89427 0.0
O724 O 0.90551 0.35831 0.82151 0.0
O725 O 0.84553 0.37667 0.06267 0.0
O726 O 0.9211 0.39366 0.96567 0.0
O727 O 0.93496 0.3828 0.86048 0.0
C728 C 0.87738 0.4515 0.94409 0.0
C729 C 0.91696 0.38947 0.6353 0.0
C730 C 0.91114 0.37926 0.51938 0.0
C731 C 0.93105 0.35153 0.52622 0.0
C732 C 0.93573 0.36118 0.64178 0.0
C733 C 0.943 0.34248 0.58715 0.0
C734 C 0.90413 0.398 0.57464 0.0
C735 C 0.82457 0.39626 0.84507 0.0
C736 C 0.91123 0.41145 0.68989 0.0
C737 C 0.93782 0.54129 0.81169 0.0
C738 C 0.90529 0.5464 0.79326 0.0
C739 C 0.88594 0.33595 0.84686 0.0
C740 C 0.86287 0.40827 0.14892 0.0
C741 C 0.86499 0.41757 0.26535 0.0
C742 C 0.84171 0.44247 0.2585 0.0
C743 C 0.83837 0.43186 0.14338 0.0
C744 C 0.87597 0.401 0.20995 0.0
C745 C 0.8285 0.44953 0.19764 0.0
C746 C 0.94363 0.38888 0.92036 0.0
C747 C 0.87051 0.38673 0.09471 0.0
H748 H 0.93776 0.33704 0.48444 0.0
H749 H 0.94502 0.35383 0.68877 0.0
H750 H 0.95822 0.32108 0.5919 0.0
H751 H 0.88874 0.4194 0.57075 0.0
H752 H 0.83271 0.45549 0.30048 0.0
H753 H 0.82582 0.43534 0.09783 0.0
H754 H 0.89378 0.38159 0.21458 0.0
H755 H 0.80966 0.46784 0.19294 0.0
Tb756 Tb 0.37011 0.15104 0.56317 0.0
C757 C 0.45881 0.08056 0.7738 0.0
N758 N 0.42922 0.07366 0.74706 0.0
C759 C 0.43885 0.0165 0.76169 0.0
C760 C 0.47867 0.05563 0.79917 0.0
C761 C 0.41902 0.04208 0.74062 0.0
C762 C 0.46863 0.02329 0.79172 0.0
C763 C 0.498 0.12102 0.80964 0.0
C764 C 0.46833 0.11295 0.77899 0.0
C765 C 0.51735 0.09633 0.83678 0.0
C766 C 0.50769 0.06373 0.83169 0.0
Tb767 Tb 0.39741 0.11812 0.72707 0.0
N768 N 0.448 0.13654 0.75599 0.0
C769 C 0.50683 0.15377 0.81426 0.0
C770 C 0.45596 0.16864 0.764 0.0
C771 C 0.48579 0.17767 0.79114 0.0
H772 H 0.39501 0.03639 0.72241 0.0
H773 H 0.492 0.20317 0.79636 0.0
H774 H 0.35752 0.23015 0.58886 0.0
H775 H 0.29237 0.05712 0.46891 0.0
H776 H 0.4395 0.18777 0.75194 0.0
H777 H 0.52927 0.16091 0.83749 0.0
H778 H 0.3442 0.08218 0.49996 0.0
H779 H 0.43064 0.99157 0.75676 0.0
H780 H 0.53984 0.10218 0.8618 0.0
H781 H 0.52311 0.04492 0.85218 0.0
H782 H 0.31022 0.26584 0.60635 0.0
H783 H 0.48352 1.00342 0.8096 0.0
H784 H 0.24247 0.08979 0.4744 0.0
N785 N 0.32905 0.18781 0.57233 0.0
C786 C 0.29897 0.17614 0.55751 0.0
C787 C 0.30664 0.2406 0.59298 0.0
C788 C 0.27145 0.19654 0.55935 0.0
C789 C 0.33344 0.22 0.58587 0.0
C790 C 0.27546 0.22894 0.57898 0.0
N791 N 0.32305 0.12424 0.54128 0.0
C792 C 0.32211 0.09429 0.5129 0.0
C793 C 0.26585 0.13122 0.51971 0.0
C794 C 0.29599 0.14342 0.54091 0.0
C795 C 0.26452 0.09947 0.49515 0.0
C796 C 0.29279 0.08091 0.49162 0.0
H797 H 0.25483 0.24534 0.58177 0.0
H798 H 0.21956 0.19933 0.54101 0.0
H799 H 0.21558 0.14272 0.50291 0.0
O800 O 0.37168 0.13508 0.4663 0.0
O801 O 0.33575 0.15183 0.65066 0.0
O802 O 0.34764 0.10482 0.7018 0.0
O803 O 0.37145 0.186 0.48879 0.0
O804 O 0.3925 0.10218 0.56028 0.0
O805 O 0.37739 0.08069 0.65778 0.0
O806 O 0.3788 0.14331 0.80973 0.0
O807 O 0.43783 0.11966 0.65821 0.0
O808 O 0.42367 0.15654 0.57768 0.0
O809 O 0.39613 0.09375 0.81494 0.0
O810 O 0.38511 0.1716 0.71871 0.0
O811 O 0.39841 0.18706 0.61513 0.0
C812 C 0.3267 0.12808 0.69045 0.0
C813 C 0.39447 0.16959 0.38852 0.0
C814 C 0.40542 0.16327 0.27327 0.0
C815 C 0.43318 0.18284 0.28018 0.0
C816 C 0.42296 0.18812 0.39539 0.0
C817 C 0.44205 0.19493 0.34117 0.0
C818 C 0.38614 0.15661 0.32759 0.0
C819 C 0.3868 0.07667 0.59669 0.0
C820 C 0.37228 0.1643 0.44295 0.0
C821 C 0.24106 0.18401 0.54094 0.0
C822 C 0.23854 0.15164 0.52004 0.0
C823 C 0.44541 0.13882 0.60974 0.0
C824 C 0.36722 0.11146 0.90539 0.0
C825 C 0.3693 0.11091 0.02346 0.0
C826 C 0.3504 0.08244 0.02279 0.0
C827 C 0.34604 0.08473 0.90594 0.0
C828 C 0.37769 0.12539 0.96421 0.0
C829 C 0.33781 0.07021 0.96461 0.0
C830 C 0.39326 0.19432 0.67594 0.0
C831 C 0.38589 0.11873 0.84719 0.0
H832 H 0.44815 0.18839 0.23853 0.0
H833 H 0.43025 0.1975 0.44236 0.0
H834 H 0.46371 0.2097 0.34637 0.0
H835 H 0.36435 0.14188 0.32216 0.0
H836 H 0.3443 0.07028 0.06769 0.0
H837 H 0.33791 0.07366 0.86094 0.0
H838 H 0.39443 0.14583 0.96376 0.0
H839 H 0.32235 0.04888 0.96497 0.0
Tb840 Tb 0.6325 0.61909 0.30936 0.0
C841 C 0.69824 0.70667 0.52502 0.0
N842 N 0.70632 0.67823 0.49535 0.0
C843 C 0.76315 0.68997 0.51152 0.0
C844 C 0.72239 0.72733 0.55118 0.0
C845 C 0.73843 0.66986 0.48759 0.0
C846 C 0.75512 0.71866 0.54402 0.0
C847 C 0.65643 0.74472 0.55893 0.0
C848 C 0.66557 0.71498 0.52975 0.0
C849 C 0.68034 0.76496 0.58631 0.0
C850 C 0.7132 0.75605 0.5833 0.0
Tb851 Tb 0.66327 0.64433 0.47434 0.0
N852 N 0.64284 0.69396 0.50586 0.0
C853 C 0.62346 0.75298 0.56095 0.0
C854 C 0.61048 0.70148 0.51094 0.0
C855 C 0.60041 0.73128 0.53668 0.0
H856 H 0.74531 0.6467 0.46706 0.0
H857 H 0.57473 0.73708 0.53945 0.0
H858 H 0.55116 0.61729 0.30199 0.0
H859 H 0.72514 0.52643 0.28227 0.0
H860 H 0.59185 0.68479 0.49727 0.0
H861 H 0.61552 0.77571 0.58234 0.0
H862 H 0.70511 0.5797 0.31392 0.0
H863 H 0.78841 0.68284 0.50647 0.0
H864 H 0.67369 0.78756 0.60996 0.0
H865 H 0.7314 0.77205 0.60429 0.0
H866 H 0.5109 0.57931 0.25726 0.0
H867 H 0.77435 0.73397 0.56331 0.0
H868 H 0.68644 0.48469 0.24392 0.0
N869 N 0.59062 0.5838 0.29439 0.0
C870 C 0.60029 0.55335 0.27684 0.0
C871 C 0.53556 0.57115 0.26574 0.0
C872 C 0.57746 0.53021 0.25479 0.0
C873 C 0.55849 0.59259 0.29163 0.0
C874 C 0.54481 0.53955 0.2489 0.0
N875 N 0.65513 0.56875 0.29883 0.0
C876 C 0.68767 0.56197 0.30019 0.0
C877 C 0.64404 0.51453 0.25979 0.0
C878 C 0.63341 0.54566 0.2789 0.0
C879 C 0.67736 0.50779 0.26073 0.0
C880 C 0.69925 0.53143 0.28177 0.0
H881 H 0.52673 0.52286 0.22979 0.0
H882 H 0.57093 0.48101 0.21894 0.0
H883 H 0.62931 0.46762 0.22307 0.0
O884 O 0.65601 0.62427 0.21856 0.0
O885 O 0.6281 0.58166 0.39132 0.0
O886 O 0.67309 0.59363 0.44947 0.0
O887 O 0.60402 0.62191 0.22587 0.0
O888 O 0.681 0.64148 0.30747 0.0
O889 O 0.70145 0.62607 0.40521 0.0
O890 O 0.64185 0.63305 0.56701 0.0
O891 O 0.66476 0.68501 0.40522 0.0
O892 O 0.62457 0.67216 0.33066 0.0
O893 O 0.69412 0.63346 0.55023 0.0
O894 O 0.6092 0.63128 0.46515 0.0
O895 O 0.59608 0.6462 0.36117 0.0
C896 C 0.64939 0.57337 0.43726 0.0
C897 C 0.62398 0.64977 0.13674 0.0
C898 C 0.62559 0.6615 0.02129 0.0
C899 C 0.60557 0.68879 0.03162 0.0
C900 C 0.60436 0.67734 0.14667 0.0
C901 C 0.59529 0.69677 0.09414 0.0
C902 C 0.63513 0.64243 0.07458 0.0
C903 C 0.70618 0.63675 0.34524 0.0
C904 C 0.62839 0.6253 0.18736 0.0
C905 C 0.5881 0.49909 0.2363 0.0
C906 C 0.62129 0.49138 0.23868 0.0
C907 C 0.64376 0.69369 0.3602 0.0
C908 C 0.67944 0.61872 0.65662 0.0
C909 C 0.67648 0.62389 0.77374 0.0
C910 C 0.7045 0.60449 0.77971 0.0
C911 C 0.70668 0.59828 0.66363 0.0
C912 C 0.6641 0.63143 0.71187 0.0
C913 C 0.71931 0.59154 0.72482 0.0
C914 C 0.58696 0.63886 0.41994 0.0
C915 C 0.671 0.63053 0.59187 0.0
H916 H 0.59725 0.70352 0.99131 0.0
H917 H 0.59508 0.6831 0.19446 0.0
H918 H 0.57952 0.71756 0.10162 0.0
H919 H 0.65039 0.62113 0.06763 0.0
H920 H 0.71432 0.59855 0.82712 0.0
H921 H 0.71889 0.58835 0.6215 0.0
H922 H 0.64298 0.64713 0.70686 0.0
H923 H 0.74057 0.57613 0.72976 0.0
Tb924 Tb 0.13285 0.9105 0.22579 0.0
C925 C 0.20023 0.82164 1.0113 0.0
N926 N 0.2068 0.85152 0.03712 0.0
C927 C 0.26413 0.84224 0.0231 0.0
C928 C 0.22548 0.80134 0.98875 0.0
C929 C 0.23829 0.86239 0.04123 0.0
C930 C 0.25773 0.81156 0.99686 0.0
C931 C 0.16013 0.78317 0.97017 0.0
C932 C 0.16791 0.81266 1.00174 0.0
C933 C 0.18524 0.76289 0.94804 0.0
C934 C 0.21781 0.77202 0.95694 0.0
Tb935 Tb 0.16198 0.88334 0.05532 0.0
N936 N 0.14413 0.83387 0.0197 0.0
C937 C 0.12736 0.77575 0.95863 0.0
C938 C 0.11233 0.82794 1.00321 0.0
C939 C 0.10338 0.79839 0.97467 0.0
H940 H 0.24383 0.88706 0.05558 0.0
H941 H 0.07807 0.79348 0.96347 0.0
H942 H 0.05368 0.92316 0.2044 0.0
H943 H 0.23222 0.99212 0.28675 0.0
H944 H 0.0937 0.84586 1.0115 0.0
H945 H 0.12043 0.75326 0.93485 0.0
H946 H 0.20628 0.93897 0.27199 0.0
H947 H 0.28896 0.85089 0.0271 0.0
H948 H 0.17974 0.74035 0.92293 0.0
H949 H 0.23691 0.75621 0.93907 0.0
H950 H 0.01743 0.97029 0.19035 0.0
H951 H 0.27779 0.7964 0.98104 0.0
H952 H 0.19918 0.04231 0.27783 0.0
N953 N 0.09624 0.95181 0.21784 0.0
C954 C 0.10825 0.98203 0.23048 0.0
C955 C 0.04292 0.974 0.20163 0.0
C956 C 0.08783 1.00959 0.22856 0.0
C957 C 0.06377 0.9473 0.20708 0.0
C958 C 0.05485 1.00527 0.21331 0.0
N959 N 0.16071 0.95816 0.24167 0.0
C960 C 0.19247 0.96034 0.26091 0.0
C961 C 0.15482 0.01641 0.25404 0.0
C962 C 0.14153 0.98534 0.242 0.0
C963 C 0.18807 0.01888 0.26802 0.0
C964 C 0.20687 0.99065 0.27241 0.0
H965 H 0.03838 0.02586 0.21071 0.0
H966 H 0.08579 0.06201 0.23845 0.0
H967 H 0.14444 0.06796 0.26136 0.0
O968 O 0.14575 0.91635 0.32425 0.0
O969 O 0.12915 0.94304 0.13747 0.0
O970 O 0.17584 0.93195 0.08592 0.0
O971 O 0.09667 0.90475 0.29597 0.0
O972 O 0.18171 0.88826 0.22637 0.0
O973 O 0.2012 0.90057 0.12498 0.0
O974 O 0.13736 0.9074 0.97828 0.0
O975 O 0.14706 0.84209 0.1148 0.0
O976 O 0.13905 0.85641 0.22288 0.0
O977 O 0.18356 0.88365 0.96399 0.0
O978 O 0.10889 0.89545 0.06838 0.0
O979 O 0.0956 0.8825 0.17383 0.0
C980 C 0.15236 0.9525 0.09744 0.0
C981 C 0.11352 0.88839 0.40053 0.0
C982 C 0.11821 0.88198 0.5174 0.0
C983 C 0.10033 0.85297 0.51341 0.0
C984 C 0.09645 0.85881 0.39681 0.0
C985 C 0.08989 0.84126 0.45317 0.0
C986 C 0.12507 0.89947 0.46076 0.0
C987 C 0.20635 0.8925 0.18679 0.0
C988 C 0.11652 0.90983 0.3441 0.0
C989 C 0.10111 0.04053 0.23995 0.0
C990 C 0.1345 0.04392 0.2527 0.0
C991 C 0.14227 0.83452 0.17581 0.0
C992 C 0.16736 0.9195 0.88199 0.0
C993 C 0.16313 0.92823 0.76574 0.0
C994 C 0.18828 0.95132 0.76984 0.0
C995 C 0.19379 0.94099 0.88468 0.0
C996 C 0.152 0.91321 0.82248 0.0
C997 C 0.20336 0.9578 0.82926 0.0
C998 C 0.0873 0.88637 0.11267 0.0
C999 C 0.15938 0.89849 0.93657 0.0
H1000 H 0.09474 0.83929 0.55681 0.0
H1001 H 0.08749 0.84969 0.35073 0.0
H1002 H 0.07625 0.81876 0.45025 0.0
H1003 H 0.13826 0.92232 0.46394 0.0
H1004 H 0.19701 0.96345 0.72669 0.0
H1005 H 0.20802 0.94346 0.92852 0.0
H1006 H 0.13317 0.8947 0.81955 0.0
H1007 H 0.22353 0.97471 0.83174 0.0
Tb1008 Tb 0.86566 0.64712 0.05322 0.0
C1009 C 0.97078 0.6044 0.25135 0.0
N1010 N 0.94728 0.5943 0.20997 0.0
C1011 C 0.98316 0.55278 0.16524 0.0
C1012 C 1.00698 0.58385 0.25506 0.0
C1013 C 0.9529 0.56801 0.17098 0.0
C1014 C 1.00992 0.56066 0.20337 0.0
C1015 C 0.98186 0.64497 0.37378 0.0
C1016 C 0.96038 0.6327 0.30665 0.0
C1017 C 0.01875 0.63171 0.39976 0.0
C1018 C 0.03977 0.60267 0.35888 0.0
Tb1019 Tb 0.89847 0.62159 0.22293 0.0
N1020 N 0.93222 0.64838 0.29374 0.0
C1021 C 0.96825 0.67097 0.40686 0.0
C1022 C 0.92295 0.67504 0.32914 0.0
C1023 C 0.94013 0.68607 0.38383 0.0
H1024 H 0.93435 0.55756 0.14219 0.0
H1025 H 0.93074 0.70686 0.41016 0.0
H1026 H 0.84142 0.72223 0.08297 0.0
H1027 H 0.79905 0.54022 0.9716 0.0
H1028 H 0.90038 0.68735 0.31809 0.0
H1029 H 0.98034 0.68075 0.44942 0.0
H1030 H 0.84764 0.57401 0.98755 0.0
H1031 H 0.98565 0.53332 0.13002 0.0
H1032 H 0.02956 0.64229 0.44285 0.0
H1033 H 0.06331 0.59533 0.37934 0.0
H1034 H 0.78916 0.75082 0.10042 0.0
H1035 H 0.03152 0.54656 0.19294 0.0
H1036 H 0.74449 0.56386 0.99032 0.0
N1037 N 0.81904 0.67664 0.06392 0.0
C1038 C 0.79078 0.6607 0.05047 0.0
C1039 C 0.78938 0.72572 0.08466 0.0
C1040 C 0.76055 0.67687 0.05364 0.0
C1041 C 0.81888 0.70917 0.07731 0.0
C1042 C 0.76012 0.70976 0.07142 0.0
N1043 N 0.82219 0.61335 0.03165 0.0
C1044 C 0.82459 0.58313 1.00412 0.0
C1045 C 0.76353 0.61049 0.02139 0.0
C1046 C 0.79236 0.62781 0.03566 0.0
C1047 C 0.76604 0.57803 1.00159 0.0
C1048 C 0.79677 0.56451 0.99157 0.0
H1049 H 0.73737 0.72293 0.07582 0.0
H1050 H 0.70832 0.67158 0.04282 0.0
H1051 H 0.71091 0.61352 1.01367 0.0
O1052 O 0.85673 0.63921 0.95378 0.0
O1053 O 0.83445 0.65249 0.14298 0.0
O1054 O 0.84881 0.6077 0.19781 0.0
O1055 O 0.87632 0.68453 0.98699 0.0
O1056 O 0.889 0.59915 0.05667 0.0
O1057 O 0.88162 0.57933 0.16025 0.0
O1058 O 0.87229 0.63209 0.30753 0.0
O1059 O 0.93501 0.64674 0.16306 0.0
O1060 O 0.91884 0.63345 0.05877 0.0
O1061 O 0.90393 0.58949 0.30265 0.0
O1062 O 0.88318 0.67413 0.21015 0.0
O1063 O 0.89093 0.6872 0.10203 0.0
C1064 C 0.82725 0.63035 0.18707 0.0
C1065 C 0.89046 0.66701 0.88048 0.0
C1066 C 0.90017 0.65467 0.76579 0.0
C1067 C 0.93075 0.66989 0.77114 0.0
C1068 C 0.92135 0.6815 0.88459 0.0
C1069 C 0.94123 0.68302 0.83008 0.0
C1070 C 0.88002 0.65342 0.82097 0.0
C1071 C 0.88329 0.57473 0.09607 0.0
C1072 C 0.86825 0.66718 0.93659 0.0
C1073 C 0.7318 0.65956 0.04071 0.0
C1074 C 0.73328 0.62644 0.02463 0.0
C1075 C 0.94187 0.64175 0.10146 0.0
C1076 C 0.87091 0.59645 0.39841 0.0
C1077 C 0.86202 0.60297 0.51472 0.0
C1078 C 0.83652 0.58031 0.51082 0.0
C1079 C 0.84661 0.57267 0.39596 0.0
C1080 C 0.87906 0.61113 0.45803 0.0
C1081 C 0.82912 0.56503 0.45187 0.0
C1082 C 0.88864 0.6958 0.16337 0.0
C1083 C 0.88641 0.60857 0.33946 0.0
H1084 H 0.9465 0.67207 0.72939 0.0
H1085 H 0.93003 0.69206 0.92964 0.0
H1086 H 0.96479 0.69471 0.83336 0.0
H1087 H 0.85631 0.64188 0.8178 0.0
H1088 H 0.82297 0.57372 0.5538 0.0
H1089 H 0.84099 0.5603 0.35093 0.0
H1090 H 0.89825 0.62929 0.46013 0.0
H1091 H 0.80985 0.5471 0.44957 0.0
Tb1092 Tb 0.16105 0.14535 0.98043 0.0
C1093 C 0.07378 0.07985 0.76239 0.0
N1094 N 0.10285 0.07238 0.79066 0.0
C1095 C 0.09301 0.01546 0.7719 0.0
C1096 C 0.05408 0.05544 0.73439 0.0
C1097 C 0.11269 0.04058 0.79576 0.0
C1098 C 0.06376 0.02293 0.7405 0.0
C1099 C 0.03535 0.12109 0.72733 0.0
C1100 C 0.06455 0.11237 0.75874 0.0
C1101 C 0.01617 0.09702 0.69744 0.0
C1102 C 0.02556 0.06426 0.70081 0.0
Tb1103 Tb 0.13462 0.1166 0.8143 0.0
N1104 N 0.08457 0.13547 0.78459 0.0
C1105 C 0.02661 0.1539 0.72568 0.0
C1106 C 0.07686 0.16772 0.77885 0.0
C1107 C 0.04739 0.17734 0.75133 0.0
H1108 H 0.13638 0.03433 0.81486 0.0
H1109 H 0.04115 0.20292 0.74824 0.0
H1110 H 0.16305 0.22663 0.98915 0.0
H1111 H 0.24952 0.05207 0.02476 0.0
H1112 H 0.09316 0.1865 0.79367 0.0
H1113 H 1.00426 0.16146 0.70366 0.0
H1114 H 0.19713 0.07313 0.98948 0.0
H1115 H 0.10099 0.9904 0.77573 0.0
H1116 H 0.99381 0.10344 0.67239 0.0
H1117 H 1.01025 0.04588 0.67847 0.0
H1118 H 0.20209 0.26671 0.03039 0.0
H1119 H 0.04899 1.00344 0.72054 0.0
H1120 H 0.29189 0.09059 0.05921 0.0
N1121 N 0.19674 0.18717 0.99246 0.0
C1122 C 0.22747 0.17742 1.00801 0.0
C1123 C 0.21005 0.2421 0.0208 0.0
C1124 C 0.2511 0.20015 0.02837 0.0
C1125 C 0.18798 0.21926 0.99679 0.0
C1126 C 0.24204 0.23283 0.0345 0.0
N1127 N 0.21091 0.12255 0.99127 0.0
C1128 C 0.21618 0.08996 0.99679 0.0
C1129 C 0.26524 0.13326 0.02965 0.0
C1130 C 0.23463 0.14419 1.00806 0.0
C1131 C 0.27025 0.0998 0.03637 0.0
C1132 C 0.24597 0.078 0.01847 0.0
H1133 H 0.25914 0.25085 0.05239 0.0
H1134 H 0.30073 0.20638 0.06231 0.0
H1135 H 0.31259 0.14771 0.0647 0.0
O1136 O 0.15594 0.121 0.07038 0.0
O1137 O 0.19741 0.14859 0.89661 0.0
O1138 O 0.18459 0.10369 0.83848 0.0
O1139 O 0.16043 0.17289 0.06534 0.0
O1140 O 0.13734 0.09745 0.97804 0.0
O1141 O 0.154 0.07798 0.88063 0.0
O1142 O 0.15253 0.14286 0.73276 0.0
O1143 O 0.09345 0.11788 0.88222 0.0
O1144 O 0.10805 0.15429 0.9633 0.0
O1145 O 0.13722 0.09258 0.72613 0.0
O1146 O 0.14707 0.17011 0.8262 0.0
O1147 O 0.13385 0.18257 0.93131 0.0
C1148 C 0.20542 0.12684 0.85143 0.0
C1149 C 0.13202 0.15296 0.15357 0.0
C1150 C 0.11974 0.15235 0.26832 0.0
C1151 C 0.09177 0.17103 0.25687 0.0
C1152 C 0.10362 0.17125 0.142 0.0
C1153 C 0.08364 0.18026 0.19369 0.0
C1154 C 0.13978 0.14321 0.2167 0.0
C1155 C 0.14274 0.07266 0.9398 0.0
C1156 C 0.1563 0.1482 0.1029 0.0
C1157 C 0.28223 0.18928 0.04651 0.0
C1158 C 0.28911 0.15591 0.04774 0.0
C1159 C 0.08594 0.13707 0.93099 0.0
C1160 C 0.1652 0.112 0.63651 0.0
C1161 C 0.16134 0.11033 0.51934 0.0
C1162 C 0.18276 0.08375 0.51868 0.0
C1163 C 0.18846 0.08698 0.63525 0.0
C1164 C 0.15277 0.12463 0.57838 0.0
C1165 C 0.19722 0.07294 0.57622 0.0
C1166 C 0.13943 0.19173 0.87182 0.0
C1167 C 0.14649 0.11814 0.6948 0.0
H1168 H 0.0764 0.17851 0.29679 0.0
H1169 H 0.09755 0.17947 0.09352 0.0
H1170 H 0.06214 0.1949 0.18492 0.0
H1171 H 0.16196 0.12955 0.226 0.0
H1172 H 0.18894 0.07199 0.47329 0.0
H1173 H 0.19792 0.0768 0.67999 0.0
H1174 H 0.13445 0.14371 0.57929 0.0
H1175 H 0.21442 0.05297 0.5752 0.0
Tb1176 Tb 0.62746 0.41222 0.72991 0.0
C1177 C 0.6733 0.30797 0.53412 0.0
N1178 N 0.68354 0.33165 0.57492 0.0
C1179 C 0.72491 0.29612 0.621 0.0
C1180 C 0.69403 0.27194 0.53104 0.0
C1181 C 0.71009 0.32643 0.61344 0.0
C1182 C 0.71686 0.26917 0.58375 0.0
C1183 C 0.63305 0.29748 0.41101 0.0
C1184 C 0.64518 0.31847 0.47856 0.0
C1185 C 0.64571 0.26092 0.3834 0.0
C1186 C 0.67627 0.23849 0.42634 0.0
Tb1187 Tb 0.65611 0.38034 0.56281 0.0
N1188 N 0.62966 0.34677 0.49122 0.0
C1189 C 0.60721 0.31133 0.37765 0.0
C1190 C 0.60331 0.35645 0.45514 0.0
C1191 C 0.59222 0.33945 0.40045 0.0
H1192 H 0.72124 0.34557 0.63957 0.0
H1193 H 0.57159 0.34905 0.37374 0.0
H1194 H 0.55148 0.43177 0.6884 0.0
H1195 H 0.72636 0.48554 0.824 0.0
H1196 H 0.59127 0.3792 0.46563 0.0
H1197 H 0.59751 0.29944 0.33481 0.0
H1198 H 0.69658 0.43461 0.80318 0.0
H1199 H 0.74441 0.29382 0.65631 0.0
H1200 H 0.66144 0.24605 0.39975 0.0
H1201 H 0.68754 0.21215 0.4099 0.0
H1202 H 0.52163 0.48158 0.65838 0.0
H1203 H 0.73083 0.24761 0.59532 0.0
H1204 H 0.70069 0.53802 0.79734 0.0
N1205 N 0.59554 0.45658 0.71024 0.0
C1206 C 0.60955 0.48591 0.72288 0.0
C1207 C 0.54636 0.48314 0.67645 0.0
C1208 C 0.59257 0.51509 0.71105 0.0
C1209 C 0.5637 0.45482 0.69135 0.0
C1210 C 0.56074 0.51345 0.68686 0.0
N1211 N 0.65761 0.45753 0.75275 0.0
C1212 C 0.68673 0.45711 0.78494 0.0
C1213 C 0.65705 0.51612 0.7573 0.0
C1214 C 0.64177 0.48632 0.74364 0.0
C1215 C 0.68835 0.51574 0.78438 0.0
C1216 C 0.703 0.48609 0.79945 0.0
H1217 H 0.54701 0.53538 0.67649 0.0
H1218 H 0.59563 0.56767 0.71369 0.0
H1219 H 0.65138 0.56808 0.75509 0.0
O1220 O 0.63379 0.42165 0.82974 0.0
O1221 O 0.6245 0.44283 0.6376 0.0
O1222 O 0.67107 0.42971 0.58892 0.0
O1223 O 0.58908 0.40189 0.7943 0.0
O1224 O 0.67642 0.39124 0.73365 0.0
O1225 O 0.69735 0.39633 0.62975 0.0
O1226 O 0.64617 0.40814 0.47863 0.0
O1227 O 0.63201 0.34278 0.62129 0.0
O1228 O 0.64279 0.35949 0.72639 0.0
O1229 O 0.688 0.37504 0.48386 0.0
O1230 O 0.60329 0.39443 0.57406 0.0
O1231 O 0.59029 0.38399 0.6807 0.0
C1232 C 0.64844 0.45141 0.59845 0.0
C1233 C 0.60506 0.38819 0.90278 0.0
C1234 C 0.61721 0.37818 1.0177 0.0
C1235 C 0.59873 0.34955 1.01454 0.0
C1236 C 0.5872 0.35904 0.90084 0.0
C1237 C 0.5841 0.33995 0.95638 0.0
C1238 C 0.62054 0.39746 0.96153 0.0
C1239 C 0.70124 0.39465 0.69436 0.0
C1240 C 0.60571 0.4101 0.84566 0.0
C1241 C 0.60813 0.54484 0.72238 0.0
C1242 C 0.64014 0.54519 0.74565 0.0
C1243 C 0.63637 0.33619 0.68315 0.0
C1244 C 0.68134 0.4055 0.38492 0.0
C1245 C 0.67761 0.40665 0.26635 0.0
C1246 C 0.70644 0.4251 0.26542 0.0
C1247 C 0.70932 0.42477 0.38269 0.0
C1248 C 0.665 0.39694 0.32686 0.0
C1249 C 0.72172 0.43461 0.32308 0.0
C1250 C 0.58186 0.38638 0.61943 0.0
C1251 C 0.66955 0.39348 0.44734 0.0
H1252 H 0.59582 0.33447 0.05719 0.0
H1253 H 0.57514 0.35116 0.85669 0.0
H1254 H 0.57 0.31771 0.95448 0.0
H1255 H 0.63447 0.41987 0.96395 0.0
H1256 H 0.71664 0.4332 0.21986 0.0
H1257 H 0.72169 0.43191 0.42702 0.0
H1258 H 0.64318 0.38211 0.32872 0.0
H1259 H 0.74338 0.44957 0.32147 0.0
Tb1260 Tb 0.36915 0.87916 0.47506 0.0
C1261 C 0.46453 0.95053 0.26834 0.0
N1262 N 0.43404 0.95698 0.28989 0.0
C1263 C 0.43763 1.01376 0.25669 0.0
C1264 C 0.48324 0.98041 0.22372 0.0
C1265 C 0.4214 0.98783 0.28677 0.0
C1266 C 0.46719 1.01009 0.22429 0.0
C1267 C 0.51258 0.89703 0.24682 0.0
C1268 C 0.4772 0.91178 0.28011 0.0
C1269 C 0.54053 0.94192 0.17818 0.0
C1270 C 0.51871 0.97751 0.18109 0.0
Tb1271 Tb 0.40346 0.91164 0.31465 0.0
N1272 N 0.45539 0.89058 0.30482 0.0
C1273 C 0.51765 0.86345 0.26337 0.0
C1274 C 0.46305 0.8583 0.30816 0.0
C1275 C 0.49329 0.84543 0.29207 0.0
H1276 H 0.39697 0.99244 0.30352 0.0
H1277 H 0.49751 0.8197 0.3004 0.0
H1278 H 0.36422 0.79808 0.45826 0.0
H1279 H 0.27774 0.96733 0.53804 0.0
H1280 H 0.44644 0.84093 0.32519 0.0
H1281 H 0.53926 0.84944 0.25267 0.0
H1282 H 0.33357 0.94467 0.53051 0.0
H1283 H 0.42585 0.03735 0.25557 0.0
H1284 H 0.56281 0.94209 0.14919 0.0
H1285 H 0.52768 0.99852 0.15519 0.0
H1286 H 0.32182 0.7589 0.42625 0.0
H1287 H 0.47762 0.03076 0.19941 0.0
H1288 H 0.23066 0.93227 0.50914 0.0
N1289 N 0.33176 0.83827 0.46325 0.0
C1290 C 0.30004 0.84748 0.46766 0.0
C1291 C 0.31528 0.78377 0.4377 0.0
C1292 C 0.27461 0.82513 0.45674 0.0
C1293 C 0.3395 0.80638 0.45304 0.0
C1294 C 0.28261 0.79307 0.44022 0.0
N1295 N 0.31859 0.90101 0.48643 0.0
C1296 C 0.31338 0.93107 0.51178 0.0
C1297 C 0.26086 0.89071 0.48522 0.0
C1298 C 0.29325 0.87995 0.47997 0.0
C1299 C 0.25523 0.92307 0.50356 0.0
C1300 C 0.2817 0.94307 0.51902 0.0
H1301 H 0.26382 0.77527 0.42997 0.0
H1302 H 0.22229 0.8193 0.4499 0.0
H1303 H 0.21035 0.87676 0.47317 0.0
O1304 O 0.37175 0.89807 0.57003 0.0
O1305 O 0.33765 0.87956 0.38385 0.0
O1306 O 0.35212 0.92454 0.32717 0.0
O1307 O 0.36575 0.84678 0.553 0.0
O1308 O 0.38691 0.92969 0.48086 0.0
O1309 O 0.38169 0.95087 0.37769 0.0
O1310 O 0.38629 0.88518 0.23237 0.0
O1311 O 0.43876 0.914 0.39497 0.0
O1312 O 0.4234 0.87309 0.46542 0.0
O1313 O 0.40822 0.93205 0.22305 0.0
O1314 O 0.38942 0.85824 0.32059 0.0
O1315 O 0.39938 0.84408 0.42598 0.0
C1316 C 0.33052 0.90189 0.33945 0.0
C1317 C 0.39012 0.86248 0.65181 0.0
C1318 C 0.39931 0.86692 0.76839 0.0
C1319 C 0.42387 0.84309 0.76329 0.0
C1320 C 0.4157 0.84006 0.64718 0.0
C1321 C 0.43221 0.8301 0.70296 0.0
C1322 C 0.38259 0.87652 0.71188 0.0
C1323 C 0.38473 0.9548 0.44167 0.0
C1324 C 0.36898 0.86951 0.59632 0.0
C1325 C 0.24221 0.83595 0.45927 0.0
C1326 C 0.23538 0.8687 0.47302 0.0
C1327 C 0.44567 0.89328 0.44159 0.0
C1328 C 0.3743 0.9174 0.13869 0.0
C1329 C 0.36506 0.91682 0.02201 0.0
C1330 C 0.34297 0.94279 0.02898 0.0
C1331 C 0.35334 0.94419 0.14442 0.0
C1332 C 0.38007 0.90376 0.0776 0.0
C1333 C 0.3371 0.95626 0.09003 0.0
C1334 C 0.3934 0.83559 0.36597 0.0
C1335 C 0.39552 0.90792 0.19245 0.0
H1336 H 0.43644 0.83412 0.80593 0.0
H1337 H 0.42238 0.82983 0.60069 0.0
H1338 H 0.45121 0.81191 0.69958 0.0
H1339 H 0.3634 0.89463 0.71433 0.0
H1340 H 0.33129 0.95359 0.98703 0.0
H1341 H 0.35089 0.95672 0.19031 0.0
H1342 H 0.39735 0.88389 0.07312 0.0
H1343 H 0.32096 0.97697 0.09478 0.0
C1344 C 0.17084 0.6507 0.68166 0.0
C1345 C 0.13814 0.64844 0.70122 0.0
H1346 H 0.20531 0.64326 0.6053 0.0
C1347 C 0.11499 0.63556 0.65783 0.0
H1348 H 0.18921 0.6608 0.71374 0.0
C1349 C 0.12419 0.62586 0.59567 0.0
C1350 C 0.15677 0.62862 0.57593 0.0
H1351 H 0.08977 0.63286 0.67205 0.0
H1352 H 0.10589 0.61583 0.56329 0.0
C1353 C 0.18007 0.64083 0.61959 0.0
C1354 C 0.65445 0.87983 0.93687 0.0
C1355 C 0.64197 0.91059 0.95382 0.0
H1356 H 0.66009 0.84395 0.86141 0.0
C1357 C 0.6221 0.92709 0.90897 0.0
H1358 H 0.66829 0.86566 0.97134 0.0
C1359 C 0.61583 0.91376 0.84777 0.0
C1360 C 0.63051 0.88443 0.82899 0.0
H1361 H 0.61165 0.95054 0.92122 0.0
H1362 H 0.59965 0.92646 0.81482 0.0
C1363 C 0.64955 0.86728 0.87421 0.0
C1364 C 0.40227 0.40651 0.18625 0.0
C1365 C 0.37105 0.39816 0.20816 0.0
H1366 H 0.43592 0.40502 0.10688 0.0
C1367 C 0.35078 0.37878 0.16928 0.0
H1368 H 0.41845 0.42096 0.21608 0.0
C1369 C 0.3613 0.36854 0.1084 0.0
C1370 C 0.3917 0.37842 0.08516 0.0
H1371 H 0.32683 0.3717 0.18598 0.0
H1372 H 0.3456 0.35328 0.0791 0.0
C1373 C 0.41231 0.39728 0.12436 0.0
C1374 C 0.88891 0.10105 0.43116 0.0
C1375 C 0.89429 0.13338 0.45039 0.0
H1376 H 0.87057 0.06916 0.35688 0.0
C1377 C 0.88315 0.15882 0.41038 0.0
H1378 H 0.89768 0.08108 0.46076 0.0
C1379 C 0.86802 0.15212 0.35108 0.0
C1380 C 0.86335 0.11979 0.33084 0.0
H1381 H 0.88682 0.184 0.42449 0.0
H1382 H 0.85999 0.17222 0.32102 0.0
C1383 C 0.8736 0.0943 0.37173 0.0
C1384 C 0.12003 0.3809 0.37753 0.0
C1385 C 0.14279 0.37667 0.32728 0.0
H1386 H 0.11142 0.39588 0.47529 0.0
C1387 C 0.17526 0.38643 0.33859 0.0
H1388 H 0.09461 0.37484 0.37058 0.0
C1389 C 0.18475 0.39921 0.39875 0.0
C1390 C 0.16217 0.40214 0.44933 0.0
H1391 H 0.19375 0.38337 0.30186 0.0
H1392 H 0.20998 0.40601 0.40623 0.0
C1393 C 0.12965 0.39312 0.43783 0.0
C1394 C 0.88654 0.86397 0.65043 0.0
C1395 C 0.89614 0.88693 0.69716 0.0
H1396 H 0.86897 0.85632 0.55354 0.0
C1397 C 0.89658 0.92002 0.68113 0.0
H1398 H 0.88603 0.83825 0.662 0.0
C1399 C 0.88653 0.93042 0.62017 0.0
C1400 C 0.87628 0.90773 0.57364 0.0
H1401 H 0.90526 0.93778 0.71532 0.0
H1402 H 0.88702 0.95622 0.60927 0.0
C1403 C 0.87693 0.8743 0.58871 0.0
C1404 C 0.35842 0.64475 0.88 0.0
C1405 C 0.37828 0.62823 0.83545 0.0
H1406 H 0.35539 0.66717 0.97378 0.0
C1407 C 0.4108 0.62142 0.85234 0.0
H1408 H 0.33357 0.6511 0.86742 0.0
C1409 C 0.42248 0.62886 0.91445 0.0
C1410 C 0.40225 0.64457 0.95931 0.0
H1411 H 0.42679 0.60922 0.81842 0.0
H1412 H 0.44725 0.62241 0.9275 0.0
C1413 C 0.37057 0.65339 0.94101 0.0
C1414 C 0.63719 0.10741 0.10098 0.0
C1415 C 0.6308 0.14025 0.08591 0.0
H1416 H 0.65318 0.07323 0.17258 0.0
C1417 C 0.63707 0.16419 0.13316 0.0
H1418 H 0.63234 0.08819 0.06627 0.0
C1419 C 0.6486 0.15547 0.19441 0.0
C1420 C 0.65444 0.12263 0.20963 0.0
H1421 H 0.63329 0.18976 0.12279 0.0
H1422 H 0.65332 0.17454 0.2296 0.0
C1423 C 0.649 0.09874 0.16209 0.0
C1424 C 0.87831 0.3747 0.34738 0.0
C1425 C 0.87655 0.40779 0.33044 0.0
H1426 H 0.88958 0.3398 0.42091 0.0
C1427 C 0.88537 0.43146 0.37635 0.0
H1428 H 0.87097 0.35594 0.31329 0.0
C1429 C 0.89637 0.42225 0.43773 0.0
C1430 C 0.89852 0.38911 0.4547 0.0
H1431 H 0.88437 0.45712 0.36434 0.0
H1432 H 0.90387 0.44116 0.47127 0.0
C1433 C 0.889 0.36547 0.40899 0.0
C1434 C 0.40134 0.11693 0.19563 0.0
C1435 C 0.39658 0.15004 0.20917 0.0
H1436 H 0.3973 0.07875 0.1251 0.0
C1437 C 0.38417 0.17064 0.16083 0.0
H1438 H 0.41133 0.10081 0.23222 0.0
C1439 C 0.37642 0.15819 0.09951 0.0
C1440 C 0.38046 0.12484 0.08612 0.0
H1441 H 0.38022 0.19625 0.17078 0.0
H1442 H 0.36631 0.17443 0.06325 0.0
C1443 C 0.3934 0.10443 0.13452 0.0
C1444 C 0.64501 0.67601 0.9099 0.0
C1445 C 0.63575 0.65217 0.95509 0.0
H1446 H 0.66466 0.68554 0.81551 0.0
C1447 C 0.6371 0.61914 0.93725 0.0
H1448 H 0.64449 0.70161 0.92251 0.0
C1449 C 0.64915 0.61011 0.87696 0.0
C1450 C 0.65946 0.63391 0.8329 0.0
H1451 H 0.62937 0.60018 0.97022 0.0
H1452 H 0.65121 0.58444 0.86554 0.0
C1453 C 0.65653 0.66692 0.84889 0.0
C1454 C 0.1068 0.90293 0.62874 0.0
C1455 C 0.12936 0.89427 0.58079 0.0
H1456 H 0.09991 0.92103 0.72548 0.0
C1457 C 0.16274 0.89704 0.59375 0.0
H1458 H 0.08088 0.9011 0.6193 0.0
C1459 C 0.17359 0.90821 0.65384 0.0
C1460 C 0.15115 0.91717 0.70184 0.0
H1461 H 0.18039 0.89005 0.55786 0.0
H1462 H 0.19957 0.90934 0.66317 0.0
C1463 C 0.11763 0.9143 0.68906 0.0
C1464 C 0.85772 0.64504 0.67871 0.0
C1465 C 0.88966 0.64067 0.70227 0.0
H1466 H 0.82406 0.63693 0.60007 0.0
C1467 C 0.91224 0.62394 0.66325 0.0
H1468 H 0.83985 0.65817 0.70708 0.0
C1469 C 0.90339 0.61249 0.6018 0.0
C1470 C 0.87158 0.61691 0.57836 0.0
H1471 H 0.93683 0.61954 0.68039 0.0
H1472 H 0.92126 0.59957 0.57303 0.0
C1473 C 0.84874 0.63316 0.61738 0.0
C1474 C 0.12799 0.10269 0.41999 0.0
C1475 C 0.148 0.12275 0.45803 0.0
H1476 H 0.10228 0.09734 0.32998 0.0
C1477 C 0.15709 0.1536 0.435 0.0
H1478 H 0.12044 0.07901 0.43749 0.0
C1479 C 0.14796 0.16332 0.37273 0.0
C1480 C 0.12851 0.14286 0.33439 0.0
H1481 H 0.17192 0.1698 0.46415 0.0
H1482 H 0.15623 0.18657 0.35429 0.0
C1483 C 0.1179 0.11294 0.35876 0.0
C1484 C 0.68017 0.38638 0.15145 0.0
C1485 C 0.66142 0.39796 0.20369 0.0
H1486 H 0.68085 0.37141 0.05153 0.0
C1487 C 0.62789 0.40321 0.1938 0.0
H1488 H 0.70589 0.38136 0.1579 0.0
C1489 C 0.61379 0.39818 0.13243 0.0
C1490 C 0.63278 0.38715 0.08024 0.0
H1491 H 0.61274 0.41199 0.23301 0.0
H1492 H 0.58798 0.40266 0.12574 0.0
C1493 C 0.66599 0.38097 0.09047 0.0
C1494 C 0.34979 0.9005 0.90876 0.0
C1495 C 0.3738 0.90458 0.95674 0.0
H1496 H 0.33867 0.88492 0.81244 0.0
C1497 C 0.40638 0.89732 0.94174 0.0
H1498 H 0.32447 0.90575 0.91902 0.0
C1499 C 0.41466 0.88575 0.88036 0.0
C1500 C 0.39056 0.88085 0.83266 0.0
H1501 H 0.4256 0.90097 0.97717 0.0
H1502 H 0.44006 0.88084 0.87029 0.0
C1503 C 0.35803 0.88868 0.84747 0.0
C1504 C 0.11302 0.74822 0.14619 0.0
C1505 C 0.13477 0.72902 0.18296 0.0
H1506 H 0.09744 0.79594 0.11808 0.0
C1507 C 0.15624 0.74532 0.2257 0.0
H1508 H 0.09613 0.73682 0.1126 0.0
C1509 C 0.15734 0.77991 0.2279 0.0
C1510 C 0.13673 0.79884 0.18796 0.0
H1511 H 0.17372 0.73147 0.25386 0.0
H1512 H 0.17565 0.79174 0.25764 0.0
C1513 C 0.1139 0.78233 0.14894 0.0
C1514 C 0.53487 0.91664 0.46714 0.0
C1515 C 0.55131 0.88822 0.44777 0.0
H1516 H 0.48868 0.94094 0.47763 0.0
C1517 C 0.53252 0.85986 0.43811 0.0
H1518 H 0.54849 0.93868 0.4767 0.0
C1519 C 0.49821 0.86035 0.44502 0.0
C1520 C 0.4815 0.88976 0.45676 0.0
H1521 H 0.54427 0.83746 0.42317 0.0
H1522 H 0.48459 0.8383 0.43514 0.0
C1523 C 0.50051 0.91775 0.46898 0.0
C1524 C 0.36443 0.2801 0.71758 0.0
C1525 C 0.39054 0.29936 0.69559 0.0
H1526 H 0.34555 0.23173 0.7328 0.0
C1527 C 0.41907 0.28343 0.67541 0.0
H1528 H 0.34178 0.29159 0.73173 0.0
C1529 C 0.42062 0.24918 0.67302 0.0
C1530 C 0.3943 0.22981 0.69363 0.0
H1531 H 0.43938 0.29744 0.65713 0.0
H1532 H 0.44202 0.23776 0.65246 0.0
C1533 C 0.36664 0.24578 0.71846 0.0
C1534 C 1.00022 0.17147 0.91747 0.0
C1535 C 0.98089 0.14573 0.94089 0.0
H1536 H 0.04848 0.18973 0.89965 0.0
C1537 C 0.99683 0.11867 0.96841 0.0
H1538 H 0.98879 0.19236 0.89476 0.0
C1539 C 0.03116 0.1165 0.96819 0.0
C1540 C 0.0504 0.14196 0.94334 0.0
H1541 H 0.98277 0.09801 0.98495 0.0
H1542 H 0.04267 0.09429 0.98499 0.0
C1543 C 0.03447 0.1699 0.91994 0.0
C1544 C 0.15129 0.27955 0.80939 0.0
C1545 C 0.13194 0.29715 0.85387 0.0
H1546 H 0.1691 0.23218 0.77938 0.0
C1547 C 0.11258 0.27925 0.89713 0.0
H1548 H 0.16688 0.29248 0.77598 0.0
C1549 C 0.1139 0.24528 0.89915 0.0
C1550 C 0.1348 0.22748 0.85826 0.0
H1551 H 0.09734 0.29167 0.93215 0.0
H1552 H 0.09939 0.23295 0.93536 0.0
C1553 C 0.15269 0.24498 0.81156 0.0
C1554 C 0.032 0.85861 0.11227 0.0
C1555 C 0.05133 0.88591 0.09701 0.0
H1556 H 0.98366 0.83873 0.12241 0.0
C1557 C 0.03512 0.9144 0.07655 0.0
H1558 H 0.04353 0.83642 0.12911 0.0
C1559 C 1.00073 0.91623 0.0762 0.0
C1560 C 0.98137 0.88904 0.09209 0.0
H1561 H 0.04903 0.93614 0.06593 0.0
H1562 H 0.98921 0.93937 0.06547 0.0
C1563 C 0.9976 0.85991 0.10833 0.0
C1564 C 0.37239 0.7488 0.30714 0.0
C1565 C 0.39393 0.72976 0.3449 0.0
H1566 H 0.35547 0.79727 0.28285 0.0
C1567 C 0.41774 0.7463 0.38162 0.0
H1568 H 0.3532 0.73704 0.27955 0.0
C1569 C 0.41882 0.78048 0.38413 0.0
C1570 C 0.3963 0.79975 0.34942 0.0
H1571 H 0.43484 0.73267 0.41107 0.0
H1572 H 0.43649 0.7919 0.41606 0.0
C1573 C 0.37369 0.7834 0.30904 0.0
C1574 C 0.53383 0.11714 0.57443 0.0
C1575 C 0.55044 0.14358 0.60274 0.0
H1576 H 0.48732 0.09438 0.55667 0.0
C1577 C 0.53183 0.17012 0.62538 0.0
H1578 H 0.54731 0.09594 0.55842 0.0
C1579 C 0.49763 0.16997 0.62116 0.0
C1580 C 0.48096 0.14261 0.59713 0.0
H1581 H 0.54374 0.19061 0.64863 0.0
H1582 H 0.48416 0.19033 0.64102 0.0
C1583 C 0.49947 0.11627 0.57343 0.0
C1584 C 0.91997 0.24975 0.85353 0.0
C1585 C 0.8921 0.23066 0.84093 0.0
H1586 H 0.94086 0.29784 0.85874 0.0
C1587 C 0.86391 0.24672 0.81887 0.0
H1588 H 0.94211 0.23826 0.87086 0.0
C1589 C 0.86246 0.28107 0.81693 0.0
C1590 C 0.88994 0.30029 0.83201 0.0
H1591 H 0.84218 0.23285 0.80776 0.0
H1592 H 0.83937 0.29269 0.80609 0.0
C1593 C 0.91922 0.28398 0.84672 0.0
C1594 C 0.66545 0.78293 0.32766 0.0
C1595 C 0.63745 0.79955 0.34911 0.0
H1596 H 0.68987 0.73669 0.31726 0.0
C1597 C 0.61036 0.78061 0.36754 0.0
H1598 H 0.6871 0.79656 0.31508 0.0
C1599 C 0.61141 0.74622 0.36572 0.0
C1600 C 0.64011 0.72965 0.34835 0.0
H1601 H 0.58863 0.79247 0.38561 0.0
H1602 H 0.59042 0.73259 0.38206 0.0
C1603 C 0.66708 0.74855 0.3292 0.0
C1604 C 0.86314 0.75001 0.19715 0.0
C1605 C 0.89066 0.73181 0.17772 0.0
H1606 H 0.8412 0.79767 0.20709 0.0
C1607 C 0.91882 0.74925 0.1605 0.0
H1608 H 0.84066 0.73753 0.2086 0.0
C1609 C 0.91921 0.78359 0.16027 0.0
C1610 C 0.89145 0.8019 0.1771 0.0
H1611 H 0.94032 0.73623 0.14462 0.0
H1612 H 0.94103 0.79594 0.14428 0.0
C1613 C 0.86346 0.78457 0.19642 0.0
C1614 C 0.66583 0.2501 0.72238 0.0
C1615 C 0.63836 0.23076 0.70764 0.0
H1616 H 0.68591 0.29838 0.73256 0.0
C1617 C 0.60889 0.24709 0.69432 0.0
H1618 H 0.68909 0.23856 0.73201 0.0
C1619 C 0.60783 0.28146 0.68926 0.0
C1620 C 0.63561 0.30071 0.70196 0.0
H1621 H 0.58728 0.23321 0.6823 0.0
H1622 H 0.58547 0.29295 0.67307 0.0
C1623 C 0.66414 0.2845 0.72188 0.0
C1624 C 0.99809 0.36257 0.90129 0.0
C1625 C 0.97953 0.38531 0.93661 0.0
H1626 H 0.04516 0.3453 0.87367 0.0
C1627 C 0.99665 0.40718 0.9774 0.0
H1628 H 0.98613 0.34535 0.8692 0.0
C1629 C 0.03136 0.40761 0.97891 0.0
C1630 C 0.04969 0.38591 0.94026 0.0
H1631 H 0.98334 0.42545 1.0044 0.0
H1632 H 0.04372 0.42622 1.00694 0.0
C1633 C 0.03224 0.3627 0.90353 0.0
C1634 C 0.49884 0.66687 0.3978 0.0
C1635 C 0.4804 0.64461 0.43415 0.0
H1636 H 0.54576 0.68305 0.36686 0.0
C1637 C 0.49785 0.62206 0.47301 0.0
H1638 H 0.48666 0.68445 0.36692 0.0
C1639 C 0.53258 0.62092 0.47241 0.0
C1640 C 0.55075 0.64248 0.43332 0.0
H1641 H 0.48466 0.60388 0.50033 0.0
H1642 H 0.54503 0.60204 0.49949 0.0
C1643 C 0.53305 0.66595 0.39767 0.0
C1644 C 0.49408 0.40517 0.56578 0.0
C1645 C 0.47649 0.38488 0.60826 0.0
H1646 H 0.54167 0.42153 0.53484 0.0
C1647 C 0.49417 0.36236 0.64593 0.0
H1648 H 0.48134 0.42308 0.5367 0.0
C1649 C 0.52818 0.36145 0.6448 0.0
C1650 C 0.54611 0.38287 0.60567 0.0
H1651 H 0.48168 0.34622 0.67906 0.0
H1652 H 0.5406 0.34486 0.67745 0.0
C1653 C 0.52865 0.40416 0.56447 0.0
C1654 C 0.03129 0.66923 0.08696 0.0
C1655 C 0.04774 0.63955 0.07623 0.0
H1656 H 0.98542 0.69292 0.10724 0.0
C1657 C 0.0283 0.61181 0.06418 0.0
H1658 H 0.04515 0.69115 0.09663 0.0
C1659 C 0.99385 0.61347 0.06483 0.0
C1660 C 0.97757 0.64223 0.08303 0.0
H1661 H 0.03982 0.5884 0.05631 0.0
H1662 H 0.98 0.59157 0.05532 0.0
C1663 C 0.99688 0.67028 0.0929 0.0
C1664 C 0.11249 0.52749 0.03659 0.0
C1665 C 0.14227 0.54126 0.05791 0.0
H1666 H 0.08842 0.48826 0.9847 0.0
C1667 C 0.17089 0.52625 0.03483 0.0
H1668 H 0.0897 0.53829 0.05191 0.0
C1669 C 0.16993 0.50103 0.98796 0.0
C1670 C 0.14051 0.48583 0.96987 0.0
H1671 H 0.1944 0.53457 0.05164 0.0
H1672 H 0.19269 0.49204 0.96873 0.0
C1673 C 0.11169 0.49937 0.99597 0.0
C1674 C 0.74854 0.9298 0.28394 0.0
C1675 C 0.73509 0.9004 0.30768 0.0
H1676 H 0.78641 0.95396 0.22984 0.0
C1677 C 0.75138 0.87149 0.28809 0.0
H1678 H 0.73719 0.95274 0.29664 0.0
C1679 C 0.77946 0.87216 0.24674 0.0
C1680 C 0.79328 0.90182 0.2246 0.0
H1681 H 0.74213 0.84814 0.30395 0.0
H1682 H 0.79088 0.84932 0.23352 0.0
C1683 C 0.77706 0.93051 0.24481 0.0
C1684 C 0.40631 0.50009 0.53877 0.0
C1685 C 0.37699 0.48614 0.56199 0.0
H1686 H 0.42926 0.53768 0.48072 0.0
C1687 C 0.34787 0.50189 0.54299 0.0
H1688 H 0.42937 0.48879 0.551 0.0
C1689 C 0.34784 0.53033 0.50394 0.0
C1690 C 0.37686 0.54405 0.47945 0.0
H1691 H 0.32471 0.49223 0.55888 0.0
H1692 H 0.32465 0.54144 0.49205 0.0
C1693 C 0.40622 0.52815 0.49758 0.0
C1694 C 0.77892 0.16465 0.78863 0.0
C1695 C 0.79248 0.13541 0.81332 0.0
H1696 H 0.73984 0.1875 0.73475 0.0
C1697 C 0.77845 0.1062 0.79065 0.0
H1698 H 0.79004 0.18789 0.79939 0.0
C1699 C 0.75324 0.10614 0.74368 0.0
C1700 C 0.73766 0.13515 0.72444 0.0
H1701 H 0.78789 0.08308 0.80728 0.0
H1702 H 0.74484 0.08302 0.72489 0.0
C1703 C 0.7509 0.16451 0.74827 0.0
C1704 C 0.85808 0.51874 0.07186 0.0
C1705 C 0.88423 0.54072 0.06578 0.0
H1706 H 0.83349 0.47658 0.0336 0.0
C1707 C 0.90837 0.53265 0.01958 0.0
H1708 H 0.8383 0.52441 0.10457 0.0
C1709 C 0.90667 0.50375 0.98188 0.0
C1710 C 0.87987 0.48234 0.98593 0.0
H1711 H 0.92863 0.54907 1.01194 0.0
H1712 H 0.92631 0.4985 0.94879 0.0
C1713 C 0.85547 0.49084 0.03125 0.0
C1714 C 0.25166 0.15798 0.79156 0.0
C1715 C 0.23718 0.12844 0.81232 0.0
H1716 H 0.28978 0.18148 0.73584 0.0
C1717 C 0.25235 0.09947 0.79095 0.0
H1718 H 0.24082 0.18096 0.8057 0.0
C1719 C 0.28081 0.09977 0.75219 0.0
C1720 C 0.29514 0.12905 0.73037 0.0
H1721 H 0.24227 0.07615 0.80486 0.0
H1722 H 0.29152 0.07666 0.73854 0.0
C1723 C 0.27975 0.15828 0.75063 0.0
C1724 C 0.67692 0.52467 0.49322 0.0
C1725 C 0.64792 0.54098 0.47492 0.0
H1726 H 0.69981 0.48454 0.54326 0.0
C1727 C 0.61855 0.52712 0.49799 0.0
H1728 H 0.70016 0.53416 0.47738 0.0
C1729 C 0.61842 0.4988 0.53853 0.0
C1730 C 0.6476 0.48247 0.55635 0.0
H1731 H 0.59557 0.53873 0.48627 0.0
H1732 H 0.5953 0.48949 0.55539 0.0
C1733 C 0.67672 0.49595 0.53169 0.0
C1734 C 0.27755 0.87262 0.30446 0.0
C1735 C 0.29944 0.89891 0.29739 0.0
H1736 H 0.23184 0.85034 0.27764 0.0
C1737 C 0.29107 0.92196 0.24893 0.0
H1738 H 0.28277 0.85373 0.33913 0.0
C1739 C 0.26273 0.91861 0.20912 0.0
C1740 C 0.24029 0.89295 0.21845 0.0
H1741 H 0.30594 0.94333 0.24293 0.0
H1742 H 0.25733 0.93737 0.1738 0.0
C1743 C 0.24837 0.87022 0.26748 0.0
C1744 C 0.67092 1.01162 0.46573 0.0
C1745 C 0.64541 0.98895 0.4732 0.0
H1746 H 0.69469 0.05484 0.50144 0.0
C1747 C 0.62193 0.99646 0.52118 0.0
H1748 H 0.69022 1.00656 0.43153 0.0
C1749 C 0.62356 0.02541 0.55905 0.0
C1750 C 0.64962 0.04767 0.55319 0.0
H1751 H 0.60215 0.97961 0.52992 0.0
H1752 H 0.60442 0.03009 0.59358 0.0
C1753 C 0.67336 0.03977 0.50594 0.0
C1754 C 0.25224 0.37061 0.80609 0.0
C1755 C 0.23101 0.39753 0.80219 0.0
H1756 H 0.29713 0.34826 0.77555 0.0
C1757 C 0.2386 0.42131 0.75506 0.0
H1758 H 0.24715 0.35112 0.83932 0.0
C1759 C 0.26585 0.41816 0.71336 0.0
C1760 C 0.28815 0.39225 0.72052 0.0
H1761 H 0.22389 0.443 0.7516 0.0
H1762 H 0.27074 0.43734 0.67876 0.0
C1763 C 0.28068 0.36854 0.76776 0.0
C1764 C 0.8652 0.01628 0.07383 0.0
C1765 C 0.88874 0.99191 0.06183 0.0
H1766 H 0.84353 0.06171 0.04353 0.0
C1767 C 0.91072 0.998 1.01057 0.0
H1768 H 0.84741 1.01272 0.11179 0.0
C1769 C 0.90916 0.02678 0.97279 0.0
C1770 C 0.88464 0.05034 0.98208 0.0
H1771 H 0.92927 0.98015 0.99905 0.0
H1772 H 0.92713 0.03031 0.93563 0.0
C1773 C 0.86285 0.04453 0.03403 0.0
C1774 C 0.24107 0.60649 0.27974 0.0
C1775 C 0.23172 0.63071 0.23426 0.0
H1776 H 0.275 0.59015 0.35372 0.0
C1777 C 0.25293 0.65776 0.22998 0.0
H1778 H 0.22743 0.58411 0.28204 0.0
C1779 C 0.28191 0.66013 0.26803 0.0
C1780 C 0.29049 0.63651 0.31524 0.0
H1781 H 0.24736 0.67722 0.19657 0.0
H1782 H 0.29794 0.68066 0.26006 0.0
C1783 C 0.26899 0.60979 0.32077 0.0
C1784 C 0.41486 1.00385 0.49078 0.0
C1785 C 0.38525 0.98825 0.47437 0.0
H1786 H 0.43857 0.04417 0.53975 0.0
C1787 C 0.35679 1.00159 0.50205 0.0
H1788 H 0.43756 0.99446 0.47176 0.0
C1789 C 0.35799 0.02693 0.54869 0.0
C1790 C 0.38716 0.04364 0.56258 0.0
H1791 H 0.33318 0.99249 0.48786 0.0
H1792 H 0.33542 0.0351 0.57024 0.0
C1793 C 0.41558 0.03187 0.53166 0.0
C1794 C 0.7913 0.6109 0.28166 0.0
C1795 C 0.7972 0.63323 0.23075 0.0
H1796 H 0.75996 0.59507 0.35965 0.0
C1797 C 0.77387 0.65811 0.22263 0.0
H1798 H 0.80803 0.59106 0.28928 0.0
C1799 C 0.74531 0.65958 0.26096 0.0
C1800 C 0.73933 0.63715 0.31163 0.0
H1801 H 0.77742 0.67643 0.18599 0.0
H1802 H 0.72757 0.67842 0.25046 0.0
C1803 C 0.76344 0.6132 0.32224 0.0
C1804 C 0.16894 0.01746 0.96582 0.0
C1805 C 0.1428 0.03944 0.97243 0.0
H1806 H 0.19457 0.97645 1.00596 0.0
C1807 C 0.11928 0.03202 0.02019 0.0
H1808 H 0.18811 0.02247 0.93132 0.0
C1809 C 0.12169 1.00375 0.05929 0.0
C1810 C 0.14868 0.9826 0.05479 0.0
H1811 H 0.09899 0.04844 0.02791 0.0
H1812 H 0.10264 0.99888 0.09393 0.0
C1813 C 0.17248 0.99056 1.00819 0.0
C1814 C 0.74689 0.36545 0.75737 0.0
C1815 C 0.73476 0.39393 0.72679 0.0
H1816 H 0.78511 0.34334 0.8153 0.0
C1817 C 0.7513 0.42312 0.74098 0.0
H1818 H 0.73441 0.34248 0.75063 0.0
C1819 C 0.77698 0.42422 0.78701 0.0
C1820 C 0.79094 0.39568 0.81321 0.0
H1821 H 0.74294 0.44569 0.71968 0.0
H1822 H 0.78618 0.44777 0.8013 0.0
C1823 C 0.77541 0.36607 0.79686 0.0
loop_
_geom_bond_atom_site_label_1
_geom_bond_atom_site_label_2
_geom_bond_distance
_geom_bond_site_symmetry_2
_ccdc_geom_bond_type
Tb0 N29 2.617 . S
Tb0 N35 2.572 . S
Tb0 O44 2.465 . S
Tb0 O45 2.387 . S
Tb0 O47 2.428 . S
Tb0 O48 2.308 . S
Tb0 O52 2.349 . S
Tb0 O55 2.393 . S
Tb0 C64 2.802 . S
C1 N2 1.379 1_556 S
C1 C4 1.416 . S
C1 C8 1.424 . S
N2 C1 1.379 1_554 S
N2 C5 1.334 . S
N2 Tb11 2.617 . S
C3 C5 1.390 . S
C3 C6 1.339 . S
C3 H23 0.930 . S
C4 C1 1.416 . S
C4 C6 1.416 1_556 S
C4 C10 1.448 . S
C5 N2 1.334 . S
C5 C3 1.390 . S
C5 H16 0.930 . S
C6 C3 1.339 . S
C6 C4 1.416 1_554 S
C6 H27 0.930 . S
C7 C8 1.413 . S
C7 C9 1.427 . S
C7 C13 1.416 . S
C8 C1 1.424 . S
C8 C7 1.413 . S
C8 N12 1.361 . S
C9 C7 1.427 . S
C9 C10 1.328 . S
C9 H24 0.929 . S
C10 C4 1.448 . S
C10 C9 1.328 . S
C10 H25 0.930 . S
Tb11 N2 2.617 . S
Tb11 N12 2.572 1_554 S
Tb11 O46 2.349 . S
Tb11 O49 2.393 . S
Tb11 O50 2.465 1_554 S
Tb11 O51 2.387 . S
Tb11 O53 2.428 1_554 S
Tb11 O54 2.308 . S
Tb11 C75 2.802 1_554 S
N12 C8 1.361 . S
N12 Tb11 2.572 1_556 S
N12 C14 1.340 . S
C13 C7 1.416 . S
C13 C15 1.332 . S
C13 H21 0.931 . S
C14 N12 1.340 . S
C14 C15 1.407 . S
C14 H20 0.930 . S
C15 C13 1.332 . S
C15 C14 1.407 . S
C15 H17 0.929 . S
H16 C5 0.930 . S
H17 C15 0.929 . S
H18 C33 0.930 . S
H19 C40 0.929 . S
H20 C14 0.930 . S
H21 C13 0.931 . S
H22 C36 0.930 . S
H23 C3 0.930 . S
H24 C9 0.929 . S
H25 C10 0.930 . S
H26 C31 0.930 . S
H27 C6 0.930 . S
H28 C39 0.931 1_655 S
N29 Tb0 2.617 . S
N29 C30 1.379 . S
N29 C33 1.334 . S
C30 N29 1.379 . S
C30 C32 1.416 . S
C30 C38 1.424 . S
C31 H26 0.930 . S
C31 C33 1.390 . S
C31 C34 1.339 . S
C32 C30 1.416 . S
C32 C34 1.416 . S
C32 C65 1.448 1_455 S
C33 H18 0.930 . S
C33 N29 1.334 . S
C33 C31 1.390 . S
C34 C31 1.339 . S
C34 C32 1.416 . S
C34 H41 0.930 . S
N35 Tb0 2.572 . S
N35 C36 1.340 . S
N35 C38 1.361 . S
C36 H22 0.930 . S
C36 N35 1.340 . S
C36 C40 1.407 . S
C37 C38 1.413 . S
C37 C39 1.416 . S
C37 C66 1.427 1_455 S
C38 C30 1.424 . S
C38 N35 1.361 . S
C38 C37 1.413 . S
C39 H28 0.931 1_455 S
C39 C37 1.416 . S
C39 C40 1.332 . S
C40 H19 0.929 . S
C40 C36 1.407 . S
C40 C39 1.332 . S
H41 C34 0.930 . S
H42 C65 0.930 . S
H43 C66 0.929 . S
O44 Tb0 2.465 . S
O44 C64 1.264 . S
O45 Tb0 2.387 . S
O45 C56 1.264 . S
O46 Tb11 2.349 . S
O46 C56 1.243 . S
O47 Tb0 2.428 . S
O47 C64 1.256 . S
O48 Tb0 2.308 . S
O48 C63 1.266 . S
O49 Tb11 2.393 . S
O49 C63 1.248 . S
O50 Tb11 2.465 1_556 S
O50 C75 1.264 . S
O51 Tb11 2.387 . S
O51 C67 1.264 . S
O52 Tb0 2.349 . S
O52 C67 1.243 . S
O53 Tb11 2.428 1_556 S
O53 C75 1.256 . S
O54 Tb11 2.308 . S
O54 C74 1.266 . S
O55 Tb0 2.393 . S
O55 C74 1.248 . S
C56 O45 1.264 . S
C56 O46 1.243 . S
C57 C60 1.399 . S
C57 C62 1.383 . S
C57 C64 1.496 . S
C58 C59 1.399 . S
C58 C62 1.389 . S
C59 C58 1.399 . S
C59 C61 1.380 . S
C59 H76 0.929 . S
C60 C57 1.399 . S
C60 C61 1.392 . S
C60 H77 0.929 . S
C61 C59 1.380 . S
C61 C60 1.392 . S
C61 H78 0.929 . S
C62 C57 1.383 . S
C62 C58 1.389 . S
C62 H79 0.931 . S
C63 O48 1.266 . S
C63 O49 1.248 . S
C64 Tb0 2.802 . S
C64 O44 1.264 . S
C64 O47 1.256 . S
C64 C57 1.496 . S
C65 C32 1.448 1_655 S
C65 H42 0.930 . S
C65 C66 1.328 . S
C66 C37 1.427 1_655 S
C66 H43 0.929 . S
C66 C65 1.328 . S
C67 O51 1.264 . S
C67 O52 1.243 . S
C68 C71 1.399 . S
C68 C72 1.383 . S
C68 C75 1.496 . S
C69 C70 1.399 . S
C69 C72 1.389 . S
C70 C69 1.399 . S
C70 C73 1.380 . S
C70 H80 0.929 . S
C71 C68 1.399 . S
C71 C73 1.392 . S
C71 H81 0.929 . S
C72 C68 1.383 . S
C72 C69 1.389 . S
C72 H82 0.931 . S
C73 C70 1.380 . S
C73 C71 1.392 . S
C73 H83 0.929 . S
C74 O54 1.266 . S
C74 O55 1.248 . S
C75 Tb11 2.802 1_556 S
C75 O50 1.264 . S
C75 O53 1.256 . S
C75 C68 1.496 . S
H76 C59 0.929 . S
H77 C60 0.929 . S
H78 C61 0.929 . S
H79 C62 0.931 . S
H80 C70 0.929 . S
H81 C71 0.929 . S
H82 C72 0.931 . S
H83 C73 0.929 . S
Tb84 N113 2.617 . S
Tb84 N119 2.572 . S
Tb84 O128 2.465 . S
Tb84 O129 2.387 . S
Tb84 O131 2.428 . S
Tb84 O132 2.308 . S
Tb84 O136 2.349 . S
Tb84 O139 2.393 . S
Tb84 C148 2.802 . S
C85 N86 1.379 . S
C85 C88 1.416 . S
C85 C92 1.424 . S
N86 C85 1.379 . S
N86 C89 1.334 . S
N86 Tb95 2.617 . S
C87 C89 1.390 . S
C87 C90 1.339 . S
C87 H107 0.930 . S
C88 C85 1.416 . S
C88 C90 1.416 . S
C88 C94 1.448 . S
C89 N86 1.334 . S
C89 C87 1.390 . S
C89 H100 0.930 . S
C90 C87 1.339 . S
C90 C88 1.416 . S
C90 H111 0.930 . S
C91 C92 1.413 . S
C91 C93 1.427 . S
C91 C97 1.416 . S
C92 C85 1.424 . S
C92 C91 1.413 . S
C92 N96 1.361 . S
C93 C91 1.427 . S
C93 C94 1.328 . S
C93 H108 0.929 . S
C94 C88 1.448 . S
C94 C93 1.328 . S
C94 H109 0.930 . S
Tb95 N86 2.617 . S
Tb95 N96 2.572 . S
Tb95 O130 2.349 . S
Tb95 O133 2.393 . S
Tb95 O134 2.465 . S
Tb95 O135 2.387 . S
Tb95 O137 2.428 . S
Tb95 O138 2.308 . S
Tb95 C159 2.802 . S
N96 C92 1.361 . S
N96 Tb95 2.572 . S
N96 C98 1.340 . S
C97 C91 1.416 . S
C97 C99 1.332 . S
C97 H105 0.931 . S
C98 N96 1.340 . S
C98 C99 1.407 . S
C98 H104 0.930 . S
C99 C97 1.332 . S
C99 C98 1.407 . S
C99 H101 0.929 . S
H100 C89 0.930 . S
H101 C99 0.929 . S
H102 C117 0.930 . S
H103 C124 0.929 . S
H104 C98 0.930 . S
H105 C97 0.931 . S
H106 C120 0.930 . S
H107 C87 0.930 . S
H108 C93 0.929 . S
H109 C94 0.930 . S
H110 C115 0.920 1_545 S
H111 C90 0.930 . S
H112 C123 0.931 . S
N113 Tb84 2.617 . S
N113 C114 1.379 . S
N113 C117 1.334 . S
C114 N113 1.379 . S
C114 C116 1.416 . S
C114 C122 1.424 . S
C115 H110 0.920 1_565 S
C115 C117 1.398 . S
C115 C118 1.342 . S
C116 C114 1.416 . S
C116 C118 1.416 . S
C116 C149 1.448 . S
C117 H102 0.930 . S
C117 N113 1.334 . S
C117 C115 1.398 . S
C118 C115 1.342 . S
C118 C116 1.416 . S
C118 H125 0.930 1_565 S
N119 Tb84 2.572 . S
N119 C120 1.340 . S
N119 C122 1.361 . S
C120 H106 0.930 . S
C120 N119 1.340 . S
C120 C124 1.407 . S
C121 C122 1.413 . S
C121 C123 1.416 . S
C121 C150 1.427 . S
C122 C114 1.424 . S
C122 N119 1.361 . S
C122 C121 1.413 . S
C123 H112 0.931 . S
C123 C121 1.416 . S
C123 C124 1.332 . S
C124 H103 0.929 . S
C124 C120 1.407 . S
C124 C123 1.332 . S
H125 C118 0.930 1_545 S
H126 C149 0.930 . S
H127 C150 0.929 . S
O128 Tb84 2.465 . S
O128 C148 1.264 . S
O129 Tb84 2.387 . S
O129 C140 1.264 . S
O130 Tb95 2.349 . S
O130 C140 1.243 . S
O131 Tb84 2.428 . S
O131 C148 1.256 . S
O132 Tb84 2.308 . S
O132 C147 1.266 . S
O133 Tb95 2.393 . S
O133 C147 1.248 . S
O134 Tb95 2.465 . S
O134 C159 1.264 . S
O135 Tb95 2.387 . S
O135 C151 1.264 . S
O136 Tb84 2.349 . S
O136 C151 1.243 . S
O137 Tb95 2.428 . S
O137 C159 1.256 . S
O138 Tb95 2.308 . S
O138 C158 1.266 . S
O139 Tb84 2.393 . S
O139 C158 1.248 . S
C140 O129 1.264 . S
C140 O130 1.243 . S
C141 C144 1.399 . S
C141 C146 1.383 . S
C141 C148 1.496 . S
C142 C143 1.399 . S
C142 C146 1.389 1_556 S
C143 C142 1.399 . S
C143 C145 1.380 1_556 S
C143 H160 0.929 . S
C144 C141 1.399 . S
C144 C145 1.392 . S
C144 H161 0.929 . S
C145 C143 1.380 1_554 S
C145 C144 1.392 . S
C145 H162 0.929 1_554 S
C146 C141 1.383 . S
C146 C142 1.389 1_554 S
C146 H163 0.931 . S
C147 O132 1.266 . S
C147 O133 1.248 . S
C148 Tb84 2.802 . S
C148 O128 1.264 . S
C148 O131 1.256 . S
C148 C141 1.496 . S
C149 C116 1.448 . S
C149 H126 0.930 . S
C149 C150 1.328 . S
C150 C121 1.427 . S
C150 H127 0.929 . S
C150 C149 1.328 . S
C151 O135 1.264 . S
C151 O136 1.243 . S
C152 C155 1.399 . S
C152 C156 1.383 . S
C152 C159 1.496 . S
C153 C154 1.399 . S
C153 C156 1.389 . S
C154 C153 1.399 . S
C154 C157 1.380 . S
C154 H164 0.929 . S
C155 C152 1.399 . S
C155 C157 1.392 . S
C155 H165 0.929 . S
C156 C152 1.383 . S
C156 C153 1.389 . S
C156 H166 0.931 . S
C157 C154 1.380 . S
C157 C155 1.392 . S
C157 H167 0.929 . S
C158 O138 1.266 . S
C158 O139 1.248 . S
C159 Tb95 2.802 . S
C159 O134 1.264 . S
C159 O137 1.256 . S
C159 C152 1.496 . S
H160 C143 0.929 . S
H161 C144 0.929 . S
H162 C145 0.929 1_556 S
H163 C146 0.931 . S
H164 C154 0.929 . S
H165 C155 0.929 . S
H166 C156 0.931 . S
H167 C157 0.929 . S
Tb168 N197 2.617 . S
Tb168 N203 2.572 . S
Tb168 O212 2.465 . S
Tb168 O213 2.387 . S
Tb168 O215 2.428 . S
Tb168 O216 2.308 . S
Tb168 O220 2.349 . S
Tb168 O223 2.393 . S
Tb168 C232 2.802 . S
C169 N170 1.379 . S
C169 C172 1.416 . S
C169 C176 1.424 . S
N170 C169 1.379 . S
N170 C173 1.334 . S
N170 Tb179 2.617 . S
C171 C173 1.390 . S
C171 C174 1.339 . S
C171 H191 0.930 . S
C172 C169 1.416 . S
C172 C174 1.416 . S
C172 C178 1.448 . S
C173 N170 1.334 . S
C173 C171 1.390 . S
C173 H184 0.930 . S
C174 C171 1.339 . S
C174 C172 1.416 . S
C174 H195 0.930 . S
C175 C176 1.413 . S
C175 C177 1.427 . S
C175 C181 1.416 . S
C176 C169 1.424 . S
C176 C175 1.413 . S
C176 N180 1.361 . S
C177 C175 1.427 . S
C177 C178 1.328 . S
C177 H192 0.929 . S
C178 C172 1.448 . S
C178 C177 1.328 . S
C178 H193 0.930 . S
Tb179 N170 2.617 . S
Tb179 N180 2.572 . S
Tb179 O214 2.349 . S
Tb179 O217 2.393 . S
Tb179 O218 2.465 . S
Tb179 O219 2.387 . S
Tb179 O221 2.428 . S
Tb179 O222 2.308 . S
Tb179 C243 2.802 . S
N180 C176 1.361 . S
N180 Tb179 2.572 . S
N180 C182 1.340 . S
C181 C175 1.416 . S
C181 C183 1.332 . S
C181 H189 0.931 . S
C182 N180 1.340 . S
C182 C183 1.407 . S
C182 H188 0.930 . S
C183 C181 1.332 . S
C183 C182 1.407 . S
C183 H185 0.929 . S
H184 C173 0.930 . S
H185 C183 0.929 . S
H186 C201 0.930 . S
H187 C208 0.929 . S
H188 C182 0.930 . S
H189 C181 0.931 . S
H190 C204 0.930 . S
H191 C171 0.930 . S
H192 C177 0.929 . S
H193 C178 0.930 . S
H194 C199 0.930 . S
H195 C174 0.930 . S
H196 C207 0.931 . S
N197 Tb168 2.617 . S
N197 C198 1.379 . S
N197 C201 1.334 . S
C198 N197 1.379 . S
C198 C200 1.416 . S
C198 C206 1.424 . S
C199 H194 0.930 . S
C199 C201 1.390 . S
C199 C202 1.339 . S
C200 C198 1.416 . S
C200 C202 1.416 . S
C200 C233 1.448 . S
C201 H186 0.930 . S
C201 N197 1.334 . S
C201 C199 1.390 . S
C202 C199 1.339 . S
C202 C200 1.416 . S
C202 H209 0.930 . S
N203 Tb168 2.572 . S
N203 C204 1.340 . S
N203 C206 1.361 . S
C204 H190 0.930 . S
C204 N203 1.340 . S
C204 C208 1.407 . S
C205 C206 1.413 . S
C205 C207 1.416 . S
C205 C234 1.427 . S
C206 C198 1.424 . S
C206 N203 1.361 . S
C206 C205 1.413 . S
C207 H196 0.931 . S
C207 C205 1.416 . S
C207 C208 1.332 . S
C208 H187 0.929 . S
C208 C204 1.407 . S
C208 C207 1.332 . S
H209 C202 0.930 . S
H210 C233 0.930 . S
H211 C234 0.929 . S
O212 Tb168 2.465 . S
O212 C232 1.264 . S
O213 Tb168 2.387 . S
O213 C224 1.264 . S
O214 Tb179 2.349 . S
O214 C224 1.243 . S
O215 Tb168 2.428 . S
O215 C232 1.256 . S
O216 Tb168 2.308 . S
O216 C231 1.266 . S
O217 Tb179 2.393 . S
O217 C231 1.248 . S
O218 Tb179 2.465 . S
O218 C243 1.264 . S
O219 Tb179 2.387 . S
O219 C235 1.264 . S
O220 Tb168 2.349 . S
O220 C235 1.243 . S
O221 Tb179 2.428 . S
O221 C243 1.256 . S
O222 Tb179 2.308 . S
O222 C242 1.266 . S
O223 Tb168 2.393 . S
O223 C242 1.248 . S
C224 O213 1.264 . S
C224 O214 1.243 . S
C225 C228 1.399 . S
C225 C230 1.383 . S
C225 C232 1.496 . S
C226 C227 1.399 . S
C226 C230 1.389 . S
C227 C226 1.399 . S
C227 C229 1.380 . S
C227 H244 0.929 . S
C228 C225 1.399 . S
C228 C229 1.392 . S
C228 H245 0.929 . S
C229 C227 1.380 . S
C229 C228 1.392 . S
C229 H246 0.929 . S
C230 C225 1.383 . S
C230 C226 1.389 . S
C230 H247 0.931 . S
C231 O216 1.266 . S
C231 O217 1.248 . S
C232 Tb168 2.802 . S
C232 O212 1.264 . S
C232 O215 1.256 . S
C232 C225 1.496 . S
C233 C200 1.448 . S
C233 H210 0.930 . S
C233 C234 1.328 . S
C234 C205 1.427 . S
C234 H211 0.929 . S
C234 C233 1.328 . S
C235 O219 1.264 . S
C235 O220 1.243 . S
C236 C239 1.399 . S
C236 C240 1.383 . S
C236 C243 1.496 . S
C237 C238 1.399 . S
C237 C240 1.389 1_554 S
C238 C237 1.399 . S
C238 C241 1.389 . S
C238 H248 0.929 . S
C239 C236 1.399 . S
C239 C241 1.374 1_556 S
C239 H249 0.929 . S
C240 C236 1.383 . S
C240 C237 1.389 1_556 S
C240 H250 0.931 . S
C241 C238 1.389 . S
C241 C239 1.374 1_554 S
C241 H251 0.938 . S
C242 O222 1.266 . S
C242 O223 1.248 . S
C243 Tb179 2.802 . S
C243 O218 1.264 . S
C243 O221 1.256 . S
C243 C236 1.496 . S
H244 C227 0.929 . S
H245 C228 0.929 . S
H246 C229 0.929 . S
H247 C230 0.931 . S
H248 C238 0.929 . S
H249 C239 0.929 . S
H250 C240 0.931 . S
H251 C241 0.938 . S
Tb252 N281 2.617 . S
Tb252 N287 2.572 1_556 S
Tb252 O296 2.465 1_556 S
Tb252 O297 2.387 . S
Tb252 O299 2.428 1_556 S
Tb252 O300 2.308 . S
Tb252 O304 2.349 . S
Tb252 O307 2.393 . S
Tb252 C316 2.802 1_556 S
C253 N254 1.379 . S
C253 C256 1.416 . S
C253 C260 1.424 . S
N254 C253 1.379 . S
N254 C257 1.334 . S
N254 Tb263 2.617 . S
C255 C257 1.390 . S
C255 C258 1.339 . S
C255 H275 0.930 1_655 S
C256 C253 1.416 . S
C256 C258 1.416 . S
C256 C262 1.448 1_545 S
C257 N254 1.334 . S
C257 C255 1.390 . S
C257 H268 0.930 . S
C258 C255 1.339 . S
C258 C256 1.416 . S
C258 H279 0.930 1_545 S
C259 C260 1.413 1_565 S
C259 C261 1.427 . S
C259 C265 1.416 . S
C260 C253 1.424 . S
C260 C259 1.413 1_545 S
C260 N264 1.361 . S
C261 C259 1.427 . S
C261 C262 1.328 . S
C261 H276 0.929 . S
C262 C256 1.448 1_565 S
C262 C261 1.328 . S
C262 H277 0.930 . S
Tb263 N254 2.617 . S
Tb263 N264 2.572 . S
Tb263 O298 2.349 . S
Tb263 O301 2.393 . S
Tb263 O302 2.465 . S
Tb263 O303 2.387 . S
Tb263 O305 2.428 . S
Tb263 O306 2.308 . S
Tb263 C327 2.802 . S
N264 C260 1.361 . S
N264 Tb263 2.572 . S
N264 C266 1.340 . S
C265 C259 1.416 . S
C265 C267 1.332 1_565 S
C265 H273 0.931 . S
C266 N264 1.340 . S
C266 C267 1.407 . S
C266 H272 0.930 . S
C267 C265 1.332 1_545 S
C267 C266 1.407 . S
C267 H269 0.929 . S
H268 C257 0.930 . S
H269 C267 0.929 . S
H270 C285 0.930 . S
H271 C292 0.929 . S
H272 C266 0.930 . S
H273 C265 0.931 . S
H274 C288 0.930 . S
H275 C255 0.930 1_455 S
H276 C261 0.929 . S
H277 C262 0.930 . S
H278 C283 0.930 . S
H279 C258 0.930 1_565 S
H280 C291 0.931 . S
N281 Tb252 2.617 . S
N281 C282 1.379 1_556 S
N281 C285 1.334 . S
C282 N281 1.379 1_554 S
C282 C284 1.416 . S
C282 C290 1.424 . S
C283 H278 0.930 . S
C283 C285 1.390 . S
C283 C286 1.339 . S
C284 C282 1.416 . S
C284 C286 1.416 1_554 S
C284 C317 1.448 . S
C285 H270 0.930 . S
C285 N281 1.334 . S
C285 C283 1.390 . S
C286 C283 1.339 . S
C286 C284 1.416 1_556 S
C286 H293 0.930 . S
N287 Tb252 2.572 1_554 S
N287 C288 1.340 . S
N287 C290 1.361 . S
C288 H274 0.930 . S
C288 N287 1.340 . S
C288 C292 1.407 . S
C289 C290 1.413 . S
C289 C291 1.416 . S
C289 C318 1.427 . S
C290 C282 1.424 . S
C290 N287 1.361 . S
C290 C289 1.413 . S
C291 H280 0.931 . S
C291 C289 1.416 . S
C291 C292 1.332 . S
C292 H271 0.929 . S
C292 C288 1.407 . S
C292 C291 1.332 . S
H293 C286 0.930 . S
H294 C317 0.930 . S
H295 C318 0.929 . S
O296 Tb252 2.465 1_554 S
O296 C316 1.264 . S
O297 Tb252 2.387 . S
O297 C308 1.264 . S
O298 Tb263 2.349 . S
O298 C308 1.243 . S
O299 Tb252 2.428 1_554 S
O299 C316 1.256 . S
O300 Tb252 2.308 . S
O300 C315 1.266 . S
O301 Tb263 2.393 . S
O301 C315 1.248 . S
O302 Tb263 2.465 . S
O302 C327 1.264 . S
O303 Tb263 2.387 . S
O303 C319 1.264 . S
O304 Tb252 2.349 . S
O304 C319 1.243 . S
O305 Tb263 2.428 . S
O305 C327 1.256 . S
O306 Tb263 2.308 . S
O306 C326 1.266 . S
O307 Tb252 2.393 . S
O307 C326 1.248 . S
C308 O297 1.264 . S
C308 O298 1.243 . S
C309 C312 1.399 . S
C309 C314 1.383 . S
C309 C316 1.496 . S
C310 C311 1.399 . S
C310 C314 1.389 . S
C311 C310 1.399 . S
C311 C313 1.380 . S
C311 H328 0.929 . S
C312 C309 1.399 . S
C312 C313 1.392 . S
C312 H329 0.929 . S
C313 C311 1.380 . S
C313 C312 1.392 . S
C313 H330 0.929 . S
C314 C309 1.383 . S
C314 C310 1.389 . S
C314 H331 0.931 . S
C315 O300 1.266 . S
C315 O301 1.248 . S
C316 Tb252 2.802 1_554 S
C316 O296 1.264 . S
C316 O299 1.256 . S
C316 C309 1.496 . S
C317 C284 1.448 . S
C317 H294 0.930 . S
C317 C318 1.328 . S
C318 C289 1.427 . S
C318 H295 0.929 . S
C318 C317 1.328 . S
C319 O303 1.264 . S
C319 O304 1.243 . S
C320 C323 1.399 . S
C320 C324 1.383 . S
C320 C327 1.496 . S
C321 C322 1.399 . S
C321 C324 1.389 . S
C322 C321 1.399 . S
C322 C325 1.380 . S
C322 H332 0.929 . S
C323 C320 1.399 . S
C323 C325 1.392 . S
C323 H333 0.929 . S
C324 C320 1.383 . S
C324 C321 1.389 . S
C324 H334 0.931 . S
C325 C322 1.380 . S
C325 C323 1.392 . S
C325 H335 0.929 . S
C326 O306 1.266 . S
C326 O307 1.248 . S
C327 Tb263 2.802 . S
C327 O302 1.264 . S
C327 O305 1.256 . S
C327 C320 1.496 . S
H328 C311 0.929 . S
H329 C312 0.929 . S
H330 C313 0.929 . S
H331 C314 0.931 . S
H332 C322 0.929 . S
H333 C323 0.929 . S
H334 C324 0.931 . S
H335 C325 0.929 . S
Tb336 N365 2.617 . S
Tb336 N371 2.572 . S
Tb336 O380 2.465 . S
Tb336 O381 2.387 . S
Tb336 O383 2.428 . S
Tb336 O384 2.308 . S
Tb336 O388 2.349 . S
Tb336 O391 2.393 . S
Tb336 C400 2.802 . S
C337 N338 1.379 1_554 S
C337 C340 1.416 . S
C337 C344 1.424 . S
N338 C337 1.379 1_556 S
N338 C341 1.334 . S
N338 Tb347 2.617 . S
C339 C341 1.390 . S
C339 C342 1.339 . S
C339 H359 0.930 . S
C340 C337 1.416 . S
C340 C342 1.416 1_554 S
C340 C346 1.448 . S
C341 N338 1.334 . S
C341 C339 1.390 . S
C341 H352 0.930 . S
C342 C339 1.339 . S
C342 C340 1.416 1_556 S
C342 H363 0.930 . S
C343 C344 1.413 . S
C343 C345 1.427 . S
C343 C349 1.416 . S
C344 C337 1.424 . S
C344 C343 1.413 . S
C344 N348 1.361 . S
C345 C343 1.427 . S
C345 C346 1.328 . S
C345 H360 0.929 . S
C346 C340 1.448 . S
C346 C345 1.328 . S
C346 H361 0.930 . S
Tb347 N338 2.617 . S
Tb347 N348 2.572 1_556 S
Tb347 O382 2.349 . S
Tb347 O385 2.393 . S
Tb347 O386 2.465 1_556 S
Tb347 O387 2.387 . S
Tb347 O389 2.428 1_556 S
Tb347 O390 2.308 . S
Tb347 C411 2.802 1_556 S
N348 C344 1.361 . S
N348 Tb347 2.572 1_554 S
N348 C350 1.340 . S
C349 C343 1.416 . S
C349 C351 1.332 . S
C349 H357 0.931 . S
C350 N348 1.340 . S
C350 C351 1.407 . S
C350 H356 0.930 . S
C351 C349 1.332 . S
C351 C350 1.407 . S
C351 H353 0.929 . S
H352 C341 0.930 . S
H353 C351 0.929 . S
H354 C369 0.930 . S
H355 C376 0.929 . S
H356 C350 0.930 . S
H357 C349 0.931 . S
H358 C372 0.930 . S
H359 C339 0.930 . S
H360 C345 0.929 . S
H361 C346 0.930 . S
H362 C367 0.930 . S
H363 C342 0.930 . S
H364 C375 0.931 1_655 S
N365 Tb336 2.617 . S
N365 C366 1.379 . S
N365 C369 1.334 . S
C366 N365 1.379 . S
C366 C368 1.416 . S
C366 C374 1.424 . S
C367 H362 0.930 . S
C367 C369 1.390 . S
C367 C370 1.339 . S
C368 C366 1.416 . S
C368 C370 1.416 . S
C368 C401 1.448 1_455 S
C369 H354 0.930 . S
C369 N365 1.334 . S
C369 C367 1.390 . S
C370 C367 1.339 . S
C370 C368 1.416 . S
C370 H377 0.930 . S
N371 Tb336 2.572 . S
N371 C372 1.340 . S
N371 C374 1.361 . S
C372 H358 0.930 . S
C372 N371 1.340 . S
C372 C376 1.407 . S
C373 C374 1.413 . S
C373 C375 1.416 . S
C373 C402 1.427 1_455 S
C374 C366 1.424 . S
C374 N371 1.361 . S
C374 C373 1.413 . S
C375 H364 0.931 1_455 S
C375 C373 1.416 . S
C375 C376 1.332 . S
C376 H355 0.929 . S
C376 C372 1.407 . S
C376 C375 1.332 . S
H377 C370 0.930 . S
H378 C401 0.930 . S
H379 C402 0.929 . S
O380 Tb336 2.465 . S
O380 C400 1.264 . S
O381 Tb336 2.387 . S
O381 C392 1.264 . S
O382 Tb347 2.349 . S
O382 C392 1.243 . S
O383 Tb336 2.428 . S
O383 C400 1.256 . S
O384 Tb336 2.308 . S
O384 C399 1.266 . S
O385 Tb347 2.393 . S
O385 C399 1.248 . S
O386 Tb347 2.465 1_554 S
O386 C411 1.264 . S
O387 Tb347 2.387 . S
O387 C403 1.264 . S
O388 Tb336 2.349 . S
O388 C403 1.243 . S
O389 Tb347 2.428 1_554 S
O389 C411 1.256 . S
O390 Tb347 2.308 . S
O390 C410 1.266 . S
O391 Tb336 2.393 . S
O391 C410 1.248 . S
C392 O381 1.264 . S
C392 O382 1.243 . S
C393 C396 1.399 . S
C393 C398 1.383 . S
C393 C400 1.496 . S
C394 C395 1.399 . S
C394 C398 1.389 . S
C395 C394 1.399 . S
C395 C397 1.380 . S
C395 H412 0.929 . S
C396 C393 1.399 . S
C396 C397 1.392 . S
C396 H413 0.929 . S
C397 C395 1.380 . S
C397 C396 1.392 . S
C397 H414 0.929 . S
C398 C393 1.383 . S
C398 C394 1.389 . S
C398 H415 0.931 . S
C399 O384 1.266 . S
C399 O385 1.248 . S
C400 Tb336 2.802 . S
C400 O380 1.264 . S
C400 O383 1.256 . S
C400 C393 1.496 . S
C401 C368 1.448 1_655 S
C401 H378 0.930 . S
C401 C402 1.328 . S
C402 C373 1.427 1_655 S
C402 H379 0.929 . S
C402 C401 1.328 . S
C403 O387 1.264 . S
C403 O388 1.243 . S
C404 C407 1.399 . S
C404 C408 1.383 . S
C404 C411 1.496 . S
C405 C406 1.399 . S
C405 C408 1.389 . S
C406 C405 1.399 . S
C406 C409 1.380 . S
C406 H416 0.929 . S
C407 C404 1.399 . S
C407 C409 1.392 . S
C407 H417 0.929 . S
C408 C404 1.383 . S
C408 C405 1.389 . S
C408 H418 0.931 . S
C409 C406 1.380 . S
C409 C407 1.392 . S
C409 H419 0.929 . S
C410 O390 1.266 . S
C410 O391 1.248 . S
C411 Tb347 2.802 1_554 S
C411 O386 1.264 . S
C411 O389 1.256 . S
C411 C404 1.496 . S
H412 C395 0.929 . S
H413 C396 0.929 . S
H414 C397 0.929 . S
H415 C398 0.931 . S
H416 C406 0.929 . S
H417 C407 0.929 . S
H418 C408 0.931 . S
H419 C409 0.929 . S
Tb420 N449 2.617 . S
Tb420 N455 2.572 . S
Tb420 O464 2.465 . S
Tb420 O465 2.387 . S
Tb420 O467 2.428 . S
Tb420 O468 2.308 . S
Tb420 O472 2.349 . S
Tb420 O475 2.393 . S
Tb420 C484 2.802 . S
C421 N422 1.379 1_556 S
C421 C424 1.416 . S
C421 C428 1.424 . S
N422 C421 1.379 1_554 S
N422 C425 1.334 . S
N422 Tb431 2.617 . S
C423 C425 1.390 . S
C423 C426 1.339 . S
C423 H443 0.930 . S
C424 C421 1.416 . S
C424 C426 1.416 1_556 S
C424 C430 1.448 . S
C425 N422 1.334 . S
C425 C423 1.390 . S
C425 H436 0.930 . S
C426 C423 1.339 . S
C426 C424 1.416 1_554 S
C426 H447 0.930 . S
C427 C428 1.413 . S
C427 C429 1.427 . S
C427 C433 1.416 . S
C428 C421 1.424 . S
C428 C427 1.413 . S
C428 N432 1.361 . S
C429 C427 1.427 . S
C429 C430 1.328 . S
C429 H444 0.929 . S
C430 C424 1.448 . S
C430 C429 1.328 . S
C430 H445 0.930 . S
Tb431 N422 2.617 . S
Tb431 N432 2.572 1_554 S
Tb431 O466 2.349 . S
Tb431 O469 2.393 . S
Tb431 O470 2.465 1_554 S
Tb431 O471 2.387 . S
Tb431 O473 2.428 1_554 S
Tb431 O474 2.308 . S
Tb431 C495 2.802 1_554 S
N432 C428 1.361 . S
N432 Tb431 2.572 1_556 S
N432 C434 1.340 . S
C433 C427 1.416 . S
C433 C435 1.332 . S
C433 H441 0.931 . S
C434 N432 1.340 . S
C434 C435 1.407 . S
C434 H440 0.930 . S
C435 C433 1.332 . S
C435 C434 1.407 . S
C435 H437 0.929 . S
H436 C425 0.930 . S
H437 C435 0.929 . S
H438 C453 0.930 . S
H439 C460 0.929 . S
H440 C434 0.930 . S
H441 C433 0.931 . S
H442 C456 0.930 . S
H443 C423 0.930 . S
H444 C429 0.929 . S
H445 C430 0.930 . S
H446 C451 0.930 1_545 S
H447 C426 0.930 . S
H448 C459 0.905 1_455 S
N449 Tb420 2.617 . S
N449 C450 1.379 . S
N449 C453 1.334 . S
C450 N449 1.379 . S
C450 C452 1.416 . S
C450 C458 1.424 . S
C451 H446 0.930 1_565 S
C451 C453 1.390 . S
C451 C454 1.339 . S
C452 C450 1.416 . S
C452 C454 1.416 . S
C452 C485 1.448 1_655 S
C453 H438 0.930 . S
C453 N449 1.334 . S
C453 C451 1.390 . S
C454 C451 1.339 . S
C454 C452 1.416 . S
C454 H461 0.930 1_565 S
N455 Tb420 2.572 . S
N455 C456 1.340 . S
N455 C458 1.361 . S
C456 H442 0.930 . S
C456 N455 1.340 . S
C456 C460 1.407 . S
C457 C458 1.413 . S
C457 C459 1.421 . S
C457 C486 1.427 1_655 S
C458 C450 1.424 . S
C458 N455 1.361 . S
C458 C457 1.413 . S
C459 H448 0.905 1_655 S
C459 C457 1.421 . S
C459 C460 1.353 . S
C460 H439 0.929 . S
C460 C456 1.407 . S
C460 C459 1.353 . S
H461 C454 0.930 1_545 S
H462 C485 0.930 . S
H463 C486 0.929 . S
O464 Tb420 2.465 . S
O464 C484 1.264 . S
O465 Tb420 2.387 . S
O465 C476 1.264 . S
O466 Tb431 2.349 . S
O466 C476 1.243 . S
O467 Tb420 2.428 . S
O467 C484 1.256 . S
O468 Tb420 2.308 . S
O468 C483 1.266 . S
O469 Tb431 2.393 . S
O469 C483 1.248 . S
O470 Tb431 2.465 1_556 S
O470 C495 1.264 . S
O471 Tb431 2.387 . S
O471 C487 1.264 . S
O472 Tb420 2.349 . S
O472 C487 1.243 . S
O473 Tb431 2.428 1_556 S
O473 C495 1.256 . S
O474 Tb431 2.308 . S
O474 C494 1.266 . S
O475 Tb420 2.393 . S
O475 C494 1.248 . S
C476 O465 1.264 . S
C476 O466 1.243 . S
C477 C480 1.399 . S
C477 C482 1.383 . S
C477 C484 1.496 . S
C478 C479 1.399 . S
C478 C482 1.389 . S
C479 C478 1.399 . S
C479 C481 1.380 . S
C479 H496 0.929 . S
C480 C477 1.399 . S
C480 C481 1.392 . S
C480 H497 0.929 . S
C481 C479 1.380 . S
C481 C480 1.392 . S
C481 H498 0.929 . S
C482 C477 1.383 . S
C482 C478 1.389 . S
C482 H499 0.931 . S
C483 O468 1.266 . S
C483 O469 1.248 . S
C484 Tb420 2.802 . S
C484 O464 1.264 . S
C484 O467 1.256 . S
C484 C477 1.496 . S
C485 C452 1.448 1_455 S
C485 H462 0.930 . S
C485 C486 1.328 . S
C486 C457 1.427 1_455 S
C486 H463 0.929 . S
C486 C485 1.328 . S
C487 O471 1.264 . S
C487 O472 1.243 . S
C488 C491 1.399 . S
C488 C492 1.383 . S
C488 C495 1.496 . S
C489 C490 1.399 . S
C489 C492 1.389 . S
C490 C489 1.399 . S
C490 C493 1.380 . S
C490 H500 0.929 . S
C491 C488 1.399 . S
C491 C493 1.392 . S
C491 H501 0.929 . S
C492 C488 1.383 . S
C492 C489 1.389 . S
C492 H502 0.931 . S
C493 C490 1.380 . S
C493 C491 1.392 . S
C493 H503 0.929 . S
C494 O474 1.266 . S
C494 O475 1.248 . S
C495 Tb431 2.802 1_556 S
C495 O470 1.264 . S
C495 O473 1.256 . S
C495 C488 1.496 . S
H496 C479 0.929 . S
H497 C480 0.929 . S
H498 C481 0.929 . S
H499 C482 0.931 . S
H500 C490 0.929 . S
H501 C491 0.929 . S
H502 C492 0.931 . S
H503 C493 0.929 . S
Tb504 N533 2.617 . S
Tb504 N539 2.572 . S
Tb504 O548 2.465 . S
Tb504 O549 2.387 . S
Tb504 O551 2.428 . S
Tb504 O552 2.308 . S
Tb504 O556 2.349 . S
Tb504 O559 2.393 . S
Tb504 C568 2.802 . S
C505 N506 1.379 . S
C505 C508 1.416 . S
C505 C512 1.424 . S
N506 C505 1.379 . S
N506 C509 1.334 . S
N506 Tb515 2.617 . S
C507 C509 1.390 . S
C507 C510 1.339 . S
C507 H527 0.930 . S
C508 C505 1.416 . S
C508 C510 1.416 . S
C508 C514 1.448 . S
C509 N506 1.334 . S
C509 C507 1.390 . S
C509 H520 0.930 . S
C510 C507 1.339 . S
C510 C508 1.416 . S
C510 H531 0.930 . S
C511 C512 1.413 . S
C511 C513 1.427 . S
C511 C517 1.416 . S
C512 C505 1.424 . S
C512 C511 1.413 . S
C512 N516 1.361 . S
C513 C511 1.427 . S
C513 C514 1.328 . S
C513 H528 0.929 . S
C514 C508 1.448 . S
C514 C513 1.328 . S
C514 H529 0.930 . S
Tb515 N506 2.617 . S
Tb515 N516 2.572 . S
Tb515 O550 2.349 . S
Tb515 O553 2.393 . S
Tb515 O554 2.465 . S
Tb515 O555 2.387 . S
Tb515 O557 2.428 . S
Tb515 O558 2.308 . S
Tb515 C579 2.802 . S
N516 C512 1.361 . S
N516 Tb515 2.572 . S
N516 C518 1.340 . S
C517 C511 1.416 . S
C517 C519 1.332 . S
C517 H525 0.931 . S
C518 N516 1.340 . S
C518 C519 1.407 . S
C518 H524 0.930 . S
C519 C517 1.332 . S
C519 C518 1.407 . S
C519 H521 0.929 . S
H520 C509 0.930 . S
H521 C519 0.929 . S
H522 C537 0.930 . S
H523 C544 0.929 . S
H524 C518 0.930 . S
H525 C517 0.931 . S
H526 C540 0.930 . S
H527 C507 0.930 . S
H528 C513 0.929 . S
H529 C514 0.930 . S
H530 C535 0.930 . S
H531 C510 0.930 . S
H532 C543 0.931 . S
N533 Tb504 2.617 . S
N533 C534 1.379 . S
N533 C537 1.334 . S
C534 N533 1.379 . S
C534 C536 1.416 . S
C534 C542 1.424 . S
C535 H530 0.930 . S
C535 C537 1.390 . S
C535 C538 1.339 . S
C536 C534 1.416 . S
C536 C538 1.416 . S
C536 C569 1.448 . S
C537 H522 0.930 . S
C537 N533 1.334 . S
C537 C535 1.390 . S
C538 C535 1.339 . S
C538 C536 1.416 . S
C538 H545 0.930 . S
N539 Tb504 2.572 . S
N539 C540 1.340 . S
N539 C542 1.361 . S
C540 H526 0.930 . S
C540 N539 1.340 . S
C540 C544 1.407 . S
C541 C542 1.413 . S
C541 C543 1.416 . S
C541 C570 1.427 . S
C542 C534 1.424 . S
C542 N539 1.361 . S
C542 C541 1.413 . S
C543 H532 0.931 . S
C543 C541 1.416 . S
C543 C544 1.332 . S
C544 H523 0.929 . S
C544 C540 1.407 . S
C544 C543 1.332 . S
H545 C538 0.930 . S
H546 C569 0.930 . S
H547 C570 0.929 . S
O548 Tb504 2.465 . S
O548 C568 1.264 . S
O549 Tb504 2.387 . S
O549 C560 1.264 . S
O550 Tb515 2.349 . S
O550 C560 1.243 . S
O551 Tb504 2.428 . S
O551 C568 1.256 . S
O552 Tb504 2.308 . S
O552 C567 1.266 . S
O553 Tb515 2.393 . S
O553 C567 1.248 . S
O554 Tb515 2.465 . S
O554 C579 1.264 . S
O555 Tb515 2.387 . S
O555 C571 1.264 . S
O556 Tb504 2.349 . S
O556 C571 1.243 . S
O557 Tb515 2.428 . S
O557 C579 1.256 . S
O558 Tb515 2.308 . S
O558 C578 1.266 . S
O559 Tb504 2.393 . S
O559 C578 1.248 . S
C560 O549 1.264 . S
C560 O550 1.243 . S
C561 C564 1.399 . S
C561 C566 1.383 . S
C561 C568 1.496 . S
C562 C563 1.399 . S
C562 C566 1.389 . S
C563 C562 1.399 . S
C563 C565 1.380 . S
C563 H580 0.929 . S
C564 C561 1.399 . S
C564 C565 1.392 . S
C564 H581 0.929 . S
C565 C563 1.380 . S
C565 C564 1.392 . S
C565 H582 0.929 . S
C566 C561 1.383 . S
C566 C562 1.389 . S
C566 H583 0.931 . S
C567 O552 1.266 . S
C567 O553 1.248 . S
C568 Tb504 2.802 . S
C568 O548 1.264 . S
C568 O551 1.256 . S
C568 C561 1.496 . S
C569 C536 1.448 . S
C569 H546 0.930 . S
C569 C570 1.328 . S
C570 C541 1.427 . S
C570 H547 0.929 . S
C570 C569 1.328 . S
C571 O555 1.264 . S
C571 O556 1.243 . S
C572 C575 1.399 . S
C572 C576 1.383 . S
C572 C579 1.496 . S
C573 C574 1.399 . S
C573 C576 1.389 1_556 S
C574 C573 1.399 . S
C574 C577 1.380 1_556 S
C574 H584 0.929 . S
C575 C572 1.399 . S
C575 C577 1.392 . S
C575 H585 0.929 . S
C576 C572 1.383 . S
C576 C573 1.389 1_554 S
C576 H586 0.931 . S
C577 C574 1.380 1_554 S
C577 C575 1.392 . S
C577 H587 0.929 1_554 S
C578 O558 1.266 . S
C578 O559 1.248 . S
C579 Tb515 2.802 . S
C579 O554 1.264 . S
C579 O557 1.256 . S
C579 C572 1.496 . S
H580 C563 0.929 . S
H581 C564 0.929 . S
H582 C565 0.929 . S
H583 C566 0.931 . S
H584 C574 0.929 . S
H585 C575 0.929 . S
H586 C576 0.931 . S
H587 C577 0.929 1_556 S
Tb588 N617 2.617 . S
Tb588 N623 2.572 . S
Tb588 O632 2.465 . S
Tb588 O633 2.387 . S
Tb588 O635 2.428 . S
Tb588 O636 2.308 . S
Tb588 O640 2.349 . S
Tb588 O643 2.393 . S
Tb588 C652 2.802 . S
C589 N590 1.379 . S
C589 C592 1.416 . S
C589 C596 1.424 . S
N590 C589 1.379 . S
N590 C593 1.334 . S
N590 Tb599 2.617 . S
C591 C593 1.390 . S
C591 C594 1.339 . S
C591 H611 0.930 . S
C592 C589 1.416 . S
C592 C594 1.416 . S
C592 C598 1.448 1_545 S
C593 N590 1.334 . S
C593 C591 1.390 . S
C593 H604 0.930 . S
C594 C591 1.339 . S
C594 C592 1.416 . S
C594 H615 0.930 1_545 S
C595 C596 1.413 1_565 S
C595 C597 1.427 . S
C595 C601 1.416 . S
C596 C589 1.424 . S
C596 C595 1.413 1_545 S
C596 N600 1.361 . S
C597 C595 1.427 . S
C597 C598 1.328 . S
C597 H612 0.929 . S
C598 C592 1.448 1_565 S
C598 C597 1.328 . S
C598 H613 0.930 . S
Tb599 N590 2.617 . S
Tb599 N600 2.572 . S
Tb599 O634 2.349 . S
Tb599 O637 2.393 . S
Tb599 O638 2.465 . S
Tb599 O639 2.387 . S
Tb599 O641 2.428 . S
Tb599 O642 2.308 . S
Tb599 C663 2.802 . S
N600 C596 1.361 . S
N600 Tb599 2.572 . S
N600 C602 1.340 . S
C601 C595 1.416 . S
C601 C603 1.332 1_565 S
C601 H609 0.931 . S
C602 N600 1.340 . S
C602 C603 1.407 . S
C602 H608 0.930 . S
C603 C601 1.332 1_545 S
C603 C602 1.407 . S
C603 H605 0.929 . S
H604 C593 0.930 . S
H605 C603 0.929 . S
H606 C621 0.930 . S
H607 C628 0.929 . S
H608 C602 0.930 . S
H609 C601 0.931 . S
H610 C624 0.930 . S
H611 C591 0.930 . S
H612 C597 0.929 . S
H613 C598 0.930 . S
H614 C619 0.930 . S
H615 C594 0.930 1_565 S
H616 C627 0.931 . S
N617 Tb588 2.617 . S
N617 C618 1.379 . S
N617 C621 1.334 . S
C618 N617 1.379 . S
C618 C620 1.416 . S
C618 C626 1.424 . S
C619 H614 0.930 . S
C619 C621 1.390 . S
C619 C622 1.339 . S
C620 C618 1.416 . S
C620 C622 1.416 . S
C620 C653 1.448 . S
C621 H606 0.930 . S
C621 N617 1.334 . S
C621 C619 1.390 . S
C622 C619 1.339 . S
C622 C620 1.416 . S
C622 H629 0.930 . S
N623 Tb588 2.572 . S
N623 C624 1.340 . S
N623 C626 1.361 . S
C624 H610 0.930 . S
C624 N623 1.340 . S
C624 C628 1.407 . S
C625 C626 1.413 . S
C625 C627 1.416 . S
C625 C654 1.427 . S
C626 C618 1.424 . S
C626 N623 1.361 . S
C626 C625 1.413 . S
C627 H616 0.931 . S
C627 C625 1.416 . S
C627 C628 1.332 . S
C628 H607 0.929 . S
C628 C624 1.407 . S
C628 C627 1.332 . S
H629 C622 0.930 . S
H630 C653 0.930 . S
H631 C654 0.929 . S
O632 Tb588 2.465 . S
O632 C652 1.264 . S
O633 Tb588 2.387 . S
O633 C644 1.264 . S
O634 Tb599 2.349 . S
O634 C644 1.243 . S
O635 Tb588 2.428 . S
O635 C652 1.256 . S
O636 Tb588 2.308 . S
O636 C651 1.266 . S
O637 Tb599 2.393 . S
O637 C651 1.248 . S
O638 Tb599 2.465 . S
O638 C663 1.264 . S
O639 Tb599 2.387 . S
O639 C655 1.264 . S
O640 Tb588 2.349 . S
O640 C655 1.243 . S
O641 Tb599 2.428 . S
O641 C663 1.256 . S
O642 Tb599 2.308 . S
O642 C662 1.266 . S
O643 Tb588 2.393 . S
O643 C662 1.248 . S
C644 O633 1.264 . S
C644 O634 1.243 . S
C645 C648 1.399 . S
C645 C650 1.383 . S
C645 C652 1.496 . S
C646 C647 1.399 . S
C646 C650 1.389 . S
C647 C646 1.399 . S
C647 C649 1.380 . S
C647 H664 0.929 . S
C648 C645 1.399 . S
C648 C649 1.392 . S
C648 H665 0.929 . S
C649 C647 1.380 . S
C649 C648 1.392 . S
C649 H666 0.929 . S
C650 C645 1.383 . S
C650 C646 1.389 . S
C650 H667 0.931 . S
C651 O636 1.266 . S
C651 O637 1.248 . S
C652 Tb588 2.802 . S
C652 O632 1.264 . S
C652 O635 1.256 . S
C652 C645 1.496 . S
C653 C620 1.448 . S
C653 H630 0.930 . S
C653 C654 1.328 . S
C654 C625 1.427 . S
C654 H631 0.929 . S
C654 C653 1.328 . S
C655 O639 1.264 . S
C655 O640 1.243 . S
C656 C659 1.399 . S
C656 C660 1.383 . S
C656 C663 1.496 . S
C657 C658 1.399 . S
C657 C660 1.389 1_554 S
C658 C657 1.399 . S
C658 C661 1.381 . S
C658 H668 0.929 . S
C659 C656 1.399 . S
C659 C661 1.389 1_556 S
C659 H669 0.929 . S
C660 C656 1.383 . S
C660 C657 1.389 1_556 S
C660 H670 0.931 . S
C661 C658 1.381 . S
C661 C659 1.389 1_554 S
C661 H671 0.931 . S
C662 O642 1.266 . S
C662 O643 1.248 . S
C663 Tb599 2.802 . S
C663 O638 1.264 . S
C663 O641 1.256 . S
C663 C656 1.496 . S
H664 C647 0.929 . S
H665 C648 0.929 . S
H666 C649 0.929 . S
H667 C650 0.931 . S
H668 C658 0.929 . S
H669 C659 0.929 . S
H670 C660 0.931 . S
H671 C661 0.931 . S
Tb672 N701 2.617 . S
Tb672 N707 2.572 . S
Tb672 O716 2.465 . S
Tb672 O717 2.387 . S
Tb672 O719 2.428 . S
Tb672 O720 2.308 . S
Tb672 O724 2.349 . S
Tb672 O727 2.393 . S
Tb672 C736 2.802 . S
C673 N674 1.379 1_554 S
C673 C676 1.416 . S
C673 C680 1.424 . S
N674 C673 1.379 1_556 S
N674 C677 1.334 . S
N674 Tb683 2.617 . S
C675 C677 1.390 . S
C675 C678 1.339 . S
C675 H695 0.930 . S
C676 C673 1.416 . S
C676 C678 1.416 1_554 S
C676 C682 1.448 . S
C677 N674 1.334 . S
C677 C675 1.390 . S
C677 H688 0.930 . S
C678 C675 1.339 . S
C678 C676 1.416 1_556 S
C678 H699 0.930 . S
C679 C680 1.413 . S
C679 C681 1.427 . S
C679 C685 1.416 . S
C680 C673 1.424 . S
C680 C679 1.413 . S
C680 N684 1.361 . S
C681 C679 1.427 . S
C681 C682 1.328 . S
C681 H696 0.929 . S
C682 C676 1.448 . S
C682 C681 1.328 . S
C682 H697 0.930 . S
Tb683 N674 2.617 . S
Tb683 N684 2.572 1_556 S
Tb683 O718 2.349 . S
Tb683 O721 2.393 . S
Tb683 O722 2.465 1_556 S
Tb683 O723 2.387 . S
Tb683 O725 2.428 1_556 S
Tb683 O726 2.308 . S
Tb683 C747 2.802 1_556 S
N684 C680 1.361 . S
N684 Tb683 2.572 1_554 S
N684 C686 1.340 . S
C685 C679 1.416 . S
C685 C687 1.332 . S
C685 H693 0.931 . S
C686 N684 1.340 . S
C686 C687 1.407 . S
C686 H692 0.930 . S
C687 C685 1.332 . S
C687 C686 1.407 . S
C687 H689 0.929 . S
H688 C677 0.930 . S
H689 C687 0.929 . S
H690 C705 0.930 . S
H691 C712 0.929 . S
H692 C686 0.930 . S
H693 C685 0.931 . S
H694 C708 0.930 . S
H695 C675 0.930 . S
H696 C681 0.929 . S
H697 C682 0.930 . S
H698 C703 0.930 1_455 S
H699 C678 0.930 . S
H700 C711 0.931 . S
N701 Tb672 2.617 . S
N701 C702 1.379 . S
N701 C705 1.334 . S
C702 N701 1.379 . S
C702 C704 1.416 . S
C702 C710 1.424 . S
C703 H698 0.930 1_655 S
C703 C705 1.390 . S
C703 C706 1.339 . S
C704 C702 1.416 . S
C704 C706 1.416 . S
C704 C737 1.448 . S
C705 H690 0.930 . S
C705 N701 1.334 . S
C705 C703 1.390 . S
C706 C703 1.339 . S
C706 C704 1.416 . S
C706 H713 0.930 . S
N707 Tb672 2.572 . S
N707 C708 1.340 . S
N707 C710 1.361 . S
C708 H694 0.930 . S
C708 N707 1.340 . S
C708 C712 1.407 . S
C709 C710 1.413 . S
C709 C711 1.416 . S
C709 C738 1.427 . S
C710 C702 1.424 . S
C710 N707 1.361 . S
C710 C709 1.413 . S
C711 H700 0.931 . S
C711 C709 1.416 . S
C711 C712 1.332 . S
C712 H691 0.929 . S
C712 C708 1.407 . S
C712 C711 1.332 . S
H713 C706 0.930 . S
H714 C737 0.930 . S
H715 C738 0.929 . S
O716 Tb672 2.465 . S
O716 C736 1.264 . S
O717 Tb672 2.387 . S
O717 C728 1.264 . S
O718 Tb683 2.349 . S
O718 C728 1.243 . S
O719 Tb672 2.428 . S
O719 C736 1.256 . S
O720 Tb672 2.308 . S
O720 C735 1.266 . S
O721 Tb683 2.393 . S
O721 C735 1.248 . S
O722 Tb683 2.465 1_554 S
O722 C747 1.264 . S
O723 Tb683 2.387 . S
O723 C739 1.264 . S
O724 Tb672 2.349 . S
O724 C739 1.243 . S
O725 Tb683 2.428 1_554 S
O725 C747 1.256 . S
O726 Tb683 2.308 . S
O726 C746 1.266 . S
O727 Tb672 2.393 . S
O727 C746 1.248 . S
C728 O717 1.264 . S
C728 O718 1.243 . S
C729 C732 1.399 . S
C729 C734 1.383 . S
C729 C736 1.496 . S
C730 C731 1.399 . S
C730 C734 1.389 . S
C731 C730 1.399 . S
C731 C733 1.380 . S
C731 H748 0.929 . S
C732 C729 1.399 . S
C732 C733 1.392 . S
C732 H749 0.929 . S
C733 C731 1.380 . S
C733 C732 1.392 . S
C733 H750 0.929 . S
C734 C729 1.383 . S
C734 C730 1.389 . S
C734 H751 0.931 . S
C735 O720 1.266 . S
C735 O721 1.248 . S
C736 Tb672 2.802 . S
C736 O716 1.264 . S
C736 O719 1.256 . S
C736 C729 1.496 . S
C737 C704 1.448 . S
C737 H714 0.930 . S
C737 C738 1.328 . S
C738 C709 1.427 . S
C738 H715 0.929 . S
C738 C737 1.328 . S
C739 O723 1.264 . S
C739 O724 1.243 . S
C740 C743 1.399 . S
C740 C744 1.383 . S
C740 C747 1.496 . S
C741 C742 1.399 . S
C741 C744 1.389 . S
C742 C741 1.399 . S
C742 C745 1.380 . S
C742 H752 0.929 . S
C743 C740 1.399 . S
C743 C745 1.392 . S
C743 H753 0.929 . S
C744 C740 1.383 . S
C744 C741 1.389 . S
C744 H754 0.931 . S
C745 C742 1.380 . S
C745 C743 1.392 . S
C745 H755 0.929 . S
C746 O726 1.266 . S
C746 O727 1.248 . S
C747 Tb683 2.802 1_554 S
C747 O722 1.264 . S
C747 O725 1.256 . S
C747 C740 1.496 . S
H748 C731 0.929 . S
H749 C732 0.929 . S
H750 C733 0.929 . S
H751 C734 0.931 . S
H752 C742 0.929 . S
H753 C743 0.929 . S
H754 C744 0.931 . S
H755 C745 0.929 . S
Tb756 N785 2.617 . S
Tb756 N791 2.572 . S
Tb756 O800 2.465 . S
Tb756 O801 2.387 . S
Tb756 O803 2.428 . S
Tb756 O804 2.308 . S
Tb756 O808 2.349 . S
Tb756 O811 2.393 . S
Tb756 C820 2.802 . S
C757 N758 1.379 . S
C757 C760 1.416 . S
C757 C764 1.424 . S
N758 C757 1.379 . S
N758 C761 1.334 . S
N758 Tb767 2.617 . S
C759 C761 1.384 1_565 S
C759 C762 1.337 1_565 S
C759 H779 0.938 . S
C760 C757 1.416 . S
C760 C762 1.416 . S
C760 C766 1.448 . S
C761 N758 1.334 . S
C761 C759 1.384 1_545 S
C761 H772 0.930 . S
C762 C759 1.337 1_545 S
C762 C760 1.416 . S
C762 H783 0.930 1_545 S
C763 C764 1.413 . S
C763 C765 1.427 . S
C763 C769 1.416 . S
C764 C757 1.424 . S
C764 C763 1.413 . S
C764 N768 1.361 . S
C765 C763 1.427 . S
C765 C766 1.328 . S
C765 H780 0.929 . S
C766 C760 1.448 . S
C766 C765 1.328 . S
C766 H781 0.930 . S
Tb767 N758 2.617 . S
Tb767 N768 2.572 . S
Tb767 O802 2.349 . S
Tb767 O805 2.393 . S
Tb767 O806 2.465 . S
Tb767 O807 2.387 . S
Tb767 O809 2.428 . S
Tb767 O810 2.308 . S
Tb767 C831 2.802 . S
N768 C764 1.361 . S
N768 Tb767 2.572 . S
N768 C770 1.340 . S
C769 C763 1.416 . S
C769 C771 1.332 . S
C769 H777 0.931 . S
C770 N768 1.340 . S
C770 C771 1.407 . S
C770 H776 0.930 . S
C771 C769 1.332 . S
C771 C770 1.407 . S
C771 H773 0.929 . S
H772 C761 0.930 . S
H773 C771 0.929 . S
H774 C789 0.930 . S
H775 C796 0.929 . S
H776 C770 0.930 . S
H777 C769 0.931 . S
H778 C792 0.930 . S
H779 C759 0.938 . S
H780 C765 0.929 . S
H781 C766 0.930 . S
H782 C787 0.930 . S
H783 C762 0.930 1_565 S
H784 C795 0.931 . S
N785 Tb756 2.617 . S
N785 C786 1.379 . S
N785 C789 1.334 . S
C786 N785 1.379 . S
C786 C788 1.416 . S
C786 C794 1.424 . S
C787 H782 0.930 . S
C787 C789 1.390 . S
C787 C790 1.339 . S
C788 C786 1.416 . S
C788 C790 1.416 . S
C788 C821 1.448 . S
C789 H774 0.930 . S
C789 N785 1.334 . S
C789 C787 1.390 . S
C790 C787 1.339 . S
C790 C788 1.416 . S
C790 H797 0.930 . S
N791 Tb756 2.572 . S
N791 C792 1.340 . S
N791 C794 1.361 . S
C792 H778 0.930 . S
C792 N791 1.340 . S
C792 C796 1.407 . S
C793 C794 1.413 . S
C793 C795 1.416 . S
C793 C822 1.427 . S
C794 C786 1.424 . S
C794 N791 1.361 . S
C794 C793 1.413 . S
C795 H784 0.931 . S
C795 C793 1.416 . S
C795 C796 1.332 . S
C796 H775 0.929 . S
C796 C792 1.407 . S
C796 C795 1.332 . S
H797 C790 0.930 . S
H798 C821 0.930 . S
H799 C822 0.929 . S
O800 Tb756 2.465 . S
O800 C820 1.264 . S
O801 Tb756 2.387 . S
O801 C812 1.264 . S
O802 Tb767 2.349 . S
O802 C812 1.243 . S
O803 Tb756 2.428 . S
O803 C820 1.256 . S
O804 Tb756 2.308 . S
O804 C819 1.266 . S
O805 Tb767 2.393 . S
O805 C819 1.248 . S
O806 Tb767 2.465 . S
O806 C831 1.264 . S
O807 Tb767 2.387 . S
O807 C823 1.264 . S
O808 Tb756 2.349 . S
O808 C823 1.243 . S
O809 Tb767 2.428 . S
O809 C831 1.256 . S
O810 Tb767 2.308 . S
O810 C830 1.266 . S
O811 Tb756 2.393 . S
O811 C830 1.248 . S
C812 O801 1.264 . S
C812 O802 1.243 . S
C813 C816 1.399 . S
C813 C818 1.383 . S
C813 C820 1.496 . S
C814 C815 1.399 . S
C814 C818 1.389 . S
C815 C814 1.399 . S
C815 C817 1.380 . S
C815 H832 0.929 . S
C816 C813 1.399 . S
C816 C817 1.392 . S
C816 H833 0.929 . S
C817 C815 1.380 . S
C817 C816 1.392 . S
C817 H834 0.929 . S
C818 C813 1.383 . S
C818 C814 1.389 . S
C818 H835 0.931 . S
C819 O804 1.266 . S
C819 O805 1.248 . S
C820 Tb756 2.802 . S
C820 O800 1.264 . S
C820 O803 1.256 . S
C820 C813 1.496 . S
C821 C788 1.448 . S
C821 H798 0.930 . S
C821 C822 1.328 . S
C822 C793 1.427 . S
C822 H799 0.929 . S
C822 C821 1.328 . S
C823 O807 1.264 . S
C823 O808 1.243 . S
C824 C827 1.399 . S
C824 C828 1.383 . S
C824 C831 1.496 . S
C825 C826 1.399 . S
C825 C828 1.389 1_554 S
C826 C825 1.399 . S
C826 C829 1.380 1_554 S
C826 H836 0.929 . S
C827 C824 1.399 . S
C827 C829 1.392 . S
C827 H837 0.929 . S
C828 C824 1.383 . S
C828 C825 1.389 1_556 S
C828 H838 0.931 . S
C829 C826 1.380 1_556 S
C829 C827 1.392 . S
C829 H839 0.929 1_556 S
C830 O810 1.266 . S
C830 O811 1.248 . S
C831 Tb767 2.802 . S
C831 O806 1.264 . S
C831 O809 1.256 . S
C831 C824 1.496 . S
H832 C815 0.929 . S
H833 C816 0.929 . S
H834 C817 0.929 . S
H835 C818 0.931 . S
H836 C826 0.929 . S
H837 C827 0.929 . S
H838 C828 0.931 . S
H839 C829 0.929 1_554 S
Tb840 N869 2.617 . S
Tb840 N875 2.572 . S
Tb840 O884 2.465 . S
Tb840 O885 2.387 . S
Tb840 O887 2.428 . S
Tb840 O888 2.308 . S
Tb840 O892 2.349 . S
Tb840 O895 2.393 . S
Tb840 C904 2.802 . S
C841 N842 1.379 . S
C841 C844 1.416 . S
C841 C848 1.424 . S
N842 C841 1.379 . S
N842 C845 1.334 . S
N842 Tb851 2.617 . S
C843 C845 1.390 . S
C843 C846 1.339 . S
C843 H863 0.930 . S
C844 C841 1.416 . S
C844 C846 1.416 . S
C844 C850 1.448 . S
C845 N842 1.334 . S
C845 C843 1.390 . S
C845 H856 0.930 . S
C846 C843 1.339 . S
C846 C844 1.416 . S
C846 H867 0.930 . S
C847 C848 1.413 . S
C847 C849 1.427 . S
C847 C853 1.416 . S
C848 C841 1.424 . S
C848 C847 1.413 . S
C848 N852 1.361 . S
C849 C847 1.427 . S
C849 C850 1.328 . S
C849 H864 0.929 . S
C850 C844 1.448 . S
C850 C849 1.328 . S
C850 H865 0.930 . S
Tb851 N842 2.617 . S
Tb851 N852 2.572 . S
Tb851 O886 2.349 . S
Tb851 O889 2.393 . S
Tb851 O890 2.465 . S
Tb851 O891 2.387 . S
Tb851 O893 2.428 . S
Tb851 O894 2.308 . S
Tb851 C915 2.802 . S
N852 C848 1.361 . S
N852 Tb851 2.572 . S
N852 C854 1.340 . S
C853 C847 1.416 . S
C853 C855 1.332 . S
C853 H861 0.931 . S
C854 N852 1.340 . S
C854 C855 1.407 . S
C854 H860 0.930 . S
C855 C853 1.332 . S
C855 C854 1.407 . S
C855 H857 0.929 . S
H856 C845 0.930 . S
H857 C855 0.929 . S
H858 C873 0.930 . S
H859 C880 0.929 . S
H860 C854 0.930 . S
H861 C853 0.931 . S
H862 C876 0.930 . S
H863 C843 0.930 . S
H864 C849 0.929 . S
H865 C850 0.930 . S
H866 C871 0.930 . S
H867 C846 0.930 . S
H868 C879 0.931 . S
N869 Tb840 2.617 . S
N869 C870 1.379 . S
N869 C873 1.334 . S
C870 N869 1.379 . S
C870 C872 1.416 . S
C870 C878 1.424 . S
C871 H866 0.930 . S
C871 C873 1.390 . S
C871 C874 1.339 . S
C872 C870 1.416 . S
C872 C874 1.416 . S
C872 C905 1.448 . S
C873 H858 0.930 . S
C873 N869 1.334 . S
C873 C871 1.390 . S
C874 C871 1.339 . S
C874 C872 1.416 . S
C874 H881 0.930 . S
N875 Tb840 2.572 . S
N875 C876 1.340 . S
N875 C878 1.361 . S
C876 H862 0.930 . S
C876 N875 1.340 . S
C876 C880 1.407 . S
C877 C878 1.413 . S
C877 C879 1.416 . S
C877 C906 1.427 . S
C878 C870 1.424 . S
C878 N875 1.361 . S
C878 C877 1.413 . S
C879 H868 0.931 . S
C879 C877 1.416 . S
C879 C880 1.332 . S
C880 H859 0.929 . S
C880 C876 1.407 . S
C880 C879 1.332 . S
H881 C874 0.930 . S
H882 C905 0.930 . S
H883 C906 0.929 . S
O884 Tb840 2.465 . S
O884 C904 1.264 . S
O885 Tb840 2.387 . S
O885 C896 1.264 . S
O886 Tb851 2.349 . S
O886 C896 1.243 . S
O887 Tb840 2.428 . S
O887 C904 1.256 . S
O888 Tb840 2.308 . S
O888 C903 1.266 . S
O889 Tb851 2.393 . S
O889 C903 1.248 . S
O890 Tb851 2.465 . S
O890 C915 1.264 . S
O891 Tb851 2.387 . S
O891 C907 1.264 . S
O892 Tb840 2.349 . S
O892 C907 1.243 . S
O893 Tb851 2.428 . S
O893 C915 1.256 . S
O894 Tb851 2.308 . S
O894 C914 1.266 . S
O895 Tb840 2.393 . S
O895 C914 1.248 . S
C896 O885 1.264 . S
C896 O886 1.243 . S
C897 C900 1.399 . S
C897 C902 1.383 . S
C897 C904 1.496 . S
C898 C899 1.399 . S
C898 C902 1.389 1_556 S
C899 C898 1.399 . S
C899 C901 1.380 1_556 S
C899 H916 0.929 . S
C900 C897 1.399 . S
C900 C901 1.392 . S
C900 H917 0.929 . S
C901 C899 1.380 1_554 S
C901 C900 1.392 . S
C901 H918 0.929 1_554 S
C902 C897 1.383 . S
C902 C898 1.389 1_554 S
C902 H919 0.931 . S
C903 O888 1.266 . S
C903 O889 1.248 . S
C904 Tb840 2.802 . S
C904 O884 1.264 . S
C904 O887 1.256 . S
C904 C897 1.496 . S
C905 C872 1.448 . S
C905 H882 0.930 . S
C905 C906 1.328 . S
C906 C877 1.427 . S
C906 H883 0.929 . S
C906 C905 1.328 . S
C907 O891 1.264 . S
C907 O892 1.243 . S
C908 C911 1.399 . S
C908 C912 1.383 . S
C908 C915 1.496 . S
C909 C910 1.399 . S
C909 C912 1.389 . S
C910 C909 1.399 . S
C910 C913 1.380 . S
C910 H920 0.929 . S
C911 C908 1.399 . S
C911 C913 1.392 . S
C911 H921 0.929 . S
C912 C908 1.383 . S
C912 C909 1.389 . S
C912 H922 0.931 . S
C913 C910 1.380 . S
C913 C911 1.392 . S
C913 H923 0.929 . S
C914 O894 1.266 . S
C914 O895 1.248 . S
C915 Tb851 2.802 . S
C915 O890 1.264 . S
C915 O893 1.256 . S
C915 C908 1.496 . S
H916 C899 0.929 . S
H917 C900 0.929 . S
H918 C901 0.929 1_556 S
H919 C902 0.931 . S
H920 C910 0.929 . S
H921 C911 0.929 . S
H922 C912 0.931 . S
H923 C913 0.929 . S
Tb924 N953 2.617 . S
Tb924 N959 2.572 . S
Tb924 O968 2.465 . S
Tb924 O969 2.387 . S
Tb924 O971 2.428 . S
Tb924 O972 2.308 . S
Tb924 O976 2.349 . S
Tb924 O979 2.393 . S
Tb924 C988 2.802 . S
C925 N926 1.379 1_556 S
C925 C928 1.416 . S
C925 C932 1.424 . S
N926 C925 1.379 1_554 S
N926 C929 1.334 . S
N926 Tb935 2.617 . S
C927 C929 1.390 . S
C927 C930 1.339 . S
C927 H947 0.930 . S
C928 C925 1.416 . S
C928 C930 1.416 1_556 S
C928 C934 1.448 . S
C929 N926 1.334 . S
C929 C927 1.390 . S
C929 H940 0.930 . S
C930 C927 1.339 . S
C930 C928 1.416 1_554 S
C930 H951 0.930 . S
C931 C932 1.413 . S
C931 C933 1.427 . S
C931 C937 1.416 . S
C932 C925 1.424 . S
C932 C931 1.413 . S
C932 N936 1.361 . S
C933 C931 1.427 . S
C933 C934 1.328 . S
C933 H948 0.929 . S
C934 C928 1.448 . S
C934 C933 1.328 . S
C934 H949 0.930 . S
Tb935 N926 2.617 . S
Tb935 N936 2.572 1_554 S
Tb935 O970 2.349 . S
Tb935 O973 2.393 . S
Tb935 O974 2.465 1_554 S
Tb935 O975 2.387 . S
Tb935 O977 2.428 1_554 S
Tb935 O978 2.308 . S
Tb935 C999 2.802 1_554 S
N936 C932 1.361 . S
N936 Tb935 2.572 1_556 S
N936 C938 1.340 . S
C937 C931 1.416 . S
C937 C939 1.332 . S
C937 H945 0.931 . S
C938 N936 1.340 . S
C938 C939 1.407 . S
C938 H944 0.930 . S
C939 C937 1.332 . S
C939 C938 1.407 . S
C939 H941 0.929 . S
H940 C929 0.930 . S
H941 C939 0.929 . S
H942 C957 0.930 . S
H943 C964 0.929 . S
H944 C938 0.930 . S
H945 C937 0.931 . S
H946 C960 0.930 . S
H947 C927 0.930 . S
H948 C933 0.929 . S
H949 C934 0.930 . S
H950 C955 0.930 1_655 S
H951 C930 0.930 . S
H952 C963 0.931 . S
N953 Tb924 2.617 . S
N953 C954 1.379 . S
N953 C957 1.334 . S
C954 N953 1.379 . S
C954 C956 1.416 . S
C954 C962 1.424 . S
C955 H950 0.930 1_455 S
C955 C957 1.390 . S
C955 C958 1.339 . S
C956 C954 1.416 . S
C956 C958 1.416 . S
C956 C989 1.448 1_565 S
C957 H942 0.930 . S
C957 N953 1.334 . S
C957 C955 1.390 . S
C958 C955 1.339 . S
C958 C956 1.416 . S
C958 H965 0.930 1_565 S
N959 Tb924 2.572 . S
N959 C960 1.340 . S
N959 C962 1.361 . S
C960 H946 0.930 . S
C960 N959 1.340 . S
C960 C964 1.407 . S
C961 C962 1.413 1_545 S
C961 C963 1.416 . S
C961 C990 1.427 . S
C962 C954 1.424 . S
C962 N959 1.361 . S
C962 C961 1.413 1_565 S
C963 H952 0.931 . S
C963 C961 1.416 . S
C963 C964 1.332 1_545 S
C964 H943 0.929 . S
C964 C960 1.407 . S
C964 C963 1.332 1_565 S
H965 C958 0.930 1_545 S
H966 C989 0.930 . S
H967 C990 0.929 . S
O968 Tb924 2.465 . S
O968 C988 1.264 . S
O969 Tb924 2.387 . S
O969 C980 1.264 . S
O970 Tb935 2.349 . S
O970 C980 1.243 . S
O971 Tb924 2.428 . S
O971 C988 1.256 . S
O972 Tb924 2.308 . S
O972 C987 1.266 . S
O973 Tb935 2.393 . S
O973 C987 1.248 . S
O974 Tb935 2.465 1_556 S
O974 C999 1.264 . S
O975 Tb935 2.387 . S
O975 C991 1.264 . S
O976 Tb924 2.349 . S
O976 C991 1.243 . S
O977 Tb935 2.428 1_556 S
O977 C999 1.256 . S
O978 Tb935 2.308 . S
O978 C998 1.266 . S
O979 Tb924 2.393 . S
O979 C998 1.248 . S
C980 O969 1.264 . S
C980 O970 1.243 . S
C981 C984 1.399 . S
C981 C986 1.383 . S
C981 C988 1.496 . S
C982 C983 1.399 . S
C982 C986 1.389 . S
C983 C982 1.399 . S
C983 C985 1.380 . S
C983 H1000 0.929 . S
C984 C981 1.399 . S
C984 C985 1.392 . S
C984 H1001 0.929 . S
C985 C983 1.380 . S
C985 C984 1.392 . S
C985 H1002 0.929 . S
C986 C981 1.383 . S
C986 C982 1.389 . S
C986 H1003 0.931 . S
C987 O972 1.266 . S
C987 O973 1.248 . S
C988 Tb924 2.802 . S
C988 O968 1.264 . S
C988 O971 1.256 . S
C988 C981 1.496 . S
C989 C956 1.448 1_545 S
C989 H966 0.930 . S
C989 C990 1.328 . S
C990 C961 1.427 . S
C990 H967 0.929 . S
C990 C989 1.328 . S
C991 O975 1.264 . S
C991 O976 1.243 . S
C992 C995 1.399 . S
C992 C996 1.383 . S
C992 C999 1.496 . S
C993 C994 1.399 . S
C993 C996 1.389 . S
C994 C993 1.399 . S
C994 C997 1.380 . S
C994 H1004 0.929 . S
C995 C992 1.399 . S
C995 C997 1.392 . S
C995 H1005 0.929 . S
C996 C992 1.383 . S
C996 C993 1.389 . S
C996 H1006 0.931 . S
C997 C994 1.380 . S
C997 C995 1.392 . S
C997 H1007 0.929 . S
C998 O978 1.266 . S
C998 O979 1.248 . S
C999 Tb935 2.802 1_556 S
C999 O974 1.264 . S
C999 O977 1.256 . S
C999 C992 1.496 . S
H1000 C983 0.929 . S
H1001 C984 0.929 . S
H1002 C985 0.929 . S
H1003 C986 0.931 . S
H1004 C994 0.929 . S
H1005 C995 0.929 . S
H1006 C996 0.931 . S
H1007 C997 0.929 . S
Tb1008 N1037 2.617 . S
Tb1008 N1043 2.572 1_554 S
Tb1008 O1052 2.465 1_554 S
Tb1008 O1053 2.387 . S
Tb1008 O1055 2.428 1_554 S
Tb1008 O1056 2.308 . S
Tb1008 O1060 2.349 . S
Tb1008 O1063 2.393 . S
Tb1008 C1072 2.802 1_554 S
C1009 N1010 1.379 . S
C1009 C1012 1.416 . S
C1009 C1016 1.424 . S
N1010 C1009 1.379 . S
N1010 C1013 1.334 . S
N1010 Tb1019 2.617 . S
C1011 C1013 1.390 . S
C1011 C1014 1.339 . S
C1011 H1031 0.930 . S
C1012 C1009 1.416 . S
C1012 C1014 1.416 . S
C1012 C1018 1.448 1_655 S
C1013 N1010 1.334 . S
C1013 C1011 1.390 . S
C1013 H1024 0.930 . S
C1014 C1011 1.339 . S
C1014 C1012 1.416 . S
C1014 H1035 0.930 . S
C1015 C1016 1.413 . S
C1015 C1017 1.427 1_655 S
C1015 C1021 1.416 . S
C1016 C1009 1.424 . S
C1016 C1015 1.413 . S
C1016 N1020 1.361 . S
C1017 C1015 1.427 1_455 S
C1017 C1018 1.328 . S
C1017 H1032 0.929 . S
C1018 C1012 1.448 1_455 S
C1018 C1017 1.328 . S
C1018 H1033 0.930 . S
Tb1019 N1010 2.617 . S
Tb1019 N1020 2.572 . S
Tb1019 O1054 2.349 . S
Tb1019 O1057 2.393 . S
Tb1019 O1058 2.465 . S
Tb1019 O1059 2.387 . S
Tb1019 O1061 2.428 . S
Tb1019 O1062 2.308 . S
Tb1019 C1083 2.802 . S
N1020 C1016 1.361 . S
N1020 Tb1019 2.572 . S
N1020 C1022 1.340 . S
C1021 C1015 1.416 . S
C1021 C1023 1.332 . S
C1021 H1029 0.931 1_655 S
C1022 N1020 1.340 . S
C1022 C1023 1.407 . S
C1022 H1028 0.930 . S
C1023 C1021 1.332 . S
C1023 C1022 1.407 . S
C1023 H1025 0.929 . S
H1024 C1013 0.930 . S
H1025 C1023 0.929 . S
H1026 C1041 0.930 . S
H1027 C1048 0.929 . S
H1028 C1022 0.930 . S
H1029 C1021 0.931 1_455 S
H1030 C1044 0.930 . S
H1031 C1011 0.930 . S
H1032 C1017 0.929 . S
H1033 C1018 0.930 . S
H1034 C1039 0.930 . S
H1035 C1014 0.930 . S
H1036 C1047 0.931 . S
N1037 Tb1008 2.617 . S
N1037 C1038 1.379 1_554 S
N1037 C1041 1.334 . S
C1038 N1037 1.379 1_556 S
C1038 C1040 1.416 . S
C1038 C1046 1.424 . S
C1039 H1034 0.930 . S
C1039 C1041 1.390 . S
C1039 C1042 1.339 . S
C1040 C1038 1.416 . S
C1040 C1042 1.416 1_556 S
C1040 C1073 1.448 . S
C1041 H1026 0.930 . S
C1041 N1037 1.334 . S
C1041 C1039 1.390 . S
C1042 C1039 1.339 . S
C1042 C1040 1.416 1_554 S
C1042 H1049 0.930 . S
N1043 Tb1008 2.572 1_556 S
N1043 C1044 1.340 . S
N1043 C1046 1.361 . S
C1044 H1030 0.930 . S
C1044 N1043 1.340 . S
C1044 C1048 1.407 . S
C1045 C1046 1.413 . S
C1045 C1047 1.416 . S
C1045 C1074 1.427 . S
C1046 C1038 1.424 . S
C1046 N1043 1.361 . S
C1046 C1045 1.413 . S
C1047 H1036 0.931 . S
C1047 C1045 1.416 . S
C1047 C1048 1.332 . S
C1048 H1027 0.929 . S
C1048 C1044 1.407 . S
C1048 C1047 1.332 . S
H1049 C1042 0.930 . S
H1050 C1073 0.930 . S
H1051 C1074 0.929 . S
O1052 Tb1008 2.465 1_556 S
O1052 C1072 1.264 . S
O1053 Tb1008 2.387 . S
O1053 C1064 1.264 . S
O1054 Tb1019 2.349 . S
O1054 C1064 1.243 . S
O1055 Tb1008 2.428 1_556 S
O1055 C1072 1.256 . S
O1056 Tb1008 2.308 . S
O1056 C1071 1.266 . S
O1057 Tb1019 2.393 . S
O1057 C1071 1.248 . S
O1058 Tb1019 2.465 . S
O1058 C1083 1.264 . S
O1059 Tb1019 2.387 . S
O1059 C1075 1.264 . S
O1060 Tb1008 2.349 . S
O1060 C1075 1.243 . S
O1061 Tb1019 2.428 . S
O1061 C1083 1.256 . S
O1062 Tb1019 2.308 . S
O1062 C1082 1.266 . S
O1063 Tb1008 2.393 . S
O1063 C1082 1.248 . S
C1064 O1053 1.264 . S
C1064 O1054 1.243 . S
C1065 C1068 1.399 . S
C1065 C1070 1.383 . S
C1065 C1072 1.496 . S
C1066 C1067 1.399 . S
C1066 C1070 1.389 . S
C1067 C1066 1.399 . S
C1067 C1069 1.380 . S
C1067 H1084 0.929 . S
C1068 C1065 1.399 . S
C1068 C1069 1.392 . S
C1068 H1085 0.929 . S
C1069 C1067 1.380 . S
C1069 C1068 1.392 . S
C1069 H1086 0.929 . S
C1070 C1065 1.383 . S
C1070 C1066 1.389 . S
C1070 H1087 0.931 . S
C1071 O1056 1.266 . S
C1071 O1057 1.248 . S
C1072 Tb1008 2.802 1_556 S
C1072 O1052 1.264 . S
C1072 O1055 1.256 . S
C1072 C1065 1.496 . S
C1073 C1040 1.448 . S
C1073 H1050 0.930 . S
C1073 C1074 1.328 . S
C1074 C1045 1.427 . S
C1074 H1051 0.929 . S
C1074 C1073 1.328 . S
C1075 O1059 1.264 . S
C1075 O1060 1.243 . S
C1076 C1079 1.399 . S
C1076 C1080 1.383 . S
C1076 C1083 1.496 . S
C1077 C1078 1.399 . S
C1077 C1080 1.389 . S
C1078 C1077 1.399 . S
C1078 C1081 1.380 . S
C1078 H1088 0.929 . S
C1079 C1076 1.399 . S
C1079 C1081 1.392 . S
C1079 H1089 0.929 . S
C1080 C1076 1.383 . S
C1080 C1077 1.389 . S
C1080 H1090 0.931 . S
C1081 C1078 1.380 . S
C1081 C1079 1.392 . S
C1081 H1091 0.929 . S
C1082 O1062 1.266 . S
C1082 O1063 1.248 . S
C1083 Tb1019 2.802 . S
C1083 O1058 1.264 . S
C1083 O1061 1.256 . S
C1083 C1076 1.496 . S
H1084 C1067 0.929 . S
H1085 C1068 0.929 . S
H1086 C1069 0.929 . S
H1087 C1070 0.931 . S
H1088 C1078 0.929 . S
H1089 C1079 0.929 . S
H1090 C1080 0.931 . S
H1091 C1081 0.929 . S
Tb1092 N1121 2.617 . S
Tb1092 N1127 2.572 1_556 S
Tb1092 O1136 2.465 1_556 S
Tb1092 O1137 2.387 . S
Tb1092 O1139 2.428 1_556 S
Tb1092 O1140 2.308 . S
Tb1092 O1144 2.349 . S
Tb1092 O1147 2.393 . S
Tb1092 C1156 2.802 1_556 S
C1093 N1094 1.379 . S
C1093 C1096 1.416 . S
C1093 C1100 1.424 . S
N1094 C1093 1.379 . S
N1094 C1097 1.334 . S
N1094 Tb1103 2.617 . S
C1095 C1097 1.409 . S
C1095 C1098 1.346 . S
C1095 H1115 0.905 1_545 S
C1096 C1093 1.416 . S
C1096 C1098 1.416 . S
C1096 C1102 1.448 1_455 S
C1097 N1094 1.334 . S
C1097 C1095 1.409 . S
C1097 H1108 0.930 . S
C1098 C1095 1.346 . S
C1098 C1096 1.416 . S
C1098 H1119 0.930 1_545 S
C1099 C1100 1.413 . S
C1099 C1101 1.427 1_455 S
C1099 C1105 1.420 . S
C1100 C1093 1.424 . S
C1100 C1099 1.413 . S
C1100 N1104 1.361 . S
C1101 C1099 1.427 1_655 S
C1101 C1102 1.328 . S
C1101 H1116 0.929 . S
C1102 C1096 1.448 1_655 S
C1102 C1101 1.328 . S
C1102 H1117 0.930 . S
Tb1103 N1094 2.617 . S
Tb1103 N1104 2.572 . S
Tb1103 O1138 2.349 . S
Tb1103 O1141 2.393 . S
Tb1103 O1142 2.465 . S
Tb1103 O1143 2.387 . S
Tb1103 O1145 2.428 . S
Tb1103 O1146 2.308 . S
Tb1103 C1167 2.802 . S
N1104 C1100 1.361 . S
N1104 Tb1103 2.572 . S
N1104 C1106 1.340 . S
C1105 C1099 1.420 . S
C1105 C1107 1.350 . S
C1105 H1113 0.909 1_455 S
C1106 N1104 1.340 . S
C1106 C1107 1.407 . S
C1106 H1112 0.930 . S
C1107 C1105 1.350 . S
C1107 C1106 1.407 . S
C1107 H1109 0.929 . S
H1108 C1097 0.930 . S
H1109 C1107 0.929 . S
H1110 C1125 0.930 . S
H1111 C1132 0.929 . S
H1112 C1106 0.930 . S
H1113 C1105 0.909 1_655 S
H1114 C1128 0.930 . S
H1115 C1095 0.905 1_565 S
H1116 C1101 0.929 . S
H1117 C1102 0.930 . S
H1118 C1123 0.930 . S
H1119 C1098 0.930 1_565 S
H1120 C1131 0.931 . S
N1121 Tb1092 2.617 . S
N1121 C1122 1.379 1_556 S
N1121 C1125 1.334 . S
C1122 N1121 1.379 1_554 S
C1122 C1124 1.416 . S
C1122 C1130 1.424 . S
C1123 H1118 0.930 . S
C1123 C1125 1.390 . S
C1123 C1126 1.339 . S
C1124 C1122 1.416 . S
C1124 C1126 1.416 1_554 S
C1124 C1157 1.448 . S
C1125 H1110 0.930 . S
C1125 N1121 1.334 . S
C1125 C1123 1.390 . S
C1126 C1123 1.339 . S
C1126 C1124 1.416 1_556 S
C1126 H1133 0.930 . S
N1127 Tb1092 2.572 1_554 S
N1127 C1128 1.340 . S
N1127 C1130 1.361 . S
C1128 H1114 0.930 . S
C1128 N1127 1.340 . S
C1128 C1132 1.407 . S
C1129 C1130 1.413 . S
C1129 C1131 1.416 . S
C1129 C1158 1.427 . S
C1130 C1122 1.424 . S
C1130 N1127 1.361 . S
C1130 C1129 1.413 . S
C1131 H1120 0.931 . S
C1131 C1129 1.416 . S
C1131 C1132 1.332 . S
C1132 H1111 0.929 . S
C1132 C1128 1.407 . S
C1132 C1131 1.332 . S
H1133 C1126 0.930 . S
H1134 C1157 0.930 . S
H1135 C1158 0.929 . S
O1136 Tb1092 2.465 1_554 S
O1136 C1156 1.264 . S
O1137 Tb1092 2.387 . S
O1137 C1148 1.264 . S
O1138 Tb1103 2.349 . S
O1138 C1148 1.243 . S
O1139 Tb1092 2.428 1_554 S
O1139 C1156 1.256 . S
O1140 Tb1092 2.308 . S
O1140 C1155 1.266 . S
O1141 Tb1103 2.393 . S
O1141 C1155 1.248 . S
O1142 Tb1103 2.465 . S
O1142 C1167 1.264 . S
O1143 Tb1103 2.387 . S
O1143 C1159 1.264 . S
O1144 Tb1092 2.349 . S
O1144 C1159 1.243 . S
O1145 Tb1103 2.428 . S
O1145 C1167 1.256 . S
O1146 Tb1103 2.308 . S
O1146 C1166 1.266 . S
O1147 Tb1092 2.393 . S
O1147 C1166 1.248 . S
C1148 O1137 1.264 . S
C1148 O1138 1.243 . S
C1149 C1152 1.399 . S
C1149 C1154 1.383 . S
C1149 C1156 1.496 . S
C1150 C1151 1.399 . S
C1150 C1154 1.389 . S
C1151 C1150 1.399 . S
C1151 C1153 1.380 . S
C1151 H1168 0.929 . S
C1152 C1149 1.399 . S
C1152 C1153 1.392 . S
C1152 H1169 0.929 . S
C1153 C1151 1.380 . S
C1153 C1152 1.392 . S
C1153 H1170 0.929 . S
C1154 C1149 1.383 . S
C1154 C1150 1.389 . S
C1154 H1171 0.931 . S
C1155 O1140 1.266 . S
C1155 O1141 1.248 . S
C1156 Tb1092 2.802 1_554 S
C1156 O1136 1.264 . S
C1156 O1139 1.256 . S
C1156 C1149 1.496 . S
C1157 C1124 1.448 . S
C1157 H1134 0.930 . S
C1157 C1158 1.328 . S
C1158 C1129 1.427 . S
C1158 H1135 0.929 . S
C1158 C1157 1.328 . S
C1159 O1143 1.264 . S
C1159 O1144 1.243 . S
C1160 C1163 1.399 . S
C1160 C1164 1.383 . S
C1160 C1167 1.496 . S
C1161 C1162 1.399 . S
C1161 C1164 1.389 . S
C1162 C1161 1.399 . S
C1162 C1165 1.380 . S
C1162 H1172 0.929 . S
C1163 C1160 1.399 . S
C1163 C1165 1.392 . S
C1163 H1173 0.929 . S
C1164 C1160 1.383 . S
C1164 C1161 1.389 . S
C1164 H1174 0.931 . S
C1165 C1162 1.380 . S
C1165 C1163 1.392 . S
C1165 H1175 0.929 . S
C1166 O1146 1.266 . S
C1166 O1147 1.248 . S
C1167 Tb1103 2.802 . S
C1167 O1142 1.264 . S
C1167 O1145 1.256 . S
C1167 C1160 1.496 . S
H1168 C1151 0.929 . S
H1169 C1152 0.929 . S
H1170 C1153 0.929 . S
H1171 C1154 0.931 . S
H1172 C1162 0.929 . S
H1173 C1163 0.929 . S
H1174 C1164 0.931 . S
H1175 C1165 0.929 . S
Tb1176 N1205 2.617 . S
Tb1176 N1211 2.572 . S
Tb1176 O1220 2.465 . S
Tb1176 O1221 2.387 . S
Tb1176 O1223 2.428 . S
Tb1176 O1224 2.308 . S
Tb1176 O1228 2.349 . S
Tb1176 O1231 2.393 . S
Tb1176 C1240 2.802 . S
C1177 N1178 1.379 . S
C1177 C1180 1.416 . S
C1177 C1184 1.424 . S
N1178 C1177 1.379 . S
N1178 C1181 1.334 . S
N1178 Tb1187 2.617 . S
C1179 C1181 1.390 . S
C1179 C1182 1.339 . S
C1179 H1199 0.930 . S
C1180 C1177 1.416 . S
C1180 C1182 1.416 . S
C1180 C1186 1.448 . S
C1181 N1178 1.334 . S
C1181 C1179 1.390 . S
C1181 H1192 0.930 . S
C1182 C1179 1.339 . S
C1182 C1180 1.416 . S
C1182 H1203 0.930 . S
C1183 C1184 1.413 . S
C1183 C1185 1.427 . S
C1183 C1189 1.416 . S
C1184 C1177 1.424 . S
C1184 C1183 1.413 . S
C1184 N1188 1.361 . S
C1185 C1183 1.427 . S
C1185 C1186 1.328 . S
C1185 H1200 0.929 . S
C1186 C1180 1.448 . S
C1186 C1185 1.328 . S
C1186 H1201 0.930 . S
Tb1187 N1178 2.617 . S
Tb1187 N1188 2.572 . S
Tb1187 O1222 2.349 . S
Tb1187 O1225 2.393 . S
Tb1187 O1226 2.465 . S
Tb1187 O1227 2.387 . S
Tb1187 O1229 2.428 . S
Tb1187 O1230 2.308 . S
Tb1187 C1251 2.802 . S
N1188 C1184 1.361 . S
N1188 Tb1187 2.572 . S
N1188 C1190 1.340 . S
C1189 C1183 1.416 . S
C1189 C1191 1.332 . S
C1189 H1197 0.931 . S
C1190 N1188 1.340 . S
C1190 C1191 1.407 . S
C1190 H1196 0.930 . S
C1191 C1189 1.332 . S
C1191 C1190 1.407 . S
C1191 H1193 0.929 . S
H1192 C1181 0.930 . S
H1193 C1191 0.929 . S
H1194 C1209 0.930 . S
H1195 C1216 0.929 . S
H1196 C1190 0.930 . S
H1197 C1189 0.931 . S
H1198 C1212 0.930 . S
H1199 C1179 0.930 . S
H1200 C1185 0.929 . S
H1201 C1186 0.930 . S
H1202 C1207 0.930 . S
H1203 C1182 0.930 . S
H1204 C1215 0.931 . S
N1205 Tb1176 2.617 . S
N1205 C1206 1.379 . S
N1205 C1209 1.334 . S
C1206 N1205 1.379 . S
C1206 C1208 1.416 . S
C1206 C1214 1.424 . S
C1207 H1202 0.930 . S
C1207 C1209 1.390 . S
C1207 C1210 1.339 . S
C1208 C1206 1.416 . S
C1208 C1210 1.416 . S
C1208 C1241 1.448 . S
C1209 H1194 0.930 . S
C1209 N1205 1.334 . S
C1209 C1207 1.390 . S
C1210 C1207 1.339 . S
C1210 C1208 1.416 . S
C1210 H1217 0.930 . S
N1211 Tb1176 2.572 . S
N1211 C1212 1.340 . S
N1211 C1214 1.361 . S
C1212 H1198 0.930 . S
C1212 N1211 1.340 . S
C1212 C1216 1.407 . S
C1213 C1214 1.413 . S
C1213 C1215 1.416 . S
C1213 C1242 1.427 . S
C1214 C1206 1.424 . S
C1214 N1211 1.361 . S
C1214 C1213 1.413 . S
C1215 H1204 0.931 . S
C1215 C1213 1.416 . S
C1215 C1216 1.332 . S
C1216 H1195 0.929 . S
C1216 C1212 1.407 . S
C1216 C1215 1.332 . S
H1217 C1210 0.930 . S
H1218 C1241 0.930 . S
H1219 C1242 0.929 . S
O1220 Tb1176 2.465 . S
O1220 C1240 1.264 . S
O1221 Tb1176 2.387 . S
O1221 C1232 1.264 . S
O1222 Tb1187 2.349 . S
O1222 C1232 1.243 . S
O1223 Tb1176 2.428 . S
O1223 C1240 1.256 . S
O1224 Tb1176 2.308 . S
O1224 C1239 1.266 . S
O1225 Tb1187 2.393 . S
O1225 C1239 1.248 . S
O1226 Tb1187 2.465 . S
O1226 C1251 1.264 . S
O1227 Tb1187 2.387 . S
O1227 C1243 1.264 . S
O1228 Tb1176 2.349 . S
O1228 C1243 1.243 . S
O1229 Tb1187 2.428 . S
O1229 C1251 1.256 . S
O1230 Tb1187 2.308 . S
O1230 C1250 1.266 . S
O1231 Tb1176 2.393 . S
O1231 C1250 1.248 . S
C1232 O1221 1.264 . S
C1232 O1222 1.243 . S
C1233 C1236 1.399 . S
C1233 C1238 1.383 . S
C1233 C1240 1.496 . S
C1234 C1235 1.399 . S
C1234 C1238 1.389 1_554 S
C1235 C1234 1.399 . S
C1235 C1237 1.380 . S
C1235 H1252 0.929 . S
C1236 C1233 1.399 . S
C1236 C1237 1.392 1_556 S
C1236 H1253 0.929 . S
C1237 C1235 1.380 . S
C1237 C1236 1.392 1_554 S
C1237 H1254 0.929 . S
C1238 C1233 1.383 . S
C1238 C1234 1.389 1_556 S
C1238 H1255 0.931 . S
C1239 O1224 1.266 . S
C1239 O1225 1.248 . S
C1240 Tb1176 2.802 . S
C1240 O1220 1.264 . S
C1240 O1223 1.256 . S
C1240 C1233 1.496 . S
C1241 C1208 1.448 . S
C1241 H1218 0.930 . S
C1241 C1242 1.328 . S
C1242 C1213 1.427 . S
C1242 H1219 0.929 . S
C1242 C1241 1.328 . S
C1243 O1227 1.264 . S
C1243 O1228 1.243 . S
C1244 C1247 1.399 . S
C1244 C1248 1.383 . S
C1244 C1251 1.496 . S
C1245 C1246 1.399 . S
C1245 C1248 1.389 . S
C1246 C1245 1.399 . S
C1246 C1249 1.380 . S
C1246 H1256 0.929 . S
C1247 C1244 1.399 . S
C1247 C1249 1.392 . S
C1247 H1257 0.929 . S
C1248 C1244 1.383 . S
C1248 C1245 1.389 . S
C1248 H1258 0.931 . S
C1249 C1246 1.380 . S
C1249 C1247 1.392 . S
C1249 H1259 0.929 . S
C1250 O1230 1.266 . S
C1250 O1231 1.248 . S
C1251 Tb1187 2.802 . S
C1251 O1226 1.264 . S
C1251 O1229 1.256 . S
C1251 C1244 1.496 . S
H1252 C1235 0.929 . S
H1253 C1236 0.929 . S
H1254 C1237 0.929 . S
H1255 C1238 0.931 . S
H1256 C1246 0.929 . S
H1257 C1247 0.929 . S
H1258 C1248 0.931 . S
H1259 C1249 0.929 . S
Tb1260 N1289 2.617 . S
Tb1260 N1295 2.572 . S
Tb1260 O1304 2.465 . S
Tb1260 O1305 2.387 . S
Tb1260 O1307 2.428 . S
Tb1260 O1308 2.308 . S
Tb1260 O1312 2.349 . S
Tb1260 O1315 2.393 . S
Tb1260 C1324 2.802 . S
C1261 N1262 1.379 . S
C1261 C1264 1.416 . S
C1261 C1268 1.424 . S
N1262 C1261 1.379 . S
N1262 C1265 1.334 . S
N1262 Tb1271 2.617 . S
C1263 C1265 1.386 1_545 S
C1263 C1266 1.338 1_545 S
C1263 H1283 0.935 . S
C1264 C1261 1.416 . S
C1264 C1266 1.416 . S
C1264 C1270 1.448 . S
C1265 N1262 1.334 . S
C1265 C1263 1.386 1_565 S
C1265 H1276 0.930 . S
C1266 C1263 1.338 1_565 S
C1266 C1264 1.416 . S
C1266 H1287 0.930 1_565 S
C1267 C1268 1.413 . S
C1267 C1269 1.427 . S
C1267 C1273 1.416 . S
C1268 C1261 1.424 . S
C1268 C1267 1.413 . S
C1268 N1272 1.361 . S
C1269 C1267 1.427 . S
C1269 C1270 1.328 . S
C1269 H1284 0.929 . S
C1270 C1264 1.448 . S
C1270 C1269 1.328 . S
C1270 H1285 0.930 . S
Tb1271 N1262 2.617 . S
Tb1271 N1272 2.572 . S
Tb1271 O1306 2.349 . S
Tb1271 O1309 2.393 . S
Tb1271 O1310 2.465 . S
Tb1271 O1311 2.387 . S
Tb1271 O1313 2.428 . S
Tb1271 O1314 2.308 . S
Tb1271 C1335 2.802 . S
N1272 C1268 1.361 . S
N1272 Tb1271 2.572 . S
N1272 C1274 1.340 . S
C1273 C1267 1.416 . S
C1273 C1275 1.332 . S
C1273 H1281 0.931 . S
C1274 N1272 1.340 . S
C1274 C1275 1.407 . S
C1274 H1280 0.930 . S
C1275 C1273 1.332 . S
C1275 C1274 1.407 . S
C1275 H1277 0.929 . S
H1276 C1265 0.930 . S
H1277 C1275 0.929 . S
H1278 C1293 0.930 . S
H1279 C1300 0.929 . S
H1280 C1274 0.930 . S
H1281 C1273 0.931 . S
H1282 C1296 0.930 . S
H1283 C1263 0.935 . S
H1284 C1269 0.929 . S
H1285 C1270 0.930 . S
H1286 C1291 0.930 . S
H1287 C1266 0.930 1_545 S
H1288 C1299 0.931 . S
N1289 Tb1260 2.617 . S
N1289 C1290 1.379 . S
N1289 C1293 1.334 . S
C1290 N1289 1.379 . S
C1290 C1292 1.416 . S
C1290 C1298 1.424 . S
C1291 H1286 0.930 . S
C1291 C1293 1.390 . S
C1291 C1294 1.339 . S
C1292 C1290 1.416 . S
C1292 C1294 1.416 . S
C1292 C1325 1.448 . S
C1293 H1278 0.930 . S
C1293 N1289 1.334 . S
C1293 C1291 1.390 . S
C1294 C1291 1.339 . S
C1294 C1292 1.416 . S
C1294 H1301 0.930 . S
N1295 Tb1260 2.572 . S
N1295 C1296 1.340 . S
N1295 C1298 1.361 . S
C1296 H1282 0.930 . S
C1296 N1295 1.340 . S
C1296 C1300 1.407 . S
C1297 C1298 1.413 . S
C1297 C1299 1.416 . S
C1297 C1326 1.427 . S
C1298 C1290 1.424 . S
C1298 N1295 1.361 . S
C1298 C1297 1.413 . S
C1299 H1288 0.931 . S
C1299 C1297 1.416 . S
C1299 C1300 1.332 . S
C1300 H1279 0.929 . S
C1300 C1296 1.407 . S
C1300 C1299 1.332 . S
H1301 C1294 0.930 . S
H1302 C1325 0.930 . S
H1303 C1326 0.929 . S
O1304 Tb1260 2.465 . S
O1304 C1324 1.264 . S
O1305 Tb1260 2.387 . S
O1305 C1316 1.264 . S
O1306 Tb1271 2.349 . S
O1306 C1316 1.243 . S
O1307 Tb1260 2.428 . S
O1307 C1324 1.256 . S
O1308 Tb1260 2.308 . S
O1308 C1323 1.266 . S
O1309 Tb1271 2.393 . S
O1309 C1323 1.248 . S
O1310 Tb1271 2.465 . S
O1310 C1335 1.264 . S
O1311 Tb1271 2.387 . S
O1311 C1327 1.264 . S
O1312 Tb1260 2.349 . S
O1312 C1327 1.243 . S
O1313 Tb1271 2.428 . S
O1313 C1335 1.256 . S
O1314 Tb1271 2.308 . S
O1314 C1334 1.266 . S
O1315 Tb1260 2.393 . S
O1315 C1334 1.248 . S
C1316 O1305 1.264 . S
C1316 O1306 1.243 . S
C1317 C1320 1.399 . S
C1317 C1322 1.383 . S
C1317 C1324 1.496 . S
C1318 C1319 1.399 . S
C1318 C1322 1.389 . S
C1319 C1318 1.399 . S
C1319 C1321 1.380 . S
C1319 H1336 0.929 . S
C1320 C1317 1.399 . S
C1320 C1321 1.392 . S
C1320 H1337 0.929 . S
C1321 C1319 1.380 . S
C1321 C1320 1.392 . S
C1321 H1338 0.929 . S
C1322 C1317 1.383 . S
C1322 C1318 1.389 . S
C1322 H1339 0.931 . S
C1323 O1308 1.266 . S
C1323 O1309 1.248 . S
C1324 Tb1260 2.802 . S
C1324 O1304 1.264 . S
C1324 O1307 1.256 . S
C1324 C1317 1.496 . S
C1325 C1292 1.448 . S
C1325 H1302 0.930 . S
C1325 C1326 1.328 . S
C1326 C1297 1.427 . S
C1326 H1303 0.929 . S
C1326 C1325 1.328 . S
C1327 O1311 1.264 . S
C1327 O1312 1.243 . S
C1328 C1331 1.399 . S
C1328 C1332 1.383 . S
C1328 C1335 1.496 . S
C1329 C1330 1.399 . S
C1329 C1332 1.389 1_556 S
C1330 C1329 1.399 . S
C1330 C1333 1.371 1_556 S
C1330 H1340 0.929 . S
C1331 C1328 1.399 . S
C1331 C1333 1.408 . S
C1331 H1341 0.929 . S
C1332 C1328 1.383 . S
C1332 C1329 1.389 1_554 S
C1332 H1342 0.931 . S
C1333 C1330 1.371 1_554 S
C1333 C1331 1.408 . S
C1333 H1343 0.922 1_554 S
C1334 O1314 1.266 . S
C1334 O1315 1.248 . S
C1335 Tb1271 2.802 . S
C1335 O1310 1.264 . S
C1335 O1313 1.256 . S
C1335 C1328 1.496 . S
H1336 C1319 0.929 . S
H1337 C1320 0.929 . S
H1338 C1321 0.929 . S
H1339 C1322 0.931 . S
H1340 C1330 0.929 . S
H1341 C1331 0.929 . S
H1342 C1332 0.931 . S
H1343 C1333 0.922 1_556 S
C1344 C1345 1.387 . S
C1344 H1348 0.950 . S
C1344 C1353 1.390 . S
C1345 C1344 1.387 . S
C1345 C1347 1.387 . S
H1346 C1353 0.950 . S
C1347 C1345 1.387 . S
C1347 C1349 1.390 . S
C1347 H1351 0.950 . S
H1348 C1344 0.950 . S
C1349 C1347 1.390 . S
C1349 C1350 1.387 . S
C1349 H1352 0.950 . S
C1350 C1349 1.387 . S
C1350 C1353 1.387 . S
H1351 C1347 0.950 . S
H1352 C1349 0.950 . S
C1353 C1344 1.390 . S
C1353 H1346 0.950 . S
C1353 C1350 1.387 . S
C1354 C1355 1.387 . S
C1354 H1358 0.950 . S
C1354 C1363 1.390 . S
C1355 C1354 1.387 . S
C1355 C1357 1.387 . S
H1356 C1363 0.950 . S
C1357 C1355 1.387 . S
C1357 C1359 1.390 . S
C1357 H1361 0.950 . S
H1358 C1354 0.950 . S
C1359 C1357 1.390 . S
C1359 C1360 1.387 . S
C1359 H1362 0.950 . S
C1360 C1359 1.387 . S
C1360 C1363 1.387 . S
H1361 C1357 0.950 . S
H1362 C1359 0.950 . S
C1363 C1354 1.390 . S
C1363 H1356 0.950 . S
C1363 C1360 1.387 . S
C1364 C1365 1.387 . S
C1364 H1368 0.950 . S
C1364 C1373 1.390 . S
C1365 C1364 1.387 . S
C1365 C1367 1.387 . S
H1366 C1373 0.950 . S
C1367 C1365 1.387 . S
C1367 C1369 1.390 . S
C1367 H1371 0.950 . S
H1368 C1364 0.950 . S
C1369 C1367 1.390 . S
C1369 C1370 1.387 . S
C1369 H1372 0.950 . S
C1370 C1369 1.387 . S
C1370 C1373 1.387 . S
H1371 C1367 0.950 . S
H1372 C1369 0.950 . S
C1373 C1364 1.390 . S
C1373 H1366 0.950 . S
C1373 C1370 1.387 . S
C1374 C1375 1.387 . S
C1374 H1378 0.950 . S
C1374 C1383 1.390 . S
C1375 C1374 1.387 . S
C1375 C1377 1.387 . S
H1376 C1383 0.950 . S
C1377 C1375 1.387 . S
C1377 C1379 1.390 . S
C1377 H1381 0.950 . S
H1378 C1374 0.950 . S
C1379 C1377 1.390 . S
C1379 C1380 1.387 . S
C1379 H1382 0.950 . S
C1380 C1379 1.387 . S
C1380 C1383 1.387 . S
H1381 C1377 0.950 . S
H1382 C1379 0.950 . S
C1383 C1374 1.390 . S
C1383 H1376 0.950 . S
C1383 C1380 1.387 . S
C1384 C1385 1.387 . S
C1384 H1388 0.950 . S
C1384 C1393 1.390 . S
C1385 C1384 1.387 . S
C1385 C1387 1.387 . S
H1386 C1393 0.950 . S
C1387 C1385 1.387 . S
C1387 C1389 1.390 . S
C1387 H1391 0.950 . S
H1388 C1384 0.950 . S
C1389 C1387 1.390 . S
C1389 C1390 1.387 . S
C1389 H1392 0.950 . S
C1390 C1389 1.387 . S
C1390 C1393 1.387 . S
H1391 C1387 0.950 . S
H1392 C1389 0.950 . S
C1393 C1384 1.390 . S
C1393 H1386 0.950 . S
C1393 C1390 1.387 . S
C1394 C1395 1.387 . S
C1394 H1398 0.950 . S
C1394 C1403 1.390 . S
C1395 C1394 1.387 . S
C1395 C1397 1.387 . S
H1396 C1403 0.950 . S
C1397 C1395 1.387 . S
C1397 C1399 1.390 . S
C1397 H1401 0.950 . S
H1398 C1394 0.950 . S
C1399 C1397 1.390 . S
C1399 C1400 1.387 . S
C1399 H1402 0.950 . S
C1400 C1399 1.387 . S
C1400 C1403 1.387 . S
H1401 C1397 0.950 . S
H1402 C1399 0.950 . S
C1403 C1394 1.390 . S
C1403 H1396 0.950 . S
C1403 C1400 1.387 . S
C1404 C1405 1.387 . S
C1404 H1408 0.950 . S
C1404 C1413 1.390 . S
C1405 C1404 1.387 . S
C1405 C1407 1.387 . S
H1406 C1413 0.950 . S
C1407 C1405 1.387 . S
C1407 C1409 1.390 . S
C1407 H1411 0.950 . S
H1408 C1404 0.950 . S
C1409 C1407 1.390 . S
C1409 C1410 1.387 . S
C1409 H1412 0.950 . S
C1410 C1409 1.387 . S
C1410 C1413 1.387 . S
H1411 C1407 0.950 . S
H1412 C1409 0.950 . S
C1413 C1404 1.390 . S
C1413 H1406 0.950 . S
C1413 C1410 1.387 . S
C1414 C1415 1.387 . S
C1414 H1418 0.950 . S
C1414 C1423 1.390 . S
C1415 C1414 1.387 . S
C1415 C1417 1.387 . S
H1416 C1423 0.950 . S
C1417 C1415 1.387 . S
C1417 C1419 1.390 . S
C1417 H1421 0.950 . S
H1418 C1414 0.950 . S
C1419 C1417 1.390 . S
C1419 C1420 1.387 . S
C1419 H1422 0.950 . S
C1420 C1419 1.387 . S
C1420 C1423 1.387 . S
H1421 C1417 0.950 . S
H1422 C1419 0.950 . S
C1423 C1414 1.390 . S
C1423 H1416 0.950 . S
C1423 C1420 1.387 . S
C1424 C1425 1.387 . S
C1424 H1428 0.950 . S
C1424 C1433 1.390 . S
C1425 C1424 1.387 . S
C1425 C1427 1.387 . S
H1426 C1433 0.950 . S
C1427 C1425 1.387 . S
C1427 C1429 1.390 . S
C1427 H1431 0.950 . S
H1428 C1424 0.950 . S
C1429 C1427 1.390 . S
C1429 C1430 1.387 . S
C1429 H1432 0.950 . S
C1430 C1429 1.387 . S
C1430 C1433 1.387 . S
H1431 C1427 0.950 . S
H1432 C1429 0.950 . S
C1433 C1424 1.390 . S
C1433 H1426 0.950 . S
C1433 C1430 1.387 . S
C1434 C1435 1.387 . S
C1434 H1438 0.950 . S
C1434 C1443 1.390 . S
C1435 C1434 1.387 . S
C1435 C1437 1.387 . S
H1436 C1443 0.950 . S
C1437 C1435 1.387 . S
C1437 C1439 1.390 . S
C1437 H1441 0.950 . S
H1438 C1434 0.950 . S
C1439 C1437 1.390 . S
C1439 C1440 1.387 . S
C1439 H1442 0.950 . S
C1440 C1439 1.387 . S
C1440 C1443 1.387 . S
H1441 C1437 0.950 . S
H1442 C1439 0.950 . S
C1443 C1434 1.390 . S
C1443 H1436 0.950 . S
C1443 C1440 1.387 . S
C1444 C1445 1.387 . S
C1444 H1448 0.950 . S
C1444 C1453 1.390 . S
C1445 C1444 1.387 . S
C1445 C1447 1.387 . S
H1446 C1453 0.950 . S
C1447 C1445 1.387 . S
C1447 C1449 1.390 . S
C1447 H1451 0.950 . S
H1448 C1444 0.950 . S
C1449 C1447 1.390 . S
C1449 C1450 1.387 . S
C1449 H1452 0.950 . S
C1450 C1449 1.387 . S
C1450 C1453 1.387 . S
H1451 C1447 0.950 . S
H1452 C1449 0.950 . S
C1453 C1444 1.390 . S
C1453 H1446 0.950 . S
C1453 C1450 1.387 . S
C1454 C1455 1.387 . S
C1454 H1458 0.950 . S
C1454 C1463 1.390 . S
C1455 C1454 1.387 . S
C1455 C1457 1.387 . S
H1456 C1463 0.950 . S
C1457 C1455 1.387 . S
C1457 C1459 1.390 . S
C1457 H1461 0.950 . S
H1458 C1454 0.950 . S
C1459 C1457 1.390 . S
C1459 C1460 1.387 . S
C1459 H1462 0.950 . S
C1460 C1459 1.387 . S
C1460 C1463 1.387 . S
H1461 C1457 0.950 . S
H1462 C1459 0.950 . S
C1463 C1454 1.390 . S
C1463 H1456 0.950 . S
C1463 C1460 1.387 . S
C1464 C1465 1.387 . S
C1464 H1468 0.950 . S
C1464 C1473 1.390 . S
C1465 C1464 1.387 . S
C1465 C1467 1.387 . S
H1466 C1473 0.950 . S
C1467 C1465 1.387 . S
C1467 C1469 1.390 . S
C1467 H1471 0.950 . S
H1468 C1464 0.950 . S
C1469 C1467 1.390 . S
C1469 C1470 1.387 . S
C1469 H1472 0.950 . S
C1470 C1469 1.387 . S
C1470 C1473 1.387 . S
H1471 C1467 0.950 . S
H1472 C1469 0.950 . S
C1473 C1464 1.390 . S
C1473 H1466 0.950 . S
C1473 C1470 1.387 . S
C1474 C1475 1.387 . S
C1474 H1478 0.950 . S
C1474 C1483 1.390 . S
C1475 C1474 1.387 . S
C1475 C1477 1.387 . S
H1476 C1483 0.950 . S
C1477 C1475 1.387 . S
C1477 C1479 1.390 . S
C1477 H1481 0.950 . S
H1478 C1474 0.950 . S
C1479 C1477 1.390 . S
C1479 C1480 1.387 . S
C1479 H1482 0.950 . S
C1480 C1479 1.387 . S
C1480 C1483 1.387 . S
H1481 C1477 0.950 . S
H1482 C1479 0.950 . S
C1483 C1474 1.390 . S
C1483 H1476 0.950 . S
C1483 C1480 1.387 . S
C1484 C1485 1.387 . S
C1484 H1488 0.950 . S
C1484 C1493 1.390 . S
C1485 C1484 1.387 . S
C1485 C1487 1.387 . S
H1486 C1493 0.950 . S
C1487 C1485 1.387 . S
C1487 C1489 1.390 . S
C1487 H1491 0.950 . S
H1488 C1484 0.950 . S
C1489 C1487 1.390 . S
C1489 C1490 1.387 . S
C1489 H1492 0.950 . S
C1490 C1489 1.387 . S
C1490 C1493 1.387 . S
H1491 C1487 0.950 . S
H1492 C1489 0.950 . S
C1493 C1484 1.390 . S
C1493 H1486 0.950 . S
C1493 C1490 1.387 . S
C1494 C1495 1.387 . S
C1494 H1498 0.950 . S
C1494 C1503 1.390 . S
C1495 C1494 1.387 . S
C1495 C1497 1.387 . S
H1496 C1503 0.950 . S
C1497 C1495 1.387 . S
C1497 C1499 1.390 . S
C1497 H1501 0.950 . S
H1498 C1494 0.950 . S
C1499 C1497 1.390 . S
C1499 C1500 1.387 . S
C1499 H1502 0.950 . S
C1500 C1499 1.387 . S
C1500 C1503 1.387 . S
H1501 C1497 0.950 . S
H1502 C1499 0.950 . S
C1503 C1494 1.390 . S
C1503 H1496 0.950 . S
C1503 C1500 1.387 . S
C1504 C1505 1.387 . S
C1504 H1508 0.950 . S
C1504 C1513 1.390 . S
C1505 C1504 1.387 . S
C1505 C1507 1.387 . S
H1506 C1513 0.950 . S
C1507 C1505 1.387 . S
C1507 C1509 1.390 . S
C1507 H1511 0.950 . S
H1508 C1504 0.950 . S
C1509 C1507 1.390 . S
C1509 C1510 1.387 . S
C1509 H1512 0.950 . S
C1510 C1509 1.387 . S
C1510 C1513 1.387 . S
H1511 C1507 0.950 . S
H1512 C1509 0.950 . S
C1513 C1504 1.390 . S
C1513 H1506 0.950 . S
C1513 C1510 1.387 . S
C1514 C1515 1.387 . S
C1514 H1518 0.950 . S
C1514 C1523 1.390 . S
C1515 C1514 1.387 . S
C1515 C1517 1.387 . S
H1516 C1523 0.950 . S
C1517 C1515 1.387 . S
C1517 C1519 1.390 . S
C1517 H1521 0.950 . S
H1518 C1514 0.950 . S
C1519 C1517 1.390 . S
C1519 C1520 1.387 . S
C1519 H1522 0.950 . S
C1520 C1519 1.387 . S
C1520 C1523 1.387 . S
H1521 C1517 0.950 . S
H1522 C1519 0.950 . S
C1523 C1514 1.390 . S
C1523 H1516 0.950 . S
C1523 C1520 1.387 . S
C1524 C1525 1.387 . S
C1524 H1528 0.950 . S
C1524 C1533 1.390 . S
C1525 C1524 1.387 . S
C1525 C1527 1.387 . S
H1526 C1533 0.950 . S
C1527 C1525 1.387 . S
C1527 C1529 1.390 . S
C1527 H1531 0.950 . S
H1528 C1524 0.950 . S
C1529 C1527 1.390 . S
C1529 C1530 1.387 . S
C1529 H1532 0.950 . S
C1530 C1529 1.387 . S
C1530 C1533 1.387 . S
H1531 C1527 0.950 . S
H1532 C1529 0.950 . S
C1533 C1524 1.390 . S
C1533 H1526 0.950 . S
C1533 C1530 1.387 . S
C1534 C1535 1.387 . S
C1534 H1538 0.950 . S
C1534 C1543 1.390 1_655 S
C1535 C1534 1.387 . S
C1535 C1537 1.387 . S
H1536 C1543 0.950 . S
C1537 C1535 1.387 . S
C1537 C1539 1.390 1_655 S
C1537 H1541 0.950 . S
H1538 C1534 0.950 . S
C1539 C1537 1.390 1_455 S
C1539 C1540 1.387 . S
C1539 H1542 0.950 . S
C1540 C1539 1.387 . S
C1540 C1543 1.387 . S
H1541 C1537 0.950 . S
H1542 C1539 0.950 . S
C1543 C1534 1.390 1_455 S
C1543 H1536 0.950 . S
C1543 C1540 1.387 . S
C1544 C1545 1.387 . S
C1544 H1548 0.950 . S
C1544 C1553 1.390 . S
C1545 C1544 1.387 . S
C1545 C1547 1.387 . S
H1546 C1553 0.950 . S
C1547 C1545 1.387 . S
C1547 C1549 1.390 . S
C1547 H1551 0.950 . S
H1548 C1544 0.950 . S
C1549 C1547 1.390 . S
C1549 C1550 1.387 . S
C1549 H1552 0.950 . S
C1550 C1549 1.387 . S
C1550 C1553 1.387 . S
H1551 C1547 0.950 . S
H1552 C1549 0.950 . S
C1553 C1544 1.390 . S
C1553 H1546 0.950 . S
C1553 C1550 1.387 . S
C1554 C1555 1.387 . S
C1554 H1558 0.950 1_554 S
C1554 C1563 1.390 1_455 S
C1555 C1554 1.387 . S
C1555 C1557 1.387 . S
H1556 C1563 0.950 1_556 S
C1557 C1555 1.387 . S
C1557 C1559 1.390 1_455 S
C1557 H1561 0.950 . S
H1558 C1554 0.950 1_556 S
C1559 C1557 1.390 1_655 S
C1559 C1560 1.387 . S
C1559 H1562 0.950 . S
C1560 C1559 1.387 . S
C1560 C1563 1.387 . S
H1561 C1557 0.950 . S
H1562 C1559 0.950 . S
C1563 C1554 1.390 1_655 S
C1563 H1556 0.950 1_554 S
C1563 C1560 1.387 . S
C1564 C1565 1.387 . S
C1564 H1568 0.950 . S
C1564 C1573 1.390 . S
C1565 C1564 1.387 . S
C1565 C1567 1.387 . S
H1566 C1573 0.950 . S
C1567 C1565 1.387 . S
C1567 C1569 1.390 . S
C1567 H1571 0.950 . S
H1568 C1564 0.950 . S
C1569 C1567 1.390 . S
C1569 C1570 1.387 . S
C1569 H1572 0.950 . S
C1570 C1569 1.387 . S
C1570 C1573 1.387 . S
H1571 C1567 0.950 . S
H1572 C1569 0.950 . S
C1573 C1564 1.390 . S
C1573 H1566 0.950 . S
C1573 C1570 1.387 . S
C1574 C1575 1.387 . S
C1574 H1578 0.950 . S
C1574 C1583 1.390 . S
C1575 C1574 1.387 . S
C1575 C1577 1.387 . S
H1576 C1583 0.950 . S
C1577 C1575 1.387 . S
C1577 C1579 1.390 . S
C1577 H1581 0.950 . S
H1578 C1574 0.950 . S
C1579 C1577 1.390 . S
C1579 C1580 1.387 . S
C1579 H1582 0.950 . S
C1580 C1579 1.387 . S
C1580 C1583 1.387 . S
H1581 C1577 0.950 . S
H1582 C1579 0.950 . S
C1583 C1574 1.390 . S
C1583 H1576 0.950 . S
C1583 C1580 1.387 . S
C1584 C1585 1.387 . S
C1584 H1588 0.950 . S
C1584 C1593 1.390 . S
C1585 C1584 1.387 . S
C1585 C1587 1.387 . S
H1586 C1593 0.950 . S
C1587 C1585 1.387 . S
C1587 C1589 1.390 . S
C1587 H1591 0.950 . S
H1588 C1584 0.950 . S
C1589 C1587 1.390 . S
C1589 C1590 1.387 . S
C1589 H1592 0.950 . S
C1590 C1589 1.387 . S
C1590 C1593 1.387 . S
H1591 C1587 0.950 . S
H1592 C1589 0.950 . S
C1593 C1584 1.390 . S
C1593 H1586 0.950 . S
C1593 C1590 1.387 . S
C1594 C1595 1.387 . S
C1594 H1598 0.950 . S
C1594 C1603 1.390 . S
C1595 C1594 1.387 . S
C1595 C1597 1.387 . S
H1596 C1603 0.950 . S
C1597 C1595 1.387 . S
C1597 C1599 1.390 . S
C1597 H1601 0.950 . S
H1598 C1594 0.950 . S
C1599 C1597 1.390 . S
C1599 C1600 1.387 . S
C1599 H1602 0.950 . S
C1600 C1599 1.387 . S
C1600 C1603 1.387 . S
H1601 C1597 0.950 . S
H1602 C1599 0.950 . S
C1603 C1594 1.390 . S
C1603 H1596 0.950 . S
C1603 C1600 1.387 . S
C1604 C1605 1.387 . S
C1604 H1608 0.950 . S
C1604 C1613 1.390 . S
C1605 C1604 1.387 . S
C1605 C1607 1.387 . S
H1606 C1613 0.950 . S
C1607 C1605 1.387 . S
C1607 C1609 1.390 . S
C1607 H1611 0.950 . S
H1608 C1604 0.950 . S
C1609 C1607 1.390 . S
C1609 C1610 1.387 . S
C1609 H1612 0.950 . S
C1610 C1609 1.387 . S
C1610 C1613 1.387 . S
H1611 C1607 0.950 . S
H1612 C1609 0.950 . S
C1613 C1604 1.390 . S
C1613 H1606 0.950 . S
C1613 C1610 1.387 . S
C1614 C1615 1.387 . S
C1614 H1618 0.950 . S
C1614 C1623 1.390 . S
C1615 C1614 1.387 . S
C1615 C1617 1.387 . S
H1616 C1623 0.950 . S
C1617 C1615 1.387 . S
C1617 C1619 1.390 . S
C1617 H1621 0.950 . S
H1618 C1614 0.950 . S
C1619 C1617 1.390 . S
C1619 C1620 1.387 . S
C1619 H1622 0.950 . S
C1620 C1619 1.387 . S
C1620 C1623 1.387 . S
H1621 C1617 0.950 . S
H1622 C1619 0.950 . S
C1623 C1614 1.390 . S
C1623 H1616 0.950 . S
C1623 C1620 1.387 . S
C1624 C1625 1.387 . S
C1624 H1628 0.950 . S
C1624 C1633 1.390 1_655 S
C1625 C1624 1.387 . S
C1625 C1627 1.387 . S
H1626 C1633 0.950 . S
C1627 C1625 1.387 . S
C1627 C1629 1.390 1_655 S
C1627 H1631 0.950 . S
H1628 C1624 0.950 . S
C1629 C1627 1.390 1_455 S
C1629 C1630 1.387 . S
C1629 H1632 0.950 . S
C1630 C1629 1.387 . S
C1630 C1633 1.387 . S
H1631 C1627 0.950 . S
H1632 C1629 0.950 . S
C1633 C1624 1.390 1_455 S
C1633 H1626 0.950 . S
C1633 C1630 1.387 . S
C1634 C1635 1.387 . S
C1634 H1638 0.950 . S
C1634 C1643 1.390 . S
C1635 C1634 1.387 . S
C1635 C1637 1.387 . S
H1636 C1643 0.950 . S
C1637 C1635 1.387 . S
C1637 C1639 1.390 . S
C1637 H1641 0.950 . S
H1638 C1634 0.950 . S
C1639 C1637 1.390 . S
C1639 C1640 1.387 . S
C1639 H1642 0.950 . S
C1640 C1639 1.387 . S
C1640 C1643 1.387 . S
H1641 C1637 0.950 . S
H1642 C1639 0.950 . S
C1643 C1634 1.390 . S
C1643 H1636 0.950 . S
C1643 C1640 1.387 . S
C1644 C1645 1.387 . S
C1644 H1648 0.950 . S
C1644 C1653 1.390 . S
C1645 C1644 1.387 . S
C1645 C1647 1.387 . S
H1646 C1653 0.950 . S
C1647 C1645 1.387 . S
C1647 C1649 1.390 . S
C1647 H1651 0.950 . S
H1648 C1644 0.950 . S
C1649 C1647 1.390 . S
C1649 C1650 1.387 . S
C1649 H1652 0.950 . S
C1650 C1649 1.387 . S
C1650 C1653 1.387 . S
H1651 C1647 0.950 . S
H1652 C1649 0.950 . S
C1653 C1644 1.390 . S
C1653 H1646 0.950 . S
C1653 C1650 1.387 . S
C1654 C1655 1.387 . S
C1654 H1658 0.950 . S
C1654 C1663 1.390 1_455 S
C1655 C1654 1.387 . S
C1655 C1657 1.387 . S
H1656 C1663 0.950 . S
C1657 C1655 1.387 . S
C1657 C1659 1.390 1_455 S
C1657 H1661 0.950 . S
H1658 C1654 0.950 . S
C1659 C1657 1.390 1_655 S
C1659 C1660 1.387 . S
C1659 H1662 0.950 . S
C1660 C1659 1.387 . S
C1660 C1663 1.387 . S
H1661 C1657 0.950 . S
H1662 C1659 0.950 . S
C1663 C1654 1.390 1_655 S
C1663 H1656 0.950 . S
C1663 C1660 1.387 . S
C1664 C1665 1.387 . S
C1664 H1668 0.950 . S
C1664 C1673 1.390 1_554 S
C1665 C1664 1.387 . S
C1665 C1667 1.387 . S
H1666 C1673 0.950 . S
C1667 C1665 1.387 . S
C1667 C1669 1.390 1_554 S
C1667 H1671 0.950 . S
H1668 C1664 0.950 . S
C1669 C1667 1.390 1_556 S
C1669 C1670 1.387 . S
C1669 H1672 0.950 . S
C1670 C1669 1.387 . S
C1670 C1673 1.387 . S
H1671 C1667 0.950 . S
H1672 C1669 0.950 . S
C1673 C1664 1.390 1_556 S
C1673 H1666 0.950 . S
C1673 C1670 1.387 . S
C1674 C1675 1.387 . S
C1674 H1678 0.950 . S
C1674 C1683 1.390 . S
C1675 C1674 1.387 . S
C1675 C1677 1.387 . S
H1676 C1683 0.950 . S
C1677 C1675 1.387 . S
C1677 C1679 1.390 . S
C1677 H1681 0.950 . S
H1678 C1674 0.950 . S
C1679 C1677 1.390 . S
C1679 C1680 1.387 . S
C1679 H1682 0.950 . S
C1680 C1679 1.387 . S
C1680 C1683 1.387 . S
H1681 C1677 0.950 . S
H1682 C1679 0.950 . S
C1683 C1674 1.390 . S
C1683 H1676 0.950 . S
C1683 C1680 1.387 . S
C1684 C1685 1.387 . S
C1684 H1688 0.950 . S
C1684 C1693 1.390 . S
C1685 C1684 1.387 . S
C1685 C1687 1.387 . S
H1686 C1693 0.950 . S
C1687 C1685 1.387 . S
C1687 C1689 1.390 . S
C1687 H1691 0.950 . S
H1688 C1684 0.950 . S
C1689 C1687 1.390 . S
C1689 C1690 1.387 . S
C1689 H1692 0.950 . S
C1690 C1689 1.387 . S
C1690 C1693 1.387 . S
H1691 C1687 0.950 . S
H1692 C1689 0.950 . S
C1693 C1684 1.390 . S
C1693 H1686 0.950 . S
C1693 C1690 1.387 . S
C1694 C1695 1.387 . S
C1694 H1698 0.950 . S
C1694 C1703 1.390 . S
C1695 C1694 1.387 . S
C1695 C1697 1.387 . S
H1696 C1703 0.950 . S
C1697 C1695 1.387 . S
C1697 C1699 1.390 . S
C1697 H1701 0.950 . S
H1698 C1694 0.950 . S
C1699 C1697 1.390 . S
C1699 C1700 1.387 . S
C1699 H1702 0.950 . S
C1700 C1699 1.387 . S
C1700 C1703 1.387 . S
H1701 C1697 0.950 . S
H1702 C1699 0.950 . S
C1703 C1694 1.390 . S
C1703 H1696 0.950 . S
C1703 C1700 1.387 . S
C1704 C1705 1.387 . S
C1704 H1708 0.950 . S
C1704 C1713 1.390 1_554 S
C1705 C1704 1.387 . S
C1705 C1707 1.387 . S
H1706 C1713 0.950 . S
C1707 C1705 1.387 . S
C1707 C1709 1.390 1_554 S
C1707 H1711 0.950 . S
H1708 C1704 0.950 . S
C1709 C1707 1.390 1_556 S
C1709 C1710 1.387 . S
C1709 H1712 0.950 . S
C1710 C1709 1.387 . S
C1710 C1713 1.387 . S
H1711 C1707 0.950 . S
H1712 C1709 0.950 . S
C1713 C1704 1.390 1_556 S
C1713 H1706 0.950 . S
C1713 C1710 1.387 . S
C1714 C1715 1.387 . S
C1714 H1718 0.950 . S
C1714 C1723 1.390 . S
C1715 C1714 1.387 . S
C1715 C1717 1.387 . S
H1716 C1723 0.950 . S
C1717 C1715 1.387 . S
C1717 C1719 1.390 . S
C1717 H1721 0.950 . S
H1718 C1714 0.950 . S
C1719 C1717 1.390 . S
C1719 C1720 1.387 . S
C1719 H1722 0.950 . S
C1720 C1719 1.387 . S
C1720 C1723 1.387 . S
H1721 C1717 0.950 . S
H1722 C1719 0.950 . S
C1723 C1714 1.390 . S
C1723 H1716 0.950 . S
C1723 C1720 1.387 . S
C1724 C1725 1.387 . S
C1724 H1728 0.950 . S
C1724 C1733 1.390 . S
C1725 C1724 1.387 . S
C1725 C1727 1.387 . S
H1726 C1733 0.950 . S
C1727 C1725 1.387 . S
C1727 C1729 1.390 . S
C1727 H1731 0.950 . S
H1728 C1724 0.950 . S
C1729 C1727 1.390 . S
C1729 C1730 1.387 . S
C1729 H1732 0.950 . S
C1730 C1729 1.387 . S
C1730 C1733 1.387 . S
H1731 C1727 0.950 . S
H1732 C1729 0.950 . S
C1733 C1724 1.390 . S
C1733 H1726 0.950 . S
C1733 C1730 1.387 . S
C1734 C1735 1.387 . S
C1734 H1738 0.950 . S
C1734 C1743 1.390 . S
C1735 C1734 1.387 . S
C1735 C1737 1.387 . S
H1736 C1743 0.950 . S
C1737 C1735 1.387 . S
C1737 C1739 1.390 . S
C1737 H1741 0.950 . S
H1738 C1734 0.950 . S
C1739 C1737 1.390 . S
C1739 C1740 1.387 . S
C1739 H1742 0.950 . S
C1740 C1739 1.387 . S
C1740 C1743 1.387 . S
H1741 C1737 0.950 . S
H1742 C1739 0.950 . S
C1743 C1734 1.390 . S
C1743 H1736 0.950 . S
C1743 C1740 1.387 . S
C1744 C1745 1.387 . S
C1744 H1748 0.950 . S
C1744 C1753 1.390 1_565 S
C1745 C1744 1.387 . S
C1745 C1747 1.387 . S
H1746 C1753 0.950 . S
C1747 C1745 1.387 . S
C1747 C1749 1.390 1_565 S
C1747 H1751 0.950 . S
H1748 C1744 0.950 . S
C1749 C1747 1.390 1_545 S
C1749 C1750 1.387 . S
C1749 H1752 0.950 . S
C1750 C1749 1.387 . S
C1750 C1753 1.387 . S
H1751 C1747 0.950 . S
H1752 C1749 0.950 . S
C1753 C1744 1.390 1_545 S
C1753 H1746 0.950 . S
C1753 C1750 1.387 . S
C1754 C1755 1.387 . S
C1754 H1758 0.950 . S
C1754 C1763 1.390 . S
C1755 C1754 1.387 . S
C1755 C1757 1.387 . S
H1756 C1763 0.950 . S
C1757 C1755 1.387 . S
C1757 C1759 1.390 . S
C1757 H1761 0.950 . S
H1758 C1754 0.950 . S
C1759 C1757 1.390 . S
C1759 C1760 1.387 . S
C1759 H1762 0.950 . S
C1760 C1759 1.387 . S
C1760 C1763 1.387 . S
H1761 C1757 0.950 . S
H1762 C1759 0.950 . S
C1763 C1754 1.390 . S
C1763 H1756 0.950 . S
C1763 C1760 1.387 . S
C1764 C1765 1.387 . S
C1764 H1768 0.950 . S
C1764 C1773 1.390 1_564 S
C1765 C1764 1.387 . S
C1765 C1767 1.387 . S
H1766 C1773 0.950 . S
C1767 C1765 1.387 . S
C1767 C1769 1.390 1_564 S
C1767 H1771 0.950 . S
H1768 C1764 0.950 . S
C1769 C1767 1.390 1_546 S
C1769 C1770 1.387 . S
C1769 H1772 0.950 . S
C1770 C1769 1.387 . S
C1770 C1773 1.387 . S
H1771 C1767 0.950 . S
H1772 C1769 0.950 . S
C1773 C1764 1.390 1_546 S
C1773 H1766 0.950 . S
C1773 C1770 1.387 . S
C1774 C1775 1.387 . S
C1774 H1778 0.950 . S
C1774 C1783 1.390 . S
C1775 C1774 1.387 . S
C1775 C1777 1.387 . S
H1776 C1783 0.950 . S
C1777 C1775 1.387 . S
C1777 C1779 1.390 . S
C1777 H1781 0.950 . S
H1778 C1774 0.950 . S
C1779 C1777 1.390 . S
C1779 C1780 1.387 . S
C1779 H1782 0.950 . S
C1780 C1779 1.387 . S
C1780 C1783 1.387 . S
H1781 C1777 0.950 . S
H1782 C1779 0.950 . S
C1783 C1774 1.390 . S
C1783 H1776 0.950 . S
C1783 C1780 1.387 . S
C1784 C1785 1.387 . S
C1784 H1788 0.950 . S
C1784 C1793 1.390 1_565 S
C1785 C1784 1.387 . S
C1785 C1787 1.387 . S
H1786 C1793 0.950 . S
C1787 C1785 1.387 . S
C1787 C1789 1.390 1_565 S
C1787 H1791 0.950 . S
H1788 C1784 0.950 . S
C1789 C1787 1.390 1_545 S
C1789 C1790 1.387 . S
C1789 H1792 0.950 . S
C1790 C1789 1.387 . S
C1790 C1793 1.387 . S
H1791 C1787 0.950 . S
H1792 C1789 0.950 . S
C1793 C1784 1.390 1_545 S
C1793 H1786 0.950 . S
C1793 C1790 1.387 . S
C1794 C1795 1.387 . S
C1794 H1798 0.950 . S
C1794 C1803 1.390 . S
C1795 C1794 1.387 . S
C1795 C1797 1.387 . S
H1796 C1803 0.950 . S
C1797 C1795 1.387 . S
C1797 C1799 1.390 . S
C1797 H1801 0.950 . S
H1798 C1794 0.950 . S
C1799 C1797 1.390 . S
C1799 C1800 1.387 . S
C1799 H1802 0.950 . S
C1800 C1799 1.387 . S
C1800 C1803 1.387 . S
H1801 C1797 0.950 . S
H1802 C1799 0.950 . S
C1803 C1794 1.390 . S
C1803 H1796 0.950 . S
C1803 C1800 1.387 . S
C1804 C1805 1.387 . S
C1804 H1808 0.950 . S
C1804 C1813 1.390 1_546 S
C1805 C1804 1.387 . S
C1805 C1807 1.387 . S
H1806 C1813 0.950 . S
C1807 C1805 1.387 . S
C1807 C1809 1.390 1_546 S
C1807 H1811 0.950 . S
H1808 C1804 0.950 . S
C1809 C1807 1.390 1_564 S
C1809 C1810 1.387 . S
C1809 H1812 0.950 . S
C1810 C1809 1.387 . S
C1810 C1813 1.387 . S
H1811 C1807 0.950 . S
H1812 C1809 0.950 . S
C1813 C1804 1.390 1_564 S
C1813 H1806 0.950 . S
C1813 C1810 1.387 . S
C1814 C1815 1.387 . S
C1814 H1818 0.950 . S
C1814 C1823 1.390 . S
C1815 C1814 1.387 . S
C1815 C1817 1.387 . S
H1816 C1823 0.950 . S
C1817 C1815 1.387 . S
C1817 C1819 1.390 . S
C1817 H1821 0.950 . S
H1818 C1814 0.950 . S
C1819 C1817 1.390 . S
C1819 C1820 1.387 . S
C1819 H1822 0.950 . S
C1820 C1819 1.387 . S
C1820 C1823 1.387 . S
H1821 C1817 0.950 . S
H1822 C1819 0.950 . S
C1823 C1814 1.390 . S
C1823 H1816 0.950 . S
C1823 C1820 1.387 . S
C1345 C69 1.500 . S
C1350 C58 1.500 . S
C1355 C142 1.474 . S
C1360 C153 1.474 . S
C1365 C226 1.475 . S
C1370 C237 1.475 . S
C1375 C321 1.479 . S
C1380 C310 1.479 . S
C1385 C405 1.481 . S
C1390 C394 1.481 . S
C1395 C489 1.464 . S
C1400 C478 1.464 . S
C1405 C562 1.472 . S
C1410 C573 1.472 . S
C1415 C657 1.484 . S
C1420 C646 1.484 . S
C1425 C741 1.497 . S
C1430 C730 1.497 . S
C1435 C814 1.479 . S
C1440 C825 1.479 . S
C1445 C898 1.462 . S
C1450 C909 1.462 . S
C1455 C982 1.476 . S
C1460 C993 1.476 . S
C1465 C1066 1.474 . S
C1470 C1077 1.474 . S
C1475 C1161 1.473 . S
C1480 C1150 1.473 . S
C1485 C1245 1.475 . S
C1490 C1234 1.475 . S
C1495 C1329 1.492 . S
C1500 C1318 1.492 . S
C1505 C63 1.714 . S
C1510 C991 1.778 . S
C1515 C140 1.759 . S
C1520 C1327 1.757 . S
C1525 C224 1.778 . S
C1530 C830 1.719 . S
C1535 C315 1.713 . S
C1540 C1159 1.775 . S
C1545 C399 1.729 . S
C1550 C1166 1.734 . S
C1555 C998 1.711 . S
C1560 C476 1.774 . S
C1565 C560 1.775 . S
C1570 C1334 1.714 . S
C1575 C651 1.716 . S
C1580 C823 1.770 . S
C1585 C308 1.772 . S
C1590 C739 1.772 . S
C1595 C147 1.703 . S
C1600 C907 1.760 . S
C1605 C1082 1.709 . S
C1610 C483 1.719 . S
C1615 C644 1.772 . S
C1620 C1243 1.768 . S
C1625 C746 1.730 . S
C1630 C392 1.787 . S
C1635 C567 1.715 . S
C1640 C914 1.721 . S
C1645 C231 1.720 . S
C1650 C1250 1.719 . S
C1655 C56 1.774 . S
C1660 C1075 1.776 . S
C1665 C74 1.733 . S
C1670 C410 1.733 . S
C1675 C151 1.662 . S
C1680 C487 1.662 . S
C1685 C235 1.683 . S
C1690 C571 1.685 . S
C1695 C326 1.714 . S
C1700 C662 1.714 . S
C1705 C1071 1.696 . S
C1710 C728 1.658 . S
C1715 C1148 1.670 . S
C1720 C812 1.668 . S
C1725 C896 1.683 . S
C1730 C1232 1.684 . S
C1735 C1316 1.668 . S
C1740 C987 1.711 . S
C1745 C158 1.690 . S
C1750 C655 1.649 . S
C1755 C403 1.707 . S
C1760 C242 1.747 . S
C1765 C494 1.727 . S
C1770 C319 1.685 . S
C1775 C67 1.668 . S
C1780 C578 1.710 . S
C1785 C1323 1.728 . S
C1790 C819 1.728 . S
C1795 C1064 1.701 . S
C1800 C903 1.743 . S
C1805 C1155 1.727 . S
C1810 C980 1.687 . S
C1815 C1239 1.713 . S
C1820 C735 1.712 . S
