# Generated by pormake.
# Topology uof, (4)-cn, num edge types: 1
# Building blocks:
#     Node 0, Type 0, BuildingBlock: TATPOV_clean_sbu_0, # of connection points: 4
#     Node 1, Type 0, BuildingBlock: TATPOV_clean_sbu_0, # of connection points: 4
#     Node 2, Type 0, BuildingBlock: TATPOV_clean_sbu_0, # of connection points: 4
#     Node 3, Type 0, BuildingBlock: TATPOV_clean_sbu_0, # of connection points: 4
#     Node 4, Type 0, BuildingBlock: TATPOV_clean_sbu_0, # of connection points: 4
#     Node 5, Type 0, BuildingBlock: TATPOV_clean_sbu_0, # of connection points: 4
#     Node 6, Type 0, BuildingBlock: TATPOV_clean_sbu_0, # of connection points: 4
#     Node 7, Type 0, BuildingBlock: TATPOV_clean_sbu_0, # of connection points: 4
#     Node 8, Type 0, BuildingBlock: TATPOV_clean_sbu_0, # of connection points: 4
#     Node 9, Type 0, BuildingBlock: TATPOV_clean_sbu_0, # of connection points: 4
#     Node 10, Type 0, BuildingBlock: TATPOV_clean_sbu_0, # of connection points: 4
#     Node 11, Type 0, BuildingBlock: TATPOV_clean_sbu_0, # of connection points: 4
#     Edge 12, Type (0, 0), BuildingBlock: KIFKEQ_clean_linker_1, # of connection points: 2
#     Edge 13, Type (0, 0), BuildingBlock: KIFKEQ_clean_linker_1, # of connection points: 2
#     Edge 14, Type (0, 0), BuildingBlock: KIFKEQ_clean_linker_1, # of connection points: 2
#     Edge 15, Type (0, 0), BuildingBlock: KIFKEQ_clean_linker_1, # of connection points: 2
#     Edge 16, Type (0, 0), BuildingBlock: KIFKEQ_clean_linker_1, # of connection points: 2
#     Edge 17, Type (0, 0), BuildingBlock: KIFKEQ_clean_linker_1, # of connection points: 2
#     Edge 18, Type (0, 0), BuildingBlock: KIFKEQ_clean_linker_1, # of connection points: 2
#     Edge 19, Type (0, 0), BuildingBlock: KIFKEQ_clean_linker_1, # of connection points: 2
#     Edge 20, Type (0, 0), BuildingBlock: KIFKEQ_clean_linker_1, # of connection points: 2
#     Edge 21, Type (0, 0), BuildingBlock: KIFKEQ_clean_linker_1, # of connection points: 2
#     Edge 22, Type (0, 0), BuildingBlock: KIFKEQ_clean_linker_1, # of connection points: 2
#     Edge 23, Type (0, 0), BuildingBlock: KIFKEQ_clean_linker_1, # of connection points: 2
#     Edge 24, Type (0, 0), BuildingBlock: KIFKEQ_clean_linker_1, # of connection points: 2
#     Edge 25, Type (0, 0), BuildingBlock: KIFKEQ_clean_linker_1, # of connection points: 2
#     Edge 26, Type (0, 0), BuildingBlock: KIFKEQ_clean_linker_1, # of connection points: 2
#     Edge 27, Type (0, 0), BuildingBlock: KIFKEQ_clean_linker_1, # of connection points: 2
#     Edge 28, Type (0, 0), BuildingBlock: KIFKEQ_clean_linker_1, # of connection points: 2
#     Edge 29, Type (0, 0), BuildingBlock: KIFKEQ_clean_linker_1, # of connection points: 2
#     Edge 30, Type (0, 0), BuildingBlock: KIFKEQ_clean_linker_1, # of connection points: 2
#     Edge 31, Type (0, 0), BuildingBlock: KIFKEQ_clean_linker_1, # of connection points: 2
#     Edge 32, Type (0, 0), BuildingBlock: KIFKEQ_clean_linker_1, # of connection points: 2
#     Edge 33, Type (0, 0), BuildingBlock: KIFKEQ_clean_linker_1, # of connection points: 2
#     Edge 34, Type (0, 0), BuildingBlock: KIFKEQ_clean_linker_1, # of connection points: 2
#     Edge 35, Type (0, 0), BuildingBlock: KIFKEQ_clean_linker_1, # of connection points: 2
# Relax obj value: 0.219
# Max RMSD: 0.181
# Mean RMSD: 0.181
data_MOF--net-uof--node1-TATPOV_clean_sbu_0--edge1-KIFKEQ_clean_linker_1
_symmetry_space_group_name_H-M    P1
_symmetry_Int_Tables_number       1
_symmetry_cell_setting            triclinic
loop_
_symmetry_equiv_pos_as_xyz
'x, y, z'
_cell_length_a     31.676107
_cell_length_b     31.660616
_cell_length_c     65.493221
_cell_angle_alpha  89.969413
_cell_angle_beta   90.120007
_cell_angle_gamma 119.95038
loop_
_atom_site_label
_atom_site_type_symbol
_atom_site_fract_x
_atom_site_fract_y
_atom_site_fract_z
_atom_type_partial_charge
Zn0 Zn 0.2536 0.36461 0.20092 0.0
Zn1 Zn 0.21601 0.31458 0.23593 0.0
O2 O 0.16068 0.32612 0.22513 0.0
O3 O 0.1923 0.36739 0.19676 0.0
O4 O 0.19629 0.28168 0.26375 0.0
O5 O 0.31237 0.41777 0.21532 0.0
O6 O 0.28451 0.37147 0.24261 0.0
C7 C 0.15677 0.34671 0.20898 0.0
C8 C 0.23775 0.26626 0.20054 0.0
O9 O 0.22027 0.26446 0.21819 0.0
O10 O 0.25552 0.30521 0.19015 0.0
C11 C 0.22006 0.26112 0.2696 0.0
O12 O 0.2525 0.26092 0.2572 0.0
C13 C 0.31788 0.40906 0.23369 0.0
Zn14 Zn 0.88541 0.26147 0.5327 0.0
Zn15 Zn 0.89453 0.22095 0.56757 0.0
O16 O 0.82954 0.16619 0.55499 0.0
O17 O 0.8229 0.20003 0.52664 0.0
O18 O 0.90333 0.19873 0.59575 0.0
O19 O 0.88764 0.31819 0.54754 0.0
O20 O 0.90469 0.28872 0.57473 0.0
C21 C 0.80709 0.16339 0.53833 0.0
C22 C 0.96915 0.24763 0.53375 0.0
O23 O 0.9514 0.22781 0.55088 0.0
O24 O 0.94875 0.26605 0.52322 0.0
C25 C 0.94634 0.21231 0.6021 0.0
O26 O 0.98326 0.23692 0.58974 0.0
C27 C 0.90046 0.32244 0.56607 0.0
Zn28 Zn 0.62404 0.88486 0.87207 0.0
Zn29 Zn 0.67066 0.89412 0.90724 0.0
O30 O 0.66261 0.82974 0.89473 0.0
O31 O 0.62255 0.8222 0.86616 0.0
O32 O 0.69705 0.90181 0.9361 0.0
O33 O 0.5678 0.88703 0.88507 0.0
O34 O 0.61219 0.90411 0.9129 0.0
C35 C 0.64346 0.8069 0.87809 0.0
C36 C 0.72164 0.96964 0.87448 0.0
O37 O 0.72267 0.95258 0.89194 0.0
O38 O 0.68382 0.94821 0.86338 0.0
C39 C 0.74151 0.92765 0.9414 0.0
O40 O 0.77527 0.94672 0.92725 0.0
C41 C 0.57497 0.89997 0.9036 0.0
Zn42 Zn 0.7316 0.6232 0.20051 0.0
Zn43 Zn 0.76936 0.66937 0.23593 0.0
O44 O 0.82534 0.66102 0.22345 0.0
O45 O 0.79278 0.62143 0.1948 0.0
O46 O 0.78832 0.69584 0.26476 0.0
O47 O 0.67317 0.56728 0.21375 0.0
O48 O 0.70133 0.61072 0.24176 0.0
C49 C 0.82893 0.64196 0.20678 0.0
C50 C 0.74524 0.72111 0.2031 0.0
O51 O 0.76296 0.72154 0.2206 0.0
O52 O 0.72874 0.68351 0.19187 0.0
C53 C 0.80759 0.74039 0.27003 0.0
O54 O 0.8227 0.77421 0.25587 0.0
C55 C 0.66799 0.57384 0.23241 0.0
Zn56 Zn 0.10518 0.74027 0.53684 0.0
Zn57 Zn 0.09197 0.77382 0.57249 0.0
O58 O 0.15699 0.83119 0.56096 0.0
O59 O 0.16988 0.8003 0.5331 0.0
O60 O 0.0824 0.79088 0.60136 0.0
O61 O 0.09813 0.67903 0.54941 0.0
O62 O 0.0827 0.70568 0.57781 0.0
C63 C 0.18274 0.83589 0.54517 0.0
C64 C 0.02112 0.75446 0.53809 0.0
O65 O 0.03412 0.7673 0.55649 0.0
O66 O 0.04529 0.742 0.52665 0.0
C67 C 0.05527 0.80805 0.60664 0.0
O68 O 0.03538 0.82196 0.59248 0.0
C69 C 0.08581 0.67264 0.56801 0.0
Zn70 Zn 0.36356 0.10222 0.86814 0.0
Zn71 Zn 0.31571 0.09264 0.90321 0.0
O72 O 0.3246 0.15735 0.89089 0.0
O73 O 0.36533 0.16533 0.86255 0.0
O74 O 0.28831 0.08449 0.93184 0.0
O75 O 0.41882 0.09909 0.88191 0.0
O76 O 0.37393 0.08284 0.90948 0.0
C77 C 0.34428 0.18054 0.87442 0.0
C78 C 0.26561 0.01782 0.8699 0.0
O79 O 0.26434 0.03459 0.8874 0.0
O80 O 0.30366 0.03928 0.859 0.0
C81 C 0.24384 0.05796 0.93692 0.0
O82 O 0.21044 0.03814 0.9226 0.0
C83 C 0.41123 0.08657 0.90048 0.0
Zn84 Zn 0.62724 0.74125 0.48342 0.0
Zn85 Zn 0.67362 0.77476 0.44777 0.0
O86 O 0.66546 0.83193 0.4593 0.0
O87 O 0.62191 0.80097 0.48717 0.0
O88 O 0.69992 0.79173 0.41887 0.0
O89 O 0.57335 0.6797 0.47095 0.0
O90 O 0.61523 0.70633 0.44254 0.0
C91 C 0.64433 0.83653 0.47509 0.0
C92 C 0.72567 0.75597 0.48208 0.0
O93 O 0.72531 0.76869 0.46368 0.0
O94 O 0.68911 0.74344 0.49355 0.0
C95 C 0.74424 0.80956 0.41355 0.0
O96 O 0.77819 0.82431 0.42768 0.0
C97 C 0.57933 0.6732 0.45237 0.0
Zn98 Zn 0.8823 0.62162 0.81961 0.0
Zn99 Zn 0.89133 0.66844 0.78443 0.0
O100 O 0.82744 0.66097 0.79705 0.0
O101 O 0.81988 0.62068 0.82553 0.0
O102 O 0.8989 0.69495 0.75562 0.0
O103 O 0.88406 0.56528 0.80634 0.0
O104 O 0.90026 0.60944 0.77852 0.0
C105 C 0.80474 0.6419 0.81369 0.0
C106 C 0.96729 0.71908 0.81724 0.0
O107 O 0.95016 0.72011 0.79977 0.0
O108 O 0.94582 0.68131 0.82833 0.0
C109 C 0.92405 0.73946 0.75032 0.0
O110 O 0.94272 0.77337 0.76447 0.0
C111 C 0.89621 0.57218 0.78773 0.0
Zn112 Zn 0.25212 0.88404 0.15018 0.0
Zn113 Zn 0.21547 0.89298 0.11474 0.0
O114 O 0.15939 0.82831 0.12701 0.0
O115 O 0.19132 0.82088 0.15578 0.0
O116 O 0.19725 0.90036 0.08578 0.0
O117 O 0.31132 0.88714 0.13753 0.0
O118 O 0.28431 0.90373 0.10948 0.0
C119 C 0.15548 0.80538 0.14364 0.0
C120 C 0.23811 0.96822 0.14746 0.0
O121 O 0.22072 0.95116 0.1299 0.0
O122 O 0.25445 0.94699 0.15873 0.0
C123 C 0.17732 0.92494 0.08032 0.0
O124 O 0.16104 0.94286 0.09434 0.0
C125 C 0.31743 0.90008 0.11901 0.0
Zn126 Zn 0.36707 0.26113 0.48684 0.0
Zn127 Zn 0.31996 0.2215 0.4516 0.0
O128 O 0.32806 0.16609 0.46502 0.0
O129 O 0.36786 0.19985 0.4935 0.0
O130 O 0.29287 0.2 0.42284 0.0
O131 O 0.42299 0.31816 0.4729 0.0
O132 O 0.37859 0.2891 0.44514 0.0
C133 C 0.34695 0.1631 0.48187 0.0
C134 C 0.27001 0.24909 0.48399 0.0
O135 O 0.26898 0.22993 0.4668 0.0
O136 O 0.30769 0.26585 0.49519 0.0
C137 C 0.2512 0.19229 0.417 0.0
O138 O 0.22066 0.19199 0.43059 0.0
C139 C 0.41588 0.32265 0.45421 0.0
Zn140 Zn 0.10236 0.36386 0.81981 0.0
Zn141 Zn 0.0895 0.31322 0.78497 0.0
O142 O 0.15588 0.32414 0.79614 0.0
O143 O 0.16612 0.3662 0.82434 0.0
O144 O 0.07815 0.28171 0.75687 0.0
O145 O 0.09727 0.41735 0.8054 0.0
O146 O 0.078 0.37023 0.77833 0.0
C147 C 0.18048 0.34479 0.81225 0.0
C148 C 0.01918 0.26563 0.82013 0.0
O149 O 0.03466 0.26324 0.80251 0.0
O150 O 0.04075 0.30472 0.83043 0.0
C151 C 0.03431 0.25507 0.75081 0.0
O152 O -0.0014 0.24612 0.76341 0.0
C153 C 0.0826 0.40819 0.7871 0.0
Zn154 Zn 0.73235 0.10551 0.15375 0.0
Zn155 Zn 0.77003 0.09622 0.11847 0.0
O156 O 0.82567 0.1612 0.13066 0.0
O157 O 0.79328 0.16897 0.15916 0.0
O158 O 0.78873 0.08808 0.08973 0.0
O159 O 0.67333 0.10172 0.14033 0.0
O160 O 0.70161 0.08576 0.11256 0.0
C161 C 0.82927 0.1844 0.14717 0.0
C162 C 0.74693 0.02166 0.1517 0.0
O163 O 0.7644 0.03844 0.13414 0.0
O164 O 0.73031 0.04291 0.16275 0.0
C165 C 0.80786 0.06262 0.08457 0.0
O166 O 0.82311 0.04414 0.09881 0.0
C167 C 0.66805 0.08915 0.12176 0.0
H168 H 0.84859 0.23737 0.18233 0.0
H169 H 0.91889 0.22044 0.12895 0.0
H170 H 0.92778 0.28806 0.19823 0.0
H171 H -0.00175 0.27169 0.14494 0.0
H172 H 0.13682 0.38315 0.1748 0.0
H173 H 0.05741 0.3551 0.15917 0.0
H174 H 0.9879 0.26409 0.2116 0.0
H175 H 0.06748 0.29174 0.22729 0.0
C176 C 0.88092 0.24533 0.17374 0.0
C177 C 0.87724 0.22419 0.15441 0.0
C178 C 0.9263 0.27423 0.18296 0.0
C179 C 0.96913 0.2833 0.17298 0.0
C180 C 0.96581 0.26546 0.153 0.0
C181 C 0.92031 0.23607 0.14382 0.0
C182 C 0.10464 0.35798 0.18327 0.0
C183 C 0.10868 0.33917 0.20224 0.0
C184 C 0.05914 0.34175 0.1742 0.0
C185 C 0.01653 0.30689 0.18399 0.0
C186 C 0.02016 0.29112 0.20369 0.0
C187 C 0.0658 0.307 0.21271 0.0
H188 H 0.75753 0.14544 0.50226 0.0
H189 H 0.76908 0.07299 0.55619 0.0
H190 H 0.70783 0.06683 0.48577 0.0
H191 H 0.71866 0.99417 0.53962 0.0
H192 H 0.60638 0.85738 0.50844 0.0
H193 H 0.63538 0.93679 0.52419 0.0
H194 H 0.73193 0.00563 0.47323 0.0
H195 H 0.7034 0.92596 0.45743 0.0
C196 C 0.74859 0.11277 0.51084 0.0
C197 C 0.7679 0.11568 0.53054 0.0
C198 C 0.72027 0.06773 0.50127 0.0
C199 C 0.70989 0.02445 0.51128 0.0
C200 C 0.72596 0.027 0.53154 0.0
C201 C 0.75485 0.07217 0.54106 0.0
C202 C 0.63305 0.88943 0.5003 0.0
C203 C 0.65304 0.88511 0.48173 0.0
C204 C 0.6498 0.93492 0.50944 0.0
C205 C 0.68638 0.97728 0.50011 0.0
C206 C 0.70357 0.97354 0.48077 0.0
C207 C 0.68717 0.92787 0.47168 0.0
H208 H 0.60893 0.75359 0.84307 0.0
H209 H 0.69948 0.77256 0.89566 0.0
H210 H 0.63767 0.70356 0.82678 0.0
H211 H 0.72786 0.72192 0.87928 0.0
H212 H 0.77046 0.69795 0.79611 0.0
H213 H 0.72075 0.72727 0.81257 0.0
H214 H 0.70331 0.63826 0.86532 0.0
H215 H 0.75243 0.60858 0.84895 0.0
C216 C 0.63416 0.74626 0.8514 0.0
C217 C 0.65234 0.76769 0.87064 0.0
C218 C 0.65078 0.71775 0.84195 0.0
C219 C 0.68548 0.70938 0.8516 0.0
C220 C 0.70094 0.72764 0.87148 0.0
C221 C 0.68465 0.75664 0.88089 0.0
C222 C 0.75493 0.68358 0.81096 0.0
C223 C 0.76599 0.65131 0.82125 0.0
C224 C 0.72646 0.70041 0.82042 0.0
C225 C 0.70874 0.68555 0.84038 0.0
C226 C 0.71711 0.65091 0.85009 0.0
C227 C 0.74508 0.63374 0.84059 0.0
H228 H 0.91896 0.69661 0.2247 0.0
H229 H 0.84783 0.60827 0.17157 0.0
H230 H -0.00197 0.72501 0.20852 0.0
H231 H 0.92671 0.637 0.15547 0.0
H232 H 0.06563 0.77106 0.12567 0.0
H233 H 0.98641 0.72029 0.14173 0.0
H234 H 0.05715 0.70105 0.19442 0.0
H235 H 0.13616 0.7513 0.17845 0.0
C236 C 0.92015 0.68224 0.20984 0.0
C237 C 0.87691 0.6506 0.19939 0.0
C238 C 0.96549 0.69853 0.20054 0.0
C239 C 0.96847 0.68373 0.18058 0.0
C240 C 0.9255 0.64961 0.17072 0.0
C241 C 0.8803 0.63298 0.18005 0.0
C242 C 0.06427 0.7549 0.14041 0.0
C243 C 0.10739 0.76584 0.15083 0.0
C244 C 0.01885 0.7258 0.14964 0.0
C245 C 0.01568 0.70731 0.16949 0.0
C246 C 0.05852 0.71544 0.17927 0.0
C247 C 0.10379 0.74408 0.17001 0.0
H248 H 0.37736 0.14498 0.51821 0.0
H249 H 0.29446 0.07264 0.46403 0.0
H250 H 0.34818 0.06635 0.5347 0.0
H251 H 0.26573 0.99379 0.48062 0.0
H252 H 0.21245 0.92526 0.56284 0.0
H253 H 0.26319 0.00498 0.54708 0.0
H254 H 0.29148 0.93643 0.4961 0.0
H255 H 0.24147 0.85698 0.5118 0.0
C256 C 0.35376 0.11232 0.5096 0.0
C257 C 0.33782 0.11528 0.4898 0.0
C258 C 0.33688 0.06727 0.51916 0.0
C259 C 0.30426 0.02401 0.50907 0.0
C260 C 0.29105 0.02659 0.48876 0.0
C261 C 0.30752 0.07179 0.47924 0.0
C262 C 0.23062 0.92725 0.54858 0.0
C263 C 0.22231 0.88455 0.53852 0.0
C264 C 0.25966 0.97295 0.53952 0.0
C265 C 0.28065 0.97679 0.52018 0.0
C266 C 0.27513 0.93449 0.51083 0.0
C267 C 0.24663 0.88898 0.51995 0.0
H268 H 0.37747 0.23297 0.83914 0.0
H269 H 0.29052 0.21664 0.89252 0.0
H270 H 0.34902 0.28371 0.82319 0.0
H271 H 0.26243 0.26792 0.87649 0.0
H272 H 0.23634 0.38033 0.84663 0.0
H273 H 0.28696 0.3514 0.86233 0.0
H274 H 0.26527 0.26046 0.80979 0.0
H275 H 0.21411 0.28902 0.79403 0.0
C276 C 0.35315 0.24105 0.84771 0.0
C277 C 0.33582 0.22012 0.86707 0.0
C278 C 0.33669 0.26997 0.83846 0.0
C279 C 0.30305 0.27927 0.84845 0.0
C280 C 0.28855 0.26153 0.86843 0.0
C281 C 0.30465 0.23212 0.87763 0.0
C282 C 0.24314 0.35498 0.83815 0.0
C283 C 0.22051 0.33651 0.81912 0.0
C284 C 0.27198 0.33823 0.84726 0.0
C285 C 0.27949 0.30317 0.83745 0.0
C286 C 0.26023 0.28765 0.81771 0.0
C287 C 0.23091 0.30404 0.80865 0.0
H288 H 0.59985 0.47931 0.22438 0.0
H289 H 0.62602 0.60387 0.26077 0.0
H290 H 0.51325 0.43942 0.23298 0.0
H291 H 0.53903 0.56454 0.26868 0.0
H292 H 0.36086 0.3746 0.25957 0.0
H293 H 0.44824 0.41262 0.26673 0.0
H294 H 0.47267 0.54312 0.2357 0.0
H295 H 0.3857 0.50462 0.22781 0.0
C296 C 0.58734 0.49742 0.23473 0.0
C297 C 0.61955 0.54468 0.24184 0.0
C298 C 0.53791 0.47461 0.23968 0.0
C299 C 0.51979 0.49915 0.25142 0.0
C300 C 0.55239 0.54494 0.2597 0.0
C301 C 0.60209 0.56724 0.25521 0.0
C302 C 0.38463 0.41204 0.25493 0.0
C303 C 0.36667 0.43669 0.24304 0.0
C304 C 0.43453 0.43359 0.25896 0.0
C305 C 0.46682 0.4806 0.25174 0.0
C306 C 0.44826 0.50694 0.24158 0.0
C307 C 0.39862 0.48495 0.23704 0.0
H308 H 0.11146 0.60423 0.5593 0.0
H309 H 0.01272 0.62944 0.59579 0.0
H310 H 0.06405 0.51716 0.56713 0.0
H311 H 0.96434 0.54201 0.60291 0.0
H312 H 0.97573 0.3639 0.59304 0.0
H313 H 0.02451 0.45093 0.60094 0.0
H314 H 0.92059 0.47702 0.56893 0.0
H315 H 0.8727 0.3904 0.56029 0.0
C316 C 0.08057 0.59137 0.56949 0.0
C317 C 0.06569 0.62348 0.57688 0.0
C318 C 0.05356 0.54168 0.57401 0.0
C319 C 0.01066 0.52324 0.58557 0.0
C320 C -0.0025 0.55563 0.59407 0.0
C321 C 0.02529 0.60556 0.59003 0.0
C322 C 0.96232 0.3879 0.58834 0.0
C323 C 0.92058 0.37056 0.57594 0.0
C324 C 0.99036 0.43762 0.59281 0.0
C325 C 0.97615 0.47029 0.5855 0.0
C326 C 0.93194 0.45227 0.57486 0.0
C327 C 0.90462 0.40283 0.5699 0.0
H328 H 0.37938 0.01376 0.92856 0.0
H329 H 0.50585 0.11212 0.89328 0.0
H330 H 0.41768 0.9652 0.93688 0.0
H331 H 0.5447 0.06449 0.90231 0.0
H332 H 0.47998 0.8728 0.89626 0.0
H333 H 0.44107 0.92117 0.90365 0.0
H334 H 0.56867 0.02469 0.93702 0.0
H335 H 0.60702 0.97542 0.93038 0.0
C336 C 0.41618 0.02623 0.92333 0.0
C337 C 0.43962 0.06655 0.91015 0.0
C338 C 0.43788 -0.00168 0.92805 0.0
C339 C 0.48393 0.01128 0.92022 0.0
C340 C 0.50928 0.05415 0.90867 0.0
C341 C 0.48707 0.08129 0.90347 0.0
C342 C 0.49885 0.90474 0.9059 0.0
C343 C 0.54648 0.92043 0.9127 0.0
C344 C 0.47662 0.93234 0.91014 0.0
C345 C 0.50214 0.97657 0.92082 0.0
C346 C 0.54834 0.99054 0.92885 0.0
C347 C 0.57007 0.96221 0.9251 0.0
H348 H 0.48561 0.60426 0.46107 0.0
H349 H 0.61011 0.63018 0.42484 0.0
H350 H 0.44686 0.51712 0.45338 0.0
H351 H 0.57197 0.54269 0.41789 0.0
H352 H 0.3841 0.36411 0.4263 0.0
H353 H 0.42234 0.4512 0.41859 0.0
H354 H 0.54959 0.4777 0.45291 0.0
H355 H 0.51079 0.39097 0.46137 0.0
C356 C 0.50395 0.59152 0.45096 0.0
C357 C 0.55081 0.62387 0.44359 0.0
C358 C 0.48181 0.5418 0.44654 0.0
C359 C 0.50668 0.52359 0.4351 0.0
C360 C 0.55213 0.55616 0.42663 0.0
C361 C 0.57373 0.60611 0.43057 0.0
C362 C 0.42097 0.38821 0.43157 0.0
C363 C 0.44447 0.37092 0.44454 0.0
C364 C 0.44262 0.43796 0.4272 0.0
C365 C 0.48867 0.47074 0.43519 0.0
C366 C 0.51415 0.45284 0.44646 0.0
C367 C 0.49199 0.40335 0.45131 0.0
H368 H 0.96863 0.60252 0.7596 0.0
H369 H 0.86976 0.47749 0.79553 0.0
H370 H 0.01665 0.5634 0.75187 0.0
H371 H 0.91686 0.43781 0.78711 0.0
H372 H 0.10975 0.50368 0.793 0.0
H373 H 0.06109 0.54195 0.78493 0.0
H374 H 0.95601 0.41139 0.75367 0.0
H375 H 0.00552 0.37358 0.76102 0.0
C376 C 0.95591 0.56583 0.76509 0.0
C377 C 0.91564 0.54308 0.77829 0.0
C378 C 0.98353 0.54365 0.76071 0.0
C379 C 0.97033 0.49781 0.76893 0.0
C380 C 0.92742 0.47306 0.78046 0.0
C381 C 0.90056 0.49575 0.7853 0.0
C382 C 0.07732 0.48393 0.7837 0.0
C383 C 0.06133 0.4357 0.77769 0.0
C384 C 0.04957 0.5058 0.77905 0.0
C385 C 0.00489 0.47938 0.76876 0.0
C386 C 0.9905 0.43241 0.76153 0.0
C387 C 0.01895 0.41099 0.76569 0.0
H388 H 0.38604 0.87423 0.12697 0.0
H389 H 0.36048 0.97517 0.09208 0.0
H390 H 0.47325 0.92311 0.1197 0.0
H391 H 0.44801 0.02496 0.08556 0.0
H392 H 0.62704 0.01612 0.09375 0.0
H393 H 0.54013 0.9669 0.08577 0.0
H394 H 0.51193 0.06556 0.12072 0.0
H395 H 0.59849 0.11385 0.12943 0.0
C396 C 0.39887 0.90592 0.11721 0.0
C397 C 0.3666 0.92096 0.11013 0.0
C398 C 0.44864 0.9338 0.11304 0.0
C399 C 0.46696 0.97768 0.10215 0.0
C400 C 0.43446 0.99106 0.09389 0.0
C401 C 0.38448 0.96244 0.09757 0.0
C402 C 0.60258 0.0283 0.09914 0.0
C403 C 0.61939 0.06866 0.11232 0.0
C404 C 0.55294 1e-05 0.09462 0.0
C405 C 0.51975 0.01264 0.10265 0.0
C406 C 0.5371 0.05549 0.11422 0.0
C407 C 0.5865 0.08301 0.11922 0.0
H408 H 0.20958 0.02511 0.12696 0.0
H409 H 0.26881 0.01203 0.18465 0.0
H410 H 0.20967 0.09766 0.13954 0.0
H411 H 0.26943 0.08481 0.19703 0.0
H412 H 0.20806 0.17958 0.21982 0.0
H413 H 0.20846 0.10804 0.20655 0.0
H414 H 0.26839 0.18307 0.14962 0.0
H415 H 0.26745 0.25473 0.16276 0.0
C416 C 0.22277 0.03777 0.14228 0.0
C417 C 0.23901 0.01271 0.15484 0.0
C418 C 0.22307 0.07945 0.14942 0.0
C419 C 0.23942 0.09672 0.16927 0.0
C420 C 0.25602 0.07191 0.18175 0.0
C421 C 0.25587 0.03037 0.17461 0.0
C422 C 0.22125 0.18088 0.20445 0.0
C423 C 0.23775 0.22285 0.19234 0.0
C424 C 0.22174 0.13998 0.19691 0.0
C425 C 0.23862 0.14011 0.17709 0.0
C426 C 0.2548 0.18187 0.1649 0.0
C427 C 0.25448 0.22294 0.17247 0.0
H428 H 0.01457 0.28204 0.49704 0.0
H429 H 0.0251 0.2173 0.55362 0.0
H430 H 0.0887 0.28485 0.4849 0.0
H431 H 0.09874 0.21978 0.54136 0.0
H432 H 0.25623 0.27958 0.52113 0.0
H433 H 0.18426 0.28144 0.53295 0.0
H434 H 0.11434 0.22518 0.47471 0.0
H435 H 0.18637 0.22379 0.46274 0.0
C436 C 0.03262 0.2684 0.50687 0.0
C437 C 0.01393 0.24942 0.52629 0.0
C438 C 0.07492 0.26984 0.49988 0.0
C439 C 0.09941 0.2526 0.51221 0.0
C440 C 0.0809 0.23388 0.53164 0.0
C441 C 0.03853 0.2322 0.5386 0.0
C442 C 0.2256 0.26778 0.51081 0.0
C443 C 0.22694 0.25134 0.49102 0.0
C444 C 0.18435 0.26864 0.51762 0.0
C445 C 0.14376 0.25332 0.50475 0.0
C446 C 0.14533 0.23761 0.48488 0.0
C447 C 0.18648 0.23652 0.47809 0.0
H448 H 0.96117 0.17873 0.80113 0.0
H449 H 0.97865 0.25542 0.85796 0.0
H450 H 0.88912 0.10797 0.8147 0.0
H451 H 0.90602 0.18455 0.8714 0.0
H452 H 0.80739 0.02695 0.89463 0.0
H453 H 0.87941 0.09921 0.88171 0.0
H454 H 0.80524 0.08566 0.82459 0.0
H455 H 0.73349 0.01316 0.83731 0.0
C456 C 0.94963 0.18056 0.8165 0.0
C457 C 0.97563 0.22272 0.82847 0.0
C458 C 0.90818 0.1401 0.82422 0.0
C459 C 0.89195 0.14088 0.84407 0.0
C460 C 0.91802 0.18286 0.8561 0.0
C461 C 0.95943 0.22347 0.84836 0.0
C462 C 0.80641 0.03941 0.87933 0.0
C463 C 0.7648 0.01419 0.86696 0.0
C464 C 0.84754 0.08093 0.87199 0.0
C465 C 0.8479 0.09787 0.85214 0.0
C466 C 0.80616 0.07299 0.83986 0.0
C467 C 0.765 0.03162 0.8472 0.0
H468 H 0.77524 0.96447 0.13147 0.0
H469 H 0.7166 0.97845 0.18903 0.0
H470 H 0.77433 0.89162 0.14408 0.0
H471 H 0.71515 0.9052 0.20147 0.0
H472 H 0.77403 0.80643 0.2236 0.0
H473 H 0.77412 0.87899 0.21111 0.0
H474 H 0.7141 0.80693 0.15359 0.0
H475 H 0.71456 0.73454 0.1659 0.0
C476 C 0.76204 0.95197 0.14678 0.0
C477 C 0.74605 0.97729 0.15926 0.0
C478 C 0.76128 0.91009 0.15395 0.0
C479 C 0.74465 0.89278 0.17375 0.0
C480 C 0.72866 0.91805 0.18623 0.0
C481 C 0.72926 0.95984 0.17905 0.0
C482 C 0.76081 0.80601 0.20829 0.0
C483 C 0.74438 0.76475 0.19572 0.0
C484 C 0.76064 0.84748 0.2012 0.0
C485 C 0.74418 0.84857 0.18138 0.0
C486 C 0.72755 0.80729 0.16884 0.0
C487 C 0.72757 0.76576 0.17595 0.0
H488 H 0.78727 0.73477 0.46158 0.0
H489 H 0.76105 0.77692 0.52076 0.0
H490 H 0.8574 0.73209 0.47522 0.0
H491 H 0.83334 0.77831 0.53418 0.0
H492 H 0.93844 0.73388 0.55851 0.0
H493 H 0.86608 0.73206 0.54483 0.0
H494 H 0.93642 0.77738 0.48588 0.0
H495 H 0.00684 0.77514 0.49935 0.0
C496 C 0.79711 0.74415 0.47747 0.0
C497 C 0.76888 0.75586 0.49018 0.0
C498 C 0.83756 0.74305 0.4853 0.0
C499 C 0.85147 0.7551 0.50587 0.0
C500 C 0.82333 0.76761 0.51843 0.0
C501 C 0.78208 0.76727 0.51073 0.0
C502 C 0.93807 0.74321 0.54261 0.0
C503 C 0.97789 0.75446 0.52993 0.0
C504 C 0.89679 0.74262 0.53476 0.0
C505 C 0.8951 0.75474 0.51418 0.0
C506 C 0.93559 0.76667 0.50163 0.0
C507 C 0.97623 0.76583 0.50936 0.0
H508 H 0.25375 0.97486 0.83254 0.0
H509 H 0.17993 0.96019 0.88982 0.0
H510 H 0.18231 0.9018 0.81977 0.0
H511 H 0.10838 0.88755 0.87688 0.0
H512 H 0.01089 0.73124 0.85448 0.0
H513 H 0.08388 0.80291 0.8671 0.0
H514 H 0.09743 0.87636 0.80983 0.0
H515 H 0.02478 0.8045 0.79703 0.0
C516 C 0.22231 0.95612 0.8424 0.0
C517 C 0.2225 0.97336 0.86219 0.0
C518 C 0.18134 0.91444 0.83503 0.0
C519 C 0.13984 0.88908 0.84733 0.0
C520 C 0.14009 0.9061 0.86715 0.0
C521 C 0.18098 0.94787 0.87451 0.0
C522 C 0.02947 0.7626 0.84454 0.0
C523 C 0.01199 0.76221 0.82476 0.0
C524 C 0.07111 0.80371 0.85182 0.0
C525 C 0.0962 0.84519 0.83946 0.0
C526 C 0.07905 0.84468 0.81961 0.0
C527 C 0.0373 0.80362 0.81234 0.0
H528 H 0.16732 0.1798 0.39924 0.0
H529 H 0.31099 0.20482 0.38466 0.0
H530 H 0.15334 0.18899 0.36327 0.0
H531 H 0.29758 0.21525 0.34891 0.0
H532 H 0.25255 0.20149 0.28359 0.0
H533 H 0.25399 0.17659 0.31859 0.0
H534 H 0.18047 0.25333 0.3384 0.0
H535 H 0.17773 0.27703 0.30312 0.0
C536 C 0.19577 0.18679 0.38835 0.0
C537 C 0.24037 0.19171 0.39489 0.0
C538 C 0.18788 0.19247 0.36773 0.0
C539 C 0.22439 0.20322 0.35314 0.0
C540 C 0.2683 0.20638 0.35962 0.0
C541 C 0.27613 0.20057 0.3802 0.0
C542 C 0.23616 0.21262 0.29537 0.0
C543 C 0.2154 0.24164 0.29059 0.0
C544 C 0.23727 0.19856 0.3155 0.0
C545 C 0.21802 0.21348 0.33144 0.0
C546 C 0.19532 0.24079 0.32653 0.0
C547 C 0.19387 0.25457 0.3063 0.0
H548 H 0.0284 0.21794 0.61813 0.0
H549 H 0.88697 0.19527 0.63513 0.0
H550 H 0.04951 0.2198 0.65401 0.0
H551 H 0.90867 0.1993 0.67106 0.0
H552 H 0.94794 0.18418 0.73518 0.0
H553 H 0.9255 0.16483 0.69942 0.0
H554 H 0.07155 0.27346 0.68175 0.0
H555 H 0.09433 0.29109 0.71757 0.0
C556 C 0.00166 0.21304 0.62957 0.0
C557 C 0.95608 0.2067 0.62379 0.0
C558 C 0.01393 0.21453 0.65018 0.0
C559 C 0.9812 0.21044 0.66559 0.0
C560 C 0.93476 0.20204 0.65973 0.0
C561 C 0.92224 0.19987 0.63908 0.0
C562 C 0.97545 0.20339 0.72364 0.0
C563 C 0.02288 0.23935 0.72921 0.0
C564 C 0.96246 0.19257 0.70309 0.0
C565 C -0.00361 0.21791 0.68753 0.0
C566 C 0.04443 0.25262 0.6932 0.0
C567 C 0.05758 0.26296 0.71379 0.0
H568 H 0.75672 0.07358 0.05341 0.0
H569 H 0.85132 0.01527 0.06691 0.0
H570 H 0.74308 0.03899 0.01919 0.0
H571 H 0.83794 0.98111 0.03234 0.0
H572 H 0.83211 0.97632 0.95923 0.0
H573 H 0.8522 0.0103 0.99384 0.0
H574 H 0.69916 0.94933 1.00676 0.0
H575 H 0.6789 0.91492 0.97249 0.0
C576 C 0.77524 0.05403 0.04901 0.0
C577 C 0.80499 0.04704 0.06298 0.0
C578 C 0.76707 0.0339 0.02943 0.0
C579 C 0.78898 0.00689 0.02321 0.0
C580 C 0.82056 0.00175 0.03677 0.0
C581 C 0.82817 0.02128 0.05654 0.0
C582 C 0.80274 0.96957 0.96956 0.0
C583 C 0.7539 0.94303 0.96303 0.0
C584 C 0.81429 0.98901 0.98936 0.0
C585 C 0.77726 0.98296 1.00286 0.0
C586 C 0.72847 0.95513 0.99656 0.0
C587 C 0.71689 0.9351 0.97695 0.0
H588 H 0.75714 0.67815 0.30116 0.0
H589 H 0.85131 0.83105 0.28785 0.0
H590 H 0.74424 0.69891 0.33552 0.0
H591 H 0.83866 0.85163 0.32255 0.0
H592 H 0.83446 0.85103 0.39556 0.0
H593 H 0.85381 0.8368 0.36089 0.0
H594 H 0.70053 0.74439 0.34834 0.0
H595 H 0.681 0.75888 0.38266 0.0
C596 C 0.77572 0.71617 0.30563 0.0
C597 C 0.80513 0.75295 0.29168 0.0
C598 C 0.76798 0.72803 0.32529 0.0
C599 C 0.78999 0.77689 0.33161 0.0
C600 C 0.82123 0.81366 0.31805 0.0
C601 C 0.82841 0.80184 0.29821 0.0
C602 C 0.80488 0.82822 0.3853 0.0
C603 C 0.75618 0.80599 0.39193 0.0
C604 C 0.816 0.82014 0.36548 0.0
C605 C 0.77869 0.78902 0.35205 0.0
C606 C 0.73004 0.76801 0.35848 0.0
C607 C 0.71889 0.77666 0.37811 0.0
H608 H 0.06963 0.75895 0.63769 0.0
H609 H 0.00509 0.84825 0.62451 0.0
H610 H 0.03597 0.74459 0.67207 0.0
H611 H 0.97189 0.83418 0.65922 0.0
H612 H 0.96958 0.82989 0.73232 0.0
H613 H 0.00249 0.85036 0.69758 0.0
H614 H 0.94678 0.6978 0.68497 0.0
H615 H 0.91341 0.67715 0.71936 0.0
C616 C 0.04888 0.77614 0.64219 0.0
C617 C 0.03992 0.80463 0.62827 0.0
C618 C 0.0293 0.76757 0.66186 0.0
C619 C 0.00088 0.78782 0.66822 0.0
C620 C 0.99366 0.81812 0.65469 0.0
C621 C 0.01265 0.82611 0.63484 0.0
C622 C 0.96378 0.80069 0.72203 0.0
C623 C 0.93896 0.75189 0.72866 0.0
C624 C 0.98259 0.81244 0.70216 0.0
C625 C 0.97769 0.77571 0.6887 0.0
C626 C 0.95166 0.72691 0.69513 0.0
C627 C 0.93222 0.7151 0.7148 0.0
H628 H 0.22985 0.91493 0.04962 0.0
H629 H 0.13258 0.97051 0.06208 0.0
H630 H 0.24342 0.94896 0.01531 0.0
H631 H 0.14591 0.0041 0.02742 0.0
H632 H 0.15299 0.00789 0.9543 0.0
H633 H 0.13283 0.97432 0.98896 0.0
H634 H 0.28596 0.03849 1.00274 0.0
H635 H 0.30628 0.07249 0.96843 0.0
C636 C 0.21075 0.93375 0.04497 0.0
C637 C 0.18026 0.94015 0.05867 0.0
C638 C 0.21886 0.95356 0.02534 0.0
C639 C 0.19617 0.97965 0.0188 0.0
C640 C 0.16389 0.98418 0.03209 0.0
C641 C 0.15632 0.96497 0.05191 0.0
C642 C 0.18235 0.01542 0.96483 0.0
C643 C 0.23125 0.04275 0.95854 0.0
C644 C 0.17076 -0.00379 0.98465 0.0
C645 C 0.20783 0.00329 0.99841 0.0
C646 C 0.25664 0.0319 0.99234 0.0
C647 C 0.26823 0.05168 0.9727 0.0
loop_
_geom_bond_atom_site_label_1
_geom_bond_atom_site_label_2
_geom_bond_distance
_geom_bond_site_symmetry_2
_ccdc_geom_bond_type
Zn0 O3 2.031 . S
Zn0 O5 2.049 . S
Zn0 O10 2.067 . S
Zn1 O2 1.962 . S
Zn1 O4 1.986 . S
Zn1 O6 1.996 . S
Zn1 O9 1.943 . S
O2 Zn1 1.962 . S
O2 C7 1.254 . S
O3 Zn0 2.031 . S
O3 C7 1.269 . S
O4 Zn1 1.986 . S
O4 C11 1.262 . S
O5 Zn0 2.049 . S
O5 C13 1.260 . S
O6 Zn1 1.996 . S
O6 C13 1.257 . S
C7 O2 1.254 . S
C7 O3 1.269 . S
C8 O9 1.249 . S
C8 O10 1.270 . S
O9 Zn1 1.943 . S
O9 C8 1.249 . S
O10 Zn0 2.067 . S
O10 C8 1.270 . S
C11 O4 1.262 . S
C11 O12 1.232 . S
O12 C11 1.232 . S
C13 O5 1.260 . S
C13 O6 1.257 . S
Zn14 O17 2.031 . S
Zn14 O19 2.049 . S
Zn14 O24 2.058 1_655 S
Zn15 O16 1.962 . S
Zn15 O18 1.986 . S
Zn15 O20 1.996 . S
Zn15 O23 1.958 . S
O16 Zn15 1.962 . S
O16 C21 1.254 . S
O17 Zn14 2.031 . S
O17 C21 1.269 . S
O18 Zn15 1.986 . S
O18 C25 1.262 . S
O19 Zn14 2.049 . S
O19 C27 1.260 . S
O20 Zn15 1.996 . S
O20 C27 1.257 . S
C21 O16 1.254 . S
C21 O17 1.269 . S
C22 O23 1.244 1_455 S
C22 O24 1.276 . S
O23 Zn15 1.958 . S
O23 C22 1.244 1_655 S
O24 Zn14 2.058 1_455 S
O24 C22 1.276 . S
C25 O18 1.262 . S
C25 O26 1.232 . S
O26 C25 1.232 . S
C27 O19 1.260 . S
C27 O20 1.257 . S
Zn28 O31 2.031 . S
Zn28 O33 2.049 . S
Zn28 O38 2.061 1_565 S
Zn29 O30 1.962 . S
Zn29 O32 1.986 . S
Zn29 O34 1.996 . S
Zn29 O37 1.952 . S
O30 Zn29 1.962 . S
O30 C35 1.254 . S
O31 Zn28 2.031 . S
O31 C35 1.269 . S
O32 Zn29 1.986 . S
O32 C39 1.262 . S
O33 Zn28 2.049 . S
O33 C41 1.260 . S
O34 Zn29 1.996 . S
O34 C41 1.257 . S
C35 O30 1.254 . S
C35 O31 1.269 . S
C36 O37 1.244 1_545 S
C36 O38 1.270 . S
O37 Zn29 1.952 . S
O37 C36 1.244 1_565 S
O38 Zn28 2.061 1_545 S
O38 C36 1.270 . S
C39 O32 1.262 . S
C39 O40 1.232 . S
O40 C39 1.232 . S
C41 O33 1.260 . S
C41 O34 1.257 . S
Zn42 O45 2.031 . S
Zn42 O47 2.049 . S
Zn42 O52 2.067 . S
Zn43 O44 1.962 . S
Zn43 O46 1.986 . S
Zn43 O48 1.996 . S
Zn43 O51 1.943 . S
O44 Zn43 1.962 . S
O44 C49 1.254 . S
O45 Zn42 2.031 . S
O45 C49 1.269 . S
O46 Zn43 1.986 . S
O46 C53 1.262 . S
O47 Zn42 2.049 . S
O47 C55 1.260 . S
O48 Zn43 1.996 . S
O48 C55 1.257 . S
C49 O44 1.254 . S
C49 O45 1.269 . S
C50 O51 1.249 . S
C50 O52 1.270 . S
O51 Zn43 1.943 . S
O51 C50 1.249 . S
O52 Zn42 2.067 . S
O52 C50 1.270 . S
C53 O46 1.262 . S
C53 O54 1.232 . S
O54 C53 1.232 . S
C55 O47 1.260 . S
C55 O48 1.257 . S
Zn56 O59 2.031 . S
Zn56 O61 2.049 . S
Zn56 O66 2.058 1_455 S
Zn57 O58 1.962 . S
Zn57 O60 1.986 . S
Zn57 O62 1.996 . S
Zn57 O65 1.958 . S
O58 Zn57 1.962 . S
O58 C63 1.254 . S
O59 Zn56 2.031 . S
O59 C63 1.269 . S
O60 Zn57 1.986 . S
O60 C67 1.262 . S
O61 Zn56 2.049 . S
O61 C69 1.260 . S
O62 Zn57 1.996 . S
O62 C69 1.257 . S
C63 O58 1.254 . S
C63 O59 1.269 . S
C64 O65 1.244 1_655 S
C64 O66 1.276 . S
O65 Zn57 1.958 . S
O65 C64 1.244 1_455 S
O66 Zn56 2.058 1_655 S
O66 C64 1.276 . S
C67 O60 1.262 . S
C67 O68 1.232 . S
O68 C67 1.232 . S
C69 O61 1.260 . S
C69 O62 1.257 . S
Zn70 O73 2.031 . S
Zn70 O75 2.049 . S
Zn70 O80 2.061 1_545 S
Zn71 O72 1.962 . S
Zn71 O74 1.986 . S
Zn71 O76 1.996 . S
Zn71 O79 1.952 . S
O72 Zn71 1.962 . S
O72 C77 1.254 . S
O73 Zn70 2.031 . S
O73 C77 1.269 . S
O74 Zn71 1.986 . S
O74 C81 1.262 . S
O75 Zn70 2.049 . S
O75 C83 1.260 . S
O76 Zn71 1.996 . S
O76 C83 1.257 . S
C77 O72 1.254 . S
C77 O73 1.269 . S
C78 O79 1.244 1_565 S
C78 O80 1.270 . S
O79 Zn71 1.952 . S
O79 C78 1.244 1_545 S
O80 Zn70 2.061 1_565 S
O80 C78 1.270 . S
C81 O74 1.262 . S
C81 O82 1.232 . S
O82 C81 1.232 . S
C83 O75 1.260 . S
C83 O76 1.257 . S
Zn84 O87 2.031 . S
Zn84 O89 2.049 . S
Zn84 O94 2.067 . S
Zn85 O86 1.962 . S
Zn85 O88 1.986 . S
Zn85 O90 1.996 . S
Zn85 O93 1.943 . S
O86 Zn85 1.962 . S
O86 C91 1.254 . S
O87 Zn84 2.031 . S
O87 C91 1.269 . S
O88 Zn85 1.986 . S
O88 C95 1.262 . S
O89 Zn84 2.049 . S
O89 C97 1.260 . S
O90 Zn85 1.996 . S
O90 C97 1.257 . S
C91 O86 1.254 . S
C91 O87 1.269 . S
C92 O93 1.249 . S
C92 O94 1.270 . S
O93 Zn85 1.943 . S
O93 C92 1.249 . S
O94 Zn84 2.067 . S
O94 C92 1.270 . S
C95 O88 1.262 . S
C95 O96 1.232 . S
O96 C95 1.232 . S
C97 O89 1.260 . S
C97 O90 1.257 . S
Zn98 O101 2.031 . S
Zn98 O103 2.049 . S
Zn98 O108 2.061 1_655 S
Zn99 O100 1.962 . S
Zn99 O102 1.986 . S
Zn99 O104 1.996 . S
Zn99 O107 1.952 . S
O100 Zn99 1.962 . S
O100 C105 1.254 . S
O101 Zn98 2.031 . S
O101 C105 1.269 . S
O102 Zn99 1.986 . S
O102 C109 1.262 . S
O103 Zn98 2.049 . S
O103 C111 1.260 . S
O104 Zn99 1.996 . S
O104 C111 1.257 . S
C105 O100 1.254 . S
C105 O101 1.269 . S
C106 O107 1.244 1_455 S
C106 O108 1.270 . S
O107 Zn99 1.952 . S
O107 C106 1.244 1_655 S
O108 Zn98 2.061 1_455 S
O108 C106 1.270 . S
C109 O102 1.262 . S
C109 O110 1.232 . S
O110 C109 1.232 . S
C111 O103 1.260 . S
C111 O104 1.257 . S
Zn112 O115 2.031 . S
Zn112 O117 2.049 . S
Zn112 O122 2.058 1_565 S
Zn113 O114 1.962 . S
Zn113 O116 1.986 . S
Zn113 O118 1.996 . S
Zn113 O121 1.958 . S
O114 Zn113 1.962 . S
O114 C119 1.254 . S
O115 Zn112 2.031 . S
O115 C119 1.269 . S
O116 Zn113 1.986 . S
O116 C123 1.262 . S
O117 Zn112 2.049 . S
O117 C125 1.260 . S
O118 Zn113 1.996 . S
O118 C125 1.257 . S
C119 O114 1.254 . S
C119 O115 1.269 . S
C120 O121 1.244 1_545 S
C120 O122 1.276 . S
O121 Zn113 1.958 . S
O121 C120 1.244 1_565 S
O122 Zn112 2.058 1_545 S
O122 C120 1.276 . S
C123 O116 1.262 . S
C123 O124 1.232 . S
O124 C123 1.232 . S
C125 O117 1.260 . S
C125 O118 1.257 . S
Zn126 O129 2.031 . S
Zn126 O131 2.049 . S
Zn126 O136 2.067 . S
Zn127 O128 1.962 . S
Zn127 O130 1.986 . S
Zn127 O132 1.996 . S
Zn127 O135 1.943 . S
O128 Zn127 1.962 . S
O128 C133 1.254 . S
O129 Zn126 2.031 . S
O129 C133 1.269 . S
O130 Zn127 1.986 . S
O130 C137 1.262 . S
O131 Zn126 2.049 . S
O131 C139 1.260 . S
O132 Zn127 1.996 . S
O132 C139 1.257 . S
C133 O128 1.254 . S
C133 O129 1.269 . S
C134 O135 1.249 . S
C134 O136 1.270 . S
O135 Zn127 1.943 . S
O135 C134 1.249 . S
O136 Zn126 2.067 . S
O136 C134 1.270 . S
C137 O130 1.262 . S
C137 O138 1.232 . S
O138 C137 1.232 . S
C139 O131 1.260 . S
C139 O132 1.257 . S
Zn140 O143 2.031 . S
Zn140 O145 2.049 . S
Zn140 O150 2.061 1_455 S
Zn141 O142 1.962 . S
Zn141 O144 1.986 . S
Zn141 O146 1.996 . S
Zn141 O149 1.952 . S
O142 Zn141 1.962 . S
O142 C147 1.254 . S
O143 Zn140 2.031 . S
O143 C147 1.269 . S
O144 Zn141 1.986 . S
O144 C151 1.262 . S
O145 Zn140 2.049 . S
O145 C153 1.260 . S
O146 Zn141 1.996 . S
O146 C153 1.257 . S
C147 O142 1.254 . S
C147 O143 1.269 . S
C148 O149 1.244 1_655 S
C148 O150 1.270 . S
O149 Zn141 1.952 . S
O149 C148 1.244 1_455 S
O150 Zn140 2.061 1_655 S
O150 C148 1.270 . S
C151 O144 1.262 . S
C151 O152 1.232 . S
O152 C151 1.232 . S
C153 O145 1.260 . S
C153 O146 1.257 . S
Zn154 O157 2.031 . S
Zn154 O159 2.049 . S
Zn154 O164 2.058 1_545 S
Zn155 O156 1.962 . S
Zn155 O158 1.986 . S
Zn155 O160 1.996 . S
Zn155 O163 1.958 . S
O156 Zn155 1.962 . S
O156 C161 1.254 . S
O157 Zn154 2.031 . S
O157 C161 1.269 . S
O158 Zn155 1.986 . S
O158 C165 1.262 . S
O159 Zn154 2.049 . S
O159 C167 1.260 . S
O160 Zn155 1.996 . S
O160 C167 1.257 . S
C161 O156 1.254 . S
C161 O157 1.269 . S
C162 O163 1.244 1_565 S
C162 O164 1.276 . S
O163 Zn155 1.958 . S
O163 C162 1.244 1_545 S
O164 Zn154 2.058 1_565 S
O164 C162 1.276 . S
C165 O158 1.262 . S
C165 O166 1.232 . S
O166 C165 1.232 . S
C167 O159 1.260 . S
C167 O160 1.257 . S
H168 C176 0.950 . S
H169 C181 0.950 . S
H170 C178 0.950 . S
H171 C180 0.950 . S
H172 C182 0.950 . S
H173 C184 0.950 . S
H174 C186 0.950 . S
H175 C187 0.950 . S
C176 H168 0.950 . S
C176 C177 1.386 . S
C176 C178 1.391 . S
C177 C176 1.386 . S
C177 C181 1.393 . S
C178 H170 0.950 . S
C178 C176 1.391 . S
C178 C179 1.400 . S
C179 C178 1.400 . S
C179 C180 1.398 . S
C179 C185 1.491 1_655 S
C180 H171 0.950 . S
C180 C179 1.398 . S
C180 C181 1.391 . S
C181 H169 0.950 . S
C181 C177 1.393 . S
C181 C180 1.391 . S
C182 H172 0.950 . S
C182 C183 1.386 . S
C182 C184 1.391 . S
C183 C182 1.386 . S
C183 C187 1.393 . S
C184 H173 0.950 . S
C184 C182 1.391 . S
C184 C185 1.400 . S
C185 C179 1.491 1_455 S
C185 C184 1.400 . S
C185 C186 1.398 . S
C186 H174 0.950 . S
C186 C185 1.398 . S
C186 C187 1.391 . S
C187 H175 0.950 . S
C187 C183 1.393 . S
C187 C186 1.391 . S
H188 C196 0.950 . S
H189 C201 0.950 . S
H190 C198 0.950 . S
H191 C200 0.950 . S
H192 C202 0.950 . S
H193 C204 0.950 . S
H194 C206 0.950 . S
H195 C207 0.950 . S
C196 H188 0.950 . S
C196 C197 1.386 . S
C196 C198 1.391 . S
C197 C196 1.386 . S
C197 C201 1.393 . S
C198 H190 0.950 . S
C198 C196 1.391 . S
C198 C199 1.400 . S
C199 C198 1.400 . S
C199 C200 1.398 . S
C199 C205 1.491 1_545 S
C200 H191 0.950 . S
C200 C199 1.398 . S
C200 C201 1.391 . S
C201 H189 0.950 . S
C201 C197 1.393 . S
C201 C200 1.391 . S
C202 H192 0.950 . S
C202 C203 1.386 . S
C202 C204 1.391 . S
C203 C202 1.386 . S
C203 C207 1.393 . S
C204 H193 0.950 . S
C204 C202 1.391 . S
C204 C205 1.400 . S
C205 C199 1.491 1_565 S
C205 C204 1.400 . S
C205 C206 1.398 . S
C206 H194 0.950 . S
C206 C205 1.398 . S
C206 C207 1.391 . S
C207 H195 0.950 . S
C207 C203 1.393 . S
C207 C206 1.391 . S
H208 C216 0.950 . S
H209 C221 0.950 . S
H210 C218 0.950 . S
H211 C220 0.950 . S
H212 C222 0.950 . S
H213 C224 0.950 . S
H214 C226 0.950 . S
H215 C227 0.950 . S
C216 H208 0.950 . S
C216 C217 1.386 . S
C216 C218 1.391 . S
C217 C216 1.386 . S
C217 C221 1.393 . S
C218 H210 0.950 . S
C218 C216 1.391 . S
C218 C219 1.400 . S
C219 C218 1.400 . S
C219 C220 1.398 . S
C219 C225 1.491 . S
C220 H211 0.950 . S
C220 C219 1.398 . S
C220 C221 1.391 . S
C221 H209 0.950 . S
C221 C217 1.393 . S
C221 C220 1.391 . S
C222 H212 0.950 . S
C222 C223 1.386 . S
C222 C224 1.391 . S
C223 C222 1.386 . S
C223 C227 1.393 . S
C224 H213 0.950 . S
C224 C222 1.391 . S
C224 C225 1.400 . S
C225 C219 1.491 . S
C225 C224 1.400 . S
C225 C226 1.398 . S
C226 H214 0.950 . S
C226 C225 1.398 . S
C226 C227 1.391 . S
C227 H215 0.950 . S
C227 C223 1.393 . S
C227 C226 1.391 . S
H228 C236 0.950 . S
H229 C241 0.950 . S
H230 C238 0.960 . S
H231 C240 0.950 . S
H232 C242 0.950 . S
H233 C244 0.959 . S
H234 C246 0.950 . S
H235 C247 0.950 . S
C236 H228 0.950 . S
C236 C237 1.386 . S
C236 C238 1.391 . S
C237 C236 1.386 . S
C237 C241 1.393 . S
C238 H230 0.960 . S
C238 C236 1.391 . S
C238 C239 1.400 . S
C239 C238 1.400 . S
C239 C240 1.398 . S
C239 C245 1.491 1_655 S
C240 H231 0.950 . S
C240 C239 1.398 . S
C240 C241 1.391 . S
C241 H229 0.950 . S
C241 C237 1.393 . S
C241 C240 1.391 . S
C242 H232 0.950 . S
C242 C243 1.386 . S
C242 C244 1.391 . S
C243 C242 1.386 . S
C243 C247 1.393 . S
C244 H233 0.959 . S
C244 C242 1.391 . S
C244 C245 1.400 . S
C245 C239 1.491 1_455 S
C245 C244 1.400 . S
C245 C246 1.398 . S
C246 H234 0.950 . S
C246 C245 1.398 . S
C246 C247 1.391 . S
C247 H235 0.950 . S
C247 C243 1.393 . S
C247 C246 1.391 . S
H248 C256 0.950 . S
H249 C261 0.950 . S
H250 C258 0.950 . S
H251 C260 0.950 . S
H252 C262 0.950 . S
H253 C264 0.950 . S
H254 C266 0.950 . S
H255 C267 0.950 . S
C256 H248 0.950 . S
C256 C257 1.386 . S
C256 C258 1.391 . S
C257 C256 1.386 . S
C257 C261 1.393 . S
C258 H250 0.950 . S
C258 C256 1.391 . S
C258 C259 1.400 . S
C259 C258 1.400 . S
C259 C260 1.398 . S
C259 C265 1.491 1_545 S
C260 H251 0.950 . S
C260 C259 1.398 . S
C260 C261 1.391 . S
C261 H249 0.950 . S
C261 C257 1.393 . S
C261 C260 1.391 . S
C262 H252 0.950 . S
C262 C263 1.386 . S
C262 C264 1.391 . S
C263 C262 1.386 . S
C263 C267 1.393 . S
C264 H253 0.950 . S
C264 C262 1.391 . S
C264 C265 1.400 . S
C265 C259 1.491 1_565 S
C265 C264 1.400 . S
C265 C266 1.398 . S
C266 H254 0.950 . S
C266 C265 1.398 . S
C266 C267 1.391 . S
C267 H255 0.950 . S
C267 C263 1.393 . S
C267 C266 1.391 . S
H268 C276 0.950 . S
H269 C281 0.950 . S
H270 C278 0.950 . S
H271 C280 0.950 . S
H272 C282 0.950 . S
H273 C284 0.950 . S
H274 C286 0.950 . S
H275 C287 0.950 . S
C276 H268 0.950 . S
C276 C277 1.386 . S
C276 C278 1.391 . S
C277 C276 1.386 . S
C277 C281 1.393 . S
C278 H270 0.950 . S
C278 C276 1.391 . S
C278 C279 1.400 . S
C279 C278 1.400 . S
C279 C280 1.398 . S
C279 C285 1.491 . S
C280 H271 0.950 . S
C280 C279 1.398 . S
C280 C281 1.391 . S
C281 H269 0.950 . S
C281 C277 1.393 . S
C281 C280 1.391 . S
C282 H272 0.950 . S
C282 C283 1.386 . S
C282 C284 1.391 . S
C283 C282 1.386 . S
C283 C287 1.393 . S
C284 H273 0.950 . S
C284 C282 1.391 . S
C284 C285 1.400 . S
C285 C279 1.491 . S
C285 C284 1.400 . S
C285 C286 1.398 . S
C286 H274 0.950 . S
C286 C285 1.398 . S
C286 C287 1.391 . S
C287 H275 0.950 . S
C287 C283 1.393 . S
C287 C286 1.391 . S
H288 C296 0.950 . S
H289 C301 0.950 . S
H290 C298 0.950 . S
H291 C300 0.950 . S
H292 C302 0.950 . S
H293 C304 0.950 . S
H294 C306 0.950 . S
H295 C307 0.950 . S
C296 H288 0.950 . S
C296 C297 1.386 . S
C296 C298 1.391 . S
C297 C296 1.386 . S
C297 C301 1.393 . S
C298 H290 0.950 . S
C298 C296 1.391 . S
C298 C299 1.400 . S
C299 C298 1.400 . S
C299 C300 1.398 . S
C299 C305 1.491 . S
C300 H291 0.950 . S
C300 C299 1.398 . S
C300 C301 1.391 . S
C301 H289 0.950 . S
C301 C297 1.393 . S
C301 C300 1.391 . S
C302 H292 0.950 . S
C302 C303 1.386 . S
C302 C304 1.391 . S
C303 C302 1.386 . S
C303 C307 1.393 . S
C304 H293 0.950 . S
C304 C302 1.391 . S
C304 C305 1.400 . S
C305 C299 1.491 . S
C305 C304 1.400 . S
C305 C306 1.398 . S
C306 H294 0.950 . S
C306 C305 1.398 . S
C306 C307 1.391 . S
C307 H295 0.950 . S
C307 C303 1.393 . S
C307 C306 1.391 . S
H308 C316 0.950 . S
H309 C321 0.950 . S
H310 C318 0.950 . S
H311 C320 0.950 . S
H312 C322 0.950 . S
H313 C324 0.950 . S
H314 C326 0.950 . S
H315 C327 0.950 . S
C316 H308 0.950 . S
C316 C317 1.386 . S
C316 C318 1.391 . S
C317 C316 1.386 . S
C317 C321 1.393 . S
C318 H310 0.950 . S
C318 C316 1.391 . S
C318 C319 1.400 . S
C319 C318 1.400 . S
C319 C320 1.398 . S
C319 C325 1.491 1_455 S
C320 H311 0.950 . S
C320 C319 1.398 . S
C320 C321 1.391 . S
C321 H309 0.950 . S
C321 C317 1.393 . S
C321 C320 1.391 . S
C322 H312 0.950 . S
C322 C323 1.386 . S
C322 C324 1.391 . S
C323 C322 1.386 . S
C323 C327 1.393 . S
C324 H313 0.950 . S
C324 C322 1.391 . S
C324 C325 1.400 . S
C325 C319 1.491 1_655 S
C325 C324 1.400 . S
C325 C326 1.398 . S
C326 H314 0.950 . S
C326 C325 1.398 . S
C326 C327 1.391 . S
C327 H315 0.950 . S
C327 C323 1.393 . S
C327 C326 1.391 . S
H328 C336 0.950 . S
H329 C341 0.950 1_565 S
H330 C338 0.950 . S
H331 C340 0.950 . S
H332 C342 0.950 . S
H333 C344 0.950 . S
H334 C346 0.950 . S
H335 C347 0.950 1_545 S
C336 H328 0.950 . S
C336 C337 1.386 . S
C336 C338 1.391 . S
C337 C336 1.386 . S
C337 C341 1.393 . S
C338 H330 0.950 . S
C338 C336 1.391 . S
C338 C339 1.400 . S
C339 C338 1.400 . S
C339 C340 1.398 1_545 S
C339 C345 1.491 1_545 S
C340 H331 0.950 . S
C340 C339 1.398 1_565 S
C340 C341 1.391 1_565 S
C341 H329 0.950 1_545 S
C341 C337 1.393 . S
C341 C340 1.391 1_545 S
C342 H332 0.950 . S
C342 C343 1.386 . S
C342 C344 1.391 . S
C343 C342 1.386 . S
C343 C347 1.393 . S
C344 H333 0.950 . S
C344 C342 1.391 . S
C344 C345 1.400 . S
C345 C339 1.491 1_565 S
C345 C344 1.400 . S
C345 C346 1.398 1_565 S
C346 H334 0.950 . S
C346 C345 1.398 1_545 S
C346 C347 1.391 1_545 S
C347 H335 0.950 1_565 S
C347 C343 1.393 . S
C347 C346 1.391 1_565 S
H348 C356 0.950 . S
H349 C361 0.950 . S
H350 C358 0.950 . S
H351 C360 0.950 . S
H352 C362 0.950 . S
H353 C364 0.950 . S
H354 C366 0.950 . S
H355 C367 0.950 . S
C356 H348 0.950 . S
C356 C357 1.386 . S
C356 C358 1.391 . S
C357 C356 1.386 . S
C357 C361 1.393 . S
C358 H350 0.950 . S
C358 C356 1.391 . S
C358 C359 1.400 . S
C359 C358 1.400 . S
C359 C360 1.398 . S
C359 C365 1.491 . S
C360 H351 0.950 . S
C360 C359 1.398 . S
C360 C361 1.391 . S
C361 H349 0.950 . S
C361 C357 1.393 . S
C361 C360 1.391 . S
C362 H352 0.950 . S
C362 C363 1.386 . S
C362 C364 1.391 . S
C363 C362 1.386 . S
C363 C367 1.393 . S
C364 H353 0.950 . S
C364 C362 1.391 . S
C364 C365 1.400 . S
C365 C359 1.491 . S
C365 C364 1.400 . S
C365 C366 1.398 . S
C366 H354 0.950 . S
C366 C365 1.398 . S
C366 C367 1.391 . S
C367 H355 0.950 . S
C367 C363 1.393 . S
C367 C366 1.391 . S
H368 C376 0.950 1_455 S
H369 C381 0.950 . S
H370 C378 0.950 . S
H371 C380 0.950 . S
H372 C382 0.950 1_655 S
H373 C384 0.950 . S
H374 C386 0.950 . S
H375 C387 0.950 . S
C376 H368 0.950 1_655 S
C376 C377 1.386 . S
C376 C378 1.391 1_655 S
C377 C376 1.386 . S
C377 C381 1.393 . S
C378 H370 0.950 . S
C378 C376 1.391 1_455 S
C378 C379 1.400 1_455 S
C379 C378 1.400 1_655 S
C379 C380 1.398 . S
C379 C385 1.491 1_655 S
C380 H371 0.950 . S
C380 C379 1.398 . S
C380 C381 1.391 . S
C381 H369 0.950 . S
C381 C377 1.393 . S
C381 C380 1.391 . S
C382 H372 0.950 1_455 S
C382 C383 1.386 . S
C382 C384 1.391 1_455 S
C383 C382 1.386 . S
C383 C387 1.393 . S
C384 H373 0.950 . S
C384 C382 1.391 1_655 S
C384 C385 1.400 1_655 S
C385 C379 1.491 1_455 S
C385 C384 1.400 1_455 S
C385 C386 1.398 . S
C386 H374 0.950 . S
C386 C385 1.398 . S
C386 C387 1.391 . S
C387 H375 0.950 . S
C387 C383 1.393 . S
C387 C386 1.391 . S
H388 C396 0.950 . S
H389 C401 0.950 . S
H390 C398 0.950 . S
H391 C400 0.950 . S
H392 C402 0.950 . S
H393 C404 0.950 . S
H394 C406 0.950 . S
H395 C407 0.950 . S
C396 H388 0.950 . S
C396 C397 1.386 . S
C396 C398 1.391 . S
C397 C396 1.386 . S
C397 C401 1.393 . S
C398 H390 0.950 . S
C398 C396 1.391 . S
C398 C399 1.400 . S
C399 C398 1.400 . S
C399 C400 1.398 . S
C399 C405 1.491 1_565 S
C400 H391 0.950 . S
C400 C399 1.398 . S
C400 C401 1.391 . S
C401 H389 0.950 . S
C401 C397 1.393 . S
C401 C400 1.391 . S
C402 H392 0.950 . S
C402 C403 1.386 . S
C402 C404 1.391 . S
C403 C402 1.386 . S
C403 C407 1.393 . S
C404 H393 0.950 . S
C404 C402 1.391 . S
C404 C405 1.400 . S
C405 C399 1.491 1_545 S
C405 C404 1.400 . S
C405 C406 1.398 . S
C406 H394 0.950 . S
C406 C405 1.398 . S
C406 C407 1.391 . S
C407 H395 0.950 . S
C407 C403 1.393 . S
C407 C406 1.391 . S
H408 C416 0.950 . S
H409 C421 0.950 1_565 S
H410 C418 0.950 . S
H411 C420 0.950 . S
H412 C422 0.950 . S
H413 C424 0.950 . S
H414 C426 0.950 . S
H415 C427 0.950 . S
C416 H408 0.950 . S
C416 C417 1.386 . S
C416 C418 1.391 . S
C417 C416 1.386 . S
C417 C421 1.393 . S
C418 H410 0.950 . S
C418 C416 1.391 . S
C418 C419 1.400 . S
C419 C418 1.400 . S
C419 C420 1.398 . S
C419 C425 1.491 . S
C420 H411 0.950 . S
C420 C419 1.398 . S
C420 C421 1.391 . S
C421 H409 0.950 1_545 S
C421 C417 1.393 . S
C421 C420 1.391 . S
C422 H412 0.950 . S
C422 C423 1.386 . S
C422 C424 1.391 . S
C423 C422 1.386 . S
C423 C427 1.393 . S
C424 H413 0.950 . S
C424 C422 1.391 . S
C424 C425 1.400 . S
C425 C419 1.491 . S
C425 C424 1.400 . S
C425 C426 1.398 . S
C426 H414 0.950 . S
C426 C425 1.398 . S
C426 C427 1.391 . S
C427 H415 0.950 . S
C427 C423 1.393 . S
C427 C426 1.391 . S
H428 C436 0.950 . S
H429 C441 0.950 . S
H430 C438 0.950 . S
H431 C440 0.950 . S
H432 C442 0.950 . S
H433 C444 0.950 . S
H434 C446 0.950 . S
H435 C447 0.950 . S
C436 H428 0.950 . S
C436 C437 1.386 . S
C436 C438 1.391 . S
C437 C436 1.386 . S
C437 C441 1.393 . S
C438 H430 0.950 . S
C438 C436 1.391 . S
C438 C439 1.400 . S
C439 C438 1.400 . S
C439 C440 1.398 . S
C439 C445 1.491 . S
C440 H431 0.950 . S
C440 C439 1.398 . S
C440 C441 1.391 . S
C441 H429 0.950 . S
C441 C437 1.393 . S
C441 C440 1.391 . S
C442 H432 0.950 . S
C442 C443 1.386 . S
C442 C444 1.391 . S
C443 C442 1.386 . S
C443 C447 1.393 . S
C444 H433 0.950 . S
C444 C442 1.391 . S
C444 C445 1.400 . S
C445 C439 1.491 . S
C445 C444 1.400 . S
C445 C446 1.398 . S
C446 H434 0.950 . S
C446 C445 1.398 . S
C446 C447 1.391 . S
C447 H435 0.950 . S
C447 C443 1.393 . S
C447 C446 1.391 . S
H448 C456 0.950 . S
H449 C461 0.950 1_455 S
H450 C458 0.950 . S
H451 C460 0.950 . S
H452 C462 0.950 . S
H453 C464 0.950 . S
H454 C466 0.950 . S
H455 C467 0.950 . S
C456 H448 0.950 . S
C456 C457 1.386 . S
C456 C458 1.391 . S
C457 C456 1.386 . S
C457 C461 1.393 . S
C458 H450 0.950 . S
C458 C456 1.391 . S
C458 C459 1.400 . S
C459 C458 1.400 . S
C459 C460 1.398 . S
C459 C465 1.491 . S
C460 H451 0.950 . S
C460 C459 1.398 . S
C460 C461 1.391 . S
C461 H449 0.950 1_655 S
C461 C457 1.393 . S
C461 C460 1.391 . S
C462 H452 0.950 . S
C462 C463 1.386 . S
C462 C464 1.391 . S
C463 C462 1.386 . S
C463 C467 1.393 . S
C464 H453 0.950 . S
C464 C462 1.391 . S
C464 C465 1.400 . S
C465 C459 1.491 . S
C465 C464 1.400 . S
C465 C466 1.398 . S
C466 H454 0.950 . S
C466 C465 1.398 . S
C466 C467 1.391 . S
C467 H455 0.950 . S
C467 C463 1.393 . S
C467 C466 1.391 . S
H468 C476 0.950 . S
H469 C481 0.950 1_545 S
H470 C478 0.950 . S
H471 C480 0.950 . S
H472 C482 0.950 . S
H473 C484 0.950 . S
H474 C486 0.950 . S
H475 C487 0.950 . S
C476 H468 0.950 . S
C476 C477 1.386 . S
C476 C478 1.391 . S
C477 C476 1.386 . S
C477 C481 1.393 . S
C478 H470 0.950 . S
C478 C476 1.391 . S
C478 C479 1.400 . S
C479 C478 1.400 . S
C479 C480 1.398 . S
C479 C485 1.491 . S
C480 H471 0.950 . S
C480 C479 1.398 . S
C480 C481 1.391 . S
C481 H469 0.950 1_565 S
C481 C477 1.393 . S
C481 C480 1.391 . S
C482 H472 0.950 . S
C482 C483 1.386 . S
C482 C484 1.391 . S
C483 C482 1.386 . S
C483 C487 1.393 . S
C484 H473 0.950 . S
C484 C482 1.391 . S
C484 C485 1.400 . S
C485 C479 1.491 . S
C485 C484 1.400 . S
C485 C486 1.398 . S
C486 H474 0.950 . S
C486 C485 1.398 . S
C486 C487 1.391 . S
C487 H475 0.950 . S
C487 C483 1.393 . S
C487 C486 1.391 . S
H488 C496 0.950 . S
H489 C501 0.950 . S
H490 C498 0.950 . S
H491 C500 0.950 . S
H492 C502 0.950 . S
H493 C504 0.950 . S
H494 C506 0.950 . S
H495 C507 0.950 . S
C496 H488 0.950 . S
C496 C497 1.386 . S
C496 C498 1.391 . S
C497 C496 1.386 . S
C497 C501 1.393 . S
C498 H490 0.950 . S
C498 C496 1.391 . S
C498 C499 1.400 . S
C499 C498 1.400 . S
C499 C500 1.398 . S
C499 C505 1.491 . S
C500 H491 0.950 . S
C500 C499 1.398 . S
C500 C501 1.391 . S
C501 H489 0.950 . S
C501 C497 1.393 . S
C501 C500 1.391 . S
C502 H492 0.950 . S
C502 C503 1.386 . S
C502 C504 1.391 . S
C503 C502 1.386 . S
C503 C507 1.393 . S
C504 H493 0.950 . S
C504 C502 1.391 . S
C504 C505 1.400 . S
C505 C499 1.491 . S
C505 C504 1.400 . S
C505 C506 1.398 . S
C506 H494 0.950 . S
C506 C505 1.398 . S
C506 C507 1.391 . S
C507 H495 0.950 . S
C507 C503 1.393 . S
C507 C506 1.391 . S
H508 C516 0.950 . S
H509 C521 0.950 1_545 S
H510 C518 0.950 . S
H511 C520 0.950 . S
H512 C522 0.950 . S
H513 C524 0.950 . S
H514 C526 0.950 . S
H515 C527 0.950 . S
C516 H508 0.950 . S
C516 C517 1.386 . S
C516 C518 1.391 . S
C517 C516 1.386 . S
C517 C521 1.393 . S
C518 H510 0.950 . S
C518 C516 1.391 . S
C518 C519 1.400 . S
C519 C518 1.400 . S
C519 C520 1.398 . S
C519 C525 1.491 . S
C520 H511 0.950 . S
C520 C519 1.398 . S
C520 C521 1.391 . S
C521 H509 0.950 1_565 S
C521 C517 1.393 . S
C521 C520 1.391 . S
C522 H512 0.950 . S
C522 C523 1.386 . S
C522 C524 1.391 . S
C523 C522 1.386 . S
C523 C527 1.393 . S
C524 H513 0.950 . S
C524 C522 1.391 . S
C524 C525 1.400 . S
C525 C519 1.491 . S
C525 C524 1.400 . S
C525 C526 1.398 . S
C526 H514 0.950 . S
C526 C525 1.398 . S
C526 C527 1.391 . S
C527 H515 0.950 . S
C527 C523 1.393 . S
C527 C526 1.391 . S
H528 C536 0.950 . S
H529 C541 0.950 . S
H530 C538 0.950 . S
H531 C540 0.950 . S
H532 C542 0.950 . S
H533 C544 0.950 . S
H534 C546 0.950 . S
H535 C547 0.950 . S
C536 H528 0.950 . S
C536 C537 1.386 . S
C536 C538 1.391 . S
C537 C536 1.386 . S
C537 C541 1.393 . S
C538 H530 0.950 . S
C538 C536 1.391 . S
C538 C539 1.400 . S
C539 C538 1.400 . S
C539 C540 1.398 . S
C539 C545 1.491 . S
C540 H531 0.950 . S
C540 C539 1.398 . S
C540 C541 1.391 . S
C541 H529 0.950 . S
C541 C537 1.393 . S
C541 C540 1.391 . S
C542 H532 0.950 . S
C542 C543 1.386 . S
C542 C544 1.391 . S
C543 C542 1.386 . S
C543 C547 1.393 . S
C544 H533 0.950 . S
C544 C542 1.391 . S
C544 C545 1.400 . S
C545 C539 1.491 . S
C545 C544 1.400 . S
C545 C546 1.398 . S
C546 H534 0.950 . S
C546 C545 1.398 . S
C546 C547 1.391 . S
C547 H535 0.950 . S
C547 C543 1.393 . S
C547 C546 1.391 . S
H548 C556 0.950 . S
H549 C561 0.950 . S
H550 C558 0.950 . S
H551 C560 0.950 . S
H552 C562 0.950 . S
H553 C564 0.950 . S
H554 C566 0.950 . S
H555 C567 0.950 . S
C556 H548 0.950 . S
C556 C557 1.386 1_455 S
C556 C558 1.391 . S
C557 C556 1.386 1_655 S
C557 C561 1.393 . S
C558 H550 0.950 . S
C558 C556 1.391 . S
C558 C559 1.400 1_455 S
C559 C558 1.400 1_655 S
C559 C560 1.398 . S
C559 C565 1.491 1_655 S
C560 H551 0.950 . S
C560 C559 1.398 . S
C560 C561 1.391 . S
C561 H549 0.950 . S
C561 C557 1.393 . S
C561 C560 1.391 . S
C562 H552 0.950 . S
C562 C563 1.386 1_655 S
C562 C564 1.391 . S
C563 C562 1.386 1_455 S
C563 C567 1.393 . S
C564 H553 0.950 . S
C564 C562 1.391 . S
C564 C565 1.400 1_655 S
C565 C559 1.491 1_455 S
C565 C564 1.400 1_455 S
C565 C566 1.398 . S
C566 H554 0.950 . S
C566 C565 1.398 . S
C566 C567 1.391 . S
C567 H555 0.950 . S
C567 C563 1.393 . S
C567 C566 1.391 . S
H568 C576 0.950 1_565 S
H569 C581 0.950 . S
H570 C578 0.950 . S
H571 C580 0.950 . S
H572 C582 0.950 1_545 S
H573 C584 0.950 . S
H574 C586 0.950 . S
H575 C587 0.950 . S
C576 H568 0.950 1_545 S
C576 C577 1.386 . S
C576 C578 1.391 1_545 S
C577 C576 1.386 . S
C577 C581 1.393 . S
C578 H570 0.950 . S
C578 C576 1.391 1_565 S
C578 C579 1.400 1_565 S
C579 C578 1.400 1_545 S
C579 C580 1.398 . S
C579 C585 1.491 1_544 S
C580 H571 0.950 . S
C580 C579 1.398 . S
C580 C581 1.391 . S
C581 H569 0.950 . S
C581 C577 1.393 . S
C581 C580 1.391 . S
C582 H572 0.950 1_565 S
C582 C583 1.386 . S
C582 C584 1.391 1_565 S
C583 C582 1.386 . S
C583 C587 1.393 . S
C584 H573 0.950 . S
C584 C582 1.391 1_545 S
C584 C585 1.400 1_545 S
C585 C579 1.491 1_566 S
C585 C584 1.400 1_565 S
C585 C586 1.398 . S
C586 H574 0.950 . S
C586 C585 1.398 . S
C586 C587 1.391 . S
C587 H575 0.950 . S
C587 C583 1.393 . S
C587 C586 1.391 . S
H588 C596 0.950 . S
H589 C601 0.950 . S
H590 C598 0.950 . S
H591 C600 0.950 . S
H592 C602 0.950 . S
H593 C604 0.950 . S
H594 C606 0.950 . S
H595 C607 0.950 . S
C596 H588 0.950 . S
C596 C597 1.386 . S
C596 C598 1.391 . S
C597 C596 1.386 . S
C597 C601 1.393 . S
C598 H590 0.950 . S
C598 C596 1.391 . S
C598 C599 1.400 . S
C599 C598 1.400 . S
C599 C600 1.398 . S
C599 C605 1.491 . S
C600 H591 0.950 . S
C600 C599 1.398 . S
C600 C601 1.391 . S
C601 H589 0.950 . S
C601 C597 1.393 . S
C601 C600 1.391 . S
C602 H592 0.950 . S
C602 C603 1.386 . S
C602 C604 1.391 . S
C603 C602 1.386 . S
C603 C607 1.393 . S
C604 H593 0.950 . S
C604 C602 1.391 . S
C604 C605 1.400 . S
C605 C599 1.491 . S
C605 C604 1.400 . S
C605 C606 1.398 . S
C606 H594 0.950 . S
C606 C605 1.398 . S
C606 C607 1.391 . S
C607 H595 0.950 . S
C607 C603 1.393 . S
C607 C606 1.391 . S
H608 C616 0.950 . S
H609 C621 0.950 . S
H610 C618 0.950 . S
H611 C620 0.950 . S
H612 C622 0.950 . S
H613 C624 0.950 . S
H614 C626 0.950 . S
H615 C627 0.950 . S
C616 H608 0.950 . S
C616 C617 1.386 . S
C616 C618 1.391 . S
C617 C616 1.386 . S
C617 C621 1.393 1_455 S
C618 H610 0.950 . S
C618 C616 1.391 . S
C618 C619 1.400 . S
C619 C618 1.400 . S
C619 C620 1.398 1_455 S
C619 C625 1.491 1_455 S
C620 H611 0.950 . S
C620 C619 1.398 1_655 S
C620 C621 1.391 . S
C621 H609 0.950 . S
C621 C617 1.393 1_655 S
C621 C620 1.391 . S
C622 H612 0.950 . S
C622 C623 1.386 . S
C622 C624 1.391 . S
C623 C622 1.386 . S
C623 C627 1.393 1_655 S
C624 H613 0.950 . S
C624 C622 1.391 . S
C624 C625 1.400 . S
C625 C619 1.491 1_655 S
C625 C624 1.400 . S
C625 C626 1.398 1_655 S
C626 H614 0.950 . S
C626 C625 1.398 1_455 S
C626 C627 1.391 . S
C627 H615 0.950 . S
C627 C623 1.393 1_455 S
C627 C626 1.391 . S
H628 C636 0.950 . S
H629 C641 0.950 . S
H630 C638 0.948 . S
H631 C640 0.950 . S
H632 C642 0.950 . S
H633 C644 0.948 . S
H634 C646 0.950 . S
H635 C647 0.950 . S
C636 H628 0.950 . S
C636 C637 1.386 . S
C636 C638 1.391 . S
C637 C636 1.386 . S
C637 C641 1.393 . S
C638 H630 0.948 . S
C638 C636 1.391 . S
C638 C639 1.400 . S
C639 C638 1.400 . S
C639 C640 1.398 . S
C639 C645 1.491 1_564 S
C640 H631 0.950 . S
C640 C639 1.398 . S
C640 C641 1.391 . S
C641 H629 0.950 . S
C641 C637 1.393 . S
C641 C640 1.391 . S
C642 H632 0.950 . S
C642 C643 1.386 . S
C642 C644 1.391 . S
C643 C642 1.386 . S
C643 C647 1.393 . S
C644 H633 0.948 . S
C644 C642 1.391 . S
C644 C645 1.400 . S
C645 C639 1.491 1_546 S
C645 C644 1.400 . S
C645 C646 1.398 . S
C646 H634 0.950 . S
C646 C645 1.398 . S
C646 C647 1.391 . S
C647 H635 0.950 . S
C647 C643 1.393 . S
C647 C646 1.391 . S
C177 C161 1.400 . S
C183 C7 1.413 . S
C197 C21 1.412 . S
C203 C91 1.415 . S
C217 C35 1.398 . S
C223 C105 1.407 . S
C237 C49 1.412 . S
C243 C119 1.399 . S
C257 C133 1.404 . S
C263 C63 1.399 . S
C277 C77 1.407 . S
C283 C147 1.416 . S
C297 C55 1.217 . S
C303 C13 1.238 . S
C317 C69 1.230 . S
C323 C27 1.229 . S
C337 C83 1.227 . S
C343 C41 1.209 . S
C357 C97 1.237 . S
C363 C139 1.209 . S
C377 C111 1.208 . S
C383 C153 1.232 . S
C397 C125 1.234 . S
C403 C167 1.225 . S
C417 C120 0.544 . S
C423 C8 0.532 . S
C437 C22 0.522 . S
C443 C134 0.544 . S
C457 C148 0.544 . S
C463 C36 0.530 . S
C477 C162 0.537 . S
C483 C50 0.508 . S
C497 C92 0.545 . S
C503 C64 0.527 . S
C517 C78 0.543 . S
C523 C106 0.536 . S
C537 C137 1.561 . S
C543 C11 1.560 . S
C557 C25 1.561 . S
C563 C151 1.560 . S
C577 C165 1.562 . S
C583 C39 1.562 . S
C597 C53 1.562 . S
C603 C95 1.562 . S
C617 C67 1.561 . S
C623 C109 1.562 . S
C637 C123 1.562 . S
C643 C81 1.562 . S
