# Generated by pormake.
# Topology uoa, (4)-cn, num edge types: 1
# Building blocks:
#     Node 0, Type 0, BuildingBlock: KOZSID_clean_sbu_0, # of connection points: 4
#     Node 1, Type 0, BuildingBlock: KOZSID_clean_sbu_0, # of connection points: 4
#     Node 2, Type 0, BuildingBlock: KOZSID_clean_sbu_0, # of connection points: 4
#     Node 3, Type 0, BuildingBlock: KOZSID_clean_sbu_0, # of connection points: 4
#     Node 4, Type 0, BuildingBlock: KOZSID_clean_sbu_0, # of connection points: 4
#     Node 5, Type 0, BuildingBlock: KOZSID_clean_sbu_0, # of connection points: 4
#     Node 6, Type 0, BuildingBlock: KOZSID_clean_sbu_0, # of connection points: 4
#     Node 7, Type 0, BuildingBlock: KOZSID_clean_sbu_0, # of connection points: 4
#     Node 8, Type 0, BuildingBlock: KOZSID_clean_sbu_0, # of connection points: 4
#     Node 9, Type 0, BuildingBlock: KOZSID_clean_sbu_0, # of connection points: 4
#     Node 10, Type 0, BuildingBlock: KOZSID_clean_sbu_0, # of connection points: 4
#     Node 11, Type 0, BuildingBlock: KOZSID_clean_sbu_0, # of connection points: 4
#     Node 12, Type 0, BuildingBlock: KOZSID_clean_sbu_0, # of connection points: 4
#     Node 13, Type 0, BuildingBlock: KOZSID_clean_sbu_0, # of connection points: 4
#     Node 14, Type 0, BuildingBlock: KOZSID_clean_sbu_0, # of connection points: 4
#     Node 15, Type 0, BuildingBlock: KOZSID_clean_sbu_0, # of connection points: 4
#     Node 16, Type 0, BuildingBlock: KOZSID_clean_sbu_0, # of connection points: 4
#     Node 17, Type 0, BuildingBlock: KOZSID_clean_sbu_0, # of connection points: 4
#     Node 18, Type 0, BuildingBlock: KOZSID_clean_sbu_0, # of connection points: 4
#     Node 19, Type 0, BuildingBlock: KOZSID_clean_sbu_0, # of connection points: 4
#     Node 20, Type 0, BuildingBlock: KOZSID_clean_sbu_0, # of connection points: 4
#     Node 21, Type 0, BuildingBlock: KOZSID_clean_sbu_0, # of connection points: 4
#     Node 22, Type 0, BuildingBlock: KOZSID_clean_sbu_0, # of connection points: 4
#     Node 23, Type 0, BuildingBlock: KOZSID_clean_sbu_0, # of connection points: 4
#     Node 24, Type 0, BuildingBlock: KOZSID_clean_sbu_0, # of connection points: 4
#     Node 25, Type 0, BuildingBlock: KOZSID_clean_sbu_0, # of connection points: 4
#     Node 26, Type 0, BuildingBlock: KOZSID_clean_sbu_0, # of connection points: 4
#     Node 27, Type 0, BuildingBlock: KOZSID_clean_sbu_0, # of connection points: 4
#     Node 28, Type 0, BuildingBlock: KOZSID_clean_sbu_0, # of connection points: 4
#     Node 29, Type 0, BuildingBlock: KOZSID_clean_sbu_0, # of connection points: 4
#     Node 30, Type 0, BuildingBlock: KOZSID_clean_sbu_0, # of connection points: 4
#     Node 31, Type 0, BuildingBlock: KOZSID_clean_sbu_0, # of connection points: 4
#     Edge 32, Type (0, 0), BuildingBlock: AJUNOK_clean_linker_0, # of connection points: 2
#     Edge 33, Type (0, 0), BuildingBlock: AJUNOK_clean_linker_0, # of connection points: 2
#     Edge 34, Type (0, 0), BuildingBlock: AJUNOK_clean_linker_0, # of connection points: 2
#     Edge 35, Type (0, 0), BuildingBlock: AJUNOK_clean_linker_0, # of connection points: 2
#     Edge 36, Type (0, 0), BuildingBlock: AJUNOK_clean_linker_0, # of connection points: 2
#     Edge 37, Type (0, 0), BuildingBlock: AJUNOK_clean_linker_0, # of connection points: 2
#     Edge 38, Type (0, 0), BuildingBlock: AJUNOK_clean_linker_0, # of connection points: 2
#     Edge 39, Type (0, 0), BuildingBlock: AJUNOK_clean_linker_0, # of connection points: 2
#     Edge 40, Type (0, 0), BuildingBlock: AJUNOK_clean_linker_0, # of connection points: 2
#     Edge 41, Type (0, 0), BuildingBlock: AJUNOK_clean_linker_0, # of connection points: 2
#     Edge 42, Type (0, 0), BuildingBlock: AJUNOK_clean_linker_0, # of connection points: 2
#     Edge 43, Type (0, 0), BuildingBlock: AJUNOK_clean_linker_0, # of connection points: 2
#     Edge 44, Type (0, 0), BuildingBlock: AJUNOK_clean_linker_0, # of connection points: 2
#     Edge 45, Type (0, 0), BuildingBlock: AJUNOK_clean_linker_0, # of connection points: 2
#     Edge 46, Type (0, 0), BuildingBlock: AJUNOK_clean_linker_0, # of connection points: 2
#     Edge 47, Type (0, 0), BuildingBlock: AJUNOK_clean_linker_0, # of connection points: 2
#     Edge 48, Type (0, 0), BuildingBlock: AJUNOK_clean_linker_0, # of connection points: 2
#     Edge 49, Type (0, 0), BuildingBlock: AJUNOK_clean_linker_0, # of connection points: 2
#     Edge 50, Type (0, 0), BuildingBlock: AJUNOK_clean_linker_0, # of connection points: 2
#     Edge 51, Type (0, 0), BuildingBlock: AJUNOK_clean_linker_0, # of connection points: 2
#     Edge 52, Type (0, 0), BuildingBlock: AJUNOK_clean_linker_0, # of connection points: 2
#     Edge 53, Type (0, 0), BuildingBlock: AJUNOK_clean_linker_0, # of connection points: 2
#     Edge 54, Type (0, 0), BuildingBlock: AJUNOK_clean_linker_0, # of connection points: 2
#     Edge 55, Type (0, 0), BuildingBlock: AJUNOK_clean_linker_0, # of connection points: 2
#     Edge 56, Type (0, 0), BuildingBlock: AJUNOK_clean_linker_0, # of connection points: 2
#     Edge 57, Type (0, 0), BuildingBlock: AJUNOK_clean_linker_0, # of connection points: 2
#     Edge 58, Type (0, 0), BuildingBlock: AJUNOK_clean_linker_0, # of connection points: 2
#     Edge 59, Type (0, 0), BuildingBlock: AJUNOK_clean_linker_0, # of connection points: 2
#     Edge 60, Type (0, 0), BuildingBlock: AJUNOK_clean_linker_0, # of connection points: 2
#     Edge 61, Type (0, 0), BuildingBlock: AJUNOK_clean_linker_0, # of connection points: 2
#     Edge 62, Type (0, 0), BuildingBlock: AJUNOK_clean_linker_0, # of connection points: 2
#     Edge 63, Type (0, 0), BuildingBlock: AJUNOK_clean_linker_0, # of connection points: 2
#     Edge 64, Type (0, 0), BuildingBlock: AJUNOK_clean_linker_0, # of connection points: 2
#     Edge 65, Type (0, 0), BuildingBlock: AJUNOK_clean_linker_0, # of connection points: 2
#     Edge 66, Type (0, 0), BuildingBlock: AJUNOK_clean_linker_0, # of connection points: 2
#     Edge 67, Type (0, 0), BuildingBlock: AJUNOK_clean_linker_0, # of connection points: 2
#     Edge 68, Type (0, 0), BuildingBlock: AJUNOK_clean_linker_0, # of connection points: 2
#     Edge 69, Type (0, 0), BuildingBlock: AJUNOK_clean_linker_0, # of connection points: 2
#     Edge 70, Type (0, 0), BuildingBlock: AJUNOK_clean_linker_0, # of connection points: 2
#     Edge 71, Type (0, 0), BuildingBlock: AJUNOK_clean_linker_0, # of connection points: 2
#     Edge 72, Type (0, 0), BuildingBlock: AJUNOK_clean_linker_0, # of connection points: 2
#     Edge 73, Type (0, 0), BuildingBlock: AJUNOK_clean_linker_0, # of connection points: 2
#     Edge 74, Type (0, 0), BuildingBlock: AJUNOK_clean_linker_0, # of connection points: 2
#     Edge 75, Type (0, 0), BuildingBlock: AJUNOK_clean_linker_0, # of connection points: 2
#     Edge 76, Type (0, 0), BuildingBlock: AJUNOK_clean_linker_0, # of connection points: 2
#     Edge 77, Type (0, 0), BuildingBlock: AJUNOK_clean_linker_0, # of connection points: 2
#     Edge 78, Type (0, 0), BuildingBlock: AJUNOK_clean_linker_0, # of connection points: 2
#     Edge 79, Type (0, 0), BuildingBlock: AJUNOK_clean_linker_0, # of connection points: 2
#     Edge 80, Type (0, 0), BuildingBlock: AJUNOK_clean_linker_0, # of connection points: 2
#     Edge 81, Type (0, 0), BuildingBlock: AJUNOK_clean_linker_0, # of connection points: 2
#     Edge 82, Type (0, 0), BuildingBlock: AJUNOK_clean_linker_0, # of connection points: 2
#     Edge 83, Type (0, 0), BuildingBlock: AJUNOK_clean_linker_0, # of connection points: 2
#     Edge 84, Type (0, 0), BuildingBlock: AJUNOK_clean_linker_0, # of connection points: 2
#     Edge 85, Type (0, 0), BuildingBlock: AJUNOK_clean_linker_0, # of connection points: 2
#     Edge 86, Type (0, 0), BuildingBlock: AJUNOK_clean_linker_0, # of connection points: 2
#     Edge 87, Type (0, 0), BuildingBlock: AJUNOK_clean_linker_0, # of connection points: 2
#     Edge 88, Type (0, 0), BuildingBlock: AJUNOK_clean_linker_0, # of connection points: 2
#     Edge 89, Type (0, 0), BuildingBlock: AJUNOK_clean_linker_0, # of connection points: 2
#     Edge 90, Type (0, 0), BuildingBlock: AJUNOK_clean_linker_0, # of connection points: 2
#     Edge 91, Type (0, 0), BuildingBlock: AJUNOK_clean_linker_0, # of connection points: 2
#     Edge 92, Type (0, 0), BuildingBlock: AJUNOK_clean_linker_0, # of connection points: 2
#     Edge 93, Type (0, 0), BuildingBlock: AJUNOK_clean_linker_0, # of connection points: 2
#     Edge 94, Type (0, 0), BuildingBlock: AJUNOK_clean_linker_0, # of connection points: 2
#     Edge 95, Type (0, 0), BuildingBlock: AJUNOK_clean_linker_0, # of connection points: 2
# Relax obj value: 0.032
# Max RMSD: 0.244
# Mean RMSD: 0.244
data_MOF--net-uoa--node1-KOZSID_clean_sbu_0--edge1-AJUNOK_clean_linker_0
_symmetry_space_group_name_H-M    P1
_symmetry_Int_Tables_number       1
_symmetry_cell_setting            triclinic
loop_
_symmetry_equiv_pos_as_xyz
'x, y, z'
_cell_length_a     77.86706
_cell_length_b     78.034588
_cell_length_c     25.284902
_cell_angle_alpha  89.991425
_cell_angle_beta   89.904047
_cell_angle_gamma 90.086813
loop_
_atom_site_label
_atom_site_type_symbol
_atom_site_fract_x
_atom_site_fract_y
_atom_site_fract_z
_atom_type_partial_charge
C0 C 0.02297 0.12889 0.97414 0.0
C1 C 1.01074 0.13959 0.95141 0.0
C2 C 1.00253 0.14771 0.99171 0.0
C3 C 1.00975 0.14127 0.03668 0.0
N4 N 0.02195 0.12935 0.02805 0.0
Co5 Co 0.03527 0.11719 0.085 0.0
N6 N 1.01915 0.12529 0.14173 0.0
C7 C 1.00819 0.13854 0.13661 0.0
C8 C 1.00104 0.14397 0.18309 0.0
C9 C 1.00791 0.13361 0.22068 0.0
C10 C 1.01856 0.12205 0.19462 0.0
N11 N 0.04854 0.10575 0.14336 0.0
C12 C 0.04466 0.10318 0.196 0.0
C13 C 0.05729 0.09336 0.21989 0.0
C14 C 0.06955 0.09016 0.18201 0.0
C15 C 0.06373 0.09789 0.13666 0.0
N16 N 0.05099 0.10942 0.02716 0.0
C17 C 0.06589 0.10113 0.03481 0.0
C18 C 0.07372 0.09642 0.98826 0.0
C19 C 0.06303 0.10201 0.94866 0.0
C20 C 0.04917 0.10982 0.9731 0.0
N21 N 0.04986 0.13856 0.09581 0.0
C22 C 0.07378 0.16661 0.11226 0.0
C23 C 0.06871 0.16118 0.06121 0.0
C24 C 0.05695 0.14734 0.05393 0.0
C25 C 0.06616 0.15757 0.15456 0.0
C26 C 0.0544 0.14393 0.14572 0.0
N27 N 0.02201 0.09481 0.07375 0.0
C28 C 1.02089 0.06444 0.09834 0.0
C29 C 1.01819 0.05915 0.04595 0.0
C30 C 1.0151 0.07237 1.00944 0.0
C31 C 1.01669 0.08982 0.02422 0.0
C32 C 0.02211 0.08204 0.1114 0.0
H33 H 1.01394 0.09899 0.9943 0.0
H34 H 0.02346 0.0849 0.15231 0.0
H35 H 0.05393 0.14356 0.01398 0.0
H36 H 0.04929 0.13755 0.18002 0.0
C37 C 1.00448 0.14529 0.08742 0.0
C38 C 0.03484 0.11799 0.94341 0.0
C39 C 0.02845 0.10887 0.22267 0.0
C40 C 0.07095 0.09638 0.08599 0.0
H41 H 1.00759 0.14138 0.91028 0.0
H42 H 0.99216 0.15688 0.9886 0.0
H43 H 0.99207 0.15439 0.189 0.0
H44 H 1.00557 0.1347 0.26274 0.0
H45 H 0.05745 0.08839 0.25974 0.0
H46 H 0.08097 0.08241 0.18648 0.0
H47 H 0.08554 0.08928 0.98361 0.0
H48 H 0.06513 0.10047 0.90661 0.0
H49 H 0.07419 0.16721 0.02653 0.0
H50 H 0.06923 0.16103 0.19492 0.0
H51 H 0.02218 0.055 0.12948 0.0
H52 H 1.01208 0.06937 0.9688 0.0
C53 C 0.1706 0.76918 0.22487 0.0
C54 C 0.16371 0.75502 0.19888 0.0
C55 C 0.15575 0.74526 0.23625 0.0
C56 C 0.15848 0.75368 0.28296 0.0
N57 N 0.16759 0.76828 0.27748 0.0
Co58 Co 0.1756 0.78339 0.33582 0.0
N59 N 0.17295 0.7645 0.38818 0.0
C60 C 0.16477 0.7495 0.38015 0.0
C61 C 0.1676 0.73765 0.41907 0.0
C62 C 0.17792 0.74574 0.45462 0.0
C63 C 0.18029 0.7624 0.43624 0.0
N64 N 0.18317 0.79809 0.39565 0.0
C65 C 0.18656 0.79403 0.44735 0.0
C66 C 0.18924 0.80884 0.47648 0.0
C67 C 0.1873 0.82246 0.44215 0.0
C68 C 0.18344 0.81533 0.39381 0.0
N69 N 0.17849 0.80149 0.28167 0.0
C70 C 0.17958 0.81833 0.29195 0.0
C71 C 0.18208 0.82775 0.24647 0.0
C72 C 0.18254 0.81599 0.20554 0.0
C73 C 0.18036 0.79995 0.22811 0.0
N74 N 0.15136 0.79207 0.34901 0.0
C75 C 0.12343 0.81586 0.36871 0.0
C76 C 0.1285 0.81101 0.31707 0.0
C77 C 0.14209 0.79914 0.30822 0.0
C78 C 0.13212 0.80727 0.40998 0.0
C79 C 0.14564 0.79541 0.39948 0.0
N80 N 0.20029 0.77707 0.32226 0.0
C81 C 0.22902 0.78851 0.30773 0.0
C82 C 0.23598 0.77241 0.29635 0.0
C83 C 0.22421 0.75849 0.29681 0.0
C84 C 0.20645 0.76108 0.30965 0.0
C85 C 0.21176 0.79043 0.32159 0.0
H86 H 0.19776 0.75026 0.30905 0.0
H87 H 0.20775 0.80322 0.33033 0.0
H88 H 0.14589 0.79668 0.26783 0.0
H89 H 0.15214 0.78978 0.43285 0.0
C90 C 0.15732 0.74572 0.3318 0.0
C91 C 0.17913 0.78354 0.19807 0.0
C92 C 0.1858 0.77648 0.47077 0.0
C93 C 0.18131 0.82402 0.34493 0.0
H94 H 0.16465 0.75167 0.15751 0.0
H95 H 0.15006 0.73272 0.2306 0.0
H96 H 0.16319 0.72449 0.4205 0.0
H97 H 0.1824 0.74027 0.49143 0.0
H98 H 0.19197 0.8097 0.51836 0.0
H99 H 0.18859 0.83593 0.45145 0.0
H100 H 0.1841 0.84144 0.24349 0.0
H101 H 0.18434 0.81884 0.16401 0.0
H102 H 0.12266 0.817 0.28301 0.0
H103 H 0.12875 0.80989 0.45072 0.0
H104 H 0.23682 0.79997 0.30528 0.0
H105 H 0.22866 0.74569 0.28764 0.0
C106 C 0.5228 0.91597 0.4717 0.0
C107 C 0.53606 0.9082 0.44357 0.0
C108 C 0.54561 0.89928 0.47926 0.0
C109 C 0.53796 0.90231 0.52711 0.0
N110 N 0.52405 0.91251 0.52389 0.0
Co111 Co 0.51001 0.92084 0.58434 0.0
N112 N 0.52918 0.91648 0.63463 0.0
C113 C 0.54344 0.90727 0.62451 0.0
C114 C 0.55552 0.90818 0.66367 0.0
C115 C 0.54833 0.91829 0.7016 0.0
C116 C 0.53194 0.92255 0.68408 0.0
N117 N 0.49618 0.92827 0.6464 0.0
C118 C 0.50086 0.931 0.69784 0.0
C119 C 0.48648 0.93436 0.72852 0.0
C120 C 0.47247 0.93359 0.6953 0.0
C121 C 0.47895 0.92969 0.64611 0.0
N122 N 0.4917 0.92566 0.53242 0.0
C123 C 0.47511 0.92823 0.5442 0.0
C124 C 0.46565 0.9324 0.50001 0.0
C125 C 0.47715 0.93245 0.45827 0.0
C126 C 0.49306 0.92836 0.47916 0.0
N127 N 0.50022 0.89698 0.59572 0.0
C128 C 0.47721 0.86854 0.61671 0.0
C129 C 0.4806 0.87448 0.56491 0.0
C130 C 0.492 0.88847 0.55536 0.0
C131 C 0.48692 0.87654 0.65697 0.0
C132 C 0.49825 0.89041 0.64583 0.0
N133 N 0.51774 0.94531 0.57244 0.0
C134 C 0.50869 0.97527 0.56814 0.0
C135 C 0.52336 0.9802 0.54033 0.0
C136 C 0.53559 0.96723 0.53011 0.0
C137 C 0.53265 0.94997 0.54691 0.0
C138 C 0.50609 0.95813 0.58304 0.0
H139 H 0.54218 0.94039 0.53768 0.0
H140 H 0.49394 0.95543 0.60099 0.0
H141 H 0.49341 0.89295 0.51517 0.0
H142 H 0.50476 0.89636 0.67869 0.0
C143 C 0.54627 0.90012 0.57506 0.0
C144 C 0.50911 0.9262 0.44769 0.0
C145 C 0.51853 0.92915 0.71945 0.0
C146 C 0.46986 0.92939 0.59766 0.0
H147 H 0.53905 0.9092 0.40194 0.0
H148 H 0.5576 0.89269 0.47177 0.0
H149 H 0.56822 0.90256 0.66398 0.0
H150 H 0.55424 0.9215 0.73905 0.0
H151 H 0.48615 0.93691 0.77058 0.0
H152 H 0.45919 0.93591 0.70572 0.0
H153 H 0.45218 0.93575 0.49851 0.0
H154 H 0.47422 0.93526 0.41736 0.0
H155 H 0.47389 0.86886 0.5317 0.0
H156 H 0.48565 0.87229 0.69753 0.0
H157 H 0.49883 0.98463 0.57699 0.0
H158 H 0.54725 0.97033 0.50877 0.0
C159 C 0.37874 0.26284 0.71794 0.0
C160 C 0.39239 0.27023 0.69081 0.0
C161 C 0.40228 0.27831 0.7277 0.0
C162 C 0.39425 0.2752 0.77502 0.0
N163 N 0.37985 0.26574 0.77081 0.0
Co164 Co 0.3677 0.2547 0.83173 0.0
N165 N 0.37776 0.27142 0.88328 0.0
C166 C 0.39197 0.28088 0.87388 0.0
C167 C 0.39842 0.28888 0.91766 0.0
C168 C 0.38782 0.2841 0.95788 0.0
C169 C 0.37514 0.27367 0.93617 0.0
N170 N 0.35674 0.24324 0.89446 0.0
C171 C 0.35545 0.24823 0.94656 0.0
C172 C 0.34517 0.23677 0.97434 0.0
C173 C 0.34046 0.22412 0.93956 0.0
C174 C 0.34774 0.22857 0.89204 0.0
N175 N 0.35762 0.23864 0.77819 0.0
C176 C 0.34757 0.22517 0.79016 0.0
C177 C 0.33864 0.21909 0.74732 0.0
C178 C 0.34325 0.2294 0.70567 0.0
C179 C 0.35526 0.241 0.72467 0.0
N180 N 0.38843 0.23932 0.84194 0.0
C181 C 0.41732 0.21667 0.85809 0.0
C182 C 0.41034 0.21978 0.8074 0.0
C183 C 0.39604 0.2309 0.8003 0.0
C184 C 0.40919 0.22526 0.90021 0.0
C185 C 0.39508 0.23638 0.89149 0.0
N186 N 0.34593 0.26896 0.82112 0.0
C187 C 0.31516 0.26944 0.84139 0.0
C188 C 0.31066 0.27335 0.7891 0.0
C189 C 0.3245 0.27745 0.75526 0.0
C190 C 0.34179 0.27575 0.77255 0.0
C191 C 0.33253 0.26788 0.85664 0.0
H192 H 0.35165 0.27942 0.7453 0.0
H193 H 0.33461 0.26532 0.8975 0.0
H194 H 0.39107 0.23252 0.76081 0.0
H195 H 0.38954 0.24247 0.92561 0.0
C196 C 0.39928 0.28165 0.82373 0.0
C197 C 0.36442 0.2541 0.69164 0.0
C198 C 0.36233 0.26461 0.96889 0.0
C199 C 0.34398 0.22115 0.84301 0.0
H200 H 0.39482 0.26993 0.64865 0.0
H201 H 0.41386 0.28568 0.72081 0.0
H202 H 0.40986 0.29673 0.9204 0.0
H203 H 0.38983 0.28725 0.99907 0.0
H204 H 0.3406 0.2378 0.01454 0.0
H205 H 0.33176 0.21358 0.94725 0.0
H206 H 0.32878 0.2093 0.74725 0.0
H207 H 0.33751 0.2289 0.66696 0.0
H208 H 0.41561 0.21333 0.77315 0.0
H209 H 0.41382 0.22357 0.94023 0.0
H210 H 0.30525 0.26738 0.87082 0.0
H211 H 0.32215 0.28131 0.71482 0.0
C212 C 0.02203 0.91247 0.54784 0.0
C213 C 1.00892 0.90278 0.5705 0.0
C214 C 1.00036 0.89507 0.53022 0.0
C215 C 1.00824 0.90086 0.48535 0.0
N216 N 0.02119 0.91199 0.49401 0.0
Co217 Co 0.03516 0.9237 0.43745 0.0
N218 N 1.01885 0.91617 0.38057 0.0
C219 C 1.00728 0.90339 0.38552 0.0
C220 C 1.00019 0.89805 0.33892 0.0
C221 C 1.00772 0.90799 0.30137 0.0
C222 C 1.01866 0.91924 0.32761 0.0
N223 N 0.04892 0.93482 0.3794 0.0
C224 C 0.04522 0.93753 0.32678 0.0
C225 C 0.05816 0.94703 0.30299 0.0
C226 C 0.07042 0.94993 0.34102 0.0
C227 C 0.06429 0.94233 0.38629 0.0
N228 N 0.0511 0.93082 0.49541 0.0
C229 C 0.06624 0.93875 0.48801 0.0
C230 C 0.07421 0.943 0.53471 0.0
C231 C 0.06336 0.93747 0.57414 0.0
C232 C 0.04929 0.93015 0.54942 0.0
N233 N 0.04903 0.90182 0.42642 0.0
C234 C 0.07203 0.87298 0.40907 0.0
C235 C 0.06741 0.8787 0.46028 0.0
C236 C 0.05602 0.89284 0.46802 0.0
C237 C 0.06454 0.88227 0.36712 0.0
C238 C 0.0533 0.89631 0.3764 0.0
N239 N 0.02273 0.9466 0.44893 0.0
C240 C 0.02146 0.97677 0.4217 0.0
C241 C 1.01959 0.98263 0.47395 0.0
C242 C 1.01698 0.9698 0.51215 0.0
C243 C 1.01829 0.95218 0.49881 0.0
C244 C 0.02244 0.95901 0.41015 0.0
H245 H 1.01603 0.94338 0.5301 0.0
H246 H 0.02327 0.95569 0.36939 0.0
H247 H 0.05314 0.89663 0.50808 0.0
H248 H 0.04848 0.90293 0.34225 0.0
C249 C 1.00295 0.89698 0.43465 0.0
C250 C 0.03467 0.92233 0.57875 0.0
C251 C 0.02901 0.93211 0.29981 0.0
C252 C 0.0715 0.94354 0.43699 0.0
H253 H 1.00548 0.90143 0.61165 0.0
H254 H 0.98935 0.88664 0.53323 0.0
H255 H 0.9908 0.88799 0.33293 0.0
H256 H 1.00555 0.90689 0.25924 0.0
H257 H 0.05856 0.95189 0.26301 0.0
H258 H 0.08209 0.95737 0.33665 0.0
H259 H 0.08623 0.94979 0.53959 0.0
H260 H 0.06546 0.93876 0.61625 0.0
H261 H 0.07254 0.87225 0.4947 0.0
H262 H 0.06771 0.87913 0.3266 0.0
H263 H 0.02222 0.98588 0.38946 0.0
H264 H 1.01454 0.97328 0.55292 0.0
C265 C 0.37454 0.76883 0.80194 0.0
C266 C 0.38084 0.75442 0.82791 0.0
C267 C 0.38793 0.74414 0.79029 0.0
C268 C 0.38536 0.75259 0.74354 0.0
N269 N 0.3772 0.76771 0.74919 0.0
Co270 Co 0.37003 0.78334 0.69106 0.0
N271 N 0.3718 0.76447 0.63828 0.0
C272 C 0.37873 0.74887 0.64641 0.0
C273 C 0.37534 0.73738 0.60686 0.0
C274 C 0.36599 0.74633 0.57076 0.0
C275 C 0.36475 0.76304 0.58962 0.0
N276 N 0.36331 0.79862 0.63145 0.0
C277 C 0.3605 0.79498 0.57913 0.0
C278 C 0.35869 0.80999 0.55041 0.0
C279 C 0.36065 0.82335 0.5856 0.0
C280 C 0.36363 0.81585 0.63396 0.0
N281 N 0.36794 0.80147 0.74559 0.0
C282 C 0.36754 0.81837 0.73574 0.0
C283 C 0.36553 0.8278 0.78139 0.0
C284 C 0.36465 0.81599 0.82207 0.0
C285 C 0.36611 0.79994 0.79913 0.0
N286 N 0.39466 0.79094 0.67856 0.0
C287 C 0.4234 0.81387 0.66005 0.0
C288 C 0.41832 0.80871 0.71144 0.0
C289 C 0.40423 0.79737 0.71971 0.0
C290 C 0.41462 0.80556 0.61838 0.0
C291 C 0.40065 0.79418 0.62832 0.0
N292 N 0.34504 0.77799 0.70399 0.0
C293 C 0.31669 0.79021 0.71924 0.0
C294 C 0.30908 0.77421 0.7286 0.0
C295 C 0.32037 0.75994 0.72655 0.0
C296 C 0.33824 0.76209 0.7145 0.0
C297 C 0.33407 0.79172 0.70587 0.0
H298 H 0.3465 0.75097 0.71399 0.0
H299 H 0.33861 0.80445 0.69841 0.0
H300 H 0.4004 0.79472 0.75997 0.0
H301 H 0.39399 0.78895 0.59473 0.0
C302 C 0.38585 0.74454 0.69476 0.0
C303 C 0.36671 0.78349 0.82886 0.0
C304 C 0.36117 0.7776 0.55481 0.0
C305 C 0.36603 0.82428 0.68304 0.0
H306 H 0.38004 0.75128 0.86948 0.0
H307 H 0.39297 0.73135 0.7959 0.0
H308 H 0.37889 0.72399 0.60505 0.0
H309 H 0.36167 0.74144 0.53298 0.0
H310 H 0.35663 0.81114 0.50824 0.0
H311 H 0.36011 0.8369 0.57675 0.0
H312 H 0.36413 0.84155 0.78464 0.0
H313 H 0.36307 0.81883 0.86368 0.0
H314 H 0.42496 0.81365 0.74575 0.0
H315 H 0.41791 0.80844 0.57773 0.0
H316 H 0.30937 0.80191 0.72321 0.0
H317 H 0.31549 0.74717 0.73401 0.0
C318 C 0.52358 0.12287 0.04616 0.0
C319 C 0.53754 0.13015 0.07221 0.0
C320 C 0.54735 0.13799 0.03463 0.0
C321 C 0.53909 0.13489 0.98783 0.0
N322 N 0.52455 0.12569 0.99351 0.0
Co323 Co 0.50942 0.11748 0.93553 0.0
N324 N 0.52832 0.12003 0.883 0.0
C325 C 0.54338 0.12817 0.89086 0.0
C326 C 0.55515 0.12546 0.85148 0.0
C327 C 0.54691 0.11529 0.8158 0.0
C328 C 0.53027 0.11289 0.83462 0.0
N329 N 0.49458 0.10976 0.87617 0.0
C330 C 0.49855 0.10637 0.82443 0.0
C331 C 0.48366 0.10368 0.79556 0.0
C332 C 0.47007 0.10563 0.83012 0.0
C333 C 0.47729 0.1095 0.87828 0.0
N334 N 0.49131 0.11468 0.98986 0.0
C335 C 0.47441 0.11355 0.97999 0.0
C336 C 0.46508 0.11088 0.02564 0.0
C337 C 0.47697 0.11034 0.06623 0.0
C338 C 0.49297 0.11264 0.04324 0.0
N339 N 0.50079 0.14149 0.92179 0.0
C340 C 0.47639 0.1684 0.89988 0.0
C341 C 0.48113 0.16386 0.95197 0.0
C342 C 0.49333 0.15072 0.96196 0.0
C343 C 0.48557 0.15992 0.85933 0.0
C344 C 0.49777 0.14695 0.87098 0.0
N345 N 0.51582 0.09301 0.94951 0.0
C346 C 0.50442 0.06447 0.96519 0.0
C347 C 0.52058 0.05766 0.97652 0.0
C348 C 0.53453 0.06938 0.97552 0.0
C349 C 0.53187 0.08701 0.96215 0.0
C350 C 0.50245 0.08156 0.95062 0.0
H351 H 0.54268 0.09573 0.96238 0.0
H352 H 0.48962 0.08548 0.94181 0.0
H353 H 0.49574 0.14722 1.0026 0.0
H354 H 0.50375 0.14043 0.83819 0.0
C355 C 0.54716 0.1358 0.93901 0.0
C356 C 0.50949 0.11382 0.07261 0.0
C357 C 0.51605 0.10736 0.8006 0.0
C358 C 0.46862 0.11173 0.9272 0.0
H359 H 0.54076 0.12949 0.11372 0.0
H360 H 0.55982 0.14386 0.04028 0.0
H361 H 0.56831 0.1299 0.84969 0.0
H362 H 0.55229 0.11091 0.7787 0.0
H363 H 0.48271 0.10103 0.75366 0.0
H364 H 0.45655 0.10438 0.82105 0.0
H365 H 0.45139 0.10875 0.02891 0.0
H366 H 0.47422 0.10839 0.10776 0.0
H367 H 0.47508 0.17011 0.98536 0.0
H368 H 0.48273 0.16249 0.81824 0.0
H369 H 0.49295 0.05667 0.96814 0.0
H370 H 0.54737 0.065 0.9847 0.0
C371 C 0.1655 0.26986 0.29976 0.0
C372 C 0.1559 0.28257 0.32483 0.0
C373 C 0.14974 0.29301 0.28644 0.0
C374 C 0.15604 0.28641 0.24041 0.0
N375 N 0.16585 0.27231 0.2466 0.0
Co376 Co 0.17661 0.25856 0.18818 0.0
N377 N 0.17148 0.27692 0.13533 0.0
C378 C 0.16311 0.29173 0.1445 0.0
C379 C 0.16445 0.30349 0.1046 0.0
C380 C 0.1741 0.29561 0.06701 0.0
C381 C 0.17755 0.27918 0.08563 0.0
N382 N 0.18599 0.2447 0.1281 0.0
C383 C 0.18714 0.24842 0.07521 0.0
C384 C 0.19297 0.23436 0.04703 0.0
C385 C 0.19558 0.22147 0.08326 0.0
C386 C 0.19116 0.22832 0.13151 0.0
N387 N 0.18248 0.24109 0.24284 0.0
C388 C 0.18894 0.22545 0.23308 0.0
C389 C 0.19302 0.21667 0.27852 0.0
C390 C 0.18896 0.22753 0.31951 0.0
C391 C 0.18259 0.24237 0.29685 0.0
N392 N 0.15374 0.24669 0.17537 0.0
C393 C 0.12624 0.22252 0.15392 0.0
C394 C 0.13214 0.22597 0.20567 0.0
C395 C 0.14556 0.23796 0.21545 0.0
C396 C 0.13413 0.23238 0.11367 0.0
C397 C 0.14746 0.24433 0.12509 0.0
N398 N 0.20036 0.26882 0.20094 0.0
C399 C 0.23091 0.26791 0.17753 0.0
C400 C 0.23602 0.27173 0.22932 0.0
C401 C 0.22282 0.27623 0.26455 0.0
C402 C 0.20532 0.2749 0.24967 0.0
C403 C 0.21331 0.26683 0.16416 0.0
H404 H 0.19605 0.27857 0.27869 0.0
H405 H 0.21061 0.26383 0.12382 0.0
H406 H 0.14969 0.23962 0.25579 0.0
H407 H 0.15313 0.2511 0.09233 0.0
C408 C 0.15551 0.29493 0.19271 0.0
C409 C 0.17565 0.25692 0.32784 0.0
C410 C 0.18363 0.2654 0.05126 0.0
C411 C 0.19229 0.22022 0.18095 0.0
H412 H 0.15403 0.28493 0.36643 0.0
H413 H 0.14248 0.30471 0.2918 0.0
H414 H 0.15931 0.31636 0.10342 0.0
H415 H 0.17753 0.30109 0.02911 0.0
H416 H 0.19531 0.23359 1.0049 0.0
H417 H 0.20033 0.2087 0.07535 0.0
H418 H 0.19865 0.20404 0.28155 0.0
H419 H 0.19037 0.22483 0.36127 0.0
H420 H 0.12654 0.21928 0.23901 0.0
H421 H 0.13062 0.23047 0.07273 0.0
H422 H 0.24045 0.2651 0.14756 0.0
H423 H 0.22601 0.28068 0.30382 0.0
C424 C 0.99018 0.94103 0.04831 0.0
C425 C 0.97973 0.95426 0.06574 0.0
C426 C 0.97133 0.96052 0.02229 0.0
C427 C 0.97734 0.95118 0.98025 0.0
N428 N 0.98877 0.93904 0.99429 0.0
Co429 Co 1.00553 0.92828 0.94349 0.0
N430 N 0.99489 0.93858 0.87865 0.0
C431 C 0.98122 0.94906 0.87878 0.0
C432 C 0.97613 0.95377 0.82887 0.0
C433 C 0.98744 0.94589 0.79496 0.0
C434 C 0.99903 0.93695 0.82606 0.0
N435 N 0.02367 0.91875 0.89548 0.0
C436 C 0.02711 0.92186 0.8436 0.0
C437 C 0.04337 0.916 0.82978 0.0
C438 C 0.04985 0.90787 0.87297 0.0
C439 C 0.03757 0.90978 0.91124 0.0
N440 N 1.01564 0.91655 1.00653 0.0
C441 C 0.02797 0.9045 1.00566 0.0
C442 C 0.03001 0.89609 0.05281 0.0
C443 C 1.01845 0.90354 0.08626 0.0
C444 C 1.01042 0.91645 0.0577 0.0
N445 N 0.98994 0.90755 0.93212 0.0
C446 C 0.96624 0.87974 0.90981 0.0
C447 C 0.98424 0.87733 0.9107 0.0
C448 C 0.99574 0.89125 0.9213 0.0
C449 C 0.96066 0.89641 0.92183 0.0
C450 C 0.97241 0.90979 0.93269 0.0
N451 N 1.01959 0.94989 0.95441 0.0
C452 C 0.02606 0.97223 0.01899 0.0
C453 C 0.02279 0.98536 0.98216 0.0
C454 C 1.02077 0.98006 0.92937 0.0
C455 C 1.01967 0.96248 0.91634 0.0
C456 C 0.02489 0.95476 1.00398 0.0
H457 H 1.01798 0.9594 0.87529 0.0
H458 H 0.02735 0.94534 0.03369 0.0
H459 H 1.0093 0.88866 0.91995 0.0
H460 H 0.96694 0.92208 0.94085 0.0
C461 C 0.97429 0.95486 0.92672 0.0
C462 C 1.00198 0.93103 0.08316 0.0
C463 C 1.01488 0.92882 0.80492 0.0
C464 C 0.03843 0.9027 0.96159 0.0
H465 H 0.97891 0.9597 0.10483 0.0
H466 H 0.9628 0.97145 0.02104 0.0
H467 H 0.96571 0.96226 0.81834 0.0
H468 H 0.9875 0.94716 0.75237 0.0
H469 H 0.04978 0.91701 0.79192 0.0
H470 H 0.06202 0.90127 0.87601 0.0
H471 H 0.03937 0.88634 0.06247 0.0
H472 H 1.01726 0.90097 0.12819 0.0
H473 H 0.98952 0.86482 0.90187 0.0
H474 H 0.94706 0.89923 0.92311 0.0
H475 H 0.02873 0.97533 0.0599 0.0
H476 H 1.01966 0.98945 0.89805 0.0
C477 C 0.85779 0.2409 0.80207 0.0
C478 C 0.85118 0.22616 0.82481 0.0
C479 C 0.84647 0.21556 0.78385 0.0
C480 C 0.85042 0.22438 0.73831 0.0
N481 N 0.85742 0.23981 0.74791 0.0
Co482 Co 0.86329 0.25727 0.69279 0.0
N483 N 0.8539 0.24341 0.6326 0.0
C484 C 0.84816 0.22722 0.63656 0.0
C485 C 0.84377 0.22026 0.58846 0.0
C486 C 0.84701 0.23286 0.5517 0.0
C487 C 0.85316 0.24689 0.57938 0.0
N488 N 0.8683 0.27569 0.63954 0.0
C489 C 0.86275 0.27761 0.58908 0.0
C490 C 0.86562 0.29416 0.57056 0.0
C491 C 0.87437 0.30257 0.60903 0.0
C492 C 0.87576 0.29096 0.64927 0.0
N493 N 0.87398 0.27116 0.75124 0.0
C494 C 0.88303 0.28579 0.74512 0.0
C495 C 0.88951 0.2924 0.79092 0.0
C496 C 0.88423 0.28142 0.82919 0.0
C497 C 0.87491 0.26847 0.80429 0.0
N498 N 0.88626 0.24543 0.68012 0.0
C499 C 0.91407 0.22121 0.66008 0.0
C500 C 0.90709 0.2319 0.62007 0.0
C501 C 0.89336 0.2436 0.63058 0.0
C502 C 0.90678 0.22381 0.7108 0.0
C503 C 0.89368 0.23608 0.72005 0.0
N504 N 0.8395 0.26727 0.70603 0.0
C505 C 0.8169 0.27201 0.77154 0.0
C506 C 0.80356 0.26966 0.73461 0.0
C507 C 0.80898 0.26734 0.68185 0.0
C508 C 0.82671 0.26628 0.66856 0.0
C509 C 0.83434 0.27154 0.75625 0.0
H510 H 0.82974 0.26422 0.62768 0.0
H511 H 0.84346 0.27403 0.7866 0.0
H512 H 0.88823 0.25078 0.59783 0.0
H513 H 0.88907 0.23728 0.76 0.0
C514 C 0.84679 0.21928 0.68625 0.0
C515 C 0.86533 0.25522 0.83306 0.0
C516 C 0.85745 0.26359 0.55439 0.0
C517 C 0.883 0.29447 0.6977 0.0
H518 H 0.85005 0.22336 0.8666 0.0
H519 H 0.84057 0.20303 0.78699 0.0
H520 H 0.83871 0.20757 0.58095 0.0
H521 H 0.8449 0.23192 0.50951 0.0
H522 H 0.86241 0.29941 0.53221 0.0
H523 H 0.87898 0.31566 0.60807 0.0
H524 H 0.89634 0.30436 0.79627 0.0
H525 H 0.88637 0.2835 0.87083 0.0
H526 H 0.91196 0.23117 0.58006 0.0
H527 H 0.91042 0.21598 0.74404 0.0
H528 H 0.8142 0.27357 0.81314 0.0
H529 H 0.7996 0.2661 0.65055 0.0
C530 C 0.54969 0.10736 0.54413 0.0
C531 C 0.56476 0.1015 0.56672 0.0
C532 C 0.5761 0.09867 0.52578 0.0
C533 C 0.56736 0.10293 0.48038 0.0
N534 N 0.55131 0.10834 0.49021 0.0
Co535 Co 0.53386 0.11398 0.4353 0.0
N536 N 0.54832 0.10589 0.37473 0.0
C537 C 0.565 0.10169 0.37828 0.0
C538 C 0.5722 0.09796 0.32992 0.0
C539 C 0.55924 0.10001 0.29354 0.0
C540 C 0.54474 0.10481 0.32166 0.0
N541 N 0.5155 0.11887 0.38217 0.0
C542 C 0.51354 0.11316 0.33189 0.0
C543 C 0.49706 0.11641 0.31321 0.0
C544 C 0.48886 0.12562 0.35121 0.0
C545 C 0.50048 0.1269 0.3915 0.0
N546 N 0.51944 0.12354 0.49423 0.0
C547 C 0.50518 0.13313 0.4884 0.0
C548 C 0.49811 0.1386 0.5349 0.0
C549 C 0.50843 0.13208 0.57314 0.0
C550 C 0.52147 0.12311 0.54755 0.0
N551 N 0.54489 0.13746 0.42477 0.0
C552 C 0.56811 0.16612 0.40689 0.0
C553 C 0.55905 0.15804 0.36539 0.0
C554 C 0.54751 0.14416 0.37503 0.0
C555 C 0.56436 0.15978 0.45803 0.0
C556 C 0.55291 0.14573 0.46601 0.0
N557 N 0.52464 0.0896 0.44596 0.0
C558 C 0.51616 0.06678 0.50745 0.0
C559 C 0.52262 0.05376 0.47444 0.0
C560 C 0.52818 0.05912 0.42434 0.0
C561 C 0.52881 0.07671 0.41083 0.0
C562 C 0.51712 0.08433 0.49257 0.0
H563 H 0.53323 0.07939 0.3717 0.0
H564 H 0.5119 0.0934 0.51992 0.0
H565 H 0.54122 0.13849 0.3414 0.0
H566 H 0.55115 0.14116 0.50592 0.0
C567 C 0.57298 0.1005 0.42802 0.0
C568 C 0.53449 0.11298 0.57516 0.0
C569 C 0.52758 0.10757 0.29733 0.0
C570 C 0.49692 0.134 0.44026 0.0
H571 H 0.56729 0.09958 0.60838 0.0
H572 H 0.58902 0.09368 0.52877 0.0
H573 H 0.58527 0.09398 0.32203 0.0
H574 H 0.56025 0.09799 0.25132 0.0
H575 H 0.49168 0.11309 0.27511 0.0
H576 H 0.47585 0.13047 0.35008 0.0
H577 H 0.4862 0.14552 0.54048 0.0
H578 H 0.50592 0.13326 0.61497 0.0
H579 H 0.56092 0.16234 0.32507 0.0
H580 H 0.5708 0.16515 0.49211 0.0
H581 H 0.51034 0.06343 0.54492 0.0
H582 H 0.53264 0.04978 0.39578 0.0
C583 C 0.69034 0.79721 0.28582 0.0
C584 C 0.70217 0.8094 0.30237 0.0
C585 C 0.70462 0.82057 0.26082 0.0
C586 C 0.69475 0.8144 0.22005 0.0
N587 N 0.68637 0.79999 0.23337 0.0
Co588 Co 0.67571 0.78409 0.18111 0.0
N589 N 0.68528 0.79587 0.11747 0.0
C590 C 0.69076 0.81216 0.11843 0.0
C591 C 0.69256 0.81897 0.0687 0.0
C592 C 0.68813 0.80599 0.03442 0.0
C593 C 0.68488 0.79148 0.06473 0.0
N594 N 0.66506 0.76747 0.13047 0.0
C595 C 0.66682 0.76568 0.07687 0.0
C596 C 0.65228 0.75782 0.05586 0.0
C597 C 0.64199 0.7532 0.0971 0.0
C598 C 0.65016 0.75929 0.14103 0.0
N599 N 0.66477 0.77282 0.24344 0.0
C600 C 0.64998 0.76395 0.24101 0.0
C601 C 0.64284 0.76064 0.28953 0.0
C602 C 0.6538 0.76796 0.3252 0.0
C603 C 0.66718 0.77514 0.29625 0.0
N604 N 0.65471 0.79943 0.17431 0.0
C605 C 0.62712 0.82381 0.16037 0.0
C606 C 0.63389 0.81424 0.11808 0.0
C607 C 0.64735 0.80234 0.12569 0.0
C608 C 0.63431 0.82031 0.21055 0.0
C609 C 0.64803 0.80834 0.21655 0.0
N610 N 0.69777 0.77021 0.18803 0.0
C611 C 0.71904 0.7603 0.25217 0.0
C612 C 0.73287 0.76637 0.22126 0.0
C613 C 0.72864 0.77192 0.17024 0.0
C614 C 0.71135 0.7734 0.15431 0.0
C615 C 0.70182 0.76179 0.23416 0.0
H616 H 0.70952 0.77798 0.11491 0.0
H617 H 0.69191 0.75676 0.25932 0.0
H618 H 0.65193 0.79578 0.09115 0.0
H619 H 0.65341 0.80656 0.25549 0.0
C620 C 0.69533 0.81981 0.16687 0.0
C621 C 0.68215 0.78367 0.3204 0.0
C622 C 0.68019 0.77401 0.04359 0.0
C623 C 0.64364 0.75849 0.19241 0.0
H624 H 0.70902 0.80995 0.3393 0.0
H625 H 0.71352 0.83123 0.25947 0.0
H626 H 0.69636 0.83189 0.05844 0.0
H627 H 0.68665 0.80746 0.99221 0.0
H628 H 0.6487 0.75663 0.01472 0.0
H629 H 0.6295 0.74713 0.09498 0.0
H630 H 0.63108 0.75374 0.29798 0.0
H631 H 0.6521 0.76806 0.36769 0.0
H632 H 0.62879 0.8159 0.0786 0.0
H633 H 0.62971 0.82717 0.24498 0.0
H634 H 0.72142 0.75463 0.29054 0.0
H635 H 0.73862 0.77599 0.14311 0.0
C636 C 0.98885 0.10196 0.47622 0.0
C637 C 0.97618 0.09059 0.46027 0.0
C638 C 0.96607 0.08733 0.50383 0.0
C639 C 0.97326 0.09645 0.54468 0.0
N640 N 0.9872 0.10534 0.52951 0.0
Co641 Co 1.00463 0.1151 0.57912 0.0
N642 N 0.99342 0.10609 0.64455 0.0
C643 C 0.97771 0.09897 0.64594 0.0
C644 C 0.97248 0.09498 0.69641 0.0
C645 C 0.98574 0.09992 0.72889 0.0
C646 C 0.99853 0.10652 0.69648 0.0
N647 N 0.02345 0.1237 0.62604 0.0
C648 C 0.02753 0.11979 0.67698 0.0
C649 C 0.04335 0.1268 0.69065 0.0
C650 C 0.04866 0.13648 0.64878 0.0
C651 C 0.03619 0.1344 0.61123 0.0
N652 N 1.01525 0.12594 0.51559 0.0
C653 C 0.02646 0.13906 0.51656 0.0
C654 C 0.0289 0.14666 0.46822 0.0
C655 C 1.01864 0.1377 0.43426 0.0
C656 C 1.01082 0.12488 0.46392 0.0
N657 N 0.99055 0.13693 0.58985 0.0
C658 C 0.96714 0.16529 0.61287 0.0
C659 C 0.98179 0.16151 0.64418 0.0
C660 C 0.99275 0.14734 0.6332 0.0
C661 C 0.96543 0.15462 0.5678 0.0
C662 C 0.97719 0.14109 0.55663 0.0
N663 N 1.01716 0.09237 0.56849 0.0
C664 C 0.02623 0.07077 0.50387 0.0
C665 C 0.02147 0.05698 0.53709 0.0
C666 C 1.01648 0.06164 0.58854 0.0
C667 C 1.01468 0.07901 0.60341 0.0
C668 C 0.02455 0.08807 0.52086 0.0
H669 H 1.01068 0.08115 0.64337 0.0
H670 H 0.02861 0.09787 0.49394 0.0
H671 H 1.00292 0.14488 0.66094 0.0
H672 H 0.97502 0.13385 0.52099 0.0
C673 C 0.96933 0.09459 0.59866 0.0
C674 C 1.00194 0.11018 0.44059 0.0
C675 C 1.0157 0.11209 0.71597 0.0
C676 C 0.03626 0.14204 0.56148 0.0
H677 H 0.9746 0.08462 0.42218 0.0
H678 H 0.95547 0.07838 0.50615 0.0
H679 H 0.96065 0.08874 0.70815 0.0
H680 H 0.98612 0.09843 0.77141 0.0
H681 H 0.05011 0.12569 0.72781 0.0
H682 H 0.06021 0.14416 0.64611 0.0
H683 H 0.03774 0.1569 0.45833 0.0
H684 H 1.01782 0.13963 0.39193 0.0
H685 H 0.98528 0.16938 0.67745 0.0
H686 H 0.95483 0.15636 0.54083 0.0
H687 H 0.03058 0.06844 0.4639 0.0
H688 H 1.01363 0.05185 0.61764 0.0
C689 C 0.67832 0.24048 0.2229 0.0
C690 C 0.68442 0.22559 0.19983 0.0
C691 C 0.68872 0.21473 0.24053 0.0
C692 C 0.68505 0.22354 0.28627 0.0
N693 N 0.67862 0.23922 0.27704 0.0
Co694 Co 0.67321 0.25661 0.33269 0.0
N695 N 0.68245 0.24243 0.39241 0.0
C696 C 0.68764 0.22609 0.38802 0.0
C697 C 0.69199 0.21892 0.43585 0.0
C698 C 0.68929 0.23154 0.4729 0.0
C699 C 0.68353 0.24581 0.44565 0.0
N700 N 0.66844 0.27488 0.38657 0.0
C701 C 0.67401 0.27663 0.43709 0.0
C702 C 0.67101 0.29308 0.45626 0.0
C703 C 0.66217 0.30156 0.4182 0.0
C704 C 0.66084 0.2901 0.37753 0.0
N705 N 0.66284 0.27086 0.27452 0.0
C706 C 0.65387 0.28548 0.28116 0.0
C707 C 0.64773 0.29247 0.23551 0.0
C708 C 0.65313 0.28175 0.19676 0.0
C709 C 0.66217 0.26854 0.22121 0.0
N710 N 0.65003 0.24507 0.34533 0.0
C711 C 0.62189 0.22128 0.36588 0.0
C712 C 0.63025 0.23056 0.40656 0.0
C713 C 0.64382 0.24233 0.39562 0.0
C714 C 0.62777 0.22512 0.31421 0.0
C715 C 0.64151 0.23687 0.30492 0.0
N716 N 0.69721 0.26639 0.32015 0.0
C717 C 0.72052 0.27175 0.2572 0.0
C718 C 0.73341 0.2687 0.29503 0.0
C719 C 0.72745 0.26652 0.34724 0.0
C720 C 0.70964 0.26557 0.35878 0.0
C721 C 0.70285 0.27084 0.27048 0.0
H722 H 0.70626 0.26378 0.39944 0.0
H723 H 0.69397 0.27339 0.23944 0.0
H724 H 0.64972 0.24867 0.42874 0.0
H725 H 0.64555 0.23878 0.26457 0.0
C726 C 0.6886 0.21822 0.33816 0.0
C727 C 0.67144 0.25515 0.19209 0.0
C728 C 0.67973 0.26257 0.47106 0.0
C729 C 0.65371 0.29383 0.32912 0.0
H730 H 0.68552 0.22288 0.15799 0.0
H731 H 0.6942 0.20204 0.2371 0.0
H732 H 0.69663 0.20607 0.443 0.0
H733 H 0.69145 0.23043 0.51503 0.0
H734 H 0.67434 0.29827 0.49457 0.0
H735 H 0.65755 0.31463 0.4196 0.0
H736 H 0.64102 0.30451 0.23065 0.0
H737 H 0.65116 0.28419 0.15525 0.0
H738 H 0.62691 0.22833 0.4475 0.0
H739 H 0.62189 0.21892 0.28048 0.0
H740 H 0.72395 0.27442 0.21665 0.0
H741 H 0.73642 0.26555 0.37969 0.0
C742 C 0.551 0.92974 0.97637 0.0
C743 C 0.56609 0.93585 0.95424 0.0
C744 C 0.57663 0.94032 0.99559 0.0
C745 C 0.56744 0.93672 0.04075 0.0
N746 N 0.55181 0.9302 0.03054 0.0
Co747 Co 0.53402 0.92466 0.08501 0.0
N748 N 0.54758 0.93444 0.14533 0.0
C749 C 0.56402 0.93958 0.14212 0.0
C750 C 0.57081 0.94402 0.19037 0.0
C751 C 0.55783 0.94147 0.22646 0.0
C752 C 0.54371 0.93573 0.19822 0.0
N753 N 0.51539 0.91978 0.13768 0.0
C754 C 0.51298 0.92593 0.18733 0.0
C755 C 0.49629 0.923 0.20488 0.0
C756 C 0.48836 0.91356 0.16698 0.0
C757 C 0.50035 0.91186 0.12779 0.0
N758 N 0.52049 0.91365 0.02624 0.0
C759 C 0.50603 0.90431 0.03226 0.0
C760 C 0.49957 0.89779 0.98636 0.0
C761 C 0.51049 0.90332 0.94813 0.0
C762 C 0.52331 0.91281 0.97312 0.0
N763 N 0.54584 0.90197 0.09913 0.0
C764 C 0.57082 0.87537 0.11971 0.0
C765 C 0.56132 0.88328 0.16064 0.0
C766 C 0.54895 0.89623 0.14965 0.0
C767 C 0.56613 0.88027 0.06794 0.0
C768 C 0.55388 0.89338 0.05865 0.0
N769 N 0.52385 0.94819 0.07066 0.0
C770 C 0.51782 0.97012 1.00462 0.0
C771 C 0.52072 0.98369 0.04016 0.0
C772 C 0.52368 0.97876 0.09291 0.0
C773 C 0.525 0.96124 0.1072 0.0
C774 C 0.51887 0.95286 0.02071 0.0
H775 H 0.52736 0.95864 0.14809 0.0
H776 H 0.51612 0.94352 0.99122 0.0
H777 H 0.54246 0.90204 0.1827 0.0
H778 H 0.55152 0.89697 0.0182 0.0
C779 C 0.57236 0.94038 0.09292 0.0
C780 C 0.53668 0.92249 0.94472 0.0
C781 C 0.52667 0.93203 0.22231 0.0
C782 C 0.49722 0.90429 0.07955 0.0
H783 H 0.56917 0.9368 0.91258 0.0
H784 H 0.58937 0.94582 0.99295 0.0
H785 H 0.58367 0.9486 0.19845 0.0
H786 H 0.55867 0.94363 0.26864 0.0
H787 H 0.49056 0.92677 0.24212 0.0
H788 H 0.47527 0.90884 0.16737 0.0
H789 H 0.4877 0.89078 0.98088 0.0
H790 H 0.50836 0.90114 0.90658 0.0
H791 H 0.56384 0.87998 0.20147 0.0
H792 H 0.57201 0.87417 0.03406 0.0
H793 H 0.51535 0.9725 0.96346 0.0
H794 H 0.5252 0.98837 0.12343 0.0
C795 C 0.85709 0.79945 0.72761 0.0
C796 C 0.84717 0.81159 0.70193 0.0
C797 C 0.83832 0.82031 0.74033 0.0
C798 C 0.84335 0.81313 0.7874 0.0
N799 N 0.85515 0.80067 0.7815 0.0
Co800 Co 0.86375 0.78569 0.84036 0.0
N801 N 0.85109 0.79849 0.8979 0.0
C802 C 0.83956 0.81101 0.88897 0.0
C803 C 0.83098 0.81607 0.93377 0.0
C804 C 0.83716 0.8059 0.97365 0.0
C805 C 0.8494 0.79523 0.95124 0.0
N806 N 0.87262 0.77043 0.89831 0.0
C807 C 0.87122 0.77168 0.95177 0.0
C808 C 0.88289 0.76109 0.97739 0.0
C809 C 0.89093 0.75184 0.93921 0.0
C810 C 0.88422 0.75775 0.8927 0.0
N811 N 0.87652 0.77238 0.7842 0.0
C812 C 0.88618 0.75828 0.79273 0.0
C813 C 0.89245 0.75077 0.74801 0.0
C814 C 0.88635 0.76048 0.70779 0.0
C815 C 0.87693 0.77378 0.73037 0.0
N816 N 0.88432 0.80164 0.85052 0.0
C817 C 0.91219 0.82589 0.86681 0.0
C818 C 0.91505 0.80806 0.86187 0.0
C819 C 0.90116 0.79632 0.85356 0.0
C820 C 0.89488 0.83095 0.86398 0.0
C821 C 0.88151 0.81896 0.85559 0.0
N822 N 0.84226 0.77134 0.82943 0.0
C823 C 0.81923 0.76649 0.76573 0.0
C824 C 0.80639 0.76822 0.80449 0.0
C825 C 0.81226 0.76901 0.85716 0.0
C826 C 0.83007 0.76989 0.86861 0.0
C827 C 0.8368 0.76762 0.77905 0.0
H828 H 0.83369 0.77043 0.90943 0.0
H829 H 0.8457 0.76644 0.74724 0.0
H830 H 0.9043 0.78299 0.84948 0.0
H831 H 0.86879 0.82404 0.8535 0.0
C832 C 0.83653 0.81691 0.83743 0.0
C833 C 0.86699 0.78613 0.69877 0.0
C834 C 0.85755 0.78072 0.98 0.0
C835 C 0.88938 0.75238 0.84323 0.0
H836 H 0.84595 0.81347 0.65969 0.0
H837 H 0.82886 0.83027 0.73443 0.0
H838 H 0.82086 0.82551 0.93672 0.0
H839 H 0.8325 0.80581 0.01392 0.0
H840 H 0.88485 0.75966 0.01954 0.0
H841 H 0.90064 0.74208 0.94464 0.0
H842 H 0.90021 0.73931 0.74495 0.0
H843 H 0.8882 0.7574 0.66659 0.0
H844 H 0.92802 0.80312 0.86358 0.0
H845 H 0.89143 0.84428 0.86905 0.0
H846 H 0.81577 0.76467 0.72464 0.0
H847 H 0.80325 0.76979 0.88967 0.0
C848 C 0.51845 0.62867 0.4697 0.0
C849 C 0.50549 0.63794 0.44463 0.0
C850 C 0.49481 0.64378 0.48289 0.0
C851 C 0.50149 0.6376 0.52887 0.0
N852 N 0.51588 0.62819 0.52284 0.0
Co853 Co 0.52968 0.61757 0.5814 0.0
N854 N 0.51117 0.62262 0.63415 0.0
C855 C 0.49614 0.63059 0.62468 0.0
C856 C 0.48437 0.62924 0.66465 0.0
C857 C 0.49246 0.62001 0.70265 0.0
C858 C 0.50899 0.6168 0.68412 0.0
N859 N 0.54352 0.60823 0.64162 0.0
C860 C 0.53981 0.60724 0.69456 0.0
C861 C 0.55383 0.60132 0.72277 0.0
C862 C 0.5667 0.59849 0.68651 0.0
C863 C 0.55988 0.60289 0.63823 0.0
N864 N 0.54732 0.6118 0.52686 0.0
C865 C 0.56294 0.60524 0.53675 0.0
C866 C 0.57189 0.60134 0.4914 0.0
C867 C 0.56119 0.60563 0.4503 0.0
C868 C 0.54625 0.61193 0.4728 0.0
N869 N 0.54147 0.64037 0.59427 0.0
C870 C 0.56636 0.66709 0.61573 0.0
C871 C 0.56252 0.66157 0.56387 0.0
C872 C 0.55018 0.64851 0.5541 0.0
C873 C 0.55642 0.65938 0.6561 0.0
C874 C 0.54406 0.64647 0.64464 0.0
N875 N 0.51959 0.59389 0.56863 0.0
C876 C 0.52075 0.56364 0.59375 0.0
C877 C 0.51834 0.55823 0.54143 0.0
C878 C 0.51417 0.57106 0.50475 0.0
C879 C 0.51464 0.58858 0.5191 0.0
C880 C 0.52098 0.58127 0.6065 0.0
H881 H 0.51136 0.5976 0.48905 0.0
H882 H 0.52298 0.58433 0.64722 0.0
H883 H 0.54828 0.64457 0.51369 0.0
H884 H 0.53722 0.64091 0.67741 0.0
C885 C 0.49283 0.63796 0.57637 0.0
C886 C 0.53177 0.61892 0.44159 0.0
C887 C 0.52286 0.61109 0.71859 0.0
C888 C 0.56805 0.60175 0.58885 0.0
H889 H 0.50308 0.63981 0.40311 0.0
H890 H 0.48291 0.65072 0.47746 0.0
H891 H 0.47137 0.63413 0.66564 0.0
H892 H 0.48701 0.61666 0.7407 0.0
H893 H 0.55457 0.5991 0.76495 0.0
H894 H 0.57946 0.59368 0.69444 0.0
H895 H 0.58455 0.59571 0.48849 0.0
H896 H 0.56404 0.60438 0.40857 0.0
H897 H 0.56922 0.66713 0.53046 0.0
H898 H 0.55859 0.66266 0.69709 0.0
H899 H 0.52317 0.55435 0.62467 0.0
H900 H 0.51073 0.56756 0.46476 0.0
C901 C 0.66353 0.26646 0.72165 0.0
C902 C 0.65649 0.25244 0.69534 0.0
C903 C 0.64835 0.24272 0.73252 0.0
C904 C 0.65107 0.25107 0.77937 0.0
N905 N 0.66032 0.26558 0.7741 0.0
Co906 Co 0.66812 0.28075 0.83238 0.0
N907 N 0.6654 0.2619 0.88477 0.0
C908 C 0.65705 0.24698 0.87682 0.0
C909 C 0.65922 0.23536 0.91679 0.0
C910 C 0.66925 0.24354 0.95295 0.0
C911 C 0.67219 0.26 0.93365 0.0
N912 N 0.6754 0.29562 0.89208 0.0
C913 C 0.6787 0.29166 0.94382 0.0
C914 C 0.68124 0.30652 0.97285 0.0
C915 C 0.67926 0.32008 0.93837 0.0
C916 C 0.67555 0.31286 0.89006 0.0
N917 N 0.67111 0.2988 0.77823 0.0
C918 C 0.67211 0.31567 0.78814 0.0
C919 C 0.67502 0.32495 0.74261 0.0
C920 C 0.67586 0.31307 0.70207 0.0
C921 C 0.6735 0.29711 0.72496 0.0
N922 N 0.64382 0.28921 0.84512 0.0
C923 C 0.61562 0.31238 0.86685 0.0
C924 C 0.62076 0.3082 0.81478 0.0
C925 C 0.6346 0.29668 0.80487 0.0
C926 C 0.62409 0.30313 0.90721 0.0
C927 C 0.63782 0.2917 0.89571 0.0
N928 N 0.6929 0.27455 0.81942 0.0
C929 C 0.72164 0.2861 0.80577 0.0
C930 C 0.72865 0.27008 0.79365 0.0
C931 C 0.71689 0.25614 0.79337 0.0
C932 C 0.69911 0.25864 0.80619 0.0
C933 C 0.70435 0.28794 0.81947 0.0
H934 H 0.69044 0.24781 0.80497 0.0
H935 H 0.70029 0.30069 0.82854 0.0
H936 H 0.63853 0.29474 0.76432 0.0
H937 H 0.64426 0.28569 0.92856 0.0
C938 C 0.64971 0.24316 0.82828 0.0
C939 C 0.67262 0.28058 0.69557 0.0
C940 C 0.67795 0.27417 0.96741 0.0
C941 C 0.67358 0.32149 0.84103 0.0
H942 H 0.65748 0.24913 0.65395 0.0
H943 H 0.64252 0.23026 0.72666 0.0
H944 H 0.65448 0.22232 0.91874 0.0
H945 H 0.6732 0.23825 0.99059 0.0
H946 H 0.68388 0.30744 0.01477 0.0
H947 H 0.68047 0.33357 0.94752 0.0
H948 H 0.67711 0.33863 0.73943 0.0
H949 H 0.67807 0.31579 0.66064 0.0
H950 H 0.61471 0.31446 0.78147 0.0
H951 H 0.62038 0.3049 0.94811 0.0
H952 H 0.72944 0.29758 0.80396 0.0
H953 H 0.72136 0.2434 0.78362 0.0
C954 C 0.02226 0.40908 0.97213 0.0
C955 C 0.03498 0.39971 0.9463 0.0
C956 C 0.04537 0.39316 0.98427 0.0
C957 C 0.0387 0.39905 0.03082 0.0
N958 N 0.02462 0.40893 0.02526 0.0
Co959 Co 1.01074 0.41919 0.0842 0.0
N960 N 0.02932 0.41415 0.13652 0.0
C961 C 0.04407 0.40566 0.127 0.0
C962 C 0.05582 0.40665 0.167 0.0
C963 C 0.048 0.41615 0.20503 0.0
C964 C 0.0316 0.41991 0.18654 0.0
N965 N 0.99681 0.42801 0.14491 0.0
C966 C 1.0007 0.42922 0.19768 0.0
C967 C 0.98656 0.43471 0.22632 0.0
C968 C 0.97347 0.43701 0.19053 0.0
C969 C 0.98026 0.43276 0.14203 0.0
N970 N 0.99308 0.42491 0.03009 0.0
C971 C 0.97724 0.43085 0.04034 0.0
C972 C 0.9684 0.4351 0.99513 0.0
C973 C 0.97944 0.43172 0.95386 0.0
C974 C 0.99445 0.42557 0.97613 0.0
N975 N 0.99928 0.39602 0.09658 0.0
C976 C 0.97587 0.36766 0.1175 0.0
C977 C 0.97912 0.37391 0.0659 0.0
C978 C 0.99071 0.38776 0.0564 0.0
C979 C 0.98549 0.37579 0.15785 0.0
C980 C 0.99705 0.38952 0.14672 0.0
N981 N 1.02046 0.44328 0.07162 0.0
C982 C 1.01806 0.47386 0.09328 0.0
C983 C 0.02238 0.47903 0.04176 0.0
C984 C 0.0277 0.46579 1.00759 0.0
C985 C 0.02695 0.44832 0.02336 0.0
C986 C 1.01744 0.4563 0.10736 0.0
H987 H 0.03147 0.43913 0.99533 0.0
H988 H 1.01398 0.4537 0.14747 0.0
H989 H 0.99221 0.3921 0.01616 0.0
H990 H 1.00364 0.3953 0.17962 0.0
C991 C 0.04722 0.39821 0.07851 0.0
C992 C 1.00936 0.41945 0.94491 0.0
C993 C 1.01785 0.42601 0.22118 0.0
C994 C 0.97201 0.43385 0.09275 0.0
H995 H 0.03726 0.39827 0.90444 0.0
H996 H 0.05709 0.38595 0.9784 0.0
H997 H 0.06865 0.40134 0.16801 0.0
H998 H 0.05351 0.41928 0.2431 0.0
H999 H 0.9859 0.43704 0.26846 0.0
H1000 H 0.9606 0.44148 0.19889 0.0
H1001 H 0.95563 0.44047 0.99246 0.0
H1002 H 0.97679 0.43349 0.91221 0.0
H1003 H 0.9726 0.36823 0.03242 0.0
H1004 H 0.98368 0.37214 0.19873 0.0
H1005 H 1.01449 0.48332 0.12263 0.0
H1006 H 0.03242 0.46883 0.96841 0.0
C1007 C 0.87371 0.76341 0.22027 0.0
C1008 C 0.88608 0.772 0.1908 0.0
C1009 C 0.89491 0.78215 0.22541 0.0
C1010 C 0.88767 0.7789 0.27387 0.0
N1011 N 0.87492 0.76727 0.27235 0.0
Co1012 Co 0.86452 0.75583 0.33531 0.0
N1013 N 0.87252 0.77455 0.38322 0.0
C1014 C 0.88268 0.7878 0.36914 0.0
C1015 C 0.88365 0.80042 0.40661 0.0
C1016 C 0.8738 0.79468 0.44762 0.0
C1017 C 0.86794 0.77844 0.43371 0.0
N1018 N 0.85586 0.74396 0.40016 0.0
C1019 C 0.85589 0.7489 0.45231 0.0
C1020 C 0.84964 0.73582 0.48407 0.0
C1021 C 0.84541 0.72247 0.45095 0.0
C1022 C 0.84943 0.72799 0.40078 0.0
N1023 N 0.85561 0.73827 0.28478 0.0
C1024 C 0.84752 0.72379 0.29918 0.0
C1025 C 0.83872 0.71641 0.25798 0.0
C1026 C 0.84135 0.72695 0.21507 0.0
C1027 C 0.85205 0.7401 0.2317 0.0
N1028 N 0.88673 0.7426 0.34515 0.0
C1029 C 0.91481 0.71898 0.36427 0.0
C1030 C 0.9071 0.72088 0.31397 0.0
C1031 C 0.89333 0.73255 0.30535 0.0
C1032 C 0.90811 0.72979 0.40414 0.0
C1033 C 0.89449 0.74143 0.39382 0.0
N1034 N 0.84132 0.76752 0.32556 0.0
C1035 C 0.81058 0.76524 0.34505 0.0
C1036 C 0.80586 0.77096 0.29458 0.0
C1037 C 0.81945 0.77669 0.26208 0.0
C1038 C 0.83683 0.77537 0.27887 0.0
C1039 C 0.82798 0.76402 0.3599 0.0
H1040 H 0.84652 0.78025 0.25275 0.0
H1041 H 0.83012 0.7595 0.39922 0.0
H1042 H 0.88776 0.73306 0.26632 0.0
H1043 H 0.88988 0.74906 0.42634 0.0
C1044 C 0.89035 0.78847 0.31942 0.0
C1045 C 0.8594 0.75389 0.19687 0.0
C1046 C 0.8611 0.76607 0.47253 0.0
C1047 C 0.84569 0.71959 0.353 0.0
H1048 H 0.88786 0.77167 0.14834 0.0
H1049 H 0.90476 0.79146 0.21593 0.0
H1050 H 0.89061 0.81242 0.40432 0.0
H1051 H 0.87198 0.80132 0.48475 0.0
H1052 H 0.84796 0.73603 0.52655 0.0
H1053 H 0.83963 0.71037 0.46209 0.0
H1054 H 0.83029 0.70539 0.25977 0.0
H1055 H 0.83534 0.72536 0.17703 0.0
H1056 H 0.91158 0.71329 0.28093 0.0
H1057 H 0.91285 0.72895 0.44422 0.0
H1058 H 0.80092 0.76088 0.37278 0.0
H1059 H 0.81673 0.78203 0.22348 0.0
C1060 C 0.51767 0.41717 0.05099 0.0
C1061 C 0.50289 0.41129 0.07626 0.0
C1062 C 0.49284 0.40398 0.03846 0.0
C1063 C 0.50172 0.40611 0.99216 0.0
N1064 N 0.5169 0.41419 0.99839 0.0
Co1065 Co 0.53286 0.42135 0.94098 0.0
N1066 N 0.51417 0.41981 0.88766 0.0
C1067 C 0.49848 0.41287 0.89496 0.0
C1068 C 0.48707 0.41675 0.85563 0.0
C1069 C 0.49618 0.42645 0.82061 0.0
C1070 C 0.51291 0.42739 0.83975 0.0
N1071 N 0.54847 0.42805 0.88207 0.0
C1072 C 0.54501 0.43122 0.8299 0.0
C1073 C 0.56016 0.43298 0.80156 0.0
C1074 C 0.57342 0.43066 0.83692 0.0
C1075 C 0.56572 0.42751 0.88498 0.0
N1076 N 0.55081 0.4233 0.996 0.0
C1077 C 0.56779 0.42361 0.98678 0.0
C1078 C 0.57705 0.42554 0.03277 0.0
C1079 C 0.56504 0.4265 0.07298 0.0
C1080 C 0.54904 0.42517 0.04942 0.0
N1081 N 0.54025 0.39674 0.92844 0.0
C1082 C 0.56246 0.36755 0.90996 0.0
C1083 C 0.55751 0.37278 0.96136 0.0
C1084 C 0.5465 0.38708 0.96962 0.0
C1085 C 0.55438 0.3765 0.86827 0.0
C1086 C 0.54339 0.39074 0.87819 0.0
N1087 N 0.52761 0.44625 0.95403 0.0
C1088 C 0.53981 0.47464 0.968 0.0
C1089 C 0.52383 0.48197 0.97946 0.0
C1090 C 0.50959 0.47061 0.97886 0.0
C1091 C 0.51174 0.45286 0.96612 0.0
C1092 C 0.54134 0.45729 0.9548 0.0
H1093 H 0.50064 0.44453 0.9665 0.0
H1094 H 0.55407 0.45282 0.94658 0.0
H1095 H 0.54393 0.39095 1.00988 0.0
H1096 H 0.53834 0.39755 0.8446 0.0
C1097 C 0.49391 0.40563 0.943 0.0
C1098 C 0.53241 0.42476 0.07844 0.0
C1099 C 0.52764 0.43108 0.80545 0.0
C1100 C 0.57397 0.42505 0.9343 0.0
H1101 H 0.49934 0.4125 0.11743 0.0
H1102 H 0.47988 0.3992 0.04347 0.0
H1103 H 0.4736 0.41337 0.85343 0.0
H1104 H 0.49138 0.43123 0.78327 0.0
H1105 H 0.56146 0.43531 0.75955 0.0
H1106 H 0.58704 0.43117 0.82845 0.0
H1107 H 0.59083 0.42685 0.03655 0.0
H1108 H 0.56771 0.42807 0.11469 0.0
H1109 H 0.56236 0.36607 0.99565 0.0
H1110 H 0.55716 0.37311 0.82764 0.0
H1111 H 0.55145 0.48221 0.97013 0.0
H1112 H 0.49687 0.47537 0.98786 0.0
C1113 C 0.87305 0.26753 0.30325 0.0
C1114 C 0.88008 0.25353 0.32958 0.0
C1115 C 0.88822 0.24383 0.29244 0.0
C1116 C 0.88549 0.25215 0.24555 0.0
N1117 N 0.87625 0.26665 0.25077 0.0
Co1118 Co 0.86836 0.28172 0.19229 0.0
N1119 N 0.87116 0.26287 0.14005 0.0
C1120 C 0.87919 0.24782 0.14837 0.0
C1121 C 0.87624 0.23595 0.10958 0.0
C1122 C 0.86601 0.24408 0.07385 0.0
C1123 C 0.86384 0.26078 0.09199 0.0
N1124 N 0.861 0.29646 0.1323 0.0
C1125 C 0.85792 0.29244 0.08043 0.0
C1126 C 0.85534 0.30725 0.05124 0.0
C1127 C 0.85702 0.32084 0.08577 0.0
C1128 C 0.86063 0.31369 0.13424 0.0
N1129 N 0.86515 0.29976 0.24632 0.0
C1130 C 0.86387 0.31659 0.23621 0.0
C1131 C 0.86097 0.32591 0.28164 0.0
C1132 C 0.86041 0.31408 0.32238 0.0
C1133 C 0.86292 0.29812 0.29971 0.0
N1134 N 0.89266 0.29045 0.17982 0.0
C1135 C 0.92154 0.31323 0.16045 0.0
C1136 C 0.9161 0.30874 0.21205 0.0
C1137 C 0.90196 0.29744 0.22076 0.0
C1138 C 0.91263 0.30489 0.11912 0.0
C1139 C 0.89866 0.29352 0.12947 0.0
N1140 N 0.84365 0.27519 0.2052 0.0
C1141 C 0.81453 0.28593 0.21748 0.0
C1142 C 0.80815 0.26994 0.23335 0.0
C1143 C 0.82031 0.25637 0.23402 0.0
C1144 C 0.83791 0.25925 0.22009 0.0
C1145 C 0.83181 0.28819 0.20352 0.0
H1146 H 0.84685 0.24868 0.22199 0.0
H1147 H 0.83554 0.30096 0.19301 0.0
H1148 H 0.8979 0.29523 0.26107 0.0
H1149 H 0.89211 0.288 0.09604 0.0
C1150 C 0.88665 0.24411 0.1968 0.0
C1151 C 0.86404 0.28167 0.32948 0.0
C1152 C 0.85884 0.27493 0.05704 0.0
C1153 C 0.86237 0.32234 0.18328 0.0
H1154 H 0.8791 0.25025 0.371 0.0
H1155 H 0.89401 0.23137 0.29834 0.0
H1156 H 0.88056 0.22277 0.10823 0.0
H1157 H 0.8616 0.23866 0.03686 0.0
H1158 H 0.85284 0.30813 1.00924 0.0
H1159 H 0.85569 0.33432 0.07654 0.0
H1160 H 0.85875 0.33956 0.28467 0.0
H1161 H 0.85829 0.31684 0.36383 0.0
H1162 H 0.92215 0.31457 0.24607 0.0
H1163 H 0.91623 0.30731 0.07843 0.0
H1164 H 0.80628 0.29709 0.21696 0.0
H1165 H 0.81634 0.24354 0.24478 0.0
C1166 C 1.01988 0.62012 0.54204 0.0
C1167 C 0.03375 0.62838 0.56566 0.0
C1168 C 0.04168 0.63775 0.5271 0.0
C1169 C 0.03256 0.63445 0.48198 0.0
N1170 N 1.01941 0.62351 0.48942 0.0
Co1171 Co 1.0044 0.61414 0.43276 0.0
N1172 N 0.02171 0.61958 0.377 0.0
C1173 C 0.03379 0.63188 0.38192 0.0
C1174 C 0.04205 0.63578 0.33576 0.0
C1175 C 0.03469 0.62545 0.29879 0.0
C1176 C 0.02248 0.61541 0.32478 0.0
N1177 N 0.9898 0.60495 0.37471 0.0
C1178 C 0.99413 0.59966 0.32459 0.0
C1179 C 0.98003 0.59178 0.30139 0.0
C1180 C 0.96643 0.59346 0.33603 0.0
C1181 C 0.97287 0.60179 0.37965 0.0
N1182 N 0.98762 0.60916 0.48972 0.0
C1183 C 0.97086 0.6061 0.48177 0.0
C1184 C 0.96243 0.60248 0.52843 0.0
C1185 C 0.97473 0.60339 0.56771 0.0
C1186 C 0.99013 0.60742 0.5431 0.0
N1187 N 0.99312 0.63727 0.42147 0.0
C1188 C 0.96946 0.66531 0.40456 0.0
C1189 C 0.97502 0.66045 0.45565 0.0
C1190 C 0.98669 0.64659 0.46317 0.0
C1191 C 0.9769 0.65613 0.36236 0.0
C1192 C 0.98866 0.64255 0.37141 0.0
N1193 N 1.01357 0.59027 0.44477 0.0
C1194 C 1.00505 0.5606 0.45979 0.0
C1195 C 0.02146 0.55561 0.47549 0.0
C1196 C 0.03417 0.56874 0.47515 0.0
C1197 C 0.02995 0.58595 0.45984 0.0
C1198 C 1.00153 0.57739 0.44463 0.0
H1199 H 0.03979 0.59573 0.46118 0.0
H1200 H 0.98843 0.57981 0.43531 0.0
H1201 H 0.98984 0.64291 0.50318 0.0
H1202 H 0.99346 0.63578 0.33732 0.0
C1203 C 0.03806 0.6385 0.43122 0.0
C1204 C 1.00673 0.61042 0.57137 0.0
C1205 C 1.01091 0.60341 0.29706 0.0
C1206 C 0.96474 0.60319 0.42977 0.0
H1207 H 0.03791 0.62774 0.60636 0.0
H1208 H 0.05332 0.64526 0.53094 0.0
H1209 H 0.05216 0.64512 0.3296 0.0
H1210 H 0.03762 0.62593 0.25702 0.0
H1211 H 0.97957 0.58523 0.26377 0.0
H1212 H 0.95364 0.58825 0.33119 0.0
H1213 H 0.94913 0.59874 0.53318 0.0
H1214 H 0.97268 0.60118 0.6095 0.0
H1215 H 0.96982 0.6668 0.49017 0.0
H1216 H 0.9735 0.65927 0.32201 0.0
H1217 H 0.99444 0.55162 0.46057 0.0
H1218 H 0.04724 0.56583 0.4864 0.0
C1219 C 0.67101 0.76357 0.79496 0.0
C1220 C 0.66095 0.7751 0.82312 0.0
C1221 C 0.65077 0.78328 0.78698 0.0
C1222 C 0.65514 0.77631 0.73901 0.0
N1223 N 0.66741 0.76428 0.7425 0.0
Co1224 Co 0.67672 0.75094 0.68191 0.0
N1225 N 0.66959 0.76879 0.62992 0.0
C1226 C 0.65665 0.77991 0.63879 0.0
C1227 C 0.65131 0.78836 0.59441 0.0
C1228 C 0.66134 0.78214 0.55457 0.0
C1229 C 0.67272 0.77047 0.57704 0.0
N1230 N 0.68548 0.73777 0.61982 0.0
C1231 C 0.68934 0.74293 0.56914 0.0
C1232 C 0.69674 0.72939 0.54174 0.0
C1233 C 0.69659 0.71539 0.57499 0.0
C1234 C 0.68945 0.72099 0.62161 0.0
N1235 N 0.68365 0.73364 0.73525 0.0
C1236 C 0.688 0.71742 0.72404 0.0
C1237 C 0.69343 0.70871 0.76834 0.0
C1238 C 0.69242 0.72025 0.80966 0.0
C1239 C 0.68641 0.73548 0.78854 0.0
N1240 N 0.65384 0.73893 0.67253 0.0
C1241 C 0.6244 0.71691 0.65684 0.0
C1242 C 0.63074 0.7209 0.70777 0.0
C1243 C 0.64528 0.73177 0.71469 0.0
C1244 C 0.63309 0.7248 0.61436 0.0
C1245 C 0.64743 0.73569 0.62287 0.0
N1246 N 0.70027 0.76124 0.69228 0.0
C1247 C 0.73074 0.7545 0.70082 0.0
C1248 C 0.73395 0.76912 0.73064 0.0
C1249 C 0.72004 0.78045 0.73845 0.0
C1250 C 0.70335 0.77635 0.71868 0.0
C1251 C 0.7142 0.75085 0.68247 0.0
H1252 H 0.69288 0.785 0.72702 0.0
H1253 H 0.7129 0.73872 0.66347 0.0
H1254 H 0.64992 0.7339 0.75438 0.0
H1255 H 0.65365 0.74101 0.5885 0.0
C1256 C 0.65022 0.78257 0.68973 0.0
C1257 C 0.68289 0.75139 0.81973 0.0
C1258 C 0.68486 0.76003 0.54535 0.0
C1259 C 0.69003 0.71231 0.67077 0.0
H1260 H 0.66087 0.7773 0.86539 0.0
H1261 H 0.64175 0.79353 0.79459 0.0
H1262 H 0.64109 0.79769 0.59116 0.0
H1263 H 0.65984 0.78538 0.51326 0.0
H1264 H 0.70211 0.7295 0.50236 0.0
H1265 H 0.70205 0.70291 0.56705 0.0
H1266 H 0.69845 0.69579 0.77005 0.0
H1267 H 0.69593 0.71783 0.85035 0.0
H1268 H 0.62491 0.71516 0.74241 0.0
H1269 H 0.62888 0.72254 0.57417 0.0
H1270 H 0.74094 0.74537 0.69349 0.0
H1271 H 0.72187 0.79209 0.76107 0.0
C1272 C 0.49431 0.43334 0.55291 0.0
C1273 C 0.48209 0.44355 0.57725 0.0
C1274 C 0.47397 0.45248 0.53786 0.0
C1275 C 0.48164 0.44727 0.49164 0.0
N1276 N 0.49376 0.43517 0.49902 0.0
Co1277 Co 0.51013 0.42712 0.44299 0.0
N1278 N 0.49757 0.43881 0.38389 0.0
C1279 C 0.48438 0.44974 0.39002 0.0
C1280 C 0.4781 0.45574 0.34275 0.0
C1281 C 0.48812 0.44831 0.3043 0.0
C1282 C 0.5001 0.43825 0.33023 0.0
N1283 N 0.52751 0.41988 0.38879 0.0
C1284 C 0.52878 0.42348 0.33652 0.0
C1285 C 0.54488 0.4192 0.3165 0.0
C1286 C 0.55371 0.41178 0.35656 0.0
C1287 C 0.54278 0.41245 0.39881 0.0
N1288 N 0.52274 0.41457 0.50062 0.0
C1289 C 0.53741 0.40557 0.49479 0.0
C1290 C 0.54321 0.39795 0.53985 0.0
C1291 C 0.53177 0.40259 0.5776 0.0
C1292 C 0.51946 0.41285 0.55319 0.0
N1293 N 0.49521 0.40619 0.4294 0.0
C1294 C 0.47162 0.37867 0.40455 0.0
C1295 C 0.48964 0.37609 0.4067 0.0
C1296 C 0.50115 0.38995 0.41868 0.0
C1297 C 0.46603 0.39525 0.41669 0.0
C1298 C 0.4777 0.40846 0.42874 0.0
N1299 N 0.52329 0.44899 0.4563 0.0
C1300 C 0.52781 0.47181 0.52052 0.0
C1301 C 0.52621 0.48462 0.4817 0.0
C1302 C 0.52536 0.47887 0.42898 0.0
C1303 C 0.52446 0.46118 0.41724 0.0
C1304 C 0.52672 0.45428 0.50697 0.0
H1305 H 0.52341 0.45762 0.37629 0.0
H1306 H 0.52764 0.4452 0.53851 0.0
H1307 H 0.5148 0.38751 0.41866 0.0
H1308 H 0.47216 0.42069 0.43676 0.0
C1309 C 0.47803 0.45352 0.44071 0.0
C1310 C 0.50706 0.42319 0.5829 0.0
C1311 C 0.51491 0.43006 0.30348 0.0
C1312 C 0.54636 0.40571 0.44782 0.0
H1313 H 0.47976 0.44484 0.61927 0.0
H1314 H 0.464 0.46202 0.54256 0.0
H1315 H 0.46755 0.46455 0.33686 0.0
H1316 H 0.4871 0.45052 0.26219 0.0
H1317 H 0.54976 0.42101 0.2768 0.0
H1318 H 0.56656 0.40652 0.35509 0.0
H1319 H 0.55488 0.39063 0.5452 0.0
H1320 H 0.53332 0.39954 0.6189 0.0
H1321 H 0.49488 0.36357 0.39794 0.0
H1322 H 0.45243 0.39815 0.41702 0.0
H1323 H 0.52943 0.47528 0.56168 0.0
H1324 H 0.52439 0.4879 0.39668 0.0
C1325 C 0.36444 0.74295 0.30149 0.0
C1326 C 0.35794 0.72816 0.32421 0.0
C1327 C 0.35368 0.71737 0.28322 0.0
C1328 C 0.35777 0.72614 0.2377 0.0
N1329 N 0.36443 0.74171 0.24738 0.0
Co1330 Co 0.3703 0.75917 0.19239 0.0
N1331 N 0.36071 0.74542 0.13233 0.0
C1332 C 0.35533 0.72909 0.13606 0.0
C1333 C 0.35068 0.72225 0.08804 0.0
C1334 C 0.35335 0.73507 0.05161 0.0
C1335 C 0.35942 0.74912 0.07939 0.0
N1336 N 0.37552 0.77751 0.13916 0.0
C1337 C 0.36989 0.77967 0.08883 0.0
C1338 C 0.37373 0.79599 0.07003 0.0
C1339 C 0.38313 0.8039 0.10807 0.0
C1340 C 0.38399 0.79228 0.14843 0.0
N1341 N 0.38118 0.77288 0.25085 0.0
C1342 C 0.39094 0.78702 0.2446 0.0
C1343 C 0.39748 0.79348 0.29056 0.0
C1344 C 0.39151 0.78288 0.32899 0.0
C1345 C 0.38174 0.77031 0.30401 0.0
N1346 N 0.39318 0.74727 0.17932 0.0
C1347 C 0.42107 0.72352 0.15875 0.0
C1348 C 0.41334 0.73332 0.11823 0.0
C1349 C 0.39967 0.74497 0.12915 0.0
C1350 C 0.41483 0.72679 0.21022 0.0
C1351 C 0.40129 0.73864 0.21959 0.0
N1352 N 0.34657 0.76936 0.20584 0.0
C1353 C 0.32423 0.77485 0.27171 0.0
C1354 C 0.31073 0.77193 0.23572 0.0
C1355 C 0.31592 0.76911 0.18303 0.0
C1356 C 0.33357 0.76801 0.1691 0.0
C1357 C 0.34162 0.77428 0.2557 0.0
H1358 H 0.33633 0.76568 0.12825 0.0
H1359 H 0.35086 0.77739 0.28513 0.0
H1360 H 0.39397 0.7516 0.09621 0.0
H1361 H 0.39704 0.74025 0.25984 0.0
C1362 C 0.35423 0.72102 0.18561 0.0
C1363 C 0.37155 0.75746 0.33248 0.0
C1364 C 0.36322 0.76602 0.05476 0.0
C1365 C 0.39147 0.7955 0.1968 0.0
H1366 H 0.35657 0.72545 0.36599 0.0
H1367 H 0.3479 0.70478 0.28632 0.0
H1368 H 0.34577 0.70951 0.08041 0.0
H1369 H 0.35094 0.73424 1.00955 0.0
H1370 H 0.37054 0.8015 0.03203 0.0
H1371 H 0.38845 0.81673 0.10686 0.0
H1372 H 0.40485 0.80513 0.29585 0.0
H1373 H 0.39359 0.78491 0.37069 0.0
H1374 H 0.41727 0.73153 0.07754 0.0
H1375 H 0.42029 0.72005 0.24363 0.0
H1376 H 0.32171 0.77698 0.31312 0.0
H1377 H 0.30641 0.76754 0.15224 0.0
C1378 C 0.0501 0.59896 0.04217 0.0
C1379 C 0.06343 0.58877 0.06036 0.0
C1380 C 0.074 0.58558 0.0177 0.0
C1381 C 0.06663 0.59376 0.9753 0.0
N1382 N 0.05218 0.60203 0.98872 0.0
Co1383 Co 0.0353 0.61147 0.9369 0.0
N1384 N 0.0472 0.60243 0.87288 0.0
C1385 C 0.06306 0.59568 0.87325 0.0
C1386 C 0.06876 0.59152 0.82338 0.0
C1387 C 0.05565 0.59597 0.78954 0.0
C1388 C 0.04248 0.60248 0.82053 0.0
N1389 N 1.01698 0.61985 0.88808 0.0
C1390 C 1.01318 0.61549 0.83728 0.0
C1391 C 0.99751 0.62251 0.8222 0.0
C1392 C 0.99213 0.63269 0.86284 0.0
C1393 C 1.00435 0.63086 0.90124 0.0
N1394 N 0.02402 0.62241 0.99899 0.0
C1395 C 1.01355 0.63605 0.99618 0.0
C1396 C 1.01162 0.64449 0.04342 0.0
C1397 C 0.02148 0.63554 0.07859 0.0
C1398 C 0.02837 0.62182 0.05078 0.0
N1399 N 0.04939 0.63342 0.92694 0.0
C1400 C 0.07292 0.66192 0.90525 0.0
C1401 C 0.05888 0.65763 0.87193 0.0
C1402 C 0.04787 0.64341 0.88238 0.0
C1403 C 0.07394 0.65166 0.95148 0.0
C1404 C 0.06215 0.63803 0.96187 0.0
N1405 N 0.02285 0.58858 0.94641 0.0
C1406 C 1.01386 0.56648 1.00971 0.0
C1407 C 1.01875 0.55298 0.97574 0.0
C1408 C 0.02395 0.55797 0.92484 0.0
C1409 C 0.02548 0.57543 0.91087 0.0
C1410 C 1.01548 0.58392 0.99375 0.0
H1411 H 0.02951 0.57776 0.87112 0.0
H1412 H 1.01127 0.59354 0.02085 0.0
H1413 H 0.03822 0.64055 0.85322 0.0
H1414 H 0.06378 0.63107 0.99831 0.0
C1415 C 0.07113 0.59182 0.92163 0.0
C1416 C 0.0362 0.60684 0.07584 0.0
C1417 C 0.02526 0.60745 0.79958 0.0
C1418 C 1.00416 0.63901 0.95033 0.0
H1419 H 0.06544 0.58386 0.09965 0.0
H1420 H 0.08527 0.57747 0.01727 0.0
H1421 H 0.0808 0.58549 0.81289 0.0
H1422 H 0.05563 0.59419 0.74711 0.0
H1423 H 0.99091 0.62108 0.78489 0.0
H1424 H 0.98067 0.64051 0.86415 0.0
H1425 H 1.00344 0.65536 0.05184 0.0
H1426 H 0.02243 0.63797 0.12064 0.0
H1427 H 0.05594 0.66514 0.83739 0.0
H1428 H 0.08405 0.65381 0.97996 0.0
H1429 H 1.00891 0.56364 0.0488 0.0
H1430 H 0.02766 0.54844 0.89592 0.0
C1431 C 0.18222 0.29873 0.79689 0.0
C1432 C 0.1882 0.31379 0.81926 0.0
C1433 C 0.19172 0.32477 0.77809 0.0
C1434 C 0.18772 0.31584 0.73285 0.0
N1435 N 0.18181 0.29999 0.74291 0.0
Co1436 Co 0.17615 0.28234 0.68856 0.0
N1437 N 0.18471 0.29655 0.62799 0.0
C1438 C 0.18944 0.31308 0.6312 0.0
C1439 C 0.1934 0.32008 0.58276 0.0
C1440 C 0.19093 0.30715 0.54661 0.0
C1441 C 0.18565 0.2929 0.57502 0.0
N1442 N 0.17121 0.26384 0.63586 0.0
C1443 C 0.17683 0.26187 0.58554 0.0
C1444 C 0.17363 0.2454 0.56688 0.0
C1445 C 0.16461 0.23714 0.60518 0.0
C1446 C 0.16336 0.24875 0.64546 0.0
N1447 N 0.16624 0.26817 0.74753 0.0
C1448 C 0.15693 0.25369 0.74193 0.0
C1449 C 0.1512 0.24681 0.78833 0.0
C1450 C 0.15724 0.25747 0.82634 0.0
C1451 C 0.16617 0.27057 0.8007 0.0
N1452 N 0.15279 0.29344 0.67732 0.0
C1453 C 0.12413 0.31646 0.65806 0.0
C1454 C 0.13227 0.30712 0.61712 0.0
C1455 C 0.14614 0.29572 0.62746 0.0
C1456 C 0.1305 0.31312 0.70937 0.0
C1457 C 0.1445 0.30172 0.71806 0.0
N1458 N 0.20035 0.27288 0.69982 0.0
C1459 C 0.2236 0.26583 0.76133 0.0
C1460 C 0.23646 0.27062 0.72501 0.0
C1461 C 0.23066 0.27446 0.6738 0.0
C1462 C 0.21292 0.2752 0.66203 0.0
C1463 C 0.20591 0.26694 0.74812 0.0
H1464 H 0.20979 0.27806 0.62189 0.0
H1465 H 0.19698 0.26324 0.77814 0.0
H1466 H 0.15189 0.2893 0.59419 0.0
H1467 H 0.14893 0.30013 0.75812 0.0
C1468 C 0.19062 0.3212 0.68059 0.0
C1469 C 0.17594 0.28394 0.82817 0.0
C1470 C 0.18239 0.27586 0.55108 0.0
C1471 C 0.15629 0.24522 0.69419 0.0
H1472 H 0.18973 0.31654 0.86094 0.0
H1473 H 0.19695 0.3376 0.78084 0.0
H1474 H 0.19775 0.333 0.57468 0.0
H1475 H 0.193 0.30801 0.50436 0.0
H1476 H 0.17687 0.24007 0.52863 0.0
H1477 H 0.15982 0.22411 0.6042 0.0
H1478 H 0.14442 0.23483 0.79409 0.0
H1479 H 0.15576 0.25503 0.86806 0.0
H1480 H 0.1285 0.30901 0.5764 0.0
H1481 H 0.12481 0.31943 0.74323 0.0
H1482 H 0.22713 0.26172 0.80067 0.0
H1483 H 0.23979 0.27698 0.64241 0.0
C1484 C 0.48953 0.61008 0.97202 0.0
C1485 C 0.47608 0.60117 0.94901 0.0
C1486 C 0.46769 0.59278 0.98911 0.0
C1487 C 0.47639 0.59705 0.03443 0.0
N1488 N 0.48948 0.60805 0.02583 0.0
Co1489 Co 0.50689 0.61491 0.08013 0.0
N1490 N 0.4941 0.60397 0.14024 0.0
C1491 C 0.48008 0.59399 0.13546 0.0
C1492 C 0.47374 0.58855 0.18336 0.0
C1493 C 0.48459 0.5953 0.22076 0.0
C1494 C 0.49711 0.60438 0.19357 0.0
N1495 N 0.52519 0.621 0.13256 0.0
C1496 C 0.52669 0.61726 0.18461 0.0
C1497 C 0.54317 0.6206 0.20329 0.0
C1498 C 0.55214 0.62745 0.16246 0.0
C1499 C 0.54085 0.62745 0.1212 0.0
N1500 N 0.51982 0.62665 0.0214 0.0
C1501 C 0.53512 0.63466 0.02588 0.0
C1502 C 0.54083 0.64231 0.98077 0.0
C1503 C 0.52865 0.63872 0.94429 0.0
C1504 C 0.51601 0.62893 0.96942 0.0
N1505 N 0.49353 0.6369 0.09468 0.0
C1506 C 0.47221 0.6667 0.11585 0.0
C1507 C 0.49033 0.66787 0.10996 0.0
C1508 C 0.50066 0.65297 0.09987 0.0
C1509 C 0.4654 0.65013 0.1105 0.0
C1510 C 0.47596 0.63584 0.09983 0.0
N1511 N 0.51854 0.59217 0.06578 0.0
C1512 C 0.52391 0.56973 1.00076 0.0
C1513 C 0.5229 0.55655 0.03863 0.0
C1514 C 0.52124 0.56202 0.0915 0.0
C1515 C 0.51946 0.57967 0.10415 0.0
C1516 C 0.52208 0.58714 0.01497 0.0
H1517 H 0.51809 0.58291 0.14527 0.0
H1518 H 0.5227 0.59634 0.98373 0.0
H1519 H 0.51439 0.65453 0.0965 0.0
H1520 H 0.4695 0.62383 0.09586 0.0
C1521 C 0.47286 0.5909 0.08553 0.0
C1522 C 0.50273 0.6193 0.94074 0.0
C1523 C 0.51276 0.61143 0.2187 0.0
C1524 C 0.54447 0.63393 0.07191 0.0
H1525 H 0.47305 0.60036 0.90731 0.0
H1526 H 0.45681 0.58421 0.98543 0.0
H1527 H 0.46253 0.58063 0.19035 0.0
H1528 H 0.48369 0.59332 0.26302 0.0
H1529 H 0.54824 0.61847 0.24256 0.0
H1530 H 0.56531 0.63191 0.16277 0.0
H1531 H 0.55282 0.64907 0.97453 0.0
H1532 H 0.52996 0.64228 0.90337 0.0
H1533 H 0.49662 0.68017 0.11414 0.0
H1534 H 0.45167 0.64811 0.11378 0.0
H1535 H 0.52535 0.56672 0.95946 0.0
H1536 H 0.52109 0.55272 0.12326 0.0
C1537 C 0.18487 0.74215 0.72689 0.0
C1538 C 0.19245 0.72774 0.70511 0.0
C1539 C 0.19587 0.71675 0.74643 0.0
C1540 C 0.19021 0.72499 0.79131 0.0
N1541 N 0.18337 0.74039 0.78072 0.0
Co1542 Co 0.17546 0.75715 0.83494 0.0
N1543 N 0.1846 0.74389 0.8963 0.0
C1544 C 0.19025 0.72766 0.89355 0.0
C1545 C 0.19465 0.72117 0.94226 0.0
C1546 C 0.19155 0.73416 0.97791 0.0
C1547 C 0.18549 0.74798 0.94906 0.0
N1548 N 0.16836 0.77498 0.88738 0.0
C1549 C 0.17402 0.77803 0.93724 0.0
C1550 C 0.1688 0.7941 0.95486 0.0
C1551 C 0.15836 0.80068 0.91696 0.0
C1552 C 0.15835 0.78868 0.87757 0.0
N1553 N 0.16471 0.77018 0.77515 0.0
C1554 C 0.15327 0.78304 0.78044 0.0
C1555 C 0.14759 0.78962 0.73366 0.0
C1556 C 0.1559 0.78047 0.69585 0.0
C1557 C 0.16602 0.76839 0.72182 0.0
N1558 N 0.15311 0.74383 0.84453 0.0
C1559 C 0.12583 0.71864 0.86174 0.0
C1560 C 0.13177 0.72985 0.90205 0.0
C1561 C 0.14526 0.74199 0.89301 0.0
C1562 C 0.13402 0.72111 0.81214 0.0
C1563 C 0.14689 0.73381 0.80418 0.0
N1564 N 0.19884 0.76871 0.82493 0.0
C1565 C 0.22042 0.77895 0.76184 0.0
C1566 C 0.23439 0.77325 0.79291 0.0
C1567 C 0.22977 0.76709 0.84326 0.0
C1568 C 0.21236 0.7651 0.85833 0.0
C1569 C 0.20315 0.77702 0.77886 0.0
H1570 H 0.21039 0.76014 0.89724 0.0
H1571 H 0.19348 0.78196 0.75305 0.0
H1572 H 0.14962 0.74954 0.92614 0.0
H1573 H 0.1523 0.73488 0.76505 0.0
C1574 C 0.19261 0.71972 0.84405 0.0
C1575 C 0.17798 0.75666 0.69504 0.0
C1576 C 0.18164 0.7651 0.97226 0.0
C1577 C 0.15101 0.7911 0.82852 0.0
H1578 H 0.1951 0.72541 0.6637 0.0
H1579 H 0.20216 0.70441 0.74407 0.0
H1580 H 0.19992 0.70865 0.95079 0.0
H1581 H 0.19383 0.73364 0.02008 0.0
H1582 H 0.17177 0.80031 0.99199 0.0
H1583 H 0.15201 0.81302 0.91729 0.0
H1584 H 0.13943 0.80068 0.72772 0.0
H1585 H 0.15504 0.78336 0.65427 0.0
H1586 H 0.12623 0.72924 0.94124 0.0
H1587 H 0.13125 0.71291 0.77897 0.0
H1588 H 0.22236 0.7844 0.72326 0.0
H1589 H 0.23954 0.76354 0.87153 0.0
C1590 C 0.05182 0.42606 0.47544 0.0
C1591 C 0.06695 0.43173 0.45246 0.0
C1592 C 0.07782 0.43598 0.49323 0.0
C1593 C 0.06877 0.4327 0.53889 0.0
N1594 N 0.05293 0.42656 0.52952 0.0
Co1595 Co 0.03516 0.42183 0.58472 0.0
N1596 N 0.04949 0.43083 0.64451 0.0
C1597 C 0.066 0.43567 0.64043 0.0
C1598 C 0.07316 0.43986 0.68844 0.0
C1599 C 0.06037 0.4374 0.72527 0.0
C1600 C 0.04603 0.43192 0.69768 0.0
N1601 N 1.01651 0.41791 0.63806 0.0
C1602 C 1.01478 0.42415 0.68775 0.0
C1603 C 0.99801 0.42251 0.70613 0.0
C1604 C 0.98918 0.41381 0.66842 0.0
C1605 C 1.00084 0.41125 0.62868 0.0
N1606 N 1.02073 0.41161 0.52673 0.0
C1607 C 1.0057 0.40323 0.53331 0.0
C1608 C 0.99874 0.39697 0.48777 0.0
C1609 C 1.00988 0.40169 0.44919 0.0
C1610 C 0.0233 0.41049 0.47365 0.0
N1611 N 0.04598 0.39846 0.59799 0.0
C1612 C 0.06936 0.37019 0.61755 0.0
C1613 C 0.06059 0.37875 0.65877 0.0
C1614 C 0.04895 0.39243 0.6483 0.0
C1615 C 0.0652 0.37578 0.56602 0.0
C1616 C 0.05366 0.38961 0.55723 0.0
N1617 N 0.02612 0.44592 0.57116 0.0
C1618 C 1.0208 0.46866 0.50686 0.0
C1619 C 0.02424 0.48184 0.54346 0.0
C1620 C 0.02671 0.47631 0.59596 0.0
C1621 C 0.02751 0.45862 0.60877 0.0
C1622 C 0.02147 0.45118 0.52141 0.0
H1623 H 0.0296 0.45555 0.64953 0.0
H1624 H 1.01857 0.44213 0.49115 0.0
H1625 H 0.04283 0.39846 0.6816 0.0
H1626 H 0.05162 0.39356 0.51693 0.0
C1627 C 0.07406 0.43633 0.59077 0.0
C1628 C 0.03706 0.41934 0.44467 0.0
C1629 C 0.0291 0.42843 0.72255 0.0
C1630 C 0.99699 0.40388 0.5807 0.0
H1631 H 0.06982 0.43258 0.41064 0.0
H1632 H 0.09068 0.44116 0.48987 0.0
H1633 H 0.08614 0.44421 0.69586 0.0
H1634 H 0.06139 0.43955 0.76742 0.0
H1635 H 0.99292 0.42637 0.74417 0.0
H1636 H 0.97581 0.41 0.66951 0.0
H1637 H 0.98644 0.39068 0.48275 0.0
H1638 H 1.00754 0.39951 0.40776 0.0
H1639 H 0.06278 0.37499 0.69942 0.0
H1640 H 0.07139 0.36999 0.53212 0.0
H1641 H 1.01796 0.47168 0.46618 0.0
H1642 H 0.02798 0.48549 0.62772 0.0
C1643 C 0.35553 0.30216 0.22279 0.0
C1644 C 0.34267 0.31254 0.2025 0.0
C1645 C 0.33561 0.32116 0.24422 0.0
C1646 C 0.34408 0.31531 0.28807 0.0
N1647 N 0.3564 0.30372 0.27702 0.0
Co1648 Co 0.36669 0.28778 0.33119 0.0
N1649 N 0.35513 0.29911 0.39352 0.0
C1650 C 0.34384 0.31209 0.38973 0.0
C1651 C 0.33647 0.31645 0.43709 0.0
C1652 C 0.34331 0.30541 0.4734 0.0
C1653 C 0.35474 0.29492 0.44639 0.0
N1654 N 0.3765 0.27103 0.38359 0.0
C1655 C 0.37531 0.2702 0.43734 0.0
C1656 C 0.38675 0.25829 0.45793 0.0
C1657 C 0.39441 0.25045 0.4161 0.0
C1658 C 0.38775 0.25835 0.37242 0.0
N1659 N 0.37905 0.2767 0.27034 0.0
C1660 C 0.39077 0.26407 0.27376 0.0
C1661 C 0.39934 0.26089 0.22744 0.0
C1662 C 0.39235 0.27191 0.19167 0.0
C1663 C 0.37956 0.28088 0.2181 0.0
N1664 N 0.38722 0.30376 0.34195 0.0
C1665 C 0.4155 0.32742 0.35949 0.0
C1666 C 0.41786 0.30952 0.35758 0.0
C1667 C 0.40384 0.29812 0.34879 0.0
C1668 C 0.3984 0.33296 0.35298 0.0
C1669 C 0.38477 0.32119 0.34421 0.0
N1670 N 0.3454 0.27312 0.32015 0.0
C1671 C 0.32311 0.26627 0.25565 0.0
C1672 C 0.3099 0.26833 0.29315 0.0
C1673 C 0.31527 0.27045 0.34586 0.0
C1674 C 0.33288 0.27219 0.35847 0.0
C1675 C 0.34057 0.26814 0.27021 0.0
H1676 H 0.336 0.27364 0.39944 0.0
H1677 H 0.34994 0.26629 0.23986 0.0
H1678 H 0.40682 0.28477 0.34775 0.0
H1679 H 0.37215 0.32648 0.33975 0.0
C1680 C 0.33911 0.31847 0.34028 0.0
C1681 C 0.36593 0.29013 0.19004 0.0
C1682 C 0.36301 0.27964 0.47058 0.0
C1683 C 0.39374 0.25578 0.32131 0.0
H1684 H 0.33791 0.31311 0.16254 0.0
H1685 H 0.32465 0.32967 0.2431 0.0
H1686 H 0.32652 0.32587 0.44393 0.0
H1687 H 0.33937 0.30457 0.51428 0.0
H1688 H 0.38926 0.25544 0.49907 0.0
H1689 H 0.4042 0.24063 0.41743 0.0
H1690 H 0.40931 0.25151 0.22037 0.0
H1691 H 0.39548 0.27248 0.14997 0.0
H1692 H 0.43061 0.30421 0.3622 0.0
H1693 H 0.39531 0.34645 0.35559 0.0
H1694 H 0.32002 0.26353 0.21477 0.0
H1695 H 0.30597 0.27162 0.37746 0.0
C1696 C 0.02489 0.12877 0.79792 0.0
C1697 C 1.02032 0.11294 0.77469 0.0
C1698 C 0.03111 0.12995 0.85024 0.0
C1699 C 0.03185 0.1156 0.88411 0.0
H1700 H 0.02396 0.14044 0.77492 0.0
H1701 H 0.03466 0.14247 0.86517 0.0
S1702 S 0.0223 0.07089 0.84312 0.0
N1703 N 1.01843 0.08224 0.78926 0.0
N1704 N 0.02838 0.08473 0.88891 0.0
C1705 C 0.02755 0.09962 0.86141 0.0
C1706 C 0.02196 0.09828 0.80701 0.0
C1707 C 0.16631 0.7742 0.05612 0.0
C1708 C 0.1817 0.76892 0.03128 0.0
C1709 C 0.1661 0.78118 0.10748 0.0
C1710 C 0.18104 0.78196 0.13876 0.0
H1711 H 0.15428 0.77343 0.03479 0.0
H1712 H 0.15385 0.7848 0.12448 0.0
S1713 S 0.22459 0.76888 0.09501 0.0
N1714 N 0.21246 0.76539 0.04246 0.0
N1715 N 0.21164 0.77625 0.14161 0.0
C1716 C 0.19646 0.7763 0.11529 0.0
C1717 C 0.19686 0.77012 0.06147 0.0
C1718 C 0.51654 0.91585 0.30311 0.0
C1719 C 0.5232 0.93118 0.28136 0.0
C1720 C 0.50975 0.91512 0.35464 0.0
C1721 C 0.51055 0.92929 0.389 0.0
H1722 H 0.51607 0.90433 0.27922 0.0
H1723 H 0.50503 0.90293 0.36923 0.0
S1724 S 0.52727 0.97233 0.3536 0.0
N1725 N 0.5294 0.96116 0.29842 0.0
N1726 N 0.51902 0.95908 0.39796 0.0
C1727 C 0.5175 0.94461 0.36853 0.0
C1728 C 0.52345 0.94567 0.31458 0.0
C1729 C 0.36074 0.28412 0.57103 0.0
C1730 C 0.35931 0.27319 0.52693 0.0
C1731 C 0.36036 0.27779 0.62347 0.0
C1732 C 0.35998 0.26 0.63533 0.0
H1733 H 0.36307 0.29767 0.5653 0.0
H1734 H 0.36172 0.287 0.65521 0.0
S1735 S 0.35579 0.22571 0.53401 0.0
N1736 N 0.3549 0.24364 0.49949 0.0
N1737 N 0.35851 0.23159 0.59614 0.0
C1738 C 0.35831 0.24891 0.59152 0.0
C1739 C 0.35698 0.25552 0.53825 0.0
C1740 C 1.02098 0.9418 0.713 0.0
C1741 C 1.01916 0.92728 0.74607 0.0
C1742 C 0.02679 0.94037 0.65982 0.0
C1743 C 0.03177 0.92446 0.63794 0.0
H1744 H 1.01797 0.95439 0.72835 0.0
H1745 H 0.02713 0.95176 0.63536 0.0
S1746 S 0.03062 0.8827 0.70805 0.0
N1747 N 0.02258 0.89637 0.75129 0.0
N1748 N 0.03574 0.89418 0.65548 0.0
C1749 C 0.0309 0.91009 0.67154 0.0
C1750 C 0.02391 0.91133 0.72403 0.0
C1751 C 0.37949 0.78122 0.91971 0.0
C1752 C 0.36466 0.78194 0.88799 0.0
C1753 C 0.37901 0.77457 0.97147 0.0
C1754 C 0.36351 0.76927 0.99561 0.0
H1755 H 0.39181 0.7848 0.90304 0.0
H1756 H 0.3909 0.77408 0.99365 0.0
S1757 S 0.32088 0.76904 0.93033 0.0
N1758 N 0.33405 0.77626 0.88403 0.0
N1759 N 0.33279 0.76568 0.98341 0.0
C1760 C 0.34849 0.77032 0.96481 0.0
C1761 C 0.34912 0.77635 0.91094 0.0
C1762 C 0.51157 0.12523 0.16525 0.0
C1763 C 0.51142 0.11094 0.13126 0.0
C1764 C 0.51842 0.12425 0.21664 0.0
C1765 C 0.52443 0.10867 0.23825 0.0
H1766 H 0.50736 0.13759 0.15066 0.0
H1767 H 0.51843 0.13576 0.24065 0.0
S1768 S 0.52639 0.06729 0.16631 0.0
N1769 N 0.51846 0.0808 0.12231 0.0
N1770 N 0.52936 0.07846 0.22114 0.0
C1771 C 0.52397 0.09416 0.20514 0.0
C1772 C 0.51778 0.09537 0.15156 0.0
C1773 C 0.16536 0.26713 0.47127 0.0
C1774 C 0.18117 0.27269 0.49243 0.0
C1775 C 0.16422 0.25994 0.42048 0.0
C1776 C 0.17851 0.25934 0.38636 0.0
H1777 H 0.15385 0.26763 0.49535 0.0
H1778 H 0.15173 0.25586 0.40635 0.0
S1779 S 0.2231 0.271 0.42335 0.0
N1780 N 0.21178 0.27541 0.47696 0.0
N1781 N 0.20928 0.26374 0.37908 0.0
C1782 C 0.19445 0.26461 0.4071 0.0
C1783 C 0.1958 0.27112 0.46017 0.0
C1784 C 0.03352 0.93564 0.19985 0.0
C1785 C 0.02296 0.93756 0.24466 0.0
C1786 C 0.02669 0.93579 0.14801 0.0
C1787 C 1.00875 0.93644 0.13776 0.0
H1788 H 0.04699 0.93267 0.2045 0.0
H1789 H 0.0356 0.93374 0.11574 0.0
S1790 S 0.9755 0.94268 0.24153 0.0
N1791 N 0.99378 0.94309 0.27445 0.0
N1792 N 0.98074 0.93952 0.17901 0.0
C1793 C 0.99813 0.93912 0.18218 0.0
C1794 C 1.00528 0.94059 0.23468 0.0
C1795 C 0.84618 0.27119 0.9644 0.0
C1796 C 0.8606 0.27157 0.99811 0.0
C1797 C 0.84734 0.26477 0.91193 0.0
C1798 C 0.86277 0.25778 0.89185 0.0
H1799 H 0.8339 0.27573 0.9788 0.0
H1800 H 0.83619 0.26559 0.88659 0.0
S1801 S 0.90411 0.25539 0.96393 0.0
N1802 N 0.89099 0.26494 1.00591 0.0
N1803 N 0.8925 0.25115 0.91092 0.0
C1804 C 0.877 0.2575 0.92597 0.0
C1805 C 0.87616 0.26502 0.97761 0.0
C1806 C 0.52586 0.12378 0.71972 0.0
C1807 C 0.51926 0.10843 0.7415 0.0
C1808 C 0.53266 0.1245 0.66812 0.0
C1809 C 0.53215 0.11024 0.63401 0.0
H1810 H 0.52634 0.13528 0.74371 0.0
H1811 H 0.5374 0.13668 0.65353 0.0
S1812 S 0.51579 0.06712 0.67034 0.0
N1813 N 0.51314 0.07848 0.72487 0.0
N1814 N 0.5243 0.08026 0.62614 0.0
C1815 C 0.52539 0.09488 0.65487 0.0
C1816 C 0.51914 0.09394 0.70852 0.0
C1817 C 0.68578 0.75454 0.44404 0.0
C1818 C 0.68844 0.76561 0.48746 0.0
C1819 C 0.68598 0.76044 0.39093 0.0
C1820 C 0.68704 0.77809 0.37725 0.0
H1821 H 0.68236 0.74129 0.45056 0.0
H1822 H 0.68381 0.75105 0.36012 0.0
S1823 S 0.69392 0.81284 0.47594 0.0
N1824 N 0.69447 0.79515 0.51166 0.0
N1825 N 0.69023 0.80663 0.41462 0.0
C1826 C 0.68978 0.78935 0.42029 0.0
C1827 C 0.69149 0.78305 0.47409 0.0
C1828 C 0.02613 0.10454 0.37477 0.0
C1829 C 1.0082 0.10438 0.38567 0.0
C1830 C 0.03286 0.10489 0.32272 0.0
C1831 C 0.02219 0.1036 0.27802 0.0
H1832 H 0.03517 0.10618 0.40684 0.0
H1833 H 0.0464 0.10753 0.31797 0.0
S1834 S 0.97458 0.09996 0.28234 0.0
N1835 N 0.98004 0.1025 0.34489 0.0
N1836 N 0.99277 0.09921 0.24885 0.0
C1837 C 1.00442 0.10108 0.28841 0.0
C1838 C 0.99742 0.10237 0.34131 0.0
C1839 C 0.65975 0.25877 0.09957 0.0
C1840 C 0.67413 0.25768 0.13318 0.0
C1841 C 0.66095 0.2658 0.0484 0.0
C1842 C 0.67682 0.27097 0.02642 0.0
H1843 H 0.64719 0.2551 0.11429 0.0
H1844 H 0.64938 0.26655 0.02475 0.0
S1845 S 0.71887 0.26835 0.09432 0.0
N1846 N 0.70501 0.2614 0.13906 0.0
N1847 N 0.70751 0.27301 0.04107 0.0
C1848 C 0.69147 0.26905 0.05833 0.0
C1849 C 0.69012 0.26257 0.1116 0.0
C1850 C 0.52682 0.91215 0.80039 0.0
C1851 C 0.52216 0.92807 0.77817 0.0
C1852 C 0.53351 0.91084 0.85192 0.0
C1853 C 0.53459 0.92517 0.88567 0.0
H1854 H 0.52581 0.90058 0.77687 0.0
H1855 H 0.53685 0.89826 0.86674 0.0
S1856 S 0.52577 0.97006 0.84568 0.0
N1857 N 0.52098 0.95877 0.79239 0.0
N1858 N 0.53202 0.9561 0.8909 0.0
C1859 C 0.53045 0.94123 0.86362 0.0
C1860 C 0.52433 0.94269 0.81002 0.0
C1861 C 0.84927 0.77716 0.61783 0.0
C1862 C 0.86501 0.78283 0.63961 0.0
C1863 C 0.84804 0.77133 0.56466 0.0
C1864 C 0.8626 0.77031 0.53136 0.0
H1865 H 0.83786 0.77697 0.64237 0.0
H1866 H 0.83557 0.76765 0.54945 0.0
S1867 S 0.90693 0.78298 0.5696 0.0
N1868 N 0.89526 0.7877 0.62217 0.0
N1869 N 0.89348 0.77464 0.52623 0.0
C1870 C 0.87843 0.77553 0.55343 0.0
C1871 C 0.87946 0.78245 0.60601 0.0
C1872 C 0.5206 0.62863 0.29863 0.0
C1873 C 0.51588 0.61258 0.2774 0.0
C1874 C 0.52799 0.63014 0.34903 0.0
C1875 C 0.52943 0.61595 0.38307 0.0
H1876 H 0.51937 0.64009 0.27474 0.0
H1877 H 0.53147 0.64279 0.36304 0.0
S1878 S 0.52124 0.57077 0.34507 0.0
N1879 N 0.51583 0.58182 0.2919 0.0
N1880 N 0.52735 0.585 0.3897 0.0
C1881 C 0.52524 0.59975 0.36214 0.0
C1882 C 0.51873 0.59804 0.30916 0.0
C1883 C 0.66269 0.2713 0.55148 0.0
C1884 C 0.67845 0.26551 0.53022 0.0
C1885 C 0.66149 0.27824 0.60273 0.0
C1886 C 0.67572 0.27865 0.63701 0.0
H1887 H 0.65123 0.27111 0.52722 0.0
H1888 H 0.64901 0.28228 0.617 0.0
S1889 S 0.7198 0.26448 0.60282 0.0
N1890 N 0.70879 0.26123 0.54783 0.0
N1891 N 0.70601 0.27217 0.64655 0.0
C1892 C 0.69146 0.27253 0.61706 0.0
C1893 C 0.69291 0.26629 0.56355 0.0
C1894 C 0.02597 0.43992 0.81666 0.0
C1895 C 0.02607 0.42595 0.78123 0.0
C1896 C 1.01943 0.43822 0.86882 0.0
C1897 C 1.01198 0.42274 0.8867 0.0
H1898 H 0.03075 0.45227 0.80378 0.0
H1899 H 1.02045 0.44899 0.89559 0.0
S1900 S 1.00861 0.38253 0.80945 0.0
N1901 N 1.01865 0.39592 0.76936 0.0
N1902 N 1.00455 0.39352 0.86384 0.0
C1903 C 1.01139 0.409 0.85087 0.0
C1904 C 1.01908 0.41033 0.79959 0.0
C1905 C 0.85235 0.77777 0.13157 0.0
C1906 C 0.85337 0.75988 0.14202 0.0
C1907 C 0.85245 0.7846 0.07965 0.0
C1908 C 0.85228 0.77396 0.03475 0.0
H1909 H 0.85319 0.78678 0.16396 0.0
H1910 H 0.85394 0.79831 0.07503 0.0
S1911 S 0.85148 0.72631 0.03785 0.0
N1912 N 0.85344 0.73179 0.1006 0.0
N1913 N 0.84977 0.74445 1.00473 0.0
C1914 C 0.8508 0.75609 0.0446 0.0
C1915 C 0.85228 0.7491 0.09737 0.0
C1916 C 0.52622 0.44252 0.16021 0.0
C1917 C 0.53074 0.42663 0.13753 0.0
C1918 C 0.52019 0.44371 0.21303 0.0
C1919 C 0.51752 0.42894 0.24425 0.0
H1920 H 0.52709 0.45408 0.13663 0.0
H1921 H 0.51782 0.45627 0.22971 0.0
S1922 S 0.52662 0.38422 0.20251 0.0
N1923 N 0.53249 0.39593 0.15115 0.0
N1924 N 0.51939 0.39788 0.24713 0.0
C1925 C 0.52154 0.41298 0.22111 0.0
C1926 C 0.52875 0.41192 0.16911 0.0
C1927 C 0.8459 0.27339 0.4091 0.0
C1928 C 0.86147 0.27992 0.38845 0.0
C1929 C 0.84466 0.26727 0.46188 0.0
C1930 C 0.85914 0.2666 0.49529 0.0
H1931 H 0.83469 0.27271 0.38391 0.0
H1932 H 0.83226 0.26317 0.47674 0.0
S1933 S 0.90317 0.28086 0.45891 0.0
N1934 N 0.89159 0.28525 0.40601 0.0
N1935 N 0.88978 0.27218 0.50196 0.0
C1936 C 0.87486 0.27255 0.47412 0.0
C1937 C 0.87585 0.27974 0.42203 0.0
C1938 C 1.01607 0.62297 0.71536 0.0
C1939 C 1.0208 0.6075 0.74054 0.0
C1940 C 1.00985 0.62343 0.66291 0.0
C1941 C 1.00906 0.60862 0.63099 0.0
H1942 H 1.01695 0.63495 0.73685 0.0
H1943 H 1.00654 0.63576 0.64603 0.0
S1944 S 1.02044 0.56478 0.67567 0.0
N1945 N 0.02372 0.57675 0.72869 0.0
N1946 N 1.01388 0.57793 0.62859 0.0
C1947 C 1.01398 0.59307 0.65503 0.0
C1948 C 1.01959 0.59246 0.7096 0.0
C1949 C 0.67856 0.75003 0.97147 0.0
C1950 C 0.68516 0.76623 0.98824 0.0
C1951 C 0.67866 0.74456 0.91793 0.0
C1952 C 0.68693 0.75409 0.87826 0.0
H1953 H 0.67283 0.74128 0.99941 0.0
H1954 H 0.67165 0.73307 0.90738 0.0
S1955 S 0.71625 0.79058 0.90409 0.0
N1956 N 0.70752 0.78663 0.96241 0.0
N1957 N 0.70725 0.77698 0.86252 0.0
C1958 C 0.69662 0.76828 0.89565 0.0
C1959 C 0.69625 0.77398 0.95029 0.0
C1960 C 0.52497 0.44266 0.71144 0.0
C1961 C 0.52459 0.42868 0.74673 0.0
C1962 C 0.51842 0.44124 0.6593 0.0
C1963 C 0.51059 0.42599 0.64109 0.0
H1964 H 0.5301 0.45485 0.72449 0.0
H1965 H 0.51965 0.45209 0.63288 0.0
S1966 S 0.50571 0.38588 0.71823 0.0
N1967 N 0.51616 0.39889 0.75838 0.0
N1968 N 0.50215 0.39701 0.66381 0.0
C1969 C 0.50957 0.41222 0.67675 0.0
C1970 C 0.51719 0.41327 0.72815 0.0
C1971 C 0.35243 0.76777 0.40789 0.0
C1972 C 0.36808 0.76051 0.39063 0.0
C1973 C 0.35039 0.77432 0.45992 0.0
C1974 C 0.36413 0.77446 0.49623 0.0
H1975 H 0.34175 0.76861 0.38078 0.0
H1976 H 0.33793 0.77904 0.47205 0.0
S1977 S 0.40778 0.75706 0.47057 0.0
N1978 N 0.39722 0.75323 0.41524 0.0
N1979 N 0.39407 0.76692 0.51 0.0
C1980 C 0.3799 0.76751 0.47874 0.0
C1981 C 0.38163 0.76002 0.42724 0.0
C1982 C 0.03913 0.59601 0.17309 0.0
C1983 C 0.02876 0.60098 0.12993 0.0
C1984 C 0.03247 0.59447 0.22535 0.0
C1985 C 1.01544 0.59935 0.23896 0.0
H1986 H 0.05278 0.59452 0.16813 0.0
H1987 H 0.04136 0.59118 0.25664 0.0
S1988 S 0.98212 0.61153 0.14087 0.0
N1989 N 0.99916 0.60719 0.1046 0.0
N1990 N 0.98825 0.60884 0.20265 0.0
C1991 C 1.00475 0.60365 0.19607 0.0
C1992 C 1.01103 0.60341 0.14221 0.0
C1993 C 0.16484 0.2808 0.92101 0.0
C1994 C 0.17902 0.28172 0.88658 0.0
C1995 C 0.16627 0.27365 0.97177 0.0
C1996 C 0.18226 0.26851 0.99261 0.0
H1997 H 0.15223 0.28451 0.9071 0.0
H1998 H 0.15482 0.27286 0.99608 0.0
S1999 S 0.22395 0.27106 0.92216 0.0
N2000 N 0.20983 0.27793 0.87825 0.0
N2001 N 0.21289 0.26648 0.97624 0.0
C2002 C 0.19677 0.2704 0.95994 0.0
C2003 C 0.19512 0.27681 0.90683 0.0
C2004 C 0.51437 0.62864 0.79741 0.0
C2005 C 0.51968 0.61265 0.77712 0.0
C2006 C 0.50676 0.63014 0.84759 0.0
C2007 C 0.50567 0.61611 0.88237 0.0
H2008 H 0.51527 0.64 0.7729 0.0
H2009 H 0.5027 0.64272 0.86074 0.0
S2010 S 0.51574 0.57105 0.84653 0.0
N2011 N 0.52107 0.58208 0.7932 0.0
N2012 N 0.50881 0.58522 0.8902 0.0
C2013 C 0.51055 0.59995 0.86225 0.0
C2014 C 0.51737 0.59823 0.8096 0.0
C2015 C 0.16867 0.76671 0.55012 0.0
C2016 C 0.18436 0.77304 0.5298 0.0
C2017 C 0.16742 0.75934 0.60082 0.0
C2018 C 0.18134 0.75937 0.63636 0.0
H2019 H 0.15731 0.76674 0.5254 0.0
H2020 H 0.15502 0.7546 0.61376 0.0
S2021 S 0.2257 0.77305 0.60244 0.0
N2022 N 0.21467 0.77708 0.54801 0.0
N2023 N 0.21182 0.76512 0.64557 0.0
C2024 C 0.1972 0.76539 0.61656 0.0
C2025 C 0.19874 0.77204 0.56341 0.0
C2026 C 0.0259 0.40894 0.30176 0.0
C2027 C 0.02117 0.42489 0.27989 0.0
C2028 C 0.03313 0.40764 0.35254 0.0
C2029 C 0.03471 0.42201 0.38589 0.0
H2030 H 0.02467 0.39739 0.27829 0.0
H2031 H 0.03645 0.39504 0.3673 0.0
S2032 S 0.02573 0.46692 0.34658 0.0
N2033 N 1.02039 0.45562 0.29381 0.0
N2034 N 0.03227 0.45295 0.39137 0.0
C2035 C 0.03037 0.43808 0.36429 0.0
C2036 C 0.02375 0.43953 0.31133 0.0
C2037 C 0.36106 0.26639 0.12206 0.0
C2038 C 0.36139 0.28417 0.13383 0.0
C2039 C 0.36084 0.26006 0.06965 0.0
C2040 C 0.35922 0.27102 0.02559 0.0
H2041 H 0.36229 0.25713 0.15372 0.0
H2042 H 0.36298 0.2465 0.06403 0.0
S2043 S 0.35766 0.3186 0.03291 0.0
N2044 N 0.36057 0.31262 0.09487 0.0
N2045 N 0.35587 0.30073 0.99843 0.0
C2046 C 0.3577 0.28876 0.03706 0.0
C2047 C 0.35973 0.29531 0.09018 0.0
C2048 C 0.03137 0.02909 0.05106 0.0
C2049 C 1.01878 0.04024 0.02995 0.0
C2050 C 0.03261 1.01161 0.03578 0.0
C2051 C 0.02138 1.0042 0.99825 0.0
H2052 H 0.04063 0.03398 0.07918 0.0
H2053 H 0.0427 1.0039 0.05304 0.0
S2054 S 0.98479 0.02697 0.93511 0.0
N2055 N 0.99394 0.04181 0.97211 0.0
N2056 N 0.99628 1.00942 0.94362 0.0
C2057 C 1.00849 1.0151 0.97773 0.0
C2058 C 1.0072 0.03288 0.99336 0.0
C2059 C 0.26167 0.76098 0.24189 0.0
C2060 C 0.25525 0.77101 0.28406 0.0
C2061 C 0.27933 0.76133 0.22682 0.0
C2062 C 0.29168 0.77184 0.25262 0.0
H2063 H 0.2529 0.75306 0.21935 0.0
H2064 H 0.28329 0.75317 0.19444 0.0
S2065 S 0.28173 0.80028 0.36716 0.0
N2066 N 0.26329 0.79083 0.35402 0.0
N2067 N 0.29538 0.79287 0.32288 0.0
C2068 C 0.28532 0.78184 0.29513 0.0
C2069 C 0.26753 0.78108 0.31139 0.0
C2070 C 0.5188 0.02148 0.45643 0.0
C2071 C 0.52347 0.0349 0.49138 0.0
C2072 C 0.51942 1.00393 0.47161 0.0
C2073 C 0.52508 0.99873 0.52217 0.0
H2074 H 0.51417 0.02456 0.41722 0.0
H2075 H 0.51496 0.99436 0.44391 0.0
S2076 S 0.53984 0.02817 0.62799 0.0
N2077 N 0.53481 0.04116 0.5788 0.0
N2078 N 0.53576 1.00857 0.60678 0.0
C2079 C 0.53003 1.0119 0.55714 0.0
C2080 C 0.52933 0.02976 0.54194 0.0
C2081 C 0.28054 0.25997 0.78947 0.0
C2082 C 0.29184 0.27297 0.7713 0.0
C2083 C 0.26298 0.25925 0.77443 0.0
C2084 C 0.25553 0.27146 0.7401 0.0
H2085 H 0.28535 0.25003 0.81537 0.0
H2086 H 0.25522 0.24881 0.78956 0.0
S2087 S 0.27879 0.30912 0.68446 0.0
N2088 N 0.29364 0.29897 0.71882 0.0
N2089 N 0.26105 0.2977 0.69099 0.0
C2090 C 0.26663 0.28465 0.72206 0.0
C2091 C 0.28454 0.28537 0.73738 0.0
C2092 C 1.00821 1.00894 0.52425 0.0
C2093 C 1.02012 1.00172 0.48838 0.0
C2094 C 1.00872 0.02652 0.53894 0.0
C2095 C 0.02132 0.03808 0.51937 0.0
H2096 H 0.99818 1.00095 0.54085 0.0
H2097 H 0.99891 0.0311 0.56577 0.0
S2098 S 0.05657 0.02551 0.42752 0.0
N2099 N 0.04546 1.00765 0.43536 0.0
N2100 N 0.04672 0.04016 0.46356 0.0
C2101 C 0.03346 0.03093 0.48386 0.0
C2102 C 0.0328 1.01303 0.46844 0.0
C2103 C 0.26558 0.76176 0.79521 0.0
C2104 C 0.25335 0.77347 0.77421 0.0
C2105 C 0.28318 0.76167 0.77967 0.0
C2106 C 0.28977 0.7731 0.74132 0.0
H2107 H 0.26163 0.75235 0.82419 0.0
H2108 H 0.29176 0.75273 0.79889 0.0
S2109 S 0.26361 0.8055 0.66908 0.0
N2110 N 0.24995 0.79687 0.71125 0.0
N2111 N 0.28189 0.79535 0.67853 0.0
C2112 C 0.2776 0.78431 0.71801 0.0
C2113 C 0.25984 0.78482 0.73507 0.0
C2114 C 0.53144 1.01491 0.04789 0.0
C2115 C 0.52084 1.00255 0.02258 0.0
C2116 C 0.53192 0.03241 0.032 0.0
C2117 C 0.52201 0.03857 0.98935 0.0
H2118 H 0.53956 1.01109 0.0805 0.0
H2119 H 0.53984 0.04125 0.05425 0.0
S2120 S 0.49265 1.01195 0.90704 0.0
N2121 N 0.4998 0.99858 0.95235 0.0
N2122 N 0.50232 0.03032 0.91923 0.0
C2123 C 0.51192 0.02626 0.96233 0.0
C2124 C 0.51093 1.00867 0.97961 0.0
C2125 C 0.26806 0.2781 0.21538 0.0
C2126 C 0.25479 0.27083 0.24634 0.0
C2127 C 0.2856 0.2771 0.23046 0.0
C2128 C 0.29095 0.26864 0.27718 0.0
H2129 H 0.26486 0.28487 0.17933 0.0
H2130 H 0.29504 0.28331 0.20546 0.0
S2131 S 0.26158 0.2455 0.36901 0.0
N2132 N 0.24858 0.25369 0.32415 0.0
N2133 N 0.28113 0.25159 0.35189 0.0
C2134 C 0.2778 0.26093 0.30775 0.0
C2135 C 0.25995 0.26206 0.29255 0.0
C2136 C 0.77211 0.25932 0.72407 0.0
C2137 C 0.78445 0.26958 0.75081 0.0
C2138 C 0.75441 0.25895 0.7388 0.0
C2139 C 0.74793 0.26874 0.78145 0.0
H2140 H 0.77611 0.25136 0.69127 0.0
H2141 H 0.74566 0.2512 0.71564 0.0
S2142 S 0.77437 0.29743 0.86661 0.0
N2143 N 0.78809 0.29018 0.82229 0.0
N2144 N 0.7559 0.28816 0.85254 0.0
C2145 C 0.7602 0.27862 0.80952 0.0
C2146 C 0.77803 0.27937 0.79371 0.0
C2147 C 0.76544 0.76301 0.20811 0.0
C2148 C 0.75138 0.76723 0.24126 0.0
C2149 C 0.78277 0.76454 0.22508 0.0
C2150 C 0.78714 0.77044 0.27622 0.0
H2151 H 0.76307 0.75826 0.16856 0.0
H2152 H 0.79285 0.76074 0.19798 0.0
S2153 S 0.75545 0.78505 0.37701 0.0
N2154 N 0.7434 0.77876 0.32699 0.0
N2155 N 0.77552 0.78172 0.3585 0.0
C2156 C 0.77321 0.77504 0.30941 0.0
C2157 C 0.75557 0.77342 0.29215 0.0
C2158 C 0.75898 0.27842 0.23782 0.0
C2159 C 0.7526 0.26831 0.27997 0.0
C2160 C 0.77649 0.2783 0.22248 0.0
C2161 C 0.78907 0.26826 0.24851 0.0
H2162 H 0.75044 0.28687 0.21648 0.0
H2163 H 0.78015 0.28636 0.18947 0.0
S2164 S 0.77959 0.23865 0.36016 0.0
N2165 N 0.76069 0.24696 0.34562 0.0
N2166 N 0.79343 0.24754 0.31888 0.0
C2167 C 0.78292 0.25786 0.29031 0.0
C2168 C 0.76492 0.25778 0.30559 0.0
C2169 C 0.76501 0.77924 0.72604 0.0
C2170 C 0.75164 0.77131 0.75465 0.0
C2171 C 0.78236 0.77842 0.74297 0.0
C2172 C 0.7874 0.76943 0.78917 0.0
H2173 H 0.76212 0.78572 0.68925 0.0
H2174 H 0.79198 0.78481 0.71904 0.0
S2175 S 0.75716 0.74595 0.87755 0.0
N2176 N 0.74461 0.75406 0.83132 0.0
N2177 N 0.77686 0.75222 0.86274 0.0
C2178 C 0.77399 0.76162 0.81845 0.0
C2179 C 0.75631 0.76256 0.80122 0.0
C2180 C 0.51303 0.52615 0.55542 0.0
C2181 C 0.52036 0.53954 0.52531 0.0
C2182 C 0.51507 0.50868 0.54129 0.0
C2183 C 0.52472 0.50354 0.49649 0.0
H2184 H 0.50539 0.52919 0.59 0.0
H2185 H 0.50875 0.49911 0.56549 0.0
S2186 S 0.54832 0.53342 0.40754 0.0
N2187 N 0.53871 0.5462 0.45034 0.0
N2188 N 0.54277 0.51374 0.42445 0.0
C2189 C 0.53245 0.51683 0.46674 0.0
C2190 C 0.53025 0.53462 0.48094 0.0
C2191 C 0.02617 0.51147 0.05831 0.0
C2192 C 0.02129 0.49787 0.02432 0.0
C2193 C 0.02499 0.529 0.043 0.0
C2194 C 1.0188 0.53407 0.99276 0.0
H2195 H 0.03127 0.50858 0.0971 0.0
H2196 H 0.02935 0.53867 0.07061 0.0
S2197 S 1.00223 0.50388 0.89077 0.0
N2198 N 1.00863 0.49118 0.93904 0.0
N2199 N 1.00634 0.5236 0.91078 0.0
C2200 C 1.01342 0.52061 0.95896 0.0
C2201 C 1.01468 0.50279 0.97449 0.0
C2202 C 0.51273 0.50752 0.03467 0.0
C2203 C 0.5227 0.50117 0.99218 0.0
C2204 C 0.51301 0.52514 0.04961 0.0
C2205 C 0.52325 0.5375 0.02299 0.0
H2206 H 0.50489 0.49874 0.05748 0.0
H2207 H 0.50494 0.5291 0.08228 0.0
S2208 S 0.55153 0.52781 0.90781 0.0
N2209 N 0.54247 0.50925 0.92187 0.0
N2210 N 0.54395 0.54146 0.95179 0.0
C2211 C 0.53321 0.53125 0.98026 0.0
C2212 C 0.5327 0.51345 0.96454 0.0
C2213 C 1.01483 0.50649 0.48287 0.0
C2214 C 0.02459 0.50084 0.52664 0.0
C2215 C 1.01483 0.52371 0.46559 0.0
C2216 C 0.02418 0.53683 0.49155 0.0
H2217 H 1.00664 0.49765 0.46169 0.0
H2218 H 1.00706 0.52675 0.43141 0.0
S2219 S 0.05289 0.52948 0.60655 0.0
N2220 N 0.04519 0.51023 0.59326 0.0
N2221 N 0.04409 0.54258 0.5631 0.0
C2222 C 0.03431 0.53148 0.53479 0.0
C2223 C 0.03466 0.51369 0.55187 0.0
C2224 C 0.0995 0.17997 0.16236 0.0
C2225 C 0.08699 0.18114 0.12183 0.0
C2226 C 0.11182 0.19314 0.17222 0.0
C2227 C 0.11252 0.20856 0.14247 0.0
H2228 H 0.10003 0.16853 0.18657 0.0
H2229 H 0.12111 0.19101 0.2033 0.0
S2230 S 0.08168 0.21927 0.03486 0.0
N2231 N 0.07569 0.19989 0.05365 0.0
N2232 N 0.09829 0.22436 0.0722 0.0
C2233 C 0.09986 0.21005 0.10235 0.0
C2234 C 0.08736 0.19655 0.09214 0.0
C2235 C 0.11154 0.84189 0.42153 0.0
C2236 C 0.10977 0.82996 0.37942 0.0
C2237 C 0.09945 0.85534 0.43112 0.0
C2238 C 0.08467 0.8579 0.39929 0.0
H2239 H 0.12266 0.84111 0.44705 0.0
H2240 H 0.10198 0.86408 0.46343 0.0
S2241 S 0.07234 0.82918 0.28783 0.0
N2242 N 0.09076 0.82113 0.30836 0.0
N2243 N 0.06849 0.8459 0.32598 0.0
C2244 C 0.08248 0.84577 0.35796 0.0
C2245 C 0.09479 0.83208 0.34822 0.0
C2246 C 0.44869 0.82708 0.60612 0.0
C2247 C 0.43729 0.82782 0.65 0.0
C2248 C 0.46133 0.83999 0.59576 0.0
C2249 C 0.46357 0.85456 0.62864 0.0
H2250 H 0.44802 0.81627 0.5794 0.0
H2251 H 0.4696 0.83836 0.56168 0.0
S2252 S 0.43601 0.86423 0.74537 0.0
N2253 N 0.42857 0.84565 0.72414 0.0
N2254 N 0.45199 0.86929 0.70535 0.0
C2255 C 0.45207 0.85562 0.67208 0.0
C2256 C 0.43916 0.84254 0.68249 0.0
C2257 C 0.44684 0.18177 0.92112 0.0
C2258 C 0.46166 0.18114 0.88847 0.0
C2259 C 0.43286 0.19308 0.91115 0.0
C2260 C 0.43261 0.2045 0.86758 0.0
H2261 H 0.4458 0.17319 0.95461 0.0
H2262 H 0.42195 0.19262 0.9377 0.0
S2263 S 0.46861 0.20956 0.77188 0.0
N2264 N 0.47534 0.19428 0.81196 0.0
N2265 N 0.44931 0.21498 0.79314 0.0
C2266 C 0.4474 0.2042 0.83491 0.0
C2267 C 0.46172 0.19276 0.84526 0.0
C2268 C 0.94092 0.83621 0.90881 0.0
C2269 C 0.92673 0.8392 0.8748 0.0
C2270 C 0.95376 0.84894 0.91893 0.0
C2271 C 0.95323 0.8655 0.89586 0.0
H2272 H 0.9419 0.82403 0.92908 0.0
H2273 H 0.96397 0.8459 0.94638 0.0
S2274 S 0.92063 0.87935 0.79733 0.0
N2275 N 0.91447 0.85978 0.8134 0.0
N2276 N 0.93797 0.88326 0.83278 0.0
C2277 C 0.93953 0.86837 0.8602 0.0
C2278 C 0.92657 0.85545 0.84968 0.0
C2279 C 0.94287 0.18695 0.58708 0.0
C2280 C 0.95397 0.1799 0.62614 0.0
C2281 C 0.93045 0.19997 0.59809 0.0
C2282 C 0.92821 0.20741 0.64893 0.0
H2283 H 0.94366 0.18249 0.5467 0.0
H2284 H 0.92234 0.20404 0.56578 0.0
S2285 S 0.95421 0.19478 0.76672 0.0
N2286 N 0.96106 0.18184 0.71979 0.0
N2287 N 0.93972 0.20708 0.73839 0.0
C2288 C 0.93957 0.20091 0.68818 0.0
C2289 C 0.95182 0.18719 0.67742 0.0
C2290 C 0.60594 0.19275 0.34453 0.0
C2291 C 0.60772 0.20758 0.37677 0.0
C2292 C 0.59327 0.17981 0.35401 0.0
C2293 C 0.58146 0.18058 0.39674 0.0
H2294 H 0.61467 0.19086 0.31171 0.0
H2295 H 0.59299 0.16883 0.32784 0.0
S2296 S 0.57879 0.21723 0.49067 0.0
N2297 N 0.59498 0.22249 0.45164 0.0
N2298 N 0.5719 0.19841 0.46965 0.0
C2299 C 0.58284 0.19543 0.42882 0.0
C2300 C 0.59565 0.20871 0.41891 0.0
C2301 C 0.58478 0.85057 0.17314 0.0
C2302 C 0.58546 0.86245 0.13059 0.0
C2303 C 0.59817 0.83848 0.18319 0.0
C2304 C 0.61308 0.83739 0.15116 0.0
H2305 H 0.57362 0.85035 0.1987 0.0
H2306 H 0.59662 0.82964 0.21586 0.0
S2307 S 0.62282 0.86677 0.03912 0.0
N2308 N 0.60371 0.87308 0.05959 0.0
N2309 N 0.62815 0.85053 0.07751 0.0
C2310 C 0.61415 0.84946 0.1095 0.0
C2311 C 0.60065 0.86183 0.09953 0.0
C2312 C 0.59612 0.68047 0.59633 0.0
C2313 C 0.58086 0.68018 0.6271 0.0
C2314 C 0.60981 0.69219 0.60603 0.0
C2315 C 0.60933 0.70441 0.64747 0.0
H2316 H 0.59772 0.67132 0.56455 0.0
H2317 H 0.62108 0.69143 0.58102 0.0
S2318 S 0.57202 0.71055 0.73758 0.0
N2319 N 0.56601 0.69446 0.69941 0.0
N2320 N 0.59152 0.71591 0.71785 0.0
C2321 C 0.59412 0.70443 0.67828 0.0
C2322 C 0.58008 0.69257 0.66816 0.0
C2323 C 0.57466 0.34163 0.85709 0.0
C2324 C 0.576 0.35332 0.89997 0.0
C2325 C 0.58719 0.32865 0.84688 0.0
C2326 C 0.60199 0.32636 0.87883 0.0
H2327 H 0.56365 0.34236 0.8311 0.0
H2328 H 0.58509 0.32016 0.81364 0.0
S2329 S 0.61318 0.35458 0.99253 0.0
N2330 N 0.59457 0.36219 0.97213 0.0
N2331 N 0.6176 0.33824 0.95342 0.0
C2332 C 0.60366 0.33815 0.92121 0.0
C2333 C 0.59093 0.35138 0.93156 0.0
C2334 C 0.93436 0.33897 0.10843 0.0
C2335 C 0.93583 0.32672 0.14969 0.0
C2336 C 0.94711 0.35179 0.09846 0.0
C2337 C 0.9624 0.35332 0.12876 0.0
H2338 H 0.92298 0.33891 0.08387 0.0
H2339 H 0.9447 0.36084 0.06691 0.0
S2340 S 0.9739 0.32335 0.23798 0.0
N2341 N 0.95482 0.31653 0.21888 0.0
N2342 N 0.97848 0.33997 0.20006 0.0
C2343 C 0.96422 0.34086 0.16939 0.0
C2344 C 0.95115 0.32786 0.17974 0.0
C2345 C 0.94241 0.677 0.35766 0.0
C2346 C 0.95579 0.67932 0.39498 0.0
C2347 C 0.92954 0.68963 0.3482 0.0
C2348 C 0.92916 0.70563 0.37497 0.0
H2349 H 0.94165 0.66508 0.33589 0.0
H2350 H 0.91958 0.6866 0.3199 0.0
S2351 S 0.96227 0.71924 0.47286 0.0
N2352 N 0.96821 0.69962 0.45671 0.0
N2353 N 0.94474 0.72321 0.43838 0.0
C2354 C 0.94275 0.70825 0.41162 0.0
C2355 C 0.95575 0.69527 0.42164 0.0
C2356 C 0.44409 0.33664 0.40418 0.0
C2357 C 0.4305 0.3401 0.3683 0.0
C2358 C 0.45761 0.34863 0.41436 0.0
C2359 C 0.45837 0.36485 0.38933 0.0
H2360 H 0.44409 0.32468 0.4259 0.0
H2361 H 0.46724 0.34535 0.44346 0.0
S2362 S 0.42773 0.37962 0.2862 0.0
N2363 N 0.42017 0.36066 0.3036 0.0
N2364 N 0.44494 0.38282 0.32293 0.0
C2365 C 0.44528 0.36816 0.3519 0.0
C2366 C 0.43161 0.356 0.34144 0.0
C2367 C 0.43431 0.6936 0.17451 0.0
C2368 C 0.43483 0.7096 0.14796 0.0
C2369 C 0.4464 0.68027 0.16454 0.0
C2370 C 0.46014 0.68198 0.12793 0.0
H2371 H 0.42415 0.69112 0.20277 0.0
H2372 H 0.4449 0.66838 0.18612 0.0
S2373 S 0.46823 0.72136 0.04865 0.0
N2374 N 0.45101 0.72629 0.08371 0.0
N2375 N 0.47344 0.70159 0.06555 0.0
C2376 C 0.46108 0.69803 0.10184 0.0
C2377 C 0.44858 0.71159 0.11148 0.0
C2378 C 0.09635 0.68435 0.93298 0.0
C2379 C 0.08615 0.67662 0.89279 0.0
C2380 C 0.10873 0.69755 0.92283 0.0
C2381 C 0.11185 0.70449 0.87169 0.0
H2382 H 0.09483 0.68032 0.97361 0.0
H2383 H 0.11609 0.70217 0.95615 0.0
S2384 S 0.08855 0.68979 0.75075 0.0
N2385 N 0.08096 0.67729 0.79782 0.0
N2386 N 0.10223 0.70274 0.78027 0.0
C2387 C 0.10144 0.69722 0.83115 0.0
C2388 C 0.08922 0.68336 0.8412 0.0
C2389 C 0.09517 0.35754 0.66913 0.0
C2390 C 0.08286 0.35603 0.62808 0.0
C2391 C 0.1081 0.34492 0.67845 0.0
C2392 C 0.10966 0.32976 0.64767 0.0
H2393 H 0.09507 0.36884 0.69394 0.0
H2394 H 0.11723 0.34733 0.70984 0.0
S2395 S 0.07946 0.31819 0.53902 0.0
N2396 N 0.07258 0.33715 0.55871 0.0
N2397 N 0.09621 0.31369 0.57643 0.0
C2398 C 0.0971 0.32788 0.60737 0.0
C2399 C 0.08401 0.34081 0.59765 0.0
loop_
_geom_bond_atom_site_label_1
_geom_bond_atom_site_label_2
_geom_bond_distance
_geom_bond_site_symmetry_2
_ccdc_geom_bond_type
C0 C1 1.443 . S
C0 N4 1.376 1_556 S
C0 C38 1.389 1_655 S
C1 C0 1.443 . S
C1 C2 1.340 . S
C1 H41 0.951 . S
C2 C1 1.340 . S
C2 C3 1.439 1_556 S
C2 H42 0.950 . S
C3 C2 1.439 1_554 S
C3 N4 1.374 . S
C3 C37 1.395 . S
N4 C0 1.376 1_554 S
N4 C3 1.374 . S
N4 Co5 2.008 1_655 S
Co5 N4 2.008 1_455 S
Co5 N6 1.995 1_455 S
Co5 N11 2.008 . S
Co5 N16 1.995 . S
Co5 N21 2.282 . S
Co5 N27 2.282 1_455 S
N6 Co5 1.995 1_655 S
N6 C7 1.376 . S
N6 C10 1.383 . S
C7 N6 1.376 . S
C7 C8 1.446 . S
C7 C37 1.391 . S
C8 C7 1.446 . S
C8 C9 1.339 . S
C8 H43 0.949 . S
C9 C8 1.339 . S
C9 C10 1.439 . S
C9 H44 0.950 . S
C10 N6 1.383 . S
C10 C9 1.439 . S
C10 C39 1.392 1_655 S
N11 Co5 2.008 . S
N11 C12 1.376 . S
N11 C15 1.374 . S
C12 N11 1.376 . S
C12 C13 1.443 . S
C12 C39 1.389 . S
C13 C12 1.443 . S
C13 C14 1.340 . S
C13 H45 0.951 . S
C14 C13 1.340 . S
C14 C15 1.439 . S
C14 H46 0.950 . S
C15 N11 1.374 . S
C15 C14 1.439 . S
C15 C40 1.395 . S
N16 Co5 1.995 . S
N16 C17 1.376 . S
N16 C20 1.383 1_554 S
C17 N16 1.376 . S
C17 C18 1.446 1_554 S
C17 C40 1.391 . S
C18 C17 1.446 1_556 S
C18 C19 1.339 . S
C18 H47 0.949 . S
C19 C18 1.339 . S
C19 C20 1.439 . S
C19 H48 0.950 . S
C20 N16 1.383 1_556 S
C20 C19 1.439 . S
C20 C38 1.392 . S
N21 Co5 2.282 . S
N21 C24 1.332 . S
N21 C26 1.332 . S
C22 C23 1.386 . S
C22 C25 1.388 . S
C23 C22 1.386 . S
C23 C24 1.382 . S
C23 H49 0.950 . S
C24 N21 1.332 . S
C24 C23 1.382 . S
C24 H35 0.952 . S
C25 C22 1.388 . S
C25 C26 1.382 . S
C25 H50 0.950 . S
C26 N21 1.332 . S
C26 C25 1.382 . S
C26 H36 0.929 1_455 S
N27 Co5 2.282 1_655 S
N27 C31 1.332 . S
N27 C32 1.332 1_655 S
C28 C29 1.388 1_455 S
C28 C32 1.382 . S
C28 H51 0.950 1_554 S
C29 C28 1.388 1_655 S
C29 C30 1.386 . S
C30 C29 1.386 . S
C30 C31 1.382 . S
C30 H52 0.950 . S
C31 N27 1.332 . S
C31 C30 1.382 . S
C31 H33 0.952 . S
C32 N27 1.332 1_455 S
C32 C28 1.382 . S
C32 H34 0.948 . S
H33 C31 0.952 . S
H34 C32 0.948 . S
H35 C24 0.952 . S
H36 C26 0.929 1_655 S
C37 C3 1.395 . S
C37 C7 1.391 . S
C38 C0 1.389 1_455 S
C38 C20 1.392 . S
C39 C10 1.392 1_455 S
C39 C12 1.389 . S
C40 C15 1.395 . S
C40 C17 1.391 . S
H41 C1 0.951 . S
H42 C2 0.950 . S
H43 C8 0.949 . S
H44 C9 0.950 . S
H45 C13 0.951 . S
H46 C14 0.950 . S
H47 C18 0.949 . S
H48 C19 0.950 . S
H49 C23 0.950 . S
H50 C25 0.950 . S
H51 C28 0.950 1_556 S
H52 C30 0.950 . S
C53 C54 1.443 . S
C53 N57 1.376 . S
C53 C91 1.389 . S
C54 C53 1.443 . S
C54 C55 1.340 . S
C54 H94 0.951 . S
C55 C54 1.340 . S
C55 C56 1.439 . S
C55 H95 0.950 . S
C56 C55 1.439 . S
C56 N57 1.374 . S
C56 C90 1.395 . S
N57 C53 1.376 . S
N57 C56 1.374 . S
N57 Co58 2.008 . S
Co58 N57 2.008 . S
Co58 N59 1.995 . S
Co58 N64 2.008 . S
Co58 N69 1.995 . S
Co58 N74 2.282 . S
Co58 N80 2.282 . S
N59 Co58 1.995 . S
N59 C60 1.376 . S
N59 C63 1.383 . S
C60 N59 1.376 . S
C60 C61 1.446 . S
C60 C90 1.391 . S
C61 C60 1.446 . S
C61 C62 1.339 . S
C61 H96 0.949 . S
C62 C61 1.339 . S
C62 C63 1.439 . S
C62 H97 0.950 . S
C63 N59 1.383 . S
C63 C62 1.439 . S
C63 C92 1.392 . S
N64 Co58 2.008 . S
N64 C65 1.376 . S
N64 C68 1.374 . S
C65 N64 1.376 . S
C65 C66 1.443 . S
C65 C92 1.389 . S
C66 C65 1.443 . S
C66 C67 1.340 . S
C66 H98 0.951 . S
C67 C66 1.340 . S
C67 C68 1.439 . S
C67 H99 0.950 . S
C68 N64 1.374 . S
C68 C67 1.439 . S
C68 C93 1.395 . S
N69 Co58 1.995 . S
N69 C70 1.376 . S
N69 C73 1.383 . S
C70 N69 1.376 . S
C70 C71 1.446 . S
C70 C93 1.391 . S
C71 C70 1.446 . S
C71 C72 1.339 . S
C71 H100 0.949 . S
C72 C71 1.339 . S
C72 C73 1.439 . S
C72 H101 0.950 . S
C73 N69 1.383 . S
C73 C72 1.439 . S
C73 C91 1.392 . S
N74 Co58 2.282 . S
N74 C77 1.332 . S
N74 C79 1.332 . S
C75 C76 1.386 . S
C75 C78 1.388 . S
C76 C75 1.386 . S
C76 C77 1.382 . S
C76 H102 0.950 . S
C77 N74 1.332 . S
C77 C76 1.382 . S
C77 H88 0.952 . S
C78 C75 1.388 . S
C78 C79 1.382 . S
C78 H103 0.950 . S
C79 N74 1.332 . S
C79 C78 1.382 . S
C79 H89 0.948 . S
N80 Co58 2.282 . S
N80 C84 1.332 . S
N80 C85 1.332 . S
C81 C82 1.388 . S
C81 C85 1.382 . S
C81 H104 0.950 . S
C82 C81 1.388 . S
C82 C83 1.386 . S
C83 C82 1.386 . S
C83 C84 1.382 . S
C83 H105 0.950 . S
C84 N80 1.332 . S
C84 C83 1.382 . S
C84 H86 0.952 . S
C85 N80 1.332 . S
C85 C81 1.382 . S
C85 H87 0.948 . S
H86 C84 0.952 . S
H87 C85 0.948 . S
H88 C77 0.952 . S
H89 C79 0.948 . S
C90 C56 1.395 . S
C90 C60 1.391 . S
C91 C53 1.389 . S
C91 C73 1.392 . S
C92 C63 1.392 . S
C92 C65 1.389 . S
C93 C68 1.395 . S
C93 C70 1.391 . S
H94 C54 0.951 . S
H95 C55 0.950 . S
H96 C61 0.949 . S
H97 C62 0.950 . S
H98 C66 0.951 . S
H99 C67 0.950 . S
H100 C71 0.949 . S
H101 C72 0.950 . S
H102 C76 0.950 . S
H103 C78 0.950 . S
H104 C81 0.950 . S
H105 C83 0.950 . S
C106 C107 1.443 . S
C106 N110 1.376 . S
C106 C144 1.389 . S
C107 C106 1.443 . S
C107 C108 1.340 . S
C107 H147 0.951 . S
C108 C107 1.340 . S
C108 C109 1.439 . S
C108 H148 0.950 . S
C109 C108 1.439 . S
C109 N110 1.374 . S
C109 C143 1.395 . S
N110 C106 1.376 . S
N110 C109 1.374 . S
N110 Co111 2.008 . S
Co111 N110 2.008 . S
Co111 N112 1.995 . S
Co111 N117 2.008 . S
Co111 N122 1.995 . S
Co111 N127 2.282 . S
Co111 N133 2.282 . S
N112 Co111 1.995 . S
N112 C113 1.376 . S
N112 C116 1.383 . S
C113 N112 1.376 . S
C113 C114 1.446 . S
C113 C143 1.391 . S
C114 C113 1.446 . S
C114 C115 1.339 . S
C114 H149 0.949 . S
C115 C114 1.339 . S
C115 C116 1.439 . S
C115 H150 0.950 . S
C116 N112 1.383 . S
C116 C115 1.439 . S
C116 C145 1.392 . S
N117 Co111 2.008 . S
N117 C118 1.376 . S
N117 C121 1.374 . S
C118 N117 1.376 . S
C118 C119 1.443 . S
C118 C145 1.389 . S
C119 C118 1.443 . S
C119 C120 1.340 . S
C119 H151 0.951 . S
C120 C119 1.340 . S
C120 C121 1.439 . S
C120 H152 0.950 . S
C121 N117 1.374 . S
C121 C120 1.439 . S
C121 C146 1.395 . S
N122 Co111 1.995 . S
N122 C123 1.376 . S
N122 C126 1.383 . S
C123 N122 1.376 . S
C123 C124 1.446 . S
C123 C146 1.391 . S
C124 C123 1.446 . S
C124 C125 1.339 . S
C124 H153 0.949 . S
C125 C124 1.339 . S
C125 C126 1.439 . S
C125 H154 0.950 . S
C126 N122 1.383 . S
C126 C125 1.439 . S
C126 C144 1.392 . S
N127 Co111 2.282 . S
N127 C130 1.332 . S
N127 C132 1.332 . S
C128 C129 1.386 . S
C128 C131 1.388 . S
C129 C128 1.386 . S
C129 C130 1.382 . S
C129 H155 0.950 . S
C130 N127 1.332 . S
C130 C129 1.382 . S
C130 H141 0.952 . S
C131 C128 1.388 . S
C131 C132 1.382 . S
C131 H156 0.950 . S
C132 N127 1.332 . S
C132 C131 1.382 . S
C132 H142 0.948 . S
N133 Co111 2.282 . S
N133 C137 1.332 . S
N133 C138 1.332 . S
C134 C135 1.388 . S
C134 C138 1.382 . S
C134 H157 0.950 . S
C135 C134 1.388 . S
C135 C136 1.386 . S
C136 C135 1.386 . S
C136 C137 1.382 . S
C136 H158 0.950 . S
C137 N133 1.332 . S
C137 C136 1.382 . S
C137 H139 0.952 . S
C138 N133 1.332 . S
C138 C134 1.382 . S
C138 H140 0.948 . S
H139 C137 0.952 . S
H140 C138 0.948 . S
H141 C130 0.952 . S
H142 C132 0.948 . S
C143 C109 1.395 . S
C143 C113 1.391 . S
C144 C106 1.389 . S
C144 C126 1.392 . S
C145 C116 1.392 . S
C145 C118 1.389 . S
C146 C121 1.395 . S
C146 C123 1.391 . S
H147 C107 0.951 . S
H148 C108 0.950 . S
H149 C114 0.949 . S
H150 C115 0.950 . S
H151 C119 0.951 . S
H152 C120 0.950 . S
H153 C124 0.949 . S
H154 C125 0.950 . S
H155 C129 0.950 . S
H156 C131 0.950 . S
H157 C134 0.950 . S
H158 C136 0.950 . S
C159 C160 1.443 . S
C159 N163 1.376 . S
C159 C197 1.389 . S
C160 C159 1.443 . S
C160 C161 1.340 . S
C160 H200 0.951 . S
C161 C160 1.340 . S
C161 C162 1.439 . S
C161 H201 0.950 . S
C162 C161 1.439 . S
C162 N163 1.374 . S
C162 C196 1.395 . S
N163 C159 1.376 . S
N163 C162 1.374 . S
N163 Co164 2.008 . S
Co164 N163 2.008 . S
Co164 N165 1.995 . S
Co164 N170 2.008 . S
Co164 N175 1.995 . S
Co164 N180 2.282 . S
Co164 N186 2.282 . S
N165 Co164 1.995 . S
N165 C166 1.376 . S
N165 C169 1.383 . S
C166 N165 1.376 . S
C166 C167 1.446 . S
C166 C196 1.391 . S
C167 C166 1.446 . S
C167 C168 1.339 . S
C167 H202 0.949 . S
C168 C167 1.339 . S
C168 C169 1.439 . S
C168 H203 0.950 . S
C169 N165 1.383 . S
C169 C168 1.439 . S
C169 C198 1.392 . S
N170 Co164 2.008 . S
N170 C171 1.376 . S
N170 C174 1.374 . S
C171 N170 1.376 . S
C171 C172 1.443 . S
C171 C198 1.389 . S
C172 C171 1.443 . S
C172 C173 1.340 . S
C172 H204 0.951 . S
C173 C172 1.340 . S
C173 C174 1.439 . S
C173 H205 0.950 . S
C174 N170 1.374 . S
C174 C173 1.439 . S
C174 C199 1.395 . S
N175 Co164 1.995 . S
N175 C176 1.376 . S
N175 C179 1.383 . S
C176 N175 1.376 . S
C176 C177 1.446 . S
C176 C199 1.391 . S
C177 C176 1.446 . S
C177 C178 1.339 . S
C177 H206 0.949 . S
C178 C177 1.339 . S
C178 C179 1.439 . S
C178 H207 0.950 . S
C179 N175 1.383 . S
C179 C178 1.439 . S
C179 C197 1.392 . S
N180 Co164 2.282 . S
N180 C183 1.332 . S
N180 C185 1.332 . S
C181 C182 1.386 . S
C181 C184 1.388 . S
C182 C181 1.386 . S
C182 C183 1.382 . S
C182 H208 0.950 . S
C183 N180 1.332 . S
C183 C182 1.382 . S
C183 H194 0.952 . S
C184 C181 1.388 . S
C184 C185 1.382 . S
C184 H209 0.950 . S
C185 N180 1.332 . S
C185 C184 1.382 . S
C185 H195 0.948 . S
N186 Co164 2.282 . S
N186 C190 1.332 . S
N186 C191 1.332 . S
C187 C188 1.388 . S
C187 C191 1.382 . S
C187 H210 0.950 . S
C188 C187 1.388 . S
C188 C189 1.386 . S
C189 C188 1.386 . S
C189 C190 1.382 . S
C189 H211 0.950 . S
C190 N186 1.332 . S
C190 C189 1.382 . S
C190 H192 0.952 . S
C191 N186 1.332 . S
C191 C187 1.382 . S
C191 H193 0.948 . S
H192 C190 0.952 . S
H193 C191 0.948 . S
H194 C183 0.952 . S
H195 C185 0.948 . S
C196 C162 1.395 . S
C196 C166 1.391 . S
C197 C159 1.389 . S
C197 C179 1.392 . S
C198 C169 1.392 . S
C198 C171 1.389 . S
C199 C174 1.395 . S
C199 C176 1.391 . S
H200 C160 0.951 . S
H201 C161 0.950 . S
H202 C167 0.949 . S
H203 C168 0.950 . S
H204 C172 0.951 . S
H205 C173 0.950 . S
H206 C177 0.949 . S
H207 C178 0.950 . S
H208 C182 0.950 . S
H209 C184 0.950 . S
H210 C187 0.950 . S
H211 C189 0.950 . S
C212 C213 1.443 . S
C212 N216 1.376 . S
C212 C250 1.389 1_655 S
C213 C212 1.443 . S
C213 C214 1.340 . S
C213 H253 0.951 . S
C214 C213 1.340 . S
C214 C215 1.439 . S
C214 H254 0.950 . S
C215 C214 1.439 . S
C215 N216 1.374 . S
C215 C249 1.395 . S
N216 C212 1.376 . S
N216 C215 1.374 . S
N216 Co217 2.008 1_655 S
Co217 N216 2.008 1_455 S
Co217 N218 1.995 1_455 S
Co217 N223 2.008 . S
Co217 N228 1.995 . S
Co217 N233 2.282 . S
Co217 N239 2.282 1_455 S
N218 Co217 1.995 1_655 S
N218 C219 1.376 . S
N218 C222 1.383 . S
C219 N218 1.376 . S
C219 C220 1.446 . S
C219 C249 1.391 . S
C220 C219 1.446 . S
C220 C221 1.339 . S
C220 H255 0.949 . S
C221 C220 1.339 . S
C221 C222 1.439 . S
C221 H256 0.950 . S
C222 N218 1.383 . S
C222 C221 1.439 . S
C222 C251 1.392 1_655 S
N223 Co217 2.008 . S
N223 C224 1.376 . S
N223 C227 1.374 . S
C224 N223 1.376 . S
C224 C225 1.443 . S
C224 C251 1.389 . S
C225 C224 1.443 . S
C225 C226 1.340 . S
C225 H257 0.951 . S
C226 C225 1.340 . S
C226 C227 1.439 . S
C226 H258 0.950 . S
C227 N223 1.374 . S
C227 C226 1.439 . S
C227 C252 1.395 . S
N228 Co217 1.995 . S
N228 C229 1.376 . S
N228 C232 1.383 . S
C229 N228 1.376 . S
C229 C230 1.446 . S
C229 C252 1.391 . S
C230 C229 1.446 . S
C230 C231 1.339 . S
C230 H259 0.949 . S
C231 C230 1.339 . S
C231 C232 1.439 . S
C231 H260 0.950 . S
C232 N228 1.383 . S
C232 C231 1.439 . S
C232 C250 1.392 . S
N233 Co217 2.282 . S
N233 C236 1.332 . S
N233 C238 1.332 . S
C234 C235 1.386 . S
C234 C237 1.388 . S
C235 C234 1.386 . S
C235 C236 1.382 . S
C235 H261 0.950 . S
C236 N233 1.332 . S
C236 C235 1.382 . S
C236 H247 0.952 . S
C237 C234 1.388 . S
C237 C238 1.382 . S
C237 H262 0.950 . S
C238 N233 1.332 . S
C238 C237 1.382 . S
C238 H248 0.929 1_455 S
N239 Co217 2.282 1_655 S
N239 C243 1.332 . S
N239 C244 1.332 1_655 S
C240 C241 1.388 1_455 S
C240 C244 1.382 . S
C240 H263 0.950 . S
C241 C240 1.388 1_655 S
C241 C242 1.386 . S
C242 C241 1.386 . S
C242 C243 1.382 . S
C242 H264 0.950 . S
C243 N239 1.332 . S
C243 C242 1.382 . S
C243 H245 0.952 . S
C244 N239 1.332 1_455 S
C244 C240 1.382 . S
C244 H246 0.948 . S
H245 C243 0.952 . S
H246 C244 0.948 . S
H247 C236 0.952 . S
H248 C238 0.929 1_655 S
C249 C215 1.395 . S
C249 C219 1.391 . S
C250 C212 1.389 1_455 S
C250 C232 1.392 . S
C251 C222 1.392 1_455 S
C251 C224 1.389 . S
C252 C227 1.395 . S
C252 C229 1.391 . S
H253 C213 0.951 . S
H254 C214 0.950 . S
H255 C220 0.949 . S
H256 C221 0.950 . S
H257 C225 0.951 . S
H258 C226 0.950 . S
H259 C230 0.949 . S
H260 C231 0.950 . S
H261 C235 0.950 . S
H262 C237 0.950 . S
H263 C240 0.950 . S
H264 C242 0.950 . S
C265 C266 1.443 . S
C265 N269 1.376 . S
C265 C303 1.389 . S
C266 C265 1.443 . S
C266 C267 1.340 . S
C266 H306 0.951 . S
C267 C266 1.340 . S
C267 C268 1.439 . S
C267 H307 0.950 . S
C268 C267 1.439 . S
C268 N269 1.374 . S
C268 C302 1.395 . S
N269 C265 1.376 . S
N269 C268 1.374 . S
N269 Co270 2.008 . S
Co270 N269 2.008 . S
Co270 N271 1.995 . S
Co270 N276 2.008 . S
Co270 N281 1.995 . S
Co270 N286 2.282 . S
Co270 N292 2.282 . S
N271 Co270 1.995 . S
N271 C272 1.376 . S
N271 C275 1.383 . S
C272 N271 1.376 . S
C272 C273 1.446 . S
C272 C302 1.391 . S
C273 C272 1.446 . S
C273 C274 1.339 . S
C273 H308 0.949 . S
C274 C273 1.339 . S
C274 C275 1.439 . S
C274 H309 0.950 . S
C275 N271 1.383 . S
C275 C274 1.439 . S
C275 C304 1.392 . S
N276 Co270 2.008 . S
N276 C277 1.376 . S
N276 C280 1.374 . S
C277 N276 1.376 . S
C277 C278 1.443 . S
C277 C304 1.389 . S
C278 C277 1.443 . S
C278 C279 1.340 . S
C278 H310 0.951 . S
C279 C278 1.340 . S
C279 C280 1.439 . S
C279 H311 0.950 . S
C280 N276 1.374 . S
C280 C279 1.439 . S
C280 C305 1.395 . S
N281 Co270 1.995 . S
N281 C282 1.376 . S
N281 C285 1.383 . S
C282 N281 1.376 . S
C282 C283 1.446 . S
C282 C305 1.391 . S
C283 C282 1.446 . S
C283 C284 1.339 . S
C283 H312 0.949 . S
C284 C283 1.339 . S
C284 C285 1.439 . S
C284 H313 0.950 . S
C285 N281 1.383 . S
C285 C284 1.439 . S
C285 C303 1.392 . S
N286 Co270 2.282 . S
N286 C289 1.332 . S
N286 C291 1.332 . S
C287 C288 1.386 . S
C287 C290 1.388 . S
C288 C287 1.386 . S
C288 C289 1.382 . S
C288 H314 0.950 . S
C289 N286 1.332 . S
C289 C288 1.382 . S
C289 H300 0.952 . S
C290 C287 1.388 . S
C290 C291 1.382 . S
C290 H315 0.950 . S
C291 N286 1.332 . S
C291 C290 1.382 . S
C291 H301 0.948 . S
N292 Co270 2.282 . S
N292 C296 1.332 . S
N292 C297 1.332 . S
C293 C294 1.388 . S
C293 C297 1.382 . S
C293 H316 0.950 . S
C294 C293 1.388 . S
C294 C295 1.386 . S
C295 C294 1.386 . S
C295 C296 1.382 . S
C295 H317 0.950 . S
C296 N292 1.332 . S
C296 C295 1.382 . S
C296 H298 0.952 . S
C297 N292 1.332 . S
C297 C293 1.382 . S
C297 H299 0.948 . S
H298 C296 0.952 . S
H299 C297 0.948 . S
H300 C289 0.952 . S
H301 C291 0.948 . S
C302 C268 1.395 . S
C302 C272 1.391 . S
C303 C265 1.389 . S
C303 C285 1.392 . S
C304 C275 1.392 . S
C304 C277 1.389 . S
C305 C280 1.395 . S
C305 C282 1.391 . S
H306 C266 0.951 . S
H307 C267 0.950 . S
H308 C273 0.949 . S
H309 C274 0.950 . S
H310 C278 0.951 . S
H311 C279 0.950 . S
H312 C283 0.949 . S
H313 C284 0.950 . S
H314 C288 0.950 . S
H315 C290 0.950 . S
H316 C293 0.950 . S
H317 C295 0.950 . S
C318 C319 1.443 . S
C318 N322 1.376 1_554 S
C318 C356 1.389 . S
C319 C318 1.443 . S
C319 C320 1.340 . S
C319 H359 0.951 . S
C320 C319 1.340 . S
C320 C321 1.439 1_554 S
C320 H360 0.950 . S
C321 C320 1.439 1_556 S
C321 N322 1.374 . S
C321 C355 1.395 . S
N322 C318 1.376 1_556 S
N322 C321 1.374 . S
N322 Co323 2.008 . S
Co323 N322 2.008 . S
Co323 N324 1.995 . S
Co323 N329 2.008 . S
Co323 N334 1.995 . S
Co323 N339 2.282 . S
Co323 N345 2.282 . S
N324 Co323 1.995 . S
N324 C325 1.376 . S
N324 C328 1.383 . S
C325 N324 1.376 . S
C325 C326 1.446 . S
C325 C355 1.391 . S
C326 C325 1.446 . S
C326 C327 1.339 . S
C326 H361 0.949 . S
C327 C326 1.339 . S
C327 C328 1.439 . S
C327 H362 0.950 . S
C328 N324 1.383 . S
C328 C327 1.439 . S
C328 C357 1.392 . S
N329 Co323 2.008 . S
N329 C330 1.376 . S
N329 C333 1.374 . S
C330 N329 1.376 . S
C330 C331 1.443 . S
C330 C357 1.389 . S
C331 C330 1.443 . S
C331 C332 1.340 . S
C331 H363 0.951 . S
C332 C331 1.340 . S
C332 C333 1.439 . S
C332 H364 0.950 . S
C333 N329 1.374 . S
C333 C332 1.439 . S
C333 C358 1.395 . S
N334 Co323 1.995 . S
N334 C335 1.376 . S
N334 C338 1.383 1_556 S
C335 N334 1.376 . S
C335 C336 1.446 1_556 S
C335 C358 1.391 . S
C336 C335 1.446 1_554 S
C336 C337 1.339 . S
C336 H365 0.949 . S
C337 C336 1.339 . S
C337 C338 1.439 . S
C337 H366 0.950 . S
C338 N334 1.383 1_554 S
C338 C337 1.439 . S
C338 C356 1.392 . S
N339 Co323 2.282 . S
N339 C342 1.332 . S
N339 C344 1.332 . S
C340 C341 1.386 . S
C340 C343 1.388 . S
C341 C340 1.386 . S
C341 C342 1.382 . S
C341 H367 0.950 . S
C342 N339 1.332 . S
C342 C341 1.382 . S
C342 H353 0.952 . S
C343 C340 1.388 . S
C343 C344 1.382 . S
C343 H368 0.950 . S
C344 N339 1.332 . S
C344 C343 1.382 . S
C344 H354 0.948 . S
N345 Co323 2.282 . S
N345 C349 1.332 . S
N345 C350 1.332 . S
C346 C347 1.388 . S
C346 C350 1.382 . S
C346 H369 0.950 1_556 S
C347 C346 1.388 . S
C347 C348 1.386 . S
C348 C347 1.386 . S
C348 C349 1.382 . S
C348 H370 0.950 . S
C349 N345 1.332 . S
C349 C348 1.382 . S
C349 H351 0.952 . S
C350 N345 1.332 . S
C350 C346 1.382 . S
C350 H352 0.948 . S
H351 C349 0.952 . S
H352 C350 0.948 . S
H353 C342 0.952 . S
H354 C344 0.948 . S
C355 C321 1.395 . S
C355 C325 1.391 . S
C356 C318 1.389 . S
C356 C338 1.392 . S
C357 C328 1.392 . S
C357 C330 1.389 . S
C358 C333 1.395 . S
C358 C335 1.391 . S
H359 C319 0.951 . S
H360 C320 0.950 . S
H361 C326 0.949 . S
H362 C327 0.950 . S
H363 C331 0.951 . S
H364 C332 0.950 . S
H365 C336 0.949 . S
H366 C337 0.950 . S
H367 C341 0.950 . S
H368 C343 0.950 . S
H369 C346 0.950 1_554 S
H370 C348 0.950 . S
C371 C372 1.443 . S
C371 N375 1.376 . S
C371 C409 1.389 . S
C372 C371 1.443 . S
C372 C373 1.340 . S
C372 H412 0.951 . S
C373 C372 1.340 . S
C373 C374 1.439 . S
C373 H413 0.950 . S
C374 C373 1.439 . S
C374 N375 1.374 . S
C374 C408 1.395 . S
N375 C371 1.376 . S
N375 C374 1.374 . S
N375 Co376 2.008 . S
Co376 N375 2.008 . S
Co376 N377 1.995 . S
Co376 N382 2.008 . S
Co376 N387 1.995 . S
Co376 N392 2.282 . S
Co376 N398 2.282 . S
N377 Co376 1.995 . S
N377 C378 1.376 . S
N377 C381 1.383 . S
C378 N377 1.376 . S
C378 C379 1.446 . S
C378 C408 1.391 . S
C379 C378 1.446 . S
C379 C380 1.339 . S
C379 H414 0.949 . S
C380 C379 1.339 . S
C380 C381 1.439 . S
C380 H415 0.950 . S
C381 N377 1.383 . S
C381 C380 1.439 . S
C381 C410 1.392 . S
N382 Co376 2.008 . S
N382 C383 1.376 . S
N382 C386 1.374 . S
C383 N382 1.376 . S
C383 C384 1.443 . S
C383 C410 1.389 . S
C384 C383 1.443 . S
C384 C385 1.340 . S
C384 H416 0.951 . S
C385 C384 1.340 . S
C385 C386 1.439 . S
C385 H417 0.950 . S
C386 N382 1.374 . S
C386 C385 1.439 . S
C386 C411 1.395 . S
N387 Co376 1.995 . S
N387 C388 1.376 . S
N387 C391 1.383 . S
C388 N387 1.376 . S
C388 C389 1.446 . S
C388 C411 1.391 . S
C389 C388 1.446 . S
C389 C390 1.339 . S
C389 H418 0.949 . S
C390 C389 1.339 . S
C390 C391 1.439 . S
C390 H419 0.950 . S
C391 N387 1.383 . S
C391 C390 1.439 . S
C391 C409 1.392 . S
N392 Co376 2.282 . S
N392 C395 1.332 . S
N392 C397 1.332 . S
C393 C394 1.386 . S
C393 C396 1.388 . S
C394 C393 1.386 . S
C394 C395 1.382 . S
C394 H420 0.950 . S
C395 N392 1.332 . S
C395 C394 1.382 . S
C395 H406 0.952 . S
C396 C393 1.388 . S
C396 C397 1.382 . S
C396 H421 0.950 . S
C397 N392 1.332 . S
C397 C396 1.382 . S
C397 H407 0.948 . S
N398 Co376 2.282 . S
N398 C402 1.332 . S
N398 C403 1.332 . S
C399 C400 1.388 . S
C399 C403 1.382 . S
C399 H422 0.950 . S
C400 C399 1.388 . S
C400 C401 1.386 . S
C401 C400 1.386 . S
C401 C402 1.382 . S
C401 H423 0.950 . S
C402 N398 1.332 . S
C402 C401 1.382 . S
C402 H404 0.952 . S
C403 N398 1.332 . S
C403 C399 1.382 . S
C403 H405 0.948 . S
H404 C402 0.952 . S
H405 C403 0.948 . S
H406 C395 0.952 . S
H407 C397 0.948 . S
C408 C374 1.395 . S
C408 C378 1.391 . S
C409 C371 1.389 . S
C409 C391 1.392 . S
C410 C381 1.392 . S
C410 C383 1.389 . S
C411 C386 1.395 . S
C411 C388 1.391 . S
H412 C372 0.951 . S
H413 C373 0.950 . S
H414 C379 0.949 . S
H415 C380 0.950 . S
H416 C384 0.951 . S
H417 C385 0.950 . S
H418 C389 0.949 . S
H419 C390 0.950 . S
H420 C394 0.950 . S
H421 C396 0.950 . S
H422 C399 0.950 . S
H423 C401 0.950 . S
C424 C425 1.443 . S
C424 N428 1.376 1_554 S
C424 C462 1.389 . S
C425 C424 1.443 . S
C425 C426 1.340 . S
C425 H465 0.951 . S
C426 C425 1.340 . S
C426 C427 1.439 1_554 S
C426 H466 0.950 . S
C427 C426 1.439 1_556 S
C427 N428 1.374 . S
C427 C461 1.395 . S
N428 C424 1.376 1_556 S
N428 C427 1.374 . S
N428 Co429 2.008 . S
Co429 N428 2.008 . S
Co429 N430 1.995 . S
Co429 N435 2.008 1_655 S
Co429 N440 1.995 1_655 S
Co429 N445 2.282 . S
Co429 N451 2.282 1_655 S
N430 Co429 1.995 . S
N430 C431 1.376 . S
N430 C434 1.383 . S
C431 N430 1.376 . S
C431 C432 1.446 . S
C431 C461 1.391 . S
C432 C431 1.446 . S
C432 C433 1.339 . S
C432 H467 0.949 . S
C433 C432 1.339 . S
C433 C434 1.439 . S
C433 H468 0.950 . S
C434 N430 1.383 . S
C434 C433 1.439 . S
C434 C463 1.392 . S
N435 Co429 2.008 1_455 S
N435 C436 1.376 . S
N435 C439 1.374 . S
C436 N435 1.376 . S
C436 C437 1.443 . S
C436 C463 1.389 1_455 S
C437 C436 1.443 . S
C437 C438 1.340 . S
C437 H469 0.951 . S
C438 C437 1.340 . S
C438 C439 1.439 . S
C438 H470 0.950 . S
C439 N435 1.374 . S
C439 C438 1.439 . S
C439 C464 1.395 . S
N440 Co429 1.995 1_455 S
N440 C441 1.376 . S
N440 C444 1.383 1_556 S
C441 N440 1.376 . S
C441 C442 1.446 1_556 S
C441 C464 1.391 . S
C442 C441 1.446 1_554 S
C442 C443 1.339 . S
C442 H471 0.949 . S
C443 C442 1.339 . S
C443 C444 1.439 . S
C443 H472 0.950 . S
C444 N440 1.383 1_554 S
C444 C443 1.439 . S
C444 C462 1.392 1_455 S
N445 Co429 2.282 . S
N445 C448 1.332 . S
N445 C450 1.332 . S
C446 C447 1.386 . S
C446 C449 1.388 . S
C447 C446 1.386 . S
C447 C448 1.382 . S
C447 H473 0.950 . S
C448 N445 1.332 . S
C448 C447 1.382 . S
C448 H459 0.952 . S
C449 C446 1.388 . S
C449 C450 1.382 . S
C449 H474 0.950 . S
C450 N445 1.332 . S
C450 C449 1.382 . S
C450 H460 0.948 . S
N451 Co429 2.282 1_455 S
N451 C455 1.332 1_455 S
N451 C456 1.332 . S
C452 C453 1.388 . S
C452 C456 1.382 . S
C452 H475 0.950 1_556 S
C453 C452 1.388 . S
C453 C454 1.414 . S
C454 C453 1.414 . S
C454 C455 1.372 1_455 S
C454 H476 0.933 1_455 S
C455 N451 1.332 1_655 S
C455 C454 1.372 1_655 S
C455 H457 0.952 . S
C456 N451 1.332 . S
C456 C452 1.382 . S
C456 H458 0.948 . S
H457 C455 0.952 . S
H458 C456 0.948 . S
H459 C448 0.952 . S
H460 C450 0.948 . S
C461 C427 1.395 . S
C461 C431 1.391 . S
C462 C424 1.389 . S
C462 C444 1.392 1_655 S
C463 C434 1.392 . S
C463 C436 1.389 1_655 S
C464 C439 1.395 . S
C464 C441 1.391 . S
H465 C425 0.951 . S
H466 C426 0.950 . S
H467 C432 0.949 . S
H468 C433 0.950 . S
H469 C437 0.951 . S
H470 C438 0.950 . S
H471 C442 0.949 . S
H472 C443 0.950 . S
H473 C447 0.950 . S
H474 C449 0.950 . S
H475 C452 0.950 1_554 S
H476 C454 0.933 1_655 S
C477 C478 1.443 . S
C477 N481 1.376 . S
C477 C515 1.389 . S
C478 C477 1.443 . S
C478 C479 1.340 . S
C478 H518 0.951 . S
C479 C478 1.340 . S
C479 C480 1.439 . S
C479 H519 0.950 . S
C480 C479 1.439 . S
C480 N481 1.374 . S
C480 C514 1.395 . S
N481 C477 1.376 . S
N481 C480 1.374 . S
N481 Co482 2.008 . S
Co482 N481 2.008 . S
Co482 N483 1.995 . S
Co482 N488 2.008 . S
Co482 N493 1.995 . S
Co482 N498 2.282 . S
Co482 N504 2.282 . S
N483 Co482 1.995 . S
N483 C484 1.376 . S
N483 C487 1.383 . S
C484 N483 1.376 . S
C484 C485 1.446 . S
C484 C514 1.391 . S
C485 C484 1.446 . S
C485 C486 1.339 . S
C485 H520 0.949 . S
C486 C485 1.339 . S
C486 C487 1.439 . S
C486 H521 0.950 . S
C487 N483 1.383 . S
C487 C486 1.439 . S
C487 C516 1.392 . S
N488 Co482 2.008 . S
N488 C489 1.376 . S
N488 C492 1.374 . S
C489 N488 1.376 . S
C489 C490 1.443 . S
C489 C516 1.389 . S
C490 C489 1.443 . S
C490 C491 1.340 . S
C490 H522 0.951 . S
C491 C490 1.340 . S
C491 C492 1.439 . S
C491 H523 0.950 . S
C492 N488 1.374 . S
C492 C491 1.439 . S
C492 C517 1.395 . S
N493 Co482 1.995 . S
N493 C494 1.376 . S
N493 C497 1.383 . S
C494 N493 1.376 . S
C494 C495 1.446 . S
C494 C517 1.391 . S
C495 C494 1.446 . S
C495 C496 1.339 . S
C495 H524 0.949 . S
C496 C495 1.339 . S
C496 C497 1.439 . S
C496 H525 0.950 . S
C497 N493 1.383 . S
C497 C496 1.439 . S
C497 C515 1.392 . S
N498 Co482 2.282 . S
N498 C501 1.332 . S
N498 C503 1.332 . S
C499 C500 1.386 . S
C499 C502 1.388 . S
C500 C499 1.386 . S
C500 C501 1.382 . S
C500 H526 0.950 . S
C501 N498 1.332 . S
C501 C500 1.382 . S
C501 H512 0.952 . S
C502 C499 1.388 . S
C502 C503 1.382 . S
C502 H527 0.950 . S
C503 N498 1.332 . S
C503 C502 1.382 . S
C503 H513 0.948 . S
N504 Co482 2.282 . S
N504 C508 1.332 . S
N504 C509 1.332 . S
C505 C506 1.388 . S
C505 C509 1.382 . S
C505 H528 0.950 . S
C506 C505 1.388 . S
C506 C507 1.386 . S
C507 C506 1.386 . S
C507 C508 1.382 . S
C507 H529 0.950 . S
C508 N504 1.332 . S
C508 C507 1.382 . S
C508 H510 0.952 . S
C509 N504 1.332 . S
C509 C505 1.382 . S
C509 H511 0.948 . S
H510 C508 0.952 . S
H511 C509 0.948 . S
H512 C501 0.952 . S
H513 C503 0.948 . S
C514 C480 1.395 . S
C514 C484 1.391 . S
C515 C477 1.389 . S
C515 C497 1.392 . S
C516 C487 1.392 . S
C516 C489 1.389 . S
C517 C492 1.395 . S
C517 C494 1.391 . S
H518 C478 0.951 . S
H519 C479 0.950 . S
H520 C485 0.949 . S
H521 C486 0.950 . S
H522 C490 0.951 . S
H523 C491 0.950 . S
H524 C495 0.949 . S
H525 C496 0.950 . S
H526 C500 0.950 . S
H527 C502 0.950 . S
H528 C505 0.950 . S
H529 C507 0.950 . S
C530 C531 1.443 . S
C530 N534 1.376 . S
C530 C568 1.389 . S
C531 C530 1.443 . S
C531 C532 1.340 . S
C531 H571 0.951 . S
C532 C531 1.340 . S
C532 C533 1.439 . S
C532 H572 0.950 . S
C533 C532 1.439 . S
C533 N534 1.374 . S
C533 C567 1.395 . S
N534 C530 1.376 . S
N534 C533 1.374 . S
N534 Co535 2.008 . S
Co535 N534 2.008 . S
Co535 N536 1.995 . S
Co535 N541 2.008 . S
Co535 N546 1.995 . S
Co535 N551 2.282 . S
Co535 N557 2.282 . S
N536 Co535 1.995 . S
N536 C537 1.376 . S
N536 C540 1.383 . S
C537 N536 1.376 . S
C537 C538 1.446 . S
C537 C567 1.391 . S
C538 C537 1.446 . S
C538 C539 1.339 . S
C538 H573 0.949 . S
C539 C538 1.339 . S
C539 C540 1.439 . S
C539 H574 0.950 . S
C540 N536 1.383 . S
C540 C539 1.439 . S
C540 C569 1.392 . S
N541 Co535 2.008 . S
N541 C542 1.376 . S
N541 C545 1.374 . S
C542 N541 1.376 . S
C542 C543 1.443 . S
C542 C569 1.389 . S
C543 C542 1.443 . S
C543 C544 1.340 . S
C543 H575 0.951 . S
C544 C543 1.340 . S
C544 C545 1.439 . S
C544 H576 0.950 . S
C545 N541 1.374 . S
C545 C544 1.439 . S
C545 C570 1.395 . S
N546 Co535 1.995 . S
N546 C547 1.376 . S
N546 C550 1.383 . S
C547 N546 1.376 . S
C547 C548 1.446 . S
C547 C570 1.391 . S
C548 C547 1.446 . S
C548 C549 1.339 . S
C548 H577 0.949 . S
C549 C548 1.339 . S
C549 C550 1.439 . S
C549 H578 0.950 . S
C550 N546 1.383 . S
C550 C549 1.439 . S
C550 C568 1.392 . S
N551 Co535 2.282 . S
N551 C554 1.332 . S
N551 C556 1.332 . S
C552 C553 1.386 . S
C552 C555 1.388 . S
C553 C552 1.386 . S
C553 C554 1.382 . S
C553 H579 0.950 . S
C554 N551 1.332 . S
C554 C553 1.382 . S
C554 H565 0.952 . S
C555 C552 1.388 . S
C555 C556 1.382 . S
C555 H580 0.950 . S
C556 N551 1.332 . S
C556 C555 1.382 . S
C556 H566 0.948 . S
N557 Co535 2.282 . S
N557 C561 1.332 . S
N557 C562 1.332 . S
C558 C559 1.388 . S
C558 C562 1.382 . S
C558 H581 0.950 . S
C559 C558 1.388 . S
C559 C560 1.386 . S
C560 C559 1.386 . S
C560 C561 1.382 . S
C560 H582 0.950 . S
C561 N557 1.332 . S
C561 C560 1.382 . S
C561 H563 0.952 . S
C562 N557 1.332 . S
C562 C558 1.382 . S
C562 H564 0.948 . S
H563 C561 0.952 . S
H564 C562 0.948 . S
H565 C554 0.952 . S
H566 C556 0.948 . S
C567 C533 1.395 . S
C567 C537 1.391 . S
C568 C530 1.389 . S
C568 C550 1.392 . S
C569 C540 1.392 . S
C569 C542 1.389 . S
C570 C545 1.395 . S
C570 C547 1.391 . S
H571 C531 0.951 . S
H572 C532 0.950 . S
H573 C538 0.949 . S
H574 C539 0.950 . S
H575 C543 0.951 . S
H576 C544 0.950 . S
H577 C548 0.949 . S
H578 C549 0.950 . S
H579 C553 0.950 . S
H580 C555 0.950 . S
H581 C558 0.950 . S
H582 C560 0.950 . S
C583 C584 1.443 . S
C583 N587 1.376 . S
C583 C621 1.389 . S
C584 C583 1.443 . S
C584 C585 1.340 . S
C584 H624 0.951 . S
C585 C584 1.340 . S
C585 C586 1.439 . S
C585 H625 0.950 . S
C586 C585 1.439 . S
C586 N587 1.374 . S
C586 C620 1.395 . S
N587 C583 1.376 . S
N587 C586 1.374 . S
N587 Co588 2.008 . S
Co588 N587 2.008 . S
Co588 N589 1.995 . S
Co588 N594 2.008 . S
Co588 N599 1.995 . S
Co588 N604 2.282 . S
Co588 N610 2.282 . S
N589 Co588 1.995 . S
N589 C590 1.376 . S
N589 C593 1.383 . S
C590 N589 1.376 . S
C590 C591 1.446 . S
C590 C620 1.391 . S
C591 C590 1.446 . S
C591 C592 1.339 . S
C591 H626 0.949 . S
C592 C591 1.339 . S
C592 C593 1.439 . S
C592 H627 0.950 . S
C593 N589 1.383 . S
C593 C592 1.439 . S
C593 C622 1.392 . S
N594 Co588 2.008 . S
N594 C595 1.376 . S
N594 C598 1.374 . S
C595 N594 1.376 . S
C595 C596 1.443 . S
C595 C622 1.389 . S
C596 C595 1.443 . S
C596 C597 1.340 . S
C596 H628 0.951 . S
C597 C596 1.340 . S
C597 C598 1.439 . S
C597 H629 0.950 . S
C598 N594 1.374 . S
C598 C597 1.439 . S
C598 C623 1.395 . S
N599 Co588 1.995 . S
N599 C600 1.376 . S
N599 C603 1.383 . S
C600 N599 1.376 . S
C600 C601 1.446 . S
C600 C623 1.391 . S
C601 C600 1.446 . S
C601 C602 1.339 . S
C601 H630 0.949 . S
C602 C601 1.339 . S
C602 C603 1.439 . S
C602 H631 0.950 . S
C603 N599 1.383 . S
C603 C602 1.439 . S
C603 C621 1.392 . S
N604 Co588 2.282 . S
N604 C607 1.332 . S
N604 C609 1.332 . S
C605 C606 1.386 . S
C605 C608 1.388 . S
C606 C605 1.386 . S
C606 C607 1.382 . S
C606 H632 0.950 . S
C607 N604 1.332 . S
C607 C606 1.382 . S
C607 H618 0.952 . S
C608 C605 1.388 . S
C608 C609 1.382 . S
C608 H633 0.950 . S
C609 N604 1.332 . S
C609 C608 1.382 . S
C609 H619 0.948 . S
N610 Co588 2.282 . S
N610 C614 1.332 . S
N610 C615 1.332 . S
C611 C612 1.388 . S
C611 C615 1.382 . S
C611 H634 0.950 . S
C612 C611 1.388 . S
C612 C613 1.386 . S
C613 C612 1.386 . S
C613 C614 1.382 . S
C613 H635 0.950 . S
C614 N610 1.332 . S
C614 C613 1.382 . S
C614 H616 0.952 . S
C615 N610 1.332 . S
C615 C611 1.382 . S
C615 H617 0.948 . S
H616 C614 0.952 . S
H617 C615 0.948 . S
H618 C607 0.952 . S
H619 C609 0.948 . S
C620 C586 1.395 . S
C620 C590 1.391 . S
C621 C583 1.389 . S
C621 C603 1.392 . S
C622 C593 1.392 . S
C622 C595 1.389 . S
C623 C598 1.395 . S
C623 C600 1.391 . S
H624 C584 0.951 . S
H625 C585 0.950 . S
H626 C591 0.949 . S
H627 C592 0.950 . S
H628 C596 0.951 . S
H629 C597 0.950 . S
H630 C601 0.949 . S
H631 C602 0.950 . S
H632 C606 0.950 . S
H633 C608 0.950 . S
H634 C611 0.950 . S
H635 C613 0.950 . S
C636 C637 1.443 . S
C636 N640 1.376 . S
C636 C674 1.389 . S
C637 C636 1.443 . S
C637 C638 1.340 . S
C637 H677 0.951 . S
C638 C637 1.340 . S
C638 C639 1.439 . S
C638 H678 0.950 . S
C639 C638 1.439 . S
C639 N640 1.374 . S
C639 C673 1.395 . S
N640 C636 1.376 . S
N640 C639 1.374 . S
N640 Co641 2.008 . S
Co641 N640 2.008 . S
Co641 N642 1.995 . S
Co641 N647 2.008 1_655 S
Co641 N652 1.995 1_655 S
Co641 N657 2.282 . S
Co641 N663 2.282 1_655 S
N642 Co641 1.995 . S
N642 C643 1.376 . S
N642 C646 1.383 . S
C643 N642 1.376 . S
C643 C644 1.446 . S
C643 C673 1.391 . S
C644 C643 1.446 . S
C644 C645 1.339 . S
C644 H679 0.949 . S
C645 C644 1.339 . S
C645 C646 1.439 . S
C645 H680 0.950 . S
C646 N642 1.383 . S
C646 C645 1.439 . S
C646 C675 1.392 . S
N647 Co641 2.008 1_455 S
N647 C648 1.376 . S
N647 C651 1.374 . S
C648 N647 1.376 . S
C648 C649 1.443 . S
C648 C675 1.389 1_455 S
C649 C648 1.443 . S
C649 C650 1.340 . S
C649 H681 0.951 . S
C650 C649 1.340 . S
C650 C651 1.439 . S
C650 H682 0.950 . S
C651 N647 1.374 . S
C651 C650 1.439 . S
C651 C676 1.395 . S
N652 Co641 1.995 1_455 S
N652 C653 1.376 . S
N652 C656 1.383 . S
C653 N652 1.376 . S
C653 C654 1.446 . S
C653 C676 1.391 . S
C654 C653 1.446 . S
C654 C655 1.339 . S
C654 H683 0.949 . S
C655 C654 1.339 . S
C655 C656 1.439 . S
C655 H684 0.950 . S
C656 N652 1.383 . S
C656 C655 1.439 . S
C656 C674 1.392 1_455 S
N657 Co641 2.282 . S
N657 C660 1.332 . S
N657 C662 1.332 . S
C658 C659 1.386 . S
C658 C661 1.388 . S
C659 C658 1.386 . S
C659 C660 1.382 . S
C659 H685 0.950 . S
C660 N657 1.332 . S
C660 C659 1.382 . S
C660 H671 0.952 . S
C661 C658 1.388 . S
C661 C662 1.382 . S
C661 H686 0.950 . S
C662 N657 1.332 . S
C662 C661 1.382 . S
C662 H672 0.948 . S
N663 Co641 2.282 1_455 S
N663 C667 1.332 1_455 S
N663 C668 1.332 . S
C664 C665 1.388 . S
C664 C668 1.382 . S
C664 H687 0.950 . S
C665 C664 1.388 . S
C665 C666 1.414 . S
C666 C665 1.414 . S
C666 C667 1.372 1_455 S
C666 H688 0.933 1_455 S
C667 N663 1.332 1_655 S
C667 C666 1.372 1_655 S
C667 H669 0.952 . S
C668 N663 1.332 . S
C668 C664 1.382 . S
C668 H670 0.948 . S
H669 C667 0.952 . S
H670 C668 0.948 . S
H671 C660 0.952 . S
H672 C662 0.948 . S
C673 C639 1.395 . S
C673 C643 1.391 . S
C674 C636 1.389 . S
C674 C656 1.392 1_655 S
C675 C646 1.392 . S
C675 C648 1.389 1_655 S
C676 C651 1.395 . S
C676 C653 1.391 . S
H677 C637 0.951 . S
H678 C638 0.950 . S
H679 C644 0.949 . S
H680 C645 0.950 . S
H681 C649 0.951 . S
H682 C650 0.950 . S
H683 C654 0.949 . S
H684 C655 0.950 . S
H685 C659 0.950 . S
H686 C661 0.950 . S
H687 C664 0.950 . S
H688 C666 0.933 1_655 S
C689 C690 1.443 . S
C689 N693 1.376 . S
C689 C727 1.389 . S
C690 C689 1.443 . S
C690 C691 1.340 . S
C690 H730 0.951 . S
C691 C690 1.340 . S
C691 C692 1.439 . S
C691 H731 0.950 . S
C692 C691 1.439 . S
C692 N693 1.374 . S
C692 C726 1.395 . S
N693 C689 1.376 . S
N693 C692 1.374 . S
N693 Co694 2.008 . S
Co694 N693 2.008 . S
Co694 N695 1.995 . S
Co694 N700 2.008 . S
Co694 N705 1.995 . S
Co694 N710 2.282 . S
Co694 N716 2.282 . S
N695 Co694 1.995 . S
N695 C696 1.376 . S
N695 C699 1.383 . S
C696 N695 1.376 . S
C696 C697 1.446 . S
C696 C726 1.391 . S
C697 C696 1.446 . S
C697 C698 1.339 . S
C697 H732 0.949 . S
C698 C697 1.339 . S
C698 C699 1.439 . S
C698 H733 0.950 . S
C699 N695 1.383 . S
C699 C698 1.439 . S
C699 C728 1.392 . S
N700 Co694 2.008 . S
N700 C701 1.376 . S
N700 C704 1.374 . S
C701 N700 1.376 . S
C701 C702 1.443 . S
C701 C728 1.389 . S
C702 C701 1.443 . S
C702 C703 1.340 . S
C702 H734 0.951 . S
C703 C702 1.340 . S
C703 C704 1.439 . S
C703 H735 0.950 . S
C704 N700 1.374 . S
C704 C703 1.439 . S
C704 C729 1.395 . S
N705 Co694 1.995 . S
N705 C706 1.376 . S
N705 C709 1.383 . S
C706 N705 1.376 . S
C706 C707 1.446 . S
C706 C729 1.391 . S
C707 C706 1.446 . S
C707 C708 1.339 . S
C707 H736 0.949 . S
C708 C707 1.339 . S
C708 C709 1.439 . S
C708 H737 0.950 . S
C709 N705 1.383 . S
C709 C708 1.439 . S
C709 C727 1.392 . S
N710 Co694 2.282 . S
N710 C713 1.332 . S
N710 C715 1.332 . S
C711 C712 1.386 . S
C711 C714 1.388 . S
C712 C711 1.386 . S
C712 C713 1.382 . S
C712 H738 0.950 . S
C713 N710 1.332 . S
C713 C712 1.382 . S
C713 H724 0.952 . S
C714 C711 1.388 . S
C714 C715 1.382 . S
C714 H739 0.950 . S
C715 N710 1.332 . S
C715 C714 1.382 . S
C715 H725 0.948 . S
N716 Co694 2.282 . S
N716 C720 1.332 . S
N716 C721 1.332 . S
C717 C718 1.388 . S
C717 C721 1.382 . S
C717 H740 0.950 . S
C718 C717 1.388 . S
C718 C719 1.386 . S
C719 C718 1.386 . S
C719 C720 1.382 . S
C719 H741 0.950 . S
C720 N716 1.332 . S
C720 C719 1.382 . S
C720 H722 0.952 . S
C721 N716 1.332 . S
C721 C717 1.382 . S
C721 H723 0.948 . S
H722 C720 0.952 . S
H723 C721 0.948 . S
H724 C713 0.952 . S
H725 C715 0.948 . S
C726 C692 1.395 . S
C726 C696 1.391 . S
C727 C689 1.389 . S
C727 C709 1.392 . S
C728 C699 1.392 . S
C728 C701 1.389 . S
C729 C704 1.395 . S
C729 C706 1.391 . S
H730 C690 0.951 . S
H731 C691 0.950 . S
H732 C697 0.949 . S
H733 C698 0.950 . S
H734 C702 0.951 . S
H735 C703 0.950 . S
H736 C707 0.949 . S
H737 C708 0.950 . S
H738 C712 0.950 . S
H739 C714 0.950 . S
H740 C717 0.950 . S
H741 C719 0.950 . S
C742 C743 1.443 . S
C742 N746 1.376 1_556 S
C742 C780 1.389 . S
C743 C742 1.443 . S
C743 C744 1.340 . S
C743 H783 0.951 . S
C744 C743 1.340 . S
C744 C745 1.439 1_556 S
C744 H784 0.950 . S
C745 C744 1.439 1_554 S
C745 N746 1.374 . S
C745 C779 1.395 . S
N746 C742 1.376 1_554 S
N746 C745 1.374 . S
N746 Co747 2.008 . S
Co747 N746 2.008 . S
Co747 N748 1.995 . S
Co747 N753 2.008 . S
Co747 N758 1.995 . S
Co747 N763 2.282 . S
Co747 N769 2.282 . S
N748 Co747 1.995 . S
N748 C749 1.376 . S
N748 C752 1.383 . S
C749 N748 1.376 . S
C749 C750 1.446 . S
C749 C779 1.391 . S
C750 C749 1.446 . S
C750 C751 1.339 . S
C750 H785 0.949 . S
C751 C750 1.339 . S
C751 C752 1.439 . S
C751 H786 0.950 . S
C752 N748 1.383 . S
C752 C751 1.439 . S
C752 C781 1.392 . S
N753 Co747 2.008 . S
N753 C754 1.376 . S
N753 C757 1.374 . S
C754 N753 1.376 . S
C754 C755 1.443 . S
C754 C781 1.389 . S
C755 C754 1.443 . S
C755 C756 1.340 . S
C755 H787 0.951 . S
C756 C755 1.340 . S
C756 C757 1.439 . S
C756 H788 0.950 . S
C757 N753 1.374 . S
C757 C756 1.439 . S
C757 C782 1.395 . S
N758 Co747 1.995 . S
N758 C759 1.376 . S
N758 C762 1.383 1_554 S
C759 N758 1.376 . S
C759 C760 1.446 1_554 S
C759 C782 1.391 . S
C760 C759 1.446 1_556 S
C760 C761 1.339 . S
C760 H789 0.949 . S
C761 C760 1.339 . S
C761 C762 1.439 . S
C761 H790 0.950 . S
C762 N758 1.383 1_556 S
C762 C761 1.439 . S
C762 C780 1.392 . S
N763 Co747 2.282 . S
N763 C766 1.332 . S
N763 C768 1.332 . S
C764 C765 1.386 . S
C764 C767 1.388 . S
C765 C764 1.386 . S
C765 C766 1.382 . S
C765 H791 0.950 . S
C766 N763 1.332 . S
C766 C765 1.382 . S
C766 H777 0.952 . S
C767 C764 1.388 . S
C767 C768 1.382 . S
C767 H792 0.950 . S
C768 N763 1.332 . S
C768 C767 1.382 . S
C768 H778 0.948 . S
N769 Co747 2.282 . S
N769 C773 1.332 . S
N769 C774 1.332 . S
C770 C771 1.388 . S
C770 C774 1.382 . S
C770 H793 0.950 1_554 S
C771 C770 1.388 . S
C771 C772 1.386 . S
C772 C771 1.386 . S
C772 C773 1.382 . S
C772 H794 0.950 . S
C773 N769 1.332 . S
C773 C772 1.382 . S
C773 H775 0.952 . S
C774 N769 1.332 . S
C774 C770 1.382 . S
C774 H776 0.948 . S
H775 C773 0.952 . S
H776 C774 0.948 . S
H777 C766 0.952 . S
H778 C768 0.948 . S
C779 C745 1.395 . S
C779 C749 1.391 . S
C780 C742 1.389 . S
C780 C762 1.392 . S
C781 C752 1.392 . S
C781 C754 1.389 . S
C782 C757 1.395 . S
C782 C759 1.391 . S
H783 C743 0.951 . S
H784 C744 0.950 . S
H785 C750 0.949 . S
H786 C751 0.950 . S
H787 C755 0.951 . S
H788 C756 0.950 . S
H789 C760 0.949 . S
H790 C761 0.950 . S
H791 C765 0.950 . S
H792 C767 0.950 . S
H793 C770 0.950 1_556 S
H794 C772 0.950 . S
C795 C796 1.443 . S
C795 N799 1.376 . S
C795 C833 1.389 . S
C796 C795 1.443 . S
C796 C797 1.340 . S
C796 H836 0.951 . S
C797 C796 1.340 . S
C797 C798 1.439 . S
C797 H837 0.950 . S
C798 C797 1.439 . S
C798 N799 1.374 . S
C798 C832 1.395 . S
N799 C795 1.376 . S
N799 C798 1.374 . S
N799 Co800 2.008 . S
Co800 N799 2.008 . S
Co800 N801 1.995 . S
Co800 N806 2.008 . S
Co800 N811 1.995 . S
Co800 N816 2.282 . S
Co800 N822 2.282 . S
N801 Co800 1.995 . S
N801 C802 1.376 . S
N801 C805 1.383 . S
C802 N801 1.376 . S
C802 C803 1.446 . S
C802 C832 1.391 . S
C803 C802 1.446 . S
C803 C804 1.339 . S
C803 H838 0.949 . S
C804 C803 1.339 . S
C804 C805 1.439 . S
C804 H839 0.950 . S
C805 N801 1.383 . S
C805 C804 1.439 . S
C805 C834 1.392 . S
N806 Co800 2.008 . S
N806 C807 1.376 . S
N806 C810 1.374 . S
C807 N806 1.376 . S
C807 C808 1.443 . S
C807 C834 1.389 . S
C808 C807 1.443 . S
C808 C809 1.340 . S
C808 H840 0.951 . S
C809 C808 1.340 . S
C809 C810 1.439 . S
C809 H841 0.950 . S
C810 N806 1.374 . S
C810 C809 1.439 . S
C810 C835 1.395 . S
N811 Co800 1.995 . S
N811 C812 1.376 . S
N811 C815 1.383 . S
C812 N811 1.376 . S
C812 C813 1.446 . S
C812 C835 1.391 . S
C813 C812 1.446 . S
C813 C814 1.339 . S
C813 H842 0.949 . S
C814 C813 1.339 . S
C814 C815 1.439 . S
C814 H843 0.950 . S
C815 N811 1.383 . S
C815 C814 1.439 . S
C815 C833 1.392 . S
N816 Co800 2.282 . S
N816 C819 1.332 . S
N816 C821 1.332 . S
C817 C818 1.386 . S
C817 C820 1.388 . S
C818 C817 1.386 . S
C818 C819 1.382 . S
C818 H844 0.950 . S
C819 N816 1.332 . S
C819 C818 1.382 . S
C819 H830 0.952 . S
C820 C817 1.388 . S
C820 C821 1.382 . S
C820 H845 0.950 . S
C821 N816 1.332 . S
C821 C820 1.382 . S
C821 H831 0.948 . S
N822 Co800 2.282 . S
N822 C826 1.332 . S
N822 C827 1.332 . S
C823 C824 1.388 . S
C823 C827 1.382 . S
C823 H846 0.950 . S
C824 C823 1.388 . S
C824 C825 1.386 . S
C825 C824 1.386 . S
C825 C826 1.382 . S
C825 H847 0.950 . S
C826 N822 1.332 . S
C826 C825 1.382 . S
C826 H828 0.952 . S
C827 N822 1.332 . S
C827 C823 1.382 . S
C827 H829 0.948 . S
H828 C826 0.952 . S
H829 C827 0.948 . S
H830 C819 0.952 . S
H831 C821 0.948 . S
C832 C798 1.395 . S
C832 C802 1.391 . S
C833 C795 1.389 . S
C833 C815 1.392 . S
C834 C805 1.392 . S
C834 C807 1.389 . S
C835 C810 1.395 . S
C835 C812 1.391 . S
H836 C796 0.951 . S
H837 C797 0.950 . S
H838 C803 0.949 . S
H839 C804 0.950 . S
H840 C808 0.951 . S
H841 C809 0.950 . S
H842 C813 0.949 . S
H843 C814 0.950 . S
H844 C818 0.950 . S
H845 C820 0.950 . S
H846 C823 0.950 . S
H847 C825 0.950 . S
C848 C849 1.443 . S
C848 N852 1.376 . S
C848 C886 1.389 . S
C849 C848 1.443 . S
C849 C850 1.340 . S
C849 H889 0.951 . S
C850 C849 1.340 . S
C850 C851 1.439 . S
C850 H890 0.950 . S
C851 C850 1.439 . S
C851 N852 1.374 . S
C851 C885 1.395 . S
N852 C848 1.376 . S
N852 C851 1.374 . S
N852 Co853 2.008 . S
Co853 N852 2.008 . S
Co853 N854 1.995 . S
Co853 N859 2.008 . S
Co853 N864 1.995 . S
Co853 N869 2.282 . S
Co853 N875 2.282 . S
N854 Co853 1.995 . S
N854 C855 1.376 . S
N854 C858 1.383 . S
C855 N854 1.376 . S
C855 C856 1.446 . S
C855 C885 1.391 . S
C856 C855 1.446 . S
C856 C857 1.339 . S
C856 H891 0.949 . S
C857 C856 1.339 . S
C857 C858 1.439 . S
C857 H892 0.950 . S
C858 N854 1.383 . S
C858 C857 1.439 . S
C858 C887 1.392 . S
N859 Co853 2.008 . S
N859 C860 1.376 . S
N859 C863 1.374 . S
C860 N859 1.376 . S
C860 C861 1.443 . S
C860 C887 1.389 . S
C861 C860 1.443 . S
C861 C862 1.340 . S
C861 H893 0.951 . S
C862 C861 1.340 . S
C862 C863 1.439 . S
C862 H894 0.950 . S
C863 N859 1.374 . S
C863 C862 1.439 . S
C863 C888 1.395 . S
N864 Co853 1.995 . S
N864 C865 1.376 . S
N864 C868 1.383 . S
C865 N864 1.376 . S
C865 C866 1.446 . S
C865 C888 1.391 . S
C866 C865 1.446 . S
C866 C867 1.339 . S
C866 H895 0.949 . S
C867 C866 1.339 . S
C867 C868 1.439 . S
C867 H896 0.950 . S
C868 N864 1.383 . S
C868 C867 1.439 . S
C868 C886 1.392 . S
N869 Co853 2.282 . S
N869 C872 1.332 . S
N869 C874 1.332 . S
C870 C871 1.386 . S
C870 C873 1.388 . S
C871 C870 1.386 . S
C871 C872 1.382 . S
C871 H897 0.950 . S
C872 N869 1.332 . S
C872 C871 1.382 . S
C872 H883 0.952 . S
C873 C870 1.388 . S
C873 C874 1.382 . S
C873 H898 0.950 . S
C874 N869 1.332 . S
C874 C873 1.382 . S
C874 H884 0.948 . S
N875 Co853 2.282 . S
N875 C879 1.332 . S
N875 C880 1.332 . S
C876 C877 1.388 . S
C876 C880 1.382 . S
C876 H899 0.950 . S
C877 C876 1.388 . S
C877 C878 1.386 . S
C878 C877 1.386 . S
C878 C879 1.382 . S
C878 H900 0.950 . S
C879 N875 1.332 . S
C879 C878 1.382 . S
C879 H881 0.952 . S
C880 N875 1.332 . S
C880 C876 1.382 . S
C880 H882 0.948 . S
H881 C879 0.952 . S
H882 C880 0.948 . S
H883 C872 0.952 . S
H884 C874 0.948 . S
C885 C851 1.395 . S
C885 C855 1.391 . S
C886 C848 1.389 . S
C886 C868 1.392 . S
C887 C858 1.392 . S
C887 C860 1.389 . S
C888 C863 1.395 . S
C888 C865 1.391 . S
H889 C849 0.951 . S
H890 C850 0.950 . S
H891 C856 0.949 . S
H892 C857 0.950 . S
H893 C861 0.951 . S
H894 C862 0.950 . S
H895 C866 0.949 . S
H896 C867 0.950 . S
H897 C871 0.950 . S
H898 C873 0.950 . S
H899 C876 0.950 . S
H900 C878 0.950 . S
C901 C902 1.443 . S
C901 N905 1.376 . S
C901 C939 1.389 . S
C902 C901 1.443 . S
C902 C903 1.340 . S
C902 H942 0.951 . S
C903 C902 1.340 . S
C903 C904 1.439 . S
C903 H943 0.950 . S
C904 C903 1.439 . S
C904 N905 1.374 . S
C904 C938 1.395 . S
N905 C901 1.376 . S
N905 C904 1.374 . S
N905 Co906 2.008 . S
Co906 N905 2.008 . S
Co906 N907 1.995 . S
Co906 N912 2.008 . S
Co906 N917 1.995 . S
Co906 N922 2.282 . S
Co906 N928 2.282 . S
N907 Co906 1.995 . S
N907 C908 1.376 . S
N907 C911 1.383 . S
C908 N907 1.376 . S
C908 C909 1.446 . S
C908 C938 1.391 . S
C909 C908 1.446 . S
C909 C910 1.339 . S
C909 H944 0.949 . S
C910 C909 1.339 . S
C910 C911 1.439 . S
C910 H945 0.950 . S
C911 N907 1.383 . S
C911 C910 1.439 . S
C911 C940 1.392 . S
N912 Co906 2.008 . S
N912 C913 1.376 . S
N912 C916 1.374 . S
C913 N912 1.376 . S
C913 C914 1.443 . S
C913 C940 1.389 . S
C914 C913 1.443 . S
C914 C915 1.340 . S
C914 H946 0.951 . S
C915 C914 1.340 . S
C915 C916 1.439 . S
C915 H947 0.950 . S
C916 N912 1.374 . S
C916 C915 1.439 . S
C916 C941 1.395 . S
N917 Co906 1.995 . S
N917 C918 1.376 . S
N917 C921 1.383 . S
C918 N917 1.376 . S
C918 C919 1.446 . S
C918 C941 1.391 . S
C919 C918 1.446 . S
C919 C920 1.339 . S
C919 H948 0.949 . S
C920 C919 1.339 . S
C920 C921 1.439 . S
C920 H949 0.950 . S
C921 N917 1.383 . S
C921 C920 1.439 . S
C921 C939 1.392 . S
N922 Co906 2.282 . S
N922 C925 1.332 . S
N922 C927 1.332 . S
C923 C924 1.386 . S
C923 C926 1.388 . S
C924 C923 1.386 . S
C924 C925 1.382 . S
C924 H950 0.950 . S
C925 N922 1.332 . S
C925 C924 1.382 . S
C925 H936 0.952 . S
C926 C923 1.388 . S
C926 C927 1.382 . S
C926 H951 0.950 . S
C927 N922 1.332 . S
C927 C926 1.382 . S
C927 H937 0.948 . S
N928 Co906 2.282 . S
N928 C932 1.332 . S
N928 C933 1.332 . S
C929 C930 1.388 . S
C929 C933 1.382 . S
C929 H952 0.950 . S
C930 C929 1.388 . S
C930 C931 1.386 . S
C931 C930 1.386 . S
C931 C932 1.382 . S
C931 H953 0.950 . S
C932 N928 1.332 . S
C932 C931 1.382 . S
C932 H934 0.952 . S
C933 N928 1.332 . S
C933 C929 1.382 . S
C933 H935 0.948 . S
H934 C932 0.952 . S
H935 C933 0.948 . S
H936 C925 0.952 . S
H937 C927 0.948 . S
C938 C904 1.395 . S
C938 C908 1.391 . S
C939 C901 1.389 . S
C939 C921 1.392 . S
C940 C911 1.392 . S
C940 C913 1.389 . S
C941 C916 1.395 . S
C941 C918 1.391 . S
H942 C902 0.951 . S
H943 C903 0.950 . S
H944 C909 0.949 . S
H945 C910 0.950 . S
H946 C914 0.951 . S
H947 C915 0.950 . S
H948 C919 0.949 . S
H949 C920 0.950 . S
H950 C924 0.950 . S
H951 C926 0.950 . S
H952 C929 0.950 . S
H953 C931 0.950 . S
C954 C955 1.443 . S
C954 N958 1.376 1_556 S
C954 C992 1.389 1_455 S
C955 C954 1.443 . S
C955 C956 1.340 . S
C955 H995 0.951 . S
C956 C955 1.340 . S
C956 C957 1.439 1_556 S
C956 H996 0.950 . S
C957 C956 1.439 1_554 S
C957 N958 1.374 . S
C957 C991 1.395 . S
N958 C954 1.376 1_554 S
N958 C957 1.374 . S
N958 Co959 2.008 1_455 S
Co959 N958 2.008 1_655 S
Co959 N960 1.995 1_655 S
Co959 N965 2.008 . S
Co959 N970 1.995 . S
Co959 N975 2.282 . S
Co959 N981 2.282 1_655 S
N960 Co959 1.995 1_455 S
N960 C961 1.376 . S
N960 C964 1.383 . S
C961 N960 1.376 . S
C961 C962 1.446 . S
C961 C991 1.391 . S
C962 C961 1.446 . S
C962 C963 1.339 . S
C962 H997 0.949 . S
C963 C962 1.339 . S
C963 C964 1.439 . S
C963 H998 0.950 . S
C964 N960 1.383 . S
C964 C963 1.439 . S
C964 C993 1.392 1_455 S
N965 Co959 2.008 . S
N965 C966 1.376 . S
N965 C969 1.374 . S
C966 N965 1.376 . S
C966 C967 1.443 . S
C966 C993 1.389 . S
C967 C966 1.443 . S
C967 C968 1.340 . S
C967 H999 0.951 . S
C968 C967 1.340 . S
C968 C969 1.439 . S
C968 H1000 0.950 . S
C969 N965 1.374 . S
C969 C968 1.439 . S
C969 C994 1.395 . S
N970 Co959 1.995 . S
N970 C971 1.376 . S
N970 C974 1.383 1_554 S
C971 N970 1.376 . S
C971 C972 1.446 1_554 S
C971 C994 1.391 . S
C972 C971 1.446 1_556 S
C972 C973 1.339 . S
C972 H1001 0.949 . S
C973 C972 1.339 . S
C973 C974 1.439 . S
C973 H1002 0.950 . S
C974 N970 1.383 1_556 S
C974 C973 1.439 . S
C974 C992 1.392 . S
N975 Co959 2.282 . S
N975 C978 1.332 . S
N975 C980 1.332 . S
C976 C977 1.386 . S
C976 C979 1.388 . S
C977 C976 1.386 . S
C977 C978 1.382 . S
C977 H1003 0.950 . S
C978 N975 1.332 . S
C978 C977 1.382 . S
C978 H989 0.952 . S
C979 C976 1.388 . S
C979 C980 1.382 . S
C979 H1004 0.950 . S
C980 N975 1.332 . S
C980 C979 1.382 . S
C980 H990 0.929 1_655 S
N981 Co959 2.282 1_455 S
N981 C985 1.332 . S
N981 C986 1.332 1_455 S
C982 C983 1.388 1_655 S
C982 C986 1.382 . S
C982 H1005 0.950 1_554 S
C983 C982 1.388 1_455 S
C983 C984 1.386 . S
C984 C983 1.386 . S
C984 C985 1.382 . S
C984 H1006 0.950 . S
C985 N981 1.332 . S
C985 C984 1.382 . S
C985 H987 0.952 . S
C986 N981 1.332 1_655 S
C986 C982 1.382 . S
C986 H988 0.948 . S
H987 C985 0.952 . S
H988 C986 0.948 . S
H989 C978 0.952 . S
H990 C980 0.929 1_455 S
C991 C957 1.395 . S
C991 C961 1.391 . S
C992 C954 1.389 1_655 S
C992 C974 1.392 . S
C993 C964 1.392 1_655 S
C993 C966 1.389 . S
C994 C969 1.395 . S
C994 C971 1.391 . S
H995 C955 0.951 . S
H996 C956 0.950 . S
H997 C962 0.949 . S
H998 C963 0.950 . S
H999 C967 0.951 . S
H1000 C968 0.950 . S
H1001 C972 0.949 . S
H1002 C973 0.950 . S
H1003 C977 0.950 . S
H1004 C979 0.950 . S
H1005 C982 0.950 1_556 S
H1006 C984 0.950 . S
C1007 C1008 1.443 . S
C1007 N1011 1.376 . S
C1007 C1045 1.389 . S
C1008 C1007 1.443 . S
C1008 C1009 1.340 . S
C1008 H1048 0.951 . S
C1009 C1008 1.340 . S
C1009 C1010 1.439 . S
C1009 H1049 0.950 . S
C1010 C1009 1.439 . S
C1010 N1011 1.374 . S
C1010 C1044 1.395 . S
N1011 C1007 1.376 . S
N1011 C1010 1.374 . S
N1011 Co1012 2.008 . S
Co1012 N1011 2.008 . S
Co1012 N1013 1.995 . S
Co1012 N1018 2.008 . S
Co1012 N1023 1.995 . S
Co1012 N1028 2.282 . S
Co1012 N1034 2.282 . S
N1013 Co1012 1.995 . S
N1013 C1014 1.376 . S
N1013 C1017 1.383 . S
C1014 N1013 1.376 . S
C1014 C1015 1.446 . S
C1014 C1044 1.391 . S
C1015 C1014 1.446 . S
C1015 C1016 1.339 . S
C1015 H1050 0.949 . S
C1016 C1015 1.339 . S
C1016 C1017 1.439 . S
C1016 H1051 0.950 . S
C1017 N1013 1.383 . S
C1017 C1016 1.439 . S
C1017 C1046 1.392 . S
N1018 Co1012 2.008 . S
N1018 C1019 1.376 . S
N1018 C1022 1.374 . S
C1019 N1018 1.376 . S
C1019 C1020 1.443 . S
C1019 C1046 1.389 . S
C1020 C1019 1.443 . S
C1020 C1021 1.340 . S
C1020 H1052 0.951 . S
C1021 C1020 1.340 . S
C1021 C1022 1.439 . S
C1021 H1053 0.950 . S
C1022 N1018 1.374 . S
C1022 C1021 1.439 . S
C1022 C1047 1.395 . S
N1023 Co1012 1.995 . S
N1023 C1024 1.376 . S
N1023 C1027 1.383 . S
C1024 N1023 1.376 . S
C1024 C1025 1.446 . S
C1024 C1047 1.391 . S
C1025 C1024 1.446 . S
C1025 C1026 1.339 . S
C1025 H1054 0.949 . S
C1026 C1025 1.339 . S
C1026 C1027 1.439 . S
C1026 H1055 0.950 . S
C1027 N1023 1.383 . S
C1027 C1026 1.439 . S
C1027 C1045 1.392 . S
N1028 Co1012 2.282 . S
N1028 C1031 1.332 . S
N1028 C1033 1.332 . S
C1029 C1030 1.386 . S
C1029 C1032 1.388 . S
C1030 C1029 1.386 . S
C1030 C1031 1.382 . S
C1030 H1056 0.950 . S
C1031 N1028 1.332 . S
C1031 C1030 1.382 . S
C1031 H1042 0.952 . S
C1032 C1029 1.388 . S
C1032 C1033 1.382 . S
C1032 H1057 0.950 . S
C1033 N1028 1.332 . S
C1033 C1032 1.382 . S
C1033 H1043 0.948 . S
N1034 Co1012 2.282 . S
N1034 C1038 1.332 . S
N1034 C1039 1.332 . S
C1035 C1036 1.388 . S
C1035 C1039 1.382 . S
C1035 H1058 0.950 . S
C1036 C1035 1.388 . S
C1036 C1037 1.386 . S
C1037 C1036 1.386 . S
C1037 C1038 1.382 . S
C1037 H1059 0.950 . S
C1038 N1034 1.332 . S
C1038 C1037 1.382 . S
C1038 H1040 0.952 . S
C1039 N1034 1.332 . S
C1039 C1035 1.382 . S
C1039 H1041 0.948 . S
H1040 C1038 0.952 . S
H1041 C1039 0.948 . S
H1042 C1031 0.952 . S
H1043 C1033 0.948 . S
C1044 C1010 1.395 . S
C1044 C1014 1.391 . S
C1045 C1007 1.389 . S
C1045 C1027 1.392 . S
C1046 C1017 1.392 . S
C1046 C1019 1.389 . S
C1047 C1022 1.395 . S
C1047 C1024 1.391 . S
H1048 C1008 0.951 . S
H1049 C1009 0.950 . S
H1050 C1015 0.949 . S
H1051 C1016 0.950 . S
H1052 C1020 0.951 . S
H1053 C1021 0.950 . S
H1054 C1025 0.949 . S
H1055 C1026 0.950 . S
H1056 C1030 0.950 . S
H1057 C1032 0.950 . S
H1058 C1035 0.950 . S
H1059 C1037 0.950 . S
C1060 C1061 1.443 . S
C1060 N1064 1.376 1_554 S
C1060 C1098 1.389 . S
C1061 C1060 1.443 . S
C1061 C1062 1.340 . S
C1061 H1101 0.951 . S
C1062 C1061 1.340 . S
C1062 C1063 1.439 1_554 S
C1062 H1102 0.950 . S
C1063 C1062 1.439 1_556 S
C1063 N1064 1.374 . S
C1063 C1097 1.395 . S
N1064 C1060 1.376 1_556 S
N1064 C1063 1.374 . S
N1064 Co1065 2.008 . S
Co1065 N1064 2.008 . S
Co1065 N1066 1.995 . S
Co1065 N1071 2.008 . S
Co1065 N1076 1.995 . S
Co1065 N1081 2.282 . S
Co1065 N1087 2.282 . S
N1066 Co1065 1.995 . S
N1066 C1067 1.376 . S
N1066 C1070 1.383 . S
C1067 N1066 1.376 . S
C1067 C1068 1.446 . S
C1067 C1097 1.391 . S
C1068 C1067 1.446 . S
C1068 C1069 1.339 . S
C1068 H1103 0.949 . S
C1069 C1068 1.339 . S
C1069 C1070 1.439 . S
C1069 H1104 0.950 . S
C1070 N1066 1.383 . S
C1070 C1069 1.439 . S
C1070 C1099 1.392 . S
N1071 Co1065 2.008 . S
N1071 C1072 1.376 . S
N1071 C1075 1.374 . S
C1072 N1071 1.376 . S
C1072 C1073 1.443 . S
C1072 C1099 1.389 . S
C1073 C1072 1.443 . S
C1073 C1074 1.340 . S
C1073 H1105 0.951 . S
C1074 C1073 1.340 . S
C1074 C1075 1.439 . S
C1074 H1106 0.950 . S
C1075 N1071 1.374 . S
C1075 C1074 1.439 . S
C1075 C1100 1.395 . S
N1076 Co1065 1.995 . S
N1076 C1077 1.376 . S
N1076 C1080 1.383 1_556 S
C1077 N1076 1.376 . S
C1077 C1078 1.446 1_556 S
C1077 C1100 1.391 . S
C1078 C1077 1.446 1_554 S
C1078 C1079 1.339 . S
C1078 H1107 0.949 . S
C1079 C1078 1.339 . S
C1079 C1080 1.439 . S
C1079 H1108 0.950 . S
C1080 N1076 1.383 1_554 S
C1080 C1079 1.439 . S
C1080 C1098 1.392 . S
N1081 Co1065 2.282 . S
N1081 C1084 1.332 . S
N1081 C1086 1.332 . S
C1082 C1083 1.386 . S
C1082 C1085 1.388 . S
C1083 C1082 1.386 . S
C1083 C1084 1.382 . S
C1083 H1109 0.950 . S
C1084 N1081 1.332 . S
C1084 C1083 1.382 . S
C1084 H1095 0.952 . S
C1085 C1082 1.388 . S
C1085 C1086 1.382 . S
C1085 H1110 0.950 . S
C1086 N1081 1.332 . S
C1086 C1085 1.382 . S
C1086 H1096 0.948 . S
N1087 Co1065 2.282 . S
N1087 C1091 1.332 . S
N1087 C1092 1.332 . S
C1088 C1089 1.388 . S
C1088 C1092 1.382 . S
C1088 H1111 0.950 1_556 S
C1089 C1088 1.388 . S
C1089 C1090 1.386 . S
C1090 C1089 1.386 . S
C1090 C1091 1.382 . S
C1090 H1112 0.950 . S
C1091 N1087 1.332 . S
C1091 C1090 1.382 . S
C1091 H1093 0.952 . S
C1092 N1087 1.332 . S
C1092 C1088 1.382 . S
C1092 H1094 0.948 . S
H1093 C1091 0.952 . S
H1094 C1092 0.948 . S
H1095 C1084 0.952 . S
H1096 C1086 0.948 . S
C1097 C1063 1.395 . S
C1097 C1067 1.391 . S
C1098 C1060 1.389 . S
C1098 C1080 1.392 . S
C1099 C1070 1.392 . S
C1099 C1072 1.389 . S
C1100 C1075 1.395 . S
C1100 C1077 1.391 . S
H1101 C1061 0.951 . S
H1102 C1062 0.950 . S
H1103 C1068 0.949 . S
H1104 C1069 0.950 . S
H1105 C1073 0.951 . S
H1106 C1074 0.950 . S
H1107 C1078 0.949 . S
H1108 C1079 0.950 . S
H1109 C1083 0.950 . S
H1110 C1085 0.950 . S
H1111 C1088 0.950 1_554 S
H1112 C1090 0.950 . S
C1113 C1114 1.443 . S
C1113 N1117 1.376 . S
C1113 C1151 1.389 . S
C1114 C1113 1.443 . S
C1114 C1115 1.340 . S
C1114 H1154 0.951 . S
C1115 C1114 1.340 . S
C1115 C1116 1.439 . S
C1115 H1155 0.950 . S
C1116 C1115 1.439 . S
C1116 N1117 1.374 . S
C1116 C1150 1.395 . S
N1117 C1113 1.376 . S
N1117 C1116 1.374 . S
N1117 Co1118 2.008 . S
Co1118 N1117 2.008 . S
Co1118 N1119 1.995 . S
Co1118 N1124 2.008 . S
Co1118 N1129 1.995 . S
Co1118 N1134 2.282 . S
Co1118 N1140 2.282 . S
N1119 Co1118 1.995 . S
N1119 C1120 1.376 . S
N1119 C1123 1.383 . S
C1120 N1119 1.376 . S
C1120 C1121 1.446 . S
C1120 C1150 1.391 . S
C1121 C1120 1.446 . S
C1121 C1122 1.339 . S
C1121 H1156 0.949 . S
C1122 C1121 1.339 . S
C1122 C1123 1.439 . S
C1122 H1157 0.950 . S
C1123 N1119 1.383 . S
C1123 C1122 1.439 . S
C1123 C1152 1.392 . S
N1124 Co1118 2.008 . S
N1124 C1125 1.376 . S
N1124 C1128 1.374 . S
C1125 N1124 1.376 . S
C1125 C1126 1.443 . S
C1125 C1152 1.389 . S
C1126 C1125 1.443 . S
C1126 C1127 1.340 . S
C1126 H1158 0.951 . S
C1127 C1126 1.340 . S
C1127 C1128 1.439 . S
C1127 H1159 0.950 . S
C1128 N1124 1.374 . S
C1128 C1127 1.439 . S
C1128 C1153 1.395 . S
N1129 Co1118 1.995 . S
N1129 C1130 1.376 . S
N1129 C1133 1.383 . S
C1130 N1129 1.376 . S
C1130 C1131 1.446 . S
C1130 C1153 1.391 . S
C1131 C1130 1.446 . S
C1131 C1132 1.339 . S
C1131 H1160 0.949 . S
C1132 C1131 1.339 . S
C1132 C1133 1.439 . S
C1132 H1161 0.950 . S
C1133 N1129 1.383 . S
C1133 C1132 1.439 . S
C1133 C1151 1.392 . S
N1134 Co1118 2.282 . S
N1134 C1137 1.332 . S
N1134 C1139 1.332 . S
C1135 C1136 1.386 . S
C1135 C1138 1.388 . S
C1136 C1135 1.386 . S
C1136 C1137 1.382 . S
C1136 H1162 0.950 . S
C1137 N1134 1.332 . S
C1137 C1136 1.382 . S
C1137 H1148 0.952 . S
C1138 C1135 1.388 . S
C1138 C1139 1.382 . S
C1138 H1163 0.950 . S
C1139 N1134 1.332 . S
C1139 C1138 1.382 . S
C1139 H1149 0.948 . S
N1140 Co1118 2.282 . S
N1140 C1144 1.332 . S
N1140 C1145 1.332 . S
C1141 C1142 1.388 . S
C1141 C1145 1.382 . S
C1141 H1164 0.950 . S
C1142 C1141 1.388 . S
C1142 C1143 1.386 . S
C1143 C1142 1.386 . S
C1143 C1144 1.382 . S
C1143 H1165 0.950 . S
C1144 N1140 1.332 . S
C1144 C1143 1.382 . S
C1144 H1146 0.952 . S
C1145 N1140 1.332 . S
C1145 C1141 1.382 . S
C1145 H1147 0.948 . S
H1146 C1144 0.952 . S
H1147 C1145 0.948 . S
H1148 C1137 0.952 . S
H1149 C1139 0.948 . S
C1150 C1116 1.395 . S
C1150 C1120 1.391 . S
C1151 C1113 1.389 . S
C1151 C1133 1.392 . S
C1152 C1123 1.392 . S
C1152 C1125 1.389 . S
C1153 C1128 1.395 . S
C1153 C1130 1.391 . S
H1154 C1114 0.951 . S
H1155 C1115 0.950 . S
H1156 C1121 0.949 . S
H1157 C1122 0.950 . S
H1158 C1126 0.951 . S
H1159 C1127 0.950 . S
H1160 C1131 0.949 . S
H1161 C1132 0.950 . S
H1162 C1136 0.950 . S
H1163 C1138 0.950 . S
H1164 C1141 0.950 . S
H1165 C1143 0.950 . S
C1166 C1167 1.443 . S
C1166 N1170 1.376 . S
C1166 C1204 1.389 1_455 S
C1167 C1166 1.443 . S
C1167 C1168 1.340 . S
C1167 H1207 0.951 . S
C1168 C1167 1.340 . S
C1168 C1169 1.439 . S
C1168 H1208 0.950 . S
C1169 C1168 1.439 . S
C1169 N1170 1.374 . S
C1169 C1203 1.395 . S
N1170 C1166 1.376 . S
N1170 C1169 1.374 . S
N1170 Co1171 2.008 1_455 S
Co1171 N1170 2.008 1_655 S
Co1171 N1172 1.995 1_655 S
Co1171 N1177 2.008 . S
Co1171 N1182 1.995 . S
Co1171 N1187 2.282 . S
Co1171 N1193 2.282 1_655 S
N1172 Co1171 1.995 1_455 S
N1172 C1173 1.376 . S
N1172 C1176 1.383 . S
C1173 N1172 1.376 . S
C1173 C1174 1.446 . S
C1173 C1203 1.391 . S
C1174 C1173 1.446 . S
C1174 C1175 1.339 . S
C1174 H1209 0.949 . S
C1175 C1174 1.339 . S
C1175 C1176 1.439 . S
C1175 H1210 0.950 . S
C1176 N1172 1.383 . S
C1176 C1175 1.439 . S
C1176 C1205 1.392 1_455 S
N1177 Co1171 2.008 . S
N1177 C1178 1.376 . S
N1177 C1181 1.374 . S
C1178 N1177 1.376 . S
C1178 C1179 1.443 . S
C1178 C1205 1.389 . S
C1179 C1178 1.443 . S
C1179 C1180 1.340 . S
C1179 H1211 0.951 . S
C1180 C1179 1.340 . S
C1180 C1181 1.439 . S
C1180 H1212 0.950 . S
C1181 N1177 1.374 . S
C1181 C1180 1.439 . S
C1181 C1206 1.395 . S
N1182 Co1171 1.995 . S
N1182 C1183 1.376 . S
N1182 C1186 1.383 . S
C1183 N1182 1.376 . S
C1183 C1184 1.446 . S
C1183 C1206 1.391 . S
C1184 C1183 1.446 . S
C1184 C1185 1.339 . S
C1184 H1213 0.949 . S
C1185 C1184 1.339 . S
C1185 C1186 1.439 . S
C1185 H1214 0.950 . S
C1186 N1182 1.383 . S
C1186 C1185 1.439 . S
C1186 C1204 1.392 . S
N1187 Co1171 2.282 . S
N1187 C1190 1.332 . S
N1187 C1192 1.332 . S
C1188 C1189 1.386 . S
C1188 C1191 1.388 . S
C1189 C1188 1.386 . S
C1189 C1190 1.382 . S
C1189 H1215 0.950 . S
C1190 N1187 1.332 . S
C1190 C1189 1.382 . S
C1190 H1201 0.952 . S
C1191 C1188 1.388 . S
C1191 C1192 1.382 . S
C1191 H1216 0.950 . S
C1192 N1187 1.332 . S
C1192 C1191 1.382 . S
C1192 H1202 0.929 1_655 S
N1193 Co1171 2.282 1_455 S
N1193 C1197 1.332 . S
N1193 C1198 1.332 1_455 S
C1194 C1195 1.388 1_655 S
C1194 C1198 1.382 . S
C1194 H1217 0.950 . S
C1195 C1194 1.388 1_455 S
C1195 C1196 1.386 . S
C1196 C1195 1.386 . S
C1196 C1197 1.382 . S
C1196 H1218 0.950 . S
C1197 N1193 1.332 . S
C1197 C1196 1.382 . S
C1197 H1199 0.952 . S
C1198 N1193 1.332 1_655 S
C1198 C1194 1.382 . S
C1198 H1200 0.948 . S
H1199 C1197 0.952 . S
H1200 C1198 0.948 . S
H1201 C1190 0.952 . S
H1202 C1192 0.929 1_455 S
C1203 C1169 1.395 . S
C1203 C1173 1.391 . S
C1204 C1166 1.389 1_655 S
C1204 C1186 1.392 . S
C1205 C1176 1.392 1_655 S
C1205 C1178 1.389 . S
C1206 C1181 1.395 . S
C1206 C1183 1.391 . S
H1207 C1167 0.951 . S
H1208 C1168 0.950 . S
H1209 C1174 0.949 . S
H1210 C1175 0.950 . S
H1211 C1179 0.951 . S
H1212 C1180 0.950 . S
H1213 C1184 0.949 . S
H1214 C1185 0.950 . S
H1215 C1189 0.950 . S
H1216 C1191 0.950 . S
H1217 C1194 0.950 . S
H1218 C1196 0.950 . S
C1219 C1220 1.443 . S
C1219 N1223 1.376 . S
C1219 C1257 1.389 . S
C1220 C1219 1.443 . S
C1220 C1221 1.340 . S
C1220 H1260 0.951 . S
C1221 C1220 1.340 . S
C1221 C1222 1.439 . S
C1221 H1261 0.950 . S
C1222 C1221 1.439 . S
C1222 N1223 1.374 . S
C1222 C1256 1.395 . S
N1223 C1219 1.376 . S
N1223 C1222 1.374 . S
N1223 Co1224 2.008 . S
Co1224 N1223 2.008 . S
Co1224 N1225 1.995 . S
Co1224 N1230 2.008 . S
Co1224 N1235 1.995 . S
Co1224 N1240 2.282 . S
Co1224 N1246 2.282 . S
N1225 Co1224 1.995 . S
N1225 C1226 1.376 . S
N1225 C1229 1.383 . S
C1226 N1225 1.376 . S
C1226 C1227 1.446 . S
C1226 C1256 1.391 . S
C1227 C1226 1.446 . S
C1227 C1228 1.339 . S
C1227 H1262 0.949 . S
C1228 C1227 1.339 . S
C1228 C1229 1.439 . S
C1228 H1263 0.950 . S
C1229 N1225 1.383 . S
C1229 C1228 1.439 . S
C1229 C1258 1.392 . S
N1230 Co1224 2.008 . S
N1230 C1231 1.376 . S
N1230 C1234 1.374 . S
C1231 N1230 1.376 . S
C1231 C1232 1.443 . S
C1231 C1258 1.389 . S
C1232 C1231 1.443 . S
C1232 C1233 1.340 . S
C1232 H1264 0.951 . S
C1233 C1232 1.340 . S
C1233 C1234 1.439 . S
C1233 H1265 0.950 . S
C1234 N1230 1.374 . S
C1234 C1233 1.439 . S
C1234 C1259 1.395 . S
N1235 Co1224 1.995 . S
N1235 C1236 1.376 . S
N1235 C1239 1.383 . S
C1236 N1235 1.376 . S
C1236 C1237 1.446 . S
C1236 C1259 1.391 . S
C1237 C1236 1.446 . S
C1237 C1238 1.339 . S
C1237 H1266 0.949 . S
C1238 C1237 1.339 . S
C1238 C1239 1.439 . S
C1238 H1267 0.950 . S
C1239 N1235 1.383 . S
C1239 C1238 1.439 . S
C1239 C1257 1.392 . S
N1240 Co1224 2.282 . S
N1240 C1243 1.332 . S
N1240 C1245 1.332 . S
C1241 C1242 1.386 . S
C1241 C1244 1.388 . S
C1242 C1241 1.386 . S
C1242 C1243 1.382 . S
C1242 H1268 0.950 . S
C1243 N1240 1.332 . S
C1243 C1242 1.382 . S
C1243 H1254 0.952 . S
C1244 C1241 1.388 . S
C1244 C1245 1.382 . S
C1244 H1269 0.950 . S
C1245 N1240 1.332 . S
C1245 C1244 1.382 . S
C1245 H1255 0.948 . S
N1246 Co1224 2.282 . S
N1246 C1250 1.332 . S
N1246 C1251 1.332 . S
C1247 C1248 1.388 . S
C1247 C1251 1.382 . S
C1247 H1270 0.950 . S
C1248 C1247 1.388 . S
C1248 C1249 1.386 . S
C1249 C1248 1.386 . S
C1249 C1250 1.382 . S
C1249 H1271 0.950 . S
C1250 N1246 1.332 . S
C1250 C1249 1.382 . S
C1250 H1252 0.952 . S
C1251 N1246 1.332 . S
C1251 C1247 1.382 . S
C1251 H1253 0.948 . S
H1252 C1250 0.952 . S
H1253 C1251 0.948 . S
H1254 C1243 0.952 . S
H1255 C1245 0.948 . S
C1256 C1222 1.395 . S
C1256 C1226 1.391 . S
C1257 C1219 1.389 . S
C1257 C1239 1.392 . S
C1258 C1229 1.392 . S
C1258 C1231 1.389 . S
C1259 C1234 1.395 . S
C1259 C1236 1.391 . S
H1260 C1220 0.951 . S
H1261 C1221 0.950 . S
H1262 C1227 0.949 . S
H1263 C1228 0.950 . S
H1264 C1232 0.951 . S
H1265 C1233 0.950 . S
H1266 C1237 0.949 . S
H1267 C1238 0.950 . S
H1268 C1242 0.950 . S
H1269 C1244 0.950 . S
H1270 C1247 0.950 . S
H1271 C1249 0.950 . S
C1272 C1273 1.443 . S
C1272 N1276 1.376 . S
C1272 C1310 1.389 . S
C1273 C1272 1.443 . S
C1273 C1274 1.340 . S
C1273 H1313 0.951 . S
C1274 C1273 1.340 . S
C1274 C1275 1.439 . S
C1274 H1314 0.950 . S
C1275 C1274 1.439 . S
C1275 N1276 1.374 . S
C1275 C1309 1.395 . S
N1276 C1272 1.376 . S
N1276 C1275 1.374 . S
N1276 Co1277 2.008 . S
Co1277 N1276 2.008 . S
Co1277 N1278 1.995 . S
Co1277 N1283 2.008 . S
Co1277 N1288 1.995 . S
Co1277 N1293 2.282 . S
Co1277 N1299 2.282 . S
N1278 Co1277 1.995 . S
N1278 C1279 1.376 . S
N1278 C1282 1.383 . S
C1279 N1278 1.376 . S
C1279 C1280 1.446 . S
C1279 C1309 1.391 . S
C1280 C1279 1.446 . S
C1280 C1281 1.339 . S
C1280 H1315 0.949 . S
C1281 C1280 1.339 . S
C1281 C1282 1.439 . S
C1281 H1316 0.950 . S
C1282 N1278 1.383 . S
C1282 C1281 1.439 . S
C1282 C1311 1.392 . S
N1283 Co1277 2.008 . S
N1283 C1284 1.376 . S
N1283 C1287 1.374 . S
C1284 N1283 1.376 . S
C1284 C1285 1.443 . S
C1284 C1311 1.389 . S
C1285 C1284 1.443 . S
C1285 C1286 1.340 . S
C1285 H1317 0.951 . S
C1286 C1285 1.340 . S
C1286 C1287 1.439 . S
C1286 H1318 0.950 . S
C1287 N1283 1.374 . S
C1287 C1286 1.439 . S
C1287 C1312 1.395 . S
N1288 Co1277 1.995 . S
N1288 C1289 1.376 . S
N1288 C1292 1.383 . S
C1289 N1288 1.376 . S
C1289 C1290 1.446 . S
C1289 C1312 1.391 . S
C1290 C1289 1.446 . S
C1290 C1291 1.339 . S
C1290 H1319 0.949 . S
C1291 C1290 1.339 . S
C1291 C1292 1.439 . S
C1291 H1320 0.950 . S
C1292 N1288 1.383 . S
C1292 C1291 1.439 . S
C1292 C1310 1.392 . S
N1293 Co1277 2.282 . S
N1293 C1296 1.332 . S
N1293 C1298 1.332 . S
C1294 C1295 1.386 . S
C1294 C1297 1.388 . S
C1295 C1294 1.386 . S
C1295 C1296 1.382 . S
C1295 H1321 0.950 . S
C1296 N1293 1.332 . S
C1296 C1295 1.382 . S
C1296 H1307 0.952 . S
C1297 C1294 1.388 . S
C1297 C1298 1.382 . S
C1297 H1322 0.950 . S
C1298 N1293 1.332 . S
C1298 C1297 1.382 . S
C1298 H1308 0.948 . S
N1299 Co1277 2.282 . S
N1299 C1303 1.332 . S
N1299 C1304 1.332 . S
C1300 C1301 1.388 . S
C1300 C1304 1.382 . S
C1300 H1323 0.950 . S
C1301 C1300 1.388 . S
C1301 C1302 1.386 . S
C1302 C1301 1.386 . S
C1302 C1303 1.382 . S
C1302 H1324 0.950 . S
C1303 N1299 1.332 . S
C1303 C1302 1.382 . S
C1303 H1305 0.952 . S
C1304 N1299 1.332 . S
C1304 C1300 1.382 . S
C1304 H1306 0.948 . S
H1305 C1303 0.952 . S
H1306 C1304 0.948 . S
H1307 C1296 0.952 . S
H1308 C1298 0.948 . S
C1309 C1275 1.395 . S
C1309 C1279 1.391 . S
C1310 C1272 1.389 . S
C1310 C1292 1.392 . S
C1311 C1282 1.392 . S
C1311 C1284 1.389 . S
C1312 C1287 1.395 . S
C1312 C1289 1.391 . S
H1313 C1273 0.951 . S
H1314 C1274 0.950 . S
H1315 C1280 0.949 . S
H1316 C1281 0.950 . S
H1317 C1285 0.951 . S
H1318 C1286 0.950 . S
H1319 C1290 0.949 . S
H1320 C1291 0.950 . S
H1321 C1295 0.950 . S
H1322 C1297 0.950 . S
H1323 C1300 0.950 . S
H1324 C1302 0.950 . S
C1325 C1326 1.443 . S
C1325 N1329 1.376 . S
C1325 C1363 1.389 . S
C1326 C1325 1.443 . S
C1326 C1327 1.340 . S
C1326 H1366 0.951 . S
C1327 C1326 1.340 . S
C1327 C1328 1.439 . S
C1327 H1367 0.950 . S
C1328 C1327 1.439 . S
C1328 N1329 1.374 . S
C1328 C1362 1.395 . S
N1329 C1325 1.376 . S
N1329 C1328 1.374 . S
N1329 Co1330 2.008 . S
Co1330 N1329 2.008 . S
Co1330 N1331 1.995 . S
Co1330 N1336 2.008 . S
Co1330 N1341 1.995 . S
Co1330 N1346 2.282 . S
Co1330 N1352 2.282 . S
N1331 Co1330 1.995 . S
N1331 C1332 1.376 . S
N1331 C1335 1.383 . S
C1332 N1331 1.376 . S
C1332 C1333 1.446 . S
C1332 C1362 1.391 . S
C1333 C1332 1.446 . S
C1333 C1334 1.339 . S
C1333 H1368 0.949 . S
C1334 C1333 1.339 . S
C1334 C1335 1.439 . S
C1334 H1369 0.950 . S
C1335 N1331 1.383 . S
C1335 C1334 1.439 . S
C1335 C1364 1.392 . S
N1336 Co1330 2.008 . S
N1336 C1337 1.376 . S
N1336 C1340 1.374 . S
C1337 N1336 1.376 . S
C1337 C1338 1.443 . S
C1337 C1364 1.389 . S
C1338 C1337 1.443 . S
C1338 C1339 1.340 . S
C1338 H1370 0.951 . S
C1339 C1338 1.340 . S
C1339 C1340 1.439 . S
C1339 H1371 0.950 . S
C1340 N1336 1.374 . S
C1340 C1339 1.439 . S
C1340 C1365 1.395 . S
N1341 Co1330 1.995 . S
N1341 C1342 1.376 . S
N1341 C1345 1.383 . S
C1342 N1341 1.376 . S
C1342 C1343 1.446 . S
C1342 C1365 1.391 . S
C1343 C1342 1.446 . S
C1343 C1344 1.339 . S
C1343 H1372 0.949 . S
C1344 C1343 1.339 . S
C1344 C1345 1.439 . S
C1344 H1373 0.950 . S
C1345 N1341 1.383 . S
C1345 C1344 1.439 . S
C1345 C1363 1.392 . S
N1346 Co1330 2.282 . S
N1346 C1349 1.332 . S
N1346 C1351 1.332 . S
C1347 C1348 1.386 . S
C1347 C1350 1.388 . S
C1348 C1347 1.386 . S
C1348 C1349 1.382 . S
C1348 H1374 0.950 . S
C1349 N1346 1.332 . S
C1349 C1348 1.382 . S
C1349 H1360 0.952 . S
C1350 C1347 1.388 . S
C1350 C1351 1.382 . S
C1350 H1375 0.950 . S
C1351 N1346 1.332 . S
C1351 C1350 1.382 . S
C1351 H1361 0.948 . S
N1352 Co1330 2.282 . S
N1352 C1356 1.332 . S
N1352 C1357 1.332 . S
C1353 C1354 1.388 . S
C1353 C1357 1.382 . S
C1353 H1376 0.950 . S
C1354 C1353 1.388 . S
C1354 C1355 1.386 . S
C1355 C1354 1.386 . S
C1355 C1356 1.382 . S
C1355 H1377 0.950 . S
C1356 N1352 1.332 . S
C1356 C1355 1.382 . S
C1356 H1358 0.952 . S
C1357 N1352 1.332 . S
C1357 C1353 1.382 . S
C1357 H1359 0.948 . S
H1358 C1356 0.952 . S
H1359 C1357 0.948 . S
H1360 C1349 0.952 . S
H1361 C1351 0.948 . S
C1362 C1328 1.395 . S
C1362 C1332 1.391 . S
C1363 C1325 1.389 . S
C1363 C1345 1.392 . S
C1364 C1335 1.392 . S
C1364 C1337 1.389 . S
C1365 C1340 1.395 . S
C1365 C1342 1.391 . S
H1366 C1326 0.951 . S
H1367 C1327 0.950 . S
H1368 C1333 0.949 . S
H1369 C1334 0.950 . S
H1370 C1338 0.951 . S
H1371 C1339 0.950 . S
H1372 C1343 0.949 . S
H1373 C1344 0.950 . S
H1374 C1348 0.950 . S
H1375 C1350 0.950 . S
H1376 C1353 0.950 . S
H1377 C1355 0.950 . S
C1378 C1379 1.443 . S
C1378 N1382 1.376 1_554 S
C1378 C1416 1.389 . S
C1379 C1378 1.443 . S
C1379 C1380 1.340 . S
C1379 H1419 0.951 . S
C1380 C1379 1.340 . S
C1380 C1381 1.439 1_554 S
C1380 H1420 0.950 . S
C1381 C1380 1.439 1_556 S
C1381 N1382 1.374 . S
C1381 C1415 1.395 . S
N1382 C1378 1.376 1_556 S
N1382 C1381 1.374 . S
N1382 Co1383 2.008 . S
Co1383 N1382 2.008 . S
Co1383 N1384 1.995 . S
Co1383 N1389 2.008 1_455 S
Co1383 N1394 1.995 1_455 S
Co1383 N1399 2.282 . S
Co1383 N1405 2.282 1_455 S
N1384 Co1383 1.995 . S
N1384 C1385 1.376 . S
N1384 C1388 1.383 . S
C1385 N1384 1.376 . S
C1385 C1386 1.446 . S
C1385 C1415 1.391 . S
C1386 C1385 1.446 . S
C1386 C1387 1.339 . S
C1386 H1421 0.949 . S
C1387 C1386 1.339 . S
C1387 C1388 1.439 . S
C1387 H1422 0.950 . S
C1388 N1384 1.383 . S
C1388 C1387 1.439 . S
C1388 C1417 1.392 . S
N1389 Co1383 2.008 1_655 S
N1389 C1390 1.376 . S
N1389 C1393 1.374 . S
C1390 N1389 1.376 . S
C1390 C1391 1.443 . S
C1390 C1417 1.389 1_655 S
C1391 C1390 1.443 . S
C1391 C1392 1.340 . S
C1391 H1423 0.951 . S
C1392 C1391 1.340 . S
C1392 C1393 1.439 . S
C1392 H1424 0.950 . S
C1393 N1389 1.374 . S
C1393 C1392 1.439 . S
C1393 C1418 1.395 . S
N1394 Co1383 1.995 1_655 S
N1394 C1395 1.376 . S
N1394 C1398 1.383 1_556 S
C1395 N1394 1.376 . S
C1395 C1396 1.446 1_556 S
C1395 C1418 1.391 . S
C1396 C1395 1.446 1_554 S
C1396 C1397 1.339 . S
C1396 H1425 0.949 . S
C1397 C1396 1.339 . S
C1397 C1398 1.439 . S
C1397 H1426 0.950 . S
C1398 N1394 1.383 1_554 S
C1398 C1397 1.439 . S
C1398 C1416 1.392 1_655 S
N1399 Co1383 2.282 . S
N1399 C1402 1.332 . S
N1399 C1404 1.332 . S
C1400 C1401 1.386 . S
C1400 C1403 1.388 . S
C1401 C1400 1.386 . S
C1401 C1402 1.382 . S
C1401 H1427 0.950 . S
C1402 N1399 1.332 . S
C1402 C1401 1.382 . S
C1402 H1413 0.952 . S
C1403 C1400 1.388 . S
C1403 C1404 1.382 . S
C1403 H1428 0.950 . S
C1404 N1399 1.332 . S
C1404 C1403 1.382 . S
C1404 H1414 0.948 . S
N1405 Co1383 2.282 1_655 S
N1405 C1409 1.332 1_655 S
N1405 C1410 1.332 . S
C1406 C1407 1.388 . S
C1406 C1410 1.382 . S
C1406 H1429 0.950 1_556 S
C1407 C1406 1.388 . S
C1407 C1408 1.414 . S
C1408 C1407 1.414 . S
C1408 C1409 1.372 1_655 S
C1408 H1430 0.933 1_655 S
C1409 N1405 1.332 1_455 S
C1409 C1408 1.372 1_455 S
C1409 H1411 0.952 . S
C1410 N1405 1.332 . S
C1410 C1406 1.382 . S
C1410 H1412 0.948 . S
H1411 C1409 0.952 . S
H1412 C1410 0.948 . S
H1413 C1402 0.952 . S
H1414 C1404 0.948 . S
C1415 C1381 1.395 . S
C1415 C1385 1.391 . S
C1416 C1378 1.389 . S
C1416 C1398 1.392 1_455 S
C1417 C1388 1.392 . S
C1417 C1390 1.389 1_455 S
C1418 C1393 1.395 . S
C1418 C1395 1.391 . S
H1419 C1379 0.951 . S
H1420 C1380 0.950 . S
H1421 C1386 0.949 . S
H1422 C1387 0.950 . S
H1423 C1391 0.951 . S
H1424 C1392 0.950 . S
H1425 C1396 0.949 . S
H1426 C1397 0.950 . S
H1427 C1401 0.950 . S
H1428 C1403 0.950 . S
H1429 C1406 0.950 1_554 S
H1430 C1408 0.933 1_455 S
C1431 C1432 1.443 . S
C1431 N1435 1.376 . S
C1431 C1469 1.389 . S
C1432 C1431 1.443 . S
C1432 C1433 1.340 . S
C1432 H1472 0.951 . S
C1433 C1432 1.340 . S
C1433 C1434 1.439 . S
C1433 H1473 0.950 . S
C1434 C1433 1.439 . S
C1434 N1435 1.374 . S
C1434 C1468 1.395 . S
N1435 C1431 1.376 . S
N1435 C1434 1.374 . S
N1435 Co1436 2.008 . S
Co1436 N1435 2.008 . S
Co1436 N1437 1.995 . S
Co1436 N1442 2.008 . S
Co1436 N1447 1.995 . S
Co1436 N1452 2.282 . S
Co1436 N1458 2.282 . S
N1437 Co1436 1.995 . S
N1437 C1438 1.376 . S
N1437 C1441 1.383 . S
C1438 N1437 1.376 . S
C1438 C1439 1.446 . S
C1438 C1468 1.391 . S
C1439 C1438 1.446 . S
C1439 C1440 1.339 . S
C1439 H1474 0.949 . S
C1440 C1439 1.339 . S
C1440 C1441 1.439 . S
C1440 H1475 0.950 . S
C1441 N1437 1.383 . S
C1441 C1440 1.439 . S
C1441 C1470 1.392 . S
N1442 Co1436 2.008 . S
N1442 C1443 1.376 . S
N1442 C1446 1.374 . S
C1443 N1442 1.376 . S
C1443 C1444 1.443 . S
C1443 C1470 1.389 . S
C1444 C1443 1.443 . S
C1444 C1445 1.340 . S
C1444 H1476 0.951 . S
C1445 C1444 1.340 . S
C1445 C1446 1.439 . S
C1445 H1477 0.950 . S
C1446 N1442 1.374 . S
C1446 C1445 1.439 . S
C1446 C1471 1.395 . S
N1447 Co1436 1.995 . S
N1447 C1448 1.376 . S
N1447 C1451 1.383 . S
C1448 N1447 1.376 . S
C1448 C1449 1.446 . S
C1448 C1471 1.391 . S
C1449 C1448 1.446 . S
C1449 C1450 1.339 . S
C1449 H1478 0.949 . S
C1450 C1449 1.339 . S
C1450 C1451 1.439 . S
C1450 H1479 0.950 . S
C1451 N1447 1.383 . S
C1451 C1450 1.439 . S
C1451 C1469 1.392 . S
N1452 Co1436 2.282 . S
N1452 C1455 1.332 . S
N1452 C1457 1.332 . S
C1453 C1454 1.386 . S
C1453 C1456 1.388 . S
C1454 C1453 1.386 . S
C1454 C1455 1.382 . S
C1454 H1480 0.950 . S
C1455 N1452 1.332 . S
C1455 C1454 1.382 . S
C1455 H1466 0.952 . S
C1456 C1453 1.388 . S
C1456 C1457 1.382 . S
C1456 H1481 0.950 . S
C1457 N1452 1.332 . S
C1457 C1456 1.382 . S
C1457 H1467 0.948 . S
N1458 Co1436 2.282 . S
N1458 C1462 1.332 . S
N1458 C1463 1.332 . S
C1459 C1460 1.388 . S
C1459 C1463 1.382 . S
C1459 H1482 0.950 . S
C1460 C1459 1.388 . S
C1460 C1461 1.386 . S
C1461 C1460 1.386 . S
C1461 C1462 1.382 . S
C1461 H1483 0.950 . S
C1462 N1458 1.332 . S
C1462 C1461 1.382 . S
C1462 H1464 0.952 . S
C1463 N1458 1.332 . S
C1463 C1459 1.382 . S
C1463 H1465 0.948 . S
H1464 C1462 0.952 . S
H1465 C1463 0.948 . S
H1466 C1455 0.952 . S
H1467 C1457 0.948 . S
C1468 C1434 1.395 . S
C1468 C1438 1.391 . S
C1469 C1431 1.389 . S
C1469 C1451 1.392 . S
C1470 C1441 1.392 . S
C1470 C1443 1.389 . S
C1471 C1446 1.395 . S
C1471 C1448 1.391 . S
H1472 C1432 0.951 . S
H1473 C1433 0.950 . S
H1474 C1439 0.949 . S
H1475 C1440 0.950 . S
H1476 C1444 0.951 . S
H1477 C1445 0.950 . S
H1478 C1449 0.949 . S
H1479 C1450 0.950 . S
H1480 C1454 0.950 . S
H1481 C1456 0.950 . S
H1482 C1459 0.950 . S
H1483 C1461 0.950 . S
C1484 C1485 1.443 . S
C1484 N1488 1.376 1_556 S
C1484 C1522 1.389 . S
C1485 C1484 1.443 . S
C1485 C1486 1.340 . S
C1485 H1525 0.951 . S
C1486 C1485 1.340 . S
C1486 C1487 1.439 1_556 S
C1486 H1526 0.950 . S
C1487 C1486 1.439 1_554 S
C1487 N1488 1.374 . S
C1487 C1521 1.395 . S
N1488 C1484 1.376 1_554 S
N1488 C1487 1.374 . S
N1488 Co1489 2.008 . S
Co1489 N1488 2.008 . S
Co1489 N1490 1.995 . S
Co1489 N1495 2.008 . S
Co1489 N1500 1.995 . S
Co1489 N1505 2.282 . S
Co1489 N1511 2.282 . S
N1490 Co1489 1.995 . S
N1490 C1491 1.376 . S
N1490 C1494 1.383 . S
C1491 N1490 1.376 . S
C1491 C1492 1.446 . S
C1491 C1521 1.391 . S
C1492 C1491 1.446 . S
C1492 C1493 1.339 . S
C1492 H1527 0.949 . S
C1493 C1492 1.339 . S
C1493 C1494 1.439 . S
C1493 H1528 0.950 . S
C1494 N1490 1.383 . S
C1494 C1493 1.439 . S
C1494 C1523 1.392 . S
N1495 Co1489 2.008 . S
N1495 C1496 1.376 . S
N1495 C1499 1.374 . S
C1496 N1495 1.376 . S
C1496 C1497 1.443 . S
C1496 C1523 1.389 . S
C1497 C1496 1.443 . S
C1497 C1498 1.340 . S
C1497 H1529 0.951 . S
C1498 C1497 1.340 . S
C1498 C1499 1.439 . S
C1498 H1530 0.950 . S
C1499 N1495 1.374 . S
C1499 C1498 1.439 . S
C1499 C1524 1.395 . S
N1500 Co1489 1.995 . S
N1500 C1501 1.376 . S
N1500 C1504 1.383 1_554 S
C1501 N1500 1.376 . S
C1501 C1502 1.446 1_554 S
C1501 C1524 1.391 . S
C1502 C1501 1.446 1_556 S
C1502 C1503 1.339 . S
C1502 H1531 0.949 . S
C1503 C1502 1.339 . S
C1503 C1504 1.439 . S
C1503 H1532 0.950 . S
C1504 N1500 1.383 1_556 S
C1504 C1503 1.439 . S
C1504 C1522 1.392 . S
N1505 Co1489 2.282 . S
N1505 C1508 1.332 . S
N1505 C1510 1.332 . S
C1506 C1507 1.386 . S
C1506 C1509 1.388 . S
C1507 C1506 1.386 . S
C1507 C1508 1.382 . S
C1507 H1533 0.950 . S
C1508 N1505 1.332 . S
C1508 C1507 1.382 . S
C1508 H1519 0.952 . S
C1509 C1506 1.388 . S
C1509 C1510 1.382 . S
C1509 H1534 0.950 . S
C1510 N1505 1.332 . S
C1510 C1509 1.382 . S
C1510 H1520 0.948 . S
N1511 Co1489 2.282 . S
N1511 C1515 1.332 . S
N1511 C1516 1.332 . S
C1512 C1513 1.388 . S
C1512 C1516 1.382 . S
C1512 H1535 0.950 1_554 S
C1513 C1512 1.388 . S
C1513 C1514 1.386 . S
C1514 C1513 1.386 . S
C1514 C1515 1.382 . S
C1514 H1536 0.950 . S
C1515 N1511 1.332 . S
C1515 C1514 1.382 . S
C1515 H1517 0.952 . S
C1516 N1511 1.332 . S
C1516 C1512 1.382 . S
C1516 H1518 0.948 . S
H1517 C1515 0.952 . S
H1518 C1516 0.948 . S
H1519 C1508 0.952 . S
H1520 C1510 0.948 . S
C1521 C1487 1.395 . S
C1521 C1491 1.391 . S
C1522 C1484 1.389 . S
C1522 C1504 1.392 . S
C1523 C1494 1.392 . S
C1523 C1496 1.389 . S
C1524 C1499 1.395 . S
C1524 C1501 1.391 . S
H1525 C1485 0.951 . S
H1526 C1486 0.950 . S
H1527 C1492 0.949 . S
H1528 C1493 0.950 . S
H1529 C1497 0.951 . S
H1530 C1498 0.950 . S
H1531 C1502 0.949 . S
H1532 C1503 0.950 . S
H1533 C1507 0.950 . S
H1534 C1509 0.950 . S
H1535 C1512 0.950 1_556 S
H1536 C1514 0.950 . S
C1537 C1538 1.443 . S
C1537 N1541 1.376 . S
C1537 C1575 1.389 . S
C1538 C1537 1.443 . S
C1538 C1539 1.340 . S
C1538 H1578 0.951 . S
C1539 C1538 1.340 . S
C1539 C1540 1.439 . S
C1539 H1579 0.950 . S
C1540 C1539 1.439 . S
C1540 N1541 1.374 . S
C1540 C1574 1.395 . S
N1541 C1537 1.376 . S
N1541 C1540 1.374 . S
N1541 Co1542 2.008 . S
Co1542 N1541 2.008 . S
Co1542 N1543 1.995 . S
Co1542 N1548 2.008 . S
Co1542 N1553 1.995 . S
Co1542 N1558 2.282 . S
Co1542 N1564 2.282 . S
N1543 Co1542 1.995 . S
N1543 C1544 1.376 . S
N1543 C1547 1.383 . S
C1544 N1543 1.376 . S
C1544 C1545 1.446 . S
C1544 C1574 1.391 . S
C1545 C1544 1.446 . S
C1545 C1546 1.339 . S
C1545 H1580 0.949 . S
C1546 C1545 1.339 . S
C1546 C1547 1.439 . S
C1546 H1581 0.950 . S
C1547 N1543 1.383 . S
C1547 C1546 1.439 . S
C1547 C1576 1.392 . S
N1548 Co1542 2.008 . S
N1548 C1549 1.376 . S
N1548 C1552 1.374 . S
C1549 N1548 1.376 . S
C1549 C1550 1.443 . S
C1549 C1576 1.389 . S
C1550 C1549 1.443 . S
C1550 C1551 1.340 . S
C1550 H1582 0.951 . S
C1551 C1550 1.340 . S
C1551 C1552 1.439 . S
C1551 H1583 0.950 . S
C1552 N1548 1.374 . S
C1552 C1551 1.439 . S
C1552 C1577 1.395 . S
N1553 Co1542 1.995 . S
N1553 C1554 1.376 . S
N1553 C1557 1.383 . S
C1554 N1553 1.376 . S
C1554 C1555 1.446 . S
C1554 C1577 1.391 . S
C1555 C1554 1.446 . S
C1555 C1556 1.339 . S
C1555 H1584 0.949 . S
C1556 C1555 1.339 . S
C1556 C1557 1.439 . S
C1556 H1585 0.950 . S
C1557 N1553 1.383 . S
C1557 C1556 1.439 . S
C1557 C1575 1.392 . S
N1558 Co1542 2.282 . S
N1558 C1561 1.332 . S
N1558 C1563 1.332 . S
C1559 C1560 1.386 . S
C1559 C1562 1.388 . S
C1560 C1559 1.386 . S
C1560 C1561 1.382 . S
C1560 H1586 0.950 . S
C1561 N1558 1.332 . S
C1561 C1560 1.382 . S
C1561 H1572 0.952 . S
C1562 C1559 1.388 . S
C1562 C1563 1.382 . S
C1562 H1587 0.950 . S
C1563 N1558 1.332 . S
C1563 C1562 1.382 . S
C1563 H1573 0.948 . S
N1564 Co1542 2.282 . S
N1564 C1568 1.332 . S
N1564 C1569 1.332 . S
C1565 C1566 1.388 . S
C1565 C1569 1.382 . S
C1565 H1588 0.950 . S
C1566 C1565 1.388 . S
C1566 C1567 1.386 . S
C1567 C1566 1.386 . S
C1567 C1568 1.382 . S
C1567 H1589 0.950 . S
C1568 N1564 1.332 . S
C1568 C1567 1.382 . S
C1568 H1570 0.952 . S
C1569 N1564 1.332 . S
C1569 C1565 1.382 . S
C1569 H1571 0.948 . S
H1570 C1568 0.952 . S
H1571 C1569 0.948 . S
H1572 C1561 0.952 . S
H1573 C1563 0.948 . S
C1574 C1540 1.395 . S
C1574 C1544 1.391 . S
C1575 C1537 1.389 . S
C1575 C1557 1.392 . S
C1576 C1547 1.392 . S
C1576 C1549 1.389 . S
C1577 C1552 1.395 . S
C1577 C1554 1.391 . S
H1578 C1538 0.951 . S
H1579 C1539 0.950 . S
H1580 C1545 0.949 . S
H1581 C1546 0.950 . S
H1582 C1550 0.951 . S
H1583 C1551 0.950 . S
H1584 C1555 0.949 . S
H1585 C1556 0.950 . S
H1586 C1560 0.950 . S
H1587 C1562 0.950 . S
H1588 C1565 0.950 . S
H1589 C1567 0.950 . S
C1590 C1591 1.443 . S
C1590 N1594 1.376 . S
C1590 C1628 1.389 . S
C1591 C1590 1.443 . S
C1591 C1592 1.340 . S
C1591 H1631 0.951 . S
C1592 C1591 1.340 . S
C1592 C1593 1.439 . S
C1592 H1632 0.950 . S
C1593 C1592 1.439 . S
C1593 N1594 1.374 . S
C1593 C1627 1.395 . S
N1594 C1590 1.376 . S
N1594 C1593 1.374 . S
N1594 Co1595 2.008 . S
Co1595 N1594 2.008 . S
Co1595 N1596 1.995 . S
Co1595 N1601 2.008 1_455 S
Co1595 N1606 1.995 1_455 S
Co1595 N1611 2.282 . S
Co1595 N1617 2.282 1_455 S
N1596 Co1595 1.995 . S
N1596 C1597 1.376 . S
N1596 C1600 1.383 . S
C1597 N1596 1.376 . S
C1597 C1598 1.446 . S
C1597 C1627 1.391 . S
C1598 C1597 1.446 . S
C1598 C1599 1.339 . S
C1598 H1633 0.949 . S
C1599 C1598 1.339 . S
C1599 C1600 1.439 . S
C1599 H1634 0.950 . S
C1600 N1596 1.383 . S
C1600 C1599 1.439 . S
C1600 C1629 1.392 . S
N1601 Co1595 2.008 1_655 S
N1601 C1602 1.376 . S
N1601 C1605 1.374 . S
C1602 N1601 1.376 . S
C1602 C1603 1.443 . S
C1602 C1629 1.389 1_655 S
C1603 C1602 1.443 . S
C1603 C1604 1.340 . S
C1603 H1635 0.951 . S
C1604 C1603 1.340 . S
C1604 C1605 1.439 . S
C1604 H1636 0.950 . S
C1605 N1601 1.374 . S
C1605 C1604 1.439 . S
C1605 C1630 1.395 . S
N1606 Co1595 1.995 1_655 S
N1606 C1607 1.376 . S
N1606 C1610 1.383 . S
C1607 N1606 1.376 . S
C1607 C1608 1.446 . S
C1607 C1630 1.391 . S
C1608 C1607 1.446 . S
C1608 C1609 1.339 . S
C1608 H1637 0.949 . S
C1609 C1608 1.339 . S
C1609 C1610 1.439 . S
C1609 H1638 0.950 . S
C1610 N1606 1.383 . S
C1610 C1609 1.439 . S
C1610 C1628 1.392 1_655 S
N1611 Co1595 2.282 . S
N1611 C1614 1.332 . S
N1611 C1616 1.332 . S
C1612 C1613 1.386 . S
C1612 C1615 1.388 . S
C1613 C1612 1.386 . S
C1613 C1614 1.382 . S
C1613 H1639 0.950 . S
C1614 N1611 1.332 . S
C1614 C1613 1.382 . S
C1614 H1625 0.952 . S
C1615 C1612 1.388 . S
C1615 C1616 1.382 . S
C1615 H1640 0.950 . S
C1616 N1611 1.332 . S
C1616 C1615 1.382 . S
C1616 H1626 0.948 . S
N1617 Co1595 2.282 1_655 S
N1617 C1621 1.332 1_655 S
N1617 C1622 1.332 . S
C1618 C1619 1.388 . S
C1618 C1622 1.382 . S
C1618 H1641 0.950 . S
C1619 C1618 1.388 . S
C1619 C1620 1.414 . S
C1620 C1619 1.414 . S
C1620 C1621 1.372 1_655 S
C1620 H1642 0.933 1_655 S
C1621 N1617 1.332 1_455 S
C1621 C1620 1.372 1_455 S
C1621 H1623 0.952 . S
C1622 N1617 1.332 . S
C1622 C1618 1.382 . S
C1622 H1624 0.948 . S
H1623 C1621 0.952 . S
H1624 C1622 0.948 . S
H1625 C1614 0.952 . S
H1626 C1616 0.948 . S
C1627 C1593 1.395 . S
C1627 C1597 1.391 . S
C1628 C1590 1.389 . S
C1628 C1610 1.392 1_455 S
C1629 C1600 1.392 . S
C1629 C1602 1.389 1_455 S
C1630 C1605 1.395 . S
C1630 C1607 1.391 . S
H1631 C1591 0.951 . S
H1632 C1592 0.950 . S
H1633 C1598 0.949 . S
H1634 C1599 0.950 . S
H1635 C1603 0.951 . S
H1636 C1604 0.950 . S
H1637 C1608 0.949 . S
H1638 C1609 0.950 . S
H1639 C1613 0.950 . S
H1640 C1615 0.950 . S
H1641 C1618 0.950 . S
H1642 C1620 0.933 1_455 S
C1643 C1644 1.443 . S
C1643 N1647 1.376 . S
C1643 C1681 1.389 . S
C1644 C1643 1.443 . S
C1644 C1645 1.340 . S
C1644 H1684 0.951 . S
C1645 C1644 1.340 . S
C1645 C1646 1.439 . S
C1645 H1685 0.950 . S
C1646 C1645 1.439 . S
C1646 N1647 1.374 . S
C1646 C1680 1.395 . S
N1647 C1643 1.376 . S
N1647 C1646 1.374 . S
N1647 Co1648 2.008 . S
Co1648 N1647 2.008 . S
Co1648 N1649 1.995 . S
Co1648 N1654 2.008 . S
Co1648 N1659 1.995 . S
Co1648 N1664 2.282 . S
Co1648 N1670 2.282 . S
N1649 Co1648 1.995 . S
N1649 C1650 1.376 . S
N1649 C1653 1.383 . S
C1650 N1649 1.376 . S
C1650 C1651 1.446 . S
C1650 C1680 1.391 . S
C1651 C1650 1.446 . S
C1651 C1652 1.339 . S
C1651 H1686 0.949 . S
C1652 C1651 1.339 . S
C1652 C1653 1.439 . S
C1652 H1687 0.950 . S
C1653 N1649 1.383 . S
C1653 C1652 1.439 . S
C1653 C1682 1.392 . S
N1654 Co1648 2.008 . S
N1654 C1655 1.376 . S
N1654 C1658 1.374 . S
C1655 N1654 1.376 . S
C1655 C1656 1.443 . S
C1655 C1682 1.389 . S
C1656 C1655 1.443 . S
C1656 C1657 1.340 . S
C1656 H1688 0.951 . S
C1657 C1656 1.340 . S
C1657 C1658 1.439 . S
C1657 H1689 0.950 . S
C1658 N1654 1.374 . S
C1658 C1657 1.439 . S
C1658 C1683 1.395 . S
N1659 Co1648 1.995 . S
N1659 C1660 1.376 . S
N1659 C1663 1.383 . S
C1660 N1659 1.376 . S
C1660 C1661 1.446 . S
C1660 C1683 1.391 . S
C1661 C1660 1.446 . S
C1661 C1662 1.339 . S
C1661 H1690 0.949 . S
C1662 C1661 1.339 . S
C1662 C1663 1.439 . S
C1662 H1691 0.950 . S
C1663 N1659 1.383 . S
C1663 C1662 1.439 . S
C1663 C1681 1.392 . S
N1664 Co1648 2.282 . S
N1664 C1667 1.332 . S
N1664 C1669 1.332 . S
C1665 C1666 1.386 . S
C1665 C1668 1.388 . S
C1666 C1665 1.386 . S
C1666 C1667 1.382 . S
C1666 H1692 0.950 . S
C1667 N1664 1.332 . S
C1667 C1666 1.382 . S
C1667 H1678 0.952 . S
C1668 C1665 1.388 . S
C1668 C1669 1.382 . S
C1668 H1693 0.950 . S
C1669 N1664 1.332 . S
C1669 C1668 1.382 . S
C1669 H1679 0.948 . S
N1670 Co1648 2.282 . S
N1670 C1674 1.332 . S
N1670 C1675 1.332 . S
C1671 C1672 1.388 . S
C1671 C1675 1.382 . S
C1671 H1694 0.950 . S
C1672 C1671 1.388 . S
C1672 C1673 1.386 . S
C1673 C1672 1.386 . S
C1673 C1674 1.382 . S
C1673 H1695 0.950 . S
C1674 N1670 1.332 . S
C1674 C1673 1.382 . S
C1674 H1676 0.952 . S
C1675 N1670 1.332 . S
C1675 C1671 1.382 . S
C1675 H1677 0.948 . S
H1676 C1674 0.952 . S
H1677 C1675 0.948 . S
H1678 C1667 0.952 . S
H1679 C1669 0.948 . S
C1680 C1646 1.395 . S
C1680 C1650 1.391 . S
C1681 C1643 1.389 . S
C1681 C1663 1.392 . S
C1682 C1653 1.392 . S
C1682 C1655 1.389 . S
C1683 C1658 1.395 . S
C1683 C1660 1.391 . S
H1684 C1644 0.951 . S
H1685 C1645 0.950 . S
H1686 C1651 0.949 . S
H1687 C1652 0.950 . S
H1688 C1656 0.951 . S
H1689 C1657 0.950 . S
H1690 C1661 0.949 . S
H1691 C1662 0.950 . S
H1692 C1666 0.950 . S
H1693 C1668 0.950 . S
H1694 C1671 0.950 . S
H1695 C1673 0.950 . S
C1696 C1697 1.369 . S
C1696 C1698 1.419 . S
C1696 H1700 0.930 . S
C1697 C1696 1.369 . S
C1697 C1706 1.429 1_655 S
C1698 C1696 1.419 . S
C1698 C1699 1.363 1_655 S
C1698 H1701 0.929 . S
C1699 C1698 1.363 1_455 S
C1699 C1705 1.428 . S
H1700 C1696 0.930 . S
H1701 C1698 0.929 . S
S1702 N1703 1.613 . S
S1702 N1704 1.610 . S
N1703 S1702 1.613 . S
N1703 C1706 1.350 . S
N1704 S1702 1.610 . S
N1704 C1705 1.351 . S
C1705 C1699 1.428 . S
C1705 N1704 1.351 . S
C1705 C1706 1.434 . S
C1706 C1697 1.429 1_455 S
C1706 N1703 1.350 . S
C1706 C1705 1.434 . S
C1707 C1708 1.369 . S
C1707 C1709 1.419 . S
C1707 H1711 0.930 . S
C1708 C1707 1.369 . S
C1708 C1717 1.429 . S
C1709 C1707 1.419 . S
C1709 C1710 1.363 . S
C1709 H1712 0.929 . S
C1710 C1709 1.363 . S
C1710 C1716 1.428 . S
H1711 C1707 0.930 . S
H1712 C1709 0.929 . S
S1713 N1714 1.613 . S
S1713 N1715 1.610 . S
N1714 S1713 1.613 . S
N1714 C1717 1.350 . S
N1715 S1713 1.610 . S
N1715 C1716 1.351 . S
C1716 C1710 1.428 . S
C1716 N1715 1.351 . S
C1716 C1717 1.434 . S
C1717 C1708 1.429 . S
C1717 N1714 1.350 . S
C1717 C1716 1.434 . S
C1718 C1719 1.369 . S
C1718 C1720 1.419 . S
C1718 H1722 0.930 . S
C1719 C1718 1.369 . S
C1719 C1728 1.429 . S
C1720 C1718 1.419 . S
C1720 C1721 1.363 . S
C1720 H1723 0.929 . S
C1721 C1720 1.363 . S
C1721 C1727 1.428 . S
H1722 C1718 0.930 . S
H1723 C1720 0.929 . S
S1724 N1725 1.613 . S
S1724 N1726 1.610 . S
N1725 S1724 1.613 . S
N1725 C1728 1.350 . S
N1726 S1724 1.610 . S
N1726 C1727 1.351 . S
C1727 C1721 1.428 . S
C1727 N1726 1.351 . S
C1727 C1728 1.434 . S
C1728 C1719 1.429 . S
C1728 N1725 1.350 . S
C1728 C1727 1.434 . S
C1729 C1730 1.369 . S
C1729 C1731 1.419 . S
C1729 H1733 0.930 . S
C1730 C1729 1.369 . S
C1730 C1739 1.429 . S
C1731 C1729 1.419 . S
C1731 C1732 1.363 . S
C1731 H1734 0.929 . S
C1732 C1731 1.363 . S
C1732 C1738 1.428 . S
H1733 C1729 0.930 . S
H1734 C1731 0.929 . S
S1735 N1736 1.613 . S
S1735 N1737 1.610 . S
N1736 S1735 1.613 . S
N1736 C1739 1.350 . S
N1737 S1735 1.610 . S
N1737 C1738 1.351 . S
C1738 C1732 1.428 . S
C1738 N1737 1.351 . S
C1738 C1739 1.434 . S
C1739 C1730 1.429 . S
C1739 N1736 1.350 . S
C1739 C1738 1.434 . S
C1740 C1741 1.369 1_455 S
C1740 C1742 1.419 . S
C1740 H1744 0.930 . S
C1741 C1740 1.369 1_655 S
C1741 C1750 1.429 . S
C1742 C1740 1.419 . S
C1742 C1743 1.363 . S
C1742 H1745 0.929 . S
C1743 C1742 1.363 . S
C1743 C1749 1.428 1_455 S
H1744 C1740 0.930 . S
H1745 C1742 0.929 . S
S1746 N1747 1.613 . S
S1746 N1748 1.610 . S
N1747 S1746 1.613 . S
N1747 C1750 1.350 . S
N1748 S1746 1.610 . S
N1748 C1749 1.351 . S
C1749 C1743 1.428 1_655 S
C1749 N1748 1.351 . S
C1749 C1750 1.434 . S
C1750 C1741 1.429 . S
C1750 N1747 1.350 . S
C1750 C1749 1.434 . S
C1751 C1752 1.369 . S
C1751 C1753 1.419 . S
C1751 H1755 0.930 . S
C1752 C1751 1.369 . S
C1752 C1761 1.429 . S
C1753 C1751 1.419 . S
C1753 C1754 1.363 . S
C1753 H1756 0.929 . S
C1754 C1753 1.363 . S
C1754 C1760 1.428 . S
H1755 C1751 0.930 . S
H1756 C1753 0.929 . S
S1757 N1758 1.613 . S
S1757 N1759 1.610 1_556 S
N1758 S1757 1.613 . S
N1758 C1761 1.350 . S
N1759 S1757 1.610 1_554 S
N1759 C1760 1.351 1_554 S
C1760 C1754 1.428 . S
C1760 N1759 1.351 1_556 S
C1760 C1761 1.434 . S
C1761 C1752 1.429 . S
C1761 N1758 1.350 . S
C1761 C1760 1.434 . S
C1762 C1763 1.369 . S
C1762 C1764 1.419 . S
C1762 H1766 0.930 . S
C1763 C1762 1.369 . S
C1763 C1772 1.429 . S
C1764 C1762 1.419 . S
C1764 C1765 1.363 . S
C1764 H1767 0.929 . S
C1765 C1764 1.363 . S
C1765 C1771 1.428 . S
H1766 C1762 0.930 . S
H1767 C1764 0.929 . S
S1768 N1769 1.613 . S
S1768 N1770 1.610 . S
N1769 S1768 1.613 . S
N1769 C1772 1.350 . S
N1770 S1768 1.610 . S
N1770 C1771 1.351 . S
C1771 C1765 1.428 . S
C1771 N1770 1.351 . S
C1771 C1772 1.434 . S
C1772 C1763 1.429 . S
C1772 N1769 1.350 . S
C1772 C1771 1.434 . S
C1773 C1774 1.369 . S
C1773 C1775 1.419 . S
C1773 H1777 0.930 . S
C1774 C1773 1.369 . S
C1774 C1783 1.429 . S
C1775 C1773 1.419 . S
C1775 C1776 1.363 . S
C1775 H1778 0.929 . S
C1776 C1775 1.363 . S
C1776 C1782 1.428 . S
H1777 C1773 0.930 . S
H1778 C1775 0.929 . S
S1779 N1780 1.613 . S
S1779 N1781 1.610 . S
N1780 S1779 1.613 . S
N1780 C1783 1.350 . S
N1781 S1779 1.610 . S
N1781 C1782 1.351 . S
C1782 C1776 1.428 . S
C1782 N1781 1.351 . S
C1782 C1783 1.434 . S
C1783 C1774 1.429 . S
C1783 N1780 1.350 . S
C1783 C1782 1.434 . S
C1784 C1785 1.369 . S
C1784 C1786 1.419 . S
C1784 H1788 0.930 . S
C1785 C1784 1.369 . S
C1785 C1794 1.429 1_455 S
C1786 C1784 1.419 . S
C1786 C1787 1.363 1_455 S
C1786 H1789 0.929 . S
C1787 C1786 1.363 1_655 S
C1787 C1793 1.428 . S
H1788 C1784 0.930 . S
H1789 C1786 0.929 . S
S1790 N1791 1.613 . S
S1790 N1792 1.610 . S
N1791 S1790 1.613 . S
N1791 C1794 1.350 . S
N1792 S1790 1.610 . S
N1792 C1793 1.351 . S
C1793 C1787 1.428 . S
C1793 N1792 1.351 . S
C1793 C1794 1.434 . S
C1794 C1785 1.429 1_655 S
C1794 N1791 1.350 . S
C1794 C1793 1.434 . S
C1795 C1796 1.369 . S
C1795 C1797 1.419 . S
C1795 H1799 0.930 . S
C1796 C1795 1.369 . S
C1796 C1805 1.429 . S
C1797 C1795 1.419 . S
C1797 C1798 1.363 . S
C1797 H1800 0.929 . S
C1798 C1797 1.363 . S
C1798 C1804 1.428 . S
H1799 C1795 0.930 . S
H1800 C1797 0.929 . S
S1801 N1802 1.613 . S
S1801 N1803 1.610 . S
N1802 S1801 1.613 . S
N1802 C1805 1.350 . S
N1803 S1801 1.610 . S
N1803 C1804 1.351 . S
C1804 C1798 1.428 . S
C1804 N1803 1.351 . S
C1804 C1805 1.434 . S
C1805 C1796 1.429 . S
C1805 N1802 1.350 . S
C1805 C1804 1.434 . S
C1806 C1807 1.369 . S
C1806 C1808 1.419 . S
C1806 H1810 0.930 . S
C1807 C1806 1.369 . S
C1807 C1816 1.429 . S
C1808 C1806 1.419 . S
C1808 C1809 1.363 . S
C1808 H1811 0.929 . S
C1809 C1808 1.363 . S
C1809 C1815 1.428 . S
H1810 C1806 0.930 . S
H1811 C1808 0.929 . S
S1812 N1813 1.613 . S
S1812 N1814 1.610 . S
N1813 S1812 1.613 . S
N1813 C1816 1.350 . S
N1814 S1812 1.610 . S
N1814 C1815 1.351 . S
C1815 C1809 1.428 . S
C1815 N1814 1.351 . S
C1815 C1816 1.434 . S
C1816 C1807 1.429 . S
C1816 N1813 1.350 . S
C1816 C1815 1.434 . S
C1817 C1818 1.369 . S
C1817 C1819 1.419 . S
C1817 H1821 0.930 . S
C1818 C1817 1.369 . S
C1818 C1827 1.429 . S
C1819 C1817 1.419 . S
C1819 C1820 1.363 . S
C1819 H1822 0.929 . S
C1820 C1819 1.363 . S
C1820 C1826 1.428 . S
H1821 C1817 0.930 . S
H1822 C1819 0.929 . S
S1823 N1824 1.613 . S
S1823 N1825 1.610 . S
N1824 S1823 1.613 . S
N1824 C1827 1.350 . S
N1825 S1823 1.610 . S
N1825 C1826 1.351 . S
C1826 C1820 1.428 . S
C1826 N1825 1.351 . S
C1826 C1827 1.434 . S
C1827 C1818 1.429 . S
C1827 N1824 1.350 . S
C1827 C1826 1.434 . S
C1828 C1829 1.369 1_455 S
C1828 C1830 1.419 . S
C1828 H1832 0.930 . S
C1829 C1828 1.369 1_655 S
C1829 C1838 1.429 . S
C1830 C1828 1.419 . S
C1830 C1831 1.363 . S
C1830 H1833 0.929 . S
C1831 C1830 1.363 . S
C1831 C1837 1.428 1_455 S
H1832 C1828 0.930 . S
H1833 C1830 0.929 . S
S1834 N1835 1.613 . S
S1834 N1836 1.610 . S
N1835 S1834 1.613 . S
N1835 C1838 1.350 . S
N1836 S1834 1.610 . S
N1836 C1837 1.351 . S
C1837 C1831 1.428 1_655 S
C1837 N1836 1.351 . S
C1837 C1838 1.434 . S
C1838 C1829 1.429 . S
C1838 N1835 1.350 . S
C1838 C1837 1.434 . S
C1839 C1840 1.369 . S
C1839 C1841 1.419 . S
C1839 H1843 0.930 . S
C1840 C1839 1.369 . S
C1840 C1849 1.429 . S
C1841 C1839 1.419 . S
C1841 C1842 1.363 . S
C1841 H1844 0.929 . S
C1842 C1841 1.363 . S
C1842 C1848 1.428 . S
H1843 C1839 0.930 . S
H1844 C1841 0.929 . S
S1845 N1846 1.613 . S
S1845 N1847 1.610 . S
N1846 S1845 1.613 . S
N1846 C1849 1.350 . S
N1847 S1845 1.610 . S
N1847 C1848 1.351 . S
C1848 C1842 1.428 . S
C1848 N1847 1.351 . S
C1848 C1849 1.434 . S
C1849 C1840 1.429 . S
C1849 N1846 1.350 . S
C1849 C1848 1.434 . S
C1850 C1851 1.369 . S
C1850 C1852 1.419 . S
C1850 H1854 0.930 . S
C1851 C1850 1.369 . S
C1851 C1860 1.429 . S
C1852 C1850 1.419 . S
C1852 C1853 1.363 . S
C1852 H1855 0.929 . S
C1853 C1852 1.363 . S
C1853 C1859 1.428 . S
H1854 C1850 0.930 . S
H1855 C1852 0.929 . S
S1856 N1857 1.613 . S
S1856 N1858 1.610 . S
N1857 S1856 1.613 . S
N1857 C1860 1.350 . S
N1858 S1856 1.610 . S
N1858 C1859 1.351 . S
C1859 C1853 1.428 . S
C1859 N1858 1.351 . S
C1859 C1860 1.434 . S
C1860 C1851 1.429 . S
C1860 N1857 1.350 . S
C1860 C1859 1.434 . S
C1861 C1862 1.369 . S
C1861 C1863 1.419 . S
C1861 H1865 0.930 . S
C1862 C1861 1.369 . S
C1862 C1871 1.429 . S
C1863 C1861 1.419 . S
C1863 C1864 1.363 . S
C1863 H1866 0.929 . S
C1864 C1863 1.363 . S
C1864 C1870 1.428 . S
H1865 C1861 0.930 . S
H1866 C1863 0.929 . S
S1867 N1868 1.613 . S
S1867 N1869 1.610 . S
N1868 S1867 1.613 . S
N1868 C1871 1.350 . S
N1869 S1867 1.610 . S
N1869 C1870 1.351 . S
C1870 C1864 1.428 . S
C1870 N1869 1.351 . S
C1870 C1871 1.434 . S
C1871 C1862 1.429 . S
C1871 N1868 1.350 . S
C1871 C1870 1.434 . S
C1872 C1873 1.369 . S
C1872 C1874 1.419 . S
C1872 H1876 0.930 . S
C1873 C1872 1.369 . S
C1873 C1882 1.429 . S
C1874 C1872 1.419 . S
C1874 C1875 1.363 . S
C1874 H1877 0.929 . S
C1875 C1874 1.363 . S
C1875 C1881 1.428 . S
H1876 C1872 0.930 . S
H1877 C1874 0.929 . S
S1878 N1879 1.613 . S
S1878 N1880 1.610 . S
N1879 S1878 1.613 . S
N1879 C1882 1.350 . S
N1880 S1878 1.610 . S
N1880 C1881 1.351 . S
C1881 C1875 1.428 . S
C1881 N1880 1.351 . S
C1881 C1882 1.434 . S
C1882 C1873 1.429 . S
C1882 N1879 1.350 . S
C1882 C1881 1.434 . S
C1883 C1884 1.369 . S
C1883 C1885 1.419 . S
C1883 H1887 0.930 . S
C1884 C1883 1.369 . S
C1884 C1893 1.429 . S
C1885 C1883 1.419 . S
C1885 C1886 1.363 . S
C1885 H1888 0.929 . S
C1886 C1885 1.363 . S
C1886 C1892 1.428 . S
H1887 C1883 0.930 . S
H1888 C1885 0.929 . S
S1889 N1890 1.613 . S
S1889 N1891 1.610 . S
N1890 S1889 1.613 . S
N1890 C1893 1.350 . S
N1891 S1889 1.610 . S
N1891 C1892 1.351 . S
C1892 C1886 1.428 . S
C1892 N1891 1.351 . S
C1892 C1893 1.434 . S
C1893 C1884 1.429 . S
C1893 N1890 1.350 . S
C1893 C1892 1.434 . S
C1894 C1895 1.369 1_655 S
C1894 C1896 1.419 . S
C1894 H1898 0.930 . S
C1895 C1894 1.369 1_455 S
C1895 C1904 1.429 . S
C1896 C1894 1.419 . S
C1896 C1897 1.363 . S
C1896 H1899 0.929 . S
C1897 C1896 1.363 . S
C1897 C1903 1.428 1_655 S
H1898 C1894 0.930 . S
H1899 C1896 0.929 . S
S1900 N1901 1.613 . S
S1900 N1902 1.610 . S
N1901 S1900 1.613 . S
N1901 C1904 1.350 . S
N1902 S1900 1.610 . S
N1902 C1903 1.351 . S
C1903 C1897 1.428 1_455 S
C1903 N1902 1.351 . S
C1903 C1904 1.434 . S
C1904 C1895 1.429 . S
C1904 N1901 1.350 . S
C1904 C1903 1.434 . S
C1905 C1906 1.369 . S
C1905 C1907 1.419 . S
C1905 H1909 0.930 . S
C1906 C1905 1.369 . S
C1906 C1915 1.429 . S
C1907 C1905 1.419 . S
C1907 C1908 1.363 . S
C1907 H1910 0.929 . S
C1908 C1907 1.363 . S
C1908 C1914 1.428 . S
H1909 C1905 0.930 . S
H1910 C1907 0.929 . S
S1911 N1912 1.613 . S
S1911 N1913 1.610 1_554 S
N1912 S1911 1.613 . S
N1912 C1915 1.350 . S
N1913 S1911 1.610 1_556 S
N1913 C1914 1.351 1_556 S
C1914 C1908 1.428 . S
C1914 N1913 1.351 1_554 S
C1914 C1915 1.434 . S
C1915 C1906 1.429 . S
C1915 N1912 1.350 . S
C1915 C1914 1.434 . S
C1916 C1917 1.369 . S
C1916 C1918 1.419 . S
C1916 H1920 0.930 . S
C1917 C1916 1.369 . S
C1917 C1926 1.429 . S
C1918 C1916 1.419 . S
C1918 C1919 1.363 . S
C1918 H1921 0.929 . S
C1919 C1918 1.363 . S
C1919 C1925 1.428 . S
H1920 C1916 0.930 . S
H1921 C1918 0.929 . S
S1922 N1923 1.613 . S
S1922 N1924 1.610 . S
N1923 S1922 1.613 . S
N1923 C1926 1.350 . S
N1924 S1922 1.610 . S
N1924 C1925 1.351 . S
C1925 C1919 1.428 . S
C1925 N1924 1.351 . S
C1925 C1926 1.434 . S
C1926 C1917 1.429 . S
C1926 N1923 1.350 . S
C1926 C1925 1.434 . S
C1927 C1928 1.369 . S
C1927 C1929 1.419 . S
C1927 H1931 0.930 . S
C1928 C1927 1.369 . S
C1928 C1937 1.429 . S
C1929 C1927 1.419 . S
C1929 C1930 1.363 . S
C1929 H1932 0.929 . S
C1930 C1929 1.363 . S
C1930 C1936 1.428 . S
H1931 C1927 0.930 . S
H1932 C1929 0.929 . S
S1933 N1934 1.613 . S
S1933 N1935 1.610 . S
N1934 S1933 1.613 . S
N1934 C1937 1.350 . S
N1935 S1933 1.610 . S
N1935 C1936 1.351 . S
C1936 C1930 1.428 . S
C1936 N1935 1.351 . S
C1936 C1937 1.434 . S
C1937 C1928 1.429 . S
C1937 N1934 1.350 . S
C1937 C1936 1.434 . S
C1938 C1939 1.369 . S
C1938 C1940 1.419 . S
C1938 H1942 0.930 . S
C1939 C1938 1.369 . S
C1939 C1948 1.429 1_455 S
C1940 C1938 1.419 . S
C1940 C1941 1.363 1_455 S
C1940 H1943 0.929 . S
C1941 C1940 1.363 1_655 S
C1941 C1947 1.428 . S
H1942 C1938 0.930 . S
H1943 C1940 0.929 . S
S1944 N1945 1.613 . S
S1944 N1946 1.610 . S
N1945 S1944 1.613 . S
N1945 C1948 1.350 . S
N1946 S1944 1.610 . S
N1946 C1947 1.351 . S
C1947 C1941 1.428 . S
C1947 N1946 1.351 . S
C1947 C1948 1.434 . S
C1948 C1939 1.429 1_655 S
C1948 N1945 1.350 . S
C1948 C1947 1.434 . S
C1949 C1950 1.369 . S
C1949 C1951 1.419 . S
C1949 H1953 0.930 . S
C1950 C1949 1.369 . S
C1950 C1959 1.429 . S
C1951 C1949 1.419 . S
C1951 C1952 1.363 . S
C1951 H1954 0.929 . S
C1952 C1951 1.363 . S
C1952 C1958 1.428 . S
H1953 C1949 0.930 . S
H1954 C1951 0.929 . S
S1955 N1956 1.613 . S
S1955 N1957 1.610 . S
N1956 S1955 1.613 . S
N1956 C1959 1.350 . S
N1957 S1955 1.610 . S
N1957 C1958 1.351 . S
C1958 C1952 1.428 . S
C1958 N1957 1.351 . S
C1958 C1959 1.434 . S
C1959 C1950 1.429 . S
C1959 N1956 1.350 . S
C1959 C1958 1.434 . S
C1960 C1961 1.369 . S
C1960 C1962 1.419 . S
C1960 H1964 0.930 . S
C1961 C1960 1.369 . S
C1961 C1970 1.429 . S
C1962 C1960 1.419 . S
C1962 C1963 1.363 . S
C1962 H1965 0.929 . S
C1963 C1962 1.363 . S
C1963 C1969 1.428 . S
H1964 C1960 0.930 . S
H1965 C1962 0.929 . S
S1966 N1967 1.613 . S
S1966 N1968 1.610 . S
N1967 S1966 1.613 . S
N1967 C1970 1.350 . S
N1968 S1966 1.610 . S
N1968 C1969 1.351 . S
C1969 C1963 1.428 . S
C1969 N1968 1.351 . S
C1969 C1970 1.434 . S
C1970 C1961 1.429 . S
C1970 N1967 1.350 . S
C1970 C1969 1.434 . S
C1971 C1972 1.369 . S
C1971 C1973 1.419 . S
C1971 H1975 0.930 . S
C1972 C1971 1.369 . S
C1972 C1981 1.429 . S
C1973 C1971 1.419 . S
C1973 C1974 1.363 . S
C1973 H1976 0.929 . S
C1974 C1973 1.363 . S
C1974 C1980 1.428 . S
H1975 C1971 0.930 . S
H1976 C1973 0.929 . S
S1977 N1978 1.613 . S
S1977 N1979 1.610 . S
N1978 S1977 1.613 . S
N1978 C1981 1.350 . S
N1979 S1977 1.610 . S
N1979 C1980 1.351 . S
C1980 C1974 1.428 . S
C1980 N1979 1.351 . S
C1980 C1981 1.434 . S
C1981 C1972 1.429 . S
C1981 N1978 1.350 . S
C1981 C1980 1.434 . S
C1982 C1983 1.369 . S
C1982 C1984 1.419 . S
C1982 H1986 0.930 . S
C1983 C1982 1.369 . S
C1983 C1992 1.429 1_455 S
C1984 C1982 1.419 . S
C1984 C1985 1.363 1_455 S
C1984 H1987 0.929 . S
C1985 C1984 1.363 1_655 S
C1985 C1991 1.428 . S
H1986 C1982 0.930 . S
H1987 C1984 0.929 . S
S1988 N1989 1.613 . S
S1988 N1990 1.610 . S
N1989 S1988 1.613 . S
N1989 C1992 1.350 . S
N1990 S1988 1.610 . S
N1990 C1991 1.351 . S
C1991 C1985 1.428 . S
C1991 N1990 1.351 . S
C1991 C1992 1.434 . S
C1992 C1983 1.429 1_655 S
C1992 N1989 1.350 . S
C1992 C1991 1.434 . S
C1993 C1994 1.369 . S
C1993 C1995 1.419 . S
C1993 H1997 0.930 . S
C1994 C1993 1.369 . S
C1994 C2003 1.429 . S
C1995 C1993 1.419 . S
C1995 C1996 1.363 . S
C1995 H1998 0.929 . S
C1996 C1995 1.363 . S
C1996 C2002 1.428 . S
H1997 C1993 0.930 . S
H1998 C1995 0.929 . S
S1999 N2000 1.613 . S
S1999 N2001 1.610 1_556 S
N2000 S1999 1.613 . S
N2000 C2003 1.350 . S
N2001 S1999 1.610 1_554 S
N2001 C2002 1.351 1_554 S
C2002 C1996 1.428 . S
C2002 N2001 1.351 1_556 S
C2002 C2003 1.434 . S
C2003 C1994 1.429 . S
C2003 N2000 1.350 . S
C2003 C2002 1.434 . S
C2004 C2005 1.369 . S
C2004 C2006 1.419 . S
C2004 H2008 0.930 . S
C2005 C2004 1.369 . S
C2005 C2014 1.429 . S
C2006 C2004 1.419 . S
C2006 C2007 1.363 . S
C2006 H2009 0.929 . S
C2007 C2006 1.363 . S
C2007 C2013 1.428 . S
H2008 C2004 0.930 . S
H2009 C2006 0.929 . S
S2010 N2011 1.613 . S
S2010 N2012 1.610 . S
N2011 S2010 1.613 . S
N2011 C2014 1.350 . S
N2012 S2010 1.610 . S
N2012 C2013 1.351 . S
C2013 C2007 1.428 . S
C2013 N2012 1.351 . S
C2013 C2014 1.434 . S
C2014 C2005 1.429 . S
C2014 N2011 1.350 . S
C2014 C2013 1.434 . S
C2015 C2016 1.369 . S
C2015 C2017 1.419 . S
C2015 H2019 0.930 . S
C2016 C2015 1.369 . S
C2016 C2025 1.429 . S
C2017 C2015 1.419 . S
C2017 C2018 1.363 . S
C2017 H2020 0.929 . S
C2018 C2017 1.363 . S
C2018 C2024 1.428 . S
H2019 C2015 0.930 . S
H2020 C2017 0.929 . S
S2021 N2022 1.613 . S
S2021 N2023 1.610 . S
N2022 S2021 1.613 . S
N2022 C2025 1.350 . S
N2023 S2021 1.610 . S
N2023 C2024 1.351 . S
C2024 C2018 1.428 . S
C2024 N2023 1.351 . S
C2024 C2025 1.434 . S
C2025 C2016 1.429 . S
C2025 N2022 1.350 . S
C2025 C2024 1.434 . S
C2026 C2027 1.366 . S
C2026 C2028 1.421 1_655 S
C2026 H2030 0.928 1_655 S
C2027 C2026 1.366 . S
C2027 C2036 1.429 . S
C2028 C2026 1.421 1_455 S
C2028 C2029 1.363 . S
C2028 H2031 0.929 . S
C2029 C2028 1.363 . S
C2029 C2035 1.428 1_455 S
H2030 C2026 0.928 1_455 S
H2031 C2028 0.929 . S
S2032 N2033 1.613 . S
S2032 N2034 1.610 . S
N2033 S2032 1.613 . S
N2033 C2036 1.350 . S
N2034 S2032 1.610 . S
N2034 C2035 1.351 . S
C2035 C2029 1.428 1_655 S
C2035 N2034 1.351 . S
C2035 C2036 1.434 . S
C2036 C2027 1.429 . S
C2036 N2033 1.350 . S
C2036 C2035 1.434 . S
C2037 C2038 1.369 . S
C2037 C2039 1.419 . S
C2037 H2041 0.930 . S
C2038 C2037 1.369 . S
C2038 C2047 1.429 . S
C2039 C2037 1.419 . S
C2039 C2040 1.363 . S
C2039 H2042 0.929 . S
C2040 C2039 1.363 . S
C2040 C2046 1.428 . S
H2041 C2037 0.930 . S
H2042 C2039 0.929 . S
S2043 N2044 1.613 . S
S2043 N2045 1.610 1_554 S
N2044 S2043 1.613 . S
N2044 C2047 1.350 . S
N2045 S2043 1.610 1_556 S
N2045 C2046 1.351 1_556 S
C2046 C2040 1.428 . S
C2046 N2045 1.351 1_554 S
C2046 C2047 1.434 . S
C2047 C2038 1.429 . S
C2047 N2044 1.350 . S
C2047 C2046 1.434 . S
C2048 C2049 1.369 1_456 S
C2048 C2050 1.419 1_545 S
C2048 H2052 0.930 . S
C2049 C2048 1.369 1_654 S
C2049 C2058 1.453 . S
C2050 C2048 1.419 1_565 S
C2050 C2051 1.363 . S
C2050 H2053 0.929 . S
C2051 C2050 1.363 . S
C2051 C2057 1.428 1_456 S
H2052 C2048 0.930 . S
H2053 C2050 0.929 . S
S2054 N2055 1.613 . S
S2054 N2056 1.610 . S
N2055 S2054 1.613 . S
N2055 C2058 1.347 1_565 S
N2056 S2054 1.610 . S
N2056 C2057 1.351 . S
C2057 C2051 1.428 1_654 S
C2057 N2056 1.351 . S
C2057 C2058 1.409 1_565 S
C2058 C2049 1.453 . S
C2058 N2055 1.347 1_545 S
C2058 C2057 1.409 1_545 S
C2059 C2060 1.369 . S
C2059 C2061 1.419 . S
C2059 H2063 0.930 . S
C2060 C2059 1.369 . S
C2060 C2069 1.429 . S
C2061 C2059 1.419 . S
C2061 C2062 1.363 . S
C2061 H2064 0.929 . S
C2062 C2061 1.363 . S
C2062 C2068 1.428 . S
H2063 C2059 0.930 . S
H2064 C2061 0.929 . S
S2065 N2066 1.613 . S
S2065 N2067 1.610 . S
N2066 S2065 1.613 . S
N2066 C2069 1.350 . S
N2067 S2065 1.610 . S
N2067 C2068 1.351 . S
C2068 C2062 1.428 . S
C2068 N2067 1.351 . S
C2068 C2069 1.434 . S
C2069 C2060 1.429 . S
C2069 N2066 1.350 . S
C2069 C2068 1.434 . S
C2070 C2071 1.369 . S
C2070 C2072 1.419 1_545 S
C2070 H2074 0.930 . S
C2071 C2070 1.369 . S
C2071 C2080 1.429 . S
C2072 C2070 1.419 1_565 S
C2072 C2073 1.363 . S
C2072 H2075 0.929 . S
C2073 C2072 1.363 . S
C2073 C2079 1.428 . S
H2074 C2070 0.930 . S
H2075 C2072 0.929 . S
S2076 N2077 1.613 . S
S2076 N2078 1.610 1_545 S
N2077 S2076 1.613 . S
N2077 C2080 1.350 . S
N2078 S2076 1.610 1_565 S
N2078 C2079 1.351 . S
C2079 C2073 1.428 . S
C2079 N2078 1.351 . S
C2079 C2080 1.434 1_565 S
C2080 C2071 1.429 . S
C2080 N2077 1.350 . S
C2080 C2079 1.434 1_545 S
C2081 C2082 1.369 . S
C2081 C2083 1.419 . S
C2081 H2085 0.930 . S
C2082 C2081 1.369 . S
C2082 C2091 1.429 . S
C2083 C2081 1.419 . S
C2083 C2084 1.363 . S
C2083 H2086 0.929 . S
C2084 C2083 1.363 . S
C2084 C2090 1.428 . S
H2085 C2081 0.930 . S
H2086 C2083 0.929 . S
S2087 N2088 1.613 . S
S2087 N2089 1.610 . S
N2088 S2087 1.613 . S
N2088 C2091 1.350 . S
N2089 S2087 1.610 . S
N2089 C2090 1.351 . S
C2090 C2084 1.428 . S
C2090 N2089 1.351 . S
C2090 C2091 1.434 . S
C2091 C2082 1.429 . S
C2091 N2088 1.350 . S
C2091 C2090 1.434 . S
C2092 C2093 1.369 . S
C2092 C2094 1.419 1_565 S
C2092 H2096 0.930 . S
C2093 C2092 1.369 . S
C2093 C2102 1.429 1_655 S
C2094 C2092 1.419 1_545 S
C2094 C2095 1.363 1_655 S
C2094 H2097 0.929 . S
C2095 C2094 1.363 1_455 S
C2095 C2101 1.486 . S
H2096 C2092 0.930 . S
H2097 C2094 0.929 . S
S2098 N2099 1.613 . S
S2098 N2100 1.611 . S
N2099 S2098 1.613 . S
N2099 C2102 1.350 . S
N2100 S2098 1.611 . S
N2100 C2101 1.348 1_565 S
C2101 C2095 1.486 . S
C2101 N2100 1.348 1_545 S
C2101 C2102 1.374 1_545 S
C2102 C2093 1.429 1_455 S
C2102 N2099 1.350 . S
C2102 C2101 1.374 1_565 S
C2103 C2104 1.369 . S
C2103 C2105 1.419 . S
C2103 H2107 0.930 . S
C2104 C2103 1.369 . S
C2104 C2113 1.429 . S
C2105 C2103 1.419 . S
C2105 C2106 1.363 . S
C2105 H2108 0.929 . S
C2106 C2105 1.363 . S
C2106 C2112 1.428 . S
H2107 C2103 0.930 . S
H2108 C2105 0.929 . S
S2109 N2110 1.613 . S
S2109 N2111 1.610 . S
N2110 S2109 1.613 . S
N2110 C2113 1.350 . S
N2111 S2109 1.610 . S
N2111 C2112 1.351 . S
C2112 C2106 1.428 . S
C2112 N2111 1.351 . S
C2112 C2113 1.434 . S
C2113 C2104 1.429 . S
C2113 N2110 1.350 . S
C2113 C2112 1.434 . S
C2114 C2115 1.369 . S
C2114 C2116 1.419 1_565 S
C2114 H2118 0.930 . S
C2115 C2114 1.369 . S
C2115 C2124 1.429 1_554 S
C2116 C2114 1.419 1_545 S
C2116 C2117 1.363 1_554 S
C2116 H2119 0.929 . S
C2117 C2116 1.363 1_556 S
C2117 C2123 1.428 . S
H2118 C2114 0.930 . S
H2119 C2116 0.929 . S
S2120 N2121 1.613 1_545 S
S2120 N2122 1.610 . S
N2121 S2120 1.613 1_565 S
N2121 C2124 1.350 . S
N2122 S2120 1.610 . S
N2122 C2123 1.351 . S
C2123 C2117 1.428 . S
C2123 N2122 1.351 . S
C2123 C2124 1.434 1_545 S
C2124 C2115 1.429 1_556 S
C2124 N2121 1.350 . S
C2124 C2123 1.434 1_565 S
C2125 C2126 1.369 . S
C2125 C2127 1.419 . S
C2125 H2129 0.930 . S
C2126 C2125 1.369 . S
C2126 C2135 1.429 . S
C2127 C2125 1.419 . S
C2127 C2128 1.363 . S
C2127 H2130 0.929 . S
C2128 C2127 1.363 . S
C2128 C2134 1.428 . S
H2129 C2125 0.930 . S
H2130 C2127 0.929 . S
S2131 N2132 1.613 . S
S2131 N2133 1.610 . S
N2132 S2131 1.613 . S
N2132 C2135 1.350 . S
N2133 S2131 1.610 . S
N2133 C2134 1.351 . S
C2134 C2128 1.428 . S
C2134 N2133 1.351 . S
C2134 C2135 1.434 . S
C2135 C2126 1.429 . S
C2135 N2132 1.350 . S
C2135 C2134 1.434 . S
C2136 C2137 1.369 . S
C2136 C2138 1.419 . S
C2136 H2140 0.930 . S
C2137 C2136 1.369 . S
C2137 C2146 1.429 . S
C2138 C2136 1.419 . S
C2138 C2139 1.363 . S
C2138 H2141 0.929 . S
C2139 C2138 1.363 . S
C2139 C2145 1.428 . S
H2140 C2136 0.930 . S
H2141 C2138 0.929 . S
S2142 N2143 1.613 . S
S2142 N2144 1.610 . S
N2143 S2142 1.613 . S
N2143 C2146 1.350 . S
N2144 S2142 1.610 . S
N2144 C2145 1.351 . S
C2145 C2139 1.428 . S
C2145 N2144 1.351 . S
C2145 C2146 1.434 . S
C2146 C2137 1.429 . S
C2146 N2143 1.350 . S
C2146 C2145 1.434 . S
C2147 C2148 1.369 . S
C2147 C2149 1.419 . S
C2147 H2151 0.930 . S
C2148 C2147 1.369 . S
C2148 C2157 1.429 . S
C2149 C2147 1.419 . S
C2149 C2150 1.363 . S
C2149 H2152 0.929 . S
C2150 C2149 1.363 . S
C2150 C2156 1.428 . S
H2151 C2147 0.930 . S
H2152 C2149 0.929 . S
S2153 N2154 1.613 . S
S2153 N2155 1.610 . S
N2154 S2153 1.613 . S
N2154 C2157 1.350 . S
N2155 S2153 1.610 . S
N2155 C2156 1.351 . S
C2156 C2150 1.428 . S
C2156 N2155 1.351 . S
C2156 C2157 1.434 . S
C2157 C2148 1.429 . S
C2157 N2154 1.350 . S
C2157 C2156 1.434 . S
C2158 C2159 1.369 . S
C2158 C2160 1.419 . S
C2158 H2162 0.930 . S
C2159 C2158 1.369 . S
C2159 C2168 1.429 . S
C2160 C2158 1.419 . S
C2160 C2161 1.363 . S
C2160 H2163 0.929 . S
C2161 C2160 1.363 . S
C2161 C2167 1.428 . S
H2162 C2158 0.930 . S
H2163 C2160 0.929 . S
S2164 N2165 1.613 . S
S2164 N2166 1.610 . S
N2165 S2164 1.613 . S
N2165 C2168 1.350 . S
N2166 S2164 1.610 . S
N2166 C2167 1.351 . S
C2167 C2161 1.428 . S
C2167 N2166 1.351 . S
C2167 C2168 1.434 . S
C2168 C2159 1.429 . S
C2168 N2165 1.350 . S
C2168 C2167 1.434 . S
C2169 C2170 1.369 . S
C2169 C2171 1.419 . S
C2169 H2173 0.930 . S
C2170 C2169 1.369 . S
C2170 C2179 1.429 . S
C2171 C2169 1.419 . S
C2171 C2172 1.363 . S
C2171 H2174 0.929 . S
C2172 C2171 1.363 . S
C2172 C2178 1.428 . S
H2173 C2169 0.930 . S
H2174 C2171 0.929 . S
S2175 N2176 1.613 . S
S2175 N2177 1.610 . S
N2176 S2175 1.613 . S
N2176 C2179 1.350 . S
N2177 S2175 1.610 . S
N2177 C2178 1.351 . S
C2178 C2172 1.428 . S
C2178 N2177 1.351 . S
C2178 C2179 1.434 . S
C2179 C2170 1.429 . S
C2179 N2176 1.350 . S
C2179 C2178 1.434 . S
C2180 C2181 1.369 . S
C2180 C2182 1.419 . S
C2180 H2184 0.930 . S
C2181 C2180 1.369 . S
C2181 C2190 1.429 . S
C2182 C2180 1.419 . S
C2182 C2183 1.363 . S
C2182 H2185 0.929 . S
C2183 C2182 1.363 . S
C2183 C2189 1.428 . S
H2184 C2180 0.930 . S
H2185 C2182 0.929 . S
S2186 N2187 1.613 . S
S2186 N2188 1.610 . S
N2187 S2186 1.613 . S
N2187 C2190 1.350 . S
N2188 S2186 1.610 . S
N2188 C2189 1.351 . S
C2189 C2183 1.428 . S
C2189 N2188 1.351 . S
C2189 C2190 1.434 . S
C2190 C2181 1.429 . S
C2190 N2187 1.350 . S
C2190 C2189 1.434 . S
C2191 C2192 1.369 . S
C2191 C2193 1.419 1_455 S
C2191 H2195 0.930 . S
C2192 C2191 1.369 . S
C2192 C2201 1.429 1_554 S
C2193 C2191 1.419 1_655 S
C2193 C2194 1.363 1_554 S
C2193 H2196 0.929 . S
C2194 C2193 1.363 1_556 S
C2194 C2200 1.428 . S
H2195 C2191 0.930 . S
H2196 C2193 0.929 . S
S2197 N2198 1.613 . S
S2197 N2199 1.610 1_455 S
N2198 S2197 1.613 . S
N2198 C2201 1.350 . S
N2199 S2197 1.610 1_655 S
N2199 C2200 1.351 . S
C2200 C2194 1.428 . S
C2200 N2199 1.351 . S
C2200 C2201 1.434 1_655 S
C2201 C2192 1.429 1_556 S
C2201 N2198 1.350 . S
C2201 C2200 1.434 1_455 S
C2202 C2203 1.369 1_554 S
C2202 C2204 1.419 . S
C2202 H2206 0.930 . S
C2203 C2202 1.369 1_556 S
C2203 C2212 1.429 . S
C2204 C2202 1.419 . S
C2204 C2205 1.363 . S
C2204 H2207 0.929 . S
C2205 C2204 1.363 . S
C2205 C2211 1.428 1_554 S
H2206 C2202 0.930 . S
H2207 C2204 0.929 . S
S2208 N2209 1.613 . S
S2208 N2210 1.610 . S
N2209 S2208 1.613 . S
N2209 C2212 1.350 . S
N2210 S2208 1.610 . S
N2210 C2211 1.351 . S
C2211 C2205 1.428 1_556 S
C2211 N2210 1.351 . S
C2211 C2212 1.434 . S
C2212 C2203 1.429 . S
C2212 N2209 1.350 . S
C2212 C2211 1.434 . S
C2213 C2214 1.369 . S
C2213 C2215 1.419 . S
C2213 H2217 0.930 . S
C2214 C2213 1.369 . S
C2214 C2223 1.429 1_655 S
C2215 C2213 1.419 . S
C2215 C2216 1.363 1_655 S
C2215 H2218 0.929 . S
C2216 C2215 1.363 1_455 S
C2216 C2222 1.428 . S
H2217 C2213 0.930 . S
H2218 C2215 0.929 . S
S2219 N2220 1.613 . S
S2219 N2221 1.610 . S
N2220 S2219 1.613 . S
N2220 C2223 1.350 . S
N2221 S2219 1.610 . S
N2221 C2222 1.351 . S
C2222 C2216 1.428 . S
C2222 N2221 1.351 . S
C2222 C2223 1.434 . S
C2223 C2214 1.429 1_455 S
C2223 N2220 1.350 . S
C2223 C2222 1.434 . S
C2224 C2225 1.369 . S
C2224 C2226 1.419 . S
C2224 H2228 0.930 . S
C2225 C2224 1.369 . S
C2225 C2234 1.429 . S
C2226 C2224 1.419 . S
C2226 C2227 1.363 . S
C2226 H2229 0.929 . S
C2227 C2226 1.363 . S
C2227 C2233 1.428 . S
H2228 C2224 0.930 . S
H2229 C2226 0.929 . S
S2230 N2231 1.613 . S
S2230 N2232 1.610 . S
N2231 S2230 1.613 . S
N2231 C2234 1.350 . S
N2232 S2230 1.610 . S
N2232 C2233 1.351 . S
C2233 C2227 1.428 . S
C2233 N2232 1.351 . S
C2233 C2234 1.434 . S
C2234 C2225 1.429 . S
C2234 N2231 1.350 . S
C2234 C2233 1.434 . S
C2235 C2236 1.369 . S
C2235 C2237 1.419 . S
C2235 H2239 0.930 . S
C2236 C2235 1.369 . S
C2236 C2245 1.429 . S
C2237 C2235 1.419 . S
C2237 C2238 1.363 . S
C2237 H2240 0.929 . S
C2238 C2237 1.363 . S
C2238 C2244 1.428 . S
H2239 C2235 0.930 . S
H2240 C2237 0.929 . S
S2241 N2242 1.613 . S
S2241 N2243 1.610 . S
N2242 S2241 1.613 . S
N2242 C2245 1.350 . S
N2243 S2241 1.610 . S
N2243 C2244 1.351 . S
C2244 C2238 1.428 . S
C2244 N2243 1.351 . S
C2244 C2245 1.434 . S
C2245 C2236 1.429 . S
C2245 N2242 1.350 . S
C2245 C2244 1.434 . S
C2246 C2247 1.369 . S
C2246 C2248 1.419 . S
C2246 H2250 0.930 . S
C2247 C2246 1.369 . S
C2247 C2256 1.429 . S
C2248 C2246 1.419 . S
C2248 C2249 1.363 . S
C2248 H2251 0.929 . S
C2249 C2248 1.363 . S
C2249 C2255 1.428 . S
H2250 C2246 0.930 . S
H2251 C2248 0.929 . S
S2252 N2253 1.613 . S
S2252 N2254 1.610 . S
N2253 S2252 1.613 . S
N2253 C2256 1.350 . S
N2254 S2252 1.610 . S
N2254 C2255 1.351 . S
C2255 C2249 1.428 . S
C2255 N2254 1.351 . S
C2255 C2256 1.434 . S
C2256 C2247 1.429 . S
C2256 N2253 1.350 . S
C2256 C2255 1.434 . S
C2257 C2258 1.369 . S
C2257 C2259 1.419 . S
C2257 H2261 0.930 . S
C2258 C2257 1.369 . S
C2258 C2267 1.429 . S
C2259 C2257 1.419 . S
C2259 C2260 1.363 . S
C2259 H2262 0.929 . S
C2260 C2259 1.363 . S
C2260 C2266 1.428 . S
H2261 C2257 0.930 . S
H2262 C2259 0.929 . S
S2263 N2264 1.613 . S
S2263 N2265 1.610 . S
N2264 S2263 1.613 . S
N2264 C2267 1.350 . S
N2265 S2263 1.610 . S
N2265 C2266 1.351 . S
C2266 C2260 1.428 . S
C2266 N2265 1.351 . S
C2266 C2267 1.434 . S
C2267 C2258 1.429 . S
C2267 N2264 1.350 . S
C2267 C2266 1.434 . S
C2268 C2269 1.369 . S
C2268 C2270 1.419 . S
C2268 H2272 0.930 . S
C2269 C2268 1.369 . S
C2269 C2278 1.429 . S
C2270 C2268 1.419 . S
C2270 C2271 1.363 . S
C2270 H2273 0.929 . S
C2271 C2270 1.363 . S
C2271 C2277 1.428 . S
H2272 C2268 0.930 . S
H2273 C2270 0.929 . S
S2274 N2275 1.613 . S
S2274 N2276 1.610 . S
N2275 S2274 1.613 . S
N2275 C2278 1.350 . S
N2276 S2274 1.610 . S
N2276 C2277 1.351 . S
C2277 C2271 1.428 . S
C2277 N2276 1.351 . S
C2277 C2278 1.434 . S
C2278 C2269 1.429 . S
C2278 N2275 1.350 . S
C2278 C2277 1.434 . S
C2279 C2280 1.369 . S
C2279 C2281 1.419 . S
C2279 H2283 0.930 . S
C2280 C2279 1.369 . S
C2280 C2289 1.429 . S
C2281 C2279 1.419 . S
C2281 C2282 1.363 . S
C2281 H2284 0.929 . S
C2282 C2281 1.363 . S
C2282 C2288 1.428 . S
H2283 C2279 0.930 . S
H2284 C2281 0.929 . S
S2285 N2286 1.613 . S
S2285 N2287 1.610 . S
N2286 S2285 1.613 . S
N2286 C2289 1.350 . S
N2287 S2285 1.610 . S
N2287 C2288 1.351 . S
C2288 C2282 1.428 . S
C2288 N2287 1.351 . S
C2288 C2289 1.434 . S
C2289 C2280 1.429 . S
C2289 N2286 1.350 . S
C2289 C2288 1.434 . S
C2290 C2291 1.369 . S
C2290 C2292 1.419 . S
C2290 H2294 0.930 . S
C2291 C2290 1.369 . S
C2291 C2300 1.429 . S
C2292 C2290 1.419 . S
C2292 C2293 1.363 . S
C2292 H2295 0.929 . S
C2293 C2292 1.363 . S
C2293 C2299 1.428 . S
H2294 C2290 0.930 . S
H2295 C2292 0.929 . S
S2296 N2297 1.613 . S
S2296 N2298 1.610 . S
N2297 S2296 1.613 . S
N2297 C2300 1.350 . S
N2298 S2296 1.610 . S
N2298 C2299 1.351 . S
C2299 C2293 1.428 . S
C2299 N2298 1.351 . S
C2299 C2300 1.434 . S
C2300 C2291 1.429 . S
C2300 N2297 1.350 . S
C2300 C2299 1.434 . S
C2301 C2302 1.369 . S
C2301 C2303 1.419 . S
C2301 H2305 0.930 . S
C2302 C2301 1.369 . S
C2302 C2311 1.429 . S
C2303 C2301 1.419 . S
C2303 C2304 1.363 . S
C2303 H2306 0.929 . S
C2304 C2303 1.363 . S
C2304 C2310 1.428 . S
H2305 C2301 0.930 . S
H2306 C2303 0.929 . S
S2307 N2308 1.613 . S
S2307 N2309 1.610 . S
N2308 S2307 1.613 . S
N2308 C2311 1.350 . S
N2309 S2307 1.610 . S
N2309 C2310 1.351 . S
C2310 C2304 1.428 . S
C2310 N2309 1.351 . S
C2310 C2311 1.434 . S
C2311 C2302 1.429 . S
C2311 N2308 1.350 . S
C2311 C2310 1.434 . S
C2312 C2313 1.369 . S
C2312 C2314 1.419 . S
C2312 H2316 0.930 . S
C2313 C2312 1.369 . S
C2313 C2322 1.429 . S
C2314 C2312 1.419 . S
C2314 C2315 1.363 . S
C2314 H2317 0.929 . S
C2315 C2314 1.363 . S
C2315 C2321 1.428 . S
H2316 C2312 0.930 . S
H2317 C2314 0.929 . S
S2318 N2319 1.613 . S
S2318 N2320 1.610 . S
N2319 S2318 1.613 . S
N2319 C2322 1.350 . S
N2320 S2318 1.610 . S
N2320 C2321 1.351 . S
C2321 C2315 1.428 . S
C2321 N2320 1.351 . S
C2321 C2322 1.434 . S
C2322 C2313 1.429 . S
C2322 N2319 1.350 . S
C2322 C2321 1.434 . S
C2323 C2324 1.369 . S
C2323 C2325 1.419 . S
C2323 H2327 0.930 . S
C2324 C2323 1.369 . S
C2324 C2333 1.429 . S
C2325 C2323 1.419 . S
C2325 C2326 1.363 . S
C2325 H2328 0.929 . S
C2326 C2325 1.363 . S
C2326 C2332 1.428 . S
H2327 C2323 0.930 . S
H2328 C2325 0.929 . S
S2329 N2330 1.613 . S
S2329 N2331 1.610 . S
N2330 S2329 1.613 . S
N2330 C2333 1.350 . S
N2331 S2329 1.610 . S
N2331 C2332 1.351 . S
C2332 C2326 1.428 . S
C2332 N2331 1.351 . S
C2332 C2333 1.434 . S
C2333 C2324 1.429 . S
C2333 N2330 1.350 . S
C2333 C2332 1.434 . S
C2334 C2335 1.369 . S
C2334 C2336 1.419 . S
C2334 H2338 0.930 . S
C2335 C2334 1.369 . S
C2335 C2344 1.429 . S
C2336 C2334 1.419 . S
C2336 C2337 1.363 . S
C2336 H2339 0.929 . S
C2337 C2336 1.363 . S
C2337 C2343 1.428 . S
H2338 C2334 0.930 . S
H2339 C2336 0.929 . S
S2340 N2341 1.613 . S
S2340 N2342 1.610 . S
N2341 S2340 1.613 . S
N2341 C2344 1.350 . S
N2342 S2340 1.610 . S
N2342 C2343 1.351 . S
C2343 C2337 1.428 . S
C2343 N2342 1.351 . S
C2343 C2344 1.434 . S
C2344 C2335 1.429 . S
C2344 N2341 1.350 . S
C2344 C2343 1.434 . S
C2345 C2346 1.369 . S
C2345 C2347 1.419 . S
C2345 H2349 0.930 . S
C2346 C2345 1.369 . S
C2346 C2355 1.429 . S
C2347 C2345 1.419 . S
C2347 C2348 1.363 . S
C2347 H2350 0.929 . S
C2348 C2347 1.363 . S
C2348 C2354 1.428 . S
H2349 C2345 0.930 . S
H2350 C2347 0.929 . S
S2351 N2352 1.613 . S
S2351 N2353 1.610 . S
N2352 S2351 1.613 . S
N2352 C2355 1.350 . S
N2353 S2351 1.610 . S
N2353 C2354 1.351 . S
C2354 C2348 1.428 . S
C2354 N2353 1.351 . S
C2354 C2355 1.434 . S
C2355 C2346 1.429 . S
C2355 N2352 1.350 . S
C2355 C2354 1.434 . S
C2356 C2357 1.369 . S
C2356 C2358 1.419 . S
C2356 H2360 0.930 . S
C2357 C2356 1.369 . S
C2357 C2366 1.429 . S
C2358 C2356 1.419 . S
C2358 C2359 1.363 . S
C2358 H2361 0.929 . S
C2359 C2358 1.363 . S
C2359 C2365 1.428 . S
H2360 C2356 0.930 . S
H2361 C2358 0.929 . S
S2362 N2363 1.613 . S
S2362 N2364 1.610 . S
N2363 S2362 1.613 . S
N2363 C2366 1.350 . S
N2364 S2362 1.610 . S
N2364 C2365 1.351 . S
C2365 C2359 1.428 . S
C2365 N2364 1.351 . S
C2365 C2366 1.434 . S
C2366 C2357 1.429 . S
C2366 N2363 1.350 . S
C2366 C2365 1.434 . S
C2367 C2368 1.369 . S
C2367 C2369 1.419 . S
C2367 H2371 0.930 . S
C2368 C2367 1.369 . S
C2368 C2377 1.429 . S
C2369 C2367 1.419 . S
C2369 C2370 1.363 . S
C2369 H2372 0.929 . S
C2370 C2369 1.363 . S
C2370 C2376 1.428 . S
H2371 C2367 0.930 . S
H2372 C2369 0.929 . S
S2373 N2374 1.613 . S
S2373 N2375 1.610 . S
N2374 S2373 1.613 . S
N2374 C2377 1.350 . S
N2375 S2373 1.610 . S
N2375 C2376 1.351 . S
C2376 C2370 1.428 . S
C2376 N2375 1.351 . S
C2376 C2377 1.434 . S
C2377 C2368 1.429 . S
C2377 N2374 1.350 . S
C2377 C2376 1.434 . S
C2378 C2379 1.369 . S
C2378 C2380 1.419 . S
C2378 H2382 0.930 . S
C2379 C2378 1.369 . S
C2379 C2388 1.429 . S
C2380 C2378 1.419 . S
C2380 C2381 1.363 . S
C2380 H2383 0.929 . S
C2381 C2380 1.363 . S
C2381 C2387 1.428 . S
H2382 C2378 0.930 . S
H2383 C2380 0.929 . S
S2384 N2385 1.613 . S
S2384 N2386 1.610 . S
N2385 S2384 1.613 . S
N2385 C2388 1.350 . S
N2386 S2384 1.610 . S
N2386 C2387 1.351 . S
C2387 C2381 1.428 . S
C2387 N2386 1.351 . S
C2387 C2388 1.434 . S
C2388 C2379 1.429 . S
C2388 N2385 1.350 . S
C2388 C2387 1.434 . S
C2389 C2390 1.369 . S
C2389 C2391 1.419 . S
C2389 H2393 0.930 . S
C2390 C2389 1.369 . S
C2390 C2399 1.429 . S
C2391 C2389 1.419 . S
C2391 C2392 1.363 . S
C2391 H2394 0.929 . S
C2392 C2391 1.363 . S
C2392 C2398 1.428 . S
H2393 C2389 0.930 . S
H2394 C2391 0.929 . S
S2395 N2396 1.613 . S
S2395 N2397 1.610 . S
N2396 S2395 1.613 . S
N2396 C2399 1.350 . S
N2397 S2395 1.610 . S
N2397 C2398 1.351 . S
C2398 C2392 1.428 . S
C2398 N2397 1.351 . S
C2398 C2399 1.434 . S
C2399 C2390 1.429 . S
C2399 N2396 1.350 . S
C2399 C2398 1.434 . S
C1697 C675 1.707 . S
C1699 C38 1.721 . S
C1708 C1576 1.709 1_554 S
C1710 C91 1.719 . S
C1719 C781 1.711 . S
C1721 C144 1.719 . S
C1730 C1682 1.705 . S
C1732 C197 1.722 . S
C1741 C463 1.710 . S
C1743 C250 1.718 . S
C1752 C303 1.722 . S
C1754 C1364 1.706 1_556 S
C1763 C356 1.721 . S
C1765 C569 1.708 . S
C1774 C1470 1.708 . S
C1776 C409 1.720 . S
C1785 C251 1.712 . S
C1787 C462 1.727 . S
C1796 C1152 1.716 1_556 S
C1798 C515 1.724 . S
C1807 C357 1.714 . S
C1809 C568 1.726 . S
C1818 C1258 1.712 . S
C1820 C621 1.727 . S
C1829 C674 1.728 . S
C1831 C39 1.711 . S
C1840 C727 1.725 . S
C1842 C940 1.713 1_554 S
C1851 C145 1.713 . S
C1853 C780 1.726 . S
C1862 C833 1.724 . S
C1864 C1046 1.715 . S
C1873 C1523 1.707 . S
C1875 C886 1.721 . S
C1884 C728 1.711 . S
C1886 C939 1.719 . S
C1895 C1629 1.710 . S
C1897 C992 1.718 . S
C1906 C1045 1.721 . S
C1908 C834 1.706 1_554 S
C1917 C1098 1.719 . S
C1919 C1311 1.709 . S
C1928 C1151 1.717 . S
C1930 C516 1.711 . S
C1939 C1417 1.707 . S
C1941 C1204 1.721 . S
C1950 C622 1.711 1_556 S
C1952 C1257 1.718 . S
C1961 C1099 1.713 . S
C1963 C1310 1.726 . S
C1972 C1363 1.726 . S
C1974 C304 1.713 . S
C1983 C1416 1.723 . S
C1985 C1205 1.715 . S
C1994 C1469 1.727 . S
C1996 C410 1.711 1_556 S
C2005 C887 1.711 . S
C2007 C1522 1.728 . S
C2016 C92 1.712 . S
C2018 C1575 1.726 . S
C2027 C993 1.712 . S
C2029 C1628 1.727 . S
C2038 C1681 1.727 . S
C2040 C198 1.711 1_554 S
C2049 C29 2.427 . S
C2051 C453 2.438 . S
C2060 C82 2.421 . S
C2062 C1354 2.443 . S
C2071 C559 2.439 . S
C2073 C135 2.426 . S
C2082 C188 2.427 . S
C2084 C1460 2.437 . S
C2093 C241 2.422 . S
C2095 C665 2.442 . S
C2104 C1566 2.444 . S
C2106 C294 2.421 . S
C2115 C771 2.443 . S
C2117 C347 2.422 . S
C2126 C400 2.425 . S
C2128 C1672 2.440 . S
C2137 C506 2.445 . S
C2139 C930 2.420 . S
C2148 C612 2.441 . S
C2150 C1036 2.422 . S
C2159 C718 2.437 . S
C2161 C1142 2.427 . S
C2170 C1248 2.422 . S
C2172 C824 2.442 . S
C2181 C877 2.426 . S
C2183 C1301 2.439 . S
C2192 C983 2.427 . S
C2194 C1407 2.439 . S
C2203 C1089 2.419 . S
C2205 C1513 2.444 . S
C2214 C1619 2.437 . S
C2216 C1195 2.427 . S
C2225 C22 2.076 . S
C2227 C393 2.077 . S
C2236 C75 2.077 . S
C2238 C234 2.078 . S
C2247 C287 2.073 . S
C2249 C128 2.074 . S
C2258 C340 2.078 . S
C2260 C181 2.078 . S
C2269 C817 2.067 . S
C2271 C446 2.070 . S
C2280 C658 2.070 . S
C2282 C499 2.068 . S
C2291 C711 2.069 . S
C2293 C552 2.067 . S
C2302 C764 2.068 . S
C2304 C605 2.071 . S
C2313 C870 2.077 . S
C2315 C1241 2.077 . S
C2324 C1082 2.075 . S
C2326 C923 2.074 . S
C2335 C1135 2.077 . S
C2337 C976 2.077 . S
C2346 C1188 2.074 . S
C2348 C1029 2.077 . S
C2357 C1665 2.067 . S
C2359 C1294 2.069 . S
C2368 C1347 2.072 . S
C2370 C1506 2.070 . S
C2379 C1400 2.068 . S
C2381 C1559 2.067 . S
C2390 C1612 2.073 . S
C2392 C1453 2.072 . S
