# Generated by pormake.
# Topology wkj, (6)-cn, num edge types: 1
# Building blocks:
#     Node 0, Type 0, BuildingBlock: UKALOJ_clean_sbu_0, # of connection points: 6
#     Node 1, Type 0, BuildingBlock: UKALOJ_clean_sbu_0, # of connection points: 6
#     Node 2, Type 0, BuildingBlock: UKALOJ_clean_sbu_0, # of connection points: 6
#     Node 3, Type 0, BuildingBlock: UKALOJ_clean_sbu_0, # of connection points: 6
#     Node 4, Type 0, BuildingBlock: UKALOJ_clean_sbu_0, # of connection points: 6
#     Node 5, Type 0, BuildingBlock: UKALOJ_clean_sbu_0, # of connection points: 6
#     Node 6, Type 0, BuildingBlock: UKALOJ_clean_sbu_0, # of connection points: 6
#     Node 7, Type 0, BuildingBlock: UKALOJ_clean_sbu_0, # of connection points: 6
#     Node 8, Type 0, BuildingBlock: UKALOJ_clean_sbu_0, # of connection points: 6
#     Node 9, Type 0, BuildingBlock: UKALOJ_clean_sbu_0, # of connection points: 6
#     Node 10, Type 0, BuildingBlock: UKALOJ_clean_sbu_0, # of connection points: 6
#     Node 11, Type 0, BuildingBlock: UKALOJ_clean_sbu_0, # of connection points: 6
#     Edge 12, Type (0, 0), BuildingBlock: XUDNAN_clean_linker_2, # of connection points: 2
#     Edge 13, Type (0, 0), BuildingBlock: XUDNAN_clean_linker_2, # of connection points: 2
#     Edge 14, Type (0, 0), BuildingBlock: XUDNAN_clean_linker_2, # of connection points: 2
#     Edge 15, Type (0, 0), BuildingBlock: XUDNAN_clean_linker_2, # of connection points: 2
#     Edge 16, Type (0, 0), BuildingBlock: XUDNAN_clean_linker_2, # of connection points: 2
#     Edge 17, Type (0, 0), BuildingBlock: XUDNAN_clean_linker_2, # of connection points: 2
#     Edge 18, Type (0, 0), BuildingBlock: XUDNAN_clean_linker_2, # of connection points: 2
#     Edge 19, Type (0, 0), BuildingBlock: XUDNAN_clean_linker_2, # of connection points: 2
#     Edge 20, Type (0, 0), BuildingBlock: XUDNAN_clean_linker_2, # of connection points: 2
#     Edge 21, Type (0, 0), BuildingBlock: XUDNAN_clean_linker_2, # of connection points: 2
#     Edge 22, Type (0, 0), BuildingBlock: XUDNAN_clean_linker_2, # of connection points: 2
#     Edge 23, Type (0, 0), BuildingBlock: XUDNAN_clean_linker_2, # of connection points: 2
#     Edge 24, Type (0, 0), BuildingBlock: XUDNAN_clean_linker_2, # of connection points: 2
#     Edge 25, Type (0, 0), BuildingBlock: XUDNAN_clean_linker_2, # of connection points: 2
#     Edge 26, Type (0, 0), BuildingBlock: XUDNAN_clean_linker_2, # of connection points: 2
#     Edge 27, Type (0, 0), BuildingBlock: XUDNAN_clean_linker_2, # of connection points: 2
#     Edge 28, Type (0, 0), BuildingBlock: XUDNAN_clean_linker_2, # of connection points: 2
#     Edge 29, Type (0, 0), BuildingBlock: XUDNAN_clean_linker_2, # of connection points: 2
#     Edge 30, Type (0, 0), BuildingBlock: XUDNAN_clean_linker_2, # of connection points: 2
#     Edge 31, Type (0, 0), BuildingBlock: XUDNAN_clean_linker_2, # of connection points: 2
#     Edge 32, Type (0, 0), BuildingBlock: XUDNAN_clean_linker_2, # of connection points: 2
#     Edge 33, Type (0, 0), BuildingBlock: XUDNAN_clean_linker_2, # of connection points: 2
#     Edge 34, Type (0, 0), BuildingBlock: XUDNAN_clean_linker_2, # of connection points: 2
#     Edge 35, Type (0, 0), BuildingBlock: XUDNAN_clean_linker_2, # of connection points: 2
#     Edge 36, Type (0, 0), BuildingBlock: XUDNAN_clean_linker_2, # of connection points: 2
#     Edge 37, Type (0, 0), BuildingBlock: XUDNAN_clean_linker_2, # of connection points: 2
#     Edge 38, Type (0, 0), BuildingBlock: XUDNAN_clean_linker_2, # of connection points: 2
#     Edge 39, Type (0, 0), BuildingBlock: XUDNAN_clean_linker_2, # of connection points: 2
#     Edge 40, Type (0, 0), BuildingBlock: XUDNAN_clean_linker_2, # of connection points: 2
#     Edge 41, Type (0, 0), BuildingBlock: XUDNAN_clean_linker_2, # of connection points: 2
#     Edge 42, Type (0, 0), BuildingBlock: XUDNAN_clean_linker_2, # of connection points: 2
#     Edge 43, Type (0, 0), BuildingBlock: XUDNAN_clean_linker_2, # of connection points: 2
#     Edge 44, Type (0, 0), BuildingBlock: XUDNAN_clean_linker_2, # of connection points: 2
#     Edge 45, Type (0, 0), BuildingBlock: XUDNAN_clean_linker_2, # of connection points: 2
#     Edge 46, Type (0, 0), BuildingBlock: XUDNAN_clean_linker_2, # of connection points: 2
#     Edge 47, Type (0, 0), BuildingBlock: XUDNAN_clean_linker_2, # of connection points: 2
# Relax obj value: 0.883
# Max RMSD: 0.239
# Mean RMSD: 0.239
data_MOF--net-wkj--node1-UKALOJ_clean_sbu_0--edge1-XUDNAN_clean_linker_2
_symmetry_space_group_name_H-M    P1
_symmetry_Int_Tables_number       1
_symmetry_cell_setting            triclinic
loop_
_symmetry_equiv_pos_as_xyz
'x, y, z'
_cell_length_a     64.458031
_cell_length_b     64.156174
_cell_length_c     21.971262
_cell_angle_alpha  90.072767
_cell_angle_beta   89.873425
_cell_angle_gamma 119.78925
loop_
_atom_site_label
_atom_site_type_symbol
_atom_site_fract_x
_atom_site_fract_y
_atom_site_fract_z
_atom_type_partial_charge
Zn0 Zn 0.47984 0.06849 0.24586 0.0
O1 O 0.45646 0.06264 0.31713 0.0
C2 C 0.51881 0.09744 0.33067 0.0
Zn3 Zn 0.48487 0.10577 0.24221 0.0
C4 C 0.4492 0.07629 0.33747 0.0
O5 O 0.45782 0.09741 0.31523 0.0
C6 C 0.51532 0.09597 0.15108 0.0
O7 O 0.4572 0.09656 0.17115 0.0
O8 O 0.45406 0.06133 0.18203 0.0
N9 N 0.49473 0.14249 0.23976 0.0
C10 C 0.48345 0.15538 0.23063 0.0
C11 C 0.52026 0.18049 0.24421 0.0
N12 N 0.5176 0.15834 0.24784 0.0
N13 N 0.49917 0.17941 0.23307 0.0
C14 C 0.44362 0.01409 0.25353 0.0
C15 C 0.4638 0.99726 0.23105 0.0
N16 N 0.46647 0.03181 0.24389 0.0
N17 N 0.47888 0.02122 0.22875 0.0
N18 N 0.44145 0.99231 0.24584 0.0
H19 H 0.42407 0.03368 0.25011 0.0
H20 H 0.40575 1.00165 0.2562 0.0
H21 H 0.42246 0.01905 0.3205 0.0
C22 C 0.42288 0.01744 0.27046 0.0
C23 C 0.45706 0.14435 0.22203 0.0
H24 H 0.44755 0.12597 0.24144 0.0
H25 H 0.45049 0.15564 0.24362 0.0
H26 H 0.45315 0.14318 0.17259 0.0
O27 O 0.51093 0.1121 0.17112 0.0
O28 O 0.50426 0.07496 0.17397 0.0
C29 C 0.4472 0.0744 0.15638 0.0
O30 O 0.50693 0.07595 0.31079 0.0
O31 O 0.51341 0.1131 0.31167 0.0
Zn32 Zn 0.3822 0.46446 0.60043 0.0
O33 O 0.36348 0.43564 0.53224 0.0
C34 C 0.41892 0.4936 0.50152 0.0
Zn35 Zn 0.41337 0.45851 0.59799 0.0
C36 C 0.37423 0.42419 0.51796 0.0
O37 O 0.3941 0.43026 0.54193 0.0
C38 C 0.42341 0.49881 0.68296 0.0
O39 O 0.39973 0.43651 0.67163 0.0
O40 O 0.36729 0.43915 0.67903 0.0
N41 N 0.43794 0.4477 0.59671 0.0
C42 C 0.44574 0.4384 0.55295 0.0
C43 C 0.46048 0.43579 0.63658 0.0
N44 N 0.44657 0.44531 0.64895 0.0
N45 N 0.46081 0.43147 0.5762 0.0
C46 C 0.33746 0.46914 0.55957 0.0
C47 C 0.32682 0.47827 0.64251 0.0
N48 N 0.35319 0.4708 0.60283 0.0
N49 N 0.34647 0.47654 0.65421 0.0
N50 N 0.32053 0.47355 0.58342 0.0
H51 H 0.35843 0.47054 0.48137 0.0
H52 H 0.32897 0.44494 0.48468 0.0
H53 H 0.33287 0.47391 0.46433 0.0
C54 C 0.33963 0.46451 0.49363 0.0
C55 C 0.43655 0.43348 0.48871 0.0
H56 H 0.43506 0.44877 0.4705 0.0
H57 H 0.44748 0.42902 0.45824 0.0
H58 H 0.41864 0.41724 0.48844 0.0
O59 O 0.43342 0.48784 0.65927 0.0
O60 O 0.40214 0.49292 0.66654 0.0
C61 C 0.38056 0.43106 0.69903 0.0
O62 O 0.39956 0.49042 0.52628 0.0
O63 O 0.42851 0.48176 0.52153 0.0
Zn64 Zn 0.938 0.38181 0.92389 0.0
O65 O 0.95167 0.36308 0.86586 0.0
C66 C 0.94003 0.41198 0.81245 0.0
Zn67 Zn 0.97197 0.41591 0.91059 0.0
C68 C 0.9737 0.37536 0.85139 0.0
O69 O 0.98532 0.39717 0.86617 0.0
C70 C 0.93783 0.42474 0.98409 0.0
O71 O 0.98319 0.40898 0.98965 0.0
O72 O 0.95292 0.37322 1.00674 0.0
N73 N 1.00508 0.44433 0.89911 0.0
C74 C 0.01856 0.46297 0.93543 0.0
C75 C 0.03782 0.46841 0.85294 0.0
N76 N 1.01742 0.44723 0.84858 0.0
N77 N 0.03906 0.47897 0.90703 0.0
C78 C 0.88861 0.33631 0.88919 0.0
C79 C 0.8746 0.31965 0.9747 0.0
N80 N 0.90484 0.34996 0.93193 0.0
N81 N 0.89605 0.33942 0.98499 0.0
N82 N 0.86939 0.31724 0.91482 0.0
H83 H 0.91156 0.34947 0.81044 0.0
H84 H 0.88247 0.32376 0.79623 0.0
H85 H 0.88555 0.35294 0.80808 0.0
C86 C 0.89232 0.3408 0.82207 0.0
C87 C 1.01015 0.46717 0.99578 0.0
H88 H 0.99601 0.45036 1.01605 0.0
H89 H 0.02526 0.47557 0.0283 0.0
H90 H 1.00275 0.47934 0.98957 0.0
O91 O 0.95796 0.4356 0.95689 0.0
O92 O 0.92565 0.40179 0.98141 0.0
C93 C 0.97351 0.39042 0.02238 0.0
O94 O 0.92549 0.3933 0.84268 0.0
O95 O 0.96153 0.42386 0.82985 0.0
Zn96 Zn 0.55188 0.925 0.25676 0.0
O97 O 0.57931 0.94664 0.18721 0.0
C98 C 0.51356 0.92293 0.17283 0.0
Zn99 Zn 0.54736 0.95741 0.2667 0.0
C100 C 0.58413 0.96803 0.17319 0.0
O101 O 0.57265 0.97694 0.19929 0.0
C102 C 0.51463 0.91594 0.3514 0.0
O103 O 0.57402 0.97233 0.32967 0.0
O104 O 0.58042 0.94185 0.3285 0.0
N105 N 0.54002 0.98461 0.28264 0.0
C106 C 0.52899 0.98317 0.33588 0.0
C107 C 0.50833 0.98675 0.26724 0.0
N108 N 0.52772 0.9882 0.24004 0.0
N109 N 0.50788 0.98222 0.32753 0.0
C110 C 0.55922 0.88189 0.20346 0.0
C111 C 0.559 0.86482 0.28662 0.0
N112 N 0.55752 0.89527 0.24916 0.0
N113 N 0.55752 0.8845 0.30052 0.0
N114 N 0.56008 0.86251 0.22589 0.0
H115 H 0.55186 0.89979 0.13065 0.0
H116 H 0.57716 0.89571 0.11891 0.0
H117 H 0.54754 0.87029 0.11181 0.0
C118 C 0.5587 0.88718 0.13736 0.0
C119 C 0.53993 0.98506 0.39741 0.0
H120 H 0.5419 0.96929 0.40758 0.0
H121 H 0.55816 1.00099 0.39807 0.0
H122 H 0.52896 0.98699 0.43361 0.0
O123 O 0.52183 0.93727 0.33478 0.0
O124 O 0.52392 0.90457 0.32645 0.0
C125 C 0.58584 0.96276 0.34843 0.0
O126 O 0.52362 0.91063 0.18621 0.0
O127 O 0.52026 0.94266 0.20038 0.0
Zn128 Zn 0.66116 0.57049 0.61015 0.0
O129 O 0.67027 0.59669 0.53335 0.0
C130 C 0.6235 0.52993 0.52968 0.0
Zn131 Zn 0.62487 0.56604 0.61676 0.0
C132 C 0.65335 0.60068 0.51867 0.0
O133 O 0.6338 0.58967 0.547 0.0
C134 C 0.62861 0.53458 0.70956 0.0
O135 O 0.63886 0.59446 0.67611 0.0
O136 O 0.67544 0.60077 0.67568 0.0
N137 N 0.59466 0.56775 0.62487 0.0
C138 C 0.57946 0.56217 0.67183 0.0
C139 C 0.56631 0.57427 0.60076 0.0
N140 N 0.58712 0.57657 0.58159 0.0
N141 N 0.55986 0.56351 0.65617 0.0
C142 C 0.70948 0.57406 0.56078 0.0
C143 C 0.72445 0.5703 0.64347 0.0
N144 N 0.69434 0.57206 0.60623 0.0
N145 N 0.70383 0.56978 0.6574 0.0
N146 N 0.72862 0.57304 0.58306 0.0
H147 H 0.7136 0.5947 0.48097 0.0
H148 H 0.71191 0.56626 0.46646 0.0
H149 H 0.68525 0.56755 0.48636 0.0
C150 C 0.70468 0.57554 0.49474 0.0
C151 C 0.58571 0.56 0.73651 0.0
H152 H 0.57645 0.56616 0.76833 0.0
H153 H 0.57997 0.54105 0.747 0.0
H154 H 0.60517 0.57081 0.74464 0.0
O155 O 0.61477 0.54127 0.68735 0.0
O156 O 0.64986 0.54382 0.68786 0.0
C157 C 0.66016 0.60653 0.694 0.0
O158 O 0.6456 0.54058 0.54465 0.0
O159 O 0.60992 0.53686 0.5537 0.0
Zn160 Zn 0.05863 0.62024 0.95797 0.0
O161 O 0.05337 0.64217 1.01499 0.0
C162 C 0.08991 0.61453 0.05079 0.0
Zn163 Zn 0.09646 0.65058 0.94954 0.0
C164 C 0.06811 0.66306 0.03239 0.0
O165 O 0.0896 0.67276 1.01376 0.0
C166 C 0.08592 0.60677 0.87207 0.0
O167 O 0.08539 0.66446 0.87166 0.0
O168 O 0.04919 0.63426 0.88593 0.0
N169 N 0.13196 0.67869 0.94228 0.0
C170 C 0.14718 0.69038 0.89562 0.0
C171 C 0.1638 0.70967 0.97661 0.0
N172 N 0.14256 0.69075 0.99237 0.0
N173 N 0.16732 0.71005 0.91602 0.0
C174 C 1.00946 0.59222 0.01851 0.0
C175 C 1.00927 0.58885 0.97802 0.0
N176 N 0.02243 0.5966 0.96878 0.0
N177 N 1.01144 0.5851 0.91786 0.0
N178 N 0.98733 0.5746 1.00988 0.0
H179 H 0.03653 0.60744 0.09462 0.0
H180 H 0.01822 0.62126 0.08667 0.0
H181 H 1.00572 0.59241 0.1207 0.0
C182 C 0.01826 0.60403 0.08486 0.0
C183 C 0.1417 0.68322 0.83018 0.0
H184 H 0.1226 0.66986 0.82362 0.0
H185 H 0.14674 0.69928 0.80152 0.0
H186 H 0.15234 0.67489 0.81501 0.0
O187 O 0.10217 0.62783 0.88779 0.0
O188 O 0.0649 0.59808 0.89455 0.0
C189 C 0.06344 0.65265 0.85599 0.0
O190 O 0.06835 0.60489 0.03227 0.0
O191 O 0.1056 0.63419 0.02584 0.0
Zn192 Zn 0.9283 0.55196 0.41187 0.0
O193 O 0.94673 0.57626 0.4888 0.0
C194 C 0.93129 0.51338 0.48875 0.0
Zn195 Zn 0.96169 0.55001 0.40013 0.0
C196 C 0.9686 0.58293 0.50106 0.0
O197 O 0.97946 0.57468 0.46951 0.0
C198 C 0.92336 0.51875 0.30845 0.0
O199 O 0.97242 0.57837 0.34183 0.0
O200 O 0.94129 0.58338 0.35169 0.0
N201 N 0.99147 0.54769 0.3775 0.0
C202 C 0.9957 0.54486 0.32053 0.0
C203 C 0.99736 0.54185 0.3605 0.0
N204 N 0.99946 0.53893 0.42111 0.0
N205 N 1.00286 0.52908 0.31601 0.0
C206 C 0.88799 0.56651 0.43931 0.0
C207 C 0.85803 0.53146 0.45084 0.0
N208 N 0.89586 0.55069 0.43027 0.0
N209 N 0.87707 0.529 0.43739 0.0
N210 N 0.8642 0.55483 0.4524 0.0
H211 H 0.90328 0.60005 0.39261 0.0
H212 H 0.89778 0.60182 0.47233 0.0
H213 H 0.92267 0.59803 0.44803 0.0
C214 C 0.90392 0.59319 0.43849 0.0
C215 C 0.991 0.55625 0.26041 0.0
H216 H 1.00156 0.57614 0.26303 0.0
H217 H 0.99668 0.55021 0.2195 0.0
H218 H 0.97199 0.55103 0.25533 0.0
O219 O 0.94363 0.52447 0.33008 0.0
O220 O 0.91169 0.52797 0.33228 0.0
C221 C 0.9621 0.59027 0.32985 0.0
O222 O 0.91698 0.5209 0.47406 0.0
O223 O 0.95151 0.52249 0.4629 0.0
Zn224 Zn 0.4118 0.95208 0.75321 0.0
O225 O 0.40352 0.96702 0.68148 0.0
C226 C 0.40447 0.91091 0.6661 0.0
Zn227 Zn 0.37479 0.92197 0.74747 0.0
C228 C 0.38406 0.95995 0.65377 0.0
O229 O 0.36611 0.93986 0.67 0.0
C230 C 0.4071 0.91853 0.84792 0.0
O231 O 0.36876 0.94493 0.81484 0.0
O232 O 0.40639 0.97347 0.81141 0.0
N233 N 0.33902 0.89479 0.75714 0.0
C234 C 0.32828 0.87054 0.76191 0.0
C235 C 0.30138 0.88003 0.77655 0.0
N236 N 0.32213 0.9005 0.76614 0.0
N237 N 0.30458 0.8608 0.77415 0.0
C238 C 0.45293 0.99877 0.71515 0.0
C239 C 0.47238 0.98356 0.6751 0.0
N240 N 0.44544 0.97712 0.74079 0.0
N241 N 0.45803 0.96805 0.71687 0.0
N242 N 0.4691 1.00274 0.67145 0.0
H243 H 0.45395 0.03293 0.70812 0.0
H244 H 0.42708 1.009 0.74222 0.0
H245 H 0.45426 0.02269 0.78455 0.0
C246 C 0.44668 0.01696 0.73825 0.0
C247 C 0.34136 0.85674 0.7583 0.0
H248 H 0.33389 0.84175 0.79158 0.0
H249 H 0.33919 0.84906 0.71194 0.0
H250 H 0.3607 0.8685 0.76668 0.0
O251 O 0.38611 0.90649 0.82488 0.0
O252 O 0.42161 0.93871 0.82528 0.0
C253 C 0.38547 0.96572 0.8314 0.0
O254 O 0.41812 0.93052 0.69237 0.0
O255 O 0.38223 0.90063 0.67893 0.0
Zn256 Zn 0.48971 0.39082 0.12191 0.0
O257 O 0.46007 0.37887 0.18946 0.0
C258 C 0.52517 0.41736 0.21927 0.0
Zn259 Zn 0.49554 0.4285 0.13071 0.0
C260 C 0.45482 0.39451 0.2087 0.0
O261 O 0.4674 0.41602 0.1913 0.0
C262 C 0.5297 0.42712 0.03986 0.0
O263 O 0.47199 0.4247 0.06137 0.0
O264 O 0.46384 0.38718 0.04911 0.0
N265 N 0.50394 0.46312 0.15335 0.0
C266 C 0.52773 0.4779 0.15598 0.0
C267 C 0.51447 0.47669 0.24535 0.0
N268 N 0.49567 0.46365 0.20843 0.0
N269 N 0.5349 0.48525 0.21351 0.0
C270 C 0.48455 0.34017 0.15436 0.0
C271 C 0.48127 0.32364 0.06836 0.0
N272 N 0.48376 0.35516 0.11194 0.0
N273 N 0.4816 0.34464 0.05857 0.0
N274 N 0.48332 0.32032 0.12824 0.0
H275 H 0.47703 0.35552 0.23313 0.0
H276 H 0.47594 0.32729 0.24677 0.0
H277 H 0.50421 0.35448 0.23697 0.0
C278 C 0.48534 0.34454 0.22164 0.0
C279 C 0.54322 0.48911 0.10102 0.0
H280 H 0.55561 0.48203 0.09409 0.0
H281 H 0.53215 0.48566 0.05958 0.0
H282 H 0.55444 0.50872 0.10828 0.0
O283 O 0.52319 0.44053 0.06611 0.0
O284 O 0.51916 0.40476 0.05345 0.0
C285 C 0.46033 0.4046 0.03415 0.0
O286 O 0.51593 0.39693 0.19352 0.0
O287 O 0.51908 0.43225 0.20165 0.0
Zn288 Zn 0.1089 0.47642 0.4567 0.0
O289 O 0.10008 0.44799 0.52596 0.0
C290 C 0.09712 0.50491 0.54977 0.0
Zn291 Zn 0.07132 0.46934 0.45458 0.0
C292 C 0.078 0.43661 0.54029 0.0
O293 O 0.06427 0.44294 0.51639 0.0
C294 C 0.09919 0.50895 0.36897 0.0
O295 O 0.06643 0.44698 0.38324 0.0
O296 O 0.10213 0.4509 0.38162 0.0
N297 N 0.03521 0.45574 0.45643 0.0
C298 C 1.01732 0.43328 0.44336 0.0
C299 C 1.00143 0.45337 0.4744 0.0
N300 N 0.02524 0.46802 0.47712 0.0
N301 N 0.99574 0.4313 0.45337 0.0
C302 C 0.15666 0.47342 0.45992 0.0
C303 C 0.18288 0.50968 0.47841 0.0
N304 N 0.14521 0.48634 0.46083 0.0
N305 N 0.16166 0.50886 0.47217 0.0
N306 N 0.18043 0.48768 0.47096 0.0
H307 H 0.14666 0.44262 0.40403 0.0
H308 H 0.15194 0.43866 0.48256 0.0
H309 H 0.12482 0.43836 0.46005 0.0
C310 C 0.14423 0.44671 0.4517 0.0
C311 C 0.0207 0.41266 0.42416 0.0
H312 H 1.00489 0.39527 0.43695 0.0
H313 H 0.0231 0.41318 0.37411 0.0
H314 H 0.03667 0.41353 0.44483 0.0
O315 O 0.07814 0.49654 0.39061 0.0
O316 O 0.11568 0.50485 0.38795 0.0
C317 C 0.08093 0.44136 0.36055 0.0
O318 O 0.11408 0.50178 0.53014 0.0
O319 O 0.07652 0.49294 0.52604 0.0
Zn320 Zn 0.63443 0.06726 0.74895 0.0
O321 O 0.65175 0.05737 0.68873 0.0
C322 C 0.62752 0.09678 0.65154 0.0
Zn323 Zn 0.6652 0.10448 0.74852 0.0
C324 C 0.67132 0.07104 0.66317 0.0
O325 O 0.68273 0.09318 0.6784 0.0
C326 C 0.62506 0.09769 0.83375 0.0
O327 O 0.68111 0.09512 0.82672 0.0
O328 O 0.64994 0.05927 0.81896 0.0
N329 N 0.69403 0.13964 0.74515 0.0
C330 C 0.70894 0.15608 0.78621 0.0
C331 C 0.71911 0.17225 0.6987 0.0
N332 N 0.7006 0.14988 0.69097 0.0
N333 N 0.72494 0.17676 0.75804 0.0
C334 C 0.59705 0.01688 0.7079 0.0
C335 C 0.58911 0.9964 0.78868 0.0
N336 N 0.61003 0.03199 0.75234 0.0
N337 N 0.60602 0.019 0.80215 0.0
N338 N 0.58213 0.99455 0.72992 0.0
H339 H 0.59304 1.00921 0.61151 0.0
H340 H 0.5847 0.03088 0.63676 0.0
H341 H 0.61548 0.03914 0.62979 0.0
C342 C 0.59764 0.02443 0.64288 0.0
C343 C 0.70697 0.15218 0.85358 0.0
H344 H 0.71943 0.14588 0.86778 0.0
H345 H 0.71198 0.16922 0.87781 0.0
H346 H 0.68856 0.13833 0.86647 0.0
O347 O 0.64567 0.11378 0.81473 0.0
O348 O 0.61598 0.07646 0.81273 0.0
C349 C 0.66895 0.07352 0.84594 0.0
O350 O 0.61742 0.07581 0.67506 0.0
O351 O 0.6477 0.11261 0.6731 0.0
Zn352 Zn 0.56016 0.6473 0.09847 0.0
O353 O 0.58739 0.6653 0.1696 0.0
C354 C 0.5279 0.60494 0.18649 0.0
Zn355 Zn 0.56562 0.61536 0.09816 0.0
C356 C 0.59597 0.65276 0.19112 0.0
O357 O 0.58893 0.63203 0.16997 0.0
C358 C 0.5291 0.60746 1.00624 0.0
O359 O 0.59146 0.63454 0.03524 0.0
O360 O 0.58738 0.66617 0.0254 0.0
N361 N 0.57824 0.59165 0.09516 0.0
C362 C 0.60068 0.59594 0.10653 0.0
C363 C 0.57903 0.55856 0.09148 0.0
N364 N 0.56489 0.56838 0.0845 0.0
N365 N 0.60165 0.57552 0.10495 0.0
C366 C 0.5638 0.69909 0.10293 0.0
C367 C 0.52782 0.68942 0.12293 0.0
N368 N 0.55097 0.6747 0.10378 0.0
N369 N 0.52862 0.66892 0.11611 0.0
N370 N 0.54965 0.70882 0.11492 0.0
H371 H 0.59426 0.71906 0.04605 0.0
H372 H 0.59829 0.72938 0.12363 0.0
H373 H 0.59867 0.70208 0.10428 0.0
C374 C 0.59033 0.71317 0.0942 0.0
C375 C 0.62208 0.61983 0.12134 0.0
H376 H 0.62074 0.63508 0.10314 0.0
H377 H 0.62404 0.62194 0.17128 0.0
H378 H 0.63855 0.6206 0.10329 0.0
O379 O 0.54123 0.5982 0.02632 0.0
O380 O 0.53279 0.62754 0.02825 0.0
C381 C 0.59793 0.65451 1.01018 0.0
O382 O 0.53325 0.62623 0.16986 0.0
O383 O 0.53887 0.59516 0.16214 0.0
H384 H 0.4717 0.18919 0.15326 0.0
H385 H 0.52056 0.218 0.30569 0.0
H386 H 0.5205 0.25622 0.29696 0.0
H387 H 0.49723 0.24307 0.06617 0.0
H388 H 0.46941 0.23955 0.03811 0.0
H389 H 0.4716 0.21348 0.05803 0.0
H390 H 0.43595 0.19968 0.13229 0.0
H391 H 0.43354 0.22563 0.11222 0.0
H392 H 0.43702 0.21992 0.19078 0.0
H393 H 0.51878 0.2926 0.26659 0.0
H394 H 0.51304 0.32426 0.22141 0.0
H395 H 0.46302 0.27316 0.0915 0.0
C396 C 0.48183 0.20331 0.18577 0.0
C397 C 0.49598 0.20034 0.23085 0.0
C398 C 0.50956 0.2197 0.27109 0.0
C399 C 0.50965 0.24155 0.26645 0.0
C400 C 0.496 0.24412 0.22119 0.0
C401 C 0.4821 0.22554 0.18181 0.0
C402 C 0.46973 0.23373 0.13621 0.0
C403 C 0.47746 0.23237 0.07075 0.0
C404 C 0.44244 0.21885 0.14331 0.0
C405 C 0.47913 0.25978 0.15582 0.0
C406 C 0.49428 0.26524 0.20494 0.0
C407 C 0.50633 0.28832 0.22939 0.0
C408 C 0.50261 0.30626 0.20386 0.0
C409 C 0.48649 0.30123 0.15488 0.0
C410 C 0.47491 0.27757 0.13004 0.0
H411 H 0.30078 0.50118 0.61255 0.0
H412 H 0.29117 0.44257 0.49569 0.0
H413 H 0.25512 0.44067 0.45179 0.0
H414 H 0.23839 0.47683 0.64604 0.0
H415 H 0.2398 0.50559 0.64754 0.0
H416 H 0.26579 0.50343 0.66697 0.0
H417 H 0.29035 0.53497 0.58437 0.0
H418 H 0.26444 0.53727 0.5648 0.0
H419 H 0.2797 0.53 0.50698 0.0
H420 H 0.21957 0.44531 0.41992 0.0
H421 H 0.18731 0.45499 0.40629 0.0
H422 H 0.21792 0.50836 0.54941 0.0
C423 C 0.29123 0.4881 0.57727 0.0
C424 C 0.2996 0.4727 0.55598 0.0
C425 C 0.28611 0.45545 0.51075 0.0
C426 C 0.26529 0.45399 0.48605 0.0
C427 C 0.25775 0.46962 0.50759 0.0
C428 C 0.27025 0.48626 0.55251 0.0
C429 C 0.25787 0.50038 0.56936 0.0
C430 C 0.25 0.49631 0.63646 0.0
C431 C 0.27406 0.52725 0.55554 0.0
C432 C 0.23645 0.4891 0.52696 0.0
C433 C 0.23674 0.47145 0.49151 0.0
C434 C 0.219 0.45883 0.44824 0.0
C435 C 0.20045 0.46423 0.44137 0.0
C436 C 0.1994 0.48186 0.47818 0.0
C437 C 0.21795 0.49457 0.52101 0.0
H438 H 0.84487 0.26886 0.93616 0.0
H439 H 0.84284 0.32532 0.83302 0.0
H440 H 0.80471 0.29544 0.78626 0.0
H441 H 0.82093 0.22384 0.81792 0.0
H442 H 0.80356 0.19918 0.86887 0.0
H443 H 0.83044 0.22504 0.89557 0.0
H444 H 0.80644 0.23049 0.98266 0.0
H445 H 0.77943 0.20474 0.95591 0.0
H446 H 0.78064 0.23326 0.96461 0.0
H447 H 0.76735 0.25975 0.74914 0.0
H448 H 0.73367 0.22016 0.72055 0.0
H449 H 0.75874 0.18553 0.84632 0.0
C450 C 0.83632 0.27483 0.90371 0.0
C451 C 0.84714 0.29944 0.88723 0.0
C452 C 0.83533 0.30659 0.84494 0.0
C453 C 0.8135 0.28973 0.81867 0.0
C454 C 0.80345 0.26564 0.83525 0.0
C455 C 0.81444 0.2581 0.87662 0.0
C456 C 0.79995 0.23093 0.88498 0.0
C457 C 0.81459 0.21905 0.86567 0.0
C458 C 0.79109 0.22448 0.95097 0.0
C459 C 0.7792 0.22441 0.84156 0.0
C460 C 0.78162 0.24485 0.81382 0.0
C461 C 0.76524 0.24366 0.77081 0.0
C462 C 0.74613 0.22108 0.75485 0.0
C463 C 0.74327 0.19971 0.78163 0.0
C464 C 0.76001 0.2015 0.82616 0.0
H465 H 0.53139 0.72648 0.19886 0.0
H466 H 0.57969 0.74758 0.04487 0.0
H467 H 0.58734 0.78932 0.05448 0.0
H468 H 0.50542 0.76322 0.16343 0.0
H469 H 0.50329 0.77041 0.24171 0.0
H470 H 0.5021 0.74249 0.22303 0.0
H471 H 0.53754 0.75298 0.29571 0.0
H472 H 0.53872 0.78084 0.31495 0.0
H473 H 0.56503 0.78102 0.28626 0.0
H474 H 0.58896 0.82959 0.0813 0.0
H475 H 0.58601 0.86361 0.1254 0.0
H476 H 0.53641 0.81581 0.26111 0.0
C477 C 0.54368 0.73991 0.16731 0.0
C478 C 0.55528 0.73368 0.12176 0.0
C479 C 0.57112 0.75187 0.08124 0.0
C480 C 0.57535 0.77565 0.086 0.0
C481 C 0.56362 0.78115 0.13152 0.0
C482 C 0.5482 0.76372 0.17169 0.0
C483 C 0.53789 0.7741 0.21697 0.0
C484 C 0.51056 0.76182 0.2109 0.0
C485 C 0.54524 0.77212 0.28234 0.0
C486 C 0.54982 0.80009 0.19619 0.0
C487 C 0.5645 0.80389 0.14659 0.0
C488 C 0.57737 0.82665 0.11991 0.0
C489 C 0.57537 0.84592 0.14484 0.0
C490 C 0.56061 0.84248 0.19614 0.0
C491 C 0.54773 0.81911 0.22169 0.0
H492 H 0.74867 0.5458 0.60931 0.0
H493 H 0.75563 0.60275 0.49062 0.0
H494 H 0.79221 0.60554 0.44523 0.0
H495 H 0.81098 0.56979 0.63891 0.0
H496 H 0.80938 0.54093 0.63903 0.0
H497 H 0.78364 0.54325 0.66071 0.0
H498 H 0.75823 0.51198 0.57844 0.0
H499 H 0.78381 0.50935 0.557 0.0
H500 H 0.76841 0.51693 0.50053 0.0
H501 H 0.82941 0.60226 0.4145 0.0
H502 H 0.86085 0.59128 0.39716 0.0
H503 H 0.82909 0.53673 0.5369 0.0
C504 C 0.75782 0.55875 0.57344 0.0
C505 C 0.749 0.57377 0.55284 0.0
C506 C 0.76159 0.59059 0.50604 0.0
C507 C 0.78258 0.59247 0.4805 0.0
C508 C 0.79083 0.57742 0.5022 0.0
C509 C 0.77863 0.56073 0.54737 0.0
C510 C 0.79085 0.54641 0.56262 0.0
C511 C 0.7992 0.55034 0.62927 0.0
C512 C 0.77434 0.51958 0.5488 0.0
C513 C 0.81192 0.55759 0.5192 0.0
C514 C 0.81182 0.57558 0.48488 0.0
C515 C 0.82962 0.58827 0.44148 0.0
C516 C 0.84764 0.58213 0.43235 0.0
C517 C 0.84775 0.56343 0.46638 0.0
C518 C 0.82962 0.55123 0.51049 0.0
H519 H 0.26978 0.84556 0.85998 0.0
H520 H 0.29689 0.82015 0.71427 0.0
H521 H 0.26451 0.77848 0.73362 0.0
H522 H 0.25225 0.7951 0.96105 0.0
H523 H 0.22586 0.79525 0.9877 0.0
H524 H 0.2514 0.82276 0.96249 0.0
H525 H 0.2247 0.8291 0.88533 0.0
H526 H 0.19911 0.80154 0.91006 0.0
H527 H 0.20745 0.80586 0.83078 0.0
H528 H 0.22793 0.73889 0.76951 0.0
H529 H 0.19234 0.70598 0.82005 0.0
H530 H 0.189 0.75766 0.94076 0.0
C531 C 0.26896 0.8312 0.83231 0.0
C532 C 0.28627 0.83617 0.78636 0.0
C533 C 0.28441 0.81683 0.75092 0.0
C534 C 0.26585 0.79308 0.76122 0.0
C535 C 0.24914 0.78883 0.80708 0.0
C536 C 0.25064 0.80744 0.84217 0.0
C537 C 0.23058 0.79828 0.88872 0.0
C538 C 0.24063 0.80313 0.95384 0.0
C539 C 0.21451 0.80936 0.87806 0.0
C540 C 0.21745 0.77162 0.87443 0.0
C541 C 0.2283 0.76644 0.82706 0.0
C542 C 0.21925 0.74288 0.80631 0.0
C543 C 0.19879 0.72424 0.83484 0.0
C544 C 0.18744 0.72917 0.88363 0.0
C545 C 0.19712 0.75327 0.90339 0.0
H546 H 0.5843 0.06551 0.89416 0.0
H547 H 0.6352 0.14175 0.88049 0.0
H548 H 0.61213 0.14994 0.95797 0.0
H549 H 0.53162 0.07112 0.91236 0.0
H550 H 0.51759 0.04643 0.96522 0.0
H551 H 0.53805 0.04683 0.90866 0.0
H552 H 0.56345 0.04235 0.99249 0.0
H553 H 0.54318 0.04188 0.04956 0.0
H554 H 0.57455 0.06365 0.05454 0.0
H555 H 0.58272 0.1495 0.03765 0.0
H556 H 0.55134 0.14037 0.11501 0.0
H557 H 0.52055 0.06432 0.07698 0.0
C558 C 0.59059 0.084 0.90695 0.0
C559 C 0.61155 0.10303 0.88059 0.0
C560 C 0.61921 0.12687 0.8997 0.0
C561 C 0.60617 0.13169 0.94365 0.0
C562 C 0.58551 0.11247 0.96833 0.0
C563 C 0.57788 0.08909 0.95074 0.0
C564 C 0.55532 0.07155 0.98451 0.0
C565 C 0.53439 0.05821 0.94004 0.0
C566 C 0.5594 0.05382 0.02254 0.0
C567 C 0.55162 0.08861 0.02481 0.0
C568 C 0.56902 0.11218 1.01438 0.0
C569 C 0.5691 0.13108 0.04613 0.0
C570 C 0.55115 0.12572 0.08996 0.0
C571 C 0.53351 0.10163 0.10242 0.0
C572 C 0.53383 0.08293 0.06894 0.0
H573 H 0.51526 0.56084 0.23635 0.0
H574 H 0.49792 0.61804 0.24424 0.0
H575 H 0.46692 0.59512 0.32198 0.0
H576 H 0.45467 0.51084 0.25556 0.0
H577 H 0.46456 0.49409 0.30118 0.0
H578 H 0.48416 0.5148 0.2446 0.0
H579 H 0.51652 0.53674 0.32834 0.0
H580 H 0.49627 0.51533 0.38257 0.0
H581 H 0.50856 0.54703 0.39625 0.0
H582 H 0.43743 0.56529 0.40042 0.0
H583 H 0.41437 0.53305 0.47532 0.0
H584 H 0.45126 0.49561 0.41597 0.0
C585 C 0.50492 0.5686 0.2541 0.0
C586 C 0.50912 0.59136 0.23368 0.0
C587 C 0.49515 0.60072 0.25881 0.0
C588 C 0.47741 0.58775 0.30299 0.0
C589 C 0.47376 0.56537 0.32191 0.0
C590 C 0.48723 0.55594 0.29824 0.0
C591 C 0.48034 0.53185 0.32709 0.0
C592 C 0.47032 0.51172 0.2792 0.0
C593 C 0.50172 0.53286 0.36059 0.0
C594 C 0.46101 0.52919 0.37134 0.0
C595 C 0.45729 0.5486 0.36731 0.0
C596 C 0.44029 0.55008 0.40385 0.0
C597 C 0.42715 0.53159 0.44617 0.0
C598 C 0.43115 0.51187 0.45236 0.0
C599 C 0.44809 0.51063 0.41345 0.0
H600 H 0.96888 0.45083 0.7427 0.0
H601 H 0.89443 0.39636 0.76613 0.0
H602 H 0.88317 0.41639 0.68629 0.0
H603 H 0.96018 0.50007 0.72545 0.0
H604 H 0.9828 0.51511 0.66785 0.0
H605 H 0.98602 0.49614 0.72241 0.0
H606 H 0.99032 0.47118 0.64048 0.0
H607 H 0.9872 0.48871 0.58107 0.0
H608 H 0.96765 0.45658 0.58353 0.0
H609 H 0.88063 0.44449 0.60375 0.0
H610 H 0.88744 0.47557 0.52619 0.0
H611 H 0.96347 0.51084 0.56284 0.0
C612 C 0.95014 0.4428 0.73102 0.0
C613 C 0.93253 0.42184 0.7608 0.0
C614 C 0.90828 0.41225 0.74376 0.0
C615 C 0.90174 0.42362 0.69866 0.0
C616 C 0.91964 0.44457 0.67116 0.0
C617 C 0.94338 0.45391 0.68688 0.0
C618 C 0.95948 0.47657 0.65168 0.0
C619 C 0.97285 0.49824 0.69446 0.0
C620 C 0.97717 0.47306 0.61173 0.0
C621 C 0.94113 0.47884 0.61383 0.0
C622 C 0.91822 0.46031 0.62517 0.0
C623 C 0.89854 0.459 0.59466 0.0
C624 C 0.9025 0.47679 0.55099 0.0
C625 C 0.92596 0.49554 0.53817 0.0
C626 C 0.9453 0.49666 0.57124 0.0
H627 H 0.43128 0.94593 0.94408 0.0
H628 H 0.40403 0.87444 0.87042 0.0
H629 H 0.42702 0.86625 0.94869 0.0
H630 H 0.4891 0.95845 0.97061 0.0
H631 H 0.49307 0.97491 0.04022 0.0
H632 H 0.47237 0.97371 0.98369 0.0
H633 H 0.43821 0.95676 0.06338 0.0
H634 H 0.45884 0.95814 0.1206 0.0
H635 H 0.43187 0.93018 0.10573 0.0
H636 H 0.45802 0.86861 0.03033 0.0
H637 H 0.48944 0.87968 0.10924 0.0
H638 H 0.49449 0.94937 0.12761 0.0
C639 C 0.42956 0.92826 0.94549 0.0
C640 C 0.4156 0.91069 0.90162 0.0
C641 C 0.41416 0.88796 0.90436 0.0
C642 C 0.42739 0.88331 0.94837 0.0
C643 C 0.44173 0.90147 0.98972 0.0
C644 C 0.44239 0.92334 0.98905 0.0
C645 C 0.45965 0.94041 0.03605 0.0
C646 C 0.47973 0.9632 1.00581 0.0
C647 C 0.44635 0.94675 0.08429 0.0
C648 C 0.46915 0.92507 0.06278 0.0
C649 C 0.45876 0.90264 0.03585 0.0
C650 C 0.46592 0.88603 0.05205 0.0
C651 C 0.48387 0.89249 0.09685 0.0
C652 C 0.49449 0.91535 0.12526 0.0
C653 C 0.48676 0.93164 0.10758 0.0
H654 H 0.51892 0.42701 0.33508 0.0
H655 H 0.57195 0.4279 0.21286 0.0
H656 H 0.60402 0.45416 0.28504 0.0
H657 H 0.54674 0.48369 0.37322 0.0
H658 H 0.53972 0.48099 0.45247 0.0
H659 H 0.52007 0.45783 0.40067 0.0
H660 H 0.52339 0.42617 0.46386 0.0
H661 H 0.54259 0.44872 0.51785 0.0
H662 H 0.55237 0.42994 0.4815 0.0
H663 H 0.63052 0.48728 0.36354 0.0
H664 H 0.64771 0.51898 0.44286 0.0
H665 H 0.5765 0.49569 0.51201 0.0
C666 C 0.53719 0.43162 0.32521 0.0
C667 C 0.54291 0.42492 0.26922 0.0
C668 C 0.56711 0.43212 0.25653 0.0
C669 C 0.58546 0.44728 0.29713 0.0
C670 C 0.57926 0.45474 0.35069 0.0
C671 C 0.55555 0.44632 0.36556 0.0
C672 C 0.55335 0.45809 0.42295 0.0
C673 C 0.53903 0.47085 0.41137 0.0
C674 C 0.54224 0.43961 0.47457 0.0
C675 C 0.57933 0.47589 0.43605 0.0
C676 C 0.59419 0.47344 0.39477 0.0
C677 C 0.61894 0.48886 0.39667 0.0
C678 C 0.62858 0.5069 0.44192 0.0
C679 C 0.61353 0.50988 0.48411 0.0
C680 C 0.58858 0.49396 0.48078 0.0
H681 H 0.05623 0.5719 0.78941 0.0
H682 H 0.12948 0.61063 0.85335 0.0
H683 H 0.14066 0.58909 0.77865 0.0
H684 H 0.05386 0.51436 0.75585 0.0
H685 H 0.03627 0.50914 0.68804 0.0
H686 H 0.03368 0.52618 0.74925 0.0
H687 H 0.04312 0.56036 0.67519 0.0
H688 H 0.04721 0.54435 0.61336 0.0
H689 H 0.07089 0.574 0.6331 0.0
H690 H 0.14381 0.56237 0.69725 0.0
H691 H 0.13858 0.53424 0.61345 0.0
H692 H 0.06398 0.51485 0.59922 0.0
C693 C 0.07449 0.5755 0.78848 0.0
C694 C 0.0919 0.59277 0.82807 0.0
C695 C 0.1158 0.59747 0.8238 0.0
C696 C 0.12233 0.58527 0.78152 0.0
C697 C 0.10486 0.56853 0.7429 0.0
C698 C 0.08141 0.56367 0.74577 0.0
C699 C 0.06645 0.54574 0.69671 0.0
C700 C 0.04638 0.52246 0.72425 0.0
C701 C 0.05636 0.55681 0.65187 0.0
C702 C 0.08497 0.54117 0.66672 0.0
C703 C 0.107 0.55427 0.69412 0.0
C704 C 0.12659 0.55211 0.67538 0.0
C705 C 0.12346 0.53603 0.62781 0.0
C706 C 0.10089 0.52227 0.5995 0.0
C707 C 0.08154 0.52511 0.61945 0.0
H708 H 0.37832 0.96084 0.95397 0.0
H709 H 0.38901 1.00825 0.80297 0.0
H710 H 0.39885 0.04165 0.87444 0.0
H711 H 0.35606 0.99055 0.06981 0.0
H712 H 0.37238 0.9859 0.12978 0.0
H713 H 0.35989 0.96456 0.0683 0.0
H714 H 0.40176 0.9698 0.04637 0.0
H715 H 0.41428 0.99116 0.10715 0.0
H716 H 0.4265 0.99942 0.03145 0.0
H717 H 0.41696 0.07199 0.96089 0.0
H718 H 0.43957 0.09462 0.05255 0.0
H719 H 0.41543 0.02707 0.14644 0.0
C720 C 0.38109 0.97781 0.93646 0.0
C721 C 0.38189 0.98172 0.87318 0.0
C722 C 0.38735 1.00468 0.85145 0.0
C723 C 0.39317 0.02383 0.8918 0.0
C724 C 0.39342 0.0198 0.95407 0.0
C725 C 0.38705 0.99715 0.97635 0.0
C726 C 0.39205 0.99817 0.04393 0.0
C727 C 0.3687 0.98395 0.08008 0.0
C728 C 0.40969 0.98913 0.05798 0.0
C729 C 0.40321 0.02492 0.05545 0.0
C730 C 0.40368 0.03723 1.0036 0.0
C731 C 0.41602 0.06244 1.00229 0.0
C732 C 0.42873 0.07525 0.05466 0.0
C733 C 0.4291 0.06276 0.10726 0.0
C734 C 0.41526 0.03734 0.10773 0.0
H735 H 0.43315 0.42115 0.22232 0.0
H736 H 0.43013 0.35605 0.28836 0.0
H737 H 0.3992 0.35133 0.36375 0.0
H738 H 0.43248 0.44453 0.35789 0.0
H739 H 0.41453 0.45773 0.3367 0.0
H740 H 0.4318 0.45291 0.28012 0.0
H741 H 0.39442 0.42786 0.21491 0.0
H742 H 0.37648 0.4326 0.27026 0.0
H743 H 0.36861 0.40251 0.24797 0.0
H744 H 0.37378 0.35801 0.44257 0.0
H745 H 0.36052 0.37684 0.51997 0.0
H746 H 0.37974 0.43707 0.4002 0.0
C747 C 0.42566 0.40551 0.25164 0.0
C748 C 0.43412 0.38892 0.24934 0.0
C749 C 0.42382 0.36886 0.28882 0.0
C750 C 0.40619 0.36606 0.33163 0.0
C751 C 0.39873 0.38321 0.33349 0.0
C752 C 0.40814 0.40246 0.29394 0.0
C753 C 0.39955 0.42002 0.30885 0.0
C754 C 0.42082 0.44526 0.3218 0.0
C755 C 0.38382 0.42078 0.25743 0.0
C756 C 0.38484 0.40848 0.36545 0.0
C757 C 0.38396 0.38689 0.37808 0.0
C758 C 0.37376 0.37447 0.43198 0.0
C759 C 0.36581 0.38509 0.47544 0.0
C760 C 0.36819 0.40799 0.46518 0.0
C761 C 0.37647 0.419 0.40791 0.0
H762 H 0.03187 0.40193 0.5441 0.0
H763 H 0.09844 0.42794 0.64187 0.0
H764 H 0.07584 0.40186 0.7292 0.0
H765 H 1.00292 0.40948 0.65578 0.0
H766 H 0.97385 0.38421 0.63951 0.0
H767 H 0.99536 0.3975 0.57967 0.0
H768 H 0.99174 0.35625 0.5561 0.0
H769 H 0.97006 0.34271 0.61645 0.0
H770 H 0.99647 0.3398 0.61577 0.0
H771 H 0.04547 0.38107 0.81247 0.0
H772 H 1.0127 0.37292 0.88355 0.0
H773 H 0.9659 0.36284 0.73244 0.0
C774 C 0.04198 0.40141 0.58255 0.0
C775 C 0.06703 0.41685 0.58569 0.0
C776 C 0.07937 0.41595 0.63778 0.0
C777 C 0.06657 0.40117 0.6876 0.0
C778 C 0.04155 0.38732 0.68416 0.0
C779 C 0.02948 0.38733 0.63239 0.0
C780 C 1.00273 0.37537 0.64299 0.0
C781 C 0.9932 0.39268 0.62872 0.0
C782 C 0.98947 0.35214 0.60561 0.0
C783 C 1.0015 0.36993 0.71029 0.0
C784 C 0.02394 0.37601 0.73273 0.0
C785 C 0.02781 0.37562 0.79498 0.0
C786 C 1.00895 0.37064 0.83518 0.0
C787 C 0.98657 0.36657 0.81327 0.0
C788 C 0.98242 0.36472 0.75009 0.0
H789 H 0.59805 0.01412 0.13752 0.0
H790 H 0.61339 0.9564 0.10565 0.0
H791 H 0.64434 0.98191 0.03013 0.0
H792 H 0.60239 0.03216 0.98487 0.0
H793 H 0.6149 0.06348 1.00386 0.0
H794 H 0.59624 0.04077 0.05786 0.0
H795 H 0.63045 0.0611 0.13708 0.0
H796 H 0.64949 0.08293 0.08149 0.0
H797 H 0.65936 0.06457 0.11978 0.0
H798 H 0.67056 1.0126 0.94917 0.0
H799 H 0.68564 0.04272 0.86645 0.0
H800 H 0.65437 0.08083 0.95455 0.0
C801 C 0.60808 1.00682 0.11539 0.0
C802 C 0.60321 0.98312 0.12801 0.0
C803 C 0.61672 0.97443 0.09716 0.0
C804 C 0.63449 0.9889 0.05439 0.0
C805 C 0.63879 1.0122 0.04321 0.0
C806 C 0.62584 0.021 0.0729 0.0
C807 C 0.63225 0.04575 0.04948 0.0
C808 C 0.61016 0.04553 0.02233 0.0
C809 C 0.64356 0.06471 0.09998 0.0
C810 C 0.65044 0.04941 1.00067 0.0
C811 C 0.65426 0.03001 0.99816 0.0
C812 C 0.66819 0.02814 0.952 0.0
C813 C 0.67715 0.04563 0.90561 0.0
C814 C 0.67228 0.06488 0.90546 0.0
C815 C 0.65971 0.06726 0.95536 0.0
H816 H 0.62272 0.61753 0.50377 0.0
H817 H 0.68559 0.62095 0.42156 0.0
H818 H 0.68204 0.64411 0.33509 0.0
H819 H 0.58886 0.6045 0.37428 0.0
H820 H 0.57488 0.62153 0.39691 0.0
H821 H 0.58587 0.60942 0.45376 0.0
H822 H 0.61103 0.65264 0.49781 0.0
H823 H 0.60066 0.66449 0.43821 0.0
H824 H 0.63225 0.67645 0.44958 0.0
H825 H 0.66829 0.66321 0.25241 0.0
H826 H 0.64349 0.66979 0.17769 0.0
H827 H 0.58807 0.65005 0.31297 0.0
C828 C 0.63615 0.62343 0.4683 0.0
C829 C 0.65458 0.61743 0.46981 0.0
C830 C 0.67157 0.62558 0.42204 0.0
C831 C 0.66961 0.63874 0.37282 0.0
C832 C 0.65071 0.64372 0.37242 0.0
C833 C 0.63425 0.63611 0.41918 0.0
C834 C 0.61397 0.64099 0.40603 0.0
C835 C 0.5895 0.61773 0.40783 0.0
C836 C 0.61452 0.65977 0.45055 0.0
C837 C 0.62058 0.65119 0.3424 0.0
C838 C 0.64236 0.65365 0.32469 0.0
C839 C 0.65144 0.66159 0.26639 0.0
C840 C 0.63733 0.66557 0.22434 0.0
C841 C 0.61405 0.66085 0.23994 0.0
C842 C 0.60612 0.65466 0.30051 0.0
H843 H 0.07371 0.64443 0.74219 0.0
H844 H 0.02914 0.66497 0.84345 0.0
H845 H 1.0016 0.65385 0.75595 0.0
H846 H 0.06088 0.65971 0.58229 0.0
H847 H 0.06056 0.63351 0.55141 0.0
H848 H 0.07986 0.64937 0.61451 0.0
H849 H 0.06101 0.60971 0.67576 0.0
H850 H 0.04115 0.5939 0.61393 0.0
H851 H 0.02915 0.59349 0.6884 0.0
H852 H 0.9746 0.63237 0.66624 0.0
H853 H 0.95263 0.60574 0.5796 0.0
H854 H 1.01446 0.59822 0.53842 0.0
C855 C 0.05912 0.64823 0.74403 0.0
C856 C 0.05413 0.65662 0.79849 0.0
C857 C 0.03382 0.6596 0.80116 0.0
C858 C 1.01791 0.65302 0.75184 0.0
C859 C 0.02249 0.64335 0.70002 0.0
C860 C 0.04291 0.64142 0.69534 0.0
C861 C 0.04207 0.62742 0.63882 0.0
C862 C 0.06203 0.64346 0.5941 0.0
C863 C 0.04342 0.60481 0.65528 0.0
C864 C 1.01765 0.62091 0.61393 0.0
C865 C 1.0067 0.63048 0.64925 0.0
C866 C 0.98327 0.62524 0.63753 0.0
C867 C 0.97083 0.60996 0.58839 0.0
C868 C 0.98174 0.59989 0.55178 0.0
C869 C 1.00557 0.60575 0.56486 0.0
H870 H 0.42089 0.98562 0.35533 0.0
H871 H 0.42122 0.94799 0.19452 0.0
H872 H 0.41305 0.91308 0.25591 0.0
H873 H 0.45346 0.99618 0.41855 0.0
H874 H 0.45199 0.98504 0.4945 0.0
H875 H 0.42698 0.98661 0.46421 0.0
H876 H 0.4005 0.94293 0.4924 0.0
H877 H 0.42605 0.94187 0.52171 0.0
H878 H 0.40696 0.92021 0.46639 0.0
H879 H 0.4433 0.90812 0.30414 0.0
H880 H 0.48531 0.93658 0.28913 0.0
H881 H 0.48216 0.98433 0.42141 0.0
C882 C 0.41788 0.96929 0.33372 0.0
C883 C 0.42345 0.96989 0.27151 0.0
C884 C 0.41832 0.94833 0.24291 0.0
C885 C 0.4136 0.92838 0.27835 0.0
C886 C 0.41784 0.93183 0.34132 0.0
C887 C 0.41703 0.95094 0.37033 0.0
C888 C 0.43097 0.95667 0.42931 0.0
C889 C 0.44154 0.98275 0.45263 0.0
C890 C 0.4152 0.93936 0.48025 0.0
C891 C 0.44931 0.95006 0.40864 0.0
C892 C 0.43816 0.93069 0.36825 0.0
C893 C 0.45182 0.92369 0.33355 0.0
C894 C 0.47583 0.94022 0.32447 0.0
C895 C 0.4864 0.96286 0.35319 0.0
C896 C 0.47379 0.96699 0.39926 0.0
H897 H 0.48491 0.45584 0.46772 0.0
H898 H 0.4928 0.41552 0.61011 0.0
H899 H 0.52232 0.45264 0.66076 0.0
H900 H 0.54692 0.51811 0.49381 0.0
H901 H 0.53101 0.53374 0.4767 0.0
H902 H 0.52409 0.50682 0.43565 0.0
H903 H 0.47871 0.48819 0.46981 0.0
H904 H 0.48767 0.51634 0.5069 0.0
H905 H 0.47271 0.48902 0.5498 0.0
H906 H 0.52795 0.48953 0.72158 0.0
H907 H 0.5393 0.53069 0.75479 0.0
H908 H 0.5212 0.54555 0.57804 0.0
C909 C 0.49341 0.45493 0.50897 0.0
C910 C 0.48235 0.43451 0.54703 0.0
C911 C 0.49834 0.43246 0.58741 0.0
C912 C 0.51483 0.4536 0.61767 0.0
C913 C 0.51758 0.47528 0.59539 0.0
C914 C 0.50867 0.47644 0.53872 0.0
C915 C 0.51008 0.50052 0.52871 0.0
C916 C 0.52916 0.51564 0.48091 0.0
C917 C 0.48583 0.4983 0.51281 0.0
C918 C 0.51795 0.51113 0.59092 0.0
C919 C 0.5224 0.49658 0.62861 0.0
C920 C 0.52749 0.50215 0.68995 0.0
C921 C 0.53333 0.52534 0.70859 0.0
C922 C 0.53636 0.54263 0.66384 0.0
C923 C 0.52253 0.5336 0.61058 0.0
H924 H 0.02522 0.50248 0.83634 0.0
H925 H 0.06847 0.51032 0.99296 0.0
H926 H 0.05314 0.5343 0.04357 0.0
H927 H 0.02116 0.5587 0.85084 0.0
H928 H 0.98948 0.54385 0.83485 0.0
H929 H 1.00814 0.53474 0.79672 0.0
H930 H 0.98488 0.49227 0.82858 0.0
H931 H 0.96332 0.497 0.8689 0.0
H932 H 0.97925 0.48414 0.90706 0.0
H933 H 0.0198 0.5386 0.09201 0.0
H934 H 0.9905 0.55159 0.11252 0.0
H935 H 0.96742 0.53845 0.92625 0.0
C936 C 0.03354 0.5116 0.8782 0.0
C937 C 0.0472 0.50404 0.91176 0.0
C938 C 0.0574 0.51551 0.96742 0.0
C939 C 0.04811 0.52839 0.99727 0.0
C940 C 0.02954 0.52986 0.96901 0.0
C941 C 0.02342 0.52325 0.90892 0.0
C942 C 1.00051 0.52291 0.89167 0.0
C943 C 1.0051 0.54117 0.84079 0.0
C944 C 0.98079 0.49761 0.87303 0.0
C945 C 0.99456 0.5301 0.95178 0.0
C946 C 1.01099 0.53304 0.99621 0.0
C947 C 1.00806 0.53798 0.05633 0.0
C948 C 0.99078 0.54459 0.06801 0.0
C949 C 0.98026 0.54973 0.01798 0.0
C950 C 0.97743 0.53688 0.9637 0.0
H951 H 0.95149 0.42252 0.4852 0.0
H952 H 0.98472 0.39986 0.35227 0.0
H953 H 0.97135 0.41559 0.27112 0.0
H954 H 0.90651 0.42801 0.35703 0.0
H955 H 0.91134 0.45591 0.39006 0.0
H956 H 0.90535 0.43064 0.43747 0.0
H957 H 0.94147 0.45134 0.50051 0.0
H958 H 0.94799 0.47854 0.46355 0.0
H959 H 0.9706 0.47022 0.46625 0.0
H960 H 0.98799 0.45664 0.23776 0.0
H961 H 1.009 0.50085 0.2375 0.0
H962 H 0.96108 0.49937 0.37719 0.0
C963 C 0.95409 0.41933 0.43821 0.0
C964 C 0.97308 0.41513 0.42472 0.0
C965 C 0.97375 0.40748 0.36468 0.0
C966 C 0.96576 0.41612 0.31734 0.0
C967 C 0.95527 0.42987 0.3327 0.0
C968 C 0.94681 0.4293 0.39161 0.0
C969 C 0.9417 0.4498 0.40051 0.0
C970 C 0.9147 0.44062 0.39559 0.0
C971 C 0.95113 0.46317 0.46139 0.0
C972 C 0.95539 0.46543 0.34668 0.0
C973 C 0.96268 0.45342 0.30748 0.0
C974 C 0.98145 0.46595 0.26613 0.0
C975 C 0.99363 0.4911 0.26671 0.0
C976 C 0.98707 0.5036 0.30785 0.0
C977 C 0.96658 0.49045 0.34489 0.0
H978 H 0.50147 0.04457 0.72499 0.0
H979 H 0.48011 0.0151 0.54852 0.0
H980 H 0.51263 1.00571 0.54252 0.0
H981 H 0.56936 0.05442 0.71943 0.0
H982 H 0.56496 0.04422 0.79713 0.0
H983 H 0.55372 0.06345 0.7718 0.0
H984 H 0.51196 0.03199 0.81194 0.0
H985 H 0.52278 1.01227 0.8341 0.0
H986 H 0.49791 1.0017 0.78309 0.0
H987 H 0.53655 0.98582 0.57451 0.0
H988 H 0.55811 0.96867 0.6288 0.0
H989 H 0.54987 0.99862 0.7971 0.0
C990 C 0.50528 0.0381 0.68334 0.0
C991 C 0.48635 0.02468 0.64345 0.0
C992 C 0.49295 0.02098 0.58492 0.0
C993 C 0.51135 0.0154 0.58137 0.0
C994 C 0.52488 0.01892 0.63394 0.0
C995 C 0.52282 0.03128 0.68416 0.0
C996 C 0.53271 0.02615 0.74099 0.0
C997 C 0.55661 0.04838 0.7583 0.0
C998 C 0.51525 0.01752 0.79549 0.0
C999 C 0.53666 1.00638 0.71731 0.0
C1000 C 0.53376 1.00362 0.65518 0.0
C1001 C 0.5388 0.98783 0.62324 0.0
C1002 C 0.55031 0.97742 0.65477 0.0
C1003 C 0.55729 0.98416 0.71586 0.0
C1004 C 0.54571 0.99417 0.74947 0.0
H1005 H 0.61388 0.58753 0.21983 0.0
H1006 H 0.62394 0.55144 0.06791 0.0
H1007 H 0.63246 0.52696 0.13737 0.0
H1008 H 0.6363 0.54765 0.34726 0.0
H1009 H 0.61447 0.54793 0.39783 0.0
H1010 H 0.63684 0.57542 0.36294 0.0
H1011 H 0.60419 0.58289 0.32456 0.0
H1012 H 0.58177 0.55538 0.35862 0.0
H1013 H 0.57994 0.56092 0.27892 0.0
H1014 H 0.60797 0.49164 0.19364 0.0
H1015 H 0.56473 0.46874 0.18379 0.0
H1016 H 0.55746 0.51895 0.2988 0.0
C1017 C 0.61974 0.57561 0.20236 0.0
C1018 C 0.6177 0.57073 0.13952 0.0
C1019 C 0.62498 0.55503 0.11631 0.0
C1020 C 0.62994 0.54115 0.15624 0.0
C1021 C 0.6248 0.54126 0.21845 0.0
C1022 C 0.6219 0.55986 0.24264 0.0
C1023 C 0.60783 0.55161 0.30158 0.0
C1024 C 0.62487 0.55586 0.35542 0.0
C1025 C 0.59243 0.56334 0.31658 0.0
C1026 C 0.59365 0.52513 0.28705 0.0
C1027 C 0.60752 0.51913 0.24964 0.0
C1028 C 0.59718 0.49691 0.22026 0.0
C1029 C 0.5725 0.48427 0.21331 0.0
C1030 C 0.5584 0.4934 0.23756 0.0
C1031 C 0.56859 0.51239 0.27944 0.0
H1032 H 0.41689 1.00684 0.64001 0.0
H1033 H 0.35273 0.95105 0.55472 0.0
H1034 H 0.35851 0.97958 0.47044 0.0
H1035 H 0.41085 0.05886 0.5948 0.0
H1036 H 0.4427 0.07732 0.58469 0.0
H1037 H 0.43099 0.05375 0.64096 0.0
H1038 H 0.45431 0.0349 0.59203 0.0
H1039 H 0.46679 0.05891 0.53781 0.0
H1040 H 0.45124 0.02824 0.51174 0.0
H1041 H 0.3749 0.01486 0.39004 0.0
H1042 H 0.40136 0.04775 0.3203 0.0
H1043 H 0.45544 0.07799 0.45993 0.0
C1044 C 0.40358 1.00045 0.60472 0.0
C1045 C 0.38417 0.9765 0.60502 0.0
C1046 C 0.36754 0.96928 0.55656 0.0
C1047 C 0.37077 0.98547 0.50847 0.0
C1048 C 0.39054 1.0089 0.50984 0.0
C1049 C 0.4066 0.01615 0.55723 0.0
C1050 C 0.42774 0.04109 0.54697 0.0
C1051 C 0.42807 0.0588 0.59469 0.0
C1052 C 0.45142 0.04074 0.547 0.0
C1053 C 0.422 0.04667 0.48456 0.0
C1054 C 0.40009 0.02835 0.4644 0.0
C1055 C 0.39186 0.02924 0.40624 0.0
C1056 C 0.40692 0.04828 0.36703 0.0
C1057 C 0.43033 0.06583 0.38504 0.0
C1058 C 0.43738 0.06546 0.44555 0.0
H1059 H 0.4523 0.43988 0.98954 0.0
H1060 H 0.42827 0.36395 0.96976 0.0
H1061 H 0.39904 0.36083 0.89174 0.0
H1062 H 0.39472 0.43649 0.9697 0.0
H1063 H 0.40721 0.46411 0.92702 0.0
H1064 H 0.42503 0.4599 0.98353 0.0
H1065 H 0.45784 0.4685 0.90293 0.0
H1066 H 0.44038 0.47344 0.84715 0.0
H1067 H 0.44964 0.45159 0.83296 0.0
H1068 H 0.37466 0.36733 0.80838 0.0
H1069 H 0.36088 0.38332 0.72467 0.0
H1070 H 0.39955 0.45426 0.80362 0.0
C1071 C 0.44079 0.42245 0.96942 0.0
C1072 C 0.44263 0.40209 0.9864 0.0
C1073 C 0.42729 0.37981 0.9579 0.0
C1074 C 0.4105 0.37786 0.91371 0.0
C1075 C 0.4091 0.39832 0.89852 0.0
C1076 C 0.42403 0.42023 0.92549 0.0
C1077 C 0.42028 0.43994 0.89892 0.0
C1078 C 0.41127 0.45074 0.94772 0.0
C1079 C 0.44339 0.4595 0.86869 0.0
C1080 C 0.40103 0.42586 0.85213 0.0
C1081 C 0.39465 0.40183 0.85262 0.0
C1082 C 0.37907 0.38595 0.80888 0.0
C1083 C 0.37088 0.39507 0.76198 0.0
C1084 C 0.378 0.41979 0.75932 0.0
C1085 C 0.39253 0.43504 0.80654 0.0
H1086 H 1.01444 0.42836 0.06264 0.0
H1087 H 0.96562 0.35341 0.10473 0.0
H1088 H 0.99257 0.35632 0.18996 0.0
H1089 H 0.06913 0.42951 0.09085 0.0
H1090 H 0.08309 0.45929 0.12303 0.0
H1091 H 0.06019 0.45067 0.0661 0.0
H1092 H 0.03529 0.46175 0.13845 0.0
H1093 H 0.05842 0.47116 0.19467 0.0
H1094 H 0.02814 0.44898 0.21378 0.0
H1095 H 0.02515 0.36988 0.27612 0.0
H1096 H 0.05572 0.39245 0.35493 0.0
H1097 H 0.08287 0.45703 0.24716 0.0
C1098 C 1.00908 0.41226 0.08908 0.0
C1099 C 0.98772 0.39052 0.07629 0.0
C1100 C 0.9818 0.37026 0.11334 0.0
C1101 C 0.99714 0.37178 0.16154 0.0
C1102 C 0.01832 0.3936 0.1716 0.0
C1103 C 0.02399 0.41345 0.13618 0.0
C1104 C 0.04682 0.43535 0.15644 0.0
C1105 C 0.06593 0.44421 0.10609 0.0
C1106 C 0.04186 0.45547 0.17708 0.0
C1107 C 0.05357 0.42499 0.20936 0.0
C1108 C 0.03703 0.4009 0.21791 0.0
C1109 C 0.03844 0.3885 0.26853 0.0
C1110 C 0.05623 0.40133 0.3126 0.0
C1111 C 0.07249 0.42622 0.30564 0.0
C1112 C 0.07167 0.43775 0.25193 0.0
H1113 H 0.66202 0.07849 0.54881 0.0
H1114 H 0.68505 0.03738 0.65614 0.0
H1115 H 0.66965 1.0056 0.57764 0.0
H1116 H 0.6082 0.03267 0.5138 0.0
H1117 H 0.60648 0.04231 0.43817 0.0
H1118 H 0.62515 0.06403 0.49383 0.0
H1119 H 0.6614 0.07815 0.41983 0.0
H1120 H 0.64232 0.05596 0.36505 0.0
H1121 H 0.66912 0.05656 0.39095 0.0
H1122 H 0.6431 0.97404 0.49815 0.0
H1123 H 0.61181 0.94858 0.42288 0.0
H1124 H 0.60548 1.01045 0.37139 0.0
C1125 C 0.66558 0.06374 0.55325 0.0
C1126 C 0.67577 0.06099 0.6074 0.0
C1127 C 0.6784 0.04045 0.6138 0.0
C1128 C 0.66922 0.02203 0.56979 0.0
C1129 C 0.65742 0.02436 0.51928 0.0
C1130 C 0.65607 0.04503 0.51025 0.0
C1131 C 0.63976 0.04199 0.45727 0.0
C1132 C 0.6187 0.04547 0.47705 0.0
C1133 C 0.654 0.05918 0.40518 0.0
C1134 C 0.63126 0.01611 0.4399 0.0
C1135 C 0.64181 1.00619 0.47519 0.0
C1136 C 0.63513 0.98186 0.46947 0.0
C1137 C 0.61728 0.96745 0.42674 0.0
C1138 C 0.60603 0.97733 0.39104 0.0
C1139 C 0.61358 1.0021 0.39768 0.0
H1140 H 0.63138 0.64112 1.00393 0.0
H1141 H 0.60531 0.68169 0.90461 0.0
H1142 H 0.62906 0.68204 0.81471 0.0
H1143 H 0.69116 0.664 0.9284 0.0
H1144 H 0.68757 0.63428 0.92979 0.0
H1145 H 0.67484 0.64369 0.98964 0.0
H1146 H 0.63323 0.60673 0.96891 0.0
H1147 H 0.6457 0.59725 0.90929 0.0
H1148 H 0.62089 0.60191 0.89325 0.0
H1149 H 0.6491 0.67057 0.73081 0.0
H1150 H 0.65902 0.64637 0.66186 0.0
H1151 H 0.66875 0.61046 0.8162 0.0
C1152 C 0.63135 0.65107 0.96448 0.0
C1153 C 0.61664 0.6617 0.96205 0.0
C1154 C 0.61682 0.67392 0.90837 0.0
C1155 C 0.63021 0.67405 0.857 0.0
C1156 C 0.64335 0.66198 0.86031 0.0
C1157 C 0.64396 0.65077 0.91321 0.0
C1158 C 0.65533 0.63521 0.90348 0.0
C1159 C 0.67862 0.64489 0.93999 0.0
C1160 C 0.63774 0.60874 0.91964 0.0
C1161 C 0.66033 0.6385 0.83584 0.0
C1162 C 0.65401 0.65459 0.81199 0.0
C1163 C 0.65465 0.65851 0.74946 0.0
C1164 C 0.66061 0.64486 0.71055 0.0
C1165 C 0.66559 0.6272 0.73383 0.0
C1166 C 0.66632 0.6247 0.79739 0.0
H1167 H 0.07799 0.66649 0.15195 0.0
H1168 H 0.03548 0.67723 0.01765 0.0
H1169 H 1.00408 0.66791 0.09403 0.0
H1170 H 0.03735 0.61751 0.20694 0.0
H1171 H 0.04509 0.62188 0.2863 0.0
H1172 H 0.06751 0.6384 0.23032 0.0
H1173 H 0.0763 0.67838 0.28219 0.0
H1174 H 0.05372 0.66155 0.3386 0.0
H1175 H 0.05227 0.68458 0.29507 0.0
H1176 H 0.97228 0.64319 0.17074 0.0
H1177 H 0.94642 0.61151 0.24477 0.0
H1178 H 1.00974 0.61825 0.33138 0.0
C1179 C 0.06306 0.66902 0.14046 0.0
C1180 C 0.05941 0.67315 0.07949 0.0
C1181 C 0.03897 0.6749 0.06467 0.0
C1182 C 0.02081 0.66925 0.10777 0.0
C1183 C 0.02363 0.66244 0.16604 0.0
C1184 C 0.04475 0.66325 0.18321 0.0
C1185 C 0.04195 0.65133 0.24452 0.0
C1186 C 0.04834 0.63111 0.24167 0.0
C1187 C 0.05694 0.67008 0.29296 0.0
C1188 C 1.0155 0.64145 0.25565 0.0
C1189 C 1.0052 0.64846 0.211 0.0
C1190 C 0.9803 0.63836 0.20733 0.0
C1191 C 0.96566 0.62036 0.24944 0.0
C1192 C 0.97607 0.61251 0.29382 0.0
C1193 C 1.00127 0.62403 0.29813 0.0
H1194 H 0.52099 0.06878 0.41932 0.0
H1195 H 0.56197 0.14022 0.34364 0.0
H1196 H 0.59556 0.14854 0.41388 0.0
H1197 H 0.54202 0.09236 0.57007 0.0
H1198 H 0.54054 0.06561 0.59782 0.0
H1199 H 0.52011 0.06415 0.53867 0.0
H1200 H 0.53354 0.04068 0.4672 0.0
H1201 H 0.55483 0.0414 0.52177 0.0
H1202 H 0.56467 0.05388 0.4473 0.0
H1203 H 0.6257 0.14746 0.49724 0.0
H1204 H 0.64549 0.13844 0.582 0.0
H1205 H 0.58255 0.06836 0.60308 0.0
C1206 C 0.53712 0.08614 0.41681 0.0
C1207 C 0.53881 0.10368 0.37514 0.0
C1208 C 0.56009 0.12641 0.37513 0.0
C1209 C 0.57939 0.13122 0.4147 0.0
C1210 C 0.57713 0.11327 0.45503 0.0
C1211 C 0.55624 0.09138 0.45642 0.0
C1212 C 0.55659 0.07606 0.50794 0.0
C1213 C 0.53862 0.07421 0.55646 0.0
C1214 C 0.55206 0.05152 0.48478 0.0
C1215 C 0.58169 0.0911 0.53194 0.0
C1216 C 0.59333 0.11298 0.50236 0.0
C1217 C 0.61646 0.13026 0.52008 0.0
C1218 C 0.62762 0.12497 0.56864 0.0
C1219 C 0.61581 0.10253 0.5996 0.0
C1220 C 0.59244 0.08554 0.58038 0.0
H1221 H 0.46785 0.51378 0.73312 0.0
H1222 H 0.40757 0.52608 0.74336 0.0
H1223 H 0.42785 0.55573 0.82575 0.0
H1224 H 0.4811 0.51672 0.8888 0.0
H1225 H 0.51309 0.53301 0.87897 0.0
H1226 H 0.49428 0.51388 0.81899 0.0
H1227 H 0.5105 0.55082 0.73988 0.0
H1228 H 0.53183 0.56627 0.80003 0.0
H1229 H 0.51461 0.57873 0.76791 0.0
H1230 H 0.45627 0.58549 0.90766 0.0
H1231 H 0.48801 0.60943 0.98302 0.0
H1232 H 0.52821 0.57572 0.92122 0.0
C1233 C 0.45886 0.52272 0.75242 0.0
C1234 C 0.43602 0.51748 0.73123 0.0
C1235 C 0.42506 0.52971 0.75828 0.0
C1236 C 0.43647 0.54664 0.80531 0.0
C1237 C 0.45893 0.55125 0.82526 0.0
C1238 C 0.46994 0.5396 0.79944 0.0
C1239 C 0.49417 0.54786 0.82819 0.0
C1240 C 0.49574 0.5266 0.85535 0.0
C1241 C 0.51406 0.56176 0.78142 0.0
C1242 C 0.49454 0.56477 0.87685 0.0
C1243 C 0.47448 0.56725 0.87326 0.0
C1244 C 0.4719 0.58342 0.91094 0.0
C1245 C 0.49011 0.59709 0.95341 0.0
C1246 C 0.51053 0.59433 0.95866 0.0
C1247 C 0.51265 0.57798 0.91934 0.0
H1248 H 0.91319 0.41431 0.09363 0.0
H1249 H 0.94314 0.46808 0.95232 0.0
H1250 H 0.93587 0.49579 1.01484 0.0
H1251 H 0.86732 0.4321 0.15324 0.0
H1252 H 0.87242 0.42596 0.23016 0.0
H1253 H 0.87439 0.40868 0.16784 0.0
H1254 H 0.91577 0.41932 0.20511 0.0
H1255 H 0.91673 0.43955 0.26289 0.0
H1256 H 0.93928 0.45025 0.20418 0.0
H1257 H 0.9303 0.51966 0.09829 0.0
H1258 H 0.92952 0.5382 0.19641 0.0
H1259 H 0.90565 0.47024 0.28744 0.0
C1260 C 0.91732 0.43156 0.07493 0.0
C1261 C 0.92918 0.43918 0.01823 0.0
C1262 C 0.93485 0.46216 0.99626 0.0
C1263 C 0.93035 0.47788 0.03116 0.0
C1264 C 0.91966 0.47033 0.08813 0.0
C1265 C 0.91278 0.44751 0.10939 0.0
C1266 C 0.90493 0.44511 0.17541 0.0
C1267 C 0.87817 0.42687 0.18203 0.0
C1268 C 0.92008 0.43809 0.21436 0.0
C1269 C 0.90996 0.4705 0.18943 0.0
C1270 C 0.91743 0.48445 0.13743 0.0
C1271 C 0.92395 0.50872 0.13891 0.0
C1272 C 0.92328 0.51911 0.19488 0.0
C1273 C 0.91672 0.50554 0.24936 0.0
C1274 C 0.90985 0.48084 0.24628 0.0
H1275 H 0.51585 0.93327 0.465 0.0
H1276 H 0.4692 0.87667 0.342 0.0
H1277 H 0.43488 0.86612 0.4118 0.0
H1278 H 0.48813 0.9013 0.6063 0.0
H1279 H 0.4927 0.92818 0.64421 0.0
H1280 H 0.51315 0.93005 0.58564 0.0
H1281 H 0.50401 0.95991 0.51749 0.0
H1282 H 0.48866 0.95966 0.58651 0.0
H1283 H 0.4733 0.95269 0.51548 0.0
H1284 H 0.40409 0.86657 0.49254 0.0
H1285 H 0.38312 0.87502 0.5764 0.0
H1286 H 0.45193 0.92864 0.64732 0.0
C1287 C 0.49854 0.91822 0.45347 0.0
C1288 C 0.49536 0.90549 0.39855 0.0
C1289 C 0.47227 0.8862 0.38472 0.0
C1290 C 0.45259 0.88031 0.42387 0.0
C1291 C 0.45628 0.89369 0.47725 0.0
C1292 C 0.47894 0.91198 0.49226 0.0
C1293 C 0.47867 0.92391 0.55151 0.0
C1294 C 0.49407 0.92065 0.59978 0.0
C1295 C 0.48672 0.95061 0.54208 0.0
C1296 C 0.45237 0.9099 0.56746 0.0
C1297 C 0.4394 0.89275 0.52406 0.0
C1298 C 0.41432 0.87964 0.52725 0.0
C1299 C 0.40246 0.88449 0.57519 0.0
C1300 C 0.41567 0.90235 0.6194 0.0
C1301 C 0.44098 0.91464 0.6153 0.0
H1302 H 0.58192 0.50627 0.74226 0.0
H1303 H 0.65291 0.52055 0.79089 0.0
H1304 H 0.63534 0.49172 0.87721 0.0
H1305 H 0.56137 0.505 0.89364 0.0
H1306 H 0.53123 0.48232 0.87519 0.0
H1307 H 0.55035 0.50264 0.81734 0.0
H1308 H 0.54379 0.46536 0.75038 0.0
H1309 H 0.52387 0.44636 0.80927 0.0
H1310 H 0.54868 0.44283 0.78481 0.0
H1311 H 0.60808 0.4611 0.96341 0.0
H1312 H 0.57625 0.43579 0.03805 0.0
H1313 H 0.52478 0.44508 0.93295 0.0
C1314 C 0.59402 0.5037 0.77114 0.0
C1315 C 0.61899 0.51615 0.75975 0.0
C1316 C 0.63377 0.51134 0.79821 0.0
C1317 C 0.62387 0.49497 0.84755 0.0
C1318 C 0.59913 0.4835 0.85808 0.0
C1319 C 0.58456 0.4879 0.8206 0.0
C1320 C 0.55878 0.47453 0.84181 0.0
C1321 C 0.54991 0.49215 0.85793 0.0
C1322 C 0.54279 0.45616 0.79377 0.0
C1323 C 0.56082 0.46202 0.89785 0.0
C1324 C 0.58408 0.46693 0.90649 0.0
C1325 C 0.58987 0.45715 0.95628 0.0
C1326 C 0.57164 0.44257 0.99824 0.0
C1327 C 0.54791 0.43797 0.99049 0.0
C1328 C 0.54262 0.44781 0.93936 0.0
H1329 H 0.06606 0.51383 0.30191 0.0
H1330 H 0.14259 0.54626 0.32684 0.0
H1331 H 0.14904 0.57705 0.24903 0.0
H1332 H 0.06765 0.52262 0.13732 0.0
H1333 H 0.04143 0.52572 0.14516 0.0
H1334 H 0.04711 0.50835 0.19922 0.0
H1335 H 0.04444 0.537 0.28412 0.0
H1336 H 0.03981 0.55344 0.22391 0.0
H1337 H 0.06392 0.56887 0.27737 0.0
H1338 H 0.14617 0.60577 0.16893 0.0
H1339 H 0.13498 0.62686 0.09272 0.0
H1340 H 0.06021 0.57387 0.11821 0.0
C1341 C 0.08426 0.52743 0.29138 0.0
C1342 C 0.1038 0.52758 0.32124 0.0
C1343 C 0.12726 0.54564 0.30495 0.0
C1344 C 0.13107 0.56328 0.26075 0.0
C1345 C 0.11127 0.56257 0.23243 0.0
C1346 C 0.08838 0.5449 0.2471 0.0
C1347 C 0.06998 0.54732 0.20963 0.0
C1348 C 0.05574 0.52473 0.1704 0.0
C1349 C 0.05352 0.55195 0.25115 0.0
C1350 C 0.08585 0.56933 0.1714 0.0
C1351 C 0.10967 0.57807 0.1855 0.0
C1352 C 0.12755 0.59887 0.15758 0.0
C1353 C 0.12099 0.61087 0.11436 0.0
C1354 C 0.09668 0.6022 0.09882 0.0
C1355 C 0.07898 0.58106 0.1283 0.0
loop_
_geom_bond_atom_site_label_1
_geom_bond_atom_site_label_2
_geom_bond_distance
_geom_bond_site_symmetry_2
_ccdc_geom_bond_type
Zn0 O1 2.055 . S
Zn0 O8 2.046 . S
Zn0 N16 2.036 . S
Zn0 O28 2.053 . S
Zn0 O30 2.066 . S
O1 Zn0 2.055 . S
O1 C4 1.259 . S
C2 O30 1.256 . S
C2 O31 1.244 . S
Zn3 O5 2.046 . S
Zn3 O7 2.055 . S
Zn3 N9 2.036 . S
Zn3 O27 2.066 . S
Zn3 O31 2.053 . S
C4 O1 1.259 . S
C4 O5 1.254 . S
O5 Zn3 2.046 . S
O5 C4 1.254 . S
C6 O27 1.256 . S
C6 O28 1.244 . S
O7 Zn3 2.055 . S
O7 C29 1.259 . S
O8 Zn0 2.046 . S
O8 C29 1.254 . S
N9 Zn3 2.036 . S
N9 C10 1.298 . S
N9 N12 1.398 . S
C10 N9 1.298 . S
C10 N13 1.367 . S
C10 C23 1.481 . S
C11 N12 1.299 . S
C11 N13 1.379 . S
N12 N9 1.398 . S
N12 C11 1.299 . S
N13 C10 1.367 . S
N13 C11 1.379 . S
C14 N16 1.298 . S
C14 N18 1.367 . S
C14 C22 1.481 . S
C15 N17 1.299 . S
C15 N18 1.379 . S
N16 Zn0 2.036 . S
N16 C14 1.298 . S
N16 N17 1.398 . S
N17 C15 1.299 . S
N17 N16 1.398 . S
N18 C14 1.367 . S
N18 C15 1.379 . S
H19 C22 0.980 . S
H20 C22 0.981 . S
H21 C22 0.981 . S
C22 C14 1.481 . S
C22 H19 0.980 . S
C22 H20 0.981 . S
C22 H21 0.981 . S
C23 C10 1.481 . S
C23 H24 0.980 . S
C23 H25 0.981 . S
C23 H26 0.981 . S
H24 C23 0.980 . S
H25 C23 0.981 . S
H26 C23 0.981 . S
O27 Zn3 2.066 . S
O27 C6 1.256 . S
O28 Zn0 2.053 . S
O28 C6 1.244 . S
C29 O7 1.259 . S
C29 O8 1.254 . S
O30 Zn0 2.066 . S
O30 C2 1.256 . S
O31 C2 1.244 . S
O31 Zn3 2.053 . S
Zn32 O33 2.055 . S
Zn32 O40 2.046 . S
Zn32 N48 2.036 . S
Zn32 O60 2.053 . S
Zn32 O62 2.066 . S
O33 Zn32 2.055 . S
O33 C36 1.259 . S
C34 O62 1.256 . S
C34 O63 1.244 . S
Zn35 O37 2.046 . S
Zn35 O39 2.055 . S
Zn35 N41 2.036 . S
Zn35 O59 2.066 . S
Zn35 O63 2.053 . S
C36 O33 1.259 . S
C36 O37 1.254 . S
O37 Zn35 2.046 . S
O37 C36 1.254 . S
C38 O59 1.256 . S
C38 O60 1.244 . S
O39 Zn35 2.055 . S
O39 C61 1.259 . S
O40 Zn32 2.046 . S
O40 C61 1.254 . S
N41 Zn35 2.036 . S
N41 C42 1.298 . S
N41 N44 1.398 . S
C42 N41 1.298 . S
C42 N45 1.367 . S
C42 C55 1.481 . S
C43 N44 1.299 . S
C43 N45 1.379 . S
N44 N41 1.398 . S
N44 C43 1.299 . S
N45 C42 1.367 . S
N45 C43 1.379 . S
C46 N48 1.298 . S
C46 N50 1.367 . S
C46 C54 1.481 . S
C47 N49 1.299 . S
C47 N50 1.379 . S
N48 Zn32 2.036 . S
N48 C46 1.298 . S
N48 N49 1.398 . S
N49 C47 1.299 . S
N49 N48 1.398 . S
N50 C46 1.367 . S
N50 C47 1.379 . S
H51 C54 0.980 . S
H52 C54 0.981 . S
H53 C54 0.981 . S
C54 C46 1.481 . S
C54 H51 0.980 . S
C54 H52 0.981 . S
C54 H53 0.981 . S
C55 C42 1.481 . S
C55 H56 0.980 . S
C55 H57 0.981 . S
C55 H58 0.981 . S
H56 C55 0.980 . S
H57 C55 0.981 . S
H58 C55 0.981 . S
O59 Zn35 2.066 . S
O59 C38 1.256 . S
O60 Zn32 2.053 . S
O60 C38 1.244 . S
C61 O39 1.259 . S
C61 O40 1.254 . S
O62 Zn32 2.066 . S
O62 C34 1.256 . S
O63 C34 1.244 . S
O63 Zn35 2.053 . S
Zn64 O65 2.055 . S
Zn64 O72 2.046 . S
Zn64 N80 2.036 . S
Zn64 O92 2.053 . S
Zn64 O94 2.066 . S
O65 Zn64 2.055 . S
O65 C68 1.259 . S
C66 O94 1.256 . S
C66 O95 1.244 . S
Zn67 O69 2.046 . S
Zn67 O71 2.055 . S
Zn67 N73 2.036 . S
Zn67 O91 2.066 . S
Zn67 O95 2.053 . S
C68 O65 1.259 . S
C68 O69 1.254 . S
O69 Zn67 2.046 . S
O69 C68 1.254 . S
C70 O91 1.256 1_554 S
C70 O92 1.244 1_554 S
O71 Zn67 2.055 . S
O71 C93 1.259 1_556 S
O72 Zn64 2.046 . S
O72 C93 1.254 1_556 S
N73 Zn67 2.036 . S
N73 C74 1.298 . S
N73 N76 1.398 . S
C74 N73 1.298 . S
C74 N77 1.367 . S
C74 C87 1.481 1_556 S
C75 N76 1.299 . S
C75 N77 1.379 . S
N76 N73 1.398 . S
N76 C75 1.299 . S
N77 C74 1.367 . S
N77 C75 1.379 . S
C78 N80 1.298 . S
C78 N82 1.367 . S
C78 C86 1.481 . S
C79 N81 1.299 . S
C79 N82 1.379 . S
N80 Zn64 2.036 . S
N80 C78 1.298 . S
N80 N81 1.398 . S
N81 C79 1.299 . S
N81 N80 1.398 . S
N82 C78 1.367 . S
N82 C79 1.379 . S
H83 C86 0.980 . S
H84 C86 0.981 . S
H85 C86 0.981 . S
C86 C78 1.481 . S
C86 H83 0.980 . S
C86 H84 0.981 . S
C86 H85 0.981 . S
C87 C74 1.481 1_554 S
C87 H88 0.980 . S
C87 H89 0.981 . S
C87 H90 0.981 . S
H88 C87 0.980 . S
H89 C87 0.981 . S
H90 C87 0.981 . S
O91 Zn67 2.066 . S
O91 C70 1.256 1_556 S
O92 Zn64 2.053 . S
O92 C70 1.244 1_556 S
C93 O71 1.259 1_554 S
C93 O72 1.254 1_554 S
O94 Zn64 2.066 . S
O94 C66 1.256 . S
O95 C66 1.244 . S
O95 Zn67 2.053 . S
Zn96 O97 2.055 . S
Zn96 O104 2.046 . S
Zn96 N112 2.036 . S
Zn96 O124 2.053 . S
Zn96 O126 2.066 . S
O97 Zn96 2.055 . S
O97 C100 1.259 . S
C98 O126 1.256 . S
C98 O127 1.244 . S
Zn99 O101 2.046 . S
Zn99 O103 2.055 . S
Zn99 N105 2.036 . S
Zn99 O123 2.066 . S
Zn99 O127 2.053 . S
C100 O97 1.259 . S
C100 O101 1.254 . S
O101 Zn99 2.046 . S
O101 C100 1.254 . S
C102 O123 1.256 . S
C102 O124 1.244 . S
O103 Zn99 2.055 . S
O103 C125 1.259 . S
O104 Zn96 2.046 . S
O104 C125 1.254 . S
N105 Zn99 2.036 . S
N105 C106 1.298 . S
N105 N108 1.398 . S
C106 N105 1.298 . S
C106 N109 1.367 . S
C106 C119 1.481 . S
C107 N108 1.299 . S
C107 N109 1.379 . S
N108 N105 1.398 . S
N108 C107 1.299 . S
N109 C106 1.367 . S
N109 C107 1.379 . S
C110 N112 1.298 . S
C110 N114 1.367 . S
C110 C118 1.481 . S
C111 N113 1.299 . S
C111 N114 1.379 . S
N112 Zn96 2.036 . S
N112 C110 1.298 . S
N112 N113 1.398 . S
N113 C111 1.299 . S
N113 N112 1.398 . S
N114 C110 1.367 . S
N114 C111 1.379 . S
H115 C118 0.980 . S
H116 C118 0.981 . S
H117 C118 0.981 . S
C118 C110 1.481 . S
C118 H115 0.980 . S
C118 H116 0.981 . S
C118 H117 0.981 . S
C119 C106 1.481 . S
C119 H120 0.980 . S
C119 H121 0.981 . S
C119 H122 0.981 . S
H120 C119 0.980 . S
H121 C119 0.981 . S
H122 C119 0.981 . S
O123 Zn99 2.066 . S
O123 C102 1.256 . S
O124 Zn96 2.053 . S
O124 C102 1.244 . S
C125 O103 1.259 . S
C125 O104 1.254 . S
O126 Zn96 2.066 . S
O126 C98 1.256 . S
O127 C98 1.244 . S
O127 Zn99 2.053 . S
Zn128 O129 2.055 . S
Zn128 O136 2.046 . S
Zn128 N144 2.036 . S
Zn128 O156 2.053 . S
Zn128 O158 2.066 . S
O129 Zn128 2.055 . S
O129 C132 1.259 . S
C130 O158 1.256 . S
C130 O159 1.244 . S
Zn131 O133 2.046 . S
Zn131 O135 2.055 . S
Zn131 N137 2.036 . S
Zn131 O155 2.066 . S
Zn131 O159 2.053 . S
C132 O129 1.259 . S
C132 O133 1.254 . S
O133 Zn131 2.046 . S
O133 C132 1.254 . S
C134 O155 1.256 . S
C134 O156 1.244 . S
O135 Zn131 2.055 . S
O135 C157 1.259 . S
O136 Zn128 2.046 . S
O136 C157 1.254 . S
N137 Zn131 2.036 . S
N137 C138 1.298 . S
N137 N140 1.398 . S
C138 N137 1.298 . S
C138 N141 1.367 . S
C138 C151 1.481 . S
C139 N140 1.299 . S
C139 N141 1.379 . S
N140 N137 1.398 . S
N140 C139 1.299 . S
N141 C138 1.367 . S
N141 C139 1.379 . S
C142 N144 1.298 . S
C142 N146 1.367 . S
C142 C150 1.481 . S
C143 N145 1.299 . S
C143 N146 1.379 . S
N144 Zn128 2.036 . S
N144 C142 1.298 . S
N144 N145 1.398 . S
N145 C143 1.299 . S
N145 N144 1.398 . S
N146 C142 1.367 . S
N146 C143 1.379 . S
H147 C150 0.980 . S
H148 C150 0.981 . S
H149 C150 0.981 . S
C150 C142 1.481 . S
C150 H147 0.980 . S
C150 H148 0.981 . S
C150 H149 0.981 . S
C151 C138 1.481 . S
C151 H152 0.980 . S
C151 H153 0.981 . S
C151 H154 0.981 . S
H152 C151 0.980 . S
H153 C151 0.981 . S
H154 C151 0.981 . S
O155 Zn131 2.066 . S
O155 C134 1.256 . S
O156 Zn128 2.053 . S
O156 C134 1.244 . S
C157 O135 1.259 . S
C157 O136 1.254 . S
O158 Zn128 2.066 . S
O158 C130 1.256 . S
O159 C130 1.244 . S
O159 Zn131 2.053 . S
Zn160 O161 2.055 . S
Zn160 O168 2.046 . S
Zn160 N176 2.036 . S
Zn160 O188 2.053 . S
Zn160 O190 2.066 . S
O161 Zn160 2.055 . S
O161 C164 1.259 1_556 S
C162 O190 1.256 1_554 S
C162 O191 1.244 1_554 S
Zn163 O165 2.046 . S
Zn163 O167 2.055 . S
Zn163 N169 2.036 . S
Zn163 O187 2.066 . S
Zn163 O191 2.053 . S
C164 O161 1.259 1_554 S
C164 O165 1.254 1_554 S
O165 Zn163 2.046 . S
O165 C164 1.254 1_556 S
C166 O187 1.256 . S
C166 O188 1.244 . S
O167 Zn163 2.055 . S
O167 C189 1.259 . S
O168 Zn160 2.046 . S
O168 C189 1.254 . S
N169 Zn163 2.036 . S
N169 C170 1.298 . S
N169 N172 1.398 . S
C170 N169 1.298 . S
C170 N173 1.367 . S
C170 C183 1.481 . S
C171 N172 1.299 . S
C171 N173 1.379 . S
N172 N169 1.398 . S
N172 C171 1.299 . S
N173 C170 1.367 . S
N173 C171 1.379 . S
C174 N176 1.298 . S
C174 N178 1.367 . S
C174 C182 1.481 1_556 S
C175 N177 1.299 . S
C175 N178 1.379 . S
N176 Zn160 2.036 . S
N176 C174 1.298 . S
N176 N177 1.398 . S
N177 C175 1.299 . S
N177 N176 1.398 . S
N178 C174 1.367 . S
N178 C175 1.379 . S
H179 C182 0.980 . S
H180 C182 0.981 . S
H181 C182 0.981 . S
C182 C174 1.481 1_554 S
C182 H179 0.980 . S
C182 H180 0.981 . S
C182 H181 0.981 . S
C183 C170 1.481 . S
C183 H184 0.980 . S
C183 H185 0.981 . S
C183 H186 0.981 . S
H184 C183 0.980 . S
H185 C183 0.981 . S
H186 C183 0.981 . S
O187 Zn163 2.066 . S
O187 C166 1.256 . S
O188 Zn160 2.053 . S
O188 C166 1.244 . S
C189 O167 1.259 . S
C189 O168 1.254 . S
O190 Zn160 2.066 . S
O190 C162 1.256 1_556 S
O191 C162 1.244 1_556 S
O191 Zn163 2.053 . S
Zn192 O193 2.055 . S
Zn192 O200 2.046 . S
Zn192 N208 2.036 . S
Zn192 O220 2.053 . S
Zn192 O222 2.066 . S
O193 Zn192 2.055 . S
O193 C196 1.259 . S
C194 O222 1.256 . S
C194 O223 1.244 . S
Zn195 O197 2.046 . S
Zn195 O199 2.055 . S
Zn195 N201 2.036 . S
Zn195 O219 2.066 . S
Zn195 O223 2.053 . S
C196 O193 1.259 . S
C196 O197 1.254 . S
O197 Zn195 2.046 . S
O197 C196 1.254 . S
C198 O219 1.256 . S
C198 O220 1.244 . S
O199 Zn195 2.055 . S
O199 C221 1.259 . S
O200 Zn192 2.046 . S
O200 C221 1.254 . S
N201 Zn195 2.036 . S
N201 C202 1.298 . S
N201 N204 1.398 . S
C202 N201 1.298 . S
C202 N205 1.367 . S
C202 C215 1.481 . S
C203 N204 1.299 . S
C203 N205 1.379 . S
N204 N201 1.398 . S
N204 C203 1.299 . S
N205 C202 1.367 . S
N205 C203 1.379 . S
C206 N208 1.298 . S
C206 N210 1.367 . S
C206 C214 1.481 . S
C207 N209 1.299 . S
C207 N210 1.379 . S
N208 Zn192 2.036 . S
N208 C206 1.298 . S
N208 N209 1.398 . S
N209 C207 1.299 . S
N209 N208 1.398 . S
N210 C206 1.367 . S
N210 C207 1.379 . S
H211 C214 0.980 . S
H212 C214 0.981 . S
H213 C214 0.981 . S
C214 C206 1.481 . S
C214 H211 0.980 . S
C214 H212 0.981 . S
C214 H213 0.981 . S
C215 C202 1.481 . S
C215 H216 0.980 . S
C215 H217 0.981 . S
C215 H218 0.981 . S
H216 C215 0.980 . S
H217 C215 0.981 . S
H218 C215 0.981 . S
O219 Zn195 2.066 . S
O219 C198 1.256 . S
O220 Zn192 2.053 . S
O220 C198 1.244 . S
C221 O199 1.259 . S
C221 O200 1.254 . S
O222 Zn192 2.066 . S
O222 C194 1.256 . S
O223 C194 1.244 . S
O223 Zn195 2.053 . S
Zn224 O225 2.055 . S
Zn224 O232 2.046 . S
Zn224 N240 2.036 . S
Zn224 O252 2.053 . S
Zn224 O254 2.066 . S
O225 Zn224 2.055 . S
O225 C228 1.259 . S
C226 O254 1.256 . S
C226 O255 1.244 . S
Zn227 O229 2.046 . S
Zn227 O231 2.055 . S
Zn227 N233 2.036 . S
Zn227 O251 2.066 . S
Zn227 O255 2.053 . S
C228 O225 1.259 . S
C228 O229 1.254 . S
O229 Zn227 2.046 . S
O229 C228 1.254 . S
C230 O251 1.256 . S
C230 O252 1.244 . S
O231 Zn227 2.055 . S
O231 C253 1.259 . S
O232 Zn224 2.046 . S
O232 C253 1.254 . S
N233 Zn227 2.036 . S
N233 C234 1.298 . S
N233 N236 1.398 . S
C234 N233 1.298 . S
C234 N237 1.367 . S
C234 C247 1.481 . S
C235 N236 1.299 . S
C235 N237 1.379 . S
N236 N233 1.398 . S
N236 C235 1.299 . S
N237 C234 1.367 . S
N237 C235 1.379 . S
C238 N240 1.298 . S
C238 N242 1.367 . S
C238 C246 1.481 . S
C239 N241 1.299 . S
C239 N242 1.379 . S
N240 Zn224 2.036 . S
N240 C238 1.298 . S
N240 N241 1.398 . S
N241 C239 1.299 . S
N241 N240 1.398 . S
N242 C238 1.367 . S
N242 C239 1.379 . S
H243 C246 0.980 . S
H244 C246 0.981 . S
H245 C246 0.981 . S
C246 C238 1.481 . S
C246 H243 0.980 . S
C246 H244 0.981 . S
C246 H245 0.981 . S
C247 C234 1.481 . S
C247 H248 0.980 . S
C247 H249 0.981 . S
C247 H250 0.981 . S
H248 C247 0.980 . S
H249 C247 0.981 . S
H250 C247 0.981 . S
O251 Zn227 2.066 . S
O251 C230 1.256 . S
O252 Zn224 2.053 . S
O252 C230 1.244 . S
C253 O231 1.259 . S
C253 O232 1.254 . S
O254 Zn224 2.066 . S
O254 C226 1.256 . S
O255 C226 1.244 . S
O255 Zn227 2.053 . S
Zn256 O257 2.055 . S
Zn256 O264 2.046 . S
Zn256 N272 2.036 . S
Zn256 O284 2.053 . S
Zn256 O286 2.066 . S
O257 Zn256 2.055 . S
O257 C260 1.259 . S
C258 O286 1.256 . S
C258 O287 1.244 . S
Zn259 O261 2.046 . S
Zn259 O263 2.055 . S
Zn259 N265 2.036 . S
Zn259 O283 2.066 . S
Zn259 O287 2.053 . S
C260 O257 1.259 . S
C260 O261 1.254 . S
O261 Zn259 2.046 . S
O261 C260 1.254 . S
C262 O283 1.256 1_556 S
C262 O284 1.244 1_556 S
O263 Zn259 2.055 . S
O263 C285 1.259 1_554 S
O264 Zn256 2.046 . S
O264 C285 1.254 1_554 S
N265 Zn259 2.036 . S
N265 C266 1.298 . S
N265 N268 1.398 . S
C266 N265 1.298 . S
C266 N269 1.367 . S
C266 C279 1.481 1_554 S
C267 N268 1.299 . S
C267 N269 1.379 . S
N268 N265 1.398 . S
N268 C267 1.299 . S
N269 C266 1.367 . S
N269 C267 1.379 . S
C270 N272 1.298 . S
C270 N274 1.367 . S
C270 C278 1.481 . S
C271 N273 1.299 . S
C271 N274 1.379 . S
N272 Zn256 2.036 . S
N272 C270 1.298 . S
N272 N273 1.398 . S
N273 C271 1.299 . S
N273 N272 1.398 . S
N274 C270 1.367 . S
N274 C271 1.379 . S
H275 C278 0.980 . S
H276 C278 0.981 . S
H277 C278 0.981 . S
C278 C270 1.481 . S
C278 H275 0.980 . S
C278 H276 0.981 . S
C278 H277 0.981 . S
C279 C266 1.481 1_556 S
C279 H280 0.980 . S
C279 H281 0.981 . S
C279 H282 0.981 . S
H280 C279 0.980 . S
H281 C279 0.981 . S
H282 C279 0.981 . S
O283 Zn259 2.066 . S
O283 C262 1.256 1_554 S
O284 Zn256 2.053 . S
O284 C262 1.244 1_554 S
C285 O263 1.259 1_556 S
C285 O264 1.254 1_556 S
O286 Zn256 2.066 . S
O286 C258 1.256 . S
O287 C258 1.244 . S
O287 Zn259 2.053 . S
Zn288 O289 2.055 . S
Zn288 O296 2.046 . S
Zn288 N304 2.036 . S
Zn288 O316 2.053 . S
Zn288 O318 2.066 . S
O289 Zn288 2.055 . S
O289 C292 1.259 . S
C290 O318 1.256 . S
C290 O319 1.244 . S
Zn291 O293 2.046 . S
Zn291 O295 2.055 . S
Zn291 N297 2.036 . S
Zn291 O315 2.066 . S
Zn291 O319 2.053 . S
C292 O289 1.259 . S
C292 O293 1.254 . S
O293 Zn291 2.046 . S
O293 C292 1.254 . S
C294 O315 1.256 . S
C294 O316 1.244 . S
O295 Zn291 2.055 . S
O295 C317 1.259 . S
O296 Zn288 2.046 . S
O296 C317 1.254 . S
N297 Zn291 2.036 . S
N297 C298 1.298 . S
N297 N300 1.398 . S
C298 N297 1.298 . S
C298 N301 1.367 . S
C298 C311 1.481 . S
C299 N300 1.299 . S
C299 N301 1.379 . S
N300 N297 1.398 . S
N300 C299 1.299 . S
N301 C298 1.367 . S
N301 C299 1.379 . S
C302 N304 1.298 . S
C302 N306 1.367 . S
C302 C310 1.481 . S
C303 N305 1.299 . S
C303 N306 1.379 . S
N304 Zn288 2.036 . S
N304 C302 1.298 . S
N304 N305 1.398 . S
N305 C303 1.299 . S
N305 N304 1.398 . S
N306 C302 1.367 . S
N306 C303 1.379 . S
H307 C310 0.980 . S
H308 C310 0.981 . S
H309 C310 0.981 . S
C310 C302 1.481 . S
C310 H307 0.980 . S
C310 H308 0.981 . S
C310 H309 0.981 . S
C311 C298 1.481 . S
C311 H312 0.980 . S
C311 H313 0.981 . S
C311 H314 0.981 . S
H312 C311 0.980 . S
H313 C311 0.981 . S
H314 C311 0.981 . S
O315 Zn291 2.066 . S
O315 C294 1.256 . S
O316 Zn288 2.053 . S
O316 C294 1.244 . S
C317 O295 1.259 . S
C317 O296 1.254 . S
O318 Zn288 2.066 . S
O318 C290 1.256 . S
O319 C290 1.244 . S
O319 Zn291 2.053 . S
Zn320 O321 2.055 . S
Zn320 O328 2.046 . S
Zn320 N336 2.036 . S
Zn320 O348 2.053 . S
Zn320 O350 2.066 . S
O321 Zn320 2.055 . S
O321 C324 1.259 . S
C322 O350 1.256 . S
C322 O351 1.244 . S
Zn323 O325 2.046 . S
Zn323 O327 2.055 . S
Zn323 N329 2.036 . S
Zn323 O347 2.066 . S
Zn323 O351 2.053 . S
C324 O321 1.259 . S
C324 O325 1.254 . S
O325 Zn323 2.046 . S
O325 C324 1.254 . S
C326 O347 1.256 . S
C326 O348 1.244 . S
O327 Zn323 2.055 . S
O327 C349 1.259 . S
O328 Zn320 2.046 . S
O328 C349 1.254 . S
N329 Zn323 2.036 . S
N329 C330 1.298 . S
N329 N332 1.398 . S
C330 N329 1.298 . S
C330 N333 1.367 . S
C330 C343 1.481 . S
C331 N332 1.299 . S
C331 N333 1.379 . S
N332 N329 1.398 . S
N332 C331 1.299 . S
N333 C330 1.367 . S
N333 C331 1.379 . S
C334 N336 1.298 . S
C334 N338 1.367 . S
C334 C342 1.481 . S
C335 N337 1.299 . S
C335 N338 1.379 . S
N336 Zn320 2.036 . S
N336 C334 1.298 . S
N336 N337 1.398 . S
N337 C335 1.299 . S
N337 N336 1.398 . S
N338 C334 1.367 . S
N338 C335 1.379 . S
H339 C342 0.980 . S
H340 C342 0.981 . S
H341 C342 0.981 . S
C342 C334 1.481 . S
C342 H339 0.980 . S
C342 H340 0.981 . S
C342 H341 0.981 . S
C343 C330 1.481 . S
C343 H344 0.980 . S
C343 H345 0.981 . S
C343 H346 0.981 . S
H344 C343 0.980 . S
H345 C343 0.981 . S
H346 C343 0.981 . S
O347 Zn323 2.066 . S
O347 C326 1.256 . S
O348 Zn320 2.053 . S
O348 C326 1.244 . S
C349 O327 1.259 . S
C349 O328 1.254 . S
O350 Zn320 2.066 . S
O350 C322 1.256 . S
O351 C322 1.244 . S
O351 Zn323 2.053 . S
Zn352 O353 2.055 . S
Zn352 O360 2.046 . S
Zn352 N368 2.036 . S
Zn352 O380 2.053 . S
Zn352 O382 2.066 . S
O353 Zn352 2.055 . S
O353 C356 1.259 . S
C354 O382 1.256 . S
C354 O383 1.244 . S
Zn355 O357 2.046 . S
Zn355 O359 2.055 . S
Zn355 N361 2.036 . S
Zn355 O379 2.066 . S
Zn355 O383 2.053 . S
C356 O353 1.259 . S
C356 O357 1.254 . S
O357 Zn355 2.046 . S
O357 C356 1.254 . S
C358 O379 1.256 1_556 S
C358 O380 1.244 1_556 S
O359 Zn355 2.055 . S
O359 C381 1.259 1_554 S
O360 Zn352 2.046 . S
O360 C381 1.254 1_554 S
N361 Zn355 2.036 . S
N361 C362 1.298 . S
N361 N364 1.398 . S
C362 N361 1.298 . S
C362 N365 1.367 . S
C362 C375 1.481 1_554 S
C363 N364 1.299 . S
C363 N365 1.379 . S
N364 N361 1.398 . S
N364 C363 1.299 . S
N365 C362 1.367 . S
N365 C363 1.379 . S
C366 N368 1.298 . S
C366 N370 1.367 . S
C366 C374 1.481 . S
C367 N369 1.299 . S
C367 N370 1.379 . S
N368 Zn352 2.036 . S
N368 C366 1.298 . S
N368 N369 1.398 . S
N369 C367 1.299 . S
N369 N368 1.398 . S
N370 C366 1.367 . S
N370 C367 1.379 . S
H371 C374 0.980 . S
H372 C374 0.981 . S
H373 C374 0.981 . S
C374 C366 1.481 . S
C374 H371 0.980 . S
C374 H372 0.981 . S
C374 H373 0.981 . S
C375 C362 1.481 1_556 S
C375 H376 0.980 . S
C375 H377 0.981 . S
C375 H378 0.981 . S
H376 C375 0.980 . S
H377 C375 0.981 . S
H378 C375 0.981 . S
O379 Zn355 2.066 . S
O379 C358 1.256 1_554 S
O380 Zn352 2.053 . S
O380 C358 1.244 1_554 S
C381 O359 1.259 1_556 S
C381 O360 1.254 1_556 S
O382 Zn352 2.066 . S
O382 C354 1.256 . S
O383 C354 1.244 . S
O383 Zn355 2.053 . S
H384 C396 0.930 . S
H385 C398 0.930 . S
H386 C399 0.930 . S
H387 C403 0.959 . S
H388 C403 0.959 . S
H389 C403 0.961 . S
H390 C404 0.960 . S
H391 C404 0.961 . S
H392 C404 0.959 . S
H393 C407 0.929 . S
H394 C408 0.931 . S
H395 C410 0.930 . S
C396 H384 0.930 . S
C396 C397 1.399 . S
C396 C401 1.399 . S
C397 C396 1.399 . S
C397 C398 1.376 . S
C398 H385 0.930 . S
C398 C397 1.376 . S
C398 C399 1.388 . S
C399 H386 0.930 . S
C399 C398 1.388 . S
C399 C400 1.390 . S
C400 C399 1.390 . S
C400 C401 1.394 . S
C400 C406 1.465 . S
C401 C396 1.399 . S
C401 C400 1.394 . S
C401 C402 1.516 . S
C402 C401 1.516 . S
C402 C403 1.502 . S
C402 C404 1.561 . S
C402 C405 1.526 . S
C403 H387 0.959 . S
C403 H388 0.959 . S
C403 H389 0.961 . S
C403 C402 1.502 . S
C404 H390 0.960 . S
C404 H391 0.961 . S
C404 H392 0.959 . S
C404 C402 1.561 . S
C405 C402 1.526 . S
C405 C406 1.396 . S
C405 C410 1.390 . S
C406 C400 1.465 . S
C406 C405 1.396 . S
C406 C407 1.399 . S
C407 H393 0.929 . S
C407 C406 1.399 . S
C407 C408 1.385 . S
C408 H394 0.931 . S
C408 C407 1.385 . S
C408 C409 1.389 . S
C409 C408 1.389 . S
C409 C410 1.387 . S
C410 H395 0.930 . S
C410 C405 1.390 . S
C410 C409 1.387 . S
H411 C423 0.930 . S
H412 C425 0.930 . S
H413 C426 0.930 . S
H414 C430 0.959 . S
H415 C430 0.959 . S
H416 C430 0.961 . S
H417 C431 0.960 . S
H418 C431 0.961 . S
H419 C431 0.959 . S
H420 C434 0.929 . S
H421 C435 0.931 . S
H422 C437 0.930 . S
C423 H411 0.930 . S
C423 C424 1.399 . S
C423 C428 1.399 . S
C424 C423 1.399 . S
C424 C425 1.376 . S
C425 H412 0.930 . S
C425 C424 1.376 . S
C425 C426 1.388 . S
C426 H413 0.930 . S
C426 C425 1.388 . S
C426 C427 1.390 . S
C427 C426 1.390 . S
C427 C428 1.394 . S
C427 C433 1.465 . S
C428 C423 1.399 . S
C428 C427 1.394 . S
C428 C429 1.516 . S
C429 C428 1.516 . S
C429 C430 1.502 . S
C429 C431 1.561 . S
C429 C432 1.526 . S
C430 H414 0.959 . S
C430 H415 0.959 . S
C430 H416 0.961 . S
C430 C429 1.502 . S
C431 H417 0.960 . S
C431 H418 0.961 . S
C431 H419 0.959 . S
C431 C429 1.561 . S
C432 C429 1.526 . S
C432 C433 1.396 . S
C432 C437 1.390 . S
C433 C427 1.465 . S
C433 C432 1.396 . S
C433 C434 1.399 . S
C434 H420 0.929 . S
C434 C433 1.399 . S
C434 C435 1.385 . S
C435 H421 0.931 . S
C435 C434 1.385 . S
C435 C436 1.389 . S
C436 C435 1.389 . S
C436 C437 1.387 . S
C437 H422 0.930 . S
C437 C432 1.390 . S
C437 C436 1.387 . S
H438 C450 0.930 . S
H439 C452 0.930 . S
H440 C453 0.930 . S
H441 C457 0.959 . S
H442 C457 0.959 . S
H443 C457 0.961 . S
H444 C458 0.960 . S
H445 C458 0.961 . S
H446 C458 0.959 . S
H447 C461 0.929 . S
H448 C462 0.931 . S
H449 C464 0.930 . S
C450 H438 0.930 . S
C450 C451 1.399 . S
C450 C455 1.399 . S
C451 C450 1.399 . S
C451 C452 1.376 . S
C452 H439 0.930 . S
C452 C451 1.376 . S
C452 C453 1.388 . S
C453 H440 0.930 . S
C453 C452 1.388 . S
C453 C454 1.390 . S
C454 C453 1.390 . S
C454 C455 1.394 . S
C454 C460 1.465 . S
C455 C450 1.399 . S
C455 C454 1.394 . S
C455 C456 1.516 . S
C456 C455 1.516 . S
C456 C457 1.502 . S
C456 C458 1.561 . S
C456 C459 1.526 . S
C457 H441 0.959 . S
C457 H442 0.959 . S
C457 H443 0.961 . S
C457 C456 1.502 . S
C458 H444 0.960 . S
C458 H445 0.961 . S
C458 H446 0.959 . S
C458 C456 1.561 . S
C459 C456 1.526 . S
C459 C460 1.396 . S
C459 C464 1.390 . S
C460 C454 1.465 . S
C460 C459 1.396 . S
C460 C461 1.399 . S
C461 H447 0.929 . S
C461 C460 1.399 . S
C461 C462 1.385 . S
C462 H448 0.931 . S
C462 C461 1.385 . S
C462 C463 1.389 . S
C463 C462 1.389 . S
C463 C464 1.387 . S
C464 H449 0.930 . S
C464 C459 1.390 . S
C464 C463 1.387 . S
H465 C477 0.930 . S
H466 C479 0.930 . S
H467 C480 0.930 . S
H468 C484 0.959 . S
H469 C484 0.959 . S
H470 C484 0.961 . S
H471 C485 0.960 . S
H472 C485 0.961 . S
H473 C485 0.959 . S
H474 C488 0.929 . S
H475 C489 0.931 . S
H476 C491 0.930 . S
C477 H465 0.930 . S
C477 C478 1.399 . S
C477 C482 1.399 . S
C478 C477 1.399 . S
C478 C479 1.376 . S
C479 H466 0.930 . S
C479 C478 1.376 . S
C479 C480 1.388 . S
C480 H467 0.930 . S
C480 C479 1.388 . S
C480 C481 1.390 . S
C481 C480 1.390 . S
C481 C482 1.394 . S
C481 C487 1.465 . S
C482 C477 1.399 . S
C482 C481 1.394 . S
C482 C483 1.516 . S
C483 C482 1.516 . S
C483 C484 1.502 . S
C483 C485 1.561 . S
C483 C486 1.526 . S
C484 H468 0.959 . S
C484 H469 0.959 . S
C484 H470 0.961 . S
C484 C483 1.502 . S
C485 H471 0.960 . S
C485 H472 0.961 . S
C485 H473 0.959 . S
C485 C483 1.561 . S
C486 C483 1.526 . S
C486 C487 1.396 . S
C486 C491 1.390 . S
C487 C481 1.465 . S
C487 C486 1.396 . S
C487 C488 1.399 . S
C488 H474 0.929 . S
C488 C487 1.399 . S
C488 C489 1.385 . S
C489 H475 0.931 . S
C489 C488 1.385 . S
C489 C490 1.389 . S
C490 C489 1.389 . S
C490 C491 1.387 . S
C491 H476 0.930 . S
C491 C486 1.390 . S
C491 C490 1.387 . S
H492 C504 0.930 . S
H493 C506 0.930 . S
H494 C507 0.930 . S
H495 C511 0.959 . S
H496 C511 0.959 . S
H497 C511 0.961 . S
H498 C512 0.960 . S
H499 C512 0.961 . S
H500 C512 0.959 . S
H501 C515 0.929 . S
H502 C516 0.931 . S
H503 C518 0.930 . S
C504 H492 0.930 . S
C504 C505 1.399 . S
C504 C509 1.399 . S
C505 C504 1.399 . S
C505 C506 1.376 . S
C506 H493 0.930 . S
C506 C505 1.376 . S
C506 C507 1.388 . S
C507 H494 0.930 . S
C507 C506 1.388 . S
C507 C508 1.390 . S
C508 C507 1.390 . S
C508 C509 1.394 . S
C508 C514 1.465 . S
C509 C504 1.399 . S
C509 C508 1.394 . S
C509 C510 1.516 . S
C510 C509 1.516 . S
C510 C511 1.502 . S
C510 C512 1.561 . S
C510 C513 1.526 . S
C511 H495 0.959 . S
C511 H496 0.959 . S
C511 H497 0.961 . S
C511 C510 1.502 . S
C512 H498 0.960 . S
C512 H499 0.961 . S
C512 H500 0.959 . S
C512 C510 1.561 . S
C513 C510 1.526 . S
C513 C514 1.396 . S
C513 C518 1.390 . S
C514 C508 1.465 . S
C514 C513 1.396 . S
C514 C515 1.399 . S
C515 H501 0.929 . S
C515 C514 1.399 . S
C515 C516 1.385 . S
C516 H502 0.931 . S
C516 C515 1.385 . S
C516 C517 1.389 . S
C517 C516 1.389 . S
C517 C518 1.387 . S
C518 H503 0.930 . S
C518 C513 1.390 . S
C518 C517 1.387 . S
H519 C531 0.930 . S
H520 C533 0.930 . S
H521 C534 0.930 . S
H522 C538 0.959 . S
H523 C538 0.959 . S
H524 C538 0.961 . S
H525 C539 0.960 . S
H526 C539 0.961 . S
H527 C539 0.959 . S
H528 C542 0.929 . S
H529 C543 0.931 . S
H530 C545 0.930 . S
C531 H519 0.930 . S
C531 C532 1.399 . S
C531 C536 1.399 . S
C532 C531 1.399 . S
C532 C533 1.376 . S
C533 H520 0.930 . S
C533 C532 1.376 . S
C533 C534 1.388 . S
C534 H521 0.930 . S
C534 C533 1.388 . S
C534 C535 1.390 . S
C535 C534 1.390 . S
C535 C536 1.394 . S
C535 C541 1.465 . S
C536 C531 1.399 . S
C536 C535 1.394 . S
C536 C537 1.516 . S
C537 C536 1.516 . S
C537 C538 1.502 . S
C537 C539 1.561 . S
C537 C540 1.526 . S
C538 H522 0.959 . S
C538 H523 0.959 . S
C538 H524 0.961 . S
C538 C537 1.502 . S
C539 H525 0.960 . S
C539 H526 0.961 . S
C539 H527 0.959 . S
C539 C537 1.561 . S
C540 C537 1.526 . S
C540 C541 1.396 . S
C540 C545 1.390 . S
C541 C535 1.465 . S
C541 C540 1.396 . S
C541 C542 1.399 . S
C542 H528 0.929 . S
C542 C541 1.399 . S
C542 C543 1.385 . S
C543 H529 0.931 . S
C543 C542 1.385 . S
C543 C544 1.389 . S
C544 C543 1.389 . S
C544 C545 1.387 . S
C545 H530 0.930 . S
C545 C540 1.390 . S
C545 C544 1.387 . S
H546 C558 0.930 . S
H547 C560 0.930 . S
H548 C561 0.930 . S
H549 C565 0.959 . S
H550 C565 0.959 . S
H551 C565 0.961 . S
H552 C566 0.960 . S
H553 C566 0.961 1_554 S
H554 C566 0.959 . S
H555 C569 0.929 1_556 S
H556 C570 0.931 . S
H557 C572 0.930 . S
C558 H546 0.930 . S
C558 C559 1.399 . S
C558 C563 1.399 . S
C559 C558 1.399 . S
C559 C560 1.376 . S
C560 H547 0.930 . S
C560 C559 1.376 . S
C560 C561 1.388 . S
C561 H548 0.930 . S
C561 C560 1.388 . S
C561 C562 1.390 . S
C562 C561 1.390 . S
C562 C563 1.394 . S
C562 C568 1.465 1_556 S
C563 C558 1.399 . S
C563 C562 1.394 . S
C563 C564 1.516 1_556 S
C564 C563 1.516 1_554 S
C564 C565 1.502 . S
C564 C566 1.561 1_554 S
C564 C567 1.526 . S
C565 H549 0.959 . S
C565 H550 0.959 . S
C565 H551 0.961 . S
C565 C564 1.502 . S
C566 H552 0.960 . S
C566 H553 0.961 1_556 S
C566 H554 0.959 . S
C566 C564 1.561 1_556 S
C567 C564 1.526 . S
C567 C568 1.396 . S
C567 C572 1.390 . S
C568 C562 1.465 1_554 S
C568 C567 1.396 . S
C568 C569 1.399 . S
C569 H555 0.929 1_554 S
C569 C568 1.399 . S
C569 C570 1.385 . S
C570 H556 0.931 . S
C570 C569 1.385 . S
C570 C571 1.389 . S
C571 C570 1.389 . S
C571 C572 1.387 . S
C572 H557 0.930 . S
C572 C567 1.390 . S
C572 C571 1.387 . S
H573 C585 0.930 . S
H574 C587 0.930 . S
H575 C588 0.930 . S
H576 C592 0.959 . S
H577 C592 0.959 . S
H578 C592 0.961 . S
H579 C593 0.960 . S
H580 C593 0.961 . S
H581 C593 0.959 . S
H582 C596 0.929 . S
H583 C597 0.931 . S
H584 C599 0.930 . S
C585 H573 0.930 . S
C585 C586 1.399 . S
C585 C590 1.399 . S
C586 C585 1.399 . S
C586 C587 1.376 . S
C587 H574 0.930 . S
C587 C586 1.376 . S
C587 C588 1.388 . S
C588 H575 0.930 . S
C588 C587 1.388 . S
C588 C589 1.390 . S
C589 C588 1.390 . S
C589 C590 1.394 . S
C589 C595 1.465 . S
C590 C585 1.399 . S
C590 C589 1.394 . S
C590 C591 1.516 . S
C591 C590 1.516 . S
C591 C592 1.502 . S
C591 C593 1.561 . S
C591 C594 1.526 . S
C592 H576 0.959 . S
C592 H577 0.959 . S
C592 H578 0.961 . S
C592 C591 1.502 . S
C593 H579 0.960 . S
C593 H580 0.961 . S
C593 H581 0.959 . S
C593 C591 1.561 . S
C594 C591 1.526 . S
C594 C595 1.396 . S
C594 C599 1.390 . S
C595 C589 1.465 . S
C595 C594 1.396 . S
C595 C596 1.399 . S
C596 H582 0.929 . S
C596 C595 1.399 . S
C596 C597 1.385 . S
C597 H583 0.931 . S
C597 C596 1.385 . S
C597 C598 1.389 . S
C598 C597 1.389 . S
C598 C599 1.387 . S
C599 H584 0.930 . S
C599 C594 1.390 . S
C599 C598 1.387 . S
H600 C612 0.930 . S
H601 C614 0.930 . S
H602 C615 0.930 . S
H603 C619 0.959 . S
H604 C619 0.959 . S
H605 C619 0.961 . S
H606 C620 0.960 . S
H607 C620 0.961 . S
H608 C620 0.959 . S
H609 C623 0.929 . S
H610 C624 0.931 . S
H611 C626 0.930 . S
C612 H600 0.930 . S
C612 C613 1.399 . S
C612 C617 1.399 . S
C613 C612 1.399 . S
C613 C614 1.376 . S
C614 H601 0.930 . S
C614 C613 1.376 . S
C614 C615 1.388 . S
C615 H602 0.930 . S
C615 C614 1.388 . S
C615 C616 1.390 . S
C616 C615 1.390 . S
C616 C617 1.394 . S
C616 C622 1.465 . S
C617 C612 1.399 . S
C617 C616 1.394 . S
C617 C618 1.516 . S
C618 C617 1.516 . S
C618 C619 1.502 . S
C618 C620 1.561 . S
C618 C621 1.526 . S
C619 H603 0.959 . S
C619 H604 0.959 . S
C619 H605 0.961 . S
C619 C618 1.502 . S
C620 H606 0.960 . S
C620 H607 0.961 . S
C620 H608 0.959 . S
C620 C618 1.561 . S
C621 C618 1.526 . S
C621 C622 1.396 . S
C621 C626 1.390 . S
C622 C616 1.465 . S
C622 C621 1.396 . S
C622 C623 1.399 . S
C623 H609 0.929 . S
C623 C622 1.399 . S
C623 C624 1.385 . S
C624 H610 0.931 . S
C624 C623 1.385 . S
C624 C625 1.389 . S
C625 C624 1.389 . S
C625 C626 1.387 . S
C626 H611 0.930 . S
C626 C621 1.390 . S
C626 C625 1.387 . S
H627 C639 0.930 . S
H628 C641 0.930 . S
H629 C642 0.930 . S
H630 C646 0.959 . S
H631 C646 0.959 . S
H632 C646 0.961 1_556 S
H633 C647 0.960 . S
H634 C647 0.961 . S
H635 C647 0.959 . S
H636 C650 0.929 . S
H637 C651 0.931 . S
H638 C653 0.930 . S
C639 H627 0.930 . S
C639 C640 1.399 . S
C639 C644 1.399 . S
C640 C639 1.399 . S
C640 C641 1.376 . S
C641 H628 0.930 . S
C641 C640 1.376 . S
C641 C642 1.388 . S
C642 H629 0.930 . S
C642 C641 1.388 . S
C642 C643 1.390 . S
C643 C642 1.390 . S
C643 C644 1.394 . S
C643 C649 1.465 1_556 S
C644 C639 1.399 . S
C644 C643 1.394 . S
C644 C645 1.516 . S
C645 C644 1.516 . S
C645 C646 1.502 1_556 S
C645 C647 1.561 . S
C645 C648 1.526 1_556 S
C646 H630 0.959 . S
C646 H631 0.959 . S
C646 H632 0.961 1_554 S
C646 C645 1.502 1_554 S
C647 H633 0.960 . S
C647 H634 0.961 . S
C647 H635 0.959 . S
C647 C645 1.561 . S
C648 C645 1.526 1_554 S
C648 C649 1.396 . S
C648 C653 1.390 . S
C649 C643 1.465 1_554 S
C649 C648 1.396 . S
C649 C650 1.399 . S
C650 H636 0.929 . S
C650 C649 1.399 . S
C650 C651 1.385 . S
C651 H637 0.931 . S
C651 C650 1.385 . S
C651 C652 1.389 . S
C652 C651 1.389 . S
C652 C653 1.387 . S
C653 H638 0.930 . S
C653 C648 1.390 . S
C653 C652 1.387 . S
H654 C666 0.930 . S
H655 C668 0.930 . S
H656 C669 0.930 . S
H657 C673 0.959 . S
H658 C673 0.959 . S
H659 C673 0.961 . S
H660 C674 0.960 . S
H661 C674 0.961 . S
H662 C674 0.959 . S
H663 C677 0.929 . S
H664 C678 0.931 . S
H665 C680 0.930 . S
C666 H654 0.930 . S
C666 C667 1.399 . S
C666 C671 1.399 . S
C667 C666 1.399 . S
C667 C668 1.376 . S
C668 H655 0.930 . S
C668 C667 1.376 . S
C668 C669 1.388 . S
C669 H656 0.930 . S
C669 C668 1.388 . S
C669 C670 1.390 . S
C670 C669 1.390 . S
C670 C671 1.394 . S
C670 C676 1.465 . S
C671 C666 1.399 . S
C671 C670 1.394 . S
C671 C672 1.516 . S
C672 C671 1.516 . S
C672 C673 1.502 . S
C672 C674 1.561 . S
C672 C675 1.526 . S
C673 H657 0.959 . S
C673 H658 0.959 . S
C673 H659 0.961 . S
C673 C672 1.502 . S
C674 H660 0.960 . S
C674 H661 0.961 . S
C674 H662 0.959 . S
C674 C672 1.561 . S
C675 C672 1.526 . S
C675 C676 1.396 . S
C675 C680 1.390 . S
C676 C670 1.465 . S
C676 C675 1.396 . S
C676 C677 1.399 . S
C677 H663 0.929 . S
C677 C676 1.399 . S
C677 C678 1.385 . S
C678 H664 0.931 . S
C678 C677 1.385 . S
C678 C679 1.389 . S
C679 C678 1.389 . S
C679 C680 1.387 . S
C680 H665 0.930 . S
C680 C675 1.390 . S
C680 C679 1.387 . S
H681 C693 0.930 . S
H682 C695 0.930 . S
H683 C696 0.930 . S
H684 C700 0.959 . S
H685 C700 0.959 . S
H686 C700 0.961 . S
H687 C701 0.960 . S
H688 C701 0.961 . S
H689 C701 0.959 . S
H690 C704 0.929 . S
H691 C705 0.931 . S
H692 C707 0.930 . S
C693 H681 0.930 . S
C693 C694 1.399 . S
C693 C698 1.399 . S
C694 C693 1.399 . S
C694 C695 1.376 . S
C695 H682 0.930 . S
C695 C694 1.376 . S
C695 C696 1.388 . S
C696 H683 0.930 . S
C696 C695 1.388 . S
C696 C697 1.390 . S
C697 C696 1.390 . S
C697 C698 1.394 . S
C697 C703 1.465 . S
C698 C693 1.399 . S
C698 C697 1.394 . S
C698 C699 1.516 . S
C699 C698 1.516 . S
C699 C700 1.502 . S
C699 C701 1.561 . S
C699 C702 1.526 . S
C700 H684 0.959 . S
C700 H685 0.959 . S
C700 H686 0.961 . S
C700 C699 1.502 . S
C701 H687 0.960 . S
C701 H688 0.961 . S
C701 H689 0.959 . S
C701 C699 1.561 . S
C702 C699 1.526 . S
C702 C703 1.396 . S
C702 C707 1.390 . S
C703 C697 1.465 . S
C703 C702 1.396 . S
C703 C704 1.399 . S
C704 H690 0.929 . S
C704 C703 1.399 . S
C704 C705 1.385 . S
C705 H691 0.931 . S
C705 C704 1.385 . S
C705 C706 1.389 . S
C706 C705 1.389 . S
C706 C707 1.387 . S
C707 H692 0.930 . S
C707 C702 1.390 . S
C707 C706 1.387 . S
H708 C720 0.930 . S
H709 C722 0.930 . S
H710 C723 0.959 . S
H711 C727 0.959 . S
H712 C727 0.959 . S
H713 C727 0.961 . S
H714 C728 0.960 . S
H715 C728 0.961 . S
H716 C728 0.959 . S
H717 C731 0.929 1_556 S
H718 C732 0.931 . S
H719 C734 0.930 . S
C720 H708 0.930 . S
C720 C721 1.399 . S
C720 C725 1.399 . S
C721 C720 1.399 . S
C721 C722 1.376 . S
C722 H709 0.930 . S
C722 C721 1.376 . S
C722 C723 1.357 1_565 S
C723 H710 0.959 . S
C723 C722 1.357 1_545 S
C723 C724 1.394 1_545 S
C724 C723 1.394 1_565 S
C724 C725 1.394 . S
C724 C730 1.465 1_566 S
C725 C720 1.399 . S
C725 C724 1.394 . S
C725 C726 1.516 1_556 S
C726 C725 1.516 1_554 S
C726 C727 1.502 . S
C726 C728 1.561 . S
C726 C729 1.526 1_565 S
C727 H711 0.959 . S
C727 H712 0.959 . S
C727 H713 0.961 . S
C727 C726 1.502 . S
C728 H714 0.960 . S
C728 H715 0.961 . S
C728 H716 0.959 . S
C728 C726 1.561 . S
C729 C726 1.526 1_545 S
C729 C730 1.396 . S
C729 C734 1.390 . S
C730 C724 1.465 1_544 S
C730 C729 1.396 . S
C730 C731 1.399 . S
C731 H717 0.929 1_554 S
C731 C730 1.399 . S
C731 C732 1.385 . S
C732 H718 0.931 . S
C732 C731 1.385 . S
C732 C733 1.389 . S
C733 C732 1.389 . S
C733 C734 1.387 . S
C734 H719 0.930 . S
C734 C729 1.390 . S
C734 C733 1.387 . S
H735 C747 0.930 . S
H736 C749 0.930 . S
H737 C750 0.930 . S
H738 C754 0.959 . S
H739 C754 0.959 . S
H740 C754 0.961 . S
H741 C755 0.960 . S
H742 C755 0.961 . S
H743 C755 0.959 . S
H744 C758 0.929 . S
H745 C759 0.931 . S
H746 C761 0.930 . S
C747 H735 0.930 . S
C747 C748 1.399 . S
C747 C752 1.399 . S
C748 C747 1.399 . S
C748 C749 1.376 . S
C749 H736 0.930 . S
C749 C748 1.376 . S
C749 C750 1.388 . S
C750 H737 0.930 . S
C750 C749 1.388 . S
C750 C751 1.390 . S
C751 C750 1.390 . S
C751 C752 1.394 . S
C751 C757 1.465 . S
C752 C747 1.399 . S
C752 C751 1.394 . S
C752 C753 1.516 . S
C753 C752 1.516 . S
C753 C754 1.502 . S
C753 C755 1.561 . S
C753 C756 1.526 . S
C754 H738 0.959 . S
C754 H739 0.959 . S
C754 H740 0.961 . S
C754 C753 1.502 . S
C755 H741 0.960 . S
C755 H742 0.961 . S
C755 H743 0.959 . S
C755 C753 1.561 . S
C756 C753 1.526 . S
C756 C757 1.396 . S
C756 C761 1.390 . S
C757 C751 1.465 . S
C757 C756 1.396 . S
C757 C758 1.399 . S
C758 H744 0.929 . S
C758 C757 1.399 . S
C758 C759 1.385 . S
C759 H745 0.931 . S
C759 C758 1.385 . S
C759 C760 1.389 . S
C760 C759 1.389 . S
C760 C761 1.387 . S
C761 H746 0.930 . S
C761 C756 1.390 . S
C761 C760 1.387 . S
H762 C774 0.930 . S
H763 C776 0.930 . S
H764 C777 0.930 . S
H765 C781 0.959 . S
H766 C781 0.959 . S
H767 C781 0.961 . S
H768 C782 0.960 1_455 S
H769 C782 0.961 . S
H770 C782 0.959 1_455 S
H771 C785 0.929 1_455 S
H772 C786 0.931 . S
H773 C788 0.930 . S
C774 H762 0.930 . S
C774 C775 1.399 . S
C774 C779 1.399 . S
C775 C774 1.399 . S
C775 C776 1.376 . S
C776 H763 0.930 . S
C776 C775 1.376 . S
C776 C777 1.388 . S
C777 H764 0.930 . S
C777 C776 1.388 . S
C777 C778 1.390 . S
C778 C777 1.390 . S
C778 C779 1.394 . S
C778 C784 1.465 1_455 S
C779 C774 1.399 . S
C779 C778 1.394 . S
C779 C780 1.516 1_455 S
C780 C779 1.516 1_655 S
C780 C781 1.502 . S
C780 C782 1.561 . S
C780 C783 1.526 . S
C781 H765 0.959 . S
C781 H766 0.959 . S
C781 H767 0.961 . S
C781 C780 1.502 . S
C782 H768 0.960 1_655 S
C782 H769 0.961 . S
C782 H770 0.959 1_655 S
C782 C780 1.561 . S
C783 C780 1.526 . S
C783 C784 1.396 . S
C783 C788 1.390 . S
C784 C778 1.465 1_655 S
C784 C783 1.396 . S
C784 C785 1.399 . S
C785 H771 0.929 1_655 S
C785 C784 1.399 . S
C785 C786 1.385 . S
C786 H772 0.931 . S
C786 C785 1.385 . S
C786 C787 1.389 . S
C787 C786 1.389 . S
C787 C788 1.387 . S
C788 H773 0.930 . S
C788 C783 1.390 . S
C788 C787 1.387 . S
H789 C801 0.930 . S
H790 C803 0.930 . S
H791 C804 0.930 1_556 S
H792 C808 0.959 . S
H793 C808 0.959 . S
H794 C808 0.961 . S
H795 C809 0.960 . S
H796 C809 0.961 . S
H797 C809 0.959 . S
H798 C812 0.943 . S
H799 C813 0.931 . S
H800 C815 0.930 . S
C801 H789 0.930 . S
C801 C802 1.399 . S
C801 C806 1.399 . S
C802 C801 1.399 . S
C802 C803 1.376 . S
C803 H790 0.930 . S
C803 C802 1.376 . S
C803 C804 1.388 . S
C804 H791 0.930 1_554 S
C804 C803 1.388 . S
C804 C805 1.390 . S
C805 C804 1.390 . S
C805 C806 1.394 . S
C805 C811 1.465 1_564 S
C806 C801 1.399 . S
C806 C805 1.394 . S
C806 C807 1.516 1_565 S
C807 C806 1.516 1_545 S
C807 C808 1.502 . S
C807 C809 1.561 . S
C807 C810 1.526 1_554 S
C808 H792 0.959 . S
C808 H793 0.959 . S
C808 H794 0.961 . S
C808 C807 1.502 . S
C809 H795 0.960 . S
C809 H796 0.961 . S
C809 H797 0.959 . S
C809 C807 1.561 . S
C810 C807 1.526 1_556 S
C810 C811 1.396 . S
C810 C815 1.390 . S
C811 C805 1.465 1_546 S
C811 C810 1.396 . S
C811 C812 1.396 1_545 S
C812 H798 0.943 . S
C812 C811 1.396 1_565 S
C812 C813 1.374 1_565 S
C813 H799 0.931 . S
C813 C812 1.374 1_545 S
C813 C814 1.389 . S
C814 C813 1.389 . S
C814 C815 1.387 . S
C815 H800 0.930 . S
C815 C810 1.390 . S
C815 C814 1.387 . S
H816 C828 0.930 . S
H817 C830 0.930 . S
H818 C831 0.930 . S
H819 C835 0.959 . S
H820 C835 0.959 . S
H821 C835 0.961 . S
H822 C836 0.960 . S
H823 C836 0.961 . S
H824 C836 0.959 . S
H825 C839 0.929 . S
H826 C840 0.931 . S
H827 C842 0.930 . S
C828 H816 0.930 . S
C828 C829 1.399 . S
C828 C833 1.399 . S
C829 C828 1.399 . S
C829 C830 1.376 . S
C830 H817 0.930 . S
C830 C829 1.376 . S
C830 C831 1.388 . S
C831 H818 0.930 . S
C831 C830 1.388 . S
C831 C832 1.390 . S
C832 C831 1.390 . S
C832 C833 1.394 . S
C832 C838 1.465 . S
C833 C828 1.399 . S
C833 C832 1.394 . S
C833 C834 1.516 . S
C834 C833 1.516 . S
C834 C835 1.502 . S
C834 C836 1.561 . S
C834 C837 1.526 . S
C835 H819 0.959 . S
C835 H820 0.959 . S
C835 H821 0.961 . S
C835 C834 1.502 . S
C836 H822 0.960 . S
C836 H823 0.961 . S
C836 H824 0.959 . S
C836 C834 1.561 . S
C837 C834 1.526 . S
C837 C838 1.396 . S
C837 C842 1.390 . S
C838 C832 1.465 . S
C838 C837 1.396 . S
C838 C839 1.399 . S
C839 H825 0.929 . S
C839 C838 1.399 . S
C839 C840 1.385 . S
C840 H826 0.931 . S
C840 C839 1.385 . S
C840 C841 1.389 . S
C841 C840 1.389 . S
C841 C842 1.387 . S
C842 H827 0.930 . S
C842 C837 1.390 . S
C842 C841 1.387 . S
H843 C855 0.930 . S
H844 C857 0.930 . S
H845 C858 0.930 . S
H846 C862 0.959 . S
H847 C862 0.959 . S
H848 C862 0.961 1_455 S
H849 C863 0.960 . S
H850 C863 0.961 . S
H851 C863 0.959 . S
H852 C866 0.929 . S
H853 C867 0.931 . S
H854 C869 0.930 . S
C855 H843 0.930 . S
C855 C856 1.399 . S
C855 C860 1.399 . S
C856 C855 1.399 . S
C856 C857 1.376 . S
C857 H844 0.930 . S
C857 C856 1.376 . S
C857 C858 1.388 . S
C858 H845 0.930 . S
C858 C857 1.388 . S
C858 C859 1.390 . S
C859 C858 1.390 . S
C859 C860 1.394 . S
C859 C865 1.465 1_455 S
C860 C855 1.399 . S
C860 C859 1.394 . S
C860 C861 1.516 . S
C861 C860 1.516 . S
C861 C862 1.502 1_455 S
C861 C863 1.561 . S
C861 C864 1.526 1_455 S
C862 H846 0.959 . S
C862 H847 0.959 . S
C862 H848 0.961 1_655 S
C862 C861 1.502 1_655 S
C863 H849 0.960 . S
C863 H850 0.961 . S
C863 H851 0.959 . S
C863 C861 1.561 . S
C864 C861 1.526 1_655 S
C864 C865 1.396 . S
C864 C869 1.390 . S
C865 C859 1.465 1_655 S
C865 C864 1.396 . S
C865 C866 1.399 . S
C866 H852 0.929 . S
C866 C865 1.399 . S
C866 C867 1.385 . S
C867 H853 0.931 . S
C867 C866 1.385 . S
C867 C868 1.389 . S
C868 C867 1.389 . S
C868 C869 1.387 . S
C869 H854 0.930 . S
C869 C864 1.390 . S
C869 C868 1.387 . S
H870 C882 0.930 . S
H871 C884 0.930 . S
H872 C885 0.930 . S
H873 C889 0.959 . S
H874 C889 0.959 . S
H875 C889 0.961 . S
H876 C890 0.960 . S
H877 C890 0.961 . S
H878 C890 0.959 . S
H879 C893 0.929 . S
H880 C894 0.931 . S
H881 C896 0.930 . S
C882 H870 0.930 . S
C882 C883 1.399 . S
C882 C887 1.399 . S
C883 C882 1.399 . S
C883 C884 1.376 . S
C884 H871 0.930 . S
C884 C883 1.376 . S
C884 C885 1.388 1_545 S
C885 H872 0.930 . S
C885 C884 1.388 1_565 S
C885 C886 1.390 . S
C886 C885 1.390 . S
C886 C887 1.394 1_565 S
C886 C892 1.465 . S
C887 C882 1.399 . S
C887 C886 1.394 1_545 S
C887 C888 1.516 . S
C888 C887 1.516 . S
C888 C889 1.502 . S
C888 C890 1.561 1_545 S
C888 C891 1.526 1_545 S
C889 H873 0.959 . S
C889 H874 0.959 . S
C889 H875 0.961 . S
C889 C888 1.502 . S
C890 H876 0.960 . S
C890 H877 0.961 . S
C890 H878 0.959 . S
C890 C888 1.561 1_565 S
C891 C888 1.526 1_565 S
C891 C892 1.396 . S
C891 C896 1.390 . S
C892 C886 1.465 . S
C892 C891 1.396 . S
C892 C893 1.399 . S
C893 H879 0.929 . S
C893 C892 1.399 . S
C893 C894 1.385 . S
C894 H880 0.931 . S
C894 C893 1.385 . S
C894 C895 1.389 . S
C895 C894 1.389 . S
C895 C896 1.387 . S
C896 H881 0.930 . S
C896 C891 1.390 . S
C896 C895 1.387 . S
H897 C909 0.930 . S
H898 C911 0.930 . S
H899 C912 0.930 . S
H900 C916 0.959 . S
H901 C916 0.959 . S
H902 C916 0.961 . S
H903 C917 0.960 . S
H904 C917 0.961 . S
H905 C917 0.959 . S
H906 C920 0.929 . S
H907 C921 0.931 . S
H908 C923 0.930 . S
C909 H897 0.930 . S
C909 C910 1.399 . S
C909 C914 1.399 . S
C910 C909 1.399 . S
C910 C911 1.376 . S
C911 H898 0.930 . S
C911 C910 1.376 . S
C911 C912 1.388 . S
C912 H899 0.930 . S
C912 C911 1.388 . S
C912 C913 1.390 . S
C913 C912 1.390 . S
C913 C914 1.394 . S
C913 C919 1.465 . S
C914 C909 1.399 . S
C914 C913 1.394 . S
C914 C915 1.516 . S
C915 C914 1.516 . S
C915 C916 1.502 . S
C915 C917 1.561 . S
C915 C918 1.526 . S
C916 H900 0.959 . S
C916 H901 0.959 . S
C916 H902 0.961 . S
C916 C915 1.502 . S
C917 H903 0.960 . S
C917 H904 0.961 . S
C917 H905 0.959 . S
C917 C915 1.561 . S
C918 C915 1.526 . S
C918 C919 1.396 . S
C918 C923 1.390 . S
C919 C913 1.465 . S
C919 C918 1.396 . S
C919 C920 1.399 . S
C920 H906 0.929 . S
C920 C919 1.399 . S
C920 C921 1.385 . S
C921 H907 0.931 . S
C921 C920 1.385 . S
C921 C922 1.389 . S
C922 C921 1.389 . S
C922 C923 1.387 . S
C923 H908 0.930 . S
C923 C918 1.390 . S
C923 C922 1.387 . S
H924 C936 0.930 . S
H925 C938 0.930 . S
H926 C939 0.930 . S
H927 C943 0.959 . S
H928 C943 0.959 . S
H929 C943 0.961 . S
H930 C944 0.960 . S
H931 C944 0.961 . S
H932 C944 0.959 . S
H933 C947 0.929 . S
H934 C948 0.931 . S
H935 C950 0.930 . S
C936 H924 0.930 . S
C936 C937 1.399 . S
C936 C941 1.399 . S
C937 C936 1.399 . S
C937 C938 1.376 1_556 S
C938 H925 0.930 . S
C938 C937 1.376 1_554 S
C938 C939 1.388 . S
C939 H926 0.930 . S
C939 C938 1.388 . S
C939 C940 1.390 . S
C940 C939 1.390 . S
C940 C941 1.394 1_554 S
C940 C946 1.476 1_655 S
C941 C936 1.399 . S
C941 C940 1.394 1_556 S
C941 C942 1.516 . S
C942 C941 1.516 . S
C942 C943 1.502 1_655 S
C942 C944 1.561 . S
C942 C945 1.526 1_655 S
C943 H927 0.959 . S
C943 H928 0.959 . S
C943 H929 0.961 . S
C943 C942 1.502 1_455 S
C944 H930 0.960 . S
C944 H931 0.961 . S
C944 H932 0.959 . S
C944 C942 1.561 . S
C945 C942 1.526 1_455 S
C945 C946 1.396 1_556 S
C945 C950 1.390 . S
C946 C940 1.476 1_455 S
C946 C945 1.396 1_554 S
C946 C947 1.391 . S
C947 H933 0.929 . S
C947 C946 1.391 . S
C947 C948 1.385 . S
C948 H934 0.931 . S
C948 C947 1.385 . S
C948 C949 1.389 1_554 S
C949 C948 1.389 1_556 S
C949 C950 1.387 . S
C950 H935 0.930 . S
C950 C945 1.390 . S
C950 C949 1.387 . S
H951 C963 0.930 . S
H952 C965 0.930 . S
H953 C966 0.930 . S
H954 C970 0.959 . S
H955 C970 0.959 . S
H956 C970 0.961 . S
H957 C971 0.960 . S
H958 C971 0.961 . S
H959 C971 0.959 . S
H960 C974 0.943 . S
H961 C975 0.931 . S
H962 C977 0.930 . S
C963 H951 0.930 . S
C963 C964 1.399 . S
C963 C968 1.399 . S
C964 C963 1.399 . S
C964 C965 1.376 . S
C965 H952 0.930 . S
C965 C964 1.376 . S
C965 C966 1.388 . S
C966 H953 0.930 . S
C966 C965 1.388 . S
C966 C967 1.390 . S
C967 C966 1.390 . S
C967 C968 1.394 . S
C967 C973 1.442 1_455 S
C968 C963 1.399 . S
C968 C967 1.394 . S
C968 C969 1.516 . S
C969 C968 1.516 . S
C969 C970 1.502 1_455 S
C969 C971 1.561 . S
C969 C972 1.526 1_455 S
C970 H954 0.959 . S
C970 H955 0.959 . S
C970 H956 0.961 . S
C970 C969 1.502 1_655 S
C971 H957 0.960 . S
C971 H958 0.961 . S
C971 H959 0.959 . S
C971 C969 1.561 . S
C972 C969 1.526 1_655 S
C972 C973 1.406 . S
C972 C977 1.390 . S
C973 C967 1.442 1_655 S
C973 C972 1.406 . S
C973 C974 1.413 . S
C974 H960 0.943 . S
C974 C973 1.413 . S
C974 C975 1.385 . S
C975 H961 0.931 . S
C975 C974 1.385 . S
C975 C976 1.389 . S
C976 C975 1.389 . S
C976 C977 1.387 . S
C977 H962 0.930 . S
C977 C972 1.390 . S
C977 C976 1.387 . S
H978 C990 0.907 1_545 S
H979 C992 0.930 . S
H980 C993 0.930 . S
H981 C997 0.959 . S
H982 C997 0.959 . S
H983 C997 0.961 . S
H984 C998 0.960 . S
H985 C998 0.961 1_545 S
H986 C998 0.959 . S
H987 C1001 0.929 . S
H988 C1002 0.928 1_565 S
H989 C1004 0.930 . S
C990 H978 0.907 1_565 S
C990 C991 1.399 . S
C990 C995 1.399 . S
C991 C990 1.399 . S
C991 C992 1.376 . S
C992 H979 0.930 . S
C992 C991 1.376 . S
C992 C993 1.388 . S
C993 H980 0.930 . S
C993 C992 1.388 . S
C993 C994 1.390 . S
C994 C993 1.390 . S
C994 C995 1.394 . S
C994 C1000 1.465 . S
C995 C990 1.399 . S
C995 C994 1.394 . S
C995 C996 1.516 1_565 S
C996 C995 1.516 1_545 S
C996 C997 1.502 . S
C996 C998 1.561 1_545 S
C996 C999 1.526 . S
C997 H981 0.959 . S
C997 H982 0.959 . S
C997 H983 0.961 . S
C997 C996 1.502 . S
C998 H984 0.960 . S
C998 H985 0.961 1_565 S
C998 H986 0.959 . S
C998 C996 1.561 1_565 S
C999 C996 1.526 . S
C999 C1000 1.396 1_545 S
C999 C1004 1.390 . S
C1000 C994 1.465 . S
C1000 C999 1.396 1_565 S
C1000 C1001 1.399 . S
C1001 H987 0.929 . S
C1001 C1000 1.399 . S
C1001 C1002 1.385 1_565 S
C1002 H988 0.928 1_545 S
C1002 C1001 1.385 1_545 S
C1002 C1003 1.389 . S
C1003 C1002 1.389 . S
C1003 C1004 1.387 . S
C1004 H989 0.930 . S
C1004 C999 1.390 . S
C1004 C1003 1.387 . S
H1005 C1017 0.930 . S
H1006 C1019 0.930 . S
H1007 C1020 0.930 . S
H1008 C1024 0.959 . S
H1009 C1024 0.959 . S
H1010 C1024 0.961 . S
H1011 C1025 0.960 . S
H1012 C1025 0.961 . S
H1013 C1025 0.959 . S
H1014 C1028 0.929 . S
H1015 C1029 0.931 . S
H1016 C1031 0.930 . S
C1017 H1005 0.930 . S
C1017 C1018 1.399 . S
C1017 C1022 1.399 . S
C1018 C1017 1.399 . S
C1018 C1019 1.376 1_554 S
C1019 H1006 0.930 . S
C1019 C1018 1.376 1_556 S
C1019 C1020 1.388 . S
C1020 H1007 0.930 . S
C1020 C1019 1.388 . S
C1020 C1021 1.390 1_556 S
C1021 C1020 1.390 1_554 S
C1021 C1022 1.394 . S
C1021 C1027 1.465 . S
C1022 C1017 1.399 . S
C1022 C1021 1.394 . S
C1022 C1023 1.516 . S
C1023 C1022 1.516 . S
C1023 C1024 1.502 . S
C1023 C1025 1.561 . S
C1023 C1026 1.526 . S
C1024 H1008 0.959 . S
C1024 H1009 0.959 . S
C1024 H1010 0.961 . S
C1024 C1023 1.502 . S
C1025 H1011 0.960 . S
C1025 H1012 0.961 . S
C1025 H1013 0.959 . S
C1025 C1023 1.561 . S
C1026 C1023 1.526 . S
C1026 C1027 1.412 . S
C1026 C1031 1.390 . S
C1027 C1021 1.465 . S
C1027 C1026 1.412 . S
C1027 C1028 1.386 1_554 S
C1028 H1014 0.929 . S
C1028 C1027 1.386 1_556 S
C1028 C1029 1.385 . S
C1029 H1015 0.931 . S
C1029 C1028 1.385 . S
C1029 C1030 1.389 1_556 S
C1030 C1029 1.389 1_554 S
C1030 C1031 1.387 . S
C1031 H1016 0.930 . S
C1031 C1026 1.390 . S
C1031 C1030 1.387 . S
H1032 C1044 0.930 . S
H1033 C1046 0.930 . S
H1034 C1047 0.930 . S
H1035 C1051 0.959 . S
H1036 C1051 0.959 . S
H1037 C1051 0.961 . S
H1038 C1052 0.926 1_565 S
H1039 C1052 0.961 . S
H1040 C1052 0.959 1_565 S
H1041 C1055 0.929 1_565 S
H1042 C1056 0.931 . S
H1043 C1058 0.930 . S
C1044 H1032 0.930 . S
C1044 C1045 1.399 . S
C1044 C1049 1.399 . S
C1045 C1044 1.399 . S
C1045 C1046 1.376 . S
C1046 H1033 0.930 . S
C1046 C1045 1.376 . S
C1046 C1047 1.388 . S
C1047 H1034 0.930 . S
C1047 C1046 1.388 . S
C1047 C1048 1.390 . S
C1048 C1047 1.390 . S
C1048 C1049 1.394 . S
C1048 C1054 1.465 1_565 S
C1049 C1044 1.399 . S
C1049 C1048 1.394 . S
C1049 C1050 1.516 1_565 S
C1050 C1049 1.516 1_545 S
C1050 C1051 1.502 . S
C1050 C1052 1.561 . S
C1050 C1053 1.526 . S
C1051 H1035 0.959 . S
C1051 H1036 0.959 . S
C1051 H1037 0.961 . S
C1051 C1050 1.502 . S
C1052 H1038 0.926 1_545 S
C1052 H1039 0.961 . S
C1052 H1040 0.959 1_545 S
C1052 C1050 1.561 . S
C1053 C1050 1.526 . S
C1053 C1054 1.396 . S
C1053 C1058 1.390 . S
C1054 C1048 1.465 1_545 S
C1054 C1053 1.396 . S
C1054 C1055 1.399 . S
C1055 H1041 0.929 1_545 S
C1055 C1054 1.399 . S
C1055 C1056 1.385 . S
C1056 H1042 0.931 . S
C1056 C1055 1.385 . S
C1056 C1057 1.389 . S
C1057 C1056 1.389 . S
C1057 C1058 1.387 . S
C1058 H1043 0.930 . S
C1058 C1053 1.390 . S
C1058 C1057 1.387 . S
H1059 C1071 0.930 . S
H1060 C1073 0.930 . S
H1061 C1074 0.930 . S
H1062 C1078 0.959 . S
H1063 C1078 0.959 . S
H1064 C1078 0.961 . S
H1065 C1079 0.960 . S
H1066 C1079 0.961 . S
H1067 C1079 0.959 . S
H1068 C1082 0.929 . S
H1069 C1083 0.931 . S
H1070 C1085 0.930 . S
C1071 H1059 0.930 . S
C1071 C1072 1.399 . S
C1071 C1076 1.399 . S
C1072 C1071 1.399 . S
C1072 C1073 1.376 . S
C1073 H1060 0.930 . S
C1073 C1072 1.376 . S
C1073 C1074 1.388 . S
C1074 H1061 0.930 . S
C1074 C1073 1.388 . S
C1074 C1075 1.390 . S
C1075 C1074 1.390 . S
C1075 C1076 1.394 . S
C1075 C1081 1.465 . S
C1076 C1071 1.399 . S
C1076 C1075 1.394 . S
C1076 C1077 1.516 . S
C1077 C1076 1.516 . S
C1077 C1078 1.502 . S
C1077 C1079 1.561 . S
C1077 C1080 1.526 . S
C1078 H1062 0.959 . S
C1078 H1063 0.959 . S
C1078 H1064 0.961 . S
C1078 C1077 1.502 . S
C1079 H1065 0.960 . S
C1079 H1066 0.961 . S
C1079 H1067 0.959 . S
C1079 C1077 1.561 . S
C1080 C1077 1.526 . S
C1080 C1081 1.396 . S
C1080 C1085 1.390 . S
C1081 C1075 1.465 . S
C1081 C1080 1.396 . S
C1081 C1082 1.399 . S
C1082 H1068 0.929 . S
C1082 C1081 1.399 . S
C1082 C1083 1.385 . S
C1083 H1069 0.931 . S
C1083 C1082 1.385 . S
C1083 C1084 1.389 . S
C1084 C1083 1.389 . S
C1084 C1085 1.387 . S
C1085 H1070 0.930 . S
C1085 C1080 1.390 . S
C1085 C1084 1.387 . S
H1086 C1098 0.930 . S
H1087 C1100 0.930 . S
H1088 C1101 0.930 . S
H1089 C1105 0.959 . S
H1090 C1105 0.959 . S
H1091 C1105 0.961 . S
H1092 C1106 0.999 . S
H1093 C1106 0.940 1_455 S
H1094 C1106 0.982 . S
H1095 C1109 0.931 . S
H1096 C1110 0.931 . S
H1097 C1112 0.930 . S
C1098 H1086 0.930 . S
C1098 C1099 1.399 . S
C1098 C1103 1.399 . S
C1099 C1098 1.399 . S
C1099 C1100 1.376 . S
C1100 H1087 0.930 . S
C1100 C1099 1.376 . S
C1100 C1101 1.388 . S
C1101 H1088 0.930 . S
C1101 C1100 1.388 . S
C1101 C1102 1.390 . S
C1102 C1101 1.390 . S
C1102 C1103 1.394 . S
C1102 C1108 1.465 1_655 S
C1103 C1098 1.399 . S
C1103 C1102 1.394 . S
C1103 C1104 1.516 1_655 S
C1104 C1103 1.516 1_455 S
C1104 C1105 1.502 . S
C1104 C1106 1.523 1_455 S
C1104 C1107 1.526 . S
C1105 H1089 0.959 . S
C1105 H1090 0.959 . S
C1105 H1091 0.961 . S
C1105 C1104 1.502 . S
C1106 H1092 0.999 . S
C1106 H1093 0.940 1_655 S
C1106 H1094 0.982 . S
C1106 C1104 1.523 1_655 S
C1107 C1104 1.526 . S
C1107 C1108 1.396 . S
C1107 C1112 1.390 . S
C1108 C1102 1.465 1_455 S
C1108 C1107 1.396 . S
C1108 C1109 1.399 . S
C1109 H1095 0.931 . S
C1109 C1108 1.399 . S
C1109 C1110 1.385 . S
C1110 H1096 0.931 . S
C1110 C1109 1.385 . S
C1110 C1111 1.389 . S
C1111 C1110 1.389 . S
C1111 C1112 1.387 . S
C1112 H1097 0.930 . S
C1112 C1107 1.390 . S
C1112 C1111 1.387 . S
H1113 C1125 0.930 . S
H1114 C1127 0.930 . S
H1115 C1128 0.930 1_565 S
H1116 C1132 0.959 . S
H1117 C1132 0.959 . S
H1118 C1132 0.961 . S
H1119 C1133 0.960 . S
H1120 C1133 0.961 . S
H1121 C1133 0.959 . S
H1122 C1136 0.929 . S
H1123 C1137 0.931 . S
H1124 C1139 0.930 . S
C1125 H1113 0.930 . S
C1125 C1126 1.399 . S
C1125 C1130 1.399 . S
C1126 C1125 1.399 . S
C1126 C1127 1.376 . S
C1127 H1114 0.930 . S
C1127 C1126 1.376 . S
C1127 C1128 1.388 . S
C1128 H1115 0.930 1_545 S
C1128 C1127 1.388 . S
C1128 C1129 1.390 . S
C1129 C1128 1.390 . S
C1129 C1130 1.394 . S
C1129 C1135 1.465 1_545 S
C1130 C1125 1.399 . S
C1130 C1129 1.394 . S
C1130 C1131 1.516 . S
C1131 C1130 1.516 . S
C1131 C1132 1.502 . S
C1131 C1133 1.561 . S
C1131 C1134 1.526 1_545 S
C1132 H1116 0.959 . S
C1132 H1117 0.959 . S
C1132 H1118 0.961 . S
C1132 C1131 1.502 . S
C1133 H1119 0.960 . S
C1133 H1120 0.961 . S
C1133 H1121 0.959 . S
C1133 C1131 1.561 . S
C1134 C1131 1.526 1_565 S
C1134 C1135 1.396 . S
C1134 C1139 1.390 . S
C1135 C1129 1.465 1_565 S
C1135 C1134 1.396 . S
C1135 C1136 1.399 . S
C1136 H1122 0.929 . S
C1136 C1135 1.399 . S
C1136 C1137 1.385 . S
C1137 H1123 0.931 . S
C1137 C1136 1.385 . S
C1137 C1138 1.389 . S
C1138 C1137 1.389 . S
C1138 C1139 1.387 . S
C1139 H1124 0.930 . S
C1139 C1134 1.390 . S
C1139 C1138 1.387 . S
H1140 C1152 0.930 . S
H1141 C1154 0.930 . S
H1142 C1155 0.930 . S
H1143 C1159 0.959 . S
H1144 C1159 0.959 . S
H1145 C1159 0.961 . S
H1146 C1160 0.960 . S
H1147 C1160 0.961 . S
H1148 C1160 0.959 . S
H1149 C1163 0.929 . S
H1150 C1164 0.931 . S
H1151 C1166 0.930 . S
C1152 H1140 0.930 . S
C1152 C1153 1.399 . S
C1152 C1157 1.399 . S
C1153 C1152 1.399 . S
C1153 C1154 1.376 . S
C1154 H1141 0.930 . S
C1154 C1153 1.376 . S
C1154 C1155 1.388 . S
C1155 H1142 0.930 . S
C1155 C1154 1.388 . S
C1155 C1156 1.390 . S
C1156 C1155 1.390 . S
C1156 C1157 1.394 . S
C1156 C1162 1.465 . S
C1157 C1152 1.399 . S
C1157 C1156 1.394 . S
C1157 C1158 1.516 . S
C1158 C1157 1.516 . S
C1158 C1159 1.502 . S
C1158 C1160 1.561 . S
C1158 C1161 1.526 . S
C1159 H1143 0.959 . S
C1159 H1144 0.959 . S
C1159 H1145 0.961 . S
C1159 C1158 1.502 . S
C1160 H1146 0.960 . S
C1160 H1147 0.961 . S
C1160 H1148 0.959 . S
C1160 C1158 1.561 . S
C1161 C1158 1.526 . S
C1161 C1162 1.396 . S
C1161 C1166 1.390 . S
C1162 C1156 1.465 . S
C1162 C1161 1.396 . S
C1162 C1163 1.399 . S
C1163 H1149 0.929 . S
C1163 C1162 1.399 . S
C1163 C1164 1.385 . S
C1164 H1150 0.931 . S
C1164 C1163 1.385 . S
C1164 C1165 1.389 . S
C1165 C1164 1.389 . S
C1165 C1166 1.387 . S
C1166 H1151 0.930 . S
C1166 C1161 1.390 . S
C1166 C1165 1.387 . S
H1167 C1179 0.930 . S
H1168 C1181 0.930 . S
H1169 C1182 0.930 . S
H1170 C1186 0.959 . S
H1171 C1186 0.959 . S
H1172 C1186 0.961 . S
H1173 C1187 0.960 1_455 S
H1174 C1187 0.961 . S
H1175 C1187 0.959 . S
H1176 C1190 0.929 . S
H1177 C1191 0.931 . S
H1178 C1193 0.930 . S
C1179 H1167 0.930 . S
C1179 C1180 1.399 . S
C1179 C1184 1.399 . S
C1180 C1179 1.399 . S
C1180 C1181 1.376 . S
C1181 H1168 0.930 . S
C1181 C1180 1.376 . S
C1181 C1182 1.388 . S
C1182 H1169 0.930 . S
C1182 C1181 1.388 . S
C1182 C1183 1.390 . S
C1183 C1182 1.390 . S
C1183 C1184 1.394 . S
C1183 C1189 1.465 1_455 S
C1184 C1179 1.399 . S
C1184 C1183 1.394 . S
C1184 C1185 1.516 . S
C1185 C1184 1.516 . S
C1185 C1186 1.502 . S
C1185 C1187 1.561 1_455 S
C1185 C1188 1.526 1_455 S
C1186 H1170 0.959 . S
C1186 H1171 0.959 . S
C1186 H1172 0.961 . S
C1186 C1185 1.502 . S
C1187 H1173 0.960 1_655 S
C1187 H1174 0.961 . S
C1187 H1175 0.959 . S
C1187 C1185 1.561 1_655 S
C1188 C1185 1.526 1_655 S
C1188 C1189 1.396 . S
C1188 C1193 1.390 . S
C1189 C1183 1.465 1_655 S
C1189 C1188 1.396 . S
C1189 C1190 1.399 . S
C1190 H1176 0.929 . S
C1190 C1189 1.399 . S
C1190 C1191 1.385 . S
C1191 H1177 0.931 . S
C1191 C1190 1.385 . S
C1191 C1192 1.389 . S
C1192 C1191 1.389 . S
C1192 C1193 1.387 . S
C1193 H1178 0.930 . S
C1193 C1188 1.390 . S
C1193 C1192 1.387 . S
H1194 C1206 0.930 . S
H1195 C1208 0.930 . S
H1196 C1209 0.930 . S
H1197 C1213 0.959 . S
H1198 C1213 0.959 . S
H1199 C1213 0.961 . S
H1200 C1214 0.960 . S
H1201 C1214 0.961 . S
H1202 C1214 0.959 . S
H1203 C1217 0.929 . S
H1204 C1218 0.931 . S
H1205 C1220 0.930 . S
C1206 H1194 0.930 . S
C1206 C1207 1.399 . S
C1206 C1211 1.399 . S
C1207 C1206 1.399 . S
C1207 C1208 1.376 . S
C1208 H1195 0.930 . S
C1208 C1207 1.376 . S
C1208 C1209 1.388 . S
C1209 H1196 0.930 . S
C1209 C1208 1.388 . S
C1209 C1210 1.390 . S
C1210 C1209 1.390 . S
C1210 C1211 1.394 . S
C1210 C1216 1.465 . S
C1211 C1206 1.399 . S
C1211 C1210 1.394 . S
C1211 C1212 1.516 . S
C1212 C1211 1.516 . S
C1212 C1213 1.502 . S
C1212 C1214 1.561 . S
C1212 C1215 1.526 . S
C1213 H1197 0.959 . S
C1213 H1198 0.959 . S
C1213 H1199 0.961 . S
C1213 C1212 1.502 . S
C1214 H1200 0.960 . S
C1214 H1201 0.961 . S
C1214 H1202 0.959 . S
C1214 C1212 1.561 . S
C1215 C1212 1.526 . S
C1215 C1216 1.396 . S
C1215 C1220 1.390 . S
C1216 C1210 1.465 . S
C1216 C1215 1.396 . S
C1216 C1217 1.399 . S
C1217 H1203 0.929 . S
C1217 C1216 1.399 . S
C1217 C1218 1.385 . S
C1218 H1204 0.931 . S
C1218 C1217 1.385 . S
C1218 C1219 1.389 . S
C1219 C1218 1.389 . S
C1219 C1220 1.387 . S
C1220 H1205 0.930 . S
C1220 C1215 1.390 . S
C1220 C1219 1.387 . S
H1221 C1233 0.930 . S
H1222 C1235 0.930 . S
H1223 C1236 0.930 . S
H1224 C1240 0.959 . S
H1225 C1240 0.959 . S
H1226 C1240 0.961 . S
H1227 C1241 0.960 . S
H1228 C1241 0.961 . S
H1229 C1241 0.959 . S
H1230 C1244 0.929 . S
H1231 C1245 0.931 . S
H1232 C1247 0.930 . S
C1233 H1221 0.930 . S
C1233 C1234 1.399 . S
C1233 C1238 1.399 . S
C1234 C1233 1.399 . S
C1234 C1235 1.376 . S
C1235 H1222 0.930 . S
C1235 C1234 1.376 . S
C1235 C1236 1.388 . S
C1236 H1223 0.930 . S
C1236 C1235 1.388 . S
C1236 C1237 1.390 . S
C1237 C1236 1.390 . S
C1237 C1238 1.394 . S
C1237 C1243 1.465 . S
C1238 C1233 1.399 . S
C1238 C1237 1.394 . S
C1238 C1239 1.516 . S
C1239 C1238 1.516 . S
C1239 C1240 1.502 . S
C1239 C1241 1.561 . S
C1239 C1242 1.526 . S
C1240 H1224 0.959 . S
C1240 H1225 0.959 . S
C1240 H1226 0.961 . S
C1240 C1239 1.502 . S
C1241 H1227 0.960 . S
C1241 H1228 0.961 . S
C1241 H1229 0.959 . S
C1241 C1239 1.561 . S
C1242 C1239 1.526 . S
C1242 C1243 1.396 . S
C1242 C1247 1.390 . S
C1243 C1237 1.465 . S
C1243 C1242 1.396 . S
C1243 C1244 1.399 . S
C1244 H1230 0.929 . S
C1244 C1243 1.399 . S
C1244 C1245 1.385 . S
C1245 H1231 0.931 . S
C1245 C1244 1.385 . S
C1245 C1246 1.389 . S
C1246 C1245 1.389 . S
C1246 C1247 1.387 . S
C1247 H1232 0.930 . S
C1247 C1242 1.390 . S
C1247 C1246 1.387 . S
H1248 C1260 0.930 . S
H1249 C1262 0.930 1_556 S
H1250 C1263 0.930 . S
H1251 C1267 0.959 . S
H1252 C1267 0.959 . S
H1253 C1267 0.961 . S
H1254 C1268 0.960 . S
H1255 C1268 0.961 . S
H1256 C1268 0.959 . S
H1257 C1271 0.929 . S
H1258 C1272 0.931 . S
H1259 C1274 0.930 . S
C1260 H1248 0.930 . S
C1260 C1261 1.399 . S
C1260 C1265 1.399 . S
C1261 C1260 1.399 . S
C1261 C1262 1.376 . S
C1262 H1249 0.930 1_554 S
C1262 C1261 1.376 . S
C1262 C1263 1.388 . S
C1263 H1250 0.930 . S
C1263 C1262 1.388 . S
C1263 C1264 1.390 . S
C1264 C1263 1.390 . S
C1264 C1265 1.394 . S
C1264 C1270 1.465 . S
C1265 C1260 1.399 . S
C1265 C1264 1.394 . S
C1265 C1266 1.516 . S
C1266 C1265 1.516 . S
C1266 C1267 1.502 . S
C1266 C1268 1.561 . S
C1266 C1269 1.526 . S
C1267 H1251 0.959 . S
C1267 H1252 0.959 . S
C1267 H1253 0.961 . S
C1267 C1266 1.502 . S
C1268 H1254 0.960 . S
C1268 H1255 0.961 . S
C1268 H1256 0.959 . S
C1268 C1266 1.561 . S
C1269 C1266 1.526 . S
C1269 C1270 1.396 . S
C1269 C1274 1.390 . S
C1270 C1264 1.465 . S
C1270 C1269 1.396 . S
C1270 C1271 1.399 . S
C1271 H1257 0.929 . S
C1271 C1270 1.399 . S
C1271 C1272 1.385 . S
C1272 H1258 0.931 . S
C1272 C1271 1.385 . S
C1272 C1273 1.389 . S
C1273 C1272 1.389 . S
C1273 C1274 1.387 . S
C1274 H1259 0.930 . S
C1274 C1269 1.390 . S
C1274 C1273 1.387 . S
H1275 C1287 0.930 . S
H1276 C1289 0.930 . S
H1277 C1290 0.930 . S
H1278 C1294 0.959 . S
H1279 C1294 0.959 . S
H1280 C1294 0.961 . S
H1281 C1295 0.960 . S
H1282 C1295 0.961 . S
H1283 C1295 0.959 . S
H1284 C1298 0.929 . S
H1285 C1299 0.931 . S
H1286 C1301 0.930 . S
C1287 H1275 0.930 . S
C1287 C1288 1.399 . S
C1287 C1292 1.399 . S
C1288 C1287 1.399 . S
C1288 C1289 1.376 . S
C1289 H1276 0.930 . S
C1289 C1288 1.376 . S
C1289 C1290 1.388 . S
C1290 H1277 0.930 . S
C1290 C1289 1.388 . S
C1290 C1291 1.390 . S
C1291 C1290 1.390 . S
C1291 C1292 1.394 . S
C1291 C1297 1.465 . S
C1292 C1287 1.399 . S
C1292 C1291 1.394 . S
C1292 C1293 1.516 . S
C1293 C1292 1.516 . S
C1293 C1294 1.502 . S
C1293 C1295 1.561 . S
C1293 C1296 1.526 . S
C1294 H1278 0.959 . S
C1294 H1279 0.959 . S
C1294 H1280 0.961 . S
C1294 C1293 1.502 . S
C1295 H1281 0.960 . S
C1295 H1282 0.961 . S
C1295 H1283 0.959 . S
C1295 C1293 1.561 . S
C1296 C1293 1.526 . S
C1296 C1297 1.396 . S
C1296 C1301 1.390 . S
C1297 C1291 1.465 . S
C1297 C1296 1.396 . S
C1297 C1298 1.399 . S
C1298 H1284 0.929 . S
C1298 C1297 1.399 . S
C1298 C1299 1.385 . S
C1299 H1285 0.931 . S
C1299 C1298 1.385 . S
C1299 C1300 1.389 . S
C1300 C1299 1.389 . S
C1300 C1301 1.387 . S
C1301 H1286 0.930 . S
C1301 C1296 1.390 . S
C1301 C1300 1.387 . S
H1302 C1314 0.930 . S
H1303 C1316 0.930 . S
H1304 C1317 0.930 . S
H1305 C1321 0.959 . S
H1306 C1321 0.959 . S
H1307 C1321 0.961 . S
H1308 C1322 0.960 . S
H1309 C1322 0.961 . S
H1310 C1322 0.959 . S
H1311 C1325 0.929 . S
H1312 C1326 0.931 1_554 S
H1313 C1328 0.930 . S
C1314 H1302 0.930 . S
C1314 C1315 1.399 . S
C1314 C1319 1.399 . S
C1315 C1314 1.399 . S
C1315 C1316 1.376 . S
C1316 H1303 0.930 . S
C1316 C1315 1.376 . S
C1316 C1317 1.388 . S
C1317 H1304 0.930 . S
C1317 C1316 1.388 . S
C1317 C1318 1.390 . S
C1318 C1317 1.390 . S
C1318 C1319 1.394 . S
C1318 C1324 1.465 . S
C1319 C1314 1.399 . S
C1319 C1318 1.394 . S
C1319 C1320 1.516 . S
C1320 C1319 1.516 . S
C1320 C1321 1.502 . S
C1320 C1322 1.561 . S
C1320 C1323 1.526 . S
C1321 H1305 0.959 . S
C1321 H1306 0.959 . S
C1321 H1307 0.961 . S
C1321 C1320 1.502 . S
C1322 H1308 0.960 . S
C1322 H1309 0.961 . S
C1322 H1310 0.959 . S
C1322 C1320 1.561 . S
C1323 C1320 1.526 . S
C1323 C1324 1.396 . S
C1323 C1328 1.390 . S
C1324 C1318 1.465 . S
C1324 C1323 1.396 . S
C1324 C1325 1.399 . S
C1325 H1311 0.929 . S
C1325 C1324 1.399 . S
C1325 C1326 1.385 . S
C1326 H1312 0.931 1_556 S
C1326 C1325 1.385 . S
C1326 C1327 1.389 . S
C1327 C1326 1.389 . S
C1327 C1328 1.387 . S
C1328 H1313 0.930 . S
C1328 C1323 1.390 . S
C1328 C1327 1.387 . S
H1329 C1341 0.930 . S
H1330 C1343 0.930 . S
H1331 C1344 0.930 . S
H1332 C1348 0.959 . S
H1333 C1348 0.959 . S
H1334 C1348 0.961 . S
H1335 C1349 0.960 . S
H1336 C1349 0.961 . S
H1337 C1349 0.959 . S
H1338 C1352 0.929 . S
H1339 C1353 0.931 1_556 S
H1340 C1355 0.930 . S
C1341 H1329 0.930 . S
C1341 C1342 1.399 . S
C1341 C1346 1.399 . S
C1342 C1341 1.399 . S
C1342 C1343 1.376 . S
C1343 H1330 0.930 . S
C1343 C1342 1.376 . S
C1343 C1344 1.388 . S
C1344 H1331 0.930 . S
C1344 C1343 1.388 . S
C1344 C1345 1.390 . S
C1345 C1344 1.390 . S
C1345 C1346 1.394 . S
C1345 C1351 1.465 . S
C1346 C1341 1.399 . S
C1346 C1345 1.394 . S
C1346 C1347 1.516 . S
C1347 C1346 1.516 . S
C1347 C1348 1.502 . S
C1347 C1349 1.561 . S
C1347 C1350 1.526 . S
C1348 H1332 0.959 . S
C1348 H1333 0.959 . S
C1348 H1334 0.961 . S
C1348 C1347 1.502 . S
C1349 H1335 0.960 . S
C1349 H1336 0.961 . S
C1349 H1337 0.959 . S
C1349 C1347 1.561 . S
C1350 C1347 1.526 . S
C1350 C1351 1.396 . S
C1350 C1355 1.390 . S
C1351 C1345 1.465 . S
C1351 C1350 1.396 . S
C1351 C1352 1.399 . S
C1352 H1338 0.929 . S
C1352 C1351 1.399 . S
C1352 C1353 1.385 . S
C1353 H1339 0.931 1_554 S
C1353 C1352 1.385 . S
C1353 C1354 1.389 . S
C1354 C1353 1.389 . S
C1354 C1355 1.387 . S
C1355 H1340 0.930 . S
C1355 C1350 1.390 . S
C1355 C1354 1.387 . S
C397 N13 1.189 . S
C409 N274 1.237 . S
C424 N50 1.234 . S
C436 N306 1.203 . S
C451 N82 1.206 . S
C463 N333 1.203 . S
C478 N370 1.198 . S
C490 N114 1.236 . S
C505 N146 1.234 . S
C517 N210 1.203 . S
C532 N237 1.223 . S
C544 N173 1.191 . S
C559 C326 2.277 . S
C571 C6 2.289 . S
C586 C354 2.297 . S
C598 C34 2.312 . S
C613 C66 2.286 . S
C625 C194 2.277 . S
C640 C230 2.276 . S
C652 C98 2.279 . S
C667 C258 2.298 . S
C679 C130 2.283 . S
C694 C166 2.313 . S
C706 C290 2.300 . S
C721 C253 1.819 . S
C733 C29 1.856 . S
C748 C260 1.877 . S
C760 C36 1.861 . S
C775 C292 1.857 . S
C787 C68 1.820 . S
C802 C100 1.880 . S
C814 C349 1.847 . S
C829 C132 1.832 . S
C841 C356 1.876 . S
C856 C189 1.830 . S
C868 C196 1.828 . S
C883 N18 2.232 . S
C895 N109 2.208 . S
C910 N45 2.248 . S
C922 N141 2.272 . S
C937 N77 2.256 . S
C949 N178 2.269 . S
C964 N301 2.256 . S
C976 N205 2.270 . S
C991 N242 2.242 . S
C1003 N338 2.271 . S
C1018 N365 2.248 . S
C1030 N269 2.272 . S
C1045 C228 1.554 . S
C1057 C4 1.511 . S
C1072 C285 1.554 . S
C1084 C61 1.510 . S
C1099 C93 1.557 . S
C1111 C317 1.521 . S
C1126 C324 1.513 . S
C1138 C125 1.555 . S
C1153 C381 1.554 . S
C1165 C157 1.510 . S
C1180 C164 1.475 . S
C1192 C221 1.514 . S
C1207 C2 1.766 . S
C1219 C322 1.797 . S
C1234 C38 1.795 . S
C1246 C358 1.773 . S
C1261 C70 1.732 . S
C1273 C198 1.773 . S
C1288 C102 1.760 . S
C1300 C226 1.797 . S
C1315 C134 1.794 . S
C1327 C262 1.749 . S
C1342 C294 1.785 . S
C1354 C162 1.739 . S
