# Generated by pormake.
# Topology ukk, (4)-cn, num edge types: 1
# Building blocks:
#     Node 0, Type 0, BuildingBlock: GALJAG_clean_sbu_0, # of connection points: 4
#     Node 1, Type 0, BuildingBlock: GALJAG_clean_sbu_0, # of connection points: 4
#     Node 2, Type 0, BuildingBlock: GALJAG_clean_sbu_0, # of connection points: 4
#     Node 3, Type 0, BuildingBlock: GALJAG_clean_sbu_0, # of connection points: 4
#     Node 4, Type 0, BuildingBlock: GALJAG_clean_sbu_0, # of connection points: 4
#     Node 5, Type 0, BuildingBlock: GALJAG_clean_sbu_0, # of connection points: 4
#     Node 6, Type 0, BuildingBlock: GALJAG_clean_sbu_0, # of connection points: 4
#     Node 7, Type 0, BuildingBlock: GALJAG_clean_sbu_0, # of connection points: 4
#     Node 8, Type 0, BuildingBlock: GALJAG_clean_sbu_0, # of connection points: 4
#     Node 9, Type 0, BuildingBlock: GALJAG_clean_sbu_0, # of connection points: 4
#     Node 10, Type 0, BuildingBlock: GALJAG_clean_sbu_0, # of connection points: 4
#     Node 11, Type 0, BuildingBlock: GALJAG_clean_sbu_0, # of connection points: 4
#     Node 12, Type 0, BuildingBlock: GALJAG_clean_sbu_0, # of connection points: 4
#     Node 13, Type 0, BuildingBlock: GALJAG_clean_sbu_0, # of connection points: 4
#     Node 14, Type 0, BuildingBlock: GALJAG_clean_sbu_0, # of connection points: 4
#     Node 15, Type 0, BuildingBlock: GALJAG_clean_sbu_0, # of connection points: 4
#     Edge 16, Type (0, 0), BuildingBlock: KIFKEQ_clean_linker_1, # of connection points: 2
#     Edge 17, Type (0, 0), BuildingBlock: KIFKEQ_clean_linker_1, # of connection points: 2
#     Edge 18, Type (0, 0), BuildingBlock: KIFKEQ_clean_linker_1, # of connection points: 2
#     Edge 19, Type (0, 0), BuildingBlock: KIFKEQ_clean_linker_1, # of connection points: 2
#     Edge 20, Type (0, 0), BuildingBlock: KIFKEQ_clean_linker_1, # of connection points: 2
#     Edge 21, Type (0, 0), BuildingBlock: KIFKEQ_clean_linker_1, # of connection points: 2
#     Edge 22, Type (0, 0), BuildingBlock: KIFKEQ_clean_linker_1, # of connection points: 2
#     Edge 23, Type (0, 0), BuildingBlock: KIFKEQ_clean_linker_1, # of connection points: 2
#     Edge 24, Type (0, 0), BuildingBlock: KIFKEQ_clean_linker_1, # of connection points: 2
#     Edge 25, Type (0, 0), BuildingBlock: KIFKEQ_clean_linker_1, # of connection points: 2
#     Edge 26, Type (0, 0), BuildingBlock: KIFKEQ_clean_linker_1, # of connection points: 2
#     Edge 27, Type (0, 0), BuildingBlock: KIFKEQ_clean_linker_1, # of connection points: 2
#     Edge 28, Type (0, 0), BuildingBlock: KIFKEQ_clean_linker_1, # of connection points: 2
#     Edge 29, Type (0, 0), BuildingBlock: KIFKEQ_clean_linker_1, # of connection points: 2
#     Edge 30, Type (0, 0), BuildingBlock: KIFKEQ_clean_linker_1, # of connection points: 2
#     Edge 31, Type (0, 0), BuildingBlock: KIFKEQ_clean_linker_1, # of connection points: 2
#     Edge 32, Type (0, 0), BuildingBlock: KIFKEQ_clean_linker_1, # of connection points: 2
#     Edge 33, Type (0, 0), BuildingBlock: KIFKEQ_clean_linker_1, # of connection points: 2
#     Edge 34, Type (0, 0), BuildingBlock: KIFKEQ_clean_linker_1, # of connection points: 2
#     Edge 35, Type (0, 0), BuildingBlock: KIFKEQ_clean_linker_1, # of connection points: 2
#     Edge 36, Type (0, 0), BuildingBlock: KIFKEQ_clean_linker_1, # of connection points: 2
#     Edge 37, Type (0, 0), BuildingBlock: KIFKEQ_clean_linker_1, # of connection points: 2
#     Edge 38, Type (0, 0), BuildingBlock: KIFKEQ_clean_linker_1, # of connection points: 2
#     Edge 39, Type (0, 0), BuildingBlock: KIFKEQ_clean_linker_1, # of connection points: 2
#     Edge 40, Type (0, 0), BuildingBlock: KIFKEQ_clean_linker_1, # of connection points: 2
#     Edge 41, Type (0, 0), BuildingBlock: KIFKEQ_clean_linker_1, # of connection points: 2
#     Edge 42, Type (0, 0), BuildingBlock: KIFKEQ_clean_linker_1, # of connection points: 2
#     Edge 43, Type (0, 0), BuildingBlock: KIFKEQ_clean_linker_1, # of connection points: 2
#     Edge 44, Type (0, 0), BuildingBlock: KIFKEQ_clean_linker_1, # of connection points: 2
#     Edge 45, Type (0, 0), BuildingBlock: KIFKEQ_clean_linker_1, # of connection points: 2
#     Edge 46, Type (0, 0), BuildingBlock: KIFKEQ_clean_linker_1, # of connection points: 2
#     Edge 47, Type (0, 0), BuildingBlock: KIFKEQ_clean_linker_1, # of connection points: 2
# Relax obj value: 0.105
# Max RMSD: 0.246
# Mean RMSD: 0.246
data_MOF--net-ukk--node1-GALJAG_clean_sbu_0--edge1-KIFKEQ_clean_linker_1
_symmetry_space_group_name_H-M    P1
_symmetry_Int_Tables_number       1
_symmetry_cell_setting            triclinic
loop_
_symmetry_equiv_pos_as_xyz
'x, y, z'
_cell_length_a     54.420921
_cell_length_b     54.365243
_cell_length_c     18.80488
_cell_angle_alpha  89.967004
_cell_angle_beta   90.024937
_cell_angle_gamma 89.992033
loop_
_atom_site_label
_atom_site_type_symbol
_atom_site_fract_x
_atom_site_fract_y
_atom_site_fract_z
_atom_type_partial_charge
In0 In 0.36122 0.11126 0.10893 0.0
O1 O 0.3456 0.09868 0.00155 0.0
O2 O 0.32304 0.09576 0.09367 0.0
C3 C 0.4091 0.12104 0.08921 0.0
C4 C 0.34604 0.15822 0.11273 0.0
C5 C 0.36721 0.07577 0.2072 0.0
O6 O 0.39771 0.106 0.04956 0.0
O7 O 0.39627 0.13095 0.13719 0.0
O8 O 0.35376 0.09435 0.21904 0.0
O9 O 0.37724 0.07532 0.14676 0.0
C10 C 0.32487 0.093 0.02732 0.0
O11 O 0.34691 0.14514 0.16856 0.0
O12 O 0.35234 0.14735 0.05631 0.0
In13 In 0.11353 0.65153 0.84612 0.0
O14 O 0.10223 0.66481 0.95621 0.0
O15 O 0.10355 0.69091 0.87116 0.0
C16 C 0.12649 0.60402 0.85852 0.0
C17 C 0.15952 0.66809 0.83073 0.0
C18 C 0.07185 0.64791 0.76976 0.0
O19 O 0.1148 0.61497 0.9074 0.0
O20 O 0.13113 0.61692 0.80441 0.0
O21 O 0.09087 0.65797 0.74383 0.0
O22 O 0.07439 0.63971 0.83205 0.0
C23 C 0.09958 0.68696 0.93642 0.0
O24 O 0.14562 0.66487 0.77727 0.0
O25 O 0.14993 0.66339 0.89033 0.0
In26 In 0.64059 0.88786 0.12658 0.0
O27 O 0.65526 0.85398 0.1857 0.0
O28 O 0.65014 0.85207 0.07331 0.0
C29 C 0.63399 0.92323 0.22484 0.0
C30 C 0.67635 0.90716 0.04491 0.0
C31 C 0.59296 0.87731 0.10515 0.0
O32 O 0.64799 0.90504 0.23645 0.0
O33 O 0.62369 0.92331 0.16477 0.0
O34 O 0.60441 0.89221 0.06526 0.0
O35 O 0.6056 0.86791 0.1545 0.0
C36 C 0.65645 0.84109 0.12959 0.0
O37 O 0.65546 0.90169 0.01984 0.0
O38 O 0.67871 0.90354 0.11079 0.0
In39 In 0.89178 0.35128 0.8675 0.0
O40 O 0.85805 0.33544 0.81084 0.0
O41 O 0.85366 0.35297 0.91198 0.0
C42 C 0.93379 0.34663 0.79503 0.0
C43 C 0.90119 0.3157 0.96193 0.0
C44 C 0.8882 0.40023 0.85294 0.0
O45 O 0.91321 0.34314 0.76487 0.0
O46 O 0.93283 0.35208 0.86027 0.0
O47 O 0.89245 0.39063 0.91333 0.0
O48 O 0.886 0.38515 0.8023 0.0
C49 C 0.8436 0.34195 0.86047 0.0
O50 O 0.90308 0.3383 0.97846 0.0
O51 O 0.8947 0.31149 0.89846 0.0
In52 In 0.36287 0.38926 0.11224 0.0
O53 O 0.34741 0.35494 0.05779 0.0
O54 O 0.35688 0.35307 0.16795 0.0
C55 C 0.36646 0.42477 0.01283 0.0
C56 C 0.32761 0.40689 0.19878 0.0
C57 C 0.41108 0.37966 0.12443 0.0
O58 O 0.3534 0.40581 0.0027 0.0
O59 O 0.37718 0.42561 0.07219 0.0
O60 O 0.40014 0.39377 0.16777 0.0
O61 O 0.39767 0.37056 0.07636 0.0
C62 C 0.34873 0.342 0.11383 0.0
O63 O 0.34977 0.40513 0.21885 0.0
O64 O 0.32373 0.4005 0.13532 0.0
In65 In 0.38811 0.63992 0.8502 0.0
O66 O 0.35326 0.65306 0.90619 0.0
O67 O 0.35368 0.65171 0.79262 0.0
C68 C 0.42227 0.6343 0.95265 0.0
C69 C 0.40788 0.67602 0.7707 0.0
C70 C 0.3775 0.59218 0.82889 0.0
O71 O 0.40388 0.64824 0.96136 0.0
O72 O 0.42319 0.62361 0.89327 0.0
O73 O 0.39297 0.60341 0.79035 0.0
O74 O 0.36736 0.60516 0.87611 0.0
C75 C 0.34172 0.65654 0.84844 0.0
O76 O 0.40483 0.65451 0.74628 0.0
O77 O 0.4018 0.67872 0.83493 0.0
In78 In 0.63702 0.61082 0.12914 0.0
O79 O 0.65339 0.64469 0.07388 0.0
O80 O 0.64464 0.64676 0.18433 0.0
C81 C 0.63297 0.57611 0.0278 0.0
C82 C 0.67141 0.59184 0.2165 0.0
C83 C 0.58878 0.62046 0.14179 0.0
O84 O 0.64643 0.59488 0.01912 0.0
O85 O 0.62196 0.57508 0.08673 0.0
O86 O 0.59952 0.6053 0.18256 0.0
O87 O 0.60242 0.63062 0.09611 0.0
C88 C 0.65282 0.65763 0.12995 0.0
O89 O 0.65022 0.59764 0.23864 0.0
O90 O 0.67467 0.59483 0.15071 0.0
In91 In 0.61355 0.36205 0.84213 0.0
O92 O 0.64674 0.34632 0.90165 0.0
O93 O 0.64963 0.35255 0.78994 0.0
C94 C 0.57873 0.36694 0.94265 0.0
C95 C 0.594 0.32765 0.75569 0.0
C96 C 0.62341 0.41029 0.82783 0.0
O97 O 0.59689 0.35266 0.95125 0.0
O98 O 0.57836 0.37834 0.88423 0.0
O99 O 0.60807 0.39951 0.78779 0.0
O100 O 0.63381 0.39664 0.87305 0.0
C101 C 0.66002 0.34544 0.84635 0.0
O102 O 0.60116 0.34828 0.73231 0.0
O103 O 0.59606 0.32495 0.82199 0.0
In104 In 0.8531 0.61417 0.617 0.0
O105 O 0.83957 0.60367 0.50606 0.0
O106 O 0.81647 0.59616 0.59533 0.0
C107 C 0.89933 0.63123 0.60802 0.0
C108 C 0.83188 0.65829 0.63403 0.0
C109 C 0.86345 0.57412 0.69538 0.0
O110 O 0.89001 0.61851 0.55831 0.0
O111 O 0.88523 0.63532 0.65994 0.0
O112 O 0.84863 0.59038 0.71782 0.0
O113 O 0.8724 0.57824 0.63464 0.0
C114 C 0.81917 0.5955 0.52862 0.0
O115 O 0.83639 0.64443 0.68682 0.0
O116 O 0.83762 0.64954 0.57414 0.0
In117 In 0.60942 0.14041 0.37621 0.0
O118 O 0.64488 0.14909 0.43224 0.0
O119 O 0.64379 0.15515 0.32011 0.0
C120 C 0.57531 0.13488 0.27397 0.0
C121 C 0.5903 0.17628 0.45821 0.0
C122 C 0.61885 0.09231 0.39526 0.0
O123 O 0.59392 0.14849 0.26473 0.0
O124 O 0.57409 0.12455 0.33393 0.0
O125 O 0.60342 0.10362 0.43373 0.0
O126 O 0.62939 0.10534 0.3488 0.0
C127 C 0.65626 0.1558 0.37708 0.0
O128 O 0.59573 0.15534 0.48321 0.0
O129 O 0.59366 0.17855 0.3922 0.0
In130 In 0.15388 0.3922 0.63578 0.0
O131 O 0.16861 0.35871 0.69582 0.0
O132 O 0.16023 0.35535 0.58502 0.0
C133 C 0.15165 0.43236 0.71739 0.0
C134 C 0.18837 0.40773 0.54475 0.0
C135 C 0.10597 0.38178 0.64641 0.0
O136 O 0.16511 0.41422 0.73448 0.0
O137 O 0.14014 0.43022 0.65935 0.0
O138 O 0.11516 0.3884 0.58724 0.0
O139 O 0.12099 0.38037 0.6975 0.0
C140 C 0.1677 0.34502 0.6412 0.0
O141 O 0.16592 0.40647 0.52648 0.0
O142 O 0.19282 0.40178 0.60843 0.0
In143 In 0.38992 0.85957 0.37292 0.0
O144 O 0.35485 0.84611 0.31868 0.0
O145 O 0.35447 0.8523 0.43094 0.0
C146 C 0.42471 0.86399 0.27224 0.0
C147 C 0.40796 0.8228 0.45336 0.0
C148 C 0.3808 0.90778 0.38906 0.0
O149 O 0.40584 0.85081 0.26228 0.0
O150 O 0.42581 0.87442 0.33199 0.0
O151 O 0.39534 0.89643 0.43044 0.0
O152 O 0.37101 0.89474 0.34128 0.0
C153 C 0.34263 0.84594 0.37614 0.0
O154 O 0.40633 0.84458 0.47693 0.0
O155 O 0.40121 0.82011 0.38968 0.0
In156 In 0.85558 0.88425 0.64588 0.0
O157 O 0.84456 0.89642 0.75809 0.0
O158 O 0.82053 0.90456 0.67163 0.0
C159 C 0.90204 0.86779 0.65619 0.0
C160 C 0.83376 0.83998 0.63739 0.0
C161 C 0.86244 0.92082 0.55128 0.0
O162 O 0.89369 0.88365 0.69928 0.0
O163 O 0.88697 0.86048 0.60985 0.0
O164 O 0.84631 0.90435 0.54169 0.0
O165 O 0.87489 0.91854 0.60748 0.0
C166 C 0.82431 0.90554 0.73775 0.0
O167 O 0.83846 0.85263 0.58238 0.0
O168 O 0.83952 0.85001 0.69555 0.0
In169 In 0.88695 0.14075 0.39813 0.0
O170 O 0.90238 0.15362 0.29067 0.0
O171 O 0.89792 0.17989 0.37361 0.0
C172 C 0.87843 0.09218 0.38855 0.0
C173 C 0.83959 0.15421 0.39298 0.0
C174 C 0.92172 0.13892 0.49986 0.0
O175 O 0.89276 0.10308 0.34571 0.0
O176 O 0.86862 0.10581 0.43493 0.0
O177 O 0.90234 0.15149 0.50792 0.0
O178 O 0.92337 0.12778 0.44129 0.0
C179 C 0.90396 0.17589 0.30994 0.0
O180 O 0.85205 0.15597 0.4498 0.0
O181 O 0.85116 0.14585 0.34005 0.0
In182 In 0.13425 0.11777 0.66363 0.0
O183 O 0.1505 0.10679 0.77133 0.0
O184 O 0.17125 0.09942 0.67757 0.0
C185 C 0.08748 0.13123 0.6893 0.0
C186 C 0.15389 0.16259 0.64605 0.0
C187 C 0.12441 0.07995 0.57599 0.0
O188 O 0.09875 0.11634 0.72961 0.0
O189 O 0.10005 0.13961 0.63841 0.0
O190 O 0.13855 0.09727 0.55692 0.0
O191 O 0.11572 0.08203 0.63783 0.0
C192 C 0.17022 0.09856 0.74458 0.0
O193 O 0.14755 0.14949 0.59335 0.0
O194 O 0.15052 0.15288 0.70623 0.0
In195 In 0.11038 0.85817 0.3909 0.0
O196 O 0.14509 0.84261 0.44313 0.0
O197 O 0.14799 0.86114 0.34308 0.0
C198 C 0.06996 0.85106 0.46934 0.0
C199 C 0.10073 0.82371 0.29355 0.0
C200 C 0.1121 0.90711 0.40701 0.0
O201 O 0.0912 0.84735 0.49511 0.0
O202 O 0.06952 0.85802 0.40525 0.0
O203 O 0.1071 0.89758 0.3471 0.0
O204 O 0.11615 0.89195 0.45654 0.0
C205 C 0.15882 0.84975 0.39257 0.0
O206 O 0.09829 0.84644 0.27947 0.0
O207 O 0.10774 0.81884 0.35611 0.0
H208 H 0.34072 0.93279 0.34379 0.0
H209 H 0.41284 0.94321 0.43447 0.0
H210 H 0.33749 0.97688 0.32175 0.0
H211 H 0.40979 0.98754 0.41111 0.0
H212 H 0.33488 0.05958 0.30856 0.0
H213 H 0.3375 0.02089 0.37585 0.0
H214 H 0.40905 0.00703 0.28523 0.0
H215 H 0.40621 0.04514 0.21742 0.0
C216 C 0.35562 0.94466 0.36066 0.0
C217 C 0.37709 0.93465 0.39037 0.0
C218 C 0.35371 0.96991 0.34845 0.0
C219 C 0.37343 0.9856 0.36448 0.0
C220 C 0.39434 0.9758 0.39823 0.0
C221 C 0.39605 0.95051 0.41182 0.0
C222 C 0.35137 0.0485 0.30455 0.0
C223 C 0.37025 0.05515 0.25748 0.0
C224 C 0.35285 0.02641 0.34281 0.0
C225 C 0.37349 0.01101 0.33577 0.0
C226 C 0.39306 0.01864 0.2924 0.0
C227 C 0.39135 0.04036 0.25317 0.0
H228 H 0.06044 0.65903 0.62995 0.0
H229 H 0.02872 0.63402 0.82792 0.0
H230 H 0.01926 0.65797 0.57467 0.0
H231 H 0.98833 0.6334 0.77357 0.0
H232 H 0.91914 0.66597 0.6932 0.0
H233 H 0.96247 0.67227 0.71948 0.0
H234 H 0.98219 0.61968 0.55763 0.0
H235 H 0.93838 0.61319 0.53084 0.0
C236 C 0.04479 0.65329 0.66142 0.0
C237 C 0.04779 0.6467 0.73331 0.0
C238 C 0.02137 0.65263 0.62983 0.0
C239 C 0.00075 0.64584 0.67029 0.0
C240 C 0.00393 0.63895 0.74153 0.0
C241 C 0.02712 0.63925 0.77251 0.0
C242 C 0.93267 0.65616 0.66185 0.0
C243 C 0.9254 0.63878 0.61077 0.0
C244 C 0.95745 0.65984 0.67683 0.0
C245 C 0.97553 0.64627 0.64103 0.0
C246 C 0.96851 0.63042 0.58562 0.0
C247 C 0.94351 0.6267 0.57047 0.0
H248 H 0.66653 0.9406 0.32405 0.0
H249 H 0.59434 0.95294 0.23584 0.0
H250 H 0.66357 0.9797 0.38894 0.0
H251 H 0.5912 0.99151 0.30109 0.0
H252 H 0.65914 0.06725 0.35153 0.0
H253 H 0.6628 0.02302 0.33301 0.0
H254 H 0.59068 0.01244 0.42353 0.0
H255 H 0.58715 0.05693 0.44306 0.0
C256 C 0.64979 0.9513 0.32026 0.0
C257 C 0.63075 0.94394 0.27459 0.0
C258 C 0.64812 0.97365 0.35712 0.0
C259 C 0.62716 0.98863 0.34999 0.0
C260 C 0.60745 0.98026 0.30831 0.0
C261 C 0.60933 0.95827 0.27052 0.0
C262 C 0.64435 0.05541 0.36929 0.0
C263 C 0.62278 0.06547 0.39813 0.0
C264 C 0.64652 0.03007 0.35915 0.0
C265 C 0.62698 0.01432 0.37655 0.0
C266 C 0.60599 0.02422 0.40953 0.0
C267 C 0.604 0.04961 0.4209 0.0
H268 H 0.08227 0.38207 0.77176 0.0
H269 H 0.07033 0.36945 0.5477 0.0
H270 H 0.04022 0.37083 0.79667 0.0
H271 H 0.02762 0.35722 0.5732 0.0
H272 H 0.94535 0.36499 0.66338 0.0
H273 H 0.98705 0.37241 0.61783 0.0
H274 H 0.01706 0.33356 0.7987 0.0
H275 H 0.97584 0.3274 0.84512 0.0
C276 C 0.07062 0.3767 0.72768 0.0
C277 C 0.07968 0.37633 0.65787 0.0
C278 C 0.04648 0.37004 0.74205 0.0
C279 C 0.03069 0.36241 0.68721 0.0
C280 C 0.03939 0.36285 0.61666 0.0
C281 C 0.06377 0.36983 0.60205 0.0
C282 C 0.96095 0.35757 0.69208 0.0
C283 C 0.95758 0.34588 0.75799 0.0
C284 C 0.98478 0.36182 0.66616 0.0
C285 C 0.0054 0.35416 0.70565 0.0
C286 C 0.00164 0.34042 0.76811 0.0
C287 C 0.97804 0.33666 0.79446 0.0
H288 H 0.40503 0.45555 0.99734 0.0
H289 H 0.33261 0.44039 0.9146 0.0
H290 H 0.40675 0.49337 0.9281 0.0
H291 H 0.33413 0.47881 0.84569 0.0
H292 H 0.40899 0.55679 0.78027 0.0
H293 H 0.40608 0.51247 0.80315 0.0
H294 H 0.33439 0.523 0.89649 0.0
H295 H 0.33743 0.5671 0.87458 0.0
C296 C 0.38966 0.46012 0.96312 0.0
C297 C 0.36861 0.44521 0.96162 0.0
C298 C 0.39073 0.48168 0.923 0.0
C299 C 0.37058 0.48904 0.88149 0.0
C300 C 0.34993 0.47352 0.87725 0.0
C301 C 0.34907 0.45157 0.91643 0.0
C302 C 0.39232 0.54948 0.80359 0.0
C303 C 0.37354 0.56533 0.82635 0.0
C304 C 0.39069 0.52418 0.81691 0.0
C305 C 0.37007 0.51434 0.85195 0.0
C306 C 0.3504 0.53 0.86889 0.0
C307 C 0.35221 0.55527 0.85674 0.0
H308 H 0.4383 0.66774 0.05121 0.0
H309 H 0.45169 0.59471 0.97008 0.0
H310 H 0.4765 0.66535 0.12066 0.0
H311 H 0.48931 0.59213 0.03991 0.0
H312 H 0.56441 0.66038 0.09189 0.0
H313 H 0.52047 0.66397 0.06885 0.0
H314 H 0.50862 0.59281 0.16488 0.0
H315 H 0.5528 0.58935 0.18898 0.0
C316 C 0.44902 0.65095 0.04995 0.0
C317 C 0.44227 0.63149 0.00494 0.0
C318 C 0.47084 0.6496 0.08941 0.0
C319 C 0.48585 0.62856 0.08559 0.0
C320 C 0.47801 0.60846 0.04458 0.0
C321 C 0.45657 0.61001 0.00417 0.0
C322 C 0.55233 0.6458 0.10984 0.0
C323 C 0.56197 0.62448 0.14156 0.0
C324 C 0.52715 0.64794 0.09713 0.0
C325 C 0.51116 0.62862 0.11481 0.0
C326 C 0.52059 0.60794 0.15063 0.0
C327 C 0.5458 0.60599 0.16456 0.0
H328 H 0.66314 0.43519 0.87674 0.0
H329 H 0.59128 0.44596 0.78458 0.0
H330 H 0.66565 0.47898 0.90388 0.0
H331 H 0.59365 0.48994 0.81278 0.0
H332 H 0.66669 0.56153 0.92811 0.0
H333 H 0.66536 0.5237 0.85669 0.0
H334 H 0.59315 0.50766 0.93967 0.0
H335 H 0.59468 0.54492 0.01143 0.0
C336 C 0.64816 0.44708 0.86058 0.0
C337 C 0.62693 0.43721 0.8291 0.0
C338 C 0.64966 0.47218 0.87574 0.0
C339 C 0.62978 0.48782 0.86082 0.0
C340 C 0.6092 0.47823 0.82501 0.0
C341 C 0.60788 0.45313 0.80863 0.0
C342 C 0.65036 0.55015 0.92963 0.0
C343 C 0.63088 0.55595 0.97562 0.0
C344 C 0.64961 0.52854 0.88901 0.0
C345 C 0.62914 0.51278 0.89261 0.0
C346 C 0.60904 0.51956 0.9351 0.0
C347 C 0.61 0.54079 0.97662 0.0
H348 H 0.43548 0.34042 0.07075 0.0
H349 H 0.44698 0.40992 0.17653 0.0
H350 H 0.47952 0.33685 0.04944 0.0
H351 H 0.49128 0.40653 0.15404 0.0
H352 H 0.5618 0.33258 0.03719 0.0
H353 H 0.52316 0.33447 0.10454 0.0
H354 H 0.51133 0.40861 0.0295 0.0
H355 H 0.54941 0.40654 0.96165 0.0
C356 C 0.44755 0.35465 0.09091 0.0
C357 C 0.43787 0.37554 0.12469 0.0
C358 C 0.47277 0.35252 0.07918 0.0
C359 C 0.48878 0.37145 0.09987 0.0
C360 C 0.47928 0.39169 0.13751 0.0
C361 C 0.45401 0.3936 0.15051 0.0
C362 C 0.55119 0.34944 0.03675 0.0
C363 C 0.55837 0.36933 0.99386 0.0
C364 C 0.52912 0.35051 0.07502 0.0
C365 C 0.51428 0.37169 0.07216 0.0
C366 C 0.5225 0.39216 0.03337 0.0
C367 C 0.5442 0.39091 0.9941 0.0
H368 H 0.88743 0.42287 0.72535 0.0
H369 H 0.88344 0.43799 0.95062 0.0
H370 H 0.88285 0.46625 0.69961 0.0
H371 H 0.87876 0.48221 0.92416 0.0
H372 H 0.83887 0.5525 0.80754 0.0
H373 H 0.84646 0.51121 0.85688 0.0
H374 H 0.90961 0.50352 0.71989 0.0
H375 H 0.90199 0.54409 0.67051 0.0
C376 C 0.88564 0.4355 0.76959 0.0
C377 C 0.88592 0.42699 0.84009 0.0
C378 C 0.88313 0.46043 0.75473 0.0
C379 C 0.8807 0.47763 0.80987 0.0
C380 C 0.88063 0.46927 0.88071 0.0
C381 C 0.88344 0.44408 0.89578 0.0
C382 C 0.8546 0.54209 0.78916 0.0
C383 C 0.86956 0.55127 0.73426 0.0
C384 C 0.85899 0.51857 0.81753 0.0
C385 C 0.8784 0.50407 0.79132 0.0
C386 C 0.89427 0.51411 0.74017 0.0
C387 C 0.88987 0.53736 0.71187 0.0
H388 H 0.55993 0.1678 0.17293 0.0
H389 H 0.54556 0.09549 0.25811 0.0
H390 H 0.52195 0.16531 0.10254 0.0
H391 H 0.50815 0.0928 0.18744 0.0
H392 H 0.44451 0.08946 0.04106 0.0
H393 H 0.48884 0.09279 0.0628 0.0
H394 H 0.47802 0.16489 0.15373 0.0
H395 H 0.43396 0.16142 0.13302 0.0
C396 C 0.54905 0.15113 0.1749 0.0
C397 C 0.55544 0.13194 0.22134 0.0
C398 C 0.52736 0.14972 0.13486 0.0
C399 C 0.51213 0.12886 0.13957 0.0
C400 C 0.51963 0.10897 0.18202 0.0
C401 C 0.54094 0.1106 0.22295 0.0
C402 C 0.45177 0.10629 0.0636 0.0
C403 C 0.43588 0.12507 0.08613 0.0
C404 C 0.47707 0.10817 0.07624 0.0
C405 C 0.48683 0.12905 0.11026 0.0
C406 C 0.47109 0.14869 0.12686 0.0
C407 C 0.44584 0.14662 0.11547 0.0
H408 H 0.10366 0.56677 0.93072 0.0
H409 H 0.16475 0.58237 0.79146 0.0
H410 H 0.11141 0.52249 0.91702 0.0
H411 H 0.17281 0.53842 0.7793 0.0
H412 H 0.18703 0.45621 0.79464 0.0
H413 H 0.18322 0.49703 0.85023 0.0
H414 H 0.10634 0.49888 0.79382 0.0
H415 H 0.11033 0.45878 0.73679 0.0
C416 C 0.11913 0.56074 0.89897 0.0
C417 C 0.13345 0.57785 0.86147 0.0
C418 C 0.12355 0.5355 0.89115 0.0
C419 C 0.14273 0.52714 0.84723 0.0
C420 C 0.1581 0.54438 0.81409 0.0
C421 C 0.15335 0.5695 0.82057 0.0
C422 C 0.16927 0.4652 0.79571 0.0
C423 C 0.14901 0.45462 0.76112 0.0
C424 C 0.16709 0.48845 0.82732 0.0
C425 C 0.14445 0.50096 0.82646 0.0
C426 C 0.1239 0.48951 0.79599 0.0
C427 C 0.12623 0.46669 0.76289 0.0
H428 H 0.45376 0.90362 0.2529 0.0
H429 H 0.44169 0.8296 0.17786 0.0
H430 H 0.49208 0.90566 0.18634 0.0
H431 H 0.48062 0.83143 0.11176 0.0
H432 H 0.56805 0.83756 0.15377 0.0
H433 H 0.52376 0.83369 0.16926 0.0
H434 H 0.51321 0.90353 0.06417 0.0
H435 H 0.55777 0.90725 0.04773 0.0
C436 C 0.45908 0.88799 0.22065 0.0
C437 C 0.44496 0.8664 0.22077 0.0
C438 C 0.48092 0.88922 0.1821 0.0
C439 C 0.48934 0.86869 0.14398 0.0
C440 C 0.47449 0.84751 0.14073 0.0
C441 C 0.45226 0.84649 0.17826 0.0
C442 C 0.55622 0.85175 0.13215 0.0
C443 C 0.56628 0.87283 0.1003 0.0
C444 C 0.53085 0.84944 0.1405 0.0
C445 C 0.51507 0.86837 0.11822 0.0
C446 C 0.52502 0.8887 0.08193 0.0
C447 C 0.55045 0.8908 0.07241 0.0
H448 H 0.90291 0.94951 0.53797 0.0
H449 H 0.82866 0.94117 0.46076 0.0
H450 H 0.9061 0.98906 0.47751 0.0
H451 H 0.83175 0.98115 0.40076 0.0
H452 H 0.83924 0.06771 0.44227 0.0
H453 H 0.83515 0.02354 0.46102 0.0
H454 H 0.90488 0.01171 0.35708 0.0
H455 H 0.90881 0.05618 0.33723 0.0
C456 C 0.88744 0.95594 0.50678 0.0
C457 C 0.86547 0.94241 0.50446 0.0
C458 C 0.88934 0.97851 0.47175 0.0
C459 C 0.86915 0.98821 0.43464 0.0
C460 C 0.84756 0.97409 0.42918 0.0
C461 C 0.84582 0.95122 0.46325 0.0
C462 C 0.85344 0.05564 0.42198 0.0
C463 C 0.87444 0.06533 0.38882 0.0
C464 C 0.85101 0.03033 0.43225 0.0
C465 C 0.86972 0.0142 0.41064 0.0
C466 C 0.89021 0.02377 0.37434 0.0
C467 C 0.89242 0.04915 0.36282 0.0
H468 H 0.95287 0.10101 0.52185 0.0
H469 H 0.93602 0.17432 0.59502 0.0
H470 H 0.99007 0.10077 0.5939 0.0
H471 H 0.97388 0.17433 0.66653 0.0
H472 H 0.06267 0.17089 0.63914 0.0
H473 H 0.0186 0.17364 0.61669 0.0
H474 H 0.00791 0.10374 0.72119 0.0
H475 H 0.05214 0.10117 0.74475 0.0
C476 C 0.95693 0.1169 0.55458 0.0
C477 C 0.94174 0.13775 0.55262 0.0
C478 C 0.97812 0.11668 0.5963 0.0
C479 C 0.98484 0.13752 0.63588 0.0
C480 C 0.96904 0.15801 0.6366 0.0
C481 C 0.94744 0.158 0.59591 0.0
C482 C 0.05079 0.15654 0.65954 0.0
C483 C 0.06078 0.13573 0.69311 0.0
C484 C 0.02554 0.15817 0.64701 0.0
C485 C 0.00989 0.13881 0.66672 0.0
C486 C 0.01963 0.11888 0.7053 0.0
C487 C 0.04488 0.11747 0.71904 0.0
H488 H 0.11393 0.92921 0.53523 0.0
H489 H 0.11201 0.9454 0.31025 0.0
H490 H 0.11488 0.97279 0.56185 0.0
H491 H 0.1132 0.98978 0.33767 0.0
H492 H 0.15022 0.06193 0.46122 0.0
H493 H 0.14549 0.0209 0.4075 0.0
H494 H 0.08247 0.00743 0.54112 0.0
H495 H 0.08715 0.04785 0.59456 0.0
C496 C 0.11373 0.9421 0.49129 0.0
C497 C 0.11277 0.93387 0.4206 0.0
C498 C 0.11418 0.9671 0.50666 0.0
C499 C 0.11387 0.98459 0.45183 0.0
C500 C 0.1134 0.97656 0.38079 0.0
C501 C 0.11262 0.95129 0.36523 0.0
C502 C 0.13502 0.05038 0.47759 0.0
C503 C 0.11933 0.05783 0.53293 0.0
C504 C 0.13229 0.02701 0.44679 0.0
C505 C 0.11383 0.01098 0.47107 0.0
C506 C 0.09704 0.01934 0.5222 0.0
C507 C 0.09977 0.04246 0.55283 0.0
H508 H 0.94264 0.89202 0.70728 0.0
H509 H 0.91991 0.82616 0.59724 0.0
H510 H 0.98552 0.88343 0.67529 0.0
H511 H 0.96247 0.8174 0.56663 0.0
H512 H 0.02492 0.8424 0.41559 0.0
H513 H 0.98589 0.8422 0.47775 0.0
H514 H 0.02339 0.85408 0.67728 0.0
H515 H 0.06306 0.85409 0.61409 0.0
C516 C 0.94691 0.8753 0.67848 0.0
C517 C 0.92799 0.85998 0.65354 0.0
C518 C 0.97142 0.87035 0.66032 0.0
C519 C 0.97722 0.84998 0.61736 0.0
C520 C 0.95847 0.83347 0.59866 0.0
C521 C 0.93411 0.83848 0.61626 0.0
C522 C 0.02494 0.84461 0.47286 0.0
C523 C 0.04697 0.84828 0.51005 0.0
C524 C 0.00257 0.84433 0.50861 0.0
C525 C 0.00159 0.84797 0.58249 0.0
C526 C 0.02367 0.8512 0.6203 0.0
C527 C 0.04628 0.85107 0.58434 0.0
H528 H 0.32701 0.31398 0.01027 0.0
H529 H 0.35745 0.31011 0.22209 0.0
H530 H 0.32052 0.26951 0.01165 0.0
H531 H 0.35209 0.26584 0.22251 0.0
H532 H 0.33074 0.18675 0.22461 0.0
H533 H 0.3258 0.23145 0.22588 0.0
H534 H 0.34519 0.23417 0.00298 0.0
H535 H 0.34897 0.18979 0.00128 0.0
C536 C 0.33222 0.30363 0.05715 0.0
C537 C 0.34289 0.31547 0.11579 0.0
C538 C 0.32863 0.27813 0.05792 0.0
C539 C 0.33594 0.26394 0.11702 0.0
C540 C 0.34585 0.27607 0.1765 0.0
C541 C 0.34914 0.30151 0.17602 0.0
C542 C 0.33351 0.19695 0.17577 0.0
C543 C 0.34041 0.18481 0.11306 0.0
C544 C 0.33086 0.22257 0.17648 0.0
C545 C 0.33531 0.23655 0.11465 0.0
C546 C 0.34124 0.22414 0.05139 0.0
C547 C 0.34362 0.1986 0.05055 0.0
H548 H 0.19059 0.65875 0.72006 0.0
H549 H 0.18781 0.69003 0.93073 0.0
H550 H 0.23537 0.6603 0.72314 0.0
H551 H 0.23245 0.69279 0.93291 0.0
H552 H 0.30826 0.65642 0.9564 0.0
H553 H 0.26432 0.66418 0.94775 0.0
H554 H 0.27268 0.68232 0.72506 0.0
H555 H 0.31648 0.67343 0.73341 0.0
C556 C 0.19958 0.66672 0.766 0.0
C557 C 0.18585 0.67404 0.82539 0.0
C558 C 0.22527 0.66766 0.76791 0.0
C559 C 0.23764 0.67629 0.82891 0.0
C560 C 0.22364 0.68538 0.88594 0.0
C561 C 0.19805 0.68404 0.88445 0.0
C562 C 0.30072 0.66235 0.9059 0.0
C563 C 0.31571 0.66412 0.84552 0.0
C564 C 0.27552 0.66698 0.90087 0.0
C565 C 0.26481 0.67382 0.83549 0.0
C566 C 0.28014 0.67664 0.77587 0.0
C567 C 0.30527 0.6717 0.78075 0.0
H568 H 0.65337 0.8097 0.01789 0.0
H569 H 0.67254 0.81253 0.2406 0.0
H570 H 0.65734 0.76534 0.01913 0.0
H571 H 0.67775 0.76787 0.24134 0.0
H572 H 0.64566 0.68946 0.23899 0.0
H573 H 0.65158 0.73362 0.2393 0.0
H574 H 0.68153 0.72977 0.02654 0.0
H575 H 0.67438 0.68539 0.02531 0.0
C576 C 0.65899 0.80084 0.0669 0.0
C577 C 0.66235 0.81457 0.12943 0.0
C578 C 0.66149 0.77532 0.06746 0.0
C579 C 0.66771 0.76284 0.13045 0.0
C580 C 0.67243 0.77678 0.19218 0.0
C581 C 0.66962 0.80238 0.19177 0.0
C582 C 0.65374 0.69799 0.19247 0.0
C583 C 0.65929 0.684 0.13176 0.0
C584 C 0.65738 0.72338 0.19288 0.0
C585 C 0.66695 0.73544 0.13284 0.0
C586 C 0.67366 0.72121 0.07327 0.0
C587 C 0.66971 0.69576 0.07258 0.0
H588 H 0.68754 0.3301 0.95999 0.0
H589 H 0.69202 0.34616 0.7354 0.0
H590 H 0.73201 0.32405 0.96359 0.0
H591 H 0.73635 0.34097 0.7393 0.0
H592 H 0.81604 0.31914 0.75727 0.0
H593 H 0.77128 0.31447 0.75463 0.0
H594 H 0.76624 0.35141 0.95763 0.0
H595 H 0.81056 0.35537 0.96103 0.0
C596 C 0.69799 0.3321 0.91133 0.0
C597 C 0.68635 0.33885 0.84765 0.0
C598 C 0.72347 0.32878 0.91338 0.0
C599 C 0.73782 0.33231 0.85187 0.0
C600 C 0.72592 0.33785 0.78751 0.0
C601 C 0.70048 0.34102 0.78541 0.0
C602 C 0.8053 0.326 0.8015 0.0
C603 C 0.81678 0.33774 0.85908 0.0
C604 C 0.77969 0.32341 0.79997 0.0
C605 C 0.76512 0.33256 0.85596 0.0
C606 C 0.77681 0.34373 0.9142 0.0
C607 C 0.80229 0.34624 0.91579 0.0
H608 H 0.83668 0.68883 0.74838 0.0
H609 H 0.80896 0.68581 0.53357 0.0
H610 H 0.8312 0.73331 0.74902 0.0
H611 H 0.80226 0.7301 0.53493 0.0
H612 H 0.83462 0.80868 0.52411 0.0
H613 H 0.82813 0.76442 0.52642 0.0
H614 H 0.80665 0.76889 0.74749 0.0
H615 H 0.81429 0.81306 0.74556 0.0
C616 C 0.82863 0.69762 0.7022 0.0
C617 C 0.82351 0.68398 0.64071 0.0
C618 C 0.82539 0.72316 0.70245 0.0
C619 C 0.81662 0.73549 0.64148 0.0
C620 C 0.80968 0.7214 0.58209 0.0
C621 C 0.8133 0.69598 0.5815 0.0
C622 C 0.82803 0.80025 0.5727 0.0
C623 C 0.8252 0.81423 0.63477 0.0
C624 C 0.82419 0.77482 0.57413 0.0
C625 C 0.8171 0.76289 0.63749 0.0
C626 C 0.81266 0.77729 0.69825 0.0
C627 C 0.81684 0.80264 0.69701 0.0
H628 H 0.80894 0.14527 0.28212 0.0
H629 H 0.81045 0.17591 0.49391 0.0
H630 H 0.76474 0.15055 0.27765 0.0
H631 H 0.76603 0.18229 0.48847 0.0
H632 H 0.68652 0.15298 0.49143 0.0
H633 H 0.73081 0.15719 0.49394 0.0
H634 H 0.73041 0.17699 0.27115 0.0
H635 H 0.68582 0.17165 0.26817 0.0
C636 C 0.79984 0.15358 0.32734 0.0
C637 C 0.81311 0.15992 0.38874 0.0
C638 C 0.77444 0.15685 0.3245 0.0
C639 C 0.76168 0.16679 0.38277 0.0
C640 C 0.77518 0.17417 0.44308 0.0
C641 C 0.80063 0.17064 0.44618 0.0
C642 C 0.69582 0.15851 0.44309 0.0
C643 C 0.68273 0.1617 0.37934 0.0
C644 C 0.72129 0.16115 0.44468 0.0
C645 C 0.73433 0.1673 0.38267 0.0
C646 C 0.72103 0.17177 0.31963 0.0
C647 C 0.69548 0.16887 0.3179 0.0
H648 H 0.16625 0.31423 0.75576 0.0
H649 H 0.17985 0.31579 0.52974 0.0
H650 H 0.1674 0.26945 0.75386 0.0
H651 H 0.18235 0.27108 0.52794 0.0
H652 H 0.14675 0.19416 0.53517 0.0
H653 H 0.15478 0.23823 0.53379 0.0
H654 H 0.18911 0.23264 0.74077 0.0
H655 H 0.17981 0.18883 0.74324 0.0
C656 C 0.1702 0.30496 0.70607 0.0
C657 C 0.17273 0.31839 0.64286 0.0
C658 C 0.17097 0.27925 0.70483 0.0
C659 C 0.1747 0.26649 0.64046 0.0
C660 C 0.1788 0.28017 0.57811 0.0
C661 C 0.17758 0.30581 0.5792 0.0
C662 C 0.15637 0.20235 0.57971 0.0
C663 C 0.16245 0.1882 0.63952 0.0
C664 C 0.16111 0.22763 0.57897 0.0
C665 C 0.17241 0.23918 0.6376 0.0
C666 C 0.17983 0.22457 0.69549 0.0
C667 C 0.1747 0.19942 0.69669 0.0
H668 H 0.19046 0.86434 0.28956 0.0
H669 H 0.18762 0.82523 0.48944 0.0
H670 H 0.23465 0.85897 0.28544 0.0
H671 H 0.2322 0.81925 0.4845 0.0
H672 H 0.31308 0.84731 0.49261 0.0
H673 H 0.26853 0.84444 0.49626 0.0
H674 H 0.26728 0.82971 0.27043 0.0
H675 H 0.31201 0.83333 0.26652 0.0
C676 C 0.19928 0.85435 0.3324 0.0
C677 C 0.18558 0.84535 0.39014 0.0
C678 C 0.22465 0.85104 0.32963 0.0
C679 C 0.23701 0.83858 0.38444 0.0
C680 C 0.22325 0.82913 0.44171 0.0
C681 C 0.19774 0.83249 0.44453 0.0
C682 C 0.30333 0.84315 0.44384 0.0
C683 C 0.316 0.84085 0.37906 0.0
C684 C 0.27776 0.84133 0.44606 0.0
C685 C 0.26428 0.83707 0.38356 0.0
C686 C 0.27709 0.83346 0.31934 0.0
C687 C 0.30271 0.83539 0.31709 0.0
H688 H 0.17681 0.10419 0.88763 0.0
H689 H 0.2123 0.07662 0.69847 0.0
H690 H 0.21459 0.09786 0.9547 0.0
H691 H 0.24991 0.06949 0.76589 0.0
H692 H 0.31948 0.09807 0.88352 0.0
H693 H 0.28147 0.09463 0.81558 0.0
H694 H 0.24348 0.06981 0.00429 0.0
H695 H 0.28131 0.0741 0.07245 0.0
C696 C 0.19252 0.09621 0.86082 0.0
C697 C 0.19166 0.09109 0.78775 0.0
C698 C 0.2142 0.09247 0.89929 0.0
C699 C 0.23544 0.08332 0.86561 0.0
C700 C 0.23409 0.07699 0.79324 0.0
C701 C 0.21247 0.08091 0.75471 0.0
C702 C 0.30311 0.09142 0.91004 0.0
C703 C 0.3033 0.08658 0.98334 0.0
C704 C 0.28129 0.08936 0.87111 0.0
C705 C 0.25926 0.08222 0.90462 0.0
C706 C 0.25992 0.07589 0.97709 0.0
C707 C 0.28166 0.07816 0.01605 0.0
H708 H 0.08104 0.82741 0.1595 0.0
H709 H 0.11136 0.77533 0.30921 0.0
H710 H 0.07588 0.79432 0.07258 0.0
H711 H 0.10726 0.74272 0.22238 0.0
H712 H 0.10338 0.73609 0.91144 0.0
H713 H 0.10024 0.76933 0.99735 0.0
H714 H 0.08019 0.71687 0.16028 0.0
H715 H 0.08453 0.68347 0.07461 0.0
C716 C 0.08658 0.80892 0.17375 0.0
C717 C 0.09664 0.80396 0.24099 0.0
C718 C 0.08375 0.78997 0.12396 0.0
C719 C 0.09113 0.76577 0.14033 0.0
C720 C 0.10086 0.76093 0.20816 0.0
C721 C 0.10345 0.77974 0.2579 0.0
C722 C 0.09803 0.7317 0.96546 0.0
C723 C 0.09448 0.70717 0.98661 0.0
C724 C 0.09606 0.75081 0.01472 0.0
C725 C 0.0902 0.74584 0.08612 0.0
C726 C 0.08532 0.72135 0.10617 0.0
C727 C 0.08763 0.7022 0.05706 0.0
H728 H 0.72098 0.92387 0.08918 0.0
H729 H 0.67954 0.90635 0.90001 0.0
H730 H 0.75777 0.92992 0.01739 0.0
H731 H 0.71643 0.91159 0.82834 0.0
H732 H 0.78296 0.93135 0.70556 0.0
H733 H 0.74731 0.93808 0.7814 0.0
H734 H 0.78544 0.90323 0.95625 0.0
H735 H 0.82136 0.89731 0.88082 0.0
C736 C 0.71968 0.9216 0.03207 0.0
C737 C 0.69743 0.91446 0.00018 0.0
C738 C 0.74081 0.92491 0.99099 0.0
C739 C 0.7402 0.92097 0.91714 0.0
C740 C 0.71758 0.91507 0.88492 0.0
C741 C 0.6964 0.91194 0.92601 0.0
C742 C 0.78389 0.92563 0.76069 0.0
C743 C 0.80485 0.91361 0.7872 0.0
C744 C 0.76338 0.92931 0.80401 0.0
C745 C 0.76329 0.92085 0.87465 0.0
C746 C 0.78488 0.9102 0.90232 0.0
C747 C 0.80549 0.90671 0.85907 0.0
H748 H 0.90124 0.22485 0.33744 0.0
H749 H 0.91868 0.17316 0.17068 0.0
H750 H 0.90398 0.25856 0.25337 0.0
H751 H 0.92263 0.20716 0.08645 0.0
H752 H 0.89082 0.26735 0.9426 0.0
H753 H 0.89572 0.23381 0.02646 0.0
H754 H 0.92746 0.28413 0.17906 0.0
H755 H 0.92145 0.31805 0.09542 0.0
C756 C 0.90625 0.22074 0.28298 0.0
C757 C 0.90951 0.19631 0.26049 0.0
C758 C 0.90799 0.24017 0.23468 0.0
C759 C 0.91331 0.23569 0.16268 0.0
C760 C 0.91795 0.21129 0.1411 0.0
C761 C 0.91591 0.19179 0.18942 0.0
C762 C 0.89896 0.27126 0.99395 0.0
C763 C 0.90558 0.29538 0.01265 0.0
C764 C 0.90202 0.25192 0.04195 0.0
C765 C 0.91206 0.25612 0.10978 0.0
C766 C 0.91932 0.28022 0.12776 0.0
C767 C 0.91597 0.29968 0.07982 0.0
H768 H 0.23725 0.40288 0.56865 0.0
H769 H 0.18514 0.42546 0.4082 0.0
H770 H 0.27055 0.40747 0.48456 0.0
H771 H 0.21885 0.43143 0.32401 0.0
H772 H 0.27877 0.40226 0.17289 0.0
H773 H 0.24514 0.40713 0.25607 0.0
H774 H 0.29632 0.43213 0.41664 0.0
H775 H 0.33026 0.42584 0.33369 0.0
C776 C 0.23297 0.40938 0.5156 0.0
C777 C 0.20852 0.41358 0.49481 0.0
C778 C 0.25219 0.41225 0.4673 0.0
C779 C 0.24756 0.41977 0.397 0.0
C780 C 0.22313 0.42514 0.37721 0.0
C781 C 0.20379 0.42189 0.42549 0.0
C782 C 0.28283 0.40907 0.22572 0.0
C783 C 0.3072 0.41339 0.24706 0.0
C784 C 0.26345 0.41209 0.27348 0.0
C785 C 0.26787 0.41986 0.34366 0.0
C786 C 0.2922 0.42556 0.36363 0.0
C787 C 0.31168 0.42215 0.31602 0.0
H788 H 0.4276 0.82265 0.5879 0.0
H789 H 0.40318 0.77457 0.41948 0.0
H790 H 0.43441 0.78695 0.66447 0.0
H791 H 0.4085 0.73925 0.49627 0.0
H792 H 0.42604 0.67585 0.63458 0.0
H793 H 0.43278 0.71146 0.55773 0.0
H794 H 0.41068 0.75959 0.72936 0.0
H795 H 0.40547 0.7243 0.80634 0.0
C796 C 0.42383 0.80445 0.56719 0.0
C797 C 0.4147 0.80142 0.49796 0.0
C798 C 0.42754 0.78396 0.61114 0.0
C799 C 0.42177 0.76006 0.58716 0.0
C800 C 0.41358 0.75715 0.51671 0.0
C801 C 0.41029 0.77753 0.47261 0.0
C802 C 0.42314 0.69411 0.65599 0.0
C803 C 0.41505 0.69727 0.72622 0.0
C804 C 0.42679 0.71456 0.61187 0.0
C805 C 0.42195 0.73856 0.6367 0.0
C806 C 0.41497 0.74159 0.70817 0.0
C807 C 0.41176 0.72124 0.75242 0.0
H808 H 0.67352 0.59604 0.36119 0.0
H809 H 0.71589 0.5731 0.17886 0.0
H810 H 0.70989 0.59211 0.43605 0.0
H811 H 0.75209 0.56832 0.2539 0.0
H812 H 0.81596 0.60188 0.38483 0.0
H813 H 0.77983 0.59597 0.31027 0.0
H814 H 0.74018 0.56663 0.49053 0.0
H815 H 0.77612 0.57335 0.56543 0.0
C816 C 0.69045 0.58951 0.33753 0.0
C817 C 0.69193 0.58511 0.26414 0.0
C818 C 0.71133 0.58717 0.38044 0.0
C819 C 0.73408 0.58017 0.3509 0.0
C820 C 0.73506 0.57428 0.27817 0.0
C821 C 0.71426 0.57683 0.23525 0.0
C822 C 0.79966 0.59378 0.40816 0.0
C823 C 0.7988 0.58828 0.48101 0.0
C824 C 0.77893 0.59028 0.36538 0.0
C825 C 0.75694 0.58099 0.39445 0.0
C826 C 0.7566 0.57426 0.46664 0.0
C827 C 0.77727 0.57794 0.50947 0.0
H828 H 0.57242 0.22056 0.41451 0.0
H829 H 0.59373 0.18032 0.60265 0.0
H830 H 0.56752 0.25779 0.48523 0.0
H831 H 0.58976 0.21768 0.67315 0.0
H832 H 0.57135 0.28521 0.79534 0.0
H833 H 0.56453 0.2486 0.72336 0.0
H834 H 0.59433 0.2864 0.54034 0.0
H835 H 0.60022 0.32327 0.61202 0.0
C836 C 0.57578 0.21963 0.47123 0.0
C837 C 0.58359 0.19757 0.50304 0.0
C838 C 0.57317 0.24102 0.51169 0.0
C839 C 0.57855 0.24092 0.58484 0.0
C840 C 0.58518 0.21848 0.61718 0.0
C841 C 0.58755 0.19702 0.57675 0.0
C842 C 0.576 0.28581 0.73935 0.0
C843 C 0.58646 0.30704 0.70933 0.0
C844 C 0.57227 0.26475 0.69819 0.0
C845 C 0.57919 0.26432 0.62616 0.0
C846 C 0.58852 0.28605 0.59538 0.0
C847 C 0.592 0.30722 0.63648 0.0
loop_
_geom_bond_atom_site_label_1
_geom_bond_atom_site_label_2
_geom_bond_distance
_geom_bond_site_symmetry_2
_ccdc_geom_bond_type
In0 O1 2.294 . S
In0 O2 2.326 . S
In0 O6 2.266 . S
In0 O7 2.326 . S
In0 O8 2.266 . S
In0 O9 2.326 . S
In0 O11 2.294 . S
In0 O12 2.326 . S
O1 In0 2.294 . S
O1 C10 1.240 . S
O2 In0 2.326 . S
O2 C10 1.252 . S
C3 O6 1.252 . S
C3 O7 1.260 . S
C4 O11 1.240 . S
C4 O12 1.252 . S
C5 O8 1.252 . S
C5 O9 1.260 . S
O6 In0 2.266 . S
O6 C3 1.252 . S
O7 In0 2.326 . S
O7 C3 1.260 . S
O8 In0 2.266 . S
O8 C5 1.252 . S
O9 In0 2.326 . S
O9 C5 1.260 . S
C10 O1 1.240 . S
C10 O2 1.252 . S
O11 In0 2.294 . S
O11 C4 1.240 . S
O12 In0 2.326 . S
O12 C4 1.252 . S
In13 O14 2.294 . S
In13 O15 2.326 . S
In13 O19 2.266 . S
In13 O20 2.326 . S
In13 O21 2.266 . S
In13 O22 2.326 . S
In13 O24 2.294 . S
In13 O25 2.326 . S
O14 In13 2.294 . S
O14 C23 1.240 . S
O15 In13 2.326 . S
O15 C23 1.252 . S
C16 O19 1.252 . S
C16 O20 1.260 . S
C17 O24 1.240 . S
C17 O25 1.252 . S
C18 O21 1.252 . S
C18 O22 1.260 . S
O19 In13 2.266 . S
O19 C16 1.252 . S
O20 In13 2.326 . S
O20 C16 1.260 . S
O21 In13 2.266 . S
O21 C18 1.252 . S
O22 In13 2.326 . S
O22 C18 1.260 . S
C23 O14 1.240 . S
C23 O15 1.252 . S
O24 In13 2.294 . S
O24 C17 1.240 . S
O25 In13 2.326 . S
O25 C17 1.252 . S
In26 O27 2.294 . S
In26 O28 2.326 . S
In26 O32 2.266 . S
In26 O33 2.326 . S
In26 O34 2.266 . S
In26 O35 2.326 . S
In26 O37 2.294 . S
In26 O38 2.326 . S
O27 In26 2.294 . S
O27 C36 1.240 . S
O28 In26 2.326 . S
O28 C36 1.252 . S
C29 O32 1.252 . S
C29 O33 1.260 . S
C30 O37 1.240 . S
C30 O38 1.252 . S
C31 O34 1.252 . S
C31 O35 1.260 . S
O32 In26 2.266 . S
O32 C29 1.252 . S
O33 In26 2.326 . S
O33 C29 1.260 . S
O34 In26 2.266 . S
O34 C31 1.252 . S
O35 In26 2.326 . S
O35 C31 1.260 . S
C36 O27 1.240 . S
C36 O28 1.252 . S
O37 In26 2.294 . S
O37 C30 1.240 . S
O38 In26 2.326 . S
O38 C30 1.252 . S
In39 O40 2.294 . S
In39 O41 2.326 . S
In39 O45 2.266 . S
In39 O46 2.326 . S
In39 O47 2.266 . S
In39 O48 2.326 . S
In39 O50 2.294 . S
In39 O51 2.326 . S
O40 In39 2.294 . S
O40 C49 1.240 . S
O41 In39 2.326 . S
O41 C49 1.252 . S
C42 O45 1.252 . S
C42 O46 1.260 . S
C43 O50 1.240 . S
C43 O51 1.252 . S
C44 O47 1.252 . S
C44 O48 1.260 . S
O45 In39 2.266 . S
O45 C42 1.252 . S
O46 In39 2.326 . S
O46 C42 1.260 . S
O47 In39 2.266 . S
O47 C44 1.252 . S
O48 In39 2.326 . S
O48 C44 1.260 . S
C49 O40 1.240 . S
C49 O41 1.252 . S
O50 In39 2.294 . S
O50 C43 1.240 . S
O51 In39 2.326 . S
O51 C43 1.252 . S
In52 O53 2.294 . S
In52 O54 2.326 . S
In52 O58 2.266 1_554 S
In52 O59 2.326 . S
In52 O60 2.266 . S
In52 O61 2.326 . S
In52 O63 2.294 . S
In52 O64 2.326 . S
O53 In52 2.294 . S
O53 C62 1.240 . S
O54 In52 2.326 . S
O54 C62 1.252 . S
C55 O58 1.252 1_554 S
C55 O59 1.260 . S
C56 O63 1.240 . S
C56 O64 1.252 . S
C57 O60 1.252 . S
C57 O61 1.260 . S
O58 In52 2.266 1_556 S
O58 C55 1.252 1_556 S
O59 In52 2.326 . S
O59 C55 1.260 . S
O60 In52 2.266 . S
O60 C57 1.252 . S
O61 In52 2.326 . S
O61 C57 1.260 . S
C62 O53 1.240 . S
C62 O54 1.252 . S
O63 In52 2.294 . S
O63 C56 1.240 . S
O64 In52 2.326 . S
O64 C56 1.252 . S
In65 O66 2.294 . S
In65 O67 2.326 . S
In65 O71 2.266 1_556 S
In65 O72 2.326 . S
In65 O73 2.266 . S
In65 O74 2.326 . S
In65 O76 2.294 . S
In65 O77 2.326 . S
O66 In65 2.294 . S
O66 C75 1.240 . S
O67 In65 2.326 . S
O67 C75 1.252 . S
C68 O71 1.252 1_556 S
C68 O72 1.260 . S
C69 O76 1.240 . S
C69 O77 1.252 . S
C70 O73 1.252 . S
C70 O74 1.260 . S
O71 In65 2.266 1_554 S
O71 C68 1.252 1_554 S
O72 In65 2.326 . S
O72 C68 1.260 . S
O73 In65 2.266 . S
O73 C70 1.252 . S
O74 In65 2.326 . S
O74 C70 1.260 . S
C75 O66 1.240 . S
C75 O67 1.252 . S
O76 In65 2.294 . S
O76 C69 1.240 . S
O77 In65 2.326 . S
O77 C69 1.252 . S
In78 O79 2.294 . S
In78 O80 2.326 . S
In78 O84 2.266 1_554 S
In78 O85 2.326 . S
In78 O86 2.266 . S
In78 O87 2.326 . S
In78 O89 2.294 . S
In78 O90 2.326 . S
O79 In78 2.294 . S
O79 C88 1.240 . S
O80 In78 2.326 . S
O80 C88 1.252 . S
C81 O84 1.252 1_554 S
C81 O85 1.260 . S
C82 O89 1.240 . S
C82 O90 1.252 . S
C83 O86 1.252 . S
C83 O87 1.260 . S
O84 In78 2.266 1_556 S
O84 C81 1.252 1_556 S
O85 In78 2.326 . S
O85 C81 1.260 . S
O86 In78 2.266 . S
O86 C83 1.252 . S
O87 In78 2.326 . S
O87 C83 1.260 . S
C88 O79 1.240 . S
C88 O80 1.252 . S
O89 In78 2.294 . S
O89 C82 1.240 . S
O90 In78 2.326 . S
O90 C82 1.252 . S
In91 O92 2.294 . S
In91 O93 2.326 . S
In91 O97 2.266 1_556 S
In91 O98 2.326 . S
In91 O99 2.266 . S
In91 O100 2.326 . S
In91 O102 2.294 . S
In91 O103 2.326 . S
O92 In91 2.294 . S
O92 C101 1.240 . S
O93 In91 2.326 . S
O93 C101 1.252 . S
C94 O97 1.252 1_556 S
C94 O98 1.260 . S
C95 O102 1.240 . S
C95 O103 1.252 . S
C96 O99 1.252 . S
C96 O100 1.260 . S
O97 In91 2.266 1_554 S
O97 C94 1.252 1_554 S
O98 In91 2.326 . S
O98 C94 1.260 . S
O99 In91 2.266 . S
O99 C96 1.252 . S
O100 In91 2.326 . S
O100 C96 1.260 . S
C101 O92 1.240 . S
C101 O93 1.252 . S
O102 In91 2.294 . S
O102 C95 1.240 . S
O103 In91 2.326 . S
O103 C95 1.252 . S
In104 O105 2.294 . S
In104 O106 2.326 . S
In104 O110 2.266 . S
In104 O111 2.326 . S
In104 O112 2.266 . S
In104 O113 2.326 . S
In104 O115 2.294 . S
In104 O116 2.326 . S
O105 In104 2.294 . S
O105 C114 1.240 . S
O106 In104 2.326 . S
O106 C114 1.252 . S
C107 O110 1.252 . S
C107 O111 1.260 . S
C108 O115 1.240 . S
C108 O116 1.252 . S
C109 O112 1.252 . S
C109 O113 1.260 . S
O110 In104 2.266 . S
O110 C107 1.252 . S
O111 In104 2.326 . S
O111 C107 1.260 . S
O112 In104 2.266 . S
O112 C109 1.252 . S
O113 In104 2.326 . S
O113 C109 1.260 . S
C114 O105 1.240 . S
C114 O106 1.252 . S
O115 In104 2.294 . S
O115 C108 1.240 . S
O116 In104 2.326 . S
O116 C108 1.252 . S
In117 O118 2.294 . S
In117 O119 2.326 . S
In117 O123 2.266 . S
In117 O124 2.326 . S
In117 O125 2.266 . S
In117 O126 2.326 . S
In117 O128 2.294 . S
In117 O129 2.326 . S
O118 In117 2.294 . S
O118 C127 1.240 . S
O119 In117 2.326 . S
O119 C127 1.252 . S
C120 O123 1.252 . S
C120 O124 1.260 . S
C121 O128 1.240 . S
C121 O129 1.252 . S
C122 O125 1.252 . S
C122 O126 1.260 . S
O123 In117 2.266 . S
O123 C120 1.252 . S
O124 In117 2.326 . S
O124 C120 1.260 . S
O125 In117 2.266 . S
O125 C122 1.252 . S
O126 In117 2.326 . S
O126 C122 1.260 . S
C127 O118 1.240 . S
C127 O119 1.252 . S
O128 In117 2.294 . S
O128 C121 1.240 . S
O129 In117 2.326 . S
O129 C121 1.252 . S
In130 O131 2.294 . S
In130 O132 2.326 . S
In130 O136 2.266 . S
In130 O137 2.326 . S
In130 O138 2.266 . S
In130 O139 2.326 . S
In130 O141 2.294 . S
In130 O142 2.326 . S
O131 In130 2.294 . S
O131 C140 1.240 . S
O132 In130 2.326 . S
O132 C140 1.252 . S
C133 O136 1.252 . S
C133 O137 1.260 . S
C134 O141 1.240 . S
C134 O142 1.252 . S
C135 O138 1.252 . S
C135 O139 1.260 . S
O136 In130 2.266 . S
O136 C133 1.252 . S
O137 In130 2.326 . S
O137 C133 1.260 . S
O138 In130 2.266 . S
O138 C135 1.252 . S
O139 In130 2.326 . S
O139 C135 1.260 . S
C140 O131 1.240 . S
C140 O132 1.252 . S
O141 In130 2.294 . S
O141 C134 1.240 . S
O142 In130 2.326 . S
O142 C134 1.252 . S
In143 O144 2.294 . S
In143 O145 2.326 . S
In143 O149 2.266 . S
In143 O150 2.326 . S
In143 O151 2.266 . S
In143 O152 2.326 . S
In143 O154 2.294 . S
In143 O155 2.326 . S
O144 In143 2.294 . S
O144 C153 1.240 . S
O145 In143 2.326 . S
O145 C153 1.252 . S
C146 O149 1.252 . S
C146 O150 1.260 . S
C147 O154 1.240 . S
C147 O155 1.252 . S
C148 O151 1.252 . S
C148 O152 1.260 . S
O149 In143 2.266 . S
O149 C146 1.252 . S
O150 In143 2.326 . S
O150 C146 1.260 . S
O151 In143 2.266 . S
O151 C148 1.252 . S
O152 In143 2.326 . S
O152 C148 1.260 . S
C153 O144 1.240 . S
C153 O145 1.252 . S
O154 In143 2.294 . S
O154 C147 1.240 . S
O155 In143 2.326 . S
O155 C147 1.252 . S
In156 O157 2.294 . S
In156 O158 2.326 . S
In156 O162 2.266 . S
In156 O163 2.326 . S
In156 O164 2.266 . S
In156 O165 2.326 . S
In156 O167 2.294 . S
In156 O168 2.326 . S
O157 In156 2.294 . S
O157 C166 1.240 . S
O158 In156 2.326 . S
O158 C166 1.252 . S
C159 O162 1.252 . S
C159 O163 1.260 . S
C160 O167 1.240 . S
C160 O168 1.252 . S
C161 O164 1.252 . S
C161 O165 1.260 . S
O162 In156 2.266 . S
O162 C159 1.252 . S
O163 In156 2.326 . S
O163 C159 1.260 . S
O164 In156 2.266 . S
O164 C161 1.252 . S
O165 In156 2.326 . S
O165 C161 1.260 . S
C166 O157 1.240 . S
C166 O158 1.252 . S
O167 In156 2.294 . S
O167 C160 1.240 . S
O168 In156 2.326 . S
O168 C160 1.252 . S
In169 O170 2.294 . S
In169 O171 2.326 . S
In169 O175 2.266 . S
In169 O176 2.326 . S
In169 O177 2.266 . S
In169 O178 2.326 . S
In169 O180 2.294 . S
In169 O181 2.326 . S
O170 In169 2.294 . S
O170 C179 1.240 . S
O171 In169 2.326 . S
O171 C179 1.252 . S
C172 O175 1.252 . S
C172 O176 1.260 . S
C173 O180 1.240 . S
C173 O181 1.252 . S
C174 O177 1.252 . S
C174 O178 1.260 . S
O175 In169 2.266 . S
O175 C172 1.252 . S
O176 In169 2.326 . S
O176 C172 1.260 . S
O177 In169 2.266 . S
O177 C174 1.252 . S
O178 In169 2.326 . S
O178 C174 1.260 . S
C179 O170 1.240 . S
C179 O171 1.252 . S
O180 In169 2.294 . S
O180 C173 1.240 . S
O181 In169 2.326 . S
O181 C173 1.252 . S
In182 O183 2.294 . S
In182 O184 2.326 . S
In182 O188 2.266 . S
In182 O189 2.326 . S
In182 O190 2.266 . S
In182 O191 2.326 . S
In182 O193 2.294 . S
In182 O194 2.326 . S
O183 In182 2.294 . S
O183 C192 1.240 . S
O184 In182 2.326 . S
O184 C192 1.252 . S
C185 O188 1.252 . S
C185 O189 1.260 . S
C186 O193 1.240 . S
C186 O194 1.252 . S
C187 O190 1.252 . S
C187 O191 1.260 . S
O188 In182 2.266 . S
O188 C185 1.252 . S
O189 In182 2.326 . S
O189 C185 1.260 . S
O190 In182 2.266 . S
O190 C187 1.252 . S
O191 In182 2.326 . S
O191 C187 1.260 . S
C192 O183 1.240 . S
C192 O184 1.252 . S
O193 In182 2.294 . S
O193 C186 1.240 . S
O194 In182 2.326 . S
O194 C186 1.252 . S
In195 O196 2.294 . S
In195 O197 2.326 . S
In195 O201 2.266 . S
In195 O202 2.326 . S
In195 O203 2.266 . S
In195 O204 2.326 . S
In195 O206 2.294 . S
In195 O207 2.326 . S
O196 In195 2.294 . S
O196 C205 1.240 . S
O197 In195 2.326 . S
O197 C205 1.252 . S
C198 O201 1.252 . S
C198 O202 1.260 . S
C199 O206 1.240 . S
C199 O207 1.252 . S
C200 O203 1.252 . S
C200 O204 1.260 . S
O201 In195 2.266 . S
O201 C198 1.252 . S
O202 In195 2.326 . S
O202 C198 1.260 . S
O203 In195 2.266 . S
O203 C200 1.252 . S
O204 In195 2.326 . S
O204 C200 1.260 . S
C205 O196 1.240 . S
C205 O197 1.252 . S
O206 In195 2.294 . S
O206 C199 1.240 . S
O207 In195 2.326 . S
O207 C199 1.252 . S
H208 C216 0.950 . S
H209 C221 0.950 . S
H210 C218 0.950 . S
H211 C220 0.950 . S
H212 C222 0.950 . S
H213 C224 0.950 . S
H214 C226 0.950 . S
H215 C227 0.950 . S
C216 H208 0.950 . S
C216 C217 1.386 . S
C216 C218 1.391 . S
C217 C216 1.386 . S
C217 C221 1.393 . S
C218 H210 0.950 . S
C218 C216 1.391 . S
C218 C219 1.400 . S
C219 C218 1.400 . S
C219 C220 1.398 . S
C219 C225 1.491 1_565 S
C220 H211 0.950 . S
C220 C219 1.398 . S
C220 C221 1.391 . S
C221 H209 0.950 . S
C221 C217 1.393 . S
C221 C220 1.391 . S
C222 H212 0.950 . S
C222 C223 1.386 . S
C222 C224 1.391 . S
C223 C222 1.386 . S
C223 C227 1.393 . S
C224 H213 0.950 . S
C224 C222 1.391 . S
C224 C225 1.400 . S
C225 C219 1.491 1_545 S
C225 C224 1.400 . S
C225 C226 1.398 . S
C226 H214 0.950 . S
C226 C225 1.398 . S
C226 C227 1.391 . S
C227 H215 0.950 . S
C227 C223 1.393 . S
C227 C226 1.391 . S
H228 C236 0.950 . S
H229 C241 0.950 . S
H230 C238 0.950 . S
H231 C240 0.950 . S
H232 C242 0.950 . S
H233 C244 0.950 . S
H234 C246 0.950 . S
H235 C247 0.950 . S
C236 H228 0.950 . S
C236 C237 1.386 . S
C236 C238 1.391 . S
C237 C236 1.386 . S
C237 C241 1.393 . S
C238 H230 0.950 . S
C238 C236 1.391 . S
C238 C239 1.400 . S
C239 C238 1.400 . S
C239 C240 1.398 . S
C239 C245 1.491 1_455 S
C240 H231 0.950 . S
C240 C239 1.398 . S
C240 C241 1.391 . S
C241 H229 0.950 . S
C241 C237 1.393 . S
C241 C240 1.391 . S
C242 H232 0.950 . S
C242 C243 1.386 . S
C242 C244 1.391 . S
C243 C242 1.386 . S
C243 C247 1.393 . S
C244 H233 0.950 . S
C244 C242 1.391 . S
C244 C245 1.400 . S
C245 C239 1.491 1_655 S
C245 C244 1.400 . S
C245 C246 1.398 . S
C246 H234 0.950 . S
C246 C245 1.398 . S
C246 C247 1.391 . S
C247 H235 0.950 . S
C247 C243 1.393 . S
C247 C246 1.391 . S
H248 C256 0.950 . S
H249 C261 0.950 . S
H250 C258 0.950 . S
H251 C260 0.950 . S
H252 C262 0.950 . S
H253 C264 0.950 . S
H254 C266 0.950 . S
H255 C267 0.950 . S
C256 H248 0.950 . S
C256 C257 1.386 . S
C256 C258 1.391 . S
C257 C256 1.386 . S
C257 C261 1.393 . S
C258 H250 0.950 . S
C258 C256 1.391 . S
C258 C259 1.400 . S
C259 C258 1.400 . S
C259 C260 1.398 . S
C259 C265 1.491 1_565 S
C260 H251 0.950 . S
C260 C259 1.398 . S
C260 C261 1.391 . S
C261 H249 0.950 . S
C261 C257 1.393 . S
C261 C260 1.391 . S
C262 H252 0.950 . S
C262 C263 1.386 . S
C262 C264 1.391 . S
C263 C262 1.386 . S
C263 C267 1.393 . S
C264 H253 0.950 . S
C264 C262 1.391 . S
C264 C265 1.400 . S
C265 C259 1.491 1_545 S
C265 C264 1.400 . S
C265 C266 1.398 . S
C266 H254 0.950 . S
C266 C265 1.398 . S
C266 C267 1.391 . S
C267 H255 0.950 . S
C267 C263 1.393 . S
C267 C266 1.391 . S
H268 C276 0.950 . S
H269 C281 0.950 . S
H270 C278 0.950 . S
H271 C280 0.950 . S
H272 C282 0.950 . S
H273 C284 0.950 . S
H274 C286 0.950 . S
H275 C287 0.950 . S
C276 H268 0.950 . S
C276 C277 1.386 . S
C276 C278 1.391 . S
C277 C276 1.386 . S
C277 C281 1.393 . S
C278 H270 0.950 . S
C278 C276 1.391 . S
C278 C279 1.400 . S
C279 C278 1.400 . S
C279 C280 1.398 . S
C279 C285 1.491 1_455 S
C280 H271 0.950 . S
C280 C279 1.398 . S
C280 C281 1.391 . S
C281 H269 0.950 . S
C281 C277 1.393 . S
C281 C280 1.391 . S
C282 H272 0.950 . S
C282 C283 1.386 . S
C282 C284 1.391 . S
C283 C282 1.386 . S
C283 C287 1.393 . S
C284 H273 0.950 . S
C284 C282 1.391 . S
C284 C285 1.400 . S
C285 C279 1.491 1_655 S
C285 C284 1.400 . S
C285 C286 1.398 . S
C286 H274 0.950 . S
C286 C285 1.398 . S
C286 C287 1.391 . S
C287 H275 0.950 . S
C287 C283 1.393 . S
C287 C286 1.391 . S
H288 C296 0.950 . S
H289 C301 0.950 . S
H290 C298 0.950 . S
H291 C300 0.950 . S
H292 C302 0.950 . S
H293 C304 0.950 . S
H294 C306 0.950 . S
H295 C307 0.950 1_554 S
C296 H288 0.950 . S
C296 C297 1.380 1_554 S
C296 C298 1.391 . S
C297 C296 1.380 1_556 S
C297 C301 1.401 . S
C298 H290 0.950 . S
C298 C296 1.391 . S
C298 C299 1.400 1_554 S
C299 C298 1.400 1_556 S
C299 C300 1.398 . S
C299 C305 1.491 . S
C300 H291 0.950 . S
C300 C299 1.398 . S
C300 C301 1.391 . S
C301 H289 0.950 . S
C301 C297 1.401 . S
C301 C300 1.391 . S
C302 H292 0.950 . S
C302 C303 1.386 . S
C302 C304 1.391 . S
C303 C302 1.386 . S
C303 C307 1.393 . S
C304 H293 0.950 . S
C304 C302 1.391 . S
C304 C305 1.400 . S
C305 C299 1.491 . S
C305 C304 1.400 . S
C305 C306 1.398 1_556 S
C306 H294 0.950 . S
C306 C305 1.398 1_554 S
C306 C307 1.391 1_554 S
C307 H295 0.950 1_556 S
C307 C303 1.393 . S
C307 C306 1.391 1_556 S
H308 C316 0.950 . S
H309 C321 0.950 . S
H310 C318 0.950 . S
H311 C320 0.950 1_556 S
H312 C322 0.950 . S
H313 C324 0.950 . S
H314 C326 0.950 . S
H315 C327 0.950 . S
C316 H308 0.950 . S
C316 C317 1.386 . S
C316 C318 1.391 . S
C317 C316 1.386 . S
C317 C321 1.393 1_554 S
C318 H310 0.950 . S
C318 C316 1.391 . S
C318 C319 1.400 . S
C319 C318 1.400 . S
C319 C320 1.398 . S
C319 C325 1.491 . S
C320 H311 0.950 1_554 S
C320 C319 1.398 . S
C320 C321 1.391 1_554 S
C321 H309 0.950 . S
C321 C317 1.393 1_556 S
C321 C320 1.391 1_556 S
C322 H312 0.950 . S
C322 C323 1.386 . S
C322 C324 1.391 . S
C323 C322 1.386 . S
C323 C327 1.393 . S
C324 H313 0.950 . S
C324 C322 1.391 . S
C324 C325 1.400 . S
C325 C319 1.491 . S
C325 C324 1.400 . S
C325 C326 1.398 . S
C326 H314 0.950 . S
C326 C325 1.398 . S
C326 C327 1.391 . S
C327 H315 0.950 . S
C327 C323 1.393 . S
C327 C326 1.391 . S
H328 C336 0.950 . S
H329 C341 0.950 . S
H330 C338 0.950 . S
H331 C340 0.950 . S
H332 C342 0.950 . S
H333 C344 0.950 . S
H334 C346 0.950 . S
H335 C347 0.950 . S
C336 H328 0.950 . S
C336 C337 1.386 . S
C336 C338 1.391 . S
C337 C336 1.386 . S
C337 C341 1.393 . S
C338 H330 0.950 . S
C338 C336 1.391 . S
C338 C339 1.400 . S
C339 C338 1.400 . S
C339 C340 1.398 . S
C339 C345 1.491 . S
C340 H331 0.950 . S
C340 C339 1.398 . S
C340 C341 1.391 . S
C341 H329 0.950 . S
C341 C337 1.393 . S
C341 C340 1.391 . S
C342 H332 0.950 . S
C342 C343 1.386 . S
C342 C344 1.391 . S
C343 C342 1.386 . S
C343 C347 1.393 1_556 S
C344 H333 0.950 . S
C344 C342 1.391 . S
C344 C345 1.400 . S
C345 C339 1.491 . S
C345 C344 1.400 . S
C345 C346 1.398 . S
C346 H334 0.950 . S
C346 C345 1.398 . S
C346 C347 1.391 1_556 S
C347 H335 0.950 . S
C347 C343 1.393 1_554 S
C347 C346 1.391 1_554 S
H348 C356 0.950 . S
H349 C361 0.950 . S
H350 C358 0.952 . S
H351 C360 0.950 . S
H352 C362 0.950 . S
H353 C364 0.950 . S
H354 C366 0.950 . S
H355 C367 0.950 . S
C356 H348 0.950 . S
C356 C357 1.386 . S
C356 C358 1.391 . S
C357 C356 1.386 . S
C357 C361 1.393 . S
C358 H350 0.952 . S
C358 C356 1.391 . S
C358 C359 1.400 . S
C359 C358 1.400 . S
C359 C360 1.398 . S
C359 C365 1.491 . S
C360 H351 0.950 . S
C360 C359 1.398 . S
C360 C361 1.391 . S
C361 H349 0.950 . S
C361 C357 1.393 . S
C361 C360 1.391 . S
C362 H352 0.950 . S
C362 C363 1.386 1_554 S
C362 C364 1.391 . S
C363 C362 1.386 1_556 S
C363 C367 1.393 . S
C364 H353 0.950 . S
C364 C362 1.391 . S
C364 C365 1.400 . S
C365 C359 1.491 . S
C365 C364 1.400 . S
C365 C366 1.398 1_554 S
C366 H354 0.950 . S
C366 C365 1.398 1_556 S
C366 C367 1.391 . S
C367 H355 0.950 . S
C367 C363 1.393 . S
C367 C366 1.391 . S
H368 C376 0.950 . S
H369 C381 0.950 . S
H370 C378 0.950 . S
H371 C380 0.950 . S
H372 C382 0.950 . S
H373 C384 0.950 . S
H374 C386 0.950 . S
H375 C387 0.950 . S
C376 H368 0.950 . S
C376 C377 1.386 . S
C376 C378 1.391 . S
C377 C376 1.386 . S
C377 C381 1.393 . S
C378 H370 0.950 . S
C378 C376 1.391 . S
C378 C379 1.400 . S
C379 C378 1.400 . S
C379 C380 1.398 . S
C379 C385 1.491 . S
C380 H371 0.950 . S
C380 C379 1.398 . S
C380 C381 1.391 . S
C381 H369 0.950 . S
C381 C377 1.393 . S
C381 C380 1.391 . S
C382 H372 0.950 . S
C382 C383 1.386 . S
C382 C384 1.391 . S
C383 C382 1.386 . S
C383 C387 1.393 . S
C384 H373 0.950 . S
C384 C382 1.391 . S
C384 C385 1.400 . S
C385 C379 1.491 . S
C385 C384 1.400 . S
C385 C386 1.398 . S
C386 H374 0.950 . S
C386 C385 1.398 . S
C386 C387 1.391 . S
C387 H375 0.950 . S
C387 C383 1.393 . S
C387 C386 1.391 . S
H388 C396 0.950 . S
H389 C401 0.950 . S
H390 C398 0.950 . S
H391 C400 0.950 . S
H392 C402 0.950 . S
H393 C404 0.950 . S
H394 C406 0.950 . S
H395 C407 0.950 . S
C396 H388 0.950 . S
C396 C397 1.386 . S
C396 C398 1.391 . S
C397 C396 1.386 . S
C397 C401 1.393 . S
C398 H390 0.950 . S
C398 C396 1.391 . S
C398 C399 1.400 . S
C399 C398 1.400 . S
C399 C400 1.398 . S
C399 C405 1.491 . S
C400 H391 0.950 . S
C400 C399 1.398 . S
C400 C401 1.391 . S
C401 H389 0.950 . S
C401 C397 1.393 . S
C401 C400 1.391 . S
C402 H392 0.950 . S
C402 C403 1.386 . S
C402 C404 1.391 . S
C403 C402 1.386 . S
C403 C407 1.393 . S
C404 H393 0.950 . S
C404 C402 1.391 . S
C404 C405 1.400 . S
C405 C399 1.491 . S
C405 C404 1.400 . S
C405 C406 1.398 . S
C406 H394 0.950 . S
C406 C405 1.398 . S
C406 C407 1.391 . S
C407 H395 0.950 . S
C407 C403 1.393 . S
C407 C406 1.391 . S
H408 C416 0.950 . S
H409 C421 0.950 . S
H410 C418 0.950 . S
H411 C420 0.950 . S
H412 C422 0.950 . S
H413 C424 0.950 . S
H414 C426 0.950 . S
H415 C427 0.950 . S
C416 H408 0.950 . S
C416 C417 1.386 . S
C416 C418 1.391 . S
C417 C416 1.386 . S
C417 C421 1.393 . S
C418 H410 0.950 . S
C418 C416 1.391 . S
C418 C419 1.400 . S
C419 C418 1.400 . S
C419 C420 1.398 . S
C419 C425 1.491 . S
C420 H411 0.950 . S
C420 C419 1.398 . S
C420 C421 1.391 . S
C421 H409 0.950 . S
C421 C417 1.393 . S
C421 C420 1.391 . S
C422 H412 0.950 . S
C422 C423 1.386 . S
C422 C424 1.391 . S
C423 C422 1.386 . S
C423 C427 1.393 . S
C424 H413 0.950 . S
C424 C422 1.391 . S
C424 C425 1.400 . S
C425 C419 1.491 . S
C425 C424 1.400 . S
C425 C426 1.398 . S
C426 H414 0.950 . S
C426 C425 1.398 . S
C426 C427 1.391 . S
C427 H415 0.950 . S
C427 C423 1.393 . S
C427 C426 1.391 . S
H428 C436 0.950 . S
H429 C441 0.950 . S
H430 C438 0.950 . S
H431 C440 0.950 . S
H432 C442 0.950 . S
H433 C444 0.950 . S
H434 C446 0.950 . S
H435 C447 0.950 . S
C436 H428 0.950 . S
C436 C437 1.386 . S
C436 C438 1.391 . S
C437 C436 1.386 . S
C437 C441 1.393 . S
C438 H430 0.950 . S
C438 C436 1.391 . S
C438 C439 1.400 . S
C439 C438 1.400 . S
C439 C440 1.398 . S
C439 C445 1.491 . S
C440 H431 0.950 . S
C440 C439 1.398 . S
C440 C441 1.391 . S
C441 H429 0.950 . S
C441 C437 1.393 . S
C441 C440 1.391 . S
C442 H432 0.950 . S
C442 C443 1.386 . S
C442 C444 1.391 . S
C443 C442 1.386 . S
C443 C447 1.393 . S
C444 H433 0.950 . S
C444 C442 1.391 . S
C444 C445 1.400 . S
C445 C439 1.491 . S
C445 C444 1.400 . S
C445 C446 1.398 . S
C446 H434 0.950 . S
C446 C445 1.398 . S
C446 C447 1.391 . S
C447 H435 0.950 . S
C447 C443 1.393 . S
C447 C446 1.391 . S
H448 C456 0.950 . S
H449 C461 0.950 . S
H450 C458 0.950 . S
H451 C460 0.950 1_545 S
H452 C462 0.950 . S
H453 C464 0.950 . S
H454 C466 0.950 . S
H455 C467 0.950 . S
C456 H448 0.950 . S
C456 C457 1.386 . S
C456 C458 1.391 . S
C457 C456 1.386 . S
C457 C461 1.393 . S
C458 H450 0.950 . S
C458 C456 1.391 . S
C458 C459 1.400 . S
C459 C458 1.400 . S
C459 C460 1.398 . S
C459 C465 1.491 1_565 S
C460 H451 0.950 1_565 S
C460 C459 1.398 . S
C460 C461 1.391 . S
C461 H449 0.950 . S
C461 C457 1.393 . S
C461 C460 1.391 . S
C462 H452 0.950 . S
C462 C463 1.386 . S
C462 C464 1.391 . S
C463 C462 1.386 . S
C463 C467 1.393 . S
C464 H453 0.950 . S
C464 C462 1.391 . S
C464 C465 1.400 . S
C465 C459 1.491 1_545 S
C465 C464 1.400 . S
C465 C466 1.398 . S
C466 H454 0.950 . S
C466 C465 1.398 . S
C466 C467 1.391 . S
C467 H455 0.950 . S
C467 C463 1.393 . S
C467 C466 1.391 . S
H468 C476 0.950 . S
H469 C481 0.950 . S
H470 C478 0.950 . S
H471 C480 0.949 . S
H472 C482 0.950 . S
H473 C484 0.950 . S
H474 C486 0.950 . S
H475 C487 0.950 . S
C476 H468 0.950 . S
C476 C477 1.386 . S
C476 C478 1.391 . S
C477 C476 1.386 . S
C477 C481 1.393 . S
C478 H470 0.950 . S
C478 C476 1.391 . S
C478 C479 1.400 . S
C479 C478 1.400 . S
C479 C480 1.398 . S
C479 C485 1.491 1_655 S
C480 H471 0.949 . S
C480 C479 1.398 . S
C480 C481 1.391 . S
C481 H469 0.950 . S
C481 C477 1.393 . S
C481 C480 1.391 . S
C482 H472 0.950 . S
C482 C483 1.386 . S
C482 C484 1.391 . S
C483 C482 1.386 . S
C483 C487 1.393 . S
C484 H473 0.950 . S
C484 C482 1.391 . S
C484 C485 1.400 . S
C485 C479 1.491 1_455 S
C485 C484 1.400 . S
C485 C486 1.398 . S
C486 H474 0.950 . S
C486 C485 1.398 . S
C486 C487 1.391 . S
C487 H475 0.950 . S
C487 C483 1.393 . S
C487 C486 1.391 . S
H488 C496 0.950 . S
H489 C501 0.950 . S
H490 C498 0.950 . S
H491 C500 0.950 . S
H492 C502 0.950 . S
H493 C504 0.950 . S
H494 C506 0.950 . S
H495 C507 0.950 . S
C496 H488 0.950 . S
C496 C497 1.386 . S
C496 C498 1.391 . S
C497 C496 1.386 . S
C497 C501 1.393 . S
C498 H490 0.950 . S
C498 C496 1.391 . S
C498 C499 1.400 . S
C499 C498 1.400 . S
C499 C500 1.398 . S
C499 C505 1.491 1_565 S
C500 H491 0.950 . S
C500 C499 1.398 . S
C500 C501 1.391 . S
C501 H489 0.950 . S
C501 C497 1.393 . S
C501 C500 1.391 . S
C502 H492 0.950 . S
C502 C503 1.386 . S
C502 C504 1.391 . S
C503 C502 1.386 . S
C503 C507 1.393 . S
C504 H493 0.950 . S
C504 C502 1.391 . S
C504 C505 1.400 . S
C505 C499 1.491 1_545 S
C505 C504 1.400 . S
C505 C506 1.398 . S
C506 H494 0.950 . S
C506 C505 1.398 . S
C506 C507 1.391 . S
C507 H495 0.950 . S
C507 C503 1.393 . S
C507 C506 1.391 . S
H508 C516 0.950 . S
H509 C521 0.950 . S
H510 C518 0.950 . S
H511 C520 0.950 . S
H512 C522 0.950 . S
H513 C524 0.950 . S
H514 C526 0.950 . S
H515 C527 0.950 . S
C516 H508 0.950 . S
C516 C517 1.386 . S
C516 C518 1.391 . S
C517 C516 1.386 . S
C517 C521 1.393 . S
C518 H510 0.950 . S
C518 C516 1.391 . S
C518 C519 1.400 . S
C519 C518 1.400 . S
C519 C520 1.398 . S
C519 C525 1.491 1_655 S
C520 H511 0.950 . S
C520 C519 1.398 . S
C520 C521 1.391 . S
C521 H509 0.950 . S
C521 C517 1.393 . S
C521 C520 1.391 . S
C522 H512 0.950 . S
C522 C523 1.386 . S
C522 C524 1.391 . S
C523 C522 1.386 . S
C523 C527 1.393 . S
C524 H513 0.950 . S
C524 C522 1.391 . S
C524 C525 1.400 . S
C525 C519 1.491 1_455 S
C525 C524 1.400 . S
C525 C526 1.398 . S
C526 H514 0.950 . S
C526 C525 1.398 . S
C526 C527 1.391 . S
C527 H515 0.950 . S
C527 C523 1.393 . S
C527 C526 1.391 . S
H528 C536 0.962 . S
H529 C541 0.950 . S
H530 C538 0.950 . S
H531 C540 0.950 . S
H532 C542 0.950 . S
H533 C544 0.950 . S
H534 C546 0.950 . S
H535 C547 0.950 . S
C536 H528 0.962 . S
C536 C537 1.386 . S
C536 C538 1.391 . S
C537 C536 1.386 . S
C537 C541 1.393 . S
C538 H530 0.950 . S
C538 C536 1.391 . S
C538 C539 1.400 . S
C539 C538 1.400 . S
C539 C540 1.398 . S
C539 C545 1.491 . S
C540 H531 0.950 . S
C540 C539 1.398 . S
C540 C541 1.391 . S
C541 H529 0.950 . S
C541 C537 1.393 . S
C541 C540 1.391 . S
C542 H532 0.950 . S
C542 C543 1.386 . S
C542 C544 1.391 . S
C543 C542 1.386 . S
C543 C547 1.393 . S
C544 H533 0.950 . S
C544 C542 1.391 . S
C544 C545 1.400 . S
C545 C539 1.491 . S
C545 C544 1.400 . S
C545 C546 1.398 . S
C546 H534 0.950 . S
C546 C545 1.398 . S
C546 C547 1.391 . S
C547 H535 0.950 . S
C547 C543 1.393 . S
C547 C546 1.391 . S
H548 C556 0.950 . S
H549 C561 0.950 . S
H550 C558 0.950 . S
H551 C560 0.950 . S
H552 C562 0.950 1_554 S
H553 C564 0.950 . S
H554 C566 0.950 . S
H555 C567 0.950 . S
C556 H548 0.950 . S
C556 C557 1.386 . S
C556 C558 1.391 . S
C557 C556 1.386 . S
C557 C561 1.393 . S
C558 H550 0.950 . S
C558 C556 1.391 . S
C558 C559 1.400 . S
C559 C558 1.400 . S
C559 C560 1.398 . S
C559 C565 1.491 . S
C560 H551 0.950 . S
C560 C559 1.398 . S
C560 C561 1.391 . S
C561 H549 0.950 . S
C561 C557 1.393 . S
C561 C560 1.391 . S
C562 H552 0.950 1_556 S
C562 C563 1.386 . S
C562 C564 1.391 . S
C563 C562 1.386 . S
C563 C567 1.393 . S
C564 H553 0.950 . S
C564 C562 1.391 . S
C564 C565 1.400 . S
C565 C559 1.491 . S
C565 C564 1.400 . S
C565 C566 1.398 . S
C566 H554 0.950 . S
C566 C565 1.398 . S
C566 C567 1.391 . S
C567 H555 0.950 . S
C567 C563 1.393 . S
C567 C566 1.391 . S
H568 C576 0.950 . S
H569 C581 0.950 . S
H570 C578 0.950 . S
H571 C580 0.950 . S
H572 C582 0.950 . S
H573 C584 0.950 . S
H574 C586 0.950 . S
H575 C587 0.950 . S
C576 H568 0.950 . S
C576 C577 1.386 . S
C576 C578 1.391 . S
C577 C576 1.386 . S
C577 C581 1.393 . S
C578 H570 0.950 . S
C578 C576 1.391 . S
C578 C579 1.400 . S
C579 C578 1.400 . S
C579 C580 1.398 . S
C579 C585 1.491 . S
C580 H571 0.950 . S
C580 C579 1.398 . S
C580 C581 1.391 . S
C581 H569 0.950 . S
C581 C577 1.393 . S
C581 C580 1.391 . S
C582 H572 0.950 . S
C582 C583 1.386 . S
C582 C584 1.391 . S
C583 C582 1.386 . S
C583 C587 1.393 . S
C584 H573 0.950 . S
C584 C582 1.391 . S
C584 C585 1.400 . S
C585 C579 1.491 . S
C585 C584 1.400 . S
C585 C586 1.398 . S
C586 H574 0.950 . S
C586 C585 1.398 . S
C586 C587 1.391 . S
C587 H575 0.950 . S
C587 C583 1.393 . S
C587 C586 1.391 . S
H588 C596 0.950 . S
H589 C601 0.950 . S
H590 C598 0.950 . S
H591 C600 0.950 . S
H592 C602 0.950 . S
H593 C604 0.950 . S
H594 C606 0.950 . S
H595 C607 0.950 . S
C596 H588 0.950 . S
C596 C597 1.386 . S
C596 C598 1.391 . S
C597 C596 1.386 . S
C597 C601 1.393 . S
C598 H590 0.950 . S
C598 C596 1.391 . S
C598 C599 1.400 . S
C599 C598 1.400 . S
C599 C600 1.398 . S
C599 C605 1.491 . S
C600 H591 0.950 . S
C600 C599 1.398 . S
C600 C601 1.391 . S
C601 H589 0.950 . S
C601 C597 1.393 . S
C601 C600 1.391 . S
C602 H592 0.950 . S
C602 C603 1.386 . S
C602 C604 1.391 . S
C603 C602 1.386 . S
C603 C607 1.393 . S
C604 H593 0.950 . S
C604 C602 1.391 . S
C604 C605 1.400 . S
C605 C599 1.491 . S
C605 C604 1.400 . S
C605 C606 1.398 . S
C606 H594 0.950 . S
C606 C605 1.398 . S
C606 C607 1.391 . S
C607 H595 0.950 . S
C607 C603 1.393 . S
C607 C606 1.391 . S
H608 C616 0.950 . S
H609 C621 0.950 . S
H610 C618 0.950 . S
H611 C620 0.950 . S
H612 C622 0.950 . S
H613 C624 0.950 . S
H614 C626 0.950 . S
H615 C627 0.950 . S
C616 H608 0.950 . S
C616 C617 1.386 . S
C616 C618 1.391 . S
C617 C616 1.386 . S
C617 C621 1.393 . S
C618 H610 0.950 . S
C618 C616 1.391 . S
C618 C619 1.400 . S
C619 C618 1.400 . S
C619 C620 1.398 . S
C619 C625 1.491 . S
C620 H611 0.950 . S
C620 C619 1.398 . S
C620 C621 1.391 . S
C621 H609 0.950 . S
C621 C617 1.393 . S
C621 C620 1.391 . S
C622 H612 0.950 . S
C622 C623 1.386 . S
C622 C624 1.391 . S
C623 C622 1.386 . S
C623 C627 1.393 . S
C624 H613 0.950 . S
C624 C622 1.391 . S
C624 C625 1.400 . S
C625 C619 1.491 . S
C625 C624 1.400 . S
C625 C626 1.398 . S
C626 H614 0.950 . S
C626 C625 1.398 . S
C626 C627 1.391 . S
C627 H615 0.950 . S
C627 C623 1.393 . S
C627 C626 1.391 . S
H628 C636 0.950 . S
H629 C641 0.950 . S
H630 C638 0.950 . S
H631 C640 0.950 . S
H632 C642 0.950 . S
H633 C644 0.950 . S
H634 C646 0.950 . S
H635 C647 0.950 . S
C636 H628 0.950 . S
C636 C637 1.386 . S
C636 C638 1.391 . S
C637 C636 1.386 . S
C637 C641 1.393 . S
C638 H630 0.950 . S
C638 C636 1.391 . S
C638 C639 1.400 . S
C639 C638 1.400 . S
C639 C640 1.398 . S
C639 C645 1.491 . S
C640 H631 0.950 . S
C640 C639 1.398 . S
C640 C641 1.391 . S
C641 H629 0.950 . S
C641 C637 1.393 . S
C641 C640 1.391 . S
C642 H632 0.950 . S
C642 C643 1.386 . S
C642 C644 1.391 . S
C643 C642 1.386 . S
C643 C647 1.393 . S
C644 H633 0.950 . S
C644 C642 1.391 . S
C644 C645 1.400 . S
C645 C639 1.491 . S
C645 C644 1.400 . S
C645 C646 1.398 . S
C646 H634 0.950 . S
C646 C645 1.398 . S
C646 C647 1.391 . S
C647 H635 0.950 . S
C647 C643 1.393 . S
C647 C646 1.391 . S
H648 C656 0.950 . S
H649 C661 0.950 . S
H650 C658 0.950 . S
H651 C660 0.950 . S
H652 C662 0.950 . S
H653 C664 0.950 . S
H654 C666 0.950 . S
H655 C667 0.950 . S
C656 H648 0.950 . S
C656 C657 1.386 . S
C656 C658 1.391 . S
C657 C656 1.386 . S
C657 C661 1.393 . S
C658 H650 0.950 . S
C658 C656 1.391 . S
C658 C659 1.400 . S
C659 C658 1.400 . S
C659 C660 1.398 . S
C659 C665 1.491 . S
C660 H651 0.950 . S
C660 C659 1.398 . S
C660 C661 1.391 . S
C661 H649 0.950 . S
C661 C657 1.393 . S
C661 C660 1.391 . S
C662 H652 0.950 . S
C662 C663 1.386 . S
C662 C664 1.391 . S
C663 C662 1.386 . S
C663 C667 1.393 . S
C664 H653 0.950 . S
C664 C662 1.391 . S
C664 C665 1.400 . S
C665 C659 1.491 . S
C665 C664 1.400 . S
C665 C666 1.398 . S
C666 H654 0.950 . S
C666 C665 1.398 . S
C666 C667 1.391 . S
C667 H655 0.950 . S
C667 C663 1.393 . S
C667 C666 1.391 . S
H668 C676 0.950 . S
H669 C681 0.950 . S
H670 C678 0.950 . S
H671 C680 0.950 . S
H672 C682 0.950 . S
H673 C684 0.950 . S
H674 C686 0.950 . S
H675 C687 0.950 . S
C676 H668 0.950 . S
C676 C677 1.386 . S
C676 C678 1.391 . S
C677 C676 1.386 . S
C677 C681 1.393 . S
C678 H670 0.950 . S
C678 C676 1.391 . S
C678 C679 1.400 . S
C679 C678 1.400 . S
C679 C680 1.398 . S
C679 C685 1.491 . S
C680 H671 0.950 . S
C680 C679 1.398 . S
C680 C681 1.391 . S
C681 H669 0.950 . S
C681 C677 1.393 . S
C681 C680 1.391 . S
C682 H672 0.950 . S
C682 C683 1.386 . S
C682 C684 1.391 . S
C683 C682 1.386 . S
C683 C687 1.393 . S
C684 H673 0.950 . S
C684 C682 1.391 . S
C684 C685 1.400 . S
C685 C679 1.491 . S
C685 C684 1.400 . S
C685 C686 1.398 . S
C686 H674 0.950 . S
C686 C685 1.398 . S
C686 C687 1.391 . S
C687 H675 0.950 . S
C687 C683 1.393 . S
C687 C686 1.391 . S
H688 C696 0.950 . S
H689 C701 0.950 . S
H690 C698 0.950 . S
H691 C700 0.950 . S
H692 C702 0.950 . S
H693 C704 0.950 . S
H694 C706 0.950 . S
H695 C707 0.950 . S
C696 H688 0.950 . S
C696 C697 1.386 . S
C696 C698 1.391 . S
C697 C696 1.386 . S
C697 C701 1.393 . S
C698 H690 0.950 . S
C698 C696 1.391 . S
C698 C699 1.400 . S
C699 C698 1.400 . S
C699 C700 1.398 . S
C699 C705 1.491 . S
C700 H691 0.950 . S
C700 C699 1.398 . S
C700 C701 1.391 . S
C701 H689 0.950 . S
C701 C697 1.393 . S
C701 C700 1.391 . S
C702 H692 0.950 . S
C702 C703 1.386 . S
C702 C704 1.391 . S
C703 C702 1.386 . S
C703 C707 1.393 1_556 S
C704 H693 0.950 . S
C704 C702 1.391 . S
C704 C705 1.400 . S
C705 C699 1.491 . S
C705 C704 1.400 . S
C705 C706 1.398 . S
C706 H694 0.950 . S
C706 C705 1.398 . S
C706 C707 1.391 1_556 S
C707 H695 0.950 . S
C707 C703 1.393 1_554 S
C707 C706 1.391 1_554 S
H708 C716 0.950 . S
H709 C721 0.950 . S
H710 C718 0.950 . S
H711 C720 0.950 . S
H712 C722 0.950 . S
H713 C724 0.950 . S
H714 C726 0.950 . S
H715 C727 0.950 . S
C716 H708 0.950 . S
C716 C717 1.386 . S
C716 C718 1.391 . S
C717 C716 1.386 . S
C717 C721 1.393 . S
C718 H710 0.950 . S
C718 C716 1.391 . S
C718 C719 1.400 . S
C719 C718 1.400 . S
C719 C720 1.398 . S
C719 C725 1.491 . S
C720 H711 0.950 . S
C720 C719 1.398 . S
C720 C721 1.391 . S
C721 H709 0.950 . S
C721 C717 1.393 . S
C721 C720 1.391 . S
C722 H712 0.950 . S
C722 C723 1.386 . S
C722 C724 1.391 . S
C723 C722 1.386 . S
C723 C727 1.393 . S
C724 H713 0.950 . S
C724 C722 1.391 . S
C724 C725 1.400 . S
C725 C719 1.491 . S
C725 C724 1.400 . S
C725 C726 1.398 . S
C726 H714 0.950 . S
C726 C725 1.398 . S
C726 C727 1.391 . S
C727 H715 0.950 . S
C727 C723 1.393 . S
C727 C726 1.391 . S
H728 C736 0.950 . S
H729 C741 0.950 . S
H730 C738 0.950 . S
H731 C740 0.950 . S
H732 C742 0.950 . S
H733 C744 0.950 . S
H734 C746 0.950 . S
H735 C747 0.950 . S
C736 H728 0.950 . S
C736 C737 1.386 1_554 S
C736 C738 1.391 1_554 S
C737 C736 1.386 1_556 S
C737 C741 1.393 . S
C738 H730 0.950 . S
C738 C736 1.391 1_556 S
C738 C739 1.400 . S
C739 C738 1.400 . S
C739 C740 1.398 . S
C739 C745 1.491 . S
C740 H731 0.950 . S
C740 C739 1.398 . S
C740 C741 1.391 . S
C741 H729 0.950 . S
C741 C737 1.393 . S
C741 C740 1.391 . S
C742 H732 0.950 . S
C742 C743 1.386 . S
C742 C744 1.391 . S
C743 C742 1.386 . S
C743 C747 1.393 . S
C744 H733 0.950 . S
C744 C742 1.391 . S
C744 C745 1.400 . S
C745 C739 1.491 . S
C745 C744 1.400 . S
C745 C746 1.398 . S
C746 H734 0.950 . S
C746 C745 1.398 . S
C746 C747 1.391 . S
C747 H735 0.950 . S
C747 C743 1.393 . S
C747 C746 1.391 . S
H748 C756 0.950 . S
H749 C761 0.950 . S
H750 C758 0.950 . S
H751 C760 0.950 . S
H752 C762 0.950 . S
H753 C764 0.950 . S
H754 C766 0.950 . S
H755 C767 0.950 . S
C756 H748 0.950 . S
C756 C757 1.386 . S
C756 C758 1.391 . S
C757 C756 1.386 . S
C757 C761 1.393 . S
C758 H750 0.950 . S
C758 C756 1.391 . S
C758 C759 1.400 . S
C759 C758 1.400 . S
C759 C760 1.398 . S
C759 C765 1.491 . S
C760 H751 0.950 . S
C760 C759 1.398 . S
C760 C761 1.391 . S
C761 H749 0.950 . S
C761 C757 1.393 . S
C761 C760 1.391 . S
C762 H752 0.950 . S
C762 C763 1.386 1_556 S
C762 C764 1.391 1_556 S
C763 C762 1.386 1_554 S
C763 C767 1.393 . S
C764 H753 0.950 . S
C764 C762 1.391 1_554 S
C764 C765 1.400 . S
C765 C759 1.491 . S
C765 C764 1.400 . S
C765 C766 1.398 . S
C766 H754 0.950 . S
C766 C765 1.398 . S
C766 C767 1.391 . S
C767 H755 0.950 . S
C767 C763 1.393 . S
C767 C766 1.391 . S
H768 C776 0.950 . S
H769 C781 0.950 . S
H770 C778 0.950 . S
H771 C780 0.950 . S
H772 C782 0.950 . S
H773 C784 0.950 . S
H774 C786 0.950 . S
H775 C787 0.950 . S
C776 H768 0.950 . S
C776 C777 1.386 . S
C776 C778 1.391 . S
C777 C776 1.386 . S
C777 C781 1.393 . S
C778 H770 0.950 . S
C778 C776 1.391 . S
C778 C779 1.400 . S
C779 C778 1.400 . S
C779 C780 1.398 . S
C779 C785 1.491 . S
C780 H771 0.950 . S
C780 C779 1.398 . S
C780 C781 1.391 . S
C781 H769 0.950 . S
C781 C777 1.393 . S
C781 C780 1.391 . S
C782 H772 0.950 . S
C782 C783 1.386 . S
C782 C784 1.391 . S
C783 C782 1.386 . S
C783 C787 1.393 . S
C784 H773 0.950 . S
C784 C782 1.391 . S
C784 C785 1.400 . S
C785 C779 1.491 . S
C785 C784 1.400 . S
C785 C786 1.398 . S
C786 H774 0.950 . S
C786 C785 1.398 . S
C786 C787 1.391 . S
C787 H775 0.950 . S
C787 C783 1.393 . S
C787 C786 1.391 . S
H788 C796 0.950 . S
H789 C801 0.950 . S
H790 C798 0.950 . S
H791 C800 0.950 . S
H792 C802 0.950 . S
H793 C804 0.950 . S
H794 C806 0.950 . S
H795 C807 0.950 . S
C796 H788 0.950 . S
C796 C797 1.386 . S
C796 C798 1.391 . S
C797 C796 1.386 . S
C797 C801 1.393 . S
C798 H790 0.950 . S
C798 C796 1.391 . S
C798 C799 1.400 . S
C799 C798 1.400 . S
C799 C800 1.398 . S
C799 C805 1.491 . S
C800 H791 0.950 . S
C800 C799 1.398 . S
C800 C801 1.391 . S
C801 H789 0.950 . S
C801 C797 1.393 . S
C801 C800 1.391 . S
C802 H792 0.950 . S
C802 C803 1.386 . S
C802 C804 1.391 . S
C803 C802 1.386 . S
C803 C807 1.393 . S
C804 H793 0.950 . S
C804 C802 1.391 . S
C804 C805 1.400 . S
C805 C799 1.491 . S
C805 C804 1.400 . S
C805 C806 1.398 . S
C806 H794 0.950 . S
C806 C805 1.398 . S
C806 C807 1.391 . S
C807 H795 0.950 . S
C807 C803 1.393 . S
C807 C806 1.391 . S
H808 C816 0.950 . S
H809 C821 0.950 . S
H810 C818 0.950 . S
H811 C820 0.950 . S
H812 C822 0.950 . S
H813 C824 0.950 . S
H814 C826 0.950 . S
H815 C827 0.950 . S
C816 H808 0.950 . S
C816 C817 1.386 . S
C816 C818 1.391 . S
C817 C816 1.386 . S
C817 C821 1.393 . S
C818 H810 0.950 . S
C818 C816 1.391 . S
C818 C819 1.400 . S
C819 C818 1.400 . S
C819 C820 1.398 . S
C819 C825 1.491 . S
C820 H811 0.950 . S
C820 C819 1.398 . S
C820 C821 1.391 . S
C821 H809 0.950 . S
C821 C817 1.393 . S
C821 C820 1.391 . S
C822 H812 0.950 . S
C822 C823 1.386 . S
C822 C824 1.391 . S
C823 C822 1.386 . S
C823 C827 1.393 . S
C824 H813 0.950 . S
C824 C822 1.391 . S
C824 C825 1.400 . S
C825 C819 1.491 . S
C825 C824 1.400 . S
C825 C826 1.398 . S
C826 H814 0.950 . S
C826 C825 1.398 . S
C826 C827 1.391 . S
C827 H815 0.950 . S
C827 C823 1.393 . S
C827 C826 1.391 . S
H828 C836 0.950 . S
H829 C841 0.950 . S
H830 C838 0.950 . S
H831 C840 0.950 . S
H832 C842 0.950 . S
H833 C844 0.950 . S
H834 C846 0.950 . S
H835 C847 0.950 . S
C836 H828 0.950 . S
C836 C837 1.386 . S
C836 C838 1.391 . S
C837 C836 1.386 . S
C837 C841 1.393 . S
C838 H830 0.950 . S
C838 C836 1.391 . S
C838 C839 1.400 . S
C839 C838 1.400 . S
C839 C840 1.398 . S
C839 C845 1.491 . S
C840 H831 0.950 . S
C840 C839 1.398 . S
C840 C841 1.391 . S
C841 H829 0.950 . S
C841 C837 1.393 . S
C841 C840 1.391 . S
C842 H832 0.950 . S
C842 C843 1.386 . S
C842 C844 1.391 . S
C843 C842 1.386 . S
C843 C847 1.393 . S
C844 H833 0.950 . S
C844 C842 1.391 . S
C844 C845 1.400 . S
C845 C839 1.491 . S
C845 C844 1.400 . S
C845 C846 1.398 . S
C846 H834 0.950 . S
C846 C845 1.398 . S
C846 C847 1.391 . S
C847 H835 0.950 . S
C847 C843 1.393 . S
C847 C846 1.391 . S
C217 C148 1.383 . S
C223 C5 1.367 . S
C237 C18 1.363 . S
C243 C107 1.384 . S
C257 C29 1.364 . S
C263 C122 1.397 . S
C277 C135 1.398 . S
C283 C42 1.372 . S
C297 C55 1.364 1_556 S
C303 C70 1.383 . S
C317 C68 1.374 1_554 S
C323 C83 1.385 . S
C337 C96 1.385 . S
C343 C81 1.374 1_556 S
C357 C57 1.396 . S
C363 C94 1.362 . S
C377 C44 1.383 . S
C383 C109 1.366 . S
C397 C120 1.380 . S
C403 C3 1.392 . S
C417 C16 1.398 . S
C423 C133 1.375 . S
C437 C146 1.358 . S
C443 C31 1.386 . S
C457 C161 1.380 . S
C463 C172 1.393 . S
C477 C174 1.357 . S
C483 C185 1.386 . S
C497 C200 1.383 . S
C503 C187 1.364 . S
C517 C159 1.383 . S
C523 C198 1.365 . S
C537 C62 1.133 . S
C543 C4 1.145 . S
C557 C17 1.131 . S
C563 C75 1.116 . S
C577 C36 1.147 . S
C583 C88 1.139 . S
C597 C101 1.121 . S
C603 C49 1.113 . S
C617 C108 1.119 . S
C623 C160 1.134 . S
C637 C173 1.138 . S
C643 C127 1.146 . S
C657 C140 1.117 . S
C663 C186 1.132 . S
C677 C205 1.136 . S
C683 C153 1.146 . S
C697 C192 1.564 . S
C703 C10 1.561 1_556 S
C717 C199 1.572 . S
C723 C23 1.572 1_554 S
C737 C30 1.567 1_556 S
C743 C166 1.571 . S
C757 C179 1.567 . S
C763 C43 1.563 1_554 S
C777 C134 1.567 . S
C783 C56 1.570 . S
C797 C147 1.563 . S
C803 C69 1.566 . S
C817 C82 1.570 . S
C823 C114 1.567 . S
C837 C121 1.572 . S
C843 C95 1.571 . S
