# Generated by pormake.
# Topology wix, (3)-cn, num edge types: 1
# Building blocks:
#     Node 0, Type 0, BuildingBlock: OLANEW_clean_sbu_2, # of connection points: 3
#     Node 1, Type 0, BuildingBlock: OLANEW_clean_sbu_2, # of connection points: 3
#     Node 2, Type 0, BuildingBlock: OLANEW_clean_sbu_2, # of connection points: 3
#     Node 3, Type 0, BuildingBlock: OLANEW_clean_sbu_2, # of connection points: 3
#     Node 4, Type 0, BuildingBlock: OLANEW_clean_sbu_2, # of connection points: 3
#     Node 5, Type 0, BuildingBlock: OLANEW_clean_sbu_2, # of connection points: 3
#     Node 6, Type 0, BuildingBlock: OLANEW_clean_sbu_2, # of connection points: 3
#     Node 7, Type 0, BuildingBlock: OLANEW_clean_sbu_2, # of connection points: 3
#     Node 8, Type 0, BuildingBlock: OLANEW_clean_sbu_2, # of connection points: 3
#     Node 9, Type 0, BuildingBlock: OLANEW_clean_sbu_2, # of connection points: 3
#     Node 10, Type 0, BuildingBlock: OLANEW_clean_sbu_2, # of connection points: 3
#     Node 11, Type 0, BuildingBlock: OLANEW_clean_sbu_2, # of connection points: 3
#     Edge 12, Type (0, 0), BuildingBlock: TEMPAE_clean_linker_10, # of connection points: 2
#     Edge 13, Type (0, 0), BuildingBlock: TEMPAE_clean_linker_10, # of connection points: 2
#     Edge 14, Type (0, 0), BuildingBlock: TEMPAE_clean_linker_10, # of connection points: 2
#     Edge 15, Type (0, 0), BuildingBlock: TEMPAE_clean_linker_10, # of connection points: 2
#     Edge 16, Type (0, 0), BuildingBlock: TEMPAE_clean_linker_10, # of connection points: 2
#     Edge 17, Type (0, 0), BuildingBlock: TEMPAE_clean_linker_10, # of connection points: 2
#     Edge 18, Type (0, 0), BuildingBlock: TEMPAE_clean_linker_10, # of connection points: 2
#     Edge 19, Type (0, 0), BuildingBlock: TEMPAE_clean_linker_10, # of connection points: 2
#     Edge 20, Type (0, 0), BuildingBlock: TEMPAE_clean_linker_10, # of connection points: 2
#     Edge 21, Type (0, 0), BuildingBlock: TEMPAE_clean_linker_10, # of connection points: 2
#     Edge 22, Type (0, 0), BuildingBlock: TEMPAE_clean_linker_10, # of connection points: 2
#     Edge 23, Type (0, 0), BuildingBlock: TEMPAE_clean_linker_10, # of connection points: 2
#     Edge 24, Type (0, 0), BuildingBlock: TEMPAE_clean_linker_10, # of connection points: 2
#     Edge 25, Type (0, 0), BuildingBlock: TEMPAE_clean_linker_10, # of connection points: 2
#     Edge 26, Type (0, 0), BuildingBlock: TEMPAE_clean_linker_10, # of connection points: 2
#     Edge 27, Type (0, 0), BuildingBlock: TEMPAE_clean_linker_10, # of connection points: 2
#     Edge 28, Type (0, 0), BuildingBlock: TEMPAE_clean_linker_10, # of connection points: 2
#     Edge 29, Type (0, 0), BuildingBlock: TEMPAE_clean_linker_10, # of connection points: 2
# Relax obj value: 0.008
# Max RMSD: 0.072
# Mean RMSD: 0.072
data_MOF--net-wix--node1-OLANEW_clean_sbu_2--edge1-TEMPAE_clean_linker_10
_symmetry_space_group_name_H-M    P1
_symmetry_Int_Tables_number       1
_symmetry_cell_setting            triclinic
loop_
_symmetry_equiv_pos_as_xyz
'x, y, z'
_cell_length_a     64.292922
_cell_length_b     64.312252
_cell_length_c     33.689691
_cell_angle_alpha  90.015703
_cell_angle_beta   89.984576
_cell_angle_gamma 120.01256
loop_
_atom_site_label
_atom_site_type_symbol
_atom_site_fract_x
_atom_site_fract_y
_atom_site_fract_z
_atom_type_partial_charge
O0 O 0.29558 0.36611 0.0707 0.0
Cd1 Cd 0.26834 0.37652 0.03744 0.0
O2 O 0.32251 0.40438 0.06846 0.0
Cd3 Cd 0.35939 0.43418 0.07255 0.0
O4 O 0.394 0.46296 0.05156 0.0
C5 C 0.40619 0.45762 0.02829 0.0
O6 O 0.39811 0.43491 0.01966 0.0
C7 C 0.31663 0.38309 0.07841 0.0
C8 C 0.24423 0.38917 0.09242 0.0
O9 O 0.23476 0.36764 0.07917 0.0
O10 O 0.26505 0.40472 0.07946 0.0
O11 O 0.88808 0.31745 0.30278 0.0
Cd12 Cd 0.84439 0.29518 0.29717 0.0
O13 O 0.88562 0.35023 0.30135 0.0
Cd14 Cd 0.9029 0.38912 0.29474 0.0
O15 O 0.91699 0.42304 0.26295 0.0
C16 C 0.93426 0.42918 0.23872 0.0
O17 O 0.94408 0.41559 0.23539 0.0
C18 C 0.89828 0.34019 0.30389 0.0
C19 C 0.82393 0.26061 0.35652 0.0
O20 O 0.82819 0.25517 0.32202 0.0
O21 O 0.82924 0.28237 0.36281 0.0
O22 O 0.57676 0.89694 0.4336 0.0
Cd23 Cd 0.55153 0.85546 0.41204 0.0
O24 O 0.54775 0.9041 0.41884 0.0
Cd25 Cd 0.53215 0.92707 0.40969 0.0
O26 O 0.51242 0.93977 0.37391 0.0
C27 C 0.52194 0.95125 0.34209 0.0
O28 O 0.54393 0.95643 0.33326 0.0
C29 C 0.5686 0.91129 0.43282 0.0
C30 C 0.55311 0.82568 0.47046 0.0
O31 O 0.56707 0.83185 0.44024 0.0
O32 O 0.53799 0.83311 0.47248 0.0
O33 O 0.655 0.54904 0.66792 0.0
Cd34 Cd 0.66768 0.51974 0.6546 0.0
O35 O 0.62899 0.53491 0.61932 0.0
Cd36 Cd 0.6018 0.53224 0.57732 0.0
O37 O 0.5761 0.51773 0.5285 0.0
C38 C 0.57766 0.52967 0.49746 0.0
O39 O 0.59481 0.55222 0.49501 0.0
C40 C 0.63866 0.5497 0.64776 0.0
C41 C 0.70895 0.53205 0.69839 0.0
O42 O 0.71036 0.53886 0.66225 0.0
O43 O 0.68802 0.51901 0.71344 0.0
O44 O 0.12101 0.65928 0.83922 0.0
Cd45 Cd 0.16339 0.67147 0.83273 0.0
O46 O 0.10994 0.63375 0.78987 0.0
Cd47 Cd 0.08572 0.60793 0.74587 0.0
O48 O 0.07288 0.58351 0.69514 0.0
C49 C 0.05832 0.58329 0.66939 0.0
O50 O 0.04968 0.59784 0.67371 0.0
C51 C 0.10445 0.64371 0.81734 0.0
C52 C 0.18969 0.7115 0.88086 0.0
O53 O 0.18621 0.71387 0.84409 0.0
O54 O 0.18126 0.69018 0.89455 0.0
O55 O 0.39523 0.09476 0.89028 0.0
Cd56 Cd 0.41362 0.13507 0.86234 0.0
O57 O 0.42949 0.09598 0.88041 0.0
Cd58 Cd 0.45292 0.08053 0.8782 0.0
O59 O 0.47752 0.07136 0.84873 0.0
C60 C 0.47124 0.06103 0.81514 0.0
O61 O 0.45 0.05538 0.80102 0.0
C62 C 0.40812 0.08502 0.89363 0.0
C63 C 0.42326 0.16726 0.92441 0.0
O64 O 0.40376 0.1589 0.90434 0.0
O65 O 0.43846 0.16084 0.91446 0.0
O66 O 0.60249 0.68984 0.73222 0.0
Cd67 Cd 0.59069 0.71771 0.75885 0.0
O68 O 0.5761 0.66323 0.77284 0.0
Cd69 Cd 0.55353 0.62792 0.79968 0.0
O70 O 0.52861 0.5961 0.83327 0.0
C71 C 0.53556 0.5896 0.86374 0.0
O72 O 0.55827 0.60193 0.8742 0.0
C73 C 0.59186 0.6686 0.74591 0.0
C74 C 0.58073 0.74043 0.69759 0.0
O75 O 0.60157 0.75025 0.71373 0.0
O76 O 0.56455 0.71993 0.71068 0.0
O77 O 0.93194 0.62052 0.89157 0.0
Cd78 Cd 0.8952 0.61478 0.9228 0.0
O79 O 0.92974 0.59413 0.93471 0.0
Cd80 Cd 0.93927 0.5699 0.96479 0.0
O81 O 0.94225 0.54472 0.00452 0.0
C82 C 0.95712 0.5522 0.03314 0.0
O83 O 0.97145 0.57543 0.03767 0.0
C84 C 0.94075 0.60837 0.90611 0.0
C85 C 0.85648 0.5963 0.8706 0.0
O86 O 0.86941 0.61898 0.87638 0.0
O87 O 0.86197 0.58238 0.88938 0.0
O88 O 0.30164 0.93279 0.06996 0.0
Cd89 Cd 0.27731 0.89665 0.10908 0.0
O90 O 0.33192 0.92708 0.08159 0.0
Cd91 Cd 0.36994 0.93787 0.08331 0.0
O92 O 0.40194 0.94326 0.1148 0.0
C93 C 0.41237 0.96073 0.13889 0.0
O94 O 0.40453 0.97601 0.14212 0.0
C95 C 0.32367 0.93928 0.06536 0.0
C96 C 0.25943 0.85598 0.06113 0.0
O97 O 0.24712 0.86631 0.0678 0.0
O98 O 0.28015 0.8648 0.07745 0.0
O99 O 0.41441 0.31004 0.21274 0.0
Cd100 Cd 0.43878 0.29232 0.23167 0.0
O101 O 0.44681 0.34544 0.21645 0.0
Cd102 Cd 0.4661 0.38465 0.2179 0.0
O103 O 0.48881 0.41823 0.24928 0.0
C104 C 0.4797 0.42864 0.26877 0.0
O105 O 0.45636 0.41993 0.26726 0.0
C106 C 0.42455 0.33267 0.20881 0.0
C107 C 0.44011 0.26539 0.16803 0.0
O108 O 0.42456 0.25556 0.19582 0.0
O109 O 0.45538 0.28786 0.17086 0.0
O110 O 0.08937 0.42458 0.33641 0.0
Cd111 Cd 0.13282 0.44838 0.3454 0.0
O112 O 0.08867 0.45794 0.3456 0.0
Cd113 Cd 0.07001 0.47766 0.35893 0.0
O114 O 0.0614 0.49902 0.3988 0.0
C115 C 0.0445 0.48883 0.42396 0.0
O116 O 0.03112 0.4653 0.42347 0.0
C117 C 0.07756 0.43552 0.3387 0.0
C118 C 0.15717 0.43554 0.2913 0.0
O119 O 0.15182 0.42608 0.32597 0.0
O120 O 0.15103 0.45109 0.28235 0.0
O121 O 0.70022 0.06089 0.59126 0.0
Cd122 Cd 0.73024 0.09704 0.62513 0.0
O123 O 0.67616 0.0756 0.5977 0.0
Cd124 Cd 0.64074 0.0724 0.59614 0.0
O125 O 0.60841 0.06996 0.62173 0.0
C126 C 0.59548 0.05234 0.64441 0.0
O127 O 0.60135 0.03568 0.64974 0.0
C128 C 0.67991 0.05913 0.58518 0.0
C129 C 0.75178 0.13441 0.5705 0.0
O130 O 0.76151 0.12185 0.57959 0.0
O131 O 0.73209 0.12953 0.58777 0.0
C132 C 0.20708 0.38038 0.12975 0.0
C133 C 0.23153 0.39587 0.12187 0.0
C134 C 0.19477 0.38662 0.15736 0.0
C135 C 0.2073 0.40871 0.17795 0.0
C136 C 0.23204 0.42431 0.17043 0.0
C137 C 0.24382 0.41777 0.14226 0.0
C138 C 0.16832 0.36965 0.16426 0.0
C139 C 0.24607 0.44788 0.1922 0.0
C140 C 0.17188 0.4357 0.22254 0.0
C141 C 0.17003 0.42869 0.26239 0.0
C142 C 0.18384 0.42919 0.1947 0.0
C143 C 0.19447 0.41561 0.20712 0.0
C144 C 0.19282 0.40861 0.24736 0.0
C145 C 0.18048 0.41511 0.27448 0.0
C146 C 0.185 0.43675 0.15194 0.0
C147 C 0.20418 0.39436 0.26179 0.0
H148 H 0.19746 0.36346 0.11399 0.0
H149 H 0.26275 0.42976 0.13647 0.0
H150 H 0.16508 0.36419 0.19591 0.0
H151 H 0.15803 0.37887 0.1576 0.0
H152 H 0.16117 0.35324 0.14563 0.0
H153 H 0.26531 0.45773 0.18351 0.0
H154 H 0.23822 0.45948 0.18611 0.0
H155 H 0.24488 0.44465 0.2247 0.0
H156 H 0.16375 0.44611 0.21296 0.0
H157 H 0.17921 0.40972 0.30528 0.0
H158 H 0.17683 0.42069 0.13245 0.0
H159 H 0.204 0.44807 0.14263 0.0
H160 H 0.17553 0.447 0.14701 0.0
H161 H 0.19641 0.37702 0.24568 0.0
H162 H 0.20155 0.39062 0.29415 0.0
H163 H 0.22374 0.40431 0.25544 0.0
C164 C 0.78653 0.16258 0.52824 0.0
C165 C 0.76266 0.1536 0.54027 0.0
C166 C 0.79689 0.18042 0.49894 0.0
C167 C 0.78289 0.18915 0.4808 0.0
C168 C 0.75879 0.18015 0.49283 0.0
C169 C 0.74902 0.16262 0.52268 0.0
C170 C 0.82278 0.18988 0.48733 0.0
C171 C 0.7432 0.18876 0.47373 0.0
C172 C 0.81421 0.24935 0.42791 0.0
C173 C 0.81334 0.24234 0.38825 0.0
C174 C 0.80455 0.23223 0.4584 0.0
C175 C 0.79339 0.20751 0.44888 0.0
C176 C 0.79224 0.20032 0.40884 0.0
C177 C 0.80242 0.21783 0.37903 0.0
C178 C 0.80643 0.24059 0.50082 0.0
C179 C 0.78015 0.17411 0.39748 0.0
H180 H 0.79719 0.15575 0.54187 0.0
H181 H 0.73051 0.15563 0.53169 0.0
H182 H 0.82388 0.18606 0.45553 0.0
H183 H 0.83316 0.20967 0.49112 0.0
H184 H 0.83143 0.18179 0.50524 0.0
H185 H 0.72479 0.17991 0.48644 0.0
H186 H 0.75146 0.20846 0.47757 0.0
H187 H 0.74184 0.18514 0.44135 0.0
H188 H 0.82276 0.26827 0.43524 0.0
H189 H 0.80158 0.21231 0.34839 0.0
H190 H 0.8161 0.23371 0.51895 0.0
H191 H 0.78823 0.23327 0.51379 0.0
H192 H 0.81601 0.26048 0.50329 0.0
H193 H 0.78925 0.16542 0.41231 0.0
H194 H 0.78038 0.1715 0.36492 0.0
H195 H 0.76121 0.16471 0.40776 0.0
C196 C 0.59153 0.7765 0.65569 0.0
C197 C 0.57559 0.75229 0.66448 0.0
C198 C 0.58703 0.78793 0.62414 0.0
C199 C 0.56627 0.77473 0.60046 0.0
C200 C 0.55013 0.75027 0.60913 0.0
C201 C 0.55489 0.73939 0.64125 0.0
C202 C 0.60449 0.81414 0.61613 0.0
C203 C 0.52797 0.73556 0.58422 0.0
C204 C 0.54464 0.81006 0.53998 0.0
C205 C 0.55513 0.8113 0.5029 0.0
C206 C 0.54789 0.79796 0.57192 0.0
C207 C 0.56163 0.78654 0.56642 0.0
C208 C 0.57164 0.78711 0.52873 0.0
C209 C 0.56842 0.79965 0.49748 0.0
C210 C 0.53718 0.79798 0.61182 0.0
C211 C 0.58609 0.77482 0.52158 0.0
H212 H 0.60749 0.7866 0.67366 0.0
H213 H 0.54256 0.72063 0.64779 0.0
H214 H 0.61221 0.81631 0.58594 0.0
H215 H 0.59498 0.82454 0.61708 0.0
H216 H 0.61945 0.82199 0.63794 0.0
H217 H 0.51726 0.71673 0.59485 0.0
H218 H 0.5164 0.7438 0.58458 0.0
H219 H 0.53321 0.73535 0.5529 0.0
H220 H 0.53444 0.81912 0.54442 0.0
H221 H 0.57646 0.80044 0.46882 0.0
H222 H 0.55174 0.80722 0.634 0.0
H223 H 0.52553 0.7793 0.62235 0.0
H224 H 0.52639 0.80711 0.61088 0.0
H225 H 0.60254 0.78328 0.54016 0.0
H226 H 0.59149 0.77579 0.49001 0.0
H227 H 0.57553 0.75566 0.53043 0.0
C228 C 0.75351 0.5504 0.7045 0.0
C229 C 0.73083 0.5398 0.72254 0.0
C230 C 0.77447 0.55888 0.72735 0.0
C231 C 0.77268 0.55705 0.76922 0.0
C232 C 0.74981 0.54609 0.78756 0.0
C233 C 0.72914 0.53743 0.76397 0.0
C234 C 0.79854 0.57011 0.70673 0.0
C235 C 0.74719 0.54407 0.83217 0.0
C236 C 0.82451 0.56243 0.83114 0.0
C237 C 0.83555 0.58644 0.84359 0.0
C238 C 0.80431 0.55274 0.80622 0.0
C239 C 0.79473 0.56731 0.79403 0.0
C240 C 0.80588 0.59159 0.80634 0.0
C241 C 0.82627 0.60091 0.83073 0.0
C242 C 0.79311 0.52687 0.79318 0.0
C243 C 0.796 0.6076 0.79435 0.0
H244 H 0.75492 0.55216 0.67247 0.0
H245 H 0.71167 0.52935 0.77811 0.0
H246 H 0.80943 0.5893 0.71525 0.0
H247 H 0.80862 0.56113 0.71625 0.0
H248 H 0.79676 0.56897 0.67389 0.0
H249 H 0.72809 0.53464 0.84173 0.0
H250 H 0.75591 0.53425 0.84412 0.0
H251 H 0.7564 0.56226 0.84562 0.0
H252 H 0.83169 0.5512 0.84079 0.0
H253 H 0.83467 0.61946 0.84038 0.0
H254 H 0.79212 0.52574 0.76031 0.0
H255 H 0.77445 0.51647 0.80456 0.0
H256 H 0.80334 0.51826 0.80389 0.0
H257 H 0.79541 0.60857 0.76153 0.0
H258 H 0.80688 0.62612 0.80621 0.0
H259 H 0.7773 0.59991 0.80531 0.0
C260 C 0.265 0.82573 0.02288 0.0
C261 C 0.25006 0.83464 0.03505 0.0
C262 C 0.25642 0.80575 0.9976 0.0
C263 C 0.23227 0.79428 0.98454 0.0
C264 C 0.21706 0.80307 0.99697 0.0
C265 C 0.22617 0.82321 0.02192 0.0
C266 C 0.27323 0.79701 0.98467 0.0
C267 C 0.19113 0.79118 0.98393 0.0
C268 C 0.21313 0.75597 0.8913 0.0
C269 C 0.20212 0.7327 0.90716 0.0
C270 C 0.2236 0.77621 0.91612 0.0
C271 C 0.22282 0.77308 0.95779 0.0
C272 C 0.21217 0.74966 0.97395 0.0
C273 C 0.20204 0.72974 0.94842 0.0
C274 C 0.23504 0.80094 0.89778 0.0
C275 C 0.21087 0.7456 0.01825 0.0
H276 H 0.28352 0.83453 0.03279 0.0
H277 H 0.21449 0.82994 0.03129 0.0
H278 H 0.26597 0.77807 0.99391 0.0
H279 H 0.27464 0.79752 0.95182 0.0
H280 H 0.29153 0.80798 0.99735 0.0
H281 H 0.18158 0.80002 0.99671 0.0
H282 H 0.19012 0.79162 0.9511 0.0
H283 H 0.18155 0.77203 0.99302 0.0
H284 H 0.21335 0.7584 0.85943 0.0
H285 H 0.19352 0.71182 0.96092 0.0
H286 H 0.25373 0.81208 0.90868 0.0
H287 H 0.22499 0.81004 0.90682 0.0
H288 H 0.23535 0.80033 0.86484 0.0
H289 H 0.2291 0.75557 0.03144 0.0
H290 H 0.20278 0.7263 0.02601 0.0
H291 H 0.19996 0.75264 0.03211 0.0
C292 C 0.41264 0.19274 0.96619 0.0
C293 C 0.42764 0.18314 0.95898 0.0
C294 C 0.41581 0.20683 -8e-05 0.0
C295 C 0.43425 0.21117 0.02733 0.0
C296 C 0.44965 0.20179 0.01997 0.0
C297 C 0.44625 0.18799 0.98574 0.0
C298 C 0.39921 0.21677 0.00653 0.0
C299 C 0.46936 0.20587 0.04872 0.0
C300 C 0.45347 0.26312 0.09922 0.0
C301 C 0.43981 0.25139 0.13294 0.0
C302 C 0.45211 0.25022 0.06477 0.0
C303 C 0.43692 0.22498 0.06422 0.0
C304 C 0.42361 0.21297 0.09853 0.0
C305 C 0.42511 0.22634 0.13242 0.0
C306 C 0.46642 0.26366 0.02863 0.0
C307 C 0.40744 0.18603 0.09923 0.0
H308 H 0.39829 0.18915 0.94555 0.0
H309 H 0.45785 0.18054 0.98043 0.0
H310 H 0.38873 0.20917 0.03417 0.0
H311 H 0.40981 0.23654 0.01036 0.0
H312 H 0.38645 0.21262 0.98153 0.0
H313 H 0.48021 0.1979 0.03812 0.0
H314 H 0.4815 0.22538 0.05352 0.0
H315 H 0.46143 0.19786 0.07793 0.0
H316 H 0.46482 0.28249 0.09937 0.0
H317 H 0.41459 0.21715 0.15844 0.0
H318 H 0.45404 0.2612 0.00383 0.0
H319 H 0.47794 0.25634 0.01871 0.0
H320 H 0.47801 0.2832 0.03434 0.0
H321 H 0.39281 0.18062 0.07716 0.0
H322 H 0.39924 0.17933 0.12888 0.0
H323 H 0.41773 0.17709 0.09075 0.0
C324 C 0.33547 0.35771 0.08666 0.0
C325 C 0.33411 0.37796 0.09775 0.0
C326 C 0.35157 0.3522 0.1055 0.0
C327 C 0.36599 0.36685 0.13712 0.0
C328 C 0.36457 0.3873 0.14854 0.0
C329 C 0.34884 0.3928 0.12829 0.0
C330 C 0.35305 0.33063 0.0917 0.0
C331 C 0.37911 0.40292 0.18285 0.0
C332 C 0.38691 0.33471 0.20675 0.0
C333 C 0.41065 0.34364 0.19426 0.0
C334 C 0.37258 0.34316 0.1899 0.0
C335 C 0.38199 0.36024 0.1588 0.0
C336 C 0.40616 0.36969 0.1467 0.0
C337 C 0.42033 0.36149 0.16502 0.0
C338 C 0.34714 0.33323 0.20452 0.0
C339 C 0.41664 0.38742 0.11292 0.0
H340 H 0.3241 0.34631 0.06291 0.0
H341 H 0.34745 0.40825 0.13722 0.0
H342 H 0.37195 0.33597 0.08474 0.0
H343 H 0.34697 0.31704 0.11573 0.0
H344 H 0.34186 0.32211 0.06497 0.0
H345 H 0.37626 0.41842 0.18749 0.0
H346 H 0.37411 0.39208 0.21047 0.0
H347 H 0.39853 0.40982 0.17776 0.0
H348 H 0.37949 0.32092 0.22946 0.0
H349 H 0.43858 0.36806 0.15491 0.0
H350 H 0.33434 0.32188 0.18113 0.0
H351 H 0.34356 0.34808 0.21092 0.0
H352 H 0.34349 0.32219 0.23175 0.0
H353 H 0.40715 0.37869 0.08496 0.0
H354 H 0.43613 0.39415 0.1088 0.0
H355 H 0.41398 0.40296 0.11811 0.0
C356 C 0.93961 0.34993 0.28463 0.0
C357 C 0.92453 0.35482 0.30788 0.0
C358 C 0.96467 0.36372 0.28859 0.0
C359 C 0.97469 0.38212 0.31761 0.0
C360 C 0.95943 0.38689 0.34147 0.0
C361 C 0.93449 0.37341 0.33583 0.0
C362 C 0.9804 0.35866 0.26168 0.0
C363 C 0.96938 0.40582 0.37358 0.0
C364 C 0.0375 0.40008 0.35319 0.0
C365 C 0.05127 0.42223 0.33428 0.0
C366 C 0.01245 0.38709 0.34877 0.0
C367 C 0.00113 0.39607 0.32354 0.0
C368 C 0.01508 0.41834 0.30394 0.0
C369 C 0.04 0.43138 0.31014 0.0
C370 C 0.99809 0.36385 0.37127 0.0
C371 C 0.00376 0.42811 0.2758 0.0
H372 H 0.93178 0.33558 0.26291 0.0
H373 H 0.9227 0.37691 0.35411 0.0
H374 H 0.99358 0.37537 0.24626 0.0
H375 H 0.99076 0.35244 0.27948 0.0
H376 H 0.96983 0.34477 0.23904 0.0
H377 H 0.95502 0.40701 0.38997 0.0
H378 H 0.97991 0.40171 0.39506 0.0
H379 H 0.98178 0.42365 0.36054 0.0
H380 H 0.04632 0.39313 0.37198 0.0
H381 H 0.0508 0.4484 0.29515 0.0
H382 H 0.98886 0.34869 0.35017 0.0
H383 H 0.98399 0.36456 0.38926 0.0
H384 H 0.0095 0.36004 0.39131 0.0
H385 H 0.99413 0.4149 0.25181 0.0
H386 H 0.01723 0.44538 0.2621 0.0
H387 H 0.99029 0.43097 0.2917 0.0
C388 C 0.57259 0.94376 0.47773 0.0
C389 C 0.58293 0.93547 0.44986 0.0
C390 C 0.58691 0.96476 0.49964 0.0
C391 C 0.61195 0.97811 0.49235 0.0
C392 C 0.62213 0.97057 0.46226 0.0
C393 C 0.60755 0.94902 0.44198 0.0
C394 C 0.5755 0.97175 0.5323 0.0
C395 C 0.64859 0.98477 0.45254 0.0
C396 C 0.64876 0.04167 0.53238 0.0
C397 C 0.66106 0.03828 0.56372 0.0
C398 C 0.63249 0.02222 0.50896 0.0
C399 C 0.62788 0.9988 0.51815 0.0
C400 C 0.63951 0.99524 0.55102 0.0
C401 C 0.65637 0.01512 0.5729 0.0
C402 C 0.62113 0.02687 0.47338 0.0
C403 C 0.63446 0.97046 0.56267 0.0
H404 H 0.55356 0.933 0.48417 0.0
H405 H 0.61547 0.94253 0.42035 0.0
H406 H 0.58216 0.96953 0.56148 0.0
H407 H 0.58062 0.99091 0.52962 0.0
H408 H 0.55559 0.96063 0.53206 0.0
H409 H 0.65303 0.9782 0.42511 0.0
H410 H 0.65438 0.00405 0.44869 0.0
H411 H 0.65914 0.98342 0.47743 0.0
H412 H 0.65269 0.0597 0.52509 0.0
H413 H 0.66588 0.01259 0.5973 0.0
H414 H 0.60131 0.01539 0.47452 0.0
H415 H 0.6273 0.0221 0.44587 0.0
H416 H 0.62574 0.04595 0.47137 0.0
H417 H 0.61481 0.95808 0.56536 0.0
H418 H 0.64312 0.97053 0.59123 0.0
H419 H 0.64118 0.96316 0.53929 0.0
C420 C 0.60532 0.65242 0.69045 0.0
C421 C 0.59752 0.6506 0.72984 0.0
C422 C 0.6113 0.63587 0.67475 0.0
C423 C 0.60953 0.61713 0.69911 0.0
C424 C 0.60156 0.61515 0.73886 0.0
C425 C 0.59584 0.63204 0.75383 0.0
C426 C 0.61982 0.63863 0.63229 0.0
C427 C 0.5996 0.5955 0.76587 0.0
C428 C 0.60761 0.56232 0.65258 0.0
C429 C 0.63134 0.56747 0.65801 0.0
C430 C 0.60031 0.57852 0.66515 0.0
C431 C 0.61714 0.60029 0.6837 0.0
C432 C 0.6412 0.60573 0.68868 0.0
C433 C 0.64796 0.5892 0.67593 0.0
C434 C 0.57446 0.57204 0.65962 0.0
C435 C 0.65972 0.62881 0.70812 0.0
H436 H 0.60672 0.66681 0.67183 0.0
H437 H 0.59081 0.63112 0.7847 0.0
H438 H 0.63848 0.6419 0.63152 0.0
H439 H 0.60844 0.62182 0.61555 0.0
H440 H 0.61941 0.65369 0.61688 0.0
H441 H 0.59166 0.59554 0.79515 0.0
H442 H 0.58837 0.57769 0.75179 0.0
H443 H 0.61768 0.59777 0.77082 0.0
H444 H 0.5945 0.54523 0.63998 0.0
H445 H 0.66633 0.59324 0.68024 0.0
H446 H 0.57352 0.58663 0.64364 0.0
H447 H 0.56589 0.57007 0.68904 0.0
H448 H 0.56393 0.55504 0.64281 0.0
H449 H 0.6608 0.64445 0.69229 0.0
H450 H 0.67787 0.6307 0.70844 0.0
H451 H 0.65433 0.62948 0.73916 0.0
C452 C 0.96967 0.61781 0.8503 0.0
C453 C 0.9634 0.61113 0.89005 0.0
C454 C 0.99171 0.62186 0.83504 0.0
C455 C 0.00788 0.61927 0.86024 0.0
C456 C 0.00145 0.61213 0.90022 0.0
C457 C 0.97938 0.60835 0.91471 0.0
C458 C 0.99798 0.62954 0.79232 0.0
C459 C 0.01826 0.6093 0.92813 0.0
C460 C 0.0602 0.61432 0.81845 0.0
C461 C 0.07937 0.63767 0.82452 0.0
C462 C 0.03663 0.60816 0.82889 0.0
C463 C 0.03226 0.62577 0.84585 0.0
C464 C 0.0515 0.64952 0.85104 0.0
C465 C 0.07481 0.65513 0.84049 0.0
C466 C 0.01657 0.58263 0.82317 0.0
C467 C 0.04758 0.66887 0.86878 0.0
H468 H 0.95738 0.62007 0.83116 0.0
H469 H 0.97514 0.60422 0.9458 0.0
H470 H 0.01362 0.64804 0.79111 0.0
H471 H 0.00323 0.61764 0.77683 0.0
H472 H 0.98282 0.62922 0.77596 0.0
H473 H 0.00975 0.6017 0.95727 0.0
H474 H 0.02427 0.59742 0.91477 0.0
H475 H 0.03451 0.62704 0.93328 0.0
H476 H 0.06371 0.6006 0.80726 0.0
H477 H 0.08961 0.67321 0.8452 0.0
H478 H 0.00147 0.58231 0.80674 0.0
H479 H 0.00955 0.57421 0.85254 0.0
H480 H 0.02259 0.57158 0.80675 0.0
H481 H 0.03352 0.6703 0.85196 0.0
H482 H 0.06423 0.68672 0.86884 0.0
H483 H 0.04115 0.66411 0.89981 0.0
C484 C 0.37506 0.04348 0.90728 0.0
C485 C 0.39859 0.0619 0.9144 0.0
C486 C 0.36465 0.02256 0.93046 0.0
C487 C 0.37778 0.02057 0.96259 0.0
C488 C 0.40181 0.03893 0.96922 0.0
C489 C 0.41209 0.05924 0.94452 0.0
C490 C 0.3393 0.00299 0.92149 0.0
C491 C 0.41613 0.03789 0.00391 0.0
C492 C 0.3381 0.9817 0.04654 0.0
C493 C 0.33926 0.96072 0.04159 0.0
C494 C 0.35152 0.00174 0.02218 0.0
C495 C 0.36559 0.0003 0.99107 0.0
C496 C 0.36695 0.97914 0.98621 0.0
C497 C 0.35407 0.9597 0.01209 0.0
C498 C 0.35027 0.02428 0.02929 0.0
C499 C 0.38106 0.97661 0.95259 0.0
H500 H 0.36469 0.04561 0.88389 0.0
H501 H 0.43019 0.07373 0.95032 0.0
H502 H 0.3382 0.98521 0.92093 0.0
H503 H 0.32704 0.00242 0.94518 0.0
H504 H 0.33279 0.00587 0.8926 0.0
H505 H 0.43515 0.05262 0.00307 0.0
H506 H 0.40791 0.03929 0.03202 0.0
H507 H 0.41574 0.02046 0.00448 0.0
H508 H 0.32667 0.98242 0.06954 0.0
H509 H 0.35467 0.94327 0.00809 0.0
H510 H 0.34095 0.02726 0.00413 0.0
H511 H 0.36864 0.04011 0.03097 0.0
H512 H 0.34052 0.02329 0.05709 0.0
H513 H 0.37305 0.97737 0.92383 0.0
H514 H 0.38125 0.95944 0.95407 0.0
H515 H 0.39986 0.9917 0.95286 0.0
C516 C 0.43533 0.50102 0.01494 0.0
C517 C 0.42772 0.47674 0.00792 0.0
C518 C 0.45421 0.51924 0.993 0.0
C519 C 0.46575 0.51304 0.96333 0.0
C520 C 0.45881 0.48864 0.95718 0.0
C521 C 0.43988 0.47078 0.97956 0.0
C522 C 0.46118 0.54507 0.00054 0.0
C523 C 0.47077 0.48134 0.92592 0.0
C524 C 0.4936 0.55682 0.8778 0.0
C525 C 0.51798 0.56924 0.88831 0.0
C526 C 0.47651 0.53829 0.90172 0.0
C527 C 0.48396 0.53197 0.93702 0.0
C528 C 0.50858 0.5441 0.94746 0.0
C529 C 0.52531 0.56261 0.92298 0.0
C530 C 0.45041 0.52574 0.88952 0.0
C531 C 0.51718 0.53777 0.98481 0.0
H532 H 0.42613 0.50581 0.03691 0.0
H533 H 0.43421 0.45209 0.97403 0.0
H534 H 0.48079 0.55609 0.00583 0.0
H535 H 0.457 0.55251 0.97396 0.0
H536 H 0.45157 0.547 0.02644 0.0
H537 H 0.46457 0.46183 0.92694 0.0
H538 H 0.46679 0.48574 0.89604 0.0
H539 H 0.49056 0.49153 0.92974 0.0
H540 H 0.48775 0.56177 0.85105 0.0
H541 H 0.54412 0.57207 0.93131 0.0
H542 H 0.43966 0.52848 0.91253 0.0
H543 H 0.44331 0.50613 0.88707 0.0
H544 H 0.44766 0.5324 0.86068 0.0
H545 H 0.50896 0.5412 0.01115 0.0
H546 H 0.53703 0.54829 0.98795 0.0
H547 H 0.51141 0.51838 0.98491 0.0
C548 C 0.97219 0.54327 0.09583 0.0
C549 C 0.95694 0.53502 0.06267 0.0
C550 C 0.97092 0.52729 0.12543 0.0
C551 C 0.95399 0.50251 0.12178 0.0
C552 C 0.93906 0.49401 0.08782 0.0
C553 C 0.94073 0.51035 0.05869 0.0
C554 C 0.98721 0.53699 0.16113 0.0
C555 C 0.92081 0.4677 0.08278 0.0
C556 C 0.95877 0.45518 0.18213 0.0
C557 C 0.94127 0.44972 0.21145 0.0
C558 C 0.96375 0.47295 0.1535 0.0
C559 C 0.95093 0.48553 0.15424 0.0
C560 C 0.93396 0.48079 0.18472 0.0
C561 C 0.92936 0.46297 0.21297 0.0
C562 C 0.98207 0.4776 0.12158 0.0
C563 C 0.91997 0.4939 0.18661 0.0
H564 H 0.98483 0.56229 0.0991 0.0
H565 H 0.92894 0.50378 0.03312 0.0
H566 H 0.97631 0.53423 0.18821 0.0
H567 H 0.99708 0.52711 0.16547 0.0
H568 H 0.00046 0.55645 0.15827 0.0
H569 H 0.91132 0.46385 0.05383 0.0
H570 H 0.92971 0.45676 0.08504 0.0
H571 H 0.90728 0.46181 0.10691 0.0
H572 H 0.96816 0.44512 0.18083 0.0
H573 H 0.91589 0.45898 0.23561 0.0
H574 H 0.99525 0.49708 0.11952 0.0
H575 H 0.97295 0.47188 0.09238 0.0
H576 H 0.99193 0.46779 0.12709 0.0
H577 H 0.9324 0.51359 0.18626 0.0
H578 H 0.90855 0.48921 0.21359 0.0
H579 H 0.90824 0.48937 0.1601 0.0
C580 C 0.48309 0.94768 0.32004 0.0
C581 C 0.50762 0.95636 0.31333 0.0
C582 C 0.46877 0.95028 0.29128 0.0
C583 C 0.47924 0.96197 0.25501 0.0
C584 C 0.50416 0.97161 0.24868 0.0
C585 C 0.51805 0.96864 0.27788 0.0
C586 C 0.44225 0.93975 0.29915 0.0
C587 C 0.516 0.98439 0.21054 0.0
C588 C 0.43687 0.94384 0.16697 0.0
C589 C 0.43125 0.96229 0.16605 0.0
C590 C 0.45293 0.94386 0.19517 0.0
C591 C 0.46378 0.96286 0.22297 0.0
C592 C 0.45891 0.98201 0.22126 0.0
C593 C 0.44264 0.98146 0.19288 0.0
C594 C 0.45765 0.92309 0.19605 0.0
C595 C 0.47033 0.0027 0.25015 0.0
H596 H 0.47488 0.93821 0.34736 0.0
H597 H 0.537 0.97552 0.2725 0.0
H598 H 0.43703 0.95365 0.29508 0.0
H599 H 0.43176 0.92519 0.27751 0.0
H600 H 0.43712 0.93226 0.32961 0.0
H601 H 0.53584 0.99247 0.21148 0.0
H602 H 0.50892 0.97153 0.18542 0.0
H603 H 0.51172 0.99877 0.20432 0.0
H604 H 0.42819 0.92897 0.14635 0.0
H605 H 0.43851 0.99586 0.19228 0.0
H606 H 0.45114 0.91324 0.22452 0.0
H607 H 0.47723 0.92982 0.19436 0.0
H608 H 0.44865 0.91028 0.17127 0.0
H609 H 0.4639 0.99612 0.28064 0.0
H610 H 0.46609 0.01704 0.24301 0.0
H611 H 0.49013 0.01063 0.2502 0.0
C612 C 0.56361 0.5302 0.42813 0.0
C613 C 0.56172 0.51751 0.46312 0.0
C614 C 0.54995 0.51832 0.39438 0.0
C615 C 0.5342 0.49318 0.39563 0.0
C616 C 0.53166 0.48044 0.43125 0.0
C617 C 0.54536 0.49276 0.46454 0.0
C618 C 0.55292 0.53253 0.35706 0.0
C619 C 0.51508 0.45359 0.4338 0.0
C620 C 0.48448 0.4586 0.3208 0.0
C621 C 0.49466 0.44798 0.29729 0.0
C622 C 0.4976 0.47449 0.35165 0.0
C623 C 0.52139 0.47973 0.35928 0.0
C624 C 0.53219 0.4701 0.33427 0.0
C625 C 0.51874 0.45443 0.3035 0.0
C626 C 0.48559 0.48468 0.37732 0.0
C627 C 0.55752 0.47524 0.34142 0.0
H628 H 0.57611 0.54935 0.42681 0.0
H629 H 0.54369 0.48279 0.49144 0.0
H630 H 0.56149 0.5272 0.33368 0.0
H631 H 0.53512 0.52857 0.34561 0.0
H632 H 0.56415 0.55219 0.362 0.0
H633 H 0.5144 0.44653 0.46415 0.0
H634 H 0.49661 0.44884 0.4249 0.0
H635 H 0.52121 0.4444 0.41293 0.0
H636 H 0.46595 0.45388 0.31603 0.0
H637 H 0.52683 0.44645 0.28536 0.0
H638 H 0.49755 0.50429 0.38141 0.0
H639 H 0.48202 0.47627 0.40715 0.0
H640 H 0.46829 0.48141 0.3645 0.0
H641 H 0.57002 0.49485 0.34388 0.0
H642 H 0.56397 0.46803 0.31738 0.0
H643 H 0.55829 0.467 0.36993 0.0
C644 C 0.06345 0.55391 0.62795 0.0
C645 C 0.05265 0.56801 0.63352 0.0
C646 C 0.05971 0.54061 0.59306 0.0
C647 C 0.0447 0.54129 0.56296 0.0
C648 C 0.03314 0.55488 0.56882 0.0
C649 C 0.0373 0.56814 0.60403 0.0
C650 C 0.07239 0.52635 0.58797 0.0
C651 C 0.01687 0.55587 0.53751 0.0
C652 C 0.05879 0.52759 0.46025 0.0
C653 C 0.04224 0.50296 0.45675 0.0
C654 C 0.05903 0.54056 0.4939 0.0
C655 C 0.04222 0.52866 0.52473 0.0
C656 C 0.02457 0.50416 0.52035 0.0
C657 C 0.02482 0.49157 0.48643 0.0
C658 C 0.07813 0.56669 0.4974 0.0
C659 C 0.00619 0.49092 0.55238 0.0
H660 H 0.07528 0.55361 0.65058 0.0
H661 H 0.02881 0.5789 0.60812 0.0
H662 H 0.05916 0.5073 0.58141 0.0
H663 H 0.08491 0.53347 0.56239 0.0
H664 H 0.08278 0.52702 0.61477 0.0
H665 H 0.00789 0.56584 0.54776 0.0
H666 H 0.02745 0.56477 0.51047 0.0
H667 H 0.0029 0.53744 0.52888 0.0
H668 H 0.07223 0.5366 0.43739 0.0
H669 H 0.01184 0.47259 0.48386 0.0
H670 H 0.0908 0.56885 0.52155 0.0
H671 H 0.06992 0.57774 0.50532 0.0
H672 H 0.08852 0.5738 0.46948 0.0
H673 H 0.01522 0.48877 0.57883 0.0
H674 H 0.99202 0.47283 0.54248 0.0
H675 H 0.99754 0.50134 0.56175 0.0
C676 C 0.56138 0.03233 0.69256 0.0
C677 C 0.57543 0.05167 0.6672 0.0
C678 C 0.54343 0.03224 0.71645 0.0
C679 C 0.5395 0.052 0.71503 0.0
C680 C 0.55323 0.07132 0.68884 0.0
C681 C 0.57099 0.0709 0.66518 0.0
C682 C 0.52903 0.01124 0.74381 0.0
C683 C 0.54955 0.09271 0.68647 0.0
C684 C 0.48122 0.04605 0.75351 0.0
C685 C 0.48823 0.05718 0.79079 0.0
C686 C 0.49757 0.04377 0.72886 0.0
C687 C 0.52153 0.05288 0.74176 0.0
C688 C 0.52858 0.06361 0.77974 0.0
C689 C 0.51184 0.06559 0.80383 0.0
C690 C 0.48936 0.03209 0.68866 0.0
C691 C 0.55399 0.07353 0.79454 0.0
H692 H 0.56461 0.01735 0.69423 0.0
H693 H 0.58173 0.08592 0.64567 0.0
H694 H 0.53246 0.01739 0.77512 0.0
H695 H 0.50954 0.00362 0.73829 0.0
H696 H 0.53352 0.99676 0.74004 0.0
H697 H 0.56118 0.10591 0.66368 0.0
H698 H 0.53053 0.08674 0.67937 0.0
H699 H 0.55354 0.10189 0.71568 0.0
H700 H 0.463 0.03942 0.74322 0.0
H701 H 0.51742 0.07419 0.83259 0.0
H702 H 0.49328 0.01722 0.68535 0.0
H703 H 0.49939 0.04537 0.66499 0.0
H704 H 0.46983 0.02484 0.68388 0.0
H705 H 0.55905 0.05939 0.79367 0.0
H706 H 0.55637 0.08054 0.82534 0.0
H707 H 0.56662 0.0883 0.77482 0.0
loop_
_geom_bond_atom_site_label_1
_geom_bond_atom_site_label_2
_geom_bond_distance
_geom_bond_site_symmetry_2
_ccdc_geom_bond_type
O0 Cd1 2.300 . S
O0 C7 1.275 . S
Cd1 O0 2.300 . S
Cd1 O9 2.381 . S
Cd1 O10 2.378 . S
O2 Cd3 2.385 . S
O2 C7 1.255 . S
Cd3 O2 2.385 . S
Cd3 O4 2.317 . S
O4 Cd3 2.317 . S
O4 C5 1.232 . S
C5 O4 1.232 . S
C5 O6 1.218 . S
O6 C5 1.218 . S
C7 O0 1.275 . S
C7 O2 1.255 . S
C8 O9 1.258 . S
C8 O10 1.256 . S
O9 Cd1 2.381 . S
O9 C8 1.258 . S
O10 Cd1 2.378 . S
O10 C8 1.256 . S
O11 Cd12 2.300 . S
O11 C18 1.275 . S
Cd12 O11 2.300 . S
Cd12 O20 2.381 . S
Cd12 O21 2.378 . S
O13 Cd14 2.385 . S
O13 C18 1.255 . S
Cd14 O13 2.385 . S
Cd14 O15 2.317 . S
O15 Cd14 2.317 . S
O15 C16 1.232 . S
C16 O15 1.232 . S
C16 O17 1.218 . S
O17 C16 1.218 . S
C18 O11 1.275 . S
C18 O13 1.255 . S
C19 O20 1.258 . S
C19 O21 1.256 . S
O20 Cd12 2.381 . S
O20 C19 1.258 . S
O21 Cd12 2.378 . S
O21 C19 1.256 . S
O22 Cd23 2.300 . S
O22 C29 1.275 . S
Cd23 O22 2.300 . S
Cd23 O31 2.381 . S
Cd23 O32 2.378 . S
O24 Cd25 2.385 . S
O24 C29 1.255 . S
Cd25 O24 2.385 . S
Cd25 O26 2.317 . S
O26 Cd25 2.317 . S
O26 C27 1.232 . S
C27 O26 1.232 . S
C27 O28 1.218 . S
O28 C27 1.218 . S
C29 O22 1.275 . S
C29 O24 1.255 . S
C30 O31 1.258 . S
C30 O32 1.256 . S
O31 Cd23 2.381 . S
O31 C30 1.258 . S
O32 Cd23 2.378 . S
O32 C30 1.256 . S
O33 Cd34 2.300 . S
O33 C40 1.275 . S
Cd34 O33 2.300 . S
Cd34 O42 2.381 . S
Cd34 O43 2.378 . S
O35 Cd36 2.385 . S
O35 C40 1.255 . S
Cd36 O35 2.385 . S
Cd36 O37 2.317 . S
O37 Cd36 2.317 . S
O37 C38 1.232 . S
C38 O37 1.232 . S
C38 O39 1.218 . S
O39 C38 1.218 . S
C40 O33 1.275 . S
C40 O35 1.255 . S
C41 O42 1.258 . S
C41 O43 1.256 . S
O42 Cd34 2.381 . S
O42 C41 1.258 . S
O43 Cd34 2.378 . S
O43 C41 1.256 . S
O44 Cd45 2.300 . S
O44 C51 1.275 . S
Cd45 O44 2.300 . S
Cd45 O53 2.381 . S
Cd45 O54 2.378 . S
O46 Cd47 2.385 . S
O46 C51 1.255 . S
Cd47 O46 2.385 . S
Cd47 O48 2.317 . S
O48 Cd47 2.317 . S
O48 C49 1.232 . S
C49 O48 1.232 . S
C49 O50 1.218 . S
O50 C49 1.218 . S
C51 O44 1.275 . S
C51 O46 1.255 . S
C52 O53 1.258 . S
C52 O54 1.256 . S
O53 Cd45 2.381 . S
O53 C52 1.258 . S
O54 Cd45 2.378 . S
O54 C52 1.256 . S
O55 Cd56 2.300 . S
O55 C62 1.275 . S
Cd56 O55 2.300 . S
Cd56 O64 2.381 . S
Cd56 O65 2.378 . S
O57 Cd58 2.385 . S
O57 C62 1.255 . S
Cd58 O57 2.385 . S
Cd58 O59 2.317 . S
O59 Cd58 2.317 . S
O59 C60 1.232 . S
C60 O59 1.232 . S
C60 O61 1.218 . S
O61 C60 1.218 . S
C62 O55 1.275 . S
C62 O57 1.255 . S
C63 O64 1.258 1_554 S
C63 O65 1.256 1_554 S
O64 Cd56 2.381 . S
O64 C63 1.258 1_556 S
O65 Cd56 2.378 . S
O65 C63 1.256 1_556 S
O66 Cd67 2.300 . S
O66 C73 1.275 . S
Cd67 O66 2.300 . S
Cd67 O75 2.381 . S
Cd67 O76 2.378 . S
O68 Cd69 2.385 . S
O68 C73 1.255 . S
Cd69 O68 2.385 . S
Cd69 O70 2.317 . S
O70 Cd69 2.317 . S
O70 C71 1.232 . S
C71 O70 1.232 . S
C71 O72 1.218 . S
O72 C71 1.218 . S
C73 O66 1.275 . S
C73 O68 1.255 . S
C74 O75 1.258 . S
C74 O76 1.256 . S
O75 Cd67 2.381 . S
O75 C74 1.258 . S
O76 Cd67 2.378 . S
O76 C74 1.256 . S
O77 Cd78 2.300 . S
O77 C84 1.275 . S
Cd78 O77 2.300 . S
Cd78 O86 2.381 . S
Cd78 O87 2.378 . S
O79 Cd80 2.385 . S
O79 C84 1.255 . S
Cd80 O79 2.385 . S
Cd80 O81 2.317 . S
O81 Cd80 2.317 . S
O81 C82 1.232 . S
C82 O81 1.232 . S
C82 O83 1.218 . S
O83 C82 1.218 . S
C84 O77 1.275 . S
C84 O79 1.255 . S
C85 O86 1.258 . S
C85 O87 1.256 . S
O86 Cd78 2.381 . S
O86 C85 1.258 . S
O87 Cd78 2.378 . S
O87 C85 1.256 . S
O88 Cd89 2.300 . S
O88 C95 1.275 . S
Cd89 O88 2.300 . S
Cd89 O97 2.381 . S
Cd89 O98 2.378 . S
O90 Cd91 2.385 . S
O90 C95 1.255 . S
Cd91 O90 2.385 . S
Cd91 O92 2.317 . S
O92 Cd91 2.317 . S
O92 C93 1.232 . S
C93 O92 1.232 . S
C93 O94 1.218 . S
O94 C93 1.218 . S
C95 O88 1.275 . S
C95 O90 1.255 . S
C96 O97 1.258 1_556 S
C96 O98 1.256 1_556 S
O97 Cd89 2.381 . S
O97 C96 1.258 1_554 S
O98 Cd89 2.378 . S
O98 C96 1.256 1_554 S
O99 Cd100 2.300 . S
O99 C106 1.275 . S
Cd100 O99 2.300 . S
Cd100 O108 2.381 . S
Cd100 O109 2.378 . S
O101 Cd102 2.385 . S
O101 C106 1.255 . S
Cd102 O101 2.385 . S
Cd102 O103 2.317 . S
O103 Cd102 2.317 . S
O103 C104 1.232 . S
C104 O103 1.232 . S
C104 O105 1.218 . S
O105 C104 1.218 . S
C106 O99 1.275 . S
C106 O101 1.255 . S
C107 O108 1.258 . S
C107 O109 1.256 . S
O108 Cd100 2.381 . S
O108 C107 1.258 . S
O109 Cd100 2.378 . S
O109 C107 1.256 . S
O110 Cd111 2.300 . S
O110 C117 1.275 . S
Cd111 O110 2.300 . S
Cd111 O119 2.381 . S
Cd111 O120 2.378 . S
O112 Cd113 2.385 . S
O112 C117 1.255 . S
Cd113 O112 2.385 . S
Cd113 O114 2.317 . S
O114 Cd113 2.317 . S
O114 C115 1.232 . S
C115 O114 1.232 . S
C115 O116 1.218 . S
O116 C115 1.218 . S
C117 O110 1.275 . S
C117 O112 1.255 . S
C118 O119 1.258 . S
C118 O120 1.256 . S
O119 Cd111 2.381 . S
O119 C118 1.258 . S
O120 Cd111 2.378 . S
O120 C118 1.256 . S
O121 Cd122 2.300 . S
O121 C128 1.275 . S
Cd122 O121 2.300 . S
Cd122 O130 2.381 . S
Cd122 O131 2.378 . S
O123 Cd124 2.385 . S
O123 C128 1.255 . S
Cd124 O123 2.385 . S
Cd124 O125 2.317 . S
O125 Cd124 2.317 . S
O125 C126 1.232 . S
C126 O125 1.232 . S
C126 O127 1.218 . S
O127 C126 1.218 . S
C128 O121 1.275 . S
C128 O123 1.255 . S
C129 O130 1.258 . S
C129 O131 1.256 . S
O130 Cd122 2.381 . S
O130 C129 1.258 . S
O131 Cd122 2.378 . S
O131 C129 1.256 . S
C132 C133 1.391 . S
C132 C134 1.394 . S
C132 H148 0.931 . S
C133 C132 1.391 . S
C133 C137 1.376 . S
C134 C132 1.394 . S
C134 C135 1.369 . S
C134 C138 1.531 . S
C135 C134 1.369 . S
C135 C136 1.410 . S
C135 C143 1.503 . S
C136 C135 1.410 . S
C136 C137 1.392 . S
C136 C139 1.511 . S
C137 C133 1.376 . S
C137 C136 1.392 . S
C137 H149 0.929 . S
C138 C134 1.531 . S
C138 H150 0.960 . S
C138 H151 0.962 . S
C138 H152 0.960 . S
C139 C136 1.511 . S
C139 H153 0.961 . S
C139 H154 0.961 . S
C139 H155 0.961 . S
C140 C141 1.370 . S
C140 C142 1.363 . S
C140 H156 0.931 . S
C141 C140 1.370 . S
C141 C145 1.408 . S
C142 C140 1.363 . S
C142 C143 1.370 . S
C142 C146 1.524 . S
C143 C135 1.503 . S
C143 C142 1.370 . S
C143 C144 1.403 . S
C144 C143 1.403 . S
C144 C145 1.404 . S
C144 C147 1.539 . S
C145 C141 1.408 . S
C145 C144 1.404 . S
C145 H157 0.930 . S
C146 C142 1.524 . S
C146 H158 0.956 . S
C146 H159 0.961 . S
C146 H160 0.961 . S
C147 C144 1.539 . S
C147 H161 0.958 . S
C147 H162 0.961 . S
C147 H163 0.960 . S
H148 C132 0.931 . S
H149 C137 0.929 . S
H150 C138 0.960 . S
H151 C138 0.962 . S
H152 C138 0.960 . S
H153 C139 0.961 . S
H154 C139 0.961 . S
H155 C139 0.961 . S
H156 C140 0.931 . S
H157 C145 0.930 . S
H158 C146 0.956 . S
H159 C146 0.961 . S
H160 C146 0.961 . S
H161 C147 0.958 . S
H162 C147 0.961 . S
H163 C147 0.960 . S
C164 C165 1.391 . S
C164 C166 1.394 . S
C164 H180 0.931 . S
C165 C164 1.391 . S
C165 C169 1.376 . S
C166 C164 1.394 . S
C166 C167 1.369 . S
C166 C170 1.531 . S
C167 C166 1.369 . S
C167 C168 1.410 . S
C167 C175 1.503 . S
C168 C167 1.410 . S
C168 C169 1.392 . S
C168 C171 1.511 . S
C169 C165 1.376 . S
C169 C168 1.392 . S
C169 H181 0.929 . S
C170 C166 1.531 . S
C170 H182 0.960 . S
C170 H183 0.962 . S
C170 H184 0.960 . S
C171 C168 1.511 . S
C171 H185 0.961 . S
C171 H186 0.961 . S
C171 H187 0.961 . S
C172 C173 1.370 . S
C172 C174 1.363 . S
C172 H188 0.931 . S
C173 C172 1.370 . S
C173 C177 1.408 . S
C174 C172 1.363 . S
C174 C175 1.370 . S
C174 C178 1.524 . S
C175 C167 1.503 . S
C175 C174 1.370 . S
C175 C176 1.403 . S
C176 C175 1.403 . S
C176 C177 1.404 . S
C176 C179 1.539 . S
C177 C173 1.408 . S
C177 C176 1.404 . S
C177 H189 0.930 . S
C178 C174 1.524 . S
C178 H190 0.956 . S
C178 H191 0.961 . S
C178 H192 0.961 . S
C179 C176 1.539 . S
C179 H193 0.958 . S
C179 H194 0.961 . S
C179 H195 0.960 . S
H180 C164 0.931 . S
H181 C169 0.929 . S
H182 C170 0.960 . S
H183 C170 0.962 . S
H184 C170 0.960 . S
H185 C171 0.961 . S
H186 C171 0.961 . S
H187 C171 0.961 . S
H188 C172 0.931 . S
H189 C177 0.930 . S
H190 C178 0.956 . S
H191 C178 0.961 . S
H192 C178 0.961 . S
H193 C179 0.958 . S
H194 C179 0.961 . S
H195 C179 0.960 . S
C196 C197 1.391 . S
C196 C198 1.394 . S
C196 H212 0.931 . S
C197 C196 1.391 . S
C197 C201 1.376 . S
C198 C196 1.394 . S
C198 C199 1.369 . S
C198 C202 1.531 . S
C199 C198 1.369 . S
C199 C200 1.410 . S
C199 C207 1.503 . S
C200 C199 1.410 . S
C200 C201 1.392 . S
C200 C203 1.511 . S
C201 C197 1.376 . S
C201 C200 1.392 . S
C201 H213 0.929 . S
C202 C198 1.531 . S
C202 H214 0.960 . S
C202 H215 0.962 . S
C202 H216 0.960 . S
C203 C200 1.511 . S
C203 H217 0.961 . S
C203 H218 0.961 . S
C203 H219 0.961 . S
C204 C205 1.370 . S
C204 C206 1.363 . S
C204 H220 0.931 . S
C205 C204 1.370 . S
C205 C209 1.408 . S
C206 C204 1.363 . S
C206 C207 1.370 . S
C206 C210 1.524 . S
C207 C199 1.503 . S
C207 C206 1.370 . S
C207 C208 1.403 . S
C208 C207 1.403 . S
C208 C209 1.404 . S
C208 C211 1.539 . S
C209 C205 1.408 . S
C209 C208 1.404 . S
C209 H221 0.930 . S
C210 C206 1.524 . S
C210 H222 0.956 . S
C210 H223 0.961 . S
C210 H224 0.961 . S
C211 C208 1.539 . S
C211 H225 0.958 . S
C211 H226 0.961 . S
C211 H227 0.960 . S
H212 C196 0.931 . S
H213 C201 0.929 . S
H214 C202 0.960 . S
H215 C202 0.962 . S
H216 C202 0.960 . S
H217 C203 0.961 . S
H218 C203 0.961 . S
H219 C203 0.961 . S
H220 C204 0.931 . S
H221 C209 0.930 . S
H222 C210 0.956 . S
H223 C210 0.961 . S
H224 C210 0.961 . S
H225 C211 0.958 . S
H226 C211 0.961 . S
H227 C211 0.960 . S
C228 C229 1.391 . S
C228 C230 1.394 . S
C228 H244 0.931 . S
C229 C228 1.391 . S
C229 C233 1.376 . S
C230 C228 1.394 . S
C230 C231 1.369 . S
C230 C234 1.531 . S
C231 C230 1.369 . S
C231 C232 1.410 . S
C231 C239 1.503 . S
C232 C231 1.410 . S
C232 C233 1.392 . S
C232 C235 1.511 . S
C233 C229 1.376 . S
C233 C232 1.392 . S
C233 H245 0.929 . S
C234 C230 1.531 . S
C234 H246 0.960 . S
C234 H247 0.962 . S
C234 H248 0.960 . S
C235 C232 1.511 . S
C235 H249 0.961 . S
C235 H250 0.961 . S
C235 H251 0.961 . S
C236 C237 1.370 . S
C236 C238 1.363 . S
C236 H252 0.931 . S
C237 C236 1.370 . S
C237 C241 1.408 . S
C238 C236 1.363 . S
C238 C239 1.370 . S
C238 C242 1.524 . S
C239 C231 1.503 . S
C239 C238 1.370 . S
C239 C240 1.403 . S
C240 C239 1.403 . S
C240 C241 1.404 . S
C240 C243 1.539 . S
C241 C237 1.408 . S
C241 C240 1.404 . S
C241 H253 0.930 . S
C242 C238 1.524 . S
C242 H254 0.956 . S
C242 H255 0.961 . S
C242 H256 0.961 . S
C243 C240 1.539 . S
C243 H257 0.958 . S
C243 H258 0.961 . S
C243 H259 0.960 . S
H244 C228 0.931 . S
H245 C233 0.929 . S
H246 C234 0.960 . S
H247 C234 0.962 . S
H248 C234 0.960 . S
H249 C235 0.961 . S
H250 C235 0.961 . S
H251 C235 0.961 . S
H252 C236 0.931 . S
H253 C241 0.930 . S
H254 C242 0.956 . S
H255 C242 0.961 . S
H256 C242 0.961 . S
H257 C243 0.958 . S
H258 C243 0.961 . S
H259 C243 0.960 . S
C260 C261 1.391 . S
C260 C262 1.394 . S
C260 H276 0.931 . S
C261 C260 1.391 . S
C261 C265 1.376 . S
C262 C260 1.394 . S
C262 C263 1.369 . S
C262 C266 1.531 . S
C263 C262 1.369 . S
C263 C264 1.410 . S
C263 C271 1.503 . S
C264 C263 1.410 . S
C264 C265 1.392 . S
C264 C267 1.511 . S
C265 C261 1.376 . S
C265 C264 1.392 . S
C265 H277 0.929 . S
C266 C262 1.531 . S
C266 H278 0.960 . S
C266 H279 0.962 . S
C266 H280 0.960 . S
C267 C264 1.511 . S
C267 H281 0.961 . S
C267 H282 0.961 . S
C267 H283 0.961 . S
C268 C269 1.370 . S
C268 C270 1.363 . S
C268 H284 0.931 . S
C269 C268 1.370 . S
C269 C273 1.408 . S
C270 C268 1.363 . S
C270 C271 1.370 . S
C270 C274 1.524 . S
C271 C263 1.503 . S
C271 C270 1.370 . S
C271 C272 1.403 . S
C272 C271 1.403 . S
C272 C273 1.404 . S
C272 C275 1.539 . S
C273 C269 1.408 . S
C273 C272 1.404 . S
C273 H285 0.930 . S
C274 C270 1.524 . S
C274 H286 0.956 . S
C274 H287 0.961 . S
C274 H288 0.961 . S
C275 C272 1.539 . S
C275 H289 0.958 . S
C275 H290 0.961 . S
C275 H291 0.960 . S
H276 C260 0.931 . S
H277 C265 0.929 . S
H278 C266 0.960 . S
H279 C266 0.962 . S
H280 C266 0.960 . S
H281 C267 0.961 . S
H282 C267 0.961 . S
H283 C267 0.961 . S
H284 C268 0.931 . S
H285 C273 0.930 . S
H286 C274 0.956 . S
H287 C274 0.961 . S
H288 C274 0.961 . S
H289 C275 0.958 . S
H290 C275 0.961 . S
H291 C275 0.960 . S
C292 C293 1.391 . S
C292 C294 1.394 . S
C292 H308 0.931 . S
C293 C292 1.391 . S
C293 C297 1.376 . S
C294 C292 1.394 . S
C294 C295 1.369 . S
C294 C298 1.531 . S
C295 C294 1.369 . S
C295 C296 1.410 . S
C295 C303 1.503 . S
C296 C295 1.410 . S
C296 C297 1.392 . S
C296 C299 1.511 . S
C297 C293 1.376 . S
C297 C296 1.392 . S
C297 H309 0.929 . S
C298 C294 1.531 . S
C298 H310 0.960 . S
C298 H311 0.962 . S
C298 H312 0.960 . S
C299 C296 1.511 . S
C299 H313 0.961 . S
C299 H314 0.961 . S
C299 H315 0.961 . S
C300 C301 1.370 . S
C300 C302 1.363 . S
C300 H316 0.931 . S
C301 C300 1.370 . S
C301 C305 1.408 . S
C302 C300 1.363 . S
C302 C303 1.370 . S
C302 C306 1.524 . S
C303 C295 1.503 . S
C303 C302 1.370 . S
C303 C304 1.403 . S
C304 C303 1.403 . S
C304 C305 1.404 . S
C304 C307 1.539 . S
C305 C301 1.408 . S
C305 C304 1.404 . S
C305 H317 0.930 . S
C306 C302 1.524 . S
C306 H318 0.956 . S
C306 H319 0.961 . S
C306 H320 0.961 . S
C307 C304 1.539 . S
C307 H321 0.958 . S
C307 H322 0.961 . S
C307 H323 0.960 . S
H308 C292 0.931 . S
H309 C297 0.929 . S
H310 C298 0.960 . S
H311 C298 0.962 . S
H312 C298 0.960 . S
H313 C299 0.961 . S
H314 C299 0.961 . S
H315 C299 0.961 . S
H316 C300 0.931 . S
H317 C305 0.930 . S
H318 C306 0.956 . S
H319 C306 0.961 . S
H320 C306 0.961 . S
H321 C307 0.958 . S
H322 C307 0.961 . S
H323 C307 0.960 . S
C324 C325 1.391 . S
C324 C326 1.394 . S
C324 H340 0.931 . S
C325 C324 1.391 . S
C325 C329 1.376 . S
C326 C324 1.394 . S
C326 C327 1.369 . S
C326 C330 1.531 . S
C327 C326 1.369 . S
C327 C328 1.410 . S
C327 C335 1.503 . S
C328 C327 1.410 . S
C328 C329 1.392 . S
C328 C331 1.511 . S
C329 C325 1.376 . S
C329 C328 1.392 . S
C329 H341 0.929 . S
C330 C326 1.531 . S
C330 H342 0.960 . S
C330 H343 0.962 . S
C330 H344 0.960 . S
C331 C328 1.511 . S
C331 H345 0.961 . S
C331 H346 0.961 . S
C331 H347 0.961 . S
C332 C333 1.370 . S
C332 C334 1.363 . S
C332 H348 0.931 . S
C333 C332 1.370 . S
C333 C337 1.408 . S
C334 C332 1.363 . S
C334 C335 1.370 . S
C334 C338 1.524 . S
C335 C327 1.503 . S
C335 C334 1.370 . S
C335 C336 1.403 . S
C336 C335 1.403 . S
C336 C337 1.404 . S
C336 C339 1.539 . S
C337 C333 1.408 . S
C337 C336 1.404 . S
C337 H349 0.930 . S
C338 C334 1.524 . S
C338 H350 0.956 . S
C338 H351 0.961 . S
C338 H352 0.961 . S
C339 C336 1.539 . S
C339 H353 0.958 . S
C339 H354 0.961 . S
C339 H355 0.960 . S
H340 C324 0.931 . S
H341 C329 0.929 . S
H342 C330 0.960 . S
H343 C330 0.962 . S
H344 C330 0.960 . S
H345 C331 0.961 . S
H346 C331 0.961 . S
H347 C331 0.961 . S
H348 C332 0.931 . S
H349 C337 0.930 . S
H350 C338 0.956 . S
H351 C338 0.961 . S
H352 C338 0.961 . S
H353 C339 0.958 . S
H354 C339 0.961 . S
H355 C339 0.960 . S
C356 C357 1.391 . S
C356 C358 1.394 . S
C356 H372 0.931 . S
C357 C356 1.391 . S
C357 C361 1.376 . S
C358 C356 1.394 . S
C358 C359 1.369 . S
C358 C362 1.531 1_655 S
C359 C358 1.369 . S
C359 C360 1.410 . S
C359 C367 1.503 1_655 S
C360 C359 1.410 . S
C360 C361 1.392 . S
C360 C363 1.511 . S
C361 C357 1.376 . S
C361 C360 1.392 . S
C361 H373 0.929 . S
C362 C358 1.531 1_455 S
C362 H374 0.960 . S
C362 H375 0.962 . S
C362 H376 0.947 1_455 S
C363 C360 1.511 . S
C363 H377 0.961 . S
C363 H378 0.961 . S
C363 H379 0.961 . S
C364 C365 1.370 . S
C364 C366 1.363 . S
C364 H380 0.931 . S
C365 C364 1.370 . S
C365 C369 1.408 . S
C366 C364 1.363 . S
C366 C367 1.370 . S
C366 C370 1.524 . S
C367 C359 1.503 1_455 S
C367 C366 1.370 . S
C367 C368 1.403 . S
C368 C367 1.403 . S
C368 C369 1.404 . S
C368 C371 1.539 . S
C369 C365 1.408 . S
C369 C368 1.404 . S
C369 H381 0.930 . S
C370 C366 1.524 . S
C370 H382 0.956 . S
C370 H383 0.961 1_455 S
C370 H384 0.961 . S
C371 C368 1.539 . S
C371 H385 0.958 . S
C371 H386 0.961 . S
C371 H387 0.935 1_455 S
H372 C356 0.931 . S
H373 C361 0.929 . S
H374 C362 0.960 . S
H375 C362 0.962 . S
H376 C362 0.947 1_655 S
H377 C363 0.961 . S
H378 C363 0.961 . S
H379 C363 0.961 . S
H380 C364 0.931 . S
H381 C369 0.930 . S
H382 C370 0.956 . S
H383 C370 0.961 1_655 S
H384 C370 0.961 . S
H385 C371 0.958 . S
H386 C371 0.961 . S
H387 C371 0.935 1_655 S
C388 C389 1.391 . S
C388 C390 1.394 . S
C388 H404 0.931 . S
C389 C388 1.391 . S
C389 C393 1.376 . S
C390 C388 1.394 . S
C390 C391 1.369 . S
C390 C394 1.531 . S
C391 C390 1.369 . S
C391 C392 1.410 . S
C391 C399 1.503 1_565 S
C392 C391 1.410 . S
C392 C393 1.392 . S
C392 C395 1.511 . S
C393 C389 1.376 . S
C393 C392 1.392 . S
C393 H405 0.929 . S
C394 C390 1.531 . S
C394 H406 0.960 . S
C394 H407 0.962 . S
C394 H408 0.960 . S
C395 C392 1.511 . S
C395 H409 0.961 . S
C395 H410 0.961 1_565 S
C395 H411 0.961 . S
C396 C397 1.370 . S
C396 C398 1.363 . S
C396 H412 0.931 . S
C397 C396 1.370 . S
C397 C401 1.408 . S
C398 C396 1.363 . S
C398 C399 1.370 . S
C398 C402 1.524 . S
C399 C391 1.503 1_545 S
C399 C398 1.370 . S
C399 C400 1.403 . S
C400 C399 1.403 . S
C400 C401 1.404 . S
C400 C403 1.539 . S
C401 C397 1.408 . S
C401 C400 1.404 . S
C401 H413 0.930 . S
C402 C398 1.524 . S
C402 H414 0.956 . S
C402 H415 0.961 . S
C402 H416 0.961 . S
C403 C400 1.539 . S
C403 H417 0.958 1_545 S
C403 H418 0.961 . S
C403 H419 0.960 1_545 S
H404 C388 0.931 . S
H405 C393 0.929 . S
H406 C394 0.960 . S
H407 C394 0.962 . S
H408 C394 0.960 . S
H409 C395 0.961 . S
H410 C395 0.961 1_545 S
H411 C395 0.961 . S
H412 C396 0.931 . S
H413 C401 0.930 . S
H414 C402 0.956 . S
H415 C402 0.961 . S
H416 C402 0.961 . S
H417 C403 0.958 1_565 S
H418 C403 0.961 . S
H419 C403 0.960 1_565 S
C420 C421 1.391 . S
C420 C422 1.394 . S
C420 H436 0.931 . S
C421 C420 1.391 . S
C421 C425 1.376 . S
C422 C420 1.394 . S
C422 C423 1.369 . S
C422 C426 1.531 . S
C423 C422 1.369 . S
C423 C424 1.410 . S
C423 C431 1.503 . S
C424 C423 1.410 . S
C424 C425 1.392 . S
C424 C427 1.511 . S
C425 C421 1.376 . S
C425 C424 1.392 . S
C425 H437 0.929 . S
C426 C422 1.531 . S
C426 H438 0.960 . S
C426 H439 0.962 . S
C426 H440 0.960 . S
C427 C424 1.511 . S
C427 H441 0.961 . S
C427 H442 0.961 . S
C427 H443 0.961 . S
C428 C429 1.370 . S
C428 C430 1.363 . S
C428 H444 0.931 . S
C429 C428 1.370 . S
C429 C433 1.408 . S
C430 C428 1.363 . S
C430 C431 1.370 . S
C430 C434 1.524 . S
C431 C423 1.503 . S
C431 C430 1.370 . S
C431 C432 1.403 . S
C432 C431 1.403 . S
C432 C433 1.404 . S
C432 C435 1.539 . S
C433 C429 1.408 . S
C433 C432 1.404 . S
C433 H445 0.930 . S
C434 C430 1.524 . S
C434 H446 0.956 . S
C434 H447 0.961 . S
C434 H448 0.961 . S
C435 C432 1.539 . S
C435 H449 0.958 . S
C435 H450 0.961 . S
C435 H451 0.960 . S
H436 C420 0.931 . S
H437 C425 0.929 . S
H438 C426 0.960 . S
H439 C426 0.962 . S
H440 C426 0.960 . S
H441 C427 0.961 . S
H442 C427 0.961 . S
H443 C427 0.961 . S
H444 C428 0.931 . S
H445 C433 0.930 . S
H446 C434 0.956 . S
H447 C434 0.961 . S
H448 C434 0.961 . S
H449 C435 0.958 . S
H450 C435 0.961 . S
H451 C435 0.960 . S
C452 C453 1.391 . S
C452 C454 1.394 . S
C452 H468 0.931 . S
C453 C452 1.391 . S
C453 C457 1.376 . S
C454 C452 1.394 . S
C454 C455 1.369 . S
C454 C458 1.531 . S
C455 C454 1.369 . S
C455 C456 1.410 . S
C455 C463 1.503 1_655 S
C456 C455 1.410 . S
C456 C457 1.392 . S
C456 C459 1.463 1_655 S
C457 C453 1.376 . S
C457 C456 1.392 . S
C457 H469 0.929 . S
C458 C454 1.531 . S
C458 H470 0.960 . S
C458 H471 0.962 . S
C458 H472 0.960 . S
C459 C456 1.463 1_455 S
C459 H473 0.964 1_455 S
C459 H474 1.003 . S
C459 H475 0.968 . S
C460 C461 1.370 . S
C460 C462 1.363 . S
C460 H476 0.931 . S
C461 C460 1.370 . S
C461 C465 1.408 . S
C462 C460 1.363 . S
C462 C463 1.370 . S
C462 C466 1.512 1_455 S
C463 C455 1.503 1_455 S
C463 C462 1.370 . S
C463 C464 1.403 . S
C464 C463 1.403 . S
C464 C465 1.404 . S
C464 C467 1.539 . S
C465 C461 1.408 . S
C465 C464 1.404 . S
C465 H477 0.930 . S
C466 C462 1.512 1_655 S
C466 H478 0.994 . S
C466 H479 0.966 . S
C466 H480 0.932 1_655 S
C467 C464 1.539 . S
C467 H481 0.958 . S
C467 H482 0.961 . S
C467 H483 0.960 . S
H468 C452 0.931 . S
H469 C457 0.929 . S
H470 C458 0.960 . S
H471 C458 0.962 . S
H472 C458 0.960 . S
H473 C459 0.964 1_655 S
H474 C459 1.003 . S
H475 C459 0.968 . S
H476 C460 0.931 . S
H477 C465 0.930 . S
H478 C466 0.994 . S
H479 C466 0.966 . S
H480 C466 0.932 1_455 S
H481 C467 0.958 . S
H482 C467 0.961 . S
H483 C467 0.960 . S
C484 C485 1.391 . S
C484 C486 1.394 . S
C484 H500 0.931 . S
C485 C484 1.391 . S
C485 C489 1.376 . S
C486 C484 1.394 . S
C486 C487 1.369 . S
C486 C490 1.531 . S
C487 C486 1.369 . S
C487 C488 1.410 . S
C487 C495 1.503 1_546 S
C488 C487 1.410 . S
C488 C489 1.392 . S
C488 C491 1.511 1_556 S
C489 C485 1.376 . S
C489 C488 1.392 . S
C489 H501 0.929 . S
C490 C486 1.531 . S
C490 H502 0.960 1_545 S
C490 H503 0.962 . S
C490 H504 0.960 . S
C491 C488 1.511 1_554 S
C491 H505 0.961 . S
C491 H506 0.961 . S
C491 H507 0.961 . S
C492 C493 1.370 . S
C492 C494 1.363 . S
C492 H508 0.931 . S
C493 C492 1.370 . S
C493 C497 1.384 1_554 S
C494 C492 1.363 . S
C494 C495 1.370 . S
C494 C498 1.524 1_565 S
C495 C487 1.503 1_564 S
C495 C494 1.370 . S
C495 C496 1.403 1_554 S
C496 C495 1.403 1_556 S
C496 C497 1.415 . S
C496 C499 1.539 . S
C497 C493 1.384 1_556 S
C497 C496 1.415 . S
C497 H509 0.943 . S
C498 C494 1.524 1_545 S
C498 H510 0.956 . S
C498 H511 0.961 . S
C498 H512 0.961 1_545 S
C499 C496 1.539 . S
C499 H513 0.958 . S
C499 H514 0.961 . S
C499 H515 0.960 . S
H500 C484 0.931 . S
H501 C489 0.929 . S
H502 C490 0.960 1_565 S
H503 C490 0.962 . S
H504 C490 0.960 . S
H505 C491 0.961 . S
H506 C491 0.961 . S
H507 C491 0.961 . S
H508 C492 0.931 . S
H509 C497 0.943 . S
H510 C498 0.956 . S
H511 C498 0.961 . S
H512 C498 0.961 1_565 S
H513 C499 0.958 . S
H514 C499 0.961 . S
H515 C499 0.960 . S
C516 C517 1.391 . S
C516 C518 1.394 . S
C516 H532 0.931 1_556 S
C517 C516 1.391 . S
C517 C521 1.376 . S
C518 C516 1.394 . S
C518 C519 1.369 . S
C518 C522 1.531 . S
C519 C518 1.369 . S
C519 C520 1.410 . S
C519 C527 1.503 . S
C520 C519 1.410 . S
C520 C521 1.392 . S
C520 C523 1.511 . S
C521 C517 1.376 . S
C521 C520 1.392 . S
C521 H533 0.929 . S
C522 C518 1.531 . S
C522 H534 0.960 . S
C522 H535 0.962 . S
C522 H536 0.960 . S
C523 C520 1.511 . S
C523 H537 0.961 . S
C523 H538 0.961 . S
C523 H539 0.961 . S
C524 C525 1.370 . S
C524 C526 1.363 . S
C524 H540 0.931 . S
C525 C524 1.370 . S
C525 C529 1.408 . S
C526 C524 1.363 . S
C526 C527 1.370 . S
C526 C530 1.524 . S
C527 C519 1.503 . S
C527 C526 1.370 . S
C527 C528 1.403 . S
C528 C527 1.403 . S
C528 C529 1.404 . S
C528 C531 1.539 . S
C529 C525 1.408 . S
C529 C528 1.404 . S
C529 H541 0.930 . S
C530 C526 1.524 . S
C530 H542 0.956 . S
C530 H543 0.961 . S
C530 H544 0.961 . S
C531 C528 1.539 . S
C531 H545 0.958 . S
C531 H546 0.961 . S
C531 H547 0.960 . S
H532 C516 0.931 1_554 S
H533 C521 0.929 . S
H534 C522 0.960 . S
H535 C522 0.962 . S
H536 C522 0.960 . S
H537 C523 0.961 . S
H538 C523 0.961 . S
H539 C523 0.961 . S
H540 C524 0.931 . S
H541 C529 0.930 . S
H542 C530 0.956 . S
H543 C530 0.961 . S
H544 C530 0.961 . S
H545 C531 0.958 . S
H546 C531 0.961 . S
H547 C531 0.960 . S
C548 C549 1.391 . S
C548 C550 1.394 . S
C548 H564 0.931 . S
C549 C548 1.391 . S
C549 C553 1.376 . S
C550 C548 1.394 . S
C550 C551 1.369 . S
C550 C554 1.531 . S
C551 C550 1.369 . S
C551 C552 1.410 . S
C551 C559 1.503 . S
C552 C551 1.410 . S
C552 C553 1.392 . S
C552 C555 1.511 . S
C553 C549 1.376 . S
C553 C552 1.392 . S
C553 H565 0.929 . S
C554 C550 1.531 . S
C554 H566 0.960 . S
C554 H567 0.962 . S
C554 H568 0.960 . S
C555 C552 1.511 . S
C555 H569 0.961 . S
C555 H570 0.961 . S
C555 H571 0.961 . S
C556 C557 1.370 . S
C556 C558 1.363 . S
C556 H572 0.931 . S
C557 C556 1.370 . S
C557 C561 1.408 . S
C558 C556 1.363 . S
C558 C559 1.370 . S
C558 C562 1.524 . S
C559 C551 1.503 . S
C559 C558 1.370 . S
C559 C560 1.403 . S
C560 C559 1.403 . S
C560 C561 1.404 . S
C560 C563 1.539 . S
C561 C557 1.408 . S
C561 C560 1.404 . S
C561 H573 0.930 . S
C562 C558 1.524 . S
C562 H574 0.956 . S
C562 H575 0.961 . S
C562 H576 0.961 . S
C563 C560 1.539 . S
C563 H577 0.958 . S
C563 H578 0.961 . S
C563 H579 0.960 . S
H564 C548 0.931 . S
H565 C553 0.929 . S
H566 C554 0.960 . S
H567 C554 0.962 . S
H568 C554 0.960 . S
H569 C555 0.961 . S
H570 C555 0.961 . S
H571 C555 0.961 . S
H572 C556 0.931 . S
H573 C561 0.930 . S
H574 C562 0.956 . S
H575 C562 0.961 . S
H576 C562 0.961 . S
H577 C563 0.958 . S
H578 C563 0.961 . S
H579 C563 0.960 . S
C580 C581 1.391 . S
C580 C582 1.394 . S
C580 H596 0.931 . S
C581 C580 1.391 . S
C581 C585 1.376 . S
C582 C580 1.394 . S
C582 C583 1.369 . S
C582 C586 1.531 . S
C583 C582 1.369 . S
C583 C584 1.410 . S
C583 C591 1.503 . S
C584 C583 1.410 . S
C584 C585 1.392 . S
C584 C587 1.511 . S
C585 C581 1.376 . S
C585 C584 1.392 . S
C585 H597 0.929 . S
C586 C582 1.531 . S
C586 H598 0.960 . S
C586 H599 0.962 . S
C586 H600 0.960 . S
C587 C584 1.511 . S
C587 H601 0.961 . S
C587 H602 0.961 . S
C587 H603 0.961 . S
C588 C589 1.370 . S
C588 C590 1.363 . S
C588 H604 0.931 . S
C589 C588 1.370 . S
C589 C593 1.408 . S
C590 C588 1.363 . S
C590 C591 1.370 . S
C590 C594 1.524 . S
C591 C583 1.503 . S
C591 C590 1.370 . S
C591 C592 1.403 . S
C592 C591 1.403 . S
C592 C593 1.404 . S
C592 C595 1.539 . S
C593 C589 1.408 . S
C593 C592 1.404 . S
C593 H605 0.930 . S
C594 C590 1.524 . S
C594 H606 0.956 . S
C594 H607 0.961 . S
C594 H608 0.961 . S
C595 C592 1.539 . S
C595 H609 0.958 . S
C595 H610 0.961 . S
C595 H611 0.960 . S
H596 C580 0.931 . S
H597 C585 0.929 . S
H598 C586 0.960 . S
H599 C586 0.962 . S
H600 C586 0.960 . S
H601 C587 0.961 . S
H602 C587 0.961 . S
H603 C587 0.961 . S
H604 C588 0.931 . S
H605 C593 0.930 . S
H606 C594 0.956 . S
H607 C594 0.961 . S
H608 C594 0.961 . S
H609 C595 0.958 . S
H610 C595 0.961 . S
H611 C595 0.960 . S
C612 C613 1.391 . S
C612 C614 1.394 . S
C612 H628 0.931 . S
C613 C612 1.391 . S
C613 C617 1.376 . S
C614 C612 1.394 . S
C614 C615 1.369 . S
C614 C618 1.531 . S
C615 C614 1.369 . S
C615 C616 1.410 . S
C615 C623 1.503 . S
C616 C615 1.410 . S
C616 C617 1.392 . S
C616 C619 1.511 . S
C617 C613 1.376 . S
C617 C616 1.392 . S
C617 H629 0.929 . S
C618 C614 1.531 . S
C618 H630 0.960 . S
C618 H631 0.962 . S
C618 H632 0.960 . S
C619 C616 1.511 . S
C619 H633 0.961 . S
C619 H634 0.961 . S
C619 H635 0.961 . S
C620 C621 1.370 . S
C620 C622 1.363 . S
C620 H636 0.931 . S
C621 C620 1.370 . S
C621 C625 1.408 . S
C622 C620 1.363 . S
C622 C623 1.370 . S
C622 C626 1.524 . S
C623 C615 1.503 . S
C623 C622 1.370 . S
C623 C624 1.403 . S
C624 C623 1.403 . S
C624 C625 1.404 . S
C624 C627 1.539 . S
C625 C621 1.408 . S
C625 C624 1.404 . S
C625 H637 0.930 . S
C626 C622 1.524 . S
C626 H638 0.956 . S
C626 H639 0.961 . S
C626 H640 0.961 . S
C627 C624 1.539 . S
C627 H641 0.958 . S
C627 H642 0.961 . S
C627 H643 0.960 . S
H628 C612 0.931 . S
H629 C617 0.929 . S
H630 C618 0.960 . S
H631 C618 0.962 . S
H632 C618 0.960 . S
H633 C619 0.961 . S
H634 C619 0.961 . S
H635 C619 0.961 . S
H636 C620 0.931 . S
H637 C625 0.930 . S
H638 C626 0.956 . S
H639 C626 0.961 . S
H640 C626 0.961 . S
H641 C627 0.958 . S
H642 C627 0.961 . S
H643 C627 0.960 . S
C644 C645 1.391 . S
C644 C646 1.394 . S
C644 H660 0.931 . S
C645 C644 1.391 . S
C645 C649 1.376 . S
C646 C644 1.394 . S
C646 C647 1.369 . S
C646 C650 1.531 . S
C647 C646 1.369 . S
C647 C648 1.410 . S
C647 C655 1.503 . S
C648 C647 1.410 . S
C648 C649 1.392 . S
C648 C651 1.511 . S
C649 C645 1.376 . S
C649 C648 1.392 . S
C649 H661 0.929 . S
C650 C646 1.531 . S
C650 H662 0.960 . S
C650 H663 0.962 . S
C650 H664 0.960 . S
C651 C648 1.511 . S
C651 H665 0.961 . S
C651 H666 0.961 . S
C651 H667 0.961 . S
C652 C653 1.370 . S
C652 C654 1.363 . S
C652 H668 0.931 . S
C653 C652 1.370 . S
C653 C657 1.408 . S
C654 C652 1.363 . S
C654 C655 1.370 . S
C654 C658 1.524 . S
C655 C647 1.503 . S
C655 C654 1.370 . S
C655 C656 1.403 . S
C656 C655 1.403 . S
C656 C657 1.404 . S
C656 C659 1.539 . S
C657 C653 1.408 . S
C657 C656 1.404 . S
C657 H669 0.930 . S
C658 C654 1.524 . S
C658 H670 0.956 . S
C658 H671 0.961 . S
C658 H672 0.961 . S
C659 C656 1.539 . S
C659 H673 0.958 . S
C659 H674 0.961 . S
C659 H675 0.960 . S
H660 C644 0.931 . S
H661 C649 0.929 . S
H662 C650 0.960 . S
H663 C650 0.962 . S
H664 C650 0.960 . S
H665 C651 0.961 . S
H666 C651 0.961 . S
H667 C651 0.961 . S
H668 C652 0.931 . S
H669 C657 0.930 . S
H670 C658 0.956 . S
H671 C658 0.961 . S
H672 C658 0.961 . S
H673 C659 0.958 . S
H674 C659 0.961 . S
H675 C659 0.960 . S
C676 C677 1.391 . S
C676 C678 1.394 . S
C676 H692 0.931 . S
C677 C676 1.391 . S
C677 C681 1.376 . S
C678 C676 1.394 . S
C678 C679 1.369 . S
C678 C682 1.531 . S
C679 C678 1.369 . S
C679 C680 1.410 . S
C679 C687 1.503 . S
C680 C679 1.410 . S
C680 C681 1.392 . S
C680 C683 1.511 . S
C681 C677 1.376 . S
C681 C680 1.392 . S
C681 H693 0.929 . S
C682 C678 1.531 . S
C682 H694 0.960 . S
C682 H695 0.962 . S
C682 H696 0.960 . S
C683 C680 1.511 . S
C683 H697 0.961 . S
C683 H698 0.961 . S
C683 H699 0.961 . S
C684 C685 1.370 . S
C684 C686 1.363 . S
C684 H700 0.931 . S
C685 C684 1.370 . S
C685 C689 1.408 . S
C686 C684 1.363 . S
C686 C687 1.370 . S
C686 C690 1.524 . S
C687 C679 1.503 . S
C687 C686 1.370 . S
C687 C688 1.403 . S
C688 C687 1.403 . S
C688 C689 1.404 . S
C688 C691 1.539 . S
C689 C685 1.408 . S
C689 C688 1.404 . S
C689 H701 0.930 . S
C690 C686 1.524 . S
C690 H702 0.956 . S
C690 H703 0.961 . S
C690 H704 0.961 . S
C691 C688 1.539 . S
C691 H705 0.958 . S
C691 H706 0.961 . S
C691 H707 0.960 . S
H692 C676 0.931 . S
H693 C681 0.929 . S
H694 C682 0.960 . S
H695 C682 0.962 . S
H696 C682 0.960 . S
H697 C683 0.961 . S
H698 C683 0.961 . S
H699 C683 0.961 . S
H700 C684 0.931 . S
H701 C689 0.930 . S
H702 C690 0.956 . S
H703 C690 0.961 . S
H704 C690 0.961 . S
H705 C691 0.958 . S
H706 C691 0.961 . S
H707 C691 0.960 . S
C133 C8 1.529 . S
C141 C118 1.552 . S
C165 C129 1.529 . S
C173 C19 1.552 . S
C197 C74 1.530 . S
C205 C30 1.553 . S
C229 C41 1.541 . S
C237 C85 1.556 . S
C261 C96 1.554 . S
C269 C52 1.542 . S
C293 C63 1.533 . S
C301 C107 1.554 . S
C325 C7 1.468 . S
C333 C106 1.425 . S
C357 C18 1.433 . S
C365 C117 1.437 . S
C389 C29 1.418 . S
C397 C128 1.450 . S
C421 C73 1.471 . S
C429 C40 1.425 . S
C453 C84 1.465 . S
C461 C51 1.430 . S
C485 C62 1.460 . S
C493 C95 1.427 . S
C517 C5 1.321 1_556 S
C525 C71 1.394 . S
C549 C82 1.435 1_554 S
C557 C16 1.358 . S
C581 C27 1.362 . S
C589 C93 1.372 . S
C613 C38 1.429 . S
C621 C104 1.367 . S
C645 C49 1.342 . S
C653 C115 1.381 . S
C677 C126 1.434 . S
C685 C60 1.357 . S
