# Generated by pormake.
# Topology snx, (6)-cn, num edge types: 1
# Building blocks:
#     Node 0, Type 0, BuildingBlock: OJICUG_clean_sbu_0, # of connection points: 6
#     Node 1, Type 0, BuildingBlock: OJICUG_clean_sbu_0, # of connection points: 6
#     Node 2, Type 0, BuildingBlock: OJICUG_clean_sbu_0, # of connection points: 6
#     Node 3, Type 0, BuildingBlock: OJICUG_clean_sbu_0, # of connection points: 6
#     Node 4, Type 0, BuildingBlock: OJICUG_clean_sbu_0, # of connection points: 6
#     Node 5, Type 0, BuildingBlock: OJICUG_clean_sbu_0, # of connection points: 6
#     Edge 6, Type (0, 0), BuildingBlock: FUNLAD_clean_linker_1, # of connection points: 2
#     Edge 7, Type (0, 0), BuildingBlock: FUNLAD_clean_linker_1, # of connection points: 2
#     Edge 8, Type (0, 0), BuildingBlock: FUNLAD_clean_linker_1, # of connection points: 2
#     Edge 9, Type (0, 0), BuildingBlock: FUNLAD_clean_linker_1, # of connection points: 2
#     Edge 10, Type (0, 0), BuildingBlock: FUNLAD_clean_linker_1, # of connection points: 2
#     Edge 11, Type (0, 0), BuildingBlock: FUNLAD_clean_linker_1, # of connection points: 2
#     Edge 12, Type (0, 0), BuildingBlock: FUNLAD_clean_linker_1, # of connection points: 2
#     Edge 13, Type (0, 0), BuildingBlock: FUNLAD_clean_linker_1, # of connection points: 2
#     Edge 14, Type (0, 0), BuildingBlock: FUNLAD_clean_linker_1, # of connection points: 2
#     Edge 15, Type (0, 0), BuildingBlock: FUNLAD_clean_linker_1, # of connection points: 2
#     Edge 16, Type (0, 0), BuildingBlock: FUNLAD_clean_linker_1, # of connection points: 2
#     Edge 17, Type (0, 0), BuildingBlock: FUNLAD_clean_linker_1, # of connection points: 2
#     Edge 18, Type (0, 0), BuildingBlock: FUNLAD_clean_linker_1, # of connection points: 2
#     Edge 19, Type (0, 0), BuildingBlock: FUNLAD_clean_linker_1, # of connection points: 2
#     Edge 20, Type (0, 0), BuildingBlock: FUNLAD_clean_linker_1, # of connection points: 2
#     Edge 21, Type (0, 0), BuildingBlock: FUNLAD_clean_linker_1, # of connection points: 2
#     Edge 22, Type (0, 0), BuildingBlock: FUNLAD_clean_linker_1, # of connection points: 2
#     Edge 23, Type (0, 0), BuildingBlock: FUNLAD_clean_linker_1, # of connection points: 2
# Relax obj value: 0.060
# Max RMSD: 0.112
# Mean RMSD: 0.112
data_MOF--net-snx--node1-OJICUG_clean_sbu_0--edge1-FUNLAD_clean_linker_1
_symmetry_space_group_name_H-M    P1
_symmetry_Int_Tables_number       1
_symmetry_cell_setting            triclinic
loop_
_symmetry_equiv_pos_as_xyz
'x, y, z'
_cell_length_a     39.624214
_cell_length_b     39.65605
_cell_length_c     22.014099
_cell_angle_alpha  89.561706
_cell_angle_beta   90.147231
_cell_angle_gamma 120.17612
loop_
_atom_site_label
_atom_site_type_symbol
_atom_site_fract_x
_atom_site_fract_y
_atom_site_fract_z
_atom_type_partial_charge
Sc0 Sc 0.2043 0.40107 0.16223 0.0
Sc1 Sc 0.20338 0.41374 0.32077 0.0
Sc2 Sc 0.16467 0.31934 0.25989 0.0
O3 O 0.19086 0.37811 0.24768 0.0
C4 C 0.1197 0.32612 0.14463 0.0
C5 C 0.17645 0.45556 0.2231 0.0
C6 C 0.12056 0.34233 0.35845 0.0
C7 C 0.2792 0.46164 0.23755 0.0
C8 C 0.22379 0.33268 0.15194 0.0
C9 C 0.22471 0.3504 0.36979 0.0
O10 O 0.14763 0.35914 0.12748 0.0
O11 O 0.18279 0.44893 0.27732 0.0
O12 O 0.12453 0.31807 0.32647 0.0
O13 O 0.26202 0.44533 0.18847 0.0
O14 O 0.20106 0.31232 0.19465 0.0
O15 O 0.22554 0.3828 0.37338 0.0
O16 O 0.22869 0.36568 0.13606 0.0
O17 O 0.2623 0.45317 0.28918 0.0
O18 O 0.20545 0.32504 0.3295 0.0
O19 O 0.18223 0.43999 0.17718 0.0
O20 O 0.12116 0.30834 0.19194 0.0
O21 O 0.14574 0.37856 0.3598 0.0
Sc22 Sc 0.84218 0.16671 0.72862 0.0
Sc23 Sc 0.78981 0.21132 0.6761 0.0
Sc24 Sc 0.80177 0.2037 0.83354 0.0
O25 O 0.81123 0.19389 0.74614 0.0
C26 C 0.79054 0.1184 0.84342 0.0
C27 C 0.77479 0.12888 0.62915 0.0
C28 C 0.71989 0.1799 0.77135 0.0
C29 C 0.87383 0.23319 0.62589 0.0
C30 C 0.88972 0.22093 0.83957 0.0
C31 C 0.81862 0.28262 0.76825 0.0
O32 O 0.81171 0.12248 0.79749 0.0
O33 O 0.76822 0.15708 0.62843 0.0
O34 O 0.74126 0.18544 0.81757 0.0
O35 O 0.87659 0.20813 0.65866 0.0
O36 O 0.86112 0.22325 0.86072 0.0
O37 O 0.80837 0.26741 0.71592 0.0
O38 O 0.88764 0.20253 0.7915 0.0
O39 O 0.84447 0.238 0.62737 0.0
O40 O 0.81875 0.2637 0.81504 0.0
O41 O 0.80022 0.12788 0.66329 0.0
O42 O 0.7835 0.14471 0.86114 0.0
O43 O 0.73302 0.18694 0.7173 0.0
Sc44 Sc 0.68222 0.84291 0.24399 0.0
Sc45 Sc 0.59158 0.78962 0.1702 0.0
Sc46 Sc 0.59498 0.80283 0.32922 0.0
O47 O 0.62285 0.81179 0.24784 0.0
C48 C 0.66588 0.78867 0.3607 0.0
C49 C 0.66356 0.77718 0.1456 0.0
C50 C 0.54182 0.72071 0.26432 0.0
C51 C 0.65868 0.87494 0.12823 0.0
C52 C 0.66602 0.88948 0.34642 0.0
C53 C 0.54066 0.81893 0.24088 0.0
O54 O 0.68703 0.80866 0.31616 0.0
O55 O 0.62798 0.7673 0.13783 0.0
O56 O 0.55428 0.74246 0.31067 0.0
O57 O 0.68224 0.87936 0.17094 0.0
O58 O 0.63171 0.8622 0.35904 0.0
O59 O 0.55143 0.80898 0.1933 0.0
O60 O 0.68727 0.88638 0.30656 0.0
O61 O 0.62564 0.84418 0.12172 0.0
O62 O 0.55419 0.81921 0.29358 0.0
O63 O 0.68616 0.8042 0.18102 0.0
O64 O 0.63247 0.78453 0.37219 0.0
O65 O 0.55332 0.73308 0.21052 0.0
Sc66 Sc 0.83455 0.68138 0.75841 0.0
Sc67 Sc 0.79199 0.59556 0.67128 0.0
Sc68 Sc 0.80578 0.59126 0.82937 0.0
O69 O 0.81078 0.62263 0.75292 0.0
C70 C 0.88995 0.66709 0.84647 0.0
C71 C 0.87057 0.67228 0.63375 0.0
C72 C 0.82839 0.54719 0.7322 0.0
C73 C 0.76606 0.66029 0.66484 0.0
C74 C 0.78295 0.65196 0.87936 0.0
C75 C 0.72521 0.5361 0.76082 0.0
O76 O 0.88407 0.68803 0.80886 0.0
O77 O 0.84612 0.63618 0.62666 0.0
O78 O 0.82894 0.55883 0.78603 0.0
O79 O 0.78766 0.6805 0.7083 0.0
O80 O 0.78056 0.61887 0.88088 0.0
O81 O 0.73632 0.55178 0.70847 0.0
O82 O 0.80274 0.67792 0.83972 0.0
O83 O 0.76575 0.63012 0.64465 0.0
O84 O 0.74722 0.54687 0.8072 0.0
O85 O 0.86872 0.69221 0.67715 0.0
O86 O 0.86412 0.6323 0.86034 0.0
O87 O 0.81547 0.55745 0.68707 0.0
Sc88 Sc 0.16144 0.83782 0.2548 0.0
Sc89 Sc 0.19983 0.78901 0.33897 0.0
Sc90 Sc 0.20572 0.79147 0.17907 0.0
O91 O 0.18904 0.80613 0.25752 0.0
C92 C 0.12188 0.77963 0.14423 0.0
C93 C 0.11479 0.77587 0.36068 0.0
C94 C 0.17614 0.71395 0.2577 0.0
C95 C 0.21752 0.87515 0.36826 0.0
C96 C 0.22576 0.87856 0.14975 0.0
C97 C 0.27814 0.8124 0.26699 0.0
O98 O 0.12152 0.80104 0.18648 0.0
O99 O 0.14136 0.76762 0.37076 0.0
O100 O 0.1827 0.73147 0.20671 0.0
O101 O 0.19832 0.87759 0.32375 0.0
O102 O 0.23133 0.84993 0.14313 0.0
O103 O 0.2594 0.80825 0.31577 0.0
O104 O 0.20106 0.87819 0.18704 0.0
O105 O 0.21993 0.84503 0.37967 0.0
O106 O 0.26274 0.8068 0.21446 0.0
O107 O 0.11819 0.80129 0.32175 0.0
O108 O 0.15043 0.77411 0.1346 0.0
O109 O 0.18129 0.73102 0.30825 0.0
Sc110 Sc 0.32311 0.16761 0.75647 0.0
Sc111 Sc 0.41452 0.19942 0.82681 0.0
Sc112 Sc 0.40636 0.19455 0.66701 0.0
O113 O 0.38138 0.1872 0.75021 0.0
C114 C 0.32607 0.11618 0.64766 0.0
C115 C 0.33597 0.12063 0.86373 0.0
C116 C 0.4526 0.162 0.74356 0.0
C117 C 0.35695 0.23 0.86348 0.0
C118 C 0.34647 0.22514 0.64326 0.0
C119 C 0.47046 0.26957 0.73735 0.0
O120 O 0.30782 0.12382 0.68755 0.0
O121 O 0.37216 0.14522 0.87101 0.0
O122 O 0.44049 0.16868 0.69406 0.0
O123 O 0.33049 0.20855 0.82599 0.0
O124 O 0.37539 0.2214 0.6286 0.0
O125 O 0.46012 0.25461 0.7903 0.0
O126 O 0.3255 0.20891 0.68993 0.0
O127 O 0.3892 0.23067 0.86802 0.0
O128 O 0.45339 0.25175 0.68907 0.0
O129 O 0.31497 0.12452 0.82371 0.0
O130 O 0.36222 0.13809 0.63678 0.0
O131 O 0.44498 0.17062 0.79528 0.0
H132 H 0.16603 0.49486 0.16482 0.0
C133 C 0.16597 0.48584 0.21163 0.0
H134 H 0.16234 0.49773 0.30385 0.0
H135 H 0.23614 0.67799 0.2617 0.0
H136 H 0.2873 0.6747 0.31696 0.0
H137 H 0.28307 0.61149 0.33753 0.0
H138 H 0.22699 0.55112 0.30481 0.0
C139 C 0.16109 0.50554 0.25681 0.0
C140 C 0.16263 0.5432 0.24456 0.0
C141 C 0.19569 0.57827 0.26424 0.0
C142 C 0.19821 0.61471 0.25217 0.0
C143 C 0.23205 0.64935 0.27105 0.0
C144 C 0.26194 0.64796 0.30223 0.0
C145 C 0.25952 0.61238 0.31394 0.0
C146 C 0.227 0.57789 0.29504 0.0
H147 H 0.15892 0.65844 0.30444 0.0
C148 C 0.16545 0.67264 0.26008 0.0
H149 H 0.1759 0.66729 0.16729 0.0
H150 H 0.09464 0.48137 0.20257 0.0
H151 H 0.04352 0.48475 0.14667 0.0
H152 H 0.04864 0.54821 0.12392 0.0
H153 H 0.10491 0.60871 0.15723 0.0
C154 C 0.16901 0.65392 0.21218 0.0
C155 C 0.16743 0.61596 0.22107 0.0
C156 C 0.13484 0.58104 0.20019 0.0
C157 C 0.13221 0.54451 0.21248 0.0
C158 C 0.0986 0.50995 0.19314 0.0
C159 C 0.06893 0.51147 0.16135 0.0
C160 C 0.07179 0.5472 0.14861 0.0
C161 C 0.10422 0.58168 0.16793 0.0
H162 H 0.66971 0.16965 0.82791 0.0
C163 C 0.6786 0.16788 0.7819 0.0
H164 H 0.6616 0.15679 0.68997 0.0
H165 H 0.49502 0.09622 0.84551 0.0
H166 H 0.50639 0.04641 0.88946 0.0
H167 H 0.56683 0.0454 0.86678 0.0
H168 H 0.61637 0.09428 0.80039 0.0
C169 C 0.65282 0.158 0.73626 0.0
C170 C 0.61454 0.15564 0.74583 0.0
C171 C 0.58562 0.12642 0.78389 0.0
C172 C 0.55045 0.12656 0.7961 0.0
C173 C 0.5222 0.09734 0.83469 0.0
C174 C 0.52833 0.06858 0.8601 0.0
C175 C 0.56239 0.06804 0.8474 0.0
C176 C 0.59073 0.09644 0.80958 0.0
H177 H 0.48496 0.13888 0.69477 0.0
C178 C 0.48106 0.1486 0.73893 0.0
H179 H 0.50502 0.16669 0.82674 0.0
H180 H 0.66345 0.21512 0.6689 0.0
H181 H 0.6516 0.26409 0.62404 0.0
H182 H 0.59106 0.26488 0.64635 0.0
H183 H 0.54247 0.21722 0.71425 0.0
C184 C 0.50753 0.15597 0.78267 0.0
C185 C 0.54398 0.15538 0.76929 0.0
C186 C 0.57274 0.1844 0.73063 0.0
C187 C 0.60782 0.18419 0.71829 0.0
C188 C 0.63607 0.21354 0.6796 0.0
C189 C 0.62974 0.242 0.65358 0.0
C190 C 0.59566 0.24242 0.6661 0.0
C191 C 0.56772 0.21447 0.70478 0.0
H192 H 0.33346 0.49941 0.18732 0.0
C193 C 0.32002 0.49361 0.23209 0.0
H194 H 0.32735 0.51302 0.32307 0.0
H195 H 0.51283 0.61346 0.28887 0.0
H196 H 0.50734 0.56096 0.3532 0.0
H197 H 0.44285 0.50446 0.37838 0.0
H198 H 0.38343 0.50011 0.33926 0.0
C199 C 0.33971 0.51802 0.27767 0.0
C200 C 0.37841 0.55342 0.26611 0.0
C201 C 0.41276 0.55587 0.29019 0.0
C202 C 0.44992 0.58878 0.27646 0.0
C203 C 0.48383 0.58975 0.29934 0.0
C204 C 0.4811 0.55964 0.33592 0.0
C205 C 0.44479 0.5278 0.35002 0.0
C206 C 0.41093 0.52569 0.32733 0.0
H207 H 0.4988 0.67174 0.32035 0.0
C208 C 0.50973 0.68031 0.27422 0.0
H209 H 0.50038 0.66428 0.1819 0.0
H210 H 0.31797 0.56034 0.21898 0.0
H211 H 0.32332 0.61244 0.15422 0.0
H212 H 0.38776 0.6681 0.1267 0.0
H213 H 0.44711 0.67258 0.16532 0.0
C214 C 0.49084 0.65562 0.22852 0.0
C215 C 0.45256 0.61951 0.23948 0.0
C216 C 0.41813 0.61694 0.21518 0.0
C217 C 0.381 0.58425 0.22947 0.0
C218 C 0.34701 0.58361 0.20754 0.0
C219 C 0.34962 0.61351 0.17066 0.0
C220 C 0.38588 0.64485 0.15522 0.0
C221 C 0.41979 0.64698 0.17768 0.0
H222 H 0.83681 0.50603 0.67625 0.0
C223 C 0.83854 0.51656 0.72227 0.0
H224 H 0.84311 0.50615 0.81537 0.0
H225 H 0.75993 0.32438 0.77343 0.0
H226 H 0.70741 0.3303 0.81833 0.0
H227 H 0.71509 0.39498 0.83764 0.0
H228 H 0.77508 0.45408 0.81119 0.0
C229 C 0.84352 0.49738 0.76884 0.0
C230 C 0.84027 0.4588 0.75946 0.0
C231 C 0.80527 0.42452 0.77659 0.0
C232 C 0.8011 0.38726 0.76649 0.0
C233 C 0.76517 0.35348 0.78158 0.0
C234 C 0.73465 0.35643 0.80716 0.0
C235 C 0.73896 0.39284 0.81798 0.0
C236 C 0.77365 0.42656 0.80264 0.0
H237 H 0.83374 0.33508 0.82223 0.0
C238 C 0.82836 0.32344 0.77641 0.0
H239 H 0.82337 0.33484 0.68365 0.0
H240 H 0.9114 0.51875 0.72332 0.0
H241 H 0.96394 0.51287 0.67761 0.0
H242 H 0.95678 0.44819 0.66023 0.0
H243 H 0.89706 0.38894 0.68854 0.0
C244 C 0.82795 0.34547 0.73 0.0
C245 C 0.83231 0.38442 0.74055 0.0
C246 C 0.8672 0.41866 0.72323 0.0
C247 C 0.87125 0.45595 0.73288 0.0
C248 C 0.90666 0.48972 0.71621 0.0
C249 C 0.93706 0.48675 0.69016 0.0
C250 C 0.93304 0.45032 0.6804 0.0
C251 C 0.89861 0.41656 0.69677 0.0
H252 H 0.49818 0.82692 0.18765 0.0
C253 C 0.50841 0.82702 0.2336 0.0
H254 H 0.49672 0.82843 0.32711 0.0
H255 H 0.38398 0.89488 0.24021 0.0
H256 H 0.44144 0.95665 0.26549 0.0
H257 H 0.50341 0.95978 0.29266 0.0
H258 H 0.5083 0.90106 0.2948 0.0
C259 C 0.48803 0.82916 0.28051 0.0
C260 C 0.45008 0.82716 0.26911 0.0
C261 C 0.44762 0.86155 0.26869 0.0
C262 C 0.41177 0.85966 0.25358 0.0
C263 C 0.41029 0.89458 0.25243 0.0
C264 C 0.4431 0.93023 0.26654 0.0
C265 C 0.47802 0.932 0.28176 0.0
C266 C 0.48046 0.89815 0.28277 0.0
H267 H 0.33171 0.82847 0.31869 0.0
C268 C 0.31915 0.82224 0.27332 0.0
H269 H 0.32763 0.81217 0.18197 0.0
H270 H 0.44383 0.75516 0.27247 0.0
H271 H 0.38654 0.69348 0.24786 0.0
H272 H 0.32565 0.69059 0.21471 0.0
H273 H 0.32068 0.74913 0.21118 0.0
C274 C 0.34019 0.82042 0.2271 0.0
C275 C 0.3785 0.82329 0.2391 0.0
C276 C 0.38105 0.78889 0.2393 0.0
C277 C 0.41665 0.79073 0.25558 0.0
C278 C 0.41786 0.75564 0.25861 0.0
C279 C 0.38516 0.71998 0.24454 0.0
C280 C 0.35077 0.71834 0.22654 0.0
C281 C 0.3484 0.75221 0.22445 0.0
H282 H 0.6759 0.4924 0.81537 0.0
C283 C 0.68566 0.50231 0.76911 0.0
H284 H 0.67349 0.4886 0.6761 0.0
H285 H 0.57694 0.30913 0.7585 0.0
H286 H 0.6384 0.31404 0.72935 0.0
H287 H 0.69479 0.37717 0.69901 0.0
H288 H 0.69114 0.43639 0.70118 0.0
C289 C 0.66343 0.48086 0.72271 0.0
C290 C 0.62797 0.44251 0.73503 0.0
C291 C 0.63027 0.40803 0.7317 0.0
C292 C 0.59731 0.3714 0.7473 0.0
C293 C 0.60088 0.33762 0.74597 0.0
C294 C 0.63589 0.33997 0.7292 0.0
C295 C 0.66779 0.3756 0.71253 0.0
C296 C 0.66526 0.40936 0.71392 0.0
H297 H 0.51294 0.32042 0.68387 0.0
C298 C 0.50467 0.30902 0.72988 0.0
H299 H 0.51912 0.32043 0.82307 0.0
H300 H 0.61384 0.50298 0.7454 0.0
H301 H 0.55309 0.49852 0.77753 0.0
H302 H 0.49575 0.43488 0.80403 0.0
H303 H 0.49878 0.37528 0.79866 0.0
C304 C 0.52655 0.33066 0.77645 0.0
C305 C 0.56184 0.36925 0.76462 0.0
C306 C 0.55962 0.40374 0.76836 0.0
C307 C 0.59273 0.44044 0.75344 0.0
C308 C 0.58965 0.47442 0.7569 0.0
C309 C 0.55494 0.47224 0.77507 0.0
C310 C 0.52263 0.4364 0.78993 0.0
C311 C 0.52475 0.40243 0.78661 0.0
H312 H 0.3742 0.27699 0.93071 0.0
C313 C 0.34978 0.25475 0.90495 0.0
H314 H 0.28924 0.22726 0.88781 0.0
H315 H 0.30852 0.31573 0.15261 0.0
H316 H 0.33336 0.27528 0.19282 0.0
H317 H 0.34383 0.23186 0.12559 0.0
H318 H 0.33073 0.22956 0.01779 0.0
C319 C 0.31378 0.24917 0.91374 0.0
C320 C 0.30619 0.27384 0.95566 0.0
C321 C 0.31214 0.27312 0.01919 0.0
C322 C 0.30361 0.29611 0.05862 0.0
C323 C 0.31246 0.29715 0.12119 0.0
C324 C 0.32704 0.27433 0.14478 0.0
C325 C 0.33312 0.25004 0.1069 0.0
C326 C 0.32576 0.24927 0.04486 0.0
H327 H 0.23297 0.28484 0.12304 0.0
C328 C 0.24329 0.31577 0.11703 0.0
H329 H 0.28201 0.36752 0.06984 0.0
H330 H 0.29418 0.28402 0.83593 0.0
H331 H 0.26695 0.32247 0.79649 0.0
H332 H 0.2476 0.3585 0.8656 0.0
H333 H 0.25581 0.3567 0.97432 0.0
C334 C 0.2718 0.3367 0.07662 0.0
C335 C 0.28644 0.31741 0.03508 0.0
C336 C 0.28107 0.31858 0.97151 0.0
C337 C 0.29132 0.29707 0.93176 0.0
C338 C 0.28621 0.29919 0.86836 0.0
C339 C 0.2707 0.32126 0.84503 0.0
C340 C 0.25987 0.34158 0.88392 0.0
C341 C 0.26485 0.34033 0.9464 0.0
H342 H 0.90399 0.28048 0.55802 0.0
C343 C 0.90633 0.25855 0.58467 0.0
H344 H 0.94189 0.23474 0.60762 0.0
H345 H 0.02069 0.32493 0.34605 0.0
H346 H 0.95799 0.28126 0.29985 0.0
H347 H 0.9015 0.2363 0.363 0.0
H348 H 0.90706 0.2354 0.47246 0.0
C349 C 0.93854 0.25558 0.57966 0.0
C350 C 0.97213 0.28251 0.54047 0.0
C351 C 0.96855 0.28144 0.47624 0.0
C352 C 0.00165 0.30573 0.43955 0.0
C353 C 0.9969 0.30572 0.37576 0.0
C354 C 0.96102 0.28103 0.34872 0.0
C355 C 0.92919 0.25584 0.38429 0.0
C356 C 0.93274 0.25585 0.44726 0.0
H357 H 0.06577 0.29492 0.39603 0.0
C358 C 0.08485 0.32644 0.39569 0.0
H359 H 0.09361 0.37984 0.43036 0.0
H360 H 0.98815 0.29457 0.66204 0.0
H361 H 0.05115 0.33762 0.70763 0.0
H362 H 0.10922 0.3771 0.64371 0.0
H363 H 0.10457 0.37405 0.53381 0.0
C364 C 0.07472 0.34838 0.42858 0.0
C365 C 0.03873 0.32922 0.46683 0.0
C366 C 0.04196 0.33149 0.53097 0.0
C367 C 0.00859 0.30822 0.56781 0.0
C368 C 0.01264 0.31112 0.63183 0.0
C369 C 0.04862 0.3358 0.65863 0.0
C370 C 0.0813 0.35805 0.62264 0.0
C371 C 0.07821 0.356 0.55957 0.0
H372 H 0.78627 0.06252 0.86934 0.0
C373 C 0.77489 0.08182 0.87891 0.0
H374 H 0.7368 0.09145 0.93327 0.0
H375 H 0.6913 0.90435 0.97263 0.0
H376 H 0.67607 0.89612 0.86523 0.0
H377 H 0.68507 0.95164 0.80191 0.0
H378 H 0.71119 0.01605 0.84501 0.0
C379 C 0.74795 0.0721 0.92287 0.0
C380 C 0.73558 0.03709 0.96247 0.0
C381 C 0.71794 0.99913 0.93723 0.0
C382 C 0.70971 0.9665 0.97479 0.0
C383 C 0.69573 0.92967 0.94719 0.0
C384 C 0.68722 0.9246 0.88537 0.0
C385 C 0.69257 0.9559 0.84961 0.0
C386 C 0.70785 0.99281 0.87491 0.0
H387 H 0.64638 0.90632 0.05627 0.0
C388 C 0.6693 0.90725 0.08471 0.0
H389 H 0.72899 0.93864 0.10789 0.0
H390 H 0.76857 0.10562 0.0261 0.0
H391 H 0.77789 0.11284 0.13495 0.0
H392 H 0.75804 0.05549 0.2013 0.0
H393 H 0.72941 0.99067 0.15903 0.0
C394 C 0.70602 0.93732 0.07914 0.0
C395 C 0.71592 0.97133 0.03849 0.0
C396 C 0.73184 0.00902 0.06411 0.0
C397 C 0.74217 0.04197 0.02602 0.0
C398 C 0.75931 0.07941 0.05279 0.0
C399 C 0.76495 0.08404 0.11533 0.0
C400 C 0.75386 0.05177 0.15267 0.0
C401 C 0.73754 0.01468 0.12767 0.0
H402 H 0.70897 0.77167 0.3864 0.0
C403 C 0.68127 0.769 0.39951 0.0
H404 H 0.63459 0.74406 0.46238 0.0
H405 H 0.66512 0.60914 0.5481 0.0
H406 H 0.60054 0.57288 0.50357 0.0
H407 H 0.5716 0.60691 0.44931 0.0
H408 H 0.60679 0.6774 0.43997 0.0
C409 C 0.66283 0.74809 0.44939 0.0
C410 C 0.67943 0.72778 0.48536 0.0
C411 C 0.65858 0.68648 0.48995 0.0
C412 C 0.6756 0.66677 0.52018 0.0
C413 C 0.65383 0.62556 0.52494 0.0
C414 C 0.6167 0.60438 0.49964 0.0
C415 C 0.60039 0.62354 0.46915 0.0
C416 C 0.62093 0.66407 0.46418 0.0
H417 H 0.73747 0.69554 0.6598 0.0
C418 C 0.74227 0.67466 0.6351 0.0
H419 H 0.73616 0.64698 0.55087 0.0
H420 H 0.72408 0.80726 0.4962 0.0
H421 H 0.79029 0.84351 0.53447 0.0
H422 H 0.8235 0.80923 0.57333 0.0
H423 H 0.79022 0.73871 0.57626 0.0
C424 C 0.73137 0.66749 0.5766 0.0
C425 C 0.7137 0.68831 0.54486 0.0
C426 C 0.73484 0.72966 0.53925 0.0
C427 C 0.71693 0.74941 0.51219 0.0
C428 C 0.73722 0.79074 0.51266 0.0
C429 C 0.77513 0.81194 0.53501 0.0
C430 C 0.79372 0.79265 0.55721 0.0
C431 C 0.77403 0.75205 0.55929 0.0
H432 H 0.95257 0.7105 0.85344 0.0
C433 C 0.92885 0.68466 0.87489 0.0
H434 H 0.91183 0.64572 0.94936 0.0
H435 H 0.07498 0.6759 0.03686 0.0
H436 H 0.0424 0.60761 0.00937 0.0
H437 H 0.97918 0.57698 0.95589 0.0
H438 H 0.94779 0.61424 0.9306 0.0
C439 C 0.93531 0.6716 0.92769 0.0
C440 C 0.97457 0.69103 0.95717 0.0
C441 C 0.99316 0.6691 0.96997 0.0
C442 C 0.03017 0.68703 0.99937 0.0
C443 C 0.04723 0.664 0.01374 0.0
C444 C 0.02884 0.62472 0.99822 0.0
C445 C 0.99322 0.60746 0.9682 0.0
C446 C 0.97546 0.62921 0.9541 0.0
H447 H 0.06091 0.76058 0.12201 0.0
C448 C 0.08676 0.76043 0.10582 0.0
H449 H 0.11095 0.744 0.03443 0.0
H450 H 0.94482 0.74061 0.9507 0.0
H451 H 0.98013 0.81009 0.96905 0.0
H452 H 0.0487 0.84322 0.00315 0.0
H453 H 0.08158 0.8065 0.02169 0.0
C454 C 0.08564 0.74481 0.05137 0.0
C455 C 0.04909 0.72714 0.01442 0.0
C456 C 0.03164 0.74963 0.99804 0.0
C457 C 0.99348 0.73118 0.97278 0.0
C458 C 0.97489 0.75352 0.96492 0.0
C459 C 0.99467 0.79345 0.97609 0.0
C460 C 0.03316 0.81205 0.99567 0.0
C461 C 0.05155 0.79055 0.00668 0.0
H462 H 0.27193 0.0669 0.61124 0.0
C463 C 0.30361 0.08102 0.61061 0.0
H464 H 0.3528 0.08087 0.57449 0.0
H465 H 0.19565 0.90775 0.50622 0.0
H466 H 0.18472 0.89696 0.61471 0.0
H467 H 0.22745 0.94767 0.68747 0.0
H468 H 0.28045 0.00982 0.65205 0.0
C469 C 0.32114 0.06665 0.57568 0.0
C470 C 0.29856 0.03386 0.53315 0.0
C471 C 0.26923 0.99683 0.55505 0.0
C472 C 0.24637 0.96664 0.51335 0.0
C473 C 0.21524 0.93099 0.53602 0.0
C474 C 0.20845 0.9245 0.59821 0.0
C475 C 0.23236 0.95311 0.63914 0.0
C476 C 0.26247 0.98886 0.6181 0.0
H477 H 0.25613 0.90638 0.44499 0.0
C478 C 0.23786 0.90832 0.40976 0.0
H479 H 0.21639 0.94296 0.37147 0.0
H480 H 0.35244 0.10142 0.47566 0.0
H481 H 0.36689 0.11008 0.36798 0.0
H482 H 0.33106 0.05579 0.29678 0.0
H483 H 0.27942 0.99286 0.33251 0.0
C484 C 0.23378 0.9399 0.40701 0.0
C485 C 0.25493 0.97251 0.45029 0.0
C486 C 0.28495 0.00909 0.42854 0.0
C487 C 0.3065 0.03996 0.46992 0.0
C488 C 0.3357 0.07656 0.44667 0.0
C489 C 0.34424 0.08203 0.38481 0.0
C490 C 0.32393 0.05151 0.34467 0.0
C491 C 0.29443 0.01549 0.36589 0.0
H492 H 0.71252 0.77109 0.11361 0.0
C493 C 0.68099 0.75824 0.11073 0.0
H494 H 0.62914 0.71415 0.07055 0.0
H495 H 0.72152 0.7034 0.84316 0.0
H496 H 0.67668 0.72056 0.79651 0.0
H497 H 0.6339 0.73473 0.85935 0.0
H498 H 0.63531 0.73126 0.96919 0.0
C499 C 0.66052 0.72703 0.07528 0.0
C500 C 0.68154 0.7124 0.03743 0.0
C501 C 0.68037 0.7147 0.97328 0.0
C502 C 0.70569 0.70742 0.93713 0.0
C503 C 0.70356 0.70942 0.87301 0.0
C504 C 0.67784 0.71912 0.84554 0.0
C505 C 0.65373 0.72705 0.88092 0.0
C506 C 0.65487 0.72496 0.94401 0.0
H507 H 0.73949 0.6351 0.95276 0.0
C508 C 0.75946 0.65916 0.92359 0.0
H509 H 0.77941 0.71731 0.8964 0.0
H510 H 0.68389 0.69577 0.15768 0.0
H511 H 0.72986 0.68029 0.20533 0.0
H512 H 0.77929 0.67543 0.14405 0.0
H513 H 0.78225 0.68479 0.03495 0.0
C514 C 0.7605 0.69347 0.92672 0.0
C515 C 0.73258 0.69852 0.96528 0.0
C516 C 0.73283 0.69497 0.02947 0.0
C517 C 0.70615 0.70038 0.06528 0.0
C518 C 0.705 0.694 0.12882 0.0
C519 C 0.73099 0.68481 0.15664 0.0
C520 C 0.75868 0.68189 0.12211 0.0
C521 C 0.7598 0.68698 0.05932 0.0
H522 H 0.92135 0.72428 0.59513 0.0
C523 C 0.90347 0.69276 0.59106 0.0
H524 H 0.89603 0.64289 0.54502 0.0
H525 H 0.99716 0.73428 0.31535 0.0
H526 H 0.93277 0.69567 0.27119 0.0
H527 H 0.87496 0.6576 0.33625 0.0
H528 H 0.88122 0.65753 0.44587 0.0
C529 C 0.91368 0.67429 0.55056 0.0
C530 C 0.94886 0.69655 0.51133 0.0
C531 C 0.94461 0.69667 0.44736 0.0
C532 C 0.97788 0.7192 0.40987 0.0
C533 C 0.97286 0.71812 0.34604 0.0
C534 C 0.93606 0.69605 0.32006 0.0
C535 C 0.90351 0.67459 0.35669 0.0
C536 C 0.90754 0.67479 0.41959 0.0
H537 H 0.07612 0.73157 0.42707 0.0
C538 C 0.07881 0.75475 0.39713 0.0
H539 H 0.05186 0.78617 0.36646 0.0
H540 H 0.96888 0.69757 0.63122 0.0
H541 H 0.03238 0.73931 0.67592 0.0
H542 H 0.08827 0.78484 0.61223 0.0
H543 H 0.08117 0.78783 0.5033 0.0
C544 C 0.05031 0.76371 0.39684 0.0
C545 C 0.01525 0.74197 0.43646 0.0
C546 C 0.01932 0.74268 0.50062 0.0
C547 C 0.98645 0.71865 0.53783 0.0
C548 C 0.99221 0.7171 0.60114 0.0
C549 C 0.02865 0.74064 0.62739 0.0
C550 C 0.06015 0.7661 0.59152 0.0
C551 C 0.05573 0.76724 0.5289 0.0
H552 H 0.27444 0.91556 0.08795 0.0
C553 C 0.24944 0.91355 0.11167 0.0
H554 H 0.21556 0.94013 0.12658 0.0
H555 H 0.33991 0.11137 0.04958 0.0
H556 H 0.32874 0.11899 0.15552 0.0
H557 H 0.28862 0.06158 0.22047 0.0
H558 H 0.25992 0.99617 0.18034 0.0
C559 C 0.24031 0.94163 0.10287 0.0
C560 C 0.26443 0.97624 0.06289 0.0
C561 C 0.28217 0.01432 0.08765 0.0
C562 C 0.30563 0.0475 0.05026 0.0
C563 C 0.32216 0.08516 0.07596 0.0
C564 C 0.31599 0.08998 0.13674 0.0
C565 C 0.29347 0.05764 0.17335 0.0
C566 C 0.27694 0.02022 0.14954 0.0
H567 H 0.28537 0.06571 0.89535 0.0
C568 C 0.31627 0.08571 0.90331 0.0
H569 H 0.36462 0.09783 0.95885 0.0
H570 H 0.22881 0.90845 0.99696 0.0
H571 H 0.2413 0.90081 0.89185 0.0
H572 H 0.28789 0.95754 0.83048 0.0
H573 H 0.32139 0.02239 0.8736 0.0
C574 C 0.33415 0.07767 0.9484 0.0
C575 C 0.31164 0.04263 0.98821 0.0
C576 C 0.2944 0.00454 0.96362 0.0
C577 C 0.26963 0.97147 0.00028 0.0
C578 C 0.24989 0.93428 0.97263 0.0
C579 C 0.25644 0.92952 0.912 0.0
C580 C 0.2825 0.96146 0.87736 0.0
C581 C 0.30132 0.99859 0.9026 0.0
H582 H 0.35001 0.25539 0.55715 0.0
C583 C 0.33557 0.2472 0.60116 0.0
H584 H 0.29201 0.2466 0.65685 0.0
H585 H 0.32168 0.36591 0.41754 0.0
H586 H 0.38704 0.40665 0.45695 0.0
H587 H 0.4091 0.38686 0.54838 0.0
H588 H 0.36616 0.32568 0.59997 0.0
C589 C 0.30723 0.25532 0.61353 0.0
C590 C 0.29215 0.27097 0.56546 0.0
C591 C 0.31686 0.30785 0.53794 0.0
C592 C 0.30335 0.32033 0.48737 0.0
C593 C 0.32967 0.35587 0.4579 0.0
C594 C 0.36743 0.37943 0.47978 0.0
C595 C 0.37991 0.36821 0.53108 0.0
C596 C 0.35506 0.33288 0.55999 0.0
H597 H 0.25631 0.36011 0.45652 0.0
C598 C 0.24534 0.3412 0.41716 0.0
H599 H 0.23766 0.28998 0.37587 0.0
H600 H 0.23673 0.19903 0.60871 0.0
H601 H 0.17007 0.16042 0.57379 0.0
H602 H 0.14527 0.18406 0.49071 0.0
H603 H 0.18717 0.24624 0.44157 0.0
C604 C 0.24929 0.30951 0.41442 0.0
C605 C 0.26433 0.29697 0.46684 0.0
C606 C 0.23911 0.2609 0.49616 0.0
C607 C 0.25312 0.24772 0.5451 0.0
C608 C 0.22758 0.21094 0.57211 0.0
C609 C 0.18916 0.18835 0.55243 0.0
C610 C 0.17523 0.20162 0.5056 0.0
C611 C 0.19972 0.2374 0.47764 0.0
H612 H 0.95244 0.24151 0.84989 0.0
C613 C 0.92715 0.2396 0.87245 0.0
H614 H 0.9056 0.25072 0.95299 0.0
H615 H 0.07267 0.25529 0.02479 0.0
H616 H 0.03968 0.18727 0.99576 0.0
H617 H 0.9726 0.15519 0.95519 0.0
H618 H 0.93872 0.1913 0.94163 0.0
C619 C 0.93047 0.25208 0.92992 0.0
C620 C 0.96839 0.26941 0.96279 0.0
C621 C 0.98668 0.24704 0.97418 0.0
C622 C 0.02419 0.26473 0.00169 0.0
C623 C 0.04325 0.24273 0.00749 0.0
C624 C 0.02478 0.20371 0.99049 0.0
C625 C 0.98712 0.18571 0.96735 0.0
C626 C 0.96814 0.20694 0.95925 0.0
H627 H 0.05837 0.2814 0.12774 0.0
C628 C 0.08325 0.30754 0.10912 0.0
H629 H 0.10412 0.34835 0.03675 0.0
H630 H 0.94128 0.32037 0.94826 0.0
H631 H 0.97233 0.38707 0.98373 0.0
H632 H 0.03512 0.41627 0.03833 0.0
H633 H 0.06748 0.37913 0.05705 0.0
C634 C 0.0798 0.32178 0.05532 0.0
C635 C 0.04192 0.3038 0.02229 0.0
C636 C 0.02312 0.3258 0.0125 0.0
C637 C 0.98649 0.30869 0.98225 0.0
C638 C 0.96881 0.33165 0.97186 0.0
C639 C 0.98635 0.37004 0.99189 0.0
C640 C 0.02172 0.38649 0.02255 0.0
C641 C 0.04002 0.36481 0.03287 0.0
H642 H 0.71415 0.94724 0.37222 0.0
C643 C 0.68368 0.92598 0.38134 0.0
H644 H 0.63481 0.91172 0.43676 0.0
H645 H 0.73708 0.01316 0.65718 0.0
H646 H 0.70619 0.94763 0.69891 0.0
H647 H 0.66578 0.89063 0.6346 0.0
H648 H 0.65612 0.89877 0.52803 0.0
C649 C 0.66484 0.93311 0.42553 0.0
C650 C 0.68639 0.96792 0.46507 0.0
C651 C 0.69161 0.96262 0.52746 0.0
C652 C 0.71541 0.99547 0.56437 0.0
C653 C 0.71985 0.98929 0.62668 0.0
C654 C 0.70212 0.9518 0.65141 0.0
C655 C 0.6794 0.91971 0.61518 0.0
C656 C 0.67408 0.92485 0.55397 0.0
H657 H 0.72609 0.09471 0.56621 0.0
C658 C 0.75108 0.09576 0.58864 0.0
H659 H 0.78415 0.06792 0.60071 0.0
H660 H 0.67739 0.98887 0.34992 0.0
H661 H 0.7119 0.05391 0.30586 0.0
H662 H 0.75868 0.11012 0.36686 0.0
H663 H 0.77048 0.10179 0.47241 0.0
C664 C 0.75962 0.06756 0.5779 0.0
C665 C 0.73432 0.03356 0.53872 0.0
C666 C 0.72927 0.03884 0.47613 0.0
C667 C 0.7042 0.00611 0.43988 0.0
C668 C 0.69763 0.01246 0.37864 0.0
C669 C 0.717 0.04968 0.35291 0.0
C670 C 0.7432 0.08133 0.38732 0.0
C671 C 0.74941 0.07616 0.44815 0.0
loop_
_geom_bond_atom_site_label_1
_geom_bond_atom_site_label_2
_geom_bond_distance
_geom_bond_site_symmetry_2
_ccdc_geom_bond_type
Sc0 O3 2.025 . S
Sc0 O10 2.105 . S
Sc0 O13 2.105 . S
Sc0 O16 2.105 . S
Sc0 O19 2.105 . S
Sc1 O3 2.025 . S
Sc1 O11 2.105 . S
Sc1 O15 2.105 . S
Sc1 O17 2.105 . S
Sc1 O21 2.105 . S
Sc2 O3 2.025 . S
Sc2 O12 2.105 . S
Sc2 O14 2.105 . S
Sc2 O18 2.105 . S
Sc2 O20 2.105 . S
O3 Sc0 2.025 . S
O3 Sc1 2.025 . S
O3 Sc2 2.025 . S
C4 O10 1.268 . S
C4 O20 1.268 . S
C5 O11 1.268 . S
C5 O19 1.268 . S
C6 O12 1.268 . S
C6 O21 1.268 . S
C7 O13 1.268 . S
C7 O17 1.268 . S
C8 O14 1.268 . S
C8 O16 1.268 . S
C9 O15 1.268 . S
C9 O18 1.268 . S
O10 Sc0 2.105 . S
O10 C4 1.268 . S
O11 Sc1 2.105 . S
O11 C5 1.268 . S
O12 Sc2 2.105 . S
O12 C6 1.268 . S
O13 Sc0 2.105 . S
O13 C7 1.268 . S
O14 Sc2 2.105 . S
O14 C8 1.268 . S
O15 Sc1 2.105 . S
O15 C9 1.268 . S
O16 Sc0 2.105 . S
O16 C8 1.268 . S
O17 Sc1 2.105 . S
O17 C7 1.268 . S
O18 Sc2 2.105 . S
O18 C9 1.268 . S
O19 Sc0 2.105 . S
O19 C5 1.268 . S
O20 Sc2 2.105 . S
O20 C4 1.268 . S
O21 Sc1 2.105 . S
O21 C6 1.268 . S
Sc22 O25 2.025 . S
Sc22 O32 2.105 . S
Sc22 O35 2.105 . S
Sc22 O38 2.105 . S
Sc22 O41 2.105 . S
Sc23 O25 2.025 . S
Sc23 O33 2.105 . S
Sc23 O37 2.105 . S
Sc23 O39 2.105 . S
Sc23 O43 2.105 . S
Sc24 O25 2.025 . S
Sc24 O34 2.105 . S
Sc24 O36 2.105 . S
Sc24 O40 2.105 . S
Sc24 O42 2.105 . S
O25 Sc22 2.025 . S
O25 Sc23 2.025 . S
O25 Sc24 2.025 . S
C26 O32 1.268 . S
C26 O42 1.268 . S
C27 O33 1.268 . S
C27 O41 1.268 . S
C28 O34 1.268 . S
C28 O43 1.268 . S
C29 O35 1.268 . S
C29 O39 1.268 . S
C30 O36 1.268 . S
C30 O38 1.268 . S
C31 O37 1.268 . S
C31 O40 1.268 . S
O32 Sc22 2.105 . S
O32 C26 1.268 . S
O33 Sc23 2.105 . S
O33 C27 1.268 . S
O34 Sc24 2.105 . S
O34 C28 1.268 . S
O35 Sc22 2.105 . S
O35 C29 1.268 . S
O36 Sc24 2.105 . S
O36 C30 1.268 . S
O37 Sc23 2.105 . S
O37 C31 1.268 . S
O38 Sc22 2.105 . S
O38 C30 1.268 . S
O39 Sc23 2.105 . S
O39 C29 1.268 . S
O40 Sc24 2.105 . S
O40 C31 1.268 . S
O41 Sc22 2.105 . S
O41 C27 1.268 . S
O42 Sc24 2.105 . S
O42 C26 1.268 . S
O43 Sc23 2.105 . S
O43 C28 1.268 . S
Sc44 O47 2.025 . S
Sc44 O54 2.105 . S
Sc44 O57 2.105 . S
Sc44 O60 2.105 . S
Sc44 O63 2.105 . S
Sc45 O47 2.025 . S
Sc45 O55 2.105 . S
Sc45 O59 2.105 . S
Sc45 O61 2.105 . S
Sc45 O65 2.105 . S
Sc46 O47 2.025 . S
Sc46 O56 2.105 . S
Sc46 O58 2.105 . S
Sc46 O62 2.105 . S
Sc46 O64 2.105 . S
O47 Sc44 2.025 . S
O47 Sc45 2.025 . S
O47 Sc46 2.025 . S
C48 O54 1.268 . S
C48 O64 1.268 . S
C49 O55 1.268 . S
C49 O63 1.268 . S
C50 O56 1.268 . S
C50 O65 1.268 . S
C51 O57 1.268 . S
C51 O61 1.268 . S
C52 O58 1.268 . S
C52 O60 1.268 . S
C53 O59 1.268 . S
C53 O62 1.268 . S
O54 Sc44 2.105 . S
O54 C48 1.268 . S
O55 Sc45 2.105 . S
O55 C49 1.268 . S
O56 Sc46 2.105 . S
O56 C50 1.268 . S
O57 Sc44 2.105 . S
O57 C51 1.268 . S
O58 Sc46 2.105 . S
O58 C52 1.268 . S
O59 Sc45 2.105 . S
O59 C53 1.268 . S
O60 Sc44 2.105 . S
O60 C52 1.268 . S
O61 Sc45 2.105 . S
O61 C51 1.268 . S
O62 Sc46 2.105 . S
O62 C53 1.268 . S
O63 Sc44 2.105 . S
O63 C49 1.268 . S
O64 Sc46 2.105 . S
O64 C48 1.268 . S
O65 Sc45 2.105 . S
O65 C50 1.268 . S
Sc66 O69 2.025 . S
Sc66 O76 2.105 . S
Sc66 O79 2.105 . S
Sc66 O82 2.105 . S
Sc66 O85 2.105 . S
Sc67 O69 2.025 . S
Sc67 O77 2.105 . S
Sc67 O81 2.105 . S
Sc67 O83 2.105 . S
Sc67 O87 2.105 . S
Sc68 O69 2.025 . S
Sc68 O78 2.105 . S
Sc68 O80 2.105 . S
Sc68 O84 2.105 . S
Sc68 O86 2.105 . S
O69 Sc66 2.025 . S
O69 Sc67 2.025 . S
O69 Sc68 2.025 . S
C70 O76 1.268 . S
C70 O86 1.268 . S
C71 O77 1.268 . S
C71 O85 1.268 . S
C72 O78 1.268 . S
C72 O87 1.268 . S
C73 O79 1.268 . S
C73 O83 1.268 . S
C74 O80 1.268 . S
C74 O82 1.268 . S
C75 O81 1.268 . S
C75 O84 1.268 . S
O76 Sc66 2.105 . S
O76 C70 1.268 . S
O77 Sc67 2.105 . S
O77 C71 1.268 . S
O78 Sc68 2.105 . S
O78 C72 1.268 . S
O79 Sc66 2.105 . S
O79 C73 1.268 . S
O80 Sc68 2.105 . S
O80 C74 1.268 . S
O81 Sc67 2.105 . S
O81 C75 1.268 . S
O82 Sc66 2.105 . S
O82 C74 1.268 . S
O83 Sc67 2.105 . S
O83 C73 1.268 . S
O84 Sc68 2.105 . S
O84 C75 1.268 . S
O85 Sc66 2.105 . S
O85 C71 1.268 . S
O86 Sc68 2.105 . S
O86 C70 1.268 . S
O87 Sc67 2.105 . S
O87 C72 1.268 . S
Sc88 O91 2.025 . S
Sc88 O98 2.105 . S
Sc88 O101 2.105 . S
Sc88 O104 2.105 . S
Sc88 O107 2.105 . S
Sc89 O91 2.025 . S
Sc89 O99 2.105 . S
Sc89 O103 2.105 . S
Sc89 O105 2.105 . S
Sc89 O109 2.105 . S
Sc90 O91 2.025 . S
Sc90 O100 2.105 . S
Sc90 O102 2.105 . S
Sc90 O106 2.105 . S
Sc90 O108 2.105 . S
O91 Sc88 2.025 . S
O91 Sc89 2.025 . S
O91 Sc90 2.025 . S
C92 O98 1.268 . S
C92 O108 1.268 . S
C93 O99 1.268 . S
C93 O107 1.268 . S
C94 O100 1.268 . S
C94 O109 1.268 . S
C95 O101 1.268 . S
C95 O105 1.268 . S
C96 O102 1.268 . S
C96 O104 1.268 . S
C97 O103 1.268 . S
C97 O106 1.268 . S
O98 Sc88 2.105 . S
O98 C92 1.268 . S
O99 Sc89 2.105 . S
O99 C93 1.268 . S
O100 Sc90 2.105 . S
O100 C94 1.268 . S
O101 Sc88 2.105 . S
O101 C95 1.268 . S
O102 Sc90 2.105 . S
O102 C96 1.268 . S
O103 Sc89 2.105 . S
O103 C97 1.268 . S
O104 Sc88 2.105 . S
O104 C96 1.268 . S
O105 Sc89 2.105 . S
O105 C95 1.268 . S
O106 Sc90 2.105 . S
O106 C97 1.268 . S
O107 Sc88 2.105 . S
O107 C93 1.268 . S
O108 Sc90 2.105 . S
O108 C92 1.268 . S
O109 Sc89 2.105 . S
O109 C94 1.268 . S
Sc110 O113 2.025 . S
Sc110 O120 2.105 . S
Sc110 O123 2.105 . S
Sc110 O126 2.105 . S
Sc110 O129 2.105 . S
Sc111 O113 2.025 . S
Sc111 O121 2.105 . S
Sc111 O125 2.105 . S
Sc111 O127 2.105 . S
Sc111 O131 2.105 . S
Sc112 O113 2.025 . S
Sc112 O122 2.105 . S
Sc112 O124 2.105 . S
Sc112 O128 2.105 . S
Sc112 O130 2.105 . S
O113 Sc110 2.025 . S
O113 Sc111 2.025 . S
O113 Sc112 2.025 . S
C114 O120 1.268 . S
C114 O130 1.268 . S
C115 O121 1.268 . S
C115 O129 1.268 . S
C116 O122 1.268 . S
C116 O131 1.268 . S
C117 O123 1.268 . S
C117 O127 1.268 . S
C118 O124 1.268 . S
C118 O126 1.268 . S
C119 O125 1.268 . S
C119 O128 1.268 . S
O120 Sc110 2.105 . S
O120 C114 1.268 . S
O121 Sc111 2.105 . S
O121 C115 1.268 . S
O122 Sc112 2.105 . S
O122 C116 1.268 . S
O123 Sc110 2.105 . S
O123 C117 1.268 . S
O124 Sc112 2.105 . S
O124 C118 1.268 . S
O125 Sc111 2.105 . S
O125 C119 1.268 . S
O126 Sc110 2.105 . S
O126 C118 1.268 . S
O127 Sc111 2.105 . S
O127 C117 1.268 . S
O128 Sc112 2.105 . S
O128 C119 1.268 . S
O129 Sc110 2.105 . S
O129 C115 1.268 . S
O130 Sc112 2.105 . S
O130 C114 1.268 . S
O131 Sc111 2.105 . S
O131 C116 1.268 . S
H132 C133 0.951 . S
C133 H132 0.951 . S
C133 C139 1.265 . S
H134 C139 0.950 . S
H135 C143 0.949 . S
H136 C144 0.950 . S
H137 C145 0.951 . S
H138 C146 0.951 . S
C139 C133 1.265 . S
C139 H134 0.950 . S
C139 C140 1.478 . S
C140 C139 1.478 . S
C140 C141 1.397 . S
C140 C157 1.394 . S
C141 C140 1.397 . S
C141 C142 1.438 . S
C141 C146 1.429 . S
C142 C141 1.438 . S
C142 C143 1.428 . S
C142 C155 1.394 . S
C143 H135 0.949 . S
C143 C142 1.428 . S
C143 C144 1.345 . S
C144 H136 0.950 . S
C144 C143 1.345 . S
C144 C145 1.424 . S
C145 H137 0.951 . S
C145 C144 1.424 . S
C145 C146 1.347 . S
C146 H138 0.951 . S
C146 C141 1.429 . S
C146 C145 1.347 . S
H147 C148 0.951 . S
C148 H147 0.951 . S
C148 C154 1.265 . S
H149 C154 0.950 . S
H150 C158 0.949 . S
H151 C159 0.950 . S
H152 C160 0.951 . S
H153 C161 0.951 . S
C154 C148 1.265 . S
C154 H149 0.950 . S
C154 C155 1.478 . S
C155 C142 1.394 . S
C155 C154 1.478 . S
C155 C156 1.397 . S
C156 C155 1.397 . S
C156 C157 1.438 . S
C156 C161 1.429 . S
C157 C140 1.394 . S
C157 C156 1.438 . S
C157 C158 1.428 . S
C158 H150 0.949 . S
C158 C157 1.428 . S
C158 C159 1.345 . S
C159 H151 0.950 . S
C159 C158 1.345 . S
C159 C160 1.424 . S
C160 H152 0.951 . S
C160 C159 1.424 . S
C160 C161 1.347 . S
C161 H153 0.951 . S
C161 C156 1.429 . S
C161 C160 1.347 . S
H162 C163 0.951 . S
C163 H162 0.951 . S
C163 C169 1.265 . S
H164 C169 0.950 . S
H165 C173 0.949 . S
H166 C174 0.950 . S
H167 C175 0.951 . S
H168 C176 0.951 . S
C169 C163 1.265 . S
C169 H164 0.950 . S
C169 C170 1.478 . S
C170 C169 1.478 . S
C170 C171 1.397 . S
C170 C187 1.394 . S
C171 C170 1.397 . S
C171 C172 1.438 . S
C171 C176 1.429 . S
C172 C171 1.438 . S
C172 C173 1.428 . S
C172 C185 1.394 . S
C173 H165 0.949 . S
C173 C172 1.428 . S
C173 C174 1.345 . S
C174 H166 0.950 . S
C174 C173 1.345 . S
C174 C175 1.424 . S
C175 H167 0.951 . S
C175 C174 1.424 . S
C175 C176 1.347 . S
C176 H168 0.951 . S
C176 C171 1.429 . S
C176 C175 1.347 . S
H177 C178 0.951 . S
C178 H177 0.951 . S
C178 C184 1.265 . S
H179 C184 0.950 . S
H180 C188 0.949 . S
H181 C189 0.950 . S
H182 C190 0.951 . S
H183 C191 0.951 . S
C184 C178 1.265 . S
C184 H179 0.950 . S
C184 C185 1.478 . S
C185 C172 1.394 . S
C185 C184 1.478 . S
C185 C186 1.397 . S
C186 C185 1.397 . S
C186 C187 1.438 . S
C186 C191 1.429 . S
C187 C170 1.394 . S
C187 C186 1.438 . S
C187 C188 1.428 . S
C188 H180 0.949 . S
C188 C187 1.428 . S
C188 C189 1.345 . S
C189 H181 0.950 . S
C189 C188 1.345 . S
C189 C190 1.424 . S
C190 H182 0.951 . S
C190 C189 1.424 . S
C190 C191 1.347 . S
C191 H183 0.951 . S
C191 C186 1.429 . S
C191 C190 1.347 . S
H192 C193 0.951 . S
C193 H192 0.951 . S
C193 C199 1.265 . S
H194 C199 0.950 . S
H195 C203 0.949 . S
H196 C204 0.950 . S
H197 C205 0.951 . S
H198 C206 0.951 . S
C199 C193 1.265 . S
C199 H194 0.950 . S
C199 C200 1.478 . S
C200 C199 1.478 . S
C200 C201 1.397 . S
C200 C217 1.394 . S
C201 C200 1.397 . S
C201 C202 1.438 . S
C201 C206 1.429 . S
C202 C201 1.438 . S
C202 C203 1.428 . S
C202 C215 1.394 . S
C203 H195 0.949 . S
C203 C202 1.428 . S
C203 C204 1.345 . S
C204 H196 0.950 . S
C204 C203 1.345 . S
C204 C205 1.424 . S
C205 H197 0.951 . S
C205 C204 1.424 . S
C205 C206 1.347 . S
C206 H198 0.951 . S
C206 C201 1.429 . S
C206 C205 1.347 . S
H207 C208 0.951 . S
C208 H207 0.951 . S
C208 C214 1.265 . S
H209 C214 0.950 . S
H210 C218 0.949 . S
H211 C219 0.950 . S
H212 C220 0.951 . S
H213 C221 0.951 . S
C214 C208 1.265 . S
C214 H209 0.950 . S
C214 C215 1.478 . S
C215 C202 1.394 . S
C215 C214 1.478 . S
C215 C216 1.397 . S
C216 C215 1.397 . S
C216 C217 1.438 . S
C216 C221 1.429 . S
C217 C200 1.394 . S
C217 C216 1.438 . S
C217 C218 1.428 . S
C218 H210 0.949 . S
C218 C217 1.428 . S
C218 C219 1.345 . S
C219 H211 0.950 . S
C219 C218 1.345 . S
C219 C220 1.424 . S
C220 H212 0.951 . S
C220 C219 1.424 . S
C220 C221 1.347 . S
C221 H213 0.951 . S
C221 C216 1.429 . S
C221 C220 1.347 . S
H222 C223 0.951 . S
C223 H222 0.951 . S
C223 C229 1.265 . S
H224 C229 0.950 . S
H225 C233 0.949 . S
H226 C234 0.950 . S
H227 C235 0.951 . S
H228 C236 0.951 . S
C229 C223 1.265 . S
C229 H224 0.950 . S
C229 C230 1.478 . S
C230 C229 1.478 . S
C230 C231 1.397 . S
C230 C247 1.394 . S
C231 C230 1.397 . S
C231 C232 1.438 . S
C231 C236 1.429 . S
C232 C231 1.438 . S
C232 C233 1.428 . S
C232 C245 1.394 . S
C233 H225 0.949 . S
C233 C232 1.428 . S
C233 C234 1.345 . S
C234 H226 0.950 . S
C234 C233 1.345 . S
C234 C235 1.424 . S
C235 H227 0.951 . S
C235 C234 1.424 . S
C235 C236 1.347 . S
C236 H228 0.951 . S
C236 C231 1.429 . S
C236 C235 1.347 . S
H237 C238 0.951 . S
C238 H237 0.951 . S
C238 C244 1.265 . S
H239 C244 0.950 . S
H240 C248 0.949 . S
H241 C249 0.950 . S
H242 C250 0.951 . S
H243 C251 0.951 . S
C244 C238 1.265 . S
C244 H239 0.950 . S
C244 C245 1.478 . S
C245 C232 1.394 . S
C245 C244 1.478 . S
C245 C246 1.397 . S
C246 C245 1.397 . S
C246 C247 1.438 . S
C246 C251 1.429 . S
C247 C230 1.394 . S
C247 C246 1.438 . S
C247 C248 1.428 . S
C248 H240 0.949 . S
C248 C247 1.428 . S
C248 C249 1.345 . S
C249 H241 0.950 . S
C249 C248 1.345 . S
C249 C250 1.424 . S
C250 H242 0.951 . S
C250 C249 1.424 . S
C250 C251 1.347 . S
C251 H243 0.951 . S
C251 C246 1.429 . S
C251 C250 1.347 . S
H252 C253 0.951 . S
C253 H252 0.951 . S
C253 C259 1.265 . S
H254 C259 0.950 . S
H255 C263 0.949 . S
H256 C264 0.950 . S
H257 C265 0.951 . S
H258 C266 0.951 . S
C259 C253 1.265 . S
C259 H254 0.950 . S
C259 C260 1.478 . S
C260 C259 1.478 . S
C260 C261 1.397 . S
C260 C277 1.394 . S
C261 C260 1.397 . S
C261 C262 1.438 . S
C261 C266 1.429 . S
C262 C261 1.438 . S
C262 C263 1.428 . S
C262 C275 1.394 . S
C263 H255 0.949 . S
C263 C262 1.428 . S
C263 C264 1.345 . S
C264 H256 0.950 . S
C264 C263 1.345 . S
C264 C265 1.424 . S
C265 H257 0.951 . S
C265 C264 1.424 . S
C265 C266 1.347 . S
C266 H258 0.951 . S
C266 C261 1.429 . S
C266 C265 1.347 . S
H267 C268 0.951 . S
C268 H267 0.951 . S
C268 C274 1.265 . S
H269 C274 0.950 . S
H270 C278 0.949 . S
H271 C279 0.950 . S
H272 C280 0.951 . S
H273 C281 0.951 . S
C274 C268 1.265 . S
C274 H269 0.950 . S
C274 C275 1.478 . S
C275 C262 1.394 . S
C275 C274 1.478 . S
C275 C276 1.397 . S
C276 C275 1.397 . S
C276 C277 1.438 . S
C276 C281 1.429 . S
C277 C260 1.394 . S
C277 C276 1.438 . S
C277 C278 1.428 . S
C278 H270 0.949 . S
C278 C277 1.428 . S
C278 C279 1.345 . S
C279 H271 0.950 . S
C279 C278 1.345 . S
C279 C280 1.424 . S
C280 H272 0.951 . S
C280 C279 1.424 . S
C280 C281 1.347 . S
C281 H273 0.951 . S
C281 C276 1.429 . S
C281 C280 1.347 . S
H282 C283 0.951 . S
C283 H282 0.951 . S
C283 C289 1.265 . S
H284 C289 0.950 . S
H285 C293 0.949 . S
H286 C294 0.950 . S
H287 C295 0.951 . S
H288 C296 0.951 . S
C289 C283 1.265 . S
C289 H284 0.950 . S
C289 C290 1.478 . S
C290 C289 1.478 . S
C290 C291 1.397 . S
C290 C307 1.394 . S
C291 C290 1.397 . S
C291 C292 1.438 . S
C291 C296 1.429 . S
C292 C291 1.438 . S
C292 C293 1.428 . S
C292 C305 1.394 . S
C293 H285 0.949 . S
C293 C292 1.428 . S
C293 C294 1.345 . S
C294 H286 0.950 . S
C294 C293 1.345 . S
C294 C295 1.424 . S
C295 H287 0.951 . S
C295 C294 1.424 . S
C295 C296 1.347 . S
C296 H288 0.951 . S
C296 C291 1.429 . S
C296 C295 1.347 . S
H297 C298 0.951 . S
C298 H297 0.951 . S
C298 C304 1.265 . S
H299 C304 0.950 . S
H300 C308 0.949 . S
H301 C309 0.950 . S
H302 C310 0.951 . S
H303 C311 0.951 . S
C304 C298 1.265 . S
C304 H299 0.950 . S
C304 C305 1.478 . S
C305 C292 1.394 . S
C305 C304 1.478 . S
C305 C306 1.397 . S
C306 C305 1.397 . S
C306 C307 1.438 . S
C306 C311 1.429 . S
C307 C290 1.394 . S
C307 C306 1.438 . S
C307 C308 1.428 . S
C308 H300 0.949 . S
C308 C307 1.428 . S
C308 C309 1.345 . S
C309 H301 0.950 . S
C309 C308 1.345 . S
C309 C310 1.424 . S
C310 H302 0.951 . S
C310 C309 1.424 . S
C310 C311 1.347 . S
C311 H303 0.951 . S
C311 C306 1.429 . S
C311 C310 1.347 . S
H312 C313 0.951 . S
C313 H312 0.951 . S
C313 C319 1.265 . S
H314 C319 0.950 . S
H315 C323 0.949 . S
H316 C324 0.950 . S
H317 C325 0.951 . S
H318 C326 0.951 . S
C319 C313 1.265 . S
C319 H314 0.950 . S
C319 C320 1.478 . S
C320 C319 1.478 . S
C320 C321 1.397 1_556 S
C320 C337 1.394 . S
C321 C320 1.397 1_554 S
C321 C322 1.438 . S
C321 C326 1.429 . S
C322 C321 1.438 . S
C322 C323 1.428 . S
C322 C335 1.394 . S
C323 H315 0.949 . S
C323 C322 1.428 . S
C323 C324 1.345 . S
C324 H316 0.950 . S
C324 C323 1.345 . S
C324 C325 1.424 . S
C325 H317 0.951 . S
C325 C324 1.424 . S
C325 C326 1.347 . S
C326 H318 0.951 . S
C326 C321 1.429 . S
C326 C325 1.347 . S
H327 C328 0.951 . S
C328 H327 0.951 . S
C328 C334 1.265 . S
H329 C334 0.950 . S
H330 C338 0.949 . S
H331 C339 0.950 . S
H332 C340 0.951 . S
H333 C341 0.951 . S
C334 C328 1.265 . S
C334 H329 0.950 . S
C334 C335 1.478 . S
C335 C322 1.394 . S
C335 C334 1.478 . S
C335 C336 1.397 1_554 S
C336 C335 1.397 1_556 S
C336 C337 1.438 . S
C336 C341 1.429 . S
C337 C320 1.394 . S
C337 C336 1.438 . S
C337 C338 1.428 . S
C338 H330 0.949 . S
C338 C337 1.428 . S
C338 C339 1.345 . S
C339 H331 0.950 . S
C339 C338 1.345 . S
C339 C340 1.424 . S
C340 H332 0.951 . S
C340 C339 1.424 . S
C340 C341 1.347 . S
C341 H333 0.951 . S
C341 C336 1.429 . S
C341 C340 1.347 . S
H342 C343 0.951 . S
C343 H342 0.951 . S
C343 C349 1.265 . S
H344 C349 0.950 . S
H345 C353 0.949 . S
H346 C354 0.950 . S
H347 C355 0.951 . S
H348 C356 0.951 . S
C349 C343 1.265 . S
C349 H344 0.950 . S
C349 C350 1.478 . S
C350 C349 1.478 . S
C350 C351 1.397 . S
C350 C367 1.394 . S
C351 C350 1.397 . S
C351 C352 1.438 1_655 S
C351 C356 1.429 . S
C352 C351 1.438 1_455 S
C352 C353 1.428 . S
C352 C365 1.394 . S
C353 H345 0.949 . S
C353 C352 1.428 . S
C353 C354 1.345 1_455 S
C354 H346 0.950 . S
C354 C353 1.345 1_655 S
C354 C355 1.424 . S
C355 H347 0.951 . S
C355 C354 1.424 . S
C355 C356 1.347 . S
C356 H348 0.951 . S
C356 C351 1.429 . S
C356 C355 1.347 . S
H357 C358 0.951 . S
C358 H357 0.951 . S
C358 C364 1.265 . S
H359 C364 0.950 . S
H360 C368 0.949 . S
H361 C369 0.950 . S
H362 C370 0.951 . S
H363 C371 0.951 . S
C364 C358 1.265 . S
C364 H359 0.950 . S
C364 C365 1.478 . S
C365 C352 1.394 . S
C365 C364 1.478 . S
C365 C366 1.397 . S
C366 C365 1.397 . S
C366 C367 1.438 1_455 S
C366 C371 1.429 . S
C367 C350 1.394 . S
C367 C366 1.438 1_655 S
C367 C368 1.428 . S
C368 H360 0.949 . S
C368 C367 1.428 . S
C368 C369 1.345 1_655 S
C369 H361 0.950 . S
C369 C368 1.345 1_455 S
C369 C370 1.424 . S
C370 H362 0.951 . S
C370 C369 1.424 . S
C370 C371 1.347 . S
C371 H363 0.951 . S
C371 C366 1.429 . S
C371 C370 1.347 . S
H372 C373 0.951 . S
C373 H372 0.951 . S
C373 C379 1.265 . S
H374 C379 0.950 . S
H375 C383 0.949 . S
H376 C384 0.950 . S
H377 C385 0.951 . S
H378 C386 0.951 . S
C379 C373 1.265 . S
C379 H374 0.950 . S
C379 C380 1.478 . S
C380 C379 1.478 . S
C380 C381 1.397 1_545 S
C380 C397 1.394 1_556 S
C381 C380 1.397 1_565 S
C381 C382 1.438 . S
C381 C386 1.429 . S
C382 C381 1.438 . S
C382 C383 1.428 . S
C382 C395 1.394 1_556 S
C383 H375 0.949 . S
C383 C382 1.428 . S
C383 C384 1.345 . S
C384 H376 0.950 . S
C384 C383 1.345 . S
C384 C385 1.424 . S
C385 H377 0.951 . S
C385 C384 1.424 . S
C385 C386 1.347 . S
C386 H378 0.951 . S
C386 C381 1.429 . S
C386 C385 1.347 . S
H387 C388 0.951 . S
C388 H387 0.951 . S
C388 C394 1.265 . S
H389 C394 0.950 . S
H390 C398 0.949 . S
H391 C399 0.950 . S
H392 C400 0.951 . S
H393 C401 0.951 . S
C394 C388 1.265 . S
C394 H389 0.950 . S
C394 C395 1.478 . S
C395 C382 1.394 1_554 S
C395 C394 1.478 . S
C395 C396 1.397 1_565 S
C396 C395 1.397 1_545 S
C396 C397 1.438 . S
C396 C401 1.429 . S
C397 C380 1.394 1_554 S
C397 C396 1.438 . S
C397 C398 1.428 . S
C398 H390 0.949 . S
C398 C397 1.428 . S
C398 C399 1.345 . S
C399 H391 0.950 . S
C399 C398 1.345 . S
C399 C400 1.424 . S
C400 H392 0.951 . S
C400 C399 1.424 . S
C400 C401 1.347 . S
C401 H393 0.951 . S
C401 C396 1.429 . S
C401 C400 1.347 . S
H402 C403 0.951 . S
C403 H402 0.951 . S
C403 C409 1.265 . S
H404 C409 0.950 . S
H405 C413 0.949 . S
H406 C414 0.950 . S
H407 C415 0.951 . S
H408 C416 0.951 . S
C409 C403 1.265 . S
C409 H404 0.950 . S
C409 C410 1.478 . S
C410 C409 1.478 . S
C410 C411 1.397 . S
C410 C427 1.394 . S
C411 C410 1.397 . S
C411 C412 1.438 . S
C411 C416 1.429 . S
C412 C411 1.438 . S
C412 C413 1.428 . S
C412 C425 1.394 . S
C413 H405 0.949 . S
C413 C412 1.428 . S
C413 C414 1.345 . S
C414 H406 0.950 . S
C414 C413 1.345 . S
C414 C415 1.424 . S
C415 H407 0.951 . S
C415 C414 1.424 . S
C415 C416 1.347 . S
C416 H408 0.951 . S
C416 C411 1.429 . S
C416 C415 1.347 . S
H417 C418 0.951 . S
C418 H417 0.951 . S
C418 C424 1.265 . S
H419 C424 0.950 . S
H420 C428 0.949 . S
H421 C429 0.950 . S
H422 C430 0.951 . S
H423 C431 0.951 . S
C424 C418 1.265 . S
C424 H419 0.950 . S
C424 C425 1.478 . S
C425 C412 1.394 . S
C425 C424 1.478 . S
C425 C426 1.397 . S
C426 C425 1.397 . S
C426 C427 1.438 . S
C426 C431 1.429 . S
C427 C410 1.394 . S
C427 C426 1.438 . S
C427 C428 1.428 . S
C428 H420 0.949 . S
C428 C427 1.428 . S
C428 C429 1.345 . S
C429 H421 0.950 . S
C429 C428 1.345 . S
C429 C430 1.424 . S
C430 H422 0.951 . S
C430 C429 1.424 . S
C430 C431 1.347 . S
C431 H423 0.951 . S
C431 C426 1.429 . S
C431 C430 1.347 . S
H432 C433 0.951 . S
C433 H432 0.951 . S
C433 C439 1.265 . S
H434 C439 0.950 . S
H435 C443 0.949 . S
H436 C444 0.950 . S
H437 C445 0.951 . S
H438 C446 0.951 . S
C439 C433 1.265 . S
C439 H434 0.950 . S
C439 C440 1.478 . S
C440 C439 1.478 . S
C440 C441 1.397 1_556 S
C440 C457 1.394 . S
C441 C440 1.397 1_554 S
C441 C442 1.438 1_655 S
C441 C446 1.429 . S
C442 C441 1.438 1_455 S
C442 C443 1.428 . S
C442 C455 1.394 . S
C443 H435 0.949 . S
C443 C442 1.428 . S
C443 C444 1.345 1_455 S
C444 H436 0.950 . S
C444 C443 1.345 1_655 S
C444 C445 1.424 . S
C445 H437 0.951 . S
C445 C444 1.424 . S
C445 C446 1.347 . S
C446 H438 0.951 . S
C446 C441 1.429 . S
C446 C445 1.347 . S
H447 C448 0.951 . S
C448 H447 0.951 . S
C448 C454 1.265 . S
H449 C454 0.950 . S
H450 C458 0.949 . S
H451 C459 0.950 . S
H452 C460 0.951 . S
H453 C461 0.951 . S
C454 C448 1.265 . S
C454 H449 0.950 . S
C454 C455 1.478 . S
C455 C442 1.394 . S
C455 C454 1.478 . S
C455 C456 1.397 1_554 S
C456 C455 1.397 1_556 S
C456 C457 1.438 1_455 S
C456 C461 1.429 . S
C457 C440 1.394 . S
C457 C456 1.438 1_655 S
C457 C458 1.428 . S
C458 H450 0.949 . S
C458 C457 1.428 . S
C458 C459 1.345 1_655 S
C459 H451 0.950 . S
C459 C458 1.345 1_455 S
C459 C460 1.424 . S
C460 H452 0.951 . S
C460 C459 1.424 . S
C460 C461 1.347 . S
C461 H453 0.951 . S
C461 C456 1.429 . S
C461 C460 1.347 . S
H462 C463 0.951 . S
C463 H462 0.951 . S
C463 C469 1.265 . S
H464 C469 0.950 . S
H465 C473 0.949 . S
H466 C474 0.950 . S
H467 C475 0.951 . S
H468 C476 0.951 . S
C469 C463 1.265 . S
C469 H464 0.950 . S
C469 C470 1.478 . S
C470 C469 1.478 . S
C470 C471 1.397 1_545 S
C470 C487 1.394 . S
C471 C470 1.397 1_565 S
C471 C472 1.438 . S
C471 C476 1.429 . S
C472 C471 1.438 . S
C472 C473 1.428 . S
C472 C485 1.394 . S
C473 H465 0.949 . S
C473 C472 1.428 . S
C473 C474 1.345 . S
C474 H466 0.950 . S
C474 C473 1.345 . S
C474 C475 1.424 . S
C475 H467 0.951 . S
C475 C474 1.424 . S
C475 C476 1.347 . S
C476 H468 0.951 . S
C476 C471 1.429 . S
C476 C475 1.347 . S
H477 C478 0.951 . S
C478 H477 0.951 . S
C478 C484 1.265 . S
H479 C484 0.950 . S
H480 C488 0.949 . S
H481 C489 0.950 . S
H482 C490 0.951 . S
H483 C491 0.951 . S
C484 C478 1.265 . S
C484 H479 0.950 . S
C484 C485 1.478 . S
C485 C472 1.394 . S
C485 C484 1.478 . S
C485 C486 1.397 1_565 S
C486 C485 1.397 1_545 S
C486 C487 1.438 . S
C486 C491 1.429 . S
C487 C470 1.394 . S
C487 C486 1.438 . S
C487 C488 1.428 . S
C488 H480 0.949 . S
C488 C487 1.428 . S
C488 C489 1.345 . S
C489 H481 0.950 . S
C489 C488 1.345 . S
C489 C490 1.424 . S
C490 H482 0.951 . S
C490 C489 1.424 . S
C490 C491 1.347 . S
C491 H483 0.951 . S
C491 C486 1.429 . S
C491 C490 1.347 . S
H492 C493 0.951 . S
C493 H492 0.951 . S
C493 C499 1.265 . S
H494 C499 0.950 . S
H495 C503 0.949 . S
H496 C504 0.950 . S
H497 C505 0.951 . S
H498 C506 0.951 . S
C499 C493 1.265 . S
C499 H494 0.950 . S
C499 C500 1.478 . S
C500 C499 1.478 . S
C500 C501 1.397 1_554 S
C500 C517 1.394 . S
C501 C500 1.397 1_556 S
C501 C502 1.438 . S
C501 C506 1.429 . S
C502 C501 1.438 . S
C502 C503 1.428 . S
C502 C515 1.394 . S
C503 H495 0.949 . S
C503 C502 1.428 . S
C503 C504 1.345 . S
C504 H496 0.950 . S
C504 C503 1.345 . S
C504 C505 1.424 . S
C505 H497 0.951 . S
C505 C504 1.424 . S
C505 C506 1.347 . S
C506 H498 0.951 . S
C506 C501 1.429 . S
C506 C505 1.347 . S
H507 C508 0.951 . S
C508 H507 0.951 . S
C508 C514 1.265 . S
H509 C514 0.950 . S
H510 C518 0.949 . S
H511 C519 0.950 . S
H512 C520 0.951 . S
H513 C521 0.951 . S
C514 C508 1.265 . S
C514 H509 0.950 . S
C514 C515 1.478 . S
C515 C502 1.394 . S
C515 C514 1.478 . S
C515 C516 1.397 1_556 S
C516 C515 1.397 1_554 S
C516 C517 1.438 . S
C516 C521 1.429 . S
C517 C500 1.394 . S
C517 C516 1.438 . S
C517 C518 1.428 . S
C518 H510 0.949 . S
C518 C517 1.428 . S
C518 C519 1.345 . S
C519 H511 0.950 . S
C519 C518 1.345 . S
C519 C520 1.424 . S
C520 H512 0.951 . S
C520 C519 1.424 . S
C520 C521 1.347 . S
C521 H513 0.951 . S
C521 C516 1.429 . S
C521 C520 1.347 . S
H522 C523 0.951 . S
C523 H522 0.951 . S
C523 C529 1.265 . S
H524 C529 0.950 . S
H525 C533 0.949 1_455 S
H526 C534 0.950 . S
H527 C535 0.951 . S
H528 C536 0.951 . S
C529 C523 1.265 . S
C529 H524 0.950 . S
C529 C530 1.478 . S
C530 C529 1.478 . S
C530 C531 1.397 . S
C530 C547 1.394 1_655 S
C531 C530 1.397 . S
C531 C532 1.438 . S
C531 C536 1.429 . S
C532 C531 1.438 . S
C532 C533 1.428 . S
C532 C545 1.394 1_655 S
C533 H525 0.949 1_655 S
C533 C532 1.428 . S
C533 C534 1.345 . S
C534 H526 0.950 . S
C534 C533 1.345 . S
C534 C535 1.424 . S
C535 H527 0.951 . S
C535 C534 1.424 . S
C535 C536 1.347 . S
C536 H528 0.951 . S
C536 C531 1.429 . S
C536 C535 1.347 . S
H537 C538 0.951 . S
C538 H537 0.951 . S
C538 C544 1.265 . S
H539 C544 0.950 . S
H540 C548 0.949 1_655 S
H541 C549 0.950 . S
H542 C550 0.951 . S
H543 C551 0.951 . S
C544 C538 1.265 . S
C544 H539 0.950 . S
C544 C545 1.478 . S
C545 C532 1.394 1_455 S
C545 C544 1.478 . S
C545 C546 1.397 . S
C546 C545 1.397 . S
C546 C547 1.438 . S
C546 C551 1.429 . S
C547 C530 1.394 1_455 S
C547 C546 1.438 . S
C547 C548 1.428 . S
C548 H540 0.949 1_455 S
C548 C547 1.428 . S
C548 C549 1.345 . S
C549 H541 0.950 . S
C549 C548 1.345 . S
C549 C550 1.424 . S
C550 H542 0.951 . S
C550 C549 1.424 . S
C550 C551 1.347 . S
C551 H543 0.951 . S
C551 C546 1.429 . S
C551 C550 1.347 . S
H552 C553 0.951 . S
C553 H552 0.951 . S
C553 C559 1.265 . S
H554 C559 0.950 . S
H555 C563 0.949 . S
H556 C564 0.950 . S
H557 C565 0.951 . S
H558 C566 0.962 . S
C559 C553 1.265 . S
C559 H554 0.950 . S
C559 C560 1.478 . S
C560 C559 1.478 . S
C560 C561 1.397 1_565 S
C560 C577 1.394 1_554 S
C561 C560 1.397 1_545 S
C561 C562 1.438 . S
C561 C566 1.429 . S
C562 C561 1.438 . S
C562 C563 1.428 . S
C562 C575 1.394 1_554 S
C563 H555 0.949 . S
C563 C562 1.428 . S
C563 C564 1.345 . S
C564 H556 0.950 . S
C564 C563 1.345 . S
C564 C565 1.424 . S
C565 H557 0.951 . S
C565 C564 1.424 . S
C565 C566 1.347 . S
C566 H558 0.962 . S
C566 C561 1.429 . S
C566 C565 1.347 . S
H567 C568 0.951 . S
C568 H567 0.951 . S
C568 C574 1.265 . S
H569 C574 0.950 . S
H570 C578 0.949 . S
H571 C579 0.950 . S
H572 C580 0.951 . S
H573 C581 0.962 . S
C574 C568 1.265 . S
C574 H569 0.950 . S
C574 C575 1.478 . S
C575 C562 1.394 1_556 S
C575 C574 1.478 . S
C575 C576 1.397 1_545 S
C576 C575 1.397 1_565 S
C576 C577 1.438 . S
C576 C581 1.429 . S
C577 C560 1.394 1_556 S
C577 C576 1.438 . S
C577 C578 1.428 . S
C578 H570 0.949 . S
C578 C577 1.428 . S
C578 C579 1.345 . S
C579 H571 0.950 . S
C579 C578 1.345 . S
C579 C580 1.424 . S
C580 H572 0.951 . S
C580 C579 1.424 . S
C580 C581 1.347 . S
C581 H573 0.962 . S
C581 C576 1.429 . S
C581 C580 1.347 . S
H582 C583 0.951 . S
C583 H582 0.951 . S
C583 C589 1.265 . S
H584 C589 0.950 . S
H585 C593 0.949 . S
H586 C594 0.950 . S
H587 C595 0.951 . S
H588 C596 0.951 . S
C589 C583 1.265 . S
C589 H584 0.950 . S
C589 C590 1.478 . S
C590 C589 1.478 . S
C590 C591 1.397 . S
C590 C607 1.394 . S
C591 C590 1.397 . S
C591 C592 1.438 . S
C591 C596 1.429 . S
C592 C591 1.438 . S
C592 C593 1.428 . S
C592 C605 1.394 . S
C593 H585 0.949 . S
C593 C592 1.428 . S
C593 C594 1.345 . S
C594 H586 0.950 . S
C594 C593 1.345 . S
C594 C595 1.424 . S
C595 H587 0.951 . S
C595 C594 1.424 . S
C595 C596 1.347 . S
C596 H588 0.951 . S
C596 C591 1.429 . S
C596 C595 1.347 . S
H597 C598 0.951 . S
C598 H597 0.951 . S
C598 C604 1.265 . S
H599 C604 0.950 . S
H600 C608 0.949 . S
H601 C609 0.950 . S
H602 C610 0.951 . S
H603 C611 0.951 . S
C604 C598 1.265 . S
C604 H599 0.950 . S
C604 C605 1.478 . S
C605 C592 1.394 . S
C605 C604 1.478 . S
C605 C606 1.397 . S
C606 C605 1.397 . S
C606 C607 1.438 . S
C606 C611 1.429 . S
C607 C590 1.394 . S
C607 C606 1.438 . S
C607 C608 1.428 . S
C608 H600 0.949 . S
C608 C607 1.428 . S
C608 C609 1.345 . S
C609 H601 0.950 . S
C609 C608 1.345 . S
C609 C610 1.424 . S
C610 H602 0.951 . S
C610 C609 1.424 . S
C610 C611 1.347 . S
C611 H603 0.951 . S
C611 C606 1.429 . S
C611 C610 1.347 . S
H612 C613 0.951 . S
C613 H612 0.951 . S
C613 C619 1.265 . S
H614 C619 0.950 . S
H615 C623 0.949 . S
H616 C624 0.950 . S
H617 C625 0.951 . S
H618 C626 0.951 . S
C619 C613 1.265 . S
C619 H614 0.950 . S
C619 C620 1.478 . S
C620 C619 1.478 . S
C620 C621 1.397 1_556 S
C620 C637 1.394 . S
C621 C620 1.397 1_554 S
C621 C622 1.438 1_655 S
C621 C626 1.429 . S
C622 C621 1.438 1_455 S
C622 C623 1.428 . S
C622 C635 1.394 . S
C623 H615 0.949 . S
C623 C622 1.428 . S
C623 C624 1.345 1_455 S
C624 H616 0.950 . S
C624 C623 1.345 1_655 S
C624 C625 1.424 . S
C625 H617 0.951 . S
C625 C624 1.424 . S
C625 C626 1.347 . S
C626 H618 0.951 . S
C626 C621 1.429 . S
C626 C625 1.347 . S
H627 C628 0.951 . S
C628 H627 0.951 . S
C628 C634 1.265 . S
H629 C634 0.950 . S
H630 C638 0.949 . S
H631 C639 0.950 . S
H632 C640 0.951 . S
H633 C641 0.951 . S
C634 C628 1.265 . S
C634 H629 0.950 . S
C634 C635 1.478 . S
C635 C622 1.394 . S
C635 C634 1.478 . S
C635 C636 1.397 1_554 S
C636 C635 1.397 1_556 S
C636 C637 1.438 1_455 S
C636 C641 1.429 . S
C637 C620 1.394 . S
C637 C636 1.438 1_655 S
C637 C638 1.428 . S
C638 H630 0.949 . S
C638 C637 1.428 . S
C638 C639 1.345 1_655 S
C639 H631 0.950 . S
C639 C638 1.345 1_455 S
C639 C640 1.424 . S
C640 H632 0.951 . S
C640 C639 1.424 . S
C640 C641 1.347 . S
C641 H633 0.951 . S
C641 C636 1.429 . S
C641 C640 1.347 . S
H642 C643 0.951 . S
C643 H642 0.951 . S
C643 C649 1.265 . S
H644 C649 0.950 . S
H645 C653 0.949 1_545 S
H646 C654 0.950 . S
H647 C655 0.951 . S
H648 C656 0.951 . S
C649 C643 1.265 . S
C649 H644 0.950 . S
C649 C650 1.478 . S
C650 C649 1.478 . S
C650 C651 1.397 . S
C650 C667 1.394 1_565 S
C651 C650 1.397 . S
C651 C652 1.438 . S
C651 C656 1.429 . S
C652 C651 1.438 . S
C652 C653 1.428 . S
C652 C665 1.394 1_565 S
C653 H645 0.949 1_565 S
C653 C652 1.428 . S
C653 C654 1.345 . S
C654 H646 0.950 . S
C654 C653 1.345 . S
C654 C655 1.424 . S
C655 H647 0.951 . S
C655 C654 1.424 . S
C655 C656 1.347 . S
C656 H648 0.951 . S
C656 C651 1.429 . S
C656 C655 1.347 . S
H657 C658 0.951 . S
C658 H657 0.951 . S
C658 C664 1.265 . S
H659 C664 0.950 . S
H660 C668 0.949 1_565 S
H661 C669 0.950 . S
H662 C670 0.951 . S
H663 C671 0.951 . S
C664 C658 1.265 . S
C664 H659 0.950 . S
C664 C665 1.478 . S
C665 C652 1.394 1_545 S
C665 C664 1.478 . S
C665 C666 1.397 . S
C666 C665 1.397 . S
C666 C667 1.438 . S
C666 C671 1.429 . S
C667 C650 1.394 1_545 S
C667 C666 1.438 . S
C667 C668 1.428 . S
C668 H660 0.949 1_545 S
C668 C667 1.428 . S
C668 C669 1.345 . S
C669 H661 0.950 . S
C669 C668 1.345 . S
C669 C670 1.424 . S
C670 H662 0.951 . S
C670 C669 1.424 . S
C670 C671 1.347 . S
C671 H663 0.951 . S
C671 C666 1.429 . S
C671 C670 1.347 . S
C133 C5 1.281 . S
C148 C94 1.373 . S
C163 C28 1.277 . S
C178 C116 1.377 . S
C193 C7 1.377 . S
C208 C50 1.277 . S
C223 C72 1.277 . S
C238 C31 1.377 . S
C253 C53 1.325 . S
C268 C97 1.331 . S
C283 C75 1.277 . S
C298 C119 1.377 . S
C313 C117 1.561 . S
C328 C8 1.526 . S
C343 C29 1.555 . S
C358 C6 1.524 . S
C373 C26 1.526 . S
C388 C51 1.562 . S
C403 C48 1.559 . S
C418 C73 1.574 . S
C433 C70 1.573 . S
C448 C92 1.562 . S
C463 C114 1.526 . S
C478 C95 1.561 . S
C493 C49 1.537 . S
C508 C74 1.573 . S
C523 C71 1.535 . S
C538 C93 1.572 . S
C553 C96 1.564 . S
C568 C115 1.527 . S
C583 C118 1.538 . S
C598 C9 1.526 . S
C613 C30 1.565 . S
C628 C4 1.571 . S
C643 C52 1.542 . S
C658 C27 1.575 . S
