# Generated by pormake.
# Topology ukf, (4)-cn, num edge types: 1
# Building blocks:
#     Node 0, Type 0, BuildingBlock: AZAVOO_clean_sbu_0, # of connection points: 4
#     Node 1, Type 0, BuildingBlock: AZAVOO_clean_sbu_0, # of connection points: 4
#     Node 2, Type 0, BuildingBlock: AZAVOO_clean_sbu_0, # of connection points: 4
#     Node 3, Type 0, BuildingBlock: AZAVOO_clean_sbu_0, # of connection points: 4
#     Node 4, Type 0, BuildingBlock: AZAVOO_clean_sbu_0, # of connection points: 4
#     Node 5, Type 0, BuildingBlock: AZAVOO_clean_sbu_0, # of connection points: 4
#     Node 6, Type 0, BuildingBlock: AZAVOO_clean_sbu_0, # of connection points: 4
#     Node 7, Type 0, BuildingBlock: AZAVOO_clean_sbu_0, # of connection points: 4
#     Node 8, Type 0, BuildingBlock: AZAVOO_clean_sbu_0, # of connection points: 4
#     Node 9, Type 0, BuildingBlock: AZAVOO_clean_sbu_0, # of connection points: 4
#     Node 10, Type 0, BuildingBlock: AZAVOO_clean_sbu_0, # of connection points: 4
#     Node 11, Type 0, BuildingBlock: AZAVOO_clean_sbu_0, # of connection points: 4
#     Edge 12, Type (0, 0), BuildingBlock: TEMPAE_clean_linker_10, # of connection points: 2
#     Edge 13, Type (0, 0), BuildingBlock: TEMPAE_clean_linker_10, # of connection points: 2
#     Edge 14, Type (0, 0), BuildingBlock: TEMPAE_clean_linker_10, # of connection points: 2
#     Edge 15, Type (0, 0), BuildingBlock: TEMPAE_clean_linker_10, # of connection points: 2
#     Edge 16, Type (0, 0), BuildingBlock: TEMPAE_clean_linker_10, # of connection points: 2
#     Edge 17, Type (0, 0), BuildingBlock: TEMPAE_clean_linker_10, # of connection points: 2
#     Edge 18, Type (0, 0), BuildingBlock: TEMPAE_clean_linker_10, # of connection points: 2
#     Edge 19, Type (0, 0), BuildingBlock: TEMPAE_clean_linker_10, # of connection points: 2
#     Edge 20, Type (0, 0), BuildingBlock: TEMPAE_clean_linker_10, # of connection points: 2
#     Edge 21, Type (0, 0), BuildingBlock: TEMPAE_clean_linker_10, # of connection points: 2
#     Edge 22, Type (0, 0), BuildingBlock: TEMPAE_clean_linker_10, # of connection points: 2
#     Edge 23, Type (0, 0), BuildingBlock: TEMPAE_clean_linker_10, # of connection points: 2
#     Edge 24, Type (0, 0), BuildingBlock: TEMPAE_clean_linker_10, # of connection points: 2
#     Edge 25, Type (0, 0), BuildingBlock: TEMPAE_clean_linker_10, # of connection points: 2
#     Edge 26, Type (0, 0), BuildingBlock: TEMPAE_clean_linker_10, # of connection points: 2
#     Edge 27, Type (0, 0), BuildingBlock: TEMPAE_clean_linker_10, # of connection points: 2
#     Edge 28, Type (0, 0), BuildingBlock: TEMPAE_clean_linker_10, # of connection points: 2
#     Edge 29, Type (0, 0), BuildingBlock: TEMPAE_clean_linker_10, # of connection points: 2
#     Edge 30, Type (0, 0), BuildingBlock: TEMPAE_clean_linker_10, # of connection points: 2
#     Edge 31, Type (0, 0), BuildingBlock: TEMPAE_clean_linker_10, # of connection points: 2
#     Edge 32, Type (0, 0), BuildingBlock: TEMPAE_clean_linker_10, # of connection points: 2
#     Edge 33, Type (0, 0), BuildingBlock: TEMPAE_clean_linker_10, # of connection points: 2
#     Edge 34, Type (0, 0), BuildingBlock: TEMPAE_clean_linker_10, # of connection points: 2
#     Edge 35, Type (0, 0), BuildingBlock: TEMPAE_clean_linker_10, # of connection points: 2
# Relax obj value: 0.209
# Max RMSD: 0.201
# Mean RMSD: 0.201
data_MOF--net-ukf--node1-AZAVOO_clean_sbu_0--edge1-TEMPAE_clean_linker_10
_symmetry_space_group_name_H-M    P1
_symmetry_Int_Tables_number       1
_symmetry_cell_setting            triclinic
loop_
_symmetry_equiv_pos_as_xyz
'x, y, z'
_cell_length_a     32.057641
_cell_length_b     32.061799
_cell_length_c     64.453804
_cell_angle_alpha  89.951708
_cell_angle_beta   90.065098
_cell_angle_gamma 119.9038
loop_
_atom_site_label
_atom_site_type_symbol
_atom_site_fract_x
_atom_site_fract_y
_atom_site_fract_z
_atom_type_partial_charge
Mg0 Mg 0.34644 0.24341 0.05239 0.0
O1 O 0.42319 0.26141 0.0447 0.0
O2 O 0.47568 0.33195 0.05881 0.0
Mg3 Mg 0.43125 0.35736 0.07721 0.0
C4 C 0.46624 0.29518 0.0478 0.0
C5 C 0.32778 0.16318 0.02102 0.0
O6 O 0.34976 0.20182 0.00936 0.0
O7 O 0.35378 0.22137 0.0854 0.0
O8 O 0.40512 0.29279 0.09926 0.0
O9 O 0.35021 0.28665 0.02453 0.0
O10 O 0.36959 0.31613 0.05637 0.0
C11 C 0.37843 0.24716 0.10075 0.0
C12 C 0.36861 0.32349 0.0368 0.0
O13 O 0.32032 0.1678 0.04003 0.0
Mg14 Mg 0.19322 0.45236 0.37981 0.0
O15 O 0.25614 0.52628 0.37015 0.0
O16 O 0.24482 0.58192 0.386 0.0
Mg17 Mg 0.17401 0.54442 0.40408 0.0
C18 C 0.26919 0.57021 0.37411 0.0
C19 C 0.20961 0.36871 0.37162 0.0
O20 O 0.16754 0.34916 0.3809 0.0
O21 O 0.2228 0.4595 0.41266 0.0
O22 O 0.20461 0.51173 0.42709 0.0
O23 O 0.1504 0.45198 0.35237 0.0
O24 O 0.14988 0.48261 0.38304 0.0
C25 C 0.22104 0.48279 0.42838 0.0
C26 C 0.13572 0.475 0.36401 0.0
O27 O 0.23237 0.41394 0.36876 0.0
Mg28 Mg 0.73283 0.16093 0.7163 0.0
O29 O 0.71059 0.2154 0.70539 0.0
O30 O 0.63602 0.19049 0.7169 0.0
Mg31 Mg 0.6101 0.11997 0.7346 0.0
C32 C 0.67368 0.22053 0.70704 0.0
C33 C 0.81921 0.2234 0.68794 0.0
O34 O 0.78266 0.20941 0.67517 0.0
O35 O 0.74369 0.18992 0.74973 0.0
O36 O 0.66709 0.16011 0.7595 0.0
O37 O 0.69941 0.11739 0.68749 0.0
O38 O 0.6615 0.10739 0.71726 0.0
C39 C 0.71213 0.18342 0.76345 0.0
C40 C 0.65986 0.09608 0.69804 0.0
O41 O 0.81078 0.21182 0.70699 0.0
Mg42 Mg 0.64067 0.74247 0.05461 0.0
O43 O 0.56634 0.72922 0.04517 0.0
O44 O 0.50931 0.66048 0.05896 0.0
Mg45 Mg 0.54849 0.63163 0.07909 0.0
C46 C 0.5222 0.69754 0.04758 0.0
C47 C 0.66316 0.82393 0.02314 0.0
O48 O 0.63686 0.78562 0.01176 0.0
O49 O 0.63246 0.76662 0.08699 0.0
O50 O 0.57664 0.69704 0.10081 0.0
O51 O 0.63657 0.69731 0.02746 0.0
O52 O 0.61276 0.66915 0.05924 0.0
C53 C 0.6057 0.74231 0.10216 0.0
C54 C 0.61526 0.66089 0.03988 0.0
O55 O 0.67227 0.81847 0.04183 0.0
Mg56 Mg 0.80027 0.54461 0.38414 0.0
O57 O 0.73831 0.47166 0.37289 0.0
O58 O 0.74852 0.41464 0.38809 0.0
Mg59 Mg 0.81776 0.45042 0.40729 0.0
C60 C 0.72505 0.42742 0.37614 0.0
C61 C 0.78924 0.62898 0.3711 0.0
O62 O 0.83494 0.64782 0.37599 0.0
O63 O 0.76793 0.53434 0.41659 0.0
O64 O 0.78528 0.48087 0.43039 0.0
O65 O 0.84515 0.54748 0.35716 0.0
O66 O 0.84407 0.51465 0.38746 0.0
C67 C 0.76861 0.50956 0.43198 0.0
C68 C 0.85968 0.52406 0.36865 0.0
O69 O 0.76192 0.5838 0.37294 0.0
Mg70 Mg 0.25817 0.83044 0.70136 0.0
O71 O 0.2805 0.77502 0.69221 0.0
O72 O 0.35734 0.80437 0.7017 0.0
Mg73 Mg 0.38436 0.87867 0.71606 0.0
C74 C 0.31841 0.77149 0.69356 0.0
C75 C 0.15219 0.7948 0.69507 0.0
O76 O 0.17152 0.84119 0.69855 0.0
O77 O 0.25466 0.8099 0.73583 0.0
O78 O 0.33297 0.84371 0.74336 0.0
O79 O 0.28453 0.86614 0.67033 0.0
O80 O 0.3286 0.88463 0.69893 0.0
C81 C 0.28881 0.8204 0.74879 0.0
C82 C 0.32592 0.89034 0.67935 0.0
O83 O 0.17913 0.77623 0.69576 0.0
Mg84 Mg 0.71674 0.61008 0.62427 0.0
O85 O 0.69578 0.53364 0.63418 0.0
O86 O 0.61914 0.48295 0.6258 0.0
Mg87 Mg 0.59169 0.52788 0.60913 0.0
C88 C 0.65897 0.49153 0.63395 0.0
C89 C 0.8057 0.62584 0.6493 0.0
O90 O 0.77092 0.60373 0.66289 0.0
O91 O 0.72265 0.5916 0.59029 0.0
O92 O 0.645 0.54287 0.58272 0.0
O93 O 0.68704 0.61747 0.65471 0.0
O94 O 0.64527 0.59273 0.62554 0.0
C95 C 0.68933 0.56498 0.5775 0.0
C96 C 0.64608 0.59949 0.64522 0.0
O97 O 0.79527 0.63362 0.63119 0.0
Mg98 Mg 0.18835 0.7359 0.94639 0.0
O99 O 0.25059 0.72684 0.95883 0.0
O100 O 0.23937 0.65622 0.94736 0.0
Mg101 Mg 0.16963 0.61956 0.9285 0.0
C102 C 0.26348 0.6951 0.95765 0.0
C103 C 0.20109 0.83189 0.96018 0.0
O104 O 0.15422 0.80373 0.95884 0.0
O105 O 0.21902 0.75113 0.91339 0.0
O106 O 0.20164 0.67757 0.90322 0.0
O107 O 0.14549 0.69892 0.97468 0.0
O108 O 0.14418 0.66198 0.94556 0.0
C109 C 0.21798 0.7222 0.89947 0.0
C110 C 0.13033 0.65912 0.96451 0.0
O111 O 0.2281 0.81492 0.95532 0.0
Mg112 Mg 0.3425 0.08155 0.28968 0.0
O113 O 0.41828 0.14268 0.2971 0.0
O114 O 0.47339 0.12583 0.28509 0.0
Mg115 Mg 0.43123 0.05424 0.2676 0.0
C116 C 0.46199 0.15324 0.29493 0.0
C117 C 0.32646 0.14965 0.31786 0.0
O118 O 0.35336 0.13895 0.32959 0.0
O119 O 0.34995 0.10717 0.25608 0.0
O120 O 0.40408 0.08891 0.24385 0.0
O121 O 0.34698 0.04627 0.31877 0.0
O122 O 0.36831 0.03372 0.28774 0.0
C123 C 0.37587 0.10593 0.2413 0.0
C124 C 0.36728 0.02795 0.30754 0.0
O125 O 0.31414 0.13066 0.29997 0.0
Mg126 Mg 0.25372 0.3672 0.62046 0.0
O127 O 0.28152 0.44523 0.62995 0.0
O128 O 0.35943 0.49003 0.62199 0.0
Mg129 Mg 0.38089 0.43933 0.6063 0.0
C130 C 0.32073 0.48544 0.62974 0.0
C131 C 0.1461 0.31116 0.63274 0.0
O132 O 0.15761 0.27725 0.63421 0.0
O133 O 0.25169 0.38673 0.58627 0.0
O134 O 0.33035 0.4295 0.57931 0.0
O135 O 0.27907 0.35717 0.65146 0.0
O136 O 0.32278 0.37751 0.62277 0.0
C137 C 0.28643 0.41111 0.57372 0.0
C138 C 0.32027 0.37176 0.64258 0.0
O139 O 0.17773 0.35269 0.62657 0.0
Mg140 Mg 0.81843 0.2629 0.96069 0.0
O141 O 0.75593 0.2733 0.97168 0.0
O142 O 0.77114 0.34572 0.96059 0.0
Mg143 Mg 0.84405 0.38276 0.9441 0.0
C144 C 0.74454 0.30614 0.97009 0.0
C145 C 0.79869 0.16013 0.96648 0.0
O146 O 0.84393 0.18351 0.96057 0.0
O147 O 0.79206 0.25233 0.92698 0.0
O148 O 0.8141 0.32771 0.91768 0.0
O149 O 0.85893 0.29598 0.99023 0.0
O150 O 0.86316 0.33617 0.96164 0.0
C151 C 0.79646 0.2832 0.91329 0.0
C152 C 0.87474 0.33674 0.98078 0.0
O153 O 0.77571 0.18285 0.96762 0.0
Mg154 Mg 0.65598 0.91702 0.28989 0.0
O155 O 0.57999 0.85758 0.29812 0.0
O156 O 0.52577 0.87609 0.28636 0.0
Mg157 Mg 0.56851 0.94706 0.2685 0.0
C158 C 0.53656 0.84819 0.29622 0.0
C159 C 0.67349 0.84995 0.31831 0.0
O160 O 0.64993 0.86352 0.33069 0.0
O161 O 0.64583 0.89012 0.25643 0.0
O162 O 0.59276 0.9103 0.24457 0.0
O163 O 0.65426 0.95389 0.31896 0.0
O164 O 0.63208 0.96639 0.28809 0.0
C165 C 0.61969 0.89188 0.24185 0.0
C166 C 0.63425 0.97276 0.30786 0.0
O167 O 0.68289 0.86651 0.29993 0.0
C168 C 0.1911 0.90008 0.9727 0.0
C169 C 0.22152 0.88151 0.96825 0.0
C170 C 0.20932 0.94627 0.9811 0.0
C171 C 0.25916 0.97453 0.98526 0.0
C172 C 0.29019 0.95622 0.98066 0.0
C173 C 0.271 0.90993 0.97215 0.0
C174 C 0.17513 0.96469 0.98566 0.0
C175 C 0.34353 0.98532 0.98496 0.0
C176 C 0.31091 0.10937 0.99038 0.0
C177 C 0.31143 0.11506 0.01198 0.0
C178 C 0.29441 0.06389 0.98148 0.0
C179 C 0.27863 0.02321 0.9945 0.0
C180 C 0.27992 0.02881 0.01632 0.0
C181 C 0.29603 0.07466 0.0248 0.0
C182 C 0.29305 0.05924 0.95814 0.0
C183 C 0.26385 0.9863 0.03069 0.0
H184 H 0.15283 0.87843 0.9697 0.0
H185 H 0.29473 0.89578 0.96881 0.0
H186 H 0.17588 0.97245 0.00247 0.0
H187 H 0.18666 -0.00109 0.97723 0.0
H188 H 0.13749 0.93854 0.98116 0.0
H189 H 0.36281 0.96603 0.98036 0.0
H190 H 0.35945 0.01999 0.97645 0.0
H191 H 0.34974 0.99396 0.00174 0.0
H192 H 0.32266 0.14041 0.98037 0.0
H193 H 0.29666 0.07886 0.04151 0.0
H194 H 0.25544 0.03556 0.9529 0.0
H195 H 0.31417 0.0422 0.95315 0.0
H196 H 0.30758 0.09457 0.95021 0.0
H197 H 0.22521 0.96012 0.02805 0.0
H198 H 0.26898 -0.00297 0.0473 0.0
H199 H 0.28423 0.96748 0.02735 0.0
C200 C 0.27246 0.35826 0.35305 0.0
C201 C 0.22888 0.33812 0.36399 0.0
C202 C 0.29012 0.32915 0.34525 0.0
C203 C 0.26356 0.27881 0.34852 0.0
C204 C 0.2198 0.25835 0.3597 0.0
C205 C 0.20299 0.28825 0.36729 0.0
C206 C 0.33697 0.35218 0.3334 0.0
C207 C 0.19056 0.20481 0.36355 0.0
C208 C 0.28209 0.19486 0.31311 0.0
C209 C 0.31123 0.18358 0.32541 0.0
C210 C 0.267 0.22652 0.32029 0.0
C211 C 0.28135 0.24728 0.34025 0.0
C212 C 0.3113 0.23657 0.35262 0.0
C213 C 0.32592 0.20488 0.34504 0.0
C214 C 0.23517 0.23725 0.30664 0.0
C215 C 0.32733 0.25802 0.37398 0.0
H216 H 0.29266 0.39677 0.35042 0.0
H217 H 0.16931 0.27237 0.37574 0.0
H218 H 0.36294 0.34372 0.34101 0.0
H219 H 0.33086 0.33727 0.31745 0.0
H220 H 0.35348 0.3919 0.33237 0.0
H221 H 0.15747 0.19466 0.37268 0.0
H222 H 0.17997 0.18528 0.34854 0.0
H223 H 0.21257 0.19246 0.37202 0.0
H224 H 0.27078 0.17873 0.29788 0.0
H225 H 0.34867 0.19659 0.35461 0.0
H226 H 0.25179 0.27664 0.30428 0.0
H227 H 0.19997 0.22478 0.31435 0.0
H228 H 0.22866 0.21956 0.29123 0.0
H229 H 0.34593 0.29786 0.37311 0.0
H230 H 0.35198 0.24735 0.38133 0.0
H231 H 0.29549 0.24626 0.38416 0.0
C232 C 0.87675 0.2497 0.65817 0.0
C233 C 0.86888 0.24552 0.67968 0.0
C234 C 0.92246 0.26424 0.64989 0.0
C235 C 0.96135 0.27527 0.66346 0.0
C236 C 0.95426 0.2737 0.68519 0.0
C237 C 0.90806 0.25868 0.69305 0.0
C238 C 0.92852 0.26541 0.62663 0.0
C239 C 0.99502 0.28582 0.70015 0.0
C240 C 0.06193 0.2551 0.64444 0.0
C241 C 0.09817 0.302 0.63962 0.0
C242 C 0.01712 0.24596 0.65197 0.0
C243 C 0.0084 0.28472 0.65494 0.0
C244 C 0.04462 0.33213 0.64991 0.0
C245 C 0.08903 0.34019 0.64222 0.0
C246 C 0.97922 0.19481 0.65695 0.0
C247 C 0.03673 0.37437 0.65298 0.0
H248 H 0.84677 0.23979 0.64769 0.0
H249 H 0.90239 0.25587 0.70969 0.0
H250 H 0.95943 0.30032 0.62169 0.0
H251 H 0.93643 0.2368 0.62188 0.0
H252 H 0.89582 0.25978 0.61824 0.0
H253 H 0.98472 0.28724 0.71648 0.0
H254 H 0.00625 0.25828 0.69902 0.0
H255 H 0.02671 0.32102 0.69611 0.0
H256 H 0.06863 0.22538 0.64241 0.0
H257 H 0.11692 0.37659 0.63862 0.0
H258 H 0.94588 0.18478 0.64804 0.0
H259 H 0.96986 0.19166 0.67366 0.0
H260 H 0.99128 0.16862 0.6533 0.0
H261 H 0.00468 0.36879 0.64411 0.0
H262 H 0.06823 0.40889 0.64799 0.0
H263 H 0.02953 0.3773 0.6696 0.0
C264 C 0.67227 0.87836 0.99355 0.0
C265 C 0.68144 0.87266 0.01434 0.0
C266 C 0.68959 0.92429 0.98493 0.0
C267 C 0.71658 0.96547 0.99743 0.0
C268 C 0.72556 0.95997 0.01848 0.0
C269 C 0.70795 0.91363 0.02668 0.0
C270 C 0.67939 0.92875 0.9624 0.0
C271 C 0.75407 0.00308 0.03231 0.0
C272 C 0.8024 0.08491 0.97211 0.0
C273 C 0.77627 0.10926 0.97318 0.0
C274 C 0.78302 0.03777 0.9796 0.0
C275 C 0.73639 0.01441 0.98841 0.0
C276 C 0.70936 0.03834 0.98912 0.0
C277 C 0.72961 0.0855 0.98147 0.0
C278 C 0.81284 0.01332 0.97848 0.0
C279 C 0.65947 0.01451 0.99839 0.0
H280 H 0.6517 0.8469 0.98391 0.0
H281 H 0.71504 0.90955 0.04278 0.0
H282 H 0.66046 0.94966 0.96102 0.0
H283 H 0.71373 0.94871 0.95374 0.0
H284 H 0.65705 0.89316 0.9549 0.0
H285 H 0.75698 0.99264 0.04846 0.0
H286 H 0.79088 0.02557 0.02599 0.0
H287 H 0.73691 0.02576 0.03269 0.0
H288 H 0.83842 0.10292 0.96567 0.0
H289 H 0.70916 0.10403 0.98235 0.0
H290 H 0.79267 0.97849 0.97019 0.0
H291 H 0.82025 0.00534 0.99437 0.0
H292 H 0.84771 0.03573 0.97044 0.0
H293 H 0.63605 0.97961 0.99059 0.0
H294 H 0.64246 0.03727 0.99704 0.0
H295 H 0.66122 0.00672 0.01504 0.0
C296 C 0.68337 0.80253 0.34672 0.0
C297 C 0.68858 0.81579 0.32573 0.0
C298 C 0.69818 0.77083 0.35413 0.0
C299 C 0.71828 0.7516 0.34018 0.0
C300 C 0.72286 0.76414 0.3189 0.0
C301 C 0.70814 0.79629 0.31194 0.0
C302 C 0.69308 0.75857 0.37696 0.0
C303 C 0.74377 0.74401 0.30354 0.0
C304 C 0.80117 0.71 0.36219 0.0
C305 C 0.77061 0.66001 0.36329 0.0
C306 C 0.78455 0.74014 0.35467 0.0
C307 C 0.73622 0.71981 0.34802 0.0
C308 C 0.70513 0.66939 0.34904 0.0
C309 C 0.72268 0.64005 0.35671 0.0
C310 C 0.81873 0.79379 0.35391 0.0
C311 C 0.6534 0.64648 0.342 0.0
H312 H 0.66825 0.8174 0.35747 0.0
H313 H 0.71196 0.80612 0.29567 0.0
H314 H 0.67153 0.71903 0.37911 0.0
H315 H 0.72908 0.77067 0.38383 0.0
H316 H 0.67559 0.77561 0.38566 0.0
H317 H 0.74299 0.75576 0.2874 0.0
H318 H 0.7816 0.75573 0.30775 0.0
H319 H 0.72348 0.70411 0.30407 0.0
H320 H 0.83824 0.72575 0.36724 0.0
H321 H 0.69888 0.60144 0.35747 0.0
H322 H 0.80437 0.81267 0.3634 0.0
H323 H 0.82199 0.80697 0.33774 0.0
H324 H 0.85521 0.80387 0.3597 0.0
H325 H 0.63416 0.66089 0.3512 0.0
H326 H 0.63403 0.60669 0.34362 0.0
H327 H 0.65187 0.65563 0.32552 0.0
C328 C 0.86759 0.63946 0.67616 0.0
C329 C 0.85644 0.64445 0.65557 0.0
C330 C 0.91552 0.66027 0.68285 0.0
C331 C 0.95325 0.68652 0.66859 0.0
C332 C 0.94229 0.69007 0.64759 0.0
C333 C 0.89399 0.66907 0.64134 0.0
C334 C 0.92574 0.65576 0.70537 0.0
C335 C 0.98156 0.7175 0.63189 0.0
C336 C 0.07161 0.78707 0.68938 0.0
C337 C 0.10077 0.7659 0.68919 0.0
C338 C 0.0235 0.76142 0.68288 0.0
C339 C 0.00396 0.71337 0.67596 0.0
C340 C 0.03293 0.69147 0.67598 0.0
C341 C 0.08103 0.71799 0.68265 0.0
C342 C 0.99371 0.78599 0.68322 0.0
C343 C 0.01329 0.64031 0.66869 0.0
H344 H 0.83884 0.6203 0.68725 0.0
H345 H 0.88572 0.67284 0.62537 0.0
H346 H 0.95148 0.64228 0.70666 0.0
H347 H 0.94273 0.69171 0.71284 0.0
H348 H 0.89257 0.63116 0.71411 0.0
H349 H 0.9672 0.71367 0.61588 0.0
H350 H 0.00122 0.75627 0.63599 0.0
H351 H 0.00803 0.70478 0.63211 0.0
H352 H 0.08647 0.82402 0.69446 0.0
H353 H 0.10334 0.70139 0.68242 0.0
H354 H 0.96114 0.76507 0.69289 0.0
H355 H 0.98135 0.78747 0.66729 0.0
H356 H 0.01405 0.82323 0.68942 0.0
H357 H 0.98096 0.61567 0.67785 0.0
H358 H 0.04015 0.62818 0.67008 0.0
H359 H 0.00192 0.6371 0.65223 0.0
C360 C 0.68089 0.32865 0.97524 0.0
C361 C 0.70064 0.29969 0.98065 0.0
C362 C 0.64149 0.32553 0.98607 0.0
C363 C 0.62175 0.29319 0.00294 0.0
C364 C 0.64094 0.26327 0.00829 0.0
C365 C 0.67993 0.2666 0.99697 0.0
C366 C 0.62146 0.35742 0.97965 0.0
C367 C 0.62119 0.22873 0.02633 0.0
C368 C 0.5541 0.32415 0.04278 0.0
C369 C 0.50605 0.29276 0.03722 0.0
C370 C 0.59206 0.32373 0.03211 0.0
C371 C 0.58177 0.29167 0.01527 0.0
C372 C 0.53337 0.2595 0.00974 0.0
C373 C 0.49612 0.26019 0.02086 0.0
C374 C 0.64322 0.35813 0.03866 0.0
C375 C 0.52094 0.22525 0.9917 0.0
H376 H 0.69646 0.35408 0.96256 0.0
H377 H 0.69514 0.24432 1.00135 0.0
H378 H 0.58228 0.33529 0.97656 0.0
H379 H 0.62613 0.38253 0.99244 0.0
H380 H 0.63933 0.37886 0.96555 0.0
H381 H 0.63922 0.207 0.02812 0.0
H382 H 0.62595 0.24906 0.0409 0.0
H383 H 0.58203 0.20395 0.02428 0.0
H384 H 0.56212 0.34928 0.05544 0.0
H385 H 0.45914 0.23597 0.01634 0.0
H386 H 0.66255 0.38396 0.02594 0.0
H387 H 0.66256 0.33812 0.04172 0.0
H388 H 0.64506 0.37878 0.0528 0.0
H389 H 0.53561 0.24597 0.97714 0.0
H390 H 0.48148 0.20141 0.98984 0.0
H391 H 0.53772 0.20251 0.9938 0.0
C392 C 0.33355 0.65655 0.37083 0.0
C393 C 0.31188 0.60912 0.36342 0.0
C394 C 0.37131 0.69453 0.35995 0.0
C395 C 0.38739 0.68503 0.34103 0.0
C396 C 0.36635 0.63715 0.33366 0.0
C397 C 0.3291 0.5997 0.34503 0.0
C398 C 0.39345 0.74498 0.36854 0.0
C399 C 0.3822 0.62567 0.31345 0.0
C400 C 0.44941 0.79031 0.30361 0.0
C401 C 0.4981 0.80495 0.30682 0.0
C402 C 0.41298 0.75068 0.3143 0.0
C403 C 0.42552 0.72546 0.32877 0.0
C404 C 0.47453 0.73979 0.33197 0.0
C405 C 0.51015 0.77911 0.32088 0.0
C406 C 0.36106 0.73616 0.3103 0.0
C407 C 0.48945 0.71429 0.34747 0.0
H408 H 0.32068 0.66413 0.38509 0.0
H409 H 0.31237 0.56324 0.33911 0.0
H410 H 0.43298 0.7609 0.37005 0.0
H411 H 0.38705 0.76808 0.35767 0.0
H412 H 0.37847 0.74598 0.38394 0.0
H413 H 0.36315 0.58644 0.31014 0.0
H414 H 0.37528 0.64425 0.30049 0.0
H415 H 0.42147 0.63912 0.31376 0.0
H416 H 0.43968 0.80996 0.29279 0.0
H417 H 0.54763 0.79018 0.3236 0.0
H418 H 0.34457 0.74033 0.3247 0.0
H419 H 0.3404 0.69766 0.3058 0.0
H420 H 0.35722 0.75803 0.29787 0.0
H421 H 0.47742 0.71745 0.36323 0.0
H422 H 0.52904 0.72921 0.34779 0.0
H423 H 0.47185 0.67539 0.34375 0.0
C424 C 0.70238 0.28287 0.67904 0.0
C425 C 0.6737 0.26168 0.69661 0.0
C426 C 0.70065 0.32015 0.66833 0.0
C427 C 0.67039 0.33739 0.67566 0.0
C428 C 0.64219 0.31685 0.69366 0.0
C429 C 0.64375 0.27887 0.70377 0.0
C430 C 0.73057 0.34053 0.64897 0.0
C431 C 0.61036 0.33503 0.70226 0.0
C432 C 0.69807 0.46235 0.65915 0.0
C433 C 0.66237 0.45193 0.64417 0.0
C434 C 0.70103 0.42545 0.66953 0.0
C435 C 0.66813 0.3769 0.66452 0.0
C436 C 0.63251 0.36611 0.64917 0.0
C437 C 0.6297 0.40377 0.63934 0.0
C438 C 0.73886 0.43844 0.68612 0.0
C439 C 0.59735 0.31479 0.64314 0.0
H440 H 0.72527 0.26943 0.67333 0.0
H441 H 0.62176 0.26283 0.71743 0.0
H442 H 0.70682 0.33604 0.6356 0.0
H443 H 0.75562 0.37967 0.65088 0.0
H444 H 0.75188 0.32284 0.64521 0.0
H445 H 0.59201 0.31632 0.71681 0.0
H446 H 0.63206 0.37419 0.70542 0.0
H447 H 0.5826 0.32986 0.69066 0.0
H448 H 0.72318 0.49948 0.66311 0.0
H449 H 0.60217 0.39548 0.62772 0.0
H450 H 0.76237 0.42337 0.68219 0.0
H451 H 0.72132 0.42241 0.70116 0.0
H452 H 0.76173 0.47797 0.68815 0.0
H453 H 0.61715 0.29625 0.63827 0.0
H454 H 0.5732 0.31256 0.63028 0.0
H455 H 0.57491 0.29495 0.65669 0.0
C456 C 0.32249 0.73354 0.98675 0.0
C457 C 0.30546 0.7015 0.96992 0.0
C458 C 0.35881 0.73616 0.99984 0.0
C459 C 0.37906 0.70656 0.99581 0.0
C460 C 0.36331 0.6755 0.97841 0.0
C461 C 0.3265 0.6731 0.96577 0.0
C462 C 0.37436 0.7694 0.01835 0.0
C463 C 0.38462 0.64399 0.97338 0.0
C464 C 0.49941 0.73655 0.0195 0.0
C465 C 0.48536 0.70238 0.03551 0.0
C466 C 0.46523 0.73894 0.0067 0.0
C467 C 0.41568 0.7068 0.01012 0.0
C468 C 0.40114 0.67335 0.02668 0.0
C469 C 0.43614 0.67132 0.03908 0.0
C470 C 0.48223 0.77478 0.98908 0.0
C471 C 0.34859 0.63891 0.03099 0.0
H472 H 0.30626 0.7554 0.99017 0.0
H473 H 0.3138 0.64849 0.95273 0.0
H474 H 0.36557 0.74796 0.03285 0.0
H475 H 0.4139 0.7938 0.01813 0.0
H476 H 0.35656 0.79154 0.01883 0.0
H477 H 0.37031 0.62384 0.95865 0.0
H478 H 0.42435 0.66618 0.97214 0.0
H479 H 0.37664 0.61772 0.9861 0.0
H480 H 0.53731 0.76069 0.01654 0.0
H481 H 0.42488 0.64495 0.05144 0.0
H482 H 0.465 0.79733 0.99001 0.0
H483 H 0.47143 0.75536 0.97406 0.0
H484 H 0.52193 0.79875 0.98911 0.0
H485 H 0.32892 0.65901 0.03273 0.0
H486 H 0.34317 0.61728 0.04524 0.0
H487 H 0.33228 0.61396 0.01769 0.0
C488 C 0.4874 0.22271 0.31927 0.0
C489 C 0.50004 0.19694 0.30546 0.0
C490 C 0.52251 0.26181 0.33064 0.0
C491 C 0.57164 0.27604 0.32798 0.0
C492 C 0.58482 0.2512 0.31362 0.0
C493 C 0.54888 0.21176 0.30263 0.0
C494 C 0.50687 0.28691 0.34599 0.0
C495 C 0.6369 0.26567 0.31016 0.0
C496 C 0.66758 0.40037 0.34612 0.0
C497 C 0.68316 0.38949 0.36465 0.0
C498 C 0.63107 0.36388 0.33407 0.0
C499 C 0.6091 0.3155 0.34088 0.0
C500 C 0.62355 0.30452 0.35992 0.0
C501 C 0.66062 0.34156 0.37148 0.0
C502 C 0.61699 0.37692 0.31375 0.0
C503 C 0.60038 0.2535 0.36793 0.0
H504 H 0.44983 0.21164 0.32164 0.0
H505 H 0.55908 0.19222 0.292 0.0
H506 H 0.51742 0.28259 0.3619 0.0
H507 H 0.52527 0.32604 0.34266 0.0
H508 H 0.46736 0.27251 0.34569 0.0
H509 H 0.64136 0.24466 0.29753 0.0
H510 H 0.6581 0.30449 0.30623 0.0
H511 H 0.6523 0.26017 0.32463 0.0
H512 H 0.68503 0.43724 0.34065 0.0
H513 H 0.67222 0.33286 0.38584 0.0
H514 H 0.57777 0.36377 0.3135 0.0
H515 H 0.62472 0.35905 0.30078 0.0
H516 H 0.63656 0.41635 0.31092 0.0
H517 H 0.5608 0.23788 0.36893 0.0
H518 H 0.61417 0.2513 0.38347 0.0
H519 H 0.60722 0.2309 0.35698 0.0
C520 C 0.35507 0.57447 0.63313 0.0
C521 C 0.32121 0.52762 0.63927 0.0
C522 C 0.35485 0.61452 0.64183 0.0
C523 C 0.32078 0.60751 0.6574 0.0
C524 C 0.28721 0.56032 0.66395 0.0
C525 C 0.28746 0.52094 0.65463 0.0
C526 C 0.39058 0.66428 0.63415 0.0
C527 C 0.25114 0.5514 0.68088 0.0
C528 C 0.34853 0.71307 0.69273 0.0
C529 C 0.31801 0.72876 0.68471 0.0
C530 C 0.34938 0.67328 0.68415 0.0
C531 C 0.31998 0.64948 0.66679 0.0
C532 C 0.28938 0.66544 0.65853 0.0
C533 C 0.28829 0.70451 0.66777 0.0
C534 C 0.3815 0.65651 0.69373 0.0
C535 C 0.25827 0.64163 0.63976 0.0
H536 H 0.38112 0.57977 0.62122 0.0
H537 H 0.26157 0.48481 0.65962 0.0
H538 H 0.3712 0.68232 0.62807 0.0
H539 H 0.41358 0.68651 0.64715 0.0
H540 H 0.41414 0.66352 0.6217 0.0
H541 H 0.22859 0.51258 0.68467 0.0
H542 H 0.2701 0.57104 0.69516 0.0
H543 H 0.22712 0.56532 0.67606 0.0
H544 H 0.37137 0.7316 0.7059 0.0
H545 H 0.26505 0.71688 0.66139 0.0
H546 H 0.40817 0.65878 0.68218 0.0
H547 H 0.35971 0.61823 0.69845 0.0
H548 H 0.40117 0.67815 0.70754 0.0
H549 H 0.28102 0.64268 0.62658 0.0
H550 H 0.23753 0.65926 0.63489 0.0
H551 H 0.23259 0.60323 0.64312 0.0
C552 C 0.4052 0.25222 0.1376 0.0
C553 C 0.37589 0.22427 0.12112 0.0
C554 C 0.40325 0.23186 0.15707 0.0
C555 C 0.37113 0.18225 0.16027 0.0
C556 C 0.34127 0.15372 0.1438 0.0
C557 C 0.34406 0.17504 0.12439 0.0
C558 C 0.43593 0.26347 0.1742 0.0
C559 C 0.30655 0.10066 0.14667 0.0
C560 C 0.40291 0.12453 0.20433 0.0
C561 C 0.37335 0.12435 0.22045 0.0
C562 C 0.4017 0.14225 0.18457 0.0
C563 C 0.37012 0.16024 0.18074 0.0
C564 C 0.33962 0.15954 0.19678 0.0
C565 C 0.34164 0.14168 0.21646 0.0
C566 C 0.43498 0.14258 0.16791 0.0
C567 C 0.30542 0.1784 0.19325 0.0
H568 H 0.43 0.29026 0.13531 0.0
H569 H 0.32116 0.15314 0.11181 0.0
H570 H 0.41426 0.2621 0.18786 0.0
H571 H 0.46017 0.25001 0.17929 0.0
H572 H 0.45833 0.30158 0.16928 0.0
H573 H 0.28504 0.0837 0.13247 0.0
H574 H 0.32658 0.0819 0.15084 0.0
H575 H 0.28159 0.09508 0.15965 0.0
H576 H 0.42751 0.11117 0.20715 0.0
H577 H 0.31851 0.14155 0.22874 0.0
H578 H 0.46056 0.18019 0.16323 0.0
H579 H 0.41404 0.12338 0.15392 0.0
H580 H 0.45596 0.12546 0.17314 0.0
H581 H 0.3261 0.21739 0.18959 0.0
H582 H 0.28241 0.17314 0.20699 0.0
H583 H 0.28189 0.16009 0.17973 0.0
C584 C 0.23677 0.50143 0.46625 0.0
C585 C 0.23437 0.47313 0.44918 0.0
C586 C 0.24494 0.49035 0.48637 0.0
C587 C 0.25071 0.44985 0.48958 0.0
C588 C 0.24913 0.42153 0.47242 0.0
C589 C 0.24115 0.4336 0.45241 0.0
C590 C 0.247 0.52181 0.50423 0.0
C591 C 0.25519 0.3781 0.47525 0.0
C592 C 0.31504 0.44878 0.53881 0.0
C593 C 0.27655 0.41943 0.55202 0.0
C594 C 0.3071 0.45832 0.51841 0.0
C595 C 0.25947 0.43793 0.51088 0.0
C596 C 0.22038 0.40772 0.52396 0.0
C597 C 0.22936 0.39889 0.5444 0.0
C598 C 0.34975 0.49091 0.50501 0.0
C599 C 0.16906 0.3852 0.51641 0.0
H600 H 0.23172 0.53212 0.46396 0.0
H601 H 0.23908 0.41131 0.43938 0.0
H602 H 0.2186 0.50006 0.51571 0.0
H603 H 0.28214 0.5367 0.51231 0.0
H604 H 0.24211 0.55219 0.4991 0.0
H605 H 0.25311 0.35986 0.46032 0.0
H606 H 0.29043 0.38891 0.48262 0.0
H607 H 0.22688 0.35188 0.48579 0.0
H608 H 0.35171 0.46493 0.54444 0.0
H609 H 0.1994 0.37609 0.55442 0.0
H610 H 0.34766 0.52325 0.50054 0.0
H611 H 0.34921 0.47215 0.49047 0.0
H612 H 0.38461 0.50282 0.51301 0.0
H613 H 0.16052 0.41378 0.51241 0.0
H614 H 0.14282 0.36111 0.5282 0.0
H615 H 0.16441 0.36413 0.50208 0.0
C616 C 0.78854 0.30219 0.87632 0.0
C617 C 0.78361 0.26819 0.89133 0.0
C618 C 0.77911 0.28978 0.8553 0.0
C619 C 0.76423 0.24212 0.84903 0.0
C620 C 0.75903 0.20751 0.86403 0.0
C621 C 0.76875 0.22094 0.88501 0.0
C622 C 0.78481 0.32766 0.8398 0.0
C623 C 0.74298 0.15625 0.85791 0.0
C624 C 0.69234 0.19808 0.79922 0.0
C625 C 0.72694 0.20108 0.785 0.0
C626 C 0.70408 0.21128 0.82003 0.0
C627 C 0.7517 0.22803 0.82692 0.0
C628 C 0.78712 0.23194 0.81267 0.0
C629 C 0.77435 0.21848 0.79184 0.0
C630 C 0.66534 0.20695 0.83468 0.0
C631 C 0.83835 0.24988 0.8195 0.0
H632 H 0.80006 0.33886 0.88094 0.0
H633 H 0.76505 0.19445 0.89642 0.0
H634 H 0.81033 0.33109 0.82742 0.0
H635 H 0.74975 0.31678 0.83224 0.0
H636 H 0.7981 0.36347 0.84711 0.0
H637 H 0.74206 0.13403 0.87133 0.0
H638 H 0.70652 0.13946 0.85092 0.0
H639 H 0.76758 0.15562 0.84597 0.0
H640 H 0.65562 0.18496 0.79415 0.0
H641 H 0.80129 0.22079 0.78102 0.0
H642 H 0.67592 0.24252 0.84162 0.0
H643 H 0.66093 0.1822 0.8476 0.0
H644 H 0.63002 0.1933 0.82683 0.0
H645 H 0.85373 0.28649 0.8262 0.0
H646 H 0.86168 0.2511 0.80651 0.0
H647 H 0.83913 0.22616 0.83185 0.0
C648 C 0.57828 0.74027 0.13869 0.0
C649 C 0.60905 0.76646 0.12227 0.0
C650 C 0.58155 0.76169 0.15803 0.0
C651 C 0.61648 0.81058 0.16112 0.0
C652 C 0.64759 0.83739 0.14465 0.0
C653 C 0.64348 0.81504 0.1254 0.0
C654 C 0.54749 0.73193 0.17515 0.0
C655 C 0.68524 0.88965 0.1474 0.0
C656 C 0.59181 0.87428 0.20493 0.0
C657 C 0.62027 0.87222 0.22105 0.0
C658 C 0.59109 0.8553 0.18525 0.0
C659 C 0.6195 0.83366 0.18152 0.0
C660 C 0.64888 0.83202 0.19756 0.0
C661 C 0.64891 0.85129 0.21715 0.0
C662 C 0.55918 0.85763 0.16856 0.0
C663 C 0.67966 0.80919 0.19414 0.0
H664 H 0.55146 0.70276 0.1365 0.0
H665 H 0.6675 0.83559 0.11287 0.0
H666 H 0.5682 0.73139 0.18886 0.0
H667 H 0.52578 0.74833 0.18016 0.0
H668 H 0.52261 0.69424 0.17028 0.0
H669 H 0.70694 0.90537 0.13313 0.0
H670 H 0.66776 0.91086 0.15162 0.0
H671 H 0.70982 0.89346 0.1603 0.0
H672 H 0.56963 0.89045 0.20768 0.0
H673 H 0.67112 0.84961 0.22944 0.0
H674 H 0.53141 0.82068 0.164 0.0
H675 H 0.58069 0.87552 0.15452 0.0
H676 H 0.54079 0.87743 0.17371 0.0
H677 H 0.6564 0.7704 0.19057 0.0
H678 H 0.70209 0.81271 0.2079 0.0
H679 H 0.70366 0.82598 0.1806 0.0
C680 C 0.74915 0.58221 0.54881 0.0
C681 C 0.7014 0.5589 0.55586 0.0
C682 C 0.76018 0.57576 0.52836 0.0
C683 C 0.7226 0.54525 0.51469 0.0
C684 C 0.67439 0.52207 0.52164 0.0
C685 C 0.66441 0.52917 0.54207 0.0
C686 C 0.81206 0.60111 0.52145 0.0
C687 C 0.6333 0.48914 0.50757 0.0
C688 C 0.74455 0.55493 0.45641 0.0
C689 C 0.75359 0.51698 0.45281 0.0
C690 C 0.73468 0.56478 0.47649 0.0
C691 C 0.7336 0.53587 0.49334 0.0
C692 C 0.74178 0.49701 0.48975 0.0
C693 C 0.75168 0.48806 0.46957 0.0
C694 C 0.72594 0.60644 0.47973 0.0
C695 C 0.74043 0.46502 0.50727 0.0
H696 H 0.77797 0.60531 0.55929 0.0
H697 H 0.62731 0.51097 0.54724 0.0
H698 H 0.8227 0.57419 0.51718 0.0
H699 H 0.81655 0.62303 0.50742 0.0
H700 H 0.8369 0.62495 0.5337 0.0
H701 H 0.59768 0.47497 0.51518 0.0
H702 H 0.6337 0.50857 0.49326 0.0
H703 H 0.63757 0.45825 0.50277 0.0
H704 H 0.74618 0.57766 0.44362 0.0
H705 H 0.7585 0.45859 0.46701 0.0
H706 H 0.75286 0.63257 0.49076 0.0
H707 H 0.68991 0.59344 0.4867 0.0
H708 H 0.72807 0.62549 0.46502 0.0
H709 H 0.76757 0.48687 0.5192 0.0
H710 H 0.74764 0.43631 0.50189 0.0
H711 H 0.70467 0.44785 0.5149 0.0
C712 C 0.23356 0.70829 0.8628 0.0
C713 C 0.23206 0.73928 0.8778 0.0
C714 C 0.24225 0.72166 0.84185 0.0
C715 C 0.2497 0.7672 0.83564 0.0
C716 C 0.24915 0.79909 0.85069 0.0
C717 C 0.24042 0.7848 0.87161 0.0
C718 C 0.24303 0.68679 0.82631 0.0
C719 C 0.25719 0.84806 0.84465 0.0
C720 C 0.31581 0.81706 0.78488 0.0
C721 C 0.27796 0.80635 0.77096 0.0
C722 C 0.30709 0.80508 0.80595 0.0
C723 C 0.25931 0.78172 0.81344 0.0
C724 C 0.22083 0.77085 0.79958 0.0
C725 C 0.2306 0.78326 0.77849 0.0
C726 C 0.3491 0.81709 0.82018 0.0
C727 C 0.16936 0.74586 0.80703 0.0
H728 H 0.22729 0.67308 0.86736 0.0
H729 H 0.23911 0.80893 0.88302 0.0
H730 H 0.21511 0.67809 0.81427 0.0
H731 H 0.27833 0.70347 0.8183 0.0
H732 H 0.23654 0.65271 0.83366 0.0
H733 H 0.25574 0.86867 0.85821 0.0
H734 H 0.29275 0.86925 0.83703 0.0
H735 H 0.2295 0.84411 0.83325 0.0
H736 H 0.35261 0.83489 0.77934 0.0
H737 H 0.20113 0.77495 0.76793 0.0
H738 H 0.34531 0.7836 0.82702 0.0
H739 H 0.34948 0.83986 0.83321 0.0
H740 H 0.38422 0.83634 0.81201 0.0
H741 H 0.15953 0.70999 0.81344 0.0
H742 H 0.14365 0.74103 0.79443 0.0
H743 H 0.1653 0.76688 0.81974 0.0
C744 C 0.5827 0.57345 0.04402 0.0
C745 C 0.58622 0.6115 0.03208 0.0
C746 C 0.54769 0.52588 0.03967 0.0
C747 C 0.51455 0.51643 0.02332 0.0
C748 C 0.52002 0.55449 0.01033 0.0
C749 C 0.55626 0.60181 0.01478 0.0
C750 C 0.54384 0.48623 0.05364 0.0
C751 C 0.48525 0.54593 0.99288 0.0
C752 C 0.43379 0.38292 0.01412 0.0
C753 C 0.39781 0.37264 0.02883 0.0
C754 C 0.47066 0.43052 0.01078 0.0
C755 C 0.47063 0.46824 0.02219 0.0
C756 C 0.43154 0.45813 0.0355 0.0
C757 C 0.39598 0.41026 0.03892 0.0
C758 C 0.51185 0.43968 0.99664 0.0
C759 C 0.42952 0.49739 0.04762 0.0
H760 H 0.60604 0.58116 0.05738 0.0
H761 H 0.5587 0.63145 0.00571 0.0
H762 H 0.51155 0.47314 0.06365 0.0
H763 H 0.53955 0.45527 0.04431 0.0
H764 H 0.57589 0.49863 0.0638 0.0
H765 H 0.49965 0.57672 0.98189 0.0
H766 H 0.47669 0.51274 0.98419 0.0
H767 H 0.45108 0.54099 0.99944 0.0
H768 H 0.4355 0.35356 0.00659 0.0
H769 H 0.36809 0.40202 0.05034 0.0
H770 H 0.5427 0.44419 0.00616 0.0
H771 H 0.52409 0.47321 0.98757 0.0
H772 H 0.50184 0.40928 0.98576 0.0
H773 H 0.45685 0.51023 0.06018 0.0
H774 H 0.39364 0.4846 0.05478 0.0
H775 H 0.43798 0.52857 0.03747 0.0
C776 C 0.9239 0.53458 0.34367 0.0
C777 C 0.8953 0.51129 0.36104 0.0
C778 C 0.96361 0.52921 0.33864 0.0
C779 C 0.97455 0.49981 0.35127 0.0
C780 C 0.94336 0.47316 0.36773 0.0
C781 C 0.90426 0.47939 0.37243 0.0
C782 C -0.00435 0.55771 0.32081 0.0
C783 C 0.95325 0.44076 0.38142 0.0
C784 C 0.06568 0.45999 0.34197 0.0
C785 C 0.10106 0.48893 0.35642 0.0
C786 C 0.0257 0.46592 0.33846 0.0
C787 C 0.02161 0.50173 0.34961 0.0
C788 C 0.05998 0.53433 0.36241 0.0
C789 C 0.09921 0.52738 0.36571 0.0
C790 C 0.98593 0.43105 0.32439 0.0
C791 C 0.05757 0.57371 0.37425 0.0
H792 H 0.91701 0.55914 0.33471 0.0
H793 H 0.88198 0.46066 0.38562 0.0
H794 H 0.02766 0.59028 0.32694 0.0
H795 H 0.00864 0.53644 0.3122 0.0
H796 H 0.97678 0.56946 0.30983 0.0
H797 H 0.92296 0.41895 0.39215 0.0
H798 H 0.96001 0.41601 0.37185 0.0
H799 H 0.98604 0.46294 0.39082 0.0
H800 H 0.06728 0.43041 0.33462 0.0
H801 H 0.12731 0.55074 0.37635 0.0
H802 H 0.97047 0.4495 0.31528 0.0
H803 H 0.95659 0.40294 0.33394 0.0
H804 H -0.00117 0.41304 0.31352 0.0
H805 H 0.04575 0.59358 0.36395 0.0
H806 H 0.09281 0.59976 0.38123 0.0
H807 H 0.03074 0.55751 0.38692 0.0
C808 C 0.60579 0.06272 0.6669 0.0
C809 C 0.61312 0.06297 0.68837 0.0
C810 C 0.55967 0.03395 0.6583 0.0
C811 C 0.52049 0.0052 0.67158 0.0
C812 C 0.52849 0.00396 0.69315 0.0
C813 C 0.5746 0.03276 0.70121 0.0
C814 C 0.5528 0.03592 0.63524 0.0
C815 C 0.48812 0.973 0.70792 0.0
C816 C 0.39092 0.96942 0.66813 0.0
C817 C 0.37046 0.91945 0.66784 0.0
C818 C 0.44075 -0.00068 0.66593 0.0
C819 C 0.47022 0.97821 0.66382 0.0
C820 C 0.44869 0.92806 0.66039 0.0
C821 C 0.39872 0.89901 0.66264 0.0
C822 C 0.46217 0.05273 0.66916 0.0
C823 C 0.4787 0.9043 0.65741 0.0
H824 H 0.63563 0.08605 0.65692 0.0
H825 H 0.58035 0.03212 0.71776 0.0
H826 H 0.5258 0.00017 0.62909 0.0
H827 H 0.53948 0.06128 0.63208 0.0
H828 H 0.58715 0.04879 0.6267 0.0
H829 H 0.50055 0.97668 0.72426 0.0
H830 H 0.45949 0.9828 0.70718 0.0
H831 H 0.47187 0.93466 0.7034 0.0
H832 H 0.36879 0.98496 0.67231 0.0
H833 H 0.38261 0.86017 0.66253 0.0
H834 H 0.49343 0.0733 0.65877 0.0
H835 H 0.47506 0.06186 0.68541 0.0
H836 H 0.4353 0.06438 0.66634 0.0
H837 H 0.51107 0.92716 0.64791 0.0
H838 H 0.45763 0.86855 0.64987 0.0
H839 H 0.49102 0.89893 0.67277 0.0
C840 C 0.56089 0.57729 0.64721 0.0
C841 C 0.60009 0.57672 0.65641 0.0
C842 C 0.51376 0.54316 0.65261 0.0
C843 C 0.5059 0.5073 0.66745 0.0
C844 C 0.54538 0.5106 0.67874 0.0
C845 C 0.59241 0.54547 0.67302 0.0
C846 C 0.47282 0.54189 0.64044 0.0
C847 C 0.53851 0.47434 0.69522 0.0
C848 C 0.37207 0.42358 0.67138 0.0
C849 C 0.36548 0.39347 0.65445 0.0
C850 C 0.41869 0.45784 0.67788 0.0
C851 C 0.45891 0.46175 0.66705 0.0
C852 C 0.45203 0.42686 0.6519 0.0
C853 C 0.40527 0.39321 0.64575 0.0
C854 C 0.42445 0.49301 0.69468 0.0
C855 C 0.49381 0.42885 0.64019 0.0
H856 H 0.56709 0.60184 0.63446 0.0
H857 H 0.62285 0.54501 0.68013 0.0
H858 H 0.45834 0.51129 0.62939 0.0
H859 H 0.44313 0.53646 0.65093 0.0
H860 H 0.48444 0.57551 0.63146 0.0
H861 H 0.56819 0.4901 0.70677 0.0
H862 H 0.50366 0.46089 0.70338 0.0
H863 H 0.53879 0.44318 0.68789 0.0
H864 H 0.34123 0.42377 0.67817 0.0
H865 H 0.39996 0.36948 0.63279 0.0
H866 H 0.42482 0.52472 0.68757 0.0
H867 H 0.45867 0.50578 0.70332 0.0
H868 H 0.39394 0.47656 0.70579 0.0
H869 H 0.50914 0.46017 0.6295 0.0
H870 H 0.48277 0.39582 0.63087 0.0
H871 H 0.52272 0.43355 0.65102 0.0
C872 C 0.08179 0.60806 0.99454 0.0
C873 C 0.09756 0.61186 0.97396 0.0
C874 C 0.04649 0.56356 0.00264 0.0
C875 C 0.02643 0.5224 0.98973 0.0
C876 C 0.04424 0.52574 0.96932 0.0
C877 C 0.07944 0.57035 0.96173 0.0
C878 C 0.02914 0.56147 0.02457 0.0
C879 C 0.02414 0.48273 0.95496 0.0
C880 C 0.94923 0.39062 1.00031 0.0
C881 C 0.90667 0.38291 0.99083 0.0
C882 C 0.98782 0.43763 0.00301 0.0
C883 C 0.98306 0.47693 0.99598 0.0
C884 C 0.9375 0.46911 0.98952 0.0
C885 C 0.89978 0.42194 0.9869 0.0
C886 C 0.03532 0.44476 0.01077 0.0
C887 C 0.93035 0.51006 0.98253 0.0
H888 H 0.09587 0.64 0.00414 0.0
H889 H 0.09119 0.57284 0.94582 0.0
H890 H -0.00256 0.56668 0.02436 0.0
H891 H 0.01812 0.52618 0.03193 0.0
H892 H 0.05738 0.59041 0.03428 0.0
H893 H 0.044 0.49094 0.94003 0.0
H894 H 0.02571 0.45241 0.96247 0.0
H895 H 0.98582 0.47049 0.95151 0.0
H896 H 0.95424 0.3602 0.00355 0.0
H897 H 0.86613 0.41564 0.98018 0.0
H898 H 0.05444 0.47807 0.02017 0.0
H899 H 0.0585 0.44843 0.99731 0.0
H900 H 0.03042 0.41365 0.02023 0.0
H901 H 0.94836 0.541 0.9933 0.0
H902 H 0.8916 0.49904 0.98149 0.0
H903 H 0.94668 0.52239 0.96695 0.0
C904 C 0.57251 0.9639 0.33354 0.0
C905 C 0.60378 0.98982 0.31728 0.0
C906 C 0.53301 0.96986 0.33822 0.0
C907 C 0.52535 0.00275 0.32644 0.0
C908 C 0.56015 0.03287 0.31169 0.0
C909 C 0.59872 0.0256 0.30713 0.0
C910 C 0.49708 0.93748 0.3542 0.0
C911 C 0.554 0.06923 0.29909 0.0
C912 C 0.4047 0.97679 0.30644 0.0
C913 C 0.39871 0.01176 0.31678 0.0
C914 C 0.44347 0.96992 0.31113 0.0
C915 C 0.47756 -0.00039 0.32622 0.0
C916 C 0.46911 0.03182 0.33807 0.0
C917 C 0.42941 0.0374 0.33325 0.0
C918 C 0.45048 0.93427 0.29842 0.0
C919 C 0.50428 0.06375 0.3544 0.0
H920 H 0.57624 0.93588 0.34128 0.0
H921 H 0.62312 0.04568 0.2946 0.0
H922 H 0.48146 0.95645 0.36278 0.0
H923 H 0.46718 0.90602 0.34629 0.0
H924 H 0.51373 0.92387 0.36548 0.0
H925 H 0.58717 0.09397 0.29039 0.0
H926 H 0.52429 0.05013 0.28777 0.0
H927 H 0.54427 0.09097 0.30925 0.0
H928 H 0.38071 0.95689 0.29376 0.0
H929 H 0.42495 0.06479 0.34114 0.0
H930 H 0.45956 0.912 0.30858 0.0
H931 H 0.48092 0.95398 0.2875 0.0
H932 H 0.4179 0.90998 0.28926 0.0
H933 H 0.51974 0.04464 0.36302 0.0
H934 H 0.48701 0.07677 0.36561 0.0
H935 H 0.53437 0.09559 0.34679 0.0
loop_
_geom_bond_atom_site_label_1
_geom_bond_atom_site_label_2
_geom_bond_distance
_geom_bond_site_symmetry_2
_ccdc_geom_bond_type
Mg0 O1 2.028 . S
Mg0 O7 1.986 . S
Mg0 O9 2.114 . S
Mg0 O10 2.251 . S
Mg0 O13 2.010 . S
O1 Mg0 2.028 . S
O1 C4 1.250 . S
O2 Mg3 2.028 . S
O2 C4 1.248 . S
Mg3 O2 2.028 . S
Mg3 O8 2.032 . S
Mg3 O10 2.079 . S
C4 O1 1.250 . S
C4 O2 1.248 . S
C5 O6 1.264 . S
C5 O13 1.249 . S
O6 C5 1.264 . S
O7 Mg0 1.986 . S
O7 C11 1.246 . S
O8 Mg3 2.032 . S
O8 C11 1.259 . S
O9 Mg0 2.114 . S
O9 C12 1.252 . S
O10 Mg0 2.251 . S
O10 Mg3 2.079 . S
O10 C12 1.273 . S
C11 O7 1.246 . S
C11 O8 1.259 . S
C12 O9 1.252 . S
C12 O10 1.273 . S
O13 Mg0 2.010 . S
O13 C5 1.249 . S
Mg14 O15 2.028 . S
Mg14 O21 1.986 . S
Mg14 O23 2.114 . S
Mg14 O24 2.251 . S
Mg14 O27 2.010 . S
O15 Mg14 2.028 . S
O15 C18 1.250 . S
O16 Mg17 2.028 . S
O16 C18 1.248 . S
Mg17 O16 2.028 . S
Mg17 O22 2.032 . S
Mg17 O24 2.079 . S
C18 O15 1.250 . S
C18 O16 1.248 . S
C19 O20 1.264 . S
C19 O27 1.249 . S
O20 C19 1.264 . S
O21 Mg14 1.986 . S
O21 C25 1.246 . S
O22 Mg17 2.032 . S
O22 C25 1.259 . S
O23 Mg14 2.114 . S
O23 C26 1.252 . S
O24 Mg14 2.251 . S
O24 Mg17 2.079 . S
O24 C26 1.273 . S
C25 O21 1.246 . S
C25 O22 1.259 . S
C26 O23 1.252 . S
C26 O24 1.273 . S
O27 Mg14 2.010 . S
O27 C19 1.249 . S
Mg28 O29 2.028 . S
Mg28 O35 1.986 . S
Mg28 O37 2.114 . S
Mg28 O38 2.251 . S
Mg28 O41 2.010 . S
O29 Mg28 2.028 . S
O29 C32 1.250 . S
O30 Mg31 2.028 . S
O30 C32 1.248 . S
Mg31 O30 2.028 . S
Mg31 O36 2.032 . S
Mg31 O38 2.079 . S
C32 O29 1.250 . S
C32 O30 1.248 . S
C33 O34 1.264 . S
C33 O41 1.249 . S
O34 C33 1.264 . S
O35 Mg28 1.986 . S
O35 C39 1.246 . S
O36 Mg31 2.032 . S
O36 C39 1.259 . S
O37 Mg28 2.114 . S
O37 C40 1.252 . S
O38 Mg28 2.251 . S
O38 Mg31 2.079 . S
O38 C40 1.273 . S
C39 O35 1.246 . S
C39 O36 1.259 . S
C40 O37 1.252 . S
C40 O38 1.273 . S
O41 Mg28 2.010 . S
O41 C33 1.249 . S
Mg42 O43 2.028 . S
Mg42 O49 1.986 . S
Mg42 O51 2.114 . S
Mg42 O52 2.251 . S
Mg42 O55 2.010 . S
O43 Mg42 2.028 . S
O43 C46 1.250 . S
O44 Mg45 2.028 . S
O44 C46 1.248 . S
Mg45 O44 2.028 . S
Mg45 O50 2.032 . S
Mg45 O52 2.079 . S
C46 O43 1.250 . S
C46 O44 1.248 . S
C47 O48 1.264 . S
C47 O55 1.249 . S
O48 C47 1.264 . S
O49 Mg42 1.986 . S
O49 C53 1.246 . S
O50 Mg45 2.032 . S
O50 C53 1.259 . S
O51 Mg42 2.114 . S
O51 C54 1.252 . S
O52 Mg42 2.251 . S
O52 Mg45 2.079 . S
O52 C54 1.273 . S
C53 O49 1.246 . S
C53 O50 1.259 . S
C54 O51 1.252 . S
C54 O52 1.273 . S
O55 Mg42 2.010 . S
O55 C47 1.249 . S
Mg56 O57 2.028 . S
Mg56 O63 1.986 . S
Mg56 O65 2.114 . S
Mg56 O66 2.251 . S
Mg56 O69 2.010 . S
O57 Mg56 2.028 . S
O57 C60 1.250 . S
O58 Mg59 2.028 . S
O58 C60 1.248 . S
Mg59 O58 2.028 . S
Mg59 O64 2.032 . S
Mg59 O66 2.079 . S
C60 O57 1.250 . S
C60 O58 1.248 . S
C61 O62 1.264 . S
C61 O69 1.249 . S
O62 C61 1.264 . S
O63 Mg56 1.986 . S
O63 C67 1.246 . S
O64 Mg59 2.032 . S
O64 C67 1.259 . S
O65 Mg56 2.114 . S
O65 C68 1.252 . S
O66 Mg56 2.251 . S
O66 Mg59 2.079 . S
O66 C68 1.273 . S
C67 O63 1.246 . S
C67 O64 1.259 . S
C68 O65 1.252 . S
C68 O66 1.273 . S
O69 Mg56 2.010 . S
O69 C61 1.249 . S
Mg70 O71 2.028 . S
Mg70 O77 1.986 . S
Mg70 O79 2.114 . S
Mg70 O80 2.251 . S
Mg70 O83 2.010 . S
O71 Mg70 2.028 . S
O71 C74 1.250 . S
O72 Mg73 2.028 . S
O72 C74 1.248 . S
Mg73 O72 2.028 . S
Mg73 O78 2.032 . S
Mg73 O80 2.079 . S
C74 O71 1.250 . S
C74 O72 1.248 . S
C75 O76 1.264 . S
C75 O83 1.249 . S
O76 C75 1.264 . S
O77 Mg70 1.986 . S
O77 C81 1.246 . S
O78 Mg73 2.032 . S
O78 C81 1.259 . S
O79 Mg70 2.114 . S
O79 C82 1.252 . S
O80 Mg70 2.251 . S
O80 Mg73 2.079 . S
O80 C82 1.273 . S
C81 O77 1.246 . S
C81 O78 1.259 . S
C82 O79 1.252 . S
C82 O80 1.273 . S
O83 Mg70 2.010 . S
O83 C75 1.249 . S
Mg84 O85 2.028 . S
Mg84 O91 1.986 . S
Mg84 O93 2.114 . S
Mg84 O94 2.251 . S
Mg84 O97 2.010 . S
O85 Mg84 2.028 . S
O85 C88 1.250 . S
O86 Mg87 2.028 . S
O86 C88 1.248 . S
Mg87 O86 2.028 . S
Mg87 O92 2.032 . S
Mg87 O94 2.079 . S
C88 O85 1.250 . S
C88 O86 1.248 . S
C89 O90 1.264 . S
C89 O97 1.249 . S
O90 C89 1.264 . S
O91 Mg84 1.986 . S
O91 C95 1.246 . S
O92 Mg87 2.032 . S
O92 C95 1.259 . S
O93 Mg84 2.114 . S
O93 C96 1.252 . S
O94 Mg84 2.251 . S
O94 Mg87 2.079 . S
O94 C96 1.273 . S
C95 O91 1.246 . S
C95 O92 1.259 . S
C96 O93 1.252 . S
C96 O94 1.273 . S
O97 Mg84 2.010 . S
O97 C89 1.249 . S
Mg98 O99 2.028 . S
Mg98 O105 1.986 . S
Mg98 O107 2.114 . S
Mg98 O108 2.251 . S
Mg98 O111 2.010 . S
O99 Mg98 2.028 . S
O99 C102 1.250 . S
O100 Mg101 2.028 . S
O100 C102 1.248 . S
Mg101 O100 2.028 . S
Mg101 O106 2.032 . S
Mg101 O108 2.079 . S
C102 O99 1.250 . S
C102 O100 1.248 . S
C103 O104 1.264 . S
C103 O111 1.249 . S
O104 C103 1.264 . S
O105 Mg98 1.986 . S
O105 C109 1.246 . S
O106 Mg101 2.032 . S
O106 C109 1.259 . S
O107 Mg98 2.114 . S
O107 C110 1.252 . S
O108 Mg98 2.251 . S
O108 Mg101 2.079 . S
O108 C110 1.273 . S
C109 O105 1.246 . S
C109 O106 1.259 . S
C110 O107 1.252 . S
C110 O108 1.273 . S
O111 Mg98 2.010 . S
O111 C103 1.249 . S
Mg112 O113 2.028 . S
Mg112 O119 1.986 . S
Mg112 O121 2.114 . S
Mg112 O122 2.251 . S
Mg112 O125 2.010 . S
O113 Mg112 2.028 . S
O113 C116 1.250 . S
O114 Mg115 2.028 . S
O114 C116 1.248 . S
Mg115 O114 2.028 . S
Mg115 O120 2.032 . S
Mg115 O122 2.079 . S
C116 O113 1.250 . S
C116 O114 1.248 . S
C117 O118 1.264 . S
C117 O125 1.249 . S
O118 C117 1.264 . S
O119 Mg112 1.986 . S
O119 C123 1.246 . S
O120 Mg115 2.032 . S
O120 C123 1.259 . S
O121 Mg112 2.114 . S
O121 C124 1.252 . S
O122 Mg112 2.251 . S
O122 Mg115 2.079 . S
O122 C124 1.273 . S
C123 O119 1.246 . S
C123 O120 1.259 . S
C124 O121 1.252 . S
C124 O122 1.273 . S
O125 Mg112 2.010 . S
O125 C117 1.249 . S
Mg126 O127 2.028 . S
Mg126 O133 1.986 . S
Mg126 O135 2.114 . S
Mg126 O136 2.251 . S
Mg126 O139 2.010 . S
O127 Mg126 2.028 . S
O127 C130 1.250 . S
O128 Mg129 2.028 . S
O128 C130 1.248 . S
Mg129 O128 2.028 . S
Mg129 O134 2.032 . S
Mg129 O136 2.079 . S
C130 O127 1.250 . S
C130 O128 1.248 . S
C131 O132 1.264 . S
C131 O139 1.249 . S
O132 C131 1.264 . S
O133 Mg126 1.986 . S
O133 C137 1.246 . S
O134 Mg129 2.032 . S
O134 C137 1.259 . S
O135 Mg126 2.114 . S
O135 C138 1.252 . S
O136 Mg126 2.251 . S
O136 Mg129 2.079 . S
O136 C138 1.273 . S
C137 O133 1.246 . S
C137 O134 1.259 . S
C138 O135 1.252 . S
C138 O136 1.273 . S
O139 Mg126 2.010 . S
O139 C131 1.249 . S
Mg140 O141 2.028 . S
Mg140 O147 1.986 . S
Mg140 O149 2.114 . S
Mg140 O150 2.251 . S
Mg140 O153 2.010 . S
O141 Mg140 2.028 . S
O141 C144 1.250 . S
O142 Mg143 2.028 . S
O142 C144 1.248 . S
Mg143 O142 2.028 . S
Mg143 O148 2.032 . S
Mg143 O150 2.079 . S
C144 O141 1.250 . S
C144 O142 1.248 . S
C145 O146 1.264 . S
C145 O153 1.249 . S
O146 C145 1.264 . S
O147 Mg140 1.986 . S
O147 C151 1.246 . S
O148 Mg143 2.032 . S
O148 C151 1.259 . S
O149 Mg140 2.114 . S
O149 C152 1.252 . S
O150 Mg140 2.251 . S
O150 Mg143 2.079 . S
O150 C152 1.273 . S
C151 O147 1.246 . S
C151 O148 1.259 . S
C152 O149 1.252 . S
C152 O150 1.273 . S
O153 Mg140 2.010 . S
O153 C145 1.249 . S
Mg154 O155 2.028 . S
Mg154 O161 1.986 . S
Mg154 O163 2.114 . S
Mg154 O164 2.251 . S
Mg154 O167 2.010 . S
O155 Mg154 2.028 . S
O155 C158 1.250 . S
O156 Mg157 2.028 . S
O156 C158 1.248 . S
Mg157 O156 2.028 . S
Mg157 O162 2.032 . S
Mg157 O164 2.079 . S
C158 O155 1.250 . S
C158 O156 1.248 . S
C159 O160 1.264 . S
C159 O167 1.249 . S
O160 C159 1.264 . S
O161 Mg154 1.986 . S
O161 C165 1.246 . S
O162 Mg157 2.032 . S
O162 C165 1.259 . S
O163 Mg154 2.114 . S
O163 C166 1.252 . S
O164 Mg154 2.251 . S
O164 Mg157 2.079 . S
O164 C166 1.273 . S
C165 O161 1.246 . S
C165 O162 1.259 . S
C166 O163 1.252 . S
C166 O164 1.273 . S
O167 Mg154 2.010 . S
O167 C159 1.249 . S
C168 C169 1.391 1_554 S
C168 C170 1.394 . S
C168 H184 0.931 . S
C169 C168 1.391 1_556 S
C169 C173 1.376 . S
C170 C168 1.394 . S
C170 C171 1.384 . S
C170 C174 1.531 . S
C171 C170 1.384 . S
C171 C172 1.383 1_554 S
C171 C179 1.513 1_565 S
C172 C171 1.383 1_556 S
C172 C173 1.392 . S
C172 C175 1.511 . S
C173 C169 1.376 . S
C173 C172 1.392 . S
C173 H185 0.929 . S
C174 C170 1.531 . S
C174 H186 0.960 . S
C174 H187 0.962 . S
C174 H188 0.960 . S
C175 C172 1.511 . S
C175 H189 0.961 . S
C175 H190 0.961 1_565 S
C175 H191 0.961 . S
C176 C177 1.370 1_556 S
C176 C178 1.363 . S
C176 H192 0.931 . S
C177 C176 1.370 1_554 S
C177 C181 1.408 . S
C178 C176 1.363 . S
C178 C179 1.370 1_556 S
C178 C182 1.524 . S
C179 C171 1.513 1_545 S
C179 C178 1.370 1_554 S
C179 C180 1.403 . S
C180 C179 1.403 . S
C180 C181 1.404 . S
C180 C183 1.539 . S
C181 C177 1.408 . S
C181 C180 1.404 . S
C181 H193 0.930 . S
C182 C178 1.524 . S
C182 H194 0.956 . S
C182 H195 0.961 . S
C182 H196 0.961 . S
C183 C180 1.539 . S
C183 H197 0.958 1_545 S
C183 H198 0.961 . S
C183 H199 0.960 1_545 S
H184 C168 0.931 . S
H185 C173 0.929 . S
H186 C174 0.960 . S
H187 C174 0.962 . S
H188 C174 0.960 . S
H189 C175 0.961 . S
H190 C175 0.961 1_545 S
H191 C175 0.961 . S
H192 C176 0.931 . S
H193 C181 0.930 . S
H194 C182 0.956 . S
H195 C182 0.961 . S
H196 C182 0.961 . S
H197 C183 0.958 1_565 S
H198 C183 0.961 . S
H199 C183 0.960 1_565 S
C200 C201 1.391 . S
C200 C202 1.394 . S
C200 H216 0.931 . S
C201 C200 1.391 . S
C201 C205 1.376 . S
C202 C200 1.394 . S
C202 C203 1.369 . S
C202 C206 1.531 . S
C203 C202 1.369 . S
C203 C204 1.410 . S
C203 C211 1.503 . S
C204 C203 1.410 . S
C204 C205 1.392 . S
C204 C207 1.511 . S
C205 C201 1.376 . S
C205 C204 1.392 . S
C205 H217 0.929 . S
C206 C202 1.531 . S
C206 H218 0.960 . S
C206 H219 0.962 . S
C206 H220 0.960 . S
C207 C204 1.511 . S
C207 H221 0.961 . S
C207 H222 0.961 . S
C207 H223 0.961 . S
C208 C209 1.370 . S
C208 C210 1.363 . S
C208 H224 0.931 . S
C209 C208 1.370 . S
C209 C213 1.408 . S
C210 C208 1.363 . S
C210 C211 1.370 . S
C210 C214 1.524 . S
C211 C203 1.503 . S
C211 C210 1.370 . S
C211 C212 1.403 . S
C212 C211 1.403 . S
C212 C213 1.404 . S
C212 C215 1.539 . S
C213 C209 1.408 . S
C213 C212 1.404 . S
C213 H225 0.930 . S
C214 C210 1.524 . S
C214 H226 0.956 . S
C214 H227 0.961 . S
C214 H228 0.961 . S
C215 C212 1.539 . S
C215 H229 0.958 . S
C215 H230 0.961 . S
C215 H231 0.960 . S
H216 C200 0.931 . S
H217 C205 0.929 . S
H218 C206 0.960 . S
H219 C206 0.962 . S
H220 C206 0.960 . S
H221 C207 0.961 . S
H222 C207 0.961 . S
H223 C207 0.961 . S
H224 C208 0.931 . S
H225 C213 0.930 . S
H226 C214 0.956 . S
H227 C214 0.961 . S
H228 C214 0.961 . S
H229 C215 0.958 . S
H230 C215 0.961 . S
H231 C215 0.960 . S
C232 C233 1.391 . S
C232 C234 1.394 . S
C232 H248 0.931 . S
C233 C232 1.391 . S
C233 C237 1.376 . S
C234 C232 1.394 . S
C234 C235 1.369 . S
C234 C238 1.531 . S
C235 C234 1.369 . S
C235 C236 1.410 . S
C235 C243 1.503 1_655 S
C236 C235 1.410 . S
C236 C237 1.392 . S
C236 C239 1.511 . S
C237 C233 1.376 . S
C237 C236 1.392 . S
C237 H249 0.929 . S
C238 C234 1.531 . S
C238 H250 0.960 . S
C238 H251 0.962 . S
C238 H252 0.960 . S
C239 C236 1.511 . S
C239 H253 0.961 . S
C239 H254 0.961 1_655 S
C239 H255 0.961 1_655 S
C240 C241 1.370 . S
C240 C242 1.363 . S
C240 H256 0.931 . S
C241 C240 1.370 . S
C241 C245 1.408 . S
C242 C240 1.363 . S
C242 C243 1.370 . S
C242 C246 1.524 . S
C243 C235 1.503 1_455 S
C243 C242 1.370 . S
C243 C244 1.403 . S
C244 C243 1.403 . S
C244 C245 1.404 . S
C244 C247 1.539 . S
C245 C241 1.408 . S
C245 C244 1.404 . S
C245 H257 0.930 . S
C246 C242 1.524 . S
C246 H258 0.956 1_455 S
C246 H259 0.961 1_455 S
C246 H260 0.961 . S
C247 C244 1.539 . S
C247 H261 0.958 . S
C247 H262 0.961 . S
C247 H263 0.960 . S
H248 C232 0.931 . S
H249 C237 0.929 . S
H250 C238 0.960 . S
H251 C238 0.962 . S
H252 C238 0.960 . S
H253 C239 0.961 . S
H254 C239 0.961 1_455 S
H255 C239 0.961 1_455 S
H256 C240 0.931 . S
H257 C245 0.930 . S
H258 C246 0.956 1_655 S
H259 C246 0.961 1_655 S
H260 C246 0.961 . S
H261 C247 0.958 . S
H262 C247 0.961 . S
H263 C247 0.960 . S
C264 C265 1.391 . S
C264 C266 1.394 . S
C264 H280 0.931 . S
C265 C264 1.391 . S
C265 C269 1.376 . S
C266 C264 1.394 . S
C266 C267 1.369 1_554 S
C266 C270 1.531 1_554 S
C267 C266 1.369 1_556 S
C267 C268 1.410 1_556 S
C267 C275 1.503 1_565 S
C268 C267 1.410 1_554 S
C268 C269 1.392 . S
C268 C271 1.511 1_554 S
C269 C265 1.376 . S
C269 C268 1.392 . S
C269 H281 0.929 . S
C270 C266 1.531 1_556 S
C270 H282 0.960 . S
C270 H283 0.962 1_556 S
C270 H284 0.960 . S
C271 C268 1.511 1_556 S
C271 H285 0.961 1_556 S
C271 H286 0.961 1_566 S
C271 H287 0.961 . S
C272 C273 1.370 1_554 S
C272 C274 1.363 . S
C272 H288 0.931 . S
C273 C272 1.370 1_556 S
C273 C277 1.408 . S
C274 C272 1.363 . S
C274 C275 1.370 1_554 S
C274 C278 1.524 . S
C275 C267 1.503 1_545 S
C275 C274 1.370 1_556 S
C275 C276 1.403 . S
C276 C275 1.403 . S
C276 C277 1.404 . S
C276 C279 1.539 . S
C277 C273 1.408 . S
C277 C276 1.404 . S
C277 H289 0.930 . S
C278 C274 1.524 . S
C278 H290 0.956 . S
C278 H291 0.961 . S
C278 H292 0.961 . S
C279 C276 1.539 . S
C279 H293 0.958 1_545 S
C279 H294 0.961 . S
C279 H295 0.960 1_545 S
H280 C264 0.931 . S
H281 C269 0.929 . S
H282 C270 0.960 . S
H283 C270 0.962 1_554 S
H284 C270 0.960 . S
H285 C271 0.961 1_554 S
H286 C271 0.961 1_544 S
H287 C271 0.961 . S
H288 C272 0.931 . S
H289 C277 0.930 . S
H290 C278 0.956 . S
H291 C278 0.961 . S
H292 C278 0.961 . S
H293 C279 0.958 1_565 S
H294 C279 0.961 . S
H295 C279 0.960 1_565 S
C296 C297 1.391 . S
C296 C298 1.394 . S
C296 H312 0.931 . S
C297 C296 1.391 . S
C297 C301 1.376 . S
C298 C296 1.394 . S
C298 C299 1.369 . S
C298 C302 1.531 . S
C299 C298 1.369 . S
C299 C300 1.410 . S
C299 C307 1.503 . S
C300 C299 1.410 . S
C300 C301 1.392 . S
C300 C303 1.511 . S
C301 C297 1.376 . S
C301 C300 1.392 . S
C301 H313 0.929 . S
C302 C298 1.531 . S
C302 H314 0.960 . S
C302 H315 0.962 . S
C302 H316 0.960 . S
C303 C300 1.511 . S
C303 H317 0.961 . S
C303 H318 0.961 . S
C303 H319 0.961 . S
C304 C305 1.370 . S
C304 C306 1.363 . S
C304 H320 0.931 . S
C305 C304 1.370 . S
C305 C309 1.408 . S
C306 C304 1.363 . S
C306 C307 1.370 . S
C306 C310 1.524 . S
C307 C299 1.503 . S
C307 C306 1.370 . S
C307 C308 1.403 . S
C308 C307 1.403 . S
C308 C309 1.404 . S
C308 C311 1.539 . S
C309 C305 1.408 . S
C309 C308 1.404 . S
C309 H321 0.930 . S
C310 C306 1.524 . S
C310 H322 0.956 . S
C310 H323 0.961 . S
C310 H324 0.961 . S
C311 C308 1.539 . S
C311 H325 0.958 . S
C311 H326 0.961 . S
C311 H327 0.960 . S
H312 C296 0.931 . S
H313 C301 0.929 . S
H314 C302 0.960 . S
H315 C302 0.962 . S
H316 C302 0.960 . S
H317 C303 0.961 . S
H318 C303 0.961 . S
H319 C303 0.961 . S
H320 C304 0.931 . S
H321 C309 0.930 . S
H322 C310 0.956 . S
H323 C310 0.961 . S
H324 C310 0.961 . S
H325 C311 0.958 . S
H326 C311 0.961 . S
H327 C311 0.960 . S
C328 C329 1.391 . S
C328 C330 1.394 . S
C328 H344 0.931 . S
C329 C328 1.391 . S
C329 C333 1.376 . S
C330 C328 1.394 . S
C330 C331 1.369 . S
C330 C334 1.531 . S
C331 C330 1.369 . S
C331 C332 1.410 . S
C331 C339 1.503 1_655 S
C332 C331 1.410 . S
C332 C333 1.392 . S
C332 C335 1.511 . S
C333 C329 1.376 . S
C333 C332 1.392 . S
C333 H345 0.929 . S
C334 C330 1.531 . S
C334 H346 0.960 . S
C334 H347 0.962 . S
C334 H348 0.960 . S
C335 C332 1.511 . S
C335 H349 0.961 . S
C335 H350 0.961 1_655 S
C335 H351 0.961 . S
C336 C337 1.370 . S
C336 C338 1.363 . S
C336 H352 0.931 . S
C337 C336 1.370 . S
C337 C341 1.408 . S
C338 C336 1.363 . S
C338 C339 1.370 . S
C338 C342 1.524 . S
C339 C331 1.503 1_455 S
C339 C338 1.370 . S
C339 C340 1.403 . S
C340 C339 1.403 . S
C340 C341 1.404 . S
C340 C343 1.539 . S
C341 C337 1.408 . S
C341 C340 1.404 . S
C341 H353 0.930 . S
C342 C338 1.524 . S
C342 H354 0.956 . S
C342 H355 0.961 . S
C342 H356 0.961 . S
C343 C340 1.539 . S
C343 H357 0.958 1_455 S
C343 H358 0.961 . S
C343 H359 0.960 1_455 S
H344 C328 0.931 . S
H345 C333 0.929 . S
H346 C334 0.960 . S
H347 C334 0.962 . S
H348 C334 0.960 . S
H349 C335 0.961 . S
H350 C335 0.961 1_455 S
H351 C335 0.961 . S
H352 C336 0.931 . S
H353 C341 0.930 . S
H354 C342 0.956 . S
H355 C342 0.961 . S
H356 C342 0.961 . S
H357 C343 0.958 1_655 S
H358 C343 0.961 . S
H359 C343 0.960 1_655 S
C360 C361 1.391 . S
C360 C362 1.394 . S
C360 H376 0.931 . S
C361 C360 1.391 . S
C361 C365 1.376 . S
C362 C360 1.394 . S
C362 C363 1.369 . S
C362 C366 1.531 . S
C363 C362 1.369 . S
C363 C364 1.410 1_556 S
C363 C371 1.503 1_556 S
C364 C363 1.410 1_554 S
C364 C365 1.392 1_554 S
C364 C367 1.511 . S
C365 C361 1.376 . S
C365 C364 1.392 1_556 S
C365 H377 0.929 1_556 S
C366 C362 1.531 . S
C366 H378 0.960 . S
C366 H379 0.962 . S
C366 H380 0.960 . S
C367 C364 1.511 . S
C367 H381 0.961 . S
C367 H382 0.961 . S
C367 H383 0.961 . S
C368 C369 1.370 . S
C368 C370 1.363 . S
C368 H384 0.931 . S
C369 C368 1.370 . S
C369 C373 1.408 . S
C370 C368 1.363 . S
C370 C371 1.370 . S
C370 C374 1.524 . S
C371 C363 1.503 1_554 S
C371 C370 1.370 . S
C371 C372 1.403 . S
C372 C371 1.403 . S
C372 C373 1.404 . S
C372 C375 1.539 1_554 S
C373 C369 1.408 . S
C373 C372 1.404 . S
C373 H385 0.930 . S
C374 C370 1.524 . S
C374 H386 0.956 1_554 S
C374 H387 0.961 . S
C374 H388 0.961 . S
C375 C372 1.539 1_556 S
C375 H389 0.958 . S
C375 H390 0.961 1_556 S
C375 H391 0.960 . S
H376 C360 0.931 . S
H377 C365 0.929 1_554 S
H378 C366 0.960 . S
H379 C366 0.962 . S
H380 C366 0.960 . S
H381 C367 0.961 . S
H382 C367 0.961 . S
H383 C367 0.961 . S
H384 C368 0.931 . S
H385 C373 0.930 . S
H386 C374 0.956 1_556 S
H387 C374 0.961 . S
H388 C374 0.961 . S
H389 C375 0.958 . S
H390 C375 0.961 1_554 S
H391 C375 0.960 . S
C392 C393 1.391 . S
C392 C394 1.394 . S
C392 H408 0.931 . S
C393 C392 1.391 . S
C393 C397 1.376 . S
C394 C392 1.394 . S
C394 C395 1.369 . S
C394 C398 1.531 . S
C395 C394 1.369 . S
C395 C396 1.410 . S
C395 C403 1.503 . S
C396 C395 1.410 . S
C396 C397 1.392 . S
C396 C399 1.511 . S
C397 C393 1.376 . S
C397 C396 1.392 . S
C397 H409 0.929 . S
C398 C394 1.531 . S
C398 H410 0.960 . S
C398 H411 0.962 . S
C398 H412 0.960 . S
C399 C396 1.511 . S
C399 H413 0.961 . S
C399 H414 0.961 . S
C399 H415 0.961 . S
C400 C401 1.370 . S
C400 C402 1.363 . S
C400 H416 0.931 . S
C401 C400 1.370 . S
C401 C405 1.408 . S
C402 C400 1.363 . S
C402 C403 1.370 . S
C402 C406 1.524 . S
C403 C395 1.503 . S
C403 C402 1.370 . S
C403 C404 1.403 . S
C404 C403 1.403 . S
C404 C405 1.404 . S
C404 C407 1.539 . S
C405 C401 1.408 . S
C405 C404 1.404 . S
C405 H417 0.930 . S
C406 C402 1.524 . S
C406 H418 0.956 . S
C406 H419 0.961 . S
C406 H420 0.961 . S
C407 C404 1.539 . S
C407 H421 0.958 . S
C407 H422 0.961 . S
C407 H423 0.960 . S
H408 C392 0.931 . S
H409 C397 0.929 . S
H410 C398 0.960 . S
H411 C398 0.962 . S
H412 C398 0.960 . S
H413 C399 0.961 . S
H414 C399 0.961 . S
H415 C399 0.961 . S
H416 C400 0.931 . S
H417 C405 0.930 . S
H418 C406 0.956 . S
H419 C406 0.961 . S
H420 C406 0.961 . S
H421 C407 0.958 . S
H422 C407 0.961 . S
H423 C407 0.960 . S
C424 C425 1.391 . S
C424 C426 1.394 . S
C424 H440 0.931 . S
C425 C424 1.391 . S
C425 C429 1.376 . S
C426 C424 1.394 . S
C426 C427 1.369 . S
C426 C430 1.531 . S
C427 C426 1.369 . S
C427 C428 1.410 . S
C427 C435 1.503 . S
C428 C427 1.410 . S
C428 C429 1.392 . S
C428 C431 1.511 . S
C429 C425 1.376 . S
C429 C428 1.392 . S
C429 H441 0.929 . S
C430 C426 1.531 . S
C430 H442 0.960 . S
C430 H443 0.962 . S
C430 H444 0.960 . S
C431 C428 1.511 . S
C431 H445 0.961 . S
C431 H446 0.961 . S
C431 H447 0.961 . S
C432 C433 1.370 . S
C432 C434 1.363 . S
C432 H448 0.931 . S
C433 C432 1.370 . S
C433 C437 1.408 . S
C434 C432 1.363 . S
C434 C435 1.370 . S
C434 C438 1.524 . S
C435 C427 1.503 . S
C435 C434 1.370 . S
C435 C436 1.403 . S
C436 C435 1.403 . S
C436 C437 1.404 . S
C436 C439 1.539 . S
C437 C433 1.408 . S
C437 C436 1.404 . S
C437 H449 0.930 . S
C438 C434 1.524 . S
C438 H450 0.956 . S
C438 H451 0.961 . S
C438 H452 0.961 . S
C439 C436 1.539 . S
C439 H453 0.958 . S
C439 H454 0.961 . S
C439 H455 0.960 . S
H440 C424 0.931 . S
H441 C429 0.929 . S
H442 C430 0.960 . S
H443 C430 0.962 . S
H444 C430 0.960 . S
H445 C431 0.961 . S
H446 C431 0.961 . S
H447 C431 0.961 . S
H448 C432 0.931 . S
H449 C437 0.930 . S
H450 C438 0.956 . S
H451 C438 0.961 . S
H452 C438 0.961 . S
H453 C439 0.958 . S
H454 C439 0.961 . S
H455 C439 0.960 . S
C456 C457 1.391 . S
C456 C458 1.394 . S
C456 H472 0.931 . S
C457 C456 1.391 . S
C457 C461 1.376 . S
C458 C456 1.394 . S
C458 C459 1.390 . S
C458 C462 1.531 . S
C459 C458 1.390 . S
C459 C460 1.416 . S
C459 C467 1.482 1_556 S
C460 C459 1.416 . S
C460 C461 1.392 . S
C460 C463 1.511 1_556 S
C461 C457 1.376 . S
C461 C460 1.392 . S
C461 H473 0.929 . S
C462 C458 1.531 . S
C462 H474 0.960 1_556 S
C462 H475 0.962 . S
C462 H476 0.960 . S
C463 C460 1.511 1_554 S
C463 H477 0.961 1_554 S
C463 H478 0.961 . S
C463 H479 0.961 . S
C464 C465 1.370 . S
C464 C466 1.363 1_554 S
C464 H480 0.931 1_554 S
C465 C464 1.370 . S
C465 C469 1.408 . S
C466 C464 1.363 1_556 S
C466 C467 1.370 1_556 S
C466 C470 1.524 . S
C467 C459 1.482 1_554 S
C467 C466 1.370 1_554 S
C467 C468 1.403 . S
C468 C467 1.403 . S
C468 C469 1.404 . S
C468 C471 1.539 . S
C469 C465 1.408 . S
C469 C468 1.404 . S
C469 H481 0.930 . S
C470 C466 1.524 . S
C470 H482 0.956 . S
C470 H483 0.961 . S
C470 H484 0.961 . S
C471 C468 1.539 . S
C471 H485 0.958 . S
C471 H486 0.961 . S
C471 H487 0.960 . S
H472 C456 0.931 . S
H473 C461 0.929 . S
H474 C462 0.960 1_554 S
H475 C462 0.962 . S
H476 C462 0.960 . S
H477 C463 0.961 1_556 S
H478 C463 0.961 . S
H479 C463 0.961 . S
H480 C464 0.931 1_556 S
H481 C469 0.930 . S
H482 C470 0.956 . S
H483 C470 0.961 . S
H484 C470 0.961 . S
H485 C471 0.958 . S
H486 C471 0.961 . S
H487 C471 0.960 . S
C488 C489 1.391 . S
C488 C490 1.394 . S
C488 H504 0.931 . S
C489 C488 1.391 . S
C489 C493 1.376 . S
C490 C488 1.394 . S
C490 C491 1.369 . S
C490 C494 1.531 . S
C491 C490 1.369 . S
C491 C492 1.410 . S
C491 C499 1.503 . S
C492 C491 1.410 . S
C492 C493 1.392 . S
C492 C495 1.511 . S
C493 C489 1.376 . S
C493 C492 1.392 . S
C493 H505 0.929 . S
C494 C490 1.531 . S
C494 H506 0.960 . S
C494 H507 0.962 . S
C494 H508 0.960 . S
C495 C492 1.511 . S
C495 H509 0.961 . S
C495 H510 0.961 . S
C495 H511 0.961 . S
C496 C497 1.370 . S
C496 C498 1.363 . S
C496 H512 0.931 . S
C497 C496 1.370 . S
C497 C501 1.408 . S
C498 C496 1.363 . S
C498 C499 1.370 . S
C498 C502 1.524 . S
C499 C491 1.503 . S
C499 C498 1.370 . S
C499 C500 1.403 . S
C500 C499 1.403 . S
C500 C501 1.404 . S
C500 C503 1.539 . S
C501 C497 1.408 . S
C501 C500 1.404 . S
C501 H513 0.930 . S
C502 C498 1.524 . S
C502 H514 0.956 . S
C502 H515 0.961 . S
C502 H516 0.961 . S
C503 C500 1.539 . S
C503 H517 0.958 . S
C503 H518 0.961 . S
C503 H519 0.960 . S
H504 C488 0.931 . S
H505 C493 0.929 . S
H506 C494 0.960 . S
H507 C494 0.962 . S
H508 C494 0.960 . S
H509 C495 0.961 . S
H510 C495 0.961 . S
H511 C495 0.961 . S
H512 C496 0.931 . S
H513 C501 0.930 . S
H514 C502 0.956 . S
H515 C502 0.961 . S
H516 C502 0.961 . S
H517 C503 0.958 . S
H518 C503 0.961 . S
H519 C503 0.960 . S
C520 C521 1.391 . S
C520 C522 1.394 . S
C520 H536 0.931 . S
C521 C520 1.391 . S
C521 C525 1.376 . S
C522 C520 1.394 . S
C522 C523 1.369 . S
C522 C526 1.531 . S
C523 C522 1.369 . S
C523 C524 1.410 . S
C523 C531 1.503 . S
C524 C523 1.410 . S
C524 C525 1.392 . S
C524 C527 1.511 . S
C525 C521 1.376 . S
C525 C524 1.392 . S
C525 H537 0.929 . S
C526 C522 1.531 . S
C526 H538 0.960 . S
C526 H539 0.962 . S
C526 H540 0.960 . S
C527 C524 1.511 . S
C527 H541 0.961 . S
C527 H542 0.961 . S
C527 H543 0.961 . S
C528 C529 1.370 . S
C528 C530 1.363 . S
C528 H544 0.931 . S
C529 C528 1.370 . S
C529 C533 1.408 . S
C530 C528 1.363 . S
C530 C531 1.370 . S
C530 C534 1.524 . S
C531 C523 1.503 . S
C531 C530 1.370 . S
C531 C532 1.403 . S
C532 C531 1.403 . S
C532 C533 1.404 . S
C532 C535 1.539 . S
C533 C529 1.408 . S
C533 C532 1.404 . S
C533 H545 0.930 . S
C534 C530 1.524 . S
C534 H546 0.956 . S
C534 H547 0.961 . S
C534 H548 0.961 . S
C535 C532 1.539 . S
C535 H549 0.958 . S
C535 H550 0.961 . S
C535 H551 0.960 . S
H536 C520 0.931 . S
H537 C525 0.929 . S
H538 C526 0.960 . S
H539 C526 0.962 . S
H540 C526 0.960 . S
H541 C527 0.961 . S
H542 C527 0.961 . S
H543 C527 0.961 . S
H544 C528 0.931 . S
H545 C533 0.930 . S
H546 C534 0.956 . S
H547 C534 0.961 . S
H548 C534 0.961 . S
H549 C535 0.958 . S
H550 C535 0.961 . S
H551 C535 0.960 . S
C552 C553 1.391 . S
C552 C554 1.394 . S
C552 H568 0.931 . S
C553 C552 1.391 . S
C553 C557 1.376 . S
C554 C552 1.394 . S
C554 C555 1.369 . S
C554 C558 1.531 . S
C555 C554 1.369 . S
C555 C556 1.410 . S
C555 C563 1.503 . S
C556 C555 1.410 . S
C556 C557 1.392 . S
C556 C559 1.511 . S
C557 C553 1.376 . S
C557 C556 1.392 . S
C557 H569 0.929 . S
C558 C554 1.531 . S
C558 H570 0.960 . S
C558 H571 0.962 . S
C558 H572 0.960 . S
C559 C556 1.511 . S
C559 H573 0.961 . S
C559 H574 0.961 . S
C559 H575 0.961 . S
C560 C561 1.370 . S
C560 C562 1.363 . S
C560 H576 0.931 . S
C561 C560 1.370 . S
C561 C565 1.408 . S
C562 C560 1.363 . S
C562 C563 1.370 . S
C562 C566 1.524 . S
C563 C555 1.503 . S
C563 C562 1.370 . S
C563 C564 1.403 . S
C564 C563 1.403 . S
C564 C565 1.404 . S
C564 C567 1.539 . S
C565 C561 1.408 . S
C565 C564 1.404 . S
C565 H577 0.930 . S
C566 C562 1.524 . S
C566 H578 0.956 . S
C566 H579 0.961 . S
C566 H580 0.961 . S
C567 C564 1.539 . S
C567 H581 0.958 . S
C567 H582 0.961 . S
C567 H583 0.960 . S
H568 C552 0.931 . S
H569 C557 0.929 . S
H570 C558 0.960 . S
H571 C558 0.962 . S
H572 C558 0.960 . S
H573 C559 0.961 . S
H574 C559 0.961 . S
H575 C559 0.961 . S
H576 C560 0.931 . S
H577 C565 0.930 . S
H578 C566 0.956 . S
H579 C566 0.961 . S
H580 C566 0.961 . S
H581 C567 0.958 . S
H582 C567 0.961 . S
H583 C567 0.960 . S
C584 C585 1.391 . S
C584 C586 1.394 . S
C584 H600 0.931 . S
C585 C584 1.391 . S
C585 C589 1.376 . S
C586 C584 1.394 . S
C586 C587 1.369 . S
C586 C590 1.531 . S
C587 C586 1.369 . S
C587 C588 1.410 . S
C587 C595 1.503 . S
C588 C587 1.410 . S
C588 C589 1.392 . S
C588 C591 1.511 . S
C589 C585 1.376 . S
C589 C588 1.392 . S
C589 H601 0.929 . S
C590 C586 1.531 . S
C590 H602 0.960 . S
C590 H603 0.962 . S
C590 H604 0.960 . S
C591 C588 1.511 . S
C591 H605 0.961 . S
C591 H606 0.961 . S
C591 H607 0.961 . S
C592 C593 1.370 . S
C592 C594 1.363 . S
C592 H608 0.931 . S
C593 C592 1.370 . S
C593 C597 1.408 . S
C594 C592 1.363 . S
C594 C595 1.370 . S
C594 C598 1.524 . S
C595 C587 1.503 . S
C595 C594 1.370 . S
C595 C596 1.403 . S
C596 C595 1.403 . S
C596 C597 1.404 . S
C596 C599 1.539 . S
C597 C593 1.408 . S
C597 C596 1.404 . S
C597 H609 0.930 . S
C598 C594 1.524 . S
C598 H610 0.956 . S
C598 H611 0.961 . S
C598 H612 0.961 . S
C599 C596 1.539 . S
C599 H613 0.958 . S
C599 H614 0.961 . S
C599 H615 0.960 . S
H600 C584 0.931 . S
H601 C589 0.929 . S
H602 C590 0.960 . S
H603 C590 0.962 . S
H604 C590 0.960 . S
H605 C591 0.961 . S
H606 C591 0.961 . S
H607 C591 0.961 . S
H608 C592 0.931 . S
H609 C597 0.930 . S
H610 C598 0.956 . S
H611 C598 0.961 . S
H612 C598 0.961 . S
H613 C599 0.958 . S
H614 C599 0.961 . S
H615 C599 0.960 . S
C616 C617 1.391 . S
C616 C618 1.394 . S
C616 H632 0.931 . S
C617 C616 1.391 . S
C617 C621 1.376 . S
C618 C616 1.394 . S
C618 C619 1.369 . S
C618 C622 1.531 . S
C619 C618 1.369 . S
C619 C620 1.410 . S
C619 C627 1.503 . S
C620 C619 1.410 . S
C620 C621 1.392 . S
C620 C623 1.511 . S
C621 C617 1.376 . S
C621 C620 1.392 . S
C621 H633 0.929 . S
C622 C618 1.531 . S
C622 H634 0.960 . S
C622 H635 0.962 . S
C622 H636 0.960 . S
C623 C620 1.511 . S
C623 H637 0.961 . S
C623 H638 0.961 . S
C623 H639 0.961 . S
C624 C625 1.370 . S
C624 C626 1.363 . S
C624 H640 0.931 . S
C625 C624 1.370 . S
C625 C629 1.408 . S
C626 C624 1.363 . S
C626 C627 1.370 . S
C626 C630 1.524 . S
C627 C619 1.503 . S
C627 C626 1.370 . S
C627 C628 1.403 . S
C628 C627 1.403 . S
C628 C629 1.404 . S
C628 C631 1.539 . S
C629 C625 1.408 . S
C629 C628 1.404 . S
C629 H641 0.930 . S
C630 C626 1.524 . S
C630 H642 0.956 . S
C630 H643 0.961 . S
C630 H644 0.961 . S
C631 C628 1.539 . S
C631 H645 0.958 . S
C631 H646 0.961 . S
C631 H647 0.960 . S
H632 C616 0.931 . S
H633 C621 0.929 . S
H634 C622 0.960 . S
H635 C622 0.962 . S
H636 C622 0.960 . S
H637 C623 0.961 . S
H638 C623 0.961 . S
H639 C623 0.961 . S
H640 C624 0.931 . S
H641 C629 0.930 . S
H642 C630 0.956 . S
H643 C630 0.961 . S
H644 C630 0.961 . S
H645 C631 0.958 . S
H646 C631 0.961 . S
H647 C631 0.960 . S
C648 C649 1.391 . S
C648 C650 1.394 . S
C648 H664 0.931 . S
C649 C648 1.391 . S
C649 C653 1.376 . S
C650 C648 1.394 . S
C650 C651 1.369 . S
C650 C654 1.531 . S
C651 C650 1.369 . S
C651 C652 1.410 . S
C651 C659 1.503 . S
C652 C651 1.410 . S
C652 C653 1.392 . S
C652 C655 1.511 . S
C653 C649 1.376 . S
C653 C652 1.392 . S
C653 H665 0.929 . S
C654 C650 1.531 . S
C654 H666 0.960 . S
C654 H667 0.962 . S
C654 H668 0.960 . S
C655 C652 1.511 . S
C655 H669 0.961 . S
C655 H670 0.961 . S
C655 H671 0.961 . S
C656 C657 1.370 . S
C656 C658 1.363 . S
C656 H672 0.931 . S
C657 C656 1.370 . S
C657 C661 1.408 . S
C658 C656 1.363 . S
C658 C659 1.370 . S
C658 C662 1.524 . S
C659 C651 1.503 . S
C659 C658 1.370 . S
C659 C660 1.403 . S
C660 C659 1.403 . S
C660 C661 1.404 . S
C660 C663 1.539 . S
C661 C657 1.408 . S
C661 C660 1.404 . S
C661 H673 0.930 . S
C662 C658 1.524 . S
C662 H674 0.956 . S
C662 H675 0.961 . S
C662 H676 0.961 . S
C663 C660 1.539 . S
C663 H677 0.958 . S
C663 H678 0.961 . S
C663 H679 0.960 . S
H664 C648 0.931 . S
H665 C653 0.929 . S
H666 C654 0.960 . S
H667 C654 0.962 . S
H668 C654 0.960 . S
H669 C655 0.961 . S
H670 C655 0.961 . S
H671 C655 0.961 . S
H672 C656 0.931 . S
H673 C661 0.930 . S
H674 C662 0.956 . S
H675 C662 0.961 . S
H676 C662 0.961 . S
H677 C663 0.958 . S
H678 C663 0.961 . S
H679 C663 0.960 . S
C680 C681 1.391 . S
C680 C682 1.394 . S
C680 H696 0.931 . S
C681 C680 1.391 . S
C681 C685 1.376 . S
C682 C680 1.394 . S
C682 C683 1.369 . S
C682 C686 1.531 . S
C683 C682 1.369 . S
C683 C684 1.410 . S
C683 C691 1.503 . S
C684 C683 1.410 . S
C684 C685 1.392 . S
C684 C687 1.511 . S
C685 C681 1.376 . S
C685 C684 1.392 . S
C685 H697 0.929 . S
C686 C682 1.531 . S
C686 H698 0.960 . S
C686 H699 0.962 . S
C686 H700 0.960 . S
C687 C684 1.511 . S
C687 H701 0.961 . S
C687 H702 0.961 . S
C687 H703 0.961 . S
C688 C689 1.370 . S
C688 C690 1.363 . S
C688 H704 0.931 . S
C689 C688 1.370 . S
C689 C693 1.408 . S
C690 C688 1.363 . S
C690 C691 1.370 . S
C690 C694 1.524 . S
C691 C683 1.503 . S
C691 C690 1.370 . S
C691 C692 1.403 . S
C692 C691 1.403 . S
C692 C693 1.404 . S
C692 C695 1.539 . S
C693 C689 1.408 . S
C693 C692 1.404 . S
C693 H705 0.930 . S
C694 C690 1.524 . S
C694 H706 0.956 . S
C694 H707 0.961 . S
C694 H708 0.961 . S
C695 C692 1.539 . S
C695 H709 0.958 . S
C695 H710 0.961 . S
C695 H711 0.960 . S
H696 C680 0.931 . S
H697 C685 0.929 . S
H698 C686 0.960 . S
H699 C686 0.962 . S
H700 C686 0.960 . S
H701 C687 0.961 . S
H702 C687 0.961 . S
H703 C687 0.961 . S
H704 C688 0.931 . S
H705 C693 0.930 . S
H706 C694 0.956 . S
H707 C694 0.961 . S
H708 C694 0.961 . S
H709 C695 0.958 . S
H710 C695 0.961 . S
H711 C695 0.960 . S
C712 C713 1.391 . S
C712 C714 1.394 . S
C712 H728 0.931 . S
C713 C712 1.391 . S
C713 C717 1.376 . S
C714 C712 1.394 . S
C714 C715 1.369 . S
C714 C718 1.531 . S
C715 C714 1.369 . S
C715 C716 1.410 . S
C715 C723 1.503 . S
C716 C715 1.410 . S
C716 C717 1.392 . S
C716 C719 1.511 . S
C717 C713 1.376 . S
C717 C716 1.392 . S
C717 H729 0.929 . S
C718 C714 1.531 . S
C718 H730 0.960 . S
C718 H731 0.962 . S
C718 H732 0.960 . S
C719 C716 1.511 . S
C719 H733 0.961 . S
C719 H734 0.961 . S
C719 H735 0.961 . S
C720 C721 1.370 . S
C720 C722 1.363 . S
C720 H736 0.931 . S
C721 C720 1.370 . S
C721 C725 1.408 . S
C722 C720 1.363 . S
C722 C723 1.370 . S
C722 C726 1.524 . S
C723 C715 1.503 . S
C723 C722 1.370 . S
C723 C724 1.403 . S
C724 C723 1.403 . S
C724 C725 1.404 . S
C724 C727 1.539 . S
C725 C721 1.408 . S
C725 C724 1.404 . S
C725 H737 0.930 . S
C726 C722 1.524 . S
C726 H738 0.956 . S
C726 H739 0.961 . S
C726 H740 0.961 . S
C727 C724 1.539 . S
C727 H741 0.958 . S
C727 H742 0.961 . S
C727 H743 0.960 . S
H728 C712 0.931 . S
H729 C717 0.929 . S
H730 C718 0.960 . S
H731 C718 0.962 . S
H732 C718 0.960 . S
H733 C719 0.961 . S
H734 C719 0.961 . S
H735 C719 0.961 . S
H736 C720 0.931 . S
H737 C725 0.930 . S
H738 C726 0.956 . S
H739 C726 0.961 . S
H740 C726 0.961 . S
H741 C727 0.958 . S
H742 C727 0.961 . S
H743 C727 0.960 . S
C744 C745 1.391 . S
C744 C746 1.394 . S
C744 H760 0.931 . S
C745 C744 1.391 . S
C745 C749 1.376 . S
C746 C744 1.394 . S
C746 C747 1.369 . S
C746 C750 1.531 . S
C747 C746 1.369 . S
C747 C748 1.410 . S
C747 C755 1.503 . S
C748 C747 1.410 . S
C748 C749 1.392 . S
C748 C751 1.511 1_554 S
C749 C745 1.376 . S
C749 C748 1.392 . S
C749 H761 0.929 . S
C750 C746 1.531 . S
C750 H762 0.960 . S
C750 H763 0.962 . S
C750 H764 0.960 . S
C751 C748 1.511 1_556 S
C751 H765 0.961 . S
C751 H766 0.961 . S
C751 H767 0.961 . S
C752 C753 1.370 . S
C752 C754 1.363 . S
C752 H768 0.931 . S
C753 C752 1.370 . S
C753 C757 1.408 . S
C754 C752 1.363 . S
C754 C755 1.370 . S
C754 C758 1.524 . S
C755 C747 1.503 . S
C755 C754 1.370 . S
C755 C756 1.403 . S
C756 C755 1.403 . S
C756 C757 1.404 . S
C756 C759 1.539 . S
C757 C753 1.408 . S
C757 C756 1.404 . S
C757 H769 0.930 . S
C758 C754 1.524 . S
C758 H770 0.956 . S
C758 H771 0.961 . S
C758 H772 0.961 . S
C759 C756 1.539 . S
C759 H773 0.958 . S
C759 H774 0.961 . S
C759 H775 0.960 . S
H760 C744 0.931 . S
H761 C749 0.929 . S
H762 C750 0.960 . S
H763 C750 0.962 . S
H764 C750 0.960 . S
H765 C751 0.961 . S
H766 C751 0.961 . S
H767 C751 0.961 . S
H768 C752 0.931 . S
H769 C757 0.930 . S
H770 C758 0.956 . S
H771 C758 0.961 . S
H772 C758 0.961 . S
H773 C759 0.958 . S
H774 C759 0.961 . S
H775 C759 0.960 . S
C776 C777 1.391 . S
C776 C778 1.394 . S
C776 H792 0.931 . S
C777 C776 1.391 . S
C777 C781 1.376 . S
C778 C776 1.394 . S
C778 C779 1.369 . S
C778 C782 1.531 1_655 S
C779 C778 1.369 . S
C779 C780 1.410 . S
C779 C787 1.503 1_655 S
C780 C779 1.410 . S
C780 C781 1.392 . S
C780 C783 1.511 . S
C781 C777 1.376 . S
C781 C780 1.392 . S
C781 H793 0.929 . S
C782 C778 1.531 1_455 S
C782 H794 0.960 . S
C782 H795 0.962 . S
C782 H796 0.960 . S
C783 C780 1.511 . S
C783 H797 0.961 . S
C783 H798 0.961 . S
C783 H799 0.961 . S
C784 C785 1.370 . S
C784 C786 1.363 1_455 S
C784 H800 0.931 . S
C785 C784 1.370 . S
C785 C789 1.408 . S
C786 C784 1.363 1_655 S
C786 C787 1.370 1_655 S
C786 C790 1.524 . S
C787 C779 1.503 1_455 S
C787 C786 1.370 1_455 S
C787 C788 1.403 . S
C788 C787 1.403 . S
C788 C789 1.404 . S
C788 C791 1.539 . S
C789 C785 1.408 . S
C789 C788 1.404 . S
C789 H801 0.930 . S
C790 C786 1.524 . S
C790 H802 0.956 . S
C790 H803 0.961 . S
C790 H804 0.961 . S
C791 C788 1.539 . S
C791 H805 0.958 . S
C791 H806 0.961 . S
C791 H807 0.960 . S
H792 C776 0.931 . S
H793 C781 0.929 . S
H794 C782 0.960 . S
H795 C782 0.962 . S
H796 C782 0.960 . S
H797 C783 0.961 . S
H798 C783 0.961 . S
H799 C783 0.961 . S
H800 C784 0.931 . S
H801 C789 0.930 . S
H802 C790 0.956 . S
H803 C790 0.961 . S
H804 C790 0.961 . S
H805 C791 0.958 . S
H806 C791 0.961 . S
H807 C791 0.960 . S
C808 C809 1.391 . S
C808 C810 1.394 . S
C808 H824 0.931 . S
C809 C808 1.391 . S
C809 C813 1.376 . S
C810 C808 1.394 . S
C810 C811 1.369 . S
C810 C814 1.531 1_545 S
C811 C810 1.369 . S
C811 C812 1.410 . S
C811 C819 1.503 1_545 S
C812 C811 1.410 . S
C812 C813 1.392 . S
C812 C815 1.511 . S
C813 C809 1.376 . S
C813 C812 1.392 . S
C813 H825 0.929 . S
C814 C810 1.531 1_565 S
C814 H826 0.960 . S
C814 H827 0.962 . S
C814 H828 0.960 . S
C815 C812 1.511 . S
C815 H829 0.961 . S
C815 H830 0.961 . S
C815 H831 0.961 . S
C816 C817 1.370 . S
C816 C818 1.363 1_565 S
C816 H832 0.931 . S
C817 C816 1.370 . S
C817 C821 1.408 . S
C818 C816 1.363 1_545 S
C818 C819 1.370 1_545 S
C818 C822 1.524 . S
C819 C811 1.503 1_565 S
C819 C818 1.370 1_565 S
C819 C820 1.403 . S
C820 C819 1.403 . S
C820 C821 1.404 . S
C820 C823 1.539 . S
C821 C817 1.408 . S
C821 C820 1.404 . S
C821 H833 0.930 . S
C822 C818 1.524 . S
C822 H834 0.956 . S
C822 H835 0.961 . S
C822 H836 0.961 . S
C823 C820 1.539 . S
C823 H837 0.958 . S
C823 H838 0.961 . S
C823 H839 0.960 . S
H824 C808 0.931 . S
H825 C813 0.929 . S
H826 C814 0.960 . S
H827 C814 0.962 . S
H828 C814 0.960 . S
H829 C815 0.961 . S
H830 C815 0.961 . S
H831 C815 0.961 . S
H832 C816 0.931 . S
H833 C821 0.930 . S
H834 C822 0.956 . S
H835 C822 0.961 . S
H836 C822 0.961 . S
H837 C823 0.958 . S
H838 C823 0.961 . S
H839 C823 0.960 . S
C840 C841 1.391 . S
C840 C842 1.394 . S
C840 H856 0.931 . S
C841 C840 1.391 . S
C841 C845 1.376 . S
C842 C840 1.394 . S
C842 C843 1.369 . S
C842 C846 1.531 . S
C843 C842 1.369 . S
C843 C844 1.410 . S
C843 C851 1.503 . S
C844 C843 1.410 . S
C844 C845 1.392 . S
C844 C847 1.511 . S
C845 C841 1.376 . S
C845 C844 1.392 . S
C845 H857 0.929 . S
C846 C842 1.531 . S
C846 H858 0.960 . S
C846 H859 0.962 . S
C846 H860 0.960 . S
C847 C844 1.511 . S
C847 H861 0.961 . S
C847 H862 0.961 . S
C847 H863 0.961 . S
C848 C849 1.370 . S
C848 C850 1.363 . S
C848 H864 0.931 . S
C849 C848 1.370 . S
C849 C853 1.408 . S
C850 C848 1.363 . S
C850 C851 1.370 . S
C850 C854 1.524 . S
C851 C843 1.503 . S
C851 C850 1.370 . S
C851 C852 1.403 . S
C852 C851 1.403 . S
C852 C853 1.404 . S
C852 C855 1.539 . S
C853 C849 1.408 . S
C853 C852 1.404 . S
C853 H865 0.930 . S
C854 C850 1.524 . S
C854 H866 0.956 . S
C854 H867 0.961 . S
C854 H868 0.961 . S
C855 C852 1.539 . S
C855 H869 0.958 . S
C855 H870 0.961 . S
C855 H871 0.960 . S
H856 C840 0.931 . S
H857 C845 0.929 . S
H858 C846 0.960 . S
H859 C846 0.962 . S
H860 C846 0.960 . S
H861 C847 0.961 . S
H862 C847 0.961 . S
H863 C847 0.961 . S
H864 C848 0.931 . S
H865 C853 0.930 . S
H866 C854 0.956 . S
H867 C854 0.961 . S
H868 C854 0.961 . S
H869 C855 0.958 . S
H870 C855 0.961 . S
H871 C855 0.960 . S
C872 C873 1.391 . S
C872 C874 1.394 . S
C872 H888 0.931 . S
C873 C872 1.391 . S
C873 C877 1.376 . S
C874 C872 1.394 . S
C874 C875 1.369 . S
C874 C878 1.531 1_556 S
C875 C874 1.369 . S
C875 C876 1.410 . S
C875 C883 1.503 1_455 S
C876 C875 1.410 . S
C876 C877 1.392 . S
C876 C879 1.511 1_455 S
C877 C873 1.376 . S
C877 C876 1.392 . S
C877 H889 0.929 . S
C878 C874 1.531 1_554 S
C878 H890 0.960 1_455 S
C878 H891 0.962 . S
C878 H892 0.960 . S
C879 C876 1.511 1_655 S
C879 H893 0.961 1_655 S
C879 H894 0.961 . S
C879 H895 0.961 . S
C880 C881 1.370 . S
C880 C882 1.363 1_655 S
C880 H896 0.931 1_655 S
C881 C880 1.370 . S
C881 C885 1.408 . S
C882 C880 1.363 1_455 S
C882 C883 1.370 1_455 S
C882 C886 1.524 . S
C883 C875 1.503 1_655 S
C883 C882 1.370 1_655 S
C883 C884 1.403 . S
C884 C883 1.403 . S
C884 C885 1.404 . S
C884 C887 1.539 . S
C885 C881 1.408 . S
C885 C884 1.404 . S
C885 H897 0.930 . S
C886 C882 1.524 . S
C886 H898 0.956 . S
C886 H899 0.961 . S
C886 H900 0.961 . S
C887 C884 1.539 . S
C887 H901 0.958 . S
C887 H902 0.961 . S
C887 H903 0.960 . S
H888 C872 0.931 . S
H889 C877 0.929 . S
H890 C878 0.960 1_655 S
H891 C878 0.962 . S
H892 C878 0.960 . S
H893 C879 0.961 1_455 S
H894 C879 0.961 . S
H895 C879 0.961 . S
H896 C880 0.931 1_455 S
H897 C885 0.930 . S
H898 C886 0.956 . S
H899 C886 0.961 . S
H900 C886 0.961 . S
H901 C887 0.958 . S
H902 C887 0.961 . S
H903 C887 0.960 . S
C904 C905 1.391 . S
C904 C906 1.394 . S
C904 H920 0.931 . S
C905 C904 1.391 . S
C905 C909 1.376 . S
C906 C904 1.394 . S
C906 C907 1.369 . S
C906 C910 1.531 . S
C907 C906 1.369 . S
C907 C908 1.410 1_565 S
C907 C915 1.503 1_565 S
C908 C907 1.410 1_545 S
C908 C909 1.392 1_545 S
C908 C911 1.511 . S
C909 C905 1.376 . S
C909 C908 1.392 1_565 S
C909 H921 0.929 1_565 S
C910 C906 1.531 . S
C910 H922 0.960 . S
C910 H923 0.962 . S
C910 H924 0.960 . S
C911 C908 1.511 . S
C911 H925 0.961 . S
C911 H926 0.961 . S
C911 H927 0.961 . S
C912 C913 1.370 . S
C912 C914 1.363 . S
C912 H928 0.931 . S
C913 C912 1.370 . S
C913 C917 1.408 . S
C914 C912 1.363 . S
C914 C915 1.370 . S
C914 C918 1.524 1_545 S
C915 C907 1.503 1_545 S
C915 C914 1.370 . S
C915 C916 1.403 . S
C916 C915 1.403 . S
C916 C917 1.404 . S
C916 C919 1.539 . S
C917 C913 1.408 . S
C917 C916 1.404 . S
C917 H929 0.930 . S
C918 C914 1.524 1_565 S
C918 H930 0.956 . S
C918 H931 0.961 1_565 S
C918 H932 0.959 1_565 S
C919 C916 1.539 . S
C919 H933 0.958 . S
C919 H934 0.961 . S
C919 H935 0.960 . S
H920 C904 0.931 . S
H921 C909 0.929 1_545 S
H922 C910 0.960 . S
H923 C910 0.962 . S
H924 C910 0.960 . S
H925 C911 0.961 . S
H926 C911 0.961 . S
H927 C911 0.961 . S
H928 C912 0.931 . S
H929 C917 0.930 . S
H930 C918 0.956 . S
H931 C918 0.961 1_545 S
H932 C918 0.959 1_545 S
H933 C919 0.958 . S
H934 C919 0.961 . S
H935 C919 0.960 . S
C169 C103 1.185 . S
C177 C5 1.131 . S
C201 C19 1.069 . S
C209 C117 1.129 . S
C233 C33 1.137 . S
C241 C131 1.152 . S
C265 C47 1.164 . S
C273 C145 1.115 . S
C297 C159 1.171 . S
C305 C61 1.119 . S
C329 C89 1.184 . S
C337 C75 1.130 . S
C361 C144 1.307 . S
C369 C4 1.305 . S
C393 C18 1.305 . S
C401 C158 1.305 . S
C425 C32 1.286 . S
C433 C88 1.288 . S
C457 C102 1.308 . S
C465 C46 1.292 . S
C489 C116 1.281 . S
C497 C60 1.289 . S
C521 C130 1.273 . S
C529 C74 1.297 . S
C553 C11 1.557 . S
C561 C123 1.579 . S
C585 C25 1.592 . S
C593 C137 1.579 . S
C617 C151 1.558 . S
C625 C39 1.580 . S
C649 C53 1.564 . S
C657 C165 1.582 . S
C681 C95 1.589 . S
C689 C67 1.575 . S
C713 C109 1.592 . S
C721 C81 1.578 . S
C745 C54 1.143 . S
C753 C12 1.195 . S
C777 C68 1.202 . S
C785 C26 1.168 . S
C809 C40 1.204 . S
C817 C82 1.167 . S
C841 C96 1.150 . S
C849 C138 1.187 . S
C873 C110 1.214 . S
C881 C152 1.168 . S
C905 C166 1.202 . S
C913 C124 1.182 . S
