# Generated by pormake.
# Topology nfb, (4)-cn, num edge types: 1
# Building blocks:
#     Node 0, Type 0, BuildingBlock: CEKHIL_clean_sbu_0, # of connection points: 4
#     Node 1, Type 0, BuildingBlock: CEKHIL_clean_sbu_0, # of connection points: 4
#     Node 2, Type 0, BuildingBlock: CEKHIL_clean_sbu_0, # of connection points: 4
#     Node 3, Type 0, BuildingBlock: CEKHIL_clean_sbu_0, # of connection points: 4
#     Node 4, Type 0, BuildingBlock: CEKHIL_clean_sbu_0, # of connection points: 4
#     Node 5, Type 0, BuildingBlock: CEKHIL_clean_sbu_0, # of connection points: 4
#     Node 6, Type 0, BuildingBlock: CEKHIL_clean_sbu_0, # of connection points: 4
#     Node 7, Type 0, BuildingBlock: CEKHIL_clean_sbu_0, # of connection points: 4
#     Node 8, Type 0, BuildingBlock: CEKHIL_clean_sbu_0, # of connection points: 4
#     Node 9, Type 0, BuildingBlock: CEKHIL_clean_sbu_0, # of connection points: 4
#     Node 10, Type 0, BuildingBlock: CEKHIL_clean_sbu_0, # of connection points: 4
#     Node 11, Type 0, BuildingBlock: CEKHIL_clean_sbu_0, # of connection points: 4
#     Node 12, Type 0, BuildingBlock: CEKHIL_clean_sbu_0, # of connection points: 4
#     Node 13, Type 0, BuildingBlock: CEKHIL_clean_sbu_0, # of connection points: 4
#     Node 14, Type 0, BuildingBlock: CEKHIL_clean_sbu_0, # of connection points: 4
#     Node 15, Type 0, BuildingBlock: CEKHIL_clean_sbu_0, # of connection points: 4
#     Node 16, Type 0, BuildingBlock: CEKHIL_clean_sbu_0, # of connection points: 4
#     Node 17, Type 0, BuildingBlock: CEKHIL_clean_sbu_0, # of connection points: 4
#     Node 18, Type 0, BuildingBlock: CEKHIL_clean_sbu_0, # of connection points: 4
#     Node 19, Type 0, BuildingBlock: CEKHIL_clean_sbu_0, # of connection points: 4
#     Node 20, Type 0, BuildingBlock: CEKHIL_clean_sbu_0, # of connection points: 4
#     Node 21, Type 0, BuildingBlock: CEKHIL_clean_sbu_0, # of connection points: 4
#     Node 22, Type 0, BuildingBlock: CEKHIL_clean_sbu_0, # of connection points: 4
#     Node 23, Type 0, BuildingBlock: CEKHIL_clean_sbu_0, # of connection points: 4
#     Node 24, Type 0, BuildingBlock: CEKHIL_clean_sbu_0, # of connection points: 4
#     Node 25, Type 0, BuildingBlock: CEKHIL_clean_sbu_0, # of connection points: 4
#     Node 26, Type 0, BuildingBlock: CEKHIL_clean_sbu_0, # of connection points: 4
#     Node 27, Type 0, BuildingBlock: CEKHIL_clean_sbu_0, # of connection points: 4
#     Node 28, Type 0, BuildingBlock: CEKHIL_clean_sbu_0, # of connection points: 4
#     Node 29, Type 0, BuildingBlock: CEKHIL_clean_sbu_0, # of connection points: 4
#     Node 30, Type 0, BuildingBlock: CEKHIL_clean_sbu_0, # of connection points: 4
#     Node 31, Type 0, BuildingBlock: CEKHIL_clean_sbu_0, # of connection points: 4
#     Node 32, Type 0, BuildingBlock: CEKHIL_clean_sbu_0, # of connection points: 4
#     Node 33, Type 0, BuildingBlock: CEKHIL_clean_sbu_0, # of connection points: 4
#     Node 34, Type 0, BuildingBlock: CEKHIL_clean_sbu_0, # of connection points: 4
#     Node 35, Type 0, BuildingBlock: CEKHIL_clean_sbu_0, # of connection points: 4
#     Node 36, Type 0, BuildingBlock: CEKHIL_clean_sbu_0, # of connection points: 4
#     Node 37, Type 0, BuildingBlock: CEKHIL_clean_sbu_0, # of connection points: 4
#     Node 38, Type 0, BuildingBlock: CEKHIL_clean_sbu_0, # of connection points: 4
#     Node 39, Type 0, BuildingBlock: CEKHIL_clean_sbu_0, # of connection points: 4
#     Node 40, Type 0, BuildingBlock: CEKHIL_clean_sbu_0, # of connection points: 4
#     Node 41, Type 0, BuildingBlock: CEKHIL_clean_sbu_0, # of connection points: 4
#     Node 42, Type 0, BuildingBlock: CEKHIL_clean_sbu_0, # of connection points: 4
#     Node 43, Type 0, BuildingBlock: CEKHIL_clean_sbu_0, # of connection points: 4
#     Node 44, Type 0, BuildingBlock: CEKHIL_clean_sbu_0, # of connection points: 4
#     Node 45, Type 0, BuildingBlock: CEKHIL_clean_sbu_0, # of connection points: 4
#     Node 46, Type 0, BuildingBlock: CEKHIL_clean_sbu_0, # of connection points: 4
#     Node 47, Type 0, BuildingBlock: CEKHIL_clean_sbu_0, # of connection points: 4
#     Edge 48, Type (0, 0), BuildingBlock: OJICUG_clean_linker_0, # of connection points: 2
#     Edge 49, Type (0, 0), BuildingBlock: OJICUG_clean_linker_0, # of connection points: 2
#     Edge 50, Type (0, 0), BuildingBlock: OJICUG_clean_linker_0, # of connection points: 2
#     Edge 51, Type (0, 0), BuildingBlock: OJICUG_clean_linker_0, # of connection points: 2
#     Edge 52, Type (0, 0), BuildingBlock: OJICUG_clean_linker_0, # of connection points: 2
#     Edge 53, Type (0, 0), BuildingBlock: OJICUG_clean_linker_0, # of connection points: 2
#     Edge 54, Type (0, 0), BuildingBlock: OJICUG_clean_linker_0, # of connection points: 2
#     Edge 55, Type (0, 0), BuildingBlock: OJICUG_clean_linker_0, # of connection points: 2
#     Edge 56, Type (0, 0), BuildingBlock: OJICUG_clean_linker_0, # of connection points: 2
#     Edge 57, Type (0, 0), BuildingBlock: OJICUG_clean_linker_0, # of connection points: 2
#     Edge 58, Type (0, 0), BuildingBlock: OJICUG_clean_linker_0, # of connection points: 2
#     Edge 59, Type (0, 0), BuildingBlock: OJICUG_clean_linker_0, # of connection points: 2
#     Edge 60, Type (0, 0), BuildingBlock: OJICUG_clean_linker_0, # of connection points: 2
#     Edge 61, Type (0, 0), BuildingBlock: OJICUG_clean_linker_0, # of connection points: 2
#     Edge 62, Type (0, 0), BuildingBlock: OJICUG_clean_linker_0, # of connection points: 2
#     Edge 63, Type (0, 0), BuildingBlock: OJICUG_clean_linker_0, # of connection points: 2
#     Edge 64, Type (0, 0), BuildingBlock: OJICUG_clean_linker_0, # of connection points: 2
#     Edge 65, Type (0, 0), BuildingBlock: OJICUG_clean_linker_0, # of connection points: 2
#     Edge 66, Type (0, 0), BuildingBlock: OJICUG_clean_linker_0, # of connection points: 2
#     Edge 67, Type (0, 0), BuildingBlock: OJICUG_clean_linker_0, # of connection points: 2
#     Edge 68, Type (0, 0), BuildingBlock: OJICUG_clean_linker_0, # of connection points: 2
#     Edge 69, Type (0, 0), BuildingBlock: OJICUG_clean_linker_0, # of connection points: 2
#     Edge 70, Type (0, 0), BuildingBlock: OJICUG_clean_linker_0, # of connection points: 2
#     Edge 71, Type (0, 0), BuildingBlock: OJICUG_clean_linker_0, # of connection points: 2
#     Edge 72, Type (0, 0), BuildingBlock: OJICUG_clean_linker_0, # of connection points: 2
#     Edge 73, Type (0, 0), BuildingBlock: OJICUG_clean_linker_0, # of connection points: 2
#     Edge 74, Type (0, 0), BuildingBlock: OJICUG_clean_linker_0, # of connection points: 2
#     Edge 75, Type (0, 0), BuildingBlock: OJICUG_clean_linker_0, # of connection points: 2
#     Edge 76, Type (0, 0), BuildingBlock: OJICUG_clean_linker_0, # of connection points: 2
#     Edge 77, Type (0, 0), BuildingBlock: OJICUG_clean_linker_0, # of connection points: 2
#     Edge 78, Type (0, 0), BuildingBlock: OJICUG_clean_linker_0, # of connection points: 2
#     Edge 79, Type (0, 0), BuildingBlock: OJICUG_clean_linker_0, # of connection points: 2
#     Edge 80, Type (0, 0), BuildingBlock: OJICUG_clean_linker_0, # of connection points: 2
#     Edge 81, Type (0, 0), BuildingBlock: OJICUG_clean_linker_0, # of connection points: 2
#     Edge 82, Type (0, 0), BuildingBlock: OJICUG_clean_linker_0, # of connection points: 2
#     Edge 83, Type (0, 0), BuildingBlock: OJICUG_clean_linker_0, # of connection points: 2
#     Edge 84, Type (0, 0), BuildingBlock: OJICUG_clean_linker_0, # of connection points: 2
#     Edge 85, Type (0, 0), BuildingBlock: OJICUG_clean_linker_0, # of connection points: 2
#     Edge 86, Type (0, 0), BuildingBlock: OJICUG_clean_linker_0, # of connection points: 2
#     Edge 87, Type (0, 0), BuildingBlock: OJICUG_clean_linker_0, # of connection points: 2
#     Edge 88, Type (0, 0), BuildingBlock: OJICUG_clean_linker_0, # of connection points: 2
#     Edge 89, Type (0, 0), BuildingBlock: OJICUG_clean_linker_0, # of connection points: 2
#     Edge 90, Type (0, 0), BuildingBlock: OJICUG_clean_linker_0, # of connection points: 2
#     Edge 91, Type (0, 0), BuildingBlock: OJICUG_clean_linker_0, # of connection points: 2
#     Edge 92, Type (0, 0), BuildingBlock: OJICUG_clean_linker_0, # of connection points: 2
#     Edge 93, Type (0, 0), BuildingBlock: OJICUG_clean_linker_0, # of connection points: 2
#     Edge 94, Type (0, 0), BuildingBlock: OJICUG_clean_linker_0, # of connection points: 2
#     Edge 95, Type (0, 0), BuildingBlock: OJICUG_clean_linker_0, # of connection points: 2
#     Edge 96, Type (0, 0), BuildingBlock: OJICUG_clean_linker_0, # of connection points: 2
#     Edge 97, Type (0, 0), BuildingBlock: OJICUG_clean_linker_0, # of connection points: 2
#     Edge 98, Type (0, 0), BuildingBlock: OJICUG_clean_linker_0, # of connection points: 2
#     Edge 99, Type (0, 0), BuildingBlock: OJICUG_clean_linker_0, # of connection points: 2
#     Edge 100, Type (0, 0), BuildingBlock: OJICUG_clean_linker_0, # of connection points: 2
#     Edge 101, Type (0, 0), BuildingBlock: OJICUG_clean_linker_0, # of connection points: 2
#     Edge 102, Type (0, 0), BuildingBlock: OJICUG_clean_linker_0, # of connection points: 2
#     Edge 103, Type (0, 0), BuildingBlock: OJICUG_clean_linker_0, # of connection points: 2
#     Edge 104, Type (0, 0), BuildingBlock: OJICUG_clean_linker_0, # of connection points: 2
#     Edge 105, Type (0, 0), BuildingBlock: OJICUG_clean_linker_0, # of connection points: 2
#     Edge 106, Type (0, 0), BuildingBlock: OJICUG_clean_linker_0, # of connection points: 2
#     Edge 107, Type (0, 0), BuildingBlock: OJICUG_clean_linker_0, # of connection points: 2
#     Edge 108, Type (0, 0), BuildingBlock: OJICUG_clean_linker_0, # of connection points: 2
#     Edge 109, Type (0, 0), BuildingBlock: OJICUG_clean_linker_0, # of connection points: 2
#     Edge 110, Type (0, 0), BuildingBlock: OJICUG_clean_linker_0, # of connection points: 2
#     Edge 111, Type (0, 0), BuildingBlock: OJICUG_clean_linker_0, # of connection points: 2
#     Edge 112, Type (0, 0), BuildingBlock: OJICUG_clean_linker_0, # of connection points: 2
#     Edge 113, Type (0, 0), BuildingBlock: OJICUG_clean_linker_0, # of connection points: 2
#     Edge 114, Type (0, 0), BuildingBlock: OJICUG_clean_linker_0, # of connection points: 2
#     Edge 115, Type (0, 0), BuildingBlock: OJICUG_clean_linker_0, # of connection points: 2
#     Edge 116, Type (0, 0), BuildingBlock: OJICUG_clean_linker_0, # of connection points: 2
#     Edge 117, Type (0, 0), BuildingBlock: OJICUG_clean_linker_0, # of connection points: 2
#     Edge 118, Type (0, 0), BuildingBlock: OJICUG_clean_linker_0, # of connection points: 2
#     Edge 119, Type (0, 0), BuildingBlock: OJICUG_clean_linker_0, # of connection points: 2
#     Edge 120, Type (0, 0), BuildingBlock: OJICUG_clean_linker_0, # of connection points: 2
#     Edge 121, Type (0, 0), BuildingBlock: OJICUG_clean_linker_0, # of connection points: 2
#     Edge 122, Type (0, 0), BuildingBlock: OJICUG_clean_linker_0, # of connection points: 2
#     Edge 123, Type (0, 0), BuildingBlock: OJICUG_clean_linker_0, # of connection points: 2
#     Edge 124, Type (0, 0), BuildingBlock: OJICUG_clean_linker_0, # of connection points: 2
#     Edge 125, Type (0, 0), BuildingBlock: OJICUG_clean_linker_0, # of connection points: 2
#     Edge 126, Type (0, 0), BuildingBlock: OJICUG_clean_linker_0, # of connection points: 2
#     Edge 127, Type (0, 0), BuildingBlock: OJICUG_clean_linker_0, # of connection points: 2
#     Edge 128, Type (0, 0), BuildingBlock: OJICUG_clean_linker_0, # of connection points: 2
#     Edge 129, Type (0, 0), BuildingBlock: OJICUG_clean_linker_0, # of connection points: 2
#     Edge 130, Type (0, 0), BuildingBlock: OJICUG_clean_linker_0, # of connection points: 2
#     Edge 131, Type (0, 0), BuildingBlock: OJICUG_clean_linker_0, # of connection points: 2
#     Edge 132, Type (0, 0), BuildingBlock: OJICUG_clean_linker_0, # of connection points: 2
#     Edge 133, Type (0, 0), BuildingBlock: OJICUG_clean_linker_0, # of connection points: 2
#     Edge 134, Type (0, 0), BuildingBlock: OJICUG_clean_linker_0, # of connection points: 2
#     Edge 135, Type (0, 0), BuildingBlock: OJICUG_clean_linker_0, # of connection points: 2
#     Edge 136, Type (0, 0), BuildingBlock: OJICUG_clean_linker_0, # of connection points: 2
#     Edge 137, Type (0, 0), BuildingBlock: OJICUG_clean_linker_0, # of connection points: 2
#     Edge 138, Type (0, 0), BuildingBlock: OJICUG_clean_linker_0, # of connection points: 2
#     Edge 139, Type (0, 0), BuildingBlock: OJICUG_clean_linker_0, # of connection points: 2
#     Edge 140, Type (0, 0), BuildingBlock: OJICUG_clean_linker_0, # of connection points: 2
#     Edge 141, Type (0, 0), BuildingBlock: OJICUG_clean_linker_0, # of connection points: 2
#     Edge 142, Type (0, 0), BuildingBlock: OJICUG_clean_linker_0, # of connection points: 2
#     Edge 143, Type (0, 0), BuildingBlock: OJICUG_clean_linker_0, # of connection points: 2
# Relax obj value: 0.247
# Max RMSD: 0.068
# Mean RMSD: 0.062
data_MOF--net-nfb--node1-CEKHIL_clean_sbu_0--edge1-OJICUG_clean_linker_0
_symmetry_space_group_name_H-M    P1
_symmetry_Int_Tables_number       1
_symmetry_cell_setting            triclinic
loop_
_symmetry_equiv_pos_as_xyz
'x, y, z'
_cell_length_a     43.262689
_cell_length_b     43.26415
_cell_length_c     43.258213
_cell_angle_alpha  90.068819
_cell_angle_beta   90.305706
_cell_angle_gamma 90.581606
loop_
_atom_site_label
_atom_site_type_symbol
_atom_site_fract_x
_atom_site_fract_y
_atom_site_fract_z
_atom_type_partial_charge
Co0 Co 0.14699 0.14413 0.40965 0.0
O1 O 0.18882 0.15311 0.42405 0.0
O2 O 0.17818 0.1168 0.39042 0.0
C3 C 0.13738 0.19481 0.40157 0.0
O4 O 0.10433 0.12974 0.39022 0.0
Co5 Co 0.09153 0.1728 0.44481 0.0
O6 O 0.06878 0.16389 0.40635 0.0
C7 C 0.12069 0.11477 0.46736 0.0
C8 C 0.19934 0.13199 0.40608 0.0
C9 C 0.07648 0.14117 0.38953 0.0
O10 O 0.14036 0.11471 0.44513 0.0
O11 O 0.10072 0.13607 0.4713 0.0
O12 O 0.15058 0.17839 0.38038 0.0
O13 O 0.13139 0.18056 0.42698 0.0
Co14 Co 0.39272 0.61877 0.9107 0.0
O15 O 0.39365 0.57431 0.91603 0.0
O16 O 0.39731 0.59633 0.87068 0.0
C17 C 0.42656 0.6276 0.94948 0.0
O18 O 0.39315 0.66625 0.89976 0.0
Co19 Co 0.3679 0.6552 0.96811 0.0
O20 O 0.38058 0.69161 0.94379 0.0
C21 C 0.32383 0.62397 0.9262 0.0
C22 C 0.39715 0.57078 0.88678 0.0
C23 C 0.3885 0.69171 0.91545 0.0
O24 O 0.34591 0.61722 0.90744 0.0
O25 O 0.32829 0.63677 0.95254 0.0
O26 O 0.43697 0.62114 0.9222 0.0
O27 O 0.39707 0.62588 0.95252 0.0
Co28 Co 0.86977 0.87593 0.41129 0.0
O29 O 0.82781 0.86516 0.42353 0.0
O30 O 0.83808 0.90154 0.39011 0.0
C31 C 0.88329 0.82615 0.40396 0.0
O32 O 0.9127 0.89146 0.3938 0.0
Co33 Co 0.92365 0.85096 0.45188 0.0
O34 O 0.94883 0.86071 0.4154 0.0
C35 C 0.89113 0.90824 0.47024 0.0
C36 C 0.81704 0.88578 0.40511 0.0
C37 C 0.94103 0.88135 0.39605 0.0
O38 O 0.87301 0.90645 0.4466 0.0
O39 O 0.91169 0.88808 0.47656 0.0
O40 O 0.86988 0.84148 0.382 0.0
O41 O 0.8862 0.84046 0.42996 0.0
Co42 Co 0.63034 0.40442 0.90407 0.0
O43 O 0.62808 0.44873 0.90956 0.0
O44 O 0.62523 0.42671 0.86404 0.0
C45 C 0.59687 0.39413 0.94222 0.0
O46 O 0.63141 0.35681 0.89339 0.0
Co47 Co 0.65747 0.36984 0.96152 0.0
O48 O 0.64527 0.33266 0.9378 0.0
C49 C 0.69956 0.40298 0.91988 0.0
C50 C 0.62495 0.45223 0.88026 0.0
C51 C 0.63682 0.33176 0.90953 0.0
O52 O 0.67693 0.40786 0.90105 0.0
O53 O 0.69617 0.3903 0.94637 0.0
O54 O 0.58624 0.40028 0.91486 0.0
O55 O 0.62627 0.39728 0.94584 0.0
Co56 Co 0.11504 0.89088 0.60987 0.0
O57 O 0.07065 0.89211 0.60432 0.0
O58 O 0.09283 0.89611 0.64979 0.0
C59 C 0.12438 0.92405 0.57102 0.0
O60 O 0.16259 0.89087 0.62077 0.0
Co61 Co 0.15033 0.86411 0.55281 0.0
O62 O 0.18718 0.87681 0.57683 0.0
C63 C 0.11827 0.82166 0.59504 0.0
C64 C 0.06724 0.89569 0.63357 0.0
C65 C 0.18778 0.8855 0.605 0.0
O66 O 0.11274 0.84427 0.6136 0.0
O67 O 0.13078 0.82519 0.56853 0.0
O68 O 0.11803 0.93492 0.59818 0.0
O69 O 0.12204 0.89454 0.56806 0.0
Co70 Co 0.64011 0.64281 0.10244 0.0
O71 O 0.65046 0.68502 0.09082 0.0
O72 O 0.61403 0.67376 0.12383 0.0
C73 C 0.69019 0.63014 0.10983 0.0
O74 O 0.62479 0.59952 0.11921 0.0
Co75 Co 0.66568 0.58985 0.06167 0.0
O76 O 0.65567 0.56379 0.09751 0.0
C77 C 0.60836 0.62231 0.04296 0.0
C78 C 0.62961 0.69521 0.1092 0.0
C79 C 0.63484 0.57124 0.11666 0.0
O80 O 0.60981 0.63991 0.06691 0.0
O81 O 0.62874 0.60203 0.03657 0.0
O82 O 0.67448 0.64267 0.13193 0.0
O83 O 0.67592 0.62724 0.08375 0.0
Co84 Co 0.89996 0.12593 0.611 0.0
O85 O 0.94448 0.12706 0.60648 0.0
O86 O 0.92203 0.12082 0.65127 0.0
C87 C 0.89331 0.09293 0.57121 0.0
O88 O 0.8524 0.1234 0.62081 0.0
Co89 Co 0.86378 0.15048 0.55264 0.0
O90 O 0.82743 0.13689 0.57662 0.0
C91 C 0.89239 0.19446 0.59633 0.0
C92 C 0.94776 0.12247 0.63562 0.0
C93 C 0.82711 0.12816 0.60477 0.0
O94 O 0.89908 0.17262 0.61546 0.0
O95 O 0.88117 0.19004 0.56928 0.0
O96 O 0.8997 0.08193 0.59833 0.0
O97 O 0.89378 0.1225 0.56902 0.0
Co98 Co 0.37387 0.3722 0.11112 0.0
O99 O 0.36408 0.33049 0.09691 0.0
O100 O 0.40129 0.34041 0.12976 0.0
C101 C 0.32366 0.38267 0.12057 0.0
O102 O 0.38879 0.41494 0.13006 0.0
Co103 Co 0.34519 0.42736 0.07527 0.0
O104 O 0.35426 0.45016 0.11365 0.0
C105 C 0.40281 0.39798 0.05276 0.0
C106 C 0.38553 0.31953 0.11431 0.0
C107 C 0.37712 0.44274 0.13053 0.0
O108 O 0.40269 0.37846 0.07518 0.0
O109 O 0.3817 0.41814 0.0486 0.0
O110 O 0.34052 0.36902 0.14121 0.0
O111 O 0.33705 0.38816 0.09457 0.0
Co112 Co 0.39733 0.13177 0.14101 0.0
O113 O 0.41303 0.1734 0.14898 0.0
O114 O 0.37829 0.16341 0.11357 0.0
C115 C 0.39079 0.12316 0.19219 0.0
O116 O 0.37679 0.08916 0.12771 0.0
Co117 Co 0.43181 0.0759 0.16954 0.0
O118 O 0.3924 0.05405 0.16278 0.0
C119 C 0.45429 0.1052 0.11137 0.0
C120 C 0.39503 0.18428 0.12798 0.0
C121 C 0.3756 0.06151 0.13988 0.0
O122 O 0.43182 0.12446 0.11107 0.0
O123 O 0.45839 0.08529 0.13289 0.0
O124 O 0.36923 0.13621 0.17598 0.0
O125 O 0.41548 0.11631 0.17727 0.0
Co126 Co 0.38756 0.91499 0.62839 0.0
O127 O 0.43186 0.92111 0.62523 0.0
O128 O 0.40992 0.87535 0.62249 0.0
C129 C 0.37609 0.95367 0.59553 0.0
O130 O 0.34022 0.90327 0.63027 0.0
Co131 Co 0.35286 0.97076 0.65744 0.0
O132 O 0.3157 0.94666 0.64568 0.0
C133 C 0.38777 0.9294 0.69781 0.0
C134 C 0.4354 0.89185 0.62192 0.0
C135 C 0.31506 0.91863 0.6366 0.0
O136 O 0.39189 0.91106 0.67475 0.0
O137 O 0.37482 0.95573 0.69529 0.0
O138 O 0.38273 0.92659 0.58468 0.0
O139 O 0.37978 0.95688 0.62493 0.0
Co140 Co 0.61546 0.88185 0.13985 0.0
O141 O 0.60057 0.84 0.14762 0.0
O142 O 0.63487 0.8509 0.11229 0.0
C143 C 0.62232 0.89082 0.19104 0.0
O144 O 0.6355 0.92451 0.12667 0.0
Co145 Co 0.57994 0.93709 0.16814 0.0
O146 O 0.61822 0.96033 0.1602 0.0
C147 C 0.55714 0.90657 0.11051 0.0
C148 C 0.61862 0.82968 0.12652 0.0
C149 C 0.63581 0.95245 0.1382 0.0
O150 O 0.5805 0.88842 0.10984 0.0
O151 O 0.5526 0.92624 0.13215 0.0
O152 O 0.64391 0.87797 0.17491 0.0
O153 O 0.59736 0.89715 0.17607 0.0
Co154 Co 0.6278 0.0989 0.62944 0.0
O155 O 0.58342 0.09333 0.62676 0.0
O156 O 0.60601 0.1387 0.62283 0.0
C157 C 0.63825 0.05937 0.59727 0.0
O158 O 0.67524 0.11015 0.63073 0.0
Co159 Co 0.66248 0.04354 0.65935 0.0
O160 O 0.69969 0.06695 0.64686 0.0
C161 C 0.62894 0.0863 0.6992 0.0
C162 C 0.5803 0.12258 0.62283 0.0
C163 C 0.70037 0.09475 0.63719 0.0
O164 O 0.62438 0.10401 0.67575 0.0
O165 O 0.64165 0.05981 0.69716 0.0
O166 O 0.63173 0.08629 0.58596 0.0
O167 O 0.635 0.05676 0.62675 0.0
Co168 Co 0.41754 0.89095 0.8887 0.0
O169 O 0.42355 0.93531 0.8913 0.0
O170 O 0.37816 0.91307 0.89646 0.0
C171 C 0.45792 0.88008 0.91984 0.0
O172 O 0.40586 0.84355 0.8877 0.0
Co173 Co 0.47198 0.85563 0.85784 0.0
O174 O 0.44845 0.81867 0.87086 0.0
C175 C 0.42893 0.89044 0.81892 0.0
C176 C 0.39449 0.93865 0.89613 0.0
C177 C 0.42087 0.81826 0.88106 0.0
O178 O 0.41134 0.8947 0.84246 0.0
O179 O 0.45538 0.87759 0.82076 0.0
O180 O 0.43141 0.88674 0.93188 0.0
O181 O 0.45961 0.88336 0.89032 0.0
Co182 Co 0.62964 0.89798 0.37528 0.0
O183 O 0.67148 0.91267 0.36712 0.0
O184 O 0.66096 0.87896 0.40312 0.0
C185 C 0.62044 0.89036 0.32423 0.0
O186 O 0.58678 0.87848 0.38879 0.0
Co187 Co 0.57471 0.93373 0.34638 0.0
O188 O 0.55115 0.89574 0.35482 0.0
C189 C 0.6056 0.95689 0.40365 0.0
C190 C 0.68206 0.89503 0.38853 0.0
C191 C 0.5588 0.87837 0.37717 0.0
O192 O 0.62343 0.93331 0.40467 0.0
O193 O 0.58594 0.96147 0.3819 0.0
O194 O 0.63321 0.86897 0.34081 0.0
O195 O 0.61435 0.91561 0.3387 0.0
Co196 Co 0.60684 0.13146 0.88936 0.0
O197 O 0.6004 0.08725 0.89351 0.0
O198 O 0.64627 0.10888 0.8963 0.0
C199 C 0.56795 0.1437 0.92152 0.0
O200 O 0.6189 0.17878 0.88658 0.0
Co201 Co 0.55146 0.16624 0.85918 0.0
O202 O 0.57573 0.20342 0.87043 0.0
C203 C 0.59238 0.12969 0.82 0.0
C204 C 0.62959 0.08354 0.89732 0.0
C205 C 0.60374 0.20399 0.87972 0.0
O206 O 0.61094 0.12614 0.84309 0.0
O207 O 0.56614 0.14285 0.82225 0.0
O208 O 0.59492 0.13716 0.93283 0.0
O209 O 0.56498 0.13957 0.89217 0.0
Co210 Co 0.38609 0.11804 0.37648 0.0
O211 O 0.34411 0.10343 0.36867 0.0
O212 O 0.35533 0.13756 0.40429 0.0
C213 C 0.39454 0.125 0.32533 0.0
O214 O 0.42922 0.1376 0.38951 0.0
Co215 Co 0.44028 0.08147 0.34767 0.0
O216 O 0.46439 0.11923 0.35593 0.0
C217 C 0.4099 0.05906 0.40508 0.0
C218 C 0.33395 0.12138 0.38995 0.0
C219 C 0.45707 0.13722 0.37787 0.0
O220 O 0.39254 0.08299 0.40618 0.0
O221 O 0.42907 0.05401 0.38321 0.0
O222 O 0.38211 0.14666 0.34176 0.0
O223 O 0.4007 0.0999 0.34001 0.0
Co224 Co 0.14187 0.40492 0.14526 0.0
O225 O 0.15179 0.41967 0.18666 0.0
O226 O 0.11495 0.38603 0.17752 0.0
C227 C 0.19212 0.39615 0.13433 0.0
O228 O 0.12697 0.38548 0.1028 0.0
Co229 Co 0.16955 0.44158 0.09007 0.0
O230 O 0.16024 0.40354 0.06685 0.0
C231 C 0.11141 0.46235 0.11959 0.0
C232 C 0.13066 0.40202 0.19802 0.0
C233 C 0.13808 0.38578 0.07472 0.0
O234 O 0.11236 0.44011 0.13923 0.0
O235 O 0.13227 0.46715 0.09919 0.0
O236 O 0.17548 0.37538 0.14824 0.0
O237 O 0.1785 0.422 0.12894 0.0
Co238 Co 0.12811 0.6068 0.89969 0.0
O239 O 0.12778 0.60219 0.9442 0.0
O240 O 0.12191 0.64691 0.92133 0.0
C241 C 0.09577 0.56652 0.89193 0.0
O242 O 0.12672 0.61715 0.85213 0.0
Co243 Co 0.15426 0.55007 0.86314 0.0
O244 O 0.14025 0.57349 0.82672 0.0
C245 C 0.19718 0.59325 0.8945 0.0
C246 C 0.12298 0.6313 0.94715 0.0
C247 C 0.13137 0.60149 0.82666 0.0
O248 O 0.17485 0.61183 0.90075 0.0
O249 O 0.19313 0.56665 0.8821 0.0
O250 O 0.0843 0.5934 0.89805 0.0
O251 O 0.12536 0.56477 0.89321 0.0
Co252 Co 0.90992 0.63197 0.39208 0.0
O253 O 0.91519 0.63019 0.43659 0.0
O254 O 0.86987 0.62638 0.41422 0.0
C255 C 0.94838 0.59838 0.38294 0.0
O256 O 0.89909 0.63249 0.34443 0.0
Co257 Co 0.96723 0.65835 0.3567 0.0
O258 O 0.94325 0.64624 0.31976 0.0
C259 C 0.92423 0.70129 0.38632 0.0
C260 C 0.88594 0.62633 0.4399 0.0
C261 C 0.91489 0.638 0.3192 0.0
O262 O 0.90647 0.67858 0.39425 0.0
O263 O 0.95017 0.69796 0.37276 0.0
O264 O 0.92089 0.58805 0.38916 0.0
O265 O 0.95207 0.62784 0.38539 0.0
Co266 Co 0.89241 0.42442 0.88385 0.0
O267 O 0.89675 0.43086 0.92804 0.0
O268 O 0.89826 0.38496 0.90701 0.0
C269 C 0.92528 0.4635 0.87207 0.0
O270 O 0.8893 0.41235 0.83657 0.0
Co271 Co 0.86412 0.48064 0.84828 0.0
O272 O 0.87604 0.4564 0.81169 0.0
C273 C 0.8232 0.43909 0.88339 0.0
C274 C 0.89997 0.40168 0.93217 0.0
C275 C 0.88356 0.42799 0.81127 0.0
O276 O 0.84593 0.42066 0.88847 0.0
O277 O 0.82629 0.46525 0.86994 0.0
O278 O 0.93625 0.43646 0.87862 0.0
O279 O 0.89598 0.46618 0.8756 0.0
Co280 Co 0.12019 0.37781 0.38606 0.0
O281 O 0.1054 0.36825 0.34458 0.0
O282 O 0.13843 0.40553 0.35403 0.0
C283 C 0.1293 0.32745 0.39623 0.0
O284 O 0.13947 0.39247 0.42869 0.0
Co285 Co 0.08397 0.34896 0.44094 0.0
O286 O 0.1217 0.35879 0.46448 0.0
C287 C 0.06074 0.4054 0.40989 0.0
C288 C 0.12245 0.38996 0.3334 0.0
C289 C 0.13924 0.38117 0.45674 0.0
O290 O 0.08444 0.40637 0.39211 0.0
O291 O 0.05598 0.38387 0.42967 0.0
O292 O 0.15007 0.34449 0.38279 0.0
O293 O 0.1035 0.34092 0.40192 0.0
Co294 Co 0.88684 0.61421 0.11857 0.0
O295 O 0.88742 0.60929 0.07409 0.0
O296 O 0.89164 0.65447 0.09653 0.0
C297 C 0.92097 0.57608 0.12632 0.0
O298 O 0.88746 0.62436 0.16634 0.0
Co299 Co 0.86259 0.55558 0.15407 0.0
O300 O 0.87521 0.57955 0.19083 0.0
C301 C 0.81807 0.59809 0.12548 0.0
C302 C 0.8912 0.63855 0.07082 0.0
C303 C 0.88289 0.60806 0.1915 0.0
O304 O 0.84003 0.61682 0.11753 0.0
O305 O 0.82249 0.57194 0.13843 0.0
O306 O 0.93113 0.60368 0.12031 0.0
O307 O 0.89148 0.57233 0.12479 0.0
Co308 Co 0.89993 0.37621 0.62957 0.0
O309 O 0.91196 0.36898 0.67251 0.0
O310 O 0.87768 0.4032 0.65876 0.0
C311 C 0.89534 0.32501 0.61953 0.0
O312 O 0.8822 0.38883 0.58577 0.0
Co313 Co 0.94013 0.3495 0.57643 0.0
O314 O 0.90395 0.35761 0.55027 0.0
C315 C 0.95947 0.40707 0.6094 0.0
C316 C 0.89279 0.38984 0.68121 0.0
C317 C 0.88451 0.37814 0.5576 0.0
O318 O 0.93452 0.40736 0.62546 0.0
O319 O 0.966 0.38559 0.59017 0.0
O320 O 0.87234 0.34003 0.63129 0.0
O321 O 0.92016 0.34101 0.61517 0.0
Co322 Co 0.09736 0.628 0.62813 0.0
O323 O 0.09139 0.62583 0.58371 0.0
O324 O 0.13685 0.6214 0.60567 0.0
C325 C 0.0574 0.59583 0.63844 0.0
O326 O 0.10935 0.62852 0.6754 0.0
Co327 Co 0.04222 0.65606 0.66517 0.0
O328 O 0.06667 0.64339 0.70146 0.0
C329 C 0.08423 0.6973 0.63097 0.0
C330 C 0.12051 0.62145 0.58018 0.0
C331 C 0.09459 0.63428 0.7011 0.0
O332 O 0.10242 0.67454 0.62531 0.0
O333 O 0.05803 0.69409 0.64421 0.0
O334 O 0.08412 0.5844 0.63161 0.0
O335 O 0.05539 0.62535 0.636 0.0
Co336 Co 0.86805 0.88729 0.61614 0.0
O337 O 0.82549 0.87927 0.60423 0.0
O338 O 0.84044 0.88325 0.65252 0.0
C339 C 0.87402 0.92588 0.58158 0.0
O340 O 0.9127 0.89502 0.63426 0.0
Co341 Co 0.91639 0.87844 0.56245 0.0
O342 O 0.9453 0.89631 0.59325 0.0
C343 C 0.88783 0.82451 0.59381 0.0
C344 C 0.81776 0.87876 0.63288 0.0
C345 C 0.94014 0.89875 0.62214 0.0
O346 O 0.87629 0.84158 0.61517 0.0
O347 O 0.90104 0.83535 0.56965 0.0
O348 O 0.86224 0.93212 0.60836 0.0
O349 O 0.87931 0.89728 0.57646 0.0
Co350 Co 0.63964 0.39738 0.11508 0.0
O351 O 0.64081 0.44138 0.10718 0.0
O352 O 0.60906 0.42036 0.14046 0.0
C353 C 0.69094 0.39448 0.12028 0.0
O354 O 0.63546 0.35036 0.127 0.0
Co355 Co 0.67526 0.3558 0.06775 0.0
O356 O 0.6757 0.32756 0.10324 0.0
C357 C 0.61068 0.37545 0.05494 0.0
C358 C 0.61981 0.44555 0.12754 0.0
C359 C 0.65341 0.32663 0.12222 0.0
O360 O 0.60914 0.39114 0.08017 0.0
O361 O 0.63483 0.36109 0.04613 0.0
O362 O 0.67426 0.40228 0.14375 0.0
O363 O 0.67657 0.39123 0.09434 0.0
Co364 Co 0.14799 0.12553 0.62388 0.0
O365 O 0.19065 0.13179 0.61216 0.0
O366 O 0.17679 0.12122 0.65962 0.0
C367 C 0.13688 0.09425 0.58362 0.0
O368 O 0.10299 0.11887 0.64105 0.0
Co369 Co 0.10157 0.15095 0.57358 0.0
O370 O 0.07075 0.13198 0.60152 0.0
C371 C 0.13693 0.19327 0.61374 0.0
C372 C 0.19914 0.12762 0.64033 0.0
C373 C 0.0754 0.12196 0.62886 0.0
O374 O 0.14468 0.17101 0.63161 0.0
O375 O 0.12275 0.18978 0.58793 0.0
O376 O 0.14907 0.08243 0.60834 0.0
O377 O 0.13488 0.12378 0.58352 0.0
Co378 Co 0.37162 0.6147 0.11936 0.0
O379 O 0.37233 0.57022 0.11458 0.0
O380 O 0.40156 0.59438 0.14821 0.0
C381 C 0.31975 0.61582 0.12158 0.0
O382 O 0.37317 0.66273 0.12756 0.0
Co383 Co 0.33659 0.64792 0.065 0.0
O384 O 0.33889 0.6832 0.09354 0.0
C385 C 0.40285 0.63139 0.05901 0.0
C386 C 0.39243 0.56804 0.13625 0.0
C387 C 0.35784 0.68612 0.116 0.0
O388 O 0.40393 0.61938 0.08615 0.0
O389 O 0.3783 0.64212 0.04656 0.0
O390 O 0.33577 0.61114 0.14646 0.0
O391 O 0.33529 0.61682 0.09635 0.0
Co392 Co 0.90401 0.14429 0.39623 0.0
O393 O 0.94843 0.1466 0.40076 0.0
O394 O 0.92557 0.11218 0.37126 0.0
C395 C 0.89886 0.19501 0.38745 0.0
O396 O 0.85606 0.13936 0.38864 0.0
Co397 Co 0.87019 0.18304 0.44776 0.0
O398 O 0.83427 0.17422 0.42112 0.0
C399 C 0.88936 0.11856 0.45991 0.0
C400 C 0.95147 0.12414 0.38174 0.0
C401 C 0.83209 0.15386 0.3999 0.0
O402 O 0.9011 0.11564 0.43287 0.0
O403 O 0.87775 0.14359 0.47025 0.0
O404 O 0.90559 0.17667 0.36488 0.0
O405 O 0.89926 0.1828 0.41456 0.0
Co406 Co 0.39383 0.37023 0.89812 0.0
O407 O 0.38752 0.32737 0.90947 0.0
O408 O 0.39725 0.34185 0.86203 0.0
C409 C 0.42591 0.38045 0.93806 0.0
O410 O 0.40048 0.41544 0.88114 0.0
Co411 Co 0.37077 0.41687 0.94934 0.0
O412 O 0.38964 0.44759 0.92127 0.0
C413 C 0.32663 0.38322 0.90931 0.0
C414 C 0.39117 0.31923 0.88116 0.0
C415 C 0.39843 0.44299 0.89356 0.0
O416 O 0.34818 0.37407 0.89133 0.0
O417 O 0.33113 0.39762 0.9348 0.0
O418 O 0.43725 0.36861 0.91304 0.0
O419 O 0.39644 0.38279 0.93857 0.0
Co420 Co 0.11307 0.872 0.40016 0.0
O421 O 0.06878 0.87279 0.40596 0.0
O422 O 0.0921 0.90216 0.37215 0.0
C423 C 0.11376 0.82013 0.39772 0.0
O424 O 0.16081 0.87362 0.39082 0.0
Co425 Co 0.14838 0.8366 0.45301 0.0
O426 O 0.18221 0.83833 0.42301 0.0
C427 C 0.13195 0.90285 0.4603 0.0
C428 C 0.06609 0.89302 0.38458 0.0
C429 C 0.18448 0.8579 0.40116 0.0
O430 O 0.11881 0.9041 0.43362 0.0
O431 O 0.1433 0.87825 0.47199 0.0
O432 O 0.10847 0.83607 0.37297 0.0
O433 O 0.1159 0.83579 0.42291 0.0
Co434 Co 0.63294 0.65108 0.89918 0.0
O435 O 0.64081 0.69343 0.91189 0.0
O436 O 0.63783 0.67945 0.86333 0.0
C437 C 0.5935 0.64447 0.93249 0.0
O438 O 0.62547 0.60672 0.88036 0.0
Co439 Co 0.64063 0.60198 0.95263 0.0
O440 O 0.6232 0.57363 0.92108 0.0
C441 C 0.69536 0.62969 0.92201 0.0
C442 C 0.64192 0.70176 0.8834 0.0
C443 C 0.62139 0.57914 0.89218 0.0
O444 O 0.67859 0.64255 0.90105 0.0
O445 O 0.68419 0.61593 0.94573 0.0
O446 O 0.58794 0.65681 0.90576 0.0
O447 O 0.62199 0.63918 0.93843 0.0
Co448 Co 0.61545 0.88457 0.88639 0.0
O449 O 0.60461 0.84225 0.87569 0.0
O450 O 0.65231 0.85755 0.88374 0.0
C451 C 0.57837 0.88727 0.92292 0.0
O452 O 0.63257 0.92916 0.89708 0.0
Co453 Co 0.56261 0.93326 0.87733 0.0
O454 O 0.5908 0.96005 0.9015 0.0
C455 C 0.60042 0.91232 0.82416 0.0
C456 C 0.63327 0.83483 0.87703 0.0
C457 C 0.61983 0.95577 0.90324 0.0
O458 O 0.61767 0.89537 0.84134 0.0
O459 O 0.5769 0.92713 0.83392 0.0
O460 O 0.60512 0.87594 0.92996 0.0
O461 O 0.57468 0.89447 0.89439 0.0
Co462 Co 0.63089 0.13183 0.37326 0.0
O463 O 0.58646 0.1282 0.36894 0.0
O464 O 0.6084 0.1574 0.40421 0.0
C465 C 0.63836 0.13896 0.32259 0.0
O466 O 0.67867 0.13899 0.38071 0.0
Co467 Co 0.66822 0.08076 0.33815 0.0
O468 O 0.70171 0.11127 0.343 0.0
C469 C 0.64168 0.06791 0.39993 0.0
C470 C 0.58283 0.14722 0.39135 0.0
C471 C 0.70309 0.1309 0.36486 0.0
O472 O 0.63082 0.09534 0.40212 0.0
O473 O 0.6558 0.05776 0.37611 0.0
O474 O 0.63161 0.16232 0.34 0.0
O475 O 0.63743 0.11228 0.33568 0.0
Co476 Co 0.41395 0.13567 0.88524 0.0
O477 O 0.42689 0.17724 0.87413 0.0
O478 O 0.37837 0.16398 0.87977 0.0
C479 C 0.44907 0.13301 0.92409 0.0
O480 O 0.3947 0.09214 0.89599 0.0
Co481 Co 0.46495 0.08479 0.88086 0.0
O482 O 0.43509 0.06062 0.90545 0.0
C483 C 0.43049 0.10493 0.8248 0.0
C484 C 0.39856 0.18583 0.87382 0.0
C485 C 0.40615 0.0656 0.90448 0.0
O486 O 0.4134 0.12335 0.84046 0.0
O487 O 0.45293 0.08963 0.83642 0.0
O488 O 0.42238 0.14533 0.92906 0.0
O489 O 0.4539 0.12465 0.89605 0.0
Co490 Co 0.38485 0.88447 0.37435 0.0
O491 O 0.42922 0.88899 0.37053 0.0
O492 O 0.40786 0.85893 0.40512 0.0
C493 C 0.37758 0.87757 0.32354 0.0
O494 O 0.33721 0.8762 0.38122 0.0
Co495 Co 0.34653 0.93503 0.33938 0.0
O496 O 0.31349 0.90407 0.34389 0.0
C497 C 0.37326 0.94816 0.40133 0.0
C498 C 0.43323 0.86968 0.39261 0.0
C499 C 0.31254 0.8841 0.36542 0.0
O500 O 0.3843 0.92079 0.40355 0.0
O501 O 0.35901 0.95819 0.37741 0.0
O502 O 0.3847 0.85424 0.34084 0.0
O503 O 0.37797 0.90419 0.33685 0.0
Co504 Co 0.63067 0.12533 0.14163 0.0
O505 O 0.62792 0.08099 0.14627 0.0
O506 O 0.6556 0.10295 0.11011 0.0
C507 C 0.63946 0.13385 0.19202 0.0
O508 O 0.63653 0.17305 0.13392 0.0
Co509 Co 0.57876 0.16031 0.17867 0.0
O510 O 0.6043 0.19634 0.16801 0.0
C511 C 0.56581 0.13461 0.11627 0.0
C512 C 0.64625 0.0774 0.1234 0.0
C513 C 0.62505 0.1976 0.14728 0.0
O514 O 0.59343 0.12446 0.11349 0.0
O515 O 0.55559 0.14771 0.14066 0.0
O516 O 0.6623 0.12709 0.17407 0.0
O517 O 0.61239 0.13187 0.17973 0.0
Co518 Co 0.38248 0.10469 0.63397 0.0
O519 O 0.34067 0.09156 0.64348 0.0
O520 O 0.35442 0.14024 0.64042 0.0
C521 C 0.38619 0.07144 0.59375 0.0
O522 O 0.42639 0.1238 0.62494 0.0
Co523 Co 0.43172 0.052 0.63935 0.0
O524 O 0.45856 0.08308 0.61929 0.0
C525 C 0.40774 0.08274 0.69541 0.0
C526 C 0.33239 0.11993 0.64521 0.0
C527 C 0.45339 0.11203 0.61874 0.0
O528 O 0.39342 0.10294 0.67908 0.0
O529 O 0.42153 0.0594 0.68381 0.0
O530 O 0.37391 0.09832 0.58951 0.0
O531 O 0.39345 0.06535 0.62187 0.0
Co532 Co 0.38217 0.8873 0.14171 0.0
O533 O 0.38708 0.93171 0.14539 0.0
O534 O 0.35666 0.91031 0.11085 0.0
C535 C 0.37532 0.88068 0.19254 0.0
O536 O 0.37361 0.8396 0.13501 0.0
Co537 Co 0.43246 0.849 0.17719 0.0
O538 O 0.40103 0.81629 0.17296 0.0
C539 C 0.44545 0.87425 0.11481 0.0
C540 C 0.36765 0.93571 0.12332 0.0
C541 C 0.38125 0.81511 0.15115 0.0
O542 O 0.41839 0.88605 0.1126 0.0
O543 O 0.45535 0.86008 0.13881 0.0
O544 O 0.35202 0.88777 0.1751 0.0
O545 O 0.40191 0.88072 0.17935 0.0
Co546 Co 0.63527 0.90583 0.6313 0.0
O547 O 0.67805 0.91692 0.63946 0.0
O548 O 0.66201 0.86892 0.63551 0.0
C549 C 0.63073 0.94059 0.59258 0.0
O550 O 0.5902 0.8886 0.6234 0.0
Co551 Co 0.58833 0.96022 0.64041 0.0
O552 O 0.55874 0.9303 0.62218 0.0
C553 C 0.61689 0.92898 0.69408 0.0
C554 C 0.6851 0.88814 0.64011 0.0
C555 C 0.56313 0.90133 0.6196 0.0
O556 O 0.62703 0.90704 0.67692 0.0
O557 O 0.60425 0.9534 0.68334 0.0
O558 O 0.64178 0.91346 0.5867 0.0
O559 O 0.62513 0.94582 0.62115 0.0
Co560 Co 0.88562 0.61861 0.87329 0.0
O561 O 0.87555 0.60587 0.83139 0.0
O562 O 0.88211 0.65431 0.84459 0.0
C563 C 0.92336 0.58297 0.8782 0.0
O564 O 0.89529 0.63777 0.9171 0.0
Co565 Co 0.87743 0.56766 0.92429 0.0
O566 O 0.90082 0.59749 0.94999 0.0
C567 C 0.82365 0.60399 0.9021 0.0
C568 C 0.87609 0.63425 0.82268 0.0
C569 C 0.90154 0.62637 0.94439 0.0
O570 O 0.84049 0.62012 0.88365 0.0
O571 O 0.83377 0.58146 0.91834 0.0
O572 O 0.92951 0.6095 0.86568 0.0
O573 O 0.89485 0.57843 0.88518 0.0
Co574 Co 0.8728 0.40244 0.11087 0.0
O575 O 0.87092 0.40847 0.06656 0.0
O576 O 0.90446 0.37786 0.0883 0.0
C577 C 0.82178 0.39509 0.11523 0.0
O578 O 0.87717 0.39314 0.15857 0.0
Co579 Co 0.83529 0.4533 0.14714 0.0
O580 O 0.84237 0.42468 0.18156 0.0
C581 C 0.90036 0.46481 0.12857 0.0
C582 C 0.89295 0.38932 0.06279 0.0
C583 C 0.8625 0.40343 0.18296 0.0
O584 O 0.90258 0.43833 0.11538 0.0
O585 O 0.87554 0.47505 0.14068 0.0
O586 O 0.83917 0.37208 0.10782 0.0
O587 O 0.83518 0.4217 0.11624 0.0
Co588 Co 0.13328 0.37314 0.62965 0.0
O589 O 0.12877 0.37118 0.58515 0.0
O590 O 0.15864 0.40532 0.60805 0.0
C591 C 0.14053 0.32205 0.63387 0.0
O592 O 0.14136 0.37828 0.67748 0.0
Co593 Co 0.08372 0.33557 0.66692 0.0
O594 O 0.11552 0.33826 0.69933 0.0
C595 C 0.06991 0.39874 0.64437 0.0
C596 C 0.14798 0.39371 0.58213 0.0
C597 C 0.1343 0.36098 0.70136 0.0
O598 O 0.09676 0.40159 0.63204 0.0
O599 O 0.06044 0.3742 0.65803 0.0
O600 O 0.16374 0.34023 0.62798 0.0
O601 O 0.11384 0.33495 0.63453 0.0
Co602 Co 0.12457 0.61128 0.14465 0.0
O603 O 0.13212 0.59749 0.18659 0.0
O604 O 0.12542 0.64612 0.17469 0.0
C605 C 0.08873 0.57436 0.13508 0.0
O606 O 0.11718 0.63126 0.1009 0.0
Co607 Co 0.1387 0.56178 0.09293 0.0
O608 O 0.11663 0.59151 0.06658 0.0
C609 C 0.18915 0.59915 0.1214 0.0
C610 C 0.13076 0.62557 0.19616 0.0
C611 C 0.11353 0.62005 0.07299 0.0
O612 O 0.17028 0.61484 0.13788 0.0
O613 O 0.18124 0.57654 0.10386 0.0
O614 O 0.08033 0.59971 0.14854 0.0
O615 O 0.11782 0.57166 0.13045 0.0
Co616 Co 0.90004 0.63302 0.63898 0.0
O617 O 0.91153 0.64272 0.6813 0.0
O618 O 0.86362 0.63463 0.66687 0.0
C619 C 0.93708 0.5968 0.63426 0.0
O620 O 0.88247 0.62342 0.59439 0.0
Co621 Co 0.95235 0.64477 0.59002 0.0
O622 O 0.92397 0.62145 0.56265 0.0
C623 C 0.91324 0.6963 0.6122 0.0
C624 C 0.88302 0.64105 0.6893 0.0
C625 C 0.89504 0.61873 0.56734 0.0
O626 O 0.89704 0.67828 0.62944 0.0
O627 O 0.93672 0.68762 0.59661 0.0
O628 O 0.9106 0.58932 0.64609 0.0
O629 O 0.94075 0.62563 0.62809 0.0
Co630 Co 0.14588 0.39163 0.9023 0.0
O631 O 0.14702 0.39624 0.94678 0.0
O632 O 0.11361 0.36594 0.92346 0.0
C633 C 0.19706 0.38437 0.89862 0.0
O634 O 0.14211 0.38389 0.85434 0.0
Co635 Co 0.18487 0.4434 0.86841 0.0
O636 O 0.17845 0.41552 0.83306 0.0
C637 C 0.11988 0.45469 0.88655 0.0
C638 C 0.12474 0.37675 0.94953 0.0
C639 C 0.15763 0.39462 0.8306 0.0
O640 O 0.11687 0.42773 0.89868 0.0
O641 O 0.14507 0.46521 0.87508 0.0
O642 O 0.17893 0.36118 0.90463 0.0
O643 O 0.18413 0.411 0.89843 0.0
Co644 Co 0.10633 0.62463 0.38063 0.0
O645 O 0.09439 0.63214 0.3381 0.0
O646 O 0.14234 0.6244 0.35216 0.0
C647 C 0.06801 0.58973 0.38826 0.0
O648 O 0.12425 0.61711 0.4254 0.0
Co649 Co 0.05536 0.64137 0.42944 0.0
O650 O 0.08325 0.61946 0.45785 0.0
C651 C 0.09432 0.69013 0.40121 0.0
C652 C 0.12278 0.6302 0.32981 0.0
C653 C 0.1118 0.61475 0.45284 0.0
O654 O 0.11081 0.67024 0.38699 0.0
O655 O 0.0706 0.68346 0.41754 0.0
O656 O 0.09386 0.58084 0.37625 0.0
O657 O 0.06583 0.61895 0.39281 0.0
Co658 Co 0.88829 0.37559 0.38322 0.0
O659 O 0.89328 0.37172 0.42752 0.0
O660 O 0.86171 0.40493 0.40664 0.0
C661 C 0.88363 0.32449 0.37661 0.0
O662 O 0.87953 0.38242 0.33566 0.0
Co663 Co 0.93917 0.34331 0.34358 0.0
O664 O 0.90698 0.34529 0.31163 0.0
C665 C 0.95087 0.40518 0.37131 0.0
C666 C 0.87315 0.39279 0.43184 0.0
C667 C 0.88702 0.36664 0.31092 0.0
O668 O 0.92344 0.40639 0.38242 0.0
O669 O 0.96139 0.38186 0.35662 0.0
O670 O 0.85953 0.34059 0.38354 0.0
O671 O 0.90959 0.33925 0.37625 0.0
C672 C 0.15264 0.27784 0.37912 0.0
C673 C 0.13219 0.29364 0.39854 0.0
H674 H 0.16953 0.23396 0.36413 0.0
C675 C 0.11274 0.27664 0.41822 0.0
H676 H 0.16758 0.29039 0.3634 0.0
C677 C 0.11405 0.24439 0.41881 0.0
C678 C 0.13428 0.22859 0.39918 0.0
H679 H 0.0966 0.28829 0.43322 0.0
H680 H 0.09918 0.23181 0.43457 0.0
C681 C 0.15343 0.24557 0.3792 0.0
C682 C 0.28473 0.59541 0.89382 0.0
C683 C 0.29145 0.61707 0.9171 0.0
H684 H 0.24971 0.57092 0.86854 0.0
C685 C 0.26682 0.63191 0.93209 0.0
H686 H 0.30311 0.58362 0.88183 0.0
C687 C 0.23614 0.62489 0.92428 0.0
C688 C 0.22945 0.60256 0.90163 0.0
H689 H 0.27122 0.64896 0.94998 0.0
H690 H 0.2177 0.63638 0.93649 0.0
C691 C 0.25408 0.58809 0.88633 0.0
C692 C 0.90581 0.78492 0.37112 0.0
C693 C 0.89403 0.79431 0.3997 0.0
H694 H 0.92532 0.74798 0.34488 0.0
C695 C 0.89207 0.77291 0.42405 0.0
H696 H 0.90756 0.80107 0.35207 0.0
C697 C 0.90125 0.74229 0.41965 0.0
C698 C 0.91357 0.73309 0.3912 0.0
H699 H 0.88286 0.77969 0.44626 0.0
H700 H 0.89927 0.726 0.43856 0.0
C701 C 0.916 0.75467 0.36707 0.0
C702 C 0.78707 0.40689 0.91554 0.0
C703 C 0.79166 0.42955 0.89276 0.0
H704 H 0.75435 0.38098 0.94222 0.0
C705 C 0.7657 0.44323 0.87884 0.0
H706 H 0.80658 0.39598 0.92673 0.0
C707 C 0.73581 0.4344 0.8874 0.0
C708 C 0.7312 0.41205 0.91045 0.0
H709 H 0.76842 0.46064 0.86105 0.0
H710 H 0.71634 0.44539 0.87623 0.0
C711 C 0.75714 0.39843 0.92448 0.0
C712 C 0.11608 0.73411 0.59929 0.0
C713 C 0.09382 0.729 0.62225 0.0
H714 H 0.14104 0.76743 0.57246 0.0
C715 C 0.08012 0.75463 0.63662 0.0
H716 H 0.12697 0.71486 0.58775 0.0
C717 C 0.08836 0.78471 0.62813 0.0
C718 C 0.11014 0.78984 0.60474 0.0
H719 H 0.06302 0.75149 0.65458 0.0
H720 H 0.07726 0.80391 0.63954 0.0
C721 C 0.12398 0.76423 0.59045 0.0
C722 C 0.734 0.61199 0.14239 0.0
C723 C 0.7229 0.62187 0.11361 0.0
H724 H 0.77305 0.59621 0.16837 0.0
C725 C 0.7435 0.6247 0.08869 0.0
H726 H 0.71856 0.60969 0.16191 0.0
C727 C 0.77487 0.61803 0.09265 0.0
C728 C 0.78575 0.60746 0.12129 0.0
H729 H 0.73543 0.63256 0.06632 0.0
H730 H 0.79044 0.62037 0.07323 0.0
C731 C 0.76507 0.60435 0.14606 0.0
C732 C 0.86912 0.24124 0.61899 0.0
C733 C 0.89497 0.22672 0.60625 0.0
H734 H 0.84874 0.284 0.63291 0.0
C735 C 0.9208 0.24447 0.5979 0.0
H736 H 0.84863 0.22787 0.62476 0.0
C737 C 0.9208 0.27647 0.60218 0.0
C738 C 0.89477 0.29124 0.61454 0.0
H739 H 0.9406 0.23368 0.58727 0.0
H740 H 0.94106 0.28968 0.59542 0.0
C741 C 0.86902 0.27329 0.62319 0.0
C742 C 0.27391 0.36892 0.14598 0.0
C743 C 0.29023 0.38717 0.12467 0.0
H744 H 0.22988 0.35686 0.165 0.0
C745 C 0.274 0.40815 0.10605 0.0
H746 H 0.28581 0.35232 0.16037 0.0
C747 C 0.24196 0.41106 0.109 0.0
C748 C 0.22563 0.39243 0.13001 0.0
H749 H 0.28608 0.42239 0.08935 0.0
H750 H 0.22995 0.42766 0.0947 0.0
C751 C 0.24187 0.37126 0.14836 0.0
C752 C 0.411 0.10348 0.24245 0.0
C753 C 0.39046 0.12257 0.22626 0.0
H754 H 0.42848 0.08945 0.28663 0.0
C755 C 0.37203 0.14329 0.24284 0.0
H756 H 0.42567 0.0875 0.23019 0.0
C757 C 0.37433 0.14507 0.27506 0.0
C758 C 0.39466 0.12573 0.29126 0.0
H759 H 0.35635 0.15862 0.23088 0.0
H760 H 0.3597 0.16109 0.28731 0.0
C761 C 0.41283 0.10481 0.27468 0.0
C762 C 0.38574 0.93281 0.75565 0.0
C763 C 0.39818 0.91944 0.72884 0.0
H764 H 0.38541 0.93387 0.80519 0.0
C765 C 0.42066 0.89645 0.73195 0.0
H766 H 0.36829 0.95052 0.75402 0.0
C767 C 0.43068 0.8872 0.76121 0.0
C768 C 0.4181 0.90038 0.78804 0.0
H769 H 0.43079 0.88581 0.71176 0.0
H770 H 0.44814 0.86949 0.76279 0.0
C771 C 0.39541 0.92318 0.78496 0.0
C772 C 0.64195 0.87143 0.24181 0.0
C773 C 0.62302 0.89172 0.22512 0.0
H774 H 0.65514 0.85428 0.28639 0.0
C775 C 0.60245 0.91071 0.24122 0.0
H776 H 0.65767 0.85618 0.22994 0.0
C777 C 0.6011 0.90972 0.27347 0.0
C778 C 0.61979 0.88922 0.29016 0.0
H779 H 0.5874 0.92636 0.22887 0.0
H780 H 0.58543 0.92501 0.28536 0.0
C781 C 0.64012 0.86996 0.27405 0.0
C782 C 0.58838 0.13084 0.76226 0.0
C783 C 0.60184 0.11851 0.78917 0.0
H784 H 0.58657 0.13057 0.7128 0.0
C785 C 0.62421 0.09538 0.78625 0.0
H786 H 0.57114 0.14876 0.76372 0.0
C787 C 0.63275 0.08467 0.75704 0.0
C788 C 0.61951 0.09725 0.73013 0.0
H789 H 0.63486 0.0853 0.80655 0.0
H790 H 0.65001 0.06678 0.75555 0.0
C791 C 0.5973 0.12052 0.73307 0.0
C792 C 0.88398 0.77703 0.62717 0.0
C793 C 0.88915 0.79074 0.59813 0.0
H794 H 0.88767 0.73576 0.65459 0.0
C795 C 0.89932 0.77225 0.57355 0.0
H796 H 0.87607 0.79067 0.64653 0.0
C797 C 0.90647 0.74147 0.57834 0.0
C798 C 0.90315 0.72822 0.60767 0.0
H799 H 0.903 0.78182 0.55071 0.0
H800 H 0.9151 0.7281 0.55908 0.0
C801 C 0.89076 0.74577 0.63186 0.0
C802 C 0.77346 0.41086 0.14096 0.0
C803 C 0.7887 0.39158 0.12003 0.0
H804 H 0.72986 0.42592 0.15818 0.0
C805 C 0.77175 0.37093 0.10149 0.0
H806 H 0.78625 0.42695 0.15544 0.0
C807 C 0.73965 0.37116 0.10224 0.0
C808 C 0.72433 0.39115 0.12244 0.0
H809 H 0.78323 0.35604 0.08508 0.0
H810 H 0.72691 0.35637 0.08641 0.0
C811 C 0.74136 0.41021 0.14258 0.0
C812 C 0.1187 0.23858 0.64227 0.0
C813 C 0.14171 0.22472 0.62455 0.0
H814 H 0.10056 0.28097 0.65948 0.0
C815 C 0.16668 0.24229 0.61362 0.0
H816 H 0.09922 0.22512 0.65065 0.0
C817 C 0.16772 0.27408 0.61895 0.0
C818 C 0.14339 0.28841 0.63463 0.0
H819 H 0.18443 0.23171 0.59968 0.0
H820 H 0.1863 0.28763 0.60891 0.0
C821 C 0.11946 0.27036 0.6472 0.0
C822 C 0.23806 0.60787 0.09368 0.0
C823 C 0.22182 0.60785 0.12162 0.0
H824 H 0.28198 0.61131 0.07179 0.0
C825 C 0.23745 0.61398 0.14945 0.0
H826 H 0.22621 0.6036 0.07192 0.0
C827 C 0.26953 0.61788 0.14947 0.0
C828 C 0.28594 0.61633 0.12158 0.0
H829 H 0.22515 0.61411 0.1712 0.0
H830 H 0.28153 0.62109 0.17129 0.0
C831 C 0.26987 0.61241 0.09361 0.0
C832 C 0.87177 0.24305 0.40233 0.0
C833 C 0.89168 0.22746 0.38232 0.0
H834 H 0.85246 0.28658 0.41505 0.0
C835 C 0.90594 0.24344 0.358 0.0
H836 H 0.86047 0.23107 0.42116 0.0
C837 C 0.90205 0.27518 0.35507 0.0
C838 C 0.88291 0.29091 0.37567 0.0
H839 H 0.92141 0.23173 0.34234 0.0
H840 H 0.91475 0.28757 0.33739 0.0
C841 C 0.86696 0.2746 0.39866 0.0
C842 C 0.24813 0.40601 0.88399 0.0
C843 C 0.23046 0.38105 0.89503 0.0
H844 H 0.29346 0.42567 0.87943 0.0
C845 C 0.24528 0.35439 0.90584 0.0
H846 H 0.2372 0.42668 0.87526 0.0
C847 C 0.27743 0.3539 0.90819 0.0
C848 C 0.29476 0.37984 0.89926 0.0
H849 H 0.23205 0.33487 0.91447 0.0
H850 H 0.28858 0.33422 0.91879 0.0
C851 C 0.28018 0.4054 0.88612 0.0
C852 C 0.11104 0.76945 0.37027 0.0
C853 C 0.11355 0.78631 0.39795 0.0
H854 H 0.10333 0.7248 0.34971 0.0
C855 C 0.11288 0.77074 0.42638 0.0
H856 H 0.11159 0.78102 0.34808 0.0
C857 C 0.10754 0.73906 0.42723 0.0
C858 C 0.10357 0.72249 0.3997 0.0
H859 H 0.11498 0.78317 0.44805 0.0
H860 H 0.10578 0.72758 0.44942 0.0
C861 C 0.10636 0.73749 0.37115 0.0
C862 C 0.77791 0.60726 0.93588 0.0
C863 C 0.7914 0.61307 0.90705 0.0
H864 H 0.73759 0.60905 0.96355 0.0
C865 C 0.77401 0.62771 0.8839 0.0
H866 H 0.79104 0.59683 0.95449 0.0
C867 C 0.7429 0.63468 0.88904 0.0
C868 C 0.72906 0.62744 0.91753 0.0
H869 H 0.7841 0.63277 0.86158 0.0
H870 H 0.7295 0.64465 0.8704 0.0
C871 C 0.74725 0.61454 0.94114 0.0
C872 C 0.60305 0.94557 0.77804 0.0
C873 C 0.60858 0.91676 0.79163 0.0
H874 H 0.60223 0.97225 0.73689 0.0
C875 C 0.62048 0.89268 0.77366 0.0
H876 H 0.59462 0.96475 0.79164 0.0
C877 C 0.62466 0.89685 0.74186 0.0
C878 C 0.61728 0.92527 0.72795 0.0
H879 H 0.62515 0.87034 0.78386 0.0
H880 H 0.63244 0.87754 0.72808 0.0
C881 C 0.60753 0.94985 0.74663 0.0
C882 C 0.6246 0.16074 0.24015 0.0
C883 C 0.64355 0.13955 0.22496 0.0
H884 H 0.60915 0.17797 0.28377 0.0
C885 C 0.66372 0.12096 0.24199 0.0
H886 H 0.60885 0.17521 0.22727 0.0
C887 C 0.66306 0.12171 0.27414 0.0
C888 C 0.64314 0.14195 0.2894 0.0
H889 H 0.67831 0.10431 0.23054 0.0
H890 H 0.67724 0.10568 0.28697 0.0
C891 C 0.62484 0.16237 0.27231 0.0
C892 C 0.39966 0.11464 0.74326 0.0
C893 C 0.41079 0.08768 0.72906 0.0
H894 H 0.39729 0.14146 0.78494 0.0
C895 C 0.42711 0.0662 0.74697 0.0
H896 H 0.38696 0.13163 0.73009 0.0
C897 C 0.43329 0.07202 0.77795 0.0
C898 C 0.4231 0.09933 0.79199 0.0
H899 H 0.43579 0.04505 0.73697 0.0
H900 H 0.44617 0.05497 0.7909 0.0
C901 C 0.40566 0.12035 0.77458 0.0
C902 C 0.39207 0.85583 0.24132 0.0
C903 C 0.37229 0.87611 0.22576 0.0
H904 H 0.40821 0.8396 0.28517 0.0
C905 C 0.35181 0.89447 0.24253 0.0
H906 H 0.40815 0.8416 0.22873 0.0
C907 C 0.35269 0.89419 0.27471 0.0
C908 C 0.37317 0.87462 0.29026 0.0
H909 H 0.33658 0.91045 0.23084 0.0
H910 H 0.33807 0.90989 0.28734 0.0
C911 C 0.39205 0.85464 0.27347 0.0
C912 C 0.15696 0.07628 0.53454 0.0
C913 C 0.1317 0.07757 0.55473 0.0
H914 H 0.17321 0.08764 0.48925 0.0
C915 C 0.10177 0.0789 0.54239 0.0
H916 H 0.18029 0.07519 0.5437 0.0
C917 C 0.09765 0.08624 0.5113 0.0
C918 C 0.12351 0.0921 0.49257 0.0
H919 H 0.08196 0.07973 0.55759 0.0
H920 H 0.07458 0.09166 0.5032 0.0
C921 C 0.15292 0.08379 0.50335 0.0
C922 C 0.44496 0.65846 0.99252 0.0
C923 C 0.44575 0.62997 0.97722 0.0
H924 H 0.43071 0.68127 0.03376 0.0
C925 C 0.44756 0.60281 0.99489 0.0
H926 H 0.44403 0.67975 0.97937 0.0
C927 C 0.43926 0.60352 0.02608 0.0
C928 C 0.43023 0.63157 0.03926 0.0
H929 H 0.44869 0.58053 0.98347 0.0
H930 H 0.4345 0.58187 0.03778 0.0
C931 C 0.43707 0.65928 0.02372 0.0
C932 C 0.85578 0.93769 0.50423 0.0
C933 C 0.88593 0.93203 0.49401 0.0
H934 H 0.82767 0.94467 0.54405 0.0
C935 C 0.91099 0.94178 0.51253 0.0
H936 H 0.83601 0.93101 0.49018 0.0
C937 C 0.90603 0.95024 0.54324 0.0
C938 C 0.87628 0.94734 0.55563 0.0
H939 H 0.93452 0.93858 0.50479 0.0
H940 H 0.92591 0.95221 0.5585 0.0
C941 C 0.851 0.94608 0.53511 0.0
C942 C 0.57736 0.35764 0.98019 0.0
C943 C 0.57753 0.38797 0.96902 0.0
H944 H 0.58668 0.32933 0.01943 0.0
C945 C 0.57391 0.41255 0.98985 0.0
H946 H 0.5799 0.33836 0.96442 0.0
C947 C 0.57815 0.40748 0.02146 0.0
C948 C 0.58603 0.37785 0.0317 0.0
H949 H 0.57376 0.43617 0.98151 0.0
H950 H 0.58108 0.42734 0.03654 0.0
C951 C 0.58138 0.35253 0.01175 0.0
C952 C 0.10149 0.94556 0.52472 0.0
C953 C 0.12798 0.943 0.54342 0.0
H954 H 0.08209 0.93454 0.48039 0.0
C955 C 0.15703 0.94226 0.52939 0.0
H956 H 0.07882 0.94653 0.5352 0.0
C957 C 0.15895 0.93568 0.49792 0.0
C958 C 0.13177 0.9297 0.48092 0.0
H959 H 0.17779 0.94061 0.54342 0.0
H960 H 0.18124 0.92945 0.48856 0.0
C961 C 0.10334 0.93861 0.49322 0.0
C962 C 0.57133 0.66491 0.979 0.0
C963 C 0.57111 0.64066 0.95737 0.0
H964 H 0.58494 0.67792 0.02495 0.0
C965 C 0.56822 0.6103 0.96834 0.0
H966 H 0.57255 0.68866 0.97113 0.0
C967 C 0.57604 0.60394 0.999 0.0
C968 C 0.58497 0.62821 0.01885 0.0
H969 H 0.56687 0.59118 0.95215 0.0
H970 H 0.57943 0.5801 1.00577 0.0
C971 C 0.57898 0.65874 0.00986 0.0
C972 C 0.91778 0.0835 0.49457 0.0
C973 C 0.88962 0.09252 0.48146 0.0
H974 H 0.94078 0.07252 0.53691 0.0
C975 C 0.86194 0.08532 0.49677 0.0
H976 H 0.93937 0.08865 0.48299 0.0
C977 C 0.86279 0.07589 0.52755 0.0
C978 C 0.89127 0.07462 0.54297 0.0
H979 H 0.83991 0.09173 0.48674 0.0
H980 H 0.84146 0.07601 0.54058 0.0
C981 C 0.9185 0.07392 0.52543 0.0
C982 C 0.44129 0.41605 0.97847 0.0
C983 C 0.44309 0.38597 0.96666 0.0
H984 H 0.42633 0.44368 0.01642 0.0
C985 C 0.44386 0.36105 0.9874 0.0
H986 H 0.44108 0.43567 0.96291 0.0
C987 C 0.43485 0.36544 0.01809 0.0
C988 C 0.42577 0.39491 0.02792 0.0
H989 H 0.44548 0.3376 0.97875 0.0
H990 H 0.43068 0.34532 0.03242 0.0
C991 C 0.43223 0.42054 0.00901 0.0
C992 C 0.53444 0.09576 0.08938 0.0
C993 C 0.54257 0.127 0.09273 0.0
H994 H 0.49696 0.06337 0.09157 0.0
C995 C 0.52051 0.14961 0.08588 0.0
H996 H 0.5513 0.0779 0.09375 0.0
C997 C 0.4893 0.14134 0.08459 0.0
C998 C 0.48067 0.11059 0.09063 0.0
H999 H 0.52663 0.17393 0.08746 0.0
H1000 H 0.47238 0.15963 0.08507 0.0
C1001 C 0.5032 0.08747 0.0883 0.0
C1002 C 0.40332 0.99464 0.56761 0.0
C1003 C 0.37498 0.98124 0.57615 0.0
H1004 H 0.4293 0.03688 0.56522 0.0
C1005 C 0.34849 0.99953 0.577 0.0
H1006 H 0.42408 0.98082 0.5671 0.0
C1007 C 0.35131 0.03162 0.57453 0.0
C1008 C 0.38083 0.04531 0.57298 0.0
H1009 H 0.32648 0.98956 0.58382 0.0
H1010 H 0.33136 0.04555 0.57992 0.0
C1011 C 0.40631 0.02677 0.56626 0.0
C1012 C 0.49165 0.85983 0.08567 0.0
C1013 C 0.46896 0.882 0.09173 0.0
H1014 H 0.54006 0.85105 0.08565 0.0
C1015 C 0.47637 0.91337 0.08797 0.0
H1016 H 0.48615 0.83541 0.08757 0.0
C1017 C 0.50741 0.92243 0.08724 0.0
C1018 C 0.53055 0.89996 0.09007 0.0
H1019 H 0.45907 0.93091 0.09174 0.0
H1020 H 0.51305 0.94673 0.09015 0.0
C1021 C 0.52266 0.86887 0.08464 0.0
C1022 C 0.61117 0.01764 0.56959 0.0
C1023 C 0.63936 0.03149 0.57822 0.0
H1024 H 0.58625 0.97486 0.5656 0.0
C1025 C 0.66631 0.01386 0.57832 0.0
H1026 H 0.59007 0.03095 0.56968 0.0
C1027 C 0.66426 0.98182 0.57458 0.0
C1028 C 0.63509 0.96739 0.57257 0.0
H1029 H 0.68822 0.02419 0.58521 0.0
H1030 H 0.68467 0.96823 0.57926 0.0
C1031 C 0.60901 0.98552 0.56688 0.0
C1032 C 0.50402 0.85153 0.93641 0.0
C1033 C 0.4864 0.87844 0.93799 0.0
H1034 H 0.54958 0.83321 0.9333 0.0
C1035 C 0.50064 0.90642 0.94666 0.0
H1036 H 0.4934 0.82984 0.92933 0.0
C1037 C 0.53284 0.90853 0.94814 0.0
C1038 C 0.55071 0.88253 0.94155 0.0
H1039 H 0.48735 0.92751 0.94756 0.0
H1040 H 0.54361 0.93121 0.94974 0.0
C1041 C 0.53618 0.85348 0.9389 0.0
C1042 C 0.59092 1.00736 0.42592 0.0
C1043 C 0.61268 0.98352 0.4238 0.0
H1044 H 0.58412 0.05597 0.42131 0.0
C1045 C 0.64388 0.99038 0.43005 0.0
H1046 H 0.56653 1.00251 0.42238 0.0
C1047 C 0.65395 0.02109 0.42927 0.0
C1048 C 0.63267 0.0445 0.42267 0.0
H1049 H 0.66114 0.9724 0.42962 0.0
H1050 H 0.67857 0.0258 0.42804 0.0
C1051 C 0.601 0.0381 0.42553 0.0
C1052 C 0.49478 0.11388 0.95108 0.0
C1053 C 0.47608 0.13909 0.94361 0.0
H1054 H 0.54082 0.09635 0.95116 0.0
C1055 C 0.48963 0.16856 0.9408 0.0
H1056 H 0.48475 0.09091 0.95297 0.0
C1057 C 0.52172 0.17148 0.93845 0.0
C1058 C 0.54018 0.14516 0.94047 0.0
H1059 H 0.47557 0.18825 0.93468 0.0
H1060 H 0.53157 0.19332 0.93091 0.0
C1061 C 0.5269 0.11701 0.94984 0.0
C1062 C 0.41403 0.97798 0.42733 0.0
C1063 C 0.38233 0.97171 0.42409 0.0
H1064 H 0.4487 0.01335 0.42446 0.0
C1065 C 0.36117 0.9953 0.43031 0.0
H1066 H 0.4308 0.95998 0.42339 0.0
C1067 C 0.37141 0.02597 0.43114 0.0
C1068 C 0.40266 0.03262 0.42529 0.0
H1069 H 0.33654 0.99072 0.42877 0.0
H1070 H 0.35425 0.04403 0.43038 0.0
C1071 C 0.42428 0.00867 0.42775 0.0
C1072 C 0.07966 0.50418 0.09693 0.0
C1073 C 0.08757 0.4862 0.12276 0.0
H1074 H 0.06872 0.54945 0.0811 0.0
C1075 C 0.07882 0.49629 0.15228 0.0
H1076 H 0.08513 0.49644 0.07378 0.0
C1077 C 0.06897 0.52673 0.15628 0.0
C1078 C 0.06915 0.547 0.13095 0.0
H1079 H 0.08392 0.48256 0.17257 0.0
H1080 H 0.06783 0.53583 0.1796 0.0
C1081 C 0.06958 0.5344 0.10109 0.0
C1082 C 0.07929 0.52322 0.86044 0.0
C1083 C 0.07769 0.53804 0.88915 0.0
H1084 H 0.09439 0.4826 0.83711 0.0
C1085 C 0.07613 0.51997 0.91608 0.0
H1086 H 0.08021 0.53672 0.83936 0.0
C1087 C 0.08479 0.48894 0.91495 0.0
C1088 C 0.09402 0.47624 0.88672 0.0
H1089 H 0.07458 0.53103 0.93851 0.0
H1090 H 0.08923 0.47686 0.93643 0.0
C1091 C 0.08776 0.49226 0.85921 0.0
C1092 C 0.02168 0.56945 0.41326 0.0
C1093 C 0.0394 0.57173 0.38632 0.0
H1094 H 0.97683 0.57529 0.43284 0.0
C1095 C 0.02448 0.57141 0.35742 0.0
H1096 H 0.03281 0.57012 0.43576 0.0
C1097 C 0.99254 0.57561 0.35574 0.0
C1098 C 0.9755 0.57861 0.38297 0.0
H1099 H 0.03782 0.57358 0.33638 0.0
H1100 H 0.98198 0.5805 0.33353 0.0
C1101 C 0.98966 0.57269 0.41156 0.0
C1102 C 0.94963 0.53847 0.90111 0.0
C1103 C 0.94312 0.556 0.87469 0.0
H1104 H 0.95122 0.493 0.92028 0.0
C1105 C 0.94302 0.54157 0.84562 0.0
H1106 H 0.94937 0.54916 0.92378 0.0
C1107 C 0.94302 0.50932 0.8437 0.0
C1108 C 0.94419 0.49162 0.87077 0.0
H1109 H 0.93758 0.55469 0.825 0.0
H1110 H 0.93755 0.49844 0.82173 0.0
C1111 C 0.95068 0.50628 0.89906 0.0
C1112 C 0.02884 0.43357 0.37186 0.0
C1113 C 0.03452 0.42573 0.40286 0.0
H1114 H 0.99434 0.43462 0.33641 0.0
C1115 C 0.01021 0.42778 0.42419 0.0
H1116 H 0.04726 0.43328 0.35499 0.0
C1117 C 0.97979 0.42929 0.41346 0.0
C1118 C 0.97412 0.42786 0.38154 0.0
H1119 H 0.01418 0.42309 0.44848 0.0
H1120 H 0.96126 0.42509 0.42974 0.0
C1121 C 0.99841 0.43464 0.36115 0.0
C1122 C 0.93506 0.50025 0.10076 0.0
C1123 C 0.92664 0.48632 0.12872 0.0
H1124 H 0.94316 0.54351 0.07837 0.0
C1125 C 0.93318 0.50173 0.15663 0.0
H1126 H 0.93052 0.4886 0.07899 0.0
C1127 C 0.94023 0.53322 0.15624 0.0
C1128 C 0.94048 0.5489 0.12798 0.0
H1129 H 0.92731 0.49106 0.17851 0.0
H1130 H 0.93912 0.54601 0.17777 0.0
C1131 C 0.9425 0.53175 0.10048 0.0
C1132 C 0.9923 0.4293 0.65022 0.0
C1133 C 0.98542 0.42738 0.61854 0.0
H1134 H 0.02738 0.42162 0.68422 0.0
C1135 C 0.00946 0.43195 0.59719 0.0
H1136 H 0.97418 0.42685 0.66727 0.0
C1137 C 0.04011 0.42916 0.60697 0.0
C1138 C 0.04624 0.42196 0.63797 0.0
H1139 H 1.0046 0.43166 0.57259 0.0
H1140 H 0.05791 0.42681 0.58961 0.0
C1141 C 0.02289 0.42619 0.65998 0.0
C1142 C 0.01382 0.57157 0.61153 0.0
C1143 C 0.02897 0.57745 0.63971 0.0
H1144 H 0.97041 0.57268 0.58759 0.0
C1145 C 0.01185 0.57785 0.66709 0.0
H1146 H 0.0267 0.57167 0.59009 0.0
C1147 C 0.97958 0.57739 0.66573 0.0
C1148 C 0.96453 0.57761 0.63691 0.0
H1149 H 0.02315 0.58289 0.68897 0.0
H1150 H 0.96681 0.58214 0.68667 0.0
C1151 C 0.98159 0.57209 0.61006 0.0
C1152 C 1.0019 0.09748 0.39096 0.0
C1153 C 0.98353 0.11625 0.37183 0.0
H1154 H 0.04708 0.08932 0.41008 0.0
C1155 C 0.99891 0.1369 0.35185 0.0
H1156 H 0.99094 0.0822 0.40753 0.0
C1157 C 0.03123 0.14127 0.35355 0.0
C1158 C 0.04927 0.12495 0.37513 0.0
H1159 H 0.98559 0.15255 0.33763 0.0
H1160 H 0.04151 0.16021 0.34071 0.0
C1161 C 0.03434 0.10154 0.39235 0.0
C1162 C 0.37806 0.48818 0.86426 0.0
C1163 C 0.40394 0.47248 0.8763 0.0
H1164 H 0.35565 0.53198 0.85739 0.0
C1165 C 0.43002 0.49051 0.88445 0.0
H1166 H 0.35703 0.47535 0.85906 0.0
C1167 C 0.42912 0.52308 0.88369 0.0
C1168 C 0.4022 0.53878 0.87457 0.0
H1169 H 0.44984 0.47958 0.89506 0.0
H1170 H 0.44849 0.53599 0.89332 0.0
C1171 C 0.37715 0.52086 0.86349 0.0
C1172 C 0.01714 0.92208 0.39353 0.0
C1173 C 0.03406 0.90171 0.37484 0.0
H1174 H 0.97309 0.93293 0.4134 0.0
C1175 C 0.01713 0.88078 0.35619 0.0
H1176 H 0.02929 0.93766 0.40913 0.0
C1177 C 0.98473 0.87784 0.35885 0.0
C1178 C 0.96815 0.89588 0.38012 0.0
H1179 H 0.02929 0.86392 0.34241 0.0
H1180 H 0.97323 0.85874 0.34716 0.0
C1181 C 0.98465 0.91939 0.39591 0.0
C1182 C 0.59267 0.49941 0.87475 0.0
C1183 C 0.62054 0.4843 0.86812 0.0
H1184 H 0.57056 0.54218 0.88598 0.0
C1185 C 0.64646 0.50286 0.86097 0.0
H1186 H 0.57254 0.48596 0.88149 0.0
C1187 C 0.64523 0.53545 0.86328 0.0
C1188 C 0.61815 0.55036 0.87315 0.0
H1189 H 0.66861 0.49213 0.85698 0.0
H1190 H 0.66657 0.54858 0.86122 0.0
C1191 C 0.59148 0.53186 0.87719 0.0
C1192 C 0.98419 0.8754 0.65117 0.0
C1193 C 0.96913 0.90231 0.6409 0.0
H1194 H 0.02761 0.85221 0.65766 0.0
C1195 C 0.98751 0.92896 0.63629 0.0
H1196 H 0.97111 0.85407 0.65368 0.0
C1197 C 0.01999 0.92788 0.63859 0.0
C1198 C 0.03522 0.90014 0.64564 0.0
H1199 H 0.97704 0.94974 0.62721 0.0
H1200 H 0.03332 0.94796 0.63147 0.0
C1201 C 0.01679 0.87427 0.65332 0.0
C1202 C 0.59282 0.49564 0.11736 0.0
C1203 C 0.61245 0.4781 0.1364 0.0
H1204 H 0.58321 0.54017 0.0977 0.0
C1205 C 0.63357 0.49431 0.15547 0.0
H1206 H 0.57714 0.484 0.10147 0.0
C1207 C 0.63728 0.52666 0.15311 0.0
C1208 C 0.61983 0.54389 0.13175 0.0
H1209 H 0.64987 0.4816 0.16955 0.0
H1210 H 0.65643 0.53761 0.16526 0.0
C1211 C 0.59626 0.52808 0.11529 0.0
C1212 C 0.99755 0.14247 0.65909 0.0
C1213 C 0.97972 0.11738 0.64802 0.0
H1214 H 0.04294 0.16286 0.66346 0.0
C1215 C 0.99554 0.09061 0.63879 0.0
H1216 H 0.98633 0.16386 0.66525 0.0
C1217 C 0.02811 0.08996 0.63787 0.0
C1218 C 0.046 0.11611 0.64605 0.0
H1219 H 0.98268 0.07125 0.62911 0.0
H1220 H 0.0391 0.07031 0.62715 0.0
C1221 C 0.03021 0.14178 0.65823 0.0
C1222 C 0.4198 0.51784 0.12843 0.0
C1223 C 0.40066 0.53625 0.14705 0.0
H1224 H 0.42879 0.47257 0.11018 0.0
C1225 C 0.38013 0.52081 0.1671 0.0
H1226 H 0.43501 0.52879 0.11182 0.0
C1227 C 0.37628 0.48838 0.16591 0.0
C1228 C 0.39299 0.47025 0.14479 0.0
H1229 H 0.36418 0.53408 0.18089 0.0
H1230 H 0.3574 0.478 0.17871 0.0
C1231 C 0.41627 0.48533 0.12758 0.0
C1232 C 0.34015 0.01565 0.14111 0.0
C1233 C 0.36115 0.03401 0.12417 0.0
H1234 H 0.3248 0.96982 0.15309 0.0
C1235 C 0.37801 0.01923 0.10064 0.0
H1236 H 0.32765 0.02579 0.16018 0.0
C1237 C 0.37676 0.98674 0.09689 0.0
C1238 C 0.35811 0.96814 0.11611 0.0
H1239 H 0.39535 0.03218 0.08796 0.0
H1240 H 0.39297 0.97597 0.08132 0.0
C1241 C 0.33862 0.9833 0.1371 0.0
C1242 C 0.48544 0.87101 0.64305 0.0
C1243 C 0.46744 0.87989 0.61737 0.0
H1244 H 0.53093 0.86911 0.66337 0.0
C1245 C 0.48309 0.88755 0.58994 0.0
H1246 H 0.4743 0.86611 0.6649 0.0
C1247 C 0.51562 0.88913 0.589 0.0
C1248 C 0.53367 0.88329 0.61553 0.0
H1249 H 0.47012 0.89553 0.57004 0.0
H1250 H 0.52649 0.89858 0.56852 0.0
C1251 C 0.51811 0.87256 0.64209 0.0
C1252 C 0.67462 0.02953 0.13704 0.0
C1253 C 0.65581 0.04519 0.11563 0.0
H1254 H 0.68426 0.98673 0.1601 0.0
C1255 C 0.63735 0.02711 0.09554 0.0
H1256 H 0.6883 0.04264 0.15362 0.0
C1257 C 0.63534 0.99466 0.09902 0.0
C1258 C 0.65132 0.97947 0.12303 0.0
H1259 H 0.62166 0.0383 0.07959 0.0
H1260 H 0.61801 0.98213 0.08571 0.0
C1261 C 0.6724 0.99722 0.14071 0.0
C1262 C 0.53034 0.14282 0.64389 0.0
C1263 C 0.54843 0.13491 0.61813 0.0
H1264 H 0.48484 0.14365 0.66374 0.0
C1265 C 0.53292 0.1282 0.59021 0.0
H1266 H 0.5414 0.147 0.66605 0.0
C1267 C 0.50041 0.12634 0.58885 0.0
C1268 C 0.48231 0.13096 0.61543 0.0
H1269 H 0.54599 0.12101 0.5702 0.0
H1270 H 0.48965 0.11745 0.56793 0.0
C1271 C 0.4977 0.14108 0.64249 0.0
C1272 C 0.37681 0.02226 0.87929 0.0
C1273 C 0.38725 0.03652 0.90683 0.0
H1274 H 0.37039 0.97955 0.85425 0.0
C1275 C 0.39188 0.01735 0.93275 0.0
H1276 H 0.37419 0.03597 0.85851 0.0
C1277 C 0.38967 0.98492 0.93029 0.0
C1278 C 0.38265 0.97055 0.90187 0.0
H1279 H 0.40096 0.02721 0.95401 0.0
H1280 H 0.39682 0.97102 0.94983 0.0
C1281 C 0.37481 0.98971 0.87677 0.0
C1282 C 0.51328 0.84258 0.37525 0.0
C1283 C 0.53147 0.86361 0.39256 0.0
H1284 H 0.46755 0.82709 0.36268 0.0
C1285 C 0.51657 0.88026 0.41617 0.0
H1286 H 0.52352 0.83024 0.35611 0.0
C1287 C 0.4841 0.87881 0.41965 0.0
C1288 C 0.46564 0.8602 0.40003 0.0
H1289 H 0.52941 0.89762 0.42914 0.0
H1290 H 0.47321 0.8949 0.43531 0.0
C1291 C 0.48093 0.84088 0.37895 0.0
C1292 C 0.63263 0.03664 0.93083 0.0
C1293 C 0.64124 0.05153 0.90322 0.0
H1294 H 0.62088 0.99388 0.95323 0.0
C1295 C 0.65103 0.03282 0.87852 0.0
H1296 H 0.624 0.05015 0.94998 0.0
C1297 C 0.64949 1.00017 0.8805 0.0
C1298 C 0.63777 0.98535 0.9071 0.0
H1299 H 0.6567 0.04333 0.85653 0.0
H1300 H 0.65368 0.98676 0.8598 0.0
C1301 C 0.63103 1.00415 0.93278 0.0
C1302 C 0.50018 0.13672 0.41639 0.0
C1303 C 0.48458 0.15263 0.3926 0.0
H1304 H 0.54412 0.12293 0.43529 0.0
C1305 C 0.50218 0.17333 0.37455 0.0
H1306 H 0.4878 0.11963 0.42994 0.0
C1307 C 0.5346 0.17531 0.37773 0.0
C1308 C 0.55055 0.15667 0.39905 0.0
H1309 H 0.49138 0.18509 0.35527 0.0
H1310 H 0.54747 0.18875 0.36094 0.0
C1311 C 0.53273 0.13851 0.41941 0.0
C1312 C 0.09657 0.38605 0.99921 0.0
C1313 C 0.11594 0.367 0.98154 0.0
H1314 H 0.08696 0.40538 0.04392 0.0
C1315 C 0.13609 0.34732 0.99772 0.0
H1316 H 0.08165 0.40241 0.98766 0.0
C1317 C 0.13936 0.34921 0.03015 0.0
C1318 C 0.12247 0.37075 0.04753 0.0
H1319 H 0.15219 0.33318 0.98499 0.0
H1320 H 0.15799 0.33663 0.04107 0.0
C1321 C 0.09957 0.38766 0.03174 0.0
C1322 C 0.08822 0.63688 0.99264 0.0
C1323 C 0.11686 0.64374 0.97881 0.0
H1324 H 0.06401 0.62569 0.03444 0.0
C1325 C 0.14174 0.6518 0.99844 0.0
H1326 H 0.06884 0.62955 0.97835 0.0
C1327 C 0.13879 0.65007 0.03092 0.0
C1328 C 0.11107 0.63963 0.04465 0.0
H1329 H 0.1644 0.65611 0.98871 0.0
H1330 H 0.15945 0.65275 0.04499 0.0
C1331 C 0.08536 0.63488 0.02502 0.0
C1332 C 0.88121 0.5923 0.4863 0.0
C1333 C 0.87374 0.62038 0.47176 0.0
H1334 H 0.89213 0.56905 0.52877 0.0
C1335 C 0.86489 0.64516 0.49081 0.0
H1336 H 0.88917 0.57305 0.47252 0.0
C1337 C 0.86621 0.64271 0.52342 0.0
C1338 C 0.87687 0.61556 0.53791 0.0
H1339 H 0.86014 0.66747 0.4806 0.0
H1340 H 0.86277 0.66338 0.53709 0.0
C1341 C 0.88271 0.58991 0.51877 0.0
C1342 C 0.92554 0.4064 0.98418 0.0
C1343 C 0.90503 0.38998 0.96452 0.0
H1344 H 0.93896 0.41784 0.03079 0.0
C1345 C 0.88508 0.36808 0.97815 0.0
H1346 H 0.94083 0.42388 0.97462 0.0
C1347 C 0.88392 0.36479 0.0107 0.0
C1348 C 0.90313 0.38274 0.03042 0.0
H1349 H 0.86838 0.35568 0.96398 0.0
H1350 H 0.86611 0.35012 0.02056 0.0
C1351 C 0.92471 0.40274 0.01652 0.0
C1352 C 0.17733 0.38258 0.53397 0.0
C1353 C 0.15751 0.40253 0.55006 0.0
H1354 H 0.18837 0.3612 0.49061 0.0
C1355 C 0.13849 0.42201 0.53235 0.0
H1356 H 0.19147 0.36643 0.54675 0.0
C1357 C 0.13707 0.41933 0.49979 0.0
C1358 C 0.15415 0.39665 0.48403 0.0
H1359 H 0.12205 0.43679 0.54384 0.0
H1360 H 0.11937 0.43201 0.48751 0.0
C1361 C 0.17567 0.37967 0.50152 0.0
C1362 C 0.92894 0.64187 0.993 0.0
C1363 C 0.90328 0.64557 0.97318 0.0
H1364 H 0.94539 0.63802 0.03978 0.0
C1365 C 0.87537 0.65526 0.98667 0.0
H1366 H 0.95045 0.63328 0.98377 0.0
C1367 C 0.87229 0.65751 0.01914 0.0
C1368 C 0.89722 0.65073 0.039 0.0
H1369 H 0.85475 0.65707 0.97248 0.0
H1370 H 0.84954 0.66123 0.02871 0.0
C1371 C 0.92596 0.64446 0.02533 0.0
C1372 C 0.88161 0.42032 0.48241 0.0
C1373 C 0.8638 0.39956 0.46442 0.0
H1374 H 0.90067 0.43096 0.52726 0.0
C1375 C 0.84605 0.37718 0.48019 0.0
H1376 H 0.89655 0.43702 0.47111 0.0
C1377 C 0.84856 0.37354 0.5125 0.0
C1378 C 0.86882 0.39224 0.53017 0.0
H1379 H 0.83299 0.36005 0.46714 0.0
H1380 H 0.8375 0.35364 0.52307 0.0
C1381 C 0.88389 0.41686 0.51484 0.0
C1382 C 0.12397 0.58758 0.53347 0.0
C1383 C 0.13242 0.61543 0.54827 0.0
H1384 H 0.1127 0.56472 0.49072 0.0
C1385 C 0.14261 0.64007 0.52954 0.0
H1386 H 0.11507 0.56845 0.54702 0.0
C1387 C 0.14157 0.63779 0.49691 0.0
C1388 C 0.12996 0.61094 0.48211 0.0
H1389 H 0.14823 0.66221 0.53998 0.0
H1390 H 0.14601 0.65844 0.48344 0.0
C1391 C 0.12287 0.58533 0.50097 0.0
C1392 C 0.27879 0.10446 0.37843 0.0
C1393 C 0.29962 0.12323 0.39573 0.0
H1394 H 0.23146 0.09215 0.36793 0.0
C1395 C 0.28695 0.14388 0.41718 0.0
H1396 H 0.28744 0.08818 0.36162 0.0
C1397 C 0.25462 0.14603 0.42079 0.0
C1398 C 0.23378 0.12765 0.40309 0.0
H1399 H 0.30197 0.15872 0.43089 0.0
H1400 H 0.24592 0.1626 0.4373 0.0
C1401 C 0.24648 0.10663 0.38202 0.0
C1402 C 0.37776 0.74911 0.91608 0.0
C1403 C 0.3925 0.72359 0.90187 0.0
H1404 H 0.37445 0.79859 0.92076 0.0
C1405 C 0.41322 0.72994 0.87789 0.0
H1406 H 0.36125 0.74534 0.93446 0.0
C1407 C 0.42065 0.76074 0.87004 0.0
C1408 C 0.40754 0.78628 0.88577 0.0
H1409 H 0.42502 0.71125 0.86637 0.0
H1410 H 0.43784 0.76453 0.8523 0.0
C1411 C 0.38508 0.7799 0.90814 0.0
C1412 C 0.72956 0.87293 0.41566 0.0
C1413 C 0.7165 0.8934 0.39419 0.0
H1414 H 0.77092 0.85465 0.43589 0.0
C1415 C 0.73704 0.9122 0.37683 0.0
H1416 H 0.7148 0.85807 0.42943 0.0
C1417 C 0.76942 0.9103 0.38045 0.0
C1418 C 0.7825 0.88949 0.40158 0.0
H1419 H 0.72808 0.92836 0.36 0.0
H1420 H 0.78419 0.92488 0.3664 0.0
C1421 C 0.76195 0.87102 0.41927 0.0
C1422 C 0.6405 0.24333 0.9047 0.0
C1423 C 0.61736 0.23611 0.88303 0.0
H1424 H 0.66503 0.27884 0.92945 0.0
C1425 C 0.60374 0.2611 0.86674 0.0
H1426 H 0.65152 0.2251 0.91774 0.0
C1427 C 0.61134 0.29219 0.87345 0.0
C1428 C 0.63279 0.29944 0.89679 0.0
H1429 H 0.58598 0.25669 0.84952 0.0
H1430 H 0.59909 0.31045 0.86163 0.0
C1431 C 0.64802 0.27441 0.91149 0.0
C1432 C 0.2578 0.91903 0.64846 0.0
C1433 C 0.28296 0.90516 0.63285 0.0
H1434 H 0.20841 0.9238 0.65261 0.0
C1435 C 0.27604 0.88179 0.61141 0.0
H1436 H 0.26201 0.93697 0.66549 0.0
C1437 C 0.24506 0.87425 0.60417 0.0
C1438 C 0.21989 0.8897 0.61818 0.0
H1439 H 0.29443 0.87056 0.59891 0.0
H1440 H 0.24084 0.85702 0.58642 0.0
C1441 C 0.22682 0.9114 0.64131 0.0
C1442 C 0.64378 0.75053 0.09565 0.0
C1443 C 0.62543 0.72959 0.113 0.0
H1444 H 0.65621 0.7979 0.08594 0.0
C1445 C 0.60432 0.74214 0.134 0.0
H1446 H 0.66038 0.74196 0.07916 0.0
C1447 C 0.60197 0.77444 0.13781 0.0
C1448 C 0.62063 0.79536 0.12076 0.0
H1449 H 0.58983 0.72702 0.14779 0.0
H1450 H 0.58559 0.78304 0.15451 0.0
C1451 C 0.64143 0.78281 0.09945 0.0
C1452 C 0.78871 0.10194 0.64104 0.0
C1453 C 0.79516 0.12351 0.61779 0.0
H1454 H 0.754 0.07646 0.66558 0.0
C1455 C 0.76972 0.13875 0.60382 0.0
H1456 H 0.80736 0.08975 0.65235 0.0
C1457 C 0.73891 0.13119 0.61129 0.0
C1458 C 0.73243 0.10798 0.63292 0.0
H1459 H 0.77359 0.15591 0.58601 0.0
H1460 H 0.72027 0.14231 0.59891 0.0
C1461 C 0.75788 0.09425 0.64841 0.0
C1462 C 0.41286 0.2391 0.14018 0.0
C1463 C 0.39359 0.2188 0.12278 0.0
H1464 H 0.4258 0.28611 0.15138 0.0
C1465 C 0.37272 0.23219 0.10184 0.0
H1466 H 0.42933 0.22991 0.15661 0.0
C1467 C 0.37081 0.26463 0.09887 0.0
C1468 C 0.38966 0.28494 0.11671 0.0
H1469 H 0.35749 0.21763 0.08806 0.0
H1470 H 0.35405 0.27383 0.08273 0.0
C1471 C 0.41093 0.27155 0.13722 0.0
C1472 C 0.10618 0.37906 0.24655 0.0
C1473 C 0.12679 0.40004 0.23265 0.0
H1474 H 0.08865 0.35967 0.28865 0.0
C1475 C 0.14529 0.41877 0.25246 0.0
H1476 H 0.09161 0.36423 0.23236 0.0
C1477 C 0.1437 0.41621 0.28495 0.0
C1478 C 0.12354 0.39478 0.29884 0.0
H1479 H 0.16153 0.43531 0.24282 0.0
H1480 H 0.15864 0.43067 0.29914 0.0
C1481 C 0.1046 0.37649 0.27904 0.0
C1482 C 0.09588 0.64532 0.75857 0.0
C1483 C 0.1088 0.63 0.73267 0.0
H1484 H 0.09278 0.64902 0.80818 0.0
C1485 C 0.13212 0.60849 0.73837 0.0
H1486 H 0.07805 0.66241 0.75529 0.0
C1487 C 0.14054 0.60093 0.76893 0.0
C1488 C 0.12607 0.6147 0.79487 0.0
H1489 H 0.14265 0.59624 0.71935 0.0
H1490 H 0.15771 0.58318 0.77223 0.0
C1491 C 0.10441 0.63787 0.78913 0.0
C1492 C 0.90825 0.6442 0.23102 0.0
C1493 C 0.88661 0.621 0.22372 0.0
H1494 H 0.93354 0.66797 0.26663 0.0
C1495 C 0.87089 0.60649 0.24867 0.0
H1496 H 0.92086 0.65585 0.2128 0.0
C1497 C 0.87815 0.61328 0.27979 0.0
C1498 C 0.90152 0.63474 0.28706 0.0
H1499 H 0.85371 0.58865 0.24415 0.0
H1500 H 0.86677 0.60038 0.29798 0.0
C1501 C 0.9156 0.65089 0.26213 0.0
C1502 C 0.86496 0.42744 0.75603 0.0
C1503 C 0.88399 0.41416 0.77917 0.0
H1504 H 0.85274 0.43071 0.70794 0.0
C1505 C 0.90484 0.39132 0.76976 0.0
H1506 H 0.8483 0.44494 0.76209 0.0
C1507 C 0.90734 0.38316 0.73813 0.0
C1508 C 0.88905 0.39752 0.71501 0.0
H1509 H 0.92005 0.38072 0.78655 0.0
H1510 H 0.92417 0.36599 0.73169 0.0
C1511 C 0.86747 0.41937 0.72469 0.0
C1512 C 0.73777 0.89739 0.66358 0.0
C1513 C 0.71836 0.87947 0.64403 0.0
H1514 H 0.78431 0.91047 0.67647 0.0
C1515 C 0.73232 0.85792 0.62439 0.0
H1516 H 0.72781 0.91449 0.67879 0.0
C1517 C 0.7648 0.85621 0.62258 0.0
C1518 C 0.78423 0.87533 0.64095 0.0
H1519 H 0.71828 0.84418 0.60866 0.0
H1520 H 0.7748 0.84094 0.60556 0.0
C1521 C 0.77023 0.89505 0.66239 0.0
C1522 C 0.6093 0.25191 0.13645 0.0
C1523 C 0.63332 0.22998 0.13851 0.0
H1524 H 0.59647 0.29951 0.13094 0.0
C1525 C 0.66389 0.24086 0.13831 0.0
H1526 H 0.58536 0.24434 0.13703 0.0
C1527 C 0.67016 0.27275 0.13567 0.0
C1528 C 0.64607 0.29466 0.13319 0.0
H1529 H 0.68286 0.2249 0.14096 0.0
H1530 H 0.69409 0.28032 0.13483 0.0
C1531 C 0.61553 0.28371 0.13382 0.0
C1532 C 0.24765 0.10794 0.66659 0.0
C1533 C 0.23288 0.13005 0.64817 0.0
H1534 H 0.29077 0.08754 0.68001 0.0
C1535 C 0.25158 0.15185 0.63241 0.0
H1536 H 0.23413 0.09057 0.67863 0.0
C1537 C 0.28411 0.1506 0.63366 0.0
C1538 C 0.29887 0.12697 0.65008 0.0
H1539 H 0.24095 0.16914 0.61782 0.0
H1540 H 0.29755 0.16667 0.61989 0.0
C1541 C 0.28019 0.1062 0.66721 0.0
C1542 C 0.37784 0.75816 0.16405 0.0
C1543 C 0.37095 0.78269 0.14328 0.0
H1544 H 0.38008 0.70903 0.17201 0.0
C1545 C 0.35885 0.77479 0.11427 0.0
H1546 H 0.38713 0.76304 0.18685 0.0
C1547 C 0.35471 0.74356 0.10599 0.0
C1548 C 0.3627 0.71904 0.12633 0.0
H1549 H 0.35369 0.7926 0.0975 0.0
H1550 H 0.34586 0.73867 0.08302 0.0
C1551 C 0.37409 0.72692 0.15561 0.0
C1552 C 0.7598 0.13524 0.35171 0.0
C1553 C 0.73556 0.14048 0.37314 0.0
H1554 H 0.80887 0.13431 0.34305 0.0
C1555 C 0.74378 0.14979 0.40306 0.0
H1556 H 0.75457 0.12799 0.32828 0.0
C1557 C 0.77508 0.15315 0.4114 0.0
C1558 C 0.79931 0.14732 0.39018 0.0
H1559 H 0.72616 0.15341 0.42034 0.0
H1560 H 0.7803 0.16011 0.43493 0.0
C1561 C 0.79115 0.13839 0.36014 0.0
C1562 C 0.36734 0.26652 0.88903 0.0
C1563 C 0.38862 0.28556 0.87298 0.0
H1564 H 0.35283 0.2203 0.90112 0.0
C1565 C 0.41011 0.27114 0.85369 0.0
H1566 H 0.35052 0.27684 0.90427 0.0
C1567 C 0.41178 0.23859 0.85243 0.0
C1568 C 0.39153 0.21954 0.86978 0.0
H1569 H 0.42707 0.28489 0.84136 0.0
H1570 H 0.42999 0.22827 0.83891 0.0
C1571 C 0.3685 0.23401 0.88715 0.0
C1572 C 0.24217 0.854 0.40964 0.0
C1573 C 0.21712 0.8633 0.39046 0.0
H1574 H 0.2914 0.85276 0.41718 0.0
C1575 C 0.2242 0.87708 0.36214 0.0
H1576 H 0.23793 0.84335 0.43187 0.0
C1577 C 0.25521 0.88183 0.35355 0.0
C1578 C 0.28027 0.87356 0.37325 0.0
H1579 H 0.20589 0.88424 0.34664 0.0
H1580 H 0.25944 0.89291 0.33152 0.0
C1581 C 0.27315 0.85914 0.40125 0.0
C1582 C 0.66397 0.75461 0.89537 0.0
C1583 C 0.64559 0.73549 0.87596 0.0
H1584 H 0.6756 0.80089 0.91026 0.0
C1585 C 0.62681 0.74988 0.85379 0.0
H1586 H 0.6785 0.74433 0.91297 0.0
C1587 C 0.62465 0.78239 0.85279 0.0
C1588 C 0.64182 0.80148 0.87331 0.0
H1589 H 0.61198 0.73606 0.83886 0.0
H1590 H 0.60826 0.79262 0.83688 0.0
C1591 C 0.66245 0.78713 0.89379 0.0
C1592 C 0.85354 0.62215 0.77008 0.0
C1593 C 0.87227 0.64152 0.78894 0.0
H1594 H 0.84117 0.60744 0.72395 0.0
C1595 C 0.8909 0.66377 0.77425 0.0
H1596 H 0.83904 0.60454 0.78057 0.0
C1597 C 0.89257 0.66491 0.74171 0.0
C1598 C 0.87504 0.64446 0.72287 0.0
H1599 H 0.90594 0.67871 0.78784 0.0
H1600 H 0.90881 0.68092 0.73123 0.0
C1601 C 0.85459 0.62385 0.73753 0.0
C1602 C 0.86642 0.40456 0.2714 0.0
C1603 C 0.8768 0.37496 0.27874 0.0
H1604 H 0.8549 0.4367 0.23593 0.0
C1605 C 0.8825 0.35426 0.25386 0.0
H1606 H 0.86239 0.42133 0.28951 0.0
C1607 C 0.87885 0.36316 0.22274 0.0
C1608 C 0.86894 0.39295 0.21547 0.0
H1609 H 0.8906 0.33109 0.25839 0.0
H1610 H 0.88346 0.34668 0.20453 0.0
C1611 C 0.86256 0.41336 0.24038 0.0
C1612 C 0.15819 0.40622 0.77357 0.0
C1613 C 0.15128 0.38511 0.79777 0.0
H1614 H 0.159 0.41547 0.7247 0.0
C1615 C 0.14085 0.35552 0.78956 0.0
H1616 H 0.16625 0.42944 0.77881 0.0
C1617 C 0.13734 0.34742 0.75819 0.0
C1618 C 0.14368 0.36877 0.73398 0.0
H1619 H 0.13579 0.33855 0.80725 0.0
H1620 H 0.12896 0.32432 0.75296 0.0
C1621 C 0.15443 0.39823 0.74227 0.0
C1622 C 0.11314 0.65413 0.27764 0.0
C1623 C 0.13056 0.63374 0.29622 0.0
H1624 H 0.10018 0.66852 0.23168 0.0
C1625 C 0.15109 0.61378 0.28135 0.0
H1626 H 0.09692 0.66974 0.2883 0.0
C1627 C 0.15239 0.61266 0.24879 0.0
C1628 C 0.13382 0.632 0.23017 0.0
H1629 H 0.16451 0.59751 0.29474 0.0
H1630 H 0.16707 0.59562 0.23808 0.0
C1631 C 0.11504 0.65358 0.2451 0.0
loop_
_geom_bond_atom_site_label_1
_geom_bond_atom_site_label_2
_geom_bond_distance
_geom_bond_site_symmetry_2
_ccdc_geom_bond_type
Co0 O1 2.216 . S
Co0 O2 2.091 . S
Co0 O4 2.004 . S
Co0 O10 2.021 . S
Co0 O12 2.137 . S
Co0 O13 2.244 . S
O1 Co0 2.216 . S
O1 C8 1.247 . S
O2 Co0 2.091 . S
O2 C8 1.261 . S
C3 O12 1.247 . S
C3 O13 1.272 . S
O4 Co0 2.004 . S
O4 C9 1.259 . S
Co5 O6 2.061 . S
Co5 O11 2.052 . S
Co5 O13 2.135 . S
O6 Co5 2.061 . S
O6 C9 1.235 . S
C7 O10 1.238 . S
C7 O11 1.241 . S
C8 O1 1.247 . S
C8 O2 1.261 . S
C9 O4 1.259 . S
C9 O6 1.235 . S
O10 Co0 2.021 . S
O10 C7 1.238 . S
O11 Co5 2.052 . S
O11 C7 1.241 . S
O12 Co0 2.137 . S
O12 C3 1.247 . S
O13 Co0 2.244 . S
O13 C3 1.272 . S
O13 Co5 2.135 . S
Co14 O15 2.216 . S
Co14 O16 2.091 . S
Co14 O18 2.004 . S
Co14 O24 2.021 . S
Co14 O26 2.137 . S
Co14 O27 2.244 . S
O15 Co14 2.216 . S
O15 C22 1.247 . S
O16 Co14 2.091 . S
O16 C22 1.261 . S
C17 O26 1.247 . S
C17 O27 1.272 . S
O18 Co14 2.004 . S
O18 C23 1.259 . S
Co19 O20 2.061 . S
Co19 O25 2.052 . S
Co19 O27 2.135 . S
O20 Co19 2.061 . S
O20 C23 1.235 . S
C21 O24 1.238 . S
C21 O25 1.241 . S
C22 O15 1.247 . S
C22 O16 1.261 . S
C23 O18 1.259 . S
C23 O20 1.235 . S
O24 Co14 2.021 . S
O24 C21 1.238 . S
O25 Co19 2.052 . S
O25 C21 1.241 . S
O26 Co14 2.137 . S
O26 C17 1.247 . S
O27 Co14 2.244 . S
O27 C17 1.272 . S
O27 Co19 2.135 . S
Co28 O29 2.216 . S
Co28 O30 2.091 . S
Co28 O32 2.004 . S
Co28 O38 2.021 . S
Co28 O40 2.137 . S
Co28 O41 2.244 . S
O29 Co28 2.216 . S
O29 C36 1.247 . S
O30 Co28 2.091 . S
O30 C36 1.261 . S
C31 O40 1.247 . S
C31 O41 1.272 . S
O32 Co28 2.004 . S
O32 C37 1.259 . S
Co33 O34 2.061 . S
Co33 O39 2.052 . S
Co33 O41 2.135 . S
O34 Co33 2.061 . S
O34 C37 1.235 . S
C35 O38 1.238 . S
C35 O39 1.241 . S
C36 O29 1.247 . S
C36 O30 1.261 . S
C37 O32 1.259 . S
C37 O34 1.235 . S
O38 Co28 2.021 . S
O38 C35 1.238 . S
O39 Co33 2.052 . S
O39 C35 1.241 . S
O40 Co28 2.137 . S
O40 C31 1.247 . S
O41 Co28 2.244 . S
O41 C31 1.272 . S
O41 Co33 2.135 . S
Co42 O43 2.216 . S
Co42 O44 2.091 . S
Co42 O46 2.004 . S
Co42 O52 2.021 . S
Co42 O54 2.137 . S
Co42 O55 2.244 . S
O43 Co42 2.216 . S
O43 C50 1.247 . S
O44 Co42 2.091 . S
O44 C50 1.261 . S
C45 O54 1.247 . S
C45 O55 1.272 . S
O46 Co42 2.004 . S
O46 C51 1.259 . S
Co47 O48 2.061 . S
Co47 O53 2.052 . S
Co47 O55 2.135 . S
O48 Co47 2.061 . S
O48 C51 1.235 . S
C49 O52 1.238 . S
C49 O53 1.241 . S
C50 O43 1.247 . S
C50 O44 1.261 . S
C51 O46 1.259 . S
C51 O48 1.235 . S
O52 Co42 2.021 . S
O52 C49 1.238 . S
O53 Co47 2.052 . S
O53 C49 1.241 . S
O54 Co42 2.137 . S
O54 C45 1.247 . S
O55 Co42 2.244 . S
O55 C45 1.272 . S
O55 Co47 2.135 . S
Co56 O57 2.216 . S
Co56 O58 2.091 . S
Co56 O60 2.004 . S
Co56 O66 2.021 . S
Co56 O68 2.137 . S
Co56 O69 2.244 . S
O57 Co56 2.216 . S
O57 C64 1.247 . S
O58 Co56 2.091 . S
O58 C64 1.261 . S
C59 O68 1.247 . S
C59 O69 1.272 . S
O60 Co56 2.004 . S
O60 C65 1.259 . S
Co61 O62 2.061 . S
Co61 O67 2.052 . S
Co61 O69 2.135 . S
O62 Co61 2.061 . S
O62 C65 1.235 . S
C63 O66 1.238 . S
C63 O67 1.241 . S
C64 O57 1.247 . S
C64 O58 1.261 . S
C65 O60 1.259 . S
C65 O62 1.235 . S
O66 Co56 2.021 . S
O66 C63 1.238 . S
O67 Co61 2.052 . S
O67 C63 1.241 . S
O68 Co56 2.137 . S
O68 C59 1.247 . S
O69 Co56 2.244 . S
O69 C59 1.272 . S
O69 Co61 2.135 . S
Co70 O71 2.216 . S
Co70 O72 2.091 . S
Co70 O74 2.004 . S
Co70 O80 2.021 . S
Co70 O82 2.137 . S
Co70 O83 2.244 . S
O71 Co70 2.216 . S
O71 C78 1.247 . S
O72 Co70 2.091 . S
O72 C78 1.261 . S
C73 O82 1.247 . S
C73 O83 1.272 . S
O74 Co70 2.004 . S
O74 C79 1.259 . S
Co75 O76 2.061 . S
Co75 O81 2.052 . S
Co75 O83 2.135 . S
O76 Co75 2.061 . S
O76 C79 1.235 . S
C77 O80 1.238 . S
C77 O81 1.241 . S
C78 O71 1.247 . S
C78 O72 1.261 . S
C79 O74 1.259 . S
C79 O76 1.235 . S
O80 Co70 2.021 . S
O80 C77 1.238 . S
O81 Co75 2.052 . S
O81 C77 1.241 . S
O82 Co70 2.137 . S
O82 C73 1.247 . S
O83 Co70 2.244 . S
O83 C73 1.272 . S
O83 Co75 2.135 . S
Co84 O85 2.216 . S
Co84 O86 2.091 . S
Co84 O88 2.004 . S
Co84 O94 2.021 . S
Co84 O96 2.137 . S
Co84 O97 2.244 . S
O85 Co84 2.216 . S
O85 C92 1.247 . S
O86 Co84 2.091 . S
O86 C92 1.261 . S
C87 O96 1.247 . S
C87 O97 1.272 . S
O88 Co84 2.004 . S
O88 C93 1.259 . S
Co89 O90 2.061 . S
Co89 O95 2.052 . S
Co89 O97 2.135 . S
O90 Co89 2.061 . S
O90 C93 1.235 . S
C91 O94 1.238 . S
C91 O95 1.241 . S
C92 O85 1.247 . S
C92 O86 1.261 . S
C93 O88 1.259 . S
C93 O90 1.235 . S
O94 Co84 2.021 . S
O94 C91 1.238 . S
O95 Co89 2.052 . S
O95 C91 1.241 . S
O96 Co84 2.137 . S
O96 C87 1.247 . S
O97 Co84 2.244 . S
O97 C87 1.272 . S
O97 Co89 2.135 . S
Co98 O99 2.216 . S
Co98 O100 2.091 . S
Co98 O102 2.004 . S
Co98 O108 2.021 . S
Co98 O110 2.137 . S
Co98 O111 2.244 . S
O99 Co98 2.216 . S
O99 C106 1.247 . S
O100 Co98 2.091 . S
O100 C106 1.261 . S
C101 O110 1.247 . S
C101 O111 1.272 . S
O102 Co98 2.004 . S
O102 C107 1.259 . S
Co103 O104 2.061 . S
Co103 O109 2.052 . S
Co103 O111 2.135 . S
O104 Co103 2.061 . S
O104 C107 1.235 . S
C105 O108 1.238 . S
C105 O109 1.241 . S
C106 O99 1.247 . S
C106 O100 1.261 . S
C107 O102 1.259 . S
C107 O104 1.235 . S
O108 Co98 2.021 . S
O108 C105 1.238 . S
O109 Co103 2.052 . S
O109 C105 1.241 . S
O110 Co98 2.137 . S
O110 C101 1.247 . S
O111 Co98 2.244 . S
O111 C101 1.272 . S
O111 Co103 2.135 . S
Co112 O113 2.216 . S
Co112 O114 2.091 . S
Co112 O116 2.004 . S
Co112 O122 2.021 . S
Co112 O124 2.137 . S
Co112 O125 2.244 . S
O113 Co112 2.216 . S
O113 C120 1.247 . S
O114 Co112 2.091 . S
O114 C120 1.261 . S
C115 O124 1.247 . S
C115 O125 1.272 . S
O116 Co112 2.004 . S
O116 C121 1.259 . S
Co117 O118 2.061 . S
Co117 O123 2.052 . S
Co117 O125 2.135 . S
O118 Co117 2.061 . S
O118 C121 1.235 . S
C119 O122 1.238 . S
C119 O123 1.241 . S
C120 O113 1.247 . S
C120 O114 1.261 . S
C121 O116 1.259 . S
C121 O118 1.235 . S
O122 Co112 2.021 . S
O122 C119 1.238 . S
O123 Co117 2.052 . S
O123 C119 1.241 . S
O124 Co112 2.137 . S
O124 C115 1.247 . S
O125 Co112 2.244 . S
O125 C115 1.272 . S
O125 Co117 2.135 . S
Co126 O127 2.216 . S
Co126 O128 2.091 . S
Co126 O130 2.004 . S
Co126 O136 2.021 . S
Co126 O138 2.137 . S
Co126 O139 2.244 . S
O127 Co126 2.216 . S
O127 C134 1.247 . S
O128 Co126 2.091 . S
O128 C134 1.261 . S
C129 O138 1.247 . S
C129 O139 1.272 . S
O130 Co126 2.004 . S
O130 C135 1.259 . S
Co131 O132 2.061 . S
Co131 O137 2.052 . S
Co131 O139 2.135 . S
O132 Co131 2.061 . S
O132 C135 1.235 . S
C133 O136 1.238 . S
C133 O137 1.241 . S
C134 O127 1.247 . S
C134 O128 1.261 . S
C135 O130 1.259 . S
C135 O132 1.235 . S
O136 Co126 2.021 . S
O136 C133 1.238 . S
O137 Co131 2.052 . S
O137 C133 1.241 . S
O138 Co126 2.137 . S
O138 C129 1.247 . S
O139 Co126 2.244 . S
O139 C129 1.272 . S
O139 Co131 2.135 . S
Co140 O141 2.216 . S
Co140 O142 2.091 . S
Co140 O144 2.004 . S
Co140 O150 2.021 . S
Co140 O152 2.137 . S
Co140 O153 2.244 . S
O141 Co140 2.216 . S
O141 C148 1.247 . S
O142 Co140 2.091 . S
O142 C148 1.261 . S
C143 O152 1.247 . S
C143 O153 1.272 . S
O144 Co140 2.004 . S
O144 C149 1.259 . S
Co145 O146 2.061 . S
Co145 O151 2.052 . S
Co145 O153 2.135 . S
O146 Co145 2.061 . S
O146 C149 1.235 . S
C147 O150 1.238 . S
C147 O151 1.241 . S
C148 O141 1.247 . S
C148 O142 1.261 . S
C149 O144 1.259 . S
C149 O146 1.235 . S
O150 Co140 2.021 . S
O150 C147 1.238 . S
O151 Co145 2.052 . S
O151 C147 1.241 . S
O152 Co140 2.137 . S
O152 C143 1.247 . S
O153 Co140 2.244 . S
O153 C143 1.272 . S
O153 Co145 2.135 . S
Co154 O155 2.216 . S
Co154 O156 2.091 . S
Co154 O158 2.004 . S
Co154 O164 2.021 . S
Co154 O166 2.137 . S
Co154 O167 2.244 . S
O155 Co154 2.216 . S
O155 C162 1.247 . S
O156 Co154 2.091 . S
O156 C162 1.261 . S
C157 O166 1.247 . S
C157 O167 1.272 . S
O158 Co154 2.004 . S
O158 C163 1.259 . S
Co159 O160 2.061 . S
Co159 O165 2.052 . S
Co159 O167 2.135 . S
O160 Co159 2.061 . S
O160 C163 1.235 . S
C161 O164 1.238 . S
C161 O165 1.241 . S
C162 O155 1.247 . S
C162 O156 1.261 . S
C163 O158 1.259 . S
C163 O160 1.235 . S
O164 Co154 2.021 . S
O164 C161 1.238 . S
O165 Co159 2.052 . S
O165 C161 1.241 . S
O166 Co154 2.137 . S
O166 C157 1.247 . S
O167 Co154 2.244 . S
O167 C157 1.272 . S
O167 Co159 2.135 . S
Co168 O169 2.216 . S
Co168 O170 2.091 . S
Co168 O172 2.004 . S
Co168 O178 2.021 . S
Co168 O180 2.137 . S
Co168 O181 2.244 . S
O169 Co168 2.216 . S
O169 C176 1.247 . S
O170 Co168 2.091 . S
O170 C176 1.261 . S
C171 O180 1.247 . S
C171 O181 1.272 . S
O172 Co168 2.004 . S
O172 C177 1.259 . S
Co173 O174 2.061 . S
Co173 O179 2.052 . S
Co173 O181 2.135 . S
O174 Co173 2.061 . S
O174 C177 1.235 . S
C175 O178 1.238 . S
C175 O179 1.241 . S
C176 O169 1.247 . S
C176 O170 1.261 . S
C177 O172 1.259 . S
C177 O174 1.235 . S
O178 Co168 2.021 . S
O178 C175 1.238 . S
O179 Co173 2.052 . S
O179 C175 1.241 . S
O180 Co168 2.137 . S
O180 C171 1.247 . S
O181 Co168 2.244 . S
O181 C171 1.272 . S
O181 Co173 2.135 . S
Co182 O183 2.216 . S
Co182 O184 2.091 . S
Co182 O186 2.004 . S
Co182 O192 2.021 . S
Co182 O194 2.137 . S
Co182 O195 2.244 . S
O183 Co182 2.216 . S
O183 C190 1.247 . S
O184 Co182 2.091 . S
O184 C190 1.261 . S
C185 O194 1.247 . S
C185 O195 1.272 . S
O186 Co182 2.004 . S
O186 C191 1.259 . S
Co187 O188 2.061 . S
Co187 O193 2.052 . S
Co187 O195 2.135 . S
O188 Co187 2.061 . S
O188 C191 1.235 . S
C189 O192 1.238 . S
C189 O193 1.241 . S
C190 O183 1.247 . S
C190 O184 1.261 . S
C191 O186 1.259 . S
C191 O188 1.235 . S
O192 Co182 2.021 . S
O192 C189 1.238 . S
O193 Co187 2.052 . S
O193 C189 1.241 . S
O194 Co182 2.137 . S
O194 C185 1.247 . S
O195 Co182 2.244 . S
O195 C185 1.272 . S
O195 Co187 2.135 . S
Co196 O197 2.216 . S
Co196 O198 2.091 . S
Co196 O200 2.004 . S
Co196 O206 2.021 . S
Co196 O208 2.137 . S
Co196 O209 2.244 . S
O197 Co196 2.216 . S
O197 C204 1.247 . S
O198 Co196 2.091 . S
O198 C204 1.261 . S
C199 O208 1.247 . S
C199 O209 1.272 . S
O200 Co196 2.004 . S
O200 C205 1.259 . S
Co201 O202 2.061 . S
Co201 O207 2.052 . S
Co201 O209 2.135 . S
O202 Co201 2.061 . S
O202 C205 1.235 . S
C203 O206 1.238 . S
C203 O207 1.241 . S
C204 O197 1.247 . S
C204 O198 1.261 . S
C205 O200 1.259 . S
C205 O202 1.235 . S
O206 Co196 2.021 . S
O206 C203 1.238 . S
O207 Co201 2.052 . S
O207 C203 1.241 . S
O208 Co196 2.137 . S
O208 C199 1.247 . S
O209 Co196 2.244 . S
O209 C199 1.272 . S
O209 Co201 2.135 . S
Co210 O211 2.216 . S
Co210 O212 2.091 . S
Co210 O214 2.004 . S
Co210 O220 2.021 . S
Co210 O222 2.137 . S
Co210 O223 2.244 . S
O211 Co210 2.216 . S
O211 C218 1.247 . S
O212 Co210 2.091 . S
O212 C218 1.261 . S
C213 O222 1.247 . S
C213 O223 1.272 . S
O214 Co210 2.004 . S
O214 C219 1.259 . S
Co215 O216 2.061 . S
Co215 O221 2.052 . S
Co215 O223 2.135 . S
O216 Co215 2.061 . S
O216 C219 1.235 . S
C217 O220 1.238 . S
C217 O221 1.241 . S
C218 O211 1.247 . S
C218 O212 1.261 . S
C219 O214 1.259 . S
C219 O216 1.235 . S
O220 Co210 2.021 . S
O220 C217 1.238 . S
O221 Co215 2.052 . S
O221 C217 1.241 . S
O222 Co210 2.137 . S
O222 C213 1.247 . S
O223 Co210 2.244 . S
O223 C213 1.272 . S
O223 Co215 2.135 . S
Co224 O225 2.216 . S
Co224 O226 2.091 . S
Co224 O228 2.004 . S
Co224 O234 2.021 . S
Co224 O236 2.137 . S
Co224 O237 2.244 . S
O225 Co224 2.216 . S
O225 C232 1.247 . S
O226 Co224 2.091 . S
O226 C232 1.261 . S
C227 O236 1.247 . S
C227 O237 1.272 . S
O228 Co224 2.004 . S
O228 C233 1.259 . S
Co229 O230 2.061 . S
Co229 O235 2.052 . S
Co229 O237 2.135 . S
O230 Co229 2.061 . S
O230 C233 1.235 . S
C231 O234 1.238 . S
C231 O235 1.241 . S
C232 O225 1.247 . S
C232 O226 1.261 . S
C233 O228 1.259 . S
C233 O230 1.235 . S
O234 Co224 2.021 . S
O234 C231 1.238 . S
O235 Co229 2.052 . S
O235 C231 1.241 . S
O236 Co224 2.137 . S
O236 C227 1.247 . S
O237 Co224 2.244 . S
O237 C227 1.272 . S
O237 Co229 2.135 . S
Co238 O239 2.216 . S
Co238 O240 2.091 . S
Co238 O242 2.004 . S
Co238 O248 2.021 . S
Co238 O250 2.137 . S
Co238 O251 2.244 . S
O239 Co238 2.216 . S
O239 C246 1.247 . S
O240 Co238 2.091 . S
O240 C246 1.261 . S
C241 O250 1.247 . S
C241 O251 1.272 . S
O242 Co238 2.004 . S
O242 C247 1.259 . S
Co243 O244 2.061 . S
Co243 O249 2.052 . S
Co243 O251 2.135 . S
O244 Co243 2.061 . S
O244 C247 1.235 . S
C245 O248 1.238 . S
C245 O249 1.241 . S
C246 O239 1.247 . S
C246 O240 1.261 . S
C247 O242 1.259 . S
C247 O244 1.235 . S
O248 Co238 2.021 . S
O248 C245 1.238 . S
O249 Co243 2.052 . S
O249 C245 1.241 . S
O250 Co238 2.137 . S
O250 C241 1.247 . S
O251 Co238 2.244 . S
O251 C241 1.272 . S
O251 Co243 2.135 . S
Co252 O253 2.216 . S
Co252 O254 2.091 . S
Co252 O256 2.004 . S
Co252 O262 2.021 . S
Co252 O264 2.137 . S
Co252 O265 2.244 . S
O253 Co252 2.216 . S
O253 C260 1.247 . S
O254 Co252 2.091 . S
O254 C260 1.261 . S
C255 O264 1.247 . S
C255 O265 1.272 . S
O256 Co252 2.004 . S
O256 C261 1.259 . S
Co257 O258 2.061 . S
Co257 O263 2.052 . S
Co257 O265 2.135 . S
O258 Co257 2.061 . S
O258 C261 1.235 . S
C259 O262 1.238 . S
C259 O263 1.241 . S
C260 O253 1.247 . S
C260 O254 1.261 . S
C261 O256 1.259 . S
C261 O258 1.235 . S
O262 Co252 2.021 . S
O262 C259 1.238 . S
O263 Co257 2.052 . S
O263 C259 1.241 . S
O264 Co252 2.137 . S
O264 C255 1.247 . S
O265 Co252 2.244 . S
O265 C255 1.272 . S
O265 Co257 2.135 . S
Co266 O267 2.216 . S
Co266 O268 2.091 . S
Co266 O270 2.004 . S
Co266 O276 2.021 . S
Co266 O278 2.137 . S
Co266 O279 2.244 . S
O267 Co266 2.216 . S
O267 C274 1.247 . S
O268 Co266 2.091 . S
O268 C274 1.261 . S
C269 O278 1.247 . S
C269 O279 1.272 . S
O270 Co266 2.004 . S
O270 C275 1.259 . S
Co271 O272 2.061 . S
Co271 O277 2.052 . S
Co271 O279 2.135 . S
O272 Co271 2.061 . S
O272 C275 1.235 . S
C273 O276 1.238 . S
C273 O277 1.241 . S
C274 O267 1.247 . S
C274 O268 1.261 . S
C275 O270 1.259 . S
C275 O272 1.235 . S
O276 Co266 2.021 . S
O276 C273 1.238 . S
O277 Co271 2.052 . S
O277 C273 1.241 . S
O278 Co266 2.137 . S
O278 C269 1.247 . S
O279 Co266 2.244 . S
O279 C269 1.272 . S
O279 Co271 2.135 . S
Co280 O281 2.216 . S
Co280 O282 2.091 . S
Co280 O284 2.004 . S
Co280 O290 2.021 . S
Co280 O292 2.137 . S
Co280 O293 2.244 . S
O281 Co280 2.216 . S
O281 C288 1.247 . S
O282 Co280 2.091 . S
O282 C288 1.261 . S
C283 O292 1.247 . S
C283 O293 1.272 . S
O284 Co280 2.004 . S
O284 C289 1.259 . S
Co285 O286 2.061 . S
Co285 O291 2.052 . S
Co285 O293 2.135 . S
O286 Co285 2.061 . S
O286 C289 1.235 . S
C287 O290 1.238 . S
C287 O291 1.241 . S
C288 O281 1.247 . S
C288 O282 1.261 . S
C289 O284 1.259 . S
C289 O286 1.235 . S
O290 Co280 2.021 . S
O290 C287 1.238 . S
O291 Co285 2.052 . S
O291 C287 1.241 . S
O292 Co280 2.137 . S
O292 C283 1.247 . S
O293 Co280 2.244 . S
O293 C283 1.272 . S
O293 Co285 2.135 . S
Co294 O295 2.216 . S
Co294 O296 2.091 . S
Co294 O298 2.004 . S
Co294 O304 2.021 . S
Co294 O306 2.137 . S
Co294 O307 2.244 . S
O295 Co294 2.216 . S
O295 C302 1.247 . S
O296 Co294 2.091 . S
O296 C302 1.261 . S
C297 O306 1.247 . S
C297 O307 1.272 . S
O298 Co294 2.004 . S
O298 C303 1.259 . S
Co299 O300 2.061 . S
Co299 O305 2.052 . S
Co299 O307 2.135 . S
O300 Co299 2.061 . S
O300 C303 1.235 . S
C301 O304 1.238 . S
C301 O305 1.241 . S
C302 O295 1.247 . S
C302 O296 1.261 . S
C303 O298 1.259 . S
C303 O300 1.235 . S
O304 Co294 2.021 . S
O304 C301 1.238 . S
O305 Co299 2.052 . S
O305 C301 1.241 . S
O306 Co294 2.137 . S
O306 C297 1.247 . S
O307 Co294 2.244 . S
O307 C297 1.272 . S
O307 Co299 2.135 . S
Co308 O309 2.216 . S
Co308 O310 2.091 . S
Co308 O312 2.004 . S
Co308 O318 2.021 . S
Co308 O320 2.137 . S
Co308 O321 2.244 . S
O309 Co308 2.216 . S
O309 C316 1.247 . S
O310 Co308 2.091 . S
O310 C316 1.261 . S
C311 O320 1.247 . S
C311 O321 1.272 . S
O312 Co308 2.004 . S
O312 C317 1.259 . S
Co313 O314 2.061 . S
Co313 O319 2.052 . S
Co313 O321 2.135 . S
O314 Co313 2.061 . S
O314 C317 1.235 . S
C315 O318 1.238 . S
C315 O319 1.241 . S
C316 O309 1.247 . S
C316 O310 1.261 . S
C317 O312 1.259 . S
C317 O314 1.235 . S
O318 Co308 2.021 . S
O318 C315 1.238 . S
O319 Co313 2.052 . S
O319 C315 1.241 . S
O320 Co308 2.137 . S
O320 C311 1.247 . S
O321 Co308 2.244 . S
O321 C311 1.272 . S
O321 Co313 2.135 . S
Co322 O323 2.216 . S
Co322 O324 2.091 . S
Co322 O326 2.004 . S
Co322 O332 2.021 . S
Co322 O334 2.137 . S
Co322 O335 2.244 . S
O323 Co322 2.216 . S
O323 C330 1.247 . S
O324 Co322 2.091 . S
O324 C330 1.261 . S
C325 O334 1.247 . S
C325 O335 1.272 . S
O326 Co322 2.004 . S
O326 C331 1.259 . S
Co327 O328 2.061 . S
Co327 O333 2.052 . S
Co327 O335 2.135 . S
O328 Co327 2.061 . S
O328 C331 1.235 . S
C329 O332 1.238 . S
C329 O333 1.241 . S
C330 O323 1.247 . S
C330 O324 1.261 . S
C331 O326 1.259 . S
C331 O328 1.235 . S
O332 Co322 2.021 . S
O332 C329 1.238 . S
O333 Co327 2.052 . S
O333 C329 1.241 . S
O334 Co322 2.137 . S
O334 C325 1.247 . S
O335 Co322 2.244 . S
O335 C325 1.272 . S
O335 Co327 2.135 . S
Co336 O337 2.216 . S
Co336 O338 2.091 . S
Co336 O340 2.004 . S
Co336 O346 2.021 . S
Co336 O348 2.137 . S
Co336 O349 2.244 . S
O337 Co336 2.216 . S
O337 C344 1.247 . S
O338 Co336 2.091 . S
O338 C344 1.261 . S
C339 O348 1.247 . S
C339 O349 1.272 . S
O340 Co336 2.004 . S
O340 C345 1.259 . S
Co341 O342 2.061 . S
Co341 O347 2.052 . S
Co341 O349 2.135 . S
O342 Co341 2.061 . S
O342 C345 1.235 . S
C343 O346 1.238 . S
C343 O347 1.241 . S
C344 O337 1.247 . S
C344 O338 1.261 . S
C345 O340 1.259 . S
C345 O342 1.235 . S
O346 Co336 2.021 . S
O346 C343 1.238 . S
O347 Co341 2.052 . S
O347 C343 1.241 . S
O348 Co336 2.137 . S
O348 C339 1.247 . S
O349 Co336 2.244 . S
O349 C339 1.272 . S
O349 Co341 2.135 . S
Co350 O351 2.216 . S
Co350 O352 2.091 . S
Co350 O354 2.004 . S
Co350 O360 2.021 . S
Co350 O362 2.137 . S
Co350 O363 2.244 . S
O351 Co350 2.216 . S
O351 C358 1.247 . S
O352 Co350 2.091 . S
O352 C358 1.261 . S
C353 O362 1.247 . S
C353 O363 1.272 . S
O354 Co350 2.004 . S
O354 C359 1.259 . S
Co355 O356 2.061 . S
Co355 O361 2.052 . S
Co355 O363 2.135 . S
O356 Co355 2.061 . S
O356 C359 1.235 . S
C357 O360 1.238 . S
C357 O361 1.241 . S
C358 O351 1.247 . S
C358 O352 1.261 . S
C359 O354 1.259 . S
C359 O356 1.235 . S
O360 Co350 2.021 . S
O360 C357 1.238 . S
O361 Co355 2.052 . S
O361 C357 1.241 . S
O362 Co350 2.137 . S
O362 C353 1.247 . S
O363 Co350 2.244 . S
O363 C353 1.272 . S
O363 Co355 2.135 . S
Co364 O365 2.216 . S
Co364 O366 2.091 . S
Co364 O368 2.004 . S
Co364 O374 2.021 . S
Co364 O376 2.137 . S
Co364 O377 2.244 . S
O365 Co364 2.216 . S
O365 C372 1.247 . S
O366 Co364 2.091 . S
O366 C372 1.261 . S
C367 O376 1.247 . S
C367 O377 1.272 . S
O368 Co364 2.004 . S
O368 C373 1.259 . S
Co369 O370 2.061 . S
Co369 O375 2.052 . S
Co369 O377 2.135 . S
O370 Co369 2.061 . S
O370 C373 1.235 . S
C371 O374 1.238 . S
C371 O375 1.241 . S
C372 O365 1.247 . S
C372 O366 1.261 . S
C373 O368 1.259 . S
C373 O370 1.235 . S
O374 Co364 2.021 . S
O374 C371 1.238 . S
O375 Co369 2.052 . S
O375 C371 1.241 . S
O376 Co364 2.137 . S
O376 C367 1.247 . S
O377 Co364 2.244 . S
O377 C367 1.272 . S
O377 Co369 2.135 . S
Co378 O379 2.216 . S
Co378 O380 2.091 . S
Co378 O382 2.004 . S
Co378 O388 2.021 . S
Co378 O390 2.137 . S
Co378 O391 2.244 . S
O379 Co378 2.216 . S
O379 C386 1.247 . S
O380 Co378 2.091 . S
O380 C386 1.261 . S
C381 O390 1.247 . S
C381 O391 1.272 . S
O382 Co378 2.004 . S
O382 C387 1.259 . S
Co383 O384 2.061 . S
Co383 O389 2.052 . S
Co383 O391 2.135 . S
O384 Co383 2.061 . S
O384 C387 1.235 . S
C385 O388 1.238 . S
C385 O389 1.241 . S
C386 O379 1.247 . S
C386 O380 1.261 . S
C387 O382 1.259 . S
C387 O384 1.235 . S
O388 Co378 2.021 . S
O388 C385 1.238 . S
O389 Co383 2.052 . S
O389 C385 1.241 . S
O390 Co378 2.137 . S
O390 C381 1.247 . S
O391 Co378 2.244 . S
O391 C381 1.272 . S
O391 Co383 2.135 . S
Co392 O393 2.216 . S
Co392 O394 2.091 . S
Co392 O396 2.004 . S
Co392 O402 2.021 . S
Co392 O404 2.137 . S
Co392 O405 2.244 . S
O393 Co392 2.216 . S
O393 C400 1.247 . S
O394 Co392 2.091 . S
O394 C400 1.261 . S
C395 O404 1.247 . S
C395 O405 1.272 . S
O396 Co392 2.004 . S
O396 C401 1.259 . S
Co397 O398 2.061 . S
Co397 O403 2.052 . S
Co397 O405 2.135 . S
O398 Co397 2.061 . S
O398 C401 1.235 . S
C399 O402 1.238 . S
C399 O403 1.241 . S
C400 O393 1.247 . S
C400 O394 1.261 . S
C401 O396 1.259 . S
C401 O398 1.235 . S
O402 Co392 2.021 . S
O402 C399 1.238 . S
O403 Co397 2.052 . S
O403 C399 1.241 . S
O404 Co392 2.137 . S
O404 C395 1.247 . S
O405 Co392 2.244 . S
O405 C395 1.272 . S
O405 Co397 2.135 . S
Co406 O407 2.216 . S
Co406 O408 2.091 . S
Co406 O410 2.004 . S
Co406 O416 2.021 . S
Co406 O418 2.137 . S
Co406 O419 2.244 . S
O407 Co406 2.216 . S
O407 C414 1.247 . S
O408 Co406 2.091 . S
O408 C414 1.261 . S
C409 O418 1.247 . S
C409 O419 1.272 . S
O410 Co406 2.004 . S
O410 C415 1.259 . S
Co411 O412 2.061 . S
Co411 O417 2.052 . S
Co411 O419 2.135 . S
O412 Co411 2.061 . S
O412 C415 1.235 . S
C413 O416 1.238 . S
C413 O417 1.241 . S
C414 O407 1.247 . S
C414 O408 1.261 . S
C415 O410 1.259 . S
C415 O412 1.235 . S
O416 Co406 2.021 . S
O416 C413 1.238 . S
O417 Co411 2.052 . S
O417 C413 1.241 . S
O418 Co406 2.137 . S
O418 C409 1.247 . S
O419 Co406 2.244 . S
O419 C409 1.272 . S
O419 Co411 2.135 . S
Co420 O421 2.216 . S
Co420 O422 2.091 . S
Co420 O424 2.004 . S
Co420 O430 2.021 . S
Co420 O432 2.137 . S
Co420 O433 2.244 . S
O421 Co420 2.216 . S
O421 C428 1.247 . S
O422 Co420 2.091 . S
O422 C428 1.261 . S
C423 O432 1.247 . S
C423 O433 1.272 . S
O424 Co420 2.004 . S
O424 C429 1.259 . S
Co425 O426 2.061 . S
Co425 O431 2.052 . S
Co425 O433 2.135 . S
O426 Co425 2.061 . S
O426 C429 1.235 . S
C427 O430 1.238 . S
C427 O431 1.241 . S
C428 O421 1.247 . S
C428 O422 1.261 . S
C429 O424 1.259 . S
C429 O426 1.235 . S
O430 Co420 2.021 . S
O430 C427 1.238 . S
O431 Co425 2.052 . S
O431 C427 1.241 . S
O432 Co420 2.137 . S
O432 C423 1.247 . S
O433 Co420 2.244 . S
O433 C423 1.272 . S
O433 Co425 2.135 . S
Co434 O435 2.216 . S
Co434 O436 2.091 . S
Co434 O438 2.004 . S
Co434 O444 2.021 . S
Co434 O446 2.137 . S
Co434 O447 2.244 . S
O435 Co434 2.216 . S
O435 C442 1.247 . S
O436 Co434 2.091 . S
O436 C442 1.261 . S
C437 O446 1.247 . S
C437 O447 1.272 . S
O438 Co434 2.004 . S
O438 C443 1.259 . S
Co439 O440 2.061 . S
Co439 O445 2.052 . S
Co439 O447 2.135 . S
O440 Co439 2.061 . S
O440 C443 1.235 . S
C441 O444 1.238 . S
C441 O445 1.241 . S
C442 O435 1.247 . S
C442 O436 1.261 . S
C443 O438 1.259 . S
C443 O440 1.235 . S
O444 Co434 2.021 . S
O444 C441 1.238 . S
O445 Co439 2.052 . S
O445 C441 1.241 . S
O446 Co434 2.137 . S
O446 C437 1.247 . S
O447 Co434 2.244 . S
O447 C437 1.272 . S
O447 Co439 2.135 . S
Co448 O449 2.216 . S
Co448 O450 2.091 . S
Co448 O452 2.004 . S
Co448 O458 2.021 . S
Co448 O460 2.137 . S
Co448 O461 2.244 . S
O449 Co448 2.216 . S
O449 C456 1.247 . S
O450 Co448 2.091 . S
O450 C456 1.261 . S
C451 O460 1.247 . S
C451 O461 1.272 . S
O452 Co448 2.004 . S
O452 C457 1.259 . S
Co453 O454 2.061 . S
Co453 O459 2.052 . S
Co453 O461 2.135 . S
O454 Co453 2.061 . S
O454 C457 1.235 . S
C455 O458 1.238 . S
C455 O459 1.241 . S
C456 O449 1.247 . S
C456 O450 1.261 . S
C457 O452 1.259 . S
C457 O454 1.235 . S
O458 Co448 2.021 . S
O458 C455 1.238 . S
O459 Co453 2.052 . S
O459 C455 1.241 . S
O460 Co448 2.137 . S
O460 C451 1.247 . S
O461 Co448 2.244 . S
O461 C451 1.272 . S
O461 Co453 2.135 . S
Co462 O463 2.216 . S
Co462 O464 2.091 . S
Co462 O466 2.004 . S
Co462 O472 2.021 . S
Co462 O474 2.137 . S
Co462 O475 2.244 . S
O463 Co462 2.216 . S
O463 C470 1.247 . S
O464 Co462 2.091 . S
O464 C470 1.261 . S
C465 O474 1.247 . S
C465 O475 1.272 . S
O466 Co462 2.004 . S
O466 C471 1.259 . S
Co467 O468 2.061 . S
Co467 O473 2.052 . S
Co467 O475 2.135 . S
O468 Co467 2.061 . S
O468 C471 1.235 . S
C469 O472 1.238 . S
C469 O473 1.241 . S
C470 O463 1.247 . S
C470 O464 1.261 . S
C471 O466 1.259 . S
C471 O468 1.235 . S
O472 Co462 2.021 . S
O472 C469 1.238 . S
O473 Co467 2.052 . S
O473 C469 1.241 . S
O474 Co462 2.137 . S
O474 C465 1.247 . S
O475 Co462 2.244 . S
O475 C465 1.272 . S
O475 Co467 2.135 . S
Co476 O477 2.216 . S
Co476 O478 2.091 . S
Co476 O480 2.004 . S
Co476 O486 2.021 . S
Co476 O488 2.137 . S
Co476 O489 2.244 . S
O477 Co476 2.216 . S
O477 C484 1.247 . S
O478 Co476 2.091 . S
O478 C484 1.261 . S
C479 O488 1.247 . S
C479 O489 1.272 . S
O480 Co476 2.004 . S
O480 C485 1.259 . S
Co481 O482 2.061 . S
Co481 O487 2.052 . S
Co481 O489 2.135 . S
O482 Co481 2.061 . S
O482 C485 1.235 . S
C483 O486 1.238 . S
C483 O487 1.241 . S
C484 O477 1.247 . S
C484 O478 1.261 . S
C485 O480 1.259 . S
C485 O482 1.235 . S
O486 Co476 2.021 . S
O486 C483 1.238 . S
O487 Co481 2.052 . S
O487 C483 1.241 . S
O488 Co476 2.137 . S
O488 C479 1.247 . S
O489 Co476 2.244 . S
O489 C479 1.272 . S
O489 Co481 2.135 . S
Co490 O491 2.216 . S
Co490 O492 2.091 . S
Co490 O494 2.004 . S
Co490 O500 2.021 . S
Co490 O502 2.137 . S
Co490 O503 2.244 . S
O491 Co490 2.216 . S
O491 C498 1.247 . S
O492 Co490 2.091 . S
O492 C498 1.261 . S
C493 O502 1.247 . S
C493 O503 1.272 . S
O494 Co490 2.004 . S
O494 C499 1.259 . S
Co495 O496 2.061 . S
Co495 O501 2.052 . S
Co495 O503 2.135 . S
O496 Co495 2.061 . S
O496 C499 1.235 . S
C497 O500 1.238 . S
C497 O501 1.241 . S
C498 O491 1.247 . S
C498 O492 1.261 . S
C499 O494 1.259 . S
C499 O496 1.235 . S
O500 Co490 2.021 . S
O500 C497 1.238 . S
O501 Co495 2.052 . S
O501 C497 1.241 . S
O502 Co490 2.137 . S
O502 C493 1.247 . S
O503 Co490 2.244 . S
O503 C493 1.272 . S
O503 Co495 2.135 . S
Co504 O505 2.216 . S
Co504 O506 2.091 . S
Co504 O508 2.004 . S
Co504 O514 2.021 . S
Co504 O516 2.137 . S
Co504 O517 2.244 . S
O505 Co504 2.216 . S
O505 C512 1.247 . S
O506 Co504 2.091 . S
O506 C512 1.261 . S
C507 O516 1.247 . S
C507 O517 1.272 . S
O508 Co504 2.004 . S
O508 C513 1.259 . S
Co509 O510 2.061 . S
Co509 O515 2.052 . S
Co509 O517 2.135 . S
O510 Co509 2.061 . S
O510 C513 1.235 . S
C511 O514 1.238 . S
C511 O515 1.241 . S
C512 O505 1.247 . S
C512 O506 1.261 . S
C513 O508 1.259 . S
C513 O510 1.235 . S
O514 Co504 2.021 . S
O514 C511 1.238 . S
O515 Co509 2.052 . S
O515 C511 1.241 . S
O516 Co504 2.137 . S
O516 C507 1.247 . S
O517 Co504 2.244 . S
O517 C507 1.272 . S
O517 Co509 2.135 . S
Co518 O519 2.216 . S
Co518 O520 2.091 . S
Co518 O522 2.004 . S
Co518 O528 2.021 . S
Co518 O530 2.137 . S
Co518 O531 2.244 . S
O519 Co518 2.216 . S
O519 C526 1.247 . S
O520 Co518 2.091 . S
O520 C526 1.261 . S
C521 O530 1.247 . S
C521 O531 1.272 . S
O522 Co518 2.004 . S
O522 C527 1.259 . S
Co523 O524 2.061 . S
Co523 O529 2.052 . S
Co523 O531 2.135 . S
O524 Co523 2.061 . S
O524 C527 1.235 . S
C525 O528 1.238 . S
C525 O529 1.241 . S
C526 O519 1.247 . S
C526 O520 1.261 . S
C527 O522 1.259 . S
C527 O524 1.235 . S
O528 Co518 2.021 . S
O528 C525 1.238 . S
O529 Co523 2.052 . S
O529 C525 1.241 . S
O530 Co518 2.137 . S
O530 C521 1.247 . S
O531 Co518 2.244 . S
O531 C521 1.272 . S
O531 Co523 2.135 . S
Co532 O533 2.216 . S
Co532 O534 2.091 . S
Co532 O536 2.004 . S
Co532 O542 2.021 . S
Co532 O544 2.137 . S
Co532 O545 2.244 . S
O533 Co532 2.216 . S
O533 C540 1.247 . S
O534 Co532 2.091 . S
O534 C540 1.261 . S
C535 O544 1.247 . S
C535 O545 1.272 . S
O536 Co532 2.004 . S
O536 C541 1.259 . S
Co537 O538 2.061 . S
Co537 O543 2.052 . S
Co537 O545 2.135 . S
O538 Co537 2.061 . S
O538 C541 1.235 . S
C539 O542 1.238 . S
C539 O543 1.241 . S
C540 O533 1.247 . S
C540 O534 1.261 . S
C541 O536 1.259 . S
C541 O538 1.235 . S
O542 Co532 2.021 . S
O542 C539 1.238 . S
O543 Co537 2.052 . S
O543 C539 1.241 . S
O544 Co532 2.137 . S
O544 C535 1.247 . S
O545 Co532 2.244 . S
O545 C535 1.272 . S
O545 Co537 2.135 . S
Co546 O547 2.216 . S
Co546 O548 2.091 . S
Co546 O550 2.004 . S
Co546 O556 2.021 . S
Co546 O558 2.137 . S
Co546 O559 2.244 . S
O547 Co546 2.216 . S
O547 C554 1.247 . S
O548 Co546 2.091 . S
O548 C554 1.261 . S
C549 O558 1.247 . S
C549 O559 1.272 . S
O550 Co546 2.004 . S
O550 C555 1.259 . S
Co551 O552 2.061 . S
Co551 O557 2.052 . S
Co551 O559 2.135 . S
O552 Co551 2.061 . S
O552 C555 1.235 . S
C553 O556 1.238 . S
C553 O557 1.241 . S
C554 O547 1.247 . S
C554 O548 1.261 . S
C555 O550 1.259 . S
C555 O552 1.235 . S
O556 Co546 2.021 . S
O556 C553 1.238 . S
O557 Co551 2.052 . S
O557 C553 1.241 . S
O558 Co546 2.137 . S
O558 C549 1.247 . S
O559 Co546 2.244 . S
O559 C549 1.272 . S
O559 Co551 2.135 . S
Co560 O561 2.216 . S
Co560 O562 2.091 . S
Co560 O564 2.004 . S
Co560 O570 2.021 . S
Co560 O572 2.137 . S
Co560 O573 2.244 . S
O561 Co560 2.216 . S
O561 C568 1.247 . S
O562 Co560 2.091 . S
O562 C568 1.261 . S
C563 O572 1.247 . S
C563 O573 1.272 . S
O564 Co560 2.004 . S
O564 C569 1.259 . S
Co565 O566 2.061 . S
Co565 O571 2.052 . S
Co565 O573 2.135 . S
O566 Co565 2.061 . S
O566 C569 1.235 . S
C567 O570 1.238 . S
C567 O571 1.241 . S
C568 O561 1.247 . S
C568 O562 1.261 . S
C569 O564 1.259 . S
C569 O566 1.235 . S
O570 Co560 2.021 . S
O570 C567 1.238 . S
O571 Co565 2.052 . S
O571 C567 1.241 . S
O572 Co560 2.137 . S
O572 C563 1.247 . S
O573 Co560 2.244 . S
O573 C563 1.272 . S
O573 Co565 2.135 . S
Co574 O575 2.216 . S
Co574 O576 2.091 . S
Co574 O578 2.004 . S
Co574 O584 2.021 . S
Co574 O586 2.137 . S
Co574 O587 2.244 . S
O575 Co574 2.216 . S
O575 C582 1.247 . S
O576 Co574 2.091 . S
O576 C582 1.261 . S
C577 O586 1.247 . S
C577 O587 1.272 . S
O578 Co574 2.004 . S
O578 C583 1.259 . S
Co579 O580 2.061 . S
Co579 O585 2.052 . S
Co579 O587 2.135 . S
O580 Co579 2.061 . S
O580 C583 1.235 . S
C581 O584 1.238 . S
C581 O585 1.241 . S
C582 O575 1.247 . S
C582 O576 1.261 . S
C583 O578 1.259 . S
C583 O580 1.235 . S
O584 Co574 2.021 . S
O584 C581 1.238 . S
O585 Co579 2.052 . S
O585 C581 1.241 . S
O586 Co574 2.137 . S
O586 C577 1.247 . S
O587 Co574 2.244 . S
O587 C577 1.272 . S
O587 Co579 2.135 . S
Co588 O589 2.216 . S
Co588 O590 2.091 . S
Co588 O592 2.004 . S
Co588 O598 2.021 . S
Co588 O600 2.137 . S
Co588 O601 2.244 . S
O589 Co588 2.216 . S
O589 C596 1.247 . S
O590 Co588 2.091 . S
O590 C596 1.261 . S
C591 O600 1.247 . S
C591 O601 1.272 . S
O592 Co588 2.004 . S
O592 C597 1.259 . S
Co593 O594 2.061 . S
Co593 O599 2.052 . S
Co593 O601 2.135 . S
O594 Co593 2.061 . S
O594 C597 1.235 . S
C595 O598 1.238 . S
C595 O599 1.241 . S
C596 O589 1.247 . S
C596 O590 1.261 . S
C597 O592 1.259 . S
C597 O594 1.235 . S
O598 Co588 2.021 . S
O598 C595 1.238 . S
O599 Co593 2.052 . S
O599 C595 1.241 . S
O600 Co588 2.137 . S
O600 C591 1.247 . S
O601 Co588 2.244 . S
O601 C591 1.272 . S
O601 Co593 2.135 . S
Co602 O603 2.216 . S
Co602 O604 2.091 . S
Co602 O606 2.004 . S
Co602 O612 2.021 . S
Co602 O614 2.137 . S
Co602 O615 2.244 . S
O603 Co602 2.216 . S
O603 C610 1.247 . S
O604 Co602 2.091 . S
O604 C610 1.261 . S
C605 O614 1.247 . S
C605 O615 1.272 . S
O606 Co602 2.004 . S
O606 C611 1.259 . S
Co607 O608 2.061 . S
Co607 O613 2.052 . S
Co607 O615 2.135 . S
O608 Co607 2.061 . S
O608 C611 1.235 . S
C609 O612 1.238 . S
C609 O613 1.241 . S
C610 O603 1.247 . S
C610 O604 1.261 . S
C611 O606 1.259 . S
C611 O608 1.235 . S
O612 Co602 2.021 . S
O612 C609 1.238 . S
O613 Co607 2.052 . S
O613 C609 1.241 . S
O614 Co602 2.137 . S
O614 C605 1.247 . S
O615 Co602 2.244 . S
O615 C605 1.272 . S
O615 Co607 2.135 . S
Co616 O617 2.216 . S
Co616 O618 2.091 . S
Co616 O620 2.004 . S
Co616 O626 2.021 . S
Co616 O628 2.137 . S
Co616 O629 2.244 . S
O617 Co616 2.216 . S
O617 C624 1.247 . S
O618 Co616 2.091 . S
O618 C624 1.261 . S
C619 O628 1.247 . S
C619 O629 1.272 . S
O620 Co616 2.004 . S
O620 C625 1.259 . S
Co621 O622 2.061 . S
Co621 O627 2.052 . S
Co621 O629 2.135 . S
O622 Co621 2.061 . S
O622 C625 1.235 . S
C623 O626 1.238 . S
C623 O627 1.241 . S
C624 O617 1.247 . S
C624 O618 1.261 . S
C625 O620 1.259 . S
C625 O622 1.235 . S
O626 Co616 2.021 . S
O626 C623 1.238 . S
O627 Co621 2.052 . S
O627 C623 1.241 . S
O628 Co616 2.137 . S
O628 C619 1.247 . S
O629 Co616 2.244 . S
O629 C619 1.272 . S
O629 Co621 2.135 . S
Co630 O631 2.216 . S
Co630 O632 2.091 . S
Co630 O634 2.004 . S
Co630 O640 2.021 . S
Co630 O642 2.137 . S
Co630 O643 2.244 . S
O631 Co630 2.216 . S
O631 C638 1.247 . S
O632 Co630 2.091 . S
O632 C638 1.261 . S
C633 O642 1.247 . S
C633 O643 1.272 . S
O634 Co630 2.004 . S
O634 C639 1.259 . S
Co635 O636 2.061 . S
Co635 O641 2.052 . S
Co635 O643 2.135 . S
O636 Co635 2.061 . S
O636 C639 1.235 . S
C637 O640 1.238 . S
C637 O641 1.241 . S
C638 O631 1.247 . S
C638 O632 1.261 . S
C639 O634 1.259 . S
C639 O636 1.235 . S
O640 Co630 2.021 . S
O640 C637 1.238 . S
O641 Co635 2.052 . S
O641 C637 1.241 . S
O642 Co630 2.137 . S
O642 C633 1.247 . S
O643 Co630 2.244 . S
O643 C633 1.272 . S
O643 Co635 2.135 . S
Co644 O645 2.216 . S
Co644 O646 2.091 . S
Co644 O648 2.004 . S
Co644 O654 2.021 . S
Co644 O656 2.137 . S
Co644 O657 2.244 . S
O645 Co644 2.216 . S
O645 C652 1.247 . S
O646 Co644 2.091 . S
O646 C652 1.261 . S
C647 O656 1.247 . S
C647 O657 1.272 . S
O648 Co644 2.004 . S
O648 C653 1.259 . S
Co649 O650 2.061 . S
Co649 O655 2.052 . S
Co649 O657 2.135 . S
O650 Co649 2.061 . S
O650 C653 1.235 . S
C651 O654 1.238 . S
C651 O655 1.241 . S
C652 O645 1.247 . S
C652 O646 1.261 . S
C653 O648 1.259 . S
C653 O650 1.235 . S
O654 Co644 2.021 . S
O654 C651 1.238 . S
O655 Co649 2.052 . S
O655 C651 1.241 . S
O656 Co644 2.137 . S
O656 C647 1.247 . S
O657 Co644 2.244 . S
O657 C647 1.272 . S
O657 Co649 2.135 . S
Co658 O659 2.216 . S
Co658 O660 2.091 . S
Co658 O662 2.004 . S
Co658 O668 2.021 . S
Co658 O670 2.137 . S
Co658 O671 2.244 . S
O659 Co658 2.216 . S
O659 C666 1.247 . S
O660 Co658 2.091 . S
O660 C666 1.261 . S
C661 O670 1.247 . S
C661 O671 1.272 . S
O662 Co658 2.004 . S
O662 C667 1.259 . S
Co663 O664 2.061 . S
Co663 O669 2.052 . S
Co663 O671 2.135 . S
O664 Co663 2.061 . S
O664 C667 1.235 . S
C665 O668 1.238 . S
C665 O669 1.241 . S
C666 O659 1.247 . S
C666 O660 1.261 . S
C667 O662 1.259 . S
C667 O664 1.235 . S
O668 Co658 2.021 . S
O668 C665 1.238 . S
O669 Co663 2.052 . S
O669 C665 1.241 . S
O670 Co658 2.137 . S
O670 C661 1.247 . S
O671 Co658 2.244 . S
O671 C661 1.272 . S
O671 Co663 2.135 . S
C672 C673 1.387 . S
C672 H676 0.950 . S
C672 C681 1.390 . S
C673 C672 1.387 . S
C673 C675 1.387 . S
H674 C681 0.950 . S
C675 C673 1.387 . S
C675 C677 1.390 . S
C675 H679 0.950 . S
H676 C672 0.950 . S
C677 C675 1.390 . S
C677 C678 1.387 . S
C677 H680 0.950 . S
C678 C677 1.387 . S
C678 C681 1.387 . S
H679 C675 0.950 . S
H680 C677 0.950 . S
C681 C672 1.390 . S
C681 H674 0.950 . S
C681 C678 1.387 . S
C682 C683 1.387 . S
C682 H686 0.950 . S
C682 C691 1.390 . S
C683 C682 1.387 . S
C683 C685 1.387 . S
H684 C691 0.950 . S
C685 C683 1.387 . S
C685 C687 1.390 . S
C685 H689 0.950 . S
H686 C682 0.950 . S
C687 C685 1.390 . S
C687 C688 1.387 . S
C687 H690 0.950 . S
C688 C687 1.387 . S
C688 C691 1.387 . S
H689 C685 0.950 . S
H690 C687 0.950 . S
C691 C682 1.390 . S
C691 H684 0.950 . S
C691 C688 1.387 . S
C692 C693 1.387 . S
C692 H696 0.950 . S
C692 C701 1.390 . S
C693 C692 1.387 . S
C693 C695 1.387 . S
H694 C701 0.950 . S
C695 C693 1.387 . S
C695 C697 1.390 . S
C695 H699 0.950 . S
H696 C692 0.950 . S
C697 C695 1.390 . S
C697 C698 1.387 . S
C697 H700 0.950 . S
C698 C697 1.387 . S
C698 C701 1.387 . S
H699 C695 0.950 . S
H700 C697 0.950 . S
C701 C692 1.390 . S
C701 H694 0.950 . S
C701 C698 1.387 . S
C702 C703 1.387 . S
C702 H706 0.950 . S
C702 C711 1.390 . S
C703 C702 1.387 . S
C703 C705 1.387 . S
H704 C711 0.950 . S
C705 C703 1.387 . S
C705 C707 1.390 . S
C705 H709 0.950 . S
H706 C702 0.950 . S
C707 C705 1.390 . S
C707 C708 1.387 . S
C707 H710 0.950 . S
C708 C707 1.387 . S
C708 C711 1.387 . S
H709 C705 0.950 . S
H710 C707 0.950 . S
C711 C702 1.390 . S
C711 H704 0.950 . S
C711 C708 1.387 . S
C712 C713 1.387 . S
C712 H716 0.950 . S
C712 C721 1.390 . S
C713 C712 1.387 . S
C713 C715 1.387 . S
H714 C721 0.950 . S
C715 C713 1.387 . S
C715 C717 1.390 . S
C715 H719 0.950 . S
H716 C712 0.950 . S
C717 C715 1.390 . S
C717 C718 1.387 . S
C717 H720 0.950 . S
C718 C717 1.387 . S
C718 C721 1.387 . S
H719 C715 0.950 . S
H720 C717 0.950 . S
C721 C712 1.390 . S
C721 H714 0.950 . S
C721 C718 1.387 . S
C722 C723 1.387 . S
C722 H726 0.950 . S
C722 C731 1.390 . S
C723 C722 1.387 . S
C723 C725 1.387 . S
H724 C731 0.950 . S
C725 C723 1.387 . S
C725 C727 1.390 . S
C725 H729 0.950 . S
H726 C722 0.950 . S
C727 C725 1.390 . S
C727 C728 1.387 . S
C727 H730 0.950 . S
C728 C727 1.387 . S
C728 C731 1.387 . S
H729 C725 0.950 . S
H730 C727 0.950 . S
C731 C722 1.390 . S
C731 H724 0.950 . S
C731 C728 1.387 . S
C732 C733 1.387 . S
C732 H736 0.950 . S
C732 C741 1.390 . S
C733 C732 1.387 . S
C733 C735 1.387 . S
H734 C741 0.950 . S
C735 C733 1.387 . S
C735 C737 1.390 . S
C735 H739 0.950 . S
H736 C732 0.950 . S
C737 C735 1.390 . S
C737 C738 1.387 . S
C737 H740 0.950 . S
C738 C737 1.387 . S
C738 C741 1.387 . S
H739 C735 0.950 . S
H740 C737 0.950 . S
C741 C732 1.390 . S
C741 H734 0.950 . S
C741 C738 1.387 . S
C742 C743 1.387 . S
C742 H746 0.950 . S
C742 C751 1.390 . S
C743 C742 1.387 . S
C743 C745 1.387 . S
H744 C751 0.950 . S
C745 C743 1.387 . S
C745 C747 1.390 . S
C745 H749 0.950 . S
H746 C742 0.950 . S
C747 C745 1.390 . S
C747 C748 1.387 . S
C747 H750 0.950 . S
C748 C747 1.387 . S
C748 C751 1.387 . S
H749 C745 0.950 . S
H750 C747 0.950 . S
C751 C742 1.390 . S
C751 H744 0.950 . S
C751 C748 1.387 . S
C752 C753 1.387 . S
C752 H756 0.950 . S
C752 C761 1.390 . S
C753 C752 1.387 . S
C753 C755 1.387 . S
H754 C761 0.950 . S
C755 C753 1.387 . S
C755 C757 1.390 . S
C755 H759 0.950 . S
H756 C752 0.950 . S
C757 C755 1.390 . S
C757 C758 1.387 . S
C757 H760 0.950 . S
C758 C757 1.387 . S
C758 C761 1.387 . S
H759 C755 0.950 . S
H760 C757 0.950 . S
C761 C752 1.390 . S
C761 H754 0.950 . S
C761 C758 1.387 . S
C762 C763 1.387 . S
C762 H766 0.950 . S
C762 C771 1.390 . S
C763 C762 1.387 . S
C763 C765 1.387 . S
H764 C771 0.950 . S
C765 C763 1.387 . S
C765 C767 1.390 . S
C765 H769 0.950 . S
H766 C762 0.950 . S
C767 C765 1.390 . S
C767 C768 1.387 . S
C767 H770 0.950 . S
C768 C767 1.387 . S
C768 C771 1.387 . S
H769 C765 0.950 . S
H770 C767 0.950 . S
C771 C762 1.390 . S
C771 H764 0.950 . S
C771 C768 1.387 . S
C772 C773 1.387 . S
C772 H776 0.950 . S
C772 C781 1.390 . S
C773 C772 1.387 . S
C773 C775 1.387 . S
H774 C781 0.950 . S
C775 C773 1.387 . S
C775 C777 1.390 . S
C775 H779 0.950 . S
H776 C772 0.950 . S
C777 C775 1.390 . S
C777 C778 1.387 . S
C777 H780 0.950 . S
C778 C777 1.387 . S
C778 C781 1.387 . S
H779 C775 0.950 . S
H780 C777 0.950 . S
C781 C772 1.390 . S
C781 H774 0.950 . S
C781 C778 1.387 . S
C782 C783 1.387 . S
C782 H786 0.950 . S
C782 C791 1.390 . S
C783 C782 1.387 . S
C783 C785 1.387 . S
H784 C791 0.950 . S
C785 C783 1.387 . S
C785 C787 1.390 . S
C785 H789 0.950 . S
H786 C782 0.950 . S
C787 C785 1.390 . S
C787 C788 1.387 . S
C787 H790 0.950 . S
C788 C787 1.387 . S
C788 C791 1.387 . S
H789 C785 0.950 . S
H790 C787 0.950 . S
C791 C782 1.390 . S
C791 H784 0.950 . S
C791 C788 1.387 . S
C792 C793 1.387 . S
C792 H796 0.950 . S
C792 C801 1.390 . S
C793 C792 1.387 . S
C793 C795 1.387 . S
H794 C801 0.950 . S
C795 C793 1.387 . S
C795 C797 1.390 . S
C795 H799 0.950 . S
H796 C792 0.950 . S
C797 C795 1.390 . S
C797 C798 1.387 . S
C797 H800 0.950 . S
C798 C797 1.387 . S
C798 C801 1.387 . S
H799 C795 0.950 . S
H800 C797 0.950 . S
C801 C792 1.390 . S
C801 H794 0.950 . S
C801 C798 1.387 . S
C802 C803 1.387 . S
C802 H806 0.950 . S
C802 C811 1.390 . S
C803 C802 1.387 . S
C803 C805 1.387 . S
H804 C811 0.950 . S
C805 C803 1.387 . S
C805 C807 1.390 . S
C805 H809 0.950 . S
H806 C802 0.950 . S
C807 C805 1.390 . S
C807 C808 1.387 . S
C807 H810 0.950 . S
C808 C807 1.387 . S
C808 C811 1.387 . S
H809 C805 0.950 . S
H810 C807 0.950 . S
C811 C802 1.390 . S
C811 H804 0.950 . S
C811 C808 1.387 . S
C812 C813 1.387 . S
C812 H816 0.950 . S
C812 C821 1.390 . S
C813 C812 1.387 . S
C813 C815 1.387 . S
H814 C821 0.950 . S
C815 C813 1.387 . S
C815 C817 1.390 . S
C815 H819 0.950 . S
H816 C812 0.950 . S
C817 C815 1.390 . S
C817 C818 1.387 . S
C817 H820 0.950 . S
C818 C817 1.387 . S
C818 C821 1.387 . S
H819 C815 0.950 . S
H820 C817 0.950 . S
C821 C812 1.390 . S
C821 H814 0.950 . S
C821 C818 1.387 . S
C822 C823 1.387 . S
C822 H826 0.950 . S
C822 C831 1.390 . S
C823 C822 1.387 . S
C823 C825 1.387 . S
H824 C831 0.950 . S
C825 C823 1.387 . S
C825 C827 1.390 . S
C825 H829 0.950 . S
H826 C822 0.950 . S
C827 C825 1.390 . S
C827 C828 1.387 . S
C827 H830 0.950 . S
C828 C827 1.387 . S
C828 C831 1.387 . S
H829 C825 0.950 . S
H830 C827 0.950 . S
C831 C822 1.390 . S
C831 H824 0.950 . S
C831 C828 1.387 . S
C832 C833 1.387 . S
C832 H836 0.950 . S
C832 C841 1.390 . S
C833 C832 1.387 . S
C833 C835 1.387 . S
H834 C841 0.950 . S
C835 C833 1.387 . S
C835 C837 1.390 . S
C835 H839 0.950 . S
H836 C832 0.950 . S
C837 C835 1.390 . S
C837 C838 1.387 . S
C837 H840 0.950 . S
C838 C837 1.387 . S
C838 C841 1.387 . S
H839 C835 0.950 . S
H840 C837 0.950 . S
C841 C832 1.390 . S
C841 H834 0.950 . S
C841 C838 1.387 . S
C842 C843 1.387 . S
C842 H846 0.950 . S
C842 C851 1.390 . S
C843 C842 1.387 . S
C843 C845 1.387 . S
H844 C851 0.950 . S
C845 C843 1.387 . S
C845 C847 1.390 . S
C845 H849 0.950 . S
H846 C842 0.950 . S
C847 C845 1.390 . S
C847 C848 1.387 . S
C847 H850 0.950 . S
C848 C847 1.387 . S
C848 C851 1.387 . S
H849 C845 0.950 . S
H850 C847 0.950 . S
C851 C842 1.390 . S
C851 H844 0.950 . S
C851 C848 1.387 . S
C852 C853 1.387 . S
C852 H856 0.950 . S
C852 C861 1.390 . S
C853 C852 1.387 . S
C853 C855 1.387 . S
H854 C861 0.950 . S
C855 C853 1.387 . S
C855 C857 1.390 . S
C855 H859 0.950 . S
H856 C852 0.950 . S
C857 C855 1.390 . S
C857 C858 1.387 . S
C857 H860 0.950 . S
C858 C857 1.387 . S
C858 C861 1.387 . S
H859 C855 0.950 . S
H860 C857 0.950 . S
C861 C852 1.390 . S
C861 H854 0.950 . S
C861 C858 1.387 . S
C862 C863 1.387 . S
C862 H866 0.950 . S
C862 C871 1.390 . S
C863 C862 1.387 . S
C863 C865 1.387 . S
H864 C871 0.950 . S
C865 C863 1.387 . S
C865 C867 1.390 . S
C865 H869 0.950 . S
H866 C862 0.950 . S
C867 C865 1.390 . S
C867 C868 1.387 . S
C867 H870 0.950 . S
C868 C867 1.387 . S
C868 C871 1.387 . S
H869 C865 0.950 . S
H870 C867 0.950 . S
C871 C862 1.390 . S
C871 H864 0.950 . S
C871 C868 1.387 . S
C872 C873 1.387 . S
C872 H876 0.950 . S
C872 C881 1.390 . S
C873 C872 1.387 . S
C873 C875 1.387 . S
H874 C881 0.950 . S
C875 C873 1.387 . S
C875 C877 1.390 . S
C875 H879 0.950 . S
H876 C872 0.950 . S
C877 C875 1.390 . S
C877 C878 1.387 . S
C877 H880 0.950 . S
C878 C877 1.387 . S
C878 C881 1.387 . S
H879 C875 0.950 . S
H880 C877 0.950 . S
C881 C872 1.390 . S
C881 H874 0.950 . S
C881 C878 1.387 . S
C882 C883 1.387 . S
C882 H886 0.950 . S
C882 C891 1.390 . S
C883 C882 1.387 . S
C883 C885 1.387 . S
H884 C891 0.950 . S
C885 C883 1.387 . S
C885 C887 1.390 . S
C885 H889 0.950 . S
H886 C882 0.950 . S
C887 C885 1.390 . S
C887 C888 1.387 . S
C887 H890 0.950 . S
C888 C887 1.387 . S
C888 C891 1.387 . S
H889 C885 0.950 . S
H890 C887 0.950 . S
C891 C882 1.390 . S
C891 H884 0.950 . S
C891 C888 1.387 . S
C892 C893 1.387 . S
C892 H896 0.950 . S
C892 C901 1.390 . S
C893 C892 1.387 . S
C893 C895 1.387 . S
H894 C901 0.950 . S
C895 C893 1.387 . S
C895 C897 1.390 . S
C895 H899 0.950 . S
H896 C892 0.950 . S
C897 C895 1.390 . S
C897 C898 1.387 . S
C897 H900 0.950 . S
C898 C897 1.387 . S
C898 C901 1.387 . S
H899 C895 0.950 . S
H900 C897 0.950 . S
C901 C892 1.390 . S
C901 H894 0.950 . S
C901 C898 1.387 . S
C902 C903 1.387 . S
C902 H906 0.950 . S
C902 C911 1.390 . S
C903 C902 1.387 . S
C903 C905 1.387 . S
H904 C911 0.950 . S
C905 C903 1.387 . S
C905 C907 1.390 . S
C905 H909 0.950 . S
H906 C902 0.950 . S
C907 C905 1.390 . S
C907 C908 1.387 . S
C907 H910 0.950 . S
C908 C907 1.387 . S
C908 C911 1.387 . S
H909 C905 0.950 . S
H910 C907 0.950 . S
C911 C902 1.390 . S
C911 H904 0.950 . S
C911 C908 1.387 . S
C912 C913 1.387 . S
C912 H916 0.950 . S
C912 C921 1.390 . S
C913 C912 1.387 . S
C913 C915 1.387 . S
H914 C921 0.950 . S
C915 C913 1.387 . S
C915 C917 1.390 . S
C915 H919 0.950 . S
H916 C912 0.950 . S
C917 C915 1.390 . S
C917 C918 1.387 . S
C917 H920 0.950 . S
C918 C917 1.387 . S
C918 C921 1.387 . S
H919 C915 0.950 . S
H920 C917 0.950 . S
C921 C912 1.390 . S
C921 H914 0.950 . S
C921 C918 1.387 . S
C922 C923 1.387 . S
C922 H926 0.950 . S
C922 C931 1.390 1_556 S
C923 C922 1.387 . S
C923 C925 1.387 . S
H924 C931 0.950 . S
C925 C923 1.387 . S
C925 C927 1.390 1_556 S
C925 H929 0.950 . S
H926 C922 0.950 . S
C927 C925 1.390 1_554 S
C927 C928 1.387 . S
C927 H930 0.950 . S
C928 C927 1.387 . S
C928 C931 1.387 . S
H929 C925 0.950 . S
H930 C927 0.950 . S
C931 C922 1.390 1_554 S
C931 H924 0.950 . S
C931 C928 1.387 . S
C932 C933 1.387 . S
C932 H936 0.950 . S
C932 C941 1.390 . S
C933 C932 1.387 . S
C933 C935 1.387 . S
H934 C941 0.950 . S
C935 C933 1.387 . S
C935 C937 1.390 . S
C935 H939 0.950 . S
H936 C932 0.950 . S
C937 C935 1.390 . S
C937 C938 1.387 . S
C937 H940 0.950 . S
C938 C937 1.387 . S
C938 C941 1.387 . S
H939 C935 0.950 . S
H940 C937 0.950 . S
C941 C932 1.390 . S
C941 H934 0.950 . S
C941 C938 1.387 . S
C942 C943 1.387 . S
C942 H946 0.950 . S
C942 C951 1.390 1_556 S
C943 C942 1.387 . S
C943 C945 1.387 . S
H944 C951 0.950 . S
C945 C943 1.387 . S
C945 C947 1.390 1_556 S
C945 H949 0.950 . S
H946 C942 0.950 . S
C947 C945 1.390 1_554 S
C947 C948 1.387 . S
C947 H950 0.950 . S
C948 C947 1.387 . S
C948 C951 1.387 . S
H949 C945 0.950 . S
H950 C947 0.950 . S
C951 C942 1.390 1_554 S
C951 H944 0.950 . S
C951 C948 1.387 . S
C952 C953 1.387 . S
C952 H956 0.950 . S
C952 C961 1.390 . S
C953 C952 1.387 . S
C953 C955 1.387 . S
H954 C961 0.950 . S
C955 C953 1.387 . S
C955 C957 1.390 . S
C955 H959 0.950 . S
H956 C952 0.950 . S
C957 C955 1.390 . S
C957 C958 1.387 . S
C957 H960 0.950 . S
C958 C957 1.387 . S
C958 C961 1.387 . S
H959 C955 0.950 . S
H960 C957 0.950 . S
C961 C952 1.390 . S
C961 H954 0.950 . S
C961 C958 1.387 . S
C962 C963 1.387 . S
C962 H966 0.950 . S
C962 C971 1.390 1_556 S
C963 C962 1.387 . S
C963 C965 1.387 . S
H964 C971 0.950 . S
C965 C963 1.387 . S
C965 C967 1.390 1_556 S
C965 H969 0.950 . S
H966 C962 0.950 . S
C967 C965 1.390 1_554 S
C967 C968 1.387 . S
C967 H970 0.950 . S
C968 C967 1.387 . S
C968 C971 1.387 . S
H969 C965 0.950 . S
H970 C967 0.950 . S
C971 C962 1.390 1_554 S
C971 H964 0.950 . S
C971 C968 1.387 . S
C972 C973 1.387 . S
C972 H976 0.950 . S
C972 C981 1.390 . S
C973 C972 1.387 . S
C973 C975 1.387 . S
H974 C981 0.950 . S
C975 C973 1.387 . S
C975 C977 1.390 . S
C975 H979 0.950 . S
H976 C972 0.950 . S
C977 C975 1.390 . S
C977 C978 1.387 . S
C977 H980 0.950 . S
C978 C977 1.387 . S
C978 C981 1.387 . S
H979 C975 0.950 . S
H980 C977 0.950 . S
C981 C972 1.390 . S
C981 H974 0.950 . S
C981 C978 1.387 . S
C982 C983 1.387 . S
C982 H986 0.950 . S
C982 C991 1.390 1_556 S
C983 C982 1.387 . S
C983 C985 1.387 . S
H984 C991 0.950 . S
C985 C983 1.387 . S
C985 C987 1.390 1_556 S
C985 H989 0.950 . S
H986 C982 0.950 . S
C987 C985 1.390 1_554 S
C987 C988 1.387 . S
C987 H990 0.950 . S
C988 C987 1.387 . S
C988 C991 1.387 . S
H989 C985 0.950 . S
H990 C987 0.950 . S
C991 C982 1.390 1_554 S
C991 H984 0.950 . S
C991 C988 1.387 . S
C992 C993 1.387 . S
C992 H996 0.950 . S
C992 C1001 1.390 . S
C993 C992 1.387 . S
C993 C995 1.387 . S
H994 C1001 0.950 . S
C995 C993 1.387 . S
C995 C997 1.390 . S
C995 H999 0.950 . S
H996 C992 0.950 . S
C997 C995 1.390 . S
C997 C998 1.387 . S
C997 H1000 0.950 . S
C998 C997 1.387 . S
C998 C1001 1.387 . S
H999 C995 0.950 . S
H1000 C997 0.950 . S
C1001 C992 1.390 . S
C1001 H994 0.950 . S
C1001 C998 1.387 . S
C1002 C1003 1.387 . S
C1002 H1006 0.950 . S
C1002 C1011 1.390 1_565 S
C1003 C1002 1.387 . S
C1003 C1005 1.387 . S
H1004 C1011 0.950 . S
C1005 C1003 1.387 . S
C1005 C1007 1.390 1_565 S
C1005 H1009 0.950 . S
H1006 C1002 0.950 . S
C1007 C1005 1.390 1_545 S
C1007 C1008 1.387 . S
C1007 H1010 0.950 . S
C1008 C1007 1.387 . S
C1008 C1011 1.387 . S
H1009 C1005 0.950 . S
H1010 C1007 0.950 . S
C1011 C1002 1.390 1_545 S
C1011 H1004 0.950 . S
C1011 C1008 1.387 . S
C1012 C1013 1.387 . S
C1012 H1016 0.950 . S
C1012 C1021 1.390 . S
C1013 C1012 1.387 . S
C1013 C1015 1.387 . S
H1014 C1021 0.950 . S
C1015 C1013 1.387 . S
C1015 C1017 1.390 . S
C1015 H1019 0.950 . S
H1016 C1012 0.950 . S
C1017 C1015 1.390 . S
C1017 C1018 1.387 . S
C1017 H1020 0.950 . S
C1018 C1017 1.387 . S
C1018 C1021 1.387 . S
H1019 C1015 0.950 . S
H1020 C1017 0.950 . S
C1021 C1012 1.390 . S
C1021 H1014 0.950 . S
C1021 C1018 1.387 . S
C1022 C1023 1.387 . S
C1022 H1026 0.950 . S
C1022 C1031 1.390 1_545 S
C1023 C1022 1.387 . S
C1023 C1025 1.387 . S
H1024 C1031 0.950 . S
C1025 C1023 1.387 . S
C1025 C1027 1.390 1_545 S
C1025 H1029 0.950 . S
H1026 C1022 0.950 . S
C1027 C1025 1.390 1_565 S
C1027 C1028 1.387 . S
C1027 H1030 0.950 . S
C1028 C1027 1.387 . S
C1028 C1031 1.387 . S
H1029 C1025 0.950 . S
H1030 C1027 0.950 . S
C1031 C1022 1.390 1_565 S
C1031 H1024 0.950 . S
C1031 C1028 1.387 . S
C1032 C1033 1.387 . S
C1032 H1036 0.950 . S
C1032 C1041 1.390 . S
C1033 C1032 1.387 . S
C1033 C1035 1.387 . S
H1034 C1041 0.950 . S
C1035 C1033 1.387 . S
C1035 C1037 1.390 . S
C1035 H1039 0.950 . S
H1036 C1032 0.950 . S
C1037 C1035 1.390 . S
C1037 C1038 1.387 . S
C1037 H1040 0.950 . S
C1038 C1037 1.387 . S
C1038 C1041 1.387 . S
H1039 C1035 0.950 . S
H1040 C1037 0.950 . S
C1041 C1032 1.390 . S
C1041 H1034 0.950 . S
C1041 C1038 1.387 . S
C1042 C1043 1.387 . S
C1042 H1046 0.950 . S
C1042 C1051 1.390 1_565 S
C1043 C1042 1.387 . S
C1043 C1045 1.387 . S
H1044 C1051 0.950 . S
C1045 C1043 1.387 . S
C1045 C1047 1.390 1_565 S
C1045 H1049 0.950 . S
H1046 C1042 0.950 . S
C1047 C1045 1.390 1_545 S
C1047 C1048 1.387 . S
C1047 H1050 0.950 . S
C1048 C1047 1.387 . S
C1048 C1051 1.387 . S
H1049 C1045 0.950 . S
H1050 C1047 0.950 . S
C1051 C1042 1.390 1_545 S
C1051 H1044 0.950 . S
C1051 C1048 1.387 . S
C1052 C1053 1.387 . S
C1052 H1056 0.950 . S
C1052 C1061 1.390 . S
C1053 C1052 1.387 . S
C1053 C1055 1.387 . S
H1054 C1061 0.950 . S
C1055 C1053 1.387 . S
C1055 C1057 1.390 . S
C1055 H1059 0.950 . S
H1056 C1052 0.950 . S
C1057 C1055 1.390 . S
C1057 C1058 1.387 . S
C1057 H1060 0.950 . S
C1058 C1057 1.387 . S
C1058 C1061 1.387 . S
H1059 C1055 0.950 . S
H1060 C1057 0.950 . S
C1061 C1052 1.390 . S
C1061 H1054 0.950 . S
C1061 C1058 1.387 . S
C1062 C1063 1.387 . S
C1062 H1066 0.950 . S
C1062 C1071 1.390 1_565 S
C1063 C1062 1.387 . S
C1063 C1065 1.387 . S
H1064 C1071 0.950 . S
C1065 C1063 1.387 . S
C1065 C1067 1.390 1_565 S
C1065 H1069 0.950 . S
H1066 C1062 0.950 . S
C1067 C1065 1.390 1_545 S
C1067 C1068 1.387 . S
C1067 H1070 0.950 . S
C1068 C1067 1.387 . S
C1068 C1071 1.387 . S
H1069 C1065 0.950 . S
H1070 C1067 0.950 . S
C1071 C1062 1.390 1_545 S
C1071 H1064 0.950 . S
C1071 C1068 1.387 . S
C1072 C1073 1.387 . S
C1072 H1076 0.950 . S
C1072 C1081 1.390 . S
C1073 C1072 1.387 . S
C1073 C1075 1.387 . S
H1074 C1081 0.950 . S
C1075 C1073 1.387 . S
C1075 C1077 1.390 . S
C1075 H1079 0.950 . S
H1076 C1072 0.950 . S
C1077 C1075 1.390 . S
C1077 C1078 1.387 . S
C1077 H1080 0.950 . S
C1078 C1077 1.387 . S
C1078 C1081 1.387 . S
H1079 C1075 0.950 . S
H1080 C1077 0.950 . S
C1081 C1072 1.390 . S
C1081 H1074 0.950 . S
C1081 C1078 1.387 . S
C1082 C1083 1.387 . S
C1082 H1086 0.950 . S
C1082 C1091 1.390 . S
C1083 C1082 1.387 . S
C1083 C1085 1.387 . S
H1084 C1091 0.950 . S
C1085 C1083 1.387 . S
C1085 C1087 1.390 . S
C1085 H1089 0.950 . S
H1086 C1082 0.950 . S
C1087 C1085 1.390 . S
C1087 C1088 1.387 . S
C1087 H1090 0.950 . S
C1088 C1087 1.387 . S
C1088 C1091 1.387 . S
H1089 C1085 0.950 . S
H1090 C1087 0.950 . S
C1091 C1082 1.390 . S
C1091 H1084 0.950 . S
C1091 C1088 1.387 . S
C1092 C1093 1.387 . S
C1092 H1096 0.950 . S
C1092 C1101 1.390 1_455 S
C1093 C1092 1.387 . S
C1093 C1095 1.387 . S
H1094 C1101 0.950 . S
C1095 C1093 1.387 . S
C1095 C1097 1.390 1_455 S
C1095 H1099 0.950 . S
H1096 C1092 0.950 . S
C1097 C1095 1.390 1_655 S
C1097 C1098 1.387 . S
C1097 H1100 0.950 . S
C1098 C1097 1.387 . S
C1098 C1101 1.387 . S
H1099 C1095 0.950 . S
H1100 C1097 0.950 . S
C1101 C1092 1.390 1_655 S
C1101 H1094 0.950 . S
C1101 C1098 1.387 . S
C1102 C1103 1.387 . S
C1102 H1106 0.950 . S
C1102 C1111 1.390 . S
C1103 C1102 1.387 . S
C1103 C1105 1.387 . S
H1104 C1111 0.950 . S
C1105 C1103 1.387 . S
C1105 C1107 1.390 . S
C1105 H1109 0.950 . S
H1106 C1102 0.950 . S
C1107 C1105 1.390 . S
C1107 C1108 1.387 . S
C1107 H1110 0.950 . S
C1108 C1107 1.387 . S
C1108 C1111 1.387 . S
H1109 C1105 0.950 . S
H1110 C1107 0.950 . S
C1111 C1102 1.390 . S
C1111 H1104 0.950 . S
C1111 C1108 1.387 . S
C1112 C1113 1.387 . S
C1112 H1116 0.950 . S
C1112 C1121 1.390 1_455 S
C1113 C1112 1.387 . S
C1113 C1115 1.387 . S
H1114 C1121 0.950 . S
C1115 C1113 1.387 . S
C1115 C1117 1.390 1_455 S
C1115 H1119 0.950 . S
H1116 C1112 0.950 . S
C1117 C1115 1.390 1_655 S
C1117 C1118 1.387 . S
C1117 H1120 0.950 . S
C1118 C1117 1.387 . S
C1118 C1121 1.387 . S
H1119 C1115 0.950 . S
H1120 C1117 0.950 . S
C1121 C1112 1.390 1_655 S
C1121 H1114 0.950 . S
C1121 C1118 1.387 . S
C1122 C1123 1.387 . S
C1122 H1126 0.950 . S
C1122 C1131 1.390 . S
C1123 C1122 1.387 . S
C1123 C1125 1.387 . S
H1124 C1131 0.950 . S
C1125 C1123 1.387 . S
C1125 C1127 1.390 . S
C1125 H1129 0.950 . S
H1126 C1122 0.950 . S
C1127 C1125 1.390 . S
C1127 C1128 1.387 . S
C1127 H1130 0.950 . S
C1128 C1127 1.387 . S
C1128 C1131 1.387 . S
H1129 C1125 0.950 . S
H1130 C1127 0.950 . S
C1131 C1122 1.390 . S
C1131 H1124 0.950 . S
C1131 C1128 1.387 . S
C1132 C1133 1.387 . S
C1132 H1136 0.950 . S
C1132 C1141 1.390 1_655 S
C1133 C1132 1.387 . S
C1133 C1135 1.387 . S
H1134 C1141 0.950 . S
C1135 C1133 1.387 . S
C1135 C1137 1.390 1_655 S
C1135 H1139 0.950 . S
H1136 C1132 0.950 . S
C1137 C1135 1.390 1_455 S
C1137 C1138 1.387 . S
C1137 H1140 0.950 . S
C1138 C1137 1.387 . S
C1138 C1141 1.387 . S
H1139 C1135 0.950 . S
H1140 C1137 0.950 . S
C1141 C1132 1.390 1_455 S
C1141 H1134 0.950 . S
C1141 C1138 1.387 . S
C1142 C1143 1.387 . S
C1142 H1146 0.950 . S
C1142 C1151 1.390 1_455 S
C1143 C1142 1.387 . S
C1143 C1145 1.387 . S
H1144 C1151 0.950 . S
C1145 C1143 1.387 . S
C1145 C1147 1.390 1_455 S
C1145 H1149 0.950 . S
H1146 C1142 0.950 . S
C1147 C1145 1.390 1_655 S
C1147 C1148 1.387 . S
C1147 H1150 0.950 . S
C1148 C1147 1.387 . S
C1148 C1151 1.387 . S
H1149 C1145 0.950 . S
H1150 C1147 0.950 . S
C1151 C1142 1.390 1_655 S
C1151 H1144 0.950 . S
C1151 C1148 1.387 . S
C1152 C1153 1.387 . S
C1152 H1156 0.950 . S
C1152 C1161 1.390 1_655 S
C1153 C1152 1.387 . S
C1153 C1155 1.387 . S
H1154 C1161 0.950 . S
C1155 C1153 1.387 . S
C1155 C1157 1.390 1_655 S
C1155 H1159 0.950 . S
H1156 C1152 0.950 . S
C1157 C1155 1.390 1_455 S
C1157 C1158 1.387 . S
C1157 H1160 0.950 . S
C1158 C1157 1.387 . S
C1158 C1161 1.387 . S
H1159 C1155 0.950 . S
H1160 C1157 0.950 . S
C1161 C1152 1.390 1_455 S
C1161 H1154 0.950 . S
C1161 C1158 1.387 . S
C1162 C1163 1.387 . S
C1162 H1166 0.950 . S
C1162 C1171 1.390 . S
C1163 C1162 1.387 . S
C1163 C1165 1.387 . S
H1164 C1171 0.950 . S
C1165 C1163 1.387 . S
C1165 C1167 1.390 . S
C1165 H1169 0.950 . S
H1166 C1162 0.950 . S
C1167 C1165 1.390 . S
C1167 C1168 1.387 . S
C1167 H1170 0.950 . S
C1168 C1167 1.387 . S
C1168 C1171 1.387 . S
H1169 C1165 0.950 . S
H1170 C1167 0.950 . S
C1171 C1162 1.390 . S
C1171 H1164 0.950 . S
C1171 C1168 1.387 . S
C1172 C1173 1.387 . S
C1172 H1176 0.950 . S
C1172 C1181 1.390 1_455 S
C1173 C1172 1.387 . S
C1173 C1175 1.387 . S
H1174 C1181 0.950 . S
C1175 C1173 1.387 . S
C1175 C1177 1.390 1_455 S
C1175 H1179 0.950 . S
H1176 C1172 0.950 . S
C1177 C1175 1.390 1_655 S
C1177 C1178 1.387 . S
C1177 H1180 0.950 . S
C1178 C1177 1.387 . S
C1178 C1181 1.387 . S
H1179 C1175 0.950 . S
H1180 C1177 0.950 . S
C1181 C1172 1.390 1_655 S
C1181 H1174 0.950 . S
C1181 C1178 1.387 . S
C1182 C1183 1.387 . S
C1182 H1186 0.950 . S
C1182 C1191 1.390 . S
C1183 C1182 1.387 . S
C1183 C1185 1.387 . S
H1184 C1191 0.950 . S
C1185 C1183 1.387 . S
C1185 C1187 1.390 . S
C1185 H1189 0.950 . S
H1186 C1182 0.950 . S
C1187 C1185 1.390 . S
C1187 C1188 1.387 . S
C1187 H1190 0.950 . S
C1188 C1187 1.387 . S
C1188 C1191 1.387 . S
H1189 C1185 0.950 . S
H1190 C1187 0.950 . S
C1191 C1182 1.390 . S
C1191 H1184 0.950 . S
C1191 C1188 1.387 . S
C1192 C1193 1.387 . S
C1192 H1196 0.950 . S
C1192 C1201 1.390 1_655 S
C1193 C1192 1.387 . S
C1193 C1195 1.387 . S
H1194 C1201 0.950 . S
C1195 C1193 1.387 . S
C1195 C1197 1.390 1_655 S
C1195 H1199 0.950 . S
H1196 C1192 0.950 . S
C1197 C1195 1.390 1_455 S
C1197 C1198 1.387 . S
C1197 H1200 0.950 . S
C1198 C1197 1.387 . S
C1198 C1201 1.387 . S
H1199 C1195 0.950 . S
H1200 C1197 0.950 . S
C1201 C1192 1.390 1_455 S
C1201 H1194 0.950 . S
C1201 C1198 1.387 . S
C1202 C1203 1.387 . S
C1202 H1206 0.950 . S
C1202 C1211 1.390 . S
C1203 C1202 1.387 . S
C1203 C1205 1.387 . S
H1204 C1211 0.950 . S
C1205 C1203 1.387 . S
C1205 C1207 1.390 . S
C1205 H1209 0.950 . S
H1206 C1202 0.950 . S
C1207 C1205 1.390 . S
C1207 C1208 1.387 . S
C1207 H1210 0.950 . S
C1208 C1207 1.387 . S
C1208 C1211 1.387 . S
H1209 C1205 0.950 . S
H1210 C1207 0.950 . S
C1211 C1202 1.390 . S
C1211 H1204 0.950 . S
C1211 C1208 1.387 . S
C1212 C1213 1.387 . S
C1212 H1216 0.950 . S
C1212 C1221 1.390 1_655 S
C1213 C1212 1.387 . S
C1213 C1215 1.387 . S
H1214 C1221 0.950 . S
C1215 C1213 1.387 . S
C1215 C1217 1.390 1_655 S
C1215 H1219 0.950 . S
H1216 C1212 0.950 . S
C1217 C1215 1.390 1_455 S
C1217 C1218 1.387 . S
C1217 H1220 0.950 . S
C1218 C1217 1.387 . S
C1218 C1221 1.387 . S
H1219 C1215 0.950 . S
H1220 C1217 0.950 . S
C1221 C1212 1.390 1_455 S
C1221 H1214 0.950 . S
C1221 C1218 1.387 . S
C1222 C1223 1.387 . S
C1222 H1226 0.950 . S
C1222 C1231 1.390 . S
C1223 C1222 1.387 . S
C1223 C1225 1.387 . S
H1224 C1231 0.950 . S
C1225 C1223 1.387 . S
C1225 C1227 1.390 . S
C1225 H1229 0.950 . S
H1226 C1222 0.950 . S
C1227 C1225 1.390 . S
C1227 C1228 1.387 . S
C1227 H1230 0.950 . S
C1228 C1227 1.387 . S
C1228 C1231 1.387 . S
H1229 C1225 0.950 . S
H1230 C1227 0.950 . S
C1231 C1222 1.390 . S
C1231 H1224 0.950 . S
C1231 C1228 1.387 . S
C1232 C1233 1.387 . S
C1232 H1236 0.950 . S
C1232 C1241 1.390 1_545 S
C1233 C1232 1.387 . S
C1233 C1235 1.387 . S
H1234 C1241 0.950 . S
C1235 C1233 1.387 . S
C1235 C1237 1.390 1_545 S
C1235 H1239 0.950 . S
H1236 C1232 0.950 . S
C1237 C1235 1.390 1_565 S
C1237 C1238 1.387 . S
C1237 H1240 0.950 . S
C1238 C1237 1.387 . S
C1238 C1241 1.387 . S
H1239 C1235 0.950 . S
H1240 C1237 0.950 . S
C1241 C1232 1.390 1_565 S
C1241 H1234 0.950 . S
C1241 C1238 1.387 . S
C1242 C1243 1.387 . S
C1242 H1246 0.950 . S
C1242 C1251 1.390 . S
C1243 C1242 1.387 . S
C1243 C1245 1.387 . S
H1244 C1251 0.950 . S
C1245 C1243 1.387 . S
C1245 C1247 1.390 . S
C1245 H1249 0.950 . S
H1246 C1242 0.950 . S
C1247 C1245 1.390 . S
C1247 C1248 1.387 . S
C1247 H1250 0.950 . S
C1248 C1247 1.387 . S
C1248 C1251 1.387 . S
H1249 C1245 0.950 . S
H1250 C1247 0.950 . S
C1251 C1242 1.390 . S
C1251 H1244 0.950 . S
C1251 C1248 1.387 . S
C1252 C1253 1.387 . S
C1252 H1256 0.950 . S
C1252 C1261 1.390 1_545 S
C1253 C1252 1.387 . S
C1253 C1255 1.387 . S
H1254 C1261 0.950 . S
C1255 C1253 1.387 . S
C1255 C1257 1.390 1_545 S
C1255 H1259 0.950 . S
H1256 C1252 0.950 . S
C1257 C1255 1.390 1_565 S
C1257 C1258 1.387 . S
C1257 H1260 0.950 . S
C1258 C1257 1.387 . S
C1258 C1261 1.387 . S
H1259 C1255 0.950 . S
H1260 C1257 0.950 . S
C1261 C1252 1.390 1_565 S
C1261 H1254 0.950 . S
C1261 C1258 1.387 . S
C1262 C1263 1.387 . S
C1262 H1266 0.950 . S
C1262 C1271 1.390 . S
C1263 C1262 1.387 . S
C1263 C1265 1.387 . S
H1264 C1271 0.950 . S
C1265 C1263 1.387 . S
C1265 C1267 1.390 . S
C1265 H1269 0.950 . S
H1266 C1262 0.950 . S
C1267 C1265 1.390 . S
C1267 C1268 1.387 . S
C1267 H1270 0.950 . S
C1268 C1267 1.387 . S
C1268 C1271 1.387 . S
H1269 C1265 0.950 . S
H1270 C1267 0.950 . S
C1271 C1262 1.390 . S
C1271 H1264 0.950 . S
C1271 C1268 1.387 . S
C1272 C1273 1.387 . S
C1272 H1276 0.950 . S
C1272 C1281 1.390 1_545 S
C1273 C1272 1.387 . S
C1273 C1275 1.387 . S
H1274 C1281 0.950 . S
C1275 C1273 1.387 . S
C1275 C1277 1.390 1_545 S
C1275 H1279 0.950 . S
H1276 C1272 0.950 . S
C1277 C1275 1.390 1_565 S
C1277 C1278 1.387 . S
C1277 H1280 0.950 . S
C1278 C1277 1.387 . S
C1278 C1281 1.387 . S
H1279 C1275 0.950 . S
H1280 C1277 0.950 . S
C1281 C1272 1.390 1_565 S
C1281 H1274 0.950 . S
C1281 C1278 1.387 . S
C1282 C1283 1.387 . S
C1282 H1286 0.950 . S
C1282 C1291 1.390 . S
C1283 C1282 1.387 . S
C1283 C1285 1.387 . S
H1284 C1291 0.950 . S
C1285 C1283 1.387 . S
C1285 C1287 1.390 . S
C1285 H1289 0.950 . S
H1286 C1282 0.950 . S
C1287 C1285 1.390 . S
C1287 C1288 1.387 . S
C1287 H1290 0.950 . S
C1288 C1287 1.387 . S
C1288 C1291 1.387 . S
H1289 C1285 0.950 . S
H1290 C1287 0.950 . S
C1291 C1282 1.390 . S
C1291 H1284 0.950 . S
C1291 C1288 1.387 . S
C1292 C1293 1.387 . S
C1292 H1296 0.950 . S
C1292 C1301 1.390 1_545 S
C1293 C1292 1.387 . S
C1293 C1295 1.387 . S
H1294 C1301 0.950 . S
C1295 C1293 1.387 . S
C1295 C1297 1.390 1_545 S
C1295 H1299 0.950 . S
H1296 C1292 0.950 . S
C1297 C1295 1.390 1_565 S
C1297 C1298 1.387 . S
C1297 H1300 0.950 . S
C1298 C1297 1.387 . S
C1298 C1301 1.387 . S
H1299 C1295 0.950 . S
H1300 C1297 0.950 . S
C1301 C1292 1.390 1_565 S
C1301 H1294 0.950 . S
C1301 C1298 1.387 . S
C1302 C1303 1.387 . S
C1302 H1306 0.950 . S
C1302 C1311 1.390 . S
C1303 C1302 1.387 . S
C1303 C1305 1.387 . S
H1304 C1311 0.950 . S
C1305 C1303 1.387 . S
C1305 C1307 1.390 . S
C1305 H1309 0.950 . S
H1306 C1302 0.950 . S
C1307 C1305 1.390 . S
C1307 C1308 1.387 . S
C1307 H1310 0.950 . S
C1308 C1307 1.387 . S
C1308 C1311 1.387 . S
H1309 C1305 0.950 . S
H1310 C1307 0.950 . S
C1311 C1302 1.390 . S
C1311 H1304 0.950 . S
C1311 C1308 1.387 . S
C1312 C1313 1.387 . S
C1312 H1316 0.950 . S
C1312 C1321 1.390 1_556 S
C1313 C1312 1.387 . S
C1313 C1315 1.387 . S
H1314 C1321 0.950 . S
C1315 C1313 1.387 . S
C1315 C1317 1.390 1_556 S
C1315 H1319 0.950 . S
H1316 C1312 0.950 . S
C1317 C1315 1.390 1_554 S
C1317 C1318 1.387 . S
C1317 H1320 0.950 . S
C1318 C1317 1.387 . S
C1318 C1321 1.387 . S
H1319 C1315 0.950 . S
H1320 C1317 0.950 . S
C1321 C1312 1.390 1_554 S
C1321 H1314 0.950 . S
C1321 C1318 1.387 . S
C1322 C1323 1.387 . S
C1322 H1326 0.950 . S
C1322 C1331 1.390 1_556 S
C1323 C1322 1.387 . S
C1323 C1325 1.387 . S
H1324 C1331 0.950 . S
C1325 C1323 1.387 . S
C1325 C1327 1.390 1_556 S
C1325 H1329 0.950 . S
H1326 C1322 0.950 . S
C1327 C1325 1.390 1_554 S
C1327 C1328 1.387 . S
C1327 H1330 0.950 . S
C1328 C1327 1.387 . S
C1328 C1331 1.387 . S
H1329 C1325 0.950 . S
H1330 C1327 0.950 . S
C1331 C1322 1.390 1_554 S
C1331 H1324 0.950 . S
C1331 C1328 1.387 . S
C1332 C1333 1.387 . S
C1332 H1336 0.950 . S
C1332 C1341 1.390 . S
C1333 C1332 1.387 . S
C1333 C1335 1.387 . S
H1334 C1341 0.950 . S
C1335 C1333 1.387 . S
C1335 C1337 1.390 . S
C1335 H1339 0.950 . S
H1336 C1332 0.950 . S
C1337 C1335 1.390 . S
C1337 C1338 1.387 . S
C1337 H1340 0.950 . S
C1338 C1337 1.387 . S
C1338 C1341 1.387 . S
H1339 C1335 0.950 . S
H1340 C1337 0.950 . S
C1341 C1332 1.390 . S
C1341 H1334 0.950 . S
C1341 C1338 1.387 . S
C1342 C1343 1.387 . S
C1342 H1346 0.950 . S
C1342 C1351 1.390 1_556 S
C1343 C1342 1.387 . S
C1343 C1345 1.387 . S
H1344 C1351 0.950 . S
C1345 C1343 1.387 . S
C1345 C1347 1.390 1_556 S
C1345 H1349 0.950 . S
H1346 C1342 0.950 . S
C1347 C1345 1.390 1_554 S
C1347 C1348 1.387 . S
C1347 H1350 0.950 . S
C1348 C1347 1.387 . S
C1348 C1351 1.387 . S
H1349 C1345 0.950 . S
H1350 C1347 0.950 . S
C1351 C1342 1.390 1_554 S
C1351 H1344 0.950 . S
C1351 C1348 1.387 . S
C1352 C1353 1.387 . S
C1352 H1356 0.950 . S
C1352 C1361 1.390 . S
C1353 C1352 1.387 . S
C1353 C1355 1.387 . S
H1354 C1361 0.950 . S
C1355 C1353 1.387 . S
C1355 C1357 1.390 . S
C1355 H1359 0.950 . S
H1356 C1352 0.950 . S
C1357 C1355 1.390 . S
C1357 C1358 1.387 . S
C1357 H1360 0.950 . S
C1358 C1357 1.387 . S
C1358 C1361 1.387 . S
H1359 C1355 0.950 . S
H1360 C1357 0.950 . S
C1361 C1352 1.390 . S
C1361 H1354 0.950 . S
C1361 C1358 1.387 . S
C1362 C1363 1.387 . S
C1362 H1366 0.950 . S
C1362 C1371 1.390 1_556 S
C1363 C1362 1.387 . S
C1363 C1365 1.387 . S
H1364 C1371 0.950 . S
C1365 C1363 1.387 . S
C1365 C1367 1.390 1_556 S
C1365 H1369 0.950 . S
H1366 C1362 0.950 . S
C1367 C1365 1.390 1_554 S
C1367 C1368 1.387 . S
C1367 H1370 0.950 . S
C1368 C1367 1.387 . S
C1368 C1371 1.387 . S
H1369 C1365 0.950 . S
H1370 C1367 0.950 . S
C1371 C1362 1.390 1_554 S
C1371 H1364 0.950 . S
C1371 C1368 1.387 . S
C1372 C1373 1.387 . S
C1372 H1376 0.950 . S
C1372 C1381 1.390 . S
C1373 C1372 1.387 . S
C1373 C1375 1.387 . S
H1374 C1381 0.950 . S
C1375 C1373 1.387 . S
C1375 C1377 1.390 . S
C1375 H1379 0.950 . S
H1376 C1372 0.950 . S
C1377 C1375 1.390 . S
C1377 C1378 1.387 . S
C1377 H1380 0.950 . S
C1378 C1377 1.387 . S
C1378 C1381 1.387 . S
H1379 C1375 0.950 . S
H1380 C1377 0.950 . S
C1381 C1372 1.390 . S
C1381 H1374 0.950 . S
C1381 C1378 1.387 . S
C1382 C1383 1.387 . S
C1382 H1386 0.950 . S
C1382 C1391 1.390 . S
C1383 C1382 1.387 . S
C1383 C1385 1.387 . S
H1384 C1391 0.950 . S
C1385 C1383 1.387 . S
C1385 C1387 1.390 . S
C1385 H1389 0.950 . S
H1386 C1382 0.950 . S
C1387 C1385 1.390 . S
C1387 C1388 1.387 . S
C1387 H1390 0.950 . S
C1388 C1387 1.387 . S
C1388 C1391 1.387 . S
H1389 C1385 0.950 . S
H1390 C1387 0.950 . S
C1391 C1382 1.390 . S
C1391 H1384 0.950 . S
C1391 C1388 1.387 . S
C1392 C1393 1.387 . S
C1392 H1396 0.950 . S
C1392 C1401 1.390 . S
C1393 C1392 1.387 . S
C1393 C1395 1.387 . S
H1394 C1401 0.950 . S
C1395 C1393 1.387 . S
C1395 C1397 1.390 . S
C1395 H1399 0.950 . S
H1396 C1392 0.950 . S
C1397 C1395 1.390 . S
C1397 C1398 1.387 . S
C1397 H1400 0.950 . S
C1398 C1397 1.387 . S
C1398 C1401 1.387 . S
H1399 C1395 0.950 . S
H1400 C1397 0.950 . S
C1401 C1392 1.390 . S
C1401 H1394 0.950 . S
C1401 C1398 1.387 . S
C1402 C1403 1.387 . S
C1402 H1406 0.950 . S
C1402 C1411 1.390 . S
C1403 C1402 1.387 . S
C1403 C1405 1.387 . S
H1404 C1411 0.950 . S
C1405 C1403 1.387 . S
C1405 C1407 1.390 . S
C1405 H1409 0.950 . S
H1406 C1402 0.950 . S
C1407 C1405 1.390 . S
C1407 C1408 1.387 . S
C1407 H1410 0.950 . S
C1408 C1407 1.387 . S
C1408 C1411 1.387 . S
H1409 C1405 0.950 . S
H1410 C1407 0.950 . S
C1411 C1402 1.390 . S
C1411 H1404 0.950 . S
C1411 C1408 1.387 . S
C1412 C1413 1.387 . S
C1412 H1416 0.950 . S
C1412 C1421 1.390 . S
C1413 C1412 1.387 . S
C1413 C1415 1.387 . S
H1414 C1421 0.950 . S
C1415 C1413 1.387 . S
C1415 C1417 1.390 . S
C1415 H1419 0.950 . S
H1416 C1412 0.950 . S
C1417 C1415 1.390 . S
C1417 C1418 1.387 . S
C1417 H1420 0.950 . S
C1418 C1417 1.387 . S
C1418 C1421 1.387 . S
H1419 C1415 0.950 . S
H1420 C1417 0.950 . S
C1421 C1412 1.390 . S
C1421 H1414 0.950 . S
C1421 C1418 1.387 . S
C1422 C1423 1.387 . S
C1422 H1426 0.950 . S
C1422 C1431 1.390 . S
C1423 C1422 1.387 . S
C1423 C1425 1.387 . S
H1424 C1431 0.950 . S
C1425 C1423 1.387 . S
C1425 C1427 1.390 . S
C1425 H1429 0.950 . S
H1426 C1422 0.950 . S
C1427 C1425 1.390 . S
C1427 C1428 1.387 . S
C1427 H1430 0.950 . S
C1428 C1427 1.387 . S
C1428 C1431 1.387 . S
H1429 C1425 0.950 . S
H1430 C1427 0.950 . S
C1431 C1422 1.390 . S
C1431 H1424 0.950 . S
C1431 C1428 1.387 . S
C1432 C1433 1.387 . S
C1432 H1436 0.950 . S
C1432 C1441 1.390 . S
C1433 C1432 1.387 . S
C1433 C1435 1.387 . S
H1434 C1441 0.950 . S
C1435 C1433 1.387 . S
C1435 C1437 1.390 . S
C1435 H1439 0.950 . S
H1436 C1432 0.950 . S
C1437 C1435 1.390 . S
C1437 C1438 1.387 . S
C1437 H1440 0.950 . S
C1438 C1437 1.387 . S
C1438 C1441 1.387 . S
H1439 C1435 0.950 . S
H1440 C1437 0.950 . S
C1441 C1432 1.390 . S
C1441 H1434 0.950 . S
C1441 C1438 1.387 . S
C1442 C1443 1.387 . S
C1442 H1446 0.950 . S
C1442 C1451 1.390 . S
C1443 C1442 1.387 . S
C1443 C1445 1.387 . S
H1444 C1451 0.950 . S
C1445 C1443 1.387 . S
C1445 C1447 1.390 . S
C1445 H1449 0.950 . S
H1446 C1442 0.950 . S
C1447 C1445 1.390 . S
C1447 C1448 1.387 . S
C1447 H1450 0.950 . S
C1448 C1447 1.387 . S
C1448 C1451 1.387 . S
H1449 C1445 0.950 . S
H1450 C1447 0.950 . S
C1451 C1442 1.390 . S
C1451 H1444 0.950 . S
C1451 C1448 1.387 . S
C1452 C1453 1.387 . S
C1452 H1456 0.950 . S
C1452 C1461 1.390 . S
C1453 C1452 1.387 . S
C1453 C1455 1.387 . S
H1454 C1461 0.950 . S
C1455 C1453 1.387 . S
C1455 C1457 1.390 . S
C1455 H1459 0.950 . S
H1456 C1452 0.950 . S
C1457 C1455 1.390 . S
C1457 C1458 1.387 . S
C1457 H1460 0.950 . S
C1458 C1457 1.387 . S
C1458 C1461 1.387 . S
H1459 C1455 0.950 . S
H1460 C1457 0.950 . S
C1461 C1452 1.390 . S
C1461 H1454 0.950 . S
C1461 C1458 1.387 . S
C1462 C1463 1.387 . S
C1462 H1466 0.950 . S
C1462 C1471 1.390 . S
C1463 C1462 1.387 . S
C1463 C1465 1.387 . S
H1464 C1471 0.950 . S
C1465 C1463 1.387 . S
C1465 C1467 1.390 . S
C1465 H1469 0.950 . S
H1466 C1462 0.950 . S
C1467 C1465 1.390 . S
C1467 C1468 1.387 . S
C1467 H1470 0.950 . S
C1468 C1467 1.387 . S
C1468 C1471 1.387 . S
H1469 C1465 0.950 . S
H1470 C1467 0.950 . S
C1471 C1462 1.390 . S
C1471 H1464 0.950 . S
C1471 C1468 1.387 . S
C1472 C1473 1.387 . S
C1472 H1476 0.950 . S
C1472 C1481 1.390 . S
C1473 C1472 1.387 . S
C1473 C1475 1.387 . S
H1474 C1481 0.950 . S
C1475 C1473 1.387 . S
C1475 C1477 1.390 . S
C1475 H1479 0.950 . S
H1476 C1472 0.950 . S
C1477 C1475 1.390 . S
C1477 C1478 1.387 . S
C1477 H1480 0.950 . S
C1478 C1477 1.387 . S
C1478 C1481 1.387 . S
H1479 C1475 0.950 . S
H1480 C1477 0.950 . S
C1481 C1472 1.390 . S
C1481 H1474 0.950 . S
C1481 C1478 1.387 . S
C1482 C1483 1.387 . S
C1482 H1486 0.950 . S
C1482 C1491 1.390 . S
C1483 C1482 1.387 . S
C1483 C1485 1.387 . S
H1484 C1491 0.950 . S
C1485 C1483 1.387 . S
C1485 C1487 1.390 . S
C1485 H1489 0.950 . S
H1486 C1482 0.950 . S
C1487 C1485 1.390 . S
C1487 C1488 1.387 . S
C1487 H1490 0.950 . S
C1488 C1487 1.387 . S
C1488 C1491 1.387 . S
H1489 C1485 0.950 . S
H1490 C1487 0.950 . S
C1491 C1482 1.390 . S
C1491 H1484 0.950 . S
C1491 C1488 1.387 . S
C1492 C1493 1.387 . S
C1492 H1496 0.950 . S
C1492 C1501 1.390 . S
C1493 C1492 1.387 . S
C1493 C1495 1.387 . S
H1494 C1501 0.950 . S
C1495 C1493 1.387 . S
C1495 C1497 1.390 . S
C1495 H1499 0.950 . S
H1496 C1492 0.950 . S
C1497 C1495 1.390 . S
C1497 C1498 1.387 . S
C1497 H1500 0.950 . S
C1498 C1497 1.387 . S
C1498 C1501 1.387 . S
H1499 C1495 0.950 . S
H1500 C1497 0.950 . S
C1501 C1492 1.390 . S
C1501 H1494 0.950 . S
C1501 C1498 1.387 . S
C1502 C1503 1.387 . S
C1502 H1506 0.950 . S
C1502 C1511 1.390 . S
C1503 C1502 1.387 . S
C1503 C1505 1.387 . S
H1504 C1511 0.950 . S
C1505 C1503 1.387 . S
C1505 C1507 1.390 . S
C1505 H1509 0.950 . S
H1506 C1502 0.950 . S
C1507 C1505 1.390 . S
C1507 C1508 1.387 . S
C1507 H1510 0.950 . S
C1508 C1507 1.387 . S
C1508 C1511 1.387 . S
H1509 C1505 0.950 . S
H1510 C1507 0.950 . S
C1511 C1502 1.390 . S
C1511 H1504 0.950 . S
C1511 C1508 1.387 . S
C1512 C1513 1.387 . S
C1512 H1516 0.950 . S
C1512 C1521 1.390 . S
C1513 C1512 1.387 . S
C1513 C1515 1.387 . S
H1514 C1521 0.950 . S
C1515 C1513 1.387 . S
C1515 C1517 1.390 . S
C1515 H1519 0.950 . S
H1516 C1512 0.950 . S
C1517 C1515 1.390 . S
C1517 C1518 1.387 . S
C1517 H1520 0.950 . S
C1518 C1517 1.387 . S
C1518 C1521 1.387 . S
H1519 C1515 0.950 . S
H1520 C1517 0.950 . S
C1521 C1512 1.390 . S
C1521 H1514 0.950 . S
C1521 C1518 1.387 . S
C1522 C1523 1.387 . S
C1522 H1526 0.950 . S
C1522 C1531 1.390 . S
C1523 C1522 1.387 . S
C1523 C1525 1.387 . S
H1524 C1531 0.950 . S
C1525 C1523 1.387 . S
C1525 C1527 1.390 . S
C1525 H1529 0.950 . S
H1526 C1522 0.950 . S
C1527 C1525 1.390 . S
C1527 C1528 1.387 . S
C1527 H1530 0.950 . S
C1528 C1527 1.387 . S
C1528 C1531 1.387 . S
H1529 C1525 0.950 . S
H1530 C1527 0.950 . S
C1531 C1522 1.390 . S
C1531 H1524 0.950 . S
C1531 C1528 1.387 . S
C1532 C1533 1.387 . S
C1532 H1536 0.950 . S
C1532 C1541 1.390 . S
C1533 C1532 1.387 . S
C1533 C1535 1.387 . S
H1534 C1541 0.950 . S
C1535 C1533 1.387 . S
C1535 C1537 1.390 . S
C1535 H1539 0.950 . S
H1536 C1532 0.950 . S
C1537 C1535 1.390 . S
C1537 C1538 1.387 . S
C1537 H1540 0.950 . S
C1538 C1537 1.387 . S
C1538 C1541 1.387 . S
H1539 C1535 0.950 . S
H1540 C1537 0.950 . S
C1541 C1532 1.390 . S
C1541 H1534 0.950 . S
C1541 C1538 1.387 . S
C1542 C1543 1.387 . S
C1542 H1546 0.950 . S
C1542 C1551 1.390 . S
C1543 C1542 1.387 . S
C1543 C1545 1.387 . S
H1544 C1551 0.950 . S
C1545 C1543 1.387 . S
C1545 C1547 1.390 . S
C1545 H1549 0.950 . S
H1546 C1542 0.950 . S
C1547 C1545 1.390 . S
C1547 C1548 1.387 . S
C1547 H1550 0.950 . S
C1548 C1547 1.387 . S
C1548 C1551 1.387 . S
H1549 C1545 0.950 . S
H1550 C1547 0.950 . S
C1551 C1542 1.390 . S
C1551 H1544 0.950 . S
C1551 C1548 1.387 . S
C1552 C1553 1.387 . S
C1552 H1556 0.950 . S
C1552 C1561 1.390 . S
C1553 C1552 1.387 . S
C1553 C1555 1.387 . S
H1554 C1561 0.950 . S
C1555 C1553 1.387 . S
C1555 C1557 1.390 . S
C1555 H1559 0.950 . S
H1556 C1552 0.950 . S
C1557 C1555 1.390 . S
C1557 C1558 1.387 . S
C1557 H1560 0.950 . S
C1558 C1557 1.387 . S
C1558 C1561 1.387 . S
H1559 C1555 0.950 . S
H1560 C1557 0.950 . S
C1561 C1552 1.390 . S
C1561 H1554 0.950 . S
C1561 C1558 1.387 . S
C1562 C1563 1.387 . S
C1562 H1566 0.950 . S
C1562 C1571 1.390 . S
C1563 C1562 1.387 . S
C1563 C1565 1.387 . S
H1564 C1571 0.950 . S
C1565 C1563 1.387 . S
C1565 C1567 1.390 . S
C1565 H1569 0.950 . S
H1566 C1562 0.950 . S
C1567 C1565 1.390 . S
C1567 C1568 1.387 . S
C1567 H1570 0.950 . S
C1568 C1567 1.387 . S
C1568 C1571 1.387 . S
H1569 C1565 0.950 . S
H1570 C1567 0.950 . S
C1571 C1562 1.390 . S
C1571 H1564 0.950 . S
C1571 C1568 1.387 . S
C1572 C1573 1.387 . S
C1572 H1576 0.950 . S
C1572 C1581 1.390 . S
C1573 C1572 1.387 . S
C1573 C1575 1.387 . S
H1574 C1581 0.950 . S
C1575 C1573 1.387 . S
C1575 C1577 1.390 . S
C1575 H1579 0.950 . S
H1576 C1572 0.950 . S
C1577 C1575 1.390 . S
C1577 C1578 1.387 . S
C1577 H1580 0.950 . S
C1578 C1577 1.387 . S
C1578 C1581 1.387 . S
H1579 C1575 0.950 . S
H1580 C1577 0.950 . S
C1581 C1572 1.390 . S
C1581 H1574 0.950 . S
C1581 C1578 1.387 . S
C1582 C1583 1.387 . S
C1582 H1586 0.950 . S
C1582 C1591 1.390 . S
C1583 C1582 1.387 . S
C1583 C1585 1.387 . S
H1584 C1591 0.950 . S
C1585 C1583 1.387 . S
C1585 C1587 1.390 . S
C1585 H1589 0.950 . S
H1586 C1582 0.950 . S
C1587 C1585 1.390 . S
C1587 C1588 1.387 . S
C1587 H1590 0.950 . S
C1588 C1587 1.387 . S
C1588 C1591 1.387 . S
H1589 C1585 0.950 . S
H1590 C1587 0.950 . S
C1591 C1582 1.390 . S
C1591 H1584 0.950 . S
C1591 C1588 1.387 . S
C1592 C1593 1.387 . S
C1592 H1596 0.950 . S
C1592 C1601 1.390 . S
C1593 C1592 1.387 . S
C1593 C1595 1.387 . S
H1594 C1601 0.950 . S
C1595 C1593 1.387 . S
C1595 C1597 1.390 . S
C1595 H1599 0.950 . S
H1596 C1592 0.950 . S
C1597 C1595 1.390 . S
C1597 C1598 1.387 . S
C1597 H1600 0.950 . S
C1598 C1597 1.387 . S
C1598 C1601 1.387 . S
H1599 C1595 0.950 . S
H1600 C1597 0.950 . S
C1601 C1592 1.390 . S
C1601 H1594 0.950 . S
C1601 C1598 1.387 . S
C1602 C1603 1.387 . S
C1602 H1606 0.950 . S
C1602 C1611 1.390 . S
C1603 C1602 1.387 . S
C1603 C1605 1.387 . S
H1604 C1611 0.950 . S
C1605 C1603 1.387 . S
C1605 C1607 1.390 . S
C1605 H1609 0.950 . S
H1606 C1602 0.950 . S
C1607 C1605 1.390 . S
C1607 C1608 1.387 . S
C1607 H1610 0.950 . S
C1608 C1607 1.387 . S
C1608 C1611 1.387 . S
H1609 C1605 0.950 . S
H1610 C1607 0.950 . S
C1611 C1602 1.390 . S
C1611 H1604 0.950 . S
C1611 C1608 1.387 . S
C1612 C1613 1.387 . S
C1612 H1616 0.950 . S
C1612 C1621 1.390 . S
C1613 C1612 1.387 . S
C1613 C1615 1.387 . S
H1614 C1621 0.950 . S
C1615 C1613 1.387 . S
C1615 C1617 1.390 . S
C1615 H1619 0.950 . S
H1616 C1612 0.950 . S
C1617 C1615 1.390 . S
C1617 C1618 1.387 . S
C1617 H1620 0.950 . S
C1618 C1617 1.387 . S
C1618 C1621 1.387 . S
H1619 C1615 0.950 . S
H1620 C1617 0.950 . S
C1621 C1612 1.390 . S
C1621 H1614 0.950 . S
C1621 C1618 1.387 . S
C1622 C1623 1.387 . S
C1622 H1626 0.950 . S
C1622 C1631 1.390 . S
C1623 C1622 1.387 . S
C1623 C1625 1.387 . S
H1624 C1631 0.950 . S
C1625 C1623 1.387 . S
C1625 C1627 1.390 . S
C1625 H1629 0.950 . S
H1626 C1622 0.950 . S
C1627 C1625 1.390 . S
C1627 C1628 1.387 . S
C1627 H1630 0.950 . S
C1628 C1627 1.387 . S
C1628 C1631 1.387 . S
H1629 C1625 0.950 . S
H1630 C1627 0.950 . S
C1631 C1622 1.390 . S
C1631 H1624 0.950 . S
C1631 C1628 1.387 . S
C673 C283 1.584 . S
C678 C3 1.582 . S
C683 C21 1.471 . S
C688 C245 1.471 . S
C693 C31 1.587 . S
C698 C259 1.484 . S
C703 C273 1.476 . S
C708 C49 1.477 . S
C713 C329 1.472 . S
C718 C63 1.473 . S
C723 C73 1.585 . S
C728 C301 1.484 . S
C733 C91 1.473 . S
C738 C311 1.573 . S
C743 C101 1.586 . S
C748 C227 1.587 . S
C753 C115 1.581 . S
C758 C213 1.580 . S
C763 C133 1.476 . S
C768 C175 1.477 . S
C773 C143 1.568 . S
C778 C185 1.568 . S
C783 C203 1.480 . S
C788 C161 1.481 . S
C793 C343 1.485 . S
C798 C623 1.488 . S
C803 C577 1.543 . S
C808 C353 1.544 . S
C813 C371 1.486 . S
C818 C591 1.567 . S
C823 C609 1.469 . S
C828 C381 1.548 . S
C833 C395 1.547 . S
C838 C661 1.545 . S
C843 C633 1.564 . S
C848 C413 1.484 . S
C853 C423 1.541 . S
C858 C651 1.468 . S
C863 C567 1.486 . S
C868 C441 1.487 . S
C873 C455 1.474 . S
C878 C553 1.477 . S
C883 C507 1.555 . S
C888 C465 1.553 . S
C893 C525 1.467 . S
C898 C483 1.470 . S
C903 C535 1.565 . S
C908 C493 1.564 . S
C913 C367 1.309 . S
C918 C7 1.251 . S
C923 C17 1.310 . S
C928 C385 1.258 . S
C933 C35 1.248 . S
C938 C339 1.310 . S
C943 C45 1.326 . S
C948 C357 1.273 . S
C953 C59 1.309 . S
C958 C427 1.259 . S
C963 C437 1.314 . S
C968 C77 1.254 . S
C973 C399 1.257 . S
C978 C87 1.307 . S
C983 C409 1.311 . S
C988 C105 1.248 . S
C993 C511 1.261 . S
C998 C119 1.251 . S
C1003 C129 1.306 . S
C1008 C521 1.309 . S
C1013 C539 1.257 . S
C1018 C147 1.253 . S
C1023 C157 1.307 . S
C1028 C549 1.310 . S
C1033 C171 1.309 . S
C1038 C451 1.310 . S
C1043 C189 1.252 . S
C1048 C469 1.261 . S
C1053 C479 1.312 . S
C1058 C199 1.308 . S
C1063 C497 1.260 . S
C1068 C217 1.251 . S
C1073 C231 1.245 . S
C1078 C605 1.310 . S
C1083 C241 1.308 . S
C1088 C637 1.258 . S
C1093 C647 1.308 . S
C1098 C255 1.305 . S
C1103 C563 1.310 . S
C1108 C269 1.305 . S
C1113 C287 1.251 . S
C1118 C665 1.259 . S
C1123 C581 1.270 . S
C1128 C297 1.318 . S
C1133 C315 1.257 . S
C1138 C595 1.268 . S
C1143 C325 1.304 . S
C1148 C619 1.308 . S
C1153 C400 1.681 . S
C1158 C9 1.632 . S
C1163 C415 1.624 . S
C1168 C22 1.690 . S
C1173 C428 1.684 . S
C1178 C37 1.637 . S
C1183 C50 1.688 . S
C1188 C443 1.619 . S
C1193 C345 1.623 . S
C1198 C64 1.690 . S
C1203 C358 1.685 . S
C1208 C79 1.638 . S
C1213 C92 1.688 . S
C1218 C373 1.621 . S
C1223 C386 1.681 . S
C1228 C107 1.634 . S
C1233 C121 1.634 . S
C1238 C540 1.685 . S
C1243 C134 1.691 . S
C1248 C555 1.624 . S
C1253 C512 1.683 . S
C1258 C149 1.632 . S
C1263 C162 1.690 . S
C1268 C527 1.621 . S
C1273 C485 1.623 . S
C1278 C176 1.691 . S
C1283 C191 1.631 . S
C1288 C498 1.685 . S
C1293 C204 1.691 . S
C1298 C457 1.620 . S
C1303 C219 1.637 . S
C1308 C470 1.682 . S
C1313 C638 1.681 . S
C1318 C233 1.630 . S
C1323 C246 1.696 . S
C1328 C611 1.622 . S
C1333 C260 1.684 . S
C1338 C625 1.613 . S
C1343 C274 1.685 . S
C1348 C582 1.677 . S
C1353 C596 1.681 . S
C1358 C289 1.631 . S
C1363 C569 1.625 . S
C1368 C302 1.701 . S
C1373 C666 1.700 . S
C1378 C317 1.652 . S
C1383 C330 1.694 . S
C1388 C653 1.623 . S
C1393 C218 1.631 . S
C1398 C8 1.630 . S
C1403 C23 1.490 . S
C1408 C177 1.488 . S
C1413 C190 1.627 . S
C1418 C36 1.629 . S
C1423 C205 1.488 . S
C1428 C51 1.491 . S
C1433 C135 1.491 . S
C1438 C65 1.495 . S
C1443 C78 1.629 . S
C1448 C148 1.628 . S
C1453 C93 1.487 . S
C1458 C163 1.487 . S
C1463 C120 1.629 . S
C1468 C106 1.629 . S
C1473 C232 1.631 . S
C1478 C288 1.633 . S
C1483 C331 1.494 . S
C1488 C247 1.499 . S
C1493 C303 1.489 . S
C1498 C261 1.486 . S
C1503 C275 1.507 . S
C1508 C316 1.641 . S
C1513 C554 1.625 . S
C1518 C344 1.622 . S
C1523 C513 1.479 . S
C1528 C359 1.481 . S
C1533 C372 1.625 . S
C1538 C526 1.627 . S
C1543 C541 1.475 . S
C1548 C387 1.476 . S
C1553 C471 1.472 . S
C1558 C401 1.476 . S
C1563 C414 1.623 . S
C1568 C484 1.626 . S
C1573 C429 1.479 . S
C1578 C499 1.481 . S
C1583 C442 1.621 . S
C1588 C456 1.623 . S
C1593 C568 1.616 . S
C1598 C624 1.620 . S
C1603 C667 1.482 . S
C1608 C583 1.488 . S
C1613 C639 1.476 . S
C1618 C597 1.473 . S
C1623 C652 1.631 . S
C1628 C610 1.627 . S
