# Generated by pormake.
# Topology lcy-a, (4)-cn, num edge types: 1
# Building blocks:
#     Node 0, Type 0, BuildingBlock: NAHDIM_clean_sbu_0, # of connection points: 4
#     Node 1, Type 0, BuildingBlock: NAHDIM_clean_sbu_0, # of connection points: 4
#     Node 2, Type 0, BuildingBlock: NAHDIM_clean_sbu_0, # of connection points: 4
#     Node 3, Type 0, BuildingBlock: NAHDIM_clean_sbu_0, # of connection points: 4
#     Node 4, Type 0, BuildingBlock: NAHDIM_clean_sbu_0, # of connection points: 4
#     Node 5, Type 0, BuildingBlock: NAHDIM_clean_sbu_0, # of connection points: 4
#     Node 6, Type 0, BuildingBlock: NAHDIM_clean_sbu_0, # of connection points: 4
#     Node 7, Type 0, BuildingBlock: NAHDIM_clean_sbu_0, # of connection points: 4
#     Node 8, Type 0, BuildingBlock: NAHDIM_clean_sbu_0, # of connection points: 4
#     Node 9, Type 0, BuildingBlock: NAHDIM_clean_sbu_0, # of connection points: 4
#     Node 10, Type 0, BuildingBlock: NAHDIM_clean_sbu_0, # of connection points: 4
#     Node 11, Type 0, BuildingBlock: NAHDIM_clean_sbu_0, # of connection points: 4
#     Node 12, Type 0, BuildingBlock: NAHDIM_clean_sbu_0, # of connection points: 4
#     Node 13, Type 0, BuildingBlock: NAHDIM_clean_sbu_0, # of connection points: 4
#     Node 14, Type 0, BuildingBlock: NAHDIM_clean_sbu_0, # of connection points: 4
#     Node 15, Type 0, BuildingBlock: NAHDIM_clean_sbu_0, # of connection points: 4
#     Node 16, Type 0, BuildingBlock: NAHDIM_clean_sbu_0, # of connection points: 4
#     Node 17, Type 0, BuildingBlock: NAHDIM_clean_sbu_0, # of connection points: 4
#     Node 18, Type 0, BuildingBlock: NAHDIM_clean_sbu_0, # of connection points: 4
#     Node 19, Type 0, BuildingBlock: NAHDIM_clean_sbu_0, # of connection points: 4
#     Node 20, Type 0, BuildingBlock: NAHDIM_clean_sbu_0, # of connection points: 4
#     Node 21, Type 0, BuildingBlock: NAHDIM_clean_sbu_0, # of connection points: 4
#     Node 22, Type 0, BuildingBlock: NAHDIM_clean_sbu_0, # of connection points: 4
#     Node 23, Type 0, BuildingBlock: NAHDIM_clean_sbu_0, # of connection points: 4
#     Edge 24, Type (0, 0), BuildingBlock: ZUJKAS_clean_linker_0, # of connection points: 2
#     Edge 25, Type (0, 0), BuildingBlock: ZUJKAS_clean_linker_0, # of connection points: 2
#     Edge 26, Type (0, 0), BuildingBlock: ZUJKAS_clean_linker_0, # of connection points: 2
#     Edge 27, Type (0, 0), BuildingBlock: ZUJKAS_clean_linker_0, # of connection points: 2
#     Edge 28, Type (0, 0), BuildingBlock: ZUJKAS_clean_linker_0, # of connection points: 2
#     Edge 29, Type (0, 0), BuildingBlock: ZUJKAS_clean_linker_0, # of connection points: 2
#     Edge 30, Type (0, 0), BuildingBlock: ZUJKAS_clean_linker_0, # of connection points: 2
#     Edge 31, Type (0, 0), BuildingBlock: ZUJKAS_clean_linker_0, # of connection points: 2
#     Edge 32, Type (0, 0), BuildingBlock: ZUJKAS_clean_linker_0, # of connection points: 2
#     Edge 33, Type (0, 0), BuildingBlock: ZUJKAS_clean_linker_0, # of connection points: 2
#     Edge 34, Type (0, 0), BuildingBlock: ZUJKAS_clean_linker_0, # of connection points: 2
#     Edge 35, Type (0, 0), BuildingBlock: ZUJKAS_clean_linker_0, # of connection points: 2
#     Edge 36, Type (0, 0), BuildingBlock: ZUJKAS_clean_linker_0, # of connection points: 2
#     Edge 37, Type (0, 0), BuildingBlock: ZUJKAS_clean_linker_0, # of connection points: 2
#     Edge 38, Type (0, 0), BuildingBlock: ZUJKAS_clean_linker_0, # of connection points: 2
#     Edge 39, Type (0, 0), BuildingBlock: ZUJKAS_clean_linker_0, # of connection points: 2
#     Edge 40, Type (0, 0), BuildingBlock: ZUJKAS_clean_linker_0, # of connection points: 2
#     Edge 41, Type (0, 0), BuildingBlock: ZUJKAS_clean_linker_0, # of connection points: 2
#     Edge 42, Type (0, 0), BuildingBlock: ZUJKAS_clean_linker_0, # of connection points: 2
#     Edge 43, Type (0, 0), BuildingBlock: ZUJKAS_clean_linker_0, # of connection points: 2
#     Edge 44, Type (0, 0), BuildingBlock: ZUJKAS_clean_linker_0, # of connection points: 2
#     Edge 45, Type (0, 0), BuildingBlock: ZUJKAS_clean_linker_0, # of connection points: 2
#     Edge 46, Type (0, 0), BuildingBlock: ZUJKAS_clean_linker_0, # of connection points: 2
#     Edge 47, Type (0, 0), BuildingBlock: ZUJKAS_clean_linker_0, # of connection points: 2
#     Edge 48, Type (0, 0), BuildingBlock: ZUJKAS_clean_linker_0, # of connection points: 2
#     Edge 49, Type (0, 0), BuildingBlock: ZUJKAS_clean_linker_0, # of connection points: 2
#     Edge 50, Type (0, 0), BuildingBlock: ZUJKAS_clean_linker_0, # of connection points: 2
#     Edge 51, Type (0, 0), BuildingBlock: ZUJKAS_clean_linker_0, # of connection points: 2
#     Edge 52, Type (0, 0), BuildingBlock: ZUJKAS_clean_linker_0, # of connection points: 2
#     Edge 53, Type (0, 0), BuildingBlock: ZUJKAS_clean_linker_0, # of connection points: 2
#     Edge 54, Type (0, 0), BuildingBlock: ZUJKAS_clean_linker_0, # of connection points: 2
#     Edge 55, Type (0, 0), BuildingBlock: ZUJKAS_clean_linker_0, # of connection points: 2
#     Edge 56, Type (0, 0), BuildingBlock: ZUJKAS_clean_linker_0, # of connection points: 2
#     Edge 57, Type (0, 0), BuildingBlock: ZUJKAS_clean_linker_0, # of connection points: 2
#     Edge 58, Type (0, 0), BuildingBlock: ZUJKAS_clean_linker_0, # of connection points: 2
#     Edge 59, Type (0, 0), BuildingBlock: ZUJKAS_clean_linker_0, # of connection points: 2
#     Edge 60, Type (0, 0), BuildingBlock: ZUJKAS_clean_linker_0, # of connection points: 2
#     Edge 61, Type (0, 0), BuildingBlock: ZUJKAS_clean_linker_0, # of connection points: 2
#     Edge 62, Type (0, 0), BuildingBlock: ZUJKAS_clean_linker_0, # of connection points: 2
#     Edge 63, Type (0, 0), BuildingBlock: ZUJKAS_clean_linker_0, # of connection points: 2
#     Edge 64, Type (0, 0), BuildingBlock: ZUJKAS_clean_linker_0, # of connection points: 2
#     Edge 65, Type (0, 0), BuildingBlock: ZUJKAS_clean_linker_0, # of connection points: 2
#     Edge 66, Type (0, 0), BuildingBlock: ZUJKAS_clean_linker_0, # of connection points: 2
#     Edge 67, Type (0, 0), BuildingBlock: ZUJKAS_clean_linker_0, # of connection points: 2
#     Edge 68, Type (0, 0), BuildingBlock: ZUJKAS_clean_linker_0, # of connection points: 2
#     Edge 69, Type (0, 0), BuildingBlock: ZUJKAS_clean_linker_0, # of connection points: 2
#     Edge 70, Type (0, 0), BuildingBlock: ZUJKAS_clean_linker_0, # of connection points: 2
#     Edge 71, Type (0, 0), BuildingBlock: ZUJKAS_clean_linker_0, # of connection points: 2
# Relax obj value: 0.398
# Max RMSD: 0.211
# Mean RMSD: 0.211
data_MOF--net-lcy-a--node1-NAHDIM_clean_sbu_0--edge1-ZUJKAS_clean_linker_0
_symmetry_space_group_name_H-M    P1
_symmetry_Int_Tables_number       1
_symmetry_cell_setting            triclinic
loop_
_symmetry_equiv_pos_as_xyz
'x, y, z'
_cell_length_a     72.299436
_cell_length_b     72.292386
_cell_length_c     72.322273
_cell_angle_alpha  90.00732
_cell_angle_beta   89.996018
_cell_angle_gamma 90.008678
loop_
_atom_site_label
_atom_site_type_symbol
_atom_site_fract_x
_atom_site_fract_y
_atom_site_fract_z
_atom_type_partial_charge
C0 C 0.15689 0.28546 0.40633 0.0
O1 O 0.1633 0.2802 0.39017 0.0
O2 O 0.19993 0.29374 0.39014 0.0
Zn3 Zn 0.18354 0.31355 0.40063 0.0
O4 O 0.19863 0.32734 0.41939 0.0
C5 C 0.16665 0.32741 0.36629 0.0
O6 O 0.15744 0.31176 0.36586 0.0
O7 O 0.16234 0.30075 0.41308 0.0
C8 C 0.21429 0.33327 0.41405 0.0
O9 O 0.21924 0.33065 0.39676 0.0
C10 C 0.20901 0.28334 0.40102 0.0
O11 O 0.20764 0.2859 0.41895 0.0
O12 O 0.17697 0.33097 0.38005 0.0
C13 C 0.96396 0.90236 0.64101 0.0
O14 O 0.97009 0.90974 0.62559 0.0
O15 O 0.9544 0.94818 0.62975 0.0
Zn16 Zn 0.93529 0.92894 0.63583 0.0
O17 O 0.91878 0.94052 0.65481 0.0
C18 C 0.92899 0.92457 0.59726 0.0
O19 O 0.94701 0.92689 0.59703 0.0
O20 O 0.94824 0.90725 0.64713 0.0
C21 C 0.90915 0.95443 0.6501 0.0
O22 O 0.90949 0.95992 0.63278 0.0
C23 C 0.96704 0.95267 0.64112 0.0
O24 O 0.9678 0.9444 0.65729 0.0
O25 O 0.92078 0.92345 0.61275 0.0
C26 C 0.33707 0.7181 0.8952 0.0
O27 O 0.33101 0.72365 0.87899 0.0
O28 O 0.29187 0.71372 0.88181 0.0
Zn29 Zn 0.30763 0.69266 0.89065 0.0
O30 O 0.29288 0.67902 0.9098 0.0
C31 C 0.31172 0.65907 0.86888 0.0
O32 O 0.30879 0.65068 0.88472 0.0
O33 O 0.33004 0.70372 0.90242 0.0
C34 C 0.30009 0.66969 0.92282 0.0
O35 O 0.31817 0.66813 0.92376 0.0
C36 C 0.28262 0.72351 0.8931 0.0
O37 O 0.28331 0.71969 0.91084 0.0
O38 O 0.31294 0.6766 0.86857 0.0
C39 C 0.52654 0.09097 0.1548 0.0
O40 O 0.51998 0.08465 0.13908 0.0
O41 O 0.53398 0.04768 0.13747 0.0
Zn42 Zn 0.55415 0.06411 0.14716 0.0
O43 O 0.56907 0.04926 0.16518 0.0
C44 C 0.56296 0.07405 0.10999 0.0
O45 O 0.54493 0.07603 0.10901 0.0
O46 O 0.5422 0.08531 0.16038 0.0
C47 C 0.57527 0.03372 0.15982 0.0
O48 O 0.57202 0.02836 0.14276 0.0
C49 C 0.52372 0.03815 0.14808 0.0
O50 O 0.52638 0.03886 0.16603 0.0
O51 O 0.5703 0.07081 0.12562 0.0
C52 C 0.65519 0.20995 0.59646 0.0
O53 O 0.66306 0.21667 0.61138 0.0
O54 O 0.70079 0.2028 0.60685 0.0
Zn55 Zn 0.68267 0.18238 0.60176 0.0
O56 O 0.69471 0.16609 0.58286 0.0
C57 C 0.67769 0.17702 0.64058 0.0
O58 O 0.67751 0.19518 0.64024 0.0
O59 O 0.66016 0.19414 0.59062 0.0
C60 C 0.7095 0.15768 0.58723 0.0
O61 O 0.71568 0.15899 0.60427 0.0
C62 C 0.70636 0.2128 0.59352 0.0
O63 O 0.70018 0.20946 0.57677 0.0
O64 O 0.67848 0.16824 0.62537 0.0
C65 C 0.01914 0.40712 0.83664 0.0
O66 O 0.01406 0.41393 0.8527 0.0
O67 O 0.03173 0.4489 0.85434 0.0
Zn68 Zn 0.04968 0.43095 0.84312 0.0
O69 O 0.06487 0.44511 0.82474 0.0
C70 C 0.05971 0.41701 0.87893 0.0
O71 O 0.04178 0.41457 0.88044 0.0
O72 O 0.03494 0.41134 0.8302 0.0
C73 C 0.07261 0.45978 0.83056 0.0
O74 O 0.07073 0.46436 0.84805 0.0
C75 C 0.02163 0.45906 0.84418 0.0
O76 O 0.02311 0.45781 0.82611 0.0
O77 O 0.06631 0.42213 0.86348 0.0
C78 C 0.84311 0.7814 0.10116 0.0
O79 O 0.83795 0.77556 0.11758 0.0
O80 O 0.79819 0.78399 0.11588 0.0
Zn81 Zn 0.81318 0.80571 0.10742 0.0
O82 O 0.79703 0.81955 0.08958 0.0
C83 C 0.81741 0.83868 0.12965 0.0
O84 O 0.81465 0.84718 0.11384 0.0
O85 O 0.83539 0.79567 0.09444 0.0
C86 C 0.8025 0.82691 0.07461 0.0
O87 O 0.82013 0.82627 0.07025 0.0
C88 C 0.78187 0.78695 0.12163 0.0
O89 O 0.77565 0.80402 0.12211 0.0
O90 O 0.81869 0.82115 0.12981 0.0
C91 C 0.45775 0.57323 0.33164 0.0
O92 O 0.45421 0.55565 0.3287 0.0
O93 O 0.46293 0.54525 0.37191 0.0
Zn94 Zn 0.4418 0.56183 0.3644 0.0
O95 O 0.42263 0.54633 0.3514 0.0
C96 C 0.41386 0.57619 0.38925 0.0
O97 O 0.40352 0.57635 0.37432 0.0
O98 O 0.45274 0.58044 0.34688 0.0
C99 C 0.41233 0.55213 0.33841 0.0
O100 O 0.41336 0.56955 0.3333 0.0
C101 C 0.46559 0.52944 0.36468 0.0
O102 O 0.45391 0.52325 0.35223 0.0
O103 O 0.43091 0.57219 0.38776 0.0
C104 C 0.397 0.15625 0.28802 0.0
O105 O 0.38097 0.1619 0.28161 0.0
O106 O 0.38426 0.20294 0.29198 0.0
Zn107 Zn 0.39124 0.18624 0.31309 0.0
O108 O 0.40962 0.20026 0.32843 0.0
C109 C 0.35287 0.18011 0.31969 0.0
O110 O 0.35276 0.17981 0.30153 0.0
O111 O 0.40341 0.16365 0.3026 0.0
C112 C 0.40566 0.21685 0.33269 0.0
O113 O 0.38957 0.22362 0.32763 0.0
C114 C 0.39454 0.2056 0.27796 0.0
O115 O 0.41051 0.19699 0.27684 0.0
O116 O 0.36827 0.1814 0.32806 0.0
C117 C 0.08755 0.14869 0.52969 0.0
O118 O 0.08101 0.13312 0.52297 0.0
O119 O 0.04178 0.13687 0.53069 0.0
Zn120 Zn 0.0562 0.14501 0.55299 0.0
O121 O 0.04171 0.16519 0.56544 0.0
C122 C 0.0425 0.11751 0.57517 0.0
O123 O 0.02783 0.12678 0.56977 0.0
O124 O 0.08014 0.1555 0.54408 0.0
C125 C 0.04214 0.16817 0.58274 0.0
O126 O 0.05283 0.15794 0.59328 0.0
C127 C 0.03324 0.14832 0.52046 0.0
O128 O 0.03381 0.16603 0.52449 0.0
O129 O 0.05834 0.12297 0.56983 0.0
C130 C 0.09446 0.84329 0.77625 0.0
O131 O 0.1102 0.8364 0.77036 0.0
O132 O 0.10872 0.79922 0.78508 0.0
Zn133 Zn 0.10077 0.81708 0.80484 0.0
O134 O 0.08219 0.80383 0.82081 0.0
C135 C 0.13884 0.82545 0.81152 0.0
O136 O 0.13926 0.82509 0.79337 0.0
O137 O 0.08828 0.83821 0.79189 0.0
C138 C 0.08641 0.79692 0.83641 0.0
O139 O 0.10325 0.79917 0.84286 0.0
C140 C 0.11371 0.78288 0.78912 0.0
O141 O 0.11359 0.77761 0.8065 0.0
O142 O 0.12336 0.82388 0.81968 0.0
C143 C 0.41163 0.84995 0.02109 0.0
O144 O 0.41822 0.86562 0.01468 0.0
O145 O 0.45699 0.86434 0.02887 0.0
Zn146 Zn 0.43927 0.85606 0.04865 0.0
O147 O 0.45273 0.83746 0.06418 0.0
C148 C 0.43055 0.89378 0.05693 0.0
O149 O 0.43031 0.89493 0.03881 0.0
O150 O 0.41762 0.84381 0.03642 0.0
C151 C 0.46863 0.84195 0.07016 0.0
O152 O 0.47508 0.85853 0.06641 0.0
C153 C 0.46182 0.85356 0.01586 0.0
O154 O 0.45493 0.83675 0.01523 0.0
O155 O 0.43287 0.87804 0.0644 0.0
C156 C 0.88526 0.33884 0.71007 0.0
O157 O 0.86921 0.33238 0.71564 0.0
O158 O 0.87826 0.2905 0.70776 0.0
Zn159 Zn 0.88316 0.30756 0.68633 0.0
O160 O 0.9023 0.29552 0.67023 0.0
C161 C 0.85866 0.31306 0.65508 0.0
O162 O 0.87411 0.31487 0.64569 0.0
O163 O 0.89317 0.33122 0.69637 0.0
C164 C 0.90121 0.27819 0.66755 0.0
O165 O 0.88734 0.26899 0.67484 0.0
C166 C 0.88831 0.28995 0.72218 0.0
O167 O 0.90262 0.30107 0.72355 0.0
O168 O 0.85941 0.31075 0.67247 0.0
C169 C 0.91331 0.65043 0.97223 0.0
O170 O 0.91997 0.63475 0.97854 0.0
O171 O 0.95948 0.63746 0.96506 0.0
Zn172 Zn 0.9418 0.6455 0.94514 0.0
O173 O 0.95475 0.66488 0.93009 0.0
C174 C 0.93447 0.60766 0.93664 0.0
O175 O 0.93427 0.60655 0.95476 0.0
O176 O 0.91959 0.65691 0.95716 0.0
C177 C 0.97106 0.66158 0.92447 0.0
O178 O 0.97855 0.64543 0.92816 0.0
C179 C 0.9632 0.64743 0.97906 0.0
O180 O 0.9552 0.66365 0.98083 0.0
O181 O 0.93629 0.62345 0.92912 0.0
C182 C 0.59216 0.65845 0.2146 0.0
O183 O 0.6066 0.66582 0.22279 0.0
O184 O 0.60854 0.70251 0.2085 0.0
Zn185 Zn 0.60081 0.68583 0.18767 0.0
O186 O 0.58315 0.70017 0.17182 0.0
C187 C 0.63796 0.67321 0.18023 0.0
O188 O 0.63728 0.6677 0.19752 0.0
O189 O 0.58775 0.66393 0.1985 0.0
C190 C 0.58816 0.71615 0.16649 0.0
O191 O 0.60466 0.7222 0.17112 0.0
C192 C 0.59655 0.70985 0.21903 0.0
O193 O 0.57893 0.70643 0.21616 0.0
O194 O 0.62349 0.6799 0.17285 0.0
C195 C 0.59354 0.34411 0.46661 0.0
O196 O 0.58724 0.35965 0.47359 0.0
O197 O 0.55014 0.36146 0.4597 0.0
Zn198 Zn 0.56658 0.35247 0.4392 0.0
O199 O 0.55166 0.33466 0.42404 0.0
C200 C 0.57855 0.38945 0.43103 0.0
O201 O 0.58195 0.38969 0.44886 0.0
O202 O 0.58781 0.33892 0.45083 0.0
C203 C 0.53589 0.3399 0.41833 0.0
O204 O 0.53038 0.35683 0.42199 0.0
C205 C 0.54227 0.34994 0.47039 0.0
O206 O 0.54493 0.33216 0.46776 0.0
O207 O 0.57336 0.37441 0.42358 0.0
C208 C 0.28158 0.39437 0.1694 0.0
O209 O 0.27503 0.37882 0.17618 0.0
O210 O 0.28231 0.38637 0.21788 0.0
Zn211 Zn 0.30405 0.39345 0.20209 0.0
O212 O 0.31709 0.41422 0.21489 0.0
C213 C 0.32327 0.36019 0.18748 0.0
O214 O 0.31396 0.3624 0.17204 0.0
O215 O 0.29491 0.40234 0.1776 0.0
C216 C 0.32316 0.41134 0.23112 0.0
O217 O 0.32098 0.3949 0.23855 0.0
C218 C 0.26717 0.39532 0.2179 0.0
O219 O 0.26531 0.40977 0.20705 0.0
O220 O 0.32115 0.37165 0.20064 0.0
C221 C 0.78994 0.097 0.83797 0.0
O222 O 0.78277 0.11219 0.83105 0.0
O223 O 0.79382 0.11095 0.79267 0.0
Zn224 Zn 0.81506 0.10163 0.80788 0.0
O225 O 0.82748 0.08159 0.79333 0.0
C226 C 0.8305 0.13616 0.82264 0.0
O227 O 0.81646 0.13597 0.83416 0.0
O228 O 0.8048 0.09064 0.83108 0.0
C229 C 0.83597 0.0857 0.77852 0.0
O230 O 0.83697 0.10313 0.77345 0.0
C231 C 0.78282 0.09968 0.78487 0.0
O232 O 0.78554 0.08182 0.78683 0.0
O233 O 0.83274 0.1227 0.81158 0.0
C234 C 0.17046 0.51728 0.06257 0.0
O235 O 0.17287 0.51778 0.04458 0.0
O236 O 0.13664 0.52722 0.03202 0.0
Zn237 Zn 0.14822 0.54487 0.05024 0.0
O238 O 0.16868 0.55904 0.03781 0.0
C239 C 0.12324 0.57313 0.04557 0.0
O240 O 0.13209 0.57222 0.02972 0.0
O241 O 0.15969 0.52905 0.07001 0.0
C242 C 0.17456 0.57459 0.04347 0.0
O243 O 0.16713 0.58211 0.05824 0.0
C244 C 0.14262 0.52491 0.01565 0.0
O245 O 0.15653 0.53499 0.00974 0.0
O246 O 0.12809 0.56227 0.05853 0.0
C247 C 0.71506 0.89748 0.33785 0.0
O248 O 0.72116 0.88171 0.33119 0.0
O249 O 0.70746 0.88504 0.29213 0.0
Zn250 Zn 0.68755 0.89167 0.31037 0.0
O251 O 0.67113 0.90998 0.29758 0.0
C252 C 0.68066 0.85313 0.31611 0.0
O253 O 0.69865 0.85231 0.31368 0.0
O254 O 0.69973 0.9038 0.33206 0.0
C255 C 0.66545 0.90566 0.28153 0.0
O256 O 0.66987 0.88939 0.27472 0.0
C257 C 0.71923 0.89711 0.28716 0.0
O258 O 0.71837 0.9138 0.29432 0.0
O259 O 0.67284 0.86887 0.31647 0.0
C260 C 0.33282 0.449 0.59086 0.0
O261 O 0.32508 0.43433 0.58345 0.0
O262 O 0.36687 0.46292 0.54577 0.0
Zn263 Zn 0.36054 0.44224 0.56324 0.0
O264 O 0.34236 0.42599 0.54998 0.0
C265 C 0.39912 0.43591 0.56858 0.0
O266 O 0.39951 0.45402 0.56713 0.0
O267 O 0.34886 0.45382 0.58554 0.0
C268 C 0.34612 0.42086 0.53361 0.0
O269 O 0.36199 0.4258 0.52625 0.0
C270 C 0.35611 0.47667 0.5437 0.0
O271 O 0.34068 0.4774 0.55327 0.0
O272 O 0.38358 0.42771 0.56859 0.0
C273 C 0.2175 0.59427 0.65762 0.0
O274 O 0.22544 0.60876 0.66517 0.0
O275 O 0.20953 0.60903 0.70247 0.0
Zn276 Zn 0.18955 0.60257 0.68427 0.0
O277 O 0.1727 0.58464 0.69703 0.0
C278 C 0.18382 0.64089 0.6758 0.0
O279 O 0.20187 0.64063 0.67373 0.0
O280 O 0.20117 0.58998 0.66251 0.0
C281 C 0.16733 0.58865 0.71327 0.0
O282 O 0.17247 0.60448 0.72058 0.0
C283 C 0.22059 0.59682 0.70857 0.0
O284 O 0.21917 0.57974 0.70251 0.0
O285 O 0.17538 0.62575 0.6787 0.0
C286 C 0.67209 0.96782 0.92998 0.0
O287 O 0.67398 0.96574 0.94791 0.0
O288 O 0.63627 0.95723 0.95856 0.0
Zn289 Zn 0.64781 0.94056 0.9393 0.0
O290 O 0.66687 0.9241 0.95094 0.0
C291 C 0.61188 0.93274 0.92537 0.0
O292 O 0.61062 0.95084 0.92654 0.0
O293 O 0.66088 0.95735 0.92136 0.0
C294 C 0.6627 0.91137 0.96228 0.0
O295 O 0.64523 0.90849 0.96638 0.0
C296 C 0.64217 0.95927 0.97499 0.0
O297 O 0.65638 0.9495 0.98067 0.0
O298 O 0.6274 0.92514 0.92853 0.0
C299 C 0.84615 0.02932 0.40277 0.0
O300 O 0.86145 0.02295 0.41019 0.0
O301 O 0.86044 0.038 0.44687 0.0
Zn302 Zn 0.85212 0.05783 0.4293 0.0
O303 O 0.83288 0.07268 0.44262 0.0
C304 C 0.88957 0.06645 0.41976 0.0
O305 O 0.89045 0.04839 0.41796 0.0
O306 O 0.84025 0.04515 0.40767 0.0
C307 C 0.83751 0.08213 0.45669 0.0
O308 O 0.85501 0.08269 0.46157 0.0
C309 C 0.84844 0.02763 0.45444 0.0
O310 O 0.83084 0.03035 0.45082 0.0
O311 O 0.87403 0.07388 0.42326 0.0
H312 H 0.10116 0.18295 0.5381 0.0
H313 H 0.11461 0.20514 0.51649 0.0
H314 H 0.1146 0.16367 0.47364 0.0
H315 H 0.10093 0.14137 0.49507 0.0
H316 H 0.14647 0.20557 0.49292 0.0
H317 H 0.0801 0.20507 0.45398 0.0
H318 H 0.08236 0.19508 0.47673 0.0
H319 H 0.09101 0.18292 0.45687 0.0
C320 C 0.10437 0.17839 0.52419 0.0
C321 C 0.09965 0.16049 0.5182 0.0
C322 C 0.11204 0.19111 0.51187 0.0
C323 C 0.11512 0.18612 0.4934 0.0
C324 C 0.11192 0.16784 0.48777 0.0
H325 H 0.14594 0.25047 0.39727 0.0
H326 H 0.13512 0.22642 0.4184 0.0
C327 C 0.10423 0.15509 0.50008 0.0
C328 C 0.12026 0.20046 0.4798 0.0
H329 H 0.10394 0.22406 0.44231 0.0
C330 C 0.13722 0.20961 0.48183 0.0
C331 C 0.10804 0.20572 0.46544 0.0
C332 C 0.08928 0.19683 0.46313 0.0
C333 C 0.14242 0.22382 0.4697 0.0
C334 C 0.13014 0.22918 0.45544 0.0
C335 C 0.11324 0.21992 0.45332 0.0
C336 C 0.13475 0.24422 0.44243 0.0
C337 C 0.16112 0.2328 0.47205 0.0
C338 C 0.13727 0.26235 0.44885 0.0
C339 C 0.1434 0.27616 0.43682 0.0
C340 C 0.14707 0.27201 0.41817 0.0
C341 C 0.14335 0.25409 0.41157 0.0
C342 C 0.13722 0.24031 0.42361 0.0
H343 H 0.17051 0.22426 0.48071 0.0
H344 H 0.1678 0.2352 0.45843 0.0
H345 H 0.15936 0.2464 0.47894 0.0
H346 H 0.13501 0.26569 0.46327 0.0
H347 H 0.14601 0.28985 0.44232 0.0
H348 H 0.95687 0.88854 0.67547 0.0
H349 H 0.97963 0.87822 0.69821 0.0
H350 H 0.02301 0.88396 0.65772 0.0
H351 H 0.00037 0.89424 0.63479 0.0
H352 H 0.02507 0.85135 0.68157 0.0
H353 H 0.01624 0.91745 0.71993 0.0
H354 H 0.99532 0.90481 0.71536 0.0
H355 H 0.0083 0.91435 0.69646 0.0
C356 C 0.97119 0.88727 0.67126 0.0
C357 C 0.97686 0.89246 0.65339 0.0
C358 C 0.98417 0.88149 0.68431 0.0
C359 C 0.00298 0.88079 0.67969 0.0
C360 C 0.00853 0.88462 0.66153 0.0
H361 H 0.10284 0.85503 0.74136 0.0
H362 H 0.08112 0.86575 0.7178 0.0
C363 C 0.99556 0.89043 0.64845 0.0
C364 C 0.01696 0.87709 0.69408 0.0
H365 H 0.03563 0.89491 0.73361 0.0
C366 C 0.02747 0.86087 0.69292 0.0
C367 C 0.02 0.88964 0.70878 0.0
C368 C 0.0095 0.90763 0.71022 0.0
C369 C 0.04073 0.85659 0.70641 0.0
C370 C 0.04374 0.86912 0.72116 0.0
C371 C 0.03328 0.8854 0.72224 0.0
C372 C 0.05731 0.86519 0.73591 0.0
C373 C 0.05102 0.83848 0.70505 0.0
C374 C 0.05126 0.86247 0.75413 0.0
C375 C 0.06366 0.85653 0.76769 0.0
C376 C 0.08229 0.85321 0.76319 0.0
C377 C 0.08854 0.85726 0.74522 0.0
C378 C 0.07614 0.86325 0.7317 0.0
H379 H 0.04406 0.82864 0.69551 0.0
H380 H 0.06516 0.8411 0.69967 0.0
H381 H 0.05232 0.83186 0.71884 0.0
H382 H 0.03679 0.8641 0.75765 0.0
H383 H 0.05842 0.85362 0.78142 0.0
H384 H 0.35025 0.75233 0.88606 0.0
H385 H 0.36429 0.77493 0.90692 0.0
H386 H 0.36336 0.73488 0.9511 0.0
H387 H 0.34955 0.71213 0.93035 0.0
H388 H 0.3462 0.78706 0.93894 0.0
H389 H 0.41504 0.7575 0.95561 0.0
H390 H 0.40168 0.75015 0.93582 0.0
H391 H 0.39623 0.74154 0.9585 0.0
C392 C 0.35345 0.74816 0.90008 0.0
C393 C 0.34868 0.73046 0.90658 0.0
C394 C 0.36141 0.76112 0.91199 0.0
C395 C 0.36489 0.75653 0.9305 0.0
C396 C 0.36104 0.73859 0.93678 0.0
H397 H 0.39853 0.81531 0.02876 0.0
H398 H 0.38536 0.79322 0.00683 0.0
C399 C 0.35308 0.72563 0.9249 0.0
C400 C 0.37082 0.77096 0.9437 0.0
H401 H 0.40446 0.78209 0.9748 0.0
C402 C 0.35902 0.78609 0.94668 0.0
C403 C 0.38746 0.76951 0.95384 0.0
C404 C 0.40093 0.75389 0.9507 0.0
C405 C 0.36325 0.79969 0.95985 0.0
C406 C 0.37983 0.79817 0.97006 0.0
C407 C 0.39168 0.7831 0.967 0.0
C408 C 0.38544 0.81226 0.98375 0.0
C409 C 0.34977 0.8153 0.96303 0.0
C410 C 0.3894 0.83038 0.9781 0.0
C411 C 0.39686 0.84307 0.9906 0.0
C412 C 0.40064 0.83776 0.00892 0.0
C413 C 0.39581 0.81984 0.01475 0.0
C414 C 0.38835 0.80717 0.00223 0.0
H415 H 0.33577 0.81192 0.95765 0.0
H416 H 0.34865 0.81863 0.97797 0.0
H417 H 0.35476 0.82783 0.95572 0.0
H418 H 0.3875 0.83448 0.96382 0.0
H419 H 0.40047 0.85674 0.98565 0.0
H420 H 0.53421 0.10251 0.19 0.0
H421 H 0.51198 0.11339 0.21304 0.0
H422 H 0.46876 0.11262 0.17198 0.0
H423 H 0.49079 0.10161 0.14885 0.0
H424 H 0.487 0.14442 0.21395 0.0
H425 H 0.45081 0.07655 0.21301 0.0
H426 H 0.4735 0.07984 0.20312 0.0
H427 H 0.45331 0.08755 0.19087 0.0
C428 C 0.52005 0.10496 0.18577 0.0
C429 C 0.5142 0.10094 0.16766 0.0
C430 C 0.50738 0.11113 0.19897 0.0
C431 C 0.48871 0.11333 0.19426 0.0
C432 C 0.48307 0.11058 0.17592 0.0
H433 H 0.38987 0.14302 0.25336 0.0
H434 H 0.41246 0.13104 0.23127 0.0
C435 C 0.49571 0.10442 0.16271 0.0
C436 C 0.47499 0.1177 0.20871 0.0
H437 H 0.43734 0.10022 0.23122 0.0
C438 C 0.47618 0.13476 0.21781 0.0
C439 C 0.46098 0.10497 0.21368 0.0
C440 C 0.45959 0.08612 0.2048 0.0
C441 C 0.46339 0.13966 0.23153 0.0
C442 C 0.44934 0.12695 0.23647 0.0
C443 C 0.4482 0.10985 0.22741 0.0
C444 C 0.43532 0.13154 0.25057 0.0
C445 C 0.46472 0.15857 0.2403 0.0
C446 C 0.44056 0.13485 0.26893 0.0
C447 C 0.42771 0.14169 0.2816 0.0
C448 C 0.4094 0.14526 0.27607 0.0
C449 C 0.40389 0.14053 0.25803 0.0
C450 C 0.41677 0.13372 0.24537 0.0
H451 H 0.47362 0.16807 0.23213 0.0
H452 H 0.4508 0.1649 0.24176 0.0
H453 H 0.47081 0.15722 0.25431 0.0
H454 H 0.45477 0.13285 0.27325 0.0
H455 H 0.43236 0.14503 0.29544 0.0
H456 H 0.64437 0.2454 0.60355 0.0
H457 H 0.63268 0.26786 0.5812 0.0
H458 H 0.63091 0.22543 0.53931 0.0
H459 H 0.64237 0.2028 0.56158 0.0
H460 H 0.65283 0.27627 0.54926 0.0
H461 H 0.58182 0.25272 0.53186 0.0
H462 H 0.5938 0.24521 0.55244 0.0
H463 H 0.59918 0.23501 0.53043 0.0
C464 C 0.64103 0.24071 0.58972 0.0
C465 C 0.64444 0.22235 0.5843 0.0
C466 C 0.63441 0.25359 0.57696 0.0
C467 C 0.63094 0.24828 0.55864 0.0
C468 C 0.63326 0.22974 0.55346 0.0
H469 H 0.60369 0.30852 0.45865 0.0
H470 H 0.61493 0.28528 0.48049 0.0
C471 C 0.63986 0.21683 0.56622 0.0
C472 C 0.62683 0.26249 0.54455 0.0
H473 H 0.5949 0.27586 0.51254 0.0
C474 C 0.64012 0.27627 0.54129 0.0
C475 C 0.61033 0.26228 0.53409 0.0
C476 C 0.59537 0.24811 0.53745 0.0
C477 C 0.63742 0.28982 0.5277 0.0
C478 C 0.62088 0.28967 0.51731 0.0
C479 C 0.60763 0.27583 0.52049 0.0
C480 C 0.61661 0.30419 0.50361 0.0
C481 C 0.65237 0.30399 0.52438 0.0
C482 C 0.6143 0.32258 0.50932 0.0
C483 C 0.60794 0.3359 0.4969 0.0
C484 C 0.60363 0.331 0.47858 0.0
C485 C 0.60688 0.31275 0.47266 0.0
C486 C 0.61323 0.29943 0.48512 0.0
H487 H 0.66598 0.29927 0.52975 0.0
H488 H 0.65378 0.30712 0.50942 0.0
H489 H 0.64869 0.317 0.53165 0.0
H490 H 0.61659 0.32646 0.52361 0.0
H491 H 0.60557 0.34982 0.50191 0.0
H492 H 0.91941 0.35342 0.7033 0.0
H493 H 0.94031 0.36712 0.72597 0.0
H494 H 0.89713 0.36549 0.76706 0.0
H495 H 0.8761 0.35149 0.74454 0.0
H496 H 0.9393 0.39845 0.74958 0.0
H497 H 0.93823 0.33189 0.78825 0.0
H498 H 0.92896 0.33413 0.76519 0.0
H499 H 0.91609 0.34261 0.78467 0.0
C500 C 0.9142 0.35631 0.71705 0.0
C501 C 0.8962 0.35106 0.72223 0.0
C502 C 0.92618 0.36414 0.72997 0.0
C503 C 0.92035 0.36684 0.74825 0.0
C504 C 0.90194 0.36311 0.75308 0.0
H505 H 0.98367 0.39771 0.84554 0.0
H506 H 0.95937 0.38749 0.82436 0.0
C507 C 0.88993 0.35525 0.74015 0.0
C508 C 0.93403 0.37213 0.76245 0.0
H509 H 0.95692 0.35571 0.80033 0.0
C510 C 0.94312 0.38917 0.76074 0.0
C511 C 0.939 0.35987 0.77688 0.0
C512 C 0.93021 0.34103 0.77886 0.0
C513 C 0.95708 0.39433 0.77315 0.0
C514 C 0.96222 0.38197 0.7874 0.0
C515 C 0.95293 0.36507 0.78932 0.0
C516 C 0.97727 0.38639 0.80044 0.0
C517 C 0.96616 0.41301 0.77101 0.0
C518 C 0.99548 0.38835 0.79406 0.0
C519 C 0.00942 0.3941 0.80611 0.0
C520 C 0.00532 0.39797 0.82472 0.0
C521 C 0.98725 0.39494 0.83126 0.0
C522 C 0.97334 0.38915 0.8192 0.0
H523 H 0.9578 0.42246 0.76223 0.0
H524 H 0.96835 0.41963 0.78469 0.0
H525 H 0.97988 0.41122 0.76436 0.0
H526 H -0.0012 0.38589 0.77966 0.0
H527 H 0.02321 0.39621 0.80066 0.0
H528 H 0.85732 0.74734 0.10926 0.0
H529 H 0.87025 0.72503 0.08739 0.0
H530 H 0.86626 0.76539 0.04367 0.0
H531 H 0.85352 0.78786 0.06541 0.0
H532 H 0.85006 0.71316 0.05627 0.0
H533 H 0.91784 0.74305 0.036 0.0
H534 H 0.9057 0.75005 0.05668 0.0
H535 H 0.89879 0.75892 0.03451 0.0
C536 C 0.85963 0.75164 0.0951 0.0
C537 C 0.85427 0.76933 0.08904 0.0
C538 C 0.86694 0.73885 0.08262 0.0
C539 C 0.86921 0.7436 0.06397 0.0
C540 C 0.86485 0.76155 0.05808 0.0
H541 H 0.89942 0.68474 0.9645 0.0
H542 H 0.88652 0.70683 0.98657 0.0
C543 C 0.85752 0.77436 0.07053 0.0
C544 C 0.8744 0.72931 0.05033 0.0
H545 H 0.90648 0.71828 0.01761 0.0
C546 C 0.86246 0.71418 0.04789 0.0
C547 C 0.89048 0.73083 0.03935 0.0
C548 C 0.90404 0.74649 0.04183 0.0
C549 C 0.86606 0.7006 0.03451 0.0
C550 C 0.88214 0.70213 0.02353 0.0
C551 C 0.89409 0.71725 0.026 0.0
C552 C 0.88725 0.68794 0.00975 0.0
C553 C 0.85245 0.68498 0.03199 0.0
C554 C 0.89143 0.66986 0.01541 0.0
C555 C 0.89873 0.65717 0.00283 0.0
C556 C 0.90215 0.66243 0.98443 0.0
C557 C 0.897 0.68025 0.97859 0.0
C558 C 0.88968 0.69292 0.99118 0.0
H559 H 0.83865 0.68847 0.03779 0.0
H560 H 0.85081 0.68145 0.01713 0.0
H561 H 0.85765 0.67253 0.0393 0.0
H562 H 0.8899 0.66584 0.02976 0.0
H563 H 0.90259 0.64357 0.00779 0.0
H564 H 0.55907 0.64404 0.20322 0.0
H565 H 0.5357 0.62901 0.22249 0.0
H566 H 0.57234 0.63193 0.26945 0.0
H567 H 0.59589 0.64677 0.2503 0.0
H568 H 0.55315 0.59804 0.26603 0.0
H569 H 0.50635 0.65886 0.26155 0.0
H570 H 0.51355 0.64955 0.23965 0.0
H571 H 0.53038 0.65981 0.25479 0.0
C572 C 0.56228 0.64124 0.21758 0.0
C573 C 0.57926 0.64678 0.22529 0.0
C574 C 0.54886 0.6328 0.22858 0.0
C575 C 0.55219 0.6298 0.24744 0.0
C576 C 0.56949 0.63431 0.25493 0.0
H577 H 0.47415 0.60718 0.336 0.0
H578 H 0.49675 0.62164 0.31522 0.0
C579 C 0.58292 0.64276 0.24396 0.0
C580 C 0.53747 0.62249 0.25953 0.0
H581 H 0.49458 0.63226 0.27672 0.0
C582 C 0.54034 0.60549 0.26838 0.0
C583 C 0.52095 0.63248 0.26279 0.0
C584 C 0.51761 0.65127 0.25435 0.0
C585 C 0.52692 0.59799 0.28018 0.0
C586 C 0.51015 0.60767 0.28293 0.0
C587 C 0.50741 0.62484 0.27439 0.0
C588 C 0.49526 0.60001 0.29459 0.0
C589 C 0.53089 0.57988 0.28977 0.0
C590 C 0.48653 0.58351 0.28945 0.0
C591 C 0.47369 0.57526 0.30121 0.0
C592 C 0.4693 0.58345 0.31829 0.0
C593 C 0.4773 0.60054 0.32295 0.0
C594 C 0.49021 0.60878 0.31114 0.0
H595 H 0.5459 0.57659 0.28978 0.0
H596 H 0.5259 0.58016 0.30429 0.0
H597 H 0.52355 0.56856 0.28244 0.0
H598 H 0.49 0.57676 0.27653 0.0
H599 H 0.46761 0.5622 0.29711 0.0
H600 H 0.25069 0.383 0.15069 0.0
H601 H 0.23136 0.40164 0.1301 0.0
H602 H 0.26946 0.44725 0.13551 0.0
H603 H 0.28904 0.42867 0.15562 0.0
H604 H 0.21404 0.43347 0.13976 0.0
H605 H 0.26067 0.44666 0.08055 0.0
H606 H 0.26535 0.42901 0.09756 0.0
H607 H 0.27117 0.4528 0.10215 0.0
C608 C 0.25517 0.39685 0.14715 0.0
C609 C 0.27139 0.40436 0.1548 0.0
C610 C 0.24407 0.40749 0.13545 0.0
C611 C 0.24906 0.42576 0.13117 0.0
C612 C 0.26555 0.43306 0.13831 0.0
H613 H 0.17769 0.51704 0.09984 0.0
H614 H 0.19584 0.49395 0.11687 0.0
C615 C 0.27669 0.42242 0.14989 0.0
C616 C 0.23639 0.43774 0.1205 0.0
H617 H 0.23464 0.46696 0.08359 0.0
C618 C 0.21844 0.44063 0.12734 0.0
C619 C 0.24213 0.44695 0.10425 0.0
C620 C 0.26082 0.44355 0.09559 0.0
C621 C 0.20619 0.45286 0.11857 0.0
C622 C 0.21227 0.46275 0.10285 0.0
C623 C 0.23007 0.45953 0.09579 0.0
C624 C 0.20034 0.47624 0.09312 0.0
C625 C 0.18683 0.45487 0.12612 0.0
C626 C 0.1971 0.47406 0.07415 0.0
C627 C 0.18713 0.48733 0.06441 0.0
C628 C 0.18007 0.50301 0.07346 0.0
C629 C 0.18289 0.50502 0.09257 0.0
C630 C 0.19314 0.49179 0.10231 0.0
H631 H 0.18276 0.44268 0.13455 0.0
H632 H 0.18621 0.46725 0.13517 0.0
H633 H 0.17661 0.45665 0.1148 0.0
H634 H 0.20251 0.46217 0.0668 0.0
H635 H 0.18505 0.48532 0.04971 0.0
H636 H 0.68781 0.99792 0.94569 0.0
H637 H 0.70676 0.02149 0.93091 0.0
H638 H 0.70022 0.99396 0.87836 0.0
H639 H 0.68055 0.97052 0.89306 0.0
H640 H 0.73907 0.01699 0.91464 0.0
H641 H 0.68947 0.04675 0.86433 0.0
H642 H 0.68232 0.03148 0.88272 0.0
H643 H 0.69226 0.02222 0.86186 0.0
C644 C 0.69026 0.99694 0.93094 0.0
C645 C 0.68275 0.98237 0.9205 0.0
C646 C 0.70109 0.01045 0.92252 0.0
C647 C 0.70478 0.0096 0.90352 0.0
C648 C 0.6972 0.99512 0.89298 0.0
H649 H 0.79693 0.06152 0.84877 0.0
H650 H 0.77648 0.0411 0.86608 0.0
C651 C 0.68607 0.98169 0.90138 0.0
C652 C 0.71742 0.02336 0.89516 0.0
H653 H 0.72105 0.05558 0.86091 0.0
C654 C 0.73508 0.02552 0.90296 0.0
C655 C 0.7121 0.03466 0.88012 0.0
C656 C 0.69294 0.03383 0.87188 0.0
C657 C 0.74767 0.03849 0.89598 0.0
C658 C 0.74266 0.0492 0.88042 0.0
C659 C 0.7249 0.04727 0.87279 0.0
C660 C 0.75578 0.06207 0.87143 0.0
C661 C 0.76609 0.04076 0.90554 0.0
C662 C 0.75091 0.08065 0.86862 0.0
C663 C 0.76249 0.09234 0.85849 0.0
C664 C 0.77912 0.08561 0.85101 0.0
C665 C 0.78429 0.06719 0.85448 0.0
C666 C 0.77264 0.05549 0.86444 0.0
H667 H 0.76537 0.03631 0.92023 0.0
H668 H 0.77653 0.03196 0.89853 0.0
H669 H 0.77091 0.05533 0.90507 0.0
H670 H 0.73794 0.08598 0.8739 0.0
H671 H 0.75812 0.10646 0.85605 0.0
H672 H 0.7504 0.89005 0.349 0.0
H673 H 0.77292 0.91213 0.36119 0.0
H674 H 0.73105 0.95461 0.36194 0.0
H675 H 0.70839 0.93264 0.35005 0.0
H676 H 0.78284 0.94391 0.34203 0.0
H677 H 0.75635 0.9615 0.41184 0.0
H678 H 0.74885 0.94122 0.39934 0.0
H679 H 0.7393 0.96353 0.39391 0.0
C680 C 0.74585 0.90397 0.3522 0.0
C681 C 0.72762 0.90962 0.34846 0.0
C682 C 0.75876 0.91657 0.35909 0.0
C683 C 0.75362 0.93496 0.36251 0.0
C684 C 0.73522 0.9404 0.35968 0.0
H685 H 0.81104 0.03603 0.39035 0.0
H686 H 0.789 0.01325 0.37857 0.0
C687 C 0.7223 0.92782 0.35281 0.0
C688 C 0.76782 0.94887 0.36729 0.0
H689 H 0.77956 0.98134 0.39941 0.0
C690 C 0.78223 0.952 0.35464 0.0
C691 C 0.76687 0.95945 0.38368 0.0
C692 C 0.75211 0.95617 0.39806 0.0
C693 C 0.79558 0.96572 0.35782 0.0
C694 C 0.79454 0.97638 0.37415 0.0
C695 C 0.78018 0.9732 0.38682 0.0
C696 C 0.80851 0.99056 0.37872 0.0
C697 C 0.81044 0.96896 0.34353 0.0
C698 C 0.82686 0.98539 0.38223 0.0
C699 C 0.8395 0.99836 0.38892 0.0
C700 C 0.83394 0.01669 0.39234 0.0
C701 C 0.81578 0.02203 0.38787 0.0
C702 C 0.80314 0.00903 0.38121 0.0
H703 H 0.80664 0.96298 0.3299 0.0
H704 H 0.81317 0.98397 0.34177 0.0
H705 H 0.82344 0.96227 0.34818 0.0
H706 H 0.83119 0.97114 0.38063 0.0
H707 H 0.85338 0.99379 0.39225 0.0
H708 H 0.20639 0.56105 0.64333 0.0
H709 H 0.22629 0.53625 0.63189 0.0
H710 H 0.27389 0.5718 0.63711 0.0
H711 H 0.25417 0.59667 0.64877 0.0
H712 H 0.25214 0.53368 0.60222 0.0
H713 H 0.28549 0.52727 0.67118 0.0
H714 H 0.26439 0.54013 0.6676 0.0
H715 H 0.28627 0.55001 0.66118 0.0
C716 C 0.22104 0.56373 0.64175 0.0
C717 C 0.22875 0.58075 0.64722 0.0
C718 C 0.23238 0.54952 0.63524 0.0
C719 C 0.25156 0.5521 0.63413 0.0
C720 C 0.25914 0.56946 0.6383 0.0
H721 H 0.34354 0.48228 0.60528 0.0
H722 H 0.32337 0.50666 0.6171 0.0
C723 C 0.24782 0.58369 0.64481 0.0
C724 C 0.26369 0.53634 0.6295 0.0
H725 H 0.29757 0.50859 0.64716 0.0
C726 C 0.26204 0.52814 0.61202 0.0
C727 C 0.27649 0.52914 0.64244 0.0
C728 C 0.27822 0.53695 0.66172 0.0
C729 C 0.2732 0.5131 0.60695 0.0
C730 C 0.28603 0.50594 0.61987 0.0
C731 C 0.28765 0.51411 0.63736 0.0
C732 C 0.29836 0.49036 0.61514 0.0
C733 C 0.27147 0.50528 0.58768 0.0
C734 C 0.29103 0.47289 0.611 0.0
C735 C 0.30251 0.45889 0.60427 0.0
C736 C 0.32149 0.46219 0.6016 0.0
C737 C 0.32896 0.47931 0.60706 0.0
C738 C 0.31747 0.49328 0.61379 0.0
H739 H 0.26396 0.51483 0.57826 0.0
H740 H 0.28533 0.50238 0.58171 0.0
H741 H 0.26369 0.49207 0.58825 0.0
H742 H 0.27633 0.4703 0.61235 0.0
H743 H 0.29633 0.44582 0.60032 0.0
H744 H 0.34924 0.40931 0.4978 0.0
H745 H 0.3259 0.39357 0.4791 0.0
H746 H 0.28876 0.39281 0.52576 0.0
H747 H 0.31193 0.40881 0.54454 0.0
H748 H 0.30842 0.35937 0.48473 0.0
H749 H 0.25793 0.41739 0.48495 0.0
H750 H 0.2817 0.42027 0.49203 0.0
H751 H 0.26529 0.4097 0.5074 0.0
C752 C 0.33613 0.40578 0.50412 0.0
C753 C 0.33239 0.41043 0.52262 0.0
C754 C 0.32282 0.39678 0.49341 0.0
C755 C 0.30552 0.39232 0.50098 0.0
C756 C 0.3019 0.39649 0.51957 0.0
H757 H 0.20853 0.34083 0.45072 0.0
H758 H 0.23049 0.35453 0.4726 0.0
C759 C 0.31519 0.40553 0.53029 0.0
C760 C 0.29133 0.38332 0.48931 0.0
H761 H 0.24855 0.38969 0.47035 0.0
C762 C 0.29532 0.36597 0.48159 0.0
C763 C 0.27424 0.39199 0.48531 0.0
C764 C 0.26952 0.41093 0.49271 0.0
C765 C 0.28266 0.35703 0.46993 0.0
C766 C 0.26572 0.36583 0.46569 0.0
C767 C 0.26157 0.38302 0.47367 0.0
C768 C 0.25241 0.3577 0.45248 0.0
C769 C 0.28745 0.33819 0.46232 0.0
C770 C 0.2574 0.3553 0.4339 0.0
C771 C 0.24492 0.34755 0.42139 0.0
C772 C 0.22718 0.34212 0.42722 0.0
C773 C 0.22211 0.34483 0.44581 0.0
C774 C 0.23461 0.35264 0.45832 0.0
H775 H 0.29848 0.33137 0.47056 0.0
H776 H 0.27511 0.32906 0.46207 0.0
H777 H 0.29255 0.33972 0.44793 0.0
H778 H 0.27096 0.35946 0.42907 0.0
H779 H 0.24924 0.34572 0.40716 0.0
H780 H 0.90998 0.94996 0.68764 0.0
H781 H 0.89612 0.97011 0.71103 0.0
H782 H 0.87265 0.00412 0.66806 0.0
H783 H 0.8864 0.98408 0.64455 0.0
H784 H 0.9039 0.0089 0.71385 0.0
H785 H 0.82901 0.99459 0.70429 0.0
H786 H 0.84686 0.97905 0.69624 0.0
H787 H 0.84148 -0.00039 0.68337 0.0
C788 C 0.90164 0.96156 0.68314 0.0
C789 C 0.8993 0.96545 0.66423 0.0
C790 C 0.89378 0.97306 0.69653 0.0
C791 C 0.88327 0.98847 0.69123 0.0
C792 C 0.8805 0.99212 0.67239 0.0
H793 H 0.85731 0.08983 0.74762 0.0
H794 H 0.86925 0.06544 0.72743 0.0
C795 C 0.88843 0.9807 0.65899 0.0
C796 C 0.87632 0.00151 0.70535 0.0
H797 H 0.83688 0.02078 0.72268 0.0
C798 C 0.88925 0.01141 0.71591 0.0
C799 C 0.85721 0.0046 0.70804 0.0
C800 C 0.84279 0.99381 0.69752 0.0
C801 C 0.88355 0.02477 0.72876 0.0
C802 C 0.86447 0.02834 0.73096 0.0
C803 C 0.85151 0.01806 0.72081 0.0
C804 C 0.8577 0.04299 0.74348 0.0
C805 C 0.89796 0.03498 0.73988 0.0
C806 C 0.84714 0.03837 0.75906 0.0
C807 C 0.84034 0.05225 0.77066 0.0
C808 C 0.84382 0.07099 0.76671 0.0
C809 C 0.85442 0.07553 0.75106 0.0
C810 C 0.86131 0.06163 0.73955 0.0
H811 H 0.91154 0.0278 0.73961 0.0
H812 H 0.89986 0.04903 0.73399 0.0
H813 H 0.89346 0.03654 0.75448 0.0
H814 H 0.84417 0.02403 0.76224 0.0
H815 H 0.83215 0.04829 0.78256 0.0
H816 H 0.26342 0.67592 0.92883 0.0
H817 H 0.2433 0.66077 0.95127 0.0
H818 H 0.28912 0.62751 0.97011 0.0
H819 H 0.30954 0.64305 0.94802 0.0
H820 H 0.2341 0.62527 0.95299 0.0
H821 H 0.26822 0.64554 0.01857 0.0
H822 H 0.27378 0.65623 0.99672 0.0
H823 H 0.28355 0.63414 0.00274 0.0
C824 C 0.26927 0.66547 0.93783 0.0
C825 C 0.28808 0.66067 0.93667 0.0
C826 C 0.25775 0.65684 0.95067 0.0
C827 C 0.26475 0.64319 0.96255 0.0
C828 C 0.28352 0.63834 0.96141 0.0
H829 H 0.19603 0.56081 0.01572 0.0
H830 H 0.2185 0.57747 0.99683 0.0
C831 C 0.29514 0.64713 0.94869 0.0
C832 C 0.25207 0.63339 0.97532 0.0
H833 H 0.24494 0.62224 0.02065 0.0
C834 C 0.23644 0.62469 0.96779 0.0
C835 C 0.25501 0.63284 0.99466 0.0
C836 C 0.27095 0.64284 0.00369 0.0
C837 C 0.22375 0.61529 0.97902 0.0
C838 C 0.22709 0.61408 -0.00175 0.0
C839 C 0.24256 0.623 0.00586 0.0
C840 C 0.21453 0.60372 0.01066 0.0
C841 C 0.20671 0.60706 0.97018 0.0
C842 C 0.20546 0.61277 0.02524 0.0
C843 C 0.19276 0.60321 0.03625 0.0
C844 C 0.18891 0.58447 0.0328 0.0
C845 C 0.1985 0.57531 0.01858 0.0
C846 C 0.21129 0.58482 0.00771 0.0
H847 H 0.20358 0.61367 0.95667 0.0
H848 H 0.20905 0.5921 0.96765 0.0
H849 H 0.19445 0.60854 0.97931 0.0
H850 H 0.20787 0.62734 0.0278 0.0
H851 H 0.18563 0.61063 0.04714 0.0
H852 H 0.58421 0.04053 0.19596 0.0
H853 H 0.60024 0.01986 0.21745 0.0
H854 H 0.60468 0.97859 0.17461 0.0
H855 H 0.58894 -0.00081 0.15298 0.0
H856 H 0.5894 0.9847 0.2288 0.0
H857 H 0.65763 0.98236 0.19383 0.0
H858 H 0.64038 -0.00039 0.1885 0.0
H859 H 0.63865 0.97674 0.17885 0.0
C860 C 0.58873 0.02711 0.19107 0.0
C861 C 0.58538 0.02153 0.17274 0.0
C862 C 0.59786 0.01533 0.20337 0.0
C863 C 0.60387 0.99783 0.19753 0.0
C864 C 0.6005 0.9922 0.17928 0.0
H865 H 0.65331 0.90127 0.24608 0.0
H866 H 0.63784 0.92414 0.2266 0.0
C867 C 0.59141 0.00397 0.16696 0.0
C868 C 0.61305 0.98513 0.21069 0.0
H869 H 0.65235 0.95988 0.21737 0.0
C870 C 0.60323 0.97939 0.22642 0.0
C871 C 0.63109 0.97829 0.20752 0.0
C872 C 0.64264 0.98469 0.19136 0.0
C873 C 0.61078 0.96648 0.2388 0.0
C874 C 0.62866 0.95936 0.2354 0.0
C875 C 0.63859 0.96533 0.21984 0.0
C876 C 0.63725 0.94541 0.24762 0.0
C877 C 0.5994 0.96016 0.25509 0.0
C878 C 0.642 0.94985 0.26589 0.0
C879 C 0.65085 0.93682 0.27709 0.0
C880 C 0.65515 0.91915 0.27014 0.0
C881 C 0.65017 0.91473 0.25187 0.0
C882 C 0.64136 0.92777 0.2407 0.0
H883 H 0.58459 0.964 0.25361 0.0
H884 H 0.6004 0.94493 0.25683 0.0
H885 H 0.60478 0.96673 0.26787 0.0
H886 H 0.63917 0.96351 0.27138 0.0
H887 H 0.65458 0.94068 0.29107 0.0
H888 H 0.70393 0.15767 0.54982 0.0
H889 H 0.72386 0.1441 0.52607 0.0
H890 H 0.76017 0.12297 0.56837 0.0
H891 H 0.74037 0.13649 0.59225 0.0
H892 H 0.763 0.15284 0.52195 0.0
H893 H 0.7496 0.078 0.53343 0.0
H894 H 0.73395 0.09586 0.54123 0.0
H895 H 0.75482 0.0912 0.55385 0.0
C896 C 0.71602 0.14993 0.5541 0.0
C897 C 0.72058 0.14815 0.57293 0.0
C898 C 0.7274 0.14225 0.54051 0.0
C899 C 0.74336 0.13246 0.54551 0.0
C900 C 0.74775 0.1303 0.56427 0.0
H901 H 0.84277 0.10508 0.48626 0.0
H902 H 0.81913 0.11809 0.50668 0.0
C903 C 0.73646 0.13808 0.57788 0.0
C904 C 0.75602 0.12537 0.53112 0.0
H905 H 0.77475 0.08572 0.51371 0.0
C906 C 0.76549 0.13817 0.52003 0.0
C907 C 0.75908 0.10624 0.52862 0.0
C908 C 0.74874 0.09197 0.53979 0.0
C909 C 0.7784 0.1323 0.50678 0.0
C910 C 0.78192 0.11319 0.50471 0.0
C911 C 0.77206 0.10038 0.51545 0.0
C912 C 0.79608 0.1062 0.49175 0.0
C913 C 0.78819 0.14655 0.4951 0.0
C914 C 0.79089 0.09519 0.47667 0.0
C915 C 0.80434 0.08777 0.46495 0.0
C916 C 0.82323 0.09108 0.46827 0.0
C917 C 0.82835 0.1023 0.4833 0.0
C918 C 0.81487 0.1098 0.49494 0.0
H919 H 0.78101 0.16014 0.49544 0.0
H920 H 0.80244 0.14854 0.50044 0.0
H921 H 0.78921 0.14185 0.48051 0.0
H922 H 0.77644 0.09222 0.47407 0.0
H923 H 0.79994 0.07913 0.45353 0.0
H924 H 0.15415 0.55489 0.70226 0.0
H925 H 0.13685 0.53248 0.72083 0.0
H926 H 0.1388 0.56958 0.7675 0.0
H927 H 0.15578 0.59215 0.74902 0.0
H928 H 0.14806 0.51542 0.75321 0.0
H929 H 0.08418 0.55617 0.76495 0.0
H930 H 0.10098 0.56228 0.74752 0.0
H931 H 0.10485 0.56833 0.77134 0.0
C932 C 0.15074 0.55836 0.71643 0.0
C933 C 0.15626 0.57534 0.72415 0.0
C934 C 0.14088 0.54553 0.72701 0.0
C935 C 0.13631 0.5495 0.74544 0.0
C936 C 0.14182 0.56642 0.75318 0.0
H937 H 0.08865 0.49303 0.83839 0.0
H938 H 0.10435 0.51394 0.81698 0.0
C939 C 0.15162 0.57927 0.74261 0.0
C940 C 0.1265 0.53565 0.75687 0.0
H941 H 0.08829 0.52943 0.78388 0.0
C942 C 0.13489 0.51838 0.75977 0.0
C943 C 0.10933 0.53959 0.76538 0.0
C944 C 0.0992 0.55753 0.76202 0.0
C945 C 0.12684 0.50514 0.77146 0.0
C946 C 0.1099 0.50927 0.78028 0.0
C947 C 0.10135 0.5264 0.77714 0.0
C948 C 0.10097 0.49617 0.79317 0.0
C949 C 0.13677 0.48708 0.77475 0.0
C950 C 0.09387 0.47927 0.7868 0.0
C951 C 0.08486 0.46728 0.79899 0.0
C952 C 0.08278 0.47203 0.81774 0.0
C953 C 0.09005 0.48893 0.82406 0.0
C954 C 0.09899 0.50092 0.81185 0.0
H955 H 0.15133 0.48754 0.76986 0.0
H956 H 0.13667 0.48349 0.78968 0.0
H957 H 0.12952 0.47587 0.76716 0.0
H958 H 0.09505 0.47551 0.77235 0.0
H959 H 0.07936 0.45439 0.79368 0.0
H960 H 0.65918 0.88711 0.99111 0.0
H961 H 0.68407 0.87221 0.00856 0.0
H962 H 0.7245 0.8973 0.97259 0.0
H963 H 0.6998 0.91253 0.95531 0.0
H964 H 0.71186 0.84795 0.99765 0.0
H965 H 0.74148 0.91391 0.0237 0.0
H966 H 0.71904 0.91265 0.01285 0.0
H967 H 0.73968 0.91256 -0.00102 0.0
C968 C 0.67336 0.8894 0.98687 0.0
C969 C 0.67753 0.90115 0.97195 0.0
C970 C 0.68756 0.88088 0.99684 0.0
C971 C 0.70612 0.88397 0.99208 0.0
C972 C 0.71028 0.89511 0.97676 0.0
H973 H 0.80912 0.84563 0.04231 0.0
H974 H 0.78617 0.85907 0.02125 0.0
C975 C 0.69613 0.90371 0.96685 0.0
C976 C 0.72111 0.8757 0.00328 0.0
H977 H 0.75804 0.88655 0.03067 0.0
C978 C 0.72196 0.85637 0.00487 0.0
C979 C 0.73427 0.88676 0.01267 0.0
C980 C 0.73354 0.90762 0.01214 0.0
C981 C 0.73567 0.84779 0.01559 0.0
C982 C 0.7487 0.85886 0.02506 0.0
C983 C 0.74804 0.87815 0.02328 0.0
C984 C 0.76258 0.8507 0.03763 0.0
C985 C 0.73618 0.82696 0.01663 0.0
C986 C 0.75685 0.84187 0.0539 0.0
C987 C 0.76985 0.83431 0.06596 0.0
C988 C 0.78887 0.83544 0.06197 0.0
C989 C 0.79459 0.84449 0.04574 0.0
C990 C 0.78152 0.85215 0.0337 0.0
H991 H 0.72822 0.82046 0.00521 0.0
H992 H 0.75065 0.82181 0.01614 0.0
H993 H 0.72999 0.82242 0.02992 0.0
H994 H 0.74228 0.84091 0.0573 0.0
H995 H 0.76497 0.82748 0.07836 0.0
H996 H 0.3276 0.44748 0.22078 0.0
H997 H 0.34217 0.47237 0.23855 0.0
H998 H 0.35329 0.43422 0.28301 0.0
H999 H 0.33887 0.40924 0.26537 0.0
H1000 H 0.33207 0.48509 0.27509 0.0
H1001 H 0.40405 0.45847 0.27151 0.0
H1002 H 0.38604 0.45073 0.25603 0.0
H1003 H 0.38718 0.44192 0.27923 0.0
C1004 C 0.33323 0.44436 0.2343 0.0
C1005 C 0.33216 0.42637 0.24165 0.0
C1006 C 0.34149 0.4586 0.24443 0.0
C1007 C 0.34895 0.45503 0.26196 0.0
C1008 C 0.34784 0.43714 0.26937 0.0
H1009 H 0.406 0.51585 0.34656 0.0
H1010 H 0.38932 0.49317 0.32794 0.0
C1011 C 0.33954 0.42292 0.25929 0.0
C1012 C 0.35766 0.47007 0.2727 0.0
H1013 H 0.39852 0.4834 0.2921 0.0
C1014 C 0.34662 0.48484 0.27873 0.0
C1015 C 0.37663 0.46962 0.27735 0.0
C1016 C 0.38925 0.45443 0.27058 0.0
C1017 C 0.35396 0.49896 0.28985 0.0
C1018 C 0.3729 0.49838 0.29472 0.0
C1019 C 0.38398 0.48374 0.28841 0.0
C1020 C 0.38156 0.51262 0.30657 0.0
C1021 C 0.34131 0.51407 0.29673 0.0
C1022 C 0.38256 0.53112 0.30078 0.0
C1023 C 0.39202 0.54418 0.31146 0.0
C1024 C 0.4008 0.53887 0.32798 0.0
C1025 C 0.39942 0.52039 0.33389 0.0
C1026 C 0.38992 0.5074 0.32327 0.0
H1027 H 0.32651 0.51007 0.2956 0.0
H1028 H 0.34438 0.51756 0.31136 0.0
H1029 H 0.34347 0.52669 0.28827 0.0
H1030 H 0.3765 0.53535 0.28776 0.0
H1031 H 0.39293 0.55828 0.30647 0.0
H1032 H 0.50113 0.34659 0.40516 0.0
H1033 H 0.48006 0.32464 0.39044 0.0
H1034 H 0.52142 0.28187 0.39459 0.0
H1035 H 0.54256 0.30366 0.40955 0.0
H1036 H 0.48494 0.30387 0.35779 0.0
H1037 H 0.4757 0.25864 0.41928 0.0
H1038 H 0.48562 0.28151 0.4208 0.0
H1039 H 0.49927 0.26251 0.41241 0.0
C1040 C 0.50578 0.33253 0.40294 0.0
C1041 C 0.52349 0.32684 0.40863 0.0
C1042 C 0.49372 0.32001 0.39452 0.0
C1043 C 0.49909 0.30159 0.39171 0.0
C1044 C 0.51689 0.29595 0.39698 0.0
H1045 H 0.44051 0.20753 0.34425 0.0
H1046 H 0.46366 0.22788 0.3583 0.0
C1047 C 0.52898 0.30845 0.40542 0.0
C1048 C 0.48603 0.28835 0.38316 0.0
H1049 H 0.46143 0.2489 0.39151 0.0
C1050 C 0.47978 0.29186 0.36514 0.0
C1051 C 0.47941 0.27268 0.39282 0.0
C1052 C 0.48519 0.26862 0.41245 0.0
C1053 C 0.46709 0.28004 0.35645 0.0
C1054 C 0.46027 0.26451 0.36619 0.0
C1055 C 0.46671 0.26085 0.38412 0.0
C1056 C 0.44613 0.25212 0.35813 0.0
C1057 C 0.46124 0.28414 0.33685 0.0
C1058 C 0.4285 0.25896 0.35378 0.0
C1059 C 0.41526 0.2474 0.3458 0.0
C1060 C 0.41938 0.22876 0.34209 0.0
C1061 C 0.43692 0.22184 0.34688 0.0
C1062 C 0.45016 0.23343 0.35489 0.0
H1063 H 0.47117 0.29352 0.32979 0.0
H1064 H 0.46 0.27121 0.32866 0.0
H1065 H 0.44753 0.29103 0.33701 0.0
H1066 H 0.42502 0.27327 0.35653 0.0
H1067 H 0.40186 0.25315 0.34237 0.0
H1068 H 0.02154 0.19409 0.56463 0.0
H1069 H -0.00082 0.21562 0.57794 0.0
H1070 H 0.01143 0.19478 0.63247 0.0
H1071 H 0.03418 0.17351 0.61932 0.0
H1072 H 0.96833 0.20671 0.59632 0.0
H1073 H 0.01286 0.24992 0.6412 0.0
H1074 H 0.02218 0.23476 0.6237 0.0
H1075 H 0.01537 0.22568 0.64585 0.0
C1076 C 0.01967 0.19425 0.57949 0.0
C1077 C 0.02964 0.1821 0.59094 0.0
C1078 C 0.00688 0.20657 0.58706 0.0
C1079 C 0.00379 0.20697 0.60621 0.0
C1080 C 0.0139 0.19503 0.61771 0.0
H1081 H 0.90499 0.24093 0.66292 0.0
H1082 H 0.92987 0.22454 0.64706 0.0
C1083 C 0.02682 0.18279 0.61015 0.0
C1084 C 0.98904 0.21889 0.61396 0.0
H1085 H 0.98022 0.25168 0.64673 0.0
C1086 C 0.97096 0.21668 0.60722 0.0
C1087 C 0.99254 0.23206 0.62799 0.0
C1088 C 0.01182 0.23591 0.63498 0.0
C1089 C 0.95619 0.22689 0.6145 0.0
C1090 C 0.95952 0.23932 0.62923 0.0
C1091 C 0.97767 0.24198 0.63558 0.0
C1092 C 0.94429 0.24936 0.63853 0.0
C1093 C 0.93717 0.22433 0.60627 0.0
C1094 C 0.94438 0.26875 0.63938 0.0
C1095 C 0.93026 0.27817 0.64861 0.0
C1096 C 0.91583 0.26834 0.6572 0.0
C1097 C 0.9158 0.24892 0.65631 0.0
C1098 C 0.92996 0.23952 0.64716 0.0
H1099 H 0.93794 0.21897 0.59189 0.0
H1100 H 0.92937 0.21412 0.61466 0.0
H1101 H 0.92932 0.23753 0.60618 0.0
H1102 H 0.95538 0.27658 0.63288 0.0
H1103 H 0.9307 0.29314 0.64909 0.0
H1104 H 0.00646 0.65915 0.91151 0.0
H1105 H 0.02472 0.68344 0.89669 0.0
H1106 H 0.97839 0.72081 0.90043 0.0
H1107 H 0.96004 0.69668 0.91547 0.0
H1108 H 0.01758 0.70301 0.86395 0.0
H1109 H 0.02095 0.74968 0.92494 0.0
H1110 H 0.01389 0.72579 0.92665 0.0
H1111 H 0.99803 0.7429 0.91812 0.0
C1112 C 0.00012 0.67253 0.90918 0.0
C1113 C 0.98183 0.67602 0.91477 0.0
C1114 C 0.01058 0.68637 0.9007 0.0
C1115 C 0.00298 0.70397 0.89774 0.0
C1116 C 0.98461 0.70742 0.90293 0.0
H1117 H 0.05112 0.78804 0.82602 0.0
H1118 H 0.0301 0.76623 0.84107 0.0
C1119 C 0.97412 0.69357 0.91142 0.0
C1120 C 0.01432 0.71864 0.88907 0.0
H1121 H 0.03366 0.76101 0.89697 0.0
C1122 C 0.02108 0.71572 0.87113 0.0
C1123 C 0.019 0.73508 0.8986 0.0
C1124 C 0.01275 0.73856 0.91821 0.0
C1125 C 0.03237 0.72885 0.86239 0.0
C1126 C 0.03677 0.74544 0.87179 0.0
C1127 C 0.03009 0.74834 0.88977 0.0
C1128 C 0.04889 0.75963 0.86339 0.0
C1129 C 0.03986 0.72467 0.84337 0.0
C1130 C 0.06612 0.76361 0.87135 0.0
C1131 C 0.07814 0.77613 0.86285 0.0
C1132 C 0.07308 0.78493 0.84627 0.0
C1133 C 0.05549 0.78141 0.83871 0.0
C1134 C 0.04349 0.76888 0.84723 0.0
H1135 H 0.03865 0.70975 0.83987 0.0
H1136 H 0.03192 0.73265 0.83295 0.0
H1137 H 0.05462 0.7288 0.84228 0.0
H1138 H 0.07047 0.75665 0.88389 0.0
H1139 H 0.09154 0.77858 0.86907 0.0
H1140 H 0.59438 0.75125 0.15408 0.0
H1141 H 0.57291 0.7714 0.13751 0.0
H1142 H 0.5317 0.72827 0.13813 0.0
H1143 H 0.553 0.70805 0.15494 0.0
H1144 H 0.55561 0.76558 0.10325 0.0
H1145 H 0.50425 0.77295 0.16001 0.0
H1146 H 0.52723 0.76395 0.16379 0.0
H1147 H 0.50971 0.74955 0.15364 0.0
C1148 C 0.58075 0.74603 0.15071 0.0
C1149 C 0.57536 0.72808 0.15591 0.0
C1150 C 0.56851 0.75756 0.14124 0.0
C1151 C 0.55065 0.7514 0.13686 0.0
C1152 C 0.54531 0.73339 0.14172 0.0
H1153 H 0.4596 0.80653 0.08012 0.0
H1154 H 0.47926 0.78395 0.09596 0.0
C1155 C 0.55754 0.72183 0.15122 0.0
C1156 C 0.53774 0.76385 0.127 0.0
H1157 H 0.49672 0.78684 0.13138 0.0
C1158 C 0.54273 0.77024 0.10938 0.0
C1159 C 0.52094 0.76982 0.13506 0.0
C1160 C 0.51522 0.76387 0.15422 0.0
C1161 C 0.53134 0.78246 0.09955 0.0
C1162 C 0.51468 0.78865 0.10771 0.0
C1163 C 0.50953 0.78204 0.1252 0.0
C1164 C 0.50268 0.80239 0.09849 0.0
C1165 C 0.53713 0.78853 0.08044 0.0
C1166 C 0.50927 0.82031 0.09503 0.0
C1167 C 0.4981 0.83323 0.08603 0.0
C1168 C 0.4801 0.82847 0.08039 0.0
C1169 C 0.47341 0.8106 0.08423 0.0
C1170 C 0.4846 0.79769 0.09328 0.0
H1171 H 0.54755 0.77902 0.07436 0.0
H1172 H 0.52502 0.78927 0.07101 0.0
H1173 H 0.54339 0.80252 0.08127 0.0
H1174 H 0.52307 0.82429 0.09928 0.0
H1175 H 0.50364 0.84689 0.08338 0.0
H1176 H 0.14858 0.32333 0.33309 0.0
H1177 H 0.15682 0.33808 0.30371 0.0
H1178 H 0.1978 0.37113 0.33181 0.0
H1179 H 0.18915 0.35721 0.36111 0.0
H1180 H 0.18273 0.39006 0.3039 0.0
H1181 H 0.20351 0.31988 0.27978 0.0
H1182 H 0.17942 0.32284 0.28494 0.0
H1183 H 0.19625 0.32419 0.3032 0.0
C1184 C 0.15902 0.33408 0.33305 0.0
C1185 C 0.1685 0.33879 0.34937 0.0
C1186 C 0.1638 0.34239 0.31623 0.0
C1187 C 0.17834 0.35526 0.31548 0.0
C1188 C 0.18664 0.36112 0.332 0.0
H1189 H 0.26912 0.37121 0.24671 0.0
H1190 H 0.24451 0.36235 0.26792 0.0
C1191 C 0.18171 0.35306 0.34879 0.0
C1192 C 0.18658 0.36121 0.29766 0.0
H1193 H 0.21227 0.34493 0.26155 0.0
C1194 C 0.18895 0.38023 0.29443 0.0
C1195 C 0.19479 0.3483 0.28541 0.0
C1196 C 0.19354 0.32767 0.2885 0.0
C1197 C 0.20026 0.38668 0.28002 0.0
C1198 C 0.20898 0.37374 0.26821 0.0
C1199 C 0.20558 0.35479 0.27067 0.0
C1200 C 0.22351 0.37923 0.25483 0.0
C1201 C 0.20379 0.4072 0.2784 0.0
C1202 C 0.21988 0.39159 0.24032 0.0
C1203 C 0.23407 0.3969 0.22826 0.0
C1204 C 0.25201 0.38967 0.23037 0.0
C1205 C 0.25546 0.377 0.24468 0.0
C1206 C 0.24138 0.3719 0.25681 0.0
H1207 H 0.19895 0.4149 0.29078 0.0
H1208 H 0.21877 0.41001 0.27645 0.0
H1209 H 0.19629 0.41268 0.26619 0.0
H1210 H 0.2061 0.3971 0.23829 0.0
H1211 H 0.23096 0.40656 0.21724 0.0
H1212 H 0.88353 0.01549 0.46126 0.0
H1213 H 0.89321 0.99181 0.48334 0.0
H1214 H 0.83633 0.98256 0.4987 0.0
H1215 H 0.82645 0.00625 0.47659 0.0
H1216 H 0.86155 0.98992 0.52856 0.0
H1217 H 0.88721 0.93452 0.48212 0.0
H1218 H 0.89563 0.95726 0.47664 0.0
H1219 H 0.87136 0.9523 0.47451 0.0
C1220 C 0.87305 0.00832 0.4692 0.0
C1221 C 0.85423 0.01278 0.46722 0.0
C1222 C 0.8786 0.99468 0.48169 0.0
C1223 C 0.86545 0.98527 0.4924 0.0
C1224 C 0.84665 0.98956 0.49038 0.0
H1225 H 0.89143 0.92188 0.59266 0.0
H1226 H 0.87346 0.93291 0.56617 0.0
C1227 C 0.84105 0.00311 0.47778 0.0
C1228 C 0.8716 0.97223 0.50687 0.0
H1229 H 0.89685 0.93295 0.51375 0.0
C1230 C 0.86897 0.97726 0.52539 0.0
C1231 C 0.8813 0.95582 0.50259 0.0
C1232 C 0.88393 0.94952 0.48288 0.0
C1233 C 0.87674 0.96689 0.5398 0.0
C1234 C 0.88698 0.95073 0.53553 0.0
C1235 C 0.88893 0.94528 0.51699 0.0
C1236 C 0.89741 0.94059 0.54994 0.0
C1237 C 0.87489 0.97399 0.55936 0.0
C1238 C 0.91678 0.94003 0.54901 0.0
C1239 C 0.92707 0.93347 0.56396 0.0
C1240 C 0.91815 0.92748 0.58016 0.0
C1241 C 0.89871 0.92664 0.58047 0.0
C1242 C 0.88842 0.93304 0.5654 0.0
H1243 H 0.86999 0.98855 0.55978 0.0
H1244 H 0.86469 0.96538 0.56694 0.0
H1245 H 0.88831 0.97317 0.56677 0.0
H1246 H 0.924 0.94566 0.53715 0.0
H1247 H 0.94201 0.93417 0.56319 0.0
H1248 H 0.22567 0.63038 0.72505 0.0
H1249 H 0.24614 0.63777 0.75084 0.0
H1250 H 0.26638 0.58167 0.75118 0.0
H1251 H 0.24592 0.57408 0.72523 0.0
H1252 H 0.24382 0.6181 0.78568 0.0
H1253 H 0.31392 0.61532 0.75387 0.0
H1254 H 0.2932 0.61888 0.74035 0.0
H1255 H 0.29844 0.59635 0.74927 0.0
C1256 C 0.23462 0.61964 0.73042 0.0
C1257 C 0.23409 0.60161 0.72315 0.0
C1258 C 0.24632 0.6239 0.74515 0.0
C1259 C 0.25782 0.61029 0.75279 0.0
C1260 C 0.25776 0.59241 0.74528 0.0
H1261 H 0.30223 0.62272 0.86416 0.0
H1262 H 0.29185 0.60812 0.83546 0.0
C1263 C 0.246 0.58809 0.73054 0.0
C1264 C 0.2686 0.61456 0.7696 0.0
H1265 H 0.31238 0.62157 0.78593 0.0
C1266 C 0.25881 0.61872 0.7858 0.0
C1267 C 0.28813 0.61539 0.76959 0.0
C1268 C 0.29915 0.61137 0.75235 0.0
C1269 C 0.26802 0.62401 0.80199 0.0
C1270 C 0.28755 0.62495 0.802 0.0
C1271 C 0.29741 0.6206 0.78586 0.0
C1272 C 0.29762 0.63195 0.81834 0.0
C1273 C 0.25673 0.62921 0.81878 0.0
C1274 C 0.30518 0.6498 0.81794 0.0
C1275 C 0.31111 0.6582 0.83429 0.0
C1276 C 0.30955 0.64885 0.85129 0.0
C1277 C 0.30348 0.63036 0.85134 0.0
C1278 C 0.29752 0.62199 0.83497 0.0
H1279 H 0.24179 0.63064 0.81551 0.0
H1280 H 0.25827 0.61832 0.82949 0.0
H1281 H 0.26174 0.64244 0.82476 0.0
H1282 H 0.30539 0.65767 0.8052 0.0
H1283 H 0.31588 0.67239 0.83374 0.0
H1284 H 0.59889 0.06258 0.10723 0.0
H1285 H 0.61346 0.04883 0.08019 0.0
H1286 H 0.56602 0.06327 0.04704 0.0
H1287 H 0.5511 0.07675 0.07419 0.0
H1288 H 0.57284 0.02669 0.04681 0.0
H1289 H 0.63808 0.0639 0.03251 0.0
H1290 H 0.63617 0.05756 0.0564 0.0
H1291 H 0.61991 0.07368 0.04659 0.0
C1292 C 0.59177 0.06339 0.09408 0.0
C1293 C 0.5737 0.07051 0.09294 0.0
C1294 C 0.6002 0.0556 0.07856 0.0
C1295 C 0.59085 0.05505 0.06157 0.0
C1296 C 0.57347 0.06356 0.06003 0.0
H1297 H 0.61336 0.98247 0.96711 0.0
H1298 H 0.60064 0.00694 0.98669 0.0
C1299 C 0.56498 0.07128 0.07557 0.0
C1300 C 0.59779 0.043 0.04653 0.0
H1301 H 0.63622 0.03246 0.02123 0.0
C1302 C 0.58656 0.02817 0.04093 0.0
C1303 C 0.61574 0.04487 0.03901 0.0
C1304 C 0.62809 0.06098 0.04381 0.0
C1305 C 0.59309 0.01467 0.02865 0.0
C1306 C 0.61126 0.0162 0.02163 0.0
C1307 C 0.62232 0.03131 0.02676 0.0
C1308 C 0.61924 0.00179 0.00953 0.0
C1309 C 0.58082 -0.00155 0.02394 0.0
C1310 C 0.63404 0.99098 0.01586 0.0
C1311 C 0.64135 0.97699 0.00473 0.0
C1312 C 0.63403 0.97365 0.98704 0.0
C1313 C 0.61924 0.98461 0.98071 0.0
C1314 C 0.61194 -0.00141 0.99186 0.0
H1315 H 0.56869 0.99746 0.03332 0.0
H1316 H 0.57562 3e-05 0.00959 0.0
H1317 H 0.58869 0.98528 0.02469 0.0
H1318 H 0.63983 0.99327 0.02949 0.0
H1319 H 0.65279 0.96886 0.00998 0.0
H1320 H 0.67874 0.1919 0.67525 0.0
H1321 H 0.69119 0.17739 0.70311 0.0
H1322 H 0.69717 0.1258 0.67384 0.0
H1323 H 0.68471 0.14014 0.64584 0.0
H1324 H 0.68489 0.12548 0.71564 0.0
H1325 H 0.74903 0.16408 0.69721 0.0
H1326 H 0.72775 0.17698 0.69786 0.0
H1327 H 0.731 0.15948 0.68057 0.0
C1328 C 0.68224 0.17734 0.67483 0.0
C1329 C 0.68105 0.16726 0.65824 0.0
C1330 C 0.68931 0.16908 0.69077 0.0
C1331 C 0.69524 0.15064 0.69038 0.0
C1332 C 0.69263 0.14008 0.67434 0.0
H1333 H 0.76125 0.08002 0.76082 0.0
H1334 H 0.73814 0.0922 0.73935 0.0
C1335 C 0.68555 0.14832 0.65836 0.0
C1336 C 0.70656 0.14326 0.70566 0.0
H1337 H 0.74985 0.14602 0.72411 0.0
C1338 C 0.69907 0.12996 0.7176 0.0
C1339 C 0.72504 0.14918 0.70804 0.0
C1340 C 0.73382 0.16313 0.69522 0.0
C1341 C 0.70963 0.12252 0.73214 0.0
C1342 C 0.72821 0.12831 0.7344 0.0
C1343 C 0.73558 0.14167 0.72242 0.0
C1344 C 0.74057 0.12053 0.74875 0.0
C1345 C 0.70073 0.10879 0.74507 0.0
C1346 C 0.74977 0.13243 0.76103 0.0
C1347 C 0.76321 0.12557 0.77306 0.0
C1348 C 0.76768 0.10666 0.77307 0.0
C1349 C 0.75805 0.09465 0.76119 0.0
C1350 C 0.74471 0.10156 0.74902 0.0
H1351 H 0.68542 0.11005 0.74498 0.0
H1352 H 0.7043 0.09456 0.74054 0.0
H1353 H 0.70576 0.11066 0.75946 0.0
H1354 H 0.74685 0.14713 0.76098 0.0
H1355 H 0.7703 0.13516 0.78213 0.0
H1356 H 0.1137 0.50187 0.02361 0.0
H1357 H 0.10109 0.47715 0.00426 0.0
H1358 H 0.14114 0.48976 0.9619 0.0
H1359 H 0.15393 0.51441 0.98116 0.0
H1360 H 0.08613 0.48196 0.96896 0.0
H1361 H 0.14522 0.43316 0.96723 0.0
H1362 H 0.14311 0.45122 0.98438 0.0
H1363 H 0.15138 0.45655 0.96155 0.0
C1364 C 0.1199 0.49933 0.01022 0.0
C1365 C 0.13481 0.51012 0.0039 0.0
C1366 C 0.11272 0.48516 -0.00077 0.0
C1367 C 0.12044 0.48141 0.98185 0.0
C1368 C 0.1353 0.49215 0.97549 0.0
H1369 H 0.09538 0.42932 0.88136 0.0
H1370 H 0.11055 0.44104 0.90906 0.0
C1371 C 0.14246 0.50636 0.98643 0.0
C1372 C 0.11201 0.46732 0.96966 0.0
H1373 H 0.12178 0.42881 0.94415 0.0
C1374 C 0.09377 0.47013 0.96377 0.0
C1375 C 0.1221 0.45197 0.96296 0.0
C1376 C 0.14149 0.4479 0.96948 0.0
C1377 C 0.08563 0.45858 0.95053 0.0
C1378 C 0.0959 0.44352 0.94335 0.0
C1379 C 0.11393 0.44029 0.94977 0.0
C1380 C 0.08879 0.43241 0.92771 0.0
C1381 C 0.0665 0.4633 0.94355 0.0
C1382 C 0.07211 0.42261 0.92921 0.0
C1383 C 0.06327 0.41603 0.91333 0.0
C1384 C 0.07111 0.41903 0.89579 0.0
C1385 C 0.08884 0.42696 0.89463 0.0
C1386 C 0.09757 0.43366 0.91047 0.0
H1387 H 0.06207 0.47737 0.94785 0.0
H1388 H 0.06595 0.46251 0.92822 0.0
H1389 H 0.0564 0.45323 0.94921 0.0
H1390 H 0.06536 0.42111 0.94249 0.0
H1391 H 0.04975 0.40972 0.91472 0.0
H1392 H 0.72348 0.86454 0.26856 0.0
H1393 H 0.74501 0.85784 0.24342 0.0
H1394 H 0.76775 0.9128 0.2479 0.0
H1395 H 0.74628 0.91966 0.2732 0.0
H1396 H 0.74589 0.87906 0.20988 0.0
H1397 H 0.81385 0.87772 0.24606 0.0
H1398 H 0.79217 0.87464 0.2581 0.0
H1399 H 0.79903 0.89723 0.2505 0.0
C1400 C 0.73318 0.87516 0.26437 0.0
C1401 C 0.73312 0.89267 0.27283 0.0
C1402 C 0.74547 0.8713 0.25001 0.0
C1403 C 0.75802 0.88478 0.24394 0.0
C1404 C 0.75833 0.90213 0.2526 0.0
H1405 H 0.80815 0.87507 0.13461 0.0
H1406 H 0.79653 0.88919 0.16308 0.0
C1407 C 0.74598 0.90605 0.26697 0.0
C1408 C 0.76971 0.88102 0.2276 0.0
H1409 H 0.8142 0.87346 0.21364 0.0
C1410 C 0.76084 0.87797 0.21064 0.0
C1411 C 0.78917 0.87957 0.22876 0.0
C1412 C 0.79921 0.88233 0.24683 0.0
C1413 C 0.77088 0.87317 0.1948 0.0
C1414 C 0.79036 0.87164 0.19592 0.0
C1415 C 0.79929 0.8749 0.21284 0.0
C1416 C 0.80124 0.86496 0.17997 0.0
C1417 C 0.76049 0.86905 0.17716 0.0
C1418 C 0.80872 0.84708 0.18038 0.0
C1419 C 0.8154 0.83898 0.16418 0.0
C1420 C 0.81467 0.84865 0.14731 0.0
C1421 C 0.80874 0.86718 0.14733 0.0
C1422 C 0.80206 0.87527 0.16356 0.0
H1423 H 0.74536 0.86771 0.17951 0.0
H1424 H 0.76277 0.88047 0.16716 0.0
H1425 H 0.76562 0.85606 0.17076 0.0
H1426 H 0.80826 0.83895 0.19295 0.0
H1427 H 0.82006 0.82475 0.16469 0.0
H1428 H 0.3858 0.4781 0.52045 0.0
H1429 H 0.39224 0.50116 0.49665 0.0
H1430 H 0.34304 0.53115 0.51195 0.0
H1431 H 0.33641 0.50811 0.53593 0.0
H1432 H 0.36563 0.50959 0.46715 0.0
H1433 H 0.3862 0.57087 0.50913 0.0
H1434 H 0.38772 0.54755 0.518 0.0
H1435 H 0.36558 0.55844 0.51561 0.0
C1436 C 0.37641 0.48967 0.51891 0.0
C1437 C 0.36054 0.49123 0.53004 0.0
C1438 C 0.38013 0.50284 0.50532 0.0
C1439 C 0.36818 0.51787 0.50268 0.0
C1440 C 0.35253 0.51974 0.51397 0.0
H1441 H 0.37689 0.57681 0.39756 0.0
H1442 H 0.36282 0.56673 0.42663 0.0
C1443 C 0.34874 0.50652 0.52758 0.0
C1444 C 0.37157 0.53074 0.48719 0.0
H1445 H 0.38727 0.57404 0.47669 0.0
C1446 C 0.37012 0.52377 0.46918 0.0
C1447 C 0.37746 0.54916 0.49002 0.0
C1448 C 0.37946 0.55705 0.50921 0.0
C1449 C 0.375 0.53453 0.45384 0.0
C1450 C 0.38124 0.55288 0.45662 0.0
C1451 C 0.38225 0.56005 0.47464 0.0
C1452 C 0.38885 0.56377 0.44107 0.0
C1453 C 0.37435 0.52583 0.43486 0.0
C1454 C 0.40798 0.5667 0.44008 0.0
C1455 C 0.41607 0.57252 0.42355 0.0
C1456 C 0.40511 0.57544 0.40774 0.0
C1457 C 0.38574 0.57445 0.40941 0.0
C1458 C 0.37767 0.56866 0.42599 0.0
H1459 H 0.37218 0.51063 0.4355 0.0
H1460 H 0.36277 0.53196 0.42686 0.0
H1461 H 0.38738 0.52858 0.4272 0.0
H1462 H 0.41682 0.5631 0.45163 0.0
H1463 H 0.43101 0.57339 0.42281 0.0
H1464 H 0.2361 0.26436 0.41927 0.0
H1465 H 0.25812 0.24225 0.40614 0.0
H1466 H 0.23149 0.2472 0.353 0.0
H1467 H 0.20981 0.26972 0.36586 0.0
H1468 H 0.25474 0.2086 0.3885 0.0
H1469 H 0.28432 0.26137 0.34125 0.0
H1470 H 0.26868 0.26727 0.35975 0.0
H1471 H 0.2599 0.25817 0.33831 0.0
C1472 C 0.2349 0.26068 0.4048 0.0
C1473 C 0.22143 0.26898 0.39351 0.0
C1474 C 0.24745 0.24801 0.39735 0.0
C1475 C 0.24665 0.24338 0.37852 0.0
C1476 C 0.23262 0.25095 0.36745 0.0
H1477 H 0.31798 0.18178 0.30541 0.0
H1478 H 0.29042 0.19382 0.32074 0.0
C1479 C 0.22023 0.26377 0.37483 0.0
C1480 C 0.261 0.23134 0.37027 0.0
H1481 H 0.2947 0.23062 0.33727 0.0
C1482 C 0.26349 0.21338 0.37731 0.0
C1483 C 0.27251 0.23771 0.35579 0.0
C1484 C 0.27138 0.25724 0.34844 0.0
C1485 C 0.27707 0.20154 0.37 0.0
C1486 C 0.28832 0.20788 0.35538 0.0
C1487 C 0.28582 0.22577 0.34836 0.0
C1488 C 0.30346 0.19668 0.34749 0.0
C1489 C 0.27926 0.18233 0.37781 0.0
C1490 C 0.3197 0.19376 0.35767 0.0
C1491 C 0.33556 0.18697 0.34893 0.0
C1492 C 0.33538 0.18312 0.32986 0.0
C1493 C 0.31864 0.18472 0.32008 0.0
C1494 C 0.30285 0.19157 0.32881 0.0
H1495 H 0.26736 0.17834 0.38667 0.0
H1496 H 0.28071 0.17206 0.36648 0.0
H1497 H 0.29202 0.18177 0.38631 0.0
H1498 H 0.32048 0.19786 0.37206 0.0
H1499 H 0.34821 0.18585 0.35687 0.0
H1500 H 0.9967 0.9649 0.66136 0.0
H1501 H 0.0173 0.99083 0.65405 0.0
H1502 H 0.9875 0.00014 0.60322 0.0
H1503 H 0.9672 0.97415 0.61017 0.0
H1504 H 0.02563 0.0027 0.59906 0.0
H1505 H 0.00066 0.04467 0.65868 0.0
H1506 H 0.01036 0.02239 0.66389 0.0
H1507 H 0.98901 0.02388 0.6513 0.0
C1508 C 0.99461 0.97242 0.64858 0.0
C1509 C 0.9802 0.9676 0.63643 0.0
C1510 C 0.00636 0.98725 0.64446 0.0
C1511 C 0.00375 0.99755 0.62823 0.0
C1512 C 0.98974 0.99237 0.61584 0.0
H1513 H 0.01055 0.10409 0.58957 0.0
H1514 H 0.00562 0.07463 0.60498 0.0
C1515 C 0.9781 0.97754 0.61987 0.0
C1516 C 0.01484 0.01429 0.62424 0.0
H1517 H 0.02002 0.05935 0.63733 0.0
C1518 C 0.02475 0.01502 0.60757 0.0
C1519 C 0.0136 0.0303 0.63543 0.0
C1520 C 0.00276 0.03044 0.65328 0.0
C1521 C 0.03244 0.03165 0.60117 0.0
C1522 C 0.03041 0.04786 0.61193 0.0
C1523 C 0.02159 0.04684 0.62918 0.0
C1524 C 0.03438 0.06639 0.60418 0.0
C1525 C 0.04145 0.03203 0.58234 0.0
C1526 C 0.05231 0.07173 0.59897 0.0
C1527 C 0.0552 0.08866 0.58998 0.0
C1528 C 0.04018 0.10043 0.58616 0.0
C1529 C 0.02241 0.09531 0.59215 0.0
C1530 C 0.01956 0.07848 0.60105 0.0
H1531 H 0.03966 0.01878 0.57476 0.0
H1532 H 0.03559 0.04337 0.57382 0.0
H1533 H 0.05649 0.03462 0.58395 0.0
H1534 H 0.06397 0.06269 0.60152 0.0
H1535 H 0.06906 0.0923 0.58562 0.0
H1536 H 0.25493 0.74145 0.91161 0.0
H1537 H 0.23295 0.76389 0.89891 0.0
H1538 H 0.2613 0.76205 0.84647 0.0
H1539 H 0.28296 0.73927 0.85885 0.0
H1540 H 0.23601 0.79861 0.8824 0.0
H1541 H 0.20907 0.74637 0.833 0.0
H1542 H 0.22428 0.74037 0.85183 0.0
H1543 H 0.2335 0.75022 0.83092 0.0
C1544 C 0.25655 0.74593 0.89741 0.0
C1545 C 0.27046 0.73837 0.88612 0.0
C1546 C 0.24403 0.75878 0.89021 0.0
C1547 C 0.2453 0.76432 0.87166 0.0
C1548 C 0.25983 0.7576 0.8607 0.0
H1549 H 0.17406 0.82505 0.79798 0.0
H1550 H 0.20162 0.81372 0.81382 0.0
C1551 C 0.2722 0.74462 0.8678 0.0
C1552 C 0.23081 0.77622 0.86343 0.0
H1553 H 0.19799 0.77691 0.82957 0.0
C1554 C 0.22768 0.79391 0.87085 0.0
C1555 C 0.21985 0.76993 0.84849 0.0
C1556 C 0.22168 0.75063 0.8407 0.0
C1557 C 0.21402 0.80561 0.86346 0.0
C1558 C 0.20332 0.79937 0.84837 0.0
C1559 C 0.20645 0.78171 0.841 0.0
C1560 C 0.18814 0.81039 0.8403 0.0
C1561 C 0.21117 0.82456 0.87167 0.0
C1562 C 0.17162 0.81288 0.85016 0.0
C1563 C 0.15578 0.81928 0.84113 0.0
C1564 C 0.15622 0.82316 0.82206 0.0
C1565 C 0.1732 0.82207 0.81263 0.0
C1566 C 0.18899 0.81563 0.82166 0.0
H1567 H 0.22281 0.82867 0.88081 0.0
H1568 H 0.20959 0.83505 0.86056 0.0
H1569 H 0.19827 0.82457 0.87998 0.0
H1570 H 0.17065 0.80866 0.8645 0.0
H1571 H 0.14293 0.82 0.8488 0.0
H1572 H 0.51146 0.03744 0.11246 0.0
H1573 H 0.48977 0.01562 0.09857 0.0
H1574 H 0.48259 0.98886 0.1514 0.0
H1575 H 0.50398 0.01096 0.16554 0.0
H1576 H 0.49588 0.97892 0.09691 0.0
H1577 H 0.42956 0.99203 0.13319 0.0
H1578 H 0.44868 0.00809 0.13392 0.0
H1579 H 0.44869 0.98792 0.14846 0.0
C1580 C 0.50507 0.02708 0.1212 0.0
C1581 C 0.5095 0.02585 0.14008 0.0
C1582 C 0.49263 0.01466 0.11325 0.0
C1583 C 0.4844 0.00075 0.12399 0.0
C1584 C 0.48844 -0.00025 0.14295 0.0
H1585 H 0.43594 0.89639 0.09433 0.0
H1586 H 0.44602 0.92383 0.11137 0.0
C1587 C 0.50079 0.01229 0.15097 0.0
C1588 C 0.47325 0.98618 0.11487 0.0
H1589 H 0.43126 0.96443 0.11497 0.0
C1590 C 0.48169 0.97591 0.10074 0.0
C1591 C 0.45478 0.98219 0.12 0.0
C1592 C 0.44481 0.99324 0.13461 0.0
C1593 C 0.47229 0.96158 0.09176 0.0
C1594 C 0.45389 0.95751 0.09693 0.0
C1595 C 0.44536 0.96771 0.11105 0.0
C1596 C 0.44376 0.94225 0.08794 0.0
C1597 C 0.48222 0.9506 0.07702 0.0
C1598 C 0.43838 0.94382 0.06939 0.0
C1599 C 0.43267 0.92819 0.05958 0.0
C1600 C 0.43232 0.91076 0.06821 0.0
C1601 C 0.43619 0.90959 0.08724 0.0
C1602 C 0.4419 0.92525 0.09703 0.0
H1603 H 0.4973 0.95357 0.07675 0.0
H1604 H 0.4802 0.93554 0.07925 0.0
H1605 H 0.47639 0.95414 0.06328 0.0
H1606 H 0.43968 0.95691 0.06221 0.0
H1607 H 0.42962 0.92961 0.04499 0.0
H1608 H 0.7239 0.23426 0.56775 0.0
H1609 H 0.74776 0.25771 0.57326 0.0
H1610 H 0.74342 0.24847 0.63198 0.0
H1611 H 0.71962 0.22504 0.62668 0.0
H1612 H 0.74504 0.28819 0.61846 0.0
H1613 H 0.80083 0.24166 0.59245 0.0
H1614 H 0.78057 0.24495 0.57835 0.0
H1615 H 0.7787 0.23279 0.59987 0.0
C1616 C 0.72793 0.23731 0.58184 0.0
C1617 C 0.72 0.22768 0.59678 0.0
C1618 C 0.74154 0.2507 0.58494 0.0
C1619 C 0.74734 0.25469 0.603 0.0
C1620 C 0.73905 0.24555 0.61795 0.0
H1621 H 0.82483 0.30684 0.67053 0.0
H1622 H 0.79683 0.29683 0.65486 0.0
C1623 C 0.72554 0.23212 0.61488 0.0
C1624 C 0.76282 0.26754 0.60645 0.0
H1625 H 0.80989 0.26959 0.60599 0.0
C1626 C 0.75923 0.28432 0.6155 0.0
C1627 C 0.78124 0.26247 0.60237 0.0
C1628 C 0.78573 0.24447 0.5928 0.0
C1629 C 0.77372 0.29589 0.62123 0.0
C1630 C 0.79222 0.29024 0.61824 0.0
C1631 C 0.79572 0.27393 0.60827 0.0
C1632 C 0.8081 0.29955 0.62725 0.0
C1633 C 0.76906 0.31389 0.63069 0.0
C1634 C 0.82382 0.3045 0.61697 0.0
C1635 C 0.84005 0.31001 0.62596 0.0
C1636 C 0.84082 0.31052 0.64538 0.0
C1637 C 0.82473 0.30658 0.65556 0.0
C1638 C 0.80859 0.30102 0.64659 0.0
H1639 H 0.75567 0.31946 0.62563 0.0
H1640 H 0.76764 0.31143 0.64577 0.0
H1641 H 0.77998 0.32446 0.62845 0.0
H1642 H 0.82378 0.30336 0.60204 0.0
H1643 H 0.8522 0.31299 0.61772 0.0
H1644 H 0.01225 0.46198 0.88059 0.0
H1645 H 0.99233 0.48515 0.89495 0.0
H1646 H 0.98245 0.50994 0.8416 0.0
H1647 H 0.00204 0.48652 0.82703 0.0
H1648 H -0.00102 0.52188 0.89482 0.0
H1649 H 0.93055 0.50812 0.86293 0.0
H1650 H 0.94943 0.49181 0.86179 0.0
H1651 H 0.94882 0.51137 0.84644 0.0
C1652 C 0.00567 0.47222 0.87186 0.0
C1653 C 0.00876 0.47246 0.85267 0.0
C1654 C 0.99426 0.48542 0.88009 0.0
C1655 C 0.98571 0.49912 0.86932 0.0
C1656 C 0.98853 0.49924 0.85012 0.0
H1657 H 0.93969 0.60497 0.89921 0.0
H1658 H 0.9495 0.57744 0.8821 0.0
C1659 C -0.00014 0.48593 0.84184 0.0
C1660 C 0.9753 0.5142 0.87846 0.0
H1661 H 0.93351 0.53628 0.88001 0.0
C1662 C 0.98462 0.52491 0.89168 0.0
C1663 C 0.95659 0.51818 0.87426 0.0
C1664 C 0.94568 0.50666 0.86071 0.0
C1665 C 0.97584 0.53962 0.90068 0.0
C1666 C 0.95721 0.54366 0.89642 0.0
C1667 C 0.94781 0.53305 0.8832 0.0
C1668 C 0.94761 0.55912 0.90563 0.0
C1669 C 0.9866 0.55096 0.91453 0.0
C1670 C 0.94262 0.55763 0.92429 0.0
C1671 C 0.93704 0.57328 0.93412 0.0
C1672 C 0.93645 0.59067 0.92542 0.0
C1673 C 0.9401 0.5918 0.90634 0.0
C1674 C 0.94567 0.5761 0.89652 0.0
H1675 H 0.00161 0.54769 0.91431 0.0
H1676 H 0.98477 0.56596 0.91175 0.0
H1677 H 0.98125 0.54814 0.92864 0.0
H1678 H 0.94403 0.54456 0.93149 0.0
H1679 H 0.93419 0.5719 0.94876 0.0
H1680 H 0.67233 0.66361 0.19305 0.0
H1681 H 0.70195 0.67556 0.18184 0.0
H1682 H 0.6741 0.70199 0.13622 0.0
H1683 H 0.64461 0.68975 0.14694 0.0
H1684 H 0.70947 0.68997 0.12701 0.0
H1685 H 0.70887 0.73056 0.19251 0.0
H1686 H 0.70915 0.70585 0.19502 0.0
H1687 H 0.6893 0.71703 0.18509 0.0
C1688 C 0.67258 0.67153 0.18033 0.0
C1689 C 0.65606 0.67613 0.17114 0.0
C1690 C 0.68951 0.6784 0.174 0.0
C1691 C 0.6901 0.6901 0.15854 0.0
C1692 C 0.67391 0.69311 0.14829 0.0
H1693 H 0.74598 0.78864 0.13302 0.0
H1694 H 0.72595 0.76302 0.14201 0.0
C1695 C 0.65703 0.68613 0.15449 0.0
C1696 C 0.70671 0.70133 0.15438 0.0
H1697 H 0.73165 0.73789 0.17084 0.0
C1698 C 0.71458 0.70026 0.13667 0.0
C1699 C 0.71311 0.71491 0.16698 0.0
C1700 C 0.70463 0.71734 0.18592 0.0
C1701 C 0.72823 0.71286 0.13097 0.0
C1702 C 0.73426 0.72667 0.14344 0.0
C1703 C 0.72697 0.72722 0.16138 0.0
C1704 C 0.74668 0.74186 0.13767 0.0
C1705 C 0.73534 0.71196 0.11138 0.0
C1706 C 0.76502 0.73843 0.13237 0.0
C1707 C 0.77653 0.75309 0.12716 0.0
C1708 C 0.76988 0.77139 0.1273 0.0
C1709 C 0.75154 0.77473 0.13276 0.0
C1710 C 0.74007 0.7601 0.13791 0.0
H1711 H 0.72698 0.7025 0.10261 0.0
H1712 H 0.7353 0.72593 0.10498 0.0
H1713 H 0.74982 0.70687 0.11146 0.0
H1714 H 0.77046 0.72447 0.13241 0.0
H1715 H 0.79063 0.75008 0.12308 0.0
H1716 H 0.47497 0.49503 0.35224 0.0
H1717 H 0.50096 0.47587 0.36219 0.0
H1718 H 0.51896 0.51912 0.39911 0.0
H1719 H 0.49285 0.53836 0.38942 0.0
H1720 H 0.54043 0.48287 0.36218 0.0
H1721 H 0.51097 0.47354 0.43277 0.0
H1722 H 0.49742 0.48233 0.41375 0.0
H1723 H 0.51404 0.49696 0.42501 0.0
C1724 C 0.48447 0.50052 0.36244 0.0
C1725 C 0.48172 0.51814 0.3702 0.0
C1726 C 0.49936 0.48959 0.36803 0.0
C1727 C 0.51174 0.49605 0.38148 0.0
C1728 C 0.5094 0.51383 0.38886 0.0
H1729 H 0.58598 0.42445 0.44333 0.0
H1730 H 0.57471 0.45331 0.42983 0.0
C1731 C 0.49448 0.52478 0.3833 0.0
C1732 C 0.52642 0.48365 0.38845 0.0
H1733 H 0.53832 0.45771 0.42594 0.0
C1734 C 0.54016 0.4775 0.37618 0.0
C1735 C 0.52604 0.4768 0.40675 0.0
C1736 C 0.51129 0.48259 0.42036 0.0
C1737 C 0.55327 0.46425 0.38162 0.0
C1738 C 0.55234 0.45675 0.39966 0.0
C1739 C 0.53909 0.46354 0.41214 0.0
C1740 C 0.56328 0.4404 0.40538 0.0
C1741 C 0.56782 0.45826 0.36794 0.0
C1742 C 0.56129 0.42366 0.39573 0.0
C1743 C 0.5678 0.40717 0.40335 0.0
C1744 C 0.57616 0.40707 0.42091 0.0
C1745 C 0.57948 0.42403 0.42984 0.0
C1746 C 0.57305 0.44055 0.42215 0.0
H1747 H 0.57105 0.46954 0.35801 0.0
H1748 H 0.58078 0.45401 0.37499 0.0
H1749 H 0.56253 0.44633 0.35986 0.0
H1750 H 0.55348 0.4231 0.38297 0.0
H1751 H 0.56504 0.39436 0.39608 0.0
H1752 H 0.41114 0.21234 0.24452 0.0
H1753 H 0.40203 0.23536 0.22134 0.0
H1754 H 0.35622 0.25191 0.25579 0.0
H1755 H 0.36486 0.22877 0.27867 0.0
H1756 H 0.34657 0.24905 0.21925 0.0
H1757 H 0.41096 0.29055 0.22757 0.0
H1758 H 0.41382 0.26681 0.22078 0.0
H1759 H 0.40487 0.2722 0.24332 0.0
C1760 C 0.39908 0.22085 0.2471 0.0
C1761 C 0.38881 0.21885 0.2635 0.0
C1762 C 0.39395 0.23403 0.23388 0.0
C1763 C 0.37862 0.24552 0.23698 0.0
C1764 C 0.3681 0.24318 0.25312 0.0
H1765 H 0.34397 0.35213 0.21783 0.0
H1766 H 0.35939 0.32317 0.2251 0.0
C1767 C 0.37311 0.22997 0.26622 0.0
C1768 C 0.37361 0.26053 0.22397 0.0
H1769 H 0.3875 0.30316 0.20921 0.0
C1770 C 0.3556 0.26077 0.21674 0.0
C1771 C 0.38548 0.27576 0.22076 0.0
C1772 C 0.40482 0.27649 0.22858 0.0
C1773 C 0.34868 0.27633 0.20746 0.0
C1774 C 0.36028 0.2919 0.20497 0.0
C1775 C 0.37869 0.29116 0.21109 0.0
C1776 C 0.35275 0.31001 0.19905 0.0
C1777 C 0.32862 0.27649 0.20164 0.0
C1778 C 0.34434 0.31245 0.18172 0.0
C1779 C 0.33528 0.32907 0.17754 0.0
C1780 C 0.33465 0.34347 0.19061 0.0
C1781 C 0.34402 0.34128 0.2075 0.0
C1782 C 0.35294 0.32473 0.21166 0.0
H1783 H 0.32086 0.26444 0.20719 0.0
H1784 H 0.32171 0.28935 0.20642 0.0
H1785 H 0.32776 0.27606 0.18633 0.0
H1786 H 0.34435 0.30136 0.17165 0.0
H1787 H 0.32832 0.33039 0.16435 0.0
H1788 H 0.82838 0.16885 0.84192 0.0
H1789 H 0.84201 0.19857 0.83295 0.0
H1790 H 0.8699 0.172 0.7874 0.0
H1791 H 0.85704 0.14235 0.7966 0.0
H1792 H 0.89077 0.19932 0.80183 0.0
H1793 H 0.81899 0.22432 0.7892 0.0
H1794 H 0.82432 0.21805 0.81261 0.0
H1795 H 0.82392 0.20058 0.79492 0.0
C1796 C 0.83775 0.16929 0.83024 0.0
C1797 C 0.84132 0.1533 0.81975 0.0
C1798 C 0.84543 0.18631 0.82507 0.0
C1799 C 0.85652 0.18759 0.80918 0.0
C1800 C 0.86127 0.17138 0.79963 0.0
H1801 H 0.86437 0.26094 0.72068 0.0
H1802 H 0.85778 0.23832 0.74476 0.0
C1803 C 0.85382 0.15441 0.80489 0.0
C1804 C 0.86172 0.20572 0.8011 0.0
H1805 H 0.84316 0.24301 0.77888 0.0
C1806 C 0.88042 0.20907 0.79706 0.0
C1807 C 0.84812 0.21832 0.79478 0.0
C1808 C 0.82771 0.21516 0.79793 0.0
C1809 C 0.88581 0.22406 0.78595 0.0
C1810 C 0.87213 0.23628 0.77913 0.0
C1811 C 0.85359 0.23359 0.78415 0.0
C1812 C 0.8763 0.25047 0.76493 0.0
C1813 C 0.90591 0.22595 0.78062 0.0
C1814 C 0.88883 0.26491 0.76829 0.0
C1815 C 0.8928 0.2778 0.7544 0.0
C1816 C 0.88409 0.27658 0.73705 0.0
C1817 C 0.87129 0.2623 0.7339 0.0
C1818 C 0.86749 0.24937 0.74767 0.0
H1819 H 0.91403 0.21338 0.78412 0.0
H1820 H 0.90731 0.22864 0.76557 0.0
H1821 H 0.91206 0.23782 0.78816 0.0
H1822 H 0.89548 0.26625 0.78164 0.0
H1823 H 0.9026 0.28877 0.75729 0.0
H1824 H 0.98467 0.61652 0.97728 0.0
H1825 H 0.00862 0.60682 -0.00121 0.0
H1826 H 0.99666 0.6537 0.03372 0.0
H1827 H 0.97282 0.66385 0.01186 0.0
H1828 H 0.03256 0.65093 0.02795 0.0
H1829 H 0.00746 0.58207 0.04819 0.0
H1830 H 0.00753 0.58363 0.02349 0.0
H1831 H 0.99273 0.5987 0.03678 0.0
C1832 C 0.98693 0.62468 0.98964 0.0
C1833 C 0.97685 0.64098 0.99284 0.0
C1834 C 0.00053 0.61899 0.00206 0.0
C1835 C 0.00416 0.62927 0.01812 0.0
C1836 C 0.99395 0.64544 0.02152 0.0
H1837 H 0.09692 0.57363 0.07307 0.0
H1838 H 0.06749 0.59059 0.07271 0.0
C1839 C 0.98037 0.65123 0.009 0.0
C1840 C 0.01993 0.62399 0.03013 0.0
H1841 H 0.04128 0.58582 0.04771 0.0
C1842 C 0.03427 0.63682 0.03275 0.0
C1843 C 0.02202 0.60578 0.03698 0.0
C1844 C 0.00647 0.59187 0.03639 0.0
C1845 C 0.05133 0.63137 0.0402 0.0
C1846 C 0.05423 0.61253 0.04464 0.0
C1847 C 0.03924 0.6002 0.04393 0.0
C1848 C 0.07307 0.60475 0.04692 0.0
C1849 C 0.0663 0.64571 0.04248 0.0
C1850 C 0.08604 0.60725 0.03272 0.0
C1851 C 0.10274 0.59767 0.0329 0.0
C1852 C 0.10679 0.58516 0.0472 0.0
C1853 C 0.09419 0.58321 0.06189 0.0
C1854 C 0.07739 0.59287 0.06169 0.0
H1855 H 0.06025 0.65934 0.0462 0.0
H1856 H 0.07644 0.64168 0.05328 0.0
H1857 H 0.07371 0.64746 0.02915 0.0
H1858 H 0.08287 0.61588 0.02089 0.0
H1859 H 0.11214 0.59953 0.02139 0.0
H1860 H 0.64301 0.84992 0.31883 0.0
H1861 H 0.62427 0.82314 0.31013 0.0
H1862 H 0.67393 0.79158 0.30025 0.0
H1863 H 0.69269 0.818 0.30936 0.0
H1864 H 0.62521 0.80986 0.27596 0.0
H1865 H 0.64202 0.75277 0.3237 0.0
H1866 H 0.6475 0.77658 0.32893 0.0
H1867 H 0.6627 0.76297 0.3146 0.0
C1868 C 0.64993 0.8371 0.31534 0.0
C1869 C 0.66935 0.83614 0.3146 0.0
C1870 C 0.63919 0.82181 0.31038 0.0
C1871 C 0.64767 0.8053 0.30466 0.0
C1872 C 0.66704 0.80399 0.30502 0.0
H1873 H 0.6318 0.7178 0.22996 0.0
H1874 H 0.64159 0.74025 0.25324 0.0
C1875 C 0.67777 0.81921 0.31009 0.0
C1876 C 0.63665 0.79058 0.29559 0.0
H1877 H 0.63134 0.74371 0.29307 0.0
C1878 C 0.62615 0.79544 0.27999 0.0
C1879 C 0.63793 0.77176 0.30081 0.0
C1880 C 0.648 0.76576 0.31805 0.0
C1881 C 0.6179 0.78193 0.26881 0.0
C1882 C 0.62007 0.76308 0.27346 0.0
C1883 C 0.6298 0.75821 0.28952 0.0
C1884 C 0.6138 0.7483 0.26083 0.0
C1885 C 0.60782 0.78783 0.2515 0.0
C1886 C 0.59491 0.74523 0.25767 0.0
C1887 C 0.58924 0.73242 0.24434 0.0
C1888 C 0.6024 0.72254 0.23396 0.0
C1889 C 0.62131 0.72527 0.23762 0.0
C1890 C 0.62694 0.73801 0.25098 0.0
H1891 H 0.60954 0.80283 0.24859 0.0
H1892 H 0.61288 0.77986 0.23939 0.0
H1893 H 0.59284 0.78493 0.2531 0.0
H1894 H 0.58459 0.75299 0.26527 0.0
H1895 H 0.57458 0.73055 0.24191 0.0
H1896 H 0.43329 0.4487 0.5589 0.0
H1897 H 0.45958 0.43031 0.54845 0.0
H1898 H 0.43039 0.38022 0.56253 0.0
H1899 H 0.40372 0.39852 0.5725 0.0
H1900 H 0.48282 0.40351 0.5625 0.0
H1901 H 0.43762 0.37487 0.50715 0.0
H1902 H 0.43045 0.39373 0.52178 0.0
H1903 H 0.42996 0.37038 0.53033 0.0
C1904 C 0.43256 0.43379 0.56011 0.0
C1905 C 0.41628 0.42505 0.56617 0.0
C1906 C 0.44762 0.42329 0.55414 0.0
C1907 C 0.44672 0.40391 0.55426 0.0
C1908 C 0.43115 0.39517 0.56187 0.0
H1909 H 0.51958 0.32927 0.4925 0.0
H1910 H 0.49761 0.34054 0.51569 0.0
C1911 C 0.41598 0.40565 0.56765 0.0
C1912 C 0.46129 0.39309 0.54474 0.0
H1913 H 0.46873 0.36581 0.50692 0.0
C1914 C 0.47974 0.3951 0.55047 0.0
C1915 C 0.45722 0.3822 0.52897 0.0
C1916 C 0.43778 0.38024 0.52155 0.0
C1917 C 0.49426 0.3868 0.54061 0.0
C1918 C 0.49019 0.37637 0.5246 0.0
C1919 C 0.47174 0.37377 0.51928 0.0
C1920 C 0.50482 0.36936 0.51216 0.0
C1921 C 0.51387 0.38946 0.54722 0.0
C1922 C 0.51608 0.38187 0.50252 0.0
C1923 C 0.5285 0.37552 0.48917 0.0
C1924 C 0.52986 0.35652 0.48523 0.0
C1925 C 0.51886 0.34398 0.49523 0.0
C1926 C 0.50634 0.35037 0.5085 0.0
H1927 H 0.51434 0.39327 0.5621 0.0
H1928 H 0.52217 0.37671 0.54508 0.0
H1929 H 0.52039 0.40081 0.53921 0.0
H1930 H 0.51483 0.39662 0.50488 0.0
H1931 H 0.53679 0.38554 0.48173 0.0
H1932 H 0.19775 0.67597 0.67268 0.0
H1933 H 0.18465 0.70408 0.68622 0.0
H1934 H 0.13565 0.67384 0.7018 0.0
H1935 H 0.14835 0.64586 0.68792 0.0
H1936 H 0.12821 0.71049 0.69225 0.0
H1937 H 0.18604 0.70491 0.74273 0.0
H1938 H 0.19292 0.70756 0.71902 0.0
H1939 H 0.18098 0.68696 0.72619 0.0
C1940 C 0.18398 0.67541 0.67854 0.0
C1941 C 0.17427 0.65859 0.6796 0.0
C1942 C 0.17655 0.69147 0.68635 0.0
C1943 C 0.15944 0.69086 0.69548 0.0
C1944 C 0.14897 0.67455 0.69496 0.0
H1945 H 0.12244 0.74634 0.79264 0.0
H1946 H 0.13304 0.72524 0.76849 0.0
C1947 C 0.15629 0.65854 0.68703 0.0
C1948 C 0.15341 0.70628 0.70752 0.0
H1949 H 0.16449 0.72863 0.74759 0.0
C1950 C 0.13619 0.71464 0.70425 0.0
C1951 C 0.16375 0.71136 0.72336 0.0
C1952 C 0.18187 0.70216 0.7282 0.0
C1953 C 0.1289 0.72778 0.71657 0.0
C1954 C 0.13927 0.73283 0.73238 0.0
C1955 C 0.15663 0.72475 0.73541 0.0
C1956 C 0.13202 0.74564 0.74661 0.0
C1957 C 0.10987 0.73556 0.71299 0.0
C1958 C 0.12798 0.76412 0.7423 0.0
C1959 C 0.12183 0.77621 0.75608 0.0
C1960 C 0.11981 0.77004 0.77443 0.0
C1961 C 0.12388 0.75153 0.77867 0.0
C1962 C 0.12993 0.73945 0.76488 0.0
H1963 H 0.10212 0.72723 0.70267 0.0
H1964 H 0.10169 0.73618 0.72597 0.0
H1965 H 0.11121 0.74985 0.70754 0.0
H1966 H 0.12988 0.76926 0.72837 0.0
H1967 H 0.11891 0.79043 0.75239 0.0
H1968 H 0.47406 0.83479 0.98529 0.0
H1969 H 0.49828 0.84443 0.96355 0.0
H1970 H 0.5049 0.89557 0.99346 0.0
H1971 H 0.48077 0.88619 0.01517 0.0
H1972 H 0.50139 0.88258 0.94198 0.0
H1973 H 0.55678 0.86527 0.99247 0.0
H1974 H 0.53408 0.85484 0.99328 0.0
H1975 H 0.53737 0.87808 0.00137 0.0
C1976 C 0.48058 0.84815 0.98716 0.0
C1977 C 0.4756 0.85967 0.00204 0.0
C1978 C 0.49433 0.85363 0.97469 0.0
C1979 C 0.50333 0.87064 0.97702 0.0
C1980 C 0.49807 0.88236 0.99153 0.0
H1981 H 0.57601 0.94465 0.92523 0.0
H1982 H 0.54881 0.92648 0.93331 0.0
C1983 C 0.48431 0.87696 0.00391 0.0
C1984 C 0.51898 0.87589 0.96504 0.0
H1985 H 0.56548 0.88319 0.96647 0.0
C1986 C 0.51547 0.88249 0.94714 0.0
C1987 C 0.53728 0.87546 0.97179 0.0
C1988 C 0.54174 0.86791 0.99073 0.0
C1989 C 0.52983 0.88961 0.93613 0.0
C1990 C 0.548 0.89025 0.94337 0.0
C1991 C 0.55156 0.88271 0.9609 0.0
C1992 C 0.56328 0.90027 0.93407 0.0
C1993 C 0.52537 0.89663 0.91702 0.0
C1994 C 0.5804 0.89154 0.93133 0.0
C1995 C 0.59607 0.90195 0.92689 0.0
C1996 C 0.59489 0.9213 0.92525 0.0
C1997 C 0.57743 0.92979 0.92644 0.0
C1998 C 0.56178 0.91937 0.93094 0.0
H1999 H 0.51301 0.88954 0.91124 0.0
H2000 H 0.52223 0.91163 0.91777 0.0
H2001 H 0.53719 0.89462 0.90742 0.0
H2002 H 0.58186 0.87682 0.93371 0.0
H2003 H 0.60929 0.89496 0.92596 0.0
H2004 H 0.92516 0.05422 0.41635 0.0
H2005 H 0.95303 0.06999 0.42719 0.0
H2006 H 0.92097 0.11872 0.43944 0.0
H2007 H 0.89296 0.10313 0.42862 0.0
H2008 H 0.9612 0.12334 0.42413 0.0
H2009 H 0.95141 0.0784 0.48598 0.0
H2010 H 0.9514 0.06728 0.46372 0.0
H2011 H 0.93301 0.08282 0.46971 0.0
C2012 C 0.92408 0.06846 0.42086 0.0
C2013 C 0.90678 0.0773 0.42196 0.0
C2014 C 0.94003 0.07745 0.42701 0.0
C2015 C 0.93893 0.09538 0.43428 0.0
C2016 C 0.92203 0.10485 0.43386 0.0
H2017 H 0.00682 0.16722 0.50108 0.0
H2018 H 0.98562 0.15475 0.47788 0.0
C2019 C 0.90604 0.09589 0.42771 0.0
C2020 C 0.95457 0.10308 0.44489 0.0
H2021 H 0.9765 0.09885 0.48638 0.0
C2022 C 0.96469 0.11798 0.4377 0.0
C2023 C 0.95894 0.09602 0.46258 0.0
C2024 C 0.9481 0.08033 0.4711 0.0
C2025 C 0.97929 0.12596 0.44779 0.0
C2026 C 0.98347 0.11906 0.46563 0.0
C2027 C 0.97336 0.10406 0.47267 0.0
C2028 C 0.99779 0.12738 0.4777 0.0
C2029 C 0.9902 0.14152 0.43918 0.0
C2030 C 0.01161 0.11614 0.4854 0.0
C2031 C 0.02349 0.12312 0.49891 0.0
C2032 C 0.02182 0.14152 0.50494 0.0
C2033 C 0.00848 0.153 0.49667 0.0
C2034 C 0.99646 0.14594 0.48328 0.0
H2035 H 0.98923 0.14124 0.42385 0.0
H2036 H 0.9845 0.15493 0.444 0.0
H2037 H 0.005 0.14083 0.4432 0.0
H2038 H 0.01284 0.10176 0.48135 0.0
H2039 H 0.03371 0.11396 0.50492 0.0
loop_
_geom_bond_atom_site_label_1
_geom_bond_atom_site_label_2
_geom_bond_distance
_geom_bond_site_symmetry_2
_ccdc_geom_bond_type
C0 O1 1.160 . S
C0 O7 1.185 . S
O1 C0 1.160 . S
O2 Zn3 1.899 . S
O2 C10 1.284 . S
Zn3 O2 1.899 . S
Zn3 O4 2.032 . S
Zn3 O7 2.086 . S
Zn3 O12 1.977 . S
O4 Zn3 2.032 . S
O4 C8 1.278 . S
C5 O6 1.203 . S
C5 O12 1.267 . S
O6 C5 1.203 . S
O7 C0 1.185 . S
O7 Zn3 2.086 . S
C8 O4 1.278 . S
C8 O9 1.211 . S
O9 C8 1.211 . S
C10 O2 1.284 . S
C10 O11 1.273 . S
O11 C10 1.273 . S
O12 Zn3 1.977 . S
O12 C5 1.267 . S
C13 O14 1.160 . S
C13 O20 1.185 . S
O14 C13 1.160 . S
O15 Zn16 1.899 . S
O15 C23 1.284 . S
Zn16 O15 1.899 . S
Zn16 O17 2.032 . S
Zn16 O20 2.086 . S
Zn16 O25 1.977 . S
O17 Zn16 2.032 . S
O17 C21 1.278 . S
C18 O19 1.203 . S
C18 O25 1.267 . S
O19 C18 1.203 . S
O20 C13 1.185 . S
O20 Zn16 2.086 . S
C21 O17 1.278 . S
C21 O22 1.211 . S
O22 C21 1.211 . S
C23 O15 1.284 . S
C23 O24 1.273 . S
O24 C23 1.273 . S
O25 Zn16 1.977 . S
O25 C18 1.267 . S
C26 O27 1.160 . S
C26 O33 1.185 . S
O27 C26 1.160 . S
O28 Zn29 1.899 . S
O28 C36 1.284 . S
Zn29 O28 1.899 . S
Zn29 O30 2.032 . S
Zn29 O33 2.086 . S
Zn29 O38 1.977 . S
O30 Zn29 2.032 . S
O30 C34 1.278 . S
C31 O32 1.203 . S
C31 O38 1.267 . S
O32 C31 1.203 . S
O33 C26 1.185 . S
O33 Zn29 2.086 . S
C34 O30 1.278 . S
C34 O35 1.211 . S
O35 C34 1.211 . S
C36 O28 1.284 . S
C36 O37 1.273 . S
O37 C36 1.273 . S
O38 Zn29 1.977 . S
O38 C31 1.267 . S
C39 O40 1.160 . S
C39 O46 1.185 . S
O40 C39 1.160 . S
O41 Zn42 1.899 . S
O41 C49 1.284 . S
Zn42 O41 1.899 . S
Zn42 O43 2.032 . S
Zn42 O46 2.086 . S
Zn42 O51 1.977 . S
O43 Zn42 2.032 . S
O43 C47 1.278 . S
C44 O45 1.203 . S
C44 O51 1.267 . S
O45 C44 1.203 . S
O46 C39 1.185 . S
O46 Zn42 2.086 . S
C47 O43 1.278 . S
C47 O48 1.211 . S
O48 C47 1.211 . S
C49 O41 1.284 . S
C49 O50 1.273 . S
O50 C49 1.273 . S
O51 Zn42 1.977 . S
O51 C44 1.267 . S
C52 O53 1.160 . S
C52 O59 1.185 . S
O53 C52 1.160 . S
O54 Zn55 1.899 . S
O54 C62 1.284 . S
Zn55 O54 1.899 . S
Zn55 O56 2.032 . S
Zn55 O59 2.086 . S
Zn55 O64 1.977 . S
O56 Zn55 2.032 . S
O56 C60 1.278 . S
C57 O58 1.203 . S
C57 O64 1.267 . S
O58 C57 1.203 . S
O59 C52 1.185 . S
O59 Zn55 2.086 . S
C60 O56 1.278 . S
C60 O61 1.211 . S
O61 C60 1.211 . S
C62 O54 1.284 . S
C62 O63 1.273 . S
O63 C62 1.273 . S
O64 Zn55 1.977 . S
O64 C57 1.267 . S
C65 O66 1.160 . S
C65 O72 1.185 . S
O66 C65 1.160 . S
O67 Zn68 1.899 . S
O67 C75 1.284 . S
Zn68 O67 1.899 . S
Zn68 O69 2.032 . S
Zn68 O72 2.086 . S
Zn68 O77 1.977 . S
O69 Zn68 2.032 . S
O69 C73 1.278 . S
C70 O71 1.203 . S
C70 O77 1.267 . S
O71 C70 1.203 . S
O72 C65 1.185 . S
O72 Zn68 2.086 . S
C73 O69 1.278 . S
C73 O74 1.211 . S
O74 C73 1.211 . S
C75 O67 1.284 . S
C75 O76 1.273 . S
O76 C75 1.273 . S
O77 Zn68 1.977 . S
O77 C70 1.267 . S
C78 O79 1.160 . S
C78 O85 1.185 . S
O79 C78 1.160 . S
O80 Zn81 1.899 . S
O80 C88 1.284 . S
Zn81 O80 1.899 . S
Zn81 O82 2.032 . S
Zn81 O85 2.086 . S
Zn81 O90 1.977 . S
O82 Zn81 2.032 . S
O82 C86 1.278 . S
C83 O84 1.203 . S
C83 O90 1.267 . S
O84 C83 1.203 . S
O85 C78 1.185 . S
O85 Zn81 2.086 . S
C86 O82 1.278 . S
C86 O87 1.211 . S
O87 C86 1.211 . S
C88 O80 1.284 . S
C88 O89 1.273 . S
O89 C88 1.273 . S
O90 Zn81 1.977 . S
O90 C83 1.267 . S
C91 O92 1.160 . S
C91 O98 1.185 . S
O92 C91 1.160 . S
O93 Zn94 1.899 . S
O93 C101 1.284 . S
Zn94 O93 1.899 . S
Zn94 O95 2.032 . S
Zn94 O98 2.086 . S
Zn94 O103 1.977 . S
O95 Zn94 2.032 . S
O95 C99 1.278 . S
C96 O97 1.203 . S
C96 O103 1.267 . S
O97 C96 1.203 . S
O98 C91 1.185 . S
O98 Zn94 2.086 . S
C99 O95 1.278 . S
C99 O100 1.211 . S
O100 C99 1.211 . S
C101 O93 1.284 . S
C101 O102 1.273 . S
O102 C101 1.273 . S
O103 Zn94 1.977 . S
O103 C96 1.267 . S
C104 O105 1.160 . S
C104 O111 1.185 . S
O105 C104 1.160 . S
O106 Zn107 1.899 . S
O106 C114 1.284 . S
Zn107 O106 1.899 . S
Zn107 O108 2.032 . S
Zn107 O111 2.086 . S
Zn107 O116 1.977 . S
O108 Zn107 2.032 . S
O108 C112 1.278 . S
C109 O110 1.203 . S
C109 O116 1.267 . S
O110 C109 1.203 . S
O111 C104 1.185 . S
O111 Zn107 2.086 . S
C112 O108 1.278 . S
C112 O113 1.211 . S
O113 C112 1.211 . S
C114 O106 1.284 . S
C114 O115 1.273 . S
O115 C114 1.273 . S
O116 Zn107 1.977 . S
O116 C109 1.267 . S
C117 O118 1.160 . S
C117 O124 1.185 . S
O118 C117 1.160 . S
O119 Zn120 1.899 . S
O119 C127 1.284 . S
Zn120 O119 1.899 . S
Zn120 O121 2.032 . S
Zn120 O124 2.086 . S
Zn120 O129 1.977 . S
O121 Zn120 2.032 . S
O121 C125 1.278 . S
C122 O123 1.203 . S
C122 O129 1.267 . S
O123 C122 1.203 . S
O124 C117 1.185 . S
O124 Zn120 2.086 . S
C125 O121 1.278 . S
C125 O126 1.211 . S
O126 C125 1.211 . S
C127 O119 1.284 . S
C127 O128 1.273 . S
O128 C127 1.273 . S
O129 Zn120 1.977 . S
O129 C122 1.267 . S
C130 O131 1.160 . S
C130 O137 1.185 . S
O131 C130 1.160 . S
O132 Zn133 1.899 . S
O132 C140 1.284 . S
Zn133 O132 1.899 . S
Zn133 O134 2.032 . S
Zn133 O137 2.086 . S
Zn133 O142 1.977 . S
O134 Zn133 2.032 . S
O134 C138 1.278 . S
C135 O136 1.203 . S
C135 O142 1.267 . S
O136 C135 1.203 . S
O137 C130 1.185 . S
O137 Zn133 2.086 . S
C138 O134 1.278 . S
C138 O139 1.211 . S
O139 C138 1.211 . S
C140 O132 1.284 . S
C140 O141 1.273 . S
O141 C140 1.273 . S
O142 Zn133 1.977 . S
O142 C135 1.267 . S
C143 O144 1.160 . S
C143 O150 1.185 . S
O144 C143 1.160 . S
O145 Zn146 1.899 . S
O145 C153 1.284 . S
Zn146 O145 1.899 . S
Zn146 O147 2.032 . S
Zn146 O150 2.086 . S
Zn146 O155 1.977 . S
O147 Zn146 2.032 . S
O147 C151 1.278 . S
C148 O149 1.203 . S
C148 O155 1.267 . S
O149 C148 1.203 . S
O150 C143 1.185 . S
O150 Zn146 2.086 . S
C151 O147 1.278 . S
C151 O152 1.211 . S
O152 C151 1.211 . S
C153 O145 1.284 . S
C153 O154 1.273 . S
O154 C153 1.273 . S
O155 Zn146 1.977 . S
O155 C148 1.267 . S
C156 O157 1.160 . S
C156 O163 1.185 . S
O157 C156 1.160 . S
O158 Zn159 1.899 . S
O158 C166 1.284 . S
Zn159 O158 1.899 . S
Zn159 O160 2.032 . S
Zn159 O163 2.086 . S
Zn159 O168 1.977 . S
O160 Zn159 2.032 . S
O160 C164 1.278 . S
C161 O162 1.203 . S
C161 O168 1.267 . S
O162 C161 1.203 . S
O163 C156 1.185 . S
O163 Zn159 2.086 . S
C164 O160 1.278 . S
C164 O165 1.211 . S
O165 C164 1.211 . S
C166 O158 1.284 . S
C166 O167 1.273 . S
O167 C166 1.273 . S
O168 Zn159 1.977 . S
O168 C161 1.267 . S
C169 O170 1.160 . S
C169 O176 1.185 . S
O170 C169 1.160 . S
O171 Zn172 1.899 . S
O171 C179 1.284 . S
Zn172 O171 1.899 . S
Zn172 O173 2.032 . S
Zn172 O176 2.086 . S
Zn172 O181 1.977 . S
O173 Zn172 2.032 . S
O173 C177 1.278 . S
C174 O175 1.203 . S
C174 O181 1.267 . S
O175 C174 1.203 . S
O176 C169 1.185 . S
O176 Zn172 2.086 . S
C177 O173 1.278 . S
C177 O178 1.211 . S
O178 C177 1.211 . S
C179 O171 1.284 . S
C179 O180 1.273 . S
O180 C179 1.273 . S
O181 Zn172 1.977 . S
O181 C174 1.267 . S
C182 O183 1.160 . S
C182 O189 1.185 . S
O183 C182 1.160 . S
O184 Zn185 1.899 . S
O184 C192 1.284 . S
Zn185 O184 1.899 . S
Zn185 O186 2.032 . S
Zn185 O189 2.086 . S
Zn185 O194 1.977 . S
O186 Zn185 2.032 . S
O186 C190 1.278 . S
C187 O188 1.203 . S
C187 O194 1.267 . S
O188 C187 1.203 . S
O189 C182 1.185 . S
O189 Zn185 2.086 . S
C190 O186 1.278 . S
C190 O191 1.211 . S
O191 C190 1.211 . S
C192 O184 1.284 . S
C192 O193 1.273 . S
O193 C192 1.273 . S
O194 Zn185 1.977 . S
O194 C187 1.267 . S
C195 O196 1.160 . S
C195 O202 1.185 . S
O196 C195 1.160 . S
O197 Zn198 1.899 . S
O197 C205 1.284 . S
Zn198 O197 1.899 . S
Zn198 O199 2.032 . S
Zn198 O202 2.086 . S
Zn198 O207 1.977 . S
O199 Zn198 2.032 . S
O199 C203 1.278 . S
C200 O201 1.203 . S
C200 O207 1.267 . S
O201 C200 1.203 . S
O202 C195 1.185 . S
O202 Zn198 2.086 . S
C203 O199 1.278 . S
C203 O204 1.211 . S
O204 C203 1.211 . S
C205 O197 1.284 . S
C205 O206 1.273 . S
O206 C205 1.273 . S
O207 Zn198 1.977 . S
O207 C200 1.267 . S
C208 O209 1.160 . S
C208 O215 1.185 . S
O209 C208 1.160 . S
O210 Zn211 1.899 . S
O210 C218 1.284 . S
Zn211 O210 1.899 . S
Zn211 O212 2.032 . S
Zn211 O215 2.086 . S
Zn211 O220 1.977 . S
O212 Zn211 2.032 . S
O212 C216 1.278 . S
C213 O214 1.203 . S
C213 O220 1.267 . S
O214 C213 1.203 . S
O215 C208 1.185 . S
O215 Zn211 2.086 . S
C216 O212 1.278 . S
C216 O217 1.211 . S
O217 C216 1.211 . S
C218 O210 1.284 . S
C218 O219 1.273 . S
O219 C218 1.273 . S
O220 Zn211 1.977 . S
O220 C213 1.267 . S
C221 O222 1.160 . S
C221 O228 1.185 . S
O222 C221 1.160 . S
O223 Zn224 1.899 . S
O223 C231 1.284 . S
Zn224 O223 1.899 . S
Zn224 O225 2.032 . S
Zn224 O228 2.086 . S
Zn224 O233 1.977 . S
O225 Zn224 2.032 . S
O225 C229 1.278 . S
C226 O227 1.203 . S
C226 O233 1.267 . S
O227 C226 1.203 . S
O228 C221 1.185 . S
O228 Zn224 2.086 . S
C229 O225 1.278 . S
C229 O230 1.211 . S
O230 C229 1.211 . S
C231 O223 1.284 . S
C231 O232 1.273 . S
O232 C231 1.273 . S
O233 Zn224 1.977 . S
O233 C226 1.267 . S
C234 O235 1.160 . S
C234 O241 1.185 . S
O235 C234 1.160 . S
O236 Zn237 1.899 . S
O236 C244 1.284 . S
Zn237 O236 1.899 . S
Zn237 O238 2.032 . S
Zn237 O241 2.086 . S
Zn237 O246 1.977 . S
O238 Zn237 2.032 . S
O238 C242 1.278 . S
C239 O240 1.203 . S
C239 O246 1.267 . S
O240 C239 1.203 . S
O241 C234 1.185 . S
O241 Zn237 2.086 . S
C242 O238 1.278 . S
C242 O243 1.211 . S
O243 C242 1.211 . S
C244 O236 1.284 . S
C244 O245 1.273 . S
O245 C244 1.273 . S
O246 Zn237 1.977 . S
O246 C239 1.267 . S
C247 O248 1.160 . S
C247 O254 1.185 . S
O248 C247 1.160 . S
O249 Zn250 1.899 . S
O249 C257 1.284 . S
Zn250 O249 1.899 . S
Zn250 O251 2.032 . S
Zn250 O254 2.086 . S
Zn250 O259 1.977 . S
O251 Zn250 2.032 . S
O251 C255 1.278 . S
C252 O253 1.203 . S
C252 O259 1.267 . S
O253 C252 1.203 . S
O254 C247 1.185 . S
O254 Zn250 2.086 . S
C255 O251 1.278 . S
C255 O256 1.211 . S
O256 C255 1.211 . S
C257 O249 1.284 . S
C257 O258 1.273 . S
O258 C257 1.273 . S
O259 Zn250 1.977 . S
O259 C252 1.267 . S
C260 O261 1.160 . S
C260 O267 1.185 . S
O261 C260 1.160 . S
O262 Zn263 1.899 . S
O262 C270 1.284 . S
Zn263 O262 1.899 . S
Zn263 O264 2.032 . S
Zn263 O267 2.086 . S
Zn263 O272 1.977 . S
O264 Zn263 2.032 . S
O264 C268 1.278 . S
C265 O266 1.203 . S
C265 O272 1.267 . S
O266 C265 1.203 . S
O267 C260 1.185 . S
O267 Zn263 2.086 . S
C268 O264 1.278 . S
C268 O269 1.211 . S
O269 C268 1.211 . S
C270 O262 1.284 . S
C270 O271 1.273 . S
O271 C270 1.273 . S
O272 Zn263 1.977 . S
O272 C265 1.267 . S
C273 O274 1.160 . S
C273 O280 1.185 . S
O274 C273 1.160 . S
O275 Zn276 1.899 . S
O275 C283 1.284 . S
Zn276 O275 1.899 . S
Zn276 O277 2.032 . S
Zn276 O280 2.086 . S
Zn276 O285 1.977 . S
O277 Zn276 2.032 . S
O277 C281 1.278 . S
C278 O279 1.203 . S
C278 O285 1.267 . S
O279 C278 1.203 . S
O280 C273 1.185 . S
O280 Zn276 2.086 . S
C281 O277 1.278 . S
C281 O282 1.211 . S
O282 C281 1.211 . S
C283 O275 1.284 . S
C283 O284 1.273 . S
O284 C283 1.273 . S
O285 Zn276 1.977 . S
O285 C278 1.267 . S
C286 O287 1.160 . S
C286 O293 1.185 . S
O287 C286 1.160 . S
O288 Zn289 1.899 . S
O288 C296 1.284 . S
Zn289 O288 1.899 . S
Zn289 O290 2.032 . S
Zn289 O293 2.086 . S
Zn289 O298 1.977 . S
O290 Zn289 2.032 . S
O290 C294 1.278 . S
C291 O292 1.203 . S
C291 O298 1.267 . S
O292 C291 1.203 . S
O293 C286 1.185 . S
O293 Zn289 2.086 . S
C294 O290 1.278 . S
C294 O295 1.211 . S
O295 C294 1.211 . S
C296 O288 1.284 . S
C296 O297 1.273 . S
O297 C296 1.273 . S
O298 Zn289 1.977 . S
O298 C291 1.267 . S
C299 O300 1.160 . S
C299 O306 1.185 . S
O300 C299 1.160 . S
O301 Zn302 1.899 . S
O301 C309 1.284 . S
Zn302 O301 1.899 . S
Zn302 O303 2.032 . S
Zn302 O306 2.086 . S
Zn302 O311 1.977 . S
O303 Zn302 2.032 . S
O303 C307 1.278 . S
C304 O305 1.203 . S
C304 O311 1.267 . S
O305 C304 1.203 . S
O306 C299 1.185 . S
O306 Zn302 2.086 . S
C307 O303 1.278 . S
C307 O308 1.211 . S
O308 C307 1.211 . S
C309 O301 1.284 . S
C309 O310 1.273 . S
O310 C309 1.273 . S
O311 Zn302 1.977 . S
O311 C304 1.267 . S
H312 C320 0.929 . S
H313 C322 0.930 . S
H314 C324 0.930 . S
H315 C327 0.929 . S
H316 C330 0.930 . S
H317 C332 0.960 . S
H318 C332 0.960 . S
H319 C332 0.960 . S
C320 H312 0.929 . S
C320 C321 1.377 . S
C320 C322 1.384 . S
C321 C320 1.377 . S
C321 C327 1.390 . S
C322 H313 0.930 . S
C322 C320 1.384 . S
C322 C323 1.372 . S
C323 C322 1.372 . S
C323 C324 1.400 . S
C323 C328 1.490 . S
C324 H314 0.930 . S
C324 C323 1.400 . S
C324 C327 1.386 . S
H325 C341 0.930 . S
H326 C342 0.931 . S
C327 H315 0.929 . S
C327 C321 1.390 . S
C327 C324 1.386 . S
C328 C323 1.490 . S
C328 C330 1.395 . S
C328 C331 1.403 . S
H329 C335 0.930 . S
C330 H316 0.930 . S
C330 C328 1.395 . S
C330 C333 1.403 . S
C331 C328 1.403 . S
C331 C332 1.524 . S
C331 C335 1.400 . S
C332 H317 0.960 . S
C332 H318 0.960 . S
C332 H319 0.960 . S
C332 C331 1.524 . S
C333 C330 1.403 . S
C333 C334 1.392 . S
C333 C337 1.495 . S
C334 C333 1.392 . S
C334 C335 1.385 . S
C334 C336 1.478 . S
C335 H329 0.930 . S
C335 C331 1.400 . S
C335 C334 1.385 . S
C336 C334 1.478 . S
C336 C338 1.381 . S
C336 C342 1.383 . S
C337 C333 1.495 . S
C337 H343 0.959 . S
C337 H344 0.961 . S
C337 H345 0.960 . S
C338 C336 1.381 . S
C338 C339 1.394 . S
C338 H346 0.930 . S
C339 C338 1.394 . S
C339 C340 1.383 . S
C339 H347 0.929 . S
C340 C339 1.383 . S
C340 C341 1.377 . S
C341 H325 0.930 . S
C341 C340 1.377 . S
C341 C342 1.379 . S
C342 H326 0.931 . S
C342 C336 1.383 . S
C342 C341 1.379 . S
H343 C337 0.959 . S
H344 C337 0.961 . S
H345 C337 0.960 . S
H346 C338 0.930 . S
H347 C339 0.929 . S
H348 C356 0.929 . S
H349 C358 0.930 . S
H350 C360 0.930 . S
H351 C363 0.929 . S
H352 C366 0.930 . S
H353 C368 0.960 . S
H354 C368 0.960 1_655 S
H355 C368 0.960 . S
C356 H348 0.929 . S
C356 C357 1.377 . S
C356 C358 1.384 . S
C357 C356 1.377 . S
C357 C363 1.390 . S
C358 H349 0.930 . S
C358 C356 1.384 . S
C358 C359 1.372 1_655 S
C359 C358 1.372 1_455 S
C359 C360 1.400 . S
C359 C364 1.490 . S
C360 H350 0.930 . S
C360 C359 1.400 . S
C360 C363 1.386 1_455 S
H361 C377 0.930 . S
H362 C378 0.931 . S
C363 H351 0.929 . S
C363 C357 1.390 . S
C363 C360 1.386 1_655 S
C364 C359 1.490 . S
C364 C366 1.395 . S
C364 C367 1.403 . S
H365 C371 0.930 . S
C366 H352 0.930 . S
C366 C364 1.395 . S
C366 C369 1.403 . S
C367 C364 1.403 . S
C367 C368 1.524 . S
C367 C371 1.400 . S
C368 H353 0.960 . S
C368 H354 0.960 1_455 S
C368 H355 0.960 . S
C368 C367 1.524 . S
C369 C366 1.403 . S
C369 C370 1.392 . S
C369 C373 1.495 . S
C370 C369 1.392 . S
C370 C371 1.385 . S
C370 C372 1.478 . S
C371 H365 0.930 . S
C371 C367 1.400 . S
C371 C370 1.385 . S
C372 C370 1.478 . S
C372 C374 1.381 . S
C372 C378 1.383 . S
C373 C369 1.495 . S
C373 H379 0.959 . S
C373 H380 0.961 . S
C373 H381 0.960 . S
C374 C372 1.381 . S
C374 C375 1.394 . S
C374 H382 0.930 . S
C375 C374 1.394 . S
C375 C376 1.383 . S
C375 H383 0.929 . S
C376 C375 1.383 . S
C376 C377 1.377 . S
C377 H361 0.930 . S
C377 C376 1.377 . S
C377 C378 1.379 . S
C378 H362 0.931 . S
C378 C372 1.383 . S
C378 C377 1.379 . S
H379 C373 0.959 . S
H380 C373 0.961 . S
H381 C373 0.960 . S
H382 C374 0.930 . S
H383 C375 0.929 . S
H384 C392 0.929 . S
H385 C394 0.930 . S
H386 C396 0.930 . S
H387 C399 0.929 . S
H388 C402 0.930 . S
H389 C404 0.960 . S
H390 C404 0.960 . S
H391 C404 0.960 . S
C392 H384 0.929 . S
C392 C393 1.377 . S
C392 C394 1.384 . S
C393 C392 1.377 . S
C393 C399 1.390 . S
C394 H385 0.930 . S
C394 C392 1.384 . S
C394 C395 1.372 . S
C395 C394 1.372 . S
C395 C396 1.400 . S
C395 C400 1.490 . S
C396 H386 0.930 . S
C396 C395 1.400 . S
C396 C399 1.386 . S
H397 C413 0.930 . S
H398 C414 0.931 . S
C399 H387 0.929 . S
C399 C393 1.390 . S
C399 C396 1.386 . S
C400 C395 1.490 . S
C400 C402 1.395 . S
C400 C403 1.403 . S
H401 C407 0.930 . S
C402 H388 0.930 . S
C402 C400 1.395 . S
C402 C405 1.403 . S
C403 C400 1.403 . S
C403 C404 1.524 . S
C403 C407 1.400 . S
C404 H389 0.960 . S
C404 H390 0.960 . S
C404 H391 0.960 . S
C404 C403 1.524 . S
C405 C402 1.403 . S
C405 C406 1.392 . S
C405 C409 1.495 . S
C406 C405 1.392 . S
C406 C407 1.385 . S
C406 C408 1.478 . S
C407 H401 0.930 . S
C407 C403 1.400 . S
C407 C406 1.385 . S
C408 C406 1.478 . S
C408 C410 1.381 . S
C408 C414 1.383 1_556 S
C409 C405 1.495 . S
C409 H415 0.959 . S
C409 H416 0.961 1_556 S
C409 H417 0.960 . S
C410 C408 1.381 . S
C410 C411 1.394 1_556 S
C410 H418 0.930 . S
C411 C410 1.394 1_554 S
C411 C412 1.383 . S
C411 H419 0.929 . S
C412 C411 1.383 . S
C412 C413 1.377 . S
C413 H397 0.930 . S
C413 C412 1.377 . S
C413 C414 1.379 . S
C414 H398 0.931 . S
C414 C408 1.383 1_554 S
C414 C413 1.379 . S
H415 C409 0.959 . S
H416 C409 0.961 1_554 S
H417 C409 0.960 . S
H418 C410 0.930 . S
H419 C411 0.929 . S
H420 C428 0.929 . S
H421 C430 0.930 . S
H422 C432 0.930 . S
H423 C435 0.929 . S
H424 C438 0.930 . S
H425 C440 0.960 . S
H426 C440 0.960 . S
H427 C440 0.960 . S
C428 H420 0.929 . S
C428 C429 1.377 . S
C428 C430 1.384 . S
C429 C428 1.377 . S
C429 C435 1.390 . S
C430 H421 0.930 . S
C430 C428 1.384 . S
C430 C431 1.372 . S
C431 C430 1.372 . S
C431 C432 1.400 . S
C431 C436 1.490 . S
C432 H422 0.930 . S
C432 C431 1.400 . S
C432 C435 1.386 . S
H433 C449 0.930 . S
H434 C450 0.931 . S
C435 H423 0.929 . S
C435 C429 1.390 . S
C435 C432 1.386 . S
C436 C431 1.490 . S
C436 C438 1.395 . S
C436 C439 1.403 . S
H437 C443 0.930 . S
C438 H424 0.930 . S
C438 C436 1.395 . S
C438 C441 1.403 . S
C439 C436 1.403 . S
C439 C440 1.524 . S
C439 C443 1.400 . S
C440 H425 0.960 . S
C440 H426 0.960 . S
C440 H427 0.960 . S
C440 C439 1.524 . S
C441 C438 1.403 . S
C441 C442 1.392 . S
C441 C445 1.495 . S
C442 C441 1.392 . S
C442 C443 1.385 . S
C442 C444 1.478 . S
C443 H437 0.930 . S
C443 C439 1.400 . S
C443 C442 1.385 . S
C444 C442 1.478 . S
C444 C446 1.381 . S
C444 C450 1.383 . S
C445 C441 1.495 . S
C445 H451 0.959 . S
C445 H452 0.961 . S
C445 H453 0.960 . S
C446 C444 1.381 . S
C446 C447 1.394 . S
C446 H454 0.930 . S
C447 C446 1.394 . S
C447 C448 1.383 . S
C447 H455 0.929 . S
C448 C447 1.383 . S
C448 C449 1.377 . S
C449 H433 0.930 . S
C449 C448 1.377 . S
C449 C450 1.379 . S
C450 H434 0.931 . S
C450 C444 1.383 . S
C450 C449 1.379 . S
H451 C445 0.959 . S
H452 C445 0.961 . S
H453 C445 0.960 . S
H454 C446 0.930 . S
H455 C447 0.929 . S
H456 C464 0.929 . S
H457 C466 0.930 . S
H458 C468 0.930 . S
H459 C471 0.929 . S
H460 C474 0.930 . S
H461 C476 0.960 . S
H462 C476 0.960 . S
H463 C476 0.960 . S
C464 H456 0.929 . S
C464 C465 1.377 . S
C464 C466 1.384 . S
C465 C464 1.377 . S
C465 C471 1.390 . S
C466 H457 0.930 . S
C466 C464 1.384 . S
C466 C467 1.372 . S
C467 C466 1.372 . S
C467 C468 1.400 . S
C467 C472 1.490 . S
C468 H458 0.930 . S
C468 C467 1.400 . S
C468 C471 1.386 . S
H469 C485 0.930 . S
H470 C486 0.931 . S
C471 H459 0.929 . S
C471 C465 1.390 . S
C471 C468 1.386 . S
C472 C467 1.490 . S
C472 C474 1.395 . S
C472 C475 1.403 . S
H473 C479 0.930 . S
C474 H460 0.930 . S
C474 C472 1.395 . S
C474 C477 1.403 . S
C475 C472 1.403 . S
C475 C476 1.524 . S
C475 C479 1.400 . S
C476 H461 0.960 . S
C476 H462 0.960 . S
C476 H463 0.960 . S
C476 C475 1.524 . S
C477 C474 1.403 . S
C477 C478 1.392 . S
C477 C481 1.495 . S
C478 C477 1.392 . S
C478 C479 1.385 . S
C478 C480 1.478 . S
C479 H473 0.930 . S
C479 C475 1.400 . S
C479 C478 1.385 . S
C480 C478 1.478 . S
C480 C482 1.381 . S
C480 C486 1.383 . S
C481 C477 1.495 . S
C481 H487 0.959 . S
C481 H488 0.961 . S
C481 H489 0.960 . S
C482 C480 1.381 . S
C482 C483 1.394 . S
C482 H490 0.930 . S
C483 C482 1.394 . S
C483 C484 1.383 . S
C483 H491 0.929 . S
C484 C483 1.383 . S
C484 C485 1.377 . S
C485 H469 0.930 . S
C485 C484 1.377 . S
C485 C486 1.379 . S
C486 H470 0.931 . S
C486 C480 1.383 . S
C486 C485 1.379 . S
H487 C481 0.959 . S
H488 C481 0.961 . S
H489 C481 0.960 . S
H490 C482 0.930 . S
H491 C483 0.929 . S
H492 C500 0.929 . S
H493 C502 0.930 . S
H494 C504 0.930 . S
H495 C507 0.929 . S
H496 C510 0.930 . S
H497 C512 0.960 . S
H498 C512 0.960 . S
H499 C512 0.960 . S
C500 H492 0.929 . S
C500 C501 1.377 . S
C500 C502 1.384 . S
C501 C500 1.377 . S
C501 C507 1.390 . S
C502 H493 0.930 . S
C502 C500 1.384 . S
C502 C503 1.372 . S
C503 C502 1.372 . S
C503 C504 1.400 . S
C503 C508 1.490 . S
C504 H494 0.930 . S
C504 C503 1.400 . S
C504 C507 1.386 . S
H505 C521 0.930 . S
H506 C522 0.931 . S
C507 H495 0.929 . S
C507 C501 1.390 . S
C507 C504 1.386 . S
C508 C503 1.490 . S
C508 C510 1.395 . S
C508 C511 1.403 . S
H509 C515 0.930 . S
C510 H496 0.930 . S
C510 C508 1.395 . S
C510 C513 1.403 . S
C511 C508 1.403 . S
C511 C512 1.524 . S
C511 C515 1.400 . S
C512 H497 0.960 . S
C512 H498 0.960 . S
C512 H499 0.960 . S
C512 C511 1.524 . S
C513 C510 1.403 . S
C513 C514 1.392 . S
C513 C517 1.495 1_655 S
C514 C513 1.392 . S
C514 C515 1.385 . S
C514 C516 1.484 . S
C515 H509 0.930 . S
C515 C511 1.400 . S
C515 C514 1.385 . S
C516 C514 1.484 . S
C516 C518 1.374 1_655 S
C516 C522 1.383 . S
C517 C513 1.495 1_455 S
C517 H523 0.959 . S
C517 H524 0.961 . S
C517 H525 0.960 . S
C518 C516 1.374 1_455 S
C518 C519 1.394 . S
C518 H526 0.930 . S
C519 C518 1.394 . S
C519 C520 1.383 . S
C519 H527 0.929 . S
C520 C519 1.383 . S
C520 C521 1.377 . S
C521 H505 0.930 . S
C521 C520 1.377 . S
C521 C522 1.379 1_455 S
C522 H506 0.931 . S
C522 C516 1.383 . S
C522 C521 1.379 1_655 S
H523 C517 0.959 . S
H524 C517 0.961 . S
H525 C517 0.960 . S
H526 C518 0.930 . S
H527 C519 0.929 . S
H528 C536 0.929 . S
H529 C538 0.930 . S
H530 C540 0.930 . S
H531 C543 0.929 . S
H532 C546 0.930 . S
H533 C548 0.960 . S
H534 C548 0.960 . S
H535 C548 0.960 . S
C536 H528 0.929 . S
C536 C537 1.377 . S
C536 C538 1.384 . S
C537 C536 1.377 . S
C537 C543 1.390 . S
C538 H529 0.930 . S
C538 C536 1.384 . S
C538 C539 1.372 . S
C539 C538 1.372 . S
C539 C540 1.400 . S
C539 C544 1.490 . S
C540 H530 0.930 . S
C540 C539 1.400 . S
C540 C543 1.386 . S
H541 C557 0.930 . S
H542 C558 0.931 . S
C543 H531 0.929 . S
C543 C537 1.390 . S
C543 C540 1.386 . S
C544 C539 1.490 . S
C544 C546 1.395 . S
C544 C547 1.403 . S
H545 C551 0.930 . S
C546 H532 0.930 . S
C546 C544 1.395 . S
C546 C549 1.403 . S
C547 C544 1.403 . S
C547 C548 1.524 . S
C547 C551 1.400 . S
C548 H533 0.960 . S
C548 H534 0.960 . S
C548 H535 0.960 . S
C548 C547 1.524 . S
C549 C546 1.403 . S
C549 C550 1.392 . S
C549 C553 1.495 . S
C550 C549 1.392 . S
C550 C551 1.385 . S
C550 C552 1.478 . S
C551 H545 0.930 . S
C551 C547 1.400 . S
C551 C550 1.385 . S
C552 C550 1.478 . S
C552 C554 1.381 . S
C552 C558 1.383 1_554 S
C553 C549 1.495 . S
C553 H559 0.959 . S
C553 H560 0.961 1_554 S
C553 H561 0.960 . S
C554 C552 1.381 . S
C554 C555 1.394 1_554 S
C554 H562 0.930 . S
C555 C554 1.394 1_556 S
C555 C556 1.383 . S
C555 H563 0.929 . S
C556 C555 1.383 . S
C556 C557 1.377 . S
C557 H541 0.930 . S
C557 C556 1.377 . S
C557 C558 1.379 . S
C558 H542 0.931 . S
C558 C552 1.383 1_556 S
C558 C557 1.379 . S
H559 C553 0.959 . S
H560 C553 0.961 1_556 S
H561 C553 0.960 . S
H562 C554 0.930 . S
H563 C555 0.929 . S
H564 C572 0.929 . S
H565 C574 0.930 . S
H566 C576 0.930 . S
H567 C579 0.929 . S
H568 C582 0.930 . S
H569 C584 0.960 . S
H570 C584 0.960 . S
H571 C584 0.960 . S
C572 H564 0.929 . S
C572 C573 1.377 . S
C572 C574 1.384 . S
C573 C572 1.377 . S
C573 C579 1.390 . S
C574 H565 0.930 . S
C574 C572 1.384 . S
C574 C575 1.372 . S
C575 C574 1.372 . S
C575 C576 1.400 . S
C575 C580 1.490 . S
C576 H566 0.930 . S
C576 C575 1.400 . S
C576 C579 1.386 . S
H577 C593 0.930 . S
H578 C594 0.931 . S
C579 H567 0.929 . S
C579 C573 1.390 . S
C579 C576 1.386 . S
C580 C575 1.490 . S
C580 C582 1.395 . S
C580 C583 1.403 . S
H581 C587 0.930 . S
C582 H568 0.930 . S
C582 C580 1.395 . S
C582 C585 1.403 . S
C583 C580 1.403 . S
C583 C584 1.524 . S
C583 C587 1.400 . S
C584 H569 0.960 . S
C584 H570 0.960 . S
C584 H571 0.960 . S
C584 C583 1.524 . S
C585 C582 1.403 . S
C585 C586 1.392 . S
C585 C589 1.495 . S
C586 C585 1.392 . S
C586 C587 1.385 . S
C586 C588 1.478 . S
C587 H581 0.930 . S
C587 C583 1.400 . S
C587 C586 1.385 . S
C588 C586 1.478 . S
C588 C590 1.381 . S
C588 C594 1.383 . S
C589 C585 1.495 . S
C589 H595 0.959 . S
C589 H596 0.961 . S
C589 H597 0.960 . S
C590 C588 1.381 . S
C590 C591 1.394 . S
C590 H598 0.930 . S
C591 C590 1.394 . S
C591 C592 1.383 . S
C591 H599 0.929 . S
C592 C591 1.383 . S
C592 C593 1.377 . S
C593 H577 0.930 . S
C593 C592 1.377 . S
C593 C594 1.379 . S
C594 H578 0.931 . S
C594 C588 1.383 . S
C594 C593 1.379 . S
H595 C589 0.959 . S
H596 C589 0.961 . S
H597 C589 0.960 . S
H598 C590 0.930 . S
H599 C591 0.929 . S
H600 C608 0.929 . S
H601 C610 0.930 . S
H602 C612 0.930 . S
H603 C615 0.929 . S
H604 C618 0.930 . S
H605 C620 0.960 . S
H606 C620 0.960 . S
H607 C620 0.960 . S
C608 H600 0.929 . S
C608 C609 1.377 . S
C608 C610 1.384 . S
C609 C608 1.377 . S
C609 C615 1.390 . S
C610 H601 0.930 . S
C610 C608 1.384 . S
C610 C611 1.372 . S
C611 C610 1.372 . S
C611 C612 1.400 . S
C611 C616 1.490 . S
C612 H602 0.930 . S
C612 C611 1.400 . S
C612 C615 1.386 . S
H613 C629 0.930 . S
H614 C630 0.931 . S
C615 H603 0.929 . S
C615 C609 1.390 . S
C615 C612 1.386 . S
C616 C611 1.490 . S
C616 C618 1.395 . S
C616 C619 1.403 . S
H617 C623 0.930 . S
C618 H604 0.930 . S
C618 C616 1.395 . S
C618 C621 1.403 . S
C619 C616 1.403 . S
C619 C620 1.524 . S
C619 C623 1.400 . S
C620 H605 0.960 . S
C620 H606 0.960 . S
C620 H607 0.960 . S
C620 C619 1.524 . S
C621 C618 1.403 . S
C621 C622 1.392 . S
C621 C625 1.495 . S
C622 C621 1.392 . S
C622 C623 1.385 . S
C622 C624 1.478 . S
C623 H617 0.930 . S
C623 C619 1.400 . S
C623 C622 1.385 . S
C624 C622 1.478 . S
C624 C626 1.381 . S
C624 C630 1.383 . S
C625 C621 1.495 . S
C625 H631 0.959 . S
C625 H632 0.961 . S
C625 H633 0.960 . S
C626 C624 1.381 . S
C626 C627 1.394 . S
C626 H634 0.930 . S
C627 C626 1.394 . S
C627 C628 1.383 . S
C627 H635 0.929 . S
C628 C627 1.383 . S
C628 C629 1.377 . S
C629 H613 0.930 . S
C629 C628 1.377 . S
C629 C630 1.379 . S
C630 H614 0.931 . S
C630 C624 1.383 . S
C630 C629 1.379 . S
H631 C625 0.959 . S
H632 C625 0.961 . S
H633 C625 0.960 . S
H634 C626 0.930 . S
H635 C627 0.929 . S
H636 C644 0.929 . S
H637 C646 0.930 . S
H638 C648 0.930 . S
H639 C651 0.929 . S
H640 C654 0.930 . S
H641 C656 0.960 . S
H642 C656 0.960 . S
H643 C656 0.960 . S
C644 H636 0.929 . S
C644 C645 1.377 . S
C644 C646 1.384 1_565 S
C645 C644 1.377 . S
C645 C651 1.390 . S
C646 H637 0.930 . S
C646 C644 1.384 1_545 S
C646 C647 1.372 . S
C647 C646 1.372 . S
C647 C648 1.400 1_545 S
C647 C652 1.490 . S
C648 H638 0.930 . S
C648 C647 1.400 1_565 S
C648 C651 1.386 . S
H649 C665 0.930 . S
H650 C666 0.931 . S
C651 H639 0.929 . S
C651 C645 1.390 . S
C651 C648 1.386 . S
C652 C647 1.490 . S
C652 C654 1.395 . S
C652 C655 1.403 . S
H653 C659 0.930 . S
C654 H640 0.930 . S
C654 C652 1.395 . S
C654 C657 1.403 . S
C655 C652 1.403 . S
C655 C656 1.524 . S
C655 C659 1.400 . S
C656 H641 0.960 . S
C656 H642 0.960 . S
C656 H643 0.960 . S
C656 C655 1.524 . S
C657 C654 1.403 . S
C657 C658 1.392 . S
C657 C661 1.495 . S
C658 C657 1.392 . S
C658 C659 1.385 . S
C658 C660 1.478 . S
C659 H653 0.930 . S
C659 C655 1.400 . S
C659 C658 1.385 . S
C660 C658 1.478 . S
C660 C662 1.381 . S
C660 C666 1.383 . S
C661 C657 1.495 . S
C661 H667 0.959 . S
C661 H668 0.961 . S
C661 H669 0.960 . S
C662 C660 1.381 . S
C662 C663 1.394 . S
C662 H670 0.930 . S
C663 C662 1.394 . S
C663 C664 1.383 . S
C663 H671 0.929 . S
C664 C663 1.383 . S
C664 C665 1.377 . S
C665 H649 0.930 . S
C665 C664 1.377 . S
C665 C666 1.379 . S
C666 H650 0.931 . S
C666 C660 1.383 . S
C666 C665 1.379 . S
H667 C661 0.959 . S
H668 C661 0.961 . S
H669 C661 0.960 . S
H670 C662 0.930 . S
H671 C663 0.929 . S
H672 C680 0.929 . S
H673 C682 0.930 . S
H674 C684 0.930 . S
H675 C687 0.929 . S
H676 C690 0.930 . S
H677 C692 0.960 . S
H678 C692 0.960 . S
H679 C692 0.960 . S
C680 H672 0.929 . S
C680 C681 1.377 . S
C680 C682 1.384 . S
C681 C680 1.377 . S
C681 C687 1.390 . S
C682 H673 0.930 . S
C682 C680 1.384 . S
C682 C683 1.372 . S
C683 C682 1.372 . S
C683 C684 1.400 . S
C683 C688 1.490 . S
C684 H674 0.930 . S
C684 C683 1.400 . S
C684 C687 1.386 . S
H685 C701 0.930 . S
H686 C702 0.931 . S
C687 H675 0.929 . S
C687 C681 1.390 . S
C687 C684 1.386 . S
C688 C683 1.490 . S
C688 C690 1.395 . S
C688 C691 1.403 . S
H689 C695 0.930 . S
C690 H676 0.930 . S
C690 C688 1.395 . S
C690 C693 1.403 . S
C691 C688 1.403 . S
C691 C692 1.524 . S
C691 C695 1.400 . S
C692 H677 0.960 . S
C692 H678 0.960 . S
C692 H679 0.960 . S
C692 C691 1.524 . S
C693 C690 1.403 . S
C693 C694 1.392 . S
C693 C697 1.495 . S
C694 C693 1.392 . S
C694 C695 1.385 . S
C694 C696 1.478 . S
C695 H689 0.930 . S
C695 C691 1.400 . S
C695 C694 1.385 . S
C696 C694 1.478 . S
C696 C698 1.381 . S
C696 C702 1.383 1_565 S
C697 C693 1.495 . S
C697 H703 0.959 . S
C697 H704 0.961 . S
C697 H705 0.960 . S
C698 C696 1.381 . S
C698 C699 1.394 1_565 S
C698 H706 0.930 . S
C699 C698 1.394 1_545 S
C699 C700 1.383 . S
C699 H707 0.934 . S
C700 C699 1.383 . S
C700 C701 1.377 . S
C701 H685 0.930 . S
C701 C700 1.377 . S
C701 C702 1.379 . S
C702 H686 0.931 . S
C702 C696 1.383 1_545 S
C702 C701 1.379 . S
H703 C697 0.959 . S
H704 C697 0.961 . S
H705 C697 0.960 . S
H706 C698 0.930 . S
H707 C699 0.934 . S
H708 C716 0.929 . S
H709 C718 0.930 . S
H710 C720 0.930 . S
H711 C723 0.929 . S
H712 C726 0.930 . S
H713 C728 0.960 . S
H714 C728 0.960 . S
H715 C728 0.960 . S
C716 H708 0.929 . S
C716 C717 1.377 . S
C716 C718 1.384 . S
C717 C716 1.377 . S
C717 C723 1.390 . S
C718 H709 0.930 . S
C718 C716 1.384 . S
C718 C719 1.372 . S
C719 C718 1.372 . S
C719 C720 1.400 . S
C719 C724 1.490 . S
C720 H710 0.930 . S
C720 C719 1.400 . S
C720 C723 1.386 . S
H721 C737 0.930 . S
H722 C738 0.931 . S
C723 H711 0.929 . S
C723 C717 1.390 . S
C723 C720 1.386 . S
C724 C719 1.490 . S
C724 C726 1.395 . S
C724 C727 1.403 . S
H725 C731 0.930 . S
C726 H712 0.930 . S
C726 C724 1.395 . S
C726 C729 1.403 . S
C727 C724 1.403 . S
C727 C728 1.524 . S
C727 C731 1.400 . S
C728 H713 0.960 . S
C728 H714 0.960 . S
C728 H715 0.960 . S
C728 C727 1.524 . S
C729 C726 1.403 . S
C729 C730 1.392 . S
C729 C733 1.495 . S
C730 C729 1.392 . S
C730 C731 1.385 . S
C730 C732 1.478 . S
C731 H725 0.930 . S
C731 C727 1.400 . S
C731 C730 1.385 . S
C732 C730 1.478 . S
C732 C734 1.381 . S
C732 C738 1.383 . S
C733 C729 1.495 . S
C733 H739 0.959 . S
C733 H740 0.961 . S
C733 H741 0.960 . S
C734 C732 1.381 . S
C734 C735 1.394 . S
C734 H742 0.930 . S
C735 C734 1.394 . S
C735 C736 1.383 . S
C735 H743 0.929 . S
C736 C735 1.383 . S
C736 C737 1.377 . S
C737 H721 0.930 . S
C737 C736 1.377 . S
C737 C738 1.379 . S
C738 H722 0.931 . S
C738 C732 1.383 . S
C738 C737 1.379 . S
H739 C733 0.959 . S
H740 C733 0.961 . S
H741 C733 0.960 . S
H742 C734 0.930 . S
H743 C735 0.929 . S
H744 C752 0.929 . S
H745 C754 0.930 . S
H746 C756 0.930 . S
H747 C759 0.929 . S
H748 C762 0.930 . S
H749 C764 0.960 . S
H750 C764 0.960 . S
H751 C764 0.960 . S
C752 H744 0.929 . S
C752 C753 1.377 . S
C752 C754 1.384 . S
C753 C752 1.377 . S
C753 C759 1.390 . S
C754 H745 0.930 . S
C754 C752 1.384 . S
C754 C755 1.372 . S
C755 C754 1.372 . S
C755 C756 1.400 . S
C755 C760 1.490 . S
C756 H746 0.930 . S
C756 C755 1.400 . S
C756 C759 1.386 . S
H757 C773 0.930 . S
H758 C774 0.931 . S
C759 H747 0.929 . S
C759 C753 1.390 . S
C759 C756 1.386 . S
C760 C755 1.490 . S
C760 C762 1.395 . S
C760 C763 1.403 . S
H761 C767 0.930 . S
C762 H748 0.930 . S
C762 C760 1.395 . S
C762 C765 1.403 . S
C763 C760 1.403 . S
C763 C764 1.524 . S
C763 C767 1.400 . S
C764 H749 0.960 . S
C764 H750 0.960 . S
C764 H751 0.960 . S
C764 C763 1.524 . S
C765 C762 1.403 . S
C765 C766 1.392 . S
C765 C769 1.495 . S
C766 C765 1.392 . S
C766 C767 1.385 . S
C766 C768 1.478 . S
C767 H761 0.930 . S
C767 C763 1.400 . S
C767 C766 1.385 . S
C768 C766 1.478 . S
C768 C770 1.381 . S
C768 C774 1.383 . S
C769 C765 1.495 . S
C769 H775 0.959 . S
C769 H776 0.961 . S
C769 H777 0.960 . S
C770 C768 1.381 . S
C770 C771 1.394 . S
C770 H778 0.930 . S
C771 C770 1.394 . S
C771 C772 1.383 . S
C771 H779 0.929 . S
C772 C771 1.383 . S
C772 C773 1.377 . S
C773 H757 0.930 . S
C773 C772 1.377 . S
C773 C774 1.379 . S
C774 H758 0.931 . S
C774 C768 1.383 . S
C774 C773 1.379 . S
H775 C769 0.959 . S
H776 C769 0.961 . S
H777 C769 0.960 . S
H778 C770 0.930 . S
H779 C771 0.929 . S
H780 C788 0.929 . S
H781 C790 0.930 . S
H782 C792 0.960 . S
H783 C795 0.929 . S
H784 C798 0.930 . S
H785 C800 0.960 . S
H786 C800 0.960 1_565 S
H787 C800 0.960 . S
C788 H780 0.929 . S
C788 C789 1.377 . S
C788 C790 1.384 . S
C789 C788 1.377 . S
C789 C795 1.390 . S
C790 H781 0.930 . S
C790 C788 1.384 . S
C790 C791 1.372 . S
C791 C790 1.372 . S
C791 C792 1.391 1_565 S
C791 C796 1.490 1_565 S
C792 H782 0.960 . S
C792 C791 1.391 1_545 S
C792 C795 1.366 1_545 S
H793 C809 0.930 . S
H794 C810 0.931 . S
C795 H783 0.929 . S
C795 C789 1.390 . S
C795 C792 1.366 1_565 S
C796 C791 1.490 1_545 S
C796 C798 1.395 . S
C796 C799 1.403 . S
H797 C803 0.930 . S
C798 H784 0.930 . S
C798 C796 1.395 . S
C798 C801 1.403 . S
C799 C796 1.403 . S
C799 C800 1.524 . S
C799 C803 1.400 . S
C800 H785 0.960 . S
C800 H786 0.960 1_545 S
C800 H787 0.960 . S
C800 C799 1.524 . S
C801 C798 1.403 . S
C801 C802 1.392 . S
C801 C805 1.495 . S
C802 C801 1.392 . S
C802 C803 1.385 . S
C802 C804 1.478 . S
C803 H797 0.930 . S
C803 C799 1.400 . S
C803 C802 1.385 . S
C804 C802 1.478 . S
C804 C806 1.381 . S
C804 C810 1.383 . S
C805 C801 1.495 . S
C805 H811 0.959 . S
C805 H812 0.961 . S
C805 H813 0.960 . S
C806 C804 1.381 . S
C806 C807 1.394 . S
C806 H814 0.930 . S
C807 C806 1.394 . S
C807 C808 1.383 . S
C807 H815 0.929 . S
C808 C807 1.383 . S
C808 C809 1.377 . S
C809 H793 0.930 . S
C809 C808 1.377 . S
C809 C810 1.379 . S
C810 H794 0.931 . S
C810 C804 1.383 . S
C810 C809 1.379 . S
H811 C805 0.959 . S
H812 C805 0.961 . S
H813 C805 0.960 . S
H814 C806 0.930 . S
H815 C807 0.929 . S
H816 C824 0.929 . S
H817 C826 0.930 . S
H818 C828 0.930 . S
H819 C831 0.929 . S
H820 C834 0.930 . S
H821 C836 0.960 . S
H822 C836 0.960 . S
H823 C836 0.960 . S
C824 H816 0.929 . S
C824 C825 1.377 . S
C824 C826 1.384 . S
C825 C824 1.377 . S
C825 C831 1.390 . S
C826 H817 0.930 . S
C826 C824 1.384 . S
C826 C827 1.372 . S
C827 C826 1.372 . S
C827 C828 1.400 . S
C827 C832 1.490 . S
C828 H818 0.930 . S
C828 C827 1.400 . S
C828 C831 1.386 . S
H829 C845 0.930 . S
H830 C846 0.931 1_556 S
C831 H819 0.929 . S
C831 C825 1.390 . S
C831 C828 1.386 . S
C832 C827 1.490 . S
C832 C834 1.395 . S
C832 C835 1.403 . S
H833 C839 0.930 1_554 S
C834 H820 0.930 . S
C834 C832 1.395 . S
C834 C837 1.403 . S
C835 C832 1.403 . S
C835 C836 1.524 . S
C835 C839 1.400 . S
C836 H821 0.960 . S
C836 H822 0.960 . S
C836 H823 0.960 . S
C836 C835 1.524 . S
C837 C834 1.403 . S
C837 C838 1.392 . S
C837 C841 1.495 . S
C838 C837 1.392 . S
C838 C839 1.385 . S
C838 C840 1.478 1_556 S
C839 H833 0.930 1_556 S
C839 C835 1.400 . S
C839 C838 1.385 . S
C840 C838 1.478 1_554 S
C840 C842 1.381 . S
C840 C846 1.383 . S
C841 C837 1.495 . S
C841 H847 0.959 . S
C841 H848 0.961 . S
C841 H849 0.960 . S
C842 C840 1.381 . S
C842 C843 1.394 . S
C842 H850 0.930 . S
C843 C842 1.394 . S
C843 C844 1.383 . S
C843 H851 0.929 . S
C844 C843 1.383 . S
C844 C845 1.377 . S
C845 H829 0.930 . S
C845 C844 1.377 . S
C845 C846 1.379 . S
C846 H830 0.931 1_554 S
C846 C840 1.383 . S
C846 C845 1.379 . S
H847 C841 0.959 . S
H848 C841 0.961 . S
H849 C841 0.960 . S
H850 C842 0.930 . S
H851 C843 0.929 . S
H852 C860 0.929 . S
H853 C862 0.930 . S
H854 C864 0.967 . S
H855 C867 0.929 . S
H856 C870 0.930 . S
H857 C872 0.960 . S
H858 C872 0.960 1_545 S
H859 C872 0.960 . S
C860 H852 0.929 . S
C860 C861 1.377 . S
C860 C862 1.384 . S
C861 C860 1.377 . S
C861 C867 1.390 . S
C862 H853 0.930 . S
C862 C860 1.384 . S
C862 C863 1.372 . S
C863 C862 1.372 . S
C863 C864 1.389 1_545 S
C863 C868 1.490 1_545 S
C864 H854 0.967 . S
C864 C863 1.389 1_565 S
C864 C867 1.362 1_565 S
H865 C881 0.930 . S
H866 C882 0.931 . S
C867 H855 0.929 . S
C867 C861 1.390 . S
C867 C864 1.362 1_545 S
C868 C863 1.490 1_565 S
C868 C870 1.395 . S
C868 C871 1.403 . S
H869 C875 0.930 . S
C870 H856 0.930 . S
C870 C868 1.395 . S
C870 C873 1.403 . S
C871 C868 1.403 . S
C871 C872 1.524 . S
C871 C875 1.400 . S
C872 H857 0.960 . S
C872 H858 0.960 1_565 S
C872 H859 0.960 . S
C872 C871 1.524 . S
C873 C870 1.403 . S
C873 C874 1.392 . S
C873 C877 1.495 . S
C874 C873 1.392 . S
C874 C875 1.385 . S
C874 C876 1.478 . S
C875 H869 0.930 . S
C875 C871 1.400 . S
C875 C874 1.385 . S
C876 C874 1.478 . S
C876 C878 1.381 . S
C876 C882 1.383 . S
C877 C873 1.495 . S
C877 H883 0.959 . S
C877 H884 0.961 . S
C877 H885 0.960 . S
C878 C876 1.381 . S
C878 C879 1.394 . S
C878 H886 0.930 . S
C879 C878 1.394 . S
C879 C880 1.383 . S
C879 H887 0.929 . S
C880 C879 1.383 . S
C880 C881 1.377 . S
C881 H865 0.930 . S
C881 C880 1.377 . S
C881 C882 1.379 . S
C882 H866 0.931 . S
C882 C876 1.383 . S
C882 C881 1.379 . S
H883 C877 0.959 . S
H884 C877 0.961 . S
H885 C877 0.960 . S
H886 C878 0.930 . S
H887 C879 0.929 . S
H888 C896 0.929 . S
H889 C898 0.930 . S
H890 C900 0.930 . S
H891 C903 0.929 . S
H892 C906 0.930 . S
H893 C908 0.960 . S
H894 C908 0.960 . S
H895 C908 0.960 . S
C896 H888 0.929 . S
C896 C897 1.377 . S
C896 C898 1.384 . S
C897 C896 1.377 . S
C897 C903 1.390 . S
C898 H889 0.930 . S
C898 C896 1.384 . S
C898 C899 1.372 . S
C899 C898 1.372 . S
C899 C900 1.400 . S
C899 C904 1.490 . S
C900 H890 0.930 . S
C900 C899 1.400 . S
C900 C903 1.386 . S
H901 C917 0.930 . S
H902 C918 0.931 . S
C903 H891 0.929 . S
C903 C897 1.390 . S
C903 C900 1.386 . S
C904 C899 1.490 . S
C904 C906 1.395 . S
C904 C907 1.403 . S
H905 C911 0.930 . S
C906 H892 0.930 . S
C906 C904 1.395 . S
C906 C909 1.403 . S
C907 C904 1.403 . S
C907 C908 1.524 . S
C907 C911 1.400 . S
C908 H893 0.960 . S
C908 H894 0.960 . S
C908 H895 0.960 . S
C908 C907 1.524 . S
C909 C906 1.403 . S
C909 C910 1.392 . S
C909 C913 1.495 . S
C910 C909 1.392 . S
C910 C911 1.385 . S
C910 C912 1.478 . S
C911 H905 0.930 . S
C911 C907 1.400 . S
C911 C910 1.385 . S
C912 C910 1.478 . S
C912 C914 1.381 . S
C912 C918 1.383 . S
C913 C909 1.495 . S
C913 H919 0.959 . S
C913 H920 0.961 . S
C913 H921 0.960 . S
C914 C912 1.381 . S
C914 C915 1.394 . S
C914 H922 0.930 . S
C915 C914 1.394 . S
C915 C916 1.383 . S
C915 H923 0.929 . S
C916 C915 1.383 . S
C916 C917 1.377 . S
C917 H901 0.930 . S
C917 C916 1.377 . S
C917 C918 1.379 . S
C918 H902 0.931 . S
C918 C912 1.383 . S
C918 C917 1.379 . S
H919 C913 0.959 . S
H920 C913 0.961 . S
H921 C913 0.960 . S
H922 C914 0.930 . S
H923 C915 0.929 . S
H924 C932 0.929 . S
H925 C934 0.930 . S
H926 C936 0.930 . S
H927 C939 0.929 . S
H928 C942 0.930 . S
H929 C944 0.960 . S
H930 C944 0.960 . S
H931 C944 0.960 . S
C932 H924 0.929 . S
C932 C933 1.377 . S
C932 C934 1.384 . S
C933 C932 1.377 . S
C933 C939 1.390 . S
C934 H925 0.930 . S
C934 C932 1.384 . S
C934 C935 1.372 . S
C935 C934 1.372 . S
C935 C936 1.400 . S
C935 C940 1.490 . S
C936 H926 0.930 . S
C936 C935 1.400 . S
C936 C939 1.386 . S
H937 C953 0.930 . S
H938 C954 0.931 . S
C939 H927 0.929 . S
C939 C933 1.390 . S
C939 C936 1.386 . S
C940 C935 1.490 . S
C940 C942 1.395 . S
C940 C943 1.403 . S
H941 C947 0.930 . S
C942 H928 0.930 . S
C942 C940 1.395 . S
C942 C945 1.403 . S
C943 C940 1.403 . S
C943 C944 1.524 . S
C943 C947 1.400 . S
C944 H929 0.960 . S
C944 H930 0.960 . S
C944 H931 0.960 . S
C944 C943 1.524 . S
C945 C942 1.403 . S
C945 C946 1.392 . S
C945 C949 1.495 . S
C946 C945 1.392 . S
C946 C947 1.385 . S
C946 C948 1.478 . S
C947 H941 0.930 . S
C947 C943 1.400 . S
C947 C946 1.385 . S
C948 C946 1.478 . S
C948 C950 1.381 . S
C948 C954 1.383 . S
C949 C945 1.495 . S
C949 H955 0.959 . S
C949 H956 0.961 . S
C949 H957 0.960 . S
C950 C948 1.381 . S
C950 C951 1.394 . S
C950 H958 0.930 . S
C951 C950 1.394 . S
C951 C952 1.383 . S
C951 H959 0.929 . S
C952 C951 1.383 . S
C952 C953 1.377 . S
C953 H937 0.930 . S
C953 C952 1.377 . S
C953 C954 1.379 . S
C954 H938 0.931 . S
C954 C948 1.383 . S
C954 C953 1.379 . S
H955 C949 0.959 . S
H956 C949 0.961 . S
H957 C949 0.960 . S
H958 C950 0.930 . S
H959 C951 0.929 . S
H960 C968 0.929 . S
H961 C970 0.921 1_554 S
H962 C972 0.930 . S
H963 C975 0.929 . S
H964 C978 0.930 1_556 S
H965 C980 0.960 . S
H966 C980 0.960 . S
H967 C980 0.960 . S
C968 H960 0.929 . S
C968 C969 1.377 . S
C968 C970 1.384 . S
C969 C968 1.377 . S
C969 C975 1.390 . S
C970 H961 0.921 1_556 S
C970 C968 1.384 . S
C970 C971 1.372 . S
C971 C970 1.372 . S
C971 C972 1.400 . S
C971 C976 1.490 1_556 S
C972 H962 0.930 . S
C972 C971 1.400 . S
C972 C975 1.386 . S
H973 C989 0.930 . S
H974 C990 0.931 . S
C975 H963 0.929 . S
C975 C969 1.390 . S
C975 C972 1.386 . S
C976 C971 1.490 1_554 S
C976 C978 1.395 . S
C976 C979 1.403 . S
H977 C983 0.930 . S
C978 H964 0.930 1_554 S
C978 C976 1.395 . S
C978 C981 1.403 . S
C979 C976 1.403 . S
C979 C980 1.524 . S
C979 C983 1.400 . S
C980 H965 0.960 . S
C980 H966 0.960 . S
C980 H967 0.960 . S
C980 C979 1.524 . S
C981 C978 1.403 . S
C981 C982 1.392 . S
C981 C985 1.495 . S
C982 C981 1.392 . S
C982 C983 1.385 . S
C982 C984 1.478 . S
C983 H977 0.930 . S
C983 C979 1.400 . S
C983 C982 1.385 . S
C984 C982 1.478 . S
C984 C986 1.381 . S
C984 C990 1.383 . S
C985 C981 1.495 . S
C985 H991 0.959 1_554 S
C985 H992 0.961 . S
C985 H993 0.960 . S
C986 C984 1.381 . S
C986 C987 1.394 . S
C986 H994 0.930 . S
C987 C986 1.394 . S
C987 C988 1.383 . S
C987 H995 0.929 . S
C988 C987 1.383 . S
C988 C989 1.377 . S
C989 H973 0.930 . S
C989 C988 1.377 . S
C989 C990 1.379 . S
C990 H974 0.931 . S
C990 C984 1.383 . S
C990 C989 1.379 . S
H991 C985 0.959 1_556 S
H992 C985 0.961 . S
H993 C985 0.960 . S
H994 C986 0.930 . S
H995 C987 0.929 . S
H996 C1004 0.929 . S
H997 C1006 0.930 . S
H998 C1008 0.930 . S
H999 C1011 0.929 . S
H1000 C1014 0.930 . S
H1001 C1016 0.960 . S
H1002 C1016 0.960 . S
H1003 C1016 0.960 . S
C1004 H996 0.929 . S
C1004 C1005 1.377 . S
C1004 C1006 1.384 . S
C1005 C1004 1.377 . S
C1005 C1011 1.390 . S
C1006 H997 0.930 . S
C1006 C1004 1.384 . S
C1006 C1007 1.372 . S
C1007 C1006 1.372 . S
C1007 C1008 1.400 . S
C1007 C1012 1.490 . S
C1008 H998 0.930 . S
C1008 C1007 1.400 . S
C1008 C1011 1.386 . S
H1009 C1025 0.930 . S
H1010 C1026 0.931 . S
C1011 H999 0.929 . S
C1011 C1005 1.390 . S
C1011 C1008 1.386 . S
C1012 C1007 1.490 . S
C1012 C1014 1.395 . S
C1012 C1015 1.403 . S
H1013 C1019 0.930 . S
C1014 H1000 0.930 . S
C1014 C1012 1.395 . S
C1014 C1017 1.403 . S
C1015 C1012 1.403 . S
C1015 C1016 1.524 . S
C1015 C1019 1.400 . S
C1016 H1001 0.960 . S
C1016 H1002 0.960 . S
C1016 H1003 0.960 . S
C1016 C1015 1.524 . S
C1017 C1014 1.403 . S
C1017 C1018 1.392 . S
C1017 C1021 1.495 . S
C1018 C1017 1.392 . S
C1018 C1019 1.385 . S
C1018 C1020 1.478 . S
C1019 H1013 0.930 . S
C1019 C1015 1.400 . S
C1019 C1018 1.385 . S
C1020 C1018 1.478 . S
C1020 C1022 1.381 . S
C1020 C1026 1.383 . S
C1021 C1017 1.495 . S
C1021 H1027 0.959 . S
C1021 H1028 0.961 . S
C1021 H1029 0.960 . S
C1022 C1020 1.381 . S
C1022 C1023 1.394 . S
C1022 H1030 0.930 . S
C1023 C1022 1.394 . S
C1023 C1024 1.383 . S
C1023 H1031 0.929 . S
C1024 C1023 1.383 . S
C1024 C1025 1.377 . S
C1025 H1009 0.930 . S
C1025 C1024 1.377 . S
C1025 C1026 1.379 . S
C1026 H1010 0.931 . S
C1026 C1020 1.383 . S
C1026 C1025 1.379 . S
H1027 C1021 0.959 . S
H1028 C1021 0.961 . S
H1029 C1021 0.960 . S
H1030 C1022 0.930 . S
H1031 C1023 0.929 . S
H1032 C1040 0.929 . S
H1033 C1042 0.930 . S
H1034 C1044 0.930 . S
H1035 C1047 0.929 . S
H1036 C1050 0.930 . S
H1037 C1052 0.960 . S
H1038 C1052 0.960 . S
H1039 C1052 0.960 . S
C1040 H1032 0.929 . S
C1040 C1041 1.377 . S
C1040 C1042 1.384 . S
C1041 C1040 1.377 . S
C1041 C1047 1.390 . S
C1042 H1033 0.930 . S
C1042 C1040 1.384 . S
C1042 C1043 1.372 . S
C1043 C1042 1.372 . S
C1043 C1044 1.400 . S
C1043 C1048 1.490 . S
C1044 H1034 0.930 . S
C1044 C1043 1.400 . S
C1044 C1047 1.386 . S
H1045 C1061 0.930 . S
H1046 C1062 0.931 . S
C1047 H1035 0.929 . S
C1047 C1041 1.390 . S
C1047 C1044 1.386 . S
C1048 C1043 1.490 . S
C1048 C1050 1.395 . S
C1048 C1051 1.403 . S
H1049 C1055 0.930 . S
C1050 H1036 0.930 . S
C1050 C1048 1.395 . S
C1050 C1053 1.403 . S
C1051 C1048 1.403 . S
C1051 C1052 1.524 . S
C1051 C1055 1.400 . S
C1052 H1037 0.960 . S
C1052 H1038 0.960 . S
C1052 H1039 0.960 . S
C1052 C1051 1.524 . S
C1053 C1050 1.403 . S
C1053 C1054 1.392 . S
C1053 C1057 1.495 . S
C1054 C1053 1.392 . S
C1054 C1055 1.385 . S
C1054 C1056 1.478 . S
C1055 H1049 0.930 . S
C1055 C1051 1.400 . S
C1055 C1054 1.385 . S
C1056 C1054 1.478 . S
C1056 C1058 1.381 . S
C1056 C1062 1.383 . S
C1057 C1053 1.495 . S
C1057 H1063 0.959 . S
C1057 H1064 0.961 . S
C1057 H1065 0.960 . S
C1058 C1056 1.381 . S
C1058 C1059 1.394 . S
C1058 H1066 0.930 . S
C1059 C1058 1.394 . S
C1059 C1060 1.383 . S
C1059 H1067 0.929 . S
C1060 C1059 1.383 . S
C1060 C1061 1.377 . S
C1061 H1045 0.930 . S
C1061 C1060 1.377 . S
C1061 C1062 1.379 . S
C1062 H1046 0.931 . S
C1062 C1056 1.383 . S
C1062 C1061 1.379 . S
H1063 C1057 0.959 . S
H1064 C1057 0.961 . S
H1065 C1057 0.960 . S
H1066 C1058 0.930 . S
H1067 C1059 0.929 . S
H1068 C1076 0.929 . S
H1069 C1078 0.932 1_655 S
H1070 C1080 0.930 . S
H1071 C1083 0.929 . S
H1072 C1086 0.930 . S
H1073 C1088 0.960 . S
H1074 C1088 0.960 . S
H1075 C1088 0.960 . S
C1076 H1068 0.929 . S
C1076 C1077 1.377 . S
C1076 C1078 1.382 . S
C1077 C1076 1.377 . S
C1077 C1083 1.390 . S
C1078 H1069 0.932 1_455 S
C1078 C1076 1.382 . S
C1078 C1079 1.371 . S
C1079 C1078 1.371 . S
C1079 C1080 1.400 . S
C1079 C1084 1.490 1_455 S
C1080 H1070 0.930 . S
C1080 C1079 1.400 . S
C1080 C1083 1.386 . S
H1081 C1097 0.930 . S
H1082 C1098 0.931 . S
C1083 H1071 0.929 . S
C1083 C1077 1.390 . S
C1083 C1080 1.386 . S
C1084 C1079 1.490 1_655 S
C1084 C1086 1.395 . S
C1084 C1087 1.403 . S
H1085 C1091 0.930 . S
C1086 H1072 0.930 . S
C1086 C1084 1.395 . S
C1086 C1089 1.403 . S
C1087 C1084 1.403 . S
C1087 C1088 1.524 1_655 S
C1087 C1091 1.400 . S
C1088 H1073 0.960 . S
C1088 H1074 0.960 . S
C1088 H1075 0.960 . S
C1088 C1087 1.524 1_455 S
C1089 C1086 1.403 . S
C1089 C1090 1.392 . S
C1089 C1093 1.495 . S
C1090 C1089 1.392 . S
C1090 C1091 1.385 . S
C1090 C1092 1.478 . S
C1091 H1085 0.930 . S
C1091 C1087 1.400 . S
C1091 C1090 1.385 . S
C1092 C1090 1.478 . S
C1092 C1094 1.381 . S
C1092 C1098 1.383 . S
C1093 C1089 1.495 . S
C1093 H1099 0.959 . S
C1093 H1100 0.961 . S
C1093 H1101 0.960 . S
C1094 C1092 1.381 . S
C1094 C1095 1.394 . S
C1094 H1102 0.930 . S
C1095 C1094 1.394 . S
C1095 C1096 1.383 . S
C1095 H1103 0.929 . S
C1096 C1095 1.383 . S
C1096 C1097 1.377 . S
C1097 H1081 0.930 . S
C1097 C1096 1.377 . S
C1097 C1098 1.379 . S
C1098 H1082 0.931 . S
C1098 C1092 1.383 . S
C1098 C1097 1.379 . S
H1099 C1093 0.959 . S
H1100 C1093 0.961 . S
H1101 C1093 0.960 . S
H1102 C1094 0.930 . S
H1103 C1095 0.929 . S
H1104 C1112 0.929 . S
H1105 C1114 0.930 . S
H1106 C1116 0.930 . S
H1107 C1119 0.929 . S
H1108 C1122 0.930 . S
H1109 C1124 0.960 . S
H1110 C1124 0.960 . S
H1111 C1124 0.960 . S
C1112 H1104 0.929 . S
C1112 C1113 1.377 . S
C1112 C1114 1.384 1_655 S
C1113 C1112 1.377 . S
C1113 C1119 1.390 . S
C1114 H1105 0.930 . S
C1114 C1112 1.384 1_455 S
C1114 C1115 1.372 1_455 S
C1115 C1114 1.372 1_655 S
C1115 C1116 1.400 . S
C1115 C1120 1.490 1_655 S
C1116 H1106 0.930 . S
C1116 C1115 1.400 . S
C1116 C1119 1.386 . S
H1117 C1133 0.930 . S
H1118 C1134 0.931 . S
C1119 H1107 0.929 . S
C1119 C1113 1.390 . S
C1119 C1116 1.386 . S
C1120 C1115 1.490 1_455 S
C1120 C1122 1.395 . S
C1120 C1123 1.403 . S
H1121 C1127 0.930 . S
C1122 H1108 0.930 . S
C1122 C1120 1.395 . S
C1122 C1125 1.403 . S
C1123 C1120 1.403 . S
C1123 C1124 1.524 1_455 S
C1123 C1127 1.400 . S
C1124 H1109 0.960 . S
C1124 H1110 0.960 . S
C1124 H1111 0.960 . S
C1124 C1123 1.524 1_655 S
C1125 C1122 1.403 . S
C1125 C1126 1.392 . S
C1125 C1129 1.495 . S
C1126 C1125 1.392 . S
C1126 C1127 1.385 . S
C1126 C1128 1.478 . S
C1127 H1121 0.930 . S
C1127 C1123 1.400 . S
C1127 C1126 1.385 . S
C1128 C1126 1.478 . S
C1128 C1130 1.381 . S
C1128 C1134 1.383 . S
C1129 C1125 1.495 . S
C1129 H1135 0.959 . S
C1129 H1136 0.961 . S
C1129 H1137 0.960 . S
C1130 C1128 1.381 . S
C1130 C1131 1.394 . S
C1130 H1138 0.930 . S
C1131 C1130 1.394 . S
C1131 C1132 1.383 . S
C1131 H1139 0.929 . S
C1132 C1131 1.383 . S
C1132 C1133 1.377 . S
C1133 H1117 0.930 . S
C1133 C1132 1.377 . S
C1133 C1134 1.379 . S
C1134 H1118 0.931 . S
C1134 C1128 1.383 . S
C1134 C1133 1.379 . S
H1135 C1129 0.959 . S
H1136 C1129 0.961 . S
H1137 C1129 0.960 . S
H1138 C1130 0.930 . S
H1139 C1131 0.929 . S
H1140 C1148 0.929 . S
H1141 C1150 0.930 . S
H1142 C1152 0.930 . S
H1143 C1155 0.929 . S
H1144 C1158 0.930 . S
H1145 C1160 0.960 . S
H1146 C1160 0.960 . S
H1147 C1160 0.960 . S
C1148 H1140 0.929 . S
C1148 C1149 1.377 . S
C1148 C1150 1.384 . S
C1149 C1148 1.377 . S
C1149 C1155 1.390 . S
C1150 H1141 0.930 . S
C1150 C1148 1.384 . S
C1150 C1151 1.372 . S
C1151 C1150 1.372 . S
C1151 C1152 1.400 . S
C1151 C1156 1.490 . S
C1152 H1142 0.930 . S
C1152 C1151 1.400 . S
C1152 C1155 1.386 . S
H1153 C1169 0.930 . S
H1154 C1170 0.931 . S
C1155 H1143 0.929 . S
C1155 C1149 1.390 . S
C1155 C1152 1.386 . S
C1156 C1151 1.490 . S
C1156 C1158 1.395 . S
C1156 C1159 1.403 . S
H1157 C1163 0.930 . S
C1158 H1144 0.930 . S
C1158 C1156 1.395 . S
C1158 C1161 1.403 . S
C1159 C1156 1.403 . S
C1159 C1160 1.524 . S
C1159 C1163 1.400 . S
C1160 H1145 0.960 . S
C1160 H1146 0.960 . S
C1160 H1147 0.960 . S
C1160 C1159 1.524 . S
C1161 C1158 1.403 . S
C1161 C1162 1.392 . S
C1161 C1165 1.495 . S
C1162 C1161 1.392 . S
C1162 C1163 1.385 . S
C1162 C1164 1.478 . S
C1163 H1157 0.930 . S
C1163 C1159 1.400 . S
C1163 C1162 1.385 . S
C1164 C1162 1.478 . S
C1164 C1166 1.381 . S
C1164 C1170 1.383 . S
C1165 C1161 1.495 . S
C1165 H1171 0.959 . S
C1165 H1172 0.961 . S
C1165 H1173 0.960 . S
C1166 C1164 1.381 . S
C1166 C1167 1.394 . S
C1166 H1174 0.930 . S
C1167 C1166 1.394 . S
C1167 C1168 1.383 . S
C1167 H1175 0.929 . S
C1168 C1167 1.383 . S
C1168 C1169 1.377 . S
C1169 H1153 0.930 . S
C1169 C1168 1.377 . S
C1169 C1170 1.379 . S
C1170 H1154 0.931 . S
C1170 C1164 1.383 . S
C1170 C1169 1.379 . S
H1171 C1165 0.959 . S
H1172 C1165 0.961 . S
H1173 C1165 0.960 . S
H1174 C1166 0.930 . S
H1175 C1167 0.929 . S
H1176 C1184 0.929 . S
H1177 C1186 0.930 . S
H1178 C1188 0.930 . S
H1179 C1191 0.929 . S
H1180 C1194 0.930 . S
H1181 C1196 0.960 . S
H1182 C1196 0.960 . S
H1183 C1196 0.960 . S
C1184 H1176 0.929 . S
C1184 C1185 1.377 . S
C1184 C1186 1.384 . S
C1185 C1184 1.377 . S
C1185 C1191 1.390 . S
C1186 H1177 0.930 . S
C1186 C1184 1.384 . S
C1186 C1187 1.372 . S
C1187 C1186 1.372 . S
C1187 C1188 1.400 . S
C1187 C1192 1.490 . S
C1188 H1178 0.930 . S
C1188 C1187 1.400 . S
C1188 C1191 1.386 . S
H1189 C1205 0.930 . S
H1190 C1206 0.931 . S
C1191 H1179 0.929 . S
C1191 C1185 1.390 . S
C1191 C1188 1.386 . S
C1192 C1187 1.490 . S
C1192 C1194 1.395 . S
C1192 C1195 1.403 . S
H1193 C1199 0.930 . S
C1194 H1180 0.930 . S
C1194 C1192 1.395 . S
C1194 C1197 1.403 . S
C1195 C1192 1.403 . S
C1195 C1196 1.524 . S
C1195 C1199 1.400 . S
C1196 H1181 0.960 . S
C1196 H1182 0.960 . S
C1196 H1183 0.960 . S
C1196 C1195 1.524 . S
C1197 C1194 1.403 . S
C1197 C1198 1.392 . S
C1197 C1201 1.495 . S
C1198 C1197 1.392 . S
C1198 C1199 1.385 . S
C1198 C1200 1.478 . S
C1199 H1193 0.930 . S
C1199 C1195 1.400 . S
C1199 C1198 1.385 . S
C1200 C1198 1.478 . S
C1200 C1202 1.381 . S
C1200 C1206 1.383 . S
C1201 C1197 1.495 . S
C1201 H1207 0.959 . S
C1201 H1208 0.961 . S
C1201 H1209 0.960 . S
C1202 C1200 1.381 . S
C1202 C1203 1.394 . S
C1202 H1210 0.930 . S
C1203 C1202 1.394 . S
C1203 C1204 1.383 . S
C1203 H1211 0.929 . S
C1204 C1203 1.383 . S
C1204 C1205 1.377 . S
C1205 H1189 0.930 . S
C1205 C1204 1.377 . S
C1205 C1206 1.379 . S
C1206 H1190 0.931 . S
C1206 C1200 1.383 . S
C1206 C1205 1.379 . S
H1207 C1201 0.959 . S
H1208 C1201 0.961 . S
H1209 C1201 0.960 . S
H1210 C1202 0.930 . S
H1211 C1203 0.929 . S
H1212 C1220 0.929 . S
H1213 C1222 0.930 . S
H1214 C1224 0.930 . S
H1215 C1227 0.929 1_565 S
H1216 C1230 0.881 1_545 S
H1217 C1232 0.960 . S
H1218 C1232 0.960 . S
H1219 C1232 0.960 . S
C1220 H1212 0.929 . S
C1220 C1221 1.377 . S
C1220 C1222 1.384 . S
C1221 C1220 1.377 . S
C1221 C1227 1.390 . S
C1222 H1213 0.930 . S
C1222 C1220 1.384 . S
C1222 C1223 1.379 . S
C1223 C1222 1.379 . S
C1223 C1224 1.396 1_545 S
C1223 C1228 1.486 1_545 S
C1224 H1214 0.930 . S
C1224 C1223 1.396 1_565 S
C1224 C1227 1.386 1_565 S
H1225 C1241 0.930 . S
H1226 C1242 0.931 . S
C1227 H1215 0.929 1_545 S
C1227 C1221 1.390 . S
C1227 C1224 1.386 1_545 S
C1228 C1223 1.486 1_565 S
C1228 C1230 1.419 . S
C1228 C1231 1.403 . S
H1229 C1235 0.930 . S
C1230 H1216 0.881 1_565 S
C1230 C1228 1.419 . S
C1230 C1233 1.428 . S
C1231 C1228 1.403 . S
C1231 C1232 1.524 . S
C1231 C1235 1.400 . S
C1232 H1217 0.960 . S
C1232 H1218 0.960 . S
C1232 H1219 0.960 . S
C1232 C1231 1.524 . S
C1233 C1230 1.428 . S
C1233 C1234 1.392 . S
C1233 C1237 1.482 1_565 S
C1234 C1233 1.392 . S
C1234 C1235 1.385 . S
C1234 C1236 1.478 . S
C1235 H1229 0.930 . S
C1235 C1231 1.400 . S
C1235 C1234 1.385 . S
C1236 C1234 1.478 . S
C1236 C1238 1.381 . S
C1236 C1242 1.383 . S
C1237 C1233 1.482 1_545 S
C1237 H1243 0.984 . S
C1237 H1244 0.946 1_545 S
C1237 H1245 0.964 . S
C1238 C1236 1.381 . S
C1238 C1239 1.394 . S
C1238 H1246 0.930 . S
C1239 C1238 1.394 . S
C1239 C1240 1.383 . S
C1239 H1247 0.929 . S
C1240 C1239 1.383 . S
C1240 C1241 1.377 . S
C1241 H1225 0.930 . S
C1241 C1240 1.377 . S
C1241 C1242 1.379 . S
C1242 H1226 0.931 . S
C1242 C1236 1.383 . S
C1242 C1241 1.379 . S
H1243 C1237 0.984 . S
H1244 C1237 0.946 1_565 S
H1245 C1237 0.964 . S
H1246 C1238 0.930 . S
H1247 C1239 0.929 . S
H1248 C1256 0.929 . S
H1249 C1258 0.930 . S
H1250 C1260 0.930 . S
H1251 C1263 0.929 . S
H1252 C1266 0.930 . S
H1253 C1268 0.960 . S
H1254 C1268 0.960 . S
H1255 C1268 0.960 . S
C1256 H1248 0.929 . S
C1256 C1257 1.377 . S
C1256 C1258 1.384 . S
C1257 C1256 1.377 . S
C1257 C1263 1.390 . S
C1258 H1249 0.930 . S
C1258 C1256 1.384 . S
C1258 C1259 1.372 . S
C1259 C1258 1.372 . S
C1259 C1260 1.400 . S
C1259 C1264 1.490 . S
C1260 H1250 0.930 . S
C1260 C1259 1.400 . S
C1260 C1263 1.386 . S
H1261 C1277 0.930 . S
H1262 C1278 0.931 . S
C1263 H1251 0.929 . S
C1263 C1257 1.390 . S
C1263 C1260 1.386 . S
C1264 C1259 1.490 . S
C1264 C1266 1.395 . S
C1264 C1267 1.403 . S
H1265 C1271 0.930 . S
C1266 H1252 0.930 . S
C1266 C1264 1.395 . S
C1266 C1269 1.403 . S
C1267 C1264 1.403 . S
C1267 C1268 1.524 . S
C1267 C1271 1.400 . S
C1268 H1253 0.960 . S
C1268 H1254 0.960 . S
C1268 H1255 0.960 . S
C1268 C1267 1.524 . S
C1269 C1266 1.403 . S
C1269 C1270 1.392 . S
C1269 C1273 1.495 . S
C1270 C1269 1.392 . S
C1270 C1271 1.385 . S
C1270 C1272 1.478 . S
C1271 H1265 0.930 . S
C1271 C1267 1.400 . S
C1271 C1270 1.385 . S
C1272 C1270 1.478 . S
C1272 C1274 1.381 . S
C1272 C1278 1.383 . S
C1273 C1269 1.495 . S
C1273 H1279 0.959 . S
C1273 H1280 0.961 . S
C1273 H1281 0.960 . S
C1274 C1272 1.381 . S
C1274 C1275 1.394 . S
C1274 H1282 0.930 . S
C1275 C1274 1.394 . S
C1275 C1276 1.383 . S
C1275 H1283 0.929 . S
C1276 C1275 1.383 . S
C1276 C1277 1.377 . S
C1277 H1261 0.930 . S
C1277 C1276 1.377 . S
C1277 C1278 1.379 . S
C1278 H1262 0.931 . S
C1278 C1272 1.383 . S
C1278 C1277 1.379 . S
H1279 C1273 0.959 . S
H1280 C1273 0.961 . S
H1281 C1273 0.960 . S
H1282 C1274 0.930 . S
H1283 C1275 0.929 . S
H1284 C1292 0.929 . S
H1285 C1294 0.930 . S
H1286 C1296 0.930 . S
H1287 C1299 0.929 . S
H1288 C1302 0.930 . S
H1289 C1304 0.960 . S
H1290 C1304 0.960 . S
H1291 C1304 0.960 . S
C1292 H1284 0.929 . S
C1292 C1293 1.377 . S
C1292 C1294 1.384 . S
C1293 C1292 1.377 . S
C1293 C1299 1.390 . S
C1294 H1285 0.930 . S
C1294 C1292 1.384 . S
C1294 C1295 1.372 . S
C1295 C1294 1.372 . S
C1295 C1296 1.400 . S
C1295 C1300 1.490 . S
C1296 H1286 0.930 . S
C1296 C1295 1.400 . S
C1296 C1299 1.386 . S
H1297 C1313 0.930 1_545 S
H1298 C1314 0.931 . S
C1299 H1287 0.929 . S
C1299 C1293 1.390 . S
C1299 C1296 1.386 . S
C1300 C1295 1.490 . S
C1300 C1302 1.395 . S
C1300 C1303 1.403 . S
H1301 C1307 0.930 . S
C1302 H1288 0.930 . S
C1302 C1300 1.395 . S
C1302 C1305 1.402 . S
C1303 C1300 1.403 . S
C1303 C1304 1.524 . S
C1303 C1307 1.400 . S
C1304 H1289 0.960 . S
C1304 H1290 0.960 . S
C1304 H1291 0.960 . S
C1304 C1303 1.524 . S
C1305 C1302 1.402 . S
C1305 C1306 1.391 . S
C1305 C1309 1.498 1_545 S
C1306 C1305 1.391 . S
C1306 C1307 1.385 . S
C1306 C1308 1.478 1_545 S
C1307 H1301 0.930 . S
C1307 C1303 1.400 . S
C1307 C1306 1.385 . S
C1308 C1306 1.478 1_565 S
C1308 C1310 1.381 . S
C1308 C1314 1.383 1_564 S
C1309 C1305 1.498 1_565 S
C1309 H1315 0.959 . S
C1309 H1316 0.961 . S
C1309 H1317 0.960 . S
C1310 C1308 1.381 . S
C1310 C1311 1.394 1_554 S
C1310 H1318 0.930 . S
C1311 C1310 1.394 1_556 S
C1311 C1312 1.383 . S
C1311 H1319 0.928 1_556 S
C1312 C1311 1.383 . S
C1312 C1313 1.377 . S
C1313 H1297 0.930 1_565 S
C1313 C1312 1.377 . S
C1313 C1314 1.379 1_565 S
C1314 H1298 0.931 . S
C1314 C1308 1.383 1_546 S
C1314 C1313 1.379 1_545 S
H1315 C1309 0.959 . S
H1316 C1309 0.961 . S
H1317 C1309 0.960 . S
H1318 C1310 0.930 . S
H1319 C1311 0.928 1_554 S
H1320 C1328 0.929 . S
H1321 C1330 0.930 . S
H1322 C1332 0.930 . S
H1323 C1335 0.929 . S
H1324 C1338 0.930 . S
H1325 C1340 0.960 . S
H1326 C1340 0.960 . S
H1327 C1340 0.960 . S
C1328 H1320 0.929 . S
C1328 C1329 1.377 . S
C1328 C1330 1.384 . S
C1329 C1328 1.377 . S
C1329 C1335 1.390 . S
C1330 H1321 0.930 . S
C1330 C1328 1.384 . S
C1330 C1331 1.372 . S
C1331 C1330 1.372 . S
C1331 C1332 1.400 . S
C1331 C1336 1.490 . S
C1332 H1322 0.930 . S
C1332 C1331 1.400 . S
C1332 C1335 1.386 . S
H1333 C1349 0.930 . S
H1334 C1350 0.931 . S
C1335 H1323 0.929 . S
C1335 C1329 1.390 . S
C1335 C1332 1.386 . S
C1336 C1331 1.490 . S
C1336 C1338 1.395 . S
C1336 C1339 1.403 . S
H1337 C1343 0.930 . S
C1338 H1324 0.930 . S
C1338 C1336 1.395 . S
C1338 C1341 1.403 . S
C1339 C1336 1.403 . S
C1339 C1340 1.524 . S
C1339 C1343 1.400 . S
C1340 H1325 0.960 . S
C1340 H1326 0.960 . S
C1340 H1327 0.960 . S
C1340 C1339 1.524 . S
C1341 C1338 1.403 . S
C1341 C1342 1.392 . S
C1341 C1345 1.495 . S
C1342 C1341 1.392 . S
C1342 C1343 1.385 . S
C1342 C1344 1.478 . S
C1343 H1337 0.930 . S
C1343 C1339 1.400 . S
C1343 C1342 1.385 . S
C1344 C1342 1.478 . S
C1344 C1346 1.381 . S
C1344 C1350 1.383 . S
C1345 C1341 1.495 . S
C1345 H1351 0.959 . S
C1345 H1352 0.961 . S
C1345 H1353 0.960 . S
C1346 C1344 1.381 . S
C1346 C1347 1.394 . S
C1346 H1354 0.930 . S
C1347 C1346 1.394 . S
C1347 C1348 1.383 . S
C1347 H1355 0.929 . S
C1348 C1347 1.383 . S
C1348 C1349 1.377 . S
C1349 H1333 0.930 . S
C1349 C1348 1.377 . S
C1349 C1350 1.379 . S
C1350 H1334 0.931 . S
C1350 C1344 1.383 . S
C1350 C1349 1.379 . S
H1351 C1345 0.959 . S
H1352 C1345 0.961 . S
H1353 C1345 0.960 . S
H1354 C1346 0.930 . S
H1355 C1347 0.929 . S
H1356 C1364 0.929 . S
H1357 C1366 0.930 . S
H1358 C1368 0.930 . S
H1359 C1371 0.938 . S
H1360 C1374 0.930 . S
H1361 C1376 0.960 . S
H1362 C1376 0.960 . S
H1363 C1376 0.960 . S
C1364 H1356 0.929 . S
C1364 C1365 1.377 . S
C1364 C1366 1.384 . S
C1365 C1364 1.377 . S
C1365 C1371 1.390 . S
C1366 H1357 0.930 . S
C1366 C1364 1.384 . S
C1366 C1367 1.372 1_554 S
C1367 C1366 1.372 1_556 S
C1367 C1368 1.400 . S
C1367 C1372 1.490 . S
C1368 H1358 0.930 . S
C1368 C1367 1.400 . S
C1368 C1371 1.386 1_556 S
H1369 C1385 0.930 . S
H1370 C1386 0.931 . S
C1371 H1359 0.938 . S
C1371 C1365 1.390 . S
C1371 C1368 1.386 1_554 S
C1372 C1367 1.490 . S
C1372 C1374 1.395 . S
C1372 C1375 1.403 . S
H1373 C1379 0.930 . S
C1374 H1360 0.930 . S
C1374 C1372 1.395 . S
C1374 C1377 1.403 . S
C1375 C1372 1.403 . S
C1375 C1376 1.524 . S
C1375 C1379 1.400 . S
C1376 H1361 0.960 . S
C1376 H1362 0.960 . S
C1376 H1363 0.960 . S
C1376 C1375 1.524 . S
C1377 C1374 1.403 . S
C1377 C1378 1.392 . S
C1377 C1381 1.495 . S
C1378 C1377 1.392 . S
C1378 C1379 1.385 . S
C1378 C1380 1.478 . S
C1379 H1373 0.930 . S
C1379 C1375 1.400 . S
C1379 C1378 1.385 . S
C1380 C1378 1.478 . S
C1380 C1382 1.381 . S
C1380 C1386 1.383 . S
C1381 C1377 1.495 . S
C1381 H1387 0.959 . S
C1381 H1388 0.961 . S
C1381 H1389 0.960 . S
C1382 C1380 1.381 . S
C1382 C1383 1.394 . S
C1382 H1390 0.930 . S
C1383 C1382 1.394 . S
C1383 C1384 1.383 . S
C1383 H1391 0.929 . S
C1384 C1383 1.383 . S
C1384 C1385 1.377 . S
C1385 H1369 0.930 . S
C1385 C1384 1.377 . S
C1385 C1386 1.379 . S
C1386 H1370 0.931 . S
C1386 C1380 1.383 . S
C1386 C1385 1.379 . S
H1387 C1381 0.959 . S
H1388 C1381 0.961 . S
H1389 C1381 0.960 . S
H1390 C1382 0.930 . S
H1391 C1383 0.929 . S
H1392 C1400 0.929 . S
H1393 C1402 0.930 . S
H1394 C1404 0.930 . S
H1395 C1407 0.929 . S
H1396 C1410 0.930 . S
H1397 C1412 0.960 . S
H1398 C1412 0.960 . S
H1399 C1412 0.960 . S
C1400 H1392 0.929 . S
C1400 C1401 1.377 . S
C1400 C1402 1.384 . S
C1401 C1400 1.377 . S
C1401 C1407 1.390 . S
C1402 H1393 0.930 . S
C1402 C1400 1.384 . S
C1402 C1403 1.372 . S
C1403 C1402 1.372 . S
C1403 C1404 1.400 . S
C1403 C1408 1.490 . S
C1404 H1394 0.930 . S
C1404 C1403 1.400 . S
C1404 C1407 1.386 . S
H1405 C1421 0.930 . S
H1406 C1422 0.931 . S
C1407 H1395 0.929 . S
C1407 C1401 1.390 . S
C1407 C1404 1.386 . S
C1408 C1403 1.490 . S
C1408 C1410 1.395 . S
C1408 C1411 1.403 . S
H1409 C1415 0.930 . S
C1410 H1396 0.930 . S
C1410 C1408 1.395 . S
C1410 C1413 1.403 . S
C1411 C1408 1.403 . S
C1411 C1412 1.524 . S
C1411 C1415 1.400 . S
C1412 H1397 0.960 . S
C1412 H1398 0.960 . S
C1412 H1399 0.960 . S
C1412 C1411 1.524 . S
C1413 C1410 1.403 . S
C1413 C1414 1.392 . S
C1413 C1417 1.495 . S
C1414 C1413 1.392 . S
C1414 C1415 1.385 . S
C1414 C1416 1.478 . S
C1415 H1409 0.930 . S
C1415 C1411 1.400 . S
C1415 C1414 1.385 . S
C1416 C1414 1.478 . S
C1416 C1418 1.381 . S
C1416 C1422 1.383 . S
C1417 C1413 1.495 . S
C1417 H1423 0.959 . S
C1417 H1424 0.961 . S
C1417 H1425 0.960 . S
C1418 C1416 1.381 . S
C1418 C1419 1.394 . S
C1418 H1426 0.930 . S
C1419 C1418 1.394 . S
C1419 C1420 1.383 . S
C1419 H1427 0.929 . S
C1420 C1419 1.383 . S
C1420 C1421 1.377 . S
C1421 H1405 0.930 . S
C1421 C1420 1.377 . S
C1421 C1422 1.379 . S
C1422 H1406 0.931 . S
C1422 C1416 1.383 . S
C1422 C1421 1.379 . S
H1423 C1417 0.959 . S
H1424 C1417 0.961 . S
H1425 C1417 0.960 . S
H1426 C1418 0.930 . S
H1427 C1419 0.929 . S
H1428 C1436 0.929 . S
H1429 C1438 0.930 . S
H1430 C1440 0.930 . S
H1431 C1443 0.929 . S
H1432 C1446 0.930 . S
H1433 C1448 0.960 . S
H1434 C1448 0.960 . S
H1435 C1448 0.960 . S
C1436 H1428 0.929 . S
C1436 C1437 1.377 . S
C1436 C1438 1.384 . S
C1437 C1436 1.377 . S
C1437 C1443 1.390 . S
C1438 H1429 0.930 . S
C1438 C1436 1.384 . S
C1438 C1439 1.372 . S
C1439 C1438 1.372 . S
C1439 C1440 1.400 . S
C1439 C1444 1.490 . S
C1440 H1430 0.930 . S
C1440 C1439 1.400 . S
C1440 C1443 1.386 . S
H1441 C1457 0.930 . S
H1442 C1458 0.931 . S
C1443 H1431 0.929 . S
C1443 C1437 1.390 . S
C1443 C1440 1.386 . S
C1444 C1439 1.490 . S
C1444 C1446 1.395 . S
C1444 C1447 1.403 . S
H1445 C1451 0.930 . S
C1446 H1432 0.930 . S
C1446 C1444 1.395 . S
C1446 C1449 1.403 . S
C1447 C1444 1.403 . S
C1447 C1448 1.524 . S
C1447 C1451 1.400 . S
C1448 H1433 0.960 . S
C1448 H1434 0.960 . S
C1448 H1435 0.960 . S
C1448 C1447 1.524 . S
C1449 C1446 1.403 . S
C1449 C1450 1.392 . S
C1449 C1453 1.495 . S
C1450 C1449 1.392 . S
C1450 C1451 1.385 . S
C1450 C1452 1.478 . S
C1451 H1445 0.930 . S
C1451 C1447 1.400 . S
C1451 C1450 1.385 . S
C1452 C1450 1.478 . S
C1452 C1454 1.381 . S
C1452 C1458 1.383 . S
C1453 C1449 1.495 . S
C1453 H1459 0.959 . S
C1453 H1460 0.961 . S
C1453 H1461 0.960 . S
C1454 C1452 1.381 . S
C1454 C1455 1.394 . S
C1454 H1462 0.930 . S
C1455 C1454 1.394 . S
C1455 C1456 1.383 . S
C1455 H1463 0.929 . S
C1456 C1455 1.383 . S
C1456 C1457 1.377 . S
C1457 H1441 0.930 . S
C1457 C1456 1.377 . S
C1457 C1458 1.379 . S
C1458 H1442 0.931 . S
C1458 C1452 1.383 . S
C1458 C1457 1.379 . S
H1459 C1453 0.959 . S
H1460 C1453 0.961 . S
H1461 C1453 0.960 . S
H1462 C1454 0.930 . S
H1463 C1455 0.929 . S
H1464 C1472 0.929 . S
H1465 C1474 0.930 . S
H1466 C1476 0.930 . S
H1467 C1479 0.929 . S
H1468 C1482 0.930 . S
H1469 C1484 0.960 . S
H1470 C1484 0.960 . S
H1471 C1484 0.960 . S
C1472 H1464 0.929 . S
C1472 C1473 1.377 . S
C1472 C1474 1.384 . S
C1473 C1472 1.377 . S
C1473 C1479 1.390 . S
C1474 H1465 0.930 . S
C1474 C1472 1.384 . S
C1474 C1475 1.372 . S
C1475 C1474 1.372 . S
C1475 C1476 1.400 . S
C1475 C1480 1.490 . S
C1476 H1466 0.930 . S
C1476 C1475 1.400 . S
C1476 C1479 1.386 . S
H1477 C1493 0.930 . S
H1478 C1494 0.931 . S
C1479 H1467 0.929 . S
C1479 C1473 1.390 . S
C1479 C1476 1.386 . S
C1480 C1475 1.490 . S
C1480 C1482 1.395 . S
C1480 C1483 1.403 . S
H1481 C1487 0.930 . S
C1482 H1468 0.930 . S
C1482 C1480 1.395 . S
C1482 C1485 1.403 . S
C1483 C1480 1.403 . S
C1483 C1484 1.524 . S
C1483 C1487 1.400 . S
C1484 H1469 0.960 . S
C1484 H1470 0.960 . S
C1484 H1471 0.960 . S
C1484 C1483 1.524 . S
C1485 C1482 1.403 . S
C1485 C1486 1.392 . S
C1485 C1489 1.495 . S
C1486 C1485 1.392 . S
C1486 C1487 1.385 . S
C1486 C1488 1.478 . S
C1487 H1481 0.930 . S
C1487 C1483 1.400 . S
C1487 C1486 1.385 . S
C1488 C1486 1.478 . S
C1488 C1490 1.381 . S
C1488 C1494 1.383 . S
C1489 C1485 1.495 . S
C1489 H1495 0.959 . S
C1489 H1496 0.961 . S
C1489 H1497 0.960 . S
C1490 C1488 1.381 . S
C1490 C1491 1.394 . S
C1490 H1498 0.930 . S
C1491 C1490 1.394 . S
C1491 C1492 1.383 . S
C1491 H1499 0.929 . S
C1492 C1491 1.383 . S
C1492 C1493 1.377 . S
C1493 H1477 0.930 . S
C1493 C1492 1.377 . S
C1493 C1494 1.379 . S
C1494 H1478 0.931 . S
C1494 C1488 1.383 . S
C1494 C1493 1.379 . S
H1495 C1489 0.959 . S
H1496 C1489 0.961 . S
H1497 C1489 0.960 . S
H1498 C1490 0.930 . S
H1499 C1491 0.929 . S
H1500 C1508 0.921 1_455 S
H1501 C1510 0.923 1_545 S
H1502 C1512 0.930 . S
H1503 C1515 0.929 . S
H1504 C1518 0.930 . S
H1505 C1520 0.960 . S
H1506 C1520 0.960 . S
H1507 C1520 0.960 . S
C1508 H1500 0.921 1_655 S
C1508 C1509 1.395 . S
C1508 C1510 1.412 1_655 S
C1509 C1508 1.395 . S
C1509 C1515 1.390 . S
C1510 H1501 0.923 1_565 S
C1510 C1508 1.412 1_455 S
C1510 C1511 1.341 1_565 S
C1511 C1510 1.341 1_545 S
C1511 C1512 1.400 1_455 S
C1511 C1516 1.490 . S
C1512 H1502 0.930 . S
C1512 C1511 1.400 1_655 S
C1512 C1515 1.386 1_545 S
H1513 C1529 0.930 . S
H1514 C1530 0.931 . S
C1515 H1503 0.929 . S
C1515 C1509 1.390 . S
C1515 C1512 1.386 1_565 S
C1516 C1511 1.490 . S
C1516 C1518 1.395 . S
C1516 C1519 1.403 . S
H1517 C1523 0.930 . S
C1518 H1504 0.930 . S
C1518 C1516 1.395 . S
C1518 C1521 1.403 . S
C1519 C1516 1.403 . S
C1519 C1520 1.524 1_455 S
C1519 C1523 1.400 . S
C1520 H1505 0.960 . S
C1520 H1506 0.960 . S
C1520 H1507 0.960 . S
C1520 C1519 1.524 1_655 S
C1521 C1518 1.403 . S
C1521 C1522 1.392 . S
C1521 C1525 1.495 . S
C1522 C1521 1.392 . S
C1522 C1523 1.385 . S
C1522 C1524 1.478 . S
C1523 H1517 0.930 . S
C1523 C1519 1.400 . S
C1523 C1522 1.385 . S
C1524 C1522 1.478 . S
C1524 C1526 1.381 . S
C1524 C1530 1.383 . S
C1525 C1521 1.495 . S
C1525 H1531 0.959 . S
C1525 H1532 0.961 . S
C1525 H1533 0.960 . S
C1526 C1524 1.381 . S
C1526 C1527 1.394 . S
C1526 H1534 0.930 . S
C1527 C1526 1.394 . S
C1527 C1528 1.383 . S
C1527 H1535 0.929 . S
C1528 C1527 1.383 . S
C1528 C1529 1.377 . S
C1529 H1513 0.930 . S
C1529 C1528 1.377 . S
C1529 C1530 1.379 . S
C1530 H1514 0.931 . S
C1530 C1524 1.383 . S
C1530 C1529 1.379 . S
H1531 C1525 0.959 . S
H1532 C1525 0.961 . S
H1533 C1525 0.960 . S
H1534 C1526 0.930 . S
H1535 C1527 0.929 . S
H1536 C1544 0.929 . S
H1537 C1546 0.930 . S
H1538 C1548 0.930 . S
H1539 C1551 0.929 . S
H1540 C1554 0.930 . S
H1541 C1556 0.960 . S
H1542 C1556 0.960 . S
H1543 C1556 0.960 . S
C1544 H1536 0.929 . S
C1544 C1545 1.377 . S
C1544 C1546 1.384 . S
C1545 C1544 1.377 . S
C1545 C1551 1.390 . S
C1546 H1537 0.930 . S
C1546 C1544 1.384 . S
C1546 C1547 1.372 . S
C1547 C1546 1.372 . S
C1547 C1548 1.400 . S
C1547 C1552 1.490 . S
C1548 H1538 0.930 . S
C1548 C1547 1.400 . S
C1548 C1551 1.386 . S
H1549 C1565 0.930 . S
H1550 C1566 0.931 . S
C1551 H1539 0.929 . S
C1551 C1545 1.390 . S
C1551 C1548 1.386 . S
C1552 C1547 1.490 . S
C1552 C1554 1.395 . S
C1552 C1555 1.403 . S
H1553 C1559 0.930 . S
C1554 H1540 0.930 . S
C1554 C1552 1.395 . S
C1554 C1557 1.403 . S
C1555 C1552 1.403 . S
C1555 C1556 1.524 . S
C1555 C1559 1.400 . S
C1556 H1541 0.960 . S
C1556 H1542 0.960 . S
C1556 H1543 0.960 . S
C1556 C1555 1.524 . S
C1557 C1554 1.403 . S
C1557 C1558 1.392 . S
C1557 C1561 1.495 . S
C1558 C1557 1.392 . S
C1558 C1559 1.385 . S
C1558 C1560 1.478 . S
C1559 H1553 0.930 . S
C1559 C1555 1.400 . S
C1559 C1558 1.385 . S
C1560 C1558 1.478 . S
C1560 C1562 1.381 . S
C1560 C1566 1.383 . S
C1561 C1557 1.495 . S
C1561 H1567 0.959 . S
C1561 H1568 0.961 . S
C1561 H1569 0.960 . S
C1562 C1560 1.381 . S
C1562 C1563 1.394 . S
C1562 H1570 0.930 . S
C1563 C1562 1.394 . S
C1563 C1564 1.383 . S
C1563 H1571 0.929 . S
C1564 C1563 1.383 . S
C1564 C1565 1.377 . S
C1565 H1549 0.930 . S
C1565 C1564 1.377 . S
C1565 C1566 1.379 . S
C1566 H1550 0.931 . S
C1566 C1560 1.383 . S
C1566 C1565 1.379 . S
H1567 C1561 0.959 . S
H1568 C1561 0.961 . S
H1569 C1561 0.960 . S
H1570 C1562 0.930 . S
H1571 C1563 0.929 . S
H1572 C1580 0.929 . S
H1573 C1582 0.930 . S
H1574 C1584 0.930 . S
H1575 C1587 0.929 . S
H1576 C1590 0.930 . S
H1577 C1592 0.960 . S
H1578 C1592 0.960 . S
H1579 C1592 0.960 . S
C1580 H1572 0.929 . S
C1580 C1581 1.377 . S
C1580 C1582 1.384 . S
C1581 C1580 1.377 . S
C1581 C1587 1.390 . S
C1582 H1573 0.930 . S
C1582 C1580 1.384 . S
C1582 C1583 1.372 1_545 S
C1583 C1582 1.372 1_565 S
C1583 C1584 1.400 . S
C1583 C1588 1.490 . S
C1584 H1574 0.930 . S
C1584 C1583 1.400 . S
C1584 C1587 1.386 1_565 S
H1585 C1601 0.930 . S
H1586 C1602 0.931 . S
C1587 H1575 0.929 . S
C1587 C1581 1.390 . S
C1587 C1584 1.386 1_545 S
C1588 C1583 1.490 . S
C1588 C1590 1.395 . S
C1588 C1591 1.403 . S
H1589 C1595 0.930 . S
C1590 H1576 0.930 . S
C1590 C1588 1.395 . S
C1590 C1593 1.403 . S
C1591 C1588 1.403 . S
C1591 C1592 1.524 . S
C1591 C1595 1.400 . S
C1592 H1577 0.960 . S
C1592 H1578 0.960 . S
C1592 H1579 0.960 . S
C1592 C1591 1.524 . S
C1593 C1590 1.403 . S
C1593 C1594 1.392 . S
C1593 C1597 1.495 . S
C1594 C1593 1.392 . S
C1594 C1595 1.385 . S
C1594 C1596 1.478 . S
C1595 H1589 0.930 . S
C1595 C1591 1.400 . S
C1595 C1594 1.385 . S
C1596 C1594 1.478 . S
C1596 C1598 1.381 . S
C1596 C1602 1.383 . S
C1597 C1593 1.495 . S
C1597 H1603 0.959 . S
C1597 H1604 0.961 . S
C1597 H1605 0.960 . S
C1598 C1596 1.381 . S
C1598 C1599 1.394 . S
C1598 H1606 0.930 . S
C1599 C1598 1.394 . S
C1599 C1600 1.383 . S
C1599 H1607 0.929 . S
C1600 C1599 1.383 . S
C1600 C1601 1.377 . S
C1601 H1585 0.930 . S
C1601 C1600 1.377 . S
C1601 C1602 1.379 . S
C1602 H1586 0.931 . S
C1602 C1596 1.383 . S
C1602 C1601 1.379 . S
H1603 C1597 0.959 . S
H1604 C1597 0.961 . S
H1605 C1597 0.960 . S
H1606 C1598 0.930 . S
H1607 C1599 0.929 . S
H1608 C1616 0.929 . S
H1609 C1618 0.930 . S
H1610 C1620 0.930 . S
H1611 C1623 0.929 . S
H1612 C1626 0.930 . S
H1613 C1628 0.960 . S
H1614 C1628 0.960 . S
H1615 C1628 0.960 . S
C1616 H1608 0.929 . S
C1616 C1617 1.377 . S
C1616 C1618 1.384 . S
C1617 C1616 1.377 . S
C1617 C1623 1.390 . S
C1618 H1609 0.930 . S
C1618 C1616 1.384 . S
C1618 C1619 1.372 . S
C1619 C1618 1.372 . S
C1619 C1620 1.400 . S
C1619 C1624 1.490 . S
C1620 H1610 0.930 . S
C1620 C1619 1.400 . S
C1620 C1623 1.386 . S
H1621 C1637 0.930 . S
H1622 C1638 0.931 . S
C1623 H1611 0.929 . S
C1623 C1617 1.390 . S
C1623 C1620 1.386 . S
C1624 C1619 1.490 . S
C1624 C1626 1.395 . S
C1624 C1627 1.403 . S
H1625 C1631 0.930 . S
C1626 H1612 0.930 . S
C1626 C1624 1.395 . S
C1626 C1629 1.403 . S
C1627 C1624 1.403 . S
C1627 C1628 1.524 . S
C1627 C1631 1.400 . S
C1628 H1613 0.960 . S
C1628 H1614 0.960 . S
C1628 H1615 0.960 . S
C1628 C1627 1.524 . S
C1629 C1626 1.403 . S
C1629 C1630 1.392 . S
C1629 C1633 1.495 . S
C1630 C1629 1.392 . S
C1630 C1631 1.385 . S
C1630 C1632 1.478 . S
C1631 H1625 0.930 . S
C1631 C1627 1.400 . S
C1631 C1630 1.385 . S
C1632 C1630 1.478 . S
C1632 C1634 1.381 . S
C1632 C1638 1.383 . S
C1633 C1629 1.495 . S
C1633 H1639 0.959 . S
C1633 H1640 0.961 . S
C1633 H1641 0.960 . S
C1634 C1632 1.381 . S
C1634 C1635 1.394 . S
C1634 H1642 0.930 . S
C1635 C1634 1.394 . S
C1635 C1636 1.383 . S
C1635 H1643 0.929 . S
C1636 C1635 1.383 . S
C1636 C1637 1.377 . S
C1637 H1621 0.930 . S
C1637 C1636 1.377 . S
C1637 C1638 1.379 . S
C1638 H1622 0.931 . S
C1638 C1632 1.383 . S
C1638 C1637 1.379 . S
H1639 C1633 0.959 . S
H1640 C1633 0.961 . S
H1641 C1633 0.960 . S
H1642 C1634 0.930 . S
H1643 C1635 0.929 . S
H1644 C1652 0.929 . S
H1645 C1654 0.931 . S
H1646 C1656 0.930 . S
H1647 C1659 0.929 . S
H1648 C1662 0.930 1_455 S
H1649 C1664 0.960 . S
H1650 C1664 0.960 . S
H1651 C1664 0.960 . S
C1652 H1644 0.929 . S
C1652 C1653 1.377 . S
C1652 C1654 1.384 . S
C1653 C1652 1.377 . S
C1653 C1659 1.390 . S
C1654 H1645 0.931 . S
C1654 C1652 1.384 . S
C1654 C1655 1.363 1_455 S
C1655 C1654 1.363 1_655 S
C1655 C1656 1.389 1_655 S
C1655 C1660 1.511 . S
C1656 H1646 0.930 . S
C1656 C1655 1.389 1_455 S
C1656 C1659 1.386 . S
H1657 C1673 0.930 . S
H1658 C1674 0.931 . S
C1659 H1647 0.929 . S
C1659 C1653 1.390 . S
C1659 C1656 1.386 . S
C1660 C1655 1.511 . S
C1660 C1662 1.395 . S
C1660 C1663 1.403 . S
H1661 C1667 0.930 . S
C1662 H1648 0.930 1_655 S
C1662 C1660 1.395 . S
C1662 C1665 1.403 . S
C1663 C1660 1.403 . S
C1663 C1664 1.524 . S
C1663 C1667 1.400 . S
C1664 H1649 0.960 . S
C1664 H1650 0.960 . S
C1664 H1651 0.960 . S
C1664 C1663 1.524 . S
C1665 C1662 1.403 . S
C1665 C1666 1.392 . S
C1665 C1669 1.507 . S
C1666 C1665 1.392 . S
C1666 C1667 1.385 . S
C1666 C1668 1.478 . S
C1667 H1661 0.930 . S
C1667 C1663 1.400 . S
C1667 C1666 1.385 . S
C1668 C1666 1.478 . S
C1668 C1670 1.381 . S
C1668 C1674 1.383 . S
C1669 C1665 1.507 . S
C1669 H1675 0.938 1_655 S
C1669 H1676 0.956 1_655 S
C1669 H1677 0.975 . S
C1670 C1668 1.381 . S
C1670 C1671 1.394 . S
C1670 H1678 0.930 . S
C1671 C1670 1.394 . S
C1671 C1672 1.383 . S
C1671 H1679 0.929 . S
C1672 C1671 1.383 . S
C1672 C1673 1.377 . S
C1673 H1657 0.930 . S
C1673 C1672 1.377 . S
C1673 C1674 1.379 . S
C1674 H1658 0.931 . S
C1674 C1668 1.383 . S
C1674 C1673 1.379 . S
H1675 C1669 0.938 1_455 S
H1676 C1669 0.956 1_455 S
H1677 C1669 0.975 . S
H1678 C1670 0.930 . S
H1679 C1671 0.929 . S
H1680 C1688 0.929 . S
H1681 C1690 0.930 . S
H1682 C1692 0.930 . S
H1683 C1695 0.929 . S
H1684 C1698 0.930 . S
H1685 C1700 0.960 . S
H1686 C1700 0.960 . S
H1687 C1700 0.960 . S
C1688 H1680 0.929 . S
C1688 C1689 1.377 . S
C1688 C1690 1.384 . S
C1689 C1688 1.377 . S
C1689 C1695 1.390 . S
C1690 H1681 0.930 . S
C1690 C1688 1.384 . S
C1690 C1691 1.372 . S
C1691 C1690 1.372 . S
C1691 C1692 1.400 . S
C1691 C1696 1.490 . S
C1692 H1682 0.930 . S
C1692 C1691 1.400 . S
C1692 C1695 1.386 . S
H1693 C1709 0.930 . S
H1694 C1710 0.931 . S
C1695 H1683 0.929 . S
C1695 C1689 1.390 . S
C1695 C1692 1.386 . S
C1696 C1691 1.490 . S
C1696 C1698 1.395 . S
C1696 C1699 1.403 . S
H1697 C1703 0.930 . S
C1698 H1684 0.930 . S
C1698 C1696 1.395 . S
C1698 C1701 1.403 . S
C1699 C1696 1.403 . S
C1699 C1700 1.524 . S
C1699 C1703 1.400 . S
C1700 H1685 0.960 . S
C1700 H1686 0.960 . S
C1700 H1687 0.960 . S
C1700 C1699 1.524 . S
C1701 C1698 1.403 . S
C1701 C1702 1.392 . S
C1701 C1705 1.495 . S
C1702 C1701 1.392 . S
C1702 C1703 1.385 . S
C1702 C1704 1.478 . S
C1703 H1697 0.930 . S
C1703 C1699 1.400 . S
C1703 C1702 1.385 . S
C1704 C1702 1.478 . S
C1704 C1706 1.381 . S
C1704 C1710 1.383 . S
C1705 C1701 1.495 . S
C1705 H1711 0.959 . S
C1705 H1712 0.961 . S
C1705 H1713 0.960 . S
C1706 C1704 1.381 . S
C1706 C1707 1.394 . S
C1706 H1714 0.930 . S
C1707 C1706 1.394 . S
C1707 C1708 1.383 . S
C1707 H1715 0.929 . S
C1708 C1707 1.383 . S
C1708 C1709 1.377 . S
C1709 H1693 0.930 . S
C1709 C1708 1.377 . S
C1709 C1710 1.379 . S
C1710 H1694 0.931 . S
C1710 C1704 1.383 . S
C1710 C1709 1.379 . S
H1711 C1705 0.959 . S
H1712 C1705 0.961 . S
H1713 C1705 0.960 . S
H1714 C1706 0.930 . S
H1715 C1707 0.929 . S
H1716 C1724 0.929 . S
H1717 C1726 0.930 . S
H1718 C1728 0.930 . S
H1719 C1731 0.929 . S
H1720 C1734 0.930 . S
H1721 C1736 0.960 . S
H1722 C1736 0.960 . S
H1723 C1736 0.960 . S
C1724 H1716 0.929 . S
C1724 C1725 1.377 . S
C1724 C1726 1.384 . S
C1725 C1724 1.377 . S
C1725 C1731 1.390 . S
C1726 H1717 0.930 . S
C1726 C1724 1.384 . S
C1726 C1727 1.372 . S
C1727 C1726 1.372 . S
C1727 C1728 1.400 . S
C1727 C1732 1.490 . S
C1728 H1718 0.930 . S
C1728 C1727 1.400 . S
C1728 C1731 1.386 . S
H1729 C1745 0.930 . S
H1730 C1746 0.931 . S
C1731 H1719 0.929 . S
C1731 C1725 1.390 . S
C1731 C1728 1.386 . S
C1732 C1727 1.490 . S
C1732 C1734 1.395 . S
C1732 C1735 1.403 . S
H1733 C1739 0.930 . S
C1734 H1720 0.930 . S
C1734 C1732 1.395 . S
C1734 C1737 1.403 . S
C1735 C1732 1.403 . S
C1735 C1736 1.524 . S
C1735 C1739 1.400 . S
C1736 H1721 0.960 . S
C1736 H1722 0.960 . S
C1736 H1723 0.960 . S
C1736 C1735 1.524 . S
C1737 C1734 1.403 . S
C1737 C1738 1.392 . S
C1737 C1741 1.495 . S
C1738 C1737 1.392 . S
C1738 C1739 1.385 . S
C1738 C1740 1.478 . S
C1739 H1733 0.930 . S
C1739 C1735 1.400 . S
C1739 C1738 1.385 . S
C1740 C1738 1.478 . S
C1740 C1742 1.381 . S
C1740 C1746 1.383 . S
C1741 C1737 1.495 . S
C1741 H1747 0.959 . S
C1741 H1748 0.961 . S
C1741 H1749 0.960 . S
C1742 C1740 1.381 . S
C1742 C1743 1.394 . S
C1742 H1750 0.930 . S
C1743 C1742 1.394 . S
C1743 C1744 1.383 . S
C1743 H1751 0.929 . S
C1744 C1743 1.383 . S
C1744 C1745 1.377 . S
C1745 H1729 0.930 . S
C1745 C1744 1.377 . S
C1745 C1746 1.379 . S
C1746 H1730 0.931 . S
C1746 C1740 1.383 . S
C1746 C1745 1.379 . S
H1747 C1741 0.959 . S
H1748 C1741 0.961 . S
H1749 C1741 0.960 . S
H1750 C1742 0.930 . S
H1751 C1743 0.929 . S
H1752 C1760 0.929 . S
H1753 C1762 0.930 . S
H1754 C1764 0.930 . S
H1755 C1767 0.929 . S
H1756 C1770 0.930 . S
H1757 C1772 0.960 . S
H1758 C1772 0.960 . S
H1759 C1772 0.960 . S
C1760 H1752 0.929 . S
C1760 C1761 1.377 . S
C1760 C1762 1.384 . S
C1761 C1760 1.377 . S
C1761 C1767 1.390 . S
C1762 H1753 0.930 . S
C1762 C1760 1.384 . S
C1762 C1763 1.372 . S
C1763 C1762 1.372 . S
C1763 C1764 1.400 . S
C1763 C1768 1.490 . S
C1764 H1754 0.930 . S
C1764 C1763 1.400 . S
C1764 C1767 1.386 . S
H1765 C1781 0.930 . S
H1766 C1782 0.931 . S
C1767 H1755 0.929 . S
C1767 C1761 1.390 . S
C1767 C1764 1.386 . S
C1768 C1763 1.490 . S
C1768 C1770 1.395 . S
C1768 C1771 1.403 . S
H1769 C1775 0.930 . S
C1770 H1756 0.930 . S
C1770 C1768 1.395 . S
C1770 C1773 1.403 . S
C1771 C1768 1.403 . S
C1771 C1772 1.524 . S
C1771 C1775 1.400 . S
C1772 H1757 0.960 . S
C1772 H1758 0.960 . S
C1772 H1759 0.960 . S
C1772 C1771 1.524 . S
C1773 C1770 1.403 . S
C1773 C1774 1.392 . S
C1773 C1777 1.495 . S
C1774 C1773 1.392 . S
C1774 C1775 1.385 . S
C1774 C1776 1.478 . S
C1775 H1769 0.930 . S
C1775 C1771 1.400 . S
C1775 C1774 1.385 . S
C1776 C1774 1.478 . S
C1776 C1778 1.381 . S
C1776 C1782 1.383 . S
C1777 C1773 1.495 . S
C1777 H1783 0.959 . S
C1777 H1784 0.961 . S
C1777 H1785 0.960 . S
C1778 C1776 1.381 . S
C1778 C1779 1.394 . S
C1778 H1786 0.930 . S
C1779 C1778 1.394 . S
C1779 C1780 1.383 . S
C1779 H1787 0.929 . S
C1780 C1779 1.383 . S
C1780 C1781 1.377 . S
C1781 H1765 0.930 . S
C1781 C1780 1.377 . S
C1781 C1782 1.379 . S
C1782 H1766 0.931 . S
C1782 C1776 1.383 . S
C1782 C1781 1.379 . S
H1783 C1777 0.959 . S
H1784 C1777 0.961 . S
H1785 C1777 0.960 . S
H1786 C1778 0.930 . S
H1787 C1779 0.929 . S
H1788 C1796 0.929 . S
H1789 C1798 0.930 . S
H1790 C1800 0.930 . S
H1791 C1803 0.929 . S
H1792 C1806 0.930 . S
H1793 C1808 0.960 . S
H1794 C1808 0.960 . S
H1795 C1808 0.960 . S
C1796 H1788 0.929 . S
C1796 C1797 1.377 . S
C1796 C1798 1.384 . S
C1797 C1796 1.377 . S
C1797 C1803 1.390 . S
C1798 H1789 0.930 . S
C1798 C1796 1.384 . S
C1798 C1799 1.372 . S
C1799 C1798 1.372 . S
C1799 C1800 1.400 . S
C1799 C1804 1.490 . S
C1800 H1790 0.930 . S
C1800 C1799 1.400 . S
C1800 C1803 1.386 . S
H1801 C1817 0.930 . S
H1802 C1818 0.931 . S
C1803 H1791 0.929 . S
C1803 C1797 1.390 . S
C1803 C1800 1.386 . S
C1804 C1799 1.490 . S
C1804 C1806 1.395 . S
C1804 C1807 1.403 . S
H1805 C1811 0.930 . S
C1806 H1792 0.930 . S
C1806 C1804 1.395 . S
C1806 C1809 1.403 . S
C1807 C1804 1.403 . S
C1807 C1808 1.524 . S
C1807 C1811 1.400 . S
C1808 H1793 0.960 . S
C1808 H1794 0.960 . S
C1808 H1795 0.960 . S
C1808 C1807 1.524 . S
C1809 C1806 1.403 . S
C1809 C1810 1.392 . S
C1809 C1813 1.495 . S
C1810 C1809 1.392 . S
C1810 C1811 1.385 . S
C1810 C1812 1.478 . S
C1811 H1805 0.930 . S
C1811 C1807 1.400 . S
C1811 C1810 1.385 . S
C1812 C1810 1.478 . S
C1812 C1814 1.381 . S
C1812 C1818 1.383 . S
C1813 C1809 1.495 . S
C1813 H1819 0.959 . S
C1813 H1820 0.961 . S
C1813 H1821 0.960 . S
C1814 C1812 1.381 . S
C1814 C1815 1.394 . S
C1814 H1822 0.930 . S
C1815 C1814 1.394 . S
C1815 C1816 1.383 . S
C1815 H1823 0.929 . S
C1816 C1815 1.383 . S
C1816 C1817 1.377 . S
C1817 H1801 0.930 . S
C1817 C1816 1.377 . S
C1817 C1818 1.379 . S
C1818 H1802 0.931 . S
C1818 C1812 1.383 . S
C1818 C1817 1.379 . S
H1819 C1813 0.959 . S
H1820 C1813 0.961 . S
H1821 C1813 0.960 . S
H1822 C1814 0.930 . S
H1823 C1815 0.929 . S
H1824 C1832 0.929 . S
H1825 C1834 0.930 . S
H1826 C1836 0.930 . S
H1827 C1839 0.929 1_554 S
H1828 C1842 0.942 . S
H1829 C1844 0.960 . S
H1830 C1844 0.960 . S
H1831 C1844 0.960 . S
C1832 H1824 0.929 . S
C1832 C1833 1.377 . S
C1832 C1834 1.384 1_655 S
C1833 C1832 1.377 . S
C1833 C1839 1.390 . S
C1834 H1825 0.930 . S
C1834 C1832 1.384 1_455 S
C1834 C1835 1.371 . S
C1835 C1834 1.371 . S
C1835 C1836 1.400 1_556 S
C1835 C1840 1.491 1_556 S
C1836 H1826 0.930 . S
C1836 C1835 1.400 1_554 S
C1836 C1839 1.386 1_454 S
H1837 C1853 0.930 . S
H1838 C1854 0.931 . S
C1839 H1827 0.929 1_556 S
C1839 C1833 1.390 . S
C1839 C1836 1.386 1_656 S
C1840 C1835 1.491 1_554 S
C1840 C1842 1.388 1_554 S
C1840 C1843 1.403 . S
H1841 C1847 0.930 . S
C1842 H1828 0.942 . S
C1842 C1840 1.388 1_556 S
C1842 C1845 1.398 1_556 S
C1843 C1840 1.403 . S
C1843 C1844 1.524 . S
C1843 C1847 1.400 . S
C1844 H1829 0.960 . S
C1844 H1830 0.960 . S
C1844 H1831 0.960 . S
C1844 C1843 1.524 . S
C1845 C1842 1.398 1_554 S
C1845 C1846 1.392 . S
C1845 C1849 1.495 1_554 S
C1846 C1845 1.392 . S
C1846 C1847 1.385 . S
C1846 C1848 1.478 . S
C1847 H1841 0.930 . S
C1847 C1843 1.400 . S
C1847 C1846 1.385 . S
C1848 C1846 1.478 . S
C1848 C1850 1.381 . S
C1848 C1854 1.383 . S
C1849 C1845 1.495 1_556 S
C1849 H1855 0.959 . S
C1849 H1856 0.961 1_556 S
C1849 H1857 0.960 . S
C1850 C1848 1.381 . S
C1850 C1851 1.394 . S
C1850 H1858 0.930 . S
C1851 C1850 1.394 . S
C1851 C1852 1.383 . S
C1851 H1859 0.929 . S
C1852 C1851 1.383 . S
C1852 C1853 1.377 . S
C1853 H1837 0.930 . S
C1853 C1852 1.377 . S
C1853 C1854 1.379 . S
C1854 H1838 0.931 . S
C1854 C1848 1.383 . S
C1854 C1853 1.379 . S
H1855 C1849 0.959 . S
H1856 C1849 0.961 1_554 S
H1857 C1849 0.960 . S
H1858 C1850 0.930 . S
H1859 C1851 0.929 . S
H1860 C1868 0.929 . S
H1861 C1870 0.930 . S
H1862 C1872 0.930 . S
H1863 C1875 0.929 . S
H1864 C1878 0.930 . S
H1865 C1880 0.960 . S
H1866 C1880 0.960 . S
H1867 C1880 0.960 . S
C1868 H1860 0.929 . S
C1868 C1869 1.377 . S
C1868 C1870 1.384 . S
C1869 C1868 1.377 . S
C1869 C1875 1.390 . S
C1870 H1861 0.930 . S
C1870 C1868 1.384 . S
C1870 C1871 1.372 . S
C1871 C1870 1.372 . S
C1871 C1872 1.400 . S
C1871 C1876 1.490 . S
C1872 H1862 0.930 . S
C1872 C1871 1.400 . S
C1872 C1875 1.386 . S
H1873 C1889 0.930 . S
H1874 C1890 0.931 . S
C1875 H1863 0.929 . S
C1875 C1869 1.390 . S
C1875 C1872 1.386 . S
C1876 C1871 1.490 . S
C1876 C1878 1.395 . S
C1876 C1879 1.403 . S
H1877 C1883 0.930 . S
C1878 H1864 0.930 . S
C1878 C1876 1.395 . S
C1878 C1881 1.403 . S
C1879 C1876 1.403 . S
C1879 C1880 1.524 . S
C1879 C1883 1.400 . S
C1880 H1865 0.960 . S
C1880 H1866 0.960 . S
C1880 H1867 0.960 . S
C1880 C1879 1.524 . S
C1881 C1878 1.403 . S
C1881 C1882 1.392 . S
C1881 C1885 1.495 . S
C1882 C1881 1.392 . S
C1882 C1883 1.385 . S
C1882 C1884 1.478 . S
C1883 H1877 0.930 . S
C1883 C1879 1.400 . S
C1883 C1882 1.385 . S
C1884 C1882 1.478 . S
C1884 C1886 1.381 . S
C1884 C1890 1.383 . S
C1885 C1881 1.495 . S
C1885 H1891 0.959 . S
C1885 H1892 0.961 . S
C1885 H1893 0.960 . S
C1886 C1884 1.381 . S
C1886 C1887 1.394 . S
C1886 H1894 0.930 . S
C1887 C1886 1.394 . S
C1887 C1888 1.383 . S
C1887 H1895 0.929 . S
C1888 C1887 1.383 . S
C1888 C1889 1.377 . S
C1889 H1873 0.930 . S
C1889 C1888 1.377 . S
C1889 C1890 1.379 . S
C1890 H1874 0.931 . S
C1890 C1884 1.383 . S
C1890 C1889 1.379 . S
H1891 C1885 0.959 . S
H1892 C1885 0.961 . S
H1893 C1885 0.960 . S
H1894 C1886 0.930 . S
H1895 C1887 0.929 . S
H1896 C1904 0.929 . S
H1897 C1906 0.930 . S
H1898 C1908 0.930 . S
H1899 C1911 0.929 . S
H1900 C1914 0.930 . S
H1901 C1916 0.960 . S
H1902 C1916 0.960 . S
H1903 C1916 0.960 . S
C1904 H1896 0.929 . S
C1904 C1905 1.377 . S
C1904 C1906 1.384 . S
C1905 C1904 1.377 . S
C1905 C1911 1.390 . S
C1906 H1897 0.930 . S
C1906 C1904 1.384 . S
C1906 C1907 1.372 . S
C1907 C1906 1.372 . S
C1907 C1908 1.400 . S
C1907 C1912 1.490 . S
C1908 H1898 0.930 . S
C1908 C1907 1.400 . S
C1908 C1911 1.386 . S
H1909 C1925 0.930 . S
H1910 C1926 0.931 . S
C1911 H1899 0.929 . S
C1911 C1905 1.390 . S
C1911 C1908 1.386 . S
C1912 C1907 1.490 . S
C1912 C1914 1.395 . S
C1912 C1915 1.403 . S
H1913 C1919 0.930 . S
C1914 H1900 0.930 . S
C1914 C1912 1.395 . S
C1914 C1917 1.403 . S
C1915 C1912 1.403 . S
C1915 C1916 1.524 . S
C1915 C1919 1.400 . S
C1916 H1901 0.960 . S
C1916 H1902 0.960 . S
C1916 H1903 0.960 . S
C1916 C1915 1.524 . S
C1917 C1914 1.403 . S
C1917 C1918 1.392 . S
C1917 C1921 1.495 . S
C1918 C1917 1.392 . S
C1918 C1919 1.385 . S
C1918 C1920 1.478 . S
C1919 H1913 0.930 . S
C1919 C1915 1.400 . S
C1919 C1918 1.385 . S
C1920 C1918 1.478 . S
C1920 C1922 1.381 . S
C1920 C1926 1.383 . S
C1921 C1917 1.495 . S
C1921 H1927 0.959 . S
C1921 H1928 0.961 . S
C1921 H1929 0.960 . S
C1922 C1920 1.381 . S
C1922 C1923 1.394 . S
C1922 H1930 0.930 . S
C1923 C1922 1.394 . S
C1923 C1924 1.383 . S
C1923 H1931 0.929 . S
C1924 C1923 1.383 . S
C1924 C1925 1.377 . S
C1925 H1909 0.930 . S
C1925 C1924 1.377 . S
C1925 C1926 1.379 . S
C1926 H1910 0.931 . S
C1926 C1920 1.383 . S
C1926 C1925 1.379 . S
H1927 C1921 0.959 . S
H1928 C1921 0.961 . S
H1929 C1921 0.960 . S
H1930 C1922 0.930 . S
H1931 C1923 0.929 . S
H1932 C1940 0.929 . S
H1933 C1942 0.930 . S
H1934 C1944 0.930 . S
H1935 C1947 0.929 . S
H1936 C1950 0.930 . S
H1937 C1952 0.960 . S
H1938 C1952 0.960 . S
H1939 C1952 0.960 . S
C1940 H1932 0.929 . S
C1940 C1941 1.377 . S
C1940 C1942 1.384 . S
C1941 C1940 1.377 . S
C1941 C1947 1.390 . S
C1942 H1933 0.930 . S
C1942 C1940 1.384 . S
C1942 C1943 1.372 . S
C1943 C1942 1.372 . S
C1943 C1944 1.400 . S
C1943 C1948 1.490 . S
C1944 H1934 0.930 . S
C1944 C1943 1.400 . S
C1944 C1947 1.386 . S
H1945 C1961 0.930 . S
H1946 C1962 0.931 . S
C1947 H1935 0.929 . S
C1947 C1941 1.390 . S
C1947 C1944 1.386 . S
C1948 C1943 1.490 . S
C1948 C1950 1.395 . S
C1948 C1951 1.403 . S
H1949 C1955 0.930 . S
C1950 H1936 0.930 . S
C1950 C1948 1.395 . S
C1950 C1953 1.403 . S
C1951 C1948 1.403 . S
C1951 C1952 1.524 . S
C1951 C1955 1.400 . S
C1952 H1937 0.960 . S
C1952 H1938 0.960 . S
C1952 H1939 0.960 . S
C1952 C1951 1.524 . S
C1953 C1950 1.403 . S
C1953 C1954 1.392 . S
C1953 C1957 1.495 . S
C1954 C1953 1.392 . S
C1954 C1955 1.385 . S
C1954 C1956 1.478 . S
C1955 H1949 0.930 . S
C1955 C1951 1.400 . S
C1955 C1954 1.385 . S
C1956 C1954 1.478 . S
C1956 C1958 1.381 . S
C1956 C1962 1.383 . S
C1957 C1953 1.495 . S
C1957 H1963 0.959 . S
C1957 H1964 0.961 . S
C1957 H1965 0.960 . S
C1958 C1956 1.381 . S
C1958 C1959 1.394 . S
C1958 H1966 0.930 . S
C1959 C1958 1.394 . S
C1959 C1960 1.383 . S
C1959 H1967 0.929 . S
C1960 C1959 1.383 . S
C1960 C1961 1.377 . S
C1961 H1945 0.930 . S
C1961 C1960 1.377 . S
C1961 C1962 1.379 . S
C1962 H1946 0.931 . S
C1962 C1956 1.383 . S
C1962 C1961 1.379 . S
H1963 C1957 0.959 . S
H1964 C1957 0.961 . S
H1965 C1957 0.960 . S
H1966 C1958 0.930 . S
H1967 C1959 0.929 . S
H1968 C1976 0.947 . S
H1969 C1978 0.930 . S
H1970 C1980 0.930 . S
H1971 C1983 0.929 . S
H1972 C1986 0.930 . S
H1973 C1988 0.960 . S
H1974 C1988 0.960 . S
H1975 C1988 0.960 . S
C1976 H1968 0.947 . S
C1976 C1977 1.377 . S
C1976 C1978 1.384 1_554 S
C1977 C1976 1.377 . S
C1977 C1983 1.390 . S
C1978 H1969 0.930 . S
C1978 C1976 1.384 1_556 S
C1978 C1979 1.388 . S
C1979 C1978 1.388 . S
C1979 C1980 1.352 1_556 S
C1979 C1984 1.523 . S
C1980 H1970 0.930 . S
C1980 C1979 1.352 1_554 S
C1980 C1983 1.386 . S
H1981 C1997 0.930 . S
H1982 C1998 0.931 . S
C1983 H1971 0.929 . S
C1983 C1977 1.390 . S
C1983 C1980 1.386 . S
C1984 C1979 1.523 . S
C1984 C1986 1.395 . S
C1984 C1987 1.403 . S
H1985 C1991 0.930 . S
C1986 H1972 0.930 . S
C1986 C1984 1.395 . S
C1986 C1989 1.403 . S
C1987 C1984 1.403 . S
C1987 C1988 1.524 1_556 S
C1987 C1991 1.400 . S
C1988 H1973 0.960 . S
C1988 H1974 0.960 . S
C1988 H1975 0.960 . S
C1988 C1987 1.524 1_554 S
C1989 C1986 1.403 . S
C1989 C1990 1.392 . S
C1989 C1993 1.495 . S
C1990 C1989 1.392 . S
C1990 C1991 1.385 . S
C1990 C1992 1.478 . S
C1991 H1985 0.930 . S
C1991 C1987 1.400 . S
C1991 C1990 1.385 . S
C1992 C1990 1.478 . S
C1992 C1994 1.381 . S
C1992 C1998 1.383 . S
C1993 C1989 1.495 . S
C1993 H1999 0.959 . S
C1993 H2000 0.961 . S
C1993 H2001 0.960 . S
C1994 C1992 1.381 . S
C1994 C1995 1.394 . S
C1994 H2002 0.930 . S
C1995 C1994 1.394 . S
C1995 C1996 1.383 . S
C1995 H2003 0.929 . S
C1996 C1995 1.383 . S
C1996 C1997 1.377 . S
C1997 H1981 0.930 . S
C1997 C1996 1.377 . S
C1997 C1998 1.379 . S
C1998 H1982 0.931 . S
C1998 C1992 1.383 . S
C1998 C1997 1.379 . S
H1999 C1993 0.959 . S
H2000 C1993 0.961 . S
H2001 C1993 0.960 . S
H2002 C1994 0.930 . S
H2003 C1995 0.929 . S
H2004 C2012 0.929 . S
H2005 C2014 0.930 . S
H2006 C2016 0.930 . S
H2007 C2019 0.929 . S
H2008 C2022 0.930 . S
H2009 C2024 0.960 . S
H2010 C2024 0.960 . S
H2011 C2024 0.960 . S
C2012 H2004 0.929 . S
C2012 C2013 1.377 . S
C2012 C2014 1.384 . S
C2013 C2012 1.377 . S
C2013 C2019 1.390 . S
C2014 H2005 0.930 . S
C2014 C2012 1.384 . S
C2014 C2015 1.372 . S
C2015 C2014 1.372 . S
C2015 C2016 1.400 . S
C2015 C2020 1.490 . S
C2016 H2006 0.930 . S
C2016 C2015 1.400 . S
C2016 C2019 1.386 . S
H2017 C2033 0.931 . S
H2018 C2034 0.931 . S
C2019 H2007 0.929 . S
C2019 C2013 1.390 . S
C2019 C2016 1.386 . S
C2020 C2015 1.490 . S
C2020 C2022 1.395 . S
C2020 C2023 1.403 . S
H2021 C2027 0.930 . S
C2022 H2008 0.930 . S
C2022 C2020 1.395 . S
C2022 C2025 1.403 . S
C2023 C2020 1.403 . S
C2023 C2024 1.524 . S
C2023 C2027 1.400 . S
C2024 H2009 0.960 . S
C2024 H2010 0.960 . S
C2024 H2011 0.960 . S
C2024 C2023 1.524 . S
C2025 C2022 1.403 . S
C2025 C2026 1.392 . S
C2025 C2029 1.495 . S
C2026 C2025 1.392 . S
C2026 C2027 1.385 . S
C2026 C2028 1.478 . S
C2027 H2021 0.930 . S
C2027 C2023 1.400 . S
C2027 C2026 1.385 . S
C2028 C2026 1.478 . S
C2028 C2030 1.381 1_655 S
C2028 C2034 1.383 . S
C2029 C2025 1.495 . S
C2029 H2035 0.959 . S
C2029 H2036 0.961 . S
C2029 H2037 0.960 . S
C2030 C2028 1.381 1_455 S
C2030 C2031 1.394 . S
C2030 H2038 0.930 . S
C2031 C2030 1.394 . S
C2031 C2032 1.383 . S
C2031 H2039 0.929 . S
C2032 C2031 1.383 . S
C2032 C2033 1.377 . S
C2033 H2017 0.931 . S
C2033 C2032 1.377 . S
C2033 C2034 1.379 1_455 S
C2034 H2018 0.931 . S
C2034 C2028 1.383 . S
C2034 C2033 1.379 1_655 S
H2035 C2029 0.959 . S
H2036 C2029 0.961 . S
H2037 C2029 0.960 . S
H2038 C2030 0.930 . S
H2039 C2031 0.929 . S
C321 C117 0.978 . S
C340 C0 0.947 . S
C357 C13 0.992 . S
C376 C130 0.940 . S
C393 C26 0.985 . S
C412 C143 1.029 . S
C429 C39 0.982 . S
C448 C104 0.934 . S
C465 C52 0.986 . S
C484 C195 1.027 . S
C501 C156 0.973 . S
C520 C65 1.009 . S
C537 C78 0.986 . S
C556 C169 1.027 . S
C573 C182 0.994 . S
C592 C91 0.952 . S
C609 C208 0.994 . S
C628 C234 0.974 . S
C645 C286 0.977 . S
C664 C221 1.030 . S
C681 C247 0.994 . S
C700 C299 0.982 . S
C717 C273 0.973 . S
C736 C260 0.977 . S
C753 C268 1.513 . S
C772 C8 1.502 . S
C789 C21 1.514 . S
C808 C229 1.505 . S
C825 C34 1.517 . S
C844 C242 1.485 . S
C861 C47 1.514 . S
C880 C255 1.506 . S
C897 C60 1.517 . S
C916 C307 1.491 . S
C933 C281 1.510 . S
C952 C73 1.525 . S
C969 C294 1.508 . S
C988 C86 1.527 . S
C1005 C216 1.515 . S
C1024 C99 1.501 . S
C1041 C203 1.508 . S
C1060 C112 1.528 . S
C1077 C125 1.517 . S
C1096 C164 1.487 . S
C1113 C177 1.515 . S
C1132 C138 1.497 . S
C1149 C190 1.515 . S
C1168 C151 1.496 . S
C1185 C5 0.734 . S
C1204 C218 0.687 . S
C1221 C309 0.700 . S
C1240 C18 0.669 . S
C1257 C283 0.703 . S
C1276 C31 0.644 . S
C1293 C44 0.727 . S
C1312 C296 0.678 . S
C1329 C57 0.729 . S
C1348 C231 0.700 . S
C1365 C244 0.705 . S
C1384 C70 0.642 . S
C1401 C257 0.703 . S
C1420 C83 0.642 . S
C1437 C270 0.699 . S
C1456 C96 0.681 . S
C1473 C10 0.692 . S
C1492 C109 0.750 . S
C1509 C23 0.695 . S
C1528 C122 0.770 . S
C1545 C36 0.689 . S
C1564 C135 0.813 . S
C1581 C49 0.706 . S
C1600 C148 0.636 . S
C1617 C62 0.696 . S
C1636 C161 0.760 . S
C1653 C75 0.705 . S
C1672 C174 0.632 . S
C1689 C187 0.734 . S
C1708 C88 0.685 . S
C1725 C101 0.691 . S
C1744 C200 0.758 . S
C1761 C114 0.700 . S
C1780 C213 0.716 . S
C1797 C226 0.729 . S
C1816 C166 0.699 . S
C1833 C179 0.701 . S
C1852 C239 0.656 . S
C1869 C252 0.735 . S
C1888 C192 0.664 . S
C1905 C265 0.705 . S
C1924 C205 0.737 . S
C1941 C278 0.728 . S
C1960 C140 0.701 . S
C1977 C153 0.691 . S
C1996 C291 0.800 . S
C2013 C304 0.728 . S
C2032 C127 0.702 . S
