# Generated by pormake.
# Topology bcu-j, (5)-cn, num edge types: 1
# Building blocks:
#     Node 0, Type 0, BuildingBlock: XOMCOT_clean_sbu_0, # of connection points: 5
#     Node 1, Type 0, BuildingBlock: XOMCOT_clean_sbu_0, # of connection points: 5
#     Node 2, Type 0, BuildingBlock: XOMCOT_clean_sbu_0, # of connection points: 5
#     Node 3, Type 0, BuildingBlock: XOMCOT_clean_sbu_0, # of connection points: 5
#     Node 4, Type 0, BuildingBlock: XOMCOT_clean_sbu_0, # of connection points: 5
#     Node 5, Type 0, BuildingBlock: XOMCOT_clean_sbu_0, # of connection points: 5
#     Node 6, Type 0, BuildingBlock: XOMCOT_clean_sbu_0, # of connection points: 5
#     Node 7, Type 0, BuildingBlock: XOMCOT_clean_sbu_0, # of connection points: 5
#     Node 8, Type 0, BuildingBlock: XOMCOT_clean_sbu_0, # of connection points: 5
#     Node 9, Type 0, BuildingBlock: XOMCOT_clean_sbu_0, # of connection points: 5
#     Node 10, Type 0, BuildingBlock: XOMCOT_clean_sbu_0, # of connection points: 5
#     Node 11, Type 0, BuildingBlock: XOMCOT_clean_sbu_0, # of connection points: 5
#     Node 12, Type 0, BuildingBlock: XOMCOT_clean_sbu_0, # of connection points: 5
#     Node 13, Type 0, BuildingBlock: XOMCOT_clean_sbu_0, # of connection points: 5
#     Node 14, Type 0, BuildingBlock: XOMCOT_clean_sbu_0, # of connection points: 5
#     Node 15, Type 0, BuildingBlock: XOMCOT_clean_sbu_0, # of connection points: 5
#     Edge 16, Type (0, 0), BuildingBlock: KIFKEQ_clean_linker_1, # of connection points: 2
#     Edge 17, Type (0, 0), BuildingBlock: KIFKEQ_clean_linker_1, # of connection points: 2
#     Edge 18, Type (0, 0), BuildingBlock: KIFKEQ_clean_linker_1, # of connection points: 2
#     Edge 19, Type (0, 0), BuildingBlock: KIFKEQ_clean_linker_1, # of connection points: 2
#     Edge 20, Type (0, 0), BuildingBlock: KIFKEQ_clean_linker_1, # of connection points: 2
#     Edge 21, Type (0, 0), BuildingBlock: KIFKEQ_clean_linker_1, # of connection points: 2
#     Edge 22, Type (0, 0), BuildingBlock: KIFKEQ_clean_linker_1, # of connection points: 2
#     Edge 23, Type (0, 0), BuildingBlock: KIFKEQ_clean_linker_1, # of connection points: 2
#     Edge 24, Type (0, 0), BuildingBlock: KIFKEQ_clean_linker_1, # of connection points: 2
#     Edge 25, Type (0, 0), BuildingBlock: KIFKEQ_clean_linker_1, # of connection points: 2
#     Edge 26, Type (0, 0), BuildingBlock: KIFKEQ_clean_linker_1, # of connection points: 2
#     Edge 27, Type (0, 0), BuildingBlock: KIFKEQ_clean_linker_1, # of connection points: 2
#     Edge 28, Type (0, 0), BuildingBlock: KIFKEQ_clean_linker_1, # of connection points: 2
#     Edge 29, Type (0, 0), BuildingBlock: KIFKEQ_clean_linker_1, # of connection points: 2
#     Edge 30, Type (0, 0), BuildingBlock: KIFKEQ_clean_linker_1, # of connection points: 2
#     Edge 31, Type (0, 0), BuildingBlock: KIFKEQ_clean_linker_1, # of connection points: 2
#     Edge 32, Type (0, 0), BuildingBlock: KIFKEQ_clean_linker_1, # of connection points: 2
#     Edge 33, Type (0, 0), BuildingBlock: KIFKEQ_clean_linker_1, # of connection points: 2
#     Edge 34, Type (0, 0), BuildingBlock: KIFKEQ_clean_linker_1, # of connection points: 2
#     Edge 35, Type (0, 0), BuildingBlock: KIFKEQ_clean_linker_1, # of connection points: 2
#     Edge 36, Type (0, 0), BuildingBlock: KIFKEQ_clean_linker_1, # of connection points: 2
#     Edge 37, Type (0, 0), BuildingBlock: KIFKEQ_clean_linker_1, # of connection points: 2
#     Edge 38, Type (0, 0), BuildingBlock: KIFKEQ_clean_linker_1, # of connection points: 2
#     Edge 39, Type (0, 0), BuildingBlock: KIFKEQ_clean_linker_1, # of connection points: 2
#     Edge 40, Type (0, 0), BuildingBlock: KIFKEQ_clean_linker_1, # of connection points: 2
#     Edge 41, Type (0, 0), BuildingBlock: KIFKEQ_clean_linker_1, # of connection points: 2
#     Edge 42, Type (0, 0), BuildingBlock: KIFKEQ_clean_linker_1, # of connection points: 2
#     Edge 43, Type (0, 0), BuildingBlock: KIFKEQ_clean_linker_1, # of connection points: 2
#     Edge 44, Type (0, 0), BuildingBlock: KIFKEQ_clean_linker_1, # of connection points: 2
#     Edge 45, Type (0, 0), BuildingBlock: KIFKEQ_clean_linker_1, # of connection points: 2
#     Edge 46, Type (0, 0), BuildingBlock: KIFKEQ_clean_linker_1, # of connection points: 2
#     Edge 47, Type (0, 0), BuildingBlock: KIFKEQ_clean_linker_1, # of connection points: 2
#     Edge 48, Type (0, 0), BuildingBlock: KIFKEQ_clean_linker_1, # of connection points: 2
#     Edge 49, Type (0, 0), BuildingBlock: KIFKEQ_clean_linker_1, # of connection points: 2
#     Edge 50, Type (0, 0), BuildingBlock: KIFKEQ_clean_linker_1, # of connection points: 2
#     Edge 51, Type (0, 0), BuildingBlock: KIFKEQ_clean_linker_1, # of connection points: 2
#     Edge 52, Type (0, 0), BuildingBlock: KIFKEQ_clean_linker_1, # of connection points: 2
#     Edge 53, Type (0, 0), BuildingBlock: KIFKEQ_clean_linker_1, # of connection points: 2
#     Edge 54, Type (0, 0), BuildingBlock: KIFKEQ_clean_linker_1, # of connection points: 2
#     Edge 55, Type (0, 0), BuildingBlock: KIFKEQ_clean_linker_1, # of connection points: 2
# Relax obj value: 0.623
# Max RMSD: 0.318
# Mean RMSD: 0.317
data_MOF--net-bcu-j--node1-XOMCOT_clean_sbu_0--edge1-KIFKEQ_clean_linker_1
_symmetry_space_group_name_H-M    P1
_symmetry_Int_Tables_number       1
_symmetry_cell_setting            triclinic
loop_
_symmetry_equiv_pos_as_xyz
'x, y, z'
_cell_length_a     42.070071
_cell_length_b     41.960612
_cell_length_c     50.299126
_cell_angle_alpha  89.962571
_cell_angle_beta   90.013685
_cell_angle_gamma 90.20331
loop_
_atom_site_label
_atom_site_type_symbol
_atom_site_fract_x
_atom_site_fract_y
_atom_site_fract_z
_atom_type_partial_charge
Co0 Co 0.99799 0.13698 0.61104 0.0
C1 C 0.05189 0.10018 0.58874 0.0
C2 C 0.05676 0.14978 0.58022 0.0
C3 C 0.08443 0.13479 0.57304 0.0
N4 N 0.03567 0.12802 0.58946 0.0
N5 N 0.08142 0.10367 0.57875 0.0
H6 H 0.04406 0.07843 0.59822 0.0
H7 H 0.05441 0.17526 0.58181 0.0
C8 C 0.99671 0.19252 0.57304 0.0
O9 O 0.99873 0.1728 0.55282 0.0
N10 N 0.96204 0.14658 0.63331 0.0
C11 C 0.93548 0.12936 0.63792 0.0
C12 C 0.91926 0.14314 0.65888 0.0
C13 C 0.96177 0.17018 0.65137 0.0
N14 N 0.93615 0.16855 0.66738 0.0
C15 C 0.9748 0.08827 0.57793 0.0
C16 C 0.92351 0.11952 0.55574 0.0
C17 C 0.92892 0.0874 0.54958 0.0
C18 C 0.95487 0.07196 0.56086 0.0
C19 C 0.94425 0.13518 0.57351 0.0
N20 N 0.96996 0.11954 0.58389 0.0
H21 H 0.99364 0.07505 0.58704 0.0
H22 H 0.93933 0.15948 0.57927 0.0
H23 H 0.92929 0.10743 0.62787 0.0
H24 H 0.98098 0.18719 0.6537 0.0
O25 O 0.00427 0.09826 0.63055 0.0
O26 O 0.02641 0.1446 0.64091 0.0
O27 O 0.99562 0.18179 0.59677 0.0
C28 C 0.02337 0.11421 0.64582 0.0
H29 H 0.10646 0.14649 0.56754 0.0
H30 H 0.89804 0.13389 0.66835 0.0
H31 H 0.90344 0.13207 0.54732 0.0
H32 H 0.9597 0.04712 0.55654 0.0
Co33 Co 0.3564 0.03082 0.64008 0.0
C34 C 0.38546 0.09042 0.62104 0.0
C35 C 0.33485 0.09502 0.62515 0.0
C36 C 0.34717 0.12379 0.61682 0.0
N37 N 0.35891 0.07422 0.62767 0.0
N38 N 0.379 0.12085 0.6143 0.0
H39 H 0.40898 0.08008 0.62134 0.0
H40 H 0.31023 0.0899 0.62967 0.0
C41 C 0.28837 0.01812 0.6353 0.0
O42 O 0.28963 0.00939 0.66035 0.0
N43 N 0.35373 0.98705 0.65258 0.0
C44 C 0.34948 0.96061 0.63776 0.0
C45 C 0.34286 0.93529 0.65443 0.0
C46 C 0.3498 0.97734 0.67794 0.0
N47 N 0.34288 0.94597 0.67974 0.0
C48 C 0.40676 0.00475 0.61007 0.0
C49 C 0.38727 0.03189 0.56266 0.0
C50 C 0.41908 0.02288 0.56576 0.0
C51 C 0.42829 0.0072 0.58911 0.0
C52 C 0.36642 0.02864 0.584 0.0
N53 N 0.37707 0.01737 0.60783 0.0
H54 H 0.41493 0.99578 0.62903 0.0
H55 H 0.343 0.03892 0.5823 0.0
H56 H 0.34914 0.96007 0.61627 0.0
H57 H 0.34893 0.99342 0.69465 0.0
O58 O 0.39366 0.03796 0.66134 0.0
O59 O 0.34419 0.04717 0.67459 0.0
O60 O 0.31361 0.02661 0.62325 0.0
C61 C 0.3746 0.04866 0.67955 0.0
H62 H 0.33381 0.14551 0.61389 0.0
H63 H 0.33674 0.91137 0.6482 0.0
H64 H 0.37929 0.04367 0.5447 0.0
H65 H 0.45267 0.99981 0.59213 0.0
Co66 Co 0.49828 0.37694 0.64766 0.0
C67 C 0.44633 0.40872 0.6176 0.0
C68 C 0.43632 0.35947 0.62563 0.0
C69 C 0.41096 0.37212 0.61217 0.0
N70 N 0.45895 0.38211 0.62827 0.0
N71 N 0.41738 0.403 0.6072 0.0
H72 H 0.4571 0.43208 0.61844 0.0
H73 H 0.43784 0.33557 0.6336 0.0
C74 C 0.49609 0.32364 0.60778 0.0
O75 O 0.48722 0.34405 0.5894 0.0
N76 N 0.53687 0.37115 0.66742 0.0
C77 C 0.55717 0.39365 0.67628 0.0
C78 C 0.57884 0.37934 0.69306 0.0
C79 C 0.54641 0.34366 0.67856 0.0
N80 N 0.57201 0.34793 0.69428 0.0
C81 C 0.51978 0.43227 0.61998 0.0
C82 C 0.5483 0.40174 0.57776 0.0
C83 C 0.5416 0.43434 0.57589 0.0
C84 C 0.52923 0.44998 0.598 0.0
C85 C 0.53957 0.38508 0.60083 0.0
N86 N 0.52206 0.39978 0.62012 0.0
H87 H 0.50835 0.44486 0.63595 0.0
H88 H 0.54549 0.36018 0.60232 0.0
H89 H 0.55533 0.41883 0.67197 0.0
H90 H 0.53345 0.32143 0.67679 0.0
O91 O 0.48709 0.41286 0.66936 0.0
O92 O 0.47342 0.3631 0.67839 0.0
O93 O 0.50422 0.33355 0.63088 0.0
C94 C 0.47161 0.3932 0.68448 0.0
H95 H 0.38869 0.36019 0.60785 0.0
H96 H 0.59727 0.39125 0.70436 0.0
H97 H 0.55893 0.38913 0.56124 0.0
H98 H 0.52427 0.4753 0.59742 0.0
Co99 Co 0.14872 0.47606 0.62841 0.0
C100 C 0.11351 0.4208 0.60675 0.0
C101 C 0.16393 0.41291 0.60587 0.0
C102 C 0.14895 0.38681 0.59489 0.0
N103 N 0.14171 0.43433 0.61303 0.0
N104 N 0.1174 0.39193 0.59552 0.0
H105 H 0.09066 0.43177 0.61032 0.0
H106 H 0.18919 0.41567 0.60885 0.0
C107 C 0.21095 0.49839 0.60592 0.0
O108 O 0.19996 0.52749 0.60375 0.0
N109 N 0.15599 0.5177 0.64445 0.0
C110 C 0.14751 0.54722 0.63631 0.0
C111 C 0.16006 0.56943 0.65371 0.0
C112 C 0.17321 0.52254 0.66674 0.0
N113 N 0.17587 0.55364 0.67284 0.0
C114 C 0.10248 0.50588 0.59583 0.0
C115 C 0.12852 0.48402 0.54882 0.0
C116 C 0.09636 0.49246 0.54938 0.0
C117 C 0.08399 0.50564 0.5728 0.0
C118 C 0.14622 0.48492 0.57215 0.0
N119 N 0.13264 0.49405 0.59561 0.0
H120 H 0.09149 0.51271 0.61438 0.0
H121 H 0.16927 0.47385 0.5717 0.0
H122 H 0.13436 0.55278 0.61851 0.0
H123 H 0.1846 0.50377 0.67796 0.0
O124 O 0.10927 0.47211 0.64769 0.0
O125 O 0.15631 0.4559 0.66223 0.0
O126 O 0.19361 0.47584 0.61498 0.0
C127 C 0.12586 0.45832 0.66621 0.0
H128 H 0.16021 0.36523 0.58787 0.0
H129 H 0.15789 0.59508 0.65238 0.0
H130 H 0.13906 0.47329 0.53136 0.0
H131 H 0.05942 0.51314 0.57396 0.0
Co132 Co 0.01001 0.34472 0.86942 0.0
C133 C 0.07096 0.37951 0.87788 0.0
C134 C 0.06877 0.33657 0.90092 0.0
C135 C 0.09836 0.35 0.90415 0.0
N136 N 0.05153 0.35493 0.88428 0.0
N137 N 0.09979 0.37685 0.88948 0.0
H138 H 0.06482 0.39824 0.86406 0.0
H139 H 0.06097 0.31443 0.90975 0.0
C140 C 0.98881 0.28468 0.89639 0.0
O141 O 0.95967 0.2957 0.89771 0.0
N142 N 0.96935 0.33343 0.85377 0.0
C143 C 0.94228 0.35016 0.85044 0.0
C144 C 0.92237 0.33326 0.83363 0.0
C145 C 0.96545 0.30695 0.83901 0.0
N146 N 0.9371 0.30604 0.8266 0.0
C147 C 0.97936 0.39556 0.89608 0.0
C148 C 0.9941 0.37554 0.94693 0.0
C149 C 0.98553 0.40728 0.94266 0.0
C150 C 0.97672 0.41689 0.91714 0.0
C151 C 0.99683 0.35496 0.9252 0.0
N152 N 0.99064 0.36541 0.89994 0.0
H153 H 0.9754 0.40463 0.87632 0.0
H154 H 0.00719 0.3319 0.92867 0.0
H155 H 0.93754 0.37349 0.8584 0.0
H156 H 0.98405 0.28952 0.83614 0.0
O157 O 0.01246 0.381 0.84608 0.0
O158 O 0.03041 0.33281 0.83639 0.0
O159 O 0.01134 0.30179 0.88708 0.0
C160 C 0.0263 0.3623 0.82914 0.0
H161 H 0.11748 0.34044 0.91609 0.0
H162 H 0.89939 0.34094 0.82642 0.0
H163 H 0.00158 0.36756 0.96644 0.0
H164 H 0.97023 0.44141 0.91318 0.0
Co165 Co 0.14532 0.00815 0.83967 0.0
C166 C 0.1013 0.06185 0.853 0.0
C167 C 0.13815 0.0759 0.82589 0.0
C168 C 0.11852 0.10152 0.82997 0.0
N169 N 0.12734 0.05084 0.8402 0.0
N170 N 0.09557 0.09258 0.84705 0.0
H171 H 0.08679 0.04818 0.86652 0.0
H172 H 0.15908 0.07577 0.81343 0.0
C173 C 0.18679 0.04746 0.87575 0.0
O174 O 0.16204 0.06468 0.88235 0.0
N175 N 0.16309 0.96599 0.83825 0.0
C176 C 0.14703 0.93818 0.83697 0.0
C177 C 0.16739 0.9149 0.82791 0.0
C178 C 0.19289 0.95925 0.83038 0.0
N179 N 0.19616 0.92827 0.82386 0.0
C180 C 0.08984 0.98557 0.86623 0.0
C181 C 0.1081 0.00224 0.91706 0.0
C182 C 0.076 0.99595 0.9118 0.0
C183 C 0.06732 0.98546 0.88648 0.0
C184 C 0.13013 0.00111 0.89629 0.0
N185 N 0.12022 0.99599 0.87076 0.0
H186 H 0.08181 0.97977 0.8465 0.0
H187 H 0.15466 0.00565 0.90089 0.0
H188 H 0.12169 0.93556 0.83971 0.0
H189 H 0.21064 0.97736 0.82629 0.0
O190 O 0.11516 0.99712 0.81232 0.0
O191 O 0.16294 0.01725 0.80485 0.0
O192 O 0.18345 0.02278 0.86106 0.0
C193 C 0.13567 0.00807 0.79533 0.0
H194 H 0.12133 0.12516 0.82162 0.0
H195 H 0.16084 0.89084 0.82233 0.0
H196 H 0.11586 0.009 0.93681 0.0
H197 H 0.04282 0.97977 0.88178 0.0
Co198 Co 0.48659 0.1759 0.8789 0.0
C199 C 0.42608 0.14484 0.89419 0.0
C200 C 0.42438 0.19544 0.90031 0.0
C201 C 0.39538 0.18263 0.90715 0.0
N202 N 0.44368 0.17171 0.89235 0.0
N203 N 0.39649 0.15091 0.90313 0.0
H204 H 0.43443 0.12143 0.88856 0.0
H205 H 0.43037 0.22047 0.90028 0.0
C206 C 0.496 0.24424 0.88085 0.0
O207 O 0.50254 0.24102 0.85549 0.0
N208 N 0.52979 0.18048 0.86548 0.0
C209 C 0.55593 0.18706 0.88003 0.0
C210 C 0.58017 0.19612 0.86319 0.0
C211 C 0.53871 0.18535 0.84002 0.0
N212 N 0.56914 0.19544 0.838 0.0
C213 C 0.51803 0.12819 0.9077 0.0
C214 C 0.49266 0.14379 0.95669 0.0
C215 C 0.50561 0.11328 0.95291 0.0
C216 C 0.51994 0.10638 0.92839 0.0
C217 C 0.49119 0.16503 0.93528 0.0
N218 N 0.50222 0.15617 0.91089 0.0
H219 H 0.52665 0.12133 0.8883 0.0
H220 H 0.47859 0.18725 0.93766 0.0
H221 H 0.5567 0.18779 0.90151 0.0
H222 H 0.52232 0.1852 0.82351 0.0
O223 O 0.481 0.13773 0.85843 0.0
O224 O 0.46864 0.18622 0.84435 0.0
O225 O 0.48957 0.21964 0.89478 0.0
C226 C 0.46908 0.1556 0.83992 0.0
H227 H 0.37451 0.19581 0.91318 0.0
H228 H 0.60331 0.20476 0.86928 0.0
H229 H 0.48193 0.15042 0.97544 0.0
H230 H 0.52998 0.08321 0.9242 0.0
Co231 Co 0.35903 0.53334 0.878 0.0
C232 C 0.39965 0.47948 0.89452 0.0
C233 C 0.35963 0.48572 0.92042 0.0
C234 C 0.37627 0.45925 0.92862 0.0
N235 N 0.37426 0.49819 0.89901 0.0
N236 N 0.40126 0.45527 0.91215 0.0
H237 H 0.41618 0.48295 0.87831 0.0
H238 H 0.33779 0.49466 0.9289 0.0
C239 C 0.2948 0.51402 0.8807 0.0
O240 O 0.29609 0.53706 0.89835 0.0
N241 N 0.34267 0.56874 0.85764 0.0
C242 C 0.33134 0.59586 0.86829 0.0
C243 C 0.31407 0.61188 0.84921 0.0
C244 C 0.33249 0.56879 0.83218 0.0
N245 N 0.31494 0.59475 0.82657 0.0
C246 C 0.41456 0.57264 0.87872 0.0
C247 C 0.42177 0.56813 0.93326 0.0
C248 C 0.4483 0.57551 0.91746 0.0
C249 C 0.44392 0.57997 0.89009 0.0
C250 C 0.39287 0.56083 0.92102 0.0
N251 N 0.39065 0.56051 0.89402 0.0
H252 H 0.41211 0.57369 0.85735 0.0
H253 H 0.3734 0.5518 0.9329 0.0
H254 H 0.33332 0.60222 0.88907 0.0
H255 H 0.335 0.549 0.81864 0.0
O256 O 0.38787 0.52166 0.84842 0.0
O257 O 0.34226 0.50079 0.85087 0.0
O258 O 0.32017 0.50736 0.86747 0.0
C259 C 0.36884 0.50204 0.83817 0.0
H260 H 0.36949 0.44318 0.94449 0.0
H261 H 0.30027 0.63331 0.8522 0.0
H262 H 0.42412 0.56463 0.95451 0.0
H263 H 0.46369 0.58643 0.87735 0.0
Co264 Co 0.95337 0.82953 0.37628 0.0
C265 C 0.89335 0.86595 0.38091 0.0
C266 C 0.88606 0.81866 0.36558 0.0
C267 C 0.85726 0.83404 0.36611 0.0
N268 N 0.90857 0.83866 0.37485 0.0
N269 N 0.86195 0.8636 0.37586 0.0
H270 H 0.90497 0.88722 0.3883 0.0
H271 H 0.89044 0.79471 0.35857 0.0
C272 C 0.95749 0.7708 0.40989 0.0
O273 O 0.98002 0.78378 0.42441 0.0
N274 N 0.99832 0.81882 0.37671 0.0
C275 C 0.02448 0.83589 0.38332 0.0
C276 C 0.05103 0.82046 0.37376 0.0
C277 C 0.00961 0.79308 0.36381 0.0
N278 N 0.04149 0.7936 0.36146 0.0
C279 C 0.96974 0.88056 0.41018 0.0
C280 C 0.92775 0.86573 0.45056 0.0
C281 C 0.94167 0.89617 0.44984 0.0
C282 C 0.96375 0.90288 0.42984 0.0
C283 C 0.93514 0.84347 0.43065 0.0
N284 N 0.9554 0.85135 0.41036 0.0
H285 H 0.98338 0.88842 0.39329 0.0
H286 H 0.92202 0.82132 0.4301 0.0
H287 H 0.02499 0.85875 0.39292 0.0
H288 H 0.99444 0.77577 0.35407 0.0
O289 O 0.96159 0.86564 0.35351 0.0
O290 O 0.95137 0.81667 0.33942 0.0
O291 O 0.94331 0.78684 0.39198 0.0
C292 C 0.95713 0.84635 0.33367 0.0
H293 H 0.83458 0.82427 0.35995 0.0
H294 H 0.07523 0.82928 0.37438 0.0
H295 H 0.91022 0.85976 0.46553 0.0
H296 H 0.97428 0.92637 0.42788 0.0
Co297 Co 0.61393 0.01025 0.35742 0.0
C298 C 0.59619 0.94507 0.37532 0.0
C299 C 0.57634 0.98023 0.40127 0.0
C300 C 0.56596 0.95073 0.4094 0.0
N301 N 0.59521 0.97689 0.37968 0.0
N302 N 0.57833 0.92869 0.39302 0.0
H303 H 0.60882 0.93408 0.35903 0.0
H304 H 0.57024 0.00226 0.4109 0.0
C305 C 0.66629 0.98969 0.39498 0.0
O306 O 0.64573 0.98022 0.41297 0.0
N307 N 0.63208 0.04292 0.33529 0.0
C308 C 0.6184 0.0698 0.3262 0.0
C309 C 0.63954 0.08495 0.30936 0.0
C310 C 0.66098 0.04196 0.32401 0.0
N311 N 0.66631 0.06739 0.30822 0.0
C312 C 0.57047 0.05345 0.3812 0.0
C313 C 0.60762 0.06916 0.42454 0.0
C314 C 0.57479 0.07486 0.42556 0.0
C315 C 0.55676 0.06927 0.40256 0.0
C316 C 0.62044 0.05339 0.40259 0.0
N317 N 0.60107 0.0429 0.3826 0.0
H318 H 0.55532 0.04678 0.36483 0.0
H319 H 0.64546 0.04821 0.40269 0.0
H320 H 0.59451 0.0774 0.33084 0.0
H321 H 0.67715 0.02215 0.32624 0.0
O322 O 0.57645 0.00876 0.33495 0.0
O323 O 0.61992 0.98005 0.3291 0.0
O324 O 0.65703 0.00402 0.37397 0.0
C325 C 0.59151 0.98738 0.32117 0.0
H326 H 0.55042 0.94589 0.42608 0.0
H327 H 0.63535 0.1068 0.29849 0.0
H328 H 0.62279 0.07459 0.44134 0.0
H329 H 0.53141 0.07354 0.40204 0.0
Co330 Co 0.51277 0.6445 0.342 0.0
C331 C 0.57837 0.61786 0.34994 0.0
C332 C 0.57821 0.66549 0.33463 0.0
C333 C 0.60918 0.65554 0.3365 0.0
N334 N 0.55882 0.64203 0.34333 0.0
N335 N 0.60923 0.62557 0.34613 0.0
H336 H 0.57066 0.59506 0.35727 0.0
H337 H 0.57026 0.68827 0.32712 0.0
C338 C 0.53437 0.69435 0.38016 0.0
O339 O 0.55373 0.67327 0.39062 0.0
N340 N 0.46736 0.64828 0.3395 0.0
C341 C 0.44624 0.62425 0.33705 0.0
C342 C 0.4196 0.63572 0.32424 0.0
C343 C 0.45309 0.67396 0.32894 0.0
N344 N 0.42414 0.66696 0.31904 0.0
C345 C 0.51345 0.58664 0.37135 0.0
C346 C 0.49723 0.61052 0.42053 0.0
C347 C 0.50609 0.57831 0.41843 0.0
C348 C 0.51355 0.56649 0.3932 0.0
C349 C 0.49778 0.63015 0.39788 0.0
N350 N 0.50795 0.61851 0.37398 0.0
H351 H 0.5196 0.5765 0.35238 0.0
H352 H 0.4902 0.65458 0.39974 0.0
H353 H 0.45146 0.59947 0.34095 0.0
H354 H 0.46575 0.69588 0.3246 0.0
O355 O 0.51183 0.61067 0.31624 0.0
O356 O 0.51707 0.66178 0.30627 0.0
O357 O 0.5146 0.68599 0.36214 0.0
C358 C 0.51586 0.63233 0.29819 0.0
H359 H 0.62994 0.66907 0.33056 0.0
H360 H 0.4002 0.62144 0.31653 0.0
H361 H 0.48998 0.6205 0.43941 0.0
H362 H 0.52067 0.54199 0.39021 0.0
Co363 Co 0.86102 0.46017 0.3697 0.0
C364 C 0.89506 0.51924 0.38679 0.0
C365 C 0.87288 0.49472 0.41927 0.0
C366 C 0.88591 0.52265 0.42874 0.0
N367 N 0.87883 0.4924 0.39301 0.0
N368 N 0.89956 0.53809 0.40821 0.0
H369 H 0.90247 0.52574 0.36696 0.0
H370 H 0.85842 0.47822 0.43054 0.0
C371 C 0.79908 0.48663 0.3772 0.0
O372 O 0.7988 0.46465 0.39582 0.0
N373 N 0.84217 0.42776 0.34687 0.0
C374 C 0.84848 0.39621 0.34602 0.0
C375 C 0.82969 0.38218 0.32678 0.0
C376 C 0.81932 0.4322 0.32837 0.0
N377 N 0.8113 0.40491 0.31591 0.0
C378 C 0.91902 0.42424 0.3707 0.0
C379 C 0.91355 0.41193 0.42453 0.0
C380 C 0.94375 0.41195 0.41265 0.0
C381 C 0.94585 0.41513 0.38498 0.0
C382 C 0.88723 0.42073 0.40937 0.0
N383 N 0.89113 0.42996 0.38365 0.0
H384 H 0.92163 0.42933 0.3498 0.0
H385 H 0.86454 0.42416 0.41901 0.0
H386 H 0.86538 0.38388 0.35845 0.0
H387 H 0.80896 0.45501 0.32355 0.0
O388 O 0.88922 0.47329 0.33975 0.0
O389 O 0.8448 0.49555 0.34524 0.0
O390 O 0.82388 0.48959 0.36234 0.0
C391 C 0.87007 0.49369 0.33096 0.0
H392 H 0.88355 0.53199 0.4487 0.0
H393 H 0.82931 0.3572 0.32144 0.0
H394 H 0.91076 0.40914 0.44581 0.0
H395 H 0.96861 0.41408 0.37495 0.0
Co396 Co 0.00702 0.6373 0.15624 0.0
C397 C 0.95201 0.60064 0.13545 0.0
C398 C 0.9436 0.65116 0.13639 0.0
C399 C 0.9162 0.63622 0.12842 0.0
N400 N 0.96598 0.6289 0.14079 0.0
N401 N 0.92149 0.60457 0.12792 0.0
H402 H 0.96321 0.57776 0.13861 0.0
H403 H 0.94645 0.67638 0.14008 0.0
C404 C 0.02887 0.6972 0.1281 0.0
O405 O 0.05899 0.68948 0.13013 0.0
N406 N 0.04771 0.64717 0.17254 0.0
C407 C 0.07433 0.62956 0.17536 0.0
C408 C 0.09371 0.64384 0.19406 0.0
C409 C 0.05169 0.67203 0.18919 0.0
N410 N 0.0793 0.6705 0.20267 0.0
C411 C 0.03761 0.58561 0.13029 0.0
C412 C 0.02122 0.60417 0.07946 0.0
C413 C 0.03094 0.57263 0.08379 0.0
C414 C 0.04101 0.56415 0.10938 0.0
C415 C 0.01907 0.62528 0.10085 0.0
N416 N 0.02618 0.61561 0.12613 0.0
H417 H 0.0413 0.57676 0.15017 0.0
H418 H 0.00803 0.64802 0.09726 0.0
H419 H 0.07913 0.60707 0.16599 0.0
H420 H 0.03338 0.68949 0.19305 0.0
O421 O 0.00202 0.60123 0.17947 0.0
O422 O 0.98548 0.65012 0.18863 0.0
O423 O 0.00706 0.67937 0.13758 0.0
C424 C 0.98738 0.62031 0.19562 0.0
H425 H 0.89362 0.64759 0.12444 0.0
H426 H 0.11579 0.63444 0.20178 0.0
H427 H 0.01259 0.61187 0.06023 0.0
H428 H 0.0493 0.54031 0.11374 0.0
Co429 Co 0.86691 0.96669 0.12559 0.0
C430 C 0.90616 0.91658 0.10064 0.0
C431 C 0.85781 0.90152 0.10564 0.0
C432 C 0.87504 0.87624 0.09608 0.0
N433 N 0.87708 0.92716 0.10771 0.0
N434 N 0.90542 0.88577 0.09311 0.0
H435 H 0.92786 0.93011 0.10288 0.0
H436 H 0.83338 0.9006 0.11229 0.0
C437 C 0.81011 0.95553 0.08934 0.0
O438 O 0.82805 0.94481 0.06995 0.0
N439 N 0.85655 0.00545 0.14398 0.0
C440 C 0.87203 0.03365 0.14443 0.0
C441 C 0.85687 0.05347 0.1623 0.0
C442 C 0.83254 0.00835 0.16139 0.0
N443 N 0.83231 0.03723 0.17302 0.0
C444 C 0.91751 0.99363 0.09582 0.0
C445 C 0.88231 0.01987 0.05504 0.0
C446 C 0.91558 0.0198 0.05325 0.0
C447 C 0.9331 0.0075 0.07448 0.0
C448 C 0.86751 0.00619 0.07729 0.0
N449 N 0.88516 0.99132 0.09645 0.0
H450 H 0.93192 0.98381 0.11145 0.0
H451 H 0.84202 0.00741 0.07874 0.0
H452 H 0.89334 0.03916 0.13331 0.0
H453 H 0.81595 0.98932 0.16591 0.0
O454 O 0.90445 0.96201 0.14742 0.0
O455 O 0.85699 0.94232 0.15713 0.0
O456 O 0.82255 0.96663 0.11057 0.0
C457 C 0.88675 0.94556 0.16354 0.0
H458 H 0.86658 0.85199 0.09382 0.0
H459 H 0.86416 0.07731 0.16788 0.0
H460 H 0.86796 0.02991 0.03926 0.0
H461 H 0.95884 0.00688 0.07404 0.0
Co462 Co 0.49609 0.85451 0.11941 0.0
C463 C 0.56123 0.88153 0.11073 0.0
C464 C 0.52447 0.91235 0.09651 0.0
C465 C 0.5531 0.9274 0.09295 0.0
N466 N 0.52941 0.88314 0.10689 0.0
N467 N 0.57626 0.90802 0.10176 0.0
H468 H 0.57305 0.86154 0.12003 0.0
H469 H 0.5016 0.92282 0.09267 0.0
C470 C 0.53682 0.81283 0.08353 0.0
O471 O 0.54988 0.83758 0.07184 0.0
N472 N 0.46238 0.82677 0.13236 0.0
C473 C 0.43956 0.81244 0.11776 0.0
C474 C 0.4207 0.79429 0.13433 0.0
C475 C 0.45729 0.81671 0.15751 0.0
N476 N 0.43186 0.79704 0.15939 0.0
C477 C 0.44663 0.8898 0.09485 0.0
C478 C 0.47028 0.88301 0.04401 0.0
C479 C 0.45329 0.91052 0.05055 0.0
C480 C 0.43845 0.91214 0.07541 0.0
C481 C 0.47768 0.86127 0.06398 0.0
N482 N 0.46926 0.86736 0.08968 0.0
H483 H 0.43832 0.89345 0.11493 0.0
H484 H 0.49284 0.84177 0.05894 0.0
H485 H 0.43692 0.81457 0.09646 0.0
H486 H 0.47247 0.82276 0.17405 0.0
O487 O 0.48436 0.88736 0.14445 0.0
O488 O 0.51951 0.84915 0.15206 0.0
O489 O 0.51414 0.81621 0.10022 0.0
C490 C 0.50515 0.8747 0.16038 0.0
H491 H 0.55655 0.9509 0.08452 0.0
H492 H 0.40047 0.78009 0.12823 0.0
H493 H 0.48119 0.88049 0.02461 0.0
H494 H 0.42465 0.93282 0.081 0.0
Co495 Co 0.66059 0.51237 0.11545 0.0
C496 C 0.63765 0.57409 0.09479 0.0
C497 C 0.68844 0.57416 0.09893 0.0
C498 C 0.67911 0.60359 0.08972 0.0
N499 N 0.66241 0.55563 0.10197 0.0
N500 N 0.64722 0.60345 0.08734 0.0
H501 H 0.61305 0.56649 0.09542 0.0
H502 H 0.71251 0.56722 0.10362 0.0
C503 C 0.72517 0.48767 0.10009 0.0
O504 O 0.7126 0.46338 0.08739 0.0
N505 N 0.65922 0.46947 0.13013 0.0
C506 C 0.63365 0.45085 0.13534 0.0
C507 C 0.64219 0.42751 0.1533 0.0
C508 C 0.68248 0.45744 0.14559 0.0
N509 N 0.67301 0.43177 0.15959 0.0
C510 C 0.62328 0.4849 0.074 0.0
C511 C 0.65767 0.51335 0.03355 0.0
C512 C 0.62656 0.50315 0.02857 0.0
C513 C 0.61012 0.48686 0.04862 0.0
C514 C 0.67025 0.51028 0.0591 0.0
N515 N 0.65231 0.49797 0.07938 0.0
H516 H 0.60826 0.47656 0.08979 0.0
H517 H 0.69279 0.52163 0.06313 0.0
H518 H 0.60956 0.45571 0.12926 0.0
H519 H 0.70468 0.46958 0.14927 0.0
O520 O 0.61734 0.51946 0.12674 0.0
O521 O 0.66035 0.52912 0.15107 0.0
O522 O 0.70786 0.50871 0.1112 0.0
C523 C 0.62955 0.53035 0.14871 0.0
H524 H 0.69437 0.62401 0.0863 0.0
H525 H 0.62636 0.41041 0.16258 0.0
H526 H 0.67105 0.52614 0.01852 0.0
H527 H 0.58579 0.47907 0.04564 0.0
H528 H 0.06367 0.13956 0.68331 0.0
H529 H 0.02778 0.05036 0.65238 0.0
H530 H 0.09563 0.11017 0.71578 0.0
H531 H 0.06014 0.02126 0.68397 0.0
H532 H 0.0824 0.9882 0.76978 0.0
H533 H 0.0581 0.01298 0.73122 0.0
H534 H 0.14077 0.07328 0.72142 0.0
H535 H 0.16495 0.04872 0.76057 0.0
C536 C 0.06272 0.11376 0.68339 0.0
C537 C 0.04281 0.09731 0.66568 0.0
C538 C 0.08127 0.09691 0.70172 0.0
C539 C 0.08031 0.06336 0.70247 0.0
C540 C 0.06103 0.04706 0.6842 0.0
C541 C 0.04241 0.06381 0.66613 0.0
C542 C 0.09578 0.00613 0.75899 0.0
C543 C 0.12545 0.01666 0.76826 0.0
C544 C 0.08186 0.02036 0.73685 0.0
C545 C 0.09734 0.04544 0.72349 0.0
C546 C 0.12805 0.05441 0.73163 0.0
C547 C 0.14207 0.04003 0.75379 0.0
H548 H 0.43532 0.04603 0.69739 0.0
H549 H 0.34301 0.08483 0.71623 0.0
H550 H 0.45806 0.0732 0.73568 0.0
H551 H 0.36599 0.11213 0.75485 0.0
H552 H 0.47679 0.09476 0.82341 0.0
H553 H 0.45273 0.06885 0.78514 0.0
H554 H 0.40688 0.15705 0.76347 0.0
H555 H 0.43108 0.18327 0.80216 0.0
C556 C 0.41984 0.0602 0.70985 0.0
C557 C 0.38738 0.06323 0.70393 0.0
C558 C 0.43287 0.07572 0.73177 0.0
C559 C 0.41378 0.0948 0.74813 0.0
C560 C 0.38124 0.09778 0.74235 0.0
C561 C 0.36808 0.08193 0.72047 0.0
C562 C 0.46172 0.10875 0.81044 0.0
C563 C 0.45587 0.14107 0.81567 0.0
C564 C 0.44801 0.09389 0.78851 0.0
C565 C 0.42796 0.11095 0.77141 0.0
C566 C 0.42207 0.14334 0.77653 0.0
C567 C 0.43611 0.15837 0.79845 0.0
H568 H 0.41304 0.51947 0.80288 0.0
H569 H 0.34488 0.44476 0.81912 0.0
H570 H 0.43292 0.49013 0.76518 0.0
H571 H 0.36507 0.41476 0.78033 0.0
H572 H 0.44464 0.45115 0.68581 0.0
H573 H 0.41306 0.47469 0.72095 0.0
H574 H 0.41893 0.38735 0.76611 0.0
H575 H 0.45016 0.36305 0.72997 0.0
C576 C 0.40201 0.49678 0.79815 0.0
C577 C 0.37733 0.48443 0.81386 0.0
C578 C 0.41335 0.48 0.7764 0.0
C579 C 0.40041 0.45024 0.76963 0.0
C580 C 0.37545 0.43769 0.78516 0.0
C581 C 0.36374 0.45488 0.80709 0.0
C582 C 0.43912 0.4368 0.70314 0.0
C583 C 0.45058 0.40556 0.70553 0.0
C584 C 0.42086 0.45026 0.72321 0.0
C585 C 0.41399 0.43307 0.74648 0.0
C586 C 0.42383 0.4011 0.74834 0.0
C587 C 0.4419 0.38734 0.72785 0.0
H588 H 0.06518 0.33242 0.79356 0.0
H589 H 0.01542 0.42071 0.80783 0.0
H590 H 0.08858 0.35529 0.75328 0.0
H591 H 0.0389 0.44349 0.76783 0.0
H592 H 0.06339 0.46154 0.68024 0.0
H593 H 0.03777 0.43671 0.71858 0.0
H594 H 0.12823 0.39881 0.74382 0.0
H595 H 0.15387 0.42345 0.70541 0.0
C596 C 0.05905 0.35656 0.78797 0.0
C597 C 0.03858 0.37483 0.80381 0.0
C598 C 0.07259 0.3697 0.76507 0.0
C599 C 0.06562 0.40118 0.75755 0.0
C600 C 0.04447 0.41908 0.77304 0.0
C601 C 0.03116 0.40607 0.79599 0.0
C602 C 0.07781 0.448 0.69402 0.0
C603 C 0.11062 0.44449 0.68991 0.0
C604 C 0.06315 0.43383 0.71595 0.0
C605 C 0.08102 0.41574 0.73406 0.0
C606 C 0.11384 0.41227 0.72995 0.0
C607 C 0.12853 0.42661 0.70811 0.0
H608 H 0.97122 0.90605 0.31585 0.0
H609 H 0.93612 0.81425 0.28996 0.0
H610 H 0.95745 0.92882 0.27274 0.0
H611 H 0.92245 0.83708 0.2468 0.0
H612 H 0.85741 0.90312 0.19635 0.0
H613 H 0.87964 0.87696 0.23541 0.0
H614 H 0.96859 0.9266 0.22328 0.0
H615 H 0.94634 0.95289 0.18409 0.0
C616 C 0.96119 0.8906 0.30076 0.0
C617 C 0.95443 0.85848 0.30631 0.0
C618 C 0.95341 0.90362 0.27607 0.0
C619 C 0.93854 0.88476 0.25663 0.0
C620 C 0.9335 0.8522 0.26164 0.0
C621 C 0.94152 0.83912 0.28624 0.0
C622 C 0.88171 0.90844 0.202 0.0
C623 C 0.90011 0.93013 0.1873 0.0
C624 C 0.89452 0.89323 0.22418 0.0
C625 C 0.92589 0.89961 0.23219 0.0
C626 C 0.94432 0.92133 0.21752 0.0
C627 C 0.93159 0.93634 0.19514 0.0
H628 H 0.62007 0.94623 0.28719 0.0
H629 H 0.53011 0.99157 0.30346 0.0
H630 H 0.59648 0.91826 0.24981 0.0
H631 H 0.50606 0.9627 0.26627 0.0
H632 H 0.488 0.93349 0.17835 0.0
H633 H 0.5071 0.96052 0.21821 0.0
H634 H 0.55964 0.87619 0.24028 0.0
H635 H 0.54133 0.84961 0.20003 0.0
C636 C 0.59516 0.9501 0.28284 0.0
C637 C 0.57693 0.97111 0.29822 0.0
C638 C 0.58154 0.93382 0.26153 0.0
C639 C 0.54928 0.93797 0.25519 0.0
C640 C 0.53103 0.95916 0.27052 0.0
C641 C 0.54476 0.97562 0.29183 0.0
C642 C 0.50334 0.92064 0.1919 0.0
C643 C 0.51345 0.88958 0.18599 0.0
C644 C 0.51419 0.93608 0.2148 0.0
C645 C 0.53521 0.92066 0.23227 0.0
C646 C 0.54405 0.88901 0.22692 0.0
C647 C 0.53341 0.87369 0.20395 0.0
H648 H 0.55272 0.66457 0.26261 0.0
H649 H 0.4984 0.57797 0.27307 0.0
H650 H 0.57755 0.64192 0.22288 0.0
H651 H 0.523 0.55546 0.23343 0.0
H652 H 0.64956 0.56627 0.19054 0.0
H653 H 0.61687 0.59543 0.22221 0.0
H654 H 0.53198 0.56071 0.18343 0.0
H655 H 0.56474 0.53153 0.1515 0.0
C656 C 0.54527 0.64119 0.25586 0.0
C657 C 0.52389 0.62287 0.2709 0.0
C658 C 0.55968 0.62813 0.23335 0.0
C659 C 0.55249 0.5968 0.2254 0.0
C660 C 0.52893 0.57967 0.2391 0.0
C661 C 0.5149 0.59253 0.26178 0.0
C662 C 0.62394 0.56476 0.18879 0.0
C663 C 0.60968 0.54642 0.16871 0.0
C664 C 0.60525 0.58181 0.20669 0.0
C665 C 0.57194 0.58061 0.20502 0.0
C666 C 0.55763 0.56209 0.18506 0.0
C667 C 0.57636 0.54532 0.16691 0.0
H668 H 0.86401 0.5585 0.32791 0.0
H669 H 0.89699 0.47597 0.28515 0.0
H670 H 0.89226 0.59333 0.29637 0.0
H671 H 0.9236 0.51018 0.25307 0.0
H672 H 0.00362 0.56856 0.22436 0.0
H673 H 0.9713 0.54069 0.257 0.0
H674 H 0.89922 0.61346 0.25056 0.0
H675 H 0.93258 0.64217 0.2184 0.0
C676 C 0.8763 0.54798 0.31117 0.0
C677 C 0.87864 0.51475 0.30884 0.0
C678 C 0.89259 0.5678 0.29323 0.0
C679 C 0.911 0.55446 0.27269 0.0
C680 C 0.91065 0.52122 0.26922 0.0
C681 C 0.89503 0.5016 0.2873 0.0
C682 C 0.98116 0.57892 0.23032 0.0
C683 C 0.97048 0.60734 0.21884 0.0
C684 C 0.96242 0.56279 0.24877 0.0
C685 C 0.93219 0.57433 0.25575 0.0
C686 C 0.9223 0.60388 0.2455 0.0
C687 C 0.94142 0.62035 0.2272 0.0
H688 H 0.9791 0.93937 0.47522 0.0
H689 H 0.88067 0.91338 0.4633 0.0
H690 H 0.96267 0.98956 0.49509 0.0
H691 H 0.8642 0.96378 0.48418 0.0
H692 H 0.88484 0.04246 0.56166 0.0
H693 H 0.87916 0.99356 0.53559 0.0
H694 H 0.92782 0.03867 0.47012 0.0
H695 H 0.93331 0.0875 0.49612 0.0
C696 C 0.95393 0.94419 0.47721 0.0
C697 C 0.93122 0.9226 0.46738 0.0
C698 C 0.94455 0.973 0.48837 0.0
C699 C 0.91224 0.98079 0.49034 0.0
C700 C 0.88927 0.95839 0.4824 0.0
C701 C 0.89872 0.92948 0.47082 0.0
C702 C 0.89217 0.04263 0.54101 0.0
C703 C 0.90956 0.06862 0.53084 0.0
C704 C 0.88922 0.01454 0.52621 0.0
C705 C 0.90364 0.01233 0.50117 0.0
C706 C 0.91666 0.03989 0.48951 0.0
C707 C 0.91942 0.06798 0.50423 0.0
H708 H 0.52122 0.11011 0.4362 0.0
H709 H 0.5901 0.0481 0.47335 0.0
H710 H 0.48473 0.10046 0.4728 0.0
H711 H 0.55462 0.04039 0.5107 0.0
H712 H 0.46662 0.98847 0.54277 0.0
H713 H 0.50804 0.00809 0.51299 0.0
H714 H 0.46885 0.10307 0.51805 0.0
H715 H 0.42691 0.08303 0.54711 0.0
C716 C 0.52903 0.0953 0.45258 0.0
C717 C 0.55822 0.07915 0.45137 0.0
C718 C 0.50816 0.08992 0.4737 0.0
C719 C 0.51637 0.06873 0.49424 0.0
C720 C 0.54716 0.05594 0.4947 0.0
C721 C 0.56783 0.06095 0.47344 0.0
C722 C 0.4669 0.01346 0.53736 0.0
C723 C 0.44337 0.03411 0.54677 0.0
C724 C 0.49081 0.02487 0.52061 0.0
C725 C 0.49194 0.05728 0.51329 0.0
C726 C 0.46848 0.07795 0.52301 0.0
C727 C 0.44438 0.06645 0.53951 0.0
H728 H 0.50301 0.42297 0.53445 0.0
H729 H 0.57812 0.48526 0.56109 0.0
H730 H 0.49257 0.45807 0.49714 0.0
H731 H 0.56973 0.51959 0.52245 0.0
H732 H 0.52588 0.59373 0.46899 0.0
H733 H 0.53573 0.55769 0.50592 0.0
H734 H 0.50626 0.47805 0.45705 0.0
H735 H 0.49307 0.51428 0.42156 0.0
C736 C 0.51821 0.44359 0.53152 0.0
C737 C 0.54167 0.45125 0.55024 0.0
C738 C 0.51224 0.46389 0.51013 0.0
C739 C 0.53013 0.49205 0.50661 0.0
C740 C 0.55486 0.49867 0.52474 0.0
C741 C 0.56022 0.47872 0.54658 0.0
C742 C 0.52067 0.56864 0.4664 0.0
C743 C 0.509 0.55703 0.44206 0.0
C744 C 0.52704 0.54775 0.48744 0.0
C745 C 0.52242 0.51463 0.48455 0.0
C746 C 0.50996 0.50326 0.46039 0.0
C747 C 0.50284 0.52416 0.43969 0.0
H748 H 0.98992 0.45606 0.40492 0.0
H749 H 0.96086 0.38108 0.45868 0.0
H750 H 0.02881 0.47441 0.43683 0.0
H751 H 0.00088 0.39896 0.49067 0.0
H752 H 0.03696 0.46689 0.55402 0.0
H753 H 0.00425 0.44377 0.5194 0.0
H754 H 0.07615 0.46714 0.46108 0.0
H755 H 0.10801 0.49249 0.4956 0.0
C756 C 0.99274 0.44263 0.42317 0.0
C757 C 0.97228 0.41709 0.42932 0.0
C758 C 0.01507 0.45329 0.44157 0.0
C759 C 0.01764 0.43852 0.46651 0.0
C760 C 0.99888 0.4114 0.47188 0.0
C761 C 0.97622 0.40091 0.45351 0.0
C762 C 0.04547 0.46799 0.53372 0.0
C763 C 0.07501 0.48193 0.52758 0.0
C764 C 0.02703 0.45392 0.51393 0.0
C765 C 0.03779 0.45304 0.48751 0.0
C766 C 0.06709 0.46745 0.48122 0.0
C767 C 0.08541 0.48189 0.50102 0.0
H768 H 0.95622 0.41391 0.99085 0.0
H769 H 0.02893 0.45445 0.94069 0.0
H770 H 0.96721 0.45443 0.02464 0.0
H771 H 0.04157 0.49363 0.97475 0.0
H772 H 0.03759 0.57882 0.02951 0.0
H773 H 0.02479 0.5397 -0.00442 0.0
H774 H 0.00347 0.47034 0.05673 0.0
H775 H 0.01317 0.51017 0.09043 0.0
C776 C 0.97466 0.43148 0.98725 0.0
C777 C 0.99152 0.4315 0.96326 0.0
C778 C 0.98125 0.45452 0.00661 0.0
C779 C 0.00537 0.47748 0.00253 0.0
C780 C 0.02237 0.47697 0.97846 0.0
C781 C 0.01531 0.45442 0.95898 0.0
C782 C 0.0299 0.55533 0.03574 0.0
C783 C 0.02661 0.54785 0.06285 0.0
C784 C 0.02293 0.53265 0.01623 0.0
C785 C 0.013 0.50168 0.02329 0.0
C786 C 0.01044 0.49402 0.0504 0.0
C787 C 0.01681 0.51682 0.06986 0.0
H788 H 0.06781 0.05139 0.9386 0.0
H789 H 0.02747 0.95754 0.9282 0.0
H790 H 0.02425 0.0655 0.96837 0.0
H791 H 0.98456 0.97095 0.95872 0.0
H792 H 0.90109 0.00211 0.00253 0.0
H793 H 0.93778 0.00163 0.965 0.0
H794 H 0.00663 0.05396 0.01176 0.0
H795 H 0.9693 0.05591 0.0485 0.0
C796 C 0.04984 0.03362 0.94313 0.0
C797 C 0.05112 0.00324 0.93153 0.0
C798 C 0.0248 0.04173 0.96002 0.0
C799 C 0.00073 0.01946 0.96586 0.0
C800 C 0.0022 0.989 0.95419 0.0
C801 C 0.027 0.98108 0.93704 0.0
C802 C 0.9235 0.01472 0.00431 0.0
C803 C 0.93264 0.02851 0.02856 0.0
C804 C 0.94478 0.01395 0.983 0.0
C805 C 0.97558 0.02679 0.98567 0.0
C806 C 0.98324 0.04367 0.00895 0.0
C807 C 0.96188 0.04469 0.03011 0.0
H808 H 0.54533 0.06373 0.96497 0.0
H809 H 0.45332 0.10284 0.98449 0.0
H810 H 0.53148 0.01497 0.98748 0.0
H811 H 0.44079 0.05528 0.00996 0.0
H812 H 0.41157 0.95212 0.02658 0.0
H813 H 0.42504 0.00299 0.00532 0.0
H814 H 0.52407 0.98802 0.02529 0.0
H815 H 0.51078 0.93655 0.04349 0.0
C816 C 0.52236 0.06224 0.97461 0.0
C817 C 0.50029 0.08712 0.97239 0.0
C818 C 0.51449 0.03425 0.988 0.0
C819 C 0.48473 0.03071 0.00051 0.0
C820 C 0.46356 0.05659 -1e-05 0.0
C821 C 0.47111 0.08433 0.98589 0.0
C822 C 0.43619 0.95971 0.02573 0.0
C823 C 0.46022 0.94028 0.03606 0.0
C824 C 0.44398 0.98905 0.01402 0.0
C825 C 0.47582 0.99987 0.01334 0.0
C826 C 0.49949 0.98041 0.02445 0.0
C827 C 0.49186 0.95085 0.03514 0.0
H828 H 0.49677 0.54098 0.89688 0.0
H829 H 0.47218 0.6006 0.9637 0.0
H830 H 0.54608 0.52578 0.919 0.0
H831 H 0.52179 0.58545 0.98579 0.0
H832 H 0.62227 0.56455 0.01232 0.0
H833 H 0.5838 0.58674 0.981 0.0
H834 H 0.55098 0.49177 0.9623 0.0
H835 H 0.58926 0.46955 0.9939 0.0
C836 C 0.50242 0.55168 0.91591 0.0
C837 C 0.4807 0.57208 0.92858 0.0
C838 C 0.53049 0.54272 0.92862 0.0
C839 C 0.5376 0.55435 0.95407 0.0
C840 C 0.51693 0.57636 0.96604 0.0
C841 C 0.48856 0.58494 0.9535 0.0
C842 C 0.60758 0.54837 0.00084 0.0
C843 C 0.60878 0.51531 0.00536 0.0
C844 C 0.5854 0.56111 0.98316 0.0
C845 C 0.56443 0.54097 0.96939 0.0
C846 C 0.5671 0.50779 0.97255 0.0
C847 C 0.58891 0.49506 0.99059 0.0
H848 H 0.98153 0.18499 0.70237 0.0
H849 H 0.88088 0.19165 0.68713 0.0
H850 H 0.97518 0.21577 0.74299 0.0
H851 H 0.87436 0.22307 0.7282 0.0
H852 H 0.90135 0.31621 0.78236 0.0
H853 H 0.89565 0.27971 0.74461 0.0
H854 H 0.94719 0.20765 0.78792 0.0
H855 H 0.95247 0.24375 0.8256 0.0
C856 C 0.95802 0.19321 0.70773 0.0
C857 C 0.93172 0.18623 0.69156 0.0
C858 C 0.95432 0.21053 0.73111 0.0
C859 C 0.92424 0.22161 0.73881 0.0
C860 C 0.89778 0.21474 0.72268 0.0
C861 C 0.90145 0.19678 0.69935 0.0
C862 C 0.91056 0.29226 0.78411 0.0
C863 C 0.92792 0.28304 0.80674 0.0
C864 C 0.90732 0.27139 0.76251 0.0
C865 C 0.92145 0.24111 0.76324 0.0
C866 C 0.93653 0.23108 0.78668 0.0
C867 C 0.93963 0.25177 0.8082 0.0
H868 H 0.30337 0.89423 0.68201 0.0
H869 H 0.35422 0.9617 0.73111 0.0
H870 H 0.27316 0.87677 0.7205 0.0
H871 H 0.32211 0.94684 0.76875 0.0
H872 H 0.25878 0.92692 0.83443 0.0
H873 H 0.30129 0.91761 0.80227 0.0
H874 H 0.23038 0.89763 0.742 0.0
H875 H 0.18884 0.90438 0.77486 0.0
C876 C 0.30849 0.9051 0.70103 0.0
C877 C 0.33043 0.93034 0.70315 0.0
C878 C 0.29074 0.89539 0.72316 0.0
C879 C 0.29405 0.91114 0.74775 0.0
C880 C 0.31843 0.934 0.75036 0.0
C881 C 0.33663 0.94309 0.72846 0.0
C882 C 0.25272 0.91934 0.81448 0.0
C883 C 0.22081 0.91631 0.80697 0.0
C884 C 0.27692 0.91441 0.79589 0.0
C885 C 0.26955 0.90764 0.76911 0.0
C886 C 0.23744 0.90239 0.76229 0.0
C887 C 0.2134 0.9064 0.7811 0.0
H888 H 0.61419 0.24239 0.83703 0.0
H889 H 0.5547 0.1843 0.78638 0.0
H890 H 0.62678 0.27662 0.79954 0.0
H891 H 0.56514 0.21979 0.7495 0.0
H892 H 0.58333 0.28597 0.68428 0.0
H893 H 0.59511 0.24467 0.71703 0.0
H894 H 0.59785 0.31659 0.77865 0.0
H895 H 0.58788 0.35753 0.74556 0.0
C896 C 0.60422 0.23646 0.81784 0.0
C897 C 0.58259 0.21104 0.81498 0.0
C898 C 0.61111 0.25646 0.79633 0.0
C899 C 0.59625 0.25174 0.77156 0.0
C900 C 0.57712 0.22445 0.76814 0.0
C901 C 0.57068 0.20422 0.7895 0.0
C902 C 0.58731 0.29279 0.70478 0.0
C903 C 0.58448 0.32477 0.71252 0.0
C904 C 0.59384 0.26919 0.7236 0.0
C905 C 0.59687 0.27703 0.75071 0.0
C906 C 0.59611 0.30945 0.75803 0.0
C907 C 0.59024 0.33306 0.73908 0.0
H908 H 0.21923 0.60123 0.67175 0.0
H909 H 0.17181 0.53448 0.72355 0.0
H910 H 0.25319 0.6186 0.70899 0.0
H911 H 0.20482 0.55233 0.76084 0.0
H912 H 0.25294 0.61104 0.82584 0.0
H913 H 0.21687 0.60735 0.78766 0.0
H914 H 0.29576 0.58196 0.73723 0.0
H915 H 0.33169 0.58497 0.77561 0.0
C916 C 0.21567 0.5909 0.69126 0.0
C917 C 0.19309 0.5666 0.69498 0.0
C918 C 0.23505 0.60068 0.71242 0.0
C919 C 0.2314 0.58687 0.73771 0.0
C920 C 0.20784 0.56356 0.74159 0.0
C921 C 0.18912 0.55326 0.72035 0.0
C922 C 0.26264 0.60556 0.80645 0.0
C923 C 0.29503 0.59833 0.80354 0.0
C924 C 0.24204 0.60328 0.7847 0.0
C925 C 0.25364 0.59443 0.7596 0.0
C926 C 0.28635 0.58914 0.75635 0.0
C927 C 0.30681 0.59074 0.77822 0.0
H928 H 0.07184 0.73369 0.20841 0.0
H929 H 0.10261 0.64897 0.24941 0.0
H930 H 0.07351 0.7634 0.25015 0.0
H931 H 0.10421 0.67859 0.29135 0.0
H932 H 0.0354 0.73045 0.35398 0.0
H933 H 0.05587 0.70008 0.3163 0.0
H934 H 0.1071 0.78328 0.2891 0.0
H935 H 0.08661 0.81356 0.32694 0.0
C936 C 0.07981 0.72174 0.22629 0.0
C937 C 0.08694 0.68912 0.22579 0.0
C938 C 0.08097 0.73871 0.25013 0.0
C939 C 0.08887 0.72322 0.27401 0.0
C940 C 0.09797 0.69105 0.27323 0.0
C941 C 0.09727 0.67418 0.24925 0.0
C942 C 0.05183 0.74186 0.34036 0.0
C943 C 0.05932 0.77429 0.34323 0.0
C944 C 0.06368 0.7245 0.31889 0.0
C945 C 0.08291 0.73942 0.29969 0.0
C946 C 0.09222 0.77127 0.30358 0.0
C947 C 0.08071 0.78851 0.32531 0.0
H948 H 0.80679 0.09557 0.18132 0.0
H949 H 0.81226 1.00032 0.21328 0.0
H950 H 0.76922 0.11018 0.21677 0.0
H951 H 0.77503 0.01451 0.24819 0.0
H952 H 0.72661 0.05049 0.3192 0.0
H953 H 0.77098 0.04919 0.28806 0.0
H954 H 0.7123 0.09329 0.22804 0.0
H955 H 0.66783 0.09464 0.25934 0.0
C956 C 0.8002 0.07798 0.1961 0.0
C957 C 0.81205 0.04679 0.19452 0.0
C958 C 0.7787 0.08622 0.21621 0.0
C959 C 0.76936 0.06351 0.23527 0.0
C960 C 0.7821 0.03266 0.23403 0.0
C961 C 0.8031 0.0244 0.21386 0.0
C962 C 0.72334 0.0603 0.29947 0.0
C963 C 0.69363 0.07206 0.29149 0.0
C964 C 0.74872 0.05963 0.28169 0.0
C965 C 0.74488 0.07066 0.25553 0.0
C966 C 0.71594 0.08476 0.24814 0.0
C967 C 0.69048 0.08548 0.26602 0.0
H968 H 0.41205 0.64632 0.26947 0.0
H969 H 0.40667 0.72845 0.3205 0.0
H970 H 0.40492 0.68001 0.23068 0.0
H971 H 0.3975 0.76253 0.28184 0.0
H972 H 0.44426 0.81272 0.21083 0.0
H973 H 0.4322 0.78175 0.2499 0.0
H974 H 0.37905 0.71476 0.20187 0.0
H975 H 0.39338 0.74459 0.16222 0.0
C976 C 0.40766 0.67148 0.2724 0.0
C977 C 0.40993 0.68491 0.29787 0.0
C978 C 0.40361 0.69096 0.25013 0.0
C979 C 0.40131 0.72427 0.25293 0.0
C980 C 0.40018 0.73715 0.27878 0.0
C981 C 0.40491 0.71769 0.30099 0.0
C982 C 0.43021 0.79131 0.20838 0.0
C983 C 0.4207 0.78084 0.18303 0.0
C984 C 0.42262 0.77375 0.23107 0.0
C985 C 0.40475 0.74543 0.22923 0.0
C986 C 0.3934 0.73606 0.20409 0.0
C987 C 0.40141 0.75343 0.18127 0.0
H988 H 0.73562 0.41934 0.16073 0.0
H989 H 0.65006 0.41425 0.20779 0.0
H990 H 0.76729 0.40581 0.19985 0.0
H991 H 0.68168 0.40061 0.24703 0.0
H992 H 0.75617 0.43686 0.31055 0.0
H993 H 0.72016 0.43561 0.27254 0.0
H994 H 0.77873 0.36417 0.23518 0.0
H995 H 0.81494 0.36559 0.27338 0.0
C996 C 0.7236 0.41456 0.17936 0.0
C997 C 0.69048 0.41794 0.18129 0.0
C998 C 0.74165 0.40666 0.2017 0.0
C999 C 0.72695 0.40235 0.22652 0.0
C1000 C 0.69362 0.40401 0.22816 0.0
C1001 C 0.67551 0.41153 0.20569 0.0
C1002 C 0.76117 0.4207 0.29432 0.0
C1003 C 0.78848 0.40155 0.29476 0.0
C1004 C 0.74038 0.41971 0.2727 0.0
C1005 C 0.74664 0.39979 0.2509 0.0
C1006 C 0.7734 0.37982 0.2517 0.0
C1007 C 0.794 0.3805 0.27356 0.0
H1008 H 0.23178 0.9901 0.6483 0.0
H1009 H 0.27481 0.05607 0.59297 0.0
H1010 H 0.17947 0.00253 0.63028 0.0
H1011 H 0.2228 0.07013 0.57614 0.0
H1012 H 0.12755 0.08937 0.54377 0.0
H1013 H 0.17646 0.06005 0.55315 0.0
H1014 H 0.14404 0.04414 0.6338 0.0
H1015 H 0.0949 0.07155 0.62359 0.0
C1016 C 0.23002 0.00714 0.63219 0.0
C1017 C 0.25728 0.02236 0.62224 0.0
C1018 C 0.20003 0.01448 0.62195 0.0
C1019 C 0.19661 0.03778 0.60198 0.0
C1020 C 0.22423 0.05175 0.5912 0.0
C1021 C 0.25421 0.04388 0.60102 0.0
C1022 C 0.13082 0.0787 0.56319 0.0
C1023 C 0.10761 0.08244 0.5829 0.0
C1024 C 0.15887 0.06222 0.56874 0.0
C1025 C 0.16462 0.04997 0.59439 0.0
C1026 C 0.1405 0.05258 0.61369 0.0
C1027 C 0.11224 0.06842 0.60791 0.0
H1028 H 0.36812 0.17403 0.5853 0.0
H1029 H 0.44094 0.12456 0.62942 0.0
H1030 H 0.40361 0.21932 0.57968 0.0
H1031 H 0.47703 0.16943 0.62285 0.0
H1032 H 0.50243 0.2755 0.64408 0.0
H1033 H 0.47919 0.22254 0.64134 0.0
H1034 H 0.45154 0.24058 0.55998 0.0
H1035 H 0.47411 0.29403 0.56292 0.0
C1036 C 0.39184 0.17265 0.59352 0.0
C1037 C 0.40144 0.14585 0.60817 0.0
C1038 C 0.41242 0.19846 0.58996 0.0
C1039 C 0.44319 0.19808 0.60091 0.0
C1040 C 0.45337 0.17061 0.61441 0.0
C1041 C 0.43274 0.14476 0.61798 0.0
C1042 C 0.4921 0.26796 0.62537 0.0
C1043 C 0.48955 0.28927 0.60389 0.0
C1044 C 0.47886 0.23745 0.62376 0.0
C1045 C 0.46295 0.22752 0.60059 0.0
C1046 C 0.46299 0.2478 0.57832 0.0
C1047 C 0.47614 0.27836 0.57996 0.0
H1048 H 0.40262 0.45898 0.62999 0.0
H1049 H 0.38102 0.39769 0.56369 0.0
H1050 H 0.35461 0.48973 0.62126 0.0
H1051 H 0.33371 0.42921 0.55388 0.0
H1052 H 0.23219 0.4418 0.58767 0.0
H1053 H 0.28653 0.42614 0.57988 0.0
H1054 H 0.31803 0.52254 0.5956 0.0
H1055 H 0.2628 0.53807 0.60423 0.0
C1056 C 0.38824 0.45309 0.6128 0.0
C1057 C 0.39487 0.42581 0.59774 0.0
C1058 C 0.36083 0.47073 0.60768 0.0
C1059 C 0.33995 0.46143 0.58723 0.0
C1060 C 0.34889 0.43643 0.57021 0.0
C1061 C 0.37591 0.41848 0.57568 0.0
C1062 C 0.25062 0.45975 0.58927 0.0
C1063 C 0.24343 0.49091 0.59719 0.0
C1064 C 0.28184 0.45093 0.58432 0.0
C1065 C 0.30674 0.4731 0.58714 0.0
C1066 C 0.29936 0.50489 0.59346 0.0
C1067 C 0.26784 0.51379 0.59831 0.0
H1068 H 0.10624 0.36654 0.5474 0.0
H1069 H 0.07503 0.36581 0.62879 0.0
H1070 H 0.06916 0.32334 0.53692 0.0
H1071 H 0.03989 0.321 0.61951 0.0
H1072 H 0.97401 0.24333 0.60065 0.0
H1073 H 0.9965 0.29688 0.60202 0.0
H1074 H 0.06448 0.26988 0.54151 0.0
H1075 H 0.04002 0.21762 0.53881 0.0
C1076 C 0.09115 0.35701 0.56295 0.0
C1077 C 0.0932 0.36921 0.58881 0.0
C1078 C 0.07014 0.33204 0.55715 0.0
C1079 C 0.05153 0.31795 0.57736 0.0
C1080 C 0.05308 0.33124 0.60312 0.0
C1081 C 0.0734 0.35682 0.60865 0.0
C1082 C 0.99307 0.24941 0.58705 0.0
C1083 C 0.00528 0.22642 0.56963 0.0
C1084 C 0.0064 0.27997 0.58809 0.0
C1085 C 0.03307 0.2879 0.57242 0.0
C1086 C 0.04386 0.26526 0.55378 0.0
C1087 C 0.02984 0.23505 0.55218 0.0
H1088 H 0.28609 0.45771 0.85383 0.0
H1089 H 0.23659 0.5279 0.90092 0.0
H1090 H 0.23789 0.42486 0.85271 0.0
H1091 H 0.18889 0.4951 0.90006 0.0
H1092 H 0.10032 0.43985 0.87748 0.0
H1093 H 0.14696 0.47385 0.87104 0.0
H1094 H 0.20811 0.39334 0.88604 0.0
H1095 H 0.16163 0.35928 0.8917 0.0
C1096 C 0.26488 0.46627 0.86368 0.0
C1097 C 0.2652 0.49528 0.87762 0.0
C1098 C 0.23736 0.4474 0.86318 0.0
C1099 C 0.20963 0.45733 0.8764 0.0
C1100 C 0.20972 0.4869 0.88945 0.0
C1101 C 0.23719 0.5056 0.8901 0.0
C1102 C 0.12371 0.42937 0.87909 0.0
C1103 C 0.12724 0.39692 0.88533 0.0
C1104 C 0.15042 0.44886 0.87558 0.0
C1105 C 0.18123 0.43628 0.87806 0.0
C1106 C 0.18472 0.4037 0.88372 0.0
C1107 C 0.15805 0.38428 0.88737 0.0
H1108 H 0.05851 0.13316 0.82008 0.0
H1109 H 0.07913 0.09783 0.89868 0.0
H1110 H 0.02334 0.1735 0.83905 0.0
H1111 H 0.04457 0.13899 0.91793 0.0
H1112 H 0.03976 0.25715 0.91986 0.0
H1113 H 0.05789 0.20254 0.91282 0.0
H1114 H 0.97129 0.18125 0.87028 0.0
H1115 H 0.95266 0.23572 0.87812 0.0
C1116 C 0.05492 0.13377 0.8414 0.0
C1117 C 0.07149 0.11277 0.858 0.0
C1118 C 0.03467 0.15655 0.85223 0.0
C1119 C 0.03123 0.15915 0.87991 0.0
C1120 C 0.04671 0.1372 0.89652 0.0
C1121 C 0.06638 0.1138 0.88557 0.0
C1122 C 0.02403 0.24034 0.91009 0.0
C1123 C 0.99491 0.25045 0.8995 0.0
C1124 C 0.03432 0.20913 0.90613 0.0
C1125 C 0.01598 0.18788 0.89093 0.0
C1126 C 0.98571 0.19724 0.88218 0.0
C1127 C 0.97504 0.22828 0.88676 0.0
H1128 H 0.35032 0.14932 0.9401 0.0
H1129 H 0.38229 0.10461 0.86783 0.0
H1130 H 0.30103 0.11854 0.93824 0.0
H1131 H 0.33256 0.07478 0.86504 0.0
H1132 H 0.20254 0.10195 0.90195 0.0
H1133 H 0.25512 0.12197 0.91211 0.0
H1134 H 0.29652 0.03556 0.88088 0.0
H1135 H 0.24345 0.01595 0.86964 0.0
C1136 C 0.34678 0.13263 0.92395 0.0
C1137 C 0.36985 0.12944 0.90403 0.0
C1138 C 0.31854 0.11513 0.92273 0.0
C1139 C 0.31246 0.09455 0.90122 0.0
C1140 C 0.33643 0.0901 0.88206 0.0
C1141 C 0.36494 0.10724 0.88356 0.0
C1142 C 0.22277 0.08696 0.89753 0.0
C1143 C 0.21877 0.05744 0.8848 0.0
C1144 C 0.25307 0.09838 0.90358 0.0
C1145 C 0.28025 0.08044 0.89734 0.0
C1146 C 0.27618 0.05024 0.88561 0.0
C1147 C 0.24575 0.0389 0.87931 0.0
H1148 H 0.42722 0.42969 0.86798 0.0
H1149 H 0.42124 0.41846 0.95315 0.0
H1150 H 0.45696 0.38063 0.86477 0.0
H1151 H 0.45186 0.36913 0.95011 0.0
H1152 H 0.46075 0.26208 0.92412 0.0
H1153 H 0.44337 0.3159 0.93478 0.0
H1154 H 0.50482 0.35344 0.87329 0.0
H1155 H 0.52077 0.29952 0.86177 0.0
C1156 C 0.43304 0.41717 0.88615 0.0
C1157 C 0.42184 0.42797 0.91083 0.0
C1158 C 0.45025 0.38895 0.88435 0.0
C1159 C 0.45697 0.37084 0.90721 0.0
C1160 C 0.44677 0.38225 0.93207 0.0
C1161 C 0.42929 0.41049 0.93384 0.0
C1162 C 0.47092 0.28189 0.91321 0.0
C1163 C 0.49142 0.27659 0.89164 0.0
C1164 C 0.46112 0.31283 0.91942 0.0
C1165 C 0.4721 0.33901 0.90445 0.0
C1166 C 0.49508 0.33376 0.88465 0.0
C1167 C 0.50441 0.30287 0.87816 0.0
H1168 H 0.81491 0.87844 0.34213 0.0
H1169 H 0.85509 0.90208 0.41848 0.0
H1170 H 0.77164 0.91603 0.34977 0.0
H1171 H 0.8111 0.93948 0.42659 0.0
H1172 H 0.69469 0.95277 0.43329 0.0
H1173 H 0.74703 0.92768 0.43052 0.0
H1174 H 0.76609 0.97865 0.35772 0.0
H1175 H 0.7144 0.0042 0.36056 0.0
C1176 C 0.81446 0.89191 0.36048 0.0
C1177 C 0.83809 0.88747 0.37976 0.0
C1178 C 0.78992 0.9135 0.3648 0.0
C1179 C 0.7882 0.93064 0.38872 0.0
C1180 C 0.81203 0.92654 0.40797 0.0
C1181 C 0.83711 0.90538 0.40333 0.0
C1182 C 0.71038 0.95934 0.41711 0.0
C1183 C 0.70004 0.97998 0.39685 0.0
C1184 C 0.74035 0.94504 0.4156 0.0
C1185 C 0.76025 0.95101 0.39373 0.0
C1186 C 0.75097 0.97348 0.37463 0.0
C1187 C 0.7213 0.98803 0.37629 0.0
H1188 H 0.61809 0.88124 0.37843 0.0
H1189 H 0.52368 0.89981 0.40807 0.0
H1190 H 0.6064 0.82404 0.37801 0.0
H1191 H 0.51209 0.84275 0.40788 0.0
H1192 H 0.49484 0.74362 0.36731 0.0
H1193 H 0.50538 0.80058 0.37231 0.0
H1194 H 0.5945 0.77955 0.41099 0.0
H1195 H 0.58403 0.7226 0.40612 0.0
C1196 C 0.59489 0.87308 0.38485 0.0
C1197 C 0.57183 0.89497 0.39329 0.0
C1198 C 0.58829 0.84038 0.38486 0.0
C1199 C 0.55834 0.82899 0.39297 0.0
C1200 C 0.53531 0.85088 0.40143 0.0
C1201 C 0.54204 0.8835 0.40173 0.0
C1202 C 0.51647 0.75113 0.37723 0.0
C1203 C 0.53861 0.72858 0.38628 0.0
C1204 C 0.52246 0.78373 0.38013 0.0
C1205 C 0.55088 0.79445 0.39185 0.0
C1206 C 0.57257 0.77193 0.40161 0.0
C1207 C 0.56641 0.73933 0.39902 0.0
H1208 H 0.79478 0.53858 0.34471 0.0
H1209 H 0.7405 0.48128 0.40006 0.0
H1210 H 0.74857 0.57234 0.33738 0.0
H1211 H 0.69436 0.51528 0.39279 0.0
H1212 H 0.61088 0.56086 0.34706 0.0
H1213 H 0.65697 0.5274 0.35521 0.0
H1214 H 0.71586 0.6113 0.36341 0.0
H1215 H 0.66967 0.64495 0.35579 0.0
C1216 C 0.77302 0.53319 0.35533 0.0
C1217 C 0.77124 0.50724 0.37294 0.0
C1218 C 0.74665 0.55264 0.35124 0.0
C1219 C 0.71795 0.54638 0.36452 0.0
C1220 C 0.71614 0.52043 0.38211 0.0
C1221 C 0.74259 0.5011 0.38636 0.0
C1222 C 0.6335 0.57228 0.35094 0.0
C1223 C 0.63649 0.60568 0.35081 0.0
C1224 C 0.65991 0.55305 0.35554 0.0
C1225 C 0.68992 0.56679 0.35993 0.0
C1226 C 0.69303 0.60011 0.35975 0.0
C1227 C 0.66657 0.61935 0.35532 0.0
H1228 H 0.93691 0.56638 0.44503 0.0
H1229 H 0.8861 0.58324 0.37204 0.0
H1230 H 0.9539 0.62222 0.44595 0.0
H1231 H 0.90091 0.63911 0.37351 0.0
H1232 H 0.95083 0.73192 0.36776 0.0
H1233 H 0.94058 0.67513 0.36736 0.0
H1234 H 0.9391 0.67464 0.45343 0.0
H1235 H 0.95201 0.73163 0.45348 0.0
C1236 C 0.92938 0.5822 0.42923 0.0
C1237 C 0.91062 0.57056 0.40828 0.0
C1238 C 0.9388 0.61426 0.42982 0.0
C1239 C 0.92901 0.63553 0.40975 0.0
C1240 C 0.90989 0.62359 0.38895 0.0
C1241 C 0.90119 0.59149 0.38807 0.0
C1242 C 0.9484 0.7196 0.3866 0.0
C1243 C 0.95179 0.73613 0.41066 0.0
C1244 C 0.94223 0.68696 0.38642 0.0
C1245 C 0.93823 0.67001 0.41035 0.0
C1246 C 0.94226 0.68661 0.43455 0.0
C1247 C 0.94941 0.71932 0.43468 0.0
H1248 H 0.9255 0.54992 0.09944 0.0
H1249 H 0.86363 0.60514 0.14971 0.0
H1250 H 0.88219 0.51089 0.09225 0.0
H1251 H 0.82104 0.5668 0.1429 0.0
H1252 H 0.75667 0.48848 0.1466 0.0
H1253 H 0.81022 0.50843 0.15407 0.0
H1254 H 0.82448 0.51609 0.0693 0.0
H1255 H 0.77057 0.49503 0.0618 0.0
C1256 C 0.90279 0.55337 0.10914 0.0
C1257 C 0.89757 0.58045 0.12493 0.0
C1258 C 0.87816 0.53127 0.105 0.0
C1259 C 0.84847 0.53575 0.11723 0.0
C1260 C 0.84382 0.56246 0.13355 0.0
C1261 C 0.86803 0.58458 0.13726 0.0
C1262 C 0.77165 0.49316 0.12954 0.0
C1263 C 0.75964 0.49046 0.10365 0.0
C1264 C 0.80227 0.50463 0.13382 0.0
C1265 C 0.82118 0.51428 0.11227 0.0
C1266 C 0.81036 0.50865 0.08622 0.0
C1267 C 0.77962 0.49669 0.08192 0.0
H1268 H 0.0602 0.75476 0.12449 0.0
H1269 H 0.97457 0.70548 0.10071 0.0
H1270 H 0.03778 0.80504 0.10799 0.0
H1271 H 0.95203 0.75484 0.08516 0.0
H1272 H 0.91201 0.84108 0.05543 0.0
H1273 H 0.95095 0.79799 0.05529 0.0
H1274 H 0.99603 0.83914 0.12458 0.0
H1275 H 0.95802 0.88289 0.12357 0.0
C1276 C 0.03695 0.7546 0.11523 0.0
C1277 C 0.01886 0.72645 0.11426 0.0
C1278 C 0.02402 0.78332 0.10596 0.0
C1279 C 0.993 0.78411 0.09536 0.0
C1280 C 0.9761 0.75532 0.09279 0.0
C1281 C 0.98887 0.72694 0.10208 0.0
C1282 C 0.93097 0.84126 0.07 0.0
C1283 C 0.93198 0.86488 0.08964 0.0
C1284 C 0.95315 0.81662 0.07008 0.0
C1285 C 0.97617 0.81464 0.09034 0.0
C1286 C 0.97882 0.83992 0.10858 0.0
C1287 C 0.95698 0.86495 0.10812 0.0
H1288 H 0.76638 0.98264 0.12207 0.0
H1289 H 0.77491 0.91762 0.05587 0.0
H1290 H 0.71002 0.97045 0.12533 0.0
H1291 H 0.71799 0.90571 0.05895 0.0
H1292 H 0.62418 0.86569 0.09502 0.0
H1293 H 0.68095 0.87806 0.09051 0.0
H1294 H 0.66058 0.97809 0.10099 0.0
H1295 H 0.60442 0.96565 0.10616 0.0
C1296 C 0.75613 0.96605 0.10794 0.0
C1297 C 0.77517 0.95113 0.08867 0.0
C1298 C 0.72376 0.95911 0.10979 0.0
C1299 C 0.70955 0.93698 0.09249 0.0
C1300 C 0.72837 0.92256 0.07279 0.0
C1301 C 0.76086 0.92968 0.07081 0.0
C1302 C 0.632 0.89021 0.09671 0.0
C1303 C 0.60986 0.91469 0.10091 0.0
C1304 C 0.66438 0.89736 0.09376 0.0
C1305 C 0.67523 0.92909 0.09524 0.0
C1306 C 0.65307 0.95341 0.09989 0.0
C1307 C 0.62083 0.9463 0.10267 0.0
H1308 H 0.59428 0.62031 0.11373 0.0
H1309 H 0.65616 0.64787 0.04943 0.0
H1310 H 0.56489 0.66981 0.10894 0.0
H1311 H 0.62572 0.69676 0.04318 0.0
H1312 H 0.59596 0.79789 0.06597 0.0
H1313 H 0.61994 0.74555 0.06348 0.0
H1314 H 0.53028 0.70249 0.08608 0.0
H1315 H 0.50695 0.75537 0.09017 0.0
C1316 C 0.60094 0.63671 0.09804 0.0
C1317 C 0.6275 0.63056 0.08204 0.0
C1318 C 0.58403 0.66508 0.09513 0.0
C1319 C 0.59295 0.68768 0.07576 0.0
C1320 C 0.61858 0.68048 0.05878 0.0
C1321 C 0.63591 0.65241 0.06215 0.0
C1322 C 0.58126 0.7772 0.07005 0.0
C1323 C 0.54966 0.78072 0.07843 0.0
C1324 C 0.59497 0.74702 0.06847 0.0
C1325 C 0.57721 0.71949 0.07471 0.0
C1326 C 0.545 0.72306 0.08174 0.0
C1327 C 0.53149 0.75335 0.08388 0.0
loop_
_geom_bond_atom_site_label_1
_geom_bond_atom_site_label_2
_geom_bond_distance
_geom_bond_site_symmetry_2
_ccdc_geom_bond_type
Co0 N4 2.148 . S
Co0 N10 2.128 1_455 S
Co0 N20 2.194 1_455 S
Co0 O25 2.351 1_455 S
Co0 O26 2.155 . S
Co0 O27 2.096 . S
C1 N4 1.301 . S
C1 N5 1.328 . S
C1 H6 0.930 . S
C2 C3 1.333 . S
C2 N4 1.317 . S
C2 H7 0.930 . S
C3 C2 1.333 . S
C3 N5 1.350 . S
C3 H29 0.931 . S
N4 Co0 2.148 . S
N4 C1 1.301 . S
N4 C2 1.317 . S
N5 C1 1.328 . S
N5 C3 1.350 . S
H6 C1 0.930 . S
H7 C2 0.930 . S
C8 O9 1.224 . S
C8 O27 1.247 . S
O9 C8 1.224 . S
N10 Co0 2.128 1_655 S
N10 C11 1.355 . S
N10 C13 1.311 . S
C11 N10 1.355 . S
C11 C12 1.363 . S
C11 H23 0.929 . S
C12 C11 1.363 . S
C12 N14 1.375 . S
C12 H30 0.931 . S
C13 N10 1.311 . S
C13 N14 1.347 . S
C13 H24 0.929 . S
N14 C12 1.375 . S
N14 C13 1.347 . S
C15 C18 1.365 . S
C15 N20 1.328 . S
C15 H21 0.929 . S
C16 C17 1.362 . S
C16 C19 1.378 . S
C16 H31 0.929 . S
C17 C16 1.362 . S
C17 C18 1.366 . S
C18 C15 1.365 . S
C18 C17 1.366 . S
C18 H32 0.930 . S
C19 C16 1.378 . S
C19 N20 1.315 . S
C19 H22 0.930 . S
N20 Co0 2.194 1_655 S
N20 C15 1.328 . S
N20 C19 1.315 . S
H21 C15 0.929 . S
H22 C19 0.930 . S
H23 C11 0.929 . S
H24 C13 0.929 . S
O25 Co0 2.351 1_655 S
O25 C28 1.246 1_655 S
O26 Co0 2.155 . S
O26 C28 1.240 . S
O27 Co0 2.096 . S
O27 C8 1.247 . S
C28 O25 1.246 1_455 S
C28 O26 1.240 . S
H29 C3 0.931 . S
H30 C12 0.931 . S
H31 C16 0.929 . S
H32 C18 0.930 . S
Co33 N37 2.148 . S
Co33 N43 2.128 1_545 S
Co33 N53 2.194 1_545 S
Co33 O58 2.350 1_545 S
Co33 O59 2.155 . S
Co33 O60 2.096 . S
C34 N37 1.301 . S
C34 N38 1.328 . S
C34 H39 0.930 . S
C35 C36 1.333 . S
C35 N37 1.317 . S
C35 H40 0.930 . S
C36 C35 1.333 . S
C36 N38 1.350 . S
C36 H62 0.931 . S
N37 Co33 2.148 . S
N37 C34 1.301 . S
N37 C35 1.317 . S
N38 C34 1.328 . S
N38 C36 1.350 . S
H39 C34 0.930 . S
H40 C35 0.930 . S
C41 O42 1.224 . S
C41 O60 1.247 . S
O42 C41 1.224 . S
N43 Co33 2.128 1_565 S
N43 C44 1.355 . S
N43 C46 1.311 . S
C44 N43 1.355 . S
C44 C45 1.363 . S
C44 H56 0.929 . S
C45 C44 1.363 . S
C45 N47 1.375 . S
C45 H63 0.931 . S
C46 N43 1.311 . S
C46 N47 1.347 . S
C46 H57 0.929 . S
N47 C45 1.375 . S
N47 C46 1.347 . S
C48 C51 1.365 . S
C48 N53 1.328 . S
C48 H54 0.929 . S
C49 C50 1.362 . S
C49 C52 1.378 . S
C49 H64 0.929 . S
C50 C49 1.362 . S
C50 C51 1.366 . S
C51 C48 1.365 . S
C51 C50 1.366 . S
C51 H65 0.930 . S
C52 C49 1.378 . S
C52 N53 1.315 . S
C52 H55 0.930 . S
N53 Co33 2.194 1_565 S
N53 C48 1.328 . S
N53 C52 1.315 . S
H54 C48 0.929 . S
H55 C52 0.930 . S
H56 C44 0.929 . S
H57 C46 0.929 . S
O58 Co33 2.350 1_565 S
O58 C61 1.242 1_565 S
O59 Co33 2.155 . S
O59 C61 1.240 . S
O60 Co33 2.096 . S
O60 C41 1.247 . S
C61 O58 1.242 1_545 S
C61 O59 1.240 . S
H62 C36 0.931 . S
H63 C45 0.931 . S
H64 C49 0.929 . S
H65 C51 0.930 . S
Co66 N70 2.148 . S
Co66 N76 2.128 . S
Co66 N86 2.194 . S
Co66 O91 2.351 . S
Co66 O92 2.155 . S
Co66 O93 2.096 . S
C67 N70 1.301 . S
C67 N71 1.328 . S
C67 H72 0.930 . S
C68 C69 1.333 . S
C68 N70 1.317 . S
C68 H73 0.930 . S
C69 C68 1.333 . S
C69 N71 1.350 . S
C69 H95 0.931 . S
N70 Co66 2.148 . S
N70 C67 1.301 . S
N70 C68 1.317 . S
N71 C67 1.328 . S
N71 C69 1.350 . S
H72 C67 0.930 . S
H73 C68 0.930 . S
C74 O75 1.224 . S
C74 O93 1.247 . S
O75 C74 1.224 . S
N76 Co66 2.128 . S
N76 C77 1.355 . S
N76 C79 1.311 . S
C77 N76 1.355 . S
C77 C78 1.363 . S
C77 H89 0.929 . S
C78 C77 1.363 . S
C78 N80 1.375 . S
C78 H96 0.931 . S
C79 N76 1.311 . S
C79 N80 1.347 . S
C79 H90 0.929 . S
N80 C78 1.375 . S
N80 C79 1.347 . S
C81 C84 1.365 . S
C81 N86 1.328 . S
C81 H87 0.929 . S
C82 C83 1.362 . S
C82 C85 1.378 . S
C82 H97 0.929 . S
C83 C82 1.362 . S
C83 C84 1.366 . S
C84 C81 1.365 . S
C84 C83 1.366 . S
C84 H98 0.930 . S
C85 C82 1.378 . S
C85 N86 1.315 . S
C85 H88 0.930 . S
N86 Co66 2.194 . S
N86 C81 1.328 . S
N86 C85 1.315 . S
H87 C81 0.929 . S
H88 C85 0.930 . S
H89 C77 0.929 . S
H90 C79 0.929 . S
O91 Co66 2.351 . S
O91 C94 1.244 . S
O92 Co66 2.155 . S
O92 C94 1.240 . S
O93 Co66 2.096 . S
O93 C74 1.247 . S
C94 O91 1.244 . S
C94 O92 1.240 . S
H95 C69 0.931 . S
H96 C78 0.931 . S
H97 C82 0.929 . S
H98 C84 0.930 . S
Co99 N103 2.148 . S
Co99 N109 2.128 . S
Co99 N119 2.194 . S
Co99 O124 2.351 . S
Co99 O125 2.155 . S
Co99 O126 2.096 . S
C100 N103 1.301 . S
C100 N104 1.328 . S
C100 H105 0.930 . S
C101 C102 1.333 . S
C101 N103 1.317 . S
C101 H106 0.930 . S
C102 C101 1.333 . S
C102 N104 1.350 . S
C102 H128 0.931 . S
N103 Co99 2.148 . S
N103 C100 1.301 . S
N103 C101 1.317 . S
N104 C100 1.328 . S
N104 C102 1.350 . S
H105 C100 0.930 . S
H106 C101 0.930 . S
C107 O108 1.224 . S
C107 O126 1.247 . S
O108 C107 1.224 . S
N109 Co99 2.128 . S
N109 C110 1.355 . S
N109 C112 1.311 . S
C110 N109 1.355 . S
C110 C111 1.363 . S
C110 H122 0.929 . S
C111 C110 1.363 . S
C111 N113 1.375 . S
C111 H129 0.931 . S
C112 N109 1.311 . S
C112 N113 1.347 . S
C112 H123 0.929 . S
N113 C111 1.375 . S
N113 C112 1.347 . S
C114 C117 1.365 . S
C114 N119 1.328 . S
C114 H120 0.929 . S
C115 C116 1.362 . S
C115 C118 1.378 . S
C115 H130 0.929 . S
C116 C115 1.362 . S
C116 C117 1.366 . S
C117 C114 1.365 . S
C117 C116 1.366 . S
C117 H131 0.930 . S
C118 C115 1.378 . S
C118 N119 1.315 . S
C118 H121 0.930 . S
N119 Co99 2.194 . S
N119 C114 1.328 . S
N119 C118 1.315 . S
H120 C114 0.929 . S
H121 C118 0.930 . S
H122 C110 0.929 . S
H123 C112 0.929 . S
O124 Co99 2.351 . S
O124 C127 1.244 . S
O125 Co99 2.155 . S
O125 C127 1.240 . S
O126 Co99 2.096 . S
O126 C107 1.247 . S
C127 O124 1.244 . S
C127 O125 1.240 . S
H128 C102 0.931 . S
H129 C111 0.931 . S
H130 C115 0.929 . S
H131 C117 0.930 . S
Co132 N136 2.148 . S
Co132 N142 2.128 1_455 S
Co132 N152 2.194 1_455 S
Co132 O157 2.350 1_455 S
Co132 O158 2.155 . S
Co132 O159 2.096 . S
C133 N136 1.301 . S
C133 N137 1.328 . S
C133 H138 0.930 . S
C134 C135 1.333 . S
C134 N136 1.317 . S
C134 H139 0.930 . S
C135 C134 1.333 . S
C135 N137 1.350 . S
C135 H161 0.931 . S
N136 Co132 2.148 . S
N136 C133 1.301 . S
N136 C134 1.317 . S
N137 C133 1.328 . S
N137 C135 1.350 . S
H138 C133 0.930 . S
H139 C134 0.930 . S
C140 O141 1.224 . S
C140 O159 1.247 . S
O141 C140 1.224 . S
N142 Co132 2.128 1_655 S
N142 C143 1.355 . S
N142 C145 1.311 . S
C143 N142 1.355 . S
C143 C144 1.363 . S
C143 H155 0.929 . S
C144 C143 1.363 . S
C144 N146 1.375 . S
C144 H162 0.931 . S
C145 N142 1.311 . S
C145 N146 1.347 . S
C145 H156 0.929 . S
N146 C144 1.375 . S
N146 C145 1.347 . S
C147 C150 1.365 . S
C147 N152 1.328 . S
C147 H153 0.929 . S
C148 C149 1.362 . S
C148 C151 1.378 . S
C148 H163 0.929 . S
C149 C148 1.362 . S
C149 C150 1.366 . S
C150 C147 1.365 . S
C150 C149 1.366 . S
C150 H164 0.930 . S
C151 C148 1.378 . S
C151 N152 1.315 . S
C151 H154 0.930 . S
N152 Co132 2.194 1_655 S
N152 C147 1.328 . S
N152 C151 1.315 . S
H153 C147 0.929 . S
H154 C151 0.930 . S
H155 C143 0.929 . S
H156 C145 0.929 . S
O157 Co132 2.350 1_655 S
O157 C160 1.242 1_655 S
O158 Co132 2.155 . S
O158 C160 1.240 . S
O159 Co132 2.096 . S
O159 C140 1.247 . S
C160 O157 1.242 1_455 S
C160 O158 1.240 . S
H161 C135 0.931 . S
H162 C144 0.931 . S
H163 C148 0.929 . S
H164 C150 0.930 . S
Co165 N169 2.148 . S
Co165 N175 2.128 1_545 S
Co165 N185 2.194 1_545 S
Co165 O190 2.351 1_545 S
Co165 O191 2.155 . S
Co165 O192 2.096 . S
C166 N169 1.301 . S
C166 N170 1.328 . S
C166 H171 0.930 . S
C167 C168 1.333 . S
C167 N169 1.317 . S
C167 H172 0.930 . S
C168 C167 1.333 . S
C168 N170 1.350 . S
C168 H194 0.931 . S
N169 Co165 2.148 . S
N169 C166 1.301 . S
N169 C167 1.317 . S
N170 C166 1.328 . S
N170 C168 1.350 . S
H171 C166 0.930 . S
H172 C167 0.930 . S
C173 O174 1.224 . S
C173 O192 1.247 . S
O174 C173 1.224 . S
N175 Co165 2.128 1_565 S
N175 C176 1.355 . S
N175 C178 1.311 . S
C176 N175 1.355 . S
C176 C177 1.363 . S
C176 H188 0.929 . S
C177 C176 1.363 . S
C177 N179 1.375 . S
C177 H195 0.931 . S
C178 N175 1.311 . S
C178 N179 1.347 . S
C178 H189 0.929 . S
N179 C177 1.375 . S
N179 C178 1.347 . S
C180 C183 1.365 . S
C180 N185 1.328 . S
C180 H186 0.929 . S
C181 C182 1.362 . S
C181 C184 1.378 . S
C181 H196 0.929 . S
C182 C181 1.362 . S
C182 C183 1.366 . S
C183 C180 1.365 . S
C183 C182 1.366 . S
C183 H197 0.930 . S
C184 C181 1.378 . S
C184 N185 1.315 . S
C184 H187 0.930 . S
N185 Co165 2.194 1_565 S
N185 C180 1.328 . S
N185 C184 1.315 . S
H186 C180 0.929 . S
H187 C184 0.930 . S
H188 C176 0.929 . S
H189 C178 0.929 . S
O190 Co165 2.351 1_565 S
O190 C193 1.246 1_565 S
O191 Co165 2.155 . S
O191 C193 1.240 . S
O192 Co165 2.096 . S
O192 C173 1.247 . S
C193 O190 1.246 1_545 S
C193 O191 1.240 . S
H194 C168 0.931 . S
H195 C177 0.931 . S
H196 C181 0.929 . S
H197 C183 0.930 . S
Co198 N202 2.148 . S
Co198 N208 2.128 . S
Co198 N218 2.194 . S
Co198 O223 2.351 . S
Co198 O224 2.155 . S
Co198 O225 2.096 . S
C199 N202 1.301 . S
C199 N203 1.328 . S
C199 H204 0.930 . S
C200 C201 1.333 . S
C200 N202 1.317 . S
C200 H205 0.930 . S
C201 C200 1.333 . S
C201 N203 1.350 . S
C201 H227 0.931 . S
N202 Co198 2.148 . S
N202 C199 1.301 . S
N202 C200 1.317 . S
N203 C199 1.328 . S
N203 C201 1.350 . S
H204 C199 0.930 . S
H205 C200 0.930 . S
C206 O207 1.224 . S
C206 O225 1.247 . S
O207 C206 1.224 . S
N208 Co198 2.128 . S
N208 C209 1.355 . S
N208 C211 1.311 . S
C209 N208 1.355 . S
C209 C210 1.363 . S
C209 H221 0.929 . S
C210 C209 1.363 . S
C210 N212 1.375 . S
C210 H228 0.931 . S
C211 N208 1.311 . S
C211 N212 1.347 . S
C211 H222 0.929 . S
N212 C210 1.375 . S
N212 C211 1.347 . S
C213 C216 1.365 . S
C213 N218 1.328 . S
C213 H219 0.929 . S
C214 C215 1.362 . S
C214 C217 1.378 . S
C214 H229 0.929 . S
C215 C214 1.362 . S
C215 C216 1.366 . S
C216 C213 1.365 . S
C216 C215 1.366 . S
C216 H230 0.930 . S
C217 C214 1.378 . S
C217 N218 1.315 . S
C217 H220 0.930 . S
N218 Co198 2.194 . S
N218 C213 1.328 . S
N218 C217 1.315 . S
H219 C213 0.929 . S
H220 C217 0.930 . S
H221 C209 0.929 . S
H222 C211 0.929 . S
O223 Co198 2.351 . S
O223 C226 1.244 . S
O224 Co198 2.155 . S
O224 C226 1.240 . S
O225 Co198 2.096 . S
O225 C206 1.247 . S
C226 O223 1.244 . S
C226 O224 1.240 . S
H227 C201 0.931 . S
H228 C210 0.931 . S
H229 C214 0.929 . S
H230 C216 0.930 . S
Co231 N235 2.148 . S
Co231 N241 2.128 . S
Co231 N251 2.194 . S
Co231 O256 2.351 . S
Co231 O257 2.155 . S
Co231 O258 2.096 . S
C232 N235 1.301 . S
C232 N236 1.328 . S
C232 H237 0.930 . S
C233 C234 1.333 . S
C233 N235 1.317 . S
C233 H238 0.930 . S
C234 C233 1.333 . S
C234 N236 1.350 . S
C234 H260 0.931 . S
N235 Co231 2.148 . S
N235 C232 1.301 . S
N235 C233 1.317 . S
N236 C232 1.328 . S
N236 C234 1.350 . S
H237 C232 0.930 . S
H238 C233 0.930 . S
C239 O240 1.224 . S
C239 O258 1.247 . S
O240 C239 1.224 . S
N241 Co231 2.128 . S
N241 C242 1.355 . S
N241 C244 1.311 . S
C242 N241 1.355 . S
C242 C243 1.363 . S
C242 H254 0.929 . S
C243 C242 1.363 . S
C243 N245 1.375 . S
C243 H261 0.931 . S
C244 N241 1.311 . S
C244 N245 1.347 . S
C244 H255 0.929 . S
N245 C243 1.375 . S
N245 C244 1.347 . S
C246 C249 1.365 . S
C246 N251 1.328 . S
C246 H252 0.929 . S
C247 C248 1.362 . S
C247 C250 1.378 . S
C247 H262 0.929 . S
C248 C247 1.362 . S
C248 C249 1.366 . S
C249 C246 1.365 . S
C249 C248 1.366 . S
C249 H263 0.930 . S
C250 C247 1.378 . S
C250 N251 1.315 . S
C250 H253 0.930 . S
N251 Co231 2.194 . S
N251 C246 1.328 . S
N251 C250 1.315 . S
H252 C246 0.929 . S
H253 C250 0.930 . S
H254 C242 0.929 . S
H255 C244 0.929 . S
O256 Co231 2.351 . S
O256 C259 1.244 . S
O257 Co231 2.155 . S
O257 C259 1.240 . S
O258 Co231 2.096 . S
O258 C239 1.247 . S
C259 O256 1.244 . S
C259 O257 1.240 . S
H260 C234 0.931 . S
H261 C243 0.931 . S
H262 C247 0.929 . S
H263 C249 0.930 . S
Co264 N268 2.148 . S
Co264 N274 2.128 1_655 S
Co264 N284 2.194 1_655 S
Co264 O289 2.351 1_655 S
Co264 O290 2.155 . S
Co264 O291 2.096 . S
C265 N268 1.301 . S
C265 N269 1.328 . S
C265 H270 0.930 . S
C266 C267 1.333 . S
C266 N268 1.317 . S
C266 H271 0.930 . S
C267 C266 1.333 . S
C267 N269 1.350 . S
C267 H293 0.931 . S
N268 Co264 2.148 . S
N268 C265 1.301 . S
N268 C266 1.317 . S
N269 C265 1.328 . S
N269 C267 1.350 . S
H270 C265 0.930 . S
H271 C266 0.930 . S
C272 O273 1.224 . S
C272 O291 1.247 . S
O273 C272 1.224 . S
N274 Co264 2.128 1_455 S
N274 C275 1.355 . S
N274 C277 1.311 . S
C275 N274 1.355 . S
C275 C276 1.363 . S
C275 H287 0.929 . S
C276 C275 1.363 . S
C276 N278 1.375 . S
C276 H294 0.931 . S
C277 N274 1.311 . S
C277 N278 1.347 . S
C277 H288 0.929 . S
N278 C276 1.375 . S
N278 C277 1.347 . S
C279 C282 1.365 . S
C279 N284 1.328 . S
C279 H285 0.929 . S
C280 C281 1.362 . S
C280 C283 1.378 . S
C280 H295 0.929 . S
C281 C280 1.362 . S
C281 C282 1.366 . S
C282 C279 1.365 . S
C282 C281 1.366 . S
C282 H296 0.930 . S
C283 C280 1.378 . S
C283 N284 1.315 . S
C283 H286 0.930 . S
N284 Co264 2.194 1_455 S
N284 C279 1.328 . S
N284 C283 1.315 . S
H285 C279 0.929 . S
H286 C283 0.930 . S
H287 C275 0.929 . S
H288 C277 0.929 . S
O289 Co264 2.351 1_455 S
O289 C292 1.246 1_455 S
O290 Co264 2.155 . S
O290 C292 1.240 . S
O291 Co264 2.096 . S
O291 C272 1.247 . S
C292 O289 1.246 1_655 S
C292 O290 1.240 . S
H293 C267 0.931 . S
H294 C276 0.931 . S
H295 C280 0.929 . S
H296 C282 0.930 . S
Co297 N301 2.148 . S
Co297 N307 2.128 1_565 S
Co297 N317 2.194 1_565 S
Co297 O322 2.350 1_565 S
Co297 O323 2.155 . S
Co297 O324 2.096 . S
C298 N301 1.301 . S
C298 N302 1.328 . S
C298 H303 0.930 . S
C299 C300 1.333 . S
C299 N301 1.317 . S
C299 H304 0.930 . S
C300 C299 1.333 . S
C300 N302 1.350 . S
C300 H326 0.931 . S
N301 Co297 2.148 . S
N301 C298 1.301 . S
N301 C299 1.317 . S
N302 C298 1.328 . S
N302 C300 1.350 . S
H303 C298 0.930 . S
H304 C299 0.930 . S
C305 O306 1.224 . S
C305 O324 1.247 . S
O306 C305 1.224 . S
N307 Co297 2.128 1_545 S
N307 C308 1.355 . S
N307 C310 1.311 . S
C308 N307 1.355 . S
C308 C309 1.363 . S
C308 H320 0.929 . S
C309 C308 1.363 . S
C309 N311 1.375 . S
C309 H327 0.931 . S
C310 N307 1.311 . S
C310 N311 1.347 . S
C310 H321 0.929 . S
N311 C309 1.375 . S
N311 C310 1.347 . S
C312 C315 1.365 . S
C312 N317 1.328 . S
C312 H318 0.929 . S
C313 C314 1.362 . S
C313 C316 1.378 . S
C313 H328 0.929 . S
C314 C313 1.362 . S
C314 C315 1.366 . S
C315 C312 1.365 . S
C315 C314 1.366 . S
C315 H329 0.930 . S
C316 C313 1.378 . S
C316 N317 1.315 . S
C316 H319 0.930 . S
N317 Co297 2.194 1_545 S
N317 C312 1.328 . S
N317 C316 1.315 . S
H318 C312 0.929 . S
H319 C316 0.930 . S
H320 C308 0.929 . S
H321 C310 0.929 . S
O322 Co297 2.350 1_545 S
O322 C325 1.242 1_545 S
O323 Co297 2.155 . S
O323 C325 1.240 . S
O324 Co297 2.096 . S
O324 C305 1.247 . S
C325 O322 1.242 1_565 S
C325 O323 1.240 . S
H326 C300 0.931 . S
H327 C309 0.931 . S
H328 C313 0.929 . S
H329 C315 0.930 . S
Co330 N334 2.148 . S
Co330 N340 2.128 . S
Co330 N350 2.194 . S
Co330 O355 2.351 . S
Co330 O356 2.155 . S
Co330 O357 2.096 . S
C331 N334 1.301 . S
C331 N335 1.328 . S
C331 H336 0.930 . S
C332 C333 1.333 . S
C332 N334 1.317 . S
C332 H337 0.930 . S
C333 C332 1.333 . S
C333 N335 1.350 . S
C333 H359 0.931 . S
N334 Co330 2.148 . S
N334 C331 1.301 . S
N334 C332 1.317 . S
N335 C331 1.328 . S
N335 C333 1.350 . S
H336 C331 0.930 . S
H337 C332 0.930 . S
C338 O339 1.224 . S
C338 O357 1.247 . S
O339 C338 1.224 . S
N340 Co330 2.128 . S
N340 C341 1.355 . S
N340 C343 1.311 . S
C341 N340 1.355 . S
C341 C342 1.363 . S
C341 H353 0.929 . S
C342 C341 1.363 . S
C342 N344 1.375 . S
C342 H360 0.931 . S
C343 N340 1.311 . S
C343 N344 1.347 . S
C343 H354 0.929 . S
N344 C342 1.375 . S
N344 C343 1.347 . S
C345 C348 1.365 . S
C345 N350 1.328 . S
C345 H351 0.929 . S
C346 C347 1.362 . S
C346 C349 1.378 . S
C346 H361 0.929 . S
C347 C346 1.362 . S
C347 C348 1.366 . S
C348 C345 1.365 . S
C348 C347 1.366 . S
C348 H362 0.930 . S
C349 C346 1.378 . S
C349 N350 1.315 . S
C349 H352 0.930 . S
N350 Co330 2.194 . S
N350 C345 1.328 . S
N350 C349 1.315 . S
H351 C345 0.929 . S
H352 C349 0.930 . S
H353 C341 0.929 . S
H354 C343 0.929 . S
O355 Co330 2.351 . S
O355 C358 1.244 . S
O356 Co330 2.155 . S
O356 C358 1.240 . S
O357 Co330 2.096 . S
O357 C338 1.247 . S
C358 O355 1.244 . S
C358 O356 1.240 . S
H359 C333 0.931 . S
H360 C342 0.931 . S
H361 C346 0.929 . S
H362 C348 0.930 . S
Co363 N367 2.148 . S
Co363 N373 2.128 . S
Co363 N383 2.194 . S
Co363 O388 2.351 . S
Co363 O389 2.155 . S
Co363 O390 2.096 . S
C364 N367 1.301 . S
C364 N368 1.328 . S
C364 H369 0.930 . S
C365 C366 1.333 . S
C365 N367 1.317 . S
C365 H370 0.930 . S
C366 C365 1.333 . S
C366 N368 1.350 . S
C366 H392 0.931 . S
N367 Co363 2.148 . S
N367 C364 1.301 . S
N367 C365 1.317 . S
N368 C364 1.328 . S
N368 C366 1.350 . S
H369 C364 0.930 . S
H370 C365 0.930 . S
C371 O372 1.224 . S
C371 O390 1.247 . S
O372 C371 1.224 . S
N373 Co363 2.128 . S
N373 C374 1.355 . S
N373 C376 1.311 . S
C374 N373 1.355 . S
C374 C375 1.363 . S
C374 H386 0.929 . S
C375 C374 1.363 . S
C375 N377 1.375 . S
C375 H393 0.931 . S
C376 N373 1.311 . S
C376 N377 1.347 . S
C376 H387 0.929 . S
N377 C375 1.375 . S
N377 C376 1.347 . S
C378 C381 1.365 . S
C378 N383 1.328 . S
C378 H384 0.929 . S
C379 C380 1.362 . S
C379 C382 1.378 . S
C379 H394 0.929 . S
C380 C379 1.362 . S
C380 C381 1.366 . S
C381 C378 1.365 . S
C381 C380 1.366 . S
C381 H395 0.930 . S
C382 C379 1.378 . S
C382 N383 1.315 . S
C382 H385 0.930 . S
N383 Co363 2.194 . S
N383 C378 1.328 . S
N383 C382 1.315 . S
H384 C378 0.929 . S
H385 C382 0.930 . S
H386 C374 0.929 . S
H387 C376 0.929 . S
O388 Co363 2.351 . S
O388 C391 1.244 . S
O389 Co363 2.155 . S
O389 C391 1.240 . S
O390 Co363 2.096 . S
O390 C371 1.247 . S
C391 O388 1.244 . S
C391 O389 1.240 . S
H392 C366 0.931 . S
H393 C375 0.931 . S
H394 C379 0.929 . S
H395 C381 0.930 . S
Co396 N400 2.148 . S
Co396 N406 2.128 1_655 S
Co396 N416 2.194 1_655 S
Co396 O421 2.350 1_655 S
Co396 O422 2.155 . S
Co396 O423 2.096 . S
C397 N400 1.301 . S
C397 N401 1.328 . S
C397 H402 0.930 . S
C398 C399 1.333 . S
C398 N400 1.317 . S
C398 H403 0.930 . S
C399 C398 1.333 . S
C399 N401 1.350 . S
C399 H425 0.931 . S
N400 Co396 2.148 . S
N400 C397 1.301 . S
N400 C398 1.317 . S
N401 C397 1.328 . S
N401 C399 1.350 . S
H402 C397 0.930 . S
H403 C398 0.930 . S
C404 O405 1.224 . S
C404 O423 1.247 . S
O405 C404 1.224 . S
N406 Co396 2.128 1_455 S
N406 C407 1.355 . S
N406 C409 1.311 . S
C407 N406 1.355 . S
C407 C408 1.363 . S
C407 H419 0.929 . S
C408 C407 1.363 . S
C408 N410 1.375 . S
C408 H426 0.931 . S
C409 N406 1.311 . S
C409 N410 1.347 . S
C409 H420 0.929 . S
N410 C408 1.375 . S
N410 C409 1.347 . S
C411 C414 1.365 . S
C411 N416 1.328 . S
C411 H417 0.929 . S
C412 C413 1.362 . S
C412 C415 1.378 . S
C412 H427 0.929 . S
C413 C412 1.362 . S
C413 C414 1.366 . S
C414 C411 1.365 . S
C414 C413 1.366 . S
C414 H428 0.930 . S
C415 C412 1.378 . S
C415 N416 1.315 . S
C415 H418 0.930 . S
N416 Co396 2.194 1_455 S
N416 C411 1.328 . S
N416 C415 1.315 . S
H417 C411 0.929 . S
H418 C415 0.930 . S
H419 C407 0.929 . S
H420 C409 0.929 . S
O421 Co396 2.350 1_455 S
O421 C424 1.242 1_455 S
O422 Co396 2.155 . S
O422 C424 1.240 . S
O423 Co396 2.096 . S
O423 C404 1.247 . S
C424 O421 1.242 1_655 S
C424 O422 1.240 . S
H425 C399 0.931 . S
H426 C408 0.931 . S
H427 C412 0.929 . S
H428 C414 0.930 . S
Co429 N433 2.148 . S
Co429 N439 2.128 1_565 S
Co429 N449 2.194 1_565 S
Co429 O454 2.351 1_565 S
Co429 O455 2.155 . S
Co429 O456 2.096 . S
C430 N433 1.301 . S
C430 N434 1.328 . S
C430 H435 0.930 . S
C431 C432 1.333 . S
C431 N433 1.317 . S
C431 H436 0.930 . S
C432 C431 1.333 . S
C432 N434 1.350 . S
C432 H458 0.931 . S
N433 Co429 2.148 . S
N433 C430 1.301 . S
N433 C431 1.317 . S
N434 C430 1.328 . S
N434 C432 1.350 . S
H435 C430 0.930 . S
H436 C431 0.930 . S
C437 O438 1.224 . S
C437 O456 1.247 . S
O438 C437 1.224 . S
N439 Co429 2.128 1_545 S
N439 C440 1.355 . S
N439 C442 1.311 . S
C440 N439 1.355 . S
C440 C441 1.363 . S
C440 H452 0.929 . S
C441 C440 1.363 . S
C441 N443 1.375 . S
C441 H459 0.931 . S
C442 N439 1.311 . S
C442 N443 1.347 . S
C442 H453 0.929 . S
N443 C441 1.375 . S
N443 C442 1.347 . S
C444 C447 1.365 . S
C444 N449 1.328 . S
C444 H450 0.929 . S
C445 C446 1.362 . S
C445 C448 1.378 . S
C445 H460 0.929 . S
C446 C445 1.362 . S
C446 C447 1.366 . S
C447 C444 1.365 . S
C447 C446 1.366 . S
C447 H461 0.930 . S
C448 C445 1.378 . S
C448 N449 1.315 . S
C448 H451 0.930 . S
N449 Co429 2.194 1_545 S
N449 C444 1.328 . S
N449 C448 1.315 . S
H450 C444 0.929 . S
H451 C448 0.930 . S
H452 C440 0.929 . S
H453 C442 0.929 . S
O454 Co429 2.351 1_545 S
O454 C457 1.246 1_545 S
O455 Co429 2.155 . S
O455 C457 1.240 . S
O456 Co429 2.096 . S
O456 C437 1.247 . S
C457 O454 1.246 1_565 S
C457 O455 1.240 . S
H458 C432 0.931 . S
H459 C441 0.931 . S
H460 C445 0.929 . S
H461 C447 0.930 . S
Co462 N466 2.148 . S
Co462 N472 2.128 . S
Co462 N482 2.194 . S
Co462 O487 2.351 . S
Co462 O488 2.155 . S
Co462 O489 2.096 . S
C463 N466 1.301 . S
C463 N467 1.328 . S
C463 H468 0.930 . S
C464 C465 1.333 . S
C464 N466 1.317 . S
C464 H469 0.930 . S
C465 C464 1.333 . S
C465 N467 1.350 . S
C465 H491 0.931 . S
N466 Co462 2.148 . S
N466 C463 1.301 . S
N466 C464 1.317 . S
N467 C463 1.328 . S
N467 C465 1.350 . S
H468 C463 0.930 . S
H469 C464 0.930 . S
C470 O471 1.224 . S
C470 O489 1.247 . S
O471 C470 1.224 . S
N472 Co462 2.128 . S
N472 C473 1.355 . S
N472 C475 1.311 . S
C473 N472 1.355 . S
C473 C474 1.363 . S
C473 H485 0.929 . S
C474 C473 1.363 . S
C474 N476 1.375 . S
C474 H492 0.931 . S
C475 N472 1.311 . S
C475 N476 1.347 . S
C475 H486 0.929 . S
N476 C474 1.375 . S
N476 C475 1.347 . S
C477 C480 1.365 . S
C477 N482 1.328 . S
C477 H483 0.929 . S
C478 C479 1.362 . S
C478 C481 1.378 . S
C478 H493 0.929 . S
C479 C478 1.362 . S
C479 C480 1.366 . S
C480 C477 1.365 . S
C480 C479 1.366 . S
C480 H494 0.930 . S
C481 C478 1.378 . S
C481 N482 1.315 . S
C481 H484 0.930 . S
N482 Co462 2.194 . S
N482 C477 1.328 . S
N482 C481 1.315 . S
H483 C477 0.929 . S
H484 C481 0.930 . S
H485 C473 0.929 . S
H486 C475 0.929 . S
O487 Co462 2.351 . S
O487 C490 1.244 . S
O488 Co462 2.155 . S
O488 C490 1.240 . S
O489 Co462 2.096 . S
O489 C470 1.247 . S
C490 O487 1.244 . S
C490 O488 1.240 . S
H491 C465 0.931 . S
H492 C474 0.931 . S
H493 C478 0.929 . S
H494 C480 0.930 . S
Co495 N499 2.148 . S
Co495 N505 2.128 . S
Co495 N515 2.194 . S
Co495 O520 2.351 . S
Co495 O521 2.155 . S
Co495 O522 2.096 . S
C496 N499 1.301 . S
C496 N500 1.328 . S
C496 H501 0.930 . S
C497 C498 1.333 . S
C497 N499 1.317 . S
C497 H502 0.930 . S
C498 C497 1.333 . S
C498 N500 1.350 . S
C498 H524 0.931 . S
N499 Co495 2.148 . S
N499 C496 1.301 . S
N499 C497 1.317 . S
N500 C496 1.328 . S
N500 C498 1.350 . S
H501 C496 0.930 . S
H502 C497 0.930 . S
C503 O504 1.224 . S
C503 O522 1.247 . S
O504 C503 1.224 . S
N505 Co495 2.128 . S
N505 C506 1.355 . S
N505 C508 1.311 . S
C506 N505 1.355 . S
C506 C507 1.363 . S
C506 H518 0.929 . S
C507 C506 1.363 . S
C507 N509 1.375 . S
C507 H525 0.931 . S
C508 N505 1.311 . S
C508 N509 1.347 . S
C508 H519 0.929 . S
N509 C507 1.375 . S
N509 C508 1.347 . S
C510 C513 1.365 . S
C510 N515 1.328 . S
C510 H516 0.929 . S
C511 C512 1.362 . S
C511 C514 1.378 . S
C511 H526 0.929 . S
C512 C511 1.362 . S
C512 C513 1.366 . S
C513 C510 1.365 . S
C513 C512 1.366 . S
C513 H527 0.930 . S
C514 C511 1.378 . S
C514 N515 1.315 . S
C514 H517 0.930 . S
N515 Co495 2.194 . S
N515 C510 1.328 . S
N515 C514 1.315 . S
H516 C510 0.929 . S
H517 C514 0.930 . S
H518 C506 0.929 . S
H519 C508 0.929 . S
O520 Co495 2.351 . S
O520 C523 1.244 . S
O521 Co495 2.155 . S
O521 C523 1.240 . S
O522 Co495 2.096 . S
O522 C503 1.247 . S
C523 O520 1.244 . S
C523 O521 1.240 . S
H524 C498 0.931 . S
H525 C507 0.931 . S
H526 C511 0.929 . S
H527 C513 0.930 . S
H528 C536 0.950 1_655 S
H529 C541 0.950 . S
H530 C538 0.950 . S
H531 C540 0.950 . S
H532 C542 0.950 . S
H533 C544 0.950 1_565 S
H534 C546 0.950 . S
H535 C547 0.950 . S
C536 H528 0.950 1_455 S
C536 C537 1.386 . S
C536 C538 1.391 . S
C537 C536 1.386 . S
C537 C541 1.393 . S
C538 H530 0.950 . S
C538 C536 1.391 . S
C538 C539 1.400 . S
C539 C538 1.400 . S
C539 C540 1.398 . S
C539 C545 1.491 . S
C540 H531 0.950 . S
C540 C539 1.398 . S
C540 C541 1.391 . S
C541 H529 0.950 . S
C541 C537 1.393 . S
C541 C540 1.391 . S
C542 H532 0.950 . S
C542 C543 1.386 1_565 S
C542 C544 1.391 1_565 S
C543 C542 1.386 1_545 S
C543 C547 1.393 . S
C544 H533 0.950 1_545 S
C544 C542 1.391 1_545 S
C544 C545 1.400 . S
C545 C539 1.491 . S
C545 C544 1.400 . S
C545 C546 1.398 . S
C546 H534 0.950 . S
C546 C545 1.398 . S
C546 C547 1.391 . S
C547 H535 0.950 . S
C547 C543 1.393 . S
C547 C546 1.391 . S
H548 C556 0.950 . S
H549 C561 0.944 1_565 S
H550 C558 0.950 . S
H551 C560 0.950 . S
H552 C562 0.950 . S
H553 C564 0.950 . S
H554 C566 0.950 . S
H555 C567 0.950 . S
C556 H548 0.950 . S
C556 C557 1.386 . S
C556 C558 1.391 . S
C557 C556 1.386 . S
C557 C561 1.395 . S
C558 H550 0.950 . S
C558 C556 1.391 . S
C558 C559 1.400 . S
C559 C558 1.400 . S
C559 C560 1.398 . S
C559 C565 1.491 . S
C560 H551 0.950 . S
C560 C559 1.398 . S
C560 C561 1.394 . S
C561 H549 0.944 1_545 S
C561 C557 1.395 . S
C561 C560 1.394 . S
C562 H552 0.950 . S
C562 C563 1.386 . S
C562 C564 1.391 . S
C563 C562 1.386 . S
C563 C567 1.393 . S
C564 H553 0.950 . S
C564 C562 1.391 . S
C564 C565 1.400 . S
C565 C559 1.491 . S
C565 C564 1.400 . S
C565 C566 1.398 . S
C566 H554 0.950 . S
C566 C565 1.398 . S
C566 C567 1.391 . S
C567 H555 0.950 . S
C567 C563 1.393 . S
C567 C566 1.391 . S
H568 C576 0.950 . S
H569 C581 0.950 . S
H570 C578 0.950 . S
H571 C580 0.950 . S
H572 C582 0.950 . S
H573 C584 0.950 . S
H574 C586 0.950 . S
H575 C587 0.950 . S
C576 H568 0.950 . S
C576 C577 1.386 . S
C576 C578 1.391 . S
C577 C576 1.386 . S
C577 C581 1.393 . S
C578 H570 0.950 . S
C578 C576 1.391 . S
C578 C579 1.400 . S
C579 C578 1.400 . S
C579 C580 1.398 . S
C579 C585 1.491 . S
C580 H571 0.950 . S
C580 C579 1.398 . S
C580 C581 1.391 . S
C581 H569 0.950 . S
C581 C577 1.393 . S
C581 C580 1.391 . S
C582 H572 0.950 . S
C582 C583 1.386 . S
C582 C584 1.391 . S
C583 C582 1.386 . S
C583 C587 1.393 . S
C584 H573 0.950 . S
C584 C582 1.391 . S
C584 C585 1.400 . S
C585 C579 1.491 . S
C585 C584 1.400 . S
C585 C586 1.398 . S
C586 H574 0.950 . S
C586 C585 1.398 . S
C586 C587 1.391 . S
C587 H575 0.950 . S
C587 C583 1.393 . S
C587 C586 1.391 . S
H588 C596 0.950 . S
H589 C601 0.950 . S
H590 C598 0.950 . S
H591 C600 0.950 . S
H592 C602 0.950 . S
H593 C604 0.950 . S
H594 C606 0.950 . S
H595 C607 0.950 . S
C596 H588 0.950 . S
C596 C597 1.386 . S
C596 C598 1.391 . S
C597 C596 1.386 . S
C597 C601 1.393 . S
C598 H590 0.950 . S
C598 C596 1.391 . S
C598 C599 1.400 . S
C599 C598 1.400 . S
C599 C600 1.398 . S
C599 C605 1.491 . S
C600 H591 0.950 . S
C600 C599 1.398 . S
C600 C601 1.391 . S
C601 H589 0.950 . S
C601 C597 1.393 . S
C601 C600 1.391 . S
C602 H592 0.950 . S
C602 C603 1.386 . S
C602 C604 1.391 . S
C603 C602 1.386 . S
C603 C607 1.393 . S
C604 H593 0.950 . S
C604 C602 1.391 . S
C604 C605 1.400 . S
C605 C599 1.491 . S
C605 C604 1.400 . S
C605 C606 1.398 . S
C606 H594 0.950 . S
C606 C605 1.398 . S
C606 C607 1.391 . S
C607 H595 0.950 . S
C607 C603 1.393 . S
C607 C606 1.391 . S
H608 C616 0.950 . S
H609 C621 0.950 . S
H610 C618 0.950 1_455 S
H611 C620 0.950 . S
H612 C622 0.950 . S
H613 C624 0.950 . S
H614 C626 0.950 . S
H615 C627 0.950 . S
C616 H608 0.950 . S
C616 C617 1.386 1_455 S
C616 C618 1.391 1_455 S
C617 C616 1.386 1_655 S
C617 C621 1.393 . S
C618 H610 0.950 1_655 S
C618 C616 1.391 1_655 S
C618 C619 1.400 . S
C619 C618 1.400 . S
C619 C620 1.398 . S
C619 C625 1.491 . S
C620 H611 0.950 . S
C620 C619 1.398 . S
C620 C621 1.391 . S
C621 H609 0.950 . S
C621 C617 1.393 . S
C621 C620 1.391 . S
C622 H612 0.950 . S
C622 C623 1.386 . S
C622 C624 1.391 . S
C623 C622 1.386 . S
C623 C627 1.393 . S
C624 H613 0.950 . S
C624 C622 1.391 . S
C624 C625 1.400 . S
C625 C619 1.491 . S
C625 C624 1.400 . S
C625 C626 1.398 . S
C626 H614 0.950 . S
C626 C625 1.398 . S
C626 C627 1.391 . S
C627 H615 0.950 . S
C627 C623 1.393 . S
C627 C626 1.391 . S
H628 C636 0.950 . S
H629 C641 0.950 . S
H630 C638 0.950 . S
H631 C640 0.950 1_545 S
H632 C642 0.950 . S
H633 C644 0.950 . S
H634 C646 0.950 . S
H635 C647 0.950 . S
C636 H628 0.950 . S
C636 C637 1.386 . S
C636 C638 1.391 . S
C637 C636 1.386 . S
C637 C641 1.393 1_565 S
C638 H630 0.950 . S
C638 C636 1.391 . S
C638 C639 1.400 . S
C639 C638 1.400 . S
C639 C640 1.398 . S
C639 C645 1.491 . S
C640 H631 0.950 1_565 S
C640 C639 1.398 . S
C640 C641 1.391 1_565 S
C641 H629 0.950 . S
C641 C637 1.393 1_545 S
C641 C640 1.391 1_545 S
C642 H632 0.950 . S
C642 C643 1.386 . S
C642 C644 1.391 . S
C643 C642 1.386 . S
C643 C647 1.393 . S
C644 H633 0.950 . S
C644 C642 1.391 . S
C644 C645 1.400 . S
C645 C639 1.491 . S
C645 C644 1.400 . S
C645 C646 1.398 . S
C646 H634 0.950 . S
C646 C645 1.398 . S
C646 C647 1.391 . S
C647 H635 0.950 . S
C647 C643 1.393 . S
C647 C646 1.391 . S
H648 C656 0.950 . S
H649 C661 0.950 . S
H650 C658 0.950 . S
H651 C660 0.950 . S
H652 C662 0.950 . S
H653 C664 0.950 . S
H654 C666 0.950 . S
H655 C667 0.950 . S
C656 H648 0.950 . S
C656 C657 1.386 . S
C656 C658 1.391 . S
C657 C656 1.386 . S
C657 C661 1.393 . S
C658 H650 0.950 . S
C658 C656 1.391 . S
C658 C659 1.400 . S
C659 C658 1.400 . S
C659 C660 1.398 . S
C659 C665 1.491 . S
C660 H651 0.950 . S
C660 C659 1.398 . S
C660 C661 1.391 . S
C661 H649 0.950 . S
C661 C657 1.393 . S
C661 C660 1.391 . S
C662 H652 0.950 . S
C662 C663 1.386 . S
C662 C664 1.391 . S
C663 C662 1.386 . S
C663 C667 1.393 . S
C664 H653 0.950 . S
C664 C662 1.391 . S
C664 C665 1.400 . S
C665 C659 1.491 . S
C665 C664 1.400 . S
C665 C666 1.398 . S
C666 H654 0.950 . S
C666 C665 1.398 . S
C666 C667 1.391 . S
C667 H655 0.950 . S
C667 C663 1.393 . S
C667 C666 1.391 . S
H668 C676 0.950 . S
H669 C681 0.950 . S
H670 C678 0.950 . S
H671 C680 0.950 . S
H672 C682 0.950 . S
H673 C684 0.950 1_455 S
H674 C686 0.950 . S
H675 C687 0.950 . S
C676 H668 0.950 . S
C676 C677 1.386 . S
C676 C678 1.391 . S
C677 C676 1.386 . S
C677 C681 1.393 . S
C678 H670 0.950 . S
C678 C676 1.391 . S
C678 C679 1.400 . S
C679 C678 1.400 . S
C679 C680 1.398 . S
C679 C685 1.491 . S
C680 H671 0.950 . S
C680 C679 1.398 . S
C680 C681 1.391 . S
C681 H669 0.950 . S
C681 C677 1.393 . S
C681 C680 1.391 . S
C682 H672 0.950 . S
C682 C683 1.386 1_455 S
C682 C684 1.391 1_455 S
C683 C682 1.386 1_655 S
C683 C687 1.393 . S
C684 H673 0.950 1_655 S
C684 C682 1.391 1_655 S
C684 C685 1.400 . S
C685 C679 1.491 . S
C685 C684 1.400 . S
C685 C686 1.398 . S
C686 H674 0.950 . S
C686 C685 1.398 . S
C686 C687 1.391 . S
C687 H675 0.950 . S
C687 C683 1.393 . S
C687 C686 1.391 . S
H688 C696 0.950 . S
H689 C701 0.945 1_655 S
H690 C698 0.950 . S
H691 C700 0.950 . S
H692 C702 0.950 . S
H693 C704 0.950 . S
H694 C706 0.950 . S
H695 C707 0.949 1_455 S
C696 H688 0.950 . S
C696 C697 1.386 . S
C696 C698 1.391 . S
C697 C696 1.386 . S
C697 C701 1.393 . S
C698 H690 0.950 . S
C698 C696 1.391 . S
C698 C699 1.400 . S
C699 C698 1.400 . S
C699 C700 1.398 1_455 S
C699 C705 1.491 1_465 S
C700 H691 0.950 . S
C700 C699 1.398 1_655 S
C700 C701 1.391 1_655 S
C701 H689 0.945 1_455 S
C701 C697 1.393 . S
C701 C700 1.391 1_455 S
C702 H692 0.950 . S
C702 C703 1.386 . S
C702 C704 1.391 . S
C703 C702 1.386 . S
C703 C707 1.393 . S
C704 H693 0.950 . S
C704 C702 1.391 . S
C704 C705 1.400 . S
C705 C699 1.491 1_645 S
C705 C704 1.400 . S
C705 C706 1.398 1_655 S
C706 H694 0.950 . S
C706 C705 1.398 1_455 S
C706 C707 1.391 1_455 S
C707 H695 0.949 1_655 S
C707 C703 1.393 . S
C707 C706 1.391 1_655 S
H708 C716 0.950 . S
H709 C721 0.950 1_565 S
H710 C718 0.950 . S
H711 C720 0.950 . S
H712 C722 0.950 . S
H713 C724 0.950 . S
H714 C726 0.950 . S
H715 C727 0.950 1_545 S
C716 H708 0.950 . S
C716 C717 1.386 . S
C716 C718 1.391 . S
C717 C716 1.386 . S
C717 C721 1.393 . S
C718 H710 0.950 . S
C718 C716 1.391 . S
C718 C719 1.400 . S
C719 C718 1.400 . S
C719 C720 1.398 1_545 S
C719 C725 1.491 1_545 S
C720 H711 0.950 . S
C720 C719 1.398 1_565 S
C720 C721 1.391 1_565 S
C721 H709 0.950 1_545 S
C721 C717 1.393 . S
C721 C720 1.391 1_545 S
C722 H712 0.950 . S
C722 C723 1.386 . S
C722 C724 1.391 . S
C723 C722 1.386 . S
C723 C727 1.393 . S
C724 H713 0.950 . S
C724 C722 1.391 . S
C724 C725 1.400 . S
C725 C719 1.491 1_565 S
C725 C724 1.400 . S
C725 C726 1.398 1_565 S
C726 H714 0.950 . S
C726 C725 1.398 1_545 S
C726 C727 1.391 1_545 S
C727 H715 0.950 1_565 S
C727 C723 1.393 . S
C727 C726 1.391 1_565 S
H728 C736 0.950 . S
H729 C741 0.950 . S
H730 C738 0.950 . S
H731 C740 0.950 . S
H732 C742 0.950 . S
H733 C744 0.950 . S
H734 C746 0.950 . S
H735 C747 0.950 . S
C736 H728 0.950 . S
C736 C737 1.386 . S
C736 C738 1.391 . S
C737 C736 1.386 . S
C737 C741 1.393 . S
C738 H730 0.950 . S
C738 C736 1.391 . S
C738 C739 1.400 . S
C739 C738 1.400 . S
C739 C740 1.398 . S
C739 C745 1.491 . S
C740 H731 0.950 . S
C740 C739 1.398 . S
C740 C741 1.391 . S
C741 H729 0.950 . S
C741 C737 1.393 . S
C741 C740 1.391 . S
C742 H732 0.950 . S
C742 C743 1.386 . S
C742 C744 1.391 . S
C743 C742 1.386 . S
C743 C747 1.393 . S
C744 H733 0.950 . S
C744 C742 1.391 . S
C744 C745 1.400 . S
C745 C739 1.491 . S
C745 C744 1.400 . S
C745 C746 1.398 . S
C746 H734 0.950 . S
C746 C745 1.398 . S
C746 C747 1.391 . S
C747 H735 0.950 . S
C747 C743 1.393 . S
C747 C746 1.391 . S
H748 C756 0.950 . S
H749 C761 0.950 . S
H750 C758 0.950 1_455 S
H751 C760 0.950 . S
H752 C762 0.950 . S
H753 C764 0.950 1_655 S
H754 C766 0.950 . S
H755 C767 0.950 . S
C756 H748 0.950 . S
C756 C757 1.386 . S
C756 C758 1.391 . S
C757 C756 1.386 . S
C757 C761 1.393 . S
C758 H750 0.950 1_655 S
C758 C756 1.391 . S
C758 C759 1.400 . S
C759 C758 1.400 . S
C759 C760 1.398 . S
C759 C765 1.491 1_655 S
C760 H751 0.950 . S
C760 C759 1.398 . S
C760 C761 1.391 . S
C761 H749 0.950 . S
C761 C757 1.393 . S
C761 C760 1.391 . S
C762 H752 0.950 . S
C762 C763 1.386 . S
C762 C764 1.391 . S
C763 C762 1.386 . S
C763 C767 1.393 . S
C764 H753 0.950 1_455 S
C764 C762 1.391 . S
C764 C765 1.400 . S
C765 C759 1.491 1_455 S
C765 C764 1.400 . S
C765 C766 1.398 . S
C766 H754 0.950 . S
C766 C765 1.398 . S
C766 C767 1.391 . S
C767 H755 0.950 . S
C767 C763 1.393 . S
C767 C766 1.391 . S
H768 C776 0.950 . S
H769 C781 0.950 . S
H770 C778 0.950 1_554 S
H771 C780 0.950 1_455 S
H772 C782 0.950 . S
H773 C784 0.950 1_556 S
H774 C786 0.950 1_655 S
H775 C787 0.950 . S
C776 H768 0.950 . S
C776 C777 1.386 . S
C776 C778 1.391 . S
C777 C776 1.386 . S
C777 C781 1.393 . S
C778 H770 0.950 1_556 S
C778 C776 1.391 . S
C778 C779 1.400 . S
C779 C778 1.400 . S
C779 C780 1.398 . S
C779 C785 1.491 1_656 S
C780 H771 0.950 1_655 S
C780 C779 1.398 . S
C780 C781 1.391 . S
C781 H769 0.950 . S
C781 C777 1.393 . S
C781 C780 1.391 . S
C782 H772 0.950 . S
C782 C783 1.386 . S
C782 C784 1.391 . S
C783 C782 1.386 . S
C783 C787 1.393 . S
C784 H773 0.950 1_554 S
C784 C782 1.391 . S
C784 C785 1.400 . S
C785 C779 1.491 1_454 S
C785 C784 1.400 . S
C785 C786 1.398 . S
C786 H774 0.950 1_455 S
C786 C785 1.398 . S
C786 C787 1.391 . S
C787 H775 0.950 . S
C787 C783 1.393 . S
C787 C786 1.391 . S
H788 C796 0.933 1_545 S
H789 C801 0.950 . S
H790 C798 0.950 . S
H791 C800 0.950 1_554 S
H792 C802 0.937 1_565 S
H793 C804 0.950 . S
H794 C806 0.950 1_556 S
H795 C807 0.950 . S
C796 H788 0.933 1_565 S
C796 C797 1.386 . S
C796 C798 1.391 1_565 S
C797 C796 1.386 . S
C797 C801 1.393 . S
C798 H790 0.950 . S
C798 C796 1.391 1_545 S
C798 C799 1.400 1_545 S
C799 C798 1.400 1_565 S
C799 C800 1.398 . S
C799 C805 1.491 1_466 S
C800 H791 0.950 1_556 S
C800 C799 1.398 . S
C800 C801 1.391 . S
C801 H789 0.950 . S
C801 C797 1.393 . S
C801 C800 1.391 . S
C802 H792 0.937 1_545 S
C802 C803 1.386 . S
C802 C804 1.391 1_545 S
C803 C802 1.386 . S
C803 C807 1.393 . S
C804 H793 0.950 . S
C804 C802 1.391 1_565 S
C804 C805 1.400 1_565 S
C805 C799 1.491 1_644 S
C805 C804 1.400 1_545 S
C805 C806 1.398 . S
C806 H794 0.950 1_554 S
C806 C805 1.398 . S
C806 C807 1.391 . S
C807 H795 0.950 . S
C807 C803 1.393 . S
C807 C806 1.391 . S
H808 C816 0.950 . S
H809 C821 0.950 . S
H810 C818 0.950 . S
H811 C820 0.935 1_554 S
H812 C822 0.950 . S
H813 C824 0.950 . S
H814 C826 0.935 1_556 S
H815 C827 0.950 . S
C816 H808 0.950 . S
C816 C817 1.386 . S
C816 C818 1.391 1_545 S
C817 C816 1.386 . S
C817 C821 1.393 . S
C818 H810 0.950 . S
C818 C816 1.391 1_565 S
C818 C819 1.400 1_565 S
C819 C818 1.400 1_545 S
C819 C820 1.398 . S
C819 C825 1.491 1_546 S
C820 H811 0.935 1_556 S
C820 C819 1.398 . S
C820 C821 1.391 . S
C821 H809 0.950 . S
C821 C817 1.393 . S
C821 C820 1.391 . S
C822 H812 0.950 . S
C822 C823 1.386 . S
C822 C824 1.391 1_565 S
C823 C822 1.386 . S
C823 C827 1.393 . S
C824 H813 0.950 . S
C824 C822 1.391 1_545 S
C824 C825 1.400 1_545 S
C825 C819 1.491 1_564 S
C825 C824 1.400 1_565 S
C825 C826 1.398 . S
C826 H814 0.935 1_554 S
C826 C825 1.398 . S
C826 C827 1.391 . S
C827 H815 0.950 . S
C827 C823 1.393 . S
C827 C826 1.391 . S
H828 C836 0.950 . S
H829 C841 0.950 . S
H830 C838 0.950 . S
H831 C840 0.950 . S
H832 C842 0.950 . S
H833 C844 0.950 . S
H834 C846 0.950 . S
H835 C847 0.950 . S
C836 H828 0.950 . S
C836 C837 1.386 . S
C836 C838 1.391 . S
C837 C836 1.386 . S
C837 C841 1.393 . S
C838 H830 0.950 . S
C838 C836 1.391 . S
C838 C839 1.400 . S
C839 C838 1.400 . S
C839 C840 1.398 . S
C839 C845 1.491 1_556 S
C840 H831 0.950 . S
C840 C839 1.398 . S
C840 C841 1.391 . S
C841 H829 0.950 . S
C841 C837 1.393 . S
C841 C840 1.391 . S
C842 H832 0.950 . S
C842 C843 1.386 . S
C842 C844 1.391 . S
C843 C842 1.386 . S
C843 C847 1.393 . S
C844 H833 0.950 . S
C844 C842 1.391 . S
C844 C845 1.400 . S
C845 C839 1.491 1_554 S
C845 C844 1.400 . S
C845 C846 1.398 . S
C846 H834 0.950 . S
C846 C845 1.398 . S
C846 C847 1.391 . S
C847 H835 0.950 . S
C847 C843 1.393 . S
C847 C846 1.391 . S
H848 C856 0.950 . S
H849 C861 0.950 . S
H850 C858 0.950 . S
H851 C860 0.950 . S
H852 C862 0.950 . S
H853 C864 0.950 . S
H854 C866 0.950 . S
H855 C867 0.950 . S
C856 H848 0.950 . S
C856 C857 1.386 . S
C856 C858 1.391 . S
C857 C856 1.386 . S
C857 C861 1.393 . S
C858 H850 0.950 . S
C858 C856 1.391 . S
C858 C859 1.400 . S
C859 C858 1.400 . S
C859 C860 1.398 . S
C859 C865 1.491 . S
C860 H851 0.950 . S
C860 C859 1.398 . S
C860 C861 1.391 . S
C861 H849 0.950 . S
C861 C857 1.393 . S
C861 C860 1.391 . S
C862 H852 0.950 . S
C862 C863 1.386 . S
C862 C864 1.391 . S
C863 C862 1.386 . S
C863 C867 1.393 . S
C864 H853 0.950 . S
C864 C862 1.391 . S
C864 C865 1.400 . S
C865 C859 1.491 . S
C865 C864 1.400 . S
C865 C866 1.398 . S
C866 H854 0.950 . S
C866 C865 1.398 . S
C866 C867 1.391 . S
C867 H855 0.950 . S
C867 C863 1.393 . S
C867 C866 1.391 . S
H868 C876 0.950 . S
H869 C881 0.950 . S
H870 C878 0.950 . S
H871 C880 0.950 . S
H872 C882 0.950 . S
H873 C884 0.950 . S
H874 C886 0.950 . S
H875 C887 0.950 . S
C876 H868 0.950 . S
C876 C877 1.386 . S
C876 C878 1.391 . S
C877 C876 1.386 . S
C877 C881 1.393 . S
C878 H870 0.950 . S
C878 C876 1.391 . S
C878 C879 1.400 . S
C879 C878 1.400 . S
C879 C880 1.398 . S
C879 C885 1.491 . S
C880 H871 0.950 . S
C880 C879 1.398 . S
C880 C881 1.391 . S
C881 H869 0.950 . S
C881 C877 1.393 . S
C881 C880 1.391 . S
C882 H872 0.950 . S
C882 C883 1.386 . S
C882 C884 1.391 . S
C883 C882 1.386 . S
C883 C887 1.393 . S
C884 H873 0.950 . S
C884 C882 1.391 . S
C884 C885 1.400 . S
C885 C879 1.491 . S
C885 C884 1.400 . S
C885 C886 1.398 . S
C886 H874 0.950 . S
C886 C885 1.398 . S
C886 C887 1.391 . S
C887 H875 0.950 . S
C887 C883 1.393 . S
C887 C886 1.391 . S
H888 C896 0.950 . S
H889 C901 0.950 . S
H890 C898 0.950 . S
H891 C900 0.950 . S
H892 C902 0.950 . S
H893 C904 0.950 . S
H894 C906 0.950 . S
H895 C907 0.950 . S
C896 H888 0.950 . S
C896 C897 1.386 . S
C896 C898 1.391 . S
C897 C896 1.386 . S
C897 C901 1.393 . S
C898 H890 0.950 . S
C898 C896 1.391 . S
C898 C899 1.400 . S
C899 C898 1.400 . S
C899 C900 1.398 . S
C899 C905 1.491 . S
C900 H891 0.950 . S
C900 C899 1.398 . S
C900 C901 1.391 . S
C901 H889 0.950 . S
C901 C897 1.393 . S
C901 C900 1.391 . S
C902 H892 0.950 . S
C902 C903 1.386 . S
C902 C904 1.391 . S
C903 C902 1.386 . S
C903 C907 1.393 . S
C904 H893 0.950 . S
C904 C902 1.391 . S
C904 C905 1.400 . S
C905 C899 1.491 . S
C905 C904 1.400 . S
C905 C906 1.398 . S
C906 H894 0.950 . S
C906 C905 1.398 . S
C906 C907 1.391 . S
C907 H895 0.950 . S
C907 C903 1.393 . S
C907 C906 1.391 . S
H908 C916 0.950 . S
H909 C921 0.950 . S
H910 C918 0.950 . S
H911 C920 0.950 . S
H912 C922 0.950 . S
H913 C924 0.950 . S
H914 C926 0.950 . S
H915 C927 0.950 . S
C916 H908 0.950 . S
C916 C917 1.386 . S
C916 C918 1.391 . S
C917 C916 1.386 . S
C917 C921 1.393 . S
C918 H910 0.950 . S
C918 C916 1.391 . S
C918 C919 1.400 . S
C919 C918 1.400 . S
C919 C920 1.398 . S
C919 C925 1.491 . S
C920 H911 0.950 . S
C920 C919 1.398 . S
C920 C921 1.391 . S
C921 H909 0.950 . S
C921 C917 1.393 . S
C921 C920 1.391 . S
C922 H912 0.950 . S
C922 C923 1.386 . S
C922 C924 1.391 . S
C923 C922 1.386 . S
C923 C927 1.393 . S
C924 H913 0.950 . S
C924 C922 1.391 . S
C924 C925 1.400 . S
C925 C919 1.491 . S
C925 C924 1.400 . S
C925 C926 1.398 . S
C926 H914 0.950 . S
C926 C925 1.398 . S
C926 C927 1.391 . S
C927 H915 0.950 . S
C927 C923 1.393 . S
C927 C926 1.391 . S
H928 C936 0.950 . S
H929 C941 0.950 . S
H930 C938 0.950 . S
H931 C940 0.950 . S
H932 C942 0.950 . S
H933 C944 0.950 . S
H934 C946 0.950 . S
H935 C947 0.950 . S
C936 H928 0.950 . S
C936 C937 1.386 . S
C936 C938 1.391 . S
C937 C936 1.386 . S
C937 C941 1.393 . S
C938 H930 0.950 . S
C938 C936 1.391 . S
C938 C939 1.400 . S
C939 C938 1.400 . S
C939 C940 1.398 . S
C939 C945 1.491 . S
C940 H931 0.950 . S
C940 C939 1.398 . S
C940 C941 1.391 . S
C941 H929 0.950 . S
C941 C937 1.393 . S
C941 C940 1.391 . S
C942 H932 0.950 . S
C942 C943 1.386 . S
C942 C944 1.391 . S
C943 C942 1.386 . S
C943 C947 1.393 . S
C944 H933 0.950 . S
C944 C942 1.391 . S
C944 C945 1.400 . S
C945 C939 1.491 . S
C945 C944 1.400 . S
C945 C946 1.398 . S
C946 H934 0.950 . S
C946 C945 1.398 . S
C946 C947 1.391 . S
C947 H935 0.950 . S
C947 C943 1.393 . S
C947 C946 1.391 . S
H948 C956 0.950 . S
H949 C961 0.950 . S
H950 C958 0.950 . S
H951 C960 0.950 . S
H952 C962 0.950 . S
H953 C964 0.950 . S
H954 C966 0.950 . S
H955 C967 0.950 . S
C956 H948 0.950 . S
C956 C957 1.386 . S
C956 C958 1.391 . S
C957 C956 1.386 . S
C957 C961 1.393 . S
C958 H950 0.950 . S
C958 C956 1.391 . S
C958 C959 1.400 . S
C959 C958 1.400 . S
C959 C960 1.398 . S
C959 C965 1.491 . S
C960 H951 0.950 . S
C960 C959 1.398 . S
C960 C961 1.391 . S
C961 H949 0.950 . S
C961 C957 1.393 . S
C961 C960 1.391 . S
C962 H952 0.950 . S
C962 C963 1.386 . S
C962 C964 1.391 . S
C963 C962 1.386 . S
C963 C967 1.393 . S
C964 H953 0.950 . S
C964 C962 1.391 . S
C964 C965 1.400 . S
C965 C959 1.491 . S
C965 C964 1.400 . S
C965 C966 1.398 . S
C966 H954 0.950 . S
C966 C965 1.398 . S
C966 C967 1.391 . S
C967 H955 0.950 . S
C967 C963 1.393 . S
C967 C966 1.391 . S
H968 C976 0.950 . S
H969 C981 0.950 . S
H970 C978 0.950 . S
H971 C980 0.950 . S
H972 C982 0.950 . S
H973 C984 0.950 . S
H974 C986 0.950 . S
H975 C987 0.950 . S
C976 H968 0.950 . S
C976 C977 1.386 . S
C976 C978 1.391 . S
C977 C976 1.386 . S
C977 C981 1.393 . S
C978 H970 0.950 . S
C978 C976 1.391 . S
C978 C979 1.400 . S
C979 C978 1.400 . S
C979 C980 1.398 . S
C979 C985 1.491 . S
C980 H971 0.950 . S
C980 C979 1.398 . S
C980 C981 1.391 . S
C981 H969 0.950 . S
C981 C977 1.393 . S
C981 C980 1.391 . S
C982 H972 0.950 . S
C982 C983 1.386 . S
C982 C984 1.391 . S
C983 C982 1.386 . S
C983 C987 1.393 . S
C984 H973 0.950 . S
C984 C982 1.391 . S
C984 C985 1.400 . S
C985 C979 1.491 . S
C985 C984 1.400 . S
C985 C986 1.398 . S
C986 H974 0.950 . S
C986 C985 1.398 . S
C986 C987 1.391 . S
C987 H975 0.950 . S
C987 C983 1.393 . S
C987 C986 1.391 . S
H988 C996 0.950 . S
H989 C1001 0.950 . S
H990 C998 0.950 . S
H991 C1000 0.950 . S
H992 C1002 0.950 . S
H993 C1004 0.950 . S
H994 C1006 0.950 . S
H995 C1007 0.950 . S
C996 H988 0.950 . S
C996 C997 1.386 . S
C996 C998 1.391 . S
C997 C996 1.386 . S
C997 C1001 1.393 . S
C998 H990 0.950 . S
C998 C996 1.391 . S
C998 C999 1.400 . S
C999 C998 1.400 . S
C999 C1000 1.398 . S
C999 C1005 1.491 . S
C1000 H991 0.950 . S
C1000 C999 1.398 . S
C1000 C1001 1.391 . S
C1001 H989 0.950 . S
C1001 C997 1.393 . S
C1001 C1000 1.391 . S
C1002 H992 0.950 . S
C1002 C1003 1.386 . S
C1002 C1004 1.391 . S
C1003 C1002 1.386 . S
C1003 C1007 1.393 . S
C1004 H993 0.950 . S
C1004 C1002 1.391 . S
C1004 C1005 1.400 . S
C1005 C999 1.491 . S
C1005 C1004 1.400 . S
C1005 C1006 1.398 . S
C1006 H994 0.950 . S
C1006 C1005 1.398 . S
C1006 C1007 1.391 . S
C1007 H995 0.950 . S
C1007 C1003 1.393 . S
C1007 C1006 1.391 . S
H1008 C1016 0.950 . S
H1009 C1021 0.950 . S
H1010 C1018 0.950 . S
H1011 C1020 0.950 . S
H1012 C1022 0.950 . S
H1013 C1024 0.950 . S
H1014 C1026 0.950 . S
H1015 C1027 0.950 . S
C1016 H1008 0.950 . S
C1016 C1017 1.386 . S
C1016 C1018 1.391 . S
C1017 C1016 1.386 . S
C1017 C1021 1.393 . S
C1018 H1010 0.950 . S
C1018 C1016 1.391 . S
C1018 C1019 1.400 . S
C1019 C1018 1.400 . S
C1019 C1020 1.398 . S
C1019 C1025 1.491 . S
C1020 H1011 0.950 . S
C1020 C1019 1.398 . S
C1020 C1021 1.391 . S
C1021 H1009 0.950 . S
C1021 C1017 1.393 . S
C1021 C1020 1.391 . S
C1022 H1012 0.950 . S
C1022 C1023 1.386 . S
C1022 C1024 1.391 . S
C1023 C1022 1.386 . S
C1023 C1027 1.393 . S
C1024 H1013 0.950 . S
C1024 C1022 1.391 . S
C1024 C1025 1.400 . S
C1025 C1019 1.491 . S
C1025 C1024 1.400 . S
C1025 C1026 1.398 . S
C1026 H1014 0.950 . S
C1026 C1025 1.398 . S
C1026 C1027 1.391 . S
C1027 H1015 0.950 . S
C1027 C1023 1.393 . S
C1027 C1026 1.391 . S
H1028 C1036 0.950 . S
H1029 C1041 0.950 . S
H1030 C1038 0.950 . S
H1031 C1040 0.950 . S
H1032 C1042 0.950 . S
H1033 C1044 0.950 . S
H1034 C1046 0.950 . S
H1035 C1047 0.950 . S
C1036 H1028 0.950 . S
C1036 C1037 1.386 . S
C1036 C1038 1.391 . S
C1037 C1036 1.386 . S
C1037 C1041 1.393 . S
C1038 H1030 0.950 . S
C1038 C1036 1.391 . S
C1038 C1039 1.400 . S
C1039 C1038 1.400 . S
C1039 C1040 1.398 . S
C1039 C1045 1.491 . S
C1040 H1031 0.950 . S
C1040 C1039 1.398 . S
C1040 C1041 1.391 . S
C1041 H1029 0.950 . S
C1041 C1037 1.393 . S
C1041 C1040 1.391 . S
C1042 H1032 0.950 . S
C1042 C1043 1.386 . S
C1042 C1044 1.391 . S
C1043 C1042 1.386 . S
C1043 C1047 1.393 . S
C1044 H1033 0.950 . S
C1044 C1042 1.391 . S
C1044 C1045 1.400 . S
C1045 C1039 1.491 . S
C1045 C1044 1.400 . S
C1045 C1046 1.398 . S
C1046 H1034 0.950 . S
C1046 C1045 1.398 . S
C1046 C1047 1.391 . S
C1047 H1035 0.950 . S
C1047 C1043 1.393 . S
C1047 C1046 1.391 . S
H1048 C1056 0.950 . S
H1049 C1061 0.950 . S
H1050 C1058 0.950 . S
H1051 C1060 0.950 . S
H1052 C1062 0.950 . S
H1053 C1064 0.950 . S
H1054 C1066 0.950 . S
H1055 C1067 0.950 . S
C1056 H1048 0.950 . S
C1056 C1057 1.386 . S
C1056 C1058 1.391 . S
C1057 C1056 1.386 . S
C1057 C1061 1.393 . S
C1058 H1050 0.950 . S
C1058 C1056 1.391 . S
C1058 C1059 1.400 . S
C1059 C1058 1.400 . S
C1059 C1060 1.398 . S
C1059 C1065 1.491 . S
C1060 H1051 0.950 . S
C1060 C1059 1.398 . S
C1060 C1061 1.391 . S
C1061 H1049 0.950 . S
C1061 C1057 1.393 . S
C1061 C1060 1.391 . S
C1062 H1052 0.950 . S
C1062 C1063 1.386 . S
C1062 C1064 1.391 . S
C1063 C1062 1.386 . S
C1063 C1067 1.393 . S
C1064 H1053 0.950 . S
C1064 C1062 1.391 . S
C1064 C1065 1.400 . S
C1065 C1059 1.491 . S
C1065 C1064 1.400 . S
C1065 C1066 1.398 . S
C1066 H1054 0.950 . S
C1066 C1065 1.398 . S
C1066 C1067 1.391 . S
C1067 H1055 0.950 . S
C1067 C1063 1.393 . S
C1067 C1066 1.391 . S
H1068 C1076 0.950 . S
H1069 C1081 0.950 . S
H1070 C1078 0.950 . S
H1071 C1080 0.950 . S
H1072 C1082 0.950 . S
H1073 C1084 0.950 . S
H1074 C1086 0.950 . S
H1075 C1087 0.950 . S
C1076 H1068 0.950 . S
C1076 C1077 1.386 . S
C1076 C1078 1.391 . S
C1077 C1076 1.386 . S
C1077 C1081 1.393 . S
C1078 H1070 0.950 . S
C1078 C1076 1.391 . S
C1078 C1079 1.400 . S
C1079 C1078 1.400 . S
C1079 C1080 1.398 . S
C1079 C1085 1.491 . S
C1080 H1071 0.950 . S
C1080 C1079 1.398 . S
C1080 C1081 1.391 . S
C1081 H1069 0.950 . S
C1081 C1077 1.393 . S
C1081 C1080 1.391 . S
C1082 H1072 0.950 . S
C1082 C1083 1.386 . S
C1082 C1084 1.391 . S
C1083 C1082 1.386 . S
C1083 C1087 1.393 . S
C1084 H1073 0.950 . S
C1084 C1082 1.391 . S
C1084 C1085 1.400 . S
C1085 C1079 1.491 . S
C1085 C1084 1.400 . S
C1085 C1086 1.398 . S
C1086 H1074 0.950 . S
C1086 C1085 1.398 . S
C1086 C1087 1.391 . S
C1087 H1075 0.950 . S
C1087 C1083 1.393 . S
C1087 C1086 1.391 . S
H1088 C1096 0.950 . S
H1089 C1101 0.950 . S
H1090 C1098 0.950 . S
H1091 C1100 0.950 . S
H1092 C1102 0.950 . S
H1093 C1104 0.950 . S
H1094 C1106 0.950 . S
H1095 C1107 0.950 . S
C1096 H1088 0.950 . S
C1096 C1097 1.386 . S
C1096 C1098 1.391 . S
C1097 C1096 1.386 . S
C1097 C1101 1.393 . S
C1098 H1090 0.950 . S
C1098 C1096 1.391 . S
C1098 C1099 1.400 . S
C1099 C1098 1.400 . S
C1099 C1100 1.398 . S
C1099 C1105 1.491 . S
C1100 H1091 0.950 . S
C1100 C1099 1.398 . S
C1100 C1101 1.391 . S
C1101 H1089 0.950 . S
C1101 C1097 1.393 . S
C1101 C1100 1.391 . S
C1102 H1092 0.950 . S
C1102 C1103 1.386 . S
C1102 C1104 1.391 . S
C1103 C1102 1.386 . S
C1103 C1107 1.393 . S
C1104 H1093 0.950 . S
C1104 C1102 1.391 . S
C1104 C1105 1.400 . S
C1105 C1099 1.491 . S
C1105 C1104 1.400 . S
C1105 C1106 1.398 . S
C1106 H1094 0.950 . S
C1106 C1105 1.398 . S
C1106 C1107 1.391 . S
C1107 H1095 0.950 . S
C1107 C1103 1.393 . S
C1107 C1106 1.391 . S
H1108 C1116 0.950 . S
H1109 C1121 0.950 . S
H1110 C1118 0.950 . S
H1111 C1120 0.950 . S
H1112 C1122 0.950 . S
H1113 C1124 0.950 . S
H1114 C1126 0.950 . S
H1115 C1127 0.950 . S
C1116 H1108 0.950 . S
C1116 C1117 1.386 . S
C1116 C1118 1.391 . S
C1117 C1116 1.386 . S
C1117 C1121 1.393 . S
C1118 H1110 0.950 . S
C1118 C1116 1.391 . S
C1118 C1119 1.400 . S
C1119 C1118 1.400 . S
C1119 C1120 1.398 . S
C1119 C1125 1.491 . S
C1120 H1111 0.950 . S
C1120 C1119 1.398 . S
C1120 C1121 1.391 . S
C1121 H1109 0.950 . S
C1121 C1117 1.393 . S
C1121 C1120 1.391 . S
C1122 H1112 0.950 . S
C1122 C1123 1.386 . S
C1122 C1124 1.391 . S
C1123 C1122 1.386 . S
C1123 C1127 1.393 . S
C1124 H1113 0.950 . S
C1124 C1122 1.391 . S
C1124 C1125 1.400 . S
C1125 C1119 1.491 . S
C1125 C1124 1.400 . S
C1125 C1126 1.398 . S
C1126 H1114 0.950 . S
C1126 C1125 1.398 . S
C1126 C1127 1.391 . S
C1127 H1115 0.950 . S
C1127 C1123 1.393 . S
C1127 C1126 1.391 . S
H1128 C1136 0.950 . S
H1129 C1141 0.950 . S
H1130 C1138 0.950 . S
H1131 C1140 0.950 . S
H1132 C1142 0.950 . S
H1133 C1144 0.950 . S
H1134 C1146 0.950 1_565 S
H1135 C1147 0.950 1_565 S
C1136 H1128 0.950 . S
C1136 C1137 1.386 . S
C1136 C1138 1.391 . S
C1137 C1136 1.386 . S
C1137 C1141 1.393 . S
C1138 H1130 0.950 . S
C1138 C1136 1.391 . S
C1138 C1139 1.400 . S
C1139 C1138 1.400 . S
C1139 C1140 1.398 . S
C1139 C1145 1.491 . S
C1140 H1131 0.950 . S
C1140 C1139 1.398 . S
C1140 C1141 1.391 . S
C1141 H1129 0.950 . S
C1141 C1137 1.393 . S
C1141 C1140 1.391 . S
C1142 H1132 0.950 . S
C1142 C1143 1.386 . S
C1142 C1144 1.391 . S
C1143 C1142 1.386 . S
C1143 C1147 1.393 . S
C1144 H1133 0.950 . S
C1144 C1142 1.391 . S
C1144 C1145 1.400 . S
C1145 C1139 1.491 . S
C1145 C1144 1.400 . S
C1145 C1146 1.398 . S
C1146 H1134 0.950 1_545 S
C1146 C1145 1.398 . S
C1146 C1147 1.391 . S
C1147 H1135 0.950 1_545 S
C1147 C1143 1.393 . S
C1147 C1146 1.391 . S
H1148 C1156 0.950 . S
H1149 C1161 0.950 . S
H1150 C1158 0.950 . S
H1151 C1160 0.950 . S
H1152 C1162 0.950 . S
H1153 C1164 0.950 . S
H1154 C1166 0.950 . S
H1155 C1167 0.950 . S
C1156 H1148 0.950 . S
C1156 C1157 1.386 . S
C1156 C1158 1.391 . S
C1157 C1156 1.386 . S
C1157 C1161 1.393 . S
C1158 H1150 0.950 . S
C1158 C1156 1.391 . S
C1158 C1159 1.400 . S
C1159 C1158 1.400 . S
C1159 C1160 1.398 . S
C1159 C1165 1.491 . S
C1160 H1151 0.950 . S
C1160 C1159 1.398 . S
C1160 C1161 1.391 . S
C1161 H1149 0.950 . S
C1161 C1157 1.393 . S
C1161 C1160 1.391 . S
C1162 H1152 0.950 . S
C1162 C1163 1.386 . S
C1162 C1164 1.391 . S
C1163 C1162 1.386 . S
C1163 C1167 1.393 . S
C1164 H1153 0.950 . S
C1164 C1162 1.391 . S
C1164 C1165 1.400 . S
C1165 C1159 1.491 . S
C1165 C1164 1.400 . S
C1165 C1166 1.398 . S
C1166 H1154 0.950 . S
C1166 C1165 1.398 . S
C1166 C1167 1.391 . S
C1167 H1155 0.950 . S
C1167 C1163 1.393 . S
C1167 C1166 1.391 . S
H1168 C1176 0.950 . S
H1169 C1181 0.950 . S
H1170 C1178 0.950 . S
H1171 C1180 0.950 . S
H1172 C1182 0.950 . S
H1173 C1184 0.950 . S
H1174 C1186 0.950 . S
H1175 C1187 0.950 1_545 S
C1176 H1168 0.950 . S
C1176 C1177 1.386 . S
C1176 C1178 1.391 . S
C1177 C1176 1.386 . S
C1177 C1181 1.393 . S
C1178 H1170 0.950 . S
C1178 C1176 1.391 . S
C1178 C1179 1.400 . S
C1179 C1178 1.400 . S
C1179 C1180 1.398 . S
C1179 C1185 1.491 . S
C1180 H1171 0.950 . S
C1180 C1179 1.398 . S
C1180 C1181 1.391 . S
C1181 H1169 0.950 . S
C1181 C1177 1.393 . S
C1181 C1180 1.391 . S
C1182 H1172 0.950 . S
C1182 C1183 1.386 . S
C1182 C1184 1.391 . S
C1183 C1182 1.386 . S
C1183 C1187 1.393 . S
C1184 H1173 0.950 . S
C1184 C1182 1.391 . S
C1184 C1185 1.400 . S
C1185 C1179 1.491 . S
C1185 C1184 1.400 . S
C1185 C1186 1.398 . S
C1186 H1174 0.950 . S
C1186 C1185 1.398 . S
C1186 C1187 1.391 . S
C1187 H1175 0.950 1_565 S
C1187 C1183 1.393 . S
C1187 C1186 1.391 . S
H1188 C1196 0.950 . S
H1189 C1201 0.950 . S
H1190 C1198 0.950 . S
H1191 C1200 0.950 . S
H1192 C1202 0.950 . S
H1193 C1204 0.950 . S
H1194 C1206 0.950 . S
H1195 C1207 0.950 . S
C1196 H1188 0.950 . S
C1196 C1197 1.386 . S
C1196 C1198 1.391 . S
C1197 C1196 1.386 . S
C1197 C1201 1.393 . S
C1198 H1190 0.950 . S
C1198 C1196 1.391 . S
C1198 C1199 1.400 . S
C1199 C1198 1.400 . S
C1199 C1200 1.398 . S
C1199 C1205 1.491 . S
C1200 H1191 0.950 . S
C1200 C1199 1.398 . S
C1200 C1201 1.391 . S
C1201 H1189 0.950 . S
C1201 C1197 1.393 . S
C1201 C1200 1.391 . S
C1202 H1192 0.950 . S
C1202 C1203 1.386 . S
C1202 C1204 1.391 . S
C1203 C1202 1.386 . S
C1203 C1207 1.393 . S
C1204 H1193 0.950 . S
C1204 C1202 1.391 . S
C1204 C1205 1.400 . S
C1205 C1199 1.491 . S
C1205 C1204 1.400 . S
C1205 C1206 1.398 . S
C1206 H1194 0.950 . S
C1206 C1205 1.398 . S
C1206 C1207 1.391 . S
C1207 H1195 0.950 . S
C1207 C1203 1.393 . S
C1207 C1206 1.391 . S
H1208 C1216 0.950 . S
H1209 C1221 0.950 . S
H1210 C1218 0.950 . S
H1211 C1220 0.950 . S
H1212 C1222 0.950 . S
H1213 C1224 0.950 . S
H1214 C1226 0.950 . S
H1215 C1227 0.950 . S
C1216 H1208 0.950 . S
C1216 C1217 1.386 . S
C1216 C1218 1.391 . S
C1217 C1216 1.386 . S
C1217 C1221 1.393 . S
C1218 H1210 0.950 . S
C1218 C1216 1.391 . S
C1218 C1219 1.400 . S
C1219 C1218 1.400 . S
C1219 C1220 1.398 . S
C1219 C1225 1.491 . S
C1220 H1211 0.950 . S
C1220 C1219 1.398 . S
C1220 C1221 1.391 . S
C1221 H1209 0.950 . S
C1221 C1217 1.393 . S
C1221 C1220 1.391 . S
C1222 H1212 0.950 . S
C1222 C1223 1.386 . S
C1222 C1224 1.391 . S
C1223 C1222 1.386 . S
C1223 C1227 1.393 . S
C1224 H1213 0.950 . S
C1224 C1222 1.391 . S
C1224 C1225 1.400 . S
C1225 C1219 1.491 . S
C1225 C1224 1.400 . S
C1225 C1226 1.398 . S
C1226 H1214 0.950 . S
C1226 C1225 1.398 . S
C1226 C1227 1.391 . S
C1227 H1215 0.950 . S
C1227 C1223 1.393 . S
C1227 C1226 1.391 . S
H1228 C1236 0.950 . S
H1229 C1241 0.950 . S
H1230 C1238 0.950 . S
H1231 C1240 0.950 . S
H1232 C1242 0.950 . S
H1233 C1244 0.950 . S
H1234 C1246 0.950 . S
H1235 C1247 0.950 . S
C1236 H1228 0.950 . S
C1236 C1237 1.386 . S
C1236 C1238 1.391 . S
C1237 C1236 1.386 . S
C1237 C1241 1.393 . S
C1238 H1230 0.950 . S
C1238 C1236 1.391 . S
C1238 C1239 1.400 . S
C1239 C1238 1.400 . S
C1239 C1240 1.398 . S
C1239 C1245 1.491 . S
C1240 H1231 0.950 . S
C1240 C1239 1.398 . S
C1240 C1241 1.391 . S
C1241 H1229 0.950 . S
C1241 C1237 1.393 . S
C1241 C1240 1.391 . S
C1242 H1232 0.950 . S
C1242 C1243 1.386 . S
C1242 C1244 1.391 . S
C1243 C1242 1.386 . S
C1243 C1247 1.393 . S
C1244 H1233 0.950 . S
C1244 C1242 1.391 . S
C1244 C1245 1.400 . S
C1245 C1239 1.491 . S
C1245 C1244 1.400 . S
C1245 C1246 1.398 . S
C1246 H1234 0.950 . S
C1246 C1245 1.398 . S
C1246 C1247 1.391 . S
C1247 H1235 0.950 . S
C1247 C1243 1.393 . S
C1247 C1246 1.391 . S
H1248 C1256 0.950 . S
H1249 C1261 0.950 . S
H1250 C1258 0.950 . S
H1251 C1260 0.950 . S
H1252 C1262 0.950 . S
H1253 C1264 0.950 . S
H1254 C1266 0.950 . S
H1255 C1267 0.950 . S
C1256 H1248 0.950 . S
C1256 C1257 1.386 . S
C1256 C1258 1.391 . S
C1257 C1256 1.386 . S
C1257 C1261 1.393 . S
C1258 H1250 0.950 . S
C1258 C1256 1.391 . S
C1258 C1259 1.400 . S
C1259 C1258 1.400 . S
C1259 C1260 1.398 . S
C1259 C1265 1.491 . S
C1260 H1251 0.950 . S
C1260 C1259 1.398 . S
C1260 C1261 1.391 . S
C1261 H1249 0.950 . S
C1261 C1257 1.393 . S
C1261 C1260 1.391 . S
C1262 H1252 0.950 . S
C1262 C1263 1.386 . S
C1262 C1264 1.391 . S
C1263 C1262 1.386 . S
C1263 C1267 1.393 . S
C1264 H1253 0.950 . S
C1264 C1262 1.391 . S
C1264 C1265 1.400 . S
C1265 C1259 1.491 . S
C1265 C1264 1.400 . S
C1265 C1266 1.398 . S
C1266 H1254 0.950 . S
C1266 C1265 1.398 . S
C1266 C1267 1.391 . S
C1267 H1255 0.950 . S
C1267 C1263 1.393 . S
C1267 C1266 1.391 . S
H1268 C1276 0.950 . S
H1269 C1281 0.950 . S
H1270 C1278 0.950 . S
H1271 C1280 0.950 . S
H1272 C1282 0.950 . S
H1273 C1284 0.950 . S
H1274 C1286 0.950 . S
H1275 C1287 0.950 . S
C1276 H1268 0.950 . S
C1276 C1277 1.386 . S
C1276 C1278 1.391 . S
C1277 C1276 1.386 . S
C1277 C1281 1.393 . S
C1278 H1270 0.950 . S
C1278 C1276 1.391 . S
C1278 C1279 1.400 . S
C1279 C1278 1.400 . S
C1279 C1280 1.398 . S
C1279 C1285 1.491 . S
C1280 H1271 0.950 . S
C1280 C1279 1.398 . S
C1280 C1281 1.391 . S
C1281 H1269 0.950 . S
C1281 C1277 1.393 . S
C1281 C1280 1.391 . S
C1282 H1272 0.950 . S
C1282 C1283 1.386 . S
C1282 C1284 1.391 . S
C1283 C1282 1.386 . S
C1283 C1287 1.393 . S
C1284 H1273 0.950 . S
C1284 C1282 1.391 . S
C1284 C1285 1.400 . S
C1285 C1279 1.491 . S
C1285 C1284 1.400 . S
C1285 C1286 1.398 . S
C1286 H1274 0.950 . S
C1286 C1285 1.398 . S
C1286 C1287 1.391 . S
C1287 H1275 0.950 . S
C1287 C1283 1.393 . S
C1287 C1286 1.391 . S
H1288 C1296 0.950 1_545 S
H1289 C1301 0.950 . S
H1290 C1298 0.950 1_545 S
H1291 C1300 0.950 . S
H1292 C1302 0.950 . S
H1293 C1304 0.950 . S
H1294 C1306 0.950 . S
H1295 C1307 0.950 . S
C1296 H1288 0.950 1_565 S
C1296 C1297 1.386 . S
C1296 C1298 1.391 . S
C1297 C1296 1.386 . S
C1297 C1301 1.393 . S
C1298 H1290 0.950 1_565 S
C1298 C1296 1.391 . S
C1298 C1299 1.400 . S
C1299 C1298 1.400 . S
C1299 C1300 1.398 . S
C1299 C1305 1.491 . S
C1300 H1291 0.950 . S
C1300 C1299 1.398 . S
C1300 C1301 1.391 . S
C1301 H1289 0.950 . S
C1301 C1297 1.393 . S
C1301 C1300 1.391 . S
C1302 H1292 0.950 . S
C1302 C1303 1.386 . S
C1302 C1304 1.391 . S
C1303 C1302 1.386 . S
C1303 C1307 1.393 . S
C1304 H1293 0.950 . S
C1304 C1302 1.391 . S
C1304 C1305 1.400 . S
C1305 C1299 1.491 . S
C1305 C1304 1.400 . S
C1305 C1306 1.398 . S
C1306 H1294 0.950 . S
C1306 C1305 1.398 . S
C1306 C1307 1.391 . S
C1307 H1295 0.950 . S
C1307 C1303 1.393 . S
C1307 C1306 1.391 . S
H1308 C1316 0.950 . S
H1309 C1321 0.950 . S
H1310 C1318 0.950 . S
H1311 C1320 0.950 . S
H1312 C1322 0.950 . S
H1313 C1324 0.950 . S
H1314 C1326 0.950 . S
H1315 C1327 0.950 . S
C1316 H1308 0.950 . S
C1316 C1317 1.386 . S
C1316 C1318 1.391 . S
C1317 C1316 1.386 . S
C1317 C1321 1.393 . S
C1318 H1310 0.950 . S
C1318 C1316 1.391 . S
C1318 C1319 1.400 . S
C1319 C1318 1.400 . S
C1319 C1320 1.398 . S
C1319 C1325 1.491 . S
C1320 H1311 0.950 . S
C1320 C1319 1.398 . S
C1320 C1321 1.391 . S
C1321 H1309 0.950 . S
C1321 C1317 1.393 . S
C1321 C1320 1.391 . S
C1322 H1312 0.950 . S
C1322 C1323 1.386 . S
C1322 C1324 1.391 . S
C1323 C1322 1.386 . S
C1323 C1327 1.393 . S
C1324 H1313 0.950 . S
C1324 C1322 1.391 . S
C1324 C1325 1.400 . S
C1325 C1319 1.491 . S
C1325 C1324 1.400 . S
C1325 C1326 1.398 . S
C1326 H1314 0.950 . S
C1326 C1325 1.398 . S
C1326 C1327 1.391 . S
C1327 H1315 0.950 . S
C1327 C1323 1.393 . S
C1327 C1326 1.391 . S
C537 C28 0.274 . S
C543 C193 0.189 . S
C557 C61 0.182 . S
C563 C226 0.275 . S
C577 C259 0.183 . S
C583 C94 0.272 . S
C597 C160 0.270 . S
C603 C127 0.203 . S
C617 C292 0.191 . S
C623 C457 0.275 . S
C637 C325 0.264 . S
C643 C490 0.182 . S
C657 C358 0.182 . S
C663 C523 0.274 . S
C677 C391 0.208 . S
C683 C424 0.239 . S
C697 C281 1.728 . S
C703 C17 1.727 . S
C717 C314 1.673 . S
C723 C50 1.672 . S
C737 C83 1.715 . S
C743 C347 1.715 . S
C757 C380 1.758 . S
C763 C116 1.758 . S
C777 C149 1.659 . S
C783 C413 1.658 . S
C797 C182 1.731 . S
C803 C446 1.730 . S
C817 C215 1.791 . S
C823 C479 1.791 . S
C837 C248 1.715 . S
C843 C512 1.715 . S
C857 N14 1.740 . S
C863 N146 1.748 . S
C877 N47 1.735 . S
C883 N179 1.716 . S
C897 N212 1.781 . S
C903 N80 1.769 . S
C917 N113 1.783 . S
C923 N245 1.769 . S
C937 N410 1.724 . S
C943 N278 1.744 . S
C957 N443 1.739 . S
C963 N311 1.749 . S
C977 N344 1.780 . S
C983 N476 1.768 . S
C997 N509 1.770 . S
C1003 N377 1.788 . S
C1017 C41 1.479 . S
C1023 N5 1.378 . S
C1037 N38 1.376 . S
C1043 C74 1.480 . S
C1057 N71 1.421 . S
C1063 C107 1.516 . S
C1077 N104 1.371 . S
C1083 C8 1.492 . S
C1097 C239 1.479 . S
C1103 N137 1.353 . S
C1117 N170 1.383 . S
C1123 C140 1.473 . S
C1137 N203 1.385 . S
C1143 C173 1.494 . S
C1157 N236 1.422 . S
C1163 C206 1.516 . S
C1177 N269 1.347 . S
C1183 C305 1.465 . S
C1197 N302 1.383 . S
C1203 C338 1.481 . S
C1217 C371 1.515 . S
C1223 N335 1.416 . S
C1237 N368 1.406 . S
C1243 C272 1.499 . S
C1257 N401 1.391 . S
C1263 C503 1.483 . S
C1277 C404 1.470 . S
C1283 N434 1.341 . S
C1297 C437 1.495 . S
C1303 N467 1.380 . S
C1317 N500 1.388 . S
C1323 C470 1.509 . S
