# Generated by pormake.
# Topology wiv, (6)-cn, num edge types: 1
# Building blocks:
#     Node 0, Type 0, BuildingBlock: CUWYAW_clean_sbu_0, # of connection points: 6
#     Node 1, Type 0, BuildingBlock: CUWYAW_clean_sbu_0, # of connection points: 6
#     Node 2, Type 0, BuildingBlock: CUWYAW_clean_sbu_0, # of connection points: 6
#     Node 3, Type 0, BuildingBlock: CUWYAW_clean_sbu_0, # of connection points: 6
#     Node 4, Type 0, BuildingBlock: CUWYAW_clean_sbu_0, # of connection points: 6
#     Node 5, Type 0, BuildingBlock: CUWYAW_clean_sbu_0, # of connection points: 6
#     Node 6, Type 0, BuildingBlock: CUWYAW_clean_sbu_0, # of connection points: 6
#     Node 7, Type 0, BuildingBlock: CUWYAW_clean_sbu_0, # of connection points: 6
#     Node 8, Type 0, BuildingBlock: CUWYAW_clean_sbu_0, # of connection points: 6
#     Node 9, Type 0, BuildingBlock: CUWYAW_clean_sbu_0, # of connection points: 6
#     Node 10, Type 0, BuildingBlock: CUWYAW_clean_sbu_0, # of connection points: 6
#     Node 11, Type 0, BuildingBlock: CUWYAW_clean_sbu_0, # of connection points: 6
#     Node 12, Type 0, BuildingBlock: CUWYAW_clean_sbu_0, # of connection points: 6
#     Node 13, Type 0, BuildingBlock: CUWYAW_clean_sbu_0, # of connection points: 6
#     Node 14, Type 0, BuildingBlock: CUWYAW_clean_sbu_0, # of connection points: 6
#     Node 15, Type 0, BuildingBlock: CUWYAW_clean_sbu_0, # of connection points: 6
#     Edge 16, Type (0, 0), BuildingBlock: ZUJKAS_clean_linker_0, # of connection points: 2
#     Edge 17, Type (0, 0), BuildingBlock: ZUJKAS_clean_linker_0, # of connection points: 2
#     Edge 18, Type (0, 0), BuildingBlock: ZUJKAS_clean_linker_0, # of connection points: 2
#     Edge 19, Type (0, 0), BuildingBlock: ZUJKAS_clean_linker_0, # of connection points: 2
#     Edge 20, Type (0, 0), BuildingBlock: ZUJKAS_clean_linker_0, # of connection points: 2
#     Edge 21, Type (0, 0), BuildingBlock: ZUJKAS_clean_linker_0, # of connection points: 2
#     Edge 22, Type (0, 0), BuildingBlock: ZUJKAS_clean_linker_0, # of connection points: 2
#     Edge 23, Type (0, 0), BuildingBlock: ZUJKAS_clean_linker_0, # of connection points: 2
#     Edge 24, Type (0, 0), BuildingBlock: ZUJKAS_clean_linker_0, # of connection points: 2
#     Edge 25, Type (0, 0), BuildingBlock: ZUJKAS_clean_linker_0, # of connection points: 2
#     Edge 26, Type (0, 0), BuildingBlock: ZUJKAS_clean_linker_0, # of connection points: 2
#     Edge 27, Type (0, 0), BuildingBlock: ZUJKAS_clean_linker_0, # of connection points: 2
#     Edge 28, Type (0, 0), BuildingBlock: ZUJKAS_clean_linker_0, # of connection points: 2
#     Edge 29, Type (0, 0), BuildingBlock: ZUJKAS_clean_linker_0, # of connection points: 2
#     Edge 30, Type (0, 0), BuildingBlock: ZUJKAS_clean_linker_0, # of connection points: 2
#     Edge 31, Type (0, 0), BuildingBlock: ZUJKAS_clean_linker_0, # of connection points: 2
#     Edge 32, Type (0, 0), BuildingBlock: ZUJKAS_clean_linker_0, # of connection points: 2
#     Edge 33, Type (0, 0), BuildingBlock: ZUJKAS_clean_linker_0, # of connection points: 2
#     Edge 34, Type (0, 0), BuildingBlock: ZUJKAS_clean_linker_0, # of connection points: 2
#     Edge 35, Type (0, 0), BuildingBlock: ZUJKAS_clean_linker_0, # of connection points: 2
#     Edge 36, Type (0, 0), BuildingBlock: ZUJKAS_clean_linker_0, # of connection points: 2
#     Edge 37, Type (0, 0), BuildingBlock: ZUJKAS_clean_linker_0, # of connection points: 2
#     Edge 38, Type (0, 0), BuildingBlock: ZUJKAS_clean_linker_0, # of connection points: 2
#     Edge 39, Type (0, 0), BuildingBlock: ZUJKAS_clean_linker_0, # of connection points: 2
#     Edge 40, Type (0, 0), BuildingBlock: ZUJKAS_clean_linker_0, # of connection points: 2
#     Edge 41, Type (0, 0), BuildingBlock: ZUJKAS_clean_linker_0, # of connection points: 2
#     Edge 42, Type (0, 0), BuildingBlock: ZUJKAS_clean_linker_0, # of connection points: 2
#     Edge 43, Type (0, 0), BuildingBlock: ZUJKAS_clean_linker_0, # of connection points: 2
#     Edge 44, Type (0, 0), BuildingBlock: ZUJKAS_clean_linker_0, # of connection points: 2
#     Edge 45, Type (0, 0), BuildingBlock: ZUJKAS_clean_linker_0, # of connection points: 2
#     Edge 46, Type (0, 0), BuildingBlock: ZUJKAS_clean_linker_0, # of connection points: 2
#     Edge 47, Type (0, 0), BuildingBlock: ZUJKAS_clean_linker_0, # of connection points: 2
#     Edge 48, Type (0, 0), BuildingBlock: ZUJKAS_clean_linker_0, # of connection points: 2
#     Edge 49, Type (0, 0), BuildingBlock: ZUJKAS_clean_linker_0, # of connection points: 2
#     Edge 50, Type (0, 0), BuildingBlock: ZUJKAS_clean_linker_0, # of connection points: 2
#     Edge 51, Type (0, 0), BuildingBlock: ZUJKAS_clean_linker_0, # of connection points: 2
#     Edge 52, Type (0, 0), BuildingBlock: ZUJKAS_clean_linker_0, # of connection points: 2
#     Edge 53, Type (0, 0), BuildingBlock: ZUJKAS_clean_linker_0, # of connection points: 2
#     Edge 54, Type (0, 0), BuildingBlock: ZUJKAS_clean_linker_0, # of connection points: 2
#     Edge 55, Type (0, 0), BuildingBlock: ZUJKAS_clean_linker_0, # of connection points: 2
#     Edge 56, Type (0, 0), BuildingBlock: ZUJKAS_clean_linker_0, # of connection points: 2
#     Edge 57, Type (0, 0), BuildingBlock: ZUJKAS_clean_linker_0, # of connection points: 2
#     Edge 58, Type (0, 0), BuildingBlock: ZUJKAS_clean_linker_0, # of connection points: 2
#     Edge 59, Type (0, 0), BuildingBlock: ZUJKAS_clean_linker_0, # of connection points: 2
#     Edge 60, Type (0, 0), BuildingBlock: ZUJKAS_clean_linker_0, # of connection points: 2
#     Edge 61, Type (0, 0), BuildingBlock: ZUJKAS_clean_linker_0, # of connection points: 2
#     Edge 62, Type (0, 0), BuildingBlock: ZUJKAS_clean_linker_0, # of connection points: 2
#     Edge 63, Type (0, 0), BuildingBlock: ZUJKAS_clean_linker_0, # of connection points: 2
# Relax obj value: 0.103
# Max RMSD: 0.166
# Mean RMSD: 0.166
data_MOF--net-wiv--node1-CUWYAW_clean_sbu_0--edge1-ZUJKAS_clean_linker_0
_symmetry_space_group_name_H-M    P1
_symmetry_Int_Tables_number       1
_symmetry_cell_setting            triclinic
loop_
_symmetry_equiv_pos_as_xyz
'x, y, z'
_cell_length_a     68.559213
_cell_length_b     68.480192
_cell_length_c     29.826285
_cell_angle_alpha  90.032138
_cell_angle_beta   90.035649
_cell_angle_gamma 90.020533
loop_
_atom_site_label
_atom_site_type_symbol
_atom_site_fract_x
_atom_site_fract_y
_atom_site_fract_z
_atom_type_partial_charge
C0 C 0.3928 0.12112 0.98996 0.0
Eu1 Eu 0.37844 0.11463 0.07 0.0
C2 C 0.38611 0.12241 0.94259 0.0
C3 C 0.37295 0.10875 0.9245 0.0
C4 C 0.36825 0.10901 0.8787 0.0
C5 C 0.37663 0.12292 0.84968 0.0
C6 C 0.3894 0.1369 0.86825 0.0
C7 C 0.39408 0.13662 0.91408 0.0
C8 C 0.37903 0.07907 0.11113 0.0
C9 C 0.33152 0.10959 0.05808 0.0
C10 C 0.33531 0.10237 0.22652 0.0
Eu11 Eu 0.35452 0.11182 0.15407 0.0
C12 C 0.33783 0.10538 0.2754 0.0
C13 C 0.34989 0.12027 0.29223 0.0
C14 C 0.35263 0.12249 0.33863 0.0
C15 C 0.34346 0.10979 0.36933 0.0
C16 C 0.33142 0.09487 0.35207 0.0
C17 C 0.32866 0.09271 0.30572 0.0
C18 C 0.36677 0.14874 0.13623 0.0
C19 C 0.40141 0.1178 0.16195 0.0
O20 O 0.38784 0.13516 0.01754 0.0
O21 O 0.39189 0.10393 1.00876 0.0
O22 O 0.39425 0.08734 0.09365 0.0
O23 O 0.36419 0.08971 0.10559 0.0
O24 O 0.34884 0.1104 0.03906 0.0
O25 O 0.32959 0.11022 0.10241 0.0
O26 O 0.34813 0.09093 0.2073 0.0
O27 O 0.33128 0.11781 0.20224 0.0
O28 O 0.36597 0.14101 0.17573 0.0
O29 O 0.36048 0.13679 0.10706 0.0
O30 O 0.38589 0.10909 0.17953 0.0
O31 O 0.40102 0.12449 0.12035 0.0
H32 H 0.36665 0.09751 0.94551 0.0
H33 H 0.35854 0.09787 0.86584 0.0
H34 H 0.3959 0.14806 0.84733 0.0
H35 H 0.40427 0.14731 0.9271 0.0
H36 H 0.35725 0.13015 0.26949 0.0
H37 H 0.36182 0.13429 0.3504 0.0
H38 H 0.32438 0.08457 0.37433 0.0
H39 H 0.31948 0.08097 0.29351 0.0
C40 C 0.10951 0.67331 0.80722 0.0
Eu41 Eu 0.1143 0.65255 0.88005 0.0
C42 C 0.11139 0.66971 0.75814 0.0
C43 C 0.12103 0.68334 0.73082 0.0
C44 C 0.12252 0.68039 0.68432 0.0
C45 C 0.11428 0.66375 0.66386 0.0
C46 C 0.10477 0.65004 0.69144 0.0
C47 C 0.10341 0.65292 0.73793 0.0
C48 C 0.1495 0.63776 0.90366 0.0
C49 C 0.11679 0.6055 0.87075 0.0
C50 C 0.1164 0.61247 0.04349 0.0
Eu51 Eu 0.11291 0.62804 0.96358 0.0
C52 C 0.11808 0.61808 0.09144 0.0
C53 C 0.10935 0.60609 0.12383 0.0
C54 C 0.10974 0.61119 0.1693 0.0
C55 C 0.1189 0.62848 0.18377 0.0
C56 C 0.12788 0.64044 0.15122 0.0
C57 C 0.1274 0.63534 0.10548 0.0
C58 C 0.0788 0.62905 0.91668 0.0
C59 C 0.11172 0.67506 0.9768 0.0
O60 O 0.09535 0.66428 0.82798 0.0
O61 O 0.12558 0.67358 0.83088 0.0
O62 O 0.14283 0.63854 0.86314 0.0
O63 O 0.13721 0.64486 0.93102 0.0
O64 O 0.10979 0.62173 0.85247 0.0
O65 O 0.12234 0.60516 0.91329 0.0
O66 O 0.13124 0.6157 0.0168 0.0
O67 O 0.09971 0.6163 0.02434 0.0
O68 O 0.08527 0.61374 0.93736 0.0
O69 O 0.08996 0.64347 0.92354 0.0
O70 O 0.11023 0.65764 0.99503 0.0
O71 O 0.11385 0.6772 0.93275 0.0
H72 H 0.1273 0.6964 0.74542 0.0
H73 H 0.1298 0.69136 0.66427 0.0
H74 H 0.09851 0.63691 0.67714 0.0
H75 H 0.09604 0.64201 0.75801 0.0
H76 H 0.10205 0.59274 0.11387 0.0
H77 H 0.10292 0.60145 0.19323 0.0
H78 H 0.13493 0.65394 0.16099 0.0
H79 H 0.13409 0.64497 0.08112 0.0
C80 C 0.61171 0.88508 0.98716 0.0
Eu81 Eu 0.62762 0.89267 0.06507 0.0
C82 C 0.6163 0.88644 0.93866 0.0
C83 C 0.60168 0.89235 0.90868 0.0
C84 C 0.60536 0.89334 0.86254 0.0
C85 C 0.62381 0.88845 0.84512 0.0
C86 C 0.63855 0.88274 0.87539 0.0
C87 C 0.63482 0.88169 0.92162 0.0
C88 C 0.62956 0.92855 0.1039 0.0
C89 C 0.67461 0.89931 0.04963 0.0
C90 C 0.6691 0.90315 0.2233 0.0
Eu91 Eu 0.65371 0.89491 0.14512 0.0
C92 C 0.66456 0.90121 0.27171 0.0
C93 C 0.67956 0.89635 0.3017 0.0
C94 C 0.67595 0.89508 0.34783 0.0
C95 C 0.6572 0.89871 0.36528 0.0
C96 C 0.64209 0.90331 0.33496 0.0
C97 C 0.64573 0.90455 0.28871 0.0
C98 C 0.65058 0.8582 0.11075 0.0
C99 C 0.60629 0.88729 0.15832 0.0
O100 O 0.62131 0.87218 1.01089 0.0
O101 O 0.60922 0.90152 1.00866 0.0
O102 O 0.61376 0.92107 0.08726 0.0
O103 O 0.64386 0.91725 0.09732 0.0
O104 O 0.65767 0.89353 0.03321 0.0
O105 O 0.67666 0.90304 0.093 0.0
O106 O 0.6586 0.91544 0.19996 0.0
O107 O 0.67278 0.88708 0.20125 0.0
O108 O 0.66667 0.86596 0.12517 0.0
O109 O 0.6367 0.87024 0.11521 0.0
O110 O 0.62308 0.89298 0.17627 0.0
O111 O 0.60479 0.88371 0.11497 0.0
H112 H 0.5873 0.89614 0.92098 0.0
H113 H 0.59373 0.8981 0.84052 0.0
H114 H 0.65288 0.87869 0.8633 0.0
H115 H 0.64636 0.877 0.94395 0.0
H116 H 0.69418 0.89363 0.28941 0.0
H117 H 0.68789 0.89114 0.36981 0.0
H118 H 0.62752 0.90638 0.34699 0.0
H119 H 0.63386 0.90833 0.26636 0.0
C120 C 0.90241 0.33932 0.80155 0.0
Eu121 Eu 0.89376 0.35422 0.87997 0.0
C122 C 0.90045 0.34411 0.75315 0.0
C123 C 0.89102 0.33085 0.72448 0.0
C124 C 0.88958 0.33455 0.67841 0.0
C125 C 0.89768 0.35159 0.65968 0.0
C126 C 0.90703 0.36495 0.6885 0.0
C127 C 0.90836 0.36129 0.73471 0.0
C128 C 0.85674 0.35671 0.91244 0.0
C129 C 0.8856 0.4016 0.86751 0.0
C130 C 0.88219 0.39524 0.03819 0.0
Eu131 Eu 0.89055 0.37991 0.96013 0.0
C132 C 0.88378 0.39023 0.08637 0.0
C133 C 0.89939 0.3791 0.10314 0.0
C134 C 0.90082 0.3751 0.14918 0.0
C135 C 0.8866 0.38201 0.17938 0.0
C136 C 0.87085 0.39289 0.16219 0.0
C137 C 0.8695 0.39696 0.11627 0.0
C138 C 0.92677 0.37855 0.92283 0.0
C139 C 0.8977 0.33298 0.97517 0.0
O140 O 0.91455 0.34975 0.82551 0.0
O141 O 0.88639 0.33525 0.82333 0.0
O142 O 0.86484 0.34077 0.89813 0.0
O143 O 0.86859 0.3708 0.90899 0.0
O144 O 0.89243 0.38517 0.84981 0.0
O145 O 0.88091 0.40251 0.91035 0.0
O146 O 0.86973 0.38512 0.01442 0.0
O147 O 0.89844 0.39858 0.01656 0.0
O148 O 0.91893 0.39424 0.9392 0.0
O149 O 0.91563 0.36409 0.92895 0.0
O150 O 0.89146 0.34977 0.99146 0.0
O151 O 0.9019 0.33114 0.93198 0.0
H152 H 0.88491 0.31744 0.7377 0.0
H153 H 0.88249 0.32382 0.65727 0.0
H154 H 0.91323 0.37832 0.67537 0.0
H155 H 0.91568 0.37186 0.75586 0.0
H156 H 0.91051 0.37358 0.0807 0.0
H157 H 0.91299 0.36647 0.1611 0.0
H158 H 0.85975 0.39862 0.1844 0.0
H159 H 0.85734 0.40557 0.10412 0.0
C160 C 0.39347 0.38316 0.28796 0.0
Eu161 Eu 0.3781 0.39202 0.21019 0.0
C162 C 0.38856 0.38419 0.33626 0.0
C163 C 0.37561 0.39828 0.35319 0.0
C164 C 0.37186 0.39944 0.3994 0.0
C165 C 0.38101 0.38656 0.42972 0.0
C166 C 0.39368 0.37225 0.41227 0.0
C167 C 0.3974 0.37111 0.36616 0.0
C168 C 0.37645 0.42847 0.17423 0.0
C169 C 0.33111 0.3987 0.225 0.0
C170 C 0.3375 0.40533 0.05175 0.0
Eu171 Eu 0.35243 0.39554 0.12946 0.0
C172 C 0.34198 0.40364 1.00337 0.0
C173 C 0.35495 0.38948 0.98689 0.0
C174 C 0.35849 0.3879 0.94064 0.0
C175 C 0.34915 0.40046 0.9099 0.0
C176 C 0.33644 0.41482 0.92692 0.0
C177 C 0.3329 0.41636 0.97304 0.0
C178 C 0.35532 0.35832 0.16071 0.0
C179 C 0.39997 0.3879 0.1172 0.0
O180 O 0.38359 0.37074 0.26352 0.0
O181 O 0.39641 0.39974 0.26729 0.0
O182 O 0.39212 0.42075 0.19094 0.0
O183 O 0.3621 0.41708 0.17941 0.0
O184 O 0.34791 0.39248 0.24126 0.0
O185 O 0.32934 0.40318 0.18191 0.0
O186 O 0.34874 0.41681 0.07541 0.0
O187 O 0.33314 0.38923 0.07303 0.0
O188 O 0.33937 0.3662 0.14588 0.0
O189 O 0.36923 0.37043 0.15789 0.0
O190 O 0.38328 0.39382 0.09911 0.0
O191 O 0.4012 0.38371 0.16031 0.0
H192 H 0.36859 0.40855 0.33075 0.0
H193 H 0.36214 0.41075 0.41144 0.0
H194 H 0.40071 0.36183 0.43425 0.0
H195 H 0.40736 0.36006 0.35385 0.0
H196 H 0.36218 0.37953 1.00972 0.0
H197 H 0.36826 0.37656 0.92894 0.0
H198 H 0.32927 0.42502 0.90462 0.0
H199 H 0.32296 0.4275 0.98504 0.0
C200 C 0.40738 0.66879 0.9811 0.0
Eu201 Eu 0.3959 0.65448 0.90393 0.0
C202 C 0.40499 0.66501 0.02961 0.0
C203 C 0.39132 0.65145 0.04574 0.0
C204 C 0.38923 0.64832 0.09205 0.0
C205 C 0.40079 0.65869 0.12318 0.0
C206 C 0.41461 0.67208 0.10653 0.0
C207 C 0.41666 0.67518 0.06035 0.0
C208 C 0.35798 0.65211 0.87731 0.0
C209 C 0.38726 0.60703 0.91495 0.0
C210 C 0.38053 0.61472 0.74474 0.0
Eu211 Eu 0.39025 0.6295 0.82265 0.0
C212 C 0.38156 0.61989 0.69661 0.0
C213 C 0.39444 0.63426 0.6807 0.0
C214 C 0.3958 0.63819 0.63457 0.0
C215 C 0.38427 0.62783 0.60336 0.0
C216 C 0.37107 0.61379 0.61985 0.0
C217 C 0.36977 0.60986 0.66585 0.0
C218 C 0.42747 0.6309 0.8548 0.0
C219 C 0.39707 0.67631 0.80922 0.0
O220 O 0.41727 0.65586 0.95826 0.0
O221 O 0.39204 0.675 0.95932 0.0
O222 O 0.36624 0.66783 0.89243 0.0
O223 O 0.37001 0.63813 0.87769 0.0
O224 O 0.39469 0.62323 0.93263 0.0
O225 O 0.38156 0.60657 0.87265 0.0
O226 O 0.36859 0.62491 0.76969 0.0
O227 O 0.39707 0.61118 0.76494 0.0
O228 O 0.41929 0.61526 0.83906 0.0
O229 O 0.41603 0.64522 0.85088 0.0
O230 O 0.38894 0.66014 0.79409 0.0
O231 O 0.40399 0.67716 0.85072 0.0
H232 H 0.38219 0.64338 0.02255 0.0
H233 H 0.37832 0.63802 0.10345 0.0
H234 H 0.42405 0.68005 0.12917 0.0
H235 H 0.42741 0.6856 0.04861 0.0
H236 H 0.40365 0.64224 0.70388 0.0
H237 H 0.40623 0.649 0.62334 0.0
H238 H 0.36163 0.6058 0.59721 0.0
H239 H 0.35963 0.59881 0.67739 0.0
C240 C 0.61097 0.62359 0.28736 0.0
Eu241 Eu 0.62666 0.61556 0.20953 0.0
C242 C 0.61547 0.62178 0.33585 0.0
C243 C 0.60094 0.61514 0.36523 0.0
C244 C 0.60452 0.61378 0.41136 0.0
C245 C 0.62278 0.61904 0.42937 0.0
C246 C 0.63743 0.6255 0.39971 0.0
C247 C 0.6338 0.6269 0.3535 0.0
C248 C 0.62835 0.57935 0.17214 0.0
C249 C 0.67361 0.60874 0.22456 0.0
C250 C 0.66768 0.60399 0.05118 0.0
Eu251 Eu 0.65242 0.61258 0.12924 0.0
C252 C 0.66308 0.60576 1.00274 0.0
C253 C 0.67768 0.61198 0.97307 0.0
C254 C 0.67401 0.61326 0.92696 0.0
C255 C 0.65562 0.6083 0.90924 0.0
C256 C 0.64091 0.60225 0.93921 0.0
C257 C 0.6446 0.60097 0.98541 0.0
C258 C 0.64956 0.64955 0.16234 0.0
C259 C 0.60509 0.62042 0.11658 0.0
O260 O 0.62119 0.63612 0.26399 0.0
O261 O 0.60768 0.60739 0.26543 0.0
O262 O 0.61261 0.58705 0.18851 0.0
O263 O 0.6427 0.59065 0.17813 0.0
O264 O 0.65681 0.61487 0.24097 0.0
O265 O 0.67543 0.60455 0.18136 0.0
O266 O 0.65724 0.59179 0.07489 0.0
O267 O 0.67139 0.62015 0.07283 0.0
O268 O 0.66556 0.64167 0.14787 0.0
O269 O 0.63563 0.63756 0.15842 0.0
O270 O 0.62154 0.61366 0.09893 0.0
O271 O 0.60414 0.62513 0.15943 0.0
H272 H 0.5867 0.61108 0.35247 0.0
H273 H 0.59299 0.60844 0.4329 0.0
H274 H 0.65159 0.62987 0.41226 0.0
H275 H 0.64527 0.63216 0.33169 0.0
H276 H 0.69202 0.61579 0.98558 0.0
H277 H 0.68561 0.61829 0.90521 0.0
H278 H 0.62663 0.59811 0.9269 0.0
H279 H 0.63306 0.59606 1.00748 0.0
C280 C 0.6011 0.33938 0.97509 0.0
Eu281 Eu 0.6107 0.35422 0.89717 0.0
C282 C 0.60215 0.34446 0.02328 0.0
C283 C 0.61538 0.35845 0.03952 0.0
C284 C 0.61648 0.36252 0.08563 0.0
C285 C 0.60431 0.35274 0.11643 0.0
C286 C 0.59091 0.33894 0.0997 0.0
C287 C 0.58986 0.33486 0.05371 0.0
C288 C 0.64776 0.3567 0.86507 0.0
C289 C 0.61901 0.40162 0.90943 0.0
C290 C 0.62209 0.39554 0.73867 0.0
Eu291 Eu 0.61408 0.37991 0.81666 0.0
C292 C 0.62086 0.3906 0.69039 0.0
C293 C 0.60726 0.37699 0.67404 0.0
C294 C 0.60607 0.37298 0.62792 0.0
C295 C 0.61848 0.38248 0.59716 0.0
C296 C 0.63218 0.39596 0.61397 0.0
C297 C 0.63334 0.39995 0.65998 0.0
C298 C 0.57792 0.37845 0.85426 0.0
C299 C 0.60754 0.33283 0.80189 0.0
O300 O 0.58918 0.34965 0.95034 0.0
O301 O 0.6176 0.33582 0.95475 0.0
O302 O 0.63977 0.34082 0.88003 0.0
O303 O 0.63587 0.37078 0.8681 0.0
O304 O 0.61214 0.3852 0.92714 0.0
O305 O 0.62371 0.40251 0.86657 0.0
O306 O 0.63483 0.38588 0.76261 0.0
O307 O 0.60562 0.39813 0.75994 0.0
O308 O 0.58583 0.39424 0.83861 0.0
O309 O 0.58906 0.36403 0.8477 0.0
O310 O 0.61372 0.34965 0.78561 0.0
O311 O 0.60308 0.33104 0.84495 0.0
H312 H 0.62491 0.36616 0.0166 0.0
H313 H 0.62678 0.37342 0.0971 0.0
H314 H 0.58147 0.33093 0.12225 0.0
H315 H 0.57955 0.32401 0.04193 0.0
H316 H 0.5975 0.36954 0.69688 0.0
H317 H 0.59552 0.36233 0.61643 0.0
H318 H 0.6418 0.40378 0.59146 0.0
H319 H 0.64391 0.41055 0.67181 0.0
C320 C 0.89385 0.62335 0.48978 0.0
Eu321 Eu 0.8781 0.61539 0.56758 0.0
C322 C 0.88929 0.62167 0.44127 0.0
C323 C 0.90369 0.61481 0.41179 0.0
C324 C 0.90007 0.61358 0.36564 0.0
C325 C 0.88191 0.6192 0.34767 0.0
C326 C 0.86739 0.62585 0.37744 0.0
C327 C 0.87104 0.62711 0.42367 0.0
C328 C 0.87613 0.5792 0.60487 0.0
C329 C 0.83112 0.60878 0.55216 0.0
C330 C 0.83673 0.60431 0.72565 0.0
Eu331 Eu 0.85217 0.61263 0.6476 0.0
C332 C 0.84133 0.60595 0.77414 0.0
C333 C 0.82691 0.61267 0.80372 0.0
C334 C 0.83053 0.61379 0.84988 0.0
C335 C 0.8487 0.60817 0.86777 0.0
C336 C 0.86324 0.60164 0.8379 0.0
C337 C 0.85959 0.60052 0.79163 0.0
C338 C 0.85544 0.64958 0.61458 0.0
C339 C 0.89961 0.61966 0.66073 0.0
O340 O 0.88382 0.63598 0.51335 0.0
O341 O 0.89694 0.60708 0.51153 0.0
O342 O 0.89192 0.58678 0.58844 0.0
O343 O 0.86185 0.59058 0.59886 0.0
O344 O 0.848 0.61478 0.53591 0.0
O345 O 0.82917 0.60469 0.59536 0.0
O346 O 0.8469 0.59191 0.70186 0.0
O347 O 0.83337 0.62056 0.70407 0.0
O348 O 0.83933 0.64179 0.62868 0.0
O349 O 0.86927 0.63748 0.61867 0.0
O350 O 0.88299 0.61323 0.67814 0.0
O351 O 0.90076 0.62442 0.61793 0.0
H352 H 0.91785 0.61048 0.4245 0.0
H353 H 0.91151 0.60806 0.34407 0.0
H354 H 0.8533 0.63049 0.36494 0.0
H355 H 0.85966 0.63252 0.44555 0.0
H356 H 0.81273 0.61698 0.79109 0.0
H357 H 0.81907 0.61921 0.87154 0.0
H358 H 0.87734 0.597 0.85033 0.0
H359 H 0.87099 0.59522 0.76966 0.0
C360 C 0.60285 0.1686 0.30105 0.0
Eu361 Eu 0.61235 0.15361 0.37894 0.0
C362 C 0.60432 0.16394 0.25271 0.0
C363 C 0.6171 0.14952 0.23665 0.0
C364 C 0.61856 0.14581 0.19043 0.0
C365 C 0.60726 0.15644 0.15932 0.0
C366 C 0.59427 0.17064 0.17593 0.0
C367 C 0.59285 0.17434 0.22201 0.0
C368 C 0.64946 0.15138 0.411 0.0
C369 C 0.62089 0.1063 0.36655 0.0
C370 C 0.62457 0.11235 0.53721 0.0
Eu371 Eu 0.61601 0.12794 0.45946 0.0
C372 C 0.62313 0.11696 0.58561 0.0
C373 C 0.60951 0.1305 0.60208 0.0
C374 C 0.60816 0.13423 0.64829 0.0
C375 C 0.62034 0.12441 0.67904 0.0
C376 C 0.63408 0.11102 0.6621 0.0
C377 C 0.63546 0.10737 0.61598 0.0
C378 C 0.57972 0.1291 0.42234 0.0
C379 C 0.60876 0.17489 0.47436 0.0
O380 O 0.59113 0.15777 0.32497 0.0
O381 O 0.61912 0.1725 0.32208 0.0
O382 O 0.64131 0.16722 0.39629 0.0
O383 O 0.63767 0.13722 0.40789 0.0
O384 O 0.61392 0.12267 0.34887 0.0
O385 O 0.62569 0.10544 0.40937 0.0
O386 O 0.63691 0.12267 0.51362 0.0
O387 O 0.60822 0.1092 0.5158 0.0
O388 O 0.58767 0.11345 0.43863 0.0
O389 O 0.59082 0.1436 0.42841 0.0
O390 O 0.61514 0.15815 0.49065 0.0
O391 O 0.60434 0.17664 0.43124 0.0
H392 H 0.62607 0.14127 0.25979 0.0
H393 H 0.62884 0.13487 0.17907 0.0
H394 H 0.58503 0.17886 0.15333 0.0
H395 H 0.58279 0.18543 0.23369 0.0
H396 H 0.5998 0.13804 0.57926 0.0
H397 H 0.59729 0.14451 0.65998 0.0
H398 H 0.64394 0.10343 0.68448 0.0
H399 H 0.64613 0.09693 0.60402 0.0
C400 C 0.11051 0.38383 0.48926 0.0
Eu401 Eu 0.12604 0.39253 0.56699 0.0
C402 C 0.11524 0.38518 0.44091 0.0
C403 C 0.12825 0.39929 0.42429 0.0
C404 C 0.13205 0.40058 0.37811 0.0
C405 C 0.12286 0.38782 0.34752 0.0
C406 C 0.11005 0.37357 0.36462 0.0
C407 C 0.1063 0.37228 0.4107 0.0
C408 C 0.12756 0.4289 0.60365 0.0
C409 C 0.17305 0.39932 0.55195 0.0
C410 C 0.1669 0.40544 0.72542 0.0
Eu411 Eu 0.15182 0.39605 0.64752 0.0
C412 C 0.16212 0.4042 0.77374 0.0
C413 C 0.14851 0.39066 0.79024 0.0
C414 C 0.14478 0.38938 0.83646 0.0
C415 C 0.15456 0.40164 0.86716 0.0
C416 C 0.16791 0.41541 0.8501 0.0
C417 C 0.17164 0.41664 0.80401 0.0
C418 C 0.14898 0.35887 0.61567 0.0
C419 C 0.10441 0.38813 0.66003 0.0
O420 O 0.12073 0.37148 0.5131 0.0
O421 O 0.10735 0.40023 0.51051 0.0
O422 O 0.11188 0.4211 0.58712 0.0
O423 O 0.14195 0.41763 0.598 0.0
O424 O 0.15618 0.39324 0.5357 0.0
O425 O 0.17495 0.4036 0.59512 0.0
O426 O 0.1564 0.41737 0.70121 0.0
O427 O 0.17048 0.38904 0.70461 0.0
O428 O 0.16495 0.36684 0.63017 0.0
O429 O 0.13506 0.37091 0.61894 0.0
O430 O 0.12089 0.3949 0.67763 0.0
O431 O 0.10343 0.3833 0.61722 0.0
H432 H 0.13531 0.40943 0.44697 0.0
H433 H 0.14186 0.41185 0.36633 0.0
H434 H 0.10297 0.36325 0.3424 0.0
H435 H 0.0963 0.36122 0.42277 0.0
H436 H 0.14092 0.38094 0.76745 0.0
H437 H 0.13453 0.37849 0.84816 0.0
H438 H 0.17544 0.42539 0.87235 0.0
H439 H 0.18209 0.4273 0.792 0.0
C440 C 0.40822 0.83716 0.30098 0.0
Eu441 Eu 0.39792 0.85198 0.37846 0.0
C442 C 0.40584 0.84105 0.25236 0.0
C443 C 0.403 0.82535 0.22283 0.0
C444 C 0.40125 0.82852 0.17657 0.0
C445 C 0.4023 0.84752 0.15863 0.0
C446 C 0.40503 0.86326 0.18847 0.0
C447 C 0.40678 0.86006 0.23477 0.0
C448 C 0.36022 0.85482 0.40655 0.0
C449 C 0.38994 0.89952 0.36728 0.0
C450 C 0.38516 0.89246 0.53744 0.0
Eu451 Eu 0.39332 0.87706 0.45921 0.0
C452 C 0.38669 0.88759 0.58569 0.0
C453 C 0.38788 0.90277 0.61715 0.0
C454 C 0.38944 0.89869 0.66303 0.0
C455 C 0.38983 0.87929 0.67864 0.0
C456 C 0.38862 0.86406 0.64691 0.0
C457 C 0.38712 0.86818 0.6009 0.0
C458 C 0.43017 0.87537 0.42505 0.0
C459 C 0.39913 0.83017 0.47288 0.0
O460 O 0.419 0.84933 0.32402 0.0
O461 O 0.39269 0.83166 0.32299 0.0
O462 O 0.36827 0.83893 0.39188 0.0
O463 O 0.37236 0.86871 0.40533 0.0
O464 O 0.39719 0.88325 0.34956 0.0
O465 O 0.38429 0.89998 0.40957 0.0
O466 O 0.37262 0.88252 0.51346 0.0
O467 O 0.40153 0.89543 0.51616 0.0
O468 O 0.42207 0.89116 0.44005 0.0
O469 O 0.41881 0.86105 0.43024 0.0
O470 O 0.39134 0.84649 0.48801 0.0
O471 O 0.40595 0.82919 0.43137 0.0
H472 H 0.40233 0.81054 0.23553 0.0
H473 H 0.39946 0.81599 0.1548 0.0
H474 H 0.40566 0.87811 0.17613 0.0
H475 H 0.40897 0.87243 0.25678 0.0
H476 H 0.38756 0.91785 0.60621 0.0
H477 H 0.39005 0.9108 0.68635 0.0
H478 H 0.3891 0.84895 0.65755 0.0
H479 H 0.38635 0.85621 0.57727 0.0
C480 C 0.89455 0.88343 0.78633 0.0
Eu481 Eu 0.87931 0.89227 0.70842 0.0
C482 C 0.88955 0.88473 0.83455 0.0
C483 C 0.87695 0.89923 0.85108 0.0
C484 C 0.87295 0.9005 0.89716 0.0
C485 C 0.88142 0.88727 0.92771 0.0
C486 C 0.89383 0.87264 0.91073 0.0
C487 C 0.89783 0.87141 0.86475 0.0
C488 C 0.87759 0.92877 0.67266 0.0
C489 C 0.83231 0.89896 0.72295 0.0
C490 C 0.83874 0.90514 0.5497 0.0
Eu491 Eu 0.8537 0.8958 0.62771 0.0
C492 C 0.84363 0.90378 0.50145 0.0
C493 C 0.85644 0.88948 0.48494 0.0
C494 C 0.8603 0.88815 0.43879 0.0
C495 C 0.85153 0.90118 0.40823 0.0
C496 C 0.83893 0.91564 0.42522 0.0
C497 C 0.83504 0.9169 0.47124 0.0
C498 C 0.85651 0.85864 0.65947 0.0
C499 C 0.90119 0.88848 0.61567 0.0
O500 O 0.88445 0.8711 0.76212 0.0
O501 O 0.89783 0.89985 0.7653 0.0
O502 O 0.89327 0.92106 0.68931 0.0
O503 O 0.86327 0.91735 0.67775 0.0
O504 O 0.8491 0.89272 0.73922 0.0
O505 O 0.83054 0.90346 0.67989 0.0
O506 O 0.84923 0.91708 0.57393 0.0
O507 O 0.83503 0.88879 0.57062 0.0
O508 O 0.84056 0.86656 0.64479 0.0
O509 O 0.87047 0.87065 0.65623 0.0
O510 O 0.88466 0.89502 0.59796 0.0
O511 O 0.90215 0.88353 0.65838 0.0
H512 H 0.87029 0.90963 0.82839 0.0
H513 H 0.86312 0.91179 0.90881 0.0
H514 H 0.90082 0.86235 0.93311 0.0
H515 H 0.90762 0.86013 0.85279 0.0
H516 H 0.86338 0.87929 0.50767 0.0
H517 H 0.87028 0.877 0.42709 0.0
H518 H 0.83173 0.92578 0.40283 0.0
H519 H 0.82511 0.92804 0.48323 0.0
C520 C 0.9057 0.16851 0.47523 0.0
Eu521 Eu 0.89563 0.15385 0.39743 0.0
C522 C 0.90453 0.16356 0.52354 0.0
C523 C 0.88819 0.15408 0.54186 0.0
C524 C 0.88711 0.1504 0.5881 0.0
C525 C 0.90237 0.15605 0.61707 0.0
C526 C 0.91888 0.16514 0.59822 0.0
C527 C 0.91992 0.16885 0.55208 0.0
C528 C 0.85846 0.15145 0.36596 0.0
C529 C 0.88714 0.10645 0.40991 0.0
C530 C 0.8833 0.11269 0.239 0.0
Eu531 Eu 0.89182 0.12803 0.31697 0.0
C532 C 0.88465 0.11768 0.19073 0.0
C533 C 0.90044 0.12835 0.17333 0.0
C534 C 0.90176 0.13212 0.12715 0.0
C535 C 0.88727 0.12538 0.09731 0.0
C536 C 0.87127 0.11508 0.11526 0.0
C537 C 0.87003 0.11126 0.16132 0.0
C538 C 0.92812 0.12949 0.35383 0.0
C539 C 0.89881 0.17504 0.30193 0.0
O540 O 0.91733 0.15787 0.45057 0.0
O541 O 0.88938 0.17269 0.45466 0.0
O542 O 0.8665 0.16731 0.38101 0.0
O543 O 0.87033 0.13735 0.36881 0.0
O544 O 0.89404 0.1229 0.4275 0.0
O545 O 0.88234 0.10549 0.36709 0.0
O546 O 0.87081 0.12265 0.26303 0.0
O547 O 0.89965 0.10948 0.26035 0.0
O548 O 0.92019 0.11369 0.33817 0.0
O549 O 0.91695 0.14388 0.3475 0.0
O550 O 0.89248 0.15823 0.28579 0.0
O551 O 0.90332 0.17688 0.34498 0.0
H552 H 0.87614 0.14974 0.52055 0.0
H553 H 0.8741 0.14351 0.60124 0.0
H554 H 0.9311 0.16936 0.61911 0.0
H555 H 0.93275 0.17602 0.53869 0.0
H556 H 0.91189 0.13357 0.19533 0.0
H557 H 0.91438 0.13995 0.11478 0.0
H558 H 0.8596 0.11 0.09375 0.0
H559 H 0.85764 0.10313 0.17397 0.0
C560 C 0.10984 0.12253 0.79396 0.0
Eu561 Eu 0.12588 0.11577 0.71582 0.0
C562 C 0.11475 0.12138 0.84238 0.0
C563 C 0.1013 0.11298 0.87211 0.0
C564 C 0.10532 0.11191 0.91811 0.0
C565 C 0.12294 0.11922 0.93567 0.0
C566 C 0.13645 0.12762 0.9057 0.0
C567 C 0.13239 0.12871 0.85961 0.0
C568 C 0.12812 0.08006 0.67614 0.0
C569 C 0.17295 0.1102 0.73162 0.0
C570 C 0.16749 0.10656 0.5577 0.0
Eu571 Eu 0.15201 0.11412 0.63609 0.0
C572 C 0.16271 0.10862 0.50939 0.0
C573 C 0.17709 0.11538 0.47973 0.0
C574 C 0.17326 0.11693 0.43372 0.0
C575 C 0.15493 0.11168 0.41611 0.0
C576 C 0.14047 0.10502 0.44599 0.0
C577 C 0.14429 0.10357 0.49213 0.0
C578 C 0.14848 0.15064 0.67114 0.0
C579 C 0.10443 0.12095 0.62276 0.0
O580 O 0.11854 0.13595 0.76995 0.0
O581 O 0.10818 0.10597 0.7725 0.0
O582 O 0.11226 0.08741 0.69269 0.0
O583 O 0.14236 0.09141 0.68318 0.0
O584 O 0.15594 0.11594 0.74765 0.0
O585 O 0.17501 0.10614 0.6884 0.0
O586 O 0.15743 0.09388 0.58096 0.0
O587 O 0.17082 0.12262 0.58007 0.0
O588 O 0.16468 0.14309 0.65684 0.0
O589 O 0.13469 0.13853 0.66622 0.0
O590 O 0.12132 0.11556 0.60486 0.0
O591 O 0.10288 0.12449 0.66611 0.0
H592 H 0.08755 0.10733 0.85974 0.0
H593 H 0.0944 0.10563 0.94001 0.0
H594 H 0.15027 0.1332 0.91776 0.0
H595 H 0.14305 0.1353 0.83752 0.0
H596 H 0.19142 0.1193 0.49215 0.0
H597 H 0.18483 0.12188 0.4118 0.0
H598 H 0.12612 0.10108 0.43377 0.0
H599 H 0.13286 0.09841 0.5142 0.0
C600 C 0.10938 0.83513 0.47401 0.0
Eu601 Eu 0.11573 0.85579 0.40166 0.0
C602 C 0.11202 0.83823 0.52283 0.0
C603 C 0.12313 0.85392 0.53927 0.0
C604 C 0.12494 0.85709 0.58562 0.0
C605 C 0.11559 0.8447 0.6167 0.0
C606 C 0.10446 0.829 0.59981 0.0
C607 C 0.10272 0.82583 0.55349 0.0
C608 C 0.15153 0.86984 0.38024 0.0
C609 C 0.11933 0.90289 0.41047 0.0
C610 C 0.12001 0.89537 0.23768 0.0
Eu611 Eu 0.11578 0.88027 0.3178 0.0
C612 C 0.12255 0.88906 0.19028 0.0
C613 C 0.11182 0.87338 0.17231 0.0
C614 C 0.11277 0.86894 0.12641 0.0
C615 C 0.1244 0.88014 0.09714 0.0
C616 C 0.13554 0.8955 0.11557 0.0
C617 C 0.1346 0.89989 0.16151 0.0
C618 C 0.0811 0.87951 0.36252 0.0
C619 C 0.11433 0.83312 0.30503 0.0
O620 O 0.09615 0.84599 0.45473 0.0
O621 O 0.1252 0.83358 0.44967 0.0
O622 O 0.14449 0.86894 0.42041 0.0
O623 O 0.13935 0.86307 0.35213 0.0
O624 O 0.11186 0.88682 0.42858 0.0
O625 O 0.12521 0.90306 0.3682 0.0
O626 O 0.1346 0.89293 0.26555 0.0
O627 O 0.10318 0.89146 0.25613 0.0
O628 O 0.088 0.89483 0.34266 0.0
O629 O 0.0922 0.86503 0.3562 0.0
O630 O 0.1142 0.85054 0.2864 0.0
O631 O 0.1148 0.83103 0.34932 0.0
H632 H 0.13035 0.86379 0.51623 0.0
H633 H 0.13382 0.86918 0.59706 0.0
H634 H 0.09673 0.81932 0.62235 0.0
H635 H 0.09389 0.81376 0.54159 0.0
H636 H 0.10224 0.86485 0.19351 0.0
H637 H 0.10383 0.85715 0.11366 0.0
H638 H 0.14492 0.90426 0.09442 0.0
H639 H 0.14298 0.91208 0.1744 0.0
H640 H 0.40055 0.90516 0.2791 0.0
H641 H 0.39826 0.93523 0.2349 0.0
H642 H 0.37258 0.96486 0.34787 0.0
H643 H 0.37492 0.935 0.39228 0.0
H644 H 0.36603 0.95837 0.21126 0.0
H645 H 0.41823 1.00058 0.31523 0.0
H646 H 0.41588 0.97439 0.31933 0.0
H647 H 0.39847 0.99007 0.34647 0.0
C648 C 0.39438 0.91803 0.29458 0.0
C649 C 0.38802 0.91756 0.33946 0.0
C650 C 0.39307 0.93526 0.2692 0.0
C651 C 0.38553 0.95247 0.28818 0.0
C652 C 0.37882 0.95194 0.33265 0.0
H653 H 0.34824 0.05858 0.14668 0.0
H654 H 0.34942 0.02785 0.18898 0.0
C655 C 0.38009 0.93475 0.35799 0.0
C656 C 0.38467 0.97098 0.26162 0.0
H657 H 0.40058 0.01835 0.26029 0.0
C658 C 0.37361 0.97147 0.22194 0.0
C659 C 0.39474 0.98807 0.27515 0.0
C660 C 0.40766 0.98829 0.31613 0.0
C661 C 0.3721 0.9886 0.19594 0.0
C662 C 0.38172 0.00585 0.21018 0.0
C663 C 0.39302 0.00525 0.2495 0.0
C664 C 0.38076 0.02452 0.18423 0.0
C665 C 0.36054 0.98796 0.15292 0.0
C666 C 0.39797 0.03323 0.16823 0.0
C667 C 0.39731 0.05084 0.14434 0.0
C668 C 0.37945 0.06028 0.13613 0.0
C669 C 0.36222 0.05166 0.15236 0.0
C670 C 0.36288 0.034 0.17628 0.0
H671 H 0.35835 0.97274 0.14097 0.0
H672 H 0.34596 0.99451 0.15875 0.0
H673 H 0.36791 0.99643 0.12611 0.0
H674 H 0.41195 0.02632 0.17403 0.0
H675 H 0.41086 0.05712 0.13247 0.0
H676 H 0.93635 0.6313 0.63608 0.0
H677 H 0.96562 0.63332 0.68264 0.0
H678 H 0.93248 0.61459 0.79763 0.0
H679 H 0.90314 0.61223 0.7511 0.0
H680 H 0.97368 0.65543 0.75717 0.0
H681 H 0.97801 0.5767 0.80012 0.0
H682 H 0.96223 0.58584 0.75647 0.0
H683 H 0.95522 0.58801 0.81434 0.0
C684 C 0.93522 0.62757 0.67126 0.0
C685 C 0.9173 0.62148 0.68964 0.0
C686 C 0.95203 0.62875 0.69791 0.0
C687 C 0.95143 0.6238 0.74359 0.0
C688 C 0.9335 0.61806 0.76229 0.0
H689 H 0.04301 0.61971 0.94983 0.0
H690 H 0.01166 0.61925 0.90964 0.0
C691 C 0.91665 0.61684 0.73562 0.0
C692 C 0.96955 0.6249 0.77145 0.0
H693 H 1.00062 0.59766 0.83596 0.0
C694 C 0.97956 0.64278 0.77435 0.0
C695 C 0.97729 0.60843 0.79408 0.0
C696 C 0.96777 0.58861 0.79089 0.0
C697 C 0.99691 0.64468 0.79932 0.0
C698 C 0.00477 0.62816 0.8215 0.0
C699 C 0.99464 0.61034 0.81908 0.0
C700 C 0.0237 0.62895 0.84638 0.0
C701 C 0.0065 0.66447 0.80225 0.0
C702 C 0.04102 0.63421 0.82423 0.0
C703 C 0.05886 0.63453 0.84725 0.0
C704 C 0.0598 0.6297 0.89291 0.0
C705 C 0.04261 0.62395 0.91485 0.0
C706 C 0.02472 0.62364 0.89188 0.0
H707 H 0.99602 0.67642 0.79487 0.0
H708 H 0.01286 0.66697 0.83602 0.0
H709 H 0.01843 0.6653 0.77722 0.0
H710 H 0.04085 0.63761 0.78878 0.0
H711 H 0.07198 0.63769 0.82875 0.0
H712 H 0.66145 0.94783 0.13869 0.0
H713 H 0.66154 0.97816 0.18302 0.0
H714 H 0.59901 0.98185 0.17014 0.0
H715 H 0.59882 0.95161 0.12656 0.0
H716 H 0.64795 0.01623 0.16178 0.0
H717 H 0.60741 0.98534 0.30601 0.0
H718 H 0.61844 0.97022 0.2634 0.0
H719 H 0.59537 0.98189 0.25312 0.0
C720 C 0.64774 0.95512 0.14542 0.0
C721 C 0.63012 0.94723 0.12939 0.0
C722 C 0.6478 0.97247 0.17066 0.0
C723 C 0.63024 0.98219 0.1806 0.0
C724 C 0.61271 0.97449 0.16376 0.0
H725 H 0.61161 0.10148 0.27732 0.0
H726 H 0.6147 0.07183 0.23186 0.0
C727 C 0.61265 0.95722 0.13857 0.0
C728 C 0.63008 1.00033 0.20849 0.0
H729 H 0.61115 0.01986 0.30468 0.0
C730 C 0.63999 0.01701 0.19314 0.0
C731 C 0.6199 1.00134 0.24974 0.0
C732 C 0.60982 0.98371 0.26936 0.0
C733 C 0.6396 0.03472 0.21732 0.0
C734 C 0.6288 0.03592 0.25775 0.0
C735 C 0.61927 0.01909 0.27353 0.0
C736 C 0.62741 0.05431 0.28475 0.0
C737 C 0.65105 0.05188 0.19967 0.0
C738 C 0.63315 0.0544 0.32998 0.0
C739 C 0.63124 0.07129 0.35618 0.0
C740 C 0.62345 0.08858 0.33792 0.0
C741 C 0.61777 0.08851 0.29253 0.0
C742 C 0.61965 0.07156 0.26633 0.0
H743 H 0.66265 0.04718 0.17601 0.0
H744 H 0.64105 0.06181 0.18133 0.0
H745 H 0.6579 0.06024 0.22745 0.0
H746 H 0.6391 0.04133 0.34515 0.0
H747 H 0.63578 0.07071 0.39094 0.0
H748 H 0.9463 0.34702 0.88697 0.0
H749 H 0.97683 0.34742 0.84374 0.0
H750 H 0.98038 0.40989 0.86001 0.0
H751 H 0.94984 0.4096 0.90226 0.0
H752 H 0.98711 0.39911 0.77378 0.0
H753 H 0.03266 0.35421 0.88776 0.0
H754 H 0.01042 0.34261 0.87032 0.0
H755 H 0.00942 0.3642 0.90455 0.0
C756 C 0.95366 0.36081 0.88145 0.0
C757 C 0.94564 0.37827 0.8981 0.0
C758 C 0.9712 0.36102 0.85699 0.0
C759 C 0.98115 0.37867 0.84899 0.0
C760 C 0.9731 0.39607 0.86574 0.0
H761 H 0.10004 0.39682 0.74974 0.0
H762 H 0.07038 0.39427 0.79533 0.0
C763 C 0.95562 0.39587 0.89005 0.0
C764 C 0.99955 0.3793 0.82195 0.0
H765 H 0.04658 0.36253 0.81741 0.0
C766 C 1.00009 0.39109 0.78339 0.0
C767 C 0.01666 0.36908 0.83464 0.0
C768 C 0.01742 0.35695 0.87679 0.0
C769 C 0.01706 0.39279 0.75709 0.0
C770 C 0.03402 0.38216 0.76905 0.0
C771 C 0.03358 0.37055 0.80791 0.0
C772 C 0.0523 0.38303 0.7417 0.0
C773 C 0.01678 0.40633 0.7172 0.0
C774 C 0.05224 0.37721 0.69652 0.0
C775 C 0.06916 0.37869 0.67034 0.0
C776 C 0.08667 0.38591 0.6887 0.0
C777 C 0.08685 0.39128 0.73431 0.0
C778 C 0.06987 0.38979 0.76051 0.0
H779 H 0.00483 0.41724 0.71969 0.0
H780 H 0.03085 0.41423 0.71383 0.0
H781 H 0.01439 0.39766 0.68625 0.0
H782 H 0.03904 0.37155 0.68136 0.0
H783 H 0.06842 0.37426 0.63552 0.0
H784 H 0.34493 0.44825 0.1392 0.0
H785 H 0.3454 0.47876 0.09556 0.0
H786 H 0.40789 0.48174 0.11012 0.0
H787 H 0.40753 0.45135 0.15305 0.0
H788 H 0.35954 0.51672 0.1181 0.0
H789 H 0.39999 0.48561 0.97389 0.0
H790 H 0.38851 0.47054 0.01593 0.0
H791 H 0.41172 0.48179 0.027 0.0
C792 C 0.35875 0.45543 0.13301 0.0
C793 C 0.3762 0.44729 0.14931 0.0
C794 C 0.359 0.47288 0.10817 0.0
C795 C 0.37672 0.48244 0.09888 0.0
C796 C 0.39407 0.4745 0.11602 0.0
H797 H 0.39719 0.60174 1.00369 0.0
H798 H 0.39395 0.57198 0.04869 0.0
C799 C 0.39382 0.45715 0.14084 0.0
C800 C 0.37723 0.50066 0.0713 0.0
H801 H 0.39661 0.52014 0.97555 0.0
C802 C 0.36757 0.51745 0.08683 0.0
C803 C 0.38752 0.50163 0.03018 0.0
C804 C 0.39738 0.4839 1.01044 0.0
C805 C 0.36827 0.53522 0.06293 0.0
C806 C 0.37915 0.53635 0.02259 0.0
C807 C 0.38845 0.51943 1.00665 0.0
C808 C 0.38078 0.55477 0.9958 0.0
C809 C 0.35709 0.55252 0.08076 0.0
C810 C 0.37486 0.55505 0.9507 0.0
C811 C 0.37683 0.57201 0.92478 0.0
C812 C 0.38489 0.58916 0.94317 0.0
C813 C 0.39084 0.58887 0.98838 0.0
C814 C 0.38886 0.57186 0.01432 0.0
H815 H 0.34548 0.54797 0.10454 0.0
H816 H 0.36726 0.56233 0.09897 0.0
H817 H 0.3503 0.56095 0.05306 0.0
H818 H 0.36866 0.5421 0.93546 0.0
H819 H 0.3721 0.57159 0.89015 0.0
H820 H 0.60041 0.61116 0.02731 0.0
H821 H 0.57089 0.61427 0.98159 0.0
H822 H 0.54015 0.6384 0.09483 0.0
H823 H 0.56942 0.63507 0.14087 0.0
H824 H 0.51887 0.61036 0.05335 0.0
H825 H 0.54646 0.66266 0.92656 0.0
H826 H 0.5611 0.64105 0.93177 0.0
H827 H 0.5593 0.65773 0.97819 0.0
C828 C 0.58743 0.61726 0.04247 0.0
C829 C 0.58741 0.62289 0.08789 0.0
C830 C 0.57054 0.61915 0.01612 0.0
C831 C 0.55328 0.62686 0.03444 0.0
C832 C 0.55325 0.63249 0.07974 0.0
H833 H 0.44722 0.66231 0.89015 0.0
H834 H 0.47767 0.66177 0.93382 0.0
C835 C 0.57008 0.63058 0.10608 0.0
C836 C 0.535 0.62833 1.00721 0.0
H837 H 0.51556 0.64813 0.91169 0.0
C838 C 0.51817 0.61867 0.02245 0.0
C839 C 0.5339 0.6394 0.96713 0.0
C840 C 0.55109 0.65097 0.95008 0.0
C841 C 0.50049 0.61945 0.99847 0.0
C842 C 0.49958 0.62993 0.95759 0.0
C843 C 0.51627 0.63994 0.94275 0.0
C844 C 0.48146 0.63045 0.92973 0.0
C845 C 0.48284 0.60924 0.01752 0.0
C846 C 0.47363 0.61312 0.91208 0.0
C847 C 0.45629 0.6134 0.88723 0.0
C848 C 0.44638 0.63104 0.87926 0.0
C849 C 0.45446 0.64848 0.89593 0.0
C850 C 0.47187 0.64819 0.92082 0.0
H851 H 0.48444 0.60645 0.05403 0.0
H852 H 0.46941 0.61798 1.01198 0.0
H853 H 0.48096 0.59495 1.0005 0.0
H854 H 0.48091 0.59929 0.91768 0.0
H855 H 0.45052 0.59972 0.87469 0.0
H856 H 0.66007 0.55989 0.13731 0.0
H857 H 0.65992 0.52955 0.09303 0.0
H858 H 0.59741 0.52612 0.10634 0.0
H859 H 0.59744 0.55639 0.14986 0.0
H860 H 0.6463 0.49159 0.11424 0.0
H861 H 0.60547 0.52256 0.97048 0.0
H862 H 0.6166 0.53766 1.01301 0.0
H863 H 0.59355 0.526 0.02348 0.0
C864 C 0.64631 0.55266 0.13069 0.0
C865 C 0.62875 0.56063 0.14681 0.0
C866 C 0.64624 0.5353 0.10548 0.0
C867 C 0.62861 0.52566 0.09566 0.0
C868 C 0.61115 0.53343 0.11262 0.0
H869 H 0.60981 0.40638 0.99869 0.0
H870 H 0.61291 0.43601 0.04421 0.0
C871 C 0.61122 0.55071 0.13778 0.0
C872 C 0.62833 0.50752 0.06775 0.0
H873 H 0.60918 0.48805 0.97166 0.0
C874 C 0.63826 0.49083 0.08295 0.0
C875 C 0.61806 0.50654 0.02659 0.0
C876 C 0.60796 0.52418 1.0071 0.0
C877 C 0.63782 0.47314 0.05871 0.0
C878 C 0.62693 0.47196 0.01838 0.0
C879 C 0.61737 0.48879 1.00275 0.0
C880 C 0.6255 0.45359 0.9913 0.0
C881 C 0.64932 0.45598 0.07618 0.0
C882 C 0.63116 0.45355 0.94603 0.0
C883 C 0.62925 0.43667 0.9198 0.0
C884 C 0.62154 0.41934 0.93805 0.0
C885 C 0.61591 0.41937 0.98347 0.0
C886 C 0.6178 0.43632 1.00971 0.0
H887 H 0.66097 0.46067 0.09976 0.0
H888 H 0.63937 0.44602 0.09455 0.0
H889 H 0.65611 0.44766 0.0483 0.0
H890 H 0.63707 0.46665 0.93087 0.0
H891 H 0.63373 0.43728 0.88502 0.0
H892 H 0.43809 0.38741 0.14414 0.0
H893 H 0.46734 0.38505 0.09778 0.0
H894 H 0.43146 0.38017 0.97942 0.0
H895 H 0.40213 0.38361 0.02559 0.0
H896 H 0.48223 0.3587 0.04784 0.0
H897 H 0.46681 0.42152 0.93683 0.0
H898 H 0.45225 0.41636 0.98564 0.0
H899 H 0.44798 0.40342 0.93389 0.0
C900 C 0.4364 0.38592 0.10819 0.0
C901 C 0.41771 0.38585 0.08863 0.0
C902 C 0.4532 0.38454 0.0816 0.0
C903 C 0.45184 0.38281 0.03469 0.0
C904 C 0.43312 0.38216 0.01521 0.0
H905 H 0.55516 0.34682 0.87664 0.0
H906 H 0.52439 0.34692 0.91874 0.0
C907 C 0.41628 0.38396 0.04176 0.0
C908 C 0.47003 0.38149 1.00673 0.0
H909 H 0.49331 0.40119 0.91587 0.0
C910 C 0.48463 0.36808 0.01907 0.0
C911 C 0.47351 0.39385 0.9694 0.0
C912 C 0.45941 0.40973 0.95593 0.0
C913 C 0.50244 0.36672 0.99559 0.0
C914 C 0.5056 0.37856 0.95727 0.0
C915 C 0.49096 0.39192 0.94482 0.0
C916 C 0.52425 0.37814 0.93085 0.0
C917 C 0.51793 0.35311 1.01338 0.0
C918 C 0.53425 0.39565 0.92183 0.0
C919 C 0.55152 0.39564 0.89673 0.0
C920 C 0.55942 0.3781 0.8803 0.0
C921 C 0.54951 0.36055 0.88916 0.0
C922 C 0.53198 0.3606 0.91365 0.0
H923 H 0.51573 0.34991 0.04955 0.0
H924 H 0.51717 0.33905 0.99498 0.0
H925 H 0.53276 0.35935 1.00898 0.0
H926 H 0.52875 0.40942 0.93449 0.0
H927 H 0.55883 0.40941 0.89064 0.0
H928 H 0.87063 0.43716 0.89184 0.0
H929 H 0.86725 0.46652 0.84608 0.0
H930 H 0.89192 0.4361 0.73297 0.0
H931 H 0.89508 0.40647 0.77842 0.0
H932 H 0.89516 0.48812 0.80566 0.0
H933 H 0.84374 0.46043 0.67701 0.0
H934 H 0.84854 0.44747 0.72853 0.0
H935 H 0.8654 0.44591 0.68249 0.0
C936 C 0.87522 0.43659 0.85713 0.0
C937 C 0.88308 0.41932 0.83891 0.0
C938 C 0.87329 0.45347 0.83095 0.0
C939 C 0.87906 0.45357 0.78577 0.0
C940 C 0.88693 0.43636 0.7674 0.0
H941 H 0.90697 0.55625 0.62732 0.0
H942 H 0.90697 0.52606 0.67096 0.0
C943 C 0.88885 0.41941 0.79359 0.0
C944 C 0.87757 0.47193 0.75875 0.0
H945 H 0.85822 0.49146 0.66283 0.0
C946 C 0.88702 0.48882 0.77451 0.0
C947 C 0.86672 0.47305 0.71835 0.0
C948 C 0.85536 0.45582 0.70073 0.0
C949 C 0.88627 0.50656 0.75072 0.0
C950 C 0.87604 0.50749 0.70949 0.0
C951 C 0.86621 0.49075 0.69417 0.0
C952 C 0.87576 0.52561 0.68158 0.0
C953 C 0.89626 0.52426 0.77029 0.0
C954 C 0.85814 0.53525 0.67172 0.0
C955 C 0.8581 0.55258 0.64645 0.0
C956 C 0.87567 0.56052 0.63031 0.0
C957 C 0.89319 0.5506 0.6394 0.0
C958 C 0.89323 0.53336 0.66463 0.0
H959 H 0.89874 0.52266 0.80693 0.0
H960 H 0.91068 0.52616 0.75398 0.0
H961 H 0.88756 0.53769 0.76437 0.0
H962 H 0.84445 0.52951 0.68416 0.0
H963 H 0.84435 0.55982 0.63979 0.0
H964 H 0.55963 0.16058 0.38807 0.0
H965 H 0.52926 0.16001 0.34412 0.0
H966 H 0.52724 0.09728 0.35563 0.0
H967 H 0.55757 0.09777 0.39881 0.0
H968 H 0.52057 0.10978 0.26912 0.0
H969 H 0.4735 0.15046 0.38828 0.0
H970 H 0.49556 0.16287 0.37257 0.0
H971 H 0.49691 0.14059 0.40418 0.0
C972 C 0.55264 0.1467 0.38134 0.0
C973 C 0.56101 0.12923 0.397 0.0
C974 C 0.53521 0.14638 0.35644 0.0
C975 C 0.52575 0.1286 0.3469 0.0
C976 C 0.53416 0.11119 0.36256 0.0
H977 H 0.40773 0.10663 0.24933 0.0
H978 H 0.43781 0.10963 0.29324 0.0
C979 C 0.5515 0.1115 0.38741 0.0
C980 C 0.5074 0.1279 0.31971 0.0
H981 H 0.45967 0.1426 0.31771 0.0
C982 C 0.50728 0.117 0.27974 0.0
C983 C 0.48992 0.13709 0.33371 0.0
C984 C 0.48882 0.14828 0.37721 0.0
C985 C 0.49031 0.11515 0.25341 0.0
C986 C 0.47293 0.12466 0.26693 0.0
C987 C 0.47299 0.13544 0.30707 0.0
C988 C 0.45448 0.12327 0.24025 0.0
C989 C 0.49104 0.1026 0.21184 0.0
C990 C 0.45364 0.13018 0.19593 0.0
C991 C 0.43644 0.12847 0.17067 0.0
C992 C 0.4196 0.11987 0.18914 0.0
C993 C 0.42039 0.11325 0.23382 0.0
C994 C 0.4376 0.11499 0.25908 0.0
H995 H 0.5037 0.09248 0.21229 0.0
H996 H 0.47747 0.09388 0.20818 0.0
H997 H 0.49246 0.11213 0.18194 0.0
H998 H 0.4663 0.13696 0.18083 0.0
H999 H 0.43641 0.13388 0.13656 0.0
H1000 H 0.13146 0.56982 0.89578 0.0
H1001 H 0.13483 0.54035 0.85011 0.0
H1002 H 0.10951 0.57042 0.73729 0.0
H1003 H 0.10635 0.60009 0.78253 0.0
H1004 H 0.10735 0.51812 0.80885 0.0
H1005 H 0.15829 0.54741 0.68136 0.0
H1006 H 0.15318 0.56005 0.73316 0.0
H1007 H 0.13638 0.56154 0.68692 0.0
C1008 C 0.12666 0.57025 0.8612 0.0
C1009 C 0.11869 0.58745 0.84293 0.0
C1010 C 0.1286 0.55332 0.83507 0.0
C1011 C 0.12274 0.55314 0.7899 0.0
C1012 C 0.11459 0.57023 0.77166 0.0
H1013 H 0.0963 0.45096 0.62795 0.0
H1014 H 0.09587 0.48075 0.67315 0.0
C1015 C 0.11266 0.58719 0.79777 0.0
C1016 C 0.12461 0.5349 0.76249 0.0
H1017 H 0.14413 0.51634 0.66574 0.0
C1018 C 0.11547 0.51776 0.77766 0.0
C1019 C 0.13545 0.53421 0.72204 0.0
C1020 C 0.14655 0.55172 0.70505 0.0
C1021 C 0.11645 0.50019 0.75314 0.0
C1022 C 0.1266 0.49971 0.71179 0.0
C1023 C 0.13618 0.5167 0.69714 0.0
C1024 C 0.12711 0.48181 0.68305 0.0
C1025 C 0.10677 0.48221 0.77208 0.0
C1026 C 0.14488 0.47269 0.67217 0.0
C1027 C 0.14518 0.45561 0.64597 0.0
C1028 C 0.12771 0.44739 0.6299 0.0
C1029 C 0.11002 0.45683 0.63996 0.0
C1030 C 0.10973 0.47382 0.66612 0.0
H1031 H 0.10443 0.48349 0.80883 0.0
H1032 H 0.0923 0.48027 0.75598 0.0
H1033 H 0.11561 0.46894 0.76538 0.0
H1034 H 0.15852 0.47862 0.68453 0.0
H1035 H 0.15905 0.44877 0.63855 0.0
H1036 H 0.60496 0.8823 0.24973 0.0
H1037 H 0.5761 0.87767 0.29694 0.0
H1038 H 0.53919 0.88302 0.1804 0.0
H1039 H 0.56796 0.88665 0.133 0.0
H1040 H 0.54725 0.89932 0.31781 0.0
H1041 H 0.51544 0.83562 0.23137 0.0
H1042 H 0.53955 0.84449 0.21854 0.0
H1043 H 0.51837 0.85549 0.19297 0.0
C1044 C 0.59069 0.88231 0.23412 0.0
C1045 C 0.58883 0.88464 0.18744 0.0
C1046 C 0.57415 0.87966 0.2612 0.0
C1047 C 0.5553 0.87947 0.24237 0.0
C1048 C 0.55346 0.88231 0.19585 0.0
H1049 H 0.44947 0.90644 0.38992 0.0
H1050 H 0.47976 0.90659 0.34704 0.0
C1051 C 0.56999 0.88457 0.16869 0.0
C1052 C 0.53759 0.87719 0.27148 0.0
H1053 H 0.49381 0.85337 0.27994 0.0
C1054 C 0.53569 0.8891 0.30965 0.0
C1055 C 0.52252 0.86357 0.2619 0.0
C1056 C 0.52418 0.84893 0.22426 0.0
C1057 C 0.5191 0.88824 0.33741 0.0
C1058 C 0.5034 0.87567 0.32589 0.0
C1059 C 0.50556 0.86329 0.2886 0.0
C1060 C 0.48458 0.87539 0.35151 0.0
C1061 C 0.51884 0.9006 0.37931 0.0
C1062 C 0.4764 0.8577 0.3667 0.0
C1063 C 0.45867 0.85755 0.39039 0.0
C1064 C 0.44883 0.87509 0.39971 0.0
C1065 C 0.45687 0.8927 0.38401 0.0
C1066 C 0.47434 0.89281 0.35973 0.0
H1067 H 0.53387 0.90353 0.39158 0.0
H1068 H 0.51202 0.91491 0.37164 0.0
H1069 H 0.51048 0.89348 0.40665 0.0
H1070 H 0.4838 0.844 0.36053 0.0
H1071 H 0.45276 0.84375 0.40178 0.0
H1072 H 0.90848 0.95212 0.65283 0.0
H1073 H 0.90868 0.98271 0.61061 0.0
H1074 H 0.84635 0.9787 0.59337 0.0
H1075 H 0.84605 0.94813 0.63656 0.0
H1076 H 0.89797 0.98918 0.52398 0.0
H1077 H 0.85278 0.03471 0.63743 0.0
H1078 H 0.86291 0.01155 0.65446 0.0
H1079 H 0.84138 0.01233 0.6201 0.0
C1080 C 0.89477 0.95782 0.64043 0.0
C1081 C 0.87724 0.94769 0.64813 0.0
C1082 C 0.89491 0.97532 0.61614 0.0
C1083 C 0.87752 0.98324 0.59909 0.0
C1084 C 0.85994 0.97316 0.60683 0.0
H1085 H 0.87306 0.0705 0.38545 0.0
H1086 H 0.87025 0.04111 0.43133 0.0
C1087 C 0.85979 0.9556 0.63126 0.0
C1088 C 0.8781 1.00162 0.57198 0.0
H1089 H 0.8612 0.04864 0.56716 0.0
C1090 C 0.88991 1.00216 0.53348 0.0
C1091 C 0.86782 0.01872 0.58453 0.0
C1092 C 0.85564 0.01946 0.62659 0.0
C1093 C 0.89158 0.01913 0.50712 0.0
C1094 C 0.8809 0.03608 0.51897 0.0
C1095 C 0.86926 0.03564 0.55776 0.0
C1096 C 0.88178 0.05437 0.49163 0.0
C1097 C 0.90513 0.01886 0.46727 0.0
C1098 C 0.88861 0.07193 0.51042 0.0
C1099 C 0.89016 0.0889 0.48421 0.0
C1100 C 0.88479 0.08874 0.4386 0.0
C1101 C 0.87749 0.07123 0.42027 0.0
C1102 C 0.87596 0.05431 0.44647 0.0
H1103 H 0.91601 0.00689 0.46974 0.0
H1104 H 0.89648 0.01652 0.43628 0.0
H1105 H 0.91304 0.03295 0.464 0.0
H1106 H 0.8931 0.07242 0.54523 0.0
H1107 H 0.89577 0.10209 0.4996 0.0
H1108 H 0.06615 0.12076 0.64847 0.0
H1109 H 0.03715 0.12292 0.60118 0.0
H1110 H 0.07365 0.12904 0.48425 0.0
H1111 H 0.10275 0.12581 0.5313 0.0
H1112 H 0.02216 0.14933 0.5514 0.0
H1113 H 0.03926 0.08725 0.43943 0.0
H1114 H 0.05342 0.09242 0.48892 0.0
H1115 H 0.05784 0.10563 0.43766 0.0
C1116 C 0.06804 0.12248 0.61264 0.0
C1117 C 0.08683 0.12296 0.59372 0.0
C1118 C 0.05138 0.12376 0.58552 0.0
C1119 C 0.05299 0.12576 0.53873 0.0
C1120 C 0.07181 0.12683 0.51991 0.0
H1121 H 0.95058 0.16116 0.37728 0.0
H1122 H 0.98105 0.16115 0.42061 0.0
C1123 C 0.08851 0.12515 0.54697 0.0
C1124 C 0.03497 0.12692 0.51016 0.0
H1125 H 0.01263 0.10729 0.41789 0.0
C1126 C 0.02009 0.14006 0.5223 0.0
C1127 C 0.03194 0.11467 0.4724 0.0
C1128 C 0.04636 0.09906 0.4591 0.0
C1129 C 1.00244 0.14128 0.49814 0.0
C1130 C 0.99974 0.12957 0.45937 0.0
C1131 C 0.01464 0.11647 0.44718 0.0
C1132 C 0.98132 0.1299 0.43216 0.0
C1133 C 0.98663 0.15458 0.51562 0.0
C1134 C 0.97153 0.11235 0.42241 0.0
C1135 C 0.95443 0.11231 0.39666 0.0
C1136 C 0.94652 0.12984 0.38027 0.0
C1137 C 0.95625 0.14743 0.38975 0.0
C1138 C 0.9736 0.14744 0.41494 0.0
H1139 H 0.98851 0.15765 0.55195 0.0
H1140 H 0.98732 0.16874 0.49761 0.0
H1141 H 0.97192 0.14816 0.51043 0.0
H1142 H 0.97704 0.09859 0.43505 0.0
H1143 H 0.94725 0.0985 0.39008 0.0
H1144 H 0.10932 0.90835 0.49893 0.0
H1145 H 0.11202 0.93829 0.54355 0.0
H1146 H 0.1366 0.96833 0.4299 0.0
H1147 H 0.13376 0.9386 0.38493 0.0
H1148 H 0.14435 0.96105 0.5664 0.0
H1149 H 0.09177 0.00425 0.46569 0.0
H1150 H 0.09396 0.97809 0.4604 0.0
H1151 H 0.11135 0.99389 0.4336 0.0
C1152 C 0.11525 0.92133 0.48329 0.0
C1153 C 0.12116 0.92102 0.43806 0.0
C1154 C 0.11684 0.93846 0.50896 0.0
C1155 C 0.12425 0.95573 0.49002 0.0
C1156 C 0.13046 0.95536 0.44514 0.0
H1157 H 0.15999 0.06114 0.64008 0.0
H1158 H 0.16003 0.03106 0.59494 0.0
C1159 C 0.1289 0.93826 0.41946 0.0
C1160 C 0.12546 0.97409 0.51715 0.0
H1161 H 0.10937 0.02135 0.52166 0.0
C1162 C 0.13671 0.97424 0.5566 0.0
C1163 C 0.11535 0.9913 0.50474 0.0
C1164 C 0.10227 0.99192 0.46405 0.0
C1165 C 0.13821 0.99108 0.58365 0.0
C1166 C 0.1284 0.0084 0.57075 0.0
C1167 C 0.11707 0.00819 0.53144 0.0
C1168 C 0.12879 0.0266 0.59859 0.0
C1169 C 0.1499 0.99003 0.62645 0.0
C1170 C 0.11127 0.0344 0.6151 0.0
C1171 C 0.11123 0.05159 0.64056 0.0
C1172 C 0.12871 0.06154 0.65 0.0
C1173 C 0.1463 0.0538 0.63349 0.0
C1174 C 0.14633 0.03652 0.60792 0.0
H1175 H 0.15261 0.9747 0.6369 0.0
H1176 H 0.16423 0.9972 0.62118 0.0
H1177 H 0.1423 0.99776 0.65412 0.0
H1178 H 0.09753 0.02713 0.60837 0.0
H1179 H 0.0974 0.05716 0.65259 0.0
H1180 H 0.07444 0.87449 0.45191 0.0
H1181 H 0.04317 0.87475 0.49136 0.0
H1182 H 0.01364 0.88686 0.36671 0.0
H1183 H 0.04503 0.88561 0.32697 0.0
H1184 H 0.0176 0.90434 0.50028 0.0
H1185 H 0.98033 0.8428 0.41471 0.0
H1186 H 0.00622 0.84702 0.40967 0.0
H1187 H 0.98927 0.86125 0.37725 0.0
C1188 C 0.06123 0.8763 0.43268 0.0
C1189 C 0.06208 0.87904 0.3861 0.0
C1190 C 0.04333 0.87686 0.45537 0.0
C1191 C 0.02585 0.88034 0.43202 0.0
C1192 C 0.02676 0.88352 0.38544 0.0
H1193 H 0.90506 0.89546 0.52509 0.0
H1194 H 0.93488 0.89381 0.47977 0.0
C1195 C 0.0447 0.88293 0.36276 0.0
C1196 C 0.00693 0.88157 0.45691 0.0
H1197 H 0.96105 0.86197 0.46399 0.0
C1198 C 0.00528 0.89501 0.49236 0.0
C1199 C 0.99072 0.86951 0.4466 0.0
C1200 C 0.99171 0.8542 0.41027 0.0
C1201 C 0.98799 0.89678 0.51749 0.0
C1202 C 0.97187 0.88459 0.50749 0.0
C1203 C 0.97337 0.87133 0.47168 0.0
C1204 C 0.95356 0.88507 0.53468 0.0
C1205 C 0.98704 0.91191 0.55421 0.0
C1206 C 0.95398 0.88034 0.58048 0.0
C1207 C 0.93698 0.88122 0.60645 0.0
C1208 C 0.91905 0.88681 0.58728 0.0
C1209 C 0.91857 0.89117 0.54112 0.0
C1210 C 0.93563 0.89022 0.51509 0.0
H1211 H 0.99835 0.92338 0.54987 0.0
H1212 H 0.97248 0.919 0.5552 0.0
H1213 H 0.98958 0.90472 0.58703 0.0
H1214 H 0.96753 0.87597 0.59626 0.0
H1215 H 0.93797 0.87766 0.64175 0.0
H1216 H 0.35323 0.17285 0.06843 0.0
H1217 H 0.35313 0.20885 0.06893 0.0
H1218 H 0.38544 0.20862 0.19305 0.0
H1219 H 0.3853 0.17303 0.19298 0.0
H1220 H 0.35254 0.23081 0.19846 0.0
H1221 H 0.39491 0.25071 0.04657 0.0
H1222 H 0.37514 0.23396 0.03717 0.0
H1223 H 0.39559 0.22654 0.07074 0.0
C1224 C 0.36067 0.18054 0.09518 0.0
C1225 C 0.36919 0.17014 0.13077 0.0
C1226 C 0.36063 0.20112 0.09547 0.0
C1227 C 0.36931 0.21152 0.13107 0.0
C1228 C 0.37858 0.20101 0.16534 0.0
H1229 H 0.38952 0.3373 0.16186 0.0
H1230 H 0.3932 0.30168 0.15534 0.0
C1231 C 0.37852 0.18062 0.16518 0.0
C1232 C 0.36751 0.23319 0.13524 0.0
H1233 H 0.37935 0.27664 0.08554 0.0
C1234 C 0.35842 0.2408 0.17371 0.0
C1235 C 0.37537 0.2463 0.1033 0.0
C1236 C 0.38596 0.23905 0.06226 0.0
C1237 C 0.35686 0.26103 0.18099 0.0
C1238 C 0.3643 0.27415 0.14862 0.0
C1239 C 0.37358 0.2666 0.1103 0.0
C1240 C 0.3622 0.29574 0.15366 0.0
C1241 C 0.3475 0.26816 0.22377 0.0
C1242 C 0.3436 0.30427 0.15511 0.0
C1243 C 0.34148 0.32453 0.159 0.0
C1244 C 0.35791 0.33678 0.16134 0.0
C1245 C 0.37658 0.32824 0.16048 0.0
C1246 C 0.37869 0.30791 0.15643 0.0
H1247 H 0.34739 0.25667 0.25004 0.0
H1248 H 0.35523 0.28119 0.23709 0.0
H1249 H 0.33216 0.27233 0.21682 0.0
H1250 H 0.33066 0.29527 0.15241 0.0
H1251 H 0.3269 0.33063 0.15929 0.0
H1252 H 0.33707 0.61789 0.87563 0.0
H1253 H 0.30163 0.61398 0.88425 0.0
H1254 H 0.29505 0.67651 0.89138 0.0
H1255 H 0.33032 0.68051 0.88272 0.0
H1256 H 0.2773 0.62815 0.95784 0.0
H1257 H 0.2559 0.65925 0.793 0.0
H1258 H 0.28038 0.65096 0.80473 0.0
H1259 H 0.27219 0.67416 0.82557 0.0
C1260 C 0.32803 0.6308 0.8785 0.0
C1261 C 0.33648 0.64952 0.8783 0.0
C1262 C 0.3078 0.62854 0.88374 0.0
C1263 C 0.29566 0.64495 0.88831 0.0
C1264 C 0.30408 0.66364 0.88749 0.0
H1265 H 0.17267 0.65336 0.97079 0.0
H1266 H 0.20863 0.65408 0.97171 0.0
C1267 C 0.32425 0.6659 0.88252 0.0
C1268 C 0.2742 0.64264 0.89419 0.0
H1269 H 0.23048 0.65287 0.8445 0.0
C1270 C 0.26704 0.63351 0.93306 0.0
C1271 C 0.26083 0.64958 0.86178 0.0
C1272 C 0.26764 0.6589 0.81871 0.0
C1273 C 0.24684 0.6313 0.94048 0.0
C1274 C 0.23349 0.63848 0.90829 0.0
C1275 C 0.2407 0.64749 0.86937 0.0
C1276 C 0.21197 0.63596 0.91265 0.0
C1277 C 0.23992 0.62098 0.98217 0.0
C1278 C 0.20192 0.62524 0.87992 0.0
C1279 C 0.18157 0.62485 0.87937 0.0
C1280 C 0.1707 0.63522 0.91147 0.0
C1281 C 0.18067 0.64508 0.94592 0.0
C1282 C 0.20121 0.64551 0.94638 0.0
H1283 H 0.25196 0.61315 0.99941 0.0
H1284 H 0.23376 0.63187 1.00581 0.0
H1285 H 0.22821 0.61036 0.97388 0.0
H1286 H 0.20985 0.6177 0.85368 0.0
H1287 H 0.17429 0.61708 0.85249 0.0
H1288 H 0.61638 0.83706 0.11188 0.0
H1289 H 0.61293 0.80158 0.12231 0.0
H1290 H 0.67548 0.79536 0.11955 0.0
H1291 H 0.67902 0.83059 0.10941 0.0
H1292 H 0.62701 0.76834 0.07166 0.0
H1293 H 0.65961 0.77168 0.24159 0.0
H1294 H 0.65091 0.79311 0.21256 0.0
H1295 H 0.67434 0.78291 0.19905 0.0
C1296 C 0.62936 0.82807 0.11286 0.0
C1297 C 0.64798 0.83666 0.11024 0.0
C1298 C 0.62738 0.80781 0.11897 0.0
C1299 C 0.64397 0.79585 0.12275 0.0
C1300 C 0.66249 0.80432 0.11776 0.0
H1301 H 0.67812 0.67708 0.16332 0.0
H1302 H 0.67462 0.71244 0.15584 0.0
C1303 C 0.66448 0.82447 0.11166 0.0
C1304 C 0.64218 0.77462 0.13313 0.0
H1305 H 0.65637 0.74004 0.20915 0.0
C1306 C 0.63319 0.76214 0.10196 0.0
C1307 C 0.65018 0.76655 0.1728 0.0
C1308 C 0.65914 0.77925 0.20867 0.0
C1309 C 0.63285 0.74174 0.10836 0.0
C1310 C 0.64142 0.73362 0.14741 0.0
C1311 C 0.64984 0.7462 0.17919 0.0
C1312 C 0.64307 0.71211 0.15448 0.0
C1313 C 0.6241 0.72899 0.07232 0.0
C1314 C 0.62649 0.70007 0.1576 0.0
C1315 C 0.62846 0.67974 0.16203 0.0
C1316 C 0.64707 0.67109 0.16348 0.0
C1317 C 0.66358 0.68326 0.16214 0.0
C1318 C 0.66161 0.7035 0.15781 0.0
H1319 H 0.62187 0.7371 0.04047 0.0
H1320 H 0.63357 0.71617 0.06555 0.0
H1321 H 0.60971 0.72351 0.08376 0.0
H1322 H 0.61202 0.70638 0.15612 0.0
H1323 H 0.61546 0.67077 0.16307 0.0
H1324 H 0.82958 0.32779 0.91264 0.0
H1325 H 0.7943 0.33082 0.90322 0.0
H1326 H 0.79957 0.39355 0.90232 0.0
H1327 H 0.83509 0.3906 0.91219 0.0
H1328 H 0.76705 0.37942 0.95257 0.0
H1329 H 0.76931 0.34622 0.78324 0.0
H1330 H 0.78069 0.33143 0.82548 0.0
H1331 H 0.79093 0.35485 0.81159 0.0
C1332 C 0.82324 0.34226 0.91088 0.0
C1333 C 0.83517 0.35895 0.91277 0.0
C1334 C 0.80306 0.34397 0.90517 0.0
C1335 C 0.79428 0.3624 0.90093 0.0
C1336 C 0.80601 0.37916 0.90505 0.0
H1337 H 0.66919 0.39071 0.86289 0.0
H1338 H 0.7048 0.394 0.86917 0.0
C1339 C 0.8263 0.37746 0.91082 0.0
C1340 C 0.77297 0.36394 0.89131 0.0
H1341 H 0.73792 0.34925 0.81688 0.0
C1342 C 0.76068 0.37305 0.92266 0.0
C1343 C 0.76463 0.35571 0.85213 0.0
C1344 C 0.77708 0.34667 0.81594 0.0
C1345 C 0.74026 0.37331 0.91693 0.0
C1346 C 0.7319 0.36452 0.8784 0.0
C1347 C 0.74426 0.35594 0.84646 0.0
C1348 C 0.71035 0.3629 0.87195 0.0
C1349 C 0.72775 0.38225 0.95311 0.0
C1350 C 0.70162 0.34437 0.86957 0.0
C1351 C 0.68137 0.34247 0.86567 0.0
C1352 C 0.66931 0.35906 0.86377 0.0
C1353 C 0.67807 0.37765 0.86436 0.0
C1354 C 0.69841 0.37954 0.8684 0.0
H1355 H 0.73605 0.38467 0.98463 0.0
H1356 H 0.72219 0.39658 0.94141 0.0
H1357 H 0.715 0.37279 0.96055 0.0
H1358 H 0.71048 0.33131 0.8719 0.0
H1359 H 0.6751 0.32795 0.86517 0.0
H1360 H 0.82706 0.67727 0.6145 0.0
H1361 H 0.83076 0.71257 0.62289 0.0
H1362 H 0.89332 0.70617 0.62298 0.0
H1363 H 0.88968 0.67065 0.61418 0.0
H1364 H 0.84896 0.73103 0.69544 0.0
H1365 H 0.88465 0.75157 0.53486 0.0
H1366 H 0.87235 0.72848 0.54245 0.0
H1367 H 0.89615 0.73228 0.56604 0.0
C1368 C 0.84163 0.68337 0.6156 0.0
C1369 C 0.85808 0.67113 0.6137 0.0
C1370 C 0.84372 0.70358 0.62054 0.0
C1371 C 0.8623 0.71212 0.62344 0.0
C1372 C 0.87882 0.70001 0.62019 0.0
H1373 H 0.8905 0.83718 0.66049 0.0
H1374 H 0.89366 0.80144 0.65553 0.0
C1375 C 0.87673 0.67969 0.61522 0.0
C1376 C 0.86409 0.7335 0.63248 0.0
H1377 H 0.87959 0.77679 0.58757 0.0
C1378 C 0.85573 0.74101 0.67189 0.0
C1379 C 0.87311 0.74655 0.60206 0.0
C1380 C 0.88197 0.73943 0.55878 0.0
C1381 C 0.85584 0.76113 0.68136 0.0
C1382 C 0.86421 0.77428 0.65021 0.0
C1383 C 0.87315 0.76675 0.61146 0.0
C1384 C 0.86258 0.7959 0.65573 0.0
C1385 C 0.84699 0.76811 0.72481 0.0
C1386 C 0.84411 0.80473 0.65762 0.0
C1387 C 0.84229 0.82503 0.66053 0.0
C1388 C 0.85889 0.83709 0.66136 0.0
C1389 C 0.87743 0.82829 0.66024 0.0
C1390 C 0.87925 0.80788 0.65716 0.0
H1391 H 0.84698 0.75639 0.75057 0.0
H1392 H 0.85498 0.78094 0.73832 0.0
H1393 H 0.83162 0.77245 0.71878 0.0
H1394 H 0.83101 0.79591 0.6557 0.0
H1395 H 0.8278 0.83134 0.66108 0.0
H1396 H 0.83118 0.18025 0.36617 0.0
H1397 H 0.79578 0.17693 0.37247 0.0
H1398 H 0.80138 0.11423 0.36922 0.0
H1399 H 0.83701 0.11749 0.3633 0.0
H1400 H 0.76843 0.15886 0.31666 0.0
H1401 H 0.77002 0.12372 0.48469 0.0
H1402 H 0.79108 0.13567 0.46089 0.0
H1403 H 0.78403 0.11183 0.44168 0.0
C1404 C 0.82489 0.16574 0.36646 0.0
C1405 C 0.83692 0.14914 0.36451 0.0
C1406 C 0.80462 0.16386 0.37012 0.0
C1407 C 0.79588 0.14533 0.37221 0.0
C1408 C 0.80779 0.12868 0.36864 0.0
H1409 H 0.6712 0.11756 0.4116 0.0
H1410 H 0.70673 0.11467 0.40211 0.0
C1411 C 0.82814 0.13056 0.36482 0.0
C1412 C 0.77433 0.14373 0.3784 0.0
H1413 H 0.73907 0.12897 0.45229 0.0
C1414 C 0.76203 0.15223 0.34623 0.0
C1415 C 0.76592 0.13502 0.41691 0.0
C1416 C 0.77838 0.12615 0.45329 0.0
C1417 C 0.74165 0.15245 0.35164 0.0
C1418 C 0.73326 0.1443 0.3908 0.0
C1419 C 0.74549 0.13528 0.4224 0.0
C1420 C 0.71193 0.14583 0.40014 0.0
C1421 C 0.72926 0.16137 0.31518 0.0
C1422 C 0.7031 0.16425 0.40393 0.0
C1423 C 0.68291 0.16593 0.40941 0.0
C1424 C 0.67103 0.14921 0.41153 0.0
C1425 C 0.67995 0.13072 0.41004 0.0
C1426 C 0.70024 0.12905 0.40448 0.0
H1427 H 0.73708 0.16171 0.28256 0.0
H1428 H 0.71541 0.15318 0.31079 0.0
H1429 H 0.72564 0.17664 0.32444 0.0
H1430 H 0.71182 0.17741 0.40183 0.0
H1431 H 0.67652 0.18039 0.41083 0.0
H1432 H 0.17743 0.33127 0.61901 0.0
H1433 H 0.17368 0.29608 0.62951 0.0
H1434 H 0.11114 0.30233 0.62509 0.0
H1435 H 0.11481 0.33773 0.61426 0.0
H1436 H 0.15416 0.27869 0.70263 0.0
H1437 H 0.12146 0.25579 0.54016 0.0
H1438 H 0.13382 0.27889 0.54711 0.0
H1439 H 0.10961 0.27563 0.56875 0.0
C1440 C 0.16286 0.32515 0.61955 0.0
C1441 C 0.14642 0.33732 0.61584 0.0
C1442 C 0.16074 0.30501 0.62571 0.0
C1443 C 0.14214 0.29649 0.62799 0.0
C1444 C 0.12565 0.3085 0.62285 0.0
H1445 H 0.11426 0.17167 0.66831 0.0
H1446 H 0.11081 0.20733 0.66199 0.0
C1447 C 0.12776 0.32874 0.61671 0.0
C1448 C 0.14027 0.27525 0.63836 0.0
H1449 H 0.12592 0.23131 0.59481 0.0
C1450 C 0.1479 0.26835 0.6791 0.0
C1451 C 0.13191 0.26176 0.60795 0.0
C1452 C 0.12383 0.26826 0.56336 0.0
C1453 C 0.14772 0.24837 0.68993 0.0
C1454 C 0.14005 0.23475 0.65881 0.0
C1455 C 0.13182 0.2417 0.61868 0.0
C1456 C 0.14179 0.21323 0.66582 0.0
C1457 C 0.15574 0.24204 0.73474 0.0
C1458 C 0.16028 0.20465 0.67034 0.0
C1459 C 0.16226 0.18439 0.67407 0.0
C1460 C 0.1458 0.17215 0.67307 0.0
C1461 C 0.12721 0.18072 0.66955 0.0
C1462 C 0.12524 0.20108 0.66566 0.0
H1463 H 0.15503 0.25406 0.75973 0.0
H1464 H 0.14767 0.22925 0.74812 0.0
H1465 H 0.17129 0.23789 0.73074 0.0
H1466 H 0.17331 0.2136 0.66966 0.0
H1467 H 0.17679 0.17826 0.67647 0.0
H1468 H 0.33954 0.88918 0.40787 0.0
H1469 H 0.30408 0.89326 0.39989 0.0
H1470 H 0.29707 0.83074 0.39431 0.0
H1471 H 0.33234 0.82657 0.40243 0.0
H1472 H 0.27942 0.87939 0.32763 0.0
H1473 H 0.25825 0.84813 0.4923 0.0
H1474 H 0.28281 0.85606 0.48019 0.0
H1475 H 0.27418 0.83297 0.4595 0.0
C1476 C 0.3304 0.87631 0.40551 0.0
C1477 C 0.33873 0.85754 0.40598 0.0
C1478 C 0.31016 0.87866 0.40063 0.0
C1479 C 0.29788 0.86231 0.3967 0.0
C1480 C 0.30619 0.84358 0.39778 0.0
H1481 H 0.17492 0.85488 0.31282 0.0
H1482 H 0.21087 0.85407 0.31255 0.0
C1483 C 0.32637 0.84122 0.40241 0.0
C1484 C 0.27641 0.86471 0.39107 0.0
H1485 H 0.23273 0.85434 0.44078 0.0
C1486 C 0.26918 0.87397 0.35239 0.0
C1487 C 0.26306 0.85771 0.42345 0.0
C1488 C 0.2699 0.8483 0.46641 0.0
C1489 C 0.24898 0.87623 0.34511 0.0
C1490 C 0.23565 0.86894 0.3772 0.0
C1491 C 0.24292 0.85981 0.41596 0.0
C1492 C 0.21411 0.8714 0.37288 0.0
C1493 C 0.24204 0.88673 0.30364 0.0
C1494 C 0.20397 0.88166 0.40623 0.0
C1495 C 0.18362 0.88207 0.40644 0.0
C1496 C 0.17282 0.8722 0.37337 0.0
C1497 C 0.18287 0.86276 0.33847 0.0
C1498 C 0.20341 0.86229 0.33836 0.0
H1499 H 0.25403 0.89491 0.28704 0.0
H1500 H 0.23622 0.87589 0.27941 0.0
H1501 H 0.23011 0.89708 0.31197 0.0
H1502 H 0.21184 0.88885 0.43309 0.0
H1503 H 0.17628 0.88952 0.4337 0.0
H1504 H 0.17154 0.11354 0.82288 0.0
H1505 H 0.19807 0.11267 0.87693 0.0
H1506 H 0.23902 0.10183 0.77023 0.0
H1507 H 0.21229 0.10312 0.71516 0.0
H1508 H 0.22348 0.08452 0.90097 0.0
H1509 H 0.26477 0.14752 0.83295 0.0
H1510 H 0.24028 0.14183 0.81504 0.0
H1511 H 0.26064 0.12832 0.79306 0.0
C1512 C 0.18616 0.11107 0.81048 0.0
C1513 C 0.18964 0.10863 0.76416 0.0
C1514 C 0.2014 0.11049 0.84178 0.0
C1515 C 0.22075 0.10751 0.82805 0.0
C1516 C 0.22434 0.10461 0.78191 0.0
H1517 H 0.33192 0.10324 0.96772 0.0
H1518 H 0.30493 0.10232 0.91518 0.0
C1519 C 0.20898 0.10519 0.75034 0.0
C1520 C 0.23689 0.10743 0.86237 0.0
H1521 H 0.27954 0.13007 0.89233 0.0
C1522 C 0.23572 0.09452 0.89904 0.0
C1523 C 0.2529 0.12052 0.86043 0.0
C1524 C 0.25471 0.13547 0.82354 0.0
C1525 C 0.25016 0.09404 0.9329 0.0
C1526 C 0.2662 0.1071 0.93088 0.0
C1527 C 0.26732 0.12004 0.89427 0.0
C1528 C 0.28248 0.10704 0.96488 0.0
C1529 C 0.24836 0.07912 0.96985 0.0
C1530 C 0.27917 0.10995 1.01114 0.0
C1531 C 0.29485 0.11041 0.04195 0.0
C1532 C 0.31423 0.10813 0.02716 0.0
C1533 C 0.31734 0.10512 0.98087 0.0
C1534 C 0.30179 0.10461 0.9504 0.0
H1535 H 0.23831 0.06706 0.96047 0.0
H1536 H 0.26279 0.07278 0.97839 0.0
H1537 H 0.24242 0.08629 1.00028 0.0
H1538 H 0.2645 0.11228 0.02341 0.0
H1539 H 0.29181 0.11292 0.07711 0.0
H1540 H 0.10622 0.67413 0.06745 0.0
H1541 H 0.10656 0.70075 0.12105 0.0
H1542 H 0.11718 0.74174 0.01424 0.0
H1543 H 0.11666 0.71482 0.95937 0.0
H1544 H 0.13533 0.72577 0.14387 0.0
H1545 H 0.07211 0.76778 0.07938 0.0
H1546 H 0.07737 0.74323 0.06106 0.0
H1547 H 0.09094 0.76348 0.03874 0.0
C1548 C 0.10853 0.68877 0.05478 0.0
C1549 C 0.11135 0.69216 1.0085 0.0
C1550 C 0.10877 0.70408 0.0859 0.0
C1551 C 0.1117 0.72343 0.07212 0.0
C1552 C 0.11451 0.72702 0.02594 0.0
H1553 H 0.11929 0.83376 0.21433 0.0
H1554 H 0.11861 0.80704 0.16107 0.0
C1555 C 0.11429 0.71158 0.99447 0.0
C1556 C 0.11216 0.73947 0.10667 0.0
H1557 H 0.08997 0.78204 0.13888 0.0
C1558 C 0.12536 0.73805 0.14275 0.0
C1559 C 0.09913 0.75553 0.10574 0.0
C1560 C 0.08395 0.75759 0.06943 0.0
C1561 C 0.12617 0.75228 0.17703 0.0
C1562 C 0.11315 0.76836 0.17608 0.0
C1563 C 0.09993 0.76976 0.14003 0.0
C1564 C 0.11369 0.78448 0.21043 0.0
C1565 C 0.14138 0.75023 0.21328 0.0
C1566 C 0.11113 0.78102 0.25675 0.0
C1567 C 0.11149 0.79656 0.28799 0.0
C1568 C 0.11427 0.81594 0.27357 0.0
C1569 C 0.11687 0.8192 0.22719 0.0
C1570 C 0.11652 0.80381 0.1963 0.0
H1571 H 0.15322 0.74004 0.20329 0.0
H1572 H 0.14796 0.7646 0.22163 0.0
H1573 H 0.13442 0.74434 0.244 0.0
H1574 H 0.10856 0.76633 0.26875 0.0
H1575 H 0.10937 0.79341 0.32322 0.0
H1576 H 0.71434 0.90181 0.0669 0.0
H1577 H 0.74106 0.90346 1.01178 0.0
H1578 H 0.69912 0.90305 0.90413 0.0
H1579 H 0.67264 0.90161 0.95835 0.0
H1580 H 0.74972 0.87625 0.94199 0.0
H1581 H 0.73405 0.94918 0.86998 0.0
H1582 H 0.72397 0.9412 0.9228 0.0
H1583 H 0.71342 0.93302 0.87087 0.0
C1584 C 0.71082 0.9023 0.03152 0.0
C1585 C 0.69124 0.90153 0.01734 0.0
C1586 C 0.72613 0.90318 0.99995 0.0
C1587 C 0.7222 0.90364 0.95354 0.0
C1588 C 0.70266 0.90307 0.93953 0.0
H1589 H 0.79275 0.90423 0.70572 0.0
H1590 H 0.76594 0.90524 0.76074 0.0
C1591 C 0.68746 0.90206 0.97084 0.0
C1592 C 0.73836 0.90382 0.91952 0.0
H1593 H 0.75688 0.9295 0.83047 0.0
C1594 C 0.75137 0.88799 0.91789 0.0
C1595 C 0.74045 0.91895 0.8874 0.0
C1596 C 0.72735 0.93665 0.88792 0.0
C1597 C 0.76607 0.8867 0.88488 0.0
C1598 C 0.76833 0.90194 0.85299 0.0
C1599 C 0.75527 0.91777 0.85458 0.0
C1600 C 0.78455 0.90199 0.81898 0.0
C1601 C 0.77866 0.86863 0.88382 0.0
C1602 C 0.80404 0.90039 0.83297 0.0
C1603 C 0.81926 0.89967 0.80173 0.0
C1604 C 0.81562 0.90085 0.75523 0.0
C1605 C 0.79616 0.90321 0.74109 0.0
C1606 C 0.7808 0.90377 0.77263 0.0
H1607 H 0.77122 0.85601 0.89977 0.0
H1608 H 0.7826 0.86456 0.84894 0.0
H1609 H 0.79229 0.87145 0.90284 0.0
H1610 H 0.80755 0.89965 0.86833 0.0
H1611 H 0.834 0.89813 0.81431 0.0
H1612 H 0.9015 0.29321 0.95811 0.0
H1613 H 0.9027 0.2665 1.01341 0.0
H1614 H 0.90075 0.30861 0.12077 0.0
H1615 H 0.89901 0.33499 0.06645 0.0
H1616 H 0.92763 0.25639 0.0801 0.0
H1617 H 0.85665 0.27417 0.15795 0.0
H1618 H 0.86457 0.28521 0.10621 0.0
H1619 H 0.87307 0.29453 0.15924 0.0
C1620 C 0.90134 0.29675 0.9935 0.0
C1621 C 0.89989 0.31634 1.00753 0.0
C1622 C 0.902 0.28144 0.02521 0.0
C1623 C 0.90125 0.28536 0.07164 0.0
C1624 C 0.90064 0.30497 0.08544 0.0
H1625 H 0.90406 0.21459 0.31922 0.0
H1626 H 0.90565 0.24141 0.26425 0.0
C1627 C 0.89979 0.32015 0.05403 0.0
C1628 C 0.90125 0.26919 0.10586 0.0
H1629 H 0.87676 0.25172 0.19783 0.0
C1630 C 0.91641 0.25534 0.10559 0.0
C1631 C 0.88667 0.26763 0.13953 0.0
C1632 C 0.86922 0.28106 0.14056 0.0
C1633 C 0.91759 0.24041 0.13819 0.0
C1634 C 0.90314 0.23904 0.17208 0.0
C1635 C 0.88799 0.25283 0.17237 0.0
C1636 C 0.9029 0.22279 0.20593 0.0
C1637 C 0.93453 0.22638 0.13653 0.0
C1638 C 0.90067 0.20336 0.19182 0.0
C1639 C 0.89964 0.1881 0.22304 0.0
C1640 C 0.90082 0.19171 0.26958 0.0
C1641 C 0.90321 0.21118 0.28381 0.0
C1642 C 0.90407 0.22655 0.25234 0.0
H1643 H 0.94688 0.23235 0.11673 0.0
H1644 H 0.93979 0.22285 0.1708 0.0
H1645 H 0.92972 0.21259 0.12036 0.0
H1646 H 0.89938 0.19997 0.15646 0.0
H1647 H 0.89779 0.17338 0.21044 0.0
H1648 H 0.29165 0.40459 0.20762 0.0
H1649 H 0.26481 0.40633 0.26247 0.0
H1650 H 0.30592 0.39874 0.37031 0.0
H1651 H 0.33251 0.39693 0.31649 0.0
H1652 H 0.2539 0.37723 0.32868 0.0
H1653 H 0.27447 0.44695 0.4107 0.0
H1654 H 0.28374 0.43985 0.35641 0.0
H1655 H 0.2939 0.42944 0.40655 0.0
C1656 C 0.29499 0.40346 0.24302 0.0
C1657 C 0.31439 0.40067 0.25728 0.0
C1658 C 0.2796 0.40441 0.27443 0.0
C1659 C 0.28327 0.40295 0.32084 0.0
C1660 C 0.30261 0.40028 0.33498 0.0
H1661 H 0.21285 0.40282 0.56884 0.0
H1662 H 0.23953 0.40359 0.51349 0.0
C1663 C 0.31788 0.39914 0.30382 0.0
C1664 C 0.26701 0.4034 0.35468 0.0
H1665 H 0.25008 0.42805 0.44695 0.0
C1666 C 0.25297 0.38845 0.35426 0.0
C1667 C 0.26587 0.41783 0.38874 0.0
C1668 C 0.28018 0.43454 0.39061 0.0
C1669 C 0.23818 0.38731 0.38712 0.0
C1670 C 0.23685 0.40188 0.42097 0.0
C1671 C 0.25093 0.41684 0.42135 0.0
C1672 C 0.22068 0.40209 0.45527 0.0
C1673 C 0.22452 0.37002 0.38594 0.0
C1674 C 0.20108 0.40158 0.44154 0.0
C1675 C 0.18592 0.40096 0.47301 0.0
C1676 C 0.18971 0.40121 0.51951 0.0
C1677 C 0.20931 0.40255 0.53346 0.0
C1678 C 0.2246 0.40297 0.50171 0.0
H1679 H 0.23126 0.35734 0.36861 0.0
H1680 H 0.22023 0.36543 0.42024 0.0
H1681 H 0.21116 0.37404 0.36709 0.0
H1682 H 0.19742 0.40162 0.40623 0.0
H1683 H 0.1711 0.40023 0.46059 0.0
H1684 H 0.37513 0.6826 0.73454 0.0
H1685 H 0.378 0.70834 0.67884 0.0
H1686 H 0.42554 0.73384 0.75329 0.0
H1687 H 0.42215 0.70824 0.81079 0.0
H1688 H 0.40384 0.7619 0.72188 0.0
H1689 H 0.41596 0.71189 0.57983 0.0
H1690 H 0.39328 0.70631 0.60661 0.0
H1691 H 0.41584 0.70344 0.63705 0.0
C1692 C 0.38624 0.69366 0.73935 0.0
C1693 C 0.39851 0.69316 0.77728 0.0
C1694 C 0.38801 0.70835 0.70692 0.0
C1695 C 0.40245 0.72284 0.7105 0.0
C1696 C 0.41441 0.72277 0.74909 0.0
H1697 H 0.42494 0.7989 0.47423 0.0
H1698 H 0.42759 0.77329 0.53194 0.0
C1699 C 0.41244 0.70813 0.78215 0.0
C1700 C 0.40455 0.73818 0.67452 0.0
H1701 H 0.40603 0.74457 0.56048 0.0
C1702 C 0.40453 0.75803 0.68665 0.0
C1703 C 0.40596 0.73343 0.62821 0.0
C1704 C 0.40799 0.71261 0.61223 0.0
C1705 C 0.40501 0.77305 0.65421 0.0
C1706 C 0.40485 0.76828 0.6078 0.0
C1707 C 0.40576 0.74844 0.59573 0.0
C1708 C 0.40316 0.78356 0.57158 0.0
C1709 C 0.406 0.79393 0.67038 0.0
C1710 C 0.38823 0.7976 0.57322 0.0
C1711 C 0.38687 0.81229 0.54068 0.0
C1712 C 0.40009 0.81323 0.50458 0.0
C1713 C 0.4145 0.79865 0.50147 0.0
C1714 C 0.41605 0.78403 0.53466 0.0
H1715 H 0.41312 0.79489 0.70378 0.0
H1716 H 0.41417 0.80334 0.64662 0.0
H1717 H 0.39098 0.79975 0.67397 0.0
H1718 H 0.37753 0.79728 0.59988 0.0
H1719 H 0.37533 0.823 0.54389 0.0
H1720 H 0.67214 0.60833 0.31606 0.0
H1721 H 0.6989 0.60699 0.36968 0.0
H1722 H 0.74008 0.60276 0.261 0.0
H1723 H 0.71311 0.60435 0.20654 0.0
H1724 H 0.72732 0.57875 0.38534 0.0
H1725 H 0.76143 0.64884 0.33429 0.0
H1726 H 0.73718 0.64192 0.31689 0.0
H1727 H 0.75811 0.63142 0.28986 0.0
C1728 C 0.68686 0.60719 0.30323 0.0
C1729 C 0.69036 0.60668 0.25662 0.0
C1730 C 0.70222 0.60633 0.3342 0.0
C1731 C 0.72165 0.60507 0.31972 0.0
C1732 C 0.72527 0.60409 0.27322 0.0
H1733 H 0.83297 0.60776 0.46078 0.0
H1734 H 0.80649 0.60604 0.40662 0.0
C1735 C 0.70981 0.60486 0.24202 0.0
C1736 C 0.73789 0.60491 0.35361 0.0
H1737 H 0.77777 0.63058 0.38984 0.0
C1738 C 0.73836 0.59009 0.38629 0.0
C1739 C 0.75232 0.61971 0.35525 0.0
C1740 C 0.75224 0.63649 0.32251 0.0
C1741 C 0.75297 0.58945 0.41972 0.0
C1742 C 0.76735 0.60433 0.42156 0.0
C1743 C 0.76683 0.61915 0.38882 0.0
C1744 C 0.78344 0.6046 0.45598 0.0
C1745 C 0.75311 0.57249 0.45197 0.0
C1746 C 0.77961 0.60434 0.50247 0.0
C1747 C 0.79494 0.60521 0.53402 0.0
C1748 C 0.81447 0.60667 0.51983 0.0
C1749 C 0.81818 0.60683 0.47331 0.0
C1750 C 0.80296 0.60583 0.44202 0.0
H1751 H 0.74492 0.55978 0.43845 0.0
H1752 H 0.76824 0.56778 0.45966 0.0
H1753 H 0.746 0.57699 0.48375 0.0
H1754 H 0.76472 0.60386 0.51449 0.0
H1755 H 0.79146 0.60521 0.56943 0.0
H1756 H 0.6092 0.1733 0.5658 0.0
H1757 H 0.60701 0.19977 0.61978 0.0
H1758 H 0.60228 0.2413 0.51171 0.0
H1759 H 0.60377 0.21448 0.45696 0.0
H1760 H 0.63015 0.22877 0.63658 0.0
H1761 H 0.55894 0.26066 0.58864 0.0
H1762 H 0.56729 0.23759 0.5667 0.0
H1763 H 0.57598 0.26017 0.54308 0.0
C1764 C 0.60748 0.18801 0.55316 0.0
C1765 C 0.60658 0.1916 0.50663 0.0
C1766 C 0.60628 0.20326 0.58438 0.0
C1767 C 0.60421 0.22273 0.5704 0.0
C1768 C 0.60333 0.22646 0.52386 0.0
H1769 H 0.60922 0.33408 0.71039 0.0
H1770 H 0.60778 0.30728 0.65681 0.0
C1771 C 0.60432 0.21107 0.49238 0.0
C1772 C 0.6038 0.23888 0.60481 0.0
H1773 H 0.57792 0.27875 0.64105 0.0
C1774 C 0.6186 0.23957 0.63759 0.0
C1775 C 0.58878 0.25313 0.60673 0.0
C1776 C 0.57174 0.25278 0.57471 0.0
C1777 C 0.619 0.25408 0.67126 0.0
C1778 C 0.60412 0.26839 0.67282 0.0
C1779 C 0.58932 0.26778 0.64013 0.0
C1780 C 0.60423 0.28467 0.70664 0.0
C1781 C 0.63566 0.25427 0.70431 0.0
C1782 C 0.60241 0.28113 0.75303 0.0
C1783 C 0.60309 0.29662 0.78424 0.0
C1784 C 0.60573 0.31602 0.76975 0.0
C1785 C 0.60725 0.31943 0.7232 0.0
C1786 C 0.60639 0.30405 0.69223 0.0
H1787 H 0.64786 0.2447 0.69348 0.0
H1788 H 0.64131 0.26933 0.70894 0.0
H1789 H 0.63037 0.24898 0.7373 0.0
H1790 H 0.60048 0.26635 0.76515 0.0
H1791 H 0.60184 0.29338 0.81964 0.0
H1792 H 0.31691 0.10428 0.43758 0.0
H1793 H 0.32219 0.10715 0.51841 0.0
H1794 H 0.38214 0.12309 0.49516 0.0
H1795 H 0.37712 0.11998 0.41431 0.0
H1796 H 0.3481 0.08709 0.57367 0.0
H1797 H 0.36357 0.16655 0.57875 0.0
H1798 H 0.35281 0.15478 0.53053 0.0
H1799 H 0.37865 0.15319 0.54026 0.0
C1800 C 0.33128 0.10829 0.44949 0.0
C1801 C 0.34655 0.11194 0.41897 0.0
C1802 C 0.33424 0.11003 0.49588 0.0
C1803 C 0.35249 0.11564 0.51308 0.0
C1804 C 0.36779 0.1192 0.48284 0.0
H1805 H 0.40202 0.13017 0.78014 0.0
H1806 H 0.39568 0.12849 0.69957 0.0
C1807 C 0.36487 0.11742 0.43644 0.0
C1808 C 0.35562 0.11722 0.5626 0.0
H1809 H 0.36936 0.14881 0.64585 0.0
C1810 C 0.35263 0.10062 0.58946 0.0
C1811 C 0.36157 0.13485 0.5834 0.0
C1812 C 0.36418 0.15342 0.55689 0.0
C1813 C 0.35584 0.10106 0.63614 0.0
C1814 C 0.36185 0.11868 0.65692 0.0
C1815 C 0.36477 0.13529 0.63008 0.0
C1816 C 0.36541 0.12011 0.70631 0.0
C1817 C 0.35327 0.08246 0.66261 0.0
C1818 C 0.35044 0.11633 0.7373 0.0
C1819 C 0.35398 0.11741 0.7836 0.0
C1820 C 0.37258 0.12241 0.80019 0.0
C1821 C 0.38745 0.12652 0.76893 0.0
C1822 C 0.38388 0.12545 0.72267 0.0
H1823 H 0.35362 0.06935 0.64067 0.0
H1824 H 0.36482 0.08098 0.68852 0.0
H1825 H 0.33893 0.08278 0.67981 0.0
H1826 H 0.33593 0.11263 0.72567 0.0
H1827 H 0.34204 0.1145 0.8064 0.0
H1828 H 0.08579 0.65019 0.60684 0.0
H1829 H 0.0877 0.64524 0.52564 0.0
H1830 H 0.147 0.66612 0.52614 0.0
H1831 H 0.14534 0.67078 0.60751 0.0
H1832 H 0.09553 0.67274 0.45743 0.0
H1833 H 0.15128 0.61395 0.45861 0.0
H1834 H 0.13805 0.62108 0.5083 0.0
H1835 H 0.15802 0.63572 0.48851 0.0
C1836 C 0.09934 0.65353 0.58985 0.0
C1837 C 0.11544 0.66079 0.61405 0.0
C1838 C 0.10036 0.65081 0.54326 0.0
C1839 C 0.11757 0.65505 0.51962 0.0
C1840 C 0.13364 0.66243 0.54355 0.0
H1841 H 0.14884 0.64387 0.23457 0.0
H1842 H 0.14876 0.65148 0.31504 0.0
C1843 C 0.1326 0.66527 0.59014 0.0
C1844 C 0.11852 0.65206 0.46993 0.0
H1845 H 0.1419 0.6262 0.38764 0.0
C1846 C 0.10566 0.66254 0.44222 0.0
C1847 C 0.13179 0.63883 0.44984 0.0
C1848 C 0.14548 0.6266 0.47775 0.0
C1849 C 0.10578 0.66025 0.39524 0.0
C1850 C 0.11886 0.64682 0.37517 0.0
C1851 C 0.13189 0.63651 0.40283 0.0
C1852 C 0.11879 0.64278 0.32582 0.0
C1853 C 0.09208 0.67251 0.3674 0.0
C1854 C 0.10204 0.63526 0.30485 0.0
C1855 C 0.10204 0.63092 0.2589 0.0
C1856 C 0.11883 0.63391 0.23254 0.0
C1857 C 0.13558 0.64157 0.25356 0.0
C1858 C 0.1356 0.64581 0.2997 0.0
H1859 H 0.08722 0.68574 0.38583 0.0
H1860 H 0.09907 0.67712 0.33555 0.0
H1861 H 0.07894 0.66377 0.35906 0.0
H1862 H 0.08897 0.63247 0.32419 0.0
H1863 H 0.0888 0.62523 0.24397 0.0
H1864 H 0.62496 0.88452 0.40987 0.0
H1865 H 0.61924 0.88333 0.49086 0.0
H1866 H 0.67575 0.909 0.51425 0.0
H1867 H 0.68128 0.91095 0.43354 0.0
H1868 H 0.63961 0.86409 0.55677 0.0
H1869 H 0.64121 0.9437 0.59012 0.0
H1870 H 0.63938 0.93381 0.53419 0.0
H1871 H 0.66264 0.93493 0.56206 0.0
C1872 C 0.63607 0.8902 0.43214 0.0
C1873 C 0.65358 0.8979 0.41483 0.0
C1874 C 0.63283 0.88937 0.47856 0.0
C1875 C 0.64692 0.89635 0.50885 0.0
C1876 C 0.66446 0.90388 0.49173 0.0
H1877 H 0.65666 0.90127 0.80086 0.0
H1878 H 0.66242 0.90248 0.71981 0.0
C1879 C 0.66771 0.90474 0.44538 0.0
C1880 C 0.64352 0.89527 0.55829 0.0
H1881 H 0.64158 0.92288 0.65389 0.0
C1882 C 0.63993 0.87697 0.57793 0.0
C1883 C 0.64398 0.91205 0.58612 0.0
C1884 C 0.64682 0.93226 0.56707 0.0
C1885 C 0.63715 0.87494 0.62449 0.0
C1886 C 0.63766 0.89171 0.6523 0.0
C1887 C 0.64126 0.91001 0.63269 0.0
C1888 C 0.63424 0.89062 0.70169 0.0
C1889 C 0.63414 0.85478 0.64362 0.0
C1890 C 0.61643 0.88372 0.71869 0.0
C1891 C 0.61312 0.88293 0.76502 0.0
C1892 C 0.62751 0.88913 0.79564 0.0
C1893 C 0.64533 0.89612 0.77846 0.0
C1894 C 0.64861 0.89695 0.73205 0.0
H1895 H 0.63934 0.84324 0.62031 0.0
H1896 H 0.64184 0.85312 0.67615 0.0
H1897 H 0.61833 0.85238 0.64946 0.0
H1898 H 0.60497 0.87907 0.69607 0.0
H1899 H 0.5993 0.87728 0.77684 0.0
H1900 H 0.85758 0.37166 0.23818 0.0
H1901 H 0.86009 0.36666 0.31931 0.0
H1902 H 0.92178 0.37844 0.31343 0.0
H1903 H 0.91936 0.38374 0.23236 0.0
H1904 H 0.88436 0.33932 0.36764 0.0
H1905 H 0.9012 0.4164 0.41139 0.0
H1906 H 0.89087 0.40947 0.35797 0.0
H1907 H 0.91635 0.40565 0.36883 0.0
C1908 C 0.87167 0.37332 0.25414 0.0
C1909 C 0.88825 0.37822 0.22863 0.0
C1910 C 0.87309 0.37036 0.30053 0.0
C1911 C 0.89107 0.37243 0.32263 0.0
C1912 C 0.9077 0.37704 0.29727 0.0
H1913 H 0.92629 0.36573 0.60393 0.0
H1914 H 0.92478 0.37043 0.5226 0.0
C1915 C 0.90632 0.37987 0.2508 0.0
C1916 C 0.89238 0.36962 0.37212 0.0
H1917 H 0.90225 0.39343 0.47041 0.0
C1918 C 0.88823 0.35115 0.39015 0.0
C1919 C 0.89753 0.38503 0.40148 0.0
C1920 C 0.90161 0.40532 0.38418 0.0
C1921 C 0.88934 0.34759 0.43659 0.0
C1922 C 0.89423 0.36308 0.46612 0.0
C1923 C 0.89847 0.38154 0.44797 0.0
C1924 C 0.89497 0.36046 0.51586 0.0
C1925 C 0.88575 0.32712 0.45335 0.0
C1926 C 0.87861 0.35367 0.53959 0.0
C1927 C 0.87945 0.35092 0.58611 0.0
C1928 C 0.89659 0.35515 0.61025 0.0
C1929 C 0.9128 0.36245 0.58658 0.0
C1930 C 0.91198 0.36507 0.53997 0.0
H1931 H 0.88808 0.31611 0.4265 0.0
H1932 H 0.89544 0.32354 0.48202 0.0
H1933 H 0.87039 0.32585 0.46471 0.0
H1934 H 0.8651 0.35057 0.52215 0.0
H1935 H 0.86657 0.34565 0.60328 0.0
H1936 H 0.34681 0.39491 0.47444 0.0
H1937 H 0.34165 0.39765 0.55547 0.0
H1938 H 0.40215 0.38382 0.57859 0.0
H1939 H 0.40761 0.38175 0.49786 0.0
H1940 H 0.34657 0.36998 0.62209 0.0
H1941 H 0.39561 0.43293 0.65327 0.0
H1942 H 0.38794 0.42593 0.59764 0.0
H1943 H 0.4073 0.41291 0.62526 0.0
C1944 C 0.35911 0.39272 0.49667 0.0
C1945 C 0.37766 0.38816 0.47928 0.0
C1946 C 0.35609 0.39416 0.54311 0.0
C1947 C 0.37156 0.39124 0.57332 0.0
C1948 C 0.39004 0.38653 0.55612 0.0
H1949 H 0.38332 0.39202 0.86515 0.0
H1950 H 0.38842 0.38904 0.78416 0.0
C1951 C 0.39308 0.38509 0.50977 0.0
C1952 C 0.3683 0.39266 0.62276 0.0
H1953 H 0.38344 0.41646 0.71754 0.0
C1954 C 0.35456 0.38022 0.6429 0.0
C1955 C 0.37876 0.40597 0.65012 0.0
C1956 C 0.3931 0.42033 0.6305 0.0
C1957 C 0.35126 0.38046 0.68952 0.0
C1958 C 0.36172 0.39378 0.71689 0.0
C1959 C 0.37546 0.40621 0.69673 0.0
C1960 C 0.35846 0.39521 0.76634 0.0
C1961 C 0.33693 0.36609 0.70914 0.0
C1962 C 0.33996 0.39985 0.78355 0.0
C1963 C 0.33696 0.4014 0.82989 0.0
C1964 C 0.35242 0.39855 0.86036 0.0
C1965 C 0.37099 0.39404 0.84296 0.0
C1966 C 0.37397 0.39247 0.79653 0.0
H1967 H 0.33449 0.35346 0.68642 0.0
H1968 H 0.34205 0.36054 0.74207 0.0
H1969 H 0.3227 0.37347 0.7142 0.0
H1970 H 0.32782 0.40243 0.7611 0.0
H1971 H 0.32242 0.4047 0.84182 0.0
H1972 H 0.39389 0.62438 0.16886 0.0
H1973 H 0.3905 0.61966 0.24987 0.0
H1974 H 0.39994 0.6812 0.27118 0.0
H1975 H 0.40262 0.68618 0.19036 0.0
H1976 H 0.41718 0.62691 0.31731 0.0
H1977 H 0.35096 0.67185 0.34429 0.0
H1978 H 0.35886 0.66435 0.2892 0.0
H1979 H 0.37037 0.68469 0.31676 0.0
C1980 C 0.39494 0.63698 0.19065 0.0
C1981 C 0.39848 0.65569 0.17272 0.0
C1982 C 0.39314 0.63423 0.2371 0.0
C1983 C 0.39468 0.6501 0.26681 0.0
C1984 C 0.3983 0.66875 0.24908 0.0
H1985 H 0.39035 0.66265 0.55881 0.0
H1986 H 0.39364 0.66793 0.47793 0.0
C1987 C 0.40009 0.67153 0.20271 0.0
C1988 C 0.3931 0.64707 0.31632 0.0
H1989 H 0.36757 0.661 0.40959 0.0
C1990 C 0.40625 0.63429 0.33742 0.0
C1991 C 0.37893 0.65676 0.3428 0.0
C1992 C 0.36385 0.67004 0.32213 0.0
C1993 C 0.40585 0.6312 0.3841 0.0
C1994 C 0.39162 0.64083 0.41057 0.0
C1995 C 0.3785 0.65364 0.38948 0.0
C1996 C 0.3899 0.63754 0.45997 0.0
C1997 C 0.42099 0.61797 0.40472 0.0
C1998 C 0.38649 0.61874 0.47708 0.0
C1999 C 0.38478 0.61564 0.52334 0.0
C2000 C 0.38621 0.63129 0.55388 0.0
C2001 C 0.38944 0.65017 0.53659 0.0
C2002 C 0.39118 0.65325 0.49021 0.0
H2003 H 0.434 0.61647 0.3828 0.0
H2004 H 0.42578 0.62351 0.43795 0.0
H2005 H 0.41463 0.60321 0.40941 0.0
H2006 H 0.38502 0.60641 0.45458 0.0
H2007 H 0.38253 0.60086 0.53513 0.0
H2008 H 0.68037 0.59813 0.84065 0.0
H2009 H 0.67472 0.60047 0.75992 0.0
H2010 H 0.61667 0.62213 0.78437 0.0
H2011 H 0.62243 0.62051 0.86527 0.0
H2012 H 0.64726 0.58235 0.7069 0.0
H2013 H 0.63802 0.66272 0.69788 0.0
H2014 H 0.64783 0.65065 0.74672 0.0
H2015 H 0.62195 0.65097 0.73696 0.0
C2016 C 0.66648 0.60367 0.82899 0.0
C2017 C 0.65194 0.6093 0.85977 0.0
C2018 C 0.66322 0.60485 0.78269 0.0
C2019 C 0.64538 0.61178 0.76587 0.0
C2020 C 0.6307 0.61712 0.7964 0.0
H2021 H 0.59778 0.6287 0.49784 0.0
H2022 H 0.60337 0.62633 0.57862 0.0
C2023 C 0.63395 0.61594 0.84276 0.0
C2024 C 0.6421 0.61307 0.71645 0.0
H2025 H 0.63094 0.64483 0.63171 0.0
C2026 C 0.64378 0.59603 0.69045 0.0
C2027 C 0.63754 0.63092 0.69484 0.0
C2028 C 0.63639 0.6499 0.7204 0.0
C2029 C 0.64068 0.59627 0.64377 0.0
C2030 C 0.63611 0.61411 0.62218 0.0
C2031 C 0.63442 0.63115 0.64817 0.0
C2032 C 0.63285 0.6154 0.57276 0.0
C2033 C 0.64187 0.5773 0.61816 0.0
C2034 C 0.64763 0.61027 0.5423 0.0
C2035 C 0.64443 0.61149 0.49592 0.0
C2036 C 0.62638 0.61794 0.47885 0.0
C2037 C 0.61173 0.62333 0.50957 0.0
C2038 C 0.61495 0.62212 0.55588 0.0
H2039 H 0.64037 0.56446 0.64065 0.0
H2040 H 0.63038 0.57651 0.59197 0.0
H2041 H 0.65629 0.57632 0.6014 0.0
H2042 H 0.6617 0.6054 0.55438 0.0
H2043 H 0.65604 0.60712 0.47344 0.0
H2044 H 0.58543 0.37711 0.54612 0.0
H2045 H 0.58318 0.37156 0.46515 0.0
H2046 H 0.64582 0.37436 0.45479 0.0
H2047 H 0.64825 0.37929 0.53577 0.0
H2048 H 0.59555 0.39542 0.39563 0.0
H2049 H 0.63366 0.32411 0.38745 0.0
H2050 H 0.62506 0.33444 0.4395 0.0
H2051 H 0.64747 0.34291 0.41495 0.0
C2052 C 0.59877 0.37623 0.5268 0.0
C2053 C 0.61704 0.3786 0.54778 0.0
C2054 C 0.59744 0.3732 0.48036 0.0
C2055 C 0.61433 0.37228 0.45375 0.0
C2056 C 0.63257 0.37464 0.47454 0.0
H2057 H 0.63729 0.35855 0.1674 0.0
H2058 H 0.63949 0.36403 0.24842 0.0
C2059 C 0.63392 0.3777 0.52093 0.0
C2060 C 0.61283 0.36946 0.40416 0.0
H2061 H 0.62711 0.33973 0.31794 0.0
C2062 C 0.60236 0.38318 0.3787 0.0
C2063 C 0.62176 0.35352 0.38187 0.0
C2064 C 0.63247 0.33779 0.40732 0.0
C2065 C 0.60088 0.38161 0.33172 0.0
C2066 C 0.60983 0.36569 0.30943 0.0
C2067 C 0.6203 0.35197 0.33488 0.0
C2068 C 0.60836 0.3629 0.25984 0.0
C2069 C 0.59013 0.3973 0.30624 0.0
C2070 C 0.59014 0.36033 0.23907 0.0
C2071 C 0.58882 0.35728 0.19267 0.0
C2072 C 0.60571 0.35663 0.1658 0.0
C2073 C 0.62395 0.35923 0.18675 0.0
C2074 C 0.62525 0.36223 0.23321 0.0
H2075 H 0.58878 0.41095 0.32619 0.0
H2076 H 0.59761 0.40075 0.2742 0.0
H2077 H 0.57519 0.39208 0.29832 0.0
H2078 H 0.5769 0.36044 0.25884 0.0
H2079 H 0.57451 0.3555 0.17783 0.0
H2080 H 0.88214 0.61929 0.9123 0.0
H2081 H 0.88779 0.62056 0.99335 0.0
H2082 H 0.82894 0.60091 0.01676 0.0
H2083 H 0.82338 0.59894 0.936 0.0
H2084 H 0.86881 0.64244 0.05818 0.0
H2085 H 0.86017 0.5635 0.09438 0.0
H2086 H 0.86322 0.57277 0.03818 0.0
H2087 H 0.83981 0.57399 0.06522 0.0
C2088 C 0.87047 0.61496 0.93462 0.0
C2089 C 0.8523 0.60895 0.91731 0.0
C2090 C 0.87369 0.61583 0.98105 0.0
C2091 C 0.8589 0.61056 1.01134 0.0
C2092 C 0.84073 0.60469 0.99423 0.0
H2093 H 0.84844 0.60806 0.30326 0.0
H2094 H 0.84278 0.6067 0.22221 0.0
C2095 C 0.83749 0.60382 0.94787 0.0
C2096 C 0.86229 0.61171 0.06077 0.0
H2097 H 0.86175 0.58473 0.15731 0.0
C2098 C 0.86737 0.62979 0.0798 0.0
C2099 C 0.86035 0.59524 0.08916 0.0
C2100 C 0.85577 0.57523 0.07074 0.0
C2101 C 0.87021 0.63192 0.12632 0.0
C2102 C 0.86828 0.61545 0.15472 0.0
C2103 C 0.86318 0.59738 0.13569 0.0
C2104 C 0.87169 0.6166 0.20413 0.0
C2105 C 0.8748 0.65193 0.14475 0.0
C2106 C 0.88988 0.62245 0.22118 0.0
C2107 C 0.89313 0.62336 0.26753 0.0
C2108 C 0.87831 0.61831 0.29813 0.0
C2109 C 0.86012 0.61233 0.28089 0.0
C2110 C 0.85689 0.61141 0.23447 0.0
H2111 H 0.87041 0.66366 0.1211 0.0
H2112 H 0.86734 0.6544 0.17729 0.0
H2113 H 0.89076 0.65316 0.1503 0.0
H2114 H 0.90167 0.62618 0.1986 0.0
H2115 H 0.90726 0.62822 0.27935 0.0
H2116 H 0.62274 0.09754 0.74722 0.0
H2117 H 0.62042 0.10318 0.82797 0.0
H2118 H 0.61184 0.16467 0.80436 0.0
H2119 H 0.61419 0.15917 0.72343 0.0
H2120 H 0.64301 0.12568 0.88351 0.0
H2121 H 0.56664 0.15226 0.88732 0.0
H2122 H 0.577 0.14042 0.8388 0.0
H2123 H 0.58212 0.16573 0.84995 0.0
C2124 C 0.62045 0.1123 0.75908 0.0
C2125 C 0.61863 0.12788 0.72852 0.0
C2126 C 0.61904 0.11549 0.8054 0.0
C2127 C 0.61566 0.1343 0.82247 0.0
C2128 C 0.61397 0.14993 0.79214 0.0
H2129 H 0.60624 0.18346 0.09113 0.0
H2130 H 0.6085 0.17778 1.01042 0.0
C2131 C 0.61534 0.14676 0.74575 0.0
C2132 C 0.61438 0.13756 0.87197 0.0
H2133 H 0.58471 0.15513 0.95494 0.0
C2134 C 0.63022 0.13203 0.89912 0.0
C2135 C 0.5977 0.14586 0.89254 0.0
C2136 C 0.57982 0.15125 0.86577 0.0
C2137 C 0.62998 0.1349 0.9459 0.0
C2138 C 0.61333 0.14323 0.96642 0.0
C2139 C 0.59749 0.14876 0.93931 0.0
C2140 C 0.61208 0.1465 0.01588 0.0
C2141 C 0.64779 0.12939 0.97281 0.0
C2142 C 0.61314 0.1308 0.04614 0.0
C2143 C 0.61171 0.13398 0.09252 0.0
C2144 C 0.60907 0.15295 0.10983 0.0
C2145 C 0.60797 0.16861 0.07928 0.0
C2146 C 0.60937 0.16541 0.03297 0.0
H2147 H 0.66094 0.12796 0.95129 0.0
H2148 H 0.65079 0.1404 0.99929 0.0
H2149 H 0.64522 0.11511 0.98935 0.0
H2150 H 0.6148 0.11601 0.03385 0.0
H2151 H 0.61229 0.1215 0.11475 0.0
H2152 H 0.09636 0.38369 0.27897 0.0
H2153 H 0.10212 0.38564 0.19824 0.0
H2154 H 0.16277 0.39844 0.22256 0.0
H2155 H 0.15729 0.39586 0.30344 0.0
H2156 H 0.1154 0.41639 0.14689 0.0
H2157 H 0.16629 0.35371 0.133 0.0
H2158 H 0.15167 0.35801 0.18234 0.0
H2159 H 0.17361 0.37183 0.17314 0.0
C2160 C 0.11101 0.38665 0.26728 0.0
C2161 C 0.12638 0.38943 0.29803 0.0
C2162 C 0.11425 0.38791 0.22097 0.0
C2163 C 0.13295 0.39188 0.20407 0.0
C2164 C 0.14828 0.39497 0.23459 0.0
H2165 H 0.18129 0.40502 0.93556 0.0
H2166 H 0.17561 0.4032 0.01629 0.0
C2167 C 0.14506 0.39372 0.28098 0.0
C2168 C 0.13623 0.39313 0.1546 0.0
H2169 H 0.16224 0.37321 0.06802 0.0
C2170 C 0.12559 0.40689 0.12963 0.0
C2171 C 0.14954 0.38076 0.13192 0.0
C2172 C 0.16082 0.36512 0.15632 0.0
C2173 C 0.12813 0.40887 0.08298 0.0
C2174 C 0.14141 0.39648 0.06027 0.0
C2175 C 0.15206 0.38272 0.08526 0.0
C2176 C 0.14464 0.39767 1.01075 0.0
C2177 C 0.11692 0.4246 0.05869 0.0
C2178 C 0.12919 0.39494 0.98034 0.0
C2179 C 0.13236 0.39617 0.93394 0.0
C2180 C 0.1511 0.40004 0.9167 0.0
C2181 C 0.16659 0.40242 0.94734 0.0
C2182 C 0.1634 0.40122 0.99368 0.0
H2183 H 0.11172 0.43612 0.08204 0.0
H2184 H 0.126 0.43155 0.03233 0.0
H2185 H 0.10394 0.41801 0.04236 0.0
H2186 H 0.11466 0.39176 0.99247 0.0
H2187 H 0.12003 0.39435 0.91161 0.0
H2188 H 0.37839 0.82894 0.09792 0.0
H2189 H 0.3768 0.83356 0.01668 0.0
H2190 H 0.42052 0.87863 0.02553 0.0
H2191 H 0.42275 0.87363 0.10653 0.0
H2192 H 0.3671 0.86585 0.96695 0.0
H2193 H 0.44303 0.84367 0.92864 0.0
H2194 H 0.43183 0.83917 0.98239 0.0
H2195 H 0.44142 0.86294 0.96926 0.0
C2196 C 0.38788 0.83967 0.08262 0.0
C2197 C 0.40082 0.85079 0.10904 0.0
C2198 C 0.38684 0.84239 0.03608 0.0
C2199 C 0.39878 0.85621 0.01467 0.0
C2200 C 0.41145 0.86758 0.04098 0.0
H2201 H 0.4126 0.89793 0.74124 0.0
H2202 H 0.41424 0.89202 0.82204 0.0
C2203 C 0.41251 0.86487 0.08752 0.0
C2204 C 0.3977 0.85892 0.96502 0.0
H2205 H 0.42503 0.85803 0.86903 0.0
C2206 C 0.37974 0.86402 0.94553 0.0
C2207 C 0.41419 0.85652 0.93689 0.0
C2208 C 0.43367 0.85009 0.95522 0.0
C2209 C 0.37792 0.86721 0.89906 0.0
C2210 C 0.39443 0.86496 0.87103 0.0
C2211 C 0.41237 0.85978 0.89045 0.0
C2212 C 0.39348 0.86824 0.82159 0.0
C2213 C 0.35842 0.87347 0.88051 0.0
C2214 C 0.3815 0.85664 0.7941 0.0
C2215 C 0.38048 0.86002 0.74775 0.0
C2216 C 0.39143 0.8751 0.72779 0.0
C2217 C 0.40369 0.88643 0.75541 0.0
C2218 C 0.40475 0.88299 0.80166 0.0
H2219 H 0.3486 0.87905 0.90721 0.0
H2220 H 0.36025 0.88501 0.85471 0.0
H2221 H 0.35122 0.86075 0.86445 0.0
H2222 H 0.37291 0.84494 0.80849 0.0
H2223 H 0.37081 0.85106 0.7277 0.0
H2224 H 0.8571 0.93081 0.3474 0.0
H2225 H 0.86171 0.92823 0.26624 0.0
H2226 H 0.85941 0.86547 0.27576 0.0
H2227 H 0.85431 0.86793 0.35681 0.0
H2228 H 0.89112 0.90965 0.21718 0.0
H2229 H 0.81886 0.87719 0.17852 0.0
H2230 H 0.82429 0.88847 0.2318 0.0
H2231 H 0.83264 0.86412 0.22003 0.0
C2232 C 0.85739 0.91644 0.33225 0.0
C2233 C 0.85518 0.89958 0.35884 0.0
C2234 C 0.86014 0.91499 0.28579 0.0
C2235 C 0.8606 0.89667 0.26462 0.0
C2236 C 0.85876 0.8798 0.29109 0.0
H2237 H 0.87546 0.85762 0.98837 0.0
H2238 H 0.87076 0.86018 0.0695 0.0
C2239 C 0.85606 0.88122 0.3376 0.0
C2240 C 0.86323 0.89526 0.215 0.0
H2241 H 0.84159 0.87874 0.11873 0.0
C2242 C 0.88025 0.90296 0.19564 0.0
C2243 C 0.84906 0.88653 0.18677 0.0
C2244 C 0.83009 0.87875 0.20516 0.0
C2245 C 0.88366 0.90185 0.14914 0.0
C2246 C 0.86949 0.89312 0.1209 0.0
C2247 C 0.85247 0.88542 0.14026 0.0
C2248 C 0.87212 0.89173 0.07127 0.0
C2249 C 0.90264 0.9096 0.13079 0.0
C2250 C 0.87412 0.90861 0.04488 0.0
C2251 C 0.87688 0.9072 0.99839 0.0
C2252 C 0.87767 0.88885 0.97708 0.0
C2253 C 0.87527 0.87199 1.00357 0.0
C2254 C 0.87245 0.87342 0.05002 0.0
H2255 H 0.91389 0.91106 0.15743 0.0
H2256 H 0.90841 0.89992 0.10402 0.0
H2257 H 0.90015 0.92427 0.11612 0.0
H2258 H 0.87354 0.92293 0.06025 0.0
H2259 H 0.87879 0.9205 0.97928 0.0
H2260 H 0.90157 0.15772 0.05288 0.0
H2261 H 0.90418 0.16291 0.97186 0.0
H2262 H 0.87919 0.1061 0.948 0.0
H2263 H 0.8769 0.10057 0.02868 0.0
H2264 H 0.92436 0.14026 0.90634 0.0
H2265 H 0.84486 0.1426 0.87153 0.0
H2266 H 0.85476 0.14523 0.92733 0.0
H2267 H 0.85282 0.12146 0.90215 0.0
C2268 C 0.89675 0.14623 0.03052 0.0
C2269 C 0.88889 0.12875 0.04773 0.0
C2270 C 0.89816 0.14929 0.98409 0.0
C2271 C 0.89159 0.13504 0.95372 0.0
C2272 C 0.88395 0.11751 0.97067 0.0
H2273 H 0.88683 0.12453 0.66218 0.0
H2274 H 0.88455 0.11954 0.7433 0.0
C2275 C 0.88261 0.1144 0.017 0.0
C2276 C 0.89305 0.1383 0.90434 0.0
H2277 H 0.86586 0.14172 0.80842 0.0
C2278 C 0.91157 0.14069 0.88496 0.0
C2279 C 0.87637 0.13878 0.87633 0.0
C2280 C 0.85605 0.13706 0.8953 0.0
C2281 C 0.91387 0.14316 0.83837 0.0
C2282 C 0.89718 0.14367 0.81033 0.0
C2283 C 0.87867 0.1413 0.82976 0.0
C2284 C 0.89861 0.14679 0.76085 0.0
C2285 C 0.93423 0.1447 0.81948 0.0
C2286 C 0.90699 0.1639 0.74346 0.0
C2287 C 0.90822 0.16685 0.69705 0.0
C2288 C 0.90101 0.15281 0.6667 0.0
C2289 C 0.8924 0.13577 0.6843 0.0
C2290 C 0.89116 0.13284 0.73078 0.0
H2291 H 0.94529 0.13871 0.84298 0.0
H2292 H 0.93541 0.13681 0.78704 0.0
H2293 H 0.93776 0.16029 0.81355 0.0
H2294 H 0.91239 0.17513 0.76583 0.0
H2295 H 0.91455 0.18035 0.68499 0.0
H2296 H 0.1407 0.14675 0.98929 0.0
H2297 H 0.14676 0.14523 0.07012 0.0
H2298 H 0.11976 0.08842 0.07529 0.0
H2299 H 0.11429 0.08949 0.9944 0.0
H2300 H 0.12054 0.1422 0.13939 0.0
H2301 H 0.17036 0.0785 0.14169 0.0
H2302 H 0.16414 0.09123 0.09068 0.0
H2303 H 0.14758 0.07362 0.11422 0.0
C2304 C 0.13634 0.13377 1.00741 0.0
C2305 C 0.12704 0.11822 0.98499 0.0
C2306 C 0.13969 0.13299 0.0538 0.0
C2307 C 0.13398 0.1166 0.07891 0.0
C2308 C 0.12467 0.10108 0.0567 0.0
H2309 H 0.13539 0.08546 0.36258 0.0
H2310 H 0.12989 0.08716 0.28147 0.0
C2311 C 0.12132 0.10184 1.01036 0.0
C2312 C 0.1372 0.11599 0.12846 0.0
H2313 H 0.1584 0.0893 0.21237 0.0
C2314 C 0.12893 0.1307 0.15528 0.0
C2315 C 0.14812 0.10097 0.1494 0.0
C2316 C 0.15823 0.08528 0.12253 0.0
C2317 C 0.13094 0.13059 0.20229 0.0
C2318 C 0.14174 0.1155 0.2232 0.0
C2319 C 0.15005 0.10082 0.19642 0.0
C2320 C 0.14473 0.11478 0.27275 0.0
C2321 C 0.1211 0.14639 0.2293 0.0
C2322 C 0.15499 0.12967 0.29498 0.0
C2323 C 0.15814 0.12876 0.34138 0.0
C2324 C 0.15111 0.1129 0.36676 0.0
C2325 C 0.14079 0.09802 0.34434 0.0
C2326 C 0.13774 0.0989 0.29787 0.0
H2327 H 0.10954 0.15393 0.20973 0.0
H2328 H 0.1145 0.1403 0.26028 0.0
H2329 H 0.13211 0.15745 0.23932 0.0
H2330 H 0.16078 0.14193 0.27633 0.0
H2331 H 0.16602 0.14055 0.35744 0.0
H2332 H 0.11666 0.87982 0.662 0.0
H2333 H 0.11928 0.88538 0.74278 0.0
H2334 H 0.11979 0.82323 0.76543 0.0
H2335 H 0.11806 0.81751 0.6847 0.0
H2336 H 0.0947 0.87523 0.81014 0.0
H2337 H 0.16623 0.83977 0.83917 0.0
H2338 H 0.15734 0.84537 0.7837 0.0
H2339 H 0.14878 0.824 0.81273 0.0
C2340 C 0.11769 0.86728 0.68397 0.0
C2341 C 0.11726 0.84818 0.66634 0.0
C2342 C 0.11902 0.87051 0.73037 0.0
C2343 C 0.12006 0.85475 0.76048 0.0
C2344 C 0.11946 0.83568 0.74309 0.0
H2345 H 0.12334 0.84471 0.05302 0.0
H2346 H 0.12194 0.83873 0.97209 0.0
C2347 C 0.11818 0.83243 0.69671 0.0
C2348 C 0.12115 0.85831 0.81001 0.0
H2349 H 0.14813 0.84857 0.90409 0.0
C2350 C 0.10646 0.86948 0.83058 0.0
C2351 C 0.13644 0.85079 0.837 0.0
C2352 C 0.1532 0.83947 0.81703 0.0
C2353 C 0.10644 0.87305 0.87713 0.0
C2354 C 0.12172 0.86553 0.90409 0.0
C2355 C 0.13639 0.85432 0.8836 0.0
C2356 C 0.12279 0.86925 0.9535 0.0
C2357 C 0.08977 0.88448 0.89716 0.0
C2358 C 0.12406 0.88838 0.97032 0.0
C2359 C 0.12476 0.89187 0.01665 0.0
C2360 C 0.12434 0.8763 0.04754 0.0
C2361 C 0.12341 0.85711 0.0305 0.0
C2362 C 0.12274 0.85364 0.9841 0.0
H2363 H 0.07682 0.88457 0.87474 0.0
H2364 H 0.08542 0.87838 0.93015 0.0
H2365 H 0.09443 0.89984 0.90228 0.0
H2366 H 0.1245 0.90069 0.94756 0.0
H2367 H 0.12528 0.90685 0.02823 0.0
loop_
_geom_bond_atom_site_label_1
_geom_bond_atom_site_label_2
_geom_bond_distance
_geom_bond_site_symmetry_2
_ccdc_geom_bond_type
C0 Eu1 2.835 1_556 S
C0 C2 1.500 . S
C0 O20 1.257 1_556 S
C0 O21 1.260 1_556 S
Eu1 C0 2.835 1_554 S
Eu1 O20 2.473 . S
Eu1 O21 2.480 . S
Eu1 O22 2.430 . S
Eu1 O23 2.670 . S
Eu1 O24 2.394 . S
Eu1 O29 2.355 . S
Eu1 O31 2.374 . S
C2 C0 1.500 . S
C2 C3 1.377 . S
C2 C7 1.377 . S
C3 C2 1.377 . S
C3 C4 1.395 . S
C3 H32 0.931 . S
C4 C3 1.395 . S
C4 C5 1.383 . S
C4 H33 0.931 . S
C5 C4 1.383 . S
C5 C6 1.394 . S
C6 C5 1.394 . S
C6 C7 1.378 . S
C6 H34 0.931 . S
C7 C2 1.377 . S
C7 C6 1.378 . S
C7 H35 0.931 . S
C8 O22 1.259 . S
C8 O23 1.270 . S
C9 O24 1.251 . S
C9 O25 1.251 . S
C10 Eu11 2.835 . S
C10 C12 1.500 . S
C10 O26 1.257 . S
C10 O27 1.260 . S
Eu11 C10 2.835 . S
Eu11 O23 2.355 . S
Eu11 O25 2.374 . S
Eu11 O26 2.473 . S
Eu11 O27 2.480 . S
Eu11 O28 2.430 . S
Eu11 O29 2.670 . S
Eu11 O30 2.394 . S
C12 C10 1.500 . S
C12 C13 1.377 . S
C12 C17 1.377 . S
C13 C12 1.377 . S
C13 C14 1.395 . S
C13 H36 0.931 . S
C14 C13 1.395 . S
C14 C15 1.383 . S
C14 H37 0.931 . S
C15 C14 1.383 . S
C15 C16 1.394 . S
C16 C15 1.394 . S
C16 C17 1.378 . S
C16 H38 0.931 . S
C17 C12 1.377 . S
C17 C16 1.378 . S
C17 H39 0.931 . S
C18 O28 1.259 . S
C18 O29 1.270 . S
C19 O30 1.251 . S
C19 O31 1.251 . S
O20 C0 1.257 1_554 S
O20 Eu1 2.473 . S
O21 C0 1.260 1_554 S
O21 Eu1 2.480 . S
O22 Eu1 2.430 . S
O22 C8 1.259 . S
O23 Eu1 2.670 . S
O23 C8 1.270 . S
O23 Eu11 2.355 . S
O24 Eu1 2.394 . S
O24 C9 1.251 . S
O25 C9 1.251 . S
O25 Eu11 2.374 . S
O26 C10 1.257 . S
O26 Eu11 2.473 . S
O27 C10 1.260 . S
O27 Eu11 2.480 . S
O28 Eu11 2.430 . S
O28 C18 1.259 . S
O29 Eu1 2.355 . S
O29 Eu11 2.670 . S
O29 C18 1.270 . S
O30 Eu11 2.394 . S
O30 C19 1.251 . S
O31 Eu1 2.374 . S
O31 C19 1.251 . S
H32 C3 0.931 . S
H33 C4 0.931 . S
H34 C6 0.931 . S
H35 C7 0.931 . S
H36 C13 0.931 . S
H37 C14 0.931 . S
H38 C16 0.931 . S
H39 C17 0.931 . S
C40 Eu41 2.835 . S
C40 C42 1.500 . S
C40 O60 1.257 . S
C40 O61 1.260 . S
Eu41 C40 2.835 . S
Eu41 O60 2.473 . S
Eu41 O61 2.480 . S
Eu41 O62 2.430 . S
Eu41 O63 2.670 . S
Eu41 O64 2.394 . S
Eu41 O69 2.355 . S
Eu41 O71 2.374 . S
C42 C40 1.500 . S
C42 C43 1.377 . S
C42 C47 1.377 . S
C43 C42 1.377 . S
C43 C44 1.395 . S
C43 H72 0.931 . S
C44 C43 1.395 . S
C44 C45 1.383 . S
C44 H73 0.931 . S
C45 C44 1.383 . S
C45 C46 1.394 . S
C46 C45 1.394 . S
C46 C47 1.378 . S
C46 H74 0.931 . S
C47 C42 1.377 . S
C47 C46 1.378 . S
C47 H75 0.931 . S
C48 O62 1.259 . S
C48 O63 1.270 . S
C49 O64 1.251 . S
C49 O65 1.251 . S
C50 Eu51 2.835 1_554 S
C50 C52 1.500 . S
C50 O66 1.257 1_554 S
C50 O67 1.260 1_554 S
Eu51 C50 2.835 1_556 S
Eu51 O63 2.355 . S
Eu51 O65 2.374 . S
Eu51 O66 2.473 . S
Eu51 O67 2.480 . S
Eu51 O68 2.430 . S
Eu51 O69 2.670 . S
Eu51 O70 2.394 . S
C52 C50 1.500 . S
C52 C53 1.377 . S
C52 C57 1.377 . S
C53 C52 1.377 . S
C53 C54 1.395 . S
C53 H76 0.931 . S
C54 C53 1.395 . S
C54 C55 1.383 . S
C54 H77 0.931 . S
C55 C54 1.383 . S
C55 C56 1.394 . S
C56 C55 1.394 . S
C56 C57 1.378 . S
C56 H78 0.931 . S
C57 C52 1.377 . S
C57 C56 1.378 . S
C57 H79 0.931 . S
C58 O68 1.259 . S
C58 O69 1.270 . S
C59 O70 1.251 . S
C59 O71 1.251 . S
O60 C40 1.257 . S
O60 Eu41 2.473 . S
O61 C40 1.260 . S
O61 Eu41 2.480 . S
O62 Eu41 2.430 . S
O62 C48 1.259 . S
O63 Eu41 2.670 . S
O63 C48 1.270 . S
O63 Eu51 2.355 . S
O64 Eu41 2.394 . S
O64 C49 1.251 . S
O65 C49 1.251 . S
O65 Eu51 2.374 . S
O66 C50 1.257 1_556 S
O66 Eu51 2.473 . S
O67 C50 1.260 1_556 S
O67 Eu51 2.480 . S
O68 Eu51 2.430 . S
O68 C58 1.259 . S
O69 Eu41 2.355 . S
O69 Eu51 2.670 . S
O69 C58 1.270 . S
O70 Eu51 2.394 . S
O70 C59 1.251 . S
O71 Eu41 2.374 . S
O71 C59 1.251 . S
H72 C43 0.931 . S
H73 C44 0.931 . S
H74 C46 0.931 . S
H75 C47 0.931 . S
H76 C53 0.931 . S
H77 C54 0.931 . S
H78 C56 0.931 . S
H79 C57 0.931 . S
C80 Eu81 2.835 1_556 S
C80 C82 1.500 . S
C80 O100 1.257 1_556 S
C80 O101 1.260 1_556 S
Eu81 C80 2.835 1_554 S
Eu81 O100 2.473 . S
Eu81 O101 2.480 . S
Eu81 O102 2.430 . S
Eu81 O103 2.670 . S
Eu81 O104 2.394 . S
Eu81 O109 2.355 . S
Eu81 O111 2.374 . S
C82 C80 1.500 . S
C82 C83 1.377 . S
C82 C87 1.377 . S
C83 C82 1.377 . S
C83 C84 1.395 . S
C83 H112 0.931 . S
C84 C83 1.395 . S
C84 C85 1.383 . S
C84 H113 0.931 . S
C85 C84 1.383 . S
C85 C86 1.394 . S
C86 C85 1.394 . S
C86 C87 1.378 . S
C86 H114 0.931 . S
C87 C82 1.377 . S
C87 C86 1.378 . S
C87 H115 0.931 . S
C88 O102 1.259 . S
C88 O103 1.270 . S
C89 O104 1.251 . S
C89 O105 1.251 . S
C90 Eu91 2.835 . S
C90 C92 1.500 . S
C90 O106 1.257 . S
C90 O107 1.260 . S
Eu91 C90 2.835 . S
Eu91 O103 2.355 . S
Eu91 O105 2.374 . S
Eu91 O106 2.473 . S
Eu91 O107 2.480 . S
Eu91 O108 2.430 . S
Eu91 O109 2.670 . S
Eu91 O110 2.394 . S
C92 C90 1.500 . S
C92 C93 1.377 . S
C92 C97 1.377 . S
C93 C92 1.377 . S
C93 C94 1.395 . S
C93 H116 0.931 . S
C94 C93 1.395 . S
C94 C95 1.383 . S
C94 H117 0.931 . S
C95 C94 1.383 . S
C95 C96 1.394 . S
C96 C95 1.394 . S
C96 C97 1.378 . S
C96 H118 0.931 . S
C97 C92 1.377 . S
C97 C96 1.378 . S
C97 H119 0.931 . S
C98 O108 1.259 . S
C98 O109 1.270 . S
C99 O110 1.251 . S
C99 O111 1.251 . S
O100 C80 1.257 1_554 S
O100 Eu81 2.473 . S
O101 C80 1.260 1_554 S
O101 Eu81 2.480 . S
O102 Eu81 2.430 . S
O102 C88 1.259 . S
O103 Eu81 2.670 . S
O103 C88 1.270 . S
O103 Eu91 2.355 . S
O104 Eu81 2.394 . S
O104 C89 1.251 . S
O105 C89 1.251 . S
O105 Eu91 2.374 . S
O106 C90 1.257 . S
O106 Eu91 2.473 . S
O107 C90 1.260 . S
O107 Eu91 2.480 . S
O108 Eu91 2.430 . S
O108 C98 1.259 . S
O109 Eu81 2.355 . S
O109 Eu91 2.670 . S
O109 C98 1.270 . S
O110 Eu91 2.394 . S
O110 C99 1.251 . S
O111 Eu81 2.374 . S
O111 C99 1.251 . S
H112 C83 0.931 . S
H113 C84 0.931 . S
H114 C86 0.931 . S
H115 C87 0.931 . S
H116 C93 0.931 . S
H117 C94 0.931 . S
H118 C96 0.931 . S
H119 C97 0.931 . S
C120 Eu121 2.835 . S
C120 C122 1.500 . S
C120 O140 1.257 . S
C120 O141 1.260 . S
Eu121 C120 2.835 . S
Eu121 O140 2.473 . S
Eu121 O141 2.480 . S
Eu121 O142 2.430 . S
Eu121 O143 2.670 . S
Eu121 O144 2.394 . S
Eu121 O149 2.355 . S
Eu121 O151 2.374 . S
C122 C120 1.500 . S
C122 C123 1.377 . S
C122 C127 1.377 . S
C123 C122 1.377 . S
C123 C124 1.395 . S
C123 H152 0.931 . S
C124 C123 1.395 . S
C124 C125 1.383 . S
C124 H153 0.931 . S
C125 C124 1.383 . S
C125 C126 1.394 . S
C126 C125 1.394 . S
C126 C127 1.378 . S
C126 H154 0.931 . S
C127 C122 1.377 . S
C127 C126 1.378 . S
C127 H155 0.931 . S
C128 O142 1.259 . S
C128 O143 1.270 . S
C129 O144 1.251 . S
C129 O145 1.251 . S
C130 Eu131 2.835 1_554 S
C130 C132 1.500 . S
C130 O146 1.257 1_554 S
C130 O147 1.260 1_554 S
Eu131 C130 2.835 1_556 S
Eu131 O143 2.355 . S
Eu131 O145 2.374 . S
Eu131 O146 2.473 . S
Eu131 O147 2.480 . S
Eu131 O148 2.430 . S
Eu131 O149 2.670 . S
Eu131 O150 2.394 . S
C132 C130 1.500 . S
C132 C133 1.377 . S
C132 C137 1.377 . S
C133 C132 1.377 . S
C133 C134 1.395 . S
C133 H156 0.931 . S
C134 C133 1.395 . S
C134 C135 1.383 . S
C134 H157 0.931 . S
C135 C134 1.383 . S
C135 C136 1.394 . S
C136 C135 1.394 . S
C136 C137 1.378 . S
C136 H158 0.931 . S
C137 C132 1.377 . S
C137 C136 1.378 . S
C137 H159 0.931 . S
C138 O148 1.259 . S
C138 O149 1.270 . S
C139 O150 1.251 . S
C139 O151 1.251 . S
O140 C120 1.257 . S
O140 Eu121 2.473 . S
O141 C120 1.260 . S
O141 Eu121 2.480 . S
O142 Eu121 2.430 . S
O142 C128 1.259 . S
O143 Eu121 2.670 . S
O143 C128 1.270 . S
O143 Eu131 2.355 . S
O144 Eu121 2.394 . S
O144 C129 1.251 . S
O145 C129 1.251 . S
O145 Eu131 2.374 . S
O146 C130 1.257 1_556 S
O146 Eu131 2.473 . S
O147 C130 1.260 1_556 S
O147 Eu131 2.480 . S
O148 Eu131 2.430 . S
O148 C138 1.259 . S
O149 Eu121 2.355 . S
O149 Eu131 2.670 . S
O149 C138 1.270 . S
O150 Eu131 2.394 . S
O150 C139 1.251 . S
O151 Eu121 2.374 . S
O151 C139 1.251 . S
H152 C123 0.931 . S
H153 C124 0.931 . S
H154 C126 0.931 . S
H155 C127 0.931 . S
H156 C133 0.931 . S
H157 C134 0.931 . S
H158 C136 0.931 . S
H159 C137 0.931 . S
C160 Eu161 2.835 . S
C160 C162 1.500 . S
C160 O180 1.257 . S
C160 O181 1.260 . S
Eu161 C160 2.835 . S
Eu161 O180 2.473 . S
Eu161 O181 2.480 . S
Eu161 O182 2.430 . S
Eu161 O183 2.670 . S
Eu161 O184 2.394 . S
Eu161 O189 2.355 . S
Eu161 O191 2.374 . S
C162 C160 1.500 . S
C162 C163 1.377 . S
C162 C167 1.377 . S
C163 C162 1.377 . S
C163 C164 1.395 . S
C163 H192 0.931 . S
C164 C163 1.395 . S
C164 C165 1.383 . S
C164 H193 0.931 . S
C165 C164 1.383 . S
C165 C166 1.394 . S
C166 C165 1.394 . S
C166 C167 1.378 . S
C166 H194 0.931 . S
C167 C162 1.377 . S
C167 C166 1.378 . S
C167 H195 0.931 . S
C168 O182 1.259 . S
C168 O183 1.270 . S
C169 O184 1.251 . S
C169 O185 1.251 . S
C170 Eu171 2.835 1_556 S
C170 C172 1.500 . S
C170 O186 1.249 1_556 S
C170 O187 1.260 . S
Eu171 C170 2.835 1_554 S
Eu171 O183 2.355 . S
Eu171 O185 2.374 . S
Eu171 O186 2.486 . S
Eu171 O187 2.480 1_554 S
Eu171 O188 2.430 . S
Eu171 O189 2.670 . S
Eu171 O190 2.394 . S
C172 C170 1.500 . S
C172 C173 1.377 . S
C172 C177 1.377 . S
C173 C172 1.377 . S
C173 C174 1.395 . S
C173 H196 0.931 . S
C174 C173 1.395 . S
C174 C175 1.383 . S
C174 H197 0.931 . S
C175 C174 1.383 . S
C175 C176 1.394 . S
C176 C175 1.394 . S
C176 C177 1.378 . S
C176 H198 0.931 . S
C177 C172 1.377 . S
C177 C176 1.378 . S
C177 H199 0.931 . S
C178 O188 1.259 . S
C178 O189 1.270 . S
C179 O190 1.251 . S
C179 O191 1.251 . S
O180 C160 1.257 . S
O180 Eu161 2.473 . S
O181 C160 1.260 . S
O181 Eu161 2.480 . S
O182 Eu161 2.430 . S
O182 C168 1.259 . S
O183 Eu161 2.670 . S
O183 C168 1.270 . S
O183 Eu171 2.355 . S
O184 Eu161 2.394 . S
O184 C169 1.251 . S
O185 C169 1.251 . S
O185 Eu171 2.374 . S
O186 C170 1.249 1_554 S
O186 Eu171 2.486 . S
O187 C170 1.260 . S
O187 Eu171 2.480 1_556 S
O188 Eu171 2.430 . S
O188 C178 1.259 . S
O189 Eu161 2.355 . S
O189 Eu171 2.670 . S
O189 C178 1.270 . S
O190 Eu171 2.394 . S
O190 C179 1.251 . S
O191 Eu161 2.374 . S
O191 C179 1.251 . S
H192 C163 0.931 . S
H193 C164 0.931 . S
H194 C166 0.931 . S
H195 C167 0.931 . S
H196 C173 0.931 . S
H197 C174 0.931 . S
H198 C176 0.931 . S
H199 C177 0.931 . S
C200 Eu201 2.835 1_554 S
C200 C202 1.500 . S
C200 O220 1.249 1_554 S
C200 O221 1.260 . S
Eu201 C200 2.835 1_556 S
Eu201 O220 2.486 . S
Eu201 O221 2.480 1_556 S
Eu201 O222 2.430 . S
Eu201 O223 2.670 . S
Eu201 O224 2.394 . S
Eu201 O229 2.355 . S
Eu201 O231 2.374 . S
C202 C200 1.500 . S
C202 C203 1.377 . S
C202 C207 1.377 . S
C203 C202 1.377 . S
C203 C204 1.395 . S
C203 H232 0.931 . S
C204 C203 1.395 . S
C204 C205 1.383 . S
C204 H233 0.931 . S
C205 C204 1.383 . S
C205 C206 1.394 . S
C206 C205 1.394 . S
C206 C207 1.378 . S
C206 H234 0.931 . S
C207 C202 1.377 . S
C207 C206 1.378 . S
C207 H235 0.931 . S
C208 O222 1.259 . S
C208 O223 1.270 . S
C209 O224 1.251 . S
C209 O225 1.251 . S
C210 Eu211 2.835 . S
C210 C212 1.500 . S
C210 O226 1.257 . S
C210 O227 1.260 . S
Eu211 C210 2.835 . S
Eu211 O223 2.355 . S
Eu211 O225 2.374 . S
Eu211 O226 2.473 . S
Eu211 O227 2.480 . S
Eu211 O228 2.430 . S
Eu211 O229 2.670 . S
Eu211 O230 2.394 . S
C212 C210 1.500 . S
C212 C213 1.377 . S
C212 C217 1.377 . S
C213 C212 1.377 . S
C213 C214 1.395 . S
C213 H236 0.931 . S
C214 C213 1.395 . S
C214 C215 1.383 . S
C214 H237 0.931 . S
C215 C214 1.383 . S
C215 C216 1.394 . S
C216 C215 1.394 . S
C216 C217 1.378 . S
C216 H238 0.931 . S
C217 C212 1.377 . S
C217 C216 1.378 . S
C217 H239 0.931 . S
C218 O228 1.259 . S
C218 O229 1.270 . S
C219 O230 1.251 . S
C219 O231 1.251 . S
O220 C200 1.249 1_556 S
O220 Eu201 2.486 . S
O221 C200 1.260 . S
O221 Eu201 2.480 1_554 S
O222 Eu201 2.430 . S
O222 C208 1.259 . S
O223 Eu201 2.670 . S
O223 C208 1.270 . S
O223 Eu211 2.355 . S
O224 Eu201 2.394 . S
O224 C209 1.251 . S
O225 C209 1.251 . S
O225 Eu211 2.374 . S
O226 C210 1.257 . S
O226 Eu211 2.473 . S
O227 C210 1.260 . S
O227 Eu211 2.480 . S
O228 Eu211 2.430 . S
O228 C218 1.259 . S
O229 Eu201 2.355 . S
O229 Eu211 2.670 . S
O229 C218 1.270 . S
O230 Eu211 2.394 . S
O230 C219 1.251 . S
O231 Eu201 2.374 . S
O231 C219 1.251 . S
H232 C203 0.931 . S
H233 C204 0.931 . S
H234 C206 0.931 . S
H235 C207 0.931 . S
H236 C213 0.931 . S
H237 C214 0.931 . S
H238 C216 0.931 . S
H239 C217 0.931 . S
C240 Eu241 2.835 . S
C240 C242 1.500 . S
C240 O260 1.257 . S
C240 O261 1.260 . S
Eu241 C240 2.835 . S
Eu241 O260 2.473 . S
Eu241 O261 2.480 . S
Eu241 O262 2.430 . S
Eu241 O263 2.670 . S
Eu241 O264 2.394 . S
Eu241 O269 2.355 . S
Eu241 O271 2.374 . S
C242 C240 1.500 . S
C242 C243 1.377 . S
C242 C247 1.377 . S
C243 C242 1.377 . S
C243 C244 1.395 . S
C243 H272 0.931 . S
C244 C243 1.395 . S
C244 C245 1.383 . S
C244 H273 0.931 . S
C245 C244 1.383 . S
C245 C246 1.394 . S
C246 C245 1.394 . S
C246 C247 1.378 . S
C246 H274 0.931 . S
C247 C242 1.377 . S
C247 C246 1.378 . S
C247 H275 0.931 . S
C248 O262 1.259 . S
C248 O263 1.270 . S
C249 O264 1.251 . S
C249 O265 1.251 . S
C250 Eu251 2.835 1_556 S
C250 C252 1.500 . S
C250 O266 1.249 1_556 S
C250 O267 1.260 . S
Eu251 C250 2.835 1_554 S
Eu251 O263 2.355 . S
Eu251 O265 2.374 . S
Eu251 O266 2.486 . S
Eu251 O267 2.480 1_554 S
Eu251 O268 2.430 . S
Eu251 O269 2.670 . S
Eu251 O270 2.394 . S
C252 C250 1.500 . S
C252 C253 1.377 . S
C252 C257 1.377 . S
C253 C252 1.377 . S
C253 C254 1.395 . S
C253 H276 0.931 . S
C254 C253 1.395 . S
C254 C255 1.383 . S
C254 H277 0.931 . S
C255 C254 1.383 . S
C255 C256 1.394 . S
C256 C255 1.394 . S
C256 C257 1.378 . S
C256 H278 0.931 . S
C257 C252 1.377 . S
C257 C256 1.378 . S
C257 H279 0.931 . S
C258 O268 1.259 . S
C258 O269 1.270 . S
C259 O270 1.251 . S
C259 O271 1.251 . S
O260 C240 1.257 . S
O260 Eu241 2.473 . S
O261 C240 1.260 . S
O261 Eu241 2.480 . S
O262 Eu241 2.430 . S
O262 C248 1.259 . S
O263 Eu241 2.670 . S
O263 C248 1.270 . S
O263 Eu251 2.355 . S
O264 Eu241 2.394 . S
O264 C249 1.251 . S
O265 C249 1.251 . S
O265 Eu251 2.374 . S
O266 C250 1.249 1_554 S
O266 Eu251 2.486 . S
O267 C250 1.260 . S
O267 Eu251 2.480 1_556 S
O268 Eu251 2.430 . S
O268 C258 1.259 . S
O269 Eu241 2.355 . S
O269 Eu251 2.670 . S
O269 C258 1.270 . S
O270 Eu251 2.394 . S
O270 C259 1.251 . S
O271 Eu241 2.374 . S
O271 C259 1.251 . S
H272 C243 0.931 . S
H273 C244 0.931 . S
H274 C246 0.931 . S
H275 C247 0.931 . S
H276 C253 0.931 . S
H277 C254 0.931 . S
H278 C256 0.931 . S
H279 C257 0.931 . S
C280 Eu281 2.835 1_554 S
C280 C282 1.500 . S
C280 O300 1.249 1_554 S
C280 O301 1.260 . S
Eu281 C280 2.835 1_556 S
Eu281 O300 2.486 . S
Eu281 O301 2.480 1_556 S
Eu281 O302 2.430 . S
Eu281 O303 2.670 . S
Eu281 O304 2.394 . S
Eu281 O309 2.355 . S
Eu281 O311 2.374 . S
C282 C280 1.500 . S
C282 C283 1.377 . S
C282 C287 1.377 . S
C283 C282 1.377 . S
C283 C284 1.395 . S
C283 H312 0.931 . S
C284 C283 1.395 . S
C284 C285 1.383 . S
C284 H313 0.931 . S
C285 C284 1.383 . S
C285 C286 1.394 . S
C286 C285 1.394 . S
C286 C287 1.378 . S
C286 H314 0.931 . S
C287 C282 1.377 . S
C287 C286 1.378 . S
C287 H315 0.931 . S
C288 O302 1.259 . S
C288 O303 1.270 . S
C289 O304 1.251 . S
C289 O305 1.251 . S
C290 Eu291 2.835 . S
C290 C292 1.500 . S
C290 O306 1.257 . S
C290 O307 1.260 . S
Eu291 C290 2.835 . S
Eu291 O303 2.355 . S
Eu291 O305 2.374 . S
Eu291 O306 2.473 . S
Eu291 O307 2.480 . S
Eu291 O308 2.430 . S
Eu291 O309 2.670 . S
Eu291 O310 2.394 . S
C292 C290 1.500 . S
C292 C293 1.377 . S
C292 C297 1.377 . S
C293 C292 1.377 . S
C293 C294 1.395 . S
C293 H316 0.931 . S
C294 C293 1.395 . S
C294 C295 1.383 . S
C294 H317 0.931 . S
C295 C294 1.383 . S
C295 C296 1.394 . S
C296 C295 1.394 . S
C296 C297 1.378 . S
C296 H318 0.931 . S
C297 C292 1.377 . S
C297 C296 1.378 . S
C297 H319 0.931 . S
C298 O308 1.259 . S
C298 O309 1.270 . S
C299 O310 1.251 . S
C299 O311 1.251 . S
O300 C280 1.249 1_556 S
O300 Eu281 2.486 . S
O301 C280 1.260 . S
O301 Eu281 2.480 1_554 S
O302 Eu281 2.430 . S
O302 C288 1.259 . S
O303 Eu281 2.670 . S
O303 C288 1.270 . S
O303 Eu291 2.355 . S
O304 Eu281 2.394 . S
O304 C289 1.251 . S
O305 C289 1.251 . S
O305 Eu291 2.374 . S
O306 C290 1.257 . S
O306 Eu291 2.473 . S
O307 C290 1.260 . S
O307 Eu291 2.480 . S
O308 Eu291 2.430 . S
O308 C298 1.259 . S
O309 Eu281 2.355 . S
O309 Eu291 2.670 . S
O309 C298 1.270 . S
O310 Eu291 2.394 . S
O310 C299 1.251 . S
O311 Eu281 2.374 . S
O311 C299 1.251 . S
H312 C283 0.931 . S
H313 C284 0.931 . S
H314 C286 0.931 . S
H315 C287 0.931 . S
H316 C293 0.931 . S
H317 C294 0.931 . S
H318 C296 0.931 . S
H319 C297 0.931 . S
C320 Eu321 2.835 . S
C320 C322 1.500 . S
C320 O340 1.257 . S
C320 O341 1.260 . S
Eu321 C320 2.835 . S
Eu321 O340 2.473 . S
Eu321 O341 2.480 . S
Eu321 O342 2.430 . S
Eu321 O343 2.670 . S
Eu321 O344 2.394 . S
Eu321 O349 2.355 . S
Eu321 O351 2.374 . S
C322 C320 1.500 . S
C322 C323 1.377 . S
C322 C327 1.377 . S
C323 C322 1.377 . S
C323 C324 1.395 . S
C323 H352 0.931 . S
C324 C323 1.395 . S
C324 C325 1.383 . S
C324 H353 0.931 . S
C325 C324 1.383 . S
C325 C326 1.394 . S
C326 C325 1.394 . S
C326 C327 1.378 . S
C326 H354 0.931 . S
C327 C322 1.377 . S
C327 C326 1.378 . S
C327 H355 0.931 . S
C328 O342 1.259 . S
C328 O343 1.270 . S
C329 O344 1.251 . S
C329 O345 1.251 . S
C330 Eu331 2.835 . S
C330 C332 1.500 . S
C330 O346 1.257 . S
C330 O347 1.260 . S
Eu331 C330 2.835 . S
Eu331 O343 2.355 . S
Eu331 O345 2.374 . S
Eu331 O346 2.473 . S
Eu331 O347 2.480 . S
Eu331 O348 2.430 . S
Eu331 O349 2.670 . S
Eu331 O350 2.394 . S
C332 C330 1.500 . S
C332 C333 1.377 . S
C332 C337 1.377 . S
C333 C332 1.377 . S
C333 C334 1.395 . S
C333 H356 0.931 . S
C334 C333 1.395 . S
C334 C335 1.383 . S
C334 H357 0.931 . S
C335 C334 1.383 . S
C335 C336 1.394 . S
C336 C335 1.394 . S
C336 C337 1.378 . S
C336 H358 0.931 . S
C337 C332 1.377 . S
C337 C336 1.378 . S
C337 H359 0.931 . S
C338 O348 1.259 . S
C338 O349 1.270 . S
C339 O350 1.251 . S
C339 O351 1.251 . S
O340 C320 1.257 . S
O340 Eu321 2.473 . S
O341 C320 1.260 . S
O341 Eu321 2.480 . S
O342 Eu321 2.430 . S
O342 C328 1.259 . S
O343 Eu321 2.670 . S
O343 C328 1.270 . S
O343 Eu331 2.355 . S
O344 Eu321 2.394 . S
O344 C329 1.251 . S
O345 C329 1.251 . S
O345 Eu331 2.374 . S
O346 C330 1.257 . S
O346 Eu331 2.473 . S
O347 C330 1.260 . S
O347 Eu331 2.480 . S
O348 Eu331 2.430 . S
O348 C338 1.259 . S
O349 Eu321 2.355 . S
O349 Eu331 2.670 . S
O349 C338 1.270 . S
O350 Eu331 2.394 . S
O350 C339 1.251 . S
O351 Eu321 2.374 . S
O351 C339 1.251 . S
H352 C323 0.931 . S
H353 C324 0.931 . S
H354 C326 0.931 . S
H355 C327 0.931 . S
H356 C333 0.931 . S
H357 C334 0.931 . S
H358 C336 0.931 . S
H359 C337 0.931 . S
C360 Eu361 2.835 . S
C360 C362 1.500 . S
C360 O380 1.257 . S
C360 O381 1.260 . S
Eu361 C360 2.835 . S
Eu361 O380 2.473 . S
Eu361 O381 2.480 . S
Eu361 O382 2.430 . S
Eu361 O383 2.670 . S
Eu361 O384 2.394 . S
Eu361 O389 2.355 . S
Eu361 O391 2.374 . S
C362 C360 1.500 . S
C362 C363 1.377 . S
C362 C367 1.377 . S
C363 C362 1.377 . S
C363 C364 1.395 . S
C363 H392 0.931 . S
C364 C363 1.395 . S
C364 C365 1.383 . S
C364 H393 0.931 . S
C365 C364 1.383 . S
C365 C366 1.394 . S
C366 C365 1.394 . S
C366 C367 1.378 . S
C366 H394 0.931 . S
C367 C362 1.377 . S
C367 C366 1.378 . S
C367 H395 0.931 . S
C368 O382 1.259 . S
C368 O383 1.270 . S
C369 O384 1.251 . S
C369 O385 1.251 . S
C370 Eu371 2.835 . S
C370 C372 1.500 . S
C370 O386 1.257 . S
C370 O387 1.260 . S
Eu371 C370 2.835 . S
Eu371 O383 2.355 . S
Eu371 O385 2.374 . S
Eu371 O386 2.473 . S
Eu371 O387 2.480 . S
Eu371 O388 2.430 . S
Eu371 O389 2.670 . S
Eu371 O390 2.394 . S
C372 C370 1.500 . S
C372 C373 1.377 . S
C372 C377 1.377 . S
C373 C372 1.377 . S
C373 C374 1.395 . S
C373 H396 0.931 . S
C374 C373 1.395 . S
C374 C375 1.383 . S
C374 H397 0.931 . S
C375 C374 1.383 . S
C375 C376 1.394 . S
C376 C375 1.394 . S
C376 C377 1.378 . S
C376 H398 0.931 . S
C377 C372 1.377 . S
C377 C376 1.378 . S
C377 H399 0.931 . S
C378 O388 1.259 . S
C378 O389 1.270 . S
C379 O390 1.251 . S
C379 O391 1.251 . S
O380 C360 1.257 . S
O380 Eu361 2.473 . S
O381 C360 1.260 . S
O381 Eu361 2.480 . S
O382 Eu361 2.430 . S
O382 C368 1.259 . S
O383 Eu361 2.670 . S
O383 C368 1.270 . S
O383 Eu371 2.355 . S
O384 Eu361 2.394 . S
O384 C369 1.251 . S
O385 C369 1.251 . S
O385 Eu371 2.374 . S
O386 C370 1.257 . S
O386 Eu371 2.473 . S
O387 C370 1.260 . S
O387 Eu371 2.480 . S
O388 Eu371 2.430 . S
O388 C378 1.259 . S
O389 Eu361 2.355 . S
O389 Eu371 2.670 . S
O389 C378 1.270 . S
O390 Eu371 2.394 . S
O390 C379 1.251 . S
O391 Eu361 2.374 . S
O391 C379 1.251 . S
H392 C363 0.931 . S
H393 C364 0.931 . S
H394 C366 0.931 . S
H395 C367 0.931 . S
H396 C373 0.931 . S
H397 C374 0.931 . S
H398 C376 0.931 . S
H399 C377 0.931 . S
C400 Eu401 2.835 . S
C400 C402 1.500 . S
C400 O420 1.257 . S
C400 O421 1.260 . S
Eu401 C400 2.835 . S
Eu401 O420 2.473 . S
Eu401 O421 2.480 . S
Eu401 O422 2.430 . S
Eu401 O423 2.670 . S
Eu401 O424 2.394 . S
Eu401 O429 2.355 . S
Eu401 O431 2.374 . S
C402 C400 1.500 . S
C402 C403 1.377 . S
C402 C407 1.377 . S
C403 C402 1.377 . S
C403 C404 1.395 . S
C403 H432 0.931 . S
C404 C403 1.395 . S
C404 C405 1.383 . S
C404 H433 0.931 . S
C405 C404 1.383 . S
C405 C406 1.394 . S
C406 C405 1.394 . S
C406 C407 1.378 . S
C406 H434 0.931 . S
C407 C402 1.377 . S
C407 C406 1.378 . S
C407 H435 0.931 . S
C408 O422 1.259 . S
C408 O423 1.270 . S
C409 O424 1.251 . S
C409 O425 1.251 . S
C410 Eu411 2.835 . S
C410 C412 1.500 . S
C410 O426 1.257 . S
C410 O427 1.260 . S
Eu411 C410 2.835 . S
Eu411 O423 2.355 . S
Eu411 O425 2.374 . S
Eu411 O426 2.473 . S
Eu411 O427 2.480 . S
Eu411 O428 2.430 . S
Eu411 O429 2.670 . S
Eu411 O430 2.394 . S
C412 C410 1.500 . S
C412 C413 1.377 . S
C412 C417 1.377 . S
C413 C412 1.377 . S
C413 C414 1.395 . S
C413 H436 0.931 . S
C414 C413 1.395 . S
C414 C415 1.383 . S
C414 H437 0.931 . S
C415 C414 1.383 . S
C415 C416 1.394 . S
C416 C415 1.394 . S
C416 C417 1.378 . S
C416 H438 0.931 . S
C417 C412 1.377 . S
C417 C416 1.378 . S
C417 H439 0.931 . S
C418 O428 1.259 . S
C418 O429 1.270 . S
C419 O430 1.251 . S
C419 O431 1.251 . S
O420 C400 1.257 . S
O420 Eu401 2.473 . S
O421 C400 1.260 . S
O421 Eu401 2.480 . S
O422 Eu401 2.430 . S
O422 C408 1.259 . S
O423 Eu401 2.670 . S
O423 C408 1.270 . S
O423 Eu411 2.355 . S
O424 Eu401 2.394 . S
O424 C409 1.251 . S
O425 C409 1.251 . S
O425 Eu411 2.374 . S
O426 C410 1.257 . S
O426 Eu411 2.473 . S
O427 C410 1.260 . S
O427 Eu411 2.480 . S
O428 Eu411 2.430 . S
O428 C418 1.259 . S
O429 Eu401 2.355 . S
O429 Eu411 2.670 . S
O429 C418 1.270 . S
O430 Eu411 2.394 . S
O430 C419 1.251 . S
O431 Eu401 2.374 . S
O431 C419 1.251 . S
H432 C403 0.931 . S
H433 C404 0.931 . S
H434 C406 0.931 . S
H435 C407 0.931 . S
H436 C413 0.931 . S
H437 C414 0.931 . S
H438 C416 0.931 . S
H439 C417 0.931 . S
C440 Eu441 2.835 . S
C440 C442 1.500 . S
C440 O460 1.257 . S
C440 O461 1.260 . S
Eu441 C440 2.835 . S
Eu441 O460 2.473 . S
Eu441 O461 2.480 . S
Eu441 O462 2.430 . S
Eu441 O463 2.670 . S
Eu441 O464 2.394 . S
Eu441 O469 2.355 . S
Eu441 O471 2.374 . S
C442 C440 1.500 . S
C442 C443 1.377 . S
C442 C447 1.377 . S
C443 C442 1.377 . S
C443 C444 1.395 . S
C443 H472 0.931 . S
C444 C443 1.395 . S
C444 C445 1.383 . S
C444 H473 0.931 . S
C445 C444 1.383 . S
C445 C446 1.394 . S
C446 C445 1.394 . S
C446 C447 1.378 . S
C446 H474 0.931 . S
C447 C442 1.377 . S
C447 C446 1.378 . S
C447 H475 0.931 . S
C448 O462 1.259 . S
C448 O463 1.270 . S
C449 O464 1.251 . S
C449 O465 1.251 . S
C450 Eu451 2.835 . S
C450 C452 1.500 . S
C450 O466 1.257 . S
C450 O467 1.260 . S
Eu451 C450 2.835 . S
Eu451 O463 2.355 . S
Eu451 O465 2.374 . S
Eu451 O466 2.473 . S
Eu451 O467 2.480 . S
Eu451 O468 2.430 . S
Eu451 O469 2.670 . S
Eu451 O470 2.394 . S
C452 C450 1.500 . S
C452 C453 1.377 . S
C452 C457 1.377 . S
C453 C452 1.377 . S
C453 C454 1.395 . S
C453 H476 0.931 . S
C454 C453 1.395 . S
C454 C455 1.383 . S
C454 H477 0.931 . S
C455 C454 1.383 . S
C455 C456 1.394 . S
C456 C455 1.394 . S
C456 C457 1.378 . S
C456 H478 0.931 . S
C457 C452 1.377 . S
C457 C456 1.378 . S
C457 H479 0.931 . S
C458 O468 1.259 . S
C458 O469 1.270 . S
C459 O470 1.251 . S
C459 O471 1.251 . S
O460 C440 1.257 . S
O460 Eu441 2.473 . S
O461 C440 1.260 . S
O461 Eu441 2.480 . S
O462 Eu441 2.430 . S
O462 C448 1.259 . S
O463 Eu441 2.670 . S
O463 C448 1.270 . S
O463 Eu451 2.355 . S
O464 Eu441 2.394 . S
O464 C449 1.251 . S
O465 C449 1.251 . S
O465 Eu451 2.374 . S
O466 C450 1.257 . S
O466 Eu451 2.473 . S
O467 C450 1.260 . S
O467 Eu451 2.480 . S
O468 Eu451 2.430 . S
O468 C458 1.259 . S
O469 Eu441 2.355 . S
O469 Eu451 2.670 . S
O469 C458 1.270 . S
O470 Eu451 2.394 . S
O470 C459 1.251 . S
O471 Eu441 2.374 . S
O471 C459 1.251 . S
H472 C443 0.931 . S
H473 C444 0.931 . S
H474 C446 0.931 . S
H475 C447 0.931 . S
H476 C453 0.931 . S
H477 C454 0.931 . S
H478 C456 0.931 . S
H479 C457 0.931 . S
C480 Eu481 2.835 . S
C480 C482 1.500 . S
C480 O500 1.257 . S
C480 O501 1.260 . S
Eu481 C480 2.835 . S
Eu481 O500 2.473 . S
Eu481 O501 2.480 . S
Eu481 O502 2.430 . S
Eu481 O503 2.670 . S
Eu481 O504 2.394 . S
Eu481 O509 2.355 . S
Eu481 O511 2.374 . S
C482 C480 1.500 . S
C482 C483 1.377 . S
C482 C487 1.377 . S
C483 C482 1.377 . S
C483 C484 1.395 . S
C483 H512 0.931 . S
C484 C483 1.395 . S
C484 C485 1.383 . S
C484 H513 0.931 . S
C485 C484 1.383 . S
C485 C486 1.394 . S
C486 C485 1.394 . S
C486 C487 1.378 . S
C486 H514 0.931 . S
C487 C482 1.377 . S
C487 C486 1.378 . S
C487 H515 0.931 . S
C488 O502 1.259 . S
C488 O503 1.270 . S
C489 O504 1.251 . S
C489 O505 1.251 . S
C490 Eu491 2.835 . S
C490 C492 1.500 . S
C490 O506 1.257 . S
C490 O507 1.260 . S
Eu491 C490 2.835 . S
Eu491 O503 2.355 . S
Eu491 O505 2.374 . S
Eu491 O506 2.473 . S
Eu491 O507 2.480 . S
Eu491 O508 2.430 . S
Eu491 O509 2.670 . S
Eu491 O510 2.394 . S
C492 C490 1.500 . S
C492 C493 1.377 . S
C492 C497 1.377 . S
C493 C492 1.377 . S
C493 C494 1.395 . S
C493 H516 0.931 . S
C494 C493 1.395 . S
C494 C495 1.383 . S
C494 H517 0.931 . S
C495 C494 1.383 . S
C495 C496 1.394 . S
C496 C495 1.394 . S
C496 C497 1.378 . S
C496 H518 0.931 . S
C497 C492 1.377 . S
C497 C496 1.378 . S
C497 H519 0.931 . S
C498 O508 1.259 . S
C498 O509 1.270 . S
C499 O510 1.251 . S
C499 O511 1.251 . S
O500 C480 1.257 . S
O500 Eu481 2.473 . S
O501 C480 1.260 . S
O501 Eu481 2.480 . S
O502 Eu481 2.430 . S
O502 C488 1.259 . S
O503 Eu481 2.670 . S
O503 C488 1.270 . S
O503 Eu491 2.355 . S
O504 Eu481 2.394 . S
O504 C489 1.251 . S
O505 C489 1.251 . S
O505 Eu491 2.374 . S
O506 C490 1.257 . S
O506 Eu491 2.473 . S
O507 C490 1.260 . S
O507 Eu491 2.480 . S
O508 Eu491 2.430 . S
O508 C498 1.259 . S
O509 Eu481 2.355 . S
O509 Eu491 2.670 . S
O509 C498 1.270 . S
O510 Eu491 2.394 . S
O510 C499 1.251 . S
O511 Eu481 2.374 . S
O511 C499 1.251 . S
H512 C483 0.931 . S
H513 C484 0.931 . S
H514 C486 0.931 . S
H515 C487 0.931 . S
H516 C493 0.931 . S
H517 C494 0.931 . S
H518 C496 0.931 . S
H519 C497 0.931 . S
C520 Eu521 2.835 . S
C520 C522 1.500 . S
C520 O540 1.257 . S
C520 O541 1.260 . S
Eu521 C520 2.835 . S
Eu521 O540 2.473 . S
Eu521 O541 2.480 . S
Eu521 O542 2.430 . S
Eu521 O543 2.670 . S
Eu521 O544 2.394 . S
Eu521 O549 2.355 . S
Eu521 O551 2.374 . S
C522 C520 1.500 . S
C522 C523 1.377 . S
C522 C527 1.377 . S
C523 C522 1.377 . S
C523 C524 1.395 . S
C523 H552 0.931 . S
C524 C523 1.395 . S
C524 C525 1.383 . S
C524 H553 0.931 . S
C525 C524 1.383 . S
C525 C526 1.394 . S
C526 C525 1.394 . S
C526 C527 1.378 . S
C526 H554 0.931 . S
C527 C522 1.377 . S
C527 C526 1.378 . S
C527 H555 0.931 . S
C528 O542 1.259 . S
C528 O543 1.270 . S
C529 O544 1.251 . S
C529 O545 1.251 . S
C530 Eu531 2.835 . S
C530 C532 1.500 . S
C530 O546 1.257 . S
C530 O547 1.260 . S
Eu531 C530 2.835 . S
Eu531 O543 2.355 . S
Eu531 O545 2.374 . S
Eu531 O546 2.473 . S
Eu531 O547 2.480 . S
Eu531 O548 2.430 . S
Eu531 O549 2.670 . S
Eu531 O550 2.394 . S
C532 C530 1.500 . S
C532 C533 1.377 . S
C532 C537 1.377 . S
C533 C532 1.377 . S
C533 C534 1.395 . S
C533 H556 0.931 . S
C534 C533 1.395 . S
C534 C535 1.383 . S
C534 H557 0.931 . S
C535 C534 1.383 . S
C535 C536 1.394 . S
C536 C535 1.394 . S
C536 C537 1.378 . S
C536 H558 0.931 . S
C537 C532 1.377 . S
C537 C536 1.378 . S
C537 H559 0.931 . S
C538 O548 1.259 . S
C538 O549 1.270 . S
C539 O550 1.251 . S
C539 O551 1.251 . S
O540 C520 1.257 . S
O540 Eu521 2.473 . S
O541 C520 1.260 . S
O541 Eu521 2.480 . S
O542 Eu521 2.430 . S
O542 C528 1.259 . S
O543 Eu521 2.670 . S
O543 C528 1.270 . S
O543 Eu531 2.355 . S
O544 Eu521 2.394 . S
O544 C529 1.251 . S
O545 C529 1.251 . S
O545 Eu531 2.374 . S
O546 C530 1.257 . S
O546 Eu531 2.473 . S
O547 C530 1.260 . S
O547 Eu531 2.480 . S
O548 Eu531 2.430 . S
O548 C538 1.259 . S
O549 Eu521 2.355 . S
O549 Eu531 2.670 . S
O549 C538 1.270 . S
O550 Eu531 2.394 . S
O550 C539 1.251 . S
O551 Eu521 2.374 . S
O551 C539 1.251 . S
H552 C523 0.931 . S
H553 C524 0.931 . S
H554 C526 0.931 . S
H555 C527 0.931 . S
H556 C533 0.931 . S
H557 C534 0.931 . S
H558 C536 0.931 . S
H559 C537 0.931 . S
C560 Eu561 2.835 . S
C560 C562 1.500 . S
C560 O580 1.257 . S
C560 O581 1.260 . S
Eu561 C560 2.835 . S
Eu561 O580 2.473 . S
Eu561 O581 2.480 . S
Eu561 O582 2.430 . S
Eu561 O583 2.670 . S
Eu561 O584 2.394 . S
Eu561 O589 2.355 . S
Eu561 O591 2.374 . S
C562 C560 1.500 . S
C562 C563 1.377 . S
C562 C567 1.377 . S
C563 C562 1.377 . S
C563 C564 1.395 . S
C563 H592 0.931 . S
C564 C563 1.395 . S
C564 C565 1.383 . S
C564 H593 0.931 . S
C565 C564 1.383 . S
C565 C566 1.394 . S
C566 C565 1.394 . S
C566 C567 1.378 . S
C566 H594 0.931 . S
C567 C562 1.377 . S
C567 C566 1.378 . S
C567 H595 0.931 . S
C568 O582 1.259 . S
C568 O583 1.270 . S
C569 O584 1.251 . S
C569 O585 1.251 . S
C570 Eu571 2.835 . S
C570 C572 1.500 . S
C570 O586 1.257 . S
C570 O587 1.260 . S
Eu571 C570 2.835 . S
Eu571 O583 2.355 . S
Eu571 O585 2.374 . S
Eu571 O586 2.473 . S
Eu571 O587 2.480 . S
Eu571 O588 2.430 . S
Eu571 O589 2.670 . S
Eu571 O590 2.394 . S
C572 C570 1.500 . S
C572 C573 1.377 . S
C572 C577 1.377 . S
C573 C572 1.377 . S
C573 C574 1.395 . S
C573 H596 0.931 . S
C574 C573 1.395 . S
C574 C575 1.383 . S
C574 H597 0.931 . S
C575 C574 1.383 . S
C575 C576 1.394 . S
C576 C575 1.394 . S
C576 C577 1.378 . S
C576 H598 0.931 . S
C577 C572 1.377 . S
C577 C576 1.378 . S
C577 H599 0.931 . S
C578 O588 1.259 . S
C578 O589 1.270 . S
C579 O590 1.251 . S
C579 O591 1.251 . S
O580 C560 1.257 . S
O580 Eu561 2.473 . S
O581 C560 1.260 . S
O581 Eu561 2.480 . S
O582 Eu561 2.430 . S
O582 C568 1.259 . S
O583 Eu561 2.670 . S
O583 C568 1.270 . S
O583 Eu571 2.355 . S
O584 Eu561 2.394 . S
O584 C569 1.251 . S
O585 C569 1.251 . S
O585 Eu571 2.374 . S
O586 C570 1.257 . S
O586 Eu571 2.473 . S
O587 C570 1.260 . S
O587 Eu571 2.480 . S
O588 Eu571 2.430 . S
O588 C578 1.259 . S
O589 Eu561 2.355 . S
O589 Eu571 2.670 . S
O589 C578 1.270 . S
O590 Eu571 2.394 . S
O590 C579 1.251 . S
O591 Eu561 2.374 . S
O591 C579 1.251 . S
H592 C563 0.931 . S
H593 C564 0.931 . S
H594 C566 0.931 . S
H595 C567 0.931 . S
H596 C573 0.931 . S
H597 C574 0.931 . S
H598 C576 0.931 . S
H599 C577 0.931 . S
C600 Eu601 2.835 . S
C600 C602 1.500 . S
C600 O620 1.257 . S
C600 O621 1.260 . S
Eu601 C600 2.835 . S
Eu601 O620 2.473 . S
Eu601 O621 2.480 . S
Eu601 O622 2.430 . S
Eu601 O623 2.670 . S
Eu601 O624 2.394 . S
Eu601 O629 2.355 . S
Eu601 O631 2.374 . S
C602 C600 1.500 . S
C602 C603 1.377 . S
C602 C607 1.377 . S
C603 C602 1.377 . S
C603 C604 1.395 . S
C603 H632 0.931 . S
C604 C603 1.395 . S
C604 C605 1.383 . S
C604 H633 0.931 . S
C605 C604 1.383 . S
C605 C606 1.394 . S
C606 C605 1.394 . S
C606 C607 1.378 . S
C606 H634 0.931 . S
C607 C602 1.377 . S
C607 C606 1.378 . S
C607 H635 0.931 . S
C608 O622 1.259 . S
C608 O623 1.270 . S
C609 O624 1.251 . S
C609 O625 1.251 . S
C610 Eu611 2.835 . S
C610 C612 1.500 . S
C610 O626 1.257 . S
C610 O627 1.260 . S
Eu611 C610 2.835 . S
Eu611 O623 2.355 . S
Eu611 O625 2.374 . S
Eu611 O626 2.473 . S
Eu611 O627 2.480 . S
Eu611 O628 2.430 . S
Eu611 O629 2.670 . S
Eu611 O630 2.394 . S
C612 C610 1.500 . S
C612 C613 1.377 . S
C612 C617 1.377 . S
C613 C612 1.377 . S
C613 C614 1.395 . S
C613 H636 0.931 . S
C614 C613 1.395 . S
C614 C615 1.383 . S
C614 H637 0.931 . S
C615 C614 1.383 . S
C615 C616 1.394 . S
C616 C615 1.394 . S
C616 C617 1.378 . S
C616 H638 0.931 . S
C617 C612 1.377 . S
C617 C616 1.378 . S
C617 H639 0.931 . S
C618 O628 1.259 . S
C618 O629 1.270 . S
C619 O630 1.251 . S
C619 O631 1.251 . S
O620 C600 1.257 . S
O620 Eu601 2.473 . S
O621 C600 1.260 . S
O621 Eu601 2.480 . S
O622 Eu601 2.430 . S
O622 C608 1.259 . S
O623 Eu601 2.670 . S
O623 C608 1.270 . S
O623 Eu611 2.355 . S
O624 Eu601 2.394 . S
O624 C609 1.251 . S
O625 C609 1.251 . S
O625 Eu611 2.374 . S
O626 C610 1.257 . S
O626 Eu611 2.473 . S
O627 C610 1.260 . S
O627 Eu611 2.480 . S
O628 Eu611 2.430 . S
O628 C618 1.259 . S
O629 Eu601 2.355 . S
O629 Eu611 2.670 . S
O629 C618 1.270 . S
O630 Eu611 2.394 . S
O630 C619 1.251 . S
O631 Eu601 2.374 . S
O631 C619 1.251 . S
H632 C603 0.931 . S
H633 C604 0.931 . S
H634 C606 0.931 . S
H635 C607 0.931 . S
H636 C613 0.931 . S
H637 C614 0.931 . S
H638 C616 0.931 . S
H639 C617 0.931 . S
H640 C648 0.929 . S
H641 C650 0.930 . S
H642 C652 0.930 . S
H643 C655 0.929 . S
H644 C658 0.930 . S
H645 C660 0.960 . S
H646 C660 0.960 . S
H647 C660 0.960 . S
C648 H640 0.929 . S
C648 C649 1.377 . S
C648 C650 1.384 . S
C649 C648 1.377 . S
C649 C655 1.390 . S
C650 H641 0.930 . S
C650 C648 1.384 . S
C650 C651 1.372 . S
C651 C650 1.372 . S
C651 C652 1.400 . S
C651 C656 1.490 . S
C652 H642 0.930 . S
C652 C651 1.400 . S
C652 C655 1.386 . S
H653 C669 0.930 . S
H654 C670 0.931 . S
C655 H643 0.929 . S
C655 C649 1.390 . S
C655 C652 1.386 . S
C656 C651 1.490 . S
C656 C658 1.395 . S
C656 C659 1.403 . S
H657 C663 0.930 1_545 S
C658 H644 0.930 . S
C658 C656 1.395 . S
C658 C661 1.403 . S
C659 C656 1.403 . S
C659 C660 1.524 . S
C659 C663 1.400 . S
C660 H645 0.960 . S
C660 H646 0.960 . S
C660 H647 0.960 . S
C660 C659 1.524 . S
C661 C658 1.403 . S
C661 C662 1.392 . S
C661 C665 1.495 . S
C662 C661 1.392 . S
C662 C663 1.385 . S
C662 C664 1.478 1_565 S
C663 H657 0.930 1_565 S
C663 C659 1.400 . S
C663 C662 1.385 . S
C664 C662 1.478 1_545 S
C664 C666 1.381 . S
C664 C670 1.383 . S
C665 C661 1.495 . S
C665 H671 0.959 . S
C665 H672 0.961 . S
C665 H673 0.960 . S
C666 C664 1.381 . S
C666 C667 1.394 . S
C666 H674 0.930 . S
C667 C666 1.394 . S
C667 C668 1.383 . S
C667 H675 0.929 . S
C668 C667 1.383 . S
C668 C669 1.377 . S
C669 H653 0.930 . S
C669 C668 1.377 . S
C669 C670 1.379 . S
C670 H654 0.931 . S
C670 C664 1.383 . S
C670 C669 1.379 . S
H671 C665 0.959 . S
H672 C665 0.961 . S
H673 C665 0.960 . S
H674 C666 0.930 . S
H675 C667 0.929 . S
H676 C684 0.929 . S
H677 C686 0.930 . S
H678 C688 0.930 . S
H679 C691 0.929 . S
H680 C694 0.930 . S
H681 C696 0.960 . S
H682 C696 0.960 . S
H683 C696 0.960 . S
C684 H676 0.929 . S
C684 C685 1.377 . S
C684 C686 1.384 . S
C685 C684 1.377 . S
C685 C691 1.390 . S
C686 H677 0.930 . S
C686 C684 1.384 . S
C686 C687 1.372 . S
C687 C686 1.372 . S
C687 C688 1.400 . S
C687 C692 1.490 . S
C688 H678 0.930 . S
C688 C687 1.400 . S
C688 C691 1.386 . S
H689 C705 0.930 . S
H690 C706 0.931 . S
C691 H679 0.929 . S
C691 C685 1.390 . S
C691 C688 1.386 . S
C692 C687 1.490 . S
C692 C694 1.395 . S
C692 C695 1.403 . S
H693 C699 0.930 . S
C694 H680 0.930 . S
C694 C692 1.395 . S
C694 C697 1.403 . S
C695 C692 1.403 . S
C695 C696 1.524 . S
C695 C699 1.400 . S
C696 H681 0.960 . S
C696 H682 0.960 . S
C696 H683 0.960 . S
C696 C695 1.524 . S
C697 C694 1.403 . S
C697 C698 1.385 1_655 S
C697 C701 1.498 1_655 S
C698 C697 1.385 1_455 S
C698 C699 1.378 1_455 S
C698 C700 1.492 . S
C699 H693 0.930 . S
C699 C695 1.400 . S
C699 C698 1.378 1_655 S
C700 C698 1.492 . S
C700 C702 1.381 . S
C700 C706 1.383 . S
C701 C697 1.498 1_455 S
C701 H707 0.963 1_455 S
C701 H708 0.960 . S
C701 H709 0.954 . S
C702 C700 1.381 . S
C702 C703 1.394 . S
C702 H710 0.930 . S
C703 C702 1.394 . S
C703 C704 1.383 . S
C703 H711 0.929 . S
C704 C703 1.383 . S
C704 C705 1.377 . S
C705 H689 0.930 . S
C705 C704 1.377 . S
C705 C706 1.379 . S
C706 H690 0.931 . S
C706 C700 1.383 . S
C706 C705 1.379 . S
H707 C701 0.963 1_655 S
H708 C701 0.960 . S
H709 C701 0.954 . S
H710 C702 0.930 . S
H711 C703 0.929 . S
H712 C720 0.929 . S
H713 C722 0.930 . S
H714 C724 0.930 . S
H715 C727 0.929 . S
H716 C730 0.952 . S
H717 C732 0.960 . S
H718 C732 0.960 1_565 S
H719 C732 0.953 1_565 S
C720 H712 0.929 . S
C720 C721 1.377 . S
C720 C722 1.384 . S
C721 C720 1.377 . S
C721 C727 1.390 . S
C722 H713 0.930 . S
C722 C720 1.384 . S
C722 C723 1.372 . S
C723 C722 1.372 . S
C723 C724 1.400 . S
C723 C728 1.493 1_565 S
C724 H714 0.930 . S
C724 C723 1.400 . S
C724 C727 1.386 . S
H725 C741 0.930 . S
H726 C742 0.931 . S
C727 H715 0.929 . S
C727 C721 1.390 . S
C727 C724 1.386 . S
C728 C723 1.493 1_545 S
C728 C730 1.393 . S
C728 C731 1.401 . S
H729 C735 0.930 . S
C730 H716 0.952 . S
C730 C728 1.393 . S
C730 C733 1.403 . S
C731 C728 1.401 . S
C731 C732 1.524 . S
C731 C735 1.400 . S
C732 H717 0.960 . S
C732 H718 0.960 1_545 S
C732 H719 0.953 1_545 S
C732 C731 1.524 . S
C733 C730 1.403 . S
C733 C734 1.392 . S
C733 C737 1.495 . S
C734 C733 1.392 . S
C734 C735 1.385 . S
C734 C736 1.478 . S
C735 H729 0.930 . S
C735 C731 1.400 . S
C735 C734 1.385 . S
C736 C734 1.478 . S
C736 C738 1.381 . S
C736 C742 1.383 . S
C737 C733 1.495 . S
C737 H743 0.959 . S
C737 H744 0.961 . S
C737 H745 0.960 . S
C738 C736 1.381 . S
C738 C739 1.394 . S
C738 H746 0.930 . S
C739 C738 1.394 . S
C739 C740 1.383 . S
C739 H747 0.929 . S
C740 C739 1.383 . S
C740 C741 1.377 . S
C741 H725 0.930 . S
C741 C740 1.377 . S
C741 C742 1.379 . S
C742 H726 0.931 . S
C742 C736 1.383 . S
C742 C741 1.379 . S
H743 C737 0.959 . S
H744 C737 0.961 . S
H745 C737 0.960 . S
H746 C738 0.930 . S
H747 C739 0.929 . S
H748 C756 0.929 . S
H749 C758 0.930 . S
H750 C760 0.930 . S
H751 C763 0.929 . S
H752 C766 0.930 1_655 S
H753 C768 0.960 . S
H754 C768 0.960 . S
H755 C768 0.960 . S
C756 H748 0.929 . S
C756 C757 1.377 . S
C756 C758 1.384 . S
C757 C756 1.377 . S
C757 C763 1.390 . S
C758 H749 0.930 . S
C758 C756 1.384 . S
C758 C759 1.372 . S
C759 C758 1.372 . S
C759 C760 1.400 . S
C759 C764 1.475 1_655 S
C760 H750 0.930 . S
C760 C759 1.400 . S
C760 C763 1.386 . S
H761 C777 0.930 . S
H762 C778 0.931 . S
C763 H751 0.929 . S
C763 C757 1.390 . S
C763 C760 1.386 . S
C764 C759 1.475 1_455 S
C764 C766 1.396 . S
C764 C767 1.416 . S
H765 C771 0.930 . S
C766 H752 0.930 1_455 S
C766 C764 1.396 . S
C766 C769 1.403 . S
C767 C764 1.416 . S
C767 C768 1.524 . S
C767 C771 1.400 . S
C768 H753 0.960 . S
C768 H754 0.960 . S
C768 H755 0.960 . S
C768 C767 1.524 . S
C769 C766 1.403 . S
C769 C770 1.392 . S
C769 C773 1.495 . S
C770 C769 1.392 . S
C770 C771 1.385 . S
C770 C772 1.478 . S
C771 H765 0.930 . S
C771 C767 1.400 . S
C771 C770 1.385 . S
C772 C770 1.478 . S
C772 C774 1.381 . S
C772 C778 1.383 . S
C773 C769 1.495 . S
C773 H779 0.959 . S
C773 H780 0.961 . S
C773 H781 0.960 . S
C774 C772 1.381 . S
C774 C775 1.394 . S
C774 H782 0.930 . S
C775 C774 1.394 . S
C775 C776 1.383 . S
C775 H783 0.929 . S
C776 C775 1.383 . S
C776 C777 1.377 . S
C777 H761 0.930 . S
C777 C776 1.377 . S
C777 C778 1.379 . S
C778 H762 0.931 . S
C778 C772 1.383 . S
C778 C777 1.379 . S
H779 C773 0.959 . S
H780 C773 0.961 . S
H781 C773 0.960 . S
H782 C774 0.930 . S
H783 C775 0.929 . S
H784 C792 0.929 . S
H785 C794 0.930 . S
H786 C796 0.930 . S
H787 C799 0.929 . S
H788 C802 0.930 . S
H789 C804 0.960 . S
H790 C804 0.960 . S
H791 C804 0.960 . S
C792 H784 0.929 . S
C792 C793 1.377 . S
C792 C794 1.384 . S
C793 C792 1.377 . S
C793 C799 1.390 . S
C794 H785 0.930 . S
C794 C792 1.384 . S
C794 C795 1.372 . S
C795 C794 1.372 . S
C795 C796 1.400 . S
C795 C800 1.490 . S
C796 H786 0.930 . S
C796 C795 1.400 . S
C796 C799 1.386 . S
H797 C813 0.930 . S
H798 C814 0.931 . S
C799 H787 0.929 . S
C799 C793 1.390 . S
C799 C796 1.386 . S
C800 C795 1.490 . S
C800 C802 1.395 . S
C800 C803 1.424 . S
H801 C807 0.930 . S
C802 H788 0.930 . S
C802 C800 1.395 . S
C802 C805 1.403 . S
C803 C800 1.424 . S
C803 C804 1.509 1_554 S
C803 C807 1.393 1_554 S
C804 H789 0.960 . S
C804 H790 0.960 . S
C804 H791 0.960 . S
C804 C803 1.509 1_556 S
C805 C802 1.403 . S
C805 C806 1.392 . S
C805 C809 1.495 . S
C806 C805 1.392 . S
C806 C807 1.385 1_554 S
C806 C808 1.478 1_554 S
C807 H801 0.930 . S
C807 C803 1.393 1_556 S
C807 C806 1.385 1_556 S
C808 C806 1.478 1_556 S
C808 C810 1.381 . S
C808 C814 1.383 . S
C809 C805 1.495 . S
C809 H815 0.959 . S
C809 H816 0.961 . S
C809 H817 0.960 . S
C810 C808 1.381 . S
C810 C811 1.394 . S
C810 H818 0.930 . S
C811 C810 1.394 . S
C811 C812 1.383 . S
C811 H819 0.929 . S
C812 C811 1.383 . S
C812 C813 1.377 . S
C813 H797 0.930 . S
C813 C812 1.377 . S
C813 C814 1.379 . S
C814 H798 0.931 . S
C814 C808 1.383 . S
C814 C813 1.379 . S
H815 C809 0.959 . S
H816 C809 0.961 . S
H817 C809 0.960 . S
H818 C810 0.930 . S
H819 C811 0.929 . S
H820 C828 0.929 1_556 S
H821 C830 0.930 . S
H822 C832 0.930 . S
H823 C835 0.929 . S
H824 C838 0.930 . S
H825 C840 0.960 . S
H826 C840 0.960 . S
H827 C840 0.960 1_554 S
C828 H820 0.929 1_554 S
C828 C829 1.377 . S
C828 C830 1.384 1_554 S
C829 C828 1.377 . S
C829 C835 1.390 . S
C830 H821 0.930 . S
C830 C828 1.384 1_556 S
C830 C831 1.372 1_556 S
C831 C830 1.372 1_554 S
C831 C832 1.400 . S
C831 C836 1.490 1_554 S
C832 H822 0.930 . S
C832 C831 1.400 . S
C832 C835 1.386 . S
H833 C849 0.930 . S
H834 C850 0.931 . S
C835 H823 0.929 . S
C835 C829 1.390 . S
C835 C832 1.386 . S
C836 C831 1.490 1_556 S
C836 C838 1.395 . S
C836 C839 1.403 . S
H837 C843 0.930 . S
C838 H824 0.930 . S
C838 C836 1.395 . S
C838 C841 1.403 . S
C839 C836 1.403 . S
C839 C840 1.524 . S
C839 C843 1.400 . S
C840 H825 0.960 . S
C840 H826 0.960 . S
C840 H827 0.960 1_556 S
C840 C839 1.524 . S
C841 C838 1.403 . S
C841 C842 1.392 . S
C841 C845 1.495 . S
C842 C841 1.392 . S
C842 C843 1.385 . S
C842 C844 1.478 . S
C843 H837 0.930 . S
C843 C839 1.400 . S
C843 C842 1.385 . S
C844 C842 1.478 . S
C844 C846 1.381 . S
C844 C850 1.383 . S
C845 C841 1.495 . S
C845 H851 0.959 . S
C845 H852 0.961 . S
C845 H853 0.960 . S
C846 C844 1.381 . S
C846 C847 1.394 . S
C846 H854 0.930 . S
C847 C846 1.394 . S
C847 C848 1.383 . S
C847 H855 0.929 . S
C848 C847 1.383 . S
C848 C849 1.377 . S
C849 H833 0.930 . S
C849 C848 1.377 . S
C849 C850 1.379 . S
C850 H834 0.931 . S
C850 C844 1.383 . S
C850 C849 1.379 . S
H851 C845 0.959 . S
H852 C845 0.961 . S
H853 C845 0.960 . S
H854 C846 0.930 . S
H855 C847 0.929 . S
H856 C864 0.929 . S
H857 C866 0.930 . S
H858 C868 0.930 . S
H859 C871 0.929 . S
H860 C874 0.930 . S
H861 C876 0.960 . S
H862 C876 0.960 . S
H863 C876 0.960 . S
C864 H856 0.929 . S
C864 C865 1.377 . S
C864 C866 1.384 . S
C865 C864 1.377 . S
C865 C871 1.390 . S
C866 H857 0.930 . S
C866 C864 1.384 . S
C866 C867 1.372 . S
C867 C866 1.372 . S
C867 C868 1.400 . S
C867 C872 1.490 . S
C868 H858 0.930 . S
C868 C867 1.400 . S
C868 C871 1.386 . S
H869 C885 0.930 . S
H870 C886 0.931 1_554 S
C871 H859 0.929 . S
C871 C865 1.390 . S
C871 C868 1.386 . S
C872 C867 1.490 . S
C872 C874 1.395 . S
C872 C875 1.403 . S
H873 C879 0.930 . S
C874 H860 0.930 . S
C874 C872 1.395 . S
C874 C877 1.403 . S
C875 C872 1.403 . S
C875 C876 1.524 1_554 S
C875 C879 1.400 1_554 S
C876 H861 0.960 . S
C876 H862 0.960 . S
C876 H863 0.960 . S
C876 C875 1.524 1_556 S
C877 C874 1.403 . S
C877 C878 1.392 . S
C877 C881 1.495 . S
C878 C877 1.392 . S
C878 C879 1.385 1_554 S
C878 C880 1.478 1_554 S
C879 H873 0.930 . S
C879 C875 1.400 1_556 S
C879 C878 1.385 1_556 S
C880 C878 1.478 1_556 S
C880 C882 1.381 . S
C880 C886 1.383 . S
C881 C877 1.495 . S
C881 H887 0.959 . S
C881 H888 0.961 . S
C881 H889 0.960 . S
C882 C880 1.381 . S
C882 C883 1.394 . S
C882 H890 0.930 . S
C883 C882 1.394 . S
C883 C884 1.383 . S
C883 H891 0.929 . S
C884 C883 1.383 . S
C884 C885 1.377 . S
C885 H869 0.930 . S
C885 C884 1.377 . S
C885 C886 1.379 . S
C886 H870 0.931 1_556 S
C886 C880 1.383 . S
C886 C885 1.379 . S
H887 C881 0.959 . S
H888 C881 0.961 . S
H889 C881 0.960 . S
H890 C882 0.930 . S
H891 C883 0.929 . S
H892 C900 0.929 . S
H893 C902 0.930 . S
H894 C904 0.930 1_556 S
H895 C907 0.929 . S
H896 C910 0.930 . S
H897 C912 0.960 . S
H898 C912 0.960 . S
H899 C912 0.960 . S
C900 H892 0.929 . S
C900 C901 1.377 . S
C900 C902 1.384 . S
C901 C900 1.377 . S
C901 C907 1.390 . S
C902 H893 0.930 . S
C902 C900 1.384 . S
C902 C903 1.372 . S
C903 C902 1.372 . S
C903 C904 1.400 . S
C903 C908 1.490 1_554 S
C904 H894 0.930 1_554 S
C904 C903 1.400 . S
C904 C907 1.386 . S
H905 C921 0.930 . S
H906 C922 0.931 . S
C907 H895 0.929 . S
C907 C901 1.390 . S
C907 C904 1.386 . S
C908 C903 1.490 1_556 S
C908 C910 1.395 1_556 S
C908 C911 1.403 . S
H909 C915 0.930 . S
C910 H896 0.930 . S
C910 C908 1.395 1_554 S
C910 C913 1.403 . S
C911 C908 1.403 . S
C911 C912 1.524 . S
C911 C915 1.400 . S
C912 H897 0.960 . S
C912 H898 0.960 . S
C912 H899 0.960 . S
C912 C911 1.524 . S
C913 C910 1.403 . S
C913 C914 1.392 1_554 S
C913 C917 1.495 . S
C914 C913 1.392 1_556 S
C914 C915 1.385 . S
C914 C916 1.478 . S
C915 H909 0.930 . S
C915 C911 1.400 . S
C915 C914 1.385 . S
C916 C914 1.478 . S
C916 C918 1.381 . S
C916 C922 1.383 . S
C917 C913 1.495 . S
C917 H923 0.959 . S
C917 H924 0.961 . S
C917 H925 0.960 . S
C918 C916 1.381 . S
C918 C919 1.394 . S
C918 H926 0.930 . S
C919 C918 1.394 . S
C919 C920 1.383 . S
C919 H927 0.929 . S
C920 C919 1.383 . S
C920 C921 1.377 . S
C921 H905 0.930 . S
C921 C920 1.377 . S
C921 C922 1.379 . S
C922 H906 0.931 . S
C922 C916 1.383 . S
C922 C921 1.379 . S
H923 C917 0.959 . S
H924 C917 0.961 . S
H925 C917 0.960 . S
H926 C918 0.930 . S
H927 C919 0.929 . S
H928 C936 0.929 . S
H929 C938 0.930 . S
H930 C940 0.930 . S
H931 C943 0.929 . S
H932 C946 0.930 . S
H933 C948 0.960 . S
H934 C948 0.960 . S
H935 C948 0.960 . S
C936 H928 0.929 . S
C936 C937 1.377 . S
C936 C938 1.384 . S
C937 C936 1.377 . S
C937 C943 1.390 . S
C938 H929 0.930 . S
C938 C936 1.384 . S
C938 C939 1.372 . S
C939 C938 1.372 . S
C939 C940 1.400 . S
C939 C944 1.490 . S
C940 H930 0.930 . S
C940 C939 1.400 . S
C940 C943 1.386 . S
H941 C957 0.930 . S
H942 C958 0.931 . S
C943 H931 0.929 . S
C943 C937 1.390 . S
C943 C940 1.386 . S
C944 C939 1.490 . S
C944 C946 1.395 . S
C944 C947 1.403 . S
H945 C951 0.930 . S
C946 H932 0.930 . S
C946 C944 1.395 . S
C946 C949 1.403 . S
C947 C944 1.403 . S
C947 C948 1.524 . S
C947 C951 1.400 . S
C948 H933 0.960 . S
C948 H934 0.960 . S
C948 H935 0.960 . S
C948 C947 1.524 . S
C949 C946 1.403 . S
C949 C950 1.392 . S
C949 C953 1.495 . S
C950 C949 1.392 . S
C950 C951 1.385 . S
C950 C952 1.478 . S
C951 H945 0.930 . S
C951 C947 1.400 . S
C951 C950 1.385 . S
C952 C950 1.478 . S
C952 C954 1.381 . S
C952 C958 1.383 . S
C953 C949 1.495 . S
C953 H959 0.959 . S
C953 H960 0.961 . S
C953 H961 0.960 . S
C954 C952 1.381 . S
C954 C955 1.394 . S
C954 H962 0.930 . S
C955 C954 1.394 . S
C955 C956 1.383 . S
C955 H963 0.929 . S
C956 C955 1.383 . S
C956 C957 1.377 . S
C957 H941 0.930 . S
C957 C956 1.377 . S
C957 C958 1.379 . S
C958 H942 0.931 . S
C958 C952 1.383 . S
C958 C957 1.379 . S
H959 C953 0.959 . S
H960 C953 0.961 . S
H961 C953 0.960 . S
H962 C954 0.930 . S
H963 C955 0.929 . S
H964 C972 0.929 . S
H965 C974 0.930 . S
H966 C976 0.930 . S
H967 C979 0.929 . S
H968 C982 0.930 . S
H969 C984 0.960 . S
H970 C984 0.960 . S
H971 C984 0.960 . S
C972 H964 0.929 . S
C972 C973 1.377 . S
C972 C974 1.384 . S
C973 C972 1.377 . S
C973 C979 1.390 . S
C974 H965 0.930 . S
C974 C972 1.384 . S
C974 C975 1.372 . S
C975 C974 1.372 . S
C975 C976 1.400 . S
C975 C980 1.490 . S
C976 H966 0.930 . S
C976 C975 1.400 . S
C976 C979 1.386 . S
H977 C993 0.930 . S
H978 C994 0.931 . S
C979 H967 0.929 . S
C979 C973 1.390 . S
C979 C976 1.386 . S
C980 C975 1.490 . S
C980 C982 1.395 . S
C980 C983 1.403 . S
H981 C987 0.930 . S
C982 H968 0.930 . S
C982 C980 1.395 . S
C982 C985 1.403 . S
C983 C980 1.403 . S
C983 C984 1.524 . S
C983 C987 1.400 . S
C984 H969 0.960 . S
C984 H970 0.960 . S
C984 H971 0.960 . S
C984 C983 1.524 . S
C985 C982 1.403 . S
C985 C986 1.392 . S
C985 C989 1.495 . S
C986 C985 1.392 . S
C986 C987 1.385 . S
C986 C988 1.478 . S
C987 H981 0.930 . S
C987 C983 1.400 . S
C987 C986 1.385 . S
C988 C986 1.478 . S
C988 C990 1.381 . S
C988 C994 1.383 . S
C989 C985 1.495 . S
C989 H995 0.959 . S
C989 H996 0.961 . S
C989 H997 0.960 . S
C990 C988 1.381 . S
C990 C991 1.394 . S
C990 H998 0.930 . S
C991 C990 1.394 . S
C991 C992 1.383 . S
C991 H999 0.929 . S
C992 C991 1.383 . S
C992 C993 1.377 . S
C993 H977 0.930 . S
C993 C992 1.377 . S
C993 C994 1.379 . S
C994 H978 0.931 . S
C994 C988 1.383 . S
C994 C993 1.379 . S
H995 C989 0.959 . S
H996 C989 0.961 . S
H997 C989 0.960 . S
H998 C990 0.930 . S
H999 C991 0.929 . S
H1000 C1008 0.929 . S
H1001 C1010 0.930 . S
H1002 C1012 0.930 . S
H1003 C1015 0.929 . S
H1004 C1018 0.930 . S
H1005 C1020 0.960 . S
H1006 C1020 0.960 . S
H1007 C1020 0.960 . S
C1008 H1000 0.929 . S
C1008 C1009 1.377 . S
C1008 C1010 1.384 . S
C1009 C1008 1.377 . S
C1009 C1015 1.390 . S
C1010 H1001 0.930 . S
C1010 C1008 1.384 . S
C1010 C1011 1.372 . S
C1011 C1010 1.372 . S
C1011 C1012 1.400 . S
C1011 C1016 1.490 . S
C1012 H1002 0.930 . S
C1012 C1011 1.400 . S
C1012 C1015 1.386 . S
H1013 C1029 0.930 . S
H1014 C1030 0.931 . S
C1015 H1003 0.929 . S
C1015 C1009 1.390 . S
C1015 C1012 1.386 . S
C1016 C1011 1.490 . S
C1016 C1018 1.395 . S
C1016 C1019 1.403 . S
H1017 C1023 0.930 . S
C1018 H1004 0.930 . S
C1018 C1016 1.395 . S
C1018 C1021 1.403 . S
C1019 C1016 1.403 . S
C1019 C1020 1.524 . S
C1019 C1023 1.400 . S
C1020 H1005 0.960 . S
C1020 H1006 0.960 . S
C1020 H1007 0.960 . S
C1020 C1019 1.524 . S
C1021 C1018 1.403 . S
C1021 C1022 1.392 . S
C1021 C1025 1.495 . S
C1022 C1021 1.392 . S
C1022 C1023 1.385 . S
C1022 C1024 1.478 . S
C1023 H1017 0.930 . S
C1023 C1019 1.400 . S
C1023 C1022 1.385 . S
C1024 C1022 1.478 . S
C1024 C1026 1.381 . S
C1024 C1030 1.383 . S
C1025 C1021 1.495 . S
C1025 H1031 0.959 . S
C1025 H1032 0.961 . S
C1025 H1033 0.960 . S
C1026 C1024 1.381 . S
C1026 C1027 1.394 . S
C1026 H1034 0.930 . S
C1027 C1026 1.394 . S
C1027 C1028 1.383 . S
C1027 H1035 0.929 . S
C1028 C1027 1.383 . S
C1028 C1029 1.377 . S
C1029 H1013 0.930 . S
C1029 C1028 1.377 . S
C1029 C1030 1.379 . S
C1030 H1014 0.931 . S
C1030 C1024 1.383 . S
C1030 C1029 1.379 . S
H1031 C1025 0.959 . S
H1032 C1025 0.961 . S
H1033 C1025 0.960 . S
H1034 C1026 0.930 . S
H1035 C1027 0.929 . S
H1036 C1044 0.929 . S
H1037 C1046 0.930 . S
H1038 C1048 0.930 . S
H1039 C1051 0.929 . S
H1040 C1054 0.930 . S
H1041 C1056 0.960 . S
H1042 C1056 0.960 . S
H1043 C1056 0.960 . S
C1044 H1036 0.929 . S
C1044 C1045 1.377 . S
C1044 C1046 1.384 . S
C1045 C1044 1.377 . S
C1045 C1051 1.390 . S
C1046 H1037 0.930 . S
C1046 C1044 1.384 . S
C1046 C1047 1.372 . S
C1047 C1046 1.372 . S
C1047 C1048 1.400 . S
C1047 C1052 1.490 . S
C1048 H1038 0.930 . S
C1048 C1047 1.400 . S
C1048 C1051 1.386 . S
H1049 C1065 0.930 . S
H1050 C1066 0.931 . S
C1051 H1039 0.929 . S
C1051 C1045 1.390 . S
C1051 C1048 1.386 . S
C1052 C1047 1.490 . S
C1052 C1054 1.395 . S
C1052 C1055 1.403 . S
H1053 C1059 0.930 . S
C1054 H1040 0.930 . S
C1054 C1052 1.395 . S
C1054 C1057 1.403 . S
C1055 C1052 1.403 . S
C1055 C1056 1.524 . S
C1055 C1059 1.400 . S
C1056 H1041 0.960 . S
C1056 H1042 0.960 . S
C1056 H1043 0.960 . S
C1056 C1055 1.524 . S
C1057 C1054 1.403 . S
C1057 C1058 1.392 . S
C1057 C1061 1.495 . S
C1058 C1057 1.392 . S
C1058 C1059 1.385 . S
C1058 C1060 1.478 . S
C1059 H1053 0.930 . S
C1059 C1055 1.400 . S
C1059 C1058 1.385 . S
C1060 C1058 1.478 . S
C1060 C1062 1.381 . S
C1060 C1066 1.383 . S
C1061 C1057 1.495 . S
C1061 H1067 0.959 . S
C1061 H1068 0.961 . S
C1061 H1069 0.960 . S
C1062 C1060 1.381 . S
C1062 C1063 1.394 . S
C1062 H1070 0.930 . S
C1063 C1062 1.394 . S
C1063 C1064 1.383 . S
C1063 H1071 0.929 . S
C1064 C1063 1.383 . S
C1064 C1065 1.377 . S
C1065 H1049 0.930 . S
C1065 C1064 1.377 . S
C1065 C1066 1.379 . S
C1066 H1050 0.931 . S
C1066 C1060 1.383 . S
C1066 C1065 1.379 . S
H1067 C1061 0.959 . S
H1068 C1061 0.961 . S
H1069 C1061 0.960 . S
H1070 C1062 0.930 . S
H1071 C1063 0.929 . S
H1072 C1080 0.929 . S
H1073 C1082 0.930 . S
H1074 C1084 0.930 . S
H1075 C1087 0.929 . S
H1076 C1090 0.930 1_565 S
H1077 C1092 0.960 . S
H1078 C1092 0.960 . S
H1079 C1092 0.960 1_565 S
C1080 H1072 0.929 . S
C1080 C1081 1.377 . S
C1080 C1082 1.384 . S
C1081 C1080 1.377 . S
C1081 C1087 1.390 . S
C1082 H1073 0.930 . S
C1082 C1080 1.384 . S
C1082 C1083 1.372 . S
C1083 C1082 1.372 . S
C1083 C1084 1.400 . S
C1083 C1088 1.451 1_565 S
C1084 H1074 0.930 . S
C1084 C1083 1.400 . S
C1084 C1087 1.386 . S
H1085 C1101 0.930 . S
H1086 C1102 0.931 . S
C1087 H1075 0.929 . S
C1087 C1081 1.390 . S
C1087 C1084 1.386 . S
C1088 C1083 1.451 1_545 S
C1088 C1090 1.407 . S
C1088 C1091 1.430 . S
H1089 C1095 0.930 . S
C1090 H1076 0.930 1_545 S
C1090 C1088 1.407 . S
C1090 C1093 1.403 . S
C1091 C1088 1.430 . S
C1091 C1092 1.524 . S
C1091 C1095 1.400 . S
C1092 H1077 0.960 . S
C1092 H1078 0.960 . S
C1092 H1079 0.960 1_545 S
C1092 C1091 1.524 . S
C1093 C1090 1.403 . S
C1093 C1094 1.392 . S
C1093 C1097 1.495 . S
C1094 C1093 1.392 . S
C1094 C1095 1.385 . S
C1094 C1096 1.478 . S
C1095 H1089 0.930 . S
C1095 C1091 1.400 . S
C1095 C1094 1.385 . S
C1096 C1094 1.478 . S
C1096 C1098 1.381 . S
C1096 C1102 1.383 . S
C1097 C1093 1.495 . S
C1097 H1103 0.959 . S
C1097 H1104 0.961 . S
C1097 H1105 0.960 . S
C1098 C1096 1.381 . S
C1098 C1099 1.394 . S
C1098 H1106 0.930 . S
C1099 C1098 1.394 . S
C1099 C1100 1.383 . S
C1099 H1107 0.929 . S
C1100 C1099 1.383 . S
C1100 C1101 1.377 . S
C1101 H1085 0.930 . S
C1101 C1100 1.377 . S
C1101 C1102 1.379 . S
C1102 H1086 0.931 . S
C1102 C1096 1.383 . S
C1102 C1101 1.379 . S
H1103 C1097 0.959 . S
H1104 C1097 0.961 . S
H1105 C1097 0.960 . S
H1106 C1098 0.930 . S
H1107 C1099 0.929 . S
H1108 C1116 0.929 . S
H1109 C1118 0.930 . S
H1110 C1120 0.930 . S
H1111 C1123 0.929 . S
H1112 C1126 0.930 . S
H1113 C1128 0.960 . S
H1114 C1128 0.960 . S
H1115 C1128 0.960 . S
C1116 H1108 0.929 . S
C1116 C1117 1.377 . S
C1116 C1118 1.384 . S
C1117 C1116 1.377 . S
C1117 C1123 1.390 . S
C1118 H1109 0.930 . S
C1118 C1116 1.384 . S
C1118 C1119 1.372 . S
C1119 C1118 1.372 . S
C1119 C1120 1.400 . S
C1119 C1124 1.490 . S
C1120 H1110 0.930 . S
C1120 C1119 1.400 . S
C1120 C1123 1.386 . S
H1121 C1137 0.930 . S
H1122 C1138 0.931 . S
C1123 H1111 0.929 . S
C1123 C1117 1.390 . S
C1123 C1120 1.386 . S
C1124 C1119 1.490 . S
C1124 C1126 1.395 . S
C1124 C1127 1.403 . S
H1125 C1131 0.930 . S
C1126 H1112 0.930 . S
C1126 C1124 1.395 . S
C1126 C1129 1.403 . S
C1127 C1124 1.403 . S
C1127 C1128 1.524 . S
C1127 C1131 1.400 . S
C1128 H1113 0.960 . S
C1128 H1114 0.960 . S
C1128 H1115 0.960 . S
C1128 C1127 1.524 . S
C1129 C1126 1.403 . S
C1129 C1130 1.392 1_455 S
C1129 C1133 1.495 1_455 S
C1130 C1129 1.392 1_655 S
C1130 C1131 1.385 1_655 S
C1130 C1132 1.478 . S
C1131 H1125 0.930 . S
C1131 C1127 1.400 . S
C1131 C1130 1.385 1_455 S
C1132 C1130 1.478 . S
C1132 C1134 1.381 . S
C1132 C1138 1.383 . S
C1133 C1129 1.495 1_655 S
C1133 H1139 0.959 . S
C1133 H1140 0.961 . S
C1133 H1141 0.960 . S
C1134 C1132 1.381 . S
C1134 C1135 1.394 . S
C1134 H1142 0.930 . S
C1135 C1134 1.394 . S
C1135 C1136 1.383 . S
C1135 H1143 0.929 . S
C1136 C1135 1.383 . S
C1136 C1137 1.377 . S
C1137 H1121 0.930 . S
C1137 C1136 1.377 . S
C1137 C1138 1.379 . S
C1138 H1122 0.931 . S
C1138 C1132 1.383 . S
C1138 C1137 1.379 . S
H1139 C1133 0.959 . S
H1140 C1133 0.961 . S
H1141 C1133 0.960 . S
H1142 C1134 0.930 . S
H1143 C1135 0.929 . S
H1144 C1152 0.929 . S
H1145 C1154 0.930 . S
H1146 C1156 0.930 . S
H1147 C1159 0.929 . S
H1148 C1162 0.930 . S
H1149 C1164 0.960 . S
H1150 C1164 0.960 . S
H1151 C1164 0.960 . S
C1152 H1144 0.929 . S
C1152 C1153 1.377 . S
C1152 C1154 1.384 . S
C1153 C1152 1.377 . S
C1153 C1159 1.390 . S
C1154 H1145 0.930 . S
C1154 C1152 1.384 . S
C1154 C1155 1.372 . S
C1155 C1154 1.372 . S
C1155 C1156 1.400 . S
C1155 C1160 1.490 . S
C1156 H1146 0.930 . S
C1156 C1155 1.400 . S
C1156 C1159 1.386 . S
H1157 C1173 0.930 . S
H1158 C1174 0.931 . S
C1159 H1147 0.929 . S
C1159 C1153 1.390 . S
C1159 C1156 1.386 . S
C1160 C1155 1.490 . S
C1160 C1162 1.395 . S
C1160 C1163 1.403 . S
H1161 C1167 0.930 1_545 S
C1162 H1148 0.930 . S
C1162 C1160 1.395 . S
C1162 C1165 1.403 . S
C1163 C1160 1.403 . S
C1163 C1164 1.524 . S
C1163 C1167 1.400 . S
C1164 H1149 0.960 . S
C1164 H1150 0.960 . S
C1164 H1151 0.960 . S
C1164 C1163 1.524 . S
C1165 C1162 1.403 . S
C1165 C1166 1.392 . S
C1165 C1169 1.495 . S
C1166 C1165 1.392 . S
C1166 C1167 1.385 . S
C1166 C1168 1.478 1_565 S
C1167 H1161 0.930 1_565 S
C1167 C1163 1.400 . S
C1167 C1166 1.385 . S
C1168 C1166 1.478 1_545 S
C1168 C1170 1.381 . S
C1168 C1174 1.383 . S
C1169 C1165 1.495 . S
C1169 H1175 0.959 . S
C1169 H1176 0.961 . S
C1169 H1177 0.960 . S
C1170 C1168 1.381 . S
C1170 C1171 1.394 . S
C1170 H1178 0.930 . S
C1171 C1170 1.394 . S
C1171 C1172 1.383 . S
C1171 H1179 0.929 . S
C1172 C1171 1.383 . S
C1172 C1173 1.377 . S
C1173 H1157 0.930 . S
C1173 C1172 1.377 . S
C1173 C1174 1.379 . S
C1174 H1158 0.931 . S
C1174 C1168 1.383 . S
C1174 C1173 1.379 . S
H1175 C1169 0.959 . S
H1176 C1169 0.961 . S
H1177 C1169 0.960 . S
H1178 C1170 0.930 . S
H1179 C1171 0.929 . S
H1180 C1188 0.929 . S
H1181 C1190 0.930 . S
H1182 C1192 0.930 . S
H1183 C1195 0.929 . S
H1184 C1198 0.930 1_455 S
H1185 C1200 0.960 . S
H1186 C1200 0.960 . S
H1187 C1200 0.960 . S
C1188 H1180 0.929 . S
C1188 C1189 1.377 . S
C1188 C1190 1.384 . S
C1189 C1188 1.377 . S
C1189 C1195 1.390 . S
C1190 H1181 0.930 . S
C1190 C1188 1.384 . S
C1190 C1191 1.372 . S
C1191 C1190 1.372 . S
C1191 C1192 1.400 . S
C1191 C1196 1.487 . S
C1192 H1182 0.930 . S
C1192 C1191 1.400 . S
C1192 C1195 1.386 . S
H1193 C1209 0.930 . S
H1194 C1210 0.931 . S
C1195 H1183 0.929 . S
C1195 C1189 1.390 . S
C1195 C1192 1.386 . S
C1196 C1191 1.487 . S
C1196 C1198 1.395 1_455 S
C1196 C1199 1.405 1_455 S
H1197 C1203 0.930 . S
C1198 H1184 0.930 1_655 S
C1198 C1196 1.395 1_655 S
C1198 C1201 1.403 . S
C1199 C1196 1.405 1_655 S
C1199 C1200 1.524 . S
C1199 C1203 1.400 . S
C1200 H1185 0.960 . S
C1200 H1186 0.960 . S
C1200 H1187 0.960 . S
C1200 C1199 1.524 . S
C1201 C1198 1.403 . S
C1201 C1202 1.392 . S
C1201 C1205 1.495 . S
C1202 C1201 1.392 . S
C1202 C1203 1.385 . S
C1202 C1204 1.478 . S
C1203 H1197 0.930 . S
C1203 C1199 1.400 . S
C1203 C1202 1.385 . S
C1204 C1202 1.478 . S
C1204 C1206 1.381 . S
C1204 C1210 1.383 . S
C1205 C1201 1.495 . S
C1205 H1211 0.959 . S
C1205 H1212 0.961 . S
C1205 H1213 0.960 . S
C1206 C1204 1.381 . S
C1206 C1207 1.394 . S
C1206 H1214 0.930 . S
C1207 C1206 1.394 . S
C1207 C1208 1.383 . S
C1207 H1215 0.929 . S
C1208 C1207 1.383 . S
C1208 C1209 1.377 . S
C1209 H1193 0.930 . S
C1209 C1208 1.377 . S
C1209 C1210 1.379 . S
C1210 H1194 0.931 . S
C1210 C1204 1.383 . S
C1210 C1209 1.379 . S
H1211 C1205 0.959 . S
H1212 C1205 0.961 . S
H1213 C1205 0.960 . S
H1214 C1206 0.930 . S
H1215 C1207 0.929 . S
H1216 C1224 0.929 . S
H1217 C1226 0.930 . S
H1218 C1228 0.930 . S
H1219 C1231 0.929 . S
H1220 C1234 0.930 . S
H1221 C1236 0.960 . S
H1222 C1236 0.960 . S
H1223 C1236 0.960 . S
C1224 H1216 0.929 . S
C1224 C1225 1.377 . S
C1224 C1226 1.384 . S
C1225 C1224 1.377 . S
C1225 C1231 1.390 . S
C1226 H1217 0.930 . S
C1226 C1224 1.384 . S
C1226 C1227 1.372 . S
C1227 C1226 1.372 . S
C1227 C1228 1.400 . S
C1227 C1232 1.490 . S
C1228 H1218 0.930 . S
C1228 C1227 1.400 . S
C1228 C1231 1.386 . S
H1229 C1245 0.930 . S
H1230 C1246 0.931 . S
C1231 H1219 0.929 . S
C1231 C1225 1.390 . S
C1231 C1228 1.386 . S
C1232 C1227 1.490 . S
C1232 C1234 1.395 . S
C1232 C1235 1.403 . S
H1233 C1239 0.930 . S
C1234 H1220 0.930 . S
C1234 C1232 1.395 . S
C1234 C1237 1.403 . S
C1235 C1232 1.403 . S
C1235 C1236 1.524 . S
C1235 C1239 1.400 . S
C1236 H1221 0.960 . S
C1236 H1222 0.960 . S
C1236 H1223 0.960 . S
C1236 C1235 1.524 . S
C1237 C1234 1.403 . S
C1237 C1238 1.392 . S
C1237 C1241 1.495 . S
C1238 C1237 1.392 . S
C1238 C1239 1.385 . S
C1238 C1240 1.478 . S
C1239 H1233 0.930 . S
C1239 C1235 1.400 . S
C1239 C1238 1.385 . S
C1240 C1238 1.478 . S
C1240 C1242 1.381 . S
C1240 C1246 1.383 . S
C1241 C1237 1.495 . S
C1241 H1247 0.959 . S
C1241 H1248 0.961 . S
C1241 H1249 0.960 . S
C1242 C1240 1.381 . S
C1242 C1243 1.394 . S
C1242 H1250 0.930 . S
C1243 C1242 1.394 . S
C1243 C1244 1.383 . S
C1243 H1251 0.929 . S
C1244 C1243 1.383 . S
C1244 C1245 1.377 . S
C1245 H1229 0.930 . S
C1245 C1244 1.377 . S
C1245 C1246 1.379 . S
C1246 H1230 0.931 . S
C1246 C1240 1.383 . S
C1246 C1245 1.379 . S
H1247 C1241 0.959 . S
H1248 C1241 0.961 . S
H1249 C1241 0.960 . S
H1250 C1242 0.930 . S
H1251 C1243 0.929 . S
H1252 C1260 0.929 . S
H1253 C1262 0.930 . S
H1254 C1264 0.930 . S
H1255 C1267 0.929 . S
H1256 C1270 0.930 . S
H1257 C1272 0.960 . S
H1258 C1272 0.960 . S
H1259 C1272 0.960 . S
C1260 H1252 0.929 . S
C1260 C1261 1.377 . S
C1260 C1262 1.384 . S
C1261 C1260 1.377 . S
C1261 C1267 1.390 . S
C1262 H1253 0.930 . S
C1262 C1260 1.384 . S
C1262 C1263 1.372 . S
C1263 C1262 1.372 . S
C1263 C1264 1.400 . S
C1263 C1268 1.490 . S
C1264 H1254 0.930 . S
C1264 C1263 1.400 . S
C1264 C1267 1.386 . S
H1265 C1281 0.930 . S
H1266 C1282 0.931 . S
C1267 H1255 0.929 . S
C1267 C1261 1.390 . S
C1267 C1264 1.386 . S
C1268 C1263 1.490 . S
C1268 C1270 1.395 . S
C1268 C1271 1.403 . S
H1269 C1275 0.930 . S
C1270 H1256 0.930 . S
C1270 C1268 1.395 . S
C1270 C1273 1.403 . S
C1271 C1268 1.403 . S
C1271 C1272 1.524 . S
C1271 C1275 1.400 . S
C1272 H1257 0.960 . S
C1272 H1258 0.960 . S
C1272 H1259 0.960 . S
C1272 C1271 1.524 . S
C1273 C1270 1.403 . S
C1273 C1274 1.392 . S
C1273 C1277 1.495 . S
C1274 C1273 1.392 . S
C1274 C1275 1.385 . S
C1274 C1276 1.478 . S
C1275 H1269 0.930 . S
C1275 C1271 1.400 . S
C1275 C1274 1.385 . S
C1276 C1274 1.478 . S
C1276 C1278 1.381 . S
C1276 C1282 1.383 . S
C1277 C1273 1.495 . S
C1277 H1283 0.959 . S
C1277 H1284 0.961 . S
C1277 H1285 0.960 . S
C1278 C1276 1.381 . S
C1278 C1279 1.394 . S
C1278 H1286 0.930 . S
C1279 C1278 1.394 . S
C1279 C1280 1.383 . S
C1279 H1287 0.929 . S
C1280 C1279 1.383 . S
C1280 C1281 1.377 . S
C1281 H1265 0.930 . S
C1281 C1280 1.377 . S
C1281 C1282 1.379 . S
C1282 H1266 0.931 . S
C1282 C1276 1.383 . S
C1282 C1281 1.379 . S
H1283 C1277 0.959 . S
H1284 C1277 0.961 . S
H1285 C1277 0.960 . S
H1286 C1278 0.930 . S
H1287 C1279 0.929 . S
H1288 C1296 0.929 . S
H1289 C1298 0.930 . S
H1290 C1300 0.930 . S
H1291 C1303 0.929 . S
H1292 C1306 0.930 . S
H1293 C1308 0.960 . S
H1294 C1308 0.960 . S
H1295 C1308 0.960 . S
C1296 H1288 0.929 . S
C1296 C1297 1.377 . S
C1296 C1298 1.384 . S
C1297 C1296 1.377 . S
C1297 C1303 1.390 . S
C1298 H1289 0.930 . S
C1298 C1296 1.384 . S
C1298 C1299 1.372 . S
C1299 C1298 1.372 . S
C1299 C1300 1.400 . S
C1299 C1304 1.490 . S
C1300 H1290 0.930 . S
C1300 C1299 1.400 . S
C1300 C1303 1.386 . S
H1301 C1317 0.930 . S
H1302 C1318 0.931 . S
C1303 H1291 0.929 . S
C1303 C1297 1.390 . S
C1303 C1300 1.386 . S
C1304 C1299 1.490 . S
C1304 C1306 1.395 . S
C1304 C1307 1.403 . S
H1305 C1311 0.930 . S
C1306 H1292 0.930 . S
C1306 C1304 1.395 . S
C1306 C1309 1.403 . S
C1307 C1304 1.403 . S
C1307 C1308 1.524 . S
C1307 C1311 1.400 . S
C1308 H1293 0.960 . S
C1308 H1294 0.960 . S
C1308 H1295 0.960 . S
C1308 C1307 1.524 . S
C1309 C1306 1.403 . S
C1309 C1310 1.392 . S
C1309 C1313 1.495 . S
C1310 C1309 1.392 . S
C1310 C1311 1.385 . S
C1310 C1312 1.478 . S
C1311 H1305 0.930 . S
C1311 C1307 1.400 . S
C1311 C1310 1.385 . S
C1312 C1310 1.478 . S
C1312 C1314 1.381 . S
C1312 C1318 1.383 . S
C1313 C1309 1.495 . S
C1313 H1319 0.959 . S
C1313 H1320 0.961 . S
C1313 H1321 0.960 . S
C1314 C1312 1.381 . S
C1314 C1315 1.394 . S
C1314 H1322 0.930 . S
C1315 C1314 1.394 . S
C1315 C1316 1.383 . S
C1315 H1323 0.929 . S
C1316 C1315 1.383 . S
C1316 C1317 1.377 . S
C1317 H1301 0.930 . S
C1317 C1316 1.377 . S
C1317 C1318 1.379 . S
C1318 H1302 0.931 . S
C1318 C1312 1.383 . S
C1318 C1317 1.379 . S
H1319 C1313 0.959 . S
H1320 C1313 0.961 . S
H1321 C1313 0.960 . S
H1322 C1314 0.930 . S
H1323 C1315 0.929 . S
H1324 C1332 0.929 . S
H1325 C1334 0.930 . S
H1326 C1336 0.930 . S
H1327 C1339 0.929 . S
H1328 C1342 0.930 . S
H1329 C1344 0.960 . S
H1330 C1344 0.960 . S
H1331 C1344 0.960 . S
C1332 H1324 0.929 . S
C1332 C1333 1.377 . S
C1332 C1334 1.384 . S
C1333 C1332 1.377 . S
C1333 C1339 1.390 . S
C1334 H1325 0.930 . S
C1334 C1332 1.384 . S
C1334 C1335 1.372 . S
C1335 C1334 1.372 . S
C1335 C1336 1.400 . S
C1335 C1340 1.490 . S
C1336 H1326 0.930 . S
C1336 C1335 1.400 . S
C1336 C1339 1.386 . S
H1337 C1353 0.930 . S
H1338 C1354 0.931 . S
C1339 H1327 0.929 . S
C1339 C1333 1.390 . S
C1339 C1336 1.386 . S
C1340 C1335 1.490 . S
C1340 C1342 1.395 . S
C1340 C1343 1.403 . S
H1341 C1347 0.930 . S
C1342 H1328 0.930 . S
C1342 C1340 1.395 . S
C1342 C1345 1.403 . S
C1343 C1340 1.403 . S
C1343 C1344 1.524 . S
C1343 C1347 1.400 . S
C1344 H1329 0.960 . S
C1344 H1330 0.960 . S
C1344 H1331 0.960 . S
C1344 C1343 1.524 . S
C1345 C1342 1.403 . S
C1345 C1346 1.392 . S
C1345 C1349 1.495 . S
C1346 C1345 1.392 . S
C1346 C1347 1.385 . S
C1346 C1348 1.478 . S
C1347 H1341 0.930 . S
C1347 C1343 1.400 . S
C1347 C1346 1.385 . S
C1348 C1346 1.478 . S
C1348 C1350 1.381 . S
C1348 C1354 1.383 . S
C1349 C1345 1.495 . S
C1349 H1355 0.959 . S
C1349 H1356 0.961 . S
C1349 H1357 0.960 . S
C1350 C1348 1.381 . S
C1350 C1351 1.394 . S
C1350 H1358 0.930 . S
C1351 C1350 1.394 . S
C1351 C1352 1.383 . S
C1351 H1359 0.929 . S
C1352 C1351 1.383 . S
C1352 C1353 1.377 . S
C1353 H1337 0.930 . S
C1353 C1352 1.377 . S
C1353 C1354 1.379 . S
C1354 H1338 0.931 . S
C1354 C1348 1.383 . S
C1354 C1353 1.379 . S
H1355 C1349 0.959 . S
H1356 C1349 0.961 . S
H1357 C1349 0.960 . S
H1358 C1350 0.930 . S
H1359 C1351 0.929 . S
H1360 C1368 0.929 . S
H1361 C1370 0.930 . S
H1362 C1372 0.930 . S
H1363 C1375 0.929 . S
H1364 C1378 0.930 . S
H1365 C1380 0.960 . S
H1366 C1380 0.960 . S
H1367 C1380 0.960 . S
C1368 H1360 0.929 . S
C1368 C1369 1.377 . S
C1368 C1370 1.384 . S
C1369 C1368 1.377 . S
C1369 C1375 1.390 . S
C1370 H1361 0.930 . S
C1370 C1368 1.384 . S
C1370 C1371 1.372 . S
C1371 C1370 1.372 . S
C1371 C1372 1.400 . S
C1371 C1376 1.490 . S
C1372 H1362 0.930 . S
C1372 C1371 1.400 . S
C1372 C1375 1.386 . S
H1373 C1389 0.930 . S
H1374 C1390 0.931 . S
C1375 H1363 0.929 . S
C1375 C1369 1.390 . S
C1375 C1372 1.386 . S
C1376 C1371 1.490 . S
C1376 C1378 1.395 . S
C1376 C1379 1.403 . S
H1377 C1383 0.930 . S
C1378 H1364 0.930 . S
C1378 C1376 1.395 . S
C1378 C1381 1.403 . S
C1379 C1376 1.403 . S
C1379 C1380 1.524 . S
C1379 C1383 1.400 . S
C1380 H1365 0.960 . S
C1380 H1366 0.960 . S
C1380 H1367 0.960 . S
C1380 C1379 1.524 . S
C1381 C1378 1.403 . S
C1381 C1382 1.392 . S
C1381 C1385 1.495 . S
C1382 C1381 1.392 . S
C1382 C1383 1.385 . S
C1382 C1384 1.478 . S
C1383 H1377 0.930 . S
C1383 C1379 1.400 . S
C1383 C1382 1.385 . S
C1384 C1382 1.478 . S
C1384 C1386 1.381 . S
C1384 C1390 1.383 . S
C1385 C1381 1.495 . S
C1385 H1391 0.959 . S
C1385 H1392 0.961 . S
C1385 H1393 0.960 . S
C1386 C1384 1.381 . S
C1386 C1387 1.394 . S
C1386 H1394 0.930 . S
C1387 C1386 1.394 . S
C1387 C1388 1.383 . S
C1387 H1395 0.929 . S
C1388 C1387 1.383 . S
C1388 C1389 1.377 . S
C1389 H1373 0.930 . S
C1389 C1388 1.377 . S
C1389 C1390 1.379 . S
C1390 H1374 0.931 . S
C1390 C1384 1.383 . S
C1390 C1389 1.379 . S
H1391 C1385 0.959 . S
H1392 C1385 0.961 . S
H1393 C1385 0.960 . S
H1394 C1386 0.930 . S
H1395 C1387 0.929 . S
H1396 C1404 0.929 . S
H1397 C1406 0.930 . S
H1398 C1408 0.930 . S
H1399 C1411 0.929 . S
H1400 C1414 0.930 . S
H1401 C1416 0.960 . S
H1402 C1416 0.960 . S
H1403 C1416 0.960 . S
C1404 H1396 0.929 . S
C1404 C1405 1.377 . S
C1404 C1406 1.384 . S
C1405 C1404 1.377 . S
C1405 C1411 1.390 . S
C1406 H1397 0.930 . S
C1406 C1404 1.384 . S
C1406 C1407 1.372 . S
C1407 C1406 1.372 . S
C1407 C1408 1.400 . S
C1407 C1412 1.490 . S
C1408 H1398 0.930 . S
C1408 C1407 1.400 . S
C1408 C1411 1.386 . S
H1409 C1425 0.930 . S
H1410 C1426 0.931 . S
C1411 H1399 0.929 . S
C1411 C1405 1.390 . S
C1411 C1408 1.386 . S
C1412 C1407 1.490 . S
C1412 C1414 1.395 . S
C1412 C1415 1.403 . S
H1413 C1419 0.930 . S
C1414 H1400 0.930 . S
C1414 C1412 1.395 . S
C1414 C1417 1.403 . S
C1415 C1412 1.403 . S
C1415 C1416 1.524 . S
C1415 C1419 1.400 . S
C1416 H1401 0.960 . S
C1416 H1402 0.960 . S
C1416 H1403 0.960 . S
C1416 C1415 1.524 . S
C1417 C1414 1.403 . S
C1417 C1418 1.392 . S
C1417 C1421 1.495 . S
C1418 C1417 1.392 . S
C1418 C1419 1.385 . S
C1418 C1420 1.478 . S
C1419 H1413 0.930 . S
C1419 C1415 1.400 . S
C1419 C1418 1.385 . S
C1420 C1418 1.478 . S
C1420 C1422 1.381 . S
C1420 C1426 1.383 . S
C1421 C1417 1.495 . S
C1421 H1427 0.959 . S
C1421 H1428 0.961 . S
C1421 H1429 0.960 . S
C1422 C1420 1.381 . S
C1422 C1423 1.394 . S
C1422 H1430 0.930 . S
C1423 C1422 1.394 . S
C1423 C1424 1.383 . S
C1423 H1431 0.929 . S
C1424 C1423 1.383 . S
C1424 C1425 1.377 . S
C1425 H1409 0.930 . S
C1425 C1424 1.377 . S
C1425 C1426 1.379 . S
C1426 H1410 0.931 . S
C1426 C1420 1.383 . S
C1426 C1425 1.379 . S
H1427 C1421 0.959 . S
H1428 C1421 0.961 . S
H1429 C1421 0.960 . S
H1430 C1422 0.930 . S
H1431 C1423 0.929 . S
H1432 C1440 0.929 . S
H1433 C1442 0.930 . S
H1434 C1444 0.930 . S
H1435 C1447 0.929 . S
H1436 C1450 0.930 . S
H1437 C1452 0.960 . S
H1438 C1452 0.960 . S
H1439 C1452 0.960 . S
C1440 H1432 0.929 . S
C1440 C1441 1.377 . S
C1440 C1442 1.384 . S
C1441 C1440 1.377 . S
C1441 C1447 1.390 . S
C1442 H1433 0.930 . S
C1442 C1440 1.384 . S
C1442 C1443 1.372 . S
C1443 C1442 1.372 . S
C1443 C1444 1.400 . S
C1443 C1448 1.490 . S
C1444 H1434 0.930 . S
C1444 C1443 1.400 . S
C1444 C1447 1.386 . S
H1445 C1461 0.930 . S
H1446 C1462 0.931 . S
C1447 H1435 0.929 . S
C1447 C1441 1.390 . S
C1447 C1444 1.386 . S
C1448 C1443 1.490 . S
C1448 C1450 1.395 . S
C1448 C1451 1.403 . S
H1449 C1455 0.930 . S
C1450 H1436 0.930 . S
C1450 C1448 1.395 . S
C1450 C1453 1.403 . S
C1451 C1448 1.403 . S
C1451 C1452 1.524 . S
C1451 C1455 1.400 . S
C1452 H1437 0.960 . S
C1452 H1438 0.960 . S
C1452 H1439 0.960 . S
C1452 C1451 1.524 . S
C1453 C1450 1.403 . S
C1453 C1454 1.392 . S
C1453 C1457 1.495 . S
C1454 C1453 1.392 . S
C1454 C1455 1.385 . S
C1454 C1456 1.478 . S
C1455 H1449 0.930 . S
C1455 C1451 1.400 . S
C1455 C1454 1.385 . S
C1456 C1454 1.478 . S
C1456 C1458 1.381 . S
C1456 C1462 1.383 . S
C1457 C1453 1.495 . S
C1457 H1463 0.959 . S
C1457 H1464 0.961 . S
C1457 H1465 0.960 . S
C1458 C1456 1.381 . S
C1458 C1459 1.394 . S
C1458 H1466 0.930 . S
C1459 C1458 1.394 . S
C1459 C1460 1.383 . S
C1459 H1467 0.929 . S
C1460 C1459 1.383 . S
C1460 C1461 1.377 . S
C1461 H1445 0.930 . S
C1461 C1460 1.377 . S
C1461 C1462 1.379 . S
C1462 H1446 0.931 . S
C1462 C1456 1.383 . S
C1462 C1461 1.379 . S
H1463 C1457 0.959 . S
H1464 C1457 0.961 . S
H1465 C1457 0.960 . S
H1466 C1458 0.930 . S
H1467 C1459 0.929 . S
H1468 C1476 0.929 . S
H1469 C1478 0.930 . S
H1470 C1480 0.930 . S
H1471 C1483 0.929 . S
H1472 C1486 0.930 . S
H1473 C1488 0.960 . S
H1474 C1488 0.960 . S
H1475 C1488 0.960 . S
C1476 H1468 0.929 . S
C1476 C1477 1.377 . S
C1476 C1478 1.384 . S
C1477 C1476 1.377 . S
C1477 C1483 1.390 . S
C1478 H1469 0.930 . S
C1478 C1476 1.384 . S
C1478 C1479 1.372 . S
C1479 C1478 1.372 . S
C1479 C1480 1.400 . S
C1479 C1484 1.490 . S
C1480 H1470 0.930 . S
C1480 C1479 1.400 . S
C1480 C1483 1.386 . S
H1481 C1497 0.930 . S
H1482 C1498 0.931 . S
C1483 H1471 0.929 . S
C1483 C1477 1.390 . S
C1483 C1480 1.386 . S
C1484 C1479 1.490 . S
C1484 C1486 1.395 . S
C1484 C1487 1.403 . S
H1485 C1491 0.930 . S
C1486 H1472 0.930 . S
C1486 C1484 1.395 . S
C1486 C1489 1.403 . S
C1487 C1484 1.403 . S
C1487 C1488 1.524 . S
C1487 C1491 1.400 . S
C1488 H1473 0.960 . S
C1488 H1474 0.960 . S
C1488 H1475 0.960 . S
C1488 C1487 1.524 . S
C1489 C1486 1.403 . S
C1489 C1490 1.392 . S
C1489 C1493 1.495 . S
C1490 C1489 1.392 . S
C1490 C1491 1.385 . S
C1490 C1492 1.478 . S
C1491 H1485 0.930 . S
C1491 C1487 1.400 . S
C1491 C1490 1.385 . S
C1492 C1490 1.478 . S
C1492 C1494 1.381 . S
C1492 C1498 1.383 . S
C1493 C1489 1.495 . S
C1493 H1499 0.959 . S
C1493 H1500 0.961 . S
C1493 H1501 0.960 . S
C1494 C1492 1.381 . S
C1494 C1495 1.394 . S
C1494 H1502 0.930 . S
C1495 C1494 1.394 . S
C1495 C1496 1.383 . S
C1495 H1503 0.929 . S
C1496 C1495 1.383 . S
C1496 C1497 1.377 . S
C1497 H1481 0.930 . S
C1497 C1496 1.377 . S
C1497 C1498 1.379 . S
C1498 H1482 0.931 . S
C1498 C1492 1.383 . S
C1498 C1497 1.379 . S
H1499 C1493 0.959 . S
H1500 C1493 0.961 . S
H1501 C1493 0.960 . S
H1502 C1494 0.930 . S
H1503 C1495 0.929 . S
H1504 C1512 0.929 . S
H1505 C1514 0.930 . S
H1506 C1516 0.930 . S
H1507 C1519 0.929 . S
H1508 C1522 0.930 . S
H1509 C1524 0.960 . S
H1510 C1524 0.960 . S
H1511 C1524 0.960 . S
C1512 H1504 0.929 . S
C1512 C1513 1.377 . S
C1512 C1514 1.384 . S
C1513 C1512 1.377 . S
C1513 C1519 1.390 . S
C1514 H1505 0.930 . S
C1514 C1512 1.384 . S
C1514 C1515 1.372 . S
C1515 C1514 1.372 . S
C1515 C1516 1.400 . S
C1515 C1520 1.490 . S
C1516 H1506 0.930 . S
C1516 C1515 1.400 . S
C1516 C1519 1.386 . S
H1517 C1533 0.930 . S
H1518 C1534 0.931 . S
C1519 H1507 0.929 . S
C1519 C1513 1.390 . S
C1519 C1516 1.386 . S
C1520 C1515 1.490 . S
C1520 C1522 1.395 . S
C1520 C1523 1.403 . S
H1521 C1527 0.930 . S
C1522 H1508 0.930 . S
C1522 C1520 1.395 . S
C1522 C1525 1.403 . S
C1523 C1520 1.403 . S
C1523 C1524 1.524 . S
C1523 C1527 1.400 . S
C1524 H1509 0.960 . S
C1524 H1510 0.960 . S
C1524 H1511 0.960 . S
C1524 C1523 1.524 . S
C1525 C1522 1.403 . S
C1525 C1526 1.392 . S
C1525 C1529 1.495 . S
C1526 C1525 1.392 . S
C1526 C1527 1.385 . S
C1526 C1528 1.478 . S
C1527 H1521 0.930 . S
C1527 C1523 1.400 . S
C1527 C1526 1.385 . S
C1528 C1526 1.478 . S
C1528 C1530 1.381 . S
C1528 C1534 1.383 . S
C1529 C1525 1.495 . S
C1529 H1535 0.959 . S
C1529 H1536 0.961 . S
C1529 H1537 0.960 . S
C1530 C1528 1.381 . S
C1530 C1531 1.394 1_556 S
C1530 H1538 0.930 . S
C1531 C1530 1.394 1_554 S
C1531 C1532 1.383 . S
C1531 H1539 0.929 . S
C1532 C1531 1.383 . S
C1532 C1533 1.377 . S
C1533 H1517 0.930 . S
C1533 C1532 1.377 . S
C1533 C1534 1.379 1_554 S
C1534 H1518 0.931 . S
C1534 C1528 1.383 . S
C1534 C1533 1.379 1_556 S
H1535 C1529 0.959 . S
H1536 C1529 0.961 . S
H1537 C1529 0.960 . S
H1538 C1530 0.930 . S
H1539 C1531 0.929 . S
H1540 C1548 0.929 1_556 S
H1541 C1550 0.930 . S
H1542 C1552 0.930 . S
H1543 C1555 0.929 . S
H1544 C1558 0.930 . S
H1545 C1560 0.960 . S
H1546 C1560 0.960 . S
H1547 C1560 0.960 . S
C1548 H1540 0.929 1_554 S
C1548 C1549 1.377 1_554 S
C1548 C1550 1.384 . S
C1549 C1548 1.377 1_556 S
C1549 C1555 1.390 . S
C1550 H1541 0.930 . S
C1550 C1548 1.384 . S
C1550 C1551 1.372 . S
C1551 C1550 1.372 . S
C1551 C1552 1.400 . S
C1551 C1556 1.490 . S
C1552 H1542 0.930 . S
C1552 C1551 1.400 . S
C1552 C1555 1.386 1_554 S
H1553 C1569 0.930 . S
H1554 C1570 0.931 . S
C1555 H1543 0.929 . S
C1555 C1549 1.390 . S
C1555 C1552 1.386 1_556 S
C1556 C1551 1.490 . S
C1556 C1558 1.395 . S
C1556 C1559 1.403 . S
H1557 C1563 0.930 . S
C1558 H1544 0.930 . S
C1558 C1556 1.395 . S
C1558 C1561 1.403 . S
C1559 C1556 1.403 . S
C1559 C1560 1.524 . S
C1559 C1563 1.400 . S
C1560 H1545 0.960 . S
C1560 H1546 0.960 . S
C1560 H1547 0.960 . S
C1560 C1559 1.524 . S
C1561 C1558 1.403 . S
C1561 C1562 1.392 . S
C1561 C1565 1.495 . S
C1562 C1561 1.392 . S
C1562 C1563 1.385 . S
C1562 C1564 1.478 . S
C1563 H1557 0.930 . S
C1563 C1559 1.400 . S
C1563 C1562 1.385 . S
C1564 C1562 1.478 . S
C1564 C1566 1.381 . S
C1564 C1570 1.383 . S
C1565 C1561 1.495 . S
C1565 H1571 0.959 . S
C1565 H1572 0.961 . S
C1565 H1573 0.960 . S
C1566 C1564 1.381 . S
C1566 C1567 1.394 . S
C1566 H1574 0.930 . S
C1567 C1566 1.394 . S
C1567 C1568 1.383 . S
C1567 H1575 0.929 . S
C1568 C1567 1.383 . S
C1568 C1569 1.377 . S
C1569 H1553 0.930 . S
C1569 C1568 1.377 . S
C1569 C1570 1.379 . S
C1570 H1554 0.931 . S
C1570 C1564 1.383 . S
C1570 C1569 1.379 . S
H1571 C1565 0.959 . S
H1572 C1565 0.961 . S
H1573 C1565 0.960 . S
H1574 C1566 0.930 . S
H1575 C1567 0.929 . S
H1576 C1584 0.929 . S
H1577 C1586 0.930 . S
H1578 C1588 0.930 . S
H1579 C1591 0.929 . S
H1580 C1594 0.930 . S
H1581 C1596 0.960 . S
H1582 C1596 0.960 . S
H1583 C1596 0.960 . S
C1584 H1576 0.929 . S
C1584 C1585 1.377 . S
C1584 C1586 1.384 1_554 S
C1585 C1584 1.377 . S
C1585 C1591 1.390 1_554 S
C1586 H1577 0.930 . S
C1586 C1584 1.384 1_556 S
C1586 C1587 1.372 . S
C1587 C1586 1.372 . S
C1587 C1588 1.400 . S
C1587 C1592 1.490 . S
C1588 H1578 0.930 . S
C1588 C1587 1.400 . S
C1588 C1591 1.386 . S
H1589 C1605 0.930 . S
H1590 C1606 0.931 . S
C1591 H1579 0.929 . S
C1591 C1585 1.390 1_556 S
C1591 C1588 1.386 . S
C1592 C1587 1.490 . S
C1592 C1594 1.395 . S
C1592 C1595 1.403 . S
H1593 C1599 0.930 . S
C1594 H1580 0.930 . S
C1594 C1592 1.395 . S
C1594 C1597 1.403 . S
C1595 C1592 1.403 . S
C1595 C1596 1.524 . S
C1595 C1599 1.400 . S
C1596 H1581 0.960 . S
C1596 H1582 0.960 . S
C1596 H1583 0.960 . S
C1596 C1595 1.524 . S
C1597 C1594 1.403 . S
C1597 C1598 1.392 . S
C1597 C1601 1.495 . S
C1598 C1597 1.392 . S
C1598 C1599 1.385 . S
C1598 C1600 1.478 . S
C1599 H1593 0.930 . S
C1599 C1595 1.400 . S
C1599 C1598 1.385 . S
C1600 C1598 1.478 . S
C1600 C1602 1.381 . S
C1600 C1606 1.383 . S
C1601 C1597 1.495 . S
C1601 H1607 0.959 . S
C1601 H1608 0.961 . S
C1601 H1609 0.960 . S
C1602 C1600 1.381 . S
C1602 C1603 1.394 . S
C1602 H1610 0.930 . S
C1603 C1602 1.394 . S
C1603 C1604 1.383 . S
C1603 H1611 0.929 . S
C1604 C1603 1.383 . S
C1604 C1605 1.377 . S
C1605 H1589 0.930 . S
C1605 C1604 1.377 . S
C1605 C1606 1.379 . S
C1606 H1590 0.931 . S
C1606 C1600 1.383 . S
C1606 C1605 1.379 . S
H1607 C1601 0.959 . S
H1608 C1601 0.961 . S
H1609 C1601 0.960 . S
H1610 C1602 0.930 . S
H1611 C1603 0.929 . S
H1612 C1620 0.929 . S
H1613 C1622 0.930 . S
H1614 C1624 0.930 . S
H1615 C1627 0.929 . S
H1616 C1630 0.930 . S
H1617 C1632 0.960 . S
H1618 C1632 0.960 . S
H1619 C1632 0.960 . S
C1620 H1612 0.929 . S
C1620 C1621 1.377 . S
C1620 C1622 1.384 1_556 S
C1621 C1620 1.377 . S
C1621 C1627 1.390 1_556 S
C1622 H1613 0.930 . S
C1622 C1620 1.384 1_554 S
C1622 C1623 1.372 . S
C1623 C1622 1.372 . S
C1623 C1624 1.400 . S
C1623 C1628 1.490 . S
C1624 H1614 0.930 . S
C1624 C1623 1.400 . S
C1624 C1627 1.386 . S
H1625 C1641 0.930 . S
H1626 C1642 0.931 . S
C1627 H1615 0.929 . S
C1627 C1621 1.390 1_554 S
C1627 C1624 1.386 . S
C1628 C1623 1.490 . S
C1628 C1630 1.395 . S
C1628 C1631 1.403 . S
H1629 C1635 0.930 . S
C1630 H1616 0.930 . S
C1630 C1628 1.395 . S
C1630 C1633 1.403 . S
C1631 C1628 1.403 . S
C1631 C1632 1.524 . S
C1631 C1635 1.400 . S
C1632 H1617 0.960 . S
C1632 H1618 0.960 . S
C1632 H1619 0.960 . S
C1632 C1631 1.524 . S
C1633 C1630 1.403 . S
C1633 C1634 1.392 . S
C1633 C1637 1.495 . S
C1634 C1633 1.392 . S
C1634 C1635 1.385 . S
C1634 C1636 1.478 . S
C1635 H1629 0.930 . S
C1635 C1631 1.400 . S
C1635 C1634 1.385 . S
C1636 C1634 1.478 . S
C1636 C1638 1.381 . S
C1636 C1642 1.383 . S
C1637 C1633 1.495 . S
C1637 H1643 0.959 . S
C1637 H1644 0.961 . S
C1637 H1645 0.960 . S
C1638 C1636 1.381 . S
C1638 C1639 1.394 . S
C1638 H1646 0.930 . S
C1639 C1638 1.394 . S
C1639 C1640 1.383 . S
C1639 H1647 0.929 . S
C1640 C1639 1.383 . S
C1640 C1641 1.377 . S
C1641 H1625 0.930 . S
C1641 C1640 1.377 . S
C1641 C1642 1.379 . S
C1642 H1626 0.931 . S
C1642 C1636 1.383 . S
C1642 C1641 1.379 . S
H1643 C1637 0.959 . S
H1644 C1637 0.961 . S
H1645 C1637 0.960 . S
H1646 C1638 0.930 . S
H1647 C1639 0.929 . S
H1648 C1656 0.929 . S
H1649 C1658 0.930 . S
H1650 C1660 0.930 . S
H1651 C1663 0.929 . S
H1652 C1666 0.930 . S
H1653 C1668 0.960 . S
H1654 C1668 0.960 . S
H1655 C1668 0.960 . S
C1656 H1648 0.929 . S
C1656 C1657 1.377 . S
C1656 C1658 1.384 . S
C1657 C1656 1.377 . S
C1657 C1663 1.390 . S
C1658 H1649 0.930 . S
C1658 C1656 1.384 . S
C1658 C1659 1.372 . S
C1659 C1658 1.372 . S
C1659 C1660 1.400 . S
C1659 C1664 1.490 . S
C1660 H1650 0.930 . S
C1660 C1659 1.400 . S
C1660 C1663 1.386 . S
H1661 C1677 0.930 . S
H1662 C1678 0.931 . S
C1663 H1651 0.929 . S
C1663 C1657 1.390 . S
C1663 C1660 1.386 . S
C1664 C1659 1.490 . S
C1664 C1666 1.395 . S
C1664 C1667 1.403 . S
H1665 C1671 0.930 . S
C1666 H1652 0.930 . S
C1666 C1664 1.395 . S
C1666 C1669 1.403 . S
C1667 C1664 1.403 . S
C1667 C1668 1.524 . S
C1667 C1671 1.400 . S
C1668 H1653 0.960 . S
C1668 H1654 0.960 . S
C1668 H1655 0.960 . S
C1668 C1667 1.524 . S
C1669 C1666 1.403 . S
C1669 C1670 1.392 . S
C1669 C1673 1.495 . S
C1670 C1669 1.392 . S
C1670 C1671 1.385 . S
C1670 C1672 1.478 . S
C1671 H1665 0.930 . S
C1671 C1667 1.400 . S
C1671 C1670 1.385 . S
C1672 C1670 1.478 . S
C1672 C1674 1.381 . S
C1672 C1678 1.383 . S
C1673 C1669 1.495 . S
C1673 H1679 0.959 . S
C1673 H1680 0.961 . S
C1673 H1681 0.960 . S
C1674 C1672 1.381 . S
C1674 C1675 1.394 . S
C1674 H1682 0.930 . S
C1675 C1674 1.394 . S
C1675 C1676 1.383 . S
C1675 H1683 0.929 . S
C1676 C1675 1.383 . S
C1676 C1677 1.377 . S
C1677 H1661 0.930 . S
C1677 C1676 1.377 . S
C1677 C1678 1.379 . S
C1678 H1662 0.931 . S
C1678 C1672 1.383 . S
C1678 C1677 1.379 . S
H1679 C1673 0.959 . S
H1680 C1673 0.961 . S
H1681 C1673 0.960 . S
H1682 C1674 0.930 . S
H1683 C1675 0.929 . S
H1684 C1692 0.929 . S
H1685 C1694 0.930 . S
H1686 C1696 0.930 . S
H1687 C1699 0.929 . S
H1688 C1702 0.930 . S
H1689 C1704 0.960 . S
H1690 C1704 0.960 . S
H1691 C1704 0.960 . S
C1692 H1684 0.929 . S
C1692 C1693 1.377 . S
C1692 C1694 1.384 . S
C1693 C1692 1.377 . S
C1693 C1699 1.390 . S
C1694 H1685 0.930 . S
C1694 C1692 1.384 . S
C1694 C1695 1.372 . S
C1695 C1694 1.372 . S
C1695 C1696 1.400 . S
C1695 C1700 1.490 . S
C1696 H1686 0.930 . S
C1696 C1695 1.400 . S
C1696 C1699 1.386 . S
H1697 C1713 0.930 . S
H1698 C1714 0.931 . S
C1699 H1687 0.929 . S
C1699 C1693 1.390 . S
C1699 C1696 1.386 . S
C1700 C1695 1.490 . S
C1700 C1702 1.395 . S
C1700 C1703 1.403 . S
H1701 C1707 0.930 . S
C1702 H1688 0.930 . S
C1702 C1700 1.395 . S
C1702 C1705 1.403 . S
C1703 C1700 1.403 . S
C1703 C1704 1.524 . S
C1703 C1707 1.400 . S
C1704 H1689 0.960 . S
C1704 H1690 0.960 . S
C1704 H1691 0.960 . S
C1704 C1703 1.524 . S
C1705 C1702 1.403 . S
C1705 C1706 1.392 . S
C1705 C1709 1.495 . S
C1706 C1705 1.392 . S
C1706 C1707 1.385 . S
C1706 C1708 1.478 . S
C1707 H1701 0.930 . S
C1707 C1703 1.400 . S
C1707 C1706 1.385 . S
C1708 C1706 1.478 . S
C1708 C1710 1.381 . S
C1708 C1714 1.383 . S
C1709 C1705 1.495 . S
C1709 H1715 0.959 . S
C1709 H1716 0.961 . S
C1709 H1717 0.960 . S
C1710 C1708 1.381 . S
C1710 C1711 1.394 . S
C1710 H1718 0.930 . S
C1711 C1710 1.394 . S
C1711 C1712 1.383 . S
C1711 H1719 0.929 . S
C1712 C1711 1.383 . S
C1712 C1713 1.377 . S
C1713 H1697 0.930 . S
C1713 C1712 1.377 . S
C1713 C1714 1.379 . S
C1714 H1698 0.931 . S
C1714 C1708 1.383 . S
C1714 C1713 1.379 . S
H1715 C1709 0.959 . S
H1716 C1709 0.961 . S
H1717 C1709 0.960 . S
H1718 C1710 0.930 . S
H1719 C1711 0.929 . S
H1720 C1728 0.929 . S
H1721 C1730 0.930 . S
H1722 C1732 0.930 . S
H1723 C1735 0.929 . S
H1724 C1738 0.930 . S
H1725 C1740 0.960 . S
H1726 C1740 0.960 . S
H1727 C1740 0.960 . S
C1728 H1720 0.929 . S
C1728 C1729 1.377 . S
C1728 C1730 1.384 . S
C1729 C1728 1.377 . S
C1729 C1735 1.390 . S
C1730 H1721 0.930 . S
C1730 C1728 1.384 . S
C1730 C1731 1.372 . S
C1731 C1730 1.372 . S
C1731 C1732 1.400 . S
C1731 C1736 1.490 . S
C1732 H1722 0.930 . S
C1732 C1731 1.400 . S
C1732 C1735 1.386 . S
H1733 C1749 0.930 . S
H1734 C1750 0.931 . S
C1735 H1723 0.929 . S
C1735 C1729 1.390 . S
C1735 C1732 1.386 . S
C1736 C1731 1.490 . S
C1736 C1738 1.395 . S
C1736 C1739 1.403 . S
H1737 C1743 0.930 . S
C1738 H1724 0.930 . S
C1738 C1736 1.395 . S
C1738 C1741 1.403 . S
C1739 C1736 1.403 . S
C1739 C1740 1.524 . S
C1739 C1743 1.400 . S
C1740 H1725 0.960 . S
C1740 H1726 0.960 . S
C1740 H1727 0.960 . S
C1740 C1739 1.524 . S
C1741 C1738 1.403 . S
C1741 C1742 1.392 . S
C1741 C1745 1.495 . S
C1742 C1741 1.392 . S
C1742 C1743 1.385 . S
C1742 C1744 1.478 . S
C1743 H1737 0.930 . S
C1743 C1739 1.400 . S
C1743 C1742 1.385 . S
C1744 C1742 1.478 . S
C1744 C1746 1.381 . S
C1744 C1750 1.383 . S
C1745 C1741 1.495 . S
C1745 H1751 0.959 . S
C1745 H1752 0.961 . S
C1745 H1753 0.960 . S
C1746 C1744 1.381 . S
C1746 C1747 1.394 . S
C1746 H1754 0.930 . S
C1747 C1746 1.394 . S
C1747 C1748 1.383 . S
C1747 H1755 0.929 . S
C1748 C1747 1.383 . S
C1748 C1749 1.377 . S
C1749 H1733 0.930 . S
C1749 C1748 1.377 . S
C1749 C1750 1.379 . S
C1750 H1734 0.931 . S
C1750 C1744 1.383 . S
C1750 C1749 1.379 . S
H1751 C1745 0.959 . S
H1752 C1745 0.961 . S
H1753 C1745 0.960 . S
H1754 C1746 0.930 . S
H1755 C1747 0.929 . S
H1756 C1764 0.929 . S
H1757 C1766 0.930 . S
H1758 C1768 0.930 . S
H1759 C1771 0.929 . S
H1760 C1774 0.930 . S
H1761 C1776 0.960 . S
H1762 C1776 0.960 . S
H1763 C1776 0.960 . S
C1764 H1756 0.929 . S
C1764 C1765 1.377 . S
C1764 C1766 1.384 . S
C1765 C1764 1.377 . S
C1765 C1771 1.390 . S
C1766 H1757 0.930 . S
C1766 C1764 1.384 . S
C1766 C1767 1.372 . S
C1767 C1766 1.372 . S
C1767 C1768 1.400 . S
C1767 C1772 1.490 . S
C1768 H1758 0.930 . S
C1768 C1767 1.400 . S
C1768 C1771 1.386 . S
H1769 C1785 0.930 . S
H1770 C1786 0.931 . S
C1771 H1759 0.929 . S
C1771 C1765 1.390 . S
C1771 C1768 1.386 . S
C1772 C1767 1.490 . S
C1772 C1774 1.395 . S
C1772 C1775 1.403 . S
H1773 C1779 0.930 . S
C1774 H1760 0.930 . S
C1774 C1772 1.395 . S
C1774 C1777 1.403 . S
C1775 C1772 1.403 . S
C1775 C1776 1.524 . S
C1775 C1779 1.400 . S
C1776 H1761 0.960 . S
C1776 H1762 0.960 . S
C1776 H1763 0.960 . S
C1776 C1775 1.524 . S
C1777 C1774 1.403 . S
C1777 C1778 1.392 . S
C1777 C1781 1.495 . S
C1778 C1777 1.392 . S
C1778 C1779 1.385 . S
C1778 C1780 1.478 . S
C1779 H1773 0.930 . S
C1779 C1775 1.400 . S
C1779 C1778 1.385 . S
C1780 C1778 1.478 . S
C1780 C1782 1.381 . S
C1780 C1786 1.383 . S
C1781 C1777 1.495 . S
C1781 H1787 0.959 . S
C1781 H1788 0.961 . S
C1781 H1789 0.960 . S
C1782 C1780 1.381 . S
C1782 C1783 1.394 . S
C1782 H1790 0.930 . S
C1783 C1782 1.394 . S
C1783 C1784 1.383 . S
C1783 H1791 0.929 . S
C1784 C1783 1.383 . S
C1784 C1785 1.377 . S
C1785 H1769 0.930 . S
C1785 C1784 1.377 . S
C1785 C1786 1.379 . S
C1786 H1770 0.931 . S
C1786 C1780 1.383 . S
C1786 C1785 1.379 . S
H1787 C1781 0.959 . S
H1788 C1781 0.961 . S
H1789 C1781 0.960 . S
H1790 C1782 0.930 . S
H1791 C1783 0.929 . S
H1792 C1800 0.929 . S
H1793 C1802 0.930 . S
H1794 C1804 0.930 . S
H1795 C1807 0.929 . S
H1796 C1810 0.930 . S
H1797 C1812 0.960 . S
H1798 C1812 0.960 . S
H1799 C1812 0.960 . S
C1800 H1792 0.929 . S
C1800 C1801 1.377 . S
C1800 C1802 1.384 . S
C1801 C1800 1.377 . S
C1801 C1807 1.390 . S
C1802 H1793 0.930 . S
C1802 C1800 1.384 . S
C1802 C1803 1.372 . S
C1803 C1802 1.372 . S
C1803 C1804 1.400 . S
C1803 C1808 1.490 . S
C1804 H1794 0.930 . S
C1804 C1803 1.400 . S
C1804 C1807 1.386 . S
H1805 C1821 0.930 . S
H1806 C1822 0.931 . S
C1807 H1795 0.929 . S
C1807 C1801 1.390 . S
C1807 C1804 1.386 . S
C1808 C1803 1.490 . S
C1808 C1810 1.395 . S
C1808 C1811 1.403 . S
H1809 C1815 0.930 . S
C1810 H1796 0.930 . S
C1810 C1808 1.395 . S
C1810 C1813 1.403 . S
C1811 C1808 1.403 . S
C1811 C1812 1.524 . S
C1811 C1815 1.400 . S
C1812 H1797 0.960 . S
C1812 H1798 0.960 . S
C1812 H1799 0.960 . S
C1812 C1811 1.524 . S
C1813 C1810 1.403 . S
C1813 C1814 1.392 . S
C1813 C1817 1.495 . S
C1814 C1813 1.392 . S
C1814 C1815 1.385 . S
C1814 C1816 1.478 . S
C1815 H1809 0.930 . S
C1815 C1811 1.400 . S
C1815 C1814 1.385 . S
C1816 C1814 1.478 . S
C1816 C1818 1.381 . S
C1816 C1822 1.383 . S
C1817 C1813 1.495 . S
C1817 H1823 0.959 . S
C1817 H1824 0.961 . S
C1817 H1825 0.960 . S
C1818 C1816 1.381 . S
C1818 C1819 1.394 . S
C1818 H1826 0.930 . S
C1819 C1818 1.394 . S
C1819 C1820 1.383 . S
C1819 H1827 0.929 . S
C1820 C1819 1.383 . S
C1820 C1821 1.377 . S
C1821 H1805 0.930 . S
C1821 C1820 1.377 . S
C1821 C1822 1.379 . S
C1822 H1806 0.931 . S
C1822 C1816 1.383 . S
C1822 C1821 1.379 . S
H1823 C1817 0.959 . S
H1824 C1817 0.961 . S
H1825 C1817 0.960 . S
H1826 C1818 0.930 . S
H1827 C1819 0.929 . S
H1828 C1836 0.929 . S
H1829 C1838 0.930 . S
H1830 C1840 0.930 . S
H1831 C1843 0.929 . S
H1832 C1846 0.930 . S
H1833 C1848 0.960 . S
H1834 C1848 0.960 . S
H1835 C1848 0.960 . S
C1836 H1828 0.929 . S
C1836 C1837 1.377 . S
C1836 C1838 1.384 . S
C1837 C1836 1.377 . S
C1837 C1843 1.390 . S
C1838 H1829 0.930 . S
C1838 C1836 1.384 . S
C1838 C1839 1.372 . S
C1839 C1838 1.372 . S
C1839 C1840 1.400 . S
C1839 C1844 1.490 . S
C1840 H1830 0.930 . S
C1840 C1839 1.400 . S
C1840 C1843 1.386 . S
H1841 C1857 0.930 . S
H1842 C1858 0.931 . S
C1843 H1831 0.929 . S
C1843 C1837 1.390 . S
C1843 C1840 1.386 . S
C1844 C1839 1.490 . S
C1844 C1846 1.395 . S
C1844 C1847 1.403 . S
H1845 C1851 0.930 . S
C1846 H1832 0.930 . S
C1846 C1844 1.395 . S
C1846 C1849 1.403 . S
C1847 C1844 1.403 . S
C1847 C1848 1.524 . S
C1847 C1851 1.400 . S
C1848 H1833 0.960 . S
C1848 H1834 0.960 . S
C1848 H1835 0.960 . S
C1848 C1847 1.524 . S
C1849 C1846 1.403 . S
C1849 C1850 1.392 . S
C1849 C1853 1.495 . S
C1850 C1849 1.392 . S
C1850 C1851 1.385 . S
C1850 C1852 1.478 . S
C1851 H1845 0.930 . S
C1851 C1847 1.400 . S
C1851 C1850 1.385 . S
C1852 C1850 1.478 . S
C1852 C1854 1.381 . S
C1852 C1858 1.383 . S
C1853 C1849 1.495 . S
C1853 H1859 0.959 . S
C1853 H1860 0.961 . S
C1853 H1861 0.960 . S
C1854 C1852 1.381 . S
C1854 C1855 1.394 . S
C1854 H1862 0.930 . S
C1855 C1854 1.394 . S
C1855 C1856 1.383 . S
C1855 H1863 0.929 . S
C1856 C1855 1.383 . S
C1856 C1857 1.377 . S
C1857 H1841 0.930 . S
C1857 C1856 1.377 . S
C1857 C1858 1.379 . S
C1858 H1842 0.931 . S
C1858 C1852 1.383 . S
C1858 C1857 1.379 . S
H1859 C1853 0.959 . S
H1860 C1853 0.961 . S
H1861 C1853 0.960 . S
H1862 C1854 0.930 . S
H1863 C1855 0.929 . S
H1864 C1872 0.929 . S
H1865 C1874 0.930 . S
H1866 C1876 0.930 . S
H1867 C1879 0.929 . S
H1868 C1882 0.930 . S
H1869 C1884 0.960 . S
H1870 C1884 0.960 . S
H1871 C1884 0.960 . S
C1872 H1864 0.929 . S
C1872 C1873 1.377 . S
C1872 C1874 1.384 . S
C1873 C1872 1.377 . S
C1873 C1879 1.390 . S
C1874 H1865 0.930 . S
C1874 C1872 1.384 . S
C1874 C1875 1.372 . S
C1875 C1874 1.372 . S
C1875 C1876 1.400 . S
C1875 C1880 1.490 . S
C1876 H1866 0.930 . S
C1876 C1875 1.400 . S
C1876 C1879 1.386 . S
H1877 C1893 0.930 . S
H1878 C1894 0.931 . S
C1879 H1867 0.929 . S
C1879 C1873 1.390 . S
C1879 C1876 1.386 . S
C1880 C1875 1.490 . S
C1880 C1882 1.395 . S
C1880 C1883 1.403 . S
H1881 C1887 0.930 . S
C1882 H1868 0.930 . S
C1882 C1880 1.395 . S
C1882 C1885 1.403 . S
C1883 C1880 1.403 . S
C1883 C1884 1.524 . S
C1883 C1887 1.400 . S
C1884 H1869 0.960 . S
C1884 H1870 0.960 . S
C1884 H1871 0.960 . S
C1884 C1883 1.524 . S
C1885 C1882 1.403 . S
C1885 C1886 1.392 . S
C1885 C1889 1.495 . S
C1886 C1885 1.392 . S
C1886 C1887 1.385 . S
C1886 C1888 1.478 . S
C1887 H1881 0.930 . S
C1887 C1883 1.400 . S
C1887 C1886 1.385 . S
C1888 C1886 1.478 . S
C1888 C1890 1.381 . S
C1888 C1894 1.383 . S
C1889 C1885 1.495 . S
C1889 H1895 0.959 . S
C1889 H1896 0.961 . S
C1889 H1897 0.960 . S
C1890 C1888 1.381 . S
C1890 C1891 1.394 . S
C1890 H1898 0.930 . S
C1891 C1890 1.394 . S
C1891 C1892 1.383 . S
C1891 H1899 0.929 . S
C1892 C1891 1.383 . S
C1892 C1893 1.377 . S
C1893 H1877 0.930 . S
C1893 C1892 1.377 . S
C1893 C1894 1.379 . S
C1894 H1878 0.931 . S
C1894 C1888 1.383 . S
C1894 C1893 1.379 . S
H1895 C1889 0.959 . S
H1896 C1889 0.961 . S
H1897 C1889 0.960 . S
H1898 C1890 0.930 . S
H1899 C1891 0.929 . S
H1900 C1908 0.929 . S
H1901 C1910 0.930 . S
H1902 C1912 0.930 . S
H1903 C1915 0.929 . S
H1904 C1918 0.930 . S
H1905 C1920 0.960 . S
H1906 C1920 0.960 . S
H1907 C1920 0.960 . S
C1908 H1900 0.929 . S
C1908 C1909 1.377 . S
C1908 C1910 1.384 . S
C1909 C1908 1.377 . S
C1909 C1915 1.390 . S
C1910 H1901 0.930 . S
C1910 C1908 1.384 . S
C1910 C1911 1.372 . S
C1911 C1910 1.372 . S
C1911 C1912 1.400 . S
C1911 C1916 1.490 . S
C1912 H1902 0.930 . S
C1912 C1911 1.400 . S
C1912 C1915 1.386 . S
H1913 C1929 0.930 . S
H1914 C1930 0.931 . S
C1915 H1903 0.929 . S
C1915 C1909 1.390 . S
C1915 C1912 1.386 . S
C1916 C1911 1.490 . S
C1916 C1918 1.395 . S
C1916 C1919 1.403 . S
H1917 C1923 0.930 . S
C1918 H1904 0.930 . S
C1918 C1916 1.395 . S
C1918 C1921 1.403 . S
C1919 C1916 1.403 . S
C1919 C1920 1.524 . S
C1919 C1923 1.400 . S
C1920 H1905 0.960 . S
C1920 H1906 0.960 . S
C1920 H1907 0.960 . S
C1920 C1919 1.524 . S
C1921 C1918 1.403 . S
C1921 C1922 1.392 . S
C1921 C1925 1.495 . S
C1922 C1921 1.392 . S
C1922 C1923 1.385 . S
C1922 C1924 1.478 . S
C1923 H1917 0.930 . S
C1923 C1919 1.400 . S
C1923 C1922 1.385 . S
C1924 C1922 1.478 . S
C1924 C1926 1.381 . S
C1924 C1930 1.383 . S
C1925 C1921 1.495 . S
C1925 H1931 0.959 . S
C1925 H1932 0.961 . S
C1925 H1933 0.960 . S
C1926 C1924 1.381 . S
C1926 C1927 1.394 . S
C1926 H1934 0.930 . S
C1927 C1926 1.394 . S
C1927 C1928 1.383 . S
C1927 H1935 0.929 . S
C1928 C1927 1.383 . S
C1928 C1929 1.377 . S
C1929 H1913 0.930 . S
C1929 C1928 1.377 . S
C1929 C1930 1.379 . S
C1930 H1914 0.931 . S
C1930 C1924 1.383 . S
C1930 C1929 1.379 . S
H1931 C1925 0.959 . S
H1932 C1925 0.961 . S
H1933 C1925 0.960 . S
H1934 C1926 0.930 . S
H1935 C1927 0.929 . S
H1936 C1944 0.929 . S
H1937 C1946 0.930 . S
H1938 C1948 0.930 . S
H1939 C1951 0.929 . S
H1940 C1954 0.930 . S
H1941 C1956 0.960 . S
H1942 C1956 0.960 . S
H1943 C1956 0.960 . S
C1944 H1936 0.929 . S
C1944 C1945 1.377 . S
C1944 C1946 1.384 . S
C1945 C1944 1.377 . S
C1945 C1951 1.390 . S
C1946 H1937 0.930 . S
C1946 C1944 1.384 . S
C1946 C1947 1.372 . S
C1947 C1946 1.372 . S
C1947 C1948 1.400 . S
C1947 C1952 1.490 . S
C1948 H1938 0.930 . S
C1948 C1947 1.400 . S
C1948 C1951 1.386 . S
H1949 C1965 0.930 . S
H1950 C1966 0.931 . S
C1951 H1939 0.929 . S
C1951 C1945 1.390 . S
C1951 C1948 1.386 . S
C1952 C1947 1.490 . S
C1952 C1954 1.395 . S
C1952 C1955 1.403 . S
H1953 C1959 0.930 . S
C1954 H1940 0.930 . S
C1954 C1952 1.395 . S
C1954 C1957 1.403 . S
C1955 C1952 1.403 . S
C1955 C1956 1.524 . S
C1955 C1959 1.400 . S
C1956 H1941 0.960 . S
C1956 H1942 0.960 . S
C1956 H1943 0.960 . S
C1956 C1955 1.524 . S
C1957 C1954 1.403 . S
C1957 C1958 1.392 . S
C1957 C1961 1.495 . S
C1958 C1957 1.392 . S
C1958 C1959 1.385 . S
C1958 C1960 1.478 . S
C1959 H1953 0.930 . S
C1959 C1955 1.400 . S
C1959 C1958 1.385 . S
C1960 C1958 1.478 . S
C1960 C1962 1.381 . S
C1960 C1966 1.383 . S
C1961 C1957 1.495 . S
C1961 H1967 0.959 . S
C1961 H1968 0.961 . S
C1961 H1969 0.960 . S
C1962 C1960 1.381 . S
C1962 C1963 1.394 . S
C1962 H1970 0.930 . S
C1963 C1962 1.394 . S
C1963 C1964 1.383 . S
C1963 H1971 0.929 . S
C1964 C1963 1.383 . S
C1964 C1965 1.377 . S
C1965 H1949 0.930 . S
C1965 C1964 1.377 . S
C1965 C1966 1.379 . S
C1966 H1950 0.931 . S
C1966 C1960 1.383 . S
C1966 C1965 1.379 . S
H1967 C1961 0.959 . S
H1968 C1961 0.961 . S
H1969 C1961 0.960 . S
H1970 C1962 0.930 . S
H1971 C1963 0.929 . S
H1972 C1980 0.929 . S
H1973 C1982 0.930 . S
H1974 C1984 0.930 . S
H1975 C1987 0.929 . S
H1976 C1990 0.930 . S
H1977 C1992 0.960 . S
H1978 C1992 0.960 . S
H1979 C1992 0.960 . S
C1980 H1972 0.929 . S
C1980 C1981 1.377 . S
C1980 C1982 1.384 . S
C1981 C1980 1.377 . S
C1981 C1987 1.390 . S
C1982 H1973 0.930 . S
C1982 C1980 1.384 . S
C1982 C1983 1.372 . S
C1983 C1982 1.372 . S
C1983 C1984 1.400 . S
C1983 C1988 1.490 . S
C1984 H1974 0.930 . S
C1984 C1983 1.400 . S
C1984 C1987 1.386 . S
H1985 C2001 0.930 . S
H1986 C2002 0.931 . S
C1987 H1975 0.929 . S
C1987 C1981 1.390 . S
C1987 C1984 1.386 . S
C1988 C1983 1.490 . S
C1988 C1990 1.395 . S
C1988 C1991 1.403 . S
H1989 C1995 0.930 . S
C1990 H1976 0.930 . S
C1990 C1988 1.395 . S
C1990 C1993 1.403 . S
C1991 C1988 1.403 . S
C1991 C1992 1.524 . S
C1991 C1995 1.400 . S
C1992 H1977 0.960 . S
C1992 H1978 0.960 . S
C1992 H1979 0.960 . S
C1992 C1991 1.524 . S
C1993 C1990 1.403 . S
C1993 C1994 1.392 . S
C1993 C1997 1.495 . S
C1994 C1993 1.392 . S
C1994 C1995 1.385 . S
C1994 C1996 1.478 . S
C1995 H1989 0.930 . S
C1995 C1991 1.400 . S
C1995 C1994 1.385 . S
C1996 C1994 1.478 . S
C1996 C1998 1.381 . S
C1996 C2002 1.383 . S
C1997 C1993 1.495 . S
C1997 H2003 0.959 . S
C1997 H2004 0.961 . S
C1997 H2005 0.960 . S
C1998 C1996 1.381 . S
C1998 C1999 1.394 . S
C1998 H2006 0.930 . S
C1999 C1998 1.394 . S
C1999 C2000 1.383 . S
C1999 H2007 0.929 . S
C2000 C1999 1.383 . S
C2000 C2001 1.377 . S
C2001 H1985 0.930 . S
C2001 C2000 1.377 . S
C2001 C2002 1.379 . S
C2002 H1986 0.931 . S
C2002 C1996 1.383 . S
C2002 C2001 1.379 . S
H2003 C1997 0.959 . S
H2004 C1997 0.961 . S
H2005 C1997 0.960 . S
H2006 C1998 0.930 . S
H2007 C1999 0.929 . S
H2008 C2016 0.929 . S
H2009 C2018 0.930 . S
H2010 C2020 0.930 . S
H2011 C2023 0.929 . S
H2012 C2026 0.930 . S
H2013 C2028 0.960 . S
H2014 C2028 0.960 . S
H2015 C2028 0.960 . S
C2016 H2008 0.929 . S
C2016 C2017 1.377 . S
C2016 C2018 1.384 . S
C2017 C2016 1.377 . S
C2017 C2023 1.390 . S
C2018 H2009 0.930 . S
C2018 C2016 1.384 . S
C2018 C2019 1.372 . S
C2019 C2018 1.372 . S
C2019 C2020 1.400 . S
C2019 C2024 1.490 . S
C2020 H2010 0.930 . S
C2020 C2019 1.400 . S
C2020 C2023 1.386 . S
H2021 C2037 0.930 . S
H2022 C2038 0.931 . S
C2023 H2011 0.929 . S
C2023 C2017 1.390 . S
C2023 C2020 1.386 . S
C2024 C2019 1.490 . S
C2024 C2026 1.395 . S
C2024 C2027 1.403 . S
H2025 C2031 0.930 . S
C2026 H2012 0.930 . S
C2026 C2024 1.395 . S
C2026 C2029 1.403 . S
C2027 C2024 1.403 . S
C2027 C2028 1.524 . S
C2027 C2031 1.400 . S
C2028 H2013 0.960 . S
C2028 H2014 0.960 . S
C2028 H2015 0.960 . S
C2028 C2027 1.524 . S
C2029 C2026 1.403 . S
C2029 C2030 1.392 . S
C2029 C2033 1.495 . S
C2030 C2029 1.392 . S
C2030 C2031 1.385 . S
C2030 C2032 1.478 . S
C2031 H2025 0.930 . S
C2031 C2027 1.400 . S
C2031 C2030 1.385 . S
C2032 C2030 1.478 . S
C2032 C2034 1.381 . S
C2032 C2038 1.383 . S
C2033 C2029 1.495 . S
C2033 H2039 0.959 . S
C2033 H2040 0.961 . S
C2033 H2041 0.960 . S
C2034 C2032 1.381 . S
C2034 C2035 1.394 . S
C2034 H2042 0.930 . S
C2035 C2034 1.394 . S
C2035 C2036 1.383 . S
C2035 H2043 0.929 . S
C2036 C2035 1.383 . S
C2036 C2037 1.377 . S
C2037 H2021 0.930 . S
C2037 C2036 1.377 . S
C2037 C2038 1.379 . S
C2038 H2022 0.931 . S
C2038 C2032 1.383 . S
C2038 C2037 1.379 . S
H2039 C2033 0.959 . S
H2040 C2033 0.961 . S
H2041 C2033 0.960 . S
H2042 C2034 0.930 . S
H2043 C2035 0.929 . S
H2044 C2052 0.929 . S
H2045 C2054 0.930 . S
H2046 C2056 0.930 . S
H2047 C2059 0.929 . S
H2048 C2062 0.930 . S
H2049 C2064 0.960 . S
H2050 C2064 0.960 . S
H2051 C2064 0.960 . S
C2052 H2044 0.929 . S
C2052 C2053 1.377 . S
C2052 C2054 1.384 . S
C2053 C2052 1.377 . S
C2053 C2059 1.390 . S
C2054 H2045 0.930 . S
C2054 C2052 1.384 . S
C2054 C2055 1.372 . S
C2055 C2054 1.372 . S
C2055 C2056 1.400 . S
C2055 C2060 1.490 . S
C2056 H2046 0.930 . S
C2056 C2055 1.400 . S
C2056 C2059 1.386 . S
H2057 C2073 0.930 . S
H2058 C2074 0.931 . S
C2059 H2047 0.929 . S
C2059 C2053 1.390 . S
C2059 C2056 1.386 . S
C2060 C2055 1.490 . S
C2060 C2062 1.395 . S
C2060 C2063 1.403 . S
H2061 C2067 0.930 . S
C2062 H2048 0.930 . S
C2062 C2060 1.395 . S
C2062 C2065 1.403 . S
C2063 C2060 1.403 . S
C2063 C2064 1.524 . S
C2063 C2067 1.400 . S
C2064 H2049 0.960 . S
C2064 H2050 0.960 . S
C2064 H2051 0.960 . S
C2064 C2063 1.524 . S
C2065 C2062 1.403 . S
C2065 C2066 1.392 . S
C2065 C2069 1.495 . S
C2066 C2065 1.392 . S
C2066 C2067 1.385 . S
C2066 C2068 1.478 . S
C2067 H2061 0.930 . S
C2067 C2063 1.400 . S
C2067 C2066 1.385 . S
C2068 C2066 1.478 . S
C2068 C2070 1.381 . S
C2068 C2074 1.383 . S
C2069 C2065 1.495 . S
C2069 H2075 0.959 . S
C2069 H2076 0.961 . S
C2069 H2077 0.960 . S
C2070 C2068 1.381 . S
C2070 C2071 1.394 . S
C2070 H2078 0.930 . S
C2071 C2070 1.394 . S
C2071 C2072 1.383 . S
C2071 H2079 0.929 . S
C2072 C2071 1.383 . S
C2072 C2073 1.377 . S
C2073 H2057 0.930 . S
C2073 C2072 1.377 . S
C2073 C2074 1.379 . S
C2074 H2058 0.931 . S
C2074 C2068 1.383 . S
C2074 C2073 1.379 . S
H2075 C2069 0.959 . S
H2076 C2069 0.961 . S
H2077 C2069 0.960 . S
H2078 C2070 0.930 . S
H2079 C2071 0.929 . S
H2080 C2088 0.929 . S
H2081 C2090 0.930 . S
H2082 C2092 0.930 . S
H2083 C2095 0.929 . S
H2084 C2098 0.930 . S
H2085 C2100 0.960 . S
H2086 C2100 0.960 . S
H2087 C2100 0.960 . S
C2088 H2080 0.929 . S
C2088 C2089 1.377 . S
C2088 C2090 1.384 1_556 S
C2089 C2088 1.377 . S
C2089 C2095 1.390 . S
C2090 H2081 0.930 . S
C2090 C2088 1.384 1_554 S
C2090 C2091 1.372 . S
C2091 C2090 1.372 . S
C2091 C2092 1.400 . S
C2091 C2096 1.490 . S
C2092 H2082 0.930 . S
C2092 C2091 1.400 . S
C2092 C2095 1.386 1_554 S
H2093 C2109 0.930 . S
H2094 C2110 0.931 . S
C2095 H2083 0.929 . S
C2095 C2089 1.390 . S
C2095 C2092 1.386 1_556 S
C2096 C2091 1.490 . S
C2096 C2098 1.395 . S
C2096 C2099 1.403 . S
H2097 C2103 0.930 . S
C2098 H2084 0.930 . S
C2098 C2096 1.395 . S
C2098 C2101 1.403 . S
C2099 C2096 1.403 . S
C2099 C2100 1.524 . S
C2099 C2103 1.400 . S
C2100 H2085 0.960 . S
C2100 H2086 0.960 . S
C2100 H2087 0.960 . S
C2100 C2099 1.524 . S
C2101 C2098 1.403 . S
C2101 C2102 1.392 . S
C2101 C2105 1.495 . S
C2102 C2101 1.392 . S
C2102 C2103 1.385 . S
C2102 C2104 1.478 . S
C2103 H2097 0.930 . S
C2103 C2099 1.400 . S
C2103 C2102 1.385 . S
C2104 C2102 1.478 . S
C2104 C2106 1.381 . S
C2104 C2110 1.383 . S
C2105 C2101 1.495 . S
C2105 H2111 0.959 . S
C2105 H2112 0.961 . S
C2105 H2113 0.960 . S
C2106 C2104 1.381 . S
C2106 C2107 1.394 . S
C2106 H2114 0.930 . S
C2107 C2106 1.394 . S
C2107 C2108 1.383 . S
C2107 H2115 0.929 . S
C2108 C2107 1.383 . S
C2108 C2109 1.377 . S
C2109 H2093 0.930 . S
C2109 C2108 1.377 . S
C2109 C2110 1.379 . S
C2110 H2094 0.931 . S
C2110 C2104 1.383 . S
C2110 C2109 1.379 . S
H2111 C2105 0.959 . S
H2112 C2105 0.961 . S
H2113 C2105 0.960 . S
H2114 C2106 0.930 . S
H2115 C2107 0.929 . S
H2116 C2124 0.929 . S
H2117 C2126 0.930 . S
H2118 C2128 0.930 . S
H2119 C2131 0.929 . S
H2120 C2134 0.930 . S
H2121 C2136 0.960 . S
H2122 C2136 0.960 . S
H2123 C2136 0.960 . S
C2124 H2116 0.929 . S
C2124 C2125 1.377 . S
C2124 C2126 1.384 . S
C2125 C2124 1.377 . S
C2125 C2131 1.390 . S
C2126 H2117 0.930 . S
C2126 C2124 1.384 . S
C2126 C2127 1.372 . S
C2127 C2126 1.372 . S
C2127 C2128 1.400 . S
C2127 C2132 1.490 . S
C2128 H2118 0.930 . S
C2128 C2127 1.400 . S
C2128 C2131 1.386 . S
H2129 C2145 0.930 . S
H2130 C2146 0.931 . S
C2131 H2119 0.929 . S
C2131 C2125 1.390 . S
C2131 C2128 1.386 . S
C2132 C2127 1.490 . S
C2132 C2134 1.395 . S
C2132 C2135 1.403 . S
H2133 C2139 0.930 . S
C2134 H2120 0.930 . S
C2134 C2132 1.395 . S
C2134 C2137 1.403 . S
C2135 C2132 1.403 . S
C2135 C2136 1.524 . S
C2135 C2139 1.400 . S
C2136 H2121 0.960 . S
C2136 H2122 0.960 . S
C2136 H2123 0.960 . S
C2136 C2135 1.524 . S
C2137 C2134 1.403 . S
C2137 C2138 1.392 . S
C2137 C2141 1.495 . S
C2138 C2137 1.392 . S
C2138 C2139 1.385 . S
C2138 C2140 1.478 . S
C2139 H2133 0.930 . S
C2139 C2135 1.400 . S
C2139 C2138 1.385 . S
C2140 C2138 1.478 . S
C2140 C2142 1.381 . S
C2140 C2146 1.383 . S
C2141 C2137 1.495 . S
C2141 H2147 0.959 . S
C2141 H2148 0.961 . S
C2141 H2149 0.960 . S
C2142 C2140 1.381 . S
C2142 C2143 1.394 1_556 S
C2142 H2150 0.930 . S
C2143 C2142 1.394 1_554 S
C2143 C2144 1.383 . S
C2143 H2151 0.929 . S
C2144 C2143 1.383 . S
C2144 C2145 1.377 . S
C2145 H2129 0.930 . S
C2145 C2144 1.377 . S
C2145 C2146 1.379 1_554 S
C2146 H2130 0.931 . S
C2146 C2140 1.383 . S
C2146 C2145 1.379 1_556 S
H2147 C2141 0.959 . S
H2148 C2141 0.961 . S
H2149 C2141 0.960 . S
H2150 C2142 0.930 . S
H2151 C2143 0.929 . S
H2152 C2160 0.929 . S
H2153 C2162 0.930 . S
H2154 C2164 0.930 . S
H2155 C2167 0.929 . S
H2156 C2170 0.930 . S
H2157 C2172 0.960 . S
H2158 C2172 0.960 . S
H2159 C2172 0.960 . S
C2160 H2152 0.929 . S
C2160 C2161 1.377 . S
C2160 C2162 1.384 . S
C2161 C2160 1.377 . S
C2161 C2167 1.390 . S
C2162 H2153 0.930 . S
C2162 C2160 1.384 . S
C2162 C2163 1.372 . S
C2163 C2162 1.372 . S
C2163 C2164 1.400 . S
C2163 C2168 1.490 . S
C2164 H2154 0.930 . S
C2164 C2163 1.400 . S
C2164 C2167 1.386 . S
H2165 C2181 0.930 . S
H2166 C2182 0.931 . S
C2167 H2155 0.929 . S
C2167 C2161 1.390 . S
C2167 C2164 1.386 . S
C2168 C2163 1.490 . S
C2168 C2170 1.395 . S
C2168 C2171 1.403 . S
H2169 C2175 0.930 . S
C2170 H2156 0.930 . S
C2170 C2168 1.395 . S
C2170 C2173 1.403 . S
C2171 C2168 1.403 . S
C2171 C2172 1.524 . S
C2171 C2175 1.400 . S
C2172 H2157 0.960 . S
C2172 H2158 0.960 . S
C2172 H2159 0.960 . S
C2172 C2171 1.524 . S
C2173 C2170 1.403 . S
C2173 C2174 1.392 . S
C2173 C2177 1.495 . S
C2174 C2173 1.392 . S
C2174 C2175 1.385 . S
C2174 C2176 1.478 . S
C2175 H2169 0.930 . S
C2175 C2171 1.400 . S
C2175 C2174 1.385 . S
C2176 C2174 1.478 . S
C2176 C2178 1.381 . S
C2176 C2182 1.383 . S
C2177 C2173 1.495 . S
C2177 H2183 0.959 . S
C2177 H2184 0.961 . S
C2177 H2185 0.960 . S
C2178 C2176 1.381 . S
C2178 C2179 1.394 1_554 S
C2178 H2186 0.930 . S
C2179 C2178 1.394 1_556 S
C2179 C2180 1.383 . S
C2179 H2187 0.929 . S
C2180 C2179 1.383 . S
C2180 C2181 1.377 . S
C2181 H2165 0.930 . S
C2181 C2180 1.377 . S
C2181 C2182 1.379 1_556 S
C2182 H2166 0.931 . S
C2182 C2176 1.383 . S
C2182 C2181 1.379 1_554 S
H2183 C2177 0.959 . S
H2184 C2177 0.961 . S
H2185 C2177 0.960 . S
H2186 C2178 0.930 . S
H2187 C2179 0.929 . S
H2188 C2196 0.929 . S
H2189 C2198 0.930 . S
H2190 C2200 0.930 . S
H2191 C2203 0.929 . S
H2192 C2206 0.930 . S
H2193 C2208 0.960 . S
H2194 C2208 0.960 . S
H2195 C2208 0.960 . S
C2196 H2188 0.929 . S
C2196 C2197 1.377 . S
C2196 C2198 1.384 1_554 S
C2197 C2196 1.377 . S
C2197 C2203 1.390 . S
C2198 H2189 0.930 . S
C2198 C2196 1.384 1_556 S
C2198 C2199 1.372 . S
C2199 C2198 1.372 . S
C2199 C2200 1.400 . S
C2199 C2204 1.490 . S
C2200 H2190 0.930 . S
C2200 C2199 1.400 . S
C2200 C2203 1.386 1_556 S
H2201 C2217 0.930 . S
H2202 C2218 0.931 . S
C2203 H2191 0.929 . S
C2203 C2197 1.390 . S
C2203 C2200 1.386 1_554 S
C2204 C2199 1.490 . S
C2204 C2206 1.395 . S
C2204 C2207 1.403 . S
H2205 C2211 0.930 . S
C2206 H2192 0.930 . S
C2206 C2204 1.395 . S
C2206 C2209 1.403 . S
C2207 C2204 1.403 . S
C2207 C2208 1.524 . S
C2207 C2211 1.400 . S
C2208 H2193 0.960 . S
C2208 H2194 0.960 . S
C2208 H2195 0.960 . S
C2208 C2207 1.524 . S
C2209 C2206 1.403 . S
C2209 C2210 1.392 . S
C2209 C2213 1.495 . S
C2210 C2209 1.392 . S
C2210 C2211 1.385 . S
C2210 C2212 1.478 . S
C2211 H2205 0.930 . S
C2211 C2207 1.400 . S
C2211 C2210 1.385 . S
C2212 C2210 1.478 . S
C2212 C2214 1.381 . S
C2212 C2218 1.383 . S
C2213 C2209 1.495 . S
C2213 H2219 0.959 . S
C2213 H2220 0.961 . S
C2213 H2221 0.960 . S
C2214 C2212 1.381 . S
C2214 C2215 1.394 . S
C2214 H2222 0.930 . S
C2215 C2214 1.394 . S
C2215 C2216 1.383 . S
C2215 H2223 0.929 . S
C2216 C2215 1.383 . S
C2216 C2217 1.377 . S
C2217 H2201 0.930 . S
C2217 C2216 1.377 . S
C2217 C2218 1.379 . S
C2218 H2202 0.931 . S
C2218 C2212 1.383 . S
C2218 C2217 1.379 . S
H2219 C2213 0.959 . S
H2220 C2213 0.961 . S
H2221 C2213 0.960 . S
H2222 C2214 0.930 . S
H2223 C2215 0.929 . S
H2224 C2232 0.929 . S
H2225 C2234 0.930 . S
H2226 C2236 0.930 . S
H2227 C2239 0.929 . S
H2228 C2242 0.930 . S
H2229 C2244 0.960 . S
H2230 C2244 0.960 . S
H2231 C2244 0.960 . S
C2232 H2224 0.929 . S
C2232 C2233 1.377 . S
C2232 C2234 1.384 . S
C2233 C2232 1.377 . S
C2233 C2239 1.390 . S
C2234 H2225 0.930 . S
C2234 C2232 1.384 . S
C2234 C2235 1.372 . S
C2235 C2234 1.372 . S
C2235 C2236 1.400 . S
C2235 C2240 1.490 . S
C2236 H2226 0.930 . S
C2236 C2235 1.400 . S
C2236 C2239 1.386 . S
H2237 C2253 0.930 . S
H2238 C2254 0.931 . S
C2239 H2227 0.929 . S
C2239 C2233 1.390 . S
C2239 C2236 1.386 . S
C2240 C2235 1.490 . S
C2240 C2242 1.395 . S
C2240 C2243 1.403 . S
H2241 C2247 0.930 . S
C2242 H2228 0.930 . S
C2242 C2240 1.395 . S
C2242 C2245 1.403 . S
C2243 C2240 1.403 . S
C2243 C2244 1.524 . S
C2243 C2247 1.400 . S
C2244 H2229 0.960 . S
C2244 H2230 0.960 . S
C2244 H2231 0.960 . S
C2244 C2243 1.524 . S
C2245 C2242 1.403 . S
C2245 C2246 1.392 . S
C2245 C2249 1.495 . S
C2246 C2245 1.392 . S
C2246 C2247 1.385 . S
C2246 C2248 1.478 . S
C2247 H2241 0.930 . S
C2247 C2243 1.400 . S
C2247 C2246 1.385 . S
C2248 C2246 1.478 . S
C2248 C2250 1.381 . S
C2248 C2254 1.383 . S
C2249 C2245 1.495 . S
C2249 H2255 0.959 . S
C2249 H2256 0.961 . S
C2249 H2257 0.960 . S
C2250 C2248 1.381 . S
C2250 C2251 1.394 1_554 S
C2250 H2258 0.930 . S
C2251 C2250 1.394 1_556 S
C2251 C2252 1.383 . S
C2251 H2259 0.929 . S
C2252 C2251 1.383 . S
C2252 C2253 1.377 . S
C2253 H2237 0.930 . S
C2253 C2252 1.377 . S
C2253 C2254 1.379 1_556 S
C2254 H2238 0.931 . S
C2254 C2248 1.383 . S
C2254 C2253 1.379 1_554 S
H2255 C2249 0.959 . S
H2256 C2249 0.961 . S
H2257 C2249 0.960 . S
H2258 C2250 0.930 . S
H2259 C2251 0.929 . S
H2260 C2268 0.929 . S
H2261 C2270 0.930 . S
H2262 C2272 0.930 . S
H2263 C2275 0.929 . S
H2264 C2278 0.930 . S
H2265 C2280 0.960 . S
H2266 C2280 0.960 . S
H2267 C2280 0.960 . S
C2268 H2260 0.929 . S
C2268 C2269 1.377 . S
C2268 C2270 1.384 1_554 S
C2269 C2268 1.377 . S
C2269 C2275 1.390 . S
C2270 H2261 0.930 . S
C2270 C2268 1.384 1_556 S
C2270 C2271 1.372 . S
C2271 C2270 1.372 . S
C2271 C2272 1.400 . S
C2271 C2276 1.490 . S
C2272 H2262 0.930 . S
C2272 C2271 1.400 . S
C2272 C2275 1.386 1_556 S
H2273 C2289 0.930 . S
H2274 C2290 0.931 . S
C2275 H2263 0.929 . S
C2275 C2269 1.390 . S
C2275 C2272 1.386 1_554 S
C2276 C2271 1.490 . S
C2276 C2278 1.395 . S
C2276 C2279 1.403 . S
H2277 C2283 0.930 . S
C2278 H2264 0.930 . S
C2278 C2276 1.395 . S
C2278 C2281 1.403 . S
C2279 C2276 1.403 . S
C2279 C2280 1.524 . S
C2279 C2283 1.400 . S
C2280 H2265 0.960 . S
C2280 H2266 0.960 . S
C2280 H2267 0.960 . S
C2280 C2279 1.524 . S
C2281 C2278 1.403 . S
C2281 C2282 1.392 . S
C2281 C2285 1.495 . S
C2282 C2281 1.392 . S
C2282 C2283 1.385 . S
C2282 C2284 1.478 . S
C2283 H2277 0.930 . S
C2283 C2279 1.400 . S
C2283 C2282 1.385 . S
C2284 C2282 1.478 . S
C2284 C2286 1.381 . S
C2284 C2290 1.383 . S
C2285 C2281 1.495 . S
C2285 H2291 0.959 . S
C2285 H2292 0.961 . S
C2285 H2293 0.960 . S
C2286 C2284 1.381 . S
C2286 C2287 1.394 . S
C2286 H2294 0.930 . S
C2287 C2286 1.394 . S
C2287 C2288 1.383 . S
C2287 H2295 0.929 . S
C2288 C2287 1.383 . S
C2288 C2289 1.377 . S
C2289 H2273 0.930 . S
C2289 C2288 1.377 . S
C2289 C2290 1.379 . S
C2290 H2274 0.931 . S
C2290 C2284 1.383 . S
C2290 C2289 1.379 . S
H2291 C2285 0.959 . S
H2292 C2285 0.961 . S
H2293 C2285 0.960 . S
H2294 C2286 0.930 . S
H2295 C2287 0.929 . S
H2296 C2304 0.929 . S
H2297 C2306 0.930 . S
H2298 C2308 0.930 . S
H2299 C2311 0.929 . S
H2300 C2314 0.930 . S
H2301 C2316 0.960 . S
H2302 C2316 0.960 . S
H2303 C2316 0.960 . S
C2304 H2296 0.929 . S
C2304 C2305 1.377 . S
C2304 C2306 1.384 1_556 S
C2305 C2304 1.377 . S
C2305 C2311 1.390 . S
C2306 H2297 0.930 . S
C2306 C2304 1.384 1_554 S
C2306 C2307 1.372 . S
C2307 C2306 1.372 . S
C2307 C2308 1.400 . S
C2307 C2312 1.490 . S
C2308 H2298 0.930 . S
C2308 C2307 1.400 . S
C2308 C2311 1.386 1_554 S
H2309 C2325 0.930 . S
H2310 C2326 0.931 . S
C2311 H2299 0.929 . S
C2311 C2305 1.390 . S
C2311 C2308 1.386 1_556 S
C2312 C2307 1.490 . S
C2312 C2314 1.395 . S
C2312 C2315 1.403 . S
H2313 C2319 0.930 . S
C2314 H2300 0.930 . S
C2314 C2312 1.395 . S
C2314 C2317 1.403 . S
C2315 C2312 1.403 . S
C2315 C2316 1.524 . S
C2315 C2319 1.400 . S
C2316 H2301 0.960 . S
C2316 H2302 0.960 . S
C2316 H2303 0.960 . S
C2316 C2315 1.524 . S
C2317 C2314 1.403 . S
C2317 C2318 1.392 . S
C2317 C2321 1.495 . S
C2318 C2317 1.392 . S
C2318 C2319 1.385 . S
C2318 C2320 1.478 . S
C2319 H2313 0.930 . S
C2319 C2315 1.400 . S
C2319 C2318 1.385 . S
C2320 C2318 1.478 . S
C2320 C2322 1.381 . S
C2320 C2326 1.383 . S
C2321 C2317 1.495 . S
C2321 H2327 0.959 . S
C2321 H2328 0.961 . S
C2321 H2329 0.960 . S
C2322 C2320 1.381 . S
C2322 C2323 1.394 . S
C2322 H2330 0.930 . S
C2323 C2322 1.394 . S
C2323 C2324 1.383 . S
C2323 H2331 0.929 . S
C2324 C2323 1.383 . S
C2324 C2325 1.377 . S
C2325 H2309 0.930 . S
C2325 C2324 1.377 . S
C2325 C2326 1.379 . S
C2326 H2310 0.931 . S
C2326 C2320 1.383 . S
C2326 C2325 1.379 . S
H2327 C2321 0.959 . S
H2328 C2321 0.961 . S
H2329 C2321 0.960 . S
H2330 C2322 0.930 . S
H2331 C2323 0.929 . S
H2332 C2340 0.929 . S
H2333 C2342 0.930 . S
H2334 C2344 0.930 . S
H2335 C2347 0.929 . S
H2336 C2350 0.930 . S
H2337 C2352 0.960 . S
H2338 C2352 0.960 . S
H2339 C2352 0.960 . S
C2340 H2332 0.929 . S
C2340 C2341 1.377 . S
C2340 C2342 1.384 . S
C2341 C2340 1.377 . S
C2341 C2347 1.390 . S
C2342 H2333 0.930 . S
C2342 C2340 1.384 . S
C2342 C2343 1.372 . S
C2343 C2342 1.372 . S
C2343 C2344 1.400 . S
C2343 C2348 1.490 . S
C2344 H2334 0.930 . S
C2344 C2343 1.400 . S
C2344 C2347 1.386 . S
H2345 C2361 0.930 . S
H2346 C2362 0.931 . S
C2347 H2335 0.929 . S
C2347 C2341 1.390 . S
C2347 C2344 1.386 . S
C2348 C2343 1.490 . S
C2348 C2350 1.395 . S
C2348 C2351 1.403 . S
H2349 C2355 0.930 . S
C2350 H2336 0.930 . S
C2350 C2348 1.395 . S
C2350 C2353 1.403 . S
C2351 C2348 1.403 . S
C2351 C2352 1.524 . S
C2351 C2355 1.400 . S
C2352 H2337 0.960 . S
C2352 H2338 0.960 . S
C2352 H2339 0.960 . S
C2352 C2351 1.524 . S
C2353 C2350 1.403 . S
C2353 C2354 1.392 . S
C2353 C2357 1.495 . S
C2354 C2353 1.392 . S
C2354 C2355 1.385 . S
C2354 C2356 1.478 . S
C2355 H2349 0.930 . S
C2355 C2351 1.400 . S
C2355 C2354 1.385 . S
C2356 C2354 1.478 . S
C2356 C2358 1.381 . S
C2356 C2362 1.383 . S
C2357 C2353 1.495 . S
C2357 H2363 0.959 . S
C2357 H2364 0.961 . S
C2357 H2365 0.960 . S
C2358 C2356 1.381 . S
C2358 C2359 1.394 1_556 S
C2358 H2366 0.930 . S
C2359 C2358 1.394 1_554 S
C2359 C2360 1.383 . S
C2359 H2367 0.929 . S
C2360 C2359 1.383 . S
C2360 C2361 1.377 . S
C2361 H2345 0.930 . S
C2361 C2360 1.377 . S
C2361 C2362 1.379 1_554 S
C2362 H2346 0.931 . S
C2362 C2356 1.383 . S
C2362 C2361 1.379 1_556 S
H2363 C2357 0.959 . S
H2364 C2357 0.961 . S
H2365 C2357 0.960 . S
H2366 C2358 0.930 . S
H2367 C2359 0.929 . S
C649 C449 1.707 . S
C668 C8 1.677 . S
C685 C339 1.707 . S
C704 C58 1.707 . S
C721 C88 1.688 . S
C740 C369 1.689 . S
C757 C138 1.693 . S
C776 C419 1.689 . S
C793 C168 1.694 . S
C812 C209 1.712 . S
C829 C259 1.709 . S
C848 C218 1.666 . S
C865 C248 1.693 . S
C884 C289 1.710 . S
C901 C179 1.710 . S
C920 C298 1.693 . S
C937 C129 1.703 . S
C956 C328 1.666 . S
C973 C378 1.693 . S
C992 C19 1.689 . S
C1009 C49 1.703 . S
C1028 C408 1.669 . S
C1045 C99 1.705 . S
C1064 C458 1.669 . S
C1081 C488 1.690 . S
C1100 C529 1.712 . S
C1117 C579 1.709 . S
C1136 C538 1.699 . S
C1153 C609 1.710 . S
C1172 C568 1.701 . S
C1189 C618 1.694 . S
C1208 C499 1.702 . S
C1225 C18 1.164 . S
C1244 C178 1.202 . S
C1261 C208 1.173 . S
C1280 C48 1.194 . S
C1297 C98 1.158 . S
C1316 C258 1.186 . S
C1333 C128 1.165 . S
C1352 C288 1.159 . S
C1369 C338 1.168 . S
C1388 C498 1.191 . S
C1405 C528 1.159 . S
C1424 C368 1.128 . S
C1441 C418 1.175 . S
C1460 C578 1.138 . S
C1477 C448 1.173 . S
C1496 C608 1.193 . S
C1513 C569 2.243 . S
C1532 C9 2.246 . S
C1549 C59 2.241 . S
C1568 C619 2.245 . S
C1585 C89 2.240 . S
C1604 C489 2.229 . S
C1621 C139 2.243 . S
C1640 C539 2.232 . S
C1657 C169 2.239 . S
C1676 C409 2.229 . S
C1693 C219 2.240 . S
C1712 C459 2.230 . S
C1729 C249 2.241 . S
C1748 C329 2.241 . S
C1765 C379 2.239 . S
C1784 C299 2.242 . S
C1801 C15 1.019 . S
C1820 C5 1.016 . S
C1837 C45 1.019 . S
C1856 C55 1.017 . S
C1873 C95 1.019 . S
C1892 C85 1.018 . S
C1909 C135 1.019 . S
C1928 C125 1.017 . S
C1945 C165 1.019 . S
C1964 C175 1.017 . S
C1981 C205 1.019 . S
C2000 C215 1.017 . S
C2017 C255 1.019 . S
C2036 C245 1.016 . S
C2053 C295 1.019 . S
C2072 C285 1.017 . S
C2089 C335 1.019 . S
C2108 C325 1.018 . S
C2125 C375 1.019 . S
C2144 C365 1.016 . S
C2161 C405 1.019 . S
C2180 C415 1.018 . S
C2197 C445 1.019 . S
C2216 C455 1.018 . S
C2233 C495 1.019 . S
C2252 C485 1.018 . S
C2269 C535 1.019 . S
C2288 C525 1.019 . S
C2305 C565 1.019 . S
C2324 C575 1.017 . S
C2341 C605 1.019 . S
C2360 C615 1.017 . S
