# Generated by pormake.
# Topology whz, (6)-cn, num edge types: 1
# Building blocks:
#     Node 0, Type 0, BuildingBlock: CUWYAW_clean_sbu_0, # of connection points: 6
#     Node 1, Type 0, BuildingBlock: CUWYAW_clean_sbu_0, # of connection points: 6
#     Node 2, Type 0, BuildingBlock: CUWYAW_clean_sbu_0, # of connection points: 6
#     Node 3, Type 0, BuildingBlock: CUWYAW_clean_sbu_0, # of connection points: 6
#     Node 4, Type 0, BuildingBlock: CUWYAW_clean_sbu_0, # of connection points: 6
#     Node 5, Type 0, BuildingBlock: CUWYAW_clean_sbu_0, # of connection points: 6
#     Node 6, Type 0, BuildingBlock: CUWYAW_clean_sbu_0, # of connection points: 6
#     Node 7, Type 0, BuildingBlock: CUWYAW_clean_sbu_0, # of connection points: 6
#     Node 8, Type 0, BuildingBlock: CUWYAW_clean_sbu_0, # of connection points: 6
#     Node 9, Type 0, BuildingBlock: CUWYAW_clean_sbu_0, # of connection points: 6
#     Node 10, Type 0, BuildingBlock: CUWYAW_clean_sbu_0, # of connection points: 6
#     Node 11, Type 0, BuildingBlock: CUWYAW_clean_sbu_0, # of connection points: 6
#     Node 12, Type 0, BuildingBlock: CUWYAW_clean_sbu_0, # of connection points: 6
#     Node 13, Type 0, BuildingBlock: CUWYAW_clean_sbu_0, # of connection points: 6
#     Node 14, Type 0, BuildingBlock: CUWYAW_clean_sbu_0, # of connection points: 6
#     Node 15, Type 0, BuildingBlock: CUWYAW_clean_sbu_0, # of connection points: 6
#     Edge 16, Type (0, 0), BuildingBlock: XIVTED_clean_linker_0, # of connection points: 2
#     Edge 17, Type (0, 0), BuildingBlock: XIVTED_clean_linker_0, # of connection points: 2
#     Edge 18, Type (0, 0), BuildingBlock: XIVTED_clean_linker_0, # of connection points: 2
#     Edge 19, Type (0, 0), BuildingBlock: XIVTED_clean_linker_0, # of connection points: 2
#     Edge 20, Type (0, 0), BuildingBlock: XIVTED_clean_linker_0, # of connection points: 2
#     Edge 21, Type (0, 0), BuildingBlock: XIVTED_clean_linker_0, # of connection points: 2
#     Edge 22, Type (0, 0), BuildingBlock: XIVTED_clean_linker_0, # of connection points: 2
#     Edge 23, Type (0, 0), BuildingBlock: XIVTED_clean_linker_0, # of connection points: 2
#     Edge 24, Type (0, 0), BuildingBlock: XIVTED_clean_linker_0, # of connection points: 2
#     Edge 25, Type (0, 0), BuildingBlock: XIVTED_clean_linker_0, # of connection points: 2
#     Edge 26, Type (0, 0), BuildingBlock: XIVTED_clean_linker_0, # of connection points: 2
#     Edge 27, Type (0, 0), BuildingBlock: XIVTED_clean_linker_0, # of connection points: 2
#     Edge 28, Type (0, 0), BuildingBlock: XIVTED_clean_linker_0, # of connection points: 2
#     Edge 29, Type (0, 0), BuildingBlock: XIVTED_clean_linker_0, # of connection points: 2
#     Edge 30, Type (0, 0), BuildingBlock: XIVTED_clean_linker_0, # of connection points: 2
#     Edge 31, Type (0, 0), BuildingBlock: XIVTED_clean_linker_0, # of connection points: 2
#     Edge 32, Type (0, 0), BuildingBlock: XIVTED_clean_linker_0, # of connection points: 2
#     Edge 33, Type (0, 0), BuildingBlock: XIVTED_clean_linker_0, # of connection points: 2
#     Edge 34, Type (0, 0), BuildingBlock: XIVTED_clean_linker_0, # of connection points: 2
#     Edge 35, Type (0, 0), BuildingBlock: XIVTED_clean_linker_0, # of connection points: 2
#     Edge 36, Type (0, 0), BuildingBlock: XIVTED_clean_linker_0, # of connection points: 2
#     Edge 37, Type (0, 0), BuildingBlock: XIVTED_clean_linker_0, # of connection points: 2
#     Edge 38, Type (0, 0), BuildingBlock: XIVTED_clean_linker_0, # of connection points: 2
#     Edge 39, Type (0, 0), BuildingBlock: XIVTED_clean_linker_0, # of connection points: 2
#     Edge 40, Type (0, 0), BuildingBlock: XIVTED_clean_linker_0, # of connection points: 2
#     Edge 41, Type (0, 0), BuildingBlock: XIVTED_clean_linker_0, # of connection points: 2
#     Edge 42, Type (0, 0), BuildingBlock: XIVTED_clean_linker_0, # of connection points: 2
#     Edge 43, Type (0, 0), BuildingBlock: XIVTED_clean_linker_0, # of connection points: 2
#     Edge 44, Type (0, 0), BuildingBlock: XIVTED_clean_linker_0, # of connection points: 2
#     Edge 45, Type (0, 0), BuildingBlock: XIVTED_clean_linker_0, # of connection points: 2
#     Edge 46, Type (0, 0), BuildingBlock: XIVTED_clean_linker_0, # of connection points: 2
#     Edge 47, Type (0, 0), BuildingBlock: XIVTED_clean_linker_0, # of connection points: 2
#     Edge 48, Type (0, 0), BuildingBlock: XIVTED_clean_linker_0, # of connection points: 2
#     Edge 49, Type (0, 0), BuildingBlock: XIVTED_clean_linker_0, # of connection points: 2
#     Edge 50, Type (0, 0), BuildingBlock: XIVTED_clean_linker_0, # of connection points: 2
#     Edge 51, Type (0, 0), BuildingBlock: XIVTED_clean_linker_0, # of connection points: 2
#     Edge 52, Type (0, 0), BuildingBlock: XIVTED_clean_linker_0, # of connection points: 2
#     Edge 53, Type (0, 0), BuildingBlock: XIVTED_clean_linker_0, # of connection points: 2
#     Edge 54, Type (0, 0), BuildingBlock: XIVTED_clean_linker_0, # of connection points: 2
#     Edge 55, Type (0, 0), BuildingBlock: XIVTED_clean_linker_0, # of connection points: 2
#     Edge 56, Type (0, 0), BuildingBlock: XIVTED_clean_linker_0, # of connection points: 2
#     Edge 57, Type (0, 0), BuildingBlock: XIVTED_clean_linker_0, # of connection points: 2
#     Edge 58, Type (0, 0), BuildingBlock: XIVTED_clean_linker_0, # of connection points: 2
#     Edge 59, Type (0, 0), BuildingBlock: XIVTED_clean_linker_0, # of connection points: 2
#     Edge 60, Type (0, 0), BuildingBlock: XIVTED_clean_linker_0, # of connection points: 2
#     Edge 61, Type (0, 0), BuildingBlock: XIVTED_clean_linker_0, # of connection points: 2
#     Edge 62, Type (0, 0), BuildingBlock: XIVTED_clean_linker_0, # of connection points: 2
#     Edge 63, Type (0, 0), BuildingBlock: XIVTED_clean_linker_0, # of connection points: 2
# Relax obj value: 0.730
# Max RMSD: 0.312
# Mean RMSD: 0.312
data_MOF--net-whz--node1-CUWYAW_clean_sbu_0--edge1-XIVTED_clean_linker_0
_symmetry_space_group_name_H-M    P1
_symmetry_Int_Tables_number       1
_symmetry_cell_setting            triclinic
loop_
_symmetry_equiv_pos_as_xyz
'x, y, z'
_cell_length_a     34.791678
_cell_length_b     34.880825
_cell_length_c     72.574954
_cell_angle_alpha  89.90064
_cell_angle_beta   89.982321
_cell_angle_gamma 89.868868
loop_
_atom_site_label
_atom_site_type_symbol
_atom_site_fract_x
_atom_site_fract_y
_atom_site_fract_z
_atom_type_partial_charge
C0 C 0.32479 0.14462 0.10984 0.0
Eu1 Eu 0.32672 0.16588 0.14442 0.0
C2 C 0.30213 0.13901 0.09268 0.0
C3 C 0.30415 0.10361 0.08361 0.0
C4 C 0.28941 0.09928 0.06577 0.0
C5 C 0.27184 0.13026 0.05645 0.0
C6 C 0.26852 0.1654 0.06593 0.0
C7 C 0.28358 0.16978 0.08375 0.0
C8 C 0.3477 0.12411 0.17509 0.0
C9 C 0.24464 0.15246 0.16557 0.0
C10 C 0.32454 0.22688 0.21282 0.0
Eu11 Eu 0.3129 0.20248 0.18001 0.0
C12 C 0.35389 0.25201 0.22078 0.0
C13 C 0.34954 0.29201 0.22039 0.0
C14 C 0.36941 0.31406 0.23325 0.0
C15 C 0.38739 0.2948 0.24806 0.0
C16 C 0.40424 0.25935 0.24346 0.0
C17 C 0.38477 0.2363 0.2308 0.0
C18 C 0.28073 0.24294 0.15268 0.0
C19 C 0.3967 0.21487 0.15932 0.0
O20 O 0.33059 0.17976 0.11536 0.0
O21 O 0.32127 0.1204 0.12354 0.0
O22 O 0.36916 0.1257 0.1604 0.0
O23 O 0.31814 0.14315 0.17226 0.0
O24 O 0.26248 0.1548 0.14942 0.0
O25 O 0.26102 0.16506 0.18076 0.0
O26 O 0.33677 0.19347 0.20716 0.0
O27 O 0.2991 0.24268 0.20184 0.0
O28 O 0.26456 0.23573 0.16839 0.0
O29 O 0.31406 0.22761 0.15187 0.0
O30 O 0.37454 0.22062 0.17381 0.0
O31 O 0.38452 0.19452 0.14527 0.0
H32 H 0.31877 0.07958 0.09001 0.0
H33 H 0.29331 0.07187 0.05907 0.0
H34 H 0.2546 0.18983 0.05956 0.0
H35 H 0.28166 0.19761 0.09028 0.0
H36 H 0.32844 0.30575 0.21159 0.0
H37 H 0.36186 0.3441 0.23422 0.0
H38 H 0.42405 0.24558 0.25289 0.0
H39 H 0.39114 0.20589 0.23033 0.0
C40 C 0.66194 0.57388 0.35903 0.0
Eu41 Eu 0.64016 0.57499 0.39355 0.0
C42 C 0.66529 0.55106 0.34175 0.0
C43 C 0.70163 0.54482 0.33393 0.0
C44 C 0.70535 0.52949 0.31617 0.0
C45 C 0.67272 0.52051 0.30542 0.0
C46 C 0.63627 0.52554 0.31364 0.0
C47 C 0.63262 0.54036 0.33154 0.0
C48 C 0.68165 0.59777 0.42408 0.0
C49 C 0.65113 0.49266 0.41389 0.0
C50 C 0.58199 0.5631 0.46289 0.0
Eu51 Eu 0.60344 0.56472 0.42927 0.0
C52 C 0.55465 0.58813 0.47249 0.0
C53 C 0.5152 0.58036 0.47216 0.0
C54 C 0.49095 0.59898 0.48451 0.0
C55 C 0.50699 0.62238 0.49841 0.0
C56 C 0.54307 0.63882 0.49457 0.0
C57 C 0.56776 0.62013 0.4824 0.0
C58 C 0.55306 0.55341 0.40125 0.0
C59 C 0.59412 0.6462 0.40985 0.0
O60 O 0.62743 0.5834 0.36456 0.0
O61 O 0.68547 0.56702 0.37275 0.0
O62 O 0.67867 0.6192 0.40944 0.0
O63 O 0.66304 0.56812 0.42142 0.0
O64 O 0.65625 0.51283 0.39861 0.0
O65 O 0.63148 0.50644 0.42799 0.0
O66 O 0.61378 0.57985 0.45763 0.0
O67 O 0.56786 0.53935 0.45062 0.0
O68 O 0.54724 0.57595 0.4151 0.0
O69 O 0.5875 0.5417 0.40172 0.0
O70 O 0.60022 0.62929 0.42583 0.0
O71 O 0.602 0.62778 0.39449 0.0
H72 H 0.72735 0.553 0.34136 0.0
H73 H 0.7341 0.52524 0.31089 0.0
H74 H 0.61018 0.51964 0.30608 0.0
H75 H 0.60403 0.54493 0.33704 0.0
H76 H 0.50351 0.55792 0.46353 0.0
H77 H 0.46162 0.58888 0.48528 0.0
H78 H 0.55508 0.66039 0.50359 0.0
H79 H 0.59763 0.62881 0.48189 0.0
C80 C 0.22101 0.91895 0.60881 0.0
Eu81 Eu 0.22892 0.89119 0.64211 0.0
C82 C 0.24214 0.92106 0.59104 0.0
C83 C 0.24314 0.956 0.58153 0.0
C84 C 0.25839 0.95825 0.56371 0.0
C85 C 0.27368 0.92557 0.55488 0.0
C86 C 0.27395 0.8907 0.56479 0.0
C87 C 0.2583 0.88843 0.58261 0.0
C88 C 0.21242 0.92489 0.67573 0.0
C89 C 0.30728 0.9006 0.66438 0.0
C90 C 0.24912 0.78495 0.69335 0.0
Eu91 Eu 0.24224 0.84189 0.67105 0.0
C92 C 0.22407 0.77597 0.70876 0.0
C93 C 0.23268 0.7454 0.72034 0.0
C94 C 0.21508 0.74331 0.73752 0.0
C95 C 0.18996 0.77291 0.74339 0.0
C96 C 0.17572 0.79861 0.73015 0.0
C97 C 0.19359 0.80083 0.71305 0.0
C98 C 0.25814 0.8046 0.63292 0.0
C99 C 0.15673 0.84023 0.656 0.0
O100 O 0.20857 0.88532 0.61393 0.0
O101 O 0.23376 0.93921 0.62264 0.0
O102 O 0.22813 0.94254 0.6619 0.0
O103 O 0.20347 0.8915 0.67101 0.0
O104 O 0.29237 0.90062 0.64765 0.0
O105 O 0.28884 0.88405 0.67817 0.0
O106 O 0.26897 0.81671 0.69527 0.0
O107 O 0.2325 0.78195 0.6773 0.0
O108 O 0.2622 0.83549 0.64232 0.0
O109 O 0.26202 0.83535 0.64266 0.0
O110 O 0.17804 0.83461 0.67066 0.0
O111 O 0.17084 0.86 0.64202 0.0
H112 H 0.23082 0.98151 0.58768 0.0
H113 H 0.25682 0.98559 0.55671 0.0
H114 H 0.28613 0.86499 0.55882 0.0
H115 H 0.25822 0.86099 0.58963 0.0
H116 H 0.25546 0.72541 0.7169 0.0
H117 H 0.2261 0.72201 0.74702 0.0
H118 H 0.15561 0.82098 0.73401 0.0
H119 H 0.18622 0.82433 0.70404 0.0
C120 C 0.89371 0.47915 0.85935 0.0
Eu121 Eu 0.91681 0.47785 0.8937 0.0
C122 C 0.88923 0.5016 0.842 0.0
C123 C 0.85339 0.50217 0.83319 0.0
C124 C 0.84945 0.51703 0.81532 0.0
C125 C 0.88126 0.53224 0.80571 0.0
C126 C 0.91701 0.53286 0.81491 0.0
C127 C 0.92098 0.51762 0.83275 0.0
C128 C 0.87705 0.45593 0.92485 0.0
C129 C 0.90394 0.56018 0.91441 0.0
C130 C 0.98205 0.48418 0.96139 0.0
Eu131 Eu 0.9549 0.49243 0.92887 0.0
C132 C 0.99764 0.45029 0.97074 0.0
C133 C 0.03638 0.44955 0.97583 0.0
C134 C 0.04826 0.42439 0.98962 0.0
C135 C 1.01996 0.40457 0.99987 0.0
C136 C 0.98613 0.39518 0.99026 0.0
C137 C 0.97368 0.41995 0.97634 0.0
C138 C 0.99298 0.52513 0.90099 0.0
C139 C 0.96526 0.4077 0.90907 0.0
O140 O 0.92858 0.47038 0.86457 0.0
O141 O 0.87061 0.48565 0.87326 0.0
O142 O 0.87837 0.43473 0.91013 0.0
O143 O 0.89512 0.48585 0.9218 0.0
O144 O 0.90664 0.54239 0.89829 0.0
O145 O 0.91686 0.54398 0.92961 0.0
O146 O 0.94514 0.48371 0.95797 0.0
O147 O 1.0027 0.49832 0.94794 0.0
O148 O 0.98507 0.54178 0.91648 0.0
O149 O 0.97856 0.49156 0.90048 0.0
O150 O 0.9707 0.42968 0.92362 0.0
O151 O 0.94534 0.41996 0.89484 0.0
H152 H 0.82855 0.48954 0.83983 0.0
H153 H 0.8215 0.5151 0.80888 0.0
H154 H 0.94218 0.54488 0.80834 0.0
H155 H 0.94917 0.51751 0.83908 0.0
H156 H 0.05637 0.47072 0.9706 0.0
H157 H 0.07714 0.42806 0.99485 0.0
H158 H 0.96534 0.37584 0.99633 0.0
H159 H 0.94431 0.41771 0.97149 0.0
C160 C 0.74184 0.82619 0.85493 0.0
Eu161 Eu 0.73925 0.85012 0.88815 0.0
C162 C 0.71716 0.79839 0.8455 0.0
C163 C 0.72788 0.75976 0.84457 0.0
C164 C 0.70972 0.73575 0.83203 0.0
C165 C 0.68365 0.75157 0.81913 0.0
C166 C 0.66511 0.7859 0.82419 0.0
C167 C 0.68315 0.81028 0.83668 0.0
C168 C 0.75088 0.80116 0.91677 0.0
C169 C 0.65756 0.8423 0.90722 0.0
C170 C 0.72921 0.91152 0.95753 0.0
Eu171 Eu 0.72898 0.88847 0.92329 0.0
C172 C 0.75149 0.91506 0.97489 0.0
C173 C 0.7532 0.95078 0.98366 0.0
C174 C 0.76773 0.95407 1.00158 0.0
C175 C 0.78142 0.92167 1.01125 0.0
C176 C 0.78111 0.88604 1.00207 0.0
C177 C 0.76621 0.88274 0.98418 0.0
C178 C 0.70631 0.92875 0.89237 0.0
C179 C 0.81157 0.89813 0.90299 0.0
O180 O 0.72509 0.85844 0.85948 0.0
O181 O 0.76505 0.81272 0.86766 0.0
O182 O 0.72777 0.79501 0.90315 0.0
O183 O 0.76243 0.83546 0.91587 0.0
O184 O 0.67456 0.8478 0.89124 0.0
O185 O 0.676 0.85059 0.92254 0.0
O186 O 0.71941 0.87704 0.95229 0.0
O187 O 0.73704 0.93432 0.94367 0.0
O188 O 0.68498 0.92693 0.90708 0.0
O189 O 0.73593 0.91001 0.89523 0.0
O190 O 0.79139 0.90418 0.9182 0.0
O191 O 0.79763 0.87793 0.88916 0.0
H192 H 0.75227 0.74888 0.85227 0.0
H193 H 0.72201 0.7075 0.8302 0.0
H194 H 0.642 0.79743 0.81585 0.0
H195 H 0.67236 0.83928 0.83814 0.0
H196 H 0.74165 0.97606 0.97694 0.0
H197 H 0.76669 0.98199 1.00803 0.0
H198 H 0.79206 0.86046 1.00872 0.0
H199 H 0.76524 0.85465 0.97785 0.0
C200 C 0.47068 0.48039 0.6049 0.0
Eu201 Eu 0.44871 0.49158 0.63815 0.0
C202 C 0.49406 0.44958 0.59686 0.0
C203 C 0.53437 0.45145 0.59703 0.0
C204 C 0.5552 0.42873 0.58474 0.0
C205 C 0.53484 0.41014 0.5705 0.0
C206 C 0.49829 0.39641 0.57561 0.0
C207 C 0.47645 0.41878 0.58769 0.0
C208 C 0.49227 0.525 0.66403 0.0
C209 C 0.46596 0.40956 0.65926 0.0
C210 C 0.39456 0.48023 0.70846 0.0
Eu211 Eu 0.41661 0.47885 0.67393 0.0
C212 C 0.38977 0.50308 0.7256 0.0
C213 C 0.35455 0.50188 0.73496 0.0
C214 C 0.35085 0.51728 0.75271 0.0
C215 C 0.38256 0.53386 0.76186 0.0
C216 C 0.4176 0.53616 0.75207 0.0
C217 C 0.42108 0.52122 0.73419 0.0
C218 C 0.37295 0.4553 0.64415 0.0
C219 C 0.40079 0.55999 0.65338 0.0
O220 O 0.43661 0.47035 0.61075 0.0
O221 O 0.48823 0.50449 0.61585 0.0
O222 O 0.48269 0.54064 0.6485 0.0
O223 O 0.47758 0.49173 0.66554 0.0
O224 O 0.46638 0.42942 0.64377 0.0
O225 O 0.44969 0.42364 0.67408 0.0
O226 O 0.42957 0.47297 0.70301 0.0
O227 O 0.37077 0.48518 0.6947 0.0
O228 O 0.38005 0.43309 0.65816 0.0
O229 O 0.38953 0.48618 0.64674 0.0
O230 O 0.40758 0.54352 0.66955 0.0
O231 O 0.40937 0.54197 0.63799 0.0
H232 H 0.54947 0.47239 0.6053 0.0
H233 H 0.58574 0.43401 0.58362 0.0
H234 H 0.48331 0.37614 0.56692 0.0
H235 H 0.4457 0.4142 0.5885 0.0
H236 H 0.33002 0.4878 0.72877 0.0
H237 H 0.32297 0.51561 0.75923 0.0
H238 H 0.44305 0.54806 0.75839 0.0
H239 H 0.44882 0.52248 0.72743 0.0
C240 C 0.8211 0.23798 0.35665 0.0
Eu241 Eu 0.812 0.20518 0.38794 0.0
C242 C 0.85511 0.25284 0.34719 0.0
C243 C 0.85779 0.29219 0.34362 0.0
C244 C 0.88148 0.30467 0.32934 0.0
C245 C 0.89597 0.27684 0.31703 0.0
C246 C 0.90612 0.24162 0.32523 0.0
C247 C 0.88293 0.22814 0.33958 0.0
C248 C 0.78008 0.24238 0.41635 0.0
C249 C 0.89537 0.21454 0.40896 0.0
C250 C 0.80963 0.14642 0.45639 0.0
Eu251 Eu 0.82554 0.16586 0.42278 0.0
C252 C 0.7978 0.13871 0.47567 0.0
C253 C 0.81261 0.10777 0.48582 0.0
C254 C 0.79975 0.10076 0.50388 0.0
C255 C 0.77203 0.12479 0.51225 0.0
C256 C 0.75787 0.15604 0.50197 0.0
C257 C 0.77028 0.16265 0.48398 0.0
C258 C 0.84683 0.1256 0.39188 0.0
C259 C 0.74439 0.15055 0.39975 0.0
O260 O 0.81878 0.2007 0.3584 0.0
O261 O 0.81002 0.25683 0.37127 0.0
O262 O 0.76263 0.23439 0.40112 0.0
O263 O 0.81383 0.22806 0.41638 0.0
O264 O 0.8766 0.21281 0.39313 0.0
O265 O 0.87931 0.20151 0.42416 0.0
O266 O 0.79102 0.1724 0.44695 0.0
O267 O 0.83833 0.13008 0.44756 0.0
O268 O 0.86666 0.12392 0.40713 0.0
O269 O 0.81769 0.14533 0.39463 0.0
O270 O 0.76505 0.14556 0.41492 0.0
O271 O 0.75748 0.17125 0.38589 0.0
H272 H 0.83895 0.31254 0.35041 0.0
H273 H 0.87925 0.33451 0.32537 0.0
H274 H 0.92318 0.22096 0.31765 0.0
H275 H 0.88402 0.198 0.34319 0.0
H276 H 0.8337 0.08873 0.47973 0.0
H277 H 0.81117 0.07609 0.5111 0.0
H278 H 0.73745 0.17603 0.50782 0.0
H279 H 0.75824 0.18691 0.47662 0.0
C280 C 0.10854 0.58986 0.10079 0.0
Eu281 Eu 0.11 0.56751 0.13438 0.0
C282 C 0.07968 0.6113 0.09064 0.0
C283 C 0.04067 0.60764 0.09505 0.0
C284 C 1.01323 0.61947 0.0823 0.0
C285 C 1.02558 0.63096 0.0646 0.0
C286 C 0.06263 0.64715 0.06347 0.0
C287 C 0.09059 0.63478 0.07594 0.0
C288 C 0.05276 0.5433 0.15577 0.0
C289 C 0.09082 0.64584 0.15814 0.0
C290 C 0.16021 0.57115 0.20803 0.0
Eu291 Eu 0.14123 0.57581 0.17319 0.0
C292 C 0.16417 0.54861 0.22539 0.0
C293 C 0.20066 0.54325 0.23322 0.0
C294 C 0.20471 0.5285 0.25111 0.0
C295 C 0.17227 0.51931 0.26198 0.0
C296 C 0.13571 0.52365 0.25378 0.0
C297 C 0.13175 0.53785 0.23576 0.0
C298 C 0.18698 0.59728 0.144 0.0
C299 C 0.15217 0.49416 0.15094 0.0
O300 O 0.12515 0.60967 0.11383 0.0
O301 O 0.09898 0.55471 0.10569 0.0
O302 O 0.05146 0.54438 0.13791 0.0
O303 O 0.08487 0.55509 0.16211 0.0
O304 O 0.08958 0.62701 0.14243 0.0
O305 O 0.10792 0.63134 0.17275 0.0
O306 O 0.12556 0.57893 0.20208 0.0
O307 O 0.18508 0.56668 0.19463 0.0
O308 O 0.18277 0.61901 0.15845 0.0
O309 O 0.16676 0.56848 0.14619 0.0
O310 O 0.1516 0.51218 0.1671 0.0
O311 O 0.13998 0.51064 0.13558 0.0
H312 H 0.03157 0.59246 0.10734 0.0
H313 H 0.98373 0.6114 0.08494 0.0
H314 H 0.07211 0.66102 0.05092 0.0
H315 H 0.12066 0.64057 0.07322 0.0
H316 H 0.22621 0.55169 0.22571 0.0
H317 H 0.23355 0.52487 0.25638 0.0
H318 H 0.10972 0.51769 0.26142 0.0
H319 H 0.10306 0.54195 0.2303 0.0
C320 C 0.82432 0.64629 0.60937 0.0
Eu321 Eu 0.82449 0.66954 0.64368 0.0
C322 C 0.80238 0.6413 0.59197 0.0
C323 C 0.80616 0.60681 0.58226 0.0
C324 C 0.79212 0.60333 0.56425 0.0
C325 C 0.77344 0.63425 0.55539 0.0
C326 C 0.76835 0.66843 0.5655 0.0
C327 C 0.78276 0.67198 0.5835 0.0
C328 C 0.84709 0.63092 0.67512 0.0
C329 C 0.74214 0.65582 0.66445 0.0
C330 C 0.8169 0.73828 0.71044 0.0
Eu331 Eu 0.8088 0.70824 0.67852 0.0
C332 C 0.85055 0.75637 0.71895 0.0
C333 C 0.85193 0.79633 0.721 0.0
C334 C 0.87756 0.81204 0.73371 0.0
C335 C 0.89482 0.78686 0.74654 0.0
C336 C 0.90578 0.75121 0.73905 0.0
C337 C 0.88083 0.7343 0.72633 0.0
C338 C 0.77581 0.74516 0.65017 0.0
C339 C 0.89349 0.71879 0.65873 0.0
O340 O 0.83168 0.68132 0.61457 0.0
O341 O 0.81844 0.62309 0.62329 0.0
O342 O 0.86835 0.63219 0.66035 0.0
O343 O 0.81671 0.64846 0.67199 0.0
O344 O 0.76049 0.65737 0.64841 0.0
O345 O 0.75737 0.67032 0.67952 0.0
O346 O 0.81897 0.70122 0.70777 0.0
O347 O 0.80105 0.75693 0.69675 0.0
O348 O 0.75907 0.73764 0.66569 0.0
O349 O 0.80973 0.73121 0.64996 0.0
O350 O 0.87233 0.72145 0.67377 0.0
O351 O 0.88041 0.70125 0.64405 0.0
H352 H 0.82164 0.58293 0.58833 0.0
H353 H 0.79745 0.57668 0.55709 0.0
H354 H 0.75353 0.69273 0.55951 0.0
H355 H 0.77949 0.69913 0.59056 0.0
H356 H 0.83141 0.81486 0.71411 0.0
H357 H 0.87519 0.8424 0.73654 0.0
H358 H 0.9258 0.73284 0.74633 0.0
H359 H 0.88326 0.70384 0.72364 0.0
C360 C 0.16222 0.07418 0.85972 0.0
Eu361 Eu 0.13827 0.07547 0.89395 0.0
C362 C 0.17005 0.05154 0.84277 0.0
C363 C 0.20338 0.05952 0.83261 0.0
C364 C 0.20895 0.04383 0.81504 0.0
C365 C 0.18114 1.01976 0.80698 0.0
C366 C 0.14822 1.01073 0.81752 0.0
C367 C 0.14277 0.02636 0.83519 0.0
C368 C 0.17631 0.09692 0.92555 0.0
C369 C 0.15138 0.99283 0.91484 0.0
C370 C 0.0705 0.06857 0.96085 0.0
Eu371 Eu 0.09833 0.05987 0.92847 0.0
C372 C 0.05104 0.10091 0.96979 0.0
C373 C 1.01107 0.10031 0.97208 0.0
C374 C 0.99459 0.1224 0.98599 0.0
C375 C 1.01924 0.13938 0.99908 0.0
C376 C 0.05492 0.15196 0.99224 0.0
C377 C 0.07222 0.1303 0.97832 0.0
C378 C 0.06198 0.02697 0.9002 0.0
C379 C 0.08798 0.14478 0.90857 0.0
O380 O 0.12635 0.07875 0.86463 0.0
O381 O 0.18556 0.07156 0.87383 0.0
O382 O 0.17568 0.11839 0.91085 0.0
O383 O 0.1585 0.06691 0.92227 0.0
O384 O 0.15198 1.01192 0.89899 0.0
O385 O 0.1351 1.00747 0.92964 0.0
O386 O 0.10701 0.07327 0.9572 0.0
O387 O 0.05158 0.05084 0.94781 0.0
O388 O 0.06921 1.01036 0.91581 0.0
O389 O 0.07607 0.06079 0.89983 0.0
O390 O 0.07986 0.12163 0.92243 0.0
O391 O 0.11075 0.13383 0.89511 0.0
H392 H 0.2247 0.07907 0.83804 0.0
H393 H 0.23509 0.051 0.80775 0.0
H394 H 0.12579 0.99276 0.81191 0.0
H395 H 0.11654 1.01982 0.84259 0.0
H396 H 0.99329 0.08008 0.96466 0.0
H397 H 0.96459 0.11728 0.98907 0.0
H398 H 0.07318 0.16991 1.00066 0.0
H399 H 0.10275 0.13366 0.97584 0.0
C400 C 0.73051 0.40739 0.1095 0.0
Eu401 Eu 0.72945 0.38614 0.14414 0.0
C402 C 0.75278 0.41305 0.09222 0.0
C403 C 0.7493 0.44795 0.08277 0.0
C404 C 0.76387 0.45218 0.06489 0.0
C405 C 0.7828 0.42163 0.05591 0.0
C406 C 0.78749 0.38699 0.06575 0.0
C407 C 0.77255 0.38269 0.08362 0.0
C408 C 0.70595 0.42996 0.17377 0.0
C409 C 0.81088 0.40216 0.16485 0.0
C410 C 0.73237 0.33329 0.2138 0.0
Eu411 Eu 0.74288 0.3544 0.18038 0.0
C412 C 0.70071 0.31231 0.22252 0.0
C413 C 0.69972 0.27208 0.22229 0.0
C414 C 0.67774 0.25293 0.23546 0.0
C415 C 0.66284 0.27447 0.2503 0.0
C416 C 0.65095 0.31194 0.24577 0.0
C417 C 0.67271 0.33206 0.23278 0.0
C418 C 0.77626 0.31144 0.15424 0.0
C419 C 0.66001 0.33798 0.15976 0.0
O420 O 0.7249 0.37226 0.1151 0.0
O421 O 0.73437 0.43158 0.12314 0.0
O422 O 0.6838 0.4233 0.1597 0.0
O423 O 0.73684 0.41303 0.17127 0.0
O424 O 0.79437 0.39517 0.14871 0.0
O425 O 0.79306 0.39396 0.18035 0.0
O426 O 0.72411 0.36786 0.20805 0.0
O427 O 0.7545 0.31404 0.20248 0.0
O428 O 0.79207 0.32038 0.16981 0.0
O429 O 0.74268 0.32576 0.15298 0.0
O430 O 0.68015 0.33816 0.17517 0.0
O431 O 0.67407 0.35314 0.14463 0.0
H432 H 0.73371 0.47162 0.08892 0.0
H433 H 0.75881 0.47915 0.05791 0.0
H434 H 0.80244 0.36292 0.05965 0.0
H435 H 0.77558 0.35523 0.09046 0.0
H436 H 0.71837 0.2556 0.21333 0.0
H437 H 0.68139 0.22219 0.2365 0.0
H438 H 0.63368 0.32833 0.25537 0.0
H439 H 0.67037 0.36302 0.23218 0.0
C440 C 0.40193 0.98924 0.36066 0.0
Eu441 Eu 0.4185 0.97699 0.39496 0.0
C442 C 0.39199 1.00154 0.34178 0.0
C443 C 0.38696 0.97456 0.3277 0.0
C444 C 0.382 0.98661 0.30939 0.0
C445 C 0.38152 1.02592 0.3049 0.0
C446 C 0.38574 0.05282 0.31918 0.0
C447 C 0.39109 0.04077 0.33738 0.0
C448 C 0.37354 0.95755 0.42473 0.0
C449 C 0.40094 0.05893 0.41667 0.0
C450 C 0.47232 0.97815 0.46449 0.0
Eu451 Eu 0.45191 0.99096 0.4312 0.0
C452 C 0.49736 0.94892 0.47241 0.0
C453 C 0.53466 0.94244 0.46564 0.0
C454 C 0.56141 0.92369 0.47683 0.0
C455 C 0.5515 0.9164 0.49534 0.0
C456 C 0.512 0.91019 0.49889 0.0
C457 C 0.48496 0.92886 0.48794 0.0
C458 C 0.49525 1.02082 0.40438 0.0
C459 C 0.46987 0.90911 0.40964 0.0
O460 O 0.42613 1.00984 0.37017 0.0
O461 O 0.38579 0.96096 0.36977 0.0
O462 O 0.37561 0.93597 0.41011 0.0
O463 O 0.39329 0.98655 0.42209 0.0
O464 O 0.39933 0.0387 0.40123 0.0
O465 O 0.41716 0.04485 0.43161 0.0
O466 O 0.43991 0.96543 0.4578 0.0
O467 O 0.48893 1.00432 0.45425 0.0
O468 O 0.48796 0.03752 0.41992 0.0
O469 O 0.47964 0.98782 0.40367 0.0
O470 O 0.46955 0.92899 0.42514 0.0
O471 O 0.45448 0.92332 0.39453 0.0
H472 H 0.38797 0.94417 0.33077 0.0
H473 H 0.3785 0.96516 0.29876 0.0
H474 H 0.38594 0.08327 0.31623 0.0
H475 H 0.3952 0.0622 0.34799 0.0
H476 H 0.54409 0.95491 0.45272 0.0
H477 H 0.59123 0.92362 0.47255 0.0
H478 H 0.50209 0.89913 0.51198 0.0
H479 H 0.45538 0.9308 0.49256 0.0
C480 C 0.23177 0.33324 0.35459 0.0
Eu481 Eu 0.24246 0.3547 0.38792 0.0
C482 C 0.20141 0.30988 0.34623 0.0
C483 C 0.20414 0.26975 0.346 0.0
C484 C 0.1823 0.24918 0.33332 0.0
C485 C 0.16292 0.2697 0.31932 0.0
C486 C 0.14891 0.30605 0.32449 0.0
C487 C 0.17054 0.32746 0.33698 0.0
C488 C 0.2757 0.31158 0.41411 0.0
C489 C 0.15939 0.33814 0.40852 0.0
C490 C 0.23063 0.40804 0.45857 0.0
Eu491 Eu 0.22905 0.3868 0.42391 0.0
C492 C 0.25333 0.41276 0.47584 0.0
C493 C 0.25348 0.44839 0.48476 0.0
C494 C 0.26865 0.45227 0.50258 0.0
C495 C 0.28363 0.42037 0.51228 0.0
C496 C 0.28455 0.38485 0.50294 0.0
C497 C 0.26987 0.38117 0.48499 0.0
C498 C 0.20587 0.43045 0.39405 0.0
C499 C 0.31065 0.40268 0.40312 0.0
O500 O 0.2211 0.36697 0.36054 0.0
O501 O 0.25596 0.31566 0.36558 0.0
O502 O 0.29146 0.32051 0.39851 0.0
O503 O 0.24224 0.32618 0.41542 0.0
O504 O 0.18026 0.33679 0.39334 0.0
O505 O 0.17278 0.35495 0.42338 0.0
O506 O 0.22372 0.37318 0.45297 0.0
O507 O 0.23521 0.4321 0.44488 0.0
O508 O 0.18362 0.42404 0.40813 0.0
O509 O 0.23669 0.41353 0.39672 0.0
O510 O 0.29403 0.39609 0.41931 0.0
O511 O 0.29275 0.39406 0.38772 0.0
H512 H 0.22532 0.25467 0.35423 0.0
H513 H 0.18851 0.21892 0.33192 0.0
H514 H 0.12864 0.32117 0.31578 0.0
H515 H 0.16544 0.35804 0.33802 0.0
H516 H 0.24064 0.4732 0.47817 0.0
H517 H 0.26807 0.48047 0.50871 0.0
H518 H 0.29514 0.35923 0.50964 0.0
H519 H 0.27006 0.35311 0.47862 0.0
C520 C 0.98538 0.98224 0.10535 0.0
Eu521 Eu 0.95575 0.99191 0.13729 0.0
C522 C 1.00118 0.94824 0.09623 0.0
C523 C 0.041 0.94494 0.09372 0.0
C524 C 0.05487 0.92118 0.07978 0.0
C525 C 0.02824 0.90754 0.06669 0.0
C526 C 0.99208 0.89757 0.07397 0.0
C527 C 0.97709 0.92087 0.08792 0.0
C528 C 0.99531 1.0224 0.1653 0.0
C529 C 0.96774 0.90914 0.15821 0.0
C530 C 0.90023 0.99136 0.2064 0.0
Eu531 Eu 0.9186 0.97794 0.17245 0.0
C532 C 0.88991 1.00333 0.22528 0.0
C533 C 0.88458 0.97621 0.23933 0.0
C534 C 0.87961 0.9881 0.25765 0.0
C535 C 0.8794 0.02737 0.26219 0.0
C536 C 0.88392 0.05439 0.24794 0.0
C537 C 0.88929 0.04251 0.22975 0.0
C538 C 0.8769 0.95723 0.14182 0.0
C539 C 0.90246 0.05956 0.15 0.0
O540 O 0.94816 0.98281 0.10803 0.0
O541 O 1.00521 0.99567 0.11921 0.0
O542 O 0.98668 0.04028 0.15023 0.0
O543 O 0.98056 0.98903 0.16538 0.0
O544 O 0.96462 0.9277 0.14238 0.0
O545 O 0.95579 0.92524 0.17355 0.0
O546 O 0.92329 1.01292 0.19668 0.0
O547 O 0.88611 0.96158 0.19765 0.0
O548 O 0.87701 0.93647 0.1568 0.0
O549 O 0.8961 0.98651 0.14467 0.0
O550 O 0.89797 0.03872 0.16516 0.0
O551 O 0.92227 0.04653 0.13587 0.0
H552 H 0.06086 0.96327 0.10107 0.0
H553 H 0.0852 0.92294 0.0766 0.0
H554 H 0.97212 0.88097 0.06579 0.0
H555 H 0.94649 0.92022 0.09067 0.0
H556 H 0.88547 0.94585 0.23624 0.0
H557 H 0.87591 0.96656 0.26826 0.0
H558 H 0.88438 0.0848 0.25091 0.0
H559 H 0.89368 0.06406 0.21918 0.0
C560 C 0.32429 0.72149 0.85427 0.0
Eu561 Eu 0.31263 0.69952 0.88741 0.0
C562 C 0.35583 0.74416 0.8465 0.0
C563 C 0.35702 0.78417 0.84865 0.0
C564 C 0.37955 0.80575 0.8366 0.0
C565 C 0.39445 0.7872 0.82089 0.0
C566 C 0.4065 0.74909 0.82385 0.0
C567 C 0.38415 0.72645 0.83561 0.0
C568 C 0.27987 0.74191 0.91391 0.0
C569 C 0.3959 0.71595 0.90779 0.0
C570 C 0.3262 0.64752 0.9582 0.0
Eu571 Eu 0.32706 0.66672 0.92331 0.0
C572 C 0.30462 0.64017 0.97553 0.0
C573 C 0.31316 0.60712 0.98576 0.0
C574 C 0.29941 0.60264 1.00379 0.0
C575 C 0.27634 0.63107 1.01214 0.0
C576 C 0.26658 0.66361 1.00154 0.0
C577 C 0.28063 0.66818 0.98351 0.0
C578 C 0.35035 0.62405 0.89341 0.0
C579 C 0.24506 0.65008 0.90234 0.0
O580 O 0.33358 0.68711 0.85996 0.0
O581 O 0.30031 0.73942 0.86524 0.0
O582 O 0.26365 0.73306 0.89843 0.0
O583 O 0.31342 0.72739 0.91493 0.0
O584 O 0.37448 0.7181 0.89283 0.0
O585 O 0.3833 0.6982 0.92256 0.0
O586 O 0.32731 0.68275 0.95212 0.0
O587 O 0.32638 0.62212 0.94493 0.0
O588 O 0.37268 0.63018 0.90748 0.0
O589 O 0.3193 0.64062 0.89609 0.0
O590 O 0.26316 0.65281 0.91842 0.0
O591 O 0.26105 0.66234 0.88702 0.0
H592 H 0.33833 0.79887 0.85828 0.0
H593 H 0.37613 0.83659 0.83695 0.0
H594 H 0.42408 0.73469 0.81366 0.0
H595 H 0.38642 0.69551 0.83482 0.0
H596 H 0.33209 0.5854 0.98011 0.0
H597 H 0.30835 0.57743 1.01137 0.0
H598 H 0.24837 0.68587 1.00717 0.0
H599 H 0.27365 0.69422 0.97607 0.0
C600 C 0.53214 0.05273 0.62436 0.0
Eu601 Eu 0.58871 0.05956 0.64672 0.0
C602 C 0.52593 0.07771 0.60854 0.0
C603 C 0.4892 0.08461 0.60157 0.0
C604 C 0.48519 0.10411 0.58484 0.0
C605 C 0.51819 0.11347 0.5744 0.0
C606 C 0.55366 0.1148 0.58381 0.0
C607 C 0.55758 0.09611 0.60059 0.0
C608 C 0.55227 0.0441 0.68507 0.0
C609 C 0.58654 0.14561 0.66087 0.0
C610 C 0.66517 0.0823 0.70875 0.0
Eu611 Eu 0.63812 0.07391 0.67538 0.0
C612 C 0.66767 0.06109 0.72646 0.0
C613 C 0.70285 0.05996 0.73581 0.0
C614 C 0.70537 0.04462 0.7536 0.0
C615 C 0.67273 0.02945 0.76255 0.0
C616 C 0.63764 0.02931 0.7528 0.0
C617 C 0.63511 0.04499 0.735 0.0
C618 C 0.67184 0.09055 0.64199 0.0
C619 C 0.65087 0.99705 0.65217 0.0
O620 O 0.56289 0.03082 0.62328 0.0
O621 O 0.52871 0.07017 0.64018 0.0
O622 O 0.58308 0.03953 0.67549 0.0
O623 O 0.58291 0.03972 0.6752 0.0
O624 O 0.58037 0.12356 0.64652 0.0
O625 O 0.60716 0.13226 0.67478 0.0
O626 O 0.63113 0.0938 0.70355 0.0
O627 O 0.6861 0.07029 0.69495 0.0
O628 O 0.68995 0.07578 0.65592 0.0
O629 O 0.63798 0.09882 0.64651 0.0
O630 O 0.65134 1.01161 0.66899 0.0
O631 O 0.6316 1.01426 0.63885 0.0
H632 H 0.46408 0.073 0.60839 0.0
H633 H 0.45674 0.10629 0.57891 0.0
H634 H 0.57981 0.12449 0.57725 0.0
H635 H 0.5859 0.09322 0.60658 0.0
H636 H 0.72832 0.07221 0.72957 0.0
H637 H 0.73287 0.04599 0.76051 0.0
H638 H 0.61198 1.01721 0.75888 0.0
H639 H 0.6075 0.04516 0.7281 0.0
H640 H 0.37533 0.23642 0.27416 0.0
H641 H 0.16922 0.32532 0.29132 0.0
H642 H 0.34676 0.35532 0.26416 0.0
H643 H 0.19762 0.20674 0.30178 0.0
H644 H 0.2316 0.33436 0.27766 0.0
H645 H 0.31193 0.22641 0.28648 0.0
C646 C 0.35629 0.26095 0.27473 0.0
C647 C 0.36515 0.2959 0.26579 0.0
C648 C 0.22423 0.30631 0.283 0.0
C649 C 0.29228 0.28415 0.28028 0.0
C650 C 0.18802 0.30063 0.2906 0.0
C651 C 0.1802 0.26649 0.30041 0.0
C652 C 0.25142 0.27681 0.28416 0.0
C653 C 0.20417 0.23497 0.29647 0.0
C654 C 0.31951 0.25472 0.28153 0.0
C655 C 0.34007 0.32685 0.26913 0.0
N656 N 0.23987 0.24129 0.28959 0.0
N657 N 0.30394 0.31991 0.2753 0.0
H658 H 0.59663 0.44876 0.55381 0.0
H659 H 0.43941 0.59302 0.51467 0.0
H660 H 0.47952 0.41656 0.54221 0.0
H661 H 0.55396 0.62562 0.53006 0.0
H662 H 0.45081 0.52965 0.5278 0.0
H663 H 0.58303 0.51245 0.54179 0.0
C664 C 0.56811 0.4546 0.54853 0.0
C665 C 0.53748 0.42918 0.55193 0.0
C666 C 0.47357 0.55075 0.52827 0.0
C667 C 0.52223 0.50109 0.53747 0.0
C668 C 0.46684 0.58737 0.52119 0.0
C669 C 0.49843 0.61161 0.51798 0.0
C670 C 0.5109 0.54114 0.53404 0.0
C671 C 0.53056 0.60532 0.52946 0.0
C672 C 0.56023 0.49137 0.54202 0.0
C673 C 0.50302 0.43677 0.54226 0.0
N674 N 0.53734 0.56947 0.53589 0.0
N675 N 0.49551 0.47289 0.53639 0.0
H676 H 0.19926 0.84683 0.75605 0.0
H677 H 0.37123 0.73516 0.79375 0.0
H678 H 0.19122 0.73053 0.77576 0.0
H679 H 0.36356 0.85569 0.80733 0.0
H680 H 0.30712 0.73795 0.7815 0.0
H681 H 0.25549 0.85638 0.77505 0.0
C682 C 0.20786 0.8236 0.76508 0.0
C683 C 0.19348 0.78612 0.76271 0.0
C684 C 0.31949 0.76372 0.78733 0.0
C685 C 0.25718 0.79731 0.78432 0.0
C686 C 0.35676 0.76264 0.794 0.0
C687 C 0.37164 0.7944 0.80369 0.0
C688 C 0.29794 0.79733 0.78925 0.0
C689 C 0.35205 0.82958 0.80153 0.0
C690 C 0.24068 0.82912 0.77567 0.0
C691 C 0.2038 0.75889 0.77604 0.0
N692 N 0.31538 0.82993 0.79512 0.0
N693 N 0.23708 0.76392 0.78541 0.0
H694 H 0.95276 0.41784 1.02043 0.0
H695 H 0.06835 0.6051 0.03459 0.0
H696 H 0.076 0.42146 1.02631 0.0
H697 H 0.95428 0.59666 0.05797 0.0
H698 H 0.06455 0.53911 1.02542 0.0
H699 H 0.94829 0.48067 0.03427 0.0
C700 C 0.97917 0.431 1.02506 0.0
C701 C 1.01557 0.41692 1.01954 0.0
C702 C 0.0404 0.55176 1.03265 0.0
C703 C 1.01002 0.48798 0.0359 0.0
C704 C 0.04191 0.59007 0.03758 0.0
C705 C 1.01318 0.60569 0.04909 0.0
C706 C 1.00908 0.52967 0.03832 0.0
C707 C 0.97866 0.58486 0.05064 0.0
C708 C 0.9763 0.46741 1.03276 0.0
C709 C 0.04755 0.43338 1.02828 0.0
N710 N 0.97803 0.54714 0.04602 0.0
N711 N 0.04452 0.4696 0.03488 0.0
H712 H 0.67799 0.80304 0.78945 0.0
H713 H 0.88878 0.72575 0.77198 0.0
H714 H 0.7119 0.68664 0.80038 0.0
H715 H 0.85448 0.84407 0.76595 0.0
H716 H 0.82552 0.71083 0.78366 0.0
H717 H 0.73981 0.81496 0.77551 0.0
C718 C 0.69798 0.77929 0.78863 0.0
C719 C 0.69286 0.74567 0.79919 0.0
C720 C 0.83179 0.74006 0.77963 0.0
C721 C 0.76255 0.75859 0.7824 0.0
C722 C 0.86837 0.74904 0.77321 0.0
C723 C 0.87517 0.78522 0.76504 0.0
C724 C 0.80313 0.76824 0.77909 0.0
C725 C 0.84909 0.81459 0.76978 0.0
C726 C 0.73386 0.78668 0.78099 0.0
C727 C 0.71713 0.71482 0.79465 0.0
N728 N 0.81324 0.80517 0.77552 0.0
N729 N 0.75261 0.72254 0.78781 0.0
H730 H 0.68474 0.33042 0.27595 0.0
H731 H 0.87336 0.21205 0.29679 0.0
H732 H 0.69288 0.2083 0.2667 0.0
H733 H 0.86802 0.33579 0.29458 0.0
H734 H 0.80896 0.2091 0.28473 0.0
H735 H 0.74942 0.33014 0.28764 0.0
C736 C 0.69947 0.3031 0.27659 0.0
C737 C 0.68468 0.26993 0.26799 0.0
C738 C 0.82196 0.23693 0.28685 0.0
C739 C 0.75902 0.26983 0.28177 0.0
C740 C 0.85936 0.23893 0.2935 0.0
C741 C 0.87473 0.2746 0.29905 0.0
C742 C 0.80077 0.2708 0.28493 0.0
C743 C 0.856 0.3076 0.29235 0.0
C744 C 0.73706 0.30336 0.28299 0.0
C745 C 0.70439 0.23534 0.27142 0.0
N746 N 0.81906 0.30508 0.28653 0.0
N747 N 0.74145 0.23635 0.27722 0.0
H748 H 0.08961 0.9351 0.0458 0.0
H749 H 0.95805 0.11469 1.02071 0.0
H750 H 0.96539 0.93351 0.04582 0.0
H751 H 0.0822 0.11633 1.02041 0.0
H752 H 0.96032 0.05003 1.03335 0.0
H753 H 0.08746 1.00051 0.03417 0.0
C754 C 0.06183 0.94792 0.04304 0.0
C755 C 0.02776 0.93011 0.04906 0.0
C756 C 0.98706 0.0648 1.03059 0.0
C757 C 1.02511 1.00448 0.03542 0.0
C758 C 0.98583 0.10214 1.02376 0.0
C759 C 1.0198 0.11941 1.01735 0.0
C760 C 1.02268 0.04602 1.032 0.0
C761 C 0.05482 0.10305 1.02337 0.0
C762 C 0.06069 0.98565 0.03674 0.0
C763 C 0.99282 0.94699 0.04324 0.0
N764 N 0.05544 0.06644 1.02956 0.0
N765 N 0.99233 0.98393 0.03751 0.0
H766 H 0.54597 0.91197 0.53375 0.0
H767 H 0.5725 0.13206 0.54689 0.0
H768 H 0.60924 0.9724 0.49166 0.0
H769 H 0.46546 0.07145 0.55371 0.0
H770 H 0.59753 0.07744 0.5294 0.0
H771 H 0.5347 0.9728 0.54926 0.0
C772 C 0.55858 0.93764 0.52794 0.0
C773 C 0.57318 0.93789 0.50987 0.0
C774 C 0.56845 0.07658 0.53473 0.0
C775 C 0.56311 1.00648 0.52811 0.0
C776 C 0.5538 0.10782 0.54451 0.0
C777 C 0.51901 0.10379 0.55434 0.0
C778 C 0.54667 0.043 0.534 0.0
C779 C 0.4944 0.07423 0.54848 0.0
C780 C 0.55157 0.97238 0.5367 0.0
C781 C 0.59342 0.97125 0.50446 0.0
N782 N 0.50948 0.04364 0.53964 0.0
N783 N 0.58605 1.005 0.51303 0.0
H784 H 0.20556 0.16466 0.94052 0.0
H785 H 0.24304 0.0657 0.03926 0.0
H786 H 0.185 0.04563 0.95322 0.0
H787 H 0.2685 0.18488 1.02855 0.0
H788 H 0.22236 0.05873 1.0075 0.0
H789 H 0.22918 0.17374 0.97236 0.0
C790 C 0.20625 0.14048 0.94989 0.0
C791 C 0.19327 0.1044 0.9441 0.0
C792 C 0.23234 0.08652 1.01207 0.0
C793 C 0.21974 0.11451 0.98051 0.0
C794 C 0.24456 0.09051 1.03032 0.0
C795 C 0.25783 0.12599 0.03692 0.0
C796 C 0.23293 0.11824 1.00008 0.0
C797 C 0.25801 0.15704 1.02441 0.0
C798 C 0.21952 0.14566 0.96808 0.0
C799 C 0.19459 0.07408 0.95695 0.0
N800 N 0.24577 0.15245 1.00668 0.0
N801 N 0.20733 0.07985 0.97441 0.0
H802 H 0.7317 0.53527 0.28063 0.0
H803 H 0.6364 0.43266 0.19292 0.0
H804 H 0.62285 0.47602 0.2842 0.0
H805 H 0.75604 0.46319 0.19698 0.0
H806 H 0.62732 0.45404 0.22514 0.0
H807 H 0.7381 0.51378 0.24906 0.0
C808 C 0.70915 0.51746 0.27505 0.0
C809 C 0.67676 0.50739 0.28566 0.0
C810 C 0.65541 0.45645 0.21883 0.0
C811 C 0.68346 0.48381 0.2485 0.0
C812 C 0.66041 0.44476 0.20038 0.0
C813 C 0.69675 0.44714 0.19205 0.0
C814 C 0.68688 0.47092 0.22889 0.0
C815 C 0.7273 0.46157 0.20267 0.0
C816 C 0.71274 0.5055 0.25674 0.0
C817 C 0.64819 0.48527 0.27683 0.0
N818 N 0.72167 0.47296 0.22037 0.0
N819 N 0.65214 0.47443 0.25885 0.0
H820 H 0.27476 0.86941 0.52766 0.0
H821 H 0.36292 1.00989 0.45146 0.0
H822 H 0.30692 0.9874 0.53707 0.0
H823 H 0.34351 0.89008 0.44026 0.0
H824 H 0.34002 1.00099 0.48255 0.0
H825 H 0.29816 0.87511 0.49597 0.0
C826 C 0.28686 0.89647 0.52327 0.0
C827 C 0.28852 0.92799 0.5354 0.0
C828 C 0.34033 0.97651 0.4734 0.0
C829 C 0.31452 0.93477 0.49866 0.0
C830 C 0.3534 0.98155 0.45545 0.0
C831 C 0.35514 0.95066 0.44301 0.0
C832 C 0.32819 0.94023 0.47927 0.0
C833 C 0.34237 0.91475 0.44926 0.0
C834 C 0.29992 0.89969 0.50502 0.0
C835 C 0.30397 0.96236 0.52844 0.0
N836 N 0.32942 0.91049 0.46699 0.0
N837 N 0.3161 0.96476 0.51066 0.0
H838 H 0.91525 0.60066 0.68978 0.0
H839 H 0.81745 0.56446 0.78887 0.0
H840 H 0.79629 0.62227 0.70298 0.0
H841 H 0.93539 0.53341 0.7774 0.0
H842 H 0.81045 0.5857 0.75723 0.0
H843 H 0.92468 0.57617 0.7215 0.0
C844 C 0.89117 0.60007 0.69923 0.0
C845 C 0.85499 0.61362 0.69361 0.0
C846 C 0.83798 0.57436 0.7616 0.0
C847 C 0.86552 0.58613 0.72989 0.0
C848 C 0.84199 0.56177 0.7798 0.0
C849 C 0.87712 0.5467 0.78619 0.0
C850 C 0.86936 0.57248 0.74941 0.0
C851 C 0.90784 0.54526 0.77347 0.0
C852 C 0.89655 0.58626 0.71735 0.0
C853 C 0.82483 0.61235 0.70656 0.0
N854 N 0.90327 0.55798 0.75579 0.0
N855 N 0.83079 0.59911 0.72393 0.0
H856 H 0.87028 1.00842 0.11419 0.0
H857 H 0.77819 0.86772 0.03945 0.0
H858 H 0.84464 0.89036 0.12692 0.0
H859 H 0.81602 0.98344 1.02837 0.0
H860 H 0.8005 0.87444 0.07122 0.0
H861 H 0.84799 0.99888 0.08303 0.0
C862 C 0.85964 0.98031 0.1105 0.0
C863 C 0.85944 0.95008 0.12337 0.0
C864 C 0.80379 0.89831 0.0618 0.0
C865 C 0.83315 0.93897 0.08709 0.0
C866 C 0.79136 0.89447 0.04351 0.0
C867 C 0.7951 0.92501 1.03086 0.0
C868 C 0.81981 0.93305 0.0677 0.0
C869 C 0.81166 0.95915 0.0374 0.0
C870 C 0.84688 0.97492 0.09253 0.0
C871 C 0.84513 0.91451 0.11755 0.0
N872 N 0.8232 0.96217 0.05525 0.0
N873 N 0.83255 0.9099 0.09979 0.0
H874 H 0.30147 0.58348 0.87247 0.0
H875 H 0.42511 0.58978 0.78021 0.0
H876 H 0.41684 0.62802 0.87213 0.0
H877 H 0.33285 0.509 0.78936 0.0
H878 H 0.42027 0.60928 0.81242 0.0
H879 H 0.30982 0.56191 0.84075 0.0
C880 C 0.32903 0.58786 0.86583 0.0
C881 C 0.35905 0.60625 0.87525 0.0
C882 C 0.40116 0.58729 0.80728 0.0
C883 C 0.36833 0.58287 0.8384 0.0
C884 C 0.40395 0.5758 0.7888 0.0
C885 C 0.37939 0.54738 0.78158 0.0
C886 C 0.37318 0.57089 0.81875 0.0
C887 C 0.35202 0.53155 0.79374 0.0
C888 C 0.33365 0.57577 0.84764 0.0
C889 C 0.39354 0.61257 0.86566 0.0
N890 N 0.34958 0.54364 0.81154 0.0
N891 N 0.39716 0.60114 0.84769 0.0
H892 H 0.81031 0.09154 0.54181 0.0
H893 H 0.63968 0.1306 0.61363 0.0
H894 H 0.70071 0.14166 0.52713 0.0
H895 H 0.74012 0.06402 0.62746 0.0
H896 H 0.6633 0.13687 0.58208 0.0
H897 H 0.78658 0.08221 0.57317 0.0
C898 C 0.78126 0.10046 0.545 0.0
C899 C 0.75783 0.11779 0.53152 0.0
C900 C 0.68031 0.1209 0.59197 0.0
C901 C 0.73081 0.10801 0.56785 0.0
C902 C 0.66671 0.11716 0.60999 0.0
C903 C 0.68777 0.09649 0.62318 0.0
C904 C 0.71565 0.10424 0.58702 0.0
C905 C 0.72304 0.08037 0.61776 0.0
C906 C 0.76785 0.09537 0.56305 0.0
C907 C 0.72057 0.12915 0.5369 0.0
N908 N 0.73591 0.08461 0.60011 0.0
N909 N 0.70846 0.12428 0.55456 0.0
H910 H 0.1363 0.43381 0.37499 0.0
H911 H 0.23147 0.53461 0.2866 0.0
H912 H 0.25631 0.46272 0.37056 0.0
H913 H 0.12272 0.47505 0.28356 0.0
H914 H 0.23811 0.51361 0.31829 0.0
H915 H 0.12726 0.4549 0.3427 0.0
C916 C 0.16042 0.44549 0.36743 0.0
C917 C 0.19686 0.44747 0.37568 0.0
C918 C 0.21272 0.50518 0.31068 0.0
C919 C 0.187 0.47097 0.33876 0.0
C920 C 0.20899 0.51686 0.29232 0.0
C921 C 0.17653 0.50657 0.28182 0.0
C922 C 0.18351 0.48359 0.31909 0.0
C923 C 0.14808 0.48453 0.29082 0.0
C924 C 0.15543 0.45702 0.34894 0.0
C925 C 0.22752 0.46139 0.36493 0.0
N926 N 0.15216 0.474 0.30885 0.0
N927 N 0.22189 0.47268 0.34719 0.0
H928 H 0.76754 0.69105 0.52854 0.0
H929 H 0.69408 0.54592 0.45085 0.0
H930 H 0.74877 0.56975 0.53668 0.0
H931 H 0.70656 0.66691 0.44007 0.0
H932 H 0.71558 0.55565 0.48216 0.0
H933 H 0.74613 0.68427 0.4966 0.0
C934 C 0.75877 0.66301 0.5238 0.0
C935 C 0.76014 0.63095 0.53569 0.0
C936 C 0.71407 0.58023 0.47304 0.0
C937 C 0.73643 0.62303 0.49863 0.0
C938 C 0.70184 0.57472 0.45499 0.0
C939 C 0.69869 0.60565 0.44258 0.0
C940 C 0.72374 0.61708 0.4791 0.0
C941 C 0.70894 0.64218 0.44902 0.0
C942 C 0.74686 0.6592 0.50541 0.0
C943 C 0.7491 0.59537 0.52827 0.0
N944 N 0.72098 0.64692 0.46687 0.0
N945 N 0.7379 0.59248 0.51037 0.0
H946 H 0.1561 0.95125 0.79183 0.0
H947 H 0.23918 0.99277 0.69025 0.0
H948 H 0.21739 0.05458 0.77732 0.0
H949 H 0.17539 0.89144 0.70484 0.0
H950 H 0.23237 1.0157 0.72211 0.0
H951 H 0.16335 0.92894 0.76019 0.0
C952 C 0.17095 0.96947 0.78209 0.0
C953 C 0.18607 1.00509 0.78758 0.0
C954 C 0.2198 0.98846 0.71834 0.0
C955 C 0.19509 0.97901 0.75097 0.0
C956 C 0.22356 0.97544 0.70011 0.0
C957 C 0.20763 0.9402 0.69479 0.0
C958 C 0.19999 0.96607 0.73141 0.0
C959 C 0.18817 0.91872 0.70828 0.0
C960 C 0.17533 0.95646 0.76394 0.0
C961 C 0.2057 0.02669 0.77409 0.0
N962 N 0.18489 0.93194 0.72587 0.0
N963 N 0.20959 1.01336 0.75653 0.0
H964 H 0.80855 0.48688 0.03812 0.0
H965 H 0.85145 0.38701 0.94028 0.0
H966 H 0.7893 0.36617 1.02857 0.0
H967 H 0.86488 0.50742 0.95196 0.0
H968 H 0.8284 0.3775 0.97222 0.0
H969 H 0.82885 0.49381 1.00632 0.0
C970 C 0.8083 0.46171 1.02942 0.0
C971 C 0.7968 0.42583 0.03637 0.0
C972 C 0.83632 0.40598 0.96768 0.0
C973 C 0.82139 0.4336 0.99946 0.0
C974 C 0.84921 0.41139 0.94943 0.0
C975 C 0.86002 0.44802 0.94334 0.0
C976 C 0.83429 0.43743 0.97985 0.0
C977 C 0.85695 0.47858 0.95593 0.0
C978 C 0.82033 0.4657 1.01115 0.0
C979 C 0.79833 0.39437 1.02417 0.0
N980 N 0.84461 0.47258 0.97344 0.0
N981 N 0.81037 0.39898 1.00639 0.0
H982 H 0.41118 0.08197 0.18775 0.0
H983 H 0.33757 0.08541 0.29199 0.0
H984 H 0.30018 0.12491 0.20455 0.0
H985 H 0.41509 0.99677 0.27345 0.0
H986 H 0.33133 0.10786 0.26025 0.0
H987 H 0.42025 0.05629 0.21934 0.0
C988 C 0.38888 0.08607 0.19797 0.0
C989 C 0.35514 0.10611 0.19344 0.0
C990 C 0.34966 0.08342 0.26309 0.0
C991 C 0.36559 0.0778 0.22945 0.0
C992 C 0.3534 0.0707 0.28125 0.0
C993 C 0.37687 0.03909 0.28544 0.0
C994 C 0.36988 0.0648 0.2489 0.0
C995 C 0.39638 1.021 0.27083 0.0
C996 C 0.39403 0.07148 0.21594 0.0
C997 C 0.32697 0.1102 0.20728 0.0
N998 N 0.39264 0.03423 0.25322 0.0
N999 N 0.33304 0.09679 0.22457 0.0
H1000 H 0.33477 0.50459 0.62223 0.0
H1001 H 0.33664 0.37555 0.53172 0.0
H1002 H 0.3748 0.38766 0.62363 0.0
H1003 H 0.26132 0.47323 0.53894 0.0
H1004 H 0.35579 0.38112 0.56395 0.0
H1005 H 0.31347 0.49558 0.59053 0.0
C1006 C 0.33825 0.47659 0.61598 0.0
C1007 C 0.35538 0.4464 0.6259 0.0
C1008 C 0.33508 0.40127 0.55839 0.0
C1009 C 0.33212 0.43623 0.58902 0.0
C1010 C 0.32376 0.39807 0.53988 0.0
C1011 C 0.29697 0.4239 0.53207 0.0
C1012 C 0.3202 0.43091 0.56933 0.0
C1013 C 0.2826 0.45294 0.54374 0.0
C1014 C 0.32628 0.47158 0.59778 0.0
C1015 C 0.36044 0.41124 0.61677 0.0
N1016 N 0.29452 0.4557 0.56157 0.0
N1017 N 0.3491 0.40719 0.59879 0.0
H1018 H 0.83611 0.08731 0.27505 0.0
H1019 H 0.90867 0.08086 0.37952 0.0
H1020 H 0.91236 0.99757 0.2937 0.0
H1021 H 0.8 0.12871 0.36229 0.0
H1022 H 0.91734 0.05519 0.34795 0.0
H1023 H 0.83011 0.10978 0.30674 0.0
C1024 C 0.85169 0.07234 0.2858 0.0
C1025 C 0.87476 0.04043 0.28164 0.0
C1026 C 0.89174 0.07151 0.35123 0.0
C1027 C 0.86798 0.06613 0.31816 0.0
C1028 C 0.88683 0.08608 0.3692 0.0
C1029 C 0.85394 0.10758 0.37357 0.0
C1030 C 0.8639 0.0792 0.3376 0.0
C1031 C 0.82633 0.11317 0.35961 0.0
C1032 C 0.84808 0.08507 0.30394 0.0
C1033 C 0.89395 1.02202 0.29628 0.0
N1034 N 0.83212 0.09958 0.34235 0.0
N1035 N 0.89032 0.03524 0.31388 0.0
H1036 H 0.20936 0.66703 0.128 0.0
H1037 H 0.25955 0.56482 1.03143 0.0
H1038 H 0.20269 0.54554 0.11758 0.0
H1039 H 0.26326 0.68777 0.03831 0.0
H1040 H 0.24079 0.55831 0.06349 0.0
H1041 H 0.23103 0.67645 0.0958 0.0
C1042 C 0.21317 0.64239 0.11913 0.0
C1043 C 0.20481 0.60543 0.12568 0.0
C1044 C 0.24554 0.58681 0.05802 0.0
C1045 C 0.22866 0.61592 0.08883 0.0
C1046 C 0.25667 0.59059 0.0396 0.0
C1047 C 0.26334 0.62696 1.03184 0.0
C1048 C 0.24068 0.61958 0.06907 0.0
C1049 C 0.25802 0.65909 0.04339 0.0
C1050 C 0.2251 0.64774 0.10071 0.0
C1051 C 0.20921 0.57458 0.11333 0.0
N1052 N 0.24706 0.65465 0.06134 0.0
N1053 N 0.22063 0.58052 0.09567 0.0
H1054 H 0.6171 0.02956 0.79007 0.0
H1055 H 0.75758 0.93565 0.86488 0.0
H1056 H 0.73458 0.99504 0.77988 0.0
H1057 H 0.63893 0.96078 0.8774 0.0
H1058 H 0.74833 0.95922 0.83392 0.0
H1059 H 0.6231 1.00577 0.8217 0.0
C1060 C 0.6441 1.01685 0.7943 0.0
C1061 C 0.67538 1.01456 0.78197 0.0
C1062 C 0.72416 0.95994 0.84332 0.0
C1063 C 0.68252 0.98806 0.81859 0.0
C1064 C 0.72939 0.94647 0.86118 0.0
C1065 C 0.69893 0.94622 0.87395 0.0
C1066 C 0.68813 0.97386 0.83786 0.0
C1067 C 0.66324 0.96062 0.8681 0.0
C1068 C 0.6475 1.00357 0.8125 0.0
C1069 C 0.70973 0.99838 0.78868 0.0
N1070 N 0.65878 0.97388 0.85044 0.0
N1071 N 0.71229 0.98598 0.80641 0.0
H1072 H 0.44863 0.21772 0.13056 0.0
H1073 H 0.61446 0.31986 0.18935 0.0
H1074 H 0.43442 0.25234 0.18722 0.0
H1075 H 0.61628 0.31547 0.12996 0.0
H1076 H 0.55087 0.29005 0.18911 0.0
H1077 H 0.51232 0.24788 0.13037 0.0
C1078 C 0.45883 0.23156 0.14298 0.0
C1079 C 0.43586 0.23242 0.15893 0.0
C1080 C 0.56511 0.29562 0.17611 0.0
C1081 C 0.5091 0.26697 0.1588 0.0
C1082 C 0.60156 0.3126 0.17624 0.0
C1083 C 0.62093 0.32031 0.15965 0.0
C1084 C 0.54784 0.28559 0.15929 0.0
C1085 C 0.60247 0.31028 0.14309 0.0
C1086 C 0.4952 0.2489 0.14283 0.0
C1087 C 0.45086 0.25089 0.17457 0.0
N1088 N 0.56716 0.29327 0.14334 0.0
N1089 N 0.4864 0.26722 0.17412 0.0
H1090 H 0.5719 0.68855 0.37952 0.0
H1091 H 0.50138 0.86991 0.43875 0.0
H1092 H 0.5761 0.69347 0.43889 0.0
H1093 H 0.48085 0.85961 0.38033 0.0
H1094 H 0.53163 0.80673 0.43863 0.0
H1095 H 0.54169 0.75215 0.37914 0.0
C1096 C 0.56668 0.70299 0.39248 0.0
C1097 C 0.5768 0.68545 0.40927 0.0
C1098 C 0.52052 0.81819 0.42581 0.0
C1099 C 0.542 0.75858 0.4089 0.0
C1100 C 0.5032 0.85444 0.42585 0.0
C1101 C 0.4884 0.87039 0.40951 0.0
C1102 C 0.52348 0.79741 0.40929 0.0
C1103 C 0.49177 0.84864 0.39327 0.0
C1104 C 0.54927 0.73933 0.39224 0.0
C1105 C 0.56901 0.7057 0.4256 0.0
N1106 N 0.50898 0.8134 0.39357 0.0
N1107 N 0.55222 0.74103 0.42499 0.0
H1108 H 0.93482 0.74765 0.68775 0.0
H1109 H 0.10797 0.83002 0.62642 0.0
H1110 H 0.94103 0.73103 0.62891 0.0
H1111 H 0.11462 0.81458 0.68533 0.0
H1112 H 0.0439 0.8003 0.62679 0.0
H1113 H 0.99795 0.77824 0.68687 0.0
C1114 C 0.94943 0.75034 0.67463 0.0
C1115 C 0.93245 0.73653 0.65839 0.0
C1116 C 0.05941 0.80356 0.63962 0.0
C1117 C 1.00495 0.77215 0.65727 0.0
C1118 C 0.09588 0.82074 0.63943 0.0
C1119 C 0.11682 0.82485 0.65584 0.0
C1120 C 0.0435 0.79089 0.65639 0.0
C1121 C 0.09971 0.81198 0.6723 0.0
C1122 C 0.98557 0.76783 0.67415 0.0
C1123 C 0.95297 0.74102 0.6418 0.0
N1124 N 0.06418 0.79576 0.67215 0.0
N1125 N 0.98797 0.75857 0.64166 0.0
H1126 H 0.93489 0.34113 0.89508 0.0
H1127 H 0.12252 0.21347 0.90039 0.0
H1128 H 0.03575 0.38535 0.92207 0.0
H1129 H 1.01346 0.16484 0.91589 0.0
H1130 H 0.09284 0.2778 0.90073 0.0
H1131 H 0.96454 0.27682 0.89502 0.0
C1132 C 0.96332 0.33735 0.9009 0.0
C1133 C 0.98277 0.36862 0.9087 0.0
C1134 C 0.07547 0.25296 0.90398 0.0
C1135 C 1.01723 0.29548 0.90815 0.0
C1136 C 0.09229 0.21631 0.9037 0.0
C1137 C 0.07043 0.18379 0.90816 0.0
C1138 C 0.03617 0.257 0.90806 0.0
C1139 C 0.03138 0.18917 0.91247 0.0
C1140 C 0.98011 0.3007 0.90091 0.0
C1141 C 1.01959 0.362 0.91607 0.0
N1142 N 1.01538 0.22494 0.91207 0.0
N1143 N 0.03582 0.32635 0.9154 0.0
H1144 H 0.615 0.82105 0.93763 0.0
H1145 H 0.43479 0.74702 0.87851 0.0
H1146 H 0.6109 0.82264 0.87821 0.0
H1147 H 0.4457 0.72694 0.93698 0.0
H1148 H 0.49774 0.7778 0.87856 0.0
H1149 H 0.55177 0.79005 0.93808 0.0
C1150 C 0.6008 0.8151 0.92467 0.0
C1151 C 0.61845 0.82473 0.90786 0.0
C1152 C 0.48647 0.76665 0.8914 0.0
C1153 C 0.54582 0.789 0.90829 0.0
C1154 C 0.45037 0.74904 0.8914 0.0
C1155 C 0.43468 0.73423 0.90777 0.0
C1156 C 0.50727 0.76996 0.90792 0.0
C1157 C 0.45654 0.73779 0.924 0.0
C1158 C 0.5647 0.79723 0.92495 0.0
C1159 C 0.59855 0.81599 0.89153 0.0
N1160 N 0.49156 0.75537 0.92367 0.0
N1161 N 0.56346 0.79877 0.89217 0.0
H1162 H 0.48695 0.36738 0.68974 0.0
H1163 H 0.55355 0.1837 0.63197 0.0
H1164 H 0.48721 0.36348 0.63032 0.0
H1165 H 0.58367 0.19873 0.68918 0.0
H1166 H 0.52512 0.24762 0.63173 0.0
H1167 H 0.51798 0.30414 0.69041 0.0
C1168 C 0.49338 0.35322 0.67683 0.0
C1169 C 0.48437 0.37092 0.65993 0.0
C1170 C 0.5381 0.23713 0.64433 0.0
C1171 C 0.51979 0.29822 0.66065 0.0
C1172 C 0.55439 0.20047 0.64452 0.0
C1173 C 0.57116 0.18558 0.66065 0.0
C1174 C 0.53804 0.25934 0.66045 0.0
C1175 C 0.57119 0.20895 0.67642 0.0
C1176 C 0.51128 0.31715 0.67724 0.0
C1177 C 0.49367 0.35114 0.64367 0.0
N1178 N 0.55469 0.24453 0.67596 0.0
N1179 N 0.51059 0.3159 0.64444 0.0
H1180 H 0.11854 0.30961 0.37921 0.0
H1181 H 0.94117 0.23045 0.43914 0.0
H1182 H 0.11075 0.32511 0.43806 0.0
H1183 H 0.93983 0.23867 0.37982 0.0
H1184 H 1.0049 0.26061 0.43932 0.0
H1185 H 0.05514 0.27953 0.37949 0.0
C1186 C 0.10357 0.30674 0.39223 0.0
C1187 C 0.12031 0.32012 0.40864 0.0
C1188 C 0.99065 0.25579 0.42627 0.0
C1189 C 0.04712 0.28509 0.40905 0.0
C1190 C 0.95423 0.2384 0.42614 0.0
C1191 C 0.93481 0.23181 0.40943 0.0
C1192 C 1.0082 0.2665 0.40957 0.0
C1193 C 0.95344 0.24301 0.39306 0.0
C1194 C 0.06719 0.28953 0.39236 0.0
C1195 C 0.09915 0.31543 0.42504 0.0
N1196 N 0.9889 0.2596 0.39355 0.0
N1197 N 0.06388 0.29823 0.42484 0.0
H1198 H 0.07943 0.6928 0.18839 0.0
H1199 H 0.98964 0.86519 0.12873 0.0
H1200 H 0.06062 0.68789 0.12966 0.0
H1201 H 0.98606 0.86348 0.18817 0.0
H1202 H 1.01923 0.80172 0.12909 0.0
H1203 H 0.0491 0.75651 0.18886 0.0
C1204 C 0.06898 0.705 0.1756 0.0
C1205 C 0.0726 0.68466 0.15897 0.0
C1206 C 1.01192 0.81509 0.14208 0.0
C1207 C 0.03797 0.75785 0.15942 0.0
C1208 C 0.99497 0.8515 0.1419 0.0
C1209 C 0.98513 0.86993 0.15845 0.0
C1210 C 1.01958 0.7967 0.15894 0.0
C1211 C 0.99298 0.85047 0.17505 0.0
C1212 C 0.05158 0.74139 0.1759 0.0
C1213 C 0.05846 0.70218 0.14285 0.0
N1214 N 1.00982 0.81505 0.17488 0.0
N1215 N 0.04198 0.73758 0.14349 0.0
H1216 H 0.31609 0.30939 0.16076 0.0
H1217 H 0.14268 0.43931 0.12442 0.0
H1218 H 0.22093 0.26194 0.1306 0.0
H1219 H 0.2077 0.46469 0.17353 0.0
H1220 H 0.17876 0.37917 0.12117 0.0
H1221 H 0.28548 0.37268 0.15928 0.0
C1222 C 0.28983 0.31282 0.15289 0.0
C1223 C 0.27163 0.28084 0.14514 0.0
C1224 C 0.18498 0.39794 0.13265 0.0
C1225 C 0.2358 0.35253 0.14404 0.0
C1226 C 0.16435 0.4321 0.13458 0.0
C1227 C 0.17173 0.45665 0.14947 0.0
C1228 C 0.21387 0.38882 0.14542 0.0
C1229 C 0.20052 0.44622 0.16206 0.0
C1230 C 0.27194 0.34867 0.15244 0.0
C1231 C 0.23644 0.28624 0.13611 0.0
N1232 N 0.2207 0.41318 0.1597 0.0
N1233 N 0.21953 0.32143 0.13584 0.0
H1234 H 0.33683 0.44529 0.37441 0.0
H1235 H 0.54514 0.48196 0.41527 0.0
H1236 H 0.36886 0.40608 0.42873 0.0
H1237 H 0.4883 0.56529 0.3808 0.0
H1238 H 0.48633 0.44325 0.4155 0.0
H1239 H 0.39781 0.47957 0.37211 0.0
C1240 C 0.35684 0.44366 0.38583 0.0
C1241 C 0.34784 0.4228 0.40183 0.0
C1242 C 0.48705 0.46961 0.4076 0.0
C1243 C 0.41778 0.46153 0.39907 0.0
C1244 C 0.52066 0.49136 0.40719 0.0
C1245 C 0.52168 0.52632 0.39756 0.0
C1246 C 0.45451 0.48267 0.39808 0.0
C1247 C 0.4888 0.53806 0.38798 0.0
C1248 C 0.3915 0.46337 0.38449 0.0
C1249 C 0.37469 0.42196 0.41621 0.0
N1250 N 0.45649 0.51616 0.3884 0.0
N1251 N 0.4087 0.44087 0.41445 0.0
H1252 H 0.24797 0.73702 0.61665 0.0
H1253 H 0.38814 0.61372 0.68055 0.0
H1254 H 0.30773 0.78899 0.66225 0.0
H1255 H 0.3656 0.58969 0.62321 0.0
H1256 H 0.35107 0.67372 0.67748 0.0
H1257 H 0.28212 0.67705 0.62268 0.0
C1258 C 0.26765 0.73547 0.62819 0.0
C1259 C 0.27459 0.7677 0.63904 0.0
C1260 C 0.35449 0.65519 0.66563 0.0
C1261 C 0.31408 0.69944 0.64601 0.0
C1262 C 0.37553 0.62108 0.66737 0.0
C1263 C 0.38008 0.59683 0.65211 0.0
C1264 C 0.33737 0.66437 0.64865 0.0
C1265 C 0.36313 0.60759 0.63533 0.0
C1266 C 0.28735 0.70142 0.63155 0.0
C1267 C 0.301 0.76451 0.65371 0.0
N1268 N 0.34238 0.64037 0.6341 0.0
N1269 N 0.31982 0.73083 0.6568 0.0
H1270 H 0.05884 0.48747 0.90854 0.0
H1271 H 0.18976 0.66263 0.87669 0.0
H1272 H 1.01314 0.58652 0.88055 0.0
H1273 H 0.21654 0.59233 0.92397 0.0
H1274 H 0.12974 0.62736 0.87271 0.0
H1275 H 0.12275 0.51701 0.90817 0.0
C1276 C 0.0628 0.51444 0.90135 0.0
C1277 C 0.03118 0.53407 0.89389 0.0
C1278 C 0.14873 0.61972 0.88396 0.0
C1279 C 0.10337 0.56851 0.89411 0.0
C1280 C 0.18285 0.63985 0.88629 0.0
C1281 C 0.20775 0.63064 0.90085 0.0
C1282 C 0.13987 0.58959 0.89601 0.0
C1283 C 0.19769 0.6007 0.91279 0.0
C1284 C 0.09896 0.53166 0.90157 0.0
C1285 C 0.03717 0.56999 0.88578 0.0
N1286 N 0.16449 0.58099 0.91005 0.0
N1287 N 0.07261 0.58619 0.88616 0.0
H1288 H 0.8195 0.79169 0.90003 0.0
H1289 H 0.86765 0.58922 0.94455 0.0
H1290 H 0.74342 0.73888 0.93941 0.0
H1291 H 0.89434 0.61539 0.88783 0.0
H1292 H 0.83284 0.65007 0.94693 0.0
H1293 H 0.85893 0.73335 0.89983 0.0
C1294 C 0.81191 0.76822 0.90913 0.0
C1295 C 0.77875 0.77021 0.92013 0.0
C1296 C 0.84646 0.64248 0.93402 0.0
C1297 C 0.82324 0.70355 0.91971 0.0
C1298 C 0.86647 0.60794 0.93263 0.0
C1299 C 0.88391 0.59735 0.91593 0.0
C1300 C 0.84467 0.667 0.91874 0.0
C1301 C 0.88117 0.62249 0.90091 0.0
C1302 C 0.83405 0.73486 0.90878 0.0
C1303 C 0.76926 0.73861 0.9311 0.0
N1304 N 0.86211 0.65639 0.9027 0.0
N1305 N 0.79155 0.70649 0.9307 0.0
H1306 H 0.68821 0.66253 0.69153 0.0
H1307 H 0.55855 0.4919 0.65344 0.0
H1308 H 0.7134 0.60106 0.64137 0.0
H1309 H 0.51238 0.58314 0.68672 0.0
H1310 H 0.62181 0.52255 0.65455 0.0
H1311 H 0.62887 0.62562 0.69481 0.0
C1312 C 0.68117 0.64136 0.68117 0.0
C1313 C 0.70543 0.63514 0.66601 0.0
C1314 C 0.59812 0.53521 0.6621 0.0
C1315 C 0.63833 0.59229 0.66999 0.0
C1316 C 0.56233 0.51732 0.66181 0.0
C1317 C 0.53078 0.53445 0.67058 0.0
C1318 C 0.60226 0.57026 0.67133 0.0
C1319 C 0.53643 0.56853 0.68034 0.0
C1320 C 0.64742 0.6203 0.6831 0.0
C1321 C 0.69515 0.60715 0.6531 0.0
N1322 N 0.57157 0.58548 0.68043 0.0
N1323 N 0.66238 0.58658 0.65542 0.0
H1324 H 0.71924 0.25989 0.43782 0.0
H1325 H 0.71203 0.46664 0.39383 0.0
H1326 H 0.8153 0.30959 0.4091 0.0
H1327 H 0.63858 0.43578 0.43944 0.0
H1328 H 0.74856 0.40768 0.39855 0.0
H1329 H 0.68867 0.32321 0.43912 0.0
C1330 C 0.73478 0.28461 0.4327 0.0
C1331 C 0.77044 0.27995 0.42402 0.0
C1332 C 0.72451 0.41382 0.40756 0.0
C1333 C 0.73472 0.35173 0.4243 0.0
C1334 C 0.7033 0.44725 0.40472 0.0
C1335 C 0.6718 0.45586 0.41607 0.0
C1336 C 0.71396 0.3885 0.42173 0.0
C1337 C 0.66242 0.43006 0.43025 0.0
C1338 C 0.71706 0.32056 0.43313 0.0
C1339 C 0.78851 0.31239 0.4166 0.0
N1340 N 0.68321 0.39731 0.43257 0.0
N1341 N 0.77012 0.34681 0.4166 0.0
H1342 H 0.83126 0.45735 0.18917 0.0
H1343 H 0.04869 0.46673 0.15602 0.0
H1344 H 0.87445 0.39197 0.14321 0.0
H1345 H 0.98978 0.56816 0.17468 0.0
H1346 H 0.98923 0.43008 0.15974 0.0
H1347 H 0.89317 0.49069 0.19119 0.0
C1348 C 0.85394 0.44992 0.17958 0.0
C1349 C 0.84796 0.42211 0.16592 0.0
C1350 C 0.98967 0.46008 0.16358 0.0
C1351 C 0.91869 0.45908 0.16857 0.0
C1352 C 1.02368 0.48078 0.16186 0.0
C1353 C 1.02426 0.5202 0.1656 0.0
C1354 C 0.9561 0.47893 0.16922 0.0
C1355 C 0.99069 0.53755 0.17227 0.0
C1356 C 0.88907 0.46892 0.18075 0.0
C1357 C 0.878 0.41353 0.15379 0.0
N1358 N 0.95773 0.5168 0.1738 0.0
N1359 N 0.91233 0.43176 0.1555 0.0
H1360 H 0.71239 0.76287 0.63046 0.0
H1361 H 0.71416 0.97199 0.6704 0.0
H1362 H 0.81325 0.81216 0.65518 0.0
H1363 H 0.63772 0.94163 0.62599 0.0
H1364 H 0.74947 0.9123 0.66562 0.0
H1365 H 0.68373 0.82702 0.62829 0.0
C1366 C 0.72926 0.78753 0.63451 0.0
C1367 C 0.76579 0.78256 0.64228 0.0
C1368 C 0.72523 0.91881 0.65678 0.0
C1369 C 0.73243 0.85546 0.64097 0.0
C1370 C 0.70487 0.95273 0.65959 0.0
C1371 C 0.67292 0.96163 0.6486 0.0
C1372 C 0.71319 0.89317 0.64308 0.0
C1373 C 0.66231 0.93583 0.63471 0.0
C1374 C 0.71271 0.82401 0.63355 0.0
C1375 C 0.78568 0.81508 0.64838 0.0
N1376 N 0.68213 0.90242 0.63249 0.0
N1377 N 0.76846 0.8501 0.6479 0.0
H1378 H 0.86879 0.88187 0.8782 0.0
H1379 H 0.99496 0.06427 0.90588 0.0
H1380 H 0.83795 0.96092 0.92147 0.0
H1381 H 0.04387 0.96395 0.88046 0.0
H1382 H 0.93163 0.03372 0.90518 0.0
H1383 H 0.92853 0.91769 0.87335 0.0
C1384 C 0.87467 0.90661 0.88674 0.0
C1385 C 0.8487 0.91801 0.9005 0.0
C1386 C 0.95598 1.01893 0.89916 0.0
C1387 C 0.91621 0.9597 0.89459 0.0
C1388 C 0.9919 0.03675 0.89913 0.0
C1389 C 1.02432 1.01712 0.89254 0.0
C1390 C 0.95251 0.98138 0.89243 0.0
C1391 C 1.01927 0.98049 0.88503 0.0
C1392 C 0.90863 0.92708 0.8839 0.0
C1393 C 0.8575 0.95064 0.91097 0.0
N1394 N 0.98406 0.96365 0.88525 0.0
N1395 N 0.89045 0.97041 0.90776 0.0
H1396 H 0.92025 0.1195 0.12746 0.0
H1397 H 0.73741 0.24439 0.15655 0.0
H1398 H 0.83758 0.08259 0.1681 0.0
H1399 H 0.84277 0.29469 0.13699 0.0
H1400 H 0.76666 0.18054 0.15375 0.0
H1401 H 0.88552 0.18038 0.12452 0.0
C1402 C 0.89471 0.1242 0.1357 0.0
C1403 C 0.88192 0.09628 0.14817 0.0
C1404 C 0.78292 0.20551 0.14953 0.0
C1405 C 0.84173 0.16513 0.14454 0.0
C1406 C 0.766 0.24176 0.15076 0.0
C1407 C 0.78745 0.27449 0.14641 0.0
C1408 C 0.82131 0.20224 0.14376 0.0
C1409 C 0.82508 0.2699 0.13992 0.0
C1410 C 0.87495 0.15883 0.13401 0.0
C1411 C 0.84865 0.10366 0.1585 0.0
N1412 N 0.84095 0.23438 0.13884 0.0
N1413 N 0.82956 0.13741 0.15642 0.0
H1414 H 0.56282 0.98349 0.40866 0.0
H1415 H 0.68502 0.16541 0.37604 0.0
H1416 H 0.51121 0.08329 0.38384 0.0
H1417 H 0.72182 0.08649 0.41841 0.0
H1418 H 0.62511 0.12904 0.37292 0.0
H1419 H 0.62617 1.0135 0.40557 0.0
C1420 C 0.56516 1.01081 0.40161 0.0
C1421 C 0.53211 0.03051 0.39589 0.0
C1422 C 0.64645 0.11966 0.38282 0.0
C1423 C 0.60387 0.06556 0.393 0.0
C1424 C 0.68054 0.14038 0.38462 0.0
C1425 C 0.70817 0.12914 0.39762 0.0
C1426 C 0.64043 0.08706 0.39382 0.0
C1427 C 0.70103 0.09643 0.40837 0.0
C1428 C 0.60112 0.02828 0.40023 0.0
C1429 C 0.53628 0.06679 0.38784 0.0
N1430 N 0.66788 0.07648 0.4062 0.0
N1431 N 0.57153 0.08332 0.38671 0.0
H1432 H 0.33779 0.29412 0.43477 0.0
H1433 H 0.34196 0.08418 0.39499 0.0
H1434 H 0.24023 0.24439 0.40733 0.0
H1435 H 0.41209 0.1165 0.44146 0.0
H1436 H 0.30651 0.1445 0.39797 0.0
H1437 H 0.36703 0.23028 0.43711 0.0
C1438 C 0.32178 0.26938 0.43006 0.0
C1439 C 0.28603 0.27401 0.42152 0.0
C1440 C 0.32954 0.13826 0.40757 0.0
C1441 C 0.32005 0.20171 0.42304 0.0
C1442 C 0.35002 0.10409 0.40575 0.0
C1443 C 0.38014 0.09559 0.41792 0.0
C1444 C 0.33968 0.16428 0.42147 0.0
C1445 C 0.38907 0.12208 0.43178 0.0
C1446 C 0.33865 0.23313 0.43114 0.0
C1447 C 0.26719 0.24155 0.41467 0.0
N1448 N 0.36914 0.15547 0.43309 0.0
N1449 N 0.28474 0.20675 0.4153 0.0
H1450 H 0.06148 0.98772 0.15564 0.0
H1451 H 0.19124 0.15911 0.19285 0.0
H1452 H 1.01523 0.07999 0.18822 0.0
H1453 H 0.21551 0.09774 0.14257 0.0
H1454 H 0.13212 0.12192 0.19647 0.0
H1455 H 0.12483 1.01822 0.15675 0.0
C1456 C 0.06526 1.01326 0.16393 0.0
C1457 C 0.03361 0.03079 0.17244 0.0
C1458 C 0.15042 0.11669 0.18465 0.0
C1459 C 0.1052 0.06643 0.17315 0.0
C1460 C 0.184 0.13793 0.18253 0.0
C1461 C 0.2079 0.13186 0.16722 0.0
C1462 C 0.14118 0.08858 0.17161 0.0
C1463 C 0.19747 0.10378 0.15438 0.0
C1464 C 0.10109 0.03109 0.16418 0.0
C1465 C 0.03932 0.06505 0.18207 0.0
N1466 N 0.16489 0.08299 0.15691 0.0
N1467 N 0.07448 0.08193 0.18212 0.0
H1468 H 0.13953 0.93679 0.94047 0.0
H1469 H 0.31613 0.8085 0.9067 0.0
H1470 H 0.21036 0.9657 0.89365 0.0
H1471 H 0.21806 0.76067 0.93463 0.0
H1472 H 0.28605 0.87206 0.90821 0.0
H1473 H 0.1755 0.87679 0.944 0.0
C1474 C 0.1626 0.93045 0.93091 0.0
C1475 C 0.17172 0.95593 0.91658 0.0
C1476 C 0.27169 0.84785 0.91454 0.0
C1477 C 0.21348 0.88812 0.9209 0.0
C1478 C 0.2892 0.81184 0.91404 0.0
C1479 C 0.26999 0.77977 0.92113 0.0
C1480 C 0.23494 0.85165 0.9223 0.0
C1481 C 0.23418 0.78504 0.92957 0.0
C1482 C 0.18311 0.89633 0.93297 0.0
C1483 C 0.20204 0.94652 0.90468 0.0
N1484 N 0.21765 0.82037 0.92988 0.0
N1485 N 0.222 0.91338 0.90715 0.0
H1486 H 0.36242 0.91452 0.63867 0.0
H1487 H 0.48645 0.04954 0.70367 0.0
H1488 H 0.33681 0.93065 0.69632 0.0
H1489 H 0.53531 0.99502 0.65576 0.0
H1490 H 0.42716 1.01325 0.69895 0.0
H1491 H 0.42233 0.95006 0.64272 0.0
C1492 C 0.3695 0.92543 0.65222 0.0
C1493 C 0.34464 0.91967 0.66721 0.0
C1494 C 0.45072 1.00953 0.68936 0.0
C1495 C 0.4128 0.96082 0.67181 0.0
C1496 C 0.48435 0.03048 0.69194 0.0
C1497 C 0.51553 1.02576 0.68 0.0
C1498 C 0.448 0.98397 0.67453 0.0
C1499 C 0.51168 1.00014 0.66515 0.0
C1500 C 0.40372 0.94562 0.65449 0.0
C1501 C 0.35528 0.93427 0.68444 0.0
N1502 N 0.47837 0.9803 0.66278 0.0
N1503 N 0.38844 0.95454 0.68624 0.0
loop_
_geom_bond_atom_site_label_1
_geom_bond_atom_site_label_2
_geom_bond_distance
_geom_bond_site_symmetry_2
_ccdc_geom_bond_type
C0 Eu1 2.835 . S
C0 C2 1.500 . S
C0 O20 1.257 . S
C0 O21 1.260 . S
Eu1 C0 2.835 . S
Eu1 O20 2.473 . S
Eu1 O21 2.480 . S
Eu1 O22 2.430 . S
Eu1 O23 2.670 . S
Eu1 O24 2.394 . S
Eu1 O29 2.355 . S
Eu1 O31 2.374 . S
C2 C0 1.500 . S
C2 C3 1.377 . S
C2 C7 1.377 . S
C3 C2 1.377 . S
C3 C4 1.395 . S
C3 H32 0.931 . S
C4 C3 1.395 . S
C4 C5 1.383 . S
C4 H33 0.931 1_545 S
C5 C4 1.383 . S
C5 C6 1.394 . S
C6 C5 1.394 . S
C6 C7 1.378 . S
C6 H34 0.931 . S
C7 C2 1.377 . S
C7 C6 1.378 . S
C7 H35 0.931 . S
C8 O22 1.259 . S
C8 O23 1.270 . S
C9 O24 1.251 . S
C9 O25 1.251 . S
C10 Eu11 2.835 . S
C10 C12 1.500 . S
C10 O26 1.257 . S
C10 O27 1.260 . S
Eu11 C10 2.835 . S
Eu11 O23 2.355 . S
Eu11 O25 2.374 . S
Eu11 O26 2.473 . S
Eu11 O27 2.480 . S
Eu11 O28 2.430 . S
Eu11 O29 2.670 . S
Eu11 O30 2.394 . S
C12 C10 1.500 . S
C12 C13 1.377 . S
C12 C17 1.377 . S
C13 C12 1.377 . S
C13 C14 1.395 . S
C13 H36 0.931 . S
C14 C13 1.395 . S
C14 C15 1.383 . S
C14 H37 0.931 . S
C15 C14 1.383 . S
C15 C16 1.394 . S
C16 C15 1.394 . S
C16 C17 1.378 . S
C16 H38 0.931 . S
C17 C12 1.377 . S
C17 C16 1.378 . S
C17 H39 0.931 . S
C18 O28 1.259 . S
C18 O29 1.270 . S
C19 O30 1.251 . S
C19 O31 1.251 . S
O20 C0 1.257 . S
O20 Eu1 2.473 . S
O21 C0 1.260 . S
O21 Eu1 2.480 . S
O22 Eu1 2.430 . S
O22 C8 1.259 . S
O23 Eu1 2.670 . S
O23 C8 1.270 . S
O23 Eu11 2.355 . S
O24 Eu1 2.394 . S
O24 C9 1.251 . S
O25 C9 1.251 . S
O25 Eu11 2.374 . S
O26 C10 1.257 . S
O26 Eu11 2.473 . S
O27 C10 1.260 . S
O27 Eu11 2.480 . S
O28 Eu11 2.430 . S
O28 C18 1.259 . S
O29 Eu1 2.355 . S
O29 Eu11 2.670 . S
O29 C18 1.270 . S
O30 Eu11 2.394 . S
O30 C19 1.251 . S
O31 Eu1 2.374 . S
O31 C19 1.251 . S
H32 C3 0.931 . S
H33 C4 0.931 1_565 S
H34 C6 0.931 . S
H35 C7 0.931 . S
H36 C13 0.931 . S
H37 C14 0.931 . S
H38 C16 0.931 . S
H39 C17 0.931 . S
C40 Eu41 2.835 . S
C40 C42 1.500 . S
C40 O60 1.257 . S
C40 O61 1.260 . S
Eu41 C40 2.835 . S
Eu41 O60 2.473 . S
Eu41 O61 2.480 . S
Eu41 O62 2.430 . S
Eu41 O63 2.670 . S
Eu41 O64 2.394 . S
Eu41 O69 2.355 . S
Eu41 O71 2.374 . S
C42 C40 1.500 . S
C42 C43 1.377 . S
C42 C47 1.377 . S
C43 C42 1.377 . S
C43 C44 1.395 . S
C43 H72 0.931 . S
C44 C43 1.395 . S
C44 C45 1.383 . S
C44 H73 0.931 . S
C45 C44 1.383 . S
C45 C46 1.394 . S
C46 C45 1.394 . S
C46 C47 1.378 . S
C46 H74 0.931 . S
C47 C42 1.377 . S
C47 C46 1.378 . S
C47 H75 0.931 . S
C48 O62 1.259 . S
C48 O63 1.270 . S
C49 O64 1.251 . S
C49 O65 1.251 . S
C50 Eu51 2.835 . S
C50 C52 1.500 . S
C50 O66 1.257 . S
C50 O67 1.260 . S
Eu51 C50 2.835 . S
Eu51 O63 2.355 . S
Eu51 O65 2.374 . S
Eu51 O66 2.473 . S
Eu51 O67 2.480 . S
Eu51 O68 2.430 . S
Eu51 O69 2.670 . S
Eu51 O70 2.394 . S
C52 C50 1.500 . S
C52 C53 1.377 . S
C52 C57 1.377 . S
C53 C52 1.377 . S
C53 C54 1.395 . S
C53 H76 0.931 . S
C54 C53 1.395 . S
C54 C55 1.383 . S
C54 H77 0.931 . S
C55 C54 1.383 . S
C55 C56 1.394 . S
C56 C55 1.394 . S
C56 C57 1.378 . S
C56 H78 0.931 . S
C57 C52 1.377 . S
C57 C56 1.378 . S
C57 H79 0.931 . S
C58 O68 1.259 . S
C58 O69 1.270 . S
C59 O70 1.251 . S
C59 O71 1.251 . S
O60 C40 1.257 . S
O60 Eu41 2.473 . S
O61 C40 1.260 . S
O61 Eu41 2.480 . S
O62 Eu41 2.430 . S
O62 C48 1.259 . S
O63 Eu41 2.670 . S
O63 C48 1.270 . S
O63 Eu51 2.355 . S
O64 Eu41 2.394 . S
O64 C49 1.251 . S
O65 C49 1.251 . S
O65 Eu51 2.374 . S
O66 C50 1.257 . S
O66 Eu51 2.473 . S
O67 C50 1.260 . S
O67 Eu51 2.480 . S
O68 Eu51 2.430 . S
O68 C58 1.259 . S
O69 Eu41 2.355 . S
O69 Eu51 2.670 . S
O69 C58 1.270 . S
O70 Eu51 2.394 . S
O70 C59 1.251 . S
O71 Eu41 2.374 . S
O71 C59 1.251 . S
H72 C43 0.931 . S
H73 C44 0.931 . S
H74 C46 0.931 . S
H75 C47 0.931 . S
H76 C53 0.931 . S
H77 C54 0.931 . S
H78 C56 0.931 . S
H79 C57 0.931 . S
C80 Eu81 2.835 . S
C80 C82 1.500 . S
C80 O100 1.257 . S
C80 O101 1.260 . S
Eu81 C80 2.835 . S
Eu81 O100 2.473 . S
Eu81 O101 2.480 . S
Eu81 O102 2.430 . S
Eu81 O103 2.670 . S
Eu81 O104 2.394 . S
Eu81 O109 2.355 . S
Eu81 O111 2.374 . S
C82 C80 1.500 . S
C82 C83 1.377 . S
C82 C87 1.377 . S
C83 C82 1.377 . S
C83 C84 1.395 . S
C83 H112 0.931 . S
C84 C83 1.395 . S
C84 C85 1.383 . S
C84 H113 0.931 1_565 S
C85 C84 1.383 . S
C85 C86 1.394 . S
C86 C85 1.394 . S
C86 C87 1.378 . S
C86 H114 0.931 . S
C87 C82 1.377 . S
C87 C86 1.378 . S
C87 H115 0.931 . S
C88 O102 1.259 . S
C88 O103 1.270 . S
C89 O104 1.251 . S
C89 O105 1.251 . S
C90 Eu91 2.835 . S
C90 C92 1.500 . S
C90 O106 1.257 . S
C90 O107 1.260 . S
Eu91 C90 2.835 . S
Eu91 O103 2.355 . S
Eu91 O105 2.374 . S
Eu91 O106 2.473 . S
Eu91 O107 2.480 . S
Eu91 O108 2.430 . S
Eu91 O109 2.670 . S
Eu91 O110 2.394 . S
C92 C90 1.500 . S
C92 C93 1.377 . S
C92 C97 1.377 . S
C93 C92 1.377 . S
C93 C94 1.395 . S
C93 H116 0.931 . S
C94 C93 1.395 . S
C94 C95 1.383 . S
C94 H117 0.931 . S
C95 C94 1.383 . S
C95 C96 1.394 . S
C96 C95 1.394 . S
C96 C97 1.378 . S
C96 H118 0.931 . S
C97 C92 1.377 . S
C97 C96 1.378 . S
C97 H119 0.931 . S
C98 O108 1.259 . S
C98 O109 1.270 . S
C99 O110 1.251 . S
C99 O111 1.251 . S
O100 C80 1.257 . S
O100 Eu81 2.473 . S
O101 C80 1.260 . S
O101 Eu81 2.480 . S
O102 Eu81 2.430 . S
O102 C88 1.259 . S
O103 Eu81 2.670 . S
O103 C88 1.270 . S
O103 Eu91 2.355 . S
O104 Eu81 2.394 . S
O104 C89 1.251 . S
O105 C89 1.251 . S
O105 Eu91 2.374 . S
O106 C90 1.257 . S
O106 Eu91 2.473 . S
O107 C90 1.260 . S
O107 Eu91 2.480 . S
O108 Eu91 2.430 . S
O108 C98 1.259 . S
O109 Eu81 2.355 . S
O109 Eu91 2.670 . S
O109 C98 1.270 . S
O110 Eu91 2.394 . S
O110 C99 1.251 . S
O111 Eu81 2.374 . S
O111 C99 1.251 . S
H112 C83 0.931 . S
H113 C84 0.931 1_545 S
H114 C86 0.931 . S
H115 C87 0.931 . S
H116 C93 0.931 . S
H117 C94 0.931 . S
H118 C96 0.931 . S
H119 C97 0.931 . S
C120 Eu121 2.835 . S
C120 C122 1.500 . S
C120 O140 1.257 . S
C120 O141 1.260 . S
Eu121 C120 2.835 . S
Eu121 O140 2.473 . S
Eu121 O141 2.480 . S
Eu121 O142 2.430 . S
Eu121 O143 2.670 . S
Eu121 O144 2.394 . S
Eu121 O149 2.355 . S
Eu121 O151 2.374 . S
C122 C120 1.500 . S
C122 C123 1.377 . S
C122 C127 1.377 . S
C123 C122 1.377 . S
C123 C124 1.395 . S
C123 H152 0.931 . S
C124 C123 1.395 . S
C124 C125 1.383 . S
C124 H153 0.931 . S
C125 C124 1.383 . S
C125 C126 1.394 . S
C126 C125 1.394 . S
C126 C127 1.378 . S
C126 H154 0.931 . S
C127 C122 1.377 . S
C127 C126 1.378 . S
C127 H155 0.931 . S
C128 O142 1.259 . S
C128 O143 1.270 . S
C129 O144 1.251 . S
C129 O145 1.251 . S
C130 Eu131 2.835 . S
C130 C132 1.500 . S
C130 O146 1.257 . S
C130 O147 1.260 . S
Eu131 C130 2.835 . S
Eu131 O143 2.355 . S
Eu131 O145 2.374 . S
Eu131 O146 2.473 . S
Eu131 O147 2.480 . S
Eu131 O148 2.430 . S
Eu131 O149 2.670 . S
Eu131 O150 2.394 . S
C132 C130 1.500 . S
C132 C133 1.377 . S
C132 C137 1.377 . S
C133 C132 1.377 . S
C133 C134 1.395 1_655 S
C133 H156 0.931 1_655 S
C134 C133 1.395 1_455 S
C134 C135 1.383 1_455 S
C134 H157 0.931 . S
C135 C134 1.383 1_655 S
C135 C136 1.394 . S
C136 C135 1.394 . S
C136 C137 1.378 . S
C136 H158 0.931 . S
C137 C132 1.377 . S
C137 C136 1.378 . S
C137 H159 0.931 . S
C138 O148 1.259 . S
C138 O149 1.270 . S
C139 O150 1.251 . S
C139 O151 1.251 . S
O140 C120 1.257 . S
O140 Eu121 2.473 . S
O141 C120 1.260 . S
O141 Eu121 2.480 . S
O142 Eu121 2.430 . S
O142 C128 1.259 . S
O143 Eu121 2.670 . S
O143 C128 1.270 . S
O143 Eu131 2.355 . S
O144 Eu121 2.394 . S
O144 C129 1.251 . S
O145 C129 1.251 . S
O145 Eu131 2.374 . S
O146 C130 1.257 . S
O146 Eu131 2.473 . S
O147 C130 1.260 . S
O147 Eu131 2.480 . S
O148 Eu131 2.430 . S
O148 C138 1.259 . S
O149 Eu121 2.355 . S
O149 Eu131 2.670 . S
O149 C138 1.270 . S
O150 Eu131 2.394 . S
O150 C139 1.251 . S
O151 Eu121 2.374 . S
O151 C139 1.251 . S
H152 C123 0.931 . S
H153 C124 0.931 . S
H154 C126 0.931 . S
H155 C127 0.931 . S
H156 C133 0.931 1_455 S
H157 C134 0.931 . S
H158 C136 0.931 . S
H159 C137 0.931 . S
C160 Eu161 2.835 . S
C160 C162 1.500 . S
C160 O180 1.257 . S
C160 O181 1.260 . S
Eu161 C160 2.835 . S
Eu161 O180 2.473 . S
Eu161 O181 2.480 . S
Eu161 O182 2.430 . S
Eu161 O183 2.670 . S
Eu161 O184 2.394 . S
Eu161 O189 2.355 . S
Eu161 O191 2.374 . S
C162 C160 1.500 . S
C162 C163 1.377 . S
C162 C167 1.377 . S
C163 C162 1.377 . S
C163 C164 1.395 . S
C163 H192 0.931 . S
C164 C163 1.395 . S
C164 C165 1.383 . S
C164 H193 0.931 . S
C165 C164 1.383 . S
C165 C166 1.394 . S
C166 C165 1.394 . S
C166 C167 1.378 . S
C166 H194 0.931 . S
C167 C162 1.377 . S
C167 C166 1.378 . S
C167 H195 0.931 . S
C168 O182 1.259 . S
C168 O183 1.270 . S
C169 O184 1.251 . S
C169 O185 1.251 . S
C170 Eu171 2.835 . S
C170 C172 1.500 . S
C170 O186 1.257 . S
C170 O187 1.260 . S
Eu171 C170 2.835 . S
Eu171 O183 2.355 . S
Eu171 O185 2.374 . S
Eu171 O186 2.473 . S
Eu171 O187 2.480 . S
Eu171 O188 2.430 . S
Eu171 O189 2.670 . S
Eu171 O190 2.394 . S
C172 C170 1.500 . S
C172 C173 1.377 . S
C172 C177 1.377 . S
C173 C172 1.377 . S
C173 C174 1.395 . S
C173 H196 0.931 . S
C174 C173 1.395 . S
C174 C175 1.383 . S
C174 H197 0.931 1_565 S
C175 C174 1.383 . S
C175 C176 1.394 . S
C176 C175 1.394 . S
C176 C177 1.378 . S
C176 H198 0.931 . S
C177 C172 1.377 . S
C177 C176 1.378 . S
C177 H199 0.931 . S
C178 O188 1.259 . S
C178 O189 1.270 . S
C179 O190 1.251 . S
C179 O191 1.251 . S
O180 C160 1.257 . S
O180 Eu161 2.473 . S
O181 C160 1.260 . S
O181 Eu161 2.480 . S
O182 Eu161 2.430 . S
O182 C168 1.259 . S
O183 Eu161 2.670 . S
O183 C168 1.270 . S
O183 Eu171 2.355 . S
O184 Eu161 2.394 . S
O184 C169 1.251 . S
O185 C169 1.251 . S
O185 Eu171 2.374 . S
O186 C170 1.257 . S
O186 Eu171 2.473 . S
O187 C170 1.260 . S
O187 Eu171 2.480 . S
O188 Eu171 2.430 . S
O188 C178 1.259 . S
O189 Eu161 2.355 . S
O189 Eu171 2.670 . S
O189 C178 1.270 . S
O190 Eu171 2.394 . S
O190 C179 1.251 . S
O191 Eu161 2.374 . S
O191 C179 1.251 . S
H192 C163 0.931 . S
H193 C164 0.931 . S
H194 C166 0.931 . S
H195 C167 0.931 . S
H196 C173 0.931 . S
H197 C174 0.931 1_545 S
H198 C176 0.931 . S
H199 C177 0.931 . S
C200 Eu201 2.835 . S
C200 C202 1.500 . S
C200 O220 1.257 . S
C200 O221 1.260 . S
Eu201 C200 2.835 . S
Eu201 O220 2.473 . S
Eu201 O221 2.480 . S
Eu201 O222 2.430 . S
Eu201 O223 2.670 . S
Eu201 O224 2.394 . S
Eu201 O229 2.355 . S
Eu201 O231 2.374 . S
C202 C200 1.500 . S
C202 C203 1.377 . S
C202 C207 1.377 . S
C203 C202 1.377 . S
C203 C204 1.395 . S
C203 H232 0.931 . S
C204 C203 1.395 . S
C204 C205 1.383 . S
C204 H233 0.931 . S
C205 C204 1.383 . S
C205 C206 1.394 . S
C206 C205 1.394 . S
C206 C207 1.378 . S
C206 H234 0.931 . S
C207 C202 1.377 . S
C207 C206 1.378 . S
C207 H235 0.931 . S
C208 O222 1.259 . S
C208 O223 1.270 . S
C209 O224 1.251 . S
C209 O225 1.251 . S
C210 Eu211 2.835 . S
C210 C212 1.500 . S
C210 O226 1.257 . S
C210 O227 1.260 . S
Eu211 C210 2.835 . S
Eu211 O223 2.355 . S
Eu211 O225 2.374 . S
Eu211 O226 2.473 . S
Eu211 O227 2.480 . S
Eu211 O228 2.430 . S
Eu211 O229 2.670 . S
Eu211 O230 2.394 . S
C212 C210 1.500 . S
C212 C213 1.377 . S
C212 C217 1.377 . S
C213 C212 1.377 . S
C213 C214 1.395 . S
C213 H236 0.931 . S
C214 C213 1.395 . S
C214 C215 1.383 . S
C214 H237 0.931 . S
C215 C214 1.383 . S
C215 C216 1.394 . S
C216 C215 1.394 . S
C216 C217 1.378 . S
C216 H238 0.931 . S
C217 C212 1.377 . S
C217 C216 1.378 . S
C217 H239 0.931 . S
C218 O228 1.259 . S
C218 O229 1.270 . S
C219 O230 1.251 . S
C219 O231 1.251 . S
O220 C200 1.257 . S
O220 Eu201 2.473 . S
O221 C200 1.260 . S
O221 Eu201 2.480 . S
O222 Eu201 2.430 . S
O222 C208 1.259 . S
O223 Eu201 2.670 . S
O223 C208 1.270 . S
O223 Eu211 2.355 . S
O224 Eu201 2.394 . S
O224 C209 1.251 . S
O225 C209 1.251 . S
O225 Eu211 2.374 . S
O226 C210 1.257 . S
O226 Eu211 2.473 . S
O227 C210 1.260 . S
O227 Eu211 2.480 . S
O228 Eu211 2.430 . S
O228 C218 1.259 . S
O229 Eu201 2.355 . S
O229 Eu211 2.670 . S
O229 C218 1.270 . S
O230 Eu211 2.394 . S
O230 C219 1.251 . S
O231 Eu201 2.374 . S
O231 C219 1.251 . S
H232 C203 0.931 . S
H233 C204 0.931 . S
H234 C206 0.931 . S
H235 C207 0.931 . S
H236 C213 0.931 . S
H237 C214 0.931 . S
H238 C216 0.931 . S
H239 C217 0.931 . S
C240 Eu241 2.835 . S
C240 C242 1.500 . S
C240 O260 1.257 . S
C240 O261 1.260 . S
Eu241 C240 2.835 . S
Eu241 O260 2.473 . S
Eu241 O261 2.480 . S
Eu241 O262 2.430 . S
Eu241 O263 2.670 . S
Eu241 O264 2.394 . S
Eu241 O269 2.355 . S
Eu241 O271 2.374 . S
C242 C240 1.500 . S
C242 C243 1.377 . S
C242 C247 1.377 . S
C243 C242 1.377 . S
C243 C244 1.395 . S
C243 H272 0.931 . S
C244 C243 1.395 . S
C244 C245 1.383 . S
C244 H273 0.931 . S
C245 C244 1.383 . S
C245 C246 1.394 . S
C246 C245 1.394 . S
C246 C247 1.378 . S
C246 H274 0.931 . S
C247 C242 1.377 . S
C247 C246 1.378 . S
C247 H275 0.931 . S
C248 O262 1.259 . S
C248 O263 1.270 . S
C249 O264 1.251 . S
C249 O265 1.251 . S
C250 Eu251 2.835 . S
C250 C252 1.500 . S
C250 O266 1.257 . S
C250 O267 1.260 . S
Eu251 C250 2.835 . S
Eu251 O263 2.355 . S
Eu251 O265 2.374 . S
Eu251 O266 2.473 . S
Eu251 O267 2.480 . S
Eu251 O268 2.430 . S
Eu251 O269 2.670 . S
Eu251 O270 2.394 . S
C252 C250 1.500 . S
C252 C253 1.377 . S
C252 C257 1.377 . S
C253 C252 1.377 . S
C253 C254 1.395 . S
C253 H276 0.931 . S
C254 C253 1.395 . S
C254 C255 1.383 . S
C254 H277 0.931 1_545 S
C255 C254 1.383 . S
C255 C256 1.394 . S
C256 C255 1.394 . S
C256 C257 1.378 . S
C256 H278 0.931 . S
C257 C252 1.377 . S
C257 C256 1.378 . S
C257 H279 0.931 . S
C258 O268 1.259 . S
C258 O269 1.270 . S
C259 O270 1.251 . S
C259 O271 1.251 . S
O260 C240 1.257 . S
O260 Eu241 2.473 . S
O261 C240 1.260 . S
O261 Eu241 2.480 . S
O262 Eu241 2.430 . S
O262 C248 1.259 . S
O263 Eu241 2.670 . S
O263 C248 1.270 . S
O263 Eu251 2.355 . S
O264 Eu241 2.394 . S
O264 C249 1.251 . S
O265 C249 1.251 . S
O265 Eu251 2.374 . S
O266 C250 1.257 . S
O266 Eu251 2.473 . S
O267 C250 1.260 . S
O267 Eu251 2.480 . S
O268 Eu251 2.430 . S
O268 C258 1.259 . S
O269 Eu241 2.355 . S
O269 Eu251 2.670 . S
O269 C258 1.270 . S
O270 Eu251 2.394 . S
O270 C259 1.251 . S
O271 Eu241 2.374 . S
O271 C259 1.251 . S
H272 C243 0.931 . S
H273 C244 0.931 . S
H274 C246 0.931 . S
H275 C247 0.931 . S
H276 C253 0.931 . S
H277 C254 0.931 1_565 S
H278 C256 0.931 . S
H279 C257 0.931 . S
C280 Eu281 2.835 . S
C280 C282 1.500 . S
C280 O300 1.257 . S
C280 O301 1.260 . S
Eu281 C280 2.835 . S
Eu281 O300 2.473 . S
Eu281 O301 2.480 . S
Eu281 O302 2.430 . S
Eu281 O303 2.670 . S
Eu281 O304 2.394 . S
Eu281 O309 2.355 . S
Eu281 O311 2.374 . S
C282 C280 1.500 . S
C282 C283 1.377 . S
C282 C287 1.377 . S
C283 C282 1.377 . S
C283 C284 1.395 1_455 S
C283 H312 0.931 1_455 S
C284 C283 1.395 1_655 S
C284 C285 1.383 1_655 S
C284 H313 0.931 . S
C285 C284 1.383 1_455 S
C285 C286 1.394 . S
C286 C285 1.394 . S
C286 C287 1.378 . S
C286 H314 0.931 . S
C287 C282 1.377 . S
C287 C286 1.378 . S
C287 H315 0.931 . S
C288 O302 1.259 . S
C288 O303 1.270 . S
C289 O304 1.251 . S
C289 O305 1.251 . S
C290 Eu291 2.835 . S
C290 C292 1.500 . S
C290 O306 1.257 . S
C290 O307 1.260 . S
Eu291 C290 2.835 . S
Eu291 O303 2.355 . S
Eu291 O305 2.374 . S
Eu291 O306 2.473 . S
Eu291 O307 2.480 . S
Eu291 O308 2.430 . S
Eu291 O309 2.670 . S
Eu291 O310 2.394 . S
C292 C290 1.500 . S
C292 C293 1.377 . S
C292 C297 1.377 . S
C293 C292 1.377 . S
C293 C294 1.395 . S
C293 H316 0.931 . S
C294 C293 1.395 . S
C294 C295 1.383 . S
C294 H317 0.931 . S
C295 C294 1.383 . S
C295 C296 1.394 . S
C296 C295 1.394 . S
C296 C297 1.378 . S
C296 H318 0.931 . S
C297 C292 1.377 . S
C297 C296 1.378 . S
C297 H319 0.931 . S
C298 O308 1.259 . S
C298 O309 1.270 . S
C299 O310 1.251 . S
C299 O311 1.251 . S
O300 C280 1.257 . S
O300 Eu281 2.473 . S
O301 C280 1.260 . S
O301 Eu281 2.480 . S
O302 Eu281 2.430 . S
O302 C288 1.259 . S
O303 Eu281 2.670 . S
O303 C288 1.270 . S
O303 Eu291 2.355 . S
O304 Eu281 2.394 . S
O304 C289 1.251 . S
O305 C289 1.251 . S
O305 Eu291 2.374 . S
O306 C290 1.257 . S
O306 Eu291 2.473 . S
O307 C290 1.260 . S
O307 Eu291 2.480 . S
O308 Eu291 2.430 . S
O308 C298 1.259 . S
O309 Eu281 2.355 . S
O309 Eu291 2.670 . S
O309 C298 1.270 . S
O310 Eu291 2.394 . S
O310 C299 1.251 . S
O311 Eu281 2.374 . S
O311 C299 1.251 . S
H312 C283 0.931 1_655 S
H313 C284 0.931 . S
H314 C286 0.931 . S
H315 C287 0.931 . S
H316 C293 0.931 . S
H317 C294 0.931 . S
H318 C296 0.931 . S
H319 C297 0.931 . S
C320 Eu321 2.835 . S
C320 C322 1.500 . S
C320 O340 1.257 . S
C320 O341 1.260 . S
Eu321 C320 2.835 . S
Eu321 O340 2.473 . S
Eu321 O341 2.480 . S
Eu321 O342 2.430 . S
Eu321 O343 2.670 . S
Eu321 O344 2.394 . S
Eu321 O349 2.355 . S
Eu321 O351 2.374 . S
C322 C320 1.500 . S
C322 C323 1.377 . S
C322 C327 1.377 . S
C323 C322 1.377 . S
C323 C324 1.395 . S
C323 H352 0.931 . S
C324 C323 1.395 . S
C324 C325 1.383 . S
C324 H353 0.931 . S
C325 C324 1.383 . S
C325 C326 1.394 . S
C326 C325 1.394 . S
C326 C327 1.378 . S
C326 H354 0.931 . S
C327 C322 1.377 . S
C327 C326 1.378 . S
C327 H355 0.931 . S
C328 O342 1.259 . S
C328 O343 1.270 . S
C329 O344 1.251 . S
C329 O345 1.251 . S
C330 Eu331 2.835 . S
C330 C332 1.500 . S
C330 O346 1.257 . S
C330 O347 1.260 . S
Eu331 C330 2.835 . S
Eu331 O343 2.355 . S
Eu331 O345 2.374 . S
Eu331 O346 2.473 . S
Eu331 O347 2.480 . S
Eu331 O348 2.430 . S
Eu331 O349 2.670 . S
Eu331 O350 2.394 . S
C332 C330 1.500 . S
C332 C333 1.377 . S
C332 C337 1.377 . S
C333 C332 1.377 . S
C333 C334 1.395 . S
C333 H356 0.931 . S
C334 C333 1.395 . S
C334 C335 1.383 . S
C334 H357 0.931 . S
C335 C334 1.383 . S
C335 C336 1.394 . S
C336 C335 1.394 . S
C336 C337 1.378 . S
C336 H358 0.931 . S
C337 C332 1.377 . S
C337 C336 1.378 . S
C337 H359 0.931 . S
C338 O348 1.259 . S
C338 O349 1.270 . S
C339 O350 1.251 . S
C339 O351 1.251 . S
O340 C320 1.257 . S
O340 Eu321 2.473 . S
O341 C320 1.260 . S
O341 Eu321 2.480 . S
O342 Eu321 2.430 . S
O342 C328 1.259 . S
O343 Eu321 2.670 . S
O343 C328 1.270 . S
O343 Eu331 2.355 . S
O344 Eu321 2.394 . S
O344 C329 1.251 . S
O345 C329 1.251 . S
O345 Eu331 2.374 . S
O346 C330 1.257 . S
O346 Eu331 2.473 . S
O347 C330 1.260 . S
O347 Eu331 2.480 . S
O348 Eu331 2.430 . S
O348 C338 1.259 . S
O349 Eu321 2.355 . S
O349 Eu331 2.670 . S
O349 C338 1.270 . S
O350 Eu331 2.394 . S
O350 C339 1.251 . S
O351 Eu321 2.374 . S
O351 C339 1.251 . S
H352 C323 0.931 . S
H353 C324 0.931 . S
H354 C326 0.931 . S
H355 C327 0.931 . S
H356 C333 0.931 . S
H357 C334 0.931 . S
H358 C336 0.931 . S
H359 C337 0.931 . S
C360 Eu361 2.835 . S
C360 C362 1.500 . S
C360 O380 1.257 . S
C360 O381 1.260 . S
Eu361 C360 2.835 . S
Eu361 O380 2.473 . S
Eu361 O381 2.480 . S
Eu361 O382 2.430 . S
Eu361 O383 2.670 . S
Eu361 O384 2.394 1_545 S
Eu361 O389 2.355 . S
Eu361 O391 2.374 . S
C362 C360 1.500 . S
C362 C363 1.377 . S
C362 C367 1.377 1_545 S
C363 C362 1.377 . S
C363 C364 1.395 . S
C363 H392 0.931 . S
C364 C363 1.395 . S
C364 C365 1.383 1_545 S
C364 H393 0.931 . S
C365 C364 1.383 1_565 S
C365 C366 1.394 . S
C366 C365 1.394 . S
C366 C367 1.378 . S
C366 H394 0.931 . S
C367 C362 1.377 1_565 S
C367 C366 1.378 . S
C367 H395 0.931 . S
C368 O382 1.259 . S
C368 O383 1.270 . S
C369 O384 1.251 . S
C369 O385 1.251 . S
C370 Eu371 2.835 . S
C370 C372 1.500 . S
C370 O386 1.257 . S
C370 O387 1.260 . S
Eu371 C370 2.835 . S
Eu371 O383 2.355 . S
Eu371 O385 2.374 1_545 S
Eu371 O386 2.473 . S
Eu371 O387 2.480 . S
Eu371 O388 2.430 1_545 S
Eu371 O389 2.670 . S
Eu371 O390 2.394 . S
C372 C370 1.500 . S
C372 C373 1.377 . S
C372 C377 1.377 . S
C373 C372 1.377 . S
C373 C374 1.395 1_455 S
C373 H396 0.931 1_455 S
C374 C373 1.395 1_655 S
C374 C375 1.383 1_655 S
C374 H397 0.931 . S
C375 C374 1.383 1_455 S
C375 C376 1.394 . S
C376 C375 1.394 . S
C376 C377 1.378 . S
C376 H398 0.931 . S
C377 C372 1.377 . S
C377 C376 1.378 . S
C377 H399 0.931 . S
C378 O388 1.259 1_545 S
C378 O389 1.270 . S
C379 O390 1.251 . S
C379 O391 1.251 . S
O380 C360 1.257 . S
O380 Eu361 2.473 . S
O381 C360 1.260 . S
O381 Eu361 2.480 . S
O382 Eu361 2.430 . S
O382 C368 1.259 . S
O383 Eu361 2.670 . S
O383 C368 1.270 . S
O383 Eu371 2.355 . S
O384 Eu361 2.394 1_565 S
O384 C369 1.251 . S
O385 C369 1.251 . S
O385 Eu371 2.374 1_565 S
O386 C370 1.257 . S
O386 Eu371 2.473 . S
O387 C370 1.260 . S
O387 Eu371 2.480 . S
O388 Eu371 2.430 1_565 S
O388 C378 1.259 1_565 S
O389 Eu361 2.355 . S
O389 Eu371 2.670 . S
O389 C378 1.270 . S
O390 Eu371 2.394 . S
O390 C379 1.251 . S
O391 Eu361 2.374 . S
O391 C379 1.251 . S
H392 C363 0.931 . S
H393 C364 0.931 . S
H394 C366 0.931 . S
H395 C367 0.931 . S
H396 C373 0.931 1_655 S
H397 C374 0.931 . S
H398 C376 0.931 . S
H399 C377 0.931 . S
C400 Eu401 2.835 . S
C400 C402 1.500 . S
C400 O420 1.257 . S
C400 O421 1.260 . S
Eu401 C400 2.835 . S
Eu401 O420 2.473 . S
Eu401 O421 2.480 . S
Eu401 O422 2.430 . S
Eu401 O423 2.670 . S
Eu401 O424 2.394 . S
Eu401 O429 2.355 . S
Eu401 O431 2.374 . S
C402 C400 1.500 . S
C402 C403 1.377 . S
C402 C407 1.377 . S
C403 C402 1.377 . S
C403 C404 1.395 . S
C403 H432 0.931 . S
C404 C403 1.395 . S
C404 C405 1.383 . S
C404 H433 0.931 . S
C405 C404 1.383 . S
C405 C406 1.394 . S
C406 C405 1.394 . S
C406 C407 1.378 . S
C406 H434 0.931 . S
C407 C402 1.377 . S
C407 C406 1.378 . S
C407 H435 0.931 . S
C408 O422 1.259 . S
C408 O423 1.270 . S
C409 O424 1.251 . S
C409 O425 1.251 . S
C410 Eu411 2.835 . S
C410 C412 1.500 . S
C410 O426 1.257 . S
C410 O427 1.260 . S
Eu411 C410 2.835 . S
Eu411 O423 2.355 . S
Eu411 O425 2.374 . S
Eu411 O426 2.473 . S
Eu411 O427 2.480 . S
Eu411 O428 2.430 . S
Eu411 O429 2.670 . S
Eu411 O430 2.394 . S
C412 C410 1.500 . S
C412 C413 1.377 . S
C412 C417 1.377 . S
C413 C412 1.377 . S
C413 C414 1.395 . S
C413 H436 0.931 . S
C414 C413 1.395 . S
C414 C415 1.383 . S
C414 H437 0.931 . S
C415 C414 1.383 . S
C415 C416 1.394 . S
C416 C415 1.394 . S
C416 C417 1.378 . S
C416 H438 0.931 . S
C417 C412 1.377 . S
C417 C416 1.378 . S
C417 H439 0.931 . S
C418 O428 1.259 . S
C418 O429 1.270 . S
C419 O430 1.251 . S
C419 O431 1.251 . S
O420 C400 1.257 . S
O420 Eu401 2.473 . S
O421 C400 1.260 . S
O421 Eu401 2.480 . S
O422 Eu401 2.430 . S
O422 C408 1.259 . S
O423 Eu401 2.670 . S
O423 C408 1.270 . S
O423 Eu411 2.355 . S
O424 Eu401 2.394 . S
O424 C409 1.251 . S
O425 C409 1.251 . S
O425 Eu411 2.374 . S
O426 C410 1.257 . S
O426 Eu411 2.473 . S
O427 C410 1.260 . S
O427 Eu411 2.480 . S
O428 Eu411 2.430 . S
O428 C418 1.259 . S
O429 Eu401 2.355 . S
O429 Eu411 2.670 . S
O429 C418 1.270 . S
O430 Eu411 2.394 . S
O430 C419 1.251 . S
O431 Eu401 2.374 . S
O431 C419 1.251 . S
H432 C403 0.931 . S
H433 C404 0.931 . S
H434 C406 0.931 . S
H435 C407 0.931 . S
H436 C413 0.931 . S
H437 C414 0.931 . S
H438 C416 0.931 . S
H439 C417 0.931 . S
C440 Eu441 2.835 . S
C440 C442 1.500 . S
C440 O460 1.257 . S
C440 O461 1.260 . S
Eu441 C440 2.835 . S
Eu441 O460 2.473 . S
Eu441 O461 2.480 . S
Eu441 O462 2.430 . S
Eu441 O463 2.670 . S
Eu441 O464 2.394 1_565 S
Eu441 O469 2.355 . S
Eu441 O471 2.374 . S
C442 C440 1.500 . S
C442 C443 1.377 . S
C442 C447 1.377 1_565 S
C443 C442 1.377 . S
C443 C444 1.395 . S
C443 H472 0.931 . S
C444 C443 1.395 . S
C444 C445 1.383 1_565 S
C444 H473 0.931 . S
C445 C444 1.383 1_545 S
C445 C446 1.394 . S
C446 C445 1.394 . S
C446 C447 1.378 . S
C446 H474 0.931 . S
C447 C442 1.377 1_545 S
C447 C446 1.378 . S
C447 H475 0.931 . S
C448 O462 1.259 . S
C448 O463 1.270 . S
C449 O464 1.251 . S
C449 O465 1.251 . S
C450 Eu451 2.835 . S
C450 C452 1.500 . S
C450 O466 1.257 . S
C450 O467 1.260 . S
Eu451 C450 2.835 . S
Eu451 O463 2.355 . S
Eu451 O465 2.374 1_565 S
Eu451 O466 2.473 . S
Eu451 O467 2.480 . S
Eu451 O468 2.430 1_565 S
Eu451 O469 2.670 . S
Eu451 O470 2.394 . S
C452 C450 1.500 . S
C452 C453 1.377 . S
C452 C457 1.377 . S
C453 C452 1.377 . S
C453 C454 1.395 . S
C453 H476 0.931 . S
C454 C453 1.395 . S
C454 C455 1.383 . S
C454 H477 0.931 . S
C455 C454 1.383 . S
C455 C456 1.394 . S
C456 C455 1.394 . S
C456 C457 1.378 . S
C456 H478 0.931 . S
C457 C452 1.377 . S
C457 C456 1.378 . S
C457 H479 0.931 . S
C458 O468 1.259 1_565 S
C458 O469 1.270 . S
C459 O470 1.251 . S
C459 O471 1.251 . S
O460 C440 1.257 . S
O460 Eu441 2.473 . S
O461 C440 1.260 . S
O461 Eu441 2.480 . S
O462 Eu441 2.430 . S
O462 C448 1.259 . S
O463 Eu441 2.670 . S
O463 C448 1.270 . S
O463 Eu451 2.355 . S
O464 Eu441 2.394 1_545 S
O464 C449 1.251 . S
O465 C449 1.251 . S
O465 Eu451 2.374 1_545 S
O466 C450 1.257 . S
O466 Eu451 2.473 . S
O467 C450 1.260 . S
O467 Eu451 2.480 . S
O468 Eu451 2.430 1_545 S
O468 C458 1.259 1_545 S
O469 Eu441 2.355 . S
O469 Eu451 2.670 . S
O469 C458 1.270 . S
O470 Eu451 2.394 . S
O470 C459 1.251 . S
O471 Eu441 2.374 . S
O471 C459 1.251 . S
H472 C443 0.931 . S
H473 C444 0.931 . S
H474 C446 0.931 . S
H475 C447 0.931 . S
H476 C453 0.931 . S
H477 C454 0.931 . S
H478 C456 0.931 . S
H479 C457 0.931 . S
C480 Eu481 2.835 . S
C480 C482 1.500 . S
C480 O500 1.257 . S
C480 O501 1.260 . S
Eu481 C480 2.835 . S
Eu481 O500 2.473 . S
Eu481 O501 2.480 . S
Eu481 O502 2.430 . S
Eu481 O503 2.670 . S
Eu481 O504 2.394 . S
Eu481 O509 2.355 . S
Eu481 O511 2.374 . S
C482 C480 1.500 . S
C482 C483 1.377 . S
C482 C487 1.377 . S
C483 C482 1.377 . S
C483 C484 1.395 . S
C483 H512 0.931 . S
C484 C483 1.395 . S
C484 C485 1.383 . S
C484 H513 0.931 . S
C485 C484 1.383 . S
C485 C486 1.394 . S
C486 C485 1.394 . S
C486 C487 1.378 . S
C486 H514 0.931 . S
C487 C482 1.377 . S
C487 C486 1.378 . S
C487 H515 0.931 . S
C488 O502 1.259 . S
C488 O503 1.270 . S
C489 O504 1.251 . S
C489 O505 1.251 . S
C490 Eu491 2.835 . S
C490 C492 1.500 . S
C490 O506 1.257 . S
C490 O507 1.260 . S
Eu491 C490 2.835 . S
Eu491 O503 2.355 . S
Eu491 O505 2.374 . S
Eu491 O506 2.473 . S
Eu491 O507 2.480 . S
Eu491 O508 2.430 . S
Eu491 O509 2.670 . S
Eu491 O510 2.394 . S
C492 C490 1.500 . S
C492 C493 1.377 . S
C492 C497 1.377 . S
C493 C492 1.377 . S
C493 C494 1.395 . S
C493 H516 0.931 . S
C494 C493 1.395 . S
C494 C495 1.383 . S
C494 H517 0.931 . S
C495 C494 1.383 . S
C495 C496 1.394 . S
C496 C495 1.394 . S
C496 C497 1.378 . S
C496 H518 0.931 . S
C497 C492 1.377 . S
C497 C496 1.378 . S
C497 H519 0.931 . S
C498 O508 1.259 . S
C498 O509 1.270 . S
C499 O510 1.251 . S
C499 O511 1.251 . S
O500 C480 1.257 . S
O500 Eu481 2.473 . S
O501 C480 1.260 . S
O501 Eu481 2.480 . S
O502 Eu481 2.430 . S
O502 C488 1.259 . S
O503 Eu481 2.670 . S
O503 C488 1.270 . S
O503 Eu491 2.355 . S
O504 Eu481 2.394 . S
O504 C489 1.251 . S
O505 C489 1.251 . S
O505 Eu491 2.374 . S
O506 C490 1.257 . S
O506 Eu491 2.473 . S
O507 C490 1.260 . S
O507 Eu491 2.480 . S
O508 Eu491 2.430 . S
O508 C498 1.259 . S
O509 Eu481 2.355 . S
O509 Eu491 2.670 . S
O509 C498 1.270 . S
O510 Eu491 2.394 . S
O510 C499 1.251 . S
O511 Eu481 2.374 . S
O511 C499 1.251 . S
H512 C483 0.931 . S
H513 C484 0.931 . S
H514 C486 0.931 . S
H515 C487 0.931 . S
H516 C493 0.931 . S
H517 C494 0.931 . S
H518 C496 0.931 . S
H519 C497 0.931 . S
C520 Eu521 2.835 . S
C520 C522 1.500 . S
C520 O540 1.257 . S
C520 O541 1.260 . S
Eu521 C520 2.835 . S
Eu521 O540 2.473 . S
Eu521 O541 2.480 . S
Eu521 O542 2.430 1_565 S
Eu521 O543 2.670 . S
Eu521 O544 2.394 . S
Eu521 O549 2.355 . S
Eu521 O551 2.374 1_565 S
C522 C520 1.500 . S
C522 C523 1.377 . S
C522 C527 1.377 . S
C523 C522 1.377 . S
C523 C524 1.395 1_655 S
C523 H552 0.931 1_655 S
C524 C523 1.395 1_455 S
C524 C525 1.383 1_455 S
C524 H553 0.931 . S
C525 C524 1.383 1_655 S
C525 C526 1.394 . S
C526 C525 1.394 . S
C526 C527 1.378 . S
C526 H554 0.931 . S
C527 C522 1.377 . S
C527 C526 1.378 . S
C527 H555 0.931 . S
C528 O542 1.259 1_565 S
C528 O543 1.270 . S
C529 O544 1.251 . S
C529 O545 1.251 . S
C530 Eu531 2.835 . S
C530 C532 1.500 . S
C530 O546 1.257 . S
C530 O547 1.260 . S
Eu531 C530 2.835 . S
Eu531 O543 2.355 . S
Eu531 O545 2.374 . S
Eu531 O546 2.473 . S
Eu531 O547 2.480 . S
Eu531 O548 2.430 . S
Eu531 O549 2.670 . S
Eu531 O550 2.394 1_565 S
C532 C530 1.500 . S
C532 C533 1.377 . S
C532 C537 1.377 1_565 S
C533 C532 1.377 . S
C533 C534 1.395 . S
C533 H556 0.931 . S
C534 C533 1.395 . S
C534 C535 1.383 1_565 S
C534 H557 0.931 . S
C535 C534 1.383 1_545 S
C535 C536 1.394 . S
C536 C535 1.394 . S
C536 C537 1.378 . S
C536 H558 0.931 . S
C537 C532 1.377 1_545 S
C537 C536 1.378 . S
C537 H559 0.931 . S
C538 O548 1.259 . S
C538 O549 1.270 . S
C539 O550 1.251 . S
C539 O551 1.251 . S
O540 C520 1.257 . S
O540 Eu521 2.473 . S
O541 C520 1.260 . S
O541 Eu521 2.480 . S
O542 Eu521 2.430 1_545 S
O542 C528 1.259 1_545 S
O543 Eu521 2.670 . S
O543 C528 1.270 . S
O543 Eu531 2.355 . S
O544 Eu521 2.394 . S
O544 C529 1.251 . S
O545 C529 1.251 . S
O545 Eu531 2.374 . S
O546 C530 1.257 . S
O546 Eu531 2.473 . S
O547 C530 1.260 . S
O547 Eu531 2.480 . S
O548 Eu531 2.430 . S
O548 C538 1.259 . S
O549 Eu521 2.355 . S
O549 Eu531 2.670 . S
O549 C538 1.270 . S
O550 Eu531 2.394 1_545 S
O550 C539 1.251 . S
O551 Eu521 2.374 1_545 S
O551 C539 1.251 . S
H552 C523 0.931 1_455 S
H553 C524 0.931 . S
H554 C526 0.931 . S
H555 C527 0.931 . S
H556 C533 0.931 . S
H557 C534 0.931 . S
H558 C536 0.931 . S
H559 C537 0.931 . S
C560 Eu561 2.835 . S
C560 C562 1.500 . S
C560 O580 1.257 . S
C560 O581 1.260 . S
Eu561 C560 2.835 . S
Eu561 O580 2.473 . S
Eu561 O581 2.480 . S
Eu561 O582 2.430 . S
Eu561 O583 2.670 . S
Eu561 O584 2.394 . S
Eu561 O589 2.355 . S
Eu561 O591 2.374 . S
C562 C560 1.500 . S
C562 C563 1.377 . S
C562 C567 1.377 . S
C563 C562 1.377 . S
C563 C564 1.395 . S
C563 H592 0.931 . S
C564 C563 1.395 . S
C564 C565 1.383 . S
C564 H593 0.931 . S
C565 C564 1.383 . S
C565 C566 1.394 . S
C566 C565 1.394 . S
C566 C567 1.378 . S
C566 H594 0.931 . S
C567 C562 1.377 . S
C567 C566 1.378 . S
C567 H595 0.931 . S
C568 O582 1.259 . S
C568 O583 1.270 . S
C569 O584 1.251 . S
C569 O585 1.251 . S
C570 Eu571 2.835 . S
C570 C572 1.500 . S
C570 O586 1.257 . S
C570 O587 1.260 . S
Eu571 C570 2.835 . S
Eu571 O583 2.355 . S
Eu571 O585 2.374 . S
Eu571 O586 2.473 . S
Eu571 O587 2.480 . S
Eu571 O588 2.430 . S
Eu571 O589 2.670 . S
Eu571 O590 2.394 . S
C572 C570 1.500 . S
C572 C573 1.377 . S
C572 C577 1.377 . S
C573 C572 1.377 . S
C573 C574 1.395 . S
C573 H596 0.931 . S
C574 C573 1.395 . S
C574 C575 1.383 . S
C574 H597 0.931 . S
C575 C574 1.383 . S
C575 C576 1.394 . S
C576 C575 1.394 . S
C576 C577 1.378 . S
C576 H598 0.931 . S
C577 C572 1.377 . S
C577 C576 1.378 . S
C577 H599 0.931 . S
C578 O588 1.259 . S
C578 O589 1.270 . S
C579 O590 1.251 . S
C579 O591 1.251 . S
O580 C560 1.257 . S
O580 Eu561 2.473 . S
O581 C560 1.260 . S
O581 Eu561 2.480 . S
O582 Eu561 2.430 . S
O582 C568 1.259 . S
O583 Eu561 2.670 . S
O583 C568 1.270 . S
O583 Eu571 2.355 . S
O584 Eu561 2.394 . S
O584 C569 1.251 . S
O585 C569 1.251 . S
O585 Eu571 2.374 . S
O586 C570 1.257 . S
O586 Eu571 2.473 . S
O587 C570 1.260 . S
O587 Eu571 2.480 . S
O588 Eu571 2.430 . S
O588 C578 1.259 . S
O589 Eu561 2.355 . S
O589 Eu571 2.670 . S
O589 C578 1.270 . S
O590 Eu571 2.394 . S
O590 C579 1.251 . S
O591 Eu561 2.374 . S
O591 C579 1.251 . S
H592 C563 0.931 . S
H593 C564 0.931 . S
H594 C566 0.931 . S
H595 C567 0.931 . S
H596 C573 0.931 . S
H597 C574 0.931 . S
H598 C576 0.931 . S
H599 C577 0.931 . S
C600 Eu601 2.835 . S
C600 C602 1.500 . S
C600 O620 1.257 . S
C600 O621 1.260 . S
Eu601 C600 2.835 . S
Eu601 O620 2.473 . S
Eu601 O621 2.480 . S
Eu601 O622 2.430 1_545 S
Eu601 O623 2.670 . S
Eu601 O624 2.394 . S
Eu601 O629 2.355 . S
Eu601 O631 2.374 1_545 S
C602 C600 1.500 . S
C602 C603 1.377 . S
C602 C607 1.377 . S
C603 C602 1.377 . S
C603 C604 1.395 . S
C603 H632 0.931 . S
C604 C603 1.395 . S
C604 C605 1.383 . S
C604 H633 0.931 . S
C605 C604 1.383 . S
C605 C606 1.394 . S
C606 C605 1.394 . S
C606 C607 1.378 . S
C606 H634 0.931 . S
C607 C602 1.377 . S
C607 C606 1.378 . S
C607 H635 0.931 . S
C608 O622 1.259 1_545 S
C608 O623 1.270 . S
C609 O624 1.251 . S
C609 O625 1.251 . S
C610 Eu611 2.835 . S
C610 C612 1.500 . S
C610 O626 1.257 . S
C610 O627 1.260 . S
Eu611 C610 2.835 . S
Eu611 O623 2.355 . S
Eu611 O625 2.374 . S
Eu611 O626 2.473 . S
Eu611 O627 2.480 . S
Eu611 O628 2.430 . S
Eu611 O629 2.670 . S
Eu611 O630 2.394 1_545 S
C612 C610 1.500 . S
C612 C613 1.377 . S
C612 C617 1.377 1_545 S
C613 C612 1.377 . S
C613 C614 1.395 . S
C613 H636 0.931 . S
C614 C613 1.395 . S
C614 C615 1.383 1_545 S
C614 H637 0.931 . S
C615 C614 1.383 1_565 S
C615 C616 1.394 . S
C616 C615 1.394 . S
C616 C617 1.378 . S
C616 H638 0.931 . S
C617 C612 1.377 1_565 S
C617 C616 1.378 . S
C617 H639 0.931 . S
C618 O628 1.259 . S
C618 O629 1.270 . S
C619 O630 1.251 . S
C619 O631 1.251 . S
O620 C600 1.257 . S
O620 Eu601 2.473 . S
O621 C600 1.260 . S
O621 Eu601 2.480 . S
O622 Eu601 2.430 1_565 S
O622 C608 1.259 1_565 S
O623 Eu601 2.670 . S
O623 C608 1.270 . S
O623 Eu611 2.355 . S
O624 Eu601 2.394 . S
O624 C609 1.251 . S
O625 C609 1.251 . S
O625 Eu611 2.374 . S
O626 C610 1.257 . S
O626 Eu611 2.473 . S
O627 C610 1.260 . S
O627 Eu611 2.480 . S
O628 Eu611 2.430 . S
O628 C618 1.259 . S
O629 Eu601 2.355 . S
O629 Eu611 2.670 . S
O629 C618 1.270 . S
O630 Eu611 2.394 1_565 S
O630 C619 1.251 . S
O631 Eu601 2.374 1_565 S
O631 C619 1.251 . S
H632 C603 0.931 . S
H633 C604 0.931 . S
H634 C606 0.931 . S
H635 C607 0.931 . S
H636 C613 0.931 . S
H637 C614 0.931 . S
H638 C616 0.931 . S
H639 C617 0.931 . S
H640 C646 0.930 . S
H641 C650 0.930 . S
H642 C655 0.929 . S
H643 C653 0.929 . S
H644 C648 0.929 . S
H645 C654 0.929 . S
C646 H640 0.930 . S
C646 C647 1.367 . S
C646 C654 1.378 . S
C647 C646 1.367 . S
C647 C655 1.433 . S
C648 H644 0.929 . S
C648 C650 1.378 . S
C648 C652 1.350 . S
C649 C652 1.463 . S
C649 C654 1.350 . S
C649 N657 1.427 . S
C650 H641 0.930 . S
C650 C648 1.378 . S
C650 C651 1.367 . S
C651 C650 1.367 . S
C651 C653 1.433 . S
C652 C648 1.350 . S
C652 C649 1.463 . S
C652 N656 1.427 . S
C653 H643 0.929 . S
C653 C651 1.433 . S
C653 N656 1.384 . S
C654 H645 0.929 . S
C654 C646 1.378 . S
C654 C649 1.350 . S
C655 H642 0.929 . S
C655 C647 1.433 . S
C655 N657 1.384 . S
N656 C652 1.427 . S
N656 C653 1.384 . S
N657 C649 1.427 . S
N657 C655 1.384 . S
H658 C664 0.930 . S
H659 C668 0.930 . S
H660 C673 0.929 . S
H661 C671 0.929 . S
H662 C666 0.929 . S
H663 C672 0.929 . S
C664 H658 0.930 . S
C664 C665 1.367 . S
C664 C672 1.378 . S
C665 C664 1.367 . S
C665 C673 1.433 . S
C666 H662 0.929 . S
C666 C668 1.378 . S
C666 C670 1.350 . S
C667 C670 1.463 . S
C667 C672 1.350 . S
C667 N675 1.427 . S
C668 H659 0.930 . S
C668 C666 1.378 . S
C668 C669 1.367 . S
C669 C668 1.367 . S
C669 C671 1.433 . S
C670 C666 1.350 . S
C670 C667 1.463 . S
C670 N674 1.427 . S
C671 H661 0.929 . S
C671 C669 1.433 . S
C671 N674 1.384 . S
C672 H663 0.929 . S
C672 C664 1.378 . S
C672 C667 1.350 . S
C673 H660 0.929 . S
C673 C665 1.433 . S
C673 N675 1.384 . S
N674 C670 1.427 . S
N674 C671 1.384 . S
N675 C667 1.427 . S
N675 C673 1.384 . S
H676 C682 0.930 . S
H677 C686 0.930 . S
H678 C691 0.929 . S
H679 C689 0.929 . S
H680 C684 0.929 . S
H681 C690 0.929 . S
C682 H676 0.930 . S
C682 C683 1.367 . S
C682 C690 1.378 . S
C683 C682 1.367 . S
C683 C691 1.433 . S
C684 H680 0.929 . S
C684 C686 1.378 . S
C684 C688 1.350 . S
C685 C688 1.463 . S
C685 C690 1.350 . S
C685 N693 1.427 . S
C686 H677 0.930 . S
C686 C684 1.378 . S
C686 C687 1.367 . S
C687 C686 1.367 . S
C687 C689 1.433 . S
C688 C684 1.350 . S
C688 C685 1.463 . S
C688 N692 1.427 . S
C689 H679 0.929 . S
C689 C687 1.433 . S
C689 N692 1.384 . S
C690 H681 0.929 . S
C690 C682 1.378 . S
C690 C685 1.350 . S
C691 H678 0.929 . S
C691 C683 1.433 . S
C691 N693 1.384 . S
N692 C688 1.427 . S
N692 C689 1.384 . S
N693 C685 1.427 . S
N693 C691 1.384 . S
H694 C700 0.930 . S
H695 C704 0.930 . S
H696 C709 0.930 1_554 S
H697 C707 0.930 1_556 S
H698 C702 0.929 . S
H699 C708 0.929 . S
C700 H694 0.930 . S
C700 C701 1.367 1_655 S
C700 C708 1.378 . S
C701 C700 1.367 1_455 S
C701 C709 1.433 . S
C702 H698 0.929 . S
C702 C704 1.378 . S
C702 C706 1.348 1_455 S
C703 C706 1.462 1_456 S
C703 C708 1.348 1_455 S
C703 N711 1.429 1_556 S
C704 H695 0.930 . S
C704 C702 1.378 . S
C704 C705 1.367 1_455 S
C705 C704 1.367 1_655 S
C705 C707 1.433 . S
C706 C702 1.348 1_655 S
C706 C703 1.462 1_654 S
C706 N710 1.429 1_554 S
C707 H697 0.930 1_554 S
C707 C705 1.433 . S
C707 N710 1.384 1_554 S
C708 H699 0.929 . S
C708 C700 1.378 . S
C708 C703 1.348 1_655 S
C709 H696 0.930 1_556 S
C709 C701 1.433 . S
C709 N711 1.384 1_556 S
N710 C706 1.429 1_556 S
N710 C707 1.384 1_556 S
N711 C703 1.429 1_554 S
N711 C709 1.384 1_554 S
H712 C718 0.930 . S
H713 C722 0.930 . S
H714 C727 0.929 . S
H715 C725 0.929 . S
H716 C720 0.929 . S
H717 C726 0.929 . S
C718 H712 0.930 . S
C718 C719 1.367 . S
C718 C726 1.378 . S
C719 C718 1.367 . S
C719 C727 1.433 . S
C720 H716 0.929 . S
C720 C722 1.378 . S
C720 C724 1.350 . S
C721 C724 1.463 . S
C721 C726 1.350 . S
C721 N729 1.427 . S
C722 H713 0.930 . S
C722 C720 1.378 . S
C722 C723 1.367 . S
C723 C722 1.367 . S
C723 C725 1.433 . S
C724 C720 1.350 . S
C724 C721 1.463 . S
C724 N728 1.427 . S
C725 H715 0.929 . S
C725 C723 1.433 . S
C725 N728 1.384 . S
C726 H717 0.929 . S
C726 C718 1.378 . S
C726 C721 1.350 . S
C727 H714 0.929 . S
C727 C719 1.433 . S
C727 N729 1.384 . S
N728 C724 1.427 . S
N728 C725 1.384 . S
N729 C721 1.427 . S
N729 C727 1.384 . S
H730 C736 0.930 . S
H731 C740 0.930 . S
H732 C745 0.929 . S
H733 C743 0.929 . S
H734 C738 0.929 . S
H735 C744 0.929 . S
C736 H730 0.930 . S
C736 C737 1.367 . S
C736 C744 1.378 . S
C737 C736 1.367 . S
C737 C745 1.433 . S
C738 H734 0.929 . S
C738 C740 1.378 . S
C738 C742 1.350 . S
C739 C742 1.463 . S
C739 C744 1.350 . S
C739 N747 1.427 . S
C740 H731 0.930 . S
C740 C738 1.378 . S
C740 C741 1.367 . S
C741 C740 1.367 . S
C741 C743 1.433 . S
C742 C738 1.350 . S
C742 C739 1.463 . S
C742 N746 1.427 . S
C743 H733 0.929 . S
C743 C741 1.433 . S
C743 N746 1.384 . S
C744 H735 0.929 . S
C744 C736 1.378 . S
C744 C739 1.350 . S
C745 H732 0.929 . S
C745 C737 1.433 . S
C745 N747 1.384 . S
N746 C742 1.427 . S
N746 C743 1.384 . S
N747 C739 1.427 . S
N747 C745 1.384 . S
H748 C754 0.907 1_556 S
H749 C758 0.907 1_554 S
H750 C763 0.929 . S
H751 C761 0.929 . S
H752 C756 0.929 . S
H753 C762 0.929 . S
C754 H748 0.907 1_554 S
C754 C755 1.410 . S
C754 C762 1.360 1_554 S
C755 C754 1.410 . S
C755 C763 1.433 1_455 S
C756 H752 0.929 . S
C756 C758 1.360 1_554 S
C756 C760 1.350 1_554 S
C757 C760 1.463 1_464 S
C757 C762 1.350 1_554 S
C757 N765 1.427 1_455 S
C758 H749 0.907 1_556 S
C758 C756 1.360 1_556 S
C758 C759 1.410 . S
C759 C758 1.410 . S
C759 C761 1.433 1_655 S
C760 C756 1.350 1_556 S
C760 C757 1.463 1_646 S
C760 N764 1.427 1_655 S
C761 H751 0.929 . S
C761 C759 1.433 1_455 S
C761 N764 1.384 . S
C762 H753 0.929 . S
C762 C754 1.360 1_556 S
C762 C757 1.350 1_556 S
C763 H750 0.929 . S
C763 C755 1.433 1_655 S
C763 N765 1.384 . S
N764 C760 1.427 1_455 S
N764 C761 1.384 . S
N765 C757 1.427 1_655 S
N765 C763 1.384 . S
H766 C772 0.930 . S
H767 C776 0.930 . S
H768 C781 0.929 . S
H769 C779 0.929 . S
H770 C774 0.929 . S
H771 C780 0.929 . S
C772 H766 0.930 . S
C772 C773 1.367 . S
C772 C780 1.378 . S
C773 C772 1.367 . S
C773 C781 1.433 . S
C774 H770 0.929 . S
C774 C776 1.378 . S
C774 C778 1.350 . S
C775 C778 1.463 1_565 S
C775 C780 1.350 . S
C775 N783 1.427 . S
C776 H767 0.930 . S
C776 C774 1.378 . S
C776 C777 1.367 . S
C777 C776 1.367 . S
C777 C779 1.433 . S
C778 C774 1.350 . S
C778 C775 1.463 1_545 S
C778 N782 1.427 . S
C779 H769 0.929 . S
C779 C777 1.433 . S
C779 N782 1.384 . S
C780 H771 0.929 . S
C780 C772 1.378 . S
C780 C775 1.350 . S
C781 H768 0.929 . S
C781 C773 1.433 . S
C781 N783 1.384 . S
N782 C778 1.427 . S
N782 C779 1.384 . S
N783 C775 1.427 . S
N783 C781 1.384 . S
H784 C790 0.930 . S
H785 C794 0.910 1_564 S
H786 C799 0.929 . S
H787 C797 0.929 1_554 S
H788 C792 0.929 . S
H789 C798 0.929 . S
C790 H784 0.930 . S
C790 C791 1.367 . S
C790 C798 1.378 . S
C791 C790 1.367 . S
C791 C799 1.433 . S
C792 H788 0.929 . S
C792 C794 1.415 . S
C792 C796 1.350 . S
C793 C796 1.463 . S
C793 C798 1.350 . S
C793 N801 1.427 . S
C794 H785 0.910 1_546 S
C794 C792 1.415 . S
C794 C795 1.351 1_556 S
C795 C794 1.351 1_554 S
C795 C797 1.433 1_554 S
C796 C792 1.350 . S
C796 C793 1.463 . S
C796 N800 1.427 . S
C797 H787 0.929 1_556 S
C797 C795 1.433 1_556 S
C797 N800 1.384 . S
C798 H789 0.929 . S
C798 C790 1.378 . S
C798 C793 1.350 . S
C799 H786 0.929 . S
C799 C791 1.433 . S
C799 N801 1.384 . S
N800 C796 1.427 . S
N800 C797 1.384 . S
N801 C793 1.427 . S
N801 C799 1.384 . S
H802 C808 0.930 . S
H803 C812 0.930 . S
H804 C817 0.929 . S
H805 C815 0.929 . S
H806 C810 0.929 . S
H807 C816 0.929 . S
C808 H802 0.930 . S
C808 C809 1.367 . S
C808 C816 1.378 . S
C809 C808 1.367 . S
C809 C817 1.433 . S
C810 H806 0.929 . S
C810 C812 1.378 . S
C810 C814 1.350 . S
C811 C814 1.463 . S
C811 C816 1.350 . S
C811 N819 1.427 . S
C812 H803 0.930 . S
C812 C810 1.378 . S
C812 C813 1.367 . S
C813 C812 1.367 . S
C813 C815 1.433 . S
C814 C810 1.350 . S
C814 C811 1.463 . S
C814 N818 1.427 . S
C815 H805 0.929 . S
C815 C813 1.433 . S
C815 N818 1.384 . S
C816 H807 0.929 . S
C816 C808 1.378 . S
C816 C811 1.350 . S
C817 H804 0.929 . S
C817 C809 1.433 . S
C817 N819 1.384 . S
N818 C814 1.427 . S
N818 C815 1.384 . S
N819 C811 1.427 . S
N819 C817 1.384 . S
H820 C826 0.930 . S
H821 C830 0.930 . S
H822 C835 0.928 1_545 S
H823 C833 0.929 . S
H824 C828 0.940 . S
H825 C834 0.929 . S
C826 H820 0.930 . S
C826 C827 1.367 . S
C826 C834 1.378 . S
C827 C826 1.367 . S
C827 C835 1.434 . S
C828 H824 0.940 . S
C828 C830 1.378 . S
C828 C832 1.350 . S
C829 C832 1.463 . S
C829 C834 1.350 . S
C829 N837 1.427 . S
C830 H821 0.930 . S
C830 C828 1.378 . S
C830 C831 1.367 . S
C831 C830 1.367 . S
C831 C833 1.433 . S
C832 C828 1.350 . S
C832 C829 1.463 . S
C832 N836 1.427 . S
C833 H823 0.929 . S
C833 C831 1.433 . S
C833 N836 1.384 . S
C834 H825 0.929 . S
C834 C826 1.378 . S
C834 C829 1.350 . S
C835 H822 0.928 1_565 S
C835 C827 1.434 . S
C835 N837 1.384 . S
N836 C832 1.427 . S
N836 C833 1.384 . S
N837 C829 1.427 . S
N837 C835 1.384 . S
H838 C844 0.930 . S
H839 C848 0.930 . S
H840 C853 0.929 . S
H841 C851 0.929 . S
H842 C846 0.929 . S
H843 C852 0.929 . S
C844 H838 0.930 . S
C844 C845 1.367 . S
C844 C852 1.378 . S
C845 C844 1.367 . S
C845 C853 1.433 . S
C846 H842 0.929 . S
C846 C848 1.378 . S
C846 C850 1.350 . S
C847 C850 1.463 . S
C847 C852 1.350 . S
C847 N855 1.427 . S
C848 H839 0.930 . S
C848 C846 1.378 . S
C848 C849 1.367 . S
C849 C848 1.367 . S
C849 C851 1.433 . S
C850 C846 1.350 . S
C850 C847 1.463 . S
C850 N854 1.427 . S
C851 H841 0.929 . S
C851 C849 1.433 . S
C851 N854 1.384 . S
C852 H843 0.929 . S
C852 C844 1.378 . S
C852 C847 1.350 . S
C853 H840 0.929 . S
C853 C845 1.433 . S
C853 N855 1.384 . S
N854 C850 1.427 . S
N854 C851 1.384 . S
N855 C847 1.427 . S
N855 C853 1.384 . S
H856 C862 0.930 . S
H857 C866 0.930 1_556 S
H858 C871 0.929 . S
H859 C869 0.929 1_546 S
H860 C864 0.929 . S
H861 C870 0.929 . S
C862 H856 0.930 . S
C862 C863 1.367 . S
C862 C870 1.378 . S
C863 C862 1.367 . S
C863 C871 1.433 . S
C864 H860 0.929 . S
C864 C866 1.378 . S
C864 C868 1.350 . S
C865 C868 1.463 . S
C865 C870 1.350 . S
C865 N873 1.427 . S
C866 H857 0.930 1_554 S
C866 C864 1.378 . S
C866 C867 1.367 1_554 S
C867 C866 1.367 1_556 S
C867 C869 1.433 1_556 S
C868 C864 1.350 . S
C868 C865 1.463 . S
C868 N872 1.427 . S
C869 H859 0.929 1_564 S
C869 C867 1.433 1_554 S
C869 N872 1.384 . S
C870 H861 0.929 . S
C870 C862 1.378 . S
C870 C865 1.350 . S
C871 H858 0.929 . S
C871 C863 1.433 . S
C871 N873 1.384 . S
N872 C868 1.427 . S
N872 C869 1.384 . S
N873 C865 1.427 . S
N873 C871 1.384 . S
H874 C880 0.930 . S
H875 C884 0.930 . S
H876 C889 0.929 . S
H877 C887 0.929 . S
H878 C882 0.929 . S
H879 C888 0.929 . S
C880 H874 0.930 . S
C880 C881 1.367 . S
C880 C888 1.378 . S
C881 C880 1.367 . S
C881 C889 1.433 . S
C882 H878 0.929 . S
C882 C884 1.378 . S
C882 C886 1.350 . S
C883 C886 1.463 . S
C883 C888 1.350 . S
C883 N891 1.427 . S
C884 H875 0.930 . S
C884 C882 1.378 . S
C884 C885 1.367 . S
C885 C884 1.367 . S
C885 C887 1.433 . S
C886 C882 1.350 . S
C886 C883 1.463 . S
C886 N890 1.427 . S
C887 H877 0.929 . S
C887 C885 1.433 . S
C887 N890 1.384 . S
C888 H879 0.929 . S
C888 C880 1.378 . S
C888 C883 1.350 . S
C889 H876 0.929 . S
C889 C881 1.433 . S
C889 N891 1.384 . S
N890 C886 1.427 . S
N890 C887 1.384 . S
N891 C883 1.427 . S
N891 C889 1.384 . S
H892 C898 0.930 1_565 S
H893 C902 0.930 . S
H894 C907 0.929 . S
H895 C905 0.929 . S
H896 C900 0.929 . S
H897 C906 0.929 1_565 S
C898 H892 0.930 1_545 S
C898 C899 1.367 . S
C898 C906 1.378 . S
C899 C898 1.367 . S
C899 C907 1.433 . S
C900 H896 0.929 . S
C900 C902 1.378 . S
C900 C904 1.350 . S
C901 C904 1.463 . S
C901 C906 1.350 . S
C901 N909 1.427 . S
C902 H893 0.930 . S
C902 C900 1.378 . S
C902 C903 1.367 . S
C903 C902 1.367 . S
C903 C905 1.433 . S
C904 C900 1.350 . S
C904 C901 1.463 . S
C904 N908 1.427 . S
C905 H895 0.929 . S
C905 C903 1.433 . S
C905 N908 1.384 . S
C906 H897 0.929 1_545 S
C906 C898 1.378 . S
C906 C901 1.350 . S
C907 H894 0.929 . S
C907 C899 1.433 . S
C907 N909 1.384 . S
N908 C904 1.427 . S
N908 C905 1.384 . S
N909 C901 1.427 . S
N909 C907 1.384 . S
H910 C916 0.930 . S
H911 C920 0.930 . S
H912 C925 0.929 . S
H913 C923 0.929 . S
H914 C918 0.929 . S
H915 C924 0.929 . S
C916 H910 0.930 . S
C916 C917 1.367 . S
C916 C924 1.378 . S
C917 C916 1.367 . S
C917 C925 1.433 . S
C918 H914 0.929 . S
C918 C920 1.378 . S
C918 C922 1.350 . S
C919 C922 1.463 . S
C919 C924 1.350 . S
C919 N927 1.427 . S
C920 H911 0.930 . S
C920 C918 1.378 . S
C920 C921 1.367 . S
C921 C920 1.367 . S
C921 C923 1.433 . S
C922 C918 1.350 . S
C922 C919 1.463 . S
C922 N926 1.427 . S
C923 H913 0.929 . S
C923 C921 1.433 . S
C923 N926 1.384 . S
C924 H915 0.929 . S
C924 C916 1.378 . S
C924 C919 1.350 . S
C925 H912 0.929 . S
C925 C917 1.433 . S
C925 N927 1.384 . S
N926 C922 1.427 . S
N926 C923 1.384 . S
N927 C919 1.427 . S
N927 C925 1.384 . S
H928 C934 0.930 . S
H929 C938 0.930 . S
H930 C943 0.929 . S
H931 C941 0.929 . S
H932 C936 0.929 . S
H933 C942 0.929 . S
C934 H928 0.930 . S
C934 C935 1.367 . S
C934 C942 1.378 . S
C935 C934 1.367 . S
C935 C943 1.433 . S
C936 H932 0.929 . S
C936 C938 1.378 . S
C936 C940 1.350 . S
C937 C940 1.463 . S
C937 C942 1.350 . S
C937 N945 1.427 . S
C938 H929 0.930 . S
C938 C936 1.378 . S
C938 C939 1.367 . S
C939 C938 1.367 . S
C939 C941 1.433 . S
C940 C936 1.350 . S
C940 C937 1.463 . S
C940 N944 1.427 . S
C941 H931 0.929 . S
C941 C939 1.433 . S
C941 N944 1.384 . S
C942 H933 0.929 . S
C942 C934 1.378 . S
C942 C937 1.350 . S
C943 H930 0.929 . S
C943 C935 1.433 . S
C943 N945 1.384 . S
N944 C940 1.427 . S
N944 C941 1.384 . S
N945 C937 1.427 . S
N945 C943 1.384 . S
H946 C952 0.930 . S
H947 C956 0.930 . S
H948 C961 0.929 1_545 S
H949 C959 0.929 . S
H950 C954 0.929 . S
H951 C960 0.929 . S
C952 H946 0.930 . S
C952 C953 1.367 . S
C952 C960 1.378 . S
C953 C952 1.367 . S
C953 C961 1.433 . S
C954 H950 0.929 . S
C954 C956 1.378 . S
C954 C958 1.350 . S
C955 C958 1.463 . S
C955 C960 1.350 . S
C955 N963 1.427 . S
C956 H947 0.930 . S
C956 C954 1.378 . S
C956 C957 1.367 . S
C957 C956 1.367 . S
C957 C959 1.433 . S
C958 C954 1.350 . S
C958 C955 1.463 . S
C958 N962 1.427 . S
C959 H949 0.929 . S
C959 C957 1.433 . S
C959 N962 1.384 . S
C960 H951 0.929 . S
C960 C952 1.378 . S
C960 C955 1.350 . S
C961 H948 0.929 1_565 S
C961 C953 1.433 . S
C961 N963 1.384 . S
N962 C958 1.427 . S
N962 C959 1.384 . S
N963 C955 1.427 . S
N963 C961 1.384 . S
H964 C970 0.930 1_554 S
H965 C974 0.930 . S
H966 C979 0.937 . S
H967 C977 0.929 . S
H968 C972 0.929 . S
H969 C978 0.929 . S
C970 H964 0.930 1_556 S
C970 C971 1.367 1_556 S
C970 C978 1.378 . S
C971 C970 1.367 1_554 S
C971 C979 1.438 . S
C972 H968 0.929 . S
C972 C974 1.378 . S
C972 C976 1.350 . S
C973 C976 1.463 . S
C973 C978 1.350 . S
C973 N981 1.427 . S
C974 H965 0.930 . S
C974 C972 1.378 . S
C974 C975 1.367 . S
C975 C974 1.367 . S
C975 C977 1.433 . S
C976 C972 1.350 . S
C976 C973 1.463 . S
C976 N980 1.427 . S
C977 H967 0.929 . S
C977 C975 1.433 . S
C977 N980 1.384 . S
C978 H969 0.929 . S
C978 C970 1.378 . S
C978 C973 1.350 . S
C979 H966 0.937 . S
C979 C971 1.438 . S
C979 N981 1.371 1_554 S
N980 C976 1.427 . S
N980 C977 1.384 . S
N981 C973 1.427 . S
N981 C979 1.371 1_556 S
H982 C988 0.930 . S
H983 C992 0.930 . S
H984 C997 0.929 . S
H985 C995 0.929 . S
H986 C990 0.929 . S
H987 C996 0.929 1_565 S
C988 H982 0.930 . S
C988 C989 1.367 . S
C988 C996 1.378 . S
C989 C988 1.367 . S
C989 C997 1.433 . S
C990 H986 0.929 . S
C990 C992 1.378 . S
C990 C994 1.350 . S
C991 C994 1.463 . S
C991 C996 1.350 . S
C991 N999 1.427 . S
C992 H983 0.930 . S
C992 C990 1.378 . S
C992 C993 1.367 . S
C993 C992 1.367 . S
C993 C995 1.433 1_545 S
C994 C990 1.350 . S
C994 C991 1.463 . S
C994 N998 1.427 . S
C995 H985 0.929 . S
C995 C993 1.433 1_565 S
C995 N998 1.384 1_565 S
C996 H987 0.929 1_545 S
C996 C988 1.378 . S
C996 C991 1.350 . S
C997 H984 0.929 . S
C997 C989 1.433 . S
C997 N999 1.384 . S
N998 C994 1.427 . S
N998 C995 1.384 1_545 S
N999 C991 1.427 . S
N999 C997 1.384 . S
H1000 C1006 0.930 . S
H1001 C1010 0.930 . S
H1002 C1015 0.929 . S
H1003 C1013 0.929 . S
H1004 C1008 0.929 . S
H1005 C1014 0.929 . S
C1006 H1000 0.930 . S
C1006 C1007 1.367 . S
C1006 C1014 1.378 . S
C1007 C1006 1.367 . S
C1007 C1015 1.433 . S
C1008 H1004 0.929 . S
C1008 C1010 1.378 . S
C1008 C1012 1.350 . S
C1009 C1012 1.463 . S
C1009 C1014 1.350 . S
C1009 N1017 1.427 . S
C1010 H1001 0.930 . S
C1010 C1008 1.378 . S
C1010 C1011 1.367 . S
C1011 C1010 1.367 . S
C1011 C1013 1.433 . S
C1012 C1008 1.350 . S
C1012 C1009 1.463 . S
C1012 N1016 1.427 . S
C1013 H1003 0.929 . S
C1013 C1011 1.433 . S
C1013 N1016 1.384 . S
C1014 H1005 0.929 . S
C1014 C1006 1.378 . S
C1014 C1009 1.350 . S
C1015 H1002 0.929 . S
C1015 C1007 1.433 . S
C1015 N1017 1.384 . S
N1016 C1012 1.427 . S
N1016 C1013 1.384 . S
N1017 C1009 1.427 . S
N1017 C1015 1.384 . S
H1018 C1024 0.930 . S
H1019 C1028 0.930 . S
H1020 C1033 0.930 1_565 S
H1021 C1031 0.929 . S
H1022 C1026 0.929 1_565 S
H1023 C1032 0.929 . S
C1024 H1018 0.930 . S
C1024 C1025 1.367 . S
C1024 C1032 1.378 . S
C1025 C1024 1.367 . S
C1025 C1033 1.432 . S
C1026 H1022 0.929 1_545 S
C1026 C1028 1.378 . S
C1026 C1030 1.350 . S
C1027 C1030 1.463 . S
C1027 C1032 1.350 . S
C1027 N1035 1.427 . S
C1028 H1019 0.930 . S
C1028 C1026 1.378 . S
C1028 C1029 1.367 . S
C1029 C1028 1.367 . S
C1029 C1031 1.433 . S
C1030 C1026 1.350 . S
C1030 C1027 1.463 . S
C1030 N1034 1.427 . S
C1031 H1021 0.929 . S
C1031 C1029 1.433 . S
C1031 N1034 1.384 . S
C1032 H1023 0.929 . S
C1032 C1024 1.378 . S
C1032 C1027 1.350 . S
C1033 H1020 0.930 1_545 S
C1033 C1025 1.432 . S
C1033 N1035 1.383 . S
N1034 C1030 1.427 . S
N1034 C1031 1.384 . S
N1035 C1027 1.427 . S
N1035 C1033 1.383 . S
H1036 C1042 0.930 . S
H1037 C1046 0.934 . S
H1038 C1051 0.929 . S
H1039 C1049 0.929 . S
H1040 C1044 0.929 . S
H1041 C1050 0.929 . S
C1042 H1036 0.930 . S
C1042 C1043 1.367 . S
C1042 C1050 1.378 . S
C1043 C1042 1.367 . S
C1043 C1051 1.433 . S
C1044 H1040 0.929 . S
C1044 C1046 1.378 . S
C1044 C1048 1.350 . S
C1045 C1048 1.463 . S
C1045 C1050 1.350 . S
C1045 N1053 1.427 . S
C1046 H1037 0.934 . S
C1046 C1044 1.378 . S
C1046 C1047 1.367 1_554 S
C1047 C1046 1.367 1_556 S
C1047 C1049 1.433 . S
C1048 C1044 1.350 . S
C1048 C1045 1.463 . S
C1048 N1052 1.427 . S
C1049 H1039 0.929 . S
C1049 C1047 1.433 . S
C1049 N1052 1.384 1_556 S
C1050 H1041 0.929 . S
C1050 C1042 1.378 . S
C1050 C1045 1.350 . S
C1051 H1038 0.929 . S
C1051 C1043 1.433 . S
C1051 N1053 1.384 . S
N1052 C1048 1.427 . S
N1052 C1049 1.384 1_554 S
N1053 C1045 1.427 . S
N1053 C1051 1.384 . S
H1054 C1060 0.930 1_545 S
H1055 C1064 0.930 . S
H1056 C1069 0.929 . S
H1057 C1067 0.929 . S
H1058 C1062 0.929 . S
H1059 C1068 0.929 1_545 S
C1060 H1054 0.930 1_565 S
C1060 C1061 1.367 . S
C1060 C1068 1.378 . S
C1061 C1060 1.367 . S
C1061 C1069 1.433 . S
C1062 H1058 0.929 . S
C1062 C1064 1.378 . S
C1062 C1066 1.350 . S
C1063 C1066 1.463 . S
C1063 C1068 1.350 . S
C1063 N1071 1.427 . S
C1064 H1055 0.930 . S
C1064 C1062 1.378 . S
C1064 C1065 1.367 . S
C1065 C1064 1.367 . S
C1065 C1067 1.433 . S
C1066 C1062 1.350 . S
C1066 C1063 1.463 . S
C1066 N1070 1.427 . S
C1067 H1057 0.929 . S
C1067 C1065 1.433 . S
C1067 N1070 1.384 . S
C1068 H1059 0.929 1_565 S
C1068 C1060 1.378 . S
C1068 C1063 1.350 . S
C1069 H1056 0.929 . S
C1069 C1061 1.433 . S
C1069 N1071 1.384 . S
N1070 C1066 1.427 . S
N1070 C1067 1.384 . S
N1071 C1063 1.427 . S
N1071 C1069 1.384 . S
H1072 C1078 0.930 . S
H1073 C1082 0.930 . S
H1074 C1087 0.929 . S
H1075 C1085 0.929 . S
H1076 C1080 0.929 . S
H1077 C1086 0.929 . S
C1078 H1072 0.930 . S
C1078 C1079 1.367 . S
C1078 C1086 1.378 . S
C1079 C1078 1.367 . S
C1079 C1087 1.433 . S
C1080 H1076 0.929 . S
C1080 C1082 1.378 . S
C1080 C1084 1.350 . S
C1081 C1084 1.463 . S
C1081 C1086 1.350 . S
C1081 N1089 1.427 . S
C1082 H1073 0.930 . S
C1082 C1080 1.378 . S
C1082 C1083 1.367 . S
C1083 C1082 1.367 . S
C1083 C1085 1.433 . S
C1084 C1080 1.350 . S
C1084 C1081 1.463 . S
C1084 N1088 1.427 . S
C1085 H1075 0.929 . S
C1085 C1083 1.433 . S
C1085 N1088 1.384 . S
C1086 H1077 0.929 . S
C1086 C1078 1.378 . S
C1086 C1081 1.350 . S
C1087 H1074 0.929 . S
C1087 C1079 1.433 . S
C1087 N1089 1.384 . S
N1088 C1084 1.427 . S
N1088 C1085 1.384 . S
N1089 C1081 1.427 . S
N1089 C1087 1.384 . S
H1090 C1096 0.930 . S
H1091 C1100 0.930 . S
H1092 C1105 0.929 . S
H1093 C1103 0.929 . S
H1094 C1098 0.929 . S
H1095 C1104 0.929 . S
C1096 H1090 0.930 . S
C1096 C1097 1.367 . S
C1096 C1104 1.378 . S
C1097 C1096 1.367 . S
C1097 C1105 1.433 . S
C1098 H1094 0.929 . S
C1098 C1100 1.378 . S
C1098 C1102 1.350 . S
C1099 C1102 1.463 . S
C1099 C1104 1.350 . S
C1099 N1107 1.427 . S
C1100 H1091 0.930 . S
C1100 C1098 1.378 . S
C1100 C1101 1.367 . S
C1101 C1100 1.367 . S
C1101 C1103 1.433 . S
C1102 C1098 1.350 . S
C1102 C1099 1.463 . S
C1102 N1106 1.427 . S
C1103 H1093 0.929 . S
C1103 C1101 1.433 . S
C1103 N1106 1.384 . S
C1104 H1095 0.929 . S
C1104 C1096 1.378 . S
C1104 C1099 1.350 . S
C1105 H1092 0.929 . S
C1105 C1097 1.433 . S
C1105 N1107 1.384 . S
N1106 C1102 1.427 . S
N1106 C1103 1.384 . S
N1107 C1099 1.427 . S
N1107 C1105 1.384 . S
H1108 C1114 0.930 . S
H1109 C1118 0.930 . S
H1110 C1123 0.929 . S
H1111 C1121 0.929 . S
H1112 C1116 0.929 . S
H1113 C1122 0.929 . S
C1114 H1108 0.930 . S
C1114 C1115 1.367 . S
C1114 C1122 1.378 . S
C1115 C1114 1.367 . S
C1115 C1123 1.433 . S
C1116 H1112 0.929 . S
C1116 C1118 1.378 . S
C1116 C1120 1.350 . S
C1117 C1120 1.463 1_655 S
C1117 C1122 1.350 . S
C1117 N1125 1.427 . S
C1118 H1109 0.930 . S
C1118 C1116 1.378 . S
C1118 C1119 1.367 . S
C1119 C1118 1.367 . S
C1119 C1121 1.433 . S
C1120 C1116 1.350 . S
C1120 C1117 1.463 1_455 S
C1120 N1124 1.427 . S
C1121 H1111 0.929 . S
C1121 C1119 1.433 . S
C1121 N1124 1.384 . S
C1122 H1113 0.929 . S
C1122 C1114 1.378 . S
C1122 C1117 1.350 . S
C1123 H1110 0.929 . S
C1123 C1115 1.433 . S
C1123 N1125 1.384 . S
N1124 C1120 1.427 . S
N1124 C1121 1.384 . S
N1125 C1117 1.427 . S
N1125 C1123 1.384 . S
H1126 C1132 0.930 . S
H1127 C1136 0.930 . S
H1128 C1141 0.929 1_455 S
H1129 C1139 0.929 1_655 S
H1130 C1134 0.929 . S
H1131 C1140 0.929 . S
C1132 H1126 0.930 . S
C1132 C1133 1.367 . S
C1132 C1140 1.378 . S
C1133 C1132 1.367 . S
C1133 C1141 1.433 . S
C1134 H1130 0.929 . S
C1134 C1136 1.378 . S
C1134 C1138 1.350 . S
C1135 C1138 1.463 1_655 S
C1135 C1140 1.350 . S
C1135 N1143 1.427 1_655 S
C1136 H1127 0.930 . S
C1136 C1134 1.378 . S
C1136 C1137 1.367 . S
C1137 C1136 1.367 . S
C1137 C1139 1.433 . S
C1138 C1134 1.350 . S
C1138 C1135 1.463 1_455 S
C1138 N1142 1.427 1_455 S
C1139 H1129 0.929 1_455 S
C1139 C1137 1.433 . S
C1139 N1142 1.384 1_455 S
C1140 H1131 0.929 . S
C1140 C1132 1.378 . S
C1140 C1135 1.350 . S
C1141 H1128 0.929 1_655 S
C1141 C1133 1.433 . S
C1141 N1143 1.384 1_655 S
N1142 C1138 1.427 1_655 S
N1142 C1139 1.384 1_655 S
N1143 C1135 1.427 1_455 S
N1143 C1141 1.384 1_455 S
H1144 C1150 0.930 . S
H1145 C1154 0.930 . S
H1146 C1159 0.929 . S
H1147 C1157 0.929 . S
H1148 C1152 0.929 . S
H1149 C1158 0.929 . S
C1150 H1144 0.930 . S
C1150 C1151 1.367 . S
C1150 C1158 1.378 . S
C1151 C1150 1.367 . S
C1151 C1159 1.433 . S
C1152 H1148 0.929 . S
C1152 C1154 1.378 . S
C1152 C1156 1.350 . S
C1153 C1156 1.463 . S
C1153 C1158 1.350 . S
C1153 N1161 1.427 . S
C1154 H1145 0.930 . S
C1154 C1152 1.378 . S
C1154 C1155 1.367 . S
C1155 C1154 1.367 . S
C1155 C1157 1.433 . S
C1156 C1152 1.350 . S
C1156 C1153 1.463 . S
C1156 N1160 1.427 . S
C1157 H1147 0.929 . S
C1157 C1155 1.433 . S
C1157 N1160 1.384 . S
C1158 H1149 0.929 . S
C1158 C1150 1.378 . S
C1158 C1153 1.350 . S
C1159 H1146 0.929 . S
C1159 C1151 1.433 . S
C1159 N1161 1.384 . S
N1160 C1156 1.427 . S
N1160 C1157 1.384 . S
N1161 C1153 1.427 . S
N1161 C1159 1.384 . S
H1162 C1168 0.930 . S
H1163 C1172 0.930 . S
H1164 C1177 0.929 . S
H1165 C1175 0.929 . S
H1166 C1170 0.929 . S
H1167 C1176 0.929 . S
C1168 H1162 0.930 . S
C1168 C1169 1.367 . S
C1168 C1176 1.378 . S
C1169 C1168 1.367 . S
C1169 C1177 1.433 . S
C1170 H1166 0.929 . S
C1170 C1172 1.378 . S
C1170 C1174 1.350 . S
C1171 C1174 1.463 . S
C1171 C1176 1.350 . S
C1171 N1179 1.427 . S
C1172 H1163 0.930 . S
C1172 C1170 1.378 . S
C1172 C1173 1.367 . S
C1173 C1172 1.367 . S
C1173 C1175 1.433 . S
C1174 C1170 1.350 . S
C1174 C1171 1.463 . S
C1174 N1178 1.427 . S
C1175 H1165 0.929 . S
C1175 C1173 1.433 . S
C1175 N1178 1.384 . S
C1176 H1167 0.929 . S
C1176 C1168 1.378 . S
C1176 C1171 1.350 . S
C1177 H1164 0.929 . S
C1177 C1169 1.433 . S
C1177 N1179 1.384 . S
N1178 C1174 1.427 . S
N1178 C1175 1.384 . S
N1179 C1171 1.427 . S
N1179 C1177 1.384 . S
H1180 C1186 0.930 . S
H1181 C1190 0.930 . S
H1182 C1195 0.929 . S
H1183 C1193 0.929 . S
H1184 C1188 0.929 . S
H1185 C1194 0.929 . S
C1186 H1180 0.930 . S
C1186 C1187 1.367 . S
C1186 C1194 1.378 . S
C1187 C1186 1.367 . S
C1187 C1195 1.433 . S
C1188 H1184 0.929 . S
C1188 C1190 1.378 . S
C1188 C1192 1.350 . S
C1189 C1192 1.463 1_455 S
C1189 C1194 1.350 . S
C1189 N1197 1.427 . S
C1190 H1181 0.930 . S
C1190 C1188 1.378 . S
C1190 C1191 1.367 . S
C1191 C1190 1.367 . S
C1191 C1193 1.433 . S
C1192 C1188 1.350 . S
C1192 C1189 1.463 1_655 S
C1192 N1196 1.427 . S
C1193 H1183 0.929 . S
C1193 C1191 1.433 . S
C1193 N1196 1.384 . S
C1194 H1185 0.929 . S
C1194 C1186 1.378 . S
C1194 C1189 1.350 . S
C1195 H1182 0.929 . S
C1195 C1187 1.433 . S
C1195 N1197 1.384 . S
N1196 C1192 1.427 . S
N1196 C1193 1.384 . S
N1197 C1189 1.427 . S
N1197 C1195 1.384 . S
H1198 C1204 0.930 . S
H1199 C1208 0.930 . S
H1200 C1213 0.929 . S
H1201 C1211 0.929 . S
H1202 C1206 0.929 . S
H1203 C1212 0.929 . S
C1204 H1198 0.930 . S
C1204 C1205 1.367 . S
C1204 C1212 1.378 . S
C1205 C1204 1.367 . S
C1205 C1213 1.433 . S
C1206 H1202 0.929 . S
C1206 C1208 1.378 . S
C1206 C1210 1.350 . S
C1207 C1210 1.463 1_455 S
C1207 C1212 1.350 . S
C1207 N1215 1.427 . S
C1208 H1199 0.930 . S
C1208 C1206 1.378 . S
C1208 C1209 1.367 . S
C1209 C1208 1.367 . S
C1209 C1211 1.433 . S
C1210 C1206 1.350 . S
C1210 C1207 1.463 1_655 S
C1210 N1214 1.427 . S
C1211 H1201 0.929 . S
C1211 C1209 1.433 . S
C1211 N1214 1.384 . S
C1212 H1203 0.929 . S
C1212 C1204 1.378 . S
C1212 C1207 1.350 . S
C1213 H1200 0.929 . S
C1213 C1205 1.433 . S
C1213 N1215 1.384 . S
N1214 C1210 1.427 . S
N1214 C1211 1.384 . S
N1215 C1207 1.427 . S
N1215 C1213 1.384 . S
H1216 C1222 0.930 . S
H1217 C1226 0.930 . S
H1218 C1231 0.929 . S
H1219 C1229 0.929 . S
H1220 C1224 0.929 . S
H1221 C1230 0.929 . S
C1222 H1216 0.930 . S
C1222 C1223 1.367 . S
C1222 C1230 1.378 . S
C1223 C1222 1.367 . S
C1223 C1231 1.433 . S
C1224 H1220 0.929 . S
C1224 C1226 1.378 . S
C1224 C1228 1.350 . S
C1225 C1228 1.463 . S
C1225 C1230 1.350 . S
C1225 N1233 1.427 . S
C1226 H1217 0.930 . S
C1226 C1224 1.378 . S
C1226 C1227 1.367 . S
C1227 C1226 1.367 . S
C1227 C1229 1.433 . S
C1228 C1224 1.350 . S
C1228 C1225 1.463 . S
C1228 N1232 1.427 . S
C1229 H1219 0.929 . S
C1229 C1227 1.433 . S
C1229 N1232 1.384 . S
C1230 H1221 0.929 . S
C1230 C1222 1.378 . S
C1230 C1225 1.350 . S
C1231 H1218 0.929 . S
C1231 C1223 1.433 . S
C1231 N1233 1.384 . S
N1232 C1228 1.427 . S
N1232 C1229 1.384 . S
N1233 C1225 1.427 . S
N1233 C1231 1.384 . S
H1234 C1240 0.930 . S
H1235 C1244 0.930 . S
H1236 C1249 0.929 . S
H1237 C1247 0.929 . S
H1238 C1242 0.929 . S
H1239 C1248 0.929 . S
C1240 H1234 0.930 . S
C1240 C1241 1.367 . S
C1240 C1248 1.378 . S
C1241 C1240 1.367 . S
C1241 C1249 1.433 . S
C1242 H1238 0.929 . S
C1242 C1244 1.378 . S
C1242 C1246 1.350 . S
C1243 C1246 1.463 . S
C1243 C1248 1.350 . S
C1243 N1251 1.427 . S
C1244 H1235 0.930 . S
C1244 C1242 1.378 . S
C1244 C1245 1.367 . S
C1245 C1244 1.367 . S
C1245 C1247 1.433 . S
C1246 C1242 1.350 . S
C1246 C1243 1.463 . S
C1246 N1250 1.427 . S
C1247 H1237 0.929 . S
C1247 C1245 1.433 . S
C1247 N1250 1.384 . S
C1248 H1239 0.929 . S
C1248 C1240 1.378 . S
C1248 C1243 1.350 . S
C1249 H1236 0.929 . S
C1249 C1241 1.433 . S
C1249 N1251 1.384 . S
N1250 C1246 1.427 . S
N1250 C1247 1.384 . S
N1251 C1243 1.427 . S
N1251 C1249 1.384 . S
H1252 C1258 0.930 . S
H1253 C1262 0.930 . S
H1254 C1267 0.929 . S
H1255 C1265 0.929 . S
H1256 C1260 0.929 . S
H1257 C1266 0.929 . S
C1258 H1252 0.930 . S
C1258 C1259 1.367 . S
C1258 C1266 1.378 . S
C1259 C1258 1.367 . S
C1259 C1267 1.433 . S
C1260 H1256 0.929 . S
C1260 C1262 1.378 . S
C1260 C1264 1.350 . S
C1261 C1264 1.463 . S
C1261 C1266 1.350 . S
C1261 N1269 1.427 . S
C1262 H1253 0.930 . S
C1262 C1260 1.378 . S
C1262 C1263 1.367 . S
C1263 C1262 1.367 . S
C1263 C1265 1.433 . S
C1264 C1260 1.350 . S
C1264 C1261 1.463 . S
C1264 N1268 1.427 . S
C1265 H1255 0.929 . S
C1265 C1263 1.433 . S
C1265 N1268 1.384 . S
C1266 H1257 0.929 . S
C1266 C1258 1.378 . S
C1266 C1261 1.350 . S
C1267 H1254 0.929 . S
C1267 C1259 1.433 . S
C1267 N1269 1.384 . S
N1268 C1264 1.427 . S
N1268 C1265 1.384 . S
N1269 C1261 1.427 . S
N1269 C1267 1.384 . S
H1270 C1276 0.930 . S
H1271 C1280 0.930 . S
H1272 C1285 0.929 . S
H1273 C1283 0.929 . S
H1274 C1278 0.929 . S
H1275 C1284 0.929 . S
C1276 H1270 0.930 . S
C1276 C1277 1.367 1_455 S
C1276 C1284 1.378 . S
C1277 C1276 1.367 1_655 S
C1277 C1285 1.433 . S
C1278 H1274 0.929 . S
C1278 C1280 1.378 . S
C1278 C1282 1.350 . S
C1279 C1282 1.463 . S
C1279 C1284 1.350 . S
C1279 N1287 1.427 . S
C1280 H1271 0.930 . S
C1280 C1278 1.378 . S
C1280 C1281 1.367 . S
C1281 C1280 1.367 . S
C1281 C1283 1.433 . S
C1282 C1278 1.350 . S
C1282 C1279 1.463 . S
C1282 N1286 1.427 . S
C1283 H1273 0.929 . S
C1283 C1281 1.433 . S
C1283 N1286 1.384 . S
C1284 H1275 0.929 . S
C1284 C1276 1.378 . S
C1284 C1279 1.350 . S
C1285 H1272 0.929 . S
C1285 C1277 1.433 . S
C1285 N1287 1.384 1_655 S
N1286 C1282 1.427 . S
N1286 C1283 1.384 . S
N1287 C1279 1.427 . S
N1287 C1285 1.384 1_455 S
H1288 C1294 0.930 . S
H1289 C1298 0.930 . S
H1290 C1303 0.929 . S
H1291 C1301 0.929 . S
H1292 C1296 0.929 . S
H1293 C1302 0.929 . S
C1294 H1288 0.930 . S
C1294 C1295 1.367 . S
C1294 C1302 1.378 . S
C1295 C1294 1.367 . S
C1295 C1303 1.433 . S
C1296 H1292 0.929 . S
C1296 C1298 1.378 . S
C1296 C1300 1.350 . S
C1297 C1300 1.463 . S
C1297 C1302 1.350 . S
C1297 N1305 1.427 . S
C1298 H1289 0.930 . S
C1298 C1296 1.378 . S
C1298 C1299 1.367 . S
C1299 C1298 1.367 . S
C1299 C1301 1.433 . S
C1300 C1296 1.350 . S
C1300 C1297 1.463 . S
C1300 N1304 1.427 . S
C1301 H1291 0.929 . S
C1301 C1299 1.433 . S
C1301 N1304 1.384 . S
C1302 H1293 0.929 . S
C1302 C1294 1.378 . S
C1302 C1297 1.350 . S
C1303 H1290 0.929 . S
C1303 C1295 1.433 . S
C1303 N1305 1.384 . S
N1304 C1300 1.427 . S
N1304 C1301 1.384 . S
N1305 C1297 1.427 . S
N1305 C1303 1.384 . S
H1306 C1312 0.930 . S
H1307 C1316 0.930 . S
H1308 C1321 0.929 . S
H1309 C1319 0.929 . S
H1310 C1314 0.929 . S
H1311 C1320 0.929 . S
C1312 H1306 0.930 . S
C1312 C1313 1.367 . S
C1312 C1320 1.378 . S
C1313 C1312 1.367 . S
C1313 C1321 1.433 . S
C1314 H1310 0.929 . S
C1314 C1316 1.378 . S
C1314 C1318 1.350 . S
C1315 C1318 1.463 . S
C1315 C1320 1.350 . S
C1315 N1323 1.427 . S
C1316 H1307 0.930 . S
C1316 C1314 1.378 . S
C1316 C1317 1.367 . S
C1317 C1316 1.367 . S
C1317 C1319 1.433 . S
C1318 C1314 1.350 . S
C1318 C1315 1.463 . S
C1318 N1322 1.427 . S
C1319 H1309 0.929 . S
C1319 C1317 1.433 . S
C1319 N1322 1.384 . S
C1320 H1311 0.929 . S
C1320 C1312 1.378 . S
C1320 C1315 1.350 . S
C1321 H1308 0.929 . S
C1321 C1313 1.433 . S
C1321 N1323 1.384 . S
N1322 C1318 1.427 . S
N1322 C1319 1.384 . S
N1323 C1315 1.427 . S
N1323 C1321 1.384 . S
H1324 C1330 0.930 . S
H1325 C1334 0.930 . S
H1326 C1339 0.929 . S
H1327 C1337 0.929 . S
H1328 C1332 0.929 . S
H1329 C1338 0.929 . S
C1330 H1324 0.930 . S
C1330 C1331 1.367 . S
C1330 C1338 1.378 . S
C1331 C1330 1.367 . S
C1331 C1339 1.433 . S
C1332 H1328 0.929 . S
C1332 C1334 1.378 . S
C1332 C1336 1.350 . S
C1333 C1336 1.463 . S
C1333 C1338 1.350 . S
C1333 N1341 1.427 . S
C1334 H1325 0.930 . S
C1334 C1332 1.378 . S
C1334 C1335 1.367 . S
C1335 C1334 1.367 . S
C1335 C1337 1.433 . S
C1336 C1332 1.350 . S
C1336 C1333 1.463 . S
C1336 N1340 1.427 . S
C1337 H1327 0.929 . S
C1337 C1335 1.433 . S
C1337 N1340 1.384 . S
C1338 H1329 0.929 . S
C1338 C1330 1.378 . S
C1338 C1333 1.350 . S
C1339 H1326 0.929 . S
C1339 C1331 1.433 . S
C1339 N1341 1.384 . S
N1340 C1336 1.427 . S
N1340 C1337 1.384 . S
N1341 C1333 1.427 . S
N1341 C1339 1.384 . S
H1342 C1348 0.930 . S
H1343 C1352 0.930 . S
H1344 C1357 0.929 . S
H1345 C1355 0.929 . S
H1346 C1350 0.929 . S
H1347 C1356 0.929 . S
C1348 H1342 0.930 . S
C1348 C1349 1.367 . S
C1348 C1356 1.378 . S
C1349 C1348 1.367 . S
C1349 C1357 1.433 . S
C1350 H1346 0.929 . S
C1350 C1352 1.378 1_655 S
C1350 C1354 1.350 . S
C1351 C1354 1.463 . S
C1351 C1356 1.350 . S
C1351 N1359 1.427 . S
C1352 H1343 0.930 . S
C1352 C1350 1.378 1_455 S
C1352 C1353 1.367 . S
C1353 C1352 1.367 . S
C1353 C1355 1.433 1_455 S
C1354 C1350 1.350 . S
C1354 C1351 1.463 . S
C1354 N1358 1.427 . S
C1355 H1345 0.929 . S
C1355 C1353 1.433 1_655 S
C1355 N1358 1.384 . S
C1356 H1347 0.929 . S
C1356 C1348 1.378 . S
C1356 C1351 1.350 . S
C1357 H1344 0.929 . S
C1357 C1349 1.433 . S
C1357 N1359 1.384 . S
N1358 C1354 1.427 . S
N1358 C1355 1.384 . S
N1359 C1351 1.427 . S
N1359 C1357 1.384 . S
H1360 C1366 0.930 . S
H1361 C1370 0.930 . S
H1362 C1375 0.929 . S
H1363 C1373 0.929 . S
H1364 C1368 0.929 . S
H1365 C1374 0.929 . S
C1366 H1360 0.930 . S
C1366 C1367 1.367 . S
C1366 C1374 1.378 . S
C1367 C1366 1.367 . S
C1367 C1375 1.433 . S
C1368 H1364 0.929 . S
C1368 C1370 1.378 . S
C1368 C1372 1.350 . S
C1369 C1372 1.463 . S
C1369 C1374 1.350 . S
C1369 N1377 1.427 . S
C1370 H1361 0.930 . S
C1370 C1368 1.378 . S
C1370 C1371 1.367 . S
C1371 C1370 1.367 . S
C1371 C1373 1.433 . S
C1372 C1368 1.350 . S
C1372 C1369 1.463 . S
C1372 N1376 1.427 . S
C1373 H1363 0.929 . S
C1373 C1371 1.433 . S
C1373 N1376 1.384 . S
C1374 H1365 0.929 . S
C1374 C1366 1.378 . S
C1374 C1369 1.350 . S
C1375 H1362 0.929 . S
C1375 C1367 1.433 . S
C1375 N1377 1.384 . S
N1376 C1372 1.427 . S
N1376 C1373 1.384 . S
N1377 C1369 1.427 . S
N1377 C1375 1.384 . S
H1378 C1384 0.930 . S
H1379 C1388 0.930 1_445 S
H1380 C1393 0.929 . S
H1381 C1391 0.929 1_455 S
H1382 C1386 0.929 . S
H1383 C1392 0.929 . S
C1384 H1378 0.930 . S
C1384 C1385 1.367 . S
C1384 C1392 1.378 . S
C1385 C1384 1.367 . S
C1385 C1393 1.433 . S
C1386 H1382 0.929 . S
C1386 C1388 1.378 . S
C1386 C1390 1.350 . S
C1387 C1390 1.463 . S
C1387 C1392 1.350 . S
C1387 N1395 1.427 . S
C1388 H1379 0.930 1_665 S
C1388 C1386 1.378 . S
C1388 C1389 1.367 1_655 S
C1389 C1388 1.367 1_455 S
C1389 C1391 1.433 1_455 S
C1390 C1386 1.350 . S
C1390 C1387 1.463 . S
C1390 N1394 1.427 . S
C1391 H1381 0.929 1_655 S
C1391 C1389 1.433 1_655 S
C1391 N1394 1.384 . S
C1392 H1383 0.929 . S
C1392 C1384 1.378 . S
C1392 C1387 1.350 . S
C1393 H1380 0.929 . S
C1393 C1385 1.433 . S
C1393 N1395 1.384 . S
N1394 C1390 1.427 . S
N1394 C1391 1.384 . S
N1395 C1387 1.427 . S
N1395 C1393 1.384 . S
H1396 C1402 0.930 . S
H1397 C1406 0.930 . S
H1398 C1411 0.929 . S
H1399 C1409 0.929 . S
H1400 C1404 0.929 . S
H1401 C1410 0.929 . S
C1402 H1396 0.930 . S
C1402 C1403 1.367 . S
C1402 C1410 1.378 . S
C1403 C1402 1.367 . S
C1403 C1411 1.433 . S
C1404 H1400 0.929 . S
C1404 C1406 1.378 . S
C1404 C1408 1.350 . S
C1405 C1408 1.463 . S
C1405 C1410 1.350 . S
C1405 N1413 1.427 . S
C1406 H1397 0.930 . S
C1406 C1404 1.378 . S
C1406 C1407 1.367 . S
C1407 C1406 1.367 . S
C1407 C1409 1.433 . S
C1408 C1404 1.350 . S
C1408 C1405 1.463 . S
C1408 N1412 1.427 . S
C1409 H1399 0.929 . S
C1409 C1407 1.433 . S
C1409 N1412 1.384 . S
C1410 H1401 0.929 . S
C1410 C1402 1.378 . S
C1410 C1405 1.350 . S
C1411 H1398 0.929 . S
C1411 C1403 1.433 . S
C1411 N1413 1.384 . S
N1412 C1408 1.427 . S
N1412 C1409 1.384 . S
N1413 C1405 1.427 . S
N1413 C1411 1.384 . S
H1414 C1420 0.930 . S
H1415 C1424 0.930 . S
H1416 C1429 0.929 . S
H1417 C1427 0.929 . S
H1418 C1422 0.929 . S
H1419 C1428 0.930 1_565 S
C1420 H1414 0.930 . S
C1420 C1421 1.367 1_565 S
C1420 C1428 1.379 1_565 S
C1421 C1420 1.367 1_545 S
C1421 C1429 1.433 . S
C1422 H1418 0.929 . S
C1422 C1424 1.378 . S
C1422 C1426 1.350 . S
C1423 C1426 1.463 . S
C1423 C1428 1.347 . S
C1423 N1431 1.427 . S
C1424 H1415 0.930 . S
C1424 C1422 1.378 . S
C1424 C1425 1.367 . S
C1425 C1424 1.367 . S
C1425 C1427 1.433 . S
C1426 C1422 1.350 . S
C1426 C1423 1.463 . S
C1426 N1430 1.427 . S
C1427 H1417 0.929 . S
C1427 C1425 1.433 . S
C1427 N1430 1.384 . S
C1428 H1419 0.930 1_545 S
C1428 C1420 1.379 1_545 S
C1428 C1423 1.347 . S
C1429 H1416 0.929 . S
C1429 C1421 1.433 . S
C1429 N1431 1.384 . S
N1430 C1426 1.427 . S
N1430 C1427 1.384 . S
N1431 C1423 1.427 . S
N1431 C1429 1.384 . S
H1432 C1438 0.930 . S
H1433 C1442 0.930 . S
H1434 C1447 0.929 . S
H1435 C1445 0.929 . S
H1436 C1440 0.929 . S
H1437 C1446 0.929 . S
C1438 H1432 0.930 . S
C1438 C1439 1.367 . S
C1438 C1446 1.378 . S
C1439 C1438 1.367 . S
C1439 C1447 1.433 . S
C1440 H1436 0.929 . S
C1440 C1442 1.378 . S
C1440 C1444 1.350 . S
C1441 C1444 1.463 . S
C1441 C1446 1.350 . S
C1441 N1449 1.427 . S
C1442 H1433 0.930 . S
C1442 C1440 1.378 . S
C1442 C1443 1.367 . S
C1443 C1442 1.367 . S
C1443 C1445 1.433 . S
C1444 C1440 1.350 . S
C1444 C1441 1.463 . S
C1444 N1448 1.427 . S
C1445 H1435 0.929 . S
C1445 C1443 1.433 . S
C1445 N1448 1.384 . S
C1446 H1437 0.929 . S
C1446 C1438 1.378 . S
C1446 C1441 1.350 . S
C1447 H1434 0.929 . S
C1447 C1439 1.433 . S
C1447 N1449 1.384 . S
N1448 C1444 1.427 . S
N1448 C1445 1.384 . S
N1449 C1441 1.427 . S
N1449 C1447 1.384 . S
H1450 C1456 0.930 1_655 S
H1451 C1460 0.930 . S
H1452 C1465 0.939 . S
H1453 C1463 0.929 . S
H1454 C1458 0.929 . S
H1455 C1464 0.929 . S
C1456 H1450 0.930 1_455 S
C1456 C1457 1.367 1_455 S
C1456 C1464 1.378 . S
C1457 C1456 1.367 1_655 S
C1457 C1465 1.433 1_655 S
C1458 H1454 0.929 . S
C1458 C1460 1.378 . S
C1458 C1462 1.350 . S
C1459 C1462 1.463 . S
C1459 C1464 1.350 . S
C1459 N1467 1.427 . S
C1460 H1451 0.930 . S
C1460 C1458 1.378 . S
C1460 C1461 1.367 . S
C1461 C1460 1.367 . S
C1461 C1463 1.433 . S
C1462 C1458 1.350 . S
C1462 C1459 1.463 . S
C1462 N1466 1.427 . S
C1463 H1453 0.929 . S
C1463 C1461 1.433 . S
C1463 N1466 1.384 . S
C1464 H1455 0.929 . S
C1464 C1456 1.378 . S
C1464 C1459 1.350 . S
C1465 H1452 0.939 . S
C1465 C1457 1.433 1_455 S
C1465 N1467 1.384 . S
N1466 C1462 1.427 . S
N1466 C1463 1.384 . S
N1467 C1459 1.427 . S
N1467 C1465 1.384 . S
H1468 C1474 0.930 . S
H1469 C1478 0.930 . S
H1470 C1483 0.929 . S
H1471 C1481 0.929 . S
H1472 C1476 0.929 . S
H1473 C1482 0.929 . S
C1474 H1468 0.930 . S
C1474 C1475 1.367 . S
C1474 C1482 1.378 . S
C1475 C1474 1.367 . S
C1475 C1483 1.433 . S
C1476 H1472 0.929 . S
C1476 C1478 1.378 . S
C1476 C1480 1.350 . S
C1477 C1480 1.463 . S
C1477 C1482 1.350 . S
C1477 N1485 1.427 . S
C1478 H1469 0.930 . S
C1478 C1476 1.378 . S
C1478 C1479 1.367 . S
C1479 C1478 1.367 . S
C1479 C1481 1.433 . S
C1480 C1476 1.350 . S
C1480 C1477 1.463 . S
C1480 N1484 1.427 . S
C1481 H1471 0.929 . S
C1481 C1479 1.433 . S
C1481 N1484 1.384 . S
C1482 H1473 0.929 . S
C1482 C1474 1.378 . S
C1482 C1477 1.350 . S
C1483 H1470 0.929 . S
C1483 C1475 1.433 . S
C1483 N1485 1.384 . S
N1484 C1480 1.427 . S
N1484 C1481 1.384 . S
N1485 C1477 1.427 . S
N1485 C1483 1.384 . S
H1486 C1492 0.930 . S
H1487 C1496 0.930 . S
H1488 C1501 0.929 . S
H1489 C1499 0.929 . S
H1490 C1494 0.929 . S
H1491 C1500 0.929 . S
C1492 H1486 0.930 . S
C1492 C1493 1.367 . S
C1492 C1500 1.378 . S
C1493 C1492 1.367 . S
C1493 C1501 1.433 . S
C1494 H1490 0.929 . S
C1494 C1496 1.378 . S
C1494 C1498 1.350 . S
C1495 C1498 1.463 . S
C1495 C1500 1.350 . S
C1495 N1503 1.427 . S
C1496 H1487 0.930 . S
C1496 C1494 1.378 . S
C1496 C1497 1.367 . S
C1497 C1496 1.367 . S
C1497 C1499 1.433 . S
C1498 C1494 1.350 . S
C1498 C1495 1.463 . S
C1498 N1502 1.427 . S
C1499 H1489 0.929 . S
C1499 C1497 1.433 . S
C1499 N1502 1.384 . S
C1500 H1491 0.929 . S
C1500 C1492 1.378 . S
C1500 C1495 1.350 . S
C1501 H1488 0.929 . S
C1501 C1493 1.433 . S
C1501 N1503 1.384 . S
N1502 C1498 1.427 . S
N1502 C1499 1.384 . S
N1503 C1495 1.427 . S
N1503 C1501 1.384 . S
C647 C15 0.789 . S
C651 C485 0.789 . S
C665 C205 0.775 . S
C669 C55 0.775 . S
C683 C95 0.766 . S
C687 C565 0.766 . S
C701 C135 0.764 1_455 S
C705 C285 0.764 1_655 S
C719 C165 0.789 . S
C723 C335 0.789 . S
C737 C415 0.767 . S
C741 C245 0.767 . S
C755 C525 0.817 1_455 S
C759 C375 0.817 1_655 S
C773 C455 0.817 . S
C777 C605 0.817 . S
C791 C368 2.181 . S
C795 C5 2.144 . S
C809 C45 2.144 . S
C813 C408 2.174 . S
C827 C85 2.136 . S
C831 C448 2.173 . S
C845 C328 2.180 . S
C849 C125 2.145 . S
C863 C538 2.173 . S
C867 C175 2.137 . S
C881 C578 2.180 . S
C885 C215 2.140 . S
C899 C255 2.144 . S
C903 C618 2.174 . S
C917 C498 2.174 . S
C921 C295 2.143 . S
C935 C325 2.136 . S
C939 C48 2.173 . S
C953 C365 2.138 . S
C957 C88 2.179 . S
C971 C405 2.147 . S
C975 C128 2.179 . S
C989 C8 2.181 . S
C993 C445 2.144 . S
C1007 C218 2.180 . S
C1011 C495 2.140 . S
C1025 C535 2.144 . S
C1029 C258 2.181 . S
C1043 C298 2.177 . S
C1047 C575 2.146 . S
C1061 C615 2.137 . S
C1065 C178 2.173 . S
C1079 C19 3.047 . S
C1083 C419 3.049 . S
C1097 C59 3.046 . S
C1101 C459 3.051 . S
C1115 C339 3.050 . S
C1119 C99 3.045 . S
C1133 C139 3.048 . S
C1137 C379 3.049 . S
C1151 C169 3.046 . S
C1155 C569 3.050 . S
C1169 C209 3.046 . S
C1173 C609 3.048 . S
C1187 C489 3.050 . S
C1191 C249 3.045 . S
C1205 C289 3.045 . S
C1209 C529 3.051 . S
C1223 C18 1.814 . S
C1227 C299 2.070 . S
C1241 C499 2.071 . S
C1245 C58 1.814 . S
C1259 C98 1.834 . S
C1263 C219 2.080 . S
C1277 C138 1.821 . S
C1281 C579 2.073 . S
C1295 C168 1.813 . S
C1299 C129 2.070 . S
C1313 C329 2.070 . S
C1317 C208 1.813 . S
C1331 C248 1.830 . S
C1335 C49 2.079 . S
C1349 C409 2.072 . S
C1353 C288 1.816 . S
C1367 C338 1.821 . S
C1371 C619 2.075 . S
C1385 C179 2.070 . S
C1389 C378 1.814 1_565 S
C1403 C539 2.076 . S
C1407 C418 1.826 . S
C1421 C458 1.823 1_545 S
C1425 C259 2.074 . S
C1439 C488 1.821 . S
C1443 C449 2.075 . S
C1457 C528 1.812 1_545 S
C1461 C9 2.070 . S
C1475 C369 2.071 . S
C1479 C568 1.816 . S
C1493 C89 2.080 . S
C1497 C608 1.834 1_565 S
