# Generated by pormake.
# Topology sml, (6)-cn, num edge types: 1
# Building blocks:
#     Node 0, Type 0, BuildingBlock: GEDQOX_clean_sbu_0, # of connection points: 6
#     Node 1, Type 0, BuildingBlock: GEDQOX_clean_sbu_0, # of connection points: 6
#     Node 2, Type 0, BuildingBlock: GEDQOX_clean_sbu_0, # of connection points: 6
#     Node 3, Type 0, BuildingBlock: GEDQOX_clean_sbu_0, # of connection points: 6
#     Node 4, Type 0, BuildingBlock: GEDQOX_clean_sbu_0, # of connection points: 6
#     Node 5, Type 0, BuildingBlock: GEDQOX_clean_sbu_0, # of connection points: 6
#     Edge 6, Type (0, 0), BuildingBlock: CIFDUS_clean_linker_0, # of connection points: 2
#     Edge 7, Type (0, 0), BuildingBlock: CIFDUS_clean_linker_0, # of connection points: 2
#     Edge 8, Type (0, 0), BuildingBlock: CIFDUS_clean_linker_0, # of connection points: 2
#     Edge 9, Type (0, 0), BuildingBlock: CIFDUS_clean_linker_0, # of connection points: 2
#     Edge 10, Type (0, 0), BuildingBlock: CIFDUS_clean_linker_0, # of connection points: 2
#     Edge 11, Type (0, 0), BuildingBlock: CIFDUS_clean_linker_0, # of connection points: 2
#     Edge 12, Type (0, 0), BuildingBlock: CIFDUS_clean_linker_0, # of connection points: 2
#     Edge 13, Type (0, 0), BuildingBlock: CIFDUS_clean_linker_0, # of connection points: 2
#     Edge 14, Type (0, 0), BuildingBlock: CIFDUS_clean_linker_0, # of connection points: 2
#     Edge 15, Type (0, 0), BuildingBlock: CIFDUS_clean_linker_0, # of connection points: 2
#     Edge 16, Type (0, 0), BuildingBlock: CIFDUS_clean_linker_0, # of connection points: 2
#     Edge 17, Type (0, 0), BuildingBlock: CIFDUS_clean_linker_0, # of connection points: 2
#     Edge 18, Type (0, 0), BuildingBlock: CIFDUS_clean_linker_0, # of connection points: 2
#     Edge 19, Type (0, 0), BuildingBlock: CIFDUS_clean_linker_0, # of connection points: 2
#     Edge 20, Type (0, 0), BuildingBlock: CIFDUS_clean_linker_0, # of connection points: 2
#     Edge 21, Type (0, 0), BuildingBlock: CIFDUS_clean_linker_0, # of connection points: 2
#     Edge 22, Type (0, 0), BuildingBlock: CIFDUS_clean_linker_0, # of connection points: 2
#     Edge 23, Type (0, 0), BuildingBlock: CIFDUS_clean_linker_0, # of connection points: 2
# Relax obj value: 0.241
# Max RMSD: 0.232
# Mean RMSD: 0.232
data_MOF--net-sml--node1-GEDQOX_clean_sbu_0--edge1-CIFDUS_clean_linker_0
_symmetry_space_group_name_H-M    P1
_symmetry_Int_Tables_number       1
_symmetry_cell_setting            triclinic
loop_
_symmetry_equiv_pos_as_xyz
'x, y, z'
_cell_length_a     48.315928
_cell_length_b     48.171402
_cell_length_c     13.64033
_cell_angle_alpha  90.073046
_cell_angle_beta   89.879052
_cell_angle_gamma 120.01288
loop_
_atom_site_label
_atom_site_type_symbol
_atom_site_fract_x
_atom_site_fract_y
_atom_site_fract_z
_atom_type_partial_charge
Nd0 Nd 0.24298 0.42802 1.01951 0.0
Nd1 Nd 0.21054 0.46823 1.02782 0.0
C2 C 0.28105 0.40356 0.99459 0.0
C3 C 0.29047 0.38237 0.94378 0.0
C4 C 0.32289 0.39433 0.92195 0.0
C5 C 0.33368 0.3739 0.88842 0.0
C6 C 0.31224 0.34091 0.87591 0.0
C7 C 0.27947 0.32925 0.89368 0.0
C8 C 0.26871 0.34973 0.92755 0.0
C9 C 0.17737 0.3938 0.04894 0.0
C10 C 0.21813 0.44417 0.81555 0.0
C11 C 0.17414 0.49405 0.06198 0.0
C12 C 0.17733 0.52296 0.10905 0.0
C13 C 0.15192 0.5291 0.10497 0.0
C14 C 0.15543 0.55769 0.14287 0.0
C15 C 0.18448 0.58065 0.18554 0.0
C16 C 0.20966 0.57395 0.19144 0.0
C17 C 0.20613 0.54536 0.15338 0.0
C18 C 0.27563 0.50407 0.99839 0.0
C19 C 0.23405 0.45034 0.23128 0.0
O20 O 0.28601 0.42994 0.95172 0.0
O21 O 0.25555 0.39056 0.05014 0.0
O22 O 0.19699 0.38611 0.08854 0.0
O23 O 0.19221 0.41691 0.99114 0.0
O24 O 0.23957 0.43843 0.85623 0.0
O25 O 0.19889 0.44989 0.86992 0.0
O26 O 0.17493 0.47276 0.11949 0.0
O27 O 0.19079 0.49888 0.98187 0.0
O28 O 0.25519 0.5116 0.96532 0.0
O29 O 0.26204 0.48035 0.05558 0.0
O30 O 0.21218 0.45524 0.18987 0.0
O31 O 0.25405 0.44568 0.17751 0.0
H32 H 0.34019 0.41935 0.93487 0.0
H33 H 0.35907 0.38377 0.87675 0.0
H34 H 0.26215 0.30412 0.88323 0.0
H35 H 0.24355 0.33983 0.94381 0.0
H36 H 0.12952 0.51203 0.07089 0.0
H37 H 0.13547 0.56193 0.13811 0.0
H38 H 0.23249 0.59126 0.22252 0.0
H39 H 0.22608 0.54105 0.15651 0.0
Nd40 Nd 0.84101 0.23202 0.39782 0.0
Nd41 Nd 0.7656 0.20433 0.37606 0.0
C42 C 0.90436 0.26072 0.39077 0.0
C43 C 0.9343 0.27507 0.33138 0.0
C44 C 0.95487 0.30851 0.32848 0.0
C45 C 0.98565 0.32174 0.28767 0.0
C46 C 0.99671 0.30179 0.25017 0.0
C47 C 0.97562 0.26848 0.24931 0.0
C48 C 0.94489 0.25532 0.28922 0.0
C49 C 0.80191 0.16811 0.44132 0.0
C50 C 0.80803 0.21658 0.1779 0.0
C51 C 0.70243 0.1698 0.38112 0.0
C52 C 0.67749 0.17702 0.41468 0.0
C53 C 0.64946 0.15341 0.46057 0.0
C54 C 0.62707 0.16109 0.499 0.0
C55 C 0.63256 0.19262 0.49297 0.0
C56 C 0.66021 0.21586 0.44428 0.0
C57 C 0.68238 0.20819 0.40588 0.0
C58 C 0.79754 0.27077 0.37249 0.0
C59 C 0.80026 0.22435 0.59353 0.0
O60 O 0.88904 0.27653 0.40412 0.0
O61 O 0.88527 0.22966 0.38547 0.0
O62 O 0.82812 0.18715 0.48752 0.0
O63 O 0.79747 0.18249 0.37069 0.0
O64 O 0.83425 0.23165 0.23149 0.0
O65 O 0.77904 0.20076 0.2169 0.0
O66 O 0.72067 0.16848 0.44978 0.0
O67 O 0.71862 0.18514 0.30278 0.0
O68 O 0.7668 0.25292 0.36759 0.0
O69 O 0.8095 0.25303 0.38211 0.0
O70 O 0.77421 0.20598 0.54195 0.0
O71 O 0.82885 0.24127 0.55257 0.0
H72 H 0.9477 0.32441 0.36148 0.0
H73 H 1.00134 0.34748 0.28999 0.0
H74 H 0.98321 0.25245 0.21986 0.0
H75 H 0.92994 0.22947 0.29057 0.0
H76 H 0.64521 0.12921 0.4685 0.0
H77 H 0.60608 0.14269 0.53635 0.0
H78 H 0.66496 0.24024 0.43684 0.0
H79 H 0.70364 0.22689 0.3707 0.0
Nd80 Nd 0.61046 0.82511 0.69275 0.0
Nd81 Nd 0.57511 0.75214 0.70507 0.0
C82 C 0.62958 0.8866 0.66133 0.0
C83 C 0.64919 0.91674 0.6057 0.0
C84 C 0.63392 0.93101 0.55658 0.0
C85 C 0.65164 0.96187 0.51683 0.0
C86 C 0.68513 0.97935 0.52581 0.0
C87 C 0.70048 0.96445 0.57133 0.0
C88 C 0.68274 0.93356 0.611 0.0
C89 C 0.64952 0.79942 0.72411 0.0
C90 C 0.59691 0.78305 0.49086 0.0
C91 C 0.55015 0.69034 0.74674 0.0
C92 C 0.51903 0.66538 0.78565 0.0
C93 C 0.51534 0.63648 0.8217 0.0
C94 C 0.48557 0.61246 0.85655 0.0
C95 C 0.45885 0.61689 0.85582 0.0
C96 C 0.4629 0.64615 0.82022 0.0
C97 C 0.49266 0.67015 0.78598 0.0
C98 C 0.53573 0.77734 0.67671 0.0
C99 C 0.59265 0.79443 0.90613 0.0
O100 O 0.60455 0.86309 0.61909 0.0
O101 O 0.6438 0.87669 0.72176 0.0
O102 O 0.65503 0.82675 0.75909 0.0
O103 O 0.62582 0.78796 0.66736 0.0
O104 O 0.6007 0.80974 0.53075 0.0
O105 O 0.59278 0.75867 0.54588 0.0
O106 O 0.56839 0.71326 0.80734 0.0
O107 O 0.5496 0.70114 0.65943 0.0
O108 O 0.52994 0.74986 0.64354 0.0
O109 O 0.55963 0.78907 0.73256 0.0
O110 O 0.5907 0.7688 0.86423 0.0
O111 O 0.59383 0.81778 0.85248 0.0
H112 H 0.60807 0.91878 0.55245 0.0
H113 H 0.63895 0.9726 0.48316 0.0
H114 H 0.72626 0.97694 0.57811 0.0
H115 H 0.69529 0.92333 0.6485 0.0
H116 H 0.53547 0.63242 0.82251 0.0
H117 H 0.48355 0.59049 0.88448 0.0
H118 H 0.44291 0.65036 0.81671 0.0
H119 H 0.49499 0.69233 0.75862 0.0
Nd120 Nd 0.80387 0.61431 1.02657 0.0
Nd121 Nd 0.82914 0.564 0.04269 0.0
C122 C 0.77676 0.64964 1.00093 0.0
C123 C 0.75655 0.6606 0.95338 0.0
C124 C 0.75104 0.65827 0.85183 0.0
C125 C 0.7342 0.67201 0.80937 0.0
C126 C 0.72312 0.68861 0.86782 0.0
C127 C 0.72803 0.68997 0.96963 0.0
C128 C 0.74448 0.67607 1.01179 0.0
C129 C 0.86757 0.63894 0.07212 0.0
C130 C 0.81932 0.58656 0.8268 0.0
C131 C 0.86282 0.53509 0.06909 0.0
C132 C 0.85554 0.50407 0.11248 0.0
C133 C 0.87937 0.50068 0.16043 0.0
C134 C 0.87194 0.47156 0.2056 0.0
C135 C 0.84045 0.44546 0.204 0.0
C136 C 0.81689 0.44892 0.15401 0.0
C137 C 0.8243 0.47787 0.10926 0.0
C138 C 0.76301 0.53164 1.03022 0.0
C139 C 0.80852 0.58833 0.24121 0.0
O140 O 0.76348 0.62322 0.05302 0.0
O141 O 0.80389 0.65615 0.95968 0.0
O142 O 0.85033 0.65052 0.10599 0.0
O143 O 0.85173 0.6167 1.01216 0.0
O144 O 0.80165 0.59746 0.86739 0.0
O145 O 0.83622 0.57724 0.87958 0.0
O146 O 0.86354 0.55643 0.13036 0.0
O147 O 0.84806 0.53358 0.98696 0.0
O148 O 0.77961 0.51744 0.03988 0.0
O149 O 0.7817 0.56136 1.03121 0.0
O150 O 0.82713 0.57833 0.20234 0.0
O151 O 0.79285 0.59869 0.18703 0.0
H152 H 0.76027 0.64647 0.80542 0.0
H153 H 0.7308 0.67061 0.73069 0.0
H154 H 0.71938 0.70211 1.01684 0.0
H155 H 0.74853 0.67817 0.09026 0.0
H156 H 0.90362 0.52066 0.16406 0.0
H157 H 0.89059 0.46974 0.24381 0.0
H158 H 0.79254 0.42918 0.14949 0.0
H159 H 0.80546 0.47979 0.07271 0.0
Nd160 Nd 0.20728 0.79376 0.35474 0.0
Nd161 Nd 0.28382 0.82229 0.37475 0.0
C162 C 0.14493 0.75326 0.34454 0.0
C163 C 0.11324 0.74714 0.31019 0.0
C164 C 0.10337 0.73821 0.2126 0.0
C165 C 0.07191 0.72838 0.18445 0.0
C166 C 0.04957 0.72716 0.25322 0.0
C167 C 0.05972 0.73677 0.35022 0.0
C168 C 0.0911 0.74652 0.37835 0.0
C169 C 0.24113 0.86035 0.36982 0.0
C170 C 0.25044 0.81752 0.15657 0.0
C171 C 0.34689 0.85286 0.37368 0.0
C172 C 0.37197 0.84852 0.41985 0.0
C173 C 0.39984 0.87521 0.45499 0.0
C174 C 0.42398 0.87138 0.49812 0.0
C175 C 0.4207 0.84074 0.50641 0.0
C176 C 0.3925 0.81405 0.47171 0.0
C177 C 0.36832 0.81786 0.42957 0.0
C178 C 0.246 0.75664 0.39051 0.0
C179 C 0.24163 0.80658 0.5706 0.0
O180 O 0.16546 0.75433 0.27955 0.0
O181 O 0.15851 0.77324 0.41762 0.0
O182 O 0.21024 0.84438 0.35757 0.0
O183 O 0.25068 0.84065 0.36943 0.0
O184 O 0.22127 0.80077 0.1934 0.0
O185 O 0.27663 0.83051 0.21162 0.0
O186 O 0.33035 0.86062 0.43243 0.0
O187 O 0.32927 0.83161 0.30739 0.0
O188 O 0.27278 0.77343 0.43703 0.0
O189 O 0.24135 0.77456 0.33384 0.0
O190 O 0.2696 0.82685 0.53109 0.0
O191 O 0.2166 0.78693 0.5165 0.0
H192 H 0.11968 0.73806 0.15832 0.0
H193 H 0.06502 0.72151 0.10889 0.0
H194 H 0.04309 0.73571 0.4055 0.0
H195 H 0.09774 0.75263 0.45447 0.0
H196 H 0.40296 0.89903 0.44886 0.0
H197 H 0.44516 0.89241 0.52512 0.0
H198 H 0.38929 0.79016 0.47502 0.0
H199 H 0.3469 0.79683 0.40365 0.0
Nd200 Nd 0.41982 0.20138 0.65791 0.0
Nd201 Nd 0.47207 0.27499 0.67159 0.0
C202 C 0.37929 0.13965 0.62911 0.0
C203 C 0.36296 0.11009 0.56938 0.0
C204 C 0.37924 0.09561 0.5278 0.0
C205 C 0.36211 0.06533 0.48331 0.0
C206 C 0.32839 0.04885 0.48035 0.0
C207 C 0.31243 0.06405 0.51953 0.0
C208 C 0.3295 0.09422 0.56327 0.0
C209 C 0.39866 0.24333 0.70623 0.0
C210 C 0.44768 0.24349 0.45589 0.0
C211 C 0.50217 0.33761 0.70163 0.0
C212 C 0.53222 0.36034 0.75107 0.0
C213 C 0.53696 0.38978 0.7865 0.0
C214 C 0.56524 0.41088 0.83613 0.0
C215 C 0.58913 0.40274 0.85139 0.0
C216 C 0.58425 0.37332 0.81444 0.0
C217 C 0.5561 0.35234 0.7654 0.0
C218 C 0.50306 0.23989 0.65732 0.0
C219 C 0.44793 0.23019 0.87092 0.0
O220 O 0.40883 0.15064 0.65844 0.0
O221 O 0.37202 0.16207 0.61431 0.0
O222 O 0.38776 0.21536 0.74613 0.0
O223 O 0.41942 0.24803 0.64234 0.0
O224 O 0.43452 0.21473 0.4967 0.0
O225 O 0.45943 0.27009 0.50851 0.0
O226 O 0.47926 0.31702 0.75885 0.0
O227 O 0.50516 0.32445 0.62105 0.0
O228 O 0.51748 0.27074 0.66661 0.0
O229 O 0.47326 0.2288 0.65905 0.0
O230 O 0.45896 0.259 0.83211 0.0
O231 O 0.43602 0.204 0.81654 0.0
H232 H 0.40505 0.10724 0.53172 0.0
H233 H 0.37529 0.05463 0.45268 0.0
H234 H 0.28658 0.05207 0.52051 0.0
H235 H 0.31633 0.10465 0.59601 0.0
H236 H 0.5187 0.3963 0.77654 0.0
H237 H 0.56812 0.43322 0.8641 0.0
H238 H 0.60233 0.36649 0.82289 0.0
H239 H 0.55298 0.32977 0.73886 0.0
H240 H 0.35039 0.23328 0.82953 0.0
H241 H 0.41956 0.30306 0.63045 0.0
H242 H 0.39864 0.33916 0.66332 0.0
H243 H 0.3603 0.35067 0.74795 0.0
H244 H 0.29177 0.28083 0.94903 0.0
H245 H 0.31234 0.24484 0.91438 0.0
C246 C 0.36091 0.25642 0.79344 0.0
C247 C 0.38648 0.26549 0.72765 0.0
C248 C 0.34863 0.27694 0.81229 0.0
C249 C 0.39984 0.29552 0.68137 0.0
C250 C 0.38785 0.31614 0.70007 0.0
C251 C 0.34994 0.32766 0.78466 0.0
C252 C 0.3243 0.31857 0.85074 0.0
C253 C 0.36219 0.30709 0.76532 0.0
C254 C 0.31103 0.28838 0.89643 0.0
C255 C 0.32301 0.26782 0.87738 0.0
H256 H 0.14101 0.34161 0.16344 0.0
H257 H 0.13683 0.41489 0.9939 0.0
H258 H 0.08097 0.39353 0.04158 0.0
H259 H 0.03298 0.35393 0.13269 0.0
H260 H 0.03708 0.27985 0.29824 0.0
H261 H 0.09283 0.30133 0.25061 0.0
C262 C 0.12781 0.35281 0.13671 0.0
C263 C 0.14311 0.37983 0.07535 0.0
C264 C 0.09551 0.34017 0.16367 0.0
C265 C 0.12564 0.39403 0.04112 0.0
C266 C 0.09366 0.38185 0.06851 0.0
C267 C 0.04613 0.34256 0.15843 0.0
C268 C 0.03071 0.3152 0.21874 0.0
C269 C 0.07831 0.35495 0.13003 0.0
C270 C 0.04812 0.30065 0.25075 0.0
C271 C 0.08012 0.31302 0.22394 0.0
H272 H 0.75075 0.11971 0.3416 0.0
H273 H 0.80713 0.13981 0.60471 0.0
H274 H 0.77646 0.08384 0.65304 0.0
H275 H 0.73418 0.02901 0.6216 0.0
H276 H 0.6775 1.00706 0.35888 0.0
H277 H 0.70738 0.06357 0.31016 0.0
C278 C 0.75615 0.11175 0.40953 0.0
C279 C 0.78134 0.13396 0.46911 0.0
C280 C 0.73841 0.07909 0.43709 0.0
C281 C 0.78804 0.12328 0.55705 0.0
C282 C 0.7705 0.09119 0.58495 0.0
C283 C 0.72857 0.0364 0.55291 0.0
C284 C 0.70376 1.01361 0.49377 0.0
C285 C 0.74584 0.06884 0.52533 0.0
C286 C 0.69638 0.02402 0.40626 0.0
C287 C 0.71354 0.05637 0.37815 0.0
H288 H 0.63905 0.74029 0.66803 0.0
H289 H 0.70045 0.82256 0.84571 0.0
H290 H 0.72917 0.79602 0.90252 0.0
H291 H 0.73594 0.74903 0.90649 0.0
H292 H 0.6752 0.66626 0.73046 0.0
H293 H 0.64743 0.69344 0.66727 0.0
C294 C 0.65888 0.75242 0.71859 0.0
C295 C 0.66758 0.78335 0.75275 0.0
C296 C 0.67537 0.73692 0.75136 0.0
C297 C 0.69325 0.79877 0.8184 0.0
C298 C 0.70969 0.7836 0.85105 0.0
C299 C 0.71657 0.73689 0.85442 0.0
C300 C 0.70744 0.70555 0.82397 0.0
C301 C 0.70077 0.7526 0.81887 0.0
C302 C 0.68274 0.69042 0.75486 0.0
C303 C 0.66677 0.7059 0.71913 0.0
H304 H 1.01157 0.67596 0.13623 0.0
H305 H 1.01095 0.75096 0.30797 0.0
H306 H 0.95466 0.72992 0.26879 0.0
H307 H 0.90542 0.69014 0.18633 0.0
H308 H 0.90604 0.61576 1.01173 0.0
H309 H 0.96249 0.63672 0.05085 0.0
C310 C 0.99925 0.68796 0.16409 0.0
C311 C 1.01558 0.71503 0.22518 0.0
C312 C 0.96681 0.67577 0.14099 0.0
C313 C 0.99897 0.72989 0.26186 0.0
C314 C 0.96677 0.71795 0.23917 0.0
C315 C 0.91794 0.67853 0.15689 0.0
C316 C 0.90161 0.65144 0.09634 0.0
C317 C 0.95041 0.69083 0.1792 0.0
C318 C 0.91811 0.63666 0.05855 0.0
C319 C 0.95039 0.64865 0.08083 0.0
H320 H 0.34195 1.00058 0.50174 0.0
H321 H 0.27214 0.02095 0.37585 0.0
H322 H 0.23872 0.96462 0.33092 0.0
H323 H 0.22831 0.90867 0.33246 0.0
H324 H 0.29946 0.88972 0.45337 0.0
H325 H 0.33348 0.94619 0.49326 0.0
C326 C 0.31979 0.99298 0.46261 0.0
C327 C 0.30965 0.01519 0.44309 0.0
C328 C 0.30076 0.96057 0.4361 0.0
C329 C 0.28043 1.00443 0.39368 0.0
C330 C 0.26128 0.97217 0.36749 0.0
C331 C 0.25134 0.91706 0.36702 0.0
C332 C 0.26149 0.89506 0.38943 0.0
C333 C 0.27097 0.94987 0.38951 0.0
C334 C 0.29137 0.90621 0.43404 0.0
C335 C 0.31077 0.93853 0.45745 0.0
H336 H 0.25765 0.43994 0.68147 0.0
H337 H 0.174 0.45006 0.70596 0.0
H338 H 0.17187 0.45339 0.52785 0.0
H339 H 0.19395 0.45387 0.36511 0.0
H340 H 0.27775 0.44395 0.34119 0.0
H341 H 0.27962 0.44029 0.51907 0.0
C342 C 0.23881 0.44269 0.648 0.0
C343 C 0.21598 0.44466 0.70726 0.0
C344 C 0.23784 0.44484 0.54551 0.0
C345 C 0.19189 0.44843 0.66233 0.0
C346 C 0.19067 0.45041 0.56036 0.0
C347 C 0.21272 0.45103 0.3987 0.0
C348 C 0.23571 0.44927 0.33959 0.0
C349 C 0.21361 0.44879 0.50124 0.0
C350 C 0.25974 0.44543 0.38464 0.0
C351 C 0.26082 0.44327 0.48651 0.0
H352 H 0.7615 0.20096 0.04072 0.0
H353 H 0.86307 0.23866 0.07152 0.0
H354 H 0.86998 0.2461 0.89467 0.0
H355 H 0.84726 0.24168 0.73034 0.0
H356 H 0.74568 0.20376 0.69993 0.0
H357 H 0.7389 0.19702 0.87697 0.0
C358 C 0.78512 0.21056 1.0088 0.0
C359 C 0.81164 0.21907 0.06969 0.0
C360 C 0.78905 0.21508 0.90682 0.0
C361 C 0.84214 0.23183 1.02674 0.0
C362 C 0.84618 0.23621 0.9254 0.0
C363 C 0.82371 0.2323 0.76252 0.0
C364 C 0.79708 0.22332 0.70173 0.0
C365 C 0.81984 0.22805 0.86467 0.0
C366 C 0.76665 0.21084 0.74479 0.0
C367 C 0.76268 0.20687 0.84618 0.0
H368 H 0.59996 0.82645 0.35767 0.0
H369 H 0.59348 0.73395 0.37964 0.0
H370 H 0.59157 0.72936 0.20099 0.0
H371 H 0.59111 0.75132 0.03867 0.0
H372 H 0.59711 0.84364 1.01795 0.0
H373 H 0.59974 0.84844 0.19617 0.0
C374 C 0.59828 0.8053 0.32366 0.0
C375 C 0.59694 0.78061 0.38237 0.0
C376 C 0.59696 0.8027 0.221 0.0
C377 C 0.5946 0.75336 0.33653 0.0
C378 C 0.59345 0.75068 0.23426 0.0
C379 C 0.59296 0.7725 0.07299 0.0
C380 C 0.59384 0.79705 1.01462 0.0
C381 C 0.59448 0.77514 0.17578 0.0
C382 C 0.59631 0.82432 0.06072 0.0
C383 C 0.59786 0.82713 0.1628 0.0
H384 H 0.78734 0.60207 0.69255 0.0
H385 H 0.85365 0.56692 0.71627 0.0
H386 H 0.85558 0.56388 0.53832 0.0
H387 H 0.83901 0.57153 0.376 0.0
H388 H 0.77288 0.60682 0.351 0.0
H389 H 0.77034 0.60932 0.52937 0.0
C390 C 0.80224 0.59374 0.65899 0.0
C391 C 0.82036 0.58481 0.71825 0.0
C392 C 0.80328 0.59201 0.5562 0.0
C393 C 0.83945 0.57401 0.67296 0.0
C394 C 0.84059 0.57223 0.57096 0.0
C395 C 0.82393 0.5797 0.40925 0.0
C396 C 0.80618 0.58897 0.34968 0.0
C397 C 0.82265 0.5812 0.51188 0.0
C398 C 0.78683 0.59951 0.39467 0.0
C399 C 0.78537 0.60099 0.49685 0.0
H400 H 0.2877 0.84064 0.70712 0.0
H401 H 0.18754 0.7702 0.67832 0.0
H402 H 0.18137 0.76844 0.8559 0.0
H403 H 0.20428 0.78609 1.01931 0.0
H404 H 0.30459 0.8557 0.04975 0.0
H405 H 0.31065 0.85863 0.87156 0.0
C406 C 0.2645 0.82489 0.73951 0.0
C407 C 0.23816 0.80554 0.67894 0.0
C408 C 0.26106 0.82388 0.84211 0.0
C409 C 0.2083 0.78531 0.72269 0.0
C410 C 0.20469 0.78431 0.82446 0.0
C411 C 0.22748 0.80213 0.98729 0.0
C412 C 0.25392 0.82071 0.04831 0.0
C413 C 0.2309 0.80343 0.88485 0.0
C414 C 0.28379 0.8411 1.0049 0.0
C415 C 0.2873 0.84277 0.90286 0.0
H416 H 0.43104 0.19541 0.32225 0.0
H417 H 0.46921 0.29766 0.34501 0.0
H418 H 0.47347 0.30248 0.16716 0.0
H419 H 0.46603 0.27793 1.00531 0.0
H420 H 0.42771 0.17573 0.98093 0.0
H421 H 0.42409 0.17081 0.15934 0.0
C422 C 0.44022 0.21876 0.28846 0.0
C423 C 0.44968 0.2461 0.3474 0.0
C424 C 0.44273 0.22145 0.18576 0.0
C425 C 0.46169 0.27616 0.30191 0.0
C426 C 0.46418 0.27899 0.19999 0.0
C427 C 0.457 0.25453 0.0387 0.0
C428 C 0.44716 0.22725 0.97934 0.0
C429 C 0.45477 0.25182 0.14124 0.0
C430 C 0.43548 0.19718 1.02449 0.0
C431 C 0.43333 0.19431 0.12666 0.0
H432 H 0.21444 0.61368 0.35133 0.0
H433 H 0.16512 0.61858 0.09437 0.0
H434 H 0.17646 0.67216 0.14143 0.0
H435 H 0.20462 0.71964 0.24757 0.0
H436 H 0.25589 0.7155 0.50045 0.0
H437 H 0.23945 0.65972 0.4634 0.0
C438 C 0.20615 0.62646 0.30568 0.0
C439 C 0.18915 0.61215 0.21909 0.0
C440 C 0.21317 0.65751 0.33236 0.0
C441 C 0.17804 0.62885 0.16182 0.0
C442 C 0.18468 0.65962 0.18833 0.0
C443 C 0.21173 0.70633 0.29539 0.0
C444 C 0.23164 0.7217 0.37618 0.0
C445 C 0.20276 0.67444 0.27244 0.0
C446 C 0.2407 0.70421 0.43751 0.0
C447 C 0.23142 0.67236 0.41615 0.0
H448 H 0.56657 0.16207 0.49004 0.0
H449 H 0.65008 0.24497 0.60652 0.0
H450 H 0.61678 0.26494 0.67446 0.0
H451 H 0.56502 0.26145 0.69037 0.0
H452 H 0.48045 0.17981 0.5754 0.0
H453 H 0.51282 0.15639 0.51913 0.0
C454 C 0.57734 0.18427 0.53138 0.0
C455 C 0.61093 0.20231 0.54138 0.0
C456 C 0.55787 0.19585 0.57045 0.0
C457 C 0.62447 0.23099 0.59551 0.0
C458 C 0.60542 0.24238 0.63494 0.0
C459 C 0.55353 0.23829 0.65407 0.0
C460 C 0.52046 0.22245 0.63654 0.0
C461 C 0.57227 0.22542 0.62108 0.0
C462 C 0.50589 0.1924 0.59007 0.0
C463 C 0.52446 0.17917 0.55732 0.0
H464 H 0.32336 0.49389 0.93586 0.0
H465 H 0.30481 0.56631 0.05096 0.0
H466 H 0.36066 0.60735 1.02471 0.0
H467 H 0.41359 0.62329 0.95776 0.0
H468 H 0.43139 0.55179 0.82895 0.0
H469 H 0.37752 0.50983 0.87345 0.0
C470 C 0.33186 0.51853 0.95714 0.0
C471 C 0.31026 0.52712 0.99632 0.0
C472 C 0.36384 0.54224 0.9385 0.0
C473 C 0.32119 0.55923 1.02134 0.0
C474 C 0.35305 0.58269 1.00589 0.0
C475 C 0.40574 0.59857 0.93887 0.0
C476 C 0.42668 0.59095 0.88925 0.0
C477 C 0.3744 0.57461 0.96233 0.0
C478 C 0.41609 0.55854 0.86786 0.0
C479 C 0.38511 0.53445 0.8927 0.0
H480 H 0.77364 0.30943 0.40301 0.0
H481 H 0.85844 0.31002 0.30183 0.0
H482 H 0.88081 0.36577 0.24612 0.0
H483 H 0.87307 0.41217 0.2106 0.0
H484 H 0.78761 0.40999 0.31558 0.0
H485 H 0.76865 0.35702 0.38504 0.0
C486 C 0.79729 0.32196 0.37026 0.0
C487 C 0.81434 0.30574 0.35594 0.0
C488 C 0.80962 0.35357 0.33773 0.0
C489 C 0.84499 0.32218 0.31406 0.0
C490 C 0.8576 0.35392 0.28149 0.0
C491 C 0.85058 0.40031 0.2501 0.0
C492 C 0.83146 0.41482 0.2557 0.0
C493 C 0.83971 0.36958 0.29055 0.0
C494 C 0.8024 0.39908 0.30754 0.0
C495 C 0.79158 0.36883 0.34794 0.0
H496 H 0.41516 0.79221 0.62262 0.0
H497 H 0.48538 0.87972 0.48196 0.0
H498 H 0.52794 0.87001 0.53547 0.0
H499 H 0.54448 0.83348 0.60575 0.0
H500 H 0.47373 0.74361 0.73063 0.0
H501 H 0.43195 0.75707 0.69888 0.0
C502 C 0.43974 0.80915 0.6033 0.0
C503 C 0.44689 0.83649 0.54739 0.0
C504 C 0.46399 0.80286 0.6312 0.0
C505 C 0.47906 0.8586 0.52554 0.0
C506 C 0.50346 0.85294 0.55542 0.0
C507 C 0.5201 0.81739 0.62834 0.0
C508 C 0.51209 0.78793 0.67165 0.0
C509 C 0.49613 0.82479 0.60632 0.0
C510 C 0.48027 0.76657 0.69786 0.0
C511 C 0.45645 0.7742 0.67933 0.0
H512 H 0.72096 0.4705 0.0729 0.0
H513 H 0.72834 0.55425 0.9342 0.0
H514 H 0.67359 0.52199 0.87121 0.0
H515 H 0.62597 0.46845 0.84148 0.0
H516 H 0.61948 0.38562 0.98574 0.0
H517 H 0.67156 0.41903 0.06037 0.0
C518 C 0.71035 0.4818 1.03024 0.0
C519 C 0.72855 0.51453 1.00746 0.0
C520 C 0.67921 0.46314 0.99409 0.0
C521 C 0.71461 0.52903 0.95284 0.0
C522 C 0.68345 0.51053 0.91627 0.0
C523 C 0.63569 0.45782 0.89065 0.0
C524 C 0.61906 0.42435 0.90587 0.0
C525 C 0.66582 0.47733 0.93427 0.0
C526 C 0.63209 0.41108 0.97014 0.0
C527 C 0.66182 0.4302 1.01352 0.0
loop_
_geom_bond_atom_site_label_1
_geom_bond_atom_site_label_2
_geom_bond_distance
_geom_bond_site_symmetry_2
_ccdc_geom_bond_type
Nd0 C2 2.836 1_554 S
Nd0 O20 2.500 1_554 S
Nd0 O21 2.492 1_554 S
Nd0 O22 2.487 . S
Nd0 O23 2.682 . S
Nd0 O24 2.410 1_554 S
Nd0 O29 2.414 1_554 S
Nd0 O31 2.424 . S
Nd1 C11 2.836 1_556 S
Nd1 O23 2.414 1_556 S
Nd1 O25 2.424 . S
Nd1 O26 2.500 1_556 S
Nd1 O27 2.492 1_556 S
Nd1 O28 2.487 . S
Nd1 O29 2.682 . S
Nd1 O30 2.410 1_556 S
C2 Nd0 2.836 1_556 S
C2 C3 1.498 . S
C2 O20 1.258 . S
C2 O21 1.239 . S
C3 C2 1.498 . S
C3 C4 1.366 . S
C3 C8 1.407 . S
C4 C3 1.366 . S
C4 C5 1.392 . S
C4 H32 0.930 . S
C5 C4 1.392 . S
C5 C6 1.398 . S
C5 H33 0.929 . S
C6 C5 1.398 . S
C6 C7 1.352 . S
C7 C6 1.352 . S
C7 C8 1.384 . S
C7 H34 0.930 . S
C8 C3 1.407 . S
C8 C7 1.384 . S
C8 H35 0.929 . S
C9 O22 1.241 . S
C9 O23 1.273 . S
C10 O24 1.251 . S
C10 O25 1.268 . S
C11 Nd1 2.836 1_554 S
C11 C12 1.498 . S
C11 O26 1.258 . S
C11 O27 1.239 . S
C12 C11 1.498 . S
C12 C13 1.366 . S
C12 C17 1.407 . S
C13 C12 1.366 . S
C13 C14 1.392 . S
C13 H36 0.930 . S
C14 C13 1.392 . S
C14 C15 1.398 . S
C14 H37 0.929 . S
C15 C14 1.398 . S
C15 C16 1.352 . S
C16 C15 1.352 . S
C16 C17 1.384 . S
C16 H38 0.930 . S
C17 C12 1.407 . S
C17 C16 1.384 . S
C17 H39 0.929 . S
C18 O28 1.241 . S
C18 O29 1.273 . S
C19 O30 1.251 . S
C19 O31 1.268 . S
O20 Nd0 2.500 1_556 S
O20 C2 1.258 . S
O21 Nd0 2.492 1_556 S
O21 C2 1.239 . S
O22 Nd0 2.487 . S
O22 C9 1.241 . S
O23 Nd0 2.682 . S
O23 Nd1 2.414 1_554 S
O23 C9 1.273 . S
O24 Nd0 2.410 1_556 S
O24 C10 1.251 . S
O25 Nd1 2.424 . S
O25 C10 1.268 . S
O26 Nd1 2.500 1_554 S
O26 C11 1.258 . S
O27 Nd1 2.492 1_554 S
O27 C11 1.239 . S
O28 Nd1 2.487 . S
O28 C18 1.241 . S
O29 Nd0 2.414 1_556 S
O29 Nd1 2.682 . S
O29 C18 1.273 . S
O30 Nd1 2.410 1_554 S
O30 C19 1.251 . S
O31 Nd0 2.424 . S
O31 C19 1.268 . S
H32 C4 0.930 . S
H33 C5 0.929 . S
H34 C7 0.930 . S
H35 C8 0.929 . S
H36 C13 0.930 . S
H37 C14 0.929 . S
H38 C16 0.930 . S
H39 C17 0.929 . S
Nd40 C42 2.836 . S
Nd40 O60 2.500 . S
Nd40 O61 2.492 . S
Nd40 O62 2.487 . S
Nd40 O63 2.682 . S
Nd40 O64 2.410 . S
Nd40 O69 2.414 . S
Nd40 O71 2.424 . S
Nd41 C51 2.836 . S
Nd41 O63 2.414 . S
Nd41 O65 2.424 . S
Nd41 O66 2.500 . S
Nd41 O67 2.492 . S
Nd41 O68 2.487 . S
Nd41 O69 2.682 . S
Nd41 O70 2.410 . S
C42 Nd40 2.836 . S
C42 C43 1.498 . S
C42 O60 1.258 . S
C42 O61 1.239 . S
C43 C42 1.498 . S
C43 C44 1.366 . S
C43 C48 1.407 . S
C44 C43 1.366 . S
C44 C45 1.392 . S
C44 H72 0.930 . S
C45 C44 1.392 . S
C45 C46 1.398 . S
C45 H73 0.929 . S
C46 C45 1.398 . S
C46 C47 1.352 . S
C47 C46 1.352 . S
C47 C48 1.384 . S
C47 H74 0.930 . S
C48 C43 1.407 . S
C48 C47 1.384 . S
C48 H75 0.929 . S
C49 O62 1.241 . S
C49 O63 1.273 . S
C50 O64 1.251 . S
C50 O65 1.268 . S
C51 Nd41 2.836 . S
C51 C52 1.498 . S
C51 O66 1.258 . S
C51 O67 1.239 . S
C52 C51 1.498 . S
C52 C53 1.366 . S
C52 C57 1.407 . S
C53 C52 1.366 . S
C53 C54 1.392 . S
C53 H76 0.930 . S
C54 C53 1.392 . S
C54 C55 1.398 . S
C54 H77 0.929 . S
C55 C54 1.398 . S
C55 C56 1.352 . S
C56 C55 1.352 . S
C56 C57 1.384 . S
C56 H78 0.930 . S
C57 C52 1.407 . S
C57 C56 1.384 . S
C57 H79 0.929 . S
C58 O68 1.241 . S
C58 O69 1.273 . S
C59 O70 1.251 . S
C59 O71 1.268 . S
O60 Nd40 2.500 . S
O60 C42 1.258 . S
O61 Nd40 2.492 . S
O61 C42 1.239 . S
O62 Nd40 2.487 . S
O62 C49 1.241 . S
O63 Nd40 2.682 . S
O63 Nd41 2.414 . S
O63 C49 1.273 . S
O64 Nd40 2.410 . S
O64 C50 1.251 . S
O65 Nd41 2.424 . S
O65 C50 1.268 . S
O66 Nd41 2.500 . S
O66 C51 1.258 . S
O67 Nd41 2.492 . S
O67 C51 1.239 . S
O68 Nd41 2.487 . S
O68 C58 1.241 . S
O69 Nd40 2.414 . S
O69 Nd41 2.682 . S
O69 C58 1.273 . S
O70 Nd41 2.410 . S
O70 C59 1.251 . S
O71 Nd40 2.424 . S
O71 C59 1.268 . S
H72 C44 0.930 . S
H73 C45 0.929 . S
H74 C47 0.930 . S
H75 C48 0.929 . S
H76 C53 0.930 . S
H77 C54 0.929 . S
H78 C56 0.930 . S
H79 C57 0.929 . S
Nd80 C82 2.836 . S
Nd80 O100 2.500 . S
Nd80 O101 2.492 . S
Nd80 O102 2.487 . S
Nd80 O103 2.682 . S
Nd80 O104 2.410 . S
Nd80 O109 2.414 . S
Nd80 O111 2.424 . S
Nd81 C91 2.836 . S
Nd81 O103 2.414 . S
Nd81 O105 2.424 . S
Nd81 O106 2.500 . S
Nd81 O107 2.492 . S
Nd81 O108 2.487 . S
Nd81 O109 2.682 . S
Nd81 O110 2.410 . S
C82 Nd80 2.836 . S
C82 C83 1.498 . S
C82 O100 1.258 . S
C82 O101 1.239 . S
C83 C82 1.498 . S
C83 C84 1.366 . S
C83 C88 1.407 . S
C84 C83 1.366 . S
C84 C85 1.392 . S
C84 H112 0.930 . S
C85 C84 1.392 . S
C85 C86 1.398 . S
C85 H113 0.929 . S
C86 C85 1.398 . S
C86 C87 1.352 . S
C87 C86 1.352 . S
C87 C88 1.384 . S
C87 H114 0.930 . S
C88 C83 1.407 . S
C88 C87 1.384 . S
C88 H115 0.929 . S
C89 O102 1.241 . S
C89 O103 1.273 . S
C90 O104 1.251 . S
C90 O105 1.268 . S
C91 Nd81 2.836 . S
C91 C92 1.498 . S
C91 O106 1.258 . S
C91 O107 1.239 . S
C92 C91 1.498 . S
C92 C93 1.366 . S
C92 C97 1.407 . S
C93 C92 1.366 . S
C93 C94 1.392 . S
C93 H116 0.930 . S
C94 C93 1.392 . S
C94 C95 1.398 . S
C94 H117 0.929 . S
C95 C94 1.398 . S
C95 C96 1.352 . S
C96 C95 1.352 . S
C96 C97 1.384 . S
C96 H118 0.930 . S
C97 C92 1.407 . S
C97 C96 1.384 . S
C97 H119 0.929 . S
C98 O108 1.241 . S
C98 O109 1.273 . S
C99 O110 1.251 . S
C99 O111 1.268 . S
O100 Nd80 2.500 . S
O100 C82 1.258 . S
O101 Nd80 2.492 . S
O101 C82 1.239 . S
O102 Nd80 2.487 . S
O102 C89 1.241 . S
O103 Nd80 2.682 . S
O103 Nd81 2.414 . S
O103 C89 1.273 . S
O104 Nd80 2.410 . S
O104 C90 1.251 . S
O105 Nd81 2.424 . S
O105 C90 1.268 . S
O106 Nd81 2.500 . S
O106 C91 1.258 . S
O107 Nd81 2.492 . S
O107 C91 1.239 . S
O108 Nd81 2.487 . S
O108 C98 1.241 . S
O109 Nd80 2.414 . S
O109 Nd81 2.682 . S
O109 C98 1.273 . S
O110 Nd81 2.410 . S
O110 C99 1.251 . S
O111 Nd80 2.424 . S
O111 C99 1.268 . S
H112 C84 0.930 . S
H113 C85 0.929 . S
H114 C87 0.930 . S
H115 C88 0.929 . S
H116 C93 0.930 . S
H117 C94 0.929 . S
H118 C96 0.930 . S
H119 C97 0.929 . S
Nd120 C122 2.836 1_554 S
Nd120 O140 2.500 1_554 S
Nd120 O141 2.492 1_554 S
Nd120 O142 2.487 . S
Nd120 O143 2.682 . S
Nd120 O144 2.410 1_554 S
Nd120 O149 2.414 1_554 S
Nd120 O151 2.424 . S
Nd121 C131 2.836 1_556 S
Nd121 O143 2.414 1_556 S
Nd121 O145 2.424 . S
Nd121 O146 2.500 1_556 S
Nd121 O147 2.492 1_556 S
Nd121 O148 2.487 . S
Nd121 O149 2.682 . S
Nd121 O150 2.410 1_556 S
C122 Nd120 2.836 1_556 S
C122 C123 1.498 . S
C122 O140 1.258 . S
C122 O141 1.239 . S
C123 C122 1.498 . S
C123 C124 1.366 . S
C123 C128 1.407 . S
C124 C123 1.366 . S
C124 C125 1.392 . S
C124 H152 0.930 . S
C125 C124 1.392 . S
C125 C126 1.398 . S
C125 H153 0.929 . S
C126 C125 1.398 . S
C126 C127 1.352 . S
C127 C126 1.352 . S
C127 C128 1.384 . S
C127 H154 0.930 . S
C128 C123 1.407 . S
C128 C127 1.384 . S
C128 H155 0.929 . S
C129 O142 1.241 . S
C129 O143 1.273 . S
C130 O144 1.251 . S
C130 O145 1.268 . S
C131 Nd121 2.836 1_554 S
C131 C132 1.498 . S
C131 O146 1.258 . S
C131 O147 1.239 . S
C132 C131 1.498 . S
C132 C133 1.366 . S
C132 C137 1.407 . S
C133 C132 1.366 . S
C133 C134 1.392 . S
C133 H156 0.930 . S
C134 C133 1.392 . S
C134 C135 1.398 . S
C134 H157 0.929 . S
C135 C134 1.398 . S
C135 C136 1.352 . S
C136 C135 1.352 . S
C136 C137 1.384 . S
C136 H158 0.930 . S
C137 C132 1.407 . S
C137 C136 1.384 . S
C137 H159 0.929 . S
C138 O148 1.241 . S
C138 O149 1.273 . S
C139 O150 1.251 . S
C139 O151 1.268 . S
O140 Nd120 2.500 1_556 S
O140 C122 1.258 . S
O141 Nd120 2.492 1_556 S
O141 C122 1.239 . S
O142 Nd120 2.487 . S
O142 C129 1.241 . S
O143 Nd120 2.682 . S
O143 Nd121 2.414 1_554 S
O143 C129 1.273 . S
O144 Nd120 2.410 1_556 S
O144 C130 1.251 . S
O145 Nd121 2.424 . S
O145 C130 1.268 . S
O146 Nd121 2.500 1_554 S
O146 C131 1.258 . S
O147 Nd121 2.492 1_554 S
O147 C131 1.239 . S
O148 Nd121 2.487 . S
O148 C138 1.241 . S
O149 Nd120 2.414 1_556 S
O149 Nd121 2.682 . S
O149 C138 1.273 . S
O150 Nd121 2.410 1_554 S
O150 C139 1.251 . S
O151 Nd120 2.424 . S
O151 C139 1.268 . S
H152 C124 0.930 . S
H153 C125 0.929 . S
H154 C127 0.930 . S
H155 C128 0.929 . S
H156 C133 0.930 . S
H157 C134 0.929 . S
H158 C136 0.930 . S
H159 C137 0.929 . S
Nd160 C162 2.836 . S
Nd160 O180 2.500 . S
Nd160 O181 2.492 . S
Nd160 O182 2.487 . S
Nd160 O183 2.682 . S
Nd160 O184 2.410 . S
Nd160 O189 2.414 . S
Nd160 O191 2.424 . S
Nd161 C171 2.836 . S
Nd161 O183 2.414 . S
Nd161 O185 2.424 . S
Nd161 O186 2.500 . S
Nd161 O187 2.492 . S
Nd161 O188 2.487 . S
Nd161 O189 2.682 . S
Nd161 O190 2.410 . S
C162 Nd160 2.836 . S
C162 C163 1.498 . S
C162 O180 1.258 . S
C162 O181 1.239 . S
C163 C162 1.498 . S
C163 C164 1.366 . S
C163 C168 1.407 . S
C164 C163 1.366 . S
C164 C165 1.392 . S
C164 H192 0.930 . S
C165 C164 1.392 . S
C165 C166 1.398 . S
C165 H193 0.929 . S
C166 C165 1.398 . S
C166 C167 1.352 . S
C167 C166 1.352 . S
C167 C168 1.384 . S
C167 H194 0.930 . S
C168 C163 1.407 . S
C168 C167 1.384 . S
C168 H195 0.929 . S
C169 O182 1.241 . S
C169 O183 1.273 . S
C170 O184 1.251 . S
C170 O185 1.268 . S
C171 Nd161 2.836 . S
C171 C172 1.498 . S
C171 O186 1.258 . S
C171 O187 1.239 . S
C172 C171 1.498 . S
C172 C173 1.366 . S
C172 C177 1.407 . S
C173 C172 1.366 . S
C173 C174 1.392 . S
C173 H196 0.930 . S
C174 C173 1.392 . S
C174 C175 1.398 . S
C174 H197 0.929 . S
C175 C174 1.398 . S
C175 C176 1.352 . S
C176 C175 1.352 . S
C176 C177 1.384 . S
C176 H198 0.930 . S
C177 C172 1.407 . S
C177 C176 1.384 . S
C177 H199 0.929 . S
C178 O188 1.241 . S
C178 O189 1.273 . S
C179 O190 1.251 . S
C179 O191 1.268 . S
O180 Nd160 2.500 . S
O180 C162 1.258 . S
O181 Nd160 2.492 . S
O181 C162 1.239 . S
O182 Nd160 2.487 . S
O182 C169 1.241 . S
O183 Nd160 2.682 . S
O183 Nd161 2.414 . S
O183 C169 1.273 . S
O184 Nd160 2.410 . S
O184 C170 1.251 . S
O185 Nd161 2.424 . S
O185 C170 1.268 . S
O186 Nd161 2.500 . S
O186 C171 1.258 . S
O187 Nd161 2.492 . S
O187 C171 1.239 . S
O188 Nd161 2.487 . S
O188 C178 1.241 . S
O189 Nd160 2.414 . S
O189 Nd161 2.682 . S
O189 C178 1.273 . S
O190 Nd161 2.410 . S
O190 C179 1.251 . S
O191 Nd160 2.424 . S
O191 C179 1.268 . S
H192 C164 0.930 . S
H193 C165 0.929 . S
H194 C167 0.930 . S
H195 C168 0.929 . S
H196 C173 0.930 . S
H197 C174 0.929 . S
H198 C176 0.930 . S
H199 C177 0.929 . S
Nd200 C202 2.836 . S
Nd200 O220 2.500 . S
Nd200 O221 2.492 . S
Nd200 O222 2.487 . S
Nd200 O223 2.682 . S
Nd200 O224 2.410 . S
Nd200 O229 2.414 . S
Nd200 O231 2.424 . S
Nd201 C211 2.836 . S
Nd201 O223 2.414 . S
Nd201 O225 2.424 . S
Nd201 O226 2.500 . S
Nd201 O227 2.492 . S
Nd201 O228 2.487 . S
Nd201 O229 2.682 . S
Nd201 O230 2.410 . S
C202 Nd200 2.836 . S
C202 C203 1.498 . S
C202 O220 1.258 . S
C202 O221 1.239 . S
C203 C202 1.498 . S
C203 C204 1.366 . S
C203 C208 1.407 . S
C204 C203 1.366 . S
C204 C205 1.392 . S
C204 H232 0.930 . S
C205 C204 1.392 . S
C205 C206 1.398 . S
C205 H233 0.929 . S
C206 C205 1.398 . S
C206 C207 1.352 . S
C207 C206 1.352 . S
C207 C208 1.384 . S
C207 H234 0.930 . S
C208 C203 1.407 . S
C208 C207 1.384 . S
C208 H235 0.929 . S
C209 O222 1.241 . S
C209 O223 1.273 . S
C210 O224 1.251 . S
C210 O225 1.268 . S
C211 Nd201 2.836 . S
C211 C212 1.498 . S
C211 O226 1.258 . S
C211 O227 1.239 . S
C212 C211 1.498 . S
C212 C213 1.366 . S
C212 C217 1.407 . S
C213 C212 1.366 . S
C213 C214 1.392 . S
C213 H236 0.930 . S
C214 C213 1.392 . S
C214 C215 1.398 . S
C214 H237 0.929 . S
C215 C214 1.398 . S
C215 C216 1.352 . S
C216 C215 1.352 . S
C216 C217 1.384 . S
C216 H238 0.930 . S
C217 C212 1.407 . S
C217 C216 1.384 . S
C217 H239 0.929 . S
C218 O228 1.241 . S
C218 O229 1.273 . S
C219 O230 1.251 . S
C219 O231 1.268 . S
O220 Nd200 2.500 . S
O220 C202 1.258 . S
O221 Nd200 2.492 . S
O221 C202 1.239 . S
O222 Nd200 2.487 . S
O222 C209 1.241 . S
O223 Nd200 2.682 . S
O223 Nd201 2.414 . S
O223 C209 1.273 . S
O224 Nd200 2.410 . S
O224 C210 1.251 . S
O225 Nd201 2.424 . S
O225 C210 1.268 . S
O226 Nd201 2.500 . S
O226 C211 1.258 . S
O227 Nd201 2.492 . S
O227 C211 1.239 . S
O228 Nd201 2.487 . S
O228 C218 1.241 . S
O229 Nd200 2.414 . S
O229 Nd201 2.682 . S
O229 C218 1.273 . S
O230 Nd201 2.410 . S
O230 C219 1.251 . S
O231 Nd200 2.424 . S
O231 C219 1.268 . S
H232 C204 0.930 . S
H233 C205 0.929 . S
H234 C207 0.930 . S
H235 C208 0.929 . S
H236 C213 0.930 . S
H237 C214 0.929 . S
H238 C216 0.930 . S
H239 C217 0.929 . S
H240 C246 0.930 . S
H241 C249 0.930 . S
H242 C250 0.930 . S
H243 C251 0.930 . S
H244 C254 0.930 . S
H245 C255 0.930 . S
C246 H240 0.930 . S
C246 C247 1.355 . S
C246 C248 1.415 . S
C247 C246 1.355 . S
C247 C249 1.419 . S
C248 C246 1.415 . S
C248 C253 1.425 . S
C248 C255 1.409 . S
C249 H241 0.930 . S
C249 C247 1.419 . S
C249 C250 1.362 . S
C250 H242 0.930 . S
C250 C249 1.362 . S
C250 C253 1.409 . S
C251 H243 0.930 . S
C251 C252 1.355 . S
C251 C253 1.415 . S
C252 C251 1.355 . S
C252 C254 1.419 . S
C253 C248 1.425 . S
C253 C250 1.409 . S
C253 C251 1.415 . S
C254 H244 0.930 . S
C254 C252 1.419 . S
C254 C255 1.362 . S
C255 H245 0.930 . S
C255 C248 1.409 . S
C255 C254 1.362 . S
H256 C262 0.930 . S
H257 C265 0.930 . S
H258 C266 0.930 . S
H259 C267 0.930 1_556 S
H260 C270 0.930 . S
H261 C271 0.930 . S
C262 H256 0.930 . S
C262 C263 1.355 . S
C262 C264 1.415 . S
C263 C262 1.355 . S
C263 C265 1.419 1_554 S
C264 C262 1.415 . S
C264 C269 1.425 . S
C264 C271 1.409 . S
C265 H257 0.930 . S
C265 C263 1.419 1_556 S
C265 C266 1.362 . S
C266 H258 0.930 . S
C266 C265 1.362 . S
C266 C269 1.409 1_556 S
C267 H259 0.930 1_554 S
C267 C268 1.355 . S
C267 C269 1.415 . S
C268 C267 1.355 . S
C268 C270 1.419 . S
C269 C264 1.425 . S
C269 C266 1.409 1_554 S
C269 C267 1.415 . S
C270 H260 0.930 . S
C270 C268 1.419 . S
C270 C271 1.362 . S
C271 H261 0.930 . S
C271 C264 1.409 . S
C271 C270 1.362 . S
H272 C278 0.930 . S
H273 C281 0.930 . S
H274 C282 0.930 . S
H275 C283 0.930 . S
H276 C286 0.930 1_565 S
H277 C287 0.930 . S
C278 H272 0.930 . S
C278 C279 1.355 . S
C278 C280 1.415 . S
C279 C278 1.355 . S
C279 C281 1.419 . S
C280 C278 1.415 . S
C280 C285 1.425 . S
C280 C287 1.409 . S
C281 H273 0.930 . S
C281 C279 1.419 . S
C281 C282 1.362 . S
C282 H274 0.930 . S
C282 C281 1.362 . S
C282 C285 1.409 . S
C283 H275 0.930 . S
C283 C284 1.355 . S
C283 C285 1.415 . S
C284 C283 1.355 . S
C284 C286 1.419 . S
C285 C280 1.425 . S
C285 C282 1.409 . S
C285 C283 1.415 . S
C286 H276 0.930 1_545 S
C286 C284 1.419 . S
C286 C287 1.362 . S
C287 H277 0.930 . S
C287 C280 1.409 . S
C287 C286 1.362 . S
H288 C294 0.930 . S
H289 C297 0.930 . S
H290 C298 0.930 . S
H291 C299 0.930 . S
H292 C302 0.930 . S
H293 C303 0.930 . S
C294 H288 0.930 . S
C294 C295 1.355 . S
C294 C296 1.415 . S
C295 C294 1.355 . S
C295 C297 1.419 . S
C296 C294 1.415 . S
C296 C301 1.425 . S
C296 C303 1.409 . S
C297 H289 0.930 . S
C297 C295 1.419 . S
C297 C298 1.362 . S
C298 H290 0.930 . S
C298 C297 1.362 . S
C298 C301 1.409 . S
C299 H291 0.930 . S
C299 C300 1.355 . S
C299 C301 1.415 . S
C300 C299 1.355 . S
C300 C302 1.419 . S
C301 C296 1.425 . S
C301 C298 1.409 . S
C301 C299 1.415 . S
C302 H292 0.930 . S
C302 C300 1.419 . S
C302 C303 1.362 . S
C303 H293 0.930 . S
C303 C296 1.409 . S
C303 C302 1.362 . S
H304 C310 0.930 . S
H305 C313 0.930 . S
H306 C314 0.930 . S
H307 C315 0.930 . S
H308 C318 0.930 . S
H309 C319 0.930 . S
C310 H304 0.930 . S
C310 C311 1.355 . S
C310 C312 1.415 . S
C311 C310 1.355 . S
C311 C313 1.419 . S
C312 C310 1.415 . S
C312 C317 1.425 . S
C312 C319 1.409 . S
C313 H305 0.930 . S
C313 C311 1.419 . S
C313 C314 1.362 . S
C314 H306 0.930 . S
C314 C313 1.362 . S
C314 C317 1.409 . S
C315 H307 0.930 . S
C315 C316 1.355 . S
C315 C317 1.415 . S
C316 C315 1.355 . S
C316 C318 1.419 . S
C317 C312 1.425 . S
C317 C314 1.409 . S
C317 C315 1.415 . S
C318 H308 0.930 . S
C318 C316 1.419 . S
C318 C319 1.362 . S
C319 H309 0.930 . S
C319 C312 1.409 . S
C319 C318 1.362 . S
H320 C326 0.930 . S
H321 C329 0.930 . S
H322 C330 0.930 . S
H323 C331 0.930 . S
H324 C334 0.930 . S
H325 C335 0.930 . S
C326 H320 0.930 . S
C326 C327 1.355 . S
C326 C328 1.415 . S
C327 C326 1.355 . S
C327 C329 1.419 . S
C328 C326 1.415 . S
C328 C333 1.425 . S
C328 C335 1.409 . S
C329 H321 0.930 . S
C329 C327 1.419 . S
C329 C330 1.362 . S
C330 H322 0.930 . S
C330 C329 1.362 . S
C330 C333 1.409 . S
C331 H323 0.930 . S
C331 C332 1.355 . S
C331 C333 1.415 . S
C332 C331 1.355 . S
C332 C334 1.419 . S
C333 C328 1.425 . S
C333 C330 1.409 . S
C333 C331 1.415 . S
C334 H324 0.930 . S
C334 C332 1.419 . S
C334 C335 1.362 . S
C335 H325 0.930 . S
C335 C328 1.409 . S
C335 C334 1.362 . S
H336 C342 0.930 . S
H337 C345 0.930 . S
H338 C346 0.930 . S
H339 C347 0.930 . S
H340 C350 0.930 . S
H341 C351 0.930 . S
C342 H336 0.930 . S
C342 C343 1.355 . S
C342 C344 1.415 . S
C343 C342 1.355 . S
C343 C345 1.419 . S
C344 C342 1.415 . S
C344 C349 1.425 . S
C344 C351 1.409 . S
C345 H337 0.930 . S
C345 C343 1.419 . S
C345 C346 1.362 . S
C346 H338 0.930 . S
C346 C345 1.362 . S
C346 C349 1.409 . S
C347 H339 0.930 . S
C347 C348 1.355 . S
C347 C349 1.415 . S
C348 C347 1.355 . S
C348 C350 1.419 . S
C349 C344 1.425 . S
C349 C346 1.409 . S
C349 C347 1.415 . S
C350 H340 0.930 . S
C350 C348 1.419 . S
C350 C351 1.362 . S
C351 H341 0.930 . S
C351 C344 1.409 . S
C351 C350 1.362 . S
H352 C358 0.930 . S
H353 C361 0.930 . S
H354 C362 0.930 . S
H355 C363 0.930 . S
H356 C366 0.930 . S
H357 C367 0.930 . S
C358 H352 0.930 . S
C358 C359 1.355 1_556 S
C358 C360 1.415 . S
C359 C358 1.355 1_554 S
C359 C361 1.419 1_554 S
C360 C358 1.415 . S
C360 C365 1.425 . S
C360 C367 1.409 . S
C361 H353 0.930 . S
C361 C359 1.419 1_556 S
C361 C362 1.362 . S
C362 H354 0.930 . S
C362 C361 1.362 . S
C362 C365 1.409 . S
C363 H355 0.930 . S
C363 C364 1.355 . S
C363 C365 1.415 . S
C364 C363 1.355 . S
C364 C366 1.419 . S
C365 C360 1.425 . S
C365 C362 1.409 . S
C365 C363 1.415 . S
C366 H356 0.930 . S
C366 C364 1.419 . S
C366 C367 1.362 . S
C367 H357 0.930 . S
C367 C360 1.409 . S
C367 C366 1.362 . S
H368 C374 0.930 . S
H369 C377 0.930 . S
H370 C378 0.930 . S
H371 C379 0.930 . S
H372 C382 0.930 1_556 S
H373 C383 0.930 . S
C374 H368 0.930 . S
C374 C375 1.355 . S
C374 C376 1.415 . S
C375 C374 1.355 . S
C375 C377 1.419 . S
C376 C374 1.415 . S
C376 C381 1.425 . S
C376 C383 1.409 . S
C377 H369 0.930 . S
C377 C375 1.419 . S
C377 C378 1.362 . S
C378 H370 0.930 . S
C378 C377 1.362 . S
C378 C381 1.409 . S
C379 H371 0.930 . S
C379 C380 1.355 1_554 S
C379 C381 1.415 . S
C380 C379 1.355 1_556 S
C380 C382 1.419 1_556 S
C381 C376 1.425 . S
C381 C378 1.409 . S
C381 C379 1.415 . S
C382 H372 0.930 1_554 S
C382 C380 1.419 1_554 S
C382 C383 1.362 . S
C383 H373 0.930 . S
C383 C376 1.409 . S
C383 C382 1.362 . S
H384 C390 0.930 . S
H385 C393 0.930 . S
H386 C394 0.930 . S
H387 C395 0.930 . S
H388 C398 0.930 . S
H389 C399 0.930 . S
C390 H384 0.930 . S
C390 C391 1.355 . S
C390 C392 1.415 . S
C391 C390 1.355 . S
C391 C393 1.419 . S
C392 C390 1.415 . S
C392 C397 1.425 . S
C392 C399 1.409 . S
C393 H385 0.930 . S
C393 C391 1.419 . S
C393 C394 1.362 . S
C394 H386 0.930 . S
C394 C393 1.362 . S
C394 C397 1.409 . S
C395 H387 0.930 . S
C395 C396 1.355 . S
C395 C397 1.415 . S
C396 C395 1.355 . S
C396 C398 1.419 . S
C397 C392 1.425 . S
C397 C394 1.409 . S
C397 C395 1.415 . S
C398 H388 0.930 . S
C398 C396 1.419 . S
C398 C399 1.362 . S
C399 H389 0.930 . S
C399 C392 1.409 . S
C399 C398 1.362 . S
H400 C406 0.930 . S
H401 C409 0.930 . S
H402 C410 0.930 . S
H403 C411 0.930 . S
H404 C414 0.930 1_554 S
H405 C415 0.930 . S
C406 H400 0.930 . S
C406 C407 1.355 . S
C406 C408 1.415 . S
C407 C406 1.355 . S
C407 C409 1.419 . S
C408 C406 1.415 . S
C408 C413 1.425 . S
C408 C415 1.409 . S
C409 H401 0.930 . S
C409 C407 1.419 . S
C409 C410 1.362 . S
C410 H402 0.930 . S
C410 C409 1.362 . S
C410 C413 1.409 . S
C411 H403 0.930 . S
C411 C412 1.355 1_556 S
C411 C413 1.415 . S
C412 C411 1.355 1_554 S
C412 C414 1.419 1_554 S
C413 C408 1.425 . S
C413 C410 1.409 . S
C413 C411 1.415 . S
C414 H404 0.930 1_556 S
C414 C412 1.419 1_556 S
C414 C415 1.362 . S
C415 H405 0.930 . S
C415 C408 1.409 . S
C415 C414 1.362 . S
H416 C422 0.930 . S
H417 C425 0.930 . S
H418 C426 0.930 . S
H419 C427 0.930 . S
H420 C430 0.930 1_556 S
H421 C431 0.930 . S
C422 H416 0.930 . S
C422 C423 1.355 . S
C422 C424 1.415 . S
C423 C422 1.355 . S
C423 C425 1.419 . S
C424 C422 1.415 . S
C424 C429 1.425 . S
C424 C431 1.409 . S
C425 H417 0.930 . S
C425 C423 1.419 . S
C425 C426 1.362 . S
C426 H418 0.930 . S
C426 C425 1.362 . S
C426 C429 1.409 . S
C427 H419 0.930 . S
C427 C428 1.355 1_554 S
C427 C429 1.415 . S
C428 C427 1.355 1_556 S
C428 C430 1.419 1_556 S
C429 C424 1.425 . S
C429 C426 1.409 . S
C429 C427 1.415 . S
C430 H420 0.930 1_554 S
C430 C428 1.419 1_554 S
C430 C431 1.362 . S
C431 H421 0.930 . S
C431 C424 1.409 . S
C431 C430 1.362 . S
H432 C438 0.930 . S
H433 C441 0.930 . S
H434 C442 0.930 . S
H435 C443 0.930 . S
H436 C446 0.930 . S
H437 C447 0.930 . S
C438 H432 0.930 . S
C438 C439 1.355 . S
C438 C440 1.415 . S
C439 C438 1.355 . S
C439 C441 1.419 . S
C440 C438 1.415 . S
C440 C445 1.425 . S
C440 C447 1.409 . S
C441 H433 0.930 . S
C441 C439 1.419 . S
C441 C442 1.362 . S
C442 H434 0.930 . S
C442 C441 1.362 . S
C442 C445 1.409 . S
C443 H435 0.930 . S
C443 C444 1.355 . S
C443 C445 1.415 . S
C444 C443 1.355 . S
C444 C446 1.419 . S
C445 C440 1.425 . S
C445 C442 1.409 . S
C445 C443 1.415 . S
C446 H436 0.930 . S
C446 C444 1.419 . S
C446 C447 1.362 . S
C447 H437 0.930 . S
C447 C440 1.409 . S
C447 C446 1.362 . S
H448 C454 0.930 . S
H449 C457 0.930 . S
H450 C458 0.930 . S
H451 C459 0.930 . S
H452 C462 0.930 . S
H453 C463 0.930 . S
C454 H448 0.930 . S
C454 C455 1.355 . S
C454 C456 1.415 . S
C455 C454 1.355 . S
C455 C457 1.419 . S
C456 C454 1.415 . S
C456 C461 1.425 . S
C456 C463 1.409 . S
C457 H449 0.930 . S
C457 C455 1.419 . S
C457 C458 1.362 . S
C458 H450 0.930 . S
C458 C457 1.362 . S
C458 C461 1.409 . S
C459 H451 0.930 . S
C459 C460 1.355 . S
C459 C461 1.415 . S
C460 C459 1.355 . S
C460 C462 1.419 . S
C461 C456 1.425 . S
C461 C458 1.409 . S
C461 C459 1.415 . S
C462 H452 0.930 . S
C462 C460 1.419 . S
C462 C463 1.362 . S
C463 H453 0.930 . S
C463 C456 1.409 . S
C463 C462 1.362 . S
H464 C470 0.930 . S
H465 C473 0.930 . S
H466 C474 0.930 . S
H467 C475 0.930 1_554 S
H468 C478 0.930 . S
H469 C479 0.930 . S
C470 H464 0.930 . S
C470 C471 1.355 . S
C470 C472 1.415 . S
C471 C470 1.355 . S
C471 C473 1.419 1_556 S
C472 C470 1.415 . S
C472 C477 1.425 . S
C472 C479 1.409 . S
C473 H465 0.930 . S
C473 C471 1.419 1_554 S
C473 C474 1.362 . S
C474 H466 0.930 . S
C474 C473 1.362 . S
C474 C477 1.409 1_554 S
C475 H467 0.930 1_556 S
C475 C476 1.355 . S
C475 C477 1.415 . S
C476 C475 1.355 . S
C476 C478 1.419 . S
C477 C472 1.425 . S
C477 C474 1.409 1_556 S
C477 C475 1.415 . S
C478 H468 0.930 . S
C478 C476 1.419 . S
C478 C479 1.362 . S
C479 H469 0.930 . S
C479 C472 1.409 . S
C479 C478 1.362 . S
H480 C486 0.930 . S
H481 C489 0.930 . S
H482 C490 0.930 . S
H483 C491 0.930 . S
H484 C494 0.930 . S
H485 C495 0.930 . S
C486 H480 0.930 . S
C486 C487 1.355 . S
C486 C488 1.415 . S
C487 C486 1.355 . S
C487 C489 1.419 . S
C488 C486 1.415 . S
C488 C493 1.425 . S
C488 C495 1.409 . S
C489 H481 0.930 . S
C489 C487 1.419 . S
C489 C490 1.362 . S
C490 H482 0.930 . S
C490 C489 1.362 . S
C490 C493 1.409 . S
C491 H483 0.930 . S
C491 C492 1.355 . S
C491 C493 1.415 . S
C492 C491 1.355 . S
C492 C494 1.419 . S
C493 C488 1.425 . S
C493 C490 1.409 . S
C493 C491 1.415 . S
C494 H484 0.930 . S
C494 C492 1.419 . S
C494 C495 1.362 . S
C495 H485 0.930 . S
C495 C488 1.409 . S
C495 C494 1.362 . S
H496 C502 0.930 . S
H497 C505 0.930 . S
H498 C506 0.930 . S
H499 C507 0.930 . S
H500 C510 0.930 . S
H501 C511 0.930 . S
C502 H496 0.930 . S
C502 C503 1.355 . S
C502 C504 1.415 . S
C503 C502 1.355 . S
C503 C505 1.419 . S
C504 C502 1.415 . S
C504 C509 1.425 . S
C504 C511 1.409 . S
C505 H497 0.930 . S
C505 C503 1.419 . S
C505 C506 1.362 . S
C506 H498 0.930 . S
C506 C505 1.362 . S
C506 C509 1.409 . S
C507 H499 0.930 . S
C507 C508 1.355 . S
C507 C509 1.415 . S
C508 C507 1.355 . S
C508 C510 1.419 . S
C509 C504 1.425 . S
C509 C506 1.409 . S
C509 C507 1.415 . S
C510 H500 0.930 . S
C510 C508 1.419 . S
C510 C511 1.362 . S
C511 H501 0.930 . S
C511 C504 1.409 . S
C511 C510 1.362 . S
H512 C518 0.930 . S
H513 C521 0.930 . S
H514 C522 0.930 . S
H515 C523 0.930 . S
H516 C526 0.930 . S
H517 C527 0.930 . S
C518 H512 0.930 . S
C518 C519 1.355 . S
C518 C520 1.415 . S
C519 C518 1.355 . S
C519 C521 1.419 . S
C520 C518 1.415 . S
C520 C525 1.425 . S
C520 C527 1.409 . S
C521 H513 0.930 . S
C521 C519 1.419 . S
C521 C522 1.362 . S
C522 H514 0.930 . S
C522 C521 1.362 . S
C522 C525 1.409 . S
C523 H515 0.930 . S
C523 C524 1.355 . S
C523 C525 1.415 . S
C524 C523 1.355 . S
C524 C526 1.419 . S
C525 C520 1.425 . S
C525 C522 1.409 . S
C525 C523 1.415 . S
C526 H516 0.930 . S
C526 C524 1.419 . S
C526 C527 1.362 . S
C527 H517 0.930 . S
C527 C520 1.409 . S
C527 C526 1.362 . S
C247 C209 1.709 . S
C252 C6 1.645 . S
C263 C9 1.738 . S
C268 C46 1.663 1_455 S
C279 C49 1.741 . S
C284 C86 1.712 1_545 S
C295 C89 1.716 . S
C300 C126 1.678 . S
C311 C166 1.705 1_655 S
C316 C129 1.759 . S
C327 C206 1.718 1_565 S
C332 C169 1.750 . S
C343 C10 2.079 . S
C348 C19 2.079 . S
C359 C50 2.093 . S
C364 C59 2.093 . S
C375 C90 2.069 . S
C380 C99 2.069 . S
C391 C130 2.067 . S
C396 C139 2.067 . S
C407 C179 2.066 . S
C412 C170 2.066 . S
C423 C210 2.075 . S
C428 C219 2.075 . S
C439 C15 1.657 . S
C444 C178 1.630 . S
C455 C55 1.590 . S
C460 C218 1.688 . S
C471 C18 1.633 . S
C476 C95 1.609 . S
C487 C58 1.693 . S
C492 C135 1.605 . S
C503 C175 1.653 . S
C508 C98 1.627 . S
C519 C138 1.693 . S
C524 C215 1.607 . S
