# Generated by pormake.
# Topology lvt, (4)-cn, num edge types: 1
# Building blocks:
#     Node 0, Type 0, BuildingBlock: MUDLON_clean_sbu_0, # of connection points: 4
#     Node 1, Type 0, BuildingBlock: MUDLON_clean_sbu_0, # of connection points: 4
#     Node 2, Type 0, BuildingBlock: MUDLON_clean_sbu_0, # of connection points: 4
#     Node 3, Type 0, BuildingBlock: MUDLON_clean_sbu_0, # of connection points: 4
#     Node 4, Type 0, BuildingBlock: MUDLON_clean_sbu_0, # of connection points: 4
#     Node 5, Type 0, BuildingBlock: MUDLON_clean_sbu_0, # of connection points: 4
#     Node 6, Type 0, BuildingBlock: MUDLON_clean_sbu_0, # of connection points: 4
#     Node 7, Type 0, BuildingBlock: MUDLON_clean_sbu_0, # of connection points: 4
#     Edge 8, Type (0, 0), BuildingBlock: UVAHIK_clean_linker_0, # of connection points: 2
#     Edge 9, Type (0, 0), BuildingBlock: UVAHIK_clean_linker_0, # of connection points: 2
#     Edge 10, Type (0, 0), BuildingBlock: UVAHIK_clean_linker_0, # of connection points: 2
#     Edge 11, Type (0, 0), BuildingBlock: UVAHIK_clean_linker_0, # of connection points: 2
#     Edge 12, Type (0, 0), BuildingBlock: UVAHIK_clean_linker_0, # of connection points: 2
#     Edge 13, Type (0, 0), BuildingBlock: UVAHIK_clean_linker_0, # of connection points: 2
#     Edge 14, Type (0, 0), BuildingBlock: UVAHIK_clean_linker_0, # of connection points: 2
#     Edge 15, Type (0, 0), BuildingBlock: UVAHIK_clean_linker_0, # of connection points: 2
#     Edge 16, Type (0, 0), BuildingBlock: UVAHIK_clean_linker_0, # of connection points: 2
#     Edge 17, Type (0, 0), BuildingBlock: UVAHIK_clean_linker_0, # of connection points: 2
#     Edge 18, Type (0, 0), BuildingBlock: UVAHIK_clean_linker_0, # of connection points: 2
#     Edge 19, Type (0, 0), BuildingBlock: UVAHIK_clean_linker_0, # of connection points: 2
#     Edge 20, Type (0, 0), BuildingBlock: UVAHIK_clean_linker_0, # of connection points: 2
#     Edge 21, Type (0, 0), BuildingBlock: UVAHIK_clean_linker_0, # of connection points: 2
#     Edge 22, Type (0, 0), BuildingBlock: UVAHIK_clean_linker_0, # of connection points: 2
#     Edge 23, Type (0, 0), BuildingBlock: UVAHIK_clean_linker_0, # of connection points: 2
# Relax obj value: 0.001
# Max RMSD: 0.037
# Mean RMSD: 0.025
data_MOF--net-lvt--node1-MUDLON_clean_sbu_0--edge1-UVAHIK_clean_linker_0
_symmetry_space_group_name_H-M    P1
_symmetry_Int_Tables_number       1
_symmetry_cell_setting            triclinic
loop_
_symmetry_equiv_pos_as_xyz
'x, y, z'
_cell_length_a     54.344779
_cell_length_b     54.174019
_cell_length_c     12.053661
_cell_angle_alpha  90.087358
_cell_angle_beta   89.923304
_cell_angle_gamma 89.91847
loop_
_atom_site_label
_atom_site_type_symbol
_atom_site_fract_x
_atom_site_fract_y
_atom_site_fract_z
_atom_type_partial_charge
Mg0 Mg 0.02684 0.02773 0.77729 0.0
C1 C 0.06187 0.06657 0.7075 0.0
O2 O 0.05732 0.07157 0.81227 0.0
C3 C 0.99925 0.98027 0.76767 0.0
O4 O 1.00952 0.97972 0.86618 0.0
C5 C 0.97845 0.05197 0.84309 0.0
O6 O 0.97017 0.03053 0.80869 0.0
O7 O 1.00161 0.05551 0.846 0.0
O8 O 0.05111 0.04807 0.66365 0.0
O9 O 0.05003 1.00866 0.89899 0.0
C10 C 0.0729 1.00545 0.88077 0.0
O11 O 0.08303 1.0162 0.79451 0.0
O12 O 1.00383 0.99853 0.70422 0.0
Mg13 Mg 0.26503 0.76692 0.04555 0.0
C14 C 0.23042 0.72636 0.98233 0.0
O15 O 0.23167 0.72433 0.09083 0.0
C16 C 0.30629 0.80049 0.04751 0.0
O17 O 0.30016 0.7964 0.15139 0.0
C18 C 0.21745 0.79386 0.11867 0.0
O19 O 0.20678 0.77303 0.09084 0.0
O20 O 0.24082 0.79531 0.11581 0.0
O21 O 0.24305 0.74318 0.93512 0.0
O22 O 0.28537 0.7436 0.16265 0.0
C23 C 0.29158 0.7221 0.12992 0.0
O24 O 0.28413 0.71439 0.03227 0.0
O25 O 0.29415 0.78945 0.97181 0.0
Mg26 Mg 0.52871 0.02401 0.83386 0.0
C27 C 0.49045 0.98728 0.83744 0.0
O28 O 0.49429 0.99335 0.7333 0.0
C29 C 0.57217 0.05473 0.8963 0.0
O30 O 0.57528 0.05119 0.78939 0.0
C31 C 0.56323 1.00046 0.64496 0.0
O32 O 0.56439 0.02175 0.59327 0.0
O33 O 0.5506 0.99848 0.73342 0.0
O34 O 0.50316 0.99811 0.91186 0.0
O35 O 0.50341 0.04951 0.75141 0.0
C36 C 0.50569 0.07288 0.75552 0.0
O37 O 0.52599 0.08237 0.79626 0.0
O38 O 0.55355 0.04491 0.94312 0.0
Mg39 Mg 0.26921 0.26595 0.07491 0.0
C40 C 0.23419 0.22508 0.13073 0.0
O41 O 0.23491 0.22432 0.02178 0.0
C42 C 0.29467 0.3127 0.15062 0.0
O43 O 0.27456 0.32196 0.10708 0.0
C44 C 0.22134 0.2931 0.02039 0.0
O45 O 0.21229 0.27636 0.0876 0.0
O46 O 0.24398 0.29192 -0.00659 0.0
O47 O 0.24735 0.24108 0.18069 0.0
O48 O 0.29178 0.24375 0.9612 0.0
C49 C 0.2976 0.22181 0.98873 0.0
O50 O 0.28847 0.21254 0.08055 0.0
O51 O 0.29665 0.28931 0.15856 0.0
Mg52 Mg 0.76912 0.2644 0.52243 0.0
C53 C 0.80026 0.30932 0.49985 0.0
O54 O 0.78454 0.31531 0.57818 0.0
C55 C 0.73482 0.2256 0.45768 0.0
O56 O 0.73045 0.23015 0.56304 0.0
C57 C 0.80711 0.24777 0.69207 0.0
O58 O 0.81637 0.26949 0.66794 0.0
O59 O 0.78631 0.24183 0.65151 0.0
O60 O 0.7981 0.28827 0.4534 0.0
O61 O 0.73811 0.28831 0.56603 0.0
C62 C 0.73285 0.30083 0.65232 0.0
O63 O 0.74722 0.29965 0.73973 0.0
O64 O 0.75192 0.23768 0.4099 0.0
Mg65 Mg 0.76869 0.76403 0.57594 0.0
C66 C 0.79914 0.80923 0.59242 0.0
O67 O 0.7851 0.8132 0.50561 0.0
C68 C 0.73322 0.72572 0.64194 0.0
O69 O 0.73059 0.72795 0.53404 0.0
C70 C 0.80979 0.74514 0.42486 0.0
O71 O 0.81877 0.76708 0.44711 0.0
O72 O 0.78846 0.73962 0.46089 0.0
O73 O 0.79614 0.78928 0.64684 0.0
O74 O 0.74028 0.78794 0.50438 0.0
C75 C 0.72303 0.79398 0.57078 0.0
O76 O 0.72292 0.78443 0.67088 0.0
O77 O 0.74928 0.73912 0.69004 0.0
Mg78 Mg 0.52735 0.52673 0.28642 0.0
C79 C 0.49965 0.47937 0.26825 0.0
O80 O 0.51063 0.47729 0.36474 0.0
C81 C 0.56888 0.55932 0.22156 0.0
O82 O 0.57197 0.5562 0.32874 0.0
C83 C 0.56535 0.49081 0.33846 0.0
O84 O 0.56284 0.49051 0.23002 0.0
O85 O 0.55245 0.5061 0.39401 0.0
O86 O 0.50375 0.49853 0.20966 0.0
O87 O 0.5004 0.55114 0.36533 0.0
C88 C 0.50119 0.57456 0.3576 0.0
O89 O 0.52076 0.58497 0.31412 0.0
O90 O 0.55077 0.54859 0.17486 0.0
Mg91 Mg 0.02985 0.52507 0.31809 0.0
C92 C 1.00362 0.47666 0.33666 0.0
O93 O 1.01549 0.47436 0.24228 0.0
C94 C 0.06273 0.56558 0.39133 0.0
O95 O 0.05643 0.57189 0.29003 0.0
C96 C 0.0763 0.50689 0.19447 0.0
O97 O 0.08744 0.52309 0.25799 0.0
O98 O 0.05292 0.50552 0.19684 0.0
O99 O 1.00677 0.49625 0.39378 0.0
O100 O 1.00449 0.55271 0.25023 0.0
C101 C 0.98136 0.5489 0.25146 0.0
O102 O 0.97322 0.52714 0.28209 0.0
O103 O 0.05402 0.54562 0.43117 0.0
C104 C 0.09234 0.10118 0.69968 0.0
C105 C 0.0798 0.08199 0.64499 0.0
C106 C 0.10942 0.11582 0.64334 0.0
C107 C 0.128 0.13629 0.36327 0.0
H108 H 0.1884 0.15525 0.51165 0.0
C109 C 0.20501 0.1893 0.13416 0.0
C110 C 0.21767 0.20794 0.19198 0.0
C111 C 0.18877 0.17348 0.18928 0.0
C112 C 0.17151 0.15042 0.46935 0.0
H113 H 0.07549 0.06325 0.48726 0.0
H114 H 0.10544 0.08891 0.38835 0.0
H115 H 0.15918 0.12831 0.60567 0.0
H116 H 0.22322 0.22437 0.354 0.0
H117 H 0.19458 0.19696 0.45037 0.0
H118 H 0.14016 0.15858 0.22744 0.0
C119 C 0.10186 0.09267 0.47516 0.0
C120 C 0.15474 0.13489 0.52327 0.0
C121 C 0.08477 0.07788 0.53191 0.0
C122 C 0.21385 0.21018 0.30694 0.0
C123 C 0.19748 0.19436 0.36224 0.0
C124 C 0.14474 0.1519 0.30947 0.0
C125 C 0.11448 0.11178 0.5304 0.0
C126 C 0.13271 0.12767 0.47114 0.0
C127 C 0.18459 0.17587 0.30397 0.0
C128 C 0.16674 0.15922 0.36175 0.0
H129 H 0.089 0.10499 0.78664 0.0
H130 H 0.11845 0.13058 0.68824 0.0
H131 H 0.11109 0.13145 0.3212 0.0
H132 H 0.20758 0.18687 0.04569 0.0
H133 H 0.17963 0.15922 0.14176 0.0
C134 C 0.1129 0.98594 0.93528 0.0
C135 C 0.08711 0.98673 0.94373 0.0
C136 C 0.12623 0.96631 0.98087 0.0
C137 C 0.11942 0.90087 0.03987 0.0
H138 H 0.1818 0.9077 0.1924 0.0
C139 C 0.17677 0.81479 0.14967 0.0
C140 C 0.20234 0.81648 0.13412 0.0
C141 C 0.16204 0.83602 0.14892 0.0
C142 C 0.16453 0.9054 0.14896 0.0
H143 H 0.05515 0.96796 0.01059 0.0
H144 H 0.07844 0.93346 0.08887 0.0
H145 H 0.15744 0.94439 0.14994 0.0
H146 H 0.23259 0.84196 0.10953 0.0
H147 H 0.207 0.87875 0.10445 0.0
H148 H 0.12684 0.8622 0.03306 0.0
C149 C 0.08832 0.94811 0.04707 0.0
C150 C 0.15052 0.92647 0.12525 0.0
C151 C 0.07501 0.96796 0.00289 0.0
C152 C 0.21296 0.83998 0.12238 0.0
C153 C 0.1982 0.86118 0.11997 0.0
C154 C 0.13355 0.87986 0.06211 0.0
C155 C 0.11403 0.94683 0.03463 0.0
C156 C 0.12793 0.92445 0.06937 0.0
C157 C 0.17244 0.85949 0.1308 0.0
C158 C 0.15649 0.88179 0.11582 0.0
H159 H 0.12278 1.00013 0.89037 0.0
H160 H 0.14599 0.96578 0.96927 0.0
H161 H 0.10227 0.89873 -0.00479 0.0
H162 H 0.16802 0.79699 0.15989 0.0
H163 H 0.1424 0.83393 0.16048 0.0
C164 C 0.46734 0.96021 0.97302 0.0
C165 C 0.47197 0.96794 0.8637 0.0
C166 C 0.44995 0.94164 -0.00558 0.0
C167 C 0.41651 0.89014 0.85614 0.0
H168 H 0.37139 0.89638 0.10373 0.0
C169 C 0.3318 0.82572 0.91365 0.0
C170 C 0.32628 0.81835 0.02263 0.0
C171 C 0.35004 0.84353 0.89366 0.0
C172 C 0.38402 0.89418 0.03483 0.0
H173 H 0.46169 0.96227 0.69141 0.0
H174 H 0.43155 0.93044 0.72872 0.0
H175 H 0.40259 0.92797 0.07365 0.0
H176 H 0.33613 0.82353 0.1957 0.0
H177 H 0.36781 0.85401 0.16082 0.0
H178 H 0.39789 0.85638 0.81714 0.0
C179 C 0.44152 0.9383 0.79799 0.0
C180 C 0.40196 0.91231 0.01777 0.0
C181 C 0.45876 0.95677 0.77675 0.0
C182 C 0.33969 0.82885 0.11061 0.0
C183 C 0.35782 0.84653 0.09075 0.0
C184 C 0.39857 0.872 0.87321 0.0
C185 C 0.43691 0.93037 0.9069 0.0
C186 C 0.41839 0.91059 0.92794 0.0
C187 C 0.36311 0.85433 0.98226 0.0
C188 C 0.38207 0.87378 0.96276 0.0
H189 H 0.4772 0.96839 0.04185 0.0
H190 H 0.44698 0.93586 0.07935 0.0
H191 H 0.42909 0.888 0.78703 0.0
H192 H 0.32179 0.81805 0.84407 0.0
H193 H 0.35352 0.84921 0.80901 0.0
C194 C 0.33507 0.21984 0.86641 0.0
C195 C 0.31655 0.20769 0.92677 0.0
C196 C 0.35492 0.20652 0.8219 0.0
C197 C 0.37613 0.14459 0.73857 0.0
H198 H 0.44029 0.16596 0.84004 0.0
C199 C 0.46009 0.07919 0.74037 0.0
C200 C 0.484 0.08901 0.73633 0.0
C201 C 0.43952 0.09477 0.74147 0.0
C202 C 0.4227 0.15991 0.80819 0.0
H203 H 0.30361 0.17197 0.98256 0.0
H204 H 0.3378 0.14871 0.90213 0.0
H205 H 0.40431 0.19134 0.87819 0.0
H206 H 0.50498 0.12284 0.72236 0.0
H207 H 0.46917 0.14996 0.71854 0.0
H208 H 0.39432 0.11328 0.66766 0.0
C209 C 0.33713 0.16852 0.89021 0.0
C210 C 0.40201 0.1745 0.83073 0.0
C211 C 0.31761 0.18185 0.93662 0.0
C212 C 0.4868 0.11469 0.7265 0.0
C213 C 0.46621 0.13028 0.72555 0.0
C214 C 0.39688 0.13019 0.71416 0.0
C215 C 0.35631 0.18075 0.83473 0.0
C216 C 0.37845 0.16674 0.79831 0.0
C217 C 0.44226 0.12062 0.7366 0.0
C218 C 0.42044 0.13731 0.75093 0.0
H219 H 0.33483 0.23974 0.85802 0.0
H220 H 0.36942 0.21639 0.77916 0.0
H221 H 0.35819 0.13827 0.71171 0.0
H222 H 0.45724 0.0595 0.74887 0.0
H223 H 0.42157 0.08646 0.75162 0.0
C224 C 0.97873 0.93986 0.80476 0.0
C225 C 0.9808 0.96112 0.73858 0.0
C226 C 0.95993 0.92276 0.78664 0.0
C227 C 0.91303 0.90233 0.5822 0.0
H228 H 0.88114 0.87512 0.84288 0.0
C229 C 0.82201 0.8483 0.55328 0.0
C230 C 0.81947 0.82674 0.61722 0.0
C231 C 0.8419 0.8642 0.56913 0.0
C232 C 0.89002 0.8823 0.76921 0.0
H233 H 0.96503 0.9807 0.59912 0.0
H234 H 0.93192 0.95092 0.56782 0.0
H235 H 0.91549 0.90359 0.86472 0.0
H236 H 0.83575 0.80532 0.74998 0.0
H237 H 0.87064 0.83326 0.77808 0.0
H238 H 0.88735 0.8812 0.48681 0.0
C239 C 0.94506 0.94734 0.6333 0.0
C240 C 0.90977 0.89864 0.7816 0.0
C241 C 0.96403 0.96446 0.65122 0.0
C242 C 0.8371 0.82179 0.69952 0.0
C243 C 0.85707 0.83783 0.71567 0.0
C244 C 0.89324 0.88604 0.56983 0.0
C245 C 0.94253 0.92647 0.70212 0.0
C246 C 0.92155 0.90892 0.68827 0.0
C247 C 0.85986 0.85908 0.64956 0.0
C248 C 0.8814 0.87588 0.66318 0.0
H249 H 0.99146 0.93654 0.87219 0.0
H250 H 0.95898 0.90666 0.8396 0.0
H251 H 0.92185 0.90953 0.50844 0.0
H252 H 0.80873 0.85285 0.48952 0.0
H253 H 0.84315 0.88062 0.51827 0.0
C254 C 0.93541 0.06852 0.85328 0.0
C255 C 0.96087 0.07255 0.86344 0.0
C256 C 0.91879 0.08821 0.85904 0.0
C257 C 0.91609 0.15549 0.81394 0.0
H258 H 0.8502 0.14871 0.93398 0.0
C259 C 0.84644 0.23531 0.78517 0.0
C260 C 0.82282 0.22895 0.74711 0.0
C261 C 0.86295 0.21709 0.8202 0.0
C262 C 0.8685 0.15087 0.89969 0.0
H263 H 0.9887 0.10044 0.89287 0.0
H264 H 0.95963 0.13481 0.90459 0.0
H265 H 0.88003 0.11542 0.95879 0.0
H266 H 0.79761 0.19845 0.72224 0.0
H267 H 0.82643 0.16666 0.78276 0.0
H268 H 0.90451 0.19067 0.75296 0.0
C269 C 0.95256 0.11641 0.89012 0.0
C270 C 0.88562 0.13177 0.91386 0.0
C271 C 0.96922 0.09667 0.88426 0.0
C272 C 0.81563 0.20403 0.75105 0.0
C273 C 0.83217 0.18578 0.78609 0.0
C274 C 0.89902 0.17457 0.8 0.0
C275 C 0.92714 0.1125 0.87537 0.0
C276 C 0.90956 0.13367 0.86974 0.0
C277 C 0.85628 0.19202 0.81813 0.0
C278 C 0.87489 0.17241 0.84138 0.0
H279 H 0.92827 0.0502 0.8372 0.0
H280 H 0.89944 0.08445 0.84603 0.0
H281 H 0.93416 0.15749 0.77705 0.0
H282 H 0.85257 0.25433 0.78418 0.0
H283 H 0.88117 0.22262 0.84651 0.0
C284 C 0.72272 0.20204 0.28458 0.0
C285 C 0.71933 0.20726 0.39791 0.0
C286 C 0.70737 0.18506 0.23006 0.0
C287 C 0.64606 0.15515 0.25468 0.0
H288 H 0.6725 0.10795 0.04401 0.0
C289 C 0.58635 0.0763 0.07097 0.0
C290 C 0.58957 0.07094 0.95771 0.0
C291 C 0.60256 0.09233 0.12601 0.0
C292 C 0.66473 0.12117 0.10178 0.0
H293 H 0.69727 0.19835 0.54275 0.0
H294 H 0.67092 0.16893 0.44861 0.0
H295 H 0.69998 0.13745 0.1336 0.0
H296 H 0.61257 0.07819 0.81402 0.0
H297 H 0.64038 0.10613 0.90892 0.0
H298 H 0.61082 0.13904 0.22259 0.0
C299 C 0.68512 0.17813 0.40105 0.0
C300 C 0.68053 0.13812 0.15308 0.0
C301 C 0.70042 0.19495 0.45531 0.0
C302 C 0.6095 0.08179 0.90136 0.0
C303 C 0.62563 0.09776 0.95612 0.0
C304 C 0.63027 0.13825 0.20327 0.0
C305 C 0.68824 0.17303 0.28759 0.0
C306 C 0.67142 0.15531 0.23046 0.0
C307 C 0.62238 0.10336 0.0691 0.0
C308 C 0.63936 0.121 0.12607 0.0
H309 H 0.73708 0.21119 0.23784 0.0
H310 H 0.7102 0.1817 0.14238 0.0
H311 H 0.6383 0.16836 0.31248 0.0
H312 H 0.57124 0.06824 0.11698 0.0
H313 H 0.59963 0.09596 0.2134 0.0
C314 C 0.57422 0.95567 0.6563 0.0
C315 C 0.57766 0.97879 0.60576 0.0
C316 C 0.58864 0.9354 0.626 0.0
C317 C 0.6488 0.91916 0.50612 0.0
H318 H 0.62096 0.85328 0.50767 0.0
C319 C 0.70904 0.83078 0.45942 0.0
C320 C 0.70453 0.81306 0.54213 0.0
C321 C 0.69265 0.85053 0.44372 0.0
C322 C 0.62903 0.87155 0.50676 0.0
H323 H 0.59873 0.99852 0.4815 0.0
H324 H 0.62402 0.96291 0.42812 0.0
H325 H 0.59387 0.88904 0.52211 0.0
H326 H 0.6788 0.80157 0.66958 0.0
H327 H 0.65031 0.83558 0.64154 0.0
H328 H 0.68406 0.9015 0.49352 0.0
C329 C 0.61019 0.96062 0.492 0.0
C330 C 0.61351 0.89207 0.5153 0.0
C331 C 0.5956 0.98098 0.52211 0.0
C332 C 0.68285 0.81491 0.60525 0.0
C333 C 0.66641 0.83437 0.5887 0.0
C334 C 0.66436 0.89858 0.4972 0.0
C335 C 0.60697 0.93761 0.54422 0.0
C336 C 0.62323 0.91612 0.51852 0.0
C337 C 0.67128 0.85268 0.5092 0.0
C338 C 0.65469 0.87452 0.50075 0.0
H339 H 0.56059 0.95322 0.72099 0.0
H340 H 0.58588 0.91814 0.66941 0.0
H341 H 0.65695 0.93738 0.50905 0.0
H342 H 0.72567 0.82991 0.40989 0.0
H343 H 0.69684 0.86428 0.38139 0.0
C344 C 0.58348 0.57963 0.04455 0.0
C345 C 0.58593 0.57577 0.15934 0.0
C346 C 0.59961 0.59551 0.98817 0.0
C347 C 0.66078 0.62631 0.01534 0.0
H348 H 0.63558 0.66933 0.78535 0.0
C349 C 0.71913 0.70521 0.81949 0.0
C350 C 0.71705 0.70839 0.7041 0.0
C351 C 0.70338 0.68896 0.87605 0.0
C352 C 0.643 0.65729 0.84868 0.0
H353 H 0.60733 0.58575 0.30456 0.0
H354 H 0.63496 0.61346 0.20734 0.0
H355 H 0.60781 0.64084 0.87892 0.0
H356 H 0.69679 0.69675 0.558 0.0
H357 H 0.6697 0.66859 0.65583 0.0
H358 H 0.69596 0.64291 0.98534 0.0
C359 C 0.62093 0.60396 0.15998 0.0
C360 C 0.62705 0.64086 0.90223 0.0
C361 C 0.6049 0.58812 0.21605 0.0
C362 C 0.69894 0.69489 0.64691 0.0
C363 C 0.68322 0.6788 0.70322 0.0
C364 C 0.67672 0.6428 0.96197 0.0
C365 C 0.61857 0.60792 0.04524 0.0
C366 C 0.63569 0.62512 0.98637 0.0
C367 C 0.68512 0.67564 0.81857 0.0
C368 C 0.66807 0.65847 0.87771 0.0
H369 H 0.56912 0.57039 -0.00178 0.0
H370 H 0.59737 0.59785 0.89956 0.0
H371 H 0.66824 0.61424 0.07843 0.0
H372 H 0.73284 0.71533 0.86616 0.0
H373 H 0.70526 0.68713 0.96509 0.0
C374 C 0.69677 0.31915 0.55348 0.0
C375 C 0.71216 0.31876 0.64711 0.0
C376 C 0.67868 0.33725 0.54174 0.0
C377 C 0.66251 0.40035 0.63172 0.0
H378 H 0.60196 0.38505 0.47643 0.0
C379 C 0.58734 0.47331 0.50577 0.0
C380 C 0.58108 0.47195 0.39266 0.0
C381 C 0.60189 0.45482 0.55464 0.0
C382 C 0.61875 0.3896 0.52031 0.0
H383 H 0.72002 0.33684 0.80368 0.0
H384 H 0.68805 0.36846 0.78369 0.0
H385 H 0.62923 0.35169 0.53339 0.0
H386 H 0.5852 0.45007 0.24264 0.0
H387 H 0.60999 0.41801 0.32777 0.0
H388 H 0.65187 0.43844 0.61688 0.0
C389 C 0.69028 0.35482 0.71866 0.0
C390 C 0.63445 0.3705 0.55255 0.0
C391 C 0.70848 0.33659 0.73052 0.0
C392 C 0.58965 0.45179 0.32988 0.0
C393 C 0.60374 0.43327 0.3788 0.0
C394 C 0.64661 0.41952 0.60021 0.0
C395 C 0.6753 0.35551 0.62346 0.0
C396 C 0.65695 0.37564 0.60531 0.0
C397 C 0.60996 0.43446 0.49163 0.0
C398 C 0.62496 0.41434 0.54103 0.0
H399 H 0.69903 0.30577 0.48737 0.0
H400 H 0.66786 0.33736 0.46634 0.0
H401 H 0.67972 0.40503 0.67166 0.0
H402 H 0.58104 0.48863 0.55625 0.0
H403 H 0.60646 0.45618 0.64186 0.0
C404 C 0.82269 0.34896 0.53125 0.0
C405 C 0.82126 0.32607 0.47625 0.0
C406 C 0.84306 0.36432 0.51737 0.0
C407 C 0.89548 0.37775 0.33253 0.0
H408 H 0.92176 0.41051 0.59313 0.0
C409 C 0.98448 0.43517 0.30986 0.0
C410 C 0.985 0.45781 0.36711 0.0
C411 C 0.96553 0.41824 0.32762 0.0
C412 C 0.91452 0.40174 0.5193 0.0
H413 H 0.84006 0.30169 0.36131 0.0
H414 H 0.87581 0.3287 0.33654 0.0
H415 H 0.88677 0.38269 0.61172 0.0
H416 H 0.96628 0.48006 0.49069 0.0
H417 H 0.93291 0.45055 0.52122 0.0
H418 H 0.923 0.397 0.23979 0.0
C419 C 0.861 0.33471 0.39041 0.0
C420 C 0.89446 0.38574 0.52994 0.0
C421 C 0.84054 0.31921 0.40464 0.0
C422 C 0.9665 0.46273 0.44571 0.0
C423 C 0.94738 0.44578 0.46318 0.0
C424 C 0.91551 0.39382 0.32181 0.0
C425 C 0.86263 0.35732 0.44789 0.0
C426 C 0.88458 0.37364 0.43661 0.0
C427 C 0.94642 0.42349 0.40275 0.0
C428 C 0.92528 0.40609 0.41501 0.0
H429 H 0.80815 0.35499 0.58659 0.0
H430 H 0.84342 0.3818 0.56112 0.0
H431 H 0.88816 0.36903 0.25875 0.0
H432 H 0.99856 0.43064 0.24942 0.0
H433 H 0.96577 0.40106 0.28154 0.0
C434 C 0.81849 0.70121 0.36823 0.0
C435 C 0.82589 0.72605 0.37364 0.0
C436 C 0.83502 0.68284 0.33369 0.0
C437 C 0.90183 0.67084 0.32046 0.0
H438 H 0.88263 0.61313 0.15116 0.0
C439 C 0.97194 0.59385 0.2189 0.0
C440 C 0.96368 0.56953 0.23498 0.0
C441 C 0.95521 0.61357 0.21765 0.0
C442 C 0.88827 0.62907 0.19907 0.0
H443 H 0.85612 0.75115 0.34092 0.0
H444 H 0.88469 0.71926 0.27962 0.0
H445 H 0.85295 0.64636 0.18205 0.0
H446 H 0.93117 0.54685 0.25737 0.0
H447 H 0.90222 0.58107 0.25643 0.0
H448 H 0.93689 0.65343 0.34001 0.0
C449 C 0.8663 0.71387 0.30419 0.0
C450 C 0.87124 0.64812 0.21677 0.0
C451 C 0.84981 0.7322 0.33868 0.0
C452 C 0.93823 0.56532 0.24486 0.0
C453 C 0.92155 0.585 0.2437 0.0
C454 C 0.91882 0.65181 0.303 0.0
C455 C 0.85932 0.68888 0.30371 0.0
C456 C 0.87773 0.66917 0.2786 0.0
C457 C 0.92983 0.60945 0.23241 0.0
C458 C 0.91222 0.63053 0.24307 0.0
H459 H 0.80023 0.69579 0.39469 0.0
H460 H 0.82904 0.66378 0.33508 0.0
H461 H 0.90739 0.68654 0.37014 0.0
H462 H 0.99139 0.59777 0.21064 0.0
H463 H 0.96224 0.63211 0.20685 0.0
C464 C 0.46036 0.46698 0.17295 0.0
C465 C 0.48104 0.46067 0.23663 0.0
C466 C 0.44103 0.45009 0.15915 0.0
C467 C 0.41516 0.39329 0.29111 0.0
H468 H 0.37381 0.39222 0.02955 0.0
C469 C 0.33843 0.32005 0.21293 0.0
C470 C 0.31592 0.32925 0.17278 0.0
C471 C 0.359 0.33557 0.22205 0.0
C472 C 0.38514 0.3924 0.10344 0.0
H473 H 0.49846 0.43125 0.32953 0.0
H474 H 0.46558 0.40155 0.30126 0.0
H475 H 0.40938 0.41957 0.03551 0.0
H476 H 0.29734 0.36225 0.11386 0.0
H477 H 0.33308 0.389 0.1292 0.0
H478 H 0.391 0.36575 0.35784 0.0
C479 C 0.46358 0.41978 0.26568 0.0
C480 C 0.40552 0.40817 0.1071 0.0
C481 C 0.48262 0.43675 0.28094 0.0
C482 C 0.31435 0.35443 0.14486 0.0
C483 C 0.3349 0.36979 0.15275 0.0
C484 C 0.39496 0.37731 0.28677 0.0
C485 C 0.44214 0.42639 0.20742 0.0
C486 C 0.42078 0.40899 0.20131 0.0
C487 C 0.35756 0.3605 0.18996 0.0
C488 C 0.37958 0.37683 0.19332 0.0
H489 H 0.45853 0.48536 0.13865 0.0
H490 H 0.42481 0.45604 0.1145 0.0
H491 H 0.42603 0.39367 0.36625 0.0
H492 H 0.34032 0.30077 0.23493 0.0
H493 H 0.37624 0.32787 0.25094 0.0
C494 C 0.32952 0.71773 0.24659 0.0
C495 C 0.3094 0.70688 0.19236 0.0
C496 C 0.34876 0.70301 0.28715 0.0
C497 C 0.37524 0.63997 0.24441 0.0
H498 H 0.41892 0.65942 0.48298 0.0
C499 C 0.45543 0.57794 0.38153 0.0
C500 C 0.47859 0.58946 0.37621 0.0
C501 C 0.43381 0.59198 0.37904 0.0
C502 C 0.4068 0.65378 0.41636 0.0
H503 H 0.29259 0.67223 0.14552 0.0
H504 H 0.32504 0.64651 0.2224 0.0
H505 H 0.38212 0.68402 0.44441 0.0
H506 H 0.49712 0.62488 0.37194 0.0
H507 H 0.45927 0.6494 0.37008 0.0
H508 H 0.39975 0.60958 0.21768 0.0
C509 C 0.32687 0.66635 0.22905 0.0
C510 C 0.38576 0.66794 0.39356 0.0
C511 C 0.30803 0.68107 0.1861 0.0
C512 C 0.4796 0.61542 0.37582 0.0
C513 C 0.45793 0.62948 0.37511 0.0
C514 C 0.39592 0.62564 0.26858 0.0
C515 C 0.34803 0.67708 0.27628 0.0
C516 C 0.36975 0.66137 0.30643 0.0
C517 C 0.43484 0.61787 0.37308 0.0
C518 C 0.41205 0.63247 0.35402 0.0
H519 H 0.33113 0.73763 0.25148 0.0
H520 H 0.3647 0.71211 0.3219 0.0
H521 H 0.36398 0.63453 0.17456 0.0
H522 H 0.45394 0.558 0.38179 0.0
H523 H 0.41624 0.58256 0.37848 0.0
C524 C 0.20969 0.71275 0.80493 0.0
C525 C 0.21429 0.7093 0.9186 0.0
C526 C 0.19374 0.69685 0.74758 0.0
C527 C 0.14355 0.6511 0.79618 0.0
H528 H 0.15713 0.63185 0.49246 0.0
C529 C 0.0866 0.5761 0.565 0.0
C530 C 0.0803 0.58129 0.45434 0.0
C531 C 0.10325 0.59124 0.62247 0.0
C532 C 0.15295 0.63719 0.57704 0.0
H533 H 0.20611 0.686 0.06024 0.0
H534 H 0.17897 0.65823 0.96056 0.0
H535 H 0.1855 0.65929 0.58901 0.0
H536 H 0.0867 0.60655 0.31762 0.0
H537 H 0.11546 0.63272 0.41731 0.0
H538 H 0.11106 0.62887 0.78416 0.0
C539 C 0.1871 0.6735 0.91576 0.0
C540 C 0.16921 0.65302 0.6324 0.0
C541 C 0.20287 0.6894 0.97294 0.0
C542 C 0.0911 0.6019 0.40268 0.0
C543 C 0.10778 0.61688 0.45967 0.0
C544 C 0.12736 0.63518 0.74097 0.0
C545 C 0.18211 0.67706 0.80247 0.0
C546 C 0.16474 0.66025 0.74277 0.0
C547 C 0.11411 0.61179 0.57029 0.0
C548 C 0.13178 0.62809 0.63052 0.0
H549 H 0.21811 0.72793 0.7606 0.0
H550 H 0.19018 0.70037 0.66067 0.0
H551 H 0.13918 0.65656 0.88039 0.0
H552 H 0.07867 0.56037 0.60726 0.0
H553 H 0.10786 0.58666 0.70738 0.0
C554 C 0.21796 0.33774 0.96599 0.0
C555 C 0.20649 0.31536 -0.00569 0.0
C556 C 0.20432 0.35968 0.96101 0.0
C557 C 0.14165 0.38584 0.94171 0.0
H558 H 0.16709 0.43758 0.13179 0.0
C559 C 0.08022 0.46492 0.10773 0.0
C560 C 0.09096 0.48763 0.13658 0.0
C561 C 0.09477 0.44533 0.06944 0.0
C562 C 0.15985 0.4237 0.07608 0.0
H563 H 0.17145 0.29821 0.03213 0.0
H564 H 0.14761 0.33636 0.02077 0.0
H565 H 0.19166 0.40083 0.09784 0.0
H566 H 0.12518 0.50808 0.14054 0.0
H567 H 0.15038 0.4744 0.06897 0.0
H568 H 0.10986 0.40864 0.91928 0.0
C569 C 0.16717 0.33699 0.00354 0.0
C570 C 0.17399 0.40251 0.05704 0.0
C571 C 0.18085 0.31515 0.01039 0.0
C572 C 0.11636 0.49074 0.12004 0.0
C573 C 0.13086 0.47128 0.07996 0.0
C574 C 0.12763 0.40722 0.95929 0.0
C575 C 0.17887 0.35961 0.98209 0.0
C576 C 0.16487 0.38315 0.99137 0.0
C577 C 0.12042 0.44802 0.05726 0.0
C578 C 0.1363 0.42629 0.02865 0.0
H579 H 0.23767 0.33858 0.9532 0.0
H580 H 0.21379 0.37682 0.9434 0.0
H581 H 0.13424 0.37129 0.8899 0.0
H582 H 0.06073 0.46182 0.12009 0.0
H583 H 0.08595 0.42774 0.05448 0.0
loop_
_geom_bond_atom_site_label_1
_geom_bond_atom_site_label_2
_geom_bond_distance
_geom_bond_site_symmetry_2
_ccdc_geom_bond_type
Mg0 O7 2.141 1_455 S
Mg0 O8 2.048 . S
Mg0 O9 2.048 1_545 S
Mg0 O12 2.141 1_445 S
C1 O2 1.313 . S
C1 O8 1.195 . S
O2 C1 1.313 . S
C3 O4 1.245 . S
C3 O12 1.289 . S
O4 C3 1.245 . S
C5 O6 1.245 . S
C5 O7 1.289 . S
O6 C5 1.245 . S
O7 Mg0 2.141 1_655 S
O7 C5 1.289 . S
O8 Mg0 2.048 . S
O8 C1 1.195 . S
O9 Mg0 2.048 1_565 S
O9 C10 1.195 . S
C10 O9 1.195 . S
C10 O11 1.313 . S
O11 C10 1.313 . S
O12 Mg0 2.141 1_665 S
O12 C3 1.289 . S
Mg13 O20 2.141 . S
Mg13 O21 2.048 . S
Mg13 O22 2.048 . S
Mg13 O25 2.141 . S
C14 O15 1.313 . S
C14 O21 1.195 . S
O15 C14 1.313 . S
C16 O17 1.245 . S
C16 O25 1.289 . S
O17 C16 1.245 . S
C18 O19 1.245 . S
C18 O20 1.289 . S
O19 C18 1.245 . S
O20 Mg13 2.141 . S
O20 C18 1.289 . S
O21 Mg13 2.048 . S
O21 C14 1.195 . S
O22 Mg13 2.048 . S
O22 C23 1.195 . S
C23 O22 1.195 . S
C23 O24 1.313 . S
O24 C23 1.313 . S
O25 Mg13 2.141 . S
O25 C16 1.289 . S
Mg26 O33 2.141 . S
Mg26 O34 2.048 . S
Mg26 O35 2.048 1_565 S
Mg26 O38 2.141 1_565 S
C27 O28 1.313 1_554 S
C27 O34 1.195 . S
O28 C27 1.313 1_556 S
C29 O30 1.245 . S
C29 O38 1.289 . S
O30 C29 1.245 . S
C31 O32 1.245 1_554 S
C31 O33 1.289 . S
O32 C31 1.245 1_556 S
O33 Mg26 2.141 . S
O33 C31 1.289 . S
O34 Mg26 2.048 . S
O34 C27 1.195 . S
O35 Mg26 2.048 1_545 S
O35 C36 1.195 . S
C36 O35 1.195 . S
C36 O37 1.313 . S
O37 C36 1.313 . S
O38 Mg26 2.141 1_545 S
O38 C29 1.289 . S
Mg39 O46 2.141 . S
Mg39 O47 2.048 . S
Mg39 O48 2.048 . S
Mg39 O51 2.141 . S
C40 O41 1.313 . S
C40 O47 1.195 . S
O41 C40 1.313 . S
C42 O43 1.245 . S
C42 O51 1.289 . S
O43 C42 1.245 . S
C44 O45 1.245 . S
C44 O46 1.289 . S
O45 C44 1.245 . S
O46 Mg39 2.141 . S
O46 C44 1.289 . S
O47 Mg39 2.048 . S
O47 C40 1.195 . S
O48 Mg39 2.048 . S
O48 C49 1.195 . S
C49 O48 1.195 . S
C49 O50 1.313 . S
O50 C49 1.313 . S
O51 Mg39 2.141 . S
O51 C42 1.289 . S
Mg52 O59 2.141 . S
Mg52 O60 2.048 . S
Mg52 O61 2.048 . S
Mg52 O64 2.141 . S
C53 O54 1.313 . S
C53 O60 1.195 . S
O54 C53 1.313 . S
C55 O56 1.245 . S
C55 O64 1.289 . S
O56 C55 1.245 . S
C57 O58 1.245 . S
C57 O59 1.289 . S
O58 C57 1.245 . S
O59 Mg52 2.141 . S
O59 C57 1.289 . S
O60 Mg52 2.048 . S
O60 C53 1.195 . S
O61 Mg52 2.048 . S
O61 C62 1.195 . S
C62 O61 1.195 . S
C62 O63 1.313 . S
O63 C62 1.313 . S
O64 Mg52 2.141 . S
O64 C55 1.289 . S
Mg65 O72 2.141 . S
Mg65 O73 2.048 . S
Mg65 O74 2.048 . S
Mg65 O77 2.141 . S
C66 O67 1.313 . S
C66 O73 1.195 . S
O67 C66 1.313 . S
C68 O69 1.245 . S
C68 O77 1.289 . S
O69 C68 1.245 . S
C70 O71 1.245 . S
C70 O72 1.289 . S
O71 C70 1.245 . S
O72 Mg65 2.141 . S
O72 C70 1.289 . S
O73 Mg65 2.048 . S
O73 C66 1.195 . S
O74 Mg65 2.048 . S
O74 C75 1.195 . S
C75 O74 1.195 . S
C75 O76 1.313 . S
O76 C75 1.313 . S
O77 Mg65 2.141 . S
O77 C68 1.289 . S
Mg78 O85 2.141 . S
Mg78 O86 2.048 . S
Mg78 O87 2.048 . S
Mg78 O90 2.141 . S
C79 O80 1.313 1_554 S
C79 O86 1.195 . S
O80 C79 1.313 1_556 S
C81 O82 1.245 . S
C81 O90 1.289 1_556 S
O82 C81 1.245 . S
C83 O84 1.245 1_554 S
C83 O85 1.289 . S
O84 C83 1.245 1_556 S
O85 Mg78 2.141 . S
O85 C83 1.289 . S
O86 Mg78 2.048 . S
O86 C79 1.195 . S
O87 Mg78 2.048 . S
O87 C88 1.195 1_554 S
C88 O87 1.195 1_556 S
C88 O89 1.313 . S
O89 C88 1.313 . S
O90 Mg78 2.141 . S
O90 C81 1.289 1_554 S
Mg91 O98 2.141 . S
Mg91 O99 2.048 1_455 S
Mg91 O100 2.048 1_455 S
Mg91 O103 2.141 . S
C92 O93 1.313 . S
C92 O99 1.195 . S
O93 C92 1.313 . S
C94 O95 1.245 . S
C94 O103 1.289 . S
O95 C94 1.245 . S
C96 O97 1.245 . S
C96 O98 1.289 . S
O97 C96 1.245 . S
O98 Mg91 2.141 . S
O98 C96 1.289 . S
O99 Mg91 2.048 1_655 S
O99 C92 1.195 . S
O100 Mg91 2.048 1_655 S
O100 C101 1.195 . S
C101 O100 1.195 . S
C101 O102 1.313 . S
O102 C101 1.313 . S
O103 Mg91 2.141 . S
O103 C94 1.289 . S
C104 C105 1.349 . S
C104 C106 1.327 . S
C104 H129 0.950 . S
C105 C104 1.349 . S
C105 C121 1.349 . S
C106 C104 1.327 . S
C106 C125 1.429 . S
C106 H130 0.950 . S
C107 C124 1.574 . S
C107 C126 1.368 . S
C107 H131 0.949 . S
H108 C112 0.949 . S
C109 C110 1.349 . S
C109 C111 1.327 . S
C109 H132 0.950 . S
C110 C109 1.349 . S
C110 C122 1.349 . S
C111 C109 1.327 . S
C111 C127 1.429 . S
C111 H133 0.950 . S
C112 H108 0.949 . S
C112 C120 1.574 . S
C112 C128 1.368 . S
H113 C121 0.950 . S
H114 C119 0.950 . S
H115 C120 0.949 . S
H116 C122 0.950 . S
H117 C123 0.950 . S
H118 C124 0.949 . S
C119 H114 0.950 . S
C119 C121 1.327 . S
C119 C125 1.429 . S
C120 C112 1.574 . S
C120 H115 0.949 . S
C120 C126 1.368 . S
C121 C105 1.349 . S
C121 H113 0.950 . S
C121 C119 1.327 . S
C122 C110 1.349 . S
C122 H116 0.950 . S
C122 C123 1.327 . S
C123 H117 0.950 . S
C123 C122 1.327 . S
C123 C127 1.429 . S
C124 C107 1.574 . S
C124 H118 0.949 . S
C124 C128 1.368 . S
C125 C106 1.429 . S
C125 C119 1.429 . S
C125 C126 1.523 . S
C126 C107 1.368 . S
C126 C120 1.368 . S
C126 C125 1.523 . S
C127 C111 1.429 . S
C127 C123 1.429 . S
C127 C128 1.523 . S
C128 C112 1.368 . S
C128 C124 1.368 . S
C128 C127 1.523 . S
H129 C104 0.950 . S
H130 C106 0.950 . S
H131 C107 0.949 . S
H132 C109 0.950 . S
H133 C111 0.950 . S
C134 C135 1.349 . S
C134 C136 1.327 . S
C134 H159 0.950 . S
C135 C134 1.349 . S
C135 C151 1.349 . S
C136 C134 1.327 . S
C136 C155 1.429 . S
C136 H160 0.950 . S
C137 C154 1.574 . S
C137 C156 1.368 . S
C137 H161 0.949 . S
H138 C142 0.949 . S
C139 C140 1.349 . S
C139 C141 1.327 . S
C139 H162 0.950 . S
C140 C139 1.349 . S
C140 C152 1.349 . S
C141 C139 1.327 . S
C141 C157 1.429 . S
C141 H163 0.950 . S
C142 H138 0.949 . S
C142 C150 1.574 . S
C142 C158 1.368 . S
H143 C151 0.950 . S
H144 C149 0.950 . S
H145 C150 0.949 . S
H146 C152 0.950 . S
H147 C153 0.950 . S
H148 C154 0.949 . S
C149 H144 0.950 . S
C149 C151 1.327 . S
C149 C155 1.429 . S
C150 C142 1.574 . S
C150 H145 0.949 . S
C150 C156 1.368 . S
C151 C135 1.349 . S
C151 H143 0.950 . S
C151 C149 1.327 . S
C152 C140 1.349 . S
C152 H146 0.950 . S
C152 C153 1.327 . S
C153 H147 0.950 . S
C153 C152 1.327 . S
C153 C157 1.429 . S
C154 C137 1.574 . S
C154 H148 0.949 . S
C154 C158 1.368 . S
C155 C136 1.429 . S
C155 C149 1.429 . S
C155 C156 1.523 . S
C156 C137 1.368 . S
C156 C150 1.368 . S
C156 C155 1.523 . S
C157 C141 1.429 . S
C157 C153 1.429 . S
C157 C158 1.523 . S
C158 C142 1.368 . S
C158 C154 1.368 . S
C158 C157 1.523 . S
H159 C134 0.950 . S
H160 C136 0.950 . S
H161 C137 0.949 . S
H162 C139 0.950 . S
H163 C141 0.950 . S
C164 C165 1.349 . S
C164 C166 1.327 . S
C164 H189 0.950 . S
C165 C164 1.349 . S
C165 C181 1.349 1_554 S
C166 C164 1.327 . S
C166 C185 1.429 . S
C166 H190 0.950 . S
C167 C184 1.574 . S
C167 C186 1.368 . S
C167 H191 0.949 . S
H168 C172 0.949 . S
C169 C170 1.349 . S
C169 C171 1.327 . S
C169 H192 0.950 . S
C170 C169 1.349 . S
C170 C182 1.349 . S
C171 C169 1.327 . S
C171 C187 1.429 . S
C171 H193 0.950 . S
C172 H168 0.949 . S
C172 C180 1.574 . S
C172 C188 1.368 1_554 S
H173 C181 0.950 . S
H174 C179 0.950 . S
H175 C180 0.949 . S
H176 C182 0.950 1_554 S
H177 C183 0.950 1_554 S
H178 C184 0.949 . S
C179 H174 0.950 . S
C179 C181 1.327 . S
C179 C185 1.429 1_556 S
C180 C172 1.574 . S
C180 H175 0.949 . S
C180 C186 1.368 1_554 S
C181 C165 1.349 1_556 S
C181 H173 0.950 . S
C181 C179 1.327 . S
C182 C170 1.349 . S
C182 H176 0.950 1_556 S
C182 C183 1.327 . S
C183 H177 0.950 1_556 S
C183 C182 1.327 . S
C183 C187 1.429 . S
C184 C167 1.574 . S
C184 H178 0.949 . S
C184 C188 1.368 . S
C185 C166 1.429 . S
C185 C179 1.429 1_554 S
C185 C186 1.523 1_554 S
C186 C167 1.368 . S
C186 C180 1.368 1_556 S
C186 C185 1.523 1_556 S
C187 C171 1.429 . S
C187 C183 1.429 . S
C187 C188 1.523 . S
C188 C172 1.368 1_556 S
C188 C184 1.368 . S
C188 C187 1.523 . S
H189 C164 0.950 . S
H190 C166 0.950 . S
H191 C167 0.949 . S
H192 C169 0.950 . S
H193 C171 0.950 . S
C194 C195 1.349 . S
C194 C196 1.327 . S
C194 H219 0.950 . S
C195 C194 1.349 . S
C195 C211 1.349 . S
C196 C194 1.327 . S
C196 C215 1.429 . S
C196 H220 0.950 . S
C197 C214 1.574 . S
C197 C216 1.368 . S
C197 H221 0.949 . S
H198 C202 0.949 . S
C199 C200 1.349 . S
C199 C201 1.327 . S
C199 H222 0.950 . S
C200 C199 1.349 . S
C200 C212 1.349 . S
C201 C199 1.327 . S
C201 C217 1.429 . S
C201 H223 0.950 . S
C202 H198 0.949 . S
C202 C210 1.574 . S
C202 C218 1.368 . S
H203 C211 0.950 . S
H204 C209 0.950 . S
H205 C210 0.949 . S
H206 C212 0.950 . S
H207 C213 0.950 . S
H208 C214 0.949 . S
C209 H204 0.950 . S
C209 C211 1.327 . S
C209 C215 1.429 . S
C210 C202 1.574 . S
C210 H205 0.949 . S
C210 C216 1.368 . S
C211 C195 1.349 . S
C211 H203 0.950 . S
C211 C209 1.327 . S
C212 C200 1.349 . S
C212 H206 0.950 . S
C212 C213 1.327 . S
C213 H207 0.950 . S
C213 C212 1.327 . S
C213 C217 1.429 . S
C214 C197 1.574 . S
C214 H208 0.949 . S
C214 C218 1.368 . S
C215 C196 1.429 . S
C215 C209 1.429 . S
C215 C216 1.523 . S
C216 C197 1.368 . S
C216 C210 1.368 . S
C216 C215 1.523 . S
C217 C201 1.429 . S
C217 C213 1.429 . S
C217 C218 1.523 . S
C218 C202 1.368 . S
C218 C214 1.368 . S
C218 C217 1.523 . S
H219 C194 0.950 . S
H220 C196 0.950 . S
H221 C197 0.949 . S
H222 C199 0.950 . S
H223 C201 0.950 . S
C224 C225 1.349 . S
C224 C226 1.327 . S
C224 H249 0.950 . S
C225 C224 1.349 . S
C225 C241 1.349 . S
C226 C224 1.327 . S
C226 C245 1.429 . S
C226 H250 0.950 . S
C227 C244 1.574 . S
C227 C246 1.368 . S
C227 H251 0.949 . S
H228 C232 0.949 . S
C229 C230 1.349 . S
C229 C231 1.327 . S
C229 H252 0.950 . S
C230 C229 1.349 . S
C230 C242 1.349 . S
C231 C229 1.327 . S
C231 C247 1.429 . S
C231 H253 0.950 . S
C232 H228 0.949 . S
C232 C240 1.574 . S
C232 C248 1.368 . S
H233 C241 0.950 . S
H234 C239 0.950 . S
H235 C240 0.949 . S
H236 C242 0.950 . S
H237 C243 0.950 . S
H238 C244 0.949 . S
C239 H234 0.950 . S
C239 C241 1.327 . S
C239 C245 1.429 . S
C240 C232 1.574 . S
C240 H235 0.949 . S
C240 C246 1.368 . S
C241 C225 1.349 . S
C241 H233 0.950 . S
C241 C239 1.327 . S
C242 C230 1.349 . S
C242 H236 0.950 . S
C242 C243 1.327 . S
C243 H237 0.950 . S
C243 C242 1.327 . S
C243 C247 1.429 . S
C244 C227 1.574 . S
C244 H238 0.949 . S
C244 C248 1.368 . S
C245 C226 1.429 . S
C245 C239 1.429 . S
C245 C246 1.523 . S
C246 C227 1.368 . S
C246 C240 1.368 . S
C246 C245 1.523 . S
C247 C231 1.429 . S
C247 C243 1.429 . S
C247 C248 1.523 . S
C248 C232 1.368 . S
C248 C244 1.368 . S
C248 C247 1.523 . S
H249 C224 0.950 . S
H250 C226 0.950 . S
H251 C227 0.949 . S
H252 C229 0.950 . S
H253 C231 0.950 . S
C254 C255 1.349 . S
C254 C256 1.327 . S
C254 H279 0.950 . S
C255 C254 1.349 . S
C255 C271 1.349 . S
C256 C254 1.327 . S
C256 C275 1.429 . S
C256 H280 0.950 . S
C257 C274 1.574 . S
C257 C276 1.368 . S
C257 H281 0.949 . S
H258 C262 0.949 . S
C259 C260 1.349 . S
C259 C261 1.327 . S
C259 H282 0.950 . S
C260 C259 1.349 . S
C260 C272 1.349 . S
C261 C259 1.327 . S
C261 C277 1.429 . S
C261 H283 0.950 . S
C262 H258 0.949 . S
C262 C270 1.574 . S
C262 C278 1.368 . S
H263 C271 0.950 . S
H264 C269 0.950 . S
H265 C270 0.949 . S
H266 C272 0.950 . S
H267 C273 0.950 . S
H268 C274 0.949 . S
C269 H264 0.950 . S
C269 C271 1.327 . S
C269 C275 1.429 . S
C270 C262 1.574 . S
C270 H265 0.949 . S
C270 C276 1.368 . S
C271 C255 1.349 . S
C271 H263 0.950 . S
C271 C269 1.327 . S
C272 C260 1.349 . S
C272 H266 0.950 . S
C272 C273 1.327 . S
C273 H267 0.950 . S
C273 C272 1.327 . S
C273 C277 1.429 . S
C274 C257 1.574 . S
C274 H268 0.949 . S
C274 C278 1.368 . S
C275 C256 1.429 . S
C275 C269 1.429 . S
C275 C276 1.523 . S
C276 C257 1.368 . S
C276 C270 1.368 . S
C276 C275 1.523 . S
C277 C261 1.429 . S
C277 C273 1.429 . S
C277 C278 1.523 . S
C278 C262 1.368 . S
C278 C274 1.368 . S
C278 C277 1.523 . S
H279 C254 0.950 . S
H280 C256 0.950 . S
H281 C257 0.949 . S
H282 C259 0.950 . S
H283 C261 0.950 . S
C284 C285 1.349 . S
C284 C286 1.327 . S
C284 H309 0.950 . S
C285 C284 1.349 . S
C285 C301 1.349 . S
C286 C284 1.327 . S
C286 C305 1.429 . S
C286 H310 0.950 . S
C287 C304 1.574 . S
C287 C306 1.368 . S
C287 H311 0.949 . S
H288 C292 0.949 . S
C289 C290 1.349 . S
C289 C291 1.327 . S
C289 H312 0.950 . S
C290 C289 1.349 . S
C290 C302 1.349 . S
C291 C289 1.327 . S
C291 C307 1.429 . S
C291 H313 0.950 . S
C292 H288 0.949 . S
C292 C300 1.574 . S
C292 C308 1.368 . S
H293 C301 0.950 . S
H294 C299 0.950 . S
H295 C300 0.949 . S
H296 C302 0.950 . S
H297 C303 0.950 . S
H298 C304 0.949 . S
C299 H294 0.950 . S
C299 C301 1.327 . S
C299 C305 1.429 . S
C300 C292 1.574 . S
C300 H295 0.949 . S
C300 C306 1.368 . S
C301 C285 1.349 . S
C301 H293 0.950 . S
C301 C299 1.327 . S
C302 C290 1.349 . S
C302 H296 0.950 . S
C302 C303 1.327 . S
C303 H297 0.950 . S
C303 C302 1.327 . S
C303 C307 1.429 . S
C304 C287 1.574 . S
C304 H298 0.949 . S
C304 C308 1.368 . S
C305 C286 1.429 . S
C305 C299 1.429 . S
C305 C306 1.523 . S
C306 C287 1.368 . S
C306 C300 1.368 . S
C306 C305 1.523 . S
C307 C291 1.429 . S
C307 C303 1.429 . S
C307 C308 1.523 . S
C308 C292 1.368 . S
C308 C304 1.368 . S
C308 C307 1.523 . S
H309 C284 0.950 . S
H310 C286 0.950 . S
H311 C287 0.949 . S
H312 C289 0.950 . S
H313 C291 0.950 . S
C314 C315 1.349 . S
C314 C316 1.327 . S
C314 H339 0.950 . S
C315 C314 1.349 . S
C315 C331 1.349 1_554 S
C316 C314 1.327 . S
C316 C335 1.429 . S
C316 H340 0.950 . S
C317 C334 1.574 . S
C317 C336 1.368 . S
C317 H341 0.949 . S
H318 C322 0.949 . S
C319 C320 1.349 . S
C319 C321 1.327 . S
C319 H342 0.950 . S
C320 C319 1.349 . S
C320 C332 1.349 . S
C321 C319 1.327 . S
C321 C337 1.429 . S
C321 H343 0.950 . S
C322 H318 0.949 . S
C322 C330 1.574 . S
C322 C338 1.368 1_554 S
H323 C331 0.950 . S
H324 C329 0.950 . S
H325 C330 0.949 . S
H326 C332 0.950 1_554 S
H327 C333 0.950 1_554 S
H328 C334 0.949 . S
C329 H324 0.950 . S
C329 C331 1.327 . S
C329 C335 1.429 1_556 S
C330 C322 1.574 . S
C330 H325 0.949 . S
C330 C336 1.368 1_554 S
C331 C315 1.349 1_556 S
C331 H323 0.950 . S
C331 C329 1.327 . S
C332 C320 1.349 . S
C332 H326 0.950 1_556 S
C332 C333 1.327 . S
C333 H327 0.950 1_556 S
C333 C332 1.327 . S
C333 C337 1.429 . S
C334 C317 1.574 . S
C334 H328 0.949 . S
C334 C338 1.368 . S
C335 C316 1.429 . S
C335 C329 1.429 1_554 S
C335 C336 1.523 1_554 S
C336 C317 1.368 . S
C336 C330 1.368 1_556 S
C336 C335 1.523 1_556 S
C337 C321 1.429 . S
C337 C333 1.429 . S
C337 C338 1.523 . S
C338 C322 1.368 1_556 S
C338 C334 1.368 . S
C338 C337 1.523 . S
H339 C314 0.950 . S
H340 C316 0.950 . S
H341 C317 0.949 . S
H342 C319 0.950 . S
H343 C321 0.950 . S
C344 C345 1.349 1_554 S
C344 C346 1.327 . S
C344 H369 0.950 . S
C345 C344 1.349 1_556 S
C345 C361 1.349 . S
C346 C344 1.327 . S
C346 C365 1.429 1_554 S
C346 H370 0.950 . S
C347 C364 1.574 . S
C347 C366 1.368 . S
C347 H371 0.949 . S
H348 C352 0.949 1_554 S
C349 C350 1.349 . S
C349 C351 1.327 . S
C349 H372 0.950 . S
C350 C349 1.349 . S
C350 C362 1.349 . S
C351 C349 1.327 . S
C351 C367 1.429 . S
C351 H373 0.950 . S
C352 H348 0.949 1_556 S
C352 C360 1.574 . S
C352 C368 1.368 . S
H353 C361 0.950 . S
H354 C359 0.950 . S
H355 C360 0.949 1_554 S
H356 C362 0.950 . S
H357 C363 0.949 1_554 S
H358 C364 0.949 . S
C359 H354 0.950 . S
C359 C361 1.327 . S
C359 C365 1.429 . S
C360 C352 1.574 . S
C360 H355 0.949 1_556 S
C360 C366 1.368 . S
C361 C345 1.349 . S
C361 H353 0.950 . S
C361 C359 1.327 . S
C362 C350 1.349 . S
C362 H356 0.950 . S
C362 C363 1.327 . S
C363 H357 0.949 1_556 S
C363 C362 1.327 . S
C363 C367 1.429 . S
C364 C347 1.574 . S
C364 H358 0.949 . S
C364 C368 1.368 . S
C365 C346 1.429 1_556 S
C365 C359 1.429 . S
C365 C366 1.523 . S
C366 C347 1.368 . S
C366 C360 1.368 . S
C366 C365 1.523 . S
C367 C351 1.429 . S
C367 C363 1.429 . S
C367 C368 1.523 . S
C368 C352 1.368 . S
C368 C364 1.368 . S
C368 C367 1.523 . S
H369 C344 0.950 . S
H370 C346 0.950 . S
H371 C347 0.949 . S
H372 C349 0.950 . S
H373 C351 0.950 . S
C374 C375 1.349 . S
C374 C376 1.327 . S
C374 H399 0.950 . S
C375 C374 1.349 . S
C375 C391 1.349 . S
C376 C374 1.327 . S
C376 C395 1.429 . S
C376 H400 0.950 . S
C377 C394 1.574 . S
C377 C396 1.368 . S
C377 H401 0.949 . S
H378 C382 0.949 . S
C379 C380 1.349 . S
C379 C381 1.327 . S
C379 H402 0.950 . S
C380 C379 1.349 . S
C380 C392 1.349 . S
C381 C379 1.327 . S
C381 C397 1.429 . S
C381 H403 0.950 . S
C382 H378 0.949 . S
C382 C390 1.574 . S
C382 C398 1.368 . S
H383 C391 0.950 . S
H384 C389 0.950 . S
H385 C390 0.949 . S
H386 C392 0.950 1_556 S
H387 C393 0.950 1_556 S
H388 C394 0.949 . S
C389 H384 0.950 . S
C389 C391 1.327 . S
C389 C395 1.429 . S
C390 C382 1.574 . S
C390 H385 0.949 . S
C390 C396 1.368 . S
C391 C375 1.349 . S
C391 H383 0.950 . S
C391 C389 1.327 . S
C392 C380 1.349 . S
C392 H386 0.950 1_554 S
C392 C393 1.327 . S
C393 H387 0.950 1_554 S
C393 C392 1.327 . S
C393 C397 1.429 . S
C394 C377 1.574 . S
C394 H388 0.949 . S
C394 C398 1.368 . S
C395 C376 1.429 . S
C395 C389 1.429 . S
C395 C396 1.523 . S
C396 C377 1.368 . S
C396 C390 1.368 . S
C396 C395 1.523 . S
C397 C381 1.429 . S
C397 C393 1.429 . S
C397 C398 1.523 . S
C398 C382 1.368 . S
C398 C394 1.368 . S
C398 C397 1.523 . S
H399 C374 0.950 . S
H400 C376 0.950 . S
H401 C377 0.949 . S
H402 C379 0.950 . S
H403 C381 0.950 . S
C404 C405 1.349 . S
C404 C406 1.327 . S
C404 H429 0.950 . S
C405 C404 1.349 . S
C405 C421 1.349 . S
C406 C404 1.327 . S
C406 C425 1.429 . S
C406 H430 0.950 . S
C407 C424 1.574 . S
C407 C426 1.368 . S
C407 H431 0.949 . S
H408 C412 0.949 . S
C409 C410 1.349 . S
C409 C411 1.327 . S
C409 H432 0.950 . S
C410 C409 1.349 . S
C410 C422 1.349 . S
C411 C409 1.327 . S
C411 C427 1.429 . S
C411 H433 0.950 . S
C412 H408 0.949 . S
C412 C420 1.574 . S
C412 C428 1.368 . S
H413 C421 0.950 . S
H414 C419 0.950 . S
H415 C420 0.949 . S
H416 C422 0.950 . S
H417 C423 0.950 . S
H418 C424 0.949 . S
C419 H414 0.950 . S
C419 C421 1.327 . S
C419 C425 1.429 . S
C420 C412 1.574 . S
C420 H415 0.949 . S
C420 C426 1.368 . S
C421 C405 1.349 . S
C421 H413 0.950 . S
C421 C419 1.327 . S
C422 C410 1.349 . S
C422 H416 0.950 . S
C422 C423 1.327 . S
C423 H417 0.950 . S
C423 C422 1.327 . S
C423 C427 1.429 . S
C424 C407 1.574 . S
C424 H418 0.949 . S
C424 C428 1.368 . S
C425 C406 1.429 . S
C425 C419 1.429 . S
C425 C426 1.523 . S
C426 C407 1.368 . S
C426 C420 1.368 . S
C426 C425 1.523 . S
C427 C411 1.429 . S
C427 C423 1.429 . S
C427 C428 1.523 . S
C428 C412 1.368 . S
C428 C424 1.368 . S
C428 C427 1.523 . S
H429 C404 0.950 . S
H430 C406 0.950 . S
H431 C407 0.949 . S
H432 C409 0.950 . S
H433 C411 0.950 . S
C434 C435 1.349 . S
C434 C436 1.327 . S
C434 H459 0.950 . S
C435 C434 1.349 . S
C435 C451 1.349 . S
C436 C434 1.327 . S
C436 C455 1.429 . S
C436 H460 0.950 . S
C437 C454 1.574 . S
C437 C456 1.368 . S
C437 H461 0.949 . S
H438 C442 0.949 . S
C439 C440 1.349 . S
C439 C441 1.327 . S
C439 H462 0.950 . S
C440 C439 1.349 . S
C440 C452 1.349 . S
C441 C439 1.327 . S
C441 C457 1.429 . S
C441 H463 0.950 . S
C442 H438 0.949 . S
C442 C450 1.574 . S
C442 C458 1.368 . S
H443 C451 0.950 . S
H444 C449 0.950 . S
H445 C450 0.949 . S
H446 C452 0.950 . S
H447 C453 0.950 . S
H448 C454 0.949 . S
C449 H444 0.950 . S
C449 C451 1.327 . S
C449 C455 1.429 . S
C450 C442 1.574 . S
C450 H445 0.949 . S
C450 C456 1.368 . S
C451 C435 1.349 . S
C451 H443 0.950 . S
C451 C449 1.327 . S
C452 C440 1.349 . S
C452 H446 0.950 . S
C452 C453 1.327 . S
C453 H447 0.950 . S
C453 C452 1.327 . S
C453 C457 1.429 . S
C454 C437 1.574 . S
C454 H448 0.949 . S
C454 C458 1.368 . S
C455 C436 1.429 . S
C455 C449 1.429 . S
C455 C456 1.523 . S
C456 C437 1.368 . S
C456 C450 1.368 . S
C456 C455 1.523 . S
C457 C441 1.429 . S
C457 C453 1.429 . S
C457 C458 1.523 . S
C458 C442 1.368 . S
C458 C454 1.368 . S
C458 C457 1.523 . S
H459 C434 0.950 . S
H460 C436 0.950 . S
H461 C437 0.949 . S
H462 C439 0.950 . S
H463 C441 0.950 . S
C464 C465 1.349 . S
C464 C466 1.327 . S
C464 H489 0.950 . S
C465 C464 1.349 . S
C465 C481 1.349 1_554 S
C466 C464 1.327 . S
C466 C485 1.429 . S
C466 H490 0.950 . S
C467 C484 1.574 . S
C467 C486 1.368 . S
C467 H491 0.949 1_554 S
H468 C472 0.949 . S
C469 C470 1.349 . S
C469 C471 1.327 . S
C469 H492 0.950 . S
C470 C469 1.349 . S
C470 C482 1.349 . S
C471 C469 1.327 . S
C471 C487 1.429 . S
C471 H493 0.950 . S
C472 H468 0.949 . S
C472 C480 1.574 . S
C472 C488 1.368 . S
H473 C481 0.950 . S
H474 C479 0.954 . S
H475 C480 0.949 . S
H476 C482 0.950 . S
H477 C483 0.950 . S
H478 C484 0.952 . S
C479 H474 0.954 . S
C479 C481 1.328 . S
C479 C485 1.423 1_556 S
C480 C472 1.574 . S
C480 H475 0.949 . S
C480 C486 1.368 . S
C481 C465 1.349 1_556 S
C481 H473 0.950 . S
C481 C479 1.328 . S
C482 C470 1.349 . S
C482 H476 0.950 . S
C482 C483 1.327 . S
C483 H477 0.950 . S
C483 C482 1.327 . S
C483 C487 1.429 . S
C484 C467 1.574 . S
C484 H478 0.952 . S
C484 C488 1.368 . S
C485 C466 1.429 . S
C485 C479 1.423 1_554 S
C485 C486 1.523 . S
C486 C467 1.368 . S
C486 C480 1.368 . S
C486 C485 1.523 . S
C487 C471 1.429 . S
C487 C483 1.429 . S
C487 C488 1.523 . S
C488 C472 1.368 . S
C488 C484 1.368 . S
C488 C487 1.523 . S
H489 C464 0.950 . S
H490 C466 0.950 . S
H491 C467 0.949 1_556 S
H492 C469 0.950 . S
H493 C471 0.950 . S
C494 C495 1.349 . S
C494 C496 1.327 . S
C494 H519 0.950 . S
C495 C494 1.349 . S
C495 C511 1.349 . S
C496 C494 1.327 . S
C496 C515 1.429 . S
C496 H520 0.950 . S
C497 C514 1.574 . S
C497 C516 1.368 . S
C497 H521 0.949 1_556 S
H498 C502 0.949 . S
C499 C500 1.349 1_554 S
C499 C501 1.327 1_554 S
C499 H522 0.950 . S
C500 C499 1.349 1_556 S
C500 C512 1.349 . S
C501 C499 1.327 1_556 S
C501 C517 1.429 . S
C501 H523 0.950 1_556 S
C502 H498 0.949 . S
C502 C510 1.574 . S
C502 C518 1.368 . S
H503 C511 0.950 . S
H504 C509 0.950 . S
H505 C510 0.949 . S
H506 C512 0.950 . S
H507 C513 0.950 . S
H508 C514 0.949 1_554 S
C509 H504 0.950 . S
C509 C511 1.327 . S
C509 C515 1.429 . S
C510 C502 1.574 . S
C510 H505 0.949 . S
C510 C516 1.368 . S
C511 C495 1.349 . S
C511 H503 0.950 . S
C511 C509 1.327 . S
C512 C500 1.349 . S
C512 H506 0.950 . S
C512 C513 1.327 . S
C513 H507 0.950 . S
C513 C512 1.327 . S
C513 C517 1.429 . S
C514 C497 1.574 . S
C514 H508 0.949 1_556 S
C514 C518 1.368 . S
C515 C496 1.429 . S
C515 C509 1.429 . S
C515 C516 1.523 . S
C516 C497 1.368 . S
C516 C510 1.368 . S
C516 C515 1.523 . S
C517 C501 1.429 . S
C517 C513 1.429 . S
C517 C518 1.523 . S
C518 C502 1.368 . S
C518 C514 1.368 . S
C518 C517 1.523 . S
H519 C494 0.950 . S
H520 C496 0.950 . S
H521 C497 0.949 1_554 S
H522 C499 0.950 . S
H523 C501 0.950 1_554 S
C524 C525 1.349 . S
C524 C526 1.327 . S
C524 H549 0.950 . S
C525 C524 1.349 . S
C525 C541 1.349 . S
C526 C524 1.327 . S
C526 C545 1.429 . S
C526 H550 0.950 . S
C527 C544 1.574 . S
C527 C546 1.368 . S
C527 H551 0.949 . S
H528 C532 0.949 . S
C529 C530 1.349 . S
C529 C531 1.327 . S
C529 H552 0.950 . S
C530 C529 1.349 . S
C530 C542 1.349 . S
C531 C529 1.327 . S
C531 C547 1.429 . S
C531 H553 0.950 . S
C532 H528 0.949 . S
C532 C540 1.574 . S
C532 C548 1.368 . S
H533 C541 0.950 . S
H534 C539 0.950 . S
H535 C540 0.949 . S
H536 C542 0.950 . S
H537 C543 0.950 . S
H538 C544 0.949 . S
C539 H534 0.950 . S
C539 C541 1.327 . S
C539 C545 1.429 . S
C540 C532 1.574 . S
C540 H535 0.949 . S
C540 C546 1.368 . S
C541 C525 1.349 . S
C541 H533 0.950 . S
C541 C539 1.327 . S
C542 C530 1.349 . S
C542 H536 0.950 . S
C542 C543 1.327 . S
C543 H537 0.950 . S
C543 C542 1.327 . S
C543 C547 1.429 . S
C544 C527 1.574 . S
C544 H538 0.949 . S
C544 C548 1.368 . S
C545 C526 1.429 . S
C545 C539 1.429 . S
C545 C546 1.523 . S
C546 C527 1.368 . S
C546 C540 1.368 . S
C546 C545 1.523 . S
C547 C531 1.429 . S
C547 C543 1.429 . S
C547 C548 1.523 . S
C548 C532 1.368 . S
C548 C544 1.368 . S
C548 C547 1.523 . S
H549 C524 0.950 . S
H550 C526 0.950 . S
H551 C527 0.949 . S
H552 C529 0.950 . S
H553 C531 0.950 . S
C554 C555 1.349 . S
C554 C556 1.327 . S
C554 H579 0.950 . S
C555 C554 1.349 . S
C555 C571 1.349 . S
C556 C554 1.327 . S
C556 C575 1.429 . S
C556 H580 0.950 . S
C557 C574 1.574 . S
C557 C576 1.368 . S
C557 H581 0.949 . S
H558 C562 0.949 . S
C559 C560 1.349 . S
C559 C561 1.327 . S
C559 H582 0.950 . S
C560 C559 1.349 . S
C560 C572 1.349 . S
C561 C559 1.327 . S
C561 C577 1.429 . S
C561 H583 0.950 . S
C562 H558 0.949 . S
C562 C570 1.574 . S
C562 C578 1.368 . S
H563 C571 0.950 . S
H564 C569 0.950 . S
H565 C570 0.949 . S
H566 C572 0.950 . S
H567 C573 0.950 . S
H568 C574 0.949 . S
C569 H564 0.950 . S
C569 C571 1.327 . S
C569 C575 1.429 . S
C570 C562 1.574 . S
C570 H565 0.949 . S
C570 C576 1.368 . S
C571 C555 1.349 . S
C571 H563 0.950 . S
C571 C569 1.327 . S
C572 C560 1.349 . S
C572 H566 0.950 . S
C572 C573 1.327 . S
C573 H567 0.950 . S
C573 C572 1.327 . S
C573 C577 1.429 . S
C574 C557 1.574 . S
C574 H568 0.949 . S
C574 C578 1.368 . S
C575 C556 1.429 . S
C575 C569 1.429 . S
C575 C576 1.523 . S
C576 C557 1.368 . S
C576 C570 1.368 . S
C576 C575 1.523 . S
C577 C561 1.429 . S
C577 C573 1.429 . S
C577 C578 1.523 . S
C578 C562 1.368 . S
C578 C574 1.368 . S
C578 C577 1.523 . S
H579 C554 0.950 . S
H580 C556 0.950 . S
H581 C557 0.949 . S
H582 C559 0.950 . S
H583 C561 0.950 . S
C105 C1 1.578 . S
C110 C40 1.580 . S
C135 C10 1.482 . S
C140 C18 1.478 . S
C165 C27 1.461 . S
C170 C16 1.457 . S
C195 C49 1.554 . S
C200 C36 1.552 . S
C225 C3 1.494 . S
C230 C66 1.507 . S
C255 C5 1.437 . S
C260 C57 1.443 . S
C285 C55 1.473 . S
C290 C29 1.468 . S
C315 C31 1.523 . S
C320 C75 1.536 . S
C345 C81 1.417 . S
C350 C68 1.416 . S
C375 C62 1.523 . S
C380 C83 1.521 . S
C405 C53 1.565 . S
C410 C92 1.565 . S
C435 C70 1.456 . S
C440 C101 1.461 . S
C465 C79 1.509 . S
C470 C42 1.497 . S
C495 C23 1.580 . S
C500 C88 1.584 . S
C525 C14 1.536 . S
C530 C94 1.536 . S
C555 C44 1.451 . S
C560 C96 1.459 . S
