# Generated by pormake.
# Topology uoy, (4)-cn, num edge types: 1
# Building blocks:
#     Node 0, Type 0, BuildingBlock: UXUYUI_clean_sbu_0, # of connection points: 4
#     Node 1, Type 0, BuildingBlock: UXUYUI_clean_sbu_0, # of connection points: 4
#     Node 2, Type 0, BuildingBlock: UXUYUI_clean_sbu_0, # of connection points: 4
#     Node 3, Type 0, BuildingBlock: UXUYUI_clean_sbu_0, # of connection points: 4
#     Node 4, Type 0, BuildingBlock: UXUYUI_clean_sbu_0, # of connection points: 4
#     Node 5, Type 0, BuildingBlock: UXUYUI_clean_sbu_0, # of connection points: 4
#     Node 6, Type 0, BuildingBlock: UXUYUI_clean_sbu_0, # of connection points: 4
#     Node 7, Type 0, BuildingBlock: UXUYUI_clean_sbu_0, # of connection points: 4
#     Node 8, Type 0, BuildingBlock: UXUYUI_clean_sbu_0, # of connection points: 4
#     Node 9, Type 0, BuildingBlock: UXUYUI_clean_sbu_0, # of connection points: 4
#     Node 10, Type 0, BuildingBlock: UXUYUI_clean_sbu_0, # of connection points: 4
#     Node 11, Type 0, BuildingBlock: UXUYUI_clean_sbu_0, # of connection points: 4
#     Node 12, Type 0, BuildingBlock: UXUYUI_clean_sbu_0, # of connection points: 4
#     Node 13, Type 0, BuildingBlock: UXUYUI_clean_sbu_0, # of connection points: 4
#     Node 14, Type 0, BuildingBlock: UXUYUI_clean_sbu_0, # of connection points: 4
#     Node 15, Type 0, BuildingBlock: UXUYUI_clean_sbu_0, # of connection points: 4
#     Edge 16, Type (0, 0), BuildingBlock: AJUNOK_clean_linker_0, # of connection points: 2
#     Edge 17, Type (0, 0), BuildingBlock: AJUNOK_clean_linker_0, # of connection points: 2
#     Edge 18, Type (0, 0), BuildingBlock: AJUNOK_clean_linker_0, # of connection points: 2
#     Edge 19, Type (0, 0), BuildingBlock: AJUNOK_clean_linker_0, # of connection points: 2
#     Edge 20, Type (0, 0), BuildingBlock: AJUNOK_clean_linker_0, # of connection points: 2
#     Edge 21, Type (0, 0), BuildingBlock: AJUNOK_clean_linker_0, # of connection points: 2
#     Edge 22, Type (0, 0), BuildingBlock: AJUNOK_clean_linker_0, # of connection points: 2
#     Edge 23, Type (0, 0), BuildingBlock: AJUNOK_clean_linker_0, # of connection points: 2
#     Edge 24, Type (0, 0), BuildingBlock: AJUNOK_clean_linker_0, # of connection points: 2
#     Edge 25, Type (0, 0), BuildingBlock: AJUNOK_clean_linker_0, # of connection points: 2
#     Edge 26, Type (0, 0), BuildingBlock: AJUNOK_clean_linker_0, # of connection points: 2
#     Edge 27, Type (0, 0), BuildingBlock: AJUNOK_clean_linker_0, # of connection points: 2
#     Edge 28, Type (0, 0), BuildingBlock: AJUNOK_clean_linker_0, # of connection points: 2
#     Edge 29, Type (0, 0), BuildingBlock: AJUNOK_clean_linker_0, # of connection points: 2
#     Edge 30, Type (0, 0), BuildingBlock: AJUNOK_clean_linker_0, # of connection points: 2
#     Edge 31, Type (0, 0), BuildingBlock: AJUNOK_clean_linker_0, # of connection points: 2
#     Edge 32, Type (0, 0), BuildingBlock: AJUNOK_clean_linker_0, # of connection points: 2
#     Edge 33, Type (0, 0), BuildingBlock: AJUNOK_clean_linker_0, # of connection points: 2
#     Edge 34, Type (0, 0), BuildingBlock: AJUNOK_clean_linker_0, # of connection points: 2
#     Edge 35, Type (0, 0), BuildingBlock: AJUNOK_clean_linker_0, # of connection points: 2
#     Edge 36, Type (0, 0), BuildingBlock: AJUNOK_clean_linker_0, # of connection points: 2
#     Edge 37, Type (0, 0), BuildingBlock: AJUNOK_clean_linker_0, # of connection points: 2
#     Edge 38, Type (0, 0), BuildingBlock: AJUNOK_clean_linker_0, # of connection points: 2
#     Edge 39, Type (0, 0), BuildingBlock: AJUNOK_clean_linker_0, # of connection points: 2
#     Edge 40, Type (0, 0), BuildingBlock: AJUNOK_clean_linker_0, # of connection points: 2
#     Edge 41, Type (0, 0), BuildingBlock: AJUNOK_clean_linker_0, # of connection points: 2
#     Edge 42, Type (0, 0), BuildingBlock: AJUNOK_clean_linker_0, # of connection points: 2
#     Edge 43, Type (0, 0), BuildingBlock: AJUNOK_clean_linker_0, # of connection points: 2
#     Edge 44, Type (0, 0), BuildingBlock: AJUNOK_clean_linker_0, # of connection points: 2
#     Edge 45, Type (0, 0), BuildingBlock: AJUNOK_clean_linker_0, # of connection points: 2
#     Edge 46, Type (0, 0), BuildingBlock: AJUNOK_clean_linker_0, # of connection points: 2
#     Edge 47, Type (0, 0), BuildingBlock: AJUNOK_clean_linker_0, # of connection points: 2
# Relax obj value: 0.195
# Max RMSD: 0.201
# Mean RMSD: 0.200
data_MOF--net-uoy--node1-UXUYUI_clean_sbu_0--edge1-AJUNOK_clean_linker_0
_symmetry_space_group_name_H-M    P1
_symmetry_Int_Tables_number       1
_symmetry_cell_setting            triclinic
loop_
_symmetry_equiv_pos_as_xyz
'x, y, z'
_cell_length_a     32.88519
_cell_length_b     32.890001
_cell_length_c     128.26643
_cell_angle_alpha  89.998308
_cell_angle_beta   89.997398
_cell_angle_gamma 90.001836
loop_
_atom_site_label
_atom_site_type_symbol
_atom_site_fract_x
_atom_site_fract_y
_atom_site_fract_z
_atom_type_partial_charge
Li0 Li 0.2803 0.08921 0.18679 0.0
Li1 Li 0.24215 0.14004 0.19623 0.0
Li2 Li 0.20559 0.08885 0.18634 0.0
Li3 Li 0.2427 0.14283 0.17731 0.0
C4 C 0.24342 0.04116 0.20214 0.0
N5 N 0.24714 0.96195 0.20924 0.0
C6 C 0.25255 0.0332 0.21258 0.0
C7 C 0.23596 0.00888 0.19533 0.0
C8 C 0.25437 0.99293 0.21602 0.0
C9 C 0.23802 0.96905 0.19906 0.0
C10 C 0.32404 0.15733 0.19259 0.0
C11 C 0.38791 0.19244 0.19465 0.0
N12 N 0.39388 0.17295 0.20388 0.0
C13 C 0.33081 0.13763 0.2021 0.0
C14 C 0.35278 0.18496 0.18883 0.0
C15 C 0.36629 0.14595 0.20769 0.0
C16 C 0.35297 0.06624 0.1775 0.0
N17 N 0.33047 0.06028 0.18625 0.0
C18 C 0.38529 0.0243 0.1943 0.0
C19 C 0.34562 0.03947 0.19455 0.0
C20 C 0.40965 0.0312 0.18548 0.0
C21 C 0.39282 0.05178 0.17693 0.0
H22 H 0.34032 0.08349 0.17109 0.0
H23 H 0.32773 0.03615 0.20155 0.0
C24 C 0.2249 0.15099 0.21725 0.0
N25 N 0.2415 0.16997 0.20886 0.0
C26 C 0.22917 0.1676 0.22719 0.0
C27 C 0.26571 0.22412 0.2196 0.0
C28 C 0.26078 0.20636 0.20979 0.0
C29 C 0.2506 0.20418 0.22848 0.0
H30 H 0.21006 0.12189 0.21627 0.0
H31 H 0.27407 0.22059 0.203 0.0
C32 C 0.24015 0.05764 0.16652 0.0
N33 N 0.23246 0.00473 0.14989 0.0
C34 C 0.21759 0.06888 0.15774 0.0
C35 C 0.25939 0.01974 0.16675 0.0
C36 C 0.21387 0.04163 0.14945 0.0
C37 C 0.25497 0.99335 0.1583 0.0
C38 C 0.18232 0.1879 0.18731 0.0
C39 C 0.14131 0.19672 0.18903 0.0
C40 C 0.21021 0.21966 0.18614 0.0
C41 C 0.12884 0.23727 0.18958 0.0
C42 C 0.19655 0.2598 0.18674 0.0
N43 N 0.15649 0.26771 0.18844 0.0
C44 C 0.13934 0.04622 0.1951 0.0
C45 C 0.13529 0.05583 0.17681 0.0
C46 C 0.10038 0.0293 0.19527 0.0
N47 N 0.15592 0.05906 0.18596 0.0
C48 C 0.09628 0.03909 0.17662 0.0
C49 C 0.07821 0.02593 0.18595 0.0
H50 H 0.15575 0.05052 0.20232 0.0
H51 H 0.14841 0.06768 0.16973 0.0
C52 C 0.27949 0.18575 0.16089 0.0
N53 N 0.24316 0.17464 0.16505 0.0
C54 C 0.28083 0.20663 0.15142 0.0
C55 C 0.20735 0.20427 0.15076 0.0
C56 C 0.20743 0.18367 0.16027 0.0
C57 C 0.24443 0.21592 0.14621 0.0
H58 H 0.3074 0.17772 0.16485 0.0
H59 H 0.17905 0.17381 0.16371 0.0
O60 O 0.24182 0.08047 0.19868 0.0
O61 O 0.28972 0.14947 0.1869 0.0
O62 O 0.24482 0.08423 0.17464 0.0
O63 O 0.19481 0.14829 0.18675 0.0
H64 H 0.25845 0.05789 0.21795 0.0
H65 H 0.22822 0.01452 0.18728 0.0
H66 H 0.26156 0.9863 0.22407 0.0
H67 H 0.23227 0.94378 0.19387 0.0
H68 H 0.41044 0.21373 0.19183 0.0
H69 H 0.30898 0.11612 0.20514 0.0
H70 H 0.348 0.20043 0.18148 0.0
H71 H 0.3719 0.13092 0.21505 0.0
H72 H 0.39735 0.00879 0.20107 0.0
H73 H 0.41052 0.05721 0.16994 0.0
H74 H 0.21793 0.15073 0.23385 0.0
H75 H 0.28253 0.25231 0.22029 0.0
H76 H 0.20284 0.09821 0.15737 0.0
H77 H 0.27773 0.01082 0.17337 0.0
H78 H 0.19626 0.04985 0.14264 0.0
H79 H 0.26957 0.96388 0.1584 0.0
H80 H 0.11936 0.17243 0.18994 0.0
H81 H 0.24206 0.21349 0.18479 0.0
H82 H 0.09719 0.24455 0.19092 0.0
H83 H 0.2178 0.28467 0.18586 0.0
H84 H 0.08714 0.02052 0.20266 0.0
H85 H 0.08007 0.03721 0.16929 0.0
H86 H 0.31001 0.21513 0.14817 0.0
H87 H 0.17867 0.20993 0.14688 0.0
Li88 Li 0.9164 0.78643 0.43497 0.0
Li89 Li 0.86383 0.75299 0.44519 0.0
Li90 Li 0.91638 0.71188 0.43613 0.0
Li91 Li 0.8634 0.74683 0.4262 0.0
C92 C 0.933 0.77472 0.45635 0.0
N93 N 0.95014 0.82014 0.47393 0.0
C94 C 0.91714 0.81393 0.45742 0.0
C95 C 0.95755 0.7586 0.46422 0.0
C96 C 0.92617 0.83641 0.46636 0.0
C97 C 0.96587 0.78204 0.47305 0.0
C98 C 0.82065 0.81608 0.43509 0.0
C99 C 0.74754 0.81508 0.43369 0.0
N100 N 0.74652 0.85545 0.43598 0.0
C101 C 0.81893 0.85762 0.43735 0.0
C102 C 0.78473 0.79467 0.43319 0.0
C103 C 0.78114 0.87695 0.4378 0.0
C104 C 0.92841 0.86482 0.42771 0.0
N105 N 0.94629 0.83596 0.43375 0.0
C106 C 0.9974 0.88315 0.43917 0.0
C107 C 0.98073 0.84399 0.43925 0.0
C108 C 0.97844 0.91404 0.43335 0.0
C109 C 0.9441 0.90422 0.42737 0.0
H110 H 0.90101 0.85755 0.42343 0.0
H111 H 0.99443 0.82045 0.44397 0.0
C112 C 0.82832 0.72168 0.46346 0.0
N113 N 0.83295 0.75612 0.45772 0.0
C114 C 0.81098 0.7235 0.4734 0.0
C115 C 0.80297 0.79606 0.47124 0.0
C116 C 0.82017 0.79279 0.46134 0.0
C117 C 0.79864 0.7612 0.47746 0.0
H118 H 0.83945 0.69302 0.46047 0.0
H119 H 0.82528 0.81993 0.45682 0.0
C120 C 0.96285 0.74606 0.42027 0.0
N121 N 0.04315 0.74599 0.41394 0.0
C122 C 0.97247 0.74766 0.40967 0.0
C123 C 0.99406 0.74442 0.42766 0.0
C124 C 0.01326 0.74759 0.40662 0.0
C125 C 0.03447 0.74443 0.4243 0.0
C126 C 0.82767 0.67467 0.43587 0.0
C127 C 0.83683 0.63708 0.43136 0.0
C128 C 0.78854 0.68182 0.43972 0.0
C129 C 0.8064 0.60761 0.43055 0.0
C130 C 0.75896 0.65156 0.43877 0.0
N131 N 0.76841 0.61541 0.43423 0.0
C132 C 0.9544 0.64475 0.446 0.0
C133 C 0.9521 0.64179 0.42754 0.0
C134 C 0.97008 0.60525 0.44646 0.0
N135 N 0.94538 0.66189 0.43664 0.0
C136 C 0.96739 0.60218 0.42764 0.0
C137 C 0.97607 0.58326 0.43719 0.0
H138 H 0.94794 0.66118 0.45311 0.0
H139 H 0.9439 0.65592 0.42022 0.0
C140 C 0.82528 0.78087 0.40885 0.0
N141 N 0.83202 0.74492 0.41379 0.0
C142 C 0.80485 0.78174 0.39932 0.0
C143 C 0.7988 0.70854 0.4001 0.0
C144 C 0.8195 0.70908 0.4096 0.0
C145 C 0.79138 0.74522 0.39484 0.0
H146 H 0.83638 0.80884 0.41225 0.0
H147 H 0.82643 0.68083 0.41348 0.0
O148 O 0.92433 0.75189 0.44771 0.0
O149 O 0.85747 0.79679 0.43465 0.0
O150 O 0.92299 0.74619 0.42333 0.0
O151 O 0.8573 0.70364 0.43688 0.0
H152 H 0.89806 0.82692 0.45142 0.0
H153 H 0.97001 0.72826 0.46351 0.0
H154 H 0.9141 0.8668 0.46729 0.0
H155 H 0.98483 0.76994 0.4792 0.0
H156 H 0.7195 0.79886 0.43223 0.0
H157 H 0.84649 0.87466 0.43883 0.0
H158 H 0.78557 0.76277 0.43122 0.0
H159 H 0.77933 0.90903 0.43959 0.0
H160 H 0.02442 0.88937 0.44373 0.0
H161 H 0.92862 0.92715 0.42279 0.0
H162 H 0.80842 0.69598 0.47799 0.0
H163 H 0.79524 0.82592 0.47419 0.0
H164 H 0.94862 0.74894 0.40386 0.0
H165 H 0.9873 0.7431 0.4359 0.0
H166 H 0.02115 0.74881 0.39844 0.0
H167 H 0.05892 0.74318 0.42993 0.0
H168 H 0.86699 0.63083 0.42843 0.0
H169 H 0.78111 0.71024 0.4435 0.0
H170 H 0.81301 0.57851 0.427 0.0
H171 H 0.72853 0.65675 0.44168 0.0
H172 H 0.97584 0.59145 0.45398 0.0
H173 H 0.97163 0.58617 0.42034 0.0
H174 H 0.79979 0.8106 0.39546 0.0
H175 H 0.78971 0.67969 0.39676 0.0
Li176 Li 0.21169 0.41239 0.68529 0.0
Li177 Li 0.24514 0.35993 0.69561 0.0
Li178 Li 0.28739 0.41131 0.68607 0.0
Li179 Li 0.25237 0.35641 0.67683 0.0
C180 C 0.24553 0.45667 0.70253 0.0
N181 N 0.24193 0.53096 0.71256 0.0
C182 C 0.23043 0.45925 0.7127 0.0
C183 C 0.25943 0.49176 0.69754 0.0
C184 C 0.22865 0.49712 0.71761 0.0
C185 C 0.25721 0.52906 0.70271 0.0
C186 C 0.17558 0.3252 0.68931 0.0
C187 C 0.15861 0.25606 0.69379 0.0
N188 N 0.12358 0.2693 0.69829 0.0
C189 C 0.13922 0.33811 0.69388 0.0
C190 C 0.18521 0.28384 0.68917 0.0
C191 C 0.11341 0.30939 0.69842 0.0
C192 C 0.14283 0.44215 0.67489 0.0
N193 N 0.16232 0.44225 0.68424 0.0
C194 C 0.10527 0.47392 0.69243 0.0
C195 C 0.14458 0.458 0.69292 0.0
C196 C 0.08387 0.47299 0.68297 0.0
C197 C 0.10337 0.4576 0.67406 0.0
H198 H 0.15742 0.42869 0.66817 0.0
H199 H 0.16004 0.45643 0.70032 0.0
C200 C 0.26674 0.30592 0.71235 0.0
N201 N 0.23886 0.3325 0.7085 0.0
C202 C 0.26251 0.29066 0.72249 0.0
C203 C 0.20059 0.32969 0.72428 0.0
C204 C 0.20615 0.34432 0.7142 0.0
C205 C 0.22932 0.30307 0.72862 0.0
H206 H 0.29296 0.29774 0.70771 0.0
H207 H 0.18504 0.36624 0.71102 0.0
C208 C 0.25529 0.44668 0.66669 0.0
N209 N 0.26213 0.50953 0.65248 0.0
C210 C 0.27388 0.44009 0.65703 0.0
C211 C 0.23956 0.48509 0.66904 0.0
C212 C 0.27724 0.47229 0.64998 0.0
C213 C 0.24348 0.5165 0.66178 0.0
C214 C 0.32222 0.32286 0.68403 0.0
C215 C 0.35955 0.3344 0.67974 0.0
C216 C 0.31214 0.28167 0.68468 0.0
C217 C 0.38592 0.30448 0.67599 0.0
C218 C 0.33931 0.25267 0.68083 0.0
N219 N 0.37531 0.26457 0.6766 0.0
C220 C 0.35799 0.43938 0.69577 0.0
C221 C 0.35408 0.45724 0.67789 0.0
C222 C 0.39748 0.45483 0.69641 0.0
N223 N 0.33741 0.44042 0.68658 0.0
C224 C 0.3934 0.47322 0.67819 0.0
C225 C 0.41588 0.47131 0.68748 0.0
H226 H 0.34412 0.42534 0.70252 0.0
H227 H 0.33763 0.45692 0.67063 0.0
C228 C 0.22237 0.30339 0.66127 0.0
N229 N 0.25569 0.32408 0.66461 0.0
C230 C 0.2227 0.28402 0.65157 0.0
C231 C 0.29196 0.30671 0.64911 0.0
C232 C 0.29019 0.32583 0.65879 0.0
C233 C 0.25758 0.28633 0.64527 0.0
H234 H 0.19505 0.30318 0.66596 0.0
H235 H 0.31584 0.34342 0.66149 0.0
O236 O 0.24771 0.41973 0.69765 0.0
O237 O 0.20144 0.3529 0.68492 0.0
O238 O 0.25139 0.41532 0.67363 0.0
O239 O 0.29595 0.35172 0.6877 0.0
H240 H 0.22 0.43233 0.71674 0.0
H241 H 0.27225 0.49023 0.6898 0.0
H242 H 0.21679 0.49959 0.72545 0.0
H243 H 0.26779 0.55647 0.69892 0.0
H244 H 0.16577 0.22396 0.69378 0.0
H245 H 0.13116 0.36998 0.694 0.0
H246 H 0.21288 0.2733 0.68551 0.0
H247 H 0.0853 0.31897 0.70205 0.0
H248 H 0.09108 0.48519 0.69948 0.0
H249 H 0.08799 0.4568 0.6666 0.0
H250 H 0.28575 0.27081 0.72562 0.0
H251 H 0.17452 0.33989 0.72873 0.0
H252 H 0.28586 0.41052 0.65502 0.0
H253 H 0.22409 0.49058 0.67633 0.0
H254 H 0.29181 0.46766 0.64251 0.0
H255 H 0.23154 0.54639 0.66351 0.0
H256 H 0.36797 0.36613 0.67923 0.0
H257 H 0.28368 0.27221 0.68812 0.0
H258 H 0.41479 0.31298 0.67259 0.0
H259 H 0.33181 0.22068 0.68124 0.0
H260 H 0.41369 0.45334 0.70375 0.0
H261 H 0.40669 0.48549 0.67113 0.0
H262 H 0.19551 0.26872 0.64887 0.0
H263 H 0.31969 0.30855 0.64458 0.0
Li264 Li 0.64107 0.75383 0.9457 0.0
Li265 Li 0.59069 0.71557 0.93602 0.0
Li266 Li 0.64424 0.75408 0.92671 0.0
Li267 Li 0.5896 0.7899 0.93563 0.0
C268 C 0.65949 0.6719 0.94168 0.0
N269 N 0.67626 0.60121 0.95251 0.0
C270 C 0.6422 0.6652 0.95149 0.0
C271 C 0.68533 0.64263 0.93739 0.0
C272 C 0.65107 0.62931 0.95685 0.0
C273 C 0.69341 0.60707 0.94298 0.0
C274 C 0.54357 0.74874 0.95207 0.0
C275 C 0.47054 0.7518 0.9506 0.0
N276 N 0.46712 0.73823 0.96058 0.0
C277 C 0.53936 0.7351 0.96233 0.0
C278 C 0.50893 0.75736 0.94617 0.0
C279 C 0.50044 0.72986 0.96649 0.0
C280 C 0.65036 0.76975 0.96682 0.0
N281 N 0.67032 0.75437 0.95844 0.0
C282 C 0.72327 0.72867 0.96932 0.0
C283 C 0.70679 0.7353 0.95943 0.0
C284 C 0.70171 0.7415 0.97819 0.0
C285 C 0.66562 0.76366 0.97684 0.0
H286 H 0.62137 0.78472 0.96577 0.0
H287 H 0.72189 0.72315 0.95263 0.0
C288 C 0.56005 0.64594 0.92616 0.0
N289 N 0.56176 0.66534 0.93551 0.0
C290 C 0.54558 0.60606 0.92554 0.0
C291 C 0.53422 0.60717 0.94415 0.0
C292 C 0.54855 0.64708 0.9444 0.0
C293 C 0.53352 0.58593 0.93467 0.0
H294 H 0.57149 0.66092 0.91924 0.0
H295 H 0.55099 0.6626 0.95178 0.0
C296 C 0.68831 0.81448 0.937 0.0
N297 N 0.76774 0.84128 0.9384 0.0
C298 C 0.69653 0.85556 0.9388 0.0
C299 C 0.72047 0.78701 0.9359 0.0
C300 C 0.7369 0.86852 0.93949 0.0
C301 C 0.76041 0.80116 0.93664 0.0
C302 C 0.5571 0.75907 0.91635 0.0
C303 C 0.56742 0.78192 0.90755 0.0
C304 C 0.51789 0.74305 0.91725 0.0
C305 C 0.53793 0.78945 0.89995 0.0
C306 C 0.48927 0.75121 0.90948 0.0
N307 N 0.49978 0.77411 0.90107 0.0
C308 C 0.68845 0.7194 0.91018 0.0
C309 C 0.68519 0.79145 0.91006 0.0
C310 C 0.70988 0.71944 0.90079 0.0
N311 N 0.67656 0.75507 0.91456 0.0
C312 C 0.70648 0.79292 0.90066 0.0
C313 C 0.71899 0.75655 0.8959 0.0
H314 H 0.68062 0.69095 0.9139 0.0
H315 H 0.67464 0.81927 0.91366 0.0
C316 C 0.54257 0.85435 0.94402 0.0
N317 N 0.55971 0.8394 0.93517 0.0
C318 C 0.5256 0.89329 0.94411 0.0
C319 C 0.54446 0.9008 0.926 0.0
C320 C 0.56114 0.8618 0.92627 0.0
C321 C 0.52669 0.91712 0.93503 0.0
H322 H 0.54352 0.83675 0.95113 0.0
H323 H 0.57674 0.85012 0.91951 0.0
O324 O 0.6512 0.70676 0.93625 0.0
O325 O 0.58152 0.75374 0.94788 0.0
O326 O 0.64888 0.80152 0.93629 0.0
O327 O 0.58579 0.75086 0.92378 0.0
H328 H 0.6221 0.68743 0.95495 0.0
H329 H 0.699 0.64734 0.92981 0.0
H330 H 0.63789 0.62378 0.96444 0.0
H331 H 0.71333 0.58415 0.93974 0.0
H332 H 0.44347 0.75839 0.94612 0.0
H333 H 0.56589 0.72824 0.96701 0.0
H334 H 0.51166 0.76875 0.93831 0.0
H335 H 0.49673 0.7191 0.9744 0.0
H336 H 0.75157 0.71207 0.97005 0.0
H337 H 0.64807 0.77393 0.98349 0.0
H338 H 0.54553 0.59051 0.9181 0.0
H339 H 0.52475 0.59269 0.95134 0.0
H340 H 0.67193 0.87719 0.93965 0.0
H341 H 0.71475 0.75513 0.93448 0.0
H342 H 0.74372 0.90023 0.94088 0.0
H343 H 0.78559 0.78024 0.93581 0.0
H344 H 0.59782 0.79394 0.90663 0.0
H345 H 0.50969 0.72419 0.92384 0.0
H346 H 0.54542 0.8074 0.89315 0.0
H347 H 0.45876 0.73916 0.91011 0.0
H348 H 0.71902 0.69079 0.89735 0.0
H349 H 0.71208 0.82208 0.89702 0.0
H350 H 0.51331 0.90522 0.95132 0.0
H351 H 0.54622 0.91835 0.91887 0.0
Li352 Li 0.24779 0.35678 0.07303 0.0
Li353 Li 0.21134 0.40705 0.06322 0.0
Li354 Li 0.25133 0.35678 0.05429 0.0
Li355 Li 0.28499 0.40957 0.06399 0.0
C356 C 0.19261 0.30701 0.06273 0.0
N357 N 0.17196 0.2256 0.06211 0.0
C358 C 0.15222 0.29538 0.06113 0.0
C359 C 0.2225 0.27721 0.06405 0.0
C360 C 0.14239 0.25407 0.06084 0.0
C361 C 0.21144 0.23622 0.0637 0.0
C362 C 0.2237 0.42405 0.08447 0.0
C363 C 0.21645 0.4558 0.10131 0.0
N364 N 0.17895 0.43879 0.1023 0.0
C365 C 0.18509 0.40688 0.08565 0.0
C366 C 0.23955 0.44869 0.09235 0.0
C367 C 0.16294 0.4147 0.09473 0.0
C368 C 0.28276 0.32198 0.09083 0.0
N369 N 0.24723 0.32589 0.08551 0.0
C370 C 0.21072 0.2926 0.09915 0.0
C371 C 0.21165 0.31121 0.08939 0.0
C372 C 0.24677 0.28905 0.10493 0.0
C373 C 0.28328 0.30325 0.1006 0.0
H374 H 0.31047 0.3344 0.08759 0.0
H375 H 0.18377 0.31493 0.08503 0.0
C376 C 0.13293 0.41639 0.05604 0.0
N377 N 0.16096 0.43536 0.06212 0.0
C378 C 0.09344 0.43153 0.05531 0.0
C379 C 0.1125 0.48624 0.06691 0.0
C380 C 0.1518 0.47 0.06742 0.0
C381 C 0.08271 0.46676 0.06084 0.0
H382 H 0.1411 0.38883 0.05195 0.0
H383 H 0.17465 0.48443 0.07222 0.0
C384 C 0.33301 0.34297 0.05935 0.0
N385 N 0.40626 0.32839 0.04947 0.0
C386 C 0.34059 0.35937 0.04948 0.0
C387 C 0.36272 0.31919 0.0642 0.0
C388 C 0.37778 0.35161 0.04461 0.0
C389 C 0.39956 0.31218 0.05908 0.0
C390 C 0.2485 0.45622 0.04861 0.0
C391 C 0.24674 0.4667 0.03807 0.0
C392 C 0.24906 0.48686 0.05617 0.0
C393 C 0.24545 0.50771 0.03524 0.0
C394 C 0.24771 0.52751 0.05304 0.0
N395 N 0.24594 0.53701 0.04273 0.0
C396 C 0.23495 0.34304 0.03342 0.0
C397 C 0.27607 0.29142 0.04087 0.0
C398 C 0.24062 0.32682 0.02348 0.0
N399 N 0.25362 0.32596 0.04179 0.0
C400 C 0.28265 0.27421 0.03106 0.0
C401 C 0.26591 0.29285 0.02219 0.0
H402 H 0.21724 0.37048 0.03441 0.0
H403 H 0.29057 0.27843 0.04767 0.0
C404 C 0.35355 0.44218 0.07401 0.0
N405 N 0.33409 0.44051 0.06467 0.0
C406 C 0.39305 0.45772 0.07466 0.0
C407 C 0.39143 0.47018 0.05609 0.0
C408 C 0.35184 0.45481 0.05582 0.0
C409 C 0.4127 0.47118 0.06558 0.0
H410 H 0.33903 0.42973 0.08087 0.0
H411 H 0.33609 0.45244 0.04844 0.0
O412 O 0.20245 0.34743 0.06304 0.0
O413 O 0.24635 0.41645 0.07573 0.0
O414 O 0.29694 0.35021 0.06434 0.0
O415 O 0.24978 0.4161 0.05143 0.0
H416 H 0.12868 0.31806 0.06014 0.0
H417 H 0.25386 0.28546 0.06536 0.0
H418 H 0.11124 0.24465 0.0596 0.0
H419 H 0.23427 0.21286 0.06471 0.0
H420 H 0.22837 0.4748 0.10748 0.0
H421 H 0.17234 0.38762 0.07966 0.0
H422 H 0.26947 0.4621 0.09156 0.0
H423 H 0.13305 0.40157 0.09575 0.0
H424 H 0.1821 0.28146 0.10221 0.0
H425 H 0.31163 0.30104 0.10486 0.0
H426 H 0.07122 0.41511 0.05072 0.0
H427 H 0.10536 0.51351 0.07128 0.0
H428 H 0.31805 0.37792 0.04561 0.0
H429 H 0.35734 0.30632 0.07184 0.0
H430 H 0.384 0.36409 0.03698 0.0
H431 H 0.42283 0.29384 0.06274 0.0
H432 H 0.24643 0.44336 0.03211 0.0
H433 H 0.25062 0.47953 0.06437 0.0
H434 H 0.24408 0.51624 0.02711 0.0
H435 H 0.2481 0.55151 0.0588 0.0
H436 H 0.22735 0.34211 0.01682 0.0
H437 H 0.30192 0.24764 0.03036 0.0
H438 H 0.40871 0.45748 0.08209 0.0
H439 H 0.40565 0.48031 0.04893 0.0
Li440 Li 0.64558 0.7506 0.32227 0.0
Li441 Li 0.59137 0.71527 0.31296 0.0
Li442 Li 0.64382 0.75559 0.30307 0.0
Li443 Li 0.5908 0.79032 0.31304 0.0
C444 C 0.68466 0.68274 0.31347 0.0
N445 N 0.75268 0.63506 0.31677 0.0
C446 C 0.68075 0.64414 0.31792 0.0
C447 C 0.72308 0.6967 0.3105 0.0
C448 C 0.71552 0.62062 0.31959 0.0
C449 C 0.75712 0.67225 0.31228 0.0
C450 C 0.55514 0.74033 0.33142 0.0
C451 C 0.48358 0.73687 0.33544 0.0
N452 N 0.49231 0.71519 0.34419 0.0
C453 C 0.56345 0.71855 0.34053 0.0
C454 C 0.51495 0.75003 0.32891 0.0
C455 C 0.53125 0.70588 0.34685 0.0
C456 C 0.69074 0.78369 0.33892 0.0
N457 N 0.67695 0.74846 0.33466 0.0
C458 C 0.70104 0.71046 0.34928 0.0
C459 C 0.68161 0.71225 0.33962 0.0
C460 C 0.71511 0.74642 0.35394 0.0
C461 C 0.71031 0.78333 0.34858 0.0
H462 H 0.68555 0.81223 0.33495 0.0
H463 H 0.669 0.68494 0.33627 0.0
C464 C 0.5434 0.65177 0.30424 0.0
N465 N 0.56214 0.66534 0.31303 0.0
C466 C 0.52667 0.6127 0.30393 0.0
C467 C 0.54876 0.60245 0.32171 0.0
C468 C 0.56506 0.64159 0.32167 0.0
C469 C 0.5296 0.5874 0.31273 0.0
H470 H 0.5428 0.67067 0.29735 0.0
H471 H 0.58163 0.65238 0.32839 0.0
C472 C 0.68346 0.82392 0.3114 0.0
N473 N 0.75025 0.87244 0.30733 0.0
C474 C 0.67833 0.8624 0.30696 0.0
C475 C 0.72252 0.8105 0.31396 0.0
C476 C 0.71247 0.88636 0.3049 0.0
C477 C 0.75591 0.83536 0.31179 0.0
C478 C 0.55053 0.76434 0.29535 0.0
C479 C 0.55519 0.78588 0.28603 0.0
C480 C 0.51156 0.75414 0.29881 0.0
C481 C 0.52067 0.79771 0.28046 0.0
C482 C 0.47779 0.76646 0.29301 0.0
N483 N 0.483 0.78788 0.28404 0.0
C484 C 0.68842 0.72551 0.28565 0.0
C485 C 0.67248 0.7958 0.28537 0.0
C486 C 0.70478 0.72794 0.2756 0.0
N487 N 0.67258 0.7592 0.29027 0.0
C488 C 0.68855 0.79963 0.27537 0.0
C489 C 0.70428 0.76528 0.27029 0.0
H490 H 0.68709 0.69652 0.2896 0.0
H491 H 0.65808 0.82163 0.28902 0.0
C492 C 0.54417 0.85348 0.32239 0.0
N493 N 0.56106 0.83998 0.31335 0.0
C494 C 0.52739 0.8925 0.32294 0.0
C495 C 0.5455 0.90277 0.30487 0.0
C496 C 0.56193 0.86367 0.30468 0.0
C497 C 0.52833 0.91782 0.31411 0.0
H498 H 0.54516 0.83461 0.32929 0.0
H499 H 0.57701 0.8529 0.29772 0.0
O500 O 0.65088 0.70614 0.31176 0.0
O501 O 0.58632 0.75299 0.32514 0.0
O502 O 0.6503 0.8001 0.31348 0.0
O503 O 0.58401 0.75259 0.30092 0.0
H504 H 0.65123 0.63257 0.32015 0.0
H505 H 0.72658 0.72585 0.30672 0.0
H506 H 0.71295 0.59085 0.32312 0.0
H507 H 0.78704 0.68277 0.31004 0.0
H508 H 0.45232 0.74405 0.33357 0.0
H509 H 0.59441 0.71121 0.34265 0.0
H510 H 0.50804 0.76791 0.32207 0.0
H511 H 0.53722 0.6887 0.35387 0.0
H512 H 0.70458 0.68133 0.35311 0.0
H513 H 0.72045 0.81174 0.35197 0.0
H514 H 0.51306 0.60187 0.29676 0.0
H515 H 0.55182 0.58382 0.32863 0.0
H516 H 0.64831 0.87357 0.30506 0.0
H517 H 0.72702 0.78145 0.31771 0.0
H518 H 0.70894 0.91605 0.30138 0.0
H519 H 0.78631 0.82527 0.31371 0.0
H520 H 0.58514 0.79362 0.28317 0.0
H521 H 0.50744 0.7365 0.30584 0.0
H522 H 0.52383 0.81467 0.27328 0.0
H523 H 0.44745 0.75886 0.29562 0.0
H524 H 0.71681 0.70081 0.27194 0.0
H525 H 0.68693 0.82877 0.27146 0.0
H526 H 0.51533 0.90331 0.33029 0.0
H527 H 0.54698 0.92138 0.29791 0.0
Li528 Li 0.25579 0.14313 0.57252 0.0
Li529 Li 0.29201 0.08854 0.56307 0.0
Li530 Li 0.25172 0.13967 0.55341 0.0
Li531 Li 0.21729 0.08819 0.56365 0.0
C532 C 0.31541 0.1869 0.5606 0.0
N533 N 0.34432 0.26443 0.55692 0.0
C534 C 0.35526 0.19262 0.55712 0.0
C535 C 0.29021 0.22054 0.56217 0.0
C536 C 0.36934 0.23208 0.55532 0.0
C537 C 0.30539 0.2595 0.56028 0.0
C538 C 0.25764 0.04517 0.57964 0.0
C539 C 0.25556 0.97243 0.5774 0.0
N540 N 0.2612 0.96758 0.58783 0.0
C541 C 0.26339 0.03952 0.59034 0.0
C542 C 0.25369 0.01142 0.57311 0.0
C543 C 0.26512 1.00003 0.59433 0.0
C544 C 0.22149 0.17682 0.59034 0.0
N545 N 0.2565 0.1751 0.58474 0.0
C546 C 0.29202 0.21266 0.5978 0.0
C547 C 0.29145 0.19246 0.58823 0.0
C548 C 0.25641 0.21444 0.60383 0.0
C549 C 0.22077 0.19641 0.59999 0.0
H550 H 0.19437 0.16213 0.5874 0.0
H551 H 0.31907 0.18974 0.58371 0.0
C552 C 0.35837 0.04758 0.55384 0.0
N553 N 0.34152 0.05907 0.56305 0.0
C554 C 0.3973 0.03053 0.55362 0.0
C555 C 0.40046 0.03709 0.57238 0.0
C556 C 0.3615 0.054 0.57223 0.0
C557 C 0.41898 0.02545 0.56297 0.0
H558 H 0.34206 0.05281 0.54664 0.0
H559 H 0.34773 0.06441 0.57941 0.0
C560 C 0.17412 0.1689 0.56065 0.0
N561 N 0.10656 0.21275 0.55451 0.0
C562 C 0.14653 0.15224 0.55355 0.0
C563 C 0.16698 0.2076 0.56476 0.0
C564 C 0.11265 0.17495 0.55051 0.0
C565 C 0.13276 0.22937 0.56153 0.0
C566 C 0.23823 0.05621 0.54365 0.0
C567 C 0.20772 0.07118 0.5371 0.0
C568 C 0.25315 0.01685 0.54212 0.0
C569 C 0.1921 0.04626 0.52925 0.0
C570 C 0.23672 0.99286 0.53418 0.0
N571 N 0.20676 0.00791 0.52797 0.0
C572 C 0.26756 0.15175 0.53231 0.0
C573 C 0.22828 0.20475 0.53974 0.0
C574 C 0.26226 0.16803 0.52235 0.0
N575 N 0.24944 0.16942 0.54068 0.0
C576 C 0.22228 0.22215 0.52993 0.0
C577 C 0.23829 0.20295 0.52105 0.0
H578 H 0.28464 0.12392 0.5333 0.0
H579 H 0.21509 0.21886 0.54654 0.0
C580 C 0.14036 0.07622 0.57165 0.0
N581 N 0.16727 0.05904 0.56491 0.0
C582 C 0.10051 0.06186 0.57227 0.0
C583 C 0.11722 0.01091 0.55939 0.0
C584 C 0.15685 0.02627 0.55902 0.0
C585 C 0.08826 0.02946 0.5659 0.0
H586 H 0.1495 0.10221 0.57625 0.0
H587 H 0.17879 0.01256 0.55385 0.0
O588 O 0.30106 0.14845 0.56227 0.0
O589 O 0.2562 0.08365 0.57563 0.0
O590 O 0.20757 0.14728 0.56374 0.0
O591 O 0.25403 0.08004 0.5514 0.0
H592 H 0.37506 0.1668 0.55582 0.0
H593 H 0.25925 0.21659 0.5648 0.0
H594 H 0.40014 0.23699 0.55264 0.0
H595 H 0.28621 0.28582 0.56147 0.0
H596 H 0.25253 0.94602 0.57243 0.0
H597 H 0.26656 0.06541 0.59549 0.0
H598 H 0.24921 0.01528 0.56484 0.0
H599 H 0.26959 0.99518 0.60259 0.0
H600 H 0.32023 0.22563 0.60062 0.0
H601 H 0.19278 0.1972 0.60444 0.0
H602 H 0.41057 0.02199 0.54621 0.0
H603 H 0.41649 0.03461 0.57972 0.0
H604 H 0.15091 0.12197 0.5505 0.0
H605 H 0.18773 0.22076 0.57038 0.0
H606 H 0.09112 0.16245 0.545 0.0
H607 H 0.127 0.25945 0.5646 0.0
H608 H 0.19644 0.10181 0.538 0.0
H609 H 0.27706 0.00489 0.54704 0.0
H610 H 0.16841 0.05745 0.52415 0.0
H611 H 0.24782 0.96227 0.53294 0.0
H612 H 0.27517 0.15236 0.5157 0.0
H613 H 0.20447 0.24972 0.52926 0.0
H614 H 0.07911 0.0769 0.5774 0.0
H615 H 0.10916 0.98517 0.55455 0.0
Li616 Li 0.91486 0.79251 0.81286 0.0
Li617 Li 0.86366 0.75668 0.82315 0.0
Li618 Li 0.91587 0.71792 0.81354 0.0
Li619 Li 0.86141 0.75239 0.80407 0.0
C620 C 0.96399 0.75774 0.82807 0.0
N621 N 0.04511 0.75871 0.83366 0.0
C622 C 0.97505 0.75869 0.83858 0.0
C623 C 0.99417 0.75732 0.82039 0.0
C624 C 0.01624 0.75917 0.84125 0.0
C625 C 0.03501 0.7578 0.82338 0.0
C626 C 0.81863 0.82021 0.81376 0.0
C627 C 0.7454 0.81841 0.81314 0.0
N628 N 0.7443 0.85855 0.81568 0.0
C629 C 0.81684 0.8615 0.81629 0.0
C630 C 0.78271 0.7985 0.81212 0.0
C631 C 0.77893 0.88032 0.81725 0.0
C632 C 0.95424 0.85954 0.80321 0.0
N633 N 0.94299 0.84271 0.81245 0.0
C634 C 0.96015 0.90363 0.82158 0.0
C635 C 0.94619 0.86356 0.82156 0.0
C636 C 0.9705 0.92246 0.81211 0.0
C637 C 0.96847 0.89961 0.80287 0.0
H638 H 0.95054 0.84244 0.79607 0.0
H639 H 0.93637 0.84952 0.82876 0.0
C640 C 0.82805 0.72216 0.84087 0.0
N641 N 0.83426 0.75795 0.83582 0.0
C642 C 0.80892 0.72163 0.85058 0.0
C643 C 0.80355 0.7949 0.84979 0.0
C644 C 0.8227 0.794 0.84008 0.0
C645 C 0.7968 0.75838 0.85519 0.0
H646 H 0.8386 0.69406 0.83743 0.0
H647 H 0.82904 0.8221 0.83603 0.0
C648 C 0.9319 0.73283 0.79223 0.0
N649 N 0.95264 0.6909 0.77433 0.0
C650 C 0.91033 0.69799 0.78935 0.0
C651 C 0.96404 0.74636 0.78601 0.0
C652 C 0.92121 0.67724 0.78027 0.0
C653 C 0.9741 0.72471 0.777 0.0
C654 C 0.82927 0.6775 0.81385 0.0
C655 C 0.83975 0.64041 0.80923 0.0
C656 C 0.79029 0.68261 0.81801 0.0
C657 C 0.81091 0.6093 0.80874 0.0
C658 C 0.76231 0.65076 0.81736 0.0
N659 N 0.7731 0.61508 0.81277 0.0
C660 C 0.93251 0.64271 0.82203 0.0
C661 C 0.97456 0.65652 0.80744 0.0
C662 C 0.947 0.60291 0.82256 0.0
N663 N 0.94555 0.6682 0.81439 0.0
C664 C 0.98983 0.61681 0.80767 0.0
C665 C 0.97511 0.58913 0.81512 0.0
H666 H 0.90956 0.65294 0.82748 0.0
H667 H 0.98492 0.67744 0.80152 0.0
C668 C 0.84261 0.77412 0.7837 0.0
N669 N 0.8296 0.75005 0.79165 0.0
C670 C 0.82754 0.76844 0.77364 0.0
C671 C 0.78377 0.71538 0.78028 0.0
C672 C 0.79972 0.72203 0.79021 0.0
C673 C 0.79894 0.73765 0.7718 0.0
H674 H 0.86663 0.79596 0.78507 0.0
H675 H 0.7896 0.7034 0.79661 0.0
O676 O 0.92374 0.75726 0.82538 0.0
O677 O 0.85552 0.80139 0.81287 0.0
O678 O 0.92147 0.75404 0.80101 0.0
O679 O 0.85724 0.70826 0.81449 0.0
H680 H 0.95201 0.75905 0.84461 0.0
H681 H 0.98629 0.75663 0.81221 0.0
H682 H 0.02525 0.7599 0.84936 0.0
H683 H 0.05868 0.75746 0.81752 0.0
H684 H 0.71733 0.80195 0.81191 0.0
H685 H 0.84447 0.87872 0.81756 0.0
H686 H 0.78362 0.76671 0.81004 0.0
H687 H 0.77706 0.91222 0.81925 0.0
H688 H 0.96198 0.92003 0.82888 0.0
H689 H 0.9761 0.91315 0.79543 0.0
H690 H 0.80453 0.69292 0.85456 0.0
H691 H 0.79427 0.82381 0.85306 0.0
H692 H 0.88528 0.68728 0.79404 0.0
H693 H 0.98103 0.77332 0.78813 0.0
H694 H 0.90464 0.65033 0.77794 0.0
H695 H 0.99893 0.73481 0.77211 0.0
H696 H 0.86986 0.63553 0.80608 0.0
H697 H 0.78168 0.71083 0.82172 0.0
H698 H 0.81862 0.58051 0.80517 0.0
H699 H 0.73203 0.65438 0.82052 0.0
H700 H 0.93576 0.5829 0.82861 0.0
H701 H 0.01179 0.60743 0.80185 0.0
H702 H 0.84002 0.7861 0.76727 0.0
H703 H 0.76122 0.69177 0.77915 0.0
Li704 Li 0.75378 0.63998 0.69537 0.0
Li705 Li 0.78717 0.58735 0.68507 0.0
Li706 Li 0.74731 0.64308 0.67621 0.0
Li707 Li 0.71209 0.5885 0.68557 0.0
C708 C 0.82091 0.68022 0.68669 0.0
N709 N 0.86884 0.74775 0.69036 0.0
C710 C 0.85901 0.67591 0.69139 0.0
C711 C 0.80759 0.71879 0.68365 0.0
C712 C 0.88267 0.71044 0.69325 0.0
C713 C 0.83215 0.75257 0.68562 0.0
C714 C 0.76132 0.54463 0.70219 0.0
C715 C 0.76226 0.47136 0.70283 0.0
N716 N 0.78336 0.47303 0.71194 0.0
C717 C 0.78262 0.54564 0.71162 0.0
C718 C 0.75073 0.50723 0.6978 0.0
C719 C 0.79365 0.50911 0.7164 0.0
C720 C 0.72854 0.68648 0.71318 0.0
N721 N 0.75984 0.66733 0.70827 0.0
C722 C 0.80251 0.6757 0.72316 0.0
C723 C 0.79639 0.66205 0.71301 0.0
C724 C 0.77046 0.6944 0.72854 0.0
C725 C 0.73338 0.70076 0.72338 0.0
H726 H 0.69936 0.68912 0.70936 0.0
H727 H 0.8202 0.64544 0.70908 0.0
C728 C 0.85002 0.54083 0.67546 0.0
N729 N 0.8366 0.55755 0.68452 0.0
C730 C 0.88926 0.52454 0.67484 0.0
C731 C 0.89968 0.54256 0.69292 0.0
C732 C 0.86043 0.55854 0.69317 0.0
C733 C 0.91478 0.52576 0.68363 0.0
H734 H 0.83094 0.54166 0.6686 0.0
H735 H 0.84957 0.57337 0.70015 0.0
C736 C 0.67948 0.68158 0.68588 0.0
N737 N 0.63022 0.74912 0.68371 0.0
C738 C 0.63946 0.67728 0.68237 0.0
C739 C 0.69421 0.72014 0.68845 0.0
C740 C 0.6151 0.71182 0.68128 0.0
C741 C 0.66891 0.75394 0.68726 0.0
C742 C 0.7348 0.5562 0.66613 0.0
C743 C 0.71273 0.56924 0.65744 0.0
C744 C 0.74348 0.51489 0.66736 0.0
C745 C 0.69879 0.54053 0.65025 0.0
C746 C 0.72904 0.48713 0.65999 0.0
N747 N 0.70712 0.50041 0.65167 0.0
C748 C 0.78164 0.67862 0.65865 0.0
C749 C 0.71055 0.6897 0.65991 0.0
C750 C 0.78268 0.69747 0.64891 0.0
N751 N 0.74591 0.67491 0.66389 0.0
C752 C 0.71025 0.70908 0.65023 0.0
C753 C 0.74654 0.71245 0.64455 0.0
H754 H 0.80916 0.66597 0.66194 0.0
H755 H 0.68235 0.68518 0.66403 0.0
C756 C 0.64902 0.54121 0.69467 0.0
N757 N 0.66196 0.55949 0.68576 0.0
C758 C 0.60997 0.52451 0.69523 0.0
C759 C 0.59847 0.54559 0.67742 0.0
C760 C 0.63759 0.56197 0.67722 0.0
C761 C 0.58404 0.5269 0.68654 0.0
H762 H 0.66844 0.54091 0.70147 0.0
H763 H 0.64782 0.57823 0.67041 0.0
O764 O 0.79744 0.64667 0.68476 0.0
O765 O 0.75053 0.58009 0.69735 0.0
O766 O 0.7037 0.64803 0.68698 0.0
O767 O 0.74892 0.58392 0.6732 0.0
H768 H 0.87014 0.64623 0.69363 0.0
H769 H 0.77879 0.72262 0.67972 0.0
H770 H 0.91207 0.70756 0.69696 0.0
H771 H 0.82211 0.78262 0.68335 0.0
H772 H 0.75433 0.4422 0.6995 0.0
H773 H 0.79073 0.57432 0.71518 0.0
H774 H 0.73349 0.50594 0.69064 0.0
H775 H 0.81036 0.50944 0.72366 0.0
H776 H 0.83161 0.67053 0.72689 0.0
H777 H 0.70795 0.71483 0.72735 0.0
H778 H 0.90007 0.51271 0.66747 0.0
H779 H 0.91839 0.54414 0.69986 0.0
H780 H 0.62741 0.64763 0.68044 0.0
H781 H 0.72465 0.72391 0.69146 0.0
H782 H 0.58417 0.70896 0.6785 0.0
H783 H 0.67996 0.78397 0.6892 0.0
H784 H 0.70612 0.60115 0.6563 0.0
H785 H 0.76152 0.50438 0.67387 0.0
H786 H 0.68138 0.55017 0.64353 0.0
H787 H 0.73541 0.45504 0.66087 0.0
H788 H 0.81129 0.6999 0.64477 0.0
H789 H 0.68177 0.72 0.64704 0.0
H790 H 0.59966 0.51131 0.7025 0.0
H791 H 0.57939 0.54824 0.67057 0.0
Li792 Li 0.36535 0.25616 0.94566 0.0
Li793 Li 0.41685 0.29059 0.93525 0.0
Li794 Li 0.35955 0.25239 0.92693 0.0
Li795 Li 0.41477 0.21506 0.9351 0.0
C796 C 0.32981 0.32619 0.9406 0.0
N797 N 0.27419 0.37454 0.95096 0.0
C798 C 0.34154 0.36409 0.94451 0.0
C799 C 0.28965 0.31318 0.94182 0.0
C800 C 0.31301 0.38801 0.94976 0.0
C801 C 0.26202 0.33796 0.94712 0.0
C802 C 0.46149 0.25517 0.95231 0.0
C803 C 0.53314 0.24034 0.95383 0.0
N804 N 0.534 0.2598 0.96318 0.0
C805 C 0.463 0.2744 0.96203 0.0
C806 C 0.49676 0.23745 0.94826 0.0
C807 C 0.49996 0.27669 0.96736 0.0
C808 C 0.31508 0.23013 0.96268 0.0
N809 N 0.33962 0.25991 0.95885 0.0
C810 C 0.33684 0.296 0.97496 0.0
C811 C 0.35013 0.29267 0.9647 0.0
C812 C 0.31264 0.26517 0.97926 0.0
C813 C 0.30082 0.23236 0.97295 0.0
H814 H 0.30765 0.20413 0.95789 0.0
H815 H 0.36993 0.31568 0.96147 0.0
C816 C 0.45653 0.35692 0.92542 0.0
N817 N 0.44779 0.33949 0.93477 0.0
C818 C 0.47416 0.39556 0.92502 0.0
C819 C 0.47332 0.39756 0.94385 0.0
C820 C 0.45596 0.35886 0.94389 0.0
C821 C 0.4824 0.41654 0.93432 0.0
H822 H 0.44861 0.34137 0.91828 0.0
H823 H 0.44694 0.34523 0.95119 0.0
C824 C 0.32663 0.18207 0.93285 0.0
N825 N 0.26877 0.13224 0.92386 0.0
C826 C 0.33854 0.14934 0.9266 0.0
C827 C 0.28531 0.18909 0.93464 0.0
C828 C 0.30883 0.12459 0.9221 0.0
C829 C 0.25651 0.16366 0.92999 0.0
C830 C 0.45242 0.24914 0.91697 0.0
C831 C 0.44951 0.23458 0.90676 0.0
C832 C 0.49033 0.26078 0.92089 0.0
C833 C 0.48472 0.23093 0.90073 0.0
C834 C 0.52483 0.25674 0.91462 0.0
N835 N 0.52135 0.24194 0.90476 0.0
C836 C 0.29576 0.27955 0.91358 0.0
C837 C 0.33249 0.22164 0.90789 0.0
C838 C 0.27321 0.27984 0.90435 0.0
N839 N 0.3249 0.25087 0.91512 0.0
C840 C 0.3108 0.22085 0.89855 0.0
C841 C 0.28121 0.25064 0.89662 0.0
H842 H 0.29065 0.30273 0.9194 0.0
H843 H 0.35615 0.1995 0.90927 0.0
C844 C 0.44313 0.14382 0.94413 0.0
N845 N 0.44294 0.16459 0.93497 0.0
C846 C 0.45797 0.10409 0.94454 0.0
C847 C 0.47314 0.10823 0.92613 0.0
C848 C 0.45786 0.14785 0.92606 0.0
C849 C 0.47246 0.08561 0.9354 0.0
H850 H 0.43059 0.15778 0.95106 0.0
H851 H 0.45638 0.16444 0.91882 0.0
O852 O 0.35749 0.30202 0.93559 0.0
O853 O 0.4253 0.25211 0.94706 0.0
O854 O 0.35528 0.20693 0.93724 0.0
O855 O 0.41813 0.25302 0.92295 0.0
H856 H 0.37233 0.37489 0.94354 0.0
H857 H 0.27997 0.28419 0.93875 0.0
H858 H 0.32174 0.4173 0.95288 0.0
H859 H 0.23091 0.32811 0.94818 0.0
H860 H 0.56065 0.22691 0.95075 0.0
H861 H 0.43601 0.28762 0.96542 0.0
H862 H 0.49615 0.22128 0.94094 0.0
H863 H 0.50156 0.2918 0.97484 0.0
H864 H 0.346 0.32206 0.97957 0.0
H865 H 0.2821 0.2081 0.97605 0.0
H866 H 0.48051 0.40925 0.91751 0.0
H867 H 0.47788 0.41316 0.95119 0.0
H868 H 0.37034 0.14336 0.92515 0.0
H869 H 0.27553 0.21381 0.93959 0.0
H870 H 0.31763 0.09935 0.91718 0.0
H871 H 0.22442 0.16887 0.93127 0.0
H872 H 0.42042 0.226 0.90351 0.0
H873 H 0.49308 0.27346 0.92862 0.0
H874 H 0.4829 0.21942 0.89285 0.0
H875 H 0.55434 0.26558 0.91758 0.0
H876 H 0.25012 0.30291 0.90322 0.0
H877 H 0.31802 0.19796 0.89277 0.0
H878 H 0.45753 0.08778 0.95187 0.0
H879 H 0.48388 0.09485 0.91892 0.0
Li880 Li 0.74169 0.8608 0.19438 0.0
Li881 Li 0.70614 0.91486 0.18505 0.0
Li882 Li 0.74196 0.86183 0.17526 0.0
Li883 Li 0.78036 0.91288 0.18454 0.0
C884 C 0.68031 0.81665 0.1842 0.0
N885 N 0.65138 0.73799 0.18283 0.0
C886 C 0.63929 0.80955 0.18204 0.0
C887 C 0.70665 0.78379 0.18567 0.0
C888 C 0.62523 0.76954 0.18138 0.0
C889 C 0.69143 0.74424 0.18494 0.0
C890 C 0.73404 0.94889 0.20383 0.0
C891 C 0.73715 0.01779 0.21021 0.0
N892 N 0.71185 0.00749 0.21817 0.0
C893 C 0.70864 0.93882 0.21217 0.0
C894 C 0.74893 0.98853 0.20292 0.0
C895 C 0.69753 0.96894 0.2193 0.0
C896 C 0.77508 0.82402 0.21232 0.0
N897 N 0.74013 0.83063 0.20692 0.0
C898 C 0.70042 0.80293 0.22078 0.0
C899 C 0.70327 0.82015 0.21088 0.0
C900 C 0.73585 0.79669 0.22667 0.0
C901 C 0.77362 0.807 0.2223 0.0
H902 H 0.80387 0.83343 0.20903 0.0
H903 H 0.67591 0.82688 0.20653 0.0
C904 C 0.64359 0.96758 0.17732 0.0
N905 N 0.65645 0.94469 0.18551 0.0
C906 C 0.60451 0.98436 0.17732 0.0
C907 C 0.59258 0.95343 0.19413 0.0
C908 C 0.63176 0.93721 0.19379 0.0
C909 C 0.57837 0.97709 0.18578 0.0
H910 H 0.66287 0.97143 0.17057 0.0
H911 H 0.64191 0.91724 0.19995 0.0
C912 C 0.82397 0.84298 0.17972 0.0
N913 N 0.89589 0.82494 0.1696 0.0
C914 C 0.83101 0.85756 0.16965 0.0
C915 C 0.8535 0.81925 0.18465 0.0
C916 C 0.86755 0.84809 0.16466 0.0
C917 C 0.88967 0.81045 0.1794 0.0
C918 C 0.74981 0.95698 0.16774 0.0
C919 C 0.76353 0.95695 0.15742 0.0
C920 C 0.74444 0.99386 0.17295 0.0
C921 C 0.772 0.99394 0.15253 0.0
C922 C 0.75321 0.03021 0.16779 0.0
N923 N 0.76673 0.0295 0.15777 0.0
C924 C 0.72118 0.84869 0.15458 0.0
C925 C 0.75658 0.79314 0.16213 0.0
C926 C 0.72079 0.82944 0.1449 0.0
N927 N 0.73944 0.83066 0.16288 0.0
C928 C 0.75653 0.77258 0.1526 0.0
C929 C 0.73912 0.79119 0.14382 0.0
H930 H 0.70755 0.87842 0.15545 0.0
H931 H 0.77103 0.77962 0.16886 0.0
C932 C 0.84939 0.94515 0.19423 0.0
N933 N 0.83079 0.94157 0.18481 0.0
C934 C 0.88899 0.96033 0.19489 0.0
C935 C 0.88922 0.96875 0.17618 0.0
C936 C 0.84971 0.95332 0.17587 0.0
C937 C 0.90961 0.97162 0.18576 0.0
H938 H 0.83388 0.93496 0.20119 0.0
H939 H 0.835 0.94906 0.16844 0.0
O940 O 0.69443 0.85569 0.18482 0.0
O941 O 0.74555 0.91972 0.19682 0.0
O942 O 0.78869 0.85227 0.18484 0.0
O943 O 0.74188 0.921 0.17268 0.0
H944 H 0.61854 0.83472 0.18088 0.0
H945 H 0.7385 0.78869 0.18734 0.0
H946 H 0.59354 0.76357 0.17971 0.0
H947 H 0.71146 0.71852 0.18605 0.0
H948 H 0.74829 0.04864 0.20957 0.0
H949 H 0.69747 0.90811 0.21311 0.0
H950 H 0.76966 0.99657 0.1967 0.0
H951 H 0.6776 0.96164 0.22574 0.0
H952 H 0.67065 0.79653 0.22399 0.0
H953 H 0.80153 0.80296 0.22666 0.0
H954 H 0.5943 0.00137 0.17058 0.0
H955 H 0.57328 0.94683 0.20076 0.0
H956 H 0.80865 0.87622 0.16574 0.0
H957 H 0.84853 0.80784 0.19247 0.0
H958 H 0.87341 0.85924 0.15687 0.0
H959 H 0.91282 0.79215 0.18313 0.0
H960 H 0.768 0.92864 0.15328 0.0
H961 H 0.73317 0.9944 0.18086 0.0
H962 H 0.78284 0.99437 0.14456 0.0
H963 H 0.74916 0.05899 0.17174 0.0
H964 H 0.70655 0.84435 0.13831 0.0
H965 H 0.77094 0.74305 0.15201 0.0
H966 H 0.90353 0.96264 0.20245 0.0
H967 H 0.90426 0.97683 0.16896 0.0
Li968 Li 0.08988 0.21304 0.43531 0.0
Li969 Li 0.14026 0.25113 0.44511 0.0
Li970 Li 0.08704 0.28566 0.43597 0.0
Li971 Li 0.13884 0.25418 0.42573 0.0
C972 C 0.07463 0.22386 0.45641 0.0
N973 N 0.06357 0.17676 0.47403 0.0
C974 C 0.09618 0.18749 0.45762 0.0
C975 C 0.04754 0.23627 0.46417 0.0
C976 C 0.09012 0.1641 0.46658 0.0
C977 C 0.04235 0.21204 0.47302 0.0
C978 C 0.18932 0.19466 0.43409 0.0
C979 C 0.26062 0.21147 0.43313 0.0
N980 N 0.26975 0.17122 0.43247 0.0
C981 C 0.1994 0.15348 0.43339 0.0
C982 C 0.22015 0.22395 0.43396 0.0
C983 C 0.24025 0.14223 0.43258 0.0
C984 C 0.08102 0.13386 0.42829 0.0
N985 N 0.06273 0.16181 0.43453 0.0
C986 C 0.0137 0.11265 0.44008 0.0
C987 C 0.02918 0.15229 0.44023 0.0
C988 C 0.03293 0.08278 0.43397 0.0
C989 C 0.06652 0.09402 0.42787 0.0
H990 H 0.10755 0.14238 0.42381 0.0
H991 H 0.01499 0.17515 0.44508 0.0
C992 C 0.15787 0.27841 0.46505 0.0
N993 N 0.17009 0.25052 0.45788 0.0
C994 C 0.17155 0.27603 0.47533 0.0
C995 C 0.21117 0.21694 0.47062 0.0
C996 C 0.1966 0.22035 0.46043 0.0
C997 C 0.1977 0.24434 0.47826 0.0
H998 H 0.13561 0.30113 0.46292 0.0
H999 H 0.20467 0.19744 0.45479 0.0
C1000 C 0.03927 0.24827 0.42077 0.0
N1001 N 0.9583 0.24269 0.4152 0.0
C1002 C 0.02834 0.2447 0.41028 0.0
C1003 C 0.00902 0.24899 0.42843 0.0
C1004 C 0.98724 0.24193 0.40762 0.0
C1005 C 0.96826 0.24612 0.42545 0.0
C1006 C 0.14678 0.33998 0.43481 0.0
C1007 C 0.13906 0.35765 0.4251 0.0
C1008 C 0.15359 0.36486 0.44347 0.0
C1009 C 0.13776 0.39998 0.42424 0.0
C1010 C 0.15196 0.40706 0.4423 0.0
N1011 N 0.1441 0.4236 0.43279 0.0
C1012 C 0.05116 0.35263 0.44608 0.0
C1013 C 0.04177 0.35209 0.42775 0.0
C1014 C 0.03576 0.39215 0.4467 0.0
N1015 N 0.05478 0.33393 0.43667 0.0
C1016 C 0.02628 0.39163 0.42801 0.0
C1017 C 0.02432 0.41262 0.43754 0.0
H1018 H 0.06226 0.33762 0.45302 0.0
H1019 H 0.04583 0.33689 0.42035 0.0
C1020 C 0.15985 0.22633 0.40605 0.0
N1021 N 0.1692 0.25525 0.41322 0.0
C1022 C 0.17955 0.22574 0.39642 0.0
C1023 C 0.2182 0.28475 0.40176 0.0
C1024 C 0.19804 0.28391 0.41134 0.0
C1025 C 0.20904 0.25534 0.39415 0.0
H1026 H 0.13679 0.20389 0.40782 0.0
H1027 H 0.20499 0.30643 0.41721 0.0
O1028 O 0.08076 0.24807 0.44787 0.0
O1029 O 0.14939 0.20601 0.43478 0.0
O1030 O 0.07947 0.2509 0.42343 0.0
O1031 O 0.1471 0.29856 0.43586 0.0
H1032 H 0.11748 0.17741 0.45175 0.0
H1033 H 0.03087 0.26449 0.46339 0.0
H1034 H 0.10661 0.13593 0.46761 0.0
H1035 H 0.02153 0.22133 0.4791 0.0
H1036 H 0.28478 0.23379 0.43302 0.0
H1037 H 0.1759 0.13044 0.43349 0.0
H1038 H 0.21303 0.25595 0.43452 0.0
H1039 H 0.24849 0.11046 0.43205 0.0
H1040 H 0.98719 0.10537 0.44472 0.0
H1041 H 0.08215 0.07192 0.42306 0.0
H1042 H 0.1606 0.29779 0.48101 0.0
H1043 H 0.23086 0.19173 0.47264 0.0
H1044 H 0.05143 0.24407 0.40427 0.0
H1045 H 0.01675 0.2518 0.43658 0.0
H1046 H 0.97835 0.23917 0.39953 0.0
H1047 H 0.94454 0.24665 0.43129 0.0
H1048 H 0.13323 0.33886 0.41834 0.0
H1049 H 0.15987 0.35176 0.45103 0.0
H1050 H 0.1314 0.41405 0.4168 0.0
H1051 H 0.15688 0.42667 0.44895 0.0
H1052 H 0.0339 0.40694 0.45423 0.0
H1053 H 0.01793 0.40636 0.42077 0.0
H1054 H 0.17181 0.20238 0.39081 0.0
H1055 H 0.24009 0.30863 0.40025 0.0
Li1056 Li 0.7168 0.91136 0.56209 0.0
Li1057 Li 0.75169 0.85794 0.57196 0.0
Li1058 Li 0.79344 0.91189 0.56355 0.0
Li1059 Li 0.75934 0.86046 0.5534 0.0
C1060 C 0.75241 0.95608 0.57867 0.0
N1061 N 0.75514 0.03452 0.58633 0.0
C1062 C 0.75656 0.96288 0.58937 0.0
C1063 C 0.7497 0.98914 0.57186 0.0
C1064 C 0.75785 0.00278 0.59309 0.0
C1065 C 0.75113 0.02857 0.57588 0.0
C1066 C 0.68187 0.82301 0.56419 0.0
C1067 C 0.66208 0.75256 0.56538 0.0
N1068 N 0.62726 0.7638 0.57032 0.0
C1069 C 0.64563 0.83391 0.56915 0.0
C1070 C 0.68996 0.78205 0.56217 0.0
C1071 C 0.61852 0.80352 0.57224 0.0
C1072 C 0.64547 0.9444 0.55292 0.0
N1073 N 0.66653 0.94055 0.56199 0.0
C1074 C 0.61055 0.96775 0.57165 0.0
C1075 C 0.65005 0.95219 0.57125 0.0
C1076 C 0.58766 0.97089 0.56244 0.0
C1077 C 0.60588 0.95983 0.55296 0.0
H1078 H 0.65869 0.93395 0.54572 0.0
H1079 H 0.6669 0.94782 0.5784 0.0
C1080 C 0.78207 0.80675 0.58774 0.0
N1081 N 0.74825 0.82641 0.58433 0.0
C1082 C 0.78168 0.78624 0.59726 0.0
C1083 C 0.71175 0.80686 0.59963 0.0
C1084 C 0.7136 0.82725 0.5901 0.0
C1085 C 0.74614 0.78605 0.60333 0.0
H1086 H 0.8098 0.80806 0.58323 0.0
H1087 H 0.68776 0.84467 0.58745 0.0
C1088 C 0.77021 0.92288 0.54073 0.0
N1089 N 0.79289 0.92307 0.51996 0.0
C1090 C 0.81114 0.92688 0.53795 0.0
C1091 C 0.74086 0.91882 0.53291 0.0
C1092 C 0.82198 0.92707 0.52742 0.0
C1093 C 0.75293 0.91893 0.52246 0.0
C1094 C 0.82662 0.82094 0.5611 0.0
C1095 C 0.86595 0.828 0.55737 0.0
C1096 C 0.81234 0.78109 0.56197 0.0
C1097 C 0.89009 0.79501 0.55441 0.0
C1098 C 0.8374 0.74891 0.55894 0.0
N1099 N 0.87542 0.75648 0.55524 0.0
C1100 C 0.87112 0.92396 0.57135 0.0
C1101 C 0.84942 0.9781 0.56048 0.0
C1102 C 0.91011 0.94044 0.57199 0.0
N1103 N 0.84217 0.94221 0.56541 0.0
C1104 C 0.88814 0.99566 0.56089 0.0
C1105 C 0.91933 0.97608 0.56647 0.0
H1106 H 0.86434 0.89557 0.57524 0.0
H1107 H 0.82569 0.99213 0.55589 0.0
C1108 C 0.72958 0.8141 0.53634 0.0
N1109 N 0.76377 0.8295 0.54081 0.0
C1110 C 0.73129 0.79679 0.52638 0.0
C1111 C 0.80345 0.81055 0.526 0.0
C1112 C 0.80035 0.82754 0.5359 0.0
C1113 C 0.76851 0.79571 0.52102 0.0
H1114 H 0.7007 0.81675 0.54031 0.0
H1115 H 0.82677 0.84134 0.53939 0.0
O1116 O 0.75136 0.91716 0.57493 0.0
O1117 O 0.70869 0.85237 0.56106 0.0
O1118 O 0.75911 0.92184 0.55103 0.0
O1119 O 0.80256 0.85288 0.56405 0.0
H1120 H 0.75876 0.93756 0.59474 0.0
H1121 H 0.74649 0.98447 0.56355 0.0
H1122 H 0.76104 0.00852 0.60136 0.0
H1123 H 0.74906 0.05445 0.57071 0.0
H1124 H 0.66804 0.72073 0.5639 0.0
H1125 H 0.63864 0.86546 0.57068 0.0
H1126 H 0.71726 0.77314 0.55807 0.0
H1127 H 0.59052 0.81152 0.57617 0.0
H1128 H 0.59777 0.97648 0.5791 0.0
H1129 H 0.58911 0.96155 0.54571 0.0
H1130 H 0.80931 0.77181 0.59998 0.0
H1131 H 0.68388 0.80777 0.60413 0.0
H1132 H 0.8345 0.92874 0.54384 0.0
H1133 H 0.70921 0.9147 0.53485 0.0
H1134 H 0.85357 0.92993 0.52519 0.0
H1135 H 0.73054 0.91546 0.51634 0.0
H1136 H 0.8775 0.85866 0.55661 0.0
H1137 H 0.78237 0.77507 0.56506 0.0
H1138 H 0.92045 0.80004 0.55143 0.0
H1139 H 0.82667 0.71791 0.55956 0.0
H1140 H 0.93329 0.92451 0.57638 0.0
H1141 H 0.89388 0.0237 0.55672 0.0
H1142 H 0.70371 0.78533 0.52283 0.0
H1143 H 0.83259 0.81093 0.52206 0.0
Li1144 Li 0.13534 0.24936 0.82405 0.0
Li1145 Li 0.08542 0.21807 0.81331 0.0
Li1146 Li 0.14011 0.25185 0.80466 0.0
Li1147 Li 0.08818 0.29061 0.81386 0.0
C1148 C 0.1442 0.16338 0.81495 0.0
N1149 N 0.13964 0.07975 0.81659 0.0
C1150 C 0.13651 0.14524 0.8246 0.0
C1151 C 0.15006 0.139 0.80615 0.0
C1152 C 0.13423 0.1029 0.82527 0.0
C1153 C 0.14748 0.09676 0.80714 0.0
C1154 C 0.03516 0.25619 0.8279 0.0
C1155 C 0.96501 0.2589 0.82245 0.0
N1156 N 0.95341 0.26278 0.83258 0.0
C1157 C 0.02256 0.26022 0.83825 0.0
C1158 C 0.00618 0.25552 0.81992 0.0
C1159 C 0.98108 0.2635 0.84046 0.0
C1160 C 0.15152 0.27658 0.84404 0.0
N1161 N 0.16354 0.24866 0.83687 0.0
C1162 C 0.21331 0.22206 0.84858 0.0
C1163 C 0.19387 0.22173 0.83889 0.0
C1164 C 0.20155 0.25065 0.85613 0.0
C1165 C 0.17023 0.27813 0.85379 0.0
H1166 H 0.12721 0.29752 0.84217 0.0
H1167 H 0.20293 0.20003 0.833 0.0
C1168 C 0.04938 0.15103 0.80312 0.0
N1169 N 0.05274 0.17019 0.81247 0.0
C1170 C 0.03269 0.11201 0.80256 0.0
C1171 C 0.02164 0.11403 0.82119 0.0
C1172 C 0.03863 0.15291 0.8214 0.0
C1173 C 0.01916 0.09281 0.81171 0.0
H1174 H 0.06159 0.16524 0.79619 0.0
H1175 H 0.04274 0.16833 0.82877 0.0
C1176 C 0.18698 0.30923 0.8164 0.0
N1177 N 0.26633 0.33389 0.81956 0.0
C1178 C 0.19611 0.35053 0.81742 0.0
C1179 C 0.21819 0.28044 0.817 0.0
C1180 C 0.23644 0.36239 0.819 0.0
C1181 C 0.25811 0.29354 0.81861 0.0
C1182 C 0.07636 0.2796 0.7927 0.0
C1183 C 0.09909 0.31531 0.79161 0.0
C1184 C 0.04933 0.26817 0.78483 0.0
C1185 C 0.09433 0.33897 0.78265 0.0
C1186 C 0.0454 0.29268 0.77599 0.0
N1187 N 0.06781 0.32726 0.77509 0.0
C1188 C 0.15885 0.22674 0.78457 0.0
C1189 C 0.20112 0.28066 0.79028 0.0
C1190 C 0.17367 0.23046 0.77441 0.0
N1191 N 0.17208 0.25218 0.7922 0.0
C1192 C 0.21713 0.28509 0.78027 0.0
C1193 C 0.20255 0.26059 0.77211 0.0
H1194 H 0.13464 0.20542 0.78621 0.0
H1195 H 0.21021 0.3017 0.79628 0.0
C1196 C 0.07742 0.36943 0.82097 0.0
N1197 N 0.06094 0.34179 0.81432 0.0
C1198 C 0.06235 0.40905 0.82137 0.0
C1199 C 0.01285 0.3909 0.80824 0.0
C1200 C 0.02881 0.35147 0.80812 0.0
C1201 C 0.02987 0.42036 0.81489 0.0
H1202 H 0.10281 0.36076 0.82585 0.0
H1203 H 0.01617 0.32892 0.80292 0.0
O1204 O 0.14539 0.20482 0.81409 0.0
O1205 O 0.07575 0.25315 0.82568 0.0
O1206 O 0.14753 0.29718 0.81504 0.0
O1207 O 0.08096 0.25526 0.80128 0.0
H1208 H 0.13151 0.16369 0.83147 0.0
H1209 H 0.15616 0.15253 0.79863 0.0
H1210 H 0.12788 0.08846 0.83267 0.0
H1211 H 0.15161 0.07752 0.80038 0.0
H1212 H 0.94227 0.25843 0.81636 0.0
H1213 H 0.04464 0.26083 0.84451 0.0
H1214 H 0.01521 0.25238 0.81186 0.0
H1215 H 0.9709 0.26663 0.84844 0.0
H1216 H 0.23749 0.20052 0.85012 0.0
H1217 H 0.15998 0.3002 0.85948 0.0
H1218 H 0.03131 0.09659 0.79511 0.0
H1219 H 0.01242 0.09995 0.82845 0.0
H1220 H 0.1723 0.37318 0.81698 0.0
H1221 H 0.21175 0.24837 0.8162 0.0
H1222 H 0.24396 0.39426 0.81979 0.0
H1223 H 0.28255 0.27161 0.81908 0.0
H1224 H 0.12026 0.32471 0.79758 0.0
H1225 H 0.03167 0.24052 0.78553 0.0
H1226 H 0.11177 0.36661 0.7817 0.0
H1227 H 0.0246 0.28416 0.76983 0.0
H1228 H 0.16063 0.21178 0.76832 0.0
H1229 H 0.23922 0.30885 0.7788 0.0
H1230 H 0.07611 0.43072 0.82666 0.0
H1231 H 0.98823 0.39851 0.80299 0.0
Li1232 Li 0.75026 0.6356 0.07269 0.0
Li1233 Li 0.78625 0.58314 0.06324 0.0
Li1234 Li 0.74416 0.63287 0.05391 0.0
Li1235 Li 0.71126 0.58037 0.06417 0.0
C1236 C 0.81609 0.67668 0.06418 0.0
N1237 N 0.86064 0.74566 0.06876 0.0
C1238 C 0.85706 0.67345 0.06699 0.0
C1239 C 0.79791 0.71501 0.06364 0.0
C1240 C 0.87904 0.70868 0.06929 0.0
C1241 C 0.8209 0.74952 0.066 0.0
C1242 C 0.77347 0.56885 0.08473 0.0
C1243 C 0.78016 0.53833 0.10173 0.0
N1244 N 0.8176 0.55547 0.10273 0.0
C1245 C 0.81199 0.58615 0.08592 0.0
C1246 C 0.75736 0.54475 0.09269 0.0
C1247 C 0.83384 0.57903 0.09508 0.0
C1248 C 0.71355 0.67309 0.08969 0.0
N1249 N 0.75021 0.66829 0.08495 0.0
C1250 C 0.78334 0.70498 0.0986 0.0
C1251 C 0.78487 0.68344 0.08925 0.0
C1252 C 0.74589 0.71038 0.10364 0.0
C1253 C 0.71067 0.69409 0.09912 0.0
H1254 H 0.6866 0.66001 0.08621 0.0
H1255 H 0.81389 0.67803 0.0856 0.0
C1256 C 0.8634 0.57108 0.05534 0.0
N1257 N 0.83641 0.55448 0.06214 0.0
C1258 C 0.90284 0.5558 0.0546 0.0
C1259 C 0.88566 0.50545 0.06761 0.0
C1260 C 0.84641 0.52179 0.06811 0.0
C1261 C 0.91452 0.52276 0.06084 0.0
H1262 H 0.85458 0.59717 0.05073 0.0
H1263 H 0.82431 0.50905 0.07343 0.0
C1264 C 0.67489 0.66869 0.06059 0.0
N1265 N 0.62381 0.72817 0.05284 0.0
C1266 C 0.64387 0.65845 0.05362 0.0
C1267 C 0.67939 0.70906 0.06378 0.0
C1268 C 0.61853 0.68898 0.04974 0.0
C1269 C 0.6534 0.73873 0.05973 0.0
C1270 C 0.74782 0.5329 0.04893 0.0
C1271 C 0.74925 0.52217 0.0384 0.0
C1272 C 0.74795 0.50251 0.05655 0.0
C1273 C 0.75088 0.4811 0.03565 0.0
C1274 C 0.74964 0.46179 0.05349 0.0
N1275 N 0.75105 0.45201 0.04319 0.0
C1276 C 0.76261 0.69084 0.03764 0.0
C1277 C 0.71035 0.64273 0.03449 0.0
C1278 C 0.75893 0.70592 0.02749 0.0
N1279 N 0.73842 0.65978 0.0409 0.0
C1280 C 0.70562 0.65683 0.02432 0.0
C1281 C 0.73063 0.68829 0.02066 0.0
H1282 H 0.78561 0.70306 0.04275 0.0
H1283 H 0.69224 0.61742 0.03721 0.0
C1284 C 0.64545 0.54126 0.07429 0.0
N1285 N 0.66228 0.54982 0.06487 0.0
C1286 C 0.60598 0.52558 0.07489 0.0
C1287 C 0.60243 0.52697 0.05607 0.0
C1288 C 0.64205 0.54225 0.05584 0.0
C1289 C 0.58346 0.51943 0.0657 0.0
H1290 H 0.66208 0.54812 0.08135 0.0
H1291 H 0.65596 0.55003 0.04846 0.0
O1292 O 0.79397 0.64244 0.06203 0.0
O1293 O 0.75131 0.57568 0.07587 0.0
O1294 O 0.70011 0.63922 0.06444 0.0
O1295 O 0.74625 0.57303 0.05169 0.0
H1296 H 0.87167 0.64406 0.06749 0.0
H1297 H 0.76645 0.71808 0.06138 0.0
H1298 H 0.91069 0.70661 0.07152 0.0
H1299 H 0.80714 0.77936 0.06563 0.0
H1300 H 0.76807 0.51974 0.10796 0.0
H1301 H 0.82491 0.60484 0.07984 0.0
H1302 H 0.72755 0.53115 0.09189 0.0
H1303 H 0.8637 0.59226 0.09609 0.0
H1304 H 0.81125 0.71638 0.10201 0.0
H1305 H 0.68131 0.69754 0.10285 0.0
H1306 H 0.92433 0.57055 0.04944 0.0
H1307 H 0.89352 0.47984 0.07252 0.0
H1308 H 0.63955 0.62729 0.05118 0.0
H1309 H 0.70248 0.71741 0.06939 0.0
H1310 H 0.59463 0.68152 0.04427 0.0
H1311 H 0.65666 0.77012 0.06211 0.0
H1312 H 0.74909 0.54539 0.03241 0.0
H1313 H 0.74673 0.51015 0.06474 0.0
H1314 H 0.75202 0.47235 0.02752 0.0
H1315 H 0.7498 0.43795 0.0593 0.0
H1316 H 0.77884 0.73013 0.02489 0.0
H1317 H 0.68296 0.64292 0.01934 0.0
H1318 H 0.59292 0.51923 0.08246 0.0
H1319 H 0.58619 0.52283 0.0488 0.0
Li1320 Li 0.35856 0.25583 0.32214 0.0
Li1321 Li 0.41449 0.29075 0.31332 0.0
Li1322 Li 0.36312 0.25079 0.30346 0.0
Li1323 Li 0.41417 0.21504 0.31353 0.0
C1324 C 0.32743 0.32705 0.31587 0.0
N1325 N 0.27144 0.38 0.32445 0.0
C1326 C 0.34034 0.36371 0.32028 0.0
C1327 C 0.28602 0.31755 0.31571 0.0
C1328 C 0.31156 0.39003 0.32461 0.0
C1329 C 0.2582 0.34463 0.32013 0.0
C1330 C 0.44805 0.25646 0.33274 0.0
C1331 C 0.51611 0.24069 0.33853 0.0
N1332 N 0.50902 0.2612 0.34755 0.0
C1333 C 0.44134 0.27694 0.34214 0.0
C1334 C 0.48564 0.23779 0.33098 0.0
C1335 C 0.47257 0.27919 0.3495 0.0
C1336 C 0.30113 0.22636 0.33681 0.0
N1337 N 0.32512 0.25847 0.3342 0.0
C1338 C 0.30871 0.29231 0.35013 0.0
C1339 C 0.32869 0.29137 0.34055 0.0
C1340 C 0.28479 0.25908 0.35317 0.0
C1341 C 0.28025 0.22619 0.3463 0.0
H1342 H 0.29928 0.20035 0.33168 0.0
H1343 H 0.3482 0.31633 0.33834 0.0
C1344 C 0.44208 0.36155 0.30395 0.0
N1345 N 0.44424 0.3404 0.31303 0.0
C1346 C 0.4574 0.40106 0.30334 0.0
C1347 C 0.47814 0.39582 0.32137 0.0
C1348 C 0.46231 0.35641 0.32164 0.0
C1349 C 0.47487 0.41895 0.31221 0.0
H1350 H 0.42715 0.34814 0.29726 0.0
H1351 H 0.46308 0.33938 0.32881 0.0
C1352 C 0.32733 0.18215 0.3083 0.0
N1353 N 0.27294 0.1355 0.29706 0.0
C1354 C 0.34093 0.14823 0.30274 0.0
C1355 C 0.28601 0.19203 0.30826 0.0
C1356 C 0.31297 0.1251 0.29708 0.0
C1357 C 0.25901 0.16817 0.30249 0.0
C1358 C 0.46174 0.25059 0.29745 0.0
C1359 C 0.46803 0.23808 0.28715 0.0
C1360 C 0.49496 0.26243 0.30351 0.0
C1361 C 0.50759 0.23672 0.28319 0.0
C1362 C 0.53405 0.26069 0.29928 0.0
N1363 N 0.53952 0.24791 0.28929 0.0
C1364 C 0.30405 0.27085 0.28765 0.0
C1365 C 0.35138 0.21839 0.28394 0.0
C1366 C 0.28715 0.26718 0.27767 0.0
N1367 N 0.33566 0.24665 0.29052 0.0
C1368 C 0.33558 0.21376 0.27395 0.0
C1369 C 0.3033 0.23852 0.27068 0.0
H1370 H 0.29249 0.29343 0.29301 0.0
H1371 H 0.37653 0.19964 0.28646 0.0
C1372 C 0.44217 0.14436 0.32346 0.0
N1373 N 0.44314 0.165 0.31428 0.0
C1374 C 0.45752 0.10481 0.32407 0.0
C1375 C 0.47525 0.1088 0.30581 0.0
C1376 C 0.45949 0.14821 0.30555 0.0
C1377 C 0.4736 0.08631 0.3151 0.0
H1378 H 0.42832 0.15822 0.33024 0.0
H1379 H 0.45862 0.1646 0.29826 0.0
O1380 O 0.35517 0.30079 0.31164 0.0
O1381 O 0.41748 0.25334 0.32552 0.0
O1382 O 0.35438 0.20574 0.31369 0.0
O1383 O 0.42311 0.2522 0.30141 0.0
H1384 H 0.37221 0.3717 0.32045 0.0
H1385 H 0.27548 0.2895 0.31226 0.0
H1386 H 0.32114 0.4184 0.32809 0.0
H1387 H 0.22608 0.33754 0.32012 0.0
H1388 H 0.54534 0.22649 0.33723 0.0
H1389 H 0.4125 0.29128 0.34373 0.0
H1390 H 0.4913 0.22097 0.32389 0.0
H1391 H 0.46781 0.29521 0.35676 0.0
H1392 H 0.31249 0.31837 0.3552 0.0
H1393 H 0.26207 0.20001 0.34843 0.0
H1394 H 0.45496 0.41771 0.29609 0.0
H1395 H 0.49132 0.40866 0.32838 0.0
H1396 H 0.37277 0.14007 0.3027 0.0
H1397 H 0.27493 0.21792 0.3126 0.0
H1398 H 0.32311 0.09895 0.29268 0.0
H1399 H 0.22697 0.17562 0.30234 0.0
H1400 H 0.44267 0.22936 0.28227 0.0
H1401 H 0.49065 0.27333 0.31137 0.0
H1402 H 0.5129 0.22683 0.27527 0.0
H1403 H 0.56001 0.26967 0.30391 0.0
H1404 H 0.26255 0.28712 0.27536 0.0
H1405 H 0.3486 0.1911 0.26881 0.0
H1406 H 0.45623 0.08864 0.33141 0.0
H1407 H 0.48706 0.09544 0.29871 0.0
C1408 C 0.27248 0.23925 0.1181 0.0
C1409 C 0.24615 0.27137 0.11554 0.0
C1410 C 0.27195 0.22175 0.12806 0.0
C1411 C 0.24526 0.23596 0.13584 0.0
H1412 H 0.29314 0.22711 0.1123 0.0
H1413 H 0.2921 0.19641 0.12963 0.0
S1414 S 0.17323 0.32223 0.13331 0.0
N1415 N 0.19451 0.31843 0.12169 0.0
N1416 N 0.19385 0.28596 0.14048 0.0
C1417 C 0.21948 0.26876 0.13343 0.0
C1418 C 0.21987 0.28638 0.12327 0.0
C1419 C 0.78906 0.76601 0.3761 0.0
C1420 C 0.77111 0.74535 0.38453 0.0
C1421 C 0.77079 0.76616 0.36624 0.0
C1422 C 0.73391 0.74567 0.36444 0.0
H1423 H 0.81774 0.78174 0.37711 0.0
H1424 H 0.7859 0.78204 0.35993 0.0
S1425 S 0.67292 0.68998 0.38416 0.0
N1426 N 0.71344 0.70571 0.39061 0.0
N1427 N 0.67887 0.7062 0.37207 0.0
C1428 C 0.71533 0.72542 0.37285 0.0
C1429 C 0.73399 0.7252 0.38289 0.0
C1430 C 0.24241 0.21179 0.62298 0.0
C1431 C 0.25674 0.23357 0.61428 0.0
C1432 C 0.24287 0.229 0.63297 0.0
C1433 C 0.25758 0.26864 0.63463 0.0
H1434 H 0.23126 0.181 0.62206 0.0
H1435 H 0.23206 0.21096 0.63947 0.0
S1436 S 0.29508 0.33952 0.61425 0.0
N1437 N 0.28406 0.29739 0.60784 0.0
N1438 N 0.28442 0.33009 0.6266 0.0
C1439 C 0.27133 0.29097 0.62595 0.0
C1440 C 0.27105 0.27335 0.61579 0.0
C1441 C 0.74467 0.73245 0.86772 0.0
C1442 C 0.77761 0.75847 0.86564 0.0
C1443 C 0.72609 0.73187 0.87755 0.0
C1444 C 0.73986 0.75719 0.88565 0.0
H1445 H 0.73284 0.71277 0.86166 0.0
H1446 H 0.70035 0.71186 0.87876 0.0
S1447 S 0.82731 0.82826 0.88444 0.0
N1448 N 0.82469 0.80852 0.87262 0.0
N1449 N 0.78984 0.80731 0.89112 0.0
C1450 C 0.77319 0.78287 0.88372 0.0
C1451 C 0.79205 0.78353 0.8737 0.0
C1452 C 0.72959 0.78689 0.62239 0.0
C1453 C 0.74562 0.76612 0.61371 0.0
C1454 C 0.72983 0.76928 0.63234 0.0
C1455 C 0.74639 0.73042 0.63398 0.0
H1456 H 0.71738 0.81729 0.62153 0.0
H1457 H 0.71754 0.78642 0.63883 0.0
S1458 S 0.78878 0.66188 0.61377 0.0
N1459 N 0.77599 0.70344 0.60733 0.0
N1460 N 0.777 0.67067 0.62608 0.0
C1461 C 0.7619 0.70904 0.62537 0.0
C1462 C 0.76141 0.72682 0.61523 0.0
C1463 C 0.24364 0.21574 0.88218 0.0
C1464 C 0.2599 0.2517 0.88643 0.0
C1465 C 0.22488 0.21564 0.87237 0.0
C1466 C 0.2216 0.2515 0.86647 0.0
H1467 H 0.24531 0.18747 0.8865 0.0
H1468 H 0.21252 0.18735 0.86942 0.0
S1469 S 0.26173 0.35301 0.8737 0.0
N1470 N 0.27325 0.32367 0.88372 0.0
N1471 N 0.2376 0.32348 0.86533 0.0
C1472 C 0.23788 0.2876 0.87058 0.0
C1473 C 0.2571 0.2877 0.88055 0.0
C1474 C 0.72645 0.71245 0.12247 0.0
C1475 C 0.74382 0.73181 0.11376 0.0
C1476 C 0.7253 0.73172 0.13221 0.0
C1477 C 0.74086 0.7712 0.13351 0.0
H1478 H 0.71425 0.68198 0.12177 0.0
H1479 H 0.71185 0.71581 0.13876 0.0
S1480 S 0.78911 0.83497 0.11313 0.0
N1481 N 0.77669 0.79253 0.10703 0.0
N1482 N 0.7743 0.82889 0.12534 0.0
C1483 C 0.75804 0.79095 0.12485 0.0
C1484 C 0.75962 0.77118 0.11497 0.0
C1485 C 0.2059 0.25111 0.37465 0.0
C1486 C 0.2292 0.25603 0.38378 0.0
C1487 C 0.22406 0.2519 0.36476 0.0
C1488 C 0.2661 0.25804 0.36365 0.0
H1489 H 0.17325 0.24713 0.37513 0.0
H1490 H 0.20504 0.24827 0.35793 0.0
S1491 S 0.34121 0.26907 0.38502 0.0
N1492 N 0.29704 0.26455 0.39103 0.0
N1493 N 0.33093 0.26695 0.37243 0.0
C1494 C 0.28985 0.2625 0.37268 0.0
C1495 C 0.27146 0.26132 0.38275 0.0
C1496 C 0.30279 0.22676 0.24133 0.0
C1497 C 0.26178 0.21836 0.23908 0.0
C1498 C 0.31557 0.23466 0.25153 0.0
C1499 C 0.28785 0.23466 0.25987 0.0
H1500 H 0.32555 0.22544 0.23523 0.0
H1501 H 0.34764 0.23987 0.25293 0.0
S1502 S 0.17663 0.21772 0.25805 0.0
N1503 N 0.193 0.21326 0.24593 0.0
N1504 N 0.21725 0.22769 0.26518 0.0
C1505 C 0.24649 0.22811 0.2577 0.0
C1506 C 0.23343 0.21993 0.24729 0.0
C1507 C 0.80974 0.74728 0.4964 0.0
C1508 C 0.7859 0.76515 0.48853 0.0
C1509 C 0.80255 0.75569 0.50694 0.0
C1510 C 0.77116 0.78214 0.51002 0.0
H1511 H 0.83551 0.72831 0.4944 0.0
H1512 H 0.82261 0.74247 0.51273 0.0
S1513 S 0.69779 0.83386 0.4925 0.0
N1514 N 0.72751 0.80779 0.48456 0.0
N1515 N 0.71465 0.82447 0.50439 0.0
C1516 C 0.74579 0.79859 0.50227 0.0
C1517 C 0.75307 0.78996 0.49152 0.0
C1518 C 0.21722 0.321 0.74725 0.0
C1519 C 0.22558 0.29102 0.73973 0.0
C1520 C 0.21109 0.31084 0.75772 0.0
C1521 C 0.21316 0.27024 0.76113 0.0
H1522 H 0.21496 0.35269 0.74502 0.0
H1523 H 0.20341 0.33497 0.76312 0.0
S1524 S 0.23619 0.18041 0.74466 0.0
N1525 N 0.23675 0.21909 0.73644 0.0
N1526 N 0.22609 0.19998 0.75623 0.0
C1527 C 0.22259 0.23999 0.75375 0.0
C1528 C 0.22878 0.25039 0.74304 0.0
C1529 C 0.72182 0.74334 0.00735 0.0
C1530 C 0.72743 0.70194 0.00968 0.0
C1531 C 0.71493 0.75624 0.99707 0.0
C1532 C 0.71395 0.72824 0.98878 0.0
H1533 H 0.7213 0.7657 0.01355 0.0
H1534 H 0.70954 0.78825 0.99562 0.0
S1535 S 0.72946 0.61673 0.99074 0.0
N1536 N 0.73398 0.63334 0.00283 0.0
N1537 N 0.72025 0.65738 0.98358 0.0
C1538 C 0.72095 0.68694 0.99098 0.0
C1539 C 0.72784 0.67385 0.00142 0.0
C1540 C 0.24862 0.27405 0.00376 0.0
C1541 C 0.27814 0.2802 0.01155 0.0
C1542 C 0.25994 0.26727 0.99335 0.0
C1543 C 0.3011 0.26713 0.9904 0.0
H1544 H 0.21658 0.27543 0.00569 0.0
H1545 H 0.23638 0.26382 0.98751 0.0
S1546 S 0.39003 0.27991 0.00785 0.0
N1547 N 0.35025 0.28432 0.01563 0.0
N1548 N 0.37141 0.27139 0.9961 0.0
C1549 C 0.33085 0.27185 0.99816 0.0
C1550 C 0.31941 0.27841 0.00874 0.0
C1551 C 0.74302 0.80023 0.25612 0.0
C1552 C 0.71708 0.76848 0.25924 0.0
C1553 C 0.75083 0.80766 0.24555 0.0
C1554 C 0.73267 0.78383 0.23772 0.0
H1555 H 0.75635 0.82029 0.26188 0.0
H1556 H 0.76956 0.83354 0.24348 0.0
S1557 S 0.66492 0.69514 0.2418 0.0
N1558 N 0.67501 0.71166 0.25368 0.0
N1559 N 0.69011 0.7254 0.23381 0.0
C1560 C 0.70824 0.75081 0.24075 0.0
C1561 C 0.70041 0.74313 0.25151 0.0
C1562 C 0.24852 0.23119 0.49243 0.0
C1563 C 0.20793 0.23741 0.48937 0.0
C1564 C 0.25831 0.22135 0.50277 0.0
C1565 C 0.22783 0.21727 0.51041 0.0
H1566 H 0.27281 0.23351 0.48676 0.0
H1567 H 0.28991 0.21637 0.50479 0.0
S1568 S 0.1167 0.22797 0.50621 0.0
N1569 N 0.13699 0.23748 0.49469 0.0
N1570 N 0.1553 0.21884 0.51409 0.0
C1571 C 0.18715 0.22369 0.50745 0.0
C1572 C 0.17722 0.23376 0.49694 0.0
C1573 C 0.76821 0.74451 0.74327 0.0
C1574 C 0.7752 0.70468 0.73971 0.0
C1575 C 0.77523 0.75502 0.75373 0.0
C1576 C 0.78868 0.72582 0.76097 0.0
H1577 H 0.75835 0.76787 0.73788 0.0
H1578 H 0.77042 0.7862 0.75616 0.0
S1579 S 0.81 0.61708 0.75558 0.0
N1580 N 0.79498 0.63574 0.74427 0.0
N1581 N 0.80841 0.65547 0.76386 0.0
C1582 C 0.79486 0.68574 0.75753 0.0
C1583 C 0.78805 0.67517 0.74691 0.0
C1584 C 0.00513 0.03363 0.18084 0.0
C1585 C 0.03551 0.01121 0.18602 0.0
C1586 C 0.96449 0.0208 0.18087 0.0
C1587 C 0.95264 0.98515 0.1861 0.0
H1588 H 0.01275 0.06161 0.17684 0.0
H1589 H 0.94209 0.03911 0.17683 0.0
S1590 S 0.02081 0.914 0.20018 0.0
N1591 N 0.05123 0.95063 0.19609 0.0
N1592 N 0.97478 0.92653 0.19616 0.0
C1593 C 0.98272 0.96225 0.19123 0.0
C1594 C 0.02414 0.97528 0.19119 0.0
C1595 C 0.97757 0.46931 0.43226 0.0
C1596 C 0.01212 0.45618 0.43779 0.0
C1597 C 0.96626 0.51043 0.4321 0.0
C1598 C 0.989 0.54 0.43748 0.0
H1599 H 0.95898 0.44759 0.42807 0.0
H1600 H 0.93922 0.5191 0.42782 0.0
S1601 S 0.08373 0.52211 0.45245 0.0
N1602 N 0.07026 0.47654 0.4483 0.0
N1603 N 0.04858 0.55369 0.4481 0.0
C1604 C 0.02373 0.52741 0.44297 0.0
C1605 C 0.03539 0.48556 0.4431 0.0
C1606 C 0.46902 0.52375 0.68372 0.0
C1607 C 0.45878 0.48526 0.68769 0.0
C1608 C 0.50952 0.53699 0.68345 0.0
C1609 C 0.54137 0.51214 0.68709 0.0
H1610 H 0.4455 0.54387 0.68082 0.0
H1611 H 0.5159 0.56706 0.68042 0.0
S1612 S 0.53084 0.40765 0.69764 0.0
N1613 N 0.48378 0.42183 0.695 0.0
N1614 N 0.55999 0.44659 0.69444 0.0
C1615 C 0.53154 0.47351 0.69106 0.0
C1616 C 0.49025 0.46009 0.69136 0.0
C1617 C 0.5234 0.03161 0.93113 0.0
C1618 C 0.48566 0.04251 0.93545 0.0
C1619 C 0.5363 0.991 0.931 0.0
C1620 C 0.51183 0.95976 0.93513 0.0
H1621 H 0.54332 0.05472 0.92794 0.0
H1622 H 0.56593 0.98409 0.92776 0.0
S1623 S 0.40887 0.97203 0.94651 0.0
N1624 N 0.423 0.0187 0.94344 0.0
N1625 N 0.44715 0.9423 0.94314 0.0
C1626 C 0.47375 0.97021 0.93932 0.0
C1627 C 0.46068 0.01158 0.93949 0.0
C1628 C 0.0196 0.49025 0.06998 0.0
C1629 C 0.04015 0.48191 0.0606 0.0
C1630 C 0.97881 0.50277 0.07 0.0
C1631 C 0.95714 0.50774 0.06062 0.0
H1632 H 0.03499 0.48648 0.07739 0.0
H1633 H 0.9643 0.50913 0.0774 0.0
S1634 S 0.99709 0.49016 0.03395 0.0
N1635 N 0.03594 0.48008 0.04168 0.0
N1636 N 0.95915 0.50296 0.04171 0.0
C1637 C 0.97736 0.49959 0.05119 0.0
C1638 C 0.01884 0.48679 0.05118 0.0
C1639 C 0.54023 0.51305 0.31594 0.0
C1640 C 0.5149 0.5447 0.31241 0.0
C1641 C 0.52719 0.47248 0.31579 0.0
C1642 C 0.4884 0.462 0.31205 0.0
H1643 H 0.57056 0.51964 0.31877 0.0
H1644 H 0.54774 0.44908 0.31854 0.0
S1645 S 0.40942 0.53361 0.30258 0.0
N1646 N 0.44856 0.56295 0.30549 0.0
N1647 N 0.42406 0.48666 0.30517 0.0
C1648 C 0.46266 0.49333 0.30855 0.0
C1649 C 0.47592 0.53466 0.30873 0.0
C1650 C 0.53064 0.01432 0.55578 0.0
C1651 C 0.54451 0.98426 0.56272 0.0
C1652 C 0.48996 0.02713 0.55585 0.0
C1653 C 0.46157 0.0103 0.56284 0.0
H1654 H 0.55152 0.02842 0.55034 0.0
H1655 H 0.48082 0.05092 0.5505 0.0
S1656 S 0.48164 0.92797 0.58193 0.0
N1657 N 0.52611 0.9362 0.57633 0.0
N1658 N 0.44968 0.96029 0.57646 0.0
C1659 C 0.47489 0.9797 0.5697 0.0
C1660 C 0.51632 0.96669 0.56964 0.0
C1661 C 0.02868 0.01999 0.80647 0.0
C1662 C 0.0051 0.04988 0.81149 0.0
C1663 C 0.01718 0.97889 0.80662 0.0
C1664 C 0.9818 0.96618 0.81185 0.0
H1665 H 0.05673 0.0283 0.80258 0.0
H1666 H 0.03654 0.9568 0.8028 0.0
S1667 S 0.90747 0.03293 0.8253 0.0
N1668 N 0.94333 0.06426 0.82121 0.0
N1669 N 0.92176 0.98711 0.82152 0.0
C1670 C 0.95746 0.99589 0.81668 0.0
C1671 C 0.96911 0.03769 0.81651 0.0
C1672 C 0.50371 0.96501 0.18817 0.0
C1673 C 0.53564 0.99183 0.18566 0.0
C1674 C 0.46308 0.97792 0.18807 0.0
C1675 C 0.45282 0.01807 0.18539 0.0
H1676 H 0.51012 0.93361 0.19012 0.0
H1677 H 0.43948 0.9562 0.18999 0.0
S1678 S 0.52502 0.10103 0.17896 0.0
N1679 N 0.55427 0.06095 0.18094 0.0
N1680 N 0.47785 0.08514 0.18068 0.0
C1681 C 0.48439 0.04532 0.18296 0.0
C1682 C 0.52579 0.03221 0.1831 0.0
C1683 C 0.99949 0.97851 0.42441 0.0
C1684 C 0.99329 0.95671 0.43372 0.0
C1685 C 0.01223 0.01922 0.42457 0.0
C1686 C 0.01873 0.03986 0.43403 0.0
H1687 H 0.99466 0.96389 0.41695 0.0
H1688 H 0.01666 0.03479 0.41721 0.0
S1689 S 0.00647 0.99661 0.46056 0.0
N1690 N 0.99418 0.95892 0.45266 0.0
N1691 N 0.01852 0.03527 0.45295 0.0
C1692 C 0.01257 0.01845 0.44339 0.0
C1693 C 0.99986 0.97692 0.44324 0.0
C1694 C 0.02968 0.52423 0.68683 0.0
C1695 C 0.04082 0.48646 0.68257 0.0
C1696 C 0.98895 0.53676 0.68703 0.0
C1697 C 0.95774 0.51189 0.68304 0.0
H1698 H 0.05265 0.54429 0.69002 0.0
H1699 H 0.98186 0.56626 0.69032 0.0
S1700 S 0.9707 0.40917 0.67159 0.0
N1701 N 0.01734 0.4237 0.67457 0.0
N1702 N 0.94071 0.44718 0.67501 0.0
C1703 C 0.96848 0.47405 0.67876 0.0
C1704 C 0.01001 0.46134 0.67852 0.0
C1705 C 0.47923 0.48794 0.9275 0.0
C1706 C 0.49763 0.45909 0.93411 0.0
C1707 C 0.49129 0.52885 0.92762 0.0
C1708 C 0.52195 0.54241 0.93441 0.0
H1709 H 0.4546 0.47905 0.92237 0.0
H1710 H 0.47591 0.55019 0.92254 0.0
S1711 S 0.58279 0.47856 0.95242 0.0
N1712 N 0.55037 0.44654 0.94701 0.0
N1713 N 0.5726 0.52352 0.94732 0.0
C1714 C 0.54136 0.51379 0.94084 0.0
C1715 C 0.52929 0.47213 0.94068 0.0
C1716 C 0.52543 0.4767 0.05921 0.0
C1717 C 0.53995 0.50681 0.06607 0.0
C1718 C 0.48426 0.46552 0.05909 0.0
C1719 C 0.45602 0.48387 0.06585 0.0
H1720 H 0.54608 0.46149 0.05391 0.0
H1721 H 0.47451 0.44202 0.05372 0.0
S1722 S 0.47754 0.566 0.08484 0.0
N1723 N 0.52208 0.55616 0.07945 0.0
N1724 N 0.44494 0.53442 0.07934 0.0
C1725 C 0.46997 0.51398 0.07274 0.0
C1726 C 0.51184 0.52562 0.07282 0.0
C1727 C 0.52531 0.03273 0.31103 0.0
C1728 C 0.48733 0.0433 0.31527 0.0
C1729 C 0.53832 0.99216 0.31075 0.0
C1730 C 0.51377 0.96055 0.31465 0.0
H1731 H 0.54524 0.05605 0.30795 0.0
H1732 H 0.568 0.98553 0.3075 0.0
S1733 S 0.41055 0.97183 0.32594 0.0
N1734 N 0.42459 0.01874 0.32308 0.0
N1735 N 0.44904 0.94244 0.32252 0.0
C1736 C 0.47565 0.97067 0.31887 0.0
C1737 C 0.46242 0.01202 0.31918 0.0
C1738 C 0.98417 0.9956 0.57546 0.0
C1739 C 0.96185 0.99129 0.56617 0.0
C1740 C 0.02497 0.00803 0.57532 0.0
C1741 C 0.04514 0.01606 0.56586 0.0
H1742 H 0.96993 0.98938 0.58291 0.0
H1743 H 0.04103 0.01088 0.58266 0.0
S1744 S 0.00032 0.00947 0.53937 0.0
N1745 N 0.96299 0.9959 0.54725 0.0
N1746 N 0.03948 0.01973 0.54699 0.0
C1747 C 0.02313 0.01203 0.55652 0.0
C1748 C 0.98154 0.99962 0.55667 0.0
C1749 C 0.02983 0.53606 0.81434 0.0
C1750 C 0.9883 0.54588 0.81499 0.0
C1751 C 0.04291 0.49546 0.81432 0.0
C1752 C 0.01495 0.46308 0.81488 0.0
H1753 H 0.05246 0.55996 0.81395 0.0
H1754 H 0.07522 0.48938 0.81378 0.0
S1755 S 0.9027 0.4725 0.81647 0.0
N1756 N 0.91913 0.51989 0.81592 0.0
N1757 N 0.94379 0.44368 0.81612 0.0
C1758 C 0.97331 0.47248 0.81546 0.0
C1759 C 0.95998 0.51382 0.81549 0.0
loop_
_geom_bond_atom_site_label_1
_geom_bond_atom_site_label_2
_geom_bond_distance
_geom_bond_site_symmetry_2
_ccdc_geom_bond_type
Li0 N17 1.990 . S
Li0 O60 1.956 . S
Li0 O61 1.970 . S
Li0 O62 1.961 . S
Li1 N25 1.990 . S
Li1 O60 1.970 . S
Li1 O61 1.956 . S
Li1 O63 1.961 . S
Li2 N47 1.990 . S
Li2 O60 1.961 . S
Li2 O62 1.956 . S
Li2 O63 1.970 . S
Li3 N53 1.990 . S
Li3 O61 1.961 . S
Li3 O62 1.970 . S
Li3 O63 1.956 . S
C4 C6 1.348 . S
C4 C7 1.356 . S
C4 O60 1.325 . S
N5 C8 1.314 . S
N5 C9 1.279 . S
C6 C4 1.348 . S
C6 C8 1.353 . S
C6 H64 0.929 . S
C7 C4 1.356 . S
C7 C9 1.358 . S
C7 H65 0.930 . S
C8 N5 1.314 . S
C8 C6 1.353 . S
C8 H66 0.930 . S
C9 N5 1.279 . S
C9 C7 1.358 . S
C9 H67 0.930 1_545 S
C10 C13 1.348 . S
C10 C14 1.356 . S
C10 O61 1.325 . S
C11 N12 1.279 . S
C11 C14 1.358 . S
C11 H68 0.930 . S
N12 C11 1.279 . S
N12 C15 1.314 . S
C13 C10 1.348 . S
C13 C15 1.353 . S
C13 H69 0.929 . S
C14 C10 1.356 . S
C14 C11 1.358 . S
C14 H70 0.930 . S
C15 N12 1.314 . S
C15 C13 1.353 . S
C15 H71 0.930 . S
C16 N17 1.314 . S
C16 C21 1.353 . S
C16 H22 0.930 . S
N17 Li0 1.990 . S
N17 C16 1.314 . S
N17 C19 1.279 . S
C18 C19 1.358 . S
C18 C20 1.356 . S
C18 H72 0.930 . S
C19 N17 1.279 . S
C19 C18 1.358 . S
C19 H23 0.930 . S
C20 C18 1.356 . S
C20 C21 1.348 . S
C21 C16 1.353 . S
C21 C20 1.348 . S
C21 H73 0.929 . S
H22 C16 0.930 . S
H23 C19 0.930 . S
C24 N25 1.314 . S
C24 C26 1.353 . S
C24 H30 0.930 . S
N25 Li1 1.990 . S
N25 C24 1.314 . S
N25 C28 1.279 . S
C26 C24 1.353 . S
C26 C29 1.348 . S
C26 H74 0.929 . S
C27 C28 1.358 . S
C27 C29 1.356 . S
C27 H75 0.930 . S
C28 N25 1.279 . S
C28 C27 1.358 . S
C28 H31 0.930 . S
C29 C26 1.348 . S
C29 C27 1.356 . S
H30 C24 0.930 . S
H31 C28 0.930 . S
C32 C34 1.348 . S
C32 C35 1.356 . S
C32 O62 1.325 . S
N33 C36 1.314 . S
N33 C37 1.279 . S
C34 C32 1.348 . S
C34 C36 1.353 . S
C34 H76 0.929 . S
C35 C32 1.356 . S
C35 C37 1.358 . S
C35 H77 0.930 . S
C36 N33 1.314 . S
C36 C34 1.353 . S
C36 H78 0.930 . S
C37 N33 1.279 . S
C37 C35 1.358 . S
C37 H79 0.943 . S
C38 C39 1.348 . S
C38 C40 1.356 . S
C38 O63 1.325 . S
C39 C38 1.348 . S
C39 C41 1.353 . S
C39 H80 0.929 . S
C40 C38 1.356 . S
C40 C42 1.358 . S
C40 H81 0.930 . S
C41 C39 1.353 . S
C41 N43 1.314 . S
C41 H82 0.930 . S
C42 C40 1.358 . S
C42 N43 1.279 . S
C42 H83 0.930 . S
N43 C41 1.314 . S
N43 C42 1.279 . S
C44 C46 1.353 . S
C44 N47 1.314 . S
C44 H50 0.930 . S
C45 N47 1.279 . S
C45 C48 1.358 . S
C45 H51 0.930 . S
C46 C44 1.353 . S
C46 C49 1.348 . S
C46 H84 0.929 . S
N47 Li2 1.990 . S
N47 C44 1.314 . S
N47 C45 1.279 . S
C48 C45 1.358 . S
C48 C49 1.356 . S
C48 H85 0.930 . S
C49 C46 1.348 . S
C49 C48 1.356 . S
H50 C44 0.930 . S
H51 C45 0.930 . S
C52 N53 1.314 . S
C52 C54 1.353 . S
C52 H58 0.930 . S
N53 Li3 1.990 . S
N53 C52 1.314 . S
N53 C56 1.279 . S
C54 C52 1.353 . S
C54 C57 1.348 . S
C54 H86 0.929 . S
C55 C56 1.358 . S
C55 C57 1.356 . S
C55 H87 0.930 . S
C56 N53 1.279 . S
C56 C55 1.358 . S
C56 H59 0.930 . S
C57 C54 1.348 . S
C57 C55 1.356 . S
H58 C52 0.930 . S
H59 C56 0.930 . S
O60 Li0 1.956 . S
O60 Li1 1.970 . S
O60 Li2 1.961 . S
O60 C4 1.325 . S
O61 Li0 1.970 . S
O61 Li1 1.956 . S
O61 Li3 1.961 . S
O61 C10 1.325 . S
O62 Li0 1.961 . S
O62 Li2 1.956 . S
O62 Li3 1.970 . S
O62 C32 1.325 . S
O63 Li1 1.961 . S
O63 Li2 1.970 . S
O63 Li3 1.956 . S
O63 C38 1.325 . S
H64 C6 0.929 . S
H65 C7 0.930 . S
H66 C8 0.930 . S
H67 C9 0.930 1_565 S
H68 C11 0.930 . S
H69 C13 0.929 . S
H70 C14 0.930 . S
H71 C15 0.930 . S
H72 C18 0.930 . S
H73 C21 0.929 . S
H74 C26 0.929 . S
H75 C27 0.930 . S
H76 C34 0.929 . S
H77 C35 0.930 . S
H78 C36 0.930 . S
H79 C37 0.943 . S
H80 C39 0.929 . S
H81 C40 0.930 . S
H82 C41 0.930 . S
H83 C42 0.930 . S
H84 C46 0.929 . S
H85 C48 0.930 . S
H86 C54 0.929 . S
H87 C55 0.930 . S
Li88 N105 1.990 . S
Li88 O148 1.956 . S
Li88 O149 1.970 . S
Li88 O150 1.961 . S
Li89 N113 1.990 . S
Li89 O148 1.970 . S
Li89 O149 1.956 . S
Li89 O151 1.961 . S
Li90 N135 1.990 . S
Li90 O148 1.961 . S
Li90 O150 1.956 . S
Li90 O151 1.970 . S
Li91 N141 1.990 . S
Li91 O149 1.961 . S
Li91 O150 1.970 . S
Li91 O151 1.956 . S
C92 C94 1.348 . S
C92 C95 1.356 . S
C92 O148 1.325 . S
N93 C96 1.314 . S
N93 C97 1.279 . S
C94 C92 1.348 . S
C94 C96 1.353 . S
C94 H152 0.929 . S
C95 C92 1.356 . S
C95 C97 1.358 . S
C95 H153 0.930 . S
C96 N93 1.314 . S
C96 C94 1.353 . S
C96 H154 0.930 . S
C97 N93 1.279 . S
C97 C95 1.358 . S
C97 H155 0.930 1_655 S
C98 C101 1.348 . S
C98 C102 1.356 . S
C98 O149 1.325 . S
C99 N100 1.279 . S
C99 C102 1.358 . S
C99 H156 0.930 . S
N100 C99 1.279 . S
N100 C103 1.314 . S
C101 C98 1.348 . S
C101 C103 1.353 . S
C101 H157 0.929 . S
C102 C98 1.356 . S
C102 C99 1.358 . S
C102 H158 0.930 . S
C103 N100 1.314 . S
C103 C101 1.353 . S
C103 H159 0.930 . S
C104 N105 1.314 . S
C104 C109 1.353 . S
C104 H110 0.930 . S
N105 Li88 1.990 . S
N105 C104 1.314 . S
N105 C107 1.279 . S
C106 C107 1.358 . S
C106 C108 1.356 . S
C106 H160 0.930 . S
C107 N105 1.279 . S
C107 C106 1.358 . S
C107 H111 0.930 . S
C108 C106 1.356 . S
C108 C109 1.348 . S
C109 C104 1.353 . S
C109 C108 1.348 . S
C109 H161 0.929 . S
H110 C104 0.930 . S
H111 C107 0.930 . S
C112 N113 1.314 . S
C112 C114 1.353 . S
C112 H118 0.930 . S
N113 Li89 1.990 . S
N113 C112 1.314 . S
N113 C116 1.279 . S
C114 C112 1.353 . S
C114 C117 1.348 . S
C114 H162 0.929 . S
C115 C116 1.358 . S
C115 C117 1.356 . S
C115 H163 0.930 . S
C116 N113 1.279 . S
C116 C115 1.358 . S
C116 H119 0.930 . S
C117 C114 1.348 . S
C117 C115 1.356 . S
H118 C112 0.930 . S
H119 C116 0.930 . S
C120 C122 1.348 . S
C120 C123 1.356 . S
C120 O150 1.325 . S
N121 C124 1.314 . S
N121 C125 1.279 . S
C122 C120 1.348 . S
C122 C124 1.353 . S
C122 H164 0.929 . S
C123 C120 1.356 . S
C123 C125 1.358 . S
C123 H165 0.930 . S
C124 N121 1.314 . S
C124 C122 1.353 . S
C124 H166 0.930 . S
C125 N121 1.279 . S
C125 C123 1.358 . S
C125 H167 0.943 . S
C126 C127 1.348 . S
C126 C128 1.356 . S
C126 O151 1.325 . S
C127 C126 1.348 . S
C127 C129 1.353 . S
C127 H168 0.929 . S
C128 C126 1.356 . S
C128 C130 1.358 . S
C128 H169 0.930 . S
C129 C127 1.353 . S
C129 N131 1.314 . S
C129 H170 0.930 . S
C130 C128 1.358 . S
C130 N131 1.279 . S
C130 H171 0.930 . S
N131 C129 1.314 . S
N131 C130 1.279 . S
C132 C134 1.353 . S
C132 N135 1.314 . S
C132 H138 0.930 . S
C133 N135 1.279 . S
C133 C136 1.358 . S
C133 H139 0.930 . S
C134 C132 1.353 . S
C134 C137 1.348 . S
C134 H172 0.929 . S
N135 Li90 1.990 . S
N135 C132 1.314 . S
N135 C133 1.279 . S
C136 C133 1.358 . S
C136 C137 1.356 . S
C136 H173 0.930 . S
C137 C134 1.348 . S
C137 C136 1.356 . S
H138 C132 0.930 . S
H139 C133 0.930 . S
C140 N141 1.314 . S
C140 C142 1.353 . S
C140 H146 0.930 . S
N141 Li91 1.990 . S
N141 C140 1.314 . S
N141 C144 1.279 . S
C142 C140 1.353 . S
C142 C145 1.348 . S
C142 H174 0.929 . S
C143 C144 1.358 . S
C143 C145 1.356 . S
C143 H175 0.930 . S
C144 N141 1.279 . S
C144 C143 1.358 . S
C144 H147 0.930 . S
C145 C142 1.348 . S
C145 C143 1.356 . S
H146 C140 0.930 . S
H147 C144 0.930 . S
O148 Li88 1.956 . S
O148 Li89 1.970 . S
O148 Li90 1.961 . S
O148 C92 1.325 . S
O149 Li88 1.970 . S
O149 Li89 1.956 . S
O149 Li91 1.961 . S
O149 C98 1.325 . S
O150 Li88 1.961 . S
O150 Li90 1.956 . S
O150 Li91 1.970 . S
O150 C120 1.325 . S
O151 Li89 1.961 . S
O151 Li90 1.970 . S
O151 Li91 1.956 . S
O151 C126 1.325 . S
H152 C94 0.929 . S
H153 C95 0.930 . S
H154 C96 0.930 . S
H155 C97 0.930 1_455 S
H156 C99 0.930 . S
H157 C101 0.929 . S
H158 C102 0.930 . S
H159 C103 0.930 . S
H160 C106 0.930 . S
H161 C109 0.929 . S
H162 C114 0.929 . S
H163 C115 0.930 . S
H164 C122 0.929 . S
H165 C123 0.930 . S
H166 C124 0.930 . S
H167 C125 0.943 . S
H168 C127 0.929 . S
H169 C128 0.930 . S
H170 C129 0.930 . S
H171 C130 0.930 . S
H172 C134 0.929 . S
H173 C136 0.930 . S
H174 C142 0.929 . S
H175 C143 0.930 . S
Li176 N193 1.990 . S
Li176 O236 1.956 . S
Li176 O237 1.970 . S
Li176 O238 1.961 . S
Li177 N201 1.990 . S
Li177 O236 1.970 . S
Li177 O237 1.956 . S
Li177 O239 1.961 . S
Li178 N223 1.990 . S
Li178 O236 1.961 . S
Li178 O238 1.956 . S
Li178 O239 1.970 . S
Li179 N229 1.990 . S
Li179 O237 1.961 . S
Li179 O238 1.970 . S
Li179 O239 1.956 . S
C180 C182 1.348 . S
C180 C183 1.356 . S
C180 O236 1.325 . S
N181 C184 1.314 . S
N181 C185 1.279 . S
C182 C180 1.348 . S
C182 C184 1.353 . S
C182 H240 0.929 . S
C183 C180 1.356 . S
C183 C185 1.358 . S
C183 H241 0.930 . S
C184 N181 1.314 . S
C184 C182 1.353 . S
C184 H242 0.930 . S
C185 N181 1.279 . S
C185 C183 1.358 . S
C185 H243 0.930 . S
C186 C189 1.348 . S
C186 C190 1.356 . S
C186 O237 1.325 . S
C187 N188 1.279 . S
C187 C190 1.358 . S
C187 H244 0.930 . S
N188 C187 1.279 . S
N188 C191 1.314 . S
C189 C186 1.348 . S
C189 C191 1.353 . S
C189 H245 0.929 . S
C190 C186 1.356 . S
C190 C187 1.358 . S
C190 H246 0.930 . S
C191 N188 1.314 . S
C191 C189 1.353 . S
C191 H247 0.930 . S
C192 N193 1.314 . S
C192 C197 1.353 . S
C192 H198 0.930 . S
N193 Li176 1.990 . S
N193 C192 1.314 . S
N193 C195 1.279 . S
C194 C195 1.358 . S
C194 C196 1.356 . S
C194 H248 0.930 . S
C195 N193 1.279 . S
C195 C194 1.358 . S
C195 H199 0.930 . S
C196 C194 1.356 . S
C196 C197 1.348 . S
C197 C192 1.353 . S
C197 C196 1.348 . S
C197 H249 0.929 . S
H198 C192 0.930 . S
H199 C195 0.930 . S
C200 N201 1.314 . S
C200 C202 1.353 . S
C200 H206 0.930 . S
N201 Li177 1.990 . S
N201 C200 1.314 . S
N201 C204 1.279 . S
C202 C200 1.353 . S
C202 C205 1.348 . S
C202 H250 0.929 . S
C203 C204 1.358 . S
C203 C205 1.356 . S
C203 H251 0.930 . S
C204 N201 1.279 . S
C204 C203 1.358 . S
C204 H207 0.930 . S
C205 C202 1.348 . S
C205 C203 1.356 . S
H206 C200 0.930 . S
H207 C204 0.930 . S
C208 C210 1.348 . S
C208 C211 1.356 . S
C208 O238 1.325 . S
N209 C212 1.314 . S
N209 C213 1.279 . S
C210 C208 1.348 . S
C210 C212 1.353 . S
C210 H252 0.929 . S
C211 C208 1.356 . S
C211 C213 1.358 . S
C211 H253 0.930 . S
C212 N209 1.314 . S
C212 C210 1.353 . S
C212 H254 0.930 . S
C213 N209 1.279 . S
C213 C211 1.358 . S
C213 H255 0.930 . S
C214 C215 1.348 . S
C214 C216 1.356 . S
C214 O239 1.325 . S
C215 C214 1.348 . S
C215 C217 1.353 . S
C215 H256 0.929 . S
C216 C214 1.356 . S
C216 C218 1.358 . S
C216 H257 0.930 . S
C217 C215 1.353 . S
C217 N219 1.314 . S
C217 H258 0.930 . S
C218 C216 1.358 . S
C218 N219 1.279 . S
C218 H259 0.930 . S
N219 C217 1.314 . S
N219 C218 1.279 . S
C220 C222 1.353 . S
C220 N223 1.314 . S
C220 H226 0.930 . S
C221 N223 1.279 . S
C221 C224 1.358 . S
C221 H227 0.930 . S
C222 C220 1.353 . S
C222 C225 1.348 . S
C222 H260 0.929 . S
N223 Li178 1.990 . S
N223 C220 1.314 . S
N223 C221 1.279 . S
C224 C221 1.358 . S
C224 C225 1.356 . S
C224 H261 0.930 . S
C225 C222 1.348 . S
C225 C224 1.356 . S
H226 C220 0.930 . S
H227 C221 0.930 . S
C228 N229 1.314 . S
C228 C230 1.353 . S
C228 H234 0.930 . S
N229 Li179 1.990 . S
N229 C228 1.314 . S
N229 C232 1.279 . S
C230 C228 1.353 . S
C230 C233 1.348 . S
C230 H262 0.929 . S
C231 C232 1.358 . S
C231 C233 1.356 . S
C231 H263 0.930 . S
C232 N229 1.279 . S
C232 C231 1.358 . S
C232 H235 0.930 . S
C233 C230 1.348 . S
C233 C231 1.356 . S
H234 C228 0.930 . S
H235 C232 0.930 . S
O236 Li176 1.956 . S
O236 Li177 1.970 . S
O236 Li178 1.961 . S
O236 C180 1.325 . S
O237 Li176 1.970 . S
O237 Li177 1.956 . S
O237 Li179 1.961 . S
O237 C186 1.325 . S
O238 Li176 1.961 . S
O238 Li178 1.956 . S
O238 Li179 1.970 . S
O238 C208 1.325 . S
O239 Li177 1.961 . S
O239 Li178 1.970 . S
O239 Li179 1.956 . S
O239 C214 1.325 . S
H240 C182 0.929 . S
H241 C183 0.930 . S
H242 C184 0.930 . S
H243 C185 0.930 . S
H244 C187 0.930 . S
H245 C189 0.929 . S
H246 C190 0.930 . S
H247 C191 0.930 . S
H248 C194 0.930 . S
H249 C197 0.929 . S
H250 C202 0.929 . S
H251 C203 0.930 . S
H252 C210 0.929 . S
H253 C211 0.930 . S
H254 C212 0.930 . S
H255 C213 0.930 . S
H256 C215 0.929 . S
H257 C216 0.930 . S
H258 C217 0.930 . S
H259 C218 0.930 . S
H260 C222 0.929 . S
H261 C224 0.930 . S
H262 C230 0.929 . S
H263 C231 0.930 . S
Li264 N281 1.990 . S
Li264 O324 1.956 . S
Li264 O325 1.970 . S
Li264 O326 1.961 . S
Li265 N289 1.990 . S
Li265 O324 1.970 . S
Li265 O325 1.956 . S
Li265 O327 1.961 . S
Li266 N311 1.990 . S
Li266 O324 1.961 . S
Li266 O326 1.956 . S
Li266 O327 1.970 . S
Li267 N317 1.990 . S
Li267 O325 1.961 . S
Li267 O326 1.970 . S
Li267 O327 1.956 . S
C268 C270 1.348 . S
C268 C271 1.356 . S
C268 O324 1.325 . S
N269 C272 1.314 . S
N269 C273 1.279 . S
C270 C268 1.348 . S
C270 C272 1.353 . S
C270 H328 0.929 . S
C271 C268 1.356 . S
C271 C273 1.358 . S
C271 H329 0.930 . S
C272 N269 1.314 . S
C272 C270 1.353 . S
C272 H330 0.930 . S
C273 N269 1.279 . S
C273 C271 1.358 . S
C273 H331 0.930 . S
C274 C277 1.348 . S
C274 C278 1.356 . S
C274 O325 1.325 . S
C275 N276 1.279 . S
C275 C278 1.358 . S
C275 H332 0.930 . S
N276 C275 1.279 . S
N276 C279 1.314 . S
C277 C274 1.348 . S
C277 C279 1.353 . S
C277 H333 0.929 . S
C278 C274 1.356 . S
C278 C275 1.358 . S
C278 H334 0.930 . S
C279 N276 1.314 . S
C279 C277 1.353 . S
C279 H335 0.930 . S
C280 N281 1.314 . S
C280 C285 1.353 . S
C280 H286 0.930 . S
N281 Li264 1.990 . S
N281 C280 1.314 . S
N281 C283 1.279 . S
C282 C283 1.358 . S
C282 C284 1.356 . S
C282 H336 0.930 . S
C283 N281 1.279 . S
C283 C282 1.358 . S
C283 H287 0.930 . S
C284 C282 1.356 . S
C284 C285 1.348 . S
C285 C280 1.353 . S
C285 C284 1.348 . S
C285 H337 0.929 . S
H286 C280 0.930 . S
H287 C283 0.930 . S
C288 N289 1.314 . S
C288 C290 1.353 . S
C288 H294 0.930 . S
N289 Li265 1.990 . S
N289 C288 1.314 . S
N289 C292 1.279 . S
C290 C288 1.353 . S
C290 C293 1.348 . S
C290 H338 0.929 . S
C291 C292 1.358 . S
C291 C293 1.356 . S
C291 H339 0.930 . S
C292 N289 1.279 . S
C292 C291 1.358 . S
C292 H295 0.930 . S
C293 C290 1.348 . S
C293 C291 1.356 . S
H294 C288 0.930 . S
H295 C292 0.930 . S
C296 C298 1.348 . S
C296 C299 1.356 . S
C296 O326 1.325 . S
N297 C300 1.314 . S
N297 C301 1.279 . S
C298 C296 1.348 . S
C298 C300 1.353 . S
C298 H340 0.929 . S
C299 C296 1.356 . S
C299 C301 1.358 . S
C299 H341 0.930 . S
C300 N297 1.314 . S
C300 C298 1.353 . S
C300 H342 0.930 . S
C301 N297 1.279 . S
C301 C299 1.358 . S
C301 H343 0.930 . S
C302 C303 1.348 . S
C302 C304 1.356 . S
C302 O327 1.325 . S
C303 C302 1.348 . S
C303 C305 1.353 . S
C303 H344 0.929 . S
C304 C302 1.356 . S
C304 C306 1.358 . S
C304 H345 0.930 . S
C305 C303 1.353 . S
C305 N307 1.314 . S
C305 H346 0.930 . S
C306 C304 1.358 . S
C306 N307 1.279 . S
C306 H347 0.930 . S
N307 C305 1.314 . S
N307 C306 1.279 . S
C308 C310 1.353 . S
C308 N311 1.314 . S
C308 H314 0.930 . S
C309 N311 1.279 . S
C309 C312 1.358 . S
C309 H315 0.930 . S
C310 C308 1.353 . S
C310 C313 1.348 . S
C310 H348 0.929 . S
N311 Li266 1.990 . S
N311 C308 1.314 . S
N311 C309 1.279 . S
C312 C309 1.358 . S
C312 C313 1.356 . S
C312 H349 0.930 . S
C313 C310 1.348 . S
C313 C312 1.356 . S
H314 C308 0.930 . S
H315 C309 0.930 . S
C316 N317 1.314 . S
C316 C318 1.353 . S
C316 H322 0.930 . S
N317 Li267 1.990 . S
N317 C316 1.314 . S
N317 C320 1.279 . S
C318 C316 1.353 . S
C318 C321 1.348 . S
C318 H350 0.929 . S
C319 C320 1.358 . S
C319 C321 1.356 . S
C319 H351 0.930 . S
C320 N317 1.279 . S
C320 C319 1.358 . S
C320 H323 0.930 . S
C321 C318 1.348 . S
C321 C319 1.356 . S
H322 C316 0.930 . S
H323 C320 0.930 . S
O324 Li264 1.956 . S
O324 Li265 1.970 . S
O324 Li266 1.961 . S
O324 C268 1.325 . S
O325 Li264 1.970 . S
O325 Li265 1.956 . S
O325 Li267 1.961 . S
O325 C274 1.325 . S
O326 Li264 1.961 . S
O326 Li266 1.956 . S
O326 Li267 1.970 . S
O326 C296 1.325 . S
O327 Li265 1.961 . S
O327 Li266 1.970 . S
O327 Li267 1.956 . S
O327 C302 1.325 . S
H328 C270 0.929 . S
H329 C271 0.930 . S
H330 C272 0.930 . S
H331 C273 0.930 . S
H332 C275 0.930 . S
H333 C277 0.929 . S
H334 C278 0.930 . S
H335 C279 0.930 . S
H336 C282 0.930 . S
H337 C285 0.929 . S
H338 C290 0.929 . S
H339 C291 0.930 . S
H340 C298 0.929 . S
H341 C299 0.930 . S
H342 C300 0.930 . S
H343 C301 0.930 . S
H344 C303 0.929 . S
H345 C304 0.930 . S
H346 C305 0.930 . S
H347 C306 0.930 . S
H348 C310 0.929 . S
H349 C312 0.930 . S
H350 C318 0.929 . S
H351 C319 0.930 . S
Li352 N369 1.990 . S
Li352 O412 1.956 . S
Li352 O413 1.970 . S
Li352 O414 1.961 . S
Li353 N377 1.990 . S
Li353 O412 1.970 . S
Li353 O413 1.956 . S
Li353 O415 1.961 . S
Li354 N399 1.990 . S
Li354 O412 1.961 . S
Li354 O414 1.956 . S
Li354 O415 1.970 . S
Li355 N405 1.990 . S
Li355 O413 1.961 . S
Li355 O414 1.970 . S
Li355 O415 1.956 . S
C356 C358 1.348 . S
C356 C359 1.356 . S
C356 O412 1.325 . S
N357 C360 1.314 . S
N357 C361 1.279 . S
C358 C356 1.348 . S
C358 C360 1.353 . S
C358 H416 0.929 . S
C359 C356 1.356 . S
C359 C361 1.358 . S
C359 H417 0.930 . S
C360 N357 1.314 . S
C360 C358 1.353 . S
C360 H418 0.930 . S
C361 N357 1.279 . S
C361 C359 1.358 . S
C361 H419 0.930 . S
C362 C365 1.348 . S
C362 C366 1.356 . S
C362 O413 1.325 . S
C363 N364 1.279 . S
C363 C366 1.358 . S
C363 H420 0.930 . S
N364 C363 1.279 . S
N364 C367 1.314 . S
C365 C362 1.348 . S
C365 C367 1.353 . S
C365 H421 0.929 . S
C366 C362 1.356 . S
C366 C363 1.358 . S
C366 H422 0.930 . S
C367 N364 1.314 . S
C367 C365 1.353 . S
C367 H423 0.930 . S
C368 N369 1.314 . S
C368 C373 1.353 . S
C368 H374 0.930 . S
N369 Li352 1.990 . S
N369 C368 1.314 . S
N369 C371 1.279 . S
C370 C371 1.358 . S
C370 C372 1.356 . S
C370 H424 0.930 . S
C371 N369 1.279 . S
C371 C370 1.358 . S
C371 H375 0.930 . S
C372 C370 1.356 . S
C372 C373 1.348 . S
C373 C368 1.353 . S
C373 C372 1.348 . S
C373 H425 0.929 . S
H374 C368 0.930 . S
H375 C371 0.930 . S
C376 N377 1.314 . S
C376 C378 1.353 . S
C376 H382 0.930 . S
N377 Li353 1.990 . S
N377 C376 1.314 . S
N377 C380 1.279 . S
C378 C376 1.353 . S
C378 C381 1.348 . S
C378 H426 0.929 . S
C379 C380 1.358 . S
C379 C381 1.356 . S
C379 H427 0.930 . S
C380 N377 1.279 . S
C380 C379 1.358 . S
C380 H383 0.930 . S
C381 C378 1.348 . S
C381 C379 1.356 . S
H382 C376 0.930 . S
H383 C380 0.930 . S
C384 C386 1.348 . S
C384 C387 1.356 . S
C384 O414 1.325 . S
N385 C388 1.314 . S
N385 C389 1.279 . S
C386 C384 1.348 . S
C386 C388 1.353 . S
C386 H428 0.929 . S
C387 C384 1.356 . S
C387 C389 1.358 . S
C387 H429 0.930 . S
C388 N385 1.314 . S
C388 C386 1.353 . S
C388 H430 0.930 . S
C389 N385 1.279 . S
C389 C387 1.358 . S
C389 H431 0.930 . S
C390 C391 1.348 . S
C390 C392 1.356 . S
C390 O415 1.325 . S
C391 C390 1.348 . S
C391 C393 1.353 . S
C391 H432 0.929 . S
C392 C390 1.356 . S
C392 C394 1.358 . S
C392 H433 0.930 . S
C393 C391 1.353 . S
C393 N395 1.314 . S
C393 H434 0.930 . S
C394 C392 1.358 . S
C394 N395 1.279 . S
C394 H435 0.930 . S
N395 C393 1.314 . S
N395 C394 1.279 . S
C396 C398 1.353 . S
C396 N399 1.314 . S
C396 H402 0.930 . S
C397 N399 1.279 . S
C397 C400 1.358 . S
C397 H403 0.930 . S
C398 C396 1.353 . S
C398 C401 1.348 . S
C398 H436 0.929 . S
N399 Li354 1.990 . S
N399 C396 1.314 . S
N399 C397 1.279 . S
C400 C397 1.358 . S
C400 C401 1.356 . S
C400 H437 0.930 . S
C401 C398 1.348 . S
C401 C400 1.356 . S
H402 C396 0.930 . S
H403 C397 0.930 . S
C404 N405 1.314 . S
C404 C406 1.353 . S
C404 H410 0.930 . S
N405 Li355 1.990 . S
N405 C404 1.314 . S
N405 C408 1.279 . S
C406 C404 1.353 . S
C406 C409 1.348 . S
C406 H438 0.929 . S
C407 C408 1.358 . S
C407 C409 1.356 . S
C407 H439 0.930 . S
C408 N405 1.279 . S
C408 C407 1.358 . S
C408 H411 0.930 . S
C409 C406 1.348 . S
C409 C407 1.356 . S
H410 C404 0.930 . S
H411 C408 0.930 . S
O412 Li352 1.956 . S
O412 Li353 1.970 . S
O412 Li354 1.961 . S
O412 C356 1.325 . S
O413 Li352 1.970 . S
O413 Li353 1.956 . S
O413 Li355 1.961 . S
O413 C362 1.325 . S
O414 Li352 1.961 . S
O414 Li354 1.956 . S
O414 Li355 1.970 . S
O414 C384 1.325 . S
O415 Li353 1.961 . S
O415 Li354 1.970 . S
O415 Li355 1.956 . S
O415 C390 1.325 . S
H416 C358 0.929 . S
H417 C359 0.930 . S
H418 C360 0.930 . S
H419 C361 0.930 . S
H420 C363 0.930 . S
H421 C365 0.929 . S
H422 C366 0.930 . S
H423 C367 0.930 . S
H424 C370 0.930 . S
H425 C373 0.929 . S
H426 C378 0.929 . S
H427 C379 0.930 . S
H428 C386 0.929 . S
H429 C387 0.930 . S
H430 C388 0.930 . S
H431 C389 0.930 . S
H432 C391 0.929 . S
H433 C392 0.930 . S
H434 C393 0.930 . S
H435 C394 0.930 . S
H436 C398 0.929 . S
H437 C400 0.930 . S
H438 C406 0.929 . S
H439 C407 0.930 . S
Li440 N457 1.990 . S
Li440 O500 1.956 . S
Li440 O501 1.970 . S
Li440 O502 1.961 . S
Li441 N465 1.990 . S
Li441 O500 1.970 . S
Li441 O501 1.956 . S
Li441 O503 1.961 . S
Li442 N487 1.990 . S
Li442 O500 1.961 . S
Li442 O502 1.956 . S
Li442 O503 1.970 . S
Li443 N493 1.990 . S
Li443 O501 1.961 . S
Li443 O502 1.970 . S
Li443 O503 1.956 . S
C444 C446 1.348 . S
C444 C447 1.356 . S
C444 O500 1.325 . S
N445 C448 1.314 . S
N445 C449 1.279 . S
C446 C444 1.348 . S
C446 C448 1.353 . S
C446 H504 0.929 . S
C447 C444 1.356 . S
C447 C449 1.358 . S
C447 H505 0.930 . S
C448 N445 1.314 . S
C448 C446 1.353 . S
C448 H506 0.930 . S
C449 N445 1.279 . S
C449 C447 1.358 . S
C449 H507 0.930 . S
C450 C453 1.348 . S
C450 C454 1.356 . S
C450 O501 1.325 . S
C451 N452 1.279 . S
C451 C454 1.358 . S
C451 H508 0.930 . S
N452 C451 1.279 . S
N452 C455 1.314 . S
C453 C450 1.348 . S
C453 C455 1.353 . S
C453 H509 0.929 . S
C454 C450 1.356 . S
C454 C451 1.358 . S
C454 H510 0.930 . S
C455 N452 1.314 . S
C455 C453 1.353 . S
C455 H511 0.930 . S
C456 N457 1.314 . S
C456 C461 1.353 . S
C456 H462 0.930 . S
N457 Li440 1.990 . S
N457 C456 1.314 . S
N457 C459 1.279 . S
C458 C459 1.358 . S
C458 C460 1.356 . S
C458 H512 0.930 . S
C459 N457 1.279 . S
C459 C458 1.358 . S
C459 H463 0.930 . S
C460 C458 1.356 . S
C460 C461 1.348 . S
C461 C456 1.353 . S
C461 C460 1.348 . S
C461 H513 0.929 . S
H462 C456 0.930 . S
H463 C459 0.930 . S
C464 N465 1.314 . S
C464 C466 1.353 . S
C464 H470 0.930 . S
N465 Li441 1.990 . S
N465 C464 1.314 . S
N465 C468 1.279 . S
C466 C464 1.353 . S
C466 C469 1.348 . S
C466 H514 0.929 . S
C467 C468 1.358 . S
C467 C469 1.356 . S
C467 H515 0.930 . S
C468 N465 1.279 . S
C468 C467 1.358 . S
C468 H471 0.930 . S
C469 C466 1.348 . S
C469 C467 1.356 . S
H470 C464 0.930 . S
H471 C468 0.930 . S
C472 C474 1.348 . S
C472 C475 1.356 . S
C472 O502 1.325 . S
N473 C476 1.314 . S
N473 C477 1.279 . S
C474 C472 1.348 . S
C474 C476 1.353 . S
C474 H516 0.929 . S
C475 C472 1.356 . S
C475 C477 1.358 . S
C475 H517 0.930 . S
C476 N473 1.314 . S
C476 C474 1.353 . S
C476 H518 0.930 . S
C477 N473 1.279 . S
C477 C475 1.358 . S
C477 H519 0.930 . S
C478 C479 1.348 . S
C478 C480 1.356 . S
C478 O503 1.325 . S
C479 C478 1.348 . S
C479 C481 1.353 . S
C479 H520 0.929 . S
C480 C478 1.356 . S
C480 C482 1.358 . S
C480 H521 0.930 . S
C481 C479 1.353 . S
C481 N483 1.314 . S
C481 H522 0.930 . S
C482 C480 1.358 . S
C482 N483 1.279 . S
C482 H523 0.930 . S
N483 C481 1.314 . S
N483 C482 1.279 . S
C484 C486 1.353 . S
C484 N487 1.314 . S
C484 H490 0.930 . S
C485 N487 1.279 . S
C485 C488 1.358 . S
C485 H491 0.930 . S
C486 C484 1.353 . S
C486 C489 1.348 . S
C486 H524 0.929 . S
N487 Li442 1.990 . S
N487 C484 1.314 . S
N487 C485 1.279 . S
C488 C485 1.358 . S
C488 C489 1.356 . S
C488 H525 0.930 . S
C489 C486 1.348 . S
C489 C488 1.356 . S
H490 C484 0.930 . S
H491 C485 0.930 . S
C492 N493 1.314 . S
C492 C494 1.353 . S
C492 H498 0.930 . S
N493 Li443 1.990 . S
N493 C492 1.314 . S
N493 C496 1.279 . S
C494 C492 1.353 . S
C494 C497 1.348 . S
C494 H526 0.929 . S
C495 C496 1.358 . S
C495 C497 1.356 . S
C495 H527 0.930 . S
C496 N493 1.279 . S
C496 C495 1.358 . S
C496 H499 0.930 . S
C497 C494 1.348 . S
C497 C495 1.356 . S
H498 C492 0.930 . S
H499 C496 0.930 . S
O500 Li440 1.956 . S
O500 Li441 1.970 . S
O500 Li442 1.961 . S
O500 C444 1.325 . S
O501 Li440 1.970 . S
O501 Li441 1.956 . S
O501 Li443 1.961 . S
O501 C450 1.325 . S
O502 Li440 1.961 . S
O502 Li442 1.956 . S
O502 Li443 1.970 . S
O502 C472 1.325 . S
O503 Li441 1.961 . S
O503 Li442 1.970 . S
O503 Li443 1.956 . S
O503 C478 1.325 . S
H504 C446 0.929 . S
H505 C447 0.930 . S
H506 C448 0.930 . S
H507 C449 0.930 . S
H508 C451 0.930 . S
H509 C453 0.929 . S
H510 C454 0.930 . S
H511 C455 0.930 . S
H512 C458 0.930 . S
H513 C461 0.929 . S
H514 C466 0.929 . S
H515 C467 0.930 . S
H516 C474 0.929 . S
H517 C475 0.930 . S
H518 C476 0.930 . S
H519 C477 0.930 . S
H520 C479 0.929 . S
H521 C480 0.930 . S
H522 C481 0.930 . S
H523 C482 0.930 . S
H524 C486 0.929 . S
H525 C488 0.930 . S
H526 C494 0.929 . S
H527 C495 0.930 . S
Li528 N545 1.990 . S
Li528 O588 1.956 . S
Li528 O589 1.970 . S
Li528 O590 1.961 . S
Li529 N553 1.990 . S
Li529 O588 1.970 . S
Li529 O589 1.956 . S
Li529 O591 1.961 . S
Li530 N575 1.990 . S
Li530 O588 1.961 . S
Li530 O590 1.956 . S
Li530 O591 1.970 . S
Li531 N581 1.990 . S
Li531 O589 1.961 . S
Li531 O590 1.970 . S
Li531 O591 1.956 . S
C532 C534 1.348 . S
C532 C535 1.356 . S
C532 O588 1.325 . S
N533 C536 1.314 . S
N533 C537 1.279 . S
C534 C532 1.348 . S
C534 C536 1.353 . S
C534 H592 0.929 . S
C535 C532 1.356 . S
C535 C537 1.358 . S
C535 H593 0.930 . S
C536 N533 1.314 . S
C536 C534 1.353 . S
C536 H594 0.930 . S
C537 N533 1.279 . S
C537 C535 1.358 . S
C537 H595 0.930 . S
C538 C541 1.348 . S
C538 C542 1.356 . S
C538 O589 1.325 . S
C539 N540 1.279 . S
C539 C542 1.358 . S
C539 H596 0.943 . S
N540 C539 1.279 . S
N540 C543 1.314 . S
C541 C538 1.348 . S
C541 C543 1.353 . S
C541 H597 0.929 . S
C542 C538 1.356 . S
C542 C539 1.358 . S
C542 H598 0.930 . S
C543 N540 1.314 . S
C543 C541 1.353 . S
C543 H599 0.930 . S
C544 N545 1.314 . S
C544 C549 1.353 . S
C544 H550 0.930 . S
N545 Li528 1.990 . S
N545 C544 1.314 . S
N545 C547 1.279 . S
C546 C547 1.358 . S
C546 C548 1.356 . S
C546 H600 0.930 . S
C547 N545 1.279 . S
C547 C546 1.358 . S
C547 H551 0.930 . S
C548 C546 1.356 . S
C548 C549 1.348 . S
C549 C544 1.353 . S
C549 C548 1.348 . S
C549 H601 0.929 . S
H550 C544 0.930 . S
H551 C547 0.930 . S
C552 N553 1.314 . S
C552 C554 1.353 . S
C552 H558 0.930 . S
N553 Li529 1.990 . S
N553 C552 1.314 . S
N553 C556 1.279 . S
C554 C552 1.353 . S
C554 C557 1.348 . S
C554 H602 0.929 . S
C555 C556 1.358 . S
C555 C557 1.356 . S
C555 H603 0.930 . S
C556 N553 1.279 . S
C556 C555 1.358 . S
C556 H559 0.930 . S
C557 C554 1.348 . S
C557 C555 1.356 . S
H558 C552 0.930 . S
H559 C556 0.930 . S
C560 C562 1.348 . S
C560 C563 1.356 . S
C560 O590 1.325 . S
N561 C564 1.314 . S
N561 C565 1.279 . S
C562 C560 1.348 . S
C562 C564 1.353 . S
C562 H604 0.929 . S
C563 C560 1.356 . S
C563 C565 1.358 . S
C563 H605 0.930 . S
C564 N561 1.314 . S
C564 C562 1.353 . S
C564 H606 0.930 . S
C565 N561 1.279 . S
C565 C563 1.358 . S
C565 H607 0.930 . S
C566 C567 1.348 . S
C566 C568 1.356 . S
C566 O591 1.325 . S
C567 C566 1.348 . S
C567 C569 1.353 . S
C567 H608 0.929 . S
C568 C566 1.356 . S
C568 C570 1.358 . S
C568 H609 0.930 . S
C569 C567 1.353 . S
C569 N571 1.314 . S
C569 H610 0.930 . S
C570 C568 1.358 . S
C570 N571 1.279 . S
C570 H611 0.930 1_545 S
N571 C569 1.314 . S
N571 C570 1.279 . S
C572 C574 1.353 . S
C572 N575 1.314 . S
C572 H578 0.930 . S
C573 N575 1.279 . S
C573 C576 1.358 . S
C573 H579 0.930 . S
C574 C572 1.353 . S
C574 C577 1.348 . S
C574 H612 0.929 . S
N575 Li530 1.990 . S
N575 C572 1.314 . S
N575 C573 1.279 . S
C576 C573 1.358 . S
C576 C577 1.356 . S
C576 H613 0.930 . S
C577 C574 1.348 . S
C577 C576 1.356 . S
H578 C572 0.930 . S
H579 C573 0.930 . S
C580 N581 1.314 . S
C580 C582 1.353 . S
C580 H586 0.930 . S
N581 Li531 1.990 . S
N581 C580 1.314 . S
N581 C584 1.279 . S
C582 C580 1.353 . S
C582 C585 1.348 . S
C582 H614 0.929 . S
C583 C584 1.358 . S
C583 C585 1.356 . S
C583 H615 0.930 . S
C584 N581 1.279 . S
C584 C583 1.358 . S
C584 H587 0.930 . S
C585 C582 1.348 . S
C585 C583 1.356 . S
H586 C580 0.930 . S
H587 C584 0.930 . S
O588 Li528 1.956 . S
O588 Li529 1.970 . S
O588 Li530 1.961 . S
O588 C532 1.325 . S
O589 Li528 1.970 . S
O589 Li529 1.956 . S
O589 Li531 1.961 . S
O589 C538 1.325 . S
O590 Li528 1.961 . S
O590 Li530 1.956 . S
O590 Li531 1.970 . S
O590 C560 1.325 . S
O591 Li529 1.961 . S
O591 Li530 1.970 . S
O591 Li531 1.956 . S
O591 C566 1.325 . S
H592 C534 0.929 . S
H593 C535 0.930 . S
H594 C536 0.930 . S
H595 C537 0.930 . S
H596 C539 0.943 . S
H597 C541 0.929 . S
H598 C542 0.930 . S
H599 C543 0.930 . S
H600 C546 0.930 . S
H601 C549 0.929 . S
H602 C554 0.929 . S
H603 C555 0.930 . S
H604 C562 0.929 . S
H605 C563 0.930 . S
H606 C564 0.930 . S
H607 C565 0.930 . S
H608 C567 0.929 . S
H609 C568 0.930 . S
H610 C569 0.930 . S
H611 C570 0.930 1_565 S
H612 C574 0.929 . S
H613 C576 0.930 . S
H614 C582 0.929 . S
H615 C583 0.930 . S
Li616 N633 1.990 . S
Li616 O676 1.956 . S
Li616 O677 1.970 . S
Li616 O678 1.961 . S
Li617 N641 1.990 . S
Li617 O676 1.970 . S
Li617 O677 1.956 . S
Li617 O679 1.961 . S
Li618 N663 1.990 . S
Li618 O676 1.961 . S
Li618 O678 1.956 . S
Li618 O679 1.970 . S
Li619 N669 1.990 . S
Li619 O677 1.961 . S
Li619 O678 1.970 . S
Li619 O679 1.956 . S
C620 C622 1.348 . S
C620 C623 1.356 . S
C620 O676 1.325 . S
N621 C624 1.314 . S
N621 C625 1.279 . S
C622 C620 1.348 . S
C622 C624 1.353 . S
C622 H680 0.929 . S
C623 C620 1.356 . S
C623 C625 1.358 . S
C623 H681 0.930 . S
C624 N621 1.314 . S
C624 C622 1.353 . S
C624 H682 0.930 . S
C625 N621 1.279 . S
C625 C623 1.358 . S
C625 H683 0.943 . S
C626 C629 1.348 . S
C626 C630 1.356 . S
C626 O677 1.325 . S
C627 N628 1.279 . S
C627 C630 1.358 . S
C627 H684 0.930 . S
N628 C627 1.279 . S
N628 C631 1.314 . S
C629 C626 1.348 . S
C629 C631 1.353 . S
C629 H685 0.929 . S
C630 C626 1.356 . S
C630 C627 1.358 . S
C630 H686 0.930 . S
C631 N628 1.314 . S
C631 C629 1.353 . S
C631 H687 0.930 . S
C632 N633 1.314 . S
C632 C637 1.353 . S
C632 H638 0.930 . S
N633 Li616 1.990 . S
N633 C632 1.314 . S
N633 C635 1.279 . S
C634 C635 1.358 . S
C634 C636 1.356 . S
C634 H688 0.930 . S
C635 N633 1.279 . S
C635 C634 1.358 . S
C635 H639 0.930 . S
C636 C634 1.356 . S
C636 C637 1.348 . S
C637 C632 1.353 . S
C637 C636 1.348 . S
C637 H689 0.929 . S
H638 C632 0.930 . S
H639 C635 0.930 . S
C640 N641 1.314 . S
C640 C642 1.353 . S
C640 H646 0.930 . S
N641 Li617 1.990 . S
N641 C640 1.314 . S
N641 C644 1.279 . S
C642 C640 1.353 . S
C642 C645 1.348 . S
C642 H690 0.929 . S
C643 C644 1.358 . S
C643 C645 1.356 . S
C643 H691 0.930 . S
C644 N641 1.279 . S
C644 C643 1.358 . S
C644 H647 0.930 . S
C645 C642 1.348 . S
C645 C643 1.356 . S
H646 C640 0.930 . S
H647 C644 0.930 . S
C648 C650 1.348 . S
C648 C651 1.356 . S
C648 O678 1.325 . S
N649 C652 1.314 . S
N649 C653 1.279 . S
C650 C648 1.348 . S
C650 C652 1.353 . S
C650 H692 0.929 . S
C651 C648 1.356 . S
C651 C653 1.358 . S
C651 H693 0.930 . S
C652 N649 1.314 . S
C652 C650 1.353 . S
C652 H694 0.930 . S
C653 N649 1.279 . S
C653 C651 1.358 . S
C653 H695 0.930 1_655 S
C654 C655 1.348 . S
C654 C656 1.356 . S
C654 O679 1.325 . S
C655 C654 1.348 . S
C655 C657 1.353 . S
C655 H696 0.929 . S
C656 C654 1.356 . S
C656 C658 1.358 . S
C656 H697 0.930 . S
C657 C655 1.353 . S
C657 N659 1.314 . S
C657 H698 0.930 . S
C658 C656 1.358 . S
C658 N659 1.279 . S
C658 H699 0.930 . S
N659 C657 1.314 . S
N659 C658 1.279 . S
C660 C662 1.353 . S
C660 N663 1.314 . S
C660 H666 0.930 . S
C661 N663 1.279 . S
C661 C664 1.358 . S
C661 H667 0.930 . S
C662 C660 1.353 . S
C662 C665 1.348 . S
C662 H700 0.929 . S
N663 Li618 1.990 . S
N663 C660 1.314 . S
N663 C661 1.279 . S
C664 C661 1.358 . S
C664 C665 1.356 . S
C664 H701 0.930 . S
C665 C662 1.348 . S
C665 C664 1.356 . S
H666 C660 0.930 . S
H667 C661 0.930 . S
C668 N669 1.314 . S
C668 C670 1.353 . S
C668 H674 0.930 . S
N669 Li619 1.990 . S
N669 C668 1.314 . S
N669 C672 1.279 . S
C670 C668 1.353 . S
C670 C673 1.348 . S
C670 H702 0.929 . S
C671 C672 1.358 . S
C671 C673 1.356 . S
C671 H703 0.930 . S
C672 N669 1.279 . S
C672 C671 1.358 . S
C672 H675 0.930 . S
C673 C670 1.348 . S
C673 C671 1.356 . S
H674 C668 0.930 . S
H675 C672 0.930 . S
O676 Li616 1.956 . S
O676 Li617 1.970 . S
O676 Li618 1.961 . S
O676 C620 1.325 . S
O677 Li616 1.970 . S
O677 Li617 1.956 . S
O677 Li619 1.961 . S
O677 C626 1.325 . S
O678 Li616 1.961 . S
O678 Li618 1.956 . S
O678 Li619 1.970 . S
O678 C648 1.325 . S
O679 Li617 1.961 . S
O679 Li618 1.970 . S
O679 Li619 1.956 . S
O679 C654 1.325 . S
H680 C622 0.929 . S
H681 C623 0.930 . S
H682 C624 0.930 . S
H683 C625 0.943 . S
H684 C627 0.930 . S
H685 C629 0.929 . S
H686 C630 0.930 . S
H687 C631 0.930 . S
H688 C634 0.930 . S
H689 C637 0.929 . S
H690 C642 0.929 . S
H691 C643 0.930 . S
H692 C650 0.929 . S
H693 C651 0.930 . S
H694 C652 0.930 . S
H695 C653 0.930 1_455 S
H696 C655 0.929 . S
H697 C656 0.930 . S
H698 C657 0.930 . S
H699 C658 0.930 . S
H700 C662 0.929 . S
H701 C664 0.930 . S
H702 C670 0.929 . S
H703 C671 0.930 . S
Li704 N721 1.990 . S
Li704 O764 1.956 . S
Li704 O765 1.970 . S
Li704 O766 1.961 . S
Li705 N729 1.990 . S
Li705 O764 1.970 . S
Li705 O765 1.956 . S
Li705 O767 1.961 . S
Li706 N751 1.990 . S
Li706 O764 1.961 . S
Li706 O766 1.956 . S
Li706 O767 1.970 . S
Li707 N757 1.990 . S
Li707 O765 1.961 . S
Li707 O766 1.970 . S
Li707 O767 1.956 . S
C708 C710 1.348 . S
C708 C711 1.356 . S
C708 O764 1.325 . S
N709 C712 1.314 . S
N709 C713 1.279 . S
C710 C708 1.348 . S
C710 C712 1.353 . S
C710 H768 0.929 . S
C711 C708 1.356 . S
C711 C713 1.358 . S
C711 H769 0.930 . S
C712 N709 1.314 . S
C712 C710 1.353 . S
C712 H770 0.930 . S
C713 N709 1.279 . S
C713 C711 1.358 . S
C713 H771 0.930 . S
C714 C717 1.348 . S
C714 C718 1.356 . S
C714 O765 1.325 . S
C715 N716 1.279 . S
C715 C718 1.358 . S
C715 H772 0.930 . S
N716 C715 1.279 . S
N716 C719 1.314 . S
C717 C714 1.348 . S
C717 C719 1.353 . S
C717 H773 0.929 . S
C718 C714 1.356 . S
C718 C715 1.358 . S
C718 H774 0.930 . S
C719 N716 1.314 . S
C719 C717 1.353 . S
C719 H775 0.930 . S
C720 N721 1.314 . S
C720 C725 1.353 . S
C720 H726 0.930 . S
N721 Li704 1.990 . S
N721 C720 1.314 . S
N721 C723 1.279 . S
C722 C723 1.358 . S
C722 C724 1.356 . S
C722 H776 0.930 . S
C723 N721 1.279 . S
C723 C722 1.358 . S
C723 H727 0.930 . S
C724 C722 1.356 . S
C724 C725 1.348 . S
C725 C720 1.353 . S
C725 C724 1.348 . S
C725 H777 0.929 . S
H726 C720 0.930 . S
H727 C723 0.930 . S
C728 N729 1.314 . S
C728 C730 1.353 . S
C728 H734 0.930 . S
N729 Li705 1.990 . S
N729 C728 1.314 . S
N729 C732 1.279 . S
C730 C728 1.353 . S
C730 C733 1.348 . S
C730 H778 0.929 . S
C731 C732 1.358 . S
C731 C733 1.356 . S
C731 H779 0.930 . S
C732 N729 1.279 . S
C732 C731 1.358 . S
C732 H735 0.930 . S
C733 C730 1.348 . S
C733 C731 1.356 . S
H734 C728 0.930 . S
H735 C732 0.930 . S
C736 C738 1.348 . S
C736 C739 1.356 . S
C736 O766 1.325 . S
N737 C740 1.314 . S
N737 C741 1.279 . S
C738 C736 1.348 . S
C738 C740 1.353 . S
C738 H780 0.929 . S
C739 C736 1.356 . S
C739 C741 1.358 . S
C739 H781 0.930 . S
C740 N737 1.314 . S
C740 C738 1.353 . S
C740 H782 0.930 . S
C741 N737 1.279 . S
C741 C739 1.358 . S
C741 H783 0.930 . S
C742 C743 1.348 . S
C742 C744 1.356 . S
C742 O767 1.325 . S
C743 C742 1.348 . S
C743 C745 1.353 . S
C743 H784 0.929 . S
C744 C742 1.356 . S
C744 C746 1.358 . S
C744 H785 0.930 . S
C745 C743 1.353 . S
C745 N747 1.314 . S
C745 H786 0.930 . S
C746 C744 1.358 . S
C746 N747 1.279 . S
C746 H787 0.930 . S
N747 C745 1.314 . S
N747 C746 1.279 . S
C748 C750 1.353 . S
C748 N751 1.314 . S
C748 H754 0.930 . S
C749 N751 1.279 . S
C749 C752 1.358 . S
C749 H755 0.930 . S
C750 C748 1.353 . S
C750 C753 1.348 . S
C750 H788 0.929 . S
N751 Li706 1.990 . S
N751 C748 1.314 . S
N751 C749 1.279 . S
C752 C749 1.358 . S
C752 C753 1.356 . S
C752 H789 0.930 . S
C753 C750 1.348 . S
C753 C752 1.356 . S
H754 C748 0.930 . S
H755 C749 0.930 . S
C756 N757 1.314 . S
C756 C758 1.353 . S
C756 H762 0.930 . S
N757 Li707 1.990 . S
N757 C756 1.314 . S
N757 C760 1.279 . S
C758 C756 1.353 . S
C758 C761 1.348 . S
C758 H790 0.929 . S
C759 C760 1.358 . S
C759 C761 1.356 . S
C759 H791 0.930 . S
C760 N757 1.279 . S
C760 C759 1.358 . S
C760 H763 0.930 . S
C761 C758 1.348 . S
C761 C759 1.356 . S
H762 C756 0.930 . S
H763 C760 0.930 . S
O764 Li704 1.956 . S
O764 Li705 1.970 . S
O764 Li706 1.961 . S
O764 C708 1.325 . S
O765 Li704 1.970 . S
O765 Li705 1.956 . S
O765 Li707 1.961 . S
O765 C714 1.325 . S
O766 Li704 1.961 . S
O766 Li706 1.956 . S
O766 Li707 1.970 . S
O766 C736 1.325 . S
O767 Li705 1.961 . S
O767 Li706 1.970 . S
O767 Li707 1.956 . S
O767 C742 1.325 . S
H768 C710 0.929 . S
H769 C711 0.930 . S
H770 C712 0.930 . S
H771 C713 0.930 . S
H772 C715 0.930 . S
H773 C717 0.929 . S
H774 C718 0.930 . S
H775 C719 0.930 . S
H776 C722 0.930 . S
H777 C725 0.929 . S
H778 C730 0.929 . S
H779 C731 0.930 . S
H780 C738 0.929 . S
H781 C739 0.930 . S
H782 C740 0.930 . S
H783 C741 0.930 . S
H784 C743 0.929 . S
H785 C744 0.930 . S
H786 C745 0.930 . S
H787 C746 0.930 . S
H788 C750 0.929 . S
H789 C752 0.930 . S
H790 C758 0.929 . S
H791 C759 0.930 . S
Li792 N809 1.990 . S
Li792 O852 1.956 . S
Li792 O853 1.970 . S
Li792 O854 1.961 . S
Li793 N817 1.990 . S
Li793 O852 1.970 . S
Li793 O853 1.956 . S
Li793 O855 1.961 . S
Li794 N839 1.990 . S
Li794 O852 1.961 . S
Li794 O854 1.956 . S
Li794 O855 1.970 . S
Li795 N845 1.990 . S
Li795 O853 1.961 . S
Li795 O854 1.970 . S
Li795 O855 1.956 . S
C796 C798 1.348 . S
C796 C799 1.356 . S
C796 O852 1.325 . S
N797 C800 1.314 . S
N797 C801 1.279 . S
C798 C796 1.348 . S
C798 C800 1.353 . S
C798 H856 0.929 . S
C799 C796 1.356 . S
C799 C801 1.358 . S
C799 H857 0.930 . S
C800 N797 1.314 . S
C800 C798 1.353 . S
C800 H858 0.930 . S
C801 N797 1.279 . S
C801 C799 1.358 . S
C801 H859 0.930 . S
C802 C805 1.348 . S
C802 C806 1.356 . S
C802 O853 1.325 . S
C803 N804 1.279 . S
C803 C806 1.358 . S
C803 H860 0.930 . S
N804 C803 1.279 . S
N804 C807 1.314 . S
C805 C802 1.348 . S
C805 C807 1.353 . S
C805 H861 0.929 . S
C806 C802 1.356 . S
C806 C803 1.358 . S
C806 H862 0.930 . S
C807 N804 1.314 . S
C807 C805 1.353 . S
C807 H863 0.930 . S
C808 N809 1.314 . S
C808 C813 1.353 . S
C808 H814 0.930 . S
N809 Li792 1.990 . S
N809 C808 1.314 . S
N809 C811 1.279 . S
C810 C811 1.358 . S
C810 C812 1.356 . S
C810 H864 0.930 . S
C811 N809 1.279 . S
C811 C810 1.358 . S
C811 H815 0.930 . S
C812 C810 1.356 . S
C812 C813 1.348 . S
C813 C808 1.353 . S
C813 C812 1.348 . S
C813 H865 0.929 . S
H814 C808 0.930 . S
H815 C811 0.930 . S
C816 N817 1.314 . S
C816 C818 1.353 . S
C816 H822 0.930 . S
N817 Li793 1.990 . S
N817 C816 1.314 . S
N817 C820 1.279 . S
C818 C816 1.353 . S
C818 C821 1.348 . S
C818 H866 0.929 . S
C819 C820 1.358 . S
C819 C821 1.356 . S
C819 H867 0.930 . S
C820 N817 1.279 . S
C820 C819 1.358 . S
C820 H823 0.930 . S
C821 C818 1.348 . S
C821 C819 1.356 . S
H822 C816 0.930 . S
H823 C820 0.930 . S
C824 C826 1.348 . S
C824 C827 1.356 . S
C824 O854 1.325 . S
N825 C828 1.314 . S
N825 C829 1.279 . S
C826 C824 1.348 . S
C826 C828 1.353 . S
C826 H868 0.929 . S
C827 C824 1.356 . S
C827 C829 1.358 . S
C827 H869 0.930 . S
C828 N825 1.314 . S
C828 C826 1.353 . S
C828 H870 0.930 . S
C829 N825 1.279 . S
C829 C827 1.358 . S
C829 H871 0.930 . S
C830 C831 1.348 . S
C830 C832 1.356 . S
C830 O855 1.325 . S
C831 C830 1.348 . S
C831 C833 1.353 . S
C831 H872 0.929 . S
C832 C830 1.356 . S
C832 C834 1.358 . S
C832 H873 0.930 . S
C833 C831 1.353 . S
C833 N835 1.314 . S
C833 H874 0.930 . S
C834 C832 1.358 . S
C834 N835 1.279 . S
C834 H875 0.930 . S
N835 C833 1.314 . S
N835 C834 1.279 . S
C836 C838 1.353 . S
C836 N839 1.314 . S
C836 H842 0.930 . S
C837 N839 1.279 . S
C837 C840 1.358 . S
C837 H843 0.930 . S
C838 C836 1.353 . S
C838 C841 1.348 . S
C838 H876 0.929 . S
N839 Li794 1.990 . S
N839 C836 1.314 . S
N839 C837 1.279 . S
C840 C837 1.358 . S
C840 C841 1.356 . S
C840 H877 0.930 . S
C841 C838 1.348 . S
C841 C840 1.356 . S
H842 C836 0.930 . S
H843 C837 0.930 . S
C844 N845 1.314 . S
C844 C846 1.353 . S
C844 H850 0.930 . S
N845 Li795 1.990 . S
N845 C844 1.314 . S
N845 C848 1.279 . S
C846 C844 1.353 . S
C846 C849 1.348 . S
C846 H878 0.929 . S
C847 C848 1.358 . S
C847 C849 1.356 . S
C847 H879 0.930 . S
C848 N845 1.279 . S
C848 C847 1.358 . S
C848 H851 0.930 . S
C849 C846 1.348 . S
C849 C847 1.356 . S
H850 C844 0.930 . S
H851 C848 0.930 . S
O852 Li792 1.956 . S
O852 Li793 1.970 . S
O852 Li794 1.961 . S
O852 C796 1.325 . S
O853 Li792 1.970 . S
O853 Li793 1.956 . S
O853 Li795 1.961 . S
O853 C802 1.325 . S
O854 Li792 1.961 . S
O854 Li794 1.956 . S
O854 Li795 1.970 . S
O854 C824 1.325 . S
O855 Li793 1.961 . S
O855 Li794 1.970 . S
O855 Li795 1.956 . S
O855 C830 1.325 . S
H856 C798 0.929 . S
H857 C799 0.930 . S
H858 C800 0.930 . S
H859 C801 0.930 . S
H860 C803 0.930 . S
H861 C805 0.929 . S
H862 C806 0.930 . S
H863 C807 0.930 . S
H864 C810 0.930 . S
H865 C813 0.929 . S
H866 C818 0.929 . S
H867 C819 0.930 . S
H868 C826 0.929 . S
H869 C827 0.930 . S
H870 C828 0.930 . S
H871 C829 0.930 . S
H872 C831 0.929 . S
H873 C832 0.930 . S
H874 C833 0.930 . S
H875 C834 0.930 . S
H876 C838 0.929 . S
H877 C840 0.930 . S
H878 C846 0.929 . S
H879 C847 0.930 . S
Li880 N897 1.990 . S
Li880 O940 1.956 . S
Li880 O941 1.970 . S
Li880 O942 1.961 . S
Li881 N905 1.990 . S
Li881 O940 1.970 . S
Li881 O941 1.956 . S
Li881 O943 1.961 . S
Li882 N927 1.990 . S
Li882 O940 1.961 . S
Li882 O942 1.956 . S
Li882 O943 1.970 . S
Li883 N933 1.990 . S
Li883 O941 1.961 . S
Li883 O942 1.970 . S
Li883 O943 1.956 . S
C884 C886 1.348 . S
C884 C887 1.356 . S
C884 O940 1.325 . S
N885 C888 1.314 . S
N885 C889 1.279 . S
C886 C884 1.348 . S
C886 C888 1.353 . S
C886 H944 0.929 . S
C887 C884 1.356 . S
C887 C889 1.358 . S
C887 H945 0.930 . S
C888 N885 1.314 . S
C888 C886 1.353 . S
C888 H946 0.930 . S
C889 N885 1.279 . S
C889 C887 1.358 . S
C889 H947 0.930 . S
C890 C893 1.348 . S
C890 C894 1.356 . S
C890 O941 1.325 . S
C891 N892 1.279 . S
C891 C894 1.358 . S
C891 H948 0.930 1_565 S
N892 C891 1.279 . S
N892 C895 1.314 . S
C893 C890 1.348 . S
C893 C895 1.353 . S
C893 H949 0.929 . S
C894 C890 1.356 . S
C894 C891 1.358 . S
C894 H950 0.930 . S
C895 N892 1.314 . S
C895 C893 1.353 . S
C895 H951 0.930 . S
C896 N897 1.314 . S
C896 C901 1.353 . S
C896 H902 0.930 . S
N897 Li880 1.990 . S
N897 C896 1.314 . S
N897 C899 1.279 . S
C898 C899 1.358 . S
C898 C900 1.356 . S
C898 H952 0.930 . S
C899 N897 1.279 . S
C899 C898 1.358 . S
C899 H903 0.930 . S
C900 C898 1.356 . S
C900 C901 1.348 . S
C901 C896 1.353 . S
C901 C900 1.348 . S
C901 H953 0.929 . S
H902 C896 0.930 . S
H903 C899 0.930 . S
C904 N905 1.314 . S
C904 C906 1.353 . S
C904 H910 0.930 . S
N905 Li881 1.990 . S
N905 C904 1.314 . S
N905 C908 1.279 . S
C906 C904 1.353 . S
C906 C909 1.348 . S
C906 H954 0.929 . S
C907 C908 1.358 . S
C907 C909 1.356 . S
C907 H955 0.930 . S
C908 N905 1.279 . S
C908 C907 1.358 . S
C908 H911 0.930 . S
C909 C906 1.348 . S
C909 C907 1.356 . S
H910 C904 0.930 . S
H911 C908 0.930 . S
C912 C914 1.348 . S
C912 C915 1.356 . S
C912 O942 1.325 . S
N913 C916 1.314 . S
N913 C917 1.279 . S
C914 C912 1.348 . S
C914 C916 1.353 . S
C914 H956 0.929 . S
C915 C912 1.356 . S
C915 C917 1.358 . S
C915 H957 0.930 . S
C916 N913 1.314 . S
C916 C914 1.353 . S
C916 H958 0.930 . S
C917 N913 1.279 . S
C917 C915 1.358 . S
C917 H959 0.930 . S
C918 C919 1.348 . S
C918 C920 1.356 . S
C918 O943 1.325 . S
C919 C918 1.348 . S
C919 C921 1.353 . S
C919 H960 0.929 . S
C920 C918 1.356 . S
C920 C922 1.358 . S
C920 H961 0.930 . S
C921 C919 1.353 . S
C921 N923 1.314 . S
C921 H962 0.930 . S
C922 C920 1.358 . S
C922 N923 1.279 . S
C922 H963 0.944 . S
N923 C921 1.314 . S
N923 C922 1.279 . S
C924 C926 1.353 . S
C924 N927 1.314 . S
C924 H930 0.930 . S
C925 N927 1.279 . S
C925 C928 1.358 . S
C925 H931 0.930 . S
C926 C924 1.353 . S
C926 C929 1.348 . S
C926 H964 0.929 . S
N927 Li882 1.990 . S
N927 C924 1.314 . S
N927 C925 1.279 . S
C928 C925 1.358 . S
C928 C929 1.356 . S
C928 H965 0.930 . S
C929 C926 1.348 . S
C929 C928 1.356 . S
H930 C924 0.930 . S
H931 C925 0.930 . S
C932 N933 1.314 . S
C932 C934 1.353 . S
C932 H938 0.930 . S
N933 Li883 1.990 . S
N933 C932 1.314 . S
N933 C936 1.279 . S
C934 C932 1.353 . S
C934 C937 1.348 . S
C934 H966 0.929 . S
C935 C936 1.358 . S
C935 C937 1.356 . S
C935 H967 0.930 . S
C936 N933 1.279 . S
C936 C935 1.358 . S
C936 H939 0.930 . S
C937 C934 1.348 . S
C937 C935 1.356 . S
H938 C932 0.930 . S
H939 C936 0.930 . S
O940 Li880 1.956 . S
O940 Li881 1.970 . S
O940 Li882 1.961 . S
O940 C884 1.325 . S
O941 Li880 1.970 . S
O941 Li881 1.956 . S
O941 Li883 1.961 . S
O941 C890 1.325 . S
O942 Li880 1.961 . S
O942 Li882 1.956 . S
O942 Li883 1.970 . S
O942 C912 1.325 . S
O943 Li881 1.961 . S
O943 Li882 1.970 . S
O943 Li883 1.956 . S
O943 C918 1.325 . S
H944 C886 0.929 . S
H945 C887 0.930 . S
H946 C888 0.930 . S
H947 C889 0.930 . S
H948 C891 0.930 1_545 S
H949 C893 0.929 . S
H950 C894 0.930 . S
H951 C895 0.930 . S
H952 C898 0.930 . S
H953 C901 0.929 . S
H954 C906 0.929 . S
H955 C907 0.930 . S
H956 C914 0.929 . S
H957 C915 0.930 . S
H958 C916 0.930 . S
H959 C917 0.930 . S
H960 C919 0.929 . S
H961 C920 0.930 . S
H962 C921 0.930 . S
H963 C922 0.944 . S
H964 C926 0.929 . S
H965 C928 0.930 . S
H966 C934 0.929 . S
H967 C935 0.930 . S
Li968 N985 1.990 . S
Li968 O1028 1.956 . S
Li968 O1029 1.970 . S
Li968 O1030 1.961 . S
Li969 N993 1.990 . S
Li969 O1028 1.970 . S
Li969 O1029 1.956 . S
Li969 O1031 1.961 . S
Li970 N1015 1.990 . S
Li970 O1028 1.961 . S
Li970 O1030 1.956 . S
Li970 O1031 1.970 . S
Li971 N1021 1.990 . S
Li971 O1029 1.961 . S
Li971 O1030 1.970 . S
Li971 O1031 1.956 . S
C972 C974 1.348 . S
C972 C975 1.356 . S
C972 O1028 1.325 . S
N973 C976 1.314 . S
N973 C977 1.279 . S
C974 C972 1.348 . S
C974 C976 1.353 . S
C974 H1032 0.929 . S
C975 C972 1.356 . S
C975 C977 1.358 . S
C975 H1033 0.930 . S
C976 N973 1.314 . S
C976 C974 1.353 . S
C976 H1034 0.930 . S
C977 N973 1.279 . S
C977 C975 1.358 . S
C977 H1035 0.930 1_455 S
C978 C981 1.348 . S
C978 C982 1.356 . S
C978 O1029 1.325 . S
C979 N980 1.279 . S
C979 C982 1.358 . S
C979 H1036 0.930 . S
N980 C979 1.279 . S
N980 C983 1.314 . S
C981 C978 1.348 . S
C981 C983 1.353 . S
C981 H1037 0.929 . S
C982 C978 1.356 . S
C982 C979 1.358 . S
C982 H1038 0.930 . S
C983 N980 1.314 . S
C983 C981 1.353 . S
C983 H1039 0.930 . S
C984 N985 1.314 . S
C984 C989 1.353 . S
C984 H990 0.930 . S
N985 Li968 1.990 . S
N985 C984 1.314 . S
N985 C987 1.279 . S
C986 C987 1.358 . S
C986 C988 1.356 . S
C986 H1040 0.930 . S
C987 N985 1.279 . S
C987 C986 1.358 . S
C987 H991 0.930 . S
C988 C986 1.356 . S
C988 C989 1.348 . S
C989 C984 1.353 . S
C989 C988 1.348 . S
C989 H1041 0.929 . S
H990 C984 0.930 . S
H991 C987 0.930 . S
C992 N993 1.314 . S
C992 C994 1.353 . S
C992 H998 0.930 . S
N993 Li969 1.990 . S
N993 C992 1.314 . S
N993 C996 1.279 . S
C994 C992 1.353 . S
C994 C997 1.348 . S
C994 H1042 0.929 . S
C995 C996 1.358 . S
C995 C997 1.356 . S
C995 H1043 0.930 . S
C996 N993 1.279 . S
C996 C995 1.358 . S
C996 H999 0.930 . S
C997 C994 1.348 . S
C997 C995 1.356 . S
H998 C992 0.930 . S
H999 C996 0.930 . S
C1000 C1002 1.348 . S
C1000 C1003 1.356 . S
C1000 O1030 1.325 . S
N1001 C1004 1.314 . S
N1001 C1005 1.279 . S
C1002 C1000 1.348 . S
C1002 C1004 1.353 . S
C1002 H1044 0.929 . S
C1003 C1000 1.356 . S
C1003 C1005 1.358 . S
C1003 H1045 0.930 . S
C1004 N1001 1.314 . S
C1004 C1002 1.353 . S
C1004 H1046 0.930 . S
C1005 N1001 1.279 . S
C1005 C1003 1.358 . S
C1005 H1047 0.944 . S
C1006 C1007 1.348 . S
C1006 C1008 1.356 . S
C1006 O1031 1.325 . S
C1007 C1006 1.348 . S
C1007 C1009 1.353 . S
C1007 H1048 0.929 . S
C1008 C1006 1.356 . S
C1008 C1010 1.358 . S
C1008 H1049 0.930 . S
C1009 C1007 1.353 . S
C1009 N1011 1.314 . S
C1009 H1050 0.930 . S
C1010 C1008 1.358 . S
C1010 N1011 1.279 . S
C1010 H1051 0.930 . S
N1011 C1009 1.314 . S
N1011 C1010 1.279 . S
C1012 C1014 1.353 . S
C1012 N1015 1.314 . S
C1012 H1018 0.930 . S
C1013 N1015 1.279 . S
C1013 C1016 1.358 . S
C1013 H1019 0.930 . S
C1014 C1012 1.353 . S
C1014 C1017 1.348 . S
C1014 H1052 0.929 . S
N1015 Li970 1.990 . S
N1015 C1012 1.314 . S
N1015 C1013 1.279 . S
C1016 C1013 1.358 . S
C1016 C1017 1.356 . S
C1016 H1053 0.930 . S
C1017 C1014 1.348 . S
C1017 C1016 1.356 . S
H1018 C1012 0.930 . S
H1019 C1013 0.930 . S
C1020 N1021 1.314 . S
C1020 C1022 1.353 . S
C1020 H1026 0.930 . S
N1021 Li971 1.990 . S
N1021 C1020 1.314 . S
N1021 C1024 1.279 . S
C1022 C1020 1.353 . S
C1022 C1025 1.348 . S
C1022 H1054 0.929 . S
C1023 C1024 1.358 . S
C1023 C1025 1.356 . S
C1023 H1055 0.930 . S
C1024 N1021 1.279 . S
C1024 C1023 1.358 . S
C1024 H1027 0.930 . S
C1025 C1022 1.348 . S
C1025 C1023 1.356 . S
H1026 C1020 0.930 . S
H1027 C1024 0.930 . S
O1028 Li968 1.956 . S
O1028 Li969 1.970 . S
O1028 Li970 1.961 . S
O1028 C972 1.325 . S
O1029 Li968 1.970 . S
O1029 Li969 1.956 . S
O1029 Li971 1.961 . S
O1029 C978 1.325 . S
O1030 Li968 1.961 . S
O1030 Li970 1.956 . S
O1030 Li971 1.970 . S
O1030 C1000 1.325 . S
O1031 Li969 1.961 . S
O1031 Li970 1.970 . S
O1031 Li971 1.956 . S
O1031 C1006 1.325 . S
H1032 C974 0.929 . S
H1033 C975 0.930 . S
H1034 C976 0.930 . S
H1035 C977 0.930 1_655 S
H1036 C979 0.930 . S
H1037 C981 0.929 . S
H1038 C982 0.930 . S
H1039 C983 0.930 . S
H1040 C986 0.930 . S
H1041 C989 0.929 . S
H1042 C994 0.929 . S
H1043 C995 0.930 . S
H1044 C1002 0.929 . S
H1045 C1003 0.930 . S
H1046 C1004 0.930 . S
H1047 C1005 0.944 . S
H1048 C1007 0.929 . S
H1049 C1008 0.930 . S
H1050 C1009 0.930 . S
H1051 C1010 0.930 . S
H1052 C1014 0.929 . S
H1053 C1016 0.930 . S
H1054 C1022 0.929 . S
H1055 C1023 0.930 . S
Li1056 N1073 1.990 . S
Li1056 O1116 1.956 . S
Li1056 O1117 1.970 . S
Li1056 O1118 1.961 . S
Li1057 N1081 1.990 . S
Li1057 O1116 1.970 . S
Li1057 O1117 1.956 . S
Li1057 O1119 1.961 . S
Li1058 N1103 1.990 . S
Li1058 O1116 1.961 . S
Li1058 O1118 1.956 . S
Li1058 O1119 1.970 . S
Li1059 N1109 1.990 . S
Li1059 O1117 1.961 . S
Li1059 O1118 1.970 . S
Li1059 O1119 1.956 . S
C1060 C1062 1.348 . S
C1060 C1063 1.356 . S
C1060 O1116 1.325 . S
N1061 C1064 1.314 . S
N1061 C1065 1.279 . S
C1062 C1060 1.348 . S
C1062 C1064 1.353 . S
C1062 H1120 0.929 . S
C1063 C1060 1.356 . S
C1063 C1065 1.358 . S
C1063 H1121 0.930 . S
C1064 N1061 1.314 . S
C1064 C1062 1.353 . S
C1064 H1122 0.930 . S
C1065 N1061 1.279 . S
C1065 C1063 1.358 . S
C1065 H1123 0.944 . S
C1066 C1069 1.348 . S
C1066 C1070 1.356 . S
C1066 O1117 1.325 . S
C1067 N1068 1.279 . S
C1067 C1070 1.358 . S
C1067 H1124 0.930 . S
N1068 C1067 1.279 . S
N1068 C1071 1.314 . S
C1069 C1066 1.348 . S
C1069 C1071 1.353 . S
C1069 H1125 0.929 . S
C1070 C1066 1.356 . S
C1070 C1067 1.358 . S
C1070 H1126 0.930 . S
C1071 N1068 1.314 . S
C1071 C1069 1.353 . S
C1071 H1127 0.930 . S
C1072 N1073 1.314 . S
C1072 C1077 1.353 . S
C1072 H1078 0.930 . S
N1073 Li1056 1.990 . S
N1073 C1072 1.314 . S
N1073 C1075 1.279 . S
C1074 C1075 1.358 . S
C1074 C1076 1.356 . S
C1074 H1128 0.930 . S
C1075 N1073 1.279 . S
C1075 C1074 1.358 . S
C1075 H1079 0.930 . S
C1076 C1074 1.356 . S
C1076 C1077 1.348 . S
C1077 C1072 1.353 . S
C1077 C1076 1.348 . S
C1077 H1129 0.929 . S
H1078 C1072 0.930 . S
H1079 C1075 0.930 . S
C1080 N1081 1.314 . S
C1080 C1082 1.353 . S
C1080 H1086 0.930 . S
N1081 Li1057 1.990 . S
N1081 C1080 1.314 . S
N1081 C1084 1.279 . S
C1082 C1080 1.353 . S
C1082 C1085 1.348 . S
C1082 H1130 0.929 . S
C1083 C1084 1.358 . S
C1083 C1085 1.356 . S
C1083 H1131 0.930 . S
C1084 N1081 1.279 . S
C1084 C1083 1.358 . S
C1084 H1087 0.930 . S
C1085 C1082 1.348 . S
C1085 C1083 1.356 . S
H1086 C1080 0.930 . S
H1087 C1084 0.930 . S
C1088 C1090 1.348 . S
C1088 C1091 1.356 . S
C1088 O1118 1.325 . S
N1089 C1092 1.314 . S
N1089 C1093 1.279 . S
C1090 C1088 1.348 . S
C1090 C1092 1.353 . S
C1090 H1132 0.929 . S
C1091 C1088 1.356 . S
C1091 C1093 1.358 . S
C1091 H1133 0.930 . S
C1092 N1089 1.314 . S
C1092 C1090 1.353 . S
C1092 H1134 0.930 . S
C1093 N1089 1.279 . S
C1093 C1091 1.358 . S
C1093 H1135 0.930 1_565 S
C1094 C1095 1.348 . S
C1094 C1096 1.356 . S
C1094 O1119 1.325 . S
C1095 C1094 1.348 . S
C1095 C1097 1.353 . S
C1095 H1136 0.929 . S
C1096 C1094 1.356 . S
C1096 C1098 1.358 . S
C1096 H1137 0.930 . S
C1097 C1095 1.353 . S
C1097 N1099 1.314 . S
C1097 H1138 0.930 . S
C1098 C1096 1.358 . S
C1098 N1099 1.279 . S
C1098 H1139 0.930 . S
N1099 C1097 1.314 . S
N1099 C1098 1.279 . S
C1100 C1102 1.353 . S
C1100 N1103 1.314 . S
C1100 H1106 0.930 . S
C1101 N1103 1.279 . S
C1101 C1104 1.358 . S
C1101 H1107 0.930 . S
C1102 C1100 1.353 . S
C1102 C1105 1.348 . S
C1102 H1140 0.929 . S
N1103 Li1058 1.990 . S
N1103 C1100 1.314 . S
N1103 C1101 1.279 . S
C1104 C1101 1.358 . S
C1104 C1105 1.356 . S
C1104 H1141 0.930 . S
C1105 C1102 1.348 . S
C1105 C1104 1.356 . S
H1106 C1100 0.930 . S
H1107 C1101 0.930 . S
C1108 N1109 1.314 . S
C1108 C1110 1.353 . S
C1108 H1114 0.930 . S
N1109 Li1059 1.990 . S
N1109 C1108 1.314 . S
N1109 C1112 1.279 . S
C1110 C1108 1.353 . S
C1110 C1113 1.348 . S
C1110 H1142 0.929 . S
C1111 C1112 1.358 . S
C1111 C1113 1.356 . S
C1111 H1143 0.930 . S
C1112 N1109 1.279 . S
C1112 C1111 1.358 . S
C1112 H1115 0.930 . S
C1113 C1110 1.348 . S
C1113 C1111 1.356 . S
H1114 C1108 0.930 . S
H1115 C1112 0.930 . S
O1116 Li1056 1.956 . S
O1116 Li1057 1.970 . S
O1116 Li1058 1.961 . S
O1116 C1060 1.325 . S
O1117 Li1056 1.970 . S
O1117 Li1057 1.956 . S
O1117 Li1059 1.961 . S
O1117 C1066 1.325 . S
O1118 Li1056 1.961 . S
O1118 Li1058 1.956 . S
O1118 Li1059 1.970 . S
O1118 C1088 1.325 . S
O1119 Li1057 1.961 . S
O1119 Li1058 1.970 . S
O1119 Li1059 1.956 . S
O1119 C1094 1.325 . S
H1120 C1062 0.929 . S
H1121 C1063 0.930 . S
H1122 C1064 0.930 . S
H1123 C1065 0.944 . S
H1124 C1067 0.930 . S
H1125 C1069 0.929 . S
H1126 C1070 0.930 . S
H1127 C1071 0.930 . S
H1128 C1074 0.930 . S
H1129 C1077 0.929 . S
H1130 C1082 0.929 . S
H1131 C1083 0.930 . S
H1132 C1090 0.929 . S
H1133 C1091 0.930 . S
H1134 C1092 0.930 . S
H1135 C1093 0.930 1_545 S
H1136 C1095 0.929 . S
H1137 C1096 0.930 . S
H1138 C1097 0.930 . S
H1139 C1098 0.930 . S
H1140 C1102 0.929 . S
H1141 C1104 0.930 . S
H1142 C1110 0.929 . S
H1143 C1111 0.930 . S
Li1144 N1161 1.990 . S
Li1144 O1204 1.956 . S
Li1144 O1205 1.970 . S
Li1144 O1206 1.961 . S
Li1145 N1169 1.990 . S
Li1145 O1204 1.970 . S
Li1145 O1205 1.956 . S
Li1145 O1207 1.961 . S
Li1146 N1191 1.990 . S
Li1146 O1204 1.961 . S
Li1146 O1206 1.956 . S
Li1146 O1207 1.970 . S
Li1147 N1197 1.990 . S
Li1147 O1205 1.961 . S
Li1147 O1206 1.970 . S
Li1147 O1207 1.956 . S
C1148 C1150 1.348 . S
C1148 C1151 1.356 . S
C1148 O1204 1.325 . S
N1149 C1152 1.314 . S
N1149 C1153 1.279 . S
C1150 C1148 1.348 . S
C1150 C1152 1.353 . S
C1150 H1208 0.929 . S
C1151 C1148 1.356 . S
C1151 C1153 1.358 . S
C1151 H1209 0.930 . S
C1152 N1149 1.314 . S
C1152 C1150 1.353 . S
C1152 H1210 0.930 . S
C1153 N1149 1.279 . S
C1153 C1151 1.358 . S
C1153 H1211 0.930 . S
C1154 C1157 1.348 . S
C1154 C1158 1.356 . S
C1154 O1205 1.325 . S
C1155 N1156 1.279 . S
C1155 C1158 1.358 . S
C1155 H1212 0.944 . S
N1156 C1155 1.279 . S
N1156 C1159 1.314 . S
C1157 C1154 1.348 . S
C1157 C1159 1.353 . S
C1157 H1213 0.929 . S
C1158 C1154 1.356 . S
C1158 C1155 1.358 . S
C1158 H1214 0.930 . S
C1159 N1156 1.314 . S
C1159 C1157 1.353 . S
C1159 H1215 0.930 . S
C1160 N1161 1.314 . S
C1160 C1165 1.353 . S
C1160 H1166 0.930 . S
N1161 Li1144 1.990 . S
N1161 C1160 1.314 . S
N1161 C1163 1.279 . S
C1162 C1163 1.358 . S
C1162 C1164 1.356 . S
C1162 H1216 0.930 . S
C1163 N1161 1.279 . S
C1163 C1162 1.358 . S
C1163 H1167 0.930 . S
C1164 C1162 1.356 . S
C1164 C1165 1.348 . S
C1165 C1160 1.353 . S
C1165 C1164 1.348 . S
C1165 H1217 0.929 . S
H1166 C1160 0.930 . S
H1167 C1163 0.930 . S
C1168 N1169 1.314 . S
C1168 C1170 1.353 . S
C1168 H1174 0.930 . S
N1169 Li1145 1.990 . S
N1169 C1168 1.314 . S
N1169 C1172 1.279 . S
C1170 C1168 1.353 . S
C1170 C1173 1.348 . S
C1170 H1218 0.929 . S
C1171 C1172 1.358 . S
C1171 C1173 1.356 . S
C1171 H1219 0.930 . S
C1172 N1169 1.279 . S
C1172 C1171 1.358 . S
C1172 H1175 0.930 . S
C1173 C1170 1.348 . S
C1173 C1171 1.356 . S
H1174 C1168 0.930 . S
H1175 C1172 0.930 . S
C1176 C1178 1.348 . S
C1176 C1179 1.356 . S
C1176 O1206 1.325 . S
N1177 C1180 1.314 . S
N1177 C1181 1.279 . S
C1178 C1176 1.348 . S
C1178 C1180 1.353 . S
C1178 H1220 0.929 . S
C1179 C1176 1.356 . S
C1179 C1181 1.358 . S
C1179 H1221 0.930 . S
C1180 N1177 1.314 . S
C1180 C1178 1.353 . S
C1180 H1222 0.930 . S
C1181 N1177 1.279 . S
C1181 C1179 1.358 . S
C1181 H1223 0.930 . S
C1182 C1183 1.348 . S
C1182 C1184 1.356 . S
C1182 O1207 1.325 . S
C1183 C1182 1.348 . S
C1183 C1185 1.353 . S
C1183 H1224 0.929 . S
C1184 C1182 1.356 . S
C1184 C1186 1.358 . S
C1184 H1225 0.930 . S
C1185 C1183 1.353 . S
C1185 N1187 1.314 . S
C1185 H1226 0.930 . S
C1186 C1184 1.358 . S
C1186 N1187 1.279 . S
C1186 H1227 0.930 1_455 S
N1187 C1185 1.314 . S
N1187 C1186 1.279 . S
C1188 C1190 1.353 . S
C1188 N1191 1.314 . S
C1188 H1194 0.930 . S
C1189 N1191 1.279 . S
C1189 C1192 1.358 . S
C1189 H1195 0.930 . S
C1190 C1188 1.353 . S
C1190 C1193 1.348 . S
C1190 H1228 0.929 . S
N1191 Li1146 1.990 . S
N1191 C1188 1.314 . S
N1191 C1189 1.279 . S
C1192 C1189 1.358 . S
C1192 C1193 1.356 . S
C1192 H1229 0.930 . S
C1193 C1190 1.348 . S
C1193 C1192 1.356 . S
H1194 C1188 0.930 . S
H1195 C1189 0.930 . S
C1196 N1197 1.314 . S
C1196 C1198 1.353 . S
C1196 H1202 0.930 . S
N1197 Li1147 1.990 . S
N1197 C1196 1.314 . S
N1197 C1200 1.279 . S
C1198 C1196 1.353 . S
C1198 C1201 1.348 . S
C1198 H1230 0.929 . S
C1199 C1200 1.358 . S
C1199 C1201 1.356 . S
C1199 H1231 0.930 . S
C1200 N1197 1.279 . S
C1200 C1199 1.358 . S
C1200 H1203 0.930 . S
C1201 C1198 1.348 . S
C1201 C1199 1.356 . S
H1202 C1196 0.930 . S
H1203 C1200 0.930 . S
O1204 Li1144 1.956 . S
O1204 Li1145 1.970 . S
O1204 Li1146 1.961 . S
O1204 C1148 1.325 . S
O1205 Li1144 1.970 . S
O1205 Li1145 1.956 . S
O1205 Li1147 1.961 . S
O1205 C1154 1.325 . S
O1206 Li1144 1.961 . S
O1206 Li1146 1.956 . S
O1206 Li1147 1.970 . S
O1206 C1176 1.325 . S
O1207 Li1145 1.961 . S
O1207 Li1146 1.970 . S
O1207 Li1147 1.956 . S
O1207 C1182 1.325 . S
H1208 C1150 0.929 . S
H1209 C1151 0.930 . S
H1210 C1152 0.930 . S
H1211 C1153 0.930 . S
H1212 C1155 0.944 . S
H1213 C1157 0.929 . S
H1214 C1158 0.930 . S
H1215 C1159 0.930 . S
H1216 C1162 0.930 . S
H1217 C1165 0.929 . S
H1218 C1170 0.929 . S
H1219 C1171 0.930 . S
H1220 C1178 0.929 . S
H1221 C1179 0.930 . S
H1222 C1180 0.930 . S
H1223 C1181 0.930 . S
H1224 C1183 0.929 . S
H1225 C1184 0.930 . S
H1226 C1185 0.930 . S
H1227 C1186 0.930 1_655 S
H1228 C1190 0.929 . S
H1229 C1192 0.930 . S
H1230 C1198 0.929 . S
H1231 C1199 0.930 . S
Li1232 N1249 1.990 . S
Li1232 O1292 1.956 . S
Li1232 O1293 1.970 . S
Li1232 O1294 1.961 . S
Li1233 N1257 1.990 . S
Li1233 O1292 1.970 . S
Li1233 O1293 1.956 . S
Li1233 O1295 1.961 . S
Li1234 N1279 1.990 . S
Li1234 O1292 1.961 . S
Li1234 O1294 1.956 . S
Li1234 O1295 1.970 . S
Li1235 N1285 1.990 . S
Li1235 O1293 1.961 . S
Li1235 O1294 1.970 . S
Li1235 O1295 1.956 . S
C1236 C1238 1.348 . S
C1236 C1239 1.356 . S
C1236 O1292 1.325 . S
N1237 C1240 1.314 . S
N1237 C1241 1.279 . S
C1238 C1236 1.348 . S
C1238 C1240 1.353 . S
C1238 H1296 0.929 . S
C1239 C1236 1.356 . S
C1239 C1241 1.358 . S
C1239 H1297 0.930 . S
C1240 N1237 1.314 . S
C1240 C1238 1.353 . S
C1240 H1298 0.930 . S
C1241 N1237 1.279 . S
C1241 C1239 1.358 . S
C1241 H1299 0.930 . S
C1242 C1245 1.348 . S
C1242 C1246 1.356 . S
C1242 O1293 1.325 . S
C1243 N1244 1.279 . S
C1243 C1246 1.358 . S
C1243 H1300 0.930 . S
N1244 C1243 1.279 . S
N1244 C1247 1.314 . S
C1245 C1242 1.348 . S
C1245 C1247 1.353 . S
C1245 H1301 0.929 . S
C1246 C1242 1.356 . S
C1246 C1243 1.358 . S
C1246 H1302 0.930 . S
C1247 N1244 1.314 . S
C1247 C1245 1.353 . S
C1247 H1303 0.930 . S
C1248 N1249 1.314 . S
C1248 C1253 1.353 . S
C1248 H1254 0.930 . S
N1249 Li1232 1.990 . S
N1249 C1248 1.314 . S
N1249 C1251 1.279 . S
C1250 C1251 1.358 . S
C1250 C1252 1.356 . S
C1250 H1304 0.930 . S
C1251 N1249 1.279 . S
C1251 C1250 1.358 . S
C1251 H1255 0.930 . S
C1252 C1250 1.356 . S
C1252 C1253 1.348 . S
C1253 C1248 1.353 . S
C1253 C1252 1.348 . S
C1253 H1305 0.929 . S
H1254 C1248 0.930 . S
H1255 C1251 0.930 . S
C1256 N1257 1.314 . S
C1256 C1258 1.353 . S
C1256 H1262 0.930 . S
N1257 Li1233 1.990 . S
N1257 C1256 1.314 . S
N1257 C1260 1.279 . S
C1258 C1256 1.353 . S
C1258 C1261 1.348 . S
C1258 H1306 0.929 . S
C1259 C1260 1.358 . S
C1259 C1261 1.356 . S
C1259 H1307 0.930 . S
C1260 N1257 1.279 . S
C1260 C1259 1.358 . S
C1260 H1263 0.930 . S
C1261 C1258 1.348 . S
C1261 C1259 1.356 . S
H1262 C1256 0.930 . S
H1263 C1260 0.930 . S
C1264 C1266 1.348 . S
C1264 C1267 1.356 . S
C1264 O1294 1.325 . S
N1265 C1268 1.314 . S
N1265 C1269 1.279 . S
C1266 C1264 1.348 . S
C1266 C1268 1.353 . S
C1266 H1308 0.929 . S
C1267 C1264 1.356 . S
C1267 C1269 1.358 . S
C1267 H1309 0.930 . S
C1268 N1265 1.314 . S
C1268 C1266 1.353 . S
C1268 H1310 0.930 . S
C1269 N1265 1.279 . S
C1269 C1267 1.358 . S
C1269 H1311 0.930 . S
C1270 C1271 1.348 . S
C1270 C1272 1.356 . S
C1270 O1295 1.325 . S
C1271 C1270 1.348 . S
C1271 C1273 1.353 . S
C1271 H1312 0.929 . S
C1272 C1270 1.356 . S
C1272 C1274 1.358 . S
C1272 H1313 0.930 . S
C1273 C1271 1.353 . S
C1273 N1275 1.314 . S
C1273 H1314 0.930 . S
C1274 C1272 1.358 . S
C1274 N1275 1.279 . S
C1274 H1315 0.930 . S
N1275 C1273 1.314 . S
N1275 C1274 1.279 . S
C1276 C1278 1.353 . S
C1276 N1279 1.314 . S
C1276 H1282 0.930 . S
C1277 N1279 1.279 . S
C1277 C1280 1.358 . S
C1277 H1283 0.930 . S
C1278 C1276 1.353 . S
C1278 C1281 1.348 . S
C1278 H1316 0.929 . S
N1279 Li1234 1.990 . S
N1279 C1276 1.314 . S
N1279 C1277 1.279 . S
C1280 C1277 1.358 . S
C1280 C1281 1.356 . S
C1280 H1317 0.930 . S
C1281 C1278 1.348 . S
C1281 C1280 1.356 . S
H1282 C1276 0.930 . S
H1283 C1277 0.930 . S
C1284 N1285 1.314 . S
C1284 C1286 1.353 . S
C1284 H1290 0.930 . S
N1285 Li1235 1.990 . S
N1285 C1284 1.314 . S
N1285 C1288 1.279 . S
C1286 C1284 1.353 . S
C1286 C1289 1.348 . S
C1286 H1318 0.929 . S
C1287 C1288 1.358 . S
C1287 C1289 1.356 . S
C1287 H1319 0.930 . S
C1288 N1285 1.279 . S
C1288 C1287 1.358 . S
C1288 H1291 0.930 . S
C1289 C1286 1.348 . S
C1289 C1287 1.356 . S
H1290 C1284 0.930 . S
H1291 C1288 0.930 . S
O1292 Li1232 1.956 . S
O1292 Li1233 1.970 . S
O1292 Li1234 1.961 . S
O1292 C1236 1.325 . S
O1293 Li1232 1.970 . S
O1293 Li1233 1.956 . S
O1293 Li1235 1.961 . S
O1293 C1242 1.325 . S
O1294 Li1232 1.961 . S
O1294 Li1234 1.956 . S
O1294 Li1235 1.970 . S
O1294 C1264 1.325 . S
O1295 Li1233 1.961 . S
O1295 Li1234 1.970 . S
O1295 Li1235 1.956 . S
O1295 C1270 1.325 . S
H1296 C1238 0.929 . S
H1297 C1239 0.930 . S
H1298 C1240 0.930 . S
H1299 C1241 0.930 . S
H1300 C1243 0.930 . S
H1301 C1245 0.929 . S
H1302 C1246 0.930 . S
H1303 C1247 0.930 . S
H1304 C1250 0.930 . S
H1305 C1253 0.929 . S
H1306 C1258 0.929 . S
H1307 C1259 0.930 . S
H1308 C1266 0.929 . S
H1309 C1267 0.930 . S
H1310 C1268 0.930 . S
H1311 C1269 0.930 . S
H1312 C1271 0.929 . S
H1313 C1272 0.930 . S
H1314 C1273 0.930 . S
H1315 C1274 0.930 . S
H1316 C1278 0.929 . S
H1317 C1280 0.930 . S
H1318 C1286 0.929 . S
H1319 C1287 0.930 . S
Li1320 N1337 1.990 . S
Li1320 O1380 1.956 . S
Li1320 O1381 1.970 . S
Li1320 O1382 1.961 . S
Li1321 N1345 1.990 . S
Li1321 O1380 1.970 . S
Li1321 O1381 1.956 . S
Li1321 O1383 1.961 . S
Li1322 N1367 1.990 . S
Li1322 O1380 1.961 . S
Li1322 O1382 1.956 . S
Li1322 O1383 1.970 . S
Li1323 N1373 1.990 . S
Li1323 O1381 1.961 . S
Li1323 O1382 1.970 . S
Li1323 O1383 1.956 . S
C1324 C1326 1.348 . S
C1324 C1327 1.356 . S
C1324 O1380 1.325 . S
N1325 C1328 1.314 . S
N1325 C1329 1.279 . S
C1326 C1324 1.348 . S
C1326 C1328 1.353 . S
C1326 H1384 0.929 . S
C1327 C1324 1.356 . S
C1327 C1329 1.358 . S
C1327 H1385 0.930 . S
C1328 N1325 1.314 . S
C1328 C1326 1.353 . S
C1328 H1386 0.930 . S
C1329 N1325 1.279 . S
C1329 C1327 1.358 . S
C1329 H1387 0.930 . S
C1330 C1333 1.348 . S
C1330 C1334 1.356 . S
C1330 O1381 1.325 . S
C1331 N1332 1.279 . S
C1331 C1334 1.358 . S
C1331 H1388 0.930 . S
N1332 C1331 1.279 . S
N1332 C1335 1.314 . S
C1333 C1330 1.348 . S
C1333 C1335 1.353 . S
C1333 H1389 0.929 . S
C1334 C1330 1.356 . S
C1334 C1331 1.358 . S
C1334 H1390 0.930 . S
C1335 N1332 1.314 . S
C1335 C1333 1.353 . S
C1335 H1391 0.930 . S
C1336 N1337 1.314 . S
C1336 C1341 1.353 . S
C1336 H1342 0.930 . S
N1337 Li1320 1.990 . S
N1337 C1336 1.314 . S
N1337 C1339 1.279 . S
C1338 C1339 1.358 . S
C1338 C1340 1.356 . S
C1338 H1392 0.930 . S
C1339 N1337 1.279 . S
C1339 C1338 1.358 . S
C1339 H1343 0.930 . S
C1340 C1338 1.356 . S
C1340 C1341 1.348 . S
C1341 C1336 1.353 . S
C1341 C1340 1.348 . S
C1341 H1393 0.929 . S
H1342 C1336 0.930 . S
H1343 C1339 0.930 . S
C1344 N1345 1.314 . S
C1344 C1346 1.353 . S
C1344 H1350 0.930 . S
N1345 Li1321 1.990 . S
N1345 C1344 1.314 . S
N1345 C1348 1.279 . S
C1346 C1344 1.353 . S
C1346 C1349 1.348 . S
C1346 H1394 0.929 . S
C1347 C1348 1.358 . S
C1347 C1349 1.356 . S
C1347 H1395 0.930 . S
C1348 N1345 1.279 . S
C1348 C1347 1.358 . S
C1348 H1351 0.930 . S
C1349 C1346 1.348 . S
C1349 C1347 1.356 . S
H1350 C1344 0.930 . S
H1351 C1348 0.930 . S
C1352 C1354 1.348 . S
C1352 C1355 1.356 . S
C1352 O1382 1.325 . S
N1353 C1356 1.314 . S
N1353 C1357 1.279 . S
C1354 C1352 1.348 . S
C1354 C1356 1.353 . S
C1354 H1396 0.929 . S
C1355 C1352 1.356 . S
C1355 C1357 1.358 . S
C1355 H1397 0.930 . S
C1356 N1353 1.314 . S
C1356 C1354 1.353 . S
C1356 H1398 0.930 . S
C1357 N1353 1.279 . S
C1357 C1355 1.358 . S
C1357 H1399 0.930 . S
C1358 C1359 1.348 . S
C1358 C1360 1.356 . S
C1358 O1383 1.325 . S
C1359 C1358 1.348 . S
C1359 C1361 1.353 . S
C1359 H1400 0.929 . S
C1360 C1358 1.356 . S
C1360 C1362 1.358 . S
C1360 H1401 0.930 . S
C1361 C1359 1.353 . S
C1361 N1363 1.314 . S
C1361 H1402 0.930 . S
C1362 C1360 1.358 . S
C1362 N1363 1.279 . S
C1362 H1403 0.930 . S
N1363 C1361 1.314 . S
N1363 C1362 1.279 . S
C1364 C1366 1.353 . S
C1364 N1367 1.314 . S
C1364 H1370 0.930 . S
C1365 N1367 1.279 . S
C1365 C1368 1.358 . S
C1365 H1371 0.930 . S
C1366 C1364 1.353 . S
C1366 C1369 1.348 . S
C1366 H1404 0.929 . S
N1367 Li1322 1.990 . S
N1367 C1364 1.314 . S
N1367 C1365 1.279 . S
C1368 C1365 1.358 . S
C1368 C1369 1.356 . S
C1368 H1405 0.930 . S
C1369 C1366 1.348 . S
C1369 C1368 1.356 . S
H1370 C1364 0.930 . S
H1371 C1365 0.930 . S
C1372 N1373 1.314 . S
C1372 C1374 1.353 . S
C1372 H1378 0.930 . S
N1373 Li1323 1.990 . S
N1373 C1372 1.314 . S
N1373 C1376 1.279 . S
C1374 C1372 1.353 . S
C1374 C1377 1.348 . S
C1374 H1406 0.929 . S
C1375 C1376 1.358 . S
C1375 C1377 1.356 . S
C1375 H1407 0.930 . S
C1376 N1373 1.279 . S
C1376 C1375 1.358 . S
C1376 H1379 0.930 . S
C1377 C1374 1.348 . S
C1377 C1375 1.356 . S
H1378 C1372 0.930 . S
H1379 C1376 0.930 . S
O1380 Li1320 1.956 . S
O1380 Li1321 1.970 . S
O1380 Li1322 1.961 . S
O1380 C1324 1.325 . S
O1381 Li1320 1.970 . S
O1381 Li1321 1.956 . S
O1381 Li1323 1.961 . S
O1381 C1330 1.325 . S
O1382 Li1320 1.961 . S
O1382 Li1322 1.956 . S
O1382 Li1323 1.970 . S
O1382 C1352 1.325 . S
O1383 Li1321 1.961 . S
O1383 Li1322 1.970 . S
O1383 Li1323 1.956 . S
O1383 C1358 1.325 . S
H1384 C1326 0.929 . S
H1385 C1327 0.930 . S
H1386 C1328 0.930 . S
H1387 C1329 0.930 . S
H1388 C1331 0.930 . S
H1389 C1333 0.929 . S
H1390 C1334 0.930 . S
H1391 C1335 0.930 . S
H1392 C1338 0.930 . S
H1393 C1341 0.929 . S
H1394 C1346 0.929 . S
H1395 C1347 0.930 . S
H1396 C1354 0.929 . S
H1397 C1355 0.930 . S
H1398 C1356 0.930 . S
H1399 C1357 0.930 . S
H1400 C1359 0.929 . S
H1401 C1360 0.930 . S
H1402 C1361 0.930 . S
H1403 C1362 0.930 . S
H1404 C1366 0.929 . S
H1405 C1368 0.930 . S
H1406 C1374 0.929 . S
H1407 C1375 0.930 . S
C1408 C1409 1.369 . S
C1408 C1410 1.419 . S
C1408 H1412 0.930 . S
C1409 C1408 1.369 . S
C1409 C1418 1.429 . S
C1410 C1408 1.419 . S
C1410 C1411 1.363 . S
C1410 H1413 0.929 . S
C1411 C1410 1.363 . S
C1411 C1417 1.428 . S
H1412 C1408 0.930 . S
H1413 C1410 0.929 . S
S1414 N1415 1.613 . S
S1414 N1416 1.610 . S
N1415 S1414 1.613 . S
N1415 C1418 1.350 . S
N1416 S1414 1.610 . S
N1416 C1417 1.351 . S
C1417 C1411 1.428 . S
C1417 N1416 1.351 . S
C1417 C1418 1.434 . S
C1418 C1409 1.429 . S
C1418 N1415 1.350 . S
C1418 C1417 1.434 . S
C1419 C1420 1.369 . S
C1419 C1421 1.419 . S
C1419 H1423 0.930 . S
C1420 C1419 1.369 . S
C1420 C1429 1.429 . S
C1421 C1419 1.419 . S
C1421 C1422 1.363 . S
C1421 H1424 0.929 . S
C1422 C1421 1.363 . S
C1422 C1428 1.428 . S
H1423 C1419 0.930 . S
H1424 C1421 0.929 . S
S1425 N1426 1.613 . S
S1425 N1427 1.610 . S
N1426 S1425 1.613 . S
N1426 C1429 1.350 . S
N1427 S1425 1.610 . S
N1427 C1428 1.351 . S
C1428 C1422 1.428 . S
C1428 N1427 1.351 . S
C1428 C1429 1.434 . S
C1429 C1420 1.429 . S
C1429 N1426 1.350 . S
C1429 C1428 1.434 . S
C1430 C1431 1.369 . S
C1430 C1432 1.419 . S
C1430 H1434 0.930 . S
C1431 C1430 1.369 . S
C1431 C1440 1.429 . S
C1432 C1430 1.419 . S
C1432 C1433 1.363 . S
C1432 H1435 0.929 . S
C1433 C1432 1.363 . S
C1433 C1439 1.428 . S
H1434 C1430 0.930 . S
H1435 C1432 0.929 . S
S1436 N1437 1.613 . S
S1436 N1438 1.610 . S
N1437 S1436 1.613 . S
N1437 C1440 1.350 . S
N1438 S1436 1.610 . S
N1438 C1439 1.351 . S
C1439 C1433 1.428 . S
C1439 N1438 1.351 . S
C1439 C1440 1.434 . S
C1440 C1431 1.429 . S
C1440 N1437 1.350 . S
C1440 C1439 1.434 . S
C1441 C1442 1.369 . S
C1441 C1443 1.419 . S
C1441 H1445 0.930 . S
C1442 C1441 1.369 . S
C1442 C1451 1.429 . S
C1443 C1441 1.419 . S
C1443 C1444 1.363 . S
C1443 H1446 0.929 . S
C1444 C1443 1.363 . S
C1444 C1450 1.428 . S
H1445 C1441 0.930 . S
H1446 C1443 0.929 . S
S1447 N1448 1.613 . S
S1447 N1449 1.610 . S
N1448 S1447 1.613 . S
N1448 C1451 1.350 . S
N1449 S1447 1.610 . S
N1449 C1450 1.351 . S
C1450 C1444 1.428 . S
C1450 N1449 1.351 . S
C1450 C1451 1.434 . S
C1451 C1442 1.429 . S
C1451 N1448 1.350 . S
C1451 C1450 1.434 . S
C1452 C1453 1.369 . S
C1452 C1454 1.419 . S
C1452 H1456 0.930 . S
C1453 C1452 1.369 . S
C1453 C1462 1.429 . S
C1454 C1452 1.419 . S
C1454 C1455 1.363 . S
C1454 H1457 0.929 . S
C1455 C1454 1.363 . S
C1455 C1461 1.428 . S
H1456 C1452 0.930 . S
H1457 C1454 0.929 . S
S1458 N1459 1.613 . S
S1458 N1460 1.610 . S
N1459 S1458 1.613 . S
N1459 C1462 1.350 . S
N1460 S1458 1.610 . S
N1460 C1461 1.351 . S
C1461 C1455 1.428 . S
C1461 N1460 1.351 . S
C1461 C1462 1.434 . S
C1462 C1453 1.429 . S
C1462 N1459 1.350 . S
C1462 C1461 1.434 . S
C1463 C1464 1.369 . S
C1463 C1465 1.419 . S
C1463 H1467 0.930 . S
C1464 C1463 1.369 . S
C1464 C1473 1.429 . S
C1465 C1463 1.419 . S
C1465 C1466 1.363 . S
C1465 H1468 0.929 . S
C1466 C1465 1.363 . S
C1466 C1472 1.428 . S
H1467 C1463 0.930 . S
H1468 C1465 0.929 . S
S1469 N1470 1.613 . S
S1469 N1471 1.610 . S
N1470 S1469 1.613 . S
N1470 C1473 1.350 . S
N1471 S1469 1.610 . S
N1471 C1472 1.351 . S
C1472 C1466 1.428 . S
C1472 N1471 1.351 . S
C1472 C1473 1.434 . S
C1473 C1464 1.429 . S
C1473 N1470 1.350 . S
C1473 C1472 1.434 . S
C1474 C1475 1.369 . S
C1474 C1476 1.419 . S
C1474 H1478 0.930 . S
C1475 C1474 1.369 . S
C1475 C1484 1.429 . S
C1476 C1474 1.419 . S
C1476 C1477 1.363 . S
C1476 H1479 0.929 . S
C1477 C1476 1.363 . S
C1477 C1483 1.428 . S
H1478 C1474 0.930 . S
H1479 C1476 0.929 . S
S1480 N1481 1.613 . S
S1480 N1482 1.610 . S
N1481 S1480 1.613 . S
N1481 C1484 1.350 . S
N1482 S1480 1.610 . S
N1482 C1483 1.351 . S
C1483 C1477 1.428 . S
C1483 N1482 1.351 . S
C1483 C1484 1.434 . S
C1484 C1475 1.429 . S
C1484 N1481 1.350 . S
C1484 C1483 1.434 . S
C1485 C1486 1.369 . S
C1485 C1487 1.419 . S
C1485 H1489 0.930 . S
C1486 C1485 1.369 . S
C1486 C1495 1.429 . S
C1487 C1485 1.419 . S
C1487 C1488 1.363 . S
C1487 H1490 0.929 . S
C1488 C1487 1.363 . S
C1488 C1494 1.428 . S
H1489 C1485 0.930 . S
H1490 C1487 0.929 . S
S1491 N1492 1.613 . S
S1491 N1493 1.610 . S
N1492 S1491 1.613 . S
N1492 C1495 1.350 . S
N1493 S1491 1.610 . S
N1493 C1494 1.351 . S
C1494 C1488 1.428 . S
C1494 N1493 1.351 . S
C1494 C1495 1.434 . S
C1495 C1486 1.429 . S
C1495 N1492 1.350 . S
C1495 C1494 1.434 . S
C1496 C1497 1.369 . S
C1496 C1498 1.419 . S
C1496 H1500 0.930 . S
C1497 C1496 1.369 . S
C1497 C1506 1.429 . S
C1498 C1496 1.419 . S
C1498 C1499 1.363 . S
C1498 H1501 0.929 . S
C1499 C1498 1.363 . S
C1499 C1505 1.428 . S
H1500 C1496 0.930 . S
H1501 C1498 0.929 . S
S1502 N1503 1.613 . S
S1502 N1504 1.610 . S
N1503 S1502 1.613 . S
N1503 C1506 1.350 . S
N1504 S1502 1.610 . S
N1504 C1505 1.351 . S
C1505 C1499 1.428 . S
C1505 N1504 1.351 . S
C1505 C1506 1.434 . S
C1506 C1497 1.429 . S
C1506 N1503 1.350 . S
C1506 C1505 1.434 . S
C1507 C1508 1.369 . S
C1507 C1509 1.419 . S
C1507 H1511 0.930 . S
C1508 C1507 1.369 . S
C1508 C1517 1.429 . S
C1509 C1507 1.419 . S
C1509 C1510 1.363 . S
C1509 H1512 0.929 . S
C1510 C1509 1.363 . S
C1510 C1516 1.428 . S
H1511 C1507 0.930 . S
H1512 C1509 0.929 . S
S1513 N1514 1.613 . S
S1513 N1515 1.610 . S
N1514 S1513 1.613 . S
N1514 C1517 1.350 . S
N1515 S1513 1.610 . S
N1515 C1516 1.351 . S
C1516 C1510 1.428 . S
C1516 N1515 1.351 . S
C1516 C1517 1.434 . S
C1517 C1508 1.429 . S
C1517 N1514 1.350 . S
C1517 C1516 1.434 . S
C1518 C1519 1.369 . S
C1518 C1520 1.419 . S
C1518 H1522 0.930 . S
C1519 C1518 1.369 . S
C1519 C1528 1.429 . S
C1520 C1518 1.419 . S
C1520 C1521 1.363 . S
C1520 H1523 0.929 . S
C1521 C1520 1.363 . S
C1521 C1527 1.428 . S
H1522 C1518 0.930 . S
H1523 C1520 0.929 . S
S1524 N1525 1.613 . S
S1524 N1526 1.610 . S
N1525 S1524 1.613 . S
N1525 C1528 1.350 . S
N1526 S1524 1.610 . S
N1526 C1527 1.351 . S
C1527 C1521 1.428 . S
C1527 N1526 1.351 . S
C1527 C1528 1.434 . S
C1528 C1519 1.429 . S
C1528 N1525 1.350 . S
C1528 C1527 1.434 . S
C1529 C1530 1.369 . S
C1529 C1531 1.419 1_554 S
C1529 H1533 0.930 . S
C1530 C1529 1.369 . S
C1530 C1539 1.429 . S
C1531 C1529 1.419 1_556 S
C1531 C1532 1.363 . S
C1531 H1534 0.929 . S
C1532 C1531 1.363 . S
C1532 C1538 1.428 . S
H1533 C1529 0.930 . S
H1534 C1531 0.929 . S
S1535 N1536 1.613 . S
S1535 N1537 1.610 1_554 S
N1536 S1535 1.613 . S
N1536 C1539 1.350 . S
N1537 S1535 1.610 1_556 S
N1537 C1538 1.351 . S
C1538 C1532 1.428 . S
C1538 N1537 1.351 . S
C1538 C1539 1.434 1_556 S
C1539 C1530 1.429 . S
C1539 N1536 1.350 . S
C1539 C1538 1.434 1_554 S
C1540 C1541 1.369 . S
C1540 C1542 1.419 1_554 S
C1540 H1544 0.930 . S
C1541 C1540 1.369 . S
C1541 C1550 1.429 . S
C1542 C1540 1.419 1_556 S
C1542 C1543 1.363 . S
C1542 H1545 0.929 . S
C1543 C1542 1.363 . S
C1543 C1549 1.428 . S
H1544 C1540 0.930 . S
H1545 C1542 0.929 . S
S1546 N1547 1.614 1_556 S
S1546 N1548 1.609 . S
N1547 S1546 1.614 1_554 S
N1547 C1550 1.350 . S
N1548 S1546 1.609 . S
N1548 C1549 1.351 . S
C1549 C1543 1.428 . S
C1549 N1548 1.351 . S
C1549 C1550 1.434 1_556 S
C1550 C1541 1.429 . S
C1550 N1547 1.350 . S
C1550 C1549 1.434 1_554 S
C1551 C1552 1.369 . S
C1551 C1553 1.419 . S
C1551 H1555 0.930 . S
C1552 C1551 1.369 . S
C1552 C1561 1.429 . S
C1553 C1551 1.419 . S
C1553 C1554 1.363 . S
C1553 H1556 0.929 . S
C1554 C1553 1.363 . S
C1554 C1560 1.428 . S
H1555 C1551 0.930 . S
H1556 C1553 0.929 . S
S1557 N1558 1.613 . S
S1557 N1559 1.610 . S
N1558 S1557 1.613 . S
N1558 C1561 1.350 . S
N1559 S1557 1.610 . S
N1559 C1560 1.351 . S
C1560 C1554 1.428 . S
C1560 N1559 1.351 . S
C1560 C1561 1.434 . S
C1561 C1552 1.429 . S
C1561 N1558 1.350 . S
C1561 C1560 1.434 . S
C1562 C1563 1.369 . S
C1562 C1564 1.419 . S
C1562 H1566 0.930 . S
C1563 C1562 1.369 . S
C1563 C1572 1.429 . S
C1564 C1562 1.419 . S
C1564 C1565 1.363 . S
C1564 H1567 0.929 . S
C1565 C1564 1.363 . S
C1565 C1571 1.428 . S
H1566 C1562 0.930 . S
H1567 C1564 0.929 . S
S1568 N1569 1.613 . S
S1568 N1570 1.610 . S
N1569 S1568 1.613 . S
N1569 C1572 1.350 . S
N1570 S1568 1.610 . S
N1570 C1571 1.351 . S
C1571 C1565 1.428 . S
C1571 N1570 1.351 . S
C1571 C1572 1.434 . S
C1572 C1563 1.429 . S
C1572 N1569 1.350 . S
C1572 C1571 1.434 . S
C1573 C1574 1.369 . S
C1573 C1575 1.419 . S
C1573 H1577 0.930 . S
C1574 C1573 1.369 . S
C1574 C1583 1.429 . S
C1575 C1573 1.419 . S
C1575 C1576 1.363 . S
C1575 H1578 0.929 . S
C1576 C1575 1.363 . S
C1576 C1582 1.428 . S
H1577 C1573 0.930 . S
H1578 C1575 0.929 . S
S1579 N1580 1.613 . S
S1579 N1581 1.610 . S
N1580 S1579 1.613 . S
N1580 C1583 1.350 . S
N1581 S1579 1.610 . S
N1581 C1582 1.351 . S
C1582 C1576 1.428 . S
C1582 N1581 1.351 . S
C1582 C1583 1.434 . S
C1583 C1574 1.429 . S
C1583 N1580 1.350 . S
C1583 C1582 1.434 . S
C1584 C1585 1.369 . S
C1584 C1586 1.419 1_455 S
C1584 H1588 0.930 . S
C1585 C1584 1.369 . S
C1585 C1594 1.429 1_545 S
C1586 C1584 1.419 1_655 S
C1586 C1587 1.363 1_545 S
C1586 H1589 0.929 . S
C1587 C1586 1.363 1_565 S
C1587 C1593 1.428 . S
H1588 C1584 0.930 . S
H1589 C1586 0.929 . S
S1590 N1591 1.613 . S
S1590 N1592 1.610 1_455 S
N1591 S1590 1.613 . S
N1591 C1594 1.350 . S
N1592 S1590 1.610 1_655 S
N1592 C1593 1.351 . S
C1593 C1587 1.428 . S
C1593 N1592 1.351 . S
C1593 C1594 1.434 1_655 S
C1594 C1585 1.429 1_565 S
C1594 N1591 1.350 . S
C1594 C1593 1.434 1_455 S
C1595 C1596 1.369 1_655 S
C1595 C1597 1.419 . S
C1595 H1599 0.930 . S
C1596 C1595 1.369 1_455 S
C1596 C1605 1.429 . S
C1597 C1595 1.419 . S
C1597 C1598 1.363 . S
C1597 H1600 0.929 . S
C1598 C1597 1.363 . S
C1598 C1604 1.428 1_655 S
H1599 C1595 0.930 . S
H1600 C1597 0.929 . S
S1601 N1602 1.613 . S
S1601 N1603 1.610 . S
N1602 S1601 1.613 . S
N1602 C1605 1.350 . S
N1603 S1601 1.610 . S
N1603 C1604 1.351 . S
C1604 C1598 1.428 1_455 S
C1604 N1603 1.351 . S
C1604 C1605 1.434 . S
C1605 C1596 1.429 . S
C1605 N1602 1.350 . S
C1605 C1604 1.434 . S
C1606 C1607 1.369 . S
C1606 C1608 1.419 . S
C1606 H1610 0.930 . S
C1607 C1606 1.369 . S
C1607 C1616 1.429 . S
C1608 C1606 1.419 . S
C1608 C1609 1.363 . S
C1608 H1611 0.929 . S
C1609 C1608 1.363 . S
C1609 C1615 1.428 . S
H1610 C1606 0.930 . S
H1611 C1608 0.929 . S
S1612 N1613 1.613 . S
S1612 N1614 1.610 . S
N1613 S1612 1.613 . S
N1613 C1616 1.350 . S
N1614 S1612 1.610 . S
N1614 C1615 1.351 . S
C1615 C1609 1.428 . S
C1615 N1614 1.351 . S
C1615 C1616 1.434 . S
C1616 C1607 1.429 . S
C1616 N1613 1.350 . S
C1616 C1615 1.434 . S
C1617 C1618 1.369 . S
C1617 C1619 1.419 1_545 S
C1617 H1621 0.930 . S
C1618 C1617 1.369 . S
C1618 C1627 1.429 . S
C1619 C1617 1.419 1_565 S
C1619 C1620 1.363 . S
C1619 H1622 0.929 . S
C1620 C1619 1.363 . S
C1620 C1626 1.428 . S
H1621 C1617 0.930 . S
H1622 C1619 0.929 . S
S1623 N1624 1.613 1_565 S
S1623 N1625 1.610 . S
N1624 S1623 1.613 1_545 S
N1624 C1627 1.350 . S
N1625 S1623 1.610 . S
N1625 C1626 1.351 . S
C1626 C1620 1.428 . S
C1626 N1625 1.351 . S
C1626 C1627 1.434 1_565 S
C1627 C1618 1.429 . S
C1627 N1624 1.350 . S
C1627 C1626 1.434 1_545 S
C1628 C1629 1.369 . S
C1628 C1630 1.419 1_455 S
C1628 H1632 0.930 . S
C1629 C1628 1.369 . S
C1629 C1638 1.429 . S
C1630 C1628 1.419 1_655 S
C1630 C1631 1.363 . S
C1630 H1633 0.929 . S
C1631 C1630 1.363 . S
C1631 C1637 1.428 . S
H1632 C1628 0.930 . S
H1633 C1630 0.929 . S
S1634 N1635 1.604 1_655 S
S1634 N1636 1.620 . S
N1635 S1634 1.604 1_455 S
N1635 C1638 1.350 . S
N1636 S1634 1.620 . S
N1636 C1637 1.351 . S
C1637 C1631 1.428 . S
C1637 N1636 1.351 . S
C1637 C1638 1.434 1_655 S
C1638 C1629 1.429 . S
C1638 N1635 1.350 . S
C1638 C1637 1.434 1_455 S
C1639 C1640 1.369 . S
C1639 C1641 1.419 . S
C1639 H1643 0.930 . S
C1640 C1639 1.369 . S
C1640 C1649 1.429 . S
C1641 C1639 1.419 . S
C1641 C1642 1.363 . S
C1641 H1644 0.929 . S
C1642 C1641 1.363 . S
C1642 C1648 1.428 . S
H1643 C1639 0.930 . S
H1644 C1641 0.929 . S
S1645 N1646 1.613 . S
S1645 N1647 1.610 . S
N1646 S1645 1.613 . S
N1646 C1649 1.350 . S
N1647 S1645 1.610 . S
N1647 C1648 1.351 . S
C1648 C1642 1.428 . S
C1648 N1647 1.351 . S
C1648 C1649 1.434 . S
C1649 C1640 1.429 . S
C1649 N1646 1.350 . S
C1649 C1648 1.434 . S
C1650 C1651 1.369 1_545 S
C1650 C1652 1.419 . S
C1650 H1654 0.930 . S
C1651 C1650 1.369 1_565 S
C1651 C1660 1.429 . S
C1652 C1650 1.419 . S
C1652 C1653 1.363 . S
C1652 H1655 0.929 . S
C1653 C1652 1.363 . S
C1653 C1659 1.428 1_545 S
H1654 C1650 0.930 . S
H1655 C1652 0.929 . S
S1656 N1657 1.613 . S
S1656 N1658 1.610 . S
N1657 S1656 1.613 . S
N1657 C1660 1.350 . S
N1658 S1656 1.610 . S
N1658 C1659 1.351 . S
C1659 C1653 1.428 1_565 S
C1659 N1658 1.351 . S
C1659 C1660 1.434 . S
C1660 C1651 1.429 . S
C1660 N1657 1.350 . S
C1660 C1659 1.434 . S
C1661 C1662 1.369 . S
C1661 C1663 1.419 1_545 S
C1661 H1665 0.930 . S
C1662 C1661 1.369 . S
C1662 C1671 1.429 1_455 S
C1663 C1661 1.419 1_565 S
C1663 C1664 1.363 1_455 S
C1663 H1666 0.929 . S
C1664 C1663 1.363 1_655 S
C1664 C1670 1.428 . S
H1665 C1661 0.930 . S
H1666 C1663 0.929 . S
S1667 N1668 1.613 . S
S1667 N1669 1.610 1_545 S
N1668 S1667 1.613 . S
N1668 C1671 1.350 . S
N1669 S1667 1.610 1_565 S
N1669 C1670 1.351 . S
C1670 C1664 1.428 . S
C1670 N1669 1.351 . S
C1670 C1671 1.434 1_565 S
C1671 C1662 1.429 1_655 S
C1671 N1668 1.350 . S
C1671 C1670 1.434 1_545 S
C1672 C1673 1.369 . S
C1672 C1674 1.419 . S
C1672 H1676 0.930 . S
C1673 C1672 1.369 . S
C1673 C1682 1.429 1_565 S
C1674 C1672 1.419 . S
C1674 C1675 1.363 1_565 S
C1674 H1677 0.929 . S
C1675 C1674 1.363 1_545 S
C1675 C1681 1.428 . S
H1676 C1672 0.930 . S
H1677 C1674 0.929 . S
S1678 N1679 1.613 . S
S1678 N1680 1.610 . S
N1679 S1678 1.613 . S
N1679 C1682 1.350 . S
N1680 S1678 1.610 . S
N1680 C1681 1.351 . S
C1681 C1675 1.428 . S
C1681 N1680 1.351 . S
C1681 C1682 1.434 . S
C1682 C1673 1.429 1_545 S
C1682 N1679 1.350 . S
C1682 C1681 1.434 . S
C1683 C1684 1.369 . S
C1683 C1685 1.419 1_565 S
C1683 H1687 0.930 . S
C1684 C1683 1.369 . S
C1684 C1693 1.429 1_655 S
C1685 C1683 1.419 1_545 S
C1685 C1686 1.363 1_655 S
C1685 H1688 0.929 . S
C1686 C1685 1.363 1_455 S
C1686 C1692 1.428 . S
H1687 C1683 0.930 . S
H1688 C1685 0.929 . S
S1689 N1690 1.621 . S
S1689 N1691 1.603 1_565 S
N1690 S1689 1.621 . S
N1690 C1693 1.350 . S
N1691 S1689 1.603 1_545 S
N1691 C1692 1.351 . S
C1692 C1686 1.428 . S
C1692 N1691 1.351 . S
C1692 C1693 1.434 1_545 S
C1693 C1684 1.429 1_455 S
C1693 N1690 1.350 . S
C1693 C1692 1.434 1_565 S
C1694 C1695 1.369 . S
C1694 C1696 1.419 1_455 S
C1694 H1698 0.930 . S
C1695 C1694 1.369 . S
C1695 C1704 1.429 . S
C1696 C1694 1.419 1_655 S
C1696 C1697 1.363 . S
C1696 H1699 0.929 . S
C1697 C1696 1.363 . S
C1697 C1703 1.428 . S
H1698 C1694 0.930 . S
H1699 C1696 0.929 . S
S1700 N1701 1.613 1_655 S
S1700 N1702 1.610 . S
N1701 S1700 1.613 1_455 S
N1701 C1704 1.350 . S
N1702 S1700 1.610 . S
N1702 C1703 1.351 . S
C1703 C1697 1.428 . S
C1703 N1702 1.351 . S
C1703 C1704 1.434 1_655 S
C1704 C1695 1.429 . S
C1704 N1701 1.350 . S
C1704 C1703 1.434 1_455 S
C1705 C1706 1.369 . S
C1705 C1707 1.419 . S
C1705 H1709 0.930 . S
C1706 C1705 1.369 . S
C1706 C1715 1.429 . S
C1707 C1705 1.419 . S
C1707 C1708 1.363 . S
C1707 H1710 0.929 . S
C1708 C1707 1.363 . S
C1708 C1714 1.428 . S
H1709 C1705 0.930 . S
H1710 C1707 0.929 . S
S1711 N1712 1.613 . S
S1711 N1713 1.610 . S
N1712 S1711 1.613 . S
N1712 C1715 1.350 . S
N1713 S1711 1.610 . S
N1713 C1714 1.351 . S
C1714 C1708 1.428 . S
C1714 N1713 1.351 . S
C1714 C1715 1.434 . S
C1715 C1706 1.429 . S
C1715 N1712 1.350 . S
C1715 C1714 1.434 . S
C1716 C1717 1.369 . S
C1716 C1718 1.419 . S
C1716 H1720 0.930 . S
C1717 C1716 1.369 . S
C1717 C1726 1.429 . S
C1718 C1716 1.419 . S
C1718 C1719 1.363 . S
C1718 H1721 0.929 . S
C1719 C1718 1.363 . S
C1719 C1725 1.428 . S
H1720 C1716 0.930 . S
H1721 C1718 0.929 . S
S1722 N1723 1.613 . S
S1722 N1724 1.610 . S
N1723 S1722 1.613 . S
N1723 C1726 1.350 . S
N1724 S1722 1.610 . S
N1724 C1725 1.351 . S
C1725 C1719 1.428 . S
C1725 N1724 1.351 . S
C1725 C1726 1.434 . S
C1726 C1717 1.429 . S
C1726 N1723 1.350 . S
C1726 C1725 1.434 . S
C1727 C1728 1.369 . S
C1727 C1729 1.419 1_545 S
C1727 H1731 0.930 . S
C1728 C1727 1.369 . S
C1728 C1737 1.429 . S
C1729 C1727 1.419 1_565 S
C1729 C1730 1.363 . S
C1729 H1732 0.929 . S
C1730 C1729 1.363 . S
C1730 C1736 1.428 . S
H1731 C1727 0.930 . S
H1732 C1729 0.929 . S
S1733 N1734 1.613 1_565 S
S1733 N1735 1.610 . S
N1734 S1733 1.613 1_545 S
N1734 C1737 1.350 . S
N1735 S1733 1.610 . S
N1735 C1736 1.351 . S
C1736 C1730 1.428 . S
C1736 N1735 1.351 . S
C1736 C1737 1.434 1_565 S
C1737 C1728 1.429 . S
C1737 N1734 1.350 . S
C1737 C1736 1.434 1_545 S
C1738 C1739 1.369 . S
C1738 C1740 1.419 1_655 S
C1738 H1742 0.930 . S
C1739 C1738 1.369 . S
C1739 C1748 1.429 1_565 S
C1740 C1738 1.419 1_455 S
C1740 C1741 1.363 1_565 S
C1740 H1743 0.929 . S
C1741 C1740 1.363 1_545 S
C1741 C1747 1.428 . S
H1742 C1738 0.930 . S
H1743 C1740 0.929 . S
S1744 N1745 1.619 . S
S1744 N1746 1.604 1_655 S
N1745 S1744 1.619 . S
N1745 C1748 1.350 . S
N1746 S1744 1.604 1_455 S
N1746 C1747 1.351 . S
C1747 C1741 1.428 . S
C1747 N1746 1.351 . S
C1747 C1748 1.434 1_455 S
C1748 C1739 1.429 1_545 S
C1748 N1745 1.350 . S
C1748 C1747 1.434 1_655 S
C1749 C1750 1.369 1_455 S
C1749 C1751 1.419 . S
C1749 H1753 0.930 . S
C1750 C1749 1.369 1_655 S
C1750 C1759 1.429 . S
C1751 C1749 1.419 . S
C1751 C1752 1.363 . S
C1751 H1754 0.929 . S
C1752 C1751 1.363 . S
C1752 C1758 1.428 1_455 S
H1753 C1749 0.930 . S
H1754 C1751 0.929 . S
S1755 N1756 1.613 . S
S1755 N1757 1.610 . S
N1756 S1755 1.613 . S
N1756 C1759 1.350 . S
N1757 S1755 1.610 . S
N1757 C1758 1.351 . S
C1758 C1752 1.428 1_655 S
C1758 N1757 1.351 . S
C1758 C1759 1.434 . S
C1759 C1750 1.429 . S
C1759 N1756 1.350 . S
C1759 C1758 1.434 . S
C1409 C372 1.473 . S
C1411 C57 1.485 . S
C1420 C145 1.484 . S
C1422 C460 1.476 . S
C1431 C548 1.486 . S
C1433 C233 1.475 . S
C1442 C645 1.476 . S
C1444 C313 1.483 . S
C1453 C1085 1.487 . S
C1455 C753 1.474 . S
C1464 C841 1.475 . S
C1466 C1164 1.484 . S
C1475 C1252 1.487 . S
C1477 C929 1.474 . S
C1486 C1025 1.486 . S
C1488 C1340 1.475 . S
C1497 C29 1.327 . S
C1499 C1369 1.331 . S
C1508 C117 1.330 . S
C1510 C1113 1.323 . S
C1519 C205 1.331 . S
C1521 C1193 1.327 . S
C1530 C1281 1.321 . S
C1532 C284 1.328 . S
C1541 C401 1.322 . S
C1543 C812 1.326 . S
C1552 C489 1.322 . S
C1554 C900 1.330 . S
C1563 C997 1.322 . S
C1565 C577 1.327 . S
C1574 C724 1.322 . S
C1576 C673 1.326 . S
C1585 C49 1.567 . S
C1587 C937 1.564 . S
C1596 C1017 1.564 . S
C1598 C137 1.567 . S
C1607 C225 1.564 . S
C1609 C761 1.567 . S
C1618 C849 1.564 . S
C1620 C321 1.567 . S
C1629 C381 1.566 . S
C1631 C1261 1.565 . S
C1640 C469 1.568 . S
C1642 C1349 1.564 . S
C1651 C1076 1.564 . S
C1653 C557 1.567 . S
C1662 C1173 1.567 . S
C1664 C636 1.564 . S
C1673 C909 1.748 . S
C1675 C20 1.742 . S
C1684 C108 1.742 . S
C1686 C988 1.744 . S
C1695 C196 1.741 . S
C1697 C733 1.747 . S
C1706 C821 1.745 . S
C1708 C293 1.742 . S
C1717 C1289 1.741 . S
C1719 C409 1.747 . S
C1728 C1377 1.742 . S
C1730 C497 1.746 . S
C1739 C1105 1.742 . S
C1741 C585 1.744 . S
C1750 C665 1.741 . S
C1752 C1201 1.747 . S
