# Generated by pormake.
# Topology umq, (4)-cn, num edge types: 1
# Building blocks:
#     Node 0, Type 0, BuildingBlock: AZAVOO_clean_sbu_0, # of connection points: 4
#     Node 1, Type 0, BuildingBlock: AZAVOO_clean_sbu_0, # of connection points: 4
#     Node 2, Type 0, BuildingBlock: AZAVOO_clean_sbu_0, # of connection points: 4
#     Node 3, Type 0, BuildingBlock: AZAVOO_clean_sbu_0, # of connection points: 4
#     Node 4, Type 0, BuildingBlock: AZAVOO_clean_sbu_0, # of connection points: 4
#     Node 5, Type 0, BuildingBlock: AZAVOO_clean_sbu_0, # of connection points: 4
#     Node 6, Type 0, BuildingBlock: AZAVOO_clean_sbu_0, # of connection points: 4
#     Node 7, Type 0, BuildingBlock: AZAVOO_clean_sbu_0, # of connection points: 4
#     Node 8, Type 0, BuildingBlock: AZAVOO_clean_sbu_0, # of connection points: 4
#     Node 9, Type 0, BuildingBlock: AZAVOO_clean_sbu_0, # of connection points: 4
#     Node 10, Type 0, BuildingBlock: AZAVOO_clean_sbu_0, # of connection points: 4
#     Node 11, Type 0, BuildingBlock: AZAVOO_clean_sbu_0, # of connection points: 4
#     Node 12, Type 0, BuildingBlock: AZAVOO_clean_sbu_0, # of connection points: 4
#     Node 13, Type 0, BuildingBlock: AZAVOO_clean_sbu_0, # of connection points: 4
#     Node 14, Type 0, BuildingBlock: AZAVOO_clean_sbu_0, # of connection points: 4
#     Node 15, Type 0, BuildingBlock: AZAVOO_clean_sbu_0, # of connection points: 4
#     Node 16, Type 0, BuildingBlock: AZAVOO_clean_sbu_0, # of connection points: 4
#     Node 17, Type 0, BuildingBlock: AZAVOO_clean_sbu_0, # of connection points: 4
#     Node 18, Type 0, BuildingBlock: AZAVOO_clean_sbu_0, # of connection points: 4
#     Node 19, Type 0, BuildingBlock: AZAVOO_clean_sbu_0, # of connection points: 4
#     Node 20, Type 0, BuildingBlock: AZAVOO_clean_sbu_0, # of connection points: 4
#     Node 21, Type 0, BuildingBlock: AZAVOO_clean_sbu_0, # of connection points: 4
#     Node 22, Type 0, BuildingBlock: AZAVOO_clean_sbu_0, # of connection points: 4
#     Node 23, Type 0, BuildingBlock: AZAVOO_clean_sbu_0, # of connection points: 4
#     Node 24, Type 0, BuildingBlock: AZAVOO_clean_sbu_0, # of connection points: 4
#     Node 25, Type 0, BuildingBlock: AZAVOO_clean_sbu_0, # of connection points: 4
#     Node 26, Type 0, BuildingBlock: AZAVOO_clean_sbu_0, # of connection points: 4
#     Node 27, Type 0, BuildingBlock: AZAVOO_clean_sbu_0, # of connection points: 4
#     Node 28, Type 0, BuildingBlock: AZAVOO_clean_sbu_0, # of connection points: 4
#     Node 29, Type 0, BuildingBlock: AZAVOO_clean_sbu_0, # of connection points: 4
#     Node 30, Type 0, BuildingBlock: AZAVOO_clean_sbu_0, # of connection points: 4
#     Node 31, Type 0, BuildingBlock: AZAVOO_clean_sbu_0, # of connection points: 4
#     Edge 32, Type (0, 0), BuildingBlock: CIFDUS_clean_linker_0, # of connection points: 2
#     Edge 33, Type (0, 0), BuildingBlock: CIFDUS_clean_linker_0, # of connection points: 2
#     Edge 34, Type (0, 0), BuildingBlock: CIFDUS_clean_linker_0, # of connection points: 2
#     Edge 35, Type (0, 0), BuildingBlock: CIFDUS_clean_linker_0, # of connection points: 2
#     Edge 36, Type (0, 0), BuildingBlock: CIFDUS_clean_linker_0, # of connection points: 2
#     Edge 37, Type (0, 0), BuildingBlock: CIFDUS_clean_linker_0, # of connection points: 2
#     Edge 38, Type (0, 0), BuildingBlock: CIFDUS_clean_linker_0, # of connection points: 2
#     Edge 39, Type (0, 0), BuildingBlock: CIFDUS_clean_linker_0, # of connection points: 2
#     Edge 40, Type (0, 0), BuildingBlock: CIFDUS_clean_linker_0, # of connection points: 2
#     Edge 41, Type (0, 0), BuildingBlock: CIFDUS_clean_linker_0, # of connection points: 2
#     Edge 42, Type (0, 0), BuildingBlock: CIFDUS_clean_linker_0, # of connection points: 2
#     Edge 43, Type (0, 0), BuildingBlock: CIFDUS_clean_linker_0, # of connection points: 2
#     Edge 44, Type (0, 0), BuildingBlock: CIFDUS_clean_linker_0, # of connection points: 2
#     Edge 45, Type (0, 0), BuildingBlock: CIFDUS_clean_linker_0, # of connection points: 2
#     Edge 46, Type (0, 0), BuildingBlock: CIFDUS_clean_linker_0, # of connection points: 2
#     Edge 47, Type (0, 0), BuildingBlock: CIFDUS_clean_linker_0, # of connection points: 2
#     Edge 48, Type (0, 0), BuildingBlock: CIFDUS_clean_linker_0, # of connection points: 2
#     Edge 49, Type (0, 0), BuildingBlock: CIFDUS_clean_linker_0, # of connection points: 2
#     Edge 50, Type (0, 0), BuildingBlock: CIFDUS_clean_linker_0, # of connection points: 2
#     Edge 51, Type (0, 0), BuildingBlock: CIFDUS_clean_linker_0, # of connection points: 2
#     Edge 52, Type (0, 0), BuildingBlock: CIFDUS_clean_linker_0, # of connection points: 2
#     Edge 53, Type (0, 0), BuildingBlock: CIFDUS_clean_linker_0, # of connection points: 2
#     Edge 54, Type (0, 0), BuildingBlock: CIFDUS_clean_linker_0, # of connection points: 2
#     Edge 55, Type (0, 0), BuildingBlock: CIFDUS_clean_linker_0, # of connection points: 2
#     Edge 56, Type (0, 0), BuildingBlock: CIFDUS_clean_linker_0, # of connection points: 2
#     Edge 57, Type (0, 0), BuildingBlock: CIFDUS_clean_linker_0, # of connection points: 2
#     Edge 58, Type (0, 0), BuildingBlock: CIFDUS_clean_linker_0, # of connection points: 2
#     Edge 59, Type (0, 0), BuildingBlock: CIFDUS_clean_linker_0, # of connection points: 2
#     Edge 60, Type (0, 0), BuildingBlock: CIFDUS_clean_linker_0, # of connection points: 2
#     Edge 61, Type (0, 0), BuildingBlock: CIFDUS_clean_linker_0, # of connection points: 2
#     Edge 62, Type (0, 0), BuildingBlock: CIFDUS_clean_linker_0, # of connection points: 2
#     Edge 63, Type (0, 0), BuildingBlock: CIFDUS_clean_linker_0, # of connection points: 2
#     Edge 64, Type (0, 0), BuildingBlock: CIFDUS_clean_linker_0, # of connection points: 2
#     Edge 65, Type (0, 0), BuildingBlock: CIFDUS_clean_linker_0, # of connection points: 2
#     Edge 66, Type (0, 0), BuildingBlock: CIFDUS_clean_linker_0, # of connection points: 2
#     Edge 67, Type (0, 0), BuildingBlock: CIFDUS_clean_linker_0, # of connection points: 2
#     Edge 68, Type (0, 0), BuildingBlock: CIFDUS_clean_linker_0, # of connection points: 2
#     Edge 69, Type (0, 0), BuildingBlock: CIFDUS_clean_linker_0, # of connection points: 2
#     Edge 70, Type (0, 0), BuildingBlock: CIFDUS_clean_linker_0, # of connection points: 2
#     Edge 71, Type (0, 0), BuildingBlock: CIFDUS_clean_linker_0, # of connection points: 2
#     Edge 72, Type (0, 0), BuildingBlock: CIFDUS_clean_linker_0, # of connection points: 2
#     Edge 73, Type (0, 0), BuildingBlock: CIFDUS_clean_linker_0, # of connection points: 2
#     Edge 74, Type (0, 0), BuildingBlock: CIFDUS_clean_linker_0, # of connection points: 2
#     Edge 75, Type (0, 0), BuildingBlock: CIFDUS_clean_linker_0, # of connection points: 2
#     Edge 76, Type (0, 0), BuildingBlock: CIFDUS_clean_linker_0, # of connection points: 2
#     Edge 77, Type (0, 0), BuildingBlock: CIFDUS_clean_linker_0, # of connection points: 2
#     Edge 78, Type (0, 0), BuildingBlock: CIFDUS_clean_linker_0, # of connection points: 2
#     Edge 79, Type (0, 0), BuildingBlock: CIFDUS_clean_linker_0, # of connection points: 2
#     Edge 80, Type (0, 0), BuildingBlock: CIFDUS_clean_linker_0, # of connection points: 2
#     Edge 81, Type (0, 0), BuildingBlock: CIFDUS_clean_linker_0, # of connection points: 2
#     Edge 82, Type (0, 0), BuildingBlock: CIFDUS_clean_linker_0, # of connection points: 2
#     Edge 83, Type (0, 0), BuildingBlock: CIFDUS_clean_linker_0, # of connection points: 2
#     Edge 84, Type (0, 0), BuildingBlock: CIFDUS_clean_linker_0, # of connection points: 2
#     Edge 85, Type (0, 0), BuildingBlock: CIFDUS_clean_linker_0, # of connection points: 2
#     Edge 86, Type (0, 0), BuildingBlock: CIFDUS_clean_linker_0, # of connection points: 2
#     Edge 87, Type (0, 0), BuildingBlock: CIFDUS_clean_linker_0, # of connection points: 2
#     Edge 88, Type (0, 0), BuildingBlock: CIFDUS_clean_linker_0, # of connection points: 2
#     Edge 89, Type (0, 0), BuildingBlock: CIFDUS_clean_linker_0, # of connection points: 2
#     Edge 90, Type (0, 0), BuildingBlock: CIFDUS_clean_linker_0, # of connection points: 2
#     Edge 91, Type (0, 0), BuildingBlock: CIFDUS_clean_linker_0, # of connection points: 2
#     Edge 92, Type (0, 0), BuildingBlock: CIFDUS_clean_linker_0, # of connection points: 2
#     Edge 93, Type (0, 0), BuildingBlock: CIFDUS_clean_linker_0, # of connection points: 2
#     Edge 94, Type (0, 0), BuildingBlock: CIFDUS_clean_linker_0, # of connection points: 2
#     Edge 95, Type (0, 0), BuildingBlock: CIFDUS_clean_linker_0, # of connection points: 2
# Relax obj value: 0.099
# Max RMSD: 0.122
# Mean RMSD: 0.122
data_MOF--net-umq--node1-AZAVOO_clean_sbu_0--edge1-CIFDUS_clean_linker_0
_symmetry_space_group_name_H-M    P1
_symmetry_Int_Tables_number       1
_symmetry_cell_setting            triclinic
loop_
_symmetry_equiv_pos_as_xyz
'x, y, z'
_cell_length_a     57.679324
_cell_length_b     57.60807
_cell_length_c     39.741314
_cell_angle_alpha  90.370029
_cell_angle_beta   89.877698
_cell_angle_gamma 89.993182
loop_
_atom_site_label
_atom_site_type_symbol
_atom_site_fract_x
_atom_site_fract_y
_atom_site_fract_z
_atom_type_partial_charge
Mg0 Mg 0.2161 0.08384 0.17266 0.0
O1 O 0.24627 0.10703 0.19083 0.0
O2 O 0.24069 0.11174 0.24628 0.0
Mg3 Mg 0.20791 0.09352 0.26348 0.0
C4 C 0.25238 0.11527 0.21946 0.0
C5 C 0.2393 0.09142 0.10133 0.0
O6 O 0.23713 0.11334 0.11015 0.0
O7 O 0.23316 0.0525 0.19724 0.0
O8 O 0.22556 0.05906 0.25163 0.0
O9 O 0.1938 0.11506 0.16318 0.0
O10 O 0.19585 0.09668 0.21166 0.0
C11 C 0.23412 0.04652 0.22811 0.0
C12 C 0.1881 0.1139 0.19464 0.0
O13 O 0.23348 0.07579 0.12214 0.0
Mg14 Mg 0.88901 0.22449 0.17901 0.0
O15 O 0.86317 0.25447 0.1872 0.0
O16 O 0.85969 0.2584 0.24303 0.0
Mg17 Mg 0.88162 0.23186 0.27052 0.0
C18 C 0.85452 0.26449 0.21313 0.0
C19 C 0.91273 0.22748 0.10974 0.0
O20 O 0.92839 0.21738 0.12863 0.0
O21 O 0.91913 0.24783 0.19475 0.0
O22 O 0.91452 0.24895 0.25055 0.0
O23 O 0.86021 0.19833 0.18031 0.0
O24 O 0.87927 0.21036 0.2252 0.0
C25 C 0.9259 0.25408 0.22403 0.0
C26 C 0.86273 0.19816 0.21268 0.0
O27 O 0.89368 0.23368 0.12327 0.0
Mg28 Mg 0.7453 0.89864 0.18306 0.0
O29 O 0.71857 0.86954 0.19121 0.0
O30 O 0.71872 0.86165 0.24627 0.0
Mg31 Mg 0.74466 0.88445 0.27376 0.0
C32 C 0.71116 0.85809 0.21651 0.0
C33 C 0.74831 0.91213 0.1083 0.0
O34 O 0.76786 0.91973 0.12123 0.0
O35 O 0.71992 0.92565 0.20627 0.0
O36 O 0.72313 0.91583 0.26038 0.0
O37 O 0.77395 0.87227 0.17774 0.0
O38 O 0.76298 0.88779 0.22608 0.0
C39 C 0.71496 0.92885 0.23746 0.0
C40 C 0.77555 0.87295 0.21019 0.0
O41 O 0.73331 0.90333 0.12807 0.0
Mg42 Mg 0.08632 0.74326 0.18385 0.0
O43 O 0.11385 0.71674 0.20123 0.0
O44 O 0.11686 0.72177 0.25699 0.0
Mg45 Mg 0.0931 0.75037 0.27566 0.0
C46 C 0.12266 0.71144 0.22973 0.0
C47 C 0.06702 0.73358 0.11269 0.0
O48 O 0.05058 0.74621 0.12663 0.0
O49 O 0.05745 0.72041 0.20601 0.0
O50 O 0.06248 0.72781 0.26081 0.0
O51 O 0.11344 0.77082 0.17756 0.0
O52 O 0.09455 0.76429 0.22491 0.0
C53 C 0.05154 0.71787 0.23686 0.0
C54 C 0.11055 0.77535 0.20921 0.0
O55 O 0.08404 0.7273 0.13082 0.0
Mg56 Mg 0.21161 0.88478 0.35801 0.0
O57 O 0.24086 0.86182 0.33585 0.0
O58 O 0.23371 0.85904 0.2806 0.0
Mg59 Mg 0.2017 0.87947 0.26681 0.0
C60 C 0.24594 0.85425 0.30636 0.0
C61 C 0.2274 0.90881 0.42326 0.0
O62 O 0.21644 0.92528 0.407 0.0
O63 O 0.22921 0.91686 0.33613 0.0
O64 O 0.2212 0.91235 0.28148 0.0
O65 O 0.18922 0.85337 0.36436 0.0
O66 O 0.18994 0.87487 0.31864 0.0
C67 C 0.23034 0.92375 0.30568 0.0
C68 C 0.18263 0.85655 0.3336 0.0
O69 O 0.22994 0.88917 0.40888 0.0
Mg70 Mg 0.08829 0.22782 0.33959 0.0
O71 O 0.11413 0.25536 0.32091 0.0
O72 O 0.1171 0.25042 0.26515 0.0
Mg73 Mg 0.09418 0.2207 0.24795 0.0
C74 C 0.12259 0.26098 0.2923 0.0
C75 C 0.06575 0.24401 0.40649 0.0
O76 O 0.04798 0.23535 0.39002 0.0
O77 O 0.05825 0.24885 0.31823 0.0
O78 O 0.06234 0.24193 0.26315 0.0
O79 O 0.11726 0.2026 0.34547 0.0
O80 O 0.097 0.20655 0.2988 0.0
C81 C 0.05149 0.2512 0.28785 0.0
C82 C 0.11423 0.19719 0.31411 0.0
O83 O 0.0853 0.24495 0.39167 0.0
Mg84 Mg 0.74804 0.08626 0.33499 0.0
O85 O 0.72427 0.11679 0.3219 0.0
O86 O 0.72797 0.12398 0.26701 0.0
Mg87 Mg 0.75282 0.09778 0.24382 0.0
C88 C 0.71918 0.12851 0.2958 0.0
C89 C 0.73975 0.07246 0.41122 0.0
O90 O 0.75527 0.05669 0.40314 0.0
O91 O 0.72169 0.06055 0.31124 0.0
O92 O 0.72772 0.06898 0.25702 0.0
O93 O 0.77831 0.11109 0.33951 0.0
O94 O 0.76872 0.09263 0.29291 0.0
C95 C 0.71759 0.0572 0.27982 0.0
C96 C 0.78173 0.10751 0.3077 0.0
O97 O 0.73222 0.08592 0.38838 0.0
Mg98 Mg 0.89288 0.75984 0.32039 0.0
O99 O 0.86263 0.73675 0.303 0.0
O100 O 0.85734 0.74296 0.24805 0.0
Mg101 Mg 0.88449 0.76829 0.22925 0.0
C102 C 0.85178 0.73299 0.27548 0.0
C103 C 0.90957 0.74784 0.3925 0.0
O104 O 0.92659 0.76079 0.38114 0.0
O105 O 0.91855 0.73406 0.29632 0.0
O106 O 0.9123 0.7417 0.24194 0.0
O107 O 0.86808 0.78945 0.3271 0.0
O108 O 0.88734 0.78222 0.28015 0.0
C109 C 0.92285 0.7306 0.26502 0.0
C110 C 0.87186 0.79413 0.29575 0.0
O111 O 0.89311 0.74258 0.37255 0.0
Mg112 Mg 0.75898 0.88657 0.83704 0.0
O113 O 0.72746 0.86244 0.83113 0.0
O114 O 0.72391 0.85597 0.77575 0.0
Mg115 Mg 0.75225 0.87397 0.74614 0.0
C116 C 0.71709 0.85314 0.80604 0.0
C117 C 0.76321 0.90859 0.90781 0.0
O118 O 0.78024 0.91793 0.89055 0.0
O119 O 0.73787 0.91744 0.8167 0.0
O120 O 0.73698 0.90849 0.76187 0.0
O121 O 0.78312 0.85558 0.8387 0.0
O122 O 0.7726 0.87329 0.7922 0.0
C123 C 0.73223 0.92212 0.78631 0.0
C124 C 0.78331 0.85641 0.80616 0.0
O125 O 0.74968 0.89457 0.89264 0.0
Mg126 Mg 0.07968 0.76 0.84566 0.0
O127 O 0.109 0.73439 0.83366 0.0
O128 O 0.11636 0.73663 0.77853 0.0
Mg129 Mg 0.09219 0.76289 0.75475 0.0
C130 C 0.12032 0.72809 0.8075 0.0
C131 C 0.05641 0.74768 0.91387 0.0
O132 O 0.03938 0.75774 0.89756 0.0
O133 O 0.0534 0.73472 0.82195 0.0
O134 O 0.06186 0.73929 0.76744 0.0
O135 O 0.10585 0.7889 0.85123 0.0
O136 O 0.08828 0.77972 0.8038 0.0
C137 C 0.04978 0.73015 0.7908 0.0
C138 C 0.10347 0.79207 0.81919 0.0
O139 O 0.07568 0.74481 0.89878 0.0
Mg140 Mg 0.23772 0.09382 0.82685 0.0
O141 O 0.26465 0.12039 0.80921 0.0
O142 O 0.2648 0.11977 0.75295 0.0
Mg143 Mg 0.23824 0.09357 0.73421 0.0
C144 C 0.27229 0.12767 0.78098 0.0
C145 C 0.24885 0.08072 0.90217 0.0
O146 O 0.24038 0.06065 0.89226 0.0
O147 O 0.26208 0.06392 0.81326 0.0
O148 O 0.25911 0.06393 0.75722 0.0
O149 O 0.21011 0.12077 0.82513 0.0
O150 O 0.21966 0.09841 0.78184 0.0
C151 C 0.26685 0.05517 0.78442 0.0
C152 C 0.20781 0.11558 0.79359 0.0
O153 O 0.25109 0.0969 0.8808 0.0
Mg154 Mg 0.89674 0.22742 0.8347 0.0
O155 O 0.87128 0.25552 0.81727 0.0
O156 O 0.87049 0.25388 0.76103 0.0
Mg157 Mg 0.89539 0.22628 0.74204 0.0
C158 C 0.86369 0.26261 0.78895 0.0
C159 C 0.91111 0.23391 0.90897 0.0
O160 O 0.92783 0.22082 0.89678 0.0
O161 O 0.92736 0.25054 0.81988 0.0
O162 O 0.92518 0.24751 0.76385 0.0
O163 O 0.86789 0.20159 0.83268 0.0
O164 O 0.89146 0.2088 0.79017 0.0
C165 C 0.93489 0.25537 0.79043 0.0
C166 C 0.87336 0.19843 0.80137 0.0
O167 O 0.89553 0.24114 0.88897 0.0
Mg168 Mg 0.75675 0.08692 0.68603 0.0
O169 O 0.7242 0.10954 0.69404 0.0
O170 O 0.72464 0.11946 0.74872 0.0
Mg171 Mg 0.75708 0.10655 0.77484 0.0
C172 C 0.71513 0.11954 0.71973 0.0
C173 C 0.73784 0.08763 0.61103 0.0
O174 O 0.73552 0.10979 0.61836 0.0
O175 O 0.73936 0.05706 0.71541 0.0
O176 O 0.7433 0.07007 0.7683 0.0
O177 O 0.77867 0.11856 0.67461 0.0
O178 O 0.77274 0.10429 0.72526 0.0
C179 C 0.73716 0.05443 0.74729 0.0
C180 C 0.78139 0.12027 0.70684 0.0
O181 O 0.7446 0.07382 0.63394 0.0
Mg182 Mg 0.89509 0.7506 0.66399 0.0
O183 O 0.86906 0.72108 0.67349 0.0
O184 O 0.86515 0.71861 0.72933 0.0
Mg185 Mg 0.88759 0.74529 0.75595 0.0
C186 C 0.86017 0.71177 0.69961 0.0
C187 C 0.91713 0.74595 0.59332 0.0
O188 O 0.93377 0.75508 0.61164 0.0
O189 O 0.92538 0.72704 0.67995 0.0
O190 O 0.91949 0.72692 0.7356 0.0
O191 O 0.866 0.777 0.66744 0.0
O192 O 0.88725 0.76583 0.7103 0.0
C193 C 0.93126 0.72099 0.70971 0.0
C194 C 0.87034 0.77799 0.69937 0.0
O195 O 0.89814 0.74069 0.60778 0.0
Mg196 Mg 0.23156 0.88925 0.69653 0.0
O197 O 0.25856 0.862 0.7117 0.0
O198 O 0.25975 0.86196 0.76796 0.0
Mg199 Mg 0.23378 0.88796 0.78905 0.0
C200 C 0.2667 0.85438 0.73941 0.0
C201 C 0.24098 0.90506 0.62247 0.0
O202 O 0.23307 0.92452 0.63554 0.0
O203 O 0.25678 0.91834 0.71023 0.0
O204 O 0.25491 0.91763 0.76638 0.0
O205 O 0.20333 0.86289 0.69859 0.0
O206 O 0.2142 0.88414 0.74221 0.0
C207 C 0.26234 0.92655 0.73906 0.0
C208 C 0.20152 0.86766 0.73036 0.0
O209 O 0.24363 0.88763 0.64156 0.0
Mg210 Mg 0.094 0.22921 0.67531 0.0
O211 O 0.12151 0.25423 0.6967 0.0
O212 O 0.12282 0.24838 0.75224 0.0
Mg213 Mg 0.09656 0.22104 0.76703 0.0
C214 C 0.12984 0.25872 0.72583 0.0
C215 C 0.077 0.24656 0.60568 0.0
O216 O 0.05768 0.23847 0.61867 0.0
O217 O 0.06523 0.25298 0.69542 0.0
O218 O 0.06771 0.2454 0.7504 0.0
O219 O 0.1207 0.20106 0.67131 0.0
O220 O 0.09863 0.20707 0.71592 0.0
C221 C 0.05823 0.25584 0.72574 0.0
C222 C 0.11544 0.19592 0.70206 0.0
O223 O 0.09518 0.24673 0.62374 0.0
Mg224 Mg 0.72613 0.58234 0.67026 0.0
O225 O 0.75514 0.60711 0.6876 0.0
O226 O 0.75099 0.61109 0.74337 0.0
Mg227 Mg 0.71991 0.59049 0.76165 0.0
C228 C 0.76158 0.61556 0.71591 0.0
C229 C 0.74853 0.59453 0.60125 0.0
O230 O 0.74676 0.61531 0.61485 0.0
O231 O 0.74569 0.55174 0.69267 0.0
O232 O 0.73908 0.55721 0.74755 0.0
O233 O 0.7019 0.61217 0.66279 0.0
O234 O 0.70597 0.59338 0.7107 0.0
C235 C 0.7477 0.54542 0.72328 0.0
C236 C 0.6969 0.61033 0.69442 0.0
O237 O 0.74273 0.577 0.61859 0.0
Mg238 Mg 0.3928 0.71556 0.66847 0.0
O239 O 0.36699 0.74457 0.68205 0.0
O240 O 0.36134 0.74214 0.73759 0.0
Mg241 Mg 0.38186 0.71208 0.75899 0.0
C242 C 0.35753 0.75177 0.70929 0.0
C243 C 0.42036 0.72927 0.60576 0.0
O244 O 0.43616 0.71877 0.62393 0.0
O245 O 0.42185 0.73628 0.69212 0.0
O246 O 0.41551 0.7315 0.74708 0.0
O247 O 0.36362 0.69083 0.66001 0.0
O248 O 0.38138 0.69606 0.70869 0.0
C249 C 0.42756 0.73949 0.72277 0.0
C250 C 0.36495 0.68636 0.69185 0.0
O251 O 0.40001 0.73159 0.61768 0.0
Mg252 Mg 0.25648 0.40151 0.68553 0.0
O253 O 0.23068 0.37215 0.69531 0.0
O254 O 0.23003 0.36548 0.75058 0.0
Mg255 Mg 0.2555 0.39018 0.77602 0.0
C256 C 0.22308 0.36109 0.72074 0.0
C257 C 0.24063 0.3872 0.61478 0.0
O258 O 0.24486 0.36706 0.62881 0.0
O259 O 0.23061 0.42728 0.7061 0.0
O260 O 0.23261 0.42141 0.7615 0.0
O261 O 0.28509 0.37644 0.67948 0.0
O262 O 0.27503 0.39208 0.72836 0.0
C263 C 0.22471 0.43244 0.73616 0.0
C264 C 0.28778 0.37756 0.71178 0.0
O265 O 0.24298 0.40559 0.63227 0.0
Mg266 Mg 0.58819 0.25652 0.65461 0.0
O267 O 0.61149 0.22473 0.66366 0.0
O268 O 0.61555 0.2227 0.71953 0.0
Mg269 Mg 0.59759 0.25275 0.74584 0.0
C270 C 0.61935 0.21482 0.68995 0.0
C271 C 0.56184 0.25025 0.58756 0.0
O272 O 0.54639 0.26079 0.60662 0.0
O273 O 0.55645 0.23688 0.67406 0.0
O274 O 0.56282 0.23797 0.72946 0.0
O275 O 0.61928 0.27983 0.65192 0.0
O276 O 0.60035 0.27216 0.69877 0.0
C277 C 0.55018 0.23265 0.70426 0.0
C278 C 0.61754 0.28221 0.68425 0.0
O279 O 0.58135 0.24503 0.6003 0.0
Mg280 Mg 0.7188 0.38516 0.84442 0.0
O281 O 0.74942 0.36043 0.83476 0.0
O282 O 0.75101 0.35549 0.77893 0.0
Mg283 Mg 0.72204 0.37502 0.75314 0.0
C284 C 0.75878 0.35166 0.80842 0.0
C285 C 0.72602 0.41236 0.91017 0.0
O286 O 0.71546 0.42726 0.89055 0.0
O287 O 0.74014 0.41542 0.82453 0.0
O288 O 0.73919 0.409 0.76906 0.0
O289 O 0.69416 0.35508 0.84747 0.0
O290 O 0.70264 0.37345 0.80056 0.0
C291 C 0.74513 0.4213 0.79444 0.0
C292 C 0.69195 0.35671 0.81514 0.0
O293 O 0.73084 0.39234 0.89841 0.0
Mg294 Mg 0.59106 0.71716 0.84149 0.0
O295 O 0.61402 0.74749 0.82428 0.0
O296 O 0.6167 0.74407 0.76826 0.0
Mg297 Mg 0.59737 0.71221 0.74989 0.0
C298 C 0.62128 0.75466 0.79576 0.0
C299 C 0.56524 0.73133 0.90573 0.0
O300 O 0.5491 0.72101 0.88779 0.0
O301 O 0.55961 0.73568 0.82068 0.0
O302 O 0.56364 0.73029 0.76528 0.0
O303 O 0.62217 0.69455 0.84701 0.0
O304 O 0.60177 0.69759 0.80029 0.0
C305 C 0.5524 0.73815 0.79062 0.0
C306 C 0.61962 0.68934 0.81548 0.0
O307 O 0.5854 0.73354 0.89313 0.0
Mg308 Mg 0.24764 0.59489 0.83991 0.0
O309 O 0.22286 0.62213 0.81912 0.0
O310 O 0.22637 0.62222 0.76312 0.0
Mg311 Mg 0.25357 0.59542 0.7482 0.0
C312 C 0.21724 0.62991 0.79026 0.0
C313 C 0.22997 0.58005 0.91022 0.0
O314 O 0.23837 0.56017 0.89929 0.0
O315 O 0.22369 0.56612 0.82267 0.0
O316 O 0.23003 0.56611 0.76723 0.0
O317 O 0.27561 0.62096 0.84374 0.0
O318 O 0.2692 0.59941 0.79836 0.0
C319 C 0.22033 0.55764 0.79337 0.0
C320 C 0.28054 0.61601 0.81272 0.0
O321 O 0.23012 0.5974 0.89071 0.0
Mg322 Mg 0.39783 0.26802 0.84466 0.0
O323 O 0.37073 0.24008 0.83224 0.0
O324 O 0.36272 0.24347 0.77746 0.0
Mg325 Mg 0.38315 0.27343 0.75534 0.0
C326 C 0.35999 0.23349 0.80577 0.0
C327 C 0.42528 0.25458 0.90819 0.0
O328 O 0.44077 0.26663 0.89142 0.0
O329 O 0.42537 0.24657 0.81748 0.0
O330 O 0.41633 0.25251 0.76354 0.0
O331 O 0.36976 0.29376 0.85607 0.0
O332 O 0.38564 0.28861 0.80598 0.0
C333 C 0.4293 0.24364 0.78608 0.0
C334 C 0.37024 0.29875 0.82434 0.0
O335 O 0.40557 0.251 0.8949 0.0
Mg336 Mg 0.26563 0.38357 0.34989 0.0
O337 O 0.23517 0.3602 0.33568 0.0
O338 O 0.23484 0.35546 0.27991 0.0
Mg339 Mg 0.26531 0.37572 0.25836 0.0
C340 C 0.2263 0.35165 0.309 0.0
C341 C 0.24554 0.3688 0.41771 0.0
O342 O 0.24818 0.3489 0.40182 0.0
O343 O 0.24588 0.41487 0.33108 0.0
O344 O 0.24807 0.40976 0.27539 0.0
O345 O 0.28876 0.35309 0.35404 0.0
O346 O 0.28348 0.37254 0.30688 0.0
C347 C 0.24177 0.42159 0.30115 0.0
C348 C 0.29264 0.3551 0.3221 0.0
O349 O 0.25082 0.38745 0.4026 0.0
Mg350 Mg 0.58553 0.25831 0.3183 0.0
O351 O 0.61598 0.23482 0.30244 0.0
O352 O 0.62297 0.24178 0.24808 0.0
Mg353 Mg 0.59783 0.26894 0.22905 0.0
C354 C 0.62744 0.23114 0.27536 0.0
C355 C 0.56569 0.24559 0.38774 0.0
O356 O 0.55023 0.26033 0.3764 0.0
O357 O 0.5603 0.23432 0.29064 0.0
O358 O 0.56794 0.24352 0.2372 0.0
O359 O 0.60996 0.28679 0.33119 0.0
O360 O 0.59449 0.28202 0.28084 0.0
C361 C 0.55641 0.23218 0.2591 0.0
C362 C 0.6088 0.29302 0.30001 0.0
O363 O 0.58208 0.23929 0.36829 0.0
Mg364 Mg 0.72668 0.59229 0.33573 0.0
O365 O 0.75168 0.62151 0.32136 0.0
O366 O 0.74683 0.62987 0.26708 0.0
Mg367 Mg 0.71946 0.6055 0.24586 0.0
C368 C 0.75671 0.63335 0.29534 0.0
C369 C 0.74749 0.60786 0.40326 0.0
O370 O 0.74188 0.62751 0.38882 0.0
O371 O 0.75033 0.56584 0.30924 0.0
O372 O 0.74327 0.57458 0.25546 0.0
O373 O 0.69847 0.61812 0.3458 0.0
O374 O 0.7047 0.60147 0.29645 0.0
C375 C 0.75329 0.56222 0.27769 0.0
C376 C 0.6933 0.61632 0.31422 0.0
O377 O 0.74441 0.58898 0.38706 0.0
Mg378 Mg 0.38994 0.72911 0.34049 0.0
O379 O 0.36241 0.75667 0.33161 0.0
O380 O 0.35505 0.7575 0.27655 0.0
Mg381 Mg 0.37686 0.72954 0.25062 0.0
C382 C 0.35164 0.76499 0.30645 0.0
C383 C 0.41408 0.74174 0.40867 0.0
O384 O 0.43185 0.73176 0.39372 0.0
O385 O 0.41766 0.75221 0.31826 0.0
O386 O 0.41058 0.74909 0.2632 0.0
O387 O 0.36266 0.70261 0.34771 0.0
O388 O 0.37872 0.71042 0.29847 0.0
C389 C 0.42293 0.75646 0.28771 0.0
C390 C 0.36342 0.69912 0.3155 0.0
O391 O 0.39519 0.7439 0.39269 0.0
Mg392 Mg 0.26209 0.58206 0.17879 0.0
O393 O 0.23162 0.60669 0.18935 0.0
O394 O 0.2321 0.61429 0.24454 0.0
Mg395 Mg 0.26252 0.59569 0.26876 0.0
C396 C 0.22322 0.61674 0.21538 0.0
C397 C 0.23912 0.58769 0.10797 0.0
O398 O 0.23826 0.60948 0.11784 0.0
O399 O 0.2425 0.55249 0.20282 0.0
O400 O 0.24543 0.56046 0.25768 0.0
O401 O 0.28538 0.61218 0.16972 0.0
O402 O 0.27999 0.596 0.21942 0.0
C403 C 0.23884 0.54731 0.23352 0.0
C404 C 0.28922 0.61231 0.20183 0.0
O405 O 0.24748 0.57257 0.12762 0.0
Mg406 Mg 0.39347 0.24314 0.1748 0.0
O407 O 0.36634 0.21474 0.18363 0.0
O408 O 0.35917 0.21437 0.23886 0.0
Mg409 Mg 0.38 0.24266 0.26497 0.0
C410 C 0.35587 0.20646 0.2092 0.0
C411 C 0.41706 0.23583 0.10508 0.0
O412 O 0.43287 0.24854 0.12021 0.0
O413 O 0.42195 0.22057 0.19746 0.0
O414 O 0.41369 0.22365 0.25227 0.0
O415 O 0.36549 0.2695 0.16836 0.0
O416 O 0.3819 0.26138 0.21702 0.0
C417 C 0.42663 0.21643 0.22828 0.0
C418 C 0.36643 0.27272 0.2006 0.0
O419 O 0.39937 0.22943 0.1217 0.0
Mg420 Mg 0.72783 0.40097 0.1802 0.0
O421 O 0.75239 0.3719 0.19784 0.0
O422 O 0.74485 0.36681 0.25252 0.0
Mg423 Mg 0.71631 0.39107 0.26992 0.0
C424 C 0.75615 0.36175 0.22583 0.0
C425 C 0.73833 0.41816 0.10928 0.0
O426 O 0.72234 0.43263 0.12022 0.0
O427 O 0.75051 0.42818 0.20683 0.0
O428 O 0.74061 0.42147 0.2603 0.0
O429 O 0.70032 0.37517 0.16818 0.0
O430 O 0.704 0.39213 0.21783 0.0
C431 C 0.75193 0.43288 0.23828 0.0
C432 C 0.69363 0.37701 0.19917 0.0
O433 O 0.7467 0.40355 0.12979 0.0
Mg434 Mg 0.5857 0.72294 0.17307 0.0
O435 O 0.61145 0.7495 0.19459 0.0
O436 O 0.61227 0.74438 0.25032 0.0
Mg437 Mg 0.58772 0.71518 0.26449 0.0
C438 C 0.61903 0.75485 0.22383 0.0
C439 C 0.56791 0.74001 0.10414 0.0
O440 O 0.54901 0.73051 0.1164 0.0
O441 O 0.55563 0.74473 0.19235 0.0
O442 O 0.5571 0.73767 0.24751 0.0
O443 O 0.6137 0.69688 0.1674 0.0
O444 O 0.59252 0.70112 0.21351 0.0
C445 C 0.54768 0.74733 0.22212 0.0
C446 C 0.60972 0.69128 0.19836 0.0
O447 O 0.58587 0.74101 0.1225 0.0
H448 H 0.33448 0.18182 0.2579 0.0
H449 H 0.33831 0.18899 0.14996 0.0
H450 H 0.30743 0.16021 0.14326 0.0
H451 H 0.27768 0.13479 0.16854 0.0
H452 H 0.27423 0.12884 0.27681 0.0
H453 H 0.30668 0.15536 0.2827 0.0
C454 C 0.32869 0.17708 0.23283 0.0
C455 C 0.33856 0.18774 0.20452 0.0
C456 C 0.31089 0.16078 0.22919 0.0
C457 C 0.33097 0.18112 0.17224 0.0
C458 C 0.31326 0.1647 0.16838 0.0
C459 C 0.28417 0.13914 0.19338 0.0
C460 C 0.27333 0.12998 0.22215 0.0
C461 C 0.30284 0.15468 0.19674 0.0
C462 C 0.28201 0.13579 0.25418 0.0
C463 C 0.30062 0.15096 0.25765 0.0
H464 H 0.8296 0.28546 0.26224 0.0
H465 H 0.84037 0.28567 0.15469 0.0
H466 H 0.81098 0.31609 0.14889 0.0
H467 H 0.78183 0.34229 0.17471 0.0
H468 H 0.77154 0.34061 0.28249 0.0
H469 H 0.80119 0.31104 0.28761 0.0
C470 C 0.82568 0.29215 0.23744 0.0
C471 C 0.83725 0.28328 0.20897 0.0
C472 C 0.80876 0.30936 0.23428 0.0
C473 C 0.83174 0.29217 0.17707 0.0
C474 C 0.81493 0.30955 0.17373 0.0
C475 C 0.78611 0.33547 0.1993 0.0
C476 C 0.77437 0.34372 0.22812 0.0
C477 C 0.80326 0.31823 0.20221 0.0
C478 C 0.78014 0.33462 0.25979 0.0
C479 C 0.79716 0.31768 0.26284 0.0
H480 H 0.63707 0.78245 0.17452 0.0
H481 H 0.63983 0.76972 0.28154 0.0
H482 H 0.6682 0.80053 0.2883 0.0
H483 H 0.69227 0.83075 0.26439 0.0
H484 H 0.69025 0.84413 0.15761 0.0
H485 H 0.66144 0.81333 0.15035 0.0
C486 C 0.64387 0.78641 0.19932 0.0
C487 C 0.63626 0.77372 0.22744 0.0
C488 C 0.66028 0.80424 0.20316 0.0
C489 C 0.64528 0.77914 0.2594 0.0
C490 C 0.66155 0.79678 0.26336 0.0
C491 C 0.68558 0.82705 0.23944 0.0
C492 C 0.69346 0.83978 0.2116 0.0
C493 C 0.66916 0.8094 0.23545 0.0
C494 C 0.6845 0.83462 0.17952 0.0
C495 C 0.66804 0.817 0.17534 0.0
H496 H 0.19999 0.63883 0.26532 0.0
H497 H 0.20127 0.63027 0.15731 0.0
H498 H 0.16969 0.65835 0.152 0.0
H499 H 0.14274 0.68657 0.17822 0.0
H500 H 0.1426 0.69459 0.28649 0.0
H501 H 0.17273 0.66549 0.29126 0.0
C502 C 0.19338 0.64297 0.24053 0.0
C503 C 0.20314 0.63253 0.21178 0.0
C504 C 0.17544 0.65916 0.23765 0.0
C505 C 0.19415 0.63807 0.17993 0.0
C506 C 0.17611 0.65418 0.17685 0.0
C507 C 0.14923 0.68188 0.20284 0.0
C508 C 0.14043 0.69295 0.23187 0.0
C509 C 0.16678 0.66504 0.20556 0.0
C510 C 0.14905 0.68655 0.2636 0.0
C511 C 0.16633 0.66985 0.26646 0.0
H512 H 0.27471 0.83607 0.35416 0.0
H513 H 0.26319 0.83823 0.24677 0.0
H514 H 0.29535 0.8118 0.23752 0.0
H515 H 0.32569 0.78686 0.2595 0.0
H516 H 0.33755 0.78387 0.36665 0.0
H517 H 0.30647 0.81195 0.3762 0.0
C518 C 0.27932 0.83087 0.32874 0.0
C519 C 0.26637 0.83906 0.30131 0.0
C520 C 0.29789 0.81546 0.32344 0.0
C521 C 0.27267 0.83213 0.26849 0.0
C522 C 0.29112 0.81699 0.26308 0.0
C523 C 0.32161 0.79239 0.28498 0.0
C524 C 0.33388 0.78313 0.31227 0.0
C525 C 0.30367 0.80836 0.29034 0.0
C526 C 0.32836 0.79065 0.3451 0.0
C527 C 0.31055 0.80669 0.35063 0.0
H528 H 0.20113 0.3328 0.25814 0.0
H529 H 0.20527 0.33617 0.36657 0.0
H530 H 0.17266 0.30937 0.37109 0.0
H531 H 0.14417 0.28352 0.34417 0.0
H532 H 0.14068 0.28028 0.23561 0.0
H533 H 0.17176 0.3086 0.23144 0.0
C534 C 0.1949 0.32777 0.28281 0.0
C535 C 0.2058 0.33636 0.31192 0.0
C536 C 0.17625 0.31233 0.28527 0.0
C537 C 0.1973 0.32976 0.34368 0.0
C538 C 0.17865 0.31441 0.34632 0.0
C539 C 0.15006 0.28916 0.3196 0.0
C540 C 0.14018 0.27961 0.2903 0.0
C541 C 0.16815 0.30538 0.31727 0.0
C542 C 0.14805 0.28716 0.25866 0.0
C543 C 0.16586 0.30338 0.25617 0.0
H544 H 0.70724 0.15907 0.24731 0.0
H545 H 0.69287 0.14111 0.35061 0.0
H546 H 0.66364 0.17178 0.35385 0.0
H547 H 0.64128 0.20286 0.32659 0.0
H548 H 0.65611 0.22013 0.22306 0.0
H549 H 0.68606 0.19052 0.22089 0.0
C550 C 0.69779 0.16182 0.27063 0.0
C551 C 0.70218 0.14768 0.29858 0.0
C552 C 0.68101 0.17935 0.27229 0.0
C553 C 0.68983 0.1517 0.32864 0.0
C554 C 0.67308 0.16921 0.33051 0.0
C555 C 0.65112 0.20022 0.3036 0.0
C556 C 0.64628 0.21368 0.27501 0.0
C557 C 0.66839 0.18302 0.30238 0.0
C558 C 0.65929 0.21001 0.24545 0.0
C559 C 0.67648 0.19306 0.24412 0.0
H560 H 0.77001 0.66337 0.2467 0.0
H561 H 0.78375 0.64454 0.34979 0.0
H562 H 0.8139 0.67422 0.35315 0.0
H563 H 0.83703 0.70484 0.32627 0.0
H564 H 0.82298 0.72312 0.22298 0.0
H565 H 0.79224 0.69431 0.22047 0.0
C566 C 0.77955 0.6657 0.26997 0.0
C567 C 0.77466 0.65163 0.29786 0.0
C568 C 0.79685 0.68271 0.27174 0.0
C569 C 0.78716 0.65508 0.32785 0.0
C570 C 0.80442 0.67205 0.32982 0.0
C571 C 0.82718 0.70261 0.30326 0.0
C572 C 0.83245 0.7161 0.27485 0.0
C573 C 0.80951 0.68588 0.30183 0.0
C574 C 0.81946 0.71295 0.24524 0.0
C575 C 0.80183 0.69645 0.24372 0.0
H576 H 0.68694 0.83744 0.75945 0.0
H577 H 0.70272 0.83339 0.86539 0.0
H578 H 0.67284 0.80358 0.87234 0.0
H579 H 0.64473 0.77623 0.84691 0.0
H580 H 0.63069 0.78026 0.74033 0.0
H581 H 0.65749 0.81255 0.73517 0.0
C582 C 0.68381 0.83018 0.78418 0.0
C583 C 0.69727 0.83739 0.81175 0.0
C584 C 0.66704 0.8129 0.78783 0.0
C585 C 0.69266 0.82807 0.84369 0.0
C586 C 0.67566 0.81095 0.84764 0.0
C587 C 0.64736 0.78436 0.82267 0.0
C588 C 0.63595 0.77562 0.79399 0.0
C589 C 0.66312 0.80285 0.81969 0.0
C590 C 0.63949 0.78639 0.76274 0.0
C591 C 0.65478 0.80491 0.75972 0.0
H592 H 0.14563 0.70887 0.75696 0.0
H593 H 0.13545 0.70637 0.86462 0.0
H594 H 0.16465 0.67582 0.86876 0.0
H595 H 0.19273 0.64963 0.8417 0.0
H596 H 0.20235 0.65224 0.7339 0.0
H597 H 0.17358 0.68301 0.7301 0.0
C598 C 0.14978 0.70174 0.78142 0.0
C599 C 0.13833 0.70994 0.81042 0.0
C600 C 0.16644 0.68416 0.78362 0.0
C601 C 0.14397 0.70039 0.84184 0.0
C602 C 0.16066 0.68291 0.84425 0.0
C603 C 0.18857 0.65692 0.81736 0.0
C604 C 0.19971 0.64857 0.78815 0.0
C605 C 0.17195 0.67462 0.81527 0.0
C606 C 0.19405 0.65825 0.75682 0.0
C607 C 0.1776 0.67589 0.75458 0.0
H608 H 0.341 0.21017 0.75335 0.0
H609 H 0.34353 0.21133 0.86194 0.0
H610 H 0.31703 0.1782 0.86392 0.0
H611 H 0.29262 0.14944 0.83464 0.0
H612 H 0.29087 0.14869 0.72588 0.0
H613 H 0.31774 0.18114 0.72434 0.0
C614 C 0.33576 0.20328 0.77754 0.0
C615 C 0.34413 0.21334 0.80745 0.0
C616 C 0.3207 0.18426 0.77849 0.0
C617 C 0.33732 0.20394 0.8385 0.0
C618 C 0.32217 0.18501 0.83966 0.0
C619 C 0.29818 0.15629 0.81059 0.0
C620 C 0.28961 0.14661 0.78045 0.0
C621 C 0.31369 0.17508 0.80978 0.0
C622 C 0.2971 0.15573 0.74952 0.0
C623 C 0.31246 0.17436 0.74855 0.0
H624 H 0.83976 0.28168 0.84185 0.0
H625 H 0.84742 0.28497 0.73373 0.0
H626 H 0.81637 0.31333 0.73084 0.0
H627 H 0.78614 0.33583 0.75808 0.0
H628 H 0.77738 0.33297 0.86591 0.0
H629 H 0.80998 0.30589 0.86975 0.0
C630 C 0.83476 0.28873 0.81769 0.0
C631 C 0.84584 0.28102 0.78805 0.0
C632 C 0.81667 0.30502 0.81607 0.0
C633 C 0.83912 0.29039 0.75696 0.0
C634 C 0.82135 0.30665 0.75522 0.0
C635 C 0.79129 0.32936 0.78253 0.0
C636 C 0.77917 0.33627 0.81162 0.0
C637 C 0.80983 0.31382 0.78451 0.0
C638 C 0.78636 0.32788 0.84307 0.0
C639 C 0.80497 0.31237 0.84528 0.0
H640 H 0.62854 0.18343 0.73794 0.0
H641 H 0.64424 0.20007 0.63469 0.0
H642 H 0.67384 0.16953 0.63325 0.0
H643 H 0.69841 0.14144 0.664 0.0
H644 H 0.68297 0.12696 0.76814 0.0
H645 H 0.65 0.15323 0.76647 0.0
C646 C 0.63827 0.18028 0.71496 0.0
C647 C 0.63452 0.19425 0.68669 0.0
C648 C 0.65543 0.16316 0.71458 0.0
C649 C 0.64691 0.18961 0.6569 0.0
C650 C 0.66391 0.17224 0.65613 0.0
C651 C 0.68752 0.14374 0.68605 0.0
C652 C 0.69328 0.13256 0.71628 0.0
C653 C 0.6688 0.15938 0.68519 0.0
C654 C 0.67909 0.13567 0.74473 0.0
C655 C 0.66022 0.15067 0.74382 0.0
H656 H 0.78354 0.63717 0.66361 0.0
H657 H 0.7846 0.63003 0.77181 0.0
H658 H 0.81573 0.65827 0.77572 0.0
H659 H 0.84132 0.6861 0.74932 0.0
H660 H 0.8406 0.69457 0.64144 0.0
H661 H 0.81076 0.6645 0.63659 0.0
C662 C 0.79072 0.64166 0.68799 0.0
C663 C 0.78158 0.63158 0.71737 0.0
C664 C 0.8086 0.65819 0.69021 0.0
C665 C 0.7911 0.63763 0.74878 0.0
C666 C 0.80895 0.65379 0.7511 0.0
C667 C 0.83475 0.68142 0.72464 0.0
C668 C 0.84309 0.69275 0.69583 0.0
C669 C 0.81758 0.66438 0.72208 0.0
C670 C 0.83445 0.68619 0.66409 0.0
C671 C 0.81736 0.66903 0.6613 0.0
H672 H 0.28705 0.83391 0.68446 0.0
H673 H 0.28633 0.833 0.79324 0.0
H674 H 0.31455 0.80172 0.79312 0.0
H675 H 0.3387 0.77417 0.76274 0.0
H676 H 0.3401 0.77435 0.65409 0.0
H677 H 0.31238 0.80651 0.6537 0.0
C678 C 0.2931 0.82692 0.70814 0.0
C679 C 0.28444 0.83581 0.73879 0.0
C680 C 0.30942 0.8088 0.70799 0.0
C681 C 0.29259 0.82655 0.76923 0.0
C682 C 0.30875 0.80861 0.76925 0.0
C683 C 0.33301 0.78118 0.73887 0.0
C684 C 0.3414 0.77174 0.70849 0.0
C685 C 0.31715 0.79954 0.73883 0.0
C686 C 0.33391 0.78126 0.67788 0.0
C687 C 0.31803 0.79962 0.67763 0.0
H688 H 0.1482 0.28671 0.67722 0.0
H689 H 0.15241 0.27121 0.78332 0.0
H690 H 0.18152 0.30124 0.79075 0.0
H691 H 0.2054 0.33215 0.7678 0.0
H692 H 0.20169 0.34817 0.66192 0.0
H693 H 0.1728 0.31765 0.6539 0.0
C694 C 0.15552 0.28985 0.70195 0.0
C695 C 0.148 0.2767 0.72962 0.0
C696 C 0.17232 0.30727 0.70619 0.0
C697 C 0.15774 0.28105 0.7615 0.0
C698 C 0.17443 0.29826 0.76586 0.0
C699 C 0.19831 0.32904 0.74292 0.0
C700 C 0.20569 0.34252 0.71557 0.0
C701 C 0.18176 0.31152 0.73845 0.0
C702 C 0.19634 0.33809 0.68349 0.0
C703 C 0.17979 0.32063 0.67885 0.0
H704 H 0.25219 0.12016 0.05034 0.0
H705 H 0.23894 0.04813 0.07273 0.0
H706 H 0.24276 0.03813 0.01327 0.0
H707 H 0.24609 0.05034 0.95433 0.0
H708 H 0.25923 0.12238 0.93189 0.0
H709 H 0.25946 0.13173 0.99183 0.0
C710 C 0.25042 0.10223 0.0423 0.0
C711 C 0.24497 0.08501 0.06602 0.0
C712 C 0.25246 0.09657 0.00794 0.0
C713 C 0.24298 0.06181 0.05509 0.0
C714 C 0.24509 0.05605 0.02101 0.0
C715 C 0.24929 0.06804 0.96253 0.0
C716 C 0.25233 0.08565 0.93853 0.0
C717 C 0.24924 0.07337 0.99711 0.0
C718 C 0.25669 0.10846 0.94971 0.0
C719 C 0.25676 0.11387 0.98405 0.0
H720 H 0.94218 0.22188 0.95698 0.0
H721 H 0.87521 0.25397 0.94412 0.0
H722 H 0.87018 0.25596 1.00521 0.0
H723 H 0.88378 0.24615 0.06236 0.0
H724 H 0.95081 0.21384 0.07423 0.0
H725 H 0.95676 0.21445 0.01361 0.0
C726 C 0.92655 0.22951 0.96747 0.0
C727 C 0.90904 0.23759 0.94589 0.0
C728 C 0.92368 0.23042 1.00256 0.0
C729 C 0.88898 0.24757 0.96006 0.0
C730 C 0.88604 0.24863 0.99504 0.0
C731 C 0.89976 0.23941 0.0517 0.0
C732 C 0.91672 0.22979 0.07296 0.0
C733 C 0.90311 0.23973 0.01656 0.0
C734 C 0.93737 0.22125 0.05862 0.0
C735 C 0.94082 0.22156 0.02386 0.0
H736 H 0.73147 0.8912 0.95324 0.0
H737 H 0.79076 0.93669 0.9456 0.0
H738 H 0.79031 0.94282 1.00613 0.0
H739 H 0.7748 0.93381 0.06169 0.0
H740 H 0.71558 0.88859 0.07097 0.0
H741 H 0.71413 0.88413 0.00961 0.0
C742 C 0.74416 0.90259 0.9648 0.0
C743 C 0.76124 0.91329 0.94465 0.0
C744 C 0.74387 0.90612 1.00005 0.0
C745 C 0.77748 0.92808 0.96022 0.0
C746 C 0.77727 0.93163 0.99499 0.0
C747 C 0.76141 0.92311 0.05038 0.0
C748 C 0.74542 0.91144 0.07106 0.0
C749 C 0.76079 0.92051 0.01519 0.0
C750 C 0.72811 0.89781 0.05575 0.0
C751 C 0.72735 0.89516 0.02062 0.0
H752 H 0.08869 0.72934 0.95684 0.0
H753 H 0.01812 0.75424 0.95303 0.0
H754 H 0.01458 0.75001 0.01373 0.0
H755 H 0.03237 0.74251 0.06846 0.0
H756 H 0.1029 0.71782 0.07318 0.0
H757 H 0.10542 0.71836 0.01174 0.0
C758 C 0.07245 0.73359 0.96923 0.0
C759 C 0.0538 0.74238 0.95027 0.0
C760 C 0.07051 0.73123 1.00443 0.0
C761 C 0.03285 0.74762 0.96685 0.0
C762 C 0.03078 0.74523 1.00167 0.0
C763 C 0.04823 0.73696 0.0561 0.0
C764 C 0.06748 0.73036 0.07553 0.0
C765 C 0.04964 0.73755 0.02079 0.0
C766 C 0.0878 0.72302 0.05895 0.0
C767 C 0.0893 0.72345 0.02375 0.0
H768 H 0.24202 0.87644 0.46876 0.0
H769 H 0.22653 0.94939 0.45867 0.0
H770 H 0.23138 0.955 0.51903 0.0
H771 H 0.23645 0.93872 0.57529 0.0
H772 H 0.25122 0.86571 0.58617 0.0
H773 H 0.25049 0.86073 0.52507 0.0
C774 C 0.24005 0.89362 0.47969 0.0
C775 C 0.23366 0.9124 0.45915 0.0
C776 C 0.24257 0.89673 0.5147 0.0
C777 C 0.23123 0.93455 0.47382 0.0
C778 C 0.23397 0.93781 0.50842 0.0
C779 C 0.23978 0.92175 0.56435 0.0
C780 C 0.24362 0.9026 0.58541 0.0
C781 C 0.23906 0.91893 0.52921 0.0
C782 C 0.24809 0.88077 0.57065 0.0
C783 C 0.24761 0.87788 0.53565 0.0
H784 H 0.0415 0.2476 0.56083 0.0
H785 H 0.11559 0.25677 0.56816 0.0
H786 H 0.11842 0.25922 0.50692 0.0
H787 H 0.10036 0.25455 0.45109 0.0
H788 H 0.02632 0.24451 0.44434 0.0
H789 H 0.02303 0.24683 0.5054 0.0
C790 C 0.05826 0.25044 0.54912 0.0
C791 C 0.07832 0.2517 0.56914 0.0
C792 C 0.05982 0.2515 0.51387 0.0
C793 C 0.09985 0.25561 0.55343 0.0
C794 C 0.10151 0.25692 0.51835 0.0
C795 C 0.08345 0.25324 0.46293 0.0
C796 C 0.06366 0.24906 0.44306 0.0
C797 C 0.08168 0.25425 0.49826 0.0
C798 C 0.0419 0.2475 0.45892 0.0
C799 C 0.03998 0.24878 0.49392 0.0
H800 H 0.71998 0.11115 0.5576 0.0
H801 H 0.75185 0.04603 0.58422 0.0
H802 H 0.75371 0.03487 0.5249 0.0
H803 H 0.7494 0.04499 0.46512 0.0
H804 H 0.71705 0.10987 0.43851 0.0
H805 H 0.7121 0.11954 0.49801 0.0
C806 C 0.72709 0.09439 0.55049 0.0
C807 C 0.73598 0.07959 0.57546 0.0
C808 C 0.72816 0.08806 0.51622 0.0
C809 C 0.74492 0.05784 0.56567 0.0
C810 C 0.74609 0.05145 0.53167 0.0
C811 C 0.74101 0.06113 0.47229 0.0
C812 C 0.73385 0.07676 0.44723 0.0
C813 C 0.73824 0.06664 0.50666 0.0
C814 C 0.72281 0.0975 0.45713 0.0
C815 C 0.72004 0.10311 0.49122 0.0
H816 H 0.88524 0.73167 0.54609 0.0
H817 H 0.95558 0.75631 0.55666 0.0
H818 H 0.95989 0.75736 0.4958 0.0
H819 H 0.94309 0.75406 0.43955 0.0
H820 H 0.87285 0.72965 0.42781 0.0
H821 H 0.86928 0.72547 0.48886 0.0
C822 C 0.90158 0.73703 0.53508 0.0
C823 C 0.91997 0.74412 0.55614 0.0
C824 C 0.90399 0.73773 0.49973 0.0
C825 C 0.94105 0.75092 0.54128 0.0
C826 C 0.94356 0.75155 0.50636 0.0
C827 C 0.92704 0.7476 0.45024 0.0
C828 C 0.90822 0.74238 0.42901 0.0
C829 C 0.92504 0.74543 0.48535 0.0
C830 C 0.88764 0.73384 0.44345 0.0
C831 C 0.88554 0.73154 0.47844 0.0
H832 H 0.76015 0.6285 0.55728 0.0
H833 H 0.74728 0.55482 0.56294 0.0
H834 H 0.74862 0.55186 0.50163 0.0
H835 H 0.74871 0.57106 0.44635 0.0
H836 H 0.76034 0.64499 0.44139 0.0
H837 H 0.76445 0.64687 0.50233 0.0
C838 C 0.75797 0.61171 0.54518 0.0
C839 C 0.75327 0.592 0.56472 0.0
C840 C 0.75834 0.61019 0.50992 0.0
C841 C 0.75075 0.57034 0.54855 0.0
C842 C 0.75142 0.56863 0.51344 0.0
C843 C 0.75257 0.5875 0.45855 0.0
C844 C 0.75388 0.6079 0.43934 0.0
C845 C 0.75449 0.58857 0.49383 0.0
C846 C 0.75895 0.62906 0.45557 0.0
C847 C 0.76128 0.63018 0.49048 0.0
H848 H 0.44834 0.7316 0.45323 0.0
H849 H 0.38038 0.76266 0.44633 0.0
H850 H 0.37754 0.76407 0.50747 0.0
H851 H 0.39207 0.75184 0.56235 0.0
H852 H 0.45954 0.71981 0.56947 0.0
H853 H 0.46494 0.72374 0.50886 0.0
C854 C 0.43309 0.73906 0.46508 0.0
C855 C 0.41444 0.74659 0.44523 0.0
C856 C 0.43135 0.73943 0.50031 0.0
C857 C 0.39488 0.75643 0.46101 0.0
C858 C 0.3932 0.7572 0.496 0.0
C859 C 0.4081 0.746 0.55073 0.0
C860 C 0.42517 0.73514 0.57029 0.0
C861 C 0.41095 0.74798 0.51584 0.0
C862 C 0.44599 0.72801 0.55493 0.0
C863 C 0.44908 0.73018 0.52024 0.0
H864 H 0.24218 0.40636 0.45945 0.0
H865 H 0.23494 0.33174 0.45705 0.0
H866 H 0.23012 0.33126 0.51794 0.0
H867 H 0.23225 0.35141 0.57212 0.0
H868 H 0.24036 0.42588 0.57512 0.0
H869 H 0.24016 0.42704 0.51369 0.0
C870 C 0.23925 0.39002 0.4722 0.0
C871 C 0.23933 0.36909 0.45378 0.0
C872 C 0.23677 0.38981 0.50733 0.0
C873 C 0.23524 0.3481 0.47064 0.0
C874 C 0.23251 0.34778 0.50549 0.0
C875 C 0.2337 0.36794 0.55937 0.0
C876 C 0.23671 0.38846 0.57814 0.0
C877 C 0.23393 0.36844 0.52414 0.0
C878 C 0.23819 0.40979 0.56125 0.0
C879 C 0.23818 0.41046 0.52611 0.0
H880 H 0.59025 0.23027 0.54039 0.0
H881 H 0.52343 0.26312 0.55249 0.0
H882 H 0.51772 0.26232 0.49179 0.0
H883 H 0.53316 0.25576 0.43508 0.0
H884 H 0.60008 0.2233 0.42241 0.0
H885 H 0.60405 0.22015 0.4834 0.0
C886 C 0.57433 0.23701 0.52979 0.0
C887 C 0.55745 0.24704 0.55105 0.0
C888 C 0.57117 0.23665 0.49468 0.0
C889 C 0.53682 0.25549 0.53682 0.0
C890 C 0.53353 0.25507 0.50203 0.0
C891 C 0.54849 0.2477 0.44559 0.0
C892 C 0.5664 0.24006 0.42414 0.0
C893 C 0.55081 0.24622 0.48069 0.0
C894 C 0.58604 0.22943 0.43827 0.0
C895 C 0.58839 0.22773 0.47321 0.0
H896 H 0.74837 0.38651 0.95783 0.0
H897 H 0.71294 0.45172 0.94333 0.0
H898 H 0.7159 0.46034 1.00319 0.0
H899 H 0.72531 0.44797 0.0603 0.0
H900 H 0.76062 0.38287 0.07568 0.0
H901 H 0.76134 0.37589 0.01493 0.0
C902 C 0.7415 0.4027 0.96772 0.0
C903 C 0.73016 0.41827 0.94607 0.0
C904 C 0.74321 0.40761 1.0024 0.0
C905 C 0.72159 0.43929 0.95933 0.0
C906 C 0.72325 0.44427 0.99364 0.0
C907 C 0.73347 0.43239 0.05039 0.0
C908 C 0.74265 0.41587 0.07259 0.0
C909 C 0.73356 0.42834 0.01551 0.0
C910 C 0.75338 0.39589 0.05921 0.0
C911 C 0.75365 0.3918 0.02444 0.0
H912 H 0.53409 0.73595 0.057 0.0
H913 H 0.60584 0.7555 0.06946 0.0
H914 H 0.61069 0.7571 0.00852 0.0
H915 H 0.59589 0.74818 0.95197 0.0
H916 H 0.5244 0.72754 0.93988 0.0
H917 H 0.51815 0.73136 1.00031 0.0
C918 C 0.5507 0.74093 0.04644 0.0
C919 C 0.56965 0.74521 0.06779 0.0
C920 C 0.55352 0.74138 0.01137 0.0
C921 C 0.59099 0.75189 0.05363 0.0
C922 C 0.59383 0.75273 0.01874 0.0
C923 C 0.57885 0.74485 0.96248 0.0
C924 C 0.56077 0.7372 0.94146 0.0
C925 C 0.57542 0.74674 0.99739 0.0
C926 C 0.53873 0.73318 0.95549 0.0
C927 C 0.53512 0.73533 0.99009 0.0
H928 H 0.22216 0.6157 0.05907 0.0
H929 H 0.24298 0.545 0.07817 0.0
H930 H 0.23888 0.53557 0.01861 0.0
H931 H 0.23409 0.54857 0.96047 0.0
H932 H 0.21435 0.61955 0.94118 0.0
H933 H 0.21295 0.62752 1.00147 0.0
C934 C 0.22551 0.59815 0.05029 0.0
C935 C 0.23328 0.58123 0.07294 0.0
C936 C 0.22344 0.59289 0.01592 0.0
C937 C 0.23724 0.55847 0.06122 0.0
C938 C 0.23494 0.55304 0.02712 0.0
C939 C 0.22909 0.56567 0.96943 0.0
C940 C 0.22476 0.58352 0.94633 0.0
C941 C 0.22876 0.57029 1.00412 0.0
C942 C 0.21805 0.60553 0.95841 0.0
C943 C 0.21732 0.61016 0.9929 0.0
H944 H 0.39695 0.23016 0.94993 0.0
H945 H 0.46312 0.26512 0.94653 0.0
H946 H 0.46763 0.26002 0.00703 0.0
H947 H 0.45084 0.24955 0.06165 0.0
H948 H 0.38437 0.21516 0.06517 0.0
H949 H 0.38215 0.21584 1.00391 0.0
C950 C 0.41251 0.2364 0.96233 0.0
C951 C 0.42949 0.24833 0.94376 0.0
C952 C 0.4149 0.23364 0.99724 0.0
C953 C 0.44966 0.25605 0.9602 0.0
C954 C 0.45224 0.2532 0.99486 0.0
C955 C 0.43602 0.24189 0.04903 0.0
C956 C 0.41765 0.23265 0.06806 0.0
C957 C 0.43467 0.24262 0.01377 0.0
C958 C 0.3987 0.22257 0.05121 0.0
C959 C 0.39735 0.22302 0.01614 0.0
H960 H 0.2429 0.03018 0.29066 0.0
H961 H 0.24421 0.01019 0.18571 0.0
H962 H 0.2481 0.96952 0.20154 0.0
H963 H 0.2432 0.9398 0.24461 0.0
H964 H 0.23883 0.95973 0.34936 0.0
H965 H 0.24459 0.00035 0.33415 0.0
C966 C 0.24447 0.01699 0.27118 0.0
C967 C 0.24254 0.02313 0.23705 0.0
C968 C 0.24589 -0.00637 0.28044 0.0
C969 C 0.24527 0.00591 0.21216 0.0
C970 C 0.24736 0.98263 0.2212 0.0
C971 C 0.24394 0.95298 0.26421 0.0
C972 C 0.2399 0.94689 0.29797 0.0
C973 C 0.24643 0.97628 0.2552 0.0
C974 C 0.24158 0.96401 0.32315 0.0
C975 C 0.24471 0.98725 0.31444 0.0
H976 H 0.94566 0.26928 0.28209 0.0
H977 H 0.95954 0.26011 0.17597 0.0
H978 H 0.00103 0.26378 0.18648 0.0
H979 H 0.03283 0.26062 0.22677 0.0
H980 H 0.01871 0.26587 0.33335 0.0
H981 H 0.97787 0.27313 0.32157 0.0
C982 C 0.95768 0.26862 0.26108 0.0
C983 C 0.94953 0.26364 0.22843 0.0
C984 C 0.98153 0.26964 0.26749 0.0
C985 C 0.96533 0.26351 0.20144 0.0
C986 C 0.9891 0.26543 0.20747 0.0
C987 C 0.02094 0.26383 0.24748 0.0
C988 C 0.02869 0.26194 0.28094 0.0
C989 C -0.00264 0.26705 0.24059 0.0
C990 C 0.01317 0.26679 0.30737 0.0
C991 C 0.98976 0.27084 0.30065 0.0
H992 H 0.70289 0.0199 0.31661 0.0
H993 H 0.70319 0.04757 0.21591 0.0
H994 H 0.69729 0.00897 0.19259 0.0
H995 H 0.70264 0.96697 0.20052 0.0
H996 H 0.7007 0.93937 0.30125 0.0
H997 H 0.69596 0.97815 0.32442 0.0
C998 C 0.70076 0.01765 0.28967 0.0
C999 C 0.70468 0.03643 0.26807 0.0
C1000 C 0.69758 -0.00475 0.27618 0.0
C1001 C 0.70116 0.03325 0.23321 0.0
C1002 C 0.69785 0.01111 0.2197 0.0
C1003 C 0.70034 0.96932 0.22742 0.0
C1004 C 0.70324 0.9504 0.24909 0.0
C1005 C 0.69775 -0.00818 0.24085 0.0
C1006 C 0.69946 0.95373 0.28389 0.0
C1007 C 0.69678 0.97598 0.29733 0.0
H1008 H 0.01522 0.70826 0.19519 0.0
H1009 H 0.03714 0.70348 0.29868 0.0
H1010 H -0.00304 0.70145 0.31711 0.0
H1011 H 0.95665 0.71203 0.30474 0.0
H1012 H 0.93485 0.71746 0.20121 0.0
H1013 H 0.97369 0.70763 0.1821 0.0
C1014 C 0.01126 0.70584 0.22163 0.0
C1015 C 0.02906 0.7071 0.2456 0.0
C1016 C 0.98804 0.70536 0.23225 0.0
C1017 C 0.02366 0.70336 0.27973 0.0
C1018 C 0.00064 0.70231 0.29039 0.0
C1019 C 0.96016 0.71028 0.27802 0.0
C1020 C 0.94317 0.71657 0.25454 0.0
C1021 C 0.98274 0.70509 0.26706 0.0
C1022 C 0.94786 0.71354 0.21996 0.0
C1023 C 0.97013 0.70795 0.2089 0.0
H1024 H 0.73091 0.96105 0.8257 0.0
H1025 H 0.71391 0.9356 0.72635 0.0
H1026 H 0.71095 0.97515 0.7058 0.0
H1027 H 0.72038 0.01643 0.71358 0.0
H1028 H 0.73702 0.04171 0.81324 0.0
H1029 H 0.73259 0.00298 0.83585 0.0
C1030 C 0.72587 0.96414 0.79983 0.0
C1031 C 0.72341 0.94539 0.77743 0.0
C1032 C 0.72458 0.98698 0.78788 0.0
C1033 C 0.71651 0.94974 0.74404 0.0
C1034 C 0.71489 0.97239 0.73213 0.0
C1035 C 0.72261 0.01355 0.74032 0.0
C1036 C 0.72972 0.03187 0.76132 0.0
C1037 C 0.72013 -0.00891 0.75339 0.0
C1038 C 0.732 0.02789 0.79615 0.0
C1039 C 0.72949 0.00568 0.80927 0.0
H1040 H 0.9472 0.70358 0.76844 0.0
H1041 H 0.96784 0.71635 0.66568 0.0
H1042 H 0.00854 0.71402 0.68207 0.0
H1043 H 0.0369 0.71867 0.72717 0.0
H1044 H 0.01542 0.71209 0.8309 0.0
H1045 H 0.97648 0.70134 0.81253 0.0
C1046 C 0.96058 0.7053 0.74938 0.0
C1047 C 0.95449 0.71103 0.71609 0.0
C1048 C 0.98382 0.70558 0.7594 0.0
C1049 C 0.972 0.71237 0.69158 0.0
C1050 C -0.00469 0.71129 0.70104 0.0
C1051 C 0.02389 0.71442 0.74587 0.0
C1052 C 0.02887 0.71701 0.78045 0.0
C1053 C 0.00127 0.70957 0.7352 0.0
C1054 C 0.01196 0.71072 0.80418 0.0
C1055 C 0.98964 0.70469 0.79367 0.0
H1056 H 0.27657 0.94904 0.79569 0.0
H1057 H 0.27464 0.95555 0.6875 0.0
H1058 H 0.28233 -0.00296 0.69264 0.0
H1059 H 0.27994 0.03191 0.72783 0.0
H1060 H 0.27748 0.0256 0.83602 0.0
H1061 H 0.28189 0.98362 0.83085 0.0
C1062 C 0.27838 0.95939 0.77313 0.0
C1063 C 0.27419 0.94933 0.7413 0.0
C1064 C 0.28171 0.98339 0.77632 0.0
C1065 C 0.27729 0.96289 0.71236 0.0
C1066 C 0.28156 0.98668 0.71529 0.0
C1067 C 0.28096 0.02146 0.75038 0.0
C1068 C 0.27752 0.03182 0.78222 0.0
C1069 C 0.28228 -0.00274 0.74717 0.0
C1070 C 0.27961 0.01807 0.81116 0.0
C1071 C 0.28194 -0.00599 0.80821 0.0
H1072 H 0.95313 0.27235 0.73272 0.0
H1073 H 0.96786 0.2643 0.8385 0.0
H1074 H 0.00902 0.27064 0.82753 0.0
H1075 H 0.04067 0.26802 0.78668 0.0
H1076 H 0.02581 0.27082 0.68031 0.0
H1077 H 0.98492 0.27767 0.69276 0.0
C1078 C 0.96525 0.27254 0.75356 0.0
C1079 C 0.95758 0.26695 0.78621 0.0
C1080 C 0.98896 0.2749 0.74681 0.0
C1081 C 0.97336 0.26808 0.81304 0.0
C1082 C -0.00306 0.27152 0.80672 0.0
C1083 C 0.02861 0.2707 0.76616 0.0
C1084 C 0.03611 0.26799 0.73259 0.0
C1085 C 0.00499 0.2733 0.77347 0.0
C1086 C 0.02043 0.27233 0.70637 0.0
C1087 C -0.00301 0.27606 0.71349 0.0
H1088 H 0.75721 0.52797 0.78495 0.0
H1089 H 0.75926 0.51049 0.67911 0.0
H1090 H 0.76396 0.46956 0.69295 0.0
H1091 H 0.75898 0.43878 0.7344 0.0
H1092 H 0.75327 0.4563 0.83997 0.0
H1093 H 0.75901 0.49721 0.82689 0.0
C1094 C 0.75915 0.51529 0.76484 0.0
C1095 C 0.75711 0.52219 0.73104 0.0
C1096 C 0.76088 0.49175 0.77294 0.0
C1097 C 0.76035 0.50562 0.70535 0.0
C1098 C 0.7629 0.48218 0.71324 0.0
C1099 C 0.75945 0.45146 0.75469 0.0
C1100 C 0.75494 0.44457 0.78801 0.0
C1101 C 0.76182 0.475 0.74688 0.0
C1102 C 0.75627 0.46115 0.81403 0.0
C1103 C 0.75943 0.48458 0.80655 0.0
H1104 H 0.5339 0.75168 0.73128 0.0
H1105 H 0.51821 0.74593 0.83721 0.0
H1106 H 0.4771 0.75129 0.82547 0.0
H1107 H 0.44567 0.74903 0.78436 0.0
H1108 H 0.46146 0.75207 0.67815 0.0
H1109 H 0.50245 0.75697 0.69091 0.0
C1110 C 0.52155 0.75207 0.7519 0.0
C1111 C 0.52898 0.74762 0.7849 0.0
C1112 C 0.49791 0.75442 0.74489 0.0
C1113 C 0.51289 0.74889 0.81147 0.0
C1114 C 0.48935 0.75184 0.80477 0.0
C1115 C 0.45799 0.75129 0.76398 0.0
C1116 C 0.45062 0.74933 0.73036 0.0
C1117 C 0.48161 0.75327 0.77142 0.0
C1118 C 0.46671 0.75299 0.70428 0.0
C1119 C 0.4902 0.75568 0.71153 0.0
H1120 H 0.21226 0.45171 0.79634 0.0
H1121 H 0.20828 0.46274 0.68909 0.0
H1122 H 0.20001 0.50367 0.69862 0.0
H1123 H 0.20444 0.53713 0.73629 0.0
H1124 H 0.21114 0.52638 0.84322 0.0
H1125 H 0.20701 0.48465 0.83496 0.0
C1126 C 0.20892 0.4629 0.77504 0.0
C1127 C 0.21192 0.45438 0.74205 0.0
C1128 C 0.20498 0.48662 0.78062 0.0
C1129 C 0.20678 0.46896 0.71478 0.0
C1130 C 0.20212 0.49244 0.72018 0.0
C1131 C 0.20428 0.52571 0.7579 0.0
C1132 C 0.20904 0.53472 0.79011 0.0
C1133 C 0.20285 0.50168 0.75285 0.0
C1134 C 0.208 0.51986 0.81802 0.0
C1135 C 0.20585 0.49592 0.81329 0.0
H1136 H 0.44366 0.23545 0.72188 0.0
H1137 H 0.46392 0.22599 0.82552 0.0
H1138 H 0.5031 0.21596 0.80746 0.0
H1139 H 0.53284 0.21788 0.76378 0.0
H1140 H 0.5133 0.23103 0.66081 0.0
H1141 H 0.47245 0.23084 0.67701 0.0
C1142 C 0.45649 0.23077 0.74057 0.0
C1143 C 0.45103 0.23218 0.7751 0.0
C1144 C 0.47918 0.22584 0.73011 0.0
C1145 C 0.46774 0.22549 0.79883 0.0
C1146 C 0.49019 0.21981 0.78852 0.0
C1147 C 0.51965 0.22019 0.74468 0.0
C1148 C 0.52614 0.2252 0.71133 0.0
C1149 C 0.49634 0.22117 0.75442 0.0
C1150 C 0.50882 0.22748 0.68675 0.0
C1151 C 0.48545 0.22759 0.69607 0.0
H1152 H 0.23168 0.52881 0.29551 0.0
H1153 H 0.22617 0.51291 0.18942 0.0
H1154 H 0.22183 0.47185 0.20218 0.0
H1155 H 0.22751 0.44034 0.24223 0.0
H1156 H 0.23543 0.45612 0.34798 0.0
H1157 H 0.23036 0.49733 0.33654 0.0
C1158 C 0.22902 0.51647 0.27516 0.0
C1159 C 0.23001 0.52387 0.24151 0.0
C1160 C 0.22726 0.49278 0.28257 0.0
C1161 C 0.22597 0.50767 0.21555 0.0
C1162 C 0.22357 0.48413 0.2228 0.0
C1163 C 0.22767 0.45272 0.26291 0.0
C1164 C 0.23257 0.44522 0.29575 0.0
C1165 C 0.22547 0.47643 0.25605 0.0
C1166 C 0.23208 0.46143 0.32235 0.0
C1167 C 0.22931 0.48505 0.31582 0.0
H1168 H 0.52204 0.21299 0.29717 0.0
H1169 H 0.54412 0.22229 0.19423 0.0
H1170 H 0.50551 0.21231 0.17441 0.0
H1171 H 0.46402 0.21031 0.18714 0.0
H1172 H 0.44162 0.20261 0.29021 0.0
H1173 H 0.48179 0.20184 0.30882 0.0
C1174 C 0.51862 0.21217 0.27036 0.0
C1175 C 0.53572 0.21925 0.24736 0.0
C1176 C 0.49615 0.207 0.25906 0.0
C1177 C 0.5311 0.21757 0.21264 0.0
C1178 C 0.50897 0.2119 0.2012 0.0
C1179 C 0.46789 0.20767 0.21355 0.0
C1180 C 0.44983 0.20742 0.23734 0.0
C1181 C 0.49104 0.20803 0.22429 0.0
C1182 C 0.4552 0.2035 0.27138 0.0
C1183 C 0.4782 0.20317 0.28214 0.0
H1184 H 0.76635 0.52484 0.31497 0.0
H1185 H 0.7659 0.55089 0.21336 0.0
H1186 H 0.77103 0.51173 0.19133 0.0
H1187 H 0.76547 0.47001 0.20075 0.0
H1188 H 0.76461 0.44405 0.30239 0.0
H1189 H 0.77078 0.48308 0.32434 0.0
C1190 C 0.76818 0.52209 0.28807 0.0
C1191 C 0.76478 0.54065 0.26587 0.0
C1192 C 0.77045 0.49938 0.27542 0.0
C1193 C 0.76774 0.5368 0.23107 0.0
C1194 C 0.77059 0.51435 0.21836 0.0
C1195 C 0.76745 0.47276 0.22762 0.0
C1196 C 0.76368 0.45431 0.24991 0.0
C1197 C 0.77035 0.4954 0.24023 0.0
C1198 C 0.76675 0.4581 0.28466 0.0
C1199 C 0.77021 0.48046 0.29732 0.0
H1200 H 0.44189 0.76487 0.22616 0.0
H1201 H 0.45672 0.76911 0.33254 0.0
H1202 H 0.49802 0.7717 0.32039 0.0
H1203 H 0.52957 0.76352 0.28074 0.0
H1204 H 0.51475 0.75683 0.17469 0.0
H1205 H 0.47389 0.76493 0.18554 0.0
C1206 C 0.45407 0.767 0.24671 0.0
C1207 C 0.44624 0.76591 0.28025 0.0
C1208 C 0.47788 0.76763 0.23963 0.0
C1209 C 0.46225 0.76935 0.30648 0.0
C1210 C 0.48594 0.77069 0.29958 0.0
C1211 C 0.51749 0.76438 0.25989 0.0
C1212 C 0.52502 0.75884 0.22713 0.0
C1213 C 0.49394 0.76834 0.26641 0.0
C1214 C 0.50934 0.76067 0.20025 0.0
C1215 C 0.48592 0.76515 0.20645 0.0
H1216 H 0.19218 0.13078 0.25805 0.0
H1217 H 0.15204 0.13762 0.16735 0.0
H1218 H 0.12545 0.16427 0.1964 0.0
H1219 H 0.11249 0.18331 0.24851 0.0
H1220 H 0.15328 0.17687 0.33894 0.0
H1221 H 0.18047 0.15149 0.30926 0.0
C1222 C 0.17749 0.13786 0.24475 0.0
C1223 C 0.17369 0.13185 0.21092 0.0
C1224 C 0.16235 0.15298 0.26163 0.0
C1225 C 0.1552 0.142 0.1935 0.0
C1226 C 0.13995 0.15707 0.21014 0.0
C1227 C 0.12747 0.17669 0.26168 0.0
C1228 C 0.13085 0.18211 0.29591 0.0
C1229 C 0.14318 0.16237 0.24436 0.0
C1230 C 0.15022 0.17298 0.31263 0.0
C1231 C 0.16581 0.1585 0.29566 0.0
H1232 H 0.84289 0.15701 0.19807 0.0
H1233 H 0.84794 0.20878 0.27643 0.0
H1234 H 0.82429 0.18496 0.31368 0.0
H1235 H 0.80177 0.1492 0.3239 0.0
H1236 H 0.79785 0.0972 0.24541 0.0
H1237 H 0.8214 0.12115 0.20858 0.0
C1238 C 0.83866 0.16311 0.22323 0.0
C1239 C 0.84726 0.18452 0.23454 0.0
C1240 C 0.82529 0.14918 0.24464 0.0
C1241 C 0.84188 0.19217 0.2673 0.0
C1242 C 0.82825 0.17858 0.28861 0.0
C1243 C 0.80627 0.14307 0.29887 0.0
C1244 C 0.79785 0.12158 0.28734 0.0
C1245 C 0.81995 0.15696 0.27763 0.0
C1246 C 0.80381 0.11385 0.25478 0.0
C1247 C 0.81732 0.12751 0.23363 0.0
H1248 H 0.8281 0.80785 0.31125 0.0
H1249 H 0.88214 0.81566 0.23701 0.0
H1250 H 0.85676 0.8399 0.2029 0.0
H1251 H 0.81902 0.85902 0.19417 0.0
H1252 H 0.76475 0.84971 0.26751 0.0
H1253 H 0.79021 0.82597 0.30181 0.0
C1254 C 0.83436 0.81507 0.28779 0.0
C1255 C 0.85694 0.81012 0.27674 0.0
C1256 C 0.81957 0.82867 0.26803 0.0
C1257 C 0.86476 0.81926 0.24602 0.0
C1258 C 0.85026 0.83307 0.22645 0.0
C1259 C 0.8128 0.85161 0.21754 0.0
C1260 C 0.79028 0.85661 0.22879 0.0
C1261 C 0.82758 0.8378 0.23711 0.0
C1262 C 0.78231 0.8469 0.259 0.0
C1263 C 0.79681 0.83311 0.2785 0.0
H1264 H 0.16591 0.85943 0.26991 0.0
H1265 H 0.16851 0.81396 0.35574 0.0
H1266 H 0.14693 0.78445 0.32431 0.0
H1267 H 0.12785 0.7716 0.27228 0.0
H1268 H 0.12689 0.81636 0.18583 0.0
H1269 H 0.14859 0.84591 0.21725 0.0
C1270 C 0.16219 0.84296 0.28167 0.0
C1271 C 0.16911 0.83884 0.31504 0.0
C1272 C 0.15033 0.82593 0.26323 0.0
C1273 C 0.16343 0.81758 0.33008 0.0
C1274 C 0.15118 0.80067 0.31209 0.0
C1275 C 0.13212 0.78792 0.26049 0.0
C1276 C 0.12539 0.79209 0.22711 0.0
C1277 C 0.14457 0.80468 0.27866 0.0
C1278 C 0.13191 0.81287 0.21157 0.0
C1279 C 0.14414 0.82977 0.22957 0.0
H1280 H 0.82593 0.79353 0.69163 0.0
H1281 H 0.88298 0.7924 0.76164 0.0
H1282 H 0.8604 0.8147 0.80237 0.0
H1283 H 0.82505 0.8364 0.81723 0.0
H1284 H 0.76759 0.83651 0.74818 0.0
H1285 H 0.78946 0.81277 0.70832 0.0
C1286 C 0.83336 0.79821 0.71578 0.0
C1287 C 0.8561 0.79146 0.72347 0.0
C1288 C 0.82019 0.81091 0.73937 0.0
C1289 C 0.86545 0.79737 0.75508 0.0
C1290 C 0.85257 0.81014 0.77846 0.0
C1291 C 0.81725 0.83087 0.79368 0.0
C1292 C 0.79503 0.83874 0.7852 0.0
C1293 C 0.82997 0.81715 0.77082 0.0
C1294 C 0.78504 0.83147 0.75468 0.0
C1295 C 0.79748 0.81771 0.73195 0.0
H1296 H 0.16093 0.84837 0.71247 0.0
H1297 H 0.20673 0.85712 0.79712 0.0
H1298 H 0.18011 0.83525 0.83278 0.0
H1299 H 0.14391 0.81273 0.83946 0.0
H1300 H 0.09761 0.80596 0.75473 0.0
H1301 H 0.12421 0.82787 0.71974 0.0
C1302 C 0.16509 0.84541 0.73872 0.0
C1303 C 0.18572 0.85433 0.75214 0.0
C1304 C 0.14957 0.83312 0.75911 0.0
C1305 C 0.19082 0.85067 0.78626 0.0
C1306 C 0.17563 0.83807 0.80665 0.0
C1307 C 0.13961 0.81622 0.81343 0.0
C1308 C 0.11902 0.80728 0.79961 0.0
C1309 C 0.15493 0.82917 0.79334 0.0
C1310 C 0.1136 0.81211 0.76587 0.0
C1311 C 0.12876 0.82475 0.74578 0.0
H1312 H 0.15652 0.17569 0.6846 0.0
H1313 H 0.10582 0.17941 0.76454 0.0
H1314 H 0.13028 0.15558 0.80013 0.0
H1315 H 0.16646 0.13426 0.80926 0.0
H1316 H 0.21641 0.12872 0.72884 0.0
H1317 H 0.19188 0.15243 0.69271 0.0
C1318 C 0.15078 0.17116 0.70972 0.0
C1319 C 0.12962 0.17979 0.72213 0.0
C1320 C 0.1648 0.15708 0.73001 0.0
C1321 C 0.12231 0.17356 0.75463 0.0
C1322 C 0.13623 0.1598 0.77501 0.0
C1323 C 0.17191 0.13828 0.7838 0.0
C1324 C 0.19306 0.1297 0.7716 0.0
C1325 C 0.15761 0.15169 0.76312 0.0
C1326 C 0.19997 0.13479 0.73855 0.0
C1327 C 0.18602 0.14848 0.71796 0.0
H1328 H 0.82772 0.1885 0.80921 0.0
H1329 H 0.88534 0.17933 0.74106 0.0
H1330 H 0.86092 0.15677 0.70281 0.0
H1331 H 0.82384 0.13694 0.69105 0.0
H1332 H 0.76641 0.14649 0.75919 0.0
H1333 H 0.78984 0.17193 0.79478 0.0
C1334 C 0.8349 0.18156 0.78599 0.0
C1335 C 0.85832 0.18525 0.77817 0.0
C1336 C 0.82073 0.16879 0.764 0.0
C1337 C 0.86733 0.17657 0.74769 0.0
C1338 C 0.85339 0.16371 0.72577 0.0
C1339 C 0.81639 0.14513 0.71322 0.0
C1340 C 0.79366 0.1397 0.7229 0.0
C1341 C 0.83012 0.15944 0.73387 0.0
C1342 C 0.78409 0.15013 0.75176 0.0
C1343 C 0.79746 0.16465 0.7721 0.0
H1344 H 0.69961 0.62558 0.75902 0.0
H1345 H 0.66039 0.63347 0.66763 0.0
H1346 H 0.63298 0.65898 0.69704 0.0
H1347 H 0.61917 0.67688 0.74935 0.0
H1348 H 0.65905 0.66979 0.84052 0.0
H1349 H 0.68706 0.64538 0.81065 0.0
C1350 C 0.68497 0.63265 0.74563 0.0
C1351 C 0.68169 0.62726 0.71146 0.0
C1352 C 0.6694 0.64724 0.76267 0.0
C1353 C 0.66316 0.63735 0.69403 0.0
C1354 C 0.64746 0.65181 0.71085 0.0
C1355 C 0.63412 0.67035 0.76267 0.0
C1356 C 0.63701 0.67527 0.79713 0.0
C1357 C 0.65026 0.6566 0.74528 0.0
C1358 C 0.65639 0.66628 0.814 0.0
C1359 C 0.67242 0.65234 0.79694 0.0
H1360 H 0.28248 0.6249 0.74554 0.0
H1361 H 0.31789 0.63764 0.83936 0.0
H1362 H 0.34767 0.65976 0.80988 0.0
H1363 H 0.36358 0.67502 0.75782 0.0
H1364 H 0.32712 0.66484 0.66417 0.0
H1365 H 0.29792 0.6415 0.6932 0.0
C1366 C 0.29679 0.63233 0.75946 0.0
C1367 C 0.29814 0.62948 0.79448 0.0
C1368 C 0.3136 0.64536 0.74242 0.0
C1369 C 0.31651 0.63967 0.81235 0.0
C1370 C 0.33355 0.65224 0.79553 0.0
C1371 C 0.34913 0.66805 0.74371 0.0
C1372 C 0.3474 0.67196 0.70895 0.0
C1373 C 0.33222 0.6552 0.76062 0.0
C1374 C 0.3288 0.66219 0.69101 0.0
C1375 C 0.3121 0.64887 0.70758 0.0
H1376 H 0.36802 0.31199 0.75927 0.0
H1377 H 0.33396 0.32127 0.85519 0.0
H1378 H 0.30553 0.34705 0.82905 0.0
H1379 H 0.29027 0.36645 0.77853 0.0
H1380 H 0.32346 0.35452 0.68249 0.0
H1381 H 0.35217 0.32977 0.70914 0.0
C1382 C 0.35421 0.31926 0.7745 0.0
C1383 C 0.35297 0.31442 0.80905 0.0
C1384 C 0.33776 0.33356 0.75925 0.0
C1385 C 0.33526 0.32463 0.82846 0.0
C1386 C 0.31899 0.33934 0.81354 0.0
C1387 C 0.30374 0.35844 0.76346 0.0
C1388 C 0.3047 0.36235 0.72858 0.0
C1389 C 0.32005 0.34387 0.77889 0.0
C1390 C 0.32225 0.35171 0.70936 0.0
C1391 C 0.33873 0.3376 0.72457 0.0
H1392 H 0.62322 0.28347 0.75238 0.0
H1393 H 0.64982 0.3125 0.66023 0.0
H1394 H 0.67547 0.33787 0.69265 0.0
H1395 H 0.68853 0.35305 0.74692 0.0
H1396 H 0.6636 0.32255 0.83906 0.0
H1397 H 0.6388 0.29632 0.8066 0.0
C1398 C 0.63474 0.29507 0.73923 0.0
C1399 C 0.63447 0.29606 0.70385 0.0
C1400 C 0.64959 0.3094 0.75801 0.0
C1401 C 0.64967 0.31133 0.68742 0.0
C1402 C 0.66428 0.3259 0.70595 0.0
C1403 C 0.67806 0.34048 0.76006 0.0
C1404 C 0.67805 0.33981 0.79547 0.0
C1405 C 0.66416 0.32526 0.74125 0.0
C1406 C 0.664 0.32345 0.81185 0.0
C1407 C 0.64979 0.30847 0.7933 0.0
H1408 H 0.36202 0.27955 0.26795 0.0
H1409 H 0.3345 0.30186 0.1726 0.0
H1410 H 0.30906 0.32942 0.20172 0.0
H1411 H 0.29555 0.34768 0.25426 0.0
H1412 H 0.3218 0.32347 0.34942 0.0
H1413 H 0.34678 0.29577 0.32019 0.0
C1414 C 0.35027 0.2901 0.25343 0.0
C1415 C 0.35013 0.28851 0.21813 0.0
C1416 C 0.33553 0.30559 0.2703 0.0
C1417 C 0.33492 0.30267 0.19982 0.0
C1418 C 0.3204 0.31846 0.21645 0.0
C1419 C 0.3066 0.33631 0.26864 0.0
C1420 C 0.30684 0.33774 0.30398 0.0
C1421 C 0.32069 0.32016 0.25169 0.0
C1422 C 0.32124 0.32271 0.32219 0.0
C1423 C 0.33558 0.30689 0.30552 0.0
H1424 H 0.61512 0.30527 0.23445 0.0
H1425 H 0.63822 0.32103 0.33526 0.0
H1426 H 0.66563 0.34937 0.31304 0.0
H1427 H 0.68366 0.36854 0.26508 0.0
H1428 H 0.66321 0.35012 0.16403 0.0
H1429 H 0.63405 0.32357 0.18636 0.0
C1430 C 0.62625 0.31462 0.25163 0.0
C1431 C 0.62478 0.31072 0.28645 0.0
C1432 C 0.64244 0.33034 0.23863 0.0
C1433 C 0.63909 0.32354 0.3083 0.0
C1434 C 0.65478 0.33974 0.29563 0.0
C1435 C 0.67299 0.35875 0.24784 0.0
C1436 C 0.67579 0.36128 0.21292 0.0
C1437 C 0.65674 0.3431 0.26082 0.0
C1438 C 0.66154 0.34841 0.19105 0.0
C1439 C 0.64484 0.33325 0.20379 0.0
H1440 H 0.67881 0.61515 0.24949 0.0
H1441 H 0.66895 0.65207 0.34327 0.0
H1442 H 0.64137 0.67814 0.31594 0.0
H1443 H 0.62123 0.69106 0.26483 0.0
H1444 H 0.63342 0.65543 0.17067 0.0
H1445 H 0.65957 0.62841 0.19867 0.0
C1446 C 0.67095 0.62905 0.26397 0.0
C1447 C 0.67622 0.63185 0.29826 0.0
C1448 C 0.65561 0.6442 0.24799 0.0
C1449 C 0.66528 0.64961 0.31677 0.0
C1450 C 0.64955 0.66453 0.30116 0.0
C1451 C 0.62935 0.67724 0.25056 0.0
C1452 C 0.62522 0.67505 0.21584 0.0
C1453 C 0.6447 0.66206 0.26671 0.0
C1454 C 0.63638 0.65742 0.19745 0.0
C1455 C 0.65127 0.64196 0.21343 0.0
H1456 H 0.29517 0.62039 0.26869 0.0
H1457 H 0.315 0.64573 0.17084 0.0
H1458 H 0.33953 0.67519 0.19732 0.0
H1459 H 0.35616 0.69277 0.24828 0.0
H1460 H 0.33456 0.66839 0.34595 0.0
H1461 H 0.30958 0.63953 0.31935 0.0
C1462 C 0.30457 0.63245 0.25305 0.0
C1463 C 0.30318 0.63082 0.21783 0.0
C1464 C 0.31833 0.64949 0.26841 0.0
C1465 C 0.31572 0.64661 0.19805 0.0
C1466 C 0.32978 0.66344 0.21316 0.0
C1467 C 0.34586 0.68133 0.26378 0.0
C1468 C 0.34728 0.68274 0.29906 0.0
C1469 C 0.33133 0.66492 0.24833 0.0
C1470 C 0.33377 0.66771 0.31873 0.0
C1471 C 0.31952 0.65115 0.30356 0.0
loop_
_geom_bond_atom_site_label_1
_geom_bond_atom_site_label_2
_geom_bond_distance
_geom_bond_site_symmetry_2
_ccdc_geom_bond_type
Mg0 O1 2.028 . S
Mg0 O7 1.986 . S
Mg0 O9 2.114 . S
Mg0 O10 2.251 . S
Mg0 O13 2.010 . S
O1 Mg0 2.028 . S
O1 C4 1.250 . S
O2 Mg3 2.028 . S
O2 C4 1.248 . S
Mg3 O2 2.028 . S
Mg3 O8 2.032 . S
Mg3 O10 2.079 . S
C4 O1 1.250 . S
C4 O2 1.248 . S
C5 O6 1.264 . S
C5 O13 1.249 . S
O6 C5 1.264 . S
O7 Mg0 1.986 . S
O7 C11 1.246 . S
O8 Mg3 2.032 . S
O8 C11 1.259 . S
O9 Mg0 2.114 . S
O9 C12 1.252 . S
O10 Mg0 2.251 . S
O10 Mg3 2.079 . S
O10 C12 1.273 . S
C11 O7 1.246 . S
C11 O8 1.259 . S
C12 O9 1.252 . S
C12 O10 1.273 . S
O13 Mg0 2.010 . S
O13 C5 1.249 . S
Mg14 O15 2.028 . S
Mg14 O21 1.986 . S
Mg14 O23 2.114 . S
Mg14 O24 2.251 . S
Mg14 O27 2.010 . S
O15 Mg14 2.028 . S
O15 C18 1.250 . S
O16 Mg17 2.028 . S
O16 C18 1.248 . S
Mg17 O16 2.028 . S
Mg17 O22 2.032 . S
Mg17 O24 2.079 . S
C18 O15 1.250 . S
C18 O16 1.248 . S
C19 O20 1.264 . S
C19 O27 1.249 . S
O20 C19 1.264 . S
O21 Mg14 1.986 . S
O21 C25 1.246 . S
O22 Mg17 2.032 . S
O22 C25 1.259 . S
O23 Mg14 2.114 . S
O23 C26 1.252 . S
O24 Mg14 2.251 . S
O24 Mg17 2.079 . S
O24 C26 1.273 . S
C25 O21 1.246 . S
C25 O22 1.259 . S
C26 O23 1.252 . S
C26 O24 1.273 . S
O27 Mg14 2.010 . S
O27 C19 1.249 . S
Mg28 O29 2.028 . S
Mg28 O35 1.986 . S
Mg28 O37 2.114 . S
Mg28 O38 2.251 . S
Mg28 O41 2.010 . S
O29 Mg28 2.028 . S
O29 C32 1.250 . S
O30 Mg31 2.028 . S
O30 C32 1.248 . S
Mg31 O30 2.028 . S
Mg31 O36 2.032 . S
Mg31 O38 2.079 . S
C32 O29 1.250 . S
C32 O30 1.248 . S
C33 O34 1.264 . S
C33 O41 1.249 . S
O34 C33 1.264 . S
O35 Mg28 1.986 . S
O35 C39 1.246 . S
O36 Mg31 2.032 . S
O36 C39 1.259 . S
O37 Mg28 2.114 . S
O37 C40 1.252 . S
O38 Mg28 2.251 . S
O38 Mg31 2.079 . S
O38 C40 1.273 . S
C39 O35 1.246 . S
C39 O36 1.259 . S
C40 O37 1.252 . S
C40 O38 1.273 . S
O41 Mg28 2.010 . S
O41 C33 1.249 . S
Mg42 O43 2.028 . S
Mg42 O49 1.986 . S
Mg42 O51 2.114 . S
Mg42 O52 2.251 . S
Mg42 O55 2.010 . S
O43 Mg42 2.028 . S
O43 C46 1.250 . S
O44 Mg45 2.028 . S
O44 C46 1.248 . S
Mg45 O44 2.028 . S
Mg45 O50 2.032 . S
Mg45 O52 2.079 . S
C46 O43 1.250 . S
C46 O44 1.248 . S
C47 O48 1.264 . S
C47 O55 1.249 . S
O48 C47 1.264 . S
O49 Mg42 1.986 . S
O49 C53 1.246 . S
O50 Mg45 2.032 . S
O50 C53 1.259 . S
O51 Mg42 2.114 . S
O51 C54 1.252 . S
O52 Mg42 2.251 . S
O52 Mg45 2.079 . S
O52 C54 1.273 . S
C53 O49 1.246 . S
C53 O50 1.259 . S
C54 O51 1.252 . S
C54 O52 1.273 . S
O55 Mg42 2.010 . S
O55 C47 1.249 . S
Mg56 O57 2.028 . S
Mg56 O63 1.986 . S
Mg56 O65 2.114 . S
Mg56 O66 2.251 . S
Mg56 O69 2.010 . S
O57 Mg56 2.028 . S
O57 C60 1.250 . S
O58 Mg59 2.028 . S
O58 C60 1.248 . S
Mg59 O58 2.028 . S
Mg59 O64 2.032 . S
Mg59 O66 2.079 . S
C60 O57 1.250 . S
C60 O58 1.248 . S
C61 O62 1.264 . S
C61 O69 1.249 . S
O62 C61 1.264 . S
O63 Mg56 1.986 . S
O63 C67 1.246 . S
O64 Mg59 2.032 . S
O64 C67 1.259 . S
O65 Mg56 2.114 . S
O65 C68 1.252 . S
O66 Mg56 2.251 . S
O66 Mg59 2.079 . S
O66 C68 1.273 . S
C67 O63 1.246 . S
C67 O64 1.259 . S
C68 O65 1.252 . S
C68 O66 1.273 . S
O69 Mg56 2.010 . S
O69 C61 1.249 . S
Mg70 O71 2.028 . S
Mg70 O77 1.986 . S
Mg70 O79 2.114 . S
Mg70 O80 2.251 . S
Mg70 O83 2.010 . S
O71 Mg70 2.028 . S
O71 C74 1.250 . S
O72 Mg73 2.028 . S
O72 C74 1.248 . S
Mg73 O72 2.028 . S
Mg73 O78 2.032 . S
Mg73 O80 2.079 . S
C74 O71 1.250 . S
C74 O72 1.248 . S
C75 O76 1.264 . S
C75 O83 1.249 . S
O76 C75 1.264 . S
O77 Mg70 1.986 . S
O77 C81 1.246 . S
O78 Mg73 2.032 . S
O78 C81 1.259 . S
O79 Mg70 2.114 . S
O79 C82 1.252 . S
O80 Mg70 2.251 . S
O80 Mg73 2.079 . S
O80 C82 1.273 . S
C81 O77 1.246 . S
C81 O78 1.259 . S
C82 O79 1.252 . S
C82 O80 1.273 . S
O83 Mg70 2.010 . S
O83 C75 1.249 . S
Mg84 O85 2.028 . S
Mg84 O91 1.986 . S
Mg84 O93 2.114 . S
Mg84 O94 2.251 . S
Mg84 O97 2.010 . S
O85 Mg84 2.028 . S
O85 C88 1.250 . S
O86 Mg87 2.028 . S
O86 C88 1.248 . S
Mg87 O86 2.028 . S
Mg87 O92 2.032 . S
Mg87 O94 2.079 . S
C88 O85 1.250 . S
C88 O86 1.248 . S
C89 O90 1.264 . S
C89 O97 1.249 . S
O90 C89 1.264 . S
O91 Mg84 1.986 . S
O91 C95 1.246 . S
O92 Mg87 2.032 . S
O92 C95 1.259 . S
O93 Mg84 2.114 . S
O93 C96 1.252 . S
O94 Mg84 2.251 . S
O94 Mg87 2.079 . S
O94 C96 1.273 . S
C95 O91 1.246 . S
C95 O92 1.259 . S
C96 O93 1.252 . S
C96 O94 1.273 . S
O97 Mg84 2.010 . S
O97 C89 1.249 . S
Mg98 O99 2.028 . S
Mg98 O105 1.986 . S
Mg98 O107 2.114 . S
Mg98 O108 2.251 . S
Mg98 O111 2.010 . S
O99 Mg98 2.028 . S
O99 C102 1.250 . S
O100 Mg101 2.028 . S
O100 C102 1.248 . S
Mg101 O100 2.028 . S
Mg101 O106 2.032 . S
Mg101 O108 2.079 . S
C102 O99 1.250 . S
C102 O100 1.248 . S
C103 O104 1.264 . S
C103 O111 1.249 . S
O104 C103 1.264 . S
O105 Mg98 1.986 . S
O105 C109 1.246 . S
O106 Mg101 2.032 . S
O106 C109 1.259 . S
O107 Mg98 2.114 . S
O107 C110 1.252 . S
O108 Mg98 2.251 . S
O108 Mg101 2.079 . S
O108 C110 1.273 . S
C109 O105 1.246 . S
C109 O106 1.259 . S
C110 O107 1.252 . S
C110 O108 1.273 . S
O111 Mg98 2.010 . S
O111 C103 1.249 . S
Mg112 O113 2.028 . S
Mg112 O119 1.986 . S
Mg112 O121 2.114 . S
Mg112 O122 2.251 . S
Mg112 O125 2.010 . S
O113 Mg112 2.028 . S
O113 C116 1.250 . S
O114 Mg115 2.028 . S
O114 C116 1.248 . S
Mg115 O114 2.028 . S
Mg115 O120 2.032 . S
Mg115 O122 2.079 . S
C116 O113 1.250 . S
C116 O114 1.248 . S
C117 O118 1.264 . S
C117 O125 1.249 . S
O118 C117 1.264 . S
O119 Mg112 1.986 . S
O119 C123 1.246 . S
O120 Mg115 2.032 . S
O120 C123 1.259 . S
O121 Mg112 2.114 . S
O121 C124 1.252 . S
O122 Mg112 2.251 . S
O122 Mg115 2.079 . S
O122 C124 1.273 . S
C123 O119 1.246 . S
C123 O120 1.259 . S
C124 O121 1.252 . S
C124 O122 1.273 . S
O125 Mg112 2.010 . S
O125 C117 1.249 . S
Mg126 O127 2.028 . S
Mg126 O133 1.986 . S
Mg126 O135 2.114 . S
Mg126 O136 2.251 . S
Mg126 O139 2.010 . S
O127 Mg126 2.028 . S
O127 C130 1.250 . S
O128 Mg129 2.028 . S
O128 C130 1.248 . S
Mg129 O128 2.028 . S
Mg129 O134 2.032 . S
Mg129 O136 2.079 . S
C130 O127 1.250 . S
C130 O128 1.248 . S
C131 O132 1.264 . S
C131 O139 1.249 . S
O132 C131 1.264 . S
O133 Mg126 1.986 . S
O133 C137 1.246 . S
O134 Mg129 2.032 . S
O134 C137 1.259 . S
O135 Mg126 2.114 . S
O135 C138 1.252 . S
O136 Mg126 2.251 . S
O136 Mg129 2.079 . S
O136 C138 1.273 . S
C137 O133 1.246 . S
C137 O134 1.259 . S
C138 O135 1.252 . S
C138 O136 1.273 . S
O139 Mg126 2.010 . S
O139 C131 1.249 . S
Mg140 O141 2.028 . S
Mg140 O147 1.986 . S
Mg140 O149 2.114 . S
Mg140 O150 2.251 . S
Mg140 O153 2.010 . S
O141 Mg140 2.028 . S
O141 C144 1.250 . S
O142 Mg143 2.028 . S
O142 C144 1.248 . S
Mg143 O142 2.028 . S
Mg143 O148 2.032 . S
Mg143 O150 2.079 . S
C144 O141 1.250 . S
C144 O142 1.248 . S
C145 O146 1.264 . S
C145 O153 1.249 . S
O146 C145 1.264 . S
O147 Mg140 1.986 . S
O147 C151 1.246 . S
O148 Mg143 2.032 . S
O148 C151 1.259 . S
O149 Mg140 2.114 . S
O149 C152 1.252 . S
O150 Mg140 2.251 . S
O150 Mg143 2.079 . S
O150 C152 1.273 . S
C151 O147 1.246 . S
C151 O148 1.259 . S
C152 O149 1.252 . S
C152 O150 1.273 . S
O153 Mg140 2.010 . S
O153 C145 1.249 . S
Mg154 O155 2.028 . S
Mg154 O161 1.986 . S
Mg154 O163 2.114 . S
Mg154 O164 2.251 . S
Mg154 O167 2.010 . S
O155 Mg154 2.028 . S
O155 C158 1.250 . S
O156 Mg157 2.028 . S
O156 C158 1.248 . S
Mg157 O156 2.028 . S
Mg157 O162 2.032 . S
Mg157 O164 2.079 . S
C158 O155 1.250 . S
C158 O156 1.248 . S
C159 O160 1.264 . S
C159 O167 1.249 . S
O160 C159 1.264 . S
O161 Mg154 1.986 . S
O161 C165 1.246 . S
O162 Mg157 2.032 . S
O162 C165 1.259 . S
O163 Mg154 2.114 . S
O163 C166 1.252 . S
O164 Mg154 2.251 . S
O164 Mg157 2.079 . S
O164 C166 1.273 . S
C165 O161 1.246 . S
C165 O162 1.259 . S
C166 O163 1.252 . S
C166 O164 1.273 . S
O167 Mg154 2.010 . S
O167 C159 1.249 . S
Mg168 O169 2.028 . S
Mg168 O175 1.986 . S
Mg168 O177 2.114 . S
Mg168 O178 2.251 . S
Mg168 O181 2.010 . S
O169 Mg168 2.028 . S
O169 C172 1.250 . S
O170 Mg171 2.028 . S
O170 C172 1.248 . S
Mg171 O170 2.028 . S
Mg171 O176 2.032 . S
Mg171 O178 2.079 . S
C172 O169 1.250 . S
C172 O170 1.248 . S
C173 O174 1.264 . S
C173 O181 1.249 . S
O174 C173 1.264 . S
O175 Mg168 1.986 . S
O175 C179 1.246 . S
O176 Mg171 2.032 . S
O176 C179 1.259 . S
O177 Mg168 2.114 . S
O177 C180 1.252 . S
O178 Mg168 2.251 . S
O178 Mg171 2.079 . S
O178 C180 1.273 . S
C179 O175 1.246 . S
C179 O176 1.259 . S
C180 O177 1.252 . S
C180 O178 1.273 . S
O181 Mg168 2.010 . S
O181 C173 1.249 . S
Mg182 O183 2.028 . S
Mg182 O189 1.986 . S
Mg182 O191 2.114 . S
Mg182 O192 2.251 . S
Mg182 O195 2.010 . S
O183 Mg182 2.028 . S
O183 C186 1.250 . S
O184 Mg185 2.028 . S
O184 C186 1.248 . S
Mg185 O184 2.028 . S
Mg185 O190 2.032 . S
Mg185 O192 2.079 . S
C186 O183 1.250 . S
C186 O184 1.248 . S
C187 O188 1.264 . S
C187 O195 1.249 . S
O188 C187 1.264 . S
O189 Mg182 1.986 . S
O189 C193 1.246 . S
O190 Mg185 2.032 . S
O190 C193 1.259 . S
O191 Mg182 2.114 . S
O191 C194 1.252 . S
O192 Mg182 2.251 . S
O192 Mg185 2.079 . S
O192 C194 1.273 . S
C193 O189 1.246 . S
C193 O190 1.259 . S
C194 O191 1.252 . S
C194 O192 1.273 . S
O195 Mg182 2.010 . S
O195 C187 1.249 . S
Mg196 O197 2.028 . S
Mg196 O203 1.986 . S
Mg196 O205 2.114 . S
Mg196 O206 2.251 . S
Mg196 O209 2.010 . S
O197 Mg196 2.028 . S
O197 C200 1.250 . S
O198 Mg199 2.028 . S
O198 C200 1.248 . S
Mg199 O198 2.028 . S
Mg199 O204 2.032 . S
Mg199 O206 2.079 . S
C200 O197 1.250 . S
C200 O198 1.248 . S
C201 O202 1.264 . S
C201 O209 1.249 . S
O202 C201 1.264 . S
O203 Mg196 1.986 . S
O203 C207 1.246 . S
O204 Mg199 2.032 . S
O204 C207 1.259 . S
O205 Mg196 2.114 . S
O205 C208 1.252 . S
O206 Mg196 2.251 . S
O206 Mg199 2.079 . S
O206 C208 1.273 . S
C207 O203 1.246 . S
C207 O204 1.259 . S
C208 O205 1.252 . S
C208 O206 1.273 . S
O209 Mg196 2.010 . S
O209 C201 1.249 . S
Mg210 O211 2.028 . S
Mg210 O217 1.986 . S
Mg210 O219 2.114 . S
Mg210 O220 2.251 . S
Mg210 O223 2.010 . S
O211 Mg210 2.028 . S
O211 C214 1.250 . S
O212 Mg213 2.028 . S
O212 C214 1.248 . S
Mg213 O212 2.028 . S
Mg213 O218 2.032 . S
Mg213 O220 2.079 . S
C214 O211 1.250 . S
C214 O212 1.248 . S
C215 O216 1.264 . S
C215 O223 1.249 . S
O216 C215 1.264 . S
O217 Mg210 1.986 . S
O217 C221 1.246 . S
O218 Mg213 2.032 . S
O218 C221 1.259 . S
O219 Mg210 2.114 . S
O219 C222 1.252 . S
O220 Mg210 2.251 . S
O220 Mg213 2.079 . S
O220 C222 1.273 . S
C221 O217 1.246 . S
C221 O218 1.259 . S
C222 O219 1.252 . S
C222 O220 1.273 . S
O223 Mg210 2.010 . S
O223 C215 1.249 . S
Mg224 O225 2.028 . S
Mg224 O231 1.986 . S
Mg224 O233 2.114 . S
Mg224 O234 2.251 . S
Mg224 O237 2.010 . S
O225 Mg224 2.028 . S
O225 C228 1.250 . S
O226 Mg227 2.028 . S
O226 C228 1.248 . S
Mg227 O226 2.028 . S
Mg227 O232 2.032 . S
Mg227 O234 2.079 . S
C228 O225 1.250 . S
C228 O226 1.248 . S
C229 O230 1.264 . S
C229 O237 1.249 . S
O230 C229 1.264 . S
O231 Mg224 1.986 . S
O231 C235 1.246 . S
O232 Mg227 2.032 . S
O232 C235 1.259 . S
O233 Mg224 2.114 . S
O233 C236 1.252 . S
O234 Mg224 2.251 . S
O234 Mg227 2.079 . S
O234 C236 1.273 . S
C235 O231 1.246 . S
C235 O232 1.259 . S
C236 O233 1.252 . S
C236 O234 1.273 . S
O237 Mg224 2.010 . S
O237 C229 1.249 . S
Mg238 O239 2.028 . S
Mg238 O245 1.986 . S
Mg238 O247 2.114 . S
Mg238 O248 2.251 . S
Mg238 O251 2.010 . S
O239 Mg238 2.028 . S
O239 C242 1.250 . S
O240 Mg241 2.028 . S
O240 C242 1.248 . S
Mg241 O240 2.028 . S
Mg241 O246 2.032 . S
Mg241 O248 2.079 . S
C242 O239 1.250 . S
C242 O240 1.248 . S
C243 O244 1.264 . S
C243 O251 1.249 . S
O244 C243 1.264 . S
O245 Mg238 1.986 . S
O245 C249 1.246 . S
O246 Mg241 2.032 . S
O246 C249 1.259 . S
O247 Mg238 2.114 . S
O247 C250 1.252 . S
O248 Mg238 2.251 . S
O248 Mg241 2.079 . S
O248 C250 1.273 . S
C249 O245 1.246 . S
C249 O246 1.259 . S
C250 O247 1.252 . S
C250 O248 1.273 . S
O251 Mg238 2.010 . S
O251 C243 1.249 . S
Mg252 O253 2.028 . S
Mg252 O259 1.986 . S
Mg252 O261 2.114 . S
Mg252 O262 2.251 . S
Mg252 O265 2.010 . S
O253 Mg252 2.028 . S
O253 C256 1.250 . S
O254 Mg255 2.028 . S
O254 C256 1.248 . S
Mg255 O254 2.028 . S
Mg255 O260 2.032 . S
Mg255 O262 2.079 . S
C256 O253 1.250 . S
C256 O254 1.248 . S
C257 O258 1.264 . S
C257 O265 1.249 . S
O258 C257 1.264 . S
O259 Mg252 1.986 . S
O259 C263 1.246 . S
O260 Mg255 2.032 . S
O260 C263 1.259 . S
O261 Mg252 2.114 . S
O261 C264 1.252 . S
O262 Mg252 2.251 . S
O262 Mg255 2.079 . S
O262 C264 1.273 . S
C263 O259 1.246 . S
C263 O260 1.259 . S
C264 O261 1.252 . S
C264 O262 1.273 . S
O265 Mg252 2.010 . S
O265 C257 1.249 . S
Mg266 O267 2.028 . S
Mg266 O273 1.986 . S
Mg266 O275 2.114 . S
Mg266 O276 2.251 . S
Mg266 O279 2.010 . S
O267 Mg266 2.028 . S
O267 C270 1.250 . S
O268 Mg269 2.028 . S
O268 C270 1.248 . S
Mg269 O268 2.028 . S
Mg269 O274 2.032 . S
Mg269 O276 2.079 . S
C270 O267 1.250 . S
C270 O268 1.248 . S
C271 O272 1.264 . S
C271 O279 1.249 . S
O272 C271 1.264 . S
O273 Mg266 1.986 . S
O273 C277 1.246 . S
O274 Mg269 2.032 . S
O274 C277 1.259 . S
O275 Mg266 2.114 . S
O275 C278 1.252 . S
O276 Mg266 2.251 . S
O276 Mg269 2.079 . S
O276 C278 1.273 . S
C277 O273 1.246 . S
C277 O274 1.259 . S
C278 O275 1.252 . S
C278 O276 1.273 . S
O279 Mg266 2.010 . S
O279 C271 1.249 . S
Mg280 O281 2.028 . S
Mg280 O287 1.986 . S
Mg280 O289 2.114 . S
Mg280 O290 2.251 . S
Mg280 O293 2.010 . S
O281 Mg280 2.028 . S
O281 C284 1.250 . S
O282 Mg283 2.028 . S
O282 C284 1.248 . S
Mg283 O282 2.028 . S
Mg283 O288 2.032 . S
Mg283 O290 2.079 . S
C284 O281 1.250 . S
C284 O282 1.248 . S
C285 O286 1.264 . S
C285 O293 1.249 . S
O286 C285 1.264 . S
O287 Mg280 1.986 . S
O287 C291 1.246 . S
O288 Mg283 2.032 . S
O288 C291 1.259 . S
O289 Mg280 2.114 . S
O289 C292 1.252 . S
O290 Mg280 2.251 . S
O290 Mg283 2.079 . S
O290 C292 1.273 . S
C291 O287 1.246 . S
C291 O288 1.259 . S
C292 O289 1.252 . S
C292 O290 1.273 . S
O293 Mg280 2.010 . S
O293 C285 1.249 . S
Mg294 O295 2.028 . S
Mg294 O301 1.986 . S
Mg294 O303 2.114 . S
Mg294 O304 2.251 . S
Mg294 O307 2.010 . S
O295 Mg294 2.028 . S
O295 C298 1.250 . S
O296 Mg297 2.028 . S
O296 C298 1.248 . S
Mg297 O296 2.028 . S
Mg297 O302 2.032 . S
Mg297 O304 2.079 . S
C298 O295 1.250 . S
C298 O296 1.248 . S
C299 O300 1.264 . S
C299 O307 1.249 . S
O300 C299 1.264 . S
O301 Mg294 1.986 . S
O301 C305 1.246 . S
O302 Mg297 2.032 . S
O302 C305 1.259 . S
O303 Mg294 2.114 . S
O303 C306 1.252 . S
O304 Mg294 2.251 . S
O304 Mg297 2.079 . S
O304 C306 1.273 . S
C305 O301 1.246 . S
C305 O302 1.259 . S
C306 O303 1.252 . S
C306 O304 1.273 . S
O307 Mg294 2.010 . S
O307 C299 1.249 . S
Mg308 O309 2.028 . S
Mg308 O315 1.986 . S
Mg308 O317 2.114 . S
Mg308 O318 2.251 . S
Mg308 O321 2.010 . S
O309 Mg308 2.028 . S
O309 C312 1.250 . S
O310 Mg311 2.028 . S
O310 C312 1.248 . S
Mg311 O310 2.028 . S
Mg311 O316 2.032 . S
Mg311 O318 2.079 . S
C312 O309 1.250 . S
C312 O310 1.248 . S
C313 O314 1.264 . S
C313 O321 1.249 . S
O314 C313 1.264 . S
O315 Mg308 1.986 . S
O315 C319 1.246 . S
O316 Mg311 2.032 . S
O316 C319 1.259 . S
O317 Mg308 2.114 . S
O317 C320 1.252 . S
O318 Mg308 2.251 . S
O318 Mg311 2.079 . S
O318 C320 1.273 . S
C319 O315 1.246 . S
C319 O316 1.259 . S
C320 O317 1.252 . S
C320 O318 1.273 . S
O321 Mg308 2.010 . S
O321 C313 1.249 . S
Mg322 O323 2.028 . S
Mg322 O329 1.986 . S
Mg322 O331 2.114 . S
Mg322 O332 2.251 . S
Mg322 O335 2.010 . S
O323 Mg322 2.028 . S
O323 C326 1.250 . S
O324 Mg325 2.028 . S
O324 C326 1.248 . S
Mg325 O324 2.028 . S
Mg325 O330 2.032 . S
Mg325 O332 2.079 . S
C326 O323 1.250 . S
C326 O324 1.248 . S
C327 O328 1.264 . S
C327 O335 1.249 . S
O328 C327 1.264 . S
O329 Mg322 1.986 . S
O329 C333 1.246 . S
O330 Mg325 2.032 . S
O330 C333 1.259 . S
O331 Mg322 2.114 . S
O331 C334 1.252 . S
O332 Mg322 2.251 . S
O332 Mg325 2.079 . S
O332 C334 1.273 . S
C333 O329 1.246 . S
C333 O330 1.259 . S
C334 O331 1.252 . S
C334 O332 1.273 . S
O335 Mg322 2.010 . S
O335 C327 1.249 . S
Mg336 O337 2.028 . S
Mg336 O343 1.986 . S
Mg336 O345 2.114 . S
Mg336 O346 2.251 . S
Mg336 O349 2.010 . S
O337 Mg336 2.028 . S
O337 C340 1.250 . S
O338 Mg339 2.028 . S
O338 C340 1.248 . S
Mg339 O338 2.028 . S
Mg339 O344 2.032 . S
Mg339 O346 2.079 . S
C340 O337 1.250 . S
C340 O338 1.248 . S
C341 O342 1.264 . S
C341 O349 1.249 . S
O342 C341 1.264 . S
O343 Mg336 1.986 . S
O343 C347 1.246 . S
O344 Mg339 2.032 . S
O344 C347 1.259 . S
O345 Mg336 2.114 . S
O345 C348 1.252 . S
O346 Mg336 2.251 . S
O346 Mg339 2.079 . S
O346 C348 1.273 . S
C347 O343 1.246 . S
C347 O344 1.259 . S
C348 O345 1.252 . S
C348 O346 1.273 . S
O349 Mg336 2.010 . S
O349 C341 1.249 . S
Mg350 O351 2.028 . S
Mg350 O357 1.986 . S
Mg350 O359 2.114 . S
Mg350 O360 2.251 . S
Mg350 O363 2.010 . S
O351 Mg350 2.028 . S
O351 C354 1.250 . S
O352 Mg353 2.028 . S
O352 C354 1.248 . S
Mg353 O352 2.028 . S
Mg353 O358 2.032 . S
Mg353 O360 2.079 . S
C354 O351 1.250 . S
C354 O352 1.248 . S
C355 O356 1.264 . S
C355 O363 1.249 . S
O356 C355 1.264 . S
O357 Mg350 1.986 . S
O357 C361 1.246 . S
O358 Mg353 2.032 . S
O358 C361 1.259 . S
O359 Mg350 2.114 . S
O359 C362 1.252 . S
O360 Mg350 2.251 . S
O360 Mg353 2.079 . S
O360 C362 1.273 . S
C361 O357 1.246 . S
C361 O358 1.259 . S
C362 O359 1.252 . S
C362 O360 1.273 . S
O363 Mg350 2.010 . S
O363 C355 1.249 . S
Mg364 O365 2.028 . S
Mg364 O371 1.986 . S
Mg364 O373 2.114 . S
Mg364 O374 2.251 . S
Mg364 O377 2.010 . S
O365 Mg364 2.028 . S
O365 C368 1.250 . S
O366 Mg367 2.028 . S
O366 C368 1.248 . S
Mg367 O366 2.028 . S
Mg367 O372 2.032 . S
Mg367 O374 2.079 . S
C368 O365 1.250 . S
C368 O366 1.248 . S
C369 O370 1.264 . S
C369 O377 1.249 . S
O370 C369 1.264 . S
O371 Mg364 1.986 . S
O371 C375 1.246 . S
O372 Mg367 2.032 . S
O372 C375 1.259 . S
O373 Mg364 2.114 . S
O373 C376 1.252 . S
O374 Mg364 2.251 . S
O374 Mg367 2.079 . S
O374 C376 1.273 . S
C375 O371 1.246 . S
C375 O372 1.259 . S
C376 O373 1.252 . S
C376 O374 1.273 . S
O377 Mg364 2.010 . S
O377 C369 1.249 . S
Mg378 O379 2.028 . S
Mg378 O385 1.986 . S
Mg378 O387 2.114 . S
Mg378 O388 2.251 . S
Mg378 O391 2.010 . S
O379 Mg378 2.028 . S
O379 C382 1.250 . S
O380 Mg381 2.028 . S
O380 C382 1.248 . S
Mg381 O380 2.028 . S
Mg381 O386 2.032 . S
Mg381 O388 2.079 . S
C382 O379 1.250 . S
C382 O380 1.248 . S
C383 O384 1.264 . S
C383 O391 1.249 . S
O384 C383 1.264 . S
O385 Mg378 1.986 . S
O385 C389 1.246 . S
O386 Mg381 2.032 . S
O386 C389 1.259 . S
O387 Mg378 2.114 . S
O387 C390 1.252 . S
O388 Mg378 2.251 . S
O388 Mg381 2.079 . S
O388 C390 1.273 . S
C389 O385 1.246 . S
C389 O386 1.259 . S
C390 O387 1.252 . S
C390 O388 1.273 . S
O391 Mg378 2.010 . S
O391 C383 1.249 . S
Mg392 O393 2.028 . S
Mg392 O399 1.986 . S
Mg392 O401 2.114 . S
Mg392 O402 2.251 . S
Mg392 O405 2.010 . S
O393 Mg392 2.028 . S
O393 C396 1.250 . S
O394 Mg395 2.028 . S
O394 C396 1.248 . S
Mg395 O394 2.028 . S
Mg395 O400 2.032 . S
Mg395 O402 2.079 . S
C396 O393 1.250 . S
C396 O394 1.248 . S
C397 O398 1.264 . S
C397 O405 1.249 . S
O398 C397 1.264 . S
O399 Mg392 1.986 . S
O399 C403 1.246 . S
O400 Mg395 2.032 . S
O400 C403 1.259 . S
O401 Mg392 2.114 . S
O401 C404 1.252 . S
O402 Mg392 2.251 . S
O402 Mg395 2.079 . S
O402 C404 1.273 . S
C403 O399 1.246 . S
C403 O400 1.259 . S
C404 O401 1.252 . S
C404 O402 1.273 . S
O405 Mg392 2.010 . S
O405 C397 1.249 . S
Mg406 O407 2.028 . S
Mg406 O413 1.986 . S
Mg406 O415 2.114 . S
Mg406 O416 2.251 . S
Mg406 O419 2.010 . S
O407 Mg406 2.028 . S
O407 C410 1.250 . S
O408 Mg409 2.028 . S
O408 C410 1.248 . S
Mg409 O408 2.028 . S
Mg409 O414 2.032 . S
Mg409 O416 2.079 . S
C410 O407 1.250 . S
C410 O408 1.248 . S
C411 O412 1.264 . S
C411 O419 1.249 . S
O412 C411 1.264 . S
O413 Mg406 1.986 . S
O413 C417 1.246 . S
O414 Mg409 2.032 . S
O414 C417 1.259 . S
O415 Mg406 2.114 . S
O415 C418 1.252 . S
O416 Mg406 2.251 . S
O416 Mg409 2.079 . S
O416 C418 1.273 . S
C417 O413 1.246 . S
C417 O414 1.259 . S
C418 O415 1.252 . S
C418 O416 1.273 . S
O419 Mg406 2.010 . S
O419 C411 1.249 . S
Mg420 O421 2.028 . S
Mg420 O427 1.986 . S
Mg420 O429 2.114 . S
Mg420 O430 2.251 . S
Mg420 O433 2.010 . S
O421 Mg420 2.028 . S
O421 C424 1.250 . S
O422 Mg423 2.028 . S
O422 C424 1.248 . S
Mg423 O422 2.028 . S
Mg423 O428 2.032 . S
Mg423 O430 2.079 . S
C424 O421 1.250 . S
C424 O422 1.248 . S
C425 O426 1.264 . S
C425 O433 1.249 . S
O426 C425 1.264 . S
O427 Mg420 1.986 . S
O427 C431 1.246 . S
O428 Mg423 2.032 . S
O428 C431 1.259 . S
O429 Mg420 2.114 . S
O429 C432 1.252 . S
O430 Mg420 2.251 . S
O430 Mg423 2.079 . S
O430 C432 1.273 . S
C431 O427 1.246 . S
C431 O428 1.259 . S
C432 O429 1.252 . S
C432 O430 1.273 . S
O433 Mg420 2.010 . S
O433 C425 1.249 . S
Mg434 O435 2.028 . S
Mg434 O441 1.986 . S
Mg434 O443 2.114 . S
Mg434 O444 2.251 . S
Mg434 O447 2.010 . S
O435 Mg434 2.028 . S
O435 C438 1.250 . S
O436 Mg437 2.028 . S
O436 C438 1.248 . S
Mg437 O436 2.028 . S
Mg437 O442 2.032 . S
Mg437 O444 2.079 . S
C438 O435 1.250 . S
C438 O436 1.248 . S
C439 O440 1.264 . S
C439 O447 1.249 . S
O440 C439 1.264 . S
O441 Mg434 1.986 . S
O441 C445 1.246 . S
O442 Mg437 2.032 . S
O442 C445 1.259 . S
O443 Mg434 2.114 . S
O443 C446 1.252 . S
O444 Mg434 2.251 . S
O444 Mg437 2.079 . S
O444 C446 1.273 . S
C445 O441 1.246 . S
C445 O442 1.259 . S
C446 O443 1.252 . S
C446 O444 1.273 . S
O447 Mg434 2.010 . S
O447 C439 1.249 . S
H448 C454 0.930 . S
H449 C457 0.930 . S
H450 C458 0.930 . S
H451 C459 0.930 . S
H452 C462 0.930 . S
H453 C463 0.930 . S
C454 H448 0.930 . S
C454 C455 1.355 . S
C454 C456 1.415 . S
C455 C454 1.355 . S
C455 C457 1.419 . S
C456 C454 1.415 . S
C456 C461 1.425 . S
C456 C463 1.409 . S
C457 H449 0.930 . S
C457 C455 1.419 . S
C457 C458 1.362 . S
C458 H450 0.930 . S
C458 C457 1.362 . S
C458 C461 1.409 . S
C459 H451 0.930 . S
C459 C460 1.355 . S
C459 C461 1.415 . S
C460 C459 1.355 . S
C460 C462 1.419 . S
C461 C456 1.425 . S
C461 C458 1.409 . S
C461 C459 1.415 . S
C462 H452 0.930 . S
C462 C460 1.419 . S
C462 C463 1.362 . S
C463 H453 0.930 . S
C463 C456 1.409 . S
C463 C462 1.362 . S
H464 C470 0.930 . S
H465 C473 0.930 . S
H466 C474 0.930 . S
H467 C475 0.930 . S
H468 C478 0.930 . S
H469 C479 0.930 . S
C470 H464 0.930 . S
C470 C471 1.355 . S
C470 C472 1.415 . S
C471 C470 1.355 . S
C471 C473 1.419 . S
C472 C470 1.415 . S
C472 C477 1.425 . S
C472 C479 1.409 . S
C473 H465 0.930 . S
C473 C471 1.419 . S
C473 C474 1.362 . S
C474 H466 0.930 . S
C474 C473 1.362 . S
C474 C477 1.409 . S
C475 H467 0.930 . S
C475 C476 1.355 . S
C475 C477 1.415 . S
C476 C475 1.355 . S
C476 C478 1.419 . S
C477 C472 1.425 . S
C477 C474 1.409 . S
C477 C475 1.415 . S
C478 H468 0.930 . S
C478 C476 1.419 . S
C478 C479 1.362 . S
C479 H469 0.930 . S
C479 C472 1.409 . S
C479 C478 1.362 . S
H480 C486 0.930 . S
H481 C489 0.930 . S
H482 C490 0.930 . S
H483 C491 0.930 . S
H484 C494 0.930 . S
H485 C495 0.930 . S
C486 H480 0.930 . S
C486 C487 1.355 . S
C486 C488 1.415 . S
C487 C486 1.355 . S
C487 C489 1.419 . S
C488 C486 1.415 . S
C488 C493 1.425 . S
C488 C495 1.409 . S
C489 H481 0.930 . S
C489 C487 1.419 . S
C489 C490 1.362 . S
C490 H482 0.930 . S
C490 C489 1.362 . S
C490 C493 1.409 . S
C491 H483 0.930 . S
C491 C492 1.355 . S
C491 C493 1.415 . S
C492 C491 1.355 . S
C492 C494 1.419 . S
C493 C488 1.425 . S
C493 C490 1.409 . S
C493 C491 1.415 . S
C494 H484 0.930 . S
C494 C492 1.419 . S
C494 C495 1.362 . S
C495 H485 0.930 . S
C495 C488 1.409 . S
C495 C494 1.362 . S
H496 C502 0.930 . S
H497 C505 0.930 . S
H498 C506 0.930 . S
H499 C507 0.930 . S
H500 C510 0.930 . S
H501 C511 0.930 . S
C502 H496 0.930 . S
C502 C503 1.355 . S
C502 C504 1.415 . S
C503 C502 1.355 . S
C503 C505 1.419 . S
C504 C502 1.415 . S
C504 C509 1.425 . S
C504 C511 1.409 . S
C505 H497 0.930 . S
C505 C503 1.419 . S
C505 C506 1.362 . S
C506 H498 0.930 . S
C506 C505 1.362 . S
C506 C509 1.409 . S
C507 H499 0.930 . S
C507 C508 1.355 . S
C507 C509 1.415 . S
C508 C507 1.355 . S
C508 C510 1.419 . S
C509 C504 1.425 . S
C509 C506 1.409 . S
C509 C507 1.415 . S
C510 H500 0.930 . S
C510 C508 1.419 . S
C510 C511 1.362 . S
C511 H501 0.930 . S
C511 C504 1.409 . S
C511 C510 1.362 . S
H512 C518 0.930 . S
H513 C521 0.930 . S
H514 C522 0.930 . S
H515 C523 0.930 . S
H516 C526 0.930 . S
H517 C527 0.930 . S
C518 H512 0.930 . S
C518 C519 1.355 . S
C518 C520 1.415 . S
C519 C518 1.355 . S
C519 C521 1.419 . S
C520 C518 1.415 . S
C520 C525 1.425 . S
C520 C527 1.409 . S
C521 H513 0.930 . S
C521 C519 1.419 . S
C521 C522 1.362 . S
C522 H514 0.930 . S
C522 C521 1.362 . S
C522 C525 1.409 . S
C523 H515 0.930 . S
C523 C524 1.355 . S
C523 C525 1.415 . S
C524 C523 1.355 . S
C524 C526 1.419 . S
C525 C520 1.425 . S
C525 C522 1.409 . S
C525 C523 1.415 . S
C526 H516 0.930 . S
C526 C524 1.419 . S
C526 C527 1.362 . S
C527 H517 0.930 . S
C527 C520 1.409 . S
C527 C526 1.362 . S
H528 C534 0.930 . S
H529 C537 0.930 . S
H530 C538 0.930 . S
H531 C539 0.930 . S
H532 C542 0.930 . S
H533 C543 0.930 . S
C534 H528 0.930 . S
C534 C535 1.355 . S
C534 C536 1.415 . S
C535 C534 1.355 . S
C535 C537 1.419 . S
C536 C534 1.415 . S
C536 C541 1.425 . S
C536 C543 1.409 . S
C537 H529 0.930 . S
C537 C535 1.419 . S
C537 C538 1.362 . S
C538 H530 0.930 . S
C538 C537 1.362 . S
C538 C541 1.409 . S
C539 H531 0.930 . S
C539 C540 1.355 . S
C539 C541 1.415 . S
C540 C539 1.355 . S
C540 C542 1.419 . S
C541 C536 1.425 . S
C541 C538 1.409 . S
C541 C539 1.415 . S
C542 H532 0.930 . S
C542 C540 1.419 . S
C542 C543 1.362 . S
C543 H533 0.930 . S
C543 C536 1.409 . S
C543 C542 1.362 . S
H544 C550 0.930 . S
H545 C553 0.930 . S
H546 C554 0.930 . S
H547 C555 0.930 . S
H548 C558 0.930 . S
H549 C559 0.930 . S
C550 H544 0.930 . S
C550 C551 1.355 . S
C550 C552 1.415 . S
C551 C550 1.355 . S
C551 C553 1.419 . S
C552 C550 1.415 . S
C552 C557 1.425 . S
C552 C559 1.409 . S
C553 H545 0.930 . S
C553 C551 1.419 . S
C553 C554 1.362 . S
C554 H546 0.930 . S
C554 C553 1.362 . S
C554 C557 1.409 . S
C555 H547 0.930 . S
C555 C556 1.355 . S
C555 C557 1.415 . S
C556 C555 1.355 . S
C556 C558 1.419 . S
C557 C552 1.425 . S
C557 C554 1.409 . S
C557 C555 1.415 . S
C558 H548 0.930 . S
C558 C556 1.419 . S
C558 C559 1.362 . S
C559 H549 0.930 . S
C559 C552 1.409 . S
C559 C558 1.362 . S
H560 C566 0.930 . S
H561 C569 0.930 . S
H562 C570 0.930 . S
H563 C571 0.930 . S
H564 C574 0.930 . S
H565 C575 0.930 . S
C566 H560 0.930 . S
C566 C567 1.355 . S
C566 C568 1.415 . S
C567 C566 1.355 . S
C567 C569 1.419 . S
C568 C566 1.415 . S
C568 C573 1.425 . S
C568 C575 1.409 . S
C569 H561 0.930 . S
C569 C567 1.419 . S
C569 C570 1.362 . S
C570 H562 0.930 . S
C570 C569 1.362 . S
C570 C573 1.409 . S
C571 H563 0.930 . S
C571 C572 1.355 . S
C571 C573 1.415 . S
C572 C571 1.355 . S
C572 C574 1.419 . S
C573 C568 1.425 . S
C573 C570 1.409 . S
C573 C571 1.415 . S
C574 H564 0.930 . S
C574 C572 1.419 . S
C574 C575 1.362 . S
C575 H565 0.930 . S
C575 C568 1.409 . S
C575 C574 1.362 . S
H576 C582 0.930 . S
H577 C585 0.930 . S
H578 C586 0.930 . S
H579 C587 0.930 . S
H580 C590 0.930 . S
H581 C591 0.930 . S
C582 H576 0.930 . S
C582 C583 1.355 . S
C582 C584 1.415 . S
C583 C582 1.355 . S
C583 C585 1.419 . S
C584 C582 1.415 . S
C584 C589 1.425 . S
C584 C591 1.409 . S
C585 H577 0.930 . S
C585 C583 1.419 . S
C585 C586 1.362 . S
C586 H578 0.930 . S
C586 C585 1.362 . S
C586 C589 1.409 . S
C587 H579 0.930 . S
C587 C588 1.355 . S
C587 C589 1.415 . S
C588 C587 1.355 . S
C588 C590 1.419 . S
C589 C584 1.425 . S
C589 C586 1.409 . S
C589 C587 1.415 . S
C590 H580 0.930 . S
C590 C588 1.419 . S
C590 C591 1.362 . S
C591 H581 0.930 . S
C591 C584 1.409 . S
C591 C590 1.362 . S
H592 C598 0.930 . S
H593 C601 0.930 . S
H594 C602 0.930 . S
H595 C603 0.930 . S
H596 C606 0.930 . S
H597 C607 0.930 . S
C598 H592 0.930 . S
C598 C599 1.355 . S
C598 C600 1.415 . S
C599 C598 1.355 . S
C599 C601 1.419 . S
C600 C598 1.415 . S
C600 C605 1.425 . S
C600 C607 1.409 . S
C601 H593 0.930 . S
C601 C599 1.419 . S
C601 C602 1.362 . S
C602 H594 0.930 . S
C602 C601 1.362 . S
C602 C605 1.409 . S
C603 H595 0.930 . S
C603 C604 1.355 . S
C603 C605 1.415 . S
C604 C603 1.355 . S
C604 C606 1.419 . S
C605 C600 1.425 . S
C605 C602 1.409 . S
C605 C603 1.415 . S
C606 H596 0.930 . S
C606 C604 1.419 . S
C606 C607 1.362 . S
C607 H597 0.930 . S
C607 C600 1.409 . S
C607 C606 1.362 . S
H608 C614 0.930 . S
H609 C617 0.930 . S
H610 C618 0.930 . S
H611 C619 0.930 . S
H612 C622 0.930 . S
H613 C623 0.930 . S
C614 H608 0.930 . S
C614 C615 1.355 . S
C614 C616 1.415 . S
C615 C614 1.355 . S
C615 C617 1.419 . S
C616 C614 1.415 . S
C616 C621 1.425 . S
C616 C623 1.409 . S
C617 H609 0.930 . S
C617 C615 1.419 . S
C617 C618 1.362 . S
C618 H610 0.930 . S
C618 C617 1.362 . S
C618 C621 1.409 . S
C619 H611 0.930 . S
C619 C620 1.355 . S
C619 C621 1.415 . S
C620 C619 1.355 . S
C620 C622 1.419 . S
C621 C616 1.425 . S
C621 C618 1.409 . S
C621 C619 1.415 . S
C622 H612 0.930 . S
C622 C620 1.419 . S
C622 C623 1.362 . S
C623 H613 0.930 . S
C623 C616 1.409 . S
C623 C622 1.362 . S
H624 C630 0.930 . S
H625 C633 0.930 . S
H626 C634 0.930 . S
H627 C635 0.930 . S
H628 C638 0.930 . S
H629 C639 0.930 . S
C630 H624 0.930 . S
C630 C631 1.355 . S
C630 C632 1.415 . S
C631 C630 1.355 . S
C631 C633 1.419 . S
C632 C630 1.415 . S
C632 C637 1.425 . S
C632 C639 1.409 . S
C633 H625 0.930 . S
C633 C631 1.419 . S
C633 C634 1.362 . S
C634 H626 0.930 . S
C634 C633 1.362 . S
C634 C637 1.409 . S
C635 H627 0.930 . S
C635 C636 1.355 . S
C635 C637 1.415 . S
C636 C635 1.355 . S
C636 C638 1.419 . S
C637 C632 1.425 . S
C637 C634 1.409 . S
C637 C635 1.415 . S
C638 H628 0.930 . S
C638 C636 1.419 . S
C638 C639 1.362 . S
C639 H629 0.930 . S
C639 C632 1.409 . S
C639 C638 1.362 . S
H640 C646 0.930 . S
H641 C649 0.930 . S
H642 C650 0.930 . S
H643 C651 0.930 . S
H644 C654 0.930 . S
H645 C655 0.930 . S
C646 H640 0.930 . S
C646 C647 1.355 . S
C646 C648 1.415 . S
C647 C646 1.355 . S
C647 C649 1.419 . S
C648 C646 1.415 . S
C648 C653 1.425 . S
C648 C655 1.409 . S
C649 H641 0.930 . S
C649 C647 1.419 . S
C649 C650 1.362 . S
C650 H642 0.930 . S
C650 C649 1.362 . S
C650 C653 1.409 . S
C651 H643 0.930 . S
C651 C652 1.355 . S
C651 C653 1.415 . S
C652 C651 1.355 . S
C652 C654 1.419 . S
C653 C648 1.425 . S
C653 C650 1.409 . S
C653 C651 1.415 . S
C654 H644 0.930 . S
C654 C652 1.419 . S
C654 C655 1.362 . S
C655 H645 0.930 . S
C655 C648 1.409 . S
C655 C654 1.362 . S
H656 C662 0.930 . S
H657 C665 0.930 . S
H658 C666 0.930 . S
H659 C667 0.930 . S
H660 C670 0.930 . S
H661 C671 0.930 . S
C662 H656 0.930 . S
C662 C663 1.355 . S
C662 C664 1.415 . S
C663 C662 1.355 . S
C663 C665 1.419 . S
C664 C662 1.415 . S
C664 C669 1.425 . S
C664 C671 1.409 . S
C665 H657 0.930 . S
C665 C663 1.419 . S
C665 C666 1.362 . S
C666 H658 0.930 . S
C666 C665 1.362 . S
C666 C669 1.409 . S
C667 H659 0.930 . S
C667 C668 1.355 . S
C667 C669 1.415 . S
C668 C667 1.355 . S
C668 C670 1.419 . S
C669 C664 1.425 . S
C669 C666 1.409 . S
C669 C667 1.415 . S
C670 H660 0.930 . S
C670 C668 1.419 . S
C670 C671 1.362 . S
C671 H661 0.930 . S
C671 C664 1.409 . S
C671 C670 1.362 . S
H672 C678 0.930 . S
H673 C681 0.930 . S
H674 C682 0.930 . S
H675 C683 0.930 . S
H676 C686 0.930 . S
H677 C687 0.930 . S
C678 H672 0.930 . S
C678 C679 1.355 . S
C678 C680 1.415 . S
C679 C678 1.355 . S
C679 C681 1.419 . S
C680 C678 1.415 . S
C680 C685 1.425 . S
C680 C687 1.409 . S
C681 H673 0.930 . S
C681 C679 1.419 . S
C681 C682 1.362 . S
C682 H674 0.930 . S
C682 C681 1.362 . S
C682 C685 1.409 . S
C683 H675 0.930 . S
C683 C684 1.355 . S
C683 C685 1.415 . S
C684 C683 1.355 . S
C684 C686 1.419 . S
C685 C680 1.425 . S
C685 C682 1.409 . S
C685 C683 1.415 . S
C686 H676 0.930 . S
C686 C684 1.419 . S
C686 C687 1.362 . S
C687 H677 0.930 . S
C687 C680 1.409 . S
C687 C686 1.362 . S
H688 C694 0.930 . S
H689 C697 0.930 . S
H690 C698 0.930 . S
H691 C699 0.930 . S
H692 C702 0.930 . S
H693 C703 0.930 . S
C694 H688 0.930 . S
C694 C695 1.355 . S
C694 C696 1.415 . S
C695 C694 1.355 . S
C695 C697 1.419 . S
C696 C694 1.415 . S
C696 C701 1.425 . S
C696 C703 1.409 . S
C697 H689 0.930 . S
C697 C695 1.419 . S
C697 C698 1.362 . S
C698 H690 0.930 . S
C698 C697 1.362 . S
C698 C701 1.409 . S
C699 H691 0.930 . S
C699 C700 1.355 . S
C699 C701 1.415 . S
C700 C699 1.355 . S
C700 C702 1.419 . S
C701 C696 1.425 . S
C701 C698 1.409 . S
C701 C699 1.415 . S
C702 H692 0.930 . S
C702 C700 1.419 . S
C702 C703 1.362 . S
C703 H693 0.930 . S
C703 C696 1.409 . S
C703 C702 1.362 . S
H704 C710 0.930 . S
H705 C713 0.930 . S
H706 C714 0.930 . S
H707 C715 0.930 . S
H708 C718 0.930 . S
H709 C719 0.930 . S
C710 H704 0.930 . S
C710 C711 1.355 . S
C710 C712 1.415 . S
C711 C710 1.355 . S
C711 C713 1.419 . S
C712 C710 1.415 . S
C712 C717 1.425 1_554 S
C712 C719 1.409 1_554 S
C713 H705 0.930 . S
C713 C711 1.419 . S
C713 C714 1.362 . S
C714 H706 0.930 . S
C714 C713 1.362 . S
C714 C717 1.409 1_554 S
C715 H707 0.930 . S
C715 C716 1.355 . S
C715 C717 1.415 . S
C716 C715 1.355 . S
C716 C718 1.419 . S
C717 C712 1.425 1_556 S
C717 C714 1.409 1_556 S
C717 C715 1.415 . S
C718 H708 0.930 . S
C718 C716 1.419 . S
C718 C719 1.362 . S
C719 H709 0.930 . S
C719 C712 1.409 1_556 S
C719 C718 1.362 . S
H720 C726 0.930 . S
H721 C729 0.930 . S
H722 C730 0.930 . S
H723 C731 0.930 . S
H724 C734 0.930 . S
H725 C735 0.930 . S
C726 H720 0.930 . S
C726 C727 1.355 . S
C726 C728 1.415 . S
C727 C726 1.355 . S
C727 C729 1.419 . S
C728 C726 1.415 . S
C728 C733 1.425 1_556 S
C728 C735 1.409 1_556 S
C729 H721 0.930 . S
C729 C727 1.419 . S
C729 C730 1.362 . S
C730 H722 0.930 . S
C730 C729 1.362 . S
C730 C733 1.409 1_556 S
C731 H723 0.930 . S
C731 C732 1.355 . S
C731 C733 1.415 . S
C732 C731 1.355 . S
C732 C734 1.419 . S
C733 C728 1.425 1_554 S
C733 C730 1.409 1_554 S
C733 C731 1.415 . S
C734 H724 0.930 . S
C734 C732 1.419 . S
C734 C735 1.362 . S
C735 H725 0.930 . S
C735 C728 1.409 1_554 S
C735 C734 1.362 . S
H736 C742 0.930 . S
H737 C745 0.930 . S
H738 C746 0.930 . S
H739 C747 0.930 . S
H740 C750 0.930 . S
H741 C751 0.930 . S
C742 H736 0.930 . S
C742 C743 1.355 . S
C742 C744 1.415 . S
C743 C742 1.355 . S
C743 C745 1.419 . S
C744 C742 1.415 . S
C744 C749 1.425 1_556 S
C744 C751 1.409 1_556 S
C745 H737 0.930 . S
C745 C743 1.419 . S
C745 C746 1.362 . S
C746 H738 0.930 . S
C746 C745 1.362 . S
C746 C749 1.409 1_556 S
C747 H739 0.930 . S
C747 C748 1.355 . S
C747 C749 1.415 . S
C748 C747 1.355 . S
C748 C750 1.419 . S
C749 C744 1.425 1_554 S
C749 C746 1.409 1_554 S
C749 C747 1.415 . S
C750 H740 0.930 . S
C750 C748 1.419 . S
C750 C751 1.362 . S
C751 H741 0.930 . S
C751 C744 1.409 1_554 S
C751 C750 1.362 . S
H752 C758 0.930 . S
H753 C761 0.930 . S
H754 C762 0.930 . S
H755 C763 0.930 . S
H756 C766 0.930 . S
H757 C767 0.930 . S
C758 H752 0.930 . S
C758 C759 1.355 . S
C758 C760 1.415 . S
C759 C758 1.355 . S
C759 C761 1.419 . S
C760 C758 1.415 . S
C760 C765 1.425 1_556 S
C760 C767 1.409 1_556 S
C761 H753 0.930 . S
C761 C759 1.419 . S
C761 C762 1.362 . S
C762 H754 0.930 . S
C762 C761 1.362 . S
C762 C765 1.409 1_556 S
C763 H755 0.930 . S
C763 C764 1.355 . S
C763 C765 1.415 . S
C764 C763 1.355 . S
C764 C766 1.419 . S
C765 C760 1.425 1_554 S
C765 C762 1.409 1_554 S
C765 C763 1.415 . S
C766 H756 0.930 . S
C766 C764 1.419 . S
C766 C767 1.362 . S
C767 H757 0.930 . S
C767 C760 1.409 1_554 S
C767 C766 1.362 . S
H768 C774 0.930 . S
H769 C777 0.930 . S
H770 C778 0.930 . S
H771 C779 0.930 . S
H772 C782 0.930 . S
H773 C783 0.930 . S
C774 H768 0.930 . S
C774 C775 1.355 . S
C774 C776 1.415 . S
C775 C774 1.355 . S
C775 C777 1.419 . S
C776 C774 1.415 . S
C776 C781 1.425 . S
C776 C783 1.409 . S
C777 H769 0.930 . S
C777 C775 1.419 . S
C777 C778 1.362 . S
C778 H770 0.930 . S
C778 C777 1.362 . S
C778 C781 1.409 . S
C779 H771 0.930 . S
C779 C780 1.355 . S
C779 C781 1.415 . S
C780 C779 1.355 . S
C780 C782 1.419 . S
C781 C776 1.425 . S
C781 C778 1.409 . S
C781 C779 1.415 . S
C782 H772 0.930 . S
C782 C780 1.419 . S
C782 C783 1.362 . S
C783 H773 0.930 . S
C783 C776 1.409 . S
C783 C782 1.362 . S
H784 C790 0.930 . S
H785 C793 0.930 . S
H786 C794 0.930 . S
H787 C795 0.930 . S
H788 C798 0.930 . S
H789 C799 0.930 . S
C790 H784 0.930 . S
C790 C791 1.355 . S
C790 C792 1.415 . S
C791 C790 1.355 . S
C791 C793 1.419 . S
C792 C790 1.415 . S
C792 C797 1.425 . S
C792 C799 1.409 . S
C793 H785 0.930 . S
C793 C791 1.419 . S
C793 C794 1.362 . S
C794 H786 0.930 . S
C794 C793 1.362 . S
C794 C797 1.409 . S
C795 H787 0.930 . S
C795 C796 1.355 . S
C795 C797 1.415 . S
C796 C795 1.355 . S
C796 C798 1.419 . S
C797 C792 1.425 . S
C797 C794 1.409 . S
C797 C795 1.415 . S
C798 H788 0.930 . S
C798 C796 1.419 . S
C798 C799 1.362 . S
C799 H789 0.930 . S
C799 C792 1.409 . S
C799 C798 1.362 . S
H800 C806 0.930 . S
H801 C809 0.930 . S
H802 C810 0.930 . S
H803 C811 0.930 . S
H804 C814 0.930 . S
H805 C815 0.930 . S
C806 H800 0.930 . S
C806 C807 1.355 . S
C806 C808 1.415 . S
C807 C806 1.355 . S
C807 C809 1.419 . S
C808 C806 1.415 . S
C808 C813 1.425 . S
C808 C815 1.409 . S
C809 H801 0.930 . S
C809 C807 1.419 . S
C809 C810 1.362 . S
C810 H802 0.930 . S
C810 C809 1.362 . S
C810 C813 1.409 . S
C811 H803 0.930 . S
C811 C812 1.355 . S
C811 C813 1.415 . S
C812 C811 1.355 . S
C812 C814 1.419 . S
C813 C808 1.425 . S
C813 C810 1.409 . S
C813 C811 1.415 . S
C814 H804 0.930 . S
C814 C812 1.419 . S
C814 C815 1.362 . S
C815 H805 0.930 . S
C815 C808 1.409 . S
C815 C814 1.362 . S
H816 C822 0.930 . S
H817 C825 0.930 . S
H818 C826 0.930 . S
H819 C827 0.930 . S
H820 C830 0.930 . S
H821 C831 0.930 . S
C822 H816 0.930 . S
C822 C823 1.355 . S
C822 C824 1.415 . S
C823 C822 1.355 . S
C823 C825 1.419 . S
C824 C822 1.415 . S
C824 C829 1.425 . S
C824 C831 1.409 . S
C825 H817 0.930 . S
C825 C823 1.419 . S
C825 C826 1.362 . S
C826 H818 0.930 . S
C826 C825 1.362 . S
C826 C829 1.409 . S
C827 H819 0.930 . S
C827 C828 1.355 . S
C827 C829 1.415 . S
C828 C827 1.355 . S
C828 C830 1.419 . S
C829 C824 1.425 . S
C829 C826 1.409 . S
C829 C827 1.415 . S
C830 H820 0.930 . S
C830 C828 1.419 . S
C830 C831 1.362 . S
C831 H821 0.930 . S
C831 C824 1.409 . S
C831 C830 1.362 . S
H832 C838 0.930 . S
H833 C841 0.930 . S
H834 C842 0.930 . S
H835 C843 0.930 . S
H836 C846 0.930 . S
H837 C847 0.930 . S
C838 H832 0.930 . S
C838 C839 1.355 . S
C838 C840 1.415 . S
C839 C838 1.355 . S
C839 C841 1.419 . S
C840 C838 1.415 . S
C840 C845 1.425 . S
C840 C847 1.409 . S
C841 H833 0.930 . S
C841 C839 1.419 . S
C841 C842 1.362 . S
C842 H834 0.930 . S
C842 C841 1.362 . S
C842 C845 1.409 . S
C843 H835 0.930 . S
C843 C844 1.355 . S
C843 C845 1.415 . S
C844 C843 1.355 . S
C844 C846 1.419 . S
C845 C840 1.425 . S
C845 C842 1.409 . S
C845 C843 1.415 . S
C846 H836 0.930 . S
C846 C844 1.419 . S
C846 C847 1.362 . S
C847 H837 0.930 . S
C847 C840 1.409 . S
C847 C846 1.362 . S
H848 C854 0.930 . S
H849 C857 0.930 . S
H850 C858 0.930 . S
H851 C859 0.930 . S
H852 C862 0.930 . S
H853 C863 0.930 . S
C854 H848 0.930 . S
C854 C855 1.355 . S
C854 C856 1.415 . S
C855 C854 1.355 . S
C855 C857 1.419 . S
C856 C854 1.415 . S
C856 C861 1.425 . S
C856 C863 1.409 . S
C857 H849 0.930 . S
C857 C855 1.419 . S
C857 C858 1.362 . S
C858 H850 0.930 . S
C858 C857 1.362 . S
C858 C861 1.409 . S
C859 H851 0.930 . S
C859 C860 1.355 . S
C859 C861 1.415 . S
C860 C859 1.355 . S
C860 C862 1.419 . S
C861 C856 1.425 . S
C861 C858 1.409 . S
C861 C859 1.415 . S
C862 H852 0.930 . S
C862 C860 1.419 . S
C862 C863 1.362 . S
C863 H853 0.930 . S
C863 C856 1.409 . S
C863 C862 1.362 . S
H864 C870 0.930 . S
H865 C873 0.930 . S
H866 C874 0.930 . S
H867 C875 0.930 . S
H868 C878 0.930 . S
H869 C879 0.930 . S
C870 H864 0.930 . S
C870 C871 1.355 . S
C870 C872 1.415 . S
C871 C870 1.355 . S
C871 C873 1.419 . S
C872 C870 1.415 . S
C872 C877 1.425 . S
C872 C879 1.409 . S
C873 H865 0.930 . S
C873 C871 1.419 . S
C873 C874 1.362 . S
C874 H866 0.930 . S
C874 C873 1.362 . S
C874 C877 1.409 . S
C875 H867 0.930 . S
C875 C876 1.355 . S
C875 C877 1.415 . S
C876 C875 1.355 . S
C876 C878 1.419 . S
C877 C872 1.425 . S
C877 C874 1.409 . S
C877 C875 1.415 . S
C878 H868 0.930 . S
C878 C876 1.419 . S
C878 C879 1.362 . S
C879 H869 0.930 . S
C879 C872 1.409 . S
C879 C878 1.362 . S
H880 C886 0.930 . S
H881 C889 0.930 . S
H882 C890 0.930 . S
H883 C891 0.930 . S
H884 C894 0.930 . S
H885 C895 0.930 . S
C886 H880 0.930 . S
C886 C887 1.355 . S
C886 C888 1.415 . S
C887 C886 1.355 . S
C887 C889 1.419 . S
C888 C886 1.415 . S
C888 C893 1.425 . S
C888 C895 1.409 . S
C889 H881 0.930 . S
C889 C887 1.419 . S
C889 C890 1.362 . S
C890 H882 0.930 . S
C890 C889 1.362 . S
C890 C893 1.409 . S
C891 H883 0.930 . S
C891 C892 1.355 . S
C891 C893 1.415 . S
C892 C891 1.355 . S
C892 C894 1.419 . S
C893 C888 1.425 . S
C893 C890 1.409 . S
C893 C891 1.415 . S
C894 H884 0.930 . S
C894 C892 1.419 . S
C894 C895 1.362 . S
C895 H885 0.930 . S
C895 C888 1.409 . S
C895 C894 1.362 . S
H896 C902 0.930 . S
H897 C905 0.930 . S
H898 C906 0.930 . S
H899 C907 0.930 . S
H900 C910 0.930 . S
H901 C911 0.930 . S
C902 H896 0.930 . S
C902 C903 1.355 . S
C902 C904 1.415 . S
C903 C902 1.355 . S
C903 C905 1.419 . S
C904 C902 1.415 . S
C904 C909 1.425 1_556 S
C904 C911 1.409 1_556 S
C905 H897 0.930 . S
C905 C903 1.419 . S
C905 C906 1.362 . S
C906 H898 0.930 . S
C906 C905 1.362 . S
C906 C909 1.409 1_556 S
C907 H899 0.930 . S
C907 C908 1.355 . S
C907 C909 1.415 . S
C908 C907 1.355 . S
C908 C910 1.419 . S
C909 C904 1.425 1_554 S
C909 C906 1.409 1_554 S
C909 C907 1.415 . S
C910 H900 0.930 . S
C910 C908 1.419 . S
C910 C911 1.362 . S
C911 H901 0.930 . S
C911 C904 1.409 1_554 S
C911 C910 1.362 . S
H912 C918 0.930 . S
H913 C921 0.930 . S
H914 C922 0.930 . S
H915 C923 0.930 . S
H916 C926 0.930 . S
H917 C927 0.930 . S
C918 H912 0.930 . S
C918 C919 1.355 . S
C918 C920 1.415 . S
C919 C918 1.355 . S
C919 C921 1.419 . S
C920 C918 1.415 . S
C920 C925 1.425 1_554 S
C920 C927 1.409 1_554 S
C921 H913 0.930 . S
C921 C919 1.419 . S
C921 C922 1.362 . S
C922 H914 0.930 . S
C922 C921 1.362 . S
C922 C925 1.409 1_554 S
C923 H915 0.930 . S
C923 C924 1.355 . S
C923 C925 1.415 . S
C924 C923 1.355 . S
C924 C926 1.419 . S
C925 C920 1.425 1_556 S
C925 C922 1.409 1_556 S
C925 C923 1.415 . S
C926 H916 0.930 . S
C926 C924 1.419 . S
C926 C927 1.362 . S
C927 H917 0.930 . S
C927 C920 1.409 1_556 S
C927 C926 1.362 . S
H928 C934 0.930 . S
H929 C937 0.930 . S
H930 C938 0.930 . S
H931 C939 0.930 . S
H932 C942 0.930 . S
H933 C943 0.930 . S
C934 H928 0.930 . S
C934 C935 1.355 . S
C934 C936 1.415 . S
C935 C934 1.355 . S
C935 C937 1.419 . S
C936 C934 1.415 . S
C936 C941 1.425 1_554 S
C936 C943 1.409 1_554 S
C937 H929 0.930 . S
C937 C935 1.419 . S
C937 C938 1.362 . S
C938 H930 0.930 . S
C938 C937 1.362 . S
C938 C941 1.409 1_554 S
C939 H931 0.930 . S
C939 C940 1.355 . S
C939 C941 1.415 . S
C940 C939 1.355 . S
C940 C942 1.419 . S
C941 C936 1.425 1_556 S
C941 C938 1.409 1_556 S
C941 C939 1.415 . S
C942 H932 0.930 . S
C942 C940 1.419 . S
C942 C943 1.362 . S
C943 H933 0.930 . S
C943 C936 1.409 1_556 S
C943 C942 1.362 . S
H944 C950 0.930 . S
H945 C953 0.930 . S
H946 C954 0.930 . S
H947 C955 0.930 . S
H948 C958 0.930 . S
H949 C959 0.930 . S
C950 H944 0.930 . S
C950 C951 1.355 . S
C950 C952 1.415 . S
C951 C950 1.355 . S
C951 C953 1.419 . S
C952 C950 1.415 . S
C952 C957 1.425 1_556 S
C952 C959 1.409 1_556 S
C953 H945 0.930 . S
C953 C951 1.419 . S
C953 C954 1.362 . S
C954 H946 0.930 . S
C954 C953 1.362 . S
C954 C957 1.409 1_556 S
C955 H947 0.930 . S
C955 C956 1.355 . S
C955 C957 1.415 . S
C956 C955 1.355 . S
C956 C958 1.419 . S
C957 C952 1.425 1_554 S
C957 C954 1.409 1_554 S
C957 C955 1.415 . S
C958 H948 0.930 . S
C958 C956 1.419 . S
C958 C959 1.362 . S
C959 H949 0.930 . S
C959 C952 1.409 1_554 S
C959 C958 1.362 . S
H960 C966 0.930 . S
H961 C969 0.930 . S
H962 C970 0.930 1_565 S
H963 C971 0.930 . S
H964 C974 0.930 . S
H965 C975 0.930 1_545 S
C966 H960 0.930 . S
C966 C967 1.355 . S
C966 C968 1.415 . S
C967 C966 1.355 . S
C967 C969 1.419 . S
C968 C966 1.415 . S
C968 C973 1.425 1_545 S
C968 C975 1.409 1_545 S
C969 H961 0.930 . S
C969 C967 1.419 . S
C969 C970 1.362 . S
C970 H962 0.930 1_545 S
C970 C969 1.362 . S
C970 C973 1.409 1_545 S
C971 H963 0.930 . S
C971 C972 1.355 . S
C971 C973 1.415 . S
C972 C971 1.355 . S
C972 C974 1.419 . S
C973 C968 1.425 1_565 S
C973 C970 1.409 1_565 S
C973 C971 1.415 . S
C974 H964 0.930 . S
C974 C972 1.419 . S
C974 C975 1.362 . S
C975 H965 0.930 1_565 S
C975 C968 1.409 1_565 S
C975 C974 1.362 . S
H976 C982 0.930 . S
H977 C985 0.930 . S
H978 C986 0.954 . S
H979 C987 0.930 . S
H980 C990 0.930 . S
H981 C991 0.954 . S
C982 H976 0.930 . S
C982 C983 1.355 . S
C982 C984 1.415 . S
C983 C982 1.355 . S
C983 C985 1.419 . S
C984 C982 1.415 . S
C984 C989 1.425 1_655 S
C984 C991 1.420 . S
C985 H977 0.930 . S
C985 C983 1.419 . S
C985 C986 1.329 1_655 S
C986 H978 0.954 . S
C986 C985 1.329 1_455 S
C986 C989 1.420 . S
C987 H979 0.930 . S
C987 C988 1.355 . S
C987 C989 1.415 . S
C988 C987 1.355 . S
C988 C990 1.419 . S
C989 C984 1.425 1_455 S
C989 C986 1.420 . S
C989 C987 1.415 . S
C990 H980 0.930 . S
C990 C988 1.419 . S
C990 C991 1.329 1_455 S
C991 H981 0.954 . S
C991 C984 1.420 . S
C991 C990 1.329 1_655 S
H992 C998 0.930 . S
H993 C1001 0.930 . S
H994 C1002 0.930 . S
H995 C1003 0.930 . S
H996 C1006 0.930 . S
H997 C1007 0.930 . S
C998 H992 0.930 . S
C998 C999 1.355 . S
C998 C1000 1.416 1_545 S
C999 C998 1.355 . S
C999 C1001 1.419 . S
C1000 C998 1.416 1_565 S
C1000 C1005 1.425 1_565 S
C1000 C1007 1.408 . S
C1001 H993 0.930 . S
C1001 C999 1.419 . S
C1001 C1002 1.362 . S
C1002 H994 0.930 . S
C1002 C1001 1.362 . S
C1002 C1005 1.408 . S
C1003 H995 0.930 . S
C1003 C1004 1.355 . S
C1003 C1005 1.416 1_565 S
C1004 C1003 1.355 . S
C1004 C1006 1.419 . S
C1005 C1000 1.425 1_545 S
C1005 C1002 1.408 . S
C1005 C1003 1.416 1_545 S
C1006 H996 0.930 . S
C1006 C1004 1.419 . S
C1006 C1007 1.362 . S
C1007 H997 0.930 . S
C1007 C1000 1.408 . S
C1007 C1006 1.362 . S
H1008 C1014 0.930 . S
H1009 C1017 0.930 . S
H1010 C1018 0.930 . S
H1011 C1019 0.930 . S
H1012 C1022 0.930 . S
H1013 C1023 0.930 . S
C1014 H1008 0.930 . S
C1014 C1015 1.355 . S
C1014 C1016 1.415 1_455 S
C1015 C1014 1.355 . S
C1015 C1017 1.419 . S
C1016 C1014 1.415 1_655 S
C1016 C1021 1.425 1_655 S
C1016 C1023 1.409 . S
C1017 H1009 0.930 . S
C1017 C1015 1.419 . S
C1017 C1018 1.362 . S
C1018 H1010 0.930 . S
C1018 C1017 1.362 . S
C1018 C1021 1.409 . S
C1019 H1011 0.930 . S
C1019 C1020 1.355 . S
C1019 C1021 1.415 1_655 S
C1020 C1019 1.355 . S
C1020 C1022 1.419 . S
C1021 C1016 1.425 1_455 S
C1021 C1018 1.409 . S
C1021 C1019 1.415 1_455 S
C1022 H1012 0.930 . S
C1022 C1020 1.419 . S
C1022 C1023 1.362 . S
C1023 H1013 0.930 . S
C1023 C1016 1.409 . S
C1023 C1022 1.362 . S
H1024 C1030 0.930 . S
H1025 C1033 0.930 . S
H1026 C1034 0.930 . S
H1027 C1035 0.930 . S
H1028 C1038 0.930 . S
H1029 C1039 0.930 . S
C1030 H1024 0.930 . S
C1030 C1031 1.355 . S
C1030 C1032 1.415 1_565 S
C1031 C1030 1.355 . S
C1031 C1033 1.419 . S
C1032 C1030 1.415 1_545 S
C1032 C1037 1.425 1_545 S
C1032 C1039 1.409 . S
C1033 H1025 0.930 . S
C1033 C1031 1.419 . S
C1033 C1034 1.362 . S
C1034 H1026 0.930 . S
C1034 C1033 1.362 . S
C1034 C1037 1.409 . S
C1035 H1027 0.930 . S
C1035 C1036 1.355 . S
C1035 C1037 1.415 1_545 S
C1036 C1035 1.355 . S
C1036 C1038 1.419 . S
C1037 C1032 1.425 1_565 S
C1037 C1034 1.409 . S
C1037 C1035 1.415 1_565 S
C1038 H1028 0.930 . S
C1038 C1036 1.419 . S
C1038 C1039 1.362 . S
C1039 H1029 0.930 . S
C1039 C1032 1.409 . S
C1039 C1038 1.362 . S
H1040 C1046 0.930 . S
H1041 C1049 0.930 . S
H1042 C1050 0.921 1_455 S
H1043 C1051 0.930 . S
H1044 C1054 0.930 . S
H1045 C1055 0.921 1_655 S
C1046 H1040 0.930 . S
C1046 C1047 1.355 . S
C1046 C1048 1.415 . S
C1047 C1046 1.355 . S
C1047 C1049 1.419 . S
C1048 C1046 1.415 . S
C1048 C1053 1.425 1_655 S
C1048 C1055 1.404 1_655 S
C1049 H1041 0.930 . S
C1049 C1047 1.419 . S
C1049 C1050 1.377 . S
C1050 H1042 0.921 1_655 S
C1050 C1049 1.377 . S
C1050 C1053 1.404 1_655 S
C1051 H1043 0.930 . S
C1051 C1052 1.355 . S
C1051 C1053 1.415 . S
C1052 C1051 1.355 . S
C1052 C1054 1.419 . S
C1053 C1048 1.425 1_455 S
C1053 C1050 1.404 1_455 S
C1053 C1051 1.415 . S
C1054 H1044 0.930 . S
C1054 C1052 1.419 . S
C1054 C1055 1.377 . S
C1055 H1045 0.921 1_455 S
C1055 C1048 1.404 1_455 S
C1055 C1054 1.377 . S
H1056 C1062 0.930 . S
H1057 C1065 0.930 . S
H1058 C1066 0.930 . S
H1059 C1067 0.930 . S
H1060 C1070 0.930 . S
H1061 C1071 0.930 . S
C1062 H1056 0.930 . S
C1062 C1063 1.355 . S
C1062 C1064 1.415 . S
C1063 C1062 1.355 . S
C1063 C1065 1.419 . S
C1064 C1062 1.415 . S
C1064 C1069 1.425 1_565 S
C1064 C1071 1.409 1_565 S
C1065 H1057 0.930 . S
C1065 C1063 1.419 . S
C1065 C1066 1.362 . S
C1066 H1058 0.930 . S
C1066 C1065 1.362 . S
C1066 C1069 1.409 1_565 S
C1067 H1059 0.930 . S
C1067 C1068 1.355 . S
C1067 C1069 1.415 . S
C1068 C1067 1.355 . S
C1068 C1070 1.419 . S
C1069 C1064 1.425 1_545 S
C1069 C1066 1.409 1_545 S
C1069 C1067 1.415 . S
C1070 H1060 0.930 . S
C1070 C1068 1.419 . S
C1070 C1071 1.362 . S
C1071 H1061 0.930 . S
C1071 C1064 1.409 1_545 S
C1071 C1070 1.362 . S
H1072 C1078 0.930 . S
H1073 C1081 0.930 . S
H1074 C1082 0.930 . S
H1075 C1083 0.930 . S
H1076 C1086 0.930 . S
H1077 C1087 0.930 . S
C1078 H1072 0.930 . S
C1078 C1079 1.355 . S
C1078 C1080 1.415 . S
C1079 C1078 1.355 . S
C1079 C1081 1.419 . S
C1080 C1078 1.415 . S
C1080 C1085 1.425 1_655 S
C1080 C1087 1.409 . S
C1081 H1073 0.930 . S
C1081 C1079 1.419 . S
C1081 C1082 1.362 1_655 S
C1082 H1074 0.930 . S
C1082 C1081 1.362 1_455 S
C1082 C1085 1.409 . S
C1083 H1075 0.930 . S
C1083 C1084 1.355 . S
C1083 C1085 1.415 . S
C1084 C1083 1.355 . S
C1084 C1086 1.419 . S
C1085 C1080 1.425 1_455 S
C1085 C1082 1.409 . S
C1085 C1083 1.415 . S
C1086 H1076 0.930 . S
C1086 C1084 1.419 . S
C1086 C1087 1.362 1_455 S
C1087 H1077 0.930 . S
C1087 C1080 1.409 . S
C1087 C1086 1.362 1_655 S
H1088 C1094 0.930 . S
H1089 C1097 0.930 . S
H1090 C1098 0.930 . S
H1091 C1099 0.930 . S
H1092 C1102 0.930 . S
H1093 C1103 0.930 . S
C1094 H1088 0.930 . S
C1094 C1095 1.355 . S
C1094 C1096 1.415 . S
C1095 C1094 1.355 . S
C1095 C1097 1.419 . S
C1096 C1094 1.415 . S
C1096 C1101 1.425 . S
C1096 C1103 1.409 . S
C1097 H1089 0.930 . S
C1097 C1095 1.419 . S
C1097 C1098 1.362 . S
C1098 H1090 0.930 . S
C1098 C1097 1.362 . S
C1098 C1101 1.409 . S
C1099 H1091 0.930 . S
C1099 C1100 1.355 . S
C1099 C1101 1.415 . S
C1100 C1099 1.355 . S
C1100 C1102 1.419 . S
C1101 C1096 1.425 . S
C1101 C1098 1.409 . S
C1101 C1099 1.415 . S
C1102 H1092 0.930 . S
C1102 C1100 1.419 . S
C1102 C1103 1.362 . S
C1103 H1093 0.930 . S
C1103 C1096 1.409 . S
C1103 C1102 1.362 . S
H1104 C1110 0.930 . S
H1105 C1113 0.930 . S
H1106 C1114 0.930 . S
H1107 C1115 0.930 . S
H1108 C1118 0.930 . S
H1109 C1119 0.930 . S
C1110 H1104 0.930 . S
C1110 C1111 1.355 . S
C1110 C1112 1.415 . S
C1111 C1110 1.355 . S
C1111 C1113 1.419 . S
C1112 C1110 1.415 . S
C1112 C1117 1.425 . S
C1112 C1119 1.409 . S
C1113 H1105 0.930 . S
C1113 C1111 1.419 . S
C1113 C1114 1.362 . S
C1114 H1106 0.930 . S
C1114 C1113 1.362 . S
C1114 C1117 1.409 . S
C1115 H1107 0.930 . S
C1115 C1116 1.355 . S
C1115 C1117 1.415 . S
C1116 C1115 1.355 . S
C1116 C1118 1.419 . S
C1117 C1112 1.425 . S
C1117 C1114 1.409 . S
C1117 C1115 1.415 . S
C1118 H1108 0.930 . S
C1118 C1116 1.419 . S
C1118 C1119 1.362 . S
C1119 H1109 0.930 . S
C1119 C1112 1.409 . S
C1119 C1118 1.362 . S
H1120 C1126 0.930 . S
H1121 C1129 0.930 . S
H1122 C1130 0.930 . S
H1123 C1131 0.930 . S
H1124 C1134 0.930 . S
H1125 C1135 0.930 . S
C1126 H1120 0.930 . S
C1126 C1127 1.355 . S
C1126 C1128 1.415 . S
C1127 C1126 1.355 . S
C1127 C1129 1.419 . S
C1128 C1126 1.415 . S
C1128 C1133 1.425 . S
C1128 C1135 1.409 . S
C1129 H1121 0.930 . S
C1129 C1127 1.419 . S
C1129 C1130 1.362 . S
C1130 H1122 0.930 . S
C1130 C1129 1.362 . S
C1130 C1133 1.409 . S
C1131 H1123 0.930 . S
C1131 C1132 1.355 . S
C1131 C1133 1.415 . S
C1132 C1131 1.355 . S
C1132 C1134 1.419 . S
C1133 C1128 1.425 . S
C1133 C1130 1.409 . S
C1133 C1131 1.415 . S
C1134 H1124 0.930 . S
C1134 C1132 1.419 . S
C1134 C1135 1.362 . S
C1135 H1125 0.930 . S
C1135 C1128 1.409 . S
C1135 C1134 1.362 . S
H1136 C1142 0.930 . S
H1137 C1145 0.930 . S
H1138 C1146 0.930 . S
H1139 C1147 0.930 . S
H1140 C1150 0.930 . S
H1141 C1151 0.930 . S
C1142 H1136 0.930 . S
C1142 C1143 1.355 . S
C1142 C1144 1.415 . S
C1143 C1142 1.355 . S
C1143 C1145 1.419 . S
C1144 C1142 1.415 . S
C1144 C1149 1.425 . S
C1144 C1151 1.409 . S
C1145 H1137 0.930 . S
C1145 C1143 1.419 . S
C1145 C1146 1.362 . S
C1146 H1138 0.930 . S
C1146 C1145 1.362 . S
C1146 C1149 1.409 . S
C1147 H1139 0.930 . S
C1147 C1148 1.355 . S
C1147 C1149 1.415 . S
C1148 C1147 1.355 . S
C1148 C1150 1.419 . S
C1149 C1144 1.425 . S
C1149 C1146 1.409 . S
C1149 C1147 1.415 . S
C1150 H1140 0.930 . S
C1150 C1148 1.419 . S
C1150 C1151 1.362 . S
C1151 H1141 0.930 . S
C1151 C1144 1.409 . S
C1151 C1150 1.362 . S
H1152 C1158 0.930 . S
H1153 C1161 0.930 . S
H1154 C1162 0.930 . S
H1155 C1163 0.930 . S
H1156 C1166 0.930 . S
H1157 C1167 0.930 . S
C1158 H1152 0.930 . S
C1158 C1159 1.355 . S
C1158 C1160 1.415 . S
C1159 C1158 1.355 . S
C1159 C1161 1.419 . S
C1160 C1158 1.415 . S
C1160 C1165 1.425 . S
C1160 C1167 1.409 . S
C1161 H1153 0.930 . S
C1161 C1159 1.419 . S
C1161 C1162 1.362 . S
C1162 H1154 0.930 . S
C1162 C1161 1.362 . S
C1162 C1165 1.409 . S
C1163 H1155 0.930 . S
C1163 C1164 1.355 . S
C1163 C1165 1.415 . S
C1164 C1163 1.355 . S
C1164 C1166 1.419 . S
C1165 C1160 1.425 . S
C1165 C1162 1.409 . S
C1165 C1163 1.415 . S
C1166 H1156 0.930 . S
C1166 C1164 1.419 . S
C1166 C1167 1.362 . S
C1167 H1157 0.930 . S
C1167 C1160 1.409 . S
C1167 C1166 1.362 . S
H1168 C1174 0.930 . S
H1169 C1177 0.930 . S
H1170 C1178 0.930 . S
H1171 C1179 0.930 . S
H1172 C1182 0.930 . S
H1173 C1183 0.930 . S
C1174 H1168 0.930 . S
C1174 C1175 1.355 . S
C1174 C1176 1.415 . S
C1175 C1174 1.355 . S
C1175 C1177 1.419 . S
C1176 C1174 1.415 . S
C1176 C1181 1.425 . S
C1176 C1183 1.409 . S
C1177 H1169 0.930 . S
C1177 C1175 1.419 . S
C1177 C1178 1.362 . S
C1178 H1170 0.930 . S
C1178 C1177 1.362 . S
C1178 C1181 1.409 . S
C1179 H1171 0.930 . S
C1179 C1180 1.355 . S
C1179 C1181 1.415 . S
C1180 C1179 1.355 . S
C1180 C1182 1.419 . S
C1181 C1176 1.425 . S
C1181 C1178 1.409 . S
C1181 C1179 1.415 . S
C1182 H1172 0.930 . S
C1182 C1180 1.419 . S
C1182 C1183 1.362 . S
C1183 H1173 0.930 . S
C1183 C1176 1.409 . S
C1183 C1182 1.362 . S
H1184 C1190 0.930 . S
H1185 C1193 0.930 . S
H1186 C1194 0.930 . S
H1187 C1195 0.930 . S
H1188 C1198 0.930 . S
H1189 C1199 0.930 . S
C1190 H1184 0.930 . S
C1190 C1191 1.355 . S
C1190 C1192 1.415 . S
C1191 C1190 1.355 . S
C1191 C1193 1.419 . S
C1192 C1190 1.415 . S
C1192 C1197 1.425 . S
C1192 C1199 1.409 . S
C1193 H1185 0.930 . S
C1193 C1191 1.419 . S
C1193 C1194 1.362 . S
C1194 H1186 0.930 . S
C1194 C1193 1.362 . S
C1194 C1197 1.409 . S
C1195 H1187 0.930 . S
C1195 C1196 1.355 . S
C1195 C1197 1.415 . S
C1196 C1195 1.355 . S
C1196 C1198 1.419 . S
C1197 C1192 1.425 . S
C1197 C1194 1.409 . S
C1197 C1195 1.415 . S
C1198 H1188 0.930 . S
C1198 C1196 1.419 . S
C1198 C1199 1.362 . S
C1199 H1189 0.930 . S
C1199 C1192 1.409 . S
C1199 C1198 1.362 . S
H1200 C1206 0.930 . S
H1201 C1209 0.930 . S
H1202 C1210 0.930 . S
H1203 C1211 0.930 . S
H1204 C1214 0.930 . S
H1205 C1215 0.930 . S
C1206 H1200 0.930 . S
C1206 C1207 1.355 . S
C1206 C1208 1.415 . S
C1207 C1206 1.355 . S
C1207 C1209 1.419 . S
C1208 C1206 1.415 . S
C1208 C1213 1.425 . S
C1208 C1215 1.409 . S
C1209 H1201 0.930 . S
C1209 C1207 1.419 . S
C1209 C1210 1.362 . S
C1210 H1202 0.930 . S
C1210 C1209 1.362 . S
C1210 C1213 1.409 . S
C1211 H1203 0.930 . S
C1211 C1212 1.355 . S
C1211 C1213 1.415 . S
C1212 C1211 1.355 . S
C1212 C1214 1.419 . S
C1213 C1208 1.425 . S
C1213 C1210 1.409 . S
C1213 C1211 1.415 . S
C1214 H1204 0.930 . S
C1214 C1212 1.419 . S
C1214 C1215 1.362 . S
C1215 H1205 0.930 . S
C1215 C1208 1.409 . S
C1215 C1214 1.362 . S
H1216 C1222 0.930 . S
H1217 C1225 0.930 . S
H1218 C1226 0.930 . S
H1219 C1227 0.930 . S
H1220 C1230 0.930 . S
H1221 C1231 0.930 . S
C1222 H1216 0.930 . S
C1222 C1223 1.355 . S
C1222 C1224 1.415 . S
C1223 C1222 1.355 . S
C1223 C1225 1.419 . S
C1224 C1222 1.415 . S
C1224 C1229 1.425 . S
C1224 C1231 1.409 . S
C1225 H1217 0.930 . S
C1225 C1223 1.419 . S
C1225 C1226 1.362 . S
C1226 H1218 0.930 . S
C1226 C1225 1.362 . S
C1226 C1229 1.409 . S
C1227 H1219 0.930 . S
C1227 C1228 1.355 . S
C1227 C1229 1.415 . S
C1228 C1227 1.355 . S
C1228 C1230 1.419 . S
C1229 C1224 1.425 . S
C1229 C1226 1.409 . S
C1229 C1227 1.415 . S
C1230 H1220 0.930 . S
C1230 C1228 1.419 . S
C1230 C1231 1.362 . S
C1231 H1221 0.930 . S
C1231 C1224 1.409 . S
C1231 C1230 1.362 . S
H1232 C1238 0.930 . S
H1233 C1241 0.930 . S
H1234 C1242 0.930 . S
H1235 C1243 0.930 . S
H1236 C1246 0.930 . S
H1237 C1247 0.930 . S
C1238 H1232 0.930 . S
C1238 C1239 1.355 . S
C1238 C1240 1.415 . S
C1239 C1238 1.355 . S
C1239 C1241 1.419 . S
C1240 C1238 1.415 . S
C1240 C1245 1.425 . S
C1240 C1247 1.409 . S
C1241 H1233 0.930 . S
C1241 C1239 1.419 . S
C1241 C1242 1.362 . S
C1242 H1234 0.930 . S
C1242 C1241 1.362 . S
C1242 C1245 1.409 . S
C1243 H1235 0.930 . S
C1243 C1244 1.355 . S
C1243 C1245 1.415 . S
C1244 C1243 1.355 . S
C1244 C1246 1.419 . S
C1245 C1240 1.425 . S
C1245 C1242 1.409 . S
C1245 C1243 1.415 . S
C1246 H1236 0.930 . S
C1246 C1244 1.419 . S
C1246 C1247 1.362 . S
C1247 H1237 0.930 . S
C1247 C1240 1.409 . S
C1247 C1246 1.362 . S
H1248 C1254 0.930 . S
H1249 C1257 0.930 . S
H1250 C1258 0.930 . S
H1251 C1259 0.930 . S
H1252 C1262 0.930 . S
H1253 C1263 0.930 . S
C1254 H1248 0.930 . S
C1254 C1255 1.355 . S
C1254 C1256 1.415 . S
C1255 C1254 1.355 . S
C1255 C1257 1.419 . S
C1256 C1254 1.415 . S
C1256 C1261 1.425 . S
C1256 C1263 1.409 . S
C1257 H1249 0.930 . S
C1257 C1255 1.419 . S
C1257 C1258 1.362 . S
C1258 H1250 0.930 . S
C1258 C1257 1.362 . S
C1258 C1261 1.409 . S
C1259 H1251 0.930 . S
C1259 C1260 1.355 . S
C1259 C1261 1.415 . S
C1260 C1259 1.355 . S
C1260 C1262 1.419 . S
C1261 C1256 1.425 . S
C1261 C1258 1.409 . S
C1261 C1259 1.415 . S
C1262 H1252 0.930 . S
C1262 C1260 1.419 . S
C1262 C1263 1.362 . S
C1263 H1253 0.930 . S
C1263 C1256 1.409 . S
C1263 C1262 1.362 . S
H1264 C1270 0.930 . S
H1265 C1273 0.930 . S
H1266 C1274 0.930 . S
H1267 C1275 0.930 . S
H1268 C1278 0.930 . S
H1269 C1279 0.930 . S
C1270 H1264 0.930 . S
C1270 C1271 1.355 . S
C1270 C1272 1.415 . S
C1271 C1270 1.355 . S
C1271 C1273 1.419 . S
C1272 C1270 1.415 . S
C1272 C1277 1.425 . S
C1272 C1279 1.409 . S
C1273 H1265 0.930 . S
C1273 C1271 1.419 . S
C1273 C1274 1.362 . S
C1274 H1266 0.930 . S
C1274 C1273 1.362 . S
C1274 C1277 1.409 . S
C1275 H1267 0.930 . S
C1275 C1276 1.355 . S
C1275 C1277 1.415 . S
C1276 C1275 1.355 . S
C1276 C1278 1.419 . S
C1277 C1272 1.425 . S
C1277 C1274 1.409 . S
C1277 C1275 1.415 . S
C1278 H1268 0.930 . S
C1278 C1276 1.419 . S
C1278 C1279 1.362 . S
C1279 H1269 0.930 . S
C1279 C1272 1.409 . S
C1279 C1278 1.362 . S
H1280 C1286 0.930 . S
H1281 C1289 0.930 . S
H1282 C1290 0.930 . S
H1283 C1291 0.930 . S
H1284 C1294 0.930 . S
H1285 C1295 0.930 . S
C1286 H1280 0.930 . S
C1286 C1287 1.355 . S
C1286 C1288 1.415 . S
C1287 C1286 1.355 . S
C1287 C1289 1.419 . S
C1288 C1286 1.415 . S
C1288 C1293 1.425 . S
C1288 C1295 1.409 . S
C1289 H1281 0.930 . S
C1289 C1287 1.419 . S
C1289 C1290 1.362 . S
C1290 H1282 0.930 . S
C1290 C1289 1.362 . S
C1290 C1293 1.409 . S
C1291 H1283 0.930 . S
C1291 C1292 1.355 . S
C1291 C1293 1.415 . S
C1292 C1291 1.355 . S
C1292 C1294 1.419 . S
C1293 C1288 1.425 . S
C1293 C1290 1.409 . S
C1293 C1291 1.415 . S
C1294 H1284 0.930 . S
C1294 C1292 1.419 . S
C1294 C1295 1.362 . S
C1295 H1285 0.930 . S
C1295 C1288 1.409 . S
C1295 C1294 1.362 . S
H1296 C1302 0.930 . S
H1297 C1305 0.930 . S
H1298 C1306 0.930 . S
H1299 C1307 0.930 . S
H1300 C1310 0.930 . S
H1301 C1311 0.930 . S
C1302 H1296 0.930 . S
C1302 C1303 1.355 . S
C1302 C1304 1.415 . S
C1303 C1302 1.355 . S
C1303 C1305 1.419 . S
C1304 C1302 1.415 . S
C1304 C1309 1.425 . S
C1304 C1311 1.409 . S
C1305 H1297 0.930 . S
C1305 C1303 1.419 . S
C1305 C1306 1.362 . S
C1306 H1298 0.930 . S
C1306 C1305 1.362 . S
C1306 C1309 1.409 . S
C1307 H1299 0.930 . S
C1307 C1308 1.355 . S
C1307 C1309 1.415 . S
C1308 C1307 1.355 . S
C1308 C1310 1.419 . S
C1309 C1304 1.425 . S
C1309 C1306 1.409 . S
C1309 C1307 1.415 . S
C1310 H1300 0.930 . S
C1310 C1308 1.419 . S
C1310 C1311 1.362 . S
C1311 H1301 0.930 . S
C1311 C1304 1.409 . S
C1311 C1310 1.362 . S
H1312 C1318 0.930 . S
H1313 C1321 0.930 . S
H1314 C1322 0.930 . S
H1315 C1323 0.930 . S
H1316 C1326 0.930 . S
H1317 C1327 0.930 . S
C1318 H1312 0.930 . S
C1318 C1319 1.355 . S
C1318 C1320 1.415 . S
C1319 C1318 1.355 . S
C1319 C1321 1.419 . S
C1320 C1318 1.415 . S
C1320 C1325 1.425 . S
C1320 C1327 1.409 . S
C1321 H1313 0.930 . S
C1321 C1319 1.419 . S
C1321 C1322 1.362 . S
C1322 H1314 0.930 . S
C1322 C1321 1.362 . S
C1322 C1325 1.409 . S
C1323 H1315 0.930 . S
C1323 C1324 1.355 . S
C1323 C1325 1.415 . S
C1324 C1323 1.355 . S
C1324 C1326 1.419 . S
C1325 C1320 1.425 . S
C1325 C1322 1.409 . S
C1325 C1323 1.415 . S
C1326 H1316 0.930 . S
C1326 C1324 1.419 . S
C1326 C1327 1.362 . S
C1327 H1317 0.930 . S
C1327 C1320 1.409 . S
C1327 C1326 1.362 . S
H1328 C1334 0.930 . S
H1329 C1337 0.930 . S
H1330 C1338 0.930 . S
H1331 C1339 0.930 . S
H1332 C1342 0.930 . S
H1333 C1343 0.930 . S
C1334 H1328 0.930 . S
C1334 C1335 1.355 . S
C1334 C1336 1.415 . S
C1335 C1334 1.355 . S
C1335 C1337 1.419 . S
C1336 C1334 1.415 . S
C1336 C1341 1.425 . S
C1336 C1343 1.409 . S
C1337 H1329 0.930 . S
C1337 C1335 1.419 . S
C1337 C1338 1.362 . S
C1338 H1330 0.930 . S
C1338 C1337 1.362 . S
C1338 C1341 1.409 . S
C1339 H1331 0.930 . S
C1339 C1340 1.355 . S
C1339 C1341 1.415 . S
C1340 C1339 1.355 . S
C1340 C1342 1.419 . S
C1341 C1336 1.425 . S
C1341 C1338 1.409 . S
C1341 C1339 1.415 . S
C1342 H1332 0.930 . S
C1342 C1340 1.419 . S
C1342 C1343 1.362 . S
C1343 H1333 0.930 . S
C1343 C1336 1.409 . S
C1343 C1342 1.362 . S
H1344 C1350 0.930 . S
H1345 C1353 0.930 . S
H1346 C1354 0.930 . S
H1347 C1355 0.930 . S
H1348 C1358 0.930 . S
H1349 C1359 0.930 . S
C1350 H1344 0.930 . S
C1350 C1351 1.355 . S
C1350 C1352 1.415 . S
C1351 C1350 1.355 . S
C1351 C1353 1.419 . S
C1352 C1350 1.415 . S
C1352 C1357 1.425 . S
C1352 C1359 1.409 . S
C1353 H1345 0.930 . S
C1353 C1351 1.419 . S
C1353 C1354 1.362 . S
C1354 H1346 0.930 . S
C1354 C1353 1.362 . S
C1354 C1357 1.409 . S
C1355 H1347 0.930 . S
C1355 C1356 1.355 . S
C1355 C1357 1.415 . S
C1356 C1355 1.355 . S
C1356 C1358 1.419 . S
C1357 C1352 1.425 . S
C1357 C1354 1.409 . S
C1357 C1355 1.415 . S
C1358 H1348 0.930 . S
C1358 C1356 1.419 . S
C1358 C1359 1.362 . S
C1359 H1349 0.930 . S
C1359 C1352 1.409 . S
C1359 C1358 1.362 . S
H1360 C1366 0.930 . S
H1361 C1369 0.930 . S
H1362 C1370 0.930 . S
H1363 C1371 0.930 . S
H1364 C1374 0.930 . S
H1365 C1375 0.930 . S
C1366 H1360 0.930 . S
C1366 C1367 1.355 . S
C1366 C1368 1.415 . S
C1367 C1366 1.355 . S
C1367 C1369 1.419 . S
C1368 C1366 1.415 . S
C1368 C1373 1.425 . S
C1368 C1375 1.409 . S
C1369 H1361 0.930 . S
C1369 C1367 1.419 . S
C1369 C1370 1.362 . S
C1370 H1362 0.930 . S
C1370 C1369 1.362 . S
C1370 C1373 1.409 . S
C1371 H1363 0.930 . S
C1371 C1372 1.355 . S
C1371 C1373 1.415 . S
C1372 C1371 1.355 . S
C1372 C1374 1.419 . S
C1373 C1368 1.425 . S
C1373 C1370 1.409 . S
C1373 C1371 1.415 . S
C1374 H1364 0.930 . S
C1374 C1372 1.419 . S
C1374 C1375 1.362 . S
C1375 H1365 0.930 . S
C1375 C1368 1.409 . S
C1375 C1374 1.362 . S
H1376 C1382 0.930 . S
H1377 C1385 0.930 . S
H1378 C1386 0.930 . S
H1379 C1387 0.930 . S
H1380 C1390 0.930 . S
H1381 C1391 0.930 . S
C1382 H1376 0.930 . S
C1382 C1383 1.355 . S
C1382 C1384 1.415 . S
C1383 C1382 1.355 . S
C1383 C1385 1.419 . S
C1384 C1382 1.415 . S
C1384 C1389 1.425 . S
C1384 C1391 1.409 . S
C1385 H1377 0.930 . S
C1385 C1383 1.419 . S
C1385 C1386 1.362 . S
C1386 H1378 0.930 . S
C1386 C1385 1.362 . S
C1386 C1389 1.409 . S
C1387 H1379 0.930 . S
C1387 C1388 1.355 . S
C1387 C1389 1.415 . S
C1388 C1387 1.355 . S
C1388 C1390 1.419 . S
C1389 C1384 1.425 . S
C1389 C1386 1.409 . S
C1389 C1387 1.415 . S
C1390 H1380 0.930 . S
C1390 C1388 1.419 . S
C1390 C1391 1.362 . S
C1391 H1381 0.930 . S
C1391 C1384 1.409 . S
C1391 C1390 1.362 . S
H1392 C1398 0.930 . S
H1393 C1401 0.930 . S
H1394 C1402 0.930 . S
H1395 C1403 0.930 . S
H1396 C1406 0.930 . S
H1397 C1407 0.930 . S
C1398 H1392 0.930 . S
C1398 C1399 1.355 . S
C1398 C1400 1.415 . S
C1399 C1398 1.355 . S
C1399 C1401 1.419 . S
C1400 C1398 1.415 . S
C1400 C1405 1.425 . S
C1400 C1407 1.409 . S
C1401 H1393 0.930 . S
C1401 C1399 1.419 . S
C1401 C1402 1.362 . S
C1402 H1394 0.930 . S
C1402 C1401 1.362 . S
C1402 C1405 1.409 . S
C1403 H1395 0.930 . S
C1403 C1404 1.355 . S
C1403 C1405 1.415 . S
C1404 C1403 1.355 . S
C1404 C1406 1.419 . S
C1405 C1400 1.425 . S
C1405 C1402 1.409 . S
C1405 C1403 1.415 . S
C1406 H1396 0.930 . S
C1406 C1404 1.419 . S
C1406 C1407 1.362 . S
C1407 H1397 0.930 . S
C1407 C1400 1.409 . S
C1407 C1406 1.362 . S
H1408 C1414 0.930 . S
H1409 C1417 0.930 . S
H1410 C1418 0.930 . S
H1411 C1419 0.930 . S
H1412 C1422 0.930 . S
H1413 C1423 0.930 . S
C1414 H1408 0.930 . S
C1414 C1415 1.355 . S
C1414 C1416 1.415 . S
C1415 C1414 1.355 . S
C1415 C1417 1.419 . S
C1416 C1414 1.415 . S
C1416 C1421 1.425 . S
C1416 C1423 1.409 . S
C1417 H1409 0.930 . S
C1417 C1415 1.419 . S
C1417 C1418 1.362 . S
C1418 H1410 0.930 . S
C1418 C1417 1.362 . S
C1418 C1421 1.409 . S
C1419 H1411 0.930 . S
C1419 C1420 1.355 . S
C1419 C1421 1.415 . S
C1420 C1419 1.355 . S
C1420 C1422 1.419 . S
C1421 C1416 1.425 . S
C1421 C1418 1.409 . S
C1421 C1419 1.415 . S
C1422 H1412 0.930 . S
C1422 C1420 1.419 . S
C1422 C1423 1.362 . S
C1423 H1413 0.930 . S
C1423 C1416 1.409 . S
C1423 C1422 1.362 . S
H1424 C1430 0.930 . S
H1425 C1433 0.930 . S
H1426 C1434 0.930 . S
H1427 C1435 0.930 . S
H1428 C1438 0.930 . S
H1429 C1439 0.930 . S
C1430 H1424 0.930 . S
C1430 C1431 1.355 . S
C1430 C1432 1.415 . S
C1431 C1430 1.355 . S
C1431 C1433 1.419 . S
C1432 C1430 1.415 . S
C1432 C1437 1.425 . S
C1432 C1439 1.409 . S
C1433 H1425 0.930 . S
C1433 C1431 1.419 . S
C1433 C1434 1.362 . S
C1434 H1426 0.930 . S
C1434 C1433 1.362 . S
C1434 C1437 1.409 . S
C1435 H1427 0.930 . S
C1435 C1436 1.355 . S
C1435 C1437 1.415 . S
C1436 C1435 1.355 . S
C1436 C1438 1.419 . S
C1437 C1432 1.425 . S
C1437 C1434 1.409 . S
C1437 C1435 1.415 . S
C1438 H1428 0.930 . S
C1438 C1436 1.419 . S
C1438 C1439 1.362 . S
C1439 H1429 0.930 . S
C1439 C1432 1.409 . S
C1439 C1438 1.362 . S
H1440 C1446 0.930 . S
H1441 C1449 0.930 . S
H1442 C1450 0.930 . S
H1443 C1451 0.930 . S
H1444 C1454 0.930 . S
H1445 C1455 0.930 . S
C1446 H1440 0.930 . S
C1446 C1447 1.355 . S
C1446 C1448 1.415 . S
C1447 C1446 1.355 . S
C1447 C1449 1.419 . S
C1448 C1446 1.415 . S
C1448 C1453 1.425 . S
C1448 C1455 1.409 . S
C1449 H1441 0.930 . S
C1449 C1447 1.419 . S
C1449 C1450 1.362 . S
C1450 H1442 0.930 . S
C1450 C1449 1.362 . S
C1450 C1453 1.409 . S
C1451 H1443 0.930 . S
C1451 C1452 1.355 . S
C1451 C1453 1.415 . S
C1452 C1451 1.355 . S
C1452 C1454 1.419 . S
C1453 C1448 1.425 . S
C1453 C1450 1.409 . S
C1453 C1451 1.415 . S
C1454 H1444 0.930 . S
C1454 C1452 1.419 . S
C1454 C1455 1.362 . S
C1455 H1445 0.930 . S
C1455 C1448 1.409 . S
C1455 C1454 1.362 . S
H1456 C1462 0.930 . S
H1457 C1465 0.930 . S
H1458 C1466 0.930 . S
H1459 C1467 0.930 . S
H1460 C1470 0.930 . S
H1461 C1471 0.930 . S
C1462 H1456 0.930 . S
C1462 C1463 1.355 . S
C1462 C1464 1.415 . S
C1463 C1462 1.355 . S
C1463 C1465 1.419 . S
C1464 C1462 1.415 . S
C1464 C1469 1.425 . S
C1464 C1471 1.409 . S
C1465 H1457 0.930 . S
C1465 C1463 1.419 . S
C1465 C1466 1.362 . S
C1466 H1458 0.930 . S
C1466 C1465 1.362 . S
C1466 C1469 1.409 . S
C1467 H1459 0.930 . S
C1467 C1468 1.355 . S
C1467 C1469 1.415 . S
C1468 C1467 1.355 . S
C1468 C1470 1.419 . S
C1469 C1464 1.425 . S
C1469 C1466 1.409 . S
C1469 C1467 1.415 . S
C1470 H1460 0.930 . S
C1470 C1468 1.419 . S
C1470 C1471 1.362 . S
C1471 H1461 0.930 . S
C1471 C1464 1.409 . S
C1471 C1470 1.362 . S
C455 C410 1.241 . S
C460 C4 1.255 . S
C471 C18 1.218 . S
C476 C424 1.277 . S
C487 C438 1.225 . S
C492 C32 1.270 . S
C503 C396 1.233 . S
C508 C46 1.263 . S
C519 C60 1.258 . S
C524 C382 1.238 . S
C535 C340 1.271 . S
C540 C74 1.225 . S
C551 C88 1.221 . S
C556 C354 1.275 . S
C567 C368 1.270 . S
C572 C102 1.226 . S
C583 C116 1.275 . S
C588 C298 1.221 . S
C599 C130 1.278 . S
C604 C312 1.217 . S
C615 C326 1.217 . S
C620 C144 1.278 . S
C631 C158 1.219 . S
C636 C284 1.277 . S
C647 C270 1.246 . S
C652 C172 1.250 . S
C663 C228 1.273 . S
C668 C186 1.222 . S
C679 C200 1.222 . S
C684 C242 1.274 . S
C695 C214 1.216 . S
C700 C256 1.279 . S
C711 C5 1.231 . S
C716 C145 1.354 . S
C727 C159 1.354 . S
C732 C19 1.231 . S
C743 C117 1.259 . S
C748 C33 1.328 . S
C759 C131 1.258 . S
C764 C47 1.328 . S
C775 C61 1.281 . S
C780 C201 1.307 . S
C791 C215 1.359 . S
C796 C75 1.226 . S
C807 C173 1.247 . S
C812 C89 1.339 . S
C823 C187 1.233 . S
C828 C103 1.352 . S
C839 C229 1.263 . S
C844 C369 1.324 . S
C855 C383 1.350 . S
C860 C243 1.235 . S
C871 C341 1.292 . S
C876 C257 1.296 . S
C887 C271 1.254 . S
C892 C355 1.333 . S
C903 C285 1.318 . S
C908 C425 1.270 . S
C919 C439 1.359 . S
C924 C299 1.226 . S
C935 C397 1.268 . S
C940 C313 1.319 . S
C951 C327 1.234 . S
C956 C411 1.351 . S
C967 C11 1.226 . S
C972 C67 1.218 . S
C983 C25 1.232 . S
C988 C81 1.226 . S
C999 C95 1.197 . S
C1004 C39 1.204 . S
C1015 C53 1.186 . S
C1020 C109 1.186 . S
C1031 C123 1.195 . S
C1036 C179 1.190 . S
C1047 C193 1.237 . S
C1052 C137 1.234 . S
C1063 C207 1.222 . S
C1068 C151 1.214 . S
C1079 C165 1.233 . S
C1084 C221 1.237 . S
C1095 C235 1.229 . S
C1100 C291 1.222 . S
C1111 C305 1.238 . S
C1116 C249 1.236 . S
C1127 C263 1.205 . S
C1132 C319 1.197 . S
C1143 C333 1.232 . S
C1148 C277 1.225 . S
C1159 C403 1.232 . S
C1164 C347 1.236 . S
C1175 C361 1.203 . S
C1180 C417 1.196 . S
C1191 C375 1.186 . S
C1196 C431 1.187 . S
C1207 C389 1.235 . S
C1212 C445 1.237 . S
C1223 C12 1.530 . S
C1228 C82 1.516 . S
C1239 C26 1.521 . S
C1244 C96 1.523 . S
C1255 C110 1.528 . S
C1260 C40 1.517 . S
C1271 C68 1.517 . S
C1276 C54 1.530 . S
C1287 C194 1.528 . S
C1292 C124 1.517 . S
C1303 C208 1.520 . S
C1308 C138 1.524 . S
C1319 C222 1.528 . S
C1324 C152 1.517 . S
C1335 C166 1.529 . S
C1340 C180 1.516 . S
C1351 C236 1.530 . S
C1356 C306 1.516 . S
C1367 C320 1.530 . S
C1372 C250 1.516 . S
C1383 C334 1.516 . S
C1388 C264 1.530 . S
C1399 C278 1.518 . S
C1404 C292 1.529 . S
C1415 C418 1.516 . S
C1420 C348 1.530 . S
C1431 C362 1.525 . S
C1436 C432 1.523 . S
C1447 C376 1.528 . S
C1452 C446 1.520 . S
C1463 C404 1.519 . S
C1468 C390 1.528 . S
