# Generated by pormake.
# Topology wje, (4)-cn, num edge types: 1
# Building blocks:
#     Node 0, Type 0, BuildingBlock: UXUYUI_clean_sbu_0, # of connection points: 4
#     Node 1, Type 0, BuildingBlock: UXUYUI_clean_sbu_0, # of connection points: 4
#     Node 2, Type 0, BuildingBlock: UXUYUI_clean_sbu_0, # of connection points: 4
#     Node 3, Type 0, BuildingBlock: UXUYUI_clean_sbu_0, # of connection points: 4
#     Node 4, Type 0, BuildingBlock: UXUYUI_clean_sbu_0, # of connection points: 4
#     Node 5, Type 0, BuildingBlock: UXUYUI_clean_sbu_0, # of connection points: 4
#     Node 6, Type 0, BuildingBlock: UXUYUI_clean_sbu_0, # of connection points: 4
#     Node 7, Type 0, BuildingBlock: UXUYUI_clean_sbu_0, # of connection points: 4
#     Node 8, Type 0, BuildingBlock: UXUYUI_clean_sbu_0, # of connection points: 4
#     Node 9, Type 0, BuildingBlock: UXUYUI_clean_sbu_0, # of connection points: 4
#     Node 10, Type 0, BuildingBlock: UXUYUI_clean_sbu_0, # of connection points: 4
#     Node 11, Type 0, BuildingBlock: UXUYUI_clean_sbu_0, # of connection points: 4
#     Edge 12, Type (0, 0), None
#     Edge 13, Type (0, 0), None
#     Edge 14, Type (0, 0), None
#     Edge 15, Type (0, 0), None
#     Edge 16, Type (0, 0), None
#     Edge 17, Type (0, 0), None
#     Edge 18, Type (0, 0), None
#     Edge 19, Type (0, 0), None
#     Edge 20, Type (0, 0), None
#     Edge 21, Type (0, 0), None
#     Edge 22, Type (0, 0), None
#     Edge 23, Type (0, 0), None
#     Edge 24, Type (0, 0), None
#     Edge 25, Type (0, 0), None
#     Edge 26, Type (0, 0), None
#     Edge 27, Type (0, 0), None
#     Edge 28, Type (0, 0), None
#     Edge 29, Type (0, 0), None
#     Edge 30, Type (0, 0), None
#     Edge 31, Type (0, 0), None
#     Edge 32, Type (0, 0), None
#     Edge 33, Type (0, 0), None
#     Edge 34, Type (0, 0), None
#     Edge 35, Type (0, 0), None
# Relax obj value: 0.245
# Max RMSD: 0.179
# Mean RMSD: 0.178
data_MOF--net-wje--node1-UXUYUI_clean_sbu_0--edge1-none
_symmetry_space_group_name_H-M    P1
_symmetry_Int_Tables_number       1
_symmetry_cell_setting            triclinic
loop_
_symmetry_equiv_pos_as_xyz
'x, y, z'
_cell_length_a     39.097342
_cell_length_b     39.097872
_cell_length_c     30.83086
_cell_angle_alpha  90.00109
_cell_angle_beta   89.998813
_cell_angle_gamma 119.99215
loop_
_atom_site_label
_atom_site_type_symbol
_atom_site_fract_x
_atom_site_fract_y
_atom_site_fract_z
_atom_type_partial_charge
Li0 Li 0.36978 0.00768 0.26203 0.0
Li1 Li 0.34419 0.02645 0.32639 0.0
Li2 Li 0.29762 0.97694 0.27683 0.0
Li3 Li 0.33355 0.04655 0.25358 0.0
C4 C 0.33224 0.93842 0.31808 0.0
N5 N 0.31662 0.86214 0.33169 0.0
C6 C 0.32949 0.92424 0.3603 0.0
C7 C 0.32727 0.91394 0.28279 0.0
C8 C 0.3215 0.88554 0.3665 0.0
C9 C 0.31934 0.87543 0.29035 0.0
C10 C 0.41044 0.09342 0.30829 0.0
C11 C 0.42776 0.1545 0.34476 0.0
N12 N 0.46146 0.15638 0.35949 0.0
C13 C 0.44533 0.09603 0.32351 0.0
C14 C 0.40161 0.12292 0.31873 0.0
C15 C 0.47071 0.12808 0.34947 0.0
C16 C 0.43566 0.01392 0.2103 0.0
N17 N 0.41458 1.00224 0.24791 0.0
C18 C 0.46187 0.98815 0.27966 0.0
C19 C 0.42708 0.98946 0.28209 0.0
C20 C 0.48549 1.00172 0.24228 0.0
C21 C 0.47151 0.01386 0.20673 0.0
H22 H 0.42555 0.02477 0.18382 0.0
H23 H 0.41088 0.9817 0.3122 0.0
C24 C 0.3117 0.01716 0.40609 0.0
N25 N 0.34759 0.03088 0.38722 0.0
C26 C 0.30619 0.00662 0.44957 0.0
C27 C 0.37518 0.02572 0.4544 0.0
C28 C 0.37925 0.03542 0.41026 0.0
C29 C 0.33796 0.01032 0.47437 0.0
H30 H 0.28645 0.01141 0.38668 0.0
H31 H 0.40688 0.04415 0.39397 0.0
C32 C 0.29857 0.97684 0.18919 0.0
N33 N 0.2422 0.93276 0.12765 0.0
C34 C 0.26827 0.98483 0.17992 0.0
C35 C 0.30029 0.94651 0.16713 0.0
C36 C 0.24006 0.96223 0.14866 0.0
C37 C 0.27145 0.9245 0.13618 0.0
C38 C 0.26937 0.0338 0.3092 0.0
C39 C 0.23047 0.01087 0.29467 0.0
C40 C 0.2806 0.06883 0.3318 0.0
C41 C 0.20348 0.02365 0.30267 0.0
C42 C 0.25273 0.08059 0.33914 0.0
N43 N 0.21508 0.05796 0.32452 0.0
C44 C 0.24476 0.92333 0.33144 0.0
C45 C 0.21929 0.90538 0.26041 0.0
C46 C 0.21206 0.89046 0.34893 0.0
N47 N 0.24849 0.92972 0.28794 0.0
C48 C 0.18496 0.8728 0.27677 0.0
C49 C 0.18107 0.86432 0.32181 0.0
H50 H 0.26778 0.94382 0.35285 0.0
H51 H 0.22222 0.91133 0.22601 0.0
C52 C 0.36666 0.11672 0.20284 0.0
N53 N 0.33253 0.08858 0.22143 0.0
C54 C 0.36771 0.14823 0.17997 0.0
C55 C 0.29865 0.12164 0.19628 0.0
C56 C 0.29881 0.09044 0.21813 0.0
C57 C 0.33335 0.15119 0.17646 0.0
H58 H 0.39314 0.11465 0.20572 0.0
H59 H 0.27178 0.06774 0.23236 0.0
O60 O 0.33968 0.97613 0.31139 0.0
O61 O 0.38508 0.06216 0.28318 0.0
O62 O 0.32657 0.99879 0.21947 0.0
O63 O 0.29617 0.02171 0.3018 0.0
H64 H 0.33329 0.94291 0.38794 0.0
H65 H 0.32944 0.9246 0.24998 0.0
H66 H 0.31916 0.8741 0.39898 0.0
H67 H 0.31533 0.8561 0.26335 0.0
H68 H 0.42128 0.17751 0.35322 0.0
H69 H 0.45257 0.07343 0.31556 0.0
H70 H 0.37488 0.12144 0.30681 0.0
H71 H 0.49775 0.13043 0.36168 0.0
H72 H 0.47066 0.97756 0.30758 0.0
H73 H 0.48879 0.02474 0.17733 0.0
H74 H 0.27671 0.99385 0.46294 0.0
H75 H 0.40058 0.0293 0.47231 0.0
H76 H 0.26637 0.00798 0.19695 0.0
H77 H 0.32375 0.94017 0.17371 0.0
H78 H 0.21637 0.96801 0.14124 0.0
H79 H 0.27238 0.90091 0.11887 0.0
H80 H 0.22132 0.98371 0.27707 0.0
H81 H 0.31049 0.08664 0.34366 0.0
H82 H 0.17332 0.00632 0.29145 0.0
H83 H 0.261 0.10767 0.35651 0.0
H84 H 0.21184 0.88579 0.38349 0.0
H85 H 0.16182 0.85495 0.25401 0.0
H86 H 0.39509 0.16968 0.16479 0.0
H87 H 0.27148 0.12262 0.19546 0.0
Li88 Li 0.36592 0.36805 0.59548 0.0
Li89 Li 0.32187 0.34243 0.65982 0.0
Li90 Li 0.32485 0.29582 0.61021 0.0
Li91 Li 0.29098 0.33175 0.58701 0.0
C92 C 0.39886 0.33169 0.65024 0.0
N93 N 0.46132 0.31842 0.66152 0.0
C94 C 0.41191 0.3301 0.69199 0.0
C95 C 0.41761 0.3267 0.61423 0.0
C96 C 0.44353 0.3233 0.69702 0.0
C97 C 0.44914 0.31999 0.62061 0.0
C98 C 0.32014 0.4083 0.64153 0.0
C99 C 0.2754 0.42481 0.67711 0.0
N100 N 0.30678 0.45874 0.69208 0.0
C101 C 0.35195 0.44343 0.65697 0.0
C102 C 0.28155 0.39895 0.65139 0.0
C103 C 0.34457 0.46851 0.6826 0.0
C104 C 0.42615 0.43326 0.5433 0.0
N105 N 0.41607 0.41295 0.58143 0.0
C106 C 0.4767 0.46101 0.61386 0.0
C107 C 0.44063 0.42622 0.61622 0.0
C108 C 0.48747 0.48387 0.57585 0.0
C109 C 0.46206 0.46912 0.53976 0.0
H110 H 0.40577 0.42253 0.51629 0.0
H111 H 0.4316 0.41056 0.64665 0.0
C112 C 0.29966 0.30956 0.73934 0.0
N113 N 0.32088 0.34567 0.72068 0.0
C114 C 0.30468 0.30419 0.78286 0.0
C115 C 0.35277 0.37373 0.78811 0.0
C116 C 0.34716 0.37767 0.74393 0.0
C117 C 0.33182 0.33634 0.80789 0.0
H118 H 0.28095 0.28411 0.71976 0.0
H119 H 0.36539 0.40556 0.72781 0.0
C120 C 0.32473 0.29661 0.52239 0.0
N121 N 0.31042 0.23983 0.4606 0.0
C122 C 0.2861 0.26666 0.51394 0.0
C123 C 0.3561 0.29778 0.49941 0.0
C124 C 0.27946 0.23823 0.48253 0.0
C125 C 0.34825 0.26874 0.46834 0.0
C126 C 0.23995 0.26762 0.64367 0.0
C127 C 0.22366 0.22863 0.62937 0.0
C128 C 0.21668 0.27902 0.66709 0.0
C129 C 0.1841 0.20168 0.63845 0.0
C130 C 0.17724 0.25118 0.67549 0.0
N131 N 0.1619 0.21343 0.6611 0.0
C132 C 0.32721 0.24358 0.66464 0.0
C133 C 0.31649 0.21687 0.59392 0.0
C134 C 0.32712 0.21071 0.68199 0.0
N135 N 0.32303 0.24673 0.62131 0.0
C136 C 0.31447 0.18239 0.61022 0.0
C137 C 0.32047 0.179 0.65501 0.0
H138 H 0.33093 0.26706 0.68604 0.0
H139 H 0.31218 0.21934 0.55972 0.0
C140 C 0.25443 0.36436 0.53463 0.0
N141 N 0.24788 0.33068 0.55486 0.0
C142 C 0.22402 0.36544 0.51168 0.0
C143 C 0.18046 0.29738 0.53132 0.0
C144 C 0.21177 0.29745 0.55319 0.0
C145 C 0.18618 0.33161 0.50981 0.0
H146 H 0.28339 0.39045 0.53626 0.0
H147 H 0.20697 0.27075 0.56871 0.0
O148 O 0.36767 0.33792 0.64474 0.0
O149 O 0.32675 0.38324 0.61671 0.0
O150 O 0.33179 0.32476 0.55289 0.0
O151 O 0.27863 0.29439 0.63517 0.0
H152 H 0.39761 0.3339 0.72018 0.0
H153 H 0.40784 0.32794 0.58176 0.0
H154 H 0.45389 0.32187 0.72913 0.0
H155 H 0.46391 0.316 0.59305 0.0
H156 H 0.24569 0.41792 0.68514 0.0
H157 H 0.382 0.45109 0.64945 0.0
H158 H 0.25664 0.37203 0.63928 0.0
H159 H 0.36889 0.49572 0.69498 0.0
H160 H 0.49552 0.47036 0.64226 0.0
H161 H 0.46902 0.48579 0.50985 0.0
H162 H 0.2887 0.27461 0.79612 0.0
H163 H 0.37389 0.39939 0.80622 0.0
H164 H 0.26157 0.26514 0.53173 0.0
H165 H 0.38616 0.32094 0.50539 0.0
H166 H 0.24972 0.2148 0.47574 0.0
H167 H 0.37223 0.26923 0.45031 0.0
H168 H 0.24127 0.21936 0.61114 0.0
H169 H 0.229 0.30899 0.67877 0.0
H170 H 0.17103 0.17144 0.62743 0.0
H171 H 0.15883 0.25958 0.69351 0.0
H172 H 0.33271 0.21085 0.71632 0.0
H173 H 0.30781 0.15872 0.58766 0.0
H174 H 0.23038 0.39242 0.49518 0.0
H175 H 0.15192 0.27067 0.5318 0.0
Li176 Li 1.00108 0.36381 0.92927 0.0
Li177 Li 0.98263 0.3196 0.9935 0.0
Li178 Li 0.03243 0.3229 0.94389 0.0
Li179 Li 0.96263 0.28892 0.9206 0.0
C180 C 0.07014 0.39698 0.9842 0.0
N181 N 0.14553 0.45993 0.99582 0.0
C182 C 0.08448 0.41019 0.02601 0.0
C183 C 0.094 0.41582 0.94831 0.0
C184 C 0.12273 0.44205 0.03121 0.0
C185 C 0.13207 0.4476 0.95486 0.0
C186 C 0.91498 0.31786 0.9751 0.0
C187 C 0.85366 0.27304 0.01048 0.0
N188 N 0.85099 0.30438 0.02538 0.0
C189 C 0.91155 0.34962 0.99046 0.0
C190 C 0.88576 0.27925 0.9849 0.0
C191 C 0.879 0.34219 0.01596 0.0
C192 C 0.99679 0.42438 0.87697 0.0
N193 N 0.0063 0.41395 0.91534 0.0
C194 C 0.01816 0.47424 0.94806 0.0
C195 C 0.01688 0.43816 0.95038 0.0
C196 C 0.00682 0.48537 0.90976 0.0
C197 C 0.99688 0.46031 0.87342 0.0
H198 H 0.98772 0.40427 0.84973 0.0
H199 H 0.02298 0.42885 0.98095 0.0
C200 C 0.99412 0.29781 0.07274 0.0
N201 N 0.97843 0.31843 0.05437 0.0
C202 C 1.00474 0.30296 0.11619 0.0
C203 C 0.98174 0.3498 0.12202 0.0
C204 C 0.97203 0.34413 0.07787 0.0
C205 C 0.99909 0.32956 0.14149 0.0
H206 H 1.00129 0.27953 0.05297 0.0
H207 H 0.9617 0.36192 0.06198 0.0
C208 C 0.03165 0.32306 0.85605 0.0
N209 N 0.07442 0.30927 0.79416 0.0
C210 C 0.02312 0.28452 0.84733 0.0
C211 C 0.06187 0.35461 0.83329 0.0
C212 C 0.04505 0.27814 0.81587 0.0
C213 C 0.08321 0.34702 0.80216 0.0
C214 C 0.97568 0.23784 0.97718 0.0
C215 C 0.99835 0.22149 0.96292 0.0
C216 C 0.941 0.21463 0.0006 0.0
C217 C 0.98565 0.18191 0.97199 0.0
C218 C 0.92932 0.17517 0.00899 0.0
N219 N 0.95168 0.15976 0.99461 0.0
C220 C 0.08733 0.32574 -0.00171 0.0
C221 C 0.10294 0.31438 0.92766 0.0
C222 C 0.12014 0.32568 0.01561 0.0
N223 N 0.0798 0.32122 0.95501 0.0
C224 C 0.13542 0.31238 0.94396 0.0
C225 C 0.14499 0.31869 0.98869 0.0
H226 H 0.06771 0.32967 0.01969 0.0
H227 H 0.096 0.30978 0.89352 0.0
C228 C 0.89337 0.25228 0.86845 0.0
N229 N 0.9207 0.24584 0.88836 0.0
C230 C 0.86192 0.22189 0.84545 0.0
C231 C 0.88691 0.17856 0.8643 0.0
C232 C 0.91808 0.20985 0.8863 0.0
C233 C 0.8582 0.18419 0.84315 0.0
H234 H 0.89602 0.28115 0.8704 0.0
H235 H 0.94012 0.20514 0.9016 0.0
O236 O 0.0329 0.36552 0.97856 0.0
O237 O 0.94673 0.32452 0.9504 0.0
O238 O 0.01042 0.32988 0.8866 0.0
O239 O 0.98768 0.27654 0.96869 0.0
H240 H 0.06629 0.39581 0.05412 0.0
H241 H 0.08322 0.40592 0.91581 0.0
H242 H 0.13429 0.45254 0.06337 0.0
H243 H 0.15092 0.46244 0.92738 0.0
H244 H 0.83085 0.24331 0.01845 0.0
H245 H 0.93392 0.37969 0.98299 0.0
H246 H 0.88784 0.25437 0.97283 0.0
H247 H 0.87602 0.36648 0.02828 0.0
H248 H 0.02705 0.49279 0.97666 0.0
H249 H 0.98778 0.46757 0.84328 0.0
H250 H 0.01904 0.28755 0.12916 0.0
H251 H 0.97662 0.37045 0.14031 0.0
H252 H 1.0001 0.25986 0.86495 0.0
H253 H 0.06865 0.38461 0.83946 0.0
H254 H 0.03885 0.24847 0.80886 0.0
H255 H 0.1067 0.37114 0.7843 0.0
H256 H 0.02525 0.23907 0.94472 0.0
H257 H 0.9234 0.22701 0.01228 0.0
H258 H 1.00278 0.16879 0.96099 0.0
H259 H 0.9025 0.15681 0.027 0.0
H260 H 0.12573 0.33152 0.04989 0.0
H261 H 0.15228 0.30547 0.92146 0.0
H262 H 0.84112 0.22816 0.82923 0.0
H263 H 0.8853 0.15012 0.86442 0.0
Li264 Li 0.64115 0.99952 0.26208 0.0
Li265 Li 0.66689 0.98116 0.32629 0.0
Li266 Li 0.71343 0.03099 0.27674 0.0
Li267 Li 0.67766 0.96115 0.25347 0.0
C268 C 0.6765 0.0685 0.3167 0.0
N269 N 0.68798 0.14359 0.32776 0.0
C270 C 0.67708 0.08283 0.35838 0.0
C271 C 0.68159 0.09222 0.28065 0.0
C272 C 0.68299 0.12093 0.3633 0.0
C273 C 0.68738 0.13014 0.28692 0.0
C274 C 0.60114 0.91349 0.30804 0.0
C275 C 0.58482 0.85229 0.3436 0.0
N276 N 0.55084 0.84962 0.35859 0.0
C277 C 0.56596 0.91005 0.32349 0.0
C278 C 0.61061 0.88433 0.31788 0.0
C279 C 0.54096 0.87757 0.34912 0.0
C280 C 0.57659 0.99573 0.20956 0.0
N281 N 0.5962 0.00466 0.24812 0.0
C282 C 0.54734 0.01576 0.28103 0.0
C283 C 0.5822 0.0146 0.28335 0.0
C284 C 0.52521 0.005 0.2425 0.0
C285 C 0.54072 0.99575 0.20598 0.0
H286 H 0.58794 0.98718 0.18215 0.0
H287 H 0.59739 0.02027 0.31403 0.0
C288 C 0.70007 0.99235 0.40561 0.0
N289 N 0.66382 0.97697 0.38716 0.0
C290 C 0.70554 1.00288 0.44909 0.0
C291 C 0.63583 0.98056 0.45474 0.0
C292 C 0.63178 0.97088 0.41059 0.0
C293 C 0.67335 0.99752 0.4743 0.0
H294 H 0.72551 0.99935 0.38588 0.0
H295 H 0.60375 0.96084 0.39463 0.0
C296 C 0.71245 0.03014 0.18882 0.0
N297 N 0.76887 0.07286 0.12679 0.0
C298 C 0.74252 0.02169 0.18011 0.0
C299 C 0.71097 0.06023 0.16596 0.0
C300 C 0.77076 0.0436 0.14858 0.0
C301 C 0.73984 0.08156 0.13477 0.0
C302 C 0.74178 0.97422 0.3098 0.0
C303 C 0.78074 0.99689 0.29536 0.0
C304 C 0.73041 0.93951 0.33311 0.0
C305 C 0.80765 0.98417 0.30415 0.0
C306 C 0.75821 0.92779 0.34122 0.0
N307 N 0.79592 0.95016 0.32667 0.0
C308 C 0.76514 0.0862 0.33115 0.0
C309 C 0.79276 0.10108 0.2608 0.0
C310 C 0.79805 0.11893 0.34852 0.0
N311 N 0.76243 0.07836 0.28795 0.0
C312 C 0.8273 0.1334 0.2772 0.0
C313 C 0.83031 0.14332 0.32183 0.0
H314 H 0.74138 0.06683 0.35247 0.0
H315 H 0.79067 0.09384 0.22675 0.0
C316 C 0.64494 0.89157 0.20184 0.0
N317 N 0.67884 0.91918 0.2213 0.0
C318 C 0.64387 0.86006 0.17895 0.0
C319 C 0.71244 0.88557 0.19698 0.0
C320 C 0.71231 0.91678 0.21888 0.0
C321 C 0.67797 0.85657 0.17629 0.0
H322 H 0.61865 0.89405 0.20406 0.0
H323 H 0.73916 0.93903 0.23386 0.0
O324 O 0.67121 0.03141 0.31134 0.0
O325 O 0.62612 0.94519 0.28322 0.0
O326 O 0.68447 0.00892 0.21943 0.0
O327 O 0.71505 0.98625 0.30159 0.0
H328 H 0.67322 0.06475 0.3866 0.0
H329 H 0.68114 0.08144 0.24825 0.0
H330 H 0.68363 0.13248 0.39535 0.0
H331 H 0.69144 0.14888 0.25932 0.0
H332 H 0.5918 0.82953 0.35161 0.0
H333 H 0.5582 0.93237 0.31599 0.0
H334 H 0.63755 0.88641 0.30575 0.0
H335 H 0.51371 0.87459 0.36151 0.0
H336 H 0.53737 0.02412 0.3098 0.0
H337 H 0.52462 0.98711 0.17565 0.0
H338 H 0.7352 0.01688 0.46217 0.0
H339 H 0.61012 0.97572 0.47299 0.0
H340 H 0.74427 0.99876 0.1978 0.0
H341 H 0.68769 0.06694 0.1721 0.0
H342 H 0.79428 0.03746 0.1416 0.0
H343 H 0.73911 0.10497 0.11685 0.0
H344 H 0.78999 0.02381 0.27724 0.0
H345 H 0.70049 0.92191 0.34494 0.0
H346 H 0.83785 1.0013 0.29301 0.0
H347 H 0.74983 0.90095 0.35914 0.0
H348 H 0.79751 0.12473 0.38269 0.0
H349 H 0.85131 0.1498 0.25483 0.0
H350 H 0.61669 0.83902 0.16309 0.0
H351 H 0.73938 0.88414 0.1968 0.0
Li352 Li 0.68954 0.66513 0.6598 0.0
Li353 Li 0.64547 0.63944 0.59547 0.0
Li354 Li 0.72045 0.67583 0.58704 0.0
Li355 Li 0.6865 0.71169 0.61014 0.0
C356 C 0.69109 0.59917 0.64165 0.0
N357 N 0.70403 0.54854 0.69238 0.0
C358 C 0.65914 0.56412 0.65702 0.0
C359 C 0.7296 0.60835 0.65167 0.0
C360 C 0.6663 0.53894 0.68275 0.0
C361 C 0.73553 0.5824 0.67747 0.0
C362 C 0.61244 0.67568 0.6503 0.0
C363 C 0.56201 0.68723 0.62085 0.0
N364 N 0.54981 0.68866 0.6618 0.0
C365 C 0.59938 0.67711 0.6921 0.0
C366 C 0.59362 0.68066 0.61437 0.0
C367 C 0.56768 0.68377 0.69723 0.0
C368 C 0.71192 0.69798 0.73937 0.0
N369 N 0.69053 0.6619 0.72067 0.0
C370 C 0.65846 0.63393 0.78805 0.0
C371 C 0.66409 0.62996 0.74388 0.0
C372 C 0.67958 0.67128 0.80787 0.0
C373 C 0.70691 0.70337 0.78289 0.0
H374 H 0.73079 0.72339 0.71982 0.0
H375 H 0.64573 0.60212 0.72773 0.0
C376 C 0.58521 0.57424 0.54328 0.0
N377 N 0.59533 0.59451 0.58144 0.0
C378 C 0.54931 0.53838 0.53974 0.0
C379 C 0.53474 0.5464 0.6139 0.0
C380 C 0.57081 0.5812 0.61625 0.0
C381 C 0.52393 0.52358 0.57586 0.0
H382 H 0.60557 0.58501 0.51624 0.0
H383 H 0.57986 0.59683 0.6467 0.0
C384 C 0.77153 0.73991 0.6433 0.0
N385 N 0.84976 0.79396 0.66005 0.0
C386 C 0.7878 0.7789 0.62899 0.0
C387 C 0.7949 0.72845 0.66641 0.0
C388 C 0.82745 0.80577 0.63771 0.0
C389 C 0.83444 0.75621 0.67447 0.0
C390 C 0.68621 0.71066 0.52229 0.0
C391 C 0.72467 0.74082 0.51353 0.0
C392 C 0.65456 0.70907 0.4995 0.0
C393 C 0.73086 0.76903 0.48201 0.0
C394 C 0.66195 0.7379 0.46832 0.0
N395 N 0.69963 0.76702 0.46028 0.0
C396 C 0.75751 0.64304 0.53583 0.0
C397 C 0.79938 0.71058 0.5523 0.0
C398 C 0.78801 0.64202 0.51298 0.0
N399 N 0.76363 0.677 0.55498 0.0
C400 C 0.83076 0.71078 0.53043 0.0
C401 C 0.82547 0.67625 0.51006 0.0
H402 H 0.72884 0.61665 0.53824 0.0
H403 H 0.80384 0.73748 0.56702 0.0
C404 C 0.68394 0.76386 0.66452 0.0
N405 N 0.68825 0.76076 0.62121 0.0
C406 C 0.68401 0.79673 0.68186 0.0
C407 C 0.69701 0.82519 0.61016 0.0
C408 C 0.69495 0.79069 0.59385 0.0
C409 C 0.69087 0.82854 0.65493 0.0
H410 H 0.68015 0.74035 0.68592 0.0
H411 H 0.69938 0.78828 0.55968 0.0
O412 O 0.6847 0.62431 0.61673 0.0
O413 O 0.64371 0.66958 0.6447 0.0
O414 O 0.73275 0.71323 0.63518 0.0
O415 O 0.67959 0.6827 0.55286 0.0
H416 H 0.62915 0.55658 0.64938 0.0
H417 H 0.75462 0.6352 0.63959 0.0
H418 H 0.64187 0.51178 0.69509 0.0
H419 H 0.76518 0.58915 0.68562 0.0
H420 H 0.54719 0.69122 0.59334 0.0
H421 H 0.61373 0.67331 0.72023 0.0
H422 H 0.60341 0.67954 0.58187 0.0
H423 H 0.5573 0.68508 0.72937 0.0
H424 H 0.63721 0.60831 0.80612 0.0
H425 H 0.72303 0.73292 0.79618 0.0
H426 H 0.54232 0.52174 0.5098 0.0
H427 H 0.51595 0.53701 0.64232 0.0
H428 H 0.7701 0.78822 0.61102 0.0
H429 H 0.78259 0.6985 0.67813 0.0
H430 H 0.84051 0.836 0.62668 0.0
H431 H 0.85292 0.74777 0.69224 0.0
H432 H 0.74942 0.74265 0.53116 0.0
H433 H 0.62462 0.68573 0.50569 0.0
H434 H 0.76047 0.79261 0.47498 0.0
H435 H 0.63774 0.73709 0.45044 0.0
H436 H 0.782 0.61478 0.49737 0.0
H437 H 0.85903 0.73782 0.53003 0.0
H438 H 0.67828 0.79648 0.71616 0.0
H439 H 0.70385 0.84889 0.5876 0.0
Li440 Li 0.00973 0.64361 0.92925 0.0
Li441 Li 0.02844 0.6879 0.99354 0.0
Li442 Li 0.97888 0.68497 0.94398 0.0
Li443 Li 0.04854 0.71864 0.92072 0.0
C444 C 0.94051 0.61146 0.98484 0.0
N445 N 0.8645 0.55002 0.99766 0.0
C446 C 0.92621 0.5994 0.02691 0.0
C447 C 0.9163 0.59222 0.94931 0.0
C448 C 0.88765 0.5683 0.03271 0.0
C449 C 0.87791 0.56123 0.95646 0.0
C450 C 0.09558 0.68888 0.97539 0.0
C451 C 0.15681 0.73293 0.01141 0.0
N452 N 0.15881 0.70125 0.02637 0.0
C453 C 0.09832 0.65675 0.99083 0.0
C454 C 0.1251 0.72729 0.98548 0.0
C455 C 0.1305 0.66362 0.01668 0.0
C456 C 0.01522 0.58359 0.87734 0.0
N457 N 1.00429 0.59337 0.91522 0.0
C458 C 0.99085 0.53234 0.94734 0.0
C459 C 0.99222 0.56846 0.94972 0.0
C460 C 1.00364 0.52187 0.90964 0.0
C461 C 0.01508 0.54763 0.8738 0.0
H462 H 0.02549 0.60425 0.85058 0.0
H463 H 0.98506 0.57724 0.97999 0.0
C464 C 0.01904 0.711 0.07328 0.0
N465 N 0.03281 0.68889 0.05439 0.0
C466 C 0.0086 0.70601 0.1168 0.0
C467 C 0.02776 0.65614 0.12155 0.0
C468 C 0.03741 0.66178 0.07739 0.0
C469 C 0.01238 0.67796 0.14156 0.0
H470 H 0.01318 0.73044 0.05389 0.0
H471 H 0.04616 0.64291 0.06106 0.0
C472 C 0.97907 0.68414 0.85623 0.0
N473 N 0.93552 0.69692 0.79444 0.0
C474 C 0.98725 0.72251 0.84711 0.0
C475 C 0.94883 0.65226 0.8339 0.0
C476 C 0.96492 0.72837 0.81571 0.0
C477 C 0.92708 0.65933 0.80282 0.0
C478 C 0.03586 0.77005 0.97659 0.0
C479 C 0.01304 0.7862 0.96224 0.0
C480 C 0.0709 0.79365 -0.00073 0.0
C481 C 0.02592 0.82595 0.9705 0.0
C482 C 0.08276 0.83327 0.00687 0.0
N483 N 0.06023 0.84847 0.99242 0.0
C484 C 0.92484 0.68356 -0.00151 0.0
C485 C 0.90782 0.69254 0.92757 0.0
C486 C 0.89199 0.68351 0.01588 0.0
N487 N 0.93167 0.68688 0.95506 0.0
C488 C 0.87532 0.69447 0.94387 0.0
C489 C 0.86637 0.68922 0.98879 0.0
H490 H 0.945 0.6805 0.01993 0.0
H491 H 0.91417 0.69615 0.89326 0.0
C492 C 0.11846 0.75554 0.86957 0.0
N493 N 0.09054 0.76167 0.8885 0.0
C494 C 0.14992 0.78594 0.84659 0.0
C495 C 0.12372 0.82865 0.86348 0.0
C496 C 0.09257 0.79735 0.88545 0.0
C497 C 0.15304 0.82335 0.84331 0.0
H498 H 0.11625 0.72691 0.87227 0.0
H499 H 0.07005 0.8018 0.89996 0.0
O500 O 0.97809 0.64213 0.97856 0.0
O501 O 0.06419 0.68277 0.95037 0.0
O502 O 1.00076 0.67785 0.88665 0.0
O503 O 0.02367 0.73118 0.96893 0.0
H504 H 0.94468 0.61407 0.05474 0.0
H505 H 0.92705 0.60121 0.91661 0.0
H506 H 0.87611 0.5587 0.06507 0.0
H507 H 0.85878 0.54609 0.92926 0.0
H508 H 0.17984 0.7625 0.01961 0.0
H509 H 0.07571 0.62683 0.98314 0.0
H510 H 0.12353 0.75245 0.97337 0.0
H511 H 0.13295 0.63904 0.02906 0.0
H512 H 0.9808 0.51325 0.97551 0.0
H513 H 0.02535 0.54091 0.84414 0.0
H514 H 0.99585 0.72271 0.13025 0.0
H515 H 0.03136 0.63433 0.13944 0.0
H516 H 0.01032 0.74743 0.86436 0.0
H517 H 0.94234 0.62239 0.84036 0.0
H518 H 0.97084 0.7579 0.80841 0.0
H519 H 0.90356 0.63494 0.7853 0.0
H520 H 0.98588 0.76834 0.94459 0.0
H521 H 0.08863 0.78144 0.01101 0.0
H522 H 0.00867 0.83891 0.95942 0.0
H523 H 0.10984 0.85192 0.02431 0.0
H524 H 0.88698 0.67853 0.05033 0.0
H525 H 0.85792 0.70044 0.92115 0.0
H526 H 0.1712 0.77991 0.83115 0.0
H527 H 0.12485 0.85687 0.86283 0.0
Li528 Li 0.03327 0.71163 0.38536 0.0
Li529 Li 0.96331 0.676 0.40858 0.0
Li530 Li 1.00139 0.63932 0.39997 0.0
Li531 Li 0.98333 0.66518 0.33576 0.0
C532 C 0.03176 0.71072 0.47339 0.0
N533 N 0.07357 0.76733 0.53558 0.0
C534 C 0.02306 0.74071 0.48152 0.0
C535 C 0.06166 0.70944 0.49689 0.0
C536 C 0.04451 0.76905 0.51314 0.0
C537 C 0.08252 0.73839 0.52816 0.0
C538 C 0.97671 0.74015 0.35173 0.0
C539 C 0.93067 0.75657 0.31922 0.0
N540 N 0.95292 0.79431 0.33373 0.0
C541 C 0.99926 0.77914 0.36611 0.0
C542 C 0.94225 0.72875 0.3279 0.0
C543 C 0.98668 0.80606 0.35675 0.0
C544 C 0.08915 0.76292 0.33113 0.0
N545 N 0.08076 0.76054 0.37417 0.0
C546 C 0.1353 0.82575 0.38479 0.0
C547 C 0.10298 0.7912 0.40118 0.0
C548 C 0.14569 0.82844 0.34035 0.0
C549 C 0.12187 0.79586 0.3138 0.0
H550 H 0.07017 0.73892 0.30985 0.0
H551 H 0.09528 0.78937 0.43507 0.0
C552 C 0.89429 0.64361 0.46104 0.0
N553 N 0.92137 0.67726 0.44074 0.0
C554 C 0.86277 0.6425 0.48395 0.0
C555 C 0.88718 0.71053 0.46421 0.0
C556 C 0.91841 0.71046 0.44231 0.0
C557 C 0.85872 0.67631 0.48575 0.0
H558 H 0.8972 0.61753 0.45946 0.0
H559 H 0.94024 0.73712 0.42665 0.0
C560 C 0.07036 0.67381 0.34618 0.0
N561 N 0.14497 0.68367 0.33665 0.0
C562 C 0.08488 0.67351 0.30485 0.0
C563 C 0.09365 0.679 0.38266 0.0
C564 C 0.12273 0.67859 0.30071 0.0
C565 C 0.13133 0.68395 0.37716 0.0
C566 C 0.91521 0.59974 0.35411 0.0
C567 C 0.91126 0.56437 0.33855 0.0
C568 C 0.88629 0.60962 0.34458 0.0
C569 C 0.8785 0.5396 0.31313 0.0
C570 C 0.85397 0.58407 0.31907 0.0
N571 N 0.8508 0.5499 0.30398 0.0
C572 C 0.99821 0.57511 0.45273 0.0
C573 C 0.01532 0.57977 0.37842 0.0
C574 C 0.99818 0.53921 0.45631 0.0
N575 N 0.0063 0.59425 0.41392 0.0
C576 C 0.01641 0.54487 0.38072 0.0
C577 C 0.00652 0.52321 0.41956 0.0
H578 H 0.99042 0.58686 0.48038 0.0
H579 H 0.02038 0.59465 0.3476 0.0
C580 C 0.99567 0.69873 0.25666 0.0
N581 N 0.9793 0.6623 0.27488 0.0
C582 C 0.00622 0.70417 0.2132 0.0
C583 C 0.98197 0.6341 0.20707 0.0
C584 C 0.97228 0.63007 0.25122 0.0
C585 C 0.99988 0.67177 0.18774 0.0
H586 H 1.00337 0.72424 0.27657 0.0
H587 H 0.96144 0.60183 0.26698 0.0
O588 O 0.01106 0.6827 0.44263 0.0
O589 O 0.98859 0.71341 0.36053 0.0
O590 O 0.03352 0.66933 0.35076 0.0
O591 O 0.94718 0.62448 0.37873 0.0
H592 H 1.00032 0.74235 0.4633 0.0
H593 H 0.06858 0.68625 0.49116 0.0
H594 H 0.03817 0.7925 0.51969 0.0
H595 H 0.10577 0.73781 0.54658 0.0
H596 H 0.90402 0.74817 0.3009 0.0
H597 H 0.02598 0.7884 0.38463 0.0
H598 H 0.92475 0.6988 0.31612 0.0
H599 H 1.00372 0.83629 0.36783 0.0
H600 H 0.15132 0.85004 0.40696 0.0
H601 H 0.12813 0.79513 0.2798 0.0
H602 H 0.84216 0.61553 0.50046 0.0
H603 H 0.8853 0.73721 0.46373 0.0
H604 H 0.06713 0.66957 0.27631 0.0
H605 H 0.08273 0.67926 0.4148 0.0
H606 H 0.13443 0.67854 0.26893 0.0
H607 H 0.14974 0.68806 0.4051 0.0
H608 H 0.93337 0.55628 0.34581 0.0
H609 H 0.88878 0.63672 0.3568 0.0
H610 H 0.87512 0.51222 0.30066 0.0
H611 H 0.8314 0.59138 0.31131 0.0
H612 H 0.99024 0.52349 0.48689 0.0
H613 H 0.02407 0.53454 0.35173 0.0
H614 H 0.02096 0.73391 0.2003 0.0
H615 H 0.97636 0.60824 0.18863 0.0
Li616 Li 0.32483 0.03085 0.71817 0.0
Li617 Li 0.29084 0.961 0.74141 0.0
Li618 Li 0.36571 0.99945 0.73276 0.0
Li619 Li 0.32157 0.9811 0.66851 0.0
C620 C 0.3247 0.02979 0.80603 0.0
N621 N 0.31036 0.07214 0.86796 0.0
C622 C 0.28606 0.02108 0.81453 0.0
C623 C 0.35606 0.05998 0.82903 0.0
C624 C 0.27941 0.0428 0.84602 0.0
C625 C 0.3482 0.08111 0.86018 0.0
C626 C 0.23985 0.97412 0.68456 0.0
C627 C 0.1774 0.92787 0.65223 0.0
N628 N 0.16187 0.95015 0.66654 0.0
C629 C 0.22338 0.9967 0.69876 0.0
C630 C 0.21681 0.93954 0.66092 0.0
C631 C 0.18386 0.98403 0.68939 0.0
C632 C 0.32793 0.08593 0.66386 0.0
N633 N 0.32314 0.07822 0.7071 0.0
C634 C 0.31395 0.13364 0.71811 0.0
C635 C 0.31599 0.10118 0.73441 0.0
C636 C 0.32053 0.14338 0.67344 0.0
C637 C 0.32784 0.11872 0.64656 0.0
H638 H 0.33208 0.06644 0.64247 0.0
H639 H 0.31116 0.09408 0.7685 0.0
C640 C 0.2544 0.89202 0.794 0.0
N641 N 0.24777 0.91904 0.77363 0.0
C642 C 0.22404 0.86057 0.81703 0.0
C643 C 0.18036 0.88489 0.79721 0.0
C644 C 0.21162 0.91608 0.77523 0.0
C645 C 0.18617 0.8565 0.81886 0.0
H646 H 0.28339 0.89494 0.79241 0.0
H647 H 0.20676 0.93789 0.75955 0.0
C648 C 0.39904 0.06858 0.67813 0.0
N649 N 0.4622 0.14393 0.66701 0.0
C650 C 0.41254 0.08304 0.63642 0.0
C651 C 0.41768 0.0923 0.71417 0.0
C652 C 0.44451 0.12127 0.63148 0.0
C653 C 0.44958 0.13035 0.70787 0.0
C654 C 0.31969 0.91332 0.68692 0.0
C655 C 0.3514 0.9098 0.67154 0.0
C656 C 0.28104 0.88413 0.67721 0.0
C657 C 0.34387 0.87719 0.64611 0.0
C658 C 0.27474 0.85196 0.6517 0.0
N659 N 0.30603 0.8492 0.63678 0.0
C660 C 0.42619 0.99496 0.78502 0.0
C661 C 0.44008 0.01529 0.7117 0.0
C662 C 0.46212 0.99503 0.78856 0.0
N663 N 0.41582 0.0046 0.7467 0.0
C664 C 0.47616 0.01657 0.71402 0.0
C665 C 0.48724 0.00509 0.75226 0.0
H666 H 0.40605 0.9858 0.81223 0.0
H667 H 0.43081 0.02146 0.68115 0.0
C668 C 0.30005 0.99299 0.58934 0.0
N669 N 0.32042 0.97698 0.60763 0.0
C670 C 0.30522 1.00364 0.5459 0.0
C671 C 0.35157 0.98003 0.53991 0.0
C672 C 0.34589 0.9703 0.58405 0.0
C673 C 0.33158 0.99768 0.52052 0.0
H674 H 0.28196 1.00038 0.60918 0.0
H675 H 0.36349 0.95972 0.59987 0.0
O676 O 0.33178 0.00879 0.77544 0.0
O677 O 0.2785 0.9861 0.69336 0.0
O678 O 0.36748 0.03137 0.68352 0.0
O679 O 0.32645 0.94514 0.71155 0.0
H680 H 0.26153 0.99809 0.79672 0.0
H681 H 0.38613 0.06692 0.82301 0.0
H682 H 0.24966 0.03646 0.85285 0.0
H683 H 0.37218 0.10459 0.87821 0.0
H684 H 0.15917 0.90114 0.63404 0.0
H685 H 0.24083 0.02352 0.71713 0.0
H686 H 0.22928 0.92201 0.64929 0.0
H687 H 0.17064 1.00109 0.70033 0.0
H688 H 0.30679 0.15034 0.74056 0.0
H689 H 0.33391 0.12446 0.61233 0.0
H690 H 0.23045 0.84002 0.83362 0.0
H691 H 0.15179 0.88301 0.79672 0.0
H692 H 0.39832 0.06496 0.60821 0.0
H693 H 0.40755 0.08143 0.74659 0.0
H694 H 0.45523 0.13292 0.59941 0.0
H695 H 0.46427 0.1491 0.73547 0.0
H696 H 0.38149 0.93215 0.67893 0.0
H697 H 0.25621 0.88629 0.6893 0.0
H698 H 0.36812 0.87414 0.63377 0.0
H699 H 0.24499 0.82917 0.6438 0.0
H700 H 0.46932 0.9858 0.81866 0.0
H701 H 0.49475 0.02558 0.68545 0.0
H702 H 0.29001 0.01817 0.533 0.0
H703 H 0.37204 0.97468 0.52154 0.0
Li704 Li 0.2975 0.3231 0.05185 0.0
Li705 Li 0.33343 0.28918 0.07499 0.0
Li706 Li 0.36975 0.3641 0.06656 0.0
Li707 Li 0.3441 0.32012 0.00219 0.0
C708 C 0.2983 0.32275 0.1397 0.0
N709 N 0.24147 0.30809 0.20156 0.0
C710 C 0.26838 0.28407 0.14799 0.0
C711 C 0.29939 0.354 0.16287 0.0
C712 C 0.23993 0.27725 0.17943 0.0
C713 C 0.27033 0.34598 0.19398 0.0
C714 C 0.26932 0.23825 0.01812 0.0
C715 C 0.25296 0.17572 0.98586 0.0
N716 N 0.21518 0.16029 0.00022 0.0
C717 C 0.2303 0.22187 0.03238 0.0
C718 C 0.28076 0.21512 0.9945 0.0
C719 C 0.20338 0.18236 0.02306 0.0
C720 C 0.24537 0.32578 0.9975 0.0
N721 N 0.24841 0.32131 0.04079 0.0
C722 C 0.18394 0.31243 0.05185 0.0
C723 C 0.21843 0.31447 0.06815 0.0
C724 C 0.18065 0.3187 0.00712 0.0
C725 C 0.21249 0.32569 0.98018 0.0
H726 H 0.26894 0.32973 0.97611 0.0
H727 H 0.22081 0.30991 0.1023 0.0
C728 C 0.36595 0.2527 0.12759 0.0
N729 N 0.33236 0.24607 0.10709 0.0
C730 C 0.36705 0.2223 0.15053 0.0
C731 C 0.29917 0.17857 0.13036 0.0
C732 C 0.29922 0.20987 0.10849 0.0
C733 C 0.33332 0.18438 0.15212 0.0
H734 H 0.39197 0.28173 0.12617 0.0
H735 H 0.27258 0.20499 0.09276 0.0
C736 C 0.33355 0.39725 0.01206 0.0
N737 N 0.32065 0.46 0.00122 0.0
C738 C 0.33219 0.41061 0.9704 0.0
C739 C 0.32852 0.41583 0.0482 0.0
C740 C 0.32558 0.44237 0.9656 0.0
C741 C 0.322 0.44751 0.04204 0.0
C742 C 0.40994 0.31824 0.0205 0.0
C743 C 0.44512 0.34999 0.0051 0.0
C744 C 0.40051 0.27962 0.01069 0.0
C745 C 0.47019 0.34252 0.97955 0.0
C746 C 0.42636 0.27338 0.98505 0.0
N747 N 0.46035 0.3047 0.97011 0.0
C748 C 0.43502 0.42429 0.11872 0.0
C749 C 0.42797 0.43877 0.04582 0.0
C750 C 0.4709 0.46018 0.12225 0.0
N751 N 0.41469 0.41422 0.0806 0.0
C752 C 0.46276 0.47484 0.04817 0.0
C753 C 0.48565 0.4856 0.08616 0.0
H754 H 0.42429 0.40391 0.14574 0.0
H755 H 0.41231 0.42974 0.01538 0.0
C756 C 0.31109 0.29823 0.92275 0.0
N757 N 0.34728 0.31915 0.94132 0.0
C758 C 0.30573 0.30328 0.87924 0.0
C759 C 0.37542 0.35081 0.87382 0.0
C760 C 0.37935 0.34517 0.918 0.0
C761 C 0.33797 0.33016 0.85412 0.0
H762 H 0.28561 0.27973 0.94238 0.0
H763 H 0.40733 0.36318 0.93405 0.0
O764 O 0.32645 0.32999 0.10915 0.0
O765 O 0.29605 0.27689 0.02686 0.0
O766 O 0.3396 0.36593 0.01734 0.0
O767 O 0.3849 0.32494 0.04525 0.0
H768 H 0.26692 0.25963 0.13004 0.0
H769 H 0.32251 0.3841 0.15701 0.0
H770 H 0.21654 0.24747 0.18611 0.0
H771 H 0.27077 0.36986 0.21215 0.0
H772 H 0.26139 0.15743 0.96769 0.0
H773 H 0.22099 0.23937 0.05075 0.0
H774 H 0.31075 0.22752 0.98285 0.0
H775 H 0.17312 0.16921 0.03403 0.0
H776 H 0.16017 0.30552 0.07436 0.0
H777 H 0.21272 0.33151 0.9459 0.0
H778 H 0.39396 0.22873 0.16724 0.0
H779 H 0.27254 0.14997 0.12967 0.0
H780 H 0.33602 0.39644 0.94212 0.0
H781 H 0.32958 0.40582 0.08059 0.0
H782 H 0.32434 0.45298 0.93356 0.0
H783 H 0.31798 0.46216 0.06971 0.0
H784 H 0.45284 0.38006 0.01258 0.0
H785 H 0.37355 0.25475 0.02278 0.0
H786 H 0.49744 0.3668 0.96719 0.0
H787 H 0.41941 0.24365 0.97707 0.0
H788 H 0.48759 0.46713 0.15215 0.0
H789 H 0.47209 0.49366 0.01977 0.0
H790 H 0.27612 0.28755 0.86604 0.0
H791 H 0.40115 0.37171 0.85564 0.0
Li792 Li 0.04823 0.33168 0.40844 0.0
Li793 Li 0.97858 0.29559 0.38529 0.0
Li794 Li 0.02796 0.34222 0.33564 0.0
Li795 Li 0.00919 0.36777 0.40008 0.0
C796 C 0.03559 0.26761 0.35254 0.0
N797 N 0.05999 0.21359 0.33662 0.0
C798 C 0.01282 0.22865 0.36693 0.0
C799 C 0.07059 0.27905 0.32978 0.0
C800 C 0.02572 0.20179 0.35862 0.0
C801 C 0.08247 0.25131 0.32215 0.0
C802 C 0.9786 0.29656 0.47292 0.0
C803 C 0.92628 0.26927 0.52594 0.0
N804 N 0.9347 0.24013 0.53447 0.0
C805 C 0.98676 0.26638 0.48219 0.0
C806 C 0.9482 0.29814 0.49497 0.0
C807 C 0.96426 0.23814 0.51347 0.0
C808 C 0.11833 0.36483 0.45932 0.0
N809 N 0.09034 0.33075 0.44052 0.0
C810 C 0.12359 0.29698 0.46542 0.0
C811 C 0.09235 0.2971 0.44359 0.0
C812 C 0.15298 0.33162 0.48547 0.0
C813 C 0.14986 0.3659 0.48219 0.0
H814 H 0.11613 0.39125 0.45662 0.0
H815 H 0.06976 0.27011 0.42919 0.0
C816 C 0.92494 0.24267 0.33075 0.0
N817 N 0.93143 0.24635 0.37424 0.0
C818 C 0.89211 0.20993 0.31329 0.0
C819 C 0.87476 0.18264 0.38539 0.0
C820 C 0.90727 0.21704 0.40175 0.0
C821 C 0.86613 0.1788 0.34038 0.0
H822 H 0.94532 0.26575 0.30934 0.0
H823 H 0.91332 0.21993 0.43612 0.0
C824 C 0.0949 0.40866 0.35377 0.0
N825 N 0.15783 0.45998 0.30272 0.0
C826 C 0.09738 0.44352 0.33868 0.0
C827 C 0.12452 0.40001 0.34329 0.0
C828 C 0.12941 0.46906 0.31279 0.0
C829 C 0.15607 0.42631 0.31733 0.0
C830 C 0.93981 0.32992 0.34401 0.0
C831 C 0.92569 0.32721 0.30177 0.0
C832 C 0.91522 0.32468 0.37926 0.0
C833 C 0.88692 0.31899 0.29552 0.0
C834 C 0.87664 0.31653 0.37165 0.0
N835 N 0.8634 0.31385 0.33029 0.0
C836 C 0.01832 0.30961 0.25599 0.0
C837 C 0.03709 0.37728 0.25168 0.0
C838 C 0.00775 0.30409 0.21252 0.0
N839 N 0.0323 0.34556 0.27479 0.0
C840 C 0.02739 0.37321 0.20753 0.0
C841 C 0.01172 0.33593 0.18765 0.0
H842 H 0.01239 0.28433 0.27545 0.0
H843 H 0.04606 0.40499 0.26791 0.0
C844 C 0.01617 0.43403 0.45157 0.0
N845 N 1.00372 0.41256 0.41427 0.0
C846 C 0.01613 0.4699 0.45514 0.0
C847 C 0.98885 0.45944 0.3829 0.0
C848 C 0.99019 0.42468 0.38043 0.0
C849 C 1.00321 0.48348 0.41991 0.0
H850 H 0.02763 0.42425 0.47776 0.0
H851 H 0.98188 0.40822 0.3505 0.0
O852 O 0.02339 0.29428 0.36025 0.0
O853 O 1.00047 0.32459 0.44263 0.0
O854 O 0.06366 0.38315 0.37882 0.0
O855 O 0.9776 0.3376 0.35076 0.0
H856 H 0.98568 0.21934 0.38464 0.0
H857 H 0.08829 0.30899 0.31804 0.0
H858 H 0.00851 0.17159 0.36972 0.0
H859 H 0.10953 0.25975 0.30465 0.0
H860 H 0.90262 0.27008 0.54324 0.0
H861 H 0.00998 0.26459 0.46517 0.0
H862 H 0.94172 0.3215 0.48838 0.0
H863 H 0.97017 0.21454 0.52089 0.0
H864 H 0.12469 0.26987 0.46605 0.0
H865 H 0.17118 0.39324 0.49755 0.0
H866 H 0.88737 0.20981 0.27877 0.0
H867 H 0.85709 0.15944 0.40817 0.0
H868 H 0.07468 0.45063 0.34666 0.0
H869 H 0.12314 0.37329 0.35512 0.0
H870 H 0.13166 0.49608 0.30068 0.0
H871 H 0.17918 0.41996 0.30884 0.0
H872 H 0.94445 0.33122 0.27415 0.0
H873 H 0.92584 0.32682 0.41209 0.0
H874 H 0.87552 0.31667 0.26302 0.0
H875 H 0.85722 0.31232 0.39863 0.0
H876 H 0.99477 0.27457 0.19922 0.0
H877 H 0.03119 0.39867 0.18957 0.0
H878 H 0.02763 0.48751 0.48424 0.0
H879 H 0.97766 0.46791 0.35525 0.0
Li880 Li 0.72036 0.04648 0.74134 0.0
Li881 Li 0.68659 0.97673 0.71815 0.0
Li882 Li 0.6896 0.02632 0.6685 0.0
Li883 Li 0.64539 0.00779 0.7328 0.0
C884 C 0.77161 0.03366 0.68505 0.0
N885 N 0.84986 0.05796 0.66824 0.0
C886 C 0.78794 0.01098 0.6993 0.0
C887 C 0.79493 0.06852 0.66196 0.0
C888 C 0.82761 0.02382 0.69055 0.0
C889 C 0.83448 0.08035 0.65388 0.0
C890 C 0.68616 0.97732 0.80594 0.0
C891 C 0.66189 0.92562 0.85967 0.0
N892 N 0.69959 0.93428 0.86781 0.0
C893 C 0.72464 0.98572 0.81481 0.0
C894 C 0.65449 0.9471 0.82855 0.0
C895 C 0.73083 0.96365 0.84626 0.0
C896 C 0.75709 0.11608 0.79297 0.0
N897 N 0.76342 0.08849 0.77352 0.0
C898 C 0.83056 0.12206 0.798 0.0
C899 C 0.79928 0.09088 0.77603 0.0
C900 C 0.82506 0.15103 0.8187 0.0
C901 C 0.78747 0.14755 0.81596 0.0
H902 H 0.72832 0.1136 0.7907 0.0
H903 H 0.80389 0.06862 0.7611 0.0
C904 C 0.68448 0.92226 0.66374 0.0
N905 N 0.68845 0.92947 0.7071 0.0
C906 C 0.68449 0.88944 0.64639 0.0
C907 C 0.69677 0.87355 0.71821 0.0
C908 C 0.69478 0.90602 0.73451 0.0
C909 C 0.69093 0.86424 0.67339 0.0
H910 H 0.68095 0.94213 0.64232 0.0
H911 H 0.69892 0.91269 0.76874 0.0
C912 C 0.69089 0.09372 0.68675 0.0
N913 N 0.70368 0.15731 0.63615 0.0
C914 C 0.65889 0.09674 0.67136 0.0
C915 C 0.72938 0.12315 0.67681 0.0
C916 C 0.66598 0.12909 0.6457 0.0
C917 C 0.73524 0.15504 0.65107 0.0
C918 C 0.61279 0.93855 0.67762 0.0
C919 C 0.60013 0.92417 0.6357 0.0
C920 C 0.59382 0.91453 0.71337 0.0
C921 C 0.56869 0.88573 0.63025 0.0
C922 C 0.56247 0.87626 0.70657 0.0
N923 N 0.55068 0.86277 0.6655 0.0
C924 C 0.71205 0.01589 0.58897 0.0
C925 C 0.66416 0.036 0.58441 0.0
C926 C 0.70699 0.00539 0.54548 0.0
N927 N 0.69063 0.03056 0.60764 0.0
C928 C 0.6585 0.02633 0.54026 0.0
C929 C 0.67961 0.01005 0.52048 0.0
H930 H 0.73096 0.00941 0.60853 0.0
H931 H 0.64579 0.04549 0.60054 0.0
C932 C 0.58528 0.01312 0.78478 0.0
N933 N 0.59519 1.00247 0.7468 0.0
C934 C 0.54935 0.01303 0.7883 0.0
C935 C 0.53433 0.98938 0.71453 0.0
C936 C 0.57044 0.99073 0.71218 0.0
C937 C 0.52373 1.0019 0.75235 0.0
H938 H 0.60582 0.02314 0.81165 0.0
H939 H 0.57933 0.9838 0.68183 0.0
O940 O 0.73282 0.0215 0.69321 0.0
O941 O 0.67954 0.99871 0.77544 0.0
O942 O 0.68457 0.06217 0.7116 0.0
O943 O 0.64379 0.976 0.68354 0.0
H944 H 0.77028 0.98394 0.71725 0.0
H945 H 0.78257 0.08614 0.6503 0.0
H946 H 0.84071 0.00667 0.70154 0.0
H947 H 0.85292 0.1073 0.63612 0.0
H948 H 0.63767 0.90211 0.87741 0.0
H949 H 0.7494 0.00876 0.79732 0.0
H950 H 0.62454 0.94042 0.82227 0.0
H951 H 0.76046 0.96976 0.85337 0.0
H952 H 0.85892 0.12347 0.79824 0.0
H953 H 0.78129 0.16857 0.83182 0.0
H954 H 0.67901 0.88412 0.61204 0.0
H955 H 0.70329 0.85648 0.74083 0.0
H956 H 0.62892 0.0742 0.67894 0.0
H957 H 0.75443 0.12138 0.68889 0.0
H958 H 0.64151 0.13175 0.63336 0.0
H959 H 0.76487 0.17801 0.64299 0.0
H960 H 0.6146 0.94249 0.60771 0.0
H961 H 0.60328 0.92534 0.74596 0.0
H962 H 0.55863 0.87414 0.59801 0.0
H963 H 0.54753 0.85728 0.73393 0.0
H964 H 0.72311 0.99193 0.53223 0.0
H965 H 0.63722 0.03064 0.52219 0.0
H966 H 0.54253 0.02308 0.81806 0.0
H967 H 0.51536 0.97955 0.68627 0.0
Li968 Li 0.67771 0.71843 0.07495 0.0
Li969 Li 0.7136 0.68442 0.05192 0.0
Li970 Li 0.66707 0.68748 0.00218 0.0
Li971 Li 0.64131 0.64351 0.06653 0.0
C972 C 0.74178 0.76934 0.01822 0.0
N973 N 0.79575 0.84737 0.00042 0.0
C974 C 0.78081 0.7858 0.03245 0.0
C975 C 0.73024 0.79242 0.99466 0.0
C976 C 0.80764 0.82535 0.02319 0.0
C977 C 0.75796 0.83186 0.98608 0.0
C978 C 0.71261 0.68464 0.13981 0.0
C979 C 0.74023 0.66111 0.19416 0.0
N980 N 0.76918 0.69892 0.20188 0.0
C981 C 0.7426 0.72325 0.14825 0.0
C982 C 0.7113 0.65327 0.16295 0.0
C983 C 0.77092 0.72988 0.1798 0.0
C984 C 0.64507 0.75519 0.12692 0.0
N985 N 0.67883 0.7616 0.10699 0.0
C986 C 0.71228 0.82896 0.13078 0.0
C987 C 0.71216 0.79762 0.1089 0.0
C988 C 0.67796 0.82336 0.15196 0.0
C989 C 0.64401 0.78563 0.14981 0.0
H990 H 0.6189 0.7263 0.12509 0.0
H991 H 0.73891 0.80232 0.09357 0.0
C992 C 0.76557 0.68126 -0.0023 0.0
N993 N 0.76269 0.68617 0.04092 0.0
C994 C 0.79849 0.6814 0.98042 0.0
C995 C 0.82742 0.69567 0.0519 0.0
C996 C 0.79287 0.69352 0.0682 0.0
C997 C 0.83057 0.68898 0.00725 0.0
H998 H 0.7419 0.67701 0.97632 0.0
H999 H 0.79063 0.69846 0.10227 0.0
C1000 C 0.60117 0.68934 0.02039 0.0
N1001 N 0.55068 0.70272 0.96996 0.0
C1002 C 0.56601 0.65754 0.00501 0.0
C1003 C 0.61053 0.72793 0.01054 0.0
C1004 C 0.5409 0.66492 0.97944 0.0
C1005 C 0.58464 0.73409 0.98488 0.0
C1006 C 0.67724 0.6101 0.01218 0.0
C1007 C 0.67825 0.59647 0.97056 0.0
C1008 C 0.68232 0.5916 0.04835 0.0
C1009 C 0.68457 0.56452 0.96584 0.0
C1010 C 0.68854 0.55972 0.04227 0.0
N1011 N 0.68954 0.54696 0.00149 0.0
C1012 C 0.70025 0.70926 0.9228 0.0
C1013 C 0.63192 0.66261 0.91788 0.0
C1014 C 0.70565 0.70422 0.87929 0.0
N1015 N 0.664 0.68847 0.94129 0.0
C1016 C 0.63589 0.65698 0.8737 0.0
C1017 C 0.6734 0.67749 0.8541 0.0
H1018 H 0.72572 0.72764 0.9425 0.0
H1019 H 0.60388 0.6447 0.93385 0.0
C1020 C 0.57614 0.58324 0.11877 0.0
N1021 N 0.59634 0.59342 0.08056 0.0
C1022 C 0.54026 0.54735 0.12231 0.0
C1023 C 0.54811 0.53292 0.04803 0.0
C1024 C 0.58292 0.56898 0.04568 0.0
C1025 C 0.52537 0.52205 0.08613 0.0
H1026 H 0.587 0.60352 0.14586 0.0
H1027 H 0.59847 0.5781 0.01519 0.0
O1028 O 0.71514 0.73066 0.02689 0.0
O1029 O 0.68458 0.67758 0.10917 0.0
O1030 O 0.62624 0.68272 0.04516 0.0
O1031 O 0.67149 0.64163 0.01736 0.0
H1032 H 0.7902 0.76833 0.05075 0.0
H1033 H 0.70024 0.77996 0.98301 0.0
H1034 H 0.83791 0.83856 0.03415 0.0
H1035 H 0.74945 0.85012 0.96795 0.0
H1036 H 0.73963 0.63713 0.2123 0.0
H1037 H 0.74424 0.74777 0.13033 0.0
H1038 H 0.68811 0.62322 0.15699 0.0
H1039 H 0.79437 0.75961 0.18659 0.0
H1040 H 0.73909 0.85742 0.13057 0.0
H1041 H 0.61696 0.77939 0.16605 0.0
H1042 H 0.79807 0.67521 0.94622 0.0
H1043 H 0.85132 0.70305 0.07436 0.0
H1044 H 0.55834 0.62749 0.01252 0.0
H1045 H 0.63746 0.75283 0.02262 0.0
H1046 H 0.51367 0.64061 0.9671 0.0
H1047 H 0.59153 0.7638 0.97687 0.0
H1048 H 0.67438 0.61058 0.94225 0.0
H1049 H 0.68154 0.60183 0.08071 0.0
H1050 H 0.68554 0.55369 0.93383 0.0
H1051 H 0.69259 0.54513 0.06997 0.0
H1052 H 0.73529 0.71983 0.86617 0.0
H1053 H 0.61015 0.6362 0.85546 0.0
H1054 H 0.52369 0.54031 0.1523 0.0
H1055 H 0.53867 0.5142 0.01957 0.0
loop_
_geom_bond_atom_site_label_1
_geom_bond_atom_site_label_2
_geom_bond_distance
_geom_bond_site_symmetry_2
_ccdc_geom_bond_type
Li0 N17 1.990 . S
Li0 O60 1.956 . S
Li0 O61 1.970 1_565 S
Li0 O62 1.961 . S
Li1 N25 1.990 . S
Li1 O60 1.970 1_545 S
Li1 O61 1.956 . S
Li1 O63 1.961 . S
Li2 N47 1.990 . S
Li2 O60 1.961 . S
Li2 O62 1.956 . S
Li2 O63 1.970 1_565 S
Li3 N53 1.990 . S
Li3 O61 1.961 . S
Li3 O62 1.970 1_545 S
Li3 O63 1.956 . S
C4 C6 1.348 . S
C4 C7 1.356 . S
C4 O60 1.325 . S
N5 C8 1.314 . S
N5 C9 1.279 . S
C6 C4 1.348 . S
C6 C8 1.353 . S
C6 H64 0.929 . S
C7 C4 1.356 . S
C7 C9 1.358 . S
C7 H65 0.930 . S
C8 N5 1.314 . S
C8 C6 1.353 . S
C8 H66 0.930 . S
C9 N5 1.279 . S
C9 C7 1.358 . S
C9 H67 0.930 . S
C10 C13 1.348 . S
C10 C14 1.356 . S
C10 O61 1.325 . S
C11 N12 1.279 . S
C11 C14 1.358 . S
C11 H68 0.930 . S
N12 C11 1.279 . S
N12 C15 1.314 . S
C13 C10 1.348 . S
C13 C15 1.353 . S
C13 H69 0.929 . S
C14 C10 1.356 . S
C14 C11 1.358 . S
C14 H70 0.930 . S
C15 N12 1.314 . S
C15 C13 1.353 . S
C15 H71 0.930 . S
C16 N17 1.314 1_545 S
C16 C21 1.353 . S
C16 H22 0.930 . S
N17 Li0 1.990 . S
N17 C16 1.314 1_565 S
N17 C19 1.279 . S
C18 C19 1.358 . S
C18 C20 1.356 . S
C18 H72 0.930 . S
C19 N17 1.279 . S
C19 C18 1.358 . S
C19 H23 0.930 . S
C20 C18 1.356 . S
C20 C21 1.348 1_565 S
C21 C16 1.353 . S
C21 C20 1.348 1_545 S
C21 H73 0.929 . S
H22 C16 0.930 . S
H23 C19 0.930 . S
C24 N25 1.314 . S
C24 C26 1.353 . S
C24 H30 0.930 1_545 S
N25 Li1 1.990 . S
N25 C24 1.314 . S
N25 C28 1.279 . S
C26 C24 1.353 . S
C26 C29 1.348 . S
C26 H74 0.929 . S
C27 C28 1.358 . S
C27 C29 1.356 . S
C27 H75 0.930 . S
C28 N25 1.279 . S
C28 C27 1.358 . S
C28 H31 0.930 . S
C29 C26 1.348 . S
C29 C27 1.356 . S
H30 C24 0.930 1_565 S
H31 C28 0.930 . S
C32 C34 1.348 . S
C32 C35 1.356 . S
C32 O62 1.325 . S
N33 C36 1.314 . S
N33 C37 1.279 . S
C34 C32 1.348 . S
C34 C36 1.353 . S
C34 H76 0.929 1_565 S
C35 C32 1.356 . S
C35 C37 1.358 . S
C35 H77 0.930 . S
C36 N33 1.314 . S
C36 C34 1.353 . S
C36 H78 0.930 . S
C37 N33 1.279 . S
C37 C35 1.358 . S
C37 H79 0.930 . S
C38 C39 1.348 1_545 S
C38 C40 1.356 . S
C38 O63 1.325 . S
C39 C38 1.348 1_565 S
C39 C41 1.353 . S
C39 H80 0.929 . S
C40 C38 1.356 . S
C40 C42 1.358 . S
C40 H81 0.930 . S
C41 C39 1.353 . S
C41 N43 1.314 1_565 S
C41 H82 0.930 . S
C42 C40 1.358 . S
C42 N43 1.279 . S
C42 H83 0.930 . S
N43 C41 1.314 1_545 S
N43 C42 1.279 . S
C44 C46 1.353 . S
C44 N47 1.314 . S
C44 H50 0.930 . S
C45 N47 1.279 . S
C45 C48 1.358 . S
C45 H51 0.930 . S
C46 C44 1.353 . S
C46 C49 1.348 . S
C46 H84 0.929 . S
N47 Li2 1.990 . S
N47 C44 1.314 . S
N47 C45 1.279 . S
C48 C45 1.358 . S
C48 C49 1.356 . S
C48 H85 0.930 . S
C49 C46 1.348 . S
C49 C48 1.356 . S
H50 C44 0.930 . S
H51 C45 0.930 . S
C52 N53 1.314 . S
C52 C54 1.353 . S
C52 H58 0.930 . S
N53 Li3 1.990 . S
N53 C52 1.314 . S
N53 C56 1.279 . S
C54 C52 1.353 . S
C54 C57 1.348 . S
C54 H86 0.929 . S
C55 C56 1.358 . S
C55 C57 1.356 . S
C55 H87 0.930 . S
C56 N53 1.279 . S
C56 C55 1.358 . S
C56 H59 0.930 . S
C57 C54 1.348 . S
C57 C55 1.356 . S
H58 C52 0.930 . S
H59 C56 0.930 . S
O60 Li0 1.956 . S
O60 Li1 1.970 1_565 S
O60 Li2 1.961 . S
O60 C4 1.325 . S
O61 Li0 1.970 1_545 S
O61 Li1 1.956 . S
O61 Li3 1.961 . S
O61 C10 1.325 . S
O62 Li0 1.961 . S
O62 Li2 1.956 . S
O62 Li3 1.970 1_565 S
O62 C32 1.325 . S
O63 Li1 1.961 . S
O63 Li2 1.970 1_545 S
O63 Li3 1.956 . S
O63 C38 1.325 . S
H64 C6 0.929 . S
H65 C7 0.930 . S
H66 C8 0.930 . S
H67 C9 0.930 . S
H68 C11 0.930 . S
H69 C13 0.929 . S
H70 C14 0.930 . S
H71 C15 0.930 . S
H72 C18 0.930 . S
H73 C21 0.929 . S
H74 C26 0.929 . S
H75 C27 0.930 . S
H76 C34 0.929 1_545 S
H77 C35 0.930 . S
H78 C36 0.930 . S
H79 C37 0.930 . S
H80 C39 0.929 . S
H81 C40 0.930 . S
H82 C41 0.930 . S
H83 C42 0.930 . S
H84 C46 0.929 . S
H85 C48 0.930 . S
H86 C54 0.929 . S
H87 C55 0.930 . S
Li88 N105 1.990 . S
Li88 O148 1.956 . S
Li88 O149 1.970 . S
Li88 O150 1.961 . S
Li89 N113 1.990 . S
Li89 O148 1.970 . S
Li89 O149 1.956 . S
Li89 O151 1.961 . S
Li90 N135 1.990 . S
Li90 O148 1.961 . S
Li90 O150 1.956 . S
Li90 O151 1.970 . S
Li91 N141 1.990 . S
Li91 O149 1.961 . S
Li91 O150 1.970 . S
Li91 O151 1.956 . S
C92 C94 1.348 . S
C92 C95 1.356 . S
C92 O148 1.325 . S
N93 C96 1.314 . S
N93 C97 1.279 . S
C94 C92 1.348 . S
C94 C96 1.353 . S
C94 H152 0.929 . S
C95 C92 1.356 . S
C95 C97 1.358 . S
C95 H153 0.930 . S
C96 N93 1.314 . S
C96 C94 1.353 . S
C96 H154 0.930 . S
C97 N93 1.279 . S
C97 C95 1.358 . S
C97 H155 0.930 . S
C98 C101 1.348 . S
C98 C102 1.356 . S
C98 O149 1.325 . S
C99 N100 1.279 . S
C99 C102 1.358 . S
C99 H156 0.930 . S
N100 C99 1.279 . S
N100 C103 1.314 . S
C101 C98 1.348 . S
C101 C103 1.353 . S
C101 H157 0.929 . S
C102 C98 1.356 . S
C102 C99 1.358 . S
C102 H158 0.930 . S
C103 N100 1.314 . S
C103 C101 1.353 . S
C103 H159 0.930 . S
C104 N105 1.314 . S
C104 C109 1.353 . S
C104 H110 0.930 . S
N105 Li88 1.990 . S
N105 C104 1.314 . S
N105 C107 1.279 . S
C106 C107 1.358 . S
C106 C108 1.356 . S
C106 H160 0.930 . S
C107 N105 1.279 . S
C107 C106 1.358 . S
C107 H111 0.930 . S
C108 C106 1.356 . S
C108 C109 1.348 . S
C109 C104 1.353 . S
C109 C108 1.348 . S
C109 H161 0.929 . S
H110 C104 0.930 . S
H111 C107 0.930 . S
C112 N113 1.314 . S
C112 C114 1.353 . S
C112 H118 0.930 . S
N113 Li89 1.990 . S
N113 C112 1.314 . S
N113 C116 1.279 . S
C114 C112 1.353 . S
C114 C117 1.348 . S
C114 H162 0.929 . S
C115 C116 1.358 . S
C115 C117 1.356 . S
C115 H163 0.930 . S
C116 N113 1.279 . S
C116 C115 1.358 . S
C116 H119 0.930 . S
C117 C114 1.348 . S
C117 C115 1.356 . S
H118 C112 0.930 . S
H119 C116 0.930 . S
C120 C122 1.348 . S
C120 C123 1.356 . S
C120 O150 1.325 . S
N121 C124 1.314 . S
N121 C125 1.279 . S
C122 C120 1.348 . S
C122 C124 1.353 . S
C122 H164 0.929 . S
C123 C120 1.356 . S
C123 C125 1.358 . S
C123 H165 0.930 . S
C124 N121 1.314 . S
C124 C122 1.353 . S
C124 H166 0.930 . S
C125 N121 1.279 . S
C125 C123 1.358 . S
C125 H167 0.930 . S
C126 C127 1.348 . S
C126 C128 1.356 . S
C126 O151 1.325 . S
C127 C126 1.348 . S
C127 C129 1.353 . S
C127 H168 0.929 . S
C128 C126 1.356 . S
C128 C130 1.358 . S
C128 H169 0.930 . S
C129 C127 1.353 . S
C129 N131 1.314 . S
C129 H170 0.930 . S
C130 C128 1.358 . S
C130 N131 1.279 . S
C130 H171 0.930 . S
N131 C129 1.314 . S
N131 C130 1.279 . S
C132 C134 1.353 . S
C132 N135 1.314 . S
C132 H138 0.930 . S
C133 N135 1.279 . S
C133 C136 1.358 . S
C133 H139 0.930 . S
C134 C132 1.353 . S
C134 C137 1.348 . S
C134 H172 0.929 . S
N135 Li90 1.990 . S
N135 C132 1.314 . S
N135 C133 1.279 . S
C136 C133 1.358 . S
C136 C137 1.356 . S
C136 H173 0.930 . S
C137 C134 1.348 . S
C137 C136 1.356 . S
H138 C132 0.930 . S
H139 C133 0.930 . S
C140 N141 1.314 . S
C140 C142 1.353 . S
C140 H146 0.930 . S
N141 Li91 1.990 . S
N141 C140 1.314 . S
N141 C144 1.279 . S
C142 C140 1.353 . S
C142 C145 1.348 . S
C142 H174 0.929 . S
C143 C144 1.358 . S
C143 C145 1.356 . S
C143 H175 0.930 . S
C144 N141 1.279 . S
C144 C143 1.358 . S
C144 H147 0.930 . S
C145 C142 1.348 . S
C145 C143 1.356 . S
H146 C140 0.930 . S
H147 C144 0.930 . S
O148 Li88 1.956 . S
O148 Li89 1.970 . S
O148 Li90 1.961 . S
O148 C92 1.325 . S
O149 Li88 1.970 . S
O149 Li89 1.956 . S
O149 Li91 1.961 . S
O149 C98 1.325 . S
O150 Li88 1.961 . S
O150 Li90 1.956 . S
O150 Li91 1.970 . S
O150 C120 1.325 . S
O151 Li89 1.961 . S
O151 Li90 1.970 . S
O151 Li91 1.956 . S
O151 C126 1.325 . S
H152 C94 0.929 . S
H153 C95 0.930 . S
H154 C96 0.930 . S
H155 C97 0.930 . S
H156 C99 0.930 . S
H157 C101 0.929 . S
H158 C102 0.930 . S
H159 C103 0.930 . S
H160 C106 0.930 . S
H161 C109 0.929 . S
H162 C114 0.929 . S
H163 C115 0.930 . S
H164 C122 0.929 . S
H165 C123 0.930 . S
H166 C124 0.930 . S
H167 C125 0.930 . S
H168 C127 0.929 . S
H169 C128 0.930 . S
H170 C129 0.930 . S
H171 C130 0.930 . S
H172 C134 0.929 . S
H173 C136 0.930 . S
H174 C142 0.929 . S
H175 C143 0.930 . S
Li176 N193 1.990 . S
Li176 O236 1.956 . S
Li176 O237 1.970 1_455 S
Li176 O238 1.961 . S
Li177 N201 1.990 . S
Li177 O236 1.970 1_654 S
Li177 O237 1.956 1_554 S
Li177 O239 1.961 1_554 S
Li178 N223 1.990 . S
Li178 O236 1.961 . S
Li178 O238 1.956 . S
Li178 O239 1.970 1_455 S
Li179 N229 1.990 . S
Li179 O237 1.961 . S
Li179 O238 1.970 1_655 S
Li179 O239 1.956 . S
C180 C182 1.348 . S
C180 C183 1.356 1_554 S
C180 O236 1.325 1_554 S
N181 C184 1.314 . S
N181 C185 1.279 . S
C182 C180 1.348 . S
C182 C184 1.353 . S
C182 H240 0.929 . S
C183 C180 1.356 1_556 S
C183 C185 1.358 1_556 S
C183 H241 0.930 . S
C184 N181 1.314 . S
C184 C182 1.353 . S
C184 H242 0.930 . S
C185 N181 1.279 . S
C185 C183 1.358 1_554 S
C185 H243 0.930 . S
C186 C189 1.348 . S
C186 C190 1.356 . S
C186 O237 1.325 . S
C187 N188 1.279 . S
C187 C190 1.358 . S
C187 H244 0.930 . S
N188 C187 1.279 . S
N188 C191 1.314 . S
C189 C186 1.348 . S
C189 C191 1.353 . S
C189 H245 0.929 . S
C190 C186 1.356 . S
C190 C187 1.358 . S
C190 H246 0.930 . S
C191 N188 1.314 . S
C191 C189 1.353 . S
C191 H247 0.930 . S
C192 N193 1.314 1_655 S
C192 C197 1.353 . S
C192 H198 0.930 . S
N193 Li176 1.990 . S
N193 C192 1.314 1_455 S
N193 C195 1.279 . S
C194 C195 1.358 . S
C194 C196 1.356 . S
C194 H248 0.930 . S
C195 N193 1.279 . S
C195 C194 1.358 . S
C195 H199 0.930 . S
C196 C194 1.356 . S
C196 C197 1.348 1_455 S
C197 C192 1.353 . S
C197 C196 1.348 1_655 S
C197 H249 0.929 . S
H198 C192 0.930 . S
H199 C195 0.930 . S
C200 N201 1.314 . S
C200 C202 1.353 . S
C200 H206 0.930 1_655 S
N201 Li177 1.990 . S
N201 C200 1.314 . S
N201 C204 1.279 . S
C202 C200 1.353 . S
C202 C205 1.348 . S
C202 H250 0.929 . S
C203 C204 1.358 . S
C203 C205 1.356 . S
C203 H251 0.930 . S
C204 N201 1.279 . S
C204 C203 1.358 . S
C204 H207 0.930 . S
C205 C202 1.348 . S
C205 C203 1.356 . S
H206 C200 0.930 1_455 S
H207 C204 0.930 . S
C208 C210 1.348 . S
C208 C211 1.356 . S
C208 O238 1.325 . S
N209 C212 1.314 . S
N209 C213 1.279 . S
C210 C208 1.348 . S
C210 C212 1.353 . S
C210 H252 0.929 1_455 S
C211 C208 1.356 . S
C211 C213 1.358 . S
C211 H253 0.930 . S
C212 N209 1.314 . S
C212 C210 1.353 . S
C212 H254 0.930 . S
C213 N209 1.279 . S
C213 C211 1.358 . S
C213 H255 0.930 . S
C214 C215 1.348 1_655 S
C214 C216 1.356 1_556 S
C214 O239 1.325 . S
C215 C214 1.348 1_455 S
C215 C217 1.353 . S
C215 H256 0.929 . S
C216 C214 1.356 1_554 S
C216 C218 1.358 . S
C216 H257 0.930 . S
C217 C215 1.353 . S
C217 N219 1.314 1_456 S
C217 H258 0.930 . S
C218 C216 1.358 . S
C218 N219 1.279 . S
C218 H259 0.930 . S
N219 C217 1.314 1_654 S
N219 C218 1.279 . S
C220 C222 1.353 . S
C220 N223 1.314 . S
C220 H226 0.930 . S
C221 N223 1.279 . S
C221 C224 1.358 . S
C221 H227 0.930 . S
C222 C220 1.353 . S
C222 C225 1.348 . S
C222 H260 0.929 . S
N223 Li178 1.990 . S
N223 C220 1.314 . S
N223 C221 1.279 . S
C224 C221 1.358 . S
C224 C225 1.356 . S
C224 H261 0.930 . S
C225 C222 1.348 . S
C225 C224 1.356 . S
H226 C220 0.930 . S
H227 C221 0.930 . S
C228 N229 1.314 . S
C228 C230 1.353 . S
C228 H234 0.930 . S
N229 Li179 1.990 . S
N229 C228 1.314 . S
N229 C232 1.279 . S
C230 C228 1.353 . S
C230 C233 1.348 . S
C230 H262 0.929 . S
C231 C232 1.358 . S
C231 C233 1.356 . S
C231 H263 0.930 . S
C232 N229 1.279 . S
C232 C231 1.358 . S
C232 H235 0.930 . S
C233 C230 1.348 . S
C233 C231 1.356 . S
H234 C228 0.930 . S
H235 C232 0.930 . S
O236 Li176 1.956 . S
O236 Li177 1.970 1_456 S
O236 Li178 1.961 . S
O236 C180 1.325 1_556 S
O237 Li176 1.970 1_655 S
O237 Li177 1.956 1_556 S
O237 Li179 1.961 . S
O237 C186 1.325 . S
O238 Li176 1.961 . S
O238 Li178 1.956 . S
O238 Li179 1.970 1_455 S
O238 C208 1.325 . S
O239 Li177 1.961 1_556 S
O239 Li178 1.970 1_655 S
O239 Li179 1.956 . S
O239 C214 1.325 . S
H240 C182 0.929 . S
H241 C183 0.930 . S
H242 C184 0.930 . S
H243 C185 0.930 . S
H244 C187 0.930 . S
H245 C189 0.929 . S
H246 C190 0.930 . S
H247 C191 0.930 . S
H248 C194 0.930 . S
H249 C197 0.929 . S
H250 C202 0.929 . S
H251 C203 0.930 . S
H252 C210 0.929 1_655 S
H253 C211 0.930 . S
H254 C212 0.930 . S
H255 C213 0.930 . S
H256 C215 0.929 . S
H257 C216 0.930 . S
H258 C217 0.930 . S
H259 C218 0.930 . S
H260 C222 0.929 . S
H261 C224 0.930 . S
H262 C230 0.929 . S
H263 C231 0.930 . S
Li264 N281 1.990 . S
Li264 O324 1.956 . S
Li264 O325 1.970 1_545 S
Li264 O326 1.961 . S
Li265 N289 1.990 . S
Li265 O324 1.970 1_565 S
Li265 O325 1.956 . S
Li265 O327 1.961 . S
Li266 N311 1.990 . S
Li266 O324 1.961 . S
Li266 O326 1.956 . S
Li266 O327 1.970 1_545 S
Li267 N317 1.990 . S
Li267 O325 1.961 . S
Li267 O326 1.970 1_565 S
Li267 O327 1.956 . S
C268 C270 1.348 . S
C268 C271 1.356 . S
C268 O324 1.325 . S
N269 C272 1.314 . S
N269 C273 1.279 . S
C270 C268 1.348 . S
C270 C272 1.353 . S
C270 H328 0.929 . S
C271 C268 1.356 . S
C271 C273 1.358 . S
C271 H329 0.930 . S
C272 N269 1.314 . S
C272 C270 1.353 . S
C272 H330 0.930 . S
C273 N269 1.279 . S
C273 C271 1.358 . S
C273 H331 0.930 . S
C274 C277 1.348 . S
C274 C278 1.356 . S
C274 O325 1.325 . S
C275 N276 1.279 . S
C275 C278 1.358 . S
C275 H332 0.930 . S
N276 C275 1.279 . S
N276 C279 1.314 . S
C277 C274 1.348 . S
C277 C279 1.353 . S
C277 H333 0.929 . S
C278 C274 1.356 . S
C278 C275 1.358 . S
C278 H334 0.930 . S
C279 N276 1.314 . S
C279 C277 1.353 . S
C279 H335 0.930 . S
C280 N281 1.314 1_565 S
C280 C285 1.353 . S
C280 H286 0.930 . S
N281 Li264 1.990 . S
N281 C280 1.314 1_545 S
N281 C283 1.279 . S
C282 C283 1.358 . S
C282 C284 1.356 . S
C282 H336 0.930 . S
C283 N281 1.279 . S
C283 C282 1.358 . S
C283 H287 0.930 . S
C284 C282 1.356 . S
C284 C285 1.348 1_545 S
C285 C280 1.353 . S
C285 C284 1.348 1_565 S
C285 H337 0.929 . S
H286 C280 0.930 . S
H287 C283 0.930 . S
C288 N289 1.314 . S
C288 C290 1.353 . S
C288 H294 0.930 1_565 S
N289 Li265 1.990 . S
N289 C288 1.314 . S
N289 C292 1.279 . S
C290 C288 1.353 . S
C290 C293 1.348 . S
C290 H338 0.929 . S
C291 C292 1.358 . S
C291 C293 1.356 . S
C291 H339 0.930 . S
C292 N289 1.279 . S
C292 C291 1.358 . S
C292 H295 0.930 . S
C293 C290 1.348 . S
C293 C291 1.356 . S
H294 C288 0.930 1_545 S
H295 C292 0.930 . S
C296 C298 1.348 . S
C296 C299 1.356 . S
C296 O326 1.325 . S
N297 C300 1.314 . S
N297 C301 1.279 . S
C298 C296 1.348 . S
C298 C300 1.353 . S
C298 H340 0.929 1_545 S
C299 C296 1.356 . S
C299 C301 1.358 . S
C299 H341 0.930 . S
C300 N297 1.314 . S
C300 C298 1.353 . S
C300 H342 0.930 . S
C301 N297 1.279 . S
C301 C299 1.358 . S
C301 H343 0.930 . S
C302 C303 1.348 1_565 S
C302 C304 1.356 . S
C302 O327 1.325 . S
C303 C302 1.348 1_545 S
C303 C305 1.353 . S
C303 H344 0.929 . S
C304 C302 1.356 . S
C304 C306 1.358 . S
C304 H345 0.930 . S
C305 C303 1.353 . S
C305 N307 1.314 1_545 S
C305 H346 0.930 . S
C306 C304 1.358 . S
C306 N307 1.279 . S
C306 H347 0.930 . S
N307 C305 1.314 1_565 S
N307 C306 1.279 . S
C308 C310 1.353 . S
C308 N311 1.314 . S
C308 H314 0.930 . S
C309 N311 1.279 . S
C309 C312 1.358 . S
C309 H315 0.930 . S
C310 C308 1.353 . S
C310 C313 1.348 . S
C310 H348 0.929 . S
N311 Li266 1.990 . S
N311 C308 1.314 . S
N311 C309 1.279 . S
C312 C309 1.358 . S
C312 C313 1.356 . S
C312 H349 0.930 . S
C313 C310 1.348 . S
C313 C312 1.356 . S
H314 C308 0.930 . S
H315 C309 0.930 . S
C316 N317 1.314 . S
C316 C318 1.353 . S
C316 H322 0.930 . S
N317 Li267 1.990 . S
N317 C316 1.314 . S
N317 C320 1.279 . S
C318 C316 1.353 . S
C318 C321 1.348 . S
C318 H350 0.929 . S
C319 C320 1.358 . S
C319 C321 1.356 . S
C319 H351 0.930 . S
C320 N317 1.279 . S
C320 C319 1.358 . S
C320 H323 0.930 . S
C321 C318 1.348 . S
C321 C319 1.356 . S
H322 C316 0.930 . S
H323 C320 0.930 . S
O324 Li264 1.956 . S
O324 Li265 1.970 1_545 S
O324 Li266 1.961 . S
O324 C268 1.325 . S
O325 Li264 1.970 1_565 S
O325 Li265 1.956 . S
O325 Li267 1.961 . S
O325 C274 1.325 . S
O326 Li264 1.961 . S
O326 Li266 1.956 . S
O326 Li267 1.970 1_545 S
O326 C296 1.325 . S
O327 Li265 1.961 . S
O327 Li266 1.970 1_565 S
O327 Li267 1.956 . S
O327 C302 1.325 . S
H328 C270 0.929 . S
H329 C271 0.930 . S
H330 C272 0.930 . S
H331 C273 0.930 . S
H332 C275 0.930 . S
H333 C277 0.929 . S
H334 C278 0.930 . S
H335 C279 0.930 . S
H336 C282 0.930 . S
H337 C285 0.929 . S
H338 C290 0.929 . S
H339 C291 0.930 . S
H340 C298 0.929 1_565 S
H341 C299 0.930 . S
H342 C300 0.930 . S
H343 C301 0.930 . S
H344 C303 0.929 . S
H345 C304 0.930 . S
H346 C305 0.930 . S
H347 C306 0.930 . S
H348 C310 0.929 . S
H349 C312 0.930 . S
H350 C318 0.929 . S
H351 C319 0.930 . S
Li352 N369 1.990 . S
Li352 O412 1.956 . S
Li352 O413 1.970 . S
Li352 O414 1.961 . S
Li353 N377 1.990 . S
Li353 O412 1.970 . S
Li353 O413 1.956 . S
Li353 O415 1.961 . S
Li354 N399 1.990 . S
Li354 O412 1.961 . S
Li354 O414 1.956 . S
Li354 O415 1.970 . S
Li355 N405 1.990 . S
Li355 O413 1.961 . S
Li355 O414 1.970 . S
Li355 O415 1.956 . S
C356 C358 1.348 . S
C356 C359 1.356 . S
C356 O412 1.325 . S
N357 C360 1.314 . S
N357 C361 1.279 . S
C358 C356 1.348 . S
C358 C360 1.353 . S
C358 H416 0.929 . S
C359 C356 1.356 . S
C359 C361 1.358 . S
C359 H417 0.930 . S
C360 N357 1.314 . S
C360 C358 1.353 . S
C360 H418 0.930 . S
C361 N357 1.279 . S
C361 C359 1.358 . S
C361 H419 0.930 . S
C362 C365 1.348 . S
C362 C366 1.356 . S
C362 O413 1.325 . S
C363 N364 1.279 . S
C363 C366 1.358 . S
C363 H420 0.930 . S
N364 C363 1.279 . S
N364 C367 1.314 . S
C365 C362 1.348 . S
C365 C367 1.353 . S
C365 H421 0.929 . S
C366 C362 1.356 . S
C366 C363 1.358 . S
C366 H422 0.930 . S
C367 N364 1.314 . S
C367 C365 1.353 . S
C367 H423 0.930 . S
C368 N369 1.314 . S
C368 C373 1.353 . S
C368 H374 0.930 . S
N369 Li352 1.990 . S
N369 C368 1.314 . S
N369 C371 1.279 . S
C370 C371 1.358 . S
C370 C372 1.356 . S
C370 H424 0.930 . S
C371 N369 1.279 . S
C371 C370 1.358 . S
C371 H375 0.930 . S
C372 C370 1.356 . S
C372 C373 1.348 . S
C373 C368 1.353 . S
C373 C372 1.348 . S
C373 H425 0.929 . S
H374 C368 0.930 . S
H375 C371 0.930 . S
C376 N377 1.314 . S
C376 C378 1.353 . S
C376 H382 0.930 . S
N377 Li353 1.990 . S
N377 C376 1.314 . S
N377 C380 1.279 . S
C378 C376 1.353 . S
C378 C381 1.348 . S
C378 H426 0.929 . S
C379 C380 1.358 . S
C379 C381 1.356 . S
C379 H427 0.930 . S
C380 N377 1.279 . S
C380 C379 1.358 . S
C380 H383 0.930 . S
C381 C378 1.348 . S
C381 C379 1.356 . S
H382 C376 0.930 . S
H383 C380 0.930 . S
C384 C386 1.348 . S
C384 C387 1.356 . S
C384 O414 1.325 . S
N385 C388 1.314 . S
N385 C389 1.279 . S
C386 C384 1.348 . S
C386 C388 1.353 . S
C386 H428 0.929 . S
C387 C384 1.356 . S
C387 C389 1.358 . S
C387 H429 0.930 . S
C388 N385 1.314 . S
C388 C386 1.353 . S
C388 H430 0.930 . S
C389 N385 1.279 . S
C389 C387 1.358 . S
C389 H431 0.930 . S
C390 C391 1.348 . S
C390 C392 1.356 . S
C390 O415 1.325 . S
C391 C390 1.348 . S
C391 C393 1.353 . S
C391 H432 0.929 . S
C392 C390 1.356 . S
C392 C394 1.358 . S
C392 H433 0.930 . S
C393 C391 1.353 . S
C393 N395 1.314 . S
C393 H434 0.930 . S
C394 C392 1.358 . S
C394 N395 1.279 . S
C394 H435 0.930 . S
N395 C393 1.314 . S
N395 C394 1.279 . S
C396 C398 1.353 . S
C396 N399 1.314 . S
C396 H402 0.930 . S
C397 N399 1.279 . S
C397 C400 1.358 . S
C397 H403 0.930 . S
C398 C396 1.353 . S
C398 C401 1.348 . S
C398 H436 0.929 . S
N399 Li354 1.990 . S
N399 C396 1.314 . S
N399 C397 1.279 . S
C400 C397 1.358 . S
C400 C401 1.356 . S
C400 H437 0.930 . S
C401 C398 1.348 . S
C401 C400 1.356 . S
H402 C396 0.930 . S
H403 C397 0.930 . S
C404 N405 1.314 . S
C404 C406 1.353 . S
C404 H410 0.930 . S
N405 Li355 1.990 . S
N405 C404 1.314 . S
N405 C408 1.279 . S
C406 C404 1.353 . S
C406 C409 1.348 . S
C406 H438 0.929 . S
C407 C408 1.358 . S
C407 C409 1.356 . S
C407 H439 0.930 . S
C408 N405 1.279 . S
C408 C407 1.358 . S
C408 H411 0.930 . S
C409 C406 1.348 . S
C409 C407 1.356 . S
H410 C404 0.930 . S
H411 C408 0.930 . S
O412 Li352 1.956 . S
O412 Li353 1.970 . S
O412 Li354 1.961 . S
O412 C356 1.325 . S
O413 Li352 1.970 . S
O413 Li353 1.956 . S
O413 Li355 1.961 . S
O413 C362 1.325 . S
O414 Li352 1.961 . S
O414 Li354 1.956 . S
O414 Li355 1.970 . S
O414 C384 1.325 . S
O415 Li353 1.961 . S
O415 Li354 1.970 . S
O415 Li355 1.956 . S
O415 C390 1.325 . S
H416 C358 0.929 . S
H417 C359 0.930 . S
H418 C360 0.930 . S
H419 C361 0.930 . S
H420 C363 0.930 . S
H421 C365 0.929 . S
H422 C366 0.930 . S
H423 C367 0.930 . S
H424 C370 0.930 . S
H425 C373 0.929 . S
H426 C378 0.929 . S
H427 C379 0.930 . S
H428 C386 0.929 . S
H429 C387 0.930 . S
H430 C388 0.930 . S
H431 C389 0.930 . S
H432 C391 0.929 . S
H433 C392 0.930 . S
H434 C393 0.930 . S
H435 C394 0.930 . S
H436 C398 0.929 . S
H437 C400 0.930 . S
H438 C406 0.929 . S
H439 C407 0.930 . S
Li440 N457 1.990 . S
Li440 O500 1.956 . S
Li440 O501 1.970 1_655 S
Li440 O502 1.961 . S
Li441 N465 1.990 . S
Li441 O500 1.970 1_454 S
Li441 O501 1.956 1_554 S
Li441 O503 1.961 1_554 S
Li442 N487 1.990 . S
Li442 O500 1.961 . S
Li442 O502 1.956 . S
Li442 O503 1.970 1_655 S
Li443 N493 1.990 . S
Li443 O501 1.961 . S
Li443 O502 1.970 1_455 S
Li443 O503 1.956 . S
C444 C446 1.348 . S
C444 C447 1.356 1_554 S
C444 O500 1.325 1_554 S
N445 C448 1.314 . S
N445 C449 1.279 . S
C446 C444 1.348 . S
C446 C448 1.353 . S
C446 H504 0.929 . S
C447 C444 1.356 1_556 S
C447 C449 1.358 1_556 S
C447 H505 0.930 . S
C448 N445 1.314 . S
C448 C446 1.353 . S
C448 H506 0.930 . S
C449 N445 1.279 . S
C449 C447 1.358 1_554 S
C449 H507 0.930 . S
C450 C453 1.348 . S
C450 C454 1.356 . S
C450 O501 1.325 . S
C451 N452 1.279 . S
C451 C454 1.358 . S
C451 H508 0.930 . S
N452 C451 1.279 . S
N452 C455 1.314 . S
C453 C450 1.348 . S
C453 C455 1.353 . S
C453 H509 0.929 . S
C454 C450 1.356 . S
C454 C451 1.358 . S
C454 H510 0.930 . S
C455 N452 1.314 . S
C455 C453 1.353 . S
C455 H511 0.930 . S
C456 N457 1.314 1_455 S
C456 C461 1.353 . S
C456 H462 0.930 . S
N457 Li440 1.990 . S
N457 C456 1.314 1_655 S
N457 C459 1.279 . S
C458 C459 1.358 . S
C458 C460 1.356 . S
C458 H512 0.930 . S
C459 N457 1.279 . S
C459 C458 1.358 . S
C459 H463 0.930 . S
C460 C458 1.356 . S
C460 C461 1.348 1_655 S
C461 C456 1.353 . S
C461 C460 1.348 1_455 S
C461 H513 0.929 . S
H462 C456 0.930 . S
H463 C459 0.930 . S
C464 N465 1.314 . S
C464 C466 1.353 . S
C464 H470 0.930 1_455 S
N465 Li441 1.990 . S
N465 C464 1.314 . S
N465 C468 1.279 . S
C466 C464 1.353 . S
C466 C469 1.348 . S
C466 H514 0.929 . S
C467 C468 1.358 . S
C467 C469 1.356 . S
C467 H515 0.930 . S
C468 N465 1.279 . S
C468 C467 1.358 . S
C468 H471 0.930 . S
C469 C466 1.348 . S
C469 C467 1.356 . S
H470 C464 0.930 1_655 S
H471 C468 0.930 . S
C472 C474 1.348 . S
C472 C475 1.356 . S
C472 O502 1.325 . S
N473 C476 1.314 . S
N473 C477 1.279 . S
C474 C472 1.348 . S
C474 C476 1.353 . S
C474 H516 0.929 1_655 S
C475 C472 1.356 . S
C475 C477 1.358 . S
C475 H517 0.930 . S
C476 N473 1.314 . S
C476 C474 1.353 . S
C476 H518 0.930 . S
C477 N473 1.279 . S
C477 C475 1.358 . S
C477 H519 0.930 . S
C478 C479 1.348 1_455 S
C478 C480 1.356 1_556 S
C478 O503 1.325 . S
C479 C478 1.348 1_655 S
C479 C481 1.353 . S
C479 H520 0.929 . S
C480 C478 1.356 1_554 S
C480 C482 1.358 . S
C480 H521 0.930 . S
C481 C479 1.353 . S
C481 N483 1.314 1_656 S
C481 H522 0.930 . S
C482 C480 1.358 . S
C482 N483 1.279 . S
C482 H523 0.930 . S
N483 C481 1.314 1_454 S
N483 C482 1.279 . S
C484 C486 1.353 . S
C484 N487 1.314 . S
C484 H490 0.930 . S
C485 N487 1.279 . S
C485 C488 1.358 . S
C485 H491 0.930 . S
C486 C484 1.353 . S
C486 C489 1.348 . S
C486 H524 0.929 . S
N487 Li442 1.990 . S
N487 C484 1.314 . S
N487 C485 1.279 . S
C488 C485 1.358 . S
C488 C489 1.356 . S
C488 H525 0.930 . S
C489 C486 1.348 . S
C489 C488 1.356 . S
H490 C484 0.930 . S
H491 C485 0.930 . S
C492 N493 1.314 . S
C492 C494 1.353 . S
C492 H498 0.930 . S
N493 Li443 1.990 . S
N493 C492 1.314 . S
N493 C496 1.279 . S
C494 C492 1.353 . S
C494 C497 1.348 . S
C494 H526 0.929 . S
C495 C496 1.358 . S
C495 C497 1.356 . S
C495 H527 0.930 . S
C496 N493 1.279 . S
C496 C495 1.358 . S
C496 H499 0.930 . S
C497 C494 1.348 . S
C497 C495 1.356 . S
H498 C492 0.930 . S
H499 C496 0.930 . S
O500 Li440 1.956 . S
O500 Li441 1.970 1_656 S
O500 Li442 1.961 . S
O500 C444 1.325 1_556 S
O501 Li440 1.970 1_455 S
O501 Li441 1.956 1_556 S
O501 Li443 1.961 . S
O501 C450 1.325 . S
O502 Li440 1.961 . S
O502 Li442 1.956 . S
O502 Li443 1.970 1_655 S
O502 C472 1.325 . S
O503 Li441 1.961 1_556 S
O503 Li442 1.970 1_455 S
O503 Li443 1.956 . S
O503 C478 1.325 . S
H504 C446 0.929 . S
H505 C447 0.930 . S
H506 C448 0.930 . S
H507 C449 0.930 . S
H508 C451 0.930 . S
H509 C453 0.929 . S
H510 C454 0.930 . S
H511 C455 0.930 . S
H512 C458 0.930 . S
H513 C461 0.929 . S
H514 C466 0.929 . S
H515 C467 0.930 . S
H516 C474 0.929 1_455 S
H517 C475 0.930 . S
H518 C476 0.930 . S
H519 C477 0.930 . S
H520 C479 0.929 . S
H521 C480 0.930 . S
H522 C481 0.930 . S
H523 C482 0.930 . S
H524 C486 0.929 . S
H525 C488 0.930 . S
H526 C494 0.929 . S
H527 C495 0.930 . S
Li528 N545 1.990 . S
Li528 O588 1.956 . S
Li528 O589 1.970 1_455 S
Li528 O590 1.961 . S
Li529 N553 1.990 . S
Li529 O588 1.970 1_655 S
Li529 O589 1.956 . S
Li529 O591 1.961 . S
Li530 N575 1.990 . S
Li530 O588 1.961 . S
Li530 O590 1.956 . S
Li530 O591 1.970 1_455 S
Li531 N581 1.990 . S
Li531 O589 1.961 . S
Li531 O590 1.970 1_655 S
Li531 O591 1.956 . S
C532 C534 1.348 . S
C532 C535 1.356 . S
C532 O588 1.325 . S
N533 C536 1.314 . S
N533 C537 1.279 . S
C534 C532 1.348 . S
C534 C536 1.353 . S
C534 H592 0.929 1_455 S
C535 C532 1.356 . S
C535 C537 1.358 . S
C535 H593 0.930 . S
C536 N533 1.314 . S
C536 C534 1.353 . S
C536 H594 0.930 . S
C537 N533 1.279 . S
C537 C535 1.358 . S
C537 H595 0.930 . S
C538 C541 1.348 1_655 S
C538 C542 1.356 . S
C538 O589 1.325 . S
C539 N540 1.279 . S
C539 C542 1.358 . S
C539 H596 0.930 . S
N540 C539 1.279 . S
N540 C543 1.314 1_655 S
C541 C538 1.348 1_455 S
C541 C543 1.353 . S
C541 H597 0.929 . S
C542 C538 1.356 . S
C542 C539 1.358 . S
C542 H598 0.930 . S
C543 N540 1.314 1_455 S
C543 C541 1.353 . S
C543 H599 0.930 . S
C544 N545 1.314 . S
C544 C549 1.353 . S
C544 H550 0.930 . S
N545 Li528 1.990 . S
N545 C544 1.314 . S
N545 C547 1.279 . S
C546 C547 1.358 . S
C546 C548 1.356 . S
C546 H600 0.930 . S
C547 N545 1.279 . S
C547 C546 1.358 . S
C547 H551 0.930 . S
C548 C546 1.356 . S
C548 C549 1.348 . S
C549 C544 1.353 . S
C549 C548 1.348 . S
C549 H601 0.929 . S
H550 C544 0.930 . S
H551 C547 0.930 . S
C552 N553 1.314 . S
C552 C554 1.353 . S
C552 H558 0.930 . S
N553 Li529 1.990 . S
N553 C552 1.314 . S
N553 C556 1.279 . S
C554 C552 1.353 . S
C554 C557 1.348 . S
C554 H602 0.929 . S
C555 C556 1.358 . S
C555 C557 1.356 . S
C555 H603 0.930 . S
C556 N553 1.279 . S
C556 C555 1.358 . S
C556 H559 0.930 . S
C557 C554 1.348 . S
C557 C555 1.356 . S
H558 C552 0.930 . S
H559 C556 0.930 . S
C560 C562 1.348 . S
C560 C563 1.356 . S
C560 O590 1.325 . S
N561 C564 1.314 . S
N561 C565 1.279 . S
C562 C560 1.348 . S
C562 C564 1.353 . S
C562 H604 0.929 . S
C563 C560 1.356 . S
C563 C565 1.358 . S
C563 H605 0.930 . S
C564 N561 1.314 . S
C564 C562 1.353 . S
C564 H606 0.930 . S
C565 N561 1.279 . S
C565 C563 1.358 . S
C565 H607 0.930 . S
C566 C567 1.348 . S
C566 C568 1.356 . S
C566 O591 1.325 . S
C567 C566 1.348 . S
C567 C569 1.353 . S
C567 H608 0.929 . S
C568 C566 1.356 . S
C568 C570 1.358 . S
C568 H609 0.930 . S
C569 C567 1.353 . S
C569 N571 1.314 . S
C569 H610 0.930 . S
C570 C568 1.358 . S
C570 N571 1.279 . S
C570 H611 0.930 . S
N571 C569 1.314 . S
N571 C570 1.279 . S
C572 C574 1.353 . S
C572 N575 1.314 1_655 S
C572 H578 0.930 . S
C573 N575 1.279 . S
C573 C576 1.358 . S
C573 H579 0.930 . S
C574 C572 1.353 . S
C574 C577 1.348 1_655 S
C574 H612 0.929 . S
N575 Li530 1.990 . S
N575 C572 1.314 1_455 S
N575 C573 1.279 . S
C576 C573 1.358 . S
C576 C577 1.356 . S
C576 H613 0.930 . S
C577 C574 1.348 1_455 S
C577 C576 1.356 . S
H578 C572 0.930 . S
H579 C573 0.930 . S
C580 N581 1.314 . S
C580 C582 1.353 . S
C580 H586 0.930 1_655 S
N581 Li531 1.990 . S
N581 C580 1.314 . S
N581 C584 1.279 . S
C582 C580 1.353 . S
C582 C585 1.348 . S
C582 H614 0.929 . S
C583 C584 1.358 . S
C583 C585 1.356 . S
C583 H615 0.930 . S
C584 N581 1.279 . S
C584 C583 1.358 . S
C584 H587 0.930 . S
C585 C582 1.348 . S
C585 C583 1.356 . S
H586 C580 0.930 1_455 S
H587 C584 0.930 . S
O588 Li528 1.956 . S
O588 Li529 1.970 1_455 S
O588 Li530 1.961 . S
O588 C532 1.325 . S
O589 Li528 1.970 1_655 S
O589 Li529 1.956 . S
O589 Li531 1.961 . S
O589 C538 1.325 . S
O590 Li528 1.961 . S
O590 Li530 1.956 . S
O590 Li531 1.970 1_455 S
O590 C560 1.325 . S
O591 Li529 1.961 . S
O591 Li530 1.970 1_655 S
O591 Li531 1.956 . S
O591 C566 1.325 . S
H592 C534 0.929 1_655 S
H593 C535 0.930 . S
H594 C536 0.930 . S
H595 C537 0.930 . S
H596 C539 0.930 . S
H597 C541 0.929 . S
H598 C542 0.930 . S
H599 C543 0.930 . S
H600 C546 0.930 . S
H601 C549 0.929 . S
H602 C554 0.929 . S
H603 C555 0.930 . S
H604 C562 0.929 . S
H605 C563 0.930 . S
H606 C564 0.930 . S
H607 C565 0.930 . S
H608 C567 0.929 . S
H609 C568 0.930 . S
H610 C569 0.930 . S
H611 C570 0.930 . S
H612 C574 0.929 . S
H613 C576 0.930 . S
H614 C582 0.929 . S
H615 C583 0.930 . S
Li616 N633 1.990 . S
Li616 O676 1.956 . S
Li616 O677 1.970 1_545 S
Li616 O678 1.961 . S
Li617 N641 1.990 . S
Li617 O676 1.970 1_565 S
Li617 O677 1.956 . S
Li617 O679 1.961 . S
Li618 N663 1.990 . S
Li618 O676 1.961 . S
Li618 O678 1.956 . S
Li618 O679 1.970 1_545 S
Li619 N669 1.990 . S
Li619 O677 1.961 . S
Li619 O678 1.970 1_565 S
Li619 O679 1.956 . S
C620 C622 1.348 . S
C620 C623 1.356 . S
C620 O676 1.325 . S
N621 C624 1.314 . S
N621 C625 1.279 . S
C622 C620 1.348 . S
C622 C624 1.353 . S
C622 H680 0.929 1_545 S
C623 C620 1.356 . S
C623 C625 1.358 . S
C623 H681 0.930 . S
C624 N621 1.314 . S
C624 C622 1.353 . S
C624 H682 0.930 . S
C625 N621 1.279 . S
C625 C623 1.358 . S
C625 H683 0.930 . S
C626 C629 1.348 1_565 S
C626 C630 1.356 . S
C626 O677 1.325 . S
C627 N628 1.279 . S
C627 C630 1.358 . S
C627 H684 0.930 . S
N628 C627 1.279 . S
N628 C631 1.314 1_565 S
C629 C626 1.348 1_545 S
C629 C631 1.353 . S
C629 H685 0.929 . S
C630 C626 1.356 . S
C630 C627 1.358 . S
C630 H686 0.930 . S
C631 N628 1.314 1_545 S
C631 C629 1.353 . S
C631 H687 0.930 . S
C632 N633 1.314 . S
C632 C637 1.353 . S
C632 H638 0.930 . S
N633 Li616 1.990 . S
N633 C632 1.314 . S
N633 C635 1.279 . S
C634 C635 1.358 . S
C634 C636 1.356 . S
C634 H688 0.930 . S
C635 N633 1.279 . S
C635 C634 1.358 . S
C635 H639 0.930 . S
C636 C634 1.356 . S
C636 C637 1.348 . S
C637 C632 1.353 . S
C637 C636 1.348 . S
C637 H689 0.929 . S
H638 C632 0.930 . S
H639 C635 0.930 . S
C640 N641 1.314 . S
C640 C642 1.353 . S
C640 H646 0.930 . S
N641 Li617 1.990 . S
N641 C640 1.314 . S
N641 C644 1.279 . S
C642 C640 1.353 . S
C642 C645 1.348 . S
C642 H690 0.929 . S
C643 C644 1.358 . S
C643 C645 1.356 . S
C643 H691 0.930 . S
C644 N641 1.279 . S
C644 C643 1.358 . S
C644 H647 0.930 . S
C645 C642 1.348 . S
C645 C643 1.356 . S
H646 C640 0.930 . S
H647 C644 0.930 . S
C648 C650 1.348 . S
C648 C651 1.356 . S
C648 O678 1.325 . S
N649 C652 1.314 . S
N649 C653 1.279 . S
C650 C648 1.348 . S
C650 C652 1.353 . S
C650 H692 0.929 . S
C651 C648 1.356 . S
C651 C653 1.358 . S
C651 H693 0.930 . S
C652 N649 1.314 . S
C652 C650 1.353 . S
C652 H694 0.930 . S
C653 N649 1.279 . S
C653 C651 1.358 . S
C653 H695 0.930 . S
C654 C655 1.348 . S
C654 C656 1.356 . S
C654 O679 1.325 . S
C655 C654 1.348 . S
C655 C657 1.353 . S
C655 H696 0.929 . S
C656 C654 1.356 . S
C656 C658 1.358 . S
C656 H697 0.930 . S
C657 C655 1.353 . S
C657 N659 1.314 . S
C657 H698 0.930 . S
C658 C656 1.358 . S
C658 N659 1.279 . S
C658 H699 0.930 . S
N659 C657 1.314 . S
N659 C658 1.279 . S
C660 C662 1.353 . S
C660 N663 1.314 1_565 S
C660 H666 0.930 . S
C661 N663 1.279 . S
C661 C664 1.358 . S
C661 H667 0.930 . S
C662 C660 1.353 . S
C662 C665 1.348 1_565 S
C662 H700 0.929 . S
N663 Li618 1.990 . S
N663 C660 1.314 1_545 S
N663 C661 1.279 . S
C664 C661 1.358 . S
C664 C665 1.356 . S
C664 H701 0.930 . S
C665 C662 1.348 1_545 S
C665 C664 1.356 . S
H666 C660 0.930 . S
H667 C661 0.930 . S
C668 N669 1.314 . S
C668 C670 1.353 . S
C668 H674 0.930 1_565 S
N669 Li619 1.990 . S
N669 C668 1.314 . S
N669 C672 1.279 . S
C670 C668 1.353 . S
C670 C673 1.348 . S
C670 H702 0.929 . S
C671 C672 1.358 . S
C671 C673 1.356 . S
C671 H703 0.930 . S
C672 N669 1.279 . S
C672 C671 1.358 . S
C672 H675 0.930 . S
C673 C670 1.348 . S
C673 C671 1.356 . S
H674 C668 0.930 1_545 S
H675 C672 0.930 . S
O676 Li616 1.956 . S
O676 Li617 1.970 1_545 S
O676 Li618 1.961 . S
O676 C620 1.325 . S
O677 Li616 1.970 1_565 S
O677 Li617 1.956 . S
O677 Li619 1.961 . S
O677 C626 1.325 . S
O678 Li616 1.961 . S
O678 Li618 1.956 . S
O678 Li619 1.970 1_545 S
O678 C648 1.325 . S
O679 Li617 1.961 . S
O679 Li618 1.970 1_565 S
O679 Li619 1.956 . S
O679 C654 1.325 . S
H680 C622 0.929 1_565 S
H681 C623 0.930 . S
H682 C624 0.930 . S
H683 C625 0.930 . S
H684 C627 0.930 . S
H685 C629 0.929 . S
H686 C630 0.930 . S
H687 C631 0.930 . S
H688 C634 0.930 . S
H689 C637 0.929 . S
H690 C642 0.929 . S
H691 C643 0.930 . S
H692 C650 0.929 . S
H693 C651 0.930 . S
H694 C652 0.930 . S
H695 C653 0.930 . S
H696 C655 0.929 . S
H697 C656 0.930 . S
H698 C657 0.930 . S
H699 C658 0.930 . S
H700 C662 0.929 . S
H701 C664 0.930 . S
H702 C670 0.929 . S
H703 C671 0.930 . S
Li704 N721 1.990 . S
Li704 O764 1.956 . S
Li704 O765 1.970 . S
Li704 O766 1.961 . S
Li705 N729 1.990 . S
Li705 O764 1.970 . S
Li705 O765 1.956 . S
Li705 O767 1.961 . S
Li706 N751 1.990 . S
Li706 O764 1.961 . S
Li706 O766 1.956 . S
Li706 O767 1.970 . S
Li707 N757 1.990 . S
Li707 O765 1.961 1_556 S
Li707 O766 1.970 1_556 S
Li707 O767 1.956 1_556 S
C708 C710 1.348 . S
C708 C711 1.356 . S
C708 O764 1.325 . S
N709 C712 1.314 . S
N709 C713 1.279 . S
C710 C708 1.348 . S
C710 C712 1.353 . S
C710 H768 0.929 . S
C711 C708 1.356 . S
C711 C713 1.358 . S
C711 H769 0.930 . S
C712 N709 1.314 . S
C712 C710 1.353 . S
C712 H770 0.930 . S
C713 N709 1.279 . S
C713 C711 1.358 . S
C713 H771 0.930 . S
C714 C717 1.348 . S
C714 C718 1.356 1_554 S
C714 O765 1.325 . S
C715 N716 1.279 . S
C715 C718 1.358 . S
C715 H772 0.930 . S
N716 C715 1.279 . S
N716 C719 1.314 1_556 S
C717 C714 1.348 . S
C717 C719 1.353 . S
C717 H773 0.929 . S
C718 C714 1.356 1_556 S
C718 C715 1.358 . S
C718 H774 0.930 . S
C719 N716 1.314 1_554 S
C719 C717 1.353 . S
C719 H775 0.930 . S
C720 N721 1.314 . S
C720 C725 1.353 . S
C720 H726 0.930 . S
N721 Li704 1.990 . S
N721 C720 1.314 . S
N721 C723 1.279 . S
C722 C723 1.358 . S
C722 C724 1.356 . S
C722 H776 0.930 . S
C723 N721 1.279 . S
C723 C722 1.358 . S
C723 H727 0.930 . S
C724 C722 1.356 . S
C724 C725 1.348 . S
C725 C720 1.353 . S
C725 C724 1.348 . S
C725 H777 0.929 . S
H726 C720 0.930 . S
H727 C723 0.930 . S
C728 N729 1.314 . S
C728 C730 1.353 . S
C728 H734 0.930 . S
N729 Li705 1.990 . S
N729 C728 1.314 . S
N729 C732 1.279 . S
C730 C728 1.353 . S
C730 C733 1.348 . S
C730 H778 0.929 . S
C731 C732 1.358 . S
C731 C733 1.356 . S
C731 H779 0.930 . S
C732 N729 1.279 . S
C732 C731 1.358 . S
C732 H735 0.930 . S
C733 C730 1.348 . S
C733 C731 1.356 . S
H734 C728 0.930 . S
H735 C732 0.930 . S
C736 C738 1.348 . S
C736 C739 1.356 1_556 S
C736 O766 1.325 1_556 S
N737 C740 1.314 . S
N737 C741 1.279 . S
C738 C736 1.348 . S
C738 C740 1.353 . S
C738 H780 0.929 . S
C739 C736 1.356 1_554 S
C739 C741 1.358 1_554 S
C739 H781 0.930 . S
C740 N737 1.314 . S
C740 C738 1.353 . S
C740 H782 0.930 . S
C741 N737 1.279 . S
C741 C739 1.358 1_556 S
C741 H783 0.930 . S
C742 C743 1.348 . S
C742 C744 1.356 . S
C742 O767 1.325 . S
C743 C742 1.348 . S
C743 C745 1.353 . S
C743 H784 0.929 . S
C744 C742 1.356 . S
C744 C746 1.358 . S
C744 H785 0.930 . S
C745 C743 1.353 . S
C745 N747 1.314 . S
C745 H786 0.930 . S
C746 C744 1.358 . S
C746 N747 1.279 . S
C746 H787 0.930 . S
N747 C745 1.314 . S
N747 C746 1.279 . S
C748 C750 1.353 . S
C748 N751 1.314 . S
C748 H754 0.930 . S
C749 N751 1.279 . S
C749 C752 1.358 . S
C749 H755 0.930 . S
C750 C748 1.353 . S
C750 C753 1.348 . S
C750 H788 0.929 . S
N751 Li706 1.990 . S
N751 C748 1.314 . S
N751 C749 1.279 . S
C752 C749 1.358 . S
C752 C753 1.356 . S
C752 H789 0.930 . S
C753 C750 1.348 . S
C753 C752 1.356 . S
H754 C748 0.930 . S
H755 C749 0.930 . S
C756 N757 1.314 . S
C756 C758 1.353 . S
C756 H762 0.930 . S
N757 Li707 1.990 . S
N757 C756 1.314 . S
N757 C760 1.279 . S
C758 C756 1.353 . S
C758 C761 1.348 . S
C758 H790 0.929 . S
C759 C760 1.358 . S
C759 C761 1.356 . S
C759 H791 0.930 . S
C760 N757 1.279 . S
C760 C759 1.358 . S
C760 H763 0.930 . S
C761 C758 1.348 . S
C761 C759 1.356 . S
H762 C756 0.930 . S
H763 C760 0.930 . S
O764 Li704 1.956 . S
O764 Li705 1.970 . S
O764 Li706 1.961 . S
O764 C708 1.325 . S
O765 Li704 1.970 . S
O765 Li705 1.956 . S
O765 Li707 1.961 1_554 S
O765 C714 1.325 . S
O766 Li704 1.961 . S
O766 Li706 1.956 . S
O766 Li707 1.970 1_554 S
O766 C736 1.325 1_554 S
O767 Li705 1.961 . S
O767 Li706 1.970 . S
O767 Li707 1.956 1_554 S
O767 C742 1.325 . S
H768 C710 0.929 . S
H769 C711 0.930 . S
H770 C712 0.930 . S
H771 C713 0.930 . S
H772 C715 0.930 . S
H773 C717 0.929 . S
H774 C718 0.930 . S
H775 C719 0.930 . S
H776 C722 0.930 . S
H777 C725 0.929 . S
H778 C730 0.929 . S
H779 C731 0.930 . S
H780 C738 0.929 . S
H781 C739 0.930 . S
H782 C740 0.930 . S
H783 C741 0.930 . S
H784 C743 0.929 . S
H785 C744 0.930 . S
H786 C745 0.930 . S
H787 C746 0.930 . S
H788 C750 0.929 . S
H789 C752 0.930 . S
H790 C758 0.929 . S
H791 C759 0.930 . S
Li792 N809 1.990 . S
Li792 O852 1.956 . S
Li792 O853 1.970 1_455 S
Li792 O854 1.961 . S
Li793 N817 1.990 . S
Li793 O852 1.970 1_655 S
Li793 O853 1.956 . S
Li793 O855 1.961 . S
Li794 N839 1.990 . S
Li794 O852 1.961 . S
Li794 O854 1.956 . S
Li794 O855 1.970 1_455 S
Li795 N845 1.990 . S
Li795 O853 1.961 . S
Li795 O854 1.970 1_655 S
Li795 O855 1.956 . S
C796 C798 1.348 1_455 S
C796 C799 1.356 . S
C796 O852 1.325 . S
N797 C800 1.314 1_455 S
N797 C801 1.279 . S
C798 C796 1.348 1_655 S
C798 C800 1.353 . S
C798 H856 0.929 . S
C799 C796 1.356 . S
C799 C801 1.358 . S
C799 H857 0.930 . S
C800 N797 1.314 1_655 S
C800 C798 1.353 . S
C800 H858 0.930 . S
C801 N797 1.279 . S
C801 C799 1.358 . S
C801 H859 0.930 . S
C802 C805 1.348 . S
C802 C806 1.356 . S
C802 O853 1.325 . S
C803 N804 1.279 . S
C803 C806 1.358 . S
C803 H860 0.930 . S
N804 C803 1.279 . S
N804 C807 1.314 . S
C805 C802 1.348 . S
C805 C807 1.353 . S
C805 H861 0.929 1_655 S
C806 C802 1.356 . S
C806 C803 1.358 . S
C806 H862 0.930 . S
C807 N804 1.314 . S
C807 C805 1.353 . S
C807 H863 0.930 . S
C808 N809 1.314 . S
C808 C813 1.353 . S
C808 H814 0.930 . S
N809 Li792 1.990 . S
N809 C808 1.314 . S
N809 C811 1.279 . S
C810 C811 1.358 . S
C810 C812 1.356 . S
C810 H864 0.930 . S
C811 N809 1.279 . S
C811 C810 1.358 . S
C811 H815 0.930 . S
C812 C810 1.356 . S
C812 C813 1.348 . S
C813 C808 1.353 . S
C813 C812 1.348 . S
C813 H865 0.929 . S
H814 C808 0.930 . S
H815 C811 0.930 . S
C816 N817 1.314 . S
C816 C818 1.353 . S
C816 H822 0.930 . S
N817 Li793 1.990 . S
N817 C816 1.314 . S
N817 C820 1.279 . S
C818 C816 1.353 . S
C818 C821 1.348 . S
C818 H866 0.929 . S
C819 C820 1.358 . S
C819 C821 1.356 . S
C819 H867 0.930 . S
C820 N817 1.279 . S
C820 C819 1.358 . S
C820 H823 0.930 . S
C821 C818 1.348 . S
C821 C819 1.356 . S
H822 C816 0.930 . S
H823 C820 0.930 . S
C824 C826 1.348 . S
C824 C827 1.356 . S
C824 O854 1.325 . S
N825 C828 1.314 . S
N825 C829 1.279 . S
C826 C824 1.348 . S
C826 C828 1.353 . S
C826 H868 0.929 . S
C827 C824 1.356 . S
C827 C829 1.358 . S
C827 H869 0.930 . S
C828 N825 1.314 . S
C828 C826 1.353 . S
C828 H870 0.930 . S
C829 N825 1.279 . S
C829 C827 1.358 . S
C829 H871 0.930 . S
C830 C831 1.348 . S
C830 C832 1.356 . S
C830 O855 1.325 . S
C831 C830 1.348 . S
C831 C833 1.353 . S
C831 H872 0.929 . S
C832 C830 1.356 . S
C832 C834 1.358 . S
C832 H873 0.930 . S
C833 C831 1.353 . S
C833 N835 1.314 . S
C833 H874 0.930 . S
C834 C832 1.358 . S
C834 N835 1.279 . S
C834 H875 0.930 . S
N835 C833 1.314 . S
N835 C834 1.279 . S
C836 C838 1.353 . S
C836 N839 1.314 . S
C836 H842 0.930 1_455 S
C837 N839 1.279 . S
C837 C840 1.358 . S
C837 H843 0.930 . S
C838 C836 1.353 . S
C838 C841 1.348 . S
C838 H876 0.929 . S
N839 Li794 1.990 . S
N839 C836 1.314 . S
N839 C837 1.279 . S
C840 C837 1.358 . S
C840 C841 1.356 . S
C840 H877 0.930 . S
C841 C838 1.348 . S
C841 C840 1.356 . S
H842 C836 0.930 1_655 S
H843 C837 0.930 . S
C844 N845 1.314 1_455 S
C844 C846 1.353 . S
C844 H850 0.930 . S
N845 Li795 1.990 . S
N845 C844 1.314 1_655 S
N845 C848 1.279 . S
C846 C844 1.353 . S
C846 C849 1.348 1_455 S
C846 H878 0.929 . S
C847 C848 1.358 . S
C847 C849 1.356 . S
C847 H879 0.930 . S
C848 N845 1.279 . S
C848 C847 1.358 . S
C848 H851 0.930 . S
C849 C846 1.348 1_655 S
C849 C847 1.356 . S
H850 C844 0.930 . S
H851 C848 0.930 . S
O852 Li792 1.956 . S
O852 Li793 1.970 1_455 S
O852 Li794 1.961 . S
O852 C796 1.325 . S
O853 Li792 1.970 1_655 S
O853 Li793 1.956 . S
O853 Li795 1.961 . S
O853 C802 1.325 . S
O854 Li792 1.961 . S
O854 Li794 1.956 . S
O854 Li795 1.970 1_455 S
O854 C824 1.325 . S
O855 Li793 1.961 . S
O855 Li794 1.970 1_655 S
O855 Li795 1.956 . S
O855 C830 1.325 . S
H856 C798 0.929 . S
H857 C799 0.930 . S
H858 C800 0.930 . S
H859 C801 0.930 . S
H860 C803 0.930 . S
H861 C805 0.929 1_455 S
H862 C806 0.930 . S
H863 C807 0.930 . S
H864 C810 0.930 . S
H865 C813 0.929 . S
H866 C818 0.929 . S
H867 C819 0.930 . S
H868 C826 0.929 . S
H869 C827 0.930 . S
H870 C828 0.930 . S
H871 C829 0.930 . S
H872 C831 0.929 . S
H873 C832 0.930 . S
H874 C833 0.930 . S
H875 C834 0.930 . S
H876 C838 0.929 . S
H877 C840 0.930 . S
H878 C846 0.929 . S
H879 C847 0.930 . S
Li880 N897 1.990 . S
Li880 O940 1.956 . S
Li880 O941 1.970 1_545 S
Li880 O942 1.961 . S
Li881 N905 1.990 . S
Li881 O940 1.970 1_565 S
Li881 O941 1.956 . S
Li881 O943 1.961 . S
Li882 N927 1.990 . S
Li882 O940 1.961 . S
Li882 O942 1.956 . S
Li882 O943 1.970 1_545 S
Li883 N933 1.990 . S
Li883 O941 1.961 . S
Li883 O942 1.970 1_565 S
Li883 O943 1.956 . S
C884 C886 1.348 1_545 S
C884 C887 1.356 . S
C884 O940 1.325 . S
N885 C888 1.314 1_545 S
N885 C889 1.279 . S
C886 C884 1.348 1_565 S
C886 C888 1.353 . S
C886 H944 0.929 . S
C887 C884 1.356 . S
C887 C889 1.358 . S
C887 H945 0.930 . S
C888 N885 1.314 1_565 S
C888 C886 1.353 . S
C888 H946 0.930 . S
C889 N885 1.279 . S
C889 C887 1.358 . S
C889 H947 0.930 . S
C890 C893 1.348 . S
C890 C894 1.356 . S
C890 O941 1.325 . S
C891 N892 1.279 . S
C891 C894 1.358 . S
C891 H948 0.930 . S
N892 C891 1.279 . S
N892 C895 1.314 . S
C893 C890 1.348 . S
C893 C895 1.353 . S
C893 H949 0.929 1_565 S
C894 C890 1.356 . S
C894 C891 1.358 . S
C894 H950 0.930 . S
C895 N892 1.314 . S
C895 C893 1.353 . S
C895 H951 0.930 . S
C896 N897 1.314 . S
C896 C901 1.353 . S
C896 H902 0.930 . S
N897 Li880 1.990 . S
N897 C896 1.314 . S
N897 C899 1.279 . S
C898 C899 1.358 . S
C898 C900 1.356 . S
C898 H952 0.930 . S
C899 N897 1.279 . S
C899 C898 1.358 . S
C899 H903 0.930 . S
C900 C898 1.356 . S
C900 C901 1.348 . S
C901 C896 1.353 . S
C901 C900 1.348 . S
C901 H953 0.929 . S
H902 C896 0.930 . S
H903 C899 0.930 . S
C904 N905 1.314 . S
C904 C906 1.353 . S
C904 H910 0.930 . S
N905 Li881 1.990 . S
N905 C904 1.314 . S
N905 C908 1.279 . S
C906 C904 1.353 . S
C906 C909 1.348 . S
C906 H954 0.929 . S
C907 C908 1.358 . S
C907 C909 1.356 . S
C907 H955 0.930 . S
C908 N905 1.279 . S
C908 C907 1.358 . S
C908 H911 0.930 . S
C909 C906 1.348 . S
C909 C907 1.356 . S
H910 C904 0.930 . S
H911 C908 0.930 . S
C912 C914 1.348 . S
C912 C915 1.356 . S
C912 O942 1.325 . S
N913 C916 1.314 . S
N913 C917 1.279 . S
C914 C912 1.348 . S
C914 C916 1.353 . S
C914 H956 0.929 . S
C915 C912 1.356 . S
C915 C917 1.358 . S
C915 H957 0.930 . S
C916 N913 1.314 . S
C916 C914 1.353 . S
C916 H958 0.930 . S
C917 N913 1.279 . S
C917 C915 1.358 . S
C917 H959 0.930 . S
C918 C919 1.348 . S
C918 C920 1.356 . S
C918 O943 1.325 . S
C919 C918 1.348 . S
C919 C921 1.353 . S
C919 H960 0.929 . S
C920 C918 1.356 . S
C920 C922 1.358 . S
C920 H961 0.930 . S
C921 C919 1.353 . S
C921 N923 1.314 . S
C921 H962 0.930 . S
C922 C920 1.358 . S
C922 N923 1.279 . S
C922 H963 0.930 . S
N923 C921 1.314 . S
N923 C922 1.279 . S
C924 C926 1.353 . S
C924 N927 1.314 . S
C924 H930 0.930 1_545 S
C925 N927 1.279 . S
C925 C928 1.358 . S
C925 H931 0.930 . S
C926 C924 1.353 . S
C926 C929 1.348 . S
C926 H964 0.929 . S
N927 Li882 1.990 . S
N927 C924 1.314 . S
N927 C925 1.279 . S
C928 C925 1.358 . S
C928 C929 1.356 . S
C928 H965 0.930 . S
C929 C926 1.348 . S
C929 C928 1.356 . S
H930 C924 0.930 1_565 S
H931 C925 0.930 . S
C932 N933 1.314 1_545 S
C932 C934 1.353 . S
C932 H938 0.930 . S
N933 Li883 1.990 . S
N933 C932 1.314 1_565 S
N933 C936 1.279 . S
C934 C932 1.353 . S
C934 C937 1.348 1_545 S
C934 H966 0.929 . S
C935 C936 1.358 . S
C935 C937 1.356 . S
C935 H967 0.930 . S
C936 N933 1.279 . S
C936 C935 1.358 . S
C936 H939 0.930 . S
C937 C934 1.348 1_565 S
C937 C935 1.356 . S
H938 C932 0.930 . S
H939 C936 0.930 . S
O940 Li880 1.956 . S
O940 Li881 1.970 1_545 S
O940 Li882 1.961 . S
O940 C884 1.325 . S
O941 Li880 1.970 1_565 S
O941 Li881 1.956 . S
O941 Li883 1.961 . S
O941 C890 1.325 . S
O942 Li880 1.961 . S
O942 Li882 1.956 . S
O942 Li883 1.970 1_545 S
O942 C912 1.325 . S
O943 Li881 1.961 . S
O943 Li882 1.970 1_565 S
O943 Li883 1.956 . S
O943 C918 1.325 . S
H944 C886 0.929 . S
H945 C887 0.930 . S
H946 C888 0.930 . S
H947 C889 0.930 . S
H948 C891 0.930 . S
H949 C893 0.929 1_545 S
H950 C894 0.930 . S
H951 C895 0.930 . S
H952 C898 0.930 . S
H953 C901 0.929 . S
H954 C906 0.929 . S
H955 C907 0.930 . S
H956 C914 0.929 . S
H957 C915 0.930 . S
H958 C916 0.930 . S
H959 C917 0.930 . S
H960 C919 0.929 . S
H961 C920 0.930 . S
H962 C921 0.930 . S
H963 C922 0.930 . S
H964 C926 0.929 . S
H965 C928 0.930 . S
H966 C934 0.929 . S
H967 C935 0.930 . S
Li968 N985 1.990 . S
Li968 O1028 1.956 . S
Li968 O1029 1.970 . S
Li968 O1030 1.961 . S
Li969 N993 1.990 . S
Li969 O1028 1.970 . S
Li969 O1029 1.956 . S
Li969 O1031 1.961 . S
Li970 N1015 1.990 . S
Li970 O1028 1.961 1_556 S
Li970 O1030 1.956 1_556 S
Li970 O1031 1.970 1_556 S
Li971 N1021 1.990 . S
Li971 O1029 1.961 . S
Li971 O1030 1.970 . S
Li971 O1031 1.956 . S
C972 C974 1.348 . S
C972 C975 1.356 1_554 S
C972 O1028 1.325 . S
N973 C976 1.314 1_556 S
N973 C977 1.279 . S
C974 C972 1.348 . S
C974 C976 1.353 . S
C974 H1032 0.929 . S
C975 C972 1.356 1_556 S
C975 C977 1.358 . S
C975 H1033 0.930 . S
C976 N973 1.314 1_554 S
C976 C974 1.353 . S
C976 H1034 0.930 . S
C977 N973 1.279 . S
C977 C975 1.358 . S
C977 H1035 0.930 . S
C978 C981 1.348 . S
C978 C982 1.356 . S
C978 O1029 1.325 . S
C979 N980 1.279 . S
C979 C982 1.358 . S
C979 H1036 0.930 . S
N980 C979 1.279 . S
N980 C983 1.314 . S
C981 C978 1.348 . S
C981 C983 1.353 . S
C981 H1037 0.929 . S
C982 C978 1.356 . S
C982 C979 1.358 . S
C982 H1038 0.930 . S
C983 N980 1.314 . S
C983 C981 1.353 . S
C983 H1039 0.930 . S
C984 N985 1.314 . S
C984 C989 1.353 . S
C984 H990 0.930 . S
N985 Li968 1.990 . S
N985 C984 1.314 . S
N985 C987 1.279 . S
C986 C987 1.358 . S
C986 C988 1.356 . S
C986 H1040 0.930 . S
C987 N985 1.279 . S
C987 C986 1.358 . S
C987 H991 0.930 . S
C988 C986 1.356 . S
C988 C989 1.348 . S
C989 C984 1.353 . S
C989 C988 1.348 . S
C989 H1041 0.929 . S
H990 C984 0.930 . S
H991 C987 0.930 . S
C992 N993 1.314 . S
C992 C994 1.353 . S
C992 H998 0.930 . S
N993 Li969 1.990 . S
N993 C992 1.314 . S
N993 C996 1.279 . S
C994 C992 1.353 . S
C994 C997 1.348 . S
C994 H1042 0.929 . S
C995 C996 1.358 . S
C995 C997 1.356 . S
C995 H1043 0.930 . S
C996 N993 1.279 . S
C996 C995 1.358 . S
C996 H999 0.930 . S
C997 C994 1.348 . S
C997 C995 1.356 . S
H998 C992 0.930 . S
H999 C996 0.930 . S
C1000 C1002 1.348 . S
C1000 C1003 1.356 . S
C1000 O1030 1.325 . S
N1001 C1004 1.314 . S
N1001 C1005 1.279 . S
C1002 C1000 1.348 . S
C1002 C1004 1.353 . S
C1002 H1044 0.929 . S
C1003 C1000 1.356 . S
C1003 C1005 1.358 . S
C1003 H1045 0.930 . S
C1004 N1001 1.314 . S
C1004 C1002 1.353 . S
C1004 H1046 0.930 . S
C1005 N1001 1.279 . S
C1005 C1003 1.358 . S
C1005 H1047 0.930 . S
C1006 C1007 1.348 . S
C1006 C1008 1.356 1_556 S
C1006 O1031 1.325 1_556 S
C1007 C1006 1.348 . S
C1007 C1009 1.353 . S
C1007 H1048 0.929 . S
C1008 C1006 1.356 1_554 S
C1008 C1010 1.358 1_554 S
C1008 H1049 0.930 . S
C1009 C1007 1.353 . S
C1009 N1011 1.314 . S
C1009 H1050 0.930 . S
C1010 C1008 1.358 1_556 S
C1010 N1011 1.279 . S
C1010 H1051 0.930 . S
N1011 C1009 1.314 . S
N1011 C1010 1.279 . S
C1012 C1014 1.353 . S
C1012 N1015 1.314 . S
C1012 H1018 0.930 . S
C1013 N1015 1.279 . S
C1013 C1016 1.358 . S
C1013 H1019 0.930 . S
C1014 C1012 1.353 . S
C1014 C1017 1.348 . S
C1014 H1052 0.929 . S
N1015 Li970 1.990 . S
N1015 C1012 1.314 . S
N1015 C1013 1.279 . S
C1016 C1013 1.358 . S
C1016 C1017 1.356 . S
C1016 H1053 0.930 . S
C1017 C1014 1.348 . S
C1017 C1016 1.356 . S
H1018 C1012 0.930 . S
H1019 C1013 0.930 . S
C1020 N1021 1.314 . S
C1020 C1022 1.353 . S
C1020 H1026 0.930 . S
N1021 Li971 1.990 . S
N1021 C1020 1.314 . S
N1021 C1024 1.279 . S
C1022 C1020 1.353 . S
C1022 C1025 1.348 . S
C1022 H1054 0.929 . S
C1023 C1024 1.358 . S
C1023 C1025 1.356 . S
C1023 H1055 0.930 . S
C1024 N1021 1.279 . S
C1024 C1023 1.358 . S
C1024 H1027 0.930 . S
C1025 C1022 1.348 . S
C1025 C1023 1.356 . S
H1026 C1020 0.930 . S
H1027 C1024 0.930 . S
O1028 Li968 1.956 . S
O1028 Li969 1.970 . S
O1028 Li970 1.961 1_554 S
O1028 C972 1.325 . S
O1029 Li968 1.970 . S
O1029 Li969 1.956 . S
O1029 Li971 1.961 . S
O1029 C978 1.325 . S
O1030 Li968 1.961 . S
O1030 Li970 1.956 1_554 S
O1030 Li971 1.970 . S
O1030 C1000 1.325 . S
O1031 Li969 1.961 . S
O1031 Li970 1.970 1_554 S
O1031 Li971 1.956 . S
O1031 C1006 1.325 1_554 S
H1032 C974 0.929 . S
H1033 C975 0.930 . S
H1034 C976 0.930 . S
H1035 C977 0.930 . S
H1036 C979 0.930 . S
H1037 C981 0.929 . S
H1038 C982 0.930 . S
H1039 C983 0.930 . S
H1040 C986 0.930 . S
H1041 C989 0.929 . S
H1042 C994 0.929 . S
H1043 C995 0.930 . S
H1044 C1002 0.929 . S
H1045 C1003 0.930 . S
H1046 C1004 0.930 . S
H1047 C1005 0.930 . S
H1048 C1007 0.929 . S
H1049 C1008 0.930 . S
H1050 C1009 0.930 . S
H1051 C1010 0.930 . S
H1052 C1014 0.929 . S
H1053 C1016 0.930 . S
H1054 C1022 0.929 . S
H1055 C1023 0.930 . S
C57 C733 2.098 . S
C145 C812 2.098 . S
C900 C233 2.019 . S
C988 C321 2.098 . S
C557 C401 2.098 . S
C645 C497 2.019 . S
C20 C284 1.876 1_565 S
C381 C108 1.960 . S
C460 C196 1.797 1_655 S
C577 C849 1.876 1_455 S
C937 C665 1.797 1_565 S
C753 C1025 1.960 . S
C548 C49 4.717 . S
C137 C636 4.735 . S
C724 C225 4.735 1_554 S
C821 C313 4.717 . S
C409 C909 4.735 . S
C997 C489 4.735 1_554 S
C29 C673 2.975 1_545 S
C761 C117 2.757 . S
C841 C205 2.975 1_455 S
C293 C929 2.975 1_565 S
C1017 C372 2.757 . S
C585 C469 2.975 1_655 S
