# Generated by pormake.
# Topology smm, (6)-cn, num edge types: 1
# Building blocks:
#     Node 0, Type 0, BuildingBlock: BETFEN_clean_sbu_0, # of connection points: 6
#     Node 1, Type 0, BuildingBlock: BETFEN_clean_sbu_0, # of connection points: 6
#     Node 2, Type 0, BuildingBlock: BETFEN_clean_sbu_0, # of connection points: 6
#     Node 3, Type 0, BuildingBlock: BETFEN_clean_sbu_0, # of connection points: 6
#     Node 4, Type 0, BuildingBlock: BETFEN_clean_sbu_0, # of connection points: 6
#     Node 5, Type 0, BuildingBlock: BETFEN_clean_sbu_0, # of connection points: 6
#     Node 6, Type 0, BuildingBlock: BETFEN_clean_sbu_0, # of connection points: 6
#     Node 7, Type 0, BuildingBlock: BETFEN_clean_sbu_0, # of connection points: 6
#     Node 8, Type 0, BuildingBlock: BETFEN_clean_sbu_0, # of connection points: 6
#     Edge 9, Type (0, 0), BuildingBlock: EYOCIG_clean_linker_4, # of connection points: 2
#     Edge 10, Type (0, 0), BuildingBlock: EYOCIG_clean_linker_4, # of connection points: 2
#     Edge 11, Type (0, 0), BuildingBlock: EYOCIG_clean_linker_4, # of connection points: 2
#     Edge 12, Type (0, 0), BuildingBlock: EYOCIG_clean_linker_4, # of connection points: 2
#     Edge 13, Type (0, 0), BuildingBlock: EYOCIG_clean_linker_4, # of connection points: 2
#     Edge 14, Type (0, 0), BuildingBlock: EYOCIG_clean_linker_4, # of connection points: 2
#     Edge 15, Type (0, 0), BuildingBlock: EYOCIG_clean_linker_4, # of connection points: 2
#     Edge 16, Type (0, 0), BuildingBlock: EYOCIG_clean_linker_4, # of connection points: 2
#     Edge 17, Type (0, 0), BuildingBlock: EYOCIG_clean_linker_4, # of connection points: 2
#     Edge 18, Type (0, 0), BuildingBlock: EYOCIG_clean_linker_4, # of connection points: 2
#     Edge 19, Type (0, 0), BuildingBlock: EYOCIG_clean_linker_4, # of connection points: 2
#     Edge 20, Type (0, 0), BuildingBlock: EYOCIG_clean_linker_4, # of connection points: 2
#     Edge 21, Type (0, 0), BuildingBlock: EYOCIG_clean_linker_4, # of connection points: 2
#     Edge 22, Type (0, 0), BuildingBlock: EYOCIG_clean_linker_4, # of connection points: 2
#     Edge 23, Type (0, 0), BuildingBlock: EYOCIG_clean_linker_4, # of connection points: 2
#     Edge 24, Type (0, 0), BuildingBlock: EYOCIG_clean_linker_4, # of connection points: 2
#     Edge 25, Type (0, 0), BuildingBlock: EYOCIG_clean_linker_4, # of connection points: 2
#     Edge 26, Type (0, 0), BuildingBlock: EYOCIG_clean_linker_4, # of connection points: 2
#     Edge 27, Type (0, 0), BuildingBlock: EYOCIG_clean_linker_4, # of connection points: 2
#     Edge 28, Type (0, 0), BuildingBlock: EYOCIG_clean_linker_4, # of connection points: 2
#     Edge 29, Type (0, 0), BuildingBlock: EYOCIG_clean_linker_4, # of connection points: 2
#     Edge 30, Type (0, 0), BuildingBlock: EYOCIG_clean_linker_4, # of connection points: 2
#     Edge 31, Type (0, 0), BuildingBlock: EYOCIG_clean_linker_4, # of connection points: 2
#     Edge 32, Type (0, 0), BuildingBlock: EYOCIG_clean_linker_4, # of connection points: 2
#     Edge 33, Type (0, 0), BuildingBlock: EYOCIG_clean_linker_4, # of connection points: 2
#     Edge 34, Type (0, 0), BuildingBlock: EYOCIG_clean_linker_4, # of connection points: 2
#     Edge 35, Type (0, 0), BuildingBlock: EYOCIG_clean_linker_4, # of connection points: 2
# Relax obj value: 0.139
# Max RMSD: 0.205
# Mean RMSD: 0.172
data_MOF--net-smm--node1-BETFEN_clean_sbu_0--edge1-EYOCIG_clean_linker_4
_symmetry_space_group_name_H-M    P1
_symmetry_Int_Tables_number       1
_symmetry_cell_setting            triclinic
loop_
_symmetry_equiv_pos_as_xyz
'x, y, z'
_cell_length_a     49.112824
_cell_length_b     67.572611
_cell_length_c     11.586679
_cell_angle_alpha  93.293529
_cell_angle_beta   94.978152
_cell_angle_gamma 123.79482
loop_
_atom_site_label
_atom_site_type_symbol
_atom_site_fract_x
_atom_site_fract_y
_atom_site_fract_z
_atom_type_partial_charge
Pr0 Pr 0.14989 0.25646 0.08984 0.0
Pr1 Pr 1.0846 0.2108 0.05592 0.0
C2 C 0.19563 0.30114 0.06391 0.0
C3 C 0.19503 0.32259 0.0754 0.0
C4 C 0.21143 0.33939 0.17648 0.0
C5 C 0.2215 0.36303 0.17095 0.0
C6 C 0.21503 0.36929 0.06437 0.0
C7 C 0.19225 0.35163 0.97369 0.0
C8 C 0.18227 0.32813 -0.02123 0.0
C9 C 0.13284 0.23911 0.29723 0.0
C10 C 1.08267 0.25986 0.08862 0.0
C11 C 1.04448 0.16445 0.08712 0.0
C12 C 1.04589 0.14302 0.07163 0.0
C13 C 1.03314 0.1279 0.96451 0.0
C14 C 1.03079 0.10633 0.9553 0.0
C15 C 1.04178 0.09998 0.05214 0.0
C16 C 1.05574 0.11511 0.15759 0.0
C17 C 1.05811 0.13667 0.16714 0.0
C18 C 0.10696 0.22541 0.8459 0.0
C19 C 0.15296 0.20979 0.07212 0.0
O20 O 0.17624 0.28495 0.97436 0.0
O21 O 0.19695 0.29228 0.16028 0.0
O22 O 0.11278 0.23866 0.2185 0.0
O23 O 0.16297 0.25023 0.27378 0.0
O24 O 1.06368 0.23584 0.08151 0.0
O25 O 0.11491 0.27088 0.0882 0.0
O26 O 1.06564 0.18135 0.17116 0.0
O27 O 1.03956 0.17282 -0.00613 0.0
O28 O 0.12476 0.22702 0.93561 0.0
O29 O 1.07606 0.21476 0.85978 0.0
O30 O 0.17195 0.23322 0.06964 0.0
O31 O 0.12103 0.19863 0.07254 0.0
H32 H 0.22001 0.33512 0.25427 0.0
H33 H 0.23888 0.37672 0.24203 0.0
H34 H 0.18689 0.35648 0.89123 0.0
H35 H 0.16812 0.31522 0.9015 0.0
H36 H 1.02434 0.13248 0.88853 0.0
H37 H 1.02066 0.09472 0.87264 0.0
H38 H 1.06496 0.11033 0.23195 0.0
H39 H 1.06884 0.14809 0.2501 0.0
Pr40 Pr 0.97991 0.84722 -0.01009 0.0
Pr41 Pr 0.97636 0.88971 0.00286 0.0
C42 C 0.96416 0.80162 0.022 0.0
C43 C 0.94248 0.77377 0.01307 0.0
C44 C 0.94174 0.75914 0.91828 0.0
C45 C 0.92918 0.73446 0.92295 0.0
C46 C 0.91682 0.72312 0.02261 0.0
C47 C 0.91403 0.73682 0.11205 0.0
C48 C 0.92659 0.76155 0.10743 0.0
C49 C 0.97751 0.86113 0.77521 0.0
C50 C 0.90365 0.84161 0.95168 0.0
C51 C 0.97986 0.92937 -0.02424 0.0
C52 C 1.00636 0.95459 0.00182 0.0
C53 C 1.00954 0.96743 0.10729 0.0
C54 C 1.02769 0.99218 0.11771 0.0
C55 C 1.04245 1.00373 0.02308 0.0
C56 C 1.04394 0.99141 0.92604 0.0
C57 C 1.0258 0.96661 0.91532 0.0
C58 C 0.9755 0.87352 0.21686 0.0
C59 C 1.05487 0.90738 0.00657 0.0
O60 O 0.9608 0.8151 0.09716 0.0
O61 O 0.9777 0.81285 0.93349 0.0
O62 O 0.96003 0.86043 0.85066 0.0
O63 O 0.99523 0.85302 0.80606 0.0
O64 O 0.91988 0.86476 0.95164 0.0
O65 O 0.92022 0.83133 0.96855 0.0
O66 O 0.98282 0.91731 0.89084 0.0
O67 O 0.96845 0.91785 0.06573 0.0
O68 O 0.99465 0.8752 0.14589 0.0
O69 O 0.95776 0.88125 0.18153 0.0
O70 O 1.04142 0.88327 0.00973 0.0
O71 O 1.03426 0.91402 0.00238 0.0
H72 H 0.95271 0.76712 0.84224 0.0
H73 H 0.93095 0.72459 0.85036 0.0
H74 H 0.90381 0.72883 0.18916 0.0
H75 H 0.92556 0.77149 0.18165 0.0
H76 H 0.99546 0.95848 0.17652 0.0
H77 H 1.02656 1.0019 0.19289 0.0
H78 H 1.0553 1.0005 0.85252 0.0
H79 H 1.02437 0.95697 0.8345 0.0
Pr80 Pr 0.30335 1.04894 0.00386 0.0
Pr81 Pr 0.27691 0.0779 0.00964 0.0
C82 C 0.33491 1.02816 0.95332 0.0
C83 C 0.36696 1.03101 0.9592 0.0
C84 C 0.37642 1.02204 0.04937 0.0
C85 C 0.39951 1.01664 0.03524 0.0
C86 C 0.41324 1.02037 0.93162 0.0
C87 C 0.40748 1.03228 0.8488 0.0
C88 C 0.38426 1.0376 0.86242 0.0
C89 C 0.29967 0.06173 0.22882 0.0
C90 C 0.36156 0.11001 0.02941 0.0
C91 C 0.24875 0.10207 0.04695 0.0
C92 C 0.22041 0.1045 0.03758 0.0
C93 C 0.21423 0.11371 0.94029 0.0
C94 C 0.19602 0.12379 0.94625 0.0
C95 C 0.18375 0.12488 0.04925 0.0
C96 C 0.18593 0.11287 0.1408 0.0
C97 C 0.20431 0.10277 0.1351 0.0
C98 C 0.28673 0.06867 0.78766 0.0
C99 C 0.21921 1.01538 0.0003 0.0
O100 O 0.32848 1.03944 0.87938 0.0
O101 O 0.32231 1.02629 0.05009 0.0
O102 O 0.31003 0.07619 0.15378 0.0
O103 O 0.29193 1.04061 0.19079 0.0
O104 O 0.33576 0.11126 0.04305 0.0
O105 O 0.35553 0.0882 0.0087 0.0
O106 O 0.25161 0.08969 0.1241 0.0
O107 O 0.26161 0.10214 0.95288 0.0
O108 O 0.27342 1.05285 0.8557 0.0
O109 O 0.29382 0.08929 0.83068 0.0
O110 O 0.24535 1.01454 -0.01355 0.0
O111 O 0.22504 1.03744 0.01391 0.0
H112 H 0.36362 1.01686 0.12506 0.0
H113 H 0.4037 1.00711 0.09892 0.0
H114 H 0.41783 1.03486 0.76762 0.0
H115 H 0.37754 1.04458 0.79173 0.0
H116 H 0.22595 0.11518 0.86328 0.0
H117 H 0.19421 0.13272 0.87415 0.0
H118 H 0.1762 0.11323 0.22072 0.0
H119 H 0.20829 0.09557 0.21097 0.0
Pr120 Pr 0.81688 0.55898 0.09314 0.0
Pr121 Pr 0.88054 0.55768 0.10357 0.0
C122 C 0.77627 0.57169 0.14591 0.0
C123 C 0.77875 0.59448 0.1663 0.0
C124 C 0.7617 0.60034 0.0865 0.0
C125 C 0.75765 0.61873 0.12016 0.0
C126 C 0.77097 0.63119 0.23303 0.0
C127 C 0.79109 0.62729 0.30656 0.0
C128 C 0.79515 0.6092 0.27353 0.0
C129 C 0.83308 0.55265 0.87637 0.0
C130 C 0.88724 0.61149 0.08765 0.0
C131 C 0.9155 0.53794 0.05758 0.0
C132 C 0.91854 0.51657 0.06633 0.0
C133 C 0.93389 0.51443 0.16942 0.0
C134 C 0.94189 0.49729 0.17239 0.0
C135 C 0.93496 0.48146 0.07286 0.0
C136 C 0.91809 0.48247 0.97068 0.0
C137 C 0.91002 0.4997 0.96755 0.0
C138 C 0.86312 0.56168 0.3218 0.0
C139 C 0.80227 0.50675 0.08875 0.0
O140 O 0.79368 0.56831 0.22451 0.0
O141 O 0.77533 0.56375 0.03876 0.0
O142 O 0.85394 0.56632 0.9643 0.0
O143 O 0.80274 0.54303 0.8964 0.0
O144 O 0.9025 0.59999 0.07315 0.0
O145 O 0.85686 0.59987 0.11161 0.0
O146 O 0.89202 0.5357 -0.01692 0.0
O147 O 0.92312 0.55305 0.15076 0.0
O148 O 0.84305 0.5492 0.23042 0.0
O149 O 0.89362 0.57121 0.30425 0.0
O150 O 0.78865 0.51854 0.10613 0.0
O151 O 0.83385 0.5174 0.07769 0.0
H152 H 0.74968 0.58971 0.00187 0.0
H153 H 0.74235 0.62194 0.06208 0.0
H154 H 0.80174 0.63707 0.39375 0.0
H155 H 0.80923 0.60574 0.3362 0.0
H156 H 0.94091 0.52667 0.24781 0.0
H157 H 0.95457 0.49692 0.25271 0.0
H158 H 0.91199 0.47045 0.89213 0.0
H159 H 0.89814 0.50038 0.88608 0.0
Pr160 Pr 0.60311 0.22188 0.10046 0.0
Pr161 Pr 0.60286 0.26655 0.09847 0.0
C162 C 0.59704 0.18209 0.15183 0.0
C163 C 0.56996 0.15767 0.16338 0.0
C164 C 0.56782 0.13842 0.1002 0.0
C165 C 0.55399 0.11669 0.14633 0.0
C166 C 0.5424 0.11478 0.25421 0.0
C167 C 0.53749 0.13188 0.3008 0.0
C168 C 0.55143 0.15352 0.2557 0.0
C169 C 0.60978 0.23802 0.88321 0.0
C170 C 0.52744 0.21088 0.07313 0.0
C171 C 0.62632 0.31228 0.0517 0.0
C172 C 0.65679 0.33777 0.06448 0.0
C173 C 0.6639 0.35457 0.16044 0.0
C174 C 0.68824 0.37915 0.16211 0.0
C175 C 0.70623 0.38753 0.06856 0.0
C176 C 0.70082 0.37107 -0.02472 0.0
C177 C 0.67642 0.34641 0.97333 0.0
C178 C 0.61089 0.25692 0.32477 0.0
C179 C 0.67331 0.2688 0.10935 0.0
O180 O 0.6027 0.19898 0.23192 0.0
O181 O 0.60051 0.18816 0.04622 0.0
O182 O 0.59005 0.23759 0.94906 0.0
O183 O 0.62393 0.22789 0.92351 0.0
O184 O 0.54232 0.2346 0.06368 0.0
O185 O 0.5458 0.20257 0.09429 0.0
O186 O 0.62461 0.29599 -0.02086 0.0
O187 O 0.61162 0.30342 0.14271 0.0
O188 O 0.62408 0.25427 0.24173 0.0
O189 O 0.59482 0.26631 0.29467 0.0
O190 O 0.65917 0.24726 0.139 0.0
O191 O 0.65704 0.27841 0.08225 0.0
H192 H 0.58076 0.14116 0.0253 0.0
H193 H 0.55707 0.10319 0.10777 0.0
H194 H 0.52781 0.13022 0.38297 0.0
H195 H 0.55148 0.16785 0.30306 0.0
H196 H 0.64965 0.34886 0.23235 0.0
H197 H 0.69224 0.39172 0.23498 0.0
H198 H 0.71464 0.37731 0.90225 0.0
H199 H 0.67199 0.33426 0.8979 0.0
Pr200 Pr 1.04885 0.39674 0.17492 0.0
Pr201 Pr 0.98256 0.35717 0.13595 0.0
C202 C 0.11157 0.42981 0.2605 0.0
C203 C 0.14387 0.43365 0.2804 0.0
C204 C 0.16752 0.44802 0.20957 0.0
C205 C 0.20085 0.46092 0.25425 0.0
C206 C 0.20986 0.4595 0.36939 0.0
C207 C 0.18702 0.44162 0.43042 0.0
C208 C 0.1537 0.42862 0.38586 0.0
C209 C 1.02483 0.38698 0.94345 0.0
C210 C 1.03519 0.34072 0.13728 0.0
C211 C 0.91825 0.32887 0.05319 0.0
C212 C 0.88866 0.32903 0.05672 0.0
C213 C 0.86995 0.32009 0.14864 0.0
C214 C 0.83859 0.31551 0.13953 0.0
C215 C 0.82624 0.32036 0.04008 0.0
C216 C 0.84538 0.33089 0.95213 0.0
C217 C 0.87679 0.3354 0.96074 0.0
C218 C 1.00487 0.37285 0.37178 0.0
C219 C 0.99558 0.41184 0.14413 0.0
O220 O 0.08962 0.41595 0.32602 0.0
O221 O 0.09942 0.4279 0.15244 0.0
O222 O 1.01985 0.37089 0.00649 0.0
O223 O 1.0439 0.4086 -0.00293 0.0
O224 O 1.00354 0.33273 0.11326 0.0
O225 O 1.05727 0.36425 0.16883 0.0
O226 O 0.94036 0.34442 -0.00648 0.0
O227 O 0.93089 0.32579 0.14911 0.0
O228 O 1.01014 0.38645 0.29505 0.0
O229 O 0.98728 0.35038 0.3294 0.0
O230 O 1.02704 0.42062 0.17865 0.0
O231 O 0.97411 0.38844 0.11963 0.0
H232 H 0.1604 0.45193 0.12729 0.0
H233 H 0.21855 0.47501 0.20745 0.0
H234 H 0.19403 0.44068 0.52031 0.0
H235 H 0.13585 0.4173 0.44125 0.0
H236 H 0.87866 0.31538 0.22435 0.0
H237 H 0.82349 0.3073 0.20778 0.0
H238 H 0.83557 0.3346 0.87514 0.0
H239 H 0.89096 0.34262 0.88946 0.0
Pr240 Pr 0.53149 0.95772 0.79893 0.0
Pr241 Pr 0.46886 0.90755 0.77025 0.0
C242 C 0.56583 1.0039 0.75904 0.0
C243 C 0.55735 1.02168 0.74009 0.0
C244 C 0.57177 1.04307 0.8176 0.0
C245 C 0.57069 0.0623 0.78294 0.0
C246 C 0.55481 0.05987 0.67137 0.0
C247 C 0.53698 1.03773 0.60132 0.0
C248 C 0.53794 1.01875 0.63546 0.0
C249 C 0.51415 0.94143 0.0096 0.0
C250 C 0.45562 0.94742 0.79435 0.0
C251 C 0.431 0.86332 0.82016 0.0
C252 C 0.43297 0.84265 0.80937 0.0
C253 C 0.41829 0.82634 0.70667 0.0
C254 C 0.41325 0.80408 0.70647 0.0
C255 C 0.42451 0.7988 0.80656 0.0
C256 C 0.44246 0.81588 0.90459 0.0
C257 C 0.44674 0.83789 0.90627 0.0
C258 C 0.48588 0.92408 0.55898 0.0
C259 C 0.54062 0.913 0.79402 0.0
O260 O 0.55345 0.98577 0.67666 0.0
O261 O 0.56673 0.99791 0.86401 0.0
O262 O 0.49392 0.93789 0.9225 0.0
O263 O 0.54491 0.95569 -0.00658 0.0
O264 O 0.44067 0.92452 0.8007 0.0
O265 O 0.48708 0.9616 0.78399 0.0
O266 O 0.45358 0.88118 0.89815 0.0
O267 O 0.4239 0.86974 0.72331 0.0
O268 O 0.50655 0.92762 0.64482 0.0
O269 O 0.45529 0.91004 0.57716 0.0
O270 O 0.55776 0.93686 0.80243 0.0
O271 O 0.50833 0.89929 0.77568 0.0
H272 H 0.58576 1.04551 0.90095 0.0
H273 H 0.584 0.07929 0.83915 0.0
H274 H 0.52413 1.03556 0.5156 0.0
H275 H 0.52539 1.00237 0.5751 0.0
H276 H 0.40961 0.83037 0.62821 0.0
H277 H 0.40202 0.7915 0.62692 0.0
H278 H 0.4534 0.81228 -0.0211 0.0
H279 H 0.45984 0.85075 -0.01566 0.0
Pr280 Pr 0.39281 0.57317 0.79461 0.0
Pr281 Pr 0.37657 0.61034 0.79144 0.0
C282 C 0.38726 0.53325 0.84421 0.0
C283 C 0.35936 0.50789 0.82743 0.0
C284 C 0.35511 0.49208 0.73186 0.0
C285 C 0.33205 0.4674 0.72789 0.0
C286 C 0.31321 0.45883 0.8187 0.0
C287 C 0.31518 0.47453 0.90795 0.0
C288 C 0.33796 0.49896 0.91206 0.0
C289 C 0.39382 0.58821 0.57787 0.0
C290 C 0.31554 0.55688 0.71328 0.0
C291 C 0.38151 0.65027 0.75082 0.0
C292 C 0.40981 0.67526 0.77682 0.0
C293 C 0.41332 0.68915 0.87858 0.0
C294 C 0.43715 0.7136 0.89412 0.0
C295 C 0.45783 0.72416 0.8091 0.0
C296 C 0.4569 0.7102 0.71386 0.0
C297 C 0.43288 0.68567 0.69769 0.0
C298 C 0.37769 0.59608 0.00921 0.0
C299 C 0.45461 0.62666 0.82245 0.0
O300 O 0.38556 0.54739 0.92109 0.0
O301 O 0.39918 0.543 0.75073 0.0
O302 O 0.37312 0.58458 0.64532 0.0
O303 O 0.41293 0.58162 0.6159 0.0
O304 O 0.32506 0.57906 0.70787 0.0
O305 O 0.33544 0.55104 0.75598 0.0
O306 O 0.3843 0.6372 0.6715 0.0
O307 O 0.36806 0.63917 0.83983 0.0
O308 O 0.39853 0.60012 0.94115 0.0
O309 O 0.35627 0.60036 0.968 0.0
O310 O 0.44677 0.60512 0.83719 0.0
O311 O 0.43314 0.63211 0.80017 0.0
H312 H 0.37066 0.49864 0.66368 0.0
H313 H 0.33013 0.45514 0.65801 0.0
H314 H 0.30025 0.46783 -0.02196 0.0
H315 H 0.33988 0.51063 -0.01496 0.0
H316 H 0.39628 0.68151 0.94187 0.0
H317 H 0.43703 0.72456 0.96606 0.0
H318 H 0.4718 0.71846 0.64524 0.0
H319 H 0.43103 0.67525 0.61919 0.0
Pr320 Pr 0.66978 0.73811 0.77525 0.0
Pr321 Pr 0.65993 0.77903 0.79865 0.0
C322 C 0.68663 0.70849 0.70729 0.0
C323 C 0.71639 0.7086 0.7009 0.0
C324 C 0.72251 0.69483 0.77128 0.0
C325 C 0.74148 0.68673 0.7351 0.0
C326 C 0.75415 0.69272 0.62947 0.0
C327 C 0.75343 0.7101 0.57271 0.0
C328 C 0.7345 0.71804 0.608 0.0
C329 C 0.66272 0.74916 -0.00051 0.0
C330 C 0.73809 0.79241 0.83591 0.0
C331 C 0.63386 0.80451 0.85207 0.0
C332 C 0.60563 0.80755 0.83719 0.0
C333 C 0.6009 0.81731 0.73938 0.0
C334 C 0.58283 0.82762 0.74135 0.0
C335 C 0.56888 0.82834 0.84045 0.0
C336 C 0.56946 0.81579 0.93217 0.0
C337 C 0.58776 0.80546 0.93052 0.0
C338 C 0.66081 0.76503 0.56976 0.0
C339 C 0.59581 0.72137 0.76728 0.0
O340 O 0.68161 0.72091 0.63612 0.0
O341 O 0.67787 0.70899 0.81034 0.0
O342 O 0.67947 0.7648 0.93395 0.0
O343 O 0.65144 0.72751 0.95408 0.0
O344 O 0.71944 0.80077 0.85505 0.0
O345 O 0.72465 0.76999 0.79396 0.0
O346 O 0.6322 0.78849 0.91482 0.0
O347 O 0.65149 0.80827 0.76712 0.0
O348 O 0.64652 0.7507 0.64297 0.0
O349 O 0.6734 0.7871 0.61128 0.0
O350 O 0.61382 0.71396 0.73531 0.0
O351 O 0.60775 0.74389 0.80263 0.0
H352 H 0.70958 0.68801 0.84568 0.0
H353 H 0.74236 0.67347 0.78048 0.0
H354 H 0.76357 0.715 0.49148 0.0
H355 H 0.73107 0.72925 0.55386 0.0
H356 H 0.61353 0.8189 0.66486 0.0
H357 H 0.58222 0.83691 0.66894 0.0
H358 H 0.55838 0.81578 0.00913 0.0
H359 H 0.5902 0.79766 0.00655 0.0
C360 C 0.25771 0.40451 0.96582 0.0
C361 C 0.24069 0.39069 0.02839 0.0
C362 C 0.27631 0.41798 0.88282 0.0
C363 C 0.29363 0.4342 0.83123 0.0
C364 C 0.83772 0.82081 0.90958 0.0
C365 C 0.86713 0.8281 0.92928 0.0
C366 C 0.80366 0.81376 0.88739 0.0
C367 C 0.77429 0.80653 0.86837 0.0
C368 C 0.43259 0.99286 0.87399 0.0
C369 C 0.42411 1.00585 0.89586 0.0
C370 C 0.43553 0.97409 0.84476 0.0
C371 C 0.44034 0.95905 0.82199 0.0
C372 C 0.46073 0.17378 0.05269 0.0
C373 C 0.49012 0.19207 0.06004 0.0
C374 C 0.42614 0.15142 0.04484 0.0
C375 C 0.397 0.13275 0.0379 0.0
C376 C 1.05316 0.30837 0.11871 0.0
C377 C 1.04562 0.32334 0.12771 0.0
C378 C 1.0616 0.29027 0.10783 0.0
C379 C 1.06933 0.27541 0.09895 0.0
C380 C 0.90653 0.67911 0.04555 0.0
C381 C 0.91098 0.69903 0.03745 0.0
C382 C 0.90405 0.65646 0.05734 0.0
C383 C 0.90058 0.63693 0.06812 0.0
C384 C 0.27135 0.52059 0.5716 0.0
C385 C 0.28878 0.53901 0.63322 0.0
C386 C 0.25457 0.49921 0.49869 0.0
C387 C 0.23443 0.48136 0.43682 0.0
C388 C 0.75963 0.66687 0.47358 0.0
C389 C 0.75755 0.67657 0.55858 0.0
C390 C 0.75909 0.65631 0.36539 0.0
C391 C 0.76094 0.64525 0.28573 0.0
C392 C 0.551 0.09495 0.42592 0.0
C393 C 0.54741 0.10187 0.33666 0.0
C394 C 0.55682 0.08923 0.53573 0.0
C395 C 0.55934 0.07973 0.61646 0.0
C396 C 0.17036 0.15784 0.06948 0.0
C397 C 0.17578 0.14239 0.06766 0.0
C398 C 0.16846 0.17812 0.06988 0.0
C399 C 0.16532 0.19471 0.07064 0.0
C400 C 1.04574 1.04295 0.01758 0.0
C401 C 1.04562 1.02538 0.01059 0.0
C402 C 1.04219 0.06173 0.03022 0.0
C403 C 1.04194 0.07918 0.03973 0.0
C404 C 0.12113 0.94804 0.00527 0.0
C405 C 0.09236 0.92842 0.00638 0.0
C406 C 0.15523 0.97194 0.00327 0.0
C407 C 0.18381 0.99168 0.00218 0.0
C408 C 0.95774 0.45303 0.09108 0.0
C409 C 0.94675 0.46541 0.07705 0.0
C410 C 0.9721 0.43942 0.11211 0.0
C411 C 0.98396 0.42766 0.12804 0.0
C412 C 0.76648 0.45975 0.0789 0.0
C413 C 0.78247 0.48124 0.08363 0.0
C414 C 0.74698 0.43454 0.07157 0.0
C415 C 0.72873 0.41303 0.06659 0.0
C416 C 0.73356 0.29235 0.0673 0.0
C417 C 0.70604 0.28089 0.08796 0.0
C418 C 0.76507 0.30448 0.03858 0.0
C419 C 0.79298 0.31276 0.02699 0.0
C420 C 0.5564 0.86181 0.84534 0.0
C421 C 0.5606 0.84584 0.85401 0.0
C422 C 0.55686 0.88277 0.82956 0.0
C423 C 0.55514 0.89974 0.81537 0.0
C424 C 0.46065 0.7615 0.80659 0.0
C425 C 0.46812 0.74772 0.79595 0.0
C426 C 0.43982 0.76897 0.80875 0.0
C427 C 0.42754 0.77957 0.79511 0.0
C428 C 0.53743 0.68614 0.78882 0.0
C429 C 0.56334 0.70384 0.78166 0.0
C430 C 0.5111 0.66399 0.80664 0.0
C431 C 0.4873 0.64516 0.81812 0.0
C432 C 0.12198 0.22959 0.63307 0.0
C433 C 0.11723 0.22821 0.73303 0.0
C434 C 0.12386 0.23113 0.51353 0.0
C435 C 0.1261 0.23429 0.41306 0.0
C436 C 0.97342 0.86661 0.55578 0.0
C437 C 0.97286 0.86472 0.65771 0.0
C438 C 0.97657 0.8678 0.4371 0.0
C439 C 0.97852 0.86987 0.33562 0.0
C440 C 0.29407 0.06551 0.56855 0.0
C441 C 0.28943 0.06434 0.66868 0.0
C442 C 0.29869 0.06839 0.45132 0.0
C443 C 0.30056 0.06814 0.34883 0.0
C444 C 0.84919 0.55669 0.53831 0.0
C445 C 0.85392 0.55828 0.43754 0.0
C446 C 0.84541 0.55532 0.65808 0.0
C447 C 0.84112 0.55469 0.75929 0.0
C448 C 0.62007 0.25313 0.5489 0.0
C449 C 0.61759 0.25429 0.44491 0.0
C450 C 0.61757 0.25004 0.66878 0.0
C451 C 0.61274 0.24503 0.76704 0.0
C452 C 1.0117 0.38316 0.59688 0.0
C453 C 1.00986 0.38045 0.49302 0.0
C454 C 1.01299 0.38284 0.71735 0.0
C455 C 1.01712 0.38292 0.82046 0.0
C456 C 0.49774 0.93122 0.34278 0.0
C457 C 0.49404 0.92857 0.44339 0.0
C458 C 0.5007 0.93339 0.22357 0.0
C459 C 0.5051 0.93643 0.12376 0.0
C460 C 0.3854 0.5939 0.23451 0.0
C461 C 0.3832 0.59486 0.13109 0.0
C462 C 0.38727 0.59303 0.35575 0.0
C463 C 0.38919 0.59094 0.45789 0.0
C464 C 0.65701 0.75588 0.34304 0.0
C465 C 0.65722 0.75798 0.4472 0.0
C466 C 0.65934 0.75566 0.22242 0.0
C467 C 0.66214 0.75448 0.1204 0.0
loop_
_geom_bond_atom_site_label_1
_geom_bond_atom_site_label_2
_geom_bond_distance
_geom_bond_site_symmetry_2
_ccdc_geom_bond_type
Pr0 C2 2.880 . S
Pr0 O20 2.562 . S
Pr0 O21 2.490 . S
Pr0 O22 2.695 . S
Pr0 O23 2.512 . S
Pr0 O25 2.437 . S
Pr0 O28 2.436 1_554 S
Pr0 O30 2.438 . S
Pr1 C11 2.880 . S
Pr1 O22 2.436 1_655 S
Pr1 O24 2.438 . S
Pr1 O26 2.562 . S
Pr1 O27 2.490 1_554 S
Pr1 O28 2.695 1_654 S
Pr1 O29 2.508 1_654 S
Pr1 O31 2.437 1_655 S
C2 Pr0 2.880 . S
C2 C3 1.491 . S
C2 O20 1.254 . S
C2 O21 1.225 . S
C3 C2 1.491 . S
C3 C4 1.392 . S
C3 C8 1.356 . S
C4 C3 1.392 . S
C4 C5 1.368 . S
C4 H32 0.929 . S
C5 C4 1.368 . S
C5 C6 1.386 . S
C5 H33 0.929 . S
C6 C5 1.386 . S
C6 C7 1.373 . S
C7 C6 1.373 . S
C7 C8 1.409 . S
C7 H34 0.931 1_554 S
C8 C3 1.356 . S
C8 C7 1.409 . S
C8 H35 0.930 1_554 S
C9 O22 1.270 . S
C9 O23 1.248 . S
C10 O24 1.267 1_455 S
C10 O25 1.278 . S
C11 Pr1 2.880 . S
C11 C12 1.491 . S
C11 O26 1.254 . S
C11 O27 1.225 1_554 S
C12 C11 1.491 . S
C12 C13 1.392 1_554 S
C12 C17 1.356 . S
C13 C12 1.392 1_556 S
C13 C14 1.368 . S
C13 H36 0.929 . S
C14 C13 1.368 . S
C14 C15 1.386 1_556 S
C14 H37 0.929 . S
C15 C14 1.386 1_554 S
C15 C16 1.373 . S
C16 C15 1.373 . S
C16 C17 1.409 . S
C16 H38 0.931 . S
C17 C12 1.356 . S
C17 C16 1.409 . S
C17 H39 0.930 . S
C18 O28 1.270 . S
C18 O29 1.260 . S
C19 O30 1.267 . S
C19 O31 1.278 . S
O20 Pr0 2.562 . S
O20 C2 1.254 . S
O21 Pr0 2.490 . S
O21 C2 1.225 . S
O22 Pr0 2.695 . S
O22 Pr1 2.436 1_455 S
O22 C9 1.270 . S
O23 Pr0 2.512 . S
O23 C9 1.248 . S
O24 Pr1 2.438 . S
O24 C10 1.267 1_655 S
O25 Pr0 2.437 . S
O25 C10 1.278 . S
O26 Pr1 2.562 . S
O26 C11 1.254 . S
O27 Pr1 2.490 1_556 S
O27 C11 1.225 1_556 S
O28 Pr0 2.436 1_556 S
O28 Pr1 2.695 1_456 S
O28 C18 1.270 . S
O29 Pr1 2.508 1_456 S
O29 C18 1.260 . S
O30 Pr0 2.438 . S
O30 C19 1.267 . S
O31 Pr1 2.437 1_455 S
O31 C19 1.278 . S
H32 C4 0.929 . S
H33 C5 0.929 . S
H34 C7 0.931 1_556 S
H35 C8 0.930 1_556 S
H36 C13 0.929 . S
H37 C14 0.929 . S
H38 C16 0.931 . S
H39 C17 0.930 . S
Pr40 C42 2.880 . S
Pr40 O60 2.562 . S
Pr40 O61 2.490 1_554 S
Pr40 O62 2.695 1_554 S
Pr40 O63 2.512 1_554 S
Pr40 O65 2.437 1_554 S
Pr40 O68 2.436 . S
Pr40 O70 2.438 . S
Pr41 C51 2.880 . S
Pr41 O62 2.436 1_554 S
Pr41 O64 2.438 . S
Pr41 O66 2.562 1_554 S
Pr41 O67 2.490 . S
Pr41 O68 2.695 . S
Pr41 O69 2.512 . S
Pr41 O71 2.437 . S
C42 Pr40 2.880 . S
C42 C43 1.491 . S
C42 O60 1.254 . S
C42 O61 1.225 1_554 S
C43 C42 1.491 . S
C43 C44 1.392 1_554 S
C43 C48 1.356 . S
C44 C43 1.392 1_556 S
C44 C45 1.368 . S
C44 H72 0.929 . S
C45 C44 1.368 . S
C45 C46 1.386 1_556 S
C45 H73 0.929 . S
C46 C45 1.386 1_554 S
C46 C47 1.373 . S
C47 C46 1.373 . S
C47 C48 1.409 . S
C47 H74 0.931 . S
C48 C43 1.356 . S
C48 C47 1.409 . S
C48 H75 0.930 . S
C49 O62 1.270 . S
C49 O63 1.248 . S
C50 O64 1.267 1_556 S
C50 O65 1.278 . S
C51 Pr41 2.880 . S
C51 C52 1.491 . S
C51 O66 1.254 1_554 S
C51 O67 1.225 . S
C52 C51 1.491 . S
C52 C53 1.392 . S
C52 C57 1.356 1_554 S
C53 C52 1.392 . S
C53 C54 1.368 . S
C53 H76 0.929 . S
C54 C53 1.368 . S
C54 C55 1.386 . S
C54 H77 0.929 . S
C55 C54 1.386 . S
C55 C56 1.373 1_554 S
C56 C55 1.373 1_556 S
C56 C57 1.409 . S
C56 H78 0.931 . S
C57 C52 1.356 1_556 S
C57 C56 1.409 . S
C57 H79 0.930 . S
C58 O68 1.270 . S
C58 O69 1.248 . S
C59 O70 1.267 . S
C59 O71 1.278 . S
O60 Pr40 2.562 . S
O60 C42 1.254 . S
O61 Pr40 2.490 1_556 S
O61 C42 1.225 1_556 S
O62 Pr40 2.695 1_556 S
O62 Pr41 2.436 1_556 S
O62 C49 1.270 . S
O63 Pr40 2.512 1_556 S
O63 C49 1.248 . S
O64 Pr41 2.438 . S
O64 C50 1.267 1_554 S
O65 Pr40 2.437 1_556 S
O65 C50 1.278 . S
O66 Pr41 2.562 1_556 S
O66 C51 1.254 1_556 S
O67 Pr41 2.490 . S
O67 C51 1.225 . S
O68 Pr40 2.436 . S
O68 Pr41 2.695 . S
O68 C58 1.270 . S
O69 Pr41 2.512 . S
O69 C58 1.248 . S
O70 Pr40 2.438 . S
O70 C59 1.267 . S
O71 Pr41 2.437 . S
O71 C59 1.278 . S
H72 C44 0.929 . S
H73 C45 0.929 . S
H74 C47 0.931 . S
H75 C48 0.930 . S
H76 C53 0.929 . S
H77 C54 0.929 . S
H78 C56 0.931 . S
H79 C57 0.930 . S
Pr80 C82 2.880 1_554 S
Pr80 O100 2.562 1_554 S
Pr80 O101 2.490 . S
Pr80 O102 2.695 1_565 S
Pr80 O103 2.512 . S
Pr80 O105 2.437 1_565 S
Pr80 O108 2.436 1_564 S
Pr80 O110 2.438 . S
Pr81 C91 2.880 . S
Pr81 O102 2.436 . S
Pr81 O104 2.438 . S
Pr81 O106 2.562 . S
Pr81 O107 2.490 1_554 S
Pr81 O108 2.695 1_554 S
Pr81 O109 2.512 1_554 S
Pr81 O111 2.437 1_554 S
C82 Pr80 2.880 1_556 S
C82 C83 1.491 . S
C82 O100 1.254 . S
C82 O101 1.225 1_556 S
C83 C82 1.491 . S
C83 C84 1.392 1_556 S
C83 C88 1.356 . S
C84 C83 1.392 1_554 S
C84 C85 1.368 . S
C84 H112 0.929 . S
C85 C84 1.368 . S
C85 C86 1.386 1_554 S
C85 H113 0.929 . S
C86 C85 1.386 1_556 S
C86 C87 1.373 . S
C87 C86 1.373 . S
C87 C88 1.409 . S
C87 H114 0.931 . S
C88 C83 1.356 . S
C88 C87 1.409 . S
C88 H115 0.930 . S
C89 O102 1.270 . S
C89 O103 1.248 1_545 S
C90 O104 1.267 . S
C90 O105 1.278 . S
C91 Pr81 2.880 . S
C91 C92 1.491 . S
C91 O106 1.254 . S
C91 O107 1.225 1_554 S
C92 C91 1.491 . S
C92 C93 1.392 1_554 S
C92 C97 1.356 . S
C93 C92 1.392 1_556 S
C93 C94 1.368 . S
C93 H116 0.929 . S
C94 C93 1.368 . S
C94 C95 1.386 1_556 S
C94 H117 0.929 . S
C95 C94 1.386 1_554 S
C95 C96 1.373 . S
C96 C95 1.373 . S
C96 C97 1.409 . S
C96 H118 0.931 . S
C97 C92 1.356 . S
C97 C96 1.409 . S
C97 H119 0.930 . S
C98 O108 1.270 . S
C98 O109 1.248 . S
C99 O110 1.266 1_556 S
C99 O111 1.281 1_565 S
O100 Pr80 2.562 1_556 S
O100 C82 1.254 . S
O101 Pr80 2.490 . S
O101 C82 1.225 1_554 S
O102 Pr80 2.695 1_545 S
O102 Pr81 2.436 . S
O102 C89 1.270 . S
O103 Pr80 2.512 . S
O103 C89 1.248 1_565 S
O104 Pr81 2.438 . S
O104 C90 1.267 . S
O105 Pr80 2.437 1_545 S
O105 C90 1.278 . S
O106 Pr81 2.562 . S
O106 C91 1.254 . S
O107 Pr81 2.490 1_556 S
O107 C91 1.225 1_556 S
O108 Pr80 2.436 1_546 S
O108 Pr81 2.695 1_556 S
O108 C98 1.270 . S
O109 Pr81 2.512 1_556 S
O109 C98 1.248 . S
O110 Pr80 2.438 . S
O110 C99 1.266 1_554 S
O111 Pr81 2.437 1_556 S
O111 C99 1.281 1_545 S
H112 C84 0.929 . S
H113 C85 0.929 . S
H114 C87 0.931 . S
H115 C88 0.930 . S
H116 C93 0.929 . S
H117 C94 0.929 . S
H118 C96 0.931 . S
H119 C97 0.930 . S
Pr120 C122 2.880 . S
Pr120 O140 2.562 . S
Pr120 O141 2.490 . S
Pr120 O142 2.695 1_554 S
Pr120 O143 2.512 1_554 S
Pr120 O145 2.437 . S
Pr120 O148 2.436 . S
Pr120 O150 2.438 . S
Pr121 C131 2.880 . S
Pr121 O142 2.436 1_554 S
Pr121 O144 2.438 . S
Pr121 O146 2.562 . S
Pr121 O147 2.490 . S
Pr121 O148 2.695 . S
Pr121 O149 2.512 . S
Pr121 O151 2.437 . S
C122 Pr120 2.880 . S
C122 C123 1.491 . S
C122 O140 1.254 . S
C122 O141 1.225 . S
C123 C122 1.491 . S
C123 C124 1.392 . S
C123 C128 1.356 . S
C124 C123 1.392 . S
C124 C125 1.368 . S
C124 H152 0.929 . S
C125 C124 1.368 . S
C125 C126 1.386 . S
C125 H153 0.929 . S
C126 C125 1.386 . S
C126 C127 1.373 . S
C127 C126 1.373 . S
C127 C128 1.409 . S
C127 H154 0.931 . S
C128 C123 1.356 . S
C128 C127 1.409 . S
C128 H155 0.930 . S
C129 O142 1.270 . S
C129 O143 1.248 . S
C130 O144 1.267 . S
C130 O145 1.278 . S
C131 Pr121 2.880 . S
C131 C132 1.491 . S
C131 O146 1.254 . S
C131 O147 1.225 . S
C132 C131 1.491 . S
C132 C133 1.392 . S
C132 C137 1.356 1_554 S
C133 C132 1.392 . S
C133 C134 1.368 . S
C133 H156 0.929 . S
C134 C133 1.368 . S
C134 C135 1.386 . S
C134 H157 0.929 . S
C135 C134 1.386 . S
C135 C136 1.373 1_554 S
C136 C135 1.373 1_556 S
C136 C137 1.409 . S
C136 H158 0.931 . S
C137 C132 1.356 1_556 S
C137 C136 1.409 . S
C137 H159 0.930 . S
C138 O148 1.270 . S
C138 O149 1.248 . S
C139 O150 1.267 . S
C139 O151 1.278 . S
O140 Pr120 2.562 . S
O140 C122 1.254 . S
O141 Pr120 2.490 . S
O141 C122 1.225 . S
O142 Pr120 2.695 1_556 S
O142 Pr121 2.436 1_556 S
O142 C129 1.270 . S
O143 Pr120 2.512 1_556 S
O143 C129 1.248 . S
O144 Pr121 2.438 . S
O144 C130 1.267 . S
O145 Pr120 2.437 . S
O145 C130 1.278 . S
O146 Pr121 2.562 . S
O146 C131 1.254 . S
O147 Pr121 2.490 . S
O147 C131 1.225 . S
O148 Pr120 2.436 . S
O148 Pr121 2.695 . S
O148 C138 1.270 . S
O149 Pr121 2.512 . S
O149 C138 1.248 . S
O150 Pr120 2.438 . S
O150 C139 1.267 . S
O151 Pr121 2.437 . S
O151 C139 1.278 . S
H152 C124 0.929 . S
H153 C125 0.929 . S
H154 C127 0.931 . S
H155 C128 0.930 . S
H156 C133 0.929 . S
H157 C134 0.929 . S
H158 C136 0.931 . S
H159 C137 0.930 . S
Pr160 C162 2.880 . S
Pr160 O180 2.562 . S
Pr160 O181 2.490 . S
Pr160 O182 2.695 1_554 S
Pr160 O183 2.512 1_554 S
Pr160 O185 2.437 . S
Pr160 O188 2.436 . S
Pr160 O190 2.438 . S
Pr161 C171 2.880 . S
Pr161 O182 2.436 1_554 S
Pr161 O184 2.438 . S
Pr161 O186 2.562 . S
Pr161 O187 2.490 . S
Pr161 O188 2.695 . S
Pr161 O189 2.512 . S
Pr161 O191 2.437 . S
C162 Pr160 2.880 . S
C162 C163 1.491 . S
C162 O180 1.254 . S
C162 O181 1.225 . S
C163 C162 1.491 . S
C163 C164 1.392 . S
C163 C168 1.356 . S
C164 C163 1.392 . S
C164 C165 1.368 . S
C164 H192 0.929 . S
C165 C164 1.368 . S
C165 C166 1.386 . S
C165 H193 0.929 . S
C166 C165 1.386 . S
C166 C167 1.373 . S
C167 C166 1.373 . S
C167 C168 1.409 . S
C167 H194 0.931 . S
C168 C163 1.356 . S
C168 C167 1.409 . S
C168 H195 0.930 . S
C169 O182 1.270 . S
C169 O183 1.248 . S
C170 O184 1.267 . S
C170 O185 1.278 . S
C171 Pr161 2.880 . S
C171 C172 1.491 . S
C171 O186 1.254 . S
C171 O187 1.225 . S
C172 C171 1.491 . S
C172 C173 1.392 . S
C172 C177 1.354 1_554 S
C173 C172 1.392 . S
C173 C174 1.368 . S
C173 H196 0.929 . S
C174 C173 1.368 . S
C174 C175 1.386 . S
C174 H197 0.929 . S
C175 C174 1.386 . S
C175 C176 1.373 1_554 S
C176 C175 1.373 1_556 S
C176 C177 1.409 . S
C176 H198 0.931 . S
C177 C172 1.354 1_556 S
C177 C176 1.409 . S
C177 H199 0.931 . S
C178 O188 1.270 . S
C178 O189 1.248 . S
C179 O190 1.267 . S
C179 O191 1.278 . S
O180 Pr160 2.562 . S
O180 C162 1.254 . S
O181 Pr160 2.490 . S
O181 C162 1.225 . S
O182 Pr160 2.695 1_556 S
O182 Pr161 2.436 1_556 S
O182 C169 1.270 . S
O183 Pr160 2.512 1_556 S
O183 C169 1.248 . S
O184 Pr161 2.438 . S
O184 C170 1.267 . S
O185 Pr160 2.437 . S
O185 C170 1.278 . S
O186 Pr161 2.562 . S
O186 C171 1.254 . S
O187 Pr161 2.490 . S
O187 C171 1.225 . S
O188 Pr160 2.436 . S
O188 Pr161 2.695 . S
O188 C178 1.270 . S
O189 Pr161 2.512 . S
O189 C178 1.248 . S
O190 Pr160 2.438 . S
O190 C179 1.267 . S
O191 Pr161 2.437 . S
O191 C179 1.278 . S
H192 C164 0.929 . S
H193 C165 0.929 . S
H194 C167 0.931 . S
H195 C168 0.930 . S
H196 C173 0.929 . S
H197 C174 0.929 . S
H198 C176 0.931 . S
H199 C177 0.931 . S
Pr200 C202 2.880 1_655 S
Pr200 O220 2.562 1_655 S
Pr200 O221 2.490 1_655 S
Pr200 O222 2.695 . S
Pr200 O223 2.512 1_554 S
Pr200 O225 2.437 . S
Pr200 O228 2.436 . S
Pr200 O230 2.438 . S
Pr201 C211 2.880 . S
Pr201 O222 2.436 . S
Pr201 O224 2.438 . S
Pr201 O226 2.562 . S
Pr201 O227 2.490 . S
Pr201 O228 2.695 . S
Pr201 O229 2.512 . S
Pr201 O231 2.437 . S
C202 Pr200 2.880 1_455 S
C202 C203 1.491 . S
C202 O220 1.254 . S
C202 O221 1.225 . S
C203 C202 1.491 . S
C203 C204 1.392 . S
C203 C208 1.356 . S
C204 C203 1.392 . S
C204 C205 1.368 . S
C204 H232 0.929 . S
C205 C204 1.368 . S
C205 C206 1.386 . S
C205 H233 0.929 . S
C206 C205 1.386 . S
C206 C207 1.373 . S
C207 C206 1.373 . S
C207 C208 1.409 . S
C207 H234 0.931 . S
C208 C203 1.356 . S
C208 C207 1.409 . S
C208 H235 0.930 . S
C209 O222 1.270 1_556 S
C209 O223 1.248 . S
C210 O224 1.267 . S
C210 O225 1.278 . S
C211 Pr201 2.880 . S
C211 C212 1.491 . S
C211 O226 1.254 . S
C211 O227 1.225 . S
C212 C211 1.491 . S
C212 C213 1.392 . S
C212 C217 1.356 1_554 S
C213 C212 1.392 . S
C213 C214 1.368 . S
C213 H236 0.929 . S
C214 C213 1.368 . S
C214 C215 1.386 . S
C214 H237 0.929 . S
C215 C214 1.386 . S
C215 C216 1.373 1_554 S
C216 C215 1.373 1_556 S
C216 C217 1.409 . S
C216 H238 0.931 . S
C217 C212 1.356 1_556 S
C217 C216 1.409 . S
C217 H239 0.930 . S
C218 O228 1.270 . S
C218 O229 1.248 . S
C219 O230 1.267 . S
C219 O231 1.278 . S
O220 Pr200 2.562 1_455 S
O220 C202 1.254 . S
O221 Pr200 2.490 1_455 S
O221 C202 1.225 . S
O222 Pr200 2.695 . S
O222 Pr201 2.436 . S
O222 C209 1.270 1_554 S
O223 Pr200 2.512 1_556 S
O223 C209 1.248 . S
O224 Pr201 2.438 . S
O224 C210 1.267 . S
O225 Pr200 2.437 . S
O225 C210 1.278 . S
O226 Pr201 2.562 . S
O226 C211 1.254 . S
O227 Pr201 2.490 . S
O227 C211 1.225 . S
O228 Pr200 2.436 . S
O228 Pr201 2.695 . S
O228 C218 1.270 . S
O229 Pr201 2.512 . S
O229 C218 1.248 . S
O230 Pr200 2.438 . S
O230 C219 1.267 . S
O231 Pr201 2.437 . S
O231 C219 1.278 . S
H232 C204 0.929 . S
H233 C205 0.929 . S
H234 C207 0.931 . S
H235 C208 0.930 . S
H236 C213 0.929 . S
H237 C214 0.929 . S
H238 C216 0.931 . S
H239 C217 0.930 . S
Pr240 C242 2.880 . S
Pr240 O260 2.562 . S
Pr240 O261 2.490 . S
Pr240 O262 2.695 . S
Pr240 O263 2.512 1_556 S
Pr240 O265 2.437 . S
Pr240 O268 2.436 . S
Pr240 O270 2.438 . S
Pr241 C251 2.880 . S
Pr241 O262 2.436 . S
Pr241 O264 2.438 . S
Pr241 O266 2.562 . S
Pr241 O267 2.490 . S
Pr241 O268 2.695 . S
Pr241 O269 2.512 . S
Pr241 O271 2.437 . S
C242 Pr240 2.880 . S
C242 C243 1.491 . S
C242 O260 1.254 . S
C242 O261 1.225 . S
C243 C242 1.491 . S
C243 C244 1.392 . S
C243 C248 1.356 . S
C244 C243 1.392 . S
C244 C245 1.368 1_565 S
C244 H272 0.929 . S
C245 C244 1.368 1_545 S
C245 C246 1.386 . S
C245 H273 0.929 . S
C246 C245 1.386 . S
C246 C247 1.347 1_545 S
C247 C246 1.347 1_565 S
C247 C248 1.465 . S
C247 H274 0.903 1_565 S
C248 C243 1.356 . S
C248 C247 1.465 . S
C248 H275 0.930 . S
C249 O262 1.270 1_554 S
C249 O263 1.248 . S
C250 O264 1.267 . S
C250 O265 1.278 . S
C251 Pr241 2.880 . S
C251 C252 1.491 . S
C251 O266 1.254 . S
C251 O267 1.225 . S
C252 C251 1.491 . S
C252 C253 1.392 . S
C252 C257 1.356 . S
C253 C252 1.392 . S
C253 C254 1.368 . S
C253 H276 0.929 . S
C254 C253 1.368 . S
C254 C255 1.386 . S
C254 H277 0.929 . S
C255 C254 1.386 . S
C255 C256 1.373 . S
C256 C255 1.373 . S
C256 C257 1.409 . S
C256 H278 0.931 1_556 S
C257 C252 1.356 . S
C257 C256 1.409 . S
C257 H279 0.930 . S
C258 O268 1.270 . S
C258 O269 1.248 . S
C259 O270 1.267 . S
C259 O271 1.278 . S
O260 Pr240 2.562 . S
O260 C242 1.254 . S
O261 Pr240 2.490 . S
O261 C242 1.225 . S
O262 Pr240 2.695 . S
O262 Pr241 2.436 . S
O262 C249 1.270 1_556 S
O263 Pr240 2.512 1_554 S
O263 C249 1.248 . S
O264 Pr241 2.438 . S
O264 C250 1.267 . S
O265 Pr240 2.437 . S
O265 C250 1.278 . S
O266 Pr241 2.562 . S
O266 C251 1.254 . S
O267 Pr241 2.490 . S
O267 C251 1.225 . S
O268 Pr240 2.436 . S
O268 Pr241 2.695 . S
O268 C258 1.270 . S
O269 Pr241 2.512 . S
O269 C258 1.248 . S
O270 Pr240 2.438 . S
O270 C259 1.267 . S
O271 Pr241 2.437 . S
O271 C259 1.278 . S
H272 C244 0.929 . S
H273 C245 0.929 . S
H274 C247 0.903 1_545 S
H275 C248 0.930 . S
H276 C253 0.929 . S
H277 C254 0.929 . S
H278 C256 0.931 1_554 S
H279 C257 0.930 . S
Pr280 C282 2.880 . S
Pr280 O300 2.562 . S
Pr280 O301 2.490 . S
Pr280 O302 2.695 . S
Pr280 O303 2.512 . S
Pr280 O305 2.437 . S
Pr280 O308 2.436 . S
Pr280 O310 2.438 . S
Pr281 C291 2.880 . S
Pr281 O302 2.436 . S
Pr281 O304 2.438 . S
Pr281 O306 2.562 . S
Pr281 O307 2.490 . S
Pr281 O308 2.695 . S
Pr281 O309 2.512 1_556 S
Pr281 O311 2.437 . S
C282 Pr280 2.880 . S
C282 C283 1.491 . S
C282 O300 1.254 . S
C282 O301 1.225 . S
C283 C282 1.491 . S
C283 C284 1.392 . S
C283 C288 1.356 . S
C284 C283 1.392 . S
C284 C285 1.368 . S
C284 H312 0.929 . S
C285 C284 1.368 . S
C285 C286 1.386 . S
C285 H313 0.929 . S
C286 C285 1.386 . S
C286 C287 1.373 . S
C287 C286 1.373 . S
C287 C288 1.409 . S
C287 H314 0.931 . S
C288 C283 1.356 . S
C288 C287 1.409 . S
C288 H315 0.930 . S
C289 O302 1.270 . S
C289 O303 1.248 . S
C290 O304 1.267 . S
C290 O305 1.278 . S
C291 Pr281 2.880 . S
C291 C292 1.491 . S
C291 O306 1.254 . S
C291 O307 1.225 . S
C292 C291 1.491 . S
C292 C293 1.392 . S
C292 C297 1.356 . S
C293 C292 1.392 . S
C293 C294 1.368 . S
C293 H316 0.929 . S
C294 C293 1.368 . S
C294 C295 1.386 . S
C294 H317 0.929 . S
C295 C294 1.386 . S
C295 C296 1.373 . S
C296 C295 1.373 . S
C296 C297 1.409 . S
C296 H318 0.931 . S
C297 C292 1.356 . S
C297 C296 1.409 . S
C297 H319 0.930 . S
C298 O308 1.270 1_554 S
C298 O309 1.248 . S
C299 O310 1.267 . S
C299 O311 1.278 . S
O300 Pr280 2.562 . S
O300 C282 1.254 . S
O301 Pr280 2.490 . S
O301 C282 1.225 . S
O302 Pr280 2.695 . S
O302 Pr281 2.436 . S
O302 C289 1.270 . S
O303 Pr280 2.512 . S
O303 C289 1.248 . S
O304 Pr281 2.438 . S
O304 C290 1.267 . S
O305 Pr280 2.437 . S
O305 C290 1.278 . S
O306 Pr281 2.562 . S
O306 C291 1.254 . S
O307 Pr281 2.490 . S
O307 C291 1.225 . S
O308 Pr280 2.436 . S
O308 Pr281 2.695 . S
O308 C298 1.270 1_556 S
O309 Pr281 2.512 1_554 S
O309 C298 1.248 . S
O310 Pr280 2.438 . S
O310 C299 1.267 . S
O311 Pr281 2.437 . S
O311 C299 1.278 . S
H312 C284 0.929 . S
H313 C285 0.929 . S
H314 C287 0.931 . S
H315 C288 0.930 . S
H316 C293 0.929 . S
H317 C294 0.929 . S
H318 C296 0.931 . S
H319 C297 0.930 . S
Pr320 C322 2.880 . S
Pr320 O340 2.562 . S
Pr320 O341 2.490 . S
Pr320 O342 2.695 . S
Pr320 O343 2.512 1_556 S
Pr320 O345 2.437 . S
Pr320 O348 2.436 . S
Pr320 O350 2.438 . S
Pr321 C331 2.880 . S
Pr321 O342 2.436 . S
Pr321 O344 2.438 . S
Pr321 O346 2.562 . S
Pr321 O347 2.490 . S
Pr321 O348 2.695 . S
Pr321 O349 2.512 . S
Pr321 O351 2.437 . S
C322 Pr320 2.880 . S
C322 C323 1.491 . S
C322 O340 1.254 . S
C322 O341 1.225 . S
C323 C322 1.491 . S
C323 C324 1.392 . S
C323 C328 1.356 . S
C324 C323 1.392 . S
C324 C325 1.368 . S
C324 H352 0.929 . S
C325 C324 1.368 . S
C325 C326 1.386 . S
C325 H353 0.929 . S
C326 C325 1.386 . S
C326 C327 1.373 . S
C327 C326 1.373 . S
C327 C328 1.409 . S
C327 H354 0.931 . S
C328 C323 1.356 . S
C328 C327 1.409 . S
C328 H355 0.930 . S
C329 O342 1.270 1_554 S
C329 O343 1.248 . S
C330 O344 1.267 . S
C330 O345 1.278 . S
C331 Pr321 2.880 . S
C331 C332 1.491 . S
C331 O346 1.254 . S
C331 O347 1.225 . S
C332 C331 1.491 . S
C332 C333 1.392 . S
C332 C337 1.356 . S
C333 C332 1.392 . S
C333 C334 1.368 . S
C333 H356 0.929 . S
C334 C333 1.368 . S
C334 C335 1.386 . S
C334 H357 0.929 . S
C335 C334 1.386 . S
C335 C336 1.373 . S
C336 C335 1.373 . S
C336 C337 1.409 . S
C336 H358 0.931 1_556 S
C337 C332 1.356 . S
C337 C336 1.409 . S
C337 H359 0.930 1_556 S
C338 O348 1.270 . S
C338 O349 1.248 . S
C339 O350 1.267 . S
C339 O351 1.278 . S
O340 Pr320 2.562 . S
O340 C322 1.254 . S
O341 Pr320 2.490 . S
O341 C322 1.225 . S
O342 Pr320 2.695 . S
O342 Pr321 2.436 . S
O342 C329 1.270 1_556 S
O343 Pr320 2.512 1_554 S
O343 C329 1.248 . S
O344 Pr321 2.438 . S
O344 C330 1.267 . S
O345 Pr320 2.437 . S
O345 C330 1.278 . S
O346 Pr321 2.562 . S
O346 C331 1.254 . S
O347 Pr321 2.490 . S
O347 C331 1.225 . S
O348 Pr320 2.436 . S
O348 Pr321 2.695 . S
O348 C338 1.270 . S
O349 Pr321 2.512 . S
O349 C338 1.248 . S
O350 Pr320 2.438 . S
O350 C339 1.267 . S
O351 Pr321 2.437 . S
O351 C339 1.278 . S
H352 C324 0.929 . S
H353 C325 0.929 . S
H354 C327 0.931 . S
H355 C328 0.930 . S
H356 C333 0.929 . S
H357 C334 0.929 . S
H358 C336 0.931 1_554 S
H359 C337 0.930 1_554 S
C360 C361 1.170 1_556 S
C360 C362 1.380 . S
C361 C360 1.170 1_554 S
C362 C360 1.380 . S
C362 C363 1.170 . S
C363 C362 1.170 . S
C364 C365 1.170 . S
C364 C366 1.380 . S
C365 C364 1.170 . S
C366 C364 1.380 . S
C366 C367 1.170 . S
C367 C366 1.170 . S
C368 C369 1.170 . S
C368 C370 1.380 . S
C369 C368 1.170 . S
C370 C368 1.380 . S
C370 C371 1.170 . S
C371 C370 1.170 . S
C372 C373 1.170 . S
C372 C374 1.380 . S
C373 C372 1.170 . S
C374 C372 1.380 . S
C374 C375 1.170 . S
C375 C374 1.170 . S
C376 C377 1.170 . S
C376 C378 1.380 . S
C377 C376 1.170 . S
C378 C376 1.380 . S
C378 C379 1.170 . S
C379 C378 1.170 . S
C380 C381 1.170 . S
C380 C382 1.380 . S
C381 C380 1.170 . S
C382 C380 1.380 . S
C382 C383 1.170 . S
C383 C382 1.170 . S
C384 C385 1.170 . S
C384 C386 1.380 . S
C385 C384 1.170 . S
C386 C384 1.380 . S
C386 C387 1.170 . S
C387 C386 1.170 . S
C388 C389 1.170 . S
C388 C390 1.380 . S
C389 C388 1.170 . S
C390 C388 1.380 . S
C390 C391 1.170 . S
C391 C390 1.170 . S
C392 C393 1.170 . S
C392 C394 1.380 . S
C393 C392 1.170 . S
C394 C392 1.380 . S
C394 C395 1.170 . S
C395 C394 1.170 . S
C396 C397 1.170 . S
C396 C398 1.380 . S
C397 C396 1.170 . S
C398 C396 1.380 . S
C398 C399 1.170 . S
C399 C398 1.170 . S
C400 C401 1.170 . S
C400 C402 1.380 1_565 S
C401 C400 1.170 . S
C402 C400 1.380 1_545 S
C402 C403 1.170 . S
C403 C402 1.170 . S
C404 C405 1.170 . S
C404 C406 1.380 . S
C405 C404 1.170 . S
C406 C404 1.380 . S
C406 C407 1.170 . S
C407 C406 1.170 . S
C408 C409 1.170 . S
C408 C410 1.380 . S
C409 C408 1.170 . S
C410 C408 1.380 . S
C410 C411 1.170 . S
C411 C410 1.170 . S
C412 C413 1.170 . S
C412 C414 1.380 . S
C413 C412 1.170 . S
C414 C412 1.380 . S
C414 C415 1.170 . S
C415 C414 1.170 . S
C416 C417 1.170 . S
C416 C418 1.380 . S
C417 C416 1.170 . S
C418 C416 1.380 . S
C418 C419 1.170 . S
C419 C418 1.170 . S
C420 C421 1.170 . S
C420 C422 1.380 . S
C421 C420 1.170 . S
C422 C420 1.380 . S
C422 C423 1.170 . S
C423 C422 1.170 . S
C424 C425 1.170 . S
C424 C426 1.380 . S
C425 C424 1.170 . S
C426 C424 1.380 . S
C426 C427 1.170 . S
C427 C426 1.170 . S
C428 C429 1.170 . S
C428 C430 1.380 . S
C429 C428 1.170 . S
C430 C428 1.380 . S
C430 C431 1.170 . S
C431 C430 1.170 . S
C432 C433 1.170 . S
C432 C434 1.380 . S
C433 C432 1.170 . S
C434 C432 1.380 . S
C434 C435 1.170 . S
C435 C434 1.170 . S
C436 C437 1.170 . S
C436 C438 1.380 . S
C437 C436 1.170 . S
C438 C436 1.380 . S
C438 C439 1.170 . S
C439 C438 1.170 . S
C440 C441 1.170 . S
C440 C442 1.380 . S
C441 C440 1.170 . S
C442 C440 1.380 . S
C442 C443 1.170 . S
C443 C442 1.170 . S
C444 C445 1.170 . S
C444 C446 1.380 . S
C445 C444 1.170 . S
C446 C444 1.380 . S
C446 C447 1.170 . S
C447 C446 1.170 . S
C448 C449 1.170 . S
C448 C450 1.380 . S
C449 C448 1.170 . S
C450 C448 1.380 . S
C450 C451 1.170 . S
C451 C450 1.170 . S
C452 C453 1.170 . S
C452 C454 1.380 . S
C453 C452 1.170 . S
C454 C452 1.380 . S
C454 C455 1.170 . S
C455 C454 1.170 . S
C456 C457 1.170 . S
C456 C458 1.380 . S
C457 C456 1.170 . S
C458 C456 1.380 . S
C458 C459 1.170 . S
C459 C458 1.170 . S
C460 C461 1.170 . S
C460 C462 1.380 . S
C461 C460 1.170 . S
C462 C460 1.380 . S
C462 C463 1.170 . S
C463 C462 1.170 . S
C464 C465 1.170 . S
C464 C466 1.380 . S
C465 C464 1.170 . S
C466 C464 1.380 . S
C466 C467 1.170 . S
C467 C466 1.170 . S
C361 C6 1.612 . S
C363 C286 1.660 . S
C365 C50 2.662 . S
C367 C330 2.724 . S
C369 C86 1.769 . S
C371 C250 1.751 . S
C373 C170 3.130 . S
C375 C90 3.091 . S
C377 C210 2.906 . S
C379 C10 2.950 1_655 S
C381 C46 2.584 . S
C383 C130 2.526 . S
C385 C290 2.282 . S
C387 C206 2.238 . S
C389 C326 1.798 . S
C391 C126 1.780 . S
C393 C166 2.123 . S
C395 C246 2.118 . S
C397 C95 1.988 . S
C399 C19 2.109 . S
C401 C55 1.514 . S
C403 C15 1.510 . S
C405 C59 3.441 1_455 S
C407 C99 3.382 1_554 S
C409 C135 1.925 . S
C411 C219 1.943 . S
C413 C139 1.967 . S
C415 C175 1.993 . S
C417 C179 1.730 . S
C419 C215 1.742 . S
C421 C335 2.036 . S
C423 C259 2.107 . S
C425 C295 0.896 . S
C427 C255 0.939 . S
C429 C339 2.217 . S
C431 C299 2.316 . S
C433 C18 1.132 . S
C435 C9 1.101 . S
C437 C49 1.101 . S
C439 C58 1.075 . S
C441 C98 1.116 . S
C443 C89 1.075 . S
C445 C138 1.162 . S
C447 C129 1.125 . S
C449 C178 1.148 . S
C451 C169 1.152 . S
C453 C218 1.068 . S
C455 C209 1.114 . S
C457 C258 1.163 . S
C459 C249 1.140 . S
C461 C298 1.118 . S
C463 C289 1.126 . S
C465 C338 1.128 . S
C467 C329 1.091 . S
