# Generated by pormake.
# Topology wke, (5)-cn, num edge types: 1
# Building blocks:
#     Node 0, Type 0, BuildingBlock: XOMCOT_clean_sbu_1, # of connection points: 5
#     Node 1, Type 0, BuildingBlock: XOMCOT_clean_sbu_1, # of connection points: 5
#     Node 2, Type 0, BuildingBlock: XOMCOT_clean_sbu_1, # of connection points: 5
#     Node 3, Type 0, BuildingBlock: XOMCOT_clean_sbu_1, # of connection points: 5
#     Node 4, Type 0, BuildingBlock: XOMCOT_clean_sbu_1, # of connection points: 5
#     Node 5, Type 0, BuildingBlock: XOMCOT_clean_sbu_1, # of connection points: 5
#     Node 6, Type 0, BuildingBlock: XOMCOT_clean_sbu_1, # of connection points: 5
#     Node 7, Type 0, BuildingBlock: XOMCOT_clean_sbu_1, # of connection points: 5
#     Node 8, Type 0, BuildingBlock: XOMCOT_clean_sbu_1, # of connection points: 5
#     Node 9, Type 0, BuildingBlock: XOMCOT_clean_sbu_1, # of connection points: 5
#     Node 10, Type 0, BuildingBlock: XOMCOT_clean_sbu_1, # of connection points: 5
#     Node 11, Type 0, BuildingBlock: XOMCOT_clean_sbu_1, # of connection points: 5
#     Edge 12, Type (0, 0), BuildingBlock: OJICUG_clean_linker_0, # of connection points: 2
#     Edge 13, Type (0, 0), BuildingBlock: OJICUG_clean_linker_0, # of connection points: 2
#     Edge 14, Type (0, 0), BuildingBlock: OJICUG_clean_linker_0, # of connection points: 2
#     Edge 15, Type (0, 0), BuildingBlock: OJICUG_clean_linker_0, # of connection points: 2
#     Edge 16, Type (0, 0), BuildingBlock: OJICUG_clean_linker_0, # of connection points: 2
#     Edge 17, Type (0, 0), BuildingBlock: OJICUG_clean_linker_0, # of connection points: 2
#     Edge 18, Type (0, 0), BuildingBlock: OJICUG_clean_linker_0, # of connection points: 2
#     Edge 19, Type (0, 0), BuildingBlock: OJICUG_clean_linker_0, # of connection points: 2
#     Edge 20, Type (0, 0), BuildingBlock: OJICUG_clean_linker_0, # of connection points: 2
#     Edge 21, Type (0, 0), BuildingBlock: OJICUG_clean_linker_0, # of connection points: 2
#     Edge 22, Type (0, 0), BuildingBlock: OJICUG_clean_linker_0, # of connection points: 2
#     Edge 23, Type (0, 0), BuildingBlock: OJICUG_clean_linker_0, # of connection points: 2
#     Edge 24, Type (0, 0), BuildingBlock: OJICUG_clean_linker_0, # of connection points: 2
#     Edge 25, Type (0, 0), BuildingBlock: OJICUG_clean_linker_0, # of connection points: 2
#     Edge 26, Type (0, 0), BuildingBlock: OJICUG_clean_linker_0, # of connection points: 2
#     Edge 27, Type (0, 0), BuildingBlock: OJICUG_clean_linker_0, # of connection points: 2
#     Edge 28, Type (0, 0), BuildingBlock: OJICUG_clean_linker_0, # of connection points: 2
#     Edge 29, Type (0, 0), BuildingBlock: OJICUG_clean_linker_0, # of connection points: 2
#     Edge 30, Type (0, 0), BuildingBlock: OJICUG_clean_linker_0, # of connection points: 2
#     Edge 31, Type (0, 0), BuildingBlock: OJICUG_clean_linker_0, # of connection points: 2
#     Edge 32, Type (0, 0), BuildingBlock: OJICUG_clean_linker_0, # of connection points: 2
#     Edge 33, Type (0, 0), BuildingBlock: OJICUG_clean_linker_0, # of connection points: 2
#     Edge 34, Type (0, 0), BuildingBlock: OJICUG_clean_linker_0, # of connection points: 2
#     Edge 35, Type (0, 0), BuildingBlock: OJICUG_clean_linker_0, # of connection points: 2
#     Edge 36, Type (0, 0), BuildingBlock: OJICUG_clean_linker_0, # of connection points: 2
#     Edge 37, Type (0, 0), BuildingBlock: OJICUG_clean_linker_0, # of connection points: 2
#     Edge 38, Type (0, 0), BuildingBlock: OJICUG_clean_linker_0, # of connection points: 2
#     Edge 39, Type (0, 0), BuildingBlock: OJICUG_clean_linker_0, # of connection points: 2
#     Edge 40, Type (0, 0), BuildingBlock: OJICUG_clean_linker_0, # of connection points: 2
#     Edge 41, Type (0, 0), BuildingBlock: OJICUG_clean_linker_0, # of connection points: 2
# Relax obj value: 0.166
# Max RMSD: 0.153
# Mean RMSD: 0.153
data_MOF--net-wke--node1-XOMCOT_clean_sbu_1--edge1-OJICUG_clean_linker_0
_symmetry_space_group_name_H-M    P1
_symmetry_Int_Tables_number       1
_symmetry_cell_setting            triclinic
loop_
_symmetry_equiv_pos_as_xyz
'x, y, z'
_cell_length_a     52.794415
_cell_length_b     52.658368
_cell_length_c     13.382946
_cell_angle_alpha  90.067114
_cell_angle_beta   90.057944
_cell_angle_gamma 120.10129
loop_
_atom_site_label
_atom_site_type_symbol
_atom_site_fract_x
_atom_site_fract_y
_atom_site_fract_z
_atom_type_partial_charge
C0 C 0.15486 0.46913 0.46815 0.0
C1 C 0.15656 0.47059 0.571 0.0
N2 N 0.141 0.4431 0.6076 0.0
N3 N 0.13798 0.44089 0.44002 0.0
C4 C 0.13061 0.42558 0.52637 0.0
H5 H 0.16416 0.48759 0.41752 0.0
Co6 Co 0.12351 0.4264 0.31264 0.0
C7 C 0.05982 0.38354 0.35484 0.0
O8 O 0.05171 0.39059 0.27139 0.0
N9 N 0.10936 0.41149 0.18255 0.0
C10 C 0.09324 0.38084 0.05232 0.0
C11 C 0.09418 0.38295 0.15509 0.0
C12 C 0.11787 0.42612 0.09463 0.0
N13 N 0.10834 0.40814 0.01435 0.0
O14 O 0.14142 0.40213 0.31906 0.0
H15 H 0.08578 0.36467 0.20642 0.0
H16 H 0.13319 0.44926 0.0886 0.0
O17 O 0.08711 0.39547 0.37551 0.0
C18 C 0.16314 0.4107 0.25966 0.0
O19 O 0.17021 0.43354 0.20242 0.0
N20 N 0.109 0.45276 0.30454 0.0
C21 C 0.09697 0.49859 0.28685 0.0
C22 C 0.08081 0.47526 0.35277 0.0
C23 C 0.08741 0.45264 0.36145 0.0
C24 C 0.12628 0.47657 0.24681 0.0
C25 C 0.12011 0.49916 0.2342 0.0
H26 H 0.07604 0.43602 0.41733 0.0
H27 H 0.14597 0.4788 0.21411 0.0
H28 H 0.11677 0.40206 0.52977 0.0
H29 H 0.16773 0.49045 0.61522 0.0
H30 H 0.08318 0.3607 1.00937 0.0
H31 H 0.06364 0.47478 0.39834 0.0
H32 H 0.13425 0.51769 0.18734 0.0
C33 C 0.7116 0.15432 0.95293 0.0
C34 C 0.71245 0.15596 0.05593 0.0
N35 N 0.71758 0.13499 0.0914 0.0
N36 N 0.71606 0.13235 0.92408 0.0
C37 C 0.72024 0.12148 1.00989 0.0
H38 H 0.70675 0.16738 0.90261 0.0
Co39 Co 0.71308 0.11711 0.79659 0.0
C40 C 0.68161 0.05222 0.84233 0.0
O41 O 0.66375 0.04641 0.76628 0.0
N42 N 0.71079 0.10177 0.66652 0.0
C43 C 0.71805 0.07971 0.53619 0.0
C44 C 0.71714 0.08087 0.63895 0.0
C45 C 0.70877 0.11342 0.57882 0.0
N46 N 0.71304 0.10049 0.49873 0.0
O47 O 0.75427 0.12965 0.80091 0.0
H48 H 0.72264 0.06847 0.68998 0.0
H49 H 0.70614 0.13232 0.57277 0.0
O50 O 0.702 0.07865 0.85805 0.0
C51 C 0.76841 0.15241 0.74623 0.0
O52 O 0.75361 0.16221 0.6965 0.0
N53 N 0.67381 0.10876 0.79037 0.0
C54 C 0.6196 0.10615 0.77402 0.0
C55 C 0.62373 0.08846 0.84319 0.0
C56 C 0.65129 0.09073 0.85206 0.0
C57 C 0.67068 0.12771 0.72956 0.0
C58 C 0.64374 0.12606 0.71719 0.0
H59 H 0.65486 0.07924 0.91187 0.0
H60 H 0.68962 0.14542 0.69427 0.0
H61 H 0.72468 0.10357 1.01299 0.0
H62 H 0.70821 0.1705 0.10104 0.0
H63 H 0.7238 0.06597 0.49288 0.0
H64 H 0.60628 0.07403 0.89311 0.0
H65 H 0.64218 0.14087 0.66485 0.0
C66 C 0.58409 0.72812 0.46262 0.0
C67 C 0.58202 0.72767 0.56547 0.0
N68 N 0.59273 0.71104 0.60179 0.0
N69 N 0.59607 0.7119 0.43446 0.0
C70 C 0.60057 0.7014 0.52062 0.0
H71 H 0.57865 0.74068 0.412 0.0
Co72 Co 0.60845 0.70919 0.30689 0.0
C73 C 0.64915 0.6856 0.34781 0.0
O74 O 0.6412 0.6699 0.26531 0.0
N75 N 0.62121 0.70711 0.17707 0.0
C76 C 0.65006 0.7185 0.04365 0.0
C77 C 0.64927 0.71926 0.14634 0.0
C78 C 0.60547 0.69973 0.0913 0.0
N79 N 0.62244 0.70648 1.00925 0.0
O80 O 0.63512 0.7513 0.30808 0.0
H81 H 0.66815 0.72978 0.1951 0.0
H82 H 0.58223 0.69146 0.08792 0.0
O83 O 0.63826 0.70192 0.36814 0.0
C84 C 0.6278 0.76521 0.24702 0.0
O85 O 0.60513 0.75009 0.18835 0.0
N86 N 0.57963 0.66907 0.30363 0.0
C87 C 0.52856 0.61399 0.28897 0.0
C88 C 0.55313 0.61744 0.3421 0.0
C89 C 0.57841 0.64527 0.34949 0.0
C90 C 0.55556 0.66625 0.25624 0.0
C91 C 0.53038 0.63903 0.2449 0.0
H92 H 0.59615 0.64754 0.39559 0.0
H93 H 0.55587 0.68558 0.22747 0.0
H94 H 0.61018 0.68752 0.52423 0.0
H95 H 0.57483 0.74005 0.60999 0.0
H96 H 0.66956 0.72807 0.99784 0.0
H97 H 0.55253 0.59911 0.3808 0.0
H98 H 0.51239 0.63792 0.20246 0.0
C99 C 0.87685 0.55677 0.96296 0.0
C100 C 0.87518 0.55578 0.06586 0.0
N101 N 0.89279 0.58309 0.10162 0.0
N102 N 0.8956 0.58455 0.93418 0.0
C103 C 0.90428 0.60008 0.02007 0.0
H104 H 0.86604 0.53823 0.91281 0.0
Co105 Co 0.90998 0.59848 0.80679 0.0
C106 C 0.97439 0.63958 0.84693 0.0
O107 O 0.98189 0.63185 0.7636 0.0
N108 N 0.92413 0.61292 0.67716 0.0
C109 C 0.94069 0.64344 0.54717 0.0
C110 C 0.9399 0.64142 0.64988 0.0
C111 C 0.91517 0.59822 0.5894 0.0
N112 N 0.92478 0.61616 0.50949 0.0
O113 O 0.89367 0.62412 0.81424 0.0
H114 H 0.94866 0.65975 0.7013 0.0
H115 H 0.90029 0.57498 0.58311 0.0
O116 O 0.94724 0.62835 0.86845 0.0
C117 C 0.8715 0.61521 0.7564 0.0
O118 O 0.86383 0.59184 0.701 0.0
N119 N 0.92228 0.5705 0.79715 0.0
C120 C 0.92714 0.51999 0.78117 0.0
C121 C 0.94704 0.54402 0.83972 0.0
C122 C 0.94397 0.56897 0.84802 0.0
C123 C 0.90227 0.54691 0.74375 0.0
C124 C 0.90483 0.52208 0.73175 0.0
H125 H 0.958 0.58603 0.89954 0.0
H126 H 0.88321 0.54679 0.7138 0.0
H127 H 0.91907 0.62347 0.02287 0.0
H128 H 0.86305 0.53622 0.11069 0.0
H129 H 0.95048 0.6635 0.50398 0.0
H130 H 0.96394 0.54304 0.88252 0.0
H131 H 0.88876 0.50433 0.68594 0.0
C132 C 0.33237 0.87392 0.46061 0.0
C133 C 0.33137 0.87221 0.56345 0.0
N134 N 0.32065 0.88898 0.59855 0.0
N135 N 0.32265 0.89197 0.43075 0.0
C136 C 0.31493 0.90004 0.51612 0.0
H137 H 0.34073 0.86354 0.41151 0.0
Co138 Co 0.32282 0.90658 0.30341 0.0
C139 C 0.34373 0.97145 0.3503 0.0
O140 O 0.35361 0.98166 0.26058 0.0
N141 N 0.32222 0.921 0.17474 0.0
C142 C 0.30589 0.93516 0.04485 0.0
C143 C 0.30748 0.93472 0.14751 0.0
C144 C 0.32898 0.91301 0.08704 0.0
N145 N 0.31915 0.92112 1.00695 0.0
O146 O 0.28096 0.89068 0.31363 0.0
H147 H 0.29665 0.94201 0.19905 0.0
H148 H 0.33911 0.8997 0.08139 0.0
O149 O 0.33188 0.94393 0.3678 0.0
C150 C 0.26759 0.86843 0.25574 0.0
O151 O 0.28323 0.86098 0.19959 0.0
N152 N 0.36273 0.91831 0.29015 0.0
C153 C 0.41744 0.92238 0.26925 0.0
C154 C 0.41477 0.94448 0.31908 0.0
C155 C 0.38707 0.94192 0.32953 0.0
C156 C 0.36508 0.89673 0.24259 0.0
C157 C 0.39205 0.8986 0.22924 0.0
H158 H 0.38536 0.95826 0.37274 0.0
H159 H 0.34549 0.87731 0.21703 0.0
H160 H 0.3058 0.91438 0.51758 0.0
H161 H 0.33927 0.86057 0.60852 0.0
H162 H 0.29398 0.94321 1.00201 0.0
H163 H 0.43364 0.96291 0.35324 0.0
H164 H 0.39278 0.88108 0.18933 0.0
C165 C 0.45707 0.30446 0.9729 0.0
C166 C 0.4591 0.30483 0.07578 0.0
N167 N 0.44654 0.31973 0.1126 0.0
N168 N 0.44328 0.31902 0.94527 0.0
C169 C 0.43765 0.32845 0.03177 0.0
H170 H 0.46382 0.29304 0.92184 0.0
Co171 Co 0.43039 0.32086 0.81769 0.0
C172 C 0.38722 0.34144 0.85706 0.0
O173 O 0.39461 0.35685 0.77413 0.0
N174 N 0.41715 0.32195 0.68777 0.0
C175 C 0.38802 0.30877 0.55428 0.0
C176 C 0.38897 0.30834 0.65695 0.0
C177 C 0.43281 0.32983 0.60205 0.0
N178 N 0.41568 0.32205 0.51996 0.0
O179 O 0.40546 0.27844 0.81826 0.0
H180 H 0.37023 0.29707 0.70568 0.0
H181 H 0.45621 0.33921 0.59876 0.0
O182 O 0.39914 0.3261 0.87836 0.0
C183 C 0.41363 0.26523 0.75722 0.0
O184 O 0.43632 0.28103 0.69966 0.0
N185 N 0.45748 0.36163 0.81515 0.0
C186 C 0.50428 0.41902 0.79706 0.0
C187 C 0.47983 0.41303 0.85522 0.0
C188 C 0.45665 0.38405 0.86402 0.0
C189 C 0.48221 0.36703 0.76552 0.0
C190 C 0.50544 0.39555 0.75286 0.0
H191 H 0.4388 0.37994 0.91276 0.0
H192 H 0.484 0.34886 0.73608 0.0
H193 H 0.42649 0.34088 0.03591 0.0
H194 H 0.4676 0.29354 0.11991 0.0
H195 H 0.36848 0.29819 0.50848 0.0
H196 H 0.47874 0.43054 0.89385 0.0
H197 H 0.52456 0.39913 0.71136 0.0
C198 C 0.56807 0.86991 0.06223 0.0
C199 C 0.56726 0.86824 0.95924 0.0
N200 N 0.59364 0.88867 0.92394 0.0
N201 N 0.59479 0.89136 0.09121 0.0
C202 C 0.60997 0.90188 1.00554 0.0
H203 H 0.55002 0.85724 0.11244 0.0
Co204 Co 0.60735 0.90635 0.21871 0.0
C205 C 0.6419 0.97112 0.17486 0.0
O206 O 0.63032 0.97691 0.25223 0.0
N207 N 0.6207 0.92137 0.34888 0.0
C208 C 0.65037 0.94263 0.47922 0.0
C209 C 0.64824 0.94155 0.37648 0.0
C210 C 0.60689 0.91001 0.43654 0.0
N211 N 0.62429 0.92248 0.51664 0.0
O212 O 0.63527 0.89281 0.2141 0.0
H213 H 0.66625 0.95348 0.32543 0.0
H214 H 0.58506 0.89158 0.44256 0.0
O215 O 0.63541 0.94463 0.1577 0.0
C216 C 0.62656 0.87005 0.26894 0.0
O217 O 0.60221 0.86061 0.31975 0.0
N218 N 0.57713 0.91583 0.22491 0.0
C219 C 0.52648 0.92029 0.24015 0.0
C220 C 0.54856 0.93746 0.17113 0.0
C221 C 0.57335 0.93428 0.16282 0.0
C222 C 0.55479 0.89744 0.28585 0.0
C223 C 0.52999 0.90001 0.29767 0.0
H224 H 0.58856 0.94546 0.10307 0.0
H225 H 0.55535 0.87942 0.32156 0.0
H226 H 0.63255 0.91933 1.00264 0.0
H227 H 0.54834 0.85408 0.91402 0.0
H228 H 0.67004 0.95584 0.52254 0.0
H229 H 0.5461 0.95216 0.12075 0.0
H230 H 0.51337 0.88556 0.35 0.0
C231 C 0.6979 0.55735 0.56436 0.0
C232 C 0.69893 0.55655 0.46152 0.0
N233 N 0.71209 0.58433 0.42675 0.0
N234 N 0.71006 0.58549 0.59451 0.0
C235 C 0.7192 0.60134 0.50938 0.0
H236 H 0.68772 0.53853 0.61329 0.0
Co237 Co 0.71076 0.60041 0.72177 0.0
C238 C 0.69397 0.64722 0.67397 0.0
O239 O 0.68393 0.64793 0.76303 0.0
N240 N 0.71225 0.61587 0.85069 0.0
C241 C 0.73003 0.64637 0.98073 0.0
C242 C 0.72818 0.64435 0.87807 0.0
C243 C 0.70506 0.60109 0.93837 0.0
N244 N 0.71573 0.61901 0.01858 0.0
O245 O 0.75292 0.62454 0.71245 0.0
H246 H 0.73967 0.66241 0.82661 0.0
H247 H 0.69404 0.57756 0.94388 0.0
O248 O 0.70457 0.63046 0.65729 0.0
C249 C 0.76595 0.6157 0.77152 0.0
O250 O 0.75005 0.59314 0.82965 0.0
N251 N 0.67007 0.57421 0.73347 0.0
C252 C 0.61261 0.52818 0.75729 0.0
C253 C 0.61856 0.55276 0.69945 0.0
C254 C 0.64757 0.57564 0.6882 0.0
C255 C 0.66455 0.54964 0.78489 0.0
C256 C 0.63605 0.52677 0.80002 0.0
H257 H 0.65165 0.59364 0.64006 0.0
H258 H 0.68263 0.54745 0.81235 0.0
H259 H 0.73019 0.62503 0.50822 0.0
H260 H 0.68931 0.53687 0.41617 0.0
H261 H 0.74279 0.6663 0.0235 0.0
H262 H 0.601 0.5541 0.66254 0.0
H263 H 0.63244 0.50759 0.84156 0.0
C264 C 0.15353 0.69373 0.05928 0.0
C265 C 0.1553 0.69467 0.95643 0.0
N266 N 0.14024 0.70727 0.92132 0.0
N267 N 0.13718 0.70541 0.08906 0.0
C268 C 0.13015 0.71415 1.00371 0.0
H269 H 0.16247 0.68393 0.10852 0.0
Co270 Co 0.12288 0.70584 0.2162 0.0
C271 C 0.05917 0.68809 0.16859 0.0
O272 O 0.0487 0.67785 0.25776 0.0
N273 N 0.10886 0.70706 0.34503 0.0
C274 C 0.09583 0.72445 0.47503 0.0
C275 C 0.09609 0.72272 0.37237 0.0
C276 C 0.11651 0.69996 0.43274 0.0
N277 N 0.10906 0.71038 0.5129 0.0
O278 O 0.14078 0.74815 0.20752 0.0
H279 H 0.08941 0.73409 0.3209 0.0
H280 H 0.12922 0.68921 0.43836 0.0
O281 O 0.08655 0.69927 0.15141 0.0
C282 C 0.1626 0.7613 0.26699 0.0
O283 O 0.16943 0.74541 0.32446 0.0
N284 N 0.10854 0.66505 0.22741 0.0
C285 C 0.09694 0.60745 0.25113 0.0
C286 C 0.07843 0.61341 0.19288 0.0
C287 C 0.08467 0.64247 0.18153 0.0
C288 C 0.12751 0.65956 0.2792 0.0
C289 C 0.12179 0.63099 0.29421 0.0
H290 H 0.07086 0.6465 0.13282 0.0
H291 H 0.14776 0.67771 0.3071 0.0
H292 H 0.1171 0.7247 1.00215 0.0
H293 H 0.16562 0.68536 0.91129 0.0
H294 H 0.08848 0.73699 0.51784 0.0
H295 H 0.05952 0.59582 0.15566 0.0
H296 H 0.13733 0.62744 0.33598 0.0
C297 C 0.45471 0.16428 0.5585 0.0
C298 C 0.45692 0.16586 0.4557 0.0
N299 N 0.44617 0.13843 0.41937 0.0
N300 N 0.44256 0.136 0.58664 0.0
C301 C 0.43815 0.12093 0.50053 0.0
H302 H 0.46018 0.18236 0.60907 0.0
Co303 Co 0.43005 0.121 0.7142 0.0
C304 C 0.38905 0.05627 0.67391 0.0
O305 O 0.39647 0.04864 0.75762 0.0
N306 N 0.41723 0.10628 0.84392 0.0
C307 C 0.38849 0.08897 0.97762 0.0
C308 C 0.38917 0.09054 0.87495 0.0
C309 C 0.43309 0.11452 0.92943 0.0
N310 N 0.41619 0.10438 1.01168 0.0
O311 O 0.40355 0.13647 0.71257 0.0
H312 H 0.37027 0.08228 0.82639 0.0
H313 H 0.45641 0.12932 0.93239 0.0
O314 O 0.40025 0.08354 0.65283 0.0
C315 C 0.41177 0.15814 0.77271 0.0
O316 O 0.43478 0.16565 0.82942 0.0
N317 N 0.45884 0.10996 0.7184 0.0
C318 C 0.50991 0.10657 0.73647 0.0
C319 C 0.4852 0.08449 0.68632 0.0
C320 C 0.45992 0.0868 0.67673 0.0
C321 C 0.48306 0.13206 0.76304 0.0
C322 C 0.50839 0.13051 0.77532 0.0
H323 H 0.44204 0.07056 0.63269 0.0
H324 H 0.48265 0.15128 0.78937 0.0
H325 H 0.42849 0.09737 0.49696 0.0
H326 H 0.46424 0.18546 0.41119 0.0
H327 H 0.36904 0.07914 0.0237 0.0
H328 H 0.4857 0.06614 0.65178 0.0
H329 H 0.52669 0.14815 0.81472 0.0
C330 C 0.33323 0.46719 0.07284 0.0
C331 C 0.33209 0.46783 0.97 0.0
N332 N 0.32041 0.44013 0.93505 0.0
N333 N 0.32262 0.43924 0.10285 0.0
C334 C 0.31427 0.4233 0.01758 0.0
H335 H 0.34236 0.48606 0.12185 0.0
Co336 Co 0.32263 0.42469 0.2301 0.0
C337 C 0.34264 0.3803 0.18267 0.0
O338 O 0.35286 0.3801 0.27198 0.0
N339 N 0.32182 0.40949 0.3589 0.0
C340 C 0.305 0.37878 0.48824 0.0
C341 C 0.30681 0.38092 0.38561 0.0
C342 C 0.32857 0.42416 0.44694 0.0
N343 N 0.31842 0.40611 0.52668 0.0
O344 O 0.28074 0.39902 0.21951 0.0
H345 H 0.2959 0.36282 0.33369 0.0
H346 H 0.33891 0.44764 0.45316 0.0
O347 O 0.33094 0.39606 0.16568 0.0
C348 C 0.26742 0.4078 0.27746 0.0
O349 O 0.28307 0.43069 0.33494 0.0
N350 N 0.36273 0.45258 0.24325 0.0
C351 C 0.41804 0.50298 0.26345 0.0
C352 C 0.41453 0.47835 0.20999 0.0
C353 C 0.38658 0.45332 0.20027 0.0
C354 C 0.36581 0.47645 0.29339 0.0
C355 C 0.3931 0.50127 0.30727 0.0
H356 H 0.38423 0.43544 0.1544 0.0
H357 H 0.34656 0.47652 0.32054 0.0
H358 H 0.30446 0.3997 0.01627 0.0
H359 H 0.34062 0.48744 0.9248 0.0
H360 H 0.29283 0.35872 0.53059 0.0
H361 H 0.43289 0.47879 0.17244 0.0
H362 H 0.3943 0.51922 0.3505 0.0
C363 C 0.87803 0.32345 0.56398 0.0
C364 C 0.87621 0.32225 0.46115 0.0
N365 N 0.8926 0.31109 0.42632 0.0
N366 N 0.89576 0.3134 0.5941 0.0
C367 C 0.90356 0.30531 0.50893 0.0
H368 H 0.86805 0.33227 0.61293 0.0
Co369 Co 0.91046 0.31385 0.72143 0.0
C370 C 0.97511 0.33623 0.67637 0.0
O371 O 0.98479 0.34733 0.76555 0.0
N372 N 0.92499 0.3135 0.85039 0.0
C373 C 0.93958 0.29745 0.97994 0.0
C374 C 0.93924 0.29926 0.87731 0.0
C375 C 0.91664 0.31977 0.93828 0.0
N376 N 0.92497 0.31008 0.01816 0.0
O377 O 0.89516 0.27194 0.71083 0.0
H378 H 0.94698 0.28887 0.82551 0.0
H379 H 0.90292 0.32939 0.94421 0.0
O380 O 0.94765 0.32308 0.65762 0.0
C381 C 0.87344 0.2576 0.7695 0.0
O382 O 0.86547 0.2723 0.82849 0.0
N383 N 0.92198 0.35394 0.73431 0.0
C384 C 0.92686 0.40923 0.75589 0.0
C385 C 0.9478 0.40591 0.70137 0.0
C386 C 0.94484 0.37798 0.69068 0.0
C387 C 0.9012 0.3568 0.78491 0.0
C388 C 0.90362 0.38409 0.79926 0.0
H389 H 0.96017 0.37584 0.6435 0.0
H390 H 0.88195 0.3374 0.81215 0.0
H391 H 0.9177 0.29597 0.50778 0.0
H392 H 0.86483 0.3304 0.41586 0.0
H393 H 0.948 0.28579 0.0224 0.0
H394 H 0.96562 0.42443 0.66372 0.0
H395 H 0.8869 0.38518 0.84263 0.0
C396 C 0.04584 0.36347 0.53027 0.0
C397 C 0.03755 0.36741 0.43398 0.0
H398 H 0.03276 0.35062 0.68243 0.0
C399 C 1.00794 0.35852 0.41699 0.0
H400 H 0.06826 0.36969 0.54638 0.0
C401 C 0.98759 0.3474 0.49497 0.0
C402 C 0.99613 0.34464 0.59202 0.0
H403 H 1.0006 0.36127 0.34429 0.0
H404 H 0.96546 0.34251 0.48026 0.0
C405 C 0.02544 0.35245 0.60852 0.0
C406 C 0.6901 0.02068 0.96476 0.0
C407 C 0.67216 0.03102 0.92596 0.0
H408 H 0.69411 0.99249 0.07288 0.0
C409 C 0.64489 0.02186 0.97065 0.0
H410 H 0.71126 0.0275 0.9316 0.0
C411 C 0.63604 1.00357 0.05413 0.0
C412 C 0.65341 0.99251 0.09169 0.0
H413 H 0.63047 0.02921 0.94211 0.0
H414 H 0.61512 0.99751 0.08786 0.0
C415 C 0.68041 1.00088 0.04556 0.0
C416 C 0.68165 0.68379 0.60014 0.0
C417 C 0.68657 0.66009 0.58759 0.0
H418 H 0.66725 0.71139 0.53283 0.0
C419 C 0.68168 0.64687 0.49282 0.0
H420 H 0.68519 0.69446 0.67218 0.0
C421 C 0.67114 0.65628 0.41358 0.0
C422 C 0.66499 0.67913 0.42698 0.0
H423 H 0.68434 0.62803 0.48113 0.0
H424 H 0.66656 0.64466 0.34306 0.0
C425 C 0.67128 0.69341 0.52037 0.0
C426 C 1.01001 0.67479 0.0956 0.0
C427 C 0.0386 0.67989 0.08264 0.0
H428 H 0.96782 0.65969 0.0297 0.0
C429 C 0.04654 0.67425 0.98844 0.0
H430 H 1.00321 0.67898 0.16713 0.0
C431 C 0.02612 0.66261 0.91046 0.0
C432 C 0.99712 0.65624 0.92453 0.0
H433 H 0.06809 0.67716 0.97645 0.0
H434 H 0.03283 0.65743 0.84052 0.0
C435 C 0.98964 0.66348 0.01701 0.0
C436 C 0.36754 0.04139 0.50054 0.0
C437 C 0.37342 0.03366 0.59487 0.0
H438 H 0.35381 0.02797 0.34887 0.0
C439 C 0.36691 1.00455 0.60969 0.0
H440 H 0.37182 0.06345 0.48696 0.0
C441 C 0.3563 0.98421 0.53114 0.0
C442 C 0.35173 0.99228 0.43563 0.0
H443 H 0.37117 0.99768 0.68098 0.0
H444 H 0.35318 0.96256 0.54406 0.0
C445 C 0.35713 0.02104 0.4215 0.0
C446 C 0.36475 0.37039 0.92223 0.0
C447 C 0.37136 0.34788 0.93624 0.0
H448 H 0.35134 0.3986 0.9892 0.0
C449 C 0.36574 0.33416 0.03033 0.0
H450 H 0.36882 0.3816 0.85119 0.0
C451 C 0.35558 0.34401 0.11007 0.0
C452 C 0.3502 0.36738 0.0968 0.0
H453 H 0.37012 0.31644 0.04326 0.0
H454 H 0.35251 0.33374 0.18256 0.0
C455 C 0.35442 0.38004 1.00145 0.0
C456 C 0.09322 0.5663 0.35588 0.0
C457 C 0.09209 0.57729 0.2613 0.0
H458 H 0.09498 0.53226 0.43815 0.0
C459 C 0.08941 0.56059 0.17594 0.0
H460 H 0.09528 0.5788 0.42279 0.0
C461 C 0.08966 0.53423 0.18464 0.0
C462 C 0.092 0.52384 0.27896 0.0
H463 H 0.08875 0.56869 0.10218 0.0
H464 H 0.08896 0.52241 0.11743 0.0
C465 C 0.09289 0.53966 0.36471 0.0
C466 C 0.53771 0.0794 0.76162 0.0
C467 C 0.53772 0.10579 0.74474 0.0
H468 H 0.56344 0.05867 0.78387 0.0
C469 C 0.56479 0.132 0.73784 0.0
H470 H 0.51728 0.05883 0.76816 0.0
C471 C 0.59102 0.132 0.7492 0.0
C472 C 0.59118 0.10571 0.76557 0.0
H473 H 0.56586 0.15273 0.72306 0.0
H474 H 0.61123 0.15286 0.74583 0.0
C475 C 0.56416 0.07936 0.77197 0.0
C476 C 0.50025 0.55822 0.2798 0.0
C477 C 0.50058 0.58514 0.2834 0.0
H478 H 0.47421 0.51122 0.27211 0.0
C479 C 0.47362 0.58447 0.28037 0.0
H480 H 0.52051 0.55774 0.2811 0.0
C481 C 0.44734 0.55806 0.27147 0.0
C482 C 0.44677 0.53106 0.2691 0.0
H483 H 0.47255 0.60442 0.28549 0.0
H484 H 0.42741 0.55905 0.26581 0.0
C485 C 0.47366 0.53149 0.27311 0.0
C486 C 0.95433 0.49159 0.77552 0.0
C487 C 0.92784 0.49196 0.77664 0.0
H488 H 0.97499 0.46537 0.76907 0.0
C489 C 0.90142 0.46499 0.77184 0.0
H490 H 0.97512 0.5119 0.77863 0.0
C491 C 0.90136 0.43861 0.76337 0.0
C492 C 0.9277 0.43801 0.76257 0.0
H493 H 0.88048 0.46405 0.77501 0.0
H494 H 0.8804 0.41864 0.75647 0.0
C495 C 0.95426 0.46491 0.76869 0.0
C496 C 0.49882 0.94815 0.23923 0.0
C497 C 0.49886 0.92149 0.24717 0.0
H498 H 0.4732 0.96951 0.23975 0.0
C499 C 0.47204 0.89555 0.26311 0.0
H500 H 0.51909 0.96858 0.22764 0.0
C501 C 0.44609 0.89618 0.27227 0.0
C502 C 0.44583 0.92266 0.26348 0.0
H503 H 0.47088 0.87447 0.26764 0.0
H504 H 0.42613 0.87568 0.2867 0.0
C505 C 0.47258 0.94873 0.24742 0.0
C506 C 0.54052 0.46079 0.69201 0.0
C507 C 0.52956 0.44915 0.78708 0.0
H508 H 0.57522 0.49554 0.60825 0.0
C509 C 0.54462 0.46525 0.87228 0.0
H510 H 0.52926 0.44871 0.62527 0.0
C511 C 0.5711 0.4917 0.86253 0.0
C512 C 0.58258 0.50281 0.76745 0.0
H513 H 0.53673 0.45661 0.9463 0.0
H514 H 0.58309 0.50307 0.92925 0.0
C515 C 0.56666 0.48756 0.68227 0.0
C516 C 0.12515 0.40577 0.74198 0.0
C517 C 0.13341 0.4344 0.71067 0.0
H518 H 0.11098 0.37501 0.86254 0.0
C519 C 0.1328 0.45398 0.78084 0.0
H520 H 0.12557 0.39017 0.69029 0.0
C521 C 0.1242 0.44521 0.87951 0.0
C522 C 0.11611 0.41665 0.91115 0.0
H523 H 0.13833 0.47595 0.75917 0.0
H524 H 0.12358 0.46079 0.93076 0.0
C525 C 0.11663 0.39701 0.84091 0.0
C526 C 0.70753 0.0888 0.31826 0.0
C527 C 0.71481 0.10931 0.39575 0.0
H528 H 0.7021 0.08065 0.1611 0.0
C529 C 0.72359 0.13858 0.37114 0.0
H530 H 0.70039 0.06607 0.33478 0.0
C531 C 0.72468 0.14703 0.27156 0.0
C532 C 0.71715 0.12647 0.1941 0.0
H533 H 0.73 0.15515 0.42866 0.0
H534 H 0.73169 0.16973 0.25516 0.0
C535 C 0.70862 0.09725 0.21863 0.0
C536 C 0.62192 0.70297 0.72964 0.0
C537 C 0.5988 0.70789 0.70491 0.0
H538 H 0.64743 0.69855 0.84556 0.0
C539 C 0.5827 0.71099 0.78274 0.0
H540 H 0.63503 0.70076 0.6723 0.0
C541 C 0.58993 0.70977 0.8826 0.0
C542 C 0.61356 0.70562 0.90683 0.0
H543 H 0.56465 0.71457 0.76651 0.0
H544 H 0.57757 0.71301 0.94064 0.0
C545 C 0.62927 0.70197 0.82921 0.0
C546 C 0.93561 0.62445 0.3291 0.0
C547 C 0.91654 0.60804 0.40658 0.0
H548 H 0.94336 0.62905 0.1721 0.0
C549 C 0.88921 0.58359 0.382 0.0
H550 H 0.95689 0.64319 0.34566 0.0
C551 C 0.88128 0.5756 0.28225 0.0
C552 C 0.90047 0.59185 0.20462 0.0
H553 H 0.8737 0.57082 0.43976 0.0
H554 H 0.86001 0.55682 0.26595 0.0
C555 C 0.92773 0.61639 0.22942 0.0
C556 C 0.31735 0.92157 0.72626 0.0
C557 C 0.31902 0.8964 0.70173 0.0
H558 H 0.31676 0.94946 0.84167 0.0
C559 C 0.32017 0.87926 0.7802 0.0
H560 H 0.31646 0.93551 0.66898 0.0
C561 C 0.32021 0.88732 0.87984 0.0
C562 C 0.31913 0.91279 0.90401 0.0
H563 H 0.32086 0.85944 0.76502 0.0
H564 H 0.32067 0.87326 0.93779 0.0
C565 C 0.31748 0.92967 0.82589 0.0
C566 C 0.408 0.32549 0.33995 0.0
C567 C 0.42467 0.32334 0.41758 0.0
H568 H 0.40173 0.32595 0.18312 0.0
C569 C 0.44948 0.32118 0.39339 0.0
H570 H 0.38892 0.32737 0.35623 0.0
C571 C 0.45699 0.32051 0.29354 0.0
C572 C 0.43998 0.32214 0.21574 0.0
H573 H 0.46261 0.31912 0.45142 0.0
H574 H 0.476 0.31852 0.27731 0.0
C575 C 0.41559 0.32498 0.24044 0.0
C576 C 0.59588 0.88478 0.64429 0.0
C577 C 0.61708 0.9138 0.61961 0.0
H578 H 0.5721 0.85398 0.76032 0.0
C579 C 0.63087 0.93421 0.69703 0.0
H580 H 0.58528 0.86828 0.58681 0.0
C581 C 0.62333 0.92594 0.79666 0.0
C582 C 0.60191 0.89697 0.82125 0.0
H583 H 0.64702 0.95676 0.68044 0.0
H584 H 0.63386 0.94248 0.85412 0.0
C585 C 0.58835 0.8765 0.74386 0.0
C586 C 0.71843 0.62147 0.29942 0.0
C587 C 0.71445 0.59365 0.32365 0.0
H588 H 0.72119 0.65098 0.18446 0.0
C589 C 0.71162 0.57467 0.24499 0.0
H590 H 0.72074 0.63689 0.35689 0.0
C591 C 0.71212 0.58296 0.14543 0.0
C592 C 0.71538 0.61048 0.12149 0.0
H593 H 0.70916 0.55337 0.25998 0.0
H594 H 0.71029 0.56782 0.08743 0.0
C595 C 0.71876 0.6297 0.19987 0.0
C596 C 0.14187 0.70763 0.64005 0.0
C597 C 0.11721 0.71007 0.61587 0.0
H598 H 0.16886 0.70548 0.75498 0.0
C599 C 0.10094 0.71268 0.69405 0.0
H600 H 0.15548 0.70639 0.58214 0.0
C601 C 0.10882 0.71242 0.79369 0.0
C602 C 0.13314 0.70936 0.81816 0.0
H603 H 0.08177 0.71444 0.67834 0.0
H604 H 0.09536 0.71406 0.85107 0.0
C605 C 0.14969 0.70725 0.73971 0.0
C606 C 0.40941 0.09283 0.19154 0.0
C607 C 0.42522 0.11227 0.11411 0.0
H608 H 0.40364 0.08576 0.3484 0.0
C609 C 0.44907 0.14003 0.13858 0.0
H610 H 0.39109 0.07125 0.17497 0.0
C611 C 0.45637 0.14842 0.23853 0.0
C612 C 0.44012 0.12918 0.31618 0.0
H613 H 0.46152 0.15567 0.08067 0.0
H614 H 0.47455 0.17007 0.25497 0.0
C615 C 0.41684 0.10111 0.29119 0.0
C616 C 0.32019 0.44942 0.75336 0.0
C617 C 0.31846 0.4309 0.83189 0.0
H618 H 0.32105 0.45605 0.59585 0.0
C619 C 0.31595 0.40367 0.80746 0.0
H620 H 0.32149 0.47022 0.76845 0.0
C621 C 0.316 0.39561 0.70784 0.0
C622 C 0.31833 0.41441 0.62965 0.0
H623 H 0.31451 0.38861 0.86481 0.0
H624 H 0.31469 0.37482 0.69219 0.0
C625 C 0.3201 0.4413 0.65377 0.0
C626 C 0.92496 0.30747 0.29891 0.0
C627 C 0.89996 0.30933 0.32322 0.0
H628 H 0.95287 0.307 0.18387 0.0
C629 C 0.88296 0.31063 0.2446 0.0
H630 H 0.93873 0.30634 0.3563 0.0
C631 C 0.89106 0.31077 0.14505 0.0
C632 C 0.91647 0.30969 0.12107 0.0
H633 H 0.86324 0.31141 0.2596 0.0
H634 H 0.87709 0.31138 0.08709 0.0
C635 C 0.93315 0.30778 0.19936 0.0
C636 C 0.19738 0.39821 0.1745 0.0
C637 C 0.18342 0.39906 0.26304 0.0
H638 H 0.23491 0.39896 0.10948 0.0
C639 C 0.194 0.3955 0.35495 0.0
H640 H 0.18964 0.40104 0.10264 0.0
C641 C 0.2202 0.39486 0.35878 0.0
C642 C 0.23572 0.39699 0.27073 0.0
H643 H 0.18388 0.39644 0.4242 0.0
H644 H 0.22964 0.39527 0.43111 0.0
C645 C 0.22318 0.39683 0.17823 0.0
C646 C 0.84234 0.21255 0.66917 0.0
C647 C 0.85367 0.22553 0.76228 0.0
H648 H 0.80563 0.17807 0.5914 0.0
C649 C 0.84012 0.20965 0.84969 0.0
H650 H 0.8521 0.22447 0.60083 0.0
C651 C 0.81385 0.18276 0.84438 0.0
C652 C 0.80047 0.17177 0.75155 0.0
H653 H 0.84839 0.21934 0.92248 0.0
H654 H 0.80236 0.17255 0.91296 0.0
C655 C 0.81571 0.18599 0.66391 0.0
C656 C 0.64032 0.83648 0.35156 0.0
C657 C 0.63911 0.85055 0.26376 0.0
H658 H 0.63892 0.79839 0.41518 0.0
C659 C 0.6416 0.83957 0.17108 0.0
H660 H 0.63809 0.84438 0.42397 0.0
C661 C 0.64144 0.81289 0.1661 0.0
C662 C 0.63948 0.79721 0.25371 0.0
H663 H 0.64018 0.84966 0.10238 0.0
H664 H 0.64015 0.80321 0.09344 0.0
C665 C 0.64087 0.81017 0.34665 0.0
C666 C 0.83949 0.62852 0.85278 0.0
C667 C 0.85112 0.62668 0.76075 0.0
H668 H 0.80269 0.62656 0.92788 0.0
C669 C 0.83755 0.62816 0.67204 0.0
H670 H 0.84925 0.62695 0.92209 0.0
C671 C 0.81121 0.62854 0.67519 0.0
C672 C 0.79774 0.62669 0.7672 0.0
H673 H 0.84602 0.62651 0.60009 0.0
H674 H 0.79992 0.62704 0.60585 0.0
C675 C 0.81279 0.62816 0.85594 0.0
C676 C 0.22268 0.83518 0.35204 0.0
C677 C 0.23576 0.84771 0.26039 0.0
H678 H 0.1885 0.79731 0.42549 0.0
C679 C 0.22058 0.83448 0.17133 0.0
H680 H 0.23413 0.84464 0.42153 0.0
C681 C 0.19418 0.80764 0.17345 0.0
C682 C 0.18302 0.79334 0.26469 0.0
H683 H 0.23044 0.84362 0.09962 0.0
H684 H 0.18435 0.79669 0.10358 0.0
C685 C 0.19666 0.80801 0.35409 0.0
C686 C 0.39921 0.2192 0.85234 0.0
C687 C 0.40215 0.23321 0.76053 0.0
H688 H 0.3997 0.18353 0.92776 0.0
C689 C 0.40109 0.21829 0.67178 0.0
H690 H 0.40039 0.23035 0.92178 0.0
C691 C 0.40002 0.19116 0.675 0.0
C692 C 0.4007 0.17891 0.76719 0.0
H693 H 0.40351 0.22876 0.59997 0.0
H694 H 0.40197 0.18154 0.60589 0.0
C695 C 0.39885 0.19241 0.85563 0.0
loop_
_geom_bond_atom_site_label_1
_geom_bond_atom_site_label_2
_geom_bond_distance
_geom_bond_site_symmetry_2
_ccdc_geom_bond_type
C0 C1 1.351 . S
C0 N3 1.368 . S
C0 H5 0.931 . S
C1 C0 1.351 . S
C1 N2 1.373 . S
C1 H29 0.930 . S
N2 C1 1.373 . S
N2 C4 1.340 . S
N3 C0 1.368 . S
N3 C4 1.321 . S
N3 Co6 2.135 . S
C4 N2 1.340 . S
C4 N3 1.321 . S
C4 H28 0.930 . S
H5 C0 0.931 . S
Co6 N3 2.135 . S
Co6 N9 2.121 . S
Co6 O14 2.055 . S
Co6 O17 2.039 . S
Co6 N20 2.140 . S
C7 O8 1.227 . S
C7 O17 1.265 . S
O8 C7 1.227 . S
N9 Co6 2.121 . S
N9 C11 1.375 . S
N9 C12 1.313 . S
C10 C11 1.338 . S
C10 N13 1.377 . S
C10 H30 0.930 . S
C11 N9 1.375 . S
C11 C10 1.338 . S
C11 H15 0.931 . S
C12 N9 1.313 . S
C12 N13 1.344 . S
C12 H16 0.930 . S
N13 C10 1.377 . S
N13 C12 1.344 . S
O14 Co6 2.055 . S
O14 C18 1.253 . S
H15 C11 0.931 . S
H16 C12 0.930 . S
O17 Co6 2.039 . S
O17 C7 1.265 . S
C18 O14 1.253 . S
C18 O19 1.227 . S
O19 C18 1.227 . S
N20 Co6 2.140 . S
N20 C23 1.346 . S
N20 C24 1.345 . S
C21 C22 1.387 . S
C21 C25 1.391 . S
C22 C21 1.387 . S
C22 C23 1.369 . S
C22 H31 0.929 . S
C23 N20 1.346 . S
C23 C22 1.369 . S
C23 H26 0.928 . S
C24 N20 1.345 . S
C24 C25 1.371 . S
C24 H27 0.931 . S
C25 C21 1.391 . S
C25 C24 1.371 . S
C25 H32 0.930 . S
H26 C23 0.928 . S
H27 C24 0.931 . S
H28 C4 0.930 . S
H29 C1 0.930 . S
H30 C10 0.930 . S
H31 C22 0.929 . S
H32 C25 0.930 . S
C33 C34 1.351 . S
C33 N36 1.368 1_554 S
C33 H38 0.931 1_554 S
C34 C33 1.351 . S
C34 N35 1.373 . S
C34 H62 0.930 . S
N35 C34 1.373 . S
N35 C37 1.340 . S
N36 C33 1.368 1_556 S
N36 C37 1.321 1_556 S
N36 Co39 2.135 . S
C37 N35 1.340 . S
C37 N36 1.321 1_554 S
C37 H61 0.930 . S
H38 C33 0.931 1_556 S
Co39 N36 2.135 . S
Co39 N42 2.121 . S
Co39 O47 2.055 . S
Co39 O50 2.039 . S
Co39 N53 2.140 . S
C40 O41 1.227 . S
C40 O50 1.265 . S
O41 C40 1.227 . S
N42 Co39 2.121 . S
N42 C44 1.375 . S
N42 C45 1.313 . S
C43 C44 1.338 . S
C43 N46 1.377 . S
C43 H63 0.930 . S
C44 N42 1.375 . S
C44 C43 1.338 . S
C44 H48 0.931 . S
C45 N42 1.313 . S
C45 N46 1.344 . S
C45 H49 0.930 . S
N46 C43 1.377 . S
N46 C45 1.344 . S
O47 Co39 2.055 . S
O47 C51 1.253 . S
H48 C44 0.931 . S
H49 C45 0.930 . S
O50 Co39 2.039 . S
O50 C40 1.265 . S
C51 O47 1.253 . S
C51 O52 1.227 . S
O52 C51 1.227 . S
N53 Co39 2.140 . S
N53 C56 1.346 . S
N53 C57 1.345 . S
C54 C55 1.387 . S
C54 C58 1.391 . S
C55 C54 1.387 . S
C55 C56 1.369 . S
C55 H64 0.929 . S
C56 N53 1.346 . S
C56 C55 1.369 . S
C56 H59 0.928 . S
C57 N53 1.345 . S
C57 C58 1.371 . S
C57 H60 0.931 . S
C58 C54 1.391 . S
C58 C57 1.371 . S
C58 H65 0.930 . S
H59 C56 0.928 . S
H60 C57 0.931 . S
H61 C37 0.930 . S
H62 C34 0.930 . S
H63 C43 0.930 . S
H64 C55 0.929 . S
H65 C58 0.930 . S
C66 C67 1.351 . S
C66 N69 1.368 . S
C66 H71 0.931 . S
C67 C66 1.351 . S
C67 N68 1.373 . S
C67 H95 0.930 . S
N68 C67 1.373 . S
N68 C70 1.340 . S
N69 C66 1.368 . S
N69 C70 1.321 . S
N69 Co72 2.135 . S
C70 N68 1.340 . S
C70 N69 1.321 . S
C70 H94 0.930 . S
H71 C66 0.931 . S
Co72 N69 2.135 . S
Co72 N75 2.121 . S
Co72 O80 2.055 . S
Co72 O83 2.039 . S
Co72 N86 2.140 . S
C73 O74 1.227 . S
C73 O83 1.265 . S
O74 C73 1.227 . S
N75 Co72 2.121 . S
N75 C77 1.375 . S
N75 C78 1.313 . S
C76 C77 1.338 . S
C76 N79 1.377 . S
C76 H96 0.930 . S
C77 N75 1.375 . S
C77 C76 1.338 . S
C77 H81 0.931 . S
C78 N75 1.313 . S
C78 N79 1.344 . S
C78 H82 0.930 . S
N79 C76 1.377 . S
N79 C78 1.344 . S
O80 Co72 2.055 . S
O80 C84 1.253 . S
H81 C77 0.931 . S
H82 C78 0.930 . S
O83 Co72 2.039 . S
O83 C73 1.265 . S
C84 O80 1.253 . S
C84 O85 1.227 . S
O85 C84 1.227 . S
N86 Co72 2.140 . S
N86 C89 1.346 . S
N86 C90 1.345 . S
C87 C88 1.387 . S
C87 C91 1.391 . S
C88 C87 1.387 . S
C88 C89 1.369 . S
C88 H97 0.929 . S
C89 N86 1.346 . S
C89 C88 1.369 . S
C89 H92 0.928 . S
C90 N86 1.345 . S
C90 C91 1.371 . S
C90 H93 0.931 . S
C91 C87 1.391 . S
C91 C90 1.371 . S
C91 H98 0.930 . S
H92 C89 0.928 . S
H93 C90 0.931 . S
H94 C70 0.930 . S
H95 C67 0.930 . S
H96 C76 0.930 . S
H97 C88 0.929 . S
H98 C91 0.930 . S
C99 C100 1.351 . S
C99 N102 1.368 1_554 S
C99 H104 0.931 1_554 S
C100 C99 1.351 . S
C100 N101 1.373 . S
C100 H128 0.930 . S
N101 C100 1.373 . S
N101 C103 1.340 . S
N102 C99 1.368 1_556 S
N102 C103 1.321 1_556 S
N102 Co105 2.135 . S
C103 N101 1.340 . S
C103 N102 1.321 1_554 S
C103 H127 0.930 . S
H104 C99 0.931 1_556 S
Co105 N102 2.135 . S
Co105 N108 2.121 . S
Co105 O113 2.055 . S
Co105 O116 2.039 . S
Co105 N119 2.140 . S
C106 O107 1.227 . S
C106 O116 1.265 . S
O107 C106 1.227 . S
N108 Co105 2.121 . S
N108 C110 1.375 . S
N108 C111 1.313 . S
C109 C110 1.338 . S
C109 N112 1.377 . S
C109 H129 0.930 . S
C110 N108 1.375 . S
C110 C109 1.338 . S
C110 H114 0.931 . S
C111 N108 1.313 . S
C111 N112 1.344 . S
C111 H115 0.930 . S
N112 C109 1.377 . S
N112 C111 1.344 . S
O113 Co105 2.055 . S
O113 C117 1.253 . S
H114 C110 0.931 . S
H115 C111 0.930 . S
O116 Co105 2.039 . S
O116 C106 1.265 . S
C117 O113 1.253 . S
C117 O118 1.227 . S
O118 C117 1.227 . S
N119 Co105 2.140 . S
N119 C122 1.346 . S
N119 C123 1.345 . S
C120 C121 1.387 . S
C120 C124 1.391 . S
C121 C120 1.387 . S
C121 C122 1.369 . S
C121 H130 0.929 . S
C122 N119 1.346 . S
C122 C121 1.369 . S
C122 H125 0.928 . S
C123 N119 1.345 . S
C123 C124 1.371 . S
C123 H126 0.931 . S
C124 C120 1.391 . S
C124 C123 1.371 . S
C124 H131 0.930 . S
H125 C122 0.928 . S
H126 C123 0.931 . S
H127 C103 0.930 . S
H128 C100 0.930 . S
H129 C109 0.930 . S
H130 C121 0.929 . S
H131 C124 0.930 . S
C132 C133 1.351 . S
C132 N135 1.368 . S
C132 H137 0.931 . S
C133 C132 1.351 . S
C133 N134 1.373 . S
C133 H161 0.930 . S
N134 C133 1.373 . S
N134 C136 1.340 . S
N135 C132 1.368 . S
N135 C136 1.321 . S
N135 Co138 2.135 . S
C136 N134 1.340 . S
C136 N135 1.321 . S
C136 H160 0.930 . S
H137 C132 0.931 . S
Co138 N135 2.135 . S
Co138 N141 2.121 . S
Co138 O146 2.055 . S
Co138 O149 2.039 . S
Co138 N152 2.140 . S
C139 O140 1.227 . S
C139 O149 1.265 . S
O140 C139 1.227 . S
N141 Co138 2.121 . S
N141 C143 1.375 . S
N141 C144 1.313 . S
C142 C143 1.338 . S
C142 N145 1.377 . S
C142 H162 0.930 . S
C143 N141 1.375 . S
C143 C142 1.338 . S
C143 H147 0.931 . S
C144 N141 1.313 . S
C144 N145 1.344 . S
C144 H148 0.930 . S
N145 C142 1.377 . S
N145 C144 1.344 . S
O146 Co138 2.055 . S
O146 C150 1.253 . S
H147 C143 0.931 . S
H148 C144 0.930 . S
O149 Co138 2.039 . S
O149 C139 1.265 . S
C150 O146 1.253 . S
C150 O151 1.227 . S
O151 C150 1.227 . S
N152 Co138 2.140 . S
N152 C155 1.346 . S
N152 C156 1.345 . S
C153 C154 1.387 . S
C153 C157 1.391 . S
C154 C153 1.387 . S
C154 C155 1.369 . S
C154 H163 0.929 . S
C155 N152 1.346 . S
C155 C154 1.369 . S
C155 H158 0.928 . S
C156 N152 1.345 . S
C156 C157 1.371 . S
C156 H159 0.931 . S
C157 C153 1.391 . S
C157 C156 1.371 . S
C157 H164 0.930 . S
H158 C155 0.928 . S
H159 C156 0.931 . S
H160 C136 0.930 . S
H161 C133 0.930 . S
H162 C142 0.930 . S
H163 C154 0.929 . S
H164 C157 0.930 . S
C165 C166 1.351 . S
C165 N168 1.368 1_554 S
C165 H170 0.931 1_554 S
C166 C165 1.351 . S
C166 N167 1.373 . S
C166 H194 0.930 . S
N167 C166 1.373 . S
N167 C169 1.340 . S
N168 C165 1.368 1_556 S
N168 C169 1.321 1_556 S
N168 Co171 2.135 . S
C169 N167 1.340 . S
C169 N168 1.321 1_554 S
C169 H193 0.930 . S
H170 C165 0.931 1_556 S
Co171 N168 2.135 . S
Co171 N174 2.121 . S
Co171 O179 2.055 . S
Co171 O182 2.039 . S
Co171 N185 2.140 . S
C172 O173 1.227 . S
C172 O182 1.265 . S
O173 C172 1.227 . S
N174 Co171 2.121 . S
N174 C176 1.375 . S
N174 C177 1.313 . S
C175 C176 1.338 . S
C175 N178 1.377 . S
C175 H195 0.930 . S
C176 N174 1.375 . S
C176 C175 1.338 . S
C176 H180 0.931 . S
C177 N174 1.313 . S
C177 N178 1.344 . S
C177 H181 0.930 . S
N178 C175 1.377 . S
N178 C177 1.344 . S
O179 Co171 2.055 . S
O179 C183 1.253 . S
H180 C176 0.931 . S
H181 C177 0.930 . S
O182 Co171 2.039 . S
O182 C172 1.265 . S
C183 O179 1.253 . S
C183 O184 1.227 . S
O184 C183 1.227 . S
N185 Co171 2.140 . S
N185 C188 1.346 . S
N185 C189 1.345 . S
C186 C187 1.387 . S
C186 C190 1.391 . S
C187 C186 1.387 . S
C187 C188 1.369 . S
C187 H196 0.929 . S
C188 N185 1.346 . S
C188 C187 1.369 . S
C188 H191 0.928 . S
C189 N185 1.345 . S
C189 C190 1.371 . S
C189 H192 0.931 . S
C190 C186 1.391 . S
C190 C189 1.371 . S
C190 H197 0.930 . S
H191 C188 0.928 . S
H192 C189 0.931 . S
H193 C169 0.930 . S
H194 C166 0.930 . S
H195 C175 0.930 . S
H196 C187 0.929 . S
H197 C190 0.930 . S
C198 C199 1.351 . S
C198 N201 1.368 1_556 S
C198 H203 0.931 1_556 S
C199 C198 1.351 . S
C199 N200 1.373 . S
C199 H227 0.930 . S
N200 C199 1.373 . S
N200 C202 1.340 . S
N201 C198 1.368 1_554 S
N201 C202 1.321 1_554 S
N201 Co204 2.135 . S
C202 N200 1.340 . S
C202 N201 1.321 1_556 S
C202 H226 0.930 . S
H203 C198 0.931 1_554 S
Co204 N201 2.135 . S
Co204 N207 2.121 . S
Co204 O212 2.055 . S
Co204 O215 2.039 . S
Co204 N218 2.140 . S
C205 O206 1.227 . S
C205 O215 1.265 . S
O206 C205 1.227 . S
N207 Co204 2.121 . S
N207 C209 1.375 . S
N207 C210 1.313 . S
C208 C209 1.338 . S
C208 N211 1.377 . S
C208 H228 0.930 . S
C209 N207 1.375 . S
C209 C208 1.338 . S
C209 H213 0.931 . S
C210 N207 1.313 . S
C210 N211 1.344 . S
C210 H214 0.930 . S
N211 C208 1.377 . S
N211 C210 1.344 . S
O212 Co204 2.055 . S
O212 C216 1.253 . S
H213 C209 0.931 . S
H214 C210 0.930 . S
O215 Co204 2.039 . S
O215 C205 1.265 . S
C216 O212 1.253 . S
C216 O217 1.227 . S
O217 C216 1.227 . S
N218 Co204 2.140 . S
N218 C221 1.346 . S
N218 C222 1.345 . S
C219 C220 1.387 . S
C219 C223 1.391 . S
C220 C219 1.387 . S
C220 C221 1.369 . S
C220 H229 0.929 . S
C221 N218 1.346 . S
C221 C220 1.369 . S
C221 H224 0.928 . S
C222 N218 1.345 . S
C222 C223 1.371 . S
C222 H225 0.931 . S
C223 C219 1.391 . S
C223 C222 1.371 . S
C223 H230 0.930 . S
H224 C221 0.928 . S
H225 C222 0.931 . S
H226 C202 0.930 . S
H227 C199 0.930 . S
H228 C208 0.930 . S
H229 C220 0.929 . S
H230 C223 0.930 . S
C231 C232 1.351 . S
C231 N234 1.368 . S
C231 H236 0.931 . S
C232 C231 1.351 . S
C232 N233 1.373 . S
C232 H260 0.930 . S
N233 C232 1.373 . S
N233 C235 1.340 . S
N234 C231 1.368 . S
N234 C235 1.321 . S
N234 Co237 2.135 . S
C235 N233 1.340 . S
C235 N234 1.321 . S
C235 H259 0.930 . S
H236 C231 0.931 . S
Co237 N234 2.135 . S
Co237 N240 2.121 . S
Co237 O245 2.055 . S
Co237 O248 2.039 . S
Co237 N251 2.140 . S
C238 O239 1.227 . S
C238 O248 1.265 . S
O239 C238 1.227 . S
N240 Co237 2.121 . S
N240 C242 1.375 . S
N240 C243 1.313 . S
C241 C242 1.338 . S
C241 N244 1.377 . S
C241 H261 0.930 . S
C242 N240 1.375 . S
C242 C241 1.338 . S
C242 H246 0.931 . S
C243 N240 1.313 . S
C243 N244 1.344 . S
C243 H247 0.930 . S
N244 C241 1.377 . S
N244 C243 1.344 . S
O245 Co237 2.055 . S
O245 C249 1.253 . S
H246 C242 0.931 . S
H247 C243 0.930 . S
O248 Co237 2.039 . S
O248 C238 1.265 . S
C249 O245 1.253 . S
C249 O250 1.227 . S
O250 C249 1.227 . S
N251 Co237 2.140 . S
N251 C254 1.346 . S
N251 C255 1.345 . S
C252 C253 1.387 . S
C252 C256 1.391 . S
C253 C252 1.387 . S
C253 C254 1.369 . S
C253 H262 0.929 . S
C254 N251 1.346 . S
C254 C253 1.369 . S
C254 H257 0.928 . S
C255 N251 1.345 . S
C255 C256 1.371 . S
C255 H258 0.931 . S
C256 C252 1.391 . S
C256 C255 1.371 . S
C256 H263 0.930 . S
H257 C254 0.928 . S
H258 C255 0.931 . S
H259 C235 0.930 . S
H260 C232 0.930 . S
H261 C241 0.930 . S
H262 C253 0.929 . S
H263 C256 0.930 . S
C264 C265 1.351 . S
C264 N267 1.368 1_556 S
C264 H269 0.931 1_556 S
C265 C264 1.351 . S
C265 N266 1.373 . S
C265 H293 0.930 . S
N266 C265 1.373 . S
N266 C268 1.340 . S
N267 C264 1.368 1_554 S
N267 C268 1.321 1_554 S
N267 Co270 2.135 . S
C268 N266 1.340 . S
C268 N267 1.321 1_556 S
C268 H292 0.930 . S
H269 C264 0.931 1_554 S
Co270 N267 2.135 . S
Co270 N273 2.121 . S
Co270 O278 2.055 . S
Co270 O281 2.039 . S
Co270 N284 2.140 . S
C271 O272 1.227 . S
C271 O281 1.265 . S
O272 C271 1.227 . S
N273 Co270 2.121 . S
N273 C275 1.375 . S
N273 C276 1.313 . S
C274 C275 1.338 . S
C274 N277 1.377 . S
C274 H294 0.930 . S
C275 N273 1.375 . S
C275 C274 1.338 . S
C275 H279 0.931 . S
C276 N273 1.313 . S
C276 N277 1.344 . S
C276 H280 0.930 . S
N277 C274 1.377 . S
N277 C276 1.344 . S
O278 Co270 2.055 . S
O278 C282 1.253 . S
H279 C275 0.931 . S
H280 C276 0.930 . S
O281 Co270 2.039 . S
O281 C271 1.265 . S
C282 O278 1.253 . S
C282 O283 1.227 . S
O283 C282 1.227 . S
N284 Co270 2.140 . S
N284 C287 1.346 . S
N284 C288 1.345 . S
C285 C286 1.387 . S
C285 C289 1.391 . S
C286 C285 1.387 . S
C286 C287 1.369 . S
C286 H295 0.929 . S
C287 N284 1.346 . S
C287 C286 1.369 . S
C287 H290 0.928 . S
C288 N284 1.345 . S
C288 C289 1.371 . S
C288 H291 0.931 . S
C289 C285 1.391 . S
C289 C288 1.371 . S
C289 H296 0.930 . S
H290 C287 0.928 . S
H291 C288 0.931 . S
H292 C268 0.930 . S
H293 C265 0.930 . S
H294 C274 0.930 . S
H295 C286 0.929 . S
H296 C289 0.930 . S
C297 C298 1.351 . S
C297 N300 1.368 . S
C297 H302 0.931 . S
C298 C297 1.351 . S
C298 N299 1.373 . S
C298 H326 0.930 . S
N299 C298 1.373 . S
N299 C301 1.340 . S
N300 C297 1.368 . S
N300 C301 1.321 . S
N300 Co303 2.135 . S
C301 N299 1.340 . S
C301 N300 1.321 . S
C301 H325 0.930 . S
H302 C297 0.931 . S
Co303 N300 2.135 . S
Co303 N306 2.121 . S
Co303 O311 2.055 . S
Co303 O314 2.039 . S
Co303 N317 2.140 . S
C304 O305 1.227 . S
C304 O314 1.265 . S
O305 C304 1.227 . S
N306 Co303 2.121 . S
N306 C308 1.375 . S
N306 C309 1.313 . S
C307 C308 1.338 . S
C307 N310 1.377 . S
C307 H327 0.930 . S
C308 N306 1.375 . S
C308 C307 1.338 . S
C308 H312 0.931 . S
C309 N306 1.313 . S
C309 N310 1.344 . S
C309 H313 0.930 . S
N310 C307 1.377 . S
N310 C309 1.344 . S
O311 Co303 2.055 . S
O311 C315 1.253 . S
H312 C308 0.931 . S
H313 C309 0.930 . S
O314 Co303 2.039 . S
O314 C304 1.265 . S
C315 O311 1.253 . S
C315 O316 1.227 . S
O316 C315 1.227 . S
N317 Co303 2.140 . S
N317 C320 1.346 . S
N317 C321 1.345 . S
C318 C319 1.387 . S
C318 C322 1.391 . S
C319 C318 1.387 . S
C319 C320 1.369 . S
C319 H328 0.929 . S
C320 N317 1.346 . S
C320 C319 1.369 . S
C320 H323 0.928 . S
C321 N317 1.345 . S
C321 C322 1.371 . S
C321 H324 0.931 . S
C322 C318 1.391 . S
C322 C321 1.371 . S
C322 H329 0.930 . S
H323 C320 0.928 . S
H324 C321 0.931 . S
H325 C301 0.930 . S
H326 C298 0.930 . S
H327 C307 0.930 . S
H328 C319 0.929 . S
H329 C322 0.930 . S
C330 C331 1.351 . S
C330 N333 1.368 1_556 S
C330 H335 0.931 1_556 S
C331 C330 1.351 . S
C331 N332 1.373 . S
C331 H359 0.930 . S
N332 C331 1.373 . S
N332 C334 1.340 . S
N333 C330 1.368 1_554 S
N333 C334 1.321 1_554 S
N333 Co336 2.135 . S
C334 N332 1.340 . S
C334 N333 1.321 1_556 S
C334 H358 0.930 . S
H335 C330 0.931 1_554 S
Co336 N333 2.135 . S
Co336 N339 2.121 . S
Co336 O344 2.055 . S
Co336 O347 2.039 . S
Co336 N350 2.140 . S
C337 O338 1.227 . S
C337 O347 1.265 . S
O338 C337 1.227 . S
N339 Co336 2.121 . S
N339 C341 1.375 . S
N339 C342 1.313 . S
C340 C341 1.338 . S
C340 N343 1.377 . S
C340 H360 0.930 . S
C341 N339 1.375 . S
C341 C340 1.338 . S
C341 H345 0.931 . S
C342 N339 1.313 . S
C342 N343 1.344 . S
C342 H346 0.930 . S
N343 C340 1.377 . S
N343 C342 1.344 . S
O344 Co336 2.055 . S
O344 C348 1.253 . S
H345 C341 0.931 . S
H346 C342 0.930 . S
O347 Co336 2.039 . S
O347 C337 1.265 . S
C348 O344 1.253 . S
C348 O349 1.227 . S
O349 C348 1.227 . S
N350 Co336 2.140 . S
N350 C353 1.346 . S
N350 C354 1.345 . S
C351 C352 1.387 . S
C351 C355 1.391 . S
C352 C351 1.387 . S
C352 C353 1.369 . S
C352 H361 0.929 . S
C353 N350 1.346 . S
C353 C352 1.369 . S
C353 H356 0.928 . S
C354 N350 1.345 . S
C354 C355 1.371 . S
C354 H357 0.931 . S
C355 C351 1.391 . S
C355 C354 1.371 . S
C355 H362 0.930 . S
H356 C353 0.928 . S
H357 C354 0.931 . S
H358 C334 0.930 . S
H359 C331 0.930 . S
H360 C340 0.930 . S
H361 C352 0.929 . S
H362 C355 0.930 . S
C363 C364 1.351 . S
C363 N366 1.368 . S
C363 H368 0.931 . S
C364 C363 1.351 . S
C364 N365 1.373 . S
C364 H392 0.930 . S
N365 C364 1.373 . S
N365 C367 1.340 . S
N366 C363 1.368 . S
N366 C367 1.321 . S
N366 Co369 2.135 . S
C367 N365 1.340 . S
C367 N366 1.321 . S
C367 H391 0.930 . S
H368 C363 0.931 . S
Co369 N366 2.135 . S
Co369 N372 2.121 . S
Co369 O377 2.055 . S
Co369 O380 2.039 . S
Co369 N383 2.140 . S
C370 O371 1.227 . S
C370 O380 1.265 . S
O371 C370 1.227 . S
N372 Co369 2.121 . S
N372 C374 1.375 . S
N372 C375 1.313 . S
C373 C374 1.338 . S
C373 N376 1.377 . S
C373 H393 0.930 . S
C374 N372 1.375 . S
C374 C373 1.338 . S
C374 H378 0.931 . S
C375 N372 1.313 . S
C375 N376 1.344 . S
C375 H379 0.930 . S
N376 C373 1.377 . S
N376 C375 1.344 . S
O377 Co369 2.055 . S
O377 C381 1.253 . S
H378 C374 0.931 . S
H379 C375 0.930 . S
O380 Co369 2.039 . S
O380 C370 1.265 . S
C381 O377 1.253 . S
C381 O382 1.227 . S
O382 C381 1.227 . S
N383 Co369 2.140 . S
N383 C386 1.346 . S
N383 C387 1.345 . S
C384 C385 1.387 . S
C384 C388 1.391 . S
C385 C384 1.387 . S
C385 C386 1.369 . S
C385 H394 0.929 . S
C386 N383 1.346 . S
C386 C385 1.369 . S
C386 H389 0.928 . S
C387 N383 1.345 . S
C387 C388 1.371 . S
C387 H390 0.931 . S
C388 C384 1.391 . S
C388 C387 1.371 . S
C388 H395 0.930 . S
H389 C386 0.928 . S
H390 C387 0.931 . S
H391 C367 0.930 . S
H392 C364 0.930 . S
H393 C373 0.930 . S
H394 C385 0.929 . S
H395 C388 0.930 . S
C396 C397 1.387 . S
C396 H400 0.950 . S
C396 C405 1.390 . S
C397 C396 1.387 . S
C397 C399 1.387 1_455 S
H398 C405 0.950 . S
C399 C397 1.387 1_655 S
C399 C401 1.390 . S
C399 H403 0.950 . S
H400 C396 0.950 . S
C401 C399 1.390 . S
C401 C402 1.387 . S
C401 H404 0.950 . S
C402 C401 1.387 . S
C402 C405 1.387 1_655 S
H403 C399 0.950 . S
H404 C401 0.950 . S
C405 C396 1.390 . S
C405 H398 0.950 . S
C405 C402 1.387 1_455 S
C406 C407 1.387 . S
C406 H410 0.950 . S
C406 C415 1.390 1_546 S
C407 C406 1.387 . S
C407 C409 1.387 . S
H408 C415 0.950 . S
C409 C407 1.387 . S
C409 C411 1.390 1_546 S
C409 H413 0.950 . S
H410 C406 0.950 . S
C411 C409 1.390 1_564 S
C411 C412 1.387 . S
C411 H414 0.950 . S
C412 C411 1.387 . S
C412 C415 1.387 . S
H413 C409 0.950 . S
H414 C411 0.950 . S
C415 C406 1.390 1_564 S
C415 H408 0.950 . S
C415 C412 1.387 . S
C416 C417 1.387 . S
C416 H420 0.950 . S
C416 C425 1.390 . S
C417 C416 1.387 . S
C417 C419 1.387 . S
H418 C425 0.950 . S
C419 C417 1.387 . S
C419 C421 1.390 . S
C419 H423 0.950 . S
H420 C416 0.950 . S
C421 C419 1.390 . S
C421 C422 1.387 . S
C421 H424 0.950 . S
C422 C421 1.387 . S
C422 C425 1.387 . S
H423 C419 0.950 . S
H424 C421 0.950 . S
C425 C416 1.390 . S
C425 H418 0.950 . S
C425 C422 1.387 . S
C426 C427 1.387 1_655 S
C426 H430 0.950 . S
C426 C435 1.390 . S
C427 C426 1.387 1_455 S
C427 C429 1.387 1_554 S
H428 C435 0.950 . S
C429 C427 1.387 1_556 S
C429 C431 1.390 . S
C429 H433 0.950 . S
H430 C426 0.950 . S
C431 C429 1.390 . S
C431 C432 1.387 1_455 S
C431 H434 0.950 . S
C432 C431 1.387 1_655 S
C432 C435 1.387 1_556 S
H433 C429 0.950 . S
H434 C431 0.950 . S
C435 C426 1.390 . S
C435 H428 0.950 . S
C435 C432 1.387 1_554 S
C436 C437 1.387 . S
C436 H440 0.950 . S
C436 C445 1.390 1_545 S
C437 C436 1.387 . S
C437 C439 1.387 . S
H438 C445 0.950 . S
C439 C437 1.387 . S
C439 C441 1.390 1_545 S
C439 H443 0.950 . S
H440 C436 0.950 . S
C441 C439 1.390 1_565 S
C441 C442 1.387 . S
C441 H444 0.950 . S
C442 C441 1.387 . S
C442 C445 1.387 . S
H443 C439 0.950 . S
H444 C441 0.950 . S
C445 C436 1.390 1_565 S
C445 H438 0.950 . S
C445 C442 1.387 . S
C446 C447 1.387 . S
C446 H450 0.950 . S
C446 C455 1.390 . S
C447 C446 1.387 . S
C447 C449 1.387 1_556 S
H448 C455 0.950 . S
C449 C447 1.387 1_554 S
C449 C451 1.390 . S
C449 H453 0.950 . S
H450 C446 0.950 . S
C451 C449 1.390 . S
C451 C452 1.387 . S
C451 H454 0.950 . S
C452 C451 1.387 . S
C452 C455 1.387 1_554 S
H453 C449 0.950 . S
H454 C451 0.950 . S
C455 C446 1.390 . S
C455 H448 0.950 . S
C455 C452 1.387 1_556 S
C456 C457 1.387 . S
C456 H460 0.950 . S
C456 C465 1.390 . S
C457 C456 1.387 . S
C457 C459 1.387 . S
H458 C465 0.950 . S
C459 C457 1.387 . S
C459 C461 1.390 . S
C459 H463 0.950 . S
H460 C456 0.950 . S
C461 C459 1.390 . S
C461 C462 1.387 . S
C461 H464 0.950 . S
C462 C461 1.387 . S
C462 C465 1.387 . S
H463 C459 0.950 . S
H464 C461 0.950 . S
C465 C456 1.390 . S
C465 H458 0.950 . S
C465 C462 1.387 . S
C466 C467 1.387 . S
C466 H470 0.950 . S
C466 C475 1.390 . S
C467 C466 1.387 . S
C467 C469 1.387 . S
H468 C475 0.950 . S
C469 C467 1.387 . S
C469 C471 1.390 . S
C469 H473 0.950 . S
H470 C466 0.950 . S
C471 C469 1.390 . S
C471 C472 1.387 . S
C471 H474 0.950 . S
C472 C471 1.387 . S
C472 C475 1.387 . S
H473 C469 0.950 . S
H474 C471 0.950 . S
C475 C466 1.390 . S
C475 H468 0.950 . S
C475 C472 1.387 . S
C476 C477 1.387 . S
C476 H480 0.950 . S
C476 C485 1.390 . S
C477 C476 1.387 . S
C477 C479 1.387 . S
H478 C485 0.950 . S
C479 C477 1.387 . S
C479 C481 1.390 . S
C479 H483 0.950 . S
H480 C476 0.950 . S
C481 C479 1.390 . S
C481 C482 1.387 . S
C481 H484 0.950 . S
C482 C481 1.387 . S
C482 C485 1.387 . S
H483 C479 0.950 . S
H484 C481 0.950 . S
C485 C476 1.390 . S
C485 H478 0.950 . S
C485 C482 1.387 . S
C486 C487 1.387 . S
C486 H490 0.950 . S
C486 C495 1.390 . S
C487 C486 1.387 . S
C487 C489 1.387 . S
H488 C495 0.950 . S
C489 C487 1.387 . S
C489 C491 1.390 . S
C489 H493 0.950 . S
H490 C486 0.950 . S
C491 C489 1.390 . S
C491 C492 1.387 . S
C491 H494 0.950 . S
C492 C491 1.387 . S
C492 C495 1.387 . S
H493 C489 0.950 . S
H494 C491 0.950 . S
C495 C486 1.390 . S
C495 H488 0.950 . S
C495 C492 1.387 . S
C496 C497 1.387 . S
C496 H500 0.950 . S
C496 C505 1.390 . S
C497 C496 1.387 . S
C497 C499 1.387 . S
H498 C505 0.950 . S
C499 C497 1.387 . S
C499 C501 1.390 . S
C499 H503 0.950 . S
H500 C496 0.950 . S
C501 C499 1.390 . S
C501 C502 1.387 . S
C501 H504 0.950 . S
C502 C501 1.387 . S
C502 C505 1.387 . S
H503 C499 0.950 . S
H504 C501 0.950 . S
C505 C496 1.390 . S
C505 H498 0.950 . S
C505 C502 1.387 . S
C506 C507 1.387 . S
C506 H510 0.950 . S
C506 C515 1.390 . S
C507 C506 1.387 . S
C507 C509 1.387 . S
H508 C515 0.950 . S
C509 C507 1.387 . S
C509 C511 1.390 . S
C509 H513 0.950 . S
H510 C506 0.950 . S
C511 C509 1.390 . S
C511 C512 1.387 . S
C511 H514 0.950 . S
C512 C511 1.387 . S
C512 C515 1.387 . S
H513 C509 0.950 . S
H514 C511 0.950 . S
C515 C506 1.390 . S
C515 H508 0.950 . S
C515 C512 1.387 . S
C516 C517 1.387 . S
C516 H520 0.950 . S
C516 C525 1.390 . S
C517 C516 1.387 . S
C517 C519 1.387 . S
H518 C525 0.950 . S
C519 C517 1.387 . S
C519 C521 1.390 . S
C519 H523 0.950 . S
H520 C516 0.950 . S
C521 C519 1.390 . S
C521 C522 1.387 . S
C521 H524 0.950 . S
C522 C521 1.387 . S
C522 C525 1.387 . S
H523 C519 0.950 . S
H524 C521 0.950 . S
C525 C516 1.390 . S
C525 H518 0.950 . S
C525 C522 1.387 . S
C526 C527 1.387 . S
C526 H530 0.950 . S
C526 C535 1.390 . S
C527 C526 1.387 . S
C527 C529 1.387 . S
H528 C535 0.950 . S
C529 C527 1.387 . S
C529 C531 1.390 . S
C529 H533 0.950 . S
H530 C526 0.950 . S
C531 C529 1.390 . S
C531 C532 1.387 . S
C531 H534 0.950 . S
C532 C531 1.387 . S
C532 C535 1.387 . S
H533 C529 0.950 . S
H534 C531 0.950 . S
C535 C526 1.390 . S
C535 H528 0.950 . S
C535 C532 1.387 . S
C536 C537 1.387 . S
C536 H540 0.950 . S
C536 C545 1.390 . S
C537 C536 1.387 . S
C537 C539 1.387 . S
H538 C545 0.950 . S
C539 C537 1.387 . S
C539 C541 1.390 . S
C539 H543 0.950 . S
H540 C536 0.950 . S
C541 C539 1.390 . S
C541 C542 1.387 . S
C541 H544 0.950 . S
C542 C541 1.387 . S
C542 C545 1.387 . S
H543 C539 0.950 . S
H544 C541 0.950 . S
C545 C536 1.390 . S
C545 H538 0.950 . S
C545 C542 1.387 . S
C546 C547 1.387 . S
C546 H550 0.950 . S
C546 C555 1.390 . S
C547 C546 1.387 . S
C547 C549 1.387 . S
H548 C555 0.950 . S
C549 C547 1.387 . S
C549 C551 1.390 . S
C549 H553 0.950 . S
H550 C546 0.950 . S
C551 C549 1.390 . S
C551 C552 1.387 . S
C551 H554 0.950 . S
C552 C551 1.387 . S
C552 C555 1.387 . S
H553 C549 0.950 . S
H554 C551 0.950 . S
C555 C546 1.390 . S
C555 H548 0.950 . S
C555 C552 1.387 . S
C556 C557 1.387 . S
C556 H560 0.950 . S
C556 C565 1.390 . S
C557 C556 1.387 . S
C557 C559 1.387 . S
H558 C565 0.950 . S
C559 C557 1.387 . S
C559 C561 1.390 . S
C559 H563 0.950 . S
H560 C556 0.950 . S
C561 C559 1.390 . S
C561 C562 1.387 . S
C561 H564 0.950 . S
C562 C561 1.387 . S
C562 C565 1.387 . S
H563 C559 0.950 . S
H564 C561 0.950 . S
C565 C556 1.390 . S
C565 H558 0.950 . S
C565 C562 1.387 . S
C566 C567 1.387 . S
C566 H570 0.950 . S
C566 C575 1.390 . S
C567 C566 1.387 . S
C567 C569 1.387 . S
H568 C575 0.950 . S
C569 C567 1.387 . S
C569 C571 1.390 . S
C569 H573 0.950 . S
H570 C566 0.950 . S
C571 C569 1.390 . S
C571 C572 1.387 . S
C571 H574 0.950 . S
C572 C571 1.387 . S
C572 C575 1.387 . S
H573 C569 0.950 . S
H574 C571 0.950 . S
C575 C566 1.390 . S
C575 H568 0.950 . S
C575 C572 1.387 . S
C576 C577 1.387 . S
C576 H580 0.950 . S
C576 C585 1.390 . S
C577 C576 1.387 . S
C577 C579 1.387 . S
H578 C585 0.950 . S
C579 C577 1.387 . S
C579 C581 1.390 . S
C579 H583 0.950 . S
H580 C576 0.950 . S
C581 C579 1.390 . S
C581 C582 1.387 . S
C581 H584 0.950 . S
C582 C581 1.387 . S
C582 C585 1.387 . S
H583 C579 0.950 . S
H584 C581 0.950 . S
C585 C576 1.390 . S
C585 H578 0.950 . S
C585 C582 1.387 . S
C586 C587 1.387 . S
C586 H590 0.950 . S
C586 C595 1.390 . S
C587 C586 1.387 . S
C587 C589 1.387 . S
H588 C595 0.950 . S
C589 C587 1.387 . S
C589 C591 1.390 . S
C589 H593 0.950 . S
H590 C586 0.950 . S
C591 C589 1.390 . S
C591 C592 1.387 . S
C591 H594 0.950 . S
C592 C591 1.387 . S
C592 C595 1.387 . S
H593 C589 0.950 . S
H594 C591 0.950 . S
C595 C586 1.390 . S
C595 H588 0.950 . S
C595 C592 1.387 . S
C596 C597 1.387 . S
C596 H600 0.950 . S
C596 C605 1.390 . S
C597 C596 1.387 . S
C597 C599 1.387 . S
H598 C605 0.950 . S
C599 C597 1.387 . S
C599 C601 1.390 . S
C599 H603 0.950 . S
H600 C596 0.950 . S
C601 C599 1.390 . S
C601 C602 1.387 . S
C601 H604 0.950 . S
C602 C601 1.387 . S
C602 C605 1.387 . S
H603 C599 0.950 . S
H604 C601 0.950 . S
C605 C596 1.390 . S
C605 H598 0.950 . S
C605 C602 1.387 . S
C606 C607 1.387 . S
C606 H610 0.950 . S
C606 C615 1.390 . S
C607 C606 1.387 . S
C607 C609 1.387 . S
H608 C615 0.950 . S
C609 C607 1.387 . S
C609 C611 1.390 . S
C609 H613 0.950 . S
H610 C606 0.950 . S
C611 C609 1.390 . S
C611 C612 1.387 . S
C611 H614 0.950 . S
C612 C611 1.387 . S
C612 C615 1.387 . S
H613 C609 0.950 . S
H614 C611 0.950 . S
C615 C606 1.390 . S
C615 H608 0.950 . S
C615 C612 1.387 . S
C616 C617 1.387 . S
C616 H620 0.950 . S
C616 C625 1.390 . S
C617 C616 1.387 . S
C617 C619 1.387 . S
H618 C625 0.950 . S
C619 C617 1.387 . S
C619 C621 1.390 . S
C619 H623 0.950 . S
H620 C616 0.950 . S
C621 C619 1.390 . S
C621 C622 1.387 . S
C621 H624 0.950 . S
C622 C621 1.387 . S
C622 C625 1.387 . S
H623 C619 0.950 . S
H624 C621 0.950 . S
C625 C616 1.390 . S
C625 H618 0.950 . S
C625 C622 1.387 . S
C626 C627 1.387 . S
C626 H630 0.950 . S
C626 C635 1.390 . S
C627 C626 1.387 . S
C627 C629 1.387 . S
H628 C635 0.950 . S
C629 C627 1.387 . S
C629 C631 1.390 . S
C629 H633 0.950 . S
H630 C626 0.950 . S
C631 C629 1.390 . S
C631 C632 1.387 . S
C631 H634 0.950 . S
C632 C631 1.387 . S
C632 C635 1.387 . S
H633 C629 0.950 . S
H634 C631 0.950 . S
C635 C626 1.390 . S
C635 H628 0.950 . S
C635 C632 1.387 . S
C636 C637 1.387 . S
C636 H640 0.950 . S
C636 C645 1.390 . S
C637 C636 1.387 . S
C637 C639 1.387 . S
H638 C645 0.950 . S
C639 C637 1.387 . S
C639 C641 1.390 . S
C639 H643 0.950 . S
H640 C636 0.950 . S
C641 C639 1.390 . S
C641 C642 1.387 . S
C641 H644 0.950 . S
C642 C641 1.387 . S
C642 C645 1.387 . S
H643 C639 0.950 . S
H644 C641 0.950 . S
C645 C636 1.390 . S
C645 H638 0.950 . S
C645 C642 1.387 . S
C646 C647 1.387 . S
C646 H650 0.950 . S
C646 C655 1.390 . S
C647 C646 1.387 . S
C647 C649 1.387 . S
H648 C655 0.950 . S
C649 C647 1.387 . S
C649 C651 1.390 . S
C649 H653 0.950 . S
H650 C646 0.950 . S
C651 C649 1.390 . S
C651 C652 1.387 . S
C651 H654 0.950 . S
C652 C651 1.387 . S
C652 C655 1.387 . S
H653 C649 0.950 . S
H654 C651 0.950 . S
C655 C646 1.390 . S
C655 H648 0.950 . S
C655 C652 1.387 . S
C656 C657 1.387 . S
C656 H660 0.950 . S
C656 C665 1.390 . S
C657 C656 1.387 . S
C657 C659 1.387 . S
H658 C665 0.950 . S
C659 C657 1.387 . S
C659 C661 1.390 . S
C659 H663 0.950 . S
H660 C656 0.950 . S
C661 C659 1.390 . S
C661 C662 1.387 . S
C661 H664 0.950 . S
C662 C661 1.387 . S
C662 C665 1.387 . S
H663 C659 0.950 . S
H664 C661 0.950 . S
C665 C656 1.390 . S
C665 H658 0.950 . S
C665 C662 1.387 . S
C666 C667 1.387 . S
C666 H670 0.950 . S
C666 C675 1.390 . S
C667 C666 1.387 . S
C667 C669 1.387 . S
H668 C675 0.950 . S
C669 C667 1.387 . S
C669 C671 1.390 . S
C669 H673 0.950 . S
H670 C666 0.950 . S
C671 C669 1.390 . S
C671 C672 1.387 . S
C671 H674 0.950 . S
C672 C671 1.387 . S
C672 C675 1.387 . S
H673 C669 0.950 . S
H674 C671 0.950 . S
C675 C666 1.390 . S
C675 H668 0.950 . S
C675 C672 1.387 . S
C676 C677 1.387 . S
C676 H680 0.950 . S
C676 C685 1.390 . S
C677 C676 1.387 . S
C677 C679 1.387 . S
H678 C685 0.950 . S
C679 C677 1.387 . S
C679 C681 1.390 . S
C679 H683 0.950 . S
H680 C676 0.950 . S
C681 C679 1.390 . S
C681 C682 1.387 . S
C681 H684 0.950 . S
C682 C681 1.387 . S
C682 C685 1.387 . S
H683 C679 0.950 . S
H684 C681 0.950 . S
C685 C676 1.390 . S
C685 H678 0.950 . S
C685 C682 1.387 . S
C686 C687 1.387 . S
C686 H690 0.950 . S
C686 C695 1.390 . S
C687 C686 1.387 . S
C687 C689 1.387 . S
H688 C695 0.950 . S
C689 C687 1.387 . S
C689 C691 1.390 . S
C689 H693 0.950 . S
H690 C686 0.950 . S
C691 C689 1.390 . S
C691 C692 1.387 . S
C691 H694 0.950 . S
C692 C691 1.387 . S
C692 C695 1.387 . S
H693 C689 0.950 . S
H694 C691 0.950 . S
C695 C686 1.390 . S
C695 H688 0.950 . S
C695 C692 1.387 . S
C397 C7 1.385 . S
C402 C370 1.383 . S
C407 C40 1.385 . S
C412 C205 1.385 . S
C417 C238 1.383 . S
C422 C73 1.386 . S
C427 C271 1.383 . S
C432 C106 1.385 . S
C437 C304 1.385 . S
C442 C139 1.385 . S
C447 C172 1.381 . S
C452 C337 1.383 . S
C457 C285 1.612 . S
C462 C21 1.612 . S
C467 C318 1.611 . S
C472 C54 1.611 . S
C477 C87 1.611 . S
C482 C351 1.611 . S
C487 C120 1.612 . S
C492 C384 1.611 . S
C497 C219 1.611 . S
C502 C153 1.611 . S
C507 C186 1.613 . S
C512 C252 1.612 . S
C517 N2 1.389 . S
C522 N13 1.391 1_556 S
C527 N46 1.391 . S
C532 N35 1.389 . S
C537 N68 1.389 . S
C542 N79 1.391 1_556 S
C547 N112 1.391 . S
C552 N101 1.390 . S
C557 N134 1.390 . S
C562 N145 1.391 1_556 S
C567 N178 1.390 . S
C572 N167 1.388 . S
C577 N211 1.389 . S
C582 N200 1.387 . S
C587 N233 1.388 . S
C592 N244 1.390 1_554 S
C597 N277 1.390 . S
C602 N266 1.388 . S
C607 N310 1.391 1_554 S
C612 N299 1.390 . S
C617 N332 1.388 . S
C622 N343 1.389 . S
C627 N365 1.389 . S
C632 N376 1.391 1_554 S
C637 C18 1.370 . S
C642 C348 1.370 . S
C647 C381 1.370 . S
C652 C51 1.370 . S
C657 C216 1.371 . S
C662 C84 1.370 . S
C667 C117 1.370 . S
C672 C249 1.370 . S
C677 C150 1.369 . S
C682 C282 1.370 . S
C687 C183 1.369 . S
C692 C315 1.371 . S
