# Generated by pormake.
# Topology wkf, (6)-cn, num edge types: 1
# Building blocks:
#     Node 0, Type 0, BuildingBlock: KUMBUR_clean_sbu_0, # of connection points: 6
#     Node 1, Type 0, BuildingBlock: KUMBUR_clean_sbu_0, # of connection points: 6
#     Node 2, Type 0, BuildingBlock: KUMBUR_clean_sbu_0, # of connection points: 6
#     Node 3, Type 0, BuildingBlock: KUMBUR_clean_sbu_0, # of connection points: 6
#     Node 4, Type 0, BuildingBlock: KUMBUR_clean_sbu_0, # of connection points: 6
#     Node 5, Type 0, BuildingBlock: KUMBUR_clean_sbu_0, # of connection points: 6
#     Node 6, Type 0, BuildingBlock: KUMBUR_clean_sbu_0, # of connection points: 6
#     Node 7, Type 0, BuildingBlock: KUMBUR_clean_sbu_0, # of connection points: 6
#     Node 8, Type 0, BuildingBlock: KUMBUR_clean_sbu_0, # of connection points: 6
#     Node 9, Type 0, BuildingBlock: KUMBUR_clean_sbu_0, # of connection points: 6
#     Node 10, Type 0, BuildingBlock: KUMBUR_clean_sbu_0, # of connection points: 6
#     Node 11, Type 0, BuildingBlock: KUMBUR_clean_sbu_0, # of connection points: 6
#     Edge 12, Type (0, 0), BuildingBlock: KIFKEQ_clean_linker_1, # of connection points: 2
#     Edge 13, Type (0, 0), BuildingBlock: KIFKEQ_clean_linker_1, # of connection points: 2
#     Edge 14, Type (0, 0), BuildingBlock: KIFKEQ_clean_linker_1, # of connection points: 2
#     Edge 15, Type (0, 0), BuildingBlock: KIFKEQ_clean_linker_1, # of connection points: 2
#     Edge 16, Type (0, 0), BuildingBlock: KIFKEQ_clean_linker_1, # of connection points: 2
#     Edge 17, Type (0, 0), BuildingBlock: KIFKEQ_clean_linker_1, # of connection points: 2
#     Edge 18, Type (0, 0), BuildingBlock: KIFKEQ_clean_linker_1, # of connection points: 2
#     Edge 19, Type (0, 0), BuildingBlock: KIFKEQ_clean_linker_1, # of connection points: 2
#     Edge 20, Type (0, 0), BuildingBlock: KIFKEQ_clean_linker_1, # of connection points: 2
#     Edge 21, Type (0, 0), BuildingBlock: KIFKEQ_clean_linker_1, # of connection points: 2
#     Edge 22, Type (0, 0), BuildingBlock: KIFKEQ_clean_linker_1, # of connection points: 2
#     Edge 23, Type (0, 0), BuildingBlock: KIFKEQ_clean_linker_1, # of connection points: 2
#     Edge 24, Type (0, 0), BuildingBlock: KIFKEQ_clean_linker_1, # of connection points: 2
#     Edge 25, Type (0, 0), BuildingBlock: KIFKEQ_clean_linker_1, # of connection points: 2
#     Edge 26, Type (0, 0), BuildingBlock: KIFKEQ_clean_linker_1, # of connection points: 2
#     Edge 27, Type (0, 0), BuildingBlock: KIFKEQ_clean_linker_1, # of connection points: 2
#     Edge 28, Type (0, 0), BuildingBlock: KIFKEQ_clean_linker_1, # of connection points: 2
#     Edge 29, Type (0, 0), BuildingBlock: KIFKEQ_clean_linker_1, # of connection points: 2
#     Edge 30, Type (0, 0), BuildingBlock: KIFKEQ_clean_linker_1, # of connection points: 2
#     Edge 31, Type (0, 0), BuildingBlock: KIFKEQ_clean_linker_1, # of connection points: 2
#     Edge 32, Type (0, 0), BuildingBlock: KIFKEQ_clean_linker_1, # of connection points: 2
#     Edge 33, Type (0, 0), BuildingBlock: KIFKEQ_clean_linker_1, # of connection points: 2
#     Edge 34, Type (0, 0), BuildingBlock: KIFKEQ_clean_linker_1, # of connection points: 2
#     Edge 35, Type (0, 0), BuildingBlock: KIFKEQ_clean_linker_1, # of connection points: 2
#     Edge 36, Type (0, 0), BuildingBlock: KIFKEQ_clean_linker_1, # of connection points: 2
#     Edge 37, Type (0, 0), BuildingBlock: KIFKEQ_clean_linker_1, # of connection points: 2
#     Edge 38, Type (0, 0), BuildingBlock: KIFKEQ_clean_linker_1, # of connection points: 2
#     Edge 39, Type (0, 0), BuildingBlock: KIFKEQ_clean_linker_1, # of connection points: 2
#     Edge 40, Type (0, 0), BuildingBlock: KIFKEQ_clean_linker_1, # of connection points: 2
#     Edge 41, Type (0, 0), BuildingBlock: KIFKEQ_clean_linker_1, # of connection points: 2
#     Edge 42, Type (0, 0), BuildingBlock: KIFKEQ_clean_linker_1, # of connection points: 2
#     Edge 43, Type (0, 0), BuildingBlock: KIFKEQ_clean_linker_1, # of connection points: 2
#     Edge 44, Type (0, 0), BuildingBlock: KIFKEQ_clean_linker_1, # of connection points: 2
#     Edge 45, Type (0, 0), BuildingBlock: KIFKEQ_clean_linker_1, # of connection points: 2
#     Edge 46, Type (0, 0), BuildingBlock: KIFKEQ_clean_linker_1, # of connection points: 2
#     Edge 47, Type (0, 0), BuildingBlock: KIFKEQ_clean_linker_1, # of connection points: 2
# Relax obj value: 0.166
# Max RMSD: 0.269
# Mean RMSD: 0.261
data_MOF--net-wkf--node1-KUMBUR_clean_sbu_0--edge1-KIFKEQ_clean_linker_1
_symmetry_space_group_name_H-M    P1
_symmetry_Int_Tables_number       1
_symmetry_cell_setting            triclinic
loop_
_symmetry_equiv_pos_as_xyz
'x, y, z'
_cell_length_a     30.208625
_cell_length_b     30.066176
_cell_length_c     82.162126
_cell_angle_alpha  90.046822
_cell_angle_beta   90.013901
_cell_angle_gamma 119.61164
loop_
_atom_site_label
_atom_site_type_symbol
_atom_site_fract_x
_atom_site_fract_y
_atom_site_fract_z
_atom_type_partial_charge
Tb0 Tb 0.55647 1.01694 0.37036 0.0
C1 C 0.46414 1.04159 0.3111 0.0
C2 C 0.41378 0.0832 0.31562 0.0
C3 C 0.45329 0.08988 0.28926 0.0
C4 C 0.43359 1.05227 0.32113 0.0
C5 C 0.47498 0.06101 0.29513 0.0
C6 C 0.42284 0.10104 0.2995 0.0
C7 C 0.53077 1.02522 0.29244 0.0
N8 N 0.4864 1.01567 0.31757 0.0
C9 C 0.51914 1.007 0.30842 0.0
C10 C 0.50842 1.05208 0.28573 0.0
Tb11 Tb 0.45636 0.98073 0.34273 0.0
N12 N 0.42807 1.03652 0.33689 0.0
C13 C 0.40172 1.04902 0.34769 0.0
C14 C 0.38702 0.09662 0.32667 0.0
C15 C 0.38119 0.07965 0.34279 0.0
H16 H 0.53676 0.98626 0.31329 0.0
H17 H 0.36014 0.08941 0.35136 0.0
H18 H 0.40759 0.12456 0.29495 0.0
H19 H 0.55695 1.01843 0.28529 0.0
H20 H 0.39463 1.03344 0.35983 0.0
H21 H 0.65402 0.07908 0.31179 0.0
H22 H 0.37116 0.1204 0.32293 0.0
H23 H 0.55417 0.92992 0.39608 0.0
H24 H 0.58817 0.0628 0.33147 0.0
H25 H 0.60327 0.88691 0.40135 0.0
H26 H 0.46092 0.10489 0.27698 0.0
H27 H 0.71511 1.04863 0.31693 0.0
H28 H 0.74153 0.99761 0.33434 0.0
H29 H 0.5178 0.06636 0.27338 0.0
H30 H 0.72626 0.9433 0.35839 0.0
N31 N 0.61397 1.02986 0.34951 0.0
C32 C 0.61589 1.05244 0.33484 0.0
C33 C 0.687 1.04306 0.32608 0.0
C34 C 0.68235 1.01582 0.3403 0.0
C35 C 0.65283 0.06048 0.32319 0.0
C36 C 0.64481 1.00944 0.35181 0.0
H37 H 0.6742 0.901 0.38319 0.0
N38 N 0.59656 0.96983 0.37493 0.0
C39 C 0.61295 0.91259 0.39108 0.0
C40 C 0.63573 0.97828 0.36503 0.0
C41 C 0.58515 0.93751 0.38798 0.0
C42 C 0.65299 0.92072 0.38085 0.0
C43 C 0.66467 0.95363 0.36757 0.0
O44 O 0.54478 1.00417 0.39534 0.0
O45 O 0.48216 1.01139 0.3673 0.0
O46 O 0.50756 0.06847 0.34108 0.0
O47 O 0.57886 0.09311 0.3578 0.0
O48 O 0.53927 0.07596 0.37786 0.0
O49 O 0.61831 0.06046 0.38602 0.0
O50 O 0.409 0.9242 0.32564 0.0
O51 O 0.51581 0.9654 0.35121 0.0
O52 O 0.49294 0.94124 0.37835 0.0
O53 O 0.42258 0.93863 0.36595 0.0
O54 O 0.47807 0.9246 0.33223 0.0
O55 O 0.3766 0.94181 0.34611 0.0
C56 C 0.49169 1.05355 0.37413 0.0
C57 C 0.58946 0.07876 0.41093 0.0
C58 C 0.63026 0.16446 0.42269 0.0
C59 C 0.62886 0.12958 0.41102 0.0
C60 C 0.58986 0.14862 0.43379 0.0
C61 C 0.54997 0.06319 0.42242 0.0
C62 C 0.54988 0.09821 0.43358 0.0
C63 C 0.55188 0.10542 0.34734 0.0
C64 C 0.58952 1.04207 0.39896 0.0
C65 C 0.70358 0.96176 0.35662 0.0
C66 C 0.71238 0.9928 0.34298 0.0
C67 C 0.51263 0.92902 0.34228 0.0
C68 C 0.32626 0.91493 0.32148 0.0
C69 C 0.30617 0.88059 0.30796 0.0
C70 C 0.26523 0.87778 0.29851 0.0
C71 C 0.24647 0.91089 0.30243 0.0
C72 C 0.30479 0.94595 0.32509 0.0
C73 C 0.26611 0.94456 0.31551 0.0
C74 C 0.44266 0.92103 0.37701 0.0
C75 C 0.36693 0.91643 0.33244 0.0
H76 H 0.65904 0.14189 0.40209 0.0
H77 H 0.59001 0.17452 0.44298 0.0
H78 H 0.519 1.02404 0.42273 0.0
H79 H 0.51917 0.08598 0.44229 0.0
H80 H 0.32099 0.8552 0.30518 0.0
H81 H 0.21574 0.9102 0.29542 0.0
H82 H 0.31708 0.9709 0.33554 0.0
H83 H 0.25049 0.96913 0.31847 0.0
Tb84 Tb 0.59643 0.53364 0.53706 0.0
C85 C 0.49283 0.44577 0.47702 0.0
C86 C 0.40044 0.39931 0.47854 0.0
C87 C 0.44252 0.4399 0.45318 0.0
C88 C 0.4484 0.41614 0.48573 0.0
C89 C 0.4903 0.45855 0.46069 0.0
C90 C 0.3977 0.41039 0.46208 0.0
C91 C 0.58212 0.50947 0.46077 0.0
N92 N 0.53828 0.46446 0.48492 0.0
C93 C 0.58273 0.49575 0.477 0.0
C94 C 0.53579 0.49057 0.45254 0.0
Tb95 Tb 0.53307 0.43162 0.51042 0.0
N96 N 0.45284 0.40891 0.50187 0.0
C97 C 0.41071 0.38389 0.51147 0.0
C98 C 0.35696 0.37366 0.4883 0.0
C99 C 0.36215 0.36623 0.50485 0.0
H100 H 0.61891 0.51068 0.48306 0.0
H101 H 0.32875 0.34635 0.51245 0.0
H102 H 0.36117 0.39748 0.45626 0.0
H103 H 0.61746 0.53452 0.45458 0.0
H104 H 0.41474 0.37651 0.52409 0.0
H105 H 0.62091 0.63508 0.47962 0.0
H106 H 0.31932 0.36012 0.48324 0.0
H107 H 0.68748 0.52662 0.55833 0.0
H108 H 0.57788 0.56346 0.49821 0.0
H109 H 0.77929 0.57834 0.56233 0.0
H110 H 0.43981 0.44905 0.44059 0.0
H111 H 0.70857 0.70368 0.48551 0.0
H112 H 0.78717 0.7343 0.50256 0.0
H113 H 0.53554 0.50142 0.43998 0.0
H114 H 0.83145 0.71709 0.5247 0.0
N115 N 0.63602 0.5932 0.51636 0.0
C116 C 0.61413 0.59412 0.50184 0.0
C117 C 0.68876 0.67297 0.49419 0.0
C118 C 0.71341 0.6689 0.508 0.0
C119 C 0.63933 0.63445 0.49085 0.0
C120 C 0.68581 0.62784 0.51884 0.0
H121 H 0.82929 0.65767 0.54651 0.0
N122 N 0.68371 0.57442 0.53971 0.0
C123 C 0.76056 0.58995 0.55343 0.0
C124 C 0.71076 0.61783 0.531 0.0
C125 C 0.70806 0.56024 0.55091 0.0
C126 C 0.78857 0.63487 0.54459 0.0
C127 C 0.76385 0.64913 0.53309 0.0
O128 O 0.6049 0.52513 0.56195 0.0
O129 O 0.52879 0.45852 0.53478 0.0
O130 O 0.49451 0.48181 0.5089 0.0
O131 O 0.54016 0.55417 0.52531 0.0
O132 O 0.52104 0.51538 0.54547 0.0
O133 O 0.61424 0.59625 0.55246 0.0
O134 O 0.53719 0.37984 0.49375 0.0
O135 O 0.60775 0.4959 0.51687 0.0
O136 O 0.60908 0.46998 0.54536 0.0
O137 O 0.54089 0.3988 0.53392 0.0
O138 O 0.61022 0.4432 0.50328 0.0
O139 O 0.48887 0.35218 0.5147 0.0
C140 C 0.49628 0.46746 0.54189 0.0
C141 C 0.57266 0.56653 0.57809 0.0
C142 C 0.51138 0.59093 0.58809 0.0
C143 C 0.54269 0.58961 0.57562 0.0
C144 C 0.50625 0.56336 0.6025 0.0
C145 C 0.56728 0.53975 0.5926 0.0
C146 C 0.5334 0.53731 0.60457 0.0
C147 C 0.50088 0.5263 0.51505 0.0
C148 C 0.60863 0.56896 0.5655 0.0
C149 C 0.79079 0.69235 0.52319 0.0
C150 C 0.76556 0.70225 0.51063 0.0
C151 C 0.64035 0.48455 0.51096 0.0
C152 C 0.4618 0.29778 0.49085 0.0
C153 C 0.47347 0.27456 0.47753 0.0
C154 C 0.4339 0.233 0.46865 0.0
C155 C 0.38316 0.21743 0.47289 0.0
C156 C 0.41039 0.27841 0.49499 0.0
C157 C 0.37171 0.23965 0.4859 0.0
C158 C 0.57934 0.41945 0.54456 0.0
C159 C 0.50249 0.33937 0.50116 0.0
H160 H 0.5449 0.60771 0.56405 0.0
H161 H 0.4832 0.56357 0.61254 0.0
H162 H 0.58919 0.5206 0.59464 0.0
H163 H 0.52946 0.51659 0.61573 0.0
H164 H 0.51288 0.2876 0.47448 0.0
H165 H 0.35176 0.18735 0.46618 0.0
H166 H 0.39964 0.29252 0.50547 0.0
H167 H 0.33235 0.22607 0.48914 0.0
Tb168 Tb 0.11963 0.57229 0.70299 0.0
C169 C 0.10742 0.46521 0.64249 0.0
C170 C 1.06835 0.37276 0.64455 0.0
C171 C 1.06564 0.41171 0.61892 0.0
C172 C 0.09621 0.42182 0.65148 0.0
C173 C 0.09131 0.46042 0.62617 0.0
C174 C 1.05419 0.36798 0.62809 0.0
C175 C 0.12365 0.55166 0.62578 0.0
N176 N 0.13109 0.51158 0.65011 0.0
C177 C 0.13888 0.55455 0.64201 0.0
C178 C 0.10023 0.50454 0.61777 0.0
Tb179 Tb 0.16002 0.50996 0.67582 0.0
N180 N 0.10808 0.4279 0.66759 0.0
C181 C 0.09356 0.38657 0.67751 0.0
C182 C 1.05389 0.33007 0.65457 0.0
C183 C 1.06615 0.33701 0.67114 0.0
H184 H 0.15678 0.59141 0.64785 0.0
H185 H 1.05487 0.30424 0.67898 0.0
H186 H 1.03309 0.3306 0.62246 0.0
H187 H 0.13005 0.5859 0.61945 0.0
H188 H 0.10408 0.3921 0.69023 0.0
H189 H 1.05777 0.60513 0.64444 0.0
H190 H 1.03241 0.29164 0.64971 0.0
H191 H 0.19922 0.65458 0.73083 0.0
H192 H 1.06576 0.55369 0.66588 0.0
H193 H 0.24754 0.74754 0.7349 0.0
H194 H 1.05332 0.40733 0.60634 0.0
H195 H 0.10164 0.69927 0.64696 0.0
H196 H 0.15882 0.77781 0.66308 0.0
H197 H 0.08835 0.50251 0.60522 0.0
H198 H 0.21066 0.8165 0.68757 0.0
N199 N 0.11171 0.61671 0.68142 0.0
C200 C 0.0838 0.59414 0.66773 0.0
C201 C 0.10453 0.67659 0.65671 0.0
C202 C 0.13345 0.69978 0.67061 0.0
C203 C 1.07965 0.62352 0.65527 0.0
C204 C 0.13606 0.66844 0.68294 0.0
H205 H 0.244 0.8056 0.71432 0.0
N206 N 0.16862 0.65877 0.7078 0.0
C207 C 0.22473 0.73197 0.72404 0.0
C208 C 0.16533 0.69017 0.69662 0.0
C209 C 0.19742 0.67907 0.72156 0.0
C210 C 0.22245 0.76459 0.71244 0.0
C211 C 0.19258 0.74389 0.69851 0.0
O212 O 0.1069 0.59112 0.72642 0.0
O213 O 0.11393 0.49912 0.69763 0.0
O214 O 1.07221 0.46644 0.67472 0.0
O215 O 1.04549 0.51001 0.69185 0.0
O216 O 0.12284 0.5211 0.72121 0.0
O217 O 1.04699 0.56175 0.70853 0.0
O218 O 0.21495 0.51141 0.65958 0.0
O219 O 0.1711 0.58426 0.68343 0.0
O220 O 0.19441 0.5876 0.71244 0.0
O221 O 0.20761 0.52743 0.6983 0.0
O222 O 0.21729 0.58706 0.66593 0.0
O223 O 0.1987 0.46988 0.68213 0.0
C224 C 0.11468 0.48309 0.712 0.0
C225 C 1.02493 0.53045 0.73552 0.0
C226 C 0.93912 0.46592 0.744 0.0
C227 C 0.97235 0.50255 0.7327 0.0
C228 C 0.96052 0.45529 0.7577 0.0
C229 C 1.0451 0.51903 0.74931 0.0
C230 C 1.01306 0.48111 0.76014 0.0
C231 C 1.03412 0.47127 0.68142 0.0
C232 C 1.0583 0.57091 0.72395 0.0
C233 C 0.18981 0.77521 0.68636 0.0
C234 C 0.16031 0.7532 0.67243 0.0
C235 C 0.21037 0.61705 0.67543 0.0
C236 C 0.2279 0.43903 0.65948 0.0
C237 C 0.26051 0.44957 0.64568 0.0
C238 C 0.26599 0.40992 0.63799 0.0
C239 C 0.23638 0.35977 0.64397 0.0
C240 C 0.20157 0.38868 0.66536 0.0
C241 C 0.20495 0.34947 0.65748 0.0
C242 C 0.21993 0.56248 0.71004 0.0
C243 C 0.22387 0.48067 0.66836 0.0
H244 H 0.95768 0.51043 0.72174 0.0
H245 H 0.93703 0.42847 0.76696 0.0
H246 H 0.08561 0.5393 0.75177 0.0
H247 H 1.02891 0.47261 0.77072 0.0
H248 H 0.28258 0.4885 0.64131 0.0
H249 H 0.23766 0.32799 0.63823 0.0
H250 H 0.17858 0.37929 0.67623 0.0
H251 H 0.18349 0.31073 0.66204 0.0
Tb252 Tb 0.60596 0.09784 0.87074 0.0
C253 C 0.68428 0.0783 0.8083 0.0
C254 C 0.73644 1.03742 0.80834 0.0
C255 C 0.68841 1.03371 0.78412 0.0
C256 C 0.71797 0.06667 0.81615 0.0
C257 C 0.66844 0.06106 0.79227 0.0
C258 C 0.72235 1.02194 0.79214 0.0
C259 C 0.61182 0.09608 0.79394 0.0
N260 N 0.66496 0.1039 0.81675 0.0
C261 C 0.62872 0.11249 0.80983 0.0
C262 C 0.63209 0.07073 0.78506 0.0
Tb263 Tb 0.70215 0.13409 0.84166 0.0
N264 N 0.72848 0.07996 0.83209 0.0
C265 C 0.75764 0.06569 0.84095 0.0
C266 C 0.7669 1.02308 0.81727 0.0
C267 C 0.77719 1.03692 0.83368 0.0
H268 H 0.61219 0.13168 0.81637 0.0
H269 H 0.80044 1.02574 0.84068 0.0
H270 H 0.73639 0.9997 0.78585 0.0
H271 H 0.58313 0.10307 0.78854 0.0
H272 H 0.76621 0.07722 0.85356 0.0
H273 H 0.49506 1.01836 0.81552 0.0
H274 H 0.78185 1.00054 0.81171 0.0
H275 H 0.61539 0.19302 0.89497 0.0
H276 H 0.56463 1.03831 0.83424 0.0
H277 H 0.57186 0.2426 0.89837 0.0
H278 H 0.67694 1.02048 0.77176 0.0
H279 H 0.43845 1.05471 0.81991 0.0
H280 H 0.41833 0.11344 0.83583 0.0
H281 H 0.61878 0.05802 0.77277 0.0
H282 H 0.44067 0.17616 0.85792 0.0
N283 N 0.54679 0.08242 0.85058 0.0
C284 C 0.53957 1.05273 0.83711 0.0
C285 C 0.46848 0.0626 0.82858 0.0
C286 C 0.47735 0.09508 0.84183 0.0
C287 C 0.50026 1.04198 0.82609 0.0
C288 C 0.51727 0.10439 0.85272 0.0
H289 H 0.49881 0.22576 0.88082 0.0
N290 N 0.57028 0.14958 0.87465 0.0
C291 C 0.55973 0.21392 0.88889 0.0
C292 C 0.52972 0.13951 0.86511 0.0
C293 C 0.58504 0.18606 0.88664 0.0
C294 C 0.51833 0.20405 0.87906 0.0
C295 C 0.50272 0.16645 0.86702 0.0
O296 O 0.57936 0.09485 0.8945 0.0
O297 O 0.67152 0.09032 0.86417 0.0
O298 O 0.65824 1.04585 0.84188 0.0
O299 O 0.5911 1.0215 0.86007 0.0
O300 O 0.66453 0.10394 0.88764 0.0
O301 O 0.55014 1.0265 0.88005 0.0
O302 O 0.7518 0.18614 0.82408 0.0
O303 O 0.63894 0.14415 0.84973 0.0
O304 O 0.66759 0.17412 0.87822 0.0
O305 O 0.7378 0.18376 0.86346 0.0
O306 O 0.68382 0.19453 0.83338 0.0
O307 O 0.78142 0.17247 0.84623 0.0
C308 C 0.69118 0.09247 0.87814 0.0
C309 C 0.56604 1.02007 0.90796 0.0
C310 C 0.5436 0.94295 0.92357 0.0
C311 C 0.53366 0.96801 0.91084 0.0
C312 C 0.58822 0.96971 0.93282 0.0
C313 C 0.60944 1.04705 0.91789 0.0
C314 C 0.62094 1.02164 0.92996 0.0
C315 C 0.61659 1.00864 0.84931 0.0
C316 C 0.55388 1.0453 0.89462 0.0
C317 C 0.46187 0.15598 0.8566 0.0
C318 C 0.44911 0.12023 0.84405 0.0
C319 C 0.64607 0.18523 0.84268 0.0
C320 C 0.83659 0.19897 0.82247 0.0
C321 C 0.85642 0.23099 0.80841 0.0
C322 C 0.90062 0.23659 0.80028 0.0
C323 C 0.92279 0.20805 0.80604 0.0
C324 C 0.86167 0.17303 0.82799 0.0
C325 C 0.90351 0.17674 0.81967 0.0
C326 C 0.71741 0.19831 0.87532 0.0
C327 C 0.79283 0.19592 0.83211 0.0
H328 H 0.49971 0.94724 0.90344 0.0
H329 H 0.59654 0.95115 0.9427 0.0
H330 H 0.63462 0.08772 0.91641 0.0
H331 H 0.65475 1.04254 0.93735 0.0
H332 H 0.83884 0.2528 0.80425 0.0
H333 H 0.9559 0.21052 0.80006 0.0
H334 H 0.84968 0.15039 0.83898 0.0
H335 H 0.92191 0.15596 0.82405 0.0
Tb336 Tb 0.56322 0.58081 0.03802 0.0
C337 C 0.66665 0.66605 0.9762 0.0
C338 C 0.75855 0.71983 0.97808 0.0
C339 C 0.71992 0.6749 0.95286 0.0
C340 C 0.70973 0.69943 0.98498 0.0
C341 C 0.6715 0.65265 0.96013 0.0
C342 C 0.76335 0.7084 0.96182 0.0
C343 C 0.581 0.59334 0.9601 0.0
N344 N 0.62061 0.64413 0.98387 0.0
C345 C 0.57805 0.60773 0.97609 0.0
C346 C 0.62777 0.61623 0.95202 0.0
Tb347 Tb 0.62192 0.67798 0.00901 0.0
N348 N 0.70369 0.70719 1.00094 0.0
C349 C 0.74477 0.73521 0.01072 0.0
C350 C 0.801 0.74931 0.98795 0.0
C351 C 0.79408 0.75663 1.00438 0.0
H352 H 0.54151 0.58938 0.98201 0.0
H353 H 0.82667 0.77913 0.01211 0.0
H354 H 0.80054 0.72403 0.95621 0.0
H355 H 0.5471 0.56457 0.954 0.0
H356 H 0.73924 0.7419 0.02329 0.0
H357 H 0.5267 0.47611 0.98116 0.0
H358 H 0.83925 0.76569 0.98311 0.0
H359 H 0.48239 0.58471 0.0653 0.0
H360 H 0.5789 0.53975 1.00133 0.0
H361 H 0.39029 0.54077 0.07007 0.0
H362 H 0.72434 0.66537 0.94047 0.0
H363 H 0.43352 0.42517 0.98479 0.0
H364 H 0.35653 0.40622 1.0013 0.0
H365 H 0.62985 0.60478 0.93966 0.0
H366 H 0.31943 0.42418 0.02533 0.0
N367 N 0.51765 0.52432 0.01745 0.0
C368 C 0.53908 0.51708 1.00376 0.0
C369 C 0.45664 0.4526 0.99403 0.0
C370 C 0.43449 0.46063 0.00782 0.0
C371 C 0.50917 0.48115 0.99197 0.0
C372 C 0.46637 0.49699 0.01947 0.0
H373 H 0.33162 0.47428 0.05091 0.0
N374 N 0.47727 0.54447 0.04327 0.0
C375 C 0.40524 0.53103 0.05951 0.0
C376 C 0.44551 0.50729 0.03287 0.0
C377 C 0.45768 0.5562 0.05663 0.0
C378 C 0.37229 0.49339 0.04874 0.0
C379 C 0.39219 0.48117 0.03519 0.0
O380 O 0.54534 0.55433 0.06199 0.0
O381 O 0.63535 0.64654 0.03135 0.0
O382 O 0.6654 0.63295 0.00863 0.0
O383 O 0.62405 0.56593 0.02693 0.0
O384 O 0.6154 0.63908 0.05498 0.0
O385 O 0.57716 0.52176 0.04566 0.0
O386 O 0.61863 0.72811 0.99162 0.0
O387 O 0.54894 0.61672 0.01774 0.0
O388 O 0.54797 0.64207 0.04614 0.0
O389 O 0.60636 0.7125 0.03088 0.0
O390 O 0.54421 0.65568 0.9991 0.0
O391 O 0.66042 0.7574 0.01394 0.0
C392 C 0.65264 0.66618 0.04534 0.0
C393 C 0.6057 0.53498 0.07307 0.0
C394 C 0.65894 0.50619 0.08654 0.0
C395 C 0.62287 0.49972 0.07459 0.0
C396 C 0.68004 0.55004 0.0964 0.0
C397 C 0.6257 0.57772 0.08355 0.0
C398 C 0.66326 0.58553 0.09491 0.0
C399 C 0.66151 0.59119 0.01601 0.0
C400 C 0.56639 0.52598 0.06075 0.0
C401 C 0.36041 0.44444 0.02379 0.0
C402 C 0.38152 0.43421 0.01012 0.0
C403 C 0.51536 0.62103 0.0093 0.0
C404 C 0.68963 0.81337 0.99037 0.0
C405 C 0.67836 0.83338 0.97612 0.0
C406 C 0.71713 0.87769 0.96811 0.0
C407 C 0.76709 0.89961 0.97421 0.0
C408 C 0.73985 0.83845 0.99625 0.0
C409 C 0.77817 0.88028 0.98806 0.0
C410 C 0.57252 0.69207 0.04297 0.0
C411 C 0.64889 0.76919 0.9998 0.0
H412 H 0.60694 0.46626 0.06677 0.0
H413 H 0.70767 0.55567 0.10574 0.0
H414 H 0.61243 0.60514 0.0831 0.0
H415 H 0.67872 0.61872 0.10279 0.0
H416 H 0.63957 0.8158 0.97168 0.0
H417 H 0.79796 0.93256 0.96831 0.0
H418 H 0.74976 0.82642 1.00739 0.0
H419 H 0.81676 0.89855 0.99269 0.0
Tb420 Tb 1.04245 0.54181 0.20238 0.0
C421 C 1.05582 0.64588 0.14141 0.0
C422 C 0.09419 0.7384 0.14287 0.0
C423 C 0.09783 0.69793 0.11765 0.0
C424 C 1.06651 0.68979 0.15006 0.0
C425 C 1.07224 0.64968 0.12517 0.0
C426 C 0.10878 0.74218 0.12647 0.0
C427 C 1.03999 0.55844 0.12538 0.0
N428 N 1.03214 0.60001 0.1493 0.0
C429 C 1.02438 0.55653 0.14152 0.0
C430 C 1.0636 0.60508 0.11712 0.0
Tb431 Tb 1.00243 0.60311 0.17473 0.0
N432 N 1.0542 0.6847 0.16613 0.0
C433 C 1.06808 0.72661 0.17575 0.0
C434 C 0.10801 0.78168 0.15256 0.0
C435 C 0.0953 0.77576 0.1691 0.0
H436 H 1.00617 0.52002 0.14755 0.0
H437 H 0.1061 0.809 0.17669 0.0
H438 H 0.12977 0.7792 0.12064 0.0
H439 H 1.03367 0.52382 0.11931 0.0
H440 H 1.05726 0.72183 0.18844 0.0
H441 H 0.10638 0.50694 0.14447 0.0
H442 H 0.12935 0.8198 0.14749 0.0
H443 H 0.96123 0.46031 0.23004 0.0
H444 H 0.09812 0.55917 0.16558 0.0
H445 H 0.91179 0.36748 0.23413 0.0
H446 H 0.11041 0.70155 0.10512 0.0
H447 H 1.06131 0.41283 0.14707 0.0
H448 H 1.00262 0.33482 0.16308 0.0
H449 H 1.07572 0.60634 0.10464 0.0
H450 H 0.94946 0.29694 0.18734 0.0
N451 N 1.05079 0.49664 0.18107 0.0
C452 C 1.07952 0.51874 0.1675 0.0
C453 C 1.05828 0.43586 0.15669 0.0
C454 C 1.02855 0.41313 0.17046 0.0
C455 C 0.08384 0.48891 0.15521 0.0
C456 C 1.02581 0.44491 0.18263 0.0
H457 H 0.91535 0.30873 0.2138 0.0
N458 N 0.9926 0.45544 0.20723 0.0
C459 C 0.93513 0.3827 0.22337 0.0
C460 C 0.99585 0.42362 0.1962 0.0
C461 C 0.96309 0.43555 0.22087 0.0
C462 C 0.93741 0.34969 0.21191 0.0
C463 C 0.96794 0.36994 0.19811 0.0
O464 O 1.05406 0.52236 0.22584 0.0
O465 O 1.04839 0.61479 0.19665 0.0
O466 O 0.09038 0.64703 0.1739 0.0
O467 O 0.11687 0.60363 0.19117 0.0
O468 O 1.03927 0.5938 0.22029 0.0
O469 O 0.11522 0.55348 0.20844 0.0
O470 O 0.94784 0.59997 0.15801 0.0
O471 O 0.9909 0.52905 0.18276 0.0
O472 O 0.96794 0.52775 0.21169 0.0
O473 O 0.95504 0.5875 0.1972 0.0
O474 O 0.9449 0.52564 0.16511 0.0
O475 O 0.96337 0.6435 0.18017 0.0
C476 C 1.04779 0.63154 0.21093 0.0
C477 C 0.13485 0.5837 0.23563 0.0
C478 C 0.21961 0.64722 0.24527 0.0
C479 C 0.18776 0.61115 0.23358 0.0
C480 C 0.19671 0.65812 0.25848 0.0
C481 C 0.11308 0.59525 0.24897 0.0
C482 C 0.14388 0.63286 0.26012 0.0
C483 C 0.12845 0.64231 0.1807 0.0
C484 C 0.10288 0.54349 0.22376 0.0
C485 C 0.97079 0.33819 0.18612 0.0
C486 C 1.00104 0.35975 0.17231 0.0
C487 C 0.95149 0.496 0.17485 0.0
C488 C 0.93473 0.67213 0.15678 0.0
C489 C 0.90332 0.6603 0.14258 0.0
C490 C 0.89721 0.69889 0.13448 0.0
C491 C 0.92465 0.74926 0.14044 0.0
C492 C 0.95959 0.72279 0.16248 0.0
C493 C 0.95536 0.76094 0.15421 0.0
C494 C 0.94269 0.55306 0.20914 0.0
C495 C 0.93865 0.63146 0.16628 0.0
H496 H 0.20382 0.6033 0.22292 0.0
H497 H 0.2192 0.68468 0.26797 0.0
H498 H 1.07227 0.57535 0.25085 0.0
H499 H 0.12679 0.64149 0.27035 0.0
H500 H 0.88244 0.62118 0.13826 0.0
H501 H 0.92189 0.77994 0.13449 0.0
H502 H 0.98191 0.73317 0.17353 0.0
H503 H 0.97534 0.79987 0.15871 0.0
Tb504 Tb 0.11803 0.57912 0.47713 0.0
C505 C 0.09906 0.67756 0.53543 0.0
C506 C 1.06054 0.73096 0.5312 0.0
C507 C 1.05443 0.69188 0.55764 0.0
C508 C 0.08914 0.70887 0.52546 0.0
C509 C 0.08111 0.66811 0.55157 0.0
C510 C 1.04413 0.7232 0.54748 0.0
C511 C 0.11477 0.61032 0.55412 0.0
N512 N 0.12333 0.65377 0.52884 0.0
C513 C 0.13182 0.62085 0.53801 0.0
C514 C 0.08955 0.63421 0.56097 0.0
Tb515 Tb 0.15708 0.68266 0.50354 0.0
N516 N 0.10346 0.71315 0.50958 0.0
C517 C 0.09121 0.73982 0.4988 0.0
C518 C 1.0479 0.75863 0.52024 0.0
C519 C 1.06298 0.76273 0.50395 0.0
H520 H 0.15172 0.60247 0.53305 0.0
H521 H 1.0535 0.78414 0.49541 0.0
H522 H 1.0224 0.74019 0.5522 0.0
H523 H 0.12135 0.58395 0.56129 0.0
H524 H 0.10496 0.74503 0.48644 0.0
H525 H 1.05794 0.48512 0.53643 0.0
H526 H 1.02594 0.77628 0.52416 0.0
H527 H 0.20376 0.58037 0.45119 0.0
H528 H 1.07095 0.54836 0.5161 0.0
H529 H 0.24922 0.53318 0.44678 0.0
H530 H 1.04061 0.68537 0.57006 0.0
H531 H 0.09279 0.42706 0.53234 0.0
H532 H 0.14611 0.40217 0.51562 0.0
H533 H 1.07634 0.62583 0.57344 0.0
H534 H 0.19992 0.41665 0.49157 0.0
N535 N 0.10714 0.5241 0.49866 0.0
C536 C 0.08353 0.52191 0.51313 0.0
C537 C 0.09712 0.454 0.52288 0.0
C538 C 0.12479 0.4587 0.50879 0.0
C539 C 1.07721 0.48646 0.52518 0.0
C540 C 0.12947 0.49467 0.49685 0.0
H541 H 0.23921 0.46589 0.46608 0.0
N542 N 0.16692 0.54082 0.47309 0.0
C543 C 0.22437 0.52434 0.4572 0.0
C544 C 0.16039 0.50334 0.48358 0.0
C545 C 0.19818 0.55116 0.45985 0.0
C546 C 0.21852 0.48632 0.46807 0.0
C547 C 0.18642 0.4755 0.48149 0.0
O548 O 0.12673 0.58503 0.45187 0.0
O549 O 0.12487 0.65447 0.47926 0.0
O550 O 1.06934 0.63376 0.50529 0.0
O551 O 1.04319 0.55878 0.49017 0.0
O552 O 1.05979 0.59692 0.46934 0.0
O553 O 1.07349 0.51323 0.46311 0.0
O554 O 0.21399 0.73079 0.52033 0.0
O555 O 0.17132 0.62164 0.49565 0.0
O556 O 0.19191 0.64227 0.46767 0.0
O557 O 0.1981 0.71463 0.48011 0.0
O558 O 0.21378 0.66184 0.51399 0.0
O559 O 0.19684 0.76256 0.49957 0.0
C560 C 0.08294 0.64517 0.47247 0.0
C561 C 1.05021 0.53546 0.43786 0.0
C562 C 0.96184 0.49348 0.42868 0.0
C563 C 0.99881 0.4997 0.44023 0.0
C564 C 0.97663 0.52689 0.41527 0.0
C565 C 1.06434 0.56806 0.42428 0.0
C566 C 1.02753 0.56435 0.41324 0.0
C567 C 1.03177 0.5881 0.49994 0.0
C568 C 0.08911 0.53902 0.44949 0.0
C569 C 0.1803 0.43839 0.49298 0.0
C570 C 0.14955 0.43004 0.50662 0.0
C571 C 0.20866 0.62606 0.50429 0.0
C572 C 0.22483 0.81473 0.5239 0.0
C573 C 0.25793 0.83385 0.53771 0.0
C574 C 0.26192 0.87594 0.54691 0.0
C575 C 0.23108 0.89681 0.54245 0.0
C576 C 0.19621 0.83834 0.51974 0.0
C577 C 0.19863 0.87814 0.52908 0.0
C578 C 0.21367 0.69304 0.46891 0.0
C579 C 0.22227 0.7728 0.51322 0.0
H580 H 0.98772 0.4759 0.451 0.0
H581 H 0.94946 0.52308 0.40601 0.0
H582 H 0.10381 0.59648 0.42222 0.0
H583 H 1.03871 0.58971 0.40285 0.0
H584 H 0.28154 0.81736 0.5409 0.0
H585 H 0.23261 0.92843 0.54926 0.0
H586 H 0.17234 0.8268 0.50905 0.0
H587 H 0.17587 0.89541 0.52571 0.0
Tb588 Tb 0.5984 0.0929 0.64248 0.0
C589 C 0.49665 0.0785 0.70427 0.0
C590 C 0.40464 1.04063 0.70288 0.0
C591 C 0.44477 1.03588 0.72799 0.0
C592 C 0.45304 0.06837 0.69568 0.0
C593 C 0.49277 0.06141 0.72044 0.0
C594 C 0.40081 1.0255 0.71923 0.0
C595 C 0.58335 0.09256 0.72007 0.0
N596 N 0.54226 0.10201 0.69634 0.0
C597 C 0.58534 0.10877 0.70399 0.0
C598 C 0.53702 0.06924 0.72838 0.0
Tb599 Tb 0.53942 0.1328 0.67104 0.0
N600 N 0.45815 0.08114 0.67965 0.0
C601 C 0.41648 0.06765 0.67007 0.0
C602 C 0.3616 1.02724 0.69322 0.0
C603 C 0.36755 1.0404 0.67672 0.0
H604 H 0.6216 0.12665 0.69791 0.0
H605 H 0.3345 1.02994 0.66916 0.0
H606 H 0.36395 1.00448 0.72506 0.0
H607 H 0.61767 0.09816 0.72604 0.0
H608 H 0.42126 0.07891 0.65742 0.0
H609 H 0.63757 1.02908 0.69966 0.0
H610 H 0.32365 1.00587 0.6983 0.0
H611 H 0.67683 0.17308 0.61411 0.0
H612 H 0.58394 1.03763 0.67916 0.0
H613 H 0.76883 0.22138 0.60896 0.0
H614 H 0.4411 1.02282 0.74046 0.0
H615 H 0.73092 0.07318 0.69607 0.0
H616 H 0.80723 0.13085 0.67926 0.0
H617 H 0.53569 1.05661 0.74081 0.0
H618 H 0.84289 0.18332 0.65469 0.0
N619 N 0.64495 0.08439 0.66318 0.0
C620 C 0.624 1.0559 0.67689 0.0
C621 C 0.70726 0.07639 0.68675 0.0
C622 C 0.72877 0.10576 0.6728 0.0
C623 C 0.65463 1.05138 0.6888 0.0
C624 C 0.6962 0.10878 0.66106 0.0
H625 H 0.82895 0.21733 0.6285 0.0
N626 N 0.68375 0.14212 0.63676 0.0
C627 C 0.75461 0.19838 0.61985 0.0
C628 C 0.71625 0.13845 0.64734 0.0
C629 C 0.70229 0.17108 0.62294 0.0
C630 C 0.78839 0.1958 0.63086 0.0
C631 C 0.76943 0.16563 0.64481 0.0
O632 O 0.61287 0.08026 0.61847 0.0
O633 O 0.52624 0.08702 0.64892 0.0
O634 O 0.49581 1.04458 0.67184 0.0
O635 O 0.53724 1.01813 0.65374 0.0
O636 O 0.54568 0.0967 0.62513 0.0
O637 O 0.58938 1.02079 0.63648 0.0
O638 O 0.54357 0.18766 0.68796 0.0
O639 O 0.61255 0.14408 0.66245 0.0
O640 O 0.61307 0.16852 0.6337 0.0
O641 O 0.55438 0.18116 0.64879 0.0
O642 O 0.61699 0.18899 0.68069 0.0
O643 O 0.4999 0.17288 0.66592 0.0
C644 C 0.50886 0.08824 0.63482 0.0
C645 C 0.55429 0.99624 0.61006 0.0
C646 C 0.49825 0.90855 0.60095 0.0
C647 C 0.53503 0.9436 0.61181 0.0
C648 C 0.47809 0.92694 0.58897 0.0
C649 C 0.53419 1.01394 0.59783 0.0
C650 C 0.49578 0.97932 0.58754 0.0
C651 C 0.4998 1.00645 0.66464 0.0
C652 C 0.59551 1.03182 0.621 0.0
C653 C 0.80198 0.1625 0.65638 0.0
C654 C 0.78168 0.13264 0.67036 0.0
C655 C 0.64595 0.18267 0.67062 0.0
C656 C 0.4725 0.20202 0.68945 0.0
C657 C 0.48507 0.23414 0.70352 0.0
C658 C 0.44721 0.24094 0.7117 0.0
C659 C 0.39684 0.21359 0.70596 0.0
C660 C 0.42185 0.17713 0.68396 0.0
C661 C 0.38441 0.1821 0.69231 0.0
C662 C 0.58806 0.19386 0.63666 0.0
C663 C 0.51245 0.19754 0.67983 0.0
H664 H 0.54999 0.93012 0.62143 0.0
H665 H 0.45022 0.90129 0.58027 0.0
H666 H 0.54798 1.0544 0.59615 0.0
H667 H 0.48043 0.99323 0.57819 0.0
H668 H 0.52419 0.25508 0.70767 0.0
H669 H 0.3668 0.21714 0.71197 0.0
H670 H 0.41095 0.15431 0.67299 0.0
H671 H 0.3455 0.16217 0.68796 0.0
Tb672 Tb 0.55864 0.57397 0.80988 0.0
C673 C 0.45623 0.45345 0.86792 0.0
C674 C 0.39967 0.36288 0.86282 0.0
C675 C 0.43949 0.39145 0.88937 0.0
C676 C 0.42365 0.41411 0.85763 0.0
C677 C 0.46513 0.44235 0.88383 0.0
C678 C 0.40685 0.35181 0.87889 0.0
C679 C 0.52645 0.53209 0.88718 0.0
N680 N 0.48161 0.50204 0.86189 0.0
C681 C 0.51644 0.54126 0.87126 0.0
C682 C 0.50047 0.48255 0.89353 0.0
Tb683 Tb 0.45514 0.51113 0.83664 0.0
N684 N 0.41987 0.42618 0.84193 0.0
C685 C 0.3924 0.38902 0.83077 0.0
C686 C 0.37071 0.32438 0.85151 0.0
C687 C 0.3674 0.3375 0.8354 0.0
H688 H 0.53661 0.57981 0.86666 0.0
H689 H 0.34526 0.30802 0.82658 0.0
H690 H 0.38843 0.31266 0.88319 0.0
H691 H 0.55412 0.56332 0.89456 0.0
H692 H 0.38863 0.39938 0.81847 0.0
H693 H 0.65116 0.60667 0.8688 0.0
H694 H 0.35156 0.28444 0.85502 0.0
H695 H 0.55935 0.657 0.78247 0.0
H696 H 0.59159 0.55564 0.8475 0.0
H697 H 0.60377 0.74994 0.77835 0.0
H698 H 0.44557 0.38218 0.90161 0.0
H699 H 0.70345 0.70041 0.86577 0.0
H700 H 0.72611 0.77889 0.84932 0.0
H701 H 0.5085 0.47565 0.90584 0.0
H702 H 0.71271 0.81787 0.82487 0.0
N703 N 0.61095 0.61831 0.83142 0.0
C704 C 0.61501 0.59583 0.84539 0.0
C705 C 0.67789 0.67785 0.85606 0.0
C706 C 0.6729 0.70107 0.842 0.0
C707 C 0.64855 0.62501 0.85779 0.0
C708 C 0.63888 0.6699 0.82974 0.0
H709 H 0.66697 0.80748 0.7985 0.0
N710 N 0.59585 0.66066 0.80512 0.0
C711 C 0.61176 0.73416 0.78906 0.0
C712 C 0.63115 0.69181 0.81609 0.0
C713 C 0.58623 0.68128 0.79158 0.0
C714 C 0.64758 0.76647 0.8004 0.0
C715 C 0.65757 0.74551 0.81415 0.0
O716 O 0.59353 0.59614 0.78702 0.0
O717 O 0.49145 0.50136 0.81488 0.0
O718 O 0.49777 0.46566 0.83684 0.0
O719 O 0.57202 0.51325 0.82196 0.0
O720 O 0.50506 0.52398 0.79143 0.0
O721 O 0.61538 0.55541 0.80371 0.0
O722 O 0.40616 0.51618 0.85396 0.0
O723 O 0.51826 0.58492 0.82936 0.0
O724 O 0.49867 0.58914 0.80029 0.0
O725 O 0.42554 0.52957 0.81428 0.0
O726 O 0.47895 0.5879 0.84806 0.0
O727 O 0.37671 0.47746 0.8311 0.0
C728 C 0.47547 0.48573 0.80044 0.0
C729 C 0.60714 0.53162 0.77588 0.0
C730 C 0.62729 0.46943 0.76376 0.0
C731 C 0.63285 0.50366 0.77639 0.0
C732 C 0.59184 0.46049 0.75128 0.0
C733 C 0.57246 0.52249 0.76315 0.0
C734 C 0.56421 0.48638 0.75115 0.0
C735 C 0.54263 0.47249 0.83135 0.0
C736 C 0.61686 0.57003 0.78869 0.0
C737 C 0.69221 0.7766 0.82613 0.0
C738 C 0.69985 0.75442 0.84004 0.0
C739 C 0.51442 0.6178 0.8383 0.0
C740 C 0.31982 0.44804 0.85441 0.0
C741 C 0.30088 0.45939 0.86888 0.0
C742 C 0.25571 0.42119 0.87659 0.0
C743 C 0.23165 0.37155 0.86996 0.0
C744 C 0.29293 0.39825 0.84804 0.0
C745 C 0.25004 0.36035 0.85591 0.0
C746 C 0.44833 0.56458 0.8026 0.0
C747 C 0.36524 0.48846 0.8454 0.0
H748 H 0.65822 0.5098 0.78651 0.0
H749 H 0.58668 0.43516 0.74121 0.0
H750 H 0.55162 0.54314 0.76239 0.0
H751 H 0.53736 0.47949 0.74144 0.0
H752 H 0.32004 0.49793 0.87373 0.0
H753 H 0.19781 0.3411 0.87561 0.0
H754 H 0.30441 0.38843 0.83677 0.0
H755 H 0.23026 0.32206 0.85089 0.0
Tb756 Tb 1.03947 0.53457 0.97625 0.0
C757 C 1.05496 0.43546 0.03571 0.0
C758 C 0.09364 0.38188 0.0321 0.0
C759 C 0.09809 0.42112 0.0584 0.0
C760 C 1.06537 0.40391 0.026 0.0
C761 C 1.07214 0.44516 0.05195 0.0
C762 C 0.10884 0.38958 0.0485 0.0
C763 C 1.04042 0.5047 0.05377 0.0
N764 N 1.03135 0.45947 0.0288 0.0
C765 C 1.02421 0.49402 0.03757 0.0
C766 C 1.06406 0.47987 0.06104 0.0
Tb767 Tb 1.00058 0.43154 1.0031 0.0
N768 N 1.05252 0.39983 0.00998 0.0
C769 C 1.06647 0.37406 0.99936 0.0
C770 C 0.10751 0.35465 0.02135 0.0
C771 C 0.09426 0.35113 1.00489 0.0
H772 H 1.00595 0.51357 0.03228 0.0
H773 H 0.10502 0.33037 0.9965 0.0
H774 H 0.13025 0.37261 0.0535 0.0
H775 H 1.03457 0.53206 0.06066 0.0
H776 H 1.0549 0.37014 0.98676 0.0
H777 H 0.09821 0.62693 0.03517 0.0
H778 H 0.12928 0.3371 0.02557 0.0
H779 H 0.96042 0.53713 0.94822 0.0
H780 H 0.09215 0.56881 0.01347 0.0
H781 H 0.91111 0.58113 0.94408 0.0
H782 H 0.11125 0.4278 0.0709 0.0
H783 H 1.05316 0.6764 0.03269 0.0
H784 H 0.99581 0.69767 0.01645 0.0
H785 H 1.07674 0.48846 0.07357 0.0
H786 H 0.94469 0.68494 0.99178 0.0
N787 N 1.04579 0.58562 0.99798 0.0
C788 C 1.07344 0.59075 0.01172 0.0
C789 C 1.05103 0.65134 0.02287 0.0
C790 C 1.02251 0.6459 0.00887 0.0
C791 C 1.07655 0.62357 0.02429 0.0
C792 C 1.02086 0.61259 0.99646 0.0
H793 H 0.91279 0.64154 0.96483 0.0
N794 N 0.98927 0.57085 0.97147 0.0
C795 C 0.93345 0.58808 0.95505 0.0
C796 C 0.99185 0.60515 0.9827 0.0
C797 C 0.96126 0.56282 0.95756 0.0
C798 C 0.9347 0.62233 0.96674 0.0
C799 C 0.96412 0.63128 0.98077 0.0
O800 O 1.0529 0.56399 0.95253 0.0
O801 O 1.04682 0.46795 0.98138 0.0
O802 O 0.08827 0.47689 1.00458 0.0
O803 O 0.11409 0.54636 0.98725 0.0
O804 O 1.03886 0.48221 0.95777 0.0
O805 O 0.10901 0.60083 0.97142 0.0
O806 O 0.9454 0.37975 0.01953 0.0
O807 O 0.98814 0.49407 0.99567 0.0
O808 O 0.96499 0.47491 0.96675 0.0
O809 O 0.95438 0.40176 0.98036 0.0
O810 O 0.94431 0.45218 0.0137 0.0
O811 O 0.96087 0.3527 0.99717 0.0
C812 C 1.04701 0.45219 0.9669 0.0
C813 C 0.13882 0.59507 0.94524 0.0
C814 C 0.22871 0.62347 0.93974 0.0
C815 C 0.19004 0.62092 0.94999 0.0
C816 C 0.21385 0.59568 0.92499 0.0
C817 C 0.12528 0.56786 0.93049 0.0
C818 C 0.16259 0.56754 0.9206 0.0
C819 C 0.12599 0.5196 0.9978 0.0
C820 C 0.10008 0.59693 0.95578 0.0
C821 C 0.96597 0.6648 0.993 0.0
C822 C 0.99507 0.67205 1.00703 0.0
C823 C 0.94989 0.48833 1.00412 0.0
C824 C 0.93147 0.29418 0.02017 0.0
C825 C 0.89812 0.27263 0.03383 0.0
C826 C 0.89244 0.22785 0.04179 0.0
C827 C 0.92248 0.20709 0.03622 0.0
C828 C 0.95844 0.2701 0.01475 0.0
C829 C 0.95474 0.22781 0.02288 0.0
C830 C 0.94126 0.42426 0.96873 0.0
C831 C 0.93586 0.33951 0.01098 0.0
H832 H 0.19914 0.63961 0.96169 0.0
H833 H 0.24135 0.59671 0.91638 0.0
H834 H 0.08596 0.54689 0.92654 0.0
H835 H 0.15188 0.54656 0.90924 0.0
H836 H 0.8757 0.28963 0.03789 0.0
H837 H 0.92093 0.17421 0.04216 0.0
H838 H 0.98219 0.28343 1.00404 0.0
H839 H 0.97661 0.21042 0.01865 0.0
Tb840 Tb 0.56184 1.02301 0.14261 0.0
C841 C 0.67609 1.04066 0.20148 0.0
C842 C 0.76747 0.08085 0.19736 0.0
C843 C 0.7339 0.08613 0.22377 0.0
C844 C 0.71736 1.05124 0.19157 0.0
C845 C 0.68399 0.05872 0.21762 0.0
C846 C 0.77555 0.09725 0.21365 0.0
C847 C 0.59312 1.02447 0.21997 0.0
N848 N 0.62857 1.01612 0.19477 0.0
C849 C 0.58718 1.00751 0.20383 0.0
C850 C 0.64164 1.04991 0.22693 0.0
Tb851 Tb 0.62466 0.98275 0.16937 0.0
N852 N 0.70784 1.03704 0.17566 0.0
C853 C 0.74676 1.05006 0.16493 0.0
C854 C 0.80774 0.09458 0.18643 0.0
C855 C 0.79732 0.07938 0.17013 0.0
H856 H 0.54934 0.98773 0.19877 0.0
H857 H 0.8282 0.08956 0.16162 0.0
H858 H 0.81382 0.11971 0.21842 0.0
H859 H 0.56017 1.01776 0.22705 0.0
H860 H 0.73874 1.03611 0.15258 0.0
H861 H 0.52897 0.08445 0.20192 0.0
H862 H 0.84691 0.11738 0.19039 0.0
H863 H 0.4777 0.93948 0.1163 0.0
H864 H 0.57808 0.06964 0.18163 0.0
H865 H 0.38594 0.89648 0.11156 0.0
H866 H 0.74074 0.10006 0.2362 0.0
H867 H 0.43727 1.05235 0.19761 0.0
H868 H 0.3597 1.00107 0.18063 0.0
H869 H 0.64604 0.06319 0.2394 0.0
H870 H 0.32036 0.94806 0.15638 0.0
N871 N 0.51846 1.03544 0.16402 0.0
C872 C 0.53972 0.05842 0.17857 0.0
C873 C 0.45948 1.04731 0.18817 0.0
C874 C 0.43656 1.02016 0.17398 0.0
C875 C 0.51116 0.06568 0.19059 0.0
C876 C 0.46729 1.01449 0.16209 0.0
H877 H 0.32967 0.90819 0.1308 0.0
N878 N 0.47537 0.97653 0.13828 0.0
C879 C 0.40197 0.92098 0.12209 0.0
C880 C 0.44502 0.984 0.14872 0.0
C881 C 0.45445 0.94578 0.1249 0.0
C882 C 0.37039 0.92779 0.13293 0.0
C883 C 0.3917 0.95943 0.14647 0.0
O884 O 0.56064 1.01408 0.11732 0.0
O885 O 0.62938 1.01478 0.145 0.0
O886 O 0.66257 0.07078 0.17142 0.0
O887 O 0.6165 0.09809 0.15535 0.0
O888 O 0.63776 0.08057 0.13512 0.0
O889 O 0.54188 0.06824 0.12822 0.0
O890 O 0.61571 0.92499 0.186 0.0
O891 O 0.55036 0.96956 0.16133 0.0
O892 O 0.54916 0.94756 0.13361 0.0
O893 O 0.61533 0.94143 0.14584 0.0
O894 O 0.54759 0.92617 0.17958 0.0
O895 O 0.66536 0.94319 0.1655 0.0
C896 C 0.66224 0.05672 0.1383 0.0
C897 C 0.58899 0.09102 0.10341 0.0
C898 C 0.65105 0.17999 0.09707 0.0
C899 C 0.619 0.14216 0.10824 0.0
C900 C 0.65648 0.16417 0.08137 0.0
C901 C 0.59493 0.07634 0.08773 0.0
C902 C 0.6293 0.11266 0.0769 0.0
C903 C 0.65585 0.10891 0.16553 0.0
C904 C 0.5527 1.05223 0.11476 0.0
C905 C 0.36129 0.96655 0.15791 0.0
C906 C 0.3837 0.99685 0.17167 0.0
C907 C 0.5175 0.93203 0.16987 0.0
C908 C 0.68872 0.91454 0.18989 0.0
C909 C 0.67465 0.88019 0.20341 0.0
C910 C 0.71248 0.87643 0.21276 0.0
C911 C 0.76388 0.90859 0.20874 0.0
C912 C 0.74073 0.94455 0.18618 0.0
C913 C 0.77774 0.94224 0.19566 0.0
C914 C 0.57808 0.92563 0.13475 0.0
C915 C 0.64985 0.91714 0.17904 0.0
H916 H 0.61632 0.15234 0.12067 0.0
H917 H 0.67982 0.19138 0.07218 0.0
H918 H 0.57305 1.03676 0.0839 0.0
H919 H 0.63362 0.1011 0.0648 0.0
H920 H 0.63478 0.85554 0.20626 0.0
H921 H 0.7937 0.90717 0.21566 0.0
H922 H 0.75322 0.96944 0.17572 0.0
H923 H 0.81758 0.96606 0.19263 0.0
Tb924 Tb 0.60549 0.54122 0.30913 0.0
C925 C 0.69776 0.64906 0.36972 0.0
C926 C 0.75007 0.74141 0.36741 0.0
C927 C 0.7086 0.70331 0.39308 0.0
C928 C 0.72955 0.69213 0.36064 0.0
C929 C 0.6862 0.65438 0.38597 0.0
C930 C 0.74045 0.74673 0.38382 0.0
C931 C 0.62833 0.56322 0.38654 0.0
N932 N 0.67562 0.60248 0.36222 0.0
C933 C 0.64089 0.55981 0.37037 0.0
C934 C 0.6514 0.61057 0.39443 0.0
Tb935 Tb 0.70647 0.60318 0.33666 0.0
N936 N 0.73555 0.68553 0.34458 0.0
C937 C 0.76187 0.7265 0.33455 0.0
C938 C 0.77783 0.78376 0.35728 0.0
C939 C 0.78334 0.77626 0.34076 0.0
H940 H 0.62249 0.52282 0.36462 0.0
H941 H 0.80447 0.80877 0.33284 0.0
H942 H 0.75622 0.78428 0.38932 0.0
H943 H 0.60084 0.52923 0.39292 0.0
H944 H 0.76709 0.72053 0.32189 0.0
H945 H 0.50918 0.50714 0.36735 0.0
H946 H 0.79425 0.82235 0.36202 0.0
H947 H 0.60646 0.45912 0.28162 0.0
H948 H 0.56904 0.55888 0.34626 0.0
H949 H 0.5636 0.36625 0.27744 0.0
H950 H 0.70046 0.70811 0.40559 0.0
H951 H 0.4596 0.41316 0.36446 0.0
H952 H 0.43976 0.33496 0.34821 0.0
H953 H 0.64138 0.613 0.40693 0.0
H954 H 0.45494 0.29667 0.32389 0.0
N955 N 0.55274 0.49633 0.33046 0.0
C956 C 0.54688 0.51858 0.34421 0.0
C957 C 0.48533 0.43601 0.35484 0.0
C958 C 0.49183 0.4131 0.34094 0.0
C959 C 0.51312 0.48899 0.35649 0.0
C960 C 0.52597 0.44466 0.32879 0.0
H961 H 0.50108 0.30795 0.29756 0.0
N962 N 0.56972 0.45471 0.30427 0.0
C963 C 0.55519 0.38168 0.28816 0.0
C964 C 0.53465 0.42314 0.31521 0.0
C965 C 0.5798 0.43455 0.29071 0.0
C966 C 0.51976 0.34893 0.29949 0.0
C967 C 0.50916 0.36944 0.31323 0.0
O968 O 0.57381 0.52082 0.28579 0.0
O969 O 0.67155 0.61435 0.31474 0.0
O970 O 0.66125 0.6465 0.33761 0.0
O971 O 0.59174 0.6027 0.32044 0.0
O972 O 0.65985 0.59262 0.29115 0.0
O973 O 0.54549 0.55483 0.30293 0.0
O974 O 0.75867 0.60091 0.35333 0.0
O975 O 0.64457 0.52916 0.32883 0.0
O976 O 0.66605 0.52686 0.29982 0.0
O977 O 0.73794 0.58672 0.31423 0.0
O978 O 0.68684 0.52574 0.34659 0.0
O979 O 0.78498 0.64264 0.33087 0.0
C980 C 0.68846 0.63067 0.30042 0.0
C981 C 0.55563 0.58324 0.27556 0.0
C982 C 0.53392 0.64617 0.26502 0.0
C983 C 0.52943 0.61058 0.277 0.0
C984 C 0.56871 0.65686 0.25219 0.0
C985 C 0.58986 0.59443 0.26255 0.0
C986 C 0.59692 0.63168 0.25115 0.0
C987 C 0.61832 0.64144 0.33089 0.0
C988 C 0.54712 0.54347 0.2877 0.0
C989 C 0.47467 0.33794 0.32516 0.0
C990 C 0.46603 0.35973 0.339 0.0
C991 C 0.65076 0.49608 0.33693 0.0
C992 C 0.84328 0.67281 0.35389 0.0
C993 C 0.86512 0.66191 0.36775 0.0
C994 C 0.90953 0.70135 0.37557 0.0
C995 C 0.92957 0.7516 0.36966 0.0
C996 C 0.86678 0.72332 0.34813 0.0
C997 C 0.90862 0.76226 0.35613 0.0
C998 C 0.71623 0.55211 0.30234 0.0
C999 C 0.79851 0.63149 0.34478 0.0
H1000 H 0.50465 0.60298 0.28738 0.0
H1001 H 0.57304 0.68316 0.24254 0.0
H1002 H 0.61128 0.57454 0.26113 0.0
H1003 H 0.62337 0.64008 0.2412 0.0
H1004 H 0.84867 0.6229 0.37206 0.0
H1005 H 0.96211 0.78318 0.37548 0.0
H1006 H 0.85337 0.73302 0.33724 0.0
H1007 H 0.92553 0.8011 0.35164 0.0
H1008 H 0.15119 0.67516 0.21235 0.0
H1009 H 1.02765 0.69674 0.22816 0.0
H1010 H 0.20702 0.73595 0.23241 0.0
H1011 H 0.08321 0.75787 0.24863 0.0
H1012 H 0.16529 0.80532 0.29694 0.0
H1013 H 0.11688 0.75409 0.27373 0.0
H1014 H 0.25527 0.81567 0.24546 0.0
H1015 H 0.30394 0.86614 0.26916 0.0
C1016 C 0.13676 0.69559 0.21928 0.0
C1017 C 0.08522 0.68253 0.21785 0.0
C1018 C 0.16873 0.72988 0.23128 0.0
C1019 C 0.14996 0.75154 0.24266 0.0
C1020 C 0.09928 0.74123 0.24051 0.0
C1021 C 1.06746 0.70706 0.22841 0.0
C1022 C 0.18558 0.80729 0.28585 0.0
C1023 C 0.23868 0.83974 0.28503 0.0
C1024 C 0.15757 0.77848 0.27234 0.0
C1025 C 0.18137 0.78133 0.25731 0.0
C1026 C 0.23505 0.81219 0.25668 0.0
C1027 C 0.26326 0.841 0.27034 0.0
H1028 H 0.38398 0.12932 0.46338 0.0
H1029 H 0.50357 0.26968 0.44307 0.0
H1030 H 0.38705 0.0821 0.43988 0.0
H1031 H 0.50878 0.22169 0.41969 0.0
H1032 H 0.48102 0.13694 0.37232 0.0
H1033 H 0.46795 0.17992 0.39544 0.0
H1034 H 0.42776 1.04681 0.42513 0.0
H1035 H 0.43997 1.00388 0.40173 0.0
C1036 C 0.41143 0.1503 0.45393 0.0
C1037 C 0.44291 0.20392 0.45517 0.0
C1038 C 0.41349 0.1228 0.44038 0.0
C1039 C 0.44751 0.14755 0.42747 0.0
C1040 C 0.48086 0.20095 0.42904 0.0
C1041 C 0.4786 0.22865 0.44265 0.0
C1042 C 0.4666 0.11578 0.38357 0.0
C1043 C 0.45981 0.0661 0.38491 0.0
C1044 C 0.46066 0.14115 0.39707 0.0
C1045 C 0.44803 0.11791 0.41254 0.0
C1046 C 0.43726 0.0665 0.41356 0.0
C1047 C 0.44323 1.0411 0.39997 0.0
H1048 H 0.32618 0.36617 0.63329 0.0
H1049 H 0.28901 0.47321 0.61083 0.0
H1050 H 0.37548 0.36939 0.60961 0.0
H1051 H 0.34117 0.47874 0.58722 0.0
H1052 H 0.39928 0.44801 0.54029 0.0
H1053 H 0.34462 0.4352 0.56371 0.0
H1054 H 0.44931 0.41432 0.59425 0.0
H1055 H 0.50261 0.42545 0.57059 0.0
C1056 C 0.32863 0.39077 0.62331 0.0
C1057 C 0.30231 0.41867 0.62405 0.0
C1058 C 0.35769 0.39303 0.60965 0.0
C1059 C 0.36229 0.42371 0.59612 0.0
C1060 C 0.33777 0.45344 0.5971 0.0
C1061 C 0.30833 0.451 0.61082 0.0
C1062 C 0.40892 0.43747 0.55182 0.0
C1063 C 0.45428 0.43532 0.55328 0.0
C1064 C 0.37837 0.43185 0.56546 0.0
C1065 C 0.39239 0.42453 0.58119 0.0
C1066 C 0.43627 0.41921 0.58247 0.0
C1067 C 0.46663 0.42452 0.56875 0.0
H1068 H 1.01101 0.43754 0.71343 0.0
H1069 H 0.1365 0.41933 0.72935 0.0
H1070 H 0.95596 0.37624 0.73358 0.0
H1071 H 0.08178 0.35755 0.74975 0.0
H1072 H 1.00064 0.30932 0.79812 0.0
H1073 H 1.04795 0.36022 0.77483 0.0
H1074 H 0.90885 0.29653 0.74682 0.0
H1075 H 0.86111 0.24607 0.77063 0.0
C1076 C 1.02611 0.41787 0.72045 0.0
C1077 C 1.07795 0.43202 0.71904 0.0
C1078 C 0.99458 0.38323 0.73246 0.0
C1079 C 1.01406 0.36221 0.74384 0.0
C1080 C 1.06511 0.37365 0.74167 0.0
C1081 C 0.09649 0.40823 0.7296 0.0
C1082 C 0.9799 0.30637 0.78704 0.0
C1083 C 0.92685 0.27319 0.78636 0.0
C1084 C 1.00734 0.33522 0.77348 0.0
C1085 C 0.9831 0.33194 0.7585 0.0
C1086 C 0.92946 0.30034 0.75799 0.0
C1087 C 0.90178 0.27143 0.77171 0.0
H1088 H 0.7771 0.10908 0.89403 0.0
H1089 H 0.62663 0.9897 0.88168 0.0
H1090 H 0.7824 1.05391 0.91487 0.0
H1091 H 0.63139 0.93435 0.90211 0.0
H1092 H 0.66482 0.83655 0.93905 0.0
H1093 H 0.66269 0.88342 0.91478 0.0
H1094 H 0.74689 1.02587 0.9409 0.0
H1095 H 0.74935 0.97945 0.96473 0.0
C1096 C 0.74618 0.07004 0.89507 0.0
C1097 C 0.70251 1.05336 0.88533 0.0
C1098 C 0.74855 1.03855 0.90737 0.0
C1099 C 0.70695 0.98929 0.91056 0.0
C1100 C 0.6647 0.97133 0.90006 0.0
C1101 C 0.66237 1.003 0.88785 0.0
C1102 C 0.68226 0.8778 0.93964 0.0
C1103 C 0.70777 0.90399 0.9539 0.0
C1104 C 0.68139 0.90493 0.92565 0.0
C1105 C 0.70604 0.95908 0.9255 0.0
C1106 C 0.72922 0.98464 0.94009 0.0
C1107 C 0.7301 0.95775 0.95394 0.0
H1108 H 0.88838 0.64846 0.10513 0.0
H1109 H 0.82526 0.728 0.13153 0.0
H1110 H 0.83868 0.64545 0.081 0.0
H1111 H 0.77531 0.72428 0.1079 0.0
H1112 H 0.71744 0.75243 0.06187 0.0
H1113 H 0.7792 0.75981 0.08239 0.0
H1114 H 0.7583 0.61265 0.06785 0.0
H1115 H 0.69701 0.60603 0.0476 0.0
C1116 C 0.86329 0.66452 0.1059 0.0
C1117 C 0.86138 0.68885 0.12034 0.0
C1118 C 0.83484 0.66312 0.09199 0.0
C1119 C 0.80357 0.68599 0.09209 0.0
C1120 C 0.80013 0.70802 0.10686 0.0
C1121 C 0.82847 0.70955 0.12061 0.0
C1122 C 0.72808 0.72294 0.06247 0.0
C1123 C 0.70361 0.67975 0.05233 0.0
C1124 C 0.7627 0.7264 0.0746 0.0
C1125 C 0.7736 0.6863 0.07725 0.0
C1126 C 0.75199 0.64483 0.06628 0.0
C1127 C 0.71725 0.64143 0.0542 0.0
H1128 H 0.46291 0.98405 0.63336 0.0
H1129 H 0.44475 0.11067 0.61812 0.0
H1130 H 0.4012 0.9292 0.61334 0.0
H1131 H 0.38268 1.05613 0.59774 0.0
H1132 H 0.33527 0.97583 0.54906 0.0
H1133 H 0.38607 1.0228 0.57249 0.0
H1134 H 0.32125 0.88254 0.6002 0.0
H1135 H 0.27106 0.83523 0.57627 0.0
C1136 C 0.44304 0.9994 0.62659 0.0
C1137 C 0.45745 1.05153 0.62812 0.0
C1138 C 0.40814 0.96796 0.61463 0.0
C1139 C 0.38721 0.98791 0.6034 0.0
C1140 C 0.39874 1.03916 0.60573 0.0
C1141 C 0.43348 0.07042 0.61778 0.0
C1142 C 0.33235 0.95479 0.56009 0.0
C1143 C 0.29907 0.90157 0.56067 0.0
C1144 C 0.36098 0.982 0.57373 0.0
C1145 C 0.35722 0.95727 0.58866 0.0
C1146 C 0.32543 0.90345 0.58906 0.0
C1147 C 0.29677 0.87602 0.57527 0.0
H1148 H 0.49346 0.2472 0.7416 0.0
H1149 H 0.42369 0.3172 0.7136 0.0
H1150 H 0.49602 0.29786 0.7655 0.0
H1151 H 0.42718 0.36828 0.73699 0.0
H1152 H 0.39252 0.42383 0.78238 0.0
H1153 H 0.38735 0.36291 0.76179 0.0
H1154 H 0.52933 0.37854 0.77908 0.0
H1155 H 0.53364 0.43872 0.79965 0.0
C1156 C 0.47963 0.27412 0.74043 0.0
C1157 C 0.45808 0.27772 0.72563 0.0
C1158 C 0.48076 0.3031 0.7542 0.0
C1159 C 0.46033 0.33651 0.75355 0.0
C1160 C 0.44144 0.3418 0.73841 0.0
C1161 C 0.44011 0.31289 0.72481 0.0
C1162 C 0.42125 0.41222 0.78233 0.0
C1163 C 0.46231 0.43495 0.79326 0.0
C1164 C 0.41915 0.37816 0.77018 0.0
C1165 C 0.45865 0.36622 0.76828 0.0
C1166 C 0.49788 0.38606 0.78001 0.0
C1167 C 0.49987 0.42014 0.79219 0.0
H1168 H 1.02544 0.36646 0.94982 0.0
H1169 H 0.15044 0.51062 0.96513 0.0
H1170 H 1.07938 0.35983 0.92892 0.0
H1171 H 0.2047 0.50481 0.9444 0.0
H1172 H 0.29738 0.46758 0.90639 0.0
H1173 H 0.25139 0.47014 0.9308 0.0
H1174 H 0.11067 0.39884 0.9036 0.0
H1175 H 0.15616 0.3958 0.87967 0.0
C1176 C 1.06528 0.39552 0.94934 0.0
C1177 C 0.0839 0.43793 0.95983 0.0
C1178 C 0.09614 0.39255 0.937 0.0
C1179 C 0.14667 0.43241 0.93451 0.0
C1180 C 0.16643 0.47302 0.9458 0.0
C1181 C 0.13542 0.47588 0.95812 0.0
C1182 C 0.25675 0.45314 0.90562 0.0
C1183 C 0.23063 0.43106 0.891 0.0
C1184 C 0.23012 0.45427 0.91968 0.0
C1185 C 0.17658 0.43331 0.91953 0.0
C1186 C 0.15129 0.4136 0.90462 0.0
C1187 C 0.17768 0.41242 0.89071 0.0
H1188 H 0.75905 0.13407 0.13947 0.0
H1189 H 0.65477 1.00917 0.10923 0.0
H1190 H 0.81317 0.17558 0.11596 0.0
H1191 H 0.70759 1.05105 0.08546 0.0
H1192 H 0.83122 0.1245 0.04638 0.0
H1193 H 0.78138 0.07897 0.07001 0.0
H1194 H 0.8169 0.22273 0.09247 0.0
H1195 H 0.8694 0.26873 0.06888 0.0
C1196 C 0.74902 0.11407 0.12791 0.0
C1197 C 0.70361 0.06687 0.12651 0.0
C1198 C 0.7793 0.13881 0.11422 0.0
C1199 C 0.76496 0.11762 0.09849 0.0
C1200 C 0.72088 0.06884 0.09724 0.0
C1201 C 0.69077 1.04397 0.11101 0.0
C1202 C 0.82879 0.14676 0.05635 0.0
C1203 C 0.85554 0.20079 0.05564 0.0
C1204 C 0.79947 0.1203 0.06998 0.0
C1205 C 0.7951 0.14656 0.08354 0.0
C1206 C 0.82005 0.20067 0.08257 0.0
C1207 C 0.8497 0.22731 0.06886 0.0
H1208 H 0.62874 0.67537 0.29936 0.0
H1209 H 0.77156 0.69428 0.28254 0.0
H1210 H 0.63214 0.73576 0.27921 0.0
H1211 H 0.77558 0.75496 0.26204 0.0
H1212 H 0.73841 0.80191 0.21402 0.0
H1213 H 0.73642 0.75058 0.23717 0.0
H1214 H 0.6632 0.81586 0.26604 0.0
H1215 H 0.66421 0.86653 0.24241 0.0
C1216 C 0.66277 0.69511 0.29217 0.0
C1217 C 0.70108 0.68144 0.29334 0.0
C1218 C 0.66419 0.72918 0.28014 0.0
C1219 C 0.70352 0.74999 0.26849 0.0
C1220 C 0.7437 0.73901 0.27037 0.0
C1221 C 0.74226 0.7051 0.28249 0.0
C1222 C 0.72101 0.80467 0.22523 0.0
C1223 C 0.70118 0.83825 0.22623 0.0
C1224 C 0.7207 0.77579 0.2387 0.0
C1225 C 0.70107 0.77966 0.25388 0.0
C1226 C 0.67896 0.8116 0.2547 0.0
C1227 C 0.67909 0.84052 0.24108 0.0
H1228 H 1.00518 0.66503 0.47366 0.0
H1229 H 0.13004 0.68536 0.44346 0.0
H1230 H 0.9633 0.6776 0.45013 0.0
H1231 H 0.0879 0.69631 0.41969 0.0
H1232 H 1.01262 0.74359 0.38017 0.0
H1233 H 1.05867 0.74062 0.40394 0.0
H1234 H 0.91642 0.6343 0.42677 0.0
H1235 H 0.86989 0.63949 0.40303 0.0
C1236 C 1.02502 0.67484 0.4621 0.0
C1237 C 1.07224 0.67641 0.46071 0.0
C1238 C 1.00012 0.68041 0.4484 0.0
C1239 C 1.02118 0.68709 0.43266 0.0
C1240 C 1.0701 0.69187 0.43146 0.0
C1241 C 0.09512 0.68658 0.44523 0.0
C1242 C 0.9908 0.71961 0.39026 0.0
C1243 C 0.93701 0.69243 0.38958 0.0
C1244 C 1.01758 0.71753 0.40397 0.0
C1245 C 0.99191 0.68779 0.41767 0.0
C1246 C 0.93805 0.65883 0.41677 0.0
C1247 C 0.9111 0.66106 0.40297 0.0
H1248 H 0.55256 0.66397 0.31283 0.0
H1249 H 0.64772 0.71721 0.3554 0.0
H1250 H 0.53267 0.7334 0.31588 0.0
H1251 H 0.62565 0.78535 0.35893 0.0
H1252 H 0.52056 0.86759 0.3672 0.0
H1253 H 0.54864 0.80338 0.36537 0.0
H1254 H 0.57342 0.83212 0.31401 0.0
H1255 H 0.54986 0.89922 0.31627 0.0
C1256 C 0.56933 0.69001 0.32298 0.0
C1257 C 0.60268 0.68351 0.3337 0.0
C1258 C 0.55777 0.73069 0.32474 0.0
C1259 C 0.57713 0.76672 0.3377 0.0
C1260 C 0.60927 0.75938 0.34874 0.0
C1261 C 0.62225 0.71965 0.34666 0.0
C1262 C 0.53537 0.86311 0.35573 0.0
C1263 C 0.53623 0.89297 0.34222 0.0
C1264 C 0.55032 0.82454 0.35451 0.0
C1265 C 0.56416 0.81113 0.33948 0.0
C1266 C 0.56359 0.84009 0.32591 0.0
C1267 C 0.5503 0.8796 0.32727 0.0
H1268 H 0.7252 0.57836 0.50051 0.0
H1269 H 0.69129 0.43467 0.52168 0.0
H1270 H 0.81596 0.60339 0.49919 0.0
H1271 H 0.78117 0.45783 0.51944 0.0
H1272 H 0.9408 0.49237 0.49759 0.0
H1273 H 0.85146 0.47059 0.50133 0.0
H1274 H 0.90004 0.62817 0.51206 0.0
H1275 H 0.98901 0.64941 0.50869 0.0
C1276 C 0.73687 0.5527 0.50566 0.0
C1277 C 0.69918 0.50548 0.51239 0.0
C1278 C 0.78984 0.56671 0.50451 0.0
C1279 C 0.80853 0.53329 0.5092 0.0
C1280 C 0.77048 0.48563 0.51558 0.0
C1281 C 0.71797 0.47234 0.5171 0.0
C1282 C 0.93301 0.52266 0.50093 0.0
C1283 C 0.97457 0.57311 0.50299 0.0
C1284 C 0.88072 0.50998 0.50314 0.0
C1285 C 0.86599 0.54705 0.50711 0.0
C1286 C 0.90764 0.59758 0.50897 0.0
C1287 C 0.95987 0.60996 0.50716 0.0
H1288 H 0.42553 0.96104 0.68943 0.0
H1289 H 0.47546 0.91829 0.64613 0.0
H1290 H 0.35708 0.8718 0.69284 0.0
H1291 H 0.40575 0.82995 0.64909 0.0
H1292 H 0.24037 0.68449 0.64964 0.0
H1293 H 0.30796 0.7741 0.64753 0.0
H1294 H 0.33709 0.77628 0.69882 0.0
H1295 H 0.27161 0.68507 0.7006 0.0
C1296 C 0.42232 0.93313 0.68051 0.0
C1297 C 0.45764 0.9492 0.66738 0.0
C1298 C 0.38239 0.88098 0.68252 0.0
C1299 C 0.37402 0.84157 0.67126 0.0
C1300 C 0.40926 0.85773 0.65813 0.0
C1301 C 0.45011 0.9094 0.65642 0.0
C1302 C 0.26017 0.70395 0.66066 0.0
C1303 C 0.24663 0.67634 0.67555 0.0
C1304 C 0.30001 0.75613 0.65939 0.0
C1305 C 0.32932 0.78483 0.67297 0.0
C1306 C 0.31584 0.75739 0.68795 0.0
C1307 C 0.2768 0.70446 0.6891 0.0
H1308 H 0.47996 0.36792 0.83757 0.0
H1309 H 0.63853 0.47763 0.83137 0.0
H1310 H 0.50123 0.2995 0.84107 0.0
H1311 H 0.66015 0.40937 0.83553 0.0
H1312 H 0.68453 0.27786 0.85921 0.0
H1313 H 0.66127 0.3454 0.85679 0.0
H1314 H 0.53678 0.24818 0.82532 0.0
H1315 H 0.56232 0.18224 0.82696 0.0
C1316 C 0.51962 0.37809 0.83714 0.0
C1317 C 0.55708 0.42987 0.83424 0.0
C1318 C 0.532 0.3381 0.83908 0.0
C1319 C 0.58288 0.34738 0.83874 0.0
C1320 C 0.62048 0.39935 0.83608 0.0
C1321 C 0.60792 0.43913 0.83363 0.0
C1322 C 0.65124 0.26997 0.8521 0.0
C1323 C 0.62372 0.22186 0.84418 0.0
C1324 C 0.63811 0.30956 0.8505 0.0
C1325 C 0.59636 0.30362 0.84091 0.0
C1326 C 0.56859 0.25532 0.83308 0.0
C1327 C 0.58282 0.21642 0.83428 0.0
H1328 H 0.21386 0.58383 0.97968 0.0
H1329 H 0.17153 0.49029 0.02264 0.0
H1330 H 0.30221 0.60284 0.98287 0.0
H1331 H 0.2609 0.51158 0.02636 0.0
H1332 H 0.44809 0.61808 0.03416 0.0
H1333 H 0.35675 0.59164 0.03235 0.0
H1334 H 0.35767 0.55724 0.98161 0.0
H1335 H 0.44736 0.5796 0.98385 0.0
C1336 C 0.22282 0.56727 0.98994 0.0
C1337 C 0.18314 0.53467 1.00072 0.0
C1338 C 0.27452 0.57833 0.9918 0.0
C1339 C 0.29083 0.55918 1.00494 0.0
C1340 C 0.25155 0.52777 0.01604 0.0
C1341 C 0.19935 0.51527 0.01385 0.0
C1342 C 0.4284 0.60192 0.02285 0.0
C1343 C 0.45622 0.5979 0.00952 0.0
C1344 C 0.37541 0.58769 0.02165 0.0
C1345 C 0.3476 0.57146 1.00678 0.0
C1346 C 0.37596 0.56895 0.99339 0.0
C1347 C 0.42819 0.58153 0.99474 0.0
H1348 H 0.92176 0.42638 0.14963 0.0
H1349 H 0.88846 0.43066 0.20017 0.0
H1350 H 0.85283 0.3373 0.14786 0.0
H1351 H 0.82127 0.34004 0.19877 0.0
H1352 H 0.7262 0.15543 0.19136 0.0
H1353 H 0.79632 0.24414 0.19442 0.0
H1354 H 0.75711 0.28248 0.14821 0.0
H1355 H 0.68629 0.19454 0.14543 0.0
C1356 C 0.90114 0.40808 0.16065 0.0
C1357 C 0.91449 0.43688 0.17533 0.0
C1358 C 0.86048 0.35621 0.15958 0.0
C1359 C 0.82995 0.32903 0.17314 0.0
C1360 C 0.84333 0.35766 0.18792 0.0
C1361 C 0.88333 0.41026 0.18887 0.0
C1362 C 0.73182 0.18257 0.18184 0.0
C1363 C 0.69852 0.16588 0.16818 0.0
C1364 C 0.77271 0.2344 0.18364 0.0
C1365 C 0.78422 0.27267 0.17162 0.0
C1366 C 0.75114 0.25568 0.15789 0.0
C1367 C 0.70943 0.20438 0.15633 0.0
H1368 H 0.27176 0.62095 0.47942 0.0
H1369 H 0.23783 0.58687 0.53005 0.0
H1370 H 0.3374 0.59509 0.48121 0.0
H1371 H 0.30549 0.56448 0.53224 0.0
H1372 H 0.46921 0.58035 0.53544 0.0
H1373 H 0.39938 0.59942 0.53245 0.0
H1374 H 0.36299 0.52596 0.48558 0.0
H1375 H 0.43222 0.50568 0.48883 0.0
C1376 C 0.27623 0.60574 0.49083 0.0
C1377 C 0.2453 0.60302 0.50426 0.0
C1378 C 0.31552 0.59184 0.49202 0.0
C1379 C 0.32853 0.57692 0.50695 0.0
C1380 C 0.29825 0.57539 0.52042 0.0
C1381 C 0.25826 0.58793 0.5191 0.0
C1382 C 0.44685 0.5683 0.52437 0.0
C1383 C 0.45834 0.54129 0.5124 0.0
C1384 C 0.40567 0.57904 0.52267 0.0
C1385 C 0.37361 0.56477 0.50869 0.0
C1386 C 0.38569 0.53849 0.49657 0.0
C1387 C 0.42606 0.52648 0.49848 0.0
H1388 H 0.71322 0.24445 0.64541 0.0
H1389 H 0.71373 0.21155 0.69618 0.0
H1390 H 0.8043 0.3096 0.64711 0.0
H1391 H 0.80314 0.27894 0.69824 0.0
H1392 H 0.94621 0.44809 0.69954 0.0
H1393 H 0.85816 0.37848 0.69651 0.0
H1394 H 0.90004 0.3273 0.6533 0.0
H1395 H 0.9891 0.39565 0.65684 0.0
C1396 C 0.73279 0.24917 0.65684 0.0
C1397 C 0.70501 0.21866 0.67035 0.0
C1398 C 0.78564 0.28802 0.65795 0.0
C1399 C 0.81329 0.30097 0.67288 0.0
C1400 C 0.78496 0.27133 0.68643 0.0
C1401 C 0.73289 0.23164 0.68518 0.0
C1402 C 0.93742 0.4222 0.68936 0.0
C1403 C 0.97716 0.429 0.67861 0.0
C1404 C 0.88591 0.38143 0.68761 0.0
C1405 C 0.86986 0.34556 0.6746 0.0
C1406 C 0.9092 0.35316 0.66352 0.0
C1407 C 0.96122 0.393 0.66561 0.0
H1408 H 0.55427 0.92177 0.86826 0.0
H1409 H 0.64309 0.96151 0.82433 0.0
H1410 H 0.53499 0.83273 0.86529 0.0
H1411 H 0.62174 0.87171 0.82095 0.0
H1412 H 0.51957 0.68586 0.81346 0.0
H1413 H 0.54592 0.77754 0.81534 0.0
H1414 H 0.57614 0.7753 0.86639 0.0
H1415 H 0.55339 0.68501 0.86414 0.0
C1416 C 0.56983 0.91209 0.85785 0.0
C1417 C 0.60124 0.95117 0.8467 0.0
C1418 C 0.55862 0.86006 0.85614 0.0
C1419 C 0.57645 0.843 0.84283 0.0
C1420 C 0.60663 0.88171 0.8314 0.0
C1421 C 0.61922 0.93415 0.83341 0.0
C1422 C 0.53457 0.7053 0.8249 0.0
C1423 C 0.53723 0.67702 0.83833 0.0
C1424 C 0.54883 0.75846 0.82612 0.0
C1425 C 0.56389 0.78596 0.84108 0.0
C1426 C 0.5652 0.75715 0.85456 0.0
C1427 C 0.5524 0.70464 0.85321 0.0
H1428 H 0.73407 0.61761 0.99083 0.0
H1429 H 0.68695 0.52864 0.03481 0.0
H1430 H 0.8022 0.59602 0.98723 0.0
H1431 H 0.75627 0.50901 0.03161 0.0
H1432 H 0.92042 0.52563 0.03017 0.0
H1433 H 0.85308 0.54842 0.0326 0.0
H1434 H 0.82243 0.52151 0.98136 0.0
H1435 H 0.88784 0.49532 0.97926 0.0
C1436 C 0.73786 0.59358 0.99986 0.0
C1437 C 0.70345 0.57561 0.01323 0.0
C1438 C 0.77757 0.58086 0.99774 0.0
C1439 C 0.78658 0.55052 0.0091 0.0
C1440 C 0.75224 0.53272 0.02248 0.0
C1441 C 0.71162 0.54409 0.02432 0.0
C1442 C 0.90025 0.52537 0.01924 0.0
C1443 C 0.91328 0.51114 1.00426 0.0
C1444 C 0.8606 0.53818 0.02069 0.0
C1445 C 0.83098 0.53783 1.00722 0.0
C1446 C 0.84393 0.52365 0.99216 0.0
C1447 C 0.88284 0.50939 0.99083 0.0
H1448 H 0.45121 0.89999 0.19597 0.0
H1449 H 0.44838 0.87253 0.14468 0.0
H1450 H 0.36179 0.83256 0.19811 0.0
H1451 H 0.35727 0.80789 0.14645 0.0
H1452 H 0.17366 0.71892 0.15643 0.0
H1453 H 0.26261 0.78747 0.15306 0.0
H1454 H 0.30474 0.73487 0.19587 0.0
H1455 H 0.21669 0.66507 0.19874 0.0
C1456 C 0.43129 0.88125 0.18488 0.0
C1457 C 0.45829 0.89599 0.16989 0.0
C1458 C 0.37916 0.84148 0.18616 0.0
C1459 C 0.34977 0.81344 0.17249 0.0
C1460 C 0.37657 0.8282 0.15742 0.0
C1461 C 0.42944 0.86706 0.15625 0.0
C1462 C 0.20154 0.72128 0.16516 0.0
C1463 C 0.18556 0.68477 0.17799 0.0
C1464 C 0.25357 0.7613 0.16317 0.0
C1465 C 0.29306 0.76867 0.17417 0.0
C1466 C 0.27697 0.73226 0.18702 0.0
C1467 C 0.22542 0.69132 0.18869 0.0
H1468 H 0.64838 0.42916 0.312 0.0
H1469 H 0.60943 0.42737 0.36229 0.0
H1470 H 0.62337 0.33777 0.31368 0.0
H1471 H 0.58747 0.33735 0.36434 0.0
H1472 H 0.60673 0.19058 0.36758 0.0
H1473 H 0.62578 0.27959 0.36458 0.0
H1474 H 0.5517 0.24324 0.31787 0.0
H1475 H 0.53123 0.15359 0.32115 0.0
C1476 C 0.63259 0.40921 0.32331 0.0
C1477 C 0.62819 0.43677 0.33668 0.0
C1478 C 0.619 0.35614 0.32441 0.0
C1479 C 0.60271 0.32787 0.33921 0.0
C1480 C 0.5995 0.35597 0.35263 0.0
C1481 C 0.61179 0.40839 0.35139 0.0
C1482 C 0.59464 0.20111 0.35653 0.0
C1483 C 0.56745 0.16291 0.34461 0.0
C1484 C 0.60534 0.25301 0.35484 0.0
C1485 C 0.59082 0.27086 0.3409 0.0
C1486 C 0.56441 0.23283 0.32881 0.0
C1487 C 0.55238 0.18047 0.33073 0.0
H1488 H 0.28575 0.79544 0.46979 0.0
H1489 H 0.22093 0.66508 0.43756 0.0
H1490 H 0.34085 0.849 0.44765 0.0
H1491 H 0.27499 0.71881 0.4154 0.0
H1492 H 0.33963 0.85144 0.37606 0.0
H1493 H 0.28537 0.79597 0.39807 0.0
H1494 H 0.41539 0.85621 0.43008 0.0
H1495 H 0.46962 0.91045 0.40811 0.0
C1496 C 0.2833 0.77809 0.45802 0.0
C1497 C 0.24905 0.72562 0.45562 0.0
C1498 C 0.31499 0.80884 0.4453 0.0
C1499 C 0.31249 0.78842 0.42964 0.0
C1500 C 0.27791 0.73605 0.42721 0.0
C1501 C 0.24715 0.70506 0.44002 0.0
C1502 C 0.35675 0.85254 0.38774 0.0
C1503 C 0.40934 0.8853 0.39014 0.0
C1504 C 0.32561 0.82063 0.40038 0.0
C1505 C 0.34581 0.82151 0.41595 0.0
C1506 C 0.3983 0.85455 0.41835 0.0
C1507 C 0.42958 0.88545 0.40563 0.0
H1508 H 0.54258 0.31526 0.54491 0.0
H1509 H 0.62258 0.44981 0.57493 0.0
H1510 H 0.54569 0.26257 0.5672 0.0
H1511 H 0.62469 0.39713 0.59723 0.0
H1512 H 0.61424 0.19686 0.60456 0.0
H1513 H 0.61225 0.25062 0.58272 0.0
H1514 H 0.56282 0.32638 0.61675 0.0
H1515 H 0.56401 0.27158 0.63878 0.0
C1516 C 0.56096 0.33372 0.55621 0.0
C1517 C 0.58274 0.38708 0.55793 0.0
C1518 C 0.5628 0.30346 0.56903 0.0
C1519 C 0.58539 0.32541 0.58413 0.0
C1520 C 0.60669 0.37869 0.58588 0.0
C1521 C 0.60586 0.40905 0.57296 0.0
C1522 C 0.60353 0.22533 0.60755 0.0
C1523 C 0.58992 0.23002 0.62364 0.0
C1524 C 0.60183 0.25589 0.59489 0.0
C1525 C 0.58729 0.29299 0.59785 0.0
C1526 C 0.5745 0.29847 0.61398 0.0
C1527 C 0.57516 0.267 0.62664 0.0
H1528 H 0.47584 0.59816 0.77115 0.0
H1529 H 0.34664 0.53763 0.80354 0.0
H1530 H 0.42263 0.59872 0.74892 0.0
H1531 H 0.29324 0.53846 0.78119 0.0
H1532 H 0.29474 0.53474 0.70903 0.0
H1533 H 0.35009 0.53694 0.73128 0.0
H1534 H 0.28156 0.59934 0.76339 0.0
H1535 H 0.22682 0.59738 0.74134 0.0
C1536 C 0.43626 0.5857 0.77367 0.0
C1537 C 0.41599 0.56849 0.78936 0.0
C1538 C 0.40547 0.58541 0.76077 0.0
C1539 C 0.3534 0.56857 0.76313 0.0
C1540 C 0.33321 0.55212 0.77887 0.0
C1541 C 0.36388 0.5516 0.79174 0.0
C1542 C 0.29181 0.54939 0.72078 0.0
C1543 C 0.25648 0.56649 0.72318 0.0
C1544 C 0.32366 0.55074 0.73358 0.0
C1545 C 0.32043 0.56823 0.74926 0.0
C1546 C 0.28507 0.58524 0.7516 0.0
C1547 C 0.25395 0.58469 0.73879 0.0
H1548 H 0.8193 0.27411 0.87396 0.0
H1549 H 0.69221 0.20229 0.90706 0.0
H1550 H 0.87289 0.3287 0.89634 0.0
H1551 H 0.74512 0.25605 0.92911 0.0
H1552 H 0.87033 0.32107 0.96894 0.0
H1553 H 0.81798 0.26798 0.94628 0.0
H1554 H 0.88279 0.40012 0.9149 0.0
H1555 H 0.9347 0.45301 0.93744 0.0
C1556 C 0.80259 0.27014 0.8859 0.0
C1557 C 0.75091 0.23414 0.88846 0.0
C1558 C 0.83331 0.30151 0.89877 0.0
C1559 C 0.81355 0.29693 0.91467 0.0
C1560 C 0.76204 0.26067 0.91717 0.0
C1561 C 0.73133 0.23015 0.90433 0.0
C1562 C 0.87311 0.33896 0.95727 0.0
C1563 C 0.90643 0.39177 0.95526 0.0
C1564 C 0.84301 0.30845 0.94422 0.0
C1565 C 0.84597 0.32953 0.92862 0.0
C1566 C 0.87956 0.38225 0.92661 0.0
C1567 C 0.90895 0.41284 0.9397 0.0
H1568 H 0.61275 0.85632 0.13479 0.0
H1569 H 0.53822 0.91552 0.10397 0.0
H1570 H 0.61061 0.80104 0.11247 0.0
H1571 H 0.53676 0.86094 0.08168 0.0
H1572 H 0.59749 0.79397 0.04072 0.0
H1573 H 0.59805 0.85006 0.06265 0.0
H1574 H 0.5455 0.72474 0.09657 0.0
H1575 H 0.54444 0.66909 0.0749 0.0
C1576 C 0.59572 0.85747 0.12331 0.0
C1577 C 0.57513 0.89016 0.12136 0.0
C1578 C 0.59442 0.82568 0.11048 0.0
C1579 C 0.57352 0.82636 0.09517 0.0
C1580 C 0.55345 0.85946 0.09319 0.0
C1581 C 0.55382 0.89047 0.10611 0.0
C1582 C 0.58553 0.77826 0.05282 0.0
C1583 C 0.57019 0.72652 0.05584 0.0
C1584 C 0.58582 0.81043 0.06541 0.0
C1585 C 0.57198 0.79212 0.08149 0.0
C1586 C 0.55677 0.74048 0.08445 0.0
C1587 C 0.55556 0.70825 0.07187 0.0
H1588 H 0.68923 0.51936 0.27082 0.0
H1589 H 0.81868 0.58093 0.30318 0.0
H1590 H 0.74241 0.51947 0.24855 0.0
H1591 H 0.87221 0.5808 0.28071 0.0
H1592 H 0.93771 0.52067 0.24065 0.0
H1593 H 0.88425 0.52015 0.26287 0.0
H1594 H 0.81403 0.58062 0.23072 0.0
H1595 H 0.86814 0.58138 0.20828 0.0
C1596 C 0.72892 0.53225 0.27333 0.0
C1597 C 0.74917 0.54942 0.28904 0.0
C1598 C 0.75971 0.53294 0.26039 0.0
C1599 C 0.81187 0.5502 0.26268 0.0
C1600 C 0.83217 0.56683 0.27843 0.0
C1601 C 0.80143 0.56695 0.29137 0.0
C1602 C 0.91049 0.53327 0.23813 0.0
C1603 C 0.90705 0.55037 0.22242 0.0
C1604 C 0.88013 0.53358 0.25104 0.0
C1605 C 0.84461 0.55039 0.24875 0.0
C1606 C 0.84061 0.56699 0.233 0.0
C1607 C 0.87172 0.5675 0.22009 0.0
H1608 H 0.9342 0.39899 0.44101 0.0
H1609 H 0.87049 0.48577 0.41892 0.0
H1610 H 0.85142 0.32462 0.44174 0.0
H1611 H 0.78726 0.408 0.41794 0.0
H1612 H 0.72839 0.18731 0.41877 0.0
H1613 H 0.8042 0.2694 0.42047 0.0
H1614 H 0.7141 0.34012 0.43296 0.0
H1615 H 0.63632 0.2571 0.4298 0.0
C1616 C 0.90258 0.40278 0.4365 0.0
C1617 C 0.90953 0.44897 0.42992 0.0
C1618 C 0.85495 0.3594 0.4366 0.0
C1619 C 0.8131 0.36002 0.42947 0.0
C1620 C 0.81899 0.40638 0.42347 0.0
C1621 C 0.86684 0.45067 0.42379 0.0
C1622 C 0.72421 0.2203 0.42149 0.0
C1623 C 0.67612 0.21561 0.42398 0.0
C1624 C 0.76798 0.26742 0.42281 0.0
C1625 C 0.76525 0.31112 0.4272 0.0
C1626 C 0.71728 0.30699 0.42957 0.0
C1627 C 0.67293 0.25948 0.42795 0.0
H1628 H 0.5636 0.87314 0.60752 0.0
H1629 H 0.4072 0.82106 0.59357 0.0
H1630 H 0.55007 0.78795 0.60393 0.0
H1631 H 0.39507 0.73484 0.58891 0.0
H1632 H 0.55081 0.68039 0.57064 0.0
H1633 H 0.53092 0.74769 0.57327 0.0
H1634 H 0.41005 0.6573 0.60691 0.0
H1635 H 0.42617 0.58563 0.60315 0.0
C1636 C 0.52579 0.84345 0.60412 0.0
C1637 C 0.48652 0.85439 0.60081 0.0
C1638 C 0.51833 0.79458 0.60187 0.0
C1639 C 0.47189 0.75546 0.5959 0.0
C1640 C 0.43127 0.76479 0.59347 0.0
C1641 C 0.43852 0.81412 0.59596 0.0
C1642 C 0.518 0.67256 0.57794 0.0
C1643 C 0.49096 0.62706 0.58697 0.0
C1644 C 0.50704 0.71195 0.57955 0.0
C1645 C 0.46997 0.70787 0.59057 0.0
C1646 C 0.4392 0.66118 0.59843 0.0
C1647 C 0.44924 0.62066 0.59647 0.0
H1648 H 0.72569 0.51413 0.7747 0.0
H1649 H 0.61177 0.37874 0.74955 0.0
H1650 H 0.78893 0.4906 0.76846 0.0
H1651 H 0.67832 0.35828 0.742 0.0
H1652 H 0.88728 0.50747 0.72821 0.0
H1653 H 0.80037 0.48555 0.73189 0.0
H1654 H 0.77375 0.35719 0.76183 0.0
H1655 H 0.86071 0.37495 0.75671 0.0
C1656 C 0.7132 0.47842 0.76832 0.0
C1657 C 0.66307 0.44884 0.7625 0.0
C1658 C 0.75001 0.46527 0.76462 0.0
C1659 C 0.73827 0.42316 0.75464 0.0
C1660 C 0.68789 0.39103 0.74972 0.0
C1661 C 0.65022 0.40341 0.75384 0.0
C1662 C 0.86324 0.47262 0.73478 0.0
C1663 C 0.88276 0.44429 0.74266 0.0
C1664 C 0.81289 0.46025 0.73691 0.0
C1665 C 0.78116 0.42044 0.74734 0.0
C1666 C 0.79798 0.38829 0.75377 0.0
C1667 C 0.84827 0.39949 0.75113 0.0
H1668 H 0.44417 0.91136 0.92746 0.0
H1669 H 0.55368 0.85889 0.93103 0.0
H1670 H 0.37695 0.82805 0.93555 0.0
H1671 H 0.48505 0.7739 0.93967 0.0
H1672 H 0.26988 0.70697 0.96089 0.0
H1673 H 0.3545 0.7767 0.96118 0.0
H1674 H 0.4006 0.7 0.92646 0.0
H1675 H 0.31608 0.62511 0.92755 0.0
C1676 C 0.45378 0.88174 0.92994 0.0
C1677 C 0.50391 0.89129 0.92845 0.0
C1678 C 0.4154 0.83419 0.93484 0.0
C1679 C 0.42606 0.79488 0.93856 0.0
C1680 C 0.47614 0.80388 0.93699 0.0
C1681 C 0.51512 0.85219 0.93211 0.0
C1682 C 0.29734 0.70225 0.95382 0.0
C1683 C 0.28376 0.66007 0.94339 0.0
C1684 C 0.34658 0.74335 0.95398 0.0
C1685 C 0.38315 0.74465 0.94325 0.0
C1686 C 0.37249 0.70032 0.93457 0.0
C1687 C 0.32333 0.65788 0.93489 0.0
H1688 H 0.73497 0.2653 0.08373 0.0
H1689 H 0.6153 0.2231 0.11962 0.0
H1690 H 0.74786 0.35204 0.08362 0.0
H1691 H 0.63282 0.30959 0.12062 0.0
H1692 H 0.58889 0.40668 0.08954 0.0
H1693 H 0.60215 0.33565 0.09578 0.0
H1694 H 0.76459 0.43794 0.09848 0.0
H1695 H 0.75114 0.51042 0.09179 0.0
C1696 C 0.71225 0.27416 0.09187 0.0
C1697 C 0.67198 0.23547 0.10097 0.0
C1698 C 0.72065 0.32433 0.09205 0.0
C1699 C 0.68997 0.33667 0.1017 0.0
C1700 C 0.65603 0.30047 0.11274 0.0
C1701 C 0.64642 0.25036 0.11221 0.0
C1702 C 0.62754 0.4142 0.09128 0.0
C1703 C 0.66901 0.46388 0.09003 0.0
C1704 C 0.63512 0.37362 0.09512 0.0
C1705 C 0.68435 0.38158 0.09793 0.0
C1706 C 0.72628 0.43111 0.0965 0.0
C1707 C 0.71859 0.47228 0.09271 0.0
H1708 H 0.43674 0.6007 0.27728 0.0
H1709 H 0.54717 0.73733 0.25187 0.0
H1710 H 0.37216 0.62294 0.27199 0.0
H1711 H 0.47902 0.75618 0.24519 0.0
H1712 H 0.29718 0.73817 0.25828 0.0
H1713 H 0.38389 0.75618 0.26431 0.0
H1714 H 0.35818 0.62483 0.23603 0.0
H1715 H 0.2716 0.60306 0.23143 0.0
C1716 C 0.4483 0.63643 0.27106 0.0
C1717 C 0.49775 0.66648 0.26475 0.0
C1718 C 0.41065 0.64886 0.26792 0.0
C1719 C 0.42078 0.69063 0.25802 0.0
C1720 C 0.47064 0.72362 0.25283 0.0
C1721 C 0.50922 0.71206 0.25642 0.0
C1722 C 0.30986 0.71308 0.25327 0.0
C1723 C 0.27588 0.66788 0.24484 0.0
C1724 C 0.35991 0.72427 0.25645 0.0
C1725 C 0.37689 0.69146 0.25072 0.0
C1726 C 0.34551 0.65059 0.24054 0.0
C1727 C 0.29547 0.6384 0.23783 0.0
loop_
_geom_bond_atom_site_label_1
_geom_bond_atom_site_label_2
_geom_bond_distance
_geom_bond_site_symmetry_2
_ccdc_geom_bond_type
Tb0 N31 2.660 . S
Tb0 N38 2.600 1_545 S
Tb0 O44 2.546 . S
Tb0 O45 2.610 . S
Tb0 O47 2.320 . S
Tb0 O48 2.552 . S
Tb0 O49 2.413 . S
Tb0 O51 2.362 1_545 S
Tb0 O52 2.421 1_545 S
Tb0 C64 2.833 . S
C1 C4 1.432 . S
C1 C5 1.414 . S
C1 N8 1.359 . S
C2 C4 1.417 . S
C2 C6 1.432 . S
C2 C14 1.410 . S
C3 C5 1.444 . S
C3 C6 1.317 . S
C3 H26 0.929 . S
C4 C1 1.432 . S
C4 C2 1.417 . S
C4 N12 1.360 1_545 S
C5 C1 1.414 . S
C5 C3 1.444 . S
C5 C10 1.385 . S
C6 C2 1.432 . S
C6 C3 1.317 . S
C6 H18 0.930 . S
C7 C9 1.392 . S
C7 C10 1.370 . S
C7 H19 0.931 . S
N8 C1 1.359 . S
N8 C9 1.327 . S
N8 Tb11 2.600 1_545 S
C9 C7 1.392 . S
C9 N8 1.327 . S
C9 H16 0.930 . S
C10 C5 1.385 . S
C10 C7 1.370 . S
C10 H29 0.930 . S
Tb11 N8 2.600 1_565 S
Tb11 N12 2.660 . S
Tb11 O45 2.362 1_565 S
Tb11 O46 2.421 1_565 S
Tb11 O50 2.546 . S
Tb11 O51 2.610 . S
Tb11 O53 2.320 . S
Tb11 O54 2.552 . S
Tb11 O55 2.413 . S
Tb11 C75 2.833 . S
N12 C4 1.360 1_565 S
N12 Tb11 2.660 . S
N12 C13 1.305 . S
C13 N12 1.305 . S
C13 C15 1.407 . S
C13 H20 0.930 . S
C14 C2 1.410 . S
C14 C15 1.345 1_545 S
C14 H22 0.930 . S
C15 C13 1.407 . S
C15 C14 1.345 1_565 S
C15 H17 0.930 . S
H16 C9 0.930 . S
H17 C15 0.930 . S
H18 C6 0.930 . S
H19 C7 0.931 . S
H20 C13 0.930 . S
H21 C35 0.930 . S
H22 C14 0.930 . S
H23 C41 0.930 . S
H24 C32 0.930 . S
H25 C39 0.931 . S
H26 C3 0.929 . S
H27 C33 0.930 . S
H28 C66 0.930 . S
H29 C10 0.930 . S
H30 C65 0.929 . S
N31 Tb0 2.660 . S
N31 C32 1.305 . S
N31 C36 1.360 1_545 S
C32 H24 0.930 . S
C32 N31 1.305 . S
C32 C35 1.407 . S
C33 H27 0.930 . S
C33 C34 1.410 . S
C33 C35 1.345 1_565 S
C34 C33 1.410 . S
C34 C36 1.417 . S
C34 C66 1.432 . S
C35 H21 0.930 . S
C35 C32 1.407 . S
C35 C33 1.345 1_545 S
C36 N31 1.360 1_565 S
C36 C34 1.417 . S
C36 C40 1.432 . S
H37 C42 0.930 . S
N38 Tb0 2.600 1_565 S
N38 C40 1.359 . S
N38 C41 1.327 . S
C39 H25 0.931 . S
C39 C41 1.392 . S
C39 C42 1.370 . S
C40 C36 1.432 . S
C40 N38 1.359 . S
C40 C43 1.414 . S
C41 H23 0.930 . S
C41 N38 1.327 . S
C41 C39 1.392 . S
C42 H37 0.930 . S
C42 C39 1.370 . S
C42 C43 1.385 . S
C43 C40 1.414 . S
C43 C42 1.385 . S
C43 C65 1.444 . S
O44 Tb0 2.546 . S
O44 C64 1.251 . S
O45 Tb0 2.610 . S
O45 Tb11 2.362 1_545 S
O45 C56 1.283 . S
O46 Tb11 2.421 1_545 S
O46 C63 1.262 . S
O47 Tb0 2.320 . S
O47 C63 1.260 . S
O48 Tb0 2.552 . S
O48 C56 1.243 . S
O49 Tb0 2.413 . S
O49 C64 1.256 . S
O50 Tb11 2.546 . S
O50 C75 1.251 . S
O51 Tb0 2.362 1_565 S
O51 Tb11 2.610 . S
O51 C67 1.283 . S
O52 Tb0 2.421 1_565 S
O52 C74 1.262 . S
O53 Tb11 2.320 . S
O53 C74 1.260 . S
O54 Tb11 2.552 . S
O54 C67 1.243 . S
O55 Tb11 2.413 . S
O55 C75 1.256 . S
C56 O45 1.283 . S
C56 O48 1.243 . S
C57 C59 1.382 . S
C57 C61 1.393 . S
C57 C64 1.500 . S
C58 C59 1.400 . S
C58 C60 1.384 . S
C59 C57 1.382 . S
C59 C58 1.400 . S
C59 H76 0.930 . S
C60 C58 1.384 . S
C60 C62 1.392 . S
C60 H77 0.931 . S
C61 C57 1.393 . S
C61 C62 1.401 . S
C61 H78 0.930 . S
C62 C60 1.392 . S
C62 C61 1.401 . S
C62 H79 0.930 . S
C63 O46 1.262 . S
C63 O47 1.260 . S
C64 Tb0 2.833 . S
C64 O44 1.251 . S
C64 O49 1.256 . S
C64 C57 1.500 . S
C65 H30 0.929 . S
C65 C43 1.444 . S
C65 C66 1.317 . S
C66 H28 0.930 . S
C66 C34 1.432 . S
C66 C65 1.317 . S
C67 O51 1.283 . S
C67 O54 1.243 . S
C68 C69 1.382 . S
C68 C72 1.393 . S
C68 C75 1.500 . S
C69 C68 1.382 . S
C69 C70 1.400 . S
C69 H80 0.930 . S
C70 C69 1.400 . S
C70 C71 1.384 . S
C71 C70 1.384 . S
C71 C73 1.392 . S
C71 H81 0.931 . S
C72 C68 1.393 . S
C72 C73 1.401 . S
C72 H82 0.930 . S
C73 C71 1.392 . S
C73 C72 1.401 . S
C73 H83 0.930 . S
C74 O52 1.262 . S
C74 O53 1.260 . S
C75 Tb11 2.833 . S
C75 O50 1.251 . S
C75 O55 1.256 . S
C75 C68 1.500 . S
H76 C59 0.930 . S
H77 C60 0.931 . S
H78 C61 0.930 . S
H79 C62 0.930 . S
H80 C69 0.930 . S
H81 C71 0.931 . S
H82 C72 0.930 . S
H83 C73 0.930 . S
Tb84 N115 2.660 . S
Tb84 N122 2.600 . S
Tb84 O128 2.546 . S
Tb84 O129 2.610 . S
Tb84 O131 2.320 . S
Tb84 O132 2.552 . S
Tb84 O133 2.413 . S
Tb84 O135 2.362 . S
Tb84 O136 2.421 . S
Tb84 C148 2.833 . S
C85 C88 1.432 . S
C85 C89 1.414 . S
C85 N92 1.359 . S
C86 C88 1.417 . S
C86 C90 1.432 . S
C86 C98 1.410 . S
C87 C89 1.444 . S
C87 C90 1.317 . S
C87 H110 0.929 . S
C88 C85 1.432 . S
C88 C86 1.417 . S
C88 N96 1.360 . S
C89 C85 1.414 . S
C89 C87 1.444 . S
C89 C94 1.385 . S
C90 C86 1.432 . S
C90 C87 1.317 . S
C90 H102 0.930 . S
C91 C93 1.392 . S
C91 C94 1.370 . S
C91 H103 0.931 . S
N92 C85 1.359 . S
N92 C93 1.327 . S
N92 Tb95 2.600 . S
C93 C91 1.392 . S
C93 N92 1.327 . S
C93 H100 0.930 . S
C94 C89 1.385 . S
C94 C91 1.370 . S
C94 H113 0.930 . S
Tb95 N92 2.600 . S
Tb95 N96 2.660 . S
Tb95 O129 2.362 . S
Tb95 O130 2.421 . S
Tb95 O134 2.546 . S
Tb95 O135 2.610 . S
Tb95 O137 2.320 . S
Tb95 O138 2.552 . S
Tb95 O139 2.413 . S
Tb95 C159 2.833 . S
N96 C88 1.360 . S
N96 Tb95 2.660 . S
N96 C97 1.305 . S
C97 N96 1.305 . S
C97 C99 1.407 . S
C97 H104 0.930 . S
C98 C86 1.410 . S
C98 C99 1.345 . S
C98 H106 0.930 . S
C99 C97 1.407 . S
C99 C98 1.345 . S
C99 H101 0.930 . S
H100 C93 0.930 . S
H101 C99 0.930 . S
H102 C90 0.930 . S
H103 C91 0.931 . S
H104 C97 0.930 . S
H105 C119 0.930 . S
H106 C98 0.930 . S
H107 C125 0.930 . S
H108 C116 0.930 . S
H109 C123 0.931 . S
H110 C87 0.929 . S
H111 C117 0.930 . S
H112 C150 0.930 . S
H113 C94 0.930 . S
H114 C149 0.929 . S
N115 Tb84 2.660 . S
N115 C116 1.305 . S
N115 C120 1.360 . S
C116 H108 0.930 . S
C116 N115 1.305 . S
C116 C119 1.407 . S
C117 H111 0.930 . S
C117 C118 1.410 . S
C117 C119 1.345 . S
C118 C117 1.410 . S
C118 C120 1.417 . S
C118 C150 1.432 . S
C119 H105 0.930 . S
C119 C116 1.407 . S
C119 C117 1.345 . S
C120 N115 1.360 . S
C120 C118 1.417 . S
C120 C124 1.432 . S
H121 C126 0.930 . S
N122 Tb84 2.600 . S
N122 C124 1.359 . S
N122 C125 1.327 . S
C123 H109 0.931 . S
C123 C125 1.392 . S
C123 C126 1.370 . S
C124 C120 1.432 . S
C124 N122 1.359 . S
C124 C127 1.414 . S
C125 H107 0.930 . S
C125 N122 1.327 . S
C125 C123 1.392 . S
C126 H121 0.930 . S
C126 C123 1.370 . S
C126 C127 1.385 . S
C127 C124 1.414 . S
C127 C126 1.385 . S
C127 C149 1.444 . S
O128 Tb84 2.546 . S
O128 C148 1.251 . S
O129 Tb84 2.610 . S
O129 Tb95 2.362 . S
O129 C140 1.283 . S
O130 Tb95 2.421 . S
O130 C147 1.262 . S
O131 Tb84 2.320 . S
O131 C147 1.260 . S
O132 Tb84 2.552 . S
O132 C140 1.243 . S
O133 Tb84 2.413 . S
O133 C148 1.256 . S
O134 Tb95 2.546 . S
O134 C159 1.251 . S
O135 Tb84 2.362 . S
O135 Tb95 2.610 . S
O135 C151 1.283 . S
O136 Tb84 2.421 . S
O136 C158 1.262 . S
O137 Tb95 2.320 . S
O137 C158 1.260 . S
O138 Tb95 2.552 . S
O138 C151 1.243 . S
O139 Tb95 2.413 . S
O139 C159 1.256 . S
C140 O129 1.283 . S
C140 O132 1.243 . S
C141 C143 1.382 . S
C141 C145 1.393 . S
C141 C148 1.500 . S
C142 C143 1.400 . S
C142 C144 1.384 . S
C143 C141 1.382 . S
C143 C142 1.400 . S
C143 H160 0.930 . S
C144 C142 1.384 . S
C144 C146 1.392 . S
C144 H161 0.931 . S
C145 C141 1.393 . S
C145 C146 1.401 . S
C145 H162 0.930 . S
C146 C144 1.392 . S
C146 C145 1.401 . S
C146 H163 0.930 . S
C147 O130 1.262 . S
C147 O131 1.260 . S
C148 Tb84 2.833 . S
C148 O128 1.251 . S
C148 O133 1.256 . S
C148 C141 1.500 . S
C149 H114 0.929 . S
C149 C127 1.444 . S
C149 C150 1.317 . S
C150 H112 0.930 . S
C150 C118 1.432 . S
C150 C149 1.317 . S
C151 O135 1.283 . S
C151 O138 1.243 . S
C152 C153 1.382 . S
C152 C156 1.393 . S
C152 C159 1.500 . S
C153 C152 1.382 . S
C153 C154 1.400 . S
C153 H164 0.930 . S
C154 C153 1.400 . S
C154 C155 1.384 . S
C155 C154 1.384 . S
C155 C157 1.392 . S
C155 H165 0.931 . S
C156 C152 1.393 . S
C156 C157 1.401 . S
C156 H166 0.930 . S
C157 C155 1.392 . S
C157 C156 1.401 . S
C157 H167 0.930 . S
C158 O136 1.262 . S
C158 O137 1.260 . S
C159 Tb95 2.833 . S
C159 O134 1.251 . S
C159 O139 1.256 . S
C159 C152 1.500 . S
H160 C143 0.930 . S
H161 C144 0.931 . S
H162 C145 0.930 . S
H163 C146 0.930 . S
H164 C153 0.930 . S
H165 C155 0.931 . S
H166 C156 0.930 . S
H167 C157 0.930 . S
Tb168 N199 2.660 . S
Tb168 N206 2.600 1_655 S
Tb168 O212 2.546 . S
Tb168 O213 2.610 . S
Tb168 O215 2.320 . S
Tb168 O216 2.552 . S
Tb168 O217 2.413 . S
Tb168 O219 2.362 1_655 S
Tb168 O220 2.421 1_655 S
Tb168 C232 2.833 . S
C169 C172 1.432 . S
C169 C173 1.414 . S
C169 N176 1.359 . S
C170 C172 1.417 . S
C170 C174 1.432 . S
C170 C182 1.410 1_655 S
C171 C173 1.444 . S
C171 C174 1.317 . S
C171 H194 0.929 . S
C172 C169 1.432 . S
C172 C170 1.417 . S
C172 N180 1.360 1_655 S
C173 C169 1.414 . S
C173 C171 1.444 . S
C173 C178 1.385 . S
C174 C170 1.432 . S
C174 C171 1.317 . S
C174 H186 0.930 . S
C175 C177 1.392 . S
C175 C178 1.370 . S
C175 H187 0.931 . S
N176 C169 1.359 . S
N176 C177 1.327 . S
N176 Tb179 2.600 1_655 S
C177 C175 1.392 . S
C177 N176 1.327 . S
C177 H184 0.930 . S
C178 C173 1.385 . S
C178 C175 1.370 . S
C178 H197 0.930 . S
Tb179 N176 2.600 1_455 S
Tb179 N180 2.660 . S
Tb179 O213 2.362 1_455 S
Tb179 O214 2.421 1_455 S
Tb179 O218 2.546 . S
Tb179 O219 2.610 . S
Tb179 O221 2.320 . S
Tb179 O222 2.552 . S
Tb179 O223 2.413 . S
Tb179 C243 2.833 . S
N180 C172 1.360 1_455 S
N180 Tb179 2.660 . S
N180 C181 1.305 . S
C181 N180 1.305 . S
C181 C183 1.407 . S
C181 H188 0.930 . S
C182 C170 1.410 1_455 S
C182 C183 1.345 . S
C182 H190 0.927 . S
C183 C181 1.407 . S
C183 C182 1.345 . S
C183 H185 0.930 . S
H184 C177 0.930 . S
H185 C183 0.930 . S
H186 C174 0.930 . S
H187 C175 0.931 . S
H188 C181 0.930 . S
H189 C203 0.930 . S
H190 C182 0.927 . S
H191 C209 0.930 . S
H192 C200 0.930 . S
H193 C207 0.931 . S
H194 C171 0.929 . S
H195 C201 0.925 . S
H196 C234 0.930 . S
H197 C178 0.930 . S
H198 C233 0.929 . S
N199 Tb168 2.660 . S
N199 C200 1.305 . S
N199 C204 1.360 1_655 S
C200 H192 0.930 . S
C200 N199 1.305 . S
C200 C203 1.407 . S
C201 H195 0.925 . S
C201 C202 1.410 1_655 S
C201 C203 1.345 . S
C202 C201 1.410 1_455 S
C202 C204 1.417 . S
C202 C234 1.432 . S
C203 H189 0.930 . S
C203 C200 1.407 . S
C203 C201 1.345 . S
C204 N199 1.360 1_455 S
C204 C202 1.417 . S
C204 C208 1.432 . S
H205 C210 0.930 . S
N206 Tb168 2.600 1_455 S
N206 C208 1.359 . S
N206 C209 1.327 . S
C207 H193 0.931 . S
C207 C209 1.392 . S
C207 C210 1.370 . S
C208 C204 1.432 . S
C208 N206 1.359 . S
C208 C211 1.414 . S
C209 H191 0.930 . S
C209 N206 1.327 . S
C209 C207 1.392 . S
C210 H205 0.930 . S
C210 C207 1.370 . S
C210 C211 1.385 . S
C211 C208 1.414 . S
C211 C210 1.385 . S
C211 C233 1.444 . S
O212 Tb168 2.546 . S
O212 C232 1.251 . S
O213 Tb168 2.610 . S
O213 Tb179 2.362 1_655 S
O213 C224 1.283 . S
O214 Tb179 2.421 1_655 S
O214 C231 1.262 . S
O215 Tb168 2.320 . S
O215 C231 1.260 . S
O216 Tb168 2.552 . S
O216 C224 1.243 . S
O217 Tb168 2.413 . S
O217 C232 1.256 . S
O218 Tb179 2.546 . S
O218 C243 1.251 . S
O219 Tb168 2.362 1_455 S
O219 Tb179 2.610 . S
O219 C235 1.283 . S
O220 Tb168 2.421 1_455 S
O220 C242 1.262 . S
O221 Tb179 2.320 . S
O221 C242 1.260 . S
O222 Tb179 2.552 . S
O222 C235 1.243 . S
O223 Tb179 2.413 . S
O223 C243 1.256 . S
C224 O213 1.283 . S
C224 O216 1.243 . S
C225 C227 1.382 . S
C225 C229 1.393 . S
C225 C232 1.500 . S
C226 C227 1.400 . S
C226 C228 1.384 . S
C227 C225 1.382 . S
C227 C226 1.400 . S
C227 H244 0.930 . S
C228 C226 1.384 . S
C228 C230 1.392 . S
C228 H245 0.931 . S
C229 C225 1.393 . S
C229 C230 1.401 . S
C229 H246 0.930 . S
C230 C228 1.392 . S
C230 C229 1.401 . S
C230 H247 0.930 . S
C231 O214 1.262 . S
C231 O215 1.260 . S
C232 Tb168 2.833 . S
C232 O212 1.251 . S
C232 O217 1.256 . S
C232 C225 1.500 . S
C233 H198 0.929 . S
C233 C211 1.444 . S
C233 C234 1.317 . S
C234 H196 0.930 . S
C234 C202 1.432 . S
C234 C233 1.317 . S
C235 O219 1.283 . S
C235 O222 1.243 . S
C236 C237 1.382 . S
C236 C240 1.393 . S
C236 C243 1.500 . S
C237 C236 1.382 . S
C237 C238 1.400 . S
C237 H248 0.930 . S
C238 C237 1.400 . S
C238 C239 1.384 . S
C239 C238 1.384 . S
C239 C241 1.392 . S
C239 H249 0.931 . S
C240 C236 1.393 . S
C240 C241 1.401 . S
C240 H250 0.930 . S
C241 C239 1.392 . S
C241 C240 1.401 . S
C241 H251 0.930 . S
C242 O220 1.262 . S
C242 O221 1.260 . S
C243 Tb179 2.833 . S
C243 O218 1.251 . S
C243 O223 1.256 . S
C243 C236 1.500 . S
H244 C227 0.930 . S
H245 C228 0.931 . S
H246 C229 0.930 . S
H247 C230 0.930 . S
H248 C237 0.930 . S
H249 C239 0.931 . S
H250 C240 0.930 . S
H251 C241 0.930 . S
Tb252 N283 2.660 . S
Tb252 N290 2.600 1_565 S
Tb252 O296 2.546 . S
Tb252 O297 2.610 . S
Tb252 O299 2.320 . S
Tb252 O300 2.552 . S
Tb252 O301 2.413 . S
Tb252 O303 2.362 1_565 S
Tb252 O304 2.421 1_565 S
Tb252 C316 2.833 . S
C253 C256 1.432 . S
C253 C257 1.414 . S
C253 N260 1.359 . S
C254 C256 1.417 . S
C254 C258 1.432 . S
C254 C266 1.410 . S
C255 C257 1.444 . S
C255 C258 1.317 . S
C255 H278 0.929 . S
C256 C253 1.432 . S
C256 C254 1.417 . S
C256 N264 1.360 1_565 S
C257 C253 1.414 . S
C257 C255 1.444 . S
C257 C262 1.385 . S
C258 C254 1.432 . S
C258 C255 1.317 . S
C258 H270 0.930 . S
C259 C261 1.392 . S
C259 C262 1.370 . S
C259 H271 0.931 . S
N260 C253 1.359 . S
N260 C261 1.327 . S
N260 Tb263 2.600 1_565 S
C261 C259 1.392 . S
C261 N260 1.327 . S
C261 H268 0.930 . S
C262 C257 1.385 . S
C262 C259 1.370 . S
C262 H281 0.930 . S
Tb263 N260 2.600 1_545 S
Tb263 N264 2.660 . S
Tb263 O297 2.362 1_545 S
Tb263 O298 2.421 1_545 S
Tb263 O302 2.546 . S
Tb263 O303 2.610 . S
Tb263 O305 2.320 . S
Tb263 O306 2.552 . S
Tb263 O307 2.413 . S
Tb263 C327 2.833 . S
N264 C256 1.360 1_545 S
N264 Tb263 2.660 . S
N264 C265 1.305 . S
C265 N264 1.305 . S
C265 C267 1.407 . S
C265 H272 0.930 . S
C266 C254 1.410 . S
C266 C267 1.345 1_565 S
C266 H274 0.930 . S
C267 C265 1.407 . S
C267 C266 1.345 1_545 S
C267 H269 0.930 . S
H268 C261 0.930 . S
H269 C267 0.930 . S
H270 C258 0.930 . S
H271 C259 0.931 . S
H272 C265 0.930 . S
H273 C287 0.930 . S
H274 C266 0.930 . S
H275 C293 0.930 . S
H276 C284 0.930 . S
H277 C291 0.931 . S
H278 C255 0.929 . S
H279 C285 0.930 . S
H280 C318 0.930 . S
H281 C262 0.930 . S
H282 C317 0.929 . S
N283 Tb252 2.660 . S
N283 C284 1.305 . S
N283 C288 1.360 1_565 S
C284 H276 0.930 . S
C284 N283 1.305 . S
C284 C287 1.407 . S
C285 H279 0.930 . S
C285 C286 1.410 . S
C285 C287 1.345 1_545 S
C286 C285 1.410 . S
C286 C288 1.417 . S
C286 C318 1.432 . S
C287 H273 0.930 . S
C287 C284 1.407 . S
C287 C285 1.345 1_565 S
C288 N283 1.360 1_545 S
C288 C286 1.417 . S
C288 C292 1.432 . S
H289 C294 0.930 . S
N290 Tb252 2.600 1_545 S
N290 C292 1.359 . S
N290 C293 1.327 . S
C291 H277 0.931 . S
C291 C293 1.392 . S
C291 C294 1.370 . S
C292 C288 1.432 . S
C292 N290 1.359 . S
C292 C295 1.414 . S
C293 H275 0.930 . S
C293 N290 1.327 . S
C293 C291 1.392 . S
C294 H289 0.930 . S
C294 C291 1.370 . S
C294 C295 1.385 . S
C295 C292 1.414 . S
C295 C294 1.385 . S
C295 C317 1.444 . S
O296 Tb252 2.546 . S
O296 C316 1.251 . S
O297 Tb252 2.610 . S
O297 Tb263 2.362 1_565 S
O297 C308 1.283 . S
O298 Tb263 2.421 1_565 S
O298 C315 1.262 . S
O299 Tb252 2.320 . S
O299 C315 1.260 . S
O300 Tb252 2.552 . S
O300 C308 1.243 . S
O301 Tb252 2.413 . S
O301 C316 1.256 . S
O302 Tb263 2.546 . S
O302 C327 1.251 . S
O303 Tb252 2.362 1_545 S
O303 Tb263 2.610 . S
O303 C319 1.283 . S
O304 Tb252 2.421 1_545 S
O304 C326 1.262 . S
O305 Tb263 2.320 . S
O305 C326 1.260 . S
O306 Tb263 2.552 . S
O306 C319 1.243 . S
O307 Tb263 2.413 . S
O307 C327 1.256 . S
C308 O297 1.283 . S
C308 O300 1.243 . S
C309 C311 1.382 . S
C309 C313 1.393 . S
C309 C316 1.500 . S
C310 C311 1.400 . S
C310 C312 1.384 . S
C311 C309 1.382 . S
C311 C310 1.400 . S
C311 H328 0.930 . S
C312 C310 1.384 . S
C312 C314 1.392 . S
C312 H329 0.931 . S
C313 C309 1.393 . S
C313 C314 1.401 . S
C313 H330 0.930 . S
C314 C312 1.392 . S
C314 C313 1.401 . S
C314 H331 0.930 . S
C315 O298 1.262 . S
C315 O299 1.260 . S
C316 Tb252 2.833 . S
C316 O296 1.251 . S
C316 O301 1.256 . S
C316 C309 1.500 . S
C317 H282 0.929 . S
C317 C295 1.444 . S
C317 C318 1.317 . S
C318 H280 0.930 . S
C318 C286 1.432 . S
C318 C317 1.317 . S
C319 O303 1.283 . S
C319 O306 1.243 . S
C320 C321 1.382 . S
C320 C324 1.393 . S
C320 C327 1.500 . S
C321 C320 1.382 . S
C321 C322 1.400 . S
C321 H332 0.930 . S
C322 C321 1.400 . S
C322 C323 1.384 . S
C323 C322 1.384 . S
C323 C325 1.392 . S
C323 H333 0.931 . S
C324 C320 1.393 . S
C324 C325 1.401 . S
C324 H334 0.930 . S
C325 C323 1.392 . S
C325 C324 1.401 . S
C325 H335 0.930 . S
C326 O304 1.262 . S
C326 O305 1.260 . S
C327 Tb263 2.833 . S
C327 O302 1.251 . S
C327 O307 1.256 . S
C327 C320 1.500 . S
H328 C311 0.930 . S
H329 C312 0.931 . S
H330 C313 0.930 . S
H331 C314 0.930 . S
H332 C321 0.930 . S
H333 C323 0.931 . S
H334 C324 0.930 . S
H335 C325 0.930 . S
Tb336 N367 2.660 . S
Tb336 N374 2.600 . S
Tb336 O380 2.546 . S
Tb336 O381 2.610 . S
Tb336 O383 2.320 . S
Tb336 O384 2.552 . S
Tb336 O385 2.413 . S
Tb336 O387 2.362 . S
Tb336 O388 2.421 . S
Tb336 C400 2.833 . S
C337 C340 1.432 . S
C337 C341 1.414 . S
C337 N344 1.359 . S
C338 C340 1.417 . S
C338 C342 1.432 . S
C338 C350 1.410 . S
C339 C341 1.444 . S
C339 C342 1.317 . S
C339 H362 0.929 . S
C340 C337 1.432 . S
C340 C338 1.417 . S
C340 N348 1.360 . S
C341 C337 1.414 . S
C341 C339 1.444 . S
C341 C346 1.385 1_554 S
C342 C338 1.432 . S
C342 C339 1.317 . S
C342 H354 0.930 . S
C343 C345 1.392 . S
C343 C346 1.370 . S
C343 H355 0.931 . S
N344 C337 1.359 . S
N344 C345 1.327 1_554 S
N344 Tb347 2.600 . S
C345 C343 1.392 . S
C345 N344 1.327 1_556 S
C345 H352 0.930 . S
C346 C341 1.385 1_556 S
C346 C343 1.370 . S
C346 H365 0.930 . S
Tb347 N344 2.600 . S
Tb347 N348 2.660 . S
Tb347 O381 2.362 . S
Tb347 O382 2.421 . S
Tb347 O386 2.546 1_554 S
Tb347 O387 2.610 . S
Tb347 O389 2.320 . S
Tb347 O390 2.552 . S
Tb347 O391 2.413 . S
Tb347 C411 2.833 1_554 S
N348 C340 1.360 . S
N348 Tb347 2.660 . S
N348 C349 1.305 . S
C349 N348 1.305 . S
C349 C351 1.407 . S
C349 H356 0.930 . S
C350 C338 1.410 . S
C350 C351 1.345 . S
C350 H358 0.930 . S
C351 C349 1.407 . S
C351 C350 1.345 . S
C351 H353 0.930 . S
H352 C345 0.930 . S
H353 C351 0.930 . S
H354 C342 0.930 . S
H355 C343 0.931 . S
H356 C349 0.930 . S
H357 C371 0.930 1_556 S
H358 C350 0.930 . S
H359 C377 0.930 . S
H360 C368 0.930 . S
H361 C375 0.931 . S
H362 C339 0.929 . S
H363 C369 0.930 . S
H364 C402 0.930 . S
H365 C346 0.930 . S
H366 C401 0.929 . S
N367 Tb336 2.660 . S
N367 C368 1.305 . S
N367 C372 1.360 . S
C368 H360 0.930 . S
C368 N367 1.305 . S
C368 C371 1.407 . S
C369 H363 0.930 . S
C369 C370 1.410 . S
C369 C371 1.345 . S
C370 C369 1.410 . S
C370 C372 1.417 . S
C370 C402 1.432 . S
C371 H357 0.930 1_554 S
C371 C368 1.407 . S
C371 C369 1.345 . S
C372 N367 1.360 . S
C372 C370 1.417 . S
C372 C376 1.432 . S
H373 C378 0.930 . S
N374 Tb336 2.600 . S
N374 C376 1.359 . S
N374 C377 1.327 . S
C375 H361 0.931 . S
C375 C377 1.392 . S
C375 C378 1.370 . S
C376 C372 1.432 . S
C376 N374 1.359 . S
C376 C379 1.414 . S
C377 H359 0.930 . S
C377 N374 1.327 . S
C377 C375 1.392 . S
C378 H373 0.930 . S
C378 C375 1.370 . S
C378 C379 1.385 . S
C379 C376 1.414 . S
C379 C378 1.385 . S
C379 C401 1.444 . S
O380 Tb336 2.546 . S
O380 C400 1.251 . S
O381 Tb336 2.610 . S
O381 Tb347 2.362 . S
O381 C392 1.283 . S
O382 Tb347 2.421 . S
O382 C399 1.262 . S
O383 Tb336 2.320 . S
O383 C399 1.260 . S
O384 Tb336 2.552 . S
O384 C392 1.243 . S
O385 Tb336 2.413 . S
O385 C400 1.256 . S
O386 Tb347 2.546 1_556 S
O386 C411 1.251 . S
O387 Tb336 2.362 . S
O387 Tb347 2.610 . S
O387 C403 1.283 . S
O388 Tb336 2.421 . S
O388 C410 1.262 . S
O389 Tb347 2.320 . S
O389 C410 1.260 . S
O390 Tb347 2.552 . S
O390 C403 1.243 . S
O391 Tb347 2.413 . S
O391 C411 1.256 1_554 S
C392 O381 1.283 . S
C392 O384 1.243 . S
C393 C395 1.382 . S
C393 C397 1.393 . S
C393 C400 1.500 . S
C394 C395 1.400 . S
C394 C396 1.384 . S
C395 C393 1.382 . S
C395 C394 1.400 . S
C395 H412 0.930 . S
C396 C394 1.384 . S
C396 C398 1.392 . S
C396 H413 0.931 . S
C397 C393 1.393 . S
C397 C398 1.401 . S
C397 H414 0.930 . S
C398 C396 1.392 . S
C398 C397 1.401 . S
C398 H415 0.930 . S
C399 O382 1.262 . S
C399 O383 1.260 . S
C400 Tb336 2.833 . S
C400 O380 1.251 . S
C400 O385 1.256 . S
C400 C393 1.500 . S
C401 H366 0.929 . S
C401 C379 1.444 . S
C401 C402 1.317 . S
C402 H364 0.930 . S
C402 C370 1.432 . S
C402 C401 1.317 . S
C403 O387 1.283 . S
C403 O390 1.243 . S
C404 C405 1.382 . S
C404 C408 1.393 . S
C404 C411 1.500 . S
C405 C404 1.382 . S
C405 C406 1.400 . S
C405 H416 0.930 . S
C406 C405 1.400 . S
C406 C407 1.384 . S
C407 C406 1.384 . S
C407 C409 1.392 . S
C407 H417 0.931 . S
C408 C404 1.393 . S
C408 C409 1.401 . S
C408 H418 0.930 . S
C409 C407 1.392 . S
C409 C408 1.401 . S
C409 H419 0.930 . S
C410 O388 1.262 . S
C410 O389 1.260 . S
C411 Tb347 2.833 1_556 S
C411 O386 1.251 . S
C411 O391 1.256 1_556 S
C411 C404 1.500 . S
H412 C395 0.930 . S
H413 C396 0.931 . S
H414 C397 0.930 . S
H415 C398 0.930 . S
H416 C405 0.930 . S
H417 C407 0.931 . S
H418 C408 0.930 . S
H419 C409 0.930 . S
Tb420 N451 2.660 . S
Tb420 N458 2.600 1_455 S
Tb420 O464 2.546 . S
Tb420 O465 2.610 . S
Tb420 O467 2.320 . S
Tb420 O468 2.552 . S
Tb420 O469 2.413 . S
Tb420 O471 2.362 1_455 S
Tb420 O472 2.421 1_455 S
Tb420 C484 2.833 . S
C421 C424 1.432 . S
C421 C425 1.414 . S
C421 N428 1.359 . S
C422 C424 1.417 . S
C422 C426 1.432 . S
C422 C434 1.410 1_455 S
C423 C425 1.444 . S
C423 C426 1.317 . S
C423 H446 0.929 . S
C424 C421 1.432 . S
C424 C422 1.417 . S
C424 N432 1.360 1_455 S
C425 C421 1.414 . S
C425 C423 1.444 . S
C425 C430 1.385 . S
C426 C422 1.432 . S
C426 C423 1.317 . S
C426 H438 0.930 . S
C427 C429 1.392 . S
C427 C430 1.370 . S
C427 H439 0.931 . S
N428 C421 1.359 . S
N428 C429 1.327 . S
N428 Tb431 2.600 1_455 S
C429 C427 1.392 . S
C429 N428 1.327 . S
C429 H436 0.930 . S
C430 C425 1.385 . S
C430 C427 1.370 . S
C430 H449 0.930 . S
Tb431 N428 2.600 1_655 S
Tb431 N432 2.660 . S
Tb431 O465 2.362 1_655 S
Tb431 O466 2.421 1_655 S
Tb431 O470 2.546 . S
Tb431 O471 2.610 . S
Tb431 O473 2.320 . S
Tb431 O474 2.552 . S
Tb431 O475 2.413 . S
Tb431 C495 2.833 . S
N432 C424 1.360 1_655 S
N432 Tb431 2.660 . S
N432 C433 1.305 . S
C433 N432 1.305 . S
C433 C435 1.407 . S
C433 H440 0.930 . S
C434 C422 1.410 1_655 S
C434 C435 1.345 . S
C434 H442 0.927 . S
C435 C433 1.407 . S
C435 C434 1.345 . S
C435 H437 0.930 . S
H436 C429 0.930 . S
H437 C435 0.930 . S
H438 C426 0.930 . S
H439 C427 0.931 . S
H440 C433 0.930 . S
H441 C455 0.930 . S
H442 C434 0.927 . S
H443 C461 0.930 . S
H444 C452 0.930 . S
H445 C459 0.931 . S
H446 C423 0.929 . S
H447 C453 0.925 . S
H448 C486 0.930 . S
H449 C430 0.930 . S
H450 C485 0.929 . S
N451 Tb420 2.660 . S
N451 C452 1.305 . S
N451 C456 1.360 1_455 S
C452 H444 0.930 . S
C452 N451 1.305 . S
C452 C455 1.407 . S
C453 H447 0.925 . S
C453 C454 1.410 1_455 S
C453 C455 1.345 . S
C454 C453 1.410 1_655 S
C454 C456 1.417 . S
C454 C486 1.432 . S
C455 H441 0.930 . S
C455 C452 1.407 . S
C455 C453 1.345 . S
C456 N451 1.360 1_655 S
C456 C454 1.417 . S
C456 C460 1.432 . S
H457 C462 0.930 . S
N458 Tb420 2.600 1_655 S
N458 C460 1.359 . S
N458 C461 1.327 . S
C459 H445 0.931 . S
C459 C461 1.392 . S
C459 C462 1.370 . S
C460 C456 1.432 . S
C460 N458 1.359 . S
C460 C463 1.414 . S
C461 H443 0.930 . S
C461 N458 1.327 . S
C461 C459 1.392 . S
C462 H457 0.930 . S
C462 C459 1.370 . S
C462 C463 1.385 . S
C463 C460 1.414 . S
C463 C462 1.385 . S
C463 C485 1.444 . S
O464 Tb420 2.546 . S
O464 C484 1.251 . S
O465 Tb420 2.610 . S
O465 Tb431 2.362 1_455 S
O465 C476 1.283 . S
O466 Tb431 2.421 1_455 S
O466 C483 1.262 . S
O467 Tb420 2.320 . S
O467 C483 1.260 . S
O468 Tb420 2.552 . S
O468 C476 1.243 . S
O469 Tb420 2.413 . S
O469 C484 1.256 . S
O470 Tb431 2.546 . S
O470 C495 1.251 . S
O471 Tb420 2.362 1_655 S
O471 Tb431 2.610 . S
O471 C487 1.283 . S
O472 Tb420 2.421 1_655 S
O472 C494 1.262 . S
O473 Tb431 2.320 . S
O473 C494 1.260 . S
O474 Tb431 2.552 . S
O474 C487 1.243 . S
O475 Tb431 2.413 . S
O475 C495 1.256 . S
C476 O465 1.283 . S
C476 O468 1.243 . S
C477 C479 1.382 . S
C477 C481 1.393 . S
C477 C484 1.500 . S
C478 C479 1.400 . S
C478 C480 1.384 . S
C479 C477 1.382 . S
C479 C478 1.400 . S
C479 H496 0.930 . S
C480 C478 1.384 . S
C480 C482 1.392 . S
C480 H497 0.931 . S
C481 C477 1.393 . S
C481 C482 1.401 . S
C481 H498 0.930 . S
C482 C480 1.392 . S
C482 C481 1.401 . S
C482 H499 0.930 . S
C483 O466 1.262 . S
C483 O467 1.260 . S
C484 Tb420 2.833 . S
C484 O464 1.251 . S
C484 O469 1.256 . S
C484 C477 1.500 . S
C485 H450 0.929 . S
C485 C463 1.444 . S
C485 C486 1.317 . S
C486 H448 0.930 . S
C486 C454 1.432 . S
C486 C485 1.317 . S
C487 O471 1.283 . S
C487 O474 1.243 . S
C488 C489 1.382 . S
C488 C492 1.393 . S
C488 C495 1.500 . S
C489 C488 1.382 . S
C489 C490 1.400 . S
C489 H500 0.930 . S
C490 C489 1.400 . S
C490 C491 1.384 . S
C491 C490 1.384 . S
C491 C493 1.392 . S
C491 H501 0.931 . S
C492 C488 1.393 . S
C492 C493 1.401 . S
C492 H502 0.930 . S
C493 C491 1.392 . S
C493 C492 1.401 . S
C493 H503 0.930 . S
C494 O472 1.262 . S
C494 O473 1.260 . S
C495 Tb431 2.833 . S
C495 O470 1.251 . S
C495 O475 1.256 . S
C495 C488 1.500 . S
H496 C479 0.930 . S
H497 C480 0.931 . S
H498 C481 0.930 . S
H499 C482 0.930 . S
H500 C489 0.930 . S
H501 C491 0.931 . S
H502 C492 0.930 . S
H503 C493 0.930 . S
Tb504 N535 2.660 . S
Tb504 N542 2.600 1_655 S
Tb504 O548 2.546 . S
Tb504 O549 2.610 . S
Tb504 O551 2.320 . S
Tb504 O552 2.552 . S
Tb504 O553 2.413 . S
Tb504 O555 2.362 1_655 S
Tb504 O556 2.421 1_655 S
Tb504 C568 2.833 . S
C505 C508 1.432 . S
C505 C509 1.414 . S
C505 N512 1.359 . S
C506 C508 1.417 . S
C506 C510 1.432 . S
C506 C518 1.410 . S
C507 C509 1.444 . S
C507 C510 1.317 . S
C507 H530 0.929 . S
C508 C505 1.432 . S
C508 C506 1.417 . S
C508 N516 1.360 1_655 S
C509 C505 1.414 . S
C509 C507 1.444 . S
C509 C514 1.385 . S
C510 C506 1.432 . S
C510 C507 1.317 . S
C510 H522 0.930 . S
C511 C513 1.392 . S
C511 C514 1.370 . S
C511 H523 0.931 . S
N512 C505 1.359 . S
N512 C513 1.327 . S
N512 Tb515 2.600 1_655 S
C513 C511 1.392 . S
C513 N512 1.327 . S
C513 H520 0.930 . S
C514 C509 1.385 . S
C514 C511 1.370 . S
C514 H533 0.930 . S
Tb515 N512 2.600 1_455 S
Tb515 N516 2.660 . S
Tb515 O549 2.362 1_455 S
Tb515 O550 2.421 1_455 S
Tb515 O554 2.546 . S
Tb515 O555 2.610 . S
Tb515 O557 2.320 . S
Tb515 O558 2.552 . S
Tb515 O559 2.413 . S
Tb515 C579 2.833 . S
N516 C508 1.360 1_455 S
N516 Tb515 2.660 . S
N516 C517 1.305 . S
C517 N516 1.305 . S
C517 C519 1.407 . S
C517 H524 0.930 . S
C518 C506 1.410 . S
C518 C519 1.345 1_655 S
C518 H526 0.930 . S
C519 C517 1.407 . S
C519 C518 1.345 1_455 S
C519 H521 0.930 . S
H520 C513 0.930 . S
H521 C519 0.930 . S
H522 C510 0.930 . S
H523 C511 0.931 . S
H524 C517 0.930 . S
H525 C539 0.930 . S
H526 C518 0.930 . S
H527 C545 0.930 . S
H528 C536 0.930 . S
H529 C543 0.931 . S
H530 C507 0.929 . S
H531 C537 0.930 . S
H532 C570 0.930 . S
H533 C514 0.930 . S
H534 C569 0.929 . S
N535 Tb504 2.660 . S
N535 C536 1.305 . S
N535 C540 1.360 1_655 S
C536 H528 0.930 . S
C536 N535 1.305 . S
C536 C539 1.407 . S
C537 H531 0.930 . S
C537 C538 1.410 . S
C537 C539 1.345 1_455 S
C538 C537 1.410 . S
C538 C540 1.417 . S
C538 C570 1.432 . S
C539 H525 0.930 . S
C539 C536 1.407 . S
C539 C537 1.345 1_655 S
C540 N535 1.360 1_455 S
C540 C538 1.417 . S
C540 C544 1.432 . S
H541 C546 0.930 . S
N542 Tb504 2.600 1_455 S
N542 C544 1.359 . S
N542 C545 1.327 . S
C543 H529 0.931 . S
C543 C545 1.392 . S
C543 C546 1.370 . S
C544 C540 1.432 . S
C544 N542 1.359 . S
C544 C547 1.414 . S
C545 H527 0.930 . S
C545 N542 1.327 . S
C545 C543 1.392 . S
C546 H541 0.930 . S
C546 C543 1.370 . S
C546 C547 1.385 . S
C547 C544 1.414 . S
C547 C546 1.385 . S
C547 C569 1.444 . S
O548 Tb504 2.546 . S
O548 C568 1.251 . S
O549 Tb504 2.610 . S
O549 Tb515 2.362 1_655 S
O549 C560 1.283 . S
O550 Tb515 2.421 1_655 S
O550 C567 1.262 . S
O551 Tb504 2.320 . S
O551 C567 1.260 . S
O552 Tb504 2.552 . S
O552 C560 1.243 . S
O553 Tb504 2.413 . S
O553 C568 1.256 . S
O554 Tb515 2.546 . S
O554 C579 1.251 . S
O555 Tb504 2.362 1_455 S
O555 Tb515 2.610 . S
O555 C571 1.283 . S
O556 Tb504 2.421 1_455 S
O556 C578 1.262 . S
O557 Tb515 2.320 . S
O557 C578 1.260 . S
O558 Tb515 2.552 . S
O558 C571 1.243 . S
O559 Tb515 2.413 . S
O559 C579 1.256 . S
C560 O549 1.283 . S
C560 O552 1.243 . S
C561 C563 1.382 . S
C561 C565 1.393 . S
C561 C568 1.500 . S
C562 C563 1.400 . S
C562 C564 1.384 . S
C563 C561 1.382 . S
C563 C562 1.400 . S
C563 H580 0.930 . S
C564 C562 1.384 . S
C564 C566 1.392 . S
C564 H581 0.931 . S
C565 C561 1.393 . S
C565 C566 1.401 . S
C565 H582 0.930 . S
C566 C564 1.392 . S
C566 C565 1.401 . S
C566 H583 0.930 . S
C567 O550 1.262 . S
C567 O551 1.260 . S
C568 Tb504 2.833 . S
C568 O548 1.251 . S
C568 O553 1.256 . S
C568 C561 1.500 . S
C569 H534 0.929 . S
C569 C547 1.444 . S
C569 C570 1.317 . S
C570 H532 0.930 . S
C570 C538 1.432 . S
C570 C569 1.317 . S
C571 O555 1.283 . S
C571 O558 1.243 . S
C572 C573 1.382 . S
C572 C576 1.393 . S
C572 C579 1.500 . S
C573 C572 1.382 . S
C573 C574 1.400 . S
C573 H584 0.930 . S
C574 C573 1.400 . S
C574 C575 1.384 . S
C575 C574 1.384 . S
C575 C577 1.392 . S
C575 H585 0.931 . S
C576 C572 1.393 . S
C576 C577 1.401 . S
C576 H586 0.930 . S
C577 C575 1.392 . S
C577 C576 1.401 . S
C577 H587 0.930 . S
C578 O556 1.262 . S
C578 O557 1.260 . S
C579 Tb515 2.833 . S
C579 O554 1.251 . S
C579 O559 1.256 . S
C579 C572 1.500 . S
H580 C563 0.930 . S
H581 C564 0.931 . S
H582 C565 0.930 . S
H583 C566 0.930 . S
H584 C573 0.930 . S
H585 C575 0.931 . S
H586 C576 0.930 . S
H587 C577 0.930 . S
Tb588 N619 2.660 . S
Tb588 N626 2.600 1_565 S
Tb588 O632 2.546 . S
Tb588 O633 2.610 . S
Tb588 O635 2.320 . S
Tb588 O636 2.552 . S
Tb588 O637 2.413 . S
Tb588 O639 2.362 1_565 S
Tb588 O640 2.421 1_565 S
Tb588 C652 2.833 . S
C589 C592 1.432 . S
C589 C593 1.414 . S
C589 N596 1.359 . S
C590 C592 1.417 . S
C590 C594 1.432 . S
C590 C602 1.410 1_565 S
C591 C593 1.444 . S
C591 C594 1.317 . S
C591 H614 0.929 . S
C592 C589 1.432 . S
C592 C590 1.417 . S
C592 N600 1.360 1_565 S
C593 C589 1.414 . S
C593 C591 1.444 . S
C593 C598 1.385 . S
C594 C590 1.432 . S
C594 C591 1.317 . S
C594 H606 0.930 . S
C595 C597 1.392 . S
C595 C598 1.370 . S
C595 H607 0.931 . S
N596 C589 1.359 . S
N596 C597 1.327 . S
N596 Tb599 2.600 1_565 S
C597 C595 1.392 . S
C597 N596 1.327 . S
C597 H604 0.930 . S
C598 C593 1.385 . S
C598 C595 1.370 . S
C598 H617 0.930 . S
Tb599 N596 2.600 1_545 S
Tb599 N600 2.660 . S
Tb599 O633 2.362 1_545 S
Tb599 O634 2.421 1_545 S
Tb599 O638 2.546 . S
Tb599 O639 2.610 . S
Tb599 O641 2.320 . S
Tb599 O642 2.552 . S
Tb599 O643 2.413 . S
Tb599 C663 2.833 . S
N600 C592 1.360 1_545 S
N600 Tb599 2.660 . S
N600 C601 1.305 . S
C601 N600 1.305 . S
C601 C603 1.407 . S
C601 H608 0.930 . S
C602 C590 1.410 1_545 S
C602 C603 1.345 . S
C602 H610 0.927 . S
C603 C601 1.407 . S
C603 C602 1.345 . S
C603 H605 0.930 . S
H604 C597 0.930 . S
H605 C603 0.930 . S
H606 C594 0.930 . S
H607 C595 0.931 . S
H608 C601 0.930 . S
H609 C623 0.930 . S
H610 C602 0.927 . S
H611 C629 0.930 . S
H612 C620 0.930 . S
H613 C627 0.931 . S
H614 C591 0.929 . S
H615 C621 0.925 . S
H616 C654 0.930 . S
H617 C598 0.930 . S
H618 C653 0.929 . S
N619 Tb588 2.660 . S
N619 C620 1.305 . S
N619 C624 1.360 1_565 S
C620 H612 0.930 . S
C620 N619 1.305 . S
C620 C623 1.407 . S
C621 H615 0.925 . S
C621 C622 1.410 1_565 S
C621 C623 1.345 . S
C622 C621 1.410 1_545 S
C622 C624 1.417 . S
C622 C654 1.432 . S
C623 H609 0.930 . S
C623 C620 1.407 . S
C623 C621 1.345 . S
C624 N619 1.360 1_545 S
C624 C622 1.417 . S
C624 C628 1.432 . S
H625 C630 0.930 . S
N626 Tb588 2.600 1_545 S
N626 C628 1.359 . S
N626 C629 1.327 . S
C627 H613 0.931 . S
C627 C629 1.392 . S
C627 C630 1.370 . S
C628 C624 1.432 . S
C628 N626 1.359 . S
C628 C631 1.414 . S
C629 H611 0.930 . S
C629 N626 1.327 . S
C629 C627 1.392 . S
C630 H625 0.930 . S
C630 C627 1.370 . S
C630 C631 1.385 . S
C631 C628 1.414 . S
C631 C630 1.385 . S
C631 C653 1.444 . S
O632 Tb588 2.546 . S
O632 C652 1.251 . S
O633 Tb588 2.610 . S
O633 Tb599 2.362 1_565 S
O633 C644 1.283 . S
O634 Tb599 2.421 1_565 S
O634 C651 1.262 . S
O635 Tb588 2.320 . S
O635 C651 1.260 . S
O636 Tb588 2.552 . S
O636 C644 1.243 . S
O637 Tb588 2.413 . S
O637 C652 1.256 . S
O638 Tb599 2.546 . S
O638 C663 1.251 . S
O639 Tb588 2.362 1_545 S
O639 Tb599 2.610 . S
O639 C655 1.283 . S
O640 Tb588 2.421 1_545 S
O640 C662 1.262 . S
O641 Tb599 2.320 . S
O641 C662 1.260 . S
O642 Tb599 2.552 . S
O642 C655 1.243 . S
O643 Tb599 2.413 . S
O643 C663 1.256 . S
C644 O633 1.283 . S
C644 O636 1.243 . S
C645 C647 1.382 . S
C645 C649 1.393 . S
C645 C652 1.500 . S
C646 C647 1.400 . S
C646 C648 1.384 . S
C647 C645 1.382 . S
C647 C646 1.400 . S
C647 H664 0.930 . S
C648 C646 1.384 . S
C648 C650 1.392 . S
C648 H665 0.931 . S
C649 C645 1.393 . S
C649 C650 1.401 . S
C649 H666 0.930 . S
C650 C648 1.392 . S
C650 C649 1.401 . S
C650 H667 0.930 . S
C651 O634 1.262 . S
C651 O635 1.260 . S
C652 Tb588 2.833 . S
C652 O632 1.251 . S
C652 O637 1.256 . S
C652 C645 1.500 . S
C653 H618 0.929 . S
C653 C631 1.444 . S
C653 C654 1.317 . S
C654 H616 0.930 . S
C654 C622 1.432 . S
C654 C653 1.317 . S
C655 O639 1.283 . S
C655 O642 1.243 . S
C656 C657 1.382 . S
C656 C660 1.393 . S
C656 C663 1.500 . S
C657 C656 1.382 . S
C657 C658 1.400 . S
C657 H668 0.930 . S
C658 C657 1.400 . S
C658 C659 1.384 . S
C659 C658 1.384 . S
C659 C661 1.392 . S
C659 H669 0.931 . S
C660 C656 1.393 . S
C660 C661 1.401 . S
C660 H670 0.930 . S
C661 C659 1.392 . S
C661 C660 1.401 . S
C661 H671 0.930 . S
C662 O640 1.262 . S
C662 O641 1.260 . S
C663 Tb599 2.833 . S
C663 O638 1.251 . S
C663 O643 1.256 . S
C663 C656 1.500 . S
H664 C647 0.930 . S
H665 C648 0.931 . S
H666 C649 0.930 . S
H667 C650 0.930 . S
H668 C657 0.930 . S
H669 C659 0.931 . S
H670 C660 0.930 . S
H671 C661 0.930 . S
Tb672 N703 2.660 . S
Tb672 N710 2.600 . S
Tb672 O716 2.546 . S
Tb672 O717 2.610 . S
Tb672 O719 2.320 . S
Tb672 O720 2.552 . S
Tb672 O721 2.413 . S
Tb672 O723 2.362 . S
Tb672 O724 2.421 . S
Tb672 C736 2.833 . S
C673 C676 1.432 . S
C673 C677 1.414 . S
C673 N680 1.359 . S
C674 C676 1.417 . S
C674 C678 1.432 . S
C674 C686 1.410 . S
C675 C677 1.444 . S
C675 C678 1.317 . S
C675 H698 0.929 . S
C676 C673 1.432 . S
C676 C674 1.417 . S
C676 N684 1.360 . S
C677 C673 1.414 . S
C677 C675 1.444 . S
C677 C682 1.385 . S
C678 C674 1.432 . S
C678 C675 1.317 . S
C678 H690 0.930 . S
C679 C681 1.392 . S
C679 C682 1.370 . S
C679 H691 0.931 . S
N680 C673 1.359 . S
N680 C681 1.327 . S
N680 Tb683 2.600 . S
C681 C679 1.392 . S
C681 N680 1.327 . S
C681 H688 0.930 . S
C682 C677 1.385 . S
C682 C679 1.370 . S
C682 H701 0.930 . S
Tb683 N680 2.600 . S
Tb683 N684 2.660 . S
Tb683 O717 2.362 . S
Tb683 O718 2.421 . S
Tb683 O722 2.546 . S
Tb683 O723 2.610 . S
Tb683 O725 2.320 . S
Tb683 O726 2.552 . S
Tb683 O727 2.413 . S
Tb683 C747 2.833 . S
N684 C676 1.360 . S
N684 Tb683 2.660 . S
N684 C685 1.305 . S
C685 N684 1.305 . S
C685 C687 1.407 . S
C685 H692 0.930 . S
C686 C674 1.410 . S
C686 C687 1.345 . S
C686 H694 0.930 . S
C687 C685 1.407 . S
C687 C686 1.345 . S
C687 H689 0.930 . S
H688 C681 0.930 . S
H689 C687 0.930 . S
H690 C678 0.930 . S
H691 C679 0.931 . S
H692 C685 0.930 . S
H693 C707 0.930 . S
H694 C686 0.930 . S
H695 C713 0.930 . S
H696 C704 0.930 . S
H697 C711 0.931 . S
H698 C675 0.929 . S
H699 C705 0.930 . S
H700 C738 0.930 . S
H701 C682 0.930 . S
H702 C737 0.929 . S
N703 Tb672 2.660 . S
N703 C704 1.305 . S
N703 C708 1.360 . S
C704 H696 0.930 . S
C704 N703 1.305 . S
C704 C707 1.407 . S
C705 H699 0.930 . S
C705 C706 1.410 . S
C705 C707 1.345 . S
C706 C705 1.410 . S
C706 C708 1.417 . S
C706 C738 1.432 . S
C707 H693 0.930 . S
C707 C704 1.407 . S
C707 C705 1.345 . S
C708 N703 1.360 . S
C708 C706 1.417 . S
C708 C712 1.432 . S
H709 C714 0.930 . S
N710 Tb672 2.600 . S
N710 C712 1.359 . S
N710 C713 1.327 . S
C711 H697 0.931 . S
C711 C713 1.392 . S
C711 C714 1.370 . S
C712 C708 1.432 . S
C712 N710 1.359 . S
C712 C715 1.414 . S
C713 H695 0.930 . S
C713 N710 1.327 . S
C713 C711 1.392 . S
C714 H709 0.930 . S
C714 C711 1.370 . S
C714 C715 1.385 . S
C715 C712 1.414 . S
C715 C714 1.385 . S
C715 C737 1.444 . S
O716 Tb672 2.546 . S
O716 C736 1.251 . S
O717 Tb672 2.610 . S
O717 Tb683 2.362 . S
O717 C728 1.283 . S
O718 Tb683 2.421 . S
O718 C735 1.262 . S
O719 Tb672 2.320 . S
O719 C735 1.260 . S
O720 Tb672 2.552 . S
O720 C728 1.243 . S
O721 Tb672 2.413 . S
O721 C736 1.256 . S
O722 Tb683 2.546 . S
O722 C747 1.251 . S
O723 Tb672 2.362 . S
O723 Tb683 2.610 . S
O723 C739 1.283 . S
O724 Tb672 2.421 . S
O724 C746 1.262 . S
O725 Tb683 2.320 . S
O725 C746 1.260 . S
O726 Tb683 2.552 . S
O726 C739 1.243 . S
O727 Tb683 2.413 . S
O727 C747 1.256 . S
C728 O717 1.283 . S
C728 O720 1.243 . S
C729 C731 1.382 . S
C729 C733 1.393 . S
C729 C736 1.500 . S
C730 C731 1.400 . S
C730 C732 1.384 . S
C731 C729 1.382 . S
C731 C730 1.400 . S
C731 H748 0.930 . S
C732 C730 1.384 . S
C732 C734 1.392 . S
C732 H749 0.931 . S
C733 C729 1.393 . S
C733 C734 1.401 . S
C733 H750 0.930 . S
C734 C732 1.392 . S
C734 C733 1.401 . S
C734 H751 0.930 . S
C735 O718 1.262 . S
C735 O719 1.260 . S
C736 Tb672 2.833 . S
C736 O716 1.251 . S
C736 O721 1.256 . S
C736 C729 1.500 . S
C737 H702 0.929 . S
C737 C715 1.444 . S
C737 C738 1.317 . S
C738 H700 0.930 . S
C738 C706 1.432 . S
C738 C737 1.317 . S
C739 O723 1.283 . S
C739 O726 1.243 . S
C740 C741 1.382 . S
C740 C744 1.393 . S
C740 C747 1.500 . S
C741 C740 1.382 . S
C741 C742 1.400 . S
C741 H752 0.930 . S
C742 C741 1.400 . S
C742 C743 1.384 . S
C743 C742 1.384 . S
C743 C745 1.392 . S
C743 H753 0.931 . S
C744 C740 1.393 . S
C744 C745 1.401 . S
C744 H754 0.930 . S
C745 C743 1.392 . S
C745 C744 1.401 . S
C745 H755 0.930 . S
C746 O724 1.262 . S
C746 O725 1.260 . S
C747 Tb683 2.833 . S
C747 O722 1.251 . S
C747 O727 1.256 . S
C747 C740 1.500 . S
H748 C731 0.930 . S
H749 C732 0.931 . S
H750 C733 0.930 . S
H751 C734 0.930 . S
H752 C741 0.930 . S
H753 C743 0.931 . S
H754 C744 0.930 . S
H755 C745 0.930 . S
Tb756 N787 2.660 . S
Tb756 N794 2.600 1_455 S
Tb756 O800 2.546 . S
Tb756 O801 2.610 . S
Tb756 O803 2.320 . S
Tb756 O804 2.552 . S
Tb756 O805 2.413 . S
Tb756 O807 2.362 1_455 S
Tb756 O808 2.421 1_455 S
Tb756 C820 2.833 . S
C757 C760 1.432 . S
C757 C761 1.414 . S
C757 N764 1.359 . S
C758 C760 1.417 . S
C758 C762 1.432 . S
C758 C770 1.410 . S
C759 C761 1.444 . S
C759 C762 1.317 . S
C759 H782 0.929 . S
C760 C757 1.432 . S
C760 C758 1.417 . S
C760 N768 1.360 1_455 S
C761 C757 1.414 . S
C761 C759 1.444 . S
C761 C766 1.385 1_556 S
C762 C758 1.432 . S
C762 C759 1.317 . S
C762 H774 0.930 . S
C763 C765 1.392 . S
C763 C766 1.370 . S
C763 H775 0.931 . S
N764 C757 1.359 . S
N764 C765 1.327 1_556 S
N764 Tb767 2.600 1_455 S
C765 C763 1.392 . S
C765 N764 1.327 1_554 S
C765 H772 0.930 . S
C766 C761 1.385 1_554 S
C766 C763 1.370 . S
C766 H785 0.930 . S
Tb767 N764 2.600 1_655 S
Tb767 N768 2.660 . S
Tb767 O801 2.362 1_655 S
Tb767 O802 2.421 1_655 S
Tb767 O806 2.546 1_556 S
Tb767 O807 2.610 . S
Tb767 O809 2.320 . S
Tb767 O810 2.552 1_556 S
Tb767 O811 2.413 . S
Tb767 C831 2.833 1_556 S
N768 C760 1.360 1_655 S
N768 Tb767 2.660 . S
N768 C769 1.305 . S
C769 N768 1.305 . S
C769 C771 1.407 . S
C769 H776 0.930 . S
C770 C758 1.410 . S
C770 C771 1.345 1_455 S
C770 H778 0.930 . S
C771 C769 1.407 . S
C771 C770 1.345 1_655 S
C771 H773 0.930 . S
H772 C765 0.930 . S
H773 C771 0.930 . S
H774 C762 0.930 . S
H775 C763 0.931 . S
H776 C769 0.930 . S
H777 C791 0.906 1_554 S
H778 C770 0.930 . S
H779 C797 0.930 . S
H780 C788 0.930 . S
H781 C795 0.931 . S
H782 C759 0.929 . S
H783 C789 0.899 1_554 S
H784 C822 0.930 . S
H785 C766 0.930 . S
H786 C821 0.929 . S
N787 Tb756 2.660 . S
N787 C788 1.305 . S
N787 C792 1.360 1_455 S
C788 H780 0.930 . S
C788 N787 1.305 . S
C788 C791 1.423 . S
C789 H783 0.899 1_556 S
C789 C790 1.410 . S
C789 C791 1.354 1_655 S
C790 C789 1.410 . S
C790 C792 1.417 . S
C790 C822 1.432 . S
C791 H777 0.906 1_556 S
C791 C788 1.423 . S
C791 C789 1.354 1_455 S
C792 N787 1.360 1_655 S
C792 C790 1.417 . S
C792 C796 1.432 . S
H793 C798 0.930 . S
N794 Tb756 2.600 1_655 S
N794 C796 1.359 . S
N794 C797 1.327 . S
C795 H781 0.931 . S
C795 C797 1.392 . S
C795 C798 1.370 . S
C796 C792 1.432 . S
C796 N794 1.359 . S
C796 C799 1.414 . S
C797 H779 0.930 . S
C797 N794 1.327 . S
C797 C795 1.392 . S
C798 H793 0.930 . S
C798 C795 1.370 . S
C798 C799 1.385 . S
C799 C796 1.414 . S
C799 C798 1.385 . S
C799 C821 1.444 . S
O800 Tb756 2.546 . S
O800 C820 1.251 . S
O801 Tb756 2.610 . S
O801 Tb767 2.362 1_455 S
O801 C812 1.283 . S
O802 Tb767 2.421 1_455 S
O802 C819 1.262 . S
O803 Tb756 2.320 . S
O803 C819 1.260 . S
O804 Tb756 2.552 . S
O804 C812 1.243 . S
O805 Tb756 2.413 . S
O805 C820 1.256 . S
O806 Tb767 2.546 1_554 S
O806 C831 1.251 . S
O807 Tb756 2.362 1_655 S
O807 Tb767 2.610 . S
O807 C823 1.283 . S
O808 Tb756 2.421 1_655 S
O808 C830 1.262 . S
O809 Tb767 2.320 . S
O809 C830 1.260 . S
O810 Tb767 2.552 1_554 S
O810 C823 1.243 1_554 S
O811 Tb767 2.413 . S
O811 C831 1.256 1_556 S
C812 O801 1.283 . S
C812 O804 1.243 . S
C813 C815 1.382 . S
C813 C817 1.393 . S
C813 C820 1.500 . S
C814 C815 1.400 . S
C814 C816 1.384 . S
C815 C813 1.382 . S
C815 C814 1.400 . S
C815 H832 0.930 . S
C816 C814 1.384 . S
C816 C818 1.392 . S
C816 H833 0.931 . S
C817 C813 1.393 . S
C817 C818 1.401 . S
C817 H834 0.930 . S
C818 C816 1.392 . S
C818 C817 1.401 . S
C818 H835 0.930 . S
C819 O802 1.262 . S
C819 O803 1.260 . S
C820 Tb756 2.833 . S
C820 O800 1.251 . S
C820 O805 1.256 . S
C820 C813 1.500 . S
C821 H786 0.929 . S
C821 C799 1.444 . S
C821 C822 1.317 . S
C822 H784 0.930 . S
C822 C790 1.432 . S
C822 C821 1.317 . S
C823 O807 1.283 . S
C823 O810 1.243 1_556 S
C824 C825 1.382 . S
C824 C828 1.393 . S
C824 C831 1.500 . S
C825 C824 1.382 . S
C825 C826 1.400 . S
C825 H836 0.930 . S
C826 C825 1.400 . S
C826 C827 1.384 . S
C827 C826 1.384 . S
C827 C829 1.392 . S
C827 H837 0.931 . S
C828 C824 1.393 . S
C828 C829 1.401 . S
C828 H838 0.930 . S
C829 C827 1.392 . S
C829 C828 1.401 . S
C829 H839 0.930 . S
C830 O808 1.262 . S
C830 O809 1.260 . S
C831 Tb767 2.833 1_554 S
C831 O806 1.251 . S
C831 O811 1.256 1_554 S
C831 C824 1.500 . S
H832 C815 0.930 . S
H833 C816 0.931 . S
H834 C817 0.930 . S
H835 C818 0.930 . S
H836 C825 0.930 . S
H837 C827 0.931 . S
H838 C828 0.930 . S
H839 C829 0.930 . S
Tb840 N871 2.660 . S
Tb840 N878 2.600 1_545 S
Tb840 O884 2.546 . S
Tb840 O885 2.610 . S
Tb840 O887 2.320 . S
Tb840 O888 2.552 . S
Tb840 O889 2.413 . S
Tb840 O891 2.362 1_545 S
Tb840 O892 2.421 1_545 S
Tb840 C904 2.833 . S
C841 C844 1.432 . S
C841 C845 1.414 . S
C841 N848 1.359 . S
C842 C844 1.417 . S
C842 C846 1.432 . S
C842 C854 1.410 1_545 S
C843 C845 1.444 . S
C843 C846 1.317 . S
C843 H866 0.929 . S
C844 C841 1.432 . S
C844 C842 1.417 . S
C844 N852 1.360 1_545 S
C845 C841 1.414 . S
C845 C843 1.444 . S
C845 C850 1.385 . S
C846 C842 1.432 . S
C846 C843 1.317 . S
C846 H858 0.930 . S
C847 C849 1.392 . S
C847 C850 1.370 . S
C847 H859 0.931 . S
N848 C841 1.359 . S
N848 C849 1.327 . S
N848 Tb851 2.600 1_545 S
C849 C847 1.392 . S
C849 N848 1.327 . S
C849 H856 0.930 . S
C850 C845 1.385 . S
C850 C847 1.370 . S
C850 H869 0.930 . S
Tb851 N848 2.600 1_565 S
Tb851 N852 2.660 . S
Tb851 O885 2.362 1_565 S
Tb851 O886 2.421 1_565 S
Tb851 O890 2.546 . S
Tb851 O891 2.610 . S
Tb851 O893 2.320 . S
Tb851 O894 2.552 . S
Tb851 O895 2.413 . S
Tb851 C915 2.833 . S
N852 C844 1.360 1_565 S
N852 Tb851 2.660 . S
N852 C853 1.305 . S
C853 N852 1.305 . S
C853 C855 1.407 . S
C853 H860 0.930 . S
C854 C842 1.410 1_565 S
C854 C855 1.345 . S
C854 H862 0.927 . S
C855 C853 1.407 . S
C855 C854 1.345 . S
C855 H857 0.930 . S
H856 C849 0.930 . S
H857 C855 0.930 . S
H858 C846 0.930 . S
H859 C847 0.931 . S
H860 C853 0.930 . S
H861 C875 0.930 . S
H862 C854 0.927 . S
H863 C881 0.930 . S
H864 C872 0.930 . S
H865 C879 0.931 . S
H866 C843 0.929 . S
H867 C873 0.925 . S
H868 C906 0.930 . S
H869 C850 0.930 . S
H870 C905 0.929 . S
N871 Tb840 2.660 . S
N871 C872 1.305 . S
N871 C876 1.360 1_545 S
C872 H864 0.930 . S
C872 N871 1.305 . S
C872 C875 1.407 . S
C873 H867 0.925 . S
C873 C874 1.410 1_545 S
C873 C875 1.345 . S
C874 C873 1.410 1_565 S
C874 C876 1.417 . S
C874 C906 1.432 . S
C875 H861 0.930 . S
C875 C872 1.407 . S
C875 C873 1.345 . S
C876 N871 1.360 1_565 S
C876 C874 1.417 . S
C876 C880 1.432 . S
H877 C882 0.930 . S
N878 Tb840 2.600 1_565 S
N878 C880 1.359 . S
N878 C881 1.327 . S
C879 H865 0.931 . S
C879 C881 1.392 . S
C879 C882 1.370 . S
C880 C876 1.432 . S
C880 N878 1.359 . S
C880 C883 1.414 . S
C881 H863 0.930 . S
C881 N878 1.327 . S
C881 C879 1.392 . S
C882 H877 0.930 . S
C882 C879 1.370 . S
C882 C883 1.385 . S
C883 C880 1.414 . S
C883 C882 1.385 . S
C883 C905 1.444 . S
O884 Tb840 2.546 . S
O884 C904 1.251 . S
O885 Tb840 2.610 . S
O885 Tb851 2.362 1_545 S
O885 C896 1.283 . S
O886 Tb851 2.421 1_545 S
O886 C903 1.262 . S
O887 Tb840 2.320 . S
O887 C903 1.260 . S
O888 Tb840 2.552 . S
O888 C896 1.243 . S
O889 Tb840 2.413 . S
O889 C904 1.256 . S
O890 Tb851 2.546 . S
O890 C915 1.251 . S
O891 Tb840 2.362 1_565 S
O891 Tb851 2.610 . S
O891 C907 1.283 . S
O892 Tb840 2.421 1_565 S
O892 C914 1.262 . S
O893 Tb851 2.320 . S
O893 C914 1.260 . S
O894 Tb851 2.552 . S
O894 C907 1.243 . S
O895 Tb851 2.413 . S
O895 C915 1.256 . S
C896 O885 1.283 . S
C896 O888 1.243 . S
C897 C899 1.382 . S
C897 C901 1.393 . S
C897 C904 1.500 . S
C898 C899 1.400 . S
C898 C900 1.384 . S
C899 C897 1.382 . S
C899 C898 1.400 . S
C899 H916 0.930 . S
C900 C898 1.384 . S
C900 C902 1.392 . S
C900 H917 0.931 . S
C901 C897 1.393 . S
C901 C902 1.401 . S
C901 H918 0.930 . S
C902 C900 1.392 . S
C902 C901 1.401 . S
C902 H919 0.930 . S
C903 O886 1.262 . S
C903 O887 1.260 . S
C904 Tb840 2.833 . S
C904 O884 1.251 . S
C904 O889 1.256 . S
C904 C897 1.500 . S
C905 H870 0.929 . S
C905 C883 1.444 . S
C905 C906 1.317 . S
C906 H868 0.930 . S
C906 C874 1.432 . S
C906 C905 1.317 . S
C907 O891 1.283 . S
C907 O894 1.243 . S
C908 C909 1.382 . S
C908 C912 1.393 . S
C908 C915 1.500 . S
C909 C908 1.382 . S
C909 C910 1.400 . S
C909 H920 0.930 . S
C910 C909 1.400 . S
C910 C911 1.384 . S
C911 C910 1.384 . S
C911 C913 1.392 . S
C911 H921 0.931 . S
C912 C908 1.393 . S
C912 C913 1.401 . S
C912 H922 0.930 . S
C913 C911 1.392 . S
C913 C912 1.401 . S
C913 H923 0.930 . S
C914 O892 1.262 . S
C914 O893 1.260 . S
C915 Tb851 2.833 . S
C915 O890 1.251 . S
C915 O895 1.256 . S
C915 C908 1.500 . S
H916 C899 0.930 . S
H917 C900 0.931 . S
H918 C901 0.930 . S
H919 C902 0.930 . S
H920 C909 0.930 . S
H921 C911 0.931 . S
H922 C912 0.930 . S
H923 C913 0.930 . S
Tb924 N955 2.660 . S
Tb924 N962 2.600 . S
Tb924 O968 2.546 . S
Tb924 O969 2.610 . S
Tb924 O971 2.320 . S
Tb924 O972 2.552 . S
Tb924 O973 2.413 . S
Tb924 O975 2.362 . S
Tb924 O976 2.421 . S
Tb924 C988 2.833 . S
C925 C928 1.432 . S
C925 C929 1.414 . S
C925 N932 1.359 . S
C926 C928 1.417 . S
C926 C930 1.432 . S
C926 C938 1.410 . S
C927 C929 1.444 . S
C927 C930 1.317 . S
C927 H950 0.929 . S
C928 C925 1.432 . S
C928 C926 1.417 . S
C928 N936 1.360 . S
C929 C925 1.414 . S
C929 C927 1.444 . S
C929 C934 1.385 . S
C930 C926 1.432 . S
C930 C927 1.317 . S
C930 H942 0.930 . S
C931 C933 1.392 . S
C931 C934 1.370 . S
C931 H943 0.931 . S
N932 C925 1.359 . S
N932 C933 1.327 . S
N932 Tb935 2.600 . S
C933 C931 1.392 . S
C933 N932 1.327 . S
C933 H940 0.930 . S
C934 C929 1.385 . S
C934 C931 1.370 . S
C934 H953 0.930 . S
Tb935 N932 2.600 . S
Tb935 N936 2.660 . S
Tb935 O969 2.362 . S
Tb935 O970 2.421 . S
Tb935 O974 2.546 . S
Tb935 O975 2.610 . S
Tb935 O977 2.320 . S
Tb935 O978 2.552 . S
Tb935 O979 2.413 . S
Tb935 C999 2.833 . S
N936 C928 1.360 . S
N936 Tb935 2.660 . S
N936 C937 1.305 . S
C937 N936 1.305 . S
C937 C939 1.407 . S
C937 H944 0.930 . S
C938 C926 1.410 . S
C938 C939 1.345 . S
C938 H946 0.930 . S
C939 C937 1.407 . S
C939 C938 1.345 . S
C939 H941 0.930 . S
H940 C933 0.930 . S
H941 C939 0.930 . S
H942 C930 0.930 . S
H943 C931 0.931 . S
H944 C937 0.930 . S
H945 C959 0.930 . S
H946 C938 0.930 . S
H947 C965 0.930 . S
H948 C956 0.930 . S
H949 C963 0.931 . S
H950 C927 0.929 . S
H951 C957 0.930 . S
H952 C990 0.930 . S
H953 C934 0.930 . S
H954 C989 0.929 . S
N955 Tb924 2.660 . S
N955 C956 1.305 . S
N955 C960 1.360 . S
C956 H948 0.930 . S
C956 N955 1.305 . S
C956 C959 1.407 . S
C957 H951 0.930 . S
C957 C958 1.410 . S
C957 C959 1.345 . S
C958 C957 1.410 . S
C958 C960 1.417 . S
C958 C990 1.432 . S
C959 H945 0.930 . S
C959 C956 1.407 . S
C959 C957 1.345 . S
C960 N955 1.360 . S
C960 C958 1.417 . S
C960 C964 1.432 . S
H961 C966 0.930 . S
N962 Tb924 2.600 . S
N962 C964 1.359 . S
N962 C965 1.327 . S
C963 H949 0.931 . S
C963 C965 1.392 . S
C963 C966 1.370 . S
C964 C960 1.432 . S
C964 N962 1.359 . S
C964 C967 1.414 . S
C965 H947 0.930 . S
C965 N962 1.327 . S
C965 C963 1.392 . S
C966 H961 0.930 . S
C966 C963 1.370 . S
C966 C967 1.385 . S
C967 C964 1.414 . S
C967 C966 1.385 . S
C967 C989 1.444 . S
O968 Tb924 2.546 . S
O968 C988 1.251 . S
O969 Tb924 2.610 . S
O969 Tb935 2.362 . S
O969 C980 1.283 . S
O970 Tb935 2.421 . S
O970 C987 1.262 . S
O971 Tb924 2.320 . S
O971 C987 1.260 . S
O972 Tb924 2.552 . S
O972 C980 1.243 . S
O973 Tb924 2.413 . S
O973 C988 1.256 . S
O974 Tb935 2.546 . S
O974 C999 1.251 . S
O975 Tb924 2.362 . S
O975 Tb935 2.610 . S
O975 C991 1.283 . S
O976 Tb924 2.421 . S
O976 C998 1.262 . S
O977 Tb935 2.320 . S
O977 C998 1.260 . S
O978 Tb935 2.552 . S
O978 C991 1.243 . S
O979 Tb935 2.413 . S
O979 C999 1.256 . S
C980 O969 1.283 . S
C980 O972 1.243 . S
C981 C983 1.382 . S
C981 C985 1.393 . S
C981 C988 1.500 . S
C982 C983 1.400 . S
C982 C984 1.384 . S
C983 C981 1.382 . S
C983 C982 1.400 . S
C983 H1000 0.930 . S
C984 C982 1.384 . S
C984 C986 1.392 . S
C984 H1001 0.931 . S
C985 C981 1.393 . S
C985 C986 1.401 . S
C985 H1002 0.930 . S
C986 C984 1.392 . S
C986 C985 1.401 . S
C986 H1003 0.930 . S
C987 O970 1.262 . S
C987 O971 1.260 . S
C988 Tb924 2.833 . S
C988 O968 1.251 . S
C988 O973 1.256 . S
C988 C981 1.500 . S
C989 H954 0.929 . S
C989 C967 1.444 . S
C989 C990 1.317 . S
C990 H952 0.930 . S
C990 C958 1.432 . S
C990 C989 1.317 . S
C991 O975 1.283 . S
C991 O978 1.243 . S
C992 C993 1.382 . S
C992 C996 1.393 . S
C992 C999 1.500 . S
C993 C992 1.382 . S
C993 C994 1.400 . S
C993 H1004 0.930 . S
C994 C993 1.400 . S
C994 C995 1.384 . S
C995 C994 1.384 . S
C995 C997 1.392 . S
C995 H1005 0.931 . S
C996 C992 1.393 . S
C996 C997 1.401 . S
C996 H1006 0.930 . S
C997 C995 1.392 . S
C997 C996 1.401 . S
C997 H1007 0.930 . S
C998 O976 1.262 . S
C998 O977 1.260 . S
C999 Tb935 2.833 . S
C999 O974 1.251 . S
C999 O979 1.256 . S
C999 C992 1.500 . S
H1000 C983 0.930 . S
H1001 C984 0.931 . S
H1002 C985 0.930 . S
H1003 C986 0.930 . S
H1004 C993 0.930 . S
H1005 C995 0.931 . S
H1006 C996 0.930 . S
H1007 C997 0.930 . S
H1008 C1016 0.950 . S
H1009 C1021 0.950 . S
H1010 C1018 0.950 . S
H1011 C1020 0.950 . S
H1012 C1022 0.950 . S
H1013 C1024 0.950 . S
H1014 C1026 0.950 . S
H1015 C1027 0.950 . S
C1016 H1008 0.950 . S
C1016 C1017 1.386 . S
C1016 C1018 1.391 . S
C1017 C1016 1.386 . S
C1017 C1021 1.393 . S
C1018 H1010 0.950 . S
C1018 C1016 1.391 . S
C1018 C1019 1.400 . S
C1019 C1018 1.400 . S
C1019 C1020 1.398 . S
C1019 C1025 1.491 . S
C1020 H1011 0.950 . S
C1020 C1019 1.398 . S
C1020 C1021 1.391 . S
C1021 H1009 0.950 . S
C1021 C1017 1.393 . S
C1021 C1020 1.391 . S
C1022 H1012 0.950 . S
C1022 C1023 1.386 . S
C1022 C1024 1.391 . S
C1023 C1022 1.386 . S
C1023 C1027 1.393 . S
C1024 H1013 0.950 . S
C1024 C1022 1.391 . S
C1024 C1025 1.400 . S
C1025 C1019 1.491 . S
C1025 C1024 1.400 . S
C1025 C1026 1.398 . S
C1026 H1014 0.950 . S
C1026 C1025 1.398 . S
C1026 C1027 1.391 . S
C1027 H1015 0.950 . S
C1027 C1023 1.393 . S
C1027 C1026 1.391 . S
H1028 C1036 0.950 . S
H1029 C1041 0.950 . S
H1030 C1038 0.950 . S
H1031 C1040 0.950 . S
H1032 C1042 0.950 . S
H1033 C1044 0.950 . S
H1034 C1046 0.950 . S
H1035 C1047 0.950 . S
C1036 H1028 0.950 . S
C1036 C1037 1.386 . S
C1036 C1038 1.391 . S
C1037 C1036 1.386 . S
C1037 C1041 1.393 . S
C1038 H1030 0.950 . S
C1038 C1036 1.391 . S
C1038 C1039 1.400 . S
C1039 C1038 1.400 . S
C1039 C1040 1.398 . S
C1039 C1045 1.491 . S
C1040 H1031 0.950 . S
C1040 C1039 1.398 . S
C1040 C1041 1.391 . S
C1041 H1029 0.950 . S
C1041 C1037 1.393 . S
C1041 C1040 1.391 . S
C1042 H1032 0.950 . S
C1042 C1043 1.386 . S
C1042 C1044 1.391 . S
C1043 C1042 1.386 . S
C1043 C1047 1.393 . S
C1044 H1033 0.950 . S
C1044 C1042 1.391 . S
C1044 C1045 1.400 . S
C1045 C1039 1.491 . S
C1045 C1044 1.400 . S
C1045 C1046 1.398 . S
C1046 H1034 0.950 . S
C1046 C1045 1.398 . S
C1046 C1047 1.391 . S
C1047 H1035 0.950 . S
C1047 C1043 1.393 . S
C1047 C1046 1.391 . S
H1048 C1056 0.950 . S
H1049 C1061 0.950 . S
H1050 C1058 0.950 . S
H1051 C1060 0.950 . S
H1052 C1062 0.950 . S
H1053 C1064 0.950 . S
H1054 C1066 0.950 . S
H1055 C1067 0.950 . S
C1056 H1048 0.950 . S
C1056 C1057 1.386 . S
C1056 C1058 1.391 . S
C1057 C1056 1.386 . S
C1057 C1061 1.393 . S
C1058 H1050 0.950 . S
C1058 C1056 1.391 . S
C1058 C1059 1.400 . S
C1059 C1058 1.400 . S
C1059 C1060 1.398 . S
C1059 C1065 1.491 . S
C1060 H1051 0.950 . S
C1060 C1059 1.398 . S
C1060 C1061 1.391 . S
C1061 H1049 0.950 . S
C1061 C1057 1.393 . S
C1061 C1060 1.391 . S
C1062 H1052 0.950 . S
C1062 C1063 1.386 . S
C1062 C1064 1.391 . S
C1063 C1062 1.386 . S
C1063 C1067 1.393 . S
C1064 H1053 0.950 . S
C1064 C1062 1.391 . S
C1064 C1065 1.400 . S
C1065 C1059 1.491 . S
C1065 C1064 1.400 . S
C1065 C1066 1.398 . S
C1066 H1054 0.950 . S
C1066 C1065 1.398 . S
C1066 C1067 1.391 . S
C1067 H1055 0.950 . S
C1067 C1063 1.393 . S
C1067 C1066 1.391 . S
H1068 C1076 0.950 . S
H1069 C1081 0.950 . S
H1070 C1078 0.950 . S
H1071 C1080 0.950 . S
H1072 C1082 0.950 . S
H1073 C1084 0.950 . S
H1074 C1086 0.950 . S
H1075 C1087 0.950 . S
C1076 H1068 0.950 . S
C1076 C1077 1.386 . S
C1076 C1078 1.391 . S
C1077 C1076 1.386 . S
C1077 C1081 1.393 . S
C1078 H1070 0.950 . S
C1078 C1076 1.391 . S
C1078 C1079 1.400 . S
C1079 C1078 1.400 . S
C1079 C1080 1.398 . S
C1079 C1085 1.491 . S
C1080 H1071 0.950 . S
C1080 C1079 1.398 . S
C1080 C1081 1.391 . S
C1081 H1069 0.950 . S
C1081 C1077 1.393 . S
C1081 C1080 1.391 . S
C1082 H1072 0.950 . S
C1082 C1083 1.386 . S
C1082 C1084 1.391 . S
C1083 C1082 1.386 . S
C1083 C1087 1.393 . S
C1084 H1073 0.950 . S
C1084 C1082 1.391 . S
C1084 C1085 1.400 . S
C1085 C1079 1.491 . S
C1085 C1084 1.400 . S
C1085 C1086 1.398 . S
C1086 H1074 0.950 . S
C1086 C1085 1.398 . S
C1086 C1087 1.391 . S
C1087 H1075 0.950 . S
C1087 C1083 1.393 . S
C1087 C1086 1.391 . S
H1088 C1096 0.950 . S
H1089 C1101 0.950 . S
H1090 C1098 0.950 . S
H1091 C1100 0.950 . S
H1092 C1102 0.950 . S
H1093 C1104 0.950 . S
H1094 C1106 0.950 . S
H1095 C1107 0.950 . S
C1096 H1088 0.950 . S
C1096 C1097 1.386 . S
C1096 C1098 1.391 . S
C1097 C1096 1.386 . S
C1097 C1101 1.393 . S
C1098 H1090 0.950 . S
C1098 C1096 1.391 . S
C1098 C1099 1.400 . S
C1099 C1098 1.400 . S
C1099 C1100 1.398 . S
C1099 C1105 1.491 . S
C1100 H1091 0.950 . S
C1100 C1099 1.398 . S
C1100 C1101 1.391 . S
C1101 H1089 0.950 . S
C1101 C1097 1.393 . S
C1101 C1100 1.391 . S
C1102 H1092 0.950 . S
C1102 C1103 1.386 . S
C1102 C1104 1.391 . S
C1103 C1102 1.386 . S
C1103 C1107 1.393 . S
C1104 H1093 0.950 . S
C1104 C1102 1.391 . S
C1104 C1105 1.400 . S
C1105 C1099 1.491 . S
C1105 C1104 1.400 . S
C1105 C1106 1.398 . S
C1106 H1094 0.950 . S
C1106 C1105 1.398 . S
C1106 C1107 1.391 . S
C1107 H1095 0.950 . S
C1107 C1103 1.393 . S
C1107 C1106 1.391 . S
H1108 C1116 0.950 . S
H1109 C1121 0.950 . S
H1110 C1118 0.950 . S
H1111 C1120 0.950 . S
H1112 C1122 0.950 . S
H1113 C1124 0.950 . S
H1114 C1126 0.950 . S
H1115 C1127 0.950 . S
C1116 H1108 0.950 . S
C1116 C1117 1.386 . S
C1116 C1118 1.391 . S
C1117 C1116 1.386 . S
C1117 C1121 1.393 . S
C1118 H1110 0.950 . S
C1118 C1116 1.391 . S
C1118 C1119 1.400 . S
C1119 C1118 1.400 . S
C1119 C1120 1.398 . S
C1119 C1125 1.491 . S
C1120 H1111 0.950 . S
C1120 C1119 1.398 . S
C1120 C1121 1.391 . S
C1121 H1109 0.950 . S
C1121 C1117 1.393 . S
C1121 C1120 1.391 . S
C1122 H1112 0.950 . S
C1122 C1123 1.386 . S
C1122 C1124 1.391 . S
C1123 C1122 1.386 . S
C1123 C1127 1.393 . S
C1124 H1113 0.950 . S
C1124 C1122 1.391 . S
C1124 C1125 1.400 . S
C1125 C1119 1.491 . S
C1125 C1124 1.400 . S
C1125 C1126 1.398 . S
C1126 H1114 0.950 . S
C1126 C1125 1.398 . S
C1126 C1127 1.391 . S
C1127 H1115 0.950 . S
C1127 C1123 1.393 . S
C1127 C1126 1.391 . S
H1128 C1136 0.950 . S
H1129 C1141 0.950 . S
H1130 C1138 0.950 . S
H1131 C1140 0.950 . S
H1132 C1142 0.950 . S
H1133 C1144 0.950 . S
H1134 C1146 0.950 . S
H1135 C1147 0.950 . S
C1136 H1128 0.950 . S
C1136 C1137 1.386 . S
C1136 C1138 1.391 . S
C1137 C1136 1.386 . S
C1137 C1141 1.393 . S
C1138 H1130 0.950 . S
C1138 C1136 1.391 . S
C1138 C1139 1.400 . S
C1139 C1138 1.400 . S
C1139 C1140 1.398 . S
C1139 C1145 1.491 . S
C1140 H1131 0.950 . S
C1140 C1139 1.398 . S
C1140 C1141 1.391 . S
C1141 H1129 0.950 . S
C1141 C1137 1.393 . S
C1141 C1140 1.391 . S
C1142 H1132 0.950 . S
C1142 C1143 1.386 . S
C1142 C1144 1.391 . S
C1143 C1142 1.386 . S
C1143 C1147 1.393 . S
C1144 H1133 0.950 . S
C1144 C1142 1.391 . S
C1144 C1145 1.400 . S
C1145 C1139 1.491 . S
C1145 C1144 1.400 . S
C1145 C1146 1.398 . S
C1146 H1134 0.950 . S
C1146 C1145 1.398 . S
C1146 C1147 1.391 . S
C1147 H1135 0.950 . S
C1147 C1143 1.393 . S
C1147 C1146 1.391 . S
H1148 C1156 0.950 . S
H1149 C1161 0.950 . S
H1150 C1158 0.950 . S
H1151 C1160 0.950 . S
H1152 C1162 0.950 . S
H1153 C1164 0.950 . S
H1154 C1166 0.950 . S
H1155 C1167 0.950 . S
C1156 H1148 0.950 . S
C1156 C1157 1.386 . S
C1156 C1158 1.391 . S
C1157 C1156 1.386 . S
C1157 C1161 1.393 . S
C1158 H1150 0.950 . S
C1158 C1156 1.391 . S
C1158 C1159 1.400 . S
C1159 C1158 1.400 . S
C1159 C1160 1.398 . S
C1159 C1165 1.491 . S
C1160 H1151 0.950 . S
C1160 C1159 1.398 . S
C1160 C1161 1.391 . S
C1161 H1149 0.950 . S
C1161 C1157 1.393 . S
C1161 C1160 1.391 . S
C1162 H1152 0.950 . S
C1162 C1163 1.386 . S
C1162 C1164 1.391 . S
C1163 C1162 1.386 . S
C1163 C1167 1.393 . S
C1164 H1153 0.950 . S
C1164 C1162 1.391 . S
C1164 C1165 1.400 . S
C1165 C1159 1.491 . S
C1165 C1164 1.400 . S
C1165 C1166 1.398 . S
C1166 H1154 0.950 . S
C1166 C1165 1.398 . S
C1166 C1167 1.391 . S
C1167 H1155 0.950 . S
C1167 C1163 1.393 . S
C1167 C1166 1.391 . S
H1168 C1176 0.950 . S
H1169 C1181 0.950 . S
H1170 C1178 0.950 . S
H1171 C1180 0.950 . S
H1172 C1182 0.950 . S
H1173 C1184 0.950 . S
H1174 C1186 0.950 . S
H1175 C1187 0.950 . S
C1176 H1168 0.950 . S
C1176 C1177 1.386 . S
C1176 C1178 1.391 . S
C1177 C1176 1.386 . S
C1177 C1181 1.393 . S
C1178 H1170 0.950 . S
C1178 C1176 1.391 . S
C1178 C1179 1.400 . S
C1179 C1178 1.400 . S
C1179 C1180 1.398 . S
C1179 C1185 1.491 . S
C1180 H1171 0.950 . S
C1180 C1179 1.398 . S
C1180 C1181 1.391 . S
C1181 H1169 0.950 . S
C1181 C1177 1.393 . S
C1181 C1180 1.391 . S
C1182 H1172 0.950 . S
C1182 C1183 1.386 . S
C1182 C1184 1.391 . S
C1183 C1182 1.386 . S
C1183 C1187 1.393 . S
C1184 H1173 0.950 . S
C1184 C1182 1.391 . S
C1184 C1185 1.400 . S
C1185 C1179 1.491 . S
C1185 C1184 1.400 . S
C1185 C1186 1.398 . S
C1186 H1174 0.950 . S
C1186 C1185 1.398 . S
C1186 C1187 1.391 . S
C1187 H1175 0.950 . S
C1187 C1183 1.393 . S
C1187 C1186 1.391 . S
H1188 C1196 0.950 . S
H1189 C1201 0.950 . S
H1190 C1198 0.950 . S
H1191 C1200 0.950 . S
H1192 C1202 0.950 . S
H1193 C1204 0.950 . S
H1194 C1206 0.950 . S
H1195 C1207 0.950 . S
C1196 H1188 0.950 . S
C1196 C1197 1.386 . S
C1196 C1198 1.391 . S
C1197 C1196 1.386 . S
C1197 C1201 1.393 . S
C1198 H1190 0.950 . S
C1198 C1196 1.391 . S
C1198 C1199 1.400 . S
C1199 C1198 1.400 . S
C1199 C1200 1.398 . S
C1199 C1205 1.491 . S
C1200 H1191 0.950 . S
C1200 C1199 1.398 . S
C1200 C1201 1.391 . S
C1201 H1189 0.950 . S
C1201 C1197 1.393 . S
C1201 C1200 1.391 . S
C1202 H1192 0.950 . S
C1202 C1203 1.386 . S
C1202 C1204 1.391 . S
C1203 C1202 1.386 . S
C1203 C1207 1.393 . S
C1204 H1193 0.950 . S
C1204 C1202 1.391 . S
C1204 C1205 1.400 . S
C1205 C1199 1.491 . S
C1205 C1204 1.400 . S
C1205 C1206 1.398 . S
C1206 H1194 0.950 . S
C1206 C1205 1.398 . S
C1206 C1207 1.391 . S
C1207 H1195 0.950 . S
C1207 C1203 1.393 . S
C1207 C1206 1.391 . S
H1208 C1216 0.950 . S
H1209 C1221 0.950 . S
H1210 C1218 0.950 . S
H1211 C1220 0.950 . S
H1212 C1222 0.950 . S
H1213 C1224 0.950 . S
H1214 C1226 0.950 . S
H1215 C1227 0.950 . S
C1216 H1208 0.950 . S
C1216 C1217 1.386 . S
C1216 C1218 1.391 . S
C1217 C1216 1.386 . S
C1217 C1221 1.393 . S
C1218 H1210 0.950 . S
C1218 C1216 1.391 . S
C1218 C1219 1.400 . S
C1219 C1218 1.400 . S
C1219 C1220 1.398 . S
C1219 C1225 1.491 . S
C1220 H1211 0.950 . S
C1220 C1219 1.398 . S
C1220 C1221 1.391 . S
C1221 H1209 0.950 . S
C1221 C1217 1.393 . S
C1221 C1220 1.391 . S
C1222 H1212 0.950 . S
C1222 C1223 1.386 . S
C1222 C1224 1.391 . S
C1223 C1222 1.386 . S
C1223 C1227 1.393 . S
C1224 H1213 0.950 . S
C1224 C1222 1.391 . S
C1224 C1225 1.400 . S
C1225 C1219 1.491 . S
C1225 C1224 1.400 . S
C1225 C1226 1.398 . S
C1226 H1214 0.950 . S
C1226 C1225 1.398 . S
C1226 C1227 1.391 . S
C1227 H1215 0.950 . S
C1227 C1223 1.393 . S
C1227 C1226 1.391 . S
H1228 C1236 0.950 . S
H1229 C1241 0.950 . S
H1230 C1238 0.950 . S
H1231 C1240 0.950 . S
H1232 C1242 0.950 . S
H1233 C1244 0.950 . S
H1234 C1246 0.950 . S
H1235 C1247 0.950 . S
C1236 H1228 0.950 . S
C1236 C1237 1.386 . S
C1236 C1238 1.391 . S
C1237 C1236 1.386 . S
C1237 C1241 1.393 . S
C1238 H1230 0.950 . S
C1238 C1236 1.391 . S
C1238 C1239 1.400 . S
C1239 C1238 1.400 . S
C1239 C1240 1.398 . S
C1239 C1245 1.491 . S
C1240 H1231 0.950 . S
C1240 C1239 1.398 . S
C1240 C1241 1.391 . S
C1241 H1229 0.950 . S
C1241 C1237 1.393 . S
C1241 C1240 1.391 . S
C1242 H1232 0.950 . S
C1242 C1243 1.386 . S
C1242 C1244 1.391 . S
C1243 C1242 1.386 . S
C1243 C1247 1.393 . S
C1244 H1233 0.950 . S
C1244 C1242 1.391 . S
C1244 C1245 1.400 . S
C1245 C1239 1.491 . S
C1245 C1244 1.400 . S
C1245 C1246 1.398 . S
C1246 H1234 0.950 . S
C1246 C1245 1.398 . S
C1246 C1247 1.391 . S
C1247 H1235 0.950 . S
C1247 C1243 1.393 . S
C1247 C1246 1.391 . S
H1248 C1256 0.950 . S
H1249 C1261 0.950 . S
H1250 C1258 0.950 . S
H1251 C1260 0.950 . S
H1252 C1262 0.950 . S
H1253 C1264 0.950 . S
H1254 C1266 0.950 . S
H1255 C1267 0.950 . S
C1256 H1248 0.950 . S
C1256 C1257 1.386 . S
C1256 C1258 1.391 . S
C1257 C1256 1.386 . S
C1257 C1261 1.393 . S
C1258 H1250 0.950 . S
C1258 C1256 1.391 . S
C1258 C1259 1.400 . S
C1259 C1258 1.400 . S
C1259 C1260 1.398 . S
C1259 C1265 1.491 . S
C1260 H1251 0.950 . S
C1260 C1259 1.398 . S
C1260 C1261 1.391 . S
C1261 H1249 0.950 . S
C1261 C1257 1.393 . S
C1261 C1260 1.391 . S
C1262 H1252 0.950 . S
C1262 C1263 1.386 . S
C1262 C1264 1.391 . S
C1263 C1262 1.386 . S
C1263 C1267 1.393 . S
C1264 H1253 0.950 . S
C1264 C1262 1.391 . S
C1264 C1265 1.400 . S
C1265 C1259 1.491 . S
C1265 C1264 1.400 . S
C1265 C1266 1.398 . S
C1266 H1254 0.950 . S
C1266 C1265 1.398 . S
C1266 C1267 1.391 . S
C1267 H1255 0.950 . S
C1267 C1263 1.393 . S
C1267 C1266 1.391 . S
H1268 C1276 0.950 . S
H1269 C1281 0.950 . S
H1270 C1278 0.950 . S
H1271 C1280 0.950 . S
H1272 C1282 0.950 . S
H1273 C1284 0.950 . S
H1274 C1286 0.950 . S
H1275 C1287 0.950 . S
C1276 H1268 0.950 . S
C1276 C1277 1.386 . S
C1276 C1278 1.391 . S
C1277 C1276 1.386 . S
C1277 C1281 1.393 . S
C1278 H1270 0.950 . S
C1278 C1276 1.391 . S
C1278 C1279 1.400 . S
C1279 C1278 1.400 . S
C1279 C1280 1.398 . S
C1279 C1285 1.491 . S
C1280 H1271 0.950 . S
C1280 C1279 1.398 . S
C1280 C1281 1.391 . S
C1281 H1269 0.950 . S
C1281 C1277 1.393 . S
C1281 C1280 1.391 . S
C1282 H1272 0.950 . S
C1282 C1283 1.386 . S
C1282 C1284 1.391 . S
C1283 C1282 1.386 . S
C1283 C1287 1.393 . S
C1284 H1273 0.950 . S
C1284 C1282 1.391 . S
C1284 C1285 1.400 . S
C1285 C1279 1.491 . S
C1285 C1284 1.400 . S
C1285 C1286 1.398 . S
C1286 H1274 0.950 . S
C1286 C1285 1.398 . S
C1286 C1287 1.391 . S
C1287 H1275 0.950 . S
C1287 C1283 1.393 . S
C1287 C1286 1.391 . S
H1288 C1296 0.950 . S
H1289 C1301 0.950 . S
H1290 C1298 0.950 . S
H1291 C1300 0.950 . S
H1292 C1302 0.950 . S
H1293 C1304 0.950 . S
H1294 C1306 0.950 . S
H1295 C1307 0.950 . S
C1296 H1288 0.950 . S
C1296 C1297 1.386 . S
C1296 C1298 1.391 . S
C1297 C1296 1.386 . S
C1297 C1301 1.393 . S
C1298 H1290 0.950 . S
C1298 C1296 1.391 . S
C1298 C1299 1.400 . S
C1299 C1298 1.400 . S
C1299 C1300 1.398 . S
C1299 C1305 1.491 . S
C1300 H1291 0.950 . S
C1300 C1299 1.398 . S
C1300 C1301 1.391 . S
C1301 H1289 0.950 . S
C1301 C1297 1.393 . S
C1301 C1300 1.391 . S
C1302 H1292 0.950 . S
C1302 C1303 1.386 . S
C1302 C1304 1.391 . S
C1303 C1302 1.386 . S
C1303 C1307 1.393 . S
C1304 H1293 0.950 . S
C1304 C1302 1.391 . S
C1304 C1305 1.400 . S
C1305 C1299 1.491 . S
C1305 C1304 1.400 . S
C1305 C1306 1.398 . S
C1306 H1294 0.950 . S
C1306 C1305 1.398 . S
C1306 C1307 1.391 . S
C1307 H1295 0.950 . S
C1307 C1303 1.393 . S
C1307 C1306 1.391 . S
H1308 C1316 0.950 . S
H1309 C1321 0.950 . S
H1310 C1318 0.950 . S
H1311 C1320 0.950 . S
H1312 C1322 0.950 . S
H1313 C1324 0.950 . S
H1314 C1326 0.950 . S
H1315 C1327 0.950 . S
C1316 H1308 0.950 . S
C1316 C1317 1.386 . S
C1316 C1318 1.391 . S
C1317 C1316 1.386 . S
C1317 C1321 1.393 . S
C1318 H1310 0.950 . S
C1318 C1316 1.391 . S
C1318 C1319 1.400 . S
C1319 C1318 1.400 . S
C1319 C1320 1.398 . S
C1319 C1325 1.491 . S
C1320 H1311 0.950 . S
C1320 C1319 1.398 . S
C1320 C1321 1.391 . S
C1321 H1309 0.950 . S
C1321 C1317 1.393 . S
C1321 C1320 1.391 . S
C1322 H1312 0.950 . S
C1322 C1323 1.386 . S
C1322 C1324 1.391 . S
C1323 C1322 1.386 . S
C1323 C1327 1.393 . S
C1324 H1313 0.950 . S
C1324 C1322 1.391 . S
C1324 C1325 1.400 . S
C1325 C1319 1.491 . S
C1325 C1324 1.400 . S
C1325 C1326 1.398 . S
C1326 H1314 0.950 . S
C1326 C1325 1.398 . S
C1326 C1327 1.391 . S
C1327 H1315 0.950 . S
C1327 C1323 1.393 . S
C1327 C1326 1.391 . S
H1328 C1336 0.950 . S
H1329 C1341 0.950 . S
H1330 C1338 0.950 . S
H1331 C1340 0.950 . S
H1332 C1342 0.950 . S
H1333 C1344 0.950 . S
H1334 C1346 0.950 . S
H1335 C1347 0.950 . S
C1336 H1328 0.950 . S
C1336 C1337 1.386 . S
C1336 C1338 1.391 . S
C1337 C1336 1.386 . S
C1337 C1341 1.393 1_556 S
C1338 H1330 0.950 . S
C1338 C1336 1.391 . S
C1338 C1339 1.385 1_556 S
C1339 C1338 1.385 1_554 S
C1339 C1340 1.411 . S
C1339 C1345 1.494 . S
C1340 H1331 0.950 . S
C1340 C1339 1.411 . S
C1340 C1341 1.391 . S
C1341 H1329 0.950 . S
C1341 C1337 1.393 1_554 S
C1341 C1340 1.391 . S
C1342 H1332 0.950 . S
C1342 C1343 1.386 . S
C1342 C1344 1.391 . S
C1343 C1342 1.386 . S
C1343 C1347 1.393 1_554 S
C1344 H1333 0.950 . S
C1344 C1342 1.391 . S
C1344 C1345 1.400 . S
C1345 C1339 1.494 . S
C1345 C1344 1.400 . S
C1345 C1346 1.398 1_554 S
C1346 H1334 0.950 . S
C1346 C1345 1.398 1_556 S
C1346 C1347 1.391 . S
C1347 H1335 0.950 . S
C1347 C1343 1.393 1_556 S
C1347 C1346 1.391 . S
H1348 C1356 0.950 . S
H1349 C1361 0.950 . S
H1350 C1358 0.950 . S
H1351 C1360 0.950 . S
H1352 C1362 0.950 . S
H1353 C1364 0.950 . S
H1354 C1366 0.950 . S
H1355 C1367 0.950 . S
C1356 H1348 0.950 . S
C1356 C1357 1.386 . S
C1356 C1358 1.391 . S
C1357 C1356 1.386 . S
C1357 C1361 1.393 . S
C1358 H1350 0.950 . S
C1358 C1356 1.391 . S
C1358 C1359 1.400 . S
C1359 C1358 1.400 . S
C1359 C1360 1.398 . S
C1359 C1365 1.491 . S
C1360 H1351 0.950 . S
C1360 C1359 1.398 . S
C1360 C1361 1.391 . S
C1361 H1349 0.950 . S
C1361 C1357 1.393 . S
C1361 C1360 1.391 . S
C1362 H1352 0.950 . S
C1362 C1363 1.386 . S
C1362 C1364 1.391 . S
C1363 C1362 1.386 . S
C1363 C1367 1.393 . S
C1364 H1353 0.950 . S
C1364 C1362 1.391 . S
C1364 C1365 1.400 . S
C1365 C1359 1.491 . S
C1365 C1364 1.400 . S
C1365 C1366 1.398 . S
C1366 H1354 0.950 . S
C1366 C1365 1.398 . S
C1366 C1367 1.391 . S
C1367 H1355 0.950 . S
C1367 C1363 1.393 . S
C1367 C1366 1.391 . S
H1368 C1376 0.950 . S
H1369 C1381 0.950 . S
H1370 C1378 0.950 . S
H1371 C1380 0.950 . S
H1372 C1382 0.950 . S
H1373 C1384 0.950 . S
H1374 C1386 0.950 . S
H1375 C1387 0.950 . S
C1376 H1368 0.950 . S
C1376 C1377 1.386 . S
C1376 C1378 1.391 . S
C1377 C1376 1.386 . S
C1377 C1381 1.393 . S
C1378 H1370 0.950 . S
C1378 C1376 1.391 . S
C1378 C1379 1.400 . S
C1379 C1378 1.400 . S
C1379 C1380 1.398 . S
C1379 C1385 1.491 . S
C1380 H1371 0.950 . S
C1380 C1379 1.398 . S
C1380 C1381 1.391 . S
C1381 H1369 0.950 . S
C1381 C1377 1.393 . S
C1381 C1380 1.391 . S
C1382 H1372 0.950 . S
C1382 C1383 1.386 . S
C1382 C1384 1.391 . S
C1383 C1382 1.386 . S
C1383 C1387 1.393 . S
C1384 H1373 0.950 . S
C1384 C1382 1.391 . S
C1384 C1385 1.400 . S
C1385 C1379 1.491 . S
C1385 C1384 1.400 . S
C1385 C1386 1.398 . S
C1386 H1374 0.950 . S
C1386 C1385 1.398 . S
C1386 C1387 1.391 . S
C1387 H1375 0.950 . S
C1387 C1383 1.393 . S
C1387 C1386 1.391 . S
H1388 C1396 0.950 . S
H1389 C1401 0.950 . S
H1390 C1398 0.950 . S
H1391 C1400 0.950 . S
H1392 C1402 0.950 . S
H1393 C1404 0.950 . S
H1394 C1406 0.950 . S
H1395 C1407 0.950 . S
C1396 H1388 0.950 . S
C1396 C1397 1.386 . S
C1396 C1398 1.391 . S
C1397 C1396 1.386 . S
C1397 C1401 1.393 . S
C1398 H1390 0.950 . S
C1398 C1396 1.391 . S
C1398 C1399 1.400 . S
C1399 C1398 1.400 . S
C1399 C1400 1.398 . S
C1399 C1405 1.491 . S
C1400 H1391 0.950 . S
C1400 C1399 1.398 . S
C1400 C1401 1.391 . S
C1401 H1389 0.950 . S
C1401 C1397 1.393 . S
C1401 C1400 1.391 . S
C1402 H1392 0.950 . S
C1402 C1403 1.386 . S
C1402 C1404 1.391 . S
C1403 C1402 1.386 . S
C1403 C1407 1.393 . S
C1404 H1393 0.950 . S
C1404 C1402 1.391 . S
C1404 C1405 1.400 . S
C1405 C1399 1.491 . S
C1405 C1404 1.400 . S
C1405 C1406 1.398 . S
C1406 H1394 0.950 . S
C1406 C1405 1.398 . S
C1406 C1407 1.391 . S
C1407 H1395 0.950 . S
C1407 C1403 1.393 . S
C1407 C1406 1.391 . S
H1408 C1416 0.950 . S
H1409 C1421 0.950 . S
H1410 C1418 0.950 . S
H1411 C1420 0.950 . S
H1412 C1422 0.950 . S
H1413 C1424 0.950 . S
H1414 C1426 0.950 . S
H1415 C1427 0.950 . S
C1416 H1408 0.950 . S
C1416 C1417 1.386 . S
C1416 C1418 1.391 . S
C1417 C1416 1.386 . S
C1417 C1421 1.393 . S
C1418 H1410 0.950 . S
C1418 C1416 1.391 . S
C1418 C1419 1.400 . S
C1419 C1418 1.400 . S
C1419 C1420 1.398 . S
C1419 C1425 1.491 . S
C1420 H1411 0.950 . S
C1420 C1419 1.398 . S
C1420 C1421 1.391 . S
C1421 H1409 0.950 . S
C1421 C1417 1.393 . S
C1421 C1420 1.391 . S
C1422 H1412 0.950 . S
C1422 C1423 1.386 . S
C1422 C1424 1.391 . S
C1423 C1422 1.386 . S
C1423 C1427 1.393 . S
C1424 H1413 0.950 . S
C1424 C1422 1.391 . S
C1424 C1425 1.400 . S
C1425 C1419 1.491 . S
C1425 C1424 1.400 . S
C1425 C1426 1.398 . S
C1426 H1414 0.950 . S
C1426 C1425 1.398 . S
C1426 C1427 1.391 . S
C1427 H1415 0.950 . S
C1427 C1423 1.393 . S
C1427 C1426 1.391 . S
H1428 C1436 0.944 1_556 S
H1429 C1441 0.950 . S
H1430 C1438 0.950 . S
H1431 C1440 0.950 . S
H1432 C1442 0.950 . S
H1433 C1444 0.950 . S
H1434 C1446 0.950 . S
H1435 C1447 0.950 . S
C1436 H1428 0.944 1_554 S
C1436 C1437 1.394 . S
C1436 C1438 1.389 1_554 S
C1437 C1436 1.394 . S
C1437 C1441 1.393 . S
C1438 H1430 0.950 . S
C1438 C1436 1.389 1_556 S
C1438 C1439 1.400 1_556 S
C1439 C1438 1.400 1_554 S
C1439 C1440 1.398 . S
C1439 C1445 1.491 . S
C1440 H1431 0.950 . S
C1440 C1439 1.398 . S
C1440 C1441 1.391 . S
C1441 H1429 0.950 . S
C1441 C1437 1.393 . S
C1441 C1440 1.391 . S
C1442 H1432 0.950 . S
C1442 C1443 1.386 1_554 S
C1442 C1444 1.391 . S
C1443 C1442 1.386 1_556 S
C1443 C1447 1.393 . S
C1444 H1433 0.950 . S
C1444 C1442 1.391 . S
C1444 C1445 1.400 . S
C1445 C1439 1.491 . S
C1445 C1444 1.400 . S
C1445 C1446 1.398 1_554 S
C1446 H1434 0.950 . S
C1446 C1445 1.398 1_556 S
C1446 C1447 1.391 . S
C1447 H1435 0.950 . S
C1447 C1443 1.393 . S
C1447 C1446 1.391 . S
H1448 C1456 0.950 . S
H1449 C1461 0.950 . S
H1450 C1458 0.950 . S
H1451 C1460 0.950 . S
H1452 C1462 0.950 . S
H1453 C1464 0.950 . S
H1454 C1466 0.950 . S
H1455 C1467 0.950 . S
C1456 H1448 0.950 . S
C1456 C1457 1.386 . S
C1456 C1458 1.391 . S
C1457 C1456 1.386 . S
C1457 C1461 1.393 . S
C1458 H1450 0.950 . S
C1458 C1456 1.391 . S
C1458 C1459 1.400 . S
C1459 C1458 1.400 . S
C1459 C1460 1.398 . S
C1459 C1465 1.491 . S
C1460 H1451 0.950 . S
C1460 C1459 1.398 . S
C1460 C1461 1.391 . S
C1461 H1449 0.950 . S
C1461 C1457 1.393 . S
C1461 C1460 1.391 . S
C1462 H1452 0.950 . S
C1462 C1463 1.386 . S
C1462 C1464 1.391 . S
C1463 C1462 1.386 . S
C1463 C1467 1.393 . S
C1464 H1453 0.950 . S
C1464 C1462 1.391 . S
C1464 C1465 1.400 . S
C1465 C1459 1.491 . S
C1465 C1464 1.400 . S
C1465 C1466 1.398 . S
C1466 H1454 0.950 . S
C1466 C1465 1.398 . S
C1466 C1467 1.391 . S
C1467 H1455 0.950 . S
C1467 C1463 1.393 . S
C1467 C1466 1.391 . S
H1468 C1476 0.950 . S
H1469 C1481 0.950 . S
H1470 C1478 0.950 . S
H1471 C1480 0.950 . S
H1472 C1482 0.950 . S
H1473 C1484 0.950 . S
H1474 C1486 0.950 . S
H1475 C1487 0.950 . S
C1476 H1468 0.950 . S
C1476 C1477 1.386 . S
C1476 C1478 1.391 . S
C1477 C1476 1.386 . S
C1477 C1481 1.393 . S
C1478 H1470 0.950 . S
C1478 C1476 1.391 . S
C1478 C1479 1.400 . S
C1479 C1478 1.400 . S
C1479 C1480 1.398 . S
C1479 C1485 1.491 . S
C1480 H1471 0.950 . S
C1480 C1479 1.398 . S
C1480 C1481 1.391 . S
C1481 H1469 0.950 . S
C1481 C1477 1.393 . S
C1481 C1480 1.391 . S
C1482 H1472 0.950 . S
C1482 C1483 1.386 . S
C1482 C1484 1.391 . S
C1483 C1482 1.386 . S
C1483 C1487 1.393 . S
C1484 H1473 0.950 . S
C1484 C1482 1.391 . S
C1484 C1485 1.400 . S
C1485 C1479 1.491 . S
C1485 C1484 1.400 . S
C1485 C1486 1.398 . S
C1486 H1474 0.950 . S
C1486 C1485 1.398 . S
C1486 C1487 1.391 . S
C1487 H1475 0.950 . S
C1487 C1483 1.393 . S
C1487 C1486 1.391 . S
H1488 C1496 0.950 . S
H1489 C1501 0.950 . S
H1490 C1498 0.950 . S
H1491 C1500 0.950 . S
H1492 C1502 0.950 . S
H1493 C1504 0.950 . S
H1494 C1506 0.950 . S
H1495 C1507 0.950 . S
C1496 H1488 0.950 . S
C1496 C1497 1.386 . S
C1496 C1498 1.391 . S
C1497 C1496 1.386 . S
C1497 C1501 1.393 . S
C1498 H1490 0.950 . S
C1498 C1496 1.391 . S
C1498 C1499 1.400 . S
C1499 C1498 1.400 . S
C1499 C1500 1.398 . S
C1499 C1505 1.491 . S
C1500 H1491 0.950 . S
C1500 C1499 1.398 . S
C1500 C1501 1.391 . S
C1501 H1489 0.950 . S
C1501 C1497 1.393 . S
C1501 C1500 1.391 . S
C1502 H1492 0.950 . S
C1502 C1503 1.386 . S
C1502 C1504 1.391 . S
C1503 C1502 1.386 . S
C1503 C1507 1.393 . S
C1504 H1493 0.950 . S
C1504 C1502 1.391 . S
C1504 C1505 1.400 . S
C1505 C1499 1.491 . S
C1505 C1504 1.400 . S
C1505 C1506 1.398 . S
C1506 H1494 0.950 . S
C1506 C1505 1.398 . S
C1506 C1507 1.391 . S
C1507 H1495 0.950 . S
C1507 C1503 1.393 . S
C1507 C1506 1.391 . S
H1508 C1516 0.950 . S
H1509 C1521 0.950 . S
H1510 C1518 0.950 . S
H1511 C1520 0.950 . S
H1512 C1522 0.950 . S
H1513 C1524 0.950 . S
H1514 C1526 0.950 . S
H1515 C1527 0.950 . S
C1516 H1508 0.950 . S
C1516 C1517 1.386 . S
C1516 C1518 1.391 . S
C1517 C1516 1.386 . S
C1517 C1521 1.393 . S
C1518 H1510 0.950 . S
C1518 C1516 1.391 . S
C1518 C1519 1.400 . S
C1519 C1518 1.400 . S
C1519 C1520 1.398 . S
C1519 C1525 1.491 . S
C1520 H1511 0.950 . S
C1520 C1519 1.398 . S
C1520 C1521 1.391 . S
C1521 H1509 0.950 . S
C1521 C1517 1.393 . S
C1521 C1520 1.391 . S
C1522 H1512 0.950 . S
C1522 C1523 1.386 . S
C1522 C1524 1.391 . S
C1523 C1522 1.386 . S
C1523 C1527 1.393 . S
C1524 H1513 0.950 . S
C1524 C1522 1.391 . S
C1524 C1525 1.400 . S
C1525 C1519 1.491 . S
C1525 C1524 1.400 . S
C1525 C1526 1.398 . S
C1526 H1514 0.950 . S
C1526 C1525 1.398 . S
C1526 C1527 1.391 . S
C1527 H1515 0.950 . S
C1527 C1523 1.393 . S
C1527 C1526 1.391 . S
H1528 C1536 0.950 . S
H1529 C1541 0.950 . S
H1530 C1538 0.950 . S
H1531 C1540 0.950 . S
H1532 C1542 0.950 . S
H1533 C1544 0.950 . S
H1534 C1546 0.950 . S
H1535 C1547 0.950 . S
C1536 H1528 0.950 . S
C1536 C1537 1.386 . S
C1536 C1538 1.391 . S
C1537 C1536 1.386 . S
C1537 C1541 1.393 . S
C1538 H1530 0.950 . S
C1538 C1536 1.391 . S
C1538 C1539 1.400 . S
C1539 C1538 1.400 . S
C1539 C1540 1.398 . S
C1539 C1545 1.491 . S
C1540 H1531 0.950 . S
C1540 C1539 1.398 . S
C1540 C1541 1.391 . S
C1541 H1529 0.950 . S
C1541 C1537 1.393 . S
C1541 C1540 1.391 . S
C1542 H1532 0.950 . S
C1542 C1543 1.386 . S
C1542 C1544 1.391 . S
C1543 C1542 1.386 . S
C1543 C1547 1.393 . S
C1544 H1533 0.950 . S
C1544 C1542 1.391 . S
C1544 C1545 1.400 . S
C1545 C1539 1.491 . S
C1545 C1544 1.400 . S
C1545 C1546 1.398 . S
C1546 H1534 0.950 . S
C1546 C1545 1.398 . S
C1546 C1547 1.391 . S
C1547 H1535 0.950 . S
C1547 C1543 1.393 . S
C1547 C1546 1.391 . S
H1548 C1556 0.950 . S
H1549 C1561 0.950 . S
H1550 C1558 0.950 . S
H1551 C1560 0.950 . S
H1552 C1562 0.950 . S
H1553 C1564 0.950 . S
H1554 C1566 0.950 . S
H1555 C1567 0.950 . S
C1556 H1548 0.950 . S
C1556 C1557 1.386 . S
C1556 C1558 1.391 . S
C1557 C1556 1.386 . S
C1557 C1561 1.393 . S
C1558 H1550 0.950 . S
C1558 C1556 1.391 . S
C1558 C1559 1.400 . S
C1559 C1558 1.400 . S
C1559 C1560 1.398 . S
C1559 C1565 1.491 . S
C1560 H1551 0.950 . S
C1560 C1559 1.398 . S
C1560 C1561 1.391 . S
C1561 H1549 0.950 . S
C1561 C1557 1.393 . S
C1561 C1560 1.391 . S
C1562 H1552 0.950 . S
C1562 C1563 1.386 . S
C1562 C1564 1.391 . S
C1563 C1562 1.386 . S
C1563 C1567 1.393 . S
C1564 H1553 0.950 . S
C1564 C1562 1.391 . S
C1564 C1565 1.400 . S
C1565 C1559 1.491 . S
C1565 C1564 1.400 . S
C1565 C1566 1.398 . S
C1566 H1554 0.950 . S
C1566 C1565 1.398 . S
C1566 C1567 1.391 . S
C1567 H1555 0.950 . S
C1567 C1563 1.393 . S
C1567 C1566 1.391 . S
H1568 C1576 0.950 . S
H1569 C1581 0.950 . S
H1570 C1578 0.950 . S
H1571 C1580 0.950 . S
H1572 C1582 0.950 . S
H1573 C1584 0.950 . S
H1574 C1586 0.950 . S
H1575 C1587 0.950 . S
C1576 H1568 0.950 . S
C1576 C1577 1.386 . S
C1576 C1578 1.391 . S
C1577 C1576 1.386 . S
C1577 C1581 1.393 . S
C1578 H1570 0.950 . S
C1578 C1576 1.391 . S
C1578 C1579 1.400 . S
C1579 C1578 1.400 . S
C1579 C1580 1.398 . S
C1579 C1585 1.491 . S
C1580 H1571 0.950 . S
C1580 C1579 1.398 . S
C1580 C1581 1.391 . S
C1581 H1569 0.950 . S
C1581 C1577 1.393 . S
C1581 C1580 1.391 . S
C1582 H1572 0.950 . S
C1582 C1583 1.386 . S
C1582 C1584 1.391 . S
C1583 C1582 1.386 . S
C1583 C1587 1.393 . S
C1584 H1573 0.950 . S
C1584 C1582 1.391 . S
C1584 C1585 1.400 . S
C1585 C1579 1.491 . S
C1585 C1584 1.400 . S
C1585 C1586 1.398 . S
C1586 H1574 0.950 . S
C1586 C1585 1.398 . S
C1586 C1587 1.391 . S
C1587 H1575 0.950 . S
C1587 C1583 1.393 . S
C1587 C1586 1.391 . S
H1588 C1596 0.950 . S
H1589 C1601 0.950 . S
H1590 C1598 0.950 . S
H1591 C1600 0.950 . S
H1592 C1602 0.950 . S
H1593 C1604 0.950 . S
H1594 C1606 0.950 . S
H1595 C1607 0.950 . S
C1596 H1588 0.950 . S
C1596 C1597 1.386 . S
C1596 C1598 1.391 . S
C1597 C1596 1.386 . S
C1597 C1601 1.393 . S
C1598 H1590 0.950 . S
C1598 C1596 1.391 . S
C1598 C1599 1.400 . S
C1599 C1598 1.400 . S
C1599 C1600 1.398 . S
C1599 C1605 1.491 . S
C1600 H1591 0.950 . S
C1600 C1599 1.398 . S
C1600 C1601 1.391 . S
C1601 H1589 0.950 . S
C1601 C1597 1.393 . S
C1601 C1600 1.391 . S
C1602 H1592 0.950 . S
C1602 C1603 1.386 . S
C1602 C1604 1.391 . S
C1603 C1602 1.386 . S
C1603 C1607 1.393 . S
C1604 H1593 0.950 . S
C1604 C1602 1.391 . S
C1604 C1605 1.400 . S
C1605 C1599 1.491 . S
C1605 C1604 1.400 . S
C1605 C1606 1.398 . S
C1606 H1594 0.950 . S
C1606 C1605 1.398 . S
C1606 C1607 1.391 . S
C1607 H1595 0.950 . S
C1607 C1603 1.393 . S
C1607 C1606 1.391 . S
H1608 C1616 0.950 . S
H1609 C1621 0.950 . S
H1610 C1618 0.950 . S
H1611 C1620 0.950 . S
H1612 C1622 0.950 . S
H1613 C1624 0.950 . S
H1614 C1626 0.950 . S
H1615 C1627 0.950 . S
C1616 H1608 0.950 . S
C1616 C1617 1.386 . S
C1616 C1618 1.391 . S
C1617 C1616 1.386 . S
C1617 C1621 1.393 . S
C1618 H1610 0.950 . S
C1618 C1616 1.391 . S
C1618 C1619 1.400 . S
C1619 C1618 1.400 . S
C1619 C1620 1.398 . S
C1619 C1625 1.491 . S
C1620 H1611 0.950 . S
C1620 C1619 1.398 . S
C1620 C1621 1.391 . S
C1621 H1609 0.950 . S
C1621 C1617 1.393 . S
C1621 C1620 1.391 . S
C1622 H1612 0.950 . S
C1622 C1623 1.386 . S
C1622 C1624 1.391 . S
C1623 C1622 1.386 . S
C1623 C1627 1.393 . S
C1624 H1613 0.950 . S
C1624 C1622 1.391 . S
C1624 C1625 1.400 . S
C1625 C1619 1.491 . S
C1625 C1624 1.400 . S
C1625 C1626 1.398 . S
C1626 H1614 0.950 . S
C1626 C1625 1.398 . S
C1626 C1627 1.391 . S
C1627 H1615 0.950 . S
C1627 C1623 1.393 . S
C1627 C1626 1.391 . S
H1628 C1636 0.950 . S
H1629 C1641 0.950 . S
H1630 C1638 0.950 . S
H1631 C1640 0.950 . S
H1632 C1642 0.950 . S
H1633 C1644 0.950 . S
H1634 C1646 0.950 . S
H1635 C1647 0.950 . S
C1636 H1628 0.950 . S
C1636 C1637 1.386 . S
C1636 C1638 1.391 . S
C1637 C1636 1.386 . S
C1637 C1641 1.393 . S
C1638 H1630 0.950 . S
C1638 C1636 1.391 . S
C1638 C1639 1.400 . S
C1639 C1638 1.400 . S
C1639 C1640 1.398 . S
C1639 C1645 1.491 . S
C1640 H1631 0.950 . S
C1640 C1639 1.398 . S
C1640 C1641 1.391 . S
C1641 H1629 0.950 . S
C1641 C1637 1.393 . S
C1641 C1640 1.391 . S
C1642 H1632 0.950 . S
C1642 C1643 1.386 . S
C1642 C1644 1.391 . S
C1643 C1642 1.386 . S
C1643 C1647 1.393 . S
C1644 H1633 0.950 . S
C1644 C1642 1.391 . S
C1644 C1645 1.400 . S
C1645 C1639 1.491 . S
C1645 C1644 1.400 . S
C1645 C1646 1.398 . S
C1646 H1634 0.950 . S
C1646 C1645 1.398 . S
C1646 C1647 1.391 . S
C1647 H1635 0.950 . S
C1647 C1643 1.393 . S
C1647 C1646 1.391 . S
H1648 C1656 0.950 . S
H1649 C1661 0.950 . S
H1650 C1658 0.950 . S
H1651 C1660 0.950 . S
H1652 C1662 0.950 . S
H1653 C1664 0.950 . S
H1654 C1666 0.950 . S
H1655 C1667 0.950 . S
C1656 H1648 0.950 . S
C1656 C1657 1.386 . S
C1656 C1658 1.391 . S
C1657 C1656 1.386 . S
C1657 C1661 1.393 . S
C1658 H1650 0.950 . S
C1658 C1656 1.391 . S
C1658 C1659 1.400 . S
C1659 C1658 1.400 . S
C1659 C1660 1.398 . S
C1659 C1665 1.491 . S
C1660 H1651 0.950 . S
C1660 C1659 1.398 . S
C1660 C1661 1.391 . S
C1661 H1649 0.950 . S
C1661 C1657 1.393 . S
C1661 C1660 1.391 . S
C1662 H1652 0.950 . S
C1662 C1663 1.386 . S
C1662 C1664 1.391 . S
C1663 C1662 1.386 . S
C1663 C1667 1.393 . S
C1664 H1653 0.950 . S
C1664 C1662 1.391 . S
C1664 C1665 1.400 . S
C1665 C1659 1.491 . S
C1665 C1664 1.400 . S
C1665 C1666 1.398 . S
C1666 H1654 0.950 . S
C1666 C1665 1.398 . S
C1666 C1667 1.391 . S
C1667 H1655 0.950 . S
C1667 C1663 1.393 . S
C1667 C1666 1.391 . S
H1668 C1676 0.950 . S
H1669 C1681 0.950 . S
H1670 C1678 0.950 . S
H1671 C1680 0.950 . S
H1672 C1682 0.950 . S
H1673 C1684 0.950 . S
H1674 C1686 0.950 . S
H1675 C1687 0.950 . S
C1676 H1668 0.950 . S
C1676 C1677 1.386 . S
C1676 C1678 1.391 . S
C1677 C1676 1.386 . S
C1677 C1681 1.393 . S
C1678 H1670 0.950 . S
C1678 C1676 1.391 . S
C1678 C1679 1.400 . S
C1679 C1678 1.400 . S
C1679 C1680 1.398 . S
C1679 C1685 1.491 . S
C1680 H1671 0.950 . S
C1680 C1679 1.398 . S
C1680 C1681 1.391 . S
C1681 H1669 0.950 . S
C1681 C1677 1.393 . S
C1681 C1680 1.391 . S
C1682 H1672 0.950 . S
C1682 C1683 1.386 . S
C1682 C1684 1.391 . S
C1683 C1682 1.386 . S
C1683 C1687 1.393 . S
C1684 H1673 0.950 . S
C1684 C1682 1.391 . S
C1684 C1685 1.400 . S
C1685 C1679 1.491 . S
C1685 C1684 1.400 . S
C1685 C1686 1.398 . S
C1686 H1674 0.950 . S
C1686 C1685 1.398 . S
C1686 C1687 1.391 . S
C1687 H1675 0.950 . S
C1687 C1683 1.393 . S
C1687 C1686 1.391 . S
H1688 C1696 0.950 . S
H1689 C1701 0.950 . S
H1690 C1698 0.950 . S
H1691 C1700 0.950 . S
H1692 C1702 0.950 . S
H1693 C1704 0.950 . S
H1694 C1706 0.950 . S
H1695 C1707 0.950 . S
C1696 H1688 0.950 . S
C1696 C1697 1.386 . S
C1696 C1698 1.391 . S
C1697 C1696 1.386 . S
C1697 C1701 1.393 . S
C1698 H1690 0.950 . S
C1698 C1696 1.391 . S
C1698 C1699 1.400 . S
C1699 C1698 1.400 . S
C1699 C1700 1.398 . S
C1699 C1705 1.491 . S
C1700 H1691 0.950 . S
C1700 C1699 1.398 . S
C1700 C1701 1.391 . S
C1701 H1689 0.950 . S
C1701 C1697 1.393 . S
C1701 C1700 1.391 . S
C1702 H1692 0.950 . S
C1702 C1703 1.386 . S
C1702 C1704 1.391 . S
C1703 C1702 1.386 . S
C1703 C1707 1.393 . S
C1704 H1693 0.950 . S
C1704 C1702 1.391 . S
C1704 C1705 1.400 . S
C1705 C1699 1.491 . S
C1705 C1704 1.400 . S
C1705 C1706 1.398 . S
C1706 H1694 0.950 . S
C1706 C1705 1.398 . S
C1706 C1707 1.391 . S
C1707 H1695 0.950 . S
C1707 C1703 1.393 . S
C1707 C1706 1.391 . S
H1708 C1716 0.950 . S
H1709 C1721 0.950 . S
H1710 C1718 0.950 . S
H1711 C1720 0.950 . S
H1712 C1722 0.950 . S
H1713 C1724 0.950 . S
H1714 C1726 0.950 . S
H1715 C1727 0.950 . S
C1716 H1708 0.950 . S
C1716 C1717 1.386 . S
C1716 C1718 1.391 . S
C1717 C1716 1.386 . S
C1717 C1721 1.393 . S
C1718 H1710 0.950 . S
C1718 C1716 1.391 . S
C1718 C1719 1.400 . S
C1719 C1718 1.400 . S
C1719 C1720 1.398 . S
C1719 C1725 1.491 . S
C1720 H1711 0.950 . S
C1720 C1719 1.398 . S
C1720 C1721 1.391 . S
C1721 H1709 0.950 . S
C1721 C1717 1.393 . S
C1721 C1720 1.391 . S
C1722 H1712 0.950 . S
C1722 C1723 1.386 . S
C1722 C1724 1.391 . S
C1723 C1722 1.386 . S
C1723 C1727 1.393 . S
C1724 H1713 0.950 . S
C1724 C1722 1.391 . S
C1724 C1725 1.400 . S
C1725 C1719 1.491 . S
C1725 C1724 1.400 . S
C1725 C1726 1.398 . S
C1726 H1714 0.950 . S
C1726 C1725 1.398 . S
C1726 C1727 1.391 . S
C1727 H1715 0.950 . S
C1727 C1723 1.393 . S
C1727 C1726 1.391 . S
C1017 C476 1.371 . S
C1023 C70 1.272 . S
C1037 C154 1.217 . S
C1043 C56 1.335 . S
C1057 C238 1.288 . S
C1063 C140 1.410 . S
C1077 C224 1.363 . S
C1083 C322 1.261 . S
C1097 C308 1.321 . S
C1103 C406 1.201 . S
C1117 C490 1.319 . S
C1123 C392 1.437 . S
C1137 C644 1.371 . S
C1143 C574 1.271 . S
C1157 C658 1.320 . S
C1163 C728 1.438 . S
C1177 C812 1.312 . S
C1183 C742 1.188 . S
C1197 C896 1.355 . S
C1203 C826 1.254 . S
C1217 C980 1.432 . S
C1223 C910 1.319 . S
C1237 C560 1.349 . S
C1243 C994 1.233 . S
C1257 C987 3.462 . S
C1263 C67 3.451 . S
C1277 C151 2.849 . S
C1283 C567 2.858 . S
C1297 C651 3.161 . S
C1303 C235 3.142 . S
C1317 C735 3.460 . S
C1323 C319 3.450 . S
C1337 C819 2.862 . S
C1343 C403 2.846 . S
C1357 C487 3.151 . S
C1363 C903 3.164 . S
C1377 C571 3.444 . S
C1383 C147 3.461 . S
C1397 C655 3.144 . S
C1403 C231 3.159 . S
C1417 C315 2.864 . S
C1423 C739 2.849 . S
C1437 C399 3.459 . S
C1443 C823 3.449 . S
C1457 C907 3.151 . S
C1463 C483 3.164 . S
C1477 C991 2.847 . S
C1483 C63 2.856 . S
C1497 C578 2.680 . S
C1503 C74 2.682 . S
C1517 C158 1.839 . S
C1523 C662 1.856 . S
C1537 C746 1.816 . S
C1543 C242 1.847 . S
C1557 C326 2.681 . S
C1563 C830 2.681 . S
C1577 C914 1.861 . S
C1583 C410 1.831 . S
C1597 C998 1.819 . S
C1603 C494 1.865 . S
C1617 C562 0.752 . S
C1623 C58 0.704 . S
C1637 C646 0.533 . S
C1643 C142 0.418 . S
C1657 C730 0.504 . S
C1663 C226 0.450 . S
C1677 C310 0.745 . S
C1683 C814 0.692 . S
C1697 C898 0.472 . S
C1703 C394 0.454 . S
C1717 C982 0.482 . S
C1723 C478 0.485 . S
