# Generated by pormake.
# Topology irl, (4)-cn, num edge types: 1
# Building blocks:
#     Node 0, Type 0, BuildingBlock: KUFVIS_clean_sbu_0, # of connection points: 4
#     Node 1, Type 0, BuildingBlock: KUFVIS_clean_sbu_0, # of connection points: 4
#     Node 2, Type 0, BuildingBlock: KUFVIS_clean_sbu_0, # of connection points: 4
#     Node 3, Type 0, BuildingBlock: KUFVIS_clean_sbu_0, # of connection points: 4
#     Node 4, Type 0, BuildingBlock: KUFVIS_clean_sbu_0, # of connection points: 4
#     Node 5, Type 0, BuildingBlock: KUFVIS_clean_sbu_0, # of connection points: 4
#     Node 6, Type 0, BuildingBlock: KUFVIS_clean_sbu_0, # of connection points: 4
#     Node 7, Type 0, BuildingBlock: KUFVIS_clean_sbu_0, # of connection points: 4
#     Edge 8, Type (0, 0), BuildingBlock: OJICUG_clean_linker_0, # of connection points: 2
#     Edge 9, Type (0, 0), BuildingBlock: OJICUG_clean_linker_0, # of connection points: 2
#     Edge 10, Type (0, 0), BuildingBlock: OJICUG_clean_linker_0, # of connection points: 2
#     Edge 11, Type (0, 0), BuildingBlock: OJICUG_clean_linker_0, # of connection points: 2
#     Edge 12, Type (0, 0), BuildingBlock: OJICUG_clean_linker_0, # of connection points: 2
#     Edge 13, Type (0, 0), BuildingBlock: OJICUG_clean_linker_0, # of connection points: 2
#     Edge 14, Type (0, 0), BuildingBlock: OJICUG_clean_linker_0, # of connection points: 2
#     Edge 15, Type (0, 0), BuildingBlock: OJICUG_clean_linker_0, # of connection points: 2
#     Edge 16, Type (0, 0), BuildingBlock: OJICUG_clean_linker_0, # of connection points: 2
#     Edge 17, Type (0, 0), BuildingBlock: OJICUG_clean_linker_0, # of connection points: 2
#     Edge 18, Type (0, 0), BuildingBlock: OJICUG_clean_linker_0, # of connection points: 2
#     Edge 19, Type (0, 0), BuildingBlock: OJICUG_clean_linker_0, # of connection points: 2
#     Edge 20, Type (0, 0), BuildingBlock: OJICUG_clean_linker_0, # of connection points: 2
#     Edge 21, Type (0, 0), BuildingBlock: OJICUG_clean_linker_0, # of connection points: 2
#     Edge 22, Type (0, 0), BuildingBlock: OJICUG_clean_linker_0, # of connection points: 2
#     Edge 23, Type (0, 0), BuildingBlock: OJICUG_clean_linker_0, # of connection points: 2
# Relax obj value: 0.099
# Max RMSD: 0.149
# Mean RMSD: 0.149
data_MOF--net-irl--node1-KUFVIS_clean_sbu_0--edge1-OJICUG_clean_linker_0
_symmetry_space_group_name_H-M    P1
_symmetry_Int_Tables_number       1
_symmetry_cell_setting            triclinic
loop_
_symmetry_equiv_pos_as_xyz
'x, y, z'
_cell_length_a     24.981969
_cell_length_b     32.898493
_cell_length_c     19.828971
_cell_angle_alpha  89.986813
_cell_angle_beta   90.057008
_cell_angle_gamma 90.00882
loop_
_atom_site_label
_atom_site_type_symbol
_atom_site_fract_x
_atom_site_fract_y
_atom_site_fract_z
_atom_type_partial_charge
Mn0 Mn 0.062 0.16241 0.02095 0.0
Mn1 Mn 0.02727 0.26082 0.00662 0.0
C2 C 0.04491 0.20077 0.1177 0.0
C3 C 0.03624 0.09385 0.02039 0.0
C4 C 0.1421 0.23153 0.99514 0.0
O5 O 0.04334 0.16724 0.92093 0.0
O6 O 0.01631 0.23221 0.92012 0.0
C7 C 0.91095 0.24781 0.98738 0.0
N8 N 0.95207 0.26599 0.02092 0.0
C9 C 0.8914 0.30797 0.08394 0.0
C10 C 0.84823 0.28971 0.05028 0.0
C11 C 0.85805 0.25917 0.00228 0.0
C12 C 0.94299 0.29411 0.06908 0.0
H13 H 0.91857 0.22507 0.94929 0.0
C14 C 0.0243 0.19821 0.89071 0.0
O15 O 0.08518 0.10473 0.00741 0.0
O16 O 1.00262 0.1227 0.03396 0.0
N17 N 0.03529 0.29364 0.08513 0.0
C18 C 0.08155 0.3086 0.11177 0.0
C19 C 0.07947 0.34202 0.15542 0.0
C20 C 0.02995 0.35983 0.1707 0.0
C21 C 0.98257 0.34262 0.14566 0.0
C22 C 0.98723 0.30962 0.1017 0.0
H23 H 0.11995 0.29633 0.09748 0.0
O24 O 0.07189 0.16713 0.12068 0.0
O25 O 0.0268 0.21022 0.05821 0.0
O26 O 0.13242 0.19383 0.00552 0.0
O27 O 0.10547 0.25858 0.99282 0.0
C28 C 0.93114 0.35815 0.15967 0.0
C29 C 0.88548 0.34014 0.13021 0.0
H30 H 0.80747 0.29911 0.06044 0.0
H31 H 0.82498 0.24498 0.97596 0.0
H32 H 0.11609 0.35503 0.17511 0.0
H33 H 0.02915 0.38741 0.20017 0.0
H34 H 0.92615 0.38405 0.19271 0.0
H35 H 0.84616 0.35204 0.14199 0.0
Mn36 Mn 0.94332 0.85646 0.01892 0.0
Mn37 Mn 0.97843 0.75814 0.00454 0.0
C38 C 0.96063 0.81804 0.11562 0.0
C39 C 0.96884 0.92507 0.01891 0.0
C40 C 0.86345 0.78706 0.99326 0.0
O41 O 0.96198 0.85184 0.9189 0.0
O42 O 0.98853 0.78676 0.91789 0.0
C43 C 0.0945 0.77185 0.98443 0.0
N44 N 0.05378 0.75341 0.01827 0.0
C45 C 0.11532 0.71206 0.0813 0.0
C46 C 0.15808 0.73059 0.0473 0.0
C47 C 0.14762 0.76095 -0.00086 0.0
C48 C 0.06347 0.72547 0.06658 0.0
H49 H 0.0864 0.79448 0.94628 0.0
C50 C 0.98056 0.82079 0.88855 0.0
O51 O 0.91994 0.91416 0.00566 0.0
O52 O 1.00254 0.89624 0.0323 0.0
N53 N 0.97125 0.72529 0.08314 0.0
C54 C 0.92531 0.70999 0.11004 0.0
C55 C 0.92804 0.67664 0.15379 0.0
C56 C 0.97788 0.65925 0.16894 0.0
C57 C 0.02491 0.67683 0.14368 0.0
C58 C 0.0196 0.7097 0.09954 0.0
H59 H 0.88668 0.72194 0.09586 0.0
O60 O 0.93343 0.85157 0.11861 0.0
O61 O 0.97877 0.80871 0.05614 0.0
O62 O 0.87303 0.82483 0.00317 0.0
O63 O 0.90014 0.76004 0.99136 0.0
C64 C 0.07661 0.66177 0.15761 0.0
C65 C 0.12189 0.68007 0.12781 0.0
H66 H 0.19901 0.72155 0.05735 0.0
H67 H 0.18036 0.77534 0.97259 0.0
H68 H 0.8917 0.66334 0.17365 0.0
H69 H 0.9792 0.6317 0.19843 0.0
H70 H 0.0821 0.63601 0.19086 0.0
H71 H 0.16143 0.66853 0.13953 0.0
Mn72 Mn 0.06263 0.85647 0.47141 0.0
Mn73 Mn 0.02781 0.75809 0.48592 0.0
C74 C 0.04514 0.81811 0.37476 0.0
C75 C 0.03684 0.925 0.47194 0.0
C76 C 0.14277 0.78723 0.49663 0.0
O77 O 0.04437 0.85172 0.57151 0.0
O78 O 0.0177 0.78666 0.57261 0.0
C79 C 0.91172 0.77151 0.50625 0.0
N80 N 0.95247 0.75319 0.47232 0.0
C81 C 0.89102 0.7117 0.40941 0.0
C82 C 0.84822 0.73012 0.4435 0.0
C83 C 0.85862 0.76048 0.49165 0.0
C84 C 0.94283 0.72524 0.42402 0.0
H85 H 0.91978 0.79415 0.5444 0.0
C86 C 0.02578 0.82068 0.60192 0.0
O87 O 0.08584 0.91418 0.48477 0.0
O88 O 1.0032 0.89612 0.45854 0.0
N89 N 0.03504 0.72528 0.40731 0.0
C90 C 0.081 0.71007 0.38038 0.0
C91 C 0.07834 0.6767 0.33668 0.0
C92 C 0.02855 0.65921 0.3216 0.0
C93 C 0.98149 0.67669 0.3469 0.0
C94 C 0.98672 0.70958 0.39099 0.0
H95 H 0.11961 0.72209 0.3945 0.0
O96 O 0.07216 0.85173 0.37167 0.0
O97 O 0.02722 0.80868 0.43431 0.0
O98 O 0.13309 0.82498 0.48662 0.0
O99 O 0.10612 0.76018 0.49893 0.0
C100 C 0.92983 0.66151 0.33305 0.0
C101 C 0.88451 0.67971 0.36292 0.0
H102 H 0.80731 0.72097 0.43354 0.0
H103 H 0.82585 0.77478 0.51827 0.0
H104 H 0.11472 0.66347 0.3168 0.0
H105 H 0.0273 0.63164 0.29215 0.0
H106 H 0.92439 0.63575 0.29982 0.0
H107 H 0.84501 0.66807 0.35128 0.0
Mn108 Mn 0.94319 0.16217 0.47309 0.0
Mn109 Mn 0.978 0.26054 0.48798 0.0
C110 C 0.96067 0.2007 0.37666 0.0
C111 C 0.9689 0.09362 0.47311 0.0
C112 C 0.86304 0.2315 0.498 0.0
O113 O 0.9615 0.16668 0.57323 0.0
O114 O 0.98729 0.23195 0.57483 0.0
C115 C 0.09385 0.24667 0.50988 0.0
N116 N 0.05347 0.26515 0.47538 0.0
C117 C 0.11568 0.30613 0.41285 0.0
C118 C 0.1581 0.28755 0.44755 0.0
C119 C 0.14713 0.25737 0.4958 0.0
C120 C 0.06365 0.29293 0.42701 0.0
H121 H 0.08537 0.22415 0.54806 0.0
C122 C 0.97941 0.19784 0.60394 0.0
O123 O 0.91993 0.10443 0.48603 0.0
O124 O 1.00256 0.12253 0.46002 0.0
N125 N 0.97154 0.29339 0.40927 0.0
C126 C 0.92587 0.30885 0.38182 0.0
C127 C 0.9291 0.34213 0.33796 0.0
C128 C 0.97916 0.35925 0.32325 0.0
C129 C 0.02591 0.34152 0.3491 0.0
C130 C 0.0201 0.30877 0.39339 0.0
H131 H 0.88707 0.2971 0.39564 0.0
O132 O 0.93356 0.16713 0.37338 0.0
O133 O 0.97865 0.21001 0.43629 0.0
O134 O 0.87279 0.19371 0.48847 0.0
O135 O 0.89962 0.25862 0.49994 0.0
C136 C 0.0778 0.35632 0.33562 0.0
C137 C 0.12276 0.33794 0.36613 0.0
H138 H 0.19916 0.29643 0.43796 0.0
H139 H 0.17961 0.24294 0.52289 0.0
H140 H 0.89297 0.35556 0.31767 0.0
H141 H 0.98088 0.38677 0.2937 0.0
H142 H 0.08367 0.38194 0.30219 0.0
H143 H 0.16245 0.34929 0.35481 0.0
Mn144 Mn 0.56268 0.66224 0.02023 0.0
Mn145 Mn 0.52797 0.76064 0.00599 0.0
C146 C 0.54595 0.70061 0.1171 0.0
C147 C 0.53676 0.59372 0.01985 0.0
C148 C 0.64272 0.73124 0.99359 0.0
O149 O 0.54366 0.66708 0.9203 0.0
O150 O 0.51623 0.73196 0.91968 0.0
C151 C 0.41146 0.74791 0.98815 0.0
N152 N 0.4529 0.76602 0.02115 0.0
C153 C 0.39292 0.80833 0.08459 0.0
C154 C 0.34941 0.79014 0.0515 0.0
C155 C 0.35873 0.75947 0.00356 0.0
C156 C 0.44432 0.79426 0.06926 0.0
H157 H 0.41869 0.72507 0.95009 0.0
C158 C 0.52419 0.69796 0.89024 0.0
O159 O 0.58568 0.60452 0.00659 0.0
O160 O 0.50326 0.62262 0.0336 0.0
N161 N 0.53671 0.79349 0.08435 0.0
C162 C 0.58324 0.80826 0.11055 0.0
C163 C 0.58166 0.84171 0.15416 0.0
C164 C 0.53236 0.85977 0.16983 0.0
C165 C 0.48471 0.84275 0.14523 0.0
C166 C 0.48887 0.80967 0.10134 0.0
H167 H 0.62146 0.7958 0.09597 0.0
O168 O 0.57293 0.66697 0.11992 0.0
O169 O 0.52768 0.71007 0.05768 0.0
O170 O 0.63311 0.69357 0.00439 0.0
O171 O 0.60606 0.75826 0.99126 0.0
C172 C 0.43348 0.85852 0.15963 0.0
C173 C 0.38751 0.84062 0.13074 0.0
H174 H 0.30878 0.79971 0.06204 0.0
H175 H 0.3254 0.74535 0.97768 0.0
H176 H 0.61848 0.85456 0.17354 0.0
H177 H 0.53195 0.88735 0.19932 0.0
H178 H 0.42886 0.88451 0.19256 0.0
H179 H 0.34835 0.85269 0.14285 0.0
Mn180 Mn 0.44319 0.35649 0.01888 0.0
Mn181 Mn 0.47803 0.25814 0.00389 0.0
C182 C 0.46099 0.31796 0.11524 0.0
C183 C 0.46884 0.42507 0.01882 0.0
C184 C 0.363 0.28705 0.9944 0.0
O185 O 0.46117 0.35201 0.91869 0.0
O186 O 0.48674 0.28669 0.91693 0.0
C187 C 0.59373 0.27223 0.98129 0.0
N188 N 0.55359 0.25368 0.01605 0.0
C189 C 0.61628 0.21304 0.07855 0.0
C190 C 0.65845 0.23168 0.04357 0.0
C191 C 0.64712 0.26172 0.99519 0.0
C192 C 0.56412 0.22602 0.06452 0.0
H193 H 0.58497 0.29466 0.94305 0.0
C194 C 0.47879 0.32081 0.88787 0.0
O195 O 0.41983 0.41422 0.00604 0.0
O196 O 0.50256 0.39618 0.0318 0.0
N197 N 0.47208 0.2253 0.08267 0.0
C198 C 0.42661 0.20972 0.11034 0.0
C199 C 0.43021 0.17651 0.15431 0.0
C200 C 0.48043 0.1596 0.16893 0.0
C201 C 0.52697 0.17747 0.14285 0.0
C202 C 0.52079 0.2101 0.09841 0.0
H203 H 0.38769 0.2213 0.09662 0.0
O204 O 0.43389 0.35152 0.11861 0.0
O205 O 0.47882 0.30867 0.05558 0.0
O206 O 0.37277 0.32486 0.00372 0.0
O207 O 0.39959 0.25994 0.99242 0.0
C208 C 0.579 0.1629 0.15627 0.0
C209 C 0.62373 0.18136 0.12545 0.0
H210 H 0.6996 0.22296 0.05304 0.0
H211 H 0.67941 0.27622 0.9679 0.0
H212 H 0.39424 0.16296 0.17476 0.0
H213 H 0.48243 0.13212 0.19852 0.0
H214 H 0.58515 0.1374 0.18987 0.0
H215 H 0.66353 0.17019 0.13671 0.0
Mn216 Mn 0.56195 0.35578 0.47125 0.0
Mn217 Mn 0.52736 0.25735 0.4855 0.0
C218 C 0.54513 0.31738 0.37442 0.0
C219 C 0.53609 0.4243 0.4716 0.0
C220 C 0.6421 0.28682 0.49773 0.0
O221 O 0.54306 0.35095 0.57116 0.0
O222 O 0.51588 0.28602 0.57184 0.0
C223 C 0.4109 0.27006 0.50366 0.0
N224 N 0.45224 0.25197 0.47053 0.0
C225 C 0.39202 0.20969 0.40717 0.0
C226 C 0.34863 0.22787 0.44041 0.0
C227 C 0.35811 0.25851 0.48836 0.0
C228 C 0.44348 0.22375 0.4224 0.0
H229 H 0.41826 0.29288 0.54173 0.0
C230 C 0.52378 0.32004 0.60126 0.0
O231 O 0.58501 0.41348 0.48489 0.0
O232 O 0.50253 0.39542 0.45785 0.0
N233 N 0.53584 0.2245 0.40712 0.0
C234 C 0.58227 0.20969 0.38085 0.0
C235 C 0.58053 0.17623 0.33724 0.0
C236 C 0.53117 0.15821 0.32165 0.0
C237 C 0.4836 0.17526 0.34632 0.0
C238 C 0.48792 0.20834 0.39021 0.0
H239 H 0.62055 0.22212 0.39538 0.0
O240 O 0.57207 0.35105 0.37159 0.0
O241 O 0.52691 0.30792 0.43382 0.0
O242 O 0.63239 0.32449 0.48709 0.0
O243 O 0.6055 0.25974 0.50002 0.0
C244 C 0.43231 0.15953 0.332 0.0
C245 C 0.38645 0.17743 0.36101 0.0
H246 H 0.30796 0.21831 0.42996 0.0
H247 H 0.32488 0.27262 0.51435 0.0
H248 H 0.61728 0.16336 0.31783 0.0
H249 H 0.53062 0.13063 0.29217 0.0
H250 H 0.42758 0.13355 0.29904 0.0
H251 H 0.34724 0.16537 0.34897 0.0
Mn252 Mn 0.44341 0.6617 0.47238 0.0
Mn253 Mn 0.47874 0.75995 0.4875 0.0
C254 C 0.46144 0.70018 0.37606 0.0
C255 C 0.46873 0.59306 0.47248 0.0
C256 C 0.36355 0.73135 0.49667 0.0
O257 O 0.46141 0.66611 0.57263 0.0
O258 O 0.48725 0.73137 0.57449 0.0
C259 C 0.59434 0.74549 0.51046 0.0
N260 N 0.55433 0.76417 0.47558 0.0
C261 C 0.61728 0.80459 0.41323 0.0
C262 C 0.65933 0.7858 0.44833 0.0
C263 C 0.64781 0.75581 0.4967 0.0
C264 C 0.56504 0.79179 0.42713 0.0
H265 H 0.58544 0.72309 0.54867 0.0
C266 C 0.47914 0.69727 0.60352 0.0
O267 O 0.41976 0.60402 0.48514 0.0
O268 O 0.50258 0.62186 0.4596 0.0
N269 N 0.47301 0.79281 0.40872 0.0
C270 C 0.42764 0.80857 0.38095 0.0
C271 C 0.43146 0.84178 0.33703 0.0
C272 C 0.48179 0.8585 0.32254 0.0
C273 C 0.52821 0.84045 0.34869 0.0
C274 C 0.52182 0.80784 0.39311 0.0
H275 H 0.38864 0.79712 0.39458 0.0
O276 O 0.43414 0.66671 0.37263 0.0
O277 O 0.47928 0.70942 0.43579 0.0
O278 O 0.37315 0.69352 0.48739 0.0
O279 O 0.40027 0.75837 0.49872 0.0
C280 C 0.58033 0.85484 0.33539 0.0
C281 C 0.62494 0.83622 0.36633 0.0
H282 H 0.70054 0.79438 0.43896 0.0
H283 H 0.68 0.74121 0.52408 0.0
H284 H 0.39557 0.85547 0.31652 0.0
H285 H 0.48396 0.88599 0.29299 0.0
H286 H 0.58664 0.88032 0.30178 0.0
H287 H 0.66482 0.84726 0.35517 0.0
C288 C 0.04062 0.97843 0.01885 0.0
C289 C 0.98589 0.96829 0.01856 0.0
H290 H 0.09947 0.02592 0.01886 0.0
C291 C 0.94794 0.9998 0.01837 0.0
H292 H 0.0709 0.95487 0.01878 0.0
C293 C 0.96437 0.04052 0.0193 0.0
C294 C 0.0191 0.05065 0.01938 0.0
H295 H 0.90551 0.99302 0.01825 0.0
H296 H 0.9341 0.06409 0.01955 0.0
C297 C 0.05704 0.01915 0.01873 0.0
C298 C 0.05744 0.99975 0.47356 0.0
C299 C 0.0196 0.96817 0.4729 0.0
H300 H 0.07108 0.06405 0.47345 0.0
C301 C 0.96483 0.97818 0.47288 0.0
H302 H 0.09989 0.99306 0.47351 0.0
C303 C 0.94826 0.01886 0.4737 0.0
C304 C 0.98611 0.05045 0.47353 0.0
H305 H 0.93463 0.95455 0.47261 0.0
H306 H 0.90581 0.02556 0.47373 0.0
C307 C 0.04088 0.04043 0.47336 0.0
C308 C 0.55732 0.51899 0.01798 0.0
C309 C 0.51949 0.55056 0.01897 0.0
H310 H 0.57098 0.45469 0.01785 0.0
C311 C 0.46472 0.54052 0.01935 0.0
H312 H 0.59977 0.52568 0.01774 0.0
C313 C 0.44816 0.49983 0.01855 0.0
C314 C 0.48601 0.46826 0.01838 0.0
H315 H 0.43452 0.56414 0.01988 0.0
H316 H 0.40571 0.49312 0.01879 0.0
C317 C 0.54077 0.4783 0.01821 0.0
C318 C 0.55686 0.49899 0.4735 0.0
C319 C 0.51892 0.46748 0.47244 0.0
H320 H 0.57074 0.56326 0.47366 0.0
C321 C 0.46419 0.47761 0.47194 0.0
H322 H 0.59929 0.49223 0.47382 0.0
C323 C 0.44776 0.51833 0.47272 0.0
C324 C 0.48572 0.54983 0.47296 0.0
H325 H 0.43392 0.45403 0.47136 0.0
H326 H 0.40534 0.52511 0.47239 0.0
C327 C 0.54045 0.5397 0.47325 0.0
C328 C 0.96875 0.22104 0.19129 0.0
C329 C 0.02425 0.21826 0.18134 0.0
H330 H 0.9046 0.21844 0.26301 0.0
C331 C 0.05825 0.22041 0.2378 0.0
H332 H 0.94155 0.21848 0.14893 0.0
C333 C 0.03708 0.22068 0.30324 0.0
C334 C 0.98154 0.21825 0.31318 0.0
H335 H 0.10119 0.21781 0.23149 0.0
H336 H 0.06424 0.21784 0.34559 0.0
C337 C 0.94757 0.22077 0.25673 0.0
C338 C 0.96878 0.79799 0.30116 0.0
C339 C 0.02431 0.80061 0.31117 0.0
H340 H 0.90458 0.8007 0.22935 0.0
C341 C 0.05825 0.79831 0.25475 0.0
H342 H 0.94164 0.80067 0.34349 0.0
C343 C 0.03701 0.79805 0.18928 0.0
C344 C 0.98147 0.80061 0.17927 0.0
H345 H 0.1012 0.80079 0.26109 0.0
H346 H 0.06416 0.80077 0.14697 0.0
C347 C 0.94754 0.79826 0.23569 0.0
C348 C 0.00886 0.85939 0.71042 0.0
C349 C 0.01435 0.82244 0.67526 0.0
H350 H 0.99313 0.88817 0.80591 0.0
C351 C 0.00868 0.78581 0.71097 0.0
H352 H 0.01292 0.88813 0.68427 0.0
C353 C 0.99797 0.78584 0.77965 0.0
C354 C 0.99207 0.82249 0.81521 0.0
H355 H 0.01292 0.7567 0.68601 0.0
H356 H 0.99389 0.75674 0.80473 0.0
C357 C 0.99737 0.85942 0.77989 0.0
C358 C 0.00948 0.15946 0.78169 0.0
C359 C 0.0122 0.19639 0.81748 0.0
H360 H 0.99628 0.13061 0.6856 0.0
C361 C 0.00345 0.2329 0.78238 0.0
H362 H 0.0159 0.13079 0.80732 0.0
C363 C 0.99284 0.23279 0.71365 0.0
C364 C 0.99012 0.19617 0.67744 0.0
H365 H 0.0053 0.26201 0.80779 0.0
H366 H 0.98646 0.26178 0.68896 0.0
C367 C 0.99809 0.15933 0.71218 0.0
C368 C 0.46981 0.72087 0.19077 0.0
C369 C 0.52531 0.71798 0.18085 0.0
H370 H 0.40559 0.71826 0.2624 0.0
C371 C 0.55927 0.71988 0.23738 0.0
H372 H 0.44263 0.71847 0.14837 0.0
C373 C 0.53804 0.72003 0.30281 0.0
C374 C 0.48248 0.71775 0.31266 0.0
H375 H 0.6022 0.71719 0.23112 0.0
H376 H 0.56515 0.71701 0.34517 0.0
C377 C 0.44857 0.72049 0.25619 0.0
C378 C 0.46903 0.29714 0.30051 0.0
C379 C 0.52453 0.29995 0.31066 0.0
H380 H 0.40491 0.29989 0.22861 0.0
C381 C 0.55855 0.29797 0.25429 0.0
H382 H 0.44182 0.29956 0.3428 0.0
C383 C 0.5374 0.29788 0.18877 0.0
C384 C 0.48187 0.30029 0.17869 0.0
H385 H 0.60149 0.3006 0.26074 0.0
H386 H 0.56457 0.30085 0.14653 0.0
C387 C 0.44788 0.29758 0.235 0.0
C388 C 0.48988 0.28587 0.77782 0.0
C389 C 0.48904 0.32244 0.81432 0.0
H390 H 0.50095 0.25658 0.6835 0.0
C391 C 0.49867 0.35913 0.77987 0.0
H392 H 0.4821 0.25703 0.80232 0.0
C393 C 0.51009 0.35889 0.7104 0.0
C394 C 0.51119 0.322 0.67435 0.0
H395 H 0.49829 0.3878 0.80671 0.0
H396 H 0.51797 0.38743 0.68506 0.0
C397 C 0.50052 0.28566 0.70912 0.0
C398 C 0.51035 0.65912 0.78106 0.0
C399 C 0.51154 0.69601 0.81713 0.0
H400 H 0.49848 0.63024 0.68471 0.0
C401 C 0.50093 0.73236 0.78235 0.0
H402 H 0.51818 0.63057 0.80641 0.0
C403 C 0.49028 0.73217 0.71362 0.0
C404 C 0.48937 0.69561 0.67711 0.0
H405 H 0.50144 0.76143 0.80797 0.0
H406 H 0.48257 0.76102 0.68911 0.0
C407 C 0.49892 0.6589 0.71156 0.0
C408 C 0.2943 0.23115 0.98861 0.0
C409 C 0.30643 0.27303 0.9892 0.0
H410 H 0.23355 0.1852 0.99004 0.0
C411 C 0.2639 0.30094 0.98791 0.0
H412 H 0.32587 0.20861 0.98944 0.0
C413 C 0.21077 0.28739 0.98773 0.0
C414 C 0.19864 0.24552 0.9894 0.0
H415 H 0.27153 0.33335 0.9881 0.0
H416 H 0.17919 0.30993 0.98791 0.0
C417 C 0.24118 0.2176 0.98898 0.0
C418 C 0.71125 0.78716 0.98578 0.0
C419 C 0.69922 0.74528 0.98756 0.0
H420 H 0.7719 0.83321 0.98627 0.0
C421 C 0.74183 0.71742 0.98717 0.0
H422 H 0.67962 0.80967 0.9859 0.0
C423 C 0.79493 0.73105 0.98686 0.0
C424 C 0.80695 0.77295 0.98752 0.0
H425 H 0.73427 0.68501 0.98829 0.0
H426 H 0.82656 0.70855 0.9878 0.0
C427 C 0.76435 0.80079 0.98606 0.0
C428 C 0.21133 0.73128 0.50363 0.0
C429 C 0.19932 0.77317 0.50202 0.0
H430 H 0.27195 0.68522 0.5031 0.0
C431 C 0.24195 0.80102 0.50226 0.0
H432 H 0.17969 0.70878 0.50359 0.0
C433 C 0.29504 0.78738 0.50245 0.0
C434 C 0.30704 0.74549 0.50187 0.0
H435 H 0.23441 0.83344 0.50122 0.0
H436 H 0.32669 0.80988 0.50151 0.0
C437 C 0.26442 0.71764 0.50328 0.0
C438 C 0.74117 0.30084 0.50385 0.0
C439 C 0.69866 0.27289 0.5036 0.0
H440 H 0.82585 0.30991 0.50308 0.0
C441 C 0.71084 0.23103 0.50536 0.0
H442 H 0.7335 0.33324 0.50272 0.0
C443 C 0.76398 0.21752 0.50502 0.0
C444 C 0.80648 0.24547 0.50349 0.0
H445 H 0.67928 0.20846 0.50532 0.0
H446 H 0.77166 0.18512 0.50487 0.0
C447 C 0.79431 0.28734 0.50408 0.0
loop_
_geom_bond_atom_site_label_1
_geom_bond_atom_site_label_2
_geom_bond_distance
_geom_bond_site_symmetry_2
_ccdc_geom_bond_type
Mn0 O5 2.095 1_554 S
Mn0 O15 2.162 . S
Mn0 O16 2.297 1_455 S
Mn0 O24 2.385 . S
Mn0 O25 2.209 . S
Mn0 O26 2.094 . S
Mn1 O6 2.121 1_454 S
Mn1 N8 2.257 1_455 S
Mn1 N17 2.282 . S
Mn1 O25 2.215 . S
Mn1 O27 2.117 . S
C2 O24 1.234 . S
C2 O25 1.283 . S
C3 O15 1.281 . S
C3 O16 1.236 1_455 S
C4 O26 1.240 . S
C4 O27 1.264 . S
O5 Mn0 2.095 1_556 S
O5 C14 1.250 . S
O6 Mn1 2.121 1_656 S
O6 C14 1.258 1_655 S
C7 N8 1.326 1_556 S
C7 C11 1.460 1_556 S
C7 H13 0.929 . S
N8 Mn1 2.257 1_655 S
N8 C7 1.326 1_554 S
N8 C12 1.362 . S
C9 C10 1.258 . S
C9 C12 1.431 . S
C9 C29 1.449 . S
C10 C9 1.258 . S
C10 C11 1.477 . S
C10 H30 0.931 . S
C11 C7 1.460 1_554 S
C11 C10 1.477 . S
C11 H31 0.930 1_554 S
C12 N8 1.362 . S
C12 C9 1.431 . S
C12 C22 1.476 . S
H13 C7 0.929 . S
C14 O5 1.250 . S
C14 O6 1.258 1_455 S
O15 Mn0 2.162 . S
O15 C3 1.281 . S
O16 Mn0 2.297 1_655 S
O16 C3 1.236 1_655 S
N17 Mn1 2.282 . S
N17 C18 1.328 . S
N17 C22 1.318 1_455 S
C18 N17 1.328 . S
C18 C19 1.457 . S
C18 H23 0.929 . S
C19 C18 1.457 . S
C19 C20 1.291 . S
C19 H32 0.931 . S
C20 C19 1.291 . S
C20 C21 1.373 1_455 S
C20 H33 0.929 . S
C21 C20 1.373 1_655 S
C21 C22 1.396 . S
C21 C28 1.403 . S
C22 C12 1.476 . S
C22 N17 1.318 1_655 S
C22 C21 1.396 . S
H23 C18 0.929 . S
O24 Mn0 2.385 . S
O24 C2 1.234 . S
O25 Mn0 2.209 . S
O25 Mn1 2.215 . S
O25 C2 1.283 . S
O26 Mn0 2.094 . S
O26 C4 1.240 . S
O27 Mn1 2.117 . S
O27 C4 1.264 . S
C28 C21 1.403 . S
C28 C29 1.399 . S
C28 H34 0.929 . S
C29 C9 1.449 . S
C29 C28 1.399 . S
C29 H35 0.930 . S
H30 C10 0.931 . S
H31 C11 0.930 1_556 S
H32 C19 0.931 . S
H33 C20 0.929 . S
H34 C28 0.929 . S
H35 C29 0.930 . S
Mn36 O41 2.095 1_554 S
Mn36 O51 2.162 . S
Mn36 O52 2.297 1_655 S
Mn36 O60 2.385 . S
Mn36 O61 2.209 . S
Mn36 O62 2.094 . S
Mn37 O42 2.121 1_654 S
Mn37 N44 2.257 1_655 S
Mn37 N53 2.282 . S
Mn37 O61 2.215 . S
Mn37 O63 2.117 . S
C38 O60 1.234 . S
C38 O61 1.283 . S
C39 O51 1.281 . S
C39 O52 1.236 1_655 S
C40 O62 1.240 . S
C40 O63 1.264 . S
O41 Mn36 2.095 1_556 S
O41 C50 1.250 . S
O42 Mn37 2.121 1_456 S
O42 C50 1.258 1_455 S
C43 N44 1.326 1_556 S
C43 C47 1.460 1_556 S
C43 H49 0.929 . S
N44 Mn37 2.257 1_455 S
N44 C43 1.326 1_554 S
N44 C48 1.362 . S
C45 C46 1.258 . S
C45 C48 1.431 . S
C45 C65 1.449 . S
C46 C45 1.258 . S
C46 C47 1.477 . S
C46 H66 0.931 . S
C47 C43 1.460 1_554 S
C47 C46 1.477 . S
C47 H67 0.930 1_554 S
C48 N44 1.362 . S
C48 C45 1.431 . S
C48 C58 1.476 . S
H49 C43 0.929 . S
C50 O41 1.250 . S
C50 O42 1.258 1_655 S
O51 Mn36 2.162 . S
O51 C39 1.281 . S
O52 Mn36 2.297 1_455 S
O52 C39 1.236 1_455 S
N53 Mn37 2.282 . S
N53 C54 1.328 . S
N53 C58 1.318 1_655 S
C54 N53 1.328 . S
C54 C55 1.457 . S
C54 H59 0.929 . S
C55 C54 1.457 . S
C55 C56 1.291 . S
C55 H68 0.931 . S
C56 C55 1.291 . S
C56 C57 1.373 1_655 S
C56 H69 0.929 . S
C57 C56 1.373 1_455 S
C57 C58 1.396 . S
C57 C64 1.403 . S
C58 C48 1.476 . S
C58 N53 1.318 1_455 S
C58 C57 1.396 . S
H59 C54 0.929 . S
O60 Mn36 2.385 . S
O60 C38 1.234 . S
O61 Mn36 2.209 . S
O61 Mn37 2.215 . S
O61 C38 1.283 . S
O62 Mn36 2.094 . S
O62 C40 1.240 . S
O63 Mn37 2.117 . S
O63 C40 1.264 . S
C64 C57 1.403 . S
C64 C65 1.399 . S
C64 H70 0.929 . S
C65 C45 1.449 . S
C65 C64 1.399 . S
C65 H71 0.930 . S
H66 C46 0.931 . S
H67 C47 0.930 1_556 S
H68 C55 0.931 . S
H69 C56 0.929 . S
H70 C64 0.929 . S
H71 C65 0.930 . S
Mn72 O77 2.095 . S
Mn72 O87 2.162 . S
Mn72 O88 2.297 1_455 S
Mn72 O96 2.385 . S
Mn72 O97 2.209 . S
Mn72 O98 2.094 . S
Mn73 O78 2.121 1_455 S
Mn73 N80 2.257 1_455 S
Mn73 N89 2.282 . S
Mn73 O97 2.215 . S
Mn73 O99 2.117 . S
C74 O96 1.234 . S
C74 O97 1.283 . S
C75 O87 1.281 . S
C75 O88 1.236 1_455 S
C76 O98 1.240 . S
C76 O99 1.264 . S
O77 Mn72 2.095 . S
O77 C86 1.250 . S
O78 Mn73 2.121 1_655 S
O78 C86 1.258 1_655 S
C79 N80 1.326 . S
C79 C83 1.460 . S
C79 H85 0.929 . S
N80 Mn73 2.257 1_655 S
N80 C79 1.326 . S
N80 C84 1.362 . S
C81 C82 1.258 . S
C81 C84 1.431 . S
C81 C101 1.449 . S
C82 C81 1.258 . S
C82 C83 1.477 . S
C82 H102 0.931 . S
C83 C79 1.460 . S
C83 C82 1.477 . S
C83 H103 0.930 . S
C84 N80 1.362 . S
C84 C81 1.431 . S
C84 C94 1.476 . S
H85 C79 0.929 . S
C86 O77 1.250 . S
C86 O78 1.258 1_455 S
O87 Mn72 2.162 . S
O87 C75 1.281 . S
O88 Mn72 2.297 1_655 S
O88 C75 1.236 1_655 S
N89 Mn73 2.282 . S
N89 C90 1.328 . S
N89 C94 1.318 1_455 S
C90 N89 1.328 . S
C90 C91 1.457 . S
C90 H95 0.929 . S
C91 C90 1.457 . S
C91 C92 1.291 . S
C91 H104 0.931 . S
C92 C91 1.291 . S
C92 C93 1.373 1_455 S
C92 H105 0.929 . S
C93 C92 1.373 1_655 S
C93 C94 1.396 . S
C93 C100 1.403 . S
C94 C84 1.476 . S
C94 N89 1.318 1_655 S
C94 C93 1.396 . S
H95 C90 0.929 . S
O96 Mn72 2.385 . S
O96 C74 1.234 . S
O97 Mn72 2.209 . S
O97 Mn73 2.215 . S
O97 C74 1.283 . S
O98 Mn72 2.094 . S
O98 C76 1.240 . S
O99 Mn73 2.117 . S
O99 C76 1.264 . S
C100 C93 1.403 . S
C100 C101 1.399 . S
C100 H106 0.929 . S
C101 C81 1.449 . S
C101 C100 1.399 . S
C101 H107 0.930 . S
H102 C82 0.931 . S
H103 C83 0.930 . S
H104 C91 0.931 . S
H105 C92 0.929 . S
H106 C100 0.929 . S
H107 C101 0.930 . S
Mn108 O113 2.095 . S
Mn108 O123 2.162 . S
Mn108 O124 2.297 1_655 S
Mn108 O132 2.385 . S
Mn108 O133 2.209 . S
Mn108 O134 2.094 . S
Mn109 O114 2.121 1_655 S
Mn109 N116 2.257 1_655 S
Mn109 N125 2.282 . S
Mn109 O133 2.215 . S
Mn109 O135 2.117 . S
C110 O132 1.234 . S
C110 O133 1.283 . S
C111 O123 1.281 . S
C111 O124 1.236 1_655 S
C112 O134 1.240 . S
C112 O135 1.264 . S
O113 Mn108 2.095 . S
O113 C122 1.250 . S
O114 Mn109 2.121 1_455 S
O114 C122 1.258 1_455 S
C115 N116 1.326 . S
C115 C119 1.460 . S
C115 H121 0.929 . S
N116 Mn109 2.257 1_455 S
N116 C115 1.326 . S
N116 C120 1.362 . S
C117 C118 1.258 . S
C117 C120 1.431 . S
C117 C137 1.449 . S
C118 C117 1.258 . S
C118 C119 1.477 . S
C118 H138 0.931 . S
C119 C115 1.460 . S
C119 C118 1.477 . S
C119 H139 0.930 . S
C120 N116 1.362 . S
C120 C117 1.431 . S
C120 C130 1.476 . S
H121 C115 0.929 . S
C122 O113 1.250 . S
C122 O114 1.258 1_655 S
O123 Mn108 2.162 . S
O123 C111 1.281 . S
O124 Mn108 2.297 1_455 S
O124 C111 1.236 1_455 S
N125 Mn109 2.282 . S
N125 C126 1.328 . S
N125 C130 1.318 1_655 S
C126 N125 1.328 . S
C126 C127 1.457 . S
C126 H131 0.929 . S
C127 C126 1.457 . S
C127 C128 1.291 . S
C127 H140 0.931 . S
C128 C127 1.291 . S
C128 C129 1.373 1_655 S
C128 H141 0.929 . S
C129 C128 1.373 1_455 S
C129 C130 1.396 . S
C129 C136 1.403 . S
C130 C120 1.476 . S
C130 N125 1.318 1_455 S
C130 C129 1.396 . S
H131 C126 0.929 . S
O132 Mn108 2.385 . S
O132 C110 1.234 . S
O133 Mn108 2.209 . S
O133 Mn109 2.215 . S
O133 C110 1.283 . S
O134 Mn108 2.094 . S
O134 C112 1.240 . S
O135 Mn109 2.117 . S
O135 C112 1.264 . S
C136 C129 1.403 . S
C136 C137 1.399 . S
C136 H142 0.929 . S
C137 C117 1.449 . S
C137 C136 1.399 . S
C137 H143 0.930 . S
H138 C118 0.931 . S
H139 C119 0.930 . S
H140 C127 0.931 . S
H141 C128 0.929 . S
H142 C136 0.929 . S
H143 C137 0.930 . S
Mn144 O149 2.095 1_554 S
Mn144 O159 2.162 . S
Mn144 O160 2.297 . S
Mn144 O168 2.385 . S
Mn144 O169 2.209 . S
Mn144 O170 2.094 . S
Mn145 O150 2.121 1_554 S
Mn145 N152 2.257 . S
Mn145 N161 2.282 . S
Mn145 O169 2.215 . S
Mn145 O171 2.117 . S
C146 O168 1.234 . S
C146 O169 1.283 . S
C147 O159 1.281 . S
C147 O160 1.236 . S
C148 O170 1.240 . S
C148 O171 1.264 . S
O149 Mn144 2.095 1_556 S
O149 C158 1.250 . S
O150 Mn145 2.121 1_556 S
O150 C158 1.258 . S
C151 N152 1.326 1_556 S
C151 C155 1.460 1_556 S
C151 H157 0.929 . S
N152 Mn145 2.257 . S
N152 C151 1.326 1_554 S
N152 C156 1.362 . S
C153 C154 1.258 . S
C153 C156 1.431 . S
C153 C173 1.449 . S
C154 C153 1.258 . S
C154 C155 1.477 . S
C154 H174 0.931 . S
C155 C151 1.460 1_554 S
C155 C154 1.477 . S
C155 H175 0.930 1_554 S
C156 N152 1.362 . S
C156 C153 1.431 . S
C156 C166 1.476 . S
H157 C151 0.929 . S
C158 O149 1.250 . S
C158 O150 1.258 . S
O159 Mn144 2.162 . S
O159 C147 1.281 . S
O160 Mn144 2.297 . S
O160 C147 1.236 . S
N161 Mn145 2.282 . S
N161 C162 1.328 . S
N161 C166 1.318 . S
C162 N161 1.328 . S
C162 C163 1.457 . S
C162 H167 0.929 . S
C163 C162 1.457 . S
C163 C164 1.291 . S
C163 H176 0.931 . S
C164 C163 1.291 . S
C164 C165 1.373 . S
C164 H177 0.929 . S
C165 C164 1.373 . S
C165 C166 1.396 . S
C165 C172 1.403 . S
C166 C156 1.476 . S
C166 N161 1.318 . S
C166 C165 1.396 . S
H167 C162 0.929 . S
O168 Mn144 2.385 . S
O168 C146 1.234 . S
O169 Mn144 2.209 . S
O169 Mn145 2.215 . S
O169 C146 1.283 . S
O170 Mn144 2.094 . S
O170 C148 1.240 . S
O171 Mn145 2.117 . S
O171 C148 1.264 . S
C172 C165 1.403 . S
C172 C173 1.399 . S
C172 H178 0.929 . S
C173 C153 1.449 . S
C173 C172 1.399 . S
C173 H179 0.930 . S
H174 C154 0.931 . S
H175 C155 0.930 1_556 S
H176 C163 0.931 . S
H177 C164 0.929 . S
H178 C172 0.929 . S
H179 C173 0.930 . S
Mn180 O185 2.095 1_554 S
Mn180 O195 2.162 . S
Mn180 O196 2.297 . S
Mn180 O204 2.385 . S
Mn180 O205 2.209 . S
Mn180 O206 2.094 . S
Mn181 O186 2.121 1_554 S
Mn181 N188 2.257 . S
Mn181 N197 2.282 . S
Mn181 O205 2.215 . S
Mn181 O207 2.117 . S
C182 O204 1.234 . S
C182 O205 1.283 . S
C183 O195 1.281 . S
C183 O196 1.236 . S
C184 O206 1.240 . S
C184 O207 1.264 . S
O185 Mn180 2.095 1_556 S
O185 C194 1.250 . S
O186 Mn181 2.121 1_556 S
O186 C194 1.258 . S
C187 N188 1.326 1_556 S
C187 C191 1.460 1_556 S
C187 H193 0.929 . S
N188 Mn181 2.257 . S
N188 C187 1.326 1_554 S
N188 C192 1.362 . S
C189 C190 1.258 . S
C189 C192 1.431 . S
C189 C209 1.449 . S
C190 C189 1.258 . S
C190 C191 1.477 . S
C190 H210 0.931 . S
C191 C187 1.460 1_554 S
C191 C190 1.477 . S
C191 H211 0.930 1_554 S
C192 N188 1.362 . S
C192 C189 1.431 . S
C192 C202 1.476 . S
H193 C187 0.929 . S
C194 O185 1.250 . S
C194 O186 1.258 . S
O195 Mn180 2.162 . S
O195 C183 1.281 . S
O196 Mn180 2.297 . S
O196 C183 1.236 . S
N197 Mn181 2.282 . S
N197 C198 1.328 . S
N197 C202 1.318 . S
C198 N197 1.328 . S
C198 C199 1.457 . S
C198 H203 0.929 . S
C199 C198 1.457 . S
C199 C200 1.291 . S
C199 H212 0.931 . S
C200 C199 1.291 . S
C200 C201 1.373 . S
C200 H213 0.929 . S
C201 C200 1.373 . S
C201 C202 1.396 . S
C201 C208 1.403 . S
C202 C192 1.476 . S
C202 N197 1.318 . S
C202 C201 1.396 . S
H203 C198 0.929 . S
O204 Mn180 2.385 . S
O204 C182 1.234 . S
O205 Mn180 2.209 . S
O205 Mn181 2.215 . S
O205 C182 1.283 . S
O206 Mn180 2.094 . S
O206 C184 1.240 . S
O207 Mn181 2.117 . S
O207 C184 1.264 . S
C208 C201 1.403 . S
C208 C209 1.399 . S
C208 H214 0.929 . S
C209 C189 1.449 . S
C209 C208 1.399 . S
C209 H215 0.930 . S
H210 C190 0.931 . S
H211 C191 0.930 1_556 S
H212 C199 0.931 . S
H213 C200 0.929 . S
H214 C208 0.929 . S
H215 C209 0.930 . S
Mn216 O221 2.095 . S
Mn216 O231 2.162 . S
Mn216 O232 2.297 . S
Mn216 O240 2.385 . S
Mn216 O241 2.209 . S
Mn216 O242 2.094 . S
Mn217 O222 2.121 . S
Mn217 N224 2.257 . S
Mn217 N233 2.282 . S
Mn217 O241 2.215 . S
Mn217 O243 2.117 . S
C218 O240 1.234 . S
C218 O241 1.283 . S
C219 O231 1.281 . S
C219 O232 1.236 . S
C220 O242 1.240 . S
C220 O243 1.264 . S
O221 Mn216 2.095 . S
O221 C230 1.250 . S
O222 Mn217 2.121 . S
O222 C230 1.258 . S
C223 N224 1.326 . S
C223 C227 1.460 . S
C223 H229 0.929 . S
N224 Mn217 2.257 . S
N224 C223 1.326 . S
N224 C228 1.362 . S
C225 C226 1.258 . S
C225 C228 1.431 . S
C225 C245 1.449 . S
C226 C225 1.258 . S
C226 C227 1.477 . S
C226 H246 0.931 . S
C227 C223 1.460 . S
C227 C226 1.477 . S
C227 H247 0.930 . S
C228 N224 1.362 . S
C228 C225 1.431 . S
C228 C238 1.476 . S
H229 C223 0.929 . S
C230 O221 1.250 . S
C230 O222 1.258 . S
O231 Mn216 2.162 . S
O231 C219 1.281 . S
O232 Mn216 2.297 . S
O232 C219 1.236 . S
N233 Mn217 2.282 . S
N233 C234 1.328 . S
N233 C238 1.318 . S
C234 N233 1.328 . S
C234 C235 1.457 . S
C234 H239 0.929 . S
C235 C234 1.457 . S
C235 C236 1.291 . S
C235 H248 0.931 . S
C236 C235 1.291 . S
C236 C237 1.373 . S
C236 H249 0.929 . S
C237 C236 1.373 . S
C237 C238 1.396 . S
C237 C244 1.403 . S
C238 C228 1.476 . S
C238 N233 1.318 . S
C238 C237 1.396 . S
H239 C234 0.929 . S
O240 Mn216 2.385 . S
O240 C218 1.234 . S
O241 Mn216 2.209 . S
O241 Mn217 2.215 . S
O241 C218 1.283 . S
O242 Mn216 2.094 . S
O242 C220 1.240 . S
O243 Mn217 2.117 . S
O243 C220 1.264 . S
C244 C237 1.403 . S
C244 C245 1.399 . S
C244 H250 0.929 . S
C245 C225 1.449 . S
C245 C244 1.399 . S
C245 H251 0.930 . S
H246 C226 0.931 . S
H247 C227 0.930 . S
H248 C235 0.931 . S
H249 C236 0.929 . S
H250 C244 0.929 . S
H251 C245 0.930 . S
Mn252 O257 2.095 . S
Mn252 O267 2.162 . S
Mn252 O268 2.297 . S
Mn252 O276 2.385 . S
Mn252 O277 2.209 . S
Mn252 O278 2.094 . S
Mn253 O258 2.121 . S
Mn253 N260 2.257 . S
Mn253 N269 2.282 . S
Mn253 O277 2.215 . S
Mn253 O279 2.117 . S
C254 O276 1.234 . S
C254 O277 1.283 . S
C255 O267 1.281 . S
C255 O268 1.236 . S
C256 O278 1.240 . S
C256 O279 1.264 . S
O257 Mn252 2.095 . S
O257 C266 1.250 . S
O258 Mn253 2.121 . S
O258 C266 1.258 . S
C259 N260 1.326 . S
C259 C263 1.460 . S
C259 H265 0.929 . S
N260 Mn253 2.257 . S
N260 C259 1.326 . S
N260 C264 1.362 . S
C261 C262 1.258 . S
C261 C264 1.431 . S
C261 C281 1.449 . S
C262 C261 1.258 . S
C262 C263 1.477 . S
C262 H282 0.931 . S
C263 C259 1.460 . S
C263 C262 1.477 . S
C263 H283 0.930 . S
C264 N260 1.362 . S
C264 C261 1.431 . S
C264 C274 1.476 . S
H265 C259 0.929 . S
C266 O257 1.250 . S
C266 O258 1.258 . S
O267 Mn252 2.162 . S
O267 C255 1.281 . S
O268 Mn252 2.297 . S
O268 C255 1.236 . S
N269 Mn253 2.282 . S
N269 C270 1.328 . S
N269 C274 1.318 . S
C270 N269 1.328 . S
C270 C271 1.457 . S
C270 H275 0.929 . S
C271 C270 1.457 . S
C271 C272 1.291 . S
C271 H284 0.931 . S
C272 C271 1.291 . S
C272 C273 1.373 . S
C272 H285 0.929 . S
C273 C272 1.373 . S
C273 C274 1.396 . S
C273 C280 1.403 . S
C274 C264 1.476 . S
C274 N269 1.318 . S
C274 C273 1.396 . S
H275 C270 0.929 . S
O276 Mn252 2.385 . S
O276 C254 1.234 . S
O277 Mn252 2.209 . S
O277 Mn253 2.215 . S
O277 C254 1.283 . S
O278 Mn252 2.094 . S
O278 C256 1.240 . S
O279 Mn253 2.117 . S
O279 C256 1.264 . S
C280 C273 1.403 . S
C280 C281 1.399 . S
C280 H286 0.929 . S
C281 C261 1.449 . S
C281 C280 1.399 . S
C281 H287 0.930 . S
H282 C262 0.931 . S
H283 C263 0.930 . S
H284 C271 0.931 . S
H285 C272 0.929 . S
H286 C280 0.929 . S
H287 C281 0.930 . S
C288 C289 1.387 . S
C288 H292 0.950 . S
C288 C297 1.390 1_665 S
C289 C288 1.387 . S
C289 C291 1.387 1_554 S
H290 C297 0.950 . S
C291 C289 1.387 1_556 S
C291 C293 1.390 1_665 S
C291 H295 0.950 . S
H292 C288 0.950 . S
C293 C291 1.390 1_445 S
C293 C294 1.387 1_556 S
C293 H296 0.950 . S
C294 C293 1.387 1_554 S
C294 C297 1.387 . S
H295 C291 0.950 . S
H296 C293 0.950 . S
C297 C288 1.390 1_445 S
C297 H290 0.950 . S
C297 C294 1.387 . S
C298 C299 1.387 . S
C298 H302 0.950 . S
C298 C307 1.390 1_465 S
C299 C298 1.387 . S
C299 C301 1.387 . S
H300 C307 0.950 . S
C301 C299 1.387 . S
C301 C303 1.390 1_465 S
C301 H305 0.950 . S
H302 C298 0.950 . S
C303 C301 1.390 1_645 S
C303 C304 1.387 . S
C303 H306 0.950 . S
C304 C303 1.387 . S
C304 C307 1.387 . S
H305 C301 0.950 . S
H306 C303 0.950 . S
C307 C298 1.390 1_645 S
C307 H300 0.950 . S
C307 C304 1.387 . S
C308 C309 1.387 1_556 S
C308 H312 0.950 . S
C308 C317 1.390 . S
C309 C308 1.387 1_554 S
C309 C311 1.387 . S
H310 C317 0.950 . S
C311 C309 1.387 . S
C311 C313 1.390 . S
C311 H315 0.950 . S
H312 C308 0.950 . S
C313 C311 1.390 . S
C313 C314 1.387 . S
C313 H316 0.950 . S
C314 C313 1.387 . S
C314 C317 1.387 1_554 S
H315 C311 0.950 . S
H316 C313 0.950 . S
C317 C308 1.390 . S
C317 H310 0.950 . S
C317 C314 1.387 1_556 S
C318 C319 1.387 . S
C318 H322 0.950 . S
C318 C327 1.390 . S
C319 C318 1.387 . S
C319 C321 1.387 . S
H320 C327 0.950 . S
C321 C319 1.387 . S
C321 C323 1.390 . S
C321 H325 0.950 . S
H322 C318 0.950 . S
C323 C321 1.390 . S
C323 C324 1.387 . S
C323 H326 0.950 . S
C324 C323 1.387 . S
C324 C327 1.387 . S
H325 C321 0.950 . S
H326 C323 0.950 . S
C327 C318 1.390 . S
C327 H320 0.950 . S
C327 C324 1.387 . S
C328 C329 1.387 . S
C328 H332 0.950 . S
C328 C337 1.390 1_655 S
C329 C328 1.387 . S
C329 C331 1.387 . S
H330 C337 0.950 . S
C331 C329 1.387 . S
C331 C333 1.390 1_655 S
C331 H335 0.950 . S
H332 C328 0.950 . S
C333 C331 1.390 1_455 S
C333 C334 1.387 . S
C333 H336 0.950 . S
C334 C333 1.387 . S
C334 C337 1.387 . S
H335 C331 0.950 . S
H336 C333 0.950 . S
C337 C328 1.390 1_455 S
C337 H330 0.950 . S
C337 C334 1.387 . S
C338 C339 1.387 . S
C338 H342 0.950 . S
C338 C347 1.390 1_655 S
C339 C338 1.387 . S
C339 C341 1.387 . S
H340 C347 0.950 . S
C341 C339 1.387 . S
C341 C343 1.390 1_655 S
C341 H345 0.950 . S
H342 C338 0.950 . S
C343 C341 1.390 1_455 S
C343 C344 1.387 . S
C343 H346 0.950 . S
C344 C343 1.387 . S
C344 C347 1.387 . S
H345 C341 0.950 . S
H346 C343 0.950 . S
C347 C338 1.390 1_455 S
C347 H340 0.950 . S
C347 C344 1.387 . S
C348 C349 1.387 . S
C348 H352 0.950 . S
C348 C357 1.390 1_655 S
C349 C348 1.387 . S
C349 C351 1.387 . S
H350 C357 0.950 . S
C351 C349 1.387 . S
C351 C353 1.390 1_655 S
C351 H355 0.950 . S
H352 C348 0.950 . S
C353 C351 1.390 1_455 S
C353 C354 1.387 . S
C353 H356 0.950 . S
C354 C353 1.387 . S
C354 C357 1.387 . S
H355 C351 0.950 . S
H356 C353 0.950 . S
C357 C348 1.390 1_455 S
C357 H350 0.950 . S
C357 C354 1.387 . S
C358 C359 1.387 . S
C358 H362 0.950 . S
C358 C367 1.390 1_655 S
C359 C358 1.387 . S
C359 C361 1.387 . S
H360 C367 0.950 . S
C361 C359 1.387 . S
C361 C363 1.390 1_655 S
C361 H365 0.950 . S
H362 C358 0.950 . S
C363 C361 1.390 1_455 S
C363 C364 1.387 . S
C363 H366 0.950 . S
C364 C363 1.387 . S
C364 C367 1.387 . S
H365 C361 0.950 . S
H366 C363 0.950 . S
C367 C358 1.390 1_455 S
C367 H360 0.950 . S
C367 C364 1.387 . S
C368 C369 1.387 . S
C368 H372 0.950 . S
C368 C377 1.390 . S
C369 C368 1.387 . S
C369 C371 1.387 . S
H370 C377 0.950 . S
C371 C369 1.387 . S
C371 C373 1.390 . S
C371 H375 0.950 . S
H372 C368 0.950 . S
C373 C371 1.390 . S
C373 C374 1.387 . S
C373 H376 0.950 . S
C374 C373 1.387 . S
C374 C377 1.387 . S
H375 C371 0.950 . S
H376 C373 0.950 . S
C377 C368 1.390 . S
C377 H370 0.950 . S
C377 C374 1.387 . S
C378 C379 1.387 . S
C378 H382 0.950 . S
C378 C387 1.390 . S
C379 C378 1.387 . S
C379 C381 1.387 . S
H380 C387 0.950 . S
C381 C379 1.387 . S
C381 C383 1.390 . S
C381 H385 0.950 . S
H382 C378 0.950 . S
C383 C381 1.390 . S
C383 C384 1.387 . S
C383 H386 0.950 . S
C384 C383 1.387 . S
C384 C387 1.387 . S
H385 C381 0.950 . S
H386 C383 0.950 . S
C387 C378 1.390 . S
C387 H380 0.950 . S
C387 C384 1.387 . S
C388 C389 1.387 . S
C388 H392 0.950 . S
C388 C397 1.390 . S
C389 C388 1.387 . S
C389 C391 1.387 . S
H390 C397 0.950 . S
C391 C389 1.387 . S
C391 C393 1.390 . S
C391 H395 0.950 . S
H392 C388 0.950 . S
C393 C391 1.390 . S
C393 C394 1.387 . S
C393 H396 0.950 . S
C394 C393 1.387 . S
C394 C397 1.387 . S
H395 C391 0.950 . S
H396 C393 0.950 . S
C397 C388 1.390 . S
C397 H390 0.950 . S
C397 C394 1.387 . S
C398 C399 1.387 . S
C398 H402 0.950 . S
C398 C407 1.390 . S
C399 C398 1.387 . S
C399 C401 1.387 . S
H400 C407 0.950 . S
C401 C399 1.387 . S
C401 C403 1.390 . S
C401 H405 0.950 . S
H402 C398 0.950 . S
C403 C401 1.390 . S
C403 C404 1.387 . S
C403 H406 0.950 . S
C404 C403 1.387 . S
C404 C407 1.387 . S
H405 C401 0.950 . S
H406 C403 0.950 . S
C407 C398 1.390 . S
C407 H400 0.950 . S
C407 C404 1.387 . S
C408 C409 1.387 1_556 S
C408 H412 0.950 . S
C408 C417 1.390 . S
C409 C408 1.387 1_554 S
C409 C411 1.387 . S
H410 C417 0.950 . S
C411 C409 1.387 . S
C411 C413 1.390 . S
C411 H415 0.950 . S
H412 C408 0.950 . S
C413 C411 1.390 . S
C413 C414 1.387 . S
C413 H416 0.950 . S
C414 C413 1.387 . S
C414 C417 1.387 1_554 S
H415 C411 0.950 . S
H416 C413 0.950 . S
C417 C408 1.390 . S
C417 H410 0.950 . S
C417 C414 1.387 1_556 S
C418 C419 1.387 1_556 S
C418 H422 0.950 . S
C418 C427 1.390 . S
C419 C418 1.387 1_554 S
C419 C421 1.387 . S
H420 C427 0.950 . S
C421 C419 1.387 . S
C421 C423 1.390 . S
C421 H425 0.950 . S
H422 C418 0.950 . S
C423 C421 1.390 . S
C423 C424 1.387 . S
C423 H426 0.950 . S
C424 C423 1.387 . S
C424 C427 1.387 1_554 S
H425 C421 0.950 . S
H426 C423 0.950 . S
C427 C418 1.390 . S
C427 H420 0.950 . S
C427 C424 1.387 1_556 S
C428 C429 1.387 . S
C428 H432 0.950 . S
C428 C437 1.390 . S
C429 C428 1.387 . S
C429 C431 1.387 . S
H430 C437 0.950 . S
C431 C429 1.387 . S
C431 C433 1.390 . S
C431 H435 0.950 . S
H432 C428 0.950 . S
C433 C431 1.390 . S
C433 C434 1.387 . S
C433 H436 0.950 . S
C434 C433 1.387 . S
C434 C437 1.387 . S
H435 C431 0.950 . S
H436 C433 0.950 . S
C437 C428 1.390 . S
C437 H430 0.950 . S
C437 C434 1.387 . S
C438 C439 1.387 . S
C438 H442 0.950 . S
C438 C447 1.390 . S
C439 C438 1.387 . S
C439 C441 1.387 . S
H440 C447 0.950 . S
C441 C439 1.387 . S
C441 C443 1.390 . S
C441 H445 0.950 . S
H442 C438 0.950 . S
C443 C441 1.390 . S
C443 C444 1.387 . S
C443 H446 0.950 . S
C444 C443 1.387 . S
C444 C447 1.387 . S
H445 C441 0.950 . S
H446 C443 0.950 . S
C447 C438 1.390 . S
C447 H440 0.950 . S
C447 C444 1.387 . S
C289 C39 1.510 . S
C294 C3 1.510 . S
C299 C75 1.510 . S
C304 C111 1.510 . S
C309 C147 1.509 . S
C314 C183 1.509 . S
C319 C219 1.509 . S
C324 C255 1.509 . S
C329 C2 1.298 1_655 S
C334 C110 1.298 1_455 S
C339 C74 1.298 1_655 S
C344 C38 1.298 1_455 S
C349 C86 1.396 1_655 S
C354 C50 1.396 1_455 S
C359 C14 1.396 1_655 S
C364 C122 1.396 1_455 S
C369 C146 1.298 . S
C374 C254 1.298 . S
C379 C218 1.294 . S
C384 C182 1.294 . S
C389 C194 1.399 . S
C394 C230 1.399 . S
C399 C158 1.396 . S
C404 C266 1.396 . S
C409 C184 1.516 . S
C414 C4 1.516 . S
C419 C148 1.516 . S
C424 C40 1.516 . S
C429 C76 1.516 . S
C434 C256 1.516 . S
C439 C220 1.516 . S
C444 C112 1.516 . S
