# Generated by pormake.
# Topology sml, (6)-cn, num edge types: 1
# Building blocks:
#     Node 0, Type 0, BuildingBlock: BETDAH_clean_sbu_0, # of connection points: 6
#     Node 1, Type 0, BuildingBlock: BETDAH_clean_sbu_0, # of connection points: 6
#     Node 2, Type 0, BuildingBlock: BETDAH_clean_sbu_0, # of connection points: 6
#     Node 3, Type 0, BuildingBlock: BETDAH_clean_sbu_0, # of connection points: 6
#     Node 4, Type 0, BuildingBlock: BETDAH_clean_sbu_0, # of connection points: 6
#     Node 5, Type 0, BuildingBlock: BETDAH_clean_sbu_0, # of connection points: 6
#     Edge 6, Type (0, 0), BuildingBlock: FUNLAD_clean_linker_0, # of connection points: 2
#     Edge 7, Type (0, 0), BuildingBlock: FUNLAD_clean_linker_0, # of connection points: 2
#     Edge 8, Type (0, 0), BuildingBlock: FUNLAD_clean_linker_0, # of connection points: 2
#     Edge 9, Type (0, 0), BuildingBlock: FUNLAD_clean_linker_0, # of connection points: 2
#     Edge 10, Type (0, 0), BuildingBlock: FUNLAD_clean_linker_0, # of connection points: 2
#     Edge 11, Type (0, 0), BuildingBlock: FUNLAD_clean_linker_0, # of connection points: 2
#     Edge 12, Type (0, 0), BuildingBlock: FUNLAD_clean_linker_0, # of connection points: 2
#     Edge 13, Type (0, 0), BuildingBlock: FUNLAD_clean_linker_0, # of connection points: 2
#     Edge 14, Type (0, 0), BuildingBlock: FUNLAD_clean_linker_0, # of connection points: 2
#     Edge 15, Type (0, 0), BuildingBlock: FUNLAD_clean_linker_0, # of connection points: 2
#     Edge 16, Type (0, 0), BuildingBlock: FUNLAD_clean_linker_0, # of connection points: 2
#     Edge 17, Type (0, 0), BuildingBlock: FUNLAD_clean_linker_0, # of connection points: 2
#     Edge 18, Type (0, 0), BuildingBlock: FUNLAD_clean_linker_0, # of connection points: 2
#     Edge 19, Type (0, 0), BuildingBlock: FUNLAD_clean_linker_0, # of connection points: 2
#     Edge 20, Type (0, 0), BuildingBlock: FUNLAD_clean_linker_0, # of connection points: 2
#     Edge 21, Type (0, 0), BuildingBlock: FUNLAD_clean_linker_0, # of connection points: 2
#     Edge 22, Type (0, 0), BuildingBlock: FUNLAD_clean_linker_0, # of connection points: 2
#     Edge 23, Type (0, 0), BuildingBlock: FUNLAD_clean_linker_0, # of connection points: 2
# Relax obj value: 0.156
# Max RMSD: 0.203
# Mean RMSD: 0.203
data_MOF--net-sml--node1-BETDAH_clean_sbu_0--edge1-FUNLAD_clean_linker_0
_symmetry_space_group_name_H-M    P1
_symmetry_Int_Tables_number       1
_symmetry_cell_setting            triclinic
loop_
_symmetry_equiv_pos_as_xyz
'x, y, z'
_cell_length_a     38.33087
_cell_length_b     38.258117
_cell_length_c     27.664652
_cell_angle_alpha  89.47519
_cell_angle_beta   90.45146
_cell_angle_gamma 119.97027
loop_
_atom_site_label
_atom_site_type_symbol
_atom_site_fract_x
_atom_site_fract_y
_atom_site_fract_z
_atom_type_partial_charge
Ho0 Ho 0.19774 0.4433 0.11148 0.0
Ho1 Ho 0.21384 0.40644 0.20319 0.0
C2 C 0.21635 0.36884 0.10342 0.0
C3 C 0.2031 0.4773 0.02861 0.0
C4 C 0.20435 0.46793 0.97744 0.0
C5 C 0.22527 0.44855 0.96227 0.0
C6 C 0.22604 0.44014 0.91333 0.0
C7 C 0.20582 0.45086 0.87876 0.0
C8 C 0.18466 0.46994 0.89436 0.0
C9 C 0.18403 0.47844 0.9432 0.0
C10 C 0.132 0.38373 0.1541 0.0
C11 C 0.19116 0.47763 0.2122 0.0
C12 C 0.21379 0.37509 0.28653 0.0
C13 C 0.21344 0.38503 0.33751 0.0
C14 C 0.21698 0.42194 0.35089 0.0
C15 C 0.21703 0.43106 0.39973 0.0
C16 C 0.21353 0.40337 0.43589 0.0
C17 C 0.20981 0.36635 0.42209 0.0
C18 C 0.20977 0.35729 0.37329 0.0
C19 C 0.27859 0.46619 0.15806 0.0
O20 O 0.21676 0.40029 0.08216 0.0
O21 O 0.20969 0.36133 0.15013 0.0
O22 O 0.1689 0.45486 0.05077 0.0
O23 O 0.23437 0.48441 0.05515 0.0
O24 O 0.13256 0.41413 0.13216 0.0
O25 O 0.16528 0.38507 0.14955 0.0
O26 O 0.19084 0.44601 0.2326 0.0
O27 O 0.19953 0.48667 0.16597 0.0
O28 O 0.24656 0.3991 0.26262 0.0
O29 O 0.18106 0.36571 0.26191 0.0
O30 O 0.27812 0.43482 0.17691 0.0
O31 O 0.24559 0.4646 0.16548 0.0
H32 H 0.24115 0.44008 0.98814 0.0
H33 H 0.24292 0.42576 0.90252 0.0
H34 H 0.16816 0.47793 0.86888 0.0
H35 H 0.16752 0.49317 0.9543 0.0
H36 H 0.2198 0.44369 0.32363 0.0
H37 H 0.21946 0.45961 0.40916 0.0
H38 H 0.20757 0.34461 0.44903 0.0
H39 H 0.20711 0.3287 0.36347 0.0
Ho40 Ho 0.79554 0.22831 0.48161 0.0
Ho41 Ho 0.76093 0.17084 0.39244 0.0
C42 C 0.76576 0.13214 0.49236 0.0
C43 C 0.80498 0.26222 0.56492 0.0
C44 C 0.79842 0.24968 0.61604 0.0
C45 C 0.77145 0.20962 0.62955 0.0
C46 C 0.7662 0.19829 0.67839 0.0
C47 C 0.7878 0.22685 0.71459 0.0
C48 C 0.81463 0.26699 0.70065 0.0
C49 C 0.81989 0.27822 0.65186 0.0
C50 C 0.85106 0.22952 0.42251 0.0
C51 C 0.79365 0.26738 0.38079 0.0
C52 C 0.74385 0.13422 0.30994 0.0
C53 C 0.75349 0.14457 0.25857 0.0
C54 C 0.77832 0.18463 0.24341 0.0
C55 C 0.78515 0.19403 0.19411 0.0
C56 C 0.76707 0.1635 0.15911 0.0
C57 C 0.74274 0.12332 0.1747 0.0
C58 C 0.73604 0.114 0.22395 0.0
C59 C 0.7074 0.17287 0.45298 0.0
O60 O 0.77318 0.16618 0.51341 0.0
O61 O 0.76409 0.12788 0.44487 0.0
O62 O 0.83351 0.25926 0.54302 0.0
O63 O 0.7727 0.24999 0.53811 0.0
O64 O 0.8569 0.26016 0.44831 0.0
O65 O 0.81784 0.19868 0.43281 0.0
O66 O 0.78742 0.23352 0.36018 0.0
O67 O 0.79331 0.27127 0.42825 0.0
O68 O 0.72209 0.1477 0.32993 0.0
O69 O 0.77312 0.13791 0.33803 0.0
O70 O 0.70131 0.1402 0.43178 0.0
O71 O 0.74007 0.20228 0.43928 0.0
H72 H 0.75457 0.18711 0.60237 0.0
H73 H 0.74565 0.16704 0.68773 0.0
H74 H 0.83127 0.2899 0.7275 0.0
H75 H 0.84076 0.30931 0.64209 0.0
H76 H 0.79189 0.20869 0.26956 0.0
H77 H 0.80371 0.22532 0.1834 0.0
H78 H 0.72885 0.09902 0.1488 0.0
H79 H 0.71678 0.08288 0.23501 0.0
Ho80 Ho 0.5443 0.72938 0.74219 0.0
Ho81 Ho 0.58918 0.78128 0.83178 0.0
C82 C 0.62301 0.82003 0.7294 0.0
C83 C 0.50656 0.70508 0.66049 0.0
C84 C 0.51679 0.71521 0.60912 0.0
C85 C 0.48596 0.7034 0.57474 0.0
C86 C 0.49515 0.7124 0.52572 0.0
C87 C 0.53546 0.73349 0.51012 0.0
C88 C 0.56633 0.74562 0.54495 0.0
C89 C 0.55706 0.73653 0.59397 0.0
C90 C 0.60185 0.71638 0.7791 0.0
C91 C 0.51193 0.69014 0.84543 0.0
C92 C 0.62474 0.80762 0.91446 0.0
C93 C 0.6135 0.79895 0.9658 0.0
C94 C 0.64374 0.81148 1.0011 0.0
C95 C 0.63371 0.8036 0.05007 0.0
C96 C 0.59314 0.78293 0.06473 0.0
C97 C 0.56288 0.77015 0.02899 0.0
C98 C 0.57298 0.77809 0.97999 0.0
C99 C 0.52944 0.79118 0.79433 0.0
O100 O 0.58947 0.79009 0.71081 0.0
O101 O 0.63287 0.82069 0.77545 0.0
O102 O 0.52406 0.68752 0.68262 0.0
O103 O 0.50602 0.73308 0.68675 0.0
O104 O 0.56955 0.68891 0.75782 0.0
O105 O 0.60373 0.75024 0.77597 0.0
O106 O 0.54546 0.72038 0.86353 0.0
O107 O 0.50161 0.68927 0.79945 0.0
O108 O 0.60778 0.82454 0.88984 0.0
O109 O 0.62573 0.7789 0.8904 0.0
O110 O 0.56211 0.82046 0.81272 0.0
O111 O 0.52941 0.75856 0.79932 0.0
H112 H 0.45469 0.68713 0.58581 0.0
H113 H 0.47064 0.70313 0.50008 0.0
H114 H 0.59767 0.76151 0.53428 0.0
H115 H 0.58132 0.74585 0.62001 0.0
H116 H 0.67518 0.82737 0.99078 0.0
H117 H 0.65779 0.81329 0.0764 0.0
H118 H 0.53136 0.75453 0.03888 0.0
H119 H 0.54917 0.7681 0.95321 0.0
Ho120 Ho 0.74851 0.56881 0.17538 0.0
Ho121 Ho 0.80869 0.60737 0.08907 0.0
C122 C 0.83799 0.64862 0.19082 0.0
C123 C 0.71599 0.53828 0.25829 0.0
C124 C 0.72567 0.5472 0.3102 0.0
C125 C 0.76531 0.56427 0.32787 0.0
C126 C 0.77342 0.57233 0.37736 0.0
C127 C 0.74209 0.56362 0.41014 0.0
C128 C 0.7025 0.5465 0.39207 0.0
C129 C 0.69444 0.53841 0.34274 0.0
C130 C 0.73719 0.61922 0.11788 0.0
C131 C 0.71938 0.52812 0.07274 0.0
C132 C 0.84167 0.63678 1.00596 0.0
C133 C 0.8317 0.62776 0.95413 0.0
C134 C 0.79209 0.61139 0.93659 0.0
C135 C 0.78377 0.60333 0.88713 0.0
C136 C 0.81485 0.6113 0.85427 0.0
C137 C 0.85441 0.6277 0.87222 0.0
C138 C 0.86268 0.63581 0.92151 0.0
C139 C 0.81769 0.55476 0.14579 0.0
O140 O 0.80648 0.61638 0.20957 0.0
O141 O 0.84332 0.65486 0.14368 0.0
O142 O 0.70886 0.56352 0.2339 0.0
O143 O 0.73762 0.52674 0.23395 0.0
O144 O 0.70814 0.58794 0.13927 0.0
O145 O 0.77077 0.62367 0.13092 0.0
O146 O 0.75084 0.56058 0.0544 0.0
O147 O 0.71371 0.52154 0.1199 0.0
O148 O 0.84776 0.61098 0.03063 0.0
O149 O 0.82095 0.64946 0.03014 0.0
O150 O 0.84782 0.58634 0.12629 0.0
O151 O 0.78502 0.55183 0.13207 0.0
H152 H 0.78999 0.57146 0.30347 0.0
H153 H 0.80431 0.58593 0.38982 0.0
H154 H 0.67753 0.53883 0.41618 0.0
H155 H 0.66365 0.52513 0.32996 0.0
H156 H 0.76759 0.60476 0.96107 0.0
H157 H 0.75291 0.5903 0.87475 0.0
H158 H 0.8792 0.63481 0.84805 0.0
H159 H 0.89345 0.64854 0.93419 0.0
Ho160 Ho 0.23472 0.81876 0.44871 0.0
Ho161 Ho 0.17679 0.77979 0.53738 0.0
C162 C 0.13879 0.78798 0.43844 0.0
C163 C 0.26979 0.8337 0.36529 0.0
C164 C 0.25884 0.82953 0.31364 0.0
C165 C 0.2199 0.80164 0.29752 0.0
C166 C 0.21041 0.79861 0.24812 0.0
C167 C 0.23968 0.82349 0.21404 0.0
C168 C 0.27863 0.85123 0.23063 0.0
C169 C 0.28804 0.85421 0.27988 0.0
C170 C 0.23396 0.8711 0.51171 0.0
C171 C 0.27342 0.81382 0.54827 0.0
C172 C 0.13947 0.75897 0.61953 0.0
C173 C 0.14817 0.76674 0.67152 0.0
C174 C 0.18758 0.79117 0.68883 0.0
C175 C 0.19523 0.79564 0.7387 0.0
C176 C 0.16362 0.77548 0.77204 0.0
C177 C 0.12412 0.75175 0.75429 0.0
C178 C 0.11653 0.74747 0.70456 0.0
C179 C 0.17901 0.72871 0.47302 0.0
O180 O 0.17293 0.79627 0.41717 0.0
O181 O 0.13405 0.7845 0.48592 0.0
O182 O 0.26483 0.86014 0.38937 0.0
O183 O 0.25843 0.8003 0.38971 0.0
O184 O 0.26511 0.87877 0.48585 0.0
O185 O 0.20389 0.83797 0.49971 0.0
O186 O 0.23936 0.80624 0.56946 0.0
O187 O 0.27751 0.8151 0.50072 0.0
O188 O 0.15471 0.73913 0.59856 0.0
O189 O 0.14219 0.78863 0.59281 0.0
O190 O 0.14666 0.72149 0.49583 0.0
O191 O 0.20848 0.76114 0.48748 0.0
H192 H 0.19689 0.78232 0.32308 0.0
H193 H 0.18002 0.77722 0.23672 0.0
H194 H 0.30209 0.87039 0.20546 0.0
H195 H 0.31828 0.87582 0.29163 0.0
H196 H 0.21246 0.80612 0.66389 0.0
H197 H 0.22602 0.81387 0.75111 0.0
H198 H 0.09902 0.73632 0.77888 0.0
H199 H 0.08592 0.72849 0.69187 0.0
Ho200 Ho 0.43909 0.20473 0.835 0.0
Ho201 Ho 0.40506 0.22311 0.74217 0.0
C202 C 0.36762 0.22753 0.84131 0.0
C203 C 0.47141 0.20746 0.91826 0.0
C204 C 0.46153 0.20756 0.96944 0.0
C205 C 0.44266 0.22873 0.98547 0.0
C206 C 0.43349 0.2281 0.03441 0.0
C207 C 0.44286 0.20613 0.06796 0.0
C208 C 0.46166 0.18494 0.0516 0.0
C209 C 0.47093 0.18572 1.00279 0.0
C210 C 0.37808 0.14039 0.79213 0.0
C211 C 0.47396 0.1972 0.73445 0.0
C212 C 0.37429 0.22405 0.65899 0.0
C213 C 0.38445 0.22576 0.60759 0.0
C214 C 0.40302 0.20485 0.58976 0.0
C215 C 0.41177 0.20656 0.54055 0.0
C216 C 0.40219 0.22927 0.50842 0.0
C217 C 0.38391 0.25041 0.52661 0.0
C218 C 0.37512 0.24862 0.57575 0.0
C219 C 0.46553 0.28676 0.7878 0.0
O220 O 0.39817 0.22686 0.86339 0.0
O221 O 0.36021 0.21997 0.79476 0.0
O222 O 0.44882 0.1739 0.89501 0.0
O223 O 0.47935 0.23956 0.89278 0.0
O224 O 0.40724 0.13926 0.81478 0.0
O225 O 0.38129 0.17458 0.79616 0.0
O226 O 0.44427 0.19977 0.71305 0.0
O227 O 0.48167 0.20363 0.78123 0.0
O228 O 0.3969 0.2566 0.684 0.0
O229 O 0.36575 0.1909 0.6825 0.0
O230 O 0.43552 0.28778 0.76731 0.0
O231 O 0.4626 0.25298 0.7811 0.0
H232 H 0.43499 0.24568 0.96026 0.0
H233 H 0.41865 0.24438 0.04588 0.0
H234 H 0.46972 0.1682 0.07667 0.0
H235 H 0.48554 0.16926 0.99104 0.0
H236 H 0.41057 0.18708 0.61377 0.0
H237 H 0.42628 0.19033 0.52771 0.0
H238 H 0.3757 0.26774 0.50271 0.0
H239 H 0.36072 0.26489 0.58888 0.0
C240 C 0.34397 0.24081 0.91942 0.0
C241 C 0.34107 0.23747 0.86889 0.0
C242 C 0.32055 0.25301 0.94472 0.0
C243 C 0.2939 0.26211 0.91975 0.0
C244 C 0.29061 0.25816 0.86944 0.0
C245 C 0.31368 0.24563 0.84424 0.0
C246 C 0.27224 0.27964 0.94439 0.0
C247 C 0.26008 0.27109 0.99056 0.0
C248 C 0.24434 0.29331 0.01812 0.0
C249 C 0.24459 0.29115 0.06875 0.0
C250 C 0.23436 0.31488 0.09652 0.0
C251 C 0.22374 0.34134 0.07411 0.0
H252 H 0.22889 0.31955 0.95694 0.0
C253 C 0.22152 0.34215 0.02354 0.0
C254 C 0.23131 0.31808 0.99574 0.0
H255 H 0.21253 0.36161 1.00533 0.0
H256 H 0.36486 0.2348 0.93937 0.0
H257 H 0.32468 0.2569 0.98344 0.0
H258 H 0.27059 0.26541 0.84946 0.0
H259 H 0.31082 0.24353 0.80525 0.0
H260 H 0.26772 0.3012 0.92362 0.0
H261 H 0.26441 0.24877 0.01012 0.0
H262 H 0.25409 0.27208 0.08697 0.0
H263 H 0.23611 0.31343 0.13553 0.0
C264 C 0.06303 0.35612 0.18684 0.0
C265 C 0.09765 0.35289 0.18171 0.0
C266 C 0.03145 0.32884 0.21594 0.0
C267 C 0.03404 0.2979 0.24063 0.0
C268 C 0.0683 0.29413 0.23462 0.0
C269 C 0.09962 0.32104 0.20467 0.0
C270 C 0.00342 0.27256 0.27683 0.0
C271 C 0.96454 0.26217 0.27182 0.0
C272 C 0.93586 0.24754 0.31256 0.0
C273 C 0.89443 0.22549 0.30266 0.0
C274 C 0.86654 0.21739 0.33933 0.0
C275 C 0.87964 0.2317 0.38615 0.0
H276 H 0.98058 0.27867 0.36887 0.0
C277 C 0.92094 0.25288 0.3965 0.0
C278 C 0.9489 0.26047 0.36015 0.0
H279 H 0.93162 0.26475 0.43237 0.0
H280 H 0.06077 0.3804 0.16945 0.0
H281 H 0.00593 0.33328 0.22083 0.0
H282 H 0.07102 0.27069 0.25357 0.0
H283 H 0.12572 0.31747 0.20038 0.0
H284 H 0.01366 0.26429 0.30943 0.0
H285 H 0.95382 0.26707 0.23732 0.0
H286 H 0.88364 0.21601 0.26611 0.0
H287 H 0.83502 0.20261 0.33028 0.0
C288 C 0.74431 0.05901 0.50323 0.0
C289 C 0.7576 0.09719 0.52347 0.0
C290 C 0.73404 0.02548 0.53284 0.0
C291 C 0.73713 0.02943 0.58355 0.0
C292 C 0.75131 0.06783 0.60355 0.0
C293 C 0.76147 0.1013 0.57395 0.0
C294 C 0.72327 0.99431 0.61708 0.0
C295 C 0.71358 0.9568 0.60335 0.0
C296 C 0.69378 0.92144 0.63634 0.0
C297 C 0.6658 0.88396 0.61687 0.0
C298 C 0.64359 0.85076 0.64704 0.0
C299 C 0.64944 0.85416 0.69739 0.0
H300 H 0.72333 0.95265 0.70258 0.0
C301 C 0.67908 0.8911 0.71673 0.0
C302 C 0.70103 0.9245 0.68651 0.0
H303 H 0.68452 0.89462 0.75534 0.0
H304 H 0.74081 0.05472 0.4645 0.0
H305 H 0.72255 -0.00339 0.51545 0.0
H306 H 0.75392 0.0719 0.64239 0.0
H307 H 0.77181 0.1303 0.59086 0.0
H308 H 0.71897 -0.00058 0.65459 0.0
H309 H 0.7169 0.95069 0.56601 0.0
H310 H 0.65996 0.88069 0.5783 0.0
H311 H 0.62128 0.82265 0.63087 0.0
C312 C 0.66207 0.73725 0.83305 0.0
C313 C 0.62818 0.70701 0.80892 0.0
C314 C 0.68349 0.7269 0.86595 0.0
C315 C 0.67151 0.68604 0.8745 0.0
C316 C 0.63939 0.65628 0.84756 0.0
C317 C 0.61786 0.66658 0.81537 0.0
C318 C 0.68915 0.67218 0.91294 0.0
C319 C 0.71095 0.69457 0.95075 0.0
C320 C 0.7182 0.6754 0.99353 0.0
C321 C 0.75481 0.69541 0.01895 0.0
C322 C 0.76129 0.67732 0.05972 0.0
C323 C 0.73088 0.63942 0.07602 0.0
H324 H 0.65856 0.62217 0.99284 0.0
C325 C 0.69393 0.62005 0.05141 0.0
C326 C 0.68766 0.63777 0.01058 0.0
H327 H 0.66991 0.59087 0.06334 0.0
H328 H 0.67135 0.76876 0.82744 0.0
H329 H 0.70881 0.75089 0.88485 0.0
H330 H 0.62967 0.62462 0.85293 0.0
H331 H 0.5922 0.6426 0.79673 0.0
H332 H 0.68031 0.64037 0.91264 0.0
H333 H 0.72186 0.72672 0.95208 0.0
H334 H 0.77851 0.72472 1.00692 0.0
H335 H 0.7899 0.69295 0.07856 0.0
C336 C 0.06591 0.76679 0.42636 0.0
C337 C 0.10462 0.78145 0.40718 0.0
C338 C 0.03332 0.75815 0.39589 0.0
C339 C 0.03894 0.76435 0.34558 0.0
C340 C 0.07785 0.78 0.32681 0.0
C341 C 0.11029 0.78852 0.35714 0.0
C342 C 0.00504 0.7517 0.31085 0.0
C343 C 0.96751 0.74269 0.32302 0.0
C344 C 0.93334 0.72332 0.28852 0.0
C345 C 0.89524 0.69519 0.3063 0.0
C346 C 0.86369 0.67208 0.27451 0.0
C347 C 0.86956 0.67696 0.22423 0.0
H348 H 0.96703 0.75291 0.22346 0.0
C349 C 0.90687 0.70725 0.20651 0.0
C350 C 0.93847 0.7303 0.23835 0.0
H351 H 0.91221 0.71224 0.16803 0.0
H352 H 0.06051 0.76087 0.46471 0.0
H353 H 0.00382 0.74527 0.412 0.0
H354 H 0.08311 0.78494 0.28826 0.0
H355 H 0.13975 0.80008 0.34106 0.0
H356 H 0.01115 0.74761 0.27366 0.0
H357 H 0.96054 0.74588 0.36008 0.0
H358 H 0.89036 0.68964 0.34481 0.0
H359 H 0.8351 0.64947 0.28946 0.0
C360 C 0.34863 0.07144 0.75886 0.0
C361 C 0.34689 0.10692 0.76394 0.0
C362 C 0.32145 0.04082 0.72876 0.0
C363 C 0.292 0.04519 0.70309 0.0
C364 C 0.28953 0.08023 0.7093 0.0
C365 C 0.31642 0.11066 0.74017 0.0
C366 C 0.26744 0.01594 0.66536 0.0
C367 C 0.25702 0.97686 0.66843 0.0
C368 C 0.24501 0.95004 0.62601 0.0
C369 C 0.22467 0.90817 0.6336 0.0
C370 C 0.21934 0.88222 0.59562 0.0
C371 C 0.23454 0.8977 0.54971 0.0
H372 H 0.2762 -0.00242 0.57238 0.0
C373 C 0.25414 0.9394 0.54162 0.0
C374 C 0.25913 0.96544 0.57935 0.0
H375 H 0.26664 0.9519 0.50645 0.0
H376 H 0.37184 0.06784 0.77689 0.0
H377 H 0.32503 0.01475 0.72378 0.0
H378 H 0.2673 0.08435 0.68959 0.0
H379 H 0.31404 0.13751 0.74438 0.0
H380 H 0.26044 0.02755 0.63296 0.0
H381 H 0.26053 0.96473 0.70266 0.0
H382 H 0.21446 0.89561 0.66941 0.0
H383 H 0.20596 0.85043 0.60299 0.0
C384 C 0.21001 0.47028 0.79115 0.0
C385 C 0.20668 0.44223 0.82662 0.0
C386 C 0.20974 0.46188 0.74208 0.0
C387 C 0.20663 0.42532 0.72724 0.0
C388 C 0.20329 0.39731 0.76271 0.0
C389 C 0.20343 0.40566 0.81182 0.0
C390 C 0.2051 0.41456 0.67539 0.0
C391 C 0.21856 0.44186 0.63903 0.0
C392 C 0.21652 0.43097 0.58719 0.0
C393 C 0.24244 0.46062 0.55429 0.0
C394 C 0.24137 0.4518 0.50521 0.0
C395 C 0.21412 0.41308 0.48786 0.0
H396 H 0.1671 0.36908 0.59332 0.0
C397 C 0.18767 0.38356 0.5206 0.0
C398 C 0.18869 0.3924 0.56966 0.0
H399 H 0.16573 0.3537 0.50817 0.0
H400 H 0.21288 0.49888 0.80127 0.0
H401 H 0.21119 0.4839 0.71619 0.0
H402 H 0.20042 0.36872 0.7524 0.0
H403 H 0.20019 0.38311 0.83813 0.0
H404 H 0.19372 0.38295 0.66737 0.0
H405 H 0.23333 0.47379 0.64728 0.0
H406 H 0.26392 0.49068 0.56666 0.0
H407 H 0.26236 0.47514 0.481 0.0
C408 C 0.74014 0.15452 0.07421 0.0
C409 C 0.77276 0.17349 0.10655 0.0
C410 C 0.74518 0.16395 0.02486 0.0
C411 C 0.78319 0.19246 1.00646 0.0
C412 C 0.81566 0.21167 0.03893 0.0
C413 C 0.81058 0.20229 0.08832 0.0
C414 C 0.79015 0.20407 0.95426 0.0
C415 C 0.76518 0.18185 0.91813 0.0
C416 C 0.77211 0.19397 0.86615 0.0
C417 C 0.73906 0.17753 0.83428 0.0
C418 C 0.74407 0.18802 0.78522 0.0
C419 C 0.78243 0.21504 0.76666 0.0
H420 H 0.83718 0.23272 0.87018 0.0
C421 C 0.81566 0.23092 0.79837 0.0
C422 C 0.81063 0.22048 0.84745 0.0
H423 H 0.84577 0.25106 0.78512 0.0
H424 H 0.71038 0.13287 0.0872 0.0
H425 H 0.71891 0.14932 1.00181 0.0
H426 H 0.84523 0.23393 0.02602 0.0
H427 H 0.83641 0.21729 0.11213 0.0
H428 H 0.81723 0.23223 0.94563 0.0
H429 H 0.73793 0.15379 0.92646 0.0
H430 H 0.70907 0.15682 0.8475 0.0
H431 H 0.71775 0.17545 0.76199 0.0
C432 C 0.52235 0.71354 0.42243 0.0
C433 C 0.5452 0.7424 0.45773 0.0
C434 C 0.53162 0.72164 0.37328 0.0
C435 C 0.56394 0.75906 0.35807 0.0
C436 C 0.5869 0.78773 0.39342 0.0
C437 C 0.57763 0.77961 0.44256 0.0
C438 C 0.57567 0.76897 0.30621 0.0
C439 C 0.55105 0.74967 0.26849 0.0
C440 C 0.56293 0.75928 0.21663 0.0
C441 C 0.54006 0.73037 0.18145 0.0
C442 C 0.54977 0.73794 0.13237 0.0
C443 C 0.58256 0.77485 0.11703 0.0
H444 H 0.61316 0.82025 0.22661 0.0
C445 C 0.60517 0.80405 0.15213 0.0
C446 C 0.59547 0.79647 0.20124 0.0
H447 H 0.63006 0.83317 0.14159 0.0
H448 H 0.49772 0.68422 0.43284 0.0
H449 H 0.51386 0.69803 0.34775 0.0
H450 H 0.61208 0.81672 0.383 0.0
H451 H 0.59568 0.80272 0.46862 0.0
H452 H 0.60598 0.79346 0.29935 0.0
H453 H 0.52074 0.7252 0.27536 0.0
H454 H 0.5147 0.70154 0.19201 0.0
H455 H 0.53189 0.71457 0.10651 0.0
C456 C 0.77906 0.61091 0.77686 0.0
C457 C 0.80639 0.60259 0.80152 0.0
C458 C 0.77213 0.6037 0.72709 0.0
C459 C 0.79243 0.58796 0.7006 0.0
C460 C 0.81908 0.57895 0.72557 0.0
C461 C 0.82609 0.58627 0.77517 0.0
C462 C 0.78618 0.57939 0.64752 0.0
C463 C 0.77033 0.59558 0.61689 0.0
C464 C 0.76412 0.58698 0.56383 0.0
C465 C 0.73702 0.59536 0.53889 0.0
C466 C 0.73009 0.58799 0.48929 0.0
C467 C 0.75036 0.57229 0.46291 0.0
H468 H 0.80699 0.56598 0.55446 0.0
C469 C 0.77812 0.5646 0.48755 0.0
C470 C 0.78497 0.57185 0.53733 0.0
H471 H 0.79423 0.55243 0.4685 0.0
H472 H 0.7634 0.62357 0.7959 0.0
H473 H 0.75048 0.6101 0.70995 0.0
H474 H 0.83484 0.56636 0.70654 0.0
H475 H 0.84677 0.57875 0.79298 0.0
H476 H 0.79563 0.55909 0.6334 0.0
H477 H 0.7608 0.61583 0.63098 0.0
H478 H 0.72085 0.60748 0.55795 0.0
H479 H 0.70904 0.595 0.47148 0.0
C480 C 0.19903 0.81477 0.84696 0.0
C481 C 0.17167 0.77797 0.82508 0.0
C482 C 0.20622 0.8168 0.89691 0.0
C483 C 0.18618 0.78197 0.92615 0.0
C484 C 0.15942 0.74517 0.90404 0.0
C485 C 0.15207 0.7432 0.85428 0.0
C486 C 0.19325 0.78221 0.97932 0.0
C487 C 0.20657 0.81524 1.00729 0.0
C488 C 0.21385 0.81588 0.06054 0.0
C489 C 0.23717 0.8534 0.08307 0.0
C490 C 0.2452 0.85583 0.1327 0.0
C491 C 0.22993 0.82074 0.16139 0.0
H492 H 0.17877 0.75113 0.07425 0.0
C493 C 0.20587 0.78315 0.13918 0.0
C494 C 0.19784 0.78069 0.08943 0.0
H495 H 0.1937 0.75549 0.16011 0.0
H496 H 0.21465 0.84211 0.82552 0.0
H497 H 0.228 0.84556 0.9121 0.0
H498 H 0.14392 0.71775 0.9254 0.0
H499 H 0.13139 0.71421 0.83855 0.0
H500 H 0.18643 0.75363 0.99565 0.0
H501 H 0.21295 0.84361 0.9906 0.0
H502 H 0.24955 0.88108 0.0621 0.0
H503 H 0.26321 0.88536 0.14866 0.0
C504 C 0.40217 0.19501 0.43154 0.0
C505 C 0.41048 0.23041 0.45595 0.0
C506 C 0.40869 0.19579 0.38183 0.0
C507 C 0.42351 0.23205 0.35538 0.0
C508 C 0.43273 0.26756 0.38005 0.0
C509 C 0.4261 0.26675 0.42972 0.0
C510 C 0.43072 0.23429 0.30246 0.0
C511 C 0.41095 0.20254 0.27272 0.0
C512 C 0.41863 0.20447 0.21995 0.0
C513 C 0.4096 0.16876 0.19592 0.0
C514 C 0.41713 0.16923 0.14656 0.0
C515 C 0.43345 0.20544 0.11998 0.0
H516 H 0.44014 0.26854 0.20985 0.0
C517 C 0.4414 0.24103 0.14363 0.0
C518 C 0.43404 0.2406 0.1931 0.0
H519 H 0.45399 0.2694 0.12408 0.0
H520 H 0.39003 0.16652 0.45073 0.0
H521 H 0.4025 0.16799 0.36461 0.0
H522 H 0.44471 0.296 0.36072 0.0
H523 H 0.43343 0.29467 0.44766 0.0
H524 H 0.45281 0.26342 0.28779 0.0
H525 H 0.38881 0.17344 0.28741 0.0
H526 H 0.39721 0.14042 0.21556 0.0
H527 H 0.41003 0.14118 0.12915 0.0
C528 C 0.19172 0.54242 0.22535 0.0
C529 C 0.18312 0.50428 0.24255 0.0
C530 C 0.18524 0.56812 0.2546 0.0
C531 C 0.16989 0.55605 0.30155 0.0
C532 C 0.16006 0.51749 0.31816 0.0
C533 C 0.16696 0.49193 0.28912 0.0
C534 C 0.16405 0.58317 0.33397 0.0
C535 C 0.18933 0.62327 0.33406 0.0
C536 C 0.1858 0.65022 0.36912 0.0
C537 C 0.22099 0.68394 0.38602 0.0
C538 C 0.2188 0.70934 0.42019 0.0
C539 C 0.18129 0.70199 0.43702 0.0
H540 H 0.12046 0.61767 0.37256 0.0
C541 C 0.14599 0.66869 0.41954 0.0
C542 C 0.14818 0.64293 0.38583 0.0
H543 H 0.11669 0.66256 0.43186 0.0
H544 H 0.20393 0.55269 0.18951 0.0
H545 H 0.19208 0.5973 0.24031 0.0
H546 H 0.14787 0.50746 0.35408 0.0
H547 H 0.15963 0.46253 0.30322 0.0
H548 H 0.14055 0.56946 0.3611 0.0
H549 H 0.21543 0.6364 0.31046 0.0
H550 H 0.25029 0.69013 0.37359 0.0
H551 H 0.24649 0.73441 0.43385 0.0
C552 C 0.64838 0.14183 0.50855 0.0
C553 C 0.67928 0.17614 0.48575 0.0
C554 C 0.62159 0.14543 0.53934 0.0
C555 C 0.6252 0.18339 0.54717 0.0
C556 C 0.65594 0.2175 0.52395 0.0
C557 C 0.68301 0.214 0.4939 0.0
C558 C 0.59631 0.18831 0.57728 0.0
C559 C 0.57849 0.16554 0.61656 0.0
C560 C 0.55063 0.17237 0.64641 0.0
C561 C 0.55075 0.16803 0.69678 0.0
C562 C 0.52595 0.17624 0.72564 0.0
C563 C 0.50005 0.18815 0.70438 0.0
H564 H 0.52259 0.186 0.58623 0.0
C565 C 0.49911 0.19123 0.6538 0.0
C566 C 0.52414 0.18346 0.62511 0.0
H567 H 0.47941 0.20017 0.63625 0.0
H568 H 0.64496 0.11233 0.5026 0.0
H569 H 0.59759 0.11844 0.55593 0.0
H570 H 0.65909 0.24698 0.52918 0.0
H571 H 0.70648 0.24087 0.47639 0.0
H572 H 0.59138 0.21324 0.56828 0.0
H573 H 0.58651 0.14341 0.62892 0.0
H574 H 0.57069 0.15915 0.71388 0.0
H575 H 0.52701 0.17317 0.7645 0.0
C576 C 0.33329 0.48411 0.09787 0.0
C577 C 0.30927 0.49501 0.12461 0.0
C578 C 0.36049 0.51087 0.06374 0.0
C579 C 0.36443 0.54914 0.05657 0.0
C580 C 0.34111 0.56026 0.08435 0.0
C581 C 0.31337 0.53324 0.11762 0.0
C582 C 0.39367 0.57875 0.02188 0.0
C583 C 0.40239 0.56824 0.97927 0.0
C584 C 0.4312 0.59889 0.94496 0.0
C585 C 0.42434 0.59327 0.89497 0.0
C586 C 0.45052 0.62278 0.86228 0.0
C587 C 0.48443 0.65802 0.87914 0.0
H588 H 0.47239 0.63839 0.99996 0.0
C589 C 0.4919 0.66283 0.92919 0.0
C590 C 0.46559 0.63369 0.9617 0.0
H591 H 0.51791 0.68935 0.94357 0.0
H592 H 0.33045 0.45466 0.10262 0.0
H593 H 0.37875 0.50184 0.04357 0.0
H594 H 0.3439 0.58971 0.07972 0.0
H595 H 0.2951 0.54222 0.13792 0.0
H596 H 0.40657 0.61051 0.03054 0.0
H597 H 0.38634 0.53688 0.96804 0.0
H598 H 0.39823 0.56645 0.88125 0.0
H599 H 0.44412 0.61801 0.82394 0.0
C600 C 0.81245 0.33983 0.36886 0.0
C601 C 0.79966 0.30147 0.34933 0.0
C602 C 0.8158 0.37132 0.33947 0.0
C603 C 0.80626 0.36499 0.28993 0.0
C604 C 0.79393 0.32682 0.27042 0.0
C605 C 0.79094 0.29549 0.29964 0.0
C606 C 0.80575 0.39634 0.25839 0.0
C607 C 0.82858 0.43629 0.26614 0.0
C608 C 0.82555 0.46653 0.23507 0.0
C609 C 0.85984 0.50442 0.22702 0.0
C610 C 0.85752 0.53323 0.19768 0.0
C611 C 0.82066 0.52484 0.17681 0.0
H612 H 0.7613 0.43007 0.22117 0.0
C613 C 0.78622 0.48732 0.18571 0.0
C614 C 0.7886 0.45845 0.21451 0.0
H615 H 0.75737 0.48014 0.17017 0.0
H616 H 0.81932 0.34544 0.40702 0.0
H617 H 0.82446 0.40005 0.35607 0.0
H618 H 0.78608 0.32103 0.23247 0.0
H619 H 0.78069 0.2663 0.28341 0.0
H620 H 0.7863 0.38591 0.22671 0.0
H621 H 0.8511 0.44731 0.29472 0.0
H622 H 0.88854 0.51153 0.24293 0.0
H623 H 0.88444 0.5621 0.19158 0.0
C624 C 0.30232 0.81019 0.62847 0.0
C625 C 0.30785 0.82017 0.57902 0.0
C626 C 0.33426 0.81386 0.65688 0.0
C627 C 0.37248 0.82772 0.63642 0.0
C628 C 0.37844 0.83933 0.58758 0.0
C629 C 0.34639 0.83526 0.55901 0.0
C630 C 0.4064 0.82966 0.66482 0.0
C631 C 0.4007 0.80241 0.69949 0.0
C632 C 0.43428 0.80085 0.72444 0.0
C633 C 0.42838 0.76325 0.73984 0.0
C634 C 0.45941 0.76024 0.76253 0.0
C635 C 0.49676 0.79493 0.77113 0.0
H636 H 0.47677 0.8653 0.72316 0.0
C637 C 0.50252 0.83276 0.75693 0.0
C638 C 0.47158 0.83574 0.73354 0.0
H639 H 0.53105 0.85995 0.76341 0.0
H640 H 0.2731 0.79871 0.64514 0.0
H641 H 0.32893 0.80575 0.6948 0.0
H642 H 0.4077 0.85047 0.5711 0.0
H643 H 0.3518 0.84364 0.52116 0.0
H644 H 0.43682 0.85154 0.65369 0.0
H645 H 0.37037 0.77801 0.70691 0.0
H646 H 0.39986 0.73598 0.73355 0.0
H647 H 0.45413 0.73072 0.77342 0.0
C648 C 0.65164 0.46881 0.05243 0.0
C649 C 0.69065 0.49813 0.03825 0.0
C650 C 0.62477 0.44117 0.01875 0.0
C651 C 0.63674 0.44226 0.97051 0.0
C652 C 0.67589 0.47109 0.95676 0.0
C653 C 0.70241 0.49896 0.99004 0.0
C654 C 0.60991 0.41305 0.93385 0.0
C655 C 0.56971 0.39716 0.93353 0.0
C656 C 0.54381 0.36935 0.89505 0.0
C657 C 0.50825 0.36901 0.88163 0.0
C658 C 0.48327 0.343 0.84554 0.0
C659 C 0.49314 0.31638 0.82301 0.0
H660 H 0.58024 0.34132 0.88251 0.0
C661 C 0.5286 0.31661 0.83637 0.0
C662 C 0.55368 0.34273 0.87215 0.0
H663 H 0.53661 0.29607 0.81969 0.0
H664 H 0.64179 0.46742 0.08935 0.0
H665 H 0.59502 0.41863 0.03072 0.0
H666 H 0.68592 0.47232 0.91993 0.0
H667 H 0.73237 0.52092 0.97793 0.0
H668 H 0.62426 0.40671 0.90414 0.0
H669 H 0.55564 0.40668 0.96033 0.0
H670 H 0.49988 0.38903 0.89896 0.0
H671 H 0.4558 0.34304 0.83611 0.0
loop_
_geom_bond_atom_site_label_1
_geom_bond_atom_site_label_2
_geom_bond_distance
_geom_bond_site_symmetry_2
_ccdc_geom_bond_type
Ho0 C3 2.811 . S
Ho0 O20 2.322 . S
Ho0 O22 2.378 . S
Ho0 O23 2.524 . S
Ho0 O24 2.381 . S
Ho0 O25 2.669 . S
Ho0 O27 2.346 . S
Ho0 O31 2.305 . S
Ho1 C12 2.811 . S
Ho1 O21 2.346 . S
Ho1 O25 2.305 . S
Ho1 O26 2.322 . S
Ho1 O28 2.378 . S
Ho1 O29 2.524 . S
Ho1 O30 2.381 . S
Ho1 O31 2.669 . S
C2 O20 1.259 . S
C2 O21 1.268 . S
C3 Ho0 2.811 . S
C3 C4 1.488 . S
C3 O22 1.215 . S
C3 O23 1.289 . S
C4 C3 1.488 . S
C4 C5 1.348 1_554 S
C4 C9 1.413 1_554 S
C5 C4 1.348 1_556 S
C5 C6 1.442 . S
C5 H32 0.930 . S
C6 C5 1.442 . S
C6 C7 1.381 . S
C6 H33 0.931 . S
C7 C6 1.381 . S
C7 C8 1.321 . S
C8 C7 1.321 . S
C8 C9 1.403 . S
C8 H34 0.934 . S
C9 C4 1.413 1_556 S
C9 C8 1.403 . S
C9 H35 0.930 1_556 S
C10 O24 1.275 . S
C10 O25 1.256 . S
C11 O26 1.259 . S
C11 O27 1.268 . S
C12 Ho1 2.811 . S
C12 C13 1.488 . S
C12 O28 1.215 . S
C12 O29 1.289 . S
C13 C12 1.488 . S
C13 C14 1.348 . S
C13 C18 1.413 . S
C14 C13 1.348 . S
C14 C15 1.442 . S
C14 H36 0.930 . S
C15 C14 1.442 . S
C15 C16 1.381 . S
C15 H37 0.931 . S
C16 C15 1.381 . S
C16 C17 1.321 . S
C17 C16 1.321 . S
C17 C18 1.403 . S
C17 H38 0.934 . S
C18 C13 1.413 . S
C18 C17 1.403 . S
C18 H39 0.930 . S
C19 O30 1.275 . S
C19 O31 1.256 . S
O20 Ho0 2.322 . S
O20 C2 1.259 . S
O21 Ho1 2.346 . S
O21 C2 1.268 . S
O22 Ho0 2.378 . S
O22 C3 1.215 . S
O23 Ho0 2.524 . S
O23 C3 1.289 . S
O24 Ho0 2.381 . S
O24 C10 1.275 . S
O25 Ho0 2.669 . S
O25 Ho1 2.305 . S
O25 C10 1.256 . S
O26 Ho1 2.322 . S
O26 C11 1.259 . S
O27 Ho0 2.346 . S
O27 C11 1.268 . S
O28 Ho1 2.378 . S
O28 C12 1.215 . S
O29 Ho1 2.524 . S
O29 C12 1.289 . S
O30 Ho1 2.381 . S
O30 C19 1.275 . S
O31 Ho0 2.305 . S
O31 Ho1 2.669 . S
O31 C19 1.256 . S
H32 C5 0.930 . S
H33 C6 0.931 . S
H34 C8 0.934 . S
H35 C9 0.930 1_554 S
H36 C14 0.930 . S
H37 C15 0.931 . S
H38 C17 0.934 . S
H39 C18 0.930 . S
Ho40 C43 2.811 . S
Ho40 O60 2.322 . S
Ho40 O62 2.378 . S
Ho40 O63 2.524 . S
Ho40 O64 2.381 . S
Ho40 O65 2.669 . S
Ho40 O67 2.346 . S
Ho40 O71 2.305 . S
Ho41 C52 2.811 . S
Ho41 O61 2.346 . S
Ho41 O65 2.305 . S
Ho41 O66 2.322 . S
Ho41 O68 2.378 . S
Ho41 O69 2.524 . S
Ho41 O70 2.381 . S
Ho41 O71 2.669 . S
C42 O60 1.259 . S
C42 O61 1.268 . S
C43 Ho40 2.811 . S
C43 C44 1.488 . S
C43 O62 1.215 . S
C43 O63 1.289 . S
C44 C43 1.488 . S
C44 C45 1.348 . S
C44 C49 1.413 . S
C45 C44 1.348 . S
C45 C46 1.442 . S
C45 H72 0.930 . S
C46 C45 1.442 . S
C46 C47 1.381 . S
C46 H73 0.931 . S
C47 C46 1.381 . S
C47 C48 1.321 . S
C48 C47 1.321 . S
C48 C49 1.403 . S
C48 H74 0.934 . S
C49 C44 1.413 . S
C49 C48 1.403 . S
C49 H75 0.930 . S
C50 O64 1.275 . S
C50 O65 1.256 . S
C51 O66 1.259 . S
C51 O67 1.268 . S
C52 Ho41 2.811 . S
C52 C53 1.488 . S
C52 O68 1.215 . S
C52 O69 1.289 . S
C53 C52 1.488 . S
C53 C54 1.348 . S
C53 C58 1.413 . S
C54 C53 1.348 . S
C54 C55 1.442 . S
C54 H76 0.930 . S
C55 C54 1.442 . S
C55 C56 1.381 . S
C55 H77 0.931 . S
C56 C55 1.381 . S
C56 C57 1.321 . S
C57 C56 1.321 . S
C57 C58 1.403 . S
C57 H78 0.934 . S
C58 C53 1.413 . S
C58 C57 1.403 . S
C58 H79 0.930 . S
C59 O70 1.275 . S
C59 O71 1.256 . S
O60 Ho40 2.322 . S
O60 C42 1.259 . S
O61 Ho41 2.346 . S
O61 C42 1.268 . S
O62 Ho40 2.378 . S
O62 C43 1.215 . S
O63 Ho40 2.524 . S
O63 C43 1.289 . S
O64 Ho40 2.381 . S
O64 C50 1.275 . S
O65 Ho40 2.669 . S
O65 Ho41 2.305 . S
O65 C50 1.256 . S
O66 Ho41 2.322 . S
O66 C51 1.259 . S
O67 Ho40 2.346 . S
O67 C51 1.268 . S
O68 Ho41 2.378 . S
O68 C52 1.215 . S
O69 Ho41 2.524 . S
O69 C52 1.289 . S
O70 Ho41 2.381 . S
O70 C59 1.275 . S
O71 Ho40 2.305 . S
O71 Ho41 2.669 . S
O71 C59 1.256 . S
H72 C45 0.930 . S
H73 C46 0.931 . S
H74 C48 0.934 . S
H75 C49 0.930 . S
H76 C54 0.930 . S
H77 C55 0.931 . S
H78 C57 0.934 . S
H79 C58 0.930 . S
Ho80 C83 2.811 . S
Ho80 O100 2.322 . S
Ho80 O102 2.378 . S
Ho80 O103 2.524 . S
Ho80 O104 2.381 . S
Ho80 O105 2.669 . S
Ho80 O107 2.346 . S
Ho80 O111 2.305 . S
Ho81 C92 2.811 1_556 S
Ho81 O101 2.346 . S
Ho81 O105 2.305 . S
Ho81 O106 2.322 . S
Ho81 O108 2.378 1_556 S
Ho81 O109 2.524 1_556 S
Ho81 O110 2.381 . S
Ho81 O111 2.669 . S
C82 O100 1.259 . S
C82 O101 1.268 . S
C83 Ho80 2.811 . S
C83 C84 1.488 . S
C83 O102 1.215 . S
C83 O103 1.289 . S
C84 C83 1.488 . S
C84 C85 1.348 . S
C84 C89 1.413 . S
C85 C84 1.348 . S
C85 C86 1.442 . S
C85 H112 0.930 . S
C86 C85 1.442 . S
C86 C87 1.381 . S
C86 H113 0.931 . S
C87 C86 1.381 . S
C87 C88 1.321 . S
C88 C87 1.321 . S
C88 C89 1.403 . S
C88 H114 0.934 . S
C89 C84 1.413 . S
C89 C88 1.403 . S
C89 H115 0.930 . S
C90 O104 1.275 . S
C90 O105 1.256 . S
C91 O106 1.259 . S
C91 O107 1.268 . S
C92 Ho81 2.811 1_554 S
C92 C93 1.488 . S
C92 O108 1.215 . S
C92 O109 1.289 . S
C93 C92 1.488 . S
C93 C94 1.348 . S
C93 C98 1.413 . S
C94 C93 1.348 . S
C94 C95 1.442 . S
C94 H116 0.930 . S
C95 C94 1.442 . S
C95 C96 1.381 . S
C95 H117 0.931 . S
C96 C95 1.381 . S
C96 C97 1.321 . S
C97 C96 1.321 . S
C97 C98 1.403 . S
C97 H118 0.934 . S
C98 C93 1.413 . S
C98 C97 1.403 . S
C98 H119 0.930 . S
C99 O110 1.275 . S
C99 O111 1.256 . S
O100 Ho80 2.322 . S
O100 C82 1.259 . S
O101 Ho81 2.346 . S
O101 C82 1.268 . S
O102 Ho80 2.378 . S
O102 C83 1.215 . S
O103 Ho80 2.524 . S
O103 C83 1.289 . S
O104 Ho80 2.381 . S
O104 C90 1.275 . S
O105 Ho80 2.669 . S
O105 Ho81 2.305 . S
O105 C90 1.256 . S
O106 Ho81 2.322 . S
O106 C91 1.259 . S
O107 Ho80 2.346 . S
O107 C91 1.268 . S
O108 Ho81 2.378 1_554 S
O108 C92 1.215 . S
O109 Ho81 2.524 1_554 S
O109 C92 1.289 . S
O110 Ho81 2.381 . S
O110 C99 1.275 . S
O111 Ho80 2.305 . S
O111 Ho81 2.669 . S
O111 C99 1.256 . S
H112 C85 0.930 . S
H113 C86 0.931 . S
H114 C88 0.934 . S
H115 C89 0.930 . S
H116 C94 0.930 . S
H117 C95 0.931 . S
H118 C97 0.934 . S
H119 C98 0.930 . S
Ho120 C123 2.811 . S
Ho120 O140 2.322 . S
Ho120 O142 2.378 . S
Ho120 O143 2.524 . S
Ho120 O144 2.381 . S
Ho120 O145 2.669 . S
Ho120 O147 2.346 . S
Ho120 O151 2.305 . S
Ho121 C132 2.811 . S
Ho121 O141 2.346 1_556 S
Ho121 O145 2.305 1_556 S
Ho121 O146 2.322 . S
Ho121 O148 2.378 . S
Ho121 O149 2.524 . S
Ho121 O150 2.381 1_556 S
Ho121 O151 2.669 1_556 S
C122 O140 1.259 . S
C122 O141 1.268 . S
C123 Ho120 2.811 . S
C123 C124 1.488 . S
C123 O142 1.215 . S
C123 O143 1.289 . S
C124 C123 1.488 . S
C124 C125 1.348 . S
C124 C129 1.413 . S
C125 C124 1.348 . S
C125 C126 1.442 . S
C125 H152 0.930 . S
C126 C125 1.442 . S
C126 C127 1.381 . S
C126 H153 0.931 . S
C127 C126 1.381 . S
C127 C128 1.321 . S
C128 C127 1.321 . S
C128 C129 1.403 . S
C128 H154 0.934 . S
C129 C124 1.413 . S
C129 C128 1.403 . S
C129 H155 0.930 . S
C130 O144 1.275 . S
C130 O145 1.256 . S
C131 O146 1.259 . S
C131 O147 1.268 1_556 S
C132 Ho121 2.811 . S
C132 C133 1.488 . S
C132 O148 1.215 . S
C132 O149 1.289 . S
C133 C132 1.488 . S
C133 C134 1.348 . S
C133 C138 1.413 . S
C134 C133 1.348 . S
C134 C135 1.442 . S
C134 H156 0.930 . S
C135 C134 1.442 . S
C135 C136 1.381 . S
C135 H157 0.931 . S
C136 C135 1.381 . S
C136 C137 1.321 . S
C137 C136 1.321 . S
C137 C138 1.403 . S
C137 H158 0.934 . S
C138 C133 1.413 . S
C138 C137 1.403 . S
C138 H159 0.930 . S
C139 O150 1.275 . S
C139 O151 1.256 . S
O140 Ho120 2.322 . S
O140 C122 1.259 . S
O141 Ho121 2.346 1_554 S
O141 C122 1.268 . S
O142 Ho120 2.378 . S
O142 C123 1.215 . S
O143 Ho120 2.524 . S
O143 C123 1.289 . S
O144 Ho120 2.381 . S
O144 C130 1.275 . S
O145 Ho120 2.669 . S
O145 Ho121 2.305 1_554 S
O145 C130 1.256 . S
O146 Ho121 2.322 . S
O146 C131 1.259 . S
O147 Ho120 2.346 . S
O147 C131 1.268 1_554 S
O148 Ho121 2.378 . S
O148 C132 1.215 . S
O149 Ho121 2.524 . S
O149 C132 1.289 . S
O150 Ho121 2.381 1_554 S
O150 C139 1.275 . S
O151 Ho120 2.305 . S
O151 Ho121 2.669 1_554 S
O151 C139 1.256 . S
H152 C125 0.930 . S
H153 C126 0.931 . S
H154 C128 0.934 . S
H155 C129 0.930 . S
H156 C134 0.930 . S
H157 C135 0.931 . S
H158 C137 0.934 . S
H159 C138 0.930 . S
Ho160 C163 2.811 . S
Ho160 O180 2.322 . S
Ho160 O182 2.378 . S
Ho160 O183 2.524 . S
Ho160 O184 2.381 . S
Ho160 O185 2.669 . S
Ho160 O187 2.346 . S
Ho160 O191 2.305 . S
Ho161 C172 2.811 . S
Ho161 O181 2.346 . S
Ho161 O185 2.305 . S
Ho161 O186 2.322 . S
Ho161 O188 2.378 . S
Ho161 O189 2.524 . S
Ho161 O190 2.381 . S
Ho161 O191 2.669 . S
C162 O180 1.259 . S
C162 O181 1.268 . S
C163 Ho160 2.811 . S
C163 C164 1.488 . S
C163 O182 1.215 . S
C163 O183 1.289 . S
C164 C163 1.488 . S
C164 C165 1.348 . S
C164 C169 1.413 . S
C165 C164 1.348 . S
C165 C166 1.442 . S
C165 H192 0.930 . S
C166 C165 1.442 . S
C166 C167 1.381 . S
C166 H193 0.931 . S
C167 C166 1.381 . S
C167 C168 1.321 . S
C168 C167 1.321 . S
C168 C169 1.403 . S
C168 H194 0.934 . S
C169 C164 1.413 . S
C169 C168 1.403 . S
C169 H195 0.930 . S
C170 O184 1.275 . S
C170 O185 1.256 . S
C171 O186 1.259 . S
C171 O187 1.268 . S
C172 Ho161 2.811 . S
C172 C173 1.488 . S
C172 O188 1.215 . S
C172 O189 1.289 . S
C173 C172 1.488 . S
C173 C174 1.348 . S
C173 C178 1.413 . S
C174 C173 1.348 . S
C174 C175 1.442 . S
C174 H196 0.930 . S
C175 C174 1.442 . S
C175 C176 1.381 . S
C175 H197 0.931 . S
C176 C175 1.381 . S
C176 C177 1.321 . S
C177 C176 1.321 . S
C177 C178 1.403 . S
C177 H198 0.934 . S
C178 C173 1.413 . S
C178 C177 1.403 . S
C178 H199 0.930 . S
C179 O190 1.275 . S
C179 O191 1.256 . S
O180 Ho160 2.322 . S
O180 C162 1.259 . S
O181 Ho161 2.346 . S
O181 C162 1.268 . S
O182 Ho160 2.378 . S
O182 C163 1.215 . S
O183 Ho160 2.524 . S
O183 C163 1.289 . S
O184 Ho160 2.381 . S
O184 C170 1.275 . S
O185 Ho160 2.669 . S
O185 Ho161 2.305 . S
O185 C170 1.256 . S
O186 Ho161 2.322 . S
O186 C171 1.259 . S
O187 Ho160 2.346 . S
O187 C171 1.268 . S
O188 Ho161 2.378 . S
O188 C172 1.215 . S
O189 Ho161 2.524 . S
O189 C172 1.289 . S
O190 Ho161 2.381 . S
O190 C179 1.275 . S
O191 Ho160 2.305 . S
O191 Ho161 2.669 . S
O191 C179 1.256 . S
H192 C165 0.930 . S
H193 C166 0.931 . S
H194 C168 0.934 . S
H195 C169 0.930 . S
H196 C174 0.930 . S
H197 C175 0.931 . S
H198 C177 0.934 . S
H199 C178 0.930 . S
Ho200 C203 2.811 . S
Ho200 O220 2.322 . S
Ho200 O222 2.378 . S
Ho200 O223 2.524 . S
Ho200 O224 2.381 . S
Ho200 O225 2.669 . S
Ho200 O227 2.346 . S
Ho200 O231 2.305 . S
Ho201 C212 2.811 . S
Ho201 O221 2.346 . S
Ho201 O225 2.305 . S
Ho201 O226 2.322 . S
Ho201 O228 2.378 . S
Ho201 O229 2.524 . S
Ho201 O230 2.381 . S
Ho201 O231 2.669 . S
C202 O220 1.259 . S
C202 O221 1.268 . S
C203 Ho200 2.811 . S
C203 C204 1.488 . S
C203 O222 1.215 . S
C203 O223 1.289 . S
C204 C203 1.488 . S
C204 C205 1.348 . S
C204 C209 1.413 . S
C205 C204 1.348 . S
C205 C206 1.442 . S
C205 H232 0.930 . S
C206 C205 1.442 . S
C206 C207 1.381 1_556 S
C206 H233 0.931 1_556 S
C207 C206 1.381 1_554 S
C207 C208 1.321 1_554 S
C208 C207 1.321 1_556 S
C208 C209 1.403 . S
C208 H234 0.934 . S
C209 C204 1.413 . S
C209 C208 1.403 . S
C209 H235 0.930 . S
C210 O224 1.275 . S
C210 O225 1.256 . S
C211 O226 1.259 . S
C211 O227 1.268 . S
C212 Ho201 2.811 . S
C212 C213 1.488 . S
C212 O228 1.215 . S
C212 O229 1.289 . S
C213 C212 1.488 . S
C213 C214 1.348 . S
C213 C218 1.413 . S
C214 C213 1.348 . S
C214 C215 1.442 . S
C214 H236 0.930 . S
C215 C214 1.442 . S
C215 C216 1.381 . S
C215 H237 0.931 . S
C216 C215 1.381 . S
C216 C217 1.321 . S
C217 C216 1.321 . S
C217 C218 1.403 . S
C217 H238 0.934 . S
C218 C213 1.413 . S
C218 C217 1.403 . S
C218 H239 0.930 . S
C219 O230 1.275 . S
C219 O231 1.256 . S
O220 Ho200 2.322 . S
O220 C202 1.259 . S
O221 Ho201 2.346 . S
O221 C202 1.268 . S
O222 Ho200 2.378 . S
O222 C203 1.215 . S
O223 Ho200 2.524 . S
O223 C203 1.289 . S
O224 Ho200 2.381 . S
O224 C210 1.275 . S
O225 Ho200 2.669 . S
O225 Ho201 2.305 . S
O225 C210 1.256 . S
O226 Ho201 2.322 . S
O226 C211 1.259 . S
O227 Ho200 2.346 . S
O227 C211 1.268 . S
O228 Ho201 2.378 . S
O228 C212 1.215 . S
O229 Ho201 2.524 . S
O229 C212 1.289 . S
O230 Ho201 2.381 . S
O230 C219 1.275 . S
O231 Ho200 2.305 . S
O231 Ho201 2.669 . S
O231 C219 1.256 . S
H232 C205 0.930 . S
H233 C206 0.931 1_554 S
H234 C208 0.934 . S
H235 C209 0.930 . S
H236 C214 0.930 . S
H237 C215 0.931 . S
H238 C217 0.934 . S
H239 C218 0.930 . S
C240 C241 1.386 . S
C240 C242 1.383 . S
C240 H256 0.951 . S
C241 C240 1.386 . S
C241 C245 1.383 . S
C242 C240 1.383 . S
C242 C243 1.402 . S
C242 H257 0.951 . S
C243 C242 1.402 . S
C243 C244 1.375 . S
C243 C246 1.481 . S
C244 C243 1.375 . S
C244 C245 1.367 . S
C244 H258 0.951 . S
C245 C241 1.383 . S
C245 C244 1.367 . S
C245 H259 0.950 . S
C246 C243 1.481 . S
C246 C247 1.297 . S
C246 H260 0.950 . S
C247 C246 1.297 . S
C247 C248 1.479 1_556 S
C247 H261 0.950 . S
C248 C247 1.479 1_554 S
C248 C249 1.375 . S
C248 C254 1.404 . S
C249 C248 1.375 . S
C249 C250 1.369 . S
C249 H262 0.950 . S
C250 C249 1.369 . S
C250 C251 1.392 . S
C250 H263 0.951 . S
C251 C250 1.392 . S
C251 C253 1.384 . S
H252 C254 0.949 . S
C253 C251 1.384 . S
C253 C254 1.385 . S
C253 H255 0.950 . S
C254 C248 1.404 . S
C254 H252 0.949 . S
C254 C253 1.385 . S
H255 C253 0.950 . S
H256 C240 0.951 . S
H257 C242 0.951 . S
H258 C244 0.951 . S
H259 C245 0.950 . S
H260 C246 0.950 . S
H261 C247 0.950 . S
H262 C249 0.950 . S
H263 C250 0.951 . S
C264 C265 1.386 . S
C264 C266 1.383 . S
C264 H280 0.951 . S
C265 C264 1.386 . S
C265 C269 1.383 . S
C266 C264 1.383 . S
C266 C267 1.402 . S
C266 H281 0.951 . S
C267 C266 1.402 . S
C267 C268 1.375 . S
C267 C270 1.481 . S
C268 C267 1.375 . S
C268 C269 1.367 . S
C268 H282 0.951 . S
C269 C265 1.383 . S
C269 C268 1.367 . S
C269 H283 0.950 . S
C270 C267 1.481 . S
C270 C271 1.297 1_455 S
C270 H284 0.943 . S
C271 C270 1.297 1_655 S
C271 C272 1.479 . S
C271 H285 0.950 . S
C272 C271 1.479 . S
C272 C273 1.375 . S
C272 C278 1.404 . S
C273 C272 1.375 . S
C273 C274 1.369 . S
C273 H286 0.950 . S
C274 C273 1.369 . S
C274 C275 1.392 . S
C274 H287 0.951 . S
C275 C274 1.392 . S
C275 C277 1.384 . S
H276 C278 0.949 . S
C277 C275 1.384 . S
C277 C278 1.385 . S
C277 H279 0.950 . S
C278 C272 1.404 . S
C278 H276 0.949 . S
C278 C277 1.385 . S
H279 C277 0.950 . S
H280 C264 0.951 . S
H281 C266 0.951 . S
H282 C268 0.951 . S
H283 C269 0.950 . S
H284 C270 0.943 . S
H285 C271 0.950 . S
H286 C273 0.950 . S
H287 C274 0.951 . S
C288 C289 1.386 . S
C288 C290 1.383 . S
C288 H304 0.951 . S
C289 C288 1.386 . S
C289 C293 1.383 . S
C290 C288 1.383 . S
C290 C291 1.402 . S
C290 H305 0.951 . S
C291 C290 1.402 . S
C291 C292 1.375 . S
C291 C294 1.481 . S
C292 C291 1.375 . S
C292 C293 1.367 . S
C292 H306 0.951 . S
C293 C289 1.383 . S
C293 C292 1.367 . S
C293 H307 0.950 . S
C294 C291 1.481 . S
C294 C295 1.305 . S
C294 H308 0.950 . S
C295 C294 1.305 . S
C295 C296 1.476 1_545 S
C295 H309 0.945 1_545 S
C296 C295 1.476 1_565 S
C296 C297 1.375 . S
C296 C302 1.404 . S
C297 C296 1.375 . S
C297 C298 1.369 . S
C297 H310 0.950 . S
C298 C297 1.369 . S
C298 C299 1.392 . S
C298 H311 0.951 . S
C299 C298 1.392 . S
C299 C301 1.384 . S
H300 C302 0.949 1_545 S
C301 C299 1.384 . S
C301 C302 1.385 . S
C301 H303 0.950 . S
C302 C296 1.404 . S
C302 H300 0.949 1_565 S
C302 C301 1.385 . S
H303 C301 0.950 . S
H304 C288 0.951 . S
H305 C290 0.951 . S
H306 C292 0.951 . S
H307 C293 0.950 . S
H308 C294 0.950 . S
H309 C295 0.945 1_565 S
H310 C297 0.950 . S
H311 C298 0.951 . S
C312 C313 1.386 . S
C312 C314 1.383 . S
C312 H328 0.951 . S
C313 C312 1.386 . S
C313 C317 1.383 . S
C314 C312 1.383 . S
C314 C315 1.402 . S
C314 H329 0.951 . S
C315 C314 1.402 . S
C315 C316 1.375 . S
C315 C318 1.481 . S
C316 C315 1.375 . S
C316 C317 1.367 . S
C316 H330 0.951 . S
C317 C313 1.383 . S
C317 C316 1.367 . S
C317 H331 0.950 . S
C318 C315 1.481 . S
C318 C319 1.297 . S
C318 H332 0.950 . S
C319 C318 1.297 . S
C319 C320 1.479 . S
C319 H333 0.950 1_556 S
C320 C319 1.479 . S
C320 C321 1.375 1_556 S
C320 C326 1.404 . S
C321 C320 1.375 1_554 S
C321 C322 1.369 . S
C321 H334 0.950 . S
C322 C321 1.369 . S
C322 C323 1.392 . S
C322 H335 0.951 . S
C323 C322 1.392 . S
C323 C325 1.384 1_554 S
H324 C326 0.949 . S
C325 C323 1.384 1_556 S
C325 C326 1.385 . S
C325 H327 0.950 . S
C326 C320 1.404 . S
C326 H324 0.949 . S
C326 C325 1.385 . S
H327 C325 0.950 . S
H328 C312 0.951 . S
H329 C314 0.951 . S
H330 C316 0.951 . S
H331 C317 0.950 . S
H332 C318 0.950 . S
H333 C319 0.950 1_554 S
H334 C321 0.950 . S
H335 C322 0.951 . S
C336 C337 1.386 . S
C336 C338 1.383 . S
C336 H352 0.951 . S
C337 C336 1.386 . S
C337 C341 1.383 . S
C338 C336 1.383 . S
C338 C339 1.402 . S
C338 H353 0.951 1_455 S
C339 C338 1.402 . S
C339 C340 1.375 . S
C339 C342 1.481 . S
C340 C339 1.375 . S
C340 C341 1.367 . S
C340 H354 0.951 . S
C341 C337 1.383 . S
C341 C340 1.367 . S
C341 H355 0.950 . S
C342 C339 1.481 . S
C342 C343 1.297 1_455 S
C342 H356 0.950 . S
C343 C342 1.297 1_655 S
C343 C344 1.479 . S
C343 H357 0.950 . S
C344 C343 1.479 . S
C344 C345 1.375 . S
C344 C350 1.404 . S
C345 C344 1.375 . S
C345 C346 1.369 . S
C345 H358 0.950 . S
C346 C345 1.369 . S
C346 C347 1.392 . S
C346 H359 0.951 . S
C347 C346 1.392 . S
C347 C349 1.384 . S
H348 C350 0.949 1_455 S
C349 C347 1.384 . S
C349 C350 1.385 . S
C349 H351 0.950 . S
C350 C344 1.404 . S
C350 H348 0.949 1_655 S
C350 C349 1.385 . S
H351 C349 0.950 . S
H352 C336 0.951 . S
H353 C338 0.951 1_655 S
H354 C340 0.951 . S
H355 C341 0.950 . S
H356 C342 0.950 . S
H357 C343 0.950 . S
H358 C345 0.950 . S
H359 C346 0.951 . S
C360 C361 1.386 . S
C360 C362 1.383 . S
C360 H376 0.951 . S
C361 C360 1.386 . S
C361 C365 1.383 . S
C362 C360 1.383 . S
C362 C363 1.402 . S
C362 H377 0.951 . S
C363 C362 1.402 . S
C363 C364 1.375 . S
C363 C366 1.481 . S
C364 C363 1.375 . S
C364 C365 1.367 . S
C364 H378 0.951 . S
C365 C361 1.383 . S
C365 C364 1.367 . S
C365 H379 0.950 . S
C366 C363 1.481 . S
C366 C367 1.297 1_545 S
C366 H380 0.950 . S
C367 C366 1.297 1_565 S
C367 C368 1.479 . S
C367 H381 0.950 . S
C368 C367 1.479 . S
C368 C369 1.375 . S
C368 C374 1.404 . S
C369 C368 1.375 . S
C369 C370 1.369 . S
C369 H382 0.950 . S
C370 C369 1.369 . S
C370 C371 1.392 . S
C370 H383 0.951 . S
C371 C370 1.392 . S
C371 C373 1.384 . S
H372 C374 0.949 . S
C373 C371 1.384 . S
C373 C374 1.385 . S
C373 H375 0.950 . S
C374 C368 1.404 . S
C374 H372 0.949 . S
C374 C373 1.385 . S
H375 C373 0.950 . S
H376 C360 0.951 . S
H377 C362 0.951 . S
H378 C364 0.951 . S
H379 C365 0.950 . S
H380 C366 0.950 . S
H381 C367 0.950 . S
H382 C369 0.950 . S
H383 C370 0.951 . S
C384 C385 1.386 . S
C384 C386 1.383 . S
C384 H400 0.951 . S
C385 C384 1.386 . S
C385 C389 1.383 . S
C386 C384 1.383 . S
C386 C387 1.402 . S
C386 H401 0.951 . S
C387 C386 1.402 . S
C387 C388 1.375 . S
C387 C390 1.481 . S
C388 C387 1.375 . S
C388 C389 1.367 . S
C388 H402 0.951 . S
C389 C385 1.383 . S
C389 C388 1.367 . S
C389 H403 0.950 . S
C390 C387 1.481 . S
C390 C391 1.297 . S
C390 H404 0.950 . S
C391 C390 1.297 . S
C391 C392 1.479 . S
C391 H405 0.950 . S
C392 C391 1.479 . S
C392 C393 1.375 . S
C392 C398 1.404 . S
C393 C392 1.375 . S
C393 C394 1.369 . S
C393 H406 0.950 . S
C394 C393 1.369 . S
C394 C395 1.392 . S
C394 H407 0.951 . S
C395 C394 1.392 . S
C395 C397 1.384 . S
H396 C398 0.949 . S
C397 C395 1.384 . S
C397 C398 1.385 . S
C397 H399 0.950 . S
C398 C392 1.404 . S
C398 H396 0.949 . S
C398 C397 1.385 . S
H399 C397 0.950 . S
H400 C384 0.951 . S
H401 C386 0.951 . S
H402 C388 0.951 . S
H403 C389 0.950 . S
H404 C390 0.950 . S
H405 C391 0.950 . S
H406 C393 0.950 . S
H407 C394 0.951 . S
C408 C409 1.386 1_556 S
C408 C410 1.383 . S
C408 H424 0.951 . S
C409 C408 1.386 1_554 S
C409 C413 1.383 . S
C410 C408 1.383 . S
C410 C411 1.402 . S
C410 H425 0.951 . S
C411 C410 1.402 . S
C411 C412 1.375 . S
C411 C414 1.481 . S
C412 C411 1.375 . S
C412 C413 1.367 1_556 S
C412 H426 0.951 . S
C413 C409 1.383 . S
C413 C412 1.367 1_554 S
C413 H427 0.950 . S
C414 C411 1.481 . S
C414 C415 1.297 . S
C414 H428 0.950 . S
C415 C414 1.297 . S
C415 C416 1.479 . S
C415 H429 0.950 . S
C416 C415 1.479 . S
C416 C417 1.375 . S
C416 C422 1.404 . S
C417 C416 1.375 . S
C417 C418 1.369 . S
C417 H430 0.950 . S
C418 C417 1.369 . S
C418 C419 1.392 . S
C418 H431 0.951 . S
C419 C418 1.392 . S
C419 C421 1.384 . S
H420 C422 0.949 . S
C421 C419 1.384 . S
C421 C422 1.385 . S
C421 H423 0.950 . S
C422 C416 1.404 . S
C422 H420 0.949 . S
C422 C421 1.385 . S
H423 C421 0.950 . S
H424 C408 0.951 . S
H425 C410 0.951 . S
H426 C412 0.951 . S
H427 C413 0.950 . S
H428 C414 0.950 . S
H429 C415 0.950 . S
H430 C417 0.950 . S
H431 C418 0.951 . S
C432 C433 1.386 . S
C432 C434 1.383 . S
C432 H448 0.951 . S
C433 C432 1.386 . S
C433 C437 1.383 . S
C434 C432 1.383 . S
C434 C435 1.402 . S
C434 H449 0.951 . S
C435 C434 1.402 . S
C435 C436 1.375 . S
C435 C438 1.481 . S
C436 C435 1.375 . S
C436 C437 1.367 . S
C436 H450 0.951 . S
C437 C433 1.383 . S
C437 C436 1.367 . S
C437 H451 0.950 . S
C438 C435 1.481 . S
C438 C439 1.297 . S
C438 H452 0.950 . S
C439 C438 1.297 . S
C439 C440 1.479 . S
C439 H453 0.950 . S
C440 C439 1.479 . S
C440 C441 1.375 . S
C440 C446 1.404 . S
C441 C440 1.375 . S
C441 C442 1.369 . S
C441 H454 0.950 . S
C442 C441 1.369 . S
C442 C443 1.392 . S
C442 H455 0.951 . S
C443 C442 1.392 . S
C443 C445 1.384 . S
H444 C446 0.949 . S
C445 C443 1.384 . S
C445 C446 1.385 . S
C445 H447 0.950 . S
C446 C440 1.404 . S
C446 H444 0.949 . S
C446 C445 1.385 . S
H447 C445 0.950 . S
H448 C432 0.951 . S
H449 C434 0.951 . S
H450 C436 0.951 . S
H451 C437 0.950 . S
H452 C438 0.950 . S
H453 C439 0.950 . S
H454 C441 0.950 . S
H455 C442 0.951 . S
C456 C457 1.386 . S
C456 C458 1.383 . S
C456 H472 0.951 . S
C457 C456 1.386 . S
C457 C461 1.383 . S
C458 C456 1.383 . S
C458 C459 1.402 . S
C458 H473 0.951 . S
C459 C458 1.402 . S
C459 C460 1.375 . S
C459 C462 1.481 . S
C460 C459 1.375 . S
C460 C461 1.367 . S
C460 H474 0.951 . S
C461 C457 1.383 . S
C461 C460 1.367 . S
C461 H475 0.950 . S
C462 C459 1.481 . S
C462 C463 1.297 . S
C462 H476 0.950 . S
C463 C462 1.297 . S
C463 C464 1.479 . S
C463 H477 0.950 . S
C464 C463 1.479 . S
C464 C465 1.375 . S
C464 C470 1.404 . S
C465 C464 1.375 . S
C465 C466 1.369 . S
C465 H478 0.950 . S
C466 C465 1.369 . S
C466 C467 1.392 . S
C466 H479 0.951 . S
C467 C466 1.392 . S
C467 C469 1.384 . S
H468 C470 0.949 . S
C469 C467 1.384 . S
C469 C470 1.385 . S
C469 H471 0.950 . S
C470 C464 1.404 . S
C470 H468 0.949 . S
C470 C469 1.385 . S
H471 C469 0.950 . S
H472 C456 0.951 . S
H473 C458 0.951 . S
H474 C460 0.951 . S
H475 C461 0.950 . S
H476 C462 0.950 . S
H477 C463 0.950 . S
H478 C465 0.950 . S
H479 C466 0.951 . S
C480 C481 1.386 . S
C480 C482 1.383 . S
C480 H496 0.951 . S
C481 C480 1.386 . S
C481 C485 1.383 . S
C482 C480 1.383 . S
C482 C483 1.402 . S
C482 H497 0.951 . S
C483 C482 1.402 . S
C483 C484 1.375 . S
C483 C486 1.481 1_556 S
C484 C483 1.375 . S
C484 C485 1.367 . S
C484 H498 0.951 . S
C485 C481 1.383 . S
C485 C484 1.367 . S
C485 H499 0.950 . S
C486 C483 1.481 1_554 S
C486 C487 1.297 . S
C486 H500 0.950 . S
C487 C486 1.297 . S
C487 C488 1.479 . S
C487 H501 0.950 . S
C488 C487 1.479 . S
C488 C489 1.375 . S
C488 C494 1.404 . S
C489 C488 1.375 . S
C489 C490 1.369 . S
C489 H502 0.950 . S
C490 C489 1.369 . S
C490 C491 1.392 . S
C490 H503 0.951 . S
C491 C490 1.392 . S
C491 C493 1.384 . S
H492 C494 0.949 . S
C493 C491 1.384 . S
C493 C494 1.385 . S
C493 H495 0.950 . S
C494 C488 1.404 . S
C494 H492 0.949 . S
C494 C493 1.385 . S
H495 C493 0.950 . S
H496 C480 0.951 . S
H497 C482 0.951 . S
H498 C484 0.951 . S
H499 C485 0.950 . S
H500 C486 0.950 . S
H501 C487 0.950 . S
H502 C489 0.950 . S
H503 C490 0.951 . S
C504 C505 1.386 . S
C504 C506 1.383 . S
C504 H520 0.951 . S
C505 C504 1.386 . S
C505 C509 1.383 . S
C506 C504 1.383 . S
C506 C507 1.402 . S
C506 H521 0.951 . S
C507 C506 1.402 . S
C507 C508 1.375 . S
C507 C510 1.481 . S
C508 C507 1.375 . S
C508 C509 1.367 . S
C508 H522 0.951 . S
C509 C505 1.383 . S
C509 C508 1.367 . S
C509 H523 0.950 . S
C510 C507 1.481 . S
C510 C511 1.297 . S
C510 H524 0.950 . S
C511 C510 1.297 . S
C511 C512 1.479 . S
C511 H525 0.950 . S
C512 C511 1.479 . S
C512 C513 1.375 . S
C512 C518 1.404 . S
C513 C512 1.375 . S
C513 C514 1.369 . S
C513 H526 0.950 . S
C514 C513 1.369 . S
C514 C515 1.392 . S
C514 H527 0.951 . S
C515 C514 1.392 . S
C515 C517 1.384 . S
H516 C518 0.949 . S
C517 C515 1.384 . S
C517 C518 1.385 . S
C517 H519 0.950 . S
C518 C512 1.404 . S
C518 H516 0.949 . S
C518 C517 1.385 . S
H519 C517 0.950 . S
H520 C504 0.951 . S
H521 C506 0.951 . S
H522 C508 0.951 . S
H523 C509 0.950 . S
H524 C510 0.950 . S
H525 C511 0.950 . S
H526 C513 0.950 . S
H527 C514 0.951 . S
C528 C529 1.386 . S
C528 C530 1.383 . S
C528 H544 0.951 . S
C529 C528 1.386 . S
C529 C533 1.383 . S
C530 C528 1.383 . S
C530 C531 1.402 . S
C530 H545 0.951 . S
C531 C530 1.402 . S
C531 C532 1.375 . S
C531 C534 1.481 . S
C532 C531 1.375 . S
C532 C533 1.367 . S
C532 H546 0.951 . S
C533 C529 1.383 . S
C533 C532 1.367 . S
C533 H547 0.950 . S
C534 C531 1.481 . S
C534 C535 1.297 . S
C534 H548 0.950 . S
C535 C534 1.297 . S
C535 C536 1.479 . S
C535 H549 0.950 . S
C536 C535 1.479 . S
C536 C537 1.375 . S
C536 C542 1.404 . S
C537 C536 1.375 . S
C537 C538 1.369 . S
C537 H550 0.950 . S
C538 C537 1.369 . S
C538 C539 1.392 . S
C538 H551 0.951 . S
C539 C538 1.392 . S
C539 C541 1.384 . S
H540 C542 0.949 . S
C541 C539 1.384 . S
C541 C542 1.385 . S
C541 H543 0.950 . S
C542 C536 1.404 . S
C542 H540 0.949 . S
C542 C541 1.385 . S
H543 C541 0.950 . S
H544 C528 0.951 . S
H545 C530 0.951 . S
H546 C532 0.951 . S
H547 C533 0.950 . S
H548 C534 0.950 . S
H549 C535 0.950 . S
H550 C537 0.950 . S
H551 C538 0.951 . S
C552 C553 1.386 . S
C552 C554 1.383 . S
C552 H568 0.951 . S
C553 C552 1.386 . S
C553 C557 1.383 . S
C554 C552 1.383 . S
C554 C555 1.402 . S
C554 H569 0.951 . S
C555 C554 1.402 . S
C555 C556 1.375 . S
C555 C558 1.481 . S
C556 C555 1.375 . S
C556 C557 1.367 . S
C556 H570 0.951 . S
C557 C553 1.383 . S
C557 C556 1.367 . S
C557 H571 0.950 . S
C558 C555 1.481 . S
C558 C559 1.297 . S
C558 H572 0.950 . S
C559 C558 1.297 . S
C559 C560 1.479 . S
C559 H573 0.950 . S
C560 C559 1.479 . S
C560 C561 1.375 . S
C560 C566 1.404 . S
C561 C560 1.375 . S
C561 C562 1.369 . S
C561 H574 0.950 . S
C562 C561 1.369 . S
C562 C563 1.392 . S
C562 H575 0.951 . S
C563 C562 1.392 . S
C563 C565 1.384 . S
H564 C566 0.949 . S
C565 C563 1.384 . S
C565 C566 1.385 . S
C565 H567 0.950 . S
C566 C560 1.404 . S
C566 H564 0.949 . S
C566 C565 1.385 . S
H567 C565 0.950 . S
H568 C552 0.951 . S
H569 C554 0.951 . S
H570 C556 0.951 . S
H571 C557 0.950 . S
H572 C558 0.950 . S
H573 C559 0.950 . S
H574 C561 0.950 . S
H575 C562 0.951 . S
C576 C577 1.386 . S
C576 C578 1.383 . S
C576 H592 0.951 . S
C577 C576 1.386 . S
C577 C581 1.383 . S
C578 C576 1.383 . S
C578 C579 1.402 . S
C578 H593 0.951 . S
C579 C578 1.402 . S
C579 C580 1.375 . S
C579 C582 1.481 . S
C580 C579 1.375 . S
C580 C581 1.367 . S
C580 H594 0.951 . S
C581 C577 1.383 . S
C581 C580 1.367 . S
C581 H595 0.950 . S
C582 C579 1.481 . S
C582 C583 1.297 . S
C582 H596 0.950 . S
C583 C582 1.297 . S
C583 C584 1.479 . S
C583 H597 0.950 . S
C584 C583 1.479 . S
C584 C585 1.375 1_554 S
C584 C590 1.404 . S
C585 C584 1.375 1_556 S
C585 C586 1.369 . S
C585 H598 0.950 . S
C586 C585 1.369 . S
C586 C587 1.392 . S
C586 H599 0.951 . S
C587 C586 1.392 . S
C587 C589 1.384 1_556 S
H588 C590 0.949 . S
C589 C587 1.384 1_554 S
C589 C590 1.385 . S
C589 H591 0.950 . S
C590 C584 1.404 . S
C590 H588 0.949 . S
C590 C589 1.385 . S
H591 C589 0.950 . S
H592 C576 0.951 . S
H593 C578 0.951 . S
H594 C580 0.951 . S
H595 C581 0.950 . S
H596 C582 0.950 . S
H597 C583 0.950 . S
H598 C585 0.950 . S
H599 C586 0.951 . S
C600 C601 1.386 . S
C600 C602 1.383 . S
C600 H616 0.951 . S
C601 C600 1.386 . S
C601 C605 1.383 . S
C602 C600 1.383 . S
C602 C603 1.402 . S
C602 H617 0.951 . S
C603 C602 1.402 . S
C603 C604 1.375 . S
C603 C606 1.481 . S
C604 C603 1.375 . S
C604 C605 1.367 . S
C604 H618 0.951 . S
C605 C601 1.383 . S
C605 C604 1.367 . S
C605 H619 0.950 . S
C606 C603 1.481 . S
C606 C607 1.297 . S
C606 H620 0.950 . S
C607 C606 1.297 . S
C607 C608 1.479 . S
C607 H621 0.950 . S
C608 C607 1.479 . S
C608 C609 1.375 . S
C608 C614 1.404 . S
C609 C608 1.375 . S
C609 C610 1.369 . S
C609 H622 0.950 . S
C610 C609 1.369 . S
C610 C611 1.392 . S
C610 H623 0.951 . S
C611 C610 1.392 . S
C611 C613 1.384 . S
H612 C614 0.949 . S
C613 C611 1.384 . S
C613 C614 1.385 . S
C613 H615 0.950 . S
C614 C608 1.404 . S
C614 H612 0.949 . S
C614 C613 1.385 . S
H615 C613 0.950 . S
H616 C600 0.951 . S
H617 C602 0.951 . S
H618 C604 0.951 . S
H619 C605 0.950 . S
H620 C606 0.950 . S
H621 C607 0.950 . S
H622 C609 0.950 . S
H623 C610 0.951 . S
C624 C625 1.386 . S
C624 C626 1.383 . S
C624 H640 0.951 . S
C625 C624 1.386 . S
C625 C629 1.383 . S
C626 C624 1.383 . S
C626 C627 1.402 . S
C626 H641 0.951 . S
C627 C626 1.402 . S
C627 C628 1.375 . S
C627 C630 1.481 . S
C628 C627 1.375 . S
C628 C629 1.367 . S
C628 H642 0.951 . S
C629 C625 1.383 . S
C629 C628 1.367 . S
C629 H643 0.950 . S
C630 C627 1.481 . S
C630 C631 1.297 . S
C630 H644 0.950 . S
C631 C630 1.297 . S
C631 C632 1.479 . S
C631 H645 0.950 . S
C632 C631 1.479 . S
C632 C633 1.375 . S
C632 C638 1.404 . S
C633 C632 1.375 . S
C633 C634 1.369 . S
C633 H646 0.950 . S
C634 C633 1.369 . S
C634 C635 1.392 . S
C634 H647 0.951 . S
C635 C634 1.392 . S
C635 C637 1.384 . S
H636 C638 0.949 . S
C637 C635 1.384 . S
C637 C638 1.385 . S
C637 H639 0.950 . S
C638 C632 1.404 . S
C638 H636 0.949 . S
C638 C637 1.385 . S
H639 C637 0.950 . S
H640 C624 0.951 . S
H641 C626 0.951 . S
H642 C628 0.951 . S
H643 C629 0.950 . S
H644 C630 0.950 . S
H645 C631 0.950 . S
H646 C633 0.950 . S
H647 C634 0.951 . S
C648 C649 1.386 . S
C648 C650 1.383 . S
C648 H664 0.951 . S
C649 C648 1.386 . S
C649 C653 1.383 . S
C650 C648 1.383 . S
C650 C651 1.402 . S
C650 H665 0.951 . S
C651 C650 1.402 . S
C651 C652 1.375 . S
C651 C654 1.481 . S
C652 C651 1.375 . S
C652 C653 1.367 . S
C652 H666 0.951 . S
C653 C649 1.383 . S
C653 C652 1.367 . S
C653 H667 0.950 . S
C654 C651 1.481 . S
C654 C655 1.297 . S
C654 H668 0.950 . S
C655 C654 1.297 . S
C655 C656 1.479 . S
C655 H669 0.950 . S
C656 C655 1.479 . S
C656 C657 1.375 . S
C656 C662 1.404 . S
C657 C656 1.375 . S
C657 C658 1.369 . S
C657 H670 0.950 . S
C658 C657 1.369 . S
C658 C659 1.392 . S
C658 H671 0.951 . S
C659 C658 1.392 . S
C659 C661 1.384 . S
H660 C662 0.949 . S
C661 C659 1.384 . S
C661 C662 1.385 . S
C661 H663 0.950 . S
C662 C656 1.404 . S
C662 H660 0.949 . S
C662 C661 1.385 . S
H663 C661 0.950 . S
H664 C648 0.951 . S
H665 C650 0.951 . S
H666 C652 0.951 . S
H667 C653 0.950 . S
H668 C654 0.950 . S
H669 C655 0.950 . S
H670 C657 0.950 . S
H671 C658 0.951 . S
C241 C202 1.697 . S
C251 C2 1.658 . S
C265 C10 1.413 . S
C275 C50 1.430 . S
C289 C42 1.674 . S
C299 C82 1.693 . S
C313 C90 1.362 . S
C323 C130 1.331 . S
C337 C162 1.674 . S
C347 C122 1.689 . S
C361 C210 1.418 . S
C371 C170 1.437 . S
C385 C7 1.114 . S
C395 C16 1.157 . S
C409 C56 1.122 . S
C419 C47 1.128 . S
C433 C87 1.143 . S
C443 C96 1.182 . S
C457 C136 1.173 . S
C467 C127 1.118 . S
C481 C176 1.170 . S
C491 C167 1.136 . S
C505 C216 1.174 . S
C515 C207 1.108 . S
C529 C11 1.794 . S
C539 C179 1.796 . S
C553 C59 1.796 . S
C563 C211 1.753 . S
C577 C19 1.796 . S
C587 C91 1.753 . S
C601 C51 1.795 . S
C611 C139 1.795 . S
C625 C171 1.772 . S
C635 C99 1.786 . S
C649 C131 1.785 . S
C659 C219 1.790 . S
