# Generated by pormake.
# Topology uou, (4)-cn, num edge types: 1
# Building blocks:
#     Node 0, Type 0, BuildingBlock: GALJAG_clean_sbu_0, # of connection points: 4
#     Node 1, Type 0, BuildingBlock: GALJAG_clean_sbu_0, # of connection points: 4
#     Node 2, Type 0, BuildingBlock: GALJAG_clean_sbu_0, # of connection points: 4
#     Node 3, Type 0, BuildingBlock: GALJAG_clean_sbu_0, # of connection points: 4
#     Node 4, Type 0, BuildingBlock: GALJAG_clean_sbu_0, # of connection points: 4
#     Node 5, Type 0, BuildingBlock: GALJAG_clean_sbu_0, # of connection points: 4
#     Node 6, Type 0, BuildingBlock: GALJAG_clean_sbu_0, # of connection points: 4
#     Node 7, Type 0, BuildingBlock: GALJAG_clean_sbu_0, # of connection points: 4
#     Node 8, Type 0, BuildingBlock: GALJAG_clean_sbu_0, # of connection points: 4
#     Node 9, Type 0, BuildingBlock: GALJAG_clean_sbu_0, # of connection points: 4
#     Node 10, Type 0, BuildingBlock: GALJAG_clean_sbu_0, # of connection points: 4
#     Node 11, Type 0, BuildingBlock: GALJAG_clean_sbu_0, # of connection points: 4
#     Node 12, Type 0, BuildingBlock: GALJAG_clean_sbu_0, # of connection points: 4
#     Node 13, Type 0, BuildingBlock: GALJAG_clean_sbu_0, # of connection points: 4
#     Node 14, Type 0, BuildingBlock: GALJAG_clean_sbu_0, # of connection points: 4
#     Node 15, Type 0, BuildingBlock: GALJAG_clean_sbu_0, # of connection points: 4
#     Edge 16, Type (0, 0), BuildingBlock: EZIPEK_clean_linker_0, # of connection points: 2
#     Edge 17, Type (0, 0), BuildingBlock: EZIPEK_clean_linker_0, # of connection points: 2
#     Edge 18, Type (0, 0), BuildingBlock: EZIPEK_clean_linker_0, # of connection points: 2
#     Edge 19, Type (0, 0), BuildingBlock: EZIPEK_clean_linker_0, # of connection points: 2
#     Edge 20, Type (0, 0), BuildingBlock: EZIPEK_clean_linker_0, # of connection points: 2
#     Edge 21, Type (0, 0), BuildingBlock: EZIPEK_clean_linker_0, # of connection points: 2
#     Edge 22, Type (0, 0), BuildingBlock: EZIPEK_clean_linker_0, # of connection points: 2
#     Edge 23, Type (0, 0), BuildingBlock: EZIPEK_clean_linker_0, # of connection points: 2
#     Edge 24, Type (0, 0), BuildingBlock: EZIPEK_clean_linker_0, # of connection points: 2
#     Edge 25, Type (0, 0), BuildingBlock: EZIPEK_clean_linker_0, # of connection points: 2
#     Edge 26, Type (0, 0), BuildingBlock: EZIPEK_clean_linker_0, # of connection points: 2
#     Edge 27, Type (0, 0), BuildingBlock: EZIPEK_clean_linker_0, # of connection points: 2
#     Edge 28, Type (0, 0), BuildingBlock: EZIPEK_clean_linker_0, # of connection points: 2
#     Edge 29, Type (0, 0), BuildingBlock: EZIPEK_clean_linker_0, # of connection points: 2
#     Edge 30, Type (0, 0), BuildingBlock: EZIPEK_clean_linker_0, # of connection points: 2
#     Edge 31, Type (0, 0), BuildingBlock: EZIPEK_clean_linker_0, # of connection points: 2
#     Edge 32, Type (0, 0), BuildingBlock: EZIPEK_clean_linker_0, # of connection points: 2
#     Edge 33, Type (0, 0), BuildingBlock: EZIPEK_clean_linker_0, # of connection points: 2
#     Edge 34, Type (0, 0), BuildingBlock: EZIPEK_clean_linker_0, # of connection points: 2
#     Edge 35, Type (0, 0), BuildingBlock: EZIPEK_clean_linker_0, # of connection points: 2
#     Edge 36, Type (0, 0), BuildingBlock: EZIPEK_clean_linker_0, # of connection points: 2
#     Edge 37, Type (0, 0), BuildingBlock: EZIPEK_clean_linker_0, # of connection points: 2
#     Edge 38, Type (0, 0), BuildingBlock: EZIPEK_clean_linker_0, # of connection points: 2
#     Edge 39, Type (0, 0), BuildingBlock: EZIPEK_clean_linker_0, # of connection points: 2
#     Edge 40, Type (0, 0), BuildingBlock: EZIPEK_clean_linker_0, # of connection points: 2
#     Edge 41, Type (0, 0), BuildingBlock: EZIPEK_clean_linker_0, # of connection points: 2
#     Edge 42, Type (0, 0), BuildingBlock: EZIPEK_clean_linker_0, # of connection points: 2
#     Edge 43, Type (0, 0), BuildingBlock: EZIPEK_clean_linker_0, # of connection points: 2
#     Edge 44, Type (0, 0), BuildingBlock: EZIPEK_clean_linker_0, # of connection points: 2
#     Edge 45, Type (0, 0), BuildingBlock: EZIPEK_clean_linker_0, # of connection points: 2
#     Edge 46, Type (0, 0), BuildingBlock: EZIPEK_clean_linker_0, # of connection points: 2
#     Edge 47, Type (0, 0), BuildingBlock: EZIPEK_clean_linker_0, # of connection points: 2
# Relax obj value: 0.005
# Max RMSD: 0.017
# Mean RMSD: 0.017
data_MOF--net-uou--node1-GALJAG_clean_sbu_0--edge1-EZIPEK_clean_linker_0
_symmetry_space_group_name_H-M    P1
_symmetry_Int_Tables_number       1
_symmetry_cell_setting            triclinic
loop_
_symmetry_equiv_pos_as_xyz
'x, y, z'
_cell_length_a     26.16877
_cell_length_b     31.729369
_cell_length_c     39.828124
_cell_angle_alpha  90.027829
_cell_angle_beta   89.967798
_cell_angle_gamma 89.961338
loop_
_atom_site_label
_atom_site_type_symbol
_atom_site_fract_x
_atom_site_fract_y
_atom_site_fract_z
_atom_type_partial_charge
In0 In 0.06044 0.08364 0.11461 0.0
O1 O 0.14777 0.08535 0.11665 0.0
O2 O 0.11085 0.02568 0.11904 0.0
C3 C 0.03477 0.16516 0.10563 0.0
C4 C 0.02748 0.0489 0.05716 0.0
C5 C 0.02731 0.07287 0.17788 0.0
O6 O 0.08062 0.15278 0.10416 0.0
O7 O 0.00225 0.13669 0.11112 0.0
O8 O 0.00674 0.05405 0.15343 0.0
O9 O 0.06418 0.09665 0.17046 0.0
C10 C 0.15235 0.04576 0.11859 0.0
O11 O 0.00755 0.0402 0.08519 0.0
O12 O 0.06306 0.07567 0.05795 0.0
In13 In 0.43718 0.91888 0.1168 0.0
O14 O 0.35071 0.91967 0.10817 0.0
O15 O 0.38648 0.97469 0.12834 0.0
C16 C 0.46874 0.8386 0.10959 0.0
C17 C 0.46755 0.95693 0.06012 0.0
C18 C 0.46641 0.92542 0.18113 0.0
O19 O 0.42248 0.84769 0.1156 0.0
O20 O 0.498 0.86983 0.10591 0.0
O21 O 0.49391 0.93929 0.1574 0.0
O22 O 0.42449 0.9093 0.17227 0.0
C23 C 0.34587 0.95728 0.11848 0.0
O24 O 0.48234 0.96911 0.08881 0.0
O25 O 0.43907 0.92482 0.06012 0.0
In26 In 0.55913 0.91584 0.38404 0.0
O27 O 0.50803 0.96339 0.41087 0.0
O28 O 0.55891 0.92615 0.44043 0.0
C29 C 0.52773 0.92477 0.32037 0.0
C30 C 0.65203 0.95176 0.38187 0.0
C31 C 0.53113 0.8346 0.39144 0.0
O32 O 0.50649 0.94434 0.34426 0.0
O33 O 0.56432 0.90103 0.32857 0.0
O34 O 0.57711 0.8453 0.38678 0.0
O35 O 0.49973 0.86468 0.39336 0.0
C36 C 0.52559 0.95484 0.43961 0.0
O37 O 0.64517 0.91567 0.39448 0.0
O38 O 0.61275 0.96909 0.36996 0.0
In39 In 0.9343 0.08105 0.38084 0.0
O40 O 0.98409 0.03191 0.40685 0.0
O41 O 0.94116 0.07441 0.43736 0.0
C42 C 0.96354 0.07363 0.31649 0.0
C43 C 0.84323 0.0421 0.38046 0.0
C44 C 0.95754 0.16327 0.38828 0.0
O45 O 0.99101 0.06042 0.34039 0.0
O46 O 0.92168 0.09021 0.32512 0.0
O47 O 0.91188 0.15025 0.38782 0.0
O48 O 0.99111 0.13489 0.38575 0.0
C49 C 0.9713 0.04349 0.43599 0.0
O50 O 0.84803 0.07989 0.39 0.0
O51 O 0.88378 0.02443 0.3708 0.0
In52 In 0.93818 0.92342 0.87985 0.0
O53 O 0.98912 0.97123 0.90617 0.0
O54 O 0.93868 0.93361 0.93604 0.0
C55 C 0.96537 0.92989 0.81497 0.0
C56 C 0.84661 0.96154 0.88037 0.0
C57 C 0.96806 0.84287 0.88916 0.0
O58 O 0.99316 0.94411 0.83833 0.0
O59 O 0.92379 0.91371 0.82433 0.0
O60 O 0.92197 0.85255 0.8835 0.0
O61 O 0.9982 0.8737 0.89147 0.0
C62 C 0.97192 0.96243 0.93503 0.0
O63 O 0.85145 0.92249 0.88621 0.0
O64 O 0.88765 0.9808 0.874 0.0
In65 In 0.55952 0.08434 0.88306 0.0
O66 O 0.64601 0.08713 0.89175 0.0
O67 O 0.61273 0.0291 0.87543 0.0
C68 C 0.52742 0.16458 0.8889 0.0
C69 C 0.52665 0.04645 0.93936 0.0
C70 C 0.5323 0.07631 0.81834 0.0
O71 O 0.57435 0.15538 0.88598 0.0
O72 O 0.49749 0.13344 0.89011 0.0
O73 O 0.50333 0.06438 0.84196 0.0
O74 O 0.57478 0.09104 0.8275 0.0
C75 C 0.65254 0.04883 0.88376 0.0
O76 O 0.51856 0.03118 0.91049 0.0
O77 O 0.54948 0.08145 0.93962 0.0
In78 In 0.43929 0.08529 0.61558 0.0
O79 O 0.49011 0.03775 0.58847 0.0
O80 O 0.43953 0.07545 0.55912 0.0
C81 C 0.4712 0.07599 0.6791 0.0
C82 C 0.34635 0.04946 0.6178 0.0
C83 C 0.46709 0.1665 0.60804 0.0
O84 O 0.49229 0.05663 0.65505 0.0
O85 O 0.43447 0.09972 0.67116 0.0
O86 O 0.42102 0.15576 0.61216 0.0
O87 O 0.49874 0.13654 0.60705 0.0
C88 C 0.47265 0.04662 0.55978 0.0
O89 O 0.3532 0.08574 0.60555 0.0
O90 O 0.38568 0.03188 0.62941 0.0
In91 In 0.06419 0.92014 0.61325 0.0
O92 O 0.01097 0.96503 0.58546 0.0
O93 O 0.06518 0.92979 0.55683 0.0
C94 C 0.03152 0.92817 0.67668 0.0
C95 C 0.15527 0.95896 0.61631 0.0
C96 C 0.0397 0.83823 0.60564 0.0
O97 O 0.00995 0.94717 0.65266 0.0
O98 O 0.0693 0.90555 0.66875 0.0
O99 O 0.08538 0.85043 0.60912 0.0
O100 O 0.00677 0.86727 0.60497 0.0
C101 C 0.03001 0.95694 0.55704 0.0
O102 O 0.15069 0.92179 0.6053 0.0
O103 O 0.11448 0.97606 0.62615 0.0
In104 In 0.56213 0.58278 0.11862 0.0
O105 O 0.64905 0.58451 0.11353 0.0
O106 O 0.61302 0.52552 0.12405 0.0
C107 C 0.53848 0.6651 0.11073 0.0
C108 C 0.52709 0.54299 0.0637 0.0
C109 C 0.53415 0.57341 0.18343 0.0
O110 O 0.58418 0.65217 0.11112 0.0
O111 O 0.50519 0.63665 0.11346 0.0
O112 O 0.50329 0.56767 0.15947 0.0
O113 O 0.57883 0.58316 0.17455 0.0
C114 C 0.65402 0.54533 0.11867 0.0
O115 O 0.51144 0.53401 0.09284 0.0
O116 O 0.55899 0.57268 0.0622 0.0
In117 In 0.93865 0.41914 0.1154 0.0
O118 O 0.8518 0.41811 0.10876 0.0
O119 O 0.88674 0.47494 0.1258 0.0
C120 C 0.96557 0.33799 0.10575 0.0
C121 C 0.9733 0.45809 0.06013 0.0
C122 C 0.96897 0.42675 0.17956 0.0
O123 O 0.91945 0.34923 0.10868 0.0
O124 O 0.99778 0.36749 0.10693 0.0
O125 O 0.99053 0.44673 0.15607 0.0
O126 O 0.93247 0.40331 0.17076 0.0
C127 C 0.8463 0.45606 0.11765 0.0
O128 O 0.99213 0.465 0.0888 0.0
O129 O 0.93822 0.43089 0.05919 0.0
In130 In 0.05852 0.41691 0.3834 0.0
O131 O 0.01042 0.46643 0.41031 0.0
O132 O 0.05797 0.42591 0.43977 0.0
C133 C 0.03028 0.42472 0.31887 0.0
C134 C 0.1514 0.45251 0.38295 0.0
C135 C 0.02633 0.33675 0.39068 0.0
O136 O 0.00329 0.43935 0.34256 0.0
O137 O 0.07132 0.40721 0.32783 0.0
O138 O 0.07236 0.34559 0.384 0.0
O139 O 0.99754 0.36815 0.39506 0.0
C140 C 0.02655 0.45609 0.43911 0.0
O141 O 0.14456 0.41527 0.39345 0.0
O142 O 0.11196 0.47119 0.3725 0.0
In143 In 0.43508 0.57991 0.38485 0.0
O144 O 0.48558 0.53332 0.41303 0.0
O145 O 0.43504 0.57216 0.44152 0.0
C146 C 0.46993 0.56932 0.32209 0.0
C147 C 0.34344 0.5418 0.38266 0.0
C148 C 0.46007 0.66201 0.3914 0.0
O149 O 0.49288 0.55399 0.34718 0.0
O150 O 0.42951 0.58944 0.32856 0.0
O151 O 0.41442 0.6502 0.38711 0.0
O152 O 0.49258 0.63274 0.39275 0.0
C153 C 0.4682 0.54333 0.44151 0.0
O154 O 0.34866 0.57892 0.39365 0.0
O155 O 0.38377 0.52446 0.37229 0.0
In156 In 0.43574 0.42068 0.88466 0.0
O157 O 0.34852 0.42212 0.88918 0.0
O158 O 0.38711 0.47867 0.87525 0.0
C159 C 0.45895 0.33837 0.89058 0.0
C160 C 0.4685 0.45472 0.9427 0.0
C161 C 0.46891 0.42869 0.82121 0.0
O162 O 0.41329 0.35153 0.89163 0.0
O163 O 0.49249 0.36664 0.88719 0.0
O164 O 0.4948 0.44206 0.84584 0.0
O165 O 0.4267 0.41192 0.82868 0.0
C166 C 0.34528 0.46077 0.88168 0.0
O167 O 0.48126 0.46941 0.91443 0.0
O168 O 0.44124 0.42203 0.94162 0.0
In169 In 0.05977 0.58678 0.88344 0.0
O170 O 0.14699 0.58846 0.88618 0.0
O171 O 0.11086 0.52971 0.87601 0.0
C172 C 0.03368 0.66835 0.89189 0.0
C173 C 0.02663 0.54932 0.93978 0.0
C174 C 0.02873 0.57822 0.81958 0.0
O175 O 0.07969 0.65637 0.89036 0.0
O176 O 0.00098 0.63921 0.89037 0.0
O177 O 0.00602 0.56 0.8435 0.0
O178 O 0.06678 0.60022 0.8278 0.0
C179 C 0.15203 0.54945 0.88058 0.0
O180 O 0.00805 0.5408 0.91131 0.0
O181 O 0.06071 0.57742 0.94 0.0
In182 In 0.93914 0.58476 0.61568 0.0
O183 O 0.98787 0.53483 0.5897 0.0
O184 O 0.94033 0.57439 0.55946 0.0
C185 C 0.96591 0.57862 0.68059 0.0
C186 C 0.84629 0.54932 0.61634 0.0
C187 C 0.97171 0.66457 0.6071 0.0
O188 O 0.99315 0.56309 0.6574 0.0
O189 O 0.92522 0.59616 0.67099 0.0
O190 O 0.92526 0.65594 0.61256 0.0
O191 O 0.00091 0.6331 0.60468 0.0
C192 C 0.97195 0.54439 0.56069 0.0
O193 O 0.85311 0.58652 0.60576 0.0
O194 O 0.88572 0.53053 0.62666 0.0
In195 In 0.56365 0.42025 0.61844 0.0
O196 O 0.50897 0.46481 0.59153 0.0
O197 O 0.56235 0.42989 0.56201 0.0
C198 C 0.53348 0.42855 0.68258 0.0
C199 C 0.65485 0.4593 0.61934 0.0
C200 C 0.53869 0.33858 0.60991 0.0
O201 O 0.51159 0.44805 0.65897 0.0
O202 O 0.5702 0.40518 0.67391 0.0
O203 O 0.58455 0.35044 0.61294 0.0
O204 O 0.50582 0.36765 0.61065 0.0
C205 C 0.52691 0.45679 0.56278 0.0
O206 O 0.6502 0.42136 0.61016 0.0
O207 O 0.61411 0.47698 0.6286 0.0
C208 C 0.28911 0.01501 0.09706 0.0
C209 C 0.29646 0.98 0.11874 0.0
C210 C 0.21224 0.99256 0.14381 0.0
C211 C 0.2025 0.024 0.11923 0.0
N212 N 0.22775 0.05833 0.06767 0.0
N213 N 0.26343 0.93251 0.16078 0.0
C214 C 0.23991 0.03355 0.09459 0.0
C215 C 0.25734 0.96766 0.14135 0.0
N216 N 0.32905 0.03093 0.07895 0.0
N217 N 0.17991 0.98808 0.17057 0.0
H218 H 0.29711 0.91493 0.1613 0.0
H219 H 0.23392 0.91921 0.17476 0.0
H220 H 0.14783 0.00706 0.17417 0.0
H221 H 0.1876 0.96862 0.19099 0.0
H222 H 0.32687 0.05914 0.06563 0.0
H223 H 0.36572 0.01821 0.07955 0.0
H224 H 0.252 0.06249 0.04717 0.0
H225 H 0.19151 0.07111 0.06388 0.0
C226 C 0.72182 0.98979 0.41226 0.0
C227 C 0.702 0.97327 0.38184 0.0
C228 C 0.77206 0.00568 0.35025 0.0
C229 C 0.79393 0.01947 0.38094 0.0
N230 N 0.79502 0.01877 0.44151 0.0
N231 N 0.71099 0.9598 0.3226 0.0
C232 C 0.77027 0.01 0.41209 0.0
C233 C 0.7279 0.97963 0.35099 0.0
N234 N 0.69348 0.98757 0.44108 0.0
N235 N 0.79246 0.0188 0.3204 0.0
H236 H 0.67862 0.94061 0.32224 0.0
H237 H 0.73118 0.95944 0.30007 0.0
H238 H 0.82463 0.0381 0.31888 0.0
H239 H 0.77522 0.01358 0.29722 0.0
H240 H 0.70311 0.0034 0.46309 0.0
H241 H 0.65808 0.97257 0.44234 0.0
H242 H 0.7824 0.00831 0.46486 0.0
H243 H 0.83058 0.03357 0.44246 0.0
C244 C 0.78259 0.0107 0.85436 0.0
C245 C 0.79673 0.98372 0.88129 0.0
C246 C 0.71456 0.99746 0.90868 0.0
C247 C 0.70303 0.02793 0.88374 0.0
N248 N 0.72857 0.06788 0.83505 0.0
N249 N 0.781 0.95912 0.93779 0.0
C250 C 0.73806 0.03614 0.8574 0.0
C251 C 0.76402 0.97908 0.90949 0.0
N252 N 0.80991 0.01021 0.82508 0.0
N253 N 0.67813 0.98554 0.93136 0.0
H254 H 0.81774 0.94676 0.94012 0.0
H255 H 0.76054 0.95874 0.96024 0.0
H256 H 0.64154 0.99847 0.93182 0.0
H257 H 0.68277 0.96027 0.94777 0.0
H258 H 0.79845 0.026 0.80344 0.0
H259 H 0.84124 0.9905 0.8211 0.0
H260 H 0.7554 0.07838 0.81765 0.0
H261 H 0.69527 0.08595 0.83553 0.0
C262 C 0.2285 0.99229 0.58585 0.0
C263 C 0.20445 0.98175 0.61666 0.0
C264 C 0.27022 0.02044 0.6478 0.0
C265 C 0.2965 0.02779 0.61723 0.0
N266 N 0.30578 0.01525 0.55778 0.0
N267 N 0.20501 0.98052 0.67719 0.0
C268 C 0.27703 0.01229 0.58637 0.0
C269 C 0.22592 0.99449 0.64775 0.0
N270 N 0.204 0.9848 0.55611 0.0
N271 N 0.28692 0.03921 0.6767 0.0
H272 H 0.17267 0.96133 0.67812 0.0
H273 H 0.22189 0.98496 0.70058 0.0
H274 H 0.31941 0.05823 0.67763 0.0
H275 H 0.26651 0.03885 0.69914 0.0
H276 H 0.217 0.99608 0.53309 0.0
H277 H 0.16825 0.9704 0.55462 0.0
H278 H 0.29636 1.0001 0.53542 0.0
H279 H 0.34133 0.03007 0.55701 0.0
C280 C 0.76399 0.47484 0.14571 0.0
C281 C 0.79647 0.4778 0.11737 0.0
C282 C 0.73482 0.52396 0.08914 0.0
C283 C 0.70413 0.52366 0.11855 0.0
N284 N 0.69332 0.50508 0.17688 0.0
N285 N 0.81695 0.50849 0.06366 0.0
C286 C 0.71964 0.50065 0.14739 0.0
C287 C 0.78314 0.50345 0.08955 0.0
N288 N 0.77538 0.44708 0.17088 0.0
N289 N 0.71674 0.54199 0.0603 0.0
H290 H 0.8514 0.49206 0.06212 0.0
H291 H 0.81242 0.53083 0.04475 0.0
H292 H 0.68158 0.55733 0.05883 0.0
H293 H 0.73459 0.53891 0.03706 0.0
H294 H 0.75042 0.43996 0.19044 0.0
H295 H 0.80836 0.42858 0.1709 0.0
H296 H 0.70565 0.49265 0.19966 0.0
H297 H 0.66144 0.52457 0.17938 0.0
C298 C 0.27338 0.50497 0.41375 0.0
C299 C 0.29408 0.51929 0.38287 0.0
C300 C 0.22483 0.48463 0.35203 0.0
C301 C 0.20177 0.47353 0.38303 0.0
N302 N 0.19926 0.47834 0.44347 0.0
N303 N 0.28736 0.52772 0.32291 0.0
C304 C 0.22479 0.48496 0.41396 0.0
C305 C 0.26926 0.51042 0.35204 0.0
N306 N 0.30097 0.50917 0.44272 0.0
N307 N 0.20511 0.46938 0.32264 0.0
H308 H 0.32001 0.54655 0.32198 0.0
H309 H 0.268 0.5263 0.30012 0.0
H310 H 0.17274 0.45023 0.32171 0.0
H311 H 0.22303 0.47263 0.29945 0.0
H312 H 0.29066 0.49503 0.46531 0.0
H313 H 0.3365 0.52402 0.44365 0.0
H314 H 0.21135 0.49037 0.46645 0.0
H315 H 0.16369 0.46361 0.44471 0.0
C316 C 0.21528 0.50082 0.85312 0.0
C317 C 0.20228 0.52786 0.88026 0.0
C318 C 0.28592 0.51488 0.90583 0.0
C319 C 0.29623 0.48395 0.88097 0.0
N320 N 0.26902 0.44406 0.8326 0.0
N321 N 0.22084 0.55338 0.93614 0.0
C322 C 0.2602 0.47567 0.85522 0.0
C323 C 0.23647 0.53314 0.90759 0.0
N324 N 0.18624 0.50082 0.82457 0.0
N325 N 0.32331 0.52712 0.92769 0.0
H326 H 0.18419 0.56564 0.93926 0.0
H327 H 0.2424 0.55408 0.95811 0.0
H328 H 0.35993 0.51426 0.92763 0.0
H329 H 0.31941 0.5527 0.94391 0.0
H330 H 0.19658 0.48496 0.8027 0.0
H331 H 0.15434 0.52013 0.82141 0.0
H332 H 0.24151 0.43331 0.81577 0.0
H333 H 0.30279 0.42659 0.83206 0.0
C334 C 0.72405 0.49964 0.64851 0.0
C335 C 0.70403 0.48221 0.61843 0.0
C336 C 0.77786 0.50864 0.5869 0.0
C337 C 0.79593 0.52848 0.61649 0.0
N338 N 0.78346 0.54873 0.6742 0.0
N339 N 0.70628 0.47662 0.55799 0.0
C340 C 0.76813 0.52574 0.64695 0.0
C341 C 0.72945 0.48836 0.58731 0.0
N342 N 0.70218 0.48975 0.6787 0.0
N343 N 0.80759 0.50826 0.55864 0.0
H344 H 0.6705 0.4622 0.55712 0.0
H345 H 0.72036 0.48442 0.53434 0.0
H346 H 0.8425 0.524 0.55704 0.0
H347 H 0.79945 0.48995 0.53761 0.0
H348 H 0.71804 0.49783 0.70179 0.0
H349 H 0.6703 0.47023 0.68092 0.0
H350 H 0.76192 0.55172 0.69605 0.0
H351 H 0.81593 0.5678 0.67398 0.0
C352 C 0.99536 0.03369 0.26583 0.0
C353 C 0.98002 0.07227 0.28095 0.0
C354 C 0.98522 0.10747 0.22652 0.0
C355 C 0.00714 0.07075 0.21243 0.0
N356 N 0.0386 0.99985 0.21906 0.0
N357 N 0.97224 0.14801 0.27703 0.0
C358 C 0.01371 0.03398 0.23215 0.0
C359 C 0.9781 0.1098 0.26165 0.0
N360 N 0.99045 0.99665 0.28303 0.0
N361 N 0.96969 0.13965 0.20617 0.0
H362 H 0.97056 0.15138 0.30303 0.0
H363 H 0.97519 0.17659 0.26428 0.0
H364 H 0.97214 0.13796 0.18006 0.0
H365 H 0.94929 0.16566 0.21492 0.0
H366 H 0.99621 0.96721 0.27208 0.0
H367 H 0.97611 0.99501 0.30742 0.0
H368 H 0.04967 0.97397 0.2334 0.0
H369 H 0.05138 0.9987 0.19426 0.0
C370 C 0.47866 0.88853 0.23614 0.0
C371 C 0.4824 0.92608 0.21683 0.0
C372 C 0.51726 0.96331 0.26575 0.0
C373 C 0.50917 0.92674 0.28545 0.0
N374 N 0.47067 0.85826 0.29162 0.0
N375 N 0.49538 0.00146 0.21507 0.0
C376 C 0.48644 0.89043 0.27129 0.0
C377 C 0.49911 0.96418 0.23207 0.0
N378 N 0.46998 0.8506 0.22083 0.0
N379 N 0.54344 0.99672 0.27888 0.0
H380 H 0.48083 0.00372 0.19078 0.0
H381 H 0.50209 0.03066 0.22616 0.0
H382 H 0.55642 0.99744 0.30364 0.0
H383 H 0.55558 0.02228 0.26455 0.0
H384 H 0.47256 0.82188 0.23338 0.0
H385 H 0.46541 0.8472 0.195 0.0
H386 H 0.44933 0.83274 0.28302 0.0
H387 H 0.47421 0.85929 0.3177 0.0
C388 C 0.01538 0.96749 0.7303 0.0
C389 C 0.01212 0.92971 0.71143 0.0
C390 C 0.98157 0.89163 0.7609 0.0
C391 C 0.98117 0.93007 0.77927 0.0
N392 N 0.98772 0.00595 0.77967 0.0
N393 N 0.98229 0.85812 0.70626 0.0
C394 C 0.99538 0.96845 0.76351 0.0
C395 C 0.99236 0.89242 0.72601 0.0
N396 N 0.03913 0.00199 0.71694 0.0
N397 N 0.97389 0.85405 0.77695 0.0
H398 H 0.98893 0.85772 0.68043 0.0
H399 H 0.9628 0.83159 0.71479 0.0
H400 H 0.96585 0.8516 0.80247 0.0
H401 H 0.97999 0.82491 0.76559 0.0
H402 H 0.04784 0.02886 0.73083 0.0
H403 H 0.05384 0.00255 0.69259 0.0
H404 H 0.99239 0.03514 0.76813 0.0
H405 H 0.97201 0.00806 0.80368 0.0
C406 C 0.51614 0.10917 0.72725 0.0
C407 C 0.49023 0.07388 0.71389 0.0
C408 C 0.49751 0.03763 0.76796 0.0
C409 C 0.51719 0.07522 0.78247 0.0
N410 N 0.53575 0.14971 0.77682 0.0
N411 N 0.45068 0.00606 0.72178 0.0
C412 C 0.5241 0.11181 0.76236 0.0
C413 C 0.47935 0.03844 0.73429 0.0
N414 N 0.53451 0.13966 0.70624 0.0
N415 N 0.49839 1.00076 0.78569 0.0
H416 H 0.43786 0.00521 0.69698 0.0
H417 H 0.43657 0.98164 0.73658 0.0
H418 H 0.51301 0.99846 0.80996 0.0
H419 H 0.48928 0.97165 0.77519 0.0
H420 H 0.55804 0.16414 0.71428 0.0
H421 H 0.53064 0.138 0.6802 0.0
H422 H 0.53555 0.17805 0.76361 0.0
H423 H 0.54043 0.15385 0.80257 0.0
C424 C 0.53687 0.60138 0.2425 0.0
C425 C 0.51902 0.57059 0.21934 0.0
C426 C 0.46844 0.53802 0.26428 0.0
C427 C 0.49023 0.56651 0.28762 0.0
N428 N 0.55545 0.61761 0.30052 0.0
N429 N 0.47778 0.50327 0.21051 0.0
C430 C 0.52802 0.59551 0.27726 0.0
C431 C 0.48745 0.53706 0.23081 0.0
N432 N 0.55897 0.6378 0.23138 0.0
N433 N 0.42955 0.51202 0.274 0.0
H434 H 0.49338 0.50004 0.18656 0.0
H435 H 0.4589 0.47629 0.21875 0.0
H436 H 0.41637 0.5105 0.29871 0.0
H437 H 0.40831 0.49407 0.25713 0.0
H438 H 0.56805 0.66282 0.24726 0.0
H439 H 0.56238 0.64537 0.20607 0.0
H440 H 0.5868 0.63626 0.29422 0.0
H441 H 0.55001 0.61415 0.32631 0.0
C442 C 0.01573 0.38836 0.26386 0.0
C443 C 0.01448 0.42604 0.28315 0.0
C444 C 0.98175 0.46471 0.23431 0.0
C445 C 0.98732 0.42779 0.21459 0.0
N446 N 0.02167 0.35776 0.20837 0.0
N447 N 0.00634 0.50187 0.28495 0.0
C448 C 0.00785 0.39055 0.22872 0.0
C449 C 0.00015 0.4648 0.26794 0.0
N450 N 0.0222 0.35014 0.27915 0.0
N451 N 0.95762 0.49922 0.22128 0.0
H452 H 0.02108 0.50346 0.30923 0.0
H453 H 0.00149 0.53133 0.27388 0.0
H454 H 0.94432 0.50045 0.19661 0.0
H455 H 0.94733 0.52533 0.23563 0.0
H456 H 0.01773 0.32154 0.26664 0.0
H457 H 0.02688 0.34661 0.30497 0.0
H458 H 0.04139 0.33134 0.21695 0.0
H459 H 0.0184 0.35903 0.18228 0.0
C460 C 0.52052 0.46743 0.73697 0.0
C461 C 0.51532 0.43011 0.71767 0.0
C462 C 0.48805 0.39141 0.7675 0.0
C463 C 0.48765 0.42952 0.78613 0.0
N464 N 0.49573 0.50532 0.78732 0.0
N465 N 0.48216 0.35957 0.71253 0.0
C466 C 0.50193 0.46805 0.77059 0.0
C467 C 0.49559 0.39293 0.73235 0.0
N468 N 0.54446 0.5018 0.72356 0.0
N469 N 0.48357 0.35354 0.78356 0.0
H470 H 0.4848 0.36047 0.68641 0.0
H471 H 0.46324 0.33305 0.72167 0.0
H472 H 0.48126 0.351 0.80962 0.0
H473 H 0.48818 0.32466 0.77145 0.0
H474 H 0.55437 0.52826 0.7376 0.0
H475 H 0.55801 0.50255 0.69892 0.0
H476 H 0.50043 0.53464 0.776 0.0
H477 H 0.48162 0.50714 0.81176 0.0
C478 C 0.01301 0.53949 0.76562 0.0
C479 C 0.00997 0.57713 0.78467 0.0
C480 C 0.98174 0.61613 0.73506 0.0
C481 C 0.98105 0.57788 0.71643 0.0
N482 N 0.98575 0.50186 0.71581 0.0
N483 N 0.98124 0.64905 0.78992 0.0
C484 C 0.99393 0.53913 0.73218 0.0
C485 C 0.99134 0.61482 0.77008 0.0
N486 N 0.03562 0.50451 0.77907 0.0
N487 N 0.97549 0.654 0.71918 0.0
H488 H 0.98697 0.64906 0.81584 0.0
H489 H 0.96252 0.67592 0.78131 0.0
H490 H 0.96849 0.65687 0.69356 0.0
H491 H 0.98188 0.68291 0.73083 0.0
H492 H 0.04424 0.47766 0.76512 0.0
H493 H 0.04946 0.5035 0.80362 0.0
H494 H 0.98946 0.47254 0.72728 0.0
H495 H 0.97047 0.50014 0.69167 0.0
C496 C 0.01363 0.23157 0.074 0.0
C497 C 0.02021 0.2102 0.10496 0.0
C498 C 0.98436 0.2704 0.13533 0.0
C499 C 0.98153 0.29325 0.10481 0.0
N500 N 0.99836 0.29811 0.04545 0.0
N501 N 0.02427 0.21287 0.16533 0.0
C502 C 0.99778 0.2746 0.07419 0.0
C503 C 0.00909 0.23065 0.13572 0.0
N504 N 0.02128 0.21041 0.04452 0.0
N505 N 0.96268 0.28629 0.16389 0.0
H506 H 0.04428 0.18446 0.16641 0.0
H507 H 0.02178 0.22824 0.18839 0.0
H508 H 0.94421 0.31538 0.16473 0.0
H509 H 0.95905 0.26902 0.186 0.0
H510 H 0.01189 0.22262 0.02107 0.0
H511 H 0.03433 0.17933 0.04366 0.0
H512 H 0.01493 0.28799 0.02309 0.0
H513 H 0.98463 0.32897 0.04448 0.0
C514 C 0.52613 0.78186 0.13244 0.0
C515 C 0.48828 0.7946 0.10887 0.0
C516 C 0.49049 0.72418 0.08315 0.0
C517 C 0.52428 0.71038 0.10877 0.0
N518 N 0.56917 0.72424 0.16053 0.0
N519 N 0.43191 0.77777 0.06286 0.0
C520 C 0.54122 0.73882 0.13393 0.0
C521 C 0.46955 0.76563 0.08462 0.0
N522 N 0.54768 0.81074 0.15365 0.0
N523 N 0.48033 0.69822 0.05654 0.0
H524 H 0.41845 0.80863 0.06124 0.0
H525 H 0.41202 0.75686 0.04755 0.0
H526 H 0.49604 0.66812 0.05421 0.0
H527 H 0.46026 0.70761 0.03527 0.0
H528 H 0.58018 0.80464 0.16792 0.0
H529 H 0.53533 0.84182 0.15576 0.0
H530 H 0.57659 0.74193 0.182 0.0
H531 H 0.58182 0.69325 0.16258 0.0
C532 C 0.49794 0.72383 0.36157 0.0
C533 C 0.47562 0.70689 0.39111 0.0
C534 C 0.49297 0.77266 0.42155 0.0
C535 C 0.51421 0.79 0.39178 0.0
N536 N 0.53349 0.78449 0.33269 0.0
N537 N 0.44582 0.7154 0.44787 0.0
C538 C 0.51613 0.76611 0.36161 0.0
C539 C 0.47125 0.73146 0.42072 0.0
N540 N 0.50159 0.69925 0.33344 0.0
N541 N 0.4956 0.79506 0.45086 0.0
H542 H 0.43075 0.68497 0.44829 0.0
H543 H 0.43661 0.73279 0.46917 0.0
H544 H 0.51171 0.82507 0.45233 0.0
H545 H 0.48537 0.78311 0.47422 0.0
H546 H 0.52291 0.70705 0.3123 0.0
H547 H 0.48408 0.66985 0.33147 0.0
H548 H 0.53062 0.77098 0.30898 0.0
H549 H 0.54877 0.81477 0.33184 0.0
C550 C 0.96848 0.28041 0.36782 0.0
C551 C 0.00659 0.29289 0.39129 0.0
C552 C 0.00512 0.22215 0.41631 0.0
C553 C 0.97135 0.20855 0.39061 0.0
N554 N 0.92549 0.22311 0.3393 0.0
N555 N 0.06363 0.27557 0.43682 0.0
C556 C 0.95376 0.23733 0.36589 0.0
C557 C 0.02579 0.26365 0.41514 0.0
N558 N 0.94635 0.30961 0.34714 0.0
N559 N 0.01544 0.19595 0.44273 0.0
H560 H 0.07695 0.30645 0.43866 0.0
H561 H 0.08382 0.25448 0.45181 0.0
H562 H -0.00039 0.16592 0.44496 0.0
H563 H 0.03562 0.20516 0.46401 0.0
H564 H 0.91375 0.3036 0.33295 0.0
H565 H 0.95828 0.34083 0.34548 0.0
H566 H 0.91763 0.24116 0.3181 0.0
H567 H 0.913 0.1921 0.33692 0.0
C568 C 0.98801 0.72951 0.91868 0.0
C569 C 0.01879 0.71349 0.89224 0.0
C570 C 0.02124 0.78352 0.86621 0.0
C571 C 0.98626 0.79858 0.8908 0.0
N572 N 0.93307 0.78558 0.93919 0.0
N573 N 0.05684 0.72298 0.83752 0.0
C574 C 0.96843 0.77137 0.91658 0.0
C575 C 0.03361 0.73992 0.86521 0.0
N576 N 0.97952 0.70533 0.94653 0.0
N577 N 0.04283 0.8107 0.84365 0.0
H578 H 0.06618 0.69116 0.83536 0.0
H579 H 0.06258 0.73957 0.81528 0.0
H580 H 0.03316 0.84244 0.84187 0.0
H581 H 0.07328 0.80246 0.82812 0.0
H582 H 0.9618 0.71639 0.96821 0.0
H583 H 0.99438 0.67502 0.94917 0.0
H584 H 0.91387 0.766 0.95594 0.0
H585 H 0.92068 0.81681 0.94011 0.0
C586 C 0.45633 0.26565 0.86573 0.0
C587 C 0.47271 0.29297 0.89187 0.0
C588 C 0.52374 0.23568 0.91673 0.0
C589 C 0.50837 0.20871 0.89011 0.0
N590 N 0.45471 0.19534 0.84189 0.0
N591 N 0.52242 0.30563 0.94178 0.0
C592 C 0.47294 0.2229 0.86547 0.0
C593 C 0.50653 0.27836 0.91727 0.0
N594 N 0.42776 0.28137 0.83979 0.0
N595 N 0.55219 0.21958 0.94258 0.0
H596 H 0.50705 0.33573 0.94485 0.0
H597 H 0.55181 0.29935 0.9586 0.0
H598 H 0.56442 0.18832 0.94346 0.0
H599 H 0.5611 0.23592 0.96442 0.0
H600 H 0.42048 0.26515 0.81761 0.0
H601 H 0.41382 0.31211 0.83909 0.0
H602 H 0.42367 0.20162 0.82636 0.0
H603 H 0.46863 0.16486 0.83873 0.0
C604 C 0.49472 0.23164 0.57706 0.0
C605 C 0.48385 0.21102 0.60785 0.0
C606 C 0.51774 0.27123 0.63913 0.0
C607 C 0.52363 0.29367 0.60864 0.0
N608 N 0.51369 0.29757 0.5486 0.0
N609 N 0.47539 0.21408 0.66812 0.0
C610 C 0.51092 0.27454 0.57753 0.0
C611 C 0.4925 0.23168 0.63889 0.0
N612 N 0.4902 0.21004 0.54751 0.0
N613 N 0.53742 0.2872 0.66826 0.0
H614 H 0.45627 0.18529 0.66894 0.0
H615 H 0.47594 0.22973 0.69111 0.0
H616 H 0.55686 0.31585 0.66932 0.0
H617 H 0.53876 0.27031 0.69066 0.0
H618 H 0.50272 0.22168 0.52451 0.0
H619 H 0.47663 0.17915 0.54628 0.0
H620 H 0.49967 0.28711 0.5256 0.0
H621 H 0.52758 0.32839 0.54796 0.0
C622 C 0.99564 0.77731 0.57766 0.0
C623 C 0.02505 0.79309 0.60483 0.0
C624 C 0.02558 0.72297 0.63069 0.0
C625 C 0.99124 0.70842 0.60558 0.0
N626 N 0.94039 0.72209 0.55626 0.0
N627 N 0.06009 0.78308 0.66036 0.0
C628 C 0.9751 0.7358 0.57946 0.0
C629 C 0.03826 0.76645 0.63209 0.0
N630 N 0.98941 0.80133 0.54946 0.0
N631 N 0.04624 0.69541 0.65333 0.0
H632 H 0.06935 0.81485 0.66292 0.0
H633 H 0.06459 0.76624 0.6826 0.0
H634 H 0.03663 0.66362 0.65452 0.0
H635 H 0.07608 0.7034 0.66942 0.0
H636 H 0.97269 0.79029 0.52744 0.0
H637 H 0.00541 0.83124 0.5469 0.0
H638 H 0.9224 0.74196 0.53915 0.0
H639 H 0.92729 0.69108 0.55522 0.0
C640 C 0.97424 0.02807 0.96987 0.0
C641 C 0.98812 0.98509 0.96564 0.0
C642 C 0.02717 0.98393 0.02165 0.0
C643 C 0.01311 0.02687 0.02589 0.0
N644 N 0.97932 0.09174 0.00363 0.0
N645 N 0.02435 0.92071 0.9872 0.0
C646 C 0.98847 0.04953 -0.00018 0.0
C647 C 0.01366 0.96262 0.99149 0.0
N648 N 0.9446 0.0475 0.94615 0.0
N649 N 0.05602 0.96439 0.04574 0.0
H650 H 0.01871 0.90487 0.96455 0.0
H651 H 0.03703 0.90084 0.0062 0.0
H652 H 0.06676 0.97893 0.06812 0.0
H653 H 0.07227 0.93467 0.04311 0.0
H654 H 0.92812 0.07709 0.94919 0.0
H655 H 0.93321 0.03291 0.92393 0.0
H656 H 0.96746 0.11148 0.9843 0.0
H657 H 0.98616 0.10792 0.02599 0.0
C658 C 0.5485 0.01373 0.99512 0.0
C659 C 0.5111 0.02453 0.97065 0.0
C660 C 0.44423 0.99253 0.00567 0.0
C661 C 0.48234 0.97889 0.02871 0.0
N662 N 0.57145 0.96793 0.04132 0.0
N663 N 0.42376 0.02204 0.95119 0.0
C664 C 0.53465 0.98733 0.02243 0.0
C665 C 0.45915 0.01298 0.97541 0.0
N666 N 0.5974 0.02856 0.99251 0.0
N667 N 0.39359 0.98798 0.01341 0.0
H668 H 0.43136 0.04121 0.93054 0.0
H669 H 0.38723 0.00908 0.95071 0.0
H670 H 0.38046 0.97251 0.03475 0.0
H671 H 0.36415 0.00224 -0.0 0.0
H672 H 0.62408 0.02616 0.01182 0.0
H673 H 0.6108 0.04602 0.97225 0.0
H674 H 0.61025 0.96893 0.03555 0.0
H675 H 0.56308 0.94695 0.0607 0.0
C676 C 0.51545 0.04334 0.50366 0.0
C677 C 0.48707 0.02294 0.52929 0.0
C678 C 0.48243 0.95824 0.49559 0.0
C679 C 0.51093 0.97861 0.47 0.0
N680 N 0.56113 0.03755 0.45074 0.0
N681 N 0.4368 0.96402 0.54853 0.0
C682 C 0.52884 0.02054 0.47416 0.0
C683 C 0.4691 0.98103 0.52511 0.0
N684 N 0.5288 0.08479 0.50742 0.0
N685 N 0.46893 0.91684 0.49177 0.0
H686 H 0.42612 0.97968 0.57047 0.0
H687 H 0.41761 0.93559 0.54552 0.0
H688 H 0.4752 0.89998 0.46966 0.0
H689 H 0.45373 0.8983 0.51084 0.0
H690 H 0.54393 0.10331 0.48832 0.0
H691 H 0.5224 0.10172 0.52949 0.0
H692 H 0.58033 0.06598 0.45376 0.0
H693 H 0.57178 0.02191 0.42879 0.0
C694 C 0.03345 0.02035 0.52003 0.0
C695 C 0.01435 0.97923 0.52628 0.0
C696 C 0.96582 0.98087 0.47375 0.0
C697 C 0.98747 0.02083 0.46647 0.0
N698 N 0.04624 0.07679 0.47969 0.0
N699 N 0.9674 0.91794 0.5083 0.0
C700 C 0.02238 0.04019 0.48887 0.0
C701 C 0.9821 0.95872 0.50283 0.0
N702 N 0.06188 0.04042 0.54402 0.0
N703 N 0.928 0.96503 0.45366 0.0
H704 H 0.97617 0.90158 0.53026 0.0
H705 H 0.94913 0.89942 0.49038 0.0
H706 H 0.91523 0.98017 0.432 0.0
H707 H 0.9065 0.93849 0.45964 0.0
H708 H 0.07225 0.07202 0.54273 0.0
H709 H 0.07272 0.02616 0.56651 0.0
H710 H 0.07592 0.0905 0.49319 0.0
H711 H 0.03899 0.09205 0.45699 0.0
C712 C 0.45957 0.51692 0.02422 0.0
C713 C 0.5117 0.51884 0.0336 0.0
C714 C 0.53578 0.47899 0.98319 0.0
C715 C 0.4833 0.47503 0.97476 0.0
N716 N 0.39448 0.48294 0.99074 0.0
N717 N 0.59823 0.49413 0.02648 0.0
C718 C 0.44493 0.49152 0.99645 0.0
C719 C 0.54959 0.49791 0.01425 0.0
N720 N 0.42432 0.54115 0.04072 0.0
N721 N 0.57248 0.4643 0.9617 0.0
H722 H 0.60933 0.50613 0.04973 0.0
H723 H 0.62638 0.47566 0.01528 0.0
H724 H 0.56415 0.44689 0.94017 0.0
H725 H 0.61118 0.47117 0.96428 0.0
H726 H 0.38682 0.54502 0.03254 0.0
H727 H 0.43357 0.56059 0.06094 0.0
H728 H 0.36563 0.48998 0.00786 0.0
H729 H 0.38139 0.46582 0.97019 0.0
C730 C 0.014 0.46055 0.00338 0.0
C731 C 0.98882 0.48191 0.02996 0.0
C732 C 0.98687 0.54729 0.99697 0.0
C733 C 0.01231 0.52593 0.97047 0.0
N734 N 0.05745 0.46496 0.94965 0.0
N735 N 0.94653 0.54361 0.05191 0.0
C736 C 0.02749 0.48315 0.97385 0.0
C737 C 0.97447 0.52495 0.02689 0.0
N738 N 0.02435 0.41842 0.00631 0.0
N739 N 0.97504 0.58908 0.99343 0.0
H740 H 0.9371 0.52845 0.07428 0.0
H741 H 0.93021 0.57341 0.05031 0.0
H742 H 0.98015 0.60543 0.97099 0.0
H743 H 0.96169 0.60827 0.01268 0.0
H744 H 0.03643 0.39946 0.98652 0.0
H745 H 0.01855 0.40155 0.02845 0.0
H746 H 0.07479 0.43562 0.95206 0.0
H747 H 0.0683 0.48041 0.92768 0.0
C748 C 0.96874 0.47976 0.52478 0.0
C749 C 0.9875 0.52121 0.53017 0.0
C750 C 0.03097 0.52015 0.47554 0.0
C751 C 0.01178 0.4789 0.46998 0.0
N752 N 0.96724 0.41716 0.48956 0.0
N753 N 0.03185 0.58298 0.51043 0.0
C754 C 0.98204 0.45803 0.49472 0.0
C755 C 0.01732 0.54201 0.50544 0.0
N756 N 0.9358 0.46226 0.54757 0.0
N757 N 0.06471 0.53734 0.45311 0.0
H758 H 0.02561 0.59909 0.53289 0.0
H759 H 0.04791 0.60195 0.49193 0.0
H760 H 0.0757 0.52233 0.43095 0.0
H761 H 0.0848 0.56513 0.45722 0.0
H762 H 0.916 0.43428 0.54374 0.0
H763 H 0.92545 0.47703 0.56995 0.0
H764 H 0.9509 0.39812 0.50789 0.0
H765 H 0.97337 0.40118 0.46702 0.0
C766 C 0.48278 0.45726 0.50715 0.0
C767 C 0.51024 0.47934 0.53231 0.0
C768 C 0.51064 0.5434 0.49777 0.0
C769 C 0.48334 0.52124 0.47256 0.0
N770 N 0.43591 0.46012 0.45459 0.0
N771 N 0.55642 0.54084 0.5508 0.0
C772 C 0.46771 0.47883 0.47746 0.0
C773 C 0.52537 0.52191 0.5276 0.0
N774 N 0.47198 0.41541 0.51152 0.0
N775 N 0.52184 0.58515 0.49325 0.0
H776 H 0.568 0.52618 0.57295 0.0
H777 H 0.5736 0.57009 0.54752 0.0
H778 H 0.51467 0.6012 0.47089 0.0
H779 H 0.53608 0.60476 0.51196 0.0
H780 H 0.45788 0.39588 0.49271 0.0
H781 H 0.47954 0.39928 0.53379 0.0
H782 H 0.41839 0.43106 0.45818 0.0
H783 H 0.42375 0.47494 0.43264 0.0
loop_
_geom_bond_atom_site_label_1
_geom_bond_atom_site_label_2
_geom_bond_distance
_geom_bond_site_symmetry_2
_ccdc_geom_bond_type
In0 O1 2.294 . S
In0 O2 2.326 . S
In0 O6 2.266 . S
In0 O7 2.326 1_455 S
In0 O8 2.266 . S
In0 O9 2.326 . S
In0 O11 2.294 . S
In0 O12 2.326 . S
O1 In0 2.294 . S
O1 C10 1.240 . S
O2 In0 2.326 . S
O2 C10 1.252 . S
C3 O6 1.252 . S
C3 O7 1.260 1_455 S
C4 O11 1.240 . S
C4 O12 1.252 . S
C5 O8 1.252 . S
C5 O9 1.260 . S
O6 In0 2.266 . S
O6 C3 1.252 . S
O7 In0 2.326 1_655 S
O7 C3 1.260 1_655 S
O8 In0 2.266 . S
O8 C5 1.252 . S
O9 In0 2.326 . S
O9 C5 1.260 . S
C10 O1 1.240 . S
C10 O2 1.252 . S
O11 In0 2.294 . S
O11 C4 1.240 . S
O12 In0 2.326 . S
O12 C4 1.252 . S
In13 O14 2.294 . S
In13 O15 2.326 . S
In13 O19 2.266 . S
In13 O20 2.326 . S
In13 O21 2.266 . S
In13 O22 2.326 . S
In13 O24 2.294 . S
In13 O25 2.326 . S
O14 In13 2.294 . S
O14 C23 1.240 . S
O15 In13 2.326 . S
O15 C23 1.252 . S
C16 O19 1.252 . S
C16 O20 1.260 . S
C17 O24 1.240 . S
C17 O25 1.252 . S
C18 O21 1.252 . S
C18 O22 1.260 . S
O19 In13 2.266 . S
O19 C16 1.252 . S
O20 In13 2.326 . S
O20 C16 1.260 . S
O21 In13 2.266 . S
O21 C18 1.252 . S
O22 In13 2.326 . S
O22 C18 1.260 . S
C23 O14 1.240 . S
C23 O15 1.252 . S
O24 In13 2.294 . S
O24 C17 1.240 . S
O25 In13 2.326 . S
O25 C17 1.252 . S
In26 O27 2.294 . S
In26 O28 2.326 . S
In26 O32 2.266 . S
In26 O33 2.326 . S
In26 O34 2.266 . S
In26 O35 2.326 . S
In26 O37 2.294 . S
In26 O38 2.326 . S
O27 In26 2.294 . S
O27 C36 1.240 . S
O28 In26 2.326 . S
O28 C36 1.252 . S
C29 O32 1.252 . S
C29 O33 1.260 . S
C30 O37 1.240 . S
C30 O38 1.252 . S
C31 O34 1.252 . S
C31 O35 1.260 . S
O32 In26 2.266 . S
O32 C29 1.252 . S
O33 In26 2.326 . S
O33 C29 1.260 . S
O34 In26 2.266 . S
O34 C31 1.252 . S
O35 In26 2.326 . S
O35 C31 1.260 . S
C36 O27 1.240 . S
C36 O28 1.252 . S
O37 In26 2.294 . S
O37 C30 1.240 . S
O38 In26 2.326 . S
O38 C30 1.252 . S
In39 O40 2.294 . S
In39 O41 2.326 . S
In39 O45 2.266 . S
In39 O46 2.326 . S
In39 O47 2.266 . S
In39 O48 2.326 1_655 S
In39 O50 2.294 . S
In39 O51 2.326 . S
O40 In39 2.294 . S
O40 C49 1.240 . S
O41 In39 2.326 . S
O41 C49 1.252 . S
C42 O45 1.252 . S
C42 O46 1.260 . S
C43 O50 1.240 . S
C43 O51 1.252 . S
C44 O47 1.252 . S
C44 O48 1.260 1_655 S
O45 In39 2.266 . S
O45 C42 1.252 . S
O46 In39 2.326 . S
O46 C42 1.260 . S
O47 In39 2.266 . S
O47 C44 1.252 . S
O48 In39 2.326 1_455 S
O48 C44 1.260 1_455 S
C49 O40 1.240 . S
C49 O41 1.252 . S
O50 In39 2.294 . S
O50 C43 1.240 . S
O51 In39 2.326 . S
O51 C43 1.252 . S
In52 O53 2.294 . S
In52 O54 2.326 . S
In52 O58 2.266 . S
In52 O59 2.326 . S
In52 O60 2.266 . S
In52 O61 2.326 1_655 S
In52 O63 2.294 . S
In52 O64 2.326 . S
O53 In52 2.294 . S
O53 C62 1.240 . S
O54 In52 2.326 . S
O54 C62 1.252 . S
C55 O58 1.252 . S
C55 O59 1.260 . S
C56 O63 1.240 . S
C56 O64 1.252 . S
C57 O60 1.252 . S
C57 O61 1.260 1_655 S
O58 In52 2.266 . S
O58 C55 1.252 . S
O59 In52 2.326 . S
O59 C55 1.260 . S
O60 In52 2.266 . S
O60 C57 1.252 . S
O61 In52 2.326 1_455 S
O61 C57 1.260 1_455 S
C62 O53 1.240 . S
C62 O54 1.252 . S
O63 In52 2.294 . S
O63 C56 1.240 . S
O64 In52 2.326 . S
O64 C56 1.252 . S
In65 O66 2.294 . S
In65 O67 2.326 . S
In65 O71 2.266 . S
In65 O72 2.326 . S
In65 O73 2.266 . S
In65 O74 2.326 . S
In65 O76 2.294 . S
In65 O77 2.326 . S
O66 In65 2.294 . S
O66 C75 1.240 . S
O67 In65 2.326 . S
O67 C75 1.252 . S
C68 O71 1.252 . S
C68 O72 1.260 . S
C69 O76 1.240 . S
C69 O77 1.252 . S
C70 O73 1.252 . S
C70 O74 1.260 . S
O71 In65 2.266 . S
O71 C68 1.252 . S
O72 In65 2.326 . S
O72 C68 1.260 . S
O73 In65 2.266 . S
O73 C70 1.252 . S
O74 In65 2.326 . S
O74 C70 1.260 . S
C75 O66 1.240 . S
C75 O67 1.252 . S
O76 In65 2.294 . S
O76 C69 1.240 . S
O77 In65 2.326 . S
O77 C69 1.252 . S
In78 O79 2.294 . S
In78 O80 2.326 . S
In78 O84 2.266 . S
In78 O85 2.326 . S
In78 O86 2.266 . S
In78 O87 2.326 . S
In78 O89 2.294 . S
In78 O90 2.326 . S
O79 In78 2.294 . S
O79 C88 1.240 . S
O80 In78 2.326 . S
O80 C88 1.252 . S
C81 O84 1.252 . S
C81 O85 1.260 . S
C82 O89 1.240 . S
C82 O90 1.252 . S
C83 O86 1.252 . S
C83 O87 1.260 . S
O84 In78 2.266 . S
O84 C81 1.252 . S
O85 In78 2.326 . S
O85 C81 1.260 . S
O86 In78 2.266 . S
O86 C83 1.252 . S
O87 In78 2.326 . S
O87 C83 1.260 . S
C88 O79 1.240 . S
C88 O80 1.252 . S
O89 In78 2.294 . S
O89 C82 1.240 . S
O90 In78 2.326 . S
O90 C82 1.252 . S
In91 O92 2.294 . S
In91 O93 2.326 . S
In91 O97 2.266 . S
In91 O98 2.326 . S
In91 O99 2.266 . S
In91 O100 2.326 1_455 S
In91 O102 2.294 . S
In91 O103 2.326 . S
O92 In91 2.294 . S
O92 C101 1.240 . S
O93 In91 2.326 . S
O93 C101 1.252 . S
C94 O97 1.252 . S
C94 O98 1.260 . S
C95 O102 1.240 . S
C95 O103 1.252 . S
C96 O99 1.252 . S
C96 O100 1.260 1_455 S
O97 In91 2.266 . S
O97 C94 1.252 . S
O98 In91 2.326 . S
O98 C94 1.260 . S
O99 In91 2.266 . S
O99 C96 1.252 . S
O100 In91 2.326 1_655 S
O100 C96 1.260 1_655 S
C101 O92 1.240 . S
C101 O93 1.252 . S
O102 In91 2.294 . S
O102 C95 1.240 . S
O103 In91 2.326 . S
O103 C95 1.252 . S
In104 O105 2.294 . S
In104 O106 2.326 . S
In104 O110 2.266 . S
In104 O111 2.326 . S
In104 O112 2.266 . S
In104 O113 2.326 . S
In104 O115 2.294 . S
In104 O116 2.326 . S
O105 In104 2.294 . S
O105 C114 1.240 . S
O106 In104 2.326 . S
O106 C114 1.252 . S
C107 O110 1.252 . S
C107 O111 1.260 . S
C108 O115 1.240 . S
C108 O116 1.252 . S
C109 O112 1.252 . S
C109 O113 1.260 . S
O110 In104 2.266 . S
O110 C107 1.252 . S
O111 In104 2.326 . S
O111 C107 1.260 . S
O112 In104 2.266 . S
O112 C109 1.252 . S
O113 In104 2.326 . S
O113 C109 1.260 . S
C114 O105 1.240 . S
C114 O106 1.252 . S
O115 In104 2.294 . S
O115 C108 1.240 . S
O116 In104 2.326 . S
O116 C108 1.252 . S
In117 O118 2.294 . S
In117 O119 2.326 . S
In117 O123 2.266 . S
In117 O124 2.326 1_655 S
In117 O125 2.266 . S
In117 O126 2.326 . S
In117 O128 2.294 . S
In117 O129 2.326 . S
O118 In117 2.294 . S
O118 C127 1.240 . S
O119 In117 2.326 . S
O119 C127 1.252 . S
C120 O123 1.252 . S
C120 O124 1.260 1_655 S
C121 O128 1.240 . S
C121 O129 1.252 . S
C122 O125 1.252 . S
C122 O126 1.260 . S
O123 In117 2.266 . S
O123 C120 1.252 . S
O124 In117 2.326 1_455 S
O124 C120 1.260 1_455 S
O125 In117 2.266 . S
O125 C122 1.252 . S
O126 In117 2.326 . S
O126 C122 1.260 . S
C127 O118 1.240 . S
C127 O119 1.252 . S
O128 In117 2.294 . S
O128 C121 1.240 . S
O129 In117 2.326 . S
O129 C121 1.252 . S
In130 O131 2.294 . S
In130 O132 2.326 . S
In130 O136 2.266 . S
In130 O137 2.326 . S
In130 O138 2.266 . S
In130 O139 2.326 1_455 S
In130 O141 2.294 . S
In130 O142 2.326 . S
O131 In130 2.294 . S
O131 C140 1.240 . S
O132 In130 2.326 . S
O132 C140 1.252 . S
C133 O136 1.252 . S
C133 O137 1.260 . S
C134 O141 1.240 . S
C134 O142 1.252 . S
C135 O138 1.252 . S
C135 O139 1.260 1_455 S
O136 In130 2.266 . S
O136 C133 1.252 . S
O137 In130 2.326 . S
O137 C133 1.260 . S
O138 In130 2.266 . S
O138 C135 1.252 . S
O139 In130 2.326 1_655 S
O139 C135 1.260 1_655 S
C140 O131 1.240 . S
C140 O132 1.252 . S
O141 In130 2.294 . S
O141 C134 1.240 . S
O142 In130 2.326 . S
O142 C134 1.252 . S
In143 O144 2.294 . S
In143 O145 2.326 . S
In143 O149 2.266 . S
In143 O150 2.326 . S
In143 O151 2.266 . S
In143 O152 2.326 . S
In143 O154 2.294 . S
In143 O155 2.326 . S
O144 In143 2.294 . S
O144 C153 1.240 . S
O145 In143 2.326 . S
O145 C153 1.252 . S
C146 O149 1.252 . S
C146 O150 1.260 . S
C147 O154 1.240 . S
C147 O155 1.252 . S
C148 O151 1.252 . S
C148 O152 1.260 . S
O149 In143 2.266 . S
O149 C146 1.252 . S
O150 In143 2.326 . S
O150 C146 1.260 . S
O151 In143 2.266 . S
O151 C148 1.252 . S
O152 In143 2.326 . S
O152 C148 1.260 . S
C153 O144 1.240 . S
C153 O145 1.252 . S
O154 In143 2.294 . S
O154 C147 1.240 . S
O155 In143 2.326 . S
O155 C147 1.252 . S
In156 O157 2.294 . S
In156 O158 2.326 . S
In156 O162 2.266 . S
In156 O163 2.326 . S
In156 O164 2.266 . S
In156 O165 2.326 . S
In156 O167 2.294 . S
In156 O168 2.326 . S
O157 In156 2.294 . S
O157 C166 1.240 . S
O158 In156 2.326 . S
O158 C166 1.252 . S
C159 O162 1.252 . S
C159 O163 1.260 . S
C160 O167 1.240 . S
C160 O168 1.252 . S
C161 O164 1.252 . S
C161 O165 1.260 . S
O162 In156 2.266 . S
O162 C159 1.252 . S
O163 In156 2.326 . S
O163 C159 1.260 . S
O164 In156 2.266 . S
O164 C161 1.252 . S
O165 In156 2.326 . S
O165 C161 1.260 . S
C166 O157 1.240 . S
C166 O158 1.252 . S
O167 In156 2.294 . S
O167 C160 1.240 . S
O168 In156 2.326 . S
O168 C160 1.252 . S
In169 O170 2.294 . S
In169 O171 2.326 . S
In169 O175 2.266 . S
In169 O176 2.326 1_455 S
In169 O177 2.266 . S
In169 O178 2.326 . S
In169 O180 2.294 . S
In169 O181 2.326 . S
O170 In169 2.294 . S
O170 C179 1.240 . S
O171 In169 2.326 . S
O171 C179 1.252 . S
C172 O175 1.252 . S
C172 O176 1.260 1_455 S
C173 O180 1.240 . S
C173 O181 1.252 . S
C174 O177 1.252 . S
C174 O178 1.260 . S
O175 In169 2.266 . S
O175 C172 1.252 . S
O176 In169 2.326 1_655 S
O176 C172 1.260 1_655 S
O177 In169 2.266 . S
O177 C174 1.252 . S
O178 In169 2.326 . S
O178 C174 1.260 . S
C179 O170 1.240 . S
C179 O171 1.252 . S
O180 In169 2.294 . S
O180 C173 1.240 . S
O181 In169 2.326 . S
O181 C173 1.252 . S
In182 O183 2.294 . S
In182 O184 2.326 . S
In182 O188 2.266 . S
In182 O189 2.326 . S
In182 O190 2.266 . S
In182 O191 2.326 1_655 S
In182 O193 2.294 . S
In182 O194 2.326 . S
O183 In182 2.294 . S
O183 C192 1.240 . S
O184 In182 2.326 . S
O184 C192 1.252 . S
C185 O188 1.252 . S
C185 O189 1.260 . S
C186 O193 1.240 . S
C186 O194 1.252 . S
C187 O190 1.252 . S
C187 O191 1.260 1_655 S
O188 In182 2.266 . S
O188 C185 1.252 . S
O189 In182 2.326 . S
O189 C185 1.260 . S
O190 In182 2.266 . S
O190 C187 1.252 . S
O191 In182 2.326 1_455 S
O191 C187 1.260 1_455 S
C192 O183 1.240 . S
C192 O184 1.252 . S
O193 In182 2.294 . S
O193 C186 1.240 . S
O194 In182 2.326 . S
O194 C186 1.252 . S
In195 O196 2.294 . S
In195 O197 2.326 . S
In195 O201 2.266 . S
In195 O202 2.326 . S
In195 O203 2.266 . S
In195 O204 2.326 . S
In195 O206 2.294 . S
In195 O207 2.326 . S
O196 In195 2.294 . S
O196 C205 1.240 . S
O197 In195 2.326 . S
O197 C205 1.252 . S
C198 O201 1.252 . S
C198 O202 1.260 . S
C199 O206 1.240 . S
C199 O207 1.252 . S
C200 O203 1.252 . S
C200 O204 1.260 . S
O201 In195 2.266 . S
O201 C198 1.252 . S
O202 In195 2.326 . S
O202 C198 1.260 . S
O203 In195 2.266 . S
O203 C200 1.252 . S
O204 In195 2.326 . S
O204 C200 1.260 . S
C205 O196 1.240 . S
C205 O197 1.252 . S
O206 In195 2.294 . S
O206 C199 1.240 . S
O207 In195 2.326 . S
O207 C199 1.252 . S
C208 C209 1.363 1_545 S
C208 C214 1.379 . S
C208 N216 1.356 . S
C209 C208 1.363 1_565 S
C209 C215 1.363 . S
C210 C211 1.363 1_565 S
C210 C215 1.379 . S
C210 N217 1.356 . S
C211 C210 1.363 1_545 S
C211 C214 1.363 . S
N212 C214 1.356 . S
N212 H224 0.984 . S
N212 H225 0.985 . S
N213 C215 1.356 . S
N213 H218 0.984 . S
N213 H219 0.985 . S
C214 C208 1.379 . S
C214 C211 1.363 . S
C214 N212 1.356 . S
C215 C209 1.363 . S
C215 C210 1.379 . S
C215 N213 1.356 . S
N216 C208 1.356 . S
N216 H222 0.984 . S
N216 H223 0.984 1_545 S
N217 C210 1.356 . S
N217 H220 0.984 1_565 S
N217 H221 0.985 . S
H218 N213 0.984 . S
H219 N213 0.985 . S
H220 N217 0.984 1_545 S
H221 N217 0.985 . S
H222 N216 0.984 . S
H223 N216 0.984 1_565 S
H224 N212 0.984 . S
H225 N212 0.985 . S
C226 C227 1.363 1_545 S
C226 C232 1.379 . S
C226 N234 1.356 . S
C227 C226 1.363 1_565 S
C227 C233 1.363 . S
C228 C229 1.363 1_565 S
C228 C233 1.379 . S
C228 N235 1.356 . S
C229 C228 1.363 1_545 S
C229 C232 1.363 . S
N230 C232 1.356 . S
N230 H242 0.984 . S
N230 H243 0.985 . S
N231 C233 1.356 . S
N231 H236 0.984 . S
N231 H237 0.985 . S
C232 C226 1.379 . S
C232 C229 1.363 . S
C232 N230 1.356 . S
C233 C227 1.363 . S
C233 C228 1.379 . S
C233 N231 1.356 . S
N234 C226 1.356 . S
N234 H240 0.984 . S
N234 H241 0.984 1_545 S
N235 C228 1.356 . S
N235 H238 0.984 1_565 S
N235 H239 0.985 . S
H236 N231 0.984 . S
H237 N231 0.985 . S
H238 N235 0.984 1_545 S
H239 N235 0.985 . S
H240 N234 0.984 . S
H241 N234 0.984 1_565 S
H242 N230 0.984 . S
H243 N230 0.985 . S
C244 C245 1.363 1_545 S
C244 C250 1.379 . S
C244 N252 1.356 . S
C245 C244 1.363 1_565 S
C245 C251 1.363 . S
C246 C247 1.363 1_565 S
C246 C251 1.379 . S
C246 N253 1.356 . S
C247 C246 1.363 1_545 S
C247 C250 1.363 . S
N248 C250 1.356 . S
N248 H260 0.984 . S
N248 H261 0.985 . S
N249 C251 1.356 . S
N249 H254 0.984 . S
N249 H255 0.985 . S
C250 C244 1.379 . S
C250 C247 1.363 . S
C250 N248 1.356 . S
C251 C245 1.363 . S
C251 C246 1.379 . S
C251 N249 1.356 . S
N252 C244 1.356 . S
N252 H258 0.984 . S
N252 H259 0.984 1_545 S
N253 C246 1.356 . S
N253 H256 0.984 1_565 S
N253 H257 0.985 . S
H254 N249 0.984 . S
H255 N249 0.985 . S
H256 N253 0.984 1_545 S
H257 N253 0.985 . S
H258 N252 0.984 . S
H259 N252 0.984 1_565 S
H260 N248 0.984 . S
H261 N248 0.985 . S
C262 C263 1.363 . S
C262 C268 1.379 . S
C262 N270 1.356 . S
C263 C262 1.363 . S
C263 C269 1.363 1_565 S
C264 C265 1.363 . S
C264 C269 1.379 . S
C264 N271 1.356 . S
C265 C264 1.363 . S
C265 C268 1.363 1_545 S
N266 C268 1.356 . S
N266 H278 0.984 . S
N266 H279 0.985 1_565 S
N267 C269 1.356 . S
N267 H272 0.984 1_545 S
N267 H273 0.985 . S
C268 C262 1.379 . S
C268 C265 1.363 1_565 S
C268 N266 1.356 . S
C269 C263 1.363 1_545 S
C269 C264 1.379 . S
C269 N267 1.356 . S
N270 C262 1.356 . S
N270 H276 0.984 . S
N270 H277 0.984 . S
N271 C264 1.356 . S
N271 H274 0.984 . S
N271 H275 0.985 . S
H272 N267 0.984 1_565 S
H273 N267 0.985 . S
H274 N271 0.984 . S
H275 N271 0.985 . S
H276 N270 0.984 . S
H277 N270 0.984 . S
H278 N266 0.984 . S
H279 N266 0.985 1_545 S
C280 C281 1.363 . S
C280 C286 1.379 . S
C280 N288 1.356 . S
C281 C280 1.363 . S
C281 C287 1.363 . S
C282 C283 1.363 . S
C282 C287 1.379 . S
C282 N289 1.356 . S
C283 C282 1.363 . S
C283 C286 1.363 . S
N284 C286 1.356 . S
N284 H296 0.984 . S
N284 H297 0.985 . S
N285 C287 1.356 . S
N285 H290 0.984 . S
N285 H291 0.985 . S
C286 C280 1.379 . S
C286 C283 1.363 . S
C286 N284 1.356 . S
C287 C281 1.363 . S
C287 C282 1.379 . S
C287 N285 1.356 . S
N288 C280 1.356 . S
N288 H294 0.984 . S
N288 H295 0.984 . S
N289 C282 1.356 . S
N289 H292 0.984 . S
N289 H293 0.985 . S
H290 N285 0.984 . S
H291 N285 0.985 . S
H292 N289 0.984 . S
H293 N289 0.985 . S
H294 N288 0.984 . S
H295 N288 0.984 . S
H296 N284 0.984 . S
H297 N284 0.985 . S
C298 C299 1.363 . S
C298 C304 1.379 . S
C298 N306 1.356 . S
C299 C298 1.363 . S
C299 C305 1.363 . S
C300 C301 1.363 . S
C300 C305 1.379 . S
C300 N307 1.356 . S
C301 C300 1.363 . S
C301 C304 1.363 . S
N302 C304 1.356 . S
N302 H314 0.984 . S
N302 H315 0.985 . S
N303 C305 1.356 . S
N303 H308 0.984 . S
N303 H309 0.985 . S
C304 C298 1.379 . S
C304 C301 1.363 . S
C304 N302 1.356 . S
C305 C299 1.363 . S
C305 C300 1.379 . S
C305 N303 1.356 . S
N306 C298 1.356 . S
N306 H312 0.984 . S
N306 H313 0.984 . S
N307 C300 1.356 . S
N307 H310 0.984 . S
N307 H311 0.985 . S
H308 N303 0.984 . S
H309 N303 0.985 . S
H310 N307 0.984 . S
H311 N307 0.985 . S
H312 N306 0.984 . S
H313 N306 0.984 . S
H314 N302 0.984 . S
H315 N302 0.985 . S
C316 C317 1.363 . S
C316 C322 1.379 . S
C316 N324 1.356 . S
C317 C316 1.363 . S
C317 C323 1.363 . S
C318 C319 1.363 . S
C318 C323 1.379 . S
C318 N325 1.356 . S
C319 C318 1.363 . S
C319 C322 1.363 . S
N320 C322 1.356 . S
N320 H332 0.984 . S
N320 H333 0.985 . S
N321 C323 1.356 . S
N321 H326 0.984 . S
N321 H327 0.985 . S
C322 C316 1.379 . S
C322 C319 1.363 . S
C322 N320 1.356 . S
C323 C317 1.363 . S
C323 C318 1.379 . S
C323 N321 1.356 . S
N324 C316 1.356 . S
N324 H330 0.984 . S
N324 H331 0.984 . S
N325 C318 1.356 . S
N325 H328 0.984 . S
N325 H329 0.985 . S
H326 N321 0.984 . S
H327 N321 0.985 . S
H328 N325 0.984 . S
H329 N325 0.985 . S
H330 N324 0.984 . S
H331 N324 0.984 . S
H332 N320 0.984 . S
H333 N320 0.985 . S
C334 C335 1.363 . S
C334 C340 1.379 . S
C334 N342 1.356 . S
C335 C334 1.363 . S
C335 C341 1.363 . S
C336 C337 1.363 . S
C336 C341 1.379 . S
C336 N343 1.356 . S
C337 C336 1.363 . S
C337 C340 1.363 . S
N338 C340 1.356 . S
N338 H350 0.984 . S
N338 H351 0.985 . S
N339 C341 1.356 . S
N339 H344 0.984 . S
N339 H345 0.985 . S
C340 C334 1.379 . S
C340 C337 1.363 . S
C340 N338 1.356 . S
C341 C335 1.363 . S
C341 C336 1.379 . S
C341 N339 1.356 . S
N342 C334 1.356 . S
N342 H348 0.984 . S
N342 H349 0.984 . S
N343 C336 1.356 . S
N343 H346 0.984 . S
N343 H347 0.985 . S
H344 N339 0.984 . S
H345 N339 0.985 . S
H346 N343 0.984 . S
H347 N343 0.985 . S
H348 N342 0.984 . S
H349 N342 0.984 . S
H350 N338 0.984 . S
H351 N338 0.985 . S
C352 C353 1.363 1_455 S
C352 C358 1.379 . S
C352 N360 1.356 . S
C353 C352 1.363 1_655 S
C353 C359 1.363 . S
C354 C355 1.363 1_655 S
C354 C359 1.379 . S
C354 N361 1.356 . S
C355 C354 1.363 1_455 S
C355 C358 1.363 . S
N356 C358 1.356 . S
N356 H368 0.984 . S
N356 H369 0.985 . S
N357 C359 1.356 . S
N357 H362 0.984 . S
N357 H363 0.985 . S
C358 C352 1.379 . S
C358 C355 1.363 . S
C358 N356 1.356 . S
C359 C353 1.363 . S
C359 C354 1.379 . S
C359 N357 1.356 . S
N360 C352 1.356 . S
N360 H366 0.984 . S
N360 H367 0.984 . S
N361 C354 1.356 . S
N361 H364 0.984 . S
N361 H365 0.985 . S
H362 N357 0.984 . S
H363 N357 0.985 . S
H364 N361 0.984 . S
H365 N361 0.985 . S
H366 N360 0.984 . S
H367 N360 0.984 . S
H368 N356 0.984 . S
H369 N356 0.985 . S
C370 C371 1.363 . S
C370 C376 1.379 . S
C370 N378 1.356 . S
C371 C370 1.363 . S
C371 C377 1.363 . S
C372 C373 1.363 . S
C372 C377 1.379 . S
C372 N379 1.356 . S
C373 C372 1.363 . S
C373 C376 1.363 . S
N374 C376 1.356 . S
N374 H386 0.984 . S
N374 H387 0.985 . S
N375 C377 1.356 . S
N375 H380 0.984 . S
N375 H381 0.985 . S
C376 C370 1.379 . S
C376 C373 1.363 . S
C376 N374 1.356 . S
C377 C371 1.363 . S
C377 C372 1.379 . S
C377 N375 1.356 . S
N378 C370 1.356 . S
N378 H384 0.984 . S
N378 H385 0.984 . S
N379 C372 1.356 . S
N379 H382 0.984 . S
N379 H383 0.985 . S
H380 N375 0.984 . S
H381 N375 0.985 . S
H382 N379 0.984 . S
H383 N379 0.985 . S
H384 N378 0.984 . S
H385 N378 0.984 . S
H386 N374 0.984 . S
H387 N374 0.985 . S
C388 C389 1.363 . S
C388 C394 1.379 . S
C388 N396 1.356 . S
C389 C388 1.363 . S
C389 C395 1.363 1_455 S
C390 C391 1.363 . S
C390 C395 1.379 . S
C390 N397 1.356 . S
C391 C390 1.363 . S
C391 C394 1.363 1_655 S
N392 C394 1.356 . S
N392 H404 0.984 . S
N392 H405 0.985 . S
N393 C395 1.356 . S
N393 H398 0.984 . S
N393 H399 0.985 . S
C394 C388 1.379 . S
C394 C391 1.363 1_455 S
C394 N392 1.356 . S
C395 C389 1.363 1_655 S
C395 C390 1.379 . S
C395 N393 1.356 . S
N396 C388 1.356 . S
N396 H402 0.984 . S
N396 H403 0.984 . S
N397 C390 1.356 . S
N397 H400 0.984 . S
N397 H401 0.985 . S
H398 N393 0.984 . S
H399 N393 0.985 . S
H400 N397 0.984 . S
H401 N397 0.985 . S
H402 N396 0.984 . S
H403 N396 0.984 . S
H404 N392 0.984 . S
H405 N392 0.985 . S
C406 C407 1.363 . S
C406 C412 1.379 . S
C406 N414 1.356 . S
C407 C406 1.363 . S
C407 C413 1.363 . S
C408 C409 1.363 . S
C408 C413 1.379 . S
C408 N415 1.356 . S
C409 C408 1.363 . S
C409 C412 1.363 . S
N410 C412 1.356 . S
N410 H422 0.984 . S
N410 H423 0.985 . S
N411 C413 1.356 . S
N411 H416 0.984 . S
N411 H417 0.985 . S
C412 C406 1.379 . S
C412 C409 1.363 . S
C412 N410 1.356 . S
C413 C407 1.363 . S
C413 C408 1.379 . S
C413 N411 1.356 . S
N414 C406 1.356 . S
N414 H420 0.984 . S
N414 H421 0.984 . S
N415 C408 1.356 . S
N415 H418 0.984 . S
N415 H419 0.985 . S
H416 N411 0.984 . S
H417 N411 0.985 . S
H418 N415 0.984 . S
H419 N415 0.985 . S
H420 N414 0.984 . S
H421 N414 0.984 . S
H422 N410 0.984 . S
H423 N410 0.985 . S
C424 C425 1.363 . S
C424 C430 1.379 . S
C424 N432 1.356 . S
C425 C424 1.363 . S
C425 C431 1.363 . S
C426 C427 1.363 . S
C426 C431 1.379 . S
C426 N433 1.356 . S
C427 C426 1.363 . S
C427 C430 1.363 . S
N428 C430 1.356 . S
N428 H440 0.984 . S
N428 H441 0.985 . S
N429 C431 1.356 . S
N429 H434 0.984 . S
N429 H435 0.985 . S
C430 C424 1.379 . S
C430 C427 1.363 . S
C430 N428 1.356 . S
C431 C425 1.363 . S
C431 C426 1.379 . S
C431 N429 1.356 . S
N432 C424 1.356 . S
N432 H438 0.984 . S
N432 H439 0.984 . S
N433 C426 1.356 . S
N433 H436 0.984 . S
N433 H437 0.985 . S
H434 N429 0.984 . S
H435 N429 0.985 . S
H436 N433 0.984 . S
H437 N433 0.985 . S
H438 N432 0.984 . S
H439 N432 0.984 . S
H440 N428 0.984 . S
H441 N428 0.985 . S
C442 C443 1.363 . S
C442 C448 1.379 . S
C442 N450 1.356 . S
C443 C442 1.363 . S
C443 C449 1.363 1_455 S
C444 C445 1.363 . S
C444 C449 1.379 . S
C444 N451 1.356 . S
C445 C444 1.363 . S
C445 C448 1.363 1_655 S
N446 C448 1.356 . S
N446 H458 0.984 . S
N446 H459 0.985 . S
N447 C449 1.356 . S
N447 H452 0.984 . S
N447 H453 0.985 . S
C448 C442 1.379 . S
C448 C445 1.363 1_455 S
C448 N446 1.356 . S
C449 C443 1.363 1_655 S
C449 C444 1.379 . S
C449 N447 1.356 . S
N450 C442 1.356 . S
N450 H456 0.984 . S
N450 H457 0.984 . S
N451 C444 1.356 . S
N451 H454 0.984 . S
N451 H455 0.985 . S
H452 N447 0.984 . S
H453 N447 0.985 . S
H454 N451 0.984 . S
H455 N451 0.985 . S
H456 N450 0.984 . S
H457 N450 0.984 . S
H458 N446 0.984 . S
H459 N446 0.985 . S
C460 C461 1.363 . S
C460 C466 1.379 . S
C460 N468 1.356 . S
C461 C460 1.363 . S
C461 C467 1.363 . S
C462 C463 1.363 . S
C462 C467 1.379 . S
C462 N469 1.356 . S
C463 C462 1.363 . S
C463 C466 1.363 . S
N464 C466 1.356 . S
N464 H476 0.984 . S
N464 H477 0.985 . S
N465 C467 1.356 . S
N465 H470 0.984 . S
N465 H471 0.985 . S
C466 C460 1.379 . S
C466 C463 1.363 . S
C466 N464 1.356 . S
C467 C461 1.363 . S
C467 C462 1.379 . S
C467 N465 1.356 . S
N468 C460 1.356 . S
N468 H474 0.984 . S
N468 H475 0.984 . S
N469 C462 1.356 . S
N469 H472 0.984 . S
N469 H473 0.985 . S
H470 N465 0.984 . S
H471 N465 0.985 . S
H472 N469 0.984 . S
H473 N469 0.985 . S
H474 N468 0.984 . S
H475 N468 0.984 . S
H476 N464 0.984 . S
H477 N464 0.985 . S
C478 C479 1.363 . S
C478 C484 1.379 . S
C478 N486 1.356 . S
C479 C478 1.363 . S
C479 C485 1.363 1_455 S
C480 C481 1.363 . S
C480 C485 1.379 . S
C480 N487 1.356 . S
C481 C480 1.363 . S
C481 C484 1.363 1_655 S
N482 C484 1.356 . S
N482 H494 0.984 . S
N482 H495 0.985 . S
N483 C485 1.356 . S
N483 H488 0.984 . S
N483 H489 0.985 . S
C484 C478 1.379 . S
C484 C481 1.363 1_455 S
C484 N482 1.356 . S
C485 C479 1.363 1_655 S
C485 C480 1.379 . S
C485 N483 1.356 . S
N486 C478 1.356 . S
N486 H492 0.984 . S
N486 H493 0.984 . S
N487 C480 1.356 . S
N487 H490 0.984 . S
N487 H491 0.985 . S
H488 N483 0.984 . S
H489 N483 0.985 . S
H490 N487 0.984 . S
H491 N487 0.985 . S
H492 N486 0.984 . S
H493 N486 0.984 . S
H494 N482 0.984 . S
H495 N482 0.985 . S
C496 C497 1.363 . S
C496 C502 1.379 . S
C496 N504 1.356 . S
C497 C496 1.363 . S
C497 C503 1.363 1_455 S
C498 C499 1.363 . S
C498 C503 1.379 . S
C498 N505 1.356 . S
C499 C498 1.363 . S
C499 C502 1.363 1_655 S
N500 C502 1.356 . S
N500 H512 0.984 . S
N500 H513 0.985 . S
N501 C503 1.356 . S
N501 H506 0.984 . S
N501 H507 0.985 . S
C502 C496 1.379 . S
C502 C499 1.363 1_455 S
C502 N500 1.356 . S
C503 C497 1.363 1_655 S
C503 C498 1.379 . S
C503 N501 1.356 . S
N504 C496 1.356 . S
N504 H510 0.984 . S
N504 H511 0.984 . S
N505 C498 1.356 . S
N505 H508 0.984 . S
N505 H509 0.985 . S
H506 N501 0.984 . S
H507 N501 0.985 . S
H508 N505 0.984 . S
H509 N505 0.985 . S
H510 N504 0.984 . S
H511 N504 0.984 . S
H512 N500 0.984 . S
H513 N500 0.985 . S
C514 C515 1.363 . S
C514 C520 1.379 . S
C514 N522 1.356 . S
C515 C514 1.363 . S
C515 C521 1.363 . S
C516 C517 1.363 . S
C516 C521 1.379 . S
C516 N523 1.356 . S
C517 C516 1.363 . S
C517 C520 1.363 . S
N518 C520 1.356 . S
N518 H530 0.984 . S
N518 H531 0.985 . S
N519 C521 1.356 . S
N519 H524 0.984 . S
N519 H525 0.985 . S
C520 C514 1.379 . S
C520 C517 1.363 . S
C520 N518 1.356 . S
C521 C515 1.363 . S
C521 C516 1.379 . S
C521 N519 1.356 . S
N522 C514 1.356 . S
N522 H528 0.984 . S
N522 H529 0.984 . S
N523 C516 1.356 . S
N523 H526 0.984 . S
N523 H527 0.985 . S
H524 N519 0.984 . S
H525 N519 0.985 . S
H526 N523 0.984 . S
H527 N523 0.985 . S
H528 N522 0.984 . S
H529 N522 0.984 . S
H530 N518 0.984 . S
H531 N518 0.985 . S
C532 C533 1.363 . S
C532 C538 1.379 . S
C532 N540 1.356 . S
C533 C532 1.363 . S
C533 C539 1.363 . S
C534 C535 1.363 . S
C534 C539 1.379 . S
C534 N541 1.356 . S
C535 C534 1.363 . S
C535 C538 1.363 . S
N536 C538 1.356 . S
N536 H548 0.984 . S
N536 H549 0.985 . S
N537 C539 1.356 . S
N537 H542 0.984 . S
N537 H543 0.985 . S
C538 C532 1.379 . S
C538 C535 1.363 . S
C538 N536 1.356 . S
C539 C533 1.363 . S
C539 C534 1.379 . S
C539 N537 1.356 . S
N540 C532 1.356 . S
N540 H546 0.984 . S
N540 H547 0.984 . S
N541 C534 1.356 . S
N541 H544 0.984 . S
N541 H545 0.985 . S
H542 N537 0.984 . S
H543 N537 0.985 . S
H544 N541 0.984 . S
H545 N541 0.985 . S
H546 N540 0.984 . S
H547 N540 0.984 . S
H548 N536 0.984 . S
H549 N536 0.985 . S
C550 C551 1.363 1_655 S
C550 C556 1.379 . S
C550 N558 1.356 . S
C551 C550 1.363 1_455 S
C551 C557 1.363 . S
C552 C553 1.363 1_455 S
C552 C557 1.379 . S
C552 N559 1.356 . S
C553 C552 1.363 1_655 S
C553 C556 1.363 . S
N554 C556 1.356 . S
N554 H566 0.984 . S
N554 H567 0.985 . S
N555 C557 1.356 . S
N555 H560 0.984 . S
N555 H561 0.985 . S
C556 C550 1.379 . S
C556 C553 1.363 . S
C556 N554 1.356 . S
C557 C551 1.363 . S
C557 C552 1.379 . S
C557 N555 1.356 . S
N558 C550 1.356 . S
N558 H564 0.984 . S
N558 H565 0.984 . S
N559 C552 1.356 . S
N559 H562 0.984 . S
N559 H563 0.985 . S
H560 N555 0.984 . S
H561 N555 0.985 . S
H562 N559 0.984 . S
H563 N559 0.985 . S
H564 N558 0.984 . S
H565 N558 0.984 . S
H566 N554 0.984 . S
H567 N554 0.985 . S
C568 C569 1.363 1_655 S
C568 C574 1.379 . S
C568 N576 1.356 . S
C569 C568 1.363 1_455 S
C569 C575 1.363 . S
C570 C571 1.363 1_455 S
C570 C575 1.379 . S
C570 N577 1.356 . S
C571 C570 1.363 1_655 S
C571 C574 1.363 . S
N572 C574 1.356 . S
N572 H584 0.984 . S
N572 H585 0.985 . S
N573 C575 1.356 . S
N573 H578 0.984 . S
N573 H579 0.985 . S
C574 C568 1.379 . S
C574 C571 1.363 . S
C574 N572 1.356 . S
C575 C569 1.363 . S
C575 C570 1.379 . S
C575 N573 1.356 . S
N576 C568 1.356 . S
N576 H582 0.984 . S
N576 H583 0.984 . S
N577 C570 1.356 . S
N577 H580 0.984 . S
N577 H581 0.985 . S
H578 N573 0.984 . S
H579 N573 0.985 . S
H580 N577 0.984 . S
H581 N577 0.985 . S
H582 N576 0.984 . S
H583 N576 0.984 . S
H584 N572 0.984 . S
H585 N572 0.985 . S
C586 C587 1.363 . S
C586 C592 1.379 . S
C586 N594 1.356 . S
C587 C586 1.363 . S
C587 C593 1.363 . S
C588 C589 1.363 . S
C588 C593 1.379 . S
C588 N595 1.356 . S
C589 C588 1.363 . S
C589 C592 1.363 . S
N590 C592 1.356 . S
N590 H602 0.984 . S
N590 H603 0.985 . S
N591 C593 1.356 . S
N591 H596 0.984 . S
N591 H597 0.985 . S
C592 C586 1.379 . S
C592 C589 1.363 . S
C592 N590 1.356 . S
C593 C587 1.363 . S
C593 C588 1.379 . S
C593 N591 1.356 . S
N594 C586 1.356 . S
N594 H600 0.984 . S
N594 H601 0.984 . S
N595 C588 1.356 . S
N595 H598 0.984 . S
N595 H599 0.985 . S
H596 N591 0.984 . S
H597 N591 0.985 . S
H598 N595 0.984 . S
H599 N595 0.985 . S
H600 N594 0.984 . S
H601 N594 0.984 . S
H602 N590 0.984 . S
H603 N590 0.985 . S
C604 C605 1.363 . S
C604 C610 1.379 . S
C604 N612 1.356 . S
C605 C604 1.363 . S
C605 C611 1.363 . S
C606 C607 1.363 . S
C606 C611 1.379 . S
C606 N613 1.356 . S
C607 C606 1.363 . S
C607 C610 1.363 . S
N608 C610 1.356 . S
N608 H620 0.984 . S
N608 H621 0.985 . S
N609 C611 1.356 . S
N609 H614 0.984 . S
N609 H615 0.985 . S
C610 C604 1.379 . S
C610 C607 1.363 . S
C610 N608 1.356 . S
C611 C605 1.363 . S
C611 C606 1.379 . S
C611 N609 1.356 . S
N612 C604 1.356 . S
N612 H618 0.984 . S
N612 H619 0.984 . S
N613 C606 1.356 . S
N613 H616 0.984 . S
N613 H617 0.985 . S
H614 N609 0.984 . S
H615 N609 0.985 . S
H616 N613 0.984 . S
H617 N613 0.985 . S
H618 N612 0.984 . S
H619 N612 0.984 . S
H620 N608 0.984 . S
H621 N608 0.985 . S
C622 C623 1.363 1_655 S
C622 C628 1.379 . S
C622 N630 1.356 . S
C623 C622 1.363 1_455 S
C623 C629 1.363 . S
C624 C625 1.363 1_455 S
C624 C629 1.379 . S
C624 N631 1.356 . S
C625 C624 1.363 1_655 S
C625 C628 1.363 . S
N626 C628 1.356 . S
N626 H638 0.984 . S
N626 H639 0.985 . S
N627 C629 1.356 . S
N627 H632 0.984 . S
N627 H633 0.985 . S
C628 C622 1.379 . S
C628 C625 1.363 . S
C628 N626 1.356 . S
C629 C623 1.363 . S
C629 C624 1.379 . S
C629 N627 1.356 . S
N630 C622 1.356 . S
N630 H636 0.984 . S
N630 H637 0.984 . S
N631 C624 1.356 . S
N631 H634 0.984 . S
N631 H635 0.985 . S
H632 N627 0.984 . S
H633 N627 0.985 . S
H634 N631 0.984 . S
H635 N631 0.985 . S
H636 N630 0.984 . S
H637 N630 0.984 . S
H638 N626 0.984 . S
H639 N626 0.985 . S
C640 C641 1.363 1_545 S
C640 C646 1.379 1_655 S
C640 N648 1.356 . S
C641 C640 1.363 1_565 S
C641 C647 1.363 1_556 S
C642 C643 1.363 1_565 S
C642 C647 1.379 1_455 S
C642 N649 1.356 . S
C643 C642 1.363 1_545 S
C643 C646 1.363 1_554 S
N644 C646 1.356 1_554 S
N644 H656 0.984 1_554 S
N644 H657 0.985 . S
N645 C647 1.356 1_556 S
N645 H650 0.984 . S
N645 H651 0.985 1_556 S
C646 C640 1.379 1_455 S
C646 C643 1.363 1_556 S
C646 N644 1.356 1_556 S
C647 C641 1.363 1_554 S
C647 C642 1.379 1_655 S
C647 N645 1.356 1_554 S
N648 C640 1.356 . S
N648 H654 0.984 . S
N648 H655 0.984 . S
N649 C642 1.356 . S
N649 H652 0.984 . S
N649 H653 0.985 . S
H650 N645 0.984 . S
H651 N645 0.985 1_554 S
H652 N649 0.984 . S
H653 N649 0.985 . S
H654 N648 0.984 . S
H655 N648 0.984 . S
H656 N644 0.984 1_556 S
H657 N644 0.985 . S
C658 C659 1.363 1_554 S
C658 C664 1.379 . S
C658 N666 1.356 1_554 S
C659 C658 1.363 1_556 S
C659 C665 1.363 1_545 S
C660 C661 1.363 1_556 S
C660 C665 1.379 . S
C660 N667 1.356 1_556 S
C661 C660 1.363 1_554 S
C661 C664 1.363 1_565 S
N662 C664 1.356 . S
N662 H674 0.984 . S
N662 H675 0.985 1_545 S
N663 C665 1.356 . S
N663 H668 0.984 1_565 S
N663 H669 0.985 . S
C664 C658 1.379 . S
C664 C661 1.363 1_545 S
C664 N662 1.356 . S
C665 C659 1.363 1_565 S
C665 C660 1.379 . S
C665 N663 1.356 . S
N666 C658 1.356 1_556 S
N666 H672 0.984 1_556 S
N666 H673 0.984 . S
N667 C660 1.356 1_554 S
N667 H670 0.984 . S
N667 H671 0.985 1_554 S
H668 N663 0.984 1_545 S
H669 N663 0.985 . S
H670 N667 0.984 . S
H671 N667 0.985 1_556 S
H672 N666 0.984 1_554 S
H673 N666 0.984 . S
H674 N662 0.984 . S
H675 N662 0.985 1_565 S
C676 C677 1.363 . S
C676 C682 1.379 . S
C676 N684 1.356 . S
C677 C676 1.363 . S
C677 C683 1.363 1_545 S
C678 C679 1.363 . S
C678 C683 1.379 . S
C678 N685 1.356 . S
C679 C678 1.363 . S
C679 C682 1.363 1_565 S
N680 C682 1.356 . S
N680 H692 0.984 . S
N680 H693 0.994 . S
N681 C683 1.356 . S
N681 H686 0.994 . S
N681 H687 0.985 . S
C682 C676 1.379 . S
C682 C679 1.363 1_545 S
C682 N680 1.356 . S
C683 C677 1.363 1_565 S
C683 C678 1.379 . S
C683 N681 1.356 . S
N684 C676 1.356 . S
N684 H690 0.984 . S
N684 H691 0.984 . S
N685 C678 1.356 . S
N685 H688 0.984 . S
N685 H689 0.985 . S
H686 N681 0.994 . S
H687 N681 0.985 . S
H688 N685 0.984 . S
H689 N685 0.985 . S
H690 N684 0.984 . S
H691 N684 0.984 . S
H692 N680 0.984 . S
H693 N680 0.994 . S
C694 C695 1.363 1_545 S
C694 C700 1.379 . S
C694 N702 1.356 . S
C695 C694 1.363 1_565 S
C695 C701 1.363 1_455 S
C696 C697 1.363 1_565 S
C696 C701 1.379 . S
C696 N703 1.356 . S
C697 C696 1.363 1_545 S
C697 C700 1.363 1_655 S
N698 C700 1.356 . S
N698 H710 0.984 . S
N698 H711 0.985 1_455 S
N699 C701 1.356 . S
N699 H704 0.984 1_655 S
N699 H705 0.985 . S
C700 C694 1.379 . S
C700 C697 1.363 1_455 S
C700 N698 1.356 . S
C701 C695 1.363 1_655 S
C701 C696 1.379 . S
C701 N699 1.356 . S
N702 C694 1.356 . S
N702 H708 0.984 . S
N702 H709 0.984 . S
N703 C696 1.356 . S
N703 H706 0.984 . S
N703 H707 0.985 . S
H704 N699 0.984 1_455 S
H705 N699 0.985 . S
H706 N703 0.984 . S
H707 N703 0.985 . S
H708 N702 0.984 . S
H709 N702 0.984 . S
H710 N698 0.984 . S
H711 N698 0.985 1_655 S
C712 C713 1.363 . S
C712 C718 1.379 1_554 S
C712 N720 1.356 . S
C713 C712 1.363 . S
C713 C719 1.363 . S
C714 C715 1.363 . S
C714 C719 1.379 1_556 S
C714 N721 1.356 . S
C715 C714 1.363 . S
C715 C718 1.363 . S
N716 C718 1.356 . S
N716 H728 0.984 . S
N716 H729 0.985 . S
N717 C719 1.356 . S
N717 H722 0.984 . S
N717 H723 0.985 . S
C718 C712 1.379 1_556 S
C718 C715 1.363 . S
C718 N716 1.356 . S
C719 C713 1.363 . S
C719 C714 1.379 1_554 S
C719 N717 1.356 . S
N720 C712 1.356 . S
N720 H726 0.984 . S
N720 H727 0.984 . S
N721 C714 1.356 . S
N721 H724 0.984 . S
N721 H725 0.985 . S
H722 N717 0.984 . S
H723 N717 0.985 . S
H724 N721 0.984 . S
H725 N721 0.985 . S
H726 N720 0.984 . S
H727 N720 0.984 . S
H728 N716 0.984 . S
H729 N716 0.985 . S
C730 C731 1.363 1_556 S
C730 C736 1.379 . S
C730 N738 1.356 1_556 S
C731 C730 1.363 1_554 S
C731 C737 1.363 1_655 S
C732 C733 1.363 1_554 S
C732 C737 1.379 . S
C732 N739 1.356 1_554 S
C733 C732 1.363 1_556 S
C733 C736 1.363 1_455 S
N734 C736 1.356 . S
N734 H746 0.984 . S
N734 H747 0.985 1_655 S
N735 C737 1.356 . S
N735 H740 0.984 1_455 S
N735 H741 0.985 . S
C736 C730 1.379 . S
C736 C733 1.363 1_655 S
C736 N734 1.356 . S
C737 C731 1.363 1_455 S
C737 C732 1.379 . S
C737 N735 1.356 . S
N738 C730 1.356 1_554 S
N738 H744 0.984 1_554 S
N738 H745 0.984 . S
N739 C732 1.356 1_556 S
N739 H742 0.984 . S
N739 H743 0.985 1_556 S
H740 N735 0.984 1_655 S
H741 N735 0.985 . S
H742 N739 0.984 . S
H743 N739 0.985 1_554 S
H744 N738 0.984 1_556 S
H745 N738 0.984 . S
H746 N734 0.984 . S
H747 N734 0.985 1_455 S
C748 C749 1.363 1_455 S
C748 C754 1.379 . S
C748 N756 1.356 . S
C749 C748 1.363 1_655 S
C749 C755 1.363 . S
C750 C751 1.363 1_655 S
C750 C755 1.379 . S
C750 N757 1.356 . S
C751 C750 1.363 1_455 S
C751 C754 1.363 . S
N752 C754 1.356 . S
N752 H764 0.984 . S
N752 H765 0.985 . S
N753 C755 1.356 . S
N753 H758 0.984 . S
N753 H759 0.985 . S
C754 C748 1.379 . S
C754 C751 1.363 . S
C754 N752 1.356 . S
C755 C749 1.363 . S
C755 C750 1.379 . S
C755 N753 1.356 . S
N756 C748 1.356 . S
N756 H762 0.984 . S
N756 H763 0.984 1_455 S
N757 C750 1.356 . S
N757 H760 0.984 1_655 S
N757 H761 0.985 . S
H758 N753 0.984 . S
H759 N753 0.985 . S
H760 N757 0.984 1_455 S
H761 N757 0.985 . S
H762 N756 0.984 . S
H763 N756 0.984 1_655 S
H764 N752 0.984 . S
H765 N752 0.985 . S
C766 C767 1.363 . S
C766 C772 1.379 . S
C766 N774 1.356 . S
C767 C766 1.363 . S
C767 C773 1.363 . S
C768 C769 1.363 . S
C768 C773 1.379 . S
C768 N775 1.356 . S
C769 C768 1.363 . S
C769 C772 1.363 . S
N770 C772 1.356 . S
N770 H782 0.984 . S
N770 H783 0.985 . S
N771 C773 1.356 . S
N771 H776 0.984 . S
N771 H777 0.985 . S
C772 C766 1.379 . S
C772 C769 1.363 . S
C772 N770 1.356 . S
C773 C767 1.363 . S
C773 C768 1.379 . S
C773 N771 1.356 . S
N774 C766 1.356 . S
N774 H780 0.984 . S
N774 H781 0.984 . S
N775 C768 1.356 . S
N775 H778 0.984 . S
N775 H779 0.985 . S
H776 N771 0.984 . S
H777 N771 0.985 . S
H778 N775 0.984 . S
H779 N775 0.985 . S
H780 N774 0.984 . S
H781 N774 0.984 . S
H782 N770 0.984 . S
H783 N770 0.985 . S
C209 C23 1.506 . S
C211 C10 1.506 . S
C227 C30 1.506 . S
C229 C43 1.506 . S
C245 C56 1.506 . S
C247 C75 1.506 . S
C263 C95 1.506 . S
C265 C82 1.506 . S
C281 C127 1.506 . S
C283 C114 1.506 . S
C299 C147 1.506 . S
C301 C134 1.506 . S
C317 C179 1.506 . S
C319 C166 1.506 . S
C335 C199 1.506 . S
C337 C186 1.506 . S
C353 C42 1.516 . S
C355 C5 1.516 . S
C371 C18 1.516 . S
C373 C29 1.516 . S
C389 C94 1.516 . S
C391 C55 1.516 . S
C407 C81 1.516 . S
C409 C70 1.516 . S
C425 C109 1.516 . S
C427 C146 1.516 . S
C443 C133 1.516 . S
C445 C122 1.516 . S
C461 C198 1.516 . S
C463 C161 1.516 . S
C479 C174 1.516 . S
C481 C185 1.516 . S
C497 C3 1.468 . S
C499 C120 1.468 . S
C515 C16 1.468 . S
C517 C107 1.468 . S
C533 C148 1.468 . S
C535 C31 1.468 . S
C551 C135 1.468 . S
C553 C44 1.468 . S
C569 C172 1.468 . S
C571 C57 1.468 . S
C587 C159 1.468 . S
C589 C68 1.468 . S
C605 C83 1.468 . S
C607 C200 1.468 . S
C623 C96 1.468 . S
C625 C187 1.468 . S
C641 C62 1.524 . S
C643 C4 1.524 . S
C659 C69 1.524 . S
C661 C17 1.524 . S
C677 C88 1.524 . S
C679 C36 1.524 . S
C695 C101 1.524 . S
C697 C49 1.524 . S
C713 C108 1.524 . S
C715 C160 1.524 . S
C731 C121 1.524 . S
C733 C173 1.524 . S
C749 C192 1.524 . S
C751 C140 1.524 . S
C767 C205 1.524 . S
C769 C153 1.524 . S
