# Generated by pormake.
# Topology can, (4)-cn, num edge types: 1
# Building blocks:
#     Node 0, Type 0, BuildingBlock: ICAMEG_clean_sbu_1, # of connection points: 4
#     Node 1, Type 0, BuildingBlock: ICAMEG_clean_sbu_1, # of connection points: 4
#     Node 2, Type 0, BuildingBlock: ICAMEG_clean_sbu_1, # of connection points: 4
#     Node 3, Type 0, BuildingBlock: ICAMEG_clean_sbu_1, # of connection points: 4
#     Node 4, Type 0, BuildingBlock: ICAMEG_clean_sbu_1, # of connection points: 4
#     Node 5, Type 0, BuildingBlock: ICAMEG_clean_sbu_1, # of connection points: 4
#     Node 6, Type 0, BuildingBlock: ICAMEG_clean_sbu_1, # of connection points: 4
#     Node 7, Type 0, BuildingBlock: ICAMEG_clean_sbu_1, # of connection points: 4
#     Node 8, Type 0, BuildingBlock: ICAMEG_clean_sbu_1, # of connection points: 4
#     Node 9, Type 0, BuildingBlock: ICAMEG_clean_sbu_1, # of connection points: 4
#     Node 10, Type 0, BuildingBlock: ICAMEG_clean_sbu_1, # of connection points: 4
#     Node 11, Type 0, BuildingBlock: ICAMEG_clean_sbu_1, # of connection points: 4
#     Edge 12, Type (0, 0), BuildingBlock: KIFKEQ_clean_linker_1, # of connection points: 2
#     Edge 13, Type (0, 0), BuildingBlock: KIFKEQ_clean_linker_1, # of connection points: 2
#     Edge 14, Type (0, 0), BuildingBlock: KIFKEQ_clean_linker_1, # of connection points: 2
#     Edge 15, Type (0, 0), BuildingBlock: KIFKEQ_clean_linker_1, # of connection points: 2
#     Edge 16, Type (0, 0), BuildingBlock: KIFKEQ_clean_linker_1, # of connection points: 2
#     Edge 17, Type (0, 0), BuildingBlock: KIFKEQ_clean_linker_1, # of connection points: 2
#     Edge 18, Type (0, 0), BuildingBlock: KIFKEQ_clean_linker_1, # of connection points: 2
#     Edge 19, Type (0, 0), BuildingBlock: KIFKEQ_clean_linker_1, # of connection points: 2
#     Edge 20, Type (0, 0), BuildingBlock: KIFKEQ_clean_linker_1, # of connection points: 2
#     Edge 21, Type (0, 0), BuildingBlock: KIFKEQ_clean_linker_1, # of connection points: 2
#     Edge 22, Type (0, 0), BuildingBlock: KIFKEQ_clean_linker_1, # of connection points: 2
#     Edge 23, Type (0, 0), BuildingBlock: KIFKEQ_clean_linker_1, # of connection points: 2
#     Edge 24, Type (0, 0), BuildingBlock: KIFKEQ_clean_linker_1, # of connection points: 2
#     Edge 25, Type (0, 0), BuildingBlock: KIFKEQ_clean_linker_1, # of connection points: 2
#     Edge 26, Type (0, 0), BuildingBlock: KIFKEQ_clean_linker_1, # of connection points: 2
#     Edge 27, Type (0, 0), BuildingBlock: KIFKEQ_clean_linker_1, # of connection points: 2
#     Edge 28, Type (0, 0), BuildingBlock: KIFKEQ_clean_linker_1, # of connection points: 2
#     Edge 29, Type (0, 0), BuildingBlock: KIFKEQ_clean_linker_1, # of connection points: 2
#     Edge 30, Type (0, 0), BuildingBlock: KIFKEQ_clean_linker_1, # of connection points: 2
#     Edge 31, Type (0, 0), BuildingBlock: KIFKEQ_clean_linker_1, # of connection points: 2
#     Edge 32, Type (0, 0), BuildingBlock: KIFKEQ_clean_linker_1, # of connection points: 2
#     Edge 33, Type (0, 0), BuildingBlock: KIFKEQ_clean_linker_1, # of connection points: 2
#     Edge 34, Type (0, 0), BuildingBlock: KIFKEQ_clean_linker_1, # of connection points: 2
#     Edge 35, Type (0, 0), BuildingBlock: KIFKEQ_clean_linker_1, # of connection points: 2
# Relax obj value: 0.056
# Max RMSD: 0.076
# Mean RMSD: 0.076
data_MOF--net-can--node1-ICAMEG_clean_sbu_1--edge1-KIFKEQ_clean_linker_1
_symmetry_space_group_name_H-M    P1
_symmetry_Int_Tables_number       1
_symmetry_cell_setting            triclinic
loop_
_symmetry_equiv_pos_as_xyz
'x, y, z'
_cell_length_a     57.548591
_cell_length_b     57.559607
_cell_length_c     30.618228
_cell_angle_alpha  89.995537
_cell_angle_beta   89.999278
_cell_angle_gamma 119.98436
loop_
_atom_site_label
_atom_site_type_symbol
_atom_site_fract_x
_atom_site_fract_y
_atom_site_fract_z
_atom_type_partial_charge
Co0 Co 0.0266 0.38178 0.258 0.0
Co1 Co 0.09184 0.42035 0.22165 0.0
O2 O 0.06511 0.39369 0.2619 0.0
C3 C 0.03926 0.39607 0.35123 0.0
O4 O 0.06217 0.41676 0.33933 0.0
C5 C 0.10989 0.37963 0.23847 0.0
O6 O 0.08768 0.36391 0.25968 0.0
O7 O 0.07053 0.3988 0.17021 0.0
O8 O 0.0283 0.38345 0.19298 0.0
H9 H 0.12055 0.48087 0.0905 0.0
H10 H 0.04227 0.34907 0.3119 0.0
O11 O 0.02319 0.37979 0.32299 0.0
H12 H 0.98417 0.28832 0.19601 0.0
H13 H 0.92929 0.32589 0.30023 0.0
H14 H 0.99437 0.39887 0.20571 0.0
H15 H 0.99381 0.33509 0.19945 0.0
H16 H 0.97745 0.34029 0.30375 0.0
O17 O 0.11334 0.40118 0.22064 0.0
H18 H 0.08812 0.44802 0.14267 0.0
H19 H 0.15165 0.44838 0.21391 0.0
H20 H 0.94638 0.38497 0.20092 0.0
H21 H 0.03283 0.30229 0.31005 0.0
H22 H 0.91346 0.34823 0.24841 0.0
H23 H 1.00368 0.2716 0.25166 0.0
O24 O 0.0345 0.41944 0.26052 0.0
H25 H 0.13454 0.43429 0.37031 0.0
H26 H 0.11913 0.47841 0.24471 0.0
H27 H 0.14472 0.50556 0.30793 0.0
H28 H 0.15275 0.48354 0.37129 0.0
H29 H 0.10858 0.40787 0.30697 0.0
H30 H 0.18473 0.48104 0.16227 0.0
H31 H 0.16925 0.4976 0.10014 0.0
O32 O 0.07242 0.44138 0.22149 0.0
C33 C 0.04536 0.38787 0.16299 0.0
C34 C 0.12755 0.47387 0.11751 0.0
C35 C 0.16356 0.47392 0.15775 0.0
N36 N 0.11797 0.44641 0.18146 0.0
C37 C 0.10929 0.45532 0.14723 0.0
C38 C 0.14472 0.45536 0.18681 0.0
C39 C 0.15487 0.48322 0.12291 0.0
C40 C 0.02942 0.33578 0.28658 0.0
N41 N 0.01875 0.34487 0.25571 0.0
C42 C 0.02422 0.30934 0.28561 0.0
C43 C 1.00789 0.29214 0.25281 0.0
C44 C 0.99697 0.30152 0.22153 0.0
C45 C 1.00263 0.32809 0.22351 0.0
C46 C 0.94343 0.34187 0.27927 0.0
C47 C 0.98015 0.38274 0.22627 0.0
C48 C 0.97072 0.35013 0.28114 0.0
N49 N 0.98867 0.37021 0.25462 0.0
C50 C 0.95301 0.37501 0.2235 0.0
C51 C 0.93456 0.35441 0.25019 0.0
C52 C 0.05227 0.44033 0.24099 0.0
C53 C 0.13136 0.44416 0.34276 0.0
C54 C 0.12236 0.4686 0.27215 0.0
C55 C 0.13697 0.48413 0.30786 0.0
C56 C 0.1415 0.47177 0.34336 0.0
N57 N 0.11258 0.44151 0.2716 0.0
C58 C 0.11684 0.42928 0.30647 0.0
Co59 Co 0.65254 0.02542 0.75664 0.0
Co60 Co 0.67195 0.08803 0.71709 0.0
O61 O 0.67613 0.06447 0.7589 0.0
C62 C 0.65175 0.03818 0.85003 0.0
O63 O 0.65135 0.05989 0.83826 0.0
C64 C 0.7317 0.11016 0.72153 0.0
O65 O 0.72805 0.08575 0.72068 0.0
O66 O 0.67648 0.06817 0.6675 0.0
O67 O 0.65059 0.02607 0.69139 0.0
H68 H 0.63584 0.10814 0.5817 0.0
H69 H 0.70372 0.04756 0.80505 0.0
O70 O 0.65327 0.0229 0.82162 0.0
H71 H 0.70883 0.98978 0.691 0.0
H72 H 0.62072 0.9299 0.80117 0.0
H73 H 0.60291 0.98914 0.70793 0.0
H74 H 0.66864 0.99441 0.69786 0.0
H75 H 0.65104 0.97891 0.80252 0.0
O76 O 0.71168 0.11385 0.71884 0.0
H77 H 0.64072 0.07904 0.63565 0.0
H78 H 0.69574 0.14735 0.70867 0.0
H79 H 0.57219 0.94022 0.70527 0.0
H80 H 0.74421 0.04329 0.79968 0.0
H81 H 0.58101 0.91025 0.75214 0.0
H82 H 0.74696 0.01428 0.74223 0.0
O83 O 0.62076 0.03004 0.76199 0.0
H84 H 0.69606 0.13535 0.86204 0.0
H85 H 0.63251 0.10575 0.7387 0.0
H86 H 0.62617 0.12932 0.80069 0.0
H87 H 0.65814 0.14441 0.86288 0.0
H88 H 0.70138 0.11127 0.79976 0.0
H89 H 0.69161 0.17719 0.65534 0.0
H90 H 0.66141 0.1576 0.59137 0.0
O91 O 0.6318 0.06371 0.71486 0.0
C92 C 0.6631 0.04289 0.66095 0.0
C93 C 0.64902 0.11691 0.60948 0.0
C94 C 0.68036 0.15567 0.65077 0.0
N95 N 0.6684 0.11146 0.67539 0.0
C96 C 0.65183 0.10054 0.64019 0.0
C97 C 0.68267 0.13867 0.6808 0.0
C98 C 0.66339 0.14466 0.61491 0.0
C99 C 0.7047 0.03472 0.78024 0.0
N100 N 0.68385 0.02122 0.75189 0.0
C101 C 0.72771 0.03246 0.77724 0.0
C102 C 0.72925 0.01622 0.74495 0.0
C103 C 0.70788 1.00249 0.71617 0.0
C104 C 0.68521 1.00526 0.72012 0.0
C105 C 0.6167 0.94275 0.7805 0.0
C106 C 0.60699 0.97621 0.72819 0.0
C107 C 0.63378 0.97051 0.78116 0.0
N108 N 0.6289 0.98684 0.75498 0.0
C109 C 0.58948 0.94854 0.72664 0.0
C110 C 0.59443 0.93173 0.75298 0.0
C111 C 0.61481 0.04485 0.73928 0.0
C112 C 0.68203 0.12894 0.83509 0.0
C113 C 0.64639 0.11202 0.76578 0.0
C114 C 0.64276 0.12548 0.80072 0.0
C115 C 0.66072 0.13397 0.83557 0.0
N116 N 0.66732 0.10712 0.76555 0.0
C117 C 0.68502 0.11541 0.7996 0.0
Co118 Co 0.63441 0.6503 0.25378 0.0
Co119 Co 0.59039 0.67048 0.21806 0.0
O120 O 0.61857 0.67354 0.25782 0.0
C121 C 0.61711 0.64362 0.34626 0.0
O122 O 0.59421 0.64095 0.33296 0.0
C123 C 0.62968 0.73017 0.22227 0.0
O124 O 0.65009 0.726 0.22404 0.0
O125 O 0.61255 0.67304 0.16596 0.0
O126 O 0.63389 0.65147 0.18857 0.0
H127 H 0.52946 0.63449 0.08777 0.0
H128 H 0.66071 0.69924 0.30835 0.0
O129 O 0.6356 0.64836 0.31889 0.0
H130 H 0.72847 0.71066 0.19886 0.0
H131 H 0.69785 0.61798 0.2975 0.0
H132 H 0.62405 0.60366 0.19898 0.0
H133 H 0.68396 0.66976 0.19968 0.0
H134 H 0.67821 0.64744 0.30134 0.0
O135 O 0.60586 0.71047 0.21851 0.0
H136 H 0.56448 0.63847 0.13867 0.0
H137 H 0.55665 0.69646 0.21306 0.0
H138 H 0.64328 0.57387 0.19374 0.0
H139 H 0.70513 0.74034 0.3092 0.0
H140 H 0.68044 0.58094 0.24327 0.0
H141 H 0.73933 0.7463 0.25403 0.0
O142 O 0.59816 0.61748 0.25429 0.0
H143 H 0.57472 0.6974 0.36647 0.0
H144 H 0.53331 0.63403 0.24424 0.0
H145 H 0.50625 0.62966 0.30936 0.0
H146 H 0.52693 0.66155 0.37105 0.0
H147 H 0.60115 0.7008 0.30096 0.0
H148 H 0.52172 0.69329 0.16276 0.0
H149 H 0.50783 0.66205 0.09965 0.0
O150 O 0.57305 0.63049 0.21721 0.0
C151 C 0.62673 0.66202 0.15863 0.0
C152 C 0.53532 0.64816 0.11516 0.0
C153 C 0.53101 0.68119 0.15721 0.0
N154 N 0.56261 0.66767 0.17881 0.0
C155 C 0.55512 0.65048 0.14413 0.0
C156 C 0.55089 0.68299 0.18548 0.0
C157 C 0.52321 0.66364 0.12183 0.0
C158 C 0.67557 0.70161 0.28444 0.0
N159 N 0.6697 0.68218 0.25383 0.0
C160 C 0.70065 0.72496 0.285 0.0
C161 C 0.71981 0.72831 0.25399 0.0
C162 C 0.71372 0.70834 0.22299 0.0
C163 C 0.68841 0.68529 0.22341 0.0
C164 C 0.6817 0.61472 0.27569 0.0
C165 C 0.64033 0.60696 0.22045 0.0
C166 C 0.67045 0.6313 0.27779 0.0
N167 N 0.65012 0.62737 0.25021 0.0
C168 C 0.65109 0.58999 0.21742 0.0
C169 C 0.67192 0.59395 0.24525 0.0
C170 C 0.57634 0.61246 0.23562 0.0
C171 C 0.56546 0.68342 0.33976 0.0
C172 C 0.54252 0.64787 0.27101 0.0
C173 C 0.52705 0.64537 0.30776 0.0
C174 C 0.53866 0.66328 0.34234 0.0
N175 N 0.5688 0.66769 0.26869 0.0
C176 C 0.5803 0.68533 0.30248 0.0
Co177 Co 0.98942 0.63026 0.75515 0.0
Co178 Co 0.92489 0.58902 0.71882 0.0
O179 O 0.95064 0.61678 0.75861 0.0
C180 C 0.97816 0.61557 0.84838 0.0
O181 O 0.9575 0.59272 0.83601 0.0
C182 C 0.90433 0.6282 0.73075 0.0
O183 O 0.92753 0.64688 0.7459 0.0
O184 O 0.94544 0.61096 0.66711 0.0
O185 O 0.98787 0.62775 0.69012 0.0
H186 H 0.8989 0.5281 0.58839 0.0
H187 H 0.97131 0.6618 0.80686 0.0
O188 O 0.99243 0.6332 0.82015 0.0
H189 H 0.02829 0.7227 0.69016 0.0
H190 H 0.08611 0.69032 0.79748 0.0
H191 H 0.02353 0.61478 0.70458 0.0
H192 H 0.0208 0.67672 0.69545 0.0
H193 H 0.03748 0.67379 0.80027 0.0
O194 O 0.90136 0.60582 0.71773 0.0
H195 H 0.93034 0.56239 0.63984 0.0
H196 H 0.86504 0.55734 0.71236 0.0
H197 H 0.07203 0.63082 0.7005 0.0
H198 H 0.97862 0.7078 0.80319 0.0
H199 H 0.10369 0.66886 0.74719 0.0
H200 H 1.0072 0.73856 0.74439 0.0
O201 O 0.98335 0.59318 0.75911 0.0
H202 H 0.88274 0.57486 0.86758 0.0
H203 H 0.9009 0.53137 0.74402 0.0
H204 H 0.87705 0.50453 0.80864 0.0
H205 H 0.8677 0.52625 0.871 0.0
H206 H 0.90692 0.60101 0.80266 0.0
H207 H 0.83292 0.5232 0.66146 0.0
H208 H 0.8498 0.50827 0.59904 0.0
O209 O 0.94622 0.57004 0.71884 0.0
C210 C 0.97069 0.6226 0.65997 0.0
C211 C 0.89129 0.5344 0.61552 0.0
C212 C 0.85426 0.53168 0.65648 0.0
N213 N 0.89956 0.5618 0.67918 0.0
C214 C 0.909 0.55377 0.64481 0.0
C215 C 0.87256 0.5511 0.68512 0.0
C216 C 0.86375 0.5233 0.62149 0.0
C217 C 0.98395 0.67515 0.7814 0.0
N218 N 0.99551 0.66653 0.75134 0.0
C219 C 0.98793 0.70113 0.77938 0.0
C220 C 1.00394 0.71837 0.74635 0.0
C221 C 0.01574 0.70947 0.71587 0.0
C222 C 0.01129 0.68334 0.71889 0.0
C223 C 0.07253 0.67378 0.7769 0.0
C224 C 0.0372 0.63146 0.72479 0.0
C225 C 0.04496 0.6643 0.77838 0.0
N226 N 0.0277 0.64349 0.75233 0.0
C227 C 0.06463 0.6404 0.72243 0.0
C228 C 0.08238 0.66173 0.74867 0.0
C229 C 0.96642 0.57193 0.73931 0.0
C230 C 0.88658 0.56513 0.84054 0.0
C231 C 0.89707 0.54103 0.77104 0.0
C232 C 0.88345 0.52569 0.80753 0.0
C233 C 0.8782 0.53787 0.84248 0.0
N234 N 0.90517 0.56775 0.76925 0.0
C235 C 0.90013 0.57983 0.80349 0.0
Co236 Co 0.36581 0.98675 0.25202 0.0
Co237 Co 0.34454 0.92286 0.21576 0.0
O238 O 0.34161 0.94786 0.2559 0.0
C239 C 0.36977 0.97615 0.34544 0.0
O240 O 0.37266 0.95585 0.33337 0.0
C241 C 0.28484 0.90227 0.22062 0.0
O242 O 0.28887 0.92682 0.22081 0.0
O243 O 0.34121 0.94254 0.16444 0.0
O244 O 0.36671 0.98507 0.18692 0.0
H245 H 0.37921 0.8984 0.08323 0.0
H246 H 0.31553 0.96619 0.30276 0.0
O247 O 0.36584 0.98994 0.31701 0.0
H248 H 0.30952 0.02258 0.18709 0.0
H249 H 0.3994 0.08304 0.29351 0.0
H250 H 0.41493 0.0219 0.2012 0.0
H251 H 0.34934 0.01724 0.1928 0.0
H252 H 0.36859 0.03416 0.29668 0.0
O253 O 0.30459 0.8982 0.21737 0.0
H254 H 0.37557 0.92923 0.13504 0.0
H255 H 0.31882 0.86317 0.21043 0.0
H256 H 0.44612 0.07067 0.19671 0.0
H257 H 0.27546 0.97124 0.29856 0.0
H258 H 0.43844 0.1016 0.24311 0.0
H259 H 0.27225 0.99954 0.2403 0.0
O260 O 0.3976 0.98187 0.25604 0.0
H261 H 0.31935 0.8803 0.36436 0.0
H262 H 0.3811 0.90193 0.23984 0.0
H263 H 0.38622 0.87924 0.30428 0.0
H264 H 0.35514 0.86818 0.36714 0.0
H265 H 0.31524 0.90337 0.29949 0.0
H266 H 0.32165 0.83162 0.15923 0.0
H267 H 0.35211 0.8492 0.09517 0.0
O268 O 0.38473 0.94569 0.21382 0.0
C269 C 0.35445 0.96776 0.15702 0.0
C270 C 0.36589 0.89049 0.11105 0.0
C271 C 0.33356 0.85301 0.15367 0.0
N272 N 0.34706 0.89804 0.17579 0.0
C273 C 0.36378 0.90786 0.14054 0.0
C274 C 0.33196 0.87098 0.18246 0.0
C275 C 0.35067 0.86289 0.11775 0.0
C276 C 0.31437 0.97873 0.27758 0.0
N277 N 0.33476 0.99143 0.24814 0.0
C278 C 0.29159 0.98143 0.27525 0.0
C279 C 0.28979 0.99728 0.24251 0.0
C280 C 0.31068 0.01019 0.21261 0.0
C281 C 0.33313 0.007 0.21592 0.0
C282 C 0.40293 0.06978 0.27305 0.0
C283 C 0.41136 0.03525 0.22128 0.0
C284 C 0.38558 0.04207 0.27476 0.0
N285 N 0.38983 0.02521 0.24886 0.0
C286 C 0.42913 0.06283 0.21869 0.0
C287 C 0.42482 0.08018 0.24476 0.0
C288 C 0.40262 0.96573 0.23518 0.0
C289 C 0.333 0.88497 0.33716 0.0
C290 C 0.36767 0.89744 0.26715 0.0
C291 C 0.37057 0.88445 0.3035 0.0
C292 C 0.35311 0.87822 0.33873 0.0
N293 N 0.34794 0.90405 0.26586 0.0
C294 C 0.33071 0.89795 0.30025 0.0
Co295 Co 0.38341 0.36056 0.75466 0.0
Co296 Co 0.4302 0.34479 0.7166 0.0
O297 O 0.40156 0.3394 0.75746 0.0
C298 C 0.40023 0.36562 0.84722 0.0
O299 O 0.42274 0.36733 0.83417 0.0
C300 C 0.39366 0.28487 0.71979 0.0
O301 O 0.37264 0.2881 0.72027 0.0
O302 O 0.40682 0.34047 0.66551 0.0
O303 O 0.38413 0.36035 0.68928 0.0
H304 H 0.48915 0.38419 0.58479 0.0
H305 H 0.3595 0.31101 0.8077 0.0
O306 O 0.38204 0.36185 0.81986 0.0
H307 H 0.29075 0.29643 0.69803 0.0
H308 H 0.31557 0.38677 0.80046 0.0
H309 H 0.39102 0.40691 0.70165 0.0
H310 H 0.33384 0.33896 0.70001 0.0
H311 H 0.33791 0.35972 0.80295 0.0
O312 O 0.41719 0.30517 0.71694 0.0
H313 H 0.45374 0.37763 0.63699 0.0
H314 H 0.46694 0.32233 0.7094 0.0
H315 H 0.36909 0.43432 0.69779 0.0
H316 H 0.31652 0.26825 0.80732 0.0
H317 H 0.33108 0.42431 0.74746 0.0
H318 H 0.28184 0.26072 0.75206 0.0
O319 O 0.41852 0.39443 0.75635 0.0
H320 H 0.4515 0.31968 0.86235 0.0
H321 H 0.48642 0.38507 0.74157 0.0
H322 H 0.51529 0.39135 0.80509 0.0
H323 H 0.4979 0.35847 0.86601 0.0
H324 H 0.42314 0.31437 0.79853 0.0
H325 H 0.50235 0.32813 0.65779 0.0
H326 H 0.51373 0.35932 0.59503 0.0
O327 O 0.44493 0.38463 0.71573 0.0
C328 C 0.39179 0.35058 0.65883 0.0
C329 C 0.48441 0.37058 0.61205 0.0
C330 C 0.49179 0.33908 0.65299 0.0
N331 N 0.45832 0.34968 0.67628 0.0
C332 C 0.46441 0.36682 0.64177 0.0
C333 C 0.47165 0.33581 0.68203 0.0
C334 C 0.49818 0.3566 0.61779 0.0
C335 C 0.3444 0.30794 0.78381 0.0
N336 N 0.34919 0.32742 0.75384 0.0
C337 C 0.32015 0.28366 0.78364 0.0
C338 C 0.30072 0.27943 0.75258 0.0
C339 C 0.30572 0.29945 0.72222 0.0
C340 C 0.33022 0.32345 0.72334 0.0
C341 C 0.33207 0.39129 0.77858 0.0
C342 C 0.37437 0.40232 0.72316 0.0
C343 C 0.34483 0.37608 0.77989 0.0
N344 N 0.3656 0.3816 0.7522 0.0
C345 C 0.36209 0.41796 0.72092 0.0
C346 C 0.34078 0.41235 0.74883 0.0
C347 C 0.44039 0.40124 0.73632 0.0
C348 C 0.45933 0.3341 0.83595 0.0
C349 C 0.47861 0.37075 0.76804 0.0
C350 C 0.49511 0.37437 0.80387 0.0
C351 C 0.48535 0.35589 0.83802 0.0
N352 N 0.45311 0.34931 0.76623 0.0
C353 C 0.44341 0.33112 0.79959 0.0
Co354 Co 0.63499 0.98895 0.25754 0.0
Co355 Co 0.59374 0.92413 0.29314 0.0
O356 O 0.62173 0.95016 0.25381 0.0
C357 C 0.62148 0.97677 0.16408 0.0
O358 O 0.6002 0.95423 0.17564 0.0
C359 C 0.63405 0.90476 0.28463 0.0
O360 O 0.65327 0.92864 0.27301 0.0
O361 O 0.61517 0.94456 0.34525 0.0
O362 O 0.63249 0.98711 0.32255 0.0
H363 H 0.53177 0.89725 0.42231 0.0
H364 H 0.6666 0.97106 0.2056 0.0
O365 O 0.63785 0.99245 0.1926 0.0
H366 H 0.72752 0.02801 0.32228 0.0
H367 H 0.6945 0.08589 0.21612 0.0
H368 H 0.61921 0.02258 0.30877 0.0
H369 H 0.68147 0.02038 0.31719 0.0
H370 H 0.67828 0.03735 0.2127 0.0
O371 O 0.61089 0.90097 0.29462 0.0
H372 H 0.56638 0.92904 0.37159 0.0
H373 H 0.56234 0.86425 0.29892 0.0
H374 H 0.63492 0.07098 0.31346 0.0
H375 H 0.71266 0.97849 0.20909 0.0
H376 H 0.67284 0.10301 0.26691 0.0
H377 H 0.74343 0.00706 0.26788 0.0
O378 O 0.59788 0.98271 0.25349 0.0
H379 H 0.58094 0.88082 0.14571 0.0
H380 H 0.5364 0.90036 0.26602 0.0
H381 H 0.51019 0.8761 0.20114 0.0
H382 H 0.53243 0.86604 0.14043 0.0
H383 H 0.6065 0.90552 0.21079 0.0
H384 H 0.52788 0.83179 0.34908 0.0
H385 H 0.51228 0.84824 0.41121 0.0
O386 O 0.57445 0.94516 0.29265 0.0
C387 C 0.627 0.96978 0.35257 0.0
C388 C 0.53836 0.88984 0.39531 0.0
C389 C 0.53621 0.8531 0.35426 0.0
N390 N 0.56632 0.89854 0.33223 0.0
C391 C 0.55792 0.90774 0.36644 0.0
C392 C 0.5558 0.87159 0.32604 0.0
C393 C 0.52746 0.86234 0.38909 0.0
C394 C 0.67996 0.98371 0.23102 0.0
N395 N 0.67133 0.99522 0.26116 0.0
C396 C 0.70598 0.98776 0.23295 0.0
C397 C 0.72321 1.00376 0.26599 0.0
C398 C 0.71429 0.01548 0.29656 0.0
C399 C 0.68814 0.01097 0.29363 0.0
C400 C 0.67802 0.07215 0.23667 0.0
C401 C 0.63585 0.03641 0.28863 0.0
C402 C 0.66873 0.04463 0.23485 0.0
N403 N 0.648 0.02717 0.26086 0.0
C404 C 0.6446 0.06378 0.29134 0.0
C405 C 0.66586 0.08174 0.26517 0.0
C406 C 0.5765 0.96558 0.27271 0.0
C407 C 0.57099 0.885 0.172 0.0
C408 C 0.54631 0.89634 0.23962 0.0
C409 C 0.53131 0.88244 0.20303 0.0
C410 C 0.5438 0.87677 0.16902 0.0
N411 N 0.57299 0.90436 0.24237 0.0
C412 C 0.58534 0.89885 0.20912 0.0
Co413 Co 0.6527 0.63211 0.75439 0.0
Co414 Co 0.66818 0.5854 0.79293 0.0
O415 O 0.67365 0.61384 0.75179 0.0
C416 C 0.6461 0.61477 0.66205 0.0
O417 O 0.64138 0.5912 0.67581 0.0
C418 C 0.72805 0.62164 0.79052 0.0
O419 O 0.72486 0.64265 0.79308 0.0
O420 O 0.67307 0.60922 0.84369 0.0
O421 O 0.65252 0.63125 0.81978 0.0
H422 H 0.62927 0.52736 0.92582 0.0
H423 H 0.70273 0.65582 0.70251 0.0
O424 O 0.6521 0.63371 0.68915 0.0
H425 H 0.71679 0.72456 0.81183 0.0
H426 H 0.62731 0.70044 0.70798 0.0
H427 H 0.60606 0.62458 0.80649 0.0
H428 H 0.67409 0.68166 0.80903 0.0
H429 H 0.65419 0.6779 0.70613 0.0
O430 O 0.70769 0.59807 0.7916 0.0
H431 H 0.63578 0.56255 0.87319 0.0
H432 H 0.69024 0.54835 0.80024 0.0
H433 H 0.57881 0.64671 0.80974 0.0
H434 H 0.74568 0.6986 0.70375 0.0
H435 H 0.58938 0.68492 0.7602 0.0
H436 H 0.75294 0.73328 0.75883 0.0
O437 O 0.61873 0.59702 0.75243 0.0
H438 H 0.69112 0.5631 0.64622 0.0
H439 H 0.62745 0.52907 0.76942 0.0
H440 H 0.62011 0.49984 0.70597 0.0
H441 H 0.65212 0.51679 0.64382 0.0
H442 H 0.69753 0.5918 0.71008 0.0
H443 H 0.68448 0.51315 0.85227 0.0
H444 H 0.65374 0.50239 0.91553 0.0
O445 O 0.62841 0.57109 0.79457 0.0
C446 C 0.66263 0.62398 0.85028 0.0
C447 C 0.64269 0.53183 0.89835 0.0
C448 C 0.67371 0.52389 0.8571 0.0
N449 N 0.66331 0.55746 0.83361 0.0
C450 C 0.64642 0.55171 0.86839 0.0
C451 C 0.67696 0.54391 0.82783 0.0
C452 C 0.65644 0.51785 0.89257 0.0
C453 C 0.70569 0.67091 0.72635 0.0
N454 N 0.68596 0.66623 0.75574 0.0
C455 C 0.73007 0.69505 0.72698 0.0
C456 C 0.73415 0.71448 0.75794 0.0
C457 C 0.71389 0.70959 0.78773 0.0
C458 C 0.68979 0.6852 0.78615 0.0
C459 C 0.62254 0.68384 0.72978 0.0
C460 C 0.61088 0.6413 0.78503 0.0
C461 C 0.63764 0.67096 0.72881 0.0
N462 N 0.6318 0.65007 0.7564 0.0
C463 C 0.59534 0.65371 0.78693 0.0
C464 C 0.60126 0.67513 0.7591 0.0
C465 C 0.61186 0.57535 0.7732 0.0
C466 C 0.67708 0.55545 0.67317 0.0
C467 C 0.64143 0.53666 0.74245 0.0
C468 C 0.6372 0.51997 0.70665 0.0
C469 C 0.65517 0.52949 0.6718 0.0
N470 N 0.66298 0.56211 0.74358 0.0
C471 C 0.68068 0.57157 0.70952 0.0
Co472 Co 0.02603 0.64824 0.25648 0.0
Co473 Co 0.09075 0.67308 0.29298 0.0
O474 O 0.0646 0.67438 0.2532 0.0
C475 C 0.03769 0.64555 0.16318 0.0
O476 O 0.05874 0.64402 0.17546 0.0
C477 C 0.10966 0.73256 0.28207 0.0
O478 O 0.08617 0.72751 0.26745 0.0
O479 O 0.06978 0.6737 0.34465 0.0
O480 O 0.02753 0.64714 0.32153 0.0
H481 H 0.11807 0.63919 0.4232 0.0
H482 H 0.04294 0.69784 0.20526 0.0
O483 O 0.02306 0.6483 0.19149 0.0
H484 H 0.98472 0.69949 0.32195 0.0
H485 H 0.92905 0.60932 0.21394 0.0
H486 H 0.99292 0.59823 0.30664 0.0
H487 H 0.99355 0.66188 0.31629 0.0
H488 H 0.97742 0.64241 0.21136 0.0
O489 O 0.11333 0.71345 0.29434 0.0
H490 H 0.08612 0.64119 0.37179 0.0
H491 H 0.15063 0.70258 0.29956 0.0
H492 H 0.94469 0.56477 0.31051 0.0
H493 H 0.03429 0.73567 0.20929 0.0
H494 H 0.91239 0.57021 0.26392 0.0
H495 H 1.00509 0.7367 0.2681 0.0
O496 O 0.03323 0.61795 0.25222 0.0
H497 H 0.13297 0.70249 0.14456 0.0
H498 H 0.11614 0.64073 0.26742 0.0
H499 H 0.14054 0.63874 0.20275 0.0
H500 H 0.14922 0.66987 0.14074 0.0
H501 H 0.10827 0.70347 0.20953 0.0
H502 H 0.18324 0.70142 0.35042 0.0
H503 H 0.16703 0.66947 0.41267 0.0
O504 O 0.07039 0.63277 0.29268 0.0
C505 C 0.04457 0.65953 0.35171 0.0
C506 C 0.12539 0.65317 0.39615 0.0
C507 C 0.16197 0.68812 0.35534 0.0
N508 N 0.11647 0.67189 0.3326 0.0
C509 C 0.1074 0.65435 0.36688 0.0
C510 C 0.14338 0.68874 0.32674 0.0
C511 C 0.15285 0.67018 0.39025 0.0
C512 C 0.03003 0.69804 0.2307 0.0
N513 N 0.01886 0.67772 0.26056 0.0
C514 C 0.02529 0.71956 0.23293 0.0
C515 C 0.00893 0.72015 0.26597 0.0
C516 C 0.99754 0.6993 0.29624 0.0
C517 C 1.00274 0.67812 0.29301 0.0
C518 C 0.94292 0.60676 0.23447 0.0
C519 C 0.97897 0.60082 0.28647 0.0
C520 C 0.97034 0.62541 0.23311 0.0
N521 N 0.98795 0.62238 0.25911 0.0
C522 C 0.95169 0.58177 0.28871 0.0
C523 C 0.93358 0.58482 0.26253 0.0
C524 C 0.05055 0.6142 0.27197 0.0
C525 C 0.12942 0.6889 0.17144 0.0
C526 C 0.11967 0.65423 0.24055 0.0
C527 C 0.1336 0.65308 0.20403 0.0
C528 C 0.13848 0.67056 0.16928 0.0
N529 N 0.11089 0.67232 0.24254 0.0
C530 C 0.11557 0.68947 0.2085 0.0
Co531 Co 0.38307 0.02446 0.75293 0.0
Co532 Co 0.42636 0.08685 0.79322 0.0
O533 O 0.39872 0.06353 0.75107 0.0
C534 C 0.39813 0.0363 0.65986 0.0
O535 O 0.42146 0.05608 0.67262 0.0
C536 C 0.38973 0.11024 0.78481 0.0
O537 O 0.36888 0.08624 0.77916 0.0
O538 O 0.40173 0.06685 0.84256 0.0
O539 O 0.38542 0.0248 0.81825 0.0
H540 H 0.48201 0.1061 0.9291 0.0
H541 H 0.3541 0.04647 0.70376 0.0
O542 O 0.38008 0.02248 0.68783 0.0
H543 H 0.29096 0.98895 0.81774 0.0
H544 H 0.31903 0.92929 0.70717 0.0
H545 H 0.39591 0.98769 0.80131 0.0
H546 H 0.33585 0.99371 0.81161 0.0
H547 H 0.33801 0.97835 0.70645 0.0
O548 O 0.41283 0.11308 0.79198 0.0
H549 H 0.44815 0.07735 0.87475 0.0
H550 H 0.46225 0.14609 0.80215 0.0
H551 H 0.37741 0.93872 0.80335 0.0
H552 H 0.30922 0.04197 0.70832 0.0
H553 H 0.3387 0.90916 0.75603 0.0
H554 H 0.27734 0.01312 0.76576 0.0
O555 O 0.41941 0.0288 0.74805 0.0
H556 H 0.44968 0.13312 0.64738 0.0
H557 H 0.48364 0.10477 0.77236 0.0
H558 H 0.51362 0.12792 0.71022 0.0
H559 H 0.49671 0.14235 0.64718 0.0
H560 H 0.42026 0.10958 0.70993 0.0
H561 H 0.49609 0.17558 0.8559 0.0
H562 H 0.50625 0.15559 0.91985 0.0
O563 O 0.44196 0.06237 0.79534 0.0
C564 C 0.38976 0.04153 0.84887 0.0
C565 C 0.4778 0.11504 0.90133 0.0
C566 C 0.48568 0.15404 0.86028 0.0
N567 N 0.45329 0.11 0.83521 0.0
C568 C 0.45868 0.09887 0.8704 0.0
C569 C 0.46643 0.13724 0.83001 0.0
C570 C 0.49138 0.14281 0.89614 0.0
C571 C 0.34024 0.03369 0.72857 0.0
N572 N 0.3476 0.0204 0.75737 0.0
C573 C 0.3149 0.0313 0.73112 0.0
C574 C 0.29704 0.01515 0.7634 0.0
C575 C 0.30468 1.00161 0.79261 0.0
C576 C 0.33019 1.0045 0.7891 0.0
C577 C 0.33587 0.94195 0.72802 0.0
C578 C 0.37896 0.97495 0.78082 0.0
C579 C 0.34673 0.96975 0.72769 0.0
N580 N 0.36791 0.98585 0.75409 0.0
C581 C 0.36861 0.94724 0.78204 0.0
C582 C 0.34691 0.93067 0.75544 0.0
C583 C 0.44012 0.04356 0.77088 0.0
C584 C 0.45731 0.12702 0.67472 0.0
C585 C 0.47607 0.11087 0.745 0.0
C586 C 0.49318 0.12405 0.70994 0.0
C587 C 0.48368 0.13215 0.6746 0.0
N588 N 0.45022 0.10593 0.74491 0.0
C589 C 0.44078 0.1138 0.71035 0.0
Co590 Co 0.36741 0.37969 0.25491 0.0
Co591 Co 0.34306 0.42093 0.29014 0.0
O592 O 0.34238 0.39359 0.25051 0.0
C593 C 0.37229 0.39724 0.16254 0.0
O594 O 0.36962 0.41754 0.17528 0.0
C595 C 0.28402 0.38009 0.27681 0.0
O596 O 0.29009 0.36348 0.25755 0.0
O597 O 0.34333 0.40029 0.34257 0.0
O598 O 0.36468 0.37876 0.31991 0.0
H599 H 0.37728 0.48378 0.41828 0.0
H600 H 0.32066 0.3517 0.19582 0.0
O601 O 0.37131 0.38017 0.18993 0.0
H602 H 0.31018 0.28392 0.30452 0.0
H603 H 0.4061 0.32164 0.21086 0.0
H604 H 0.41352 0.39158 0.3123 0.0
H605 H 0.34903 0.32977 0.30749 0.0
H606 H 0.3745 0.33871 0.20611 0.0
O607 O 0.30246 0.40224 0.29249 0.0
H608 H 0.37573 0.4498 0.36744 0.0
H609 H 0.31198 0.44971 0.29731 0.0
H610 H 0.44541 0.37491 0.31841 0.0
H611 H 0.28173 0.30593 0.19104 0.0
H612 H 0.44181 0.33969 0.26743 0.0
H613 H 0.27621 0.27171 0.24584 0.0
O614 O 0.39882 0.41668 0.25697 0.0
H615 H 0.31218 0.43281 0.14203 0.0
H616 H 0.3745 0.47844 0.26395 0.0
H617 H 0.37547 0.50462 0.19967 0.0
H618 H 0.34403 0.48184 0.13817 0.0
H619 H 0.31227 0.40734 0.20642 0.0
H620 H 0.3127 0.4835 0.34764 0.0
H621 H 0.3456 0.50085 0.40854 0.0
O622 O 0.38327 0.44129 0.28888 0.0
C623 C 0.35431 0.38608 0.34985 0.0
C624 C 0.3629 0.47642 0.3918 0.0
C625 C 0.32662 0.47623 0.3522 0.0
N626 N 0.34389 0.44786 0.32931 0.0
C627 C 0.36197 0.45723 0.36285 0.0
C628 C 0.32626 0.45703 0.32389 0.0
C629 C 0.3451 0.48597 0.38635 0.0
C630 C 0.31851 0.33687 0.21958 0.0
N631 N 0.33698 0.3435 0.25218 0.0
C632 C 0.29637 0.31101 0.2168 0.0
C633 C 0.29326 0.29183 0.24759 0.0
C634 C 0.31228 0.29868 0.28058 0.0
C635 C 0.33414 0.32475 0.28234 0.0
C636 C 0.40784 0.33694 0.23332 0.0
C637 C 0.41171 0.37612 0.29019 0.0
C638 C 0.39003 0.34673 0.23075 0.0
N639 N 0.39203 0.36597 0.25915 0.0
C640 C 0.42988 0.36682 0.29372 0.0
C641 C 0.42786 0.34707 0.26508 0.0
C642 C 0.40233 0.43857 0.27325 0.0
C643 C 0.32584 0.44301 0.16876 0.0
C644 C 0.36083 0.46831 0.23732 0.0
C645 C 0.36142 0.48328 0.20102 0.0
C646 C 0.34377 0.4705 0.16655 0.0
N647 N 0.34308 0.44135 0.23946 0.0
C648 C 0.32582 0.42869 0.20561 0.0
Co649 Co 0.99124 0.36364 0.75918 0.0
Co650 Co 0.92635 0.33914 0.7953 0.0
O651 O 0.95253 0.33773 0.75559 0.0
C652 C 0.97883 0.36513 0.66586 0.0
O653 O 0.95626 0.36373 0.67769 0.0
C654 C 0.90711 0.27962 0.78414 0.0
O655 O 0.9305 0.28457 0.76918 0.0
O656 O 0.94712 0.33836 0.84711 0.0
O657 O 0.98955 0.36414 0.82423 0.0
H658 H 0.89912 0.37333 0.92524 0.0
H659 H 0.97399 0.31442 0.7068 0.0
O660 O 0.9946 0.36443 0.6942 0.0
H661 H 0.03156 0.31107 0.82303 0.0
H662 H 0.08827 0.40232 0.71709 0.0
H663 H 0.02449 0.41305 0.81059 0.0
H664 H 0.02326 0.34906 0.81839 0.0
H665 H 0.03984 0.36953 0.71384 0.0
O666 O 0.9036 0.29878 0.79672 0.0
H667 H 0.93103 0.37113 0.87401 0.0
H668 H 0.86646 0.30988 0.80172 0.0
H669 H 0.07278 0.44619 0.81512 0.0
H670 H 0.9821 0.27622 0.70983 0.0
H671 H 0.10504 0.44093 0.76813 0.0
H672 H 0.01098 0.27433 0.76839 0.0
O673 O 0.98444 0.39415 0.75554 0.0
H674 H 0.8831 0.30908 0.64764 0.0
H675 H 0.90157 0.37198 0.76935 0.0
H676 H 0.8769 0.37382 0.70495 0.0
H677 H 0.86736 0.3421 0.64354 0.0
H678 H 0.90819 0.30833 0.71222 0.0
H679 H 0.83387 0.31125 0.85239 0.0
H680 H 0.85015 0.34323 0.91459 0.0
O681 O 0.94691 0.37947 0.79499 0.0
C682 C 0.97234 0.35202 0.8543 0.0
C683 C 0.89178 0.35934 0.89821 0.0
C684 C 0.85516 0.32447 0.85737 0.0
N685 N 0.90064 0.34048 0.8348 0.0
C686 C 0.90975 0.35804 0.86905 0.0
C687 C 0.87372 0.32373 0.82886 0.0
C688 C 0.8643 0.34243 0.89224 0.0
C689 C 0.98677 0.31384 0.73214 0.0
N690 N 0.99806 0.3339 0.76242 0.0
C691 C 0.9912 0.29211 0.7338 0.0
C692 C 1.00737 0.29104 0.76671 0.0
C693 C 0.01889 0.31163 0.79741 0.0
C694 C 0.01399 0.33303 0.79475 0.0
C695 C 0.07442 0.40479 0.73782 0.0
C696 C 0.03842 0.41052 0.79026 0.0
C697 C 0.04697 0.3863 0.7361 0.0
N698 N 0.02938 0.38923 0.76234 0.0
C699 C 0.06573 0.4294 0.79287 0.0
C700 C 0.08382 0.42645 0.76647 0.0
C701 C 0.96713 0.39805 0.77497 0.0
C702 C 0.88702 0.32293 0.67426 0.0
C703 C 0.89774 0.35828 0.74268 0.0
C704 C 0.88363 0.35932 0.70634 0.0
C705 C 0.87825 0.3415 0.67194 0.0
N706 N 0.90625 0.33998 0.74482 0.0
C707 C 0.90107 0.32247 0.71114 0.0
H708 H 0.07207 0.38731 0.08857 0.0
H709 H 0.99456 0.37169 0.1346 0.0
H710 H 0.05415 0.37576 0.01449 0.0
H711 H 0.97716 0.36148 0.06101 0.0
H712 H 0.94529 0.32507 0.9287 0.0
H713 H 0.96314 0.33105 1.00277 0.0
H714 H 0.04064 0.39276 0.95636 0.0
H715 H 0.02329 0.38596 0.88275 0.0
C716 C 0.05129 0.38151 0.08295 0.0
C717 C 0.03487 0.3805 0.1177 0.0
C718 C 0.04099 0.37502 0.04039 0.0
C719 C 0.01411 0.36768 0.03147 0.0
C720 C 0.99774 0.36648 0.06642 0.0
C721 C 1.0079 0.37264 0.10884 0.0
C722 C 0.96617 0.33977 0.93435 0.0
C723 C 0.98275 0.355 0.89962 0.0
C724 C 0.97643 0.34334 0.9769 0.0
C725 C 1.00343 0.36246 0.98584 0.0
C726 C 0.01995 0.37749 0.95092 0.0
C727 C 0.00983 0.37371 0.9085 0.0
H728 H 0.62674 0.94256 0.42687 0.0
H729 H 0.64366 0.02056 0.38129 0.0
H730 H 0.6384 0.96026 0.50108 0.0
H731 H 0.65397 0.03775 0.45496 0.0
H732 H 0.69052 0.06936 0.58666 0.0
H733 H 0.68443 0.05128 0.51281 0.0
H734 H 0.62213 0.97419 0.55964 0.0
H735 H 0.6291 0.99179 0.63317 0.0
C736 C 0.63283 0.9634 0.43263 0.0
C737 C 0.63422 0.98004 0.39797 0.0
C738 C 0.6394 0.97357 0.47526 0.0
C739 C 0.64719 1.00054 0.48431 0.0
C740 C 0.64866 0.01709 0.44945 0.0
C741 C 0.64245 0.00707 0.40698 0.0
C742 C 0.6757 0.04851 0.58117 0.0
C743 C 0.6603 0.03214 0.61596 0.0
C744 C 0.67204 0.03812 0.53873 0.0
C745 C 0.65265 0.0112 0.52993 0.0
C746 C 0.63757 0.99482 0.56496 0.0
C747 C 0.64145 1.00508 0.60732 0.0
H748 H 0.66515 0.65045 0.13196 0.0
H749 H 0.60532 0.66783 0.0818 0.0
H750 H 0.6761 0.64387 0.05845 0.0
H751 H 0.61508 0.65952 0.00786 0.0
H752 H 0.65097 0.66256 0.87589 0.0
H753 H 0.64466 0.67414 0.94929 0.0
H754 H 0.66063 0.61362 1.00117 0.0
H755 H 0.6686 0.60322 0.92758 0.0
C756 C 0.65432 0.65297 0.10523 0.0
C757 C 0.63442 0.65988 0.11304 0.0
C758 C 0.66039 0.64879 0.06281 0.0
C759 C 0.64638 0.65083 0.02677 0.0
C760 C 0.62669 0.65813 0.03451 0.0
C761 C 0.62094 0.66281 0.07706 0.0
C762 C 0.65359 0.65198 0.90293 0.0
C763 C 0.66051 0.63204 0.89562 0.0
C764 C 0.64959 0.65842 0.94524 0.0
C765 C 0.6519 0.64479 0.98161 0.0
C766 C 0.6591 0.62499 0.97429 0.0
C767 C 0.66357 0.61887 0.93191 0.0
H768 H 0.99387 0.62444 0.37988 0.0
H769 H 0.07094 0.68695 0.42621 0.0
H770 H 0.97621 0.61728 0.45333 0.0
H771 H 0.05276 0.68058 0.50011 0.0
H772 H 0.02179 0.63998 0.63201 0.0
H773 H 0.03933 0.65034 0.55852 0.0
H774 H 0.9617 0.6336 0.51108 0.0
H775 H 0.94367 0.62192 0.5851 0.0
C776 C 1.00705 0.63695 0.40568 0.0
C777 C 0.03397 0.65624 0.39696 0.0
C778 C 0.99675 0.63296 0.448 0.0
C779 C 0.01291 0.64833 0.48299 0.0
C780 C 0.03976 0.66801 0.4742 0.0
C781 C 0.0502 0.6718 0.43175 0.0
C782 C 1.00834 0.63852 0.60607 0.0
C783 C 0.98118 0.62995 0.61467 0.0
C784 C 0.01857 0.64476 0.5637 0.0
C785 C 1.00208 0.64294 0.52852 0.0
C786 C 0.97498 0.63485 0.53716 0.0
C787 C 0.96461 0.62828 0.57968 0.0
H788 H 0.37256 0.9903 0.87615 0.0
H789 H 0.38896 0.06776 0.92361 0.0
H790 H 0.36221 0.97249 0.9496 0.0
H791 H 0.37722 0.04947 0.99737 0.0
H792 H 0.38802 0.01865 0.1282 0.0
H793 H 0.39435 0.03592 0.05468 0.0
H794 H 0.33254 0.95832 0.0088 0.0
H795 H 0.32707 0.94053 0.08291 0.0
C796 C 0.37361 1.00352 0.90219 0.0
C797 C 0.38182 0.03061 0.89383 0.0
C798 C 0.36738 0.99314 0.94452 0.0
C799 C 0.36885 0.00942 0.97981 0.0
C800 C 0.37634 0.03637 0.97127 0.0
C801 C 0.38293 0.04688 0.92886 0.0
C802 C 0.37564 1.00514 0.10261 0.0
C803 C 0.35705 0.97806 0.11167 0.0
C804 C 0.37913 0.01522 0.06021 0.0
C805 C 0.36393 0.99867 0.02543 0.0
C806 C 0.34495 0.97164 0.03454 0.0
C807 C 0.34166 0.96142 0.07711 0.0
H808 H 0.34851 0.40764 0.42646 0.0
H809 H 0.36596 0.34775 0.37686 0.0
H810 H 0.35666 0.39795 0.50054 0.0
H811 H 0.3725 0.33695 0.45056 0.0
H812 H 0.41299 0.34489 0.58184 0.0
H813 H 0.40275 0.35275 0.50806 0.0
H814 H 0.34167 0.36817 0.55907 0.0
H815 H 0.35303 0.3619 0.63268 0.0
C816 C 0.35353 0.39203 0.43135 0.0
C817 C 0.35651 0.3785 0.39549 0.0
C818 C 0.35811 0.38633 0.47398 0.0
C819 C 0.36541 0.36667 0.48193 0.0
C820 C 0.36755 0.35263 0.44601 0.0
C821 C 0.36342 0.35863 0.4035 0.0
C822 C 0.39725 0.34977 0.57728 0.0
C823 C 0.38385 0.35268 0.61339 0.0
C824 C 0.39123 0.35417 0.5348 0.0
C825 C 0.37133 0.36119 0.52719 0.0
C826 C 0.35748 0.36337 0.56336 0.0
C827 C 0.3638 0.35941 0.60579 0.0
H828 H 0.02529 0.65536 0.88169 0.0
H829 H 0.94986 0.58667 0.91996 0.0
H830 H 0.03986 0.66273 0.95758 0.0
H831 H 0.96459 0.59421 0.99622 0.0
H832 H 0.99013 0.6371 0.12995 0.0
H833 H 0.97559 0.6298 0.05404 0.0
H834 H 0.05174 0.6387 0.01522 0.0
H835 H 0.06645 0.64599 0.0915 0.0
C836 C 0.01174 0.64188 0.9063 0.0
C837 C 0.98636 0.62041 0.89478 0.0
C838 C 0.02022 0.64602 0.94973 0.0
C839 C 1.00342 0.629 0.98271 0.0
C840 C 0.9779 0.60773 0.9714 0.0
C841 C 0.9695 0.60337 0.92779 0.0
C842 C 1.00388 0.63762 0.10529 0.0
C843 C 0.0295 0.64216 0.11676 0.0
C844 C 0.99542 0.63323 0.06185 0.0
C845 C 0.01248 0.63357 0.02882 0.0
C846 C 0.03824 0.63847 0.04008 0.0
C847 C 0.04662 0.64256 0.0837 0.0
H848 H 0.36948 0.94786 0.41765 0.0
H849 H 0.37765 0.02366 0.37785 0.0
H850 H 0.3762 0.9628 0.49384 0.0
H851 H 0.38451 0.03848 0.45366 0.0
H852 H 0.42758 0.0644 0.58857 0.0
H853 H 0.42037 0.04959 0.51231 0.0
H854 H 0.35102 0.97483 0.55033 0.0
H855 H 0.35797 0.98953 0.6262 0.0
C856 C 0.37266 0.96764 0.42513 0.0
C857 C 0.37298 0.98453 0.39174 0.0
C858 C 0.37642 0.97614 0.46868 0.0
C859 C 0.38097 1.00183 0.47953 0.0
C860 C 0.38131 0.01869 0.44616 0.0
C861 C 0.37717 0.01008 0.40279 0.0
C862 C 0.41074 0.04488 0.58059 0.0
C863 C 0.39334 0.02819 0.61341 0.0
C864 C 0.40658 0.03644 0.53699 0.0
C865 C 0.38521 0.01101 0.52555 0.0
C866 C 0.3678 0.9944 0.55832 0.0
C867 C 0.3717 1.00295 0.60172 0.0
H868 H 0.37991 0.39584 0.87776 0.0
H869 H 0.4126 0.34657 0.91982 0.0
H870 H 0.37478 0.4054 0.95318 0.0
H871 H 0.40507 0.35365 0.99572 0.0
H872 H 0.40957 0.38647 0.13021 0.0
H873 H 0.41768 0.38042 0.05435 0.0
H874 H 0.35167 0.39196 0.01566 0.0
H875 H 0.34577 0.40069 0.09148 0.0
C876 C 0.38557 0.38669 0.90348 0.0
C877 C 0.39666 0.37052 0.89323 0.0
C878 C 0.38238 0.39191 0.94693 0.0
C879 C 0.3893 0.38027 0.9814 0.0
C880 C 0.40008 0.36368 0.97067 0.0
C881 C 0.40419 0.3593 0.92708 0.0
C882 C 0.39709 0.38799 0.10515 0.0
C883 C 0.37719 0.39418 0.11634 0.0
C884 C 0.40144 0.38417 0.06153 0.0
C885 C 0.38526 0.38538 0.02806 0.0
C886 C 0.36512 0.39144 0.0398 0.0
C887 C 0.36148 0.39627 0.08338 0.0
H888 H 0.02875 0.39821 0.63506 0.0
H889 H 0.94809 0.34229 0.5936 0.0
H890 H 0.04342 0.40688 0.55956 0.0
H891 H 0.96295 0.34874 0.51782 0.0
H892 H 0.98994 0.38142 0.38258 0.0
H893 H 0.9754 0.37505 0.45819 0.0
H894 H 0.05484 0.39304 0.49878 0.0
H895 H 0.06969 0.40189 0.42301 0.0
C896 C 0.01426 0.38745 0.60951 0.0
C897 C 0.98732 0.36965 0.61988 0.0
C898 C 0.02269 0.39217 0.56606 0.0
C899 C 1.00456 0.37848 0.53186 0.0
C900 C 0.97754 0.36029 0.54271 0.0
C901 C 0.96894 0.35631 0.58621 0.0
C902 C 1.00425 0.38417 0.40793 0.0
C903 C 0.03091 0.39221 0.39727 0.0
C904 C 0.99587 0.38022 0.45141 0.0
C905 C 0.01374 0.38327 0.48531 0.0
C906 C 0.04049 0.39106 0.47416 0.0
C907 C 0.04907 0.39595 0.43066 0.0
H908 H 0.61906 0.98822 0.88063 0.0
H909 H 0.67501 0.0688 0.92224 0.0
H910 H 0.61078 0.97336 0.95604 0.0
H911 H 0.66905 0.05375 0.99791 0.0
H912 H 0.63681 0.02635 0.13339 0.0
H913 H 0.64323 0.04119 0.05795 0.0
H914 H 0.62464 0.96174 0.01638 0.0
H915 H 0.61568 0.9466 0.09198 0.0
C916 C 0.62993 1.00264 0.90621 0.0
C917 C 0.64761 0.02961 0.89594 0.0
C918 C 0.62545 0.99411 0.9496 0.0
C919 C 0.63929 0.01216 0.98382 0.0
C920 C 0.65739 0.03921 0.97304 0.0
C921 C 0.6611 0.04792 0.9296 0.0
C922 C 0.63397 0.01212 0.10785 0.0
C923 C 0.62568 0.98536 0.11818 0.0
C924 C 0.63795 0.02066 0.06446 0.0
C925 C 0.63468 1.00286 0.03032 0.0
C926 C 0.62675 0.97605 0.04117 0.0
C927 C 0.62181 0.9673 0.08458 0.0
H928 H 0.58839 0.6441 0.41735 0.0
H929 H 0.65513 0.63378 0.38013 0.0
H930 H 0.59538 0.63681 0.49395 0.0
H931 H 0.66183 0.6263 0.45631 0.0
H932 H 0.6431 0.58389 0.59179 0.0
H933 H 0.63568 0.59069 0.5152 0.0
H934 H 0.63278 0.66174 0.55092 0.0
H935 H 0.64042 0.65521 0.62712 0.0
C936 C 0.60449 0.64026 0.42548 0.0
C937 C 0.62124 0.6396 0.39272 0.0
C938 C 0.60853 0.63618 0.46926 0.0
C939 C 0.6291 0.63091 0.48094 0.0
C940 C 0.64569 0.63007 0.44816 0.0
C941 C 0.64194 0.63456 0.40459 0.0
C942 C 0.64096 0.60098 0.58324 0.0
C943 C 0.64244 0.61904 0.61548 0.0
C944 C 0.63678 0.6049 0.53946 0.0
C945 C 0.63354 0.62668 0.52726 0.0
C946 C 0.63494 0.64465 0.5595 0.0
C947 C 0.63953 0.64099 0.60307 0.0
H948 H 0.01035 0.56782 0.23502 0.0
H949 H 0.08603 0.59962 0.30322 0.0
H950 H 0.00918 0.52492 0.22619 0.0
H951 H 0.08506 0.55725 0.29303 0.0
H952 H 0.08914 0.49104 0.21376 0.0
H953 H 0.08714 0.53209 0.22224 0.0
H954 H 1.00797 0.48681 0.27807 0.0
H955 H 0.01009 0.44557 0.27089 0.0
C956 C 0.02669 0.56574 0.24817 0.0
C957 C 0.04849 0.58743 0.26927 0.0
C958 C 0.02597 0.54117 0.24311 0.0
C959 C 0.04721 0.53796 0.25841 0.0
C960 C 0.06864 0.55935 0.28031 0.0
C961 C 0.06914 0.58366 0.28611 0.0
C962 C 0.0713 0.48969 0.22799 0.0
C963 C 0.04999 0.46495 0.24237 0.0
C964 C 0.07018 0.51326 0.23279 0.0
C965 C 0.04751 0.51262 0.25116 0.0
C966 C 0.02569 0.48783 0.26381 0.0
C967 C 0.02699 0.46426 0.25979 0.0
H968 H 0.4807 0.05829 0.83006 0.0
H969 H 0.45309 0.02065 0.70401 0.0
H970 H 0.52147 0.05544 0.82181 0.0
H971 H 0.49419 0.01833 0.69558 0.0
H972 H 0.58907 0.06012 0.68068 0.0
H973 H 0.5451 0.05653 0.68873 0.0
H974 H 0.53486 0.01786 0.81363 0.0
H975 H 0.5786 0.02092 0.80539 0.0
C976 C 0.48321 0.04918 0.8008 0.0
C977 C 0.46362 0.03962 0.76775 0.0
C978 C 0.5065 0.04749 0.79617 0.0
C979 C 0.51095 0.03671 0.75804 0.0
C980 C 0.49126 0.02681 0.72523 0.0
C981 C 0.46769 0.02799 0.73023 0.0
C982 C 0.5773 0.05054 0.70961 0.0
C983 C 0.5873 0.04075 0.74235 0.0
C984 C 0.55212 0.04842 0.71411 0.0
C985 C 0.53664 0.03695 0.75182 0.0
C986 C 0.54645 0.02686 0.78431 0.0
C987 C 0.5714 0.02849 0.77943 0.0
H988 H 0.52647 0.59488 0.20122 0.0
H989 H 0.57216 0.56744 0.2754 0.0
H990 H 0.48602 0.55204 0.2129 0.0
H991 H 0.53122 0.52391 0.28594 0.0
H992 H 0.4496 0.44212 0.24557 0.0
H993 H 0.49328 0.48292 0.23627 0.0
H994 H 0.46037 0.53032 0.28687 0.0
H995 H 0.41714 0.48995 0.29725 0.0
C996 C 0.52804 0.57971 0.21976 0.0
C997 C 0.55266 0.58493 0.238 0.0
C998 C 0.50476 0.55512 0.22643 0.0
C999 C 0.50546 0.53485 0.25081 0.0
C1000 C 0.53018 0.5393 0.26712 0.0
C1001 C 0.55358 0.56421 0.26104 0.0
C1002 C 0.45173 0.4612 0.2552 0.0
C1003 C 0.42961 0.46269 0.27153 0.0
C1004 C 0.47677 0.4845 0.24995 0.0
C1005 C 0.48003 0.50973 0.26033 0.0
C1006 C 0.45826 0.51113 0.27804 0.0
C1007 C 0.43346 0.48792 0.28394 0.0
H1008 H 0.93187 0.52156 0.70836 0.0
H1009 H 1.00769 0.5672 0.77553 0.0
H1010 H 0.934 0.48079 0.71913 0.0
H1011 H 0.01005 0.52611 0.78482 0.0
H1012 H 1.00861 0.44451 0.7405 0.0
H1013 H 0.01066 0.48782 0.73149 0.0
H1014 H 0.93354 0.45592 0.79407 0.0
H1015 H 0.93168 0.41312 0.80457 0.0
C1016 C 0.94906 0.52302 0.72528 0.0
C1017 C 0.96935 0.54772 0.74183 0.0
C1018 C 0.95025 0.4996 0.73135 0.0
C1019 C 0.97203 0.50033 0.75318 0.0
C1020 C 0.99301 0.52507 0.76794 0.0
C1021 C 0.99159 0.54854 0.76266 0.0
C1022 C 0.99219 0.44678 0.75275 0.0
C1023 C 0.96975 0.42507 0.77262 0.0
C1024 C 0.99344 0.47159 0.74764 0.0
C1025 C 0.9721 0.47501 0.76161 0.0
C1026 C 0.95009 0.45364 0.78249 0.0
C1027 C 0.94905 0.42909 0.7884 0.0
H1028 H 0.44757 0.00596 0.27562 0.0
H1029 H 0.42 0.93341 0.19983 0.0
H1030 H 0.49112 0.00851 0.28537 0.0
H1031 H 0.4629 0.93563 0.2112 0.0
H1032 H 0.52565 0.93053 0.30143 0.0
H1033 H 0.48511 0.93308 0.29028 0.0
H1034 H 0.53154 0.01047 0.22919 0.0
H1035 H 0.57242 0.00771 0.2387 0.0
C1036 C 0.45075 0.99066 0.26088 0.0
C1037 C 0.43 0.96921 0.23757 0.0
C1038 C 0.47567 0.99218 0.26647 0.0
C1039 C 0.4801 0.97206 0.24949 0.0
C1040 C 0.45979 0.95119 0.22506 0.0
C1041 C 0.43518 0.94995 0.21869 0.0
C1042 C 0.52742 0.94811 0.28546 0.0
C1043 C 0.55236 0.96866 0.27016 0.0
C1044 C 0.50413 0.94955 0.27923 0.0
C1045 C 0.50527 0.97185 0.25858 0.0
C1046 C 0.53023 0.99306 0.24516 0.0
C1047 C 0.55356 0.9914 0.25056 0.0
H1048 H 0.58428 0.53499 0.83182 0.0
H1049 H 0.57653 0.56466 0.70624 0.0
H1050 H 0.54024 0.495 0.82201 0.0
H1051 H 0.53269 0.52425 0.69612 0.0
H1052 H 0.48194 0.42839 0.67933 0.0
H1053 H 0.5211 0.47307 0.68873 0.0
H1054 H 0.4889 0.48193 0.81081 0.0
H1055 H 0.44933 0.43745 0.80108 0.0
C1056 C 0.573 0.53315 0.80243 0.0
C1057 C 0.58383 0.55301 0.76986 0.0
C1058 C 0.54778 0.51031 0.7969 0.0
C1059 C 0.53314 0.50657 0.75829 0.0
C1060 C 0.54363 0.52668 0.72615 0.0
C1061 C 0.5686 0.54985 0.7321 0.0
C1062 C 0.48297 0.44005 0.7078 0.0
C1063 C 0.46252 0.42941 0.73942 0.0
C1064 C 0.50533 0.46564 0.71307 0.0
C1065 C 0.50798 0.48088 0.7505 0.0
C1066 C 0.48731 0.47054 0.78168 0.0
C1067 C 0.46464 0.44517 0.77596 0.0
H1068 H 0.15246 0.39671 0.18256 0.0
H1069 H 0.12049 0.35358 0.3033 0.0
H1070 H 0.19304 0.39343 0.19251 0.0
H1071 H 0.16151 0.35123 0.31382 0.0
H1072 H 0.25958 0.39933 0.33069 0.0
H1073 H 0.2156 0.39579 0.32091 0.0
H1074 H 0.20279 0.34919 0.20397 0.0
H1075 H 0.2463 0.35182 0.21443 0.0
C1076 C 0.15397 0.38629 0.21093 0.0
C1077 C 0.13316 0.37523 0.24196 0.0
C1078 C 0.17716 0.38443 0.21659 0.0
C1079 C 0.18034 0.37211 0.25395 0.0
C1080 C 0.15949 0.3608 0.28474 0.0
C1081 C 0.13598 0.36202 0.27853 0.0
C1082 C 0.24717 0.38791 0.30335 0.0
C1083 C 0.25634 0.37568 0.27354 0.0
C1084 C 0.22204 0.3859 0.29778 0.0
C1085 C 0.2059 0.37225 0.26166 0.0
C1086 C 0.21488 0.3598 0.23208 0.0
C1087 C 0.23969 0.36119 0.23827 0.0
H1088 H 0.902 0.23586 0.73888 0.0
H1089 H 0.85755 0.26166 0.81966 0.0
H1090 H 0.86051 0.19369 0.72387 0.0
H1091 H 0.81653 0.21976 0.80512 0.0
H1092 H 0.7452 0.16278 0.72385 0.0
H1093 H 0.78823 0.20159 0.74097 0.0
H1094 H 0.82318 0.15083 0.75481 0.0
H1095 H 0.77967 0.11147 0.73703 0.0
C1096 C 0.88353 0.23239 0.75407 0.0
C1097 C 0.88312 0.25236 0.78005 0.0
C1098 C 0.85974 0.20819 0.74546 0.0
C1099 C 0.83507 0.20352 0.76261 0.0
C1100 C 0.83503 0.22293 0.79045 0.0
C1101 C 0.85865 0.24697 0.799 0.0
C1102 C 0.76197 0.1597 0.73033 0.0
C1103 C 0.7588 0.13384 0.72922 0.0
C1104 C 0.78671 0.18206 0.74052 0.0
C1105 C 0.80915 0.17936 0.74999 0.0
C1106 C 0.80632 0.15363 0.74767 0.0
C1107 C 0.78137 0.13108 0.73753 0.0
H1108 H 0.6757 0.77718 0.245 0.0
H1109 H 0.59183 0.74513 0.21455 0.0
H1110 H 0.67957 0.82068 0.26223 0.0
H1111 H 0.59575 0.78806 0.23141 0.0
H1112 H 0.6004 0.85411 0.31418 0.0
H1113 H 0.60193 0.81352 0.29894 0.0
H1114 H 0.6765 0.85981 0.22928 0.0
H1115 H 0.67508 0.90093 0.24482 0.0
C1116 C 0.6582 0.77943 0.24152 0.0
C1117 C 0.63339 0.75748 0.22878 0.0
C1118 C 0.66043 0.80435 0.25138 0.0
C1119 C 0.63785 0.80773 0.24896 0.0
C1120 C 0.6134 0.78603 0.23468 0.0
C1121 C 0.6112 0.76135 0.22475 0.0
C1122 C 0.6173 0.85582 0.29589 0.0
C1123 C 0.63744 0.88085 0.28027 0.0
C1124 C 0.6181 0.83245 0.28697 0.0
C1125 C 0.63906 0.8333 0.26214 0.0
C1126 C 0.66005 0.85845 0.24845 0.0
C1127 C 0.65922 0.88201 0.25736 0.0
H1128 H 0.85494 0.59611 0.69488 0.0
H1129 H 0.89835 0.6662 0.77629 0.0
H1130 H 0.8136 0.59656 0.70866 0.0
H1131 H 0.85657 0.66639 0.79072 0.0
H1132 H 0.77641 0.66813 0.77728 0.0
H1133 H 0.8199 0.67211 0.76029 0.0
H1134 H 0.78407 0.58611 0.77035 0.0
H1135 H 0.74097 0.5821 0.7865 0.0
C1136 C 0.85573 0.61176 0.71557 0.0
C1137 C 0.88002 0.63097 0.7348 0.0
C1138 C 0.83191 0.61191 0.72373 0.0
C1139 C 0.83157 0.6312 0.7515 0.0
C1140 C 0.85607 0.65125 0.76912 0.0
C1141 C 0.88003 0.65113 0.76086 0.0
C1142 C 0.77789 0.65011 0.77609 0.0
C1143 C 0.75507 0.62478 0.78309 0.0
C1144 C 0.80285 0.6524 0.76641 0.0
C1145 C 0.80549 0.6294 0.76333 0.0
C1146 C 0.78275 0.60422 0.77139 0.0
C1147 C 0.75796 0.60194 0.78105 0.0
H1148 H 0.23719 0.90133 0.23823 0.0
H1149 H 0.27064 0.84948 0.21983 0.0
H1150 H 0.19355 0.86195 0.25571 0.0
H1151 H 0.2276 0.81075 0.23685 0.0
H1152 H 0.15934 0.75057 0.31702 0.0
H1153 H 0.20017 0.79268 0.30268 0.0
H1154 H 0.15566 0.81898 0.22334 0.0
H1155 H 0.11433 0.77654 0.23802 0.0
C1156 C 0.23525 0.88163 0.23752 0.0
C1157 C 0.25759 0.87871 0.22791 0.0
C1158 C 0.21024 0.85907 0.24751 0.0
C1159 C 0.20717 0.83322 0.2484 0.0
C1160 C 0.22934 0.83037 0.23751 0.0
C1161 C 0.2541 0.8527 0.22743 0.0
C1162 C 0.15807 0.76534 0.29682 0.0
C1163 C 0.13351 0.75993 0.27823 0.0
C1164 C 0.18158 0.78951 0.28842 0.0
C1165 C 0.18133 0.80904 0.26114 0.0
C1166 C 0.15656 0.80436 0.24447 0.0
C1167 C 0.13288 0.78003 0.25288 0.0
H1168 H 0.34864 0.23764 0.74414 0.0
H1169 H 0.43229 0.27097 0.71088 0.0
H1170 H 0.3458 0.1947 0.76141 0.0
H1171 H 0.42932 0.22833 0.72708 0.0
H1172 H 0.42671 0.16169 0.80616 0.0
H1173 H 0.42573 0.20248 0.79026 0.0
H1174 H 0.34724 0.15574 0.73217 0.0
H1175 H 0.34799 0.11449 0.74911 0.0
C1176 C 0.36632 0.23575 0.73997 0.0
C1177 C 0.39075 0.2579 0.72644 0.0
C1178 C 0.36468 0.2111 0.74982 0.0
C1179 C 0.38744 0.20807 0.74635 0.0
C1180 C 0.41154 0.23001 0.7313 0.0
C1181 C 0.41319 0.25452 0.72165 0.0
C1182 C 0.40912 0.15998 0.79023 0.0
C1183 C 0.38752 0.13473 0.77863 0.0
C1184 C 0.40863 0.18348 0.78078 0.0
C1185 C 0.38662 0.18256 0.75913 0.0
C1186 C 0.36451 0.15725 0.74894 0.0
C1187 C 0.36495 0.13359 0.75861 0.0
loop_
_geom_bond_atom_site_label_1
_geom_bond_atom_site_label_2
_geom_bond_distance
_geom_bond_site_symmetry_2
_ccdc_geom_bond_type
Co0 O2 2.143 . S
Co0 O8 2.074 . S
Co0 O11 2.090 1_455 S
Co0 O24 2.097 . S
Co0 N41 2.151 1_455 S
Co0 N49 2.214 1_455 S
Co1 O2 2.160 . S
Co1 O7 2.058 . S
Co1 O17 2.057 . S
Co1 O32 2.037 . S
Co1 N36 2.145 . S
Co1 N57 2.257 . S
O2 Co0 2.143 . S
O2 Co1 2.160 . S
C3 O4 1.278 . S
C3 O11 1.199 1_455 S
O4 C3 1.278 . S
C5 O6 1.245 . S
C5 O17 1.232 . S
O6 C5 1.245 . S
O7 Co1 2.058 . S
O7 C33 1.269 . S
O8 Co0 2.074 . S
O8 C33 1.257 . S
H9 C34 0.930 . S
H10 C40 0.930 1_455 S
O11 Co0 2.090 1_655 S
O11 C3 1.199 1_655 S
H12 C44 0.929 . S
H13 C46 0.930 . S
H14 C47 0.930 . S
H15 C45 0.929 . S
H16 C48 0.928 . S
O17 Co1 2.057 . S
O17 C5 1.232 . S
H18 C37 0.929 . S
H19 C38 0.929 . S
H20 C50 0.931 . S
H21 C42 0.929 . S
H22 C51 0.930 . S
H23 C43 0.931 . S
O24 Co0 2.097 . S
O24 C52 1.214 . S
H25 C53 0.929 . S
H26 C54 0.929 . S
H27 C55 0.930 . S
H28 C56 0.929 . S
H29 C58 0.930 . S
H30 C35 0.930 . S
H31 C39 0.930 . S
O32 Co1 2.037 . S
O32 C52 1.234 . S
C33 O7 1.269 . S
C33 O8 1.257 . S
C34 H9 0.930 . S
C34 C37 1.388 . S
C34 C39 1.418 . S
C35 H30 0.930 . S
C35 C38 1.404 . S
C35 C39 1.353 . S
N36 Co1 2.145 . S
N36 C37 1.397 . S
N36 C38 1.334 . S
C37 H18 0.929 . S
C37 C34 1.388 . S
C37 N36 1.397 . S
C38 H19 0.929 . S
C38 C35 1.404 . S
C38 N36 1.334 . S
C39 H31 0.930 . S
C39 C34 1.418 . S
C39 C35 1.353 . S
C40 H10 0.930 1_655 S
C40 N41 1.330 . S
C40 C42 1.446 . S
N41 Co0 2.151 1_655 S
N41 C40 1.330 . S
N41 C45 1.418 . S
C42 H21 0.929 . S
C42 C40 1.446 . S
C42 C43 1.332 . S
C43 H23 0.931 . S
C43 C42 1.332 . S
C43 C44 1.267 . S
C44 H12 0.929 . S
C44 C43 1.267 . S
C44 C45 1.251 . S
C45 H15 0.929 . S
C45 N41 1.418 . S
C45 C44 1.251 . S
C46 H13 0.930 . S
C46 C48 1.406 . S
C46 C51 1.261 . S
C47 H14 0.930 . S
C47 N49 1.325 . S
C47 C50 1.357 . S
C48 H16 0.928 . S
C48 C46 1.406 . S
C48 N49 1.261 . S
N49 Co0 2.214 1_655 S
N49 C47 1.325 . S
N49 C48 1.261 . S
C50 H20 0.931 . S
C50 C47 1.357 . S
C50 C51 1.312 . S
C51 H22 0.930 . S
C51 C46 1.261 . S
C51 C50 1.312 . S
C52 O24 1.214 . S
C52 O32 1.234 . S
C53 H25 0.929 . S
C53 C56 1.391 . S
C53 C58 1.391 . S
C54 H26 0.929 . S
C54 C55 1.390 . S
C54 N57 1.391 . S
C55 H27 0.930 . S
C55 C54 1.390 . S
C55 C56 1.392 . S
C56 H28 0.929 . S
C56 C53 1.391 . S
C56 C55 1.392 . S
N57 Co1 2.257 . S
N57 C54 1.391 . S
N57 C58 1.388 . S
C58 H29 0.930 . S
C58 C53 1.391 . S
C58 N57 1.388 . S
Co59 O61 2.143 . S
Co59 O67 2.074 . S
Co59 O70 2.088 1_545 S
Co59 O83 2.097 . S
Co59 N100 2.151 1_545 S
Co59 N108 2.214 1_545 S
Co60 O61 2.160 . S
Co60 O66 2.058 . S
Co60 O76 2.057 . S
Co60 O91 2.037 . S
Co60 N95 2.145 . S
Co60 N116 2.257 . S
O61 Co59 2.143 . S
O61 Co60 2.160 . S
C62 O63 1.278 . S
C62 O70 1.206 1_545 S
O63 C62 1.278 . S
C64 O65 1.245 . S
C64 O76 1.232 . S
O65 C64 1.245 . S
O66 Co60 2.058 . S
O66 C92 1.269 . S
O67 Co59 2.074 . S
O67 C92 1.257 . S
H68 C93 0.930 . S
H69 C99 0.930 1_545 S
O70 Co59 2.088 1_565 S
O70 C62 1.206 1_565 S
H71 C103 0.929 . S
H72 C105 0.930 . S
H73 C106 0.930 . S
H74 C104 0.929 . S
H75 C107 0.928 . S
O76 Co60 2.057 . S
O76 C64 1.232 . S
H77 C96 0.929 . S
H78 C97 0.929 . S
H79 C109 0.931 . S
H80 C101 0.929 . S
H81 C110 0.930 . S
H82 C102 0.931 . S
O83 Co59 2.097 . S
O83 C111 1.214 . S
H84 C112 0.929 . S
H85 C113 0.929 . S
H86 C114 0.930 . S
H87 C115 0.929 . S
H88 C117 0.930 . S
H89 C94 0.930 . S
H90 C98 0.930 . S
O91 Co60 2.037 . S
O91 C111 1.234 . S
C92 O66 1.269 . S
C92 O67 1.257 . S
C93 H68 0.930 . S
C93 C96 1.388 . S
C93 C98 1.418 . S
C94 H89 0.930 . S
C94 C97 1.404 . S
C94 C98 1.353 . S
N95 Co60 2.145 . S
N95 C96 1.397 . S
N95 C97 1.334 . S
C96 H77 0.929 . S
C96 C93 1.388 . S
C96 N95 1.397 . S
C97 H78 0.929 . S
C97 C94 1.404 . S
C97 N95 1.334 . S
C98 H90 0.930 . S
C98 C93 1.418 . S
C98 C94 1.353 . S
C99 H69 0.930 1_565 S
C99 N100 1.330 . S
C99 C101 1.446 . S
N100 Co59 2.151 1_565 S
N100 C99 1.330 . S
N100 C104 1.418 . S
C101 H80 0.929 . S
C101 C99 1.446 . S
C101 C102 1.332 . S
C102 H82 0.931 . S
C102 C101 1.332 . S
C102 C103 1.267 . S
C103 H71 0.929 . S
C103 C102 1.267 . S
C103 C104 1.251 . S
C104 H74 0.929 . S
C104 N100 1.418 . S
C104 C103 1.251 . S
C105 H72 0.930 . S
C105 C107 1.406 . S
C105 C110 1.261 . S
C106 H73 0.930 . S
C106 N108 1.325 . S
C106 C109 1.357 . S
C107 H75 0.928 . S
C107 C105 1.406 . S
C107 N108 1.261 . S
N108 Co59 2.214 1_565 S
N108 C106 1.325 . S
N108 C107 1.261 . S
C109 H79 0.931 . S
C109 C106 1.357 . S
C109 C110 1.312 . S
C110 H81 0.930 . S
C110 C105 1.261 . S
C110 C109 1.312 . S
C111 O83 1.214 . S
C111 O91 1.234 . S
C112 H84 0.929 . S
C112 C115 1.391 . S
C112 C117 1.391 . S
C113 H85 0.929 . S
C113 C114 1.390 . S
C113 N116 1.391 . S
C114 H86 0.930 . S
C114 C113 1.390 . S
C114 C115 1.392 . S
C115 H87 0.929 . S
C115 C112 1.391 . S
C115 C114 1.392 . S
N116 Co60 2.257 . S
N116 C113 1.391 . S
N116 C117 1.388 . S
C117 H88 0.930 . S
C117 C112 1.391 . S
C117 N116 1.388 . S
Co118 O120 2.143 . S
Co118 O126 2.074 . S
Co118 O129 2.093 . S
Co118 O142 2.097 . S
Co118 N159 2.151 . S
Co118 N167 2.214 . S
Co119 O120 2.160 . S
Co119 O125 2.058 . S
Co119 O135 2.057 . S
Co119 O150 2.037 . S
Co119 N154 2.145 . S
Co119 N175 2.257 . S
O120 Co118 2.143 . S
O120 Co119 2.160 . S
C121 O122 1.278 . S
C121 O129 1.224 . S
O122 C121 1.278 . S
C123 O124 1.245 . S
C123 O135 1.232 . S
O124 C123 1.245 . S
O125 Co119 2.058 . S
O125 C151 1.269 . S
O126 Co118 2.074 . S
O126 C151 1.257 . S
H127 C152 0.930 . S
H128 C158 0.930 . S
O129 Co118 2.093 . S
O129 C121 1.224 . S
H130 C162 0.929 . S
H131 C164 0.930 . S
H132 C165 0.930 . S
H133 C163 0.929 . S
H134 C166 0.928 . S
O135 Co119 2.057 . S
O135 C123 1.232 . S
H136 C155 0.929 . S
H137 C156 0.929 . S
H138 C168 0.931 . S
H139 C160 0.929 . S
H140 C169 0.930 . S
H141 C161 0.931 . S
O142 Co118 2.097 . S
O142 C170 1.214 . S
H143 C171 0.929 . S
H144 C172 0.929 . S
H145 C173 0.930 . S
H146 C174 0.929 . S
H147 C176 0.930 . S
H148 C153 0.930 . S
H149 C157 0.930 . S
O150 Co119 2.037 . S
O150 C170 1.234 . S
C151 O125 1.269 . S
C151 O126 1.257 . S
C152 H127 0.930 . S
C152 C155 1.388 . S
C152 C157 1.418 . S
C153 H148 0.930 . S
C153 C156 1.404 . S
C153 C157 1.353 . S
N154 Co119 2.145 . S
N154 C155 1.397 . S
N154 C156 1.334 . S
C155 H136 0.929 . S
C155 C152 1.388 . S
C155 N154 1.397 . S
C156 H137 0.929 . S
C156 C153 1.404 . S
C156 N154 1.334 . S
C157 H149 0.930 . S
C157 C152 1.418 . S
C157 C153 1.353 . S
C158 H128 0.930 . S
C158 N159 1.330 . S
C158 C160 1.446 . S
N159 Co118 2.151 . S
N159 C158 1.330 . S
N159 C163 1.418 . S
C160 H139 0.929 . S
C160 C158 1.446 . S
C160 C161 1.332 . S
C161 H141 0.931 . S
C161 C160 1.332 . S
C161 C162 1.267 . S
C162 H130 0.929 . S
C162 C161 1.267 . S
C162 C163 1.251 . S
C163 H133 0.929 . S
C163 N159 1.418 . S
C163 C162 1.251 . S
C164 H131 0.930 . S
C164 C166 1.406 . S
C164 C169 1.261 . S
C165 H132 0.930 . S
C165 N167 1.325 . S
C165 C168 1.357 . S
C166 H134 0.928 . S
C166 C164 1.406 . S
C166 N167 1.261 . S
N167 Co118 2.214 . S
N167 C165 1.325 . S
N167 C166 1.261 . S
C168 H138 0.931 . S
C168 C165 1.357 . S
C168 C169 1.312 . S
C169 H140 0.930 . S
C169 C164 1.261 . S
C169 C168 1.312 . S
C170 O142 1.214 . S
C170 O150 1.234 . S
C171 H143 0.929 . S
C171 C174 1.391 . S
C171 C176 1.391 . S
C172 H144 0.929 . S
C172 C173 1.390 . S
C172 N175 1.391 . S
C173 H145 0.930 . S
C173 C172 1.390 . S
C173 C174 1.392 . S
C174 H146 0.929 . S
C174 C171 1.391 . S
C174 C173 1.392 . S
N175 Co119 2.257 . S
N175 C172 1.391 . S
N175 C176 1.388 . S
C176 H147 0.930 . S
C176 C171 1.391 . S
C176 N175 1.388 . S
Co177 O179 2.143 . S
Co177 O185 2.074 . S
Co177 O188 2.090 1_655 S
Co177 O201 2.097 . S
Co177 N218 2.151 1_655 S
Co177 N226 2.214 1_655 S
Co178 O179 2.160 . S
Co178 O184 2.058 . S
Co178 O194 2.057 . S
Co178 O209 2.037 . S
Co178 N213 2.145 . S
Co178 N234 2.257 . S
O179 Co177 2.143 . S
O179 Co178 2.160 . S
C180 O181 1.278 . S
C180 O188 1.199 1_655 S
O181 C180 1.278 . S
C182 O183 1.245 . S
C182 O194 1.232 . S
O183 C182 1.245 . S
O184 Co178 2.058 . S
O184 C210 1.269 . S
O185 Co177 2.074 . S
O185 C210 1.257 . S
H186 C211 0.930 . S
H187 C217 0.930 1_655 S
O188 Co177 2.090 1_455 S
O188 C180 1.199 1_455 S
H189 C221 0.929 . S
H190 C223 0.930 . S
H191 C224 0.930 . S
H192 C222 0.929 . S
H193 C225 0.928 . S
O194 Co178 2.057 . S
O194 C182 1.232 . S
H195 C214 0.929 . S
H196 C215 0.929 . S
H197 C227 0.931 . S
H198 C219 0.929 . S
H199 C228 0.930 . S
H200 C220 0.931 . S
O201 Co177 2.097 . S
O201 C229 1.214 . S
H202 C230 0.929 . S
H203 C231 0.929 . S
H204 C232 0.930 . S
H205 C233 0.929 . S
H206 C235 0.930 . S
H207 C212 0.930 . S
H208 C216 0.930 . S
O209 Co178 2.037 . S
O209 C229 1.234 . S
C210 O184 1.269 . S
C210 O185 1.257 . S
C211 H186 0.930 . S
C211 C214 1.388 . S
C211 C216 1.418 . S
C212 H207 0.930 . S
C212 C215 1.404 . S
C212 C216 1.353 . S
N213 Co178 2.145 . S
N213 C214 1.397 . S
N213 C215 1.334 . S
C214 H195 0.929 . S
C214 C211 1.388 . S
C214 N213 1.397 . S
C215 H196 0.929 . S
C215 C212 1.404 . S
C215 N213 1.334 . S
C216 H208 0.930 . S
C216 C211 1.418 . S
C216 C212 1.353 . S
C217 H187 0.930 1_455 S
C217 N218 1.330 . S
C217 C219 1.446 . S
N218 Co177 2.151 1_455 S
N218 C217 1.330 . S
N218 C222 1.418 . S
C219 H198 0.929 . S
C219 C217 1.446 . S
C219 C220 1.332 . S
C220 H200 0.931 . S
C220 C219 1.332 . S
C220 C221 1.267 . S
C221 H189 0.929 . S
C221 C220 1.267 . S
C221 C222 1.251 . S
C222 H192 0.929 . S
C222 N218 1.418 . S
C222 C221 1.251 . S
C223 H190 0.930 . S
C223 C225 1.406 . S
C223 C228 1.261 . S
C224 H191 0.930 . S
C224 N226 1.325 . S
C224 C227 1.357 . S
C225 H193 0.928 . S
C225 C223 1.406 . S
C225 N226 1.261 . S
N226 Co177 2.214 1_455 S
N226 C224 1.325 . S
N226 C225 1.261 . S
C227 H197 0.931 . S
C227 C224 1.357 . S
C227 C228 1.312 . S
C228 H199 0.930 . S
C228 C223 1.261 . S
C228 C227 1.312 . S
C229 O201 1.214 . S
C229 O209 1.234 . S
C230 H202 0.929 . S
C230 C233 1.391 . S
C230 C235 1.391 . S
C231 H203 0.929 . S
C231 C232 1.390 . S
C231 N234 1.391 . S
C232 H204 0.930 . S
C232 C231 1.390 . S
C232 C233 1.392 . S
C233 H205 0.929 . S
C233 C230 1.391 . S
C233 C232 1.392 . S
N234 Co178 2.257 . S
N234 C231 1.391 . S
N234 C235 1.388 . S
C235 H206 0.930 . S
C235 C230 1.391 . S
C235 N234 1.388 . S
Co236 O238 2.143 . S
Co236 O244 2.074 . S
Co236 O247 2.088 1_565 S
Co236 O260 2.097 . S
Co236 N277 2.151 1_565 S
Co236 N285 2.214 1_565 S
Co237 O238 2.160 . S
Co237 O243 2.058 . S
Co237 O253 2.057 . S
Co237 O268 2.037 . S
Co237 N272 2.145 . S
Co237 N293 2.257 . S
O238 Co236 2.143 . S
O238 Co237 2.160 . S
C239 O240 1.278 . S
C239 O247 1.206 1_565 S
O240 C239 1.278 . S
C241 O242 1.245 . S
C241 O253 1.232 . S
O242 C241 1.245 . S
O243 Co237 2.058 . S
O243 C269 1.269 . S
O244 Co236 2.074 . S
O244 C269 1.257 . S
H245 C270 0.930 . S
H246 C276 0.930 1_565 S
O247 Co236 2.088 1_545 S
O247 C239 1.206 1_545 S
H248 C280 0.929 . S
H249 C282 0.930 . S
H250 C283 0.930 . S
H251 C281 0.929 . S
H252 C284 0.928 . S
O253 Co237 2.057 . S
O253 C241 1.232 . S
H254 C273 0.929 . S
H255 C274 0.929 . S
H256 C286 0.931 . S
H257 C278 0.929 . S
H258 C287 0.930 . S
H259 C279 0.931 . S
O260 Co236 2.097 . S
O260 C288 1.214 . S
H261 C289 0.929 . S
H262 C290 0.929 . S
H263 C291 0.930 . S
H264 C292 0.929 . S
H265 C294 0.930 . S
H266 C271 0.930 . S
H267 C275 0.930 . S
O268 Co237 2.037 . S
O268 C288 1.234 . S
C269 O243 1.269 . S
C269 O244 1.257 . S
C270 H245 0.930 . S
C270 C273 1.388 . S
C270 C275 1.418 . S
C271 H266 0.930 . S
C271 C274 1.404 . S
C271 C275 1.353 . S
N272 Co237 2.145 . S
N272 C273 1.397 . S
N272 C274 1.334 . S
C273 H254 0.929 . S
C273 C270 1.388 . S
C273 N272 1.397 . S
C274 H255 0.929 . S
C274 C271 1.404 . S
C274 N272 1.334 . S
C275 H267 0.930 . S
C275 C270 1.418 . S
C275 C271 1.353 . S
C276 H246 0.930 1_545 S
C276 N277 1.330 . S
C276 C278 1.446 . S
N277 Co236 2.151 1_545 S
N277 C276 1.330 . S
N277 C281 1.418 . S
C278 H257 0.929 . S
C278 C276 1.446 . S
C278 C279 1.332 . S
C279 H259 0.931 . S
C279 C278 1.332 . S
C279 C280 1.267 . S
C280 H248 0.929 . S
C280 C279 1.267 . S
C280 C281 1.251 . S
C281 H251 0.929 . S
C281 N277 1.418 . S
C281 C280 1.251 . S
C282 H249 0.930 . S
C282 C284 1.406 . S
C282 C287 1.261 . S
C283 H250 0.930 . S
C283 N285 1.325 . S
C283 C286 1.357 . S
C284 H252 0.928 . S
C284 C282 1.406 . S
C284 N285 1.261 . S
N285 Co236 2.214 1_545 S
N285 C283 1.325 . S
N285 C284 1.261 . S
C286 H256 0.931 . S
C286 C283 1.357 . S
C286 C287 1.312 . S
C287 H258 0.930 . S
C287 C282 1.261 . S
C287 C286 1.312 . S
C288 O260 1.214 . S
C288 O268 1.234 . S
C289 H261 0.929 . S
C289 C292 1.391 . S
C289 C294 1.391 . S
C290 H262 0.929 . S
C290 C291 1.390 . S
C290 N293 1.391 . S
C291 H263 0.930 . S
C291 C290 1.390 . S
C291 C292 1.392 . S
C292 H264 0.929 . S
C292 C289 1.391 . S
C292 C291 1.392 . S
N293 Co237 2.257 . S
N293 C290 1.391 . S
N293 C294 1.388 . S
C294 H265 0.930 . S
C294 C289 1.391 . S
C294 N293 1.388 . S
Co295 O297 2.143 . S
Co295 O303 2.074 . S
Co295 O306 2.093 . S
Co295 O319 2.097 . S
Co295 N336 2.151 . S
Co295 N344 2.214 . S
Co296 O297 2.160 . S
Co296 O302 2.058 . S
Co296 O312 2.057 . S
Co296 O327 2.037 . S
Co296 N331 2.145 . S
Co296 N352 2.257 . S
O297 Co295 2.143 . S
O297 Co296 2.160 . S
C298 O299 1.278 . S
C298 O306 1.224 . S
O299 C298 1.278 . S
C300 O301 1.245 . S
C300 O312 1.232 . S
O301 C300 1.245 . S
O302 Co296 2.058 . S
O302 C328 1.269 . S
O303 Co295 2.074 . S
O303 C328 1.257 . S
H304 C329 0.930 . S
H305 C335 0.930 . S
O306 Co295 2.093 . S
O306 C298 1.224 . S
H307 C339 0.929 . S
H308 C341 0.930 . S
H309 C342 0.930 . S
H310 C340 0.929 . S
H311 C343 0.928 . S
O312 Co296 2.057 . S
O312 C300 1.232 . S
H313 C332 0.929 . S
H314 C333 0.929 . S
H315 C345 0.931 . S
H316 C337 0.929 . S
H317 C346 0.930 . S
H318 C338 0.931 . S
O319 Co295 2.097 . S
O319 C347 1.214 . S
H320 C348 0.929 . S
H321 C349 0.929 . S
H322 C350 0.930 . S
H323 C351 0.929 . S
H324 C353 0.930 . S
H325 C330 0.930 . S
H326 C334 0.930 . S
O327 Co296 2.037 . S
O327 C347 1.234 . S
C328 O302 1.269 . S
C328 O303 1.257 . S
C329 H304 0.930 . S
C329 C332 1.388 . S
C329 C334 1.418 . S
C330 H325 0.930 . S
C330 C333 1.404 . S
C330 C334 1.353 . S
N331 Co296 2.145 . S
N331 C332 1.397 . S
N331 C333 1.334 . S
C332 H313 0.929 . S
C332 C329 1.388 . S
C332 N331 1.397 . S
C333 H314 0.929 . S
C333 C330 1.404 . S
C333 N331 1.334 . S
C334 H326 0.930 . S
C334 C329 1.418 . S
C334 C330 1.353 . S
C335 H305 0.930 . S
C335 N336 1.330 . S
C335 C337 1.446 . S
N336 Co295 2.151 . S
N336 C335 1.330 . S
N336 C340 1.418 . S
C337 H316 0.929 . S
C337 C335 1.446 . S
C337 C338 1.332 . S
C338 H318 0.931 . S
C338 C337 1.332 . S
C338 C339 1.267 . S
C339 H307 0.929 . S
C339 C338 1.267 . S
C339 C340 1.251 . S
C340 H310 0.929 . S
C340 N336 1.418 . S
C340 C339 1.251 . S
C341 H308 0.930 . S
C341 C343 1.406 . S
C341 C346 1.261 . S
C342 H309 0.930 . S
C342 N344 1.325 . S
C342 C345 1.357 . S
C343 H311 0.928 . S
C343 C341 1.406 . S
C343 N344 1.261 . S
N344 Co295 2.214 . S
N344 C342 1.325 . S
N344 C343 1.261 . S
C345 H315 0.931 . S
C345 C342 1.357 . S
C345 C346 1.312 . S
C346 H317 0.930 . S
C346 C341 1.261 . S
C346 C345 1.312 . S
C347 O319 1.214 . S
C347 O327 1.234 . S
C348 H320 0.929 . S
C348 C351 1.391 . S
C348 C353 1.391 . S
C349 H321 0.929 . S
C349 C350 1.390 . S
C349 N352 1.391 . S
C350 H322 0.930 . S
C350 C349 1.390 . S
C350 C351 1.392 . S
C351 H323 0.929 . S
C351 C348 1.391 . S
C351 C350 1.392 . S
N352 Co296 2.257 . S
N352 C349 1.391 . S
N352 C353 1.388 . S
C353 H324 0.930 . S
C353 C348 1.391 . S
C353 N352 1.388 . S
Co354 O356 2.143 . S
Co354 O362 2.074 . S
Co354 O365 2.090 1_565 S
Co354 O378 2.097 . S
Co354 N395 2.151 1_565 S
Co354 N403 2.214 1_565 S
Co355 O356 2.160 . S
Co355 O361 2.058 . S
Co355 O371 2.057 . S
Co355 O386 2.037 . S
Co355 N390 2.145 . S
Co355 N411 2.257 . S
O356 Co354 2.143 . S
O356 Co355 2.160 . S
C357 O358 1.278 . S
C357 O365 1.199 1_565 S
O358 C357 1.278 . S
C359 O360 1.245 . S
C359 O371 1.232 . S
O360 C359 1.245 . S
O361 Co355 2.058 . S
O361 C387 1.269 . S
O362 Co354 2.074 . S
O362 C387 1.257 . S
H363 C388 0.930 . S
H364 C394 0.930 1_565 S
O365 Co354 2.090 1_545 S
O365 C357 1.199 1_545 S
H366 C398 0.929 . S
H367 C400 0.930 . S
H368 C401 0.930 . S
H369 C399 0.929 . S
H370 C402 0.928 . S
O371 Co355 2.057 . S
O371 C359 1.232 . S
H372 C391 0.929 . S
H373 C392 0.929 . S
H374 C404 0.931 . S
H375 C396 0.929 . S
H376 C405 0.930 . S
H377 C397 0.931 . S
O378 Co354 2.097 . S
O378 C406 1.214 . S
H379 C407 0.929 . S
H380 C408 0.929 . S
H381 C409 0.930 . S
H382 C410 0.929 . S
H383 C412 0.930 . S
H384 C389 0.930 . S
H385 C393 0.930 . S
O386 Co355 2.037 . S
O386 C406 1.234 . S
C387 O361 1.269 . S
C387 O362 1.257 . S
C388 H363 0.930 . S
C388 C391 1.388 . S
C388 C393 1.418 . S
C389 H384 0.930 . S
C389 C392 1.404 . S
C389 C393 1.353 . S
N390 Co355 2.145 . S
N390 C391 1.397 . S
N390 C392 1.334 . S
C391 H372 0.929 . S
C391 C388 1.388 . S
C391 N390 1.397 . S
C392 H373 0.929 . S
C392 C389 1.404 . S
C392 N390 1.334 . S
C393 H385 0.930 . S
C393 C388 1.418 . S
C393 C389 1.353 . S
C394 H364 0.930 1_545 S
C394 N395 1.330 . S
C394 C396 1.446 . S
N395 Co354 2.151 1_545 S
N395 C394 1.330 . S
N395 C399 1.418 . S
C396 H375 0.929 . S
C396 C394 1.446 . S
C396 C397 1.332 . S
C397 H377 0.931 . S
C397 C396 1.332 . S
C397 C398 1.267 . S
C398 H366 0.929 . S
C398 C397 1.267 . S
C398 C399 1.251 . S
C399 H369 0.929 . S
C399 N395 1.418 . S
C399 C398 1.251 . S
C400 H367 0.930 . S
C400 C402 1.406 . S
C400 C405 1.261 . S
C401 H368 0.930 . S
C401 N403 1.325 . S
C401 C404 1.357 . S
C402 H370 0.928 . S
C402 C400 1.406 . S
C402 N403 1.261 . S
N403 Co354 2.214 1_545 S
N403 C401 1.325 . S
N403 C402 1.261 . S
C404 H374 0.931 . S
C404 C401 1.357 . S
C404 C405 1.312 . S
C405 H376 0.930 . S
C405 C400 1.261 . S
C405 C404 1.312 . S
C406 O378 1.214 . S
C406 O386 1.234 . S
C407 H379 0.929 . S
C407 C410 1.391 . S
C407 C412 1.391 . S
C408 H380 0.929 . S
C408 C409 1.390 . S
C408 N411 1.391 . S
C409 H381 0.930 . S
C409 C408 1.390 . S
C409 C410 1.392 . S
C410 H382 0.929 . S
C410 C407 1.391 . S
C410 C409 1.392 . S
N411 Co355 2.257 . S
N411 C408 1.391 . S
N411 C412 1.388 . S
C412 H383 0.930 . S
C412 C407 1.391 . S
C412 N411 1.388 . S
Co413 O415 2.143 . S
Co413 O421 2.074 . S
Co413 O424 2.093 . S
Co413 O437 2.097 . S
Co413 N454 2.151 . S
Co413 N462 2.214 . S
Co414 O415 2.160 . S
Co414 O420 2.058 . S
Co414 O430 2.057 . S
Co414 O445 2.037 . S
Co414 N449 2.145 . S
Co414 N470 2.257 . S
O415 Co413 2.143 . S
O415 Co414 2.160 . S
C416 O417 1.278 . S
C416 O424 1.224 . S
O417 C416 1.278 . S
C418 O419 1.245 . S
C418 O430 1.232 . S
O419 C418 1.245 . S
O420 Co414 2.058 . S
O420 C446 1.269 . S
O421 Co413 2.074 . S
O421 C446 1.257 . S
H422 C447 0.930 . S
H423 C453 0.930 . S
O424 Co413 2.093 . S
O424 C416 1.224 . S
H425 C457 0.929 . S
H426 C459 0.930 . S
H427 C460 0.930 . S
H428 C458 0.929 . S
H429 C461 0.928 . S
O430 Co414 2.057 . S
O430 C418 1.232 . S
H431 C450 0.929 . S
H432 C451 0.929 . S
H433 C463 0.931 . S
H434 C455 0.929 . S
H435 C464 0.930 . S
H436 C456 0.931 . S
O437 Co413 2.097 . S
O437 C465 1.214 . S
H438 C466 0.929 . S
H439 C467 0.929 . S
H440 C468 0.930 . S
H441 C469 0.929 . S
H442 C471 0.930 . S
H443 C448 0.930 . S
H444 C452 0.930 . S
O445 Co414 2.037 . S
O445 C465 1.234 . S
C446 O420 1.269 . S
C446 O421 1.257 . S
C447 H422 0.930 . S
C447 C450 1.388 . S
C447 C452 1.418 . S
C448 H443 0.930 . S
C448 C451 1.404 . S
C448 C452 1.353 . S
N449 Co414 2.145 . S
N449 C450 1.397 . S
N449 C451 1.334 . S
C450 H431 0.929 . S
C450 C447 1.388 . S
C450 N449 1.397 . S
C451 H432 0.929 . S
C451 C448 1.404 . S
C451 N449 1.334 . S
C452 H444 0.930 . S
C452 C447 1.418 . S
C452 C448 1.353 . S
C453 H423 0.930 . S
C453 N454 1.330 . S
C453 C455 1.446 . S
N454 Co413 2.151 . S
N454 C453 1.330 . S
N454 C458 1.418 . S
C455 H434 0.929 . S
C455 C453 1.446 . S
C455 C456 1.332 . S
C456 H436 0.931 . S
C456 C455 1.332 . S
C456 C457 1.267 . S
C457 H425 0.929 . S
C457 C456 1.267 . S
C457 C458 1.251 . S
C458 H428 0.929 . S
C458 N454 1.418 . S
C458 C457 1.251 . S
C459 H426 0.930 . S
C459 C461 1.406 . S
C459 C464 1.261 . S
C460 H427 0.930 . S
C460 N462 1.325 . S
C460 C463 1.357 . S
C461 H429 0.928 . S
C461 C459 1.406 . S
C461 N462 1.261 . S
N462 Co413 2.214 . S
N462 C460 1.325 . S
N462 C461 1.261 . S
C463 H433 0.931 . S
C463 C460 1.357 . S
C463 C464 1.312 . S
C464 H435 0.930 . S
C464 C459 1.261 . S
C464 C463 1.312 . S
C465 O437 1.214 . S
C465 O445 1.234 . S
C466 H438 0.929 . S
C466 C469 1.391 . S
C466 C471 1.391 . S
C467 H439 0.929 . S
C467 C468 1.390 . S
C467 N470 1.391 . S
C468 H440 0.930 . S
C468 C467 1.390 . S
C468 C469 1.392 . S
C469 H441 0.929 . S
C469 C466 1.391 . S
C469 C468 1.392 . S
N470 Co414 2.257 . S
N470 C467 1.391 . S
N470 C471 1.388 . S
C471 H442 0.930 . S
C471 C466 1.391 . S
C471 N470 1.388 . S
Co472 O474 2.143 . S
Co472 O480 2.074 . S
Co472 O483 2.088 1_455 S
Co472 O496 2.097 . S
Co472 N513 2.151 1_455 S
Co472 N521 2.214 1_455 S
Co473 O474 2.160 . S
Co473 O479 2.058 . S
Co473 O489 2.057 . S
Co473 O504 2.037 . S
Co473 N508 2.145 . S
Co473 N529 2.257 . S
O474 Co472 2.143 . S
O474 Co473 2.160 . S
C475 O476 1.278 . S
C475 O483 1.206 1_455 S
O476 C475 1.278 . S
C477 O478 1.245 . S
C477 O489 1.232 . S
O478 C477 1.245 . S
O479 Co473 2.058 . S
O479 C505 1.269 . S
O480 Co472 2.074 . S
O480 C505 1.257 . S
H481 C506 0.930 . S
H482 C512 0.930 1_455 S
O483 Co472 2.088 1_655 S
O483 C475 1.206 1_655 S
H484 C516 0.929 . S
H485 C518 0.930 . S
H486 C519 0.930 . S
H487 C517 0.929 . S
H488 C520 0.928 . S
O489 Co473 2.057 . S
O489 C477 1.232 . S
H490 C509 0.929 . S
H491 C510 0.929 . S
H492 C522 0.931 . S
H493 C514 0.929 . S
H494 C523 0.930 . S
H495 C515 0.931 . S
O496 Co472 2.097 . S
O496 C524 1.214 . S
H497 C525 0.929 . S
H498 C526 0.929 . S
H499 C527 0.930 . S
H500 C528 0.929 . S
H501 C530 0.930 . S
H502 C507 0.930 . S
H503 C511 0.930 . S
O504 Co473 2.037 . S
O504 C524 1.234 . S
C505 O479 1.269 . S
C505 O480 1.257 . S
C506 H481 0.930 . S
C506 C509 1.388 . S
C506 C511 1.418 . S
C507 H502 0.930 . S
C507 C510 1.404 . S
C507 C511 1.353 . S
N508 Co473 2.145 . S
N508 C509 1.397 . S
N508 C510 1.334 . S
C509 H490 0.929 . S
C509 C506 1.388 . S
C509 N508 1.397 . S
C510 H491 0.929 . S
C510 C507 1.404 . S
C510 N508 1.334 . S
C511 H503 0.930 . S
C511 C506 1.418 . S
C511 C507 1.353 . S
C512 H482 0.930 1_655 S
C512 N513 1.330 . S
C512 C514 1.446 . S
N513 Co472 2.151 1_655 S
N513 C512 1.330 . S
N513 C517 1.418 . S
C514 H493 0.929 . S
C514 C512 1.446 . S
C514 C515 1.332 . S
C515 H495 0.931 . S
C515 C514 1.332 . S
C515 C516 1.267 . S
C516 H484 0.929 . S
C516 C515 1.267 . S
C516 C517 1.251 . S
C517 H487 0.929 . S
C517 N513 1.418 . S
C517 C516 1.251 . S
C518 H485 0.930 . S
C518 C520 1.406 . S
C518 C523 1.261 . S
C519 H486 0.930 . S
C519 N521 1.325 . S
C519 C522 1.357 . S
C520 H488 0.928 . S
C520 C518 1.406 . S
C520 N521 1.261 . S
N521 Co472 2.214 1_655 S
N521 C519 1.325 . S
N521 C520 1.261 . S
C522 H492 0.931 . S
C522 C519 1.357 . S
C522 C523 1.312 . S
C523 H494 0.930 . S
C523 C518 1.261 . S
C523 C522 1.312 . S
C524 O496 1.214 . S
C524 O504 1.234 . S
C525 H497 0.929 . S
C525 C528 1.391 . S
C525 C530 1.391 . S
C526 H498 0.929 . S
C526 C527 1.390 . S
C526 N529 1.391 . S
C527 H499 0.930 . S
C527 C526 1.390 . S
C527 C528 1.392 . S
C528 H500 0.929 . S
C528 C525 1.391 . S
C528 C527 1.392 . S
N529 Co473 2.257 . S
N529 C526 1.391 . S
N529 C530 1.388 . S
C530 H501 0.930 . S
C530 C525 1.391 . S
C530 N529 1.388 . S
Co531 O533 2.143 . S
Co531 O539 2.074 . S
Co531 O542 2.090 1_545 S
Co531 O555 2.097 . S
Co531 N572 2.151 1_545 S
Co531 N580 2.214 1_545 S
Co532 O533 2.160 . S
Co532 O538 2.058 . S
Co532 O548 2.057 . S
Co532 O563 2.037 . S
Co532 N567 2.145 . S
Co532 N588 2.257 . S
O533 Co531 2.143 . S
O533 Co532 2.160 . S
C534 O535 1.278 . S
C534 O542 1.199 1_545 S
O535 C534 1.278 . S
C536 O537 1.245 . S
C536 O548 1.232 . S
O537 C536 1.245 . S
O538 Co532 2.058 . S
O538 C564 1.269 . S
O539 Co531 2.074 . S
O539 C564 1.257 . S
H540 C565 0.930 . S
H541 C571 0.930 1_545 S
O542 Co531 2.090 1_565 S
O542 C534 1.199 1_565 S
H543 C575 0.929 . S
H544 C577 0.930 . S
H545 C578 0.930 . S
H546 C576 0.929 . S
H547 C579 0.928 . S
O548 Co532 2.057 . S
O548 C536 1.232 . S
H549 C568 0.929 . S
H550 C569 0.929 . S
H551 C581 0.931 . S
H552 C573 0.929 . S
H553 C582 0.930 . S
H554 C574 0.931 . S
O555 Co531 2.097 . S
O555 C583 1.214 . S
H556 C584 0.929 . S
H557 C585 0.929 . S
H558 C586 0.930 . S
H559 C587 0.929 . S
H560 C589 0.930 . S
H561 C566 0.930 . S
H562 C570 0.930 . S
O563 Co532 2.037 . S
O563 C583 1.234 . S
C564 O538 1.269 . S
C564 O539 1.257 . S
C565 H540 0.930 . S
C565 C568 1.388 . S
C565 C570 1.418 . S
C566 H561 0.930 . S
C566 C569 1.404 . S
C566 C570 1.353 . S
N567 Co532 2.145 . S
N567 C568 1.397 . S
N567 C569 1.334 . S
C568 H549 0.929 . S
C568 C565 1.388 . S
C568 N567 1.397 . S
C569 H550 0.929 . S
C569 C566 1.404 . S
C569 N567 1.334 . S
C570 H562 0.930 . S
C570 C565 1.418 . S
C570 C566 1.353 . S
C571 H541 0.930 1_565 S
C571 N572 1.330 . S
C571 C573 1.446 . S
N572 Co531 2.151 1_565 S
N572 C571 1.330 . S
N572 C576 1.418 . S
C573 H552 0.929 . S
C573 C571 1.446 . S
C573 C574 1.332 . S
C574 H554 0.931 . S
C574 C573 1.332 . S
C574 C575 1.267 . S
C575 H543 0.929 . S
C575 C574 1.267 . S
C575 C576 1.251 . S
C576 H546 0.929 . S
C576 N572 1.418 . S
C576 C575 1.251 . S
C577 H544 0.930 . S
C577 C579 1.406 . S
C577 C582 1.261 . S
C578 H545 0.930 . S
C578 N580 1.325 . S
C578 C581 1.357 . S
C579 H547 0.928 . S
C579 C577 1.406 . S
C579 N580 1.261 . S
N580 Co531 2.214 1_565 S
N580 C578 1.325 . S
N580 C579 1.261 . S
C581 H551 0.931 . S
C581 C578 1.357 . S
C581 C582 1.312 . S
C582 H553 0.930 . S
C582 C577 1.261 . S
C582 C581 1.312 . S
C583 O555 1.214 . S
C583 O563 1.234 . S
C584 H556 0.929 . S
C584 C587 1.391 . S
C584 C589 1.391 . S
C585 H557 0.929 . S
C585 C586 1.390 . S
C585 N588 1.391 . S
C586 H558 0.930 . S
C586 C585 1.390 . S
C586 C587 1.392 . S
C587 H559 0.929 . S
C587 C584 1.391 . S
C587 C586 1.392 . S
N588 Co532 2.257 . S
N588 C585 1.391 . S
N588 C589 1.388 . S
C589 H560 0.930 . S
C589 C584 1.391 . S
C589 N588 1.388 . S
Co590 O592 2.143 . S
Co590 O598 2.074 . S
Co590 O601 2.093 . S
Co590 O614 2.097 . S
Co590 N631 2.151 . S
Co590 N639 2.214 . S
Co591 O592 2.160 . S
Co591 O597 2.058 . S
Co591 O607 2.057 . S
Co591 O622 2.037 . S
Co591 N626 2.145 . S
Co591 N647 2.257 . S
O592 Co590 2.143 . S
O592 Co591 2.160 . S
C593 O594 1.278 . S
C593 O601 1.224 . S
O594 C593 1.278 . S
C595 O596 1.245 . S
C595 O607 1.232 . S
O596 C595 1.245 . S
O597 Co591 2.058 . S
O597 C623 1.269 . S
O598 Co590 2.074 . S
O598 C623 1.257 . S
H599 C624 0.930 . S
H600 C630 0.930 . S
O601 Co590 2.093 . S
O601 C593 1.224 . S
H602 C634 0.929 . S
H603 C636 0.930 . S
H604 C637 0.930 . S
H605 C635 0.929 . S
H606 C638 0.928 . S
O607 Co591 2.057 . S
O607 C595 1.232 . S
H608 C627 0.929 . S
H609 C628 0.929 . S
H610 C640 0.931 . S
H611 C632 0.929 . S
H612 C641 0.930 . S
H613 C633 0.931 . S
O614 Co590 2.097 . S
O614 C642 1.214 . S
H615 C643 0.929 . S
H616 C644 0.929 . S
H617 C645 0.930 . S
H618 C646 0.929 . S
H619 C648 0.930 . S
H620 C625 0.930 . S
H621 C629 0.930 . S
O622 Co591 2.037 . S
O622 C642 1.234 . S
C623 O597 1.269 . S
C623 O598 1.257 . S
C624 H599 0.930 . S
C624 C627 1.388 . S
C624 C629 1.418 . S
C625 H620 0.930 . S
C625 C628 1.404 . S
C625 C629 1.353 . S
N626 Co591 2.145 . S
N626 C627 1.397 . S
N626 C628 1.334 . S
C627 H608 0.929 . S
C627 C624 1.388 . S
C627 N626 1.397 . S
C628 H609 0.929 . S
C628 C625 1.404 . S
C628 N626 1.334 . S
C629 H621 0.930 . S
C629 C624 1.418 . S
C629 C625 1.353 . S
C630 H600 0.930 . S
C630 N631 1.330 . S
C630 C632 1.446 . S
N631 Co590 2.151 . S
N631 C630 1.330 . S
N631 C635 1.418 . S
C632 H611 0.929 . S
C632 C630 1.446 . S
C632 C633 1.332 . S
C633 H613 0.931 . S
C633 C632 1.332 . S
C633 C634 1.267 . S
C634 H602 0.929 . S
C634 C633 1.267 . S
C634 C635 1.251 . S
C635 H605 0.929 . S
C635 N631 1.418 . S
C635 C634 1.251 . S
C636 H603 0.930 . S
C636 C638 1.406 . S
C636 C641 1.261 . S
C637 H604 0.930 . S
C637 N639 1.325 . S
C637 C640 1.357 . S
C638 H606 0.928 . S
C638 C636 1.406 . S
C638 N639 1.261 . S
N639 Co590 2.214 . S
N639 C637 1.325 . S
N639 C638 1.261 . S
C640 H610 0.931 . S
C640 C637 1.357 . S
C640 C641 1.312 . S
C641 H612 0.930 . S
C641 C636 1.261 . S
C641 C640 1.312 . S
C642 O614 1.214 . S
C642 O622 1.234 . S
C643 H615 0.929 . S
C643 C646 1.391 . S
C643 C648 1.391 . S
C644 H616 0.929 . S
C644 C645 1.390 . S
C644 N647 1.391 . S
C645 H617 0.930 . S
C645 C644 1.390 . S
C645 C646 1.392 . S
C646 H618 0.929 . S
C646 C643 1.391 . S
C646 C645 1.392 . S
N647 Co591 2.257 . S
N647 C644 1.391 . S
N647 C648 1.388 . S
C648 H619 0.930 . S
C648 C643 1.391 . S
C648 N647 1.388 . S
Co649 O651 2.143 . S
Co649 O657 2.074 . S
Co649 O660 2.088 1_655 S
Co649 O673 2.097 . S
Co649 N690 2.151 1_655 S
Co649 N698 2.214 1_655 S
Co650 O651 2.160 . S
Co650 O656 2.058 . S
Co650 O666 2.057 . S
Co650 O681 2.037 . S
Co650 N685 2.145 . S
Co650 N706 2.257 . S
O651 Co649 2.143 . S
O651 Co650 2.160 . S
C652 O653 1.278 . S
C652 O660 1.206 1_655 S
O653 C652 1.278 . S
C654 O655 1.245 . S
C654 O666 1.232 . S
O655 C654 1.245 . S
O656 Co650 2.058 . S
O656 C682 1.269 . S
O657 Co649 2.074 . S
O657 C682 1.257 . S
H658 C683 0.930 . S
H659 C689 0.930 1_655 S
O660 Co649 2.088 1_455 S
O660 C652 1.206 1_455 S
H661 C693 0.929 . S
H662 C695 0.930 . S
H663 C696 0.930 . S
H664 C694 0.929 . S
H665 C697 0.928 . S
O666 Co650 2.057 . S
O666 C654 1.232 . S
H667 C686 0.929 . S
H668 C687 0.929 . S
H669 C699 0.931 . S
H670 C691 0.929 . S
H671 C700 0.930 . S
H672 C692 0.931 . S
O673 Co649 2.097 . S
O673 C701 1.214 . S
H674 C702 0.929 . S
H675 C703 0.929 . S
H676 C704 0.930 . S
H677 C705 0.929 . S
H678 C707 0.930 . S
H679 C684 0.930 . S
H680 C688 0.930 . S
O681 Co650 2.037 . S
O681 C701 1.234 . S
C682 O656 1.269 . S
C682 O657 1.257 . S
C683 H658 0.930 . S
C683 C686 1.388 . S
C683 C688 1.418 . S
C684 H679 0.930 . S
C684 C687 1.404 . S
C684 C688 1.353 . S
N685 Co650 2.145 . S
N685 C686 1.397 . S
N685 C687 1.334 . S
C686 H667 0.929 . S
C686 C683 1.388 . S
C686 N685 1.397 . S
C687 H668 0.929 . S
C687 C684 1.404 . S
C687 N685 1.334 . S
C688 H680 0.930 . S
C688 C683 1.418 . S
C688 C684 1.353 . S
C689 H659 0.930 1_455 S
C689 N690 1.330 . S
C689 C691 1.446 . S
N690 Co649 2.151 1_455 S
N690 C689 1.330 . S
N690 C694 1.418 . S
C691 H670 0.929 . S
C691 C689 1.446 . S
C691 C692 1.332 . S
C692 H672 0.931 . S
C692 C691 1.332 . S
C692 C693 1.267 . S
C693 H661 0.929 . S
C693 C692 1.267 . S
C693 C694 1.251 . S
C694 H664 0.929 . S
C694 N690 1.418 . S
C694 C693 1.251 . S
C695 H662 0.930 . S
C695 C697 1.406 . S
C695 C700 1.261 . S
C696 H663 0.930 . S
C696 N698 1.325 . S
C696 C699 1.357 . S
C697 H665 0.928 . S
C697 C695 1.406 . S
C697 N698 1.261 . S
N698 Co649 2.214 1_455 S
N698 C696 1.325 . S
N698 C697 1.261 . S
C699 H669 0.931 . S
C699 C696 1.357 . S
C699 C700 1.312 . S
C700 H671 0.930 . S
C700 C695 1.261 . S
C700 C699 1.312 . S
C701 O673 1.214 . S
C701 O681 1.234 . S
C702 H674 0.929 . S
C702 C705 1.391 . S
C702 C707 1.391 . S
C703 H675 0.929 . S
C703 C704 1.390 . S
C703 N706 1.391 . S
C704 H676 0.930 . S
C704 C703 1.390 . S
C704 C705 1.392 . S
C705 H677 0.929 . S
C705 C702 1.391 . S
C705 C704 1.392 . S
N706 Co650 2.257 . S
N706 C703 1.391 . S
N706 C707 1.388 . S
C707 H678 0.930 . S
C707 C702 1.391 . S
C707 N706 1.388 . S
H708 C716 0.950 . S
H709 C721 0.950 . S
H710 C718 0.950 . S
H711 C720 0.950 . S
H712 C722 0.950 . S
H713 C724 0.950 . S
H714 C726 0.950 . S
H715 C727 0.950 . S
C716 H708 0.950 . S
C716 C717 1.386 . S
C716 C718 1.391 . S
C717 C716 1.386 . S
C717 C721 1.393 1_455 S
C718 H710 0.950 . S
C718 C716 1.391 . S
C718 C719 1.400 . S
C719 C718 1.400 . S
C719 C720 1.398 1_455 S
C719 C725 1.491 1_454 S
C720 H711 0.950 . S
C720 C719 1.398 1_655 S
C720 C721 1.391 . S
C721 H709 0.950 . S
C721 C717 1.393 1_655 S
C721 C720 1.391 . S
C722 H712 0.950 . S
C722 C723 1.386 . S
C722 C724 1.391 . S
C723 C722 1.386 . S
C723 C727 1.393 1_655 S
C724 H713 0.950 . S
C724 C722 1.391 . S
C724 C725 1.400 . S
C725 C719 1.491 1_656 S
C725 C724 1.400 . S
C725 C726 1.398 1_655 S
C726 H714 0.950 . S
C726 C725 1.398 1_455 S
C726 C727 1.391 . S
C727 H715 0.950 . S
C727 C723 1.393 1_455 S
C727 C726 1.391 . S
H728 C736 0.950 . S
H729 C741 0.950 . S
H730 C738 0.950 . S
H731 C740 0.950 . S
H732 C742 0.950 . S
H733 C744 0.950 . S
H734 C746 0.950 . S
H735 C747 0.950 . S
C736 H728 0.950 . S
C736 C737 1.386 . S
C736 C738 1.391 . S
C737 C736 1.386 . S
C737 C741 1.393 1_565 S
C738 H730 0.950 . S
C738 C736 1.391 . S
C738 C739 1.400 . S
C739 C738 1.400 . S
C739 C740 1.398 1_565 S
C739 C745 1.491 1_565 S
C740 H731 0.950 . S
C740 C739 1.398 1_545 S
C740 C741 1.391 . S
C741 H729 0.950 . S
C741 C737 1.393 1_545 S
C741 C740 1.391 . S
C742 H732 0.950 . S
C742 C743 1.386 . S
C742 C744 1.391 . S
C743 C742 1.386 . S
C743 C747 1.393 1_545 S
C744 H733 0.950 . S
C744 C742 1.391 . S
C744 C745 1.400 . S
C745 C739 1.491 1_545 S
C745 C744 1.400 . S
C745 C746 1.398 1_545 S
C746 H734 0.950 . S
C746 C745 1.398 1_565 S
C746 C747 1.391 . S
C747 H735 0.950 . S
C747 C743 1.393 1_565 S
C747 C746 1.391 . S
H748 C756 0.950 . S
H749 C761 0.950 . S
H750 C758 0.950 . S
H751 C760 0.950 . S
H752 C762 0.950 . S
H753 C764 0.950 . S
H754 C766 0.950 . S
H755 C767 0.950 . S
C756 H748 0.950 . S
C756 C757 1.386 . S
C756 C758 1.391 . S
C757 C756 1.386 . S
C757 C761 1.393 . S
C758 H750 0.950 . S
C758 C756 1.391 . S
C758 C759 1.400 . S
C759 C758 1.400 . S
C759 C760 1.398 . S
C759 C765 1.491 1_554 S
C760 H751 0.950 . S
C760 C759 1.398 . S
C760 C761 1.391 . S
C761 H749 0.950 . S
C761 C757 1.393 . S
C761 C760 1.391 . S
C762 H752 0.950 . S
C762 C763 1.386 . S
C762 C764 1.391 . S
C763 C762 1.386 . S
C763 C767 1.393 . S
C764 H753 0.950 . S
C764 C762 1.391 . S
C764 C765 1.400 . S
C765 C759 1.491 1_556 S
C765 C764 1.400 . S
C765 C766 1.398 . S
C766 H754 0.950 . S
C766 C765 1.398 . S
C766 C767 1.391 . S
C767 H755 0.950 . S
C767 C763 1.393 . S
C767 C766 1.391 . S
H768 C776 0.950 . S
H769 C781 0.950 . S
H770 C778 0.950 . S
H771 C780 0.950 . S
H772 C782 0.950 . S
H773 C784 0.950 . S
H774 C786 0.950 . S
H775 C787 0.950 . S
C776 H768 0.950 . S
C776 C777 1.386 1_655 S
C776 C778 1.391 . S
C777 C776 1.386 1_455 S
C777 C781 1.393 . S
C778 H770 0.950 . S
C778 C776 1.391 . S
C778 C779 1.400 1_655 S
C779 C778 1.400 1_455 S
C779 C780 1.398 . S
C779 C785 1.491 1_455 S
C780 H771 0.950 . S
C780 C779 1.398 . S
C780 C781 1.391 . S
C781 H769 0.950 . S
C781 C777 1.393 . S
C781 C780 1.391 . S
C782 H772 0.950 . S
C782 C783 1.386 1_455 S
C782 C784 1.391 . S
C783 C782 1.386 1_655 S
C783 C787 1.393 . S
C784 H773 0.950 . S
C784 C782 1.391 . S
C784 C785 1.400 1_455 S
C785 C779 1.491 1_655 S
C785 C784 1.400 1_655 S
C785 C786 1.398 . S
C786 H774 0.950 . S
C786 C785 1.398 . S
C786 C787 1.391 . S
C787 H775 0.950 . S
C787 C783 1.393 . S
C787 C786 1.391 . S
H788 C796 0.950 . S
H789 C801 0.950 . S
H790 C798 0.950 . S
H791 C800 0.950 . S
H792 C802 0.950 . S
H793 C804 0.950 . S
H794 C806 0.950 . S
H795 C807 0.950 . S
C796 H788 0.950 . S
C796 C797 1.386 1_565 S
C796 C798 1.391 . S
C797 C796 1.386 1_545 S
C797 C801 1.393 . S
C798 H790 0.950 . S
C798 C796 1.391 . S
C798 C799 1.400 1_565 S
C799 C798 1.400 1_545 S
C799 C800 1.398 . S
C799 C805 1.491 1_546 S
C800 H791 0.950 . S
C800 C799 1.398 . S
C800 C801 1.391 . S
C801 H789 0.950 . S
C801 C797 1.393 . S
C801 C800 1.391 . S
C802 H792 0.950 . S
C802 C803 1.386 1_545 S
C802 C804 1.391 . S
C803 C802 1.386 1_565 S
C803 C807 1.393 . S
C804 H793 0.950 . S
C804 C802 1.391 . S
C804 C805 1.400 1_545 S
C805 C799 1.491 1_564 S
C805 C804 1.400 1_565 S
C805 C806 1.398 . S
C806 H794 0.950 . S
C806 C805 1.398 . S
C806 C807 1.391 . S
C807 H795 0.950 . S
C807 C803 1.393 . S
C807 C806 1.391 . S
H808 C816 0.950 . S
H809 C821 0.950 . S
H810 C818 0.950 . S
H811 C820 0.950 . S
H812 C822 0.950 . S
H813 C824 0.950 . S
H814 C826 0.950 . S
H815 C827 0.950 . S
C816 H808 0.950 . S
C816 C817 1.386 . S
C816 C818 1.391 . S
C817 C816 1.386 . S
C817 C821 1.393 . S
C818 H810 0.950 . S
C818 C816 1.391 . S
C818 C819 1.400 . S
C819 C818 1.400 . S
C819 C820 1.398 . S
C819 C825 1.491 . S
C820 H811 0.950 . S
C820 C819 1.398 . S
C820 C821 1.391 . S
C821 H809 0.950 . S
C821 C817 1.393 . S
C821 C820 1.391 . S
C822 H812 0.950 . S
C822 C823 1.386 . S
C822 C824 1.391 . S
C823 C822 1.386 . S
C823 C827 1.393 . S
C824 H813 0.950 . S
C824 C822 1.391 . S
C824 C825 1.400 . S
C825 C819 1.491 . S
C825 C824 1.400 . S
C825 C826 1.398 . S
C826 H814 0.950 . S
C826 C825 1.398 . S
C826 C827 1.391 . S
C827 H815 0.950 . S
C827 C823 1.393 . S
C827 C826 1.391 . S
H828 C836 0.950 1_455 S
H829 C841 0.950 . S
H830 C838 0.950 . S
H831 C840 0.950 . S
H832 C842 0.950 1_655 S
H833 C844 0.950 . S
H834 C846 0.950 . S
H835 C847 0.950 . S
C836 H828 0.950 1_655 S
C836 C837 1.386 . S
C836 C838 1.391 1_655 S
C837 C836 1.386 . S
C837 C841 1.393 . S
C838 H830 0.950 . S
C838 C836 1.391 1_455 S
C838 C839 1.400 1_455 S
C839 C838 1.400 1_655 S
C839 C840 1.398 . S
C839 C845 1.491 1_656 S
C840 H831 0.950 . S
C840 C839 1.398 . S
C840 C841 1.391 . S
C841 H829 0.950 . S
C841 C837 1.393 . S
C841 C840 1.391 . S
C842 H832 0.950 1_455 S
C842 C843 1.386 . S
C842 C844 1.391 1_455 S
C843 C842 1.386 . S
C843 C847 1.393 . S
C844 H833 0.950 . S
C844 C842 1.391 1_655 S
C844 C845 1.400 1_655 S
C845 C839 1.491 1_454 S
C845 C844 1.400 1_455 S
C845 C846 1.398 . S
C846 H834 0.950 . S
C846 C845 1.398 . S
C846 C847 1.391 . S
C847 H835 0.950 . S
C847 C843 1.393 . S
C847 C846 1.391 . S
H848 C856 0.950 . S
H849 C861 0.950 . S
H850 C858 0.950 . S
H851 C860 0.950 . S
H852 C862 0.950 . S
H853 C864 0.950 . S
H854 C866 0.950 . S
H855 C867 0.950 . S
C856 H848 0.950 . S
C856 C857 1.386 . S
C856 C858 1.391 . S
C857 C856 1.386 . S
C857 C861 1.393 1_565 S
C858 H850 0.950 . S
C858 C856 1.391 . S
C858 C859 1.400 . S
C859 C858 1.400 . S
C859 C860 1.398 1_565 S
C859 C865 1.491 1_565 S
C860 H851 0.950 . S
C860 C859 1.398 1_545 S
C860 C861 1.391 . S
C861 H849 0.950 . S
C861 C857 1.393 1_545 S
C861 C860 1.391 . S
C862 H852 0.950 . S
C862 C863 1.386 . S
C862 C864 1.391 . S
C863 C862 1.386 . S
C863 C867 1.393 1_545 S
C864 H853 0.950 . S
C864 C862 1.391 . S
C864 C865 1.400 . S
C865 C859 1.491 1_545 S
C865 C864 1.400 . S
C865 C866 1.398 1_545 S
C866 H854 0.950 . S
C866 C865 1.398 1_565 S
C866 C867 1.391 . S
C867 H855 0.950 . S
C867 C863 1.393 1_565 S
C867 C866 1.391 . S
H868 C876 0.950 . S
H869 C881 0.950 . S
H870 C878 0.950 . S
H871 C880 0.950 . S
H872 C882 0.950 . S
H873 C884 0.950 . S
H874 C886 0.950 . S
H875 C887 0.950 . S
C876 H868 0.950 . S
C876 C877 1.386 . S
C876 C878 1.391 . S
C877 C876 1.386 . S
C877 C881 1.393 . S
C878 H870 0.950 . S
C878 C876 1.391 . S
C878 C879 1.400 . S
C879 C878 1.400 . S
C879 C880 1.398 . S
C879 C885 1.491 1_556 S
C880 H871 0.950 . S
C880 C879 1.398 . S
C880 C881 1.391 . S
C881 H869 0.950 . S
C881 C877 1.393 . S
C881 C880 1.391 . S
C882 H872 0.950 . S
C882 C883 1.386 . S
C882 C884 1.391 . S
C883 C882 1.386 . S
C883 C887 1.393 . S
C884 H873 0.950 . S
C884 C882 1.391 . S
C884 C885 1.400 . S
C885 C879 1.491 1_554 S
C885 C884 1.400 . S
C885 C886 1.398 . S
C886 H874 0.950 . S
C886 C885 1.398 . S
C886 C887 1.391 . S
C887 H875 0.950 . S
C887 C883 1.393 . S
C887 C886 1.391 . S
H888 C896 0.950 . S
H889 C901 0.950 . S
H890 C898 0.950 . S
H891 C900 0.950 . S
H892 C902 0.950 . S
H893 C904 0.950 . S
H894 C906 0.950 . S
H895 C907 0.950 . S
C896 H888 0.950 . S
C896 C897 1.386 1_455 S
C896 C898 1.391 . S
C897 C896 1.386 1_655 S
C897 C901 1.393 . S
C898 H890 0.950 . S
C898 C896 1.391 . S
C898 C899 1.400 1_455 S
C899 C898 1.400 1_655 S
C899 C900 1.398 . S
C899 C905 1.491 1_655 S
C900 H891 0.950 . S
C900 C899 1.398 . S
C900 C901 1.391 . S
C901 H889 0.950 . S
C901 C897 1.393 . S
C901 C900 1.391 . S
C902 H892 0.950 . S
C902 C903 1.386 1_655 S
C902 C904 1.391 . S
C903 C902 1.386 1_455 S
C903 C907 1.393 . S
C904 H893 0.950 . S
C904 C902 1.391 . S
C904 C905 1.400 1_655 S
C905 C899 1.491 1_455 S
C905 C904 1.400 1_455 S
C905 C906 1.398 . S
C906 H894 0.950 . S
C906 C905 1.398 . S
C906 C907 1.391 . S
C907 H895 0.950 . S
C907 C903 1.393 . S
C907 C906 1.391 . S
H908 C916 0.950 . S
H909 C921 0.950 . S
H910 C918 0.950 . S
H911 C920 0.950 . S
H912 C922 0.950 . S
H913 C924 0.950 . S
H914 C926 0.950 . S
H915 C927 0.950 . S
C916 H908 0.950 . S
C916 C917 1.386 1_565 S
C916 C918 1.391 . S
C917 C916 1.386 1_545 S
C917 C921 1.393 . S
C918 H910 0.950 . S
C918 C916 1.391 . S
C918 C919 1.400 1_565 S
C919 C918 1.400 1_545 S
C919 C920 1.398 . S
C919 C925 1.491 1_546 S
C920 H911 0.950 . S
C920 C919 1.398 . S
C920 C921 1.391 . S
C921 H909 0.950 . S
C921 C917 1.393 . S
C921 C920 1.391 . S
C922 H912 0.950 . S
C922 C923 1.386 1_545 S
C922 C924 1.391 . S
C923 C922 1.386 1_565 S
C923 C927 1.393 . S
C924 H913 0.950 . S
C924 C922 1.391 . S
C924 C925 1.400 1_545 S
C925 C919 1.491 1_564 S
C925 C924 1.400 1_565 S
C925 C926 1.398 . S
C926 H914 0.950 . S
C926 C925 1.398 . S
C926 C927 1.391 . S
C927 H915 0.950 . S
C927 C923 1.393 . S
C927 C926 1.391 . S
H928 C936 0.950 . S
H929 C941 0.950 . S
H930 C938 0.950 . S
H931 C940 0.950 . S
H932 C942 0.950 . S
H933 C944 0.950 . S
H934 C946 0.950 . S
H935 C947 0.950 . S
C936 H928 0.950 . S
C936 C937 1.386 . S
C936 C938 1.391 . S
C937 C936 1.386 . S
C937 C941 1.393 . S
C938 H930 0.950 . S
C938 C936 1.391 . S
C938 C939 1.400 . S
C939 C938 1.400 . S
C939 C940 1.398 . S
C939 C945 1.491 . S
C940 H931 0.950 . S
C940 C939 1.398 . S
C940 C941 1.391 . S
C941 H929 0.950 . S
C941 C937 1.393 . S
C941 C940 1.391 . S
C942 H932 0.950 . S
C942 C943 1.386 . S
C942 C944 1.391 . S
C943 C942 1.386 . S
C943 C947 1.393 . S
C944 H933 0.950 . S
C944 C942 1.391 . S
C944 C945 1.400 . S
C945 C939 1.491 . S
C945 C944 1.400 . S
C945 C946 1.398 . S
C946 H934 0.950 . S
C946 C945 1.398 . S
C946 C947 1.391 . S
C947 H935 0.950 . S
C947 C943 1.393 . S
C947 C946 1.391 . S
H948 C956 0.950 1_655 S
H949 C961 0.950 . S
H950 C958 0.950 1_655 S
H951 C960 0.950 . S
H952 C962 0.950 . S
H953 C964 0.950 . S
H954 C966 0.950 1_655 S
H955 C967 0.950 1_655 S
C956 H948 0.950 1_455 S
C956 C957 1.386 . S
C956 C958 1.391 . S
C957 C956 1.386 . S
C957 C961 1.393 . S
C958 H950 0.950 1_455 S
C958 C956 1.391 . S
C958 C959 1.400 . S
C959 C958 1.400 . S
C959 C960 1.398 . S
C959 C965 1.491 . S
C960 H951 0.950 . S
C960 C959 1.398 . S
C960 C961 1.391 . S
C961 H949 0.950 . S
C961 C957 1.393 . S
C961 C960 1.391 . S
C962 H952 0.950 . S
C962 C963 1.386 . S
C962 C964 1.391 . S
C963 C962 1.386 . S
C963 C967 1.393 . S
C964 H953 0.950 . S
C964 C962 1.391 . S
C964 C965 1.400 . S
C965 C959 1.491 . S
C965 C964 1.400 . S
C965 C966 1.398 . S
C966 H954 0.950 1_455 S
C966 C965 1.398 . S
C966 C967 1.391 . S
C967 H955 0.950 1_455 S
C967 C963 1.393 . S
C967 C966 1.391 . S
H968 C976 0.964 . S
H969 C981 0.950 . S
H970 C978 0.950 . S
H971 C980 0.950 . S
H972 C982 0.950 . S
H973 C984 0.950 . S
H974 C986 0.950 . S
H975 C987 0.950 . S
C976 H968 0.964 . S
C976 C977 1.386 . S
C976 C978 1.391 . S
C977 C976 1.386 . S
C977 C981 1.393 . S
C978 H970 0.950 . S
C978 C976 1.391 . S
C978 C979 1.400 . S
C979 C978 1.400 . S
C979 C980 1.398 . S
C979 C985 1.491 . S
C980 H971 0.950 . S
C980 C979 1.398 . S
C980 C981 1.391 . S
C981 H969 0.950 . S
C981 C977 1.393 . S
C981 C980 1.391 . S
C982 H972 0.950 . S
C982 C983 1.386 . S
C982 C984 1.391 . S
C983 C982 1.386 . S
C983 C987 1.393 . S
C984 H973 0.950 . S
C984 C982 1.391 . S
C984 C985 1.400 . S
C985 C979 1.491 . S
C985 C984 1.400 . S
C985 C986 1.398 . S
C986 H974 0.950 . S
C986 C985 1.398 . S
C986 C987 1.391 . S
C987 H975 0.950 . S
C987 C983 1.393 . S
C987 C986 1.391 . S
H988 C996 0.950 . S
H989 C1001 0.950 . S
H990 C998 0.950 . S
H991 C1000 0.950 . S
H992 C1002 0.950 . S
H993 C1004 0.950 . S
H994 C1006 0.950 . S
H995 C1007 0.950 . S
C996 H988 0.950 . S
C996 C997 1.386 . S
C996 C998 1.391 . S
C997 C996 1.386 . S
C997 C1001 1.393 . S
C998 H990 0.950 . S
C998 C996 1.391 . S
C998 C999 1.400 . S
C999 C998 1.400 . S
C999 C1000 1.398 . S
C999 C1005 1.491 . S
C1000 H991 0.950 . S
C1000 C999 1.398 . S
C1000 C1001 1.391 . S
C1001 H989 0.950 . S
C1001 C997 1.393 . S
C1001 C1000 1.391 . S
C1002 H992 0.950 . S
C1002 C1003 1.386 . S
C1002 C1004 1.391 . S
C1003 C1002 1.386 . S
C1003 C1007 1.393 . S
C1004 H993 0.950 . S
C1004 C1002 1.391 . S
C1004 C1005 1.400 . S
C1005 C999 1.491 . S
C1005 C1004 1.400 . S
C1005 C1006 1.398 . S
C1006 H994 0.950 . S
C1006 C1005 1.398 . S
C1006 C1007 1.391 . S
C1007 H995 0.950 . S
C1007 C1003 1.393 . S
C1007 C1006 1.391 . S
H1008 C1016 0.950 . S
H1009 C1021 0.950 1_455 S
H1010 C1018 0.950 . S
H1011 C1020 0.950 1_455 S
H1012 C1022 0.950 1_455 S
H1013 C1024 0.950 1_455 S
H1014 C1026 0.950 . S
H1015 C1027 0.950 . S
C1016 H1008 0.950 . S
C1016 C1017 1.386 . S
C1016 C1018 1.391 . S
C1017 C1016 1.386 . S
C1017 C1021 1.393 . S
C1018 H1010 0.950 . S
C1018 C1016 1.391 . S
C1018 C1019 1.400 . S
C1019 C1018 1.400 . S
C1019 C1020 1.398 . S
C1019 C1025 1.491 . S
C1020 H1011 0.950 1_655 S
C1020 C1019 1.398 . S
C1020 C1021 1.391 . S
C1021 H1009 0.950 1_655 S
C1021 C1017 1.393 . S
C1021 C1020 1.391 . S
C1022 H1012 0.950 1_655 S
C1022 C1023 1.386 . S
C1022 C1024 1.391 . S
C1023 C1022 1.386 . S
C1023 C1027 1.393 . S
C1024 H1013 0.950 1_655 S
C1024 C1022 1.391 . S
C1024 C1025 1.400 . S
C1025 C1019 1.491 . S
C1025 C1024 1.400 . S
C1025 C1026 1.398 . S
C1026 H1014 0.950 . S
C1026 C1025 1.398 . S
C1026 C1027 1.391 . S
C1027 H1015 0.950 . S
C1027 C1023 1.393 . S
C1027 C1026 1.391 . S
H1028 C1036 0.977 . S
H1029 C1041 0.950 . S
H1030 C1038 0.949 . S
H1031 C1040 0.950 . S
H1032 C1042 0.950 . S
H1033 C1044 0.950 . S
H1034 C1046 0.950 1_545 S
H1035 C1047 0.950 1_545 S
C1036 H1028 0.977 . S
C1036 C1037 1.386 . S
C1036 C1038 1.391 . S
C1037 C1036 1.386 . S
C1037 C1041 1.393 . S
C1038 H1030 0.949 . S
C1038 C1036 1.391 . S
C1038 C1039 1.400 . S
C1039 C1038 1.400 . S
C1039 C1040 1.398 . S
C1039 C1045 1.491 . S
C1040 H1031 0.950 . S
C1040 C1039 1.398 . S
C1040 C1041 1.391 . S
C1041 H1029 0.950 . S
C1041 C1037 1.393 . S
C1041 C1040 1.391 . S
C1042 H1032 0.950 . S
C1042 C1043 1.386 . S
C1042 C1044 1.391 . S
C1043 C1042 1.386 . S
C1043 C1047 1.393 . S
C1044 H1033 0.950 . S
C1044 C1042 1.391 . S
C1044 C1045 1.400 . S
C1045 C1039 1.491 . S
C1045 C1044 1.400 . S
C1045 C1046 1.398 . S
C1046 H1034 0.950 1_565 S
C1046 C1045 1.398 . S
C1046 C1047 1.391 . S
C1047 H1035 0.950 1_565 S
C1047 C1043 1.393 . S
C1047 C1046 1.391 . S
H1048 C1056 0.950 . S
H1049 C1061 0.950 . S
H1050 C1058 0.950 . S
H1051 C1060 0.950 . S
H1052 C1062 0.950 . S
H1053 C1064 0.950 . S
H1054 C1066 0.950 . S
H1055 C1067 0.950 . S
C1056 H1048 0.950 . S
C1056 C1057 1.386 . S
C1056 C1058 1.391 . S
C1057 C1056 1.386 . S
C1057 C1061 1.393 . S
C1058 H1050 0.950 . S
C1058 C1056 1.391 . S
C1058 C1059 1.400 . S
C1059 C1058 1.400 . S
C1059 C1060 1.398 . S
C1059 C1065 1.491 . S
C1060 H1051 0.950 . S
C1060 C1059 1.398 . S
C1060 C1061 1.391 . S
C1061 H1049 0.950 . S
C1061 C1057 1.393 . S
C1061 C1060 1.391 . S
C1062 H1052 0.950 . S
C1062 C1063 1.386 . S
C1062 C1064 1.391 . S
C1063 C1062 1.386 . S
C1063 C1067 1.393 . S
C1064 H1053 0.950 . S
C1064 C1062 1.391 . S
C1064 C1065 1.400 . S
C1065 C1059 1.491 . S
C1065 C1064 1.400 . S
C1065 C1066 1.398 . S
C1066 H1054 0.950 . S
C1066 C1065 1.398 . S
C1066 C1067 1.391 . S
C1067 H1055 0.950 . S
C1067 C1063 1.393 . S
C1067 C1066 1.391 . S
H1068 C1076 0.950 . S
H1069 C1081 0.950 . S
H1070 C1078 0.950 . S
H1071 C1080 0.950 . S
H1072 C1082 0.950 . S
H1073 C1084 0.950 . S
H1074 C1086 0.950 . S
H1075 C1087 0.950 . S
C1076 H1068 0.950 . S
C1076 C1077 1.386 . S
C1076 C1078 1.391 . S
C1077 C1076 1.386 . S
C1077 C1081 1.393 . S
C1078 H1070 0.950 . S
C1078 C1076 1.391 . S
C1078 C1079 1.400 . S
C1079 C1078 1.400 . S
C1079 C1080 1.398 . S
C1079 C1085 1.491 . S
C1080 H1071 0.950 . S
C1080 C1079 1.398 . S
C1080 C1081 1.391 . S
C1081 H1069 0.950 . S
C1081 C1077 1.393 . S
C1081 C1080 1.391 . S
C1082 H1072 0.950 . S
C1082 C1083 1.386 . S
C1082 C1084 1.391 . S
C1083 C1082 1.386 . S
C1083 C1087 1.393 . S
C1084 H1073 0.950 . S
C1084 C1082 1.391 . S
C1084 C1085 1.400 . S
C1085 C1079 1.491 . S
C1085 C1084 1.400 . S
C1085 C1086 1.398 . S
C1086 H1074 0.950 . S
C1086 C1085 1.398 . S
C1086 C1087 1.391 . S
C1087 H1075 0.950 . S
C1087 C1083 1.393 . S
C1087 C1086 1.391 . S
H1088 C1096 0.950 . S
H1089 C1101 0.950 . S
H1090 C1098 0.950 . S
H1091 C1100 0.950 . S
H1092 C1102 0.950 . S
H1093 C1104 0.950 . S
H1094 C1106 0.950 . S
H1095 C1107 0.950 . S
C1096 H1088 0.950 . S
C1096 C1097 1.386 . S
C1096 C1098 1.391 . S
C1097 C1096 1.386 . S
C1097 C1101 1.393 . S
C1098 H1090 0.950 . S
C1098 C1096 1.391 . S
C1098 C1099 1.400 . S
C1099 C1098 1.400 . S
C1099 C1100 1.398 . S
C1099 C1105 1.491 . S
C1100 H1091 0.950 . S
C1100 C1099 1.398 . S
C1100 C1101 1.391 . S
C1101 H1089 0.950 . S
C1101 C1097 1.393 . S
C1101 C1100 1.391 . S
C1102 H1092 0.950 . S
C1102 C1103 1.386 . S
C1102 C1104 1.391 . S
C1103 C1102 1.386 . S
C1103 C1107 1.393 . S
C1104 H1093 0.950 . S
C1104 C1102 1.391 . S
C1104 C1105 1.400 . S
C1105 C1099 1.491 . S
C1105 C1104 1.400 . S
C1105 C1106 1.398 . S
C1106 H1094 0.950 . S
C1106 C1105 1.398 . S
C1106 C1107 1.391 . S
C1107 H1095 0.950 . S
C1107 C1103 1.393 . S
C1107 C1106 1.391 . S
H1108 C1116 0.950 . S
H1109 C1121 0.950 . S
H1110 C1118 0.950 . S
H1111 C1120 0.950 . S
H1112 C1122 0.950 . S
H1113 C1124 0.950 . S
H1114 C1126 0.950 . S
H1115 C1127 0.950 . S
C1116 H1108 0.950 . S
C1116 C1117 1.386 . S
C1116 C1118 1.391 . S
C1117 C1116 1.386 . S
C1117 C1121 1.393 . S
C1118 H1110 0.950 . S
C1118 C1116 1.391 . S
C1118 C1119 1.400 . S
C1119 C1118 1.400 . S
C1119 C1120 1.398 . S
C1119 C1125 1.491 . S
C1120 H1111 0.950 . S
C1120 C1119 1.398 . S
C1120 C1121 1.391 . S
C1121 H1109 0.950 . S
C1121 C1117 1.393 . S
C1121 C1120 1.391 . S
C1122 H1112 0.950 . S
C1122 C1123 1.386 . S
C1122 C1124 1.391 . S
C1123 C1122 1.386 . S
C1123 C1127 1.393 . S
C1124 H1113 0.950 . S
C1124 C1122 1.391 . S
C1124 C1125 1.400 . S
C1125 C1119 1.491 . S
C1125 C1124 1.400 . S
C1125 C1126 1.398 . S
C1126 H1114 0.950 . S
C1126 C1125 1.398 . S
C1126 C1127 1.391 . S
C1127 H1115 0.950 . S
C1127 C1123 1.393 . S
C1127 C1126 1.391 . S
H1128 C1136 0.950 . S
H1129 C1141 0.950 . S
H1130 C1138 0.950 . S
H1131 C1140 0.950 . S
H1132 C1142 0.950 . S
H1133 C1144 0.950 . S
H1134 C1146 0.950 . S
H1135 C1147 0.950 . S
C1136 H1128 0.950 . S
C1136 C1137 1.386 . S
C1136 C1138 1.391 . S
C1137 C1136 1.386 . S
C1137 C1141 1.393 . S
C1138 H1130 0.950 . S
C1138 C1136 1.391 . S
C1138 C1139 1.400 . S
C1139 C1138 1.400 . S
C1139 C1140 1.398 . S
C1139 C1145 1.491 . S
C1140 H1131 0.950 . S
C1140 C1139 1.398 . S
C1140 C1141 1.391 . S
C1141 H1129 0.950 . S
C1141 C1137 1.393 . S
C1141 C1140 1.391 . S
C1142 H1132 0.950 . S
C1142 C1143 1.386 . S
C1142 C1144 1.391 . S
C1143 C1142 1.386 . S
C1143 C1147 1.393 . S
C1144 H1133 0.950 . S
C1144 C1142 1.391 . S
C1144 C1145 1.400 . S
C1145 C1139 1.491 . S
C1145 C1144 1.400 . S
C1145 C1146 1.398 . S
C1146 H1134 0.950 . S
C1146 C1145 1.398 . S
C1146 C1147 1.391 . S
C1147 H1135 0.950 . S
C1147 C1143 1.393 . S
C1147 C1146 1.391 . S
H1148 C1156 0.950 . S
H1149 C1161 0.950 . S
H1150 C1158 0.950 . S
H1151 C1160 0.950 . S
H1152 C1162 0.950 . S
H1153 C1164 0.950 . S
H1154 C1166 0.950 . S
H1155 C1167 0.950 . S
C1156 H1148 0.950 . S
C1156 C1157 1.386 . S
C1156 C1158 1.391 . S
C1157 C1156 1.386 . S
C1157 C1161 1.393 . S
C1158 H1150 0.950 . S
C1158 C1156 1.391 . S
C1158 C1159 1.400 . S
C1159 C1158 1.400 . S
C1159 C1160 1.398 . S
C1159 C1165 1.491 . S
C1160 H1151 0.950 . S
C1160 C1159 1.398 . S
C1160 C1161 1.391 . S
C1161 H1149 0.950 . S
C1161 C1157 1.393 . S
C1161 C1160 1.391 . S
C1162 H1152 0.950 . S
C1162 C1163 1.386 . S
C1162 C1164 1.391 . S
C1163 C1162 1.386 . S
C1163 C1167 1.393 . S
C1164 H1153 0.950 . S
C1164 C1162 1.391 . S
C1164 C1165 1.400 . S
C1165 C1159 1.491 . S
C1165 C1164 1.400 . S
C1165 C1166 1.398 . S
C1166 H1154 0.950 . S
C1166 C1165 1.398 . S
C1166 C1167 1.391 . S
C1167 H1155 0.950 . S
C1167 C1163 1.393 . S
C1167 C1166 1.391 . S
H1168 C1176 0.950 . S
H1169 C1181 0.950 . S
H1170 C1178 0.950 . S
H1171 C1180 0.950 . S
H1172 C1182 0.950 . S
H1173 C1184 0.950 . S
H1174 C1186 0.950 . S
H1175 C1187 0.950 . S
C1176 H1168 0.950 . S
C1176 C1177 1.386 . S
C1176 C1178 1.391 . S
C1177 C1176 1.386 . S
C1177 C1181 1.393 . S
C1178 H1170 0.950 . S
C1178 C1176 1.391 . S
C1178 C1179 1.400 . S
C1179 C1178 1.400 . S
C1179 C1180 1.398 . S
C1179 C1185 1.491 . S
C1180 H1171 0.950 . S
C1180 C1179 1.398 . S
C1180 C1181 1.391 . S
C1181 H1169 0.950 . S
C1181 C1177 1.393 . S
C1181 C1180 1.391 . S
C1182 H1172 0.950 . S
C1182 C1183 1.386 . S
C1182 C1184 1.391 . S
C1183 C1182 1.386 . S
C1183 C1187 1.393 . S
C1184 H1173 0.950 . S
C1184 C1182 1.391 . S
C1184 C1185 1.400 . S
C1185 C1179 1.491 . S
C1185 C1184 1.400 . S
C1185 C1186 1.398 . S
C1186 H1174 0.950 . S
C1186 C1185 1.398 . S
C1186 C1187 1.391 . S
C1187 H1175 0.950 . S
C1187 C1183 1.393 . S
C1187 C1186 1.391 . S
C717 C33 1.715 . S
C723 C682 1.710 . S
C737 C387 1.714 . S
C743 C92 1.709 . S
C757 C151 1.713 . S
C763 C446 1.715 . S
C777 C505 1.710 . S
C783 C210 1.715 . S
C797 C564 1.710 . S
C803 C269 1.715 . S
C817 C623 1.715 . S
C823 C328 1.712 . S
C837 C180 1.084 . S
C843 C475 1.075 . S
C857 C239 1.073 . S
C863 C534 1.086 . S
C877 C298 1.082 . S
C883 C593 1.068 . S
C897 C652 1.081 . S
C903 C3 1.068 . S
C917 C62 1.084 . S
C923 C357 1.067 . S
C937 C121 1.072 . S
C943 C416 1.077 . S
C957 C524 1.830 . S
C963 C52 1.831 . S
C977 C583 1.833 . S
C983 C111 1.829 . S
C997 C170 1.836 . S
C1003 C642 1.840 . S
C1017 C229 1.839 . S
C1023 C701 1.837 . S
C1037 C288 1.829 . S
C1043 C406 1.834 . S
C1057 C465 1.834 . S
C1063 C347 1.829 . S
C1077 C5 1.768 . S
C1083 C595 1.774 . S
C1097 C654 1.771 . S
C1103 C64 1.771 . S
C1117 C123 1.770 . S
C1123 C359 1.772 . S
C1137 C182 1.769 . S
C1143 C418 1.772 . S
C1157 C241 1.770 . S
C1163 C477 1.772 . S
C1177 C300 1.769 . S
C1183 C536 1.773 . S
