# Generated by pormake.
# Topology wme, (6)-cn, num edge types: 1
# Building blocks:
#     Node 0, Type 0, BuildingBlock: BETGAK_clean_sbu_0, # of connection points: 6
#     Node 1, Type 0, BuildingBlock: BETGAK_clean_sbu_0, # of connection points: 6
#     Node 2, Type 0, BuildingBlock: BETGAK_clean_sbu_0, # of connection points: 6
#     Node 3, Type 0, BuildingBlock: BETGAK_clean_sbu_0, # of connection points: 6
#     Node 4, Type 0, BuildingBlock: BETGAK_clean_sbu_0, # of connection points: 6
#     Node 5, Type 0, BuildingBlock: BETGAK_clean_sbu_0, # of connection points: 6
#     Node 6, Type 0, BuildingBlock: BETGAK_clean_sbu_0, # of connection points: 6
#     Node 7, Type 0, BuildingBlock: BETGAK_clean_sbu_0, # of connection points: 6
#     Node 8, Type 0, BuildingBlock: BETGAK_clean_sbu_0, # of connection points: 6
#     Node 9, Type 0, BuildingBlock: BETGAK_clean_sbu_0, # of connection points: 6
#     Node 10, Type 0, BuildingBlock: BETGAK_clean_sbu_0, # of connection points: 6
#     Node 11, Type 0, BuildingBlock: BETGAK_clean_sbu_0, # of connection points: 6
#     Edge 12, Type (0, 0), BuildingBlock: KIFKEQ_clean_linker_1, # of connection points: 2
#     Edge 13, Type (0, 0), BuildingBlock: KIFKEQ_clean_linker_1, # of connection points: 2
#     Edge 14, Type (0, 0), BuildingBlock: KIFKEQ_clean_linker_1, # of connection points: 2
#     Edge 15, Type (0, 0), BuildingBlock: KIFKEQ_clean_linker_1, # of connection points: 2
#     Edge 16, Type (0, 0), BuildingBlock: KIFKEQ_clean_linker_1, # of connection points: 2
#     Edge 17, Type (0, 0), BuildingBlock: KIFKEQ_clean_linker_1, # of connection points: 2
#     Edge 18, Type (0, 0), BuildingBlock: KIFKEQ_clean_linker_1, # of connection points: 2
#     Edge 19, Type (0, 0), BuildingBlock: KIFKEQ_clean_linker_1, # of connection points: 2
#     Edge 20, Type (0, 0), BuildingBlock: KIFKEQ_clean_linker_1, # of connection points: 2
#     Edge 21, Type (0, 0), BuildingBlock: KIFKEQ_clean_linker_1, # of connection points: 2
#     Edge 22, Type (0, 0), BuildingBlock: KIFKEQ_clean_linker_1, # of connection points: 2
#     Edge 23, Type (0, 0), BuildingBlock: KIFKEQ_clean_linker_1, # of connection points: 2
#     Edge 24, Type (0, 0), BuildingBlock: KIFKEQ_clean_linker_1, # of connection points: 2
#     Edge 25, Type (0, 0), BuildingBlock: KIFKEQ_clean_linker_1, # of connection points: 2
#     Edge 26, Type (0, 0), BuildingBlock: KIFKEQ_clean_linker_1, # of connection points: 2
#     Edge 27, Type (0, 0), BuildingBlock: KIFKEQ_clean_linker_1, # of connection points: 2
#     Edge 28, Type (0, 0), BuildingBlock: KIFKEQ_clean_linker_1, # of connection points: 2
#     Edge 29, Type (0, 0), BuildingBlock: KIFKEQ_clean_linker_1, # of connection points: 2
#     Edge 30, Type (0, 0), BuildingBlock: KIFKEQ_clean_linker_1, # of connection points: 2
#     Edge 31, Type (0, 0), BuildingBlock: KIFKEQ_clean_linker_1, # of connection points: 2
#     Edge 32, Type (0, 0), BuildingBlock: KIFKEQ_clean_linker_1, # of connection points: 2
#     Edge 33, Type (0, 0), BuildingBlock: KIFKEQ_clean_linker_1, # of connection points: 2
#     Edge 34, Type (0, 0), BuildingBlock: KIFKEQ_clean_linker_1, # of connection points: 2
#     Edge 35, Type (0, 0), BuildingBlock: KIFKEQ_clean_linker_1, # of connection points: 2
#     Edge 36, Type (0, 0), BuildingBlock: KIFKEQ_clean_linker_1, # of connection points: 2
#     Edge 37, Type (0, 0), BuildingBlock: KIFKEQ_clean_linker_1, # of connection points: 2
#     Edge 38, Type (0, 0), BuildingBlock: KIFKEQ_clean_linker_1, # of connection points: 2
#     Edge 39, Type (0, 0), BuildingBlock: KIFKEQ_clean_linker_1, # of connection points: 2
#     Edge 40, Type (0, 0), BuildingBlock: KIFKEQ_clean_linker_1, # of connection points: 2
#     Edge 41, Type (0, 0), BuildingBlock: KIFKEQ_clean_linker_1, # of connection points: 2
#     Edge 42, Type (0, 0), BuildingBlock: KIFKEQ_clean_linker_1, # of connection points: 2
#     Edge 43, Type (0, 0), BuildingBlock: KIFKEQ_clean_linker_1, # of connection points: 2
#     Edge 44, Type (0, 0), BuildingBlock: KIFKEQ_clean_linker_1, # of connection points: 2
#     Edge 45, Type (0, 0), BuildingBlock: KIFKEQ_clean_linker_1, # of connection points: 2
#     Edge 46, Type (0, 0), BuildingBlock: KIFKEQ_clean_linker_1, # of connection points: 2
#     Edge 47, Type (0, 0), BuildingBlock: KIFKEQ_clean_linker_1, # of connection points: 2
# Relax obj value: 0.104
# Max RMSD: 0.207
# Mean RMSD: 0.207
data_MOF--net-wme--node1-BETGAK_clean_sbu_0--edge1-KIFKEQ_clean_linker_1
_symmetry_space_group_name_H-M    P1
_symmetry_Int_Tables_number       1
_symmetry_cell_setting            triclinic
loop_
_symmetry_equiv_pos_as_xyz
'x, y, z'
_cell_length_a     40.751227
_cell_length_b     40.752354
_cell_length_c     51.057064
_cell_angle_alpha  89.773318
_cell_angle_beta   90.131987
_cell_angle_gamma 120.06765
loop_
_atom_site_label
_atom_site_type_symbol
_atom_site_fract_x
_atom_site_fract_y
_atom_site_fract_z
_atom_type_partial_charge
La0 La 0.22653 0.3752 0.14234 0.0
La1 La 0.26704 0.33335 0.15762 0.0
C2 C 0.19827 0.41788 0.13629 0.0
C3 C 0.20049 0.45487 0.14183 0.0
C4 C 0.215 0.48399 0.12294 0.0
C5 C 0.21098 0.51605 0.12589 0.0
C6 C 0.19199 0.51977 0.14772 0.0
C7 C 0.17848 0.49113 0.167 0.0
C8 C 0.18259 0.45915 0.16407 0.0
C9 C 0.24594 0.34405 0.10398 0.0
C10 C 0.3148 0.42141 0.15442 0.0
C11 C 0.28842 0.28491 0.15684 0.0
C12 C 0.26906 0.24279 0.15713 0.0
C13 C 0.24446 0.22122 0.17756 0.0
C14 C 0.22716 0.18156 0.17767 0.0
C15 C 0.23378 0.16242 0.15728 0.0
C16 C 0.25783 0.18405 0.13661 0.0
C17 C 0.27532 0.22372 0.1366 0.0
C18 C 0.25289 0.36476 0.19745 0.0
C19 C 0.17546 0.28949 0.15288 0.0
O20 O 0.22249 0.41681 0.11998 0.0
O21 O 0.18981 0.39374 0.1556 0.0
O22 O 0.21407 0.34389 0.10454 0.0
O23 O 0.26474 0.36141 0.12367 0.0
O24 O 0.28185 0.42049 0.15555 0.0
O25 O 0.31653 0.38991 0.15128 0.0
O26 O 0.28676 0.30179 0.17816 0.0
O27 O 0.28358 0.30036 0.13576 0.0
O28 O 0.28224 0.36034 0.19564 0.0
O29 O 0.23112 0.34917 0.17802 0.0
O30 O 0.20689 0.28726 0.15361 0.0
O31 O 0.17651 0.32216 0.15076 0.0
H32 H 0.2282 0.48136 0.10529 0.0
H33 H 0.22143 0.53719 0.11047 0.0
H34 H 0.16423 0.49316 0.18427 0.0
H35 H 0.17051 0.43712 0.17888 0.0
H36 H 0.23864 0.23492 0.19357 0.0
H37 H 0.20846 0.16584 0.19373 0.0
H38 H 0.26395 0.17039 0.12073 0.0
H39 H 0.29406 0.23958 0.12057 0.0
La40 La 0.87718 0.21628 0.6383 0.0
La41 La 0.96115 0.25213 0.65289 0.0
C42 C 0.80778 0.19266 0.6292 0.0
C43 C 0.77048 0.18549 0.63894 0.0
C44 C 0.73959 0.1483 0.63788 0.0
C45 C 0.70277 0.14068 0.64316 0.0
C46 C 0.69576 0.17013 0.6496 0.0
C47 C 0.72691 0.20729 0.65159 0.0
C48 C 0.7639 0.21495 0.6462 0.0
C49 C 0.92805 0.23711 0.59963 0.0
C50 C 0.92158 0.30136 0.65713 0.0
C51 C 1.03006 0.274 0.64509 0.0
C52 C 0.0549 0.258 0.65059 0.0
C53 C 0.09363 0.28225 0.65522 0.0
C54 C 0.11813 0.26763 0.65765 0.0
C55 C 0.10445 0.22839 0.65526 0.0
C56 C 0.06531 0.20405 0.65158 0.0
C57 C 0.04082 0.21867 0.64934 0.0
C58 C 0.92195 0.22776 0.69657 0.0
C59 C 0.90701 0.16197 0.65114 0.0
O60 O 0.83487 0.22756 0.62482 0.0
O61 O 0.82078 0.1714 0.63847 0.0
O62 O 0.89572 0.20609 0.59947 0.0
O63 O 0.93013 0.25394 0.62038 0.0
O64 O 0.88877 0.26898 0.65712 0.0
O65 O 0.95436 0.30249 0.6526 0.0
O66 O 1.01812 0.28521 0.66517 0.0
O67 O 1.00311 0.25509 0.62801 0.0
O68 O 0.95855 0.24442 0.69497 0.0
O69 O 0.90836 0.22501 0.67379 0.0
O70 O 0.94172 0.19105 0.64715 0.0
O71 O 0.87744 0.16676 0.65265 0.0
H72 H 0.74377 0.12509 0.6321 0.0
H73 H 0.67965 0.11169 0.64182 0.0
H74 H 0.72257 0.23072 0.65631 0.0
H75 H 0.78705 0.24398 0.64695 0.0
H76 H 0.10511 0.31261 0.65636 0.0
H77 H 0.14795 0.28721 0.66109 0.0
H78 H 0.0537 0.17379 0.64945 0.0
H79 H 1.01102 0.19924 0.64579 0.0
La80 La 0.6875 0.86666 0.14273 0.0
La81 La 0.73379 0.9531 0.1541 0.0
C82 C 0.64279 0.79626 0.13729 0.0
C83 C 0.60616 0.76174 0.1438 0.0
C84 C 0.57616 0.74763 0.12568 0.0
C85 C 0.54429 0.71155 0.12893 0.0
C86 C 0.54161 0.68843 0.15033 0.0
C87 C 0.57106 0.7031 0.16895 0.0
C88 C 0.60297 0.73924 0.1657 0.0
C89 C 0.71838 0.91474 0.10271 0.0
C90 C 0.64454 0.91164 0.1561 0.0
C91 C 0.77957 1.02151 0.14334 0.0
C92 C 0.82035 0.04729 0.14809 0.0
C93 C 0.83874 0.04266 0.1699 0.0
C94 C 0.87826 0.06461 0.17238 0.0
C95 C 0.90013 0.09115 0.15289 0.0
C96 C 0.88144 0.0958 0.13121 0.0
C97 C 0.84199 0.07411 0.12886 0.0
C98 C 0.71683 0.916 0.19904 0.0
C99 C 0.77298 0.90106 0.15501 0.0
O100 O 0.64249 0.82218 0.12216 0.0
O101 O 0.66924 0.81097 0.15531 0.0
O102 O 0.7182 0.88294 0.10452 0.0
O103 O 0.70242 0.91801 0.12254 0.0
O104 O 0.64451 0.87905 0.15716 0.0
O105 O 0.67609 0.9447 0.15171 0.0
O106 O 0.75658 1.01076 0.1636 0.0
O107 O 0.77231 0.99327 0.12777 0.0
O108 O 0.73589 0.95267 0.19678 0.0
O109 O 0.7085 0.90205 0.17626 0.0
O110 O 0.77737 0.93548 0.15167 0.0
O111 O 0.73939 0.87012 0.15522 0.0
H112 H 0.57801 0.76378 0.10828 0.0
H113 H 0.52252 0.70117 0.11397 0.0
H114 H 0.56977 0.6864 0.18588 0.0
H115 H 0.62575 0.74892 0.17988 0.0
H116 H 0.82268 1.02149 0.18468 0.0
H117 H 0.89179 0.06012 0.1892 0.0
H118 H 0.89734 0.11631 0.11603 0.0
H119 H 0.82841 0.07768 0.11167 0.0
La120 La 0.84612 0.67194 0.64122 0.0
La121 La 0.80606 0.71861 0.65285 0.0
C122 C 0.87308 0.62812 0.63751 0.0
C123 C 0.87148 0.59149 0.64329 0.0
C124 C 0.86736 0.56738 0.62238 0.0
C125 C 0.87275 0.53632 0.62607 0.0
C126 C 0.88257 0.52845 0.65081 0.0
C127 C 0.88516 0.55167 0.67203 0.0
C128 C 0.8799 0.58294 0.66829 0.0
C129 C 0.82477 0.69921 0.60116 0.0
C130 C 0.75839 0.62887 0.65632 0.0
C131 C 0.78104 0.76242 0.64199 0.0
C132 C 0.79376 0.80287 0.64608 0.0
C133 C 0.82248 0.82485 0.66413 0.0
C134 C 0.83672 0.86408 0.66581 0.0
C135 C 0.82266 0.88209 0.64934 0.0
C136 C 0.7939 0.85971 0.63129 0.0
C137 C 0.77966 0.82061 0.62971 0.0
C138 C 0.83198 0.70695 0.6972 0.0
C139 C 0.89735 0.75928 0.64711 0.0
O140 O 0.8488 0.62851 0.62079 0.0
O141 O 0.88184 0.65302 0.65633 0.0
O142 O 0.85634 0.69875 0.60165 0.0
O143 O 0.80761 0.68501 0.62209 0.0
O144 O 0.7909 0.62871 0.65611 0.0
O145 O 0.75681 0.66051 0.65262 0.0
O146 O 0.77012 0.74001 0.66263 0.0
O147 O 0.80289 0.75626 0.62647 0.0
O148 O 0.81386 0.72547 0.69506 0.0
O149 O 0.83491 0.69604 0.67458 0.0
O150 O 0.86645 0.76259 0.64704 0.0
O151 O 0.89582 0.72619 0.64764 0.0
H152 H 0.8614 0.57341 0.60282 0.0
H153 H 0.86981 0.51877 0.60935 0.0
H154 H 0.89284 0.54666 0.69134 0.0
H155 H 0.88382 0.60118 0.6848 0.0
H156 H 0.83426 0.81178 0.67664 0.0
H157 H 0.8586 0.88024 0.68009 0.0
H158 H 0.78287 0.87251 0.61789 0.0
H159 H 0.75814 0.8043 0.61522 0.0
La160 La 0.19821 0.83707 0.14319 0.0
La161 La 0.11108 0.79501 0.154 0.0
C162 C 0.26915 0.86445 0.13919 0.0
C163 C 0.3039 0.86272 0.14579 0.0
C164 C 0.31732 0.84511 0.12867 0.0
C165 C 0.35352 0.84958 0.13195 0.0
C166 C 0.37753 0.87204 0.15235 0.0
C167 C 0.36357 0.88861 0.17 0.0
C168 C 0.32733 0.8841 0.16673 0.0
C169 C 0.15057 0.81907 0.10283 0.0
C170 C 0.15383 0.74827 0.15534 0.0
C171 C 0.04254 0.77123 0.14275 0.0
C172 C 1.01555 0.78486 0.147 0.0
C173 C 1.02295 0.81346 0.16526 0.0
C174 C 0.99882 0.82867 0.16711 0.0
C175 C 0.96692 0.8157 0.15062 0.0
C176 C 0.95985 0.78707 0.13234 0.0
C177 C 0.9839 0.77189 0.13057 0.0
C178 C 0.14784 0.81559 0.19908 0.0
C179 C 0.16157 0.88654 0.15423 0.0
O180 O 0.24431 0.8394 0.12297 0.0
O181 O 0.25306 0.87406 0.1575 0.0
O182 O 0.18226 0.85092 0.10453 0.0
O183 O 0.1473 0.80002 0.12285 0.0
O184 O 0.18622 0.78112 0.15659 0.0
O185 O 0.12051 0.74636 0.15136 0.0
O186 O 0.05333 0.75942 0.16327 0.0
O187 O 0.07099 0.79295 0.12742 0.0
O188 O 0.11117 0.79729 0.19673 0.0
O189 O 0.16186 0.82158 0.1763 0.0
O190 O 0.12756 0.85584 0.1511 0.0
O191 O 0.1931 0.88499 0.15468 0.0
H192 H 0.3005 0.82913 0.11199 0.0
H193 H 0.36328 0.83672 0.11774 0.0
H194 H 0.38089 0.90561 0.18618 0.0
H195 H 0.31826 0.89859 0.18008 0.0
H196 H 0.04767 0.82438 0.17782 0.0
H197 H 1.00503 0.85041 0.18156 0.0
H198 H 0.93611 0.77685 0.11895 0.0
H199 H 0.97819 0.75051 0.11591 0.0
La200 La 0.38868 0.18101 0.64432 0.0
La201 La 0.3444 0.1002 0.66188 0.0
C202 C 0.43286 0.25117 0.63564 0.0
C203 C 0.46961 0.28644 0.64066 0.0
C204 C 0.49185 0.30751 0.61923 0.0
C205 C 0.5229 0.34413 0.62264 0.0
C206 C 0.53257 0.3609 0.64762 0.0
C207 C 0.51116 0.33914 0.66926 0.0
C208 C 0.48001 0.30245 0.66582 0.0
C209 C 0.35359 0.1285 0.60725 0.0
C210 C 0.43235 0.13716 0.65776 0.0
C211 C 0.29439 0.03083 0.66406 0.0
C212 C 0.25246 1.00865 0.66142 0.0
C213 C 0.23067 0.98304 0.68127 0.0
C214 C 0.19114 0.96121 0.67904 0.0
C215 C 0.17238 0.96425 0.65678 0.0
C216 C 0.19423 0.99025 0.63701 0.0
C217 C 0.23377 1.0123 0.63934 0.0
C218 C 0.37957 0.14704 0.70065 0.0
C219 C 0.30409 0.15072 0.65546 0.0
O220 O 0.43223 0.22427 0.62131 0.0
O221 O 0.40792 0.23756 0.65456 0.0
O222 O 0.35568 0.16128 0.60703 0.0
O223 O 0.37127 0.12726 0.62683 0.0
O224 O 0.43302 0.16998 0.65787 0.0
O225 O 0.39985 0.10443 0.65597 0.0
O226 O 0.3077 0.05258 0.68468 0.0
O227 O 0.31396 0.0476 0.64297 0.0
O228 O 0.37376 0.11275 0.69893 0.0
O229 O 0.36387 0.15362 0.68135 0.0
O230 O 0.3 0.11626 0.65601 0.0
O231 O 0.33767 0.1812 0.65352 0.0
H232 H 0.48435 0.29617 0.59958 0.0
H233 H 0.53902 0.35954 0.60554 0.0
H234 H 0.51747 0.35101 0.68879 0.0
H235 H 0.46327 0.28724 0.68277 0.0
H236 H 0.24433 0.97964 0.69847 0.0
H237 H 0.17534 0.94118 0.69448 0.0
H238 H 0.18072 0.99361 0.61972 0.0
H239 H 0.24967 0.03202 0.62375 0.0
La240 La 0.68909 0.83461 0.43417 0.0
La241 La 0.7354 0.79464 0.4212 0.0
C242 C 0.64424 0.86009 0.44019 0.0
C243 C 0.60817 0.85919 0.43343 0.0
C244 C 0.57732 0.84251 0.45086 0.0
C245 C 0.54593 0.84752 0.4475 0.0
C246 C 0.54452 0.86961 0.4267 0.0
C247 C 0.57491 0.88533 0.40879 0.0
C248 C 0.60632 0.88028 0.41214 0.0
C249 C 0.71888 0.81445 0.47342 0.0
C250 C 0.64619 0.74721 0.41888 0.0
C251 C 0.78121 0.77179 0.43119 0.0
C252 C 0.82207 0.7865 0.42667 0.0
C253 C 0.84086 0.80878 0.40465 0.0
C254 C 0.88035 0.82549 0.40222 0.0
C255 C 0.90185 0.8207 0.42195 0.0
C256 C 0.88275 0.79815 0.44386 0.0
C257 C 0.84334 0.78125 0.44616 0.0
C258 C 0.7183 0.81651 0.37708 0.0
C259 C 0.77484 0.88599 0.4222 0.0
O260 O 0.64292 0.83248 0.45429 0.0
O261 O 0.67167 0.8732 0.42287 0.0
O262 O 0.71851 0.84606 0.47293 0.0
O263 O 0.70351 0.79686 0.45293 0.0
O264 O 0.64638 0.77991 0.41841 0.0
O265 O 0.67759 0.74537 0.42307 0.0
O266 O 0.75838 0.76027 0.41081 0.0
O267 O 0.77393 0.79233 0.4472 0.0
O268 O 0.73716 0.79863 0.37861 0.0
O269 O 0.71026 0.82144 0.40014 0.0
O270 O 0.77899 0.85569 0.42439 0.0
O271 O 0.74142 0.88366 0.4228 0.0
H272 H 0.57809 0.82685 0.46781 0.0
H273 H 0.52346 0.83533 0.46193 0.0
H274 H 0.57471 0.90204 0.39231 0.0
H275 H 0.62974 0.89406 0.39852 0.0
H276 H 0.82515 0.81391 0.38961 0.0
H277 H 0.89417 0.84294 0.38521 0.0
H278 H 0.89827 0.79342 0.45925 0.0
H279 H 0.8295 0.7646 0.46348 0.0
La280 La 0.87773 0.67657 0.93719 0.0
La281 La 0.95764 0.71716 0.91806 0.0
C282 C 0.80738 0.63434 0.94582 0.0
C283 C 0.77242 0.597 0.94191 0.0
C284 C 0.75068 0.5773 0.96388 0.0
C285 C 0.71452 0.54539 0.96097 0.0
C286 C 0.69894 0.5323 0.93594 0.0
C287 C 0.72136 0.55125 0.91389 0.0
C288 C 0.75759 0.58328 0.91683 0.0
C289 C 0.93195 0.70998 0.97335 0.0
C290 C 0.91832 0.6292 0.92428 0.0
C291 C 1.02739 0.76515 0.91382 0.0
C292 C 0.05034 0.80702 0.91586 0.0
C293 C 0.07938 0.82756 0.89769 0.0
C294 C 0.10158 0.86713 0.89934 0.0
C295 C 0.09534 0.8871 0.91933 0.0
C296 C 0.0659 0.86644 0.93737 0.0
C297 C 0.04355 0.82688 0.93561 0.0
C298 C 0.90819 0.68307 0.88035 0.0
C299 C 0.91205 0.76229 0.92825 0.0
O300 O 0.83384 0.63644 0.9615 0.0
O301 O 0.82153 0.65706 0.92561 0.0
O302 O 0.89975 0.70908 0.97432 0.0
O303 O 0.93163 0.6917 0.95369 0.0
O304 O 0.88623 0.62999 0.925 0.0
O305 O 0.95177 0.66106 0.92461 0.0
O306 O 1.00425 0.75186 0.89385 0.0
O307 O 1.01157 0.74645 0.93539 0.0
O308 O 0.94153 0.68636 0.88167 0.0
O309 O 0.90386 0.70027 0.89965 0.0
O310 O 0.94505 0.7638 0.92452 0.0
O311 O 0.88042 0.72991 0.93136 0.0
H312 H 0.76117 0.58738 0.98344 0.0
H313 H 0.69857 0.53123 0.97842 0.0
H314 H 0.71036 0.54226 0.8943 0.0
H315 H 0.77339 0.59799 0.89945 0.0
H316 H 0.0851 0.81292 0.88227 0.0
H317 H 0.12425 0.882 0.88531 0.0
H318 H 0.06001 0.88088 0.95283 0.0
H319 H 1.02107 0.81185 0.94976 0.0
La320 La 0.22986 0.86619 0.43454 0.0
La321 La 0.27054 0.95258 0.42151 0.0
C322 C 0.2038 0.7958 0.44084 0.0
C323 C 0.20502 0.76066 0.43516 0.0
C324 C 0.20851 0.74028 0.45618 0.0
C325 C 0.20292 0.70378 0.45255 0.0
C326 C 0.19355 0.6865 0.42774 0.0
C327 C 0.19159 0.70755 0.40642 0.0
C328 C 0.19707 0.74413 0.4101 0.0
C329 C 0.24732 0.91546 0.4737 0.0
C330 C 0.31822 0.91112 0.42086 0.0
C331 C 0.29199 1.02128 0.43 0.0
C332 C 0.27429 0.04502 0.42553 0.0
C333 C 0.29581 0.0819 0.41547 0.0
C334 C 0.27965 0.10506 0.41241 0.0
C335 C 0.24162 0.09186 0.41948 0.0
C336 C 0.22001 0.05469 0.42922 0.0
C337 C 0.23609 0.03156 0.43215 0.0
C338 C 0.24975 0.91372 0.37734 0.0
C339 C 0.17912 0.9007 0.42158 0.0
O340 O 0.23014 0.82179 0.45578 0.0
O341 O 0.19248 0.8104 0.42242 0.0
O342 O 0.21588 0.88334 0.47248 0.0
O343 O 0.2665 0.91827 0.45389 0.0
O344 O 0.28553 0.87849 0.42052 0.0
O345 O 0.31996 0.94445 0.42419 0.0
O346 O 0.30246 1.00981 0.40928 0.0
O347 O 0.27517 0.99425 0.44742 0.0
O348 O 0.268 0.95043 0.37882 0.0
O349 O 0.24421 0.90071 0.40045 0.0
O350 O 0.20945 0.93502 0.42436 0.0
O351 O 0.18132 0.86954 0.42194 0.0
H352 H 0.21416 0.75204 0.47576 0.0
H353 H 0.20539 0.68884 0.46934 0.0
H354 H 0.18427 0.69517 0.38706 0.0
H355 H 0.19371 0.75884 0.39351 0.0
H356 H 0.3253 0.09301 0.41032 0.0
H357 H 0.29727 0.13366 0.4051 0.0
H358 H 0.19056 0.04339 0.43454 0.0
H359 H 0.21862 1.00324 0.43993 0.0
La360 La 0.38721 0.21331 0.93916 0.0
La361 La 0.34562 0.25252 0.92166 0.0
C362 C 0.42963 0.18518 0.94632 0.0
C363 C 0.4668 0.18759 0.94181 0.0
C364 C 0.48727 0.18605 0.96349 0.0
C365 C 0.51891 0.18158 0.96011 0.0
C366 C 0.53092 0.17836 0.9349 0.0
C367 C 0.51126 0.18138 0.91312 0.0
C368 C 0.4795 0.18582 0.91653 0.0
C369 C 0.35564 0.23412 0.97639 0.0
C370 C 0.4337 0.30158 0.92651 0.0
C371 C 0.29691 0.27353 0.92031 0.0
C372 C 0.25476 0.25393 0.91955 0.0
C373 C 0.23425 0.2349 0.89698 0.0
C374 C 0.1946 0.21744 0.89646 0.0
C375 C 0.1744 0.21845 0.91849 0.0
C376 C 0.19493 0.23697 0.94118 0.0
C377 C 0.23458 0.25459 0.94165 0.0
C378 C 0.37811 0.23763 0.88296 0.0
C379 C 0.30113 0.16133 0.93071 0.0
O380 O 0.42785 0.20908 0.96251 0.0
O381 O 0.4066 0.17717 0.92638 0.0
O382 O 0.35617 0.20261 0.97696 0.0
O383 O 0.37304 0.25212 0.9564 0.0
O384 O 0.43319 0.2688 0.92642 0.0
O385 O 0.40172 0.30276 0.92818 0.0
O386 O 0.31444 0.2712 0.89954 0.0
O387 O 0.31197 0.26973 0.94195 0.0
O388 O 0.37412 0.26725 0.88436 0.0
O389 O 0.36186 0.21587 0.90244 0.0
O390 O 0.29939 0.19256 0.92621 0.0
O391 O 0.33355 0.16245 0.93457 0.0
H392 H 0.47795 0.18695 0.9832 0.0
H393 H 0.53368 0.18013 0.97735 0.0
H394 H 0.51946 0.17882 0.89342 0.0
H395 H 0.46417 0.1865 0.89937 0.0
H396 H 0.24876 0.23365 0.8796 0.0
H397 H 0.17974 0.20312 0.87875 0.0
H398 H 0.18044 0.2388 0.95838 0.0
H399 H 0.24954 0.26912 0.95931 0.0
La400 La 0.19929 0.37761 0.43423 0.0
La401 La 0.11228 0.33076 0.42079 0.0
C402 C 0.26983 0.42206 0.43941 0.0
C403 C 0.30463 0.45826 0.4324 0.0
C404 C 0.31948 0.48885 0.44999 0.0
C405 C 0.35575 0.5203 0.44625 0.0
C406 C 0.37837 0.52196 0.4249 0.0
C407 C 0.36299 0.49189 0.40683 0.0
C408 C 0.32666 0.46043 0.41055 0.0
C409 C 0.14936 0.34656 0.47311 0.0
C410 C 0.1538 0.42017 0.41981 0.0
C411 C 0.04361 0.28427 0.43034 0.0
C412 C 1.01781 0.24324 0.42614 0.0
C413 C 1.01994 0.22471 0.4036 0.0
C414 C 0.99732 0.18519 0.40129 0.0
C415 C 0.97256 0.16339 0.42164 0.0
C416 C 0.97051 0.1822 0.4441 0.0
C417 C 0.99284 0.22163 0.44628 0.0
C418 C 0.15271 0.35017 0.37735 0.0
C419 C 0.16465 0.29176 0.42171 0.0
O420 O 0.24417 0.42302 0.45437 0.0
O421 O 0.25474 0.39513 0.42179 0.0
O422 O 0.18189 0.34802 0.47291 0.0
O423 O 0.14679 0.36203 0.45271 0.0
O424 O 0.18664 0.42055 0.4195 0.0
O425 O 0.1206 0.38837 0.42338 0.0
O426 O 0.05495 0.3068 0.40975 0.0
O427 O 0.07132 0.29223 0.44674 0.0
O428 O 0.11585 0.33192 0.37795 0.0
O429 O 0.16438 0.3562 0.40069 0.0
O430 O 0.12999 0.28731 0.42327 0.0
O431 O 0.19573 0.32523 0.42302 0.0
H432 H 0.30372 0.4878 0.46734 0.0
H433 H 0.36667 0.54259 0.46078 0.0
H434 H 0.37927 0.49235 0.38995 0.0
H435 H 0.31646 0.4372 0.39678 0.0
H436 H 0.03952 0.24066 0.38799 0.0
H437 H 0.99984 0.17161 0.38384 0.0
H438 H 0.95144 0.16645 0.45998 0.0
H439 H 0.99108 0.23526 0.46399 0.0
La440 La 0.8486 0.18475 0.93492 0.0
La441 La 0.80907 0.10403 0.91702 0.0
C442 C 0.87646 0.25513 0.94329 0.0
C443 C 0.87392 0.28995 0.93878 0.0
C444 C 0.86578 0.30676 0.95989 0.0
C445 C 0.86966 0.34283 0.95737 0.0
C446 C 0.88211 0.36331 0.9337 0.0
C447 C 0.88921 0.34599 0.91234 0.0
C448 C 0.88523 0.30984 0.91484 0.0
C449 C 0.83005 0.13142 0.9716 0.0
C450 C 0.76018 0.14287 0.92317 0.0
C451 C 0.78803 0.0344 0.91376 0.0
C452 C 0.80746 1.01192 0.9157 0.0
C453 C 0.79914 0.98312 0.89745 0.0
C454 C 0.81696 0.96135 0.89895 0.0
C455 C 0.84345 0.96775 0.91887 0.0
C456 C 0.85205 0.99694 0.93701 0.0
C457 C 0.8344 1.01888 0.93539 0.0
C458 C 0.82193 0.15237 0.8788 0.0
C459 C 0.9003 0.15166 0.92323 0.0
O460 O 0.85185 0.22857 0.95882 0.0
O461 O 0.88559 0.24101 0.9235 0.0
O462 O 0.86145 0.16366 0.9718 0.0
O463 O 0.81113 0.13116 0.95231 0.0
O464 O 0.79293 0.17525 0.92297 0.0
O465 O 0.75893 0.10962 0.92423 0.0
O466 O 0.79671 0.05689 0.89344 0.0
O467 O 0.78582 0.05068 0.93522 0.0
O468 O 0.79252 0.11859 0.88051 0.0
O469 O 0.84425 0.15747 0.89777 0.0
O470 O 0.86894 0.1179 0.92267 0.0
O471 O 0.89888 0.18303 0.92534 0.0
H472 H 0.85781 0.29263 0.97874 0.0
H473 H 0.86433 0.35527 0.97437 0.0
H474 H 0.89827 0.36054 0.89369 0.0
H475 H 0.8922 0.29807 0.89821 0.0
H476 H 0.77857 0.97726 0.88207 0.0
H477 H 0.80928 0.93887 0.88485 0.0
H478 H 0.87258 1.00294 0.95243 0.0
H479 H 0.84176 0.04119 0.9496 0.0
H480 H 0.21711 0.94634 0.18038 0.0
H481 H 0.11612 0.91343 0.13464 0.0
H482 H 0.22949 1.0111 0.18209 0.0
H483 H 0.12876 0.97917 0.1363 0.0
H484 H 0.20227 0.11132 0.11686 0.0
H485 H 0.17941 0.04312 0.11781 0.0
H486 H 0.20408 0.04995 0.20051 0.0
H487 H 0.22746 0.11797 0.19951 0.0
C488 C 0.19728 0.95289 0.17085 0.0
C489 C 0.16568 0.92469 0.15727 0.0
C490 C 0.2043 0.99008 0.17199 0.0
C491 C 0.18018 1.00044 0.15933 0.0
C492 C 0.14802 0.97214 0.14613 0.0
C493 C 0.14061 0.93448 0.14535 0.0
C494 C 0.20269 0.09823 0.13527 0.0
C495 C 0.21698 0.1203 0.15808 0.0
C496 C 0.18918 0.05905 0.13586 0.0
C497 C 0.19001 0.04105 0.15921 0.0
C498 C 0.20329 0.06293 0.18214 0.0
C499 C 0.21646 0.10195 0.1816 0.0
H500 H 0.30655 0.21532 0.67058 0.0
H501 H 0.22755 0.10069 0.64625 0.0
H502 H 0.25618 0.23022 0.67078 0.0
H503 H 0.17619 0.11613 0.64643 0.0
H504 H 0.09432 0.16156 0.67682 0.0
H505 H 0.13936 0.13827 0.67723 0.0
H506 H 0.21966 0.23761 0.63417 0.0
H507 H 0.17494 0.26048 0.63326 0.0
C508 C 0.27832 0.19314 0.66522 0.0
C509 C 0.27129 0.15694 0.65786 0.0
C510 C 0.24939 0.20183 0.66532 0.0
C511 C 0.21239 0.17466 0.65807 0.0
C512 C 0.20457 0.1377 0.65199 0.0
C513 C 0.23388 0.12888 0.65187 0.0
C514 C 0.12144 0.17823 0.6672 0.0
C515 C 0.13117 0.21331 0.65539 0.0
C516 C 0.14716 0.1648 0.66741 0.0
C517 C 0.18318 0.18629 0.65599 0.0
C518 C 0.19239 0.22072 0.64359 0.0
C519 C 0.16678 0.23398 0.64324 0.0
H520 H 0.95323 0.1075 0.11456 0.0
H521 H 0.94228 0.1271 0.1963 0.0
H522 H 1.02175 0.15049 0.11722 0.0
H523 H 1.01078 0.16957 0.19902 0.0
H524 H 0.11527 0.28623 0.1772 0.0
H525 H 0.05066 0.23361 0.17934 0.0
H526 H 0.08423 0.16275 0.13817 0.0
H527 H 0.14996 0.21619 0.13617 0.0
C528 C 0.9655 0.12072 0.13315 0.0
C529 C 0.94221 0.11426 0.15514 0.0
C530 C 1.00481 0.14496 0.13474 0.0
C531 C 1.02168 0.16356 0.15829 0.0
C532 C 0.99858 0.15585 0.18054 0.0
C533 C 0.95935 0.13139 0.17902 0.0
C534 C 0.10909 0.25934 0.16882 0.0
C535 C 0.13761 0.25541 0.15631 0.0
C536 C 0.07204 0.22904 0.17026 0.0
C537 C 0.06226 0.19398 0.15894 0.0
C538 C 0.09095 0.18954 0.14698 0.0
C539 C 0.1285 0.21995 0.14595 0.0
H540 H 0.8964 0.93974 0.65715 0.0
H541 H 0.78283 0.91954 0.64489 0.0
H542 H 0.92002 1.00798 0.6595 0.0
H543 H 0.80652 0.98721 0.64595 0.0
H544 H 0.84764 0.1035 0.67577 0.0
H545 H 0.83022 0.03732 0.67685 0.0
H546 H 0.93145 0.06372 0.63344 0.0
H547 H 0.9496 0.13107 0.63299 0.0
C548 C 0.87643 0.94975 0.65501 0.0
C549 C 0.83761 0.92391 0.65087 0.0
C550 C 0.89009 0.98896 0.65604 0.0
C551 C 0.86523 1.00328 0.65308 0.0
C552 C 0.82652 0.97737 0.64878 0.0
C553 C 0.81293 0.93839 0.64781 0.0
C554 C 0.86644 0.0954 0.66655 0.0
C555 C 0.89979 0.12258 0.65395 0.0
C556 C 0.85627 0.05725 0.66704 0.0
C557 C 0.87888 0.04482 0.6547 0.0
C558 C 0.9133 0.07223 0.64314 0.0
C559 C 0.92373 0.11081 0.64284 0.0
H560 H 0.88956 0.77728 0.14678 0.0
H561 H 0.98483 0.88992 0.15859 0.0
H562 H 0.84661 0.80217 0.14895 0.0
H563 H 0.94124 0.91479 0.16177 0.0
H564 H 0.84601 0.94399 0.13555 0.0
H565 H 0.89552 0.92615 0.13548 0.0
H566 H 0.82327 0.82725 0.18212 0.0
H567 H 0.77436 0.84449 0.1818 0.0
C568 C 0.90145 0.80743 0.1498 0.0
C569 C 0.9408 0.83148 0.15249 0.0
C570 C 0.87668 0.8217 0.15137 0.0
C571 C 0.89035 0.86051 0.15582 0.0
C572 C 0.92974 0.8848 0.15826 0.0
C573 C 0.95466 0.87043 0.15673 0.0
C574 C 0.84116 0.91886 0.14613 0.0
C575 C 0.80603 0.89534 0.1583 0.0
C576 C 0.86943 0.90857 0.14607 0.0
C577 C 0.86302 0.87471 0.15826 0.0
C578 C 0.82883 0.85285 0.17185 0.0
C579 C 0.80079 0.86291 0.17179 0.0
H580 H 0.92128 0.83168 0.66539 0.0
H581 H 0.96078 0.76386 0.6267 0.0
H582 H 0.98686 0.88537 0.66654 0.0
H583 H 1.0253 0.81682 0.6277 0.0
H584 H 0.13309 0.92633 0.61291 0.0
H585 H 0.06537 0.8813 0.60873 0.0
H586 H 0.04876 0.89944 0.68968 0.0
H587 H 0.11664 0.94504 0.69382 0.0
C588 C 0.94377 0.82838 0.65687 0.0
C589 C 0.93582 0.79344 0.6461 0.0
C590 C 0.9813 0.85898 0.65766 0.0
C591 C 1.01133 0.85539 0.64716 0.0
C592 C 1.00293 0.82078 0.6357 0.0
C593 C 0.96585 0.79026 0.63531 0.0
C594 C 0.11497 0.9213 0.62971 0.0
C595 C 0.13046 0.93919 0.65375 0.0
C596 C 0.07615 0.89527 0.62736 0.0
C597 C 0.05164 0.88659 0.64891 0.0
C598 C 0.06678 0.90564 0.67266 0.0
C599 C 0.10576 0.93146 0.6751 0.0
H600 H 0.1197 0.84367 0.39607 0.0
H601 H 0.15129 0.94586 0.43965 0.0
H602 H 0.05443 0.82977 0.39433 0.0
H603 H 0.08518 0.93185 0.43784 0.0
H604 H 0.95522 0.85701 0.4603 0.0
H605 H 1.02358 0.88201 0.45774 0.0
H606 H 1.01239 0.85121 0.37606 0.0
H607 H 0.94395 0.82558 0.37873 0.0
C608 C 0.11276 0.86348 0.40505 0.0
C609 C 0.14071 0.8958 0.41814 0.0
C610 C 0.07527 0.85561 0.40387 0.0
C611 C 0.06444 0.87961 0.41597 0.0
C612 C 0.09257 0.91263 0.42847 0.0
C613 C 0.13046 0.92084 0.42934 0.0
C614 C 0.96736 0.85565 0.44177 0.0
C615 C 0.94397 0.83885 0.41979 0.0
C616 C 1.00664 0.87043 0.44023 0.0
C617 C 1.02351 0.86851 0.41673 0.0
C618 C 1.00028 0.85286 0.39453 0.0
C619 C 0.96106 0.83837 0.39601 0.0
H620 H 0.12563 0.92813 0.96413 0.0
H621 H 0.1222 0.9412 0.88037 0.0
H622 H 0.17044 0.99587 0.96822 0.0
H623 H 0.16767 1.00907 0.88447 0.0
H624 H 0.23283 0.13727 0.90528 0.0
H625 H 0.17878 0.072 0.9032 0.0
H626 H 0.23776 0.03483 0.95495 0.0
H627 H 0.29108 0.09909 0.9569 0.0
C628 C 0.13398 0.94551 0.94661 0.0
C629 C 0.12044 0.92906 0.9219 0.0
C630 C 0.15991 0.98435 0.94894 0.0
C631 C 0.17283 1.00791 0.92665 0.0
C632 C 0.15813 0.99181 0.90204 0.0
C633 C 0.1324 0.95283 0.89967 0.0
C634 C 0.23388 0.11515 0.91644 0.0
C635 C 0.26633 0.12333 0.93112 0.0
C636 C 0.20311 0.07779 0.91512 0.0
C637 C 0.20395 0.04818 0.92893 0.0
C638 C 0.2359 0.05689 0.9443 0.0
C639 C 0.26665 0.0938 0.94526 0.0
H640 H 0.11572 0.21596 0.4333 0.0
H641 H 0.22679 0.29288 0.4019 0.0
H642 H 0.12959 0.16385 0.43047 0.0
H643 H 0.24068 0.24189 0.39957 0.0
H644 H 0.24995 0.14066 0.37958 0.0
H645 H 0.22587 0.1846 0.37726 0.0
H646 H 0.17124 0.14427 0.45229 0.0
H647 H 0.19508 0.10001 0.45446 0.0
C648 C 0.14282 0.22168 0.42558 0.0
C649 C 0.17021 0.25867 0.41806 0.0
C650 C 0.15092 0.19195 0.42412 0.0
C651 C 0.18632 0.1986 0.41478 0.0
C652 C 0.21297 0.2354 0.40651 0.0
C653 C 0.20506 0.26487 0.40812 0.0
C654 C 0.23279 0.14113 0.39558 0.0
C655 C 0.22485 0.11704 0.41732 0.0
C656 C 0.21888 0.16629 0.39425 0.0
C657 C 0.19683 0.16831 0.41471 0.0
C658 C 0.18772 0.14325 0.43603 0.0
C659 C 0.20154 0.11794 0.43731 0.0
H660 H 0.1212 0.17722 0.9563 0.0
H661 H 0.13228 0.22279 0.87823 0.0
H662 H 0.05326 0.15575 0.95567 0.0
H663 H 0.06458 0.20076 0.87747 0.0
H664 H 0.96341 0.21281 0.90453 0.0
H665 H 1.0274 0.22353 0.90206 0.0
H666 H 0.9891 0.1114 0.93311 0.0
H667 H 0.92388 0.10037 0.93555 0.0
C668 C 0.10913 0.18237 0.93893 0.0
C669 C 0.13237 0.20204 0.9174 0.0
C670 C 0.07011 0.16967 0.93847 0.0
C671 C 0.05352 0.1767 0.91658 0.0
C672 C 0.07652 0.19514 0.89473 0.0
C673 C 0.11534 0.20755 0.8951 0.0
C674 C 0.96835 0.1902 0.91075 0.0
C675 C 0.93847 0.15576 0.92039 0.0
C676 C 1.00514 0.19631 0.90912 0.0
C677 C 1.01344 0.16833 0.91729 0.0
C678 C 0.98359 0.13357 0.92674 0.0
C679 C 0.94628 0.12716 0.928 0.0
H680 H 0.95822 0.10972 0.45943 0.0
H681 H 0.93252 0.12159 0.37906 0.0
H682 H 0.91463 0.04134 0.45711 0.0
H683 H 0.88957 0.05318 0.37659 0.0
H684 H 0.77602 0.94608 0.39845 0.0
H685 H 0.82739 1.01129 0.39647 0.0
H686 H 0.90107 0.97971 0.43637 0.0
H687 H 0.84888 0.91351 0.43843 0.0
C688 C 0.94348 0.09771 0.4412 0.0
C689 C 0.94857 0.12127 0.41951 0.0
C690 C 0.91885 0.05843 0.43979 0.0
C691 C 0.89844 0.04174 0.41672 0.0
C692 C 0.90457 0.06514 0.39475 0.0
C693 C 0.9294 0.10436 0.3961 0.0
C694 C 0.80323 0.9528 0.40663 0.0
C695 C 0.80823 0.92457 0.4188 0.0
C696 C 0.83286 0.99027 0.40529 0.0
C697 C 0.86841 1.00085 0.41626 0.0
C698 C 0.87391 0.9725 0.42787 0.0
C699 C 0.84416 0.93459 0.42891 0.0
H700 H 0.86016 0.77199 0.95476 0.0
H701 H 0.95692 0.83134 0.90369 0.0
H702 H 0.84954 0.82549 0.95343 0.0
H703 H 0.94597 0.88556 0.90219 0.0
H704 H 0.87102 0.94194 0.87972 0.0
H705 H 0.89384 0.8968 0.8835 0.0
H706 H 0.87814 0.89268 0.96725 0.0
H707 H 0.85485 0.93722 0.96349 0.0
C708 C 0.87945 0.79671 0.94339 0.0
C709 C 0.90928 0.79728 0.9292 0.0
C710 C 0.87347 0.82756 0.94277 0.0
C711 C 0.89684 0.85986 0.9277 0.0
C712 C 0.92732 0.86097 0.91389 0.0
C713 C 0.93376 0.8301 0.91487 0.0
C714 C 0.87262 0.93154 0.89896 0.0
C715 C 0.86075 0.94302 0.92128 0.0
C716 C 0.88612 0.906 0.90114 0.0
C717 C 0.88768 0.89099 0.92566 0.0
C718 C 0.87704 0.90347 0.94804 0.0
C719 C 0.86391 0.92923 0.9459 0.0
H720 H 0.09912 0.67411 0.14424 0.0
H721 H 0.21521 0.7425 0.16997 0.0
H722 H 0.10724 0.61841 0.14299 0.0
H723 H 0.223 0.68735 0.16908 0.0
H724 H 0.24035 0.59446 0.13479 0.0
H725 H 0.22901 0.64762 0.13731 0.0
H726 H 0.11735 0.57352 0.16884 0.0
H727 H 0.12821 0.51992 0.16543 0.0
C728 C 0.12615 0.67725 0.14996 0.0
C729 C 0.15652 0.71304 0.157 0.0
C730 C 0.13084 0.64527 0.14926 0.0
C731 C 0.16601 0.64832 0.15557 0.0
C732 C 0.1958 0.68389 0.16346 0.0
C733 C 0.19117 0.71564 0.16414 0.0
C734 C 0.21324 0.58933 0.14208 0.0
C735 C 0.18531 0.5527 0.14995 0.0
C736 C 0.20684 0.62001 0.14382 0.0
C737 C 0.17227 0.61512 0.15345 0.0
C738 C 0.14421 0.57845 0.16117 0.0
C739 C 0.15067 0.54774 0.15952 0.0
H740 H 0.63299 0.12316 0.62041 0.0
H741 H 0.66833 0.19912 0.68651 0.0
H742 H 0.56865 0.11204 0.62474 0.0
H743 H 0.60385 0.18771 0.69105 0.0
H744 H 0.50109 0.1986 0.66866 0.0
H745 H 0.56284 0.20383 0.66828 0.0
H746 H 0.51096 0.08445 0.65072 0.0
H747 H 0.44833 0.07931 0.65048 0.0
C748 C 0.62692 0.13705 0.63616 0.0
C749 C 0.65601 0.16219 0.65307 0.0
C750 C 0.58989 0.13056 0.63868 0.0
C751 C 0.58086 0.149 0.65819 0.0
C752 C 0.60979 0.17348 0.67548 0.0
C753 C 0.64685 0.18008 0.67289 0.0
C754 C 0.50253 0.17323 0.66483 0.0
C755 C 0.46949 0.13848 0.65948 0.0
C756 C 0.53819 0.17624 0.66485 0.0
C757 C 0.54215 0.1446 0.65955 0.0
C758 C 0.50907 0.10954 0.65465 0.0
C759 C 0.47311 0.10648 0.6547 0.0
H760 H 0.54237 0.62414 0.16618 0.0
H761 H 0.46668 0.66249 0.13915 0.0
H762 H 0.48908 0.55926 0.16883 0.0
H763 H 0.41396 0.5977 0.14069 0.0
H764 H 0.32012 0.48711 0.17127 0.0
H765 H 0.37512 0.55022 0.1717 0.0
H766 H 0.44427 0.50584 0.14202 0.0
H767 H 0.38869 0.44174 0.14212 0.0
C768 C 0.51437 0.61885 0.16093 0.0
C769 C 0.50893 0.64878 0.15255 0.0
C770 C 0.48387 0.58148 0.16211 0.0
C771 C 0.44707 0.57306 0.15504 0.0
C772 C 0.44172 0.60303 0.14668 0.0
C773 C 0.47213 0.64028 0.1455 0.0
C774 C 0.347 0.49055 0.16489 0.0
C775 C 0.3498 0.45922 0.15641 0.0
C776 C 0.37863 0.52698 0.165 0.0
C777 C 0.41416 0.53344 0.15649 0.0
C778 C 0.4174 0.50196 0.1488 0.0
C779 C 0.38554 0.4652 0.1488 0.0
H780 H 0.86278 0.47718 0.69141 0.0
H781 H 0.92268 0.50856 0.61769 0.0
H782 H 0.87607 0.42524 0.69597 0.0
H783 H 0.93504 0.45611 0.62188 0.0
H784 H 0.97655 0.37502 0.6456 0.0
H785 H 0.96999 0.43162 0.64626 0.0
H786 H 0.8559 0.36433 0.67586 0.0
H787 H 0.86257 0.30837 0.67555 0.0
C788 C 0.87893 0.47317 0.67623 0.0
C789 C 0.89131 0.49701 0.65407 0.0
C790 C 0.88634 0.44314 0.67873 0.0
C791 C 0.90659 0.43624 0.65926 0.0
C792 C 0.9197 0.46064 0.63741 0.0
C793 C 0.91211 0.49048 0.63483 0.0
C794 C 0.95034 0.37248 0.65267 0.0
C795 C 0.92012 0.337 0.66045 0.0
C796 C 0.94641 0.40488 0.65281 0.0
C797 C 0.91229 0.40266 0.66098 0.0
C798 C 0.88271 0.36741 0.66969 0.0
C799 C 0.88652 0.33513 0.66936 0.0
H800 H 0.57934 0.85297 0.17578 0.0
H801 H 0.62421 0.96483 0.14227 0.0
H802 H 0.51633 0.84508 0.17632 0.0
H803 H 0.56027 0.95654 0.14233 0.0
H804 H 0.44251 0.9383 0.16563 0.0
H805 H 0.50733 0.94994 0.16853 0.0
H806 H 0.46788 0.83416 0.14562 0.0
H807 H 0.40315 0.82213 0.14381 0.0
C808 C 0.57584 0.87604 0.16853 0.0
C809 C 0.60703 0.90948 0.15876 0.0
C810 C 0.53943 0.87135 0.16868 0.0
C811 C 0.5328 0.89982 0.15894 0.0
C812 C 0.56421 0.93398 0.15008 0.0
C813 C 0.60092 0.93877 0.15002 0.0
C814 C 0.44755 0.91513 0.16158 0.0
C815 C 0.41729 0.87915 0.15458 0.0
C816 C 0.48492 0.922 0.16291 0.0
C817 C 0.4931 0.89304 0.15739 0.0
C818 C 0.46281 0.8571 0.15041 0.0
C819 C 0.42556 0.85026 0.14905 0.0
H820 H 0.68444 0.60951 0.64481 0.0
H821 H 0.75202 0.56224 0.67305 0.0
H822 H 0.62833 0.54583 0.64461 0.0
H823 H 0.69672 0.49922 0.67237 0.0
H824 H 0.58553 0.3915 0.68723 0.0
H825 H 0.63687 0.45684 0.69214 0.0
H826 H 0.60311 0.48715 0.61997 0.0
H827 H 0.55096 0.42218 0.61556 0.0
C828 C 0.68731 0.58572 0.65127 0.0
C829 C 0.72293 0.59123 0.65887 0.0
C830 C 0.65519 0.54909 0.65092 0.0
C831 C 0.65781 0.51707 0.65836 0.0
C832 C 0.69324 0.52296 0.66678 0.0
C833 C 0.7252 0.55933 0.667 0.0
C834 C 0.58872 0.41213 0.67254 0.0
C835 C 0.56405 0.40118 0.65088 0.0
C836 C 0.61848 0.44968 0.67523 0.0
C837 C 0.62447 0.47755 0.6564 0.0
C838 C 0.59934 0.46676 0.63502 0.0
C839 C 0.56966 0.4292 0.63229 0.0
H840 H 0.39215 0.96457 0.43377 0.0
H841 H 0.32414 0.85153 0.40278 0.0
H842 H 0.44757 0.95589 0.43431 0.0
H843 H 0.37899 0.84324 0.40283 0.0
H844 H 0.46887 0.82061 0.4362 0.0
H845 H 0.41656 0.83315 0.43396 0.0
H846 H 0.49356 0.94789 0.40867 0.0
H847 H 0.5464 0.93577 0.41198 0.0
C848 C 0.3891 0.93816 0.4267 0.0
C849 C 0.35347 0.90868 0.41849 0.0
C850 C 0.42089 0.93314 0.42699 0.0
C851 C 0.41779 0.89855 0.41902 0.0
C852 C 0.38246 0.86986 0.4098 0.0
C853 C 0.35089 0.87479 0.4096 0.0
C854 C 0.47485 0.84864 0.43034 0.0
C855 C 0.5121 0.87708 0.42426 0.0
C856 C 0.44464 0.85577 0.42875 0.0
C857 C 0.45056 0.89155 0.42094 0.0
C858 C 0.48781 0.92008 0.41491 0.0
C859 C 0.51811 0.91293 0.41648 0.0
H860 H 0.6714 0.47443 0.89985 0.0
H861 H 0.63591 0.51629 0.96511 0.0
H862 H 0.60692 0.42127 0.89539 0.0
H863 H 0.57175 0.46237 0.96127 0.0
H864 H 0.45118 0.37586 0.93399 0.0
H865 H 0.51433 0.43274 0.93466 0.0
H866 H 0.56481 0.3638 0.91818 0.0
H867 H 0.5024 0.30771 0.91704 0.0
C868 C 0.64989 0.47244 0.91321 0.0
C869 C 0.6592 0.49972 0.93296 0.0
C870 C 0.61285 0.44166 0.91082 0.0
C871 C 0.5839 0.43721 0.92805 0.0
C872 C 0.59305 0.46488 0.94748 0.0
C873 C 0.63011 0.49561 0.94992 0.0
C874 C 0.47576 0.37297 0.93026 0.0
C875 C 0.47148 0.33705 0.9255 0.0
C876 C 0.51204 0.40556 0.93083 0.0
C877 C 0.54491 0.40305 0.92647 0.0
C878 C 0.54036 0.36715 0.92125 0.0
C879 C 0.50433 0.33476 0.92079 0.0
H880 H 0.15259 0.62591 0.46055 0.0
H881 H 0.21402 0.65573 0.38742 0.0
H882 H 0.14015 0.56108 0.45632 0.0
H883 H 0.20057 0.5905 0.38279 0.0
H884 H 0.21355 0.48703 0.40291 0.0
H885 H 0.2204 0.54968 0.40321 0.0
H886 H 0.10566 0.50195 0.43161 0.0
H887 H 0.0989 0.43866 0.43171 0.0
C888 C 0.16347 0.61868 0.44353 0.0
C889 C 0.18473 0.64635 0.42447 0.0
C890 C 0.15583 0.58125 0.44093 0.0
C891 C 0.16934 0.57035 0.41923 0.0
C892 C 0.19001 0.59786 0.39992 0.0
C893 C 0.19749 0.63527 0.40246 0.0
C894 C 0.18952 0.48962 0.40904 0.0
C895 C 0.15566 0.45758 0.41741 0.0
C896 C 0.19343 0.52574 0.40903 0.0
C897 C 0.16367 0.53113 0.41748 0.0
C898 C 0.12936 0.49898 0.42524 0.0
C899 C 0.12534 0.46261 0.42508 0.0
H900 H 0.75414 0.20552 0.91378 0.0
H901 H 0.686 0.08595 0.93121 0.0
H902 H 0.69816 0.21182 0.91533 0.0
H903 H 0.62921 0.09226 0.93234 0.0
H904 H 0.54712 0.13134 0.96404 0.0
H905 H 0.60058 0.12062 0.95952 0.0
H906 H 0.64029 0.19607 0.89276 0.0
H907 H 0.58759 0.20786 0.89786 0.0
C908 C 0.72711 0.18035 0.91773 0.0
C909 C 0.72477 0.14516 0.92245 0.0
C910 C 0.69479 0.18399 0.91843 0.0
C911 C 0.65896 0.1526 0.92391 0.0
C912 C 0.65638 0.11717 0.92829 0.0
C913 C 0.68889 0.11346 0.92746 0.0
C914 C 0.5674 0.14592 0.9485 0.0
C915 C 0.5631 0.17084 0.93149 0.0
C916 C 0.59783 0.13931 0.94568 0.0
C917 C 0.62497 0.1575 0.92581 0.0
C918 C 0.62028 0.18187 0.90851 0.0
C919 C 0.58979 0.1884 0.91128 0.0
H920 H 0.44194 0.51972 0.4094 0.0
H921 H 0.40546 0.59752 0.43439 0.0
H922 H 0.50706 0.57238 0.40572 0.0
H923 H 0.47049 0.64969 0.43168 0.0
H924 H 0.58111 0.74158 0.39988 0.0
H925 H 0.51775 0.68682 0.39974 0.0
H926 H 0.56122 0.618 0.43202 0.0
H927 H 0.62547 0.67329 0.43177 0.0
C928 C 0.44769 0.54805 0.41397 0.0
C929 C 0.4182 0.55425 0.4221 0.0
C930 C 0.48519 0.57821 0.41218 0.0
C931 C 0.49422 0.61544 0.41832 0.0
C932 C 0.46469 0.62157 0.42641 0.0
C933 C 0.42731 0.59148 0.42826 0.0
C934 C 0.57743 0.71478 0.40681 0.0
C935 C 0.60856 0.71206 0.41607 0.0
C936 C 0.54085 0.6833 0.40688 0.0
C937 C 0.53403 0.64799 0.41631 0.0
C938 C 0.56535 0.64471 0.42455 0.0
C939 C 0.60223 0.67641 0.42441 0.0
H940 H 0.85413 0.56052 0.91871 0.0
H941 H 0.97524 0.61102 0.9286 0.0
H942 H 0.8469 0.49787 0.92027 0.0
H943 H 0.96776 0.54738 0.93054 0.0
H944 H 0.93995 0.4251 0.90844 0.0
H945 H 0.95028 0.48949 0.90517 0.0
H946 H 0.8502 0.45598 0.95195 0.0
H947 H 0.83917 0.39157 0.95444 0.0
C948 C 0.87939 0.55838 0.92124 0.0
C949 C 0.91535 0.59114 0.92369 0.0
C950 C 0.87512 0.52217 0.92231 0.0
C951 C 0.9066 0.51729 0.92591 0.0
C952 C 0.94283 0.54999 0.92766 0.0
C953 C 0.94715 0.58652 0.92661 0.0
C954 C 0.91988 0.43134 0.91779 0.0
C955 C 0.88854 0.40284 0.93159 0.0
C956 C 0.92612 0.46848 0.91619 0.0
C957 C 0.90106 0.47812 0.92821 0.0
C958 C 0.86988 0.44964 0.94212 0.0
C959 C 0.86373 0.41265 0.94379 0.0
H960 H 0.2208 0.35582 0.36439 0.0
H961 H 0.13257 0.37511 0.33506 0.0
H962 H 0.24767 0.36576 0.32016 0.0
H963 H 0.16 0.38693 0.29146 0.0
H964 H 0.1813 0.34528 0.21344 0.0
H965 H 0.16134 0.34881 0.2578 0.0
H966 H 0.27824 0.40533 0.28341 0.0
H967 H 0.29779 0.40036 0.23917 0.0
C968 C 0.20801 0.36347 0.34864 0.0
C969 C 0.17459 0.36446 0.35294 0.0
C970 C 0.22327 0.36915 0.32327 0.0
C971 C 0.20555 0.37642 0.30198 0.0
C972 C 0.17376 0.38023 0.30705 0.0
C973 C 0.15827 0.37389 0.33213 0.0
C974 C 0.2027 0.359 0.22848 0.0
C975 C 0.241 0.37233 0.22294 0.0
C976 C 0.19137 0.36119 0.25397 0.0
C977 C 0.21817 0.3772 0.27442 0.0
C978 C 0.25673 0.39216 0.26841 0.0
C979 C 0.26796 0.38962 0.24299 0.0
H980 H 0.94843 0.21124 0.73945 0.0
H981 H 0.85169 0.21723 0.71118 0.0
H982 H 0.92287 0.19871 0.78334 0.0
H983 H 0.82583 0.20533 0.75607 0.0
H984 H 0.77832 0.13749 0.83536 0.0
H985 H 0.79964 0.15757 0.7906 0.0
H986 H 0.91354 0.23086 0.81897 0.0
H987 H 0.89229 0.20954 0.86378 0.0
C988 C 0.92147 0.20981 0.7427 0.0
C989 C 0.90207 0.2153 0.72193 0.0
C990 C 0.90704 0.20314 0.76802 0.0
C991 C 0.8728 0.20208 0.77353 0.0
C992 C 0.85244 0.2062 0.75254 0.0
C993 C 0.86699 0.21275 0.72686 0.0
C994 C 0.80784 0.15839 0.83207 0.0
C995 C 0.83385 0.17139 0.853 0.0
C996 C 0.82 0.17006 0.80637 0.0
C997 C 0.85845 0.19516 0.80103 0.0
C998 C 0.88385 0.21064 0.8223 0.0
C999 C 0.8717 0.19878 0.84803 0.0
H1000 H 0.72745 0.94916 0.24606 0.0
H1001 H 0.68304 0.83924 0.21016 0.0
H1002 H 0.71792 0.92089 0.28912 0.0
H1003 H 0.67245 0.8102 0.25391 0.0
H1004 H 0.72379 0.79092 0.32991 0.0
H1005 H 0.71375 0.80996 0.28714 0.0
H1006 H 0.67676 0.88159 0.3234 0.0
H1007 H 0.68782 0.86272 0.3669 0.0
C1008 C 0.71501 0.91867 0.24741 0.0
C1009 C 0.70646 0.89643 0.2247 0.0
C1010 C 0.7091 0.90237 0.27225 0.0
C1011 C 0.69447 0.86323 0.27518 0.0
C1012 C 0.68421 0.84057 0.25239 0.0
C1013 C 0.69013 0.85704 0.22733 0.0
C1014 C 0.71307 0.81044 0.32887 0.0
C1015 C 0.70708 0.82577 0.35178 0.0
C1016 C 0.70686 0.82102 0.3042 0.0
C1017 C 0.69452 0.84741 0.30162 0.0
C1018 C 0.68671 0.86148 0.32464 0.0
C1019 C 0.69286 0.85066 0.34956 0.0
H1020 H 0.8471 0.75022 0.7397 0.0
H1021 H 0.84422 0.64859 0.71281 0.0
H1022 H 0.8602 0.73839 0.78385 0.0
H1023 H 0.85629 0.6356 0.75791 0.0
H1024 H 0.92175 0.65395 0.83683 0.0
H1025 H 0.9021 0.65602 0.79218 0.0
H1026 H 0.83133 0.6994 0.82053 0.0
H1027 H 0.85261 0.69891 0.86531 0.0
C1028 C 0.84933 0.72518 0.74331 0.0
C1029 C 0.84468 0.70033 0.72281 0.0
C1030 C 0.8563 0.71807 0.76882 0.0
C1031 C 0.85838 0.68551 0.77482 0.0
C1032 C 0.85483 0.66098 0.75409 0.0
C1033 C 0.84813 0.66841 0.72824 0.0
C1034 C 0.90156 0.66347 0.83358 0.0
C1035 C 0.88927 0.67697 0.85455 0.0
C1036 C 0.8901 0.66443 0.80789 0.0
C1037 C 0.86574 0.67865 0.80248 0.0
C1038 C 0.85105 0.68932 0.8238 0.0
C1039 C 0.86282 0.68865 0.84955 0.0
H1040 H 0.11429 0.79509 0.24625 0.0
H1041 H 0.22474 0.8568 0.21022 0.0
H1042 H 0.14266 0.81303 0.28927 0.0
H1043 H 0.25384 0.87438 0.25392 0.0
H1044 H 0.27729 0.94455 0.33025 0.0
H1045 H 0.25703 0.91643 0.28741 0.0
H1046 H 0.18034 0.80854 0.3235 0.0
H1047 H 0.20043 0.83759 0.36705 0.0
C1048 C 0.14489 0.81217 0.24756 0.0
C1049 C 0.16729 0.82495 0.2248 0.0
C1050 C 0.16123 0.82209 0.27239 0.0
C1051 C 0.2006 0.84518 0.27529 0.0
C1052 C 0.22332 0.85687 0.25246 0.0
C1053 C 0.20679 0.84681 0.22741 0.0
C1054 C 0.25642 0.91463 0.32915 0.0
C1055 C 0.24007 0.89335 0.35204 0.0
C1056 C 0.24507 0.89836 0.30443 0.0
C1057 C 0.21688 0.8602 0.30178 0.0
C1058 C 0.20181 0.83821 0.32478 0.0
C1059 C 0.21338 0.85465 0.34973 0.0
H1060 H 0.36277 0.16667 0.86713 0.0
H1061 H 0.41115 0.28264 0.84094 0.0
H1062 H 0.36797 0.14774 0.82246 0.0
H1063 H 0.41653 0.26397 0.79665 0.0
H1064 H 0.36764 0.20479 0.71643 0.0
H1065 H 0.37198 0.228 0.76126 0.0
H1066 H 0.41305 0.15432 0.78789 0.0
H1067 H 0.40858 0.1312 0.74336 0.0
C1068 C 0.37513 0.18815 0.85197 0.0
C1069 C 0.38623 0.22602 0.85746 0.0
C1070 C 0.37811 0.1774 0.82638 0.0
C1071 C 0.39219 0.20432 0.80587 0.0
C1072 C 0.40484 0.24241 0.8118 0.0
C1073 C 0.402 0.25311 0.83726 0.0
C1074 C 0.37822 0.19414 0.73181 0.0
C1075 C 0.38749 0.16602 0.72643 0.0
C1076 C 0.38069 0.20734 0.7575 0.0
C1077 C 0.39242 0.19261 0.77826 0.0
C1078 C 0.40322 0.1657 0.77252 0.0
C1079 C 0.40091 0.1527 0.74693 0.0
H1080 H 0.29799 0.19321 1.0119 0.0
H1081 H 0.37294 0.30668 0.98365 0.0
H1082 H 0.2684 0.21816 0.04199 0.0
H1083 H 0.34399 0.33136 1.01349 0.0
H1084 H 0.31859 0.36453 0.09358 0.0
H1085 H 0.34297 0.3359 0.06325 0.0
H1086 H 0.22877 0.25472 0.03978 0.0
H1087 H 0.20408 0.28406 0.07034 0.0
C1088 C 0.30823 0.22339 1.01222 0.0
C1089 C 0.33791 0.24801 0.99552 0.0
C1090 C 0.29109 0.23762 1.02922 0.0
C1091 C 0.30386 0.27678 1.03013 0.0
C1092 C 0.33361 0.30114 1.01343 0.0
C1093 C 0.35022 0.28696 0.99632 0.0
C1094 C 0.29857 0.34072 0.08185 0.0
C1095 C 0.25941 0.32673 0.08423 0.0
C1096 C 0.31259 0.32429 0.06446 0.0
C1097 C 0.28787 0.29302 0.04907 0.0
C1098 C 0.24852 0.27866 0.0515 0.0
C1099 C 0.23442 0.29564 0.06875 0.0
H1100 H 0.13065 0.28653 0.50719 0.0
H1101 H 0.09825 0.36807 0.48348 0.0
H1102 H 0.07571 0.25702 0.53722 0.0
H1103 H 0.04443 0.33934 0.51327 0.0
H1104 H 0.98394 0.30931 0.59263 0.0
H1105 H 0.03815 0.33392 0.5632 0.0
H1106 H 0.99879 0.22119 0.53363 0.0
H1107 H 0.94359 0.19629 0.56334 0.0
C1108 C 0.11216 0.29839 0.50866 0.0
C1109 C 0.11892 0.3298 0.49319 0.0
C1110 C 0.08052 0.28129 0.52555 0.0
C1111 C 0.0557 0.29586 0.5276 0.0
C1112 C 0.06304 0.32754 0.51231 0.0
C1113 C 0.09399 0.34408 0.49528 0.0
C1114 C 0.98658 0.28971 0.57973 0.0
C1115 C 0.95931 0.2509 0.58015 0.0
C1116 C 1.01775 0.30383 0.56291 0.0
C1117 C 1.02289 0.27955 0.54611 0.0
C1118 C 0.99575 0.24055 0.54652 0.0
C1119 C 0.96399 0.22637 0.56325 0.0
H1120 H 0.77817 0.9309 0.06922 0.0
H1121 H 0.69839 0.96659 0.09023 0.0
H1122 H 0.80829 0.98406 1.03769 0.0
H1123 H 0.72779 1.01875 0.05901 0.0
H1124 H 0.75762 0.0761 0.97909 0.0
H1125 H 0.73266 1.02287 1.00945 0.0
H1126 H 0.84562 0.06057 1.03825 0.0
H1127 H 0.87097 0.11474 1.00746 0.0
C1128 C 0.76685 0.94977 0.06688 0.0
C1129 C 0.73572 0.9444 0.08202 0.0
C1130 C 0.78431 0.9804 0.0491 0.0
C1131 C 0.77041 1.00565 0.04582 0.0
C1132 C 0.73906 0.99976 0.06086 0.0
C1133 C 0.72213 0.96977 0.07873 0.0
C1134 C 0.77729 0.07319 0.99186 0.0
C1135 C 0.81628 0.09981 0.99094 0.0
C1136 C 0.76292 0.04262 1.0093 0.0
C1137 C 0.78707 0.03741 1.02633 0.0
C1138 C 0.8263 0.06367 1.02525 0.0
C1139 C 0.84076 0.09483 1.00785 0.0
H1140 H 0.75235 0.68029 0.59147 0.0
H1141 H 0.86675 0.75823 0.56656 0.0
H1142 H 0.72836 0.71043 0.56184 0.0
H1143 H 0.84252 0.78903 0.53666 0.0
H1144 H 0.77726 0.85447 0.50896 0.0
H1145 H 0.80557 0.82796 0.53921 0.0
H1146 H 0.72526 0.71526 0.51261 0.0
H1147 H 0.69763 0.74141 0.4827 0.0
C1148 C 0.77239 0.70375 0.57943 0.0
C1149 C 0.81142 0.71663 0.58119 0.0
C1150 C 0.75863 0.72113 0.56249 0.0
C1151 C 0.78346 0.75224 0.54688 0.0
C1152 C 0.82267 0.76532 0.54858 0.0
C1153 C 0.8365 0.74743 0.56541 0.0
C1154 C 0.76556 0.82407 0.50987 0.0
C1155 C 0.73502 0.80002 0.4936 0.0
C1156 C 0.782 0.80891 0.52692 0.0
C1157 C 0.76769 0.76944 0.52832 0.0
C1158 C 0.73685 0.74569 0.51223 0.0
C1159 C 0.72095 0.76073 0.49509 0.0
H1160 H 0.94891 0.76731 1.00904 0.0
H1161 H 0.98852 0.69416 0.97969 0.0
H1162 H 1.00378 0.79699 0.03902 0.0
H1163 H 0.04256 0.72329 1.00937 0.0
H1164 H 0.10063 0.74676 0.09003 0.0
H1165 H 0.04848 0.72287 0.05881 0.0
H1166 H 0.07966 0.83755 1.03783 0.0
H1167 H 0.13288 0.86174 0.06928 0.0
C1168 C 0.96922 0.75755 1.00904 0.0
C1169 C 0.96427 0.72826 0.99208 0.0
C1170 C 1.00079 0.77475 1.02599 0.0
C1171 C 1.02759 0.7625 1.02662 0.0
C1172 C 1.02243 0.73329 1.00956 0.0
C1173 C 0.99141 0.71659 0.99251 0.0
C1174 C 0.09673 0.76699 0.07856 0.0
C1175 C 0.12112 0.80615 0.08196 0.0
C1176 C 0.06675 0.75326 0.06067 0.0
C1177 C 0.0598 0.77823 0.04577 0.0
C1178 C 0.08414 0.81757 0.04911 0.0
C1179 C 0.11481 0.83143 0.06686 0.0
H1180 H 0.31957 0.9671 0.48599 0.0
H1181 H 0.20423 0.93159 0.50762 0.0
H1182 H 0.34278 1.01826 0.51789 0.0
H1183 H 0.22772 0.98383 0.53968 0.0
H1184 H 0.29694 0.11374 0.57108 0.0
H1185 H 0.26797 0.06068 0.53965 0.0
H1186 H 0.34148 1.02057 0.568 0.0
H1187 H 0.36969 0.07259 0.59919 0.0
C1188 C 0.29912 0.97015 0.4977 0.0
C1189 C 0.26005 0.94506 0.49441 0.0
C1190 C 0.31246 0.99956 0.51598 0.0
C1191 C 0.28717 1.00524 0.53137 0.0
C1192 C 0.24793 0.98035 0.52801 0.0
C1193 C 0.23449 0.95025 0.50989 0.0
C1194 C 0.30681 0.09354 0.57048 0.0
C1195 C 0.33576 0.09751 0.58753 0.0
C1196 C 0.29004 0.06301 0.55268 0.0
C1197 C 0.30247 0.03639 0.55127 0.0
C1198 C 0.33136 0.0406 0.5684 0.0
C1199 C 0.34754 0.07049 0.58632 0.0
loop_
_geom_bond_atom_site_label_1
_geom_bond_atom_site_label_2
_geom_bond_distance
_geom_bond_site_symmetry_2
_ccdc_geom_bond_type
La0 C2 2.928 . S
La0 O20 2.521 . S
La0 O21 2.628 . S
La0 O22 2.554 . S
La0 O23 2.757 . S
La0 O24 2.470 . S
La0 O29 2.482 . S
La0 O31 2.503 . S
La1 C11 2.928 . S
La1 O23 2.482 . S
La1 O25 2.503 . S
La1 O26 2.521 . S
La1 O27 2.628 . S
La1 O28 2.554 . S
La1 O29 2.757 . S
La1 O30 2.470 . S
C2 La0 2.928 . S
C2 C3 1.503 . S
C2 O20 1.261 . S
C2 O21 1.243 . S
C3 C2 1.503 . S
C3 C4 1.394 . S
C3 C8 1.373 . S
C4 C3 1.394 . S
C4 C5 1.380 . S
C4 H32 0.930 . S
C5 C4 1.380 . S
C5 C6 1.376 . S
C5 H33 0.930 . S
C6 C5 1.376 . S
C6 C7 1.370 . S
C7 C6 1.370 . S
C7 C8 1.396 . S
C7 H34 0.929 . S
C8 C3 1.373 . S
C8 C7 1.396 . S
C8 H35 0.929 . S
C9 O22 1.240 . S
C9 O23 1.289 . S
C10 O24 1.258 . S
C10 O25 1.256 . S
C11 La1 2.928 . S
C11 C12 1.503 . S
C11 O26 1.261 . S
C11 O27 1.243 . S
C12 C11 1.503 . S
C12 C13 1.394 . S
C12 C17 1.373 . S
C13 C12 1.394 . S
C13 C14 1.380 . S
C13 H36 0.930 . S
C14 C13 1.380 . S
C14 C15 1.376 . S
C14 H37 0.930 . S
C15 C14 1.376 . S
C15 C16 1.370 . S
C16 C15 1.370 . S
C16 C17 1.396 . S
C16 H38 0.929 . S
C17 C12 1.373 . S
C17 C16 1.396 . S
C17 H39 0.929 . S
C18 O28 1.240 . S
C18 O29 1.289 . S
C19 O30 1.258 . S
C19 O31 1.256 . S
O20 La0 2.521 . S
O20 C2 1.261 . S
O21 La0 2.628 . S
O21 C2 1.243 . S
O22 La0 2.554 . S
O22 C9 1.240 . S
O23 La0 2.757 . S
O23 La1 2.482 . S
O23 C9 1.289 . S
O24 La0 2.470 . S
O24 C10 1.258 . S
O25 La1 2.503 . S
O25 C10 1.256 . S
O26 La1 2.521 . S
O26 C11 1.261 . S
O27 La1 2.628 . S
O27 C11 1.243 . S
O28 La1 2.554 . S
O28 C18 1.240 . S
O29 La0 2.482 . S
O29 La1 2.757 . S
O29 C18 1.289 . S
O30 La1 2.470 . S
O30 C19 1.258 . S
O31 La0 2.503 . S
O31 C19 1.256 . S
H32 C4 0.930 . S
H33 C5 0.930 . S
H34 C7 0.929 . S
H35 C8 0.929 . S
H36 C13 0.930 . S
H37 C14 0.930 . S
H38 C16 0.929 . S
H39 C17 0.929 . S
La40 C42 2.928 . S
La40 O60 2.521 . S
La40 O61 2.628 . S
La40 O62 2.554 . S
La40 O63 2.757 . S
La40 O64 2.470 . S
La40 O69 2.482 . S
La40 O71 2.503 . S
La41 C51 2.928 . S
La41 O63 2.482 . S
La41 O65 2.503 . S
La41 O66 2.521 . S
La41 O67 2.628 . S
La41 O68 2.554 . S
La41 O69 2.757 . S
La41 O70 2.470 . S
C42 La40 2.928 . S
C42 C43 1.503 . S
C42 O60 1.261 . S
C42 O61 1.243 . S
C43 C42 1.503 . S
C43 C44 1.394 . S
C43 C48 1.373 . S
C44 C43 1.394 . S
C44 C45 1.380 . S
C44 H72 0.930 . S
C45 C44 1.380 . S
C45 C46 1.376 . S
C45 H73 0.930 . S
C46 C45 1.376 . S
C46 C47 1.370 . S
C47 C46 1.370 . S
C47 C48 1.396 . S
C47 H74 0.929 . S
C48 C43 1.373 . S
C48 C47 1.396 . S
C48 H75 0.929 . S
C49 O62 1.240 . S
C49 O63 1.289 . S
C50 O64 1.258 . S
C50 O65 1.256 . S
C51 La41 2.928 . S
C51 C52 1.503 1_655 S
C51 O66 1.261 . S
C51 O67 1.243 . S
C52 C51 1.503 1_455 S
C52 C53 1.394 . S
C52 C57 1.373 . S
C53 C52 1.394 . S
C53 C54 1.380 . S
C53 H76 0.930 . S
C54 C53 1.380 . S
C54 C55 1.376 . S
C54 H77 0.930 . S
C55 C54 1.376 . S
C55 C56 1.370 . S
C56 C55 1.370 . S
C56 C57 1.396 . S
C56 H78 0.929 . S
C57 C52 1.373 . S
C57 C56 1.396 . S
C57 H79 0.929 . S
C58 O68 1.240 . S
C58 O69 1.289 . S
C59 O70 1.258 . S
C59 O71 1.256 . S
O60 La40 2.521 . S
O60 C42 1.261 . S
O61 La40 2.628 . S
O61 C42 1.243 . S
O62 La40 2.554 . S
O62 C49 1.240 . S
O63 La40 2.757 . S
O63 La41 2.482 . S
O63 C49 1.289 . S
O64 La40 2.470 . S
O64 C50 1.258 . S
O65 La41 2.503 . S
O65 C50 1.256 . S
O66 La41 2.521 . S
O66 C51 1.261 . S
O67 La41 2.628 . S
O67 C51 1.243 . S
O68 La41 2.554 . S
O68 C58 1.240 . S
O69 La40 2.482 . S
O69 La41 2.757 . S
O69 C58 1.289 . S
O70 La41 2.470 . S
O70 C59 1.258 . S
O71 La40 2.503 . S
O71 C59 1.256 . S
H72 C44 0.930 . S
H73 C45 0.930 . S
H74 C47 0.929 . S
H75 C48 0.929 . S
H76 C53 0.930 . S
H77 C54 0.930 . S
H78 C56 0.929 . S
H79 C57 0.929 . S
La80 C82 2.928 . S
La80 O100 2.521 . S
La80 O101 2.628 . S
La80 O102 2.554 . S
La80 O103 2.757 . S
La80 O104 2.470 . S
La80 O109 2.482 . S
La80 O111 2.503 . S
La81 C91 2.928 . S
La81 O103 2.482 . S
La81 O105 2.503 . S
La81 O106 2.521 . S
La81 O107 2.628 . S
La81 O108 2.554 . S
La81 O109 2.757 . S
La81 O110 2.470 . S
C82 La80 2.928 . S
C82 C83 1.503 . S
C82 O100 1.261 . S
C82 O101 1.243 . S
C83 C82 1.503 . S
C83 C84 1.394 . S
C83 C88 1.373 . S
C84 C83 1.394 . S
C84 C85 1.380 . S
C84 H112 0.930 . S
C85 C84 1.380 . S
C85 C86 1.376 . S
C85 H113 0.930 . S
C86 C85 1.376 . S
C86 C87 1.370 . S
C87 C86 1.370 . S
C87 C88 1.396 . S
C87 H114 0.929 . S
C88 C83 1.373 . S
C88 C87 1.396 . S
C88 H115 0.929 . S
C89 O102 1.240 . S
C89 O103 1.289 . S
C90 O104 1.258 . S
C90 O105 1.256 . S
C91 La81 2.928 . S
C91 C92 1.503 1_565 S
C91 O106 1.261 . S
C91 O107 1.243 . S
C92 C91 1.503 1_545 S
C92 C93 1.394 . S
C92 C97 1.373 . S
C93 C92 1.394 . S
C93 C94 1.380 . S
C93 H116 0.930 . S
C94 C93 1.380 . S
C94 C95 1.376 . S
C94 H117 0.930 . S
C95 C94 1.376 . S
C95 C96 1.370 . S
C96 C95 1.370 . S
C96 C97 1.396 . S
C96 H118 0.929 . S
C97 C92 1.373 . S
C97 C96 1.396 . S
C97 H119 0.929 . S
C98 O108 1.240 . S
C98 O109 1.289 . S
C99 O110 1.258 . S
C99 O111 1.256 . S
O100 La80 2.521 . S
O100 C82 1.261 . S
O101 La80 2.628 . S
O101 C82 1.243 . S
O102 La80 2.554 . S
O102 C89 1.240 . S
O103 La80 2.757 . S
O103 La81 2.482 . S
O103 C89 1.289 . S
O104 La80 2.470 . S
O104 C90 1.258 . S
O105 La81 2.503 . S
O105 C90 1.256 . S
O106 La81 2.521 . S
O106 C91 1.261 . S
O107 La81 2.628 . S
O107 C91 1.243 . S
O108 La81 2.554 . S
O108 C98 1.240 . S
O109 La80 2.482 . S
O109 La81 2.757 . S
O109 C98 1.289 . S
O110 La81 2.470 . S
O110 C99 1.258 . S
O111 La80 2.503 . S
O111 C99 1.256 . S
H112 C84 0.930 . S
H113 C85 0.930 . S
H114 C87 0.929 . S
H115 C88 0.929 . S
H116 C93 0.930 . S
H117 C94 0.930 . S
H118 C96 0.929 . S
H119 C97 0.929 . S
La120 C122 2.928 . S
La120 O140 2.521 . S
La120 O141 2.628 . S
La120 O142 2.554 . S
La120 O143 2.757 . S
La120 O144 2.470 . S
La120 O149 2.482 . S
La120 O151 2.503 . S
La121 C131 2.928 . S
La121 O143 2.482 . S
La121 O145 2.503 . S
La121 O146 2.521 . S
La121 O147 2.628 . S
La121 O148 2.554 . S
La121 O149 2.757 . S
La121 O150 2.470 . S
C122 La120 2.928 . S
C122 C123 1.503 . S
C122 O140 1.261 . S
C122 O141 1.243 . S
C123 C122 1.503 . S
C123 C124 1.394 . S
C123 C128 1.373 . S
C124 C123 1.394 . S
C124 C125 1.380 . S
C124 H152 0.930 . S
C125 C124 1.380 . S
C125 C126 1.376 . S
C125 H153 0.930 . S
C126 C125 1.376 . S
C126 C127 1.370 . S
C127 C126 1.370 . S
C127 C128 1.396 . S
C127 H154 0.929 . S
C128 C123 1.373 . S
C128 C127 1.396 . S
C128 H155 0.929 . S
C129 O142 1.240 . S
C129 O143 1.289 . S
C130 O144 1.258 . S
C130 O145 1.256 . S
C131 La121 2.928 . S
C131 C132 1.503 . S
C131 O146 1.261 . S
C131 O147 1.243 . S
C132 C131 1.503 . S
C132 C133 1.394 . S
C132 C137 1.373 . S
C133 C132 1.394 . S
C133 C134 1.380 . S
C133 H156 0.930 . S
C134 C133 1.380 . S
C134 C135 1.376 . S
C134 H157 0.930 . S
C135 C134 1.376 . S
C135 C136 1.370 . S
C136 C135 1.370 . S
C136 C137 1.396 . S
C136 H158 0.929 . S
C137 C132 1.373 . S
C137 C136 1.396 . S
C137 H159 0.929 . S
C138 O148 1.240 . S
C138 O149 1.289 . S
C139 O150 1.258 . S
C139 O151 1.256 . S
O140 La120 2.521 . S
O140 C122 1.261 . S
O141 La120 2.628 . S
O141 C122 1.243 . S
O142 La120 2.554 . S
O142 C129 1.240 . S
O143 La120 2.757 . S
O143 La121 2.482 . S
O143 C129 1.289 . S
O144 La120 2.470 . S
O144 C130 1.258 . S
O145 La121 2.503 . S
O145 C130 1.256 . S
O146 La121 2.521 . S
O146 C131 1.261 . S
O147 La121 2.628 . S
O147 C131 1.243 . S
O148 La121 2.554 . S
O148 C138 1.240 . S
O149 La120 2.482 . S
O149 La121 2.757 . S
O149 C138 1.289 . S
O150 La121 2.470 . S
O150 C139 1.258 . S
O151 La120 2.503 . S
O151 C139 1.256 . S
H152 C124 0.930 . S
H153 C125 0.930 . S
H154 C127 0.929 . S
H155 C128 0.929 . S
H156 C133 0.930 . S
H157 C134 0.930 . S
H158 C136 0.929 . S
H159 C137 0.929 . S
La160 C162 2.928 . S
La160 O180 2.521 . S
La160 O181 2.628 . S
La160 O182 2.554 . S
La160 O183 2.757 . S
La160 O184 2.470 . S
La160 O189 2.482 . S
La160 O191 2.503 . S
La161 C171 2.928 . S
La161 O183 2.482 . S
La161 O185 2.503 . S
La161 O186 2.521 . S
La161 O187 2.628 . S
La161 O188 2.554 . S
La161 O189 2.757 . S
La161 O190 2.470 . S
C162 La160 2.928 . S
C162 C163 1.503 . S
C162 O180 1.261 . S
C162 O181 1.243 . S
C163 C162 1.503 . S
C163 C164 1.394 . S
C163 C168 1.373 . S
C164 C163 1.394 . S
C164 C165 1.380 . S
C164 H192 0.930 . S
C165 C164 1.380 . S
C165 C166 1.376 . S
C165 H193 0.930 . S
C166 C165 1.376 . S
C166 C167 1.370 . S
C167 C166 1.370 . S
C167 C168 1.396 . S
C167 H194 0.929 . S
C168 C163 1.373 . S
C168 C167 1.396 . S
C168 H195 0.929 . S
C169 O182 1.240 . S
C169 O183 1.289 . S
C170 O184 1.258 . S
C170 O185 1.256 . S
C171 La161 2.928 . S
C171 C172 1.503 1_455 S
C171 O186 1.261 . S
C171 O187 1.243 . S
C172 C171 1.503 1_655 S
C172 C173 1.394 . S
C172 C177 1.373 . S
C173 C172 1.394 . S
C173 C174 1.380 . S
C173 H196 0.930 . S
C174 C173 1.380 . S
C174 C175 1.376 . S
C174 H197 0.930 . S
C175 C174 1.376 . S
C175 C176 1.370 . S
C176 C175 1.370 . S
C176 C177 1.396 . S
C176 H198 0.929 . S
C177 C172 1.373 . S
C177 C176 1.396 . S
C177 H199 0.929 . S
C178 O188 1.240 . S
C178 O189 1.289 . S
C179 O190 1.258 . S
C179 O191 1.256 . S
O180 La160 2.521 . S
O180 C162 1.261 . S
O181 La160 2.628 . S
O181 C162 1.243 . S
O182 La160 2.554 . S
O182 C169 1.240 . S
O183 La160 2.757 . S
O183 La161 2.482 . S
O183 C169 1.289 . S
O184 La160 2.470 . S
O184 C170 1.258 . S
O185 La161 2.503 . S
O185 C170 1.256 . S
O186 La161 2.521 . S
O186 C171 1.261 . S
O187 La161 2.628 . S
O187 C171 1.243 . S
O188 La161 2.554 . S
O188 C178 1.240 . S
O189 La160 2.482 . S
O189 La161 2.757 . S
O189 C178 1.289 . S
O190 La161 2.470 . S
O190 C179 1.258 . S
O191 La160 2.503 . S
O191 C179 1.256 . S
H192 C164 0.930 . S
H193 C165 0.930 . S
H194 C167 0.929 . S
H195 C168 0.929 . S
H196 C173 0.930 . S
H197 C174 0.930 . S
H198 C176 0.929 . S
H199 C177 0.929 . S
La200 C202 2.928 . S
La200 O220 2.521 . S
La200 O221 2.628 . S
La200 O222 2.554 . S
La200 O223 2.757 . S
La200 O224 2.470 . S
La200 O229 2.482 . S
La200 O231 2.503 . S
La201 C211 2.928 . S
La201 O223 2.482 . S
La201 O225 2.503 . S
La201 O226 2.521 . S
La201 O227 2.628 . S
La201 O228 2.554 . S
La201 O229 2.757 . S
La201 O230 2.470 . S
C202 La200 2.928 . S
C202 C203 1.503 . S
C202 O220 1.261 . S
C202 O221 1.243 . S
C203 C202 1.503 . S
C203 C204 1.394 . S
C203 C208 1.373 . S
C204 C203 1.394 . S
C204 C205 1.380 . S
C204 H232 0.930 . S
C205 C204 1.380 . S
C205 C206 1.376 . S
C205 H233 0.930 . S
C206 C205 1.376 . S
C206 C207 1.370 . S
C207 C206 1.370 . S
C207 C208 1.396 . S
C207 H234 0.929 . S
C208 C203 1.373 . S
C208 C207 1.396 . S
C208 H235 0.929 . S
C209 O222 1.240 . S
C209 O223 1.289 . S
C210 O224 1.258 . S
C210 O225 1.256 . S
C211 La201 2.928 . S
C211 C212 1.503 1_545 S
C211 O226 1.261 . S
C211 O227 1.243 . S
C212 C211 1.503 1_565 S
C212 C213 1.394 . S
C212 C217 1.373 . S
C213 C212 1.394 . S
C213 C214 1.380 . S
C213 H236 0.930 . S
C214 C213 1.380 . S
C214 C215 1.376 . S
C214 H237 0.930 . S
C215 C214 1.376 . S
C215 C216 1.370 . S
C216 C215 1.370 . S
C216 C217 1.396 . S
C216 H238 0.929 . S
C217 C212 1.373 . S
C217 C216 1.396 . S
C217 H239 0.929 . S
C218 O228 1.240 . S
C218 O229 1.289 . S
C219 O230 1.258 . S
C219 O231 1.256 . S
O220 La200 2.521 . S
O220 C202 1.261 . S
O221 La200 2.628 . S
O221 C202 1.243 . S
O222 La200 2.554 . S
O222 C209 1.240 . S
O223 La200 2.757 . S
O223 La201 2.482 . S
O223 C209 1.289 . S
O224 La200 2.470 . S
O224 C210 1.258 . S
O225 La201 2.503 . S
O225 C210 1.256 . S
O226 La201 2.521 . S
O226 C211 1.261 . S
O227 La201 2.628 . S
O227 C211 1.243 . S
O228 La201 2.554 . S
O228 C218 1.240 . S
O229 La200 2.482 . S
O229 La201 2.757 . S
O229 C218 1.289 . S
O230 La201 2.470 . S
O230 C219 1.258 . S
O231 La200 2.503 . S
O231 C219 1.256 . S
H232 C204 0.930 . S
H233 C205 0.930 . S
H234 C207 0.929 . S
H235 C208 0.929 . S
H236 C213 0.930 . S
H237 C214 0.930 . S
H238 C216 0.929 . S
H239 C217 0.929 . S
La240 C242 2.928 . S
La240 O260 2.521 . S
La240 O261 2.628 . S
La240 O262 2.554 . S
La240 O263 2.757 . S
La240 O264 2.470 . S
La240 O269 2.482 . S
La240 O271 2.503 . S
La241 C251 2.928 . S
La241 O263 2.482 . S
La241 O265 2.503 . S
La241 O266 2.521 . S
La241 O267 2.628 . S
La241 O268 2.554 . S
La241 O269 2.757 . S
La241 O270 2.470 . S
C242 La240 2.928 . S
C242 C243 1.503 . S
C242 O260 1.261 . S
C242 O261 1.243 . S
C243 C242 1.503 . S
C243 C244 1.394 . S
C243 C248 1.373 . S
C244 C243 1.394 . S
C244 C245 1.380 . S
C244 H272 0.930 . S
C245 C244 1.380 . S
C245 C246 1.376 . S
C245 H273 0.930 . S
C246 C245 1.376 . S
C246 C247 1.370 . S
C247 C246 1.370 . S
C247 C248 1.396 . S
C247 H274 0.929 . S
C248 C243 1.373 . S
C248 C247 1.396 . S
C248 H275 0.929 . S
C249 O262 1.240 . S
C249 O263 1.289 . S
C250 O264 1.258 . S
C250 O265 1.256 . S
C251 La241 2.928 . S
C251 C252 1.503 . S
C251 O266 1.261 . S
C251 O267 1.243 . S
C252 C251 1.503 . S
C252 C253 1.394 . S
C252 C257 1.373 . S
C253 C252 1.394 . S
C253 C254 1.380 . S
C253 H276 0.930 . S
C254 C253 1.380 . S
C254 C255 1.376 . S
C254 H277 0.930 . S
C255 C254 1.376 . S
C255 C256 1.370 . S
C256 C255 1.370 . S
C256 C257 1.396 . S
C256 H278 0.929 . S
C257 C252 1.373 . S
C257 C256 1.396 . S
C257 H279 0.929 . S
C258 O268 1.240 . S
C258 O269 1.289 . S
C259 O270 1.258 . S
C259 O271 1.256 . S
O260 La240 2.521 . S
O260 C242 1.261 . S
O261 La240 2.628 . S
O261 C242 1.243 . S
O262 La240 2.554 . S
O262 C249 1.240 . S
O263 La240 2.757 . S
O263 La241 2.482 . S
O263 C249 1.289 . S
O264 La240 2.470 . S
O264 C250 1.258 . S
O265 La241 2.503 . S
O265 C250 1.256 . S
O266 La241 2.521 . S
O266 C251 1.261 . S
O267 La241 2.628 . S
O267 C251 1.243 . S
O268 La241 2.554 . S
O268 C258 1.240 . S
O269 La240 2.482 . S
O269 La241 2.757 . S
O269 C258 1.289 . S
O270 La241 2.470 . S
O270 C259 1.258 . S
O271 La240 2.503 . S
O271 C259 1.256 . S
H272 C244 0.930 . S
H273 C245 0.930 . S
H274 C247 0.929 . S
H275 C248 0.929 . S
H276 C253 0.930 . S
H277 C254 0.930 . S
H278 C256 0.929 . S
H279 C257 0.929 . S
La280 C282 2.928 . S
La280 O300 2.521 . S
La280 O301 2.628 . S
La280 O302 2.554 . S
La280 O303 2.757 . S
La280 O304 2.470 . S
La280 O309 2.482 . S
La280 O311 2.503 . S
La281 C291 2.928 . S
La281 O303 2.482 . S
La281 O305 2.503 . S
La281 O306 2.521 . S
La281 O307 2.628 . S
La281 O308 2.554 . S
La281 O309 2.757 . S
La281 O310 2.470 . S
C282 La280 2.928 . S
C282 C283 1.503 . S
C282 O300 1.261 . S
C282 O301 1.243 . S
C283 C282 1.503 . S
C283 C284 1.394 . S
C283 C288 1.373 . S
C284 C283 1.394 . S
C284 C285 1.380 . S
C284 H312 0.930 . S
C285 C284 1.380 . S
C285 C286 1.376 . S
C285 H313 0.930 . S
C286 C285 1.376 . S
C286 C287 1.370 . S
C287 C286 1.370 . S
C287 C288 1.396 . S
C287 H314 0.929 . S
C288 C283 1.373 . S
C288 C287 1.396 . S
C288 H315 0.929 . S
C289 O302 1.240 . S
C289 O303 1.289 . S
C290 O304 1.258 . S
C290 O305 1.256 . S
C291 La281 2.928 . S
C291 C292 1.503 1_655 S
C291 O306 1.261 . S
C291 O307 1.243 . S
C292 C291 1.503 1_455 S
C292 C293 1.394 . S
C292 C297 1.373 . S
C293 C292 1.394 . S
C293 C294 1.380 . S
C293 H316 0.930 . S
C294 C293 1.380 . S
C294 C295 1.376 . S
C294 H317 0.930 . S
C295 C294 1.376 . S
C295 C296 1.370 . S
C296 C295 1.370 . S
C296 C297 1.396 . S
C296 H318 0.929 . S
C297 C292 1.373 . S
C297 C296 1.396 . S
C297 H319 0.929 . S
C298 O308 1.240 . S
C298 O309 1.289 . S
C299 O310 1.258 . S
C299 O311 1.256 . S
O300 La280 2.521 . S
O300 C282 1.261 . S
O301 La280 2.628 . S
O301 C282 1.243 . S
O302 La280 2.554 . S
O302 C289 1.240 . S
O303 La280 2.757 . S
O303 La281 2.482 . S
O303 C289 1.289 . S
O304 La280 2.470 . S
O304 C290 1.258 . S
O305 La281 2.503 . S
O305 C290 1.256 . S
O306 La281 2.521 . S
O306 C291 1.261 . S
O307 La281 2.628 . S
O307 C291 1.243 . S
O308 La281 2.554 . S
O308 C298 1.240 . S
O309 La280 2.482 . S
O309 La281 2.757 . S
O309 C298 1.289 . S
O310 La281 2.470 . S
O310 C299 1.258 . S
O311 La280 2.503 . S
O311 C299 1.256 . S
H312 C284 0.930 . S
H313 C285 0.930 . S
H314 C287 0.929 . S
H315 C288 0.929 . S
H316 C293 0.930 . S
H317 C294 0.930 . S
H318 C296 0.929 . S
H319 C297 0.929 . S
La320 C322 2.928 . S
La320 O340 2.521 . S
La320 O341 2.628 . S
La320 O342 2.554 . S
La320 O343 2.757 . S
La320 O344 2.470 . S
La320 O349 2.482 . S
La320 O351 2.503 . S
La321 C331 2.928 . S
La321 O343 2.482 . S
La321 O345 2.503 . S
La321 O346 2.521 . S
La321 O347 2.628 . S
La321 O348 2.554 . S
La321 O349 2.757 . S
La321 O350 2.470 . S
C322 La320 2.928 . S
C322 C323 1.503 . S
C322 O340 1.261 . S
C322 O341 1.243 . S
C323 C322 1.503 . S
C323 C324 1.394 . S
C323 C328 1.373 . S
C324 C323 1.394 . S
C324 C325 1.380 . S
C324 H352 0.930 . S
C325 C324 1.380 . S
C325 C326 1.376 . S
C325 H353 0.930 . S
C326 C325 1.376 . S
C326 C327 1.370 . S
C327 C326 1.370 . S
C327 C328 1.396 . S
C327 H354 0.929 . S
C328 C323 1.373 . S
C328 C327 1.396 . S
C328 H355 0.929 . S
C329 O342 1.240 . S
C329 O343 1.289 . S
C330 O344 1.258 . S
C330 O345 1.256 . S
C331 La321 2.928 . S
C331 C332 1.503 1_565 S
C331 O346 1.261 . S
C331 O347 1.243 . S
C332 C331 1.503 1_545 S
C332 C333 1.394 . S
C332 C337 1.373 . S
C333 C332 1.394 . S
C333 C334 1.380 . S
C333 H356 0.930 . S
C334 C333 1.380 . S
C334 C335 1.376 . S
C334 H357 0.930 . S
C335 C334 1.376 . S
C335 C336 1.370 . S
C336 C335 1.370 . S
C336 C337 1.396 . S
C336 H358 0.929 . S
C337 C332 1.373 . S
C337 C336 1.396 . S
C337 H359 0.929 . S
C338 O348 1.240 . S
C338 O349 1.289 . S
C339 O350 1.258 . S
C339 O351 1.256 . S
O340 La320 2.521 . S
O340 C322 1.261 . S
O341 La320 2.628 . S
O341 C322 1.243 . S
O342 La320 2.554 . S
O342 C329 1.240 . S
O343 La320 2.757 . S
O343 La321 2.482 . S
O343 C329 1.289 . S
O344 La320 2.470 . S
O344 C330 1.258 . S
O345 La321 2.503 . S
O345 C330 1.256 . S
O346 La321 2.521 . S
O346 C331 1.261 . S
O347 La321 2.628 . S
O347 C331 1.243 . S
O348 La321 2.554 . S
O348 C338 1.240 . S
O349 La320 2.482 . S
O349 La321 2.757 . S
O349 C338 1.289 . S
O350 La321 2.470 . S
O350 C339 1.258 . S
O351 La320 2.503 . S
O351 C339 1.256 . S
H352 C324 0.930 . S
H353 C325 0.930 . S
H354 C327 0.929 . S
H355 C328 0.929 . S
H356 C333 0.930 . S
H357 C334 0.930 . S
H358 C336 0.929 . S
H359 C337 0.929 . S
La360 C362 2.928 . S
La360 O380 2.521 . S
La360 O381 2.628 . S
La360 O382 2.554 . S
La360 O383 2.757 . S
La360 O384 2.470 . S
La360 O389 2.482 . S
La360 O391 2.503 . S
La361 C371 2.928 . S
La361 O383 2.482 . S
La361 O385 2.503 . S
La361 O386 2.521 . S
La361 O387 2.628 . S
La361 O388 2.554 . S
La361 O389 2.757 . S
La361 O390 2.470 . S
C362 La360 2.928 . S
C362 C363 1.503 . S
C362 O380 1.261 . S
C362 O381 1.243 . S
C363 C362 1.503 . S
C363 C364 1.394 . S
C363 C368 1.373 . S
C364 C363 1.394 . S
C364 C365 1.380 . S
C364 H392 0.930 . S
C365 C364 1.380 . S
C365 C366 1.376 . S
C365 H393 0.930 . S
C366 C365 1.376 . S
C366 C367 1.370 . S
C367 C366 1.370 . S
C367 C368 1.396 . S
C367 H394 0.929 . S
C368 C363 1.373 . S
C368 C367 1.396 . S
C368 H395 0.929 . S
C369 O382 1.240 . S
C369 O383 1.289 . S
C370 O384 1.258 . S
C370 O385 1.256 . S
C371 La361 2.928 . S
C371 C372 1.503 . S
C371 O386 1.261 . S
C371 O387 1.243 . S
C372 C371 1.503 . S
C372 C373 1.394 . S
C372 C377 1.373 . S
C373 C372 1.394 . S
C373 C374 1.380 . S
C373 H396 0.930 . S
C374 C373 1.380 . S
C374 C375 1.376 . S
C374 H397 0.930 . S
C375 C374 1.376 . S
C375 C376 1.370 . S
C376 C375 1.370 . S
C376 C377 1.396 . S
C376 H398 0.929 . S
C377 C372 1.373 . S
C377 C376 1.396 . S
C377 H399 0.929 . S
C378 O388 1.240 . S
C378 O389 1.289 . S
C379 O390 1.258 . S
C379 O391 1.256 . S
O380 La360 2.521 . S
O380 C362 1.261 . S
O381 La360 2.628 . S
O381 C362 1.243 . S
O382 La360 2.554 . S
O382 C369 1.240 . S
O383 La360 2.757 . S
O383 La361 2.482 . S
O383 C369 1.289 . S
O384 La360 2.470 . S
O384 C370 1.258 . S
O385 La361 2.503 . S
O385 C370 1.256 . S
O386 La361 2.521 . S
O386 C371 1.261 . S
O387 La361 2.628 . S
O387 C371 1.243 . S
O388 La361 2.554 . S
O388 C378 1.240 . S
O389 La360 2.482 . S
O389 La361 2.757 . S
O389 C378 1.289 . S
O390 La361 2.470 . S
O390 C379 1.258 . S
O391 La360 2.503 . S
O391 C379 1.256 . S
H392 C364 0.930 . S
H393 C365 0.930 . S
H394 C367 0.929 . S
H395 C368 0.929 . S
H396 C373 0.930 . S
H397 C374 0.930 . S
H398 C376 0.929 . S
H399 C377 0.929 . S
La400 C402 2.928 . S
La400 O420 2.521 . S
La400 O421 2.628 . S
La400 O422 2.554 . S
La400 O423 2.757 . S
La400 O424 2.470 . S
La400 O429 2.482 . S
La400 O431 2.503 . S
La401 C411 2.928 . S
La401 O423 2.482 . S
La401 O425 2.503 . S
La401 O426 2.521 . S
La401 O427 2.628 . S
La401 O428 2.554 . S
La401 O429 2.757 . S
La401 O430 2.470 . S
C402 La400 2.928 . S
C402 C403 1.503 . S
C402 O420 1.261 . S
C402 O421 1.243 . S
C403 C402 1.503 . S
C403 C404 1.394 . S
C403 C408 1.373 . S
C404 C403 1.394 . S
C404 C405 1.380 . S
C404 H432 0.930 . S
C405 C404 1.380 . S
C405 C406 1.376 . S
C405 H433 0.930 . S
C406 C405 1.376 . S
C406 C407 1.370 . S
C407 C406 1.370 . S
C407 C408 1.396 . S
C407 H434 0.929 . S
C408 C403 1.373 . S
C408 C407 1.396 . S
C408 H435 0.929 . S
C409 O422 1.240 . S
C409 O423 1.289 . S
C410 O424 1.258 . S
C410 O425 1.256 . S
C411 La401 2.928 . S
C411 C412 1.503 1_455 S
C411 O426 1.261 . S
C411 O427 1.243 . S
C412 C411 1.503 1_655 S
C412 C413 1.394 . S
C412 C417 1.373 . S
C413 C412 1.394 . S
C413 C414 1.380 . S
C413 H436 0.930 . S
C414 C413 1.380 . S
C414 C415 1.376 . S
C414 H437 0.930 . S
C415 C414 1.376 . S
C415 C416 1.370 . S
C416 C415 1.370 . S
C416 C417 1.396 . S
C416 H438 0.929 . S
C417 C412 1.373 . S
C417 C416 1.396 . S
C417 H439 0.929 . S
C418 O428 1.240 . S
C418 O429 1.289 . S
C419 O430 1.258 . S
C419 O431 1.256 . S
O420 La400 2.521 . S
O420 C402 1.261 . S
O421 La400 2.628 . S
O421 C402 1.243 . S
O422 La400 2.554 . S
O422 C409 1.240 . S
O423 La400 2.757 . S
O423 La401 2.482 . S
O423 C409 1.289 . S
O424 La400 2.470 . S
O424 C410 1.258 . S
O425 La401 2.503 . S
O425 C410 1.256 . S
O426 La401 2.521 . S
O426 C411 1.261 . S
O427 La401 2.628 . S
O427 C411 1.243 . S
O428 La401 2.554 . S
O428 C418 1.240 . S
O429 La400 2.482 . S
O429 La401 2.757 . S
O429 C418 1.289 . S
O430 La401 2.470 . S
O430 C419 1.258 . S
O431 La400 2.503 . S
O431 C419 1.256 . S
H432 C404 0.930 . S
H433 C405 0.930 . S
H434 C407 0.929 . S
H435 C408 0.929 . S
H436 C413 0.930 . S
H437 C414 0.930 . S
H438 C416 0.929 . S
H439 C417 0.929 . S
La440 C442 2.928 . S
La440 O460 2.521 . S
La440 O461 2.628 . S
La440 O462 2.554 . S
La440 O463 2.757 . S
La440 O464 2.470 . S
La440 O469 2.482 . S
La440 O471 2.503 . S
La441 C451 2.928 . S
La441 O463 2.482 . S
La441 O465 2.503 . S
La441 O466 2.521 . S
La441 O467 2.628 . S
La441 O468 2.554 . S
La441 O469 2.757 . S
La441 O470 2.470 . S
C442 La440 2.928 . S
C442 C443 1.503 . S
C442 O460 1.261 . S
C442 O461 1.243 . S
C443 C442 1.503 . S
C443 C444 1.394 . S
C443 C448 1.373 . S
C444 C443 1.394 . S
C444 C445 1.380 . S
C444 H472 0.930 . S
C445 C444 1.380 . S
C445 C446 1.376 . S
C445 H473 0.930 . S
C446 C445 1.376 . S
C446 C447 1.370 . S
C447 C446 1.370 . S
C447 C448 1.396 . S
C447 H474 0.929 . S
C448 C443 1.373 . S
C448 C447 1.396 . S
C448 H475 0.929 . S
C449 O462 1.240 . S
C449 O463 1.289 . S
C450 O464 1.258 . S
C450 O465 1.256 . S
C451 La441 2.928 . S
C451 C452 1.503 1_545 S
C451 O466 1.261 . S
C451 O467 1.243 . S
C452 C451 1.503 1_565 S
C452 C453 1.394 . S
C452 C457 1.373 . S
C453 C452 1.394 . S
C453 C454 1.380 . S
C453 H476 0.930 . S
C454 C453 1.380 . S
C454 C455 1.376 . S
C454 H477 0.930 . S
C455 C454 1.376 . S
C455 C456 1.370 . S
C456 C455 1.370 . S
C456 C457 1.396 . S
C456 H478 0.929 . S
C457 C452 1.373 . S
C457 C456 1.396 . S
C457 H479 0.929 . S
C458 O468 1.240 . S
C458 O469 1.289 . S
C459 O470 1.258 . S
C459 O471 1.256 . S
O460 La440 2.521 . S
O460 C442 1.261 . S
O461 La440 2.628 . S
O461 C442 1.243 . S
O462 La440 2.554 . S
O462 C449 1.240 . S
O463 La440 2.757 . S
O463 La441 2.482 . S
O463 C449 1.289 . S
O464 La440 2.470 . S
O464 C450 1.258 . S
O465 La441 2.503 . S
O465 C450 1.256 . S
O466 La441 2.521 . S
O466 C451 1.261 . S
O467 La441 2.628 . S
O467 C451 1.243 . S
O468 La441 2.554 . S
O468 C458 1.240 . S
O469 La440 2.482 . S
O469 La441 2.757 . S
O469 C458 1.289 . S
O470 La441 2.470 . S
O470 C459 1.258 . S
O471 La440 2.503 . S
O471 C459 1.256 . S
H472 C444 0.930 . S
H473 C445 0.930 . S
H474 C447 0.929 . S
H475 C448 0.929 . S
H476 C453 0.930 . S
H477 C454 0.930 . S
H478 C456 0.929 . S
H479 C457 0.929 . S
H480 C488 0.950 . S
H481 C493 0.950 . S
H482 C490 0.950 . S
H483 C492 0.950 . S
H484 C494 0.950 . S
H485 C496 0.950 . S
H486 C498 0.950 . S
H487 C499 0.950 . S
C488 H480 0.950 . S
C488 C489 1.386 . S
C488 C490 1.391 . S
C489 C488 1.386 . S
C489 C493 1.393 . S
C490 H482 0.950 . S
C490 C488 1.391 . S
C490 C491 1.400 . S
C491 C490 1.400 . S
C491 C492 1.398 . S
C491 C497 1.491 1_565 S
C492 H483 0.950 . S
C492 C491 1.398 . S
C492 C493 1.391 . S
C493 H481 0.950 . S
C493 C489 1.393 . S
C493 C492 1.391 . S
C494 H484 0.950 . S
C494 C495 1.386 . S
C494 C496 1.391 . S
C495 C494 1.386 . S
C495 C499 1.393 . S
C496 H485 0.950 . S
C496 C494 1.391 . S
C496 C497 1.400 . S
C497 C491 1.491 1_545 S
C497 C496 1.400 . S
C497 C498 1.398 . S
C498 H486 0.950 . S
C498 C497 1.398 . S
C498 C499 1.391 . S
C499 H487 0.950 . S
C499 C495 1.393 . S
C499 C498 1.391 . S
H500 C508 0.950 . S
H501 C513 0.950 . S
H502 C510 0.950 . S
H503 C512 0.950 . S
H504 C514 0.950 . S
H505 C516 0.950 . S
H506 C518 0.950 . S
H507 C519 0.950 . S
C508 H500 0.950 . S
C508 C509 1.386 . S
C508 C510 1.391 . S
C509 C508 1.386 . S
C509 C513 1.393 . S
C510 H502 0.950 . S
C510 C508 1.391 . S
C510 C511 1.400 . S
C511 C510 1.400 . S
C511 C512 1.398 . S
C511 C517 1.491 . S
C512 H503 0.950 . S
C512 C511 1.398 . S
C512 C513 1.391 . S
C513 H501 0.950 . S
C513 C509 1.393 . S
C513 C512 1.391 . S
C514 H504 0.950 . S
C514 C515 1.386 . S
C514 C516 1.391 . S
C515 C514 1.386 . S
C515 C519 1.393 . S
C516 H505 0.950 . S
C516 C514 1.391 . S
C516 C517 1.400 . S
C517 C511 1.491 . S
C517 C516 1.400 . S
C517 C518 1.398 . S
C518 H506 0.950 . S
C518 C517 1.398 . S
C518 C519 1.391 . S
C519 H507 0.950 . S
C519 C515 1.393 . S
C519 C518 1.391 . S
H520 C528 0.950 . S
H521 C533 0.950 . S
H522 C530 0.950 . S
H523 C532 0.950 . S
H524 C534 0.950 . S
H525 C536 0.950 . S
H526 C538 0.950 . S
H527 C539 0.950 . S
C528 H520 0.950 . S
C528 C529 1.386 . S
C528 C530 1.391 . S
C529 C528 1.386 . S
C529 C533 1.393 . S
C530 H522 0.950 . S
C530 C528 1.391 . S
C530 C531 1.400 . S
C531 C530 1.400 . S
C531 C532 1.398 . S
C531 C537 1.491 1_655 S
C532 H523 0.950 . S
C532 C531 1.398 . S
C532 C533 1.391 . S
C533 H521 0.950 . S
C533 C529 1.393 . S
C533 C532 1.391 . S
C534 H524 0.950 . S
C534 C535 1.386 . S
C534 C536 1.391 . S
C535 C534 1.386 . S
C535 C539 1.393 . S
C536 H525 0.950 . S
C536 C534 1.391 . S
C536 C537 1.400 . S
C537 C531 1.491 1_455 S
C537 C536 1.400 . S
C537 C538 1.398 . S
C538 H526 0.950 . S
C538 C537 1.398 . S
C538 C539 1.391 . S
C539 H527 0.950 . S
C539 C535 1.393 . S
C539 C538 1.391 . S
H540 C548 0.950 . S
H541 C553 0.950 . S
H542 C550 0.937 1_545 S
H543 C552 0.950 . S
H544 C554 0.950 . S
H545 C556 0.950 . S
H546 C558 0.950 . S
H547 C559 0.950 . S
C548 H540 0.950 . S
C548 C549 1.386 . S
C548 C550 1.391 . S
C549 C548 1.386 . S
C549 C553 1.393 . S
C550 H542 0.937 1_565 S
C550 C548 1.391 . S
C550 C551 1.400 . S
C551 C550 1.400 . S
C551 C552 1.398 . S
C551 C557 1.491 1_565 S
C552 H543 0.950 . S
C552 C551 1.398 . S
C552 C553 1.391 . S
C553 H541 0.950 . S
C553 C549 1.393 . S
C553 C552 1.391 . S
C554 H544 0.950 . S
C554 C555 1.386 . S
C554 C556 1.391 . S
C555 C554 1.386 . S
C555 C559 1.393 . S
C556 H545 0.950 . S
C556 C554 1.391 . S
C556 C557 1.400 . S
C557 C551 1.491 1_545 S
C557 C556 1.400 . S
C557 C558 1.398 . S
C558 H546 0.950 . S
C558 C557 1.398 . S
C558 C559 1.391 . S
C559 H547 0.950 . S
C559 C555 1.393 . S
C559 C558 1.391 . S
H560 C568 0.950 . S
H561 C573 0.950 . S
H562 C570 0.950 . S
H563 C572 0.950 . S
H564 C574 0.950 . S
H565 C576 0.950 . S
H566 C578 0.950 . S
H567 C579 0.950 . S
C568 H560 0.950 . S
C568 C569 1.386 . S
C568 C570 1.391 . S
C569 C568 1.386 . S
C569 C573 1.393 . S
C570 H562 0.950 . S
C570 C568 1.391 . S
C570 C571 1.400 . S
C571 C570 1.400 . S
C571 C572 1.398 . S
C571 C577 1.491 . S
C572 H563 0.950 . S
C572 C571 1.398 . S
C572 C573 1.391 . S
C573 H561 0.950 . S
C573 C569 1.393 . S
C573 C572 1.391 . S
C574 H564 0.950 . S
C574 C575 1.386 . S
C574 C576 1.391 . S
C575 C574 1.386 . S
C575 C579 1.393 . S
C576 H565 0.950 . S
C576 C574 1.391 . S
C576 C577 1.400 . S
C577 C571 1.491 . S
C577 C576 1.400 . S
C577 C578 1.398 . S
C578 H566 0.950 . S
C578 C577 1.398 . S
C578 C579 1.391 . S
C579 H567 0.950 . S
C579 C575 1.393 . S
C579 C578 1.391 . S
H580 C588 0.950 . S
H581 C593 0.950 . S
H582 C590 0.950 . S
H583 C592 0.950 . S
H584 C594 0.950 . S
H585 C596 0.950 . S
H586 C598 0.975 . S
H587 C599 0.950 . S
C588 H580 0.950 . S
C588 C589 1.386 . S
C588 C590 1.391 . S
C589 C588 1.386 . S
C589 C593 1.393 . S
C590 H582 0.950 . S
C590 C588 1.391 . S
C590 C591 1.400 . S
C591 C590 1.400 . S
C591 C592 1.398 . S
C591 C597 1.491 1_655 S
C592 H583 0.950 . S
C592 C591 1.398 . S
C592 C593 1.391 . S
C593 H581 0.950 . S
C593 C589 1.393 . S
C593 C592 1.391 . S
C594 H584 0.950 . S
C594 C595 1.386 . S
C594 C596 1.391 . S
C595 C594 1.386 . S
C595 C599 1.393 . S
C596 H585 0.950 . S
C596 C594 1.391 . S
C596 C597 1.400 . S
C597 C591 1.491 1_455 S
C597 C596 1.400 . S
C597 C598 1.398 . S
C598 H586 0.975 . S
C598 C597 1.398 . S
C598 C599 1.391 . S
C599 H587 0.950 . S
C599 C595 1.393 . S
C599 C598 1.391 . S
H600 C608 0.950 . S
H601 C613 0.950 . S
H602 C610 0.950 . S
H603 C612 0.950 . S
H604 C614 0.950 . S
H605 C616 0.950 . S
H606 C618 0.950 . S
H607 C619 0.950 . S
C608 H600 0.950 . S
C608 C609 1.386 . S
C608 C610 1.391 . S
C609 C608 1.386 . S
C609 C613 1.393 . S
C610 H602 0.950 . S
C610 C608 1.391 . S
C610 C611 1.400 . S
C611 C610 1.400 . S
C611 C612 1.398 . S
C611 C617 1.491 1_455 S
C612 H603 0.950 . S
C612 C611 1.398 . S
C612 C613 1.391 . S
C613 H601 0.950 . S
C613 C609 1.393 . S
C613 C612 1.391 . S
C614 H604 0.950 . S
C614 C615 1.386 . S
C614 C616 1.391 . S
C615 C614 1.386 . S
C615 C619 1.393 . S
C616 H605 0.950 . S
C616 C614 1.391 . S
C616 C617 1.400 . S
C617 C611 1.491 1_655 S
C617 C616 1.400 . S
C617 C618 1.398 . S
C618 H606 0.950 . S
C618 C617 1.398 . S
C618 C619 1.391 . S
C619 H607 0.950 . S
C619 C615 1.393 . S
C619 C618 1.391 . S
H620 C628 0.950 . S
H621 C633 0.950 . S
H622 C630 0.950 . S
H623 C632 0.950 . S
H624 C634 0.950 . S
H625 C636 0.950 . S
H626 C638 0.950 . S
H627 C639 0.950 . S
C628 H620 0.950 . S
C628 C629 1.386 . S
C628 C630 1.391 . S
C629 C628 1.386 . S
C629 C633 1.393 . S
C630 H622 0.950 . S
C630 C628 1.391 . S
C630 C631 1.400 . S
C631 C630 1.400 . S
C631 C632 1.398 . S
C631 C637 1.491 1_565 S
C632 H623 0.950 . S
C632 C631 1.398 . S
C632 C633 1.391 . S
C633 H621 0.950 . S
C633 C629 1.393 . S
C633 C632 1.391 . S
C634 H624 0.950 . S
C634 C635 1.386 . S
C634 C636 1.391 . S
C635 C634 1.386 . S
C635 C639 1.393 . S
C636 H625 0.950 . S
C636 C634 1.391 . S
C636 C637 1.400 . S
C637 C631 1.491 1_545 S
C637 C636 1.400 . S
C637 C638 1.398 . S
C638 H626 0.950 . S
C638 C637 1.398 . S
C638 C639 1.391 . S
C639 H627 0.950 . S
C639 C635 1.393 . S
C639 C638 1.391 . S
H640 C648 0.950 . S
H641 C653 0.950 . S
H642 C650 0.950 . S
H643 C652 0.950 . S
H644 C654 0.950 . S
H645 C656 0.950 . S
H646 C658 0.950 . S
H647 C659 0.950 . S
C648 H640 0.950 . S
C648 C649 1.386 . S
C648 C650 1.391 . S
C649 C648 1.386 . S
C649 C653 1.393 . S
C650 H642 0.950 . S
C650 C648 1.391 . S
C650 C651 1.400 . S
C651 C650 1.400 . S
C651 C652 1.398 . S
C651 C657 1.491 . S
C652 H643 0.950 . S
C652 C651 1.398 . S
C652 C653 1.391 . S
C653 H641 0.950 . S
C653 C649 1.393 . S
C653 C652 1.391 . S
C654 H644 0.950 . S
C654 C655 1.386 . S
C654 C656 1.391 . S
C655 C654 1.386 . S
C655 C659 1.393 . S
C656 H645 0.950 . S
C656 C654 1.391 . S
C656 C657 1.400 . S
C657 C651 1.491 . S
C657 C656 1.400 . S
C657 C658 1.398 . S
C658 H646 0.950 . S
C658 C657 1.398 . S
C658 C659 1.391 . S
C659 H647 0.950 . S
C659 C655 1.393 . S
C659 C658 1.391 . S
H660 C668 0.950 . S
H661 C673 0.950 . S
H662 C670 0.950 . S
H663 C672 0.950 . S
H664 C674 0.950 . S
H665 C676 0.950 . S
H666 C678 0.950 . S
H667 C679 0.950 . S
C668 H660 0.950 . S
C668 C669 1.386 . S
C668 C670 1.391 . S
C669 C668 1.386 . S
C669 C673 1.393 . S
C670 H662 0.950 . S
C670 C668 1.391 . S
C670 C671 1.400 . S
C671 C670 1.400 . S
C671 C672 1.398 . S
C671 C677 1.491 1_455 S
C672 H663 0.950 . S
C672 C671 1.398 . S
C672 C673 1.391 . S
C673 H661 0.950 . S
C673 C669 1.393 . S
C673 C672 1.391 . S
C674 H664 0.950 . S
C674 C675 1.386 . S
C674 C676 1.391 . S
C675 C674 1.386 . S
C675 C679 1.393 . S
C676 H665 0.950 . S
C676 C674 1.391 . S
C676 C677 1.400 . S
C677 C671 1.491 1_655 S
C677 C676 1.400 . S
C677 C678 1.398 . S
C678 H666 0.950 . S
C678 C677 1.398 . S
C678 C679 1.391 . S
C679 H667 0.950 . S
C679 C675 1.393 . S
C679 C678 1.391 . S
H680 C688 0.950 . S
H681 C693 0.950 . S
H682 C690 0.956 . S
H683 C692 0.950 . S
H684 C694 0.950 . S
H685 C696 0.950 . S
H686 C698 0.950 . S
H687 C699 0.950 . S
C688 H680 0.950 . S
C688 C689 1.386 . S
C688 C690 1.391 . S
C689 C688 1.386 . S
C689 C693 1.393 . S
C690 H682 0.956 . S
C690 C688 1.391 . S
C690 C691 1.400 . S
C691 C690 1.400 . S
C691 C692 1.398 . S
C691 C697 1.491 1_545 S
C692 H683 0.950 . S
C692 C691 1.398 . S
C692 C693 1.391 . S
C693 H681 0.950 . S
C693 C689 1.393 . S
C693 C692 1.391 . S
C694 H684 0.950 . S
C694 C695 1.386 . S
C694 C696 1.391 . S
C695 C694 1.386 . S
C695 C699 1.393 . S
C696 H685 0.950 . S
C696 C694 1.391 . S
C696 C697 1.400 . S
C697 C691 1.491 1_565 S
C697 C696 1.400 . S
C697 C698 1.398 . S
C698 H686 0.950 . S
C698 C697 1.398 . S
C698 C699 1.391 . S
C699 H687 0.950 . S
C699 C695 1.393 . S
C699 C698 1.391 . S
H700 C708 0.950 . S
H701 C713 0.950 . S
H702 C710 0.950 . S
H703 C712 0.950 . S
H704 C714 0.950 . S
H705 C716 0.950 . S
H706 C718 0.950 . S
H707 C719 0.950 . S
C708 H700 0.950 . S
C708 C709 1.386 . S
C708 C710 1.391 . S
C709 C708 1.386 . S
C709 C713 1.393 . S
C710 H702 0.950 . S
C710 C708 1.391 . S
C710 C711 1.400 . S
C711 C710 1.400 . S
C711 C712 1.398 . S
C711 C717 1.491 . S
C712 H703 0.950 . S
C712 C711 1.398 . S
C712 C713 1.391 . S
C713 H701 0.950 . S
C713 C709 1.393 . S
C713 C712 1.391 . S
C714 H704 0.950 . S
C714 C715 1.386 . S
C714 C716 1.391 . S
C715 C714 1.386 . S
C715 C719 1.393 . S
C716 H705 0.950 . S
C716 C714 1.391 . S
C716 C717 1.400 . S
C717 C711 1.491 . S
C717 C716 1.400 . S
C717 C718 1.398 . S
C718 H706 0.950 . S
C718 C717 1.398 . S
C718 C719 1.391 . S
C719 H707 0.950 . S
C719 C715 1.393 . S
C719 C718 1.391 . S
H720 C728 0.950 . S
H721 C733 0.950 . S
H722 C730 0.950 . S
H723 C732 0.950 . S
H724 C734 0.950 . S
H725 C736 0.950 . S
H726 C738 0.950 . S
H727 C739 0.950 . S
C728 H720 0.950 . S
C728 C729 1.386 . S
C728 C730 1.391 . S
C729 C728 1.386 . S
C729 C733 1.393 . S
C730 H722 0.950 . S
C730 C728 1.391 . S
C730 C731 1.400 . S
C731 C730 1.400 . S
C731 C732 1.398 . S
C731 C737 1.491 . S
C732 H723 0.950 . S
C732 C731 1.398 . S
C732 C733 1.391 . S
C733 H721 0.950 . S
C733 C729 1.393 . S
C733 C732 1.391 . S
C734 H724 0.950 . S
C734 C735 1.386 . S
C734 C736 1.391 . S
C735 C734 1.386 . S
C735 C739 1.393 . S
C736 H725 0.950 . S
C736 C734 1.391 . S
C736 C737 1.400 . S
C737 C731 1.491 . S
C737 C736 1.400 . S
C737 C738 1.398 . S
C738 H726 0.950 . S
C738 C737 1.398 . S
C738 C739 1.391 . S
C739 H727 0.950 . S
C739 C735 1.393 . S
C739 C738 1.391 . S
H740 C748 0.950 . S
H741 C753 0.950 . S
H742 C750 0.950 . S
H743 C752 0.950 . S
H744 C754 0.950 . S
H745 C756 0.950 . S
H746 C758 0.950 . S
H747 C759 0.950 . S
C748 H740 0.950 . S
C748 C749 1.386 . S
C748 C750 1.391 . S
C749 C748 1.386 . S
C749 C753 1.393 . S
C750 H742 0.950 . S
C750 C748 1.391 . S
C750 C751 1.400 . S
C751 C750 1.400 . S
C751 C752 1.398 . S
C751 C757 1.491 . S
C752 H743 0.950 . S
C752 C751 1.398 . S
C752 C753 1.391 . S
C753 H741 0.950 . S
C753 C749 1.393 . S
C753 C752 1.391 . S
C754 H744 0.950 . S
C754 C755 1.386 . S
C754 C756 1.391 . S
C755 C754 1.386 . S
C755 C759 1.393 . S
C756 H745 0.950 . S
C756 C754 1.391 . S
C756 C757 1.400 . S
C757 C751 1.491 . S
C757 C756 1.400 . S
C757 C758 1.398 . S
C758 H746 0.950 . S
C758 C757 1.398 . S
C758 C759 1.391 . S
C759 H747 0.950 . S
C759 C755 1.393 . S
C759 C758 1.391 . S
H760 C768 0.950 . S
H761 C773 0.950 . S
H762 C770 0.950 . S
H763 C772 0.950 . S
H764 C774 0.950 . S
H765 C776 0.950 . S
H766 C778 0.950 . S
H767 C779 0.950 . S
C768 H760 0.950 . S
C768 C769 1.386 . S
C768 C770 1.391 . S
C769 C768 1.386 . S
C769 C773 1.393 . S
C770 H762 0.950 . S
C770 C768 1.391 . S
C770 C771 1.400 . S
C771 C770 1.400 . S
C771 C772 1.398 . S
C771 C777 1.491 . S
C772 H763 0.950 . S
C772 C771 1.398 . S
C772 C773 1.391 . S
C773 H761 0.950 . S
C773 C769 1.393 . S
C773 C772 1.391 . S
C774 H764 0.950 . S
C774 C775 1.386 . S
C774 C776 1.391 . S
C775 C774 1.386 . S
C775 C779 1.393 . S
C776 H765 0.950 . S
C776 C774 1.391 . S
C776 C777 1.400 . S
C777 C771 1.491 . S
C777 C776 1.400 . S
C777 C778 1.398 . S
C778 H766 0.950 . S
C778 C777 1.398 . S
C778 C779 1.391 . S
C779 H767 0.950 . S
C779 C775 1.393 . S
C779 C778 1.391 . S
H780 C788 0.950 . S
H781 C793 0.950 . S
H782 C790 0.950 . S
H783 C792 0.950 . S
H784 C794 0.950 . S
H785 C796 0.950 . S
H786 C798 0.950 . S
H787 C799 0.950 . S
C788 H780 0.950 . S
C788 C789 1.386 . S
C788 C790 1.391 . S
C789 C788 1.386 . S
C789 C793 1.393 . S
C790 H782 0.950 . S
C790 C788 1.391 . S
C790 C791 1.400 . S
C791 C790 1.400 . S
C791 C792 1.398 . S
C791 C797 1.491 . S
C792 H783 0.950 . S
C792 C791 1.398 . S
C792 C793 1.391 . S
C793 H781 0.950 . S
C793 C789 1.393 . S
C793 C792 1.391 . S
C794 H784 0.950 . S
C794 C795 1.386 . S
C794 C796 1.391 . S
C795 C794 1.386 . S
C795 C799 1.393 . S
C796 H785 0.950 . S
C796 C794 1.391 . S
C796 C797 1.400 . S
C797 C791 1.491 . S
C797 C796 1.400 . S
C797 C798 1.398 . S
C798 H786 0.950 . S
C798 C797 1.398 . S
C798 C799 1.391 . S
C799 H787 0.950 . S
C799 C795 1.393 . S
C799 C798 1.391 . S
H800 C808 0.950 . S
H801 C813 0.950 . S
H802 C810 0.950 . S
H803 C812 0.950 . S
H804 C814 0.950 . S
H805 C816 0.950 . S
H806 C818 0.950 . S
H807 C819 0.950 . S
C808 H800 0.950 . S
C808 C809 1.386 . S
C808 C810 1.391 . S
C809 C808 1.386 . S
C809 C813 1.393 . S
C810 H802 0.950 . S
C810 C808 1.391 . S
C810 C811 1.400 . S
C811 C810 1.400 . S
C811 C812 1.398 . S
C811 C817 1.491 . S
C812 H803 0.950 . S
C812 C811 1.398 . S
C812 C813 1.391 . S
C813 H801 0.950 . S
C813 C809 1.393 . S
C813 C812 1.391 . S
C814 H804 0.950 . S
C814 C815 1.386 . S
C814 C816 1.391 . S
C815 C814 1.386 . S
C815 C819 1.393 . S
C816 H805 0.950 . S
C816 C814 1.391 . S
C816 C817 1.400 . S
C817 C811 1.491 . S
C817 C816 1.400 . S
C817 C818 1.398 . S
C818 H806 0.950 . S
C818 C817 1.398 . S
C818 C819 1.391 . S
C819 H807 0.950 . S
C819 C815 1.393 . S
C819 C818 1.391 . S
H820 C828 0.950 . S
H821 C833 0.950 . S
H822 C830 0.950 . S
H823 C832 0.950 . S
H824 C834 0.950 . S
H825 C836 0.950 . S
H826 C838 0.950 . S
H827 C839 0.950 . S
C828 H820 0.950 . S
C828 C829 1.386 . S
C828 C830 1.391 . S
C829 C828 1.386 . S
C829 C833 1.393 . S
C830 H822 0.950 . S
C830 C828 1.391 . S
C830 C831 1.400 . S
C831 C830 1.400 . S
C831 C832 1.398 . S
C831 C837 1.491 . S
C832 H823 0.950 . S
C832 C831 1.398 . S
C832 C833 1.391 . S
C833 H821 0.950 . S
C833 C829 1.393 . S
C833 C832 1.391 . S
C834 H824 0.950 . S
C834 C835 1.386 . S
C834 C836 1.391 . S
C835 C834 1.386 . S
C835 C839 1.393 . S
C836 H825 0.950 . S
C836 C834 1.391 . S
C836 C837 1.400 . S
C837 C831 1.491 . S
C837 C836 1.400 . S
C837 C838 1.398 . S
C838 H826 0.950 . S
C838 C837 1.398 . S
C838 C839 1.391 . S
C839 H827 0.950 . S
C839 C835 1.393 . S
C839 C838 1.391 . S
H840 C848 0.950 . S
H841 C853 0.950 . S
H842 C850 0.950 . S
H843 C852 0.950 . S
H844 C854 0.950 . S
H845 C856 0.950 . S
H846 C858 0.950 . S
H847 C859 0.950 . S
C848 H840 0.950 . S
C848 C849 1.386 . S
C848 C850 1.391 . S
C849 C848 1.386 . S
C849 C853 1.393 . S
C850 H842 0.950 . S
C850 C848 1.391 . S
C850 C851 1.400 . S
C851 C850 1.400 . S
C851 C852 1.398 . S
C851 C857 1.491 . S
C852 H843 0.950 . S
C852 C851 1.398 . S
C852 C853 1.391 . S
C853 H841 0.950 . S
C853 C849 1.393 . S
C853 C852 1.391 . S
C854 H844 0.950 . S
C854 C855 1.386 . S
C854 C856 1.391 . S
C855 C854 1.386 . S
C855 C859 1.393 . S
C856 H845 0.950 . S
C856 C854 1.391 . S
C856 C857 1.400 . S
C857 C851 1.491 . S
C857 C856 1.400 . S
C857 C858 1.398 . S
C858 H846 0.950 . S
C858 C857 1.398 . S
C858 C859 1.391 . S
C859 H847 0.950 . S
C859 C855 1.393 . S
C859 C858 1.391 . S
H860 C868 0.950 . S
H861 C873 0.950 . S
H862 C870 0.950 . S
H863 C872 0.950 . S
H864 C874 0.950 . S
H865 C876 0.950 . S
H866 C878 0.950 . S
H867 C879 0.950 . S
C868 H860 0.950 . S
C868 C869 1.386 . S
C868 C870 1.391 . S
C869 C868 1.386 . S
C869 C873 1.393 . S
C870 H862 0.950 . S
C870 C868 1.391 . S
C870 C871 1.400 . S
C871 C870 1.400 . S
C871 C872 1.398 . S
C871 C877 1.491 . S
C872 H863 0.950 . S
C872 C871 1.398 . S
C872 C873 1.391 . S
C873 H861 0.950 . S
C873 C869 1.393 . S
C873 C872 1.391 . S
C874 H864 0.950 . S
C874 C875 1.386 . S
C874 C876 1.391 . S
C875 C874 1.386 . S
C875 C879 1.393 . S
C876 H865 0.950 . S
C876 C874 1.391 . S
C876 C877 1.400 . S
C877 C871 1.491 . S
C877 C876 1.400 . S
C877 C878 1.398 . S
C878 H866 0.950 . S
C878 C877 1.398 . S
C878 C879 1.391 . S
C879 H867 0.950 . S
C879 C875 1.393 . S
C879 C878 1.391 . S
H880 C888 0.950 . S
H881 C893 0.950 . S
H882 C890 0.950 . S
H883 C892 0.950 . S
H884 C894 0.950 . S
H885 C896 0.950 . S
H886 C898 0.950 . S
H887 C899 0.950 . S
C888 H880 0.950 . S
C888 C889 1.386 . S
C888 C890 1.391 . S
C889 C888 1.386 . S
C889 C893 1.393 . S
C890 H882 0.950 . S
C890 C888 1.391 . S
C890 C891 1.400 . S
C891 C890 1.400 . S
C891 C892 1.398 . S
C891 C897 1.491 . S
C892 H883 0.950 . S
C892 C891 1.398 . S
C892 C893 1.391 . S
C893 H881 0.950 . S
C893 C889 1.393 . S
C893 C892 1.391 . S
C894 H884 0.950 . S
C894 C895 1.386 . S
C894 C896 1.391 . S
C895 C894 1.386 . S
C895 C899 1.393 . S
C896 H885 0.950 . S
C896 C894 1.391 . S
C896 C897 1.400 . S
C897 C891 1.491 . S
C897 C896 1.400 . S
C897 C898 1.398 . S
C898 H886 0.950 . S
C898 C897 1.398 . S
C898 C899 1.391 . S
C899 H887 0.950 . S
C899 C895 1.393 . S
C899 C898 1.391 . S
H900 C908 0.950 . S
H901 C913 0.950 . S
H902 C910 0.950 . S
H903 C912 0.950 . S
H904 C914 0.950 . S
H905 C916 0.950 . S
H906 C918 0.950 . S
H907 C919 0.950 . S
C908 H900 0.950 . S
C908 C909 1.386 . S
C908 C910 1.391 . S
C909 C908 1.386 . S
C909 C913 1.393 . S
C910 H902 0.950 . S
C910 C908 1.391 . S
C910 C911 1.400 . S
C911 C910 1.400 . S
C911 C912 1.398 . S
C911 C917 1.491 . S
C912 H903 0.950 . S
C912 C911 1.398 . S
C912 C913 1.391 . S
C913 H901 0.950 . S
C913 C909 1.393 . S
C913 C912 1.391 . S
C914 H904 0.950 . S
C914 C915 1.386 . S
C914 C916 1.391 . S
C915 C914 1.386 . S
C915 C919 1.393 . S
C916 H905 0.950 . S
C916 C914 1.391 . S
C916 C917 1.400 . S
C917 C911 1.491 . S
C917 C916 1.400 . S
C917 C918 1.398 . S
C918 H906 0.950 . S
C918 C917 1.398 . S
C918 C919 1.391 . S
C919 H907 0.950 . S
C919 C915 1.393 . S
C919 C918 1.391 . S
H920 C928 0.950 . S
H921 C933 0.950 . S
H922 C930 0.950 . S
H923 C932 0.950 . S
H924 C934 0.950 . S
H925 C936 0.950 . S
H926 C938 0.950 . S
H927 C939 0.950 . S
C928 H920 0.950 . S
C928 C929 1.386 . S
C928 C930 1.391 . S
C929 C928 1.386 . S
C929 C933 1.393 . S
C930 H922 0.950 . S
C930 C928 1.391 . S
C930 C931 1.400 . S
C931 C930 1.400 . S
C931 C932 1.398 . S
C931 C937 1.491 . S
C932 H923 0.950 . S
C932 C931 1.398 . S
C932 C933 1.391 . S
C933 H921 0.950 . S
C933 C929 1.393 . S
C933 C932 1.391 . S
C934 H924 0.950 . S
C934 C935 1.386 . S
C934 C936 1.391 . S
C935 C934 1.386 . S
C935 C939 1.393 . S
C936 H925 0.950 . S
C936 C934 1.391 . S
C936 C937 1.400 . S
C937 C931 1.491 . S
C937 C936 1.400 . S
C937 C938 1.398 . S
C938 H926 0.950 . S
C938 C937 1.398 . S
C938 C939 1.391 . S
C939 H927 0.950 . S
C939 C935 1.393 . S
C939 C938 1.391 . S
H940 C948 0.950 . S
H941 C953 0.950 . S
H942 C950 0.950 . S
H943 C952 0.950 . S
H944 C954 0.950 . S
H945 C956 0.950 . S
H946 C958 0.950 . S
H947 C959 0.950 . S
C948 H940 0.950 . S
C948 C949 1.386 . S
C948 C950 1.391 . S
C949 C948 1.386 . S
C949 C953 1.393 . S
C950 H942 0.950 . S
C950 C948 1.391 . S
C950 C951 1.400 . S
C951 C950 1.400 . S
C951 C952 1.398 . S
C951 C957 1.491 . S
C952 H943 0.950 . S
C952 C951 1.398 . S
C952 C953 1.391 . S
C953 H941 0.950 . S
C953 C949 1.393 . S
C953 C952 1.391 . S
C954 H944 0.950 . S
C954 C955 1.386 . S
C954 C956 1.391 . S
C955 C954 1.386 . S
C955 C959 1.393 . S
C956 H945 0.950 . S
C956 C954 1.391 . S
C956 C957 1.400 . S
C957 C951 1.491 . S
C957 C956 1.400 . S
C957 C958 1.398 . S
C958 H946 0.950 . S
C958 C957 1.398 . S
C958 C959 1.391 . S
C959 H947 0.950 . S
C959 C955 1.393 . S
C959 C958 1.391 . S
H960 C968 0.950 . S
H961 C973 0.950 . S
H962 C970 0.950 . S
H963 C972 0.950 . S
H964 C974 0.950 . S
H965 C976 0.950 . S
H966 C978 0.950 . S
H967 C979 0.950 . S
C968 H960 0.950 . S
C968 C969 1.386 . S
C968 C970 1.391 . S
C969 C968 1.386 . S
C969 C973 1.393 . S
C970 H962 0.950 . S
C970 C968 1.391 . S
C970 C971 1.400 . S
C971 C970 1.400 . S
C971 C972 1.398 . S
C971 C977 1.491 . S
C972 H963 0.950 . S
C972 C971 1.398 . S
C972 C973 1.391 . S
C973 H961 0.950 . S
C973 C969 1.393 . S
C973 C972 1.391 . S
C974 H964 0.950 . S
C974 C975 1.386 . S
C974 C976 1.391 . S
C975 C974 1.386 . S
C975 C979 1.393 . S
C976 H965 0.950 . S
C976 C974 1.391 . S
C976 C977 1.400 . S
C977 C971 1.491 . S
C977 C976 1.400 . S
C977 C978 1.398 . S
C978 H966 0.950 . S
C978 C977 1.398 . S
C978 C979 1.391 . S
C979 H967 0.950 . S
C979 C975 1.393 . S
C979 C978 1.391 . S
H980 C988 0.950 . S
H981 C993 0.950 . S
H982 C990 0.950 . S
H983 C992 0.950 . S
H984 C994 0.950 . S
H985 C996 0.950 . S
H986 C998 0.950 . S
H987 C999 0.950 . S
C988 H980 0.950 . S
C988 C989 1.386 . S
C988 C990 1.391 . S
C989 C988 1.386 . S
C989 C993 1.393 . S
C990 H982 0.950 . S
C990 C988 1.391 . S
C990 C991 1.400 . S
C991 C990 1.400 . S
C991 C992 1.398 . S
C991 C997 1.491 . S
C992 H983 0.950 . S
C992 C991 1.398 . S
C992 C993 1.391 . S
C993 H981 0.950 . S
C993 C989 1.393 . S
C993 C992 1.391 . S
C994 H984 0.950 . S
C994 C995 1.386 . S
C994 C996 1.391 . S
C995 C994 1.386 . S
C995 C999 1.393 . S
C996 H985 0.950 . S
C996 C994 1.391 . S
C996 C997 1.400 . S
C997 C991 1.491 . S
C997 C996 1.400 . S
C997 C998 1.398 . S
C998 H986 0.950 . S
C998 C997 1.398 . S
C998 C999 1.391 . S
C999 H987 0.950 . S
C999 C995 1.393 . S
C999 C998 1.391 . S
H1000 C1008 0.950 . S
H1001 C1013 0.950 . S
H1002 C1010 0.950 . S
H1003 C1012 0.950 . S
H1004 C1014 0.950 . S
H1005 C1016 0.950 . S
H1006 C1018 0.950 . S
H1007 C1019 0.950 . S
C1008 H1000 0.950 . S
C1008 C1009 1.386 . S
C1008 C1010 1.391 . S
C1009 C1008 1.386 . S
C1009 C1013 1.393 . S
C1010 H1002 0.950 . S
C1010 C1008 1.391 . S
C1010 C1011 1.400 . S
C1011 C1010 1.400 . S
C1011 C1012 1.398 . S
C1011 C1017 1.491 . S
C1012 H1003 0.950 . S
C1012 C1011 1.398 . S
C1012 C1013 1.391 . S
C1013 H1001 0.950 . S
C1013 C1009 1.393 . S
C1013 C1012 1.391 . S
C1014 H1004 0.950 . S
C1014 C1015 1.386 . S
C1014 C1016 1.391 . S
C1015 C1014 1.386 . S
C1015 C1019 1.393 . S
C1016 H1005 0.950 . S
C1016 C1014 1.391 . S
C1016 C1017 1.400 . S
C1017 C1011 1.491 . S
C1017 C1016 1.400 . S
C1017 C1018 1.398 . S
C1018 H1006 0.950 . S
C1018 C1017 1.398 . S
C1018 C1019 1.391 . S
C1019 H1007 0.950 . S
C1019 C1015 1.393 . S
C1019 C1018 1.391 . S
H1020 C1028 0.950 . S
H1021 C1033 0.950 . S
H1022 C1030 0.950 . S
H1023 C1032 0.950 . S
H1024 C1034 0.950 . S
H1025 C1036 0.950 . S
H1026 C1038 0.950 . S
H1027 C1039 0.950 . S
C1028 H1020 0.950 . S
C1028 C1029 1.386 . S
C1028 C1030 1.391 . S
C1029 C1028 1.386 . S
C1029 C1033 1.393 . S
C1030 H1022 0.950 . S
C1030 C1028 1.391 . S
C1030 C1031 1.400 . S
C1031 C1030 1.400 . S
C1031 C1032 1.398 . S
C1031 C1037 1.491 . S
C1032 H1023 0.950 . S
C1032 C1031 1.398 . S
C1032 C1033 1.391 . S
C1033 H1021 0.950 . S
C1033 C1029 1.393 . S
C1033 C1032 1.391 . S
C1034 H1024 0.950 . S
C1034 C1035 1.386 . S
C1034 C1036 1.391 . S
C1035 C1034 1.386 . S
C1035 C1039 1.393 . S
C1036 H1025 0.950 . S
C1036 C1034 1.391 . S
C1036 C1037 1.400 . S
C1037 C1031 1.491 . S
C1037 C1036 1.400 . S
C1037 C1038 1.398 . S
C1038 H1026 0.950 . S
C1038 C1037 1.398 . S
C1038 C1039 1.391 . S
C1039 H1027 0.950 . S
C1039 C1035 1.393 . S
C1039 C1038 1.391 . S
H1040 C1048 0.950 . S
H1041 C1053 0.950 . S
H1042 C1050 0.950 . S
H1043 C1052 0.950 . S
H1044 C1054 0.950 . S
H1045 C1056 0.950 . S
H1046 C1058 0.950 . S
H1047 C1059 0.950 . S
C1048 H1040 0.950 . S
C1048 C1049 1.386 . S
C1048 C1050 1.391 . S
C1049 C1048 1.386 . S
C1049 C1053 1.393 . S
C1050 H1042 0.950 . S
C1050 C1048 1.391 . S
C1050 C1051 1.400 . S
C1051 C1050 1.400 . S
C1051 C1052 1.398 . S
C1051 C1057 1.491 . S
C1052 H1043 0.950 . S
C1052 C1051 1.398 . S
C1052 C1053 1.391 . S
C1053 H1041 0.950 . S
C1053 C1049 1.393 . S
C1053 C1052 1.391 . S
C1054 H1044 0.950 . S
C1054 C1055 1.386 . S
C1054 C1056 1.391 . S
C1055 C1054 1.386 . S
C1055 C1059 1.393 . S
C1056 H1045 0.950 . S
C1056 C1054 1.391 . S
C1056 C1057 1.400 . S
C1057 C1051 1.491 . S
C1057 C1056 1.400 . S
C1057 C1058 1.398 . S
C1058 H1046 0.950 . S
C1058 C1057 1.398 . S
C1058 C1059 1.391 . S
C1059 H1047 0.950 . S
C1059 C1055 1.393 . S
C1059 C1058 1.391 . S
H1060 C1068 0.950 . S
H1061 C1073 0.950 . S
H1062 C1070 0.950 . S
H1063 C1072 0.950 . S
H1064 C1074 0.950 . S
H1065 C1076 0.950 . S
H1066 C1078 0.950 . S
H1067 C1079 0.950 . S
C1068 H1060 0.950 . S
C1068 C1069 1.386 . S
C1068 C1070 1.391 . S
C1069 C1068 1.386 . S
C1069 C1073 1.393 . S
C1070 H1062 0.950 . S
C1070 C1068 1.391 . S
C1070 C1071 1.400 . S
C1071 C1070 1.400 . S
C1071 C1072 1.398 . S
C1071 C1077 1.491 . S
C1072 H1063 0.950 . S
C1072 C1071 1.398 . S
C1072 C1073 1.391 . S
C1073 H1061 0.950 . S
C1073 C1069 1.393 . S
C1073 C1072 1.391 . S
C1074 H1064 0.950 . S
C1074 C1075 1.386 . S
C1074 C1076 1.391 . S
C1075 C1074 1.386 . S
C1075 C1079 1.393 . S
C1076 H1065 0.950 . S
C1076 C1074 1.391 . S
C1076 C1077 1.400 . S
C1077 C1071 1.491 . S
C1077 C1076 1.400 . S
C1077 C1078 1.398 . S
C1078 H1066 0.950 . S
C1078 C1077 1.398 . S
C1078 C1079 1.391 . S
C1079 H1067 0.950 . S
C1079 C1075 1.393 . S
C1079 C1078 1.391 . S
H1080 C1088 0.950 . S
H1081 C1093 0.950 . S
H1082 C1090 0.950 . S
H1083 C1092 0.950 1_554 S
H1084 C1094 0.950 . S
H1085 C1096 0.950 . S
H1086 C1098 0.950 1_556 S
H1087 C1099 0.950 . S
C1088 H1080 0.950 . S
C1088 C1089 1.386 . S
C1088 C1090 1.391 . S
C1089 C1088 1.386 . S
C1089 C1093 1.393 . S
C1090 H1082 0.950 . S
C1090 C1088 1.391 . S
C1090 C1091 1.400 . S
C1091 C1090 1.400 . S
C1091 C1092 1.398 . S
C1091 C1097 1.491 1_556 S
C1092 H1083 0.950 1_556 S
C1092 C1091 1.398 . S
C1092 C1093 1.391 . S
C1093 H1081 0.950 . S
C1093 C1089 1.393 . S
C1093 C1092 1.391 . S
C1094 H1084 0.950 . S
C1094 C1095 1.386 . S
C1094 C1096 1.391 . S
C1095 C1094 1.386 . S
C1095 C1099 1.393 . S
C1096 H1085 0.950 . S
C1096 C1094 1.391 . S
C1096 C1097 1.400 . S
C1097 C1091 1.491 1_554 S
C1097 C1096 1.400 . S
C1097 C1098 1.398 . S
C1098 H1086 0.950 1_554 S
C1098 C1097 1.398 . S
C1098 C1099 1.391 . S
C1099 H1087 0.950 . S
C1099 C1095 1.393 . S
C1099 C1098 1.391 . S
H1100 C1108 0.950 . S
H1101 C1113 0.950 . S
H1102 C1110 0.950 . S
H1103 C1112 0.950 . S
H1104 C1114 0.950 . S
H1105 C1116 0.950 . S
H1106 C1118 0.950 . S
H1107 C1119 0.950 . S
C1108 H1100 0.950 . S
C1108 C1109 1.386 . S
C1108 C1110 1.391 . S
C1109 C1108 1.386 . S
C1109 C1113 1.393 . S
C1110 H1102 0.950 . S
C1110 C1108 1.391 . S
C1110 C1111 1.400 . S
C1111 C1110 1.400 . S
C1111 C1112 1.398 . S
C1111 C1117 1.491 1_455 S
C1112 H1103 0.950 . S
C1112 C1111 1.398 . S
C1112 C1113 1.391 . S
C1113 H1101 0.950 . S
C1113 C1109 1.393 . S
C1113 C1112 1.391 . S
C1114 H1104 0.950 . S
C1114 C1115 1.386 . S
C1114 C1116 1.391 . S
C1115 C1114 1.386 . S
C1115 C1119 1.393 . S
C1116 H1105 0.950 . S
C1116 C1114 1.391 . S
C1116 C1117 1.400 . S
C1117 C1111 1.491 1_655 S
C1117 C1116 1.400 . S
C1117 C1118 1.398 . S
C1118 H1106 0.950 . S
C1118 C1117 1.398 . S
C1118 C1119 1.391 . S
C1119 H1107 0.950 . S
C1119 C1115 1.393 . S
C1119 C1118 1.391 . S
H1120 C1128 0.950 . S
H1121 C1133 0.950 . S
H1122 C1130 0.963 . S
H1123 C1132 0.950 1_556 S
H1124 C1134 0.950 . S
H1125 C1136 0.963 . S
H1126 C1138 0.950 1_554 S
H1127 C1139 0.950 . S
C1128 H1120 0.950 . S
C1128 C1129 1.386 . S
C1128 C1130 1.391 . S
C1129 C1128 1.386 . S
C1129 C1133 1.393 . S
C1130 H1122 0.963 . S
C1130 C1128 1.391 . S
C1130 C1131 1.400 . S
C1131 C1130 1.400 . S
C1131 C1132 1.398 . S
C1131 C1137 1.491 1_564 S
C1132 H1123 0.950 1_554 S
C1132 C1131 1.398 . S
C1132 C1133 1.391 . S
C1133 H1121 0.950 . S
C1133 C1129 1.393 . S
C1133 C1132 1.391 . S
C1134 H1124 0.950 . S
C1134 C1135 1.386 . S
C1134 C1136 1.391 . S
C1135 C1134 1.386 . S
C1135 C1139 1.393 . S
C1136 H1125 0.963 . S
C1136 C1134 1.391 . S
C1136 C1137 1.400 . S
C1137 C1131 1.491 1_546 S
C1137 C1136 1.400 . S
C1137 C1138 1.398 . S
C1138 H1126 0.950 1_556 S
C1138 C1137 1.398 . S
C1138 C1139 1.391 . S
C1139 H1127 0.950 . S
C1139 C1135 1.393 . S
C1139 C1138 1.391 . S
H1140 C1148 0.950 . S
H1141 C1153 0.950 . S
H1142 C1150 0.950 . S
H1143 C1152 0.950 . S
H1144 C1154 0.950 . S
H1145 C1156 0.950 . S
H1146 C1158 0.950 . S
H1147 C1159 0.950 . S
C1148 H1140 0.950 . S
C1148 C1149 1.386 . S
C1148 C1150 1.391 . S
C1149 C1148 1.386 . S
C1149 C1153 1.393 . S
C1150 H1142 0.950 . S
C1150 C1148 1.391 . S
C1150 C1151 1.400 . S
C1151 C1150 1.400 . S
C1151 C1152 1.398 . S
C1151 C1157 1.491 . S
C1152 H1143 0.950 . S
C1152 C1151 1.398 . S
C1152 C1153 1.391 . S
C1153 H1141 0.950 . S
C1153 C1149 1.393 . S
C1153 C1152 1.391 . S
C1154 H1144 0.950 . S
C1154 C1155 1.386 . S
C1154 C1156 1.391 . S
C1155 C1154 1.386 . S
C1155 C1159 1.393 . S
C1156 H1145 0.950 . S
C1156 C1154 1.391 . S
C1156 C1157 1.400 . S
C1157 C1151 1.491 . S
C1157 C1156 1.400 . S
C1157 C1158 1.398 . S
C1158 H1146 0.950 . S
C1158 C1157 1.398 . S
C1158 C1159 1.391 . S
C1159 H1147 0.950 . S
C1159 C1155 1.393 . S
C1159 C1158 1.391 . S
H1160 C1168 0.950 . S
H1161 C1173 0.950 . S
H1162 C1170 0.950 . S
H1163 C1172 0.950 . S
H1164 C1174 0.950 . S
H1165 C1176 0.950 . S
H1166 C1178 0.950 . S
H1167 C1179 0.950 . S
C1168 H1160 0.950 . S
C1168 C1169 1.386 . S
C1168 C1170 1.391 . S
C1169 C1168 1.386 . S
C1169 C1173 1.393 . S
C1170 H1162 0.950 . S
C1170 C1168 1.391 . S
C1170 C1171 1.400 . S
C1171 C1170 1.400 . S
C1171 C1172 1.398 . S
C1171 C1177 1.491 1_656 S
C1172 H1163 0.950 . S
C1172 C1171 1.398 . S
C1172 C1173 1.391 . S
C1173 H1161 0.950 . S
C1173 C1169 1.393 . S
C1173 C1172 1.391 . S
C1174 H1164 0.950 . S
C1174 C1175 1.386 . S
C1174 C1176 1.391 . S
C1175 C1174 1.386 . S
C1175 C1179 1.393 . S
C1176 H1165 0.950 . S
C1176 C1174 1.391 . S
C1176 C1177 1.400 . S
C1177 C1171 1.491 1_454 S
C1177 C1176 1.400 . S
C1177 C1178 1.398 . S
C1178 H1166 0.950 . S
C1178 C1177 1.398 . S
C1178 C1179 1.391 . S
C1179 H1167 0.950 . S
C1179 C1175 1.393 . S
C1179 C1178 1.391 . S
H1180 C1188 0.950 . S
H1181 C1193 0.950 . S
H1182 C1190 0.950 . S
H1183 C1192 0.950 . S
H1184 C1194 0.950 . S
H1185 C1196 0.950 . S
H1186 C1198 0.950 . S
H1187 C1199 0.950 . S
C1188 H1180 0.950 . S
C1188 C1189 1.386 . S
C1188 C1190 1.391 . S
C1189 C1188 1.386 . S
C1189 C1193 1.393 . S
C1190 H1182 0.950 . S
C1190 C1188 1.391 . S
C1190 C1191 1.400 . S
C1191 C1190 1.400 . S
C1191 C1192 1.398 . S
C1191 C1197 1.491 1_565 S
C1192 H1183 0.950 . S
C1192 C1191 1.398 . S
C1192 C1193 1.391 . S
C1193 H1181 0.950 . S
C1193 C1189 1.393 . S
C1193 C1192 1.391 . S
C1194 H1184 0.950 . S
C1194 C1195 1.386 . S
C1194 C1196 1.391 . S
C1195 C1194 1.386 . S
C1195 C1199 1.393 . S
C1196 H1185 0.950 . S
C1196 C1194 1.391 . S
C1196 C1197 1.400 . S
C1197 C1191 1.491 1_545 S
C1197 C1196 1.400 . S
C1197 C1198 1.398 . S
C1198 H1186 0.950 . S
C1198 C1197 1.398 . S
C1198 C1199 1.391 . S
C1199 H1187 0.950 . S
C1199 C1195 1.393 . S
C1199 C1198 1.391 . S
C489 C179 1.269 . S
C495 C15 1.318 . S
C509 C219 1.259 . S
C515 C55 1.315 . S
C529 C95 1.303 . S
C535 C19 1.247 . S
C549 C135 1.303 . S
C555 C59 1.242 . S
C569 C175 1.319 . S
C575 C99 1.276 . S
C589 C139 1.243 . S
C595 C215 1.306 . S
C609 C339 1.271 . S
C615 C255 1.319 . S
C629 C295 1.316 . S
C635 C379 1.275 . S
C649 C419 1.269 . S
C655 C335 1.312 . S
C669 C375 1.308 . S
C675 C459 1.261 . S
C689 C415 1.303 . S
C695 C259 1.245 . S
C709 C299 1.271 . S
C715 C455 1.314 . S
C729 C170 1.752 . S
C735 C6 1.763 . S
C749 C46 1.754 . S
C755 C210 1.757 . S
C769 C86 1.768 . S
C775 C10 1.757 . S
C789 C126 1.768 . S
C795 C50 1.768 . S
C809 C90 1.764 . S
C815 C166 1.759 . S
C829 C130 1.749 . S
C835 C206 1.754 . S
C849 C330 1.749 . S
C855 C246 1.758 . S
C869 C286 1.766 . S
C875 C370 1.768 . S
C889 C326 1.757 . S
C895 C410 1.749 . S
C909 C450 1.765 . S
C915 C366 1.771 . S
C929 C406 1.766 . S
C935 C250 1.754 . S
C949 C290 1.767 . S
C955 C446 1.763 . S
C969 C418 1.606 . S
C975 C18 1.621 . S
C989 C58 1.602 . S
C995 C458 1.610 . S
C1009 C98 1.610 . S
C1015 C258 1.602 . S
C1029 C138 1.606 . S
C1035 C298 1.603 . S
C1049 C178 1.613 . S
C1055 C338 1.603 . S
C1069 C378 1.604 . S
C1075 C218 1.617 . S
C1089 C369 2.245 . S
C1095 C9 2.246 . S
C1109 C409 2.245 . S
C1115 C49 2.246 . S
C1129 C89 2.245 . S
C1135 C449 2.246 . S
C1149 C129 2.241 . S
C1155 C249 2.241 . S
C1169 C289 2.246 . S
C1175 C169 2.246 . S
C1189 C329 2.241 . S
C1195 C209 2.241 . S
