# Generated by pormake.
# Topology mer, (4)-cn, num edge types: 1
# Building blocks:
#     Node 0, Type 0, BuildingBlock: GALJAG_clean_sbu_0, # of connection points: 4
#     Node 1, Type 0, BuildingBlock: GALJAG_clean_sbu_0, # of connection points: 4
#     Node 2, Type 0, BuildingBlock: GALJAG_clean_sbu_0, # of connection points: 4
#     Node 3, Type 0, BuildingBlock: GALJAG_clean_sbu_0, # of connection points: 4
#     Node 4, Type 0, BuildingBlock: GALJAG_clean_sbu_0, # of connection points: 4
#     Node 5, Type 0, BuildingBlock: GALJAG_clean_sbu_0, # of connection points: 4
#     Node 6, Type 0, BuildingBlock: GALJAG_clean_sbu_0, # of connection points: 4
#     Node 7, Type 0, BuildingBlock: GALJAG_clean_sbu_0, # of connection points: 4
#     Node 8, Type 0, BuildingBlock: GALJAG_clean_sbu_0, # of connection points: 4
#     Node 9, Type 0, BuildingBlock: GALJAG_clean_sbu_0, # of connection points: 4
#     Node 10, Type 0, BuildingBlock: GALJAG_clean_sbu_0, # of connection points: 4
#     Node 11, Type 0, BuildingBlock: GALJAG_clean_sbu_0, # of connection points: 4
#     Node 12, Type 0, BuildingBlock: GALJAG_clean_sbu_0, # of connection points: 4
#     Node 13, Type 0, BuildingBlock: GALJAG_clean_sbu_0, # of connection points: 4
#     Node 14, Type 0, BuildingBlock: GALJAG_clean_sbu_0, # of connection points: 4
#     Node 15, Type 0, BuildingBlock: GALJAG_clean_sbu_0, # of connection points: 4
#     Node 16, Type 0, BuildingBlock: GALJAG_clean_sbu_0, # of connection points: 4
#     Node 17, Type 0, BuildingBlock: GALJAG_clean_sbu_0, # of connection points: 4
#     Node 18, Type 0, BuildingBlock: GALJAG_clean_sbu_0, # of connection points: 4
#     Node 19, Type 0, BuildingBlock: GALJAG_clean_sbu_0, # of connection points: 4
#     Node 20, Type 0, BuildingBlock: GALJAG_clean_sbu_0, # of connection points: 4
#     Node 21, Type 0, BuildingBlock: GALJAG_clean_sbu_0, # of connection points: 4
#     Node 22, Type 0, BuildingBlock: GALJAG_clean_sbu_0, # of connection points: 4
#     Node 23, Type 0, BuildingBlock: GALJAG_clean_sbu_0, # of connection points: 4
#     Node 24, Type 0, BuildingBlock: GALJAG_clean_sbu_0, # of connection points: 4
#     Node 25, Type 0, BuildingBlock: GALJAG_clean_sbu_0, # of connection points: 4
#     Node 26, Type 0, BuildingBlock: GALJAG_clean_sbu_0, # of connection points: 4
#     Node 27, Type 0, BuildingBlock: GALJAG_clean_sbu_0, # of connection points: 4
#     Node 28, Type 0, BuildingBlock: GALJAG_clean_sbu_0, # of connection points: 4
#     Node 29, Type 0, BuildingBlock: GALJAG_clean_sbu_0, # of connection points: 4
#     Node 30, Type 0, BuildingBlock: GALJAG_clean_sbu_0, # of connection points: 4
#     Node 31, Type 0, BuildingBlock: GALJAG_clean_sbu_0, # of connection points: 4
#     Edge 32, Type (0, 0), BuildingBlock: XIVTED_clean_linker_0, # of connection points: 2
#     Edge 33, Type (0, 0), BuildingBlock: XIVTED_clean_linker_0, # of connection points: 2
#     Edge 34, Type (0, 0), BuildingBlock: XIVTED_clean_linker_0, # of connection points: 2
#     Edge 35, Type (0, 0), BuildingBlock: XIVTED_clean_linker_0, # of connection points: 2
#     Edge 36, Type (0, 0), BuildingBlock: XIVTED_clean_linker_0, # of connection points: 2
#     Edge 37, Type (0, 0), BuildingBlock: XIVTED_clean_linker_0, # of connection points: 2
#     Edge 38, Type (0, 0), BuildingBlock: XIVTED_clean_linker_0, # of connection points: 2
#     Edge 39, Type (0, 0), BuildingBlock: XIVTED_clean_linker_0, # of connection points: 2
#     Edge 40, Type (0, 0), BuildingBlock: XIVTED_clean_linker_0, # of connection points: 2
#     Edge 41, Type (0, 0), BuildingBlock: XIVTED_clean_linker_0, # of connection points: 2
#     Edge 42, Type (0, 0), BuildingBlock: XIVTED_clean_linker_0, # of connection points: 2
#     Edge 43, Type (0, 0), BuildingBlock: XIVTED_clean_linker_0, # of connection points: 2
#     Edge 44, Type (0, 0), BuildingBlock: XIVTED_clean_linker_0, # of connection points: 2
#     Edge 45, Type (0, 0), BuildingBlock: XIVTED_clean_linker_0, # of connection points: 2
#     Edge 46, Type (0, 0), BuildingBlock: XIVTED_clean_linker_0, # of connection points: 2
#     Edge 47, Type (0, 0), BuildingBlock: XIVTED_clean_linker_0, # of connection points: 2
#     Edge 48, Type (0, 0), BuildingBlock: XIVTED_clean_linker_0, # of connection points: 2
#     Edge 49, Type (0, 0), BuildingBlock: XIVTED_clean_linker_0, # of connection points: 2
#     Edge 50, Type (0, 0), BuildingBlock: XIVTED_clean_linker_0, # of connection points: 2
#     Edge 51, Type (0, 0), BuildingBlock: XIVTED_clean_linker_0, # of connection points: 2
#     Edge 52, Type (0, 0), BuildingBlock: XIVTED_clean_linker_0, # of connection points: 2
#     Edge 53, Type (0, 0), BuildingBlock: XIVTED_clean_linker_0, # of connection points: 2
#     Edge 54, Type (0, 0), BuildingBlock: XIVTED_clean_linker_0, # of connection points: 2
#     Edge 55, Type (0, 0), BuildingBlock: XIVTED_clean_linker_0, # of connection points: 2
#     Edge 56, Type (0, 0), BuildingBlock: XIVTED_clean_linker_0, # of connection points: 2
#     Edge 57, Type (0, 0), BuildingBlock: XIVTED_clean_linker_0, # of connection points: 2
#     Edge 58, Type (0, 0), BuildingBlock: XIVTED_clean_linker_0, # of connection points: 2
#     Edge 59, Type (0, 0), BuildingBlock: XIVTED_clean_linker_0, # of connection points: 2
#     Edge 60, Type (0, 0), BuildingBlock: XIVTED_clean_linker_0, # of connection points: 2
#     Edge 61, Type (0, 0), BuildingBlock: XIVTED_clean_linker_0, # of connection points: 2
#     Edge 62, Type (0, 0), BuildingBlock: XIVTED_clean_linker_0, # of connection points: 2
#     Edge 63, Type (0, 0), BuildingBlock: XIVTED_clean_linker_0, # of connection points: 2
#     Edge 64, Type (0, 0), BuildingBlock: XIVTED_clean_linker_0, # of connection points: 2
#     Edge 65, Type (0, 0), BuildingBlock: XIVTED_clean_linker_0, # of connection points: 2
#     Edge 66, Type (0, 0), BuildingBlock: XIVTED_clean_linker_0, # of connection points: 2
#     Edge 67, Type (0, 0), BuildingBlock: XIVTED_clean_linker_0, # of connection points: 2
#     Edge 68, Type (0, 0), BuildingBlock: XIVTED_clean_linker_0, # of connection points: 2
#     Edge 69, Type (0, 0), BuildingBlock: XIVTED_clean_linker_0, # of connection points: 2
#     Edge 70, Type (0, 0), BuildingBlock: XIVTED_clean_linker_0, # of connection points: 2
#     Edge 71, Type (0, 0), BuildingBlock: XIVTED_clean_linker_0, # of connection points: 2
#     Edge 72, Type (0, 0), BuildingBlock: XIVTED_clean_linker_0, # of connection points: 2
#     Edge 73, Type (0, 0), BuildingBlock: XIVTED_clean_linker_0, # of connection points: 2
#     Edge 74, Type (0, 0), BuildingBlock: XIVTED_clean_linker_0, # of connection points: 2
#     Edge 75, Type (0, 0), BuildingBlock: XIVTED_clean_linker_0, # of connection points: 2
#     Edge 76, Type (0, 0), BuildingBlock: XIVTED_clean_linker_0, # of connection points: 2
#     Edge 77, Type (0, 0), BuildingBlock: XIVTED_clean_linker_0, # of connection points: 2
#     Edge 78, Type (0, 0), BuildingBlock: XIVTED_clean_linker_0, # of connection points: 2
#     Edge 79, Type (0, 0), BuildingBlock: XIVTED_clean_linker_0, # of connection points: 2
#     Edge 80, Type (0, 0), BuildingBlock: XIVTED_clean_linker_0, # of connection points: 2
#     Edge 81, Type (0, 0), BuildingBlock: XIVTED_clean_linker_0, # of connection points: 2
#     Edge 82, Type (0, 0), BuildingBlock: XIVTED_clean_linker_0, # of connection points: 2
#     Edge 83, Type (0, 0), BuildingBlock: XIVTED_clean_linker_0, # of connection points: 2
#     Edge 84, Type (0, 0), BuildingBlock: XIVTED_clean_linker_0, # of connection points: 2
#     Edge 85, Type (0, 0), BuildingBlock: XIVTED_clean_linker_0, # of connection points: 2
#     Edge 86, Type (0, 0), BuildingBlock: XIVTED_clean_linker_0, # of connection points: 2
#     Edge 87, Type (0, 0), BuildingBlock: XIVTED_clean_linker_0, # of connection points: 2
#     Edge 88, Type (0, 0), BuildingBlock: XIVTED_clean_linker_0, # of connection points: 2
#     Edge 89, Type (0, 0), BuildingBlock: XIVTED_clean_linker_0, # of connection points: 2
#     Edge 90, Type (0, 0), BuildingBlock: XIVTED_clean_linker_0, # of connection points: 2
#     Edge 91, Type (0, 0), BuildingBlock: XIVTED_clean_linker_0, # of connection points: 2
#     Edge 92, Type (0, 0), BuildingBlock: XIVTED_clean_linker_0, # of connection points: 2
#     Edge 93, Type (0, 0), BuildingBlock: XIVTED_clean_linker_0, # of connection points: 2
#     Edge 94, Type (0, 0), BuildingBlock: XIVTED_clean_linker_0, # of connection points: 2
#     Edge 95, Type (0, 0), BuildingBlock: XIVTED_clean_linker_0, # of connection points: 2
# Relax obj value: 0.054
# Max RMSD: 0.080
# Mean RMSD: 0.080
data_MOF--net-mer--node1-GALJAG_clean_sbu_0--edge1-XIVTED_clean_linker_0
_symmetry_space_group_name_H-M    P1
_symmetry_Int_Tables_number       1
_symmetry_cell_setting            triclinic
loop_
_symmetry_equiv_pos_as_xyz
'x, y, z'
_cell_length_a     64.173661
_cell_length_b     64.119223
_cell_length_c     54.865535
_cell_angle_alpha  89.986099
_cell_angle_beta   89.953164
_cell_angle_gamma 90.026238
loop_
_atom_site_label
_atom_site_type_symbol
_atom_site_fract_x
_atom_site_fract_y
_atom_site_fract_z
_atom_type_partial_charge
In0 In 0.11437 0.27904 0.35711 0.0
O1 O 0.12738 0.30926 0.34107 0.0
O2 O 0.11037 0.28893 0.31775 0.0
C3 C 0.12277 0.28323 0.40499 0.0
C4 C 0.14228 0.24956 0.34498 0.0
C5 C 0.07262 0.27586 0.35843 0.0
O6 O 0.12219 0.29879 0.39086 0.0
O7 O 0.11922 0.26594 0.3949 0.0
O8 O 0.08403 0.26132 0.35049 0.0
O9 O 0.0823 0.29185 0.36558 0.0
C10 C 0.12051 0.30568 0.31989 0.0
O11 O 0.12306 0.24563 0.34699 0.0
O12 O 0.14726 0.26831 0.34889 0.0
In13 In 0.69718 0.11445 0.36123 0.0
O14 O 0.73255 0.11964 0.36127 0.0
O15 O 0.71294 0.14418 0.34887 0.0
C16 C 0.70368 0.0732 0.35792 0.0
C17 C 0.67343 0.12311 0.32215 0.0
C18 C 0.68251 0.12206 0.40686 0.0
O19 O 0.71728 0.08531 0.36673 0.0
O20 O 0.68708 0.08194 0.35113 0.0
O21 O 0.67788 0.10589 0.39507 0.0
O22 O 0.69395 0.13463 0.39542 0.0
C23 C 0.73125 0.13796 0.35291 0.0
O24 O 0.66798 0.12834 0.34345 0.0
O25 O 0.6906 0.11367 0.32085 0.0
In26 In 0.87849 0.71288 0.36199 0.0
O27 O 0.86336 0.68492 0.34324 0.0
O28 O 0.8711 0.71142 0.32168 0.0
C29 C 0.88256 0.69935 0.40813 0.0
C30 C 0.85156 0.74466 0.36824 0.0
C31 C 0.91901 0.71435 0.35038 0.0
O32 O 0.87056 0.69037 0.3932 0.0
O33 O 0.89226 0.71485 0.39972 0.0
O34 O 0.90826 0.73068 0.35331 0.0
O35 O 0.9092 0.69742 0.35303 0.0
C36 C 0.86357 0.69327 0.32239 0.0
O37 O 0.86958 0.74739 0.35956 0.0
O38 O 0.84724 0.72603 0.37353 0.0
In39 In 0.28638 0.87771 0.36055 0.0
O40 O 0.31607 0.86557 0.3426 0.0
O41 O 0.29502 0.88327 0.32098 0.0
C42 C 0.29247 0.86587 0.40705 0.0
C43 C 0.2562 0.85055 0.34866 0.0
C44 C 0.28264 0.91925 0.36559 0.0
O45 O 0.30759 0.86966 0.39294 0.0
O46 O 0.27471 0.86814 0.39767 0.0
O47 O 0.26847 0.90824 0.35615 0.0
O48 O 0.29853 0.90929 0.3724 0.0
C49 C 0.31184 0.87318 0.32195 0.0
O50 O 0.25249 0.86965 0.35237 0.0
O51 O 0.27512 0.84538 0.35052 0.0
In52 In 0.11343 0.71149 0.63817 0.0
O53 O 0.12322 0.74489 0.64701 0.0
O54 O 0.1469 0.7227 0.63893 0.0
C55 C 0.07222 0.7126 0.64587 0.0
C56 C 0.12387 0.68612 0.6751 0.0
C57 C 0.1139 0.70771 0.58923 0.0
O58 O 0.08366 0.72847 0.64872 0.0
O59 O 0.08161 0.69631 0.63905 0.0
O60 O 0.12003 0.69306 0.60292 0.0
O61 O 0.10773 0.72378 0.6003 0.0
C62 C 0.14245 0.74124 0.64457 0.0
O63 O 0.12747 0.68126 0.65313 0.0
O64 O 0.11508 0.70351 0.67811 0.0
In65 In 0.28475 0.11662 0.63368 0.0
O66 O 0.3146 0.12946 0.6506 0.0
O67 O 0.29509 0.11026 0.67249 0.0
C68 C 0.29011 0.12783 0.58678 0.0
C69 C 0.25463 0.1433 0.64728 0.0
C70 C 0.28063 0.07508 0.62921 0.0
O71 O 0.30539 0.12473 0.60082 0.0
O72 O 0.27248 0.12536 0.59646 0.0
O73 O 0.26668 0.08628 0.63877 0.0
O74 O 0.29653 0.08484 0.62199 0.0
C75 C 0.31147 0.12105 0.67109 0.0
O76 O 0.25108 0.12421 0.64344 0.0
O77 O 0.27337 0.1488 0.6445 0.0
In78 In 0.87682 0.27724 0.63616 0.0
O79 O 0.86833 0.24349 0.64515 0.0
O80 O 0.84401 0.26607 0.64345 0.0
C81 C 0.91861 0.27605 0.63518 0.0
C82 C 0.86976 0.30288 0.67403 0.0
C83 C 0.86886 0.28067 0.58815 0.0
O84 O 0.90788 0.26096 0.6431 0.0
O85 O 0.90823 0.29155 0.62795 0.0
O86 O 0.86819 0.29637 0.6021 0.0
O87 O 0.87348 0.26374 0.59849 0.0
C88 C 0.84904 0.24726 0.64676 0.0
O89 O 0.86344 0.30705 0.65275 0.0
O90 O 0.87981 0.28605 0.67594 0.0
In91 In 0.71232 0.88153 0.62663 0.0
O92 O 0.68575 0.88058 0.65457 0.0
O93 O 0.70996 0.85823 0.65766 0.0
C94 C 0.68634 0.87975 0.58791 0.0
C95 C 0.74783 0.86037 0.61798 0.0
C96 C 0.724 0.92135 0.63359 0.0
O97 O 0.69236 0.86366 0.59905 0.0
O98 O 0.69282 0.89664 0.59683 0.0
O99 O 0.72856 0.9114 0.61447 0.0
O100 O 0.71399 0.91105 0.64932 0.0
C101 C 0.69324 0.86539 0.66623 0.0
O102 O 0.74622 0.87348 0.63502 0.0
O103 O 0.73175 0.85838 0.60501 0.0
In104 In 0.8772 0.71348 0.63278 0.0
O105 O 0.87024 0.74835 0.63591 0.0
O106 O 0.84814 0.72913 0.61788 0.0
C107 C 0.91738 0.71346 0.64598 0.0
C108 C 0.85984 0.69482 0.67176 0.0
C109 C 0.88224 0.69903 0.58713 0.0
O110 O 0.90745 0.73012 0.64189 0.0
O111 O 0.90692 0.69689 0.64368 0.0
O112 O 0.86842 0.69171 0.60116 0.0
O113 O 0.89325 0.71332 0.5962 0.0
C114 C 0.85311 0.74721 0.62475 0.0
O115 O 0.86017 0.68627 0.65103 0.0
O116 O 0.86794 0.71269 0.67259 0.0
In117 In 0.2834 0.87782 0.63296 0.0
O118 O 0.24933 0.86991 0.6405 0.0
O119 O 0.27177 0.84549 0.64245 0.0
C120 C 0.28006 0.91942 0.62828 0.0
C121 C 0.30865 0.87293 0.67163 0.0
C122 C 0.29049 0.86649 0.58648 0.0
O123 O 0.29581 0.90933 0.62129 0.0
O124 O 0.2658 0.90852 0.63775 0.0
O125 O 0.30524 0.86956 0.60128 0.0
O126 O 0.2725 0.86916 0.59517 0.0
C127 C 0.25287 0.85077 0.64412 0.0
O128 O 0.31284 0.86536 0.65096 0.0
O129 O 0.29191 0.88316 0.67264 0.0
In130 In 0.11623 0.28068 0.63459 0.0
O131 O 0.12509 0.24749 0.64538 0.0
O132 O 0.14913 0.27036 0.64333 0.0
C133 C 0.07452 0.27747 0.63357 0.0
C134 C 0.12218 0.30772 0.67139 0.0
C135 C 0.12452 0.28387 0.58658 0.0
O136 O 0.08595 0.263 0.64162 0.0
O137 O 0.08416 0.29338 0.62608 0.0
O138 O 0.12364 0.29977 0.60015 0.0
O139 O 0.12135 0.26678 0.59728 0.0
C140 C 0.14426 0.25163 0.64752 0.0
O141 O 0.12936 0.311 0.65027 0.0
O142 O 0.11184 0.2911 0.67364 0.0
In143 In 0.70321 0.11562 0.63133 0.0
O144 O 0.67235 0.12673 0.64801 0.0
O145 O 0.69607 0.11535 0.67161 0.0
C146 C 0.68703 0.12196 0.58634 0.0
C147 C 0.73509 0.14194 0.64017 0.0
C148 C 0.7145 0.07526 0.63351 0.0
O149 O 0.6816 0.10682 0.59957 0.0
O150 O 0.7001 0.13401 0.59601 0.0
O151 O 0.72336 0.08797 0.6193 0.0
O152 O 0.70002 0.0829 0.64619 0.0
C153 C 0.678 0.12284 0.66962 0.0
O154 O 0.73801 0.12309 0.63452 0.0
O155 O 0.71625 0.14739 0.6412 0.0
In156 In 0.87494 0.27141 0.35873 0.0
O157 O 0.86614 0.23739 0.35152 0.0
O158 O 0.84225 0.26045 0.35043 0.0
C159 C 0.91678 0.26994 0.35917 0.0
C160 C 0.8679 0.29691 0.32071 0.0
C161 C 0.86696 0.27612 0.40663 0.0
O162 O 0.90591 0.25494 0.35131 0.0
O163 O 0.90651 0.28543 0.36666 0.0
O164 O 0.86685 0.29149 0.39219 0.0
O165 O 0.87099 0.25881 0.39682 0.0
C166 C 0.84702 0.24142 0.34857 0.0
O167 O 0.86153 0.3011 0.34198 0.0
O168 O 0.87798 0.2801 0.31885 0.0
In169 In 0.70605 0.87704 0.3701 0.0
O170 O 0.67834 0.86442 0.3485 0.0
O171 O 0.70695 0.86918 0.32979 0.0
C172 C 0.68593 0.87763 0.41331 0.0
C173 C 0.73948 0.85212 0.37676 0.0
C174 C 0.71029 0.91801 0.36177 0.0
O175 O 0.684 0.86269 0.39852 0.0
O176 O 0.69781 0.89205 0.40626 0.0
O177 O 0.72435 0.90743 0.37213 0.0
O178 O 0.69425 0.90786 0.35564 0.0
C179 C 0.68819 0.86348 0.32862 0.0
O180 O 0.74082 0.86965 0.36648 0.0
O181 O 0.72145 0.84739 0.38391 0.0
In182 In 0.11547 0.71282 0.35762 0.0
O183 O 0.12485 0.74628 0.34842 0.0
O184 O 0.1488 0.72445 0.35677 0.0
C185 C 0.07415 0.71349 0.35066 0.0
C186 C 0.126 0.68778 0.32038 0.0
C187 C 0.11628 0.70838 0.40648 0.0
O188 O 0.08527 0.72963 0.34823 0.0
O189 O 0.0839 0.69719 0.35665 0.0
O190 O 0.12211 0.69386 0.39245 0.0
O191 O 0.11032 0.72472 0.3958 0.0
C192 C 0.14413 0.74288 0.35088 0.0
O193 O 0.12993 0.68295 0.34227 0.0
O194 O 0.11683 0.70501 0.31758 0.0
In195 In 0.28458 0.11648 0.35984 0.0
O196 O 0.31433 0.12929 0.34255 0.0
O197 O 0.2947 0.10995 0.32101 0.0
C198 C 0.28966 0.12822 0.40659 0.0
C199 C 0.25444 0.143 0.34595 0.0
C200 C 0.28094 0.07492 0.3648 0.0
O201 O 0.30503 0.12485 0.39275 0.0
O202 O 0.27209 0.12574 0.39678 0.0
O203 O 0.26678 0.0859 0.35533 0.0
O204 O 0.29679 0.08492 0.37171 0.0
C205 C 0.31105 0.12079 0.32214 0.0
O206 O 0.25084 0.12398 0.35028 0.0
O207 O 0.27323 0.14847 0.34838 0.0
In208 In 0.61838 0.78983 0.86119 0.0
O209 O 0.62918 0.81824 0.83907 0.0
O210 O 0.63389 0.788 0.82426 0.0
C211 C 0.61523 0.80591 0.90642 0.0
C212 C 0.64201 0.75602 0.8698 0.0
C213 C 0.57833 0.7869 0.84768 0.0
O214 O 0.63015 0.81067 0.89245 0.0
O215 O 0.60219 0.79342 0.89746 0.0
O216 O 0.58897 0.77113 0.85364 0.0
O217 O 0.58806 0.80401 0.84807 0.0
C218 C 0.63588 0.80738 0.82155 0.0
O219 O 0.62448 0.75484 0.85945 0.0
O220 O 0.64742 0.77418 0.87601 0.0
In221 In 0.21619 0.61507 0.85748 0.0
O222 O 0.18594 0.62853 0.84227 0.0
O223 O 0.20655 0.61289 0.81792 0.0
C224 C 0.21358 0.62131 0.9059 0.0
C225 C 0.24538 0.64357 0.84644 0.0
C226 C 0.21734 0.57325 0.8569 0.0
O227 O 0.19781 0.62304 0.89224 0.0
O228 O 0.23025 0.61659 0.89507 0.0
O229 O 0.23261 0.58415 0.84983 0.0
O230 O 0.20171 0.58348 0.86408 0.0
C231 C 0.1897 0.62272 0.82068 0.0
O232 O 0.24933 0.62424 0.84653 0.0
O233 O 0.22682 0.64828 0.85171 0.0
In234 In 0.37501 0.20757 0.85822 0.0
O235 O 0.36201 0.17751 0.84183 0.0
O236 O 0.38088 0.19697 0.81945 0.0
C237 C 0.36434 0.20322 0.90542 0.0
C238 C 0.34811 0.23751 0.84467 0.0
C239 C 0.41663 0.211 0.86184 0.0
O240 O 0.36665 0.18763 0.8916 0.0
O241 O 0.36737 0.22064 0.89539 0.0
O242 O 0.40555 0.22512 0.85242 0.0
O243 O 0.40669 0.19531 0.86941 0.0
C244 C 0.37018 0.18055 0.82117 0.0
O245 O 0.36725 0.24116 0.848 0.0
O246 O 0.34271 0.21878 0.84786 0.0
In247 In 0.78104 0.37814 0.85709 0.0
O248 O 0.81069 0.36312 0.84177 0.0
O249 O 0.79035 0.37909 0.81744 0.0
C250 C 0.78434 0.37479 0.90597 0.0
C251 C 0.75111 0.34995 0.84758 0.0
C252 C 0.77961 0.41975 0.85237 0.0
O253 O 0.79979 0.37165 0.89213 0.0
O254 O 0.76771 0.37947 0.89509 0.0
O255 O 0.76393 0.40833 0.84844 0.0
O256 O 0.79587 0.41016 0.85886 0.0
C257 C 0.80687 0.36872 0.8201 0.0
O258 O 0.74779 0.36934 0.8465 0.0
O259 O 0.76945 0.3449 0.85341 0.0
In260 In 0.61197 0.21073 0.13288 0.0
O261 O 0.62416 0.18088 0.1505 0.0
O262 O 0.60643 0.20188 0.17227 0.0
C263 C 0.62183 0.20596 0.08554 0.0
C264 C 0.64005 0.23996 0.14513 0.0
C265 C 0.57036 0.21355 0.12947 0.0
O266 O 0.62074 0.19053 0.09984 0.0
O267 O 0.61801 0.22338 0.0952 0.0
O268 O 0.58133 0.2283 0.13776 0.0
O269 O 0.58042 0.1976 0.12297 0.0
C270 C 0.61652 0.18504 0.17118 0.0
O271 O 0.62093 0.24419 0.14255 0.0
O272 O 0.64476 0.22106 0.14181 0.0
In273 In 0.78084 0.61391 0.13475 0.0
O274 O 0.74663 0.62356 0.13874 0.0
O275 O 0.7684 0.64595 0.12567 0.0
C276 C 0.78003 0.57303 0.1447 0.0
C277 C 0.80119 0.62795 0.17419 0.0
C278 C 0.79215 0.61044 0.08779 0.0
O279 O 0.76356 0.58383 0.1436 0.0
O280 O 0.79676 0.58299 0.14117 0.0
O281 O 0.80303 0.62066 0.10284 0.0
O282 O 0.77588 0.60231 0.0965 0.0
C283 C 0.74978 0.64193 0.13126 0.0
O284 O 0.80867 0.62969 0.15297 0.0
O285 O 0.78364 0.61916 0.17534 0.0
In286 In 0.37959 0.78686 0.13481 0.0
O287 O 0.36507 0.8167 0.15021 0.0
O288 O 0.38141 0.79636 0.17426 0.0
C289 C 0.37543 0.78992 0.08612 0.0
C290 C 0.35166 0.75682 0.14486 0.0
C291 C 0.42125 0.78609 0.13806 0.0
O292 O 0.37221 0.80539 0.09992 0.0
O293 O 0.38054 0.77337 0.09695 0.0
O294 O 0.41018 0.77035 0.14305 0.0
O295 O 0.41128 0.80202 0.13129 0.0
C296 C 0.3712 0.81301 0.1717 0.0
O297 O 0.37106 0.75353 0.1455 0.0
O298 O 0.34649 0.77521 0.13933 0.0
In299 In 0.20887 0.37548 0.13538 0.0
O300 O 0.17857 0.36207 0.15079 0.0
O301 O 0.19861 0.37895 0.17461 0.0
C302 C 0.20587 0.36807 0.08716 0.0
C303 C 0.23791 0.34718 0.14756 0.0
C304 C 0.21162 0.41729 0.13537 0.0
O305 O 0.18998 0.36812 0.10081 0.0
O306 O 0.22284 0.37167 0.09789 0.0
O307 O 0.22632 0.40585 0.14282 0.0
O308 O 0.19572 0.4076 0.12797 0.0
C309 C 0.18196 0.36872 0.17212 0.0
O310 O 0.24202 0.36642 0.14614 0.0
O311 O 0.21924 0.34239 0.14304 0.0
In312 In 0.37308 0.20652 0.13336 0.0
O313 O 0.36001 0.17664 0.15019 0.0
O314 O 0.37908 0.19618 0.17218 0.0
C315 C 0.36283 0.20195 0.08609 0.0
C316 C 0.34619 0.23654 0.14674 0.0
C317 C 0.41469 0.20994 0.12958 0.0
O318 O 0.3648 0.18643 0.1001 0.0
O319 O 0.36589 0.2194 0.09601 0.0
O320 O 0.40358 0.22426 0.13856 0.0
O321 O 0.40479 0.19404 0.12259 0.0
C322 C 0.3683 0.1798 0.17074 0.0
O323 O 0.3654 0.24007 0.1438 0.0
O324 O 0.3407 0.21788 0.14322 0.0
In325 In 0.78191 0.37585 0.13765 0.0
O326 O 0.811 0.3599 0.15311 0.0
O327 O 0.7908 0.37609 0.17744 0.0
C328 C 0.78555 0.37298 0.08876 0.0
C329 C 0.75124 0.34825 0.14623 0.0
C330 C 0.78147 0.41745 0.14269 0.0
O331 O 0.80084 0.36942 0.10268 0.0
O332 O 0.76891 0.37781 0.09956 0.0
O333 O 0.7655 0.40638 0.14652 0.0
O334 O 0.79753 0.4075 0.13625 0.0
C335 C 0.80708 0.36532 0.17481 0.0
O336 O 0.74834 0.3677 0.14763 0.0
O337 O 0.76953 0.34287 0.14058 0.0
In338 In 0.61789 0.78918 0.13149 0.0
O339 O 0.6339 0.81618 0.15129 0.0
O340 O 0.62163 0.79118 0.1724 0.0
C341 C 0.61622 0.80261 0.08511 0.0
C342 C 0.64423 0.75658 0.1282 0.0
C343 C 0.57678 0.78867 0.13976 0.0
O344 O 0.62732 0.81175 0.10085 0.0
O345 O 0.60639 0.78692 0.09279 0.0
O346 O 0.5874 0.77212 0.13819 0.0
O347 O 0.587 0.80541 0.13747 0.0
C348 C 0.63102 0.80843 0.1722 0.0
O349 O 0.6256 0.75447 0.13513 0.0
O350 O 0.64942 0.77499 0.12294 0.0
In351 In 0.21568 0.61516 0.13654 0.0
O352 O 0.18569 0.62885 0.15225 0.0
O353 O 0.20671 0.61353 0.17637 0.0
C354 C 0.21255 0.62096 0.0881 0.0
C355 C 0.2451 0.64372 0.14644 0.0
C356 C 0.21654 0.57333 0.13753 0.0
O357 O 0.19699 0.62313 0.10205 0.0
O358 O 0.22926 0.61598 0.09867 0.0
O359 O 0.23201 0.58417 0.14405 0.0
O360 O 0.20083 0.58362 0.13073 0.0
C361 C 0.18983 0.62335 0.17386 0.0
O362 O 0.24893 0.62437 0.14697 0.0
O363 O 0.22655 0.64841 0.14116 0.0
In364 In 0.38171 0.78486 0.85494 0.0
O365 O 0.37342 0.75143 0.84433 0.0
O366 O 0.34871 0.77286 0.85088 0.0
C367 C 0.42329 0.78459 0.85031 0.0
C368 C 0.3724 0.81099 0.81837 0.0
C369 C 0.37796 0.78808 0.90369 0.0
O370 O 0.41235 0.76855 0.84636 0.0
O371 O 0.41324 0.80054 0.8569 0.0
O372 O 0.37438 0.80341 0.88981 0.0
O373 O 0.38337 0.7716 0.89291 0.0
C374 C 0.35399 0.75453 0.84526 0.0
O375 O 0.3665 0.81449 0.84 0.0
O376 O 0.38282 0.79451 0.81549 0.0
In377 In 0.20972 0.37546 0.8572 0.0
O378 O 0.17958 0.36233 0.84115 0.0
O379 O 0.19999 0.37933 0.81785 0.0
C380 C 0.20589 0.36782 0.9053 0.0
C381 C 0.23901 0.34733 0.84519 0.0
C382 C 0.21252 0.41724 0.85777 0.0
O383 O 0.19027 0.36774 0.89126 0.0
O384 O 0.22303 0.37159 0.895 0.0
O385 O 0.22728 0.40586 0.85036 0.0
O386 O 0.19652 0.40751 0.86481 0.0
C387 C 0.18325 0.36919 0.81996 0.0
O388 O 0.243 0.36658 0.84684 0.0
O389 O 0.22031 0.34243 0.84945 0.0
In390 In 0.614 0.21034 0.85715 0.0
O391 O 0.62662 0.18023 0.84059 0.0
O392 O 0.60907 0.20063 0.8179 0.0
C393 C 0.62357 0.20621 0.90465 0.0
C394 C 0.64186 0.23978 0.84479 0.0
C395 C 0.57234 0.21333 0.86017 0.0
O396 O 0.62215 0.19056 0.89074 0.0
O397 O 0.62022 0.22353 0.89454 0.0
O398 O 0.58339 0.22779 0.85135 0.0
O399 O 0.58234 0.19755 0.86733 0.0
C400 C 0.61924 0.18387 0.81967 0.0
O401 O 0.62267 0.24378 0.84709 0.0
O402 O 0.64678 0.22096 0.84836 0.0
In403 In 0.77981 0.61571 0.86178 0.0
O404 O 0.80717 0.63218 0.84328 0.0
O405 O 0.78134 0.62287 0.82148 0.0
C406 C 0.79229 0.61058 0.90809 0.0
C407 C 0.74829 0.64282 0.86819 0.0
C408 C 0.77935 0.57518 0.85011 0.0
O409 O 0.80217 0.6223 0.89356 0.0
O410 O 0.77646 0.60179 0.89918 0.0
O411 O 0.76276 0.5856 0.85264 0.0
O412 O 0.79603 0.58537 0.853 0.0
C413 C 0.79901 0.63144 0.82233 0.0
O414 O 0.74547 0.62506 0.85878 0.0
O415 O 0.76683 0.64673 0.87415 0.0
H416 H 0.25879 0.18427 0.33522 0.0
H417 H 0.13645 0.20735 0.34126 0.0
H418 H 0.21234 0.13619 0.3443 0.0
H419 H 0.18391 0.25496 0.33761 0.0
H420 H 0.16352 0.18069 0.33691 0.0
H421 H 0.23107 0.20995 0.3304 0.0
C422 C 0.24273 0.17909 0.33598 0.0
C423 C 0.23782 0.15812 0.34041 0.0
C424 C 0.16797 0.19698 0.33685 0.0
C425 C 0.20599 0.18745 0.33509 0.0
C426 C 0.15254 0.21219 0.33929 0.0
C427 C 0.158 0.23336 0.34003 0.0
C428 C 0.18897 0.20305 0.33512 0.0
C429 C 0.17904 0.2388 0.33734 0.0
C430 C 0.2269 0.19376 0.33325 0.0
C431 C 0.21677 0.15224 0.34105 0.0
N432 N 0.19376 0.22373 0.33517 0.0
N433 N 0.20159 0.16688 0.33866 0.0
H434 H 0.77251 0.12966 0.36215 0.0
H435 H 0.80678 0.24708 0.33483 0.0
H436 H 0.73132 0.17734 0.33464 0.0
H437 H 0.85084 0.19906 0.35423 0.0
H438 H 0.7794 0.22087 0.33269 0.0
H439 H 0.8019 0.15389 0.35766 0.0
C440 C 0.76969 0.14515 0.35501 0.0
C441 C 0.74946 0.15159 0.34895 0.0
C442 C 0.79506 0.21595 0.33723 0.0
C443 C 0.78283 0.17928 0.34382 0.0
C444 C 0.81071 0.23094 0.33846 0.0
C445 C 0.83105 0.22522 0.34487 0.0
C446 C 0.79969 0.19507 0.34273 0.0
C447 C 0.83531 0.20408 0.34925 0.0
C448 C 0.78644 0.15895 0.35243 0.0
C449 C 0.74664 0.17178 0.33971 0.0
N450 N 0.81968 0.18975 0.34835 0.0
N451 N 0.7631 0.18492 0.33759 0.0
H452 H 0.85549 0.78574 0.35505 0.0
H453 H 0.73992 0.81412 0.39888 0.0
H454 H 0.81328 0.74228 0.38936 0.0
H455 H 0.77919 0.85703 0.35927 0.0
H456 H 0.76829 0.78887 0.39922 0.0
H457 H 0.82926 0.81325 0.35973 0.0
C458 C 0.84075 0.78203 0.36366 0.0
C459 C 0.83646 0.76171 0.37168 0.0
C460 C 0.77079 0.80384 0.39055 0.0
C461 C 0.80652 0.79297 0.37713 0.0
C462 C 0.7546 0.81828 0.3904 0.0
C463 C 0.75719 0.83761 0.37887 0.0
C464 C 0.78972 0.80872 0.37901 0.0
C465 C 0.77655 0.84224 0.36827 0.0
C466 C 0.82581 0.79771 0.36632 0.0
C467 C 0.81718 0.75772 0.38277 0.0
N468 N 0.79207 0.82781 0.36844 0.0
N469 N 0.80291 0.77319 0.38509 0.0
H470 H 0.13834 0.78476 0.34352 0.0
H471 H 0.26075 0.80878 0.34153 0.0
H472 H 0.18623 0.73792 0.35049 0.0
H473 H 0.214 0.85693 0.34692 0.0
H474 H 0.23321 0.78266 0.33909 0.0
H475 H 0.16548 0.81149 0.33956 0.0
C476 C 0.15455 0.78011 0.34409 0.0
C477 C 0.16009 0.75915 0.34748 0.0
C478 C 0.22894 0.79895 0.34066 0.0
C479 C 0.19109 0.78949 0.34288 0.0
C480 C 0.24466 0.81387 0.34198 0.0
C481 C 0.23962 0.83502 0.34461 0.0
C482 C 0.208 0.80519 0.34201 0.0
C483 C 0.21853 0.84075 0.345 0.0
C484 C 0.17001 0.79535 0.34186 0.0
C485 C 0.18129 0.75392 0.34806 0.0
N486 N 0.20345 0.82589 0.34388 0.0
N487 N 0.19601 0.76899 0.34583 0.0
H488 H 0.18448 0.7358 0.64508 0.0
H489 H 0.21073 0.85751 0.64628 0.0
H490 H 0.13712 0.78332 0.65071 0.0
H491 H 0.25708 0.80891 0.65072 0.0
H492 H 0.18337 0.83095 0.64916 0.0
H493 H 0.21121 0.76267 0.64813 0.0
C494 C 0.17972 0.75192 0.64705 0.0
C495 C 0.15858 0.75739 0.64752 0.0
C496 C 0.19953 0.82614 0.64972 0.0
C497 C 0.18911 0.78829 0.65093 0.0
C498 C 0.21514 0.84128 0.6481 0.0
C499 C 0.23617 0.83535 0.64811 0.0
C500 C 0.20507 0.80498 0.65123 0.0
C501 C 0.24105 0.81414 0.65052 0.0
C502 C 0.19499 0.76727 0.64884 0.0
C503 C 0.15328 0.77848 0.65022 0.0
N504 N 0.22562 0.79972 0.6518 0.0
N505 N 0.16847 0.79323 0.65165 0.0
H506 H 0.21267 0.13609 0.65064 0.0
H507 H 0.18566 0.25755 0.65588 0.0
H508 H 0.25873 0.18494 0.65603 0.0
H509 H 0.13889 0.20936 0.65108 0.0
H510 H 0.21235 0.23081 0.66059 0.0
H511 H 0.18518 0.16223 0.65536 0.0
C512 C 0.21699 0.15229 0.65309 0.0
C513 C 0.23797 0.15842 0.65271 0.0
C514 C 0.19624 0.22604 0.65871 0.0
C515 C 0.20669 0.18836 0.65797 0.0
C516 C 0.181 0.24131 0.65602 0.0
C517 C 0.16009 0.23562 0.65284 0.0
C518 C 0.19057 0.20489 0.65804 0.0
C519 C 0.15488 0.21438 0.65335 0.0
C520 C 0.20131 0.1672 0.65575 0.0
C521 C 0.24273 0.17957 0.65603 0.0
N522 N 0.17006 0.19974 0.65564 0.0
N523 N 0.2272 0.19379 0.65832 0.0
H524 H 0.7319 0.18269 0.65342 0.0
H525 H 0.8545 0.20483 0.64633 0.0
H526 H 0.77718 0.1349 0.63722 0.0
H527 H 0.80758 0.25246 0.65494 0.0
H528 H 0.82708 0.1782 0.64792 0.0
H529 H 0.76012 0.20768 0.65886 0.0
C530 C 0.74783 0.17744 0.65109 0.0
C531 C 0.75223 0.15676 0.64466 0.0
C532 C 0.82284 0.19448 0.64966 0.0
C533 C 0.78467 0.18532 0.65081 0.0
C534 C 0.83847 0.20965 0.64885 0.0
C535 C 0.83324 0.23086 0.65032 0.0
C536 C 0.80192 0.20063 0.65203 0.0
C537 C 0.81227 0.23629 0.65354 0.0
C538 C 0.76394 0.19172 0.65421 0.0
C539 C 0.77314 0.15076 0.64204 0.0
N540 N 0.79738 0.22129 0.65416 0.0
N541 N 0.78862 0.16503 0.64499 0.0
H542 H 0.81855 0.74919 0.59611 0.0
H543 H 0.78427 0.86114 0.64385 0.0
H544 H 0.85698 0.78654 0.64363 0.0
H545 H 0.75275 0.82821 0.58602 0.0
H546 H 0.81214 0.83511 0.64263 0.0
H547 H 0.79508 0.77877 0.59098 0.0
C548 C 0.82208 0.76368 0.60538 0.0
C549 C 0.8396 0.76541 0.62048 0.0
C550 C 0.79926 0.83374 0.63 0.0
C551 C 0.81278 0.79932 0.61479 0.0
C552 C 0.78337 0.84859 0.63067 0.0
C553 C 0.76611 0.84668 0.61517 0.0
C554 C 0.79771 0.81679 0.61388 0.0
C555 C 0.76573 0.83019 0.5984 0.0
C556 C 0.80873 0.7806 0.60237 0.0
C557 C 0.84356 0.78457 0.63191 0.0
N558 N 0.78117 0.81573 0.5984 0.0
N559 N 0.83011 0.80075 0.62903 0.0
H560 H 0.63565 0.71591 0.85433 0.0
H561 H 0.75077 0.68031 0.89112 0.0
H562 H 0.67986 0.75494 0.89218 0.0
H563 H 0.70768 0.64038 0.85281 0.0
H564 H 0.72366 0.70669 0.89461 0.0
H565 H 0.66042 0.68692 0.85658 0.0
C566 C 0.65049 0.71831 0.86332 0.0
C567 C 0.65582 0.73787 0.87292 0.0
C568 C 0.72004 0.69214 0.88553 0.0
C569 C 0.68417 0.70491 0.87546 0.0
C570 C 0.73553 0.67707 0.88351 0.0
C571 C 0.73148 0.65822 0.87148 0.0
C572 C 0.70033 0.68842 0.87531 0.0
C573 C 0.71144 0.65477 0.86213 0.0
C574 C 0.66461 0.70178 0.86456 0.0
C575 C 0.67519 0.74015 0.8844 0.0
N576 N 0.69661 0.66983 0.86409 0.0
N577 N 0.6887 0.7239 0.88521 0.0
H578 H 0.23941 0.6854 0.84248 0.0
H579 H 0.36095 0.71282 0.83778 0.0
H580 H 0.28751 0.63842 0.84027 0.0
H581 H 0.3118 0.75846 0.84383 0.0
H582 H 0.33454 0.68533 0.83435 0.0
H583 H 0.26594 0.71233 0.83848 0.0
C584 C 0.25559 0.68075 0.84099 0.0
C585 C 0.26131 0.65967 0.84191 0.0
C586 C 0.32957 0.70138 0.83626 0.0
C587 C 0.29186 0.69047 0.8375 0.0
C588 C 0.34461 0.71706 0.83817 0.0
C589 C 0.33851 0.7379 0.84128 0.0
C590 C 0.30834 0.70665 0.83742 0.0
C591 C 0.31718 0.74257 0.84164 0.0
C592 C 0.27075 0.69614 0.83872 0.0
C593 C 0.28248 0.65452 0.83974 0.0
N594 N 0.30289 0.72706 0.83986 0.0
N595 N 0.29705 0.66986 0.83782 0.0
H596 H 0.35499 0.27955 0.84089 0.0
H597 H 0.23335 0.30571 0.83787 0.0
H598 H 0.30642 0.23311 0.83682 0.0
H599 H 0.2812 0.35294 0.84111 0.0
H600 H 0.26021 0.27915 0.83314 0.0
H601 H 0.3286 0.30688 0.83663 0.0
C602 C 0.3388 0.27511 0.83882 0.0
C603 C 0.33283 0.25407 0.83944 0.0
C604 C 0.26488 0.29533 0.83469 0.0
C605 C 0.30262 0.28516 0.83471 0.0
C606 C 0.24954 0.3105 0.8374 0.0
C607 C 0.25509 0.33152 0.84011 0.0
C608 C 0.28598 0.30117 0.83487 0.0
C609 C 0.27627 0.33688 0.8392 0.0
C610 C 0.32375 0.2907 0.83643 0.0
C611 C 0.31168 0.24916 0.83663 0.0
N612 N 0.29099 0.32176 0.83688 0.0
N613 N 0.29733 0.26459 0.83458 0.0
H614 H 0.6836 0.23435 0.83859 0.0
H615 H 0.70946 0.35644 0.83967 0.0
H616 H 0.6362 0.28204 0.84107 0.0
H617 H 0.75562 0.30777 0.84555 0.0
H618 H 0.68242 0.32973 0.83497 0.0
H619 H 0.71018 0.26138 0.83555 0.0
C620 C 0.67877 0.25054 0.83827 0.0
C621 C 0.65769 0.25599 0.8403 0.0
C622 C 0.69849 0.32492 0.83714 0.0
C623 C 0.68807 0.28706 0.83702 0.0
C624 C 0.71391 0.34014 0.83979 0.0
C625 C 0.73475 0.33426 0.84319 0.0
C626 C 0.70403 0.30374 0.83782 0.0
C627 C 0.7397 0.31297 0.84316 0.0
C628 C 0.69397 0.26598 0.83659 0.0
C629 C 0.65231 0.27719 0.83966 0.0
N630 N 0.72445 0.29849 0.84062 0.0
N631 N 0.66744 0.292 0.83827 0.0
H632 H 0.68153 0.23388 0.15239 0.0
H633 H 0.70954 0.35549 0.15303 0.0
H634 H 0.63498 0.28233 0.14854 0.0
H635 H 0.75489 0.306 0.14797 0.0
H636 H 0.68189 0.32926 0.1566 0.0
H637 H 0.70845 0.26045 0.15633 0.0
C638 C 0.67696 0.25014 0.15257 0.0
C639 C 0.65603 0.25595 0.14992 0.0
C640 C 0.69791 0.32417 0.15486 0.0
C641 C 0.68681 0.2865 0.15425 0.0
C642 C 0.71368 0.33912 0.15286 0.0
C643 C 0.73448 0.33287 0.15001 0.0
C644 C 0.70308 0.30289 0.1541 0.0
C645 C 0.73903 0.31149 0.14994 0.0
C646 C 0.69235 0.26532 0.15478 0.0
C647 C 0.65098 0.27723 0.15043 0.0
N648 N 0.72345 0.29728 0.15185 0.0
N649 N 0.66631 0.29179 0.15235 0.0
H650 H 0.70854 0.63835 0.14402 0.0
H651 H 0.68423 0.75769 0.11188 0.0
H652 H 0.75346 0.68159 0.11437 0.0
H653 H 0.63804 0.7158 0.14152 0.0
H654 H 0.70926 0.72918 0.11116 0.0
H655 H 0.68189 0.66572 0.14187 0.0
C656 C 0.71276 0.65356 0.13699 0.0
C657 C 0.73322 0.65777 0.12946 0.0
C658 C 0.69365 0.72614 0.11777 0.0
C659 C 0.70298 0.68902 0.12695 0.0
C660 C 0.67934 0.74244 0.11818 0.0
C661 C 0.65908 0.7391 0.12687 0.0
C662 C 0.68771 0.70632 0.12619 0.0
C663 C 0.65356 0.71901 0.13473 0.0
C664 C 0.69757 0.66916 0.13577 0.0
C665 C 0.73789 0.6777 0.12046 0.0
N666 N 0.66785 0.70336 0.1343 0.0
N667 N 0.72291 0.69257 0.11952 0.0
H668 H 0.28714 0.63846 0.15334 0.0
H669 H 0.30951 0.7611 0.1471 0.0
H670 H 0.23945 0.6857 0.14826 0.0
H671 H 0.35834 0.71503 0.15203 0.0
H672 H 0.28365 0.73349 0.15107 0.0
H673 H 0.31351 0.66604 0.15641 0.0
C674 C 0.28222 0.65462 0.15309 0.0
C675 C 0.26113 0.65984 0.15036 0.0
C676 C 0.3 0.72937 0.15143 0.0
C677 C 0.29108 0.69135 0.15377 0.0
C678 C 0.31478 0.74515 0.14916 0.0
C679 C 0.33607 0.74031 0.14906 0.0
C680 C 0.30653 0.70853 0.15346 0.0
C681 C 0.34204 0.7194 0.15193 0.0
C682 C 0.29725 0.67034 0.15481 0.0
C683 C 0.25556 0.68098 0.15017 0.0
N684 N 0.32732 0.70422 0.15384 0.0
N685 N 0.27045 0.69594 0.1517 0.0
H686 H 0.23193 0.30556 0.1545 0.0
H687 H 0.35338 0.27847 0.15127 0.0
H688 H 0.28014 0.35245 0.15179 0.0
H689 H 0.3044 0.23239 0.15406 0.0
H690 H 0.32719 0.30595 0.1559 0.0
H691 H 0.25857 0.27875 0.15884 0.0
C692 C 0.24815 0.31022 0.15501 0.0
C693 C 0.25387 0.33122 0.15255 0.0
C694 C 0.32221 0.28982 0.15573 0.0
C695 C 0.28451 0.30058 0.15734 0.0
C696 C 0.33714 0.27414 0.15312 0.0
C697 C 0.331 0.25316 0.15206 0.0
C698 C 0.30102 0.28443 0.15722 0.0
C699 C 0.30979 0.24838 0.1546 0.0
C700 C 0.26337 0.2949 0.1575 0.0
C701 C 0.27509 0.3364 0.15352 0.0
N702 N 0.29555 0.2639 0.15688 0.0
N703 N 0.28969 0.32115 0.1556 0.0
H704 H 0.94312 0.23914 0.34312 0.0
H705 H 0.0455 0.30492 0.37566 0.0
H706 H 0.94261 0.30034 0.37586 0.0
H707 H 0.0477 0.24375 0.34294 0.0
H708 H 0.00761 0.30291 0.37641 0.0
H709 H 0.98134 0.23988 0.34338 0.0
C710 C 0.95106 0.25269 0.35039 0.0
C711 C 0.93973 0.26973 0.35944 0.0
C712 C 0.01633 0.28988 0.36907 0.0
C713 C 0.98325 0.27069 0.35979 0.0
C714 C 0.03798 0.29104 0.36864 0.0
C715 C 0.04972 0.27449 0.35918 0.0
C716 C 0.00628 0.27206 0.35994 0.0
C717 C 0.03918 0.25686 0.35037 0.0
C718 C 0.97283 0.25311 0.35053 0.0
C719 C 0.95073 0.28689 0.36866 0.0
N720 N 0.01801 0.25611 0.35092 0.0
N721 N 0.97185 0.28693 0.36857 0.0
H722 H 0.67818 0.04572 0.33508 0.0
H723 H 0.74077 0.94449 0.37812 0.0
H724 H 0.73549 0.04907 0.37601 0.0
H725 H 0.68303 0.94318 0.33787 0.0
H726 H 0.74105 0.98263 0.37493 0.0
H727 H 0.6816 0.008 0.33331 0.0
C728 C 0.69155 0.03848 0.34366 0.0
C729 C 0.7065 0.05048 0.3559 0.0
C730 C 0.72842 0.97396 0.36665 0.0
C731 C 0.71049 0.00718 0.35403 0.0
C732 C 0.72827 0.95223 0.36843 0.0
C733 C 0.71177 0.94074 0.35839 0.0
C734 C 0.71195 0.98416 0.35474 0.0
C735 C 0.69597 0.95146 0.34602 0.0
C736 C 0.69352 0.01691 0.34262 0.0
C737 C 0.72359 0.04032 0.36649 0.0
N738 N 0.69641 0.97256 0.34466 0.0
N739 N 0.72506 0.01917 0.36548 0.0
H740 H 0.04807 0.68004 0.35011 0.0
H741 H 0.94435 0.74854 0.34619 0.0
H742 H 0.04858 0.7471 0.34336 0.0
H743 H 0.94515 0.68124 0.34497 0.0
H744 H 0.98241 0.74863 0.343 0.0
H745 H 0.01024 0.68035 0.34636 0.0
C746 C 0.04019 0.69484 0.34775 0.0
C747 C 0.05141 0.71359 0.34722 0.0
C748 C 0.97423 0.73386 0.34321 0.0
C749 C 0.00808 0.7141 0.343 0.0
C750 C 0.95253 0.7338 0.34501 0.0
C751 C 0.94165 0.71485 0.34604 0.0
C752 C 0.98504 0.71482 0.34257 0.0
C753 C 0.95295 0.6962 0.34439 0.0
C754 C 0.01859 0.69502 0.34555 0.0
C755 C 0.04046 0.73231 0.34395 0.0
N756 N 0.97404 0.69666 0.34293 0.0
N757 N 0.01934 0.73212 0.34215 0.0
H758 H 0.31058 0.94545 0.38689 0.0
H759 H 0.24951 0.0493 0.34918 0.0
H760 H 0.25143 0.94492 0.3495 0.0
H761 H 0.30919 0.04863 0.3854 0.0
H762 H 0.24858 0.01116 0.35138 0.0
H763 H 0.30899 0.98338 0.38885 0.0
C764 C 0.2972 0.95334 0.37917 0.0
C765 C 0.28117 0.94208 0.36788 0.0
C766 C 0.26182 0.01938 0.35894 0.0
C767 C 0.27926 0.98553 0.36996 0.0
C768 C 0.26235 0.04112 0.3577 0.0
C769 C 0.27951 0.05207 0.367 0.0
C770 C 0.27858 0.0086 0.36954 0.0
C771 C 0.29571 0.04077 0.37789 0.0
C772 C 0.2963 0.97501 0.38029 0.0
C773 C 0.26416 0.95307 0.35829 0.0
N774 N 0.29488 0.01965 0.37878 0.0
N775 N 0.26369 0.97424 0.35943 0.0
H776 H 0.04759 0.74641 0.65558 0.0
H777 H 0.94234 0.67955 0.65262 0.0
H778 H 0.04533 0.67974 0.64506 0.0
H779 H 0.94364 0.74683 0.65042 0.0
H780 H 0.98023 0.67929 0.65638 0.0
H781 H 0.0096 0.74677 0.65982 0.0
C782 C 0.0391 0.73185 0.65431 0.0
C783 C 0.04953 0.71304 0.64975 0.0
C784 C 0.97223 0.69412 0.65525 0.0
C785 C 0.00626 0.71331 0.65465 0.0
C786 C 0.9506 0.69428 0.65318 0.0
C787 C 0.93991 0.71324 0.65097 0.0
C788 C 0.98322 0.71306 0.65511 0.0
C789 C 0.95134 0.73187 0.65191 0.0
C790 C 0.01745 0.73206 0.65672 0.0
C791 C 0.03785 0.6946 0.64836 0.0
N792 N 0.97244 0.73132 0.65374 0.0
N793 N 0.01682 0.69521 0.65072 0.0
H794 H 0.30793 0.94526 0.60628 0.0
H795 H 0.24912 0.04994 0.64571 0.0
H796 H 0.2495 0.94549 0.6453 0.0
H797 H 0.30816 0.04837 0.60801 0.0
H798 H 0.24757 0.01181 0.64357 0.0
H799 H 0.30685 0.9832 0.60445 0.0
C800 C 0.29482 0.95333 0.6144 0.0
C801 C 0.27885 0.94227 0.6261 0.0
C802 C 0.26081 0.01983 0.63568 0.0
C803 C 0.27753 0.98573 0.62417 0.0
C804 C 0.26169 0.04156 0.63689 0.0
C805 C 0.27885 0.05226 0.62715 0.0
C806 C 0.27721 0.00881 0.62465 0.0
C807 C 0.29469 0.04072 0.61587 0.0
C808 C 0.29421 0.975 0.61335 0.0
C809 C 0.26217 0.95347 0.63618 0.0
N810 N 0.29352 0.01961 0.61501 0.0
N811 N 0.26199 0.97465 0.63511 0.0
H812 H 0.04967 0.24552 0.64969 0.0
H813 H 0.94427 0.30641 0.61791 0.0
H814 H 0.0473 0.30661 0.61674 0.0
H815 H 0.94508 0.24517 0.65056 0.0
H816 H 0.98219 0.30621 0.61687 0.0
H817 H 0.01149 0.24448 0.64967 0.0
C818 C 0.04111 0.25867 0.64241 0.0
C819 C 0.0516 0.2762 0.63325 0.0
C820 C 0.97413 0.29278 0.62425 0.0
C821 C 0.00811 0.27514 0.63319 0.0
C822 C 0.95246 0.2929 0.62487 0.0
C823 C 0.94155 0.27579 0.63439 0.0
C824 C 0.98504 0.27543 0.63326 0.0
C825 C 0.95294 0.25868 0.6431 0.0
C826 C 0.01935 0.25808 0.64241 0.0
C827 C 0.03982 0.29281 0.62402 0.0
N828 N 0.97412 0.25894 0.64236 0.0
N829 N 0.01871 0.29187 0.62426 0.0
H830 H 0.7395 0.05256 0.60279 0.0
H831 H 0.71517 0.94583 0.67281 0.0
H832 H 0.70231 0.04755 0.6681 0.0
H833 H 0.74144 0.94809 0.60041 0.0
H834 H 0.71687 0.98378 0.67481 0.0
H835 H 0.74629 0.01491 0.60483 0.0
C836 C 0.73294 0.04356 0.61765 0.0
C837 C 0.72014 0.05306 0.63515 0.0
C838 C 0.72246 0.97599 0.65856 0.0
C839 C 0.72791 0.01029 0.63769 0.0
C840 C 0.72155 0.95432 0.65744 0.0
C841 C 0.72792 0.94387 0.63629 0.0
C842 C 0.72971 0.9873 0.63833 0.0
C843 C 0.73621 0.95561 0.61699 0.0
C844 C 0.7368 0.02213 0.6188 0.0
C845 C 0.71207 0.04079 0.65407 0.0
N846 N 0.73666 0.97677 0.61835 0.0
N847 N 0.71601 0.02003 0.65478 0.0
H848 H 0.55364 0.75213 0.84604 0.0
H849 H 0.44891 0.81838 0.85136 0.0
H850 H 0.55164 0.8192 0.83965 0.0
H851 H 0.44935 0.75155 0.84201 0.0
H852 H 0.48671 0.81878 0.8469 0.0
H853 H 0.51557 0.75123 0.84375 0.0
C854 C 0.54519 0.76663 0.84385 0.0
C855 C 0.55574 0.78578 0.84322 0.0
C856 C 0.47856 0.80402 0.84568 0.0
C857 C 0.51233 0.78489 0.84089 0.0
C858 C 0.457 0.80378 0.84834 0.0
C859 C 0.44606 0.78489 0.8472 0.0
C860 C 0.48931 0.7852 0.8421 0.0
C861 C 0.45726 0.76644 0.84309 0.0
C862 C 0.52349 0.76611 0.84257 0.0
C863 C 0.54409 0.8041 0.84032 0.0
N864 N 0.47834 0.76703 0.84086 0.0
N865 N 0.52299 0.80322 0.83952 0.0
H866 H 0.18272 0.44432 0.87327 0.0
H867 H 0.24864 0.547 0.84208 0.0
H868 H 0.24472 0.44229 0.84281 0.0
H869 H 0.18635 0.5473 0.87182 0.0
H870 H 0.24806 0.50875 0.84244 0.0
H871 H 0.1843 0.48225 0.87321 0.0
C872 C 0.1967 0.45189 0.86657 0.0
C873 C 0.21361 0.44018 0.858 0.0
C874 C 0.23454 0.51722 0.84888 0.0
C875 C 0.21555 0.48367 0.85784 0.0
C876 C 0.23487 0.53901 0.84867 0.0
C877 C 0.21751 0.55028 0.85691 0.0
C878 C 0.21673 0.50673 0.85739 0.0
C879 C 0.20007 0.53922 0.86528 0.0
C880 C 0.1976 0.47357 0.86654 0.0
C881 C 0.23134 0.45079 0.84956 0.0
N882 N 0.20013 0.51808 0.8653 0.0
N883 N 0.23185 0.47199 0.84967 0.0
H884 H 0.44309 0.18288 0.88232 0.0
H885 H 0.54659 0.24451 0.84403 0.0
H886 H 0.44212 0.24203 0.84478 0.0
H887 H 0.5461 0.18453 0.87978 0.0
H888 H 0.50842 0.24505 0.8458 0.0
H889 H 0.48101 0.18438 0.88335 0.0
C890 C 0.45089 0.19623 0.87435 0.0
C891 C 0.4395 0.21232 0.86335 0.0
C892 C 0.51669 0.23182 0.85332 0.0
C893 C 0.48294 0.21413 0.86438 0.0
C894 C 0.53844 0.23151 0.85232 0.0
C895 C 0.54946 0.21441 0.86168 0.0
C896 C 0.50599 0.21491 0.86377 0.0
C897 C 0.53821 0.19799 0.87225 0.0
C898 C 0.47255 0.19709 0.87493 0.0
C899 C 0.45037 0.22928 0.85338 0.0
N900 N 0.5171 0.19863 0.87295 0.0
N901 N 0.47154 0.22972 0.85404 0.0
H902 H 0.74592 0.44455 0.84265 0.0
H903 H 0.81308 0.54968 0.8459 0.0
H904 H 0.81225 0.44678 0.8554 0.0
H905 H 0.74582 0.549 0.84581 0.0
H906 H 0.81311 0.5117 0.84379 0.0
H907 H 0.74564 0.48262 0.83878 0.0
C908 C 0.76042 0.45306 0.84456 0.0
C909 C 0.77912 0.44258 0.8495 0.0
C910 C 0.79833 0.51984 0.84409 0.0
C911 C 0.77893 0.48593 0.84496 0.0
C912 C 0.7983 0.54153 0.84521 0.0
C913 C 0.77941 0.55246 0.84622 0.0
C914 C 0.77933 0.50899 0.84398 0.0
C915 C 0.76073 0.54113 0.84517 0.0
C916 C 0.76025 0.47475 0.84235 0.0
C917 C 0.79747 0.45428 0.85174 0.0
N918 N 0.76115 0.51995 0.84426 0.0
N919 N 0.7969 0.47534 0.84948 0.0
H920 H 0.44124 0.18143 0.10998 0.0
H921 H 0.54445 0.24499 0.14457 0.0
H922 H 0.44005 0.24161 0.14518 0.0
H923 H 0.54426 0.18411 0.11101 0.0
H924 H 0.50627 0.24517 0.14319 0.0
H925 H 0.47914 0.18323 0.10837 0.0
C926 C 0.44898 0.19506 0.11732 0.0
C927 C 0.43754 0.21136 0.12783 0.0
C928 C 0.51461 0.23182 0.13606 0.0
C929 C 0.48095 0.21353 0.12612 0.0
C930 C 0.53636 0.23172 0.13683 0.0
C931 C 0.54747 0.21447 0.12799 0.0
C932 C 0.50399 0.21454 0.12637 0.0
C933 C 0.5363 0.19769 0.11812 0.0
C934 C 0.47063 0.19609 0.1164 0.0
C935 C 0.44834 0.22869 0.13698 0.0
N936 N 0.51518 0.19813 0.11764 0.0
N937 N 0.46949 0.22929 0.136 0.0
H938 H 0.74626 0.54741 0.15082 0.0
H939 H 0.81462 0.44379 0.13922 0.0
H940 H 0.81339 0.54686 0.14592 0.0
H941 H 0.7483 0.443 0.15232 0.0
H942 H 0.81434 0.48169 0.1426 0.0
H943 H 0.74647 0.50924 0.15273 0.0
C944 C 0.76104 0.53925 0.15037 0.0
C945 C 0.77983 0.55025 0.14807 0.0
C946 C 0.79984 0.47326 0.14485 0.0
C947 C 0.78019 0.50675 0.15005 0.0
C948 C 0.79999 0.45162 0.14286 0.0
C949 C 0.78144 0.44029 0.14538 0.0
C950 C 0.78096 0.48369 0.14923 0.0
C951 C 0.76294 0.4512 0.1502 0.0
C952 C 0.76115 0.5175 0.15143 0.0
C953 C 0.79854 0.53898 0.14758 0.0
N954 N 0.76314 0.47234 0.15183 0.0
N955 N 0.79823 0.51784 0.14839 0.0
H956 H 0.44683 0.75318 0.14874 0.0
H957 H 0.5506 0.82211 0.14059 0.0
H958 H 0.44759 0.81901 0.13227 0.0
H959 H 0.5511 0.7549 0.14496 0.0
H960 H 0.51261 0.82153 0.14212 0.0
H961 H 0.48492 0.75373 0.15158 0.0
C962 C 0.45503 0.76774 0.14577 0.0
C963 C 0.44412 0.78606 0.14015 0.0
C964 C 0.52101 0.8069 0.14284 0.0
C965 C 0.4875 0.78683 0.14347 0.0
C966 C 0.5427 0.80723 0.14204 0.0
C967 C 0.55396 0.78852 0.14252 0.0
C968 C 0.51052 0.78771 0.14415 0.0
C969 C 0.54296 0.76968 0.14445 0.0
C970 C 0.47673 0.76804 0.14738 0.0
C971 C 0.45543 0.80451 0.13652 0.0
N972 N 0.5218 0.76974 0.14511 0.0
N973 N 0.47651 0.80442 0.13824 0.0
H974 H 0.18176 0.4445 0.12036 0.0
H975 H 0.24798 0.54694 0.15158 0.0
H976 H 0.24379 0.44224 0.1506 0.0
H977 H 0.18518 0.54748 0.1235 0.0
H978 H 0.24732 0.5087 0.15105 0.0
H979 H 0.18329 0.48243 0.12092 0.0
C980 C 0.19574 0.45201 0.12711 0.0
C981 C 0.21267 0.44024 0.13547 0.0
C982 C 0.2337 0.51722 0.14502 0.0
C983 C 0.21455 0.48374 0.1362 0.0
C984 C 0.23407 0.53901 0.14533 0.0
C985 C 0.2166 0.55035 0.13758 0.0
C986 C 0.21574 0.5068 0.13688 0.0
C987 C 0.19899 0.53935 0.12964 0.0
C988 C 0.1966 0.4737 0.12745 0.0
C989 C 0.23039 0.45078 0.144 0.0
N990 N 0.19902 0.51821 0.12949 0.0
N991 N 0.23088 0.47198 0.14416 0.0
H992 H 0.12453 0.3185 0.43353 0.0
H993 H 0.13245 0.25147 0.55623 0.0
H994 H 0.12938 0.25143 0.43666 0.0
H995 H 0.12445 0.31828 0.55653 0.0
H996 H 0.1352 0.2522 0.51208 0.0
H997 H 0.12805 0.31978 0.47813 0.0
C998 C 0.12653 0.3041 0.44357 0.0
C999 C 0.12649 0.28482 0.43146 0.0
C1000 C 0.13295 0.26677 0.52169 0.0
C1001 C 0.13052 0.28615 0.48218 0.0
C1002 C 0.13138 0.26635 0.54696 0.0
C1003 C 0.12802 0.28483 0.56002 0.0
C1004 C 0.13097 0.28579 0.50922 0.0
C1005 C 0.12697 0.30368 0.54708 0.0
C1006 C 0.1285 0.30483 0.46898 0.0
C1007 C 0.12913 0.26663 0.44527 0.0
N1008 N 0.12824 0.30368 0.52229 0.0
N1009 N 0.13094 0.26774 0.46984 0.0
H1010 H 0.66395 0.09488 0.55865 0.0
H1011 H 0.69068 0.15581 0.43558 0.0
H1012 H 0.69542 0.15431 0.55565 0.0
H1013 H 0.66267 0.09464 0.43732 0.0
H1014 H 0.6868 0.1581 0.47975 0.0
H1015 H 0.65776 0.09704 0.51466 0.0
C1016 C 0.66926 0.10853 0.5488 0.0
C1017 C 0.68043 0.12432 0.56072 0.0
C1018 C 0.68126 0.14426 0.47048 0.0
C1019 C 0.67354 0.12685 0.51049 0.0
C1020 C 0.68343 0.14298 0.44524 0.0
C1021 C 0.67722 0.12491 0.43283 0.0
C1022 C 0.67295 0.12729 0.48346 0.0
C1023 C 0.6678 0.1088 0.44623 0.0
C1024 C 0.66577 0.10973 0.5237 0.0
C1025 C 0.68693 0.14167 0.54712 0.0
N1026 N 0.66619 0.11025 0.47088 0.0
N1027 N 0.68357 0.14237 0.52271 0.0
H1028 H 0.85598 0.67522 0.43556 0.0
H1029 H 0.91569 0.70579 0.55808 0.0
H1030 H 0.91357 0.70981 0.43924 0.0
H1031 H 0.85437 0.67821 0.55789 0.0
H1032 H 0.91798 0.70037 0.51429 0.0
H1033 H 0.85777 0.66966 0.47987 0.0
C1034 C 0.86915 0.68133 0.44564 0.0
C1035 C 0.88451 0.69324 0.4339 0.0
C1036 C 0.90406 0.69529 0.52376 0.0
C1037 C 0.88668 0.68695 0.48419 0.0
C1038 C 0.90277 0.69837 0.54879 0.0
C1039 C 0.88468 0.69274 0.56148 0.0
C1040 C 0.88702 0.68677 0.51119 0.0
C1041 C 0.86852 0.68291 0.54865 0.0
C1042 C 0.87013 0.67821 0.47087 0.0
C1043 C 0.90124 0.7008 0.44767 0.0
N1044 N 0.86992 0.68052 0.52404 0.0
N1045 N 0.9018 0.69765 0.47207 0.0
H1046 H 0.32622 0.87007 0.55914 0.0
H1047 H 0.26377 0.84755 0.43616 0.0
H1048 H 0.26181 0.85108 0.55509 0.0
H1049 H 0.32651 0.87172 0.43669 0.0
H1050 H 0.26559 0.84266 0.48004 0.0
H1051 H 0.32925 0.86514 0.51483 0.0
C1052 C 0.31284 0.86457 0.54897 0.0
C1053 C 0.29366 0.86124 0.56063 0.0
C1054 C 0.27908 0.84888 0.47064 0.0
C1055 C 0.29698 0.85557 0.51032 0.0
C1056 C 0.27803 0.85167 0.44556 0.0
C1057 C 0.2949 0.86034 0.43292 0.0
C1058 C 0.29703 0.85512 0.48333 0.0
C1059 C 0.31312 0.86511 0.44589 0.0
C1060 C 0.31455 0.86181 0.52374 0.0
C1061 C 0.27681 0.85411 0.54674 0.0
N1062 N 0.31361 0.86274 0.47055 0.0
N1063 N 0.27883 0.85165 0.52233 0.0
H1064 H 0.12937 0.67576 0.43555 0.0
H1065 H 0.09945 0.73699 0.55795 0.0
H1066 H 0.10267 0.73748 0.43856 0.0
H1067 H 0.12827 0.6762 0.55928 0.0
H1068 H 0.09984 0.73623 0.51379 0.0
H1069 H 0.12863 0.67444 0.48041 0.0
C1070 C 0.12336 0.68899 0.44562 0.0
C1071 C 0.11611 0.70677 0.43334 0.0
C1072 C 0.1061 0.72299 0.5236 0.0
C1073 C 0.11517 0.70536 0.48433 0.0
C1074 C 0.10588 0.72342 0.54891 0.0
C1075 C 0.1139 0.70666 0.56233 0.0
C1076 C 0.11446 0.70567 0.51138 0.0
C1077 C 0.12195 0.68946 0.54957 0.0
C1078 C 0.12294 0.68822 0.47116 0.0
C1079 C 0.10847 0.72346 0.44721 0.0
N1080 N 0.12208 0.68941 0.52472 0.0
N1081 N 0.10822 0.72232 0.47186 0.0
H1082 H 0.25949 0.14309 0.43649 0.0
H1083 H 0.32532 0.12579 0.55831 0.0
H1084 H 0.32421 0.12488 0.43591 0.0
H1085 H 0.25984 0.1409 0.55589 0.0
H1086 H 0.32709 0.13026 0.51388 0.0
H1087 H 0.26128 0.14755 0.48045 0.0
C1088 C 0.27416 0.14019 0.44566 0.0
C1089 C 0.29166 0.13335 0.43265 0.0
C1090 C 0.31242 0.13282 0.52316 0.0
C1091 C 0.29379 0.13816 0.48314 0.0
C1092 C 0.31141 0.13032 0.54847 0.0
C1093 C 0.29235 0.13274 0.56067 0.0
C1094 C 0.29423 0.13784 0.51015 0.0
C1095 C 0.2748 0.13863 0.54715 0.0
C1096 C 0.27519 0.14273 0.47079 0.0
C1097 C 0.31033 0.13007 0.44536 0.0
N1098 N 0.27615 0.14083 0.52264 0.0
N1099 N 0.31085 0.13224 0.47004 0.0
H1100 H 0.8601 0.24455 0.43841 0.0
H1101 H 0.86603 0.31526 0.55843 0.0
H1102 H 0.86611 0.31152 0.43514 0.0
H1103 H 0.86333 0.24802 0.55757 0.0
H1104 H 0.86253 0.3153 0.51373 0.0
H1105 H 0.85742 0.24658 0.48247 0.0
C1106 C 0.86076 0.25974 0.44701 0.0
C1107 C 0.86353 0.27787 0.43314 0.0
C1108 C 0.86256 0.30059 0.52342 0.0
C1109 C 0.86066 0.28036 0.48387 0.0
C1110 C 0.86451 0.30057 0.54887 0.0
C1111 C 0.86515 0.2816 0.56164 0.0
C1112 C 0.86114 0.28151 0.51088 0.0
C1113 C 0.86312 0.263 0.54846 0.0
C1114 C 0.85923 0.26091 0.47223 0.0
C1115 C 0.86405 0.29716 0.44524 0.0
N1116 N 0.86129 0.26344 0.52388 0.0
N1117 N 0.86284 0.29791 0.47003 0.0
H1118 H 0.67171 0.91234 0.56102 0.0
H1119 H 0.67158 0.84429 0.43974 0.0
H1120 H 0.67783 0.84533 0.56009 0.0
H1121 H 0.67982 0.91101 0.44287 0.0
H1122 H 0.66287 0.84431 0.48333 0.0
H1123 H 0.663 0.91163 0.51775 0.0
C1124 C 0.67075 0.89742 0.55183 0.0
C1125 C 0.67596 0.87891 0.56397 0.0
C1126 C 0.66617 0.85897 0.47432 0.0
C1127 C 0.66636 0.87801 0.51442 0.0
C1128 C 0.67108 0.85898 0.44949 0.0
C1129 C 0.67679 0.87763 0.43793 0.0
C1130 C 0.66686 0.87778 0.48745 0.0
C1131 C 0.67586 0.89624 0.45127 0.0
C1132 C 0.66585 0.89702 0.5271 0.0
C1133 C 0.67421 0.85999 0.55127 0.0
N1134 N 0.67124 0.89581 0.47538 0.0
N1135 N 0.66996 0.86005 0.527 0.0
H1136 H 0.64424 0.8258 0.05846 0.0
H1137 H 0.58113 0.80447 0.93544 0.0
H1138 H 0.5851 0.79409 0.0535 0.0
H1139 H 0.64599 0.82218 0.93569 0.0
H1140 H 0.57989 0.80943 0.97938 0.0
H1141 H 0.64282 0.83252 0.01428 0.0
C1142 C 0.63085 0.82056 0.04813 0.0
C1143 C 0.61489 0.80914 0.05944 0.0
C1144 C 0.59438 0.81247 0.96987 0.0
C1145 C 0.61307 0.81687 0.00941 0.0
C1146 C 0.59507 0.80968 0.94476 0.0
C1147 C 0.61378 0.81258 0.93205 0.0
C1148 C 0.6126 0.81795 0.98247 0.0
C1149 C 0.6313 0.81963 0.94494 0.0
C1150 C 0.63007 0.82434 0.02301 0.0
C1151 C 0.59787 0.80269 0.04538 0.0
N1152 N 0.6304 0.82176 0.96962 0.0
N1153 N 0.59747 0.80656 0.02113 0.0
H1154 H 0.24642 0.62224 0.9369 0.0
H1155 H 0.17809 0.62697 0.05897 0.0
H1156 H 0.17931 0.6262 0.93567 0.0
H1157 H 0.24501 0.62065 0.05647 0.0
H1158 H 0.17763 0.62924 0.0142 0.0
H1159 H 0.24569 0.62436 0.98106 0.0
C1160 C 0.23148 0.62364 0.94597 0.0
C1161 C 0.21289 0.62391 0.93262 0.0
C1162 C 0.19239 0.62747 0.02353 0.0
C1163 C 0.21188 0.62622 0.98347 0.0
C1164 C 0.19265 0.6262 0.04902 0.0
C1165 C 0.2116 0.6235 0.06139 0.0
C1166 C 0.21121 0.62609 0.0105 0.0
C1167 C 0.23002 0.62259 0.0477 0.0
C1168 C 0.23106 0.62484 0.97125 0.0
C1169 C 0.194 0.62589 0.94534 0.0
N1170 N 0.22934 0.62383 0.02307 0.0
N1171 N 0.19395 0.62684 0.97015 0.0
H1172 H 0.36358 0.16684 0.05731 0.0
H1173 H 0.35221 0.23439 0.93563 0.0
H1174 H 0.35236 0.23316 0.0551 0.0
H1175 H 0.36558 0.16845 0.93473 0.0
H1176 H 0.34767 0.23276 0.97957 0.0
H1177 H 0.36003 0.16564 0.01273 0.0
C1178 C 0.36011 0.18107 0.04747 0.0
C1179 C 0.35849 0.20017 0.0598 0.0
C1180 C 0.35145 0.21856 0.96985 0.0
C1181 C 0.35445 0.19894 0.00912 0.0
C1182 C 0.35406 0.2195 0.94472 0.0
C1183 C 0.35951 0.20157 0.93161 0.0
C1184 C 0.35455 0.19959 0.98211 0.0
C1185 C 0.36147 0.18265 0.94426 0.0
C1186 C 0.35813 0.18039 0.02208 0.0
C1187 C 0.35397 0.21814 0.04628 0.0
N1188 N 0.35923 0.18218 0.96893 0.0
N1189 N 0.35225 0.2171 0.0217 0.0
H1190 H 0.81964 0.36533 0.05931 0.0
H1191 H 0.75218 0.37933 0.93754 0.0
H1192 H 0.7537 0.37839 0.057 0.0
H1193 H 0.81829 0.36709 0.93558 0.0
H1194 H 0.75307 0.37789 0.98168 0.0
H1195 H 0.82016 0.36479 0.01442 0.0
C1196 C 0.8053 0.36801 0.04939 0.0
C1197 C 0.78661 0.37196 0.06188 0.0
C1198 C 0.76745 0.37548 0.97174 0.0
C1199 C 0.78708 0.37138 0.01084 0.0
C1200 C 0.76694 0.37631 0.94644 0.0
C1201 C 0.7852 0.37338 0.93284 0.0
C1202 C 0.78638 0.37174 0.98378 0.0
C1203 C 0.80385 0.36945 0.94542 0.0
C1204 C 0.80561 0.36772 0.02383 0.0
C1205 C 0.76849 0.37534 0.04818 0.0
N1206 N 0.80399 0.36879 0.97027 0.0
N1207 N 0.76921 0.37499 0.02351 0.0
H1208 H 0.62248 0.17061 0.05707 0.0
H1209 H 0.63432 0.23773 0.93499 0.0
H1210 H 0.63122 0.2373 0.05429 0.0
H1211 H 0.62232 0.17152 0.93418 0.0
H1212 H 0.63782 0.23644 0.97905 0.0
H1213 H 0.62666 0.16922 0.01253 0.0
C1214 C 0.62552 0.18488 0.04712 0.0
C1215 C 0.62629 0.20412 0.05927 0.0
C1216 C 0.63455 0.22211 0.96934 0.0
C1217 C 0.63106 0.20268 0.00867 0.0
C1218 C 0.63255 0.22285 0.94414 0.0
C1219 C 0.62779 0.20474 0.93099 0.0
C1220 C 0.63154 0.20314 0.98166 0.0
C1221 C 0.6259 0.18585 0.94373 0.0
C1222 C 0.62785 0.1841 0.02176 0.0
C1223 C 0.63027 0.22216 0.04562 0.0
N1224 N 0.62754 0.18556 0.96848 0.0
N1225 N 0.63239 0.22099 0.0211 0.0
H1226 H 0.81876 0.63444 0.06011 0.0
H1227 H 0.78059 0.57895 0.93763 0.0
H1228 H 0.77716 0.58167 0.05635 0.0
H1229 H 0.81622 0.63601 0.93724 0.0
H1230 H 0.78523 0.57651 0.98148 0.0
H1231 H 0.82353 0.63239 0.01563 0.0
C1232 C 0.81089 0.62228 0.04996 0.0
C1233 C 0.79734 0.60837 0.06176 0.0
C1234 C 0.79221 0.58953 0.9719 0.0
C1235 C 0.80274 0.60587 0.01133 0.0
C1236 C 0.78957 0.5909 0.94683 0.0
C1237 C 0.79778 0.60787 0.93393 0.0
C1238 C 0.80288 0.6054 0.98433 0.0
C1239 C 0.80955 0.62275 0.94665 0.0
C1240 C 0.81357 0.62114 0.02466 0.0
C1241 C 0.78751 0.59289 0.04791 0.0
N1242 N 0.8115 0.62136 0.97132 0.0
N1243 N 0.79033 0.59214 0.02347 0.0
H1244 H 0.38232 0.75595 0.9353 0.0
H1245 H 0.36805 0.82395 0.05656 0.0
H1246 H 0.36951 0.82199 0.93302 0.0
H1247 H 0.3795 0.75765 0.05465 0.0
H1248 H 0.36735 0.82423 0.01169 0.0
H1249 H 0.38024 0.75688 0.9794 0.0
C1250 C 0.37904 0.7707 0.94413 0.0
C1251 C 0.37616 0.78894 0.93048 0.0
C1252 C 0.36992 0.80965 0.02118 0.0
C1253 C 0.37378 0.79018 0.98132 0.0
C1254 C 0.3703 0.80948 0.04672 0.0
C1255 C 0.37393 0.79077 0.0593 0.0
C1256 C 0.37318 0.79096 0.00833 0.0
C1257 C 0.37675 0.77246 0.04575 0.0
C1258 C 0.37783 0.77124 0.96939 0.0
C1259 C 0.37186 0.80759 0.94293 0.0
N1260 N 0.37637 0.77305 0.02109 0.0
N1261 N 0.37087 0.80777 0.96774 0.0
H1262 H 0.17081 0.36543 0.93416 0.0
H1263 H 0.23853 0.36229 0.05656 0.0
H1264 H 0.23797 0.36305 0.93694 0.0
H1265 H 0.17142 0.36646 0.05728 0.0
H1266 H 0.23779 0.35936 0.01244 0.0
H1267 H 0.16984 0.36279 0.97887 0.0
C1268 C 0.18531 0.36417 0.94415 0.0
C1269 C 0.20451 0.36462 0.93189 0.0
C1270 C 0.22316 0.36082 0.02213 0.0
C1271 C 0.20353 0.36162 0.98274 0.0
C1272 C 0.22358 0.3625 0.04739 0.0
C1273 C 0.20501 0.36479 0.06056 0.0
C1274 C 0.20402 0.36159 0.00978 0.0
C1275 C 0.18609 0.36478 0.04773 0.0
C1276 C 0.18475 0.3627 0.96962 0.0
C1277 C 0.22282 0.36293 0.94564 0.0
N1278 N 0.18607 0.36338 0.02295 0.0
N1279 N 0.22187 0.3616 0.97026 0.0
H1280 H 0.14766 0.34327 0.1731 0.0
H1281 H 0.14465 0.34087 0.31866 0.0
H1282 H 0.18622 0.38191 0.21905 0.0
H1283 H 0.10779 0.30046 0.27287 0.0
H1284 H 0.1561 0.35985 0.28236 0.0
H1285 H 0.12893 0.33119 0.20932 0.0
C1286 C 0.15199 0.34942 0.19078 0.0
C1287 C 0.16866 0.3634 0.19315 0.0
C1288 C 0.14532 0.34697 0.28027 0.0
C1289 C 0.14747 0.34959 0.23461 0.0
C1290 C 0.13877 0.33617 0.30099 0.0
C1291 C 0.12547 0.31894 0.29871 0.0
C1292 C 0.13858 0.34042 0.25713 0.0
C1293 C 0.11822 0.31355 0.27541 0.0
C1294 C 0.14133 0.3425 0.21145 0.0
C1295 C 0.17358 0.37095 0.21645 0.0
N1296 N 0.12504 0.32412 0.2555 0.0
N1297 N 0.16318 0.36378 0.2363 0.0
H1298 H 0.60114 0.19083 0.21703 0.0
H1299 H 0.68048 0.10974 0.27586 0.0
H1300 H 0.64139 0.15057 0.17512 0.0
H1301 H 0.63937 0.14873 0.31827 0.0
H1302 H 0.66317 0.12143 0.2388 0.0
H1303 H 0.61162 0.17256 0.25409 0.0
C1304 C 0.612 0.17796 0.21561 0.0
C1305 C 0.62062 0.17234 0.19304 0.0
C1306 C 0.65776 0.12731 0.25619 0.0
C1307 C 0.63279 0.15149 0.23536 0.0
C1308 C 0.66766 0.12066 0.27737 0.0
C1309 C 0.66148 0.1285 0.30012 0.0
C1310 C 0.64167 0.14207 0.25771 0.0
C1311 C 0.64468 0.14242 0.30105 0.0
C1312 C 0.61799 0.16755 0.23678 0.0
C1313 C 0.63449 0.15549 0.19219 0.0
N1314 N 0.63549 0.14897 0.28009 0.0
N1315 N 0.64034 0.1458 0.21311 0.0
H1316 H 0.79147 0.61994 0.22157 0.0
H1317 H 0.86854 0.70539 0.27516 0.0
H1318 H 0.83465 0.65434 0.17656 0.0
H1319 H 0.8407 0.65734 0.31964 0.0
H1320 H 0.85469 0.68832 0.2388 0.0
H1321 H 0.80782 0.63477 0.25784 0.0
C1322 C 0.80447 0.63056 0.21935 0.0
C1323 C 0.81172 0.636 0.19608 0.0
C1324 C 0.85171 0.68144 0.2565 0.0
C1325 C 0.83033 0.65313 0.23742 0.0
C1326 C 0.85952 0.69122 0.27725 0.0
C1327 C 0.85567 0.68277 0.3004 0.0
C1328 C 0.83974 0.66325 0.25897 0.0
C1329 C 0.844 0.66434 0.3021 0.0
C1330 C 0.81381 0.63896 0.24004 0.0
C1331 C 0.82862 0.64976 0.1942 0.0
N1332 N 0.83629 0.65526 0.28163 0.0
N1333 N 0.83727 0.65801 0.21463 0.0
H1334 H 0.34444 0.84635 0.17337 0.0
H1335 H 0.34796 0.85078 0.31882 0.0
H1336 H 0.38589 0.8096 0.21796 0.0
H1337 H 0.30416 0.88564 0.27524 0.0
H1338 H 0.3658 0.83994 0.28158 0.0
H1339 H 0.33311 0.86517 0.20994 0.0
C1340 C 0.35133 0.84244 0.1908 0.0
C1341 C 0.36588 0.82623 0.19275 0.0
C1342 C 0.35242 0.85015 0.28015 0.0
C1343 C 0.35303 0.84754 0.23451 0.0
C1344 C 0.34226 0.85636 0.30141 0.0
C1345 C 0.32442 0.86888 0.30005 0.0
C1346 C 0.34457 0.8564 0.25738 0.0
C1347 C 0.31777 0.8758 0.27706 0.0
C1348 C 0.34486 0.85314 0.21165 0.0
C1349 C 0.37441 0.82182 0.21571 0.0
N1350 N 0.3277 0.86926 0.25659 0.0
N1351 N 0.36773 0.83228 0.23571 0.0
H1352 H 0.15484 0.64728 0.82064 0.0
H1353 H 0.1483 0.65101 0.67497 0.0
H1354 H 0.19457 0.61126 0.77315 0.0
H1355 H 0.11417 0.69205 0.72285 0.0
H1356 H 0.16145 0.63223 0.71072 0.0
H1357 H 0.13569 0.65973 0.78497 0.0
C1358 C 0.15936 0.6418 0.80273 0.0
C1359 C 0.17643 0.62842 0.79979 0.0
C1360 C 0.15093 0.64524 0.71336 0.0
C1361 C 0.15475 0.64266 0.75893 0.0
C1362 C 0.14341 0.65591 0.69298 0.0
C1363 C 0.13034 0.67322 0.69601 0.0
C1364 C 0.14527 0.65195 0.73685 0.0
C1365 C 0.12441 0.67891 0.71971 0.0
C1366 C 0.14848 0.64894 0.78236 0.0
C1367 C 0.18161 0.62173 0.77619 0.0
N1368 N 0.13203 0.66839 0.73922 0.0
N1369 N 0.17092 0.62906 0.75663 0.0
H1370 H 0.34639 0.14541 0.67366 0.0
H1371 H 0.34521 0.14598 0.81888 0.0
H1372 H 0.30637 0.10622 0.7173 0.0
H1373 H 0.38549 0.1848 0.7751 0.0
H1374 H 0.33477 0.12718 0.78207 0.0
H1375 H 0.36487 0.15592 0.71061 0.0
C1376 C 0.34169 0.1388 0.69099 0.0
C1377 C 0.32466 0.12518 0.69252 0.0
C1378 C 0.3461 0.13964 0.78056 0.0
C1379 C 0.34554 0.13725 0.73484 0.0
C1380 C 0.35207 0.15034 0.80156 0.0
C1381 C 0.36598 0.16714 0.79993 0.0
C1382 C 0.35402 0.14589 0.7578 0.0
C1383 C 0.37451 0.17208 0.7771 0.0
C1384 C 0.35222 0.14482 0.71209 0.0
C1385 C 0.31929 0.11696 0.71537 0.0
N1386 N 0.3682 0.16167 0.75688 0.0
N1387 N 0.32953 0.12332 0.73569 0.0
H1388 H 0.88198 0.29683 0.72112 0.0
H1389 H 0.80309 0.38197 0.77321 0.0
H1390 H 0.8453 0.33781 0.67586 0.0
H1391 H 0.83966 0.34127 0.81893 0.0
H1392 H 0.82159 0.36884 0.73757 0.0
H1393 H 0.86991 0.31566 0.75714 0.0
C1394 C 0.87155 0.30995 0.71875 0.0
C1395 C 0.86445 0.31566 0.6955 0.0
C1396 C 0.82574 0.36289 0.75539 0.0
C1397 C 0.85047 0.33719 0.73666 0.0
C1398 C 0.81518 0.37039 0.77577 0.0
C1399 C 0.81972 0.36252 0.79902 0.0
C1400 C 0.84087 0.34728 0.75822 0.0
C1401 C 0.83562 0.34766 0.8013 0.0
C1402 C 0.86466 0.32068 0.73933 0.0
C1403 C 0.85105 0.33282 0.69347 0.0
N1404 N 0.84549 0.34035 0.78109 0.0
N1405 N 0.84434 0.34286 0.71382 0.0
H1406 H 0.66221 0.88264 0.69401 0.0
H1407 H 0.65812 0.78711 0.78681 0.0
H1408 H 0.70326 0.82946 0.68973 0.0
H1409 H 0.63377 0.84781 0.80531 0.0
H1410 H 0.67171 0.80138 0.74881 0.0
H1411 H 0.64826 0.869 0.73254 0.0
C1412 C 0.66817 0.86805 0.70111 0.0
C1413 C 0.68387 0.85711 0.68873 0.0
C1414 C 0.66348 0.81162 0.7612 0.0
C1415 C 0.66807 0.84154 0.7325 0.0
C1416 C 0.65569 0.80349 0.78287 0.0
C1417 C 0.64486 0.81634 0.79919 0.0
C1418 C 0.66017 0.83271 0.75561 0.0
C1419 C 0.64215 0.83743 0.79322 0.0
C1420 C 0.66032 0.86037 0.72311 0.0
C1421 C 0.69116 0.83838 0.69872 0.0
N1422 N 0.64966 0.84498 0.77176 0.0
N1423 N 0.68315 0.83114 0.71998 0.0
H1424 H 0.83582 0.65958 0.67419 0.0
H1425 H 0.83287 0.6573 0.81978 0.0
H1426 H 0.86435 0.70696 0.71898 0.0
H1427 H 0.78793 0.62505 0.77504 0.0
H1428 H 0.8484 0.67222 0.78283 0.0
H1429 H 0.82166 0.64324 0.71108 0.0
C1430 C 0.83911 0.6665 0.69178 0.0
C1431 C 0.85117 0.68466 0.6936 0.0
C1432 C 0.83515 0.66185 0.78116 0.0
C1433 C 0.83529 0.66604 0.73567 0.0
C1434 C 0.82636 0.6533 0.80218 0.0
C1435 C 0.80908 0.64003 0.80039 0.0
C1436 C 0.82673 0.65685 0.75826 0.0
C1437 C 0.8012 0.63533 0.77719 0.0
C1438 C 0.83102 0.65722 0.71277 0.0
C1439 C 0.85501 0.69302 0.71679 0.0
N1440 N 0.81012 0.6437 0.75699 0.0
N1441 N 0.84715 0.6836 0.73695 0.0
H1442 H 0.38755 0.80892 0.77219 0.0
H1443 H 0.30136 0.88554 0.71842 0.0
H1444 H 0.34417 0.84309 0.81712 0.0
H1445 H 0.34453 0.85022 0.67443 0.0
H1446 H 0.31998 0.8743 0.755 0.0
H1447 H 0.37523 0.82799 0.73664 0.0
C1448 C 0.37553 0.8206 0.77459 0.0
C1449 C 0.36664 0.82426 0.79754 0.0
C1450 C 0.32553 0.86921 0.73733 0.0
C1451 C 0.35232 0.84606 0.75685 0.0
C1452 C 0.31493 0.87563 0.71645 0.0
C1453 C 0.32129 0.86856 0.69342 0.0
C1454 C 0.34254 0.85558 0.73511 0.0
C1455 C 0.339 0.85587 0.69187 0.0
C1456 C 0.36851 0.83151 0.75427 0.0
C1457 C 0.35131 0.83972 0.79968 0.0
N1458 N 0.34888 0.84961 0.71246 0.0
N1459 N 0.34443 0.8499 0.77949 0.0
H1460 H 0.14729 0.34224 0.67283 0.0
H1461 H 0.14836 0.34461 0.81837 0.0
H1462 H 0.10834 0.30331 0.71808 0.0
H1463 H 0.18844 0.38239 0.77313 0.0
H1464 H 0.12972 0.33318 0.78185 0.0
H1465 H 0.15873 0.36102 0.70926 0.0
C1466 C 0.14094 0.33784 0.6904 0.0
C1467 C 0.12707 0.32105 0.69251 0.0
C1468 C 0.14244 0.34416 0.77994 0.0
C1469 C 0.14016 0.34228 0.73423 0.0
C1470 C 0.15305 0.3507 0.80078 0.0
C1471 C 0.17011 0.36424 0.7987 0.0
C1472 C 0.14903 0.35116 0.75689 0.0
C1473 C 0.1755 0.37175 0.77551 0.0
C1474 C 0.14749 0.34853 0.71119 0.0
C1475 C 0.11923 0.31604 0.71567 0.0
N1476 N 0.16513 0.36494 0.75548 0.0
N1477 N 0.12606 0.32646 0.73566 0.0
H1478 H 0.64177 0.14544 0.67183 0.0
H1479 H 0.64371 0.14902 0.81752 0.0
H1480 H 0.68549 0.11157 0.71655 0.0
H1481 H 0.60507 0.18891 0.77317 0.0
H1482 H 0.65452 0.13033 0.7808 0.0
H1483 H 0.6236 0.15679 0.70884 0.0
C1484 C 0.64736 0.14018 0.68941 0.0
C1485 C 0.66528 0.1278 0.69121 0.0
C1486 C 0.6435 0.14303 0.77912 0.0
C1487 C 0.64473 0.14069 0.73346 0.0
C1488 C 0.6373 0.15366 0.80009 0.0
C1489 C 0.62371 0.17069 0.7983 0.0
C1490 C 0.63609 0.14954 0.75625 0.0
C1491 C 0.61577 0.17599 0.77529 0.0
C1492 C 0.63704 0.14668 0.71051 0.0
C1493 C 0.67186 0.12134 0.71439 0.0
N1494 N 0.62224 0.16559 0.75511 0.0
N1495 N 0.66169 0.128 0.73461 0.0
H1496 H 0.80302 0.37792 0.22192 0.0
H1497 H 0.87993 0.29074 0.27353 0.0
H1498 H 0.83919 0.33708 0.1759 0.0
H1499 H 0.84386 0.33212 0.31901 0.0
H1500 H 0.86824 0.30996 0.23761 0.0
H1501 H 0.82085 0.3639 0.25754 0.0
C1502 C 0.81488 0.36611 0.2193 0.0
C1503 C 0.81951 0.35849 0.19595 0.0
C1504 C 0.86303 0.31497 0.25545 0.0
C1505 C 0.83989 0.34223 0.23672 0.0
C1506 C 0.8697 0.30401 0.27597 0.0
C1507 C 0.86269 0.30975 0.29925 0.0
C1508 C 0.84916 0.33173 0.25822 0.0
C1509 C 0.84955 0.32711 0.30138 0.0
C1510 C 0.82506 0.35811 0.23967 0.0
C1511 C 0.8351 0.34331 0.1936 0.0
N1512 N 0.84306 0.33738 0.28109 0.0
N1513 N 0.8446 0.33551 0.21379 0.0
H1514 H 0.65888 0.8405 0.17708 0.0
H1515 H 0.65069 0.84397 0.3224 0.0
H1516 H 0.61972 0.79887 0.21866 0.0
H1517 H 0.70389 0.86733 0.28269 0.0
H1518 H 0.63553 0.83194 0.2839 0.0
H1519 H 0.67201 0.85532 0.21532 0.0
C1520 C 0.65296 0.8346 0.19425 0.0
C1521 C 0.63832 0.81839 0.1948 0.0
C1522 C 0.65051 0.83974 0.28366 0.0
C1523 C 0.65308 0.83525 0.23835 0.0
C1524 C 0.65912 0.84662 0.30557 0.0
C1525 C 0.6786 0.85651 0.30566 0.0
C1526 C 0.66135 0.84305 0.26175 0.0
C1527 C 0.68889 0.85962 0.28339 0.0
C1528 C 0.66049 0.84299 0.21601 0.0
C1529 C 0.63113 0.81127 0.21748 0.0
N1530 N 0.68012 0.85293 0.26228 0.0
N1531 N 0.63857 0.81977 0.23838 0.0
H1532 H 0.1505 0.65274 0.32017 0.0
H1533 H 0.15521 0.64827 0.17439 0.0
H1534 H 0.11607 0.69387 0.27271 0.0
H1535 H 0.19535 0.61229 0.22141 0.0
H1536 H 0.13673 0.6612 0.21034 0.0
H1537 H 0.16327 0.63391 0.28427 0.0
C1538 C 0.14548 0.65766 0.30222 0.0
C1539 C 0.1324 0.67499 0.29935 0.0
C1540 C 0.14946 0.65033 0.21278 0.0
C1541 C 0.1469 0.65363 0.25834 0.0
C1542 C 0.15996 0.6429 0.19226 0.0
C1543 C 0.17695 0.62938 0.19497 0.0
C1544 C 0.15603 0.64417 0.23614 0.0
C1545 C 0.18244 0.62286 0.21853 0.0
C1546 C 0.15278 0.64695 0.28176 0.0
C1547 C 0.1263 0.6807 0.27572 0.0
N1548 N 0.17211 0.63045 0.23823 0.0
N1549 N 0.1337 0.67013 0.25612 0.0
H1550 H 0.34581 0.14536 0.31889 0.0
H1551 H 0.34322 0.14533 0.17368 0.0
H1552 H 0.30563 0.10572 0.27611 0.0
H1553 H 0.38397 0.18429 0.21658 0.0
H1554 H 0.3331 0.12673 0.21078 0.0
H1555 H 0.36385 0.15584 0.28159 0.0
C1556 C 0.34099 0.13865 0.30168 0.0
C1557 C 0.32403 0.1249 0.3005 0.0
C1558 C 0.34446 0.13918 0.21204 0.0
C1559 C 0.3444 0.13694 0.25778 0.0
C1560 C 0.35025 0.14977 0.19086 0.0
C1561 C 0.36421 0.16655 0.19216 0.0
C1562 C 0.35263 0.14552 0.23462 0.0
C1563 C 0.37295 0.17159 0.21483 0.0
C1564 C 0.35126 0.14464 0.28038 0.0
C1565 C 0.31849 0.11655 0.27778 0.0
N1566 N 0.36683 0.16128 0.23522 0.0
N1567 N 0.32848 0.1229 0.25726 0.0
loop_
_geom_bond_atom_site_label_1
_geom_bond_atom_site_label_2
_geom_bond_distance
_geom_bond_site_symmetry_2
_ccdc_geom_bond_type
In0 O1 2.294 . S
In0 O2 2.326 . S
In0 O6 2.266 . S
In0 O7 2.326 . S
In0 O8 2.266 . S
In0 O9 2.326 . S
In0 O11 2.294 . S
In0 O12 2.326 . S
O1 In0 2.294 . S
O1 C10 1.240 . S
O2 In0 2.326 . S
O2 C10 1.252 . S
C3 O6 1.252 . S
C3 O7 1.260 . S
C4 O11 1.240 . S
C4 O12 1.252 . S
C5 O8 1.252 . S
C5 O9 1.260 . S
O6 In0 2.266 . S
O6 C3 1.252 . S
O7 In0 2.326 . S
O7 C3 1.260 . S
O8 In0 2.266 . S
O8 C5 1.252 . S
O9 In0 2.326 . S
O9 C5 1.260 . S
C10 O1 1.240 . S
C10 O2 1.252 . S
O11 In0 2.294 . S
O11 C4 1.240 . S
O12 In0 2.326 . S
O12 C4 1.252 . S
In13 O14 2.294 . S
In13 O15 2.326 . S
In13 O19 2.266 . S
In13 O20 2.326 . S
In13 O21 2.266 . S
In13 O22 2.326 . S
In13 O24 2.294 . S
In13 O25 2.326 . S
O14 In13 2.294 . S
O14 C23 1.240 . S
O15 In13 2.326 . S
O15 C23 1.252 . S
C16 O19 1.252 . S
C16 O20 1.260 . S
C17 O24 1.240 . S
C17 O25 1.252 . S
C18 O21 1.252 . S
C18 O22 1.260 . S
O19 In13 2.266 . S
O19 C16 1.252 . S
O20 In13 2.326 . S
O20 C16 1.260 . S
O21 In13 2.266 . S
O21 C18 1.252 . S
O22 In13 2.326 . S
O22 C18 1.260 . S
C23 O14 1.240 . S
C23 O15 1.252 . S
O24 In13 2.294 . S
O24 C17 1.240 . S
O25 In13 2.326 . S
O25 C17 1.252 . S
In26 O27 2.294 . S
In26 O28 2.326 . S
In26 O32 2.266 . S
In26 O33 2.326 . S
In26 O34 2.266 . S
In26 O35 2.326 . S
In26 O37 2.294 . S
In26 O38 2.326 . S
O27 In26 2.294 . S
O27 C36 1.240 . S
O28 In26 2.326 . S
O28 C36 1.252 . S
C29 O32 1.252 . S
C29 O33 1.260 . S
C30 O37 1.240 . S
C30 O38 1.252 . S
C31 O34 1.252 . S
C31 O35 1.260 . S
O32 In26 2.266 . S
O32 C29 1.252 . S
O33 In26 2.326 . S
O33 C29 1.260 . S
O34 In26 2.266 . S
O34 C31 1.252 . S
O35 In26 2.326 . S
O35 C31 1.260 . S
C36 O27 1.240 . S
C36 O28 1.252 . S
O37 In26 2.294 . S
O37 C30 1.240 . S
O38 In26 2.326 . S
O38 C30 1.252 . S
In39 O40 2.294 . S
In39 O41 2.326 . S
In39 O45 2.266 . S
In39 O46 2.326 . S
In39 O47 2.266 . S
In39 O48 2.326 . S
In39 O50 2.294 . S
In39 O51 2.326 . S
O40 In39 2.294 . S
O40 C49 1.240 . S
O41 In39 2.326 . S
O41 C49 1.252 . S
C42 O45 1.252 . S
C42 O46 1.260 . S
C43 O50 1.240 . S
C43 O51 1.252 . S
C44 O47 1.252 . S
C44 O48 1.260 . S
O45 In39 2.266 . S
O45 C42 1.252 . S
O46 In39 2.326 . S
O46 C42 1.260 . S
O47 In39 2.266 . S
O47 C44 1.252 . S
O48 In39 2.326 . S
O48 C44 1.260 . S
C49 O40 1.240 . S
C49 O41 1.252 . S
O50 In39 2.294 . S
O50 C43 1.240 . S
O51 In39 2.326 . S
O51 C43 1.252 . S
In52 O53 2.294 . S
In52 O54 2.326 . S
In52 O58 2.266 . S
In52 O59 2.326 . S
In52 O60 2.266 . S
In52 O61 2.326 . S
In52 O63 2.294 . S
In52 O64 2.326 . S
O53 In52 2.294 . S
O53 C62 1.240 . S
O54 In52 2.326 . S
O54 C62 1.252 . S
C55 O58 1.252 . S
C55 O59 1.260 . S
C56 O63 1.240 . S
C56 O64 1.252 . S
C57 O60 1.252 . S
C57 O61 1.260 . S
O58 In52 2.266 . S
O58 C55 1.252 . S
O59 In52 2.326 . S
O59 C55 1.260 . S
O60 In52 2.266 . S
O60 C57 1.252 . S
O61 In52 2.326 . S
O61 C57 1.260 . S
C62 O53 1.240 . S
C62 O54 1.252 . S
O63 In52 2.294 . S
O63 C56 1.240 . S
O64 In52 2.326 . S
O64 C56 1.252 . S
In65 O66 2.294 . S
In65 O67 2.326 . S
In65 O71 2.266 . S
In65 O72 2.326 . S
In65 O73 2.266 . S
In65 O74 2.326 . S
In65 O76 2.294 . S
In65 O77 2.326 . S
O66 In65 2.294 . S
O66 C75 1.240 . S
O67 In65 2.326 . S
O67 C75 1.252 . S
C68 O71 1.252 . S
C68 O72 1.260 . S
C69 O76 1.240 . S
C69 O77 1.252 . S
C70 O73 1.252 . S
C70 O74 1.260 . S
O71 In65 2.266 . S
O71 C68 1.252 . S
O72 In65 2.326 . S
O72 C68 1.260 . S
O73 In65 2.266 . S
O73 C70 1.252 . S
O74 In65 2.326 . S
O74 C70 1.260 . S
C75 O66 1.240 . S
C75 O67 1.252 . S
O76 In65 2.294 . S
O76 C69 1.240 . S
O77 In65 2.326 . S
O77 C69 1.252 . S
In78 O79 2.294 . S
In78 O80 2.326 . S
In78 O84 2.266 . S
In78 O85 2.326 . S
In78 O86 2.266 . S
In78 O87 2.326 . S
In78 O89 2.294 . S
In78 O90 2.326 . S
O79 In78 2.294 . S
O79 C88 1.240 . S
O80 In78 2.326 . S
O80 C88 1.252 . S
C81 O84 1.252 . S
C81 O85 1.260 . S
C82 O89 1.240 . S
C82 O90 1.252 . S
C83 O86 1.252 . S
C83 O87 1.260 . S
O84 In78 2.266 . S
O84 C81 1.252 . S
O85 In78 2.326 . S
O85 C81 1.260 . S
O86 In78 2.266 . S
O86 C83 1.252 . S
O87 In78 2.326 . S
O87 C83 1.260 . S
C88 O79 1.240 . S
C88 O80 1.252 . S
O89 In78 2.294 . S
O89 C82 1.240 . S
O90 In78 2.326 . S
O90 C82 1.252 . S
In91 O92 2.294 . S
In91 O93 2.326 . S
In91 O97 2.266 . S
In91 O98 2.326 . S
In91 O99 2.266 . S
In91 O100 2.326 . S
In91 O102 2.294 . S
In91 O103 2.326 . S
O92 In91 2.294 . S
O92 C101 1.240 . S
O93 In91 2.326 . S
O93 C101 1.252 . S
C94 O97 1.252 . S
C94 O98 1.260 . S
C95 O102 1.240 . S
C95 O103 1.252 . S
C96 O99 1.252 . S
C96 O100 1.260 . S
O97 In91 2.266 . S
O97 C94 1.252 . S
O98 In91 2.326 . S
O98 C94 1.260 . S
O99 In91 2.266 . S
O99 C96 1.252 . S
O100 In91 2.326 . S
O100 C96 1.260 . S
C101 O92 1.240 . S
C101 O93 1.252 . S
O102 In91 2.294 . S
O102 C95 1.240 . S
O103 In91 2.326 . S
O103 C95 1.252 . S
In104 O105 2.294 . S
In104 O106 2.326 . S
In104 O110 2.266 . S
In104 O111 2.326 . S
In104 O112 2.266 . S
In104 O113 2.326 . S
In104 O115 2.294 . S
In104 O116 2.326 . S
O105 In104 2.294 . S
O105 C114 1.240 . S
O106 In104 2.326 . S
O106 C114 1.252 . S
C107 O110 1.252 . S
C107 O111 1.260 . S
C108 O115 1.240 . S
C108 O116 1.252 . S
C109 O112 1.252 . S
C109 O113 1.260 . S
O110 In104 2.266 . S
O110 C107 1.252 . S
O111 In104 2.326 . S
O111 C107 1.260 . S
O112 In104 2.266 . S
O112 C109 1.252 . S
O113 In104 2.326 . S
O113 C109 1.260 . S
C114 O105 1.240 . S
C114 O106 1.252 . S
O115 In104 2.294 . S
O115 C108 1.240 . S
O116 In104 2.326 . S
O116 C108 1.252 . S
In117 O118 2.294 . S
In117 O119 2.326 . S
In117 O123 2.266 . S
In117 O124 2.326 . S
In117 O125 2.266 . S
In117 O126 2.326 . S
In117 O128 2.294 . S
In117 O129 2.326 . S
O118 In117 2.294 . S
O118 C127 1.240 . S
O119 In117 2.326 . S
O119 C127 1.252 . S
C120 O123 1.252 . S
C120 O124 1.260 . S
C121 O128 1.240 . S
C121 O129 1.252 . S
C122 O125 1.252 . S
C122 O126 1.260 . S
O123 In117 2.266 . S
O123 C120 1.252 . S
O124 In117 2.326 . S
O124 C120 1.260 . S
O125 In117 2.266 . S
O125 C122 1.252 . S
O126 In117 2.326 . S
O126 C122 1.260 . S
C127 O118 1.240 . S
C127 O119 1.252 . S
O128 In117 2.294 . S
O128 C121 1.240 . S
O129 In117 2.326 . S
O129 C121 1.252 . S
In130 O131 2.294 . S
In130 O132 2.326 . S
In130 O136 2.266 . S
In130 O137 2.326 . S
In130 O138 2.266 . S
In130 O139 2.326 . S
In130 O141 2.294 . S
In130 O142 2.326 . S
O131 In130 2.294 . S
O131 C140 1.240 . S
O132 In130 2.326 . S
O132 C140 1.252 . S
C133 O136 1.252 . S
C133 O137 1.260 . S
C134 O141 1.240 . S
C134 O142 1.252 . S
C135 O138 1.252 . S
C135 O139 1.260 . S
O136 In130 2.266 . S
O136 C133 1.252 . S
O137 In130 2.326 . S
O137 C133 1.260 . S
O138 In130 2.266 . S
O138 C135 1.252 . S
O139 In130 2.326 . S
O139 C135 1.260 . S
C140 O131 1.240 . S
C140 O132 1.252 . S
O141 In130 2.294 . S
O141 C134 1.240 . S
O142 In130 2.326 . S
O142 C134 1.252 . S
In143 O144 2.294 . S
In143 O145 2.326 . S
In143 O149 2.266 . S
In143 O150 2.326 . S
In143 O151 2.266 . S
In143 O152 2.326 . S
In143 O154 2.294 . S
In143 O155 2.326 . S
O144 In143 2.294 . S
O144 C153 1.240 . S
O145 In143 2.326 . S
O145 C153 1.252 . S
C146 O149 1.252 . S
C146 O150 1.260 . S
C147 O154 1.240 . S
C147 O155 1.252 . S
C148 O151 1.252 . S
C148 O152 1.260 . S
O149 In143 2.266 . S
O149 C146 1.252 . S
O150 In143 2.326 . S
O150 C146 1.260 . S
O151 In143 2.266 . S
O151 C148 1.252 . S
O152 In143 2.326 . S
O152 C148 1.260 . S
C153 O144 1.240 . S
C153 O145 1.252 . S
O154 In143 2.294 . S
O154 C147 1.240 . S
O155 In143 2.326 . S
O155 C147 1.252 . S
In156 O157 2.294 . S
In156 O158 2.326 . S
In156 O162 2.266 . S
In156 O163 2.326 . S
In156 O164 2.266 . S
In156 O165 2.326 . S
In156 O167 2.294 . S
In156 O168 2.326 . S
O157 In156 2.294 . S
O157 C166 1.240 . S
O158 In156 2.326 . S
O158 C166 1.252 . S
C159 O162 1.252 . S
C159 O163 1.260 . S
C160 O167 1.240 . S
C160 O168 1.252 . S
C161 O164 1.252 . S
C161 O165 1.260 . S
O162 In156 2.266 . S
O162 C159 1.252 . S
O163 In156 2.326 . S
O163 C159 1.260 . S
O164 In156 2.266 . S
O164 C161 1.252 . S
O165 In156 2.326 . S
O165 C161 1.260 . S
C166 O157 1.240 . S
C166 O158 1.252 . S
O167 In156 2.294 . S
O167 C160 1.240 . S
O168 In156 2.326 . S
O168 C160 1.252 . S
In169 O170 2.294 . S
In169 O171 2.326 . S
In169 O175 2.266 . S
In169 O176 2.326 . S
In169 O177 2.266 . S
In169 O178 2.326 . S
In169 O180 2.294 . S
In169 O181 2.326 . S
O170 In169 2.294 . S
O170 C179 1.240 . S
O171 In169 2.326 . S
O171 C179 1.252 . S
C172 O175 1.252 . S
C172 O176 1.260 . S
C173 O180 1.240 . S
C173 O181 1.252 . S
C174 O177 1.252 . S
C174 O178 1.260 . S
O175 In169 2.266 . S
O175 C172 1.252 . S
O176 In169 2.326 . S
O176 C172 1.260 . S
O177 In169 2.266 . S
O177 C174 1.252 . S
O178 In169 2.326 . S
O178 C174 1.260 . S
C179 O170 1.240 . S
C179 O171 1.252 . S
O180 In169 2.294 . S
O180 C173 1.240 . S
O181 In169 2.326 . S
O181 C173 1.252 . S
In182 O183 2.294 . S
In182 O184 2.326 . S
In182 O188 2.266 . S
In182 O189 2.326 . S
In182 O190 2.266 . S
In182 O191 2.326 . S
In182 O193 2.294 . S
In182 O194 2.326 . S
O183 In182 2.294 . S
O183 C192 1.240 . S
O184 In182 2.326 . S
O184 C192 1.252 . S
C185 O188 1.252 . S
C185 O189 1.260 . S
C186 O193 1.240 . S
C186 O194 1.252 . S
C187 O190 1.252 . S
C187 O191 1.260 . S
O188 In182 2.266 . S
O188 C185 1.252 . S
O189 In182 2.326 . S
O189 C185 1.260 . S
O190 In182 2.266 . S
O190 C187 1.252 . S
O191 In182 2.326 . S
O191 C187 1.260 . S
C192 O183 1.240 . S
C192 O184 1.252 . S
O193 In182 2.294 . S
O193 C186 1.240 . S
O194 In182 2.326 . S
O194 C186 1.252 . S
In195 O196 2.294 . S
In195 O197 2.326 . S
In195 O201 2.266 . S
In195 O202 2.326 . S
In195 O203 2.266 . S
In195 O204 2.326 . S
In195 O206 2.294 . S
In195 O207 2.326 . S
O196 In195 2.294 . S
O196 C205 1.240 . S
O197 In195 2.326 . S
O197 C205 1.252 . S
C198 O201 1.252 . S
C198 O202 1.260 . S
C199 O206 1.240 . S
C199 O207 1.252 . S
C200 O203 1.252 . S
C200 O204 1.260 . S
O201 In195 2.266 . S
O201 C198 1.252 . S
O202 In195 2.326 . S
O202 C198 1.260 . S
O203 In195 2.266 . S
O203 C200 1.252 . S
O204 In195 2.326 . S
O204 C200 1.260 . S
C205 O196 1.240 . S
C205 O197 1.252 . S
O206 In195 2.294 . S
O206 C199 1.240 . S
O207 In195 2.326 . S
O207 C199 1.252 . S
In208 O209 2.294 . S
In208 O210 2.326 . S
In208 O214 2.266 . S
In208 O215 2.326 . S
In208 O216 2.266 . S
In208 O217 2.326 . S
In208 O219 2.294 . S
In208 O220 2.326 . S
O209 In208 2.294 . S
O209 C218 1.240 . S
O210 In208 2.326 . S
O210 C218 1.252 . S
C211 O214 1.252 . S
C211 O215 1.260 . S
C212 O219 1.240 . S
C212 O220 1.252 . S
C213 O216 1.252 . S
C213 O217 1.260 . S
O214 In208 2.266 . S
O214 C211 1.252 . S
O215 In208 2.326 . S
O215 C211 1.260 . S
O216 In208 2.266 . S
O216 C213 1.252 . S
O217 In208 2.326 . S
O217 C213 1.260 . S
C218 O209 1.240 . S
C218 O210 1.252 . S
O219 In208 2.294 . S
O219 C212 1.240 . S
O220 In208 2.326 . S
O220 C212 1.252 . S
In221 O222 2.294 . S
In221 O223 2.326 . S
In221 O227 2.266 . S
In221 O228 2.326 . S
In221 O229 2.266 . S
In221 O230 2.326 . S
In221 O232 2.294 . S
In221 O233 2.326 . S
O222 In221 2.294 . S
O222 C231 1.240 . S
O223 In221 2.326 . S
O223 C231 1.252 . S
C224 O227 1.252 . S
C224 O228 1.260 . S
C225 O232 1.240 . S
C225 O233 1.252 . S
C226 O229 1.252 . S
C226 O230 1.260 . S
O227 In221 2.266 . S
O227 C224 1.252 . S
O228 In221 2.326 . S
O228 C224 1.260 . S
O229 In221 2.266 . S
O229 C226 1.252 . S
O230 In221 2.326 . S
O230 C226 1.260 . S
C231 O222 1.240 . S
C231 O223 1.252 . S
O232 In221 2.294 . S
O232 C225 1.240 . S
O233 In221 2.326 . S
O233 C225 1.252 . S
In234 O235 2.294 . S
In234 O236 2.326 . S
In234 O240 2.266 . S
In234 O241 2.326 . S
In234 O242 2.266 . S
In234 O243 2.326 . S
In234 O245 2.294 . S
In234 O246 2.326 . S
O235 In234 2.294 . S
O235 C244 1.240 . S
O236 In234 2.326 . S
O236 C244 1.252 . S
C237 O240 1.252 . S
C237 O241 1.260 . S
C238 O245 1.240 . S
C238 O246 1.252 . S
C239 O242 1.252 . S
C239 O243 1.260 . S
O240 In234 2.266 . S
O240 C237 1.252 . S
O241 In234 2.326 . S
O241 C237 1.260 . S
O242 In234 2.266 . S
O242 C239 1.252 . S
O243 In234 2.326 . S
O243 C239 1.260 . S
C244 O235 1.240 . S
C244 O236 1.252 . S
O245 In234 2.294 . S
O245 C238 1.240 . S
O246 In234 2.326 . S
O246 C238 1.252 . S
In247 O248 2.294 . S
In247 O249 2.326 . S
In247 O253 2.266 . S
In247 O254 2.326 . S
In247 O255 2.266 . S
In247 O256 2.326 . S
In247 O258 2.294 . S
In247 O259 2.326 . S
O248 In247 2.294 . S
O248 C257 1.240 . S
O249 In247 2.326 . S
O249 C257 1.252 . S
C250 O253 1.252 . S
C250 O254 1.260 . S
C251 O258 1.240 . S
C251 O259 1.252 . S
C252 O255 1.252 . S
C252 O256 1.260 . S
O253 In247 2.266 . S
O253 C250 1.252 . S
O254 In247 2.326 . S
O254 C250 1.260 . S
O255 In247 2.266 . S
O255 C252 1.252 . S
O256 In247 2.326 . S
O256 C252 1.260 . S
C257 O248 1.240 . S
C257 O249 1.252 . S
O258 In247 2.294 . S
O258 C251 1.240 . S
O259 In247 2.326 . S
O259 C251 1.252 . S
In260 O261 2.294 . S
In260 O262 2.326 . S
In260 O266 2.266 . S
In260 O267 2.326 . S
In260 O268 2.266 . S
In260 O269 2.326 . S
In260 O271 2.294 . S
In260 O272 2.326 . S
O261 In260 2.294 . S
O261 C270 1.240 . S
O262 In260 2.326 . S
O262 C270 1.252 . S
C263 O266 1.252 . S
C263 O267 1.260 . S
C264 O271 1.240 . S
C264 O272 1.252 . S
C265 O268 1.252 . S
C265 O269 1.260 . S
O266 In260 2.266 . S
O266 C263 1.252 . S
O267 In260 2.326 . S
O267 C263 1.260 . S
O268 In260 2.266 . S
O268 C265 1.252 . S
O269 In260 2.326 . S
O269 C265 1.260 . S
C270 O261 1.240 . S
C270 O262 1.252 . S
O271 In260 2.294 . S
O271 C264 1.240 . S
O272 In260 2.326 . S
O272 C264 1.252 . S
In273 O274 2.294 . S
In273 O275 2.326 . S
In273 O279 2.266 . S
In273 O280 2.326 . S
In273 O281 2.266 . S
In273 O282 2.326 . S
In273 O284 2.294 . S
In273 O285 2.326 . S
O274 In273 2.294 . S
O274 C283 1.240 . S
O275 In273 2.326 . S
O275 C283 1.252 . S
C276 O279 1.252 . S
C276 O280 1.260 . S
C277 O284 1.240 . S
C277 O285 1.252 . S
C278 O281 1.252 . S
C278 O282 1.260 . S
O279 In273 2.266 . S
O279 C276 1.252 . S
O280 In273 2.326 . S
O280 C276 1.260 . S
O281 In273 2.266 . S
O281 C278 1.252 . S
O282 In273 2.326 . S
O282 C278 1.260 . S
C283 O274 1.240 . S
C283 O275 1.252 . S
O284 In273 2.294 . S
O284 C277 1.240 . S
O285 In273 2.326 . S
O285 C277 1.252 . S
In286 O287 2.294 . S
In286 O288 2.326 . S
In286 O292 2.266 . S
In286 O293 2.326 . S
In286 O294 2.266 . S
In286 O295 2.326 . S
In286 O297 2.294 . S
In286 O298 2.326 . S
O287 In286 2.294 . S
O287 C296 1.240 . S
O288 In286 2.326 . S
O288 C296 1.252 . S
C289 O292 1.252 . S
C289 O293 1.260 . S
C290 O297 1.240 . S
C290 O298 1.252 . S
C291 O294 1.252 . S
C291 O295 1.260 . S
O292 In286 2.266 . S
O292 C289 1.252 . S
O293 In286 2.326 . S
O293 C289 1.260 . S
O294 In286 2.266 . S
O294 C291 1.252 . S
O295 In286 2.326 . S
O295 C291 1.260 . S
C296 O287 1.240 . S
C296 O288 1.252 . S
O297 In286 2.294 . S
O297 C290 1.240 . S
O298 In286 2.326 . S
O298 C290 1.252 . S
In299 O300 2.294 . S
In299 O301 2.326 . S
In299 O305 2.266 . S
In299 O306 2.326 . S
In299 O307 2.266 . S
In299 O308 2.326 . S
In299 O310 2.294 . S
In299 O311 2.326 . S
O300 In299 2.294 . S
O300 C309 1.240 . S
O301 In299 2.326 . S
O301 C309 1.252 . S
C302 O305 1.252 . S
C302 O306 1.260 . S
C303 O310 1.240 . S
C303 O311 1.252 . S
C304 O307 1.252 . S
C304 O308 1.260 . S
O305 In299 2.266 . S
O305 C302 1.252 . S
O306 In299 2.326 . S
O306 C302 1.260 . S
O307 In299 2.266 . S
O307 C304 1.252 . S
O308 In299 2.326 . S
O308 C304 1.260 . S
C309 O300 1.240 . S
C309 O301 1.252 . S
O310 In299 2.294 . S
O310 C303 1.240 . S
O311 In299 2.326 . S
O311 C303 1.252 . S
In312 O313 2.294 . S
In312 O314 2.326 . S
In312 O318 2.266 . S
In312 O319 2.326 . S
In312 O320 2.266 . S
In312 O321 2.326 . S
In312 O323 2.294 . S
In312 O324 2.326 . S
O313 In312 2.294 . S
O313 C322 1.240 . S
O314 In312 2.326 . S
O314 C322 1.252 . S
C315 O318 1.252 . S
C315 O319 1.260 . S
C316 O323 1.240 . S
C316 O324 1.252 . S
C317 O320 1.252 . S
C317 O321 1.260 . S
O318 In312 2.266 . S
O318 C315 1.252 . S
O319 In312 2.326 . S
O319 C315 1.260 . S
O320 In312 2.266 . S
O320 C317 1.252 . S
O321 In312 2.326 . S
O321 C317 1.260 . S
C322 O313 1.240 . S
C322 O314 1.252 . S
O323 In312 2.294 . S
O323 C316 1.240 . S
O324 In312 2.326 . S
O324 C316 1.252 . S
In325 O326 2.294 . S
In325 O327 2.326 . S
In325 O331 2.266 . S
In325 O332 2.326 . S
In325 O333 2.266 . S
In325 O334 2.326 . S
In325 O336 2.294 . S
In325 O337 2.326 . S
O326 In325 2.294 . S
O326 C335 1.240 . S
O327 In325 2.326 . S
O327 C335 1.252 . S
C328 O331 1.252 . S
C328 O332 1.260 . S
C329 O336 1.240 . S
C329 O337 1.252 . S
C330 O333 1.252 . S
C330 O334 1.260 . S
O331 In325 2.266 . S
O331 C328 1.252 . S
O332 In325 2.326 . S
O332 C328 1.260 . S
O333 In325 2.266 . S
O333 C330 1.252 . S
O334 In325 2.326 . S
O334 C330 1.260 . S
C335 O326 1.240 . S
C335 O327 1.252 . S
O336 In325 2.294 . S
O336 C329 1.240 . S
O337 In325 2.326 . S
O337 C329 1.252 . S
In338 O339 2.294 . S
In338 O340 2.326 . S
In338 O344 2.266 . S
In338 O345 2.326 . S
In338 O346 2.266 . S
In338 O347 2.326 . S
In338 O349 2.294 . S
In338 O350 2.326 . S
O339 In338 2.294 . S
O339 C348 1.240 . S
O340 In338 2.326 . S
O340 C348 1.252 . S
C341 O344 1.252 . S
C341 O345 1.260 . S
C342 O349 1.240 . S
C342 O350 1.252 . S
C343 O346 1.252 . S
C343 O347 1.260 . S
O344 In338 2.266 . S
O344 C341 1.252 . S
O345 In338 2.326 . S
O345 C341 1.260 . S
O346 In338 2.266 . S
O346 C343 1.252 . S
O347 In338 2.326 . S
O347 C343 1.260 . S
C348 O339 1.240 . S
C348 O340 1.252 . S
O349 In338 2.294 . S
O349 C342 1.240 . S
O350 In338 2.326 . S
O350 C342 1.252 . S
In351 O352 2.294 . S
In351 O353 2.326 . S
In351 O357 2.266 . S
In351 O358 2.326 . S
In351 O359 2.266 . S
In351 O360 2.326 . S
In351 O362 2.294 . S
In351 O363 2.326 . S
O352 In351 2.294 . S
O352 C361 1.240 . S
O353 In351 2.326 . S
O353 C361 1.252 . S
C354 O357 1.252 . S
C354 O358 1.260 . S
C355 O362 1.240 . S
C355 O363 1.252 . S
C356 O359 1.252 . S
C356 O360 1.260 . S
O357 In351 2.266 . S
O357 C354 1.252 . S
O358 In351 2.326 . S
O358 C354 1.260 . S
O359 In351 2.266 . S
O359 C356 1.252 . S
O360 In351 2.326 . S
O360 C356 1.260 . S
C361 O352 1.240 . S
C361 O353 1.252 . S
O362 In351 2.294 . S
O362 C355 1.240 . S
O363 In351 2.326 . S
O363 C355 1.252 . S
In364 O365 2.294 . S
In364 O366 2.326 . S
In364 O370 2.266 . S
In364 O371 2.326 . S
In364 O372 2.266 . S
In364 O373 2.326 . S
In364 O375 2.294 . S
In364 O376 2.326 . S
O365 In364 2.294 . S
O365 C374 1.240 . S
O366 In364 2.326 . S
O366 C374 1.252 . S
C367 O370 1.252 . S
C367 O371 1.260 . S
C368 O375 1.240 . S
C368 O376 1.252 . S
C369 O372 1.252 . S
C369 O373 1.260 . S
O370 In364 2.266 . S
O370 C367 1.252 . S
O371 In364 2.326 . S
O371 C367 1.260 . S
O372 In364 2.266 . S
O372 C369 1.252 . S
O373 In364 2.326 . S
O373 C369 1.260 . S
C374 O365 1.240 . S
C374 O366 1.252 . S
O375 In364 2.294 . S
O375 C368 1.240 . S
O376 In364 2.326 . S
O376 C368 1.252 . S
In377 O378 2.294 . S
In377 O379 2.326 . S
In377 O383 2.266 . S
In377 O384 2.326 . S
In377 O385 2.266 . S
In377 O386 2.326 . S
In377 O388 2.294 . S
In377 O389 2.326 . S
O378 In377 2.294 . S
O378 C387 1.240 . S
O379 In377 2.326 . S
O379 C387 1.252 . S
C380 O383 1.252 . S
C380 O384 1.260 . S
C381 O388 1.240 . S
C381 O389 1.252 . S
C382 O385 1.252 . S
C382 O386 1.260 . S
O383 In377 2.266 . S
O383 C380 1.252 . S
O384 In377 2.326 . S
O384 C380 1.260 . S
O385 In377 2.266 . S
O385 C382 1.252 . S
O386 In377 2.326 . S
O386 C382 1.260 . S
C387 O378 1.240 . S
C387 O379 1.252 . S
O388 In377 2.294 . S
O388 C381 1.240 . S
O389 In377 2.326 . S
O389 C381 1.252 . S
In390 O391 2.294 . S
In390 O392 2.326 . S
In390 O396 2.266 . S
In390 O397 2.326 . S
In390 O398 2.266 . S
In390 O399 2.326 . S
In390 O401 2.294 . S
In390 O402 2.326 . S
O391 In390 2.294 . S
O391 C400 1.240 . S
O392 In390 2.326 . S
O392 C400 1.252 . S
C393 O396 1.252 . S
C393 O397 1.260 . S
C394 O401 1.240 . S
C394 O402 1.252 . S
C395 O398 1.252 . S
C395 O399 1.260 . S
O396 In390 2.266 . S
O396 C393 1.252 . S
O397 In390 2.326 . S
O397 C393 1.260 . S
O398 In390 2.266 . S
O398 C395 1.252 . S
O399 In390 2.326 . S
O399 C395 1.260 . S
C400 O391 1.240 . S
C400 O392 1.252 . S
O401 In390 2.294 . S
O401 C394 1.240 . S
O402 In390 2.326 . S
O402 C394 1.252 . S
In403 O404 2.294 . S
In403 O405 2.326 . S
In403 O409 2.266 . S
In403 O410 2.326 . S
In403 O411 2.266 . S
In403 O412 2.326 . S
In403 O414 2.294 . S
In403 O415 2.326 . S
O404 In403 2.294 . S
O404 C413 1.240 . S
O405 In403 2.326 . S
O405 C413 1.252 . S
C406 O409 1.252 . S
C406 O410 1.260 . S
C407 O414 1.240 . S
C407 O415 1.252 . S
C408 O411 1.252 . S
C408 O412 1.260 . S
O409 In403 2.266 . S
O409 C406 1.252 . S
O410 In403 2.326 . S
O410 C406 1.260 . S
O411 In403 2.266 . S
O411 C408 1.252 . S
O412 In403 2.326 . S
O412 C408 1.260 . S
C413 O404 1.240 . S
C413 O405 1.252 . S
O414 In403 2.294 . S
O414 C407 1.240 . S
O415 In403 2.326 . S
O415 C407 1.252 . S
H416 C422 0.930 . S
H417 C426 0.930 . S
H418 C431 0.929 . S
H419 C429 0.929 . S
H420 C424 0.929 . S
H421 C430 0.929 . S
C422 H416 0.930 . S
C422 C423 1.367 . S
C422 C430 1.378 . S
C423 C422 1.367 . S
C423 C431 1.433 . S
C424 H420 0.929 . S
C424 C426 1.378 . S
C424 C428 1.350 . S
C425 C428 1.463 . S
C425 C430 1.350 . S
C425 N433 1.427 . S
C426 H417 0.930 . S
C426 C424 1.378 . S
C426 C427 1.367 . S
C427 C426 1.367 . S
C427 C429 1.433 . S
C428 C424 1.350 . S
C428 C425 1.463 . S
C428 N432 1.427 . S
C429 H419 0.929 . S
C429 C427 1.433 . S
C429 N432 1.384 . S
C430 H421 0.929 . S
C430 C422 1.378 . S
C430 C425 1.350 . S
C431 H418 0.929 . S
C431 C423 1.433 . S
C431 N433 1.384 . S
N432 C428 1.427 . S
N432 C429 1.384 . S
N433 C425 1.427 . S
N433 C431 1.384 . S
H434 C440 0.930 . S
H435 C444 0.930 . S
H436 C449 0.929 . S
H437 C447 0.929 . S
H438 C442 0.929 . S
H439 C448 0.929 . S
C440 H434 0.930 . S
C440 C441 1.367 . S
C440 C448 1.378 . S
C441 C440 1.367 . S
C441 C449 1.433 . S
C442 H438 0.929 . S
C442 C444 1.378 . S
C442 C446 1.350 . S
C443 C446 1.463 . S
C443 C448 1.350 . S
C443 N451 1.427 . S
C444 H435 0.930 . S
C444 C442 1.378 . S
C444 C445 1.367 . S
C445 C444 1.367 . S
C445 C447 1.433 . S
C446 C442 1.350 . S
C446 C443 1.463 . S
C446 N450 1.427 . S
C447 H437 0.929 . S
C447 C445 1.433 . S
C447 N450 1.384 . S
C448 H439 0.929 . S
C448 C440 1.378 . S
C448 C443 1.350 . S
C449 H436 0.929 . S
C449 C441 1.433 . S
C449 N451 1.384 . S
N450 C446 1.427 . S
N450 C447 1.384 . S
N451 C443 1.427 . S
N451 C449 1.384 . S
H452 C458 0.930 . S
H453 C462 0.930 . S
H454 C467 0.929 . S
H455 C465 0.929 . S
H456 C460 0.929 . S
H457 C466 0.929 . S
C458 H452 0.930 . S
C458 C459 1.367 . S
C458 C466 1.378 . S
C459 C458 1.367 . S
C459 C467 1.433 . S
C460 H456 0.929 . S
C460 C462 1.378 . S
C460 C464 1.350 . S
C461 C464 1.463 . S
C461 C466 1.350 . S
C461 N469 1.427 . S
C462 H453 0.930 . S
C462 C460 1.378 . S
C462 C463 1.367 . S
C463 C462 1.367 . S
C463 C465 1.433 . S
C464 C460 1.350 . S
C464 C461 1.463 . S
C464 N468 1.427 . S
C465 H455 0.929 . S
C465 C463 1.433 . S
C465 N468 1.384 . S
C466 H457 0.929 . S
C466 C458 1.378 . S
C466 C461 1.350 . S
C467 H454 0.929 . S
C467 C459 1.433 . S
C467 N469 1.384 . S
N468 C464 1.427 . S
N468 C465 1.384 . S
N469 C461 1.427 . S
N469 C467 1.384 . S
H470 C476 0.930 . S
H471 C480 0.930 . S
H472 C485 0.929 . S
H473 C483 0.929 . S
H474 C478 0.929 . S
H475 C484 0.929 . S
C476 H470 0.930 . S
C476 C477 1.367 . S
C476 C484 1.378 . S
C477 C476 1.367 . S
C477 C485 1.433 . S
C478 H474 0.929 . S
C478 C480 1.378 . S
C478 C482 1.350 . S
C479 C482 1.463 . S
C479 C484 1.350 . S
C479 N487 1.427 . S
C480 H471 0.930 . S
C480 C478 1.378 . S
C480 C481 1.367 . S
C481 C480 1.367 . S
C481 C483 1.433 . S
C482 C478 1.350 . S
C482 C479 1.463 . S
C482 N486 1.427 . S
C483 H473 0.929 . S
C483 C481 1.433 . S
C483 N486 1.384 . S
C484 H475 0.929 . S
C484 C476 1.378 . S
C484 C479 1.350 . S
C485 H472 0.929 . S
C485 C477 1.433 . S
C485 N487 1.384 . S
N486 C482 1.427 . S
N486 C483 1.384 . S
N487 C479 1.427 . S
N487 C485 1.384 . S
H488 C494 0.930 . S
H489 C498 0.930 . S
H490 C503 0.929 . S
H491 C501 0.929 . S
H492 C496 0.929 . S
H493 C502 0.929 . S
C494 H488 0.930 . S
C494 C495 1.367 . S
C494 C502 1.378 . S
C495 C494 1.367 . S
C495 C503 1.433 . S
C496 H492 0.929 . S
C496 C498 1.378 . S
C496 C500 1.350 . S
C497 C500 1.463 . S
C497 C502 1.350 . S
C497 N505 1.427 . S
C498 H489 0.930 . S
C498 C496 1.378 . S
C498 C499 1.367 . S
C499 C498 1.367 . S
C499 C501 1.433 . S
C500 C496 1.350 . S
C500 C497 1.463 . S
C500 N504 1.427 . S
C501 H491 0.929 . S
C501 C499 1.433 . S
C501 N504 1.384 . S
C502 H493 0.929 . S
C502 C494 1.378 . S
C502 C497 1.350 . S
C503 H490 0.929 . S
C503 C495 1.433 . S
C503 N505 1.384 . S
N504 C500 1.427 . S
N504 C501 1.384 . S
N505 C497 1.427 . S
N505 C503 1.384 . S
H506 C512 0.930 . S
H507 C516 0.930 . S
H508 C521 0.929 . S
H509 C519 0.929 . S
H510 C514 0.929 . S
H511 C520 0.929 . S
C512 H506 0.930 . S
C512 C513 1.367 . S
C512 C520 1.378 . S
C513 C512 1.367 . S
C513 C521 1.433 . S
C514 H510 0.929 . S
C514 C516 1.378 . S
C514 C518 1.350 . S
C515 C518 1.463 . S
C515 C520 1.350 . S
C515 N523 1.427 . S
C516 H507 0.930 . S
C516 C514 1.378 . S
C516 C517 1.367 . S
C517 C516 1.367 . S
C517 C519 1.433 . S
C518 C514 1.350 . S
C518 C515 1.463 . S
C518 N522 1.427 . S
C519 H509 0.929 . S
C519 C517 1.433 . S
C519 N522 1.384 . S
C520 H511 0.929 . S
C520 C512 1.378 . S
C520 C515 1.350 . S
C521 H508 0.929 . S
C521 C513 1.433 . S
C521 N523 1.384 . S
N522 C518 1.427 . S
N522 C519 1.384 . S
N523 C515 1.427 . S
N523 C521 1.384 . S
H524 C530 0.930 . S
H525 C534 0.930 . S
H526 C539 0.929 . S
H527 C537 0.929 . S
H528 C532 0.929 . S
H529 C538 0.929 . S
C530 H524 0.930 . S
C530 C531 1.367 . S
C530 C538 1.378 . S
C531 C530 1.367 . S
C531 C539 1.433 . S
C532 H528 0.929 . S
C532 C534 1.378 . S
C532 C536 1.350 . S
C533 C536 1.463 . S
C533 C538 1.350 . S
C533 N541 1.427 . S
C534 H525 0.930 . S
C534 C532 1.378 . S
C534 C535 1.367 . S
C535 C534 1.367 . S
C535 C537 1.433 . S
C536 C532 1.350 . S
C536 C533 1.463 . S
C536 N540 1.427 . S
C537 H527 0.929 . S
C537 C535 1.433 . S
C537 N540 1.384 . S
C538 H529 0.929 . S
C538 C530 1.378 . S
C538 C533 1.350 . S
C539 H526 0.929 . S
C539 C531 1.433 . S
C539 N541 1.384 . S
N540 C536 1.427 . S
N540 C537 1.384 . S
N541 C533 1.427 . S
N541 C539 1.384 . S
H542 C548 0.930 . S
H543 C552 0.930 . S
H544 C557 0.929 . S
H545 C555 0.929 . S
H546 C550 0.929 . S
H547 C556 0.929 . S
C548 H542 0.930 . S
C548 C549 1.367 . S
C548 C556 1.378 . S
C549 C548 1.367 . S
C549 C557 1.433 . S
C550 H546 0.929 . S
C550 C552 1.378 . S
C550 C554 1.350 . S
C551 C554 1.463 . S
C551 C556 1.350 . S
C551 N559 1.427 . S
C552 H543 0.930 . S
C552 C550 1.378 . S
C552 C553 1.367 . S
C553 C552 1.367 . S
C553 C555 1.433 . S
C554 C550 1.350 . S
C554 C551 1.463 . S
C554 N558 1.427 . S
C555 H545 0.929 . S
C555 C553 1.433 . S
C555 N558 1.384 . S
C556 H547 0.929 . S
C556 C548 1.378 . S
C556 C551 1.350 . S
C557 H544 0.929 . S
C557 C549 1.433 . S
C557 N559 1.384 . S
N558 C554 1.427 . S
N558 C555 1.384 . S
N559 C551 1.427 . S
N559 C557 1.384 . S
H560 C566 0.930 . S
H561 C570 0.930 . S
H562 C575 0.929 . S
H563 C573 0.929 . S
H564 C568 0.929 . S
H565 C574 0.929 . S
C566 H560 0.930 . S
C566 C567 1.367 . S
C566 C574 1.378 . S
C567 C566 1.367 . S
C567 C575 1.433 . S
C568 H564 0.929 . S
C568 C570 1.378 . S
C568 C572 1.350 . S
C569 C572 1.463 . S
C569 C574 1.350 . S
C569 N577 1.427 . S
C570 H561 0.930 . S
C570 C568 1.378 . S
C570 C571 1.367 . S
C571 C570 1.367 . S
C571 C573 1.433 . S
C572 C568 1.350 . S
C572 C569 1.463 . S
C572 N576 1.427 . S
C573 H563 0.929 . S
C573 C571 1.433 . S
C573 N576 1.384 . S
C574 H565 0.929 . S
C574 C566 1.378 . S
C574 C569 1.350 . S
C575 H562 0.929 . S
C575 C567 1.433 . S
C575 N577 1.384 . S
N576 C572 1.427 . S
N576 C573 1.384 . S
N577 C569 1.427 . S
N577 C575 1.384 . S
H578 C584 0.930 . S
H579 C588 0.930 . S
H580 C593 0.929 . S
H581 C591 0.929 . S
H582 C586 0.929 . S
H583 C592 0.929 . S
C584 H578 0.930 . S
C584 C585 1.367 . S
C584 C592 1.378 . S
C585 C584 1.367 . S
C585 C593 1.433 . S
C586 H582 0.929 . S
C586 C588 1.378 . S
C586 C590 1.350 . S
C587 C590 1.463 . S
C587 C592 1.350 . S
C587 N595 1.427 . S
C588 H579 0.930 . S
C588 C586 1.378 . S
C588 C589 1.367 . S
C589 C588 1.367 . S
C589 C591 1.433 . S
C590 C586 1.350 . S
C590 C587 1.463 . S
C590 N594 1.427 . S
C591 H581 0.929 . S
C591 C589 1.433 . S
C591 N594 1.384 . S
C592 H583 0.929 . S
C592 C584 1.378 . S
C592 C587 1.350 . S
C593 H580 0.929 . S
C593 C585 1.433 . S
C593 N595 1.384 . S
N594 C590 1.427 . S
N594 C591 1.384 . S
N595 C587 1.427 . S
N595 C593 1.384 . S
H596 C602 0.930 . S
H597 C606 0.930 . S
H598 C611 0.929 . S
H599 C609 0.929 . S
H600 C604 0.929 . S
H601 C610 0.929 . S
C602 H596 0.930 . S
C602 C603 1.367 . S
C602 C610 1.378 . S
C603 C602 1.367 . S
C603 C611 1.433 . S
C604 H600 0.929 . S
C604 C606 1.378 . S
C604 C608 1.350 . S
C605 C608 1.463 . S
C605 C610 1.350 . S
C605 N613 1.427 . S
C606 H597 0.930 . S
C606 C604 1.378 . S
C606 C607 1.367 . S
C607 C606 1.367 . S
C607 C609 1.433 . S
C608 C604 1.350 . S
C608 C605 1.463 . S
C608 N612 1.427 . S
C609 H599 0.929 . S
C609 C607 1.433 . S
C609 N612 1.384 . S
C610 H601 0.929 . S
C610 C602 1.378 . S
C610 C605 1.350 . S
C611 H598 0.929 . S
C611 C603 1.433 . S
C611 N613 1.384 . S
N612 C608 1.427 . S
N612 C609 1.384 . S
N613 C605 1.427 . S
N613 C611 1.384 . S
H614 C620 0.930 . S
H615 C624 0.930 . S
H616 C629 0.929 . S
H617 C627 0.929 . S
H618 C622 0.929 . S
H619 C628 0.929 . S
C620 H614 0.930 . S
C620 C621 1.367 . S
C620 C628 1.378 . S
C621 C620 1.367 . S
C621 C629 1.433 . S
C622 H618 0.929 . S
C622 C624 1.378 . S
C622 C626 1.350 . S
C623 C626 1.463 . S
C623 C628 1.350 . S
C623 N631 1.427 . S
C624 H615 0.930 . S
C624 C622 1.378 . S
C624 C625 1.367 . S
C625 C624 1.367 . S
C625 C627 1.433 . S
C626 C622 1.350 . S
C626 C623 1.463 . S
C626 N630 1.427 . S
C627 H617 0.929 . S
C627 C625 1.433 . S
C627 N630 1.384 . S
C628 H619 0.929 . S
C628 C620 1.378 . S
C628 C623 1.350 . S
C629 H616 0.929 . S
C629 C621 1.433 . S
C629 N631 1.384 . S
N630 C626 1.427 . S
N630 C627 1.384 . S
N631 C623 1.427 . S
N631 C629 1.384 . S
H632 C638 0.930 . S
H633 C642 0.930 . S
H634 C647 0.929 . S
H635 C645 0.929 . S
H636 C640 0.929 . S
H637 C646 0.929 . S
C638 H632 0.930 . S
C638 C639 1.367 . S
C638 C646 1.378 . S
C639 C638 1.367 . S
C639 C647 1.433 . S
C640 H636 0.929 . S
C640 C642 1.378 . S
C640 C644 1.350 . S
C641 C644 1.463 . S
C641 C646 1.350 . S
C641 N649 1.427 . S
C642 H633 0.930 . S
C642 C640 1.378 . S
C642 C643 1.367 . S
C643 C642 1.367 . S
C643 C645 1.433 . S
C644 C640 1.350 . S
C644 C641 1.463 . S
C644 N648 1.427 . S
C645 H635 0.929 . S
C645 C643 1.433 . S
C645 N648 1.384 . S
C646 H637 0.929 . S
C646 C638 1.378 . S
C646 C641 1.350 . S
C647 H634 0.929 . S
C647 C639 1.433 . S
C647 N649 1.384 . S
N648 C644 1.427 . S
N648 C645 1.384 . S
N649 C641 1.427 . S
N649 C647 1.384 . S
H650 C656 0.930 . S
H651 C660 0.930 . S
H652 C665 0.929 . S
H653 C663 0.929 . S
H654 C658 0.929 . S
H655 C664 0.929 . S
C656 H650 0.930 . S
C656 C657 1.367 . S
C656 C664 1.378 . S
C657 C656 1.367 . S
C657 C665 1.433 . S
C658 H654 0.929 . S
C658 C660 1.378 . S
C658 C662 1.350 . S
C659 C662 1.463 . S
C659 C664 1.350 . S
C659 N667 1.427 . S
C660 H651 0.930 . S
C660 C658 1.378 . S
C660 C661 1.367 . S
C661 C660 1.367 . S
C661 C663 1.433 . S
C662 C658 1.350 . S
C662 C659 1.463 . S
C662 N666 1.427 . S
C663 H653 0.929 . S
C663 C661 1.433 . S
C663 N666 1.384 . S
C664 H655 0.929 . S
C664 C656 1.378 . S
C664 C659 1.350 . S
C665 H652 0.929 . S
C665 C657 1.433 . S
C665 N667 1.384 . S
N666 C662 1.427 . S
N666 C663 1.384 . S
N667 C659 1.427 . S
N667 C665 1.384 . S
H668 C674 0.930 . S
H669 C678 0.930 . S
H670 C683 0.929 . S
H671 C681 0.929 . S
H672 C676 0.929 . S
H673 C682 0.929 . S
C674 H668 0.930 . S
C674 C675 1.367 . S
C674 C682 1.378 . S
C675 C674 1.367 . S
C675 C683 1.433 . S
C676 H672 0.929 . S
C676 C678 1.378 . S
C676 C680 1.350 . S
C677 C680 1.463 . S
C677 C682 1.350 . S
C677 N685 1.427 . S
C678 H669 0.930 . S
C678 C676 1.378 . S
C678 C679 1.367 . S
C679 C678 1.367 . S
C679 C681 1.433 . S
C680 C676 1.350 . S
C680 C677 1.463 . S
C680 N684 1.427 . S
C681 H671 0.929 . S
C681 C679 1.433 . S
C681 N684 1.384 . S
C682 H673 0.929 . S
C682 C674 1.378 . S
C682 C677 1.350 . S
C683 H670 0.929 . S
C683 C675 1.433 . S
C683 N685 1.384 . S
N684 C680 1.427 . S
N684 C681 1.384 . S
N685 C677 1.427 . S
N685 C683 1.384 . S
H686 C692 0.930 . S
H687 C696 0.930 . S
H688 C701 0.929 . S
H689 C699 0.929 . S
H690 C694 0.929 . S
H691 C700 0.929 . S
C692 H686 0.930 . S
C692 C693 1.367 . S
C692 C700 1.378 . S
C693 C692 1.367 . S
C693 C701 1.433 . S
C694 H690 0.929 . S
C694 C696 1.378 . S
C694 C698 1.350 . S
C695 C698 1.463 . S
C695 C700 1.350 . S
C695 N703 1.427 . S
C696 H687 0.930 . S
C696 C694 1.378 . S
C696 C697 1.367 . S
C697 C696 1.367 . S
C697 C699 1.433 . S
C698 C694 1.350 . S
C698 C695 1.463 . S
C698 N702 1.427 . S
C699 H689 0.929 . S
C699 C697 1.433 . S
C699 N702 1.384 . S
C700 H691 0.929 . S
C700 C692 1.378 . S
C700 C695 1.350 . S
C701 H688 0.929 . S
C701 C693 1.433 . S
C701 N703 1.384 . S
N702 C698 1.427 . S
N702 C699 1.384 . S
N703 C695 1.427 . S
N703 C701 1.384 . S
H704 C710 0.930 . S
H705 C714 0.930 . S
H706 C719 0.929 . S
H707 C717 0.929 . S
H708 C712 0.929 . S
H709 C718 0.929 . S
C710 H704 0.930 . S
C710 C711 1.367 . S
C710 C718 1.378 . S
C711 C710 1.367 . S
C711 C719 1.433 . S
C712 H708 0.929 . S
C712 C714 1.378 . S
C712 C716 1.350 . S
C713 C716 1.463 1_655 S
C713 C718 1.350 . S
C713 N721 1.427 . S
C714 H705 0.930 . S
C714 C712 1.378 . S
C714 C715 1.367 . S
C715 C714 1.367 . S
C715 C717 1.433 . S
C716 C712 1.350 . S
C716 C713 1.463 1_455 S
C716 N720 1.427 . S
C717 H707 0.929 . S
C717 C715 1.433 . S
C717 N720 1.384 . S
C718 H709 0.929 . S
C718 C710 1.378 . S
C718 C713 1.350 . S
C719 H706 0.929 . S
C719 C711 1.433 . S
C719 N721 1.384 . S
N720 C716 1.427 . S
N720 C717 1.384 . S
N721 C713 1.427 . S
N721 C719 1.384 . S
H722 C728 0.930 . S
H723 C732 0.930 . S
H724 C737 0.929 . S
H725 C735 0.929 . S
H726 C730 0.929 . S
H727 C736 0.929 . S
C728 H722 0.930 . S
C728 C729 1.367 . S
C728 C736 1.378 . S
C729 C728 1.367 . S
C729 C737 1.433 . S
C730 H726 0.929 . S
C730 C732 1.378 . S
C730 C734 1.350 . S
C731 C734 1.463 1_545 S
C731 C736 1.350 . S
C731 N739 1.427 . S
C732 H723 0.930 . S
C732 C730 1.378 . S
C732 C733 1.367 . S
C733 C732 1.367 . S
C733 C735 1.433 . S
C734 C730 1.350 . S
C734 C731 1.463 1_565 S
C734 N738 1.427 . S
C735 H725 0.929 . S
C735 C733 1.433 . S
C735 N738 1.384 . S
C736 H727 0.929 . S
C736 C728 1.378 . S
C736 C731 1.350 . S
C737 H724 0.929 . S
C737 C729 1.433 . S
C737 N739 1.384 . S
N738 C734 1.427 . S
N738 C735 1.384 . S
N739 C731 1.427 . S
N739 C737 1.384 . S
H740 C746 0.930 . S
H741 C750 0.930 . S
H742 C755 0.929 . S
H743 C753 0.929 . S
H744 C748 0.929 . S
H745 C754 0.929 . S
C746 H740 0.930 . S
C746 C747 1.367 . S
C746 C754 1.378 . S
C747 C746 1.367 . S
C747 C755 1.433 . S
C748 H744 0.929 . S
C748 C750 1.378 . S
C748 C752 1.350 . S
C749 C752 1.463 1_455 S
C749 C754 1.350 . S
C749 N757 1.427 . S
C750 H741 0.930 . S
C750 C748 1.378 . S
C750 C751 1.367 . S
C751 C750 1.367 . S
C751 C753 1.433 . S
C752 C748 1.350 . S
C752 C749 1.463 1_655 S
C752 N756 1.427 . S
C753 H743 0.929 . S
C753 C751 1.433 . S
C753 N756 1.384 . S
C754 H745 0.929 . S
C754 C746 1.378 . S
C754 C749 1.350 . S
C755 H742 0.929 . S
C755 C747 1.433 . S
C755 N757 1.384 . S
N756 C752 1.427 . S
N756 C753 1.384 . S
N757 C749 1.427 . S
N757 C755 1.384 . S
H758 C764 0.930 . S
H759 C768 0.930 . S
H760 C773 0.929 . S
H761 C771 0.929 . S
H762 C766 0.929 . S
H763 C772 0.929 . S
C764 H758 0.930 . S
C764 C765 1.367 . S
C764 C772 1.378 . S
C765 C764 1.367 . S
C765 C773 1.433 . S
C766 H762 0.929 . S
C766 C768 1.378 . S
C766 C770 1.350 . S
C767 C770 1.463 1_565 S
C767 C772 1.350 . S
C767 N775 1.427 . S
C768 H759 0.930 . S
C768 C766 1.378 . S
C768 C769 1.367 . S
C769 C768 1.367 . S
C769 C771 1.433 . S
C770 C766 1.350 . S
C770 C767 1.463 1_545 S
C770 N774 1.427 . S
C771 H761 0.929 . S
C771 C769 1.433 . S
C771 N774 1.384 . S
C772 H763 0.929 . S
C772 C764 1.378 . S
C772 C767 1.350 . S
C773 H760 0.929 . S
C773 C765 1.433 . S
C773 N775 1.384 . S
N774 C770 1.427 . S
N774 C771 1.384 . S
N775 C767 1.427 . S
N775 C773 1.384 . S
H776 C782 0.930 . S
H777 C786 0.930 . S
H778 C791 0.929 . S
H779 C789 0.929 . S
H780 C784 0.929 . S
H781 C790 0.929 . S
C782 H776 0.930 . S
C782 C783 1.367 . S
C782 C790 1.378 . S
C783 C782 1.367 . S
C783 C791 1.433 . S
C784 H780 0.929 . S
C784 C786 1.378 . S
C784 C788 1.350 . S
C785 C788 1.463 1_455 S
C785 C790 1.350 . S
C785 N793 1.427 . S
C786 H777 0.930 . S
C786 C784 1.378 . S
C786 C787 1.367 . S
C787 C786 1.367 . S
C787 C789 1.433 . S
C788 C784 1.350 . S
C788 C785 1.463 1_655 S
C788 N792 1.427 . S
C789 H779 0.929 . S
C789 C787 1.433 . S
C789 N792 1.384 . S
C790 H781 0.929 . S
C790 C782 1.378 . S
C790 C785 1.350 . S
C791 H778 0.929 . S
C791 C783 1.433 . S
C791 N793 1.384 . S
N792 C788 1.427 . S
N792 C789 1.384 . S
N793 C785 1.427 . S
N793 C791 1.384 . S
H794 C800 0.930 . S
H795 C804 0.930 . S
H796 C809 0.929 . S
H797 C807 0.929 . S
H798 C802 0.929 . S
H799 C808 0.929 . S
C800 H794 0.930 . S
C800 C801 1.367 . S
C800 C808 1.378 . S
C801 C800 1.367 . S
C801 C809 1.433 . S
C802 H798 0.929 . S
C802 C804 1.378 . S
C802 C806 1.350 . S
C803 C806 1.463 1_565 S
C803 C808 1.350 . S
C803 N811 1.427 . S
C804 H795 0.930 . S
C804 C802 1.378 . S
C804 C805 1.367 . S
C805 C804 1.367 . S
C805 C807 1.433 . S
C806 C802 1.350 . S
C806 C803 1.463 1_545 S
C806 N810 1.427 . S
C807 H797 0.929 . S
C807 C805 1.433 . S
C807 N810 1.384 . S
C808 H799 0.929 . S
C808 C800 1.378 . S
C808 C803 1.350 . S
C809 H796 0.929 . S
C809 C801 1.433 . S
C809 N811 1.384 . S
N810 C806 1.427 . S
N810 C807 1.384 . S
N811 C803 1.427 . S
N811 C809 1.384 . S
H812 C818 0.930 . S
H813 C822 0.930 . S
H814 C827 0.929 . S
H815 C825 0.929 . S
H816 C820 0.929 . S
H817 C826 0.929 . S
C818 H812 0.930 . S
C818 C819 1.367 . S
C818 C826 1.378 . S
C819 C818 1.367 . S
C819 C827 1.433 . S
C820 H816 0.929 . S
C820 C822 1.378 . S
C820 C824 1.350 . S
C821 C824 1.463 1_455 S
C821 C826 1.350 . S
C821 N829 1.427 . S
C822 H813 0.930 . S
C822 C820 1.378 . S
C822 C823 1.367 . S
C823 C822 1.367 . S
C823 C825 1.433 . S
C824 C820 1.350 . S
C824 C821 1.463 1_655 S
C824 N828 1.427 . S
C825 H815 0.929 . S
C825 C823 1.433 . S
C825 N828 1.384 . S
C826 H817 0.929 . S
C826 C818 1.378 . S
C826 C821 1.350 . S
C827 H814 0.929 . S
C827 C819 1.433 . S
C827 N829 1.384 . S
N828 C824 1.427 . S
N828 C825 1.384 . S
N829 C821 1.427 . S
N829 C827 1.384 . S
H830 C836 0.930 . S
H831 C840 0.930 . S
H832 C845 0.929 . S
H833 C843 0.929 . S
H834 C838 0.929 . S
H835 C844 0.929 . S
C836 H830 0.930 . S
C836 C837 1.367 . S
C836 C844 1.378 . S
C837 C836 1.367 . S
C837 C845 1.433 . S
C838 H834 0.929 . S
C838 C840 1.378 . S
C838 C842 1.350 . S
C839 C842 1.463 1_545 S
C839 C844 1.350 . S
C839 N847 1.427 . S
C840 H831 0.930 . S
C840 C838 1.378 . S
C840 C841 1.367 . S
C841 C840 1.367 . S
C841 C843 1.433 . S
C842 C838 1.350 . S
C842 C839 1.463 1_565 S
C842 N846 1.427 . S
C843 H833 0.929 . S
C843 C841 1.433 . S
C843 N846 1.384 . S
C844 H835 0.929 . S
C844 C836 1.378 . S
C844 C839 1.350 . S
C845 H832 0.929 . S
C845 C837 1.433 . S
C845 N847 1.384 . S
N846 C842 1.427 . S
N846 C843 1.384 . S
N847 C839 1.427 . S
N847 C845 1.384 . S
H848 C854 0.930 . S
H849 C858 0.930 . S
H850 C863 0.929 . S
H851 C861 0.929 . S
H852 C856 0.929 . S
H853 C862 0.929 . S
C854 H848 0.930 . S
C854 C855 1.367 . S
C854 C862 1.378 . S
C855 C854 1.367 . S
C855 C863 1.433 . S
C856 H852 0.929 . S
C856 C858 1.378 . S
C856 C860 1.350 . S
C857 C860 1.463 . S
C857 C862 1.350 . S
C857 N865 1.427 . S
C858 H849 0.930 . S
C858 C856 1.378 . S
C858 C859 1.367 . S
C859 C858 1.367 . S
C859 C861 1.433 . S
C860 C856 1.350 . S
C860 C857 1.463 . S
C860 N864 1.427 . S
C861 H851 0.929 . S
C861 C859 1.433 . S
C861 N864 1.384 . S
C862 H853 0.929 . S
C862 C854 1.378 . S
C862 C857 1.350 . S
C863 H850 0.929 . S
C863 C855 1.433 . S
C863 N865 1.384 . S
N864 C860 1.427 . S
N864 C861 1.384 . S
N865 C857 1.427 . S
N865 C863 1.384 . S
H866 C872 0.930 . S
H867 C876 0.930 . S
H868 C881 0.929 . S
H869 C879 0.929 . S
H870 C874 0.929 . S
H871 C880 0.929 . S
C872 H866 0.930 . S
C872 C873 1.367 . S
C872 C880 1.378 . S
C873 C872 1.367 . S
C873 C881 1.433 . S
C874 H870 0.929 . S
C874 C876 1.378 . S
C874 C878 1.350 . S
C875 C878 1.463 . S
C875 C880 1.350 . S
C875 N883 1.427 . S
C876 H867 0.930 . S
C876 C874 1.378 . S
C876 C877 1.367 . S
C877 C876 1.367 . S
C877 C879 1.433 . S
C878 C874 1.350 . S
C878 C875 1.463 . S
C878 N882 1.427 . S
C879 H869 0.929 . S
C879 C877 1.433 . S
C879 N882 1.384 . S
C880 H871 0.929 . S
C880 C872 1.378 . S
C880 C875 1.350 . S
C881 H868 0.929 . S
C881 C873 1.433 . S
C881 N883 1.384 . S
N882 C878 1.427 . S
N882 C879 1.384 . S
N883 C875 1.427 . S
N883 C881 1.384 . S
H884 C890 0.930 . S
H885 C894 0.930 . S
H886 C899 0.929 . S
H887 C897 0.929 . S
H888 C892 0.929 . S
H889 C898 0.929 . S
C890 H884 0.930 . S
C890 C891 1.367 . S
C890 C898 1.378 . S
C891 C890 1.367 . S
C891 C899 1.433 . S
C892 H888 0.929 . S
C892 C894 1.378 . S
C892 C896 1.350 . S
C893 C896 1.463 . S
C893 C898 1.350 . S
C893 N901 1.427 . S
C894 H885 0.930 . S
C894 C892 1.378 . S
C894 C895 1.367 . S
C895 C894 1.367 . S
C895 C897 1.433 . S
C896 C892 1.350 . S
C896 C893 1.463 . S
C896 N900 1.427 . S
C897 H887 0.929 . S
C897 C895 1.433 . S
C897 N900 1.384 . S
C898 H889 0.929 . S
C898 C890 1.378 . S
C898 C893 1.350 . S
C899 H886 0.929 . S
C899 C891 1.433 . S
C899 N901 1.384 . S
N900 C896 1.427 . S
N900 C897 1.384 . S
N901 C893 1.427 . S
N901 C899 1.384 . S
H902 C908 0.930 . S
H903 C912 0.930 . S
H904 C917 0.929 . S
H905 C915 0.929 . S
H906 C910 0.929 . S
H907 C916 0.929 . S
C908 H902 0.930 . S
C908 C909 1.367 . S
C908 C916 1.378 . S
C909 C908 1.367 . S
C909 C917 1.433 . S
C910 H906 0.929 . S
C910 C912 1.378 . S
C910 C914 1.350 . S
C911 C914 1.463 . S
C911 C916 1.350 . S
C911 N919 1.427 . S
C912 H903 0.930 . S
C912 C910 1.378 . S
C912 C913 1.367 . S
C913 C912 1.367 . S
C913 C915 1.433 . S
C914 C910 1.350 . S
C914 C911 1.463 . S
C914 N918 1.427 . S
C915 H905 0.929 . S
C915 C913 1.433 . S
C915 N918 1.384 . S
C916 H907 0.929 . S
C916 C908 1.378 . S
C916 C911 1.350 . S
C917 H904 0.929 . S
C917 C909 1.433 . S
C917 N919 1.384 . S
N918 C914 1.427 . S
N918 C915 1.384 . S
N919 C911 1.427 . S
N919 C917 1.384 . S
H920 C926 0.930 . S
H921 C930 0.930 . S
H922 C935 0.929 . S
H923 C933 0.929 . S
H924 C928 0.929 . S
H925 C934 0.929 . S
C926 H920 0.930 . S
C926 C927 1.367 . S
C926 C934 1.378 . S
C927 C926 1.367 . S
C927 C935 1.433 . S
C928 H924 0.929 . S
C928 C930 1.378 . S
C928 C932 1.350 . S
C929 C932 1.463 . S
C929 C934 1.350 . S
C929 N937 1.427 . S
C930 H921 0.930 . S
C930 C928 1.378 . S
C930 C931 1.367 . S
C931 C930 1.367 . S
C931 C933 1.433 . S
C932 C928 1.350 . S
C932 C929 1.463 . S
C932 N936 1.427 . S
C933 H923 0.929 . S
C933 C931 1.433 . S
C933 N936 1.384 . S
C934 H925 0.929 . S
C934 C926 1.378 . S
C934 C929 1.350 . S
C935 H922 0.929 . S
C935 C927 1.433 . S
C935 N937 1.384 . S
N936 C932 1.427 . S
N936 C933 1.384 . S
N937 C929 1.427 . S
N937 C935 1.384 . S
H938 C944 0.930 . S
H939 C948 0.930 . S
H940 C953 0.929 . S
H941 C951 0.929 . S
H942 C946 0.929 . S
H943 C952 0.929 . S
C944 H938 0.930 . S
C944 C945 1.367 . S
C944 C952 1.378 . S
C945 C944 1.367 . S
C945 C953 1.433 . S
C946 H942 0.929 . S
C946 C948 1.378 . S
C946 C950 1.350 . S
C947 C950 1.463 . S
C947 C952 1.350 . S
C947 N955 1.427 . S
C948 H939 0.930 . S
C948 C946 1.378 . S
C948 C949 1.367 . S
C949 C948 1.367 . S
C949 C951 1.433 . S
C950 C946 1.350 . S
C950 C947 1.463 . S
C950 N954 1.427 . S
C951 H941 0.929 . S
C951 C949 1.433 . S
C951 N954 1.384 . S
C952 H943 0.929 . S
C952 C944 1.378 . S
C952 C947 1.350 . S
C953 H940 0.929 . S
C953 C945 1.433 . S
C953 N955 1.384 . S
N954 C950 1.427 . S
N954 C951 1.384 . S
N955 C947 1.427 . S
N955 C953 1.384 . S
H956 C962 0.930 . S
H957 C966 0.930 . S
H958 C971 0.929 . S
H959 C969 0.929 . S
H960 C964 0.929 . S
H961 C970 0.929 . S
C962 H956 0.930 . S
C962 C963 1.367 . S
C962 C970 1.378 . S
C963 C962 1.367 . S
C963 C971 1.433 . S
C964 H960 0.929 . S
C964 C966 1.378 . S
C964 C968 1.350 . S
C965 C968 1.463 . S
C965 C970 1.350 . S
C965 N973 1.427 . S
C966 H957 0.930 . S
C966 C964 1.378 . S
C966 C967 1.367 . S
C967 C966 1.367 . S
C967 C969 1.433 . S
C968 C964 1.350 . S
C968 C965 1.463 . S
C968 N972 1.427 . S
C969 H959 0.929 . S
C969 C967 1.433 . S
C969 N972 1.384 . S
C970 H961 0.929 . S
C970 C962 1.378 . S
C970 C965 1.350 . S
C971 H958 0.929 . S
C971 C963 1.433 . S
C971 N973 1.384 . S
N972 C968 1.427 . S
N972 C969 1.384 . S
N973 C965 1.427 . S
N973 C971 1.384 . S
H974 C980 0.930 . S
H975 C984 0.930 . S
H976 C989 0.929 . S
H977 C987 0.929 . S
H978 C982 0.929 . S
H979 C988 0.929 . S
C980 H974 0.930 . S
C980 C981 1.367 . S
C980 C988 1.378 . S
C981 C980 1.367 . S
C981 C989 1.433 . S
C982 H978 0.929 . S
C982 C984 1.378 . S
C982 C986 1.350 . S
C983 C986 1.463 . S
C983 C988 1.350 . S
C983 N991 1.427 . S
C984 H975 0.930 . S
C984 C982 1.378 . S
C984 C985 1.367 . S
C985 C984 1.367 . S
C985 C987 1.433 . S
C986 C982 1.350 . S
C986 C983 1.463 . S
C986 N990 1.427 . S
C987 H977 0.929 . S
C987 C985 1.433 . S
C987 N990 1.384 . S
C988 H979 0.929 . S
C988 C980 1.378 . S
C988 C983 1.350 . S
C989 H976 0.929 . S
C989 C981 1.433 . S
C989 N991 1.384 . S
N990 C986 1.427 . S
N990 C987 1.384 . S
N991 C983 1.427 . S
N991 C989 1.384 . S
H992 C998 0.930 . S
H993 C1002 0.930 . S
H994 C1007 0.929 . S
H995 C1005 0.929 . S
H996 C1000 0.929 . S
H997 C1006 0.929 . S
C998 H992 0.930 . S
C998 C999 1.367 . S
C998 C1006 1.378 . S
C999 C998 1.367 . S
C999 C1007 1.433 . S
C1000 H996 0.929 . S
C1000 C1002 1.378 . S
C1000 C1004 1.350 . S
C1001 C1004 1.463 . S
C1001 C1006 1.350 . S
C1001 N1009 1.427 . S
C1002 H993 0.930 . S
C1002 C1000 1.378 . S
C1002 C1003 1.367 . S
C1003 C1002 1.367 . S
C1003 C1005 1.433 . S
C1004 C1000 1.350 . S
C1004 C1001 1.463 . S
C1004 N1008 1.427 . S
C1005 H995 0.929 . S
C1005 C1003 1.433 . S
C1005 N1008 1.384 . S
C1006 H997 0.929 . S
C1006 C998 1.378 . S
C1006 C1001 1.350 . S
C1007 H994 0.929 . S
C1007 C999 1.433 . S
C1007 N1009 1.384 . S
N1008 C1004 1.427 . S
N1008 C1005 1.384 . S
N1009 C1001 1.427 . S
N1009 C1007 1.384 . S
H1010 C1016 0.930 . S
H1011 C1020 0.930 . S
H1012 C1025 0.929 . S
H1013 C1023 0.929 . S
H1014 C1018 0.929 . S
H1015 C1024 0.929 . S
C1016 H1010 0.930 . S
C1016 C1017 1.367 . S
C1016 C1024 1.378 . S
C1017 C1016 1.367 . S
C1017 C1025 1.433 . S
C1018 H1014 0.929 . S
C1018 C1020 1.378 . S
C1018 C1022 1.350 . S
C1019 C1022 1.463 . S
C1019 C1024 1.350 . S
C1019 N1027 1.427 . S
C1020 H1011 0.930 . S
C1020 C1018 1.378 . S
C1020 C1021 1.367 . S
C1021 C1020 1.367 . S
C1021 C1023 1.433 . S
C1022 C1018 1.350 . S
C1022 C1019 1.463 . S
C1022 N1026 1.427 . S
C1023 H1013 0.929 . S
C1023 C1021 1.433 . S
C1023 N1026 1.384 . S
C1024 H1015 0.929 . S
C1024 C1016 1.378 . S
C1024 C1019 1.350 . S
C1025 H1012 0.929 . S
C1025 C1017 1.433 . S
C1025 N1027 1.384 . S
N1026 C1022 1.427 . S
N1026 C1023 1.384 . S
N1027 C1019 1.427 . S
N1027 C1025 1.384 . S
H1028 C1034 0.930 . S
H1029 C1038 0.930 . S
H1030 C1043 0.929 . S
H1031 C1041 0.929 . S
H1032 C1036 0.929 . S
H1033 C1042 0.929 . S
C1034 H1028 0.930 . S
C1034 C1035 1.367 . S
C1034 C1042 1.378 . S
C1035 C1034 1.367 . S
C1035 C1043 1.433 . S
C1036 H1032 0.929 . S
C1036 C1038 1.378 . S
C1036 C1040 1.350 . S
C1037 C1040 1.463 . S
C1037 C1042 1.350 . S
C1037 N1045 1.427 . S
C1038 H1029 0.930 . S
C1038 C1036 1.378 . S
C1038 C1039 1.367 . S
C1039 C1038 1.367 . S
C1039 C1041 1.433 . S
C1040 C1036 1.350 . S
C1040 C1037 1.463 . S
C1040 N1044 1.427 . S
C1041 H1031 0.929 . S
C1041 C1039 1.433 . S
C1041 N1044 1.384 . S
C1042 H1033 0.929 . S
C1042 C1034 1.378 . S
C1042 C1037 1.350 . S
C1043 H1030 0.929 . S
C1043 C1035 1.433 . S
C1043 N1045 1.384 . S
N1044 C1040 1.427 . S
N1044 C1041 1.384 . S
N1045 C1037 1.427 . S
N1045 C1043 1.384 . S
H1046 C1052 0.930 . S
H1047 C1056 0.930 . S
H1048 C1061 0.929 . S
H1049 C1059 0.929 . S
H1050 C1054 0.929 . S
H1051 C1060 0.929 . S
C1052 H1046 0.930 . S
C1052 C1053 1.367 . S
C1052 C1060 1.378 . S
C1053 C1052 1.367 . S
C1053 C1061 1.433 . S
C1054 H1050 0.929 . S
C1054 C1056 1.378 . S
C1054 C1058 1.350 . S
C1055 C1058 1.463 . S
C1055 C1060 1.350 . S
C1055 N1063 1.427 . S
C1056 H1047 0.930 . S
C1056 C1054 1.378 . S
C1056 C1057 1.367 . S
C1057 C1056 1.367 . S
C1057 C1059 1.433 . S
C1058 C1054 1.350 . S
C1058 C1055 1.463 . S
C1058 N1062 1.427 . S
C1059 H1049 0.929 . S
C1059 C1057 1.433 . S
C1059 N1062 1.384 . S
C1060 H1051 0.929 . S
C1060 C1052 1.378 . S
C1060 C1055 1.350 . S
C1061 H1048 0.929 . S
C1061 C1053 1.433 . S
C1061 N1063 1.384 . S
N1062 C1058 1.427 . S
N1062 C1059 1.384 . S
N1063 C1055 1.427 . S
N1063 C1061 1.384 . S
H1064 C1070 0.930 . S
H1065 C1074 0.930 . S
H1066 C1079 0.929 . S
H1067 C1077 0.929 . S
H1068 C1072 0.929 . S
H1069 C1078 0.929 . S
C1070 H1064 0.930 . S
C1070 C1071 1.367 . S
C1070 C1078 1.378 . S
C1071 C1070 1.367 . S
C1071 C1079 1.433 . S
C1072 H1068 0.929 . S
C1072 C1074 1.378 . S
C1072 C1076 1.350 . S
C1073 C1076 1.463 . S
C1073 C1078 1.350 . S
C1073 N1081 1.427 . S
C1074 H1065 0.930 . S
C1074 C1072 1.378 . S
C1074 C1075 1.367 . S
C1075 C1074 1.367 . S
C1075 C1077 1.433 . S
C1076 C1072 1.350 . S
C1076 C1073 1.463 . S
C1076 N1080 1.427 . S
C1077 H1067 0.929 . S
C1077 C1075 1.433 . S
C1077 N1080 1.384 . S
C1078 H1069 0.929 . S
C1078 C1070 1.378 . S
C1078 C1073 1.350 . S
C1079 H1066 0.929 . S
C1079 C1071 1.433 . S
C1079 N1081 1.384 . S
N1080 C1076 1.427 . S
N1080 C1077 1.384 . S
N1081 C1073 1.427 . S
N1081 C1079 1.384 . S
H1082 C1088 0.930 . S
H1083 C1092 0.930 . S
H1084 C1097 0.929 . S
H1085 C1095 0.929 . S
H1086 C1090 0.929 . S
H1087 C1096 0.929 . S
C1088 H1082 0.930 . S
C1088 C1089 1.367 . S
C1088 C1096 1.378 . S
C1089 C1088 1.367 . S
C1089 C1097 1.433 . S
C1090 H1086 0.929 . S
C1090 C1092 1.378 . S
C1090 C1094 1.350 . S
C1091 C1094 1.463 . S
C1091 C1096 1.350 . S
C1091 N1099 1.427 . S
C1092 H1083 0.930 . S
C1092 C1090 1.378 . S
C1092 C1093 1.367 . S
C1093 C1092 1.367 . S
C1093 C1095 1.433 . S
C1094 C1090 1.350 . S
C1094 C1091 1.463 . S
C1094 N1098 1.427 . S
C1095 H1085 0.929 . S
C1095 C1093 1.433 . S
C1095 N1098 1.384 . S
C1096 H1087 0.929 . S
C1096 C1088 1.378 . S
C1096 C1091 1.350 . S
C1097 H1084 0.929 . S
C1097 C1089 1.433 . S
C1097 N1099 1.384 . S
N1098 C1094 1.427 . S
N1098 C1095 1.384 . S
N1099 C1091 1.427 . S
N1099 C1097 1.384 . S
H1100 C1106 0.930 . S
H1101 C1110 0.930 . S
H1102 C1115 0.929 . S
H1103 C1113 0.929 . S
H1104 C1108 0.929 . S
H1105 C1114 0.929 . S
C1106 H1100 0.930 . S
C1106 C1107 1.367 . S
C1106 C1114 1.378 . S
C1107 C1106 1.367 . S
C1107 C1115 1.433 . S
C1108 H1104 0.929 . S
C1108 C1110 1.378 . S
C1108 C1112 1.350 . S
C1109 C1112 1.463 . S
C1109 C1114 1.350 . S
C1109 N1117 1.427 . S
C1110 H1101 0.930 . S
C1110 C1108 1.378 . S
C1110 C1111 1.367 . S
C1111 C1110 1.367 . S
C1111 C1113 1.433 . S
C1112 C1108 1.350 . S
C1112 C1109 1.463 . S
C1112 N1116 1.427 . S
C1113 H1103 0.929 . S
C1113 C1111 1.433 . S
C1113 N1116 1.384 . S
C1114 H1105 0.929 . S
C1114 C1106 1.378 . S
C1114 C1109 1.350 . S
C1115 H1102 0.929 . S
C1115 C1107 1.433 . S
C1115 N1117 1.384 . S
N1116 C1112 1.427 . S
N1116 C1113 1.384 . S
N1117 C1109 1.427 . S
N1117 C1115 1.384 . S
H1118 C1124 0.930 . S
H1119 C1128 0.930 . S
H1120 C1133 0.929 . S
H1121 C1131 0.929 . S
H1122 C1126 0.929 . S
H1123 C1132 0.929 . S
C1124 H1118 0.930 . S
C1124 C1125 1.367 . S
C1124 C1132 1.378 . S
C1125 C1124 1.367 . S
C1125 C1133 1.433 . S
C1126 H1122 0.929 . S
C1126 C1128 1.378 . S
C1126 C1130 1.350 . S
C1127 C1130 1.463 . S
C1127 C1132 1.350 . S
C1127 N1135 1.427 . S
C1128 H1119 0.930 . S
C1128 C1126 1.378 . S
C1128 C1129 1.367 . S
C1129 C1128 1.367 . S
C1129 C1131 1.433 . S
C1130 C1126 1.350 . S
C1130 C1127 1.463 . S
C1130 N1134 1.427 . S
C1131 H1121 0.929 . S
C1131 C1129 1.433 . S
C1131 N1134 1.384 . S
C1132 H1123 0.929 . S
C1132 C1124 1.378 . S
C1132 C1127 1.350 . S
C1133 H1120 0.929 . S
C1133 C1125 1.433 . S
C1133 N1135 1.384 . S
N1134 C1130 1.427 . S
N1134 C1131 1.384 . S
N1135 C1127 1.427 . S
N1135 C1133 1.384 . S
H1136 C1142 0.930 . S
H1137 C1146 0.930 . S
H1138 C1151 0.929 . S
H1139 C1149 0.929 . S
H1140 C1144 0.929 . S
H1141 C1150 0.929 . S
C1142 H1136 0.930 . S
C1142 C1143 1.367 . S
C1142 C1150 1.378 . S
C1143 C1142 1.367 . S
C1143 C1151 1.433 . S
C1144 H1140 0.929 . S
C1144 C1146 1.378 . S
C1144 C1148 1.350 . S
C1145 C1148 1.463 1_554 S
C1145 C1150 1.350 . S
C1145 N1153 1.427 . S
C1146 H1137 0.930 . S
C1146 C1144 1.378 . S
C1146 C1147 1.367 . S
C1147 C1146 1.367 . S
C1147 C1149 1.433 . S
C1148 C1144 1.350 . S
C1148 C1145 1.463 1_556 S
C1148 N1152 1.427 . S
C1149 H1139 0.929 . S
C1149 C1147 1.433 . S
C1149 N1152 1.384 . S
C1150 H1141 0.929 . S
C1150 C1142 1.378 . S
C1150 C1145 1.350 . S
C1151 H1138 0.929 . S
C1151 C1143 1.433 . S
C1151 N1153 1.384 . S
N1152 C1148 1.427 . S
N1152 C1149 1.384 . S
N1153 C1145 1.427 . S
N1153 C1151 1.384 . S
H1154 C1160 0.930 . S
H1155 C1164 0.930 . S
H1156 C1169 0.929 . S
H1157 C1167 0.929 . S
H1158 C1162 0.929 . S
H1159 C1168 0.929 . S
C1160 H1154 0.930 . S
C1160 C1161 1.367 . S
C1160 C1168 1.378 . S
C1161 C1160 1.367 . S
C1161 C1169 1.433 . S
C1162 H1158 0.929 . S
C1162 C1164 1.378 . S
C1162 C1166 1.350 . S
C1163 C1166 1.463 1_556 S
C1163 C1168 1.350 . S
C1163 N1171 1.427 . S
C1164 H1155 0.930 . S
C1164 C1162 1.378 . S
C1164 C1165 1.367 . S
C1165 C1164 1.367 . S
C1165 C1167 1.433 . S
C1166 C1162 1.350 . S
C1166 C1163 1.463 1_554 S
C1166 N1170 1.427 . S
C1167 H1157 0.929 . S
C1167 C1165 1.433 . S
C1167 N1170 1.384 . S
C1168 H1159 0.929 . S
C1168 C1160 1.378 . S
C1168 C1163 1.350 . S
C1169 H1156 0.929 . S
C1169 C1161 1.433 . S
C1169 N1171 1.384 . S
N1170 C1166 1.427 . S
N1170 C1167 1.384 . S
N1171 C1163 1.427 . S
N1171 C1169 1.384 . S
H1172 C1178 0.930 . S
H1173 C1182 0.930 . S
H1174 C1187 0.929 . S
H1175 C1185 0.929 . S
H1176 C1180 0.929 . S
H1177 C1186 0.929 . S
C1178 H1172 0.930 . S
C1178 C1179 1.367 . S
C1178 C1186 1.378 . S
C1179 C1178 1.367 . S
C1179 C1187 1.433 . S
C1180 H1176 0.929 . S
C1180 C1182 1.378 . S
C1180 C1184 1.350 . S
C1181 C1184 1.463 1_554 S
C1181 C1186 1.350 . S
C1181 N1189 1.427 . S
C1182 H1173 0.930 . S
C1182 C1180 1.378 . S
C1182 C1183 1.367 . S
C1183 C1182 1.367 . S
C1183 C1185 1.433 . S
C1184 C1180 1.350 . S
C1184 C1181 1.463 1_556 S
C1184 N1188 1.427 . S
C1185 H1175 0.929 . S
C1185 C1183 1.433 . S
C1185 N1188 1.384 . S
C1186 H1177 0.929 . S
C1186 C1178 1.378 . S
C1186 C1181 1.350 . S
C1187 H1174 0.929 . S
C1187 C1179 1.433 . S
C1187 N1189 1.384 . S
N1188 C1184 1.427 . S
N1188 C1185 1.384 . S
N1189 C1181 1.427 . S
N1189 C1187 1.384 . S
H1190 C1196 0.930 . S
H1191 C1200 0.930 . S
H1192 C1205 0.929 . S
H1193 C1203 0.929 . S
H1194 C1198 0.929 . S
H1195 C1204 0.929 . S
C1196 H1190 0.930 . S
C1196 C1197 1.367 . S
C1196 C1204 1.378 . S
C1197 C1196 1.367 . S
C1197 C1205 1.433 . S
C1198 H1194 0.929 . S
C1198 C1200 1.378 . S
C1198 C1202 1.350 . S
C1199 C1202 1.463 1_554 S
C1199 C1204 1.350 . S
C1199 N1207 1.427 . S
C1200 H1191 0.930 . S
C1200 C1198 1.378 . S
C1200 C1201 1.367 . S
C1201 C1200 1.367 . S
C1201 C1203 1.433 . S
C1202 C1198 1.350 . S
C1202 C1199 1.463 1_556 S
C1202 N1206 1.427 . S
C1203 H1193 0.929 . S
C1203 C1201 1.433 . S
C1203 N1206 1.384 . S
C1204 H1195 0.929 . S
C1204 C1196 1.378 . S
C1204 C1199 1.350 . S
C1205 H1192 0.929 . S
C1205 C1197 1.433 . S
C1205 N1207 1.384 . S
N1206 C1202 1.427 . S
N1206 C1203 1.384 . S
N1207 C1199 1.427 . S
N1207 C1205 1.384 . S
H1208 C1214 0.930 . S
H1209 C1218 0.930 . S
H1210 C1223 0.929 . S
H1211 C1221 0.929 . S
H1212 C1216 0.929 . S
H1213 C1222 0.929 . S
C1214 H1208 0.930 . S
C1214 C1215 1.367 . S
C1214 C1222 1.378 . S
C1215 C1214 1.367 . S
C1215 C1223 1.433 . S
C1216 H1212 0.929 . S
C1216 C1218 1.378 . S
C1216 C1220 1.350 . S
C1217 C1220 1.463 1_554 S
C1217 C1222 1.350 . S
C1217 N1225 1.427 . S
C1218 H1209 0.930 . S
C1218 C1216 1.378 . S
C1218 C1219 1.367 . S
C1219 C1218 1.367 . S
C1219 C1221 1.433 . S
C1220 C1216 1.350 . S
C1220 C1217 1.463 1_556 S
C1220 N1224 1.427 . S
C1221 H1211 0.929 . S
C1221 C1219 1.433 . S
C1221 N1224 1.384 . S
C1222 H1213 0.929 . S
C1222 C1214 1.378 . S
C1222 C1217 1.350 . S
C1223 H1210 0.929 . S
C1223 C1215 1.433 . S
C1223 N1225 1.384 . S
N1224 C1220 1.427 . S
N1224 C1221 1.384 . S
N1225 C1217 1.427 . S
N1225 C1223 1.384 . S
H1226 C1232 0.930 . S
H1227 C1236 0.930 . S
H1228 C1241 0.929 . S
H1229 C1239 0.929 . S
H1230 C1234 0.929 . S
H1231 C1240 0.929 . S
C1232 H1226 0.930 . S
C1232 C1233 1.367 . S
C1232 C1240 1.378 . S
C1233 C1232 1.367 . S
C1233 C1241 1.433 . S
C1234 H1230 0.929 . S
C1234 C1236 1.378 . S
C1234 C1238 1.350 . S
C1235 C1238 1.463 1_554 S
C1235 C1240 1.350 . S
C1235 N1243 1.427 . S
C1236 H1227 0.930 . S
C1236 C1234 1.378 . S
C1236 C1237 1.367 . S
C1237 C1236 1.367 . S
C1237 C1239 1.433 . S
C1238 C1234 1.350 . S
C1238 C1235 1.463 1_556 S
C1238 N1242 1.427 . S
C1239 H1229 0.929 . S
C1239 C1237 1.433 . S
C1239 N1242 1.384 . S
C1240 H1231 0.929 . S
C1240 C1232 1.378 . S
C1240 C1235 1.350 . S
C1241 H1228 0.929 . S
C1241 C1233 1.433 . S
C1241 N1243 1.384 . S
N1242 C1238 1.427 . S
N1242 C1239 1.384 . S
N1243 C1235 1.427 . S
N1243 C1241 1.384 . S
H1244 C1250 0.930 . S
H1245 C1254 0.930 . S
H1246 C1259 0.929 . S
H1247 C1257 0.929 . S
H1248 C1252 0.929 . S
H1249 C1258 0.929 . S
C1250 H1244 0.930 . S
C1250 C1251 1.367 . S
C1250 C1258 1.378 . S
C1251 C1250 1.367 . S
C1251 C1259 1.433 . S
C1252 H1248 0.929 . S
C1252 C1254 1.378 . S
C1252 C1256 1.350 . S
C1253 C1256 1.463 1_556 S
C1253 C1258 1.350 . S
C1253 N1261 1.427 . S
C1254 H1245 0.930 . S
C1254 C1252 1.378 . S
C1254 C1255 1.367 . S
C1255 C1254 1.367 . S
C1255 C1257 1.433 . S
C1256 C1252 1.350 . S
C1256 C1253 1.463 1_554 S
C1256 N1260 1.427 . S
C1257 H1247 0.929 . S
C1257 C1255 1.433 . S
C1257 N1260 1.384 . S
C1258 H1249 0.929 . S
C1258 C1250 1.378 . S
C1258 C1253 1.350 . S
C1259 H1246 0.929 . S
C1259 C1251 1.433 . S
C1259 N1261 1.384 . S
N1260 C1256 1.427 . S
N1260 C1257 1.384 . S
N1261 C1253 1.427 . S
N1261 C1259 1.384 . S
H1262 C1268 0.930 . S
H1263 C1272 0.930 . S
H1264 C1277 0.929 . S
H1265 C1275 0.929 . S
H1266 C1270 0.929 . S
H1267 C1276 0.929 . S
C1268 H1262 0.930 . S
C1268 C1269 1.367 . S
C1268 C1276 1.378 . S
C1269 C1268 1.367 . S
C1269 C1277 1.433 . S
C1270 H1266 0.929 . S
C1270 C1272 1.378 . S
C1270 C1274 1.350 . S
C1271 C1274 1.463 1_556 S
C1271 C1276 1.350 . S
C1271 N1279 1.427 . S
C1272 H1263 0.930 . S
C1272 C1270 1.378 . S
C1272 C1273 1.367 . S
C1273 C1272 1.367 . S
C1273 C1275 1.433 . S
C1274 C1270 1.350 . S
C1274 C1271 1.463 1_554 S
C1274 N1278 1.427 . S
C1275 H1265 0.929 . S
C1275 C1273 1.433 . S
C1275 N1278 1.384 . S
C1276 H1267 0.929 . S
C1276 C1268 1.378 . S
C1276 C1271 1.350 . S
C1277 H1264 0.929 . S
C1277 C1269 1.433 . S
C1277 N1279 1.384 . S
N1278 C1274 1.427 . S
N1278 C1275 1.384 . S
N1279 C1271 1.427 . S
N1279 C1277 1.384 . S
H1280 C1286 0.930 . S
H1281 C1290 0.930 . S
H1282 C1295 0.929 . S
H1283 C1293 0.929 . S
H1284 C1288 0.929 . S
H1285 C1294 0.929 . S
C1286 H1280 0.930 . S
C1286 C1287 1.367 . S
C1286 C1294 1.378 . S
C1287 C1286 1.367 . S
C1287 C1295 1.433 . S
C1288 H1284 0.929 . S
C1288 C1290 1.378 . S
C1288 C1292 1.350 . S
C1289 C1292 1.463 . S
C1289 C1294 1.350 . S
C1289 N1297 1.427 . S
C1290 H1281 0.930 . S
C1290 C1288 1.378 . S
C1290 C1291 1.367 . S
C1291 C1290 1.367 . S
C1291 C1293 1.433 . S
C1292 C1288 1.350 . S
C1292 C1289 1.463 . S
C1292 N1296 1.427 . S
C1293 H1283 0.929 . S
C1293 C1291 1.433 . S
C1293 N1296 1.384 . S
C1294 H1285 0.929 . S
C1294 C1286 1.378 . S
C1294 C1289 1.350 . S
C1295 H1282 0.929 . S
C1295 C1287 1.433 . S
C1295 N1297 1.384 . S
N1296 C1292 1.427 . S
N1296 C1293 1.384 . S
N1297 C1289 1.427 . S
N1297 C1295 1.384 . S
H1298 C1304 0.930 . S
H1299 C1308 0.930 . S
H1300 C1313 0.929 . S
H1301 C1311 0.929 . S
H1302 C1306 0.929 . S
H1303 C1312 0.929 . S
C1304 H1298 0.930 . S
C1304 C1305 1.367 . S
C1304 C1312 1.378 . S
C1305 C1304 1.367 . S
C1305 C1313 1.433 . S
C1306 H1302 0.929 . S
C1306 C1308 1.378 . S
C1306 C1310 1.350 . S
C1307 C1310 1.463 . S
C1307 C1312 1.350 . S
C1307 N1315 1.427 . S
C1308 H1299 0.930 . S
C1308 C1306 1.378 . S
C1308 C1309 1.367 . S
C1309 C1308 1.367 . S
C1309 C1311 1.433 . S
C1310 C1306 1.350 . S
C1310 C1307 1.463 . S
C1310 N1314 1.427 . S
C1311 H1301 0.929 . S
C1311 C1309 1.433 . S
C1311 N1314 1.384 . S
C1312 H1303 0.929 . S
C1312 C1304 1.378 . S
C1312 C1307 1.350 . S
C1313 H1300 0.929 . S
C1313 C1305 1.433 . S
C1313 N1315 1.384 . S
N1314 C1310 1.427 . S
N1314 C1311 1.384 . S
N1315 C1307 1.427 . S
N1315 C1313 1.384 . S
H1316 C1322 0.930 . S
H1317 C1326 0.930 . S
H1318 C1331 0.929 . S
H1319 C1329 0.929 . S
H1320 C1324 0.929 . S
H1321 C1330 0.929 . S
C1322 H1316 0.930 . S
C1322 C1323 1.367 . S
C1322 C1330 1.378 . S
C1323 C1322 1.367 . S
C1323 C1331 1.433 . S
C1324 H1320 0.929 . S
C1324 C1326 1.378 . S
C1324 C1328 1.350 . S
C1325 C1328 1.463 . S
C1325 C1330 1.350 . S
C1325 N1333 1.427 . S
C1326 H1317 0.930 . S
C1326 C1324 1.378 . S
C1326 C1327 1.367 . S
C1327 C1326 1.367 . S
C1327 C1329 1.433 . S
C1328 C1324 1.350 . S
C1328 C1325 1.463 . S
C1328 N1332 1.427 . S
C1329 H1319 0.929 . S
C1329 C1327 1.433 . S
C1329 N1332 1.384 . S
C1330 H1321 0.929 . S
C1330 C1322 1.378 . S
C1330 C1325 1.350 . S
C1331 H1318 0.929 . S
C1331 C1323 1.433 . S
C1331 N1333 1.384 . S
N1332 C1328 1.427 . S
N1332 C1329 1.384 . S
N1333 C1325 1.427 . S
N1333 C1331 1.384 . S
H1334 C1340 0.930 . S
H1335 C1344 0.930 . S
H1336 C1349 0.929 . S
H1337 C1347 0.929 . S
H1338 C1342 0.929 . S
H1339 C1348 0.929 . S
C1340 H1334 0.930 . S
C1340 C1341 1.367 . S
C1340 C1348 1.378 . S
C1341 C1340 1.367 . S
C1341 C1349 1.433 . S
C1342 H1338 0.929 . S
C1342 C1344 1.378 . S
C1342 C1346 1.350 . S
C1343 C1346 1.463 . S
C1343 C1348 1.350 . S
C1343 N1351 1.427 . S
C1344 H1335 0.930 . S
C1344 C1342 1.378 . S
C1344 C1345 1.367 . S
C1345 C1344 1.367 . S
C1345 C1347 1.433 . S
C1346 C1342 1.350 . S
C1346 C1343 1.463 . S
C1346 N1350 1.427 . S
C1347 H1337 0.929 . S
C1347 C1345 1.433 . S
C1347 N1350 1.384 . S
C1348 H1339 0.929 . S
C1348 C1340 1.378 . S
C1348 C1343 1.350 . S
C1349 H1336 0.929 . S
C1349 C1341 1.433 . S
C1349 N1351 1.384 . S
N1350 C1346 1.427 . S
N1350 C1347 1.384 . S
N1351 C1343 1.427 . S
N1351 C1349 1.384 . S
H1352 C1358 0.930 . S
H1353 C1362 0.930 . S
H1354 C1367 0.929 . S
H1355 C1365 0.929 . S
H1356 C1360 0.929 . S
H1357 C1366 0.929 . S
C1358 H1352 0.930 . S
C1358 C1359 1.367 . S
C1358 C1366 1.378 . S
C1359 C1358 1.367 . S
C1359 C1367 1.433 . S
C1360 H1356 0.929 . S
C1360 C1362 1.378 . S
C1360 C1364 1.350 . S
C1361 C1364 1.463 . S
C1361 C1366 1.350 . S
C1361 N1369 1.427 . S
C1362 H1353 0.930 . S
C1362 C1360 1.378 . S
C1362 C1363 1.367 . S
C1363 C1362 1.367 . S
C1363 C1365 1.433 . S
C1364 C1360 1.350 . S
C1364 C1361 1.463 . S
C1364 N1368 1.427 . S
C1365 H1355 0.929 . S
C1365 C1363 1.433 . S
C1365 N1368 1.384 . S
C1366 H1357 0.929 . S
C1366 C1358 1.378 . S
C1366 C1361 1.350 . S
C1367 H1354 0.929 . S
C1367 C1359 1.433 . S
C1367 N1369 1.384 . S
N1368 C1364 1.427 . S
N1368 C1365 1.384 . S
N1369 C1361 1.427 . S
N1369 C1367 1.384 . S
H1370 C1376 0.930 . S
H1371 C1380 0.930 . S
H1372 C1385 0.929 . S
H1373 C1383 0.929 . S
H1374 C1378 0.929 . S
H1375 C1384 0.929 . S
C1376 H1370 0.930 . S
C1376 C1377 1.367 . S
C1376 C1384 1.378 . S
C1377 C1376 1.367 . S
C1377 C1385 1.433 . S
C1378 H1374 0.929 . S
C1378 C1380 1.378 . S
C1378 C1382 1.350 . S
C1379 C1382 1.463 . S
C1379 C1384 1.350 . S
C1379 N1387 1.427 . S
C1380 H1371 0.930 . S
C1380 C1378 1.378 . S
C1380 C1381 1.367 . S
C1381 C1380 1.367 . S
C1381 C1383 1.433 . S
C1382 C1378 1.350 . S
C1382 C1379 1.463 . S
C1382 N1386 1.427 . S
C1383 H1373 0.929 . S
C1383 C1381 1.433 . S
C1383 N1386 1.384 . S
C1384 H1375 0.929 . S
C1384 C1376 1.378 . S
C1384 C1379 1.350 . S
C1385 H1372 0.929 . S
C1385 C1377 1.433 . S
C1385 N1387 1.384 . S
N1386 C1382 1.427 . S
N1386 C1383 1.384 . S
N1387 C1379 1.427 . S
N1387 C1385 1.384 . S
H1388 C1394 0.930 . S
H1389 C1398 0.930 . S
H1390 C1403 0.929 . S
H1391 C1401 0.929 . S
H1392 C1396 0.929 . S
H1393 C1402 0.929 . S
C1394 H1388 0.930 . S
C1394 C1395 1.367 . S
C1394 C1402 1.378 . S
C1395 C1394 1.367 . S
C1395 C1403 1.433 . S
C1396 H1392 0.929 . S
C1396 C1398 1.378 . S
C1396 C1400 1.350 . S
C1397 C1400 1.463 . S
C1397 C1402 1.350 . S
C1397 N1405 1.427 . S
C1398 H1389 0.930 . S
C1398 C1396 1.378 . S
C1398 C1399 1.367 . S
C1399 C1398 1.367 . S
C1399 C1401 1.433 . S
C1400 C1396 1.350 . S
C1400 C1397 1.463 . S
C1400 N1404 1.427 . S
C1401 H1391 0.929 . S
C1401 C1399 1.433 . S
C1401 N1404 1.384 . S
C1402 H1393 0.929 . S
C1402 C1394 1.378 . S
C1402 C1397 1.350 . S
C1403 H1390 0.929 . S
C1403 C1395 1.433 . S
C1403 N1405 1.384 . S
N1404 C1400 1.427 . S
N1404 C1401 1.384 . S
N1405 C1397 1.427 . S
N1405 C1403 1.384 . S
H1406 C1412 0.930 . S
H1407 C1416 0.930 . S
H1408 C1421 0.929 . S
H1409 C1419 0.929 . S
H1410 C1414 0.929 . S
H1411 C1420 0.929 . S
C1412 H1406 0.930 . S
C1412 C1413 1.367 . S
C1412 C1420 1.378 . S
C1413 C1412 1.367 . S
C1413 C1421 1.433 . S
C1414 H1410 0.929 . S
C1414 C1416 1.378 . S
C1414 C1418 1.350 . S
C1415 C1418 1.463 . S
C1415 C1420 1.350 . S
C1415 N1423 1.427 . S
C1416 H1407 0.930 . S
C1416 C1414 1.378 . S
C1416 C1417 1.367 . S
C1417 C1416 1.367 . S
C1417 C1419 1.433 . S
C1418 C1414 1.350 . S
C1418 C1415 1.463 . S
C1418 N1422 1.427 . S
C1419 H1409 0.929 . S
C1419 C1417 1.433 . S
C1419 N1422 1.384 . S
C1420 H1411 0.929 . S
C1420 C1412 1.378 . S
C1420 C1415 1.350 . S
C1421 H1408 0.929 . S
C1421 C1413 1.433 . S
C1421 N1423 1.384 . S
N1422 C1418 1.427 . S
N1422 C1419 1.384 . S
N1423 C1415 1.427 . S
N1423 C1421 1.384 . S
H1424 C1430 0.930 . S
H1425 C1434 0.930 . S
H1426 C1439 0.929 . S
H1427 C1437 0.929 . S
H1428 C1432 0.929 . S
H1429 C1438 0.929 . S
C1430 H1424 0.930 . S
C1430 C1431 1.367 . S
C1430 C1438 1.378 . S
C1431 C1430 1.367 . S
C1431 C1439 1.433 . S
C1432 H1428 0.929 . S
C1432 C1434 1.378 . S
C1432 C1436 1.350 . S
C1433 C1436 1.463 . S
C1433 C1438 1.350 . S
C1433 N1441 1.427 . S
C1434 H1425 0.930 . S
C1434 C1432 1.378 . S
C1434 C1435 1.367 . S
C1435 C1434 1.367 . S
C1435 C1437 1.433 . S
C1436 C1432 1.350 . S
C1436 C1433 1.463 . S
C1436 N1440 1.427 . S
C1437 H1427 0.929 . S
C1437 C1435 1.433 . S
C1437 N1440 1.384 . S
C1438 H1429 0.929 . S
C1438 C1430 1.378 . S
C1438 C1433 1.350 . S
C1439 H1426 0.929 . S
C1439 C1431 1.433 . S
C1439 N1441 1.384 . S
N1440 C1436 1.427 . S
N1440 C1437 1.384 . S
N1441 C1433 1.427 . S
N1441 C1439 1.384 . S
H1442 C1448 0.930 . S
H1443 C1452 0.930 . S
H1444 C1457 0.929 . S
H1445 C1455 0.929 . S
H1446 C1450 0.929 . S
H1447 C1456 0.929 . S
C1448 H1442 0.930 . S
C1448 C1449 1.367 . S
C1448 C1456 1.378 . S
C1449 C1448 1.367 . S
C1449 C1457 1.433 . S
C1450 H1446 0.929 . S
C1450 C1452 1.378 . S
C1450 C1454 1.350 . S
C1451 C1454 1.463 . S
C1451 C1456 1.350 . S
C1451 N1459 1.427 . S
C1452 H1443 0.930 . S
C1452 C1450 1.378 . S
C1452 C1453 1.367 . S
C1453 C1452 1.367 . S
C1453 C1455 1.433 . S
C1454 C1450 1.350 . S
C1454 C1451 1.463 . S
C1454 N1458 1.427 . S
C1455 H1445 0.929 . S
C1455 C1453 1.433 . S
C1455 N1458 1.384 . S
C1456 H1447 0.929 . S
C1456 C1448 1.378 . S
C1456 C1451 1.350 . S
C1457 H1444 0.929 . S
C1457 C1449 1.433 . S
C1457 N1459 1.384 . S
N1458 C1454 1.427 . S
N1458 C1455 1.384 . S
N1459 C1451 1.427 . S
N1459 C1457 1.384 . S
H1460 C1466 0.930 . S
H1461 C1470 0.930 . S
H1462 C1475 0.929 . S
H1463 C1473 0.929 . S
H1464 C1468 0.929 . S
H1465 C1474 0.929 . S
C1466 H1460 0.930 . S
C1466 C1467 1.367 . S
C1466 C1474 1.378 . S
C1467 C1466 1.367 . S
C1467 C1475 1.433 . S
C1468 H1464 0.929 . S
C1468 C1470 1.378 . S
C1468 C1472 1.350 . S
C1469 C1472 1.463 . S
C1469 C1474 1.350 . S
C1469 N1477 1.427 . S
C1470 H1461 0.930 . S
C1470 C1468 1.378 . S
C1470 C1471 1.367 . S
C1471 C1470 1.367 . S
C1471 C1473 1.433 . S
C1472 C1468 1.350 . S
C1472 C1469 1.463 . S
C1472 N1476 1.427 . S
C1473 H1463 0.929 . S
C1473 C1471 1.433 . S
C1473 N1476 1.384 . S
C1474 H1465 0.929 . S
C1474 C1466 1.378 . S
C1474 C1469 1.350 . S
C1475 H1462 0.929 . S
C1475 C1467 1.433 . S
C1475 N1477 1.384 . S
N1476 C1472 1.427 . S
N1476 C1473 1.384 . S
N1477 C1469 1.427 . S
N1477 C1475 1.384 . S
H1478 C1484 0.930 . S
H1479 C1488 0.930 . S
H1480 C1493 0.929 . S
H1481 C1491 0.929 . S
H1482 C1486 0.929 . S
H1483 C1492 0.929 . S
C1484 H1478 0.930 . S
C1484 C1485 1.367 . S
C1484 C1492 1.378 . S
C1485 C1484 1.367 . S
C1485 C1493 1.433 . S
C1486 H1482 0.929 . S
C1486 C1488 1.378 . S
C1486 C1490 1.350 . S
C1487 C1490 1.463 . S
C1487 C1492 1.350 . S
C1487 N1495 1.427 . S
C1488 H1479 0.930 . S
C1488 C1486 1.378 . S
C1488 C1489 1.367 . S
C1489 C1488 1.367 . S
C1489 C1491 1.433 . S
C1490 C1486 1.350 . S
C1490 C1487 1.463 . S
C1490 N1494 1.427 . S
C1491 H1481 0.929 . S
C1491 C1489 1.433 . S
C1491 N1494 1.384 . S
C1492 H1483 0.929 . S
C1492 C1484 1.378 . S
C1492 C1487 1.350 . S
C1493 H1480 0.929 . S
C1493 C1485 1.433 . S
C1493 N1495 1.384 . S
N1494 C1490 1.427 . S
N1494 C1491 1.384 . S
N1495 C1487 1.427 . S
N1495 C1493 1.384 . S
H1496 C1502 0.930 . S
H1497 C1506 0.930 . S
H1498 C1511 0.929 . S
H1499 C1509 0.929 . S
H1500 C1504 0.929 . S
H1501 C1510 0.929 . S
C1502 H1496 0.930 . S
C1502 C1503 1.367 . S
C1502 C1510 1.378 . S
C1503 C1502 1.367 . S
C1503 C1511 1.433 . S
C1504 H1500 0.929 . S
C1504 C1506 1.378 . S
C1504 C1508 1.350 . S
C1505 C1508 1.463 . S
C1505 C1510 1.350 . S
C1505 N1513 1.427 . S
C1506 H1497 0.930 . S
C1506 C1504 1.378 . S
C1506 C1507 1.367 . S
C1507 C1506 1.367 . S
C1507 C1509 1.433 . S
C1508 C1504 1.350 . S
C1508 C1505 1.463 . S
C1508 N1512 1.427 . S
C1509 H1499 0.929 . S
C1509 C1507 1.433 . S
C1509 N1512 1.384 . S
C1510 H1501 0.929 . S
C1510 C1502 1.378 . S
C1510 C1505 1.350 . S
C1511 H1498 0.929 . S
C1511 C1503 1.433 . S
C1511 N1513 1.384 . S
N1512 C1508 1.427 . S
N1512 C1509 1.384 . S
N1513 C1505 1.427 . S
N1513 C1511 1.384 . S
H1514 C1520 0.930 . S
H1515 C1524 0.930 . S
H1516 C1529 0.929 . S
H1517 C1527 0.929 . S
H1518 C1522 0.929 . S
H1519 C1528 0.929 . S
C1520 H1514 0.930 . S
C1520 C1521 1.367 . S
C1520 C1528 1.378 . S
C1521 C1520 1.367 . S
C1521 C1529 1.433 . S
C1522 H1518 0.929 . S
C1522 C1524 1.378 . S
C1522 C1526 1.350 . S
C1523 C1526 1.463 . S
C1523 C1528 1.350 . S
C1523 N1531 1.427 . S
C1524 H1515 0.930 . S
C1524 C1522 1.378 . S
C1524 C1525 1.367 . S
C1525 C1524 1.367 . S
C1525 C1527 1.433 . S
C1526 C1522 1.350 . S
C1526 C1523 1.463 . S
C1526 N1530 1.427 . S
C1527 H1517 0.929 . S
C1527 C1525 1.433 . S
C1527 N1530 1.384 . S
C1528 H1519 0.929 . S
C1528 C1520 1.378 . S
C1528 C1523 1.350 . S
C1529 H1516 0.929 . S
C1529 C1521 1.433 . S
C1529 N1531 1.384 . S
N1530 C1526 1.427 . S
N1530 C1527 1.384 . S
N1531 C1523 1.427 . S
N1531 C1529 1.384 . S
H1532 C1538 0.930 . S
H1533 C1542 0.930 . S
H1534 C1547 0.929 . S
H1535 C1545 0.929 . S
H1536 C1540 0.929 . S
H1537 C1546 0.929 . S
C1538 H1532 0.930 . S
C1538 C1539 1.367 . S
C1538 C1546 1.378 . S
C1539 C1538 1.367 . S
C1539 C1547 1.433 . S
C1540 H1536 0.929 . S
C1540 C1542 1.378 . S
C1540 C1544 1.350 . S
C1541 C1544 1.463 . S
C1541 C1546 1.350 . S
C1541 N1549 1.427 . S
C1542 H1533 0.930 . S
C1542 C1540 1.378 . S
C1542 C1543 1.367 . S
C1543 C1542 1.367 . S
C1543 C1545 1.433 . S
C1544 C1540 1.350 . S
C1544 C1541 1.463 . S
C1544 N1548 1.427 . S
C1545 H1535 0.929 . S
C1545 C1543 1.433 . S
C1545 N1548 1.384 . S
C1546 H1537 0.929 . S
C1546 C1538 1.378 . S
C1546 C1541 1.350 . S
C1547 H1534 0.929 . S
C1547 C1539 1.433 . S
C1547 N1549 1.384 . S
N1548 C1544 1.427 . S
N1548 C1545 1.384 . S
N1549 C1541 1.427 . S
N1549 C1547 1.384 . S
H1550 C1556 0.930 . S
H1551 C1560 0.930 . S
H1552 C1565 0.929 . S
H1553 C1563 0.929 . S
H1554 C1558 0.929 . S
H1555 C1564 0.929 . S
C1556 H1550 0.930 . S
C1556 C1557 1.367 . S
C1556 C1564 1.378 . S
C1557 C1556 1.367 . S
C1557 C1565 1.433 . S
C1558 H1554 0.929 . S
C1558 C1560 1.378 . S
C1558 C1562 1.350 . S
C1559 C1562 1.463 . S
C1559 C1564 1.350 . S
C1559 N1567 1.427 . S
C1560 H1551 0.930 . S
C1560 C1558 1.378 . S
C1560 C1561 1.367 . S
C1561 C1560 1.367 . S
C1561 C1563 1.433 . S
C1562 C1558 1.350 . S
C1562 C1559 1.463 . S
C1562 N1566 1.427 . S
C1563 H1553 0.929 . S
C1563 C1561 1.433 . S
C1563 N1566 1.384 . S
C1564 H1555 0.929 . S
C1564 C1556 1.378 . S
C1564 C1559 1.350 . S
C1565 H1552 0.929 . S
C1565 C1557 1.433 . S
C1565 N1567 1.384 . S
N1566 C1562 1.427 . S
N1566 C1563 1.384 . S
N1567 C1559 1.427 . S
N1567 C1565 1.384 . S
C423 C199 1.550 . S
C427 C4 1.552 . S
C441 C23 1.550 . S
C445 C166 1.552 . S
C459 C30 1.551 . S
C463 C173 1.551 . S
C477 C192 1.552 . S
C481 C43 1.550 . S
C495 C62 1.550 . S
C499 C127 1.552 . S
C513 C69 1.550 . S
C517 C140 1.552 . S
C531 C147 1.550 . S
C535 C88 1.552 . S
C549 C114 1.551 . S
C553 C95 1.551 . S
C567 C212 1.552 . S
C571 C407 1.550 . S
C585 C225 1.552 . S
C589 C374 1.550 . S
C603 C238 1.552 . S
C607 C381 1.550 . S
C621 C394 1.550 . S
C625 C251 1.552 . S
C639 C264 1.550 . S
C643 C329 1.552 . S
C657 C283 1.550 . S
C661 C342 1.552 . S
C675 C355 1.552 . S
C679 C290 1.550 . S
C693 C303 1.550 . S
C697 C316 1.552 . S
C711 C159 1.472 . S
C715 C5 1.471 . S
C729 C16 1.473 . S
C733 C174 1.471 . S
C747 C185 1.472 . S
C751 C31 1.471 . S
C765 C44 1.471 . S
C769 C200 1.472 . S
C783 C55 1.473 . S
C787 C107 1.471 . S
C801 C120 1.471 . S
C805 C70 1.473 . S
C819 C133 1.471 . S
C823 C81 1.472 . S
C837 C148 1.471 . S
C841 C96 1.473 . S
C855 C213 1.472 . S
C859 C367 1.471 . S
C873 C382 1.472 . S
C877 C226 1.471 . S
C891 C239 1.472 . S
C895 C395 1.472 . S
C909 C252 1.472 . S
C913 C408 1.471 . S
C927 C317 1.471 . S
C931 C265 1.473 . S
C945 C276 1.471 . S
C949 C330 1.472 . S
C963 C291 1.472 . S
C967 C343 1.472 . S
C981 C304 1.472 . S
C985 C356 1.471 . S
C999 C3 1.442 . S
C1003 C135 1.436 . S
C1017 C146 1.441 . S
C1021 C18 1.437 . S
C1035 C29 1.439 . S
C1039 C109 1.439 . S
C1053 C122 1.441 . S
C1057 C42 1.437 . S
C1071 C187 1.441 . S
C1075 C57 1.437 . S
C1089 C198 1.437 . S
C1093 C68 1.441 . S
C1107 C161 1.436 . S
C1111 C83 1.441 . S
C1125 C94 1.439 . S
C1129 C172 1.439 . S
C1143 C341 1.440 . S
C1147 C211 1.438 . S
C1161 C224 1.437 . S
C1165 C354 1.441 . S
C1179 C315 1.441 . S
C1183 C237 1.437 . S
C1197 C328 1.439 . S
C1201 C250 1.439 . S
C1215 C263 1.442 . S
C1219 C393 1.436 . S
C1233 C278 1.440 . S
C1237 C406 1.438 . S
C1251 C369 1.436 . S
C1255 C289 1.441 . S
C1269 C380 1.441 . S
C1273 C302 1.436 . S
C1287 C309 1.338 . S
C1291 C10 1.342 . S
C1305 C270 1.339 . S
C1309 C17 1.337 . S
C1323 C277 1.339 . S
C1327 C36 1.337 . S
C1341 C296 1.339 . S
C1345 C49 1.342 . S
C1359 C231 1.339 . S
C1363 C56 1.342 . S
C1377 C75 1.338 . S
C1381 C244 1.342 . S
C1395 C82 1.337 . S
C1399 C257 1.340 . S
C1413 C101 1.342 . S
C1417 C218 1.337 . S
C1431 C108 1.342 . S
C1435 C413 1.338 . S
C1449 C368 1.338 . S
C1453 C121 1.338 . S
C1467 C134 1.342 . S
C1471 C387 1.338 . S
C1485 C153 1.340 . S
C1489 C400 1.342 . S
C1503 C335 1.339 . S
C1507 C160 1.337 . S
C1521 C348 1.342 . S
C1525 C179 1.340 . S
C1539 C186 1.342 . S
C1543 C361 1.339 . S
C1557 C205 1.340 . S
C1561 C322 1.342 . S
