# Generated by pormake.
# Topology wmc, (6)-cn, num edge types: 1
# Building blocks:
#     Node 0, Type 0, BuildingBlock: MIFKUJ_clean_sbu_0, # of connection points: 6
#     Node 1, Type 0, BuildingBlock: MIFKUJ_clean_sbu_0, # of connection points: 6
#     Node 2, Type 0, BuildingBlock: MIFKUJ_clean_sbu_0, # of connection points: 6
#     Node 3, Type 0, BuildingBlock: MIFKUJ_clean_sbu_0, # of connection points: 6
#     Node 4, Type 0, BuildingBlock: MIFKUJ_clean_sbu_0, # of connection points: 6
#     Node 5, Type 0, BuildingBlock: MIFKUJ_clean_sbu_0, # of connection points: 6
#     Node 6, Type 0, BuildingBlock: MIFKUJ_clean_sbu_0, # of connection points: 6
#     Node 7, Type 0, BuildingBlock: MIFKUJ_clean_sbu_0, # of connection points: 6
#     Node 8, Type 0, BuildingBlock: MIFKUJ_clean_sbu_0, # of connection points: 6
#     Node 9, Type 0, BuildingBlock: MIFKUJ_clean_sbu_0, # of connection points: 6
#     Node 10, Type 0, BuildingBlock: MIFKUJ_clean_sbu_0, # of connection points: 6
#     Node 11, Type 0, BuildingBlock: MIFKUJ_clean_sbu_0, # of connection points: 6
#     Node 12, Type 0, BuildingBlock: MIFKUJ_clean_sbu_0, # of connection points: 6
#     Node 13, Type 0, BuildingBlock: MIFKUJ_clean_sbu_0, # of connection points: 6
#     Node 14, Type 0, BuildingBlock: MIFKUJ_clean_sbu_0, # of connection points: 6
#     Node 15, Type 0, BuildingBlock: MIFKUJ_clean_sbu_0, # of connection points: 6
#     Node 16, Type 0, BuildingBlock: MIFKUJ_clean_sbu_0, # of connection points: 6
#     Node 17, Type 0, BuildingBlock: MIFKUJ_clean_sbu_0, # of connection points: 6
#     Edge 18, Type (0, 0), BuildingBlock: KIFKEQ_clean_linker_1, # of connection points: 2
#     Edge 19, Type (0, 0), BuildingBlock: KIFKEQ_clean_linker_1, # of connection points: 2
#     Edge 20, Type (0, 0), BuildingBlock: KIFKEQ_clean_linker_1, # of connection points: 2
#     Edge 21, Type (0, 0), BuildingBlock: KIFKEQ_clean_linker_1, # of connection points: 2
#     Edge 22, Type (0, 0), BuildingBlock: KIFKEQ_clean_linker_1, # of connection points: 2
#     Edge 23, Type (0, 0), BuildingBlock: KIFKEQ_clean_linker_1, # of connection points: 2
#     Edge 24, Type (0, 0), BuildingBlock: KIFKEQ_clean_linker_1, # of connection points: 2
#     Edge 25, Type (0, 0), BuildingBlock: KIFKEQ_clean_linker_1, # of connection points: 2
#     Edge 26, Type (0, 0), BuildingBlock: KIFKEQ_clean_linker_1, # of connection points: 2
#     Edge 27, Type (0, 0), BuildingBlock: KIFKEQ_clean_linker_1, # of connection points: 2
#     Edge 28, Type (0, 0), BuildingBlock: KIFKEQ_clean_linker_1, # of connection points: 2
#     Edge 29, Type (0, 0), BuildingBlock: KIFKEQ_clean_linker_1, # of connection points: 2
#     Edge 30, Type (0, 0), BuildingBlock: KIFKEQ_clean_linker_1, # of connection points: 2
#     Edge 31, Type (0, 0), BuildingBlock: KIFKEQ_clean_linker_1, # of connection points: 2
#     Edge 32, Type (0, 0), BuildingBlock: KIFKEQ_clean_linker_1, # of connection points: 2
#     Edge 33, Type (0, 0), BuildingBlock: KIFKEQ_clean_linker_1, # of connection points: 2
#     Edge 34, Type (0, 0), BuildingBlock: KIFKEQ_clean_linker_1, # of connection points: 2
#     Edge 35, Type (0, 0), BuildingBlock: KIFKEQ_clean_linker_1, # of connection points: 2
#     Edge 36, Type (0, 0), BuildingBlock: KIFKEQ_clean_linker_1, # of connection points: 2
#     Edge 37, Type (0, 0), BuildingBlock: KIFKEQ_clean_linker_1, # of connection points: 2
#     Edge 38, Type (0, 0), BuildingBlock: KIFKEQ_clean_linker_1, # of connection points: 2
#     Edge 39, Type (0, 0), BuildingBlock: KIFKEQ_clean_linker_1, # of connection points: 2
#     Edge 40, Type (0, 0), BuildingBlock: KIFKEQ_clean_linker_1, # of connection points: 2
#     Edge 41, Type (0, 0), BuildingBlock: KIFKEQ_clean_linker_1, # of connection points: 2
#     Edge 42, Type (0, 0), BuildingBlock: KIFKEQ_clean_linker_1, # of connection points: 2
#     Edge 43, Type (0, 0), BuildingBlock: KIFKEQ_clean_linker_1, # of connection points: 2
#     Edge 44, Type (0, 0), BuildingBlock: KIFKEQ_clean_linker_1, # of connection points: 2
#     Edge 45, Type (0, 0), BuildingBlock: KIFKEQ_clean_linker_1, # of connection points: 2
#     Edge 46, Type (0, 0), BuildingBlock: KIFKEQ_clean_linker_1, # of connection points: 2
#     Edge 47, Type (0, 0), BuildingBlock: KIFKEQ_clean_linker_1, # of connection points: 2
#     Edge 48, Type (0, 0), BuildingBlock: KIFKEQ_clean_linker_1, # of connection points: 2
#     Edge 49, Type (0, 0), BuildingBlock: KIFKEQ_clean_linker_1, # of connection points: 2
#     Edge 50, Type (0, 0), BuildingBlock: KIFKEQ_clean_linker_1, # of connection points: 2
#     Edge 51, Type (0, 0), BuildingBlock: KIFKEQ_clean_linker_1, # of connection points: 2
#     Edge 52, Type (0, 0), BuildingBlock: KIFKEQ_clean_linker_1, # of connection points: 2
#     Edge 53, Type (0, 0), BuildingBlock: KIFKEQ_clean_linker_1, # of connection points: 2
#     Edge 54, Type (0, 0), BuildingBlock: KIFKEQ_clean_linker_1, # of connection points: 2
#     Edge 55, Type (0, 0), BuildingBlock: KIFKEQ_clean_linker_1, # of connection points: 2
#     Edge 56, Type (0, 0), BuildingBlock: KIFKEQ_clean_linker_1, # of connection points: 2
#     Edge 57, Type (0, 0), BuildingBlock: KIFKEQ_clean_linker_1, # of connection points: 2
#     Edge 58, Type (0, 0), BuildingBlock: KIFKEQ_clean_linker_1, # of connection points: 2
#     Edge 59, Type (0, 0), BuildingBlock: KIFKEQ_clean_linker_1, # of connection points: 2
#     Edge 60, Type (0, 0), BuildingBlock: KIFKEQ_clean_linker_1, # of connection points: 2
#     Edge 61, Type (0, 0), BuildingBlock: KIFKEQ_clean_linker_1, # of connection points: 2
#     Edge 62, Type (0, 0), BuildingBlock: KIFKEQ_clean_linker_1, # of connection points: 2
#     Edge 63, Type (0, 0), BuildingBlock: KIFKEQ_clean_linker_1, # of connection points: 2
#     Edge 64, Type (0, 0), BuildingBlock: KIFKEQ_clean_linker_1, # of connection points: 2
#     Edge 65, Type (0, 0), BuildingBlock: KIFKEQ_clean_linker_1, # of connection points: 2
#     Edge 66, Type (0, 0), BuildingBlock: KIFKEQ_clean_linker_1, # of connection points: 2
#     Edge 67, Type (0, 0), BuildingBlock: KIFKEQ_clean_linker_1, # of connection points: 2
#     Edge 68, Type (0, 0), BuildingBlock: KIFKEQ_clean_linker_1, # of connection points: 2
#     Edge 69, Type (0, 0), BuildingBlock: KIFKEQ_clean_linker_1, # of connection points: 2
#     Edge 70, Type (0, 0), BuildingBlock: KIFKEQ_clean_linker_1, # of connection points: 2
#     Edge 71, Type (0, 0), BuildingBlock: KIFKEQ_clean_linker_1, # of connection points: 2
# Relax obj value: 0.355
# Max RMSD: 0.275
# Mean RMSD: 0.275
data_MOF--net-wmc--node1-MIFKUJ_clean_sbu_0--edge1-KIFKEQ_clean_linker_1
_symmetry_space_group_name_H-M    P1
_symmetry_Int_Tables_number       1
_symmetry_cell_setting            triclinic
loop_
_symmetry_equiv_pos_as_xyz
'x, y, z'
_cell_length_a     45.783155
_cell_length_b     46.074476
_cell_length_c     36.87213
_cell_angle_alpha  89.955229
_cell_angle_beta   89.77823
_cell_angle_gamma 120.27031
loop_
_atom_site_label
_atom_site_type_symbol
_atom_site_fract_x
_atom_site_fract_y
_atom_site_fract_z
_atom_type_partial_charge
Zn0 Zn 0.58461 0.10237 0.0479 0.0
Zn1 Zn 0.58383 0.12451 0.9604 0.0
C2 C 0.63372 0.08449 0.07534 0.0
O3 O 0.61151 0.07157 0.10182 0.0
C4 C 0.54355 0.15615 0.96156 0.0
O5 O 0.53774 0.14555 0.9279 0.0
O6 O 0.57258 0.10376 0.10064 0.0
O7 O 0.60461 0.15047 0.03225 0.0
O8 O 0.62886 0.14386 0.98413 0.0
C9 C 0.59504 0.12658 0.12063 0.0
O10 O 0.62482 0.14744 0.10649 0.0
O11 O 0.62598 0.09515 0.04713 0.0
C12 C 0.5825 0.11553 0.88217 0.0
O13 O 0.57596 0.08524 0.89114 0.0
O14 O 0.58906 0.13713 0.90692 0.0
O15 O 0.55512 0.0752 0.96319 0.0
O16 O 0.54097 0.06733 0.02135 0.0
O17 O 0.56007 0.14749 0.98208 0.0
C18 C 0.63056 0.16036 0.01234 0.0
C19 C 0.5346 0.05814 0.98825 0.0
Zn20 Zn 0.8949 0.5046 0.0429 0.0
Zn21 Zn 0.86559 0.44767 0.94574 0.0
C22 C 0.91887 0.57482 0.06622 0.0
O23 O 0.94737 0.57753 0.07734 0.0
C24 C 0.82053 0.381 0.94151 0.0
O25 O 0.81119 0.39435 0.91579 0.0
O26 O 0.88774 0.48292 0.09214 0.0
O27 O 0.85485 0.48087 0.00882 0.0
O28 O 0.82655 0.45377 0.96055 0.0
C29 C 0.86174 0.47253 0.11228 0.0
O30 O 0.83517 0.47319 0.10004 0.0
O31 O 0.89705 0.54817 0.05069 0.0
C32 C 0.87824 0.43475 0.87327 0.0
O33 O 0.88062 0.41109 0.89052 0.0
O34 O 0.87445 0.45607 0.89147 0.0
O35 O 0.90283 0.4773 0.97913 0.0
O36 O 0.93784 0.50754 0.02091 0.0
O37 O 0.84775 0.39967 0.95843 0.0
C38 C 0.82764 0.46773 0.99065 0.0
C39 C 0.93217 0.49009 0.99234 0.0
Zn40 Zn 0.51425 0.4054 0.04353 0.0
Zn41 Zn 0.53187 0.40916 0.95544 0.0
C42 C 0.44433 0.36313 0.07204 0.0
O43 O 0.45274 0.38784 0.09504 0.0
C44 C 0.60221 0.43269 0.95872 0.0
O45 O 0.59365 0.41447 0.92911 0.0
O46 O 0.52934 0.41733 0.09508 0.0
O47 O 0.5397 0.38304 0.02524 0.0
O48 O 0.51034 0.36231 0.97518 0.0
C49 C 0.52246 0.39417 0.11808 0.0
O50 O 0.50571 0.36263 0.1077 0.0
O51 O 0.46465 0.36715 0.04616 0.0
C52 C 0.54852 0.43742 0.88467 0.0
O53 O 0.55519 0.46389 0.90419 0.0
O54 O 0.53714 0.40915 0.90053 0.0
O55 O 0.50583 0.43258 0.96385 0.0
O56 O 0.52363 0.44951 0.01931 0.0
O57 O 0.57964 0.43526 0.97629 0.0
C58 C 0.52442 0.35887 0.00316 0.0
C59 C 0.51547 0.45491 0.98813 0.0
Zn60 Zn 0.8584 0.4346 0.45604 0.0
Zn61 Zn 0.90042 0.40033 0.53545 0.0
C62 C 0.83021 0.47704 0.45945 0.0
O63 O 0.82902 0.47335 0.42406 0.0
C64 C 0.91934 0.35499 0.56935 0.0
O65 O 0.9355 0.37986 0.59226 0.0
O66 O 0.8597 0.43789 0.40145 0.0
O67 O 0.89929 0.43956 0.47957 0.0
O68 O 0.94063 0.44115 0.50881 0.0
C69 C 0.88166 0.43847 0.37985 0.0
O70 O 0.90781 0.43754 0.39297 0.0
O71 O 0.8448 0.46513 0.47835 0.0
C72 C 0.86995 0.39659 0.6049 0.0
O73 O 0.84685 0.36756 0.59158 0.0
O74 O 0.89578 0.41559 0.58561 0.0
O75 O 0.85456 0.38298 0.51022 0.0
O76 O 0.82158 0.38863 0.47088 0.0
O77 O 0.90529 0.35934 0.54183 0.0
C78 C 0.93064 0.45481 0.4858 0.0
C79 C 0.82578 0.37144 0.49517 0.0
Zn80 Zn 0.56558 0.44395 0.45361 0.0
Zn81 Zn 0.59523 0.50834 0.54637 0.0
C82 C 0.53372 0.37661 0.4412 0.0
O83 O 0.55467 0.38867 0.41354 0.0
C84 C 0.64431 0.57491 0.56836 0.0
O85 O 0.62014 0.57031 0.59106 0.0
O86 O 0.57415 0.45462 0.4001 0.0
O87 O 0.55809 0.47528 0.48473 0.0
O88 O 0.55293 0.50735 0.52399 0.0
C89 C 0.55394 0.45892 0.38048 0.0
O90 O 0.52995 0.46213 0.39608 0.0
O91 O 0.5292 0.39672 0.4605 0.0
C92 C 0.58617 0.46859 0.61329 0.0
O93 O 0.58737 0.44634 0.59204 0.0
O94 O 0.58786 0.49474 0.59953 0.0
O95 O 0.60506 0.47743 0.51696 0.0
O96 O 0.60618 0.44438 0.47542 0.0
O97 O 0.63815 0.55292 0.54429 0.0
C98 C 0.5411 0.48795 0.49662 0.0
C99 C 0.61861 0.46158 0.50402 0.0
Zn100 Zn 0.53182 0.13036 0.45966 0.0
Zn101 Zn 0.50909 0.11088 0.54888 0.0
C102 C 0.60487 0.17502 0.46239 0.0
O103 O 0.59951 0.1831 0.42997 0.0
C104 C 0.44248 0.09035 0.57794 0.0
O105 O 0.45268 0.07718 0.60293 0.0
O106 O 0.53557 0.13664 0.40481 0.0
O107 O 0.50614 0.08078 0.46627 0.0
O108 O 0.51802 0.07674 0.52336 0.0
C109 C 0.55135 0.12406 0.38889 0.0
O110 O 0.56329 0.10856 0.4085 0.0
O111 O 0.58001 0.15257 0.48066 0.0
C112 C 0.52519 0.13467 0.62265 0.0
O113 O 0.52093 0.15906 0.61039 0.0
O114 O 0.52193 0.11166 0.60112 0.0
O115 O 0.53744 0.15823 0.53172 0.0
O116 O 0.50896 0.15306 0.48199 0.0
O117 O 0.46025 0.10217 0.54924 0.0
C118 C 0.51262 0.0658 0.49096 0.0
C119 C 0.52088 0.16741 0.51212 0.0
Zn120 Zn 0.26088 0.42942 0.37609 0.0
Zn121 Zn 0.23083 0.45964 0.2803 0.0
C122 C 0.30753 0.4087 0.40085 0.0
O123 O 0.28239 0.38711 0.42139 0.0
C124 C 0.20861 0.50348 0.27098 0.0
O125 O 0.23147 0.51151 0.24535 0.0
O126 O 0.25045 0.43478 0.42768 0.0
O127 O 0.27662 0.47301 0.34756 0.0
O128 O 0.27183 0.49867 0.29925 0.0
C129 C 0.26151 0.46245 0.44439 0.0
O130 O 0.28082 0.4909 0.42723 0.0
O131 O 0.30241 0.42591 0.37762 0.0
C132 C 0.21231 0.441 0.20681 0.0
O133 O 0.18264 0.42424 0.2226 0.0
O134 O 0.23847 0.45554 0.22652 0.0
O135 O 0.22552 0.42435 0.31481 0.0
O136 O 0.21852 0.38794 0.35555 0.0
O137 O 0.19876 0.47637 0.28857 0.0
C138 C 0.28587 0.49975 0.32928 0.0
C139 C 0.20703 0.39541 0.32808 0.0
Zn140 Zn 0.56947 0.84294 0.37448 0.0
Zn141 Zn 0.53441 0.77573 0.28646 0.0
C142 C 0.59044 0.91058 0.39824 0.0
O143 O 0.6118 0.90732 0.41912 0.0
C144 C 0.49171 0.7087 0.28071 0.0
O145 O 0.48153 0.72186 0.25562 0.0
O146 O 0.56167 0.82698 0.4259 0.0
O147 O 0.52718 0.81456 0.34539 0.0
O148 O 0.49515 0.7805 0.30281 0.0
C149 C 0.53445 0.80468 0.44093 0.0
O150 O 0.50696 0.78754 0.42153 0.0
O151 O 0.57324 0.88796 0.37519 0.0
C152 C 0.54544 0.76606 0.2124 0.0
O153 O 0.54873 0.74186 0.22694 0.0
O154 O 0.54122 0.78581 0.2328 0.0
O155 O 0.57284 0.80707 0.31729 0.0
O156 O 0.61109 0.84151 0.35393 0.0
O157 O 0.51844 0.72782 0.29817 0.0
C158 C 0.49853 0.7985 0.33028 0.0
C159 C 0.60305 0.8207 0.328 0.0
Zn160 Zn 0.16934 0.74074 0.37946 0.0
Zn161 Zn 0.2047 0.74411 0.29026 0.0
C162 C 0.09889 0.69219 0.40432 0.0
O163 O 0.10389 0.71566 0.42783 0.0
C164 C 0.27709 0.76598 0.28991 0.0
O165 O 0.273 0.76094 0.25484 0.0
O166 O 0.18328 0.75363 0.4317 0.0
O167 O 0.19876 0.72147 0.36417 0.0
O168 O 0.17182 0.70033 0.31362 0.0
C169 C 0.17775 0.73012 0.45375 0.0
O170 O 0.16248 0.69891 0.44229 0.0
O171 O 0.1213 0.69881 0.37999 0.0
C172 C 0.22101 0.76685 0.21868 0.0
O173 O 0.23597 0.79485 0.23739 0.0
O174 O 0.20441 0.73908 0.23557 0.0
O175 O 0.19704 0.78205 0.29915 0.0
O176 O 0.1749 0.78324 0.35229 0.0
O177 O 0.25178 0.75943 0.30989 0.0
C178 C 0.18361 0.69651 0.3431 0.0
C179 C 0.18686 0.79616 0.32116 0.0
Zn180 Zn 0.54146 0.76687 0.78124 0.0
Zn181 Zn 0.56469 0.73761 0.87896 0.0
C182 C 0.51196 0.80698 0.7789 0.0
O183 O 0.50289 0.79238 0.74712 0.0
C184 C 0.58665 0.69108 0.90643 0.0
O185 O 0.60956 0.71627 0.92558 0.0
O186 O 0.5442 0.76273 0.72742 0.0
O187 O 0.57523 0.76343 0.81082 0.0
O188 O 0.60664 0.77932 0.85828 0.0
C189 C 0.55807 0.78989 0.70943 0.0
O190 O 0.57356 0.8185 0.72703 0.0
O191 O 0.53443 0.80462 0.79651 0.0
C192 C 0.53429 0.72615 0.94826 0.0
O193 O 0.52021 0.69503 0.93666 0.0
O194 O 0.5548 0.74986 0.9277 0.0
O195 O 0.52271 0.72209 0.84768 0.0
O196 O 0.49885 0.72728 0.79821 0.0
O197 O 0.56834 0.69609 0.88446 0.0
C198 C 0.60124 0.78595 0.82649 0.0
C199 C 0.49657 0.71246 0.82812 0.0
Zn200 Zn 0.25383 0.79373 0.79022 0.0
Zn201 Zn 0.25816 0.81708 0.87847 0.0
C202 C 0.22872 0.72211 0.79454 0.0
O203 O 0.24474 0.72858 0.76335 0.0
C204 C 0.30106 0.88877 0.89899 0.0
O205 O 0.27546 0.88412 0.9194 0.0
O206 O 0.25655 0.79021 0.73563 0.0
O207 O 0.2281 0.81767 0.79557 0.0
O208 O 0.21526 0.80912 0.85382 0.0
C209 C 0.22803 0.77252 0.72042 0.0
O210 O 0.20054 0.75825 0.74058 0.0
O211 O 0.2284 0.74591 0.8118 0.0
C212 C 0.26831 0.80682 0.95193 0.0
O213 O 0.29891 0.81746 0.93912 0.0
O214 O 0.24566 0.80487 0.93064 0.0
O215 O 0.27902 0.78972 0.86265 0.0
O216 O 0.30006 0.81675 0.81117 0.0
O217 O 0.29741 0.86535 0.87783 0.0
C218 C 0.20836 0.81359 0.82167 0.0
C219 C 0.30345 0.80419 0.84038 0.0
Zn220 Zn 0.22185 0.46386 0.78748 0.0
Zn221 Zn 0.15467 0.42795 0.8769 0.0
C222 C 0.29176 0.50307 0.78161 0.0
O223 O 0.28196 0.51263 0.7528 0.0
C224 C 0.09209 0.41151 0.91349 0.0
O225 O 0.10393 0.39999 0.9386 0.0
O226 O 0.21297 0.45803 0.73376 0.0
O227 O 0.19033 0.4243 0.81724 0.0
O228 O 0.15583 0.38676 0.85482 0.0
C229 C 0.22998 0.45034 0.71274 0.0
O230 O 0.25308 0.44452 0.72611 0.0
O231 O 0.2697 0.47921 0.80084 0.0
C232 C 0.17977 0.46238 0.94442 0.0
O233 O 0.16725 0.48046 0.93161 0.0
O234 O 0.1773 0.43809 0.92566 0.0
O235 O 0.18083 0.47116 0.84716 0.0
O236 O 0.21511 0.50186 0.80328 0.0
O237 O 0.10795 0.42163 0.88354 0.0
C238 C 0.17591 0.39409 0.82798 0.0
C239 C 0.19627 0.49897 0.83005 0.0
Zn240 Zn 0.92877 0.76497 0.71218 0.0
Zn241 Zn 0.89877 0.805 0.62744 0.0
C242 C 0.97044 0.74367 0.74773 0.0
O243 O 0.94542 0.73105 0.7713 0.0
C244 C 0.84855 0.82475 0.62806 0.0
O245 O 0.84333 0.81371 0.59451 0.0
O246 O 0.91496 0.77375 0.76179 0.0
O247 O 0.94906 0.80887 0.68304 0.0
O248 O 0.94583 0.84035 0.63984 0.0
C249 C 0.93806 0.79333 0.78351 0.0
O250 O 0.96981 0.80781 0.77302 0.0
O251 O 0.96742 0.75662 0.71864 0.0
C252 C 0.88917 0.77719 0.55232 0.0
O253 O 0.88434 0.74885 0.56627 0.0
O254 O 0.89511 0.8015 0.57308 0.0
O255 O 0.8929 0.76584 0.65473 0.0
O256 O 0.88775 0.72486 0.68729 0.0
O257 O 0.86924 0.8211 0.64755 0.0
C258 C 0.96217 0.83633 0.66528 0.0
C259 C 0.87643 0.7349 0.66183 0.0
Zn260 Zn 0.21754 0.15319 0.71105 0.0
Zn261 Zn 0.19858 0.13006 0.62104 0.0
C262 C 0.24232 0.23092 0.72083 0.0
O263 O 0.27301 0.24216 0.70806 0.0
C264 C 0.14745 0.06167 0.62617 0.0
O265 O 0.13646 0.07186 0.59891 0.0
O266 O 0.21442 0.13422 0.76084 0.0
O267 O 0.17015 0.12604 0.69112 0.0
O268 O 0.17936 0.15661 0.64228 0.0
C269 C 0.19432 0.13709 0.7824 0.0
O270 O 0.17676 0.15057 0.77075 0.0
O271 O 0.22162 0.19935 0.72193 0.0
C272 C 0.20638 0.113 0.55041 0.0
O273 O 0.2258 0.10505 0.56895 0.0
O274 O 0.19049 0.12508 0.56698 0.0
O275 O 0.24795 0.14987 0.62535 0.0
O276 O 0.25726 0.15174 0.68443 0.0
O277 O 0.17455 0.08271 0.64202 0.0
C278 C 0.1628 0.14391 0.67127 0.0
C279 C 0.26669 0.15218 0.65161 0.0
Zn280 Zn 0.82322 0.06963 0.71131 0.0
Zn281 Zn 0.88039 0.10313 0.61582 0.0
C282 C 0.75457 0.02299 0.74122 0.0
O283 O 0.7581 0.04772 0.76195 0.0
C284 C 0.94929 0.13141 0.61793 0.0
O285 O 0.94067 0.10972 0.59132 0.0
O286 O 0.84683 0.08191 0.75936 0.0
O287 O 0.84808 0.05263 0.67843 0.0
O288 O 0.87817 0.06065 0.62852 0.0
C289 C 0.84379 0.05874 0.78042 0.0
O290 O 0.82561 0.02729 0.77004 0.0
O291 O 0.77738 0.02831 0.7181 0.0
C292 C 0.8947 0.1265 0.54335 0.0
O293 O 0.91772 0.15356 0.56 0.0
O294 O 0.87283 0.10195 0.56199 0.0
O295 O 0.84584 0.10098 0.6483 0.0
O296 O 0.82235 0.11173 0.69234 0.0
O297 O 0.92696 0.13628 0.63246 0.0
C298 C 0.86399 0.04361 0.65697 0.0
C299 C 0.83802 0.12096 0.66235 0.0
Zn300 Zn 0.19586 0.08174 0.12165 0.0
Zn301 Zn 0.21986 0.07454 0.20967 0.0
C302 C 0.15097 0.10886 0.12555 0.0
O303 O 0.147 0.10003 0.09132 0.0
C304 C 0.23996 0.02926 0.24214 0.0
O305 O 0.25144 0.0522 0.26764 0.0
O306 O 0.18942 0.08028 0.06738 0.0
O307 O 0.24537 0.11088 0.12576 0.0
O308 O 0.2569 0.11864 0.18425 0.0
C309 C 0.2066 0.10826 0.05095 0.0
O310 O 0.22566 0.13546 0.06994 0.0
O311 O 0.17075 0.10355 0.14501 0.0
C312 C 0.19542 0.06692 0.28276 0.0
O313 O 0.17284 0.03721 0.27046 0.0
O314 O 0.21826 0.08778 0.26137 0.0
O315 O 0.1704 0.0511 0.19399 0.0
O316 O 0.17656 0.03501 0.13989 0.0
O317 O 0.22958 0.03528 0.21256 0.0
C318 C 0.26485 0.12787 0.15126 0.0
C319 C 0.15998 0.02896 0.16923 0.0
Zn320 Zn 0.8994 0.11362 0.1152 0.0
Zn321 Zn 0.92236 0.1684 0.21205 0.0
C322 C 0.88005 0.04754 0.11253 0.0
O323 O 0.90644 0.06151 0.0908 0.0
C324 C 0.97349 0.24332 0.22615 0.0
O325 O 0.95308 0.25416 0.21638 0.0
O326 O 0.9023 0.12476 0.06237 0.0
O327 O 0.88775 0.14044 0.14792 0.0
O328 O 0.88157 0.17016 0.18908 0.0
C329 C 0.87779 0.10433 0.04291 0.0
O330 O 0.8508 0.07976 0.0585 0.0
O331 O 0.86855 0.06531 0.12527 0.0
C332 C 0.93206 0.14248 0.27646 0.0
O333 O 0.96274 0.15811 0.26261 0.0
O334 O 0.90802 0.14169 0.25852 0.0
O335 O 0.94105 0.14708 0.17838 0.0
O336 O 0.94478 0.12092 0.13093 0.0
O337 O 0.9635 0.2122 0.22499 0.0
C338 C 0.87055 0.15274 0.16027 0.0
C339 C 0.95681 0.13547 0.16088 0.0
Zn340 Zn 0.85929 0.79019 0.12051 0.0
Zn341 Zn 0.83839 0.77628 0.21173 0.0
C342 C 0.92672 0.83969 0.12556 0.0
O343 O 0.91421 0.85154 0.10161 0.0
C344 C 0.76579 0.75251 0.22743 0.0
O345 O 0.76354 0.72509 0.241 0.0
O346 O 0.86279 0.79532 0.065 0.0
O347 O 0.83107 0.74126 0.13068 0.0
O348 O 0.84356 0.73948 0.18802 0.0
C349 C 0.88535 0.79097 0.04981 0.0
O350 O 0.90365 0.78272 0.06995 0.0
O351 O 0.90744 0.81094 0.13959 0.0
C352 C 0.86305 0.80157 0.28405 0.0
O353 O 0.87377 0.8312 0.26921 0.0
O354 O 0.84814 0.77532 0.26462 0.0
O355 O 0.87034 0.82219 0.19235 0.0
O356 O 0.84103 0.81717 0.14296 0.0
O357 O 0.79281 0.77376 0.21126 0.0
C358 C 0.83708 0.72688 0.15643 0.0
C359 C 0.8552 0.83258 0.17204 0.0
H360 H 0.52262 0.16775 0.02689 0.0
H361 H 0.55725 0.20955 0.91992 0.0
H362 H 0.51954 0.2179 0.04392 0.0
H363 H 0.55545 0.25969 0.93723 0.0
H364 H 0.58217 0.35782 0.99203 0.0
H365 H 0.588 0.30783 0.98739 0.0
H366 H 0.48253 0.24487 0.01561 0.0
H367 H 0.47661 0.29491 0.01922 0.0
C368 C 0.52948 0.18762 0.00716 0.0
C369 C 0.53963 0.18476 0.97199 0.0
C370 C 0.52788 0.21618 0.01688 0.0
C371 C 0.53762 0.24258 0.99192 0.0
C372 C 0.54813 0.23975 0.95699 0.0
C373 C 0.54874 0.21094 0.94699 0.0
C374 C 0.56051 0.33328 0.99781 0.0
C375 C 0.52891 0.32974 0.00558 0.0
C376 C 0.56379 0.30485 0.99521 0.0
C377 C 0.53564 0.27269 0.00105 0.0
C378 C 0.50456 0.26946 0.01119 0.0
C379 C 0.50111 0.29788 0.01301 0.0
H380 H 0.6947 0.18139 0.03209 0.0
H381 H 0.62787 0.21602 0.99616 0.0
H382 H 0.74366 0.23734 0.02073 0.0
H383 H 0.67666 0.27191 0.98455 0.0
H384 H 0.76489 0.33345 0.90705 0.0
H385 H 0.71878 0.28236 0.93322 0.0
H386 H 0.77425 0.30144 0.03325 0.0
H387 H 0.82087 0.35302 0.00698 0.0
C388 C 0.69067 0.20141 0.02277 0.0
C389 C 0.65811 0.1949 0.01451 0.0
C390 C 0.71847 0.23325 0.01642 0.0
C391 C 0.71375 0.25844 0.00107 0.0
C392 C 0.68079 0.25257 0.99591 0.0
C393 C 0.65302 0.22087 0.00269 0.0
C394 C 0.76745 0.32665 0.9345 0.0
C395 C 0.79622 0.34733 0.95513 0.0
C396 C 0.74092 0.29767 0.9496 0.0
C397 C 0.74269 0.28874 0.98555 0.0
C398 C 0.77226 0.30821 0.0056 0.0
C399 C 0.79893 0.33743 0.99046 0.0
H400 H 0.65816 0.46049 0.91689 0.0
H401 H 0.62548 0.43893 0.02852 0.0
H402 H 0.71564 0.47759 0.93478 0.0
H403 H 0.68362 0.45565 0.0467 0.0
H404 H 0.77206 0.4264 0.03079 0.0
H405 H 0.71861 0.42665 0.03166 0.0
H406 H 0.76596 0.51967 0.97101 0.0
H407 H 0.81918 0.51919 0.97023 0.0
C408 C 0.66353 0.46012 0.94543 0.0
C409 C 0.63748 0.44838 0.97131 0.0
C410 C 0.69651 0.47012 0.95575 0.0
C411 C 0.70419 0.46805 0.99217 0.0
C412 C 0.67838 0.45755 0.01844 0.0
C413 C 0.64527 0.44818 0.00812 0.0
C414 C 0.77123 0.44752 0.019 0.0
C415 C 0.79945 0.47282 0.0005 0.0
C416 C 0.74074 0.44775 0.01954 0.0
C417 C 0.73804 0.47301 0.00104 0.0
C418 C 0.76726 0.49979 0.98526 0.0
C419 C 0.7977 0.49963 0.98493 0.0
H420 H 0.67336 0.52248 0.51446 0.0
H421 H 0.63821 0.41629 0.51818 0.0
H422 H 0.73202 0.53484 0.51516 0.0
H423 H 0.69681 0.42859 0.52025 0.0
H424 H 0.80826 0.4646 0.52964 0.0
H425 H 0.75972 0.46634 0.55462 0.0
H426 H 0.75114 0.51083 0.45518 0.0
H427 H 0.79907 0.50837 0.42956 0.0
C428 C 0.6783 0.50197 0.51745 0.0
C429 C 0.65175 0.46856 0.51621 0.0
C430 C 0.71169 0.50901 0.51769 0.0
C431 C 0.71859 0.48263 0.51771 0.0
C432 C 0.69191 0.44928 0.52057 0.0
C433 C 0.65855 0.44223 0.51928 0.0
C434 C 0.79676 0.47579 0.51349 0.0
C435 C 0.80725 0.48615 0.47749 0.0
C436 C 0.76905 0.47672 0.52787 0.0
C437 C 0.75213 0.48888 0.50682 0.0
C438 C 0.76431 0.50186 0.47204 0.0
C439 C 0.79157 0.5003 0.45735 0.0
H440 H 0.4706 0.17982 0.52765 0.0
H441 H 0.57807 0.22725 0.51034 0.0
H442 H 0.47405 0.23402 0.52524 0.0
H443 H 0.58197 0.28075 0.50328 0.0
H444 H 0.58504 0.37232 0.46844 0.0
H445 H 0.58302 0.3271 0.5028 0.0
H446 H 0.47389 0.2698 0.48826 0.0
H447 H 0.47665 0.31776 0.45817 0.0
C448 C 0.49501 0.20224 0.52336 0.0
C449 C 0.52396 0.19991 0.51816 0.0
C450 C 0.4971 0.23342 0.52118 0.0
C451 C 0.52787 0.2624 0.51145 0.0
C452 C 0.5574 0.25983 0.51011 0.0
C453 C 0.55542 0.22888 0.51392 0.0
C454 C 0.56072 0.34982 0.47292 0.0
C455 C 0.53108 0.34762 0.45985 0.0
C456 C 0.55939 0.32344 0.49246 0.0
C457 C 0.52843 0.29327 0.49769 0.0
C458 C 0.49849 0.292 0.48543 0.0
C459 C 0.49984 0.31925 0.46731 0.0
H460 H 0.62247 0.20028 0.53112 0.0
H461 H 0.66429 0.1954 0.42781 0.0
H462 H 0.67904 0.24385 0.55101 0.0
H463 H 0.72057 0.23789 0.44786 0.0
H464 H 0.8214 0.31011 0.49361 0.0
H465 H 0.76894 0.25517 0.49571 0.0
H466 H 0.71248 0.30435 0.52186 0.0
H467 H 0.7645 0.35894 0.51848 0.0
C468 C 0.64394 0.20759 0.51326 0.0
C469 C 0.63912 0.19467 0.47791 0.0
C470 C 0.67621 0.23255 0.52456 0.0
C471 C 0.70421 0.24423 0.50098 0.0
C472 C 0.69963 0.22915 0.46679 0.0
C473 C 0.66738 0.20495 0.45522 0.0
C474 C 0.79787 0.30892 0.50088 0.0
C475 C 0.79673 0.33856 0.50553 0.0
C476 C 0.76792 0.2776 0.50203 0.0
C477 C 0.73662 0.27552 0.50879 0.0
C478 C 0.73619 0.3051 0.51686 0.0
C479 C 0.7659 0.33635 0.51474 0.0
H480 H 0.24296 0.69884 0.32879 0.0
H481 H 0.13924 0.63192 0.36005 0.0
H482 H 0.25009 0.65053 0.31678 0.0
H483 H 0.14621 0.58349 0.34849 0.0
H484 H 0.17936 0.50417 0.33582 0.0
H485 H 0.17702 0.5517 0.36231 0.0
H486 H 0.22254 0.60975 0.26511 0.0
H487 H 0.2249 0.56269 0.23871 0.0
C488 C 0.22205 0.6738 0.3341 0.0
C489 C 0.19045 0.66878 0.34488 0.0
C490 C 0.22602 0.64621 0.32709 0.0
C491 C 0.19846 0.61333 0.33107 0.0
C492 C 0.1678 0.60854 0.34514 0.0
C493 C 0.16375 0.63614 0.35165 0.0
C494 C 0.18834 0.52691 0.31993 0.0
C495 C 0.20217 0.52967 0.2851 0.0
C496 C 0.1873 0.55415 0.33524 0.0
C497 C 0.20023 0.58454 0.31601 0.0
C498 C 0.21323 0.58691 0.28091 0.0
C499 C 0.21412 0.55977 0.2656 0.0
H500 H 0.48525 0.68353 0.34934 0.0
H501 H 0.44413 0.65779 0.24115 0.0
H502 H 0.43546 0.63279 0.37313 0.0
H503 H 0.39498 0.60749 0.26481 0.0
H504 H 0.29623 0.56153 0.31533 0.0
H505 H 0.35108 0.61261 0.31126 0.0
H506 H 0.39817 0.56161 0.36073 0.0
H507 H 0.34269 0.5099 0.36506 0.0
C508 C 0.4662 0.66644 0.33057 0.0
C509 C 0.46809 0.67459 0.29352 0.0
C510 C 0.43777 0.6377 0.34422 0.0
C511 C 0.41134 0.61711 0.32081 0.0
C512 C 0.41489 0.62362 0.28339 0.0
C513 C 0.44303 0.65217 0.26984 0.0
C514 C 0.31808 0.5615 0.32653 0.0
C515 C 0.3157 0.53169 0.3393 0.0
C516 C 0.34936 0.59065 0.32419 0.0
C517 C 0.37862 0.59034 0.33458 0.0
C518 C 0.37578 0.562 0.35214 0.0
C519 C 0.34418 0.53259 0.35464 0.0
H520 H 0.49242 0.85385 0.32513 0.0
H521 H 0.43991 0.7502 0.3595 0.0
H522 H 0.43886 0.85391 0.32586 0.0
H523 H 0.38661 0.75033 0.3612 0.0
H524 H 0.2933 0.75938 0.3598 0.0
H525 H 0.34969 0.77546 0.38295 0.0
H526 H 0.39321 0.81835 0.27857 0.0
H527 H 0.33735 0.80198 0.25544 0.0
C528 C 0.46963 0.83164 0.33446 0.0
C529 C 0.46987 0.80196 0.34205 0.0
C530 C 0.43907 0.83161 0.33479 0.0
C531 C 0.40861 0.80201 0.34323 0.0
C532 C 0.4097 0.77352 0.3548 0.0
C533 C 0.44009 0.77336 0.35371 0.0
C534 C 0.31506 0.77276 0.3421 0.0
C535 C 0.31098 0.77894 0.30566 0.0
C536 C 0.34723 0.78202 0.35536 0.0
C537 C 0.37576 0.79827 0.33259 0.0
C538 C 0.37176 0.8063 0.29691 0.0
C539 C 0.3397 0.79652 0.28351 0.0
H540 H 0.50263 0.86055 0.78956 0.0
H541 H 0.46142 0.75543 0.81354 0.0
H542 H 0.45181 0.85778 0.81564 0.0
H543 H 0.41087 0.7523 0.83938 0.0
H544 H 0.31204 0.75511 0.81239 0.0
H545 H 0.36543 0.75547 0.80728 0.0
H546 H 0.41493 0.84652 0.87088 0.0
H547 H 0.36103 0.84554 0.87618 0.0
C548 C 0.48307 0.83719 0.80133 0.0
C549 C 0.48556 0.8082 0.79988 0.0
C550 C 0.45415 0.83553 0.81633 0.0
C551 C 0.4274 0.80474 0.82936 0.0
C552 C 0.43098 0.77626 0.82939 0.0
C553 C 0.45986 0.77805 0.81479 0.0
C554 C 0.33424 0.77458 0.82601 0.0
C555 C 0.33307 0.80059 0.84418 0.0
C556 C 0.3647 0.77483 0.82324 0.0
C557 C 0.39438 0.80133 0.83833 0.0
C558 C 0.39251 0.82613 0.85859 0.0
C559 C 0.36187 0.82561 0.86165 0.0
H560 H 0.24513 0.55837 0.85698 0.0
H561 H 0.14081 0.50582 0.82368 0.0
H562 H 0.24468 0.61125 0.85858 0.0
H563 H 0.14051 0.559 0.82417 0.0
H564 H 0.19166 0.66398 0.7582 0.0
H565 H 0.1759 0.60744 0.77823 0.0
H566 H 0.21759 0.64602 0.88391 0.0
H567 H 0.2325 0.70289 0.86393 0.0
C568 C 0.22178 0.55805 0.85121 0.0
C569 C 0.19298 0.52816 0.84029 0.0
C570 C 0.22147 0.58828 0.85219 0.0
C571 C 0.19263 0.58932 0.84126 0.0
C572 C 0.16309 0.55893 0.8327 0.0
C573 C 0.16319 0.52852 0.83255 0.0
C574 C 0.19649 0.66021 0.78606 0.0
C575 C 0.2133 0.6877 0.80952 0.0
C576 C 0.18732 0.62781 0.79761 0.0
C577 C 0.19556 0.62227 0.83263 0.0
C578 C 0.21089 0.64956 0.85679 0.0
C579 C 0.21928 0.68201 0.84545 0.0
H580 H 0.31151 0.51417 0.85262 0.0
H581 H 0.34806 0.54336 0.7428 0.0
H582 H 0.36219 0.56419 0.87547 0.0
H583 H 0.39848 0.59266 0.76568 0.0
H584 H 0.43397 0.69545 0.80503 0.0
H585 H 0.38526 0.6391 0.80272 0.0
H586 H 0.43828 0.6018 0.86646 0.0
H587 H 0.48757 0.65893 0.86944 0.0
C588 C 0.331 0.53045 0.83354 0.0
C589 C 0.32577 0.52545 0.79591 0.0
C590 C 0.3598 0.55899 0.84665 0.0
C591 C 0.38348 0.58227 0.82214 0.0
C592 C 0.38008 0.57507 0.78492 0.0
C593 C 0.35138 0.54691 0.77186 0.0
C594 C 0.43499 0.67558 0.81964 0.0
C595 C 0.46483 0.6813 0.83652 0.0
C596 C 0.40713 0.64337 0.81826 0.0
C597 C 0.40874 0.61635 0.83353 0.0
C598 C 0.43688 0.62244 0.85423 0.0
C599 C 0.46492 0.65502 0.85589 0.0
H600 H 0.89622 0.01928 0.61628 0.0
H601 H 0.8287 0.99455 0.70833 0.0
H602 H 0.8854 0.96213 0.61515 0.0
H603 H 0.81855 0.93683 0.70743 0.0
H604 H 0.85429 0.85129 0.69563 0.0
H605 H 0.856 0.90402 0.70944 0.0
H606 H 0.82438 0.90754 0.60024 0.0
H607 H 0.82265 0.85508 0.58617 0.0
C608 C 0.87938 0.00179 0.63662 0.0
C609 C 0.86244 0.01112 0.66172 0.0
C610 C 0.87316 0.96906 0.63582 0.0
C611 C 0.85029 0.94512 0.6604 0.0
C612 C 0.83576 0.95495 0.68779 0.0
C613 C 0.84167 0.98787 0.68834 0.0
C614 C 0.84663 0.86276 0.67492 0.0
C615 C 0.83912 0.84954 0.63954 0.0
C616 C 0.84758 0.89283 0.68292 0.0
C617 C 0.84103 0.90986 0.65562 0.0
C618 C 0.82998 0.89484 0.6215 0.0
C619 C 0.82882 0.86475 0.61355 0.0
H620 H 0.14173 0.03443 0.69408 0.0
H621 H 0.10988 0.00868 0.58292 0.0
H622 H 0.10368 0.97546 0.71204 0.0
H623 H 0.07281 0.95051 0.60047 0.0
H624 H 0.01786 0.84635 0.62962 0.0
H625 H 0.07183 0.89922 0.62649 0.0
H626 H 0.03752 0.94046 0.7105 0.0
H627 H 0.98362 0.88725 0.7137 0.0
C628 C 0.12717 0.01607 0.67348 0.0
C629 C 0.12836 0.02604 0.63719 0.0
C630 C 0.10547 0.98248 0.68372 0.0
C631 C 0.08549 0.95841 0.65761 0.0
C632 C 0.08826 0.96831 0.62114 0.0
C633 C 0.10923 0.00173 0.61112 0.0
C634 C 0.02257 0.86628 0.64846 0.0
C635 C 0.99697 0.86307 0.67187 0.0
C636 C 0.0533 0.8965 0.64661 0.0
C637 C 0.05863 0.92405 0.6679 0.0
C638 C 0.03419 0.91959 0.69397 0.0
C639 C 0.00337 0.88926 0.69577 0.0
H640 H 0.95586 0.10505 0.68027 0.0
H641 H 0.01263 0.1771 0.59634 0.0
H642 H 0.00828 0.11101 0.70481 0.0
H643 H 0.06506 0.18347 0.62065 0.0
H644 H 0.15713 0.19931 0.6726 0.0
H645 H 0.10479 0.20129 0.67104 0.0
H646 H 0.04689 0.093 0.68047 0.0
H647 H 0.09945 0.09142 0.68354 0.0
C648 C 0.97983 0.12311 0.66804 0.0
C649 C 0.98073 0.14114 0.63698 0.0
C650 C 0.00967 0.12627 0.68177 0.0
C651 C 0.04078 0.14776 0.66474 0.0
C652 C 0.04158 0.16715 0.63478 0.0
C653 C 0.0117 0.16357 0.62078 0.0
C654 C 0.13312 0.17612 0.67523 0.0
C655 C 0.13194 0.14522 0.67766 0.0
C656 C 0.10326 0.17719 0.67427 0.0
C657 C 0.07179 0.14729 0.67492 0.0
C658 C 0.07075 0.11651 0.68018 0.0
C659 C 0.10073 0.11552 0.68179 0.0
H660 H 0.1268 0.14315 0.08919 0.0
H661 H 0.12859 0.10533 0.19582 0.0
H662 H 0.0852 0.15744 0.10974 0.0
H663 H 0.08609 0.11947 0.21658 0.0
H664 H 0.96898 0.09028 0.19453 0.0
H665 H 0.02332 0.09204 0.19623 0.0
H666 H 0.07271 0.1928 0.15252 0.0
H667 H 0.01826 0.19089 0.15109 0.0
C668 C 0.11875 0.1385 0.11731 0.0
C669 C 0.13061 0.12273 0.14077 0.0
C670 C 0.09509 0.14698 0.1292 0.0
C671 C 0.08229 0.13954 0.16478 0.0
C672 C 0.09547 0.12541 0.18897 0.0
C673 C 0.11981 0.11743 0.17716 0.0
C674 C 0.99174 0.11325 0.18676 0.0
C675 C 0.98968 0.14048 0.17272 0.0
C676 C 0.02285 0.11433 0.18781 0.0
C677 C 0.05223 0.14244 0.17414 0.0
C678 C 0.05046 0.17076 0.16306 0.0
C679 C 0.01941 0.16978 0.16241 0.0
H680 H 0.80382 0.84411 0.18294 0.0
H681 H 0.91246 0.89265 0.17637 0.0
H682 H 0.8074 0.89873 0.18404 0.0
H683 H 0.9164 0.94717 0.17345 0.0
H684 H 0.9202 0.04274 0.16144 0.0
H685 H 0.91174 0.99218 0.19211 0.0
H686 H 0.81634 0.93431 0.13605 0.0
H687 H 0.8242 0.9856 0.10783 0.0
C688 C 0.82846 0.86671 0.18234 0.0
C689 C 0.85784 0.86476 0.1792 0.0
C690 C 0.83059 0.8979 0.18253 0.0
C691 C 0.86204 0.92737 0.17757 0.0
C692 C 0.89169 0.9252 0.17749 0.0
C693 C 0.88956 0.894 0.17878 0.0
C694 C 0.89721 0.01909 0.15646 0.0
C695 C 0.87302 0.01737 0.13213 0.0
C696 C 0.89236 0.99019 0.17384 0.0
C697 C 0.86363 0.95897 0.16622 0.0
C698 C 0.83858 0.95786 0.1431 0.0
C699 C 0.84315 0.98702 0.12641 0.0
H700 H 0.13135 0.97358 0.21311 0.0
H701 H 0.11011 0.02201 0.12538 0.0
H702 H 0.07508 0.92321 0.2058 0.0
H703 H 0.05397 0.97282 0.11882 0.0
H704 H 0.97905 0.87304 0.07983 0.0
H705 H 0.03603 0.91721 0.09483 0.0
H706 H 0.0117 0.89945 0.20901 0.0
H707 H 0.95444 0.85392 0.19361 0.0
C708 C 0.11427 0.97357 0.19285 0.0
C709 C 0.12484 0.00117 0.16943 0.0
C710 C 0.08221 0.94488 0.18864 0.0
C711 C 0.06048 0.94371 0.16107 0.0
C712 C 0.07055 0.97247 0.13948 0.0
C713 C 0.1025 0.00073 0.14337 0.0
C714 C 0.98615 0.87808 0.10813 0.0
C715 C 0.96249 0.86049 0.13558 0.0
C716 C 0.01863 0.90356 0.11676 0.0
C717 C 0.02798 0.91259 0.15309 0.0
C718 C 0.00512 0.89321 0.18077 0.0
C719 C 0.97249 0.86715 0.17203 0.0
H720 H 0.60323 0.124 0.35326 0.0
H721 H 0.51553 0.13399 0.33555 0.0
H722 H 0.61396 0.12794 0.28821 0.0
H723 H 0.52617 0.13765 0.2699 0.0
H724 H 0.53446 0.094 0.15696 0.0
H725 H 0.52425 0.09729 0.22159 0.0
H726 H 0.6304 0.1685 0.23666 0.0
H727 H 0.64068 0.16523 0.17226 0.0
C728 C 0.58625 0.1271 0.33541 0.0
C729 C 0.55835 0.12838 0.34945 0.0
C730 C 0.59257 0.12963 0.29814 0.0
C731 C 0.57085 0.13298 0.27392 0.0
C732 C 0.54318 0.13481 0.28794 0.0
C733 C 0.53718 0.13288 0.32544 0.0
C734 C 0.55558 0.11046 0.17405 0.0
C735 C 0.5884 0.12918 0.1595 0.0
C736 C 0.54968 0.11256 0.21098 0.0
C737 C 0.57653 0.13311 0.23419 0.0
C738 C 0.60925 0.15223 0.21951 0.0
C739 C 0.61509 0.15039 0.18258 0.0
H740 H 0.92031 0.435 0.32498 0.0
H741 H 0.83291 0.44527 0.34493 0.0
H742 H 0.91333 0.43831 0.26001 0.0
H743 H 0.8269 0.45038 0.28029 0.0
H744 H 0.80905 0.43809 0.15994 0.0
H745 H 0.81225 0.42562 0.22365 0.0
H746 H 0.92132 0.47625 0.21495 0.0
H747 H 0.91777 0.48674 0.15123 0.0
C748 C 0.89972 0.43817 0.31551 0.0
C749 C 0.87737 0.44014 0.3402 0.0
C750 C 0.89579 0.44031 0.27815 0.0
C751 C 0.8697 0.44497 0.26453 0.0
C752 C 0.84703 0.44634 0.2894 0.0
C753 C 0.85071 0.44378 0.32668 0.0
C754 C 0.83362 0.44614 0.17166 0.0
C755 C 0.86312 0.4633 0.15049 0.0
C756 C 0.83555 0.43926 0.20832 0.0
C757 C 0.8671 0.44997 0.22485 0.0
C758 C 0.89649 0.46686 0.20333 0.0
C759 C 0.89449 0.47314 0.16665 0.0
H760 H 0.49975 0.43828 0.33643 0.0
H761 H 0.60427 0.46312 0.33624 0.0
H762 H 0.49453 0.42072 0.27336 0.0
H763 H 0.59905 0.44615 0.27236 0.0
H764 H 0.57394 0.45192 0.14626 0.0
H765 H 0.58449 0.46768 0.21036 0.0
H766 H 0.49907 0.37164 0.24056 0.0
H767 H 0.48892 0.35551 0.17661 0.0
C768 C 0.52179 0.44056 0.32274 0.0
C769 C 0.5525 0.45234 0.34118 0.0
C770 C 0.51865 0.43013 0.28679 0.0
C771 C 0.54631 0.43189 0.26829 0.0
C772 C 0.57739 0.44457 0.28622 0.0
C773 C 0.58036 0.45436 0.32258 0.0
C774 C 0.55771 0.43407 0.16668 0.0
C775 C 0.53055 0.4026 0.15662 0.0
C776 C 0.56387 0.443 0.20322 0.0
C777 C 0.54246 0.42091 0.23015 0.0
C778 C 0.51581 0.38911 0.22016 0.0
C779 C 0.51011 0.37988 0.18368 0.0
H780 H 0.90102 0.48559 0.82271 0.0
H781 H 0.84335 0.37788 0.83497 0.0
H782 H 0.89399 0.47948 0.75685 0.0
H783 H 0.8374 0.37123 0.77007 0.0
H784 H 0.81891 0.36065 0.6534 0.0
H785 H 0.81579 0.37331 0.71653 0.0
H786 H 0.91215 0.46547 0.70578 0.0
H787 H 0.9138 0.4537 0.6419 0.0
C788 C 0.8868 0.46064 0.81119 0.0
C789 C 0.87335 0.43217 0.83366 0.0
C790 C 0.88294 0.45699 0.77342 0.0
C791 C 0.86539 0.42477 0.75747 0.0
C792 C 0.8508 0.39654 0.78064 0.0
C793 C 0.85472 0.40024 0.8181 0.0
C794 C 0.8392 0.38386 0.6644 0.0
C795 C 0.86693 0.40584 0.6427 0.0
C796 C 0.83766 0.39105 0.70094 0.0
C797 C 0.86422 0.42004 0.71715 0.0
C798 C 0.89109 0.44289 0.69476 0.0
C799 C 0.8923 0.43596 0.658 0.0
H800 H 0.60768 0.51681 0.66536 0.0
H801 H 0.55903 0.40945 0.65119 0.0
H802 H 0.60208 0.50932 0.73071 0.0
H803 H 0.55102 0.40146 0.71658 0.0
H804 H 0.55887 0.39646 0.83889 0.0
H805 H 0.57163 0.40443 0.77407 0.0
H806 H 0.5636 0.49409 0.77639 0.0
H807 H 0.55317 0.48711 0.84111 0.0
C808 C 0.59536 0.49151 0.6763 0.0
C809 C 0.58334 0.46369 0.65313 0.0
C810 C 0.59187 0.48711 0.7139 0.0
C811 C 0.57537 0.45468 0.72942 0.0
C812 C 0.56412 0.42687 0.70605 0.0
C813 C 0.56842 0.43137 0.6684 0.0
C814 C 0.55991 0.41785 0.82537 0.0
C815 C 0.55497 0.44113 0.84507 0.0
C816 C 0.56708 0.42241 0.78809 0.0
C817 C 0.56882 0.45002 0.76948 0.0
C818 C 0.56346 0.47299 0.78948 0.0
C819 C 0.55705 0.46881 0.82674 0.0
H820 H 0.56306 0.1593 0.85714 0.0
H821 H 0.59137 0.08762 0.82155 0.0
H822 H 0.54826 0.16487 0.79498 0.0
H823 H 0.57901 0.09476 0.75931 0.0
H824 H 0.51855 0.08084 0.66006 0.0
H825 H 0.53269 0.07845 0.72279 0.0
H826 H 0.56504 0.18379 0.73528 0.0
H827 H 0.5489 0.18548 0.6726 0.0
C828 C 0.56683 0.14531 0.83586 0.0
C829 C 0.5781 0.12277 0.84417 0.0
C830 C 0.55843 0.14856 0.80015 0.0
C831 C 0.56177 0.1298 0.77195 0.0
C832 C 0.57486 0.10873 0.78031 0.0
C833 C 0.58241 0.10489 0.81598 0.0
C834 C 0.52867 0.1035 0.67619 0.0
C835 C 0.53311 0.13346 0.66124 0.0
C836 C 0.5371 0.10226 0.71221 0.0
C837 C 0.5509 0.13115 0.73415 0.0
C838 C 0.55447 0.16099 0.7194 0.0
C839 C 0.54543 0.16205 0.68336 0.0
H840 H 0.2383 0.40972 0.49107 0.0
H841 H 0.26688 0.51444 0.4856 0.0
H842 H 0.22627 0.40867 0.55525 0.0
H843 H 0.25345 0.51311 0.55008 0.0
H844 H 0.27161 0.50508 0.67337 0.0
H845 H 0.27551 0.5099 0.60737 0.0
H846 H 0.18856 0.40976 0.59866 0.0
H847 H 0.18567 0.40498 0.66491 0.0
C848 C 0.24147 0.43242 0.5035 0.0
C849 C 0.25344 0.46214 0.48326 0.0
C850 C 0.23425 0.43175 0.54033 0.0
C851 C 0.23843 0.46068 0.55785 0.0
C852 C 0.25014 0.49042 0.5375 0.0
C853 C 0.25778 0.49119 0.50058 0.0
C854 C 0.25321 0.48437 0.6571 0.0
C855 C 0.22873 0.4545 0.67363 0.0
C856 C 0.25519 0.48716 0.61937 0.0
C857 C 0.23273 0.45997 0.59763 0.0
C858 C 0.20678 0.43086 0.61459 0.0
C859 C 0.2049 0.4281 0.65237 0.0
H860 H 0.48527 0.75401 0.48334 0.0
H861 H 0.58269 0.84526 0.48828 0.0
H862 H 0.48633 0.748 0.54958 0.0
H863 H 0.58392 0.83898 0.55304 0.0
H864 H 0.56703 0.84271 0.66896 0.0
H865 H 0.55468 0.84349 0.60533 0.0
H866 H 0.51983 0.73739 0.59757 0.0
H867 H 0.53104 0.73625 0.66246 0.0
C868 C 0.5068 0.77268 0.49847 0.0
C869 C 0.53398 0.80003 0.48059 0.0
C870 C 0.50746 0.76916 0.53623 0.0
C871 C 0.53508 0.7932 0.55647 0.0
C872 C 0.56199 0.82036 0.53836 0.0
C873 C 0.56143 0.82377 0.50105 0.0
C874 C 0.55685 0.8195 0.65381 0.0
C875 C 0.55095 0.78965 0.67046 0.0
C876 C 0.54962 0.81992 0.61734 0.0
C877 C 0.53696 0.79066 0.59632 0.0
C878 C 0.52962 0.76033 0.61316 0.0
C879 C 0.53647 0.7598 0.65008 0.0
H880 H 0.26231 0.81697 0.66553 0.0
H881 H 0.18759 0.71358 0.6871 0.0
H882 H 0.25171 0.80734 0.60059 0.0
H883 H 0.17895 0.70273 0.62259 0.0
H884 H 0.13804 0.69883 0.51167 0.0
H885 H 0.1524 0.70958 0.57536 0.0
H886 H 0.25445 0.78599 0.54586 0.0
H887 H 0.23844 0.77694 0.48194 0.0
C888 C 0.24416 0.79198 0.65616 0.0
C889 C 0.22532 0.76613 0.68112 0.0
C890 C 0.23813 0.78628 0.61887 0.0
C891 C 0.21379 0.7543 0.60581 0.0
C892 C 0.19676 0.72805 0.63118 0.0
C893 C 0.20197 0.73408 0.6683 0.0
C894 C 0.16344 0.71807 0.51902 0.0
C895 C 0.18707 0.73725 0.49218 0.0
C896 C 0.17199 0.72403 0.55562 0.0
C897 C 0.20491 0.74847 0.56638 0.0
C898 C 0.2287 0.76741 0.53909 0.0
C899 C 0.21968 0.76218 0.50239 0.0
H900 H 0.51655 0.68367 0.00536 0.0
H901 H 0.54123 0.78434 0.97624 0.0
H902 H 0.51387 0.6959 0.06856 0.0
H903 H 0.5366 0.79635 0.04001 0.0
H904 H 0.57584 0.81477 0.16034 0.0
H905 H 0.567 0.80669 0.09475 0.0
H906 H 0.4848 0.70526 0.11387 0.0
H907 H 0.49566 0.71283 0.1786 0.0
C908 C 0.52052 0.70821 0.01248 0.0
C909 C 0.52922 0.73308 0.98601 0.0
C910 C 0.5187 0.71524 0.04882 0.0
C911 C 0.52477 0.74713 0.05959 0.0
C912 C 0.53223 0.7717 0.0328 0.0
C913 C 0.53473 0.76481 0.99632 0.0
C914 C 0.55585 0.79095 0.15017 0.0
C915 C 0.53718 0.76399 0.17389 0.0
C916 C 0.55048 0.78632 0.11273 0.0
C917 C 0.52587 0.75487 0.09887 0.0
C918 C 0.50493 0.72929 0.12338 0.0
C919 C 0.51098 0.73361 0.16044 0.0
H920 H 0.20821 0.78537 0.98757 0.0
H921 H 0.31039 0.8058 0.00335 0.0
H922 H 0.19605 0.77107 0.05177 0.0
H923 H 0.29799 0.79095 0.06718 0.0
H924 H 0.2772 0.81247 0.18332 0.0
H925 H 0.28783 0.81821 0.11844 0.0
H926 H 0.19025 0.72992 0.09995 0.0
H927 H 0.17959 0.72416 0.16573 0.0
C928 C 0.22797 0.78652 0.00464 0.0
C929 C 0.26037 0.797 0.99045 0.0
C930 C 0.22089 0.77803 0.04132 0.0
C931 C 0.24608 0.77995 0.0645 0.0
C932 C 0.27818 0.78961 0.05006 0.0
C933 C 0.28526 0.7981 0.01347 0.0
C934 C 0.25803 0.79419 0.16545 0.0
C935 C 0.22744 0.76809 0.1794 0.0
C936 C 0.26426 0.79729 0.12828 0.0
C937 C 0.23987 0.77455 0.10408 0.0
C938 C 0.2094 0.74794 0.11802 0.0
C939 C 0.20336 0.74452 0.15552 0.0
H940 H 0.21678 0.43735 0.97504 0.0
H941 H 0.17397 0.50028 0.9978 0.0
H942 H 0.23235 0.44002 0.03866 0.0
H943 H 0.18994 0.50326 0.0613 0.0
H944 H 0.16375 0.4437 0.16892 0.0
H945 H 0.16395 0.45763 0.10576 0.0
H946 H 0.26487 0.4735 0.09323 0.0
H947 H 0.26473 0.45951 0.15779 0.0
C948 C 0.21121 0.45222 0.99351 0.0
C949 C 0.19355 0.46804 0.98158 0.0
C950 C 0.2205 0.45405 0.02987 0.0
C951 C 0.212 0.47149 0.05504 0.0
C952 C 0.19643 0.48925 0.04257 0.0
C953 C 0.18732 0.48758 0.00619 0.0
C954 C 0.18604 0.45004 0.15283 0.0
C955 C 0.21391 0.44975 0.16808 0.0
C956 C 0.18637 0.45862 0.11666 0.0
C957 C 0.21445 0.46678 0.09448 0.0
C958 C 0.24282 0.46719 0.10974 0.0
C959 C 0.24272 0.45911 0.14651 0.0
H960 H 0.88802 0.80334 0.81067 0.0
H961 H 0.97004 0.78849 0.84239 0.0
H962 H 0.87603 0.80798 0.87451 0.0
H963 H 0.95664 0.78991 0.90569 0.0
H964 H 0.94641 0.81616 0.01754 0.0
H965 H 0.95959 0.82144 0.9534 0.0
H966 H 0.85369 0.78131 0.92873 0.0
H967 H 0.84128 0.77875 0.9936 0.0
C968 C 0.9032 0.80072 0.83146 0.0
C969 C 0.93006 0.79579 0.82179 0.0
C970 C 0.89625 0.80312 0.86811 0.0
C971 C 0.91539 0.79959 0.89587 0.0
C972 C 0.9419 0.79402 0.88564 0.0
C973 C 0.94947 0.79277 0.84918 0.0
C974 C 0.92601 0.8088 -0.00166 0.0
C975 C 0.89276 0.79659 0.01052 0.0
C976 C 0.93346 0.81144 0.96135 0.0
C977 C 0.90766 0.80079 0.93527 0.0
C978 C 0.87443 0.78987 0.94761 0.0
C979 C 0.86715 0.78817 0.98487 0.0
H980 H 0.17888 0.07864 0.81677 0.0
H981 H 0.21202 0.18316 0.83495 0.0
H982 H 0.18107 0.0703 0.8823 0.0
H983 H 0.21451 0.17525 0.90008 0.0
H984 H 0.25152 0.15858 0.00734 0.0
H985 H 0.24827 0.16427 0.94212 0.0
H986 H 0.15343 0.07019 0.9398 0.0
H987 H 0.15721 0.06403 0.00527 0.0
C988 C 0.18672 0.09974 0.83494 0.0
C989 C 0.19537 0.13149 0.82131 0.0
C990 C 0.18776 0.09501 0.8723 0.0
C991 C 0.19814 0.12217 0.89632 0.0
C992 C 0.20678 0.15392 0.8823 0.0
C993 C 0.20516 0.15844 0.84515 0.0
C994 C 0.22998 0.13908 0.99291 0.0
C995 C 0.20458 0.11087 0.01132 0.0
C996 C 0.22804 0.14242 0.95557 0.0
C997 C 0.20048 0.11778 0.93584 0.0
C998 C 0.17517 0.08938 0.95421 0.0
C999 C 0.17727 0.08589 0.99165 0.0
H1000 H 0.89381 0.11913 0.80647 0.0
H1001 H 0.82412 0.01653 0.83823 0.0
H1002 H 0.91211 0.1331 0.86945 0.0
H1003 H 0.84079 0.03055 0.90076 0.0
H1004 H 0.87865 0.05312 0.00995 0.0
H1005 H 0.88129 0.04474 0.94515 0.0
H1006 H 0.89053 0.14153 0.92432 0.0
H1007 H 0.89034 0.15059 0.98978 0.0
C1008 C 0.88254 0.09956 0.82691 0.0
C1009 C 0.85739 0.06678 0.81755 0.0
C1010 C 0.8929 0.10758 0.86297 0.0
C1011 C 0.87792 0.08305 0.89035 0.0
C1012 C 0.85357 0.05003 0.88051 0.0
C1013 C 0.84369 0.04195 0.84455 0.0
C1014 C 0.88176 0.07271 0.99134 0.0
C1015 C 0.88329 0.10199 0.00426 0.0
C1016 C 0.88314 0.06794 0.95428 0.0
C1017 C 0.88489 0.09189 0.92935 0.0
C1018 C 0.88903 0.12245 0.94264 0.0
C1019 C 0.88857 0.12759 0.98 0.0
H1020 H 0.24285 0.12271 0.31851 0.0
H1021 H 0.14886 0.0294 0.33489 0.0
H1022 H 0.24435 0.13526 0.3829 0.0
H1023 H 0.1506 0.04195 0.39945 0.0
H1024 H 0.151 0.09353 0.50746 0.0
H1025 H 0.14715 0.08302 0.44188 0.0
H1026 H 0.25263 0.11136 0.43953 0.0
H1027 H 0.25623 0.12142 0.5047 0.0
C1028 C 0.22241 0.10496 0.33579 0.0
C1029 C 0.1957 0.07509 0.32157 0.0
C1030 C 0.22338 0.11209 0.3727 0.0
C1031 C 0.19759 0.08959 0.39617 0.0
C1032 C 0.17061 0.05994 0.38191 0.0
C1033 C 0.16974 0.0527 0.34498 0.0
C1034 C 0.17332 0.09776 0.49269 0.0
C1035 C 0.20393 0.10833 0.51088 0.0
C1036 C 0.17109 0.09153 0.45535 0.0
C1037 C 0.19963 0.09648 0.43562 0.0
C1038 C 0.23031 0.10763 0.45392 0.0
C1039 C 0.23234 0.1132 0.49121 0.0
H1040 H 0.9741 0.17752 0.33064 0.0
H1041 H 0.87927 0.08733 0.30907 0.0
H1042 H 0.96455 0.16793 0.39496 0.0
H1043 H 0.87054 0.07559 0.37431 0.0
H1044 H 0.84598 0.09509 0.49149 0.0
H1045 H 0.85521 0.09234 0.42651 0.0
H1046 H 0.96296 0.13987 0.44554 0.0
H1047 H 0.95358 0.14528 0.50925 0.0
C1048 C 0.95162 0.15493 0.33986 0.0
C1049 C 0.92737 0.13321 0.31508 0.0
C1050 C 0.94616 0.14912 0.37694 0.0
C1051 C 0.91674 0.12076 0.39035 0.0
C1052 C 0.89315 0.09804 0.36523 0.0
C1053 C 0.89819 0.10454 0.32789 0.0
C1054 C 0.87155 0.10515 0.48138 0.0
C1055 C 0.89921 0.12181 0.50477 0.0
C1056 C 0.87693 0.10319 0.44424 0.0
C1057 C 0.91005 0.117 0.43023 0.0
C1058 C 0.93725 0.13057 0.45472 0.0
C1059 C 0.93195 0.13361 0.49135 0.0
H1060 H 0.90921 0.84962 0.32922 0.0
H1061 H 0.82716 0.74671 0.32716 0.0
H1062 H 0.91762 0.84392 0.39355 0.0
H1063 H 0.83434 0.74137 0.39168 0.0
H1064 H 0.87479 0.7304 0.4991 0.0
H1065 H 0.87033 0.73697 0.43411 0.0
H1066 H 0.89339 0.8392 0.45129 0.0
H1067 H 0.89906 0.83301 0.51582 0.0
C1068 C 0.89281 0.82587 0.34264 0.0
C1069 C 0.86773 0.79853 0.32317 0.0
C1070 C 0.89748 0.82261 0.37956 0.0
C1071 C 0.87678 0.79208 0.39791 0.0
C1072 C 0.85133 0.76497 0.37835 0.0
C1073 C 0.84704 0.76808 0.34138 0.0
C1074 C 0.87911 0.75432 0.48894 0.0
C1075 C 0.88713 0.78109 0.5127 0.0
C1076 C 0.87629 0.75804 0.45168 0.0
C1077 C 0.88125 0.78856 0.43735 0.0
C1078 C 0.88977 0.81546 0.46116 0.0
C1079 C 0.89275 0.81179 0.49832 0.0
H1080 H 0.31946 0.94617 0.93823 0.0
H1081 H 0.36121 0.89543 0.8776 0.0
H1082 H 0.3761 0.98738 0.95895 0.0
H1083 H 0.41694 0.93427 0.90053 0.0
H1084 H 0.51899 0.02337 0.92507 0.0
H1085 H 0.46352 0.98657 0.90018 0.0
H1086 H 0.41761 0.99358 8e-05 0.0
H1087 H 0.47372 0.03224 0.02424 0.0
C1088 C 0.34072 0.94378 0.92933 0.0
C1089 C 0.33565 0.91704 0.9068 0.0
C1090 C 0.37321 0.96714 0.94164 0.0
C1091 C 0.40135 0.96394 0.93231 0.0
C1092 C 0.39628 0.93803 0.90833 0.0
C1093 C 0.36404 0.91533 0.89534 0.0
C1094 C 0.49708 0.01678 0.94196 0.0
C1095 C 0.50088 0.03058 0.97682 0.0
C1096 C 0.46505 0.99546 0.92766 0.0
C1097 C 0.43565 0.98685 0.94791 0.0
C1098 C 0.43949 -6e-05 0.9833 0.0
C1099 C 0.47172 0.02157 0.99757 0.0
H1100 H 0.93132 0.46192 0.92719 0.0
H1101 H 0.9883 0.49693 0.02629 0.0
H1102 H 0.96772 0.44054 0.9068 0.0
H1103 H 0.02526 0.47627 0.00574 0.0
H1104 H 0.05981 0.40243 0.97854 0.0
H1105 H 0.02128 0.42193 0.99609 0.0
H1106 H 0.02548 0.4585 0.88719 0.0
H1107 H 0.06376 0.43859 0.86942 0.0
C1108 C 0.95178 0.46523 0.94446 0.0
C1109 C 0.95674 0.48084 0.97838 0.0
C1110 C 0.97278 0.45316 0.93273 0.0
C1111 C -0.00082 0.45633 0.95482 0.0
C1112 C 0.00475 0.47285 0.98835 0.0
C1113 C 0.98383 0.48506 -4e-05 0.0
C1114 C 0.05218 0.41419 0.95816 0.0
C1115 C 0.06502 0.41905 0.9226 0.0
C1116 C 0.03035 0.42571 0.96835 0.0
C1117 C 0.02071 0.44226 0.94321 0.0
C1118 C 0.03235 0.44581 0.90722 0.0
C1119 C 0.05432 0.43439 0.89704 0.0
H1120 H 0.62519 0.66904 0.94019 0.0
H1121 H 0.52679 0.63404 0.8931 0.0
H1122 H 0.60746 0.61163 0.95933 0.0
H1123 H 0.5086 0.57733 0.91348 0.0
H1124 H 0.4955 0.47326 0.92677 0.0
H1125 H 0.5142 0.52975 0.90486 0.0
H1126 H 0.57153 0.57087 0.00314 0.0
H1127 H 0.55362 0.51419 0.02455 0.0
C1128 C 0.59983 0.64909 0.9339 0.0
C1129 C 0.57746 0.6561 0.91514 0.0
C1130 C 0.58951 0.61623 0.94515 0.0
C1131 C 0.55642 0.58976 0.93836 0.0
C1132 C 0.53438 0.59682 0.91884 0.0
C1133 C 0.54484 0.62948 0.90716 0.0
C1134 C 0.51184 0.49432 0.94391 0.0
C1135 C 0.52298 0.48911 0.9775 0.0
C1136 C 0.52256 0.52682 0.93134 0.0
C1137 C 0.54462 0.55506 0.95207 0.0
C1138 C 0.55504 0.5498 0.98612 0.0
C1139 C 0.54433 0.51724 -0.00131 0.0
H1140 H 0.9973 0.48162 0.46624 0.0
H1141 H 0.91642 0.50384 0.46876 0.0
H1142 H 0.03584 0.5381 0.44227 0.0
H1143 H 0.95485 0.56035 0.44558 0.0
H1144 H 0.04516 0.67009 0.45107 0.0
H1145 H 0.00377 0.61234 0.4675 0.0
H1146 H 0.04806 0.57601 0.3892 0.0
H1147 H 0.08938 0.634 0.37247 0.0
C1148 C 0.98777 0.49857 0.46157 0.0
C1149 C 0.95385 0.48829 0.4694 0.0
C1150 C 0.00976 0.53087 0.44762 0.0
C1151 C 0.99858 0.55399 0.44208 0.0
C1152 C 0.96449 0.54343 0.4497 0.0
C1153 C 0.94236 0.51092 0.46277 0.0
C1154 C 0.04586 0.64985 0.43694 0.0
C1155 C 0.0709 0.65689 0.41057 0.0
C1156 C 0.022 0.61661 0.44634 0.0
C1157 C 0.02263 0.58934 0.42994 0.0
C1158 C 0.04706 0.59632 0.4028 0.0
C1159 C 0.07067 0.62963 0.39303 0.0
H1160 H 0.5018 0.43151 0.45823 0.0
H1161 H 0.50314 0.51874 0.50263 0.0
H1162 H 0.44674 0.41272 0.43198 0.0
H1163 H 0.44673 0.49915 0.47729 0.0
H1164 H 0.36258 0.47106 0.39393 0.0
H1165 H 0.41941 0.49076 0.41671 0.0
H1166 H 0.38849 0.39023 0.45358 0.0
H1167 H 0.33135 0.37053 0.43091 0.0
C1168 C 0.49032 0.44674 0.46235 0.0
C1169 C 0.50711 0.4769 0.48193 0.0
C1170 C 0.45854 0.43575 0.44757 0.0
C1171 C 0.44239 0.45442 0.45255 0.0
C1172 C 0.45885 0.48447 0.4726 0.0
C1173 C 0.49094 0.49557 0.48732 0.0
C1174 C 0.36806 0.45303 0.40638 0.0
C1175 C 0.34263 0.41919 0.41063 0.0
C1176 C 0.40048 0.46445 0.41982 0.0
C1177 C 0.40828 0.44214 0.43726 0.0
C1178 C 0.38318 0.408 0.44024 0.0
C1179 C 0.35053 0.3967 0.42734 0.0
H1180 H 0.52762 0.90205 0.39222 0.0
H1181 H 0.62902 0.97351 0.42655 0.0
H1182 H 0.50751 0.93802 0.41567 0.0
H1183 H 0.60936 0.01096 0.44814 0.0
H1184 H 0.55826 0.05153 0.52104 0.0
H1185 H 0.57776 0.01515 0.49635 0.0
H1186 H 0.50632 0.98757 0.40844 0.0
H1187 H 0.4863 0.02312 0.4339 0.0
C1188 C 0.54583 0.926 0.40391 0.0
C1189 C 0.57992 0.93506 0.40762 0.0
C1190 C 0.53428 0.94672 0.41736 0.0
C1191 C 0.55669 0.97738 0.43416 0.0
C1192 C 0.59118 0.98712 0.43629 0.0
C1193 C 0.60259 0.96594 0.42357 0.0
C1194 C 0.54614 0.03693 0.49702 0.0
C1195 C 0.52047 0.03978 0.47965 0.0
C1196 C 0.55777 0.01659 0.48239 0.0
C1197 C 0.54389 -0.00143 0.45014 0.0
C1198 C 0.51747 0.00076 0.43345 0.0
C1199 C 0.50595 0.02115 0.44801 0.0
H1200 H 0.16466 0.32824 0.34235 0.0
H1201 H 0.16978 0.41266 0.28658 0.0
H1202 H 0.10751 0.29221 0.31933 0.0
H1203 H 0.11494 0.37663 0.25962 0.0
H1204 H 0.00261 0.31063 0.24136 0.0
H1205 H 0.05778 0.34706 0.26825 0.0
H1206 H 0.07773 0.2647 0.26803 0.0
H1207 H 0.0222 0.22819 0.24307 0.0
C1208 C 0.15388 0.33894 0.32437 0.0
C1209 C 0.17235 0.37301 0.31462 0.0
C1210 C 0.12122 0.31826 0.31081 0.0
C1211 C 0.10655 0.33114 0.28678 0.0
C1212 C 0.12497 0.36551 0.278 0.0
C1213 C 0.15702 0.38616 0.29246 0.0
C1214 C 0.01881 0.30038 0.24715 0.0
C1215 C 0.00782 0.26646 0.24031 0.0
C1216 C 0.05065 0.32132 0.2624 0.0
C1217 C 0.07245 0.30893 0.27071 0.0
C1218 C 0.06155 0.27511 0.26302 0.0
C1219 C 0.02967 0.25416 0.24825 0.0
H1220 H 0.58965 0.77268 0.27761 0.0
H1221 H 0.67049 0.8469 0.34322 0.0
H1222 H 0.62807 0.75659 0.25073 0.0
H1223 H 0.709 0.8301 0.31737 0.0
H1224 H 0.77726 0.81576 0.23871 0.0
H1225 H 0.73802 0.83253 0.26159 0.0
H1226 H 0.65877 0.72832 0.26557 0.0
H1227 H 0.6982 0.71167 0.24187 0.0
C1228 C 0.61572 0.78571 0.28608 0.0
C1229 C 0.62706 0.81142 0.31204 0.0
C1230 C 0.63772 0.7762 0.27103 0.0
C1231 C 0.67176 0.79207 0.28172 0.0
C1232 C 0.68311 0.8177 0.30797 0.0
C1233 C 0.66101 0.82725 0.32297 0.0
C1234 C 0.75125 0.79648 0.24356 0.0
C1235 C 0.7407 0.76239 0.23794 0.0
C1236 C 0.72886 0.80606 0.25734 0.0
C1237 C 0.69523 0.78182 0.26573 0.0
C1238 C 0.68442 0.74772 0.25922 0.0
C1239 C 0.70699 0.73812 0.24573 0.0
H1240 H 0.1495 0.82681 0.3374 0.0
H1241 H 0.23891 0.84255 0.28059 0.0
H1242 H 0.16012 0.88178 0.31574 0.0
H1243 H 0.24987 0.89705 0.25972 0.0
H1244 H 0.2462 0.9825 0.201 0.0
H1245 H 0.23142 0.92538 0.21936 0.0
H1246 H 0.19796 0.94065 0.32366 0.0
H1247 H 0.21272 0.99717 0.30526 0.0
C1248 C 0.17148 0.84204 0.32057 0.0
C1249 C 0.19308 0.83005 0.31047 0.0
C1250 C 0.17766 0.87357 0.30808 0.0
C1251 C 0.20579 0.89397 0.28557 0.0
C1252 C 0.22751 0.88195 0.27608 0.0
C1253 C 0.22122 0.85057 0.28827 0.0
C1254 C 0.23561 0.97346 0.22775 0.0
C1255 C 0.23105 0.99443 0.25187 0.0
C1256 C 0.22724 0.9408 0.23843 0.0
C1257 C 0.21343 0.92817 0.27317 0.0
C1258 C 0.20818 0.94912 0.29669 0.0
C1259 C 0.21707 0.98178 0.28628 0.0
H1260 H 0.69581 0.00113 0.77997 0.0
H1261 H 0.7528 0.96547 0.72009 0.0
H1262 H 0.6548 0.9433 0.79747 0.0
H1263 H 0.71284 0.90825 0.7385 0.0
H1264 H 0.62409 0.80443 0.75774 0.0
H1265 H 0.6569 0.8614 0.73313 0.0
H1266 H 0.65361 0.90173 0.83794 0.0
H1267 H 0.62053 0.84465 0.86211 0.0
C1268 C 0.69946 0.98096 0.77037 0.0
C1269 C 0.72758 0.98794 0.74873 0.0
C1270 C 0.67611 0.94785 0.78057 0.0
C1271 C 0.68061 0.92106 0.76967 0.0
C1272 C 0.70818 0.92806 0.747 0.0
C1273 C 0.73125 0.96102 0.73652 0.0
C1274 C 0.63027 0.82559 0.7753 0.0
C1275 C 0.62011 0.82036 0.81176 0.0
C1276 C 0.64918 0.85821 0.76134 0.0
C1277 C 0.65808 0.88628 0.78356 0.0
C1278 C 0.647 0.88079 0.81992 0.0
C1279 C 0.62841 0.84816 0.83393 0.0
H1280 H 0.0229 0.75265 0.7043 0.0
H1281 H 0.99497 0.75346 0.81606 0.0
H1282 H 0.08076 0.77098 0.72283 0.0
H1283 H 0.05284 0.77422 0.83446 0.0
H1284 H 0.15122 0.7797 0.86239 0.0
H1285 H 0.09377 0.76103 0.84399 0.0
H1286 H 0.13089 0.81605 0.74311 0.0
H1287 H 0.18844 0.83279 0.7608 0.0
C1288 C 0.0292 0.75664 0.73285 0.0
C1289 C 0.00441 0.75114 0.75882 0.0
C1290 C 0.06246 0.76768 0.74349 0.0
C1291 C 0.0718 0.77431 0.78026 0.0
C1292 C 0.04672 0.76866 0.80606 0.0
C1293 C 0.01339 0.75676 0.79552 0.0
C1294 C 0.14716 0.78826 0.83654 0.0
C1295 C 0.17435 0.80775 0.81311 0.0
C1296 C 0.11407 0.77757 0.82589 0.0
C1297 C 0.10734 0.7868 0.79188 0.0
C1298 C 0.13483 0.80766 0.76911 0.0
C1299 C 0.16793 0.81774 0.77946 0.0
H1300 H 0.18542 0.21595 0.76046 0.0
H1301 H 0.27548 0.29992 0.71501 0.0
H1302 H 0.1688 0.25444 0.78569 0.0
H1303 H 0.25889 0.33853 0.74039 0.0
H1304 H 0.20219 0.39585 0.76093 0.0
H1305 H 0.21804 0.35702 0.73466 0.0
H1306 H 0.18348 0.29667 0.83211 0.0
H1307 H 0.16755 0.33567 0.85799 0.0
C1308 C 0.20173 0.24263 0.75576 0.0
C1309 C 0.2319 0.25468 0.73561 0.0
C1310 C 0.19226 0.26482 0.77051 0.0
C1311 C 0.21244 0.2998 0.7653 0.0
C1312 C 0.24245 0.31181 0.74479 0.0
C1313 C 0.25211 0.28962 0.73035 0.0
C1314 C 0.19831 0.37449 0.77677 0.0
C1315 C 0.18393 0.36919 0.81161 0.0
C1316 C 0.20738 0.35211 0.76176 0.0
C1317 C 0.20231 0.32357 0.7812 0.0
C1318 C 0.18747 0.31804 0.816 0.0
C1319 C 0.17835 0.34048 0.83094 0.0
H1320 H 0.66589 0.6317 0.60849 0.0
H1321 H 0.70244 0.57762 0.54503 0.0
H1322 H 0.72372 0.67146 0.62706 0.0
H1323 H 0.76023 0.61721 0.56399 0.0
H1324 H 0.84521 0.6666 0.65388 0.0
H1325 H 0.79022 0.62955 0.62578 0.0
H1326 H 0.7802 0.71563 0.60048 0.0
H1327 H 0.83506 0.75249 0.62802 0.0
C1328 C 0.6863 0.6286 0.59809 0.0
C1329 C 0.67958 0.60155 0.57533 0.0
C1330 C 0.7194 0.65137 0.60866 0.0
C1331 C 0.74639 0.64727 0.59711 0.0
C1332 C 0.73984 0.62078 0.57351 0.0
C1333 C 0.70678 0.59831 0.56244 0.0
C1334 C 0.8313 0.67753 0.64206 0.0
C1335 C 0.84429 0.71237 0.64325 0.0
C1336 C 0.80001 0.65641 0.62579 0.0
C1337 C 0.78094 0.66977 0.61111 0.0
C1338 C 0.79426 0.70466 0.6118 0.0
C1339 C 0.82571 0.72575 0.62745 0.0
H1340 H 0.29945 0.16415 0.58639 0.0
H1341 H 0.30037 0.13049 0.69541 0.0
H1342 H 0.34145 0.14966 0.568 0.0
H1343 H 0.34119 0.11433 0.67681 0.0
H1344 H 0.43401 0.11125 0.64329 0.0
H1345 H 0.39492 0.12954 0.66098 0.0
H1346 H 0.35212 0.10732 0.55317 0.0
H1347 H 0.39367 0.09138 0.5349 0.0
C1348 C 0.30899 0.15403 0.60667 0.0
C1349 C 0.29674 0.14895 0.64264 0.0
C1350 C 0.33279 0.14511 0.59589 0.0
C1351 C 0.34496 0.13044 0.62062 0.0
C1352 C 0.33322 0.12611 0.65686 0.0
C1353 C 0.3097 0.13548 0.66775 0.0
C1354 C 0.41608 0.11005 0.62339 0.0
C1355 C 0.41666 0.09949 0.58782 0.0
C1356 C 0.39335 0.12042 0.63362 0.0
C1357 C 0.36969 0.11975 0.60887 0.0
C1358 C 0.37015 0.10887 0.57308 0.0
C1359 C 0.39373 0.09934 0.56255 0.0
H1360 H 0.94966 0.33712 0.62166 0.0
H1361 H 0.87238 0.29527 0.5393 0.0
H1362 H 0.93265 0.28044 0.64278 0.0
H1363 H 0.85508 0.23884 0.56081 0.0
H1364 H 0.84858 0.13993 0.59175 0.0
H1365 H 0.87251 0.1966 0.56673 0.0
H1366 H 0.88254 0.236 0.67515 0.0
H1367 H 0.85874 0.17918 0.70001 0.0
C1368 C 0.92928 0.31585 0.60783 0.0
C1369 C 0.91232 0.32076 0.57889 0.0
C1370 C 0.9194 0.2834 0.62009 0.0
C1371 C 0.89227 0.25514 0.60374 0.0
C1372 C 0.87627 0.26002 0.57381 0.0
C1373 C 0.8862 0.29243 0.56148 0.0
C1374 C 0.85612 0.16079 0.61015 0.0
C1375 C 0.8517 0.15525 0.64772 0.0
C1376 C 0.86963 0.19319 0.59586 0.0
C1377 C 0.87944 0.22085 0.61893 0.0
C1378 C 0.8755 0.21529 0.65665 0.0
C1379 C 0.86151 0.18276 0.67089 0.0
H1380 H 0.30464 0.18284 0.19489 0.0
H1381 H 0.2913 0.14929 0.08369 0.0
H1382 H 0.34708 0.23951 0.17499 0.0
H1383 H 0.33141 0.20552 0.06376 0.0
H1384 H 0.42764 0.30344 0.03905 0.0
H1385 H 0.38701 0.24702 0.05937 0.0
H1386 H 0.35474 0.28822 0.14559 0.0
H1387 H 0.39673 0.34481 0.1261 0.0
C1388 C 0.31097 0.18737 0.16633 0.0
C1389 C 0.29445 0.16126 0.14107 0.0
C1390 C 0.33492 0.22008 0.15473 0.0
C1391 C 0.34281 0.22757 0.11754 0.0
C1392 C 0.32676 0.2011 0.09259 0.0
C1393 C 0.30334 0.16858 0.10416 0.0
C1394 C 0.41169 0.30054 0.06214 0.0
C1395 C 0.41572 0.32884 0.08096 0.0
C1396 C 0.38814 0.26797 0.07387 0.0
C1397 C 0.36747 0.2626 0.10456 0.0
C1398 C 0.37062 0.29104 0.12248 0.0
C1399 C 0.39447 0.32365 0.11095 0.0
H1400 H 0.83762 0.18838 0.16538 0.0
H1401 H 0.82898 0.09901 0.11766 0.0
H1402 H 0.78275 0.17414 0.14036 0.0
H1403 H 0.77334 0.08381 0.09372 0.0
H1404 H 0.68066 0.07672 0.03494 0.0
H1405 H 0.73936 0.09472 0.05203 0.0
H1406 H 0.72568 0.13595 0.15165 0.0
H1407 H 0.66802 0.11823 0.13447 0.0
C1408 C 0.82395 0.16563 0.14954 0.0
C1409 C 0.83778 0.14492 0.1435 0.0
C1410 C 0.79228 0.15726 0.1353 0.0
C1411 C 0.77306 0.12751 0.11518 0.0
C1412 C 0.78732 0.10712 0.10855 0.0
C1413 C 0.81928 0.11579 0.1224 0.0
C1414 C 0.6905 0.08985 0.06031 0.0
C1415 C 0.66969 0.09584 0.08354 0.0
C1416 C 0.72406 0.10001 0.07028 0.0
C1417 C 0.73767 0.11704 0.10331 0.0
C1418 C 0.71668 0.12345 0.12585 0.0
C1419 C 0.68331 0.11292 0.11619 0.0
H1420 H 0.85715 0.56915 0.05804 0.0
H1421 H 0.95757 0.63585 0.09929 0.0
H1422 H 0.83813 0.60597 0.08156 0.0
H1423 H 0.93819 0.67276 0.12327 0.0
H1424 H 0.89742 0.74588 0.12705 0.0
H1425 H 0.9184 0.71027 0.10368 0.0
H1426 H 0.82673 0.6223 0.14076 0.0
H1427 H 0.80534 0.65847 0.16289 0.0
C1428 C 0.87531 0.59184 0.07192 0.0
C1429 C 0.90891 0.59948 0.07706 0.0
C1430 C 0.86421 0.61273 0.08576 0.0
C1431 C 0.88646 0.6419 0.10483 0.0
C1432 C 0.92043 0.65034 0.10874 0.0
C1433 C 0.93154 0.62924 0.09505 0.0
C1434 C 0.88187 0.7189 0.13006 0.0
C1435 C 0.8498 0.70464 0.14625 0.0
C1436 C 0.89395 0.69856 0.11705 0.0
C1437 C 0.87418 0.6635 0.12025 0.0
C1438 C 0.8423 0.64927 0.13745 0.0
C1439 C 0.83015 0.66977 0.15037 0.0
loop_
_geom_bond_atom_site_label_1
_geom_bond_atom_site_label_2
_geom_bond_distance
_geom_bond_site_symmetry_2
_ccdc_geom_bond_type
Zn0 O6 1.969 . S
Zn0 O7 1.965 . S
Zn0 O11 2.024 . S
Zn0 O16 1.969 . S
Zn1 O8 1.969 . S
Zn1 O14 1.969 . S
Zn1 O15 1.965 . S
Zn1 O17 2.024 . S
C2 O3 1.229 . S
C2 O11 1.058 . S
O3 C2 1.229 . S
C4 O5 1.229 . S
C4 O17 1.058 . S
O5 C4 1.229 . S
O6 Zn0 1.969 . S
O6 C9 1.267 . S
O7 Zn0 1.965 . S
O7 C18 1.260 . S
O8 Zn1 1.969 . S
O8 C18 1.258 1_556 S
C9 O6 1.267 . S
C9 O10 1.228 . S
O10 C9 1.228 . S
O11 Zn0 2.024 . S
O11 C2 1.058 . S
C12 O13 1.228 . S
C12 O14 1.267 . S
O13 C12 1.228 . S
O14 Zn1 1.969 . S
O14 C12 1.267 . S
O15 Zn1 1.965 . S
O15 C19 1.260 . S
O16 Zn0 1.969 . S
O16 C19 1.258 1_554 S
O17 Zn1 2.024 . S
O17 C4 1.058 . S
C18 O7 1.260 . S
C18 O8 1.258 1_554 S
C19 O15 1.260 . S
C19 O16 1.258 1_556 S
Zn20 O26 1.969 . S
Zn20 O27 1.965 . S
Zn20 O31 2.024 . S
Zn20 O36 1.969 . S
Zn21 O28 1.969 . S
Zn21 O34 1.969 . S
Zn21 O35 1.965 . S
Zn21 O37 2.024 . S
C22 O23 1.229 . S
C22 O31 1.058 . S
O23 C22 1.229 . S
C24 O25 1.229 . S
C24 O37 1.058 . S
O25 C24 1.229 . S
O26 Zn20 1.969 . S
O26 C29 1.267 . S
O27 Zn20 1.965 . S
O27 C38 1.260 . S
O28 Zn21 1.969 . S
O28 C38 1.258 1_556 S
C29 O26 1.267 . S
C29 O30 1.228 . S
O30 C29 1.228 . S
O31 Zn20 2.024 . S
O31 C22 1.058 . S
C32 O33 1.228 . S
C32 O34 1.267 . S
O33 C32 1.228 . S
O34 Zn21 1.969 . S
O34 C32 1.267 . S
O35 Zn21 1.965 . S
O35 C39 1.260 . S
O36 Zn20 1.969 . S
O36 C39 1.258 1_554 S
O37 Zn21 2.024 . S
O37 C24 1.058 . S
C38 O27 1.260 . S
C38 O28 1.258 1_554 S
C39 O35 1.260 . S
C39 O36 1.258 1_556 S
Zn40 O46 1.969 . S
Zn40 O47 1.965 . S
Zn40 O51 2.024 . S
Zn40 O56 1.969 . S
Zn41 O48 1.969 . S
Zn41 O54 1.969 . S
Zn41 O55 1.965 . S
Zn41 O57 2.024 . S
C42 O43 1.229 . S
C42 O51 1.058 . S
O43 C42 1.229 . S
C44 O45 1.229 . S
C44 O57 1.058 . S
O45 C44 1.229 . S
O46 Zn40 1.969 . S
O46 C49 1.267 . S
O47 Zn40 1.965 . S
O47 C58 1.260 . S
O48 Zn41 1.969 . S
O48 C58 1.258 1_556 S
C49 O46 1.267 . S
C49 O50 1.228 . S
O50 C49 1.228 . S
O51 Zn40 2.024 . S
O51 C42 1.058 . S
C52 O53 1.228 . S
C52 O54 1.267 . S
O53 C52 1.228 . S
O54 Zn41 1.969 . S
O54 C52 1.267 . S
O55 Zn41 1.965 . S
O55 C59 1.260 . S
O56 Zn40 1.969 . S
O56 C59 1.258 1_554 S
O57 Zn41 2.024 . S
O57 C44 1.058 . S
C58 O47 1.260 . S
C58 O48 1.258 1_554 S
C59 O55 1.260 . S
C59 O56 1.258 1_556 S
Zn60 O66 1.969 . S
Zn60 O67 1.965 . S
Zn60 O71 2.024 . S
Zn60 O76 1.969 . S
Zn61 O68 1.969 . S
Zn61 O74 1.969 . S
Zn61 O75 1.965 . S
Zn61 O77 2.024 . S
C62 O63 1.229 . S
C62 O71 1.058 . S
O63 C62 1.229 . S
C64 O65 1.229 . S
C64 O77 1.058 . S
O65 C64 1.229 . S
O66 Zn60 1.969 . S
O66 C69 1.267 . S
O67 Zn60 1.965 . S
O67 C78 1.260 . S
O68 Zn61 1.969 . S
O68 C78 1.258 . S
C69 O66 1.267 . S
C69 O70 1.228 . S
O70 C69 1.228 . S
O71 Zn60 2.024 . S
O71 C62 1.058 . S
C72 O73 1.228 . S
C72 O74 1.267 . S
O73 C72 1.228 . S
O74 Zn61 1.969 . S
O74 C72 1.267 . S
O75 Zn61 1.965 . S
O75 C79 1.260 . S
O76 Zn60 1.969 . S
O76 C79 1.258 . S
O77 Zn61 2.024 . S
O77 C64 1.058 . S
C78 O67 1.260 . S
C78 O68 1.258 . S
C79 O75 1.260 . S
C79 O76 1.258 . S
Zn80 O86 1.969 . S
Zn80 O87 1.965 . S
Zn80 O91 2.024 . S
Zn80 O96 1.969 . S
Zn81 O88 1.969 . S
Zn81 O94 1.969 . S
Zn81 O95 1.965 . S
Zn81 O97 2.024 . S
C82 O83 1.229 . S
C82 O91 1.058 . S
O83 C82 1.229 . S
C84 O85 1.229 . S
C84 O97 1.058 . S
O85 C84 1.229 . S
O86 Zn80 1.969 . S
O86 C89 1.267 . S
O87 Zn80 1.965 . S
O87 C98 1.260 . S
O88 Zn81 1.969 . S
O88 C98 1.258 . S
C89 O86 1.267 . S
C89 O90 1.228 . S
O90 C89 1.228 . S
O91 Zn80 2.024 . S
O91 C82 1.058 . S
C92 O93 1.228 . S
C92 O94 1.267 . S
O93 C92 1.228 . S
O94 Zn81 1.969 . S
O94 C92 1.267 . S
O95 Zn81 1.965 . S
O95 C99 1.260 . S
O96 Zn80 1.969 . S
O96 C99 1.258 . S
O97 Zn81 2.024 . S
O97 C84 1.058 . S
C98 O87 1.260 . S
C98 O88 1.258 . S
C99 O95 1.260 . S
C99 O96 1.258 . S
Zn100 O106 1.969 . S
Zn100 O107 1.965 . S
Zn100 O111 2.024 . S
Zn100 O116 1.969 . S
Zn101 O108 1.969 . S
Zn101 O114 1.969 . S
Zn101 O115 1.965 . S
Zn101 O117 2.024 . S
C102 O103 1.229 . S
C102 O111 1.058 . S
O103 C102 1.229 . S
C104 O105 1.229 . S
C104 O117 1.058 . S
O105 C104 1.229 . S
O106 Zn100 1.969 . S
O106 C109 1.267 . S
O107 Zn100 1.965 . S
O107 C118 1.260 . S
O108 Zn101 1.969 . S
O108 C118 1.258 . S
C109 O106 1.267 . S
C109 O110 1.228 . S
O110 C109 1.228 . S
O111 Zn100 2.024 . S
O111 C102 1.058 . S
C112 O113 1.228 . S
C112 O114 1.267 . S
O113 C112 1.228 . S
O114 Zn101 1.969 . S
O114 C112 1.267 . S
O115 Zn101 1.965 . S
O115 C119 1.260 . S
O116 Zn100 1.969 . S
O116 C119 1.258 . S
O117 Zn101 2.024 . S
O117 C104 1.058 . S
C118 O107 1.260 . S
C118 O108 1.258 . S
C119 O115 1.260 . S
C119 O116 1.258 . S
Zn120 O126 1.969 . S
Zn120 O127 1.965 . S
Zn120 O131 2.024 . S
Zn120 O136 1.969 . S
Zn121 O128 1.969 . S
Zn121 O134 1.969 . S
Zn121 O135 1.965 . S
Zn121 O137 2.024 . S
C122 O123 1.229 . S
C122 O131 1.058 . S
O123 C122 1.229 . S
C124 O125 1.229 . S
C124 O137 1.058 . S
O125 C124 1.229 . S
O126 Zn120 1.969 . S
O126 C129 1.267 . S
O127 Zn120 1.965 . S
O127 C138 1.260 . S
O128 Zn121 1.969 . S
O128 C138 1.258 . S
C129 O126 1.267 . S
C129 O130 1.228 . S
O130 C129 1.228 . S
O131 Zn120 2.024 . S
O131 C122 1.058 . S
C132 O133 1.228 . S
C132 O134 1.267 . S
O133 C132 1.228 . S
O134 Zn121 1.969 . S
O134 C132 1.267 . S
O135 Zn121 1.965 . S
O135 C139 1.260 . S
O136 Zn120 1.969 . S
O136 C139 1.258 . S
O137 Zn121 2.024 . S
O137 C124 1.058 . S
C138 O127 1.260 . S
C138 O128 1.258 . S
C139 O135 1.260 . S
C139 O136 1.258 . S
Zn140 O146 1.969 . S
Zn140 O147 1.965 . S
Zn140 O151 2.024 . S
Zn140 O156 1.969 . S
Zn141 O148 1.969 . S
Zn141 O154 1.969 . S
Zn141 O155 1.965 . S
Zn141 O157 2.024 . S
C142 O143 1.229 . S
C142 O151 1.058 . S
O143 C142 1.229 . S
C144 O145 1.229 . S
C144 O157 1.058 . S
O145 C144 1.229 . S
O146 Zn140 1.969 . S
O146 C149 1.267 . S
O147 Zn140 1.965 . S
O147 C158 1.260 . S
O148 Zn141 1.969 . S
O148 C158 1.258 . S
C149 O146 1.267 . S
C149 O150 1.228 . S
O150 C149 1.228 . S
O151 Zn140 2.024 . S
O151 C142 1.058 . S
C152 O153 1.228 . S
C152 O154 1.267 . S
O153 C152 1.228 . S
O154 Zn141 1.969 . S
O154 C152 1.267 . S
O155 Zn141 1.965 . S
O155 C159 1.260 . S
O156 Zn140 1.969 . S
O156 C159 1.258 . S
O157 Zn141 2.024 . S
O157 C144 1.058 . S
C158 O147 1.260 . S
C158 O148 1.258 . S
C159 O155 1.260 . S
C159 O156 1.258 . S
Zn160 O166 1.969 . S
Zn160 O167 1.965 . S
Zn160 O171 2.024 . S
Zn160 O176 1.969 . S
Zn161 O168 1.969 . S
Zn161 O174 1.969 . S
Zn161 O175 1.965 . S
Zn161 O177 2.024 . S
C162 O163 1.229 . S
C162 O171 1.058 . S
O163 C162 1.229 . S
C164 O165 1.229 . S
C164 O177 1.058 . S
O165 C164 1.229 . S
O166 Zn160 1.969 . S
O166 C169 1.267 . S
O167 Zn160 1.965 . S
O167 C178 1.260 . S
O168 Zn161 1.969 . S
O168 C178 1.258 . S
C169 O166 1.267 . S
C169 O170 1.228 . S
O170 C169 1.228 . S
O171 Zn160 2.024 . S
O171 C162 1.058 . S
C172 O173 1.228 . S
C172 O174 1.267 . S
O173 C172 1.228 . S
O174 Zn161 1.969 . S
O174 C172 1.267 . S
O175 Zn161 1.965 . S
O175 C179 1.260 . S
O176 Zn160 1.969 . S
O176 C179 1.258 . S
O177 Zn161 2.024 . S
O177 C164 1.058 . S
C178 O167 1.260 . S
C178 O168 1.258 . S
C179 O175 1.260 . S
C179 O176 1.258 . S
Zn180 O186 1.969 . S
Zn180 O187 1.965 . S
Zn180 O191 2.024 . S
Zn180 O196 1.969 . S
Zn181 O188 1.969 . S
Zn181 O194 1.969 . S
Zn181 O195 1.965 . S
Zn181 O197 2.024 . S
C182 O183 1.229 . S
C182 O191 1.058 . S
O183 C182 1.229 . S
C184 O185 1.229 . S
C184 O197 1.058 . S
O185 C184 1.229 . S
O186 Zn180 1.969 . S
O186 C189 1.267 . S
O187 Zn180 1.965 . S
O187 C198 1.260 . S
O188 Zn181 1.969 . S
O188 C198 1.258 . S
C189 O186 1.267 . S
C189 O190 1.228 . S
O190 C189 1.228 . S
O191 Zn180 2.024 . S
O191 C182 1.058 . S
C192 O193 1.228 . S
C192 O194 1.267 . S
O193 C192 1.228 . S
O194 Zn181 1.969 . S
O194 C192 1.267 . S
O195 Zn181 1.965 . S
O195 C199 1.260 . S
O196 Zn180 1.969 . S
O196 C199 1.258 . S
O197 Zn181 2.024 . S
O197 C184 1.058 . S
C198 O187 1.260 . S
C198 O188 1.258 . S
C199 O195 1.260 . S
C199 O196 1.258 . S
Zn200 O206 1.969 . S
Zn200 O207 1.965 . S
Zn200 O211 2.024 . S
Zn200 O216 1.969 . S
Zn201 O208 1.969 . S
Zn201 O214 1.969 . S
Zn201 O215 1.965 . S
Zn201 O217 2.024 . S
C202 O203 1.229 . S
C202 O211 1.058 . S
O203 C202 1.229 . S
C204 O205 1.229 . S
C204 O217 1.058 . S
O205 C204 1.229 . S
O206 Zn200 1.969 . S
O206 C209 1.267 . S
O207 Zn200 1.965 . S
O207 C218 1.260 . S
O208 Zn201 1.969 . S
O208 C218 1.258 . S
C209 O206 1.267 . S
C209 O210 1.228 . S
O210 C209 1.228 . S
O211 Zn200 2.024 . S
O211 C202 1.058 . S
C212 O213 1.228 . S
C212 O214 1.267 . S
O213 C212 1.228 . S
O214 Zn201 1.969 . S
O214 C212 1.267 . S
O215 Zn201 1.965 . S
O215 C219 1.260 . S
O216 Zn200 1.969 . S
O216 C219 1.258 . S
O217 Zn201 2.024 . S
O217 C204 1.058 . S
C218 O207 1.260 . S
C218 O208 1.258 . S
C219 O215 1.260 . S
C219 O216 1.258 . S
Zn220 O226 1.969 . S
Zn220 O227 1.965 . S
Zn220 O231 2.024 . S
Zn220 O236 1.969 . S
Zn221 O228 1.969 . S
Zn221 O234 1.969 . S
Zn221 O235 1.965 . S
Zn221 O237 2.024 . S
C222 O223 1.229 . S
C222 O231 1.058 . S
O223 C222 1.229 . S
C224 O225 1.229 . S
C224 O237 1.058 . S
O225 C224 1.229 . S
O226 Zn220 1.969 . S
O226 C229 1.267 . S
O227 Zn220 1.965 . S
O227 C238 1.260 . S
O228 Zn221 1.969 . S
O228 C238 1.258 . S
C229 O226 1.267 . S
C229 O230 1.228 . S
O230 C229 1.228 . S
O231 Zn220 2.024 . S
O231 C222 1.058 . S
C232 O233 1.228 . S
C232 O234 1.267 . S
O233 C232 1.228 . S
O234 Zn221 1.969 . S
O234 C232 1.267 . S
O235 Zn221 1.965 . S
O235 C239 1.260 . S
O236 Zn220 1.969 . S
O236 C239 1.258 . S
O237 Zn221 2.024 . S
O237 C224 1.058 . S
C238 O227 1.260 . S
C238 O228 1.258 . S
C239 O235 1.260 . S
C239 O236 1.258 . S
Zn240 O246 1.969 . S
Zn240 O247 1.965 . S
Zn240 O251 2.024 . S
Zn240 O256 1.969 . S
Zn241 O248 1.969 . S
Zn241 O254 1.969 . S
Zn241 O255 1.965 . S
Zn241 O257 2.024 . S
C242 O243 1.229 . S
C242 O251 1.058 . S
O243 C242 1.229 . S
C244 O245 1.229 . S
C244 O257 1.058 . S
O245 C244 1.229 . S
O246 Zn240 1.969 . S
O246 C249 1.267 . S
O247 Zn240 1.965 . S
O247 C258 1.260 . S
O248 Zn241 1.969 . S
O248 C258 1.258 . S
C249 O246 1.267 . S
C249 O250 1.228 . S
O250 C249 1.228 . S
O251 Zn240 2.024 . S
O251 C242 1.058 . S
C252 O253 1.228 . S
C252 O254 1.267 . S
O253 C252 1.228 . S
O254 Zn241 1.969 . S
O254 C252 1.267 . S
O255 Zn241 1.965 . S
O255 C259 1.260 . S
O256 Zn240 1.969 . S
O256 C259 1.258 . S
O257 Zn241 2.024 . S
O257 C244 1.058 . S
C258 O247 1.260 . S
C258 O248 1.258 . S
C259 O255 1.260 . S
C259 O256 1.258 . S
Zn260 O266 1.969 . S
Zn260 O267 1.965 . S
Zn260 O271 2.024 . S
Zn260 O276 1.969 . S
Zn261 O268 1.969 . S
Zn261 O274 1.969 . S
Zn261 O275 1.965 . S
Zn261 O277 2.024 . S
C262 O263 1.229 . S
C262 O271 1.058 . S
O263 C262 1.229 . S
C264 O265 1.229 . S
C264 O277 1.058 . S
O265 C264 1.229 . S
O266 Zn260 1.969 . S
O266 C269 1.267 . S
O267 Zn260 1.965 . S
O267 C278 1.260 . S
O268 Zn261 1.969 . S
O268 C278 1.258 . S
C269 O266 1.267 . S
C269 O270 1.228 . S
O270 C269 1.228 . S
O271 Zn260 2.024 . S
O271 C262 1.058 . S
C272 O273 1.228 . S
C272 O274 1.267 . S
O273 C272 1.228 . S
O274 Zn261 1.969 . S
O274 C272 1.267 . S
O275 Zn261 1.965 . S
O275 C279 1.260 . S
O276 Zn260 1.969 . S
O276 C279 1.258 . S
O277 Zn261 2.024 . S
O277 C264 1.058 . S
C278 O267 1.260 . S
C278 O268 1.258 . S
C279 O275 1.260 . S
C279 O276 1.258 . S
Zn280 O286 1.969 . S
Zn280 O287 1.965 . S
Zn280 O291 2.024 . S
Zn280 O296 1.969 . S
Zn281 O288 1.969 . S
Zn281 O294 1.969 . S
Zn281 O295 1.965 . S
Zn281 O297 2.024 . S
C282 O283 1.229 . S
C282 O291 1.058 . S
O283 C282 1.229 . S
C284 O285 1.229 . S
C284 O297 1.058 . S
O285 C284 1.229 . S
O286 Zn280 1.969 . S
O286 C289 1.267 . S
O287 Zn280 1.965 . S
O287 C298 1.260 . S
O288 Zn281 1.969 . S
O288 C298 1.258 . S
C289 O286 1.267 . S
C289 O290 1.228 . S
O290 C289 1.228 . S
O291 Zn280 2.024 . S
O291 C282 1.058 . S
C292 O293 1.228 . S
C292 O294 1.267 . S
O293 C292 1.228 . S
O294 Zn281 1.969 . S
O294 C292 1.267 . S
O295 Zn281 1.965 . S
O295 C299 1.260 . S
O296 Zn280 1.969 . S
O296 C299 1.258 . S
O297 Zn281 2.024 . S
O297 C284 1.058 . S
C298 O287 1.260 . S
C298 O288 1.258 . S
C299 O295 1.260 . S
C299 O296 1.258 . S
Zn300 O306 1.969 . S
Zn300 O307 1.965 . S
Zn300 O311 2.024 . S
Zn300 O316 1.969 . S
Zn301 O308 1.969 . S
Zn301 O314 1.969 . S
Zn301 O315 1.965 . S
Zn301 O317 2.024 . S
C302 O303 1.229 . S
C302 O311 1.058 . S
O303 C302 1.229 . S
C304 O305 1.229 . S
C304 O317 1.058 . S
O305 C304 1.229 . S
O306 Zn300 1.969 . S
O306 C309 1.267 . S
O307 Zn300 1.965 . S
O307 C318 1.260 . S
O308 Zn301 1.969 . S
O308 C318 1.258 . S
C309 O306 1.267 . S
C309 O310 1.228 . S
O310 C309 1.228 . S
O311 Zn300 2.024 . S
O311 C302 1.058 . S
C312 O313 1.228 . S
C312 O314 1.267 . S
O313 C312 1.228 . S
O314 Zn301 1.969 . S
O314 C312 1.267 . S
O315 Zn301 1.965 . S
O315 C319 1.260 . S
O316 Zn300 1.969 . S
O316 C319 1.258 . S
O317 Zn301 2.024 . S
O317 C304 1.058 . S
C318 O307 1.260 . S
C318 O308 1.258 . S
C319 O315 1.260 . S
C319 O316 1.258 . S
Zn320 O326 1.969 . S
Zn320 O327 1.965 . S
Zn320 O331 2.024 . S
Zn320 O336 1.969 . S
Zn321 O328 1.969 . S
Zn321 O334 1.969 . S
Zn321 O335 1.965 . S
Zn321 O337 2.024 . S
C322 O323 1.229 . S
C322 O331 1.058 . S
O323 C322 1.229 . S
C324 O325 1.229 . S
C324 O337 1.058 . S
O325 C324 1.229 . S
O326 Zn320 1.969 . S
O326 C329 1.267 . S
O327 Zn320 1.965 . S
O327 C338 1.260 . S
O328 Zn321 1.969 . S
O328 C338 1.258 . S
C329 O326 1.267 . S
C329 O330 1.228 . S
O330 C329 1.228 . S
O331 Zn320 2.024 . S
O331 C322 1.058 . S
C332 O333 1.228 . S
C332 O334 1.267 . S
O333 C332 1.228 . S
O334 Zn321 1.969 . S
O334 C332 1.267 . S
O335 Zn321 1.965 . S
O335 C339 1.260 . S
O336 Zn320 1.969 . S
O336 C339 1.258 . S
O337 Zn321 2.024 . S
O337 C324 1.058 . S
C338 O327 1.260 . S
C338 O328 1.258 . S
C339 O335 1.260 . S
C339 O336 1.258 . S
Zn340 O346 1.969 . S
Zn340 O347 1.965 . S
Zn340 O351 2.024 . S
Zn340 O356 1.969 . S
Zn341 O348 1.969 . S
Zn341 O354 1.969 . S
Zn341 O355 1.965 . S
Zn341 O357 2.024 . S
C342 O343 1.229 . S
C342 O351 1.058 . S
O343 C342 1.229 . S
C344 O345 1.229 . S
C344 O357 1.058 . S
O345 C344 1.229 . S
O346 Zn340 1.969 . S
O346 C349 1.267 . S
O347 Zn340 1.965 . S
O347 C358 1.260 . S
O348 Zn341 1.969 . S
O348 C358 1.258 . S
C349 O346 1.267 . S
C349 O350 1.228 . S
O350 C349 1.228 . S
O351 Zn340 2.024 . S
O351 C342 1.058 . S
C352 O353 1.228 . S
C352 O354 1.267 . S
O353 C352 1.228 . S
O354 Zn341 1.969 . S
O354 C352 1.267 . S
O355 Zn341 1.965 . S
O355 C359 1.260 . S
O356 Zn340 1.969 . S
O356 C359 1.258 . S
O357 Zn341 2.024 . S
O357 C344 1.058 . S
C358 O347 1.260 . S
C358 O348 1.258 . S
C359 O355 1.260 . S
C359 O356 1.258 . S
H360 C368 0.950 1_554 S
H361 C373 0.950 . S
H362 C370 0.950 . S
H363 C372 0.950 . S
H364 C374 0.950 . S
H365 C376 0.950 . S
H366 C378 0.950 . S
H367 C379 0.950 . S
C368 H360 0.950 1_556 S
C368 C369 1.386 . S
C368 C370 1.391 1_556 S
C369 C368 1.386 . S
C369 C373 1.393 . S
C370 H362 0.950 . S
C370 C368 1.391 1_554 S
C370 C371 1.400 1_554 S
C371 C370 1.400 1_556 S
C371 C372 1.398 . S
C371 C377 1.491 . S
C372 H363 0.950 . S
C372 C371 1.398 . S
C372 C373 1.391 . S
C373 H361 0.950 . S
C373 C369 1.393 . S
C373 C372 1.391 . S
C374 H364 0.950 . S
C374 C375 1.386 1_556 S
C374 C376 1.391 . S
C375 C374 1.386 1_554 S
C375 C379 1.393 . S
C376 H365 0.950 . S
C376 C374 1.391 . S
C376 C377 1.400 . S
C377 C371 1.491 . S
C377 C376 1.400 . S
C377 C378 1.398 1_556 S
C378 H366 0.950 . S
C378 C377 1.398 1_554 S
C378 C379 1.391 . S
C379 H367 0.950 . S
C379 C375 1.393 . S
C379 C378 1.391 . S
H380 C388 0.950 . S
H381 C393 0.950 . S
H382 C390 0.950 . S
H383 C392 0.950 . S
H384 C394 0.950 . S
H385 C396 0.950 . S
H386 C398 0.950 . S
H387 C399 0.950 1_554 S
C388 H380 0.950 . S
C388 C389 1.386 . S
C388 C390 1.391 . S
C389 C388 1.386 . S
C389 C393 1.393 1_554 S
C390 H382 0.950 . S
C390 C388 1.391 . S
C390 C391 1.400 1_554 S
C391 C390 1.400 1_556 S
C391 C392 1.398 . S
C391 C397 1.491 . S
C392 H383 0.950 . S
C392 C391 1.398 . S
C392 C393 1.391 . S
C393 H381 0.950 . S
C393 C389 1.393 1_556 S
C393 C392 1.391 . S
C394 H384 0.950 . S
C394 C395 1.386 . S
C394 C396 1.391 . S
C395 C394 1.386 . S
C395 C399 1.393 . S
C396 H385 0.950 . S
C396 C394 1.391 . S
C396 C397 1.400 . S
C397 C391 1.491 . S
C397 C396 1.400 . S
C397 C398 1.398 1_556 S
C398 H386 0.950 . S
C398 C397 1.398 1_554 S
C398 C399 1.391 1_554 S
C399 H387 0.950 1_556 S
C399 C395 1.393 . S
C399 C398 1.391 1_556 S
H400 C408 0.950 . S
H401 C413 0.950 . S
H402 C410 0.950 . S
H403 C412 0.950 . S
H404 C414 0.950 . S
H405 C416 0.950 . S
H406 C418 0.950 . S
H407 C419 0.950 . S
C408 H400 0.950 . S
C408 C409 1.386 . S
C408 C410 1.391 . S
C409 C408 1.386 . S
C409 C413 1.393 1_556 S
C410 H402 0.950 . S
C410 C408 1.391 . S
C410 C411 1.400 . S
C411 C410 1.400 . S
C411 C412 1.398 1_556 S
C411 C417 1.491 . S
C412 H403 0.950 . S
C412 C411 1.398 1_554 S
C412 C413 1.391 . S
C413 H401 0.950 . S
C413 C409 1.393 1_554 S
C413 C412 1.391 . S
C414 H404 0.950 . S
C414 C415 1.386 . S
C414 C416 1.391 . S
C415 C414 1.386 . S
C415 C419 1.393 1_554 S
C416 H405 0.950 . S
C416 C414 1.391 . S
C416 C417 1.400 1_554 S
C417 C411 1.491 . S
C417 C416 1.400 1_556 S
C417 C418 1.398 . S
C418 H406 0.950 . S
C418 C417 1.398 . S
C418 C419 1.391 . S
C419 H407 0.950 . S
C419 C415 1.393 1_556 S
C419 C418 1.391 . S
H420 C428 0.950 . S
H421 C433 0.950 . S
H422 C430 0.950 . S
H423 C432 0.950 . S
H424 C434 0.950 . S
H425 C436 0.950 . S
H426 C438 0.950 . S
H427 C439 0.950 . S
C428 H420 0.950 . S
C428 C429 1.386 . S
C428 C430 1.391 . S
C429 C428 1.386 . S
C429 C433 1.393 . S
C430 H422 0.950 . S
C430 C428 1.391 . S
C430 C431 1.400 . S
C431 C430 1.400 . S
C431 C432 1.398 . S
C431 C437 1.491 . S
C432 H423 0.950 . S
C432 C431 1.398 . S
C432 C433 1.391 . S
C433 H421 0.950 . S
C433 C429 1.393 . S
C433 C432 1.391 . S
C434 H424 0.950 . S
C434 C435 1.386 . S
C434 C436 1.391 . S
C435 C434 1.386 . S
C435 C439 1.393 . S
C436 H425 0.950 . S
C436 C434 1.391 . S
C436 C437 1.400 . S
C437 C431 1.491 . S
C437 C436 1.400 . S
C437 C438 1.398 . S
C438 H426 0.950 . S
C438 C437 1.398 . S
C438 C439 1.391 . S
C439 H427 0.950 . S
C439 C435 1.393 . S
C439 C438 1.391 . S
H440 C448 0.950 . S
H441 C453 0.950 . S
H442 C450 0.950 . S
H443 C452 0.950 . S
H444 C454 0.950 . S
H445 C456 0.950 . S
H446 C458 0.950 . S
H447 C459 0.950 . S
C448 H440 0.950 . S
C448 C449 1.386 . S
C448 C450 1.391 . S
C449 C448 1.386 . S
C449 C453 1.393 . S
C450 H442 0.950 . S
C450 C448 1.391 . S
C450 C451 1.400 . S
C451 C450 1.400 . S
C451 C452 1.398 . S
C451 C457 1.491 . S
C452 H443 0.950 . S
C452 C451 1.398 . S
C452 C453 1.391 . S
C453 H441 0.950 . S
C453 C449 1.393 . S
C453 C452 1.391 . S
C454 H444 0.950 . S
C454 C455 1.386 . S
C454 C456 1.391 . S
C455 C454 1.386 . S
C455 C459 1.393 . S
C456 H445 0.950 . S
C456 C454 1.391 . S
C456 C457 1.400 . S
C457 C451 1.491 . S
C457 C456 1.400 . S
C457 C458 1.398 . S
C458 H446 0.950 . S
C458 C457 1.398 . S
C458 C459 1.391 . S
C459 H447 0.950 . S
C459 C455 1.393 . S
C459 C458 1.391 . S
H460 C468 0.950 . S
H461 C473 0.950 . S
H462 C470 0.950 . S
H463 C472 0.950 . S
H464 C474 0.950 . S
H465 C476 0.950 . S
H466 C478 0.950 . S
H467 C479 0.950 . S
C468 H460 0.950 . S
C468 C469 1.386 . S
C468 C470 1.391 . S
C469 C468 1.386 . S
C469 C473 1.393 . S
C470 H462 0.950 . S
C470 C468 1.391 . S
C470 C471 1.400 . S
C471 C470 1.400 . S
C471 C472 1.398 . S
C471 C477 1.491 . S
C472 H463 0.950 . S
C472 C471 1.398 . S
C472 C473 1.391 . S
C473 H461 0.950 . S
C473 C469 1.393 . S
C473 C472 1.391 . S
C474 H464 0.950 . S
C474 C475 1.386 . S
C474 C476 1.391 . S
C475 C474 1.386 . S
C475 C479 1.393 . S
C476 H465 0.950 . S
C476 C474 1.391 . S
C476 C477 1.400 . S
C477 C471 1.491 . S
C477 C476 1.400 . S
C477 C478 1.398 . S
C478 H466 0.950 . S
C478 C477 1.398 . S
C478 C479 1.391 . S
C479 H467 0.950 . S
C479 C475 1.393 . S
C479 C478 1.391 . S
H480 C488 0.950 . S
H481 C493 0.950 . S
H482 C490 0.950 . S
H483 C492 0.950 . S
H484 C494 0.950 . S
H485 C496 0.950 . S
H486 C498 0.950 . S
H487 C499 0.950 . S
C488 H480 0.950 . S
C488 C489 1.386 . S
C488 C490 1.391 . S
C489 C488 1.386 . S
C489 C493 1.393 . S
C490 H482 0.950 . S
C490 C488 1.391 . S
C490 C491 1.400 . S
C491 C490 1.400 . S
C491 C492 1.398 . S
C491 C497 1.491 . S
C492 H483 0.950 . S
C492 C491 1.398 . S
C492 C493 1.391 . S
C493 H481 0.950 . S
C493 C489 1.393 . S
C493 C492 1.391 . S
C494 H484 0.950 . S
C494 C495 1.386 . S
C494 C496 1.391 . S
C495 C494 1.386 . S
C495 C499 1.393 . S
C496 H485 0.950 . S
C496 C494 1.391 . S
C496 C497 1.400 . S
C497 C491 1.491 . S
C497 C496 1.400 . S
C497 C498 1.398 . S
C498 H486 0.950 . S
C498 C497 1.398 . S
C498 C499 1.391 . S
C499 H487 0.950 . S
C499 C495 1.393 . S
C499 C498 1.391 . S
H500 C508 0.950 . S
H501 C513 0.950 . S
H502 C510 0.950 . S
H503 C512 0.950 . S
H504 C514 0.950 . S
H505 C516 0.950 . S
H506 C518 0.950 . S
H507 C519 0.950 . S
C508 H500 0.950 . S
C508 C509 1.386 . S
C508 C510 1.391 . S
C509 C508 1.386 . S
C509 C513 1.393 . S
C510 H502 0.950 . S
C510 C508 1.391 . S
C510 C511 1.400 . S
C511 C510 1.400 . S
C511 C512 1.398 . S
C511 C517 1.491 . S
C512 H503 0.950 . S
C512 C511 1.398 . S
C512 C513 1.391 . S
C513 H501 0.950 . S
C513 C509 1.393 . S
C513 C512 1.391 . S
C514 H504 0.950 . S
C514 C515 1.386 . S
C514 C516 1.391 . S
C515 C514 1.386 . S
C515 C519 1.393 . S
C516 H505 0.950 . S
C516 C514 1.391 . S
C516 C517 1.400 . S
C517 C511 1.491 . S
C517 C516 1.400 . S
C517 C518 1.398 . S
C518 H506 0.950 . S
C518 C517 1.398 . S
C518 C519 1.391 . S
C519 H507 0.950 . S
C519 C515 1.393 . S
C519 C518 1.391 . S
H520 C528 0.950 . S
H521 C533 0.950 . S
H522 C530 0.950 . S
H523 C532 0.950 . S
H524 C534 0.950 . S
H525 C536 0.950 . S
H526 C538 0.950 . S
H527 C539 0.950 . S
C528 H520 0.950 . S
C528 C529 1.386 . S
C528 C530 1.391 . S
C529 C528 1.386 . S
C529 C533 1.393 . S
C530 H522 0.950 . S
C530 C528 1.391 . S
C530 C531 1.400 . S
C531 C530 1.400 . S
C531 C532 1.398 . S
C531 C537 1.491 . S
C532 H523 0.950 . S
C532 C531 1.398 . S
C532 C533 1.391 . S
C533 H521 0.950 . S
C533 C529 1.393 . S
C533 C532 1.391 . S
C534 H524 0.950 . S
C534 C535 1.386 . S
C534 C536 1.391 . S
C535 C534 1.386 . S
C535 C539 1.393 . S
C536 H525 0.950 . S
C536 C534 1.391 . S
C536 C537 1.400 . S
C537 C531 1.491 . S
C537 C536 1.400 . S
C537 C538 1.398 . S
C538 H526 0.950 . S
C538 C537 1.398 . S
C538 C539 1.391 . S
C539 H527 0.950 . S
C539 C535 1.393 . S
C539 C538 1.391 . S
H540 C548 0.950 . S
H541 C553 0.950 . S
H542 C550 0.950 . S
H543 C552 0.950 . S
H544 C554 0.950 . S
H545 C556 0.950 . S
H546 C558 0.950 . S
H547 C559 0.950 . S
C548 H540 0.950 . S
C548 C549 1.386 . S
C548 C550 1.391 . S
C549 C548 1.386 . S
C549 C553 1.393 . S
C550 H542 0.950 . S
C550 C548 1.391 . S
C550 C551 1.400 . S
C551 C550 1.400 . S
C551 C552 1.398 . S
C551 C557 1.491 . S
C552 H543 0.950 . S
C552 C551 1.398 . S
C552 C553 1.391 . S
C553 H541 0.950 . S
C553 C549 1.393 . S
C553 C552 1.391 . S
C554 H544 0.950 . S
C554 C555 1.386 . S
C554 C556 1.391 . S
C555 C554 1.386 . S
C555 C559 1.393 . S
C556 H545 0.950 . S
C556 C554 1.391 . S
C556 C557 1.400 . S
C557 C551 1.491 . S
C557 C556 1.400 . S
C557 C558 1.398 . S
C558 H546 0.950 . S
C558 C557 1.398 . S
C558 C559 1.391 . S
C559 H547 0.950 . S
C559 C555 1.393 . S
C559 C558 1.391 . S
H560 C568 0.950 . S
H561 C573 0.950 . S
H562 C570 0.950 . S
H563 C572 0.950 . S
H564 C574 0.950 . S
H565 C576 0.950 . S
H566 C578 0.950 . S
H567 C579 0.950 . S
C568 H560 0.950 . S
C568 C569 1.386 . S
C568 C570 1.391 . S
C569 C568 1.386 . S
C569 C573 1.393 . S
C570 H562 0.950 . S
C570 C568 1.391 . S
C570 C571 1.400 . S
C571 C570 1.400 . S
C571 C572 1.398 . S
C571 C577 1.491 . S
C572 H563 0.950 . S
C572 C571 1.398 . S
C572 C573 1.391 . S
C573 H561 0.950 . S
C573 C569 1.393 . S
C573 C572 1.391 . S
C574 H564 0.950 . S
C574 C575 1.386 . S
C574 C576 1.391 . S
C575 C574 1.386 . S
C575 C579 1.393 . S
C576 H565 0.950 . S
C576 C574 1.391 . S
C576 C577 1.400 . S
C577 C571 1.491 . S
C577 C576 1.400 . S
C577 C578 1.398 . S
C578 H566 0.950 . S
C578 C577 1.398 . S
C578 C579 1.391 . S
C579 H567 0.950 . S
C579 C575 1.393 . S
C579 C578 1.391 . S
H580 C588 0.950 . S
H581 C593 0.950 . S
H582 C590 0.950 . S
H583 C592 0.950 . S
H584 C594 0.950 . S
H585 C596 0.950 . S
H586 C598 0.950 . S
H587 C599 0.950 . S
C588 H580 0.950 . S
C588 C589 1.386 . S
C588 C590 1.391 . S
C589 C588 1.386 . S
C589 C593 1.393 . S
C590 H582 0.950 . S
C590 C588 1.391 . S
C590 C591 1.400 . S
C591 C590 1.400 . S
C591 C592 1.398 . S
C591 C597 1.491 . S
C592 H583 0.950 . S
C592 C591 1.398 . S
C592 C593 1.391 . S
C593 H581 0.950 . S
C593 C589 1.393 . S
C593 C592 1.391 . S
C594 H584 0.950 . S
C594 C595 1.386 . S
C594 C596 1.391 . S
C595 C594 1.386 . S
C595 C599 1.393 . S
C596 H585 0.950 . S
C596 C594 1.391 . S
C596 C597 1.400 . S
C597 C591 1.491 . S
C597 C596 1.400 . S
C597 C598 1.398 . S
C598 H586 0.950 . S
C598 C597 1.398 . S
C598 C599 1.391 . S
C599 H587 0.950 . S
C599 C595 1.393 . S
C599 C598 1.391 . S
H600 C608 0.950 . S
H601 C613 0.950 1_545 S
H602 C610 0.950 . S
H603 C612 0.950 . S
H604 C614 0.950 . S
H605 C616 0.950 . S
H606 C618 0.950 . S
H607 C619 0.950 . S
C608 H600 0.950 . S
C608 C609 1.386 . S
C608 C610 1.391 1_545 S
C609 C608 1.386 . S
C609 C613 1.393 1_545 S
C610 H602 0.950 . S
C610 C608 1.391 1_565 S
C610 C611 1.400 . S
C611 C610 1.400 . S
C611 C612 1.398 . S
C611 C617 1.491 . S
C612 H603 0.950 . S
C612 C611 1.398 . S
C612 C613 1.391 . S
C613 H601 0.950 1_565 S
C613 C609 1.393 1_565 S
C613 C612 1.391 . S
C614 H604 0.950 . S
C614 C615 1.386 . S
C614 C616 1.391 . S
C615 C614 1.386 . S
C615 C619 1.393 . S
C616 H605 0.950 . S
C616 C614 1.391 . S
C616 C617 1.400 . S
C617 C611 1.491 . S
C617 C616 1.400 . S
C617 C618 1.398 . S
C618 H606 0.950 . S
C618 C617 1.398 . S
C618 C619 1.391 . S
C619 H607 0.950 . S
C619 C615 1.393 . S
C619 C618 1.391 . S
H620 C628 0.950 . S
H621 C633 0.949 1_545 S
H622 C630 0.950 . S
H623 C632 0.950 . S
H624 C634 0.950 . S
H625 C636 0.950 . S
H626 C638 0.950 . S
H627 C639 0.948 1_655 S
C628 H620 0.950 . S
C628 C629 1.386 . S
C628 C630 1.391 1_545 S
C629 C628 1.386 . S
C629 C633 1.393 1_545 S
C630 H622 0.950 . S
C630 C628 1.391 1_565 S
C630 C631 1.400 . S
C631 C630 1.400 . S
C631 C632 1.398 . S
C631 C637 1.491 . S
C632 H623 0.950 . S
C632 C631 1.398 . S
C632 C633 1.391 . S
C633 H621 0.949 1_565 S
C633 C629 1.393 1_565 S
C633 C632 1.391 . S
C634 H624 0.950 . S
C634 C635 1.386 . S
C634 C636 1.391 1_655 S
C635 C634 1.386 . S
C635 C639 1.393 1_655 S
C636 H625 0.950 . S
C636 C634 1.391 1_455 S
C636 C637 1.400 . S
C637 C631 1.491 . S
C637 C636 1.400 . S
C637 C638 1.398 . S
C638 H626 0.950 . S
C638 C637 1.398 . S
C638 C639 1.391 . S
C639 H627 0.948 1_455 S
C639 C635 1.393 1_455 S
C639 C638 1.391 . S
H640 C648 0.950 . S
H641 C653 0.950 . S
H642 C650 0.950 . S
H643 C652 0.950 . S
H644 C654 0.950 . S
H645 C656 0.950 . S
H646 C658 0.950 . S
H647 C659 0.950 . S
C648 H640 0.950 . S
C648 C649 1.386 . S
C648 C650 1.391 1_655 S
C649 C648 1.386 . S
C649 C653 1.393 1_655 S
C650 H642 0.950 . S
C650 C648 1.391 1_455 S
C650 C651 1.400 . S
C651 C650 1.400 . S
C651 C652 1.398 . S
C651 C657 1.491 . S
C652 H643 0.950 . S
C652 C651 1.398 . S
C652 C653 1.391 . S
C653 H641 0.950 . S
C653 C649 1.393 1_455 S
C653 C652 1.391 . S
C654 H644 0.950 . S
C654 C655 1.386 . S
C654 C656 1.391 . S
C655 C654 1.386 . S
C655 C659 1.393 . S
C656 H645 0.950 . S
C656 C654 1.391 . S
C656 C657 1.400 . S
C657 C651 1.491 . S
C657 C656 1.400 . S
C657 C658 1.398 . S
C658 H646 0.950 . S
C658 C657 1.398 . S
C658 C659 1.391 . S
C659 H647 0.950 . S
C659 C655 1.393 . S
C659 C658 1.391 . S
H660 C668 0.950 . S
H661 C673 0.950 . S
H662 C670 0.950 . S
H663 C672 0.950 . S
H664 C674 0.950 . S
H665 C676 0.950 . S
H666 C678 0.950 . S
H667 C679 0.971 . S
C668 H660 0.950 . S
C668 C669 1.386 . S
C668 C670 1.391 . S
C669 C668 1.386 . S
C669 C673 1.393 . S
C670 H662 0.950 . S
C670 C668 1.391 . S
C670 C671 1.400 . S
C671 C670 1.400 . S
C671 C672 1.398 . S
C671 C677 1.491 . S
C672 H663 0.950 . S
C672 C671 1.398 . S
C672 C673 1.391 . S
C673 H661 0.950 . S
C673 C669 1.393 . S
C673 C672 1.391 . S
C674 H664 0.950 . S
C674 C675 1.386 . S
C674 C676 1.391 1_655 S
C675 C674 1.386 . S
C675 C679 1.401 . S
C676 H665 0.950 . S
C676 C674 1.391 1_455 S
C676 C677 1.400 . S
C677 C671 1.491 . S
C677 C676 1.400 . S
C677 C678 1.398 . S
C678 H666 0.950 . S
C678 C677 1.398 . S
C678 C679 1.362 1_455 S
C679 H667 0.971 . S
C679 C675 1.401 . S
C679 C678 1.362 1_655 S
H680 C688 0.950 . S
H681 C693 0.950 . S
H682 C690 0.950 . S
H683 C692 0.950 . S
H684 C694 0.950 . S
H685 C696 0.950 . S
H686 C698 0.950 . S
H687 C699 0.950 . S
C688 H680 0.950 . S
C688 C689 1.386 . S
C688 C690 1.391 . S
C689 C688 1.386 . S
C689 C693 1.393 . S
C690 H682 0.950 . S
C690 C688 1.391 . S
C690 C691 1.400 . S
C691 C690 1.400 . S
C691 C692 1.398 . S
C691 C697 1.491 . S
C692 H683 0.950 . S
C692 C691 1.398 . S
C692 C693 1.391 . S
C693 H681 0.950 . S
C693 C689 1.393 . S
C693 C692 1.391 . S
C694 H684 0.950 . S
C694 C695 1.386 . S
C694 C696 1.391 1_545 S
C695 C694 1.386 . S
C695 C699 1.393 1_545 S
C696 H685 0.950 . S
C696 C694 1.391 1_565 S
C696 C697 1.400 . S
C697 C691 1.491 . S
C697 C696 1.400 . S
C697 C698 1.398 . S
C698 H686 0.950 . S
C698 C697 1.398 . S
C698 C699 1.391 . S
C699 H687 0.950 . S
C699 C695 1.393 1_565 S
C699 C698 1.391 . S
H700 C708 0.950 . S
H701 C713 0.950 . S
H702 C710 0.950 . S
H703 C712 0.950 . S
H704 C714 0.950 . S
H705 C716 0.950 . S
H706 C718 0.950 . S
H707 C719 0.950 . S
C708 H700 0.950 . S
C708 C709 1.386 1_565 S
C708 C710 1.391 . S
C709 C708 1.386 1_545 S
C709 C713 1.393 . S
C710 H702 0.950 . S
C710 C708 1.391 . S
C710 C711 1.400 . S
C711 C710 1.400 . S
C711 C712 1.398 . S
C711 C717 1.491 . S
C712 H703 0.950 . S
C712 C711 1.398 . S
C712 C713 1.391 1_565 S
C713 H701 0.950 . S
C713 C709 1.393 . S
C713 C712 1.391 1_545 S
C714 H704 0.950 . S
C714 C715 1.386 . S
C714 C716 1.391 1_655 S
C715 C714 1.386 . S
C715 C719 1.393 . S
C716 H705 0.950 . S
C716 C714 1.391 1_455 S
C716 C717 1.400 . S
C717 C711 1.491 . S
C717 C716 1.400 . S
C717 C718 1.398 . S
C718 H706 0.950 . S
C718 C717 1.398 . S
C718 C719 1.391 1_455 S
C719 H707 0.950 . S
C719 C715 1.393 . S
C719 C718 1.391 1_655 S
H720 C728 0.950 . S
H721 C733 0.950 . S
H722 C730 0.950 . S
H723 C732 0.950 . S
H724 C734 0.950 . S
H725 C736 0.950 . S
H726 C738 0.950 . S
H727 C739 0.950 . S
C728 H720 0.950 . S
C728 C729 1.386 . S
C728 C730 1.391 . S
C729 C728 1.386 . S
C729 C733 1.393 . S
C730 H722 0.950 . S
C730 C728 1.391 . S
C730 C731 1.400 . S
C731 C730 1.400 . S
C731 C732 1.398 . S
C731 C737 1.491 . S
C732 H723 0.950 . S
C732 C731 1.398 . S
C732 C733 1.391 . S
C733 H721 0.950 . S
C733 C729 1.393 . S
C733 C732 1.391 . S
C734 H724 0.950 . S
C734 C735 1.386 . S
C734 C736 1.391 . S
C735 C734 1.386 . S
C735 C739 1.393 . S
C736 H725 0.950 . S
C736 C734 1.391 . S
C736 C737 1.400 . S
C737 C731 1.491 . S
C737 C736 1.400 . S
C737 C738 1.398 . S
C738 H726 0.950 . S
C738 C737 1.398 . S
C738 C739 1.391 . S
C739 H727 0.950 . S
C739 C735 1.393 . S
C739 C738 1.391 . S
H740 C748 0.950 . S
H741 C753 0.950 . S
H742 C750 0.950 . S
H743 C752 0.950 . S
H744 C754 0.950 . S
H745 C756 0.950 . S
H746 C758 0.950 . S
H747 C759 0.950 . S
C748 H740 0.950 . S
C748 C749 1.386 . S
C748 C750 1.391 . S
C749 C748 1.386 . S
C749 C753 1.393 . S
C750 H742 0.950 . S
C750 C748 1.391 . S
C750 C751 1.400 . S
C751 C750 1.400 . S
C751 C752 1.398 . S
C751 C757 1.491 . S
C752 H743 0.950 . S
C752 C751 1.398 . S
C752 C753 1.391 . S
C753 H741 0.950 . S
C753 C749 1.393 . S
C753 C752 1.391 . S
C754 H744 0.950 . S
C754 C755 1.386 . S
C754 C756 1.391 . S
C755 C754 1.386 . S
C755 C759 1.393 . S
C756 H745 0.950 . S
C756 C754 1.391 . S
C756 C757 1.400 . S
C757 C751 1.491 . S
C757 C756 1.400 . S
C757 C758 1.398 . S
C758 H746 0.950 . S
C758 C757 1.398 . S
C758 C759 1.391 . S
C759 H747 0.950 . S
C759 C755 1.393 . S
C759 C758 1.391 . S
H760 C768 0.950 . S
H761 C773 0.950 . S
H762 C770 0.950 . S
H763 C772 0.950 . S
H764 C774 0.950 . S
H765 C776 0.950 . S
H766 C778 0.950 . S
H767 C779 0.950 . S
C768 H760 0.950 . S
C768 C769 1.386 . S
C768 C770 1.391 . S
C769 C768 1.386 . S
C769 C773 1.393 . S
C770 H762 0.950 . S
C770 C768 1.391 . S
C770 C771 1.400 . S
C771 C770 1.400 . S
C771 C772 1.398 . S
C771 C777 1.491 . S
C772 H763 0.950 . S
C772 C771 1.398 . S
C772 C773 1.391 . S
C773 H761 0.950 . S
C773 C769 1.393 . S
C773 C772 1.391 . S
C774 H764 0.950 . S
C774 C775 1.386 . S
C774 C776 1.391 . S
C775 C774 1.386 . S
C775 C779 1.393 . S
C776 H765 0.950 . S
C776 C774 1.391 . S
C776 C777 1.400 . S
C777 C771 1.491 . S
C777 C776 1.400 . S
C777 C778 1.398 . S
C778 H766 0.950 . S
C778 C777 1.398 . S
C778 C779 1.391 . S
C779 H767 0.950 . S
C779 C775 1.393 . S
C779 C778 1.391 . S
H780 C788 0.950 . S
H781 C793 0.950 . S
H782 C790 0.950 . S
H783 C792 0.950 . S
H784 C794 0.950 . S
H785 C796 0.950 . S
H786 C798 0.950 . S
H787 C799 0.950 . S
C788 H780 0.950 . S
C788 C789 1.386 . S
C788 C790 1.391 . S
C789 C788 1.386 . S
C789 C793 1.393 . S
C790 H782 0.950 . S
C790 C788 1.391 . S
C790 C791 1.400 . S
C791 C790 1.400 . S
C791 C792 1.398 . S
C791 C797 1.491 . S
C792 H783 0.950 . S
C792 C791 1.398 . S
C792 C793 1.391 . S
C793 H781 0.950 . S
C793 C789 1.393 . S
C793 C792 1.391 . S
C794 H784 0.950 . S
C794 C795 1.386 . S
C794 C796 1.391 . S
C795 C794 1.386 . S
C795 C799 1.393 . S
C796 H785 0.950 . S
C796 C794 1.391 . S
C796 C797 1.400 . S
C797 C791 1.491 . S
C797 C796 1.400 . S
C797 C798 1.398 . S
C798 H786 0.950 . S
C798 C797 1.398 . S
C798 C799 1.391 . S
C799 H787 0.950 . S
C799 C795 1.393 . S
C799 C798 1.391 . S
H800 C808 0.950 . S
H801 C813 0.950 . S
H802 C810 0.950 . S
H803 C812 0.950 . S
H804 C814 0.950 . S
H805 C816 0.950 . S
H806 C818 0.950 . S
H807 C819 0.950 . S
C808 H800 0.950 . S
C808 C809 1.386 . S
C808 C810 1.391 . S
C809 C808 1.386 . S
C809 C813 1.393 . S
C810 H802 0.950 . S
C810 C808 1.391 . S
C810 C811 1.400 . S
C811 C810 1.400 . S
C811 C812 1.398 . S
C811 C817 1.491 . S
C812 H803 0.950 . S
C812 C811 1.398 . S
C812 C813 1.391 . S
C813 H801 0.950 . S
C813 C809 1.393 . S
C813 C812 1.391 . S
C814 H804 0.950 . S
C814 C815 1.386 . S
C814 C816 1.391 . S
C815 C814 1.386 . S
C815 C819 1.393 . S
C816 H805 0.950 . S
C816 C814 1.391 . S
C816 C817 1.400 . S
C817 C811 1.491 . S
C817 C816 1.400 . S
C817 C818 1.398 . S
C818 H806 0.950 . S
C818 C817 1.398 . S
C818 C819 1.391 . S
C819 H807 0.950 . S
C819 C815 1.393 . S
C819 C818 1.391 . S
H820 C828 0.950 . S
H821 C833 0.950 . S
H822 C830 0.950 . S
H823 C832 0.950 . S
H824 C834 0.950 . S
H825 C836 0.950 . S
H826 C838 0.950 . S
H827 C839 0.950 . S
C828 H820 0.950 . S
C828 C829 1.386 . S
C828 C830 1.391 . S
C829 C828 1.386 . S
C829 C833 1.393 . S
C830 H822 0.950 . S
C830 C828 1.391 . S
C830 C831 1.400 . S
C831 C830 1.400 . S
C831 C832 1.398 . S
C831 C837 1.491 . S
C832 H823 0.950 . S
C832 C831 1.398 . S
C832 C833 1.391 . S
C833 H821 0.950 . S
C833 C829 1.393 . S
C833 C832 1.391 . S
C834 H824 0.950 . S
C834 C835 1.386 . S
C834 C836 1.391 . S
C835 C834 1.386 . S
C835 C839 1.393 . S
C836 H825 0.950 . S
C836 C834 1.391 . S
C836 C837 1.400 . S
C837 C831 1.491 . S
C837 C836 1.400 . S
C837 C838 1.398 . S
C838 H826 0.950 . S
C838 C837 1.398 . S
C838 C839 1.391 . S
C839 H827 0.950 . S
C839 C835 1.393 . S
C839 C838 1.391 . S
H840 C848 0.950 . S
H841 C853 0.950 . S
H842 C850 0.950 . S
H843 C852 0.950 . S
H844 C854 0.950 . S
H845 C856 0.950 . S
H846 C858 0.950 . S
H847 C859 0.950 . S
C848 H840 0.950 . S
C848 C849 1.386 . S
C848 C850 1.391 . S
C849 C848 1.386 . S
C849 C853 1.393 . S
C850 H842 0.950 . S
C850 C848 1.391 . S
C850 C851 1.400 . S
C851 C850 1.400 . S
C851 C852 1.398 . S
C851 C857 1.491 . S
C852 H843 0.950 . S
C852 C851 1.398 . S
C852 C853 1.391 . S
C853 H841 0.950 . S
C853 C849 1.393 . S
C853 C852 1.391 . S
C854 H844 0.950 . S
C854 C855 1.386 . S
C854 C856 1.391 . S
C855 C854 1.386 . S
C855 C859 1.393 . S
C856 H845 0.950 . S
C856 C854 1.391 . S
C856 C857 1.400 . S
C857 C851 1.491 . S
C857 C856 1.400 . S
C857 C858 1.398 . S
C858 H846 0.950 . S
C858 C857 1.398 . S
C858 C859 1.391 . S
C859 H847 0.950 . S
C859 C855 1.393 . S
C859 C858 1.391 . S
H860 C868 0.950 . S
H861 C873 0.950 . S
H862 C870 0.950 . S
H863 C872 0.950 . S
H864 C874 0.950 . S
H865 C876 0.950 . S
H866 C878 0.950 . S
H867 C879 0.950 . S
C868 H860 0.950 . S
C868 C869 1.386 . S
C868 C870 1.391 . S
C869 C868 1.386 . S
C869 C873 1.393 . S
C870 H862 0.950 . S
C870 C868 1.391 . S
C870 C871 1.400 . S
C871 C870 1.400 . S
C871 C872 1.398 . S
C871 C877 1.491 . S
C872 H863 0.950 . S
C872 C871 1.398 . S
C872 C873 1.391 . S
C873 H861 0.950 . S
C873 C869 1.393 . S
C873 C872 1.391 . S
C874 H864 0.950 . S
C874 C875 1.386 . S
C874 C876 1.391 . S
C875 C874 1.386 . S
C875 C879 1.393 . S
C876 H865 0.950 . S
C876 C874 1.391 . S
C876 C877 1.400 . S
C877 C871 1.491 . S
C877 C876 1.400 . S
C877 C878 1.398 . S
C878 H866 0.950 . S
C878 C877 1.398 . S
C878 C879 1.391 . S
C879 H867 0.950 . S
C879 C875 1.393 . S
C879 C878 1.391 . S
H880 C888 0.950 . S
H881 C893 0.950 . S
H882 C890 0.950 . S
H883 C892 0.950 . S
H884 C894 0.950 . S
H885 C896 0.950 . S
H886 C898 0.950 . S
H887 C899 0.950 . S
C888 H880 0.950 . S
C888 C889 1.386 . S
C888 C890 1.391 . S
C889 C888 1.386 . S
C889 C893 1.393 . S
C890 H882 0.950 . S
C890 C888 1.391 . S
C890 C891 1.400 . S
C891 C890 1.400 . S
C891 C892 1.398 . S
C891 C897 1.491 . S
C892 H883 0.950 . S
C892 C891 1.398 . S
C892 C893 1.391 . S
C893 H881 0.950 . S
C893 C889 1.393 . S
C893 C892 1.391 . S
C894 H884 0.950 . S
C894 C895 1.386 . S
C894 C896 1.391 . S
C895 C894 1.386 . S
C895 C899 1.393 . S
C896 H885 0.950 . S
C896 C894 1.391 . S
C896 C897 1.400 . S
C897 C891 1.491 . S
C897 C896 1.400 . S
C897 C898 1.398 . S
C898 H886 0.950 . S
C898 C897 1.398 . S
C898 C899 1.391 . S
C899 H887 0.950 . S
C899 C895 1.393 . S
C899 C898 1.391 . S
H900 C908 0.950 . S
H901 C913 0.950 1_556 S
H902 C910 0.950 . S
H903 C912 0.950 . S
H904 C914 0.950 . S
H905 C916 0.950 . S
H906 C918 0.950 . S
H907 C919 0.950 . S
C908 H900 0.950 . S
C908 C909 1.386 1_554 S
C908 C910 1.391 . S
C909 C908 1.386 1_556 S
C909 C913 1.393 1_556 S
C910 H902 0.950 . S
C910 C908 1.391 . S
C910 C911 1.400 . S
C911 C910 1.400 . S
C911 C912 1.398 . S
C911 C917 1.491 . S
C912 H903 0.950 . S
C912 C911 1.398 . S
C912 C913 1.391 . S
C913 H901 0.950 1_554 S
C913 C909 1.393 1_554 S
C913 C912 1.391 . S
C914 H904 0.950 . S
C914 C915 1.386 . S
C914 C916 1.391 . S
C915 C914 1.386 . S
C915 C919 1.393 . S
C916 H905 0.950 . S
C916 C914 1.391 . S
C916 C917 1.400 . S
C917 C911 1.491 . S
C917 C916 1.400 . S
C917 C918 1.398 . S
C918 H906 0.950 . S
C918 C917 1.398 . S
C918 C919 1.391 . S
C919 H907 0.950 . S
C919 C915 1.393 . S
C919 C918 1.391 . S
H920 C928 0.950 1_556 S
H921 C933 0.950 . S
H922 C930 0.950 . S
H923 C932 0.950 . S
H924 C934 0.950 . S
H925 C936 0.950 . S
H926 C938 0.950 . S
H927 C939 0.950 . S
C928 H920 0.950 1_554 S
C928 C929 1.386 1_554 S
C928 C930 1.391 . S
C929 C928 1.386 1_556 S
C929 C933 1.393 1_556 S
C930 H922 0.950 . S
C930 C928 1.391 . S
C930 C931 1.400 . S
C931 C930 1.400 . S
C931 C932 1.398 . S
C931 C937 1.491 . S
C932 H923 0.950 . S
C932 C931 1.398 . S
C932 C933 1.391 . S
C933 H921 0.950 . S
C933 C929 1.393 1_554 S
C933 C932 1.391 . S
C934 H924 0.950 . S
C934 C935 1.386 . S
C934 C936 1.391 . S
C935 C934 1.386 . S
C935 C939 1.393 . S
C936 H925 0.950 . S
C936 C934 1.391 . S
C936 C937 1.400 . S
C937 C931 1.491 . S
C937 C936 1.400 . S
C937 C938 1.398 . S
C938 H926 0.950 . S
C938 C937 1.398 . S
C938 C939 1.391 . S
C939 H927 0.950 . S
C939 C935 1.393 . S
C939 C938 1.391 . S
H940 C948 0.950 1_556 S
H941 C953 0.950 . S
H942 C950 0.950 . S
H943 C952 0.950 . S
H944 C954 0.950 . S
H945 C956 0.950 . S
H946 C958 0.950 . S
H947 C959 0.950 . S
C948 H940 0.950 1_554 S
C948 C949 1.386 1_554 S
C948 C950 1.391 . S
C949 C948 1.386 1_556 S
C949 C953 1.393 1_556 S
C950 H942 0.950 . S
C950 C948 1.391 . S
C950 C951 1.400 . S
C951 C950 1.400 . S
C951 C952 1.398 . S
C951 C957 1.491 . S
C952 H943 0.950 . S
C952 C951 1.398 . S
C952 C953 1.391 . S
C953 H941 0.950 . S
C953 C949 1.393 1_554 S
C953 C952 1.391 . S
C954 H944 0.950 . S
C954 C955 1.386 . S
C954 C956 1.391 . S
C955 C954 1.386 . S
C955 C959 1.393 . S
C956 H945 0.950 . S
C956 C954 1.391 . S
C956 C957 1.400 . S
C957 C951 1.491 . S
C957 C956 1.400 . S
C957 C958 1.398 . S
C958 H946 0.950 . S
C958 C957 1.398 . S
C958 C959 1.391 . S
C959 H947 0.950 . S
C959 C955 1.393 . S
C959 C958 1.391 . S
H960 C968 0.950 . S
H961 C973 0.950 . S
H962 C970 0.950 . S
H963 C972 0.950 . S
H964 C974 0.950 . S
H965 C976 0.950 . S
H966 C978 0.950 . S
H967 C979 0.950 . S
C968 H960 0.950 . S
C968 C969 1.386 . S
C968 C970 1.391 . S
C969 C968 1.386 . S
C969 C973 1.393 . S
C970 H962 0.950 . S
C970 C968 1.391 . S
C970 C971 1.400 . S
C971 C970 1.400 . S
C971 C972 1.398 . S
C971 C977 1.491 . S
C972 H963 0.950 . S
C972 C971 1.398 . S
C972 C973 1.391 . S
C973 H961 0.950 . S
C973 C969 1.393 . S
C973 C972 1.391 . S
C974 H964 0.950 . S
C974 C975 1.386 . S
C974 C976 1.391 1_554 S
C975 C974 1.386 . S
C975 C979 1.393 1_554 S
C976 H965 0.950 . S
C976 C974 1.391 1_556 S
C976 C977 1.400 . S
C977 C971 1.491 . S
C977 C976 1.400 . S
C977 C978 1.398 . S
C978 H966 0.950 . S
C978 C977 1.398 . S
C978 C979 1.391 . S
C979 H967 0.950 . S
C979 C975 1.393 1_556 S
C979 C978 1.391 . S
H980 C988 0.950 . S
H981 C993 0.950 . S
H982 C990 0.950 . S
H983 C992 0.950 . S
H984 C994 0.950 . S
H985 C996 0.950 . S
H986 C998 0.950 . S
H987 C999 0.950 . S
C988 H980 0.950 . S
C988 C989 1.386 . S
C988 C990 1.391 . S
C989 C988 1.386 . S
C989 C993 1.393 . S
C990 H982 0.950 . S
C990 C988 1.391 . S
C990 C991 1.400 . S
C991 C990 1.400 . S
C991 C992 1.398 . S
C991 C997 1.491 . S
C992 H983 0.950 . S
C992 C991 1.398 . S
C992 C993 1.391 . S
C993 H981 0.950 . S
C993 C989 1.393 . S
C993 C992 1.391 . S
C994 H984 0.950 . S
C994 C995 1.386 . S
C994 C996 1.391 1_554 S
C995 C994 1.386 . S
C995 C999 1.393 1_554 S
C996 H985 0.950 . S
C996 C994 1.391 1_556 S
C996 C997 1.400 . S
C997 C991 1.491 . S
C997 C996 1.400 . S
C997 C998 1.398 . S
C998 H986 0.950 . S
C998 C997 1.398 . S
C998 C999 1.391 . S
C999 H987 0.950 . S
C999 C995 1.393 1_556 S
C999 C998 1.391 . S
H1000 C1008 0.950 . S
H1001 C1013 0.950 . S
H1002 C1010 0.950 . S
H1003 C1012 0.950 . S
H1004 C1014 0.950 . S
H1005 C1016 0.950 . S
H1006 C1018 0.950 . S
H1007 C1019 0.950 . S
C1008 H1000 0.950 . S
C1008 C1009 1.386 . S
C1008 C1010 1.391 . S
C1009 C1008 1.386 . S
C1009 C1013 1.393 . S
C1010 H1002 0.950 . S
C1010 C1008 1.391 . S
C1010 C1011 1.400 . S
C1011 C1010 1.400 . S
C1011 C1012 1.398 . S
C1011 C1017 1.491 . S
C1012 H1003 0.950 . S
C1012 C1011 1.398 . S
C1012 C1013 1.391 . S
C1013 H1001 0.950 . S
C1013 C1009 1.393 . S
C1013 C1012 1.391 . S
C1014 H1004 0.950 . S
C1014 C1015 1.386 . S
C1014 C1016 1.391 1_554 S
C1015 C1014 1.386 . S
C1015 C1019 1.393 1_554 S
C1016 H1005 0.950 . S
C1016 C1014 1.391 1_556 S
C1016 C1017 1.400 . S
C1017 C1011 1.491 . S
C1017 C1016 1.400 . S
C1017 C1018 1.398 . S
C1018 H1006 0.950 . S
C1018 C1017 1.398 . S
C1018 C1019 1.391 . S
C1019 H1007 0.950 . S
C1019 C1015 1.393 1_556 S
C1019 C1018 1.391 . S
H1020 C1028 0.950 . S
H1021 C1033 0.950 . S
H1022 C1030 0.950 . S
H1023 C1032 0.950 . S
H1024 C1034 0.950 . S
H1025 C1036 0.950 . S
H1026 C1038 0.950 . S
H1027 C1039 0.950 . S
C1028 H1020 0.950 . S
C1028 C1029 1.386 . S
C1028 C1030 1.391 . S
C1029 C1028 1.386 . S
C1029 C1033 1.393 . S
C1030 H1022 0.950 . S
C1030 C1028 1.391 . S
C1030 C1031 1.400 . S
C1031 C1030 1.400 . S
C1031 C1032 1.398 . S
C1031 C1037 1.491 . S
C1032 H1023 0.950 . S
C1032 C1031 1.398 . S
C1032 C1033 1.391 . S
C1033 H1021 0.950 . S
C1033 C1029 1.393 . S
C1033 C1032 1.391 . S
C1034 H1024 0.950 . S
C1034 C1035 1.386 . S
C1034 C1036 1.391 . S
C1035 C1034 1.386 . S
C1035 C1039 1.393 . S
C1036 H1025 0.950 . S
C1036 C1034 1.391 . S
C1036 C1037 1.400 . S
C1037 C1031 1.491 . S
C1037 C1036 1.400 . S
C1037 C1038 1.398 . S
C1038 H1026 0.950 . S
C1038 C1037 1.398 . S
C1038 C1039 1.391 . S
C1039 H1027 0.950 . S
C1039 C1035 1.393 . S
C1039 C1038 1.391 . S
H1040 C1048 0.950 . S
H1041 C1053 0.950 . S
H1042 C1050 0.950 . S
H1043 C1052 0.950 . S
H1044 C1054 0.950 . S
H1045 C1056 0.950 . S
H1046 C1058 0.950 . S
H1047 C1059 0.950 . S
C1048 H1040 0.950 . S
C1048 C1049 1.386 . S
C1048 C1050 1.391 . S
C1049 C1048 1.386 . S
C1049 C1053 1.393 . S
C1050 H1042 0.950 . S
C1050 C1048 1.391 . S
C1050 C1051 1.400 . S
C1051 C1050 1.400 . S
C1051 C1052 1.398 . S
C1051 C1057 1.491 . S
C1052 H1043 0.950 . S
C1052 C1051 1.398 . S
C1052 C1053 1.391 . S
C1053 H1041 0.950 . S
C1053 C1049 1.393 . S
C1053 C1052 1.391 . S
C1054 H1044 0.950 . S
C1054 C1055 1.386 . S
C1054 C1056 1.391 . S
C1055 C1054 1.386 . S
C1055 C1059 1.393 . S
C1056 H1045 0.950 . S
C1056 C1054 1.391 . S
C1056 C1057 1.400 . S
C1057 C1051 1.491 . S
C1057 C1056 1.400 . S
C1057 C1058 1.398 . S
C1058 H1046 0.950 . S
C1058 C1057 1.398 . S
C1058 C1059 1.391 . S
C1059 H1047 0.950 . S
C1059 C1055 1.393 . S
C1059 C1058 1.391 . S
H1060 C1068 0.950 . S
H1061 C1073 0.950 . S
H1062 C1070 0.950 . S
H1063 C1072 0.950 . S
H1064 C1074 0.950 . S
H1065 C1076 0.950 . S
H1066 C1078 0.950 . S
H1067 C1079 0.950 . S
C1068 H1060 0.950 . S
C1068 C1069 1.386 . S
C1068 C1070 1.391 . S
C1069 C1068 1.386 . S
C1069 C1073 1.393 . S
C1070 H1062 0.950 . S
C1070 C1068 1.391 . S
C1070 C1071 1.400 . S
C1071 C1070 1.400 . S
C1071 C1072 1.398 . S
C1071 C1077 1.491 . S
C1072 H1063 0.950 . S
C1072 C1071 1.398 . S
C1072 C1073 1.391 . S
C1073 H1061 0.950 . S
C1073 C1069 1.393 . S
C1073 C1072 1.391 . S
C1074 H1064 0.950 . S
C1074 C1075 1.386 . S
C1074 C1076 1.391 . S
C1075 C1074 1.386 . S
C1075 C1079 1.393 . S
C1076 H1065 0.950 . S
C1076 C1074 1.391 . S
C1076 C1077 1.400 . S
C1077 C1071 1.491 . S
C1077 C1076 1.400 . S
C1077 C1078 1.398 . S
C1078 H1066 0.950 . S
C1078 C1077 1.398 . S
C1078 C1079 1.391 . S
C1079 H1067 0.950 . S
C1079 C1075 1.393 . S
C1079 C1078 1.391 . S
H1080 C1088 0.950 . S
H1081 C1093 0.950 . S
H1082 C1090 0.950 . S
H1083 C1092 0.950 . S
H1084 C1094 0.950 . S
H1085 C1096 0.950 1_565 S
H1086 C1098 0.950 . S
H1087 C1099 0.950 . S
C1088 H1080 0.950 . S
C1088 C1089 1.386 . S
C1088 C1090 1.391 . S
C1089 C1088 1.386 . S
C1089 C1093 1.393 . S
C1090 H1082 0.950 . S
C1090 C1088 1.391 . S
C1090 C1091 1.400 . S
C1091 C1090 1.400 . S
C1091 C1092 1.398 . S
C1091 C1097 1.491 1_565 S
C1092 H1083 0.950 . S
C1092 C1091 1.398 . S
C1092 C1093 1.391 . S
C1093 H1081 0.950 . S
C1093 C1089 1.393 . S
C1093 C1092 1.391 . S
C1094 H1084 0.950 . S
C1094 C1095 1.386 . S
C1094 C1096 1.391 . S
C1095 C1094 1.386 . S
C1095 C1099 1.393 . S
C1096 H1085 0.950 1_545 S
C1096 C1094 1.391 . S
C1096 C1097 1.400 . S
C1097 C1091 1.491 1_545 S
C1097 C1096 1.400 . S
C1097 C1098 1.398 . S
C1098 H1086 0.950 . S
C1098 C1097 1.398 . S
C1098 C1099 1.391 . S
C1099 H1087 0.950 . S
C1099 C1095 1.393 . S
C1099 C1098 1.391 . S
H1100 C1108 0.950 . S
H1101 C1113 0.950 1_554 S
H1102 C1110 0.950 . S
H1103 C1112 0.950 1_455 S
H1104 C1114 0.950 . S
H1105 C1116 0.950 . S
H1106 C1118 0.950 . S
H1107 C1119 0.950 . S
C1108 H1100 0.950 . S
C1108 C1109 1.386 . S
C1108 C1110 1.391 . S
C1109 C1108 1.386 . S
C1109 C1113 1.393 . S
C1110 H1102 0.950 . S
C1110 C1108 1.391 . S
C1110 C1111 1.400 . S
C1111 C1110 1.400 . S
C1111 C1112 1.398 . S
C1111 C1117 1.491 1_655 S
C1112 H1103 0.950 1_655 S
C1112 C1111 1.398 . S
C1112 C1113 1.391 . S
C1113 H1101 0.950 1_556 S
C1113 C1109 1.393 . S
C1113 C1112 1.391 . S
C1114 H1104 0.950 . S
C1114 C1115 1.386 . S
C1114 C1116 1.391 . S
C1115 C1114 1.386 . S
C1115 C1119 1.393 . S
C1116 H1105 0.950 . S
C1116 C1114 1.391 . S
C1116 C1117 1.400 . S
C1117 C1111 1.491 1_455 S
C1117 C1116 1.400 . S
C1117 C1118 1.398 . S
C1118 H1106 0.950 . S
C1118 C1117 1.398 . S
C1118 C1119 1.391 . S
C1119 H1107 0.950 . S
C1119 C1115 1.393 . S
C1119 C1118 1.391 . S
H1120 C1128 0.950 . S
H1121 C1133 0.950 . S
H1122 C1130 0.950 . S
H1123 C1132 0.950 . S
H1124 C1134 0.950 . S
H1125 C1136 0.950 . S
H1126 C1138 0.950 . S
H1127 C1139 0.950 . S
C1128 H1120 0.950 . S
C1128 C1129 1.386 . S
C1128 C1130 1.391 . S
C1129 C1128 1.386 . S
C1129 C1133 1.393 . S
C1130 H1122 0.950 . S
C1130 C1128 1.391 . S
C1130 C1131 1.400 . S
C1131 C1130 1.400 . S
C1131 C1132 1.398 . S
C1131 C1137 1.491 . S
C1132 H1123 0.950 . S
C1132 C1131 1.398 . S
C1132 C1133 1.391 . S
C1133 H1121 0.950 . S
C1133 C1129 1.393 . S
C1133 C1132 1.391 . S
C1134 H1124 0.950 . S
C1134 C1135 1.386 . S
C1134 C1136 1.391 . S
C1135 C1134 1.386 . S
C1135 C1139 1.393 . S
C1136 H1125 0.950 . S
C1136 C1134 1.391 . S
C1136 C1137 1.400 . S
C1137 C1131 1.491 . S
C1137 C1136 1.400 . S
C1137 C1138 1.398 . S
C1138 H1126 0.950 . S
C1138 C1137 1.398 . S
C1138 C1139 1.391 . S
C1139 H1127 0.950 . S
C1139 C1135 1.393 . S
C1139 C1138 1.391 . S
H1140 C1148 0.950 . S
H1141 C1153 0.950 . S
H1142 C1150 0.950 1_455 S
H1143 C1152 0.950 . S
H1144 C1154 0.950 . S
H1145 C1156 0.950 . S
H1146 C1158 0.950 . S
H1147 C1159 0.950 . S
C1148 H1140 0.950 . S
C1148 C1149 1.386 . S
C1148 C1150 1.391 . S
C1149 C1148 1.386 . S
C1149 C1153 1.393 . S
C1150 H1142 0.950 1_655 S
C1150 C1148 1.391 . S
C1150 C1151 1.400 . S
C1151 C1150 1.400 . S
C1151 C1152 1.398 . S
C1151 C1157 1.491 1_655 S
C1152 H1143 0.950 . S
C1152 C1151 1.398 . S
C1152 C1153 1.391 . S
C1153 H1141 0.950 . S
C1153 C1149 1.393 . S
C1153 C1152 1.391 . S
C1154 H1144 0.950 . S
C1154 C1155 1.386 . S
C1154 C1156 1.391 . S
C1155 C1154 1.386 . S
C1155 C1159 1.393 . S
C1156 H1145 0.950 . S
C1156 C1154 1.391 . S
C1156 C1157 1.400 . S
C1157 C1151 1.491 1_455 S
C1157 C1156 1.400 . S
C1157 C1158 1.398 . S
C1158 H1146 0.950 . S
C1158 C1157 1.398 . S
C1158 C1159 1.391 . S
C1159 H1147 0.950 . S
C1159 C1155 1.393 . S
C1159 C1158 1.391 . S
H1160 C1168 0.950 . S
H1161 C1173 0.950 . S
H1162 C1170 0.950 . S
H1163 C1172 0.950 . S
H1164 C1174 0.950 . S
H1165 C1176 0.950 . S
H1166 C1178 0.950 . S
H1167 C1179 0.950 . S
C1168 H1160 0.950 . S
C1168 C1169 1.386 . S
C1168 C1170 1.391 . S
C1169 C1168 1.386 . S
C1169 C1173 1.393 . S
C1170 H1162 0.950 . S
C1170 C1168 1.391 . S
C1170 C1171 1.400 . S
C1171 C1170 1.400 . S
C1171 C1172 1.398 . S
C1171 C1177 1.491 . S
C1172 H1163 0.950 . S
C1172 C1171 1.398 . S
C1172 C1173 1.391 . S
C1173 H1161 0.950 . S
C1173 C1169 1.393 . S
C1173 C1172 1.391 . S
C1174 H1164 0.950 . S
C1174 C1175 1.386 . S
C1174 C1176 1.391 . S
C1175 C1174 1.386 . S
C1175 C1179 1.393 . S
C1176 H1165 0.950 . S
C1176 C1174 1.391 . S
C1176 C1177 1.400 . S
C1177 C1171 1.491 . S
C1177 C1176 1.400 . S
C1177 C1178 1.398 . S
C1178 H1166 0.950 . S
C1178 C1177 1.398 . S
C1178 C1179 1.391 . S
C1179 H1167 0.950 . S
C1179 C1175 1.393 . S
C1179 C1178 1.391 . S
H1180 C1188 0.950 . S
H1181 C1193 0.950 . S
H1182 C1190 0.950 . S
H1183 C1192 0.950 1_545 S
H1184 C1194 0.950 . S
H1185 C1196 0.950 . S
H1186 C1198 0.950 1_565 S
H1187 C1199 0.950 . S
C1188 H1180 0.950 . S
C1188 C1189 1.386 . S
C1188 C1190 1.391 . S
C1189 C1188 1.386 . S
C1189 C1193 1.393 . S
C1190 H1182 0.950 . S
C1190 C1188 1.391 . S
C1190 C1191 1.400 . S
C1191 C1190 1.400 . S
C1191 C1192 1.398 . S
C1191 C1197 1.491 1_565 S
C1192 H1183 0.950 1_565 S
C1192 C1191 1.398 . S
C1192 C1193 1.391 . S
C1193 H1181 0.950 . S
C1193 C1189 1.393 . S
C1193 C1192 1.391 . S
C1194 H1184 0.950 . S
C1194 C1195 1.386 . S
C1194 C1196 1.391 . S
C1195 C1194 1.386 . S
C1195 C1199 1.393 . S
C1196 H1185 0.950 . S
C1196 C1194 1.391 . S
C1196 C1197 1.400 . S
C1197 C1191 1.491 1_545 S
C1197 C1196 1.400 . S
C1197 C1198 1.398 . S
C1198 H1186 0.950 1_545 S
C1198 C1197 1.398 . S
C1198 C1199 1.391 . S
C1199 H1187 0.950 . S
C1199 C1195 1.393 . S
C1199 C1198 1.391 . S
H1200 C1208 0.950 . S
H1201 C1213 0.950 . S
H1202 C1210 0.950 . S
H1203 C1212 0.950 . S
H1204 C1214 0.950 . S
H1205 C1216 0.950 . S
H1206 C1218 0.950 . S
H1207 C1219 0.950 . S
C1208 H1200 0.950 . S
C1208 C1209 1.386 . S
C1208 C1210 1.391 . S
C1209 C1208 1.386 . S
C1209 C1213 1.393 . S
C1210 H1202 0.950 . S
C1210 C1208 1.391 . S
C1210 C1211 1.400 . S
C1211 C1210 1.400 . S
C1211 C1212 1.398 . S
C1211 C1217 1.491 . S
C1212 H1203 0.950 . S
C1212 C1211 1.398 . S
C1212 C1213 1.391 . S
C1213 H1201 0.950 . S
C1213 C1209 1.393 . S
C1213 C1212 1.391 . S
C1214 H1204 0.950 . S
C1214 C1215 1.386 . S
C1214 C1216 1.391 . S
C1215 C1214 1.386 . S
C1215 C1219 1.393 . S
C1216 H1205 0.950 . S
C1216 C1214 1.391 . S
C1216 C1217 1.400 . S
C1217 C1211 1.491 . S
C1217 C1216 1.400 . S
C1217 C1218 1.398 . S
C1218 H1206 0.950 . S
C1218 C1217 1.398 . S
C1218 C1219 1.391 . S
C1219 H1207 0.950 . S
C1219 C1215 1.393 . S
C1219 C1218 1.391 . S
H1220 C1228 0.950 . S
H1221 C1233 0.950 . S
H1222 C1230 0.950 . S
H1223 C1232 0.950 . S
H1224 C1234 0.950 . S
H1225 C1236 0.950 . S
H1226 C1238 0.950 . S
H1227 C1239 0.950 . S
C1228 H1220 0.950 . S
C1228 C1229 1.386 . S
C1228 C1230 1.391 . S
C1229 C1228 1.386 . S
C1229 C1233 1.393 . S
C1230 H1222 0.950 . S
C1230 C1228 1.391 . S
C1230 C1231 1.400 . S
C1231 C1230 1.400 . S
C1231 C1232 1.398 . S
C1231 C1237 1.491 . S
C1232 H1223 0.950 . S
C1232 C1231 1.398 . S
C1232 C1233 1.391 . S
C1233 H1221 0.950 . S
C1233 C1229 1.393 . S
C1233 C1232 1.391 . S
C1234 H1224 0.950 . S
C1234 C1235 1.386 . S
C1234 C1236 1.391 . S
C1235 C1234 1.386 . S
C1235 C1239 1.393 . S
C1236 H1225 0.950 . S
C1236 C1234 1.391 . S
C1236 C1237 1.400 . S
C1237 C1231 1.491 . S
C1237 C1236 1.400 . S
C1237 C1238 1.398 . S
C1238 H1226 0.950 . S
C1238 C1237 1.398 . S
C1238 C1239 1.391 . S
C1239 H1227 0.950 . S
C1239 C1235 1.393 . S
C1239 C1238 1.391 . S
H1240 C1248 0.950 . S
H1241 C1253 0.950 . S
H1242 C1250 0.950 . S
H1243 C1252 0.950 . S
H1244 C1254 0.950 . S
H1245 C1256 0.950 . S
H1246 C1258 0.950 . S
H1247 C1259 0.950 . S
C1248 H1240 0.950 . S
C1248 C1249 1.386 . S
C1248 C1250 1.391 . S
C1249 C1248 1.386 . S
C1249 C1253 1.393 . S
C1250 H1242 0.950 . S
C1250 C1248 1.391 . S
C1250 C1251 1.400 . S
C1251 C1250 1.400 . S
C1251 C1252 1.398 . S
C1251 C1257 1.491 . S
C1252 H1243 0.950 . S
C1252 C1251 1.398 . S
C1252 C1253 1.391 . S
C1253 H1241 0.950 . S
C1253 C1249 1.393 . S
C1253 C1252 1.391 . S
C1254 H1244 0.950 . S
C1254 C1255 1.386 . S
C1254 C1256 1.391 . S
C1255 C1254 1.386 . S
C1255 C1259 1.393 . S
C1256 H1245 0.950 . S
C1256 C1254 1.391 . S
C1256 C1257 1.400 . S
C1257 C1251 1.491 . S
C1257 C1256 1.400 . S
C1257 C1258 1.398 . S
C1258 H1246 0.950 . S
C1258 C1257 1.398 . S
C1258 C1259 1.391 . S
C1259 H1247 0.950 . S
C1259 C1255 1.393 . S
C1259 C1258 1.391 . S
H1260 C1268 0.950 1_545 S
H1261 C1273 0.950 . S
H1262 C1270 0.950 . S
H1263 C1272 0.950 . S
H1264 C1274 0.950 . S
H1265 C1276 0.950 . S
H1266 C1278 0.950 . S
H1267 C1279 0.950 . S
C1268 H1260 0.950 1_565 S
C1268 C1269 1.386 . S
C1268 C1270 1.391 . S
C1269 C1268 1.386 . S
C1269 C1273 1.393 . S
C1270 H1262 0.950 . S
C1270 C1268 1.391 . S
C1270 C1271 1.400 . S
C1271 C1270 1.400 . S
C1271 C1272 1.398 . S
C1271 C1277 1.491 . S
C1272 H1263 0.950 . S
C1272 C1271 1.398 . S
C1272 C1273 1.391 . S
C1273 H1261 0.950 . S
C1273 C1269 1.393 . S
C1273 C1272 1.391 . S
C1274 H1264 0.950 . S
C1274 C1275 1.386 . S
C1274 C1276 1.391 . S
C1275 C1274 1.386 . S
C1275 C1279 1.393 . S
C1276 H1265 0.950 . S
C1276 C1274 1.391 . S
C1276 C1277 1.400 . S
C1277 C1271 1.491 . S
C1277 C1276 1.400 . S
C1277 C1278 1.398 . S
C1278 H1266 0.950 . S
C1278 C1277 1.398 . S
C1278 C1279 1.391 . S
C1279 H1267 0.950 . S
C1279 C1275 1.393 . S
C1279 C1278 1.391 . S
H1280 C1288 0.950 . S
H1281 C1293 0.979 . S
H1282 C1290 0.950 . S
H1283 C1292 0.950 . S
H1284 C1294 0.950 . S
H1285 C1296 0.950 . S
H1286 C1298 0.950 . S
H1287 C1299 0.950 . S
C1288 H1280 0.950 . S
C1288 C1289 1.386 . S
C1288 C1290 1.391 . S
C1289 C1288 1.386 . S
C1289 C1293 1.393 . S
C1290 H1282 0.950 . S
C1290 C1288 1.391 . S
C1290 C1291 1.400 . S
C1291 C1290 1.400 . S
C1291 C1292 1.398 . S
C1291 C1297 1.491 . S
C1292 H1283 0.950 . S
C1292 C1291 1.398 . S
C1292 C1293 1.391 . S
C1293 H1281 0.979 . S
C1293 C1289 1.393 . S
C1293 C1292 1.391 . S
C1294 H1284 0.950 . S
C1294 C1295 1.386 . S
C1294 C1296 1.391 . S
C1295 C1294 1.386 . S
C1295 C1299 1.393 . S
C1296 H1285 0.950 . S
C1296 C1294 1.391 . S
C1296 C1297 1.400 . S
C1297 C1291 1.491 . S
C1297 C1296 1.400 . S
C1297 C1298 1.398 . S
C1298 H1286 0.950 . S
C1298 C1297 1.398 . S
C1298 C1299 1.391 . S
C1299 H1287 0.950 . S
C1299 C1295 1.393 . S
C1299 C1298 1.391 . S
H1300 C1308 0.950 . S
H1301 C1313 0.950 . S
H1302 C1310 0.950 . S
H1303 C1312 0.950 . S
H1304 C1314 0.950 . S
H1305 C1316 0.950 . S
H1306 C1318 0.950 . S
H1307 C1319 0.950 . S
C1308 H1300 0.950 . S
C1308 C1309 1.386 . S
C1308 C1310 1.391 . S
C1309 C1308 1.386 . S
C1309 C1313 1.393 . S
C1310 H1302 0.950 . S
C1310 C1308 1.391 . S
C1310 C1311 1.400 . S
C1311 C1310 1.400 . S
C1311 C1312 1.398 . S
C1311 C1317 1.491 . S
C1312 H1303 0.950 . S
C1312 C1311 1.398 . S
C1312 C1313 1.391 . S
C1313 H1301 0.950 . S
C1313 C1309 1.393 . S
C1313 C1312 1.391 . S
C1314 H1304 0.950 . S
C1314 C1315 1.386 . S
C1314 C1316 1.391 . S
C1315 C1314 1.386 . S
C1315 C1319 1.393 . S
C1316 H1305 0.950 . S
C1316 C1314 1.391 . S
C1316 C1317 1.400 . S
C1317 C1311 1.491 . S
C1317 C1316 1.400 . S
C1317 C1318 1.398 . S
C1318 H1306 0.950 . S
C1318 C1317 1.398 . S
C1318 C1319 1.391 . S
C1319 H1307 0.950 . S
C1319 C1315 1.393 . S
C1319 C1318 1.391 . S
H1320 C1328 0.950 . S
H1321 C1333 0.950 . S
H1322 C1330 0.950 . S
H1323 C1332 0.950 . S
H1324 C1334 0.950 . S
H1325 C1336 0.950 . S
H1326 C1338 0.950 . S
H1327 C1339 0.950 . S
C1328 H1320 0.950 . S
C1328 C1329 1.386 . S
C1328 C1330 1.391 . S
C1329 C1328 1.386 . S
C1329 C1333 1.393 . S
C1330 H1322 0.950 . S
C1330 C1328 1.391 . S
C1330 C1331 1.400 . S
C1331 C1330 1.400 . S
C1331 C1332 1.398 . S
C1331 C1337 1.491 . S
C1332 H1323 0.950 . S
C1332 C1331 1.398 . S
C1332 C1333 1.391 . S
C1333 H1321 0.950 . S
C1333 C1329 1.393 . S
C1333 C1332 1.391 . S
C1334 H1324 0.950 . S
C1334 C1335 1.386 . S
C1334 C1336 1.391 . S
C1335 C1334 1.386 . S
C1335 C1339 1.393 . S
C1336 H1325 0.950 . S
C1336 C1334 1.391 . S
C1336 C1337 1.400 . S
C1337 C1331 1.491 . S
C1337 C1336 1.400 . S
C1337 C1338 1.398 . S
C1338 H1326 0.950 . S
C1338 C1337 1.398 . S
C1338 C1339 1.391 . S
C1339 H1327 0.950 . S
C1339 C1335 1.393 . S
C1339 C1338 1.391 . S
H1340 C1348 0.950 . S
H1341 C1353 0.950 . S
H1342 C1350 0.950 . S
H1343 C1352 0.950 . S
H1344 C1354 0.950 . S
H1345 C1356 0.950 . S
H1346 C1358 0.950 . S
H1347 C1359 0.950 . S
C1348 H1340 0.950 . S
C1348 C1349 1.386 . S
C1348 C1350 1.391 . S
C1349 C1348 1.386 . S
C1349 C1353 1.393 . S
C1350 H1342 0.950 . S
C1350 C1348 1.391 . S
C1350 C1351 1.400 . S
C1351 C1350 1.400 . S
C1351 C1352 1.398 . S
C1351 C1357 1.491 . S
C1352 H1343 0.950 . S
C1352 C1351 1.398 . S
C1352 C1353 1.391 . S
C1353 H1341 0.950 . S
C1353 C1349 1.393 . S
C1353 C1352 1.391 . S
C1354 H1344 0.950 . S
C1354 C1355 1.386 . S
C1354 C1356 1.391 . S
C1355 C1354 1.386 . S
C1355 C1359 1.393 . S
C1356 H1345 0.950 . S
C1356 C1354 1.391 . S
C1356 C1357 1.400 . S
C1357 C1351 1.491 . S
C1357 C1356 1.400 . S
C1357 C1358 1.398 . S
C1358 H1346 0.950 . S
C1358 C1357 1.398 . S
C1358 C1359 1.391 . S
C1359 H1347 0.950 . S
C1359 C1355 1.393 . S
C1359 C1358 1.391 . S
H1360 C1368 0.950 . S
H1361 C1373 0.950 . S
H1362 C1370 0.950 . S
H1363 C1372 0.950 . S
H1364 C1374 0.950 . S
H1365 C1376 0.950 . S
H1366 C1378 0.950 . S
H1367 C1379 0.950 . S
C1368 H1360 0.950 . S
C1368 C1369 1.386 . S
C1368 C1370 1.391 . S
C1369 C1368 1.386 . S
C1369 C1373 1.393 . S
C1370 H1362 0.950 . S
C1370 C1368 1.391 . S
C1370 C1371 1.400 . S
C1371 C1370 1.400 . S
C1371 C1372 1.398 . S
C1371 C1377 1.491 . S
C1372 H1363 0.950 . S
C1372 C1371 1.398 . S
C1372 C1373 1.391 . S
C1373 H1361 0.950 . S
C1373 C1369 1.393 . S
C1373 C1372 1.391 . S
C1374 H1364 0.950 . S
C1374 C1375 1.386 . S
C1374 C1376 1.391 . S
C1375 C1374 1.386 . S
C1375 C1379 1.393 . S
C1376 H1365 0.950 . S
C1376 C1374 1.391 . S
C1376 C1377 1.400 . S
C1377 C1371 1.491 . S
C1377 C1376 1.400 . S
C1377 C1378 1.398 . S
C1378 H1366 0.950 . S
C1378 C1377 1.398 . S
C1378 C1379 1.391 . S
C1379 H1367 0.950 . S
C1379 C1375 1.393 . S
C1379 C1378 1.391 . S
H1380 C1388 0.950 . S
H1381 C1393 0.950 . S
H1382 C1390 0.950 . S
H1383 C1392 0.950 . S
H1384 C1394 0.950 . S
H1385 C1396 0.950 . S
H1386 C1398 0.950 . S
H1387 C1399 0.950 . S
C1388 H1380 0.950 . S
C1388 C1389 1.386 . S
C1388 C1390 1.391 . S
C1389 C1388 1.386 . S
C1389 C1393 1.393 . S
C1390 H1382 0.950 . S
C1390 C1388 1.391 . S
C1390 C1391 1.400 . S
C1391 C1390 1.400 . S
C1391 C1392 1.398 . S
C1391 C1397 1.491 . S
C1392 H1383 0.950 . S
C1392 C1391 1.398 . S
C1392 C1393 1.391 . S
C1393 H1381 0.950 . S
C1393 C1389 1.393 . S
C1393 C1392 1.391 . S
C1394 H1384 0.950 . S
C1394 C1395 1.386 . S
C1394 C1396 1.391 . S
C1395 C1394 1.386 . S
C1395 C1399 1.393 . S
C1396 H1385 0.950 . S
C1396 C1394 1.391 . S
C1396 C1397 1.400 . S
C1397 C1391 1.491 . S
C1397 C1396 1.400 . S
C1397 C1398 1.398 . S
C1398 H1386 0.950 . S
C1398 C1397 1.398 . S
C1398 C1399 1.391 . S
C1399 H1387 0.950 . S
C1399 C1395 1.393 . S
C1399 C1398 1.391 . S
H1400 C1408 0.950 . S
H1401 C1413 0.950 . S
H1402 C1410 0.950 . S
H1403 C1412 0.950 . S
H1404 C1414 0.950 . S
H1405 C1416 0.950 . S
H1406 C1418 0.950 . S
H1407 C1419 0.950 . S
C1408 H1400 0.950 . S
C1408 C1409 1.386 . S
C1408 C1410 1.391 . S
C1409 C1408 1.386 . S
C1409 C1413 1.393 . S
C1410 H1402 0.950 . S
C1410 C1408 1.391 . S
C1410 C1411 1.400 . S
C1411 C1410 1.400 . S
C1411 C1412 1.398 . S
C1411 C1417 1.491 . S
C1412 H1403 0.950 . S
C1412 C1411 1.398 . S
C1412 C1413 1.391 . S
C1413 H1401 0.950 . S
C1413 C1409 1.393 . S
C1413 C1412 1.391 . S
C1414 H1404 0.950 . S
C1414 C1415 1.386 . S
C1414 C1416 1.391 . S
C1415 C1414 1.386 . S
C1415 C1419 1.393 . S
C1416 H1405 0.950 . S
C1416 C1414 1.391 . S
C1416 C1417 1.400 . S
C1417 C1411 1.491 . S
C1417 C1416 1.400 . S
C1417 C1418 1.398 . S
C1418 H1406 0.950 . S
C1418 C1417 1.398 . S
C1418 C1419 1.391 . S
C1419 H1407 0.950 . S
C1419 C1415 1.393 . S
C1419 C1418 1.391 . S
H1420 C1428 0.950 . S
H1421 C1433 0.950 . S
H1422 C1430 0.950 . S
H1423 C1432 0.950 . S
H1424 C1434 0.950 . S
H1425 C1436 0.950 . S
H1426 C1438 0.950 . S
H1427 C1439 0.950 . S
C1428 H1420 0.950 . S
C1428 C1429 1.386 . S
C1428 C1430 1.391 . S
C1429 C1428 1.386 . S
C1429 C1433 1.393 . S
C1430 H1422 0.950 . S
C1430 C1428 1.391 . S
C1430 C1431 1.400 . S
C1431 C1430 1.400 . S
C1431 C1432 1.398 . S
C1431 C1437 1.491 . S
C1432 H1423 0.950 . S
C1432 C1431 1.398 . S
C1432 C1433 1.391 . S
C1433 H1421 0.950 . S
C1433 C1429 1.393 . S
C1433 C1432 1.391 . S
C1434 H1424 0.950 . S
C1434 C1435 1.386 . S
C1434 C1436 1.391 . S
C1435 C1434 1.386 . S
C1435 C1439 1.393 . S
C1436 H1425 0.950 . S
C1436 C1434 1.391 . S
C1436 C1437 1.400 . S
C1437 C1431 1.491 . S
C1437 C1436 1.400 . S
C1437 C1438 1.398 . S
C1438 H1426 0.950 . S
C1438 C1437 1.398 . S
C1438 C1439 1.391 . S
C1439 H1427 0.950 . S
C1439 C1435 1.393 . S
C1439 C1438 1.391 . S
C369 C4 0.791 . S
C375 C58 0.809 . S
C389 C18 0.806 . S
C395 C24 0.795 . S
C409 C44 0.839 . S
C415 C38 0.801 . S
C429 C99 0.841 . S
C435 C62 0.786 . S
C449 C119 0.840 . S
C455 C82 0.808 . S
C469 C102 0.837 . S
C475 C79 0.799 . S
C489 C178 0.833 . S
C495 C124 0.821 . S
C509 C144 0.782 . S
C515 C138 0.819 . S
C529 C158 0.801 . S
C535 C164 0.839 . S
C549 C182 0.801 . S
C555 C219 0.842 . S
C569 C239 0.797 . S
C575 C202 0.834 . S
C589 C222 0.834 . S
C595 C199 0.823 . S
C609 C298 0.813 . S
C615 C244 0.839 . S
C629 C264 0.777 . S
C635 C258 0.830 . S
C649 C284 0.795 . S
C655 C278 0.842 . S
C669 C302 0.777 . S
C675 C339 0.834 . S
C689 C359 0.841 . S
C695 C322 0.804 . S
C709 C319 0.817 . S
C715 C342 0.838 . S
C729 C109 1.384 . S
C735 C9 1.466 . S
C749 C69 1.404 . S
C755 C29 1.466 . S
C769 C89 1.396 . S
C775 C49 1.464 . S
C789 C32 1.374 . S
C795 C72 1.467 . S
C809 C92 1.469 . S
C815 C52 1.377 . S
C829 C12 1.404 . S
C835 C112 1.466 . S
C849 C129 1.465 . S
C855 C229 1.404 . S
C869 C149 1.469 . S
C875 C189 1.382 . S
C889 C209 1.386 . S
C895 C169 1.469 . S
C909 C192 1.468 . S
C915 C152 1.393 . S
C929 C212 1.466 . S
C935 C172 1.381 . S
C949 C232 1.465 . S
C955 C132 1.388 . S
C969 C249 1.469 . S
C975 C349 1.390 . S
C989 C269 1.469 . S
C995 C309 1.381 . S
C1009 C289 1.467 . S
C1015 C329 1.399 . S
C1029 C312 1.468 . S
C1035 C272 1.372 . S
C1049 C332 1.469 . S
C1055 C292 1.388 . S
C1069 C352 1.465 . S
C1075 C252 1.405 . S
C1089 C204 2.017 . S
C1095 C19 2.219 . S
C1109 C39 2.220 . S
C1115 C224 2.039 . S
C1129 C184 2.017 . S
C1135 C59 2.219 . S
C1149 C78 2.219 . S
C1155 C162 2.017 . S
C1169 C98 2.223 . S
C1175 C122 2.040 . S
C1189 C142 2.018 . S
C1195 C118 2.218 . S
C1209 C139 2.223 . S
C1215 C324 2.033 1_455 S
C1229 C159 2.218 . S
C1235 C344 2.029 . S
C1249 C179 2.223 . S
C1255 C304 2.031 1_565 S
C1269 C282 2.045 1_565 S
C1275 C198 2.223 . S
C1289 C242 2.021 1_455 S
C1295 C218 2.221 . S
C1309 C262 2.033 . S
C1315 C238 2.219 . S
C1329 C84 2.017 . S
C1335 C259 2.218 . S
C1349 C279 2.220 . S
C1355 C104 2.037 . S
C1369 C64 2.019 . S
C1375 C299 2.220 . S
C1389 C318 2.220 . S
C1395 C42 2.040 . S
C1409 C338 2.218 . S
C1415 C2 2.028 . S
C1429 C22 2.023 . S
C1435 C358 2.218 . S
