# Generated by pormake.
# Topology rob, (6)-cn, num edge types: 1
# Building blocks:
#     Node 0, Type 0, BuildingBlock: KUMBUR_clean_sbu_0, # of connection points: 6
#     Node 1, Type 0, BuildingBlock: KUMBUR_clean_sbu_0, # of connection points: 6
#     Node 2, Type 0, BuildingBlock: KUMBUR_clean_sbu_0, # of connection points: 6
#     Node 3, Type 0, BuildingBlock: KUMBUR_clean_sbu_0, # of connection points: 6
#     Edge 4, Type (0, 0), BuildingBlock: ZUJKAS_clean_linker_0, # of connection points: 2
#     Edge 5, Type (0, 0), BuildingBlock: ZUJKAS_clean_linker_0, # of connection points: 2
#     Edge 6, Type (0, 0), BuildingBlock: ZUJKAS_clean_linker_0, # of connection points: 2
#     Edge 7, Type (0, 0), BuildingBlock: ZUJKAS_clean_linker_0, # of connection points: 2
#     Edge 8, Type (0, 0), BuildingBlock: ZUJKAS_clean_linker_0, # of connection points: 2
#     Edge 9, Type (0, 0), BuildingBlock: ZUJKAS_clean_linker_0, # of connection points: 2
#     Edge 10, Type (0, 0), BuildingBlock: ZUJKAS_clean_linker_0, # of connection points: 2
#     Edge 11, Type (0, 0), BuildingBlock: ZUJKAS_clean_linker_0, # of connection points: 2
#     Edge 12, Type (0, 0), BuildingBlock: ZUJKAS_clean_linker_0, # of connection points: 2
#     Edge 13, Type (0, 0), BuildingBlock: ZUJKAS_clean_linker_0, # of connection points: 2
#     Edge 14, Type (0, 0), BuildingBlock: ZUJKAS_clean_linker_0, # of connection points: 2
#     Edge 15, Type (0, 0), BuildingBlock: ZUJKAS_clean_linker_0, # of connection points: 2
# Relax obj value: 0.032
# Max RMSD: 0.149
# Mean RMSD: 0.149
data_MOF--net-rob--node1-KUMBUR_clean_sbu_0--edge1-ZUJKAS_clean_linker_0
_symmetry_space_group_name_H-M    P1
_symmetry_Int_Tables_number       1
_symmetry_cell_setting            triclinic
loop_
_symmetry_equiv_pos_as_xyz
'x, y, z'
_cell_length_a     19.95845
_cell_length_b     33.923906
_cell_length_c     41.524608
_cell_angle_alpha  118.22768
_cell_angle_beta   90.019045
_cell_angle_gamma 89.974579
loop_
_atom_site_label
_atom_site_type_symbol
_atom_site_fract_x
_atom_site_fract_y
_atom_site_fract_z
_atom_type_partial_charge
Tb0 Tb 0.187 0.29768 0.05072 0.0
C1 C 0.36948 0.13233 0.98101 0.0
C2 C 0.46703 0.15399 0.0201 0.0
C3 C 0.43415 0.07575 0.98746 0.0
C4 C 0.41167 0.16516 1.0049 0.0
C5 C 0.38086 0.08706 0.97127 0.0
C6 C 0.47717 0.10921 1.01191 0.0
C7 C 0.28954 0.06753 0.92823 0.0
N8 N 0.31897 0.14473 0.96592 0.0
C9 C 0.28049 0.11293 0.93875 0.0
C10 C 0.33943 0.05455 0.94488 0.0
Tb11 Tb 0.30609 0.21992 0.98581 0.0
N12 N 0.40045 0.2078 1.01164 0.0
C13 C 0.4462 0.24048 0.03128 0.0
C14 C 0.51155 0.18791 0.04212 0.0
C15 C 0.50161 0.23122 0.04725 0.0
H16 H 0.24152 0.12253 0.92582 0.0
H17 H 0.53652 0.25756 0.0636 0.0
H18 H 0.51905 0.09999 0.02357 0.0
H19 H 0.25797 0.04261 0.90732 0.0
H20 H 0.43946 0.27423 0.0358 0.0
H21 H 0.95626 0.25944 0.97314 0.0
H22 H 0.55459 0.18079 0.05444 0.0
H23 H 0.25145 0.39524 0.11042 0.0
H24 H 0.0536 0.24305 1.00093 0.0
H25 H 0.2347 0.47509 0.12872 0.0
H26 H 0.44345 0.0412 0.98062 0.0
H27 H 0.93783 0.33609 0.9821 0.0
H28 H 0.97315 0.41694 1.01272 0.0
H29 H 0.34648 0.01937 0.93661 0.0
H30 H 0.04874 0.47592 0.05546 0.0
N31 N 0.09241 0.30954 0.0249 0.0
C32 C 0.04671 0.27676 1.00537 0.0
C33 C 0.981 0.32911 0.99441 0.0
C34 C 0.02548 0.36312 1.01632 0.0
C35 C 0.99113 0.28586 0.9894 0.0
C36 C 0.081 0.35211 0.03152 0.0
H37 H 0.14588 0.49803 0.09939 0.0
N38 N 0.17386 0.3728 0.0704 0.0
C39 C 0.20312 0.45007 0.10789 0.0
C40 C 0.12319 0.38504 0.0553 0.0
C41 C 0.21234 0.40473 0.09748 0.0
C42 C 0.15306 0.46289 0.09121 0.0
C43 C 0.11164 0.43026 0.06492 0.0
O44 O 0.18269 0.32132 0.10757 0.0
O45 O 0.27246 0.25489 0.04151 0.0
O46 O 0.24618 0.18183 1.00535 0.0
O47 O 0.15146 0.22762 0.0262 0.0
O48 O 0.27339 0.31477 0.08759 0.0
O49 O 0.10379 0.28015 0.0723 0.0
O50 O 0.31036 0.19684 0.92904 0.0
O51 O 0.22064 0.26269 0.99506 0.0
O52 O 0.24704 0.33571 0.03114 0.0
O53 O 0.34176 0.28992 1.0105 0.0
O54 O 0.21965 0.2029 0.94895 0.0
O55 O 0.38974 0.23724 0.96437 0.0
C56 C 0.30603 0.27805 0.06997 0.0
C57 C 0.07515 0.33064 0.1334 0.0
C58 C 0.01736 0.34936 0.19081 0.0
C59 C 0.06544 0.3242 0.16406 0.0
C60 C 0.97991 0.38171 0.18642 0.0
C61 C 0.03744 0.363 0.12956 0.0
C62 C 0.99018 0.3885 0.15608 0.0
C63 C 0.18269 0.18885 1.01588 0.0
C64 C 0.12478 0.30291 0.10588 0.0
C65 C 0.05817 0.44141 0.04872 0.0
C66 C 0.01517 0.40784 0.02438 0.0
C67 C 0.18698 0.2396 0.96663 0.0
C68 C 0.41794 0.18667 0.90321 0.0
C69 C 0.42693 0.19218 0.87204 0.0
C70 C 0.47398 0.16606 0.84502 0.0
C71 C 0.51144 0.13397 0.84974 0.0
C72 C 0.45566 0.15455 0.90738 0.0
C73 C 0.50212 0.12828 0.88067 0.0
C74 C 0.31061 0.32869 0.02076 0.0
C75 C 0.36866 0.21481 0.93078 0.0
H76 H 0.09575 0.29959 0.16703 0.0
H77 H 0.94167 0.4012 0.206 0.0
H78 H 0.04427 0.36838 0.10609 0.0
H79 H 0.96087 0.41332 0.15294 0.0
H80 H 0.39675 0.21665 0.8688 0.0
H81 H 0.54885 0.11377 0.82989 0.0
H82 H 0.44942 0.1499 0.93123 0.0
H83 H 0.53139 0.10362 0.88406 0.0
Tb84 Tb 0.68695 0.79745 0.0508 0.0
C85 C 0.87114 0.63309 0.98245 0.0
C86 C 0.9687 0.6556 0.02156 0.0
C87 C 0.93626 0.57725 0.98972 0.0
C88 C 0.91313 0.66626 1.00614 0.0
C89 C 0.88293 0.58799 0.97316 0.0
C90 C 0.97907 0.61105 1.01395 0.0
C91 C 0.7922 0.5675 0.92967 0.0
N92 N 0.82065 0.64495 0.96698 0.0
C93 C 0.78274 0.61274 0.93976 0.0
C94 C 0.84196 0.55508 0.94679 0.0
Tb95 Tb 0.80703 0.71993 0.98619 0.0
N96 N 0.90157 0.70868 1.01241 0.0
C97 C 0.9471 0.74164 0.03181 0.0
C98 C 0.01323 0.68976 0.04315 0.0
C99 C 0.00284 0.73285 0.04787 0.0
H100 H 0.74386 0.62195 0.92651 0.0
H101 H 0.03768 0.75939 0.06394 0.0
H102 H 0.02102 0.60225 0.02587 0.0
H103 H 0.76104 0.54226 0.90875 0.0
H104 H 0.94005 0.77523 0.03602 0.0
H105 H 0.45637 0.75829 0.97298 0.0
H106 H 0.05664 0.68301 0.05543 0.0
H107 H 0.7503 0.89536 0.11052 0.0
H108 H 0.55387 0.74231 1.00091 0.0
H109 H 0.73338 0.97507 0.12827 0.0
H110 H 0.9458 0.54285 0.98327 0.0
H111 H 0.43768 0.8347 0.98152 0.0
H112 H 0.47357 0.9154 1.01107 0.0
H113 H 0.84935 0.52002 0.93885 0.0
H114 H 0.5489 0.9747 0.05368 0.0
N115 N 0.59252 0.80882 0.02456 0.0
C116 C 0.54692 0.77592 1.00514 0.0
C117 C 0.48104 0.82788 0.9938 0.0
C118 C 0.52565 0.86199 1.0154 0.0
C119 C 0.49127 0.78478 0.98907 0.0
C120 C 0.58113 0.85126 0.03082 0.0
H121 H 0.64529 0.99741 0.09813 0.0
N122 N 0.67361 0.87245 0.07 0.0
C123 C 0.70221 0.94986 0.10732 0.0
C124 C 0.6232 0.88437 0.05451 0.0
C125 C 0.71153 0.90461 0.09723 0.0
C126 C 0.65257 0.96234 0.09019 0.0
C127 C 0.61156 0.92948 0.06379 0.0
O128 O 0.68263 0.82061 0.10757 0.0
O129 O 0.77277 0.75494 0.0418 0.0
O130 O 0.74698 0.68177 1.00566 0.0
O131 O 0.65195 0.72731 0.02621 0.0
O132 O 0.773 0.81484 0.08793 0.0
O133 O 0.6028 0.78075 0.07246 0.0
O134 O 0.81151 0.6964 0.92936 0.0
O135 O 0.72117 0.76231 0.99519 0.0
O136 O 0.74682 0.83556 0.03123 0.0
O137 O 0.84193 0.7901 1.0107 0.0
O138 O 0.72102 0.70255 0.949 0.0
O139 O 0.89073 0.73706 0.96455 0.0
C140 C 0.80601 0.77825 0.07036 0.0
C141 C 0.57517 0.83177 0.13367 0.0
C142 C 0.51623 0.85188 0.19107 0.0
C143 C 0.56197 0.82451 0.16371 0.0
C144 C 0.48425 0.88683 0.18779 0.0
C145 C 0.54248 0.86658 0.13088 0.0
C146 C 0.49733 0.89399 0.15789 0.0
C147 C 0.68334 0.68862 1.01595 0.0
C148 C 0.62405 0.80306 0.10602 0.0
C149 C 0.55833 0.94029 0.04723 0.0
C150 C 0.51544 0.90654 0.023 0.0
C151 C 0.68794 0.7391 0.9666 0.0
C152 C 0.91908 0.68614 0.90344 0.0
C153 C 0.93133 0.69318 0.87322 0.0
C154 C 0.97803 0.66656 0.84617 0.0
C155 C 0.01193 0.63253 0.84988 0.0
C156 C 0.95349 0.65216 0.90664 0.0
C157 C -0.00038 0.62545 0.8799 0.0
C158 C 0.8104 0.82873 0.02086 0.0
C159 C 0.86972 0.71443 0.93097 0.0
H160 H 0.58675 0.79712 0.16543 0.0
H161 H 0.44958 0.90897 0.20852 0.0
H162 H 0.55188 0.87261 0.10796 0.0
H163 H 0.47245 0.92099 0.1557 0.0
H164 H 0.90517 0.71991 0.87114 0.0
H165 H 0.04755 0.61107 0.8294 0.0
H166 H 0.94478 0.64629 0.92971 0.0
H167 H 0.02592 0.59914 0.88243 0.0
Tb168 Tb 0.1875 0.7196 0.4861 0.0
C169 C 0.36709 0.88614 0.5561 0.0
C170 C 0.46472 0.86512 0.51709 0.0
C171 C 0.43044 0.94311 0.54957 0.0
C172 C 0.40979 0.85359 0.53229 0.0
C173 C 0.37758 0.93147 0.56577 0.0
C174 C 0.47393 0.90994 0.52519 0.0
C175 C 0.28642 0.95042 0.60883 0.0
N176 N 0.31703 0.87342 0.5712 0.0
C177 C 0.27824 0.90498 0.59837 0.0
C178 C 0.33578 0.96371 0.59213 0.0
Tb179 Tb 0.30557 0.79815 0.55137 0.0
N180 N 0.39943 0.81091 0.52562 0.0
C181 C 0.44565 0.77853 0.50604 0.0
C182 C 0.50972 0.8315 0.49512 0.0
C183 C 0.50067 0.78815 0.49006 0.0
H184 H 0.23969 0.89513 0.61134 0.0
H185 H 0.53596 0.76204 0.47375 0.0
H186 H 0.51546 0.91943 0.51351 0.0
H187 H 0.25459 0.97514 0.62973 0.0
H188 H 0.43956 0.74476 0.50158 0.0
H189 H 0.95551 0.75654 0.56251 0.0
H190 H 0.55245 0.83889 0.48279 0.0
H191 H 0.25339 0.62229 0.42685 0.0
H192 H 0.0528 0.77342 0.53507 0.0
H193 H 0.2383 0.54246 0.40912 0.0
H194 H 0.43905 0.97771 0.55635 0.0
H195 H 0.93852 0.68 0.55401 0.0
H196 H 0.97616 0.59964 0.52464 0.0
H197 H 0.34215 0.99892 0.60036 0.0
H198 H 0.05302 0.54106 0.48251 0.0
N199 N 0.09297 0.7073 0.51168 0.0
C200 C 0.04657 0.73976 0.53083 0.0
C201 C 0.98174 0.68721 0.54189 0.0
C202 C 0.02713 0.65352 0.52053 0.0
C203 C 0.99102 0.73038 0.54662 0.0
C204 C 0.08245 0.66477 0.50538 0.0
H205 H 0.15032 0.51929 0.43869 0.0
N206 N 0.17568 0.64447 0.46678 0.0
C207 C 0.20634 0.56736 0.42979 0.0
C208 C 0.12536 0.63207 0.48195 0.0
C209 C 0.21462 0.61269 0.43987 0.0
C210 C 0.15675 0.55441 0.44661 0.0
C211 C 0.11477 0.58687 0.47267 0.0
O212 O 0.18406 0.69613 0.42926 0.0
O213 O 0.27236 0.76296 0.49553 0.0
O214 O 0.2448 0.83591 0.5318 0.0
O215 O 0.15091 0.7894 0.51052 0.0
O216 O 0.27425 0.70296 0.44955 0.0
O217 O 0.10367 0.73591 0.46394 0.0
O218 O 0.30955 0.82082 0.60808 0.0
O219 O 0.22062 0.75495 0.54187 0.0
O220 O 0.24791 0.68217 0.50613 0.0
O221 O 0.34217 0.72834 0.5268 0.0
O222 O 0.2191 0.8146 0.58814 0.0
O223 O 0.3902 0.78196 0.57305 0.0
C224 C 0.30626 0.73995 0.46715 0.0
C225 C 0.07708 0.68497 0.40257 0.0
C226 C 0.01866 0.66556 0.34517 0.0
C227 C 0.0645 0.69251 0.37262 0.0
C228 C 0.98597 0.6307 0.3482 0.0
C229 C 0.04389 0.65016 0.40509 0.0
C230 C -0.00137 0.62313 0.37795 0.0
C231 C 0.18144 0.82841 0.52105 0.0
C232 C 0.12553 0.71362 0.43051 0.0
C233 C 0.06165 0.57555 0.48895 0.0
C234 C 0.01791 0.60888 0.51292 0.0
C235 C 0.18675 0.77781 0.57028 0.0
C236 C 0.41682 0.83252 0.63452 0.0
C237 C 0.42969 0.82495 0.66443 0.0
C238 C 0.47532 0.85208 0.69192 0.0
C239 C 0.50753 0.88715 0.68898 0.0
C240 C 0.44954 0.86754 0.63208 0.0
C241 C 0.4946 0.89474 0.65927 0.0
C242 C 0.31138 0.6895 0.51668 0.0
C243 C 0.3685 0.80372 0.60656 0.0
H244 H 0.08973 0.71986 0.37106 0.0
H245 H 0.95104 0.60898 0.3274 0.0
H246 H 0.05291 0.64389 0.42794 0.0
H247 H 0.97326 0.59617 0.37995 0.0
H248 H 0.40484 0.79744 0.66592 0.0
H249 H 0.54226 0.90902 0.70983 0.0
H250 H 0.44033 0.87383 0.60926 0.0
H251 H 0.51959 0.92186 0.65734 0.0
Tb252 Tb 0.68416 0.22011 0.48621 0.0
C253 C 0.86943 0.38381 0.55531 0.0
C254 C 0.96631 0.36191 0.51572 0.0
C255 C 0.93414 0.44026 0.54874 0.0
C256 C 0.91116 0.35085 0.53111 0.0
C257 C 0.88115 0.42908 0.56518 0.0
C258 C 0.97664 0.40668 0.52397 0.0
C259 C 0.79106 0.44883 0.60896 0.0
N260 N 0.81923 0.37154 0.57066 0.0
C261 C 0.78166 0.40343 0.5983 0.0
C262 C 0.84048 0.4617 0.592 0.0
Tb263 Tb 0.8059 0.29637 0.55061 0.0
N264 N 0.89968 0.30819 0.52423 0.0
C265 C 0.94487 0.2753 0.50413 0.0
C266 C 0.01043 0.32787 0.49343 0.0
C267 C 0.00013 0.28448 0.48803 0.0
H268 H 0.74308 0.39385 0.61144 0.0
H269 H 0.03468 0.25802 0.4714 0.0
H270 H 0.0183 0.41579 0.51211 0.0
H271 H 0.76015 0.47384 0.63022 0.0
H272 H 0.93785 0.24149 0.49941 0.0
H273 H 0.45617 0.25867 0.56612 0.0
H274 H 0.05348 0.33494 0.48112 0.0
H275 H 0.74627 0.12258 0.42493 0.0
H276 H 0.55282 0.27516 0.53797 0.0
H277 H 0.72857 0.04258 0.40573 0.0
H278 H 0.94365 0.47481 0.55565 0.0
H279 H 0.43678 0.18161 0.55593 0.0
H280 H 0.4708 0.10053 0.52403 0.0
H281 H 0.84782 0.49688 0.60038 0.0
H282 H 0.54492 0.04147 0.48012 0.0
N283 N 0.59037 0.20828 0.51261 0.0
C284 C 0.54553 0.24128 0.53301 0.0
C285 C 0.47967 0.18864 0.54349 0.0
C286 C 0.52332 0.15451 0.52083 0.0
C287 C 0.49034 0.23212 0.54919 0.0
C288 C 0.57852 0.16556 0.50546 0.0
H289 H 0.64065 0.01944 0.43536 0.0
N290 N 0.67031 0.14489 0.46584 0.0
C291 C 0.69786 0.06758 0.42712 0.0
C292 C 0.62001 0.13258 0.4811 0.0
C293 C 0.70764 0.11301 0.43805 0.0
C294 C 0.64831 0.05465 0.44397 0.0
C295 C 0.60789 0.08727 0.47095 0.0
O296 O 0.67859 0.19855 0.4297 0.0
O297 O 0.77023 0.26237 0.49522 0.0
O298 O 0.74537 0.33541 0.53218 0.0
O299 O 0.64976 0.29047 0.51206 0.0
O300 O 0.76909 0.20308 0.44847 0.0
O301 O 0.59931 0.23778 0.46572 0.0
O302 O 0.81191 0.31874 0.60722 0.0
O303 O 0.72006 0.25406 0.54153 0.0
O304 O 0.74506 0.18075 0.50416 0.0
O305 O 0.84036 0.22604 0.52499 0.0
O306 O 0.72115 0.31292 0.58854 0.0
O307 O 0.89066 0.27869 0.57115 0.0
C308 C 0.80266 0.23936 0.46629 0.0
C309 C 0.57051 0.18775 0.40446 0.0
C310 C 0.5122 0.16743 0.34688 0.0
C311 C 0.55827 0.19455 0.37412 0.0
C312 C 0.47889 0.1332 0.35056 0.0
C313 C 0.53651 0.15365 0.40767 0.0
C314 C 0.49101 0.12649 0.38077 0.0
C315 C 0.68152 0.32901 0.5223 0.0
C316 C 0.61979 0.21615 0.43197 0.0
C317 C 0.55475 0.07605 0.48727 0.0
C318 C 0.51256 0.10967 0.51225 0.0
C319 C 0.68776 0.27659 0.57059 0.0
C320 C 0.92025 0.32918 0.63218 0.0
C321 C 0.93278 0.32258 0.66259 0.0
C322 C 0.97937 0.34956 0.68955 0.0
C323 C 0.01292 0.38347 0.68552 0.0
C324 C 0.95445 0.36297 0.62862 0.0
C325 C 0.00049 0.39001 0.65525 0.0
C326 C 0.80881 0.1873 0.51427 0.0
C327 C 0.87052 0.30086 0.60494 0.0
H328 H 0.58404 0.22141 0.37208 0.0
H329 H 0.44388 0.11129 0.32993 0.0
H330 H 0.54511 0.148 0.43085 0.0
H331 H 0.46511 0.10005 0.38329 0.0
H332 H 0.90683 0.29595 0.66489 0.0
H333 H 0.04835 0.40527 0.70593 0.0
H334 H 0.94561 0.36848 0.60539 0.0
H335 H 0.02657 0.4162 0.65246 0.0
H336 H 0.7314 0.60842 1.00707 0.0
H337 H 0.66749 0.54675 1.00663 0.0
H338 H 0.48537 0.62314 0.02606 0.0
H339 H 0.54836 0.6845 0.02558 0.0
H340 H 0.58822 0.54789 0.06256 0.0
H341 H 0.43697 0.50362 0.93785 0.0
H342 H 0.51075 0.53841 0.94898 0.0
H343 H 0.43249 0.56158 0.9714 0.0
C344 C 0.67763 0.6119 1.01067 0.0
C345 C 0.64493 0.65119 1.01576 0.0
C346 C 0.64125 0.5767 1.01065 0.0
C347 C 0.57157 0.58009 1.01567 0.0
C348 C 0.53891 0.61946 0.0213 0.0
H349 H 0.26296 0.40908 0.02989 0.0
H350 H 0.3271 0.47053 0.03009 0.0
C351 C 0.57516 0.65463 0.02125 0.0
C352 C 0.53329 0.543 1.01618 0.0
H353 H 0.40626 0.46896 0.97374 0.0
C354 C 0.54867 0.53044 0.04304 0.0
C355 C 0.48161 0.52046 0.99073 0.0
C356 C 0.46473 0.53134 0.96038 0.0
C357 C 0.51291 0.49638 0.04555 0.0
C358 C 0.4612 0.47386 0.02011 0.0
C359 C 0.44583 0.48641 0.99325 0.0
C360 C 0.42279 0.43686 0.0207 0.0
C361 C 0.5298 0.48546 0.07588 0.0
C362 C 0.45527 0.3974 1.01497 0.0
C363 C 0.41889 0.36233 1.01513 0.0
C364 C 0.34918 0.366 0.02085 0.0
C365 C 0.31668 0.4054 0.02608 0.0
C366 C 0.35318 0.44048 0.02597 0.0
H367 H 0.55783 0.51308 0.09835 0.0
H368 H 0.48374 0.4786 0.08738 0.0
H369 H 0.56174 0.45508 0.0648 0.0
H370 H 0.50876 0.39355 1.01004 0.0
H371 H 0.44553 0.33237 1.01071 0.0
H372 H 0.26398 0.60944 0.50829 0.0
H373 H 0.328 0.54883 0.50959 0.0
H374 H 0.50977 0.62525 0.52816 0.0
H375 H 0.4464 0.68604 0.52676 0.0
H376 H 0.43707 0.50003 0.46456 0.0
H377 H 0.50902 0.59128 0.61115 0.0
H378 H 0.44296 0.61033 0.59213 0.0
H379 H 0.52915 0.61965 0.58521 0.0
C380 C 0.31763 0.61332 0.51236 0.0
C381 C 0.35005 0.65256 0.5172 0.0
C382 C 0.35407 0.57869 0.51327 0.0
C383 C 0.42342 0.58283 0.51943 0.0
C384 C 0.45606 0.62176 0.52403 0.0
H385 H 0.73064 0.40894 0.53117 0.0
H386 H 0.66795 0.47032 0.53032 0.0
C387 C 0.41972 0.65639 0.52305 0.0
C388 C 0.46177 0.54605 0.52041 0.0
H389 H 0.55908 0.52024 0.57549 0.0
C390 C 0.46354 0.50433 0.48883 0.0
C391 C 0.49634 0.55192 0.55212 0.0
C392 C 0.494 0.59557 0.58722 0.0
C393 C 0.49986 0.46839 0.48792 0.0
C394 C 0.53425 0.47421 0.51966 0.0
C395 C 0.53265 0.51596 0.55121 0.0
C396 C 0.57182 0.43721 0.52073 0.0
C397 C 0.50223 0.42475 0.45281 0.0
C398 C 0.53831 0.39859 0.5162 0.0
C399 C 0.57386 0.36354 0.51692 0.0
C400 C 0.64363 0.36661 0.52244 0.0
C401 C 0.67691 0.40563 0.52734 0.0
C402 C 0.64123 0.4407 0.52668 0.0
H403 H 0.48764 0.42911 0.42886 0.0
H404 H 0.55317 0.40984 0.44801 0.0
H405 H 0.46674 0.40076 0.4547 0.0
H406 H 0.48454 0.39561 0.51221 0.0
H407 H 0.54653 0.3341 0.51318 0.0
H408 H 0.04789 0.18489 0.02627 0.0
H409 H 0.98545 0.12378 0.02767 0.0
H410 H 0.16771 0.04726 1.00707 0.0
H411 H 0.23096 0.10853 1.00657 0.0
H412 H 0.9733 0.0347 0.97267 0.0
H413 H 0.09082 0.04512 0.09771 0.0
H414 H 0.09836 0.08918 0.08523 0.0
H415 H 0.14921 0.03973 0.06296 0.0
C416 C 0.07487 0.15516 0.02214 0.0
C417 C 0.1445 0.1516 1.01615 0.0
C418 C 0.03901 0.12024 0.02289 0.0
C419 C 0.07208 0.08127 0.01792 0.0
C420 C 0.1414 0.07738 1.01159 0.0
H421 H 0.94527 0.83317 1.01098 0.0
H422 H 0.00746 0.89438 1.00963 0.0
C423 C 0.17736 0.11229 1.0109 0.0
C424 C 0.03374 0.04441 0.0188 0.0
H425 H 0.01922 0.9832 0.06421 0.0
C426 C 0.98306 0.02352 0.99276 0.0
C427 C 0.04677 0.02995 0.04504 0.0
C428 C 0.09882 0.05236 0.07455 0.0
C429 C 0.94576 0.98793 0.99183 0.0
C430 C 0.95878 0.97346 0.01807 0.0
C431 C 0.00944 0.99437 0.04412 0.0
C432 C 0.92055 0.93654 0.0189 0.0
C433 C 0.89381 0.96548 0.96226 0.0
C434 C 0.85114 0.94018 0.02495 0.0
C435 C 0.81531 0.90517 0.02558 0.0
C436 C 0.8484 0.86606 0.02061 0.0
C437 C 0.91811 0.86275 1.0149 0.0
C438 C 0.95383 0.89774 1.01419 0.0
H439 H 0.902 0.97262 0.93906 0.0
H440 H 0.89416 0.92867 0.95166 0.0
H441 H 0.8434 0.97818 0.97377 0.0
H442 H 0.82464 0.97016 0.02928 0.0
H443 H 0.76164 0.90871 0.02964 0.0
H444 H 0.94377 0.1826 0.52365 0.0
H445 H 0.00623 0.12095 0.52403 0.0
H446 H 0.82364 0.045 0.50415 0.0
H447 H 0.76027 0.10691 0.50464 0.0
H448 H 0.90215 0.04624 0.56048 0.0
H449 H 0.05455 1.00106 0.43604 0.0
H450 H 0.05905 0.05911 0.4694 0.0
H451 H 0.98087 0.03594 0.44688 0.0
C452 C 0.91677 0.15275 0.51917 0.0
C453 C 0.84701 0.14954 0.51365 0.0
C454 C 0.95271 0.11741 0.51916 0.0
C455 C 0.91974 0.07812 0.51345 0.0
C456 C 0.8501 0.0749 0.50826 0.0
H457 H 0.04658 0.83122 0.51026 0.0
H458 H 0.98279 0.89184 0.5089 0.0
C459 C 0.81404 0.11025 0.50831 0.0
C460 C 0.95765 0.04101 0.51416 0.0
H461 H 0.08501 0.96695 0.47243 0.0
C462 C 0.94187 0.02868 0.54111 0.0
C463 C 0.00951 0.01832 0.4889 0.0
C464 C 0.02675 0.02892 0.45844 0.0
C465 C 0.97754 0.99479 0.54395 0.0
C466 C 0.02957 0.97222 0.51877 0.0
C467 C 0.04521 0.98445 0.49175 0.0
C468 C 0.06822 0.9356 0.51985 0.0
C469 C 0.96028 0.98415 0.57438 0.0
C470 C 0.13771 0.93969 0.52557 0.0
C471 C 0.17451 0.90496 0.5261 0.0
C472 C 0.14246 0.86542 0.52084 0.0
C473 C 0.07287 0.8613 0.51471 0.0
C474 C 0.03617 0.89603 0.51415 0.0
H475 H 0.93162 0.0117 0.59656 0.0
H476 H 0.92884 0.95355 0.56327 0.0
H477 H 0.00624 0.97774 0.58627 0.0
H478 H 0.16345 0.96984 0.5297 0.0
H479 H 0.22814 0.90899 0.53023 0.0
H480 H 0.39099 0.16415 0.31476 0.0
H481 H 0.36743 0.17746 0.26301 0.0
H482 H 0.57684 0.20362 0.25596 0.0
H483 H 0.60135 0.18873 0.30698 0.0
H484 H 0.38814 0.25497 0.25967 0.0
H485 H 0.53115 0.11614 0.14972 0.0
H486 H 0.51188 0.11756 0.19275 0.0
H487 H 0.57938 0.15076 0.18981 0.0
C488 C 0.43234 0.17191 0.30183 0.0
C489 C 0.49816 0.17515 0.31501 0.0
C490 C 0.41868 0.17979 0.27235 0.0
C491 C 0.47045 0.19092 0.25523 0.0
C492 C 0.53625 0.19421 0.26824 0.0
H493 H 0.39549 0.32354 0.12354 0.0
H494 H 0.44417 0.30078 0.16641 0.0
C495 C 0.55002 0.18628 0.29776 0.0
C496 C 0.4545 0.20154 0.2252 0.0
H497 H 0.48462 0.17036 0.13519 0.0
C498 C 0.40929 0.23645 0.23248 0.0
C499 C 0.48168 0.17709 0.18961 0.0
C500 C 0.52826 0.13802 0.17977 0.0
C501 C 0.39063 0.24773 0.20529 0.0
C502 C 0.41892 0.22401 0.16995 0.0
C503 C 0.46375 0.18883 0.16245 0.0
C504 C 0.40009 0.23467 0.14036 0.0
C505 C 0.33954 0.28436 0.21444 0.0
C506 C 0.36209 0.20423 0.11046 0.0
C507 C 0.33451 0.21712 0.08587 0.0
C508 C 0.3453 0.26048 0.09058 0.0
C509 C 0.38667 0.28989 0.11926 0.0
C510 C 0.41426 0.27699 0.14378 0.0
H511 H 0.31176 0.29218 0.23995 0.0
H512 H 0.36547 0.31526 0.21839 0.0
H513 H 0.30285 0.27483 0.19185 0.0
H514 H 0.35059 0.1714 0.10734 0.0
H515 H 0.30198 0.19398 0.06449 0.0
H516 H 0.3945 0.85638 0.22312 0.0
H517 H 0.36944 0.84286 0.27462 0.0
H518 H 0.57763 0.8135 0.28126 0.0
H519 H 0.60368 0.82856 0.23049 0.0
H520 H 0.38681 0.765 0.27783 0.0
H521 H 0.53377 0.90123 0.38764 0.0
H522 H 0.5152 0.90027 0.3447 0.0
H523 H 0.58131 0.86599 0.34745 0.0
C524 C 0.43529 0.84784 0.23589 0.0
C525 C 0.50122 0.8438 0.22268 0.0
C526 C 0.42076 0.83985 0.26524 0.0
C527 C 0.47175 0.8278 0.2822 0.0
C528 C 0.53764 0.82363 0.26912 0.0
H529 H 0.39519 0.69472 0.4132 0.0
H530 H 0.44308 0.71776 0.37036 0.0
C531 C 0.55228 0.83166 0.23973 0.0
C532 C 0.45488 0.81727 0.3122 0.0
H533 H 0.48536 0.84735 0.402 0.0
C534 C 0.40839 0.78304 0.30495 0.0
C535 C 0.48259 0.84111 0.34773 0.0
C536 C 0.53053 0.87949 0.35759 0.0
C537 C 0.38915 0.77178 0.33207 0.0
C538 C 0.41801 0.79483 0.36732 0.0
C539 C 0.464 0.82939 0.37481 0.0
C540 C 0.39904 0.78387 0.39673 0.0
C541 C 0.337 0.73579 0.32296 0.0
C542 C 0.36106 0.81417 0.42672 0.0
C543 C 0.33378 0.80108 0.45127 0.0
C544 C 0.34493 0.75769 0.44644 0.0
C545 C 0.38613 0.7284 0.4176 0.0
C546 C 0.41331 0.74146 0.3931 0.0
H547 H 0.30933 0.72835 0.29749 0.0
H548 H 0.36196 0.70457 0.31898 0.0
H549 H 0.30034 0.74578 0.34561 0.0
H550 H 0.34946 0.84706 0.43 0.0
H551 H 0.30132 0.82413 0.47275 0.0
H552 H 0.69178 0.82293 0.97164 0.0
H553 H 0.64119 0.84561 0.92937 0.0
H554 H 0.54755 0.71612 0.87089 0.0
H555 H 0.59848 0.69327 0.91317 0.0
H556 H 0.62379 0.73793 0.82692 0.0
H557 H 0.4534 0.87889 0.91099 0.0
H558 H 0.53593 0.88353 0.92976 0.0
H559 H 0.48168 0.839 0.92529 0.0
C560 C 0.6586 0.79986 0.95062 0.0
C561 C 0.64818 0.75653 0.94603 0.0
C562 C 0.62961 0.81288 0.92639 0.0
C563 C 0.58995 0.78273 0.89712 0.0
C564 C 0.57763 0.74002 0.89338 0.0
H565 H 0.38702 0.8303 0.73179 0.0
H566 H 0.41266 0.81374 0.78192 0.0
C567 C 0.60662 0.72703 0.91753 0.0
C568 C 0.56832 0.7935 0.8679 0.0
H569 H 0.47912 0.86801 0.85122 0.0
C570 C 0.59175 0.76621 0.83224 0.0
C571 C 0.52627 0.83024 0.87478 0.0
C572 C 0.49727 0.85946 0.91219 0.0
C573 C 0.57541 0.77508 0.80342 0.0
C574 C 0.5353 0.81268 0.81049 0.0
C575 C 0.51046 0.83947 0.84596 0.0
C576 C 0.51929 0.82464 0.78125 0.0
C577 C 0.60093 0.7439 0.76554 0.0
C578 C 0.57061 0.83682 0.76459 0.0
C579 C 0.55624 0.84605 0.73587 0.0
C580 C 0.49012 0.84342 0.72322 0.0
C581 C 0.43859 0.832 0.74048 0.0
C582 C 0.45304 0.8229 0.76932 0.0
H583 H 0.61658 0.71109 0.76296 0.0
H584 H 0.56205 0.73806 0.74462 0.0
H585 H 0.64512 0.75924 0.7596 0.0
H586 H 0.622 0.83882 0.77364 0.0
H587 H 0.59721 0.85437 0.72308 0.0
H588 H 0.68895 0.19085 0.56156 0.0
H589 H 0.63612 0.16441 0.60076 0.0
H590 H 0.5524 0.29571 0.66712 0.0
H591 H 0.60291 0.32168 0.62684 0.0
H592 H 0.66661 0.19548 0.67097 0.0
H593 H 0.39463 0.21873 0.66085 0.0
H594 H 0.45412 0.21973 0.62849 0.0
H595 H 0.44085 0.26882 0.67176 0.0
C596 C 0.6573 0.21362 0.5836 0.0
C597 C 0.64874 0.25809 0.59061 0.0
C598 C 0.62748 0.19856 0.60625 0.0
C599 C 0.58936 0.22783 0.63666 0.0
C600 C 0.57988 0.27207 0.64329 0.0
H601 H 0.47513 0.24525 0.84206 0.0
H602 H 0.49767 0.25657 0.78915 0.0
C603 C 0.60921 0.28701 0.62045 0.0
C604 C 0.56651 0.21386 0.6638 0.0
H605 H 0.43107 0.21243 0.71365 0.0
C606 C 0.61488 0.19848 0.67982 0.0
C607 C 0.49904 0.21792 0.67551 0.0
C608 C 0.4441 0.23176 0.65797 0.0
C609 C 0.59814 0.18862 0.70806 0.0
C610 C 0.53122 0.19404 0.72051 0.0
C611 C 0.48243 0.2085 0.70409 0.0
C612 C 0.51199 0.18638 0.75156 0.0
C613 C 0.65255 0.17392 0.7253 0.0
C614 C 0.51149 0.14304 0.74774 0.0
C615 C 0.49801 0.13633 0.77786 0.0
C616 C 0.48498 0.1729 0.81245 0.0
C617 C 0.48409 0.21622 0.81585 0.0
C618 C 0.49721 0.22284 0.78566 0.0
H619 H 0.70336 0.17759 0.71613 0.0
H620 H 0.65017 0.19367 0.75556 0.0
H621 H 0.64493 0.13821 0.71784 0.0
H622 H 0.52226 0.11445 0.72152 0.0
H623 H 0.49787 0.10245 0.77402 0.0
H624 H 0.89563 0.82418 0.1237 0.0
H625 H 0.94694 0.80143 0.16593 0.0
H626 H 0.85322 0.67191 0.10771 0.0
H627 H 0.80238 0.69448 0.06543 0.0
H628 H 0.87192 0.78016 0.2102 0.0
H629 H 0.04038 0.63823 0.12583 0.0
H630 H 0.01148 0.67768 0.1112 0.0
H631 H 0.95749 0.63334 0.10743 0.0
C632 C 0.88756 0.79045 0.11938 0.0
C633 C 0.84591 0.76091 0.09095 0.0
C634 C 0.91676 0.77749 0.14351 0.0
C635 C 0.90453 0.7348 0.13985 0.0
C636 C 0.86476 0.70463 0.11064 0.0
H637 H 0.89685 0.66394 0.3142 0.0
H638 H 0.8724 0.67953 0.26363 0.0
C639 C 0.8356 0.71759 0.08641 0.0
C640 C 0.92637 0.72411 0.16908 0.0
H641 H 0.01468 0.64919 0.18569 0.0
C642 C 0.90357 0.7517 0.20483 0.0
C643 C 0.96793 0.68712 0.16215 0.0
C644 C 0.99633 0.65754 0.12465 0.0
C645 C 0.91999 0.74288 0.23366 0.0
C646 C 0.95951 0.70502 0.22654 0.0
C647 C 0.98378 0.67794 0.19099 0.0
C648 C 0.97533 0.69304 0.25579 0.0
C649 C 0.89514 0.77437 0.27162 0.0
C650 C 0.04157 0.69442 0.26762 0.0
C651 C 0.05582 0.68531 0.29648 0.0
C652 C 0.00409 0.67424 0.31385 0.0
C653 C 0.93797 0.67198 0.30131 0.0
C654 C 0.9238 0.68122 0.27258 0.0
H655 H 0.87999 0.80724 0.27416 0.0
H656 H 0.85075 0.75942 0.2778 0.0
H657 H 0.93422 0.78 0.2924 0.0
H658 H 0.08211 0.7033 0.25493 0.0
H659 H 0.10739 0.68674 0.3051 0.0
H660 H 0.88874 0.19317 0.41113 0.0
H661 H 0.93863 0.21703 0.36923 0.0
H662 H 0.85289 0.34831 0.4322 0.0
H663 H 0.80191 0.3244 0.47368 0.0
H664 H 0.84406 0.25293 0.33248 0.0
H665 H 0.0543 0.36815 0.40736 0.0
H666 H 0.03096 0.32226 0.41566 0.0
H667 H 0.97817 0.37058 0.43163 0.0
C668 C 0.882 0.22745 0.41652 0.0
C669 C 0.84234 0.2571 0.44598 0.0
C670 C 0.91052 0.24102 0.39265 0.0
C671 C 0.89993 0.28451 0.39787 0.0
C672 C 0.86259 0.31483 0.42811 0.0
H673 H 0.98742 0.4105 0.26194 0.0
H674 H 0.95989 0.39549 0.31253 0.0
C675 C 0.83362 0.30115 0.45189 0.0
C676 C 0.9199 0.29595 0.36897 0.0
H677 H 0.02954 0.35788 0.34824 0.0
C678 C 0.88472 0.27579 0.33582 0.0
C679 C 0.97219 0.32625 0.37379 0.0
C680 C 0.01154 0.34817 0.40893 0.0
C681 C 0.90027 0.28516 0.30722 0.0
C682 C 0.95397 0.31452 0.31147 0.0
C683 C 0.9887 0.33519 0.34491 0.0
C684 C 0.97445 0.32394 0.28137 0.0
C685 C 0.85787 0.26423 0.27305 0.0
C686 C 0.99323 0.28886 0.24723 0.0
C687 C 0.00767 0.29716 0.21806 0.0
C688 C 0.00491 0.34093 0.22249 0.0
C689 C 0.98868 0.37626 0.25722 0.0
C690 C 0.9736 0.36783 0.28633 0.0
H691 H 0.80788 0.2541 0.27839 0.0
H692 H 0.85051 0.28758 0.26158 0.0
H693 H 0.88325 0.23371 0.25216 0.0
H694 H 0.99569 0.25483 0.24295 0.0
H695 H 0.01935 0.26898 0.19178 0.0
H696 H 0.89044 0.32925 0.73014 0.0
H697 H 0.91534 0.3146 0.78124 0.0
H698 H 0.12495 0.33919 0.77297 0.0
H699 H 0.10095 0.35229 0.72114 0.0
H700 H 0.10339 0.26205 0.77677 0.0
H701 H 0.96319 0.40222 0.88712 0.0
H702 H 0.91411 0.3678 0.84734 0.0
H703 H 0.982 0.40039 0.8439 0.0
C704 C 0.94189 0.33141 0.73911 0.0
C705 C 0.99368 0.34204 0.72149 0.0
C706 C 0.95589 0.32362 0.76868 0.0
C707 C 0.02186 0.32653 0.78137 0.0
C708 C 0.07357 0.33717 0.76388 0.0
H709 H 0.19123 0.32363 0.97202 0.0
H710 H 0.14252 0.34619 0.92917 0.0
C711 C 0.05967 0.34492 0.73435 0.0
C712 C 0.03801 0.31601 0.81143 0.0
H713 H 0.00904 0.34781 0.90164 0.0
C714 C 0.08271 0.28081 0.80405 0.0
C715 C 0.01146 0.3408 0.84713 0.0
C716 C 0.96549 0.38019 0.85708 0.0
C717 C 0.10146 0.26957 0.83124 0.0
C718 C 0.07376 0.29361 0.86671 0.0
C719 C 0.02945 0.32909 0.8743 0.0
C720 C 0.09269 0.28299 0.89631 0.0
C721 C 0.15205 0.23262 0.82195 0.0
C722 C 0.07833 0.24075 0.893 0.0
C723 C 0.10601 0.22786 0.91751 0.0
C724 C 0.1476 0.25721 0.94609 0.0
C725 C 0.15853 0.30053 0.95072 0.0
C726 C 0.13089 0.31341 0.92613 0.0
H727 H 0.17967 0.22463 0.79636 0.0
H728 H 0.18891 0.24191 0.84443 0.0
H729 H 0.1257 0.20188 0.81806 0.0
H730 H 0.04822 0.21699 0.87046 0.0
H731 H 0.09707 0.19424 0.91329 0.0
H732 H 0.1924 0.69415 0.56552 0.0
H733 H 0.14208 0.67132 0.60774 0.0
H734 H 0.04453 0.79968 0.66492 0.0
H735 H 0.09533 0.82271 0.62277 0.0
H736 H 0.1206 0.77999 0.70976 0.0
H737 H 0.95608 0.63565 0.62556 0.0
H738 H 0.03905 0.6315 0.60745 0.0
H739 H 0.98383 0.67499 0.61057 0.0
C740 C 0.15842 0.7169 0.58623 0.0
C741 C 0.14695 0.76002 0.59054 0.0
C742 C 0.12957 0.7038 0.61042 0.0
C743 C 0.08893 0.73362 0.63936 0.0
C744 C 0.07541 0.77602 0.64272 0.0
H745 H 0.88851 0.68551 0.80506 0.0
H746 H 0.91309 0.70136 0.75445 0.0
C747 C 0.10432 0.78913 0.61864 0.0
C748 C 0.06765 0.72303 0.66872 0.0
H749 H 0.98186 0.64759 0.68572 0.0
C750 C 0.08983 0.75121 0.70449 0.0
C751 C 0.02725 0.68561 0.66191 0.0
C752 C -0.00043 0.65535 0.62437 0.0
C753 C 0.07387 0.7426 0.73347 0.0
C754 C 0.03551 0.70434 0.7265 0.0
C755 C 0.01189 0.67664 0.69092 0.0
C756 C 0.02018 0.69265 0.75596 0.0
C757 C 0.09794 0.77474 0.77144 0.0
C758 C 0.07214 0.68194 0.77326 0.0
C759 C 0.05836 0.67313 0.80225 0.0
C760 C 0.99222 0.67472 0.81455 0.0
C761 C 0.94009 0.68464 0.79665 0.0
C762 C 0.95394 0.69333 0.76753 0.0
H763 H 0.11198 0.80768 0.77377 0.0
H764 H 0.05885 0.78009 0.79214 0.0
H765 H 0.14289 0.76055 0.77793 0.0
H766 H 0.12356 0.68079 0.76451 0.0
H767 H 0.09979 0.66598 0.81554 0.0
loop_
_geom_bond_atom_site_label_1
_geom_bond_atom_site_label_2
_geom_bond_distance
_geom_bond_site_symmetry_2
_ccdc_geom_bond_type
Tb0 N31 2.660 . S
Tb0 N38 2.600 . S
Tb0 O44 2.546 . S
Tb0 O45 2.610 . S
Tb0 O47 2.320 . S
Tb0 O48 2.552 . S
Tb0 O49 2.413 . S
Tb0 O51 2.362 1_554 S
Tb0 O52 2.421 . S
Tb0 C64 2.833 . S
C1 C4 1.432 . S
C1 C5 1.414 . S
C1 N8 1.359 . S
C2 C4 1.417 1_554 S
C2 C6 1.432 . S
C2 C14 1.410 . S
C3 C5 1.444 . S
C3 C6 1.317 1_556 S
C3 H26 0.929 . S
C4 C1 1.432 . S
C4 C2 1.417 1_556 S
C4 N12 1.360 . S
C5 C1 1.414 . S
C5 C3 1.444 . S
C5 C10 1.385 . S
C6 C2 1.432 . S
C6 C3 1.317 1_554 S
C6 H18 0.930 . S
C7 C9 1.392 . S
C7 C10 1.370 . S
C7 H19 0.931 . S
N8 C1 1.359 . S
N8 C9 1.327 . S
N8 Tb11 2.600 . S
C9 C7 1.392 . S
C9 N8 1.327 . S
C9 H16 0.930 . S
C10 C5 1.385 . S
C10 C7 1.370 . S
C10 H29 0.930 . S
Tb11 N8 2.600 . S
Tb11 N12 2.660 . S
Tb11 O45 2.362 1_556 S
Tb11 O46 2.421 . S
Tb11 O50 2.546 . S
Tb11 O51 2.610 . S
Tb11 O53 2.320 . S
Tb11 O54 2.552 . S
Tb11 O55 2.413 . S
Tb11 C75 2.833 . S
N12 C4 1.360 . S
N12 Tb11 2.660 . S
N12 C13 1.305 1_556 S
C13 N12 1.305 1_554 S
C13 C15 1.407 . S
C13 H20 0.930 . S
C14 C2 1.410 . S
C14 C15 1.345 . S
C14 H22 0.930 . S
C15 C13 1.407 . S
C15 C14 1.345 . S
C15 H17 0.930 . S
H16 C9 0.930 . S
H17 C15 0.930 . S
H18 C6 0.930 . S
H19 C7 0.931 . S
H20 C13 0.930 . S
H21 C35 0.930 . S
H22 C14 0.930 . S
H23 C41 0.930 . S
H24 C32 0.930 . S
H25 C39 0.931 . S
H26 C3 0.929 . S
H27 C33 0.930 . S
H28 C66 0.930 . S
H29 C10 0.930 . S
H30 C65 0.929 . S
N31 Tb0 2.660 . S
N31 C32 1.305 1_554 S
N31 C36 1.360 . S
C32 H24 0.930 . S
C32 N31 1.305 1_556 S
C32 C35 1.407 1_455 S
C33 H27 0.930 . S
C33 C34 1.410 . S
C33 C35 1.345 . S
C34 C33 1.410 . S
C34 C36 1.417 1_656 S
C34 C66 1.432 . S
C35 H21 0.930 . S
C35 C32 1.407 1_655 S
C35 C33 1.345 . S
C36 N31 1.360 . S
C36 C34 1.417 1_454 S
C36 C40 1.432 . S
H37 C42 0.930 . S
N38 Tb0 2.600 . S
N38 C40 1.359 . S
N38 C41 1.327 . S
C39 H25 0.931 . S
C39 C41 1.392 . S
C39 C42 1.370 . S
C40 C36 1.432 . S
C40 N38 1.359 . S
C40 C43 1.414 . S
C41 H23 0.930 . S
C41 N38 1.327 . S
C41 C39 1.392 . S
C42 H37 0.930 . S
C42 C39 1.370 . S
C42 C43 1.385 . S
C43 C40 1.414 . S
C43 C42 1.385 . S
C43 C65 1.444 1_455 S
O44 Tb0 2.546 . S
O44 C64 1.251 . S
O45 Tb0 2.610 . S
O45 Tb11 2.362 1_554 S
O45 C56 1.283 . S
O46 Tb11 2.421 . S
O46 C63 1.262 . S
O47 Tb0 2.320 . S
O47 C63 1.260 1_554 S
O48 Tb0 2.552 . S
O48 C56 1.243 . S
O49 Tb0 2.413 . S
O49 C64 1.256 . S
O50 Tb11 2.546 . S
O50 C75 1.251 . S
O51 Tb0 2.362 1_556 S
O51 Tb11 2.610 . S
O51 C67 1.283 . S
O52 Tb0 2.421 . S
O52 C74 1.262 . S
O53 Tb11 2.320 . S
O53 C74 1.260 1_556 S
O54 Tb11 2.552 . S
O54 C67 1.243 . S
O55 Tb11 2.413 . S
O55 C75 1.256 . S
C56 O45 1.283 . S
C56 O48 1.243 . S
C57 C59 1.382 . S
C57 C61 1.393 . S
C57 C64 1.500 . S
C58 C59 1.400 . S
C58 C60 1.384 . S
C59 C57 1.382 . S
C59 C58 1.400 . S
C59 H76 0.930 . S
C60 C58 1.384 . S
C60 C62 1.392 . S
C60 H77 0.931 . S
C61 C57 1.393 . S
C61 C62 1.401 . S
C61 H78 0.930 . S
C62 C60 1.392 . S
C62 C61 1.401 . S
C62 H79 0.930 . S
C63 O46 1.262 . S
C63 O47 1.260 1_556 S
C64 Tb0 2.833 . S
C64 O44 1.251 . S
C64 O49 1.256 . S
C64 C57 1.500 . S
C65 H30 0.929 . S
C65 C43 1.444 1_655 S
C65 C66 1.317 1_554 S
C66 H28 0.930 . S
C66 C34 1.432 . S
C66 C65 1.317 1_556 S
C67 O51 1.283 . S
C67 O54 1.243 . S
C68 C69 1.382 . S
C68 C72 1.393 . S
C68 C75 1.500 . S
C69 C68 1.382 . S
C69 C70 1.400 . S
C69 H80 0.930 . S
C70 C69 1.400 . S
C70 C71 1.384 . S
C71 C70 1.384 . S
C71 C73 1.392 . S
C71 H81 0.931 . S
C72 C68 1.393 . S
C72 C73 1.401 . S
C72 H82 0.930 . S
C73 C71 1.392 . S
C73 C72 1.401 . S
C73 H83 0.930 . S
C74 O52 1.262 . S
C74 O53 1.260 1_554 S
C75 Tb11 2.833 . S
C75 O50 1.251 . S
C75 O55 1.256 . S
C75 C68 1.500 . S
H76 C59 0.930 . S
H77 C60 0.931 . S
H78 C61 0.930 . S
H79 C62 0.930 . S
H80 C69 0.930 . S
H81 C71 0.931 . S
H82 C72 0.930 . S
H83 C73 0.930 . S
Tb84 N115 2.660 . S
Tb84 N122 2.600 . S
Tb84 O128 2.546 . S
Tb84 O129 2.610 . S
Tb84 O131 2.320 . S
Tb84 O132 2.552 . S
Tb84 O133 2.413 . S
Tb84 O135 2.362 1_554 S
Tb84 O136 2.421 . S
Tb84 C148 2.833 . S
C85 C88 1.432 . S
C85 C89 1.414 . S
C85 N92 1.359 . S
C86 C88 1.417 1_454 S
C86 C90 1.432 . S
C86 C98 1.410 . S
C87 C89 1.444 1_455 S
C87 C90 1.317 1_556 S
C87 H110 0.929 . S
C88 C85 1.432 . S
C88 C86 1.417 1_656 S
C88 N96 1.360 . S
C89 C85 1.414 . S
C89 C87 1.444 1_655 S
C89 C94 1.385 . S
C90 C86 1.432 . S
C90 C87 1.317 1_554 S
C90 H102 0.930 . S
C91 C93 1.392 . S
C91 C94 1.370 . S
C91 H103 0.931 . S
N92 C85 1.359 . S
N92 C93 1.327 . S
N92 Tb95 2.600 . S
C93 C91 1.392 . S
C93 N92 1.327 . S
C93 H100 0.930 . S
C94 C89 1.385 . S
C94 C91 1.370 . S
C94 H113 0.930 . S
Tb95 N92 2.600 . S
Tb95 N96 2.660 . S
Tb95 O129 2.362 1_556 S
Tb95 O130 2.421 . S
Tb95 O134 2.546 . S
Tb95 O135 2.610 . S
Tb95 O137 2.320 . S
Tb95 O138 2.552 . S
Tb95 O139 2.413 . S
Tb95 C159 2.833 . S
N96 C88 1.360 . S
N96 Tb95 2.660 . S
N96 C97 1.305 1_556 S
C97 N96 1.305 1_554 S
C97 C99 1.407 1_655 S
C97 H104 0.930 . S
C98 C86 1.410 . S
C98 C99 1.345 . S
C98 H106 0.930 . S
C99 C97 1.407 1_455 S
C99 C98 1.345 . S
C99 H101 0.930 . S
H100 C93 0.930 . S
H101 C99 0.930 . S
H102 C90 0.930 . S
H103 C91 0.931 . S
H104 C97 0.930 . S
H105 C119 0.930 . S
H106 C98 0.930 . S
H107 C125 0.930 . S
H108 C116 0.930 . S
H109 C123 0.931 . S
H110 C87 0.929 . S
H111 C117 0.930 . S
H112 C150 0.930 . S
H113 C94 0.930 . S
H114 C149 0.929 . S
N115 Tb84 2.660 . S
N115 C116 1.305 1_554 S
N115 C120 1.360 . S
C116 H108 0.930 . S
C116 N115 1.305 1_556 S
C116 C119 1.407 . S
C117 H111 0.930 . S
C117 C118 1.410 . S
C117 C119 1.345 . S
C118 C117 1.410 . S
C118 C120 1.417 1_556 S
C118 C150 1.432 . S
C119 H105 0.930 . S
C119 C116 1.407 . S
C119 C117 1.345 . S
C120 N115 1.360 . S
C120 C118 1.417 1_554 S
C120 C124 1.432 . S
H121 C126 0.930 . S
N122 Tb84 2.600 . S
N122 C124 1.359 . S
N122 C125 1.327 . S
C123 H109 0.931 . S
C123 C125 1.392 . S
C123 C126 1.370 . S
C124 C120 1.432 . S
C124 N122 1.359 . S
C124 C127 1.414 . S
C125 H107 0.930 . S
C125 N122 1.327 . S
C125 C123 1.392 . S
C126 H121 0.930 . S
C126 C123 1.370 . S
C126 C127 1.385 . S
C127 C124 1.414 . S
C127 C126 1.385 . S
C127 C149 1.444 . S
O128 Tb84 2.546 . S
O128 C148 1.251 . S
O129 Tb84 2.610 . S
O129 Tb95 2.362 1_554 S
O129 C140 1.283 . S
O130 Tb95 2.421 . S
O130 C147 1.262 . S
O131 Tb84 2.320 . S
O131 C147 1.260 1_554 S
O132 Tb84 2.552 . S
O132 C140 1.243 . S
O133 Tb84 2.413 . S
O133 C148 1.256 . S
O134 Tb95 2.546 . S
O134 C159 1.251 . S
O135 Tb84 2.362 1_556 S
O135 Tb95 2.610 . S
O135 C151 1.283 . S
O136 Tb84 2.421 . S
O136 C158 1.262 . S
O137 Tb95 2.320 . S
O137 C158 1.260 1_556 S
O138 Tb95 2.552 . S
O138 C151 1.243 . S
O139 Tb95 2.413 . S
O139 C159 1.256 . S
C140 O129 1.283 . S
C140 O132 1.243 . S
C141 C143 1.382 . S
C141 C145 1.393 . S
C141 C148 1.500 . S
C142 C143 1.400 . S
C142 C144 1.384 . S
C143 C141 1.382 . S
C143 C142 1.400 . S
C143 H160 0.930 . S
C144 C142 1.384 . S
C144 C146 1.392 . S
C144 H161 0.931 . S
C145 C141 1.393 . S
C145 C146 1.401 . S
C145 H162 0.930 . S
C146 C144 1.392 . S
C146 C145 1.401 . S
C146 H163 0.930 . S
C147 O130 1.262 . S
C147 O131 1.260 1_556 S
C148 Tb84 2.833 . S
C148 O128 1.251 . S
C148 O133 1.256 . S
C148 C141 1.500 . S
C149 H114 0.929 . S
C149 C127 1.444 . S
C149 C150 1.317 1_554 S
C150 H112 0.930 . S
C150 C118 1.432 . S
C150 C149 1.317 1_556 S
C151 O135 1.283 . S
C151 O138 1.243 . S
C152 C153 1.382 . S
C152 C156 1.393 . S
C152 C159 1.500 . S
C153 C152 1.382 . S
C153 C154 1.400 . S
C153 H164 0.930 . S
C154 C153 1.400 . S
C154 C155 1.384 . S
C155 C154 1.384 . S
C155 C157 1.392 . S
C155 H165 0.931 . S
C156 C152 1.393 . S
C156 C157 1.401 . S
C156 H166 0.930 . S
C157 C155 1.392 . S
C157 C156 1.401 . S
C157 H167 0.930 . S
C158 O136 1.262 . S
C158 O137 1.260 1_554 S
C159 Tb95 2.833 . S
C159 O134 1.251 . S
C159 O139 1.256 . S
C159 C152 1.500 . S
H160 C143 0.930 . S
H161 C144 0.931 . S
H162 C145 0.930 . S
H163 C146 0.930 . S
H164 C153 0.930 . S
H165 C155 0.931 . S
H166 C156 0.930 . S
H167 C157 0.930 . S
Tb168 N199 2.660 . S
Tb168 N206 2.600 . S
Tb168 O212 2.546 . S
Tb168 O213 2.610 . S
Tb168 O215 2.320 . S
Tb168 O216 2.552 . S
Tb168 O217 2.413 . S
Tb168 O219 2.362 . S
Tb168 O220 2.421 . S
Tb168 C232 2.833 . S
C169 C172 1.432 . S
C169 C173 1.414 . S
C169 N176 1.359 . S
C170 C172 1.417 . S
C170 C174 1.432 . S
C170 C182 1.410 . S
C171 C173 1.444 . S
C171 C174 1.317 . S
C171 H194 0.929 . S
C172 C169 1.432 . S
C172 C170 1.417 . S
C172 N180 1.360 . S
C173 C169 1.414 . S
C173 C171 1.444 . S
C173 C178 1.385 . S
C174 C170 1.432 . S
C174 C171 1.317 . S
C174 H186 0.930 . S
C175 C177 1.392 . S
C175 C178 1.370 . S
C175 H187 0.931 . S
N176 C169 1.359 . S
N176 C177 1.327 . S
N176 Tb179 2.600 . S
C177 C175 1.392 . S
C177 N176 1.327 . S
C177 H184 0.930 . S
C178 C173 1.385 . S
C178 C175 1.370 . S
C178 H197 0.930 . S
Tb179 N176 2.600 . S
Tb179 N180 2.660 . S
Tb179 O213 2.362 . S
Tb179 O214 2.421 . S
Tb179 O218 2.546 . S
Tb179 O219 2.610 . S
Tb179 O221 2.320 . S
Tb179 O222 2.552 . S
Tb179 O223 2.413 . S
Tb179 C243 2.833 . S
N180 C172 1.360 . S
N180 Tb179 2.660 . S
N180 C181 1.305 . S
C181 N180 1.305 . S
C181 C183 1.407 . S
C181 H188 0.930 . S
C182 C170 1.410 . S
C182 C183 1.345 . S
C182 H190 0.930 . S
C183 C181 1.407 . S
C183 C182 1.345 . S
C183 H185 0.930 . S
H184 C177 0.930 . S
H185 C183 0.930 . S
H186 C174 0.930 . S
H187 C175 0.931 . S
H188 C181 0.930 . S
H189 C203 0.930 . S
H190 C182 0.930 . S
H191 C209 0.930 . S
H192 C200 0.930 . S
H193 C207 0.931 . S
H194 C171 0.929 . S
H195 C201 0.930 . S
H196 C234 0.930 . S
H197 C178 0.930 . S
H198 C233 0.929 . S
N199 Tb168 2.660 . S
N199 C200 1.305 . S
N199 C204 1.360 . S
C200 H192 0.930 . S
C200 N199 1.305 . S
C200 C203 1.407 1_455 S
C201 H195 0.930 . S
C201 C202 1.410 . S
C201 C203 1.345 . S
C202 C201 1.410 . S
C202 C204 1.417 1_655 S
C202 C234 1.432 . S
C203 H189 0.930 . S
C203 C200 1.407 1_655 S
C203 C201 1.345 . S
C204 N199 1.360 . S
C204 C202 1.417 1_455 S
C204 C208 1.432 . S
H205 C210 0.930 . S
N206 Tb168 2.600 . S
N206 C208 1.359 . S
N206 C209 1.327 . S
C207 H193 0.931 . S
C207 C209 1.392 . S
C207 C210 1.370 . S
C208 C204 1.432 . S
C208 N206 1.359 . S
C208 C211 1.414 . S
C209 H191 0.930 . S
C209 N206 1.327 . S
C209 C207 1.392 . S
C210 H205 0.930 . S
C210 C207 1.370 . S
C210 C211 1.385 . S
C211 C208 1.414 . S
C211 C210 1.385 . S
C211 C233 1.444 1_455 S
O212 Tb168 2.546 . S
O212 C232 1.251 . S
O213 Tb168 2.610 . S
O213 Tb179 2.362 . S
O213 C224 1.283 . S
O214 Tb179 2.421 . S
O214 C231 1.262 . S
O215 Tb168 2.320 . S
O215 C231 1.260 . S
O216 Tb168 2.552 . S
O216 C224 1.243 . S
O217 Tb168 2.413 . S
O217 C232 1.256 . S
O218 Tb179 2.546 . S
O218 C243 1.251 . S
O219 Tb168 2.362 . S
O219 Tb179 2.610 . S
O219 C235 1.283 . S
O220 Tb168 2.421 . S
O220 C242 1.262 . S
O221 Tb179 2.320 . S
O221 C242 1.260 . S
O222 Tb179 2.552 . S
O222 C235 1.243 . S
O223 Tb179 2.413 . S
O223 C243 1.256 . S
C224 O213 1.283 . S
C224 O216 1.243 . S
C225 C227 1.382 . S
C225 C229 1.393 . S
C225 C232 1.500 . S
C226 C227 1.400 . S
C226 C228 1.384 . S
C227 C225 1.382 . S
C227 C226 1.400 . S
C227 H244 0.930 . S
C228 C226 1.384 . S
C228 C230 1.392 . S
C228 H245 0.931 . S
C229 C225 1.393 . S
C229 C230 1.401 . S
C229 H246 0.930 . S
C230 C228 1.392 . S
C230 C229 1.401 . S
C230 H247 0.930 . S
C231 O214 1.262 . S
C231 O215 1.260 . S
C232 Tb168 2.833 . S
C232 O212 1.251 . S
C232 O217 1.256 . S
C232 C225 1.500 . S
C233 H198 0.929 . S
C233 C211 1.444 1_655 S
C233 C234 1.317 . S
C234 H196 0.930 . S
C234 C202 1.432 . S
C234 C233 1.317 . S
C235 O219 1.283 . S
C235 O222 1.243 . S
C236 C237 1.382 . S
C236 C240 1.393 . S
C236 C243 1.500 . S
C237 C236 1.382 . S
C237 C238 1.400 . S
C237 H248 0.930 . S
C238 C237 1.400 . S
C238 C239 1.384 . S
C239 C238 1.384 . S
C239 C241 1.392 . S
C239 H249 0.931 . S
C240 C236 1.393 . S
C240 C241 1.401 . S
C240 H250 0.930 . S
C241 C239 1.392 . S
C241 C240 1.401 . S
C241 H251 0.930 . S
C242 O220 1.262 . S
C242 O221 1.260 . S
C243 Tb179 2.833 . S
C243 O218 1.251 . S
C243 O223 1.256 . S
C243 C236 1.500 . S
H244 C227 0.930 . S
H245 C228 0.931 . S
H246 C229 0.930 . S
H247 C230 0.930 . S
H248 C237 0.930 . S
H249 C239 0.931 . S
H250 C240 0.930 . S
H251 C241 0.930 . S
Tb252 N283 2.660 . S
Tb252 N290 2.600 . S
Tb252 O296 2.546 . S
Tb252 O297 2.610 . S
Tb252 O299 2.320 . S
Tb252 O300 2.552 . S
Tb252 O301 2.413 . S
Tb252 O303 2.362 . S
Tb252 O304 2.421 . S
Tb252 C316 2.833 . S
C253 C256 1.432 . S
C253 C257 1.414 . S
C253 N260 1.359 . S
C254 C256 1.417 1_455 S
C254 C258 1.432 . S
C254 C266 1.410 . S
C255 C257 1.444 1_455 S
C255 C258 1.317 . S
C255 H278 0.929 . S
C256 C253 1.432 . S
C256 C254 1.417 1_655 S
C256 N264 1.360 . S
C257 C253 1.414 . S
C257 C255 1.444 1_655 S
C257 C262 1.385 . S
C258 C254 1.432 . S
C258 C255 1.317 . S
C258 H270 0.930 . S
C259 C261 1.392 . S
C259 C262 1.370 . S
C259 H271 0.931 . S
N260 C253 1.359 . S
N260 C261 1.327 . S
N260 Tb263 2.600 . S
C261 C259 1.392 . S
C261 N260 1.327 . S
C261 H268 0.930 . S
C262 C257 1.385 . S
C262 C259 1.370 . S
C262 H281 0.930 . S
Tb263 N260 2.600 . S
Tb263 N264 2.660 . S
Tb263 O297 2.362 . S
Tb263 O298 2.421 . S
Tb263 O302 2.546 . S
Tb263 O303 2.610 . S
Tb263 O305 2.320 . S
Tb263 O306 2.552 . S
Tb263 O307 2.413 . S
Tb263 C327 2.833 . S
N264 C256 1.360 . S
N264 Tb263 2.660 . S
N264 C265 1.305 . S
C265 N264 1.305 . S
C265 C267 1.407 1_655 S
C265 H272 0.930 . S
C266 C254 1.410 . S
C266 C267 1.345 . S
C266 H274 0.930 . S
C267 C265 1.407 1_455 S
C267 C266 1.345 . S
C267 H269 0.930 . S
H268 C261 0.930 . S
H269 C267 0.930 . S
H270 C258 0.930 . S
H271 C259 0.931 . S
H272 C265 0.930 . S
H273 C287 0.930 . S
H274 C266 0.930 . S
H275 C293 0.930 . S
H276 C284 0.930 . S
H277 C291 0.931 . S
H278 C255 0.929 . S
H279 C285 0.930 . S
H280 C318 0.930 . S
H281 C262 0.930 . S
H282 C317 0.929 . S
N283 Tb252 2.660 . S
N283 C284 1.305 . S
N283 C288 1.360 . S
C284 H276 0.930 . S
C284 N283 1.305 . S
C284 C287 1.407 . S
C285 H279 0.930 . S
C285 C286 1.410 . S
C285 C287 1.345 . S
C286 C285 1.410 . S
C286 C288 1.417 . S
C286 C318 1.432 . S
C287 H273 0.930 . S
C287 C284 1.407 . S
C287 C285 1.345 . S
C288 N283 1.360 . S
C288 C286 1.417 . S
C288 C292 1.432 . S
H289 C294 0.930 . S
N290 Tb252 2.600 . S
N290 C292 1.359 . S
N290 C293 1.327 . S
C291 H277 0.931 . S
C291 C293 1.392 . S
C291 C294 1.370 . S
C292 C288 1.432 . S
C292 N290 1.359 . S
C292 C295 1.414 . S
C293 H275 0.930 . S
C293 N290 1.327 . S
C293 C291 1.392 . S
C294 H289 0.930 . S
C294 C291 1.370 . S
C294 C295 1.385 . S
C295 C292 1.414 . S
C295 C294 1.385 . S
C295 C317 1.444 . S
O296 Tb252 2.546 . S
O296 C316 1.251 . S
O297 Tb252 2.610 . S
O297 Tb263 2.362 . S
O297 C308 1.283 . S
O298 Tb263 2.421 . S
O298 C315 1.262 . S
O299 Tb252 2.320 . S
O299 C315 1.260 . S
O300 Tb252 2.552 . S
O300 C308 1.243 . S
O301 Tb252 2.413 . S
O301 C316 1.256 . S
O302 Tb263 2.546 . S
O302 C327 1.251 . S
O303 Tb252 2.362 . S
O303 Tb263 2.610 . S
O303 C319 1.283 . S
O304 Tb252 2.421 . S
O304 C326 1.262 . S
O305 Tb263 2.320 . S
O305 C326 1.260 . S
O306 Tb263 2.552 . S
O306 C319 1.243 . S
O307 Tb263 2.413 . S
O307 C327 1.256 . S
C308 O297 1.283 . S
C308 O300 1.243 . S
C309 C311 1.382 . S
C309 C313 1.393 . S
C309 C316 1.500 . S
C310 C311 1.400 . S
C310 C312 1.384 . S
C311 C309 1.382 . S
C311 C310 1.400 . S
C311 H328 0.930 . S
C312 C310 1.384 . S
C312 C314 1.392 . S
C312 H329 0.931 . S
C313 C309 1.393 . S
C313 C314 1.401 . S
C313 H330 0.930 . S
C314 C312 1.392 . S
C314 C313 1.401 . S
C314 H331 0.930 . S
C315 O298 1.262 . S
C315 O299 1.260 . S
C316 Tb252 2.833 . S
C316 O296 1.251 . S
C316 O301 1.256 . S
C316 C309 1.500 . S
C317 H282 0.929 . S
C317 C295 1.444 . S
C317 C318 1.317 . S
C318 H280 0.930 . S
C318 C286 1.432 . S
C318 C317 1.317 . S
C319 O303 1.283 . S
C319 O306 1.243 . S
C320 C321 1.382 . S
C320 C324 1.393 . S
C320 C327 1.500 . S
C321 C320 1.382 . S
C321 C322 1.400 . S
C321 H332 0.930 . S
C322 C321 1.400 . S
C322 C323 1.384 . S
C323 C322 1.384 . S
C323 C325 1.392 . S
C323 H333 0.931 . S
C324 C320 1.393 . S
C324 C325 1.401 . S
C324 H334 0.930 . S
C325 C323 1.392 . S
C325 C324 1.401 . S
C325 H335 0.930 . S
C326 O304 1.262 . S
C326 O305 1.260 . S
C327 Tb263 2.833 . S
C327 O302 1.251 . S
C327 O307 1.256 . S
C327 C320 1.500 . S
H328 C311 0.930 . S
H329 C312 0.931 . S
H330 C313 0.930 . S
H331 C314 0.930 . S
H332 C321 0.930 . S
H333 C323 0.931 . S
H334 C324 0.930 . S
H335 C325 0.930 . S
H336 C344 0.929 . S
H337 C346 0.930 . S
H338 C348 0.930 . S
H339 C351 0.929 . S
H340 C354 0.930 . S
H341 C356 0.962 . S
H342 C356 0.948 1_556 S
H343 C356 0.965 . S
C344 H336 0.929 . S
C344 C345 1.383 . S
C344 C346 1.384 . S
C345 C344 1.383 . S
C345 C351 1.378 1_556 S
C346 H337 0.930 . S
C346 C344 1.384 . S
C346 C347 1.400 . S
C347 C346 1.400 . S
C347 C348 1.387 1_556 S
C347 C352 1.482 . S
C348 H338 0.930 . S
C348 C347 1.387 1_554 S
C348 C351 1.386 . S
H349 C365 0.930 . S
H350 C366 0.931 . S
C351 H339 0.929 . S
C351 C345 1.378 1_554 S
C351 C348 1.386 . S
C352 C347 1.482 . S
C352 C354 1.388 . S
C352 C355 1.402 1_556 S
H353 C359 0.930 . S
C354 H340 0.930 . S
C354 C352 1.388 . S
C354 C357 1.403 . S
C355 C352 1.402 1_554 S
C355 C356 1.515 . S
C355 C359 1.416 . S
C356 H341 0.962 . S
C356 H342 0.948 1_554 S
C356 H343 0.965 . S
C356 C355 1.515 . S
C357 C354 1.403 . S
C357 C358 1.392 1_556 S
C357 C361 1.495 . S
C358 C357 1.392 1_554 S
C358 C359 1.385 . S
C358 C360 1.478 . S
C359 H353 0.930 . S
C359 C355 1.416 . S
C359 C358 1.385 . S
C360 C358 1.478 . S
C360 C362 1.381 1_554 S
C360 C366 1.383 . S
C361 C357 1.495 . S
C361 H367 0.959 . S
C361 H368 0.961 1_556 S
C361 H369 0.960 . S
C362 C360 1.381 1_556 S
C362 C363 1.394 . S
C362 H370 0.930 . S
C363 C362 1.394 . S
C363 C364 1.383 1_556 S
C363 H371 0.929 . S
C364 C363 1.383 1_554 S
C364 C365 1.377 . S
C365 H349 0.930 . S
C365 C364 1.377 . S
C365 C366 1.379 . S
C366 H350 0.931 . S
C366 C360 1.383 . S
C366 C365 1.379 . S
H367 C361 0.959 . S
H368 C361 0.961 1_554 S
H369 C361 0.960 . S
H370 C362 0.930 . S
H371 C363 0.929 . S
H372 C380 0.929 . S
H373 C382 0.930 . S
H374 C384 0.930 . S
H375 C387 0.929 . S
H376 C390 0.930 . S
H377 C392 0.960 . S
H378 C392 0.960 . S
H379 C392 0.960 . S
C380 H372 0.929 . S
C380 C381 1.377 . S
C380 C382 1.384 . S
C381 C380 1.377 . S
C381 C387 1.390 . S
C382 H373 0.930 . S
C382 C380 1.384 . S
C382 C383 1.372 . S
C383 C382 1.372 . S
C383 C384 1.400 . S
C383 C388 1.490 . S
C384 H374 0.930 . S
C384 C383 1.400 . S
C384 C387 1.386 . S
H385 C401 0.930 . S
H386 C402 0.931 . S
C387 H375 0.929 . S
C387 C381 1.390 . S
C387 C384 1.386 . S
C388 C383 1.490 . S
C388 C390 1.395 . S
C388 C391 1.403 . S
H389 C395 0.930 . S
C390 H376 0.930 . S
C390 C388 1.395 . S
C390 C393 1.403 . S
C391 C388 1.403 . S
C391 C392 1.524 . S
C391 C395 1.400 . S
C392 H377 0.960 . S
C392 H378 0.960 . S
C392 H379 0.960 . S
C392 C391 1.524 . S
C393 C390 1.403 . S
C393 C394 1.392 . S
C393 C397 1.495 . S
C394 C393 1.392 . S
C394 C395 1.385 . S
C394 C396 1.478 . S
C395 H389 0.930 . S
C395 C391 1.400 . S
C395 C394 1.385 . S
C396 C394 1.478 . S
C396 C398 1.381 . S
C396 C402 1.383 . S
C397 C393 1.495 . S
C397 H403 0.959 . S
C397 H404 0.961 . S
C397 H405 0.960 . S
C398 C396 1.381 . S
C398 C399 1.394 . S
C398 H406 0.930 . S
C399 C398 1.394 . S
C399 C400 1.383 . S
C399 H407 0.929 . S
C400 C399 1.383 . S
C400 C401 1.377 . S
C401 H385 0.930 . S
C401 C400 1.377 . S
C401 C402 1.379 . S
C402 H386 0.931 . S
C402 C396 1.383 . S
C402 C401 1.379 . S
H403 C397 0.959 . S
H404 C397 0.961 . S
H405 C397 0.960 . S
H406 C398 0.930 . S
H407 C399 0.929 . S
H408 C416 0.929 . S
H409 C418 0.930 . S
H410 C420 0.930 . S
H411 C423 0.929 . S
H412 C426 0.930 . S
H413 C428 0.960 1_565 S
H414 C428 0.960 . S
H415 C428 0.960 . S
C416 H408 0.929 . S
C416 C417 1.388 . S
C416 C418 1.384 . S
C417 C416 1.388 . S
C417 C423 1.389 1_554 S
C418 H409 0.930 . S
C418 C416 1.384 . S
C418 C419 1.372 . S
C419 C418 1.372 . S
C419 C420 1.400 1_554 S
C419 C424 1.490 . S
C420 H410 0.930 . S
C420 C419 1.400 1_556 S
C420 C423 1.386 . S
H421 C437 0.930 . S
H422 C438 0.931 . S
C423 H411 0.929 . S
C423 C417 1.389 1_556 S
C423 C420 1.386 . S
C424 C419 1.490 . S
C424 C426 1.395 1_454 S
C424 C427 1.403 . S
H425 C431 0.930 . S
C426 H412 0.930 . S
C426 C424 1.395 1_656 S
C426 C429 1.403 1_545 S
C427 C424 1.403 . S
C427 C428 1.524 . S
C427 C431 1.400 1_545 S
C428 H413 0.960 1_545 S
C428 H414 0.960 . S
C428 H415 0.960 . S
C428 C427 1.524 . S
C429 C426 1.403 1_565 S
C429 C430 1.379 1_556 S
C429 C433 1.495 . S
C430 C429 1.379 1_554 S
C430 C431 1.392 1_655 S
C430 C432 1.485 . S
C431 H425 0.930 . S
C431 C427 1.400 1_565 S
C431 C430 1.392 1_455 S
C432 C430 1.485 . S
C432 C434 1.381 . S
C432 C438 1.383 1_554 S
C433 C429 1.495 . S
C433 H439 0.959 1_565 S
C433 H440 0.961 . S
C433 H441 0.960 . S
C434 C432 1.381 . S
C434 C435 1.394 . S
C434 H442 0.930 . S
C435 C434 1.394 . S
C435 C436 1.383 . S
C435 H443 0.929 . S
C436 C435 1.383 . S
C436 C437 1.377 1_554 S
C437 H421 0.930 . S
C437 C436 1.377 1_556 S
C437 C438 1.379 . S
C438 H422 0.931 . S
C438 C432 1.383 1_556 S
C438 C437 1.379 . S
H439 C433 0.959 1_545 S
H440 C433 0.961 . S
H441 C433 0.960 . S
H442 C434 0.930 . S
H443 C435 0.929 . S
H444 C452 0.929 . S
H445 C454 0.930 . S
H446 C456 0.930 . S
H447 C459 0.929 . S
H448 C462 0.930 . S
H449 C464 0.960 . S
H450 C464 0.960 . S
H451 C464 0.960 . S
C452 H444 0.929 . S
C452 C453 1.377 . S
C452 C454 1.384 . S
C453 C452 1.377 . S
C453 C459 1.390 . S
C454 H445 0.930 . S
C454 C452 1.384 . S
C454 C455 1.372 . S
C455 C454 1.372 . S
C455 C456 1.400 . S
C455 C460 1.490 . S
C456 H446 0.930 . S
C456 C455 1.400 . S
C456 C459 1.386 . S
H457 C473 0.930 . S
H458 C474 0.931 . S
C459 H447 0.929 . S
C459 C453 1.390 . S
C459 C456 1.386 . S
C460 C455 1.490 . S
C460 C462 1.395 . S
C460 C463 1.403 1_655 S
H461 C467 0.930 . S
C462 H448 0.930 . S
C462 C460 1.395 . S
C462 C465 1.403 1_545 S
C463 C460 1.403 1_455 S
C463 C464 1.524 . S
C463 C467 1.400 1_545 S
C464 H449 0.960 . S
C464 H450 0.960 . S
C464 H451 0.960 . S
C464 C463 1.524 . S
C465 C462 1.403 1_565 S
C465 C466 1.392 1_655 S
C465 C469 1.495 . S
C466 C465 1.392 1_455 S
C466 C467 1.385 . S
C466 C468 1.478 . S
C467 H461 0.930 . S
C467 C463 1.400 1_565 S
C467 C466 1.385 . S
C468 C466 1.478 . S
C468 C470 1.381 . S
C468 C474 1.383 . S
C469 C465 1.495 . S
C469 H475 0.959 . S
C469 H476 0.961 . S
C469 H477 0.960 . S
C470 C468 1.381 . S
C470 C471 1.394 . S
C470 H478 0.930 . S
C471 C470 1.394 . S
C471 C472 1.383 . S
C471 H479 0.929 . S
C472 C471 1.383 . S
C472 C473 1.377 . S
C473 H457 0.930 . S
C473 C472 1.377 . S
C473 C474 1.379 . S
C474 H458 0.931 . S
C474 C468 1.383 . S
C474 C473 1.379 . S
H475 C469 0.959 . S
H476 C469 0.961 . S
H477 C469 0.960 . S
H478 C470 0.930 . S
H479 C471 0.929 . S
H480 C488 0.929 . S
H481 C490 0.930 . S
H482 C492 0.930 . S
H483 C495 0.929 . S
H484 C498 0.930 . S
H485 C500 0.960 . S
H486 C500 0.960 . S
H487 C500 0.960 . S
C488 H480 0.929 . S
C488 C489 1.377 . S
C488 C490 1.384 . S
C489 C488 1.377 . S
C489 C495 1.390 . S
C490 H481 0.930 . S
C490 C488 1.384 . S
C490 C491 1.372 . S
C491 C490 1.372 . S
C491 C492 1.400 . S
C491 C496 1.490 . S
C492 H482 0.930 . S
C492 C491 1.400 . S
C492 C495 1.386 . S
H493 C509 0.930 . S
H494 C510 0.931 . S
C495 H483 0.929 . S
C495 C489 1.390 . S
C495 C492 1.386 . S
C496 C491 1.490 . S
C496 C498 1.395 . S
C496 C499 1.403 . S
H497 C503 0.930 . S
C498 H484 0.930 . S
C498 C496 1.395 . S
C498 C501 1.403 . S
C499 C496 1.403 . S
C499 C500 1.524 . S
C499 C503 1.400 . S
C500 H485 0.960 . S
C500 H486 0.960 . S
C500 H487 0.960 . S
C500 C499 1.524 . S
C501 C498 1.403 . S
C501 C502 1.392 . S
C501 C505 1.495 . S
C502 C501 1.392 . S
C502 C503 1.385 . S
C502 C504 1.478 . S
C503 H497 0.930 . S
C503 C499 1.400 . S
C503 C502 1.385 . S
C504 C502 1.478 . S
C504 C506 1.381 . S
C504 C510 1.383 . S
C505 C501 1.495 . S
C505 H511 0.959 . S
C505 H512 0.961 . S
C505 H513 0.960 . S
C506 C504 1.381 . S
C506 C507 1.394 . S
C506 H514 0.930 . S
C507 C506 1.394 . S
C507 C508 1.383 . S
C507 H515 0.929 . S
C508 C507 1.383 . S
C508 C509 1.377 . S
C509 H493 0.930 . S
C509 C508 1.377 . S
C509 C510 1.379 . S
C510 H494 0.931 . S
C510 C504 1.383 . S
C510 C509 1.379 . S
H511 C505 0.959 . S
H512 C505 0.961 . S
H513 C505 0.960 . S
H514 C506 0.930 . S
H515 C507 0.929 . S
H516 C524 0.929 . S
H517 C526 0.930 . S
H518 C528 0.930 . S
H519 C531 0.929 . S
H520 C534 0.930 . S
H521 C536 0.960 . S
H522 C536 0.960 . S
H523 C536 0.960 . S
C524 H516 0.929 . S
C524 C525 1.377 . S
C524 C526 1.384 . S
C525 C524 1.377 . S
C525 C531 1.390 . S
C526 H517 0.930 . S
C526 C524 1.384 . S
C526 C527 1.372 . S
C527 C526 1.372 . S
C527 C528 1.400 . S
C527 C532 1.490 . S
C528 H518 0.930 . S
C528 C527 1.400 . S
C528 C531 1.386 . S
H529 C545 0.930 . S
H530 C546 0.931 . S
C531 H519 0.929 . S
C531 C525 1.390 . S
C531 C528 1.386 . S
C532 C527 1.490 . S
C532 C534 1.395 . S
C532 C535 1.403 . S
H533 C539 0.930 . S
C534 H520 0.930 . S
C534 C532 1.395 . S
C534 C537 1.403 . S
C535 C532 1.403 . S
C535 C536 1.524 . S
C535 C539 1.400 . S
C536 H521 0.960 . S
C536 H522 0.960 . S
C536 H523 0.960 . S
C536 C535 1.524 . S
C537 C534 1.403 . S
C537 C538 1.392 . S
C537 C541 1.495 . S
C538 C537 1.392 . S
C538 C539 1.385 . S
C538 C540 1.478 . S
C539 H533 0.930 . S
C539 C535 1.400 . S
C539 C538 1.385 . S
C540 C538 1.478 . S
C540 C542 1.381 . S
C540 C546 1.383 . S
C541 C537 1.495 . S
C541 H547 0.959 . S
C541 H548 0.961 . S
C541 H549 0.960 . S
C542 C540 1.381 . S
C542 C543 1.394 . S
C542 H550 0.930 . S
C543 C542 1.394 . S
C543 C544 1.383 . S
C543 H551 0.929 . S
C544 C543 1.383 . S
C544 C545 1.377 . S
C545 H529 0.930 . S
C545 C544 1.377 . S
C545 C546 1.379 . S
C546 H530 0.931 . S
C546 C540 1.383 . S
C546 C545 1.379 . S
H547 C541 0.959 . S
H548 C541 0.961 . S
H549 C541 0.960 . S
H550 C542 0.930 . S
H551 C543 0.929 . S
H552 C560 0.929 . S
H553 C562 0.930 . S
H554 C564 0.930 . S
H555 C567 0.929 . S
H556 C570 0.930 . S
H557 C572 0.960 . S
H558 C572 0.960 . S
H559 C572 0.960 . S
C560 H552 0.929 . S
C560 C561 1.377 . S
C560 C562 1.384 . S
C561 C560 1.377 . S
C561 C567 1.390 . S
C562 H553 0.930 . S
C562 C560 1.384 . S
C562 C563 1.372 . S
C563 C562 1.372 . S
C563 C564 1.400 . S
C563 C568 1.490 . S
C564 H554 0.930 . S
C564 C563 1.400 . S
C564 C567 1.386 . S
H565 C581 0.930 . S
H566 C582 0.931 . S
C567 H555 0.929 . S
C567 C561 1.390 . S
C567 C564 1.386 . S
C568 C563 1.490 . S
C568 C570 1.395 . S
C568 C571 1.403 . S
H569 C575 0.930 . S
C570 H556 0.930 . S
C570 C568 1.395 . S
C570 C573 1.403 . S
C571 C568 1.403 . S
C571 C572 1.524 . S
C571 C575 1.400 . S
C572 H557 0.960 . S
C572 H558 0.960 . S
C572 H559 0.960 . S
C572 C571 1.524 . S
C573 C570 1.403 . S
C573 C574 1.392 . S
C573 C577 1.495 . S
C574 C573 1.392 . S
C574 C575 1.385 . S
C574 C576 1.478 . S
C575 H569 0.930 . S
C575 C571 1.400 . S
C575 C574 1.385 . S
C576 C574 1.478 . S
C576 C578 1.381 . S
C576 C582 1.383 . S
C577 C573 1.495 . S
C577 H583 0.959 . S
C577 H584 0.961 . S
C577 H585 0.960 . S
C578 C576 1.381 . S
C578 C579 1.394 . S
C578 H586 0.930 . S
C579 C578 1.394 . S
C579 C580 1.383 . S
C579 H587 0.929 . S
C580 C579 1.383 . S
C580 C581 1.377 . S
C581 H565 0.930 . S
C581 C580 1.377 . S
C581 C582 1.379 . S
C582 H566 0.931 . S
C582 C576 1.383 . S
C582 C581 1.379 . S
H583 C577 0.959 . S
H584 C577 0.961 . S
H585 C577 0.960 . S
H586 C578 0.930 . S
H587 C579 0.929 . S
H588 C596 0.929 . S
H589 C598 0.930 . S
H590 C600 0.930 . S
H591 C603 0.929 . S
H592 C606 0.930 . S
H593 C608 0.960 . S
H594 C608 0.960 . S
H595 C608 0.960 . S
C596 H588 0.929 . S
C596 C597 1.377 . S
C596 C598 1.384 . S
C597 C596 1.377 . S
C597 C603 1.390 . S
C598 H589 0.930 . S
C598 C596 1.384 . S
C598 C599 1.372 . S
C599 C598 1.372 . S
C599 C600 1.400 . S
C599 C604 1.490 . S
C600 H590 0.930 . S
C600 C599 1.400 . S
C600 C603 1.386 . S
H601 C617 0.930 . S
H602 C618 0.931 . S
C603 H591 0.929 . S
C603 C597 1.390 . S
C603 C600 1.386 . S
C604 C599 1.490 . S
C604 C606 1.395 . S
C604 C607 1.403 . S
H605 C611 0.930 . S
C606 H592 0.930 . S
C606 C604 1.395 . S
C606 C609 1.403 . S
C607 C604 1.403 . S
C607 C608 1.524 . S
C607 C611 1.400 . S
C608 H593 0.960 . S
C608 H594 0.960 . S
C608 H595 0.960 . S
C608 C607 1.524 . S
C609 C606 1.403 . S
C609 C610 1.392 . S
C609 C613 1.495 . S
C610 C609 1.392 . S
C610 C611 1.385 . S
C610 C612 1.478 . S
C611 H605 0.930 . S
C611 C607 1.400 . S
C611 C610 1.385 . S
C612 C610 1.478 . S
C612 C614 1.381 . S
C612 C618 1.383 . S
C613 C609 1.495 . S
C613 H619 0.959 . S
C613 H620 0.961 . S
C613 H621 0.960 . S
C614 C612 1.381 . S
C614 C615 1.394 . S
C614 H622 0.930 . S
C615 C614 1.394 . S
C615 C616 1.383 . S
C615 H623 0.929 . S
C616 C615 1.383 . S
C616 C617 1.377 . S
C617 H601 0.930 . S
C617 C616 1.377 . S
C617 C618 1.379 . S
C618 H602 0.931 . S
C618 C612 1.383 . S
C618 C617 1.379 . S
H619 C613 0.959 . S
H620 C613 0.961 . S
H621 C613 0.960 . S
H622 C614 0.930 . S
H623 C615 0.929 . S
H624 C632 0.929 . S
H625 C634 0.930 . S
H626 C636 0.930 . S
H627 C639 0.929 . S
H628 C642 0.930 . S
H629 C644 0.960 . S
H630 C644 0.960 . S
H631 C644 0.960 1_655 S
C632 H624 0.929 . S
C632 C633 1.377 . S
C632 C634 1.384 . S
C633 C632 1.377 . S
C633 C639 1.390 . S
C634 H625 0.930 . S
C634 C632 1.384 . S
C634 C635 1.372 . S
C635 C634 1.372 . S
C635 C636 1.400 . S
C635 C640 1.490 . S
C636 H626 0.930 . S
C636 C635 1.400 . S
C636 C639 1.386 . S
H637 C653 0.930 . S
H638 C654 0.931 . S
C639 H627 0.929 . S
C639 C633 1.390 . S
C639 C636 1.386 . S
C640 C635 1.490 . S
C640 C642 1.395 . S
C640 C643 1.403 . S
H641 C647 0.930 1_455 S
C642 H628 0.930 . S
C642 C640 1.395 . S
C642 C645 1.403 . S
C643 C640 1.403 . S
C643 C644 1.524 1_655 S
C643 C647 1.400 . S
C644 H629 0.960 . S
C644 H630 0.960 . S
C644 H631 0.960 1_455 S
C644 C643 1.524 1_455 S
C645 C642 1.403 . S
C645 C646 1.392 . S
C645 C649 1.495 . S
C646 C645 1.392 . S
C646 C647 1.385 . S
C646 C648 1.478 . S
C647 H641 0.930 1_655 S
C647 C643 1.400 . S
C647 C646 1.385 . S
C648 C646 1.478 . S
C648 C650 1.382 . S
C648 C654 1.383 . S
C649 C645 1.495 . S
C649 H655 0.959 . S
C649 H656 0.961 . S
C649 H657 0.960 . S
C650 C648 1.382 . S
C650 C651 1.393 1_655 S
C650 H658 0.930 1_655 S
C651 C650 1.393 1_455 S
C651 C652 1.383 . S
C651 H659 0.929 . S
C652 C651 1.383 . S
C652 C653 1.377 1_455 S
C653 H637 0.930 . S
C653 C652 1.377 1_655 S
C653 C654 1.379 . S
C654 H638 0.931 . S
C654 C648 1.383 . S
C654 C653 1.379 . S
H655 C649 0.959 . S
H656 C649 0.961 . S
H657 C649 0.960 . S
H658 C650 0.930 1_455 S
H659 C651 0.929 . S
H660 C668 0.929 . S
H661 C670 0.930 . S
H662 C672 0.930 . S
H663 C675 0.929 . S
H664 C678 0.930 . S
H665 C680 0.960 . S
H666 C680 0.960 . S
H667 C680 0.960 1_655 S
C668 H660 0.929 . S
C668 C669 1.377 . S
C668 C670 1.384 . S
C669 C668 1.377 . S
C669 C675 1.390 . S
C670 H661 0.930 . S
C670 C668 1.384 . S
C670 C671 1.372 . S
C671 C670 1.372 . S
C671 C672 1.400 . S
C671 C676 1.490 . S
C672 H662 0.930 . S
C672 C671 1.400 . S
C672 C675 1.386 . S
H673 C689 0.930 . S
H674 C690 0.931 . S
C675 H663 0.929 . S
C675 C669 1.390 . S
C675 C672 1.386 . S
C676 C671 1.490 . S
C676 C678 1.395 . S
C676 C679 1.403 . S
H677 C683 0.930 1_455 S
C678 H664 0.930 . S
C678 C676 1.395 . S
C678 C681 1.403 . S
C679 C676 1.403 . S
C679 C680 1.524 1_655 S
C679 C683 1.400 . S
C680 H665 0.960 . S
C680 H666 0.960 . S
C680 H667 0.960 1_455 S
C680 C679 1.524 1_455 S
C681 C678 1.403 . S
C681 C682 1.392 . S
C681 C685 1.495 . S
C682 C681 1.392 . S
C682 C683 1.385 . S
C682 C684 1.478 . S
C683 H677 0.930 1_655 S
C683 C679 1.400 . S
C683 C682 1.385 . S
C684 C682 1.478 . S
C684 C686 1.381 . S
C684 C690 1.383 . S
C685 C681 1.495 . S
C685 H691 0.959 . S
C685 H692 0.961 . S
C685 H693 0.960 . S
C686 C684 1.381 . S
C686 C687 1.394 1_655 S
C686 H694 0.930 . S
C687 C686 1.394 1_455 S
C687 C688 1.383 . S
C687 H695 0.929 . S
C688 C687 1.383 . S
C688 C689 1.377 . S
C689 H673 0.930 . S
C689 C688 1.377 . S
C689 C690 1.379 1_455 S
C690 H674 0.931 . S
C690 C684 1.383 . S
C690 C689 1.379 1_655 S
H691 C685 0.959 . S
H692 C685 0.961 . S
H693 C685 0.960 . S
H694 C686 0.930 . S
H695 C687 0.929 . S
H696 C704 0.929 . S
H697 C706 0.930 . S
H698 C708 0.930 . S
H699 C711 0.929 . S
H700 C714 0.930 1_655 S
H701 C716 0.960 . S
H702 C716 0.960 . S
H703 C716 0.960 . S
C704 H696 0.929 . S
C704 C705 1.377 . S
C704 C706 1.384 . S
C705 C704 1.377 . S
C705 C711 1.390 1_655 S
C706 H697 0.930 . S
C706 C704 1.384 . S
C706 C707 1.372 1_655 S
C707 C706 1.372 1_455 S
C707 C708 1.400 . S
C707 C712 1.490 . S
C708 H698 0.930 . S
C708 C707 1.400 . S
C708 C711 1.386 . S
H709 C725 0.930 . S
H710 C726 0.931 . S
C711 H699 0.929 . S
C711 C705 1.390 1_455 S
C711 C708 1.386 . S
C712 C707 1.490 . S
C712 C714 1.395 . S
C712 C715 1.403 . S
H713 C719 0.930 . S
C714 H700 0.930 1_455 S
C714 C712 1.395 . S
C714 C717 1.403 . S
C715 C712 1.403 . S
C715 C716 1.524 . S
C715 C719 1.400 . S
C716 H701 0.960 . S
C716 H702 0.960 . S
C716 H703 0.960 . S
C716 C715 1.524 . S
C717 C714 1.403 . S
C717 C718 1.392 . S
C717 C721 1.495 . S
C718 C717 1.392 . S
C718 C719 1.385 . S
C718 C720 1.478 . S
C719 H713 0.930 . S
C719 C715 1.400 . S
C719 C718 1.385 . S
C720 C718 1.478 . S
C720 C722 1.381 . S
C720 C726 1.383 . S
C721 C717 1.495 . S
C721 H727 0.959 1_455 S
C721 H728 0.961 . S
C721 H729 0.960 1_455 S
C722 C720 1.381 . S
C722 C723 1.394 . S
C722 H730 0.930 . S
C723 C722 1.394 . S
C723 C724 1.383 . S
C723 H731 0.929 . S
C724 C723 1.383 . S
C724 C725 1.377 . S
C725 H709 0.930 . S
C725 C724 1.377 . S
C725 C726 1.379 . S
C726 H710 0.931 . S
C726 C720 1.383 . S
C726 C725 1.379 . S
H727 C721 0.959 1_655 S
H728 C721 0.961 . S
H729 C721 0.960 1_655 S
H730 C722 0.930 . S
H731 C723 0.929 . S
H732 C740 0.929 . S
H733 C742 0.930 . S
H734 C744 0.930 . S
H735 C747 0.929 . S
H736 C750 0.930 . S
H737 C752 0.960 . S
H738 C752 0.960 . S
H739 C752 0.960 . S
C740 H732 0.929 . S
C740 C741 1.377 . S
C740 C742 1.384 . S
C741 C740 1.377 . S
C741 C747 1.390 . S
C742 H733 0.930 . S
C742 C740 1.384 . S
C742 C743 1.372 . S
C743 C742 1.372 . S
C743 C744 1.400 . S
C743 C748 1.490 . S
C744 H734 0.930 . S
C744 C743 1.400 . S
C744 C747 1.386 . S
H745 C761 0.930 . S
H746 C762 0.931 . S
C747 H735 0.929 . S
C747 C741 1.390 . S
C747 C744 1.386 . S
C748 C743 1.490 . S
C748 C750 1.395 . S
C748 C751 1.403 . S
H749 C755 0.930 1_655 S
C750 H736 0.930 . S
C750 C748 1.395 . S
C750 C753 1.403 . S
C751 C748 1.403 . S
C751 C752 1.524 1_455 S
C751 C755 1.400 . S
C752 H737 0.960 . S
C752 H738 0.960 . S
C752 H739 0.960 . S
C752 C751 1.524 1_655 S
C753 C750 1.403 . S
C753 C754 1.392 . S
C753 C757 1.495 . S
C754 C753 1.392 . S
C754 C755 1.385 . S
C754 C756 1.478 . S
C755 H749 0.930 1_455 S
C755 C751 1.400 . S
C755 C754 1.385 . S
C756 C754 1.478 . S
C756 C758 1.381 . S
C756 C762 1.383 1_455 S
C757 C753 1.495 . S
C757 H763 0.959 . S
C757 H764 0.961 . S
C757 H765 0.960 . S
C758 C756 1.381 . S
C758 C759 1.394 . S
C758 H766 0.930 . S
C759 C758 1.394 . S
C759 C760 1.383 1_455 S
C759 H767 0.929 . S
C760 C759 1.383 1_655 S
C760 C761 1.377 . S
C761 H745 0.930 . S
C761 C760 1.377 . S
C761 C762 1.379 . S
C762 H746 0.931 . S
C762 C756 1.383 1_655 S
C762 C761 1.379 . S
H763 C757 0.959 . S
H764 C757 0.961 . S
H765 C757 0.960 . S
H766 C758 0.930 . S
H767 C759 0.929 . S
C345 C147 1.500 . S
C364 C74 1.473 . S
C381 C242 1.500 . S
C400 C315 1.514 . S
C417 C63 1.486 1_554 S
C436 C158 1.516 . S
C453 C326 1.496 . S
C472 C231 1.472 . S
C489 C310 1.098 . S
C508 C56 1.061 . S
C525 C142 1.098 . S
C544 C224 1.066 . S
C561 C151 1.118 . S
C580 C238 1.093 . S
C597 C319 1.118 . S
C616 C70 1.075 . S
C633 C140 1.112 . S
C652 C226 1.125 . S
C669 C308 1.109 . S
C688 C58 1.113 . S
C705 C322 1.100 . S
C724 C67 1.099 . S
C741 C235 1.116 . S
C760 C154 1.113 . S
