# Generated by pormake.
# Topology snp, (6)-cn, num edge types: 1
# Building blocks:
#     Node 0, Type 0, BuildingBlock: PAMTUU_clean_sbu_0, # of connection points: 6
#     Node 1, Type 0, BuildingBlock: PAMTUU_clean_sbu_0, # of connection points: 6
#     Node 2, Type 0, BuildingBlock: PAMTUU_clean_sbu_0, # of connection points: 6
#     Node 3, Type 0, BuildingBlock: PAMTUU_clean_sbu_0, # of connection points: 6
#     Edge 4, Type (0, 0), BuildingBlock: FUNLAD_clean_linker_1, # of connection points: 2
#     Edge 5, Type (0, 0), BuildingBlock: FUNLAD_clean_linker_1, # of connection points: 2
#     Edge 6, Type (0, 0), BuildingBlock: FUNLAD_clean_linker_1, # of connection points: 2
#     Edge 7, Type (0, 0), BuildingBlock: FUNLAD_clean_linker_1, # of connection points: 2
#     Edge 8, Type (0, 0), BuildingBlock: FUNLAD_clean_linker_1, # of connection points: 2
#     Edge 9, Type (0, 0), BuildingBlock: FUNLAD_clean_linker_1, # of connection points: 2
#     Edge 10, Type (0, 0), BuildingBlock: FUNLAD_clean_linker_1, # of connection points: 2
#     Edge 11, Type (0, 0), BuildingBlock: FUNLAD_clean_linker_1, # of connection points: 2
#     Edge 12, Type (0, 0), BuildingBlock: FUNLAD_clean_linker_1, # of connection points: 2
#     Edge 13, Type (0, 0), BuildingBlock: FUNLAD_clean_linker_1, # of connection points: 2
#     Edge 14, Type (0, 0), BuildingBlock: FUNLAD_clean_linker_1, # of connection points: 2
#     Edge 15, Type (0, 0), BuildingBlock: FUNLAD_clean_linker_1, # of connection points: 2
# Relax obj value: 0.397
# Max RMSD: 0.233
# Mean RMSD: 0.220
data_MOF--net-snp--node1-PAMTUU_clean_sbu_0--edge1-FUNLAD_clean_linker_1
_symmetry_space_group_name_H-M    P1
_symmetry_Int_Tables_number       1
_symmetry_cell_setting            triclinic
loop_
_symmetry_equiv_pos_as_xyz
'x, y, z'
_cell_length_a     28.052057
_cell_length_b     27.261883
_cell_length_c     33.274728
_cell_angle_alpha  95.604965
_cell_angle_beta   84.36979
_cell_angle_gamma 100.99058
loop_
_atom_site_label
_atom_site_type_symbol
_atom_site_fract_x
_atom_site_fract_y
_atom_site_fract_z
_atom_type_partial_charge
Tb0 Tb 0.1908 0.931 0.25689 0.0
Tb1 Tb 0.24848 0.04401 0.2828 0.0
C2 C 0.13503 0.02304 0.28339 0.0
C3 C 0.16849 0.8084 0.19867 0.0
C4 C 0.19138 0.75757 0.12396 0.0
C5 C 0.14383 0.74783 0.14293 0.0
C6 C 0.13248 0.77328 0.18005 0.0
C7 C 0.21677 0.8152 0.18137 0.0
C8 C 0.22822 0.78946 0.1444 0.0
C9 C 0.15428 0.84246 0.2326 0.0
O10 O 0.20906 0.9679 0.2 0.0
O11 O 0.22671 0.05175 0.22236 0.0
O12 O 0.29757 0.00438 0.24358 0.0
O13 O 0.26648 0.92746 0.26395 0.0
O14 O 0.26329 0.12288 0.28942 0.0
O15 O 0.3141 0.07951 0.30619 0.0
O16 O 0.22355 0.00808 0.34033 0.0
O17 O 0.16804 0.93804 0.32073 0.0
O18 O 0.13399 0.97555 0.27083 0.0
O19 O 0.17452 0.05518 0.29179 0.0
C20 C 0.21429 0.01584 0.19368 0.0
O21 O 0.18373 0.85359 0.26143 0.0
O22 O 0.14077 0.88213 0.222 0.0
C23 C 0.30319 0.9592 0.24897 0.0
C24 C 0.30663 0.15432 0.34638 0.0
C25 C 0.30612 0.21247 0.42121 0.0
C26 C 0.31001 0.23526 0.38466 0.0
C27 C 0.31059 0.20646 0.34753 0.0
C28 C 0.30389 0.13152 0.38279 0.0
C29 C 0.30381 0.16027 0.41982 0.0
C30 C 0.30277 0.12393 0.30739 0.0
C31 C 0.18815 0.9699 0.349 0.0
H32 H 0.11495 0.72262 0.12807 0.0
H33 H 0.09507 0.76763 0.19306 0.0
H34 H 0.24504 0.84248 0.19524 0.0
H35 H 0.26505 0.79752 0.1303 0.0
H36 H 0.31116 0.27524 0.38488 0.0
H37 H 0.3126 0.22471 0.31974 0.0
H38 H 0.30024 0.09124 0.38282 0.0
H39 H 0.29923 0.14081 0.44713 0.0
Tb40 Tb 0.06184 0.2629 0.76842 0.0
Tb41 Tb 0.02277 0.25587 0.67159 0.0
C42 C 0.03268 0.3567 0.73271 0.0
C43 C 0.1056 0.23175 0.86989 0.0
C44 C 0.14014 0.19144 0.93613 0.0
C45 C 0.16423 0.23703 0.92099 0.0
C46 C 0.14733 0.2568 0.88861 0.0
C47 C 0.08198 0.1854 0.88423 0.0
C48 C 0.09901 0.16547 0.91667 0.0
C49 C 0.08306 0.25814 0.84082 0.0
O50 O -0.01594 0.26077 0.76913 0.0
O51 O -0.0312 0.21077 0.71079 0.0
O52 O 0.06276 0.19508 0.67229 0.0
O53 O 0.05664 0.18693 0.74134 0.0
O54 O 0.03429 0.24308 0.60775 0.0
O55 O -0.03332 0.26163 0.63532 0.0
O56 O 0.09422 0.30342 0.67407 0.0
O57 O 0.12529 0.26937 0.72457 0.0
O58 O 0.05643 0.3396 0.75915 0.0
O59 O 0.01314 0.32916 0.70131 0.0
C60 C 0.95488 0.22713 0.74762 0.0
O61 O 0.04273 0.23516 0.82581 0.0
O62 O 0.11075 0.2859 0.81454 0.0
C63 C 0.06861 0.17167 0.70368 0.0
C64 C -0.03605 0.2182 0.56798 0.0
C65 C 0.91279 0.17399 0.49851 0.0
C66 C 0.88772 0.18759 0.53555 0.0
C67 C 0.91269 0.20938 0.56951 0.0
C68 C -0.01079 0.20328 0.53139 0.0
C69 C -0.03582 0.18141 0.49729 0.0
C70 C -0.00905 0.24983 0.60137 0.0
C71 C 0.13108 0.29213 0.69076 0.0
H72 H 0.19582 0.2584 0.93501 0.0
H73 H 0.16604 0.29292 0.87923 0.0
H74 H 0.04917 0.16518 0.87134 0.0
H75 H 0.07867 0.13064 0.9272 0.0
H76 H 0.84832 0.18257 0.53802 0.0
H77 H 0.89163 0.2209 0.59664 0.0
H78 H 0.02868 0.21015 0.5286 0.0
H79 H -0.01441 0.17175 0.4699 0.0
Tb80 Tb 0.76698 0.94016 0.13792 0.0
Tb81 Tb 0.75658 0.05521 0.12752 0.0
C82 C 0.85701 0.02589 0.12827 0.0
C83 C 0.75972 0.81582 0.17706 0.0
C84 C 0.74738 0.75598 0.24277 0.0
C85 C 0.77354 0.74246 0.20653 0.0
C86 C 0.77955 0.7721 0.17384 0.0
C87 C 0.73224 0.82879 0.21261 0.0
C88 C 0.72603 0.79912 0.24526 0.0
C89 C 0.77144 0.84977 0.14466 0.0
O90 O 0.78496 0.97871 0.19664 0.0
O91 O 0.75918 0.05413 0.19395 0.0
O92 O 0.68852 0.00425 0.11778 0.0
O93 O 0.69511 0.95157 0.16428 0.0
O94 O 0.78482 0.12701 0.1092 0.0
O95 O 0.70973 0.10778 0.13266 0.0
O96 O 0.78219 0.02573 1.06692 0.0
O97 O 0.75751 0.94162 1.07378 0.0
O98 O 0.83821 0.97986 0.11544 0.0
O99 O 0.82983 0.05869 0.14222 0.0
C100 C 0.77696 0.02245 0.21372 0.0
O101 O 0.73463 0.86411 0.13113 0.0
O102 O 0.80733 0.88709 0.15065 0.0
C103 C 0.66792 0.9736 0.14478 0.0
C104 C 0.72823 0.15593 1.07599 0.0
C105 C 0.72846 0.18073 0.99577 0.0
C106 C 0.70846 0.13184 1.00651 0.0
C107 C 0.70858 0.11962 1.04627 0.0
C108 C 0.74393 0.20555 1.06636 0.0
C109 C 0.74382 0.21788 1.02659 0.0
C110 C 0.74219 0.14002 0.11331 0.0
C111 C 0.775 0.97888 1.05118 0.0
H112 H 0.7908 0.70983 0.204 0.0
H113 H 0.80115 0.76187 0.14659 0.0
H114 H 0.71722 0.8629 0.21565 0.0
H115 H 0.70687 0.81187 0.27292 0.0
H116 H 0.69593 0.10183 0.98423 0.0
H117 H 0.69678 0.08088 1.05307 0.0
H118 H 0.75968 0.23394 0.08882 0.0
H119 H 0.75926 0.25586 1.01936 0.0
Tb120 Tb 0.00775 0.82909 0.7108 0.0
Tb121 Tb 0.90396 0.78482 0.67418 0.0
C122 C 0.93633 0.89785 0.69318 0.0
C123 C 0.11402 0.84377 0.77172 0.0
C124 C 0.15365 0.81912 0.83992 0.0
C125 C 0.15534 0.86944 0.8331 0.0
C126 C 0.13604 0.88169 0.79909 0.0
C127 C 0.11269 0.79332 0.77822 0.0
C128 C 0.13251 0.78108 0.81197 0.0
C129 C 0.09031 0.85741 0.73801 0.0
O130 O -0.04381 0.83986 0.76281 0.0
O131 O 0.88852 0.7861 0.74058 0.0
O132 O 0.94978 0.72819 0.6648 0.0
O133 O -0.01295 0.75036 0.72287 0.0
O134 O 0.84448 0.79109 0.64294 0.0
O135 O 0.84741 0.72231 0.66909 0.0
O136 O 0.95003 0.81798 0.62226 0.0
O137 O 0.02436 0.81778 0.64553 0.0
O138 O -0.0181 0.89123 0.68842 0.0
O139 O 0.90023 0.86033 0.69762 0.0
C140 C 0.91103 0.81627 0.76918 0.0
O141 O 0.08148 0.82318 0.70817 0.0
O142 O 0.05334 0.87972 0.7483 0.0
C143 C -0.02818 0.71616 0.69423 0.0
C144 C 0.80817 0.71652 0.60902 0.0
C145 C 0.77835 0.67889 0.53216 0.0
C146 C 0.74382 0.68796 0.56416 0.0
C147 C 0.75868 0.70694 0.60231 0.0
C148 C 0.84249 0.70379 0.57819 0.0
C149 C 0.82766 0.68468 0.54002 0.0
C150 C 0.82384 0.74451 0.64661 0.0
C151 C -0.00206 0.82346 0.61648 0.0
H152 H 0.17094 0.89934 0.8545 0.0
H153 H 0.13719 0.92076 0.79472 0.0
H154 H 0.09524 0.76326 0.75786 0.0
H155 H 0.12918 0.74189 0.81697 0.0
H156 H 0.70562 0.68346 0.55901 0.0
H157 H 0.73179 0.71647 0.62597 0.0
H158 H 0.88089 0.71068 0.58315 0.0
H159 H 0.85509 0.67638 0.51647 0.0
H160 H 0.93487 0.02278 0.11384 0.0
C161 C 0.90852 0.03782 0.13533 0.0
H162 H 0.89366 0.07408 0.1928 0.0
H163 H 0.10387 -0.00361 0.20168 0.0
H164 H 0.06689 0.91444 0.17231 0.0
H165 H -0.01842 0.89875 0.15444 0.0
H166 H 0.93481 0.96528 0.16295 0.0
C167 C 0.92098 0.0602 0.17148 0.0
C168 C -0.02966 0.066 0.18536 0.0
C169 C -0.00626 0.02404 0.18489 0.0
C170 C 0.03981 0.03081 0.2005 0.0
C171 C 0.0667 0.99134 0.19383 0.0
C172 C 0.0461 0.94444 0.17664 0.0
C173 C -0.00168 0.93579 0.16624 0.0
C174 C -0.02788 0.97485 0.17054 0.0
H175 H 0.05669 0.01925 0.28365 0.0
C176 C 0.09199 0.04298 0.27742 0.0
H177 H 0.13241 0.0991 0.24145 0.0
H178 H 0.94113 0.1563 0.18355 0.0
H179 H -0.02146 0.23633 0.21585 0.0
H180 H 0.0495 0.24262 0.25561 0.0
H181 H 0.08641 0.16967 0.26011 0.0
C182 C 0.09689 0.07719 0.25014 0.0
C183 C 0.05736 0.07596 0.22363 0.0
C184 C 0.03513 0.11809 0.22331 0.0
C185 C -0.00751 0.11362 0.20262 0.0
C186 C -0.02739 0.15715 0.20016 0.0
C187 C -0.00635 0.20325 0.21861 0.0
C188 C 0.03377 0.20686 0.24085 0.0
C189 C 0.05445 0.16478 0.24333 0.0
H190 H 0.88548 0.95051 0.70138 0.0
C191 C 0.92344 0.94767 0.69351 0.0
H192 H 0.93915 0.02322 0.68314 0.0
H193 H 0.16286 0.04427 0.70729 0.0
H194 H 0.14116 0.0149 0.77555 0.0
H195 H 0.05567 0.97916 0.79684 0.0
H196 H -0.00756 0.96825 0.74961 0.0
C197 C 0.95406 0.98931 0.68347 0.0
C198 C 0.00631 0.99239 0.67004 0.0
C199 C 0.04153 -0.00302 0.69873 0.0
C200 C 0.09015 0.01975 0.68751 0.0
C201 C 0.12592 0.0256 0.71526 0.0
C202 C 0.11357 0.00993 0.7542 0.0
C203 C 0.0653 0.99002 0.76624 0.0
C204 C 0.02938 0.98372 0.73893 0.0
H205 H 0.07214 0.10004 0.72302 0.0
C206 C 0.0829 0.12258 0.69742 0.0
H207 H 0.11286 0.12727 0.63709 0.0
H208 H 0.95445 0.96887 0.60308 0.0
H209 H -0.01584 0.99041 0.53403 0.0
H210 H 0.06779 0.03731 0.51962 0.0
H211 H 0.12223 0.06341 0.57472 0.0
C212 C 0.10304 0.10357 0.66213 0.0
C213 C 0.09828 0.04803 0.65349 0.0
C214 C 0.07009 0.02925 0.62096 0.0
C215 C 0.02227 0.0026 0.62949 0.0
C216 C -0.00876 0.98939 0.59777 0.0
C217 C 0.00793 0.0015 0.55834 0.0
C218 C 0.05514 0.02786 0.55018 0.0
C219 C 0.08592 0.04239 0.58142 0.0
H220 H 0.59474 0.98655 0.13581 0.0
C221 C 0.61456 0.96785 0.15427 0.0
H222 H 0.60994 0.9279 0.20615 0.0
H223 H 0.42955 0.02183 0.28754 0.0
H224 H 0.49328 0.06076 0.33087 0.0
H225 H 0.57806 0.04857 0.31396 0.0
H226 H 0.59967 -0.00269 0.25373 0.0
C227 C 0.59038 0.94459 0.18608 0.0
C228 C 0.53811 0.94795 0.19791 0.0
C229 C 0.5259 0.97764 0.23349 0.0
C230 C 0.47703 0.98516 0.24302 0.0
C231 C 0.46612 0.01534 0.2786 0.0
C232 C 0.50232 0.0378 0.30381 0.0
C233 C 0.55004 0.03089 0.29432 0.0
C234 C 0.56193 0.00129 0.25962 0.0
H235 H 0.35459 0.90583 0.24299 0.0
C236 C 0.35122 0.94397 0.2386 0.0
H237 H 0.38794 0.01499 0.22192 0.0
H238 H 0.54738 0.88326 0.13072 0.0
H239 H 0.48373 0.84471 0.08708 0.0
H240 H 0.39985 0.86058 0.10195 0.0
H241 H 0.37888 0.91453 0.16074 0.0
C242 C 0.39065 0.97629 0.2249 0.0
C243 C 0.4402 0.96293 0.21709 0.0
C244 C 0.45201 0.93176 0.18226 0.0
C245 C 0.50084 0.92381 0.17295 0.0
C246 C 0.51128 0.89166 0.13852 0.0
C247 C 0.47504 0.86911 0.11335 0.0
C248 C 0.42778 0.87794 0.12178 0.0
C249 C 0.4162 0.90891 0.15573 0.0
H250 H 0.04423 0.43248 0.76491 0.0
C251 C 0.02874 0.41049 0.7387 0.0
H252 H -0.00557 0.41228 0.68527 0.0
H253 H 0.94373 0.62087 0.78598 0.0
H254 H 0.89485 0.56669 0.83407 0.0
H255 H 0.89638 0.47612 0.82876 0.0
H256 H 0.94702 0.43918 0.77556 0.0
C257 C 0.00826 0.43324 0.71249 0.0
C258 C 0.0082 0.4884 0.71712 0.0
C259 C -0.02177 0.50947 0.74841 0.0
C260 C -0.02321 0.56173 0.75112 0.0
C261 C 0.94628 0.58155 0.7825 0.0
C262 C 0.91794 0.55086 0.81028 0.0
C263 C 0.91885 0.49987 0.80732 0.0
C264 C 0.94836 0.47918 0.77672 0.0
H265 H -0.03379 0.63772 0.66886 0.0
C266 C -0.02097 0.66373 0.69409 0.0
H267 H 0.01153 0.67169 0.74958 0.0
H268 H 0.07082 0.46084 0.6544 0.0
H269 H 0.1208 0.51532 0.6071 0.0
H270 H 0.11936 0.60592 0.61257 0.0
H271 H 0.06768 0.64255 0.66517 0.0
C272 C -1e-05 0.64682 0.72338 0.0
C273 C 0.00455 0.59281 0.72214 0.0
C274 C 0.03559 0.57199 0.69159 0.0
C275 C 0.03701 0.51977 0.68884 0.0
C276 C 0.06813 0.50012 0.65783 0.0
C277 C 0.09717 0.53101 0.63055 0.0
C278 C 0.09632 0.58201 0.63359 0.0
C279 C 0.06616 0.60249 0.66377 0.0
H280 H 0.20473 0.27499 0.67616 0.0
C281 C 0.17812 0.29456 0.66632 0.0
H282 H 0.15644 0.32735 0.61787 0.0
H283 H 0.3668 0.30117 0.5239 0.0
H284 H 0.3998 0.37663 0.56497 0.0
H285 H 0.34899 0.41169 0.62122 0.0
H286 H 0.26479 0.37157 0.63682 0.0
C287 C 0.18374 0.30948 0.62861 0.0
C288 C 0.21621 0.28725 0.59711 0.0
C289 C 0.26517 0.31091 0.58877 0.0
C290 C 0.29441 0.29077 0.55631 0.0
C291 C 0.34311 0.3152 0.54818 0.0
C292 C 0.36242 0.35839 0.57152 0.0
C293 C 0.33379 0.37813 0.60323 0.0
C294 C 0.28563 0.35484 0.61187 0.0
H295 H 0.28025 0.27508 0.45857 0.0
C296 C 0.29713 0.24254 0.45987 0.0
H297 H 0.31973 0.19629 0.49926 0.0
H298 H 0.12422 0.2313 0.60646 0.0
H299 H 0.09133 0.15623 0.56568 0.0
H300 H 0.14241 0.12068 0.50994 0.0
H301 H 0.22626 0.16045 0.49459 0.0
C302 C 0.30253 0.22805 0.49634 0.0
C303 C 0.27442 0.24713 0.53256 0.0
C304 C 0.22594 0.22242 0.54186 0.0
C305 C 0.19669 0.2427 0.574 0.0
C306 C 0.14799 0.21782 0.58214 0.0
C307 C 0.12869 0.17452 0.55903 0.0
C308 C 0.15741 0.15453 0.52769 0.0
C309 C 0.20552 0.17788 0.51916 0.0
H310 H 0.88323 0.176 0.74889 0.0
C311 C 0.90609 0.20612 0.76579 0.0
H312 H 0.91293 0.25274 0.82024 0.0
H313 H 0.69803 0.22926 0.89051 0.0
H314 H 0.70276 0.30543 0.85651 0.0
H315 H 0.77219 0.33316 0.80735 0.0
H316 H 0.83708 0.28477 0.79163 0.0
C317 C 0.89086 0.22179 0.80353 0.0
C318 C 0.84406 0.19874 0.82458 0.0
C319 C 0.80634 0.22703 0.83296 0.0
C320 C 0.76669 0.21145 0.86158 0.0
C321 C 0.72942 0.24029 0.86955 0.0
C322 C 0.7316 0.28378 0.8501 0.0
C323 C 0.77068 0.29937 0.8224 0.0
C324 C 0.80774 0.27145 0.81378 0.0
H325 H 0.76642 0.22824 0.94841 0.0
C326 C 0.74204 0.19269 0.95299 0.0
H327 H 0.70978 0.12388 0.92282 0.0
H328 H 0.90732 0.13225 0.81139 0.0
H329 H 0.90044 0.05465 0.84303 0.0
H330 H 0.83177 0.02776 0.89285 0.0
H331 H 0.76895 0.07775 0.91077 0.0
C332 C 0.73357 0.15989 0.92035 0.0
C333 C 0.76545 0.16815 0.88223 0.0
C334 C 0.80033 0.13686 0.87056 0.0
C335 C 0.84 0.15239 0.84182 0.0
C336 C 0.87604 0.12208 0.83255 0.0
C337 C 0.87264 0.07741 0.8506 0.0
C338 C 0.83389 0.0622 0.8786 0.0
C339 C 0.79813 0.09143 0.88867 0.0
H340 H 0.7235 0.6583 0.48712 0.0
C341 C 0.76233 0.6698 0.49052 0.0
H342 H 0.82991 0.70151 0.46116 0.0
H343 H 0.697 0.63402 0.30367 0.0
H344 H 0.69883 0.54788 0.31581 0.0
H345 H 0.73409 0.52878 0.3763 0.0
H346 H 0.76751 0.59561 0.42513 0.0
C347 C 0.79176 0.68566 0.45824 0.0
C348 C 0.7708 0.69605 0.42151 0.0
C349 C 0.75178 0.65654 0.39333 0.0
C350 C 0.73235 0.6676 0.3581 0.0
C351 C 0.71304 0.62759 0.33053 0.0
C352 C 0.71369 0.57807 0.33723 0.0
C353 C 0.73346 0.5673 0.37134 0.0
C354 C 0.75239 0.60595 0.39917 0.0
H355 H 0.77963 0.70942 0.27927 0.0
C356 C 0.74909 0.72867 0.27882 0.0
H357 H 0.68725 0.74934 0.31314 0.0
H358 H 0.80236 0.78051 0.47086 0.0
H359 H 0.80109 0.86627 0.45835 0.0
H360 H 0.76841 0.88545 0.39672 0.0
H361 H 0.73659 0.819 0.34738 0.0
C362 C 0.71841 0.73091 0.31225 0.0
C363 C 0.73263 0.71809 0.35109 0.0
C364 C 0.7505 0.75751 0.37983 0.0
C365 C 0.76978 0.74649 0.41505 0.0
C366 C 0.78771 0.78663 0.44326 0.0
C367 C 0.78712 0.83613 0.43654 0.0
C368 C 0.76868 0.84693 0.40187 0.0
C369 C 0.75054 0.80831 0.37376 0.0
H370 H 0.16602 0.83455 0.9045 0.0
C371 C 0.16935 0.80757 0.87849 0.0
H372 H 0.19002 0.73811 0.85787 0.0
H373 H 0.24213 0.824 1.04968 0.0
H374 H 0.30015 0.89001 1.01918 0.0
H375 H 0.31212 0.89248 0.9449 0.0
H376 H 0.26468 0.82907 0.9008 0.0
C377 C 0.18564 0.76537 0.88335 0.0
C378 C 0.19234 0.75311 0.92478 0.0
C379 C 0.22327 0.78756 0.94984 0.0
C380 C 0.21826 0.78436 0.99243 0.0
C381 C 0.24579 0.82276 1.01703 0.0
C382 C 0.27917 0.86127 0.99989 0.0
C383 C 0.2858 0.86277 0.95809 0.0
C384 C 0.25823 0.82644 0.9332 0.0
H385 H 0.2382 0.73507 1.07033 0.0
C386 C 0.20178 0.74151 0.0808 0.0
H387 H 0.13521 0.7548 1.06343 0.0
H388 H 0.13435 0.67533 0.88406 0.0
H389 H 0.08133 0.60474 0.91367 0.0
H390 H 0.07595 0.59649 0.98725 0.0
H391 H 0.12342 0.65922 1.03171 0.0
C392 C 0.17096 0.74612 1.05356 0.0
C393 C 0.18462 0.74437 1.00934 0.0
C394 C 0.15831 0.70647 0.98364 0.0
C395 C 0.16198 0.71089 0.94122 0.0
C396 C 0.13335 0.67372 0.91647 0.0
C397 C 0.10276 0.63293 0.93308 0.0
C398 C 0.09969 0.6283 0.97451 0.0
C399 C 0.12698 0.66459 0.99967 0.0
H400 H 0.80722 -0.00088 0.98981 0.0
C401 C 0.79234 0.9677 1.00778 0.0
H402 H 0.78253 0.88946 1.01041 0.0
H403 H 0.82899 0.9007 0.81046 0.0
H404 H 0.7566 0.93756 0.81221 0.0
H405 H 0.71242 0.95969 0.87719 0.0
H406 H 0.74089 0.94617 0.94101 0.0
C407 C 0.79515 0.92059 0.99166 0.0
C408 C 0.82215 0.90884 0.95134 0.0
C409 C 0.80422 0.91519 0.91403 0.0
C410 C 0.82886 0.90054 0.87622 0.0
C411 C 0.81112 0.90966 0.83981 0.0
C412 C 0.76965 0.93094 0.84039 0.0
C413 C 0.7448 0.94348 0.87701 0.0
C414 C 0.76163 0.93567 0.91346 0.0
H415 H 0.84711 0.80402 0.81474 0.0
C416 C 0.88296 0.82668 0.80877 0.0
H417 H 0.93493 0.88781 0.83025 0.0
H418 H 0.8685 0.89322 1.01624 0.0
H419 H 0.94057 0.85603 1.01442 0.0
H420 H -0.01886 0.82808 0.94942 0.0
H421 H 0.94993 0.83722 0.88569 0.0
C422 C 0.899 0.8652 0.83598 0.0
C423 C 0.87071 0.87792 0.87541 0.0
C424 C 0.88869 0.87185 0.91271 0.0
C425 C 0.86467 0.88733 0.95042 0.0
C426 C 0.88448 0.88135 0.98683 0.0
C427 C 0.92604 0.86025 0.98625 0.0
C428 C 0.94893 0.8446 0.94965 0.0
C429 C 0.93068 0.85021 0.91326 0.0
H430 H 0.17277 -0.00273 0.41356 0.0
C431 C 0.1669 0.96457 0.392 0.0
H432 H 0.13212 0.88981 0.38095 0.0
H433 H 0.09293 0.9185 0.58399 0.0
H434 H 0.17845 0.95436 0.58733 0.0
H435 H 0.23265 0.96863 0.52498 0.0
H436 H 0.20131 0.94908 0.45899 0.0
C437 C 0.13753 0.92161 0.40346 0.0
C438 C 0.10599 0.91514 0.44312 0.0
C439 C 0.12567 0.92296 0.48159 0.0
C440 C 0.09503 0.91076 0.51776 0.0
C441 C 0.11495 0.92365 0.55566 0.0
C442 C 0.16394 0.94479 0.55803 0.0
C443 C 0.19437 0.95315 0.52292 0.0
C444 C 0.17574 0.94217 0.48511 0.0
H445 H 0.05893 0.82292 0.56919 0.0
C446 C 0.02492 0.83652 0.5768 0.0
H447 H -0.01983 0.88408 0.56088 0.0
H448 H 0.05305 0.90282 0.37684 0.0
H449 H -0.03242 0.8667 0.37391 0.0
H450 H 0.91708 0.83834 0.43512 0.0
H451 H 0.95157 0.84653 0.49982 0.0
C452 C 0.01361 0.86952 0.55307 0.0
C453 C 0.04542 0.88681 0.51561 0.0
C454 C 0.02538 0.88078 0.47748 0.0
C455 C 0.05519 0.89564 0.44168 0.0
C456 C 0.03298 0.8906 0.40464 0.0
C457 C -0.01626 0.87026 0.40254 0.0
C458 C 0.95527 0.85443 0.43702 0.0
C459 C -0.02439 0.8595 0.47406 0.0
H460 H 0.18481 0.20171 0.98923 0.0
C461 C 0.1577 0.17479 0.97347 0.0
H462 H 0.11724 0.10074 0.97382 0.0
H463 H 0.25569 0.02264 0.08455 0.0
H464 H 0.27793 0.98304 1.01902 0.0
H465 H 0.24662 0.0033 0.95719 0.0
H466 H 0.19349 0.06433 0.96045 0.0
C467 C 0.14243 0.1298 0.98942 0.0
C468 C 0.16064 0.11673 1.02797 0.0
C469 C 0.19036 0.0796 1.02638 0.0
C470 C 0.20692 0.06622 1.06267 0.0
C471 C 0.23959 0.03203 1.05883 0.0
C472 C 0.25328 0.00945 1.02118 0.0
C473 C 0.23576 0.02099 0.98633 0.0
C474 C 0.20509 0.05593 0.98867 0.0
H475 H 0.1859 -0.00281 0.13306 0.0
C476 C 0.2027 0.02829 0.15301 0.0
H477 H 0.22498 0.1064 0.1611 0.0
H478 H 0.10153 0.18619 1.04356 0.0
H479 H 0.07726 0.2246 0.10911 0.0
H480 H 0.10465 0.20135 0.17141 0.0
H481 H 0.15468 0.13799 0.16919 0.0
C482 C 0.20929 0.07533 0.14062 0.0
C483 C 0.19189 0.08804 0.10146 0.0
C484 C 0.16155 0.12479 0.10296 0.0
C485 C 0.14614 0.13901 1.06654 0.0
C486 C 0.11517 0.17483 1.0698 0.0
C487 C 0.10063 0.19698 0.10731 0.0
C488 C 0.11584 0.18365 0.14246 0.0
C489 C 0.14525 0.1476 0.1406 0.0
H490 H 0.81196 0.0099 0.26755 0.0
C491 C 0.79417 0.0367 0.25543 0.0
H492 H 0.77699 0.10888 0.26498 0.0
H493 H 0.84552 0.05708 0.44465 0.0
H494 H 0.78133 0.98372 0.44181 0.0
H495 H 0.7318 0.96305 0.38314 0.0
H496 H 0.74714 0.01446 0.32627 0.0
C497 C 0.7932 0.08112 0.27739 0.0
C498 C 0.81922 0.09631 0.31613 0.0
C499 C 0.80835 0.06752 0.35053 0.0
C500 C 0.83513 0.08139 0.38587 0.0
C501 C 0.82521 0.04971 0.41806 0.0
C502 C 0.78857 0.00732 0.41675 0.0
C503 C 0.76085 -0.0045 0.3836 0.0
C504 C 0.77038 0.02512 0.3509 0.0
H505 H 0.84444 0.15288 0.46672 0.0
C506 C 0.8836 0.15442 0.46225 0.0
H507 H 0.94086 0.14253 0.41818 0.0
H508 H 0.84941 0.16232 0.25783 0.0
H509 H 0.90756 0.23974 0.26363 0.0
H510 H 0.95132 0.26507 0.32515 0.0
H511 H 0.93537 0.21408 0.38229 0.0
C512 C 0.90188 0.14013 0.42444 0.0
C513 C 0.87129 0.12577 0.38828 0.0
C514 C 0.88068 0.15559 0.3546 0.0
C515 C 0.85508 0.14093 0.3188 0.0
C516 C 0.86648 0.17174 0.286 0.0
C517 C 0.90034 0.2162 0.2887 0.0
C518 C 0.92485 0.23054 0.3234 0.0
C519 C 0.91541 0.20074 0.35596 0.0
loop_
_geom_bond_atom_site_label_1
_geom_bond_atom_site_label_2
_geom_bond_distance
_geom_bond_site_symmetry_2
_ccdc_geom_bond_type
Tb0 C9 2.764 . S
Tb0 O10 2.325 1_565 S
Tb0 O13 2.303 1_565 S
Tb0 O17 2.322 . S
Tb0 O18 2.349 . S
Tb0 O21 2.415 . S
Tb0 O22 2.399 . S
Tb1 O11 2.322 . S
Tb1 O12 2.349 . S
Tb1 O14 2.415 . S
Tb1 O15 2.399 . S
Tb1 O16 2.325 . S
Tb1 O19 2.303 . S
Tb1 C30 2.764 . S
C2 O18 1.261 1_545 S
C2 O19 1.257 . S
C3 C6 1.358 . S
C3 C7 1.332 . S
C3 C9 1.504 . S
C4 C5 1.373 . S
C4 C8 1.308 . S
C5 C4 1.373 . S
C5 C6 1.429 1_556 S
C5 H32 0.932 . S
C6 C3 1.358 . S
C6 C5 1.429 1_554 S
C6 H33 0.930 . S
C7 C3 1.332 . S
C7 C8 1.394 1_554 S
C7 H34 0.932 . S
C8 C4 1.308 . S
C8 C7 1.394 1_556 S
C8 H35 0.929 . S
C9 Tb0 2.764 . S
C9 C3 1.504 . S
C9 O21 1.239 . S
C9 O22 1.263 . S
O10 Tb0 2.325 1_545 S
O10 C20 1.236 . S
O11 Tb1 2.322 . S
O11 C20 1.257 . S
O12 Tb1 2.349 . S
O12 C23 1.261 . S
O13 Tb0 2.303 1_545 S
O13 C23 1.257 . S
O14 Tb1 2.415 . S
O14 C30 1.239 . S
O15 Tb1 2.399 . S
O15 C30 1.263 . S
O16 Tb1 2.325 . S
O16 C31 1.236 1_545 S
O17 Tb0 2.322 . S
O17 C31 1.257 . S
O18 Tb0 2.349 . S
O18 C2 1.261 1_565 S
O19 Tb1 2.303 . S
O19 C2 1.257 . S
C20 O10 1.236 . S
C20 O11 1.257 . S
O21 Tb0 2.415 . S
O21 C9 1.239 . S
O22 Tb0 2.399 . S
O22 C9 1.263 . S
C23 O12 1.261 . S
C23 O13 1.257 . S
C24 C27 1.358 . S
C24 C28 1.332 . S
C24 C30 1.504 . S
C25 C26 1.373 . S
C25 C29 1.308 . S
C26 C25 1.373 . S
C26 C27 1.429 . S
C26 H36 0.932 . S
C27 C24 1.358 . S
C27 C26 1.429 . S
C27 H37 0.930 . S
C28 C24 1.332 . S
C28 C29 1.394 . S
C28 H38 0.932 . S
C29 C25 1.308 . S
C29 C28 1.394 . S
C29 H39 0.929 . S
C30 Tb1 2.764 . S
C30 O14 1.239 . S
C30 O15 1.263 . S
C30 C24 1.504 . S
C31 O16 1.236 1_565 S
C31 O17 1.257 . S
H32 C5 0.932 . S
H33 C6 0.930 . S
H34 C7 0.932 . S
H35 C8 0.929 . S
H36 C26 0.932 . S
H37 C27 0.930 . S
H38 C28 0.932 . S
H39 C29 0.929 . S
Tb40 C49 2.764 . S
Tb40 O50 2.325 . S
Tb40 O53 2.303 . S
Tb40 O57 2.322 . S
Tb40 O58 2.349 . S
Tb40 O61 2.415 . S
Tb40 O62 2.399 . S
Tb41 O51 2.322 . S
Tb41 O52 2.349 . S
Tb41 O54 2.414 1_455 S
Tb41 O55 2.399 1_455 S
Tb41 O56 2.325 . S
Tb41 O59 2.303 . S
Tb41 C70 2.764 1_455 S
C42 O58 1.261 . S
C42 O59 1.257 . S
C43 C46 1.358 . S
C43 C47 1.332 . S
C43 C49 1.504 . S
C44 C45 1.373 . S
C44 C48 1.308 . S
C45 C44 1.373 . S
C45 C46 1.429 . S
C45 H72 0.932 . S
C46 C43 1.358 . S
C46 C45 1.429 . S
C46 H73 0.930 . S
C47 C43 1.332 . S
C47 C48 1.394 . S
C47 H74 0.932 . S
C48 C44 1.308 . S
C48 C47 1.394 . S
C48 H75 0.929 . S
C49 Tb40 2.764 . S
C49 C43 1.504 . S
C49 O61 1.239 . S
C49 O62 1.263 . S
O50 Tb40 2.325 . S
O50 C60 1.236 . S
O51 Tb41 2.322 . S
O51 C60 1.257 . S
O52 Tb41 2.349 . S
O52 C63 1.261 . S
O53 Tb40 2.303 . S
O53 C63 1.257 . S
O54 Tb41 2.414 1_655 S
O54 C70 1.239 . S
O55 Tb41 2.399 1_655 S
O55 C70 1.263 . S
O56 Tb41 2.325 . S
O56 C71 1.236 . S
O57 Tb40 2.322 . S
O57 C71 1.257 . S
O58 Tb40 2.349 . S
O58 C42 1.261 . S
O59 Tb41 2.303 . S
O59 C42 1.257 . S
C60 O50 1.236 . S
C60 O51 1.257 . S
O61 Tb40 2.415 . S
O61 C49 1.239 . S
O62 Tb40 2.399 . S
O62 C49 1.263 . S
C63 O52 1.261 . S
C63 O53 1.257 . S
C64 C67 1.358 . S
C64 C68 1.332 . S
C64 C70 1.504 . S
C65 C66 1.373 . S
C65 C69 1.308 . S
C66 C65 1.373 . S
C66 C67 1.429 . S
C66 H76 0.932 . S
C67 C64 1.358 . S
C67 C66 1.429 . S
C67 H77 0.930 . S
C68 C64 1.332 . S
C68 C69 1.394 . S
C68 H78 0.932 . S
C69 C65 1.308 . S
C69 C68 1.394 . S
C69 H79 0.929 . S
C70 Tb41 2.764 1_655 S
C70 O54 1.239 . S
C70 O55 1.263 . S
C70 C64 1.504 . S
C71 O56 1.236 . S
C71 O57 1.257 . S
H72 C45 0.932 . S
H73 C46 0.930 . S
H74 C47 0.932 . S
H75 C48 0.929 . S
H76 C66 0.932 . S
H77 C67 0.930 . S
H78 C68 0.932 . S
H79 C69 0.929 . S
Tb80 C89 2.764 . S
Tb80 O90 2.325 1_565 S
Tb80 O93 2.303 . S
Tb80 O97 2.322 . S
Tb80 O98 2.349 . S
Tb80 O101 2.415 . S
Tb80 O102 2.399 . S
Tb81 O91 2.322 . S
Tb81 O92 2.349 . S
Tb81 O94 2.441 . S
Tb81 O95 2.399 . S
Tb81 O96 2.325 1_545 S
Tb81 O99 2.303 . S
Tb81 C110 2.764 1_554 S
C82 O98 1.261 . S
C82 O99 1.257 1_565 S
C83 C86 1.358 . S
C83 C87 1.332 . S
C83 C89 1.504 . S
C84 C85 1.373 . S
C84 C88 1.308 . S
C85 C84 1.373 . S
C85 C86 1.429 . S
C85 H112 0.932 . S
C86 C83 1.358 . S
C86 C85 1.429 . S
C86 H113 0.930 . S
C87 C83 1.332 . S
C87 C88 1.394 . S
C87 H114 0.932 . S
C88 C84 1.308 . S
C88 C87 1.394 . S
C88 H115 0.929 . S
C89 Tb80 2.764 . S
C89 C83 1.504 . S
C89 O101 1.239 . S
C89 O102 1.263 . S
O90 Tb80 2.325 1_545 S
O90 C100 1.236 . S
O91 Tb81 2.322 . S
O91 C100 1.257 . S
O92 Tb81 2.349 . S
O92 C103 1.261 . S
O93 Tb80 2.303 . S
O93 C103 1.257 1_565 S
O94 Tb81 2.441 . S
O94 C110 1.222 1_554 S
O95 Tb81 2.399 . S
O95 C110 1.263 1_554 S
O96 Tb81 2.325 1_565 S
O96 C111 1.236 . S
O97 Tb80 2.322 . S
O97 C111 1.257 . S
O98 Tb80 2.349 . S
O98 C82 1.261 . S
O99 Tb81 2.303 . S
O99 C82 1.257 1_545 S
C100 O90 1.236 . S
C100 O91 1.257 . S
O101 Tb80 2.415 . S
O101 C89 1.239 . S
O102 Tb80 2.399 . S
O102 C89 1.263 . S
C103 O92 1.261 . S
C103 O93 1.257 1_545 S
C104 C107 1.358 . S
C104 C108 1.332 . S
C104 C110 1.504 . S
C105 C106 1.373 . S
C105 C109 1.308 . S
C106 C105 1.373 . S
C106 C107 1.429 . S
C106 H116 0.932 . S
C107 C104 1.358 . S
C107 C106 1.429 . S
C107 H117 0.930 . S
C108 C104 1.332 . S
C108 C109 1.394 . S
C108 H118 0.932 . S
C109 C105 1.308 . S
C109 C108 1.394 . S
C109 H119 0.929 . S
C110 Tb81 2.764 1_556 S
C110 O94 1.222 1_556 S
C110 O95 1.263 1_556 S
C110 C104 1.504 . S
C111 O96 1.236 . S
C111 O97 1.257 . S
H112 C85 0.932 . S
H113 C86 0.930 . S
H114 C87 0.932 . S
H115 C88 0.929 . S
H116 C106 0.932 . S
H117 C107 0.930 . S
H118 C108 0.932 . S
H119 C109 0.929 . S
Tb120 C129 2.764 . S
Tb120 O130 2.325 1_455 S
Tb120 O133 2.303 . S
Tb120 O137 2.322 . S
Tb120 O138 2.349 . S
Tb120 O141 2.415 . S
Tb120 O142 2.399 . S
Tb121 O131 2.322 . S
Tb121 O132 2.349 . S
Tb121 O134 2.415 . S
Tb121 O135 2.399 . S
Tb121 O136 2.325 1_655 S
Tb121 O139 2.303 . S
Tb121 C150 2.764 . S
C122 O138 1.261 . S
C122 O139 1.257 1_455 S
C123 C126 1.358 . S
C123 C127 1.332 . S
C123 C129 1.504 . S
C124 C125 1.373 . S
C124 C128 1.308 . S
C125 C124 1.373 . S
C125 C126 1.429 . S
C125 H152 0.932 . S
C126 C123 1.358 . S
C126 C125 1.429 . S
C126 H153 0.930 . S
C127 C123 1.332 . S
C127 C128 1.394 . S
C127 H154 0.932 . S
C128 C124 1.308 . S
C128 C127 1.394 . S
C128 H155 0.929 . S
C129 Tb120 2.764 . S
C129 C123 1.504 . S
C129 O141 1.239 . S
C129 O142 1.263 . S
O130 Tb120 2.325 1_655 S
O130 C140 1.236 . S
O131 Tb121 2.322 . S
O131 C140 1.257 . S
O132 Tb121 2.349 . S
O132 C143 1.261 . S
O133 Tb120 2.303 . S
O133 C143 1.257 1_455 S
O134 Tb121 2.415 . S
O134 C150 1.239 . S
O135 Tb121 2.399 . S
O135 C150 1.263 . S
O136 Tb121 2.325 1_455 S
O136 C151 1.236 . S
O137 Tb120 2.322 . S
O137 C151 1.257 . S
O138 Tb120 2.349 . S
O138 C122 1.261 . S
O139 Tb121 2.303 . S
O139 C122 1.257 1_655 S
C140 O130 1.236 . S
C140 O131 1.257 . S
O141 Tb120 2.415 . S
O141 C129 1.239 . S
O142 Tb120 2.399 . S
O142 C129 1.263 . S
C143 O132 1.261 . S
C143 O133 1.257 1_655 S
C144 C147 1.358 . S
C144 C148 1.332 . S
C144 C150 1.504 . S
C145 C146 1.373 . S
C145 C149 1.308 . S
C146 C145 1.373 . S
C146 C147 1.429 . S
C146 H156 0.932 . S
C147 C144 1.358 . S
C147 C146 1.429 . S
C147 H157 0.930 . S
C148 C144 1.332 . S
C148 C149 1.394 . S
C148 H158 0.932 . S
C149 C145 1.308 . S
C149 C148 1.394 . S
C149 H159 0.929 . S
C150 Tb121 2.764 . S
C150 O134 1.239 . S
C150 O135 1.263 . S
C150 C144 1.504 . S
C151 O136 1.236 . S
C151 O137 1.257 . S
H152 C125 0.932 . S
H153 C126 0.930 . S
H154 C127 0.932 . S
H155 C128 0.929 . S
H156 C146 0.932 . S
H157 C147 0.930 . S
H158 C148 0.932 . S
H159 C149 0.929 . S
H160 C161 0.951 . S
C161 H160 0.951 . S
C161 C167 1.265 . S
H162 C167 0.950 1_565 S
H163 C171 0.949 . S
H164 C172 0.950 . S
H165 C173 0.951 . S
H166 C174 0.951 . S
C167 C161 1.265 . S
C167 H162 0.950 1_545 S
C167 C168 1.478 . S
C168 C167 1.478 . S
C168 C169 1.397 1_645 S
C168 C185 1.394 1_655 S
C169 C168 1.397 1_465 S
C169 C170 1.438 . S
C169 C174 1.429 1_455 S
C170 C169 1.438 . S
C170 C171 1.428 . S
C170 C183 1.394 1_565 S
C171 H163 0.949 . S
C171 C170 1.428 . S
C171 C172 1.345 . S
C172 H164 0.950 . S
C172 C171 1.345 . S
C172 C173 1.424 1_455 S
C173 H165 0.951 . S
C173 C172 1.424 1_655 S
C173 C174 1.347 . S
C174 H166 0.951 . S
C174 C169 1.429 1_655 S
C174 C173 1.347 . S
H175 C176 0.951 . S
C176 H175 0.951 . S
C176 C182 1.265 . S
H177 C182 0.950 . S
H178 C186 0.949 1_655 S
H179 C187 0.950 . S
H180 C188 0.951 . S
H181 C189 0.951 . S
C182 C176 1.265 . S
C182 H177 0.950 . S
C182 C183 1.478 . S
C183 C170 1.394 1_545 S
C183 C182 1.478 . S
C183 C184 1.397 . S
C184 C183 1.397 . S
C184 C185 1.438 . S
C184 C189 1.429 . S
C185 C168 1.394 1_455 S
C185 C184 1.438 . S
C185 C186 1.428 . S
C186 H178 0.949 1_455 S
C186 C185 1.428 . S
C186 C187 1.345 . S
C187 H179 0.950 . S
C187 C186 1.345 . S
C187 C188 1.424 . S
C188 H180 0.951 . S
C188 C187 1.424 . S
C188 C189 1.347 . S
C189 H181 0.951 . S
C189 C184 1.429 . S
C189 C188 1.347 . S
H190 C191 0.951 . S
C191 H190 0.951 . S
C191 C197 1.265 1_455 S
H192 C197 0.950 . S
H193 C201 0.949 . S
H194 C202 0.950 . S
H195 C203 0.951 . S
H196 C204 0.951 . S
C197 C191 1.265 1_655 S
C197 H192 0.950 . S
C197 C198 1.478 1_655 S
C198 C197 1.478 1_455 S
C198 C199 1.397 . S
C198 C215 1.394 . S
C199 C198 1.397 . S
C199 C200 1.438 1_565 S
C199 C204 1.429 1_455 S
C200 C199 1.438 1_545 S
C200 C201 1.428 . S
C200 C213 1.394 . S
C201 H193 0.949 . S
C201 C200 1.428 . S
C201 C202 1.345 . S
C202 H194 0.950 . S
C202 C201 1.345 . S
C202 C203 1.424 1_445 S
C203 H195 0.951 . S
C203 C202 1.424 1_665 S
C203 C204 1.347 . S
C204 H196 0.951 . S
C204 C199 1.429 1_655 S
C204 C203 1.347 . S
H205 C206 0.951 . S
C206 H205 0.951 . S
C206 C212 1.265 . S
H207 C212 0.950 . S
H208 C216 0.949 . S
H209 C217 0.950 . S
H210 C218 0.951 . S
H211 C219 0.951 . S
C212 C206 1.265 . S
C212 H207 0.950 . S
C212 C213 1.478 . S
C213 C200 1.394 . S
C213 C212 1.478 . S
C213 C214 1.397 . S
C214 C213 1.397 . S
C214 C215 1.438 1_545 S
C214 C219 1.429 . S
C215 C198 1.394 . S
C215 C214 1.438 1_565 S
C215 C216 1.428 . S
C216 H208 0.949 . S
C216 C215 1.428 . S
C216 C217 1.345 . S
C217 H209 0.950 . S
C217 C216 1.345 . S
C217 C218 1.424 1_565 S
C218 H210 0.951 . S
C218 C217 1.424 1_545 S
C218 C219 1.347 . S
C219 H211 0.951 . S
C219 C214 1.429 . S
C219 C218 1.347 . S
H220 C221 0.951 . S
C221 H220 0.951 . S
C221 C227 1.265 1_565 S
H222 C227 0.950 . S
H223 C231 0.949 . S
H224 C232 0.950 . S
H225 C233 0.951 . S
H226 C234 0.951 . S
C227 C221 1.265 1_545 S
C227 H222 0.950 . S
C227 C228 1.478 . S
C228 C227 1.478 . S
C228 C229 1.397 . S
C228 C245 1.394 1_545 S
C229 C228 1.397 . S
C229 C230 1.438 . S
C229 C234 1.429 . S
C230 C229 1.438 . S
C230 C231 1.428 . S
C230 C243 1.394 . S
C231 H223 0.949 . S
C231 C230 1.428 . S
C231 C232 1.345 . S
C232 H224 0.950 . S
C232 C231 1.345 . S
C232 C233 1.424 . S
C233 H225 0.951 . S
C233 C232 1.424 . S
C233 C234 1.347 . S
C234 H226 0.951 . S
C234 C229 1.429 . S
C234 C233 1.347 . S
H235 C236 0.951 . S
C236 H235 0.951 . S
C236 C242 1.265 . S
H237 C242 0.951 . S
H238 C246 0.949 . S
H239 C247 0.950 . S
H240 C248 0.951 . S
H241 C249 0.951 . S
C242 C236 1.265 . S
C242 H237 0.951 . S
C242 C243 1.478 . S
C243 C230 1.394 . S
C243 C242 1.478 . S
C243 C244 1.397 1_545 S
C244 C243 1.397 1_565 S
C244 C245 1.438 . S
C244 C249 1.429 . S
C245 C228 1.394 1_565 S
C245 C244 1.438 . S
C245 C246 1.428 . S
C246 H238 0.949 . S
C246 C245 1.428 . S
C246 C247 1.345 . S
C247 H239 0.950 . S
C247 C246 1.345 . S
C247 C248 1.424 . S
C248 H240 0.951 . S
C248 C247 1.424 . S
C248 C249 1.347 . S
C249 H241 0.951 . S
C249 C244 1.429 . S
C249 C248 1.347 . S
H250 C251 0.951 . S
C251 H250 0.951 . S
C251 C257 1.265 . S
H252 C257 0.950 . S
H253 C261 0.949 . S
H254 C262 0.950 . S
H255 C263 0.951 . S
H256 C264 0.951 . S
C257 C251 1.265 . S
C257 H252 0.950 . S
C257 C258 1.478 . S
C258 C257 1.478 . S
C258 C259 1.397 . S
C258 C275 1.394 . S
C259 C258 1.397 . S
C259 C260 1.438 . S
C259 C264 1.429 . S
C260 C259 1.438 . S
C260 C261 1.428 1_455 S
C260 C273 1.394 . S
C261 H253 0.949 . S
C261 C260 1.428 1_655 S
C261 C262 1.345 . S
C262 H254 0.950 . S
C262 C261 1.345 . S
C262 C263 1.424 . S
C263 H255 0.951 . S
C263 C262 1.424 . S
C263 C264 1.347 1_655 S
C264 H256 0.951 . S
C264 C259 1.429 . S
C264 C263 1.347 1_455 S
H265 C266 0.951 . S
C266 H265 0.951 . S
C266 C272 1.265 1_655 S
H267 C272 0.950 . S
H268 C276 0.949 . S
H269 C277 0.950 . S
H270 C278 0.951 . S
H271 C279 0.951 . S
C272 C266 1.265 1_455 S
C272 H267 0.950 . S
C272 C273 1.478 . S
C273 C260 1.394 . S
C273 C272 1.478 . S
C273 C274 1.397 . S
C274 C273 1.397 . S
C274 C275 1.438 . S
C274 C279 1.429 . S
C275 C258 1.394 . S
C275 C274 1.438 . S
C275 C276 1.428 . S
C276 H268 0.949 . S
C276 C275 1.428 . S
C276 C277 1.345 . S
C277 H269 0.950 . S
C277 C276 1.345 . S
C277 C278 1.424 . S
C278 H270 0.951 . S
C278 C277 1.424 . S
C278 C279 1.347 . S
C279 H271 0.951 . S
C279 C274 1.429 . S
C279 C278 1.347 . S
H280 C281 0.951 . S
C281 H280 0.951 . S
C281 C287 1.265 . S
H282 C287 0.950 . S
H283 C291 0.949 . S
H284 C292 0.950 . S
H285 C293 0.951 . S
H286 C294 0.951 . S
C287 C281 1.265 . S
C287 H282 0.950 . S
C287 C288 1.478 . S
C288 C287 1.478 . S
C288 C289 1.397 . S
C288 C305 1.394 . S
C289 C288 1.397 . S
C289 C290 1.438 . S
C289 C294 1.429 . S
C290 C289 1.438 . S
C290 C291 1.428 . S
C290 C303 1.394 . S
C291 H283 0.949 . S
C291 C290 1.428 . S
C291 C292 1.345 . S
C292 H284 0.950 . S
C292 C291 1.345 . S
C292 C293 1.424 . S
C293 H285 0.951 . S
C293 C292 1.424 . S
C293 C294 1.347 . S
C294 H286 0.951 . S
C294 C289 1.429 . S
C294 C293 1.347 . S
H295 C296 0.951 . S
C296 H295 0.951 . S
C296 C302 1.265 . S
H297 C302 0.950 . S
H298 C306 0.949 . S
H299 C307 0.950 . S
H300 C308 0.951 . S
H301 C309 0.951 . S
C302 C296 1.265 . S
C302 H297 0.950 . S
C302 C303 1.478 . S
C303 C290 1.394 . S
C303 C302 1.478 . S
C303 C304 1.397 . S
C304 C303 1.397 . S
C304 C305 1.438 . S
C304 C309 1.429 . S
C305 C288 1.394 . S
C305 C304 1.438 . S
C305 C306 1.428 . S
C306 H298 0.949 . S
C306 C305 1.428 . S
C306 C307 1.345 . S
C307 H299 0.950 . S
C307 C306 1.345 . S
C307 C308 1.424 . S
C308 H300 0.951 . S
C308 C307 1.424 . S
C308 C309 1.347 . S
C309 H301 0.951 . S
C309 C304 1.429 . S
C309 C308 1.347 . S
H310 C311 0.951 1_655 S
C311 H310 0.951 1_455 S
C311 C317 1.265 . S
H312 C317 0.950 . S
H313 C321 0.949 . S
H314 C322 0.950 . S
H315 C323 0.951 1_455 S
H316 C324 0.951 1_455 S
C317 C311 1.265 . S
C317 H312 0.950 . S
C317 C318 1.478 1_455 S
C318 C317 1.478 1_655 S
C318 C319 1.397 . S
C318 C335 1.394 . S
C319 C318 1.397 . S
C319 C320 1.438 . S
C319 C324 1.429 . S
C320 C319 1.438 . S
C320 C321 1.428 . S
C320 C333 1.394 . S
C321 H313 0.949 . S
C321 C320 1.428 . S
C321 C322 1.345 . S
C322 H314 0.950 . S
C322 C321 1.345 . S
C322 C323 1.424 . S
C323 H315 0.951 1_655 S
C323 C322 1.424 . S
C323 C324 1.347 . S
C324 H316 0.951 1_655 S
C324 C319 1.429 . S
C324 C323 1.347 . S
H325 C326 0.951 . S
C326 H325 0.951 . S
C326 C332 1.265 . S
H327 C332 0.950 . S
H328 C336 0.949 . S
H329 C337 0.950 . S
H330 C338 0.951 . S
H331 C339 0.951 . S
C332 C326 1.265 . S
C332 H327 0.950 . S
C332 C333 1.478 . S
C333 C320 1.394 . S
C333 C332 1.478 . S
C333 C334 1.397 . S
C334 C333 1.397 . S
C334 C335 1.438 . S
C334 C339 1.429 . S
C335 C318 1.394 . S
C335 C334 1.438 . S
C335 C336 1.428 . S
C336 H328 0.949 . S
C336 C335 1.428 . S
C336 C337 1.345 . S
C337 H329 0.950 . S
C337 C336 1.345 . S
C337 C338 1.424 . S
C338 H330 0.951 . S
C338 C337 1.424 . S
C338 C339 1.347 . S
C339 H331 0.951 . S
C339 C334 1.429 . S
C339 C338 1.347 . S
H340 C341 0.951 . S
C341 H340 0.951 . S
C341 C347 1.265 . S
H342 C347 0.950 . S
H343 C351 0.949 . S
H344 C352 0.950 . S
H345 C353 0.951 . S
H346 C354 0.951 . S
C347 C341 1.265 . S
C347 H342 0.950 . S
C347 C348 1.478 . S
C348 C347 1.478 . S
C348 C349 1.397 . S
C348 C365 1.394 . S
C349 C348 1.397 . S
C349 C350 1.438 . S
C349 C354 1.429 . S
C350 C349 1.438 . S
C350 C351 1.428 . S
C350 C363 1.394 . S
C351 H343 0.949 . S
C351 C350 1.428 . S
C351 C352 1.345 . S
C352 H344 0.950 . S
C352 C351 1.345 . S
C352 C353 1.424 . S
C353 H345 0.951 . S
C353 C352 1.424 . S
C353 C354 1.347 . S
C354 H346 0.951 . S
C354 C349 1.429 . S
C354 C353 1.347 . S
H355 C356 0.951 . S
C356 H355 0.951 . S
C356 C362 1.265 . S
H357 C362 0.950 . S
H358 C366 0.949 . S
H359 C367 0.950 . S
H360 C368 0.951 . S
H361 C369 0.951 . S
C362 C356 1.265 . S
C362 H357 0.950 . S
C362 C363 1.478 . S
C363 C350 1.394 . S
C363 C362 1.478 . S
C363 C364 1.397 . S
C364 C363 1.397 . S
C364 C365 1.438 . S
C364 C369 1.429 . S
C365 C348 1.394 . S
C365 C364 1.438 . S
C365 C366 1.428 . S
C366 H358 0.949 . S
C366 C365 1.428 . S
C366 C367 1.345 . S
C367 H359 0.950 . S
C367 C366 1.345 . S
C367 C368 1.424 . S
C368 H360 0.951 . S
C368 C367 1.424 . S
C368 C369 1.347 . S
C369 H361 0.951 . S
C369 C364 1.429 . S
C369 C368 1.347 . S
H370 C371 0.951 . S
C371 H370 0.951 . S
C371 C377 1.265 . S
H372 C377 0.950 . S
H373 C381 0.949 . S
H374 C382 0.950 . S
H375 C383 0.951 . S
H376 C384 0.951 . S
C377 C371 1.265 . S
C377 H372 0.950 . S
C377 C378 1.478 . S
C378 C377 1.478 . S
C378 C379 1.397 . S
C378 C395 1.394 . S
C379 C378 1.397 . S
C379 C380 1.438 . S
C379 C384 1.429 . S
C380 C379 1.438 . S
C380 C381 1.428 . S
C380 C393 1.394 . S
C381 H373 0.949 . S
C381 C380 1.428 . S
C381 C382 1.345 . S
C382 H374 0.950 . S
C382 C381 1.345 . S
C382 C383 1.424 . S
C383 H375 0.951 . S
C383 C382 1.424 . S
C383 C384 1.347 . S
C384 H376 0.951 . S
C384 C379 1.429 . S
C384 C383 1.347 . S
H385 C386 0.951 . S
C386 H385 0.951 . S
C386 C392 1.265 . S
H387 C392 0.950 . S
H388 C396 0.949 . S
H389 C397 0.950 . S
H390 C398 0.951 . S
H391 C399 0.951 . S
C392 C386 1.265 . S
C392 H387 0.950 . S
C392 C393 1.478 . S
C393 C380 1.394 . S
C393 C392 1.478 . S
C393 C394 1.397 . S
C394 C393 1.397 . S
C394 C395 1.438 . S
C394 C399 1.429 . S
C395 C378 1.394 . S
C395 C394 1.438 . S
C395 C396 1.428 . S
C396 H388 0.949 . S
C396 C395 1.428 . S
C396 C397 1.345 . S
C397 H389 0.950 . S
C397 C396 1.345 . S
C397 C398 1.424 . S
C398 H390 0.951 . S
C398 C397 1.424 . S
C398 C399 1.347 . S
C399 H391 0.951 . S
C399 C394 1.429 . S
C399 C398 1.347 . S
H400 C401 0.951 . S
C401 H400 0.951 . S
C401 C407 1.265 . S
H402 C407 0.950 . S
H403 C411 0.949 . S
H404 C412 0.950 . S
H405 C413 0.951 . S
H406 C414 0.951 . S
C407 C401 1.265 . S
C407 H402 0.950 . S
C407 C408 1.478 . S
C408 C407 1.478 . S
C408 C409 1.397 . S
C408 C425 1.394 . S
C409 C408 1.397 . S
C409 C410 1.438 . S
C409 C414 1.429 . S
C410 C409 1.438 . S
C410 C411 1.428 . S
C410 C423 1.394 . S
C411 H403 0.949 . S
C411 C410 1.428 . S
C411 C412 1.345 . S
C412 H404 0.950 . S
C412 C411 1.345 . S
C412 C413 1.424 . S
C413 H405 0.951 . S
C413 C412 1.424 . S
C413 C414 1.347 . S
C414 H406 0.951 . S
C414 C409 1.429 . S
C414 C413 1.347 . S
H415 C416 0.951 . S
C416 H415 0.951 . S
C416 C422 1.265 . S
H417 C422 0.950 . S
H418 C426 0.949 . S
H419 C427 0.950 . S
H420 C428 0.951 . S
H421 C429 0.951 . S
C422 C416 1.265 . S
C422 H417 0.950 . S
C422 C423 1.478 . S
C423 C410 1.394 . S
C423 C422 1.478 . S
C423 C424 1.397 . S
C424 C423 1.397 . S
C424 C425 1.438 . S
C424 C429 1.429 . S
C425 C408 1.394 . S
C425 C424 1.438 . S
C425 C426 1.428 . S
C426 H418 0.949 . S
C426 C425 1.428 . S
C426 C427 1.345 . S
C427 H419 0.950 . S
C427 C426 1.345 . S
C427 C428 1.424 . S
C428 H420 0.951 . S
C428 C427 1.424 . S
C428 C429 1.347 . S
C429 H421 0.951 . S
C429 C424 1.429 . S
C429 C428 1.347 . S
H430 C431 0.951 . S
C431 H430 0.951 . S
C431 C437 1.265 . S
H432 C437 0.950 . S
H433 C441 0.949 . S
H434 C442 0.950 . S
H435 C443 0.951 . S
H436 C444 0.951 . S
C437 C431 1.265 . S
C437 H432 0.950 . S
C437 C438 1.478 . S
C438 C437 1.478 . S
C438 C439 1.397 . S
C438 C455 1.394 . S
C439 C438 1.397 . S
C439 C440 1.438 . S
C439 C444 1.429 . S
C440 C439 1.438 . S
C440 C441 1.428 . S
C440 C453 1.394 . S
C441 H433 0.949 . S
C441 C440 1.428 . S
C441 C442 1.345 . S
C442 H434 0.950 . S
C442 C441 1.345 . S
C442 C443 1.424 . S
C443 H435 0.951 . S
C443 C442 1.424 . S
C443 C444 1.347 . S
C444 H436 0.951 . S
C444 C439 1.429 . S
C444 C443 1.347 . S
H445 C446 0.951 . S
C446 H445 0.951 . S
C446 C452 1.265 . S
H447 C452 0.950 . S
H448 C456 0.949 . S
H449 C457 0.950 . S
H450 C458 0.951 . S
H451 C459 0.951 . S
C452 C446 1.265 . S
C452 H447 0.950 . S
C452 C453 1.478 . S
C453 C440 1.394 . S
C453 C452 1.478 . S
C453 C454 1.397 . S
C454 C453 1.397 . S
C454 C455 1.438 . S
C454 C459 1.429 . S
C455 C438 1.394 . S
C455 C454 1.438 . S
C455 C456 1.428 . S
C456 H448 0.949 . S
C456 C455 1.428 . S
C456 C457 1.345 . S
C457 H449 0.950 . S
C457 C456 1.345 . S
C457 C458 1.424 . S
C458 H450 0.951 . S
C458 C457 1.424 . S
C458 C459 1.347 . S
C459 H451 0.951 . S
C459 C454 1.429 . S
C459 C458 1.347 . S
H460 C461 0.951 . S
C461 H460 0.951 . S
C461 C467 1.265 . S
H462 C467 0.950 . S
H463 C471 0.949 . S
H464 C472 0.965 . S
H465 C473 0.951 . S
H466 C474 0.951 . S
C467 C461 1.265 . S
C467 H462 0.950 . S
C467 C468 1.478 . S
C468 C467 1.478 . S
C468 C469 1.397 . S
C468 C485 1.394 . S
C469 C468 1.397 . S
C469 C470 1.438 . S
C469 C474 1.429 . S
C470 C469 1.438 . S
C470 C471 1.428 . S
C470 C483 1.400 . S
C471 H463 0.949 . S
C471 C470 1.428 . S
C471 C472 1.345 . S
C472 H464 0.965 . S
C472 C471 1.345 . S
C472 C473 1.424 . S
C473 H465 0.951 . S
C473 C472 1.424 . S
C473 C474 1.347 . S
C474 H466 0.951 . S
C474 C469 1.429 . S
C474 C473 1.347 . S
H475 C476 0.951 . S
C476 H475 0.951 . S
C476 C482 1.265 . S
H477 C482 0.950 . S
H478 C486 0.949 . S
H479 C487 0.950 . S
H480 C488 0.951 . S
H481 C489 0.951 . S
C482 C476 1.265 . S
C482 H477 0.950 . S
C482 C483 1.470 1_554 S
C483 C470 1.400 . S
C483 C482 1.470 1_556 S
C483 C484 1.399 . S
C484 C483 1.399 . S
C484 C485 1.438 . S
C484 C489 1.429 1_556 S
C485 C468 1.394 . S
C485 C484 1.438 . S
C485 C486 1.428 . S
C486 H478 0.949 . S
C486 C485 1.428 . S
C486 C487 1.345 . S
C487 H479 0.950 . S
C487 C486 1.345 . S
C487 C488 1.424 1_556 S
C488 H480 0.951 . S
C488 C487 1.424 1_554 S
C488 C489 1.347 . S
C489 H481 0.951 . S
C489 C484 1.429 1_554 S
C489 C488 1.347 . S
H490 C491 0.951 . S
C491 H490 0.951 . S
C491 C497 1.265 . S
H492 C497 0.950 . S
H493 C501 0.949 . S
H494 C502 0.950 . S
H495 C503 0.951 1_565 S
H496 C504 0.951 . S
C497 C491 1.265 . S
C497 H492 0.950 . S
C497 C498 1.478 . S
C498 C497 1.478 . S
C498 C499 1.397 . S
C498 C515 1.394 . S
C499 C498 1.397 . S
C499 C500 1.438 . S
C499 C504 1.429 . S
C500 C499 1.438 . S
C500 C501 1.428 . S
C500 C513 1.394 . S
C501 H493 0.949 . S
C501 C500 1.428 . S
C501 C502 1.345 . S
C502 H494 0.950 . S
C502 C501 1.345 . S
C502 C503 1.424 . S
C503 H495 0.951 1_545 S
C503 C502 1.424 . S
C503 C504 1.347 . S
C504 H496 0.951 . S
C504 C499 1.429 . S
C504 C503 1.347 . S
H505 C506 0.951 . S
C506 H505 0.951 . S
C506 C512 1.265 . S
H507 C512 0.950 . S
H508 C516 0.949 . S
H509 C517 0.950 . S
H510 C518 0.951 . S
H511 C519 0.951 . S
C512 C506 1.265 . S
C512 H507 0.950 . S
C512 C513 1.478 . S
C513 C500 1.394 . S
C513 C512 1.478 . S
C513 C514 1.397 . S
C514 C513 1.397 . S
C514 C515 1.438 . S
C514 C519 1.429 . S
C515 C498 1.394 . S
C515 C514 1.438 . S
C515 C516 1.428 . S
C516 H508 0.949 . S
C516 C515 1.428 . S
C516 C517 1.345 . S
C517 H509 0.950 . S
C517 C516 1.345 . S
C517 C518 1.424 . S
C518 H510 0.951 . S
C518 C517 1.424 . S
C518 C519 1.347 . S
C519 H511 0.951 . S
C519 C514 1.429 . S
C519 C518 1.347 . S
C161 C82 0.873 1_545 S
C176 C2 0.874 . S
C191 C122 0.416 . S
C206 C63 0.417 . S
C221 C103 0.918 1_565 S
C236 C23 0.901 . S
C251 C42 0.830 . S
C266 C143 0.830 . S
C281 C71 0.404 . S
C296 C25 0.653 . S
C311 C60 0.720 . S
C326 C105 0.674 . S
C341 C145 0.398 . S
C356 C84 0.228 . S
C371 C124 0.326 . S
C386 C4 0.667 . S
C401 C111 3.341 1_556 S
C416 C140 3.261 . S
C431 C31 3.630 . S
C446 C151 3.628 . S
C461 C44 2.639 . S
C476 C20 2.654 . S
C491 C100 2.345 . S
C506 C65 2.356 . S
