# Generated by pormake.
# Topology wjg, (4)-cn, num edge types: 1
# Building blocks:
#     Node 0, Type 0, BuildingBlock: QUQFOY_clean_sbu_1, # of connection points: 4
#     Node 1, Type 0, BuildingBlock: QUQFOY_clean_sbu_1, # of connection points: 4
#     Node 2, Type 0, BuildingBlock: QUQFOY_clean_sbu_1, # of connection points: 4
#     Node 3, Type 0, BuildingBlock: QUQFOY_clean_sbu_1, # of connection points: 4
#     Node 4, Type 0, BuildingBlock: QUQFOY_clean_sbu_1, # of connection points: 4
#     Node 5, Type 0, BuildingBlock: QUQFOY_clean_sbu_1, # of connection points: 4
#     Node 6, Type 0, BuildingBlock: QUQFOY_clean_sbu_1, # of connection points: 4
#     Node 7, Type 0, BuildingBlock: QUQFOY_clean_sbu_1, # of connection points: 4
#     Node 8, Type 0, BuildingBlock: QUQFOY_clean_sbu_1, # of connection points: 4
#     Node 9, Type 0, BuildingBlock: QUQFOY_clean_sbu_1, # of connection points: 4
#     Node 10, Type 0, BuildingBlock: QUQFOY_clean_sbu_1, # of connection points: 4
#     Node 11, Type 0, BuildingBlock: QUQFOY_clean_sbu_1, # of connection points: 4
#     Edge 12, Type (0, 0), BuildingBlock: OJICUG_clean_linker_0, # of connection points: 2
#     Edge 13, Type (0, 0), BuildingBlock: OJICUG_clean_linker_0, # of connection points: 2
#     Edge 14, Type (0, 0), BuildingBlock: OJICUG_clean_linker_0, # of connection points: 2
#     Edge 15, Type (0, 0), BuildingBlock: OJICUG_clean_linker_0, # of connection points: 2
#     Edge 16, Type (0, 0), BuildingBlock: OJICUG_clean_linker_0, # of connection points: 2
#     Edge 17, Type (0, 0), BuildingBlock: OJICUG_clean_linker_0, # of connection points: 2
#     Edge 18, Type (0, 0), BuildingBlock: OJICUG_clean_linker_0, # of connection points: 2
#     Edge 19, Type (0, 0), BuildingBlock: OJICUG_clean_linker_0, # of connection points: 2
#     Edge 20, Type (0, 0), BuildingBlock: OJICUG_clean_linker_0, # of connection points: 2
#     Edge 21, Type (0, 0), BuildingBlock: OJICUG_clean_linker_0, # of connection points: 2
#     Edge 22, Type (0, 0), BuildingBlock: OJICUG_clean_linker_0, # of connection points: 2
#     Edge 23, Type (0, 0), BuildingBlock: OJICUG_clean_linker_0, # of connection points: 2
#     Edge 24, Type (0, 0), BuildingBlock: OJICUG_clean_linker_0, # of connection points: 2
#     Edge 25, Type (0, 0), BuildingBlock: OJICUG_clean_linker_0, # of connection points: 2
#     Edge 26, Type (0, 0), BuildingBlock: OJICUG_clean_linker_0, # of connection points: 2
#     Edge 27, Type (0, 0), BuildingBlock: OJICUG_clean_linker_0, # of connection points: 2
#     Edge 28, Type (0, 0), BuildingBlock: OJICUG_clean_linker_0, # of connection points: 2
#     Edge 29, Type (0, 0), BuildingBlock: OJICUG_clean_linker_0, # of connection points: 2
#     Edge 30, Type (0, 0), BuildingBlock: OJICUG_clean_linker_0, # of connection points: 2
#     Edge 31, Type (0, 0), BuildingBlock: OJICUG_clean_linker_0, # of connection points: 2
#     Edge 32, Type (0, 0), BuildingBlock: OJICUG_clean_linker_0, # of connection points: 2
#     Edge 33, Type (0, 0), BuildingBlock: OJICUG_clean_linker_0, # of connection points: 2
#     Edge 34, Type (0, 0), BuildingBlock: OJICUG_clean_linker_0, # of connection points: 2
#     Edge 35, Type (0, 0), BuildingBlock: OJICUG_clean_linker_0, # of connection points: 2
# Relax obj value: 0.286
# Max RMSD: 0.140
# Mean RMSD: 0.138
data_MOF--net-wjg--node1-QUQFOY_clean_sbu_1--edge1-OJICUG_clean_linker_0
_symmetry_space_group_name_H-M    P1
_symmetry_Int_Tables_number       1
_symmetry_cell_setting            triclinic
loop_
_symmetry_equiv_pos_as_xyz
'x, y, z'
_cell_length_a     26.697449
_cell_length_b     26.675627
_cell_length_c     28.823921
_cell_angle_alpha  89.918795
_cell_angle_beta   90.011342
_cell_angle_gamma 120.47834
loop_
_atom_site_label
_atom_site_type_symbol
_atom_site_fract_x
_atom_site_fract_y
_atom_site_fract_z
_atom_type_partial_charge
O0 O 0.1046 0.24493 0.34923 0.0
Cd1 Cd 0.08028 0.3062 0.35583 0.0
Cd2 Cd 0.19721 0.37072 0.35918 0.0
O3 O 0.18416 0.30718 0.31308 0.0
O4 O 0.00538 0.28108 0.32289 0.0
O5 O 0.0906 0.35356 0.29874 0.0
C6 C 0.03547 0.31944 0.29146 0.0
C7 C 0.28326 0.46112 0.36202 0.0
C8 C 0.15112 0.25609 0.32865 0.0
C9 C 0.12969 0.33413 0.44713 0.0
O10 O 0.17367 0.34104 0.42502 0.0
O11 O 0.08684 0.33153 0.42518 0.0
O12 O 0.28289 0.41318 0.36796 0.0
O13 O 0.23504 0.45794 0.35037 0.0
O14 O 0.86697 0.19835 0.65521 0.0
Cd15 Cd 0.77923 0.16256 0.66292 0.0
Cd16 Cd 0.82996 0.29252 0.67545 0.0
O17 O 0.88422 0.28337 0.63042 0.0
O18 O 0.74216 0.08058 0.63936 0.0
O19 O 0.7312 0.14864 0.60505 0.0
C20 C 0.72211 0.09618 0.60498 0.0
C21 C 0.8343 0.38188 0.6867 0.0
C22 C 0.90303 0.25009 0.64288 0.0
C23 C 0.7939 0.20795 0.75784 0.0
O24 O 0.824 0.25712 0.73867 0.0
O25 O 0.76132 0.16266 0.73368 0.0
O26 O 0.87823 0.37576 0.69402 0.0
O27 O 0.78856 0.33848 0.66878 0.0
O28 O 0.621 0.82377 0.07797 0.0
Cd29 Cd 0.60396 0.81094 1.00912 0.0
Cd30 Cd 0.65462 0.75247 1.02354 0.0
O31 O 0.61632 0.73997 0.08908 0.0
O32 O 0.55505 0.84618 0.9997 0.0
O33 O 0.52125 0.75141 0.99442 0.0
C34 C 0.51133 0.79404 0.99595 0.0
C35 C 0.63888 0.69308 0.96007 0.0
C36 C 0.61604 0.78439 0.10535 0.0
C37 C 0.7224 0.87136 0.99047 0.0
O38 O 0.72467 0.83521 1.01769 0.0
O39 O 0.6757 0.85486 0.96785 0.0
O40 O 0.67056 0.69423 0.9946 0.0
O41 O 0.61138 0.72127 0.96412 0.0
O42 O 0.85521 0.69787 0.36141 0.0
Cd43 Cd 0.88535 0.64072 0.36121 0.0
Cd44 Cd 0.7679 0.56368 0.35977 0.0
O45 O 0.77303 0.63497 0.3279 0.0
O46 O 0.95838 0.66972 0.32431 0.0
O47 O 0.87289 0.59564 0.30249 0.0
C48 C 0.92727 0.63122 0.29336 0.0
C49 C 0.67847 0.47607 0.35746 0.0
C50 C 0.80638 0.68542 0.34448 0.0
C51 C 0.83659 0.5925 0.45022 0.0
O52 O 0.79014 0.57616 0.42777 0.0
O53 O 0.88481 0.61299 0.42873 0.0
O54 O 0.68314 0.52347 0.37231 0.0
O55 O 0.7241 0.47865 0.33987 0.0
O56 O 0.12019 0.89308 0.69319 0.0
Cd57 Cd 0.17981 0.86641 0.6865 0.0
Cd58 Cd 0.08601 0.77354 0.67178 0.0
O59 O 0.06333 0.82921 0.64152 0.0
O60 O 0.25516 0.92859 0.65798 0.0
O61 O 0.18878 0.85106 0.62007 0.0
C62 C 0.23698 0.90024 0.61933 0.0
C63 C 0.0944 0.69493 0.65181 0.0
C64 C 0.07572 0.87299 0.66711 0.0
C65 C 0.12779 0.78231 0.76227 0.0
O66 O 0.08208 0.77324 0.74169 0.0
O67 O 0.17696 0.8131 0.74212 0.0
O68 O 0.04346 0.68947 0.65535 0.0
O69 O 0.13948 0.74669 0.65182 0.0
O70 O 0.35668 0.12298 0.0691 0.0
Cd71 Cd 0.38135 0.13539 1.00164 0.0
Cd72 Cd 0.32136 0.18894 1.00988 0.0
O73 O 0.35498 0.20395 0.07714 0.0
O74 O 0.42452 0.09305 1.0017 0.0
O75 O 0.46747 0.18811 0.99148 0.0
C76 C 0.47176 0.14257 0.99835 0.0
C77 C 0.33092 0.25208 0.95048 0.0
C78 C 0.35659 0.16102 0.09513 0.0
C79 C 0.26547 0.06962 0.9761 0.0
O80 O 0.25734 0.10337 1.00189 0.0
O81 O 0.31459 0.08968 0.9564 0.0
O82 O 0.29697 0.24327 0.98545 0.0
O83 O 0.36288 0.22831 0.95115 0.0
O84 O 0.71149 0.85576 0.39135 0.0
Cd85 Cd 0.65392 0.88525 0.3863 0.0
Cd86 Cd 0.58103 0.76591 0.39712 0.0
O87 O 0.65224 0.78318 0.43601 0.0
O88 O 0.68879 0.96699 0.40934 0.0
O89 O 0.61789 0.89054 0.44589 0.0
C90 C 0.65494 0.94591 0.44504 0.0
C91 C 0.49341 0.67709 0.40384 0.0
C92 C 0.70094 0.81155 0.41537 0.0
C93 C 0.60617 0.82111 0.30199 0.0
O94 O 0.59714 0.77923 0.32815 0.0
O95 O 0.6193 0.87021 0.3195 0.0
O96 O 0.54162 0.67963 0.3945 0.0
O97 O 0.49526 0.72507 0.41401 0.0
O98 O 0.81867 0.76706 0.70697 0.0
Cd99 Cd 0.75615 0.68033 0.71164 0.0
Cd100 Cd 0.84798 0.67912 0.72781 0.0
O101 O 0.86827 0.75486 0.76147 0.0
O102 O 0.6819 0.66648 0.74158 0.0
O103 O 0.74714 0.65189 0.77689 0.0
C104 C 0.6998 0.6537 0.77911 0.0
C105 C 0.84308 0.59291 0.74447 0.0
C106 C 0.86234 0.78894 0.73398 0.0
C107 C 0.80961 0.65127 0.63623 0.0
O108 O 0.85455 0.68749 0.65822 0.0
O109 O 0.7597 0.6316 0.65524 0.0
O110 O 0.89293 0.64077 0.74316 0.0
O111 O 0.79635 0.59611 0.74428 0.0
O112 O 0.15978 0.73349 0.96916 0.0
Cd113 Cd 0.192 0.75307 0.03464 0.0
Cd114 Cd 0.07001 0.71283 0.03944 0.0
O115 O 0.06446 0.67919 0.97352 0.0
O116 O 0.27382 0.80206 1.01335 0.0
O117 O 0.24488 0.72175 0.05318 0.0
C118 C 0.28554 0.76494 1.03055 0.0
C119 C 0.02554 0.66848 0.10933 0.0
C120 C 0.11106 0.70306 0.94954 0.0
C121 C 0.15495 0.83742 0.04923 0.0
O122 O 0.10471 0.80094 0.03436 0.0
O123 O 0.18751 0.81985 0.06589 0.0
O124 O -0.00332 0.67606 0.07671 0.0
O125 O 0.0788 0.68262 0.10088 0.0
O126 O 0.24832 0.08965 0.3795 0.0
Cd127 Cd 0.30842 0.06344 0.37748 0.0
Cd128 Cd 0.3749 0.17757 0.3876 0.0
O129 O 0.30389 0.16094 0.42614 0.0
O130 O 0.27692 0.98554 0.40671 0.0
O131 O 0.34697 0.06733 0.43806 0.0
C132 C 0.3107 0.01193 0.44162 0.0
C133 C 0.4639 0.26368 0.39515 0.0
C134 C 0.25633 0.13244 0.40411 0.0
C135 C 0.3544 0.12509 0.29306 0.0
O136 O 0.35898 0.16572 0.31856 0.0
O137 O 0.34485 0.07747 0.31146 0.0
O138 O 0.41679 0.26369 0.38633 0.0
O139 O 0.46002 0.21451 0.40452 0.0
O140 O 0.11033 0.28849 0.77661 0.0
Cd141 Cd 0.1891 0.32589 0.74341 0.0
Cd142 Cd 0.13727 0.42587 0.72025 0.0
O143 O 0.12622 0.37615 0.77713 0.0
O144 O 0.22816 0.28228 0.76284 0.0
O145 O 0.25622 0.37196 0.78634 0.0
C146 C 0.26041 0.3258 0.7896 0.0
C147 C 0.12499 0.50443 0.70688 0.0
C148 C 0.09037 0.32209 0.77177 0.0
C149 C 0.15891 0.3545 0.6452 0.0
O150 O 0.14138 0.38707 0.66163 0.0
O151 O 0.18334 0.33291 0.6702 0.0
O152 O 0.08088 0.45228 0.70933 0.0
O153 O 0.17601 0.51245 0.71636 0.0
O154 O 0.79572 0.1576 0.97703 0.0
Cd155 Cd 0.77646 0.15915 0.04492 0.0
Cd156 Cd 0.89168 0.22263 0.04207 0.0
O157 O 0.87336 0.24485 0.97707 0.0
O158 O 0.69091 0.10852 0.04101 0.0
O159 O 0.73389 0.20214 0.05773 0.0
C160 C 0.68702 0.15414 0.04743 0.0
C161 C 0.93279 0.27558 0.10953 0.0
C162 C 0.83232 0.20232 0.95498 0.0
C163 C 0.83403 0.10085 0.06739 0.0
O164 O 0.87547 0.13855 0.04276 0.0
O165 O 0.80217 0.11614 0.08855 0.0
O166 O 0.96516 0.27701 0.07547 0.0
O167 O 0.87702 0.24821 0.10331 0.0
C168 C 0.33521 0.56889 0.37727 0.0
C169 C 0.33659 0.51718 0.37213 0.0
H170 H 0.38371 0.66026 0.39268 0.0
C171 C 0.38899 0.51824 0.38032 0.0
H172 H 0.29525 0.56924 0.3718 0.0
C173 C 0.43909 0.56982 0.39258 0.0
C174 C 0.43812 0.62171 0.39729 0.0
H175 H 0.39152 0.47911 0.3771 0.0
H176 H 0.47895 0.56914 0.39771 0.0
C177 C 0.38556 0.62074 0.38994 0.0
C178 C 0.78478 0.43815 0.70476 0.0
C179 C 0.8358 0.43539 0.70226 0.0
H180 H 0.74668 0.48954 0.72186 0.0
C181 C 0.88826 0.48299 0.71813 0.0
H182 H 0.74356 0.40182 0.69357 0.0
C183 C 0.89012 0.53308 0.73464 0.0
C184 C 0.83938 0.53647 0.73616 0.0
H185 H 0.92821 0.48189 0.71737 0.0
H186 H 0.93164 0.56973 0.74493 0.0
C187 C 0.78649 0.48808 0.72177 0.0
C188 C 0.44216 0.83053 0.99398 0.0
C189 C 0.4518 0.78389 1.00001 0.0
H190 H 0.38247 0.86114 0.99945 0.0
C191 C 0.40605 0.73031 1.01619 0.0
H192 H 0.47667 0.87246 0.98194 0.0
C193 C 0.35206 0.72408 1.02723 0.0
C194 C 0.34288 0.77113 1.02169 0.0
H195 H 0.41256 0.69386 1.02186 0.0
H196 H 0.31756 0.68251 0.03986 0.0
C197 C 0.38828 0.82413 1.00443 0.0
C198 C 0.5219 0.37112 0.38723 0.0
C199 C 0.52025 0.31773 0.38889 0.0
H200 H 0.57279 0.46251 0.3751 0.0
C201 C 0.57099 0.31625 0.37869 0.0
H202 H 0.48338 0.3736 0.39449 0.0
C203 C 0.62233 0.36742 0.36653 0.0
C204 C 0.62368 0.42075 0.36497 0.0
H205 H 0.57063 0.27546 0.37894 0.0
H206 H 0.66105 0.36541 0.35917 0.0
C207 C 0.57301 0.42201 0.37564 0.0
C208 C 0.15809 0.65281 0.66499 0.0
C209 C 0.10202 0.64414 0.65815 0.0
H210 H 0.20932 0.61607 0.68681 0.0
C211 C 0.05368 0.58849 0.66584 0.0
H212 H 0.19635 0.69523 0.65979 0.0
C213 C 0.06125 0.54318 0.68165 0.0
C214 C 0.11724 0.55265 0.69051 0.0
H215 H 0.0099 0.58042 0.66136 0.0
H216 H 0.02313 0.50092 0.68765 0.0
C217 C 0.1656 0.60765 0.68118 0.0
C218 C 0.58159 0.09831 1.02801 0.0
C219 C 0.63168 0.15205 0.03743 0.0
H220 H 0.49261 0.05342 1.0072 0.0
C221 C 0.62953 0.20333 1.03204 0.0
H222 H 0.58186 0.05799 1.03136 0.0
C223 C 0.57819 0.20074 1.01743 0.0
C224 C 0.52813 0.14682 1.00815 0.0
H225 H 0.66768 0.24546 0.03838 0.0
H226 H 0.57744 0.24081 1.0142 0.0
C227 C 0.53051 0.09573 1.01361 0.0
C228 C 0.14436 0.16211 0.35113 0.0
C229 C 0.17795 0.22247 0.34392 0.0
H230 H 0.14301 0.08558 0.37643 0.0
C231 C 0.23559 0.25276 0.35984 0.0
H232 H 0.09936 0.13809 0.34015 0.0
C233 C 0.25915 0.22363 0.38275 0.0
C234 C 0.22629 0.16314 0.38915 0.0
H235 H 0.26214 0.29952 0.35605 0.0
H236 H 0.30404 0.24846 0.3939 0.0
C237 C 0.16878 0.13242 0.37276 0.0
C238 C -0.00951 0.24756 0.66939 0.0
C239 C 0.95819 0.27573 0.6685 0.0
H240 H 0.05807 0.24012 0.70267 0.0
C241 C 0.96991 0.31884 0.70167 0.0
H242 H 0.98104 0.21286 0.64514 0.0
C243 C 0.01148 0.33226 0.73601 0.0
C244 C 0.04412 0.30472 0.73681 0.0
H245 H 0.94427 0.3395 0.7032 0.0
H246 H 0.01773 0.36383 0.76239 0.0
C247 C 0.03348 0.26225 0.70303 0.0
C248 C 0.74651 0.00711 0.0479 0.0
C249 C 0.80722 0.03991 0.05223 0.0
H250 H 0.67312 0.93005 1.0224 0.0
C251 C 0.84092 0.01749 0.03429 0.0
H252 H 0.71916 0.02325 0.06065 0.0
C253 C 0.81396 0.96286 1.01267 0.0
C254 C 0.75341 0.93164 1.0069 0.0
H255 H 0.88789 0.04238 0.03667 0.0
H256 H 0.84017 0.94521 1.00028 0.0
C257 C 0.7201 0.9542 1.0249 0.0
C258 C 0.69852 0.71975 0.3967 0.0
C259 C 0.73125 0.78041 0.40198 0.0
H260 H 0.69579 0.64316 0.37213 0.0
C261 C 0.78919 0.81057 0.38636 0.0
H262 H 0.65345 0.69519 0.40745 0.0
C263 C 0.81394 0.78026 0.36628 0.0
C264 C 0.78027 0.71978 0.35981 0.0
H265 H 0.81503 0.85747 0.3893 0.0
H266 H 0.85908 0.80396 0.3556 0.0
C267 C 0.72241 0.69 0.37529 0.0
C268 C 0.02045 0.88932 0.72822 0.0
C269 C 0.02795 0.88251 0.68072 0.0
H270 H 0.95884 0.86396 0.78362 0.0
C271 C 0.98104 0.86598 0.65049 0.0
H272 H 0.05609 0.90301 0.75243 0.0
C273 C 0.92547 0.84586 0.66843 0.0
C274 C 0.91631 0.83981 0.71679 0.0
H275 H -0.01413 0.86137 0.61367 0.0
H276 H 0.88918 0.82625 0.64452 0.0
C277 C 0.96459 0.86714 0.7463 0.0
C278 C 0.26461 0.9784 0.99388 0.0
C279 C 0.23345 0.00752 0.98885 0.0
H280 H 0.26516 0.90366 1.01917 0.0
C281 C 0.17578 0.98059 1.00495 0.0
H282 H 0.30946 -0.00175 0.98277 0.0
C283 C 0.14993 0.92543 1.02567 0.0
C284 C 0.18222 0.89768 1.0322 0.0
H285 H 0.15119 0.00262 1.00222 0.0
H286 H 0.10512 0.90482 0.03706 0.0
C287 C 0.23964 0.92466 1.01589 0.0
C288 C 0.01892 0.33207 0.16197 0.0
C289 C 0.95837 0.29751 0.15622 0.0
H290 H 0.09074 0.36738 0.20933 0.0
C291 C 0.92313 0.27733 0.19609 0.0
H292 H 0.04733 0.34841 0.13205 0.0
C293 C 0.94807 0.28748 0.24041 0.0
C294 C 0.0088 0.31891 0.24598 0.0
H295 H 0.87635 0.25048 0.19302 0.0
H296 H 0.91981 0.26842 0.27016 0.0
C297 C 0.04382 0.34306 0.20637 0.0
C298 C 0.66876 -0.00365 0.56976 0.0
C299 C 0.69552 0.05699 0.5645 0.0
H300 H 0.6332 0.91352 0.53605 0.0
C301 C 0.70299 0.08015 0.51948 0.0
H302 H 0.66252 0.97722 0.60398 0.0
C303 C 0.68763 0.04381 0.48052 0.0
C304 C 0.66287 0.98336 0.48576 0.0
H305 H 0.72391 0.12672 0.51426 0.0
H306 H 0.6967 0.06321 0.44625 0.0
C307 C 0.65182 0.95985 0.53083 0.0
C308 C 0.678 0.64477 0.90908 0.0
C309 C 0.64189 0.66853 0.91457 0.0
H310 H 0.72389 0.62055 0.86187 0.0
C311 C 0.61675 0.6774 0.87476 0.0
H312 H 0.69783 0.63699 0.9389 0.0
C313 C 0.63175 0.66789 0.83034 0.0
C314 C 0.67226 0.64944 0.82487 0.0
H315 H 0.58856 0.69545 0.87768 0.0
H316 H 0.61472 0.67891 0.80039 0.0
C317 C 0.69305 0.6354 0.86477 0.0
C318 C 0.03618 0.66743 0.19583 0.0
C319 C 5e-05 0.65008 0.15648 0.0
H320 H 0.04159 0.67559 0.27 0.0
C321 C 0.9395 0.62085 0.16301 0.0
H322 H 0.08301 0.69037 0.19202 0.0
C323 C 0.91572 0.61127 0.20776 0.0
C324 C 0.95201 0.63203 0.24695 0.0
H325 H 0.91049 0.60692 0.13343 0.0
H326 H 0.86898 0.59047 0.21145 0.0
C327 C 0.01246 0.65916 0.24053 0.0
C328 C 0.26154 0.92111 0.48975 0.0
C329 C 0.30212 0.98095 0.48648 0.0
H330 H 0.20999 0.84854 0.53418 0.0
C331 C 0.32784 0.01197 0.52754 0.0
H332 H 0.24112 0.89572 0.4589 0.0
C333 C 0.3098 0.98479 0.57101 0.0
C334 C 0.26575 0.92602 0.57426 0.0
H335 H 0.35931 0.05811 0.52633 0.0
H336 H 0.32788 0.01072 0.60201 0.0
C337 C 0.24363 0.894 0.53306 0.0
C338 C 0.33013 0.26112 0.86414 0.0
C339 C 0.32676 0.2816 0.90829 0.0
H340 H 0.31115 0.25881 0.79152 0.0
C341 C 0.31044 0.32393 0.9116 0.0
H342 H 0.34209 0.2281 0.86056 0.0
C343 C 0.29451 0.34287 0.87186 0.0
C344 C 0.29272 0.31838 0.82827 0.0
H345 H 0.30735 0.34037 0.94517 0.0
H346 H 0.27904 0.37313 0.8759 0.0
C347 C 0.31235 0.27862 0.8246 0.0
C348 C 0.1753 0.32426 0.51974 0.0
C349 C 0.13165 0.33139 0.49829 0.0
H350 H 0.21812 0.3254 0.58318 0.0
C351 C 0.09358 0.33962 0.52614 0.0
H352 H 0.20492 0.31687 0.4992 0.0
C353 C 0.10139 0.34447 0.57415 0.0
C354 C 0.14727 0.34095 0.59532 0.0
H355 H 0.05935 0.34468 0.51082 0.0
H356 H 0.07223 0.35261 0.59466 0.0
C357 C 0.18288 0.32876 0.56785 0.0
C358 C 0.85586 0.2549 0.87883 0.0
C359 C 0.82392 0.20363 0.90433 0.0
H360 H 0.87087 0.2965 0.81313 0.0
C361 C 0.78122 0.15309 0.88134 0.0
H362 H 0.88875 0.29443 0.89541 0.0
C363 C 0.77058 0.15395 0.83389 0.0
C364 C 0.80217 0.20547 0.80849 0.0
H365 H 0.75572 0.11259 0.90002 0.0
H366 H 0.73779 0.11444 0.81724 0.0
C367 C 0.84503 0.25587 0.83158 0.0
C368 C 0.59592 0.75757 0.2347 0.0
C369 C 0.60549 0.81158 0.25133 0.0
H370 H 0.59218 0.70666 0.17593 0.0
C371 C 0.6172 0.85577 0.21939 0.0
H372 H 0.5868 0.7223 0.2583 0.0
C373 C 0.62 0.84638 0.172 0.0
C374 C 0.61153 0.79274 0.15556 0.0
H375 H 0.62494 0.89772 0.23097 0.0
H376 H 0.62967 0.88171 0.14827 0.0
C377 C 0.59916 0.74837 0.18743 0.0
C378 C 0.77819 0.56937 0.52276 0.0
C379 C 0.83318 0.5981 0.501 0.0
H380 H 0.72716 0.56427 0.58193 0.0
C381 C 0.88101 0.64055 0.52585 0.0
H382 H 0.74034 0.53613 0.50457 0.0
C383 C 0.87318 0.65682 0.57014 0.0
C384 C 0.81737 0.63105 0.59044 0.0
H385 H 0.92368 0.66381 0.51002 0.0
H386 H 0.91076 0.69123 0.58775 0.0
C387 C 0.77031 0.58585 0.56688 0.0
C388 C 0.16372 0.73249 0.87401 0.0
C389 C 0.11065 0.70879 0.89846 0.0
H390 H 0.21134 0.77559 0.81248 0.0
C391 C 0.06203 0.70407 0.87576 0.0
H392 H 0.20211 0.73651 0.89044 0.0
C393 C 0.06759 0.72676 0.83103 0.0
C394 C 0.1219 0.75485 0.80819 0.0
H395 H 0.02079 0.6866 0.89361 0.0
H396 H 0.02966 0.7244 0.81517 0.0
C397 C 0.1694 0.75564 0.82953 0.0
C398 C 0.35154 0.09159 0.2112 0.0
C399 C 0.35696 0.13426 0.2423 0.0
H400 H 0.3472 0.06672 0.14037 0.0
C401 C 0.36296 0.18647 0.22458 0.0
H402 H 0.34672 0.05104 0.22365 0.0
C403 C 0.36284 0.19552 0.1769 0.0
C404 C 0.35712 0.15276 0.14581 0.0
H405 H 0.36717 0.22049 0.24756 0.0
H406 H 0.36719 0.23589 0.16448 0.0
C407 C 0.35178 0.10081 0.16346 0.0
loop_
_geom_bond_atom_site_label_1
_geom_bond_atom_site_label_2
_geom_bond_distance
_geom_bond_site_symmetry_2
_ccdc_geom_bond_type
O0 Cd1 2.223 . S
O0 C8 1.315 . S
Cd1 O0 2.223 . S
Cd1 O4 2.297 . S
Cd1 O5 2.439 . S
Cd1 O11 2.240 . S
Cd2 O3 2.240 . S
Cd2 O10 2.223 . S
Cd2 O12 2.297 . S
Cd2 O13 2.439 . S
O3 Cd2 2.240 . S
O3 C8 1.279 . S
O4 Cd1 2.297 . S
O4 C6 1.247 . S
O5 Cd1 2.439 . S
O5 C6 1.208 . S
C6 O4 1.247 . S
C6 O5 1.208 . S
C7 O12 1.247 . S
C7 O13 1.208 . S
C8 O0 1.315 . S
C8 O3 1.279 . S
C9 O10 1.315 . S
C9 O11 1.279 . S
O10 Cd2 2.223 . S
O10 C9 1.315 . S
O11 Cd1 2.240 . S
O11 C9 1.279 . S
O12 Cd2 2.297 . S
O12 C7 1.247 . S
O13 Cd2 2.439 . S
O13 C7 1.208 . S
O14 Cd15 2.223 . S
O14 C22 1.315 . S
Cd15 O14 2.223 . S
Cd15 O18 2.297 . S
Cd15 O19 2.439 . S
Cd15 O25 2.240 . S
Cd16 O17 2.240 . S
Cd16 O24 2.223 . S
Cd16 O26 2.297 . S
Cd16 O27 2.439 . S
O17 Cd16 2.240 . S
O17 C22 1.279 . S
O18 Cd15 2.297 . S
O18 C20 1.247 . S
O19 Cd15 2.439 . S
O19 C20 1.208 . S
C20 O18 1.247 . S
C20 O19 1.208 . S
C21 O26 1.247 . S
C21 O27 1.208 . S
C22 O14 1.315 . S
C22 O17 1.279 . S
C23 O24 1.315 . S
C23 O25 1.279 . S
O24 Cd16 2.223 . S
O24 C23 1.315 . S
O25 Cd15 2.240 . S
O25 C23 1.279 . S
O26 Cd16 2.297 . S
O26 C21 1.247 . S
O27 Cd16 2.439 . S
O27 C21 1.208 . S
O28 Cd29 2.223 . S
O28 C36 1.315 . S
Cd29 O28 2.223 . S
Cd29 O32 2.297 . S
Cd29 O33 2.439 1_554 S
Cd29 O39 2.240 1_554 S
Cd30 O31 2.240 . S
Cd30 O38 2.223 . S
Cd30 O40 2.297 1_554 S
Cd30 O41 2.439 1_554 S
O31 Cd30 2.240 . S
O31 C36 1.279 . S
O32 Cd29 2.297 . S
O32 C34 1.247 . S
O33 Cd29 2.439 1_556 S
O33 C34 1.208 1_556 S
C34 O32 1.247 . S
C34 O33 1.208 1_554 S
C35 O40 1.247 . S
C35 O41 1.208 . S
C36 O28 1.315 . S
C36 O31 1.279 . S
C37 O38 1.314 1_556 S
C37 O39 1.281 . S
O38 Cd30 2.223 . S
O38 C37 1.314 1_554 S
O39 Cd29 2.240 1_556 S
O39 C37 1.281 . S
O40 Cd30 2.297 1_556 S
O40 C35 1.247 . S
O41 Cd30 2.439 1_556 S
O41 C35 1.208 . S
O42 Cd43 2.223 . S
O42 C50 1.315 . S
Cd43 O42 2.223 . S
Cd43 O46 2.297 . S
Cd43 O47 2.439 . S
Cd43 O53 2.240 . S
Cd44 O45 2.240 . S
Cd44 O52 2.223 . S
Cd44 O54 2.297 . S
Cd44 O55 2.439 . S
O45 Cd44 2.240 . S
O45 C50 1.279 . S
O46 Cd43 2.297 . S
O46 C48 1.247 . S
O47 Cd43 2.439 . S
O47 C48 1.208 . S
C48 O46 1.247 . S
C48 O47 1.208 . S
C49 O54 1.247 . S
C49 O55 1.208 . S
C50 O42 1.315 . S
C50 O45 1.279 . S
C51 O52 1.315 . S
C51 O53 1.279 . S
O52 Cd44 2.223 . S
O52 C51 1.315 . S
O53 Cd43 2.240 . S
O53 C51 1.279 . S
O54 Cd44 2.297 . S
O54 C49 1.247 . S
O55 Cd44 2.439 . S
O55 C49 1.208 . S
O56 Cd57 2.223 . S
O56 C64 1.315 . S
Cd57 O56 2.223 . S
Cd57 O60 2.297 . S
Cd57 O61 2.439 . S
Cd57 O67 2.240 . S
Cd58 O59 2.240 . S
Cd58 O66 2.223 . S
Cd58 O68 2.297 . S
Cd58 O69 2.439 . S
O59 Cd58 2.240 . S
O59 C64 1.279 . S
O60 Cd57 2.297 . S
O60 C62 1.247 . S
O61 Cd57 2.439 . S
O61 C62 1.208 . S
C62 O60 1.247 . S
C62 O61 1.208 . S
C63 O68 1.247 . S
C63 O69 1.208 . S
C64 O56 1.315 . S
C64 O59 1.279 . S
C65 O66 1.315 . S
C65 O67 1.279 . S
O66 Cd58 2.223 . S
O66 C65 1.315 . S
O67 Cd57 2.240 . S
O67 C65 1.279 . S
O68 Cd58 2.297 . S
O68 C63 1.247 . S
O69 Cd58 2.439 . S
O69 C63 1.208 . S
O70 Cd71 2.223 . S
O70 C78 1.315 . S
Cd71 O70 2.223 . S
Cd71 O74 2.297 . S
Cd71 O75 2.439 1_554 S
Cd71 O81 2.240 1_554 S
Cd72 O73 2.240 . S
Cd72 O80 2.223 . S
Cd72 O82 2.297 1_554 S
Cd72 O83 2.439 1_554 S
O73 Cd72 2.240 . S
O73 C78 1.279 . S
O74 Cd71 2.297 . S
O74 C76 1.247 . S
O75 Cd71 2.439 1_556 S
O75 C76 1.208 1_556 S
C76 O74 1.247 . S
C76 O75 1.208 1_554 S
C77 O82 1.247 . S
C77 O83 1.208 . S
C78 O70 1.315 . S
C78 O73 1.279 . S
C79 O80 1.314 1_556 S
C79 O81 1.281 . S
O80 Cd72 2.223 . S
O80 C79 1.314 1_554 S
O81 Cd71 2.240 1_556 S
O81 C79 1.281 . S
O82 Cd72 2.297 1_556 S
O82 C77 1.247 . S
O83 Cd72 2.439 1_556 S
O83 C77 1.208 . S
O84 Cd85 2.223 . S
O84 C92 1.315 . S
Cd85 O84 2.223 . S
Cd85 O88 2.297 . S
Cd85 O89 2.439 . S
Cd85 O95 2.240 . S
Cd86 O87 2.240 . S
Cd86 O94 2.223 . S
Cd86 O96 2.297 . S
Cd86 O97 2.439 . S
O87 Cd86 2.240 . S
O87 C92 1.279 . S
O88 Cd85 2.297 . S
O88 C90 1.247 . S
O89 Cd85 2.439 . S
O89 C90 1.208 . S
C90 O88 1.247 . S
C90 O89 1.208 . S
C91 O96 1.247 . S
C91 O97 1.208 . S
C92 O84 1.315 . S
C92 O87 1.279 . S
C93 O94 1.315 . S
C93 O95 1.279 . S
O94 Cd86 2.223 . S
O94 C93 1.315 . S
O95 Cd85 2.240 . S
O95 C93 1.279 . S
O96 Cd86 2.297 . S
O96 C91 1.247 . S
O97 Cd86 2.439 . S
O97 C91 1.208 . S
O98 Cd99 2.223 . S
O98 C106 1.315 . S
Cd99 O98 2.223 . S
Cd99 O102 2.297 . S
Cd99 O103 2.439 . S
Cd99 O109 2.240 . S
Cd100 O101 2.240 . S
Cd100 O108 2.223 . S
Cd100 O110 2.297 . S
Cd100 O111 2.439 . S
O101 Cd100 2.240 . S
O101 C106 1.279 . S
O102 Cd99 2.297 . S
O102 C104 1.247 . S
O103 Cd99 2.439 . S
O103 C104 1.208 . S
C104 O102 1.247 . S
C104 O103 1.208 . S
C105 O110 1.247 . S
C105 O111 1.208 . S
C106 O98 1.315 . S
C106 O101 1.279 . S
C107 O108 1.315 . S
C107 O109 1.279 . S
O108 Cd100 2.223 . S
O108 C107 1.315 . S
O109 Cd99 2.240 . S
O109 C107 1.279 . S
O110 Cd100 2.297 . S
O110 C105 1.247 . S
O111 Cd100 2.439 . S
O111 C105 1.208 . S
O112 Cd113 2.223 . S
O112 C120 1.315 . S
Cd113 O112 2.223 . S
Cd113 O116 2.297 . S
Cd113 O117 2.439 1_556 S
Cd113 O123 2.240 1_556 S
Cd114 O115 2.240 . S
Cd114 O122 2.223 . S
Cd114 O124 2.297 1_556 S
Cd114 O125 2.439 1_556 S
O115 Cd114 2.240 . S
O115 C120 1.279 . S
O116 Cd113 2.297 . S
O116 C118 1.247 . S
O117 Cd113 2.439 1_554 S
O117 C118 1.208 1_554 S
C118 O116 1.247 . S
C118 O117 1.208 1_556 S
C119 O124 1.247 . S
C119 O125 1.208 . S
C120 O112 1.315 . S
C120 O115 1.279 . S
C121 O122 1.314 1_554 S
C121 O123 1.281 . S
O122 Cd114 2.223 . S
O122 C121 1.314 1_556 S
O123 Cd113 2.240 1_554 S
O123 C121 1.281 . S
O124 Cd114 2.297 1_554 S
O124 C119 1.247 . S
O125 Cd114 2.439 1_554 S
O125 C119 1.208 . S
O126 Cd127 2.223 . S
O126 C134 1.315 . S
Cd127 O126 2.223 . S
Cd127 O130 2.297 . S
Cd127 O131 2.439 . S
Cd127 O137 2.240 . S
Cd128 O129 2.240 . S
Cd128 O136 2.223 . S
Cd128 O138 2.297 . S
Cd128 O139 2.439 . S
O129 Cd128 2.240 . S
O129 C134 1.279 . S
O130 Cd127 2.297 . S
O130 C132 1.247 . S
O131 Cd127 2.439 . S
O131 C132 1.208 . S
C132 O130 1.247 . S
C132 O131 1.208 . S
C133 O138 1.247 . S
C133 O139 1.208 . S
C134 O126 1.315 . S
C134 O129 1.279 . S
C135 O136 1.315 . S
C135 O137 1.279 . S
O136 Cd128 2.223 . S
O136 C135 1.315 . S
O137 Cd127 2.240 . S
O137 C135 1.279 . S
O138 Cd128 2.297 . S
O138 C133 1.247 . S
O139 Cd128 2.439 . S
O139 C133 1.208 . S
O140 Cd141 2.223 . S
O140 C148 1.315 . S
Cd141 O140 2.223 . S
Cd141 O144 2.297 . S
Cd141 O145 2.439 . S
Cd141 O151 2.240 . S
Cd142 O143 2.240 . S
Cd142 O150 2.223 . S
Cd142 O152 2.297 . S
Cd142 O153 2.439 . S
O143 Cd142 2.240 . S
O143 C148 1.279 . S
O144 Cd141 2.297 . S
O144 C146 1.247 . S
O145 Cd141 2.439 . S
O145 C146 1.208 . S
C146 O144 1.247 . S
C146 O145 1.208 . S
C147 O152 1.247 . S
C147 O153 1.208 . S
C148 O140 1.315 . S
C148 O143 1.279 . S
C149 O150 1.315 . S
C149 O151 1.279 . S
O150 Cd142 2.223 . S
O150 C149 1.315 . S
O151 Cd141 2.240 . S
O151 C149 1.279 . S
O152 Cd142 2.297 . S
O152 C147 1.247 . S
O153 Cd142 2.439 . S
O153 C147 1.208 . S
O154 Cd155 2.223 . S
O154 C162 1.315 . S
Cd155 O154 2.223 . S
Cd155 O158 2.297 . S
Cd155 O159 2.439 1_556 S
Cd155 O165 2.240 1_556 S
Cd156 O157 2.240 . S
Cd156 O164 2.223 . S
Cd156 O166 2.297 1_556 S
Cd156 O167 2.439 1_556 S
O157 Cd156 2.240 . S
O157 C162 1.279 . S
O158 Cd155 2.297 . S
O158 C160 1.247 . S
O159 Cd155 2.439 1_554 S
O159 C160 1.208 1_554 S
C160 O158 1.247 . S
C160 O159 1.208 1_556 S
C161 O166 1.247 . S
C161 O167 1.208 . S
C162 O154 1.315 . S
C162 O157 1.279 . S
C163 O164 1.314 1_554 S
C163 O165 1.281 . S
O164 Cd156 2.223 . S
O164 C163 1.314 1_556 S
O165 Cd155 2.240 1_554 S
O165 C163 1.281 . S
O166 Cd156 2.297 1_554 S
O166 C161 1.247 . S
O167 Cd156 2.439 1_554 S
O167 C161 1.208 . S
C168 C169 1.387 . S
C168 H172 0.950 . S
C168 C177 1.390 . S
C169 C168 1.387 . S
C169 C171 1.387 . S
H170 C177 0.950 . S
C171 C169 1.387 . S
C171 C173 1.390 . S
C171 H175 0.950 . S
H172 C168 0.950 . S
C173 C171 1.390 . S
C173 C174 1.387 . S
C173 H176 0.950 . S
C174 C173 1.387 . S
C174 C177 1.387 . S
H175 C171 0.950 . S
H176 C173 0.950 . S
C177 C168 1.390 . S
C177 H170 0.950 . S
C177 C174 1.387 . S
C178 C179 1.387 . S
C178 H182 0.950 . S
C178 C187 1.390 . S
C179 C178 1.387 . S
C179 C181 1.387 . S
H180 C187 0.950 . S
C181 C179 1.387 . S
C181 C183 1.390 . S
C181 H185 0.950 . S
H182 C178 0.950 . S
C183 C181 1.390 . S
C183 C184 1.387 . S
C183 H186 0.950 . S
C184 C183 1.387 . S
C184 C187 1.387 . S
H185 C181 0.950 . S
H186 C183 0.950 . S
C187 C178 1.390 . S
C187 H180 0.950 . S
C187 C184 1.387 . S
C188 C189 1.390 . S
C188 H192 0.950 . S
C188 C197 1.390 . S
C189 C188 1.390 . S
C189 C191 1.385 1_554 S
H190 C197 0.950 . S
C191 C189 1.385 1_556 S
C191 C193 1.390 . S
C191 H195 0.950 . S
H192 C188 0.950 . S
C193 C191 1.390 . S
C193 C194 1.391 . S
C193 H196 0.950 . S
C194 C193 1.391 . S
C194 C197 1.384 1_556 S
H195 C191 0.950 . S
H196 C193 0.950 . S
C197 C188 1.390 . S
C197 H190 0.950 . S
C197 C194 1.384 1_554 S
C198 C199 1.387 . S
C198 H202 0.950 . S
C198 C207 1.390 . S
C199 C198 1.387 . S
C199 C201 1.387 . S
H200 C207 0.950 . S
C201 C199 1.387 . S
C201 C203 1.390 . S
C201 H205 0.950 . S
H202 C198 0.950 . S
C203 C201 1.390 . S
C203 C204 1.387 . S
C203 H206 0.950 . S
C204 C203 1.387 . S
C204 C207 1.387 . S
H205 C201 0.950 . S
H206 C203 0.950 . S
C207 C198 1.390 . S
C207 H200 0.950 . S
C207 C204 1.387 . S
C208 C209 1.387 . S
C208 H212 0.950 . S
C208 C217 1.390 . S
C209 C208 1.387 . S
C209 C211 1.387 . S
H210 C217 0.950 . S
C211 C209 1.387 . S
C211 C213 1.390 . S
C211 H215 0.950 . S
H212 C208 0.950 . S
C213 C211 1.390 . S
C213 C214 1.387 . S
C213 H216 0.950 . S
C214 C213 1.387 . S
C214 C217 1.387 . S
H215 C211 0.950 . S
H216 C213 0.950 . S
C217 C208 1.390 . S
C217 H210 0.950 . S
C217 C214 1.387 . S
C218 C219 1.386 1_554 S
C218 H222 0.950 . S
C218 C227 1.390 . S
C219 C218 1.386 1_556 S
C219 C221 1.389 . S
H220 C227 0.950 . S
C221 C219 1.389 . S
C221 C223 1.390 . S
C221 H225 0.950 . S
H222 C218 0.950 . S
C223 C221 1.390 . S
C223 C224 1.385 1_556 S
C223 H226 0.950 . S
C224 C223 1.385 1_554 S
C224 C227 1.390 . S
H225 C221 0.950 . S
H226 C223 0.950 . S
C227 C218 1.390 . S
C227 H220 0.950 . S
C227 C224 1.390 . S
C228 C229 1.387 . S
C228 H232 0.950 . S
C228 C237 1.390 . S
C229 C228 1.387 . S
C229 C231 1.387 . S
H230 C237 0.950 . S
C231 C229 1.387 . S
C231 C233 1.390 . S
C231 H235 0.950 . S
H232 C228 0.950 . S
C233 C231 1.390 . S
C233 C234 1.387 . S
C233 H236 0.950 . S
C234 C233 1.387 . S
C234 C237 1.387 . S
H235 C231 0.950 . S
H236 C233 0.950 . S
C237 C228 1.390 . S
C237 H230 0.950 . S
C237 C234 1.387 . S
C238 C239 1.387 . S
C238 H242 0.950 . S
C238 C247 1.390 1_655 S
C239 C238 1.387 . S
C239 C241 1.387 . S
H240 C247 0.950 . S
C241 C239 1.387 . S
C241 C243 1.390 1_655 S
C241 H245 0.950 . S
H242 C238 0.950 . S
C243 C241 1.390 1_455 S
C243 C244 1.387 . S
C243 H246 0.950 . S
C244 C243 1.387 . S
C244 C247 1.387 . S
H245 C241 0.950 . S
H246 C243 0.950 . S
C247 C238 1.390 1_455 S
C247 H240 0.950 . S
C247 C244 1.387 . S
C248 C249 1.387 1_554 S
C248 H252 0.950 . S
C248 C257 1.390 1_545 S
C249 C248 1.387 1_556 S
C249 C251 1.388 . S
H250 C257 0.950 . S
C251 C249 1.388 . S
C251 C253 1.390 1_545 S
C251 H255 0.950 . S
H252 C248 0.950 . S
C253 C251 1.390 1_565 S
C253 C254 1.387 1_556 S
C253 H256 0.950 . S
C254 C253 1.387 1_554 S
C254 C257 1.388 . S
H255 C251 0.950 . S
H256 C253 0.950 . S
C257 C248 1.390 1_565 S
C257 H250 0.950 . S
C257 C254 1.388 . S
C258 C259 1.387 . S
C258 H262 0.950 . S
C258 C267 1.390 . S
C259 C258 1.387 . S
C259 C261 1.387 . S
H260 C267 0.950 . S
C261 C259 1.387 . S
C261 C263 1.390 . S
C261 H265 0.950 . S
H262 C258 0.950 . S
C263 C261 1.390 . S
C263 C264 1.387 . S
C263 H266 0.950 . S
C264 C263 1.387 . S
C264 C267 1.387 . S
H265 C261 0.950 . S
H266 C263 0.950 . S
C267 C258 1.390 . S
C267 H260 0.950 . S
C267 C264 1.387 . S
C268 C269 1.387 . S
C268 H272 0.950 . S
C268 C277 1.390 1_455 S
C269 C268 1.387 . S
C269 C271 1.387 . S
H270 C277 0.950 . S
C271 C269 1.387 . S
C271 C273 1.390 1_455 S
C271 H275 0.950 . S
H272 C268 0.950 . S
C273 C271 1.390 1_655 S
C273 C274 1.387 . S
C273 H276 0.950 . S
C274 C273 1.387 . S
C274 C277 1.387 . S
H275 C271 0.950 . S
H276 C273 0.950 . S
C277 C268 1.390 1_655 S
C277 H270 0.950 . S
C277 C274 1.387 . S
C278 C279 1.397 . S
C278 H282 0.950 . S
C278 C287 1.390 1_545 S
C279 C278 1.397 . S
C279 C281 1.378 1_554 S
H280 C287 0.950 . S
C281 C279 1.378 1_556 S
C281 C283 1.390 1_545 S
C281 H285 0.950 . S
H282 C278 0.950 . S
C283 C281 1.390 1_565 S
C283 C284 1.402 . S
C283 H286 0.950 . S
C284 C283 1.402 . S
C284 C287 1.373 1_556 S
H285 C281 0.950 . S
H286 C283 0.950 . S
C287 C278 1.390 1_565 S
C287 H280 0.950 . S
C287 C284 1.373 1_554 S
C288 C289 1.387 1_455 S
C288 H292 0.950 . S
C288 C297 1.390 . S
C289 C288 1.387 1_655 S
C289 C291 1.387 . S
H290 C297 0.950 . S
C291 C289 1.387 . S
C291 C293 1.390 . S
C291 H295 0.950 . S
H292 C288 0.950 . S
C293 C291 1.390 . S
C293 C294 1.387 1_655 S
C293 H296 0.950 . S
C294 C293 1.387 1_455 S
C294 C297 1.387 . S
H295 C291 0.950 . S
H296 C293 0.950 . S
C297 C288 1.390 . S
C297 H290 0.950 . S
C297 C294 1.387 . S
C298 C299 1.387 . S
C298 H302 0.950 . S
C298 C307 1.390 1_545 S
C299 C298 1.387 . S
C299 C301 1.387 . S
H300 C307 0.950 . S
C301 C299 1.387 . S
C301 C303 1.390 1_545 S
C301 H305 0.950 . S
H302 C298 0.950 . S
C303 C301 1.390 1_565 S
C303 C304 1.387 . S
C303 H306 0.950 . S
C304 C303 1.387 . S
C304 C307 1.387 . S
H305 C301 0.950 . S
H306 C303 0.950 . S
C307 C298 1.390 1_565 S
C307 H300 0.950 . S
C307 C304 1.387 . S
C308 C309 1.387 . S
C308 H312 0.950 . S
C308 C317 1.390 . S
C309 C308 1.387 . S
C309 C311 1.387 . S
H310 C317 0.950 . S
C311 C309 1.387 . S
C311 C313 1.390 . S
C311 H315 0.950 . S
H312 C308 0.950 . S
C313 C311 1.390 . S
C313 C314 1.387 . S
C313 H316 0.950 . S
C314 C313 1.387 . S
C314 C317 1.387 . S
H315 C311 0.950 . S
H316 C313 0.950 . S
C317 C308 1.390 . S
C317 H310 0.950 . S
C317 C314 1.387 . S
C318 C319 1.387 . S
C318 H322 0.950 . S
C318 C327 1.390 . S
C319 C318 1.387 . S
C319 C321 1.387 1_455 S
H320 C327 0.950 . S
C321 C319 1.387 1_655 S
C321 C323 1.390 . S
C321 H325 0.950 . S
H322 C318 0.950 . S
C323 C321 1.390 . S
C323 C324 1.387 . S
C323 H326 0.950 . S
C324 C323 1.387 . S
C324 C327 1.387 1_655 S
H325 C321 0.950 . S
H326 C323 0.950 . S
C327 C318 1.390 . S
C327 H320 0.950 . S
C327 C324 1.387 1_455 S
C328 C329 1.387 . S
C328 H332 0.950 . S
C328 C337 1.390 1_545 S
C329 C328 1.387 . S
C329 C331 1.387 . S
H330 C337 0.950 . S
C331 C329 1.387 . S
C331 C333 1.390 1_545 S
C331 H335 0.950 . S
H332 C328 0.950 . S
C333 C331 1.390 1_565 S
C333 C334 1.387 . S
C333 H336 0.950 . S
C334 C333 1.387 . S
C334 C337 1.387 . S
H335 C331 0.950 . S
H336 C333 0.950 . S
C337 C328 1.390 1_565 S
C337 H330 0.950 . S
C337 C334 1.387 . S
C338 C339 1.387 . S
C338 H342 0.950 . S
C338 C347 1.390 . S
C339 C338 1.387 . S
C339 C341 1.387 . S
H340 C347 0.950 . S
C341 C339 1.387 . S
C341 C343 1.390 . S
C341 H345 0.950 . S
H342 C338 0.950 . S
C343 C341 1.390 . S
C343 C344 1.387 . S
C343 H346 0.950 . S
C344 C343 1.387 . S
C344 C347 1.387 . S
H345 C341 0.950 . S
H346 C343 0.950 . S
C347 C338 1.390 . S
C347 H340 0.950 . S
C347 C344 1.387 . S
C348 C349 1.387 . S
C348 H352 0.950 . S
C348 C357 1.390 . S
C349 C348 1.387 . S
C349 C351 1.387 . S
H350 C357 0.950 . S
C351 C349 1.387 . S
C351 C353 1.390 . S
C351 H355 0.950 . S
H352 C348 0.950 . S
C353 C351 1.390 . S
C353 C354 1.387 . S
C353 H356 0.950 . S
C354 C353 1.387 . S
C354 C357 1.387 . S
H355 C351 0.950 . S
H356 C353 0.950 . S
C357 C348 1.390 . S
C357 H350 0.950 . S
C357 C354 1.387 . S
C358 C359 1.387 . S
C358 H362 0.950 . S
C358 C367 1.390 . S
C359 C358 1.387 . S
C359 C361 1.387 . S
H360 C367 0.950 . S
C361 C359 1.387 . S
C361 C363 1.390 . S
C361 H365 0.950 . S
H362 C358 0.950 . S
C363 C361 1.390 . S
C363 C364 1.387 . S
C363 H366 0.950 . S
C364 C363 1.387 . S
C364 C367 1.387 . S
H365 C361 0.950 . S
H366 C363 0.950 . S
C367 C358 1.390 . S
C367 H360 0.950 . S
C367 C364 1.387 . S
C368 C369 1.387 . S
C368 H372 0.950 . S
C368 C377 1.390 . S
C369 C368 1.387 . S
C369 C371 1.387 . S
H370 C377 0.950 . S
C371 C369 1.387 . S
C371 C373 1.390 . S
C371 H375 0.950 . S
H372 C368 0.950 . S
C373 C371 1.390 . S
C373 C374 1.387 . S
C373 H376 0.950 . S
C374 C373 1.387 . S
C374 C377 1.387 . S
H375 C371 0.950 . S
H376 C373 0.950 . S
C377 C368 1.390 . S
C377 H370 0.950 . S
C377 C374 1.387 . S
C378 C379 1.387 . S
C378 H382 0.950 . S
C378 C387 1.390 . S
C379 C378 1.387 . S
C379 C381 1.387 . S
H380 C387 0.950 . S
C381 C379 1.387 . S
C381 C383 1.390 . S
C381 H385 0.950 . S
H382 C378 0.950 . S
C383 C381 1.390 . S
C383 C384 1.387 . S
C383 H386 0.950 . S
C384 C383 1.387 . S
C384 C387 1.387 . S
H385 C381 0.950 . S
H386 C383 0.950 . S
C387 C378 1.390 . S
C387 H380 0.950 . S
C387 C384 1.387 . S
C388 C389 1.387 . S
C388 H392 0.950 . S
C388 C397 1.390 . S
C389 C388 1.387 . S
C389 C391 1.387 . S
H390 C397 0.950 . S
C391 C389 1.387 . S
C391 C393 1.390 . S
C391 H395 0.950 . S
H392 C388 0.950 . S
C393 C391 1.390 . S
C393 C394 1.387 . S
C393 H396 0.950 . S
C394 C393 1.387 . S
C394 C397 1.387 . S
H395 C391 0.950 . S
H396 C393 0.950 . S
C397 C388 1.390 . S
C397 H390 0.950 . S
C397 C394 1.387 . S
C398 C399 1.387 . S
C398 H402 0.950 . S
C398 C407 1.390 . S
C399 C398 1.387 . S
C399 C401 1.387 . S
H400 C407 0.950 . S
C401 C399 1.387 . S
C401 C403 1.390 . S
C401 H405 0.950 . S
H402 C398 0.950 . S
C403 C401 1.390 . S
C403 C404 1.387 . S
C403 H406 0.950 . S
C404 C403 1.387 . S
C404 C407 1.387 . S
H405 C401 0.950 . S
H406 C403 0.950 . S
C407 C398 1.390 . S
C407 H400 0.950 . S
C407 C404 1.387 . S
C169 C7 1.665 . S
C174 C91 1.683 . S
C179 C21 1.679 . S
C184 C105 1.669 . S
C189 C34 1.599 . S
C194 C118 1.598 . S
C199 C133 1.683 . S
C204 C49 1.665 . S
C209 C63 1.679 . S
C214 C147 1.669 . S
C219 C160 1.598 . S
C224 C76 1.599 . S
C229 C8 1.612 . S
C234 C134 1.613 . S
C239 C22 1.613 . S
C244 C148 1.612 . S
C249 C163 1.536 1_556 S
C254 C37 1.536 1_554 S
C259 C92 1.612 . S
C264 C50 1.613 . S
C269 C64 1.612 . S
C274 C106 1.613 . S
C279 C79 1.536 1_554 S
C284 C121 1.536 1_556 S
C289 C161 1.529 . S
C294 C6 1.523 . S
C299 C20 1.678 . S
C304 C90 1.678 . S
C309 C35 1.529 . S
C314 C104 1.523 . S
C319 C119 1.529 . S
C324 C48 1.523 . S
C329 C132 1.678 . S
C334 C62 1.678 . S
C339 C77 1.529 . S
C344 C146 1.523 . S
C349 C9 1.150 . S
C354 C149 1.150 . S
C359 C162 1.277 . S
C364 C23 1.280 . S
C369 C93 1.278 . S
C374 C36 1.281 . S
C379 C51 1.144 . S
C384 C107 1.144 . S
C389 C120 1.281 . S
C394 C65 1.281 . S
C399 C135 1.278 . S
C404 C78 1.284 . S
