# Generated by pormake.
# Topology snz, (6)-cn, num edge types: 1
# Building blocks:
#     Node 0, Type 0, BuildingBlock: BETFAJ_clean_sbu_0, # of connection points: 6
#     Node 1, Type 0, BuildingBlock: BETFAJ_clean_sbu_0, # of connection points: 6
#     Node 2, Type 0, BuildingBlock: BETFAJ_clean_sbu_0, # of connection points: 6
#     Node 3, Type 0, BuildingBlock: BETFAJ_clean_sbu_0, # of connection points: 6
#     Node 4, Type 0, BuildingBlock: BETFAJ_clean_sbu_0, # of connection points: 6
#     Node 5, Type 0, BuildingBlock: BETFAJ_clean_sbu_0, # of connection points: 6
#     Node 6, Type 0, BuildingBlock: BETFAJ_clean_sbu_0, # of connection points: 6
#     Node 7, Type 0, BuildingBlock: BETFAJ_clean_sbu_0, # of connection points: 6
#     Node 8, Type 0, BuildingBlock: BETFAJ_clean_sbu_0, # of connection points: 6
#     Edge 9, Type (0, 0), BuildingBlock: XIVTED_clean_linker_0, # of connection points: 2
#     Edge 10, Type (0, 0), BuildingBlock: XIVTED_clean_linker_0, # of connection points: 2
#     Edge 11, Type (0, 0), BuildingBlock: XIVTED_clean_linker_0, # of connection points: 2
#     Edge 12, Type (0, 0), BuildingBlock: XIVTED_clean_linker_0, # of connection points: 2
#     Edge 13, Type (0, 0), BuildingBlock: XIVTED_clean_linker_0, # of connection points: 2
#     Edge 14, Type (0, 0), BuildingBlock: XIVTED_clean_linker_0, # of connection points: 2
#     Edge 15, Type (0, 0), BuildingBlock: XIVTED_clean_linker_0, # of connection points: 2
#     Edge 16, Type (0, 0), BuildingBlock: XIVTED_clean_linker_0, # of connection points: 2
#     Edge 17, Type (0, 0), BuildingBlock: XIVTED_clean_linker_0, # of connection points: 2
#     Edge 18, Type (0, 0), BuildingBlock: XIVTED_clean_linker_0, # of connection points: 2
#     Edge 19, Type (0, 0), BuildingBlock: XIVTED_clean_linker_0, # of connection points: 2
#     Edge 20, Type (0, 0), BuildingBlock: XIVTED_clean_linker_0, # of connection points: 2
#     Edge 21, Type (0, 0), BuildingBlock: XIVTED_clean_linker_0, # of connection points: 2
#     Edge 22, Type (0, 0), BuildingBlock: XIVTED_clean_linker_0, # of connection points: 2
#     Edge 23, Type (0, 0), BuildingBlock: XIVTED_clean_linker_0, # of connection points: 2
#     Edge 24, Type (0, 0), BuildingBlock: XIVTED_clean_linker_0, # of connection points: 2
#     Edge 25, Type (0, 0), BuildingBlock: XIVTED_clean_linker_0, # of connection points: 2
#     Edge 26, Type (0, 0), BuildingBlock: XIVTED_clean_linker_0, # of connection points: 2
#     Edge 27, Type (0, 0), BuildingBlock: XIVTED_clean_linker_0, # of connection points: 2
#     Edge 28, Type (0, 0), BuildingBlock: XIVTED_clean_linker_0, # of connection points: 2
#     Edge 29, Type (0, 0), BuildingBlock: XIVTED_clean_linker_0, # of connection points: 2
#     Edge 30, Type (0, 0), BuildingBlock: XIVTED_clean_linker_0, # of connection points: 2
#     Edge 31, Type (0, 0), BuildingBlock: XIVTED_clean_linker_0, # of connection points: 2
#     Edge 32, Type (0, 0), BuildingBlock: XIVTED_clean_linker_0, # of connection points: 2
#     Edge 33, Type (0, 0), BuildingBlock: XIVTED_clean_linker_0, # of connection points: 2
#     Edge 34, Type (0, 0), BuildingBlock: XIVTED_clean_linker_0, # of connection points: 2
#     Edge 35, Type (0, 0), BuildingBlock: XIVTED_clean_linker_0, # of connection points: 2
# Relax obj value: 0.434
# Max RMSD: 0.270
# Mean RMSD: 0.177
data_MOF--net-snz--node1-BETFAJ_clean_sbu_0--edge1-XIVTED_clean_linker_0
_symmetry_space_group_name_H-M    P1
_symmetry_Int_Tables_number       1
_symmetry_cell_setting            triclinic
loop_
_symmetry_equiv_pos_as_xyz
'x, y, z'
_cell_length_a     67.219752
_cell_length_b     54.862736
_cell_length_c     16.126467
_cell_angle_alpha  96.308657
_cell_angle_beta   97.801987
_cell_angle_gamma 120.45002
loop_
_atom_site_label
_atom_site_type_symbol
_atom_site_fract_x
_atom_site_fract_y
_atom_site_fract_z
_atom_type_partial_charge
Sm0 Sm 0.12428 0.50264 0.19918 0.0
Sm1 Sm 0.08518 0.50152 0.19723 0.0
C2 C 0.15566 0.48651 0.23445 0.0
C3 C 0.15634 0.4593 0.23059 0.0
C4 C 0.14553 0.43973 0.28359 0.0
C5 C 0.14901 0.41662 0.28867 0.0
C6 C 0.16336 0.41205 0.24083 0.0
C7 C 0.17302 0.4306 0.18401 0.0
C8 C 0.16968 0.45392 0.17941 0.0
C9 C 0.11124 0.5081 1.0304 0.0
C10 C 0.0741 0.43927 0.13437 0.0
C11 C 0.04767 0.50666 0.18437 0.0
C12 C 0.04245 0.52939 0.18714 0.0
C13 C 0.06055 0.55805 0.19333 0.0
C14 C 0.0552 0.57923 0.18663 0.0
C15 C 0.03155 0.5718 0.1721 0.0
C16 C 1.01357 0.54329 0.1711 0.0
C17 C 1.01903 0.52219 0.17873 0.0
C18 C 0.09927 0.4949 0.3635 0.0
C19 C 0.13259 0.56673 0.23049 0.0
O20 O 0.1452 0.49174 0.29009 0.0
O21 O 0.15198 0.49442 0.1634 0.0
O22 O 0.09676 0.49122 1.07286 0.0
O23 O 0.13232 0.52354 0.08047 0.0
O24 O 0.0972 0.4529 0.15934 0.0
O25 O 0.06378 0.45384 0.13805 0.0
O26 O 0.0558 0.50239 0.119 0.0
O27 O 0.05904 0.50645 0.25587 0.0
O28 O 0.11274 0.51338 0.32247 0.0
O29 O 0.07915 0.47711 0.31029 0.0
O30 O 0.10937 0.5509 0.20739 0.0
O31 O 0.1443 0.55332 0.23853 0.0
H32 H 0.1349 0.44273 0.3235 0.0
H33 H 0.14078 0.40259 0.33181 0.0
H34 H 0.18418 0.428 0.14601 0.0
H35 H 0.17828 0.4684 0.13779 0.0
H36 H 0.07863 0.56377 0.19948 0.0
H37 H 0.06941 0.60107 0.1884 0.0
H38 H 0.99513 0.5368 0.15871 0.0
H39 H 1.00489 0.50006 0.17411 0.0
Sm40 Sm 0.66747 0.50041 0.19585 0.0
Sm41 Sm 0.63246 0.50494 0.16078 0.0
C42 C 0.7094 0.50456 0.22021 0.0
C43 C 0.73268 0.523 0.20089 0.0
C44 C 0.73549 0.54177 0.14504 0.0
C45 C 0.75748 0.55889 0.12551 0.0
C46 C 0.77725 0.55783 0.16197 0.0
C47 C 0.77441 0.53933 0.21946 0.0
C48 C 0.75229 0.52207 0.2387 0.0
C49 C 0.64992 0.49524 0.34887 0.0
C50 C 0.67746 0.56723 0.2102 0.0
C51 C 0.58981 0.49742 0.14043 0.0
C52 C 0.56804 0.47538 0.16133 0.0
C53 C 0.56906 0.45999 0.22421 0.0
C54 C 0.54825 0.43753 0.23946 0.0
C55 C 0.52608 0.43018 0.19236 0.0
C56 C 0.52523 0.44574 0.1295 0.0
C57 C 0.54606 0.46808 0.11396 0.0
C58 C 0.65064 0.50978 1.00812 0.0
C59 C 0.61831 0.43895 0.13408 0.0
O60 O 0.69188 0.48759 0.15521 0.0
O61 O 0.70338 0.51717 0.27556 0.0
O62 O 0.65242 0.51374 0.30227 0.0
O63 O 0.65391 0.47697 0.30808 0.0
O64 O 0.6866 0.55106 0.19572 0.0
O65 O 0.65489 0.55375 0.20895 0.0
O66 O 0.6072 0.51529 0.20518 0.0
O67 O 0.59675 0.48783 0.08034 0.0
O68 O 0.64792 0.49141 1.05517 0.0
O69 O 0.64572 0.52746 1.04644 0.0
O70 O 0.61203 0.45618 0.16681 0.0
O71 O 0.64054 0.45144 0.1273 0.0
H72 H 0.72058 0.54288 0.11555 0.0
H73 H 0.75874 0.57238 0.07978 0.0
H74 H 0.78923 0.53818 0.2496 0.0
H75 H 0.75047 0.50788 0.28274 0.0
H76 H 0.58593 0.46519 0.26111 0.0
H77 H 0.54955 0.42583 0.2877 0.0
H78 H 0.50846 0.44101 0.09319 0.0
H79 H 0.54502 0.47959 1.06474 0.0
Sm80 Sm 0.62512 0.08288 0.11835 0.0
Sm81 Sm 0.67125 0.13929 0.16847 0.0
C82 C 0.58337 0.03958 0.12788 0.0
C83 C 0.56171 0.03713 0.14798 0.0
C84 C 0.55995 0.04335 0.23283 0.0
C85 C 0.53857 0.03874 0.24999 0.0
C86 C 0.5187 0.02784 0.18264 0.0
C87 C 0.52105 0.02355 0.09794 0.0
C88 C 0.54222 0.02785 0.08088 0.0
C89 C 0.63934 0.09514 0.95963 0.0
C90 C 0.62087 0.13957 0.10844 0.0
C91 C 0.71575 0.1779 0.15763 0.0
C92 C 0.73635 0.17673 0.13501 0.0
C93 C 0.73368 0.15086 0.09402 0.0
C94 C 0.75307 0.15034 1.07109 0.0
C95 C 0.77585 0.17573 0.08766 0.0
C96 C 0.77848 0.20147 0.13041 0.0
C97 C 0.75913 0.20191 0.15379 0.0
C98 C 0.65774 0.12822 0.32857 0.0
C99 C 0.67017 0.0772 0.17505 0.0
O100 O 0.60209 0.05141 0.19038 0.0
O101 O 0.5884 0.04754 1.05634 0.0
O102 O 0.65055 0.11066 1.0356 0.0
O103 O 0.62119 0.07157 0.96956 0.0
O104 O 0.61046 0.11276 0.11939 0.0
O105 O 0.64468 0.15531 0.12102 0.0
O106 O 0.69706 0.16816 0.09652 0.0
O107 O 0.70984 0.17041 0.22859 0.0
O108 O 0.64607 0.11199 0.25314 0.0
O109 O 0.67515 0.15224 0.3166 0.0
O110 O 0.68285 0.10525 0.17579 0.0
O111 O 0.64698 0.06307 0.15492 0.0
H112 H 0.57477 0.05084 0.28607 0.0
H113 H 0.53723 0.04208 0.31597 0.0
H114 H 0.50613 0.01555 1.0447 0.0
H115 H 0.54309 0.02313 1.01493 0.0
H116 H 0.71646 0.131 0.0786 0.0
H117 H 0.74999 0.13005 1.03803 0.0
H118 H 0.79561 0.22145 0.14623 0.0
H119 H 0.76196 0.22216 0.18608 0.0
Sm120 Sm 0.80691 0.85283 0.35502 0.0
Sm121 Sm 0.76833 0.8531 0.34477 0.0
C122 C 0.84314 0.84532 0.3774 0.0
C123 C 0.84775 0.82204 0.35918 0.0
C124 C 0.83635 0.79703 0.39251 0.0
C125 C 0.84327 0.77705 0.38502 0.0
C126 C 0.86162 0.78158 0.3436 0.0
C127 C 0.87168 0.80549 0.30436 0.0
C128 C 0.86491 0.82569 0.3127 0.0
C129 C 0.79464 0.85886 0.18476 0.0
C130 C 0.75923 0.78847 0.31516 0.0
C131 C 0.73667 0.86897 0.31036 0.0
C132 C 0.73526 0.89561 0.3134 0.0
C133 C 0.75147 0.9201 0.28491 0.0
C134 C 0.74823 0.94353 0.28049 0.0
C135 C 0.72857 0.94328 0.30387 0.0
C136 C 0.71286 0.91897 0.33475 0.0
C137 C 0.7162 0.89574 0.33958 0.0
C138 C 0.78054 0.84841 0.51679 0.0
C139 C 0.81854 0.91533 0.40489 0.0
O140 O 0.83077 0.84352 0.43463 0.0
O141 O 0.83764 0.85443 0.31219 0.0
O142 O 0.78029 0.84102 0.22517 0.0
O143 O 0.81477 0.87568 0.23887 0.0
O144 O 0.78217 0.80383 0.34625 0.0
O145 O 0.74831 0.80246 0.29913 0.0
O146 O 0.74707 0.86384 0.2544 0.0
O147 O 0.74108 0.86188 0.38205 0.0
O148 O 0.7951 0.86525 0.47474 0.0
O149 O 0.75979 0.83273 0.46488 0.0
O150 O 0.79641 0.90223 0.36347 0.0
O151 O 0.82733 0.89971 0.42276 0.0
H152 H 0.82291 0.79354 0.42813 0.0
H153 H 0.83536 0.75923 0.41742 0.0
H154 H 0.88565 0.8094 0.27112 0.0
H155 H 0.87377 0.84476 0.28586 0.0
H156 H 0.7665 0.92099 0.26463 0.0
H157 H 0.76118 0.96176 0.25816 0.0
H158 H 0.6973 0.91713 0.35258 0.0
H159 H 0.70333 0.8773 0.36161 0.0
Sm160 Sm 0.25858 0.84925 0.37523 0.0
Sm161 Sm 0.22457 0.85504 0.3416 0.0
C162 C 0.3007 0.85542 0.39535 0.0
C163 C 0.32309 0.87862 0.38201 0.0
C164 C 0.32329 0.89637 0.32507 0.0
C165 C 0.34472 0.91888 0.31414 0.0
C166 C 0.3661 0.92345 0.35875 0.0
C167 C 0.36587 0.90612 0.41699 0.0
C168 C 0.34446 0.88396 0.42909 0.0
C169 C 0.24048 0.8436 0.52768 0.0
C170 C 0.27463 0.91628 0.40565 0.0
C171 C 0.1829 0.85137 0.31898 0.0
C172 C 0.15993 0.83443 0.34182 0.0
C173 C 0.1547 0.81061 0.37946 0.0
C174 C 0.13304 0.79511 0.403 0.0
C175 C 0.11632 0.8033 0.38985 0.0
C176 C 0.12147 0.82685 0.35047 0.0
C177 C 0.14309 0.84224 0.32645 0.0
C178 C 0.24159 0.86017 0.18755 0.0
C179 C 0.21365 0.7877 0.31926 0.0
O180 O 0.28394 0.83995 0.32685 0.0
O181 O 0.29317 0.86272 0.45788 0.0
O182 O 0.24319 0.86242 0.48229 0.0
O183 O 0.24506 0.82586 0.48731 0.0
O184 O 0.28072 0.89823 0.37875 0.0
O185 O 0.25191 0.90484 0.40445 0.0
O186 O 0.20089 0.86926 0.38152 0.0
O187 O 0.18816 0.83724 0.26537 0.0
O188 O 0.23916 0.84156 0.23367 0.0
O189 O 0.23762 0.87832 0.22905 0.0
O190 O 0.20516 0.8041 0.34143 0.0
O191 O 0.23593 0.80123 0.31671 0.0
H192 H 0.30693 0.89247 0.28767 0.0
H193 H 0.34459 0.93167 0.26765 0.0
H194 H 0.38229 0.9092 0.45099 0.0
H195 H 0.34456 0.87064 0.47383 0.0
H196 H 0.1675 0.80427 0.39177 0.0
H197 H 0.1297 0.77728 0.43406 0.0
H198 H 0.10883 0.83347 0.33872 0.0
H199 H 0.14678 0.86044 0.29676 0.0
Sm200 Sm 0.22489 0.2197 0.37089 0.0
Sm201 Sm 0.26626 0.2703 0.41982 0.0
C202 C 0.18025 0.18456 0.3879 0.0
C203 C 0.1579 0.18474 0.3904 0.0
C204 C 0.15907 0.21049 0.42297 0.0
C205 C 0.13926 0.21008 0.4445 0.0
C206 C 0.11734 0.18393 0.43402 0.0
C207 C 0.11573 0.15829 0.39634 0.0
C208 C 0.13572 0.15868 0.37559 0.0
C209 C 0.24049 0.23142 0.21561 0.0
C210 C 0.22433 0.28055 0.36783 0.0
C211 C 0.30984 0.31469 0.43277 0.0
C212 C 0.331 0.31936 0.40332 0.0
C213 C 0.32945 0.30063 0.33237 0.0
C214 C 0.34999 0.30548 0.30637 0.0
C215 C 0.37231 0.32894 0.35155 0.0
C216 C 0.37362 0.34758 0.42224 0.0
C217 C 0.35315 0.34282 0.44778 0.0
C218 C 0.24901 0.25485 0.57158 0.0
C219 C 0.27298 0.21619 0.41917 0.0
O220 O 0.19829 0.20272 0.44997 0.0
O221 O 0.18683 0.18245 0.31583 0.0
O222 O 0.2432 0.25036 0.27915 0.0
O223 O 0.2297 0.20589 0.23571 0.0
O224 O 0.21233 0.25205 0.34821 0.0
O225 O 0.24686 0.29441 0.40392 0.0
O226 O 0.29172 0.30852 0.37382 0.0
O227 O 0.30381 0.29905 0.49063 0.0
O228 O 0.24863 0.23815 0.50807 0.0
O229 O 0.25834 0.28037 0.55324 0.0
O230 O 0.28192 0.24167 0.39921 0.0
O231 O 0.24978 0.20167 0.41735 0.0
H232 H 0.17573 0.23102 0.43588 0.0
H233 H 0.14133 0.23041 0.47148 0.0
H234 H 0.09933 0.13766 0.38698 0.0
H235 H 0.13409 0.13836 0.35173 0.0
H236 H 0.31241 0.2823 0.2973 0.0
H237 H 0.34846 0.29077 0.25173 0.0
H238 H 0.39049 0.3662 0.45721 0.0
H239 H 0.35463 0.35752 0.50236 0.0
Sm240 Sm 0.45641 0.1894 0.70893 0.0
Sm241 Sm 0.43706 0.16694 0.82509 0.0
C242 C 0.47327 0.20847 0.57643 0.0
C243 C 0.46363 0.22032 0.51693 0.0
C244 C 0.43907 0.2073 0.49001 0.0
C245 C 0.42987 0.21833 0.43324 0.0
C246 C 0.44513 0.23972 0.39232 0.0
C247 C 0.46927 0.25704 0.43541 0.0
C248 C 0.47859 0.24672 0.49523 0.0
C249 C 0.47567 0.23569 0.848 0.0
C250 C 0.40733 0.18858 0.70378 0.0
C251 C 0.41969 0.14672 0.95584 0.0
C252 C 0.42916 0.13471 1.01532 0.0
C253 C 0.45369 0.14764 1.04285 0.0
C254 C 0.46272 0.13655 0.10006 0.0
C255 C 0.44729 0.11525 0.14083 0.0
C256 C 0.42321 0.09797 0.09707 0.0
C257 C 0.41406 0.10834 1.03682 0.0
C258 C 0.41783 0.12139 0.68389 0.0
C259 C 0.48652 0.16844 0.83093 0.0
O260 O 0.46005 0.18083 0.57526 0.0
O261 O 0.48252 0.22413 0.6535 0.0
O262 O 0.47283 0.21101 0.85177 0.0
O263 O 0.46391 0.23367 0.77433 0.0
O264 O 0.4232 0.19177 0.65948 0.0
O265 O 0.40999 0.18164 0.77913 0.0
O266 O 0.43282 0.17447 0.95844 0.0
O267 O 0.41091 0.13146 0.87828 0.0
O268 O 0.4202 0.14591 0.68297 0.0
O269 O 0.43035 0.12326 0.75561 0.0
O270 O 0.47063 0.1652 0.87523 0.0
O271 O 0.48367 0.17507 0.75527 0.0
H272 H 0.42688 0.18774 0.50915 0.0
H273 H 0.41084 0.2063 0.40988 0.0
H274 H 0.48154 0.27573 0.4128 0.0
H275 H 0.49753 0.25853 0.52098 0.0
H276 H 0.46599 0.1672 1.02402 0.0
H277 H 0.48173 0.14853 0.12398 0.0
H278 H 0.41081 0.07931 0.11952 0.0
H279 H 0.39515 0.09661 1.01066 0.0
Sm280 Sm 0.95414 0.16741 0.82713 0.0
Sm281 Sm 0.93811 0.18655 0.70485 0.0
C282 C 0.96535 0.14919 0.96062 0.0
C283 C 0.95053 0.12757 1.00638 0.0
C284 C 0.9264 0.11763 0.99435 0.0
C285 C 0.91354 0.10241 1.05135 0.0
C286 C 0.92525 0.09882 0.12441 0.0
C287 C 0.94741 0.10206 0.1215 0.0
C288 C 0.96041 0.11757 1.06498 0.0
C289 C 0.92539 0.12305 0.68736 0.0
C290 C 0.90587 0.16895 0.83984 0.0
C291 C 0.92724 0.2058 0.57339 0.0
C292 C 0.9424 0.2288 0.53242 0.0
C293 C 0.96692 0.24089 0.55214 0.0
C294 C 0.98062 0.25715 0.49854 0.0
C295 C 0.96932 0.25892 0.42079 0.0
C296 C 0.94647 0.25432 0.41712 0.0
C297 C 0.9326 0.23783 0.47014 0.0
C298 C 0.9682 0.23105 0.84357 0.0
C299 C 0.98617 0.18496 0.69155 0.0
O300 O 0.96444 0.17256 0.96773 0.0
O301 O 0.96431 0.13895 0.88247 0.0
O302 O 0.92002 0.14022 0.72095 0.0
O303 O 0.94638 0.13011 0.72378 0.0
O304 O 0.92487 0.17092 0.88439 0.0
O305 O 0.9044 0.16919 0.75789 0.0
O306 O 0.92911 0.18312 0.56457 0.0
O307 O 0.92709 0.21451 0.65134 0.0
O308 O 0.9727 0.21338 0.80783 0.0
O309 O 0.94702 0.22418 0.81099 0.0
O310 O 0.96649 0.18119 0.6461 0.0
O311 O 0.98812 0.18658 0.77459 0.0
H312 H 0.918 0.12356 0.94523 0.0
H313 H 0.89563 0.09768 1.04481 0.0
H314 H 0.95635 0.09687 0.17089 0.0
H315 H 0.97865 0.12351 1.07132 0.0
H316 H 0.9751 0.2357 0.60425 0.0
H317 H 0.999 0.26348 0.51047 0.0
H318 H 0.93776 0.25856 0.36424 0.0
H319 H 0.91392 0.23027 0.458 0.0
Sm320 Sm 0.92829 0.65546 0.6945 0.0
Sm321 Sm 0.96174 0.70455 0.84531 0.0
C322 C 0.90382 0.6187 0.54686 0.0
C323 C 0.91196 0.6074 0.48179 0.0
C324 C 0.9362 0.61842 0.491 0.0
C325 C 0.94476 0.61299 0.42181 0.0
C326 C 0.92918 0.59764 0.34084 0.0
C327 C 0.90466 0.58129 0.33918 0.0
C328 C 0.89609 0.58702 0.4083 0.0
C329 C 0.95469 0.64358 0.80682 0.0
C330 C 0.98243 0.70453 0.67978 0.0
C331 C 0.98517 0.74085 0.99413 0.0
C332 C 0.97551 0.75085 1.05611 0.0
C333 C 0.95132 0.74088 1.03712 0.0
C334 C 0.94037 0.74306 0.10249 0.0
C335 C 0.95328 0.7531 0.18844 0.0
C336 C 0.97827 0.7701 0.20201 0.0
C337 C 0.98932 0.76775 0.13678 0.0
C338 C 0.93658 0.71744 0.73012 0.0
C339 C 0.9086 0.65552 0.86188 0.0
O340 O 0.91186 0.64642 0.55687 0.0
O341 O 0.90503 0.61052 0.61934 0.0
O342 O 0.96253 0.66681 0.78095 0.0
O343 O 0.93248 0.62545 0.77319 0.0
O344 O 0.96021 0.68573 0.63872 0.0
O345 O 0.98867 0.71169 0.76411 0.0
O346 O 0.97774 0.7133 0.98343 0.0
O347 O 0.98452 0.74932 0.92196 0.0
O348 O 0.92803 0.69394 0.75517 0.0
O349 O 0.95821 0.73551 0.7707 0.0
O350 O 0.9311 0.67222 0.9015 0.0
O351 O 0.90197 0.65048 0.77785 0.0
H352 H 0.94867 0.63301 0.54956 0.0
H353 H 0.96377 0.62419 0.42982 0.0
H354 H 0.89186 0.56708 0.28098 0.0
H355 H 0.87718 0.57707 0.40202 0.0
H356 H 0.94052 0.72907 0.97346 0.0
H357 H 0.92131 0.73245 0.08631 0.0
H358 H 0.98929 0.78124 0.26553 0.0
H359 H 1.00829 0.77707 0.15122 0.0
H360 H 0.07188 0.46815 0.89129 0.0
H361 H 0.13672 0.53628 0.50424 0.0
H362 H 0.1427 0.5421 0.93602 0.0
H363 H 0.06724 0.45962 0.4552 0.0
H364 H 0.13865 0.53918 0.65986 0.0
H365 H 0.06906 0.46514 0.73487 0.0
C366 C 0.08689 0.48393 0.86933 0.0
C367 C 0.10766 0.50549 0.93062 0.0
C368 C 0.12292 0.52159 0.61542 0.0
C369 C 0.10449 0.50203 0.74569 0.0
C370 C 0.12183 0.51989 0.52518 0.0
C371 C 0.10183 0.49752 0.46294 0.0
C372 C 0.10387 0.50089 0.6472 0.0
C373 C 0.08324 0.47733 0.49814 0.0
C374 C 0.08527 0.48213 0.77863 0.0
C375 C 0.12623 0.52494 0.89404 0.0
N376 N 0.08471 0.4795 0.58559 0.0
N377 N 0.1242 0.52275 0.80647 0.0
H378 H 0.64033 0.46182 0.88281 0.0
H379 H 0.66236 0.54374 0.47666 0.0
H380 H 0.66322 0.55153 0.90741 0.0
H381 H 0.63823 0.45362 0.45038 0.0
H382 H 0.66362 0.54723 0.63197 0.0
H383 H 0.64016 0.45852 0.72817 0.0
C384 C 0.64559 0.48103 0.85672 0.0
C385 C 0.65181 0.50708 0.91144 0.0
C386 C 0.65783 0.52653 0.59254 0.0
C387 C 0.65168 0.50338 0.72871 0.0
C388 C 0.657 0.52447 0.50245 0.0
C389 C 0.64988 0.49818 0.44676 0.0
C390 C 0.65133 0.50213 0.63054 0.0
C391 C 0.64376 0.47446 0.48814 0.0
C392 C 0.6454 0.47908 0.76706 0.0
C393 C 0.65814 0.53081 0.8701 0.0
N394 N 0.64451 0.47697 0.57523 0.0
N395 N 0.65795 0.52841 0.78346 0.0
H396 H 0.67576 0.14417 0.90658 0.0
H397 H 0.62201 0.07974 0.38552 0.0
H398 H 0.61254 0.06112 0.79849 0.0
H399 H 0.68497 0.16336 0.48994 0.0
H400 H 0.61844 0.07286 0.53361 0.0
H401 H 0.67979 0.15181 0.75907 0.0
C402 C 0.66266 0.12736 0.85278 0.0
C403 C 0.64371 0.10168 0.86865 0.0
C404 C 0.6331 0.09283 0.52469 0.0
C405 C 0.64828 0.11063 0.69336 0.0
C406 C 0.63516 0.09685 0.43856 0.0
C407 C 0.65385 0.12241 0.42109 0.0
C408 C 0.64984 0.1143 0.59773 0.0
C409 C 0.67006 0.14323 0.49671 0.0
C410 C 0.66498 0.13181 0.76709 0.0
C411 C 0.62759 0.08128 0.79265 0.0
N412 N 0.66771 0.13878 0.57903 0.0
N413 N 0.63021 0.08611 0.711 0.0
H414 H 0.74675 0.81895 0.60936 0.0
H415 H 0.82928 0.88952 0.09553 0.0
H416 H 0.82122 0.88269 0.65826 0.0
H417 H 0.75511 0.82421 1.04145 0.0
H418 H 0.82701 0.88767 0.94098 0.0
H419 H 0.74982 0.82116 0.76388 0.0
C420 C 0.76394 0.83353 0.65186 0.0
C421 C 0.78366 0.85061 0.61658 0.0
C422 C 0.8111 0.87368 0.96207 0.0
C423 C 0.7874 0.85324 0.80158 0.0
C424 C 0.81233 0.87469 1.05186 0.0
C425 C 0.79236 0.85704 0.08549 0.0
C426 C 0.78958 0.85488 0.90107 0.0
C427 C 0.77119 0.83841 1.02179 0.0
C428 C 0.76564 0.83474 0.74174 0.0
C429 C 0.80524 0.86892 0.67915 0.0
N430 N 0.77045 0.83796 0.93488 0.0
N431 N 0.80643 0.86966 0.76652 0.0
H432 H 0.2404 0.80727 0.6358 0.0
H433 H 0.23948 0.89521 0.07771 0.0
H434 H 0.23835 0.88459 0.64603 0.0
H435 H 0.24249 0.81852 1.06716 0.0
H436 H 0.23836 0.89131 0.92325 0.0
H437 H 0.24034 0.81054 0.78928 0.0
C438 C 0.23989 0.82505 0.66959 0.0
C439 C 0.23947 0.84567 0.62451 0.0
C440 C 0.23933 0.87526 0.95406 0.0
C441 C 0.23945 0.84968 0.80706 0.0
C442 C 0.24002 0.87747 1.04375 0.0
C443 C 0.24129 0.85736 0.08935 0.0
C444 C 0.2399 0.85261 0.90552 0.0
C445 C 0.24168 0.8349 1.03781 0.0
C446 C 0.23988 0.8269 0.75868 0.0
C447 C 0.23875 0.86798 0.67539 0.0
N448 N 0.24103 0.83326 0.95071 0.0
N449 N 0.2388 0.86933 0.76205 0.0
H450 H 0.21379 0.209 0.63426 0.0
H451 H 0.27433 0.2775 0.14929 0.0
H452 H 0.28043 0.28921 0.72912 0.0
H453 H 0.20999 0.19446 1.05725 0.0
H454 H 0.27644 0.28209 0.99907 0.0
H455 H 0.21138 0.20357 0.78397 0.0
C456 C 0.22821 0.22541 0.68578 0.0
C457 C 0.24752 0.24964 0.66544 0.0
C458 C 0.26166 0.26286 1.01101 0.0
C459 C 0.24484 0.24332 0.84366 0.0
C460 C 0.26037 0.26022 0.09836 0.0
C461 C 0.24184 0.23551 0.12012 0.0
C462 C 0.24409 0.24097 0.94065 0.0
C463 C 0.2248 0.21404 1.04712 0.0
C464 C 0.22675 0.2223 0.77274 0.0
C465 C 0.26507 0.27008 0.73862 0.0
N466 N 0.22625 0.21734 0.96326 0.0
N467 N 0.26336 0.26642 0.8219 0.0
H468 H 0.47256 0.26071 0.26257 0.0
H469 H 0.41945 0.09431 0.26955 0.0
H470 H 0.40106 0.2032 0.25896 0.0
H471 H 0.49107 0.15209 0.27507 0.0
H472 H 0.41258 0.13442 0.28644 0.0
H473 H 0.47928 0.22046 0.24457 0.0
C474 C 0.45793 0.23898 0.25881 0.0
C475 C 0.43877 0.23443 0.29549 0.0
C476 C 0.42993 0.13872 0.28157 0.0
C477 C 0.44365 0.18885 0.25709 0.0
C478 C 0.43409 0.11606 0.27351 0.0
C479 C 0.4534 0.12069 0.23773 0.0
C480 C 0.44826 0.16614 0.27482 0.0
C481 C 0.4736 0.14808 0.27609 0.0
C482 C 0.46198 0.21624 0.25007 0.0
C483 C 0.41847 0.20712 0.25727 0.0
N484 N 0.47051 0.17087 0.28198 0.0
N485 N 0.42145 0.18423 0.25074 0.0
H486 H 1.00766 0.25244 0.38658 0.0
H487 H 0.88726 0.10332 0.17415 0.0
H488 H 0.94698 0.24646 0.24274 0.0
H489 H 0.94918 0.10784 0.29841 0.0
H490 H 0.90661 0.15575 0.22087 0.0
H491 H 0.98857 0.19988 0.34669 0.0
C492 C 0.98997 0.23993 0.34634 0.0
C493 C 0.97543 0.25151 0.33878 0.0
C494 C 0.91641 0.14551 0.23645 0.0
C495 C 0.95499 0.19333 0.28256 0.0
C496 C 0.90531 0.11551 0.21146 0.0
C497 C 0.9199 0.10406 0.21026 0.0
C498 C 0.94074 0.16173 0.2749 0.0
C499 C 0.93973 0.11818 0.27952 0.0
C500 C 0.97899 0.20986 0.32524 0.0
C501 C 0.95626 0.23649 0.26723 0.0
N502 N 0.95116 0.14745 0.30296 0.0
N503 N 0.94497 0.20719 0.24765 0.0
H504 H 0.9754 0.63318 0.30626 0.0
H505 H 0.90524 0.71026 0.18805 0.0
H506 H 0.90366 0.58666 0.16874 0.0
H507 H 0.97362 0.75275 0.35566 0.0
H508 H 0.90259 0.66402 0.18246 0.0
H509 H 0.97774 0.67883 0.29802 0.0
C510 C 0.95983 0.63246 0.2741 0.0
C511 C 0.93719 0.60733 0.26106 0.0
C512 C 0.91853 0.68361 0.21902 0.0
C513 C 0.94016 0.65768 0.23965 0.0
C514 C 0.91999 0.71007 0.2237 0.0
C515 C 0.94239 0.73576 0.25377 0.0
C516 C 0.93866 0.6836 0.25619 0.0
C517 C 0.95798 0.73362 0.31595 0.0
C518 C 0.96115 0.65859 0.27098 0.0
C519 C 0.92 0.60677 0.19892 0.0
N520 N 0.95699 0.70814 0.30994 0.0
N521 N 0.92069 0.63187 0.19693 0.0
H522 H 0.19141 0.26972 0.22212 0.0
H523 H 0.17394 0.39873 0.39357 0.0
H524 H 0.23158 0.33012 0.46226 0.0
H525 H 0.16779 0.37443 0.12351 0.0
H526 H 0.1867 0.36525 0.42072 0.0
H527 H 0.1752 0.29988 0.18574 0.0
C528 C 0.19659 0.28907 0.26774 0.0
C529 C 0.21287 0.29725 0.3459 0.0
C530 C 0.18248 0.36711 0.35539 0.0
C531 C 0.19402 0.33165 0.30506 0.0
C532 C 0.17496 0.38615 0.33955 0.0
C533 C 0.16976 0.3898 0.25595 0.0
C534 C 0.1846 0.35085 0.28742 0.0
C535 C 0.17181 0.37277 0.18919 0.0
C536 C 0.18745 0.30638 0.24656 0.0
C537 C 0.21914 0.32285 0.40154 0.0
N538 N 0.17894 0.35403 0.20622 0.0
N539 N 0.20957 0.33879 0.38061 0.0
H540 H 0.72606 0.60845 0.27403 0.0
H541 H 0.71244 0.74602 0.23406 0.0
H542 H 0.66011 0.60149 0.17558 0.0
H543 H 0.77754 0.75528 0.35847 0.0
H544 H 0.69373 0.69313 0.20701 0.0
H545 H 0.74598 0.66178 0.30007 0.0
C546 C 0.71576 0.61796 0.25696 0.0
C547 C 0.69119 0.6 0.2224 0.0
C548 C 0.71212 0.7067 0.24049 0.0
C549 C 0.71406 0.66157 0.25189 0.0
C550 C 0.72283 0.73709 0.25614 0.0
C551 C 0.74672 0.75566 0.29892 0.0
C552 C 0.7252 0.69426 0.26758 0.0
C553 C 0.75912 0.74224 0.32512 0.0
C554 C 0.72715 0.64855 0.27228 0.0
C555 C 0.67897 0.61406 0.20275 0.0
N556 N 0.74833 0.71272 0.3092 0.0
N557 N 0.6904 0.64357 0.21735 0.0
H558 H 0.47896 0.97668 0.10497 0.0
H559 H 0.39043 0.98264 0.37411 0.0
H560 H 0.50421 0.05237 0.30135 0.0
H561 H 0.39106 0.90624 0.28264 0.0
H562 H 0.42744 0.01208 0.32543 0.0
H563 H 0.44071 0.95458 0.14214 0.0
C564 C 0.47632 0.98898 0.1548 0.0
C565 C 0.49483 0.01645 0.20009 0.0
C566 C 0.41936 0.98889 0.31651 0.0
C567 C 0.45105 0.99072 0.24458 0.0
C568 C 0.39844 0.97223 0.34398 0.0
C569 C 0.38816 0.94222 0.33293 0.0
C570 C 0.42926 0.97499 0.27598 0.0
C571 C 0.39876 0.9294 0.29313 0.0
C572 C 0.45451 0.97618 0.17656 0.0
C573 C 0.49041 0.031 0.26552 0.0
N574 N 0.41866 0.94584 0.26574 0.0
N575 N 0.46887 0.01784 0.28644 0.0
H576 H 0.57651 0.1208 0.1383 0.0
H577 H 0.53131 0.18893 0.78982 0.0
H578 H 0.62417 0.1792 1.00089 0.0
H579 H 0.4908 0.14174 0.96363 0.0
H580 H 0.56477 0.18549 0.85968 0.0
H581 H 0.5457 0.12843 1.07271 0.0
C582 C 0.58086 0.13571 0.09529 0.0
C583 C 0.60374 0.1495 0.07727 0.0
C584 C 0.54856 0.17578 0.88258 0.0
C585 C 0.56688 0.15799 0.99725 0.0
C586 C 0.52917 0.1776 0.84196 0.0
C587 C 0.50753 0.16553 0.86937 0.0
C588 C 0.54673 0.1614 0.95158 0.0
C589 C 0.5067 0.15154 0.93896 0.0
C590 C 0.56288 0.13995 1.05696 0.0
C591 C 0.60732 0.16825 1.01913 0.0
N592 N 0.52554 0.14979 0.97629 0.0
N593 N 0.58928 0.17167 0.98132 0.0
H594 H 1.01523 0.26544 0.84085 0.0
H595 H 1.02906 0.40146 0.14567 0.0
H596 H 0.96052 0.26316 0.95801 0.0
H597 H 0.0861 0.40612 1.03946 0.0
H598 H 1.00426 0.35012 0.0794 0.0
H599 H 0.04215 0.31644 0.91437 0.0
C600 C 1.00912 0.27553 0.88362 0.0
C601 C 0.98582 0.26018 0.89457 0.0
C602 C 1.02221 0.36224 1.07053 0.0
C603 C 1.01617 0.31813 0.97778 0.0
C604 C 0.03636 0.39156 0.10846 0.0
C605 C 0.05968 0.40789 0.09853 0.0
C606 C 1.03128 0.34915 1.02098 0.0
C607 C 0.0683 0.39407 1.04969 0.0
C608 C 1.02436 0.30462 0.92492 0.0
C609 C 0.97845 0.27431 0.94846 0.0
N610 N 0.05403 0.36548 1.01211 0.0
N611 N 0.99355 0.30243 0.98803 0.0
H612 H 0.86851 0.6566 0.85461 0.0
H613 H 0.80975 0.54263 0.13698 0.0
H614 H 0.90843 0.62512 0.98506 0.0
H615 H 0.79742 0.61239 0.12794 0.0
H616 H 0.84418 0.56848 0.07427 0.0
H617 H 0.83919 0.63553 0.94215 0.0
C618 C 0.87096 0.64509 0.9015 0.0
C619 C 0.89075 0.6425 0.91304 0.0
C620 C 0.834 0.57815 0.08699 0.0
C621 C 0.8573 0.61803 1.01197 0.0
C622 C 0.8144 0.56351 0.12321 0.0
C623 C 0.80019 0.57496 0.13605 0.0
C624 C 0.83912 0.60407 1.06213 0.0
C625 C 0.80721 0.60212 0.11641 0.0
C626 C 0.8544 0.63329 0.95176 0.0
C627 C 0.89335 0.62759 0.97491 0.0
N628 N 0.82587 0.61546 0.07908 0.0
N629 N 0.87658 0.61548 1.02147 0.0
H630 H 1.00225 0.66767 0.84308 0.0
H631 H 0.9977 0.58165 0.21431 0.0
H632 H 0.93822 0.60831 0.91743 0.0
H633 H 0.05043 0.60705 1.0617 0.0
H634 H 0.98114 0.60563 0.13709 0.0
H635 H 1.02497 0.65784 0.9521 0.0
C636 C 0.99312 0.65283 0.88317 0.0
C637 C 0.96852 0.63854 0.87191 0.0
C638 C 0.99664 0.60636 0.12206 0.0
C639 C 0.99406 0.62797 0.9964 0.0
C640 C 1.00607 0.59277 0.16595 0.0
C641 C 1.02518 0.59199 0.14333 0.0
C642 C 1.00648 0.61919 1.05568 0.0
C643 C 0.03572 0.6072 0.08141 0.0
C644 C 1.00599 0.64733 0.94505 0.0
C645 C 0.95723 0.61943 0.92428 0.0
N646 N 1.02597 0.61985 1.03864 0.0
N647 N 0.97015 0.61467 0.98472 0.0
H648 H 0.58398 0.40025 0.2093 0.0
H649 H 0.50249 0.28285 0.78058 0.0
H650 H 0.60878 0.40484 0.97581 0.0
H651 H 0.50013 0.25566 1.02149 0.0
H652 H 0.53799 0.32977 0.85116 0.0
H653 H 0.5509 0.3503 0.14496 0.0
C654 C 0.58272 0.3907 0.14485 0.0
C655 C 0.59973 0.40701 0.09898 0.0
C656 C 0.5298 0.31364 0.88894 0.0
C657 C 0.5607 0.34957 1.0225 0.0
C658 C 0.50927 0.28665 0.84862 0.0
C659 C 0.49779 0.26471 0.89444 0.0
C660 C 0.53911 0.31985 0.97744 0.0
C661 C 0.50805 0.27154 0.98279 0.0
C662 C 0.56368 0.36206 0.10797 0.0
C663 C 0.59659 0.39323 1.01482 0.0
N664 N 0.52773 0.2984 1.02124 0.0
N665 N 0.57744 0.36582 0.97929 0.0
H666 H 0.88392 0.13892 0.96141 0.0
H667 H 0.81174 0.21784 1.02507 0.0
H668 H 0.88593 0.20124 0.81659 0.0
H669 H 0.78752 0.13347 0.08152 0.0
H670 H 0.84367 0.2166 0.97136 0.0
H671 H 0.85312 0.14057 1.02581 0.0
C672 C 0.87801 0.15305 0.94341 0.0
C673 C 0.88745 0.16971 0.88242 0.0
C674 C 0.83139 0.19833 0.99552 0.0
C675 C 0.85251 0.17236 0.95807 0.0
C676 C 0.81311 0.19908 1.02708 0.0
C677 C 0.79641 0.17563 1.0579 0.0
C678 C 0.83359 0.17413 0.99524 0.0
C679 C 0.79949 0.15194 1.05746 0.0
C680 C 0.86035 0.15394 0.98011 0.0
C681 C 0.87901 0.18766 0.86213 0.0
N682 N 0.81759 0.15185 1.02712 0.0
N683 N 0.86235 0.18868 0.90006 0.0
H684 H 0.6545 0.03468 0.26682 0.0
H685 H 0.74134 0.98034 0.18816 0.0
H686 H 0.71222 0.08242 0.14632 0.0
H687 H 0.70473 0.96223 0.39502 0.0
H688 H 0.73041 0.01586 0.16524 0.0
H689 H 0.6713 1.00598 0.30619 0.0
C690 C 0.67072 0.03912 0.24823 0.0
C691 C 0.6817 0.06094 0.20202 0.0
C692 C 0.72488 1.00416 0.21588 0.0
C693 C 0.70107 0.02731 0.24624 0.0
C694 C 0.73124 0.98378 0.22964 0.0
C695 C 0.72374 0.96727 0.29306 0.0
C696 C 0.71051 1.00809 0.26466 0.0
C697 C 0.71041 0.97321 0.34329 0.0
C698 C 0.6804 0.02271 0.27124 0.0
C699 C 0.70299 0.06581 0.18143 0.0
N700 N 0.70405 0.99261 0.32731 0.0
N701 N 0.71173 0.04887 0.20232 0.0
H702 H 0.22685 0.75198 0.24891 0.0
H703 H 0.11495 0.60004 0.28345 0.0
H704 H 0.16896 0.74726 0.34877 0.0
H705 H 0.17764 0.60895 0.21464 0.0
H706 H 0.13271 0.65239 0.30091 0.0
H707 H 0.2075 0.69967 0.22809 0.0
C708 C 0.20999 0.74005 0.26671 0.0
C709 C 0.19986 0.75476 0.30174 0.0
C710 C 0.14266 0.64304 0.28196 0.0
C711 C 0.17716 0.69329 0.27755 0.0
C712 C 0.13242 0.61287 0.2713 0.0
C713 C 0.14458 0.59946 0.24661 0.0
C714 C 0.16544 0.6606 0.26753 0.0
C715 C 0.16748 0.6179 0.23417 0.0
C716 C 0.1989 0.70985 0.25468 0.0
C717 C 0.17769 0.73732 0.32186 0.0
N718 N 0.17698 0.64719 0.24423 0.0
N719 N 0.16722 0.70774 0.30985 0.0
H720 H 0.48433 0.38942 0.07941 0.0
H721 H 0.41452 0.34425 0.45309 0.0
H722 H 0.51711 0.41921 0.34924 0.0
H723 H 0.38026 0.32731 0.18888 0.0
H724 H 0.45228 0.36185 0.41136 0.0
H725 H 0.44642 0.35719 0.11447 0.0
C726 C 0.4836 0.38906 0.14597 0.0
C727 C 0.50385 0.40752 0.21155 0.0
C728 C 0.43648 0.35397 0.36229 0.0
C729 C 0.46062 0.37047 0.2519 0.0
C730 C 0.41493 0.34401 0.3861 0.0
C731 C 0.39433 0.33493 0.32462 0.0
C732 C 0.4375 0.35501 0.27632 0.0
C733 C 0.39575 0.3343 0.23843 0.0
C734 C 0.46199 0.37054 0.16585 0.0
C735 C 0.50201 0.40546 0.29649 0.0
N736 N 0.41708 0.34466 0.21694 0.0
N737 N 0.48073 0.38755 0.31421 0.0
H738 H 0.95838 0.76254 0.65441 0.0
H739 H 0.84065 0.72356 0.34565 0.0
H740 H 0.89171 0.68277 0.62905 0.0
H741 H 0.9089 0.8016 0.37465 0.0
H742 H 0.86029 0.70223 0.41931 0.0
H743 H 0.9418 0.77165 0.52744 0.0
C744 C 0.94016 0.74687 0.62174 0.0
C745 C 0.92618 0.72212 0.65266 0.0
C746 C 0.87097 0.72372 0.40733 0.0
C747 C 0.90698 0.73245 0.507 0.0
C748 C 0.85979 0.73593 0.36535 0.0
C749 C 0.87304 0.76483 0.35695 0.0
C750 C 0.89549 0.74062 0.44068 0.0
C751 C 0.89781 0.77944 0.38067 0.0
C752 C 0.93075 0.75196 0.54868 0.0
C753 C 0.90286 0.70233 0.60745 0.0
N754 N 0.90817 0.7674 0.42327 0.0
N755 N 0.8938 0.70815 0.53716 0.0
H756 H 0.41177 0.06782 0.67698 0.0
H757 H 0.27335 0.96762 0.43426 0.0
H758 H 0.37432 0.10701 0.58077 0.0
H759 H 0.3217 0.93794 0.46501 0.0
H760 H 0.30729 0.0178 0.49594 0.0
H761 H 0.377 0.02004 0.60986 0.0
C762 C 0.39634 0.06653 0.6409 0.0
C763 C 0.39657 0.09208 0.63424 0.0
C764 C 0.31041 1.00025 0.48894 0.0
C765 C 0.35542 0.036 0.55698 0.0
C766 C 0.29092 0.97142 0.45378 0.0
C767 C 0.29428 0.94791 0.44315 0.0
C768 C 0.33357 1.00587 0.51591 0.0
C769 C 0.3178 0.95485 0.47033 0.0
C770 C 0.37625 0.03896 0.60247 0.0
C771 C 0.37543 0.08828 0.5871 0.0
N772 N 0.33609 0.98261 0.5053 0.0
N773 N 0.35586 0.06103 0.55108 0.0
H774 H 0.03234 0.20506 0.76818 0.0
H775 H 0.06861 0.1513 0.36196 0.0
H776 H 0.9841 0.16575 0.52102 0.0
H777 H 0.11927 0.21541 0.58402 0.0
H778 H 0.03659 0.15159 0.42035 0.0
H779 H 0.06313 0.20445 0.70408 0.0
C780 C 1.02815 0.19635 0.70024 0.0
C781 C 1.0054 0.18569 0.65039 0.0
C782 C 0.05473 0.16566 0.45608 0.0
C783 C 0.04105 0.1844 0.57567 0.0
C784 C 0.07311 0.16542 0.42291 0.0
C785 C 0.09703 0.18354 0.46733 0.0
C786 C 0.06002 0.1837 0.53558 0.0
C787 C 0.10138 0.20135 0.54615 0.0
C788 C 0.04587 0.19601 0.66347 0.0
C789 C 1.00133 0.17454 0.56236 0.0
N790 N 0.08326 0.2008 0.57749 0.0
N791 N 1.0188 0.17399 0.52819 0.0
H792 H 0.36252 0.16852 0.74434 0.0
H793 H 0.3178 0.2359 0.39136 0.0
H794 H 0.40353 0.2154 0.57111 0.0
H795 H 0.27016 0.17783 0.52952 0.0
H796 H 0.34876 0.22869 0.45888 0.0
H797 H 0.32929 0.17214 0.67322 0.0
C798 C 0.36481 0.17982 0.69207 0.0
C799 C 0.3865 0.19172 0.66512 0.0
C800 C 0.33156 0.2172 0.47443 0.0
C801 C 0.34759 0.19602 0.58142 0.0
C802 C 0.31352 0.2212 0.43503 0.0
C803 C 0.29063 0.20732 0.45273 0.0
C804 C 0.32753 0.19935 0.5348 0.0
C805 C 0.28708 0.18886 0.51171 0.0
C806 C 0.34556 0.18173 0.65073 0.0
C807 C 0.38756 0.2057 0.59536 0.0
N808 N 0.30512 0.18567 0.55046 0.0
N809 N 0.36883 0.20751 0.55723 0.0
H810 H 0.80446 0.95449 0.41834 0.0
H811 H 0.9371 0.08804 0.60725 0.0
H812 H 0.86652 0.94848 0.45531 0.0
H813 H 0.87652 0.0933 0.63788 0.0
H814 H 0.91077 0.03869 0.52679 0.0
H815 H 0.82995 1.00691 0.47577 0.0
C816 C 0.82343 0.96422 0.43774 0.0
C817 C 0.8334 0.94712 0.4328 0.0
C818 C 0.90312 0.05058 0.55043 0.0
C819 C 0.86247 1.00673 0.49759 0.0
C820 C 0.91816 0.07883 0.59627 0.0
C821 C 0.90893 0.09464 0.62987 0.0
C822 C 0.87854 0.03783 0.53792 0.0
C823 C 0.88428 0.08173 0.61303 0.0
C824 C 0.83791 0.99405 0.47069 0.0
C825 C 0.85804 0.96077 0.45877 0.0
N826 N 0.86984 0.05385 0.56862 0.0
N827 N 0.87168 0.98969 0.49005 0.0
H828 H 0.98798 0.67939 0.53602 0.0
H829 H 0.09668 0.82788 0.4779 0.0
H830 H 1.01787 0.76084 0.71145 0.0
H831 H 0.08604 0.745 0.37621 0.0
H832 H 0.06246 0.80351 0.54202 0.0
H833 H 1.01918 0.70314 0.45686 0.0
C834 C 1.00106 0.70229 0.55737 0.0
C835 C 1.00065 0.71823 0.63051 0.0
C836 C 0.06757 0.79067 0.50531 0.0
C837 C 0.03578 0.74549 0.53994 0.0
C838 C 0.08695 0.80452 0.46809 0.0
C839 C 0.09431 0.78845 0.42211 0.0
C840 C 0.05527 0.7605 0.4958 0.0
C841 C 0.08115 0.75822 0.41215 0.0
C842 C 1.01882 0.71577 0.51251 0.0
C843 C 1.01789 0.74779 0.65596 0.0
N844 N 0.06226 0.7452 0.44881 0.0
N845 N 0.03471 0.76055 0.61042 0.0
loop_
_geom_bond_atom_site_label_1
_geom_bond_atom_site_label_2
_geom_bond_distance
_geom_bond_site_symmetry_2
_ccdc_geom_bond_type
Sm0 C2 2.846 . S
Sm0 O20 2.543 . S
Sm0 O21 2.450 . S
Sm0 O22 2.681 1_554 S
Sm0 O23 2.464 1_554 S
Sm0 O24 2.396 . S
Sm0 O28 2.386 . S
Sm0 O31 2.408 . S
Sm1 C11 2.846 . S
Sm1 O22 2.386 1_554 S
Sm1 O25 2.408 . S
Sm1 O26 2.543 1_554 S
Sm1 O27 2.450 1_455 S
Sm1 O28 2.681 . S
Sm1 O29 2.464 . S
Sm1 O30 2.396 . S
C2 Sm0 2.846 . S
C2 C3 1.506 . S
C2 O20 1.261 . S
C2 O21 1.242 . S
C3 C2 1.506 . S
C3 C4 1.358 . S
C3 C8 1.382 . S
C4 C3 1.358 . S
C4 C5 1.385 . S
C4 H32 0.930 . S
C5 C4 1.385 . S
C5 C6 1.395 . S
C5 H33 0.929 . S
C6 C5 1.395 . S
C6 C7 1.335 . S
C7 C6 1.335 . S
C7 C8 1.398 . S
C7 H34 0.930 . S
C8 C3 1.382 . S
C8 C7 1.398 . S
C8 H35 0.929 . S
C9 O22 1.271 . S
C9 O23 1.251 . S
C10 O24 1.252 . S
C10 O25 1.272 . S
C11 Sm1 2.846 . S
C11 C12 1.506 1_455 S
C11 O26 1.261 1_554 S
C11 O27 1.242 1_455 S
C12 C11 1.506 1_655 S
C12 C13 1.358 1_654 S
C12 C17 1.382 . S
C13 C12 1.358 1_456 S
C13 C14 1.385 1_455 S
C13 H36 0.930 . S
C14 C13 1.385 1_655 S
C14 C15 1.395 1_556 S
C14 H37 0.932 . S
C15 C14 1.395 1_554 S
C15 C16 1.335 . S
C16 C15 1.335 . S
C16 C17 1.398 . S
C16 H38 0.930 . S
C17 C12 1.382 . S
C17 C16 1.398 . S
C17 H39 0.929 . S
C18 O28 1.271 . S
C18 O29 1.251 . S
C19 O30 1.252 . S
C19 O31 1.272 . S
O20 Sm0 2.543 . S
O20 C2 1.261 . S
O21 Sm0 2.450 . S
O21 C2 1.242 . S
O22 Sm0 2.681 1_556 S
O22 Sm1 2.386 1_556 S
O22 C9 1.271 . S
O23 Sm0 2.464 1_556 S
O23 C9 1.251 . S
O24 Sm0 2.396 . S
O24 C10 1.252 . S
O25 Sm1 2.408 . S
O25 C10 1.272 . S
O26 Sm1 2.543 1_556 S
O26 C11 1.261 1_556 S
O27 Sm1 2.450 1_655 S
O27 C11 1.242 1_655 S
O28 Sm0 2.386 . S
O28 Sm1 2.681 . S
O28 C18 1.271 . S
O29 Sm1 2.464 . S
O29 C18 1.251 . S
O30 Sm1 2.396 . S
O30 C19 1.252 . S
O31 Sm0 2.408 . S
O31 C19 1.272 . S
H32 C4 0.930 . S
H33 C5 0.929 . S
H34 C7 0.930 . S
H35 C8 0.929 . S
H36 C13 0.930 . S
H37 C14 0.932 . S
H38 C16 0.930 . S
H39 C17 0.929 . S
Sm40 C42 2.846 . S
Sm40 O60 2.543 . S
Sm40 O61 2.450 . S
Sm40 O62 2.681 . S
Sm40 O63 2.464 . S
Sm40 O64 2.396 . S
Sm40 O68 2.386 . S
Sm40 O71 2.408 . S
Sm41 C51 2.846 . S
Sm41 O62 2.386 . S
Sm41 O65 2.408 . S
Sm41 O66 2.543 . S
Sm41 O67 2.450 . S
Sm41 O68 2.681 . S
Sm41 O69 2.455 1_554 S
Sm41 O70 2.396 . S
C42 Sm40 2.846 . S
C42 C43 1.506 . S
C42 O60 1.261 . S
C42 O61 1.242 . S
C43 C42 1.506 . S
C43 C44 1.358 . S
C43 C48 1.382 . S
C44 C43 1.358 . S
C44 C45 1.385 . S
C44 H72 0.930 . S
C45 C44 1.385 . S
C45 C46 1.395 . S
C45 H73 0.929 . S
C46 C45 1.395 . S
C46 C47 1.335 . S
C47 C46 1.335 . S
C47 C48 1.398 . S
C47 H74 0.930 . S
C48 C43 1.382 . S
C48 C47 1.398 . S
C48 H75 0.929 . S
C49 O62 1.271 . S
C49 O63 1.251 . S
C50 O64 1.252 . S
C50 O65 1.272 . S
C51 Sm41 2.846 . S
C51 C52 1.506 . S
C51 O66 1.261 . S
C51 O67 1.242 . S
C52 C51 1.506 . S
C52 C53 1.358 . S
C52 C57 1.382 . S
C53 C52 1.358 . S
C53 C54 1.385 . S
C53 H76 0.930 . S
C54 C53 1.385 . S
C54 C55 1.395 . S
C54 H77 0.929 . S
C55 C54 1.395 . S
C55 C56 1.335 . S
C56 C55 1.335 . S
C56 C57 1.398 . S
C56 H78 0.930 . S
C57 C52 1.382 . S
C57 C56 1.398 . S
C57 H79 0.929 . S
C58 O68 1.271 1_556 S
C58 O69 1.253 . S
C59 O70 1.252 . S
C59 O71 1.272 . S
O60 Sm40 2.543 . S
O60 C42 1.261 . S
O61 Sm40 2.450 . S
O61 C42 1.242 . S
O62 Sm40 2.681 . S
O62 Sm41 2.386 . S
O62 C49 1.271 . S
O63 Sm40 2.464 . S
O63 C49 1.251 . S
O64 Sm40 2.396 . S
O64 C50 1.252 . S
O65 Sm41 2.408 . S
O65 C50 1.272 . S
O66 Sm41 2.543 . S
O66 C51 1.261 . S
O67 Sm41 2.450 . S
O67 C51 1.242 . S
O68 Sm40 2.386 . S
O68 Sm41 2.681 . S
O68 C58 1.271 1_554 S
O69 Sm41 2.455 1_556 S
O69 C58 1.253 . S
O70 Sm41 2.396 . S
O70 C59 1.252 . S
O71 Sm40 2.408 . S
O71 C59 1.272 . S
H72 C44 0.930 . S
H73 C45 0.929 . S
H74 C47 0.930 . S
H75 C48 0.929 . S
H76 C53 0.930 . S
H77 C54 0.929 . S
H78 C56 0.930 . S
H79 C57 0.929 . S
Sm80 C82 2.846 . S
Sm80 O100 2.543 . S
Sm80 O101 2.450 . S
Sm80 O102 2.681 . S
Sm80 O103 2.464 . S
Sm80 O104 2.396 . S
Sm80 O108 2.386 . S
Sm80 O111 2.408 . S
Sm81 C91 2.846 . S
Sm81 O102 2.386 . S
Sm81 O105 2.408 . S
Sm81 O106 2.543 . S
Sm81 O107 2.450 . S
Sm81 O108 2.681 . S
Sm81 O109 2.464 . S
Sm81 O110 2.396 . S
C82 Sm80 2.846 . S
C82 C83 1.506 . S
C82 O100 1.261 . S
C82 O101 1.242 . S
C83 C82 1.506 . S
C83 C84 1.358 . S
C83 C88 1.382 . S
C84 C83 1.358 . S
C84 C85 1.385 . S
C84 H112 0.930 . S
C85 C84 1.385 . S
C85 C86 1.395 . S
C85 H113 0.929 . S
C86 C85 1.395 . S
C86 C87 1.335 . S
C87 C86 1.335 . S
C87 C88 1.398 . S
C87 H114 0.930 . S
C88 C83 1.382 . S
C88 C87 1.398 . S
C88 H115 0.929 . S
C89 O102 1.271 . S
C89 O103 1.251 . S
C90 O104 1.252 . S
C90 O105 1.272 . S
C91 Sm81 2.846 . S
C91 C92 1.506 . S
C91 O106 1.261 . S
C91 O107 1.242 . S
C92 C91 1.506 . S
C92 C93 1.358 . S
C92 C97 1.382 . S
C93 C92 1.358 . S
C93 C94 1.385 . S
C93 H116 0.930 . S
C94 C93 1.385 . S
C94 C95 1.395 . S
C94 H117 0.929 . S
C95 C94 1.395 . S
C95 C96 1.335 . S
C96 C95 1.335 . S
C96 C97 1.398 . S
C96 H118 0.930 . S
C97 C92 1.382 . S
C97 C96 1.398 . S
C97 H119 0.929 . S
C98 O108 1.271 . S
C98 O109 1.251 . S
C99 O110 1.252 . S
C99 O111 1.272 . S
O100 Sm80 2.543 . S
O100 C82 1.261 . S
O101 Sm80 2.450 . S
O101 C82 1.242 . S
O102 Sm80 2.681 . S
O102 Sm81 2.386 . S
O102 C89 1.271 . S
O103 Sm80 2.464 . S
O103 C89 1.251 . S
O104 Sm80 2.396 . S
O104 C90 1.252 . S
O105 Sm81 2.408 . S
O105 C90 1.272 . S
O106 Sm81 2.543 . S
O106 C91 1.261 . S
O107 Sm81 2.450 . S
O107 C91 1.242 . S
O108 Sm80 2.386 . S
O108 Sm81 2.681 . S
O108 C98 1.271 . S
O109 Sm81 2.464 . S
O109 C98 1.251 . S
O110 Sm81 2.396 . S
O110 C99 1.252 . S
O111 Sm80 2.408 . S
O111 C99 1.272 . S
H112 C84 0.930 . S
H113 C85 0.929 . S
H114 C87 0.930 . S
H115 C88 0.929 . S
H116 C93 0.930 . S
H117 C94 0.929 . S
H118 C96 0.930 . S
H119 C97 0.929 . S
Sm120 C122 2.846 . S
Sm120 O140 2.543 . S
Sm120 O141 2.450 . S
Sm120 O142 2.681 . S
Sm120 O143 2.464 . S
Sm120 O144 2.396 . S
Sm120 O148 2.386 . S
Sm120 O151 2.408 . S
Sm121 C131 2.846 . S
Sm121 O142 2.386 . S
Sm121 O145 2.408 . S
Sm121 O146 2.543 . S
Sm121 O147 2.450 . S
Sm121 O148 2.681 . S
Sm121 O149 2.464 . S
Sm121 O150 2.396 . S
C122 Sm120 2.846 . S
C122 C123 1.506 . S
C122 O140 1.261 . S
C122 O141 1.242 . S
C123 C122 1.506 . S
C123 C124 1.358 . S
C123 C128 1.382 . S
C124 C123 1.358 . S
C124 C125 1.385 . S
C124 H152 0.930 . S
C125 C124 1.385 . S
C125 C126 1.395 . S
C125 H153 0.929 . S
C126 C125 1.395 . S
C126 C127 1.335 . S
C127 C126 1.335 . S
C127 C128 1.398 . S
C127 H154 0.930 . S
C128 C123 1.382 . S
C128 C127 1.398 . S
C128 H155 0.929 . S
C129 O142 1.271 . S
C129 O143 1.251 . S
C130 O144 1.252 . S
C130 O145 1.272 . S
C131 Sm121 2.846 . S
C131 C132 1.506 . S
C131 O146 1.261 . S
C131 O147 1.242 . S
C132 C131 1.506 . S
C132 C133 1.358 . S
C132 C137 1.382 . S
C133 C132 1.358 . S
C133 C134 1.385 . S
C133 H156 0.930 . S
C134 C133 1.385 . S
C134 C135 1.395 . S
C134 H157 0.929 . S
C135 C134 1.395 . S
C135 C136 1.335 . S
C136 C135 1.335 . S
C136 C137 1.398 . S
C136 H158 0.930 . S
C137 C132 1.382 . S
C137 C136 1.398 . S
C137 H159 0.929 . S
C138 O148 1.271 . S
C138 O149 1.251 . S
C139 O150 1.252 . S
C139 O151 1.272 . S
O140 Sm120 2.543 . S
O140 C122 1.261 . S
O141 Sm120 2.450 . S
O141 C122 1.242 . S
O142 Sm120 2.681 . S
O142 Sm121 2.386 . S
O142 C129 1.271 . S
O143 Sm120 2.464 . S
O143 C129 1.251 . S
O144 Sm120 2.396 . S
O144 C130 1.252 . S
O145 Sm121 2.408 . S
O145 C130 1.272 . S
O146 Sm121 2.543 . S
O146 C131 1.261 . S
O147 Sm121 2.450 . S
O147 C131 1.242 . S
O148 Sm120 2.386 . S
O148 Sm121 2.681 . S
O148 C138 1.271 . S
O149 Sm121 2.464 . S
O149 C138 1.251 . S
O150 Sm121 2.396 . S
O150 C139 1.252 . S
O151 Sm120 2.408 . S
O151 C139 1.272 . S
H152 C124 0.930 . S
H153 C125 0.929 . S
H154 C127 0.930 . S
H155 C128 0.929 . S
H156 C133 0.930 . S
H157 C134 0.929 . S
H158 C136 0.930 . S
H159 C137 0.929 . S
Sm160 C162 2.846 . S
Sm160 O180 2.543 . S
Sm160 O181 2.450 . S
Sm160 O182 2.681 . S
Sm160 O183 2.464 . S
Sm160 O184 2.396 . S
Sm160 O188 2.386 . S
Sm160 O191 2.408 . S
Sm161 C171 2.846 . S
Sm161 O182 2.386 . S
Sm161 O185 2.408 . S
Sm161 O186 2.543 . S
Sm161 O187 2.450 . S
Sm161 O188 2.681 . S
Sm161 O189 2.464 . S
Sm161 O190 2.396 . S
C162 Sm160 2.846 . S
C162 C163 1.506 . S
C162 O180 1.261 . S
C162 O181 1.242 . S
C163 C162 1.506 . S
C163 C164 1.358 . S
C163 C168 1.382 . S
C164 C163 1.358 . S
C164 C165 1.385 . S
C164 H192 0.930 . S
C165 C164 1.385 . S
C165 C166 1.395 . S
C165 H193 0.929 . S
C166 C165 1.395 . S
C166 C167 1.335 . S
C167 C166 1.335 . S
C167 C168 1.398 . S
C167 H194 0.930 . S
C168 C163 1.382 . S
C168 C167 1.398 . S
C168 H195 0.929 . S
C169 O182 1.271 . S
C169 O183 1.251 . S
C170 O184 1.252 . S
C170 O185 1.272 . S
C171 Sm161 2.846 . S
C171 C172 1.506 . S
C171 O186 1.261 . S
C171 O187 1.242 . S
C172 C171 1.506 . S
C172 C173 1.358 . S
C172 C177 1.382 . S
C173 C172 1.358 . S
C173 C174 1.385 . S
C173 H196 0.930 . S
C174 C173 1.385 . S
C174 C175 1.395 . S
C174 H197 0.929 . S
C175 C174 1.395 . S
C175 C176 1.335 . S
C176 C175 1.335 . S
C176 C177 1.398 . S
C176 H198 0.930 . S
C177 C172 1.382 . S
C177 C176 1.398 . S
C177 H199 0.929 . S
C178 O188 1.271 . S
C178 O189 1.251 . S
C179 O190 1.252 . S
C179 O191 1.272 . S
O180 Sm160 2.543 . S
O180 C162 1.261 . S
O181 Sm160 2.450 . S
O181 C162 1.242 . S
O182 Sm160 2.681 . S
O182 Sm161 2.386 . S
O182 C169 1.271 . S
O183 Sm160 2.464 . S
O183 C169 1.251 . S
O184 Sm160 2.396 . S
O184 C170 1.252 . S
O185 Sm161 2.408 . S
O185 C170 1.272 . S
O186 Sm161 2.543 . S
O186 C171 1.261 . S
O187 Sm161 2.450 . S
O187 C171 1.242 . S
O188 Sm160 2.386 . S
O188 Sm161 2.681 . S
O188 C178 1.271 . S
O189 Sm161 2.464 . S
O189 C178 1.251 . S
O190 Sm161 2.396 . S
O190 C179 1.252 . S
O191 Sm160 2.408 . S
O191 C179 1.272 . S
H192 C164 0.930 . S
H193 C165 0.929 . S
H194 C167 0.930 . S
H195 C168 0.929 . S
H196 C173 0.930 . S
H197 C174 0.929 . S
H198 C176 0.930 . S
H199 C177 0.929 . S
Sm200 C202 2.846 . S
Sm200 O220 2.543 . S
Sm200 O221 2.450 . S
Sm200 O222 2.681 . S
Sm200 O223 2.464 . S
Sm200 O224 2.396 . S
Sm200 O228 2.386 . S
Sm200 O231 2.408 . S
Sm201 C211 2.846 . S
Sm201 O222 2.386 . S
Sm201 O225 2.408 . S
Sm201 O226 2.543 . S
Sm201 O227 2.450 . S
Sm201 O228 2.681 . S
Sm201 O229 2.464 . S
Sm201 O230 2.396 . S
C202 Sm200 2.846 . S
C202 C203 1.506 . S
C202 O220 1.261 . S
C202 O221 1.242 . S
C203 C202 1.506 . S
C203 C204 1.358 . S
C203 C208 1.382 . S
C204 C203 1.358 . S
C204 C205 1.385 . S
C204 H232 0.930 . S
C205 C204 1.385 . S
C205 C206 1.395 . S
C205 H233 0.929 . S
C206 C205 1.395 . S
C206 C207 1.335 . S
C207 C206 1.335 . S
C207 C208 1.398 . S
C207 H234 0.930 . S
C208 C203 1.382 . S
C208 C207 1.398 . S
C208 H235 0.929 . S
C209 O222 1.271 . S
C209 O223 1.251 . S
C210 O224 1.252 . S
C210 O225 1.272 . S
C211 Sm201 2.846 . S
C211 C212 1.506 . S
C211 O226 1.261 . S
C211 O227 1.242 . S
C212 C211 1.506 . S
C212 C213 1.358 . S
C212 C217 1.382 . S
C213 C212 1.358 . S
C213 C214 1.385 . S
C213 H236 0.930 . S
C214 C213 1.385 . S
C214 C215 1.395 . S
C214 H237 0.929 . S
C215 C214 1.395 . S
C215 C216 1.335 . S
C216 C215 1.335 . S
C216 C217 1.398 . S
C216 H238 0.930 . S
C217 C212 1.382 . S
C217 C216 1.398 . S
C217 H239 0.929 . S
C218 O228 1.271 . S
C218 O229 1.251 . S
C219 O230 1.252 . S
C219 O231 1.272 . S
O220 Sm200 2.543 . S
O220 C202 1.261 . S
O221 Sm200 2.450 . S
O221 C202 1.242 . S
O222 Sm200 2.681 . S
O222 Sm201 2.386 . S
O222 C209 1.271 . S
O223 Sm200 2.464 . S
O223 C209 1.251 . S
O224 Sm200 2.396 . S
O224 C210 1.252 . S
O225 Sm201 2.408 . S
O225 C210 1.272 . S
O226 Sm201 2.543 . S
O226 C211 1.261 . S
O227 Sm201 2.450 . S
O227 C211 1.242 . S
O228 Sm200 2.386 . S
O228 Sm201 2.681 . S
O228 C218 1.271 . S
O229 Sm201 2.464 . S
O229 C218 1.251 . S
O230 Sm201 2.396 . S
O230 C219 1.252 . S
O231 Sm200 2.408 . S
O231 C219 1.272 . S
H232 C204 0.930 . S
H233 C205 0.929 . S
H234 C207 0.930 . S
H235 C208 0.929 . S
H236 C213 0.930 . S
H237 C214 0.929 . S
H238 C216 0.930 . S
H239 C217 0.929 . S
Sm240 C242 2.846 . S
Sm240 O260 2.543 . S
Sm240 O261 2.450 . S
Sm240 O262 2.681 . S
Sm240 O263 2.464 . S
Sm240 O264 2.396 . S
Sm240 O268 2.386 . S
Sm240 O271 2.408 . S
Sm241 C251 2.846 . S
Sm241 O262 2.386 . S
Sm241 O265 2.408 . S
Sm241 O266 2.543 . S
Sm241 O267 2.450 . S
Sm241 O268 2.681 . S
Sm241 O269 2.464 . S
Sm241 O270 2.396 . S
C242 Sm240 2.846 . S
C242 C243 1.506 . S
C242 O260 1.261 . S
C242 O261 1.242 . S
C243 C242 1.506 . S
C243 C244 1.358 . S
C243 C248 1.382 . S
C244 C243 1.358 . S
C244 C245 1.385 . S
C244 H272 0.930 . S
C245 C244 1.385 . S
C245 C246 1.395 . S
C245 H273 0.929 . S
C246 C245 1.395 . S
C246 C247 1.335 . S
C247 C246 1.335 . S
C247 C248 1.398 . S
C247 H274 0.930 . S
C248 C243 1.382 . S
C248 C247 1.398 . S
C248 H275 0.929 . S
C249 O262 1.271 . S
C249 O263 1.251 . S
C250 O264 1.252 . S
C250 O265 1.272 . S
C251 Sm241 2.846 . S
C251 C252 1.506 1_556 S
C251 O266 1.261 . S
C251 O267 1.242 . S
C252 C251 1.506 1_554 S
C252 C253 1.358 . S
C252 C257 1.382 . S
C253 C252 1.358 . S
C253 C254 1.385 . S
C253 H276 0.930 . S
C254 C253 1.385 . S
C254 C255 1.395 . S
C254 H277 0.929 . S
C255 C254 1.395 . S
C255 C256 1.335 . S
C256 C255 1.335 . S
C256 C257 1.398 . S
C256 H278 0.930 . S
C257 C252 1.382 . S
C257 C256 1.398 . S
C257 H279 0.929 1_554 S
C258 O268 1.271 . S
C258 O269 1.251 . S
C259 O270 1.252 . S
C259 O271 1.272 . S
O260 Sm240 2.543 . S
O260 C242 1.261 . S
O261 Sm240 2.450 . S
O261 C242 1.242 . S
O262 Sm240 2.681 . S
O262 Sm241 2.386 . S
O262 C249 1.271 . S
O263 Sm240 2.464 . S
O263 C249 1.251 . S
O264 Sm240 2.396 . S
O264 C250 1.252 . S
O265 Sm241 2.408 . S
O265 C250 1.272 . S
O266 Sm241 2.543 . S
O266 C251 1.261 . S
O267 Sm241 2.450 . S
O267 C251 1.242 . S
O268 Sm240 2.386 . S
O268 Sm241 2.681 . S
O268 C258 1.271 . S
O269 Sm241 2.464 . S
O269 C258 1.251 . S
O270 Sm241 2.396 . S
O270 C259 1.252 . S
O271 Sm240 2.408 . S
O271 C259 1.272 . S
H272 C244 0.930 . S
H273 C245 0.929 . S
H274 C247 0.930 . S
H275 C248 0.929 . S
H276 C253 0.930 . S
H277 C254 0.929 . S
H278 C256 0.930 . S
H279 C257 0.929 1_556 S
Sm280 C282 2.846 . S
Sm280 O300 2.543 . S
Sm280 O301 2.450 . S
Sm280 O302 2.681 . S
Sm280 O303 2.464 . S
Sm280 O304 2.396 . S
Sm280 O308 2.386 . S
Sm280 O311 2.408 . S
Sm281 C291 2.846 . S
Sm281 O302 2.386 . S
Sm281 O305 2.408 . S
Sm281 O306 2.543 . S
Sm281 O307 2.450 . S
Sm281 O308 2.681 . S
Sm281 O309 2.464 . S
Sm281 O310 2.396 . S
C282 Sm280 2.846 . S
C282 C283 1.506 1_556 S
C282 O300 1.261 . S
C282 O301 1.242 . S
C283 C282 1.506 1_554 S
C283 C284 1.358 . S
C283 C288 1.382 . S
C284 C283 1.358 . S
C284 C285 1.385 . S
C284 H312 0.930 . S
C285 C284 1.385 . S
C285 C286 1.395 . S
C285 H313 0.929 . S
C286 C285 1.395 . S
C286 C287 1.335 . S
C287 C286 1.335 . S
C287 C288 1.398 . S
C287 H314 0.930 . S
C288 C283 1.382 . S
C288 C287 1.398 . S
C288 H315 0.926 1_554 S
C289 O302 1.271 . S
C289 O303 1.251 . S
C290 O304 1.252 . S
C290 O305 1.272 . S
C291 Sm281 2.846 . S
C291 C292 1.506 . S
C291 O306 1.261 . S
C291 O307 1.242 . S
C292 C291 1.506 . S
C292 C293 1.358 . S
C292 C297 1.382 . S
C293 C292 1.358 . S
C293 C294 1.385 . S
C293 H316 0.930 . S
C294 C293 1.385 . S
C294 C295 1.395 . S
C294 H317 0.929 . S
C295 C294 1.395 . S
C295 C296 1.335 . S
C296 C295 1.335 . S
C296 C297 1.398 . S
C296 H318 0.930 . S
C297 C292 1.382 . S
C297 C296 1.398 . S
C297 H319 0.929 . S
C298 O308 1.271 . S
C298 O309 1.251 . S
C299 O310 1.252 . S
C299 O311 1.272 . S
O300 Sm280 2.543 . S
O300 C282 1.261 . S
O301 Sm280 2.450 . S
O301 C282 1.242 . S
O302 Sm280 2.681 . S
O302 Sm281 2.386 . S
O302 C289 1.271 . S
O303 Sm280 2.464 . S
O303 C289 1.251 . S
O304 Sm280 2.396 . S
O304 C290 1.252 . S
O305 Sm281 2.408 . S
O305 C290 1.272 . S
O306 Sm281 2.543 . S
O306 C291 1.261 . S
O307 Sm281 2.450 . S
O307 C291 1.242 . S
O308 Sm280 2.386 . S
O308 Sm281 2.681 . S
O308 C298 1.271 . S
O309 Sm281 2.464 . S
O309 C298 1.251 . S
O310 Sm281 2.396 . S
O310 C299 1.252 . S
O311 Sm280 2.408 . S
O311 C299 1.272 . S
H312 C284 0.930 . S
H313 C285 0.929 . S
H314 C287 0.930 . S
H315 C288 0.926 1_556 S
H316 C293 0.930 . S
H317 C294 0.929 . S
H318 C296 0.930 . S
H319 C297 0.929 . S
Sm320 C322 2.846 . S
Sm320 O340 2.543 . S
Sm320 O341 2.450 . S
Sm320 O342 2.681 . S
Sm320 O343 2.464 . S
Sm320 O344 2.396 . S
Sm320 O348 2.386 . S
Sm320 O351 2.408 . S
Sm321 C331 2.846 . S
Sm321 O342 2.386 . S
Sm321 O345 2.408 . S
Sm321 O346 2.543 . S
Sm321 O347 2.450 . S
Sm321 O348 2.681 . S
Sm321 O349 2.464 . S
Sm321 O350 2.396 . S
C322 Sm320 2.846 . S
C322 C323 1.506 . S
C322 O340 1.261 . S
C322 O341 1.242 . S
C323 C322 1.506 . S
C323 C324 1.358 . S
C323 C328 1.382 . S
C324 C323 1.358 . S
C324 C325 1.385 . S
C324 H352 0.930 . S
C325 C324 1.385 . S
C325 C326 1.395 . S
C325 H353 0.929 . S
C326 C325 1.395 . S
C326 C327 1.335 . S
C327 C326 1.335 . S
C327 C328 1.398 . S
C327 H354 0.930 . S
C328 C323 1.382 . S
C328 C327 1.398 . S
C328 H355 0.929 . S
C329 O342 1.271 . S
C329 O343 1.251 . S
C330 O344 1.252 . S
C330 O345 1.272 . S
C331 Sm321 2.846 . S
C331 C332 1.506 1_556 S
C331 O346 1.261 . S
C331 O347 1.242 . S
C332 C331 1.506 1_554 S
C332 C333 1.358 . S
C332 C337 1.382 . S
C333 C332 1.358 . S
C333 C334 1.385 . S
C333 H356 0.930 . S
C334 C333 1.385 . S
C334 C335 1.395 . S
C334 H357 0.929 . S
C335 C334 1.395 . S
C335 C336 1.335 . S
C336 C335 1.335 . S
C336 C337 1.398 . S
C336 H358 0.930 . S
C337 C332 1.382 . S
C337 C336 1.398 . S
C337 H359 0.929 . S
C338 O348 1.271 . S
C338 O349 1.251 . S
C339 O350 1.252 . S
C339 O351 1.272 . S
O340 Sm320 2.543 . S
O340 C322 1.261 . S
O341 Sm320 2.450 . S
O341 C322 1.242 . S
O342 Sm320 2.681 . S
O342 Sm321 2.386 . S
O342 C329 1.271 . S
O343 Sm320 2.464 . S
O343 C329 1.251 . S
O344 Sm320 2.396 . S
O344 C330 1.252 . S
O345 Sm321 2.408 . S
O345 C330 1.272 . S
O346 Sm321 2.543 . S
O346 C331 1.261 . S
O347 Sm321 2.450 . S
O347 C331 1.242 . S
O348 Sm320 2.386 . S
O348 Sm321 2.681 . S
O348 C338 1.271 . S
O349 Sm321 2.464 . S
O349 C338 1.251 . S
O350 Sm321 2.396 . S
O350 C339 1.252 . S
O351 Sm320 2.408 . S
O351 C339 1.272 . S
H352 C324 0.930 . S
H353 C325 0.929 . S
H354 C327 0.930 . S
H355 C328 0.929 . S
H356 C333 0.930 . S
H357 C334 0.929 . S
H358 C336 0.930 . S
H359 C337 0.929 . S
H360 C366 0.930 . S
H361 C370 0.930 . S
H362 C375 0.929 . S
H363 C373 0.929 . S
H364 C368 0.929 . S
H365 C374 0.929 . S
C366 H360 0.930 . S
C366 C367 1.367 . S
C366 C374 1.378 . S
C367 C366 1.367 . S
C367 C375 1.433 . S
C368 H364 0.929 . S
C368 C370 1.378 . S
C368 C372 1.350 . S
C369 C372 1.463 . S
C369 C374 1.350 . S
C369 N377 1.427 . S
C370 H361 0.930 . S
C370 C368 1.378 . S
C370 C371 1.367 . S
C371 C370 1.367 . S
C371 C373 1.433 . S
C372 C368 1.350 . S
C372 C369 1.463 . S
C372 N376 1.427 . S
C373 H363 0.929 . S
C373 C371 1.433 . S
C373 N376 1.384 . S
C374 H365 0.929 . S
C374 C366 1.378 . S
C374 C369 1.350 . S
C375 H362 0.929 . S
C375 C367 1.433 . S
C375 N377 1.384 . S
N376 C372 1.427 . S
N376 C373 1.384 . S
N377 C369 1.427 . S
N377 C375 1.384 . S
H378 C384 0.930 . S
H379 C388 0.930 . S
H380 C393 0.929 . S
H381 C391 0.929 . S
H382 C386 0.929 . S
H383 C392 0.929 . S
C384 H378 0.930 . S
C384 C385 1.367 . S
C384 C392 1.378 . S
C385 C384 1.367 . S
C385 C393 1.433 . S
C386 H382 0.929 . S
C386 C388 1.378 . S
C386 C390 1.350 . S
C387 C390 1.463 . S
C387 C392 1.350 . S
C387 N395 1.427 . S
C388 H379 0.930 . S
C388 C386 1.378 . S
C388 C389 1.367 . S
C389 C388 1.367 . S
C389 C391 1.433 . S
C390 C386 1.350 . S
C390 C387 1.463 . S
C390 N394 1.427 . S
C391 H381 0.929 . S
C391 C389 1.433 . S
C391 N394 1.384 . S
C392 H383 0.929 . S
C392 C384 1.378 . S
C392 C387 1.350 . S
C393 H380 0.929 . S
C393 C385 1.433 . S
C393 N395 1.384 . S
N394 C390 1.427 . S
N394 C391 1.384 . S
N395 C387 1.427 . S
N395 C393 1.384 . S
H396 C402 0.930 . S
H397 C406 0.930 . S
H398 C411 0.929 . S
H399 C409 0.929 . S
H400 C404 0.929 . S
H401 C410 0.929 . S
C402 H396 0.930 . S
C402 C403 1.367 . S
C402 C410 1.378 . S
C403 C402 1.367 . S
C403 C411 1.433 . S
C404 H400 0.929 . S
C404 C406 1.378 . S
C404 C408 1.350 . S
C405 C408 1.463 . S
C405 C410 1.350 . S
C405 N413 1.427 . S
C406 H397 0.930 . S
C406 C404 1.378 . S
C406 C407 1.367 . S
C407 C406 1.367 . S
C407 C409 1.433 . S
C408 C404 1.350 . S
C408 C405 1.463 . S
C408 N412 1.427 . S
C409 H399 0.929 . S
C409 C407 1.433 . S
C409 N412 1.384 . S
C410 H401 0.929 . S
C410 C402 1.378 . S
C410 C405 1.350 . S
C411 H398 0.929 . S
C411 C403 1.433 . S
C411 N413 1.384 . S
N412 C408 1.427 . S
N412 C409 1.384 . S
N413 C405 1.427 . S
N413 C411 1.384 . S
H414 C420 0.930 . S
H415 C424 0.930 1_554 S
H416 C429 0.929 . S
H417 C427 0.929 . S
H418 C422 0.929 . S
H419 C428 0.929 . S
C420 H414 0.930 . S
C420 C421 1.367 . S
C420 C428 1.378 . S
C421 C420 1.367 . S
C421 C429 1.433 . S
C422 H418 0.929 . S
C422 C424 1.378 . S
C422 C426 1.350 . S
C423 C426 1.463 . S
C423 C428 1.350 . S
C423 N431 1.427 . S
C424 H415 0.930 1_556 S
C424 C422 1.378 . S
C424 C425 1.367 1_556 S
C425 C424 1.367 1_554 S
C425 C427 1.433 1_554 S
C426 C422 1.350 . S
C426 C423 1.463 . S
C426 N430 1.427 . S
C427 H417 0.929 . S
C427 C425 1.433 1_556 S
C427 N430 1.384 . S
C428 H419 0.929 . S
C428 C420 1.378 . S
C428 C423 1.350 . S
C429 H416 0.929 . S
C429 C421 1.433 . S
C429 N431 1.384 . S
N430 C426 1.427 . S
N430 C427 1.384 . S
N431 C423 1.427 . S
N431 C429 1.384 . S
H432 C438 0.930 . S
H433 C442 0.930 . S
H434 C447 0.929 . S
H435 C445 0.929 . S
H436 C440 0.929 . S
H437 C446 0.929 . S
C438 H432 0.930 . S
C438 C439 1.367 . S
C438 C446 1.378 . S
C439 C438 1.367 . S
C439 C447 1.433 . S
C440 H436 0.929 . S
C440 C442 1.378 . S
C440 C444 1.350 . S
C441 C444 1.463 . S
C441 C446 1.350 . S
C441 N449 1.427 . S
C442 H433 0.930 . S
C442 C440 1.378 . S
C442 C443 1.367 . S
C443 C442 1.367 . S
C443 C445 1.433 . S
C444 C440 1.350 . S
C444 C441 1.463 . S
C444 N448 1.427 . S
C445 H435 0.929 . S
C445 C443 1.433 . S
C445 N448 1.384 . S
C446 H437 0.929 . S
C446 C438 1.378 . S
C446 C441 1.350 . S
C447 H434 0.929 . S
C447 C439 1.433 . S
C447 N449 1.384 . S
N448 C444 1.427 . S
N448 C445 1.384 . S
N449 C441 1.427 . S
N449 C447 1.384 . S
H450 C456 0.930 . S
H451 C460 0.930 . S
H452 C465 0.929 . S
H453 C463 0.929 . S
H454 C458 0.929 . S
H455 C464 0.929 . S
C456 H450 0.930 . S
C456 C457 1.367 . S
C456 C464 1.378 . S
C457 C456 1.367 . S
C457 C465 1.433 . S
C458 H454 0.929 . S
C458 C460 1.378 . S
C458 C462 1.350 . S
C459 C462 1.463 . S
C459 C464 1.350 . S
C459 N467 1.427 . S
C460 H451 0.930 . S
C460 C458 1.378 . S
C460 C461 1.367 . S
C461 C460 1.367 . S
C461 C463 1.433 . S
C462 C458 1.350 . S
C462 C459 1.463 . S
C462 N466 1.427 . S
C463 H453 0.929 . S
C463 C461 1.433 . S
C463 N466 1.384 . S
C464 H455 0.929 . S
C464 C456 1.378 . S
C464 C459 1.350 . S
C465 H452 0.929 . S
C465 C457 1.433 . S
C465 N467 1.384 . S
N466 C462 1.427 . S
N466 C463 1.384 . S
N467 C459 1.427 . S
N467 C465 1.384 . S
H468 C474 0.930 . S
H469 C478 0.930 . S
H470 C483 0.929 . S
H471 C481 0.929 . S
H472 C476 0.929 . S
H473 C482 0.929 . S
C474 H468 0.930 . S
C474 C475 1.367 . S
C474 C482 1.378 . S
C475 C474 1.367 . S
C475 C483 1.433 . S
C476 H472 0.929 . S
C476 C478 1.378 . S
C476 C480 1.350 . S
C477 C480 1.463 . S
C477 C482 1.350 . S
C477 N485 1.427 . S
C478 H469 0.930 . S
C478 C476 1.378 . S
C478 C479 1.367 . S
C479 C478 1.367 . S
C479 C481 1.433 . S
C480 C476 1.350 . S
C480 C477 1.463 . S
C480 N484 1.427 . S
C481 H471 0.929 . S
C481 C479 1.433 . S
C481 N484 1.384 . S
C482 H473 0.929 . S
C482 C474 1.378 . S
C482 C477 1.350 . S
C483 H470 0.929 . S
C483 C475 1.433 . S
C483 N485 1.384 . S
N484 C480 1.427 . S
N484 C481 1.384 . S
N485 C477 1.427 . S
N485 C483 1.384 . S
H486 C492 0.930 . S
H487 C496 0.930 . S
H488 C501 0.929 . S
H489 C499 0.929 . S
H490 C494 0.929 . S
H491 C500 0.929 . S
C492 H486 0.930 . S
C492 C493 1.367 . S
C492 C500 1.378 . S
C493 C492 1.367 . S
C493 C501 1.433 . S
C494 H490 0.929 . S
C494 C496 1.378 . S
C494 C498 1.350 . S
C495 C498 1.463 . S
C495 C500 1.350 . S
C495 N503 1.427 . S
C496 H487 0.930 . S
C496 C494 1.378 . S
C496 C497 1.367 . S
C497 C496 1.367 . S
C497 C499 1.433 . S
C498 C494 1.350 . S
C498 C495 1.463 . S
C498 N502 1.427 . S
C499 H489 0.929 . S
C499 C497 1.433 . S
C499 N502 1.384 . S
C500 H491 0.929 . S
C500 C492 1.378 . S
C500 C495 1.350 . S
C501 H488 0.929 . S
C501 C493 1.433 . S
C501 N503 1.384 . S
N502 C498 1.427 . S
N502 C499 1.384 . S
N503 C495 1.427 . S
N503 C501 1.384 . S
H504 C510 0.930 . S
H505 C514 0.930 . S
H506 C519 0.929 . S
H507 C517 0.929 . S
H508 C512 0.929 . S
H509 C518 0.929 . S
C510 H504 0.930 . S
C510 C511 1.367 . S
C510 C518 1.378 . S
C511 C510 1.367 . S
C511 C519 1.433 . S
C512 H508 0.929 . S
C512 C514 1.378 . S
C512 C516 1.350 . S
C513 C516 1.463 . S
C513 C518 1.350 . S
C513 N521 1.427 . S
C514 H505 0.930 . S
C514 C512 1.378 . S
C514 C515 1.367 . S
C515 C514 1.367 . S
C515 C517 1.433 . S
C516 C512 1.350 . S
C516 C513 1.463 . S
C516 N520 1.427 . S
C517 H507 0.929 . S
C517 C515 1.433 . S
C517 N520 1.384 . S
C518 H509 0.929 . S
C518 C510 1.378 . S
C518 C513 1.350 . S
C519 H506 0.929 . S
C519 C511 1.433 . S
C519 N521 1.384 . S
N520 C516 1.427 . S
N520 C517 1.384 . S
N521 C513 1.427 . S
N521 C519 1.384 . S
H522 C528 0.930 . S
H523 C532 0.930 . S
H524 C537 0.929 . S
H525 C535 0.929 . S
H526 C530 0.929 . S
H527 C536 0.929 . S
C528 H522 0.930 . S
C528 C529 1.367 . S
C528 C536 1.378 . S
C529 C528 1.367 . S
C529 C537 1.433 . S
C530 H526 0.929 . S
C530 C532 1.378 . S
C530 C534 1.350 . S
C531 C534 1.463 . S
C531 C536 1.350 . S
C531 N539 1.427 . S
C532 H523 0.930 . S
C532 C530 1.378 . S
C532 C533 1.367 . S
C533 C532 1.367 . S
C533 C535 1.433 . S
C534 C530 1.350 . S
C534 C531 1.463 . S
C534 N538 1.427 . S
C535 H525 0.929 . S
C535 C533 1.433 . S
C535 N538 1.384 . S
C536 H527 0.929 . S
C536 C528 1.378 . S
C536 C531 1.350 . S
C537 H524 0.929 . S
C537 C529 1.433 . S
C537 N539 1.384 . S
N538 C534 1.427 . S
N538 C535 1.384 . S
N539 C531 1.427 . S
N539 C537 1.384 . S
H540 C546 0.930 . S
H541 C550 0.930 . S
H542 C555 0.929 . S
H543 C553 0.929 . S
H544 C548 0.929 . S
H545 C554 0.929 . S
C546 H540 0.930 . S
C546 C547 1.367 . S
C546 C554 1.378 . S
C547 C546 1.367 . S
C547 C555 1.433 . S
C548 H544 0.929 . S
C548 C550 1.378 . S
C548 C552 1.350 . S
C549 C552 1.463 . S
C549 C554 1.350 . S
C549 N557 1.427 . S
C550 H541 0.930 . S
C550 C548 1.378 . S
C550 C551 1.367 . S
C551 C550 1.367 . S
C551 C553 1.433 . S
C552 C548 1.350 . S
C552 C549 1.463 . S
C552 N556 1.427 . S
C553 H543 0.929 . S
C553 C551 1.433 . S
C553 N556 1.384 . S
C554 H545 0.929 . S
C554 C546 1.378 . S
C554 C549 1.350 . S
C555 H542 0.929 . S
C555 C547 1.433 . S
C555 N557 1.384 . S
N556 C552 1.427 . S
N556 C553 1.384 . S
N557 C549 1.427 . S
N557 C555 1.384 . S
H558 C564 0.930 . S
H559 C568 0.930 . S
H560 C573 0.929 . S
H561 C571 0.929 . S
H562 C566 0.929 1_545 S
H563 C572 0.929 . S
C564 H558 0.930 . S
C564 C565 1.367 1_565 S
C564 C572 1.378 . S
C565 C564 1.367 1_545 S
C565 C573 1.433 . S
C566 H562 0.929 1_565 S
C566 C568 1.378 . S
C566 C570 1.350 . S
C567 C570 1.463 . S
C567 C572 1.350 . S
C567 N575 1.427 1_565 S
C568 H559 0.930 . S
C568 C566 1.378 . S
C568 C569 1.367 . S
C569 C568 1.367 . S
C569 C571 1.433 . S
C570 C566 1.350 . S
C570 C567 1.463 . S
C570 N574 1.427 . S
C571 H561 0.929 . S
C571 C569 1.433 . S
C571 N574 1.384 . S
C572 H563 0.929 . S
C572 C564 1.378 . S
C572 C567 1.350 . S
C573 H560 0.929 . S
C573 C565 1.433 . S
C573 N575 1.384 . S
N574 C570 1.427 . S
N574 C571 1.384 . S
N575 C567 1.427 1_545 S
N575 C573 1.384 . S
H576 C582 0.930 . S
H577 C586 0.930 . S
H578 C591 0.929 . S
H579 C589 0.929 . S
H580 C584 0.929 . S
H581 C590 0.929 1_556 S
C582 H576 0.930 . S
C582 C583 1.367 . S
C582 C590 1.378 . S
C583 C582 1.367 . S
C583 C591 1.433 . S
C584 H580 0.929 . S
C584 C586 1.378 . S
C584 C588 1.350 . S
C585 C588 1.463 1_554 S
C585 C590 1.350 . S
C585 N593 1.427 . S
C586 H577 0.930 . S
C586 C584 1.378 . S
C586 C587 1.367 . S
C587 C586 1.367 . S
C587 C589 1.433 . S
C588 C584 1.350 . S
C588 C585 1.463 1_556 S
C588 N592 1.427 . S
C589 H579 0.929 . S
C589 C587 1.433 . S
C589 N592 1.384 . S
C590 H581 0.929 1_554 S
C590 C582 1.378 . S
C590 C585 1.350 . S
C591 H578 0.929 . S
C591 C583 1.433 . S
C591 N593 1.384 . S
N592 C588 1.427 . S
N592 C589 1.384 . S
N593 C585 1.427 . S
N593 C591 1.384 . S
H594 C600 0.930 . S
H595 C604 0.930 . S
H596 C609 0.929 . S
H597 C607 0.929 . S
H598 C602 0.929 1_554 S
H599 C608 0.929 . S
C600 H594 0.930 . S
C600 C601 1.367 . S
C600 C608 1.378 . S
C601 C600 1.367 . S
C601 C609 1.433 . S
C602 H598 0.929 1_556 S
C602 C604 1.378 1_556 S
C602 C606 1.350 . S
C603 C606 1.463 . S
C603 C608 1.350 . S
C603 N611 1.427 . S
C604 H595 0.930 . S
C604 C602 1.378 1_554 S
C604 C605 1.367 1_655 S
C605 C604 1.367 1_455 S
C605 C607 1.433 1_554 S
C606 C602 1.350 . S
C606 C603 1.463 . S
C606 N610 1.427 . S
C607 H597 0.929 . S
C607 C605 1.433 1_556 S
C607 N610 1.384 1_455 S
C608 H599 0.929 . S
C608 C600 1.378 . S
C608 C603 1.350 . S
C609 H596 0.929 . S
C609 C601 1.433 . S
C609 N611 1.384 . S
N610 C606 1.427 . S
N610 C607 1.384 1_655 S
N611 C603 1.427 . S
N611 C609 1.384 . S
H612 C618 0.930 . S
H613 C622 0.930 . S
H614 C627 0.929 . S
H615 C625 0.929 . S
H616 C620 0.929 1_556 S
H617 C626 0.929 . S
C618 H612 0.930 . S
C618 C619 1.367 . S
C618 C626 1.378 . S
C619 C618 1.367 . S
C619 C627 1.433 . S
C620 H616 0.929 1_554 S
C620 C622 1.378 . S
C620 C624 1.350 1_554 S
C621 C624 1.463 . S
C621 C626 1.350 . S
C621 N629 1.427 . S
C622 H613 0.930 . S
C622 C620 1.378 . S
C622 C623 1.367 . S
C623 C622 1.367 . S
C623 C625 1.433 . S
C624 C620 1.350 1_556 S
C624 C621 1.463 . S
C624 N628 1.427 1_556 S
C625 H615 0.929 . S
C625 C623 1.433 . S
C625 N628 1.384 . S
C626 H617 0.929 . S
C626 C618 1.378 . S
C626 C621 1.350 . S
C627 H614 0.929 . S
C627 C619 1.433 . S
C627 N629 1.384 . S
N628 C624 1.427 1_554 S
N628 C625 1.384 . S
N629 C621 1.427 . S
N629 C627 1.384 . S
H630 C636 0.930 . S
H631 C640 0.930 . S
H632 C645 0.929 . S
H633 C643 0.929 . S
H634 C638 0.929 . S
H635 C644 0.929 . S
C636 H630 0.930 . S
C636 C637 1.367 . S
C636 C644 1.378 . S
C637 C636 1.367 . S
C637 C645 1.433 . S
C638 H634 0.929 . S
C638 C640 1.378 1_556 S
C638 C642 1.350 . S
C639 C642 1.463 . S
C639 C644 1.350 . S
C639 N647 1.427 . S
C640 H631 0.930 . S
C640 C638 1.378 1_554 S
C640 C641 1.367 1_554 S
C641 C640 1.367 1_556 S
C641 C643 1.433 . S
C642 C638 1.350 . S
C642 C639 1.463 . S
C642 N646 1.427 . S
C643 H633 0.929 . S
C643 C641 1.433 . S
C643 N646 1.384 . S
C644 H635 0.929 . S
C644 C636 1.378 . S
C644 C639 1.350 . S
C645 H632 0.929 . S
C645 C637 1.433 . S
C645 N647 1.384 . S
N646 C642 1.427 . S
N646 C643 1.384 . S
N647 C639 1.427 . S
N647 C645 1.384 . S
H648 C654 0.930 . S
H649 C658 0.930 . S
H650 C663 0.929 . S
H651 C661 0.929 . S
H652 C656 0.929 . S
H653 C662 0.929 . S
C654 H648 0.930 . S
C654 C655 1.367 . S
C654 C662 1.378 . S
C655 C654 1.367 . S
C655 C663 1.433 1_554 S
C656 H652 0.929 . S
C656 C658 1.378 . S
C656 C660 1.350 . S
C657 C660 1.463 . S
C657 C662 1.350 1_556 S
C657 N665 1.427 . S
C658 H649 0.930 . S
C658 C656 1.378 . S
C658 C659 1.367 . S
C659 C658 1.367 . S
C659 C661 1.433 . S
C660 C656 1.350 . S
C660 C657 1.463 . S
C660 N664 1.427 . S
C661 H651 0.929 . S
C661 C659 1.433 . S
C661 N664 1.384 . S
C662 H653 0.929 . S
C662 C654 1.378 . S
C662 C657 1.350 1_554 S
C663 H650 0.929 . S
C663 C655 1.433 1_556 S
C663 N665 1.384 . S
N664 C660 1.427 . S
N664 C661 1.384 . S
N665 C657 1.427 . S
N665 C663 1.384 . S
H666 C672 0.930 . S
H667 C676 0.930 . S
H668 C681 0.929 . S
H669 C679 0.929 . S
H670 C674 0.929 1_556 S
H671 C680 0.929 . S
C672 H666 0.930 . S
C672 C673 1.367 . S
C672 C680 1.378 . S
C673 C672 1.367 . S
C673 C681 1.433 . S
C674 H670 0.929 1_554 S
C674 C676 1.378 . S
C674 C678 1.350 . S
C675 C678 1.463 1_556 S
C675 C680 1.350 . S
C675 N683 1.427 . S
C676 H667 0.930 . S
C676 C674 1.378 . S
C676 C677 1.367 . S
C677 C676 1.367 . S
C677 C679 1.433 . S
C678 C674 1.350 . S
C678 C675 1.463 1_554 S
C678 N682 1.427 . S
C679 H669 0.929 . S
C679 C677 1.433 . S
C679 N682 1.384 . S
C680 H671 0.929 . S
C680 C672 1.378 . S
C680 C675 1.350 . S
C681 H668 0.929 . S
C681 C673 1.433 . S
C681 N683 1.384 . S
N682 C678 1.427 . S
N682 C679 1.384 . S
N683 C675 1.427 . S
N683 C681 1.384 . S
H684 C690 0.930 . S
H685 C694 0.940 . S
H686 C699 0.929 . S
H687 C697 0.929 . S
H688 C692 0.929 . S
H689 C698 0.929 . S
C690 H684 0.930 . S
C690 C691 1.367 . S
C690 C698 1.378 . S
C691 C690 1.367 . S
C691 C699 1.433 . S
C692 H688 0.929 . S
C692 C694 1.378 . S
C692 C696 1.350 . S
C693 C696 1.463 . S
C693 C698 1.350 . S
C693 N701 1.427 . S
C694 H685 0.940 . S
C694 C692 1.378 . S
C694 C695 1.367 1_545 S
C695 C694 1.367 1_565 S
C695 C697 1.433 . S
C696 C692 1.350 . S
C696 C693 1.463 . S
C696 N700 1.427 . S
C697 H687 0.929 . S
C697 C695 1.433 . S
C697 N700 1.384 1_565 S
C698 H689 0.929 . S
C698 C690 1.378 . S
C698 C693 1.350 . S
C699 H686 0.929 . S
C699 C691 1.433 . S
C699 N701 1.384 . S
N700 C696 1.427 . S
N700 C697 1.384 1_545 S
N701 C693 1.427 . S
N701 C699 1.384 . S
H702 C708 0.930 . S
H703 C712 0.930 . S
H704 C717 0.929 . S
H705 C715 0.929 . S
H706 C710 0.929 . S
H707 C716 0.929 . S
C708 H702 0.930 . S
C708 C709 1.367 . S
C708 C716 1.378 . S
C709 C708 1.367 . S
C709 C717 1.433 . S
C710 H706 0.929 . S
C710 C712 1.378 . S
C710 C714 1.350 . S
C711 C714 1.463 . S
C711 C716 1.350 . S
C711 N719 1.427 . S
C712 H703 0.930 . S
C712 C710 1.378 . S
C712 C713 1.367 . S
C713 C712 1.367 . S
C713 C715 1.433 . S
C714 C710 1.350 . S
C714 C711 1.463 . S
C714 N718 1.427 . S
C715 H705 0.929 . S
C715 C713 1.433 . S
C715 N718 1.384 . S
C716 H707 0.929 . S
C716 C708 1.378 . S
C716 C711 1.350 . S
C717 H704 0.929 . S
C717 C709 1.433 . S
C717 N719 1.384 . S
N718 C714 1.427 . S
N718 C715 1.384 . S
N719 C711 1.427 . S
N719 C717 1.384 . S
H720 C726 0.930 . S
H721 C730 0.930 . S
H722 C735 0.929 . S
H723 C733 0.929 . S
H724 C728 0.929 . S
H725 C734 0.929 . S
C726 H720 0.930 . S
C726 C727 1.367 . S
C726 C734 1.378 . S
C727 C726 1.367 . S
C727 C735 1.433 . S
C728 H724 0.929 . S
C728 C730 1.378 . S
C728 C732 1.350 . S
C729 C732 1.463 . S
C729 C734 1.350 . S
C729 N737 1.427 . S
C730 H721 0.930 . S
C730 C728 1.378 . S
C730 C731 1.367 . S
C731 C730 1.367 . S
C731 C733 1.433 . S
C732 C728 1.350 . S
C732 C729 1.463 . S
C732 N736 1.427 . S
C733 H723 0.929 . S
C733 C731 1.433 . S
C733 N736 1.384 . S
C734 H725 0.929 . S
C734 C726 1.378 . S
C734 C729 1.350 . S
C735 H722 0.929 . S
C735 C727 1.433 . S
C735 N737 1.384 . S
N736 C732 1.427 . S
N736 C733 1.384 . S
N737 C729 1.427 . S
N737 C735 1.384 . S
H738 C744 0.930 . S
H739 C748 0.930 . S
H740 C753 0.929 . S
H741 C751 0.929 . S
H742 C746 0.929 . S
H743 C752 0.929 . S
C744 H738 0.930 . S
C744 C745 1.367 . S
C744 C752 1.378 . S
C745 C744 1.367 . S
C745 C753 1.433 . S
C746 H742 0.929 . S
C746 C748 1.378 . S
C746 C750 1.350 . S
C747 C750 1.463 . S
C747 C752 1.350 . S
C747 N755 1.427 . S
C748 H739 0.930 . S
C748 C746 1.378 . S
C748 C749 1.367 . S
C749 C748 1.367 . S
C749 C751 1.433 . S
C750 C746 1.350 . S
C750 C747 1.463 . S
C750 N754 1.427 . S
C751 H741 0.929 . S
C751 C749 1.433 . S
C751 N754 1.384 . S
C752 H743 0.929 . S
C752 C744 1.378 . S
C752 C747 1.350 . S
C753 H740 0.929 . S
C753 C745 1.433 . S
C753 N755 1.384 . S
N754 C750 1.427 . S
N754 C751 1.384 . S
N755 C747 1.427 . S
N755 C753 1.384 . S
H756 C762 0.930 . S
H757 C766 0.930 . S
H758 C771 0.929 . S
H759 C769 0.929 . S
H760 C764 0.895 1_545 S
H761 C770 0.929 . S
C762 H756 0.930 . S
C762 C763 1.367 . S
C762 C770 1.378 . S
C763 C762 1.367 . S
C763 C771 1.433 . S
C764 H760 0.895 1_565 S
C764 C766 1.393 . S
C764 C768 1.370 . S
C765 C768 1.463 1_545 S
C765 C770 1.350 . S
C765 N773 1.427 . S
C766 H757 0.930 . S
C766 C764 1.393 . S
C766 C767 1.367 . S
C767 C766 1.367 . S
C767 C769 1.433 . S
C768 C764 1.370 . S
C768 C765 1.463 1_565 S
C768 N772 1.427 . S
C769 H759 0.929 . S
C769 C767 1.433 . S
C769 N772 1.384 . S
C770 H761 0.929 . S
C770 C762 1.378 . S
C770 C765 1.350 . S
C771 H758 0.929 . S
C771 C763 1.433 . S
C771 N773 1.384 . S
N772 C768 1.427 . S
N772 C769 1.384 . S
N773 C765 1.427 . S
N773 C771 1.384 . S
H774 C780 0.924 1_455 S
H775 C784 0.930 1_655 S
H776 C789 0.929 . S
H777 C787 0.929 . S
H778 C782 0.929 . S
H779 C788 0.929 . S
C780 H774 0.924 1_655 S
C780 C781 1.419 . S
C780 C788 1.334 1_655 S
C781 C780 1.419 . S
C781 C789 1.433 . S
C782 H778 0.929 . S
C782 C784 1.378 1_655 S
C782 C786 1.350 1_655 S
C783 C786 1.463 1_655 S
C783 C788 1.350 1_655 S
C783 N791 1.427 . S
C784 H775 0.930 1_455 S
C784 C782 1.378 1_455 S
C784 C785 1.367 . S
C785 C784 1.367 . S
C785 C787 1.433 . S
C786 C782 1.350 1_455 S
C786 C783 1.463 1_455 S
C786 N790 1.427 . S
C787 H777 0.929 . S
C787 C785 1.433 . S
C787 N790 1.384 . S
C788 H779 0.929 . S
C788 C780 1.334 1_455 S
C788 C783 1.350 1_455 S
C789 H776 0.929 . S
C789 C781 1.433 . S
C789 N791 1.384 . S
N790 C786 1.427 . S
N790 C787 1.384 . S
N791 C783 1.427 . S
N791 C789 1.384 . S
H792 C798 0.930 . S
H793 C802 0.930 . S
H794 C807 0.929 . S
H795 C805 0.929 . S
H796 C800 0.929 . S
H797 C806 0.929 . S
C798 H792 0.930 . S
C798 C799 1.367 . S
C798 C806 1.378 . S
C799 C798 1.367 . S
C799 C807 1.433 . S
C800 H796 0.929 . S
C800 C802 1.378 . S
C800 C804 1.350 . S
C801 C804 1.463 . S
C801 C806 1.350 . S
C801 N809 1.427 . S
C802 H793 0.930 . S
C802 C800 1.378 . S
C802 C803 1.367 . S
C803 C802 1.367 . S
C803 C805 1.433 . S
C804 C800 1.350 . S
C804 C801 1.463 . S
C804 N808 1.427 . S
C805 H795 0.929 . S
C805 C803 1.433 . S
C805 N808 1.384 . S
C806 H797 0.929 . S
C806 C798 1.378 . S
C806 C801 1.350 . S
C807 H794 0.929 . S
C807 C799 1.433 . S
C807 N809 1.384 . S
N808 C804 1.427 . S
N808 C805 1.384 . S
N809 C801 1.427 . S
N809 C807 1.384 . S
H810 C816 0.930 . S
H811 C820 0.930 . S
H812 C825 0.929 . S
H813 C823 0.929 . S
H814 C818 0.929 . S
H815 C824 0.929 . S
C816 H810 0.930 . S
C816 C817 1.367 . S
C816 C824 1.378 . S
C817 C816 1.367 . S
C817 C825 1.433 . S
C818 H814 0.929 . S
C818 C820 1.378 . S
C818 C822 1.350 . S
C819 C822 1.463 . S
C819 C824 1.350 1_545 S
C819 N827 1.427 1_545 S
C820 H811 0.930 . S
C820 C818 1.378 . S
C820 C821 1.367 . S
C821 C820 1.367 . S
C821 C823 1.433 . S
C822 C818 1.350 . S
C822 C819 1.463 . S
C822 N826 1.427 . S
C823 H813 0.929 . S
C823 C821 1.433 . S
C823 N826 1.384 . S
C824 H815 0.929 . S
C824 C816 1.378 . S
C824 C819 1.350 1_565 S
C825 H812 0.929 . S
C825 C817 1.433 . S
C825 N827 1.384 . S
N826 C822 1.427 . S
N826 C823 1.384 . S
N827 C819 1.427 1_565 S
N827 C825 1.384 . S
H828 C834 0.930 . S
H829 C838 0.930 . S
H830 C843 0.929 1_455 S
H831 C841 0.929 . S
H832 C836 0.929 . S
H833 C842 0.929 . S
C834 H828 0.930 . S
C834 C835 1.367 . S
C834 C842 1.378 . S
C835 C834 1.367 . S
C835 C843 1.433 . S
C836 H832 0.929 . S
C836 C838 1.378 . S
C836 C840 1.350 . S
C837 C840 1.463 1_655 S
C837 C842 1.350 . S
C837 N845 1.427 1_655 S
C838 H829 0.930 . S
C838 C836 1.378 . S
C838 C839 1.367 . S
C839 C838 1.367 . S
C839 C841 1.433 . S
C840 C836 1.350 . S
C840 C837 1.463 1_455 S
C840 N844 1.427 1_455 S
C841 H831 0.929 . S
C841 C839 1.433 . S
C841 N844 1.384 1_455 S
C842 H833 0.929 . S
C842 C834 1.378 . S
C842 C837 1.350 . S
C843 H830 0.929 1_655 S
C843 C835 1.433 . S
C843 N845 1.384 1_655 S
N844 C840 1.427 1_655 S
N844 C841 1.384 1_655 S
N845 C837 1.427 1_455 S
N845 C843 1.384 1_455 S
C367 C9 3.360 . S
C371 C18 3.360 . S
C385 C58 3.438 . S
C389 C49 3.438 . S
C403 C89 3.480 1_556 S
C407 C98 3.480 . S
C421 C138 3.357 . S
C425 C129 3.357 . S
C439 C169 3.438 . S
C443 C178 3.438 1_556 S
C457 C218 3.480 . S
C461 C209 3.480 1_556 S
C475 C246 2.501 . S
C479 C255 2.501 . S
C493 C295 2.779 . S
C497 C286 2.779 . S
C511 C326 1.883 . S
C515 C335 1.883 . S
C529 C210 1.738 . S
C533 C6 1.771 . S
C547 C50 2.749 . S
C551 C130 2.773 . S
C565 C86 1.226 . S
C569 C166 1.237 . S
C583 C90 2.957 . S
C587 C259 3.119 . S
C601 C298 1.170 . S
C605 C10 1.138 . S
C619 C339 1.952 . S
C623 C46 1.846 . S
C637 C329 0.841 . S
C641 C15 0.838 1_556 S
C655 C59 2.192 . S
C659 C249 2.247 . S
C673 C290 2.929 . S
C677 C95 2.761 . S
C691 C99 1.738 . S
C695 C135 1.772 . S
C709 C179 2.748 . S
C713 C19 2.773 . S
C727 C55 1.239 . S
C731 C215 1.230 . S
C745 C338 0.837 . S
C749 C126 0.833 . S
C763 C258 2.252 . S
C767 C170 2.190 . S
C781 C299 2.930 . S
C785 C206 2.765 . S
C799 C250 3.119 . S
C803 C219 2.959 . S
C817 C139 1.126 . S
C821 C289 1.171 . S
C835 C330 1.953 . S
C839 C175 1.839 . S
