# Generated by pormake.
# Topology ato, (4)-cn, num edge types: 1
# Building blocks:
#     Node 0, Type 0, BuildingBlock: NAHDIM_clean_sbu_0, # of connection points: 4
#     Node 1, Type 0, BuildingBlock: NAHDIM_clean_sbu_0, # of connection points: 4
#     Node 2, Type 0, BuildingBlock: NAHDIM_clean_sbu_0, # of connection points: 4
#     Node 3, Type 0, BuildingBlock: NAHDIM_clean_sbu_0, # of connection points: 4
#     Node 4, Type 0, BuildingBlock: NAHDIM_clean_sbu_0, # of connection points: 4
#     Node 5, Type 0, BuildingBlock: NAHDIM_clean_sbu_0, # of connection points: 4
#     Node 6, Type 0, BuildingBlock: NAHDIM_clean_sbu_0, # of connection points: 4
#     Node 7, Type 0, BuildingBlock: NAHDIM_clean_sbu_0, # of connection points: 4
#     Node 8, Type 0, BuildingBlock: NAHDIM_clean_sbu_0, # of connection points: 4
#     Node 9, Type 0, BuildingBlock: NAHDIM_clean_sbu_0, # of connection points: 4
#     Node 10, Type 0, BuildingBlock: NAHDIM_clean_sbu_0, # of connection points: 4
#     Node 11, Type 0, BuildingBlock: NAHDIM_clean_sbu_0, # of connection points: 4
#     Node 12, Type 0, BuildingBlock: NAHDIM_clean_sbu_0, # of connection points: 4
#     Node 13, Type 0, BuildingBlock: NAHDIM_clean_sbu_0, # of connection points: 4
#     Node 14, Type 0, BuildingBlock: NAHDIM_clean_sbu_0, # of connection points: 4
#     Node 15, Type 0, BuildingBlock: NAHDIM_clean_sbu_0, # of connection points: 4
#     Node 16, Type 0, BuildingBlock: NAHDIM_clean_sbu_0, # of connection points: 4
#     Node 17, Type 0, BuildingBlock: NAHDIM_clean_sbu_0, # of connection points: 4
#     Node 18, Type 0, BuildingBlock: NAHDIM_clean_sbu_0, # of connection points: 4
#     Node 19, Type 0, BuildingBlock: NAHDIM_clean_sbu_0, # of connection points: 4
#     Node 20, Type 0, BuildingBlock: NAHDIM_clean_sbu_0, # of connection points: 4
#     Node 21, Type 0, BuildingBlock: NAHDIM_clean_sbu_0, # of connection points: 4
#     Node 22, Type 0, BuildingBlock: NAHDIM_clean_sbu_0, # of connection points: 4
#     Node 23, Type 0, BuildingBlock: NAHDIM_clean_sbu_0, # of connection points: 4
#     Node 24, Type 0, BuildingBlock: NAHDIM_clean_sbu_0, # of connection points: 4
#     Node 25, Type 0, BuildingBlock: NAHDIM_clean_sbu_0, # of connection points: 4
#     Node 26, Type 0, BuildingBlock: NAHDIM_clean_sbu_0, # of connection points: 4
#     Node 27, Type 0, BuildingBlock: NAHDIM_clean_sbu_0, # of connection points: 4
#     Node 28, Type 0, BuildingBlock: NAHDIM_clean_sbu_0, # of connection points: 4
#     Node 29, Type 0, BuildingBlock: NAHDIM_clean_sbu_0, # of connection points: 4
#     Node 30, Type 0, BuildingBlock: NAHDIM_clean_sbu_0, # of connection points: 4
#     Node 31, Type 0, BuildingBlock: NAHDIM_clean_sbu_0, # of connection points: 4
#     Node 32, Type 0, BuildingBlock: NAHDIM_clean_sbu_0, # of connection points: 4
#     Node 33, Type 0, BuildingBlock: NAHDIM_clean_sbu_0, # of connection points: 4
#     Node 34, Type 0, BuildingBlock: NAHDIM_clean_sbu_0, # of connection points: 4
#     Node 35, Type 0, BuildingBlock: NAHDIM_clean_sbu_0, # of connection points: 4
#     Edge 36, Type (0, 0), BuildingBlock: XIVTED_clean_linker_0, # of connection points: 2
#     Edge 37, Type (0, 0), BuildingBlock: XIVTED_clean_linker_0, # of connection points: 2
#     Edge 38, Type (0, 0), BuildingBlock: XIVTED_clean_linker_0, # of connection points: 2
#     Edge 39, Type (0, 0), BuildingBlock: XIVTED_clean_linker_0, # of connection points: 2
#     Edge 40, Type (0, 0), BuildingBlock: XIVTED_clean_linker_0, # of connection points: 2
#     Edge 41, Type (0, 0), BuildingBlock: XIVTED_clean_linker_0, # of connection points: 2
#     Edge 42, Type (0, 0), BuildingBlock: XIVTED_clean_linker_0, # of connection points: 2
#     Edge 43, Type (0, 0), BuildingBlock: XIVTED_clean_linker_0, # of connection points: 2
#     Edge 44, Type (0, 0), BuildingBlock: XIVTED_clean_linker_0, # of connection points: 2
#     Edge 45, Type (0, 0), BuildingBlock: XIVTED_clean_linker_0, # of connection points: 2
#     Edge 46, Type (0, 0), BuildingBlock: XIVTED_clean_linker_0, # of connection points: 2
#     Edge 47, Type (0, 0), BuildingBlock: XIVTED_clean_linker_0, # of connection points: 2
#     Edge 48, Type (0, 0), BuildingBlock: XIVTED_clean_linker_0, # of connection points: 2
#     Edge 49, Type (0, 0), BuildingBlock: XIVTED_clean_linker_0, # of connection points: 2
#     Edge 50, Type (0, 0), BuildingBlock: XIVTED_clean_linker_0, # of connection points: 2
#     Edge 51, Type (0, 0), BuildingBlock: XIVTED_clean_linker_0, # of connection points: 2
#     Edge 52, Type (0, 0), BuildingBlock: XIVTED_clean_linker_0, # of connection points: 2
#     Edge 53, Type (0, 0), BuildingBlock: XIVTED_clean_linker_0, # of connection points: 2
#     Edge 54, Type (0, 0), BuildingBlock: XIVTED_clean_linker_0, # of connection points: 2
#     Edge 55, Type (0, 0), BuildingBlock: XIVTED_clean_linker_0, # of connection points: 2
#     Edge 56, Type (0, 0), BuildingBlock: XIVTED_clean_linker_0, # of connection points: 2
#     Edge 57, Type (0, 0), BuildingBlock: XIVTED_clean_linker_0, # of connection points: 2
#     Edge 58, Type (0, 0), BuildingBlock: XIVTED_clean_linker_0, # of connection points: 2
#     Edge 59, Type (0, 0), BuildingBlock: XIVTED_clean_linker_0, # of connection points: 2
#     Edge 60, Type (0, 0), BuildingBlock: XIVTED_clean_linker_0, # of connection points: 2
#     Edge 61, Type (0, 0), BuildingBlock: XIVTED_clean_linker_0, # of connection points: 2
#     Edge 62, Type (0, 0), BuildingBlock: XIVTED_clean_linker_0, # of connection points: 2
#     Edge 63, Type (0, 0), BuildingBlock: XIVTED_clean_linker_0, # of connection points: 2
#     Edge 64, Type (0, 0), BuildingBlock: XIVTED_clean_linker_0, # of connection points: 2
#     Edge 65, Type (0, 0), BuildingBlock: XIVTED_clean_linker_0, # of connection points: 2
#     Edge 66, Type (0, 0), BuildingBlock: XIVTED_clean_linker_0, # of connection points: 2
#     Edge 67, Type (0, 0), BuildingBlock: XIVTED_clean_linker_0, # of connection points: 2
#     Edge 68, Type (0, 0), BuildingBlock: XIVTED_clean_linker_0, # of connection points: 2
#     Edge 69, Type (0, 0), BuildingBlock: XIVTED_clean_linker_0, # of connection points: 2
#     Edge 70, Type (0, 0), BuildingBlock: XIVTED_clean_linker_0, # of connection points: 2
#     Edge 71, Type (0, 0), BuildingBlock: XIVTED_clean_linker_0, # of connection points: 2
#     Edge 72, Type (0, 0), BuildingBlock: XIVTED_clean_linker_0, # of connection points: 2
#     Edge 73, Type (0, 0), BuildingBlock: XIVTED_clean_linker_0, # of connection points: 2
#     Edge 74, Type (0, 0), BuildingBlock: XIVTED_clean_linker_0, # of connection points: 2
#     Edge 75, Type (0, 0), BuildingBlock: XIVTED_clean_linker_0, # of connection points: 2
#     Edge 76, Type (0, 0), BuildingBlock: XIVTED_clean_linker_0, # of connection points: 2
#     Edge 77, Type (0, 0), BuildingBlock: XIVTED_clean_linker_0, # of connection points: 2
#     Edge 78, Type (0, 0), BuildingBlock: XIVTED_clean_linker_0, # of connection points: 2
#     Edge 79, Type (0, 0), BuildingBlock: XIVTED_clean_linker_0, # of connection points: 2
#     Edge 80, Type (0, 0), BuildingBlock: XIVTED_clean_linker_0, # of connection points: 2
#     Edge 81, Type (0, 0), BuildingBlock: XIVTED_clean_linker_0, # of connection points: 2
#     Edge 82, Type (0, 0), BuildingBlock: XIVTED_clean_linker_0, # of connection points: 2
#     Edge 83, Type (0, 0), BuildingBlock: XIVTED_clean_linker_0, # of connection points: 2
#     Edge 84, Type (0, 0), BuildingBlock: XIVTED_clean_linker_0, # of connection points: 2
#     Edge 85, Type (0, 0), BuildingBlock: XIVTED_clean_linker_0, # of connection points: 2
#     Edge 86, Type (0, 0), BuildingBlock: XIVTED_clean_linker_0, # of connection points: 2
#     Edge 87, Type (0, 0), BuildingBlock: XIVTED_clean_linker_0, # of connection points: 2
#     Edge 88, Type (0, 0), BuildingBlock: XIVTED_clean_linker_0, # of connection points: 2
#     Edge 89, Type (0, 0), BuildingBlock: XIVTED_clean_linker_0, # of connection points: 2
#     Edge 90, Type (0, 0), BuildingBlock: XIVTED_clean_linker_0, # of connection points: 2
#     Edge 91, Type (0, 0), BuildingBlock: XIVTED_clean_linker_0, # of connection points: 2
#     Edge 92, Type (0, 0), BuildingBlock: XIVTED_clean_linker_0, # of connection points: 2
#     Edge 93, Type (0, 0), BuildingBlock: XIVTED_clean_linker_0, # of connection points: 2
#     Edge 94, Type (0, 0), BuildingBlock: XIVTED_clean_linker_0, # of connection points: 2
#     Edge 95, Type (0, 0), BuildingBlock: XIVTED_clean_linker_0, # of connection points: 2
#     Edge 96, Type (0, 0), BuildingBlock: XIVTED_clean_linker_0, # of connection points: 2
#     Edge 97, Type (0, 0), BuildingBlock: XIVTED_clean_linker_0, # of connection points: 2
#     Edge 98, Type (0, 0), BuildingBlock: XIVTED_clean_linker_0, # of connection points: 2
#     Edge 99, Type (0, 0), BuildingBlock: XIVTED_clean_linker_0, # of connection points: 2
#     Edge 100, Type (0, 0), BuildingBlock: XIVTED_clean_linker_0, # of connection points: 2
#     Edge 101, Type (0, 0), BuildingBlock: XIVTED_clean_linker_0, # of connection points: 2
#     Edge 102, Type (0, 0), BuildingBlock: XIVTED_clean_linker_0, # of connection points: 2
#     Edge 103, Type (0, 0), BuildingBlock: XIVTED_clean_linker_0, # of connection points: 2
#     Edge 104, Type (0, 0), BuildingBlock: XIVTED_clean_linker_0, # of connection points: 2
#     Edge 105, Type (0, 0), BuildingBlock: XIVTED_clean_linker_0, # of connection points: 2
#     Edge 106, Type (0, 0), BuildingBlock: XIVTED_clean_linker_0, # of connection points: 2
#     Edge 107, Type (0, 0), BuildingBlock: XIVTED_clean_linker_0, # of connection points: 2
# Relax obj value: 0.059
# Max RMSD: 0.064
# Mean RMSD: 0.064
data_MOF--net-ato--node1-NAHDIM_clean_sbu_0--edge1-XIVTED_clean_linker_0
_symmetry_space_group_name_H-M    P1
_symmetry_Int_Tables_number       1
_symmetry_cell_setting            triclinic
loop_
_symmetry_equiv_pos_as_xyz
'x, y, z'
_cell_length_a     101.72228
_cell_length_b     101.78801
_cell_length_c     24.724177
_cell_angle_alpha  89.956357
_cell_angle_beta   89.986128
_cell_angle_gamma 120.00645
loop_
_atom_site_label
_atom_site_type_symbol
_atom_site_fract_x
_atom_site_fract_y
_atom_site_fract_z
_atom_type_partial_charge
C0 C 0.22115 0.03013 0.31534 0.0
O1 O 0.21049 0.02874 0.28186 0.0
O2 O 0.23232 0.0652 0.23037 0.0
Zn3 Zn 0.23937 0.04993 0.23224 0.0
O4 O 0.22868 0.03405 0.17567 0.0
C5 C 0.26693 0.07019 0.1783 0.0
O6 O 0.2576 0.0733 0.1519 0.0
O7 O 0.23496 0.03919 0.3035 0.0
C8 C 0.2241 0.03638 0.13088 0.0
O9 O 0.22611 0.0499 0.1201 0.0
C10 C 0.228 0.06951 0.27154 0.0
O11 O 0.22767 0.06358 0.31908 0.0
O12 O 0.26174 0.06047 0.21627 0.0
C13 C 0.96261 0.19067 0.32493 0.0
O14 O 0.95979 0.17828 0.29894 0.0
O15 O 0.92851 0.17129 0.24412 0.0
Zn16 Zn 0.94609 0.19252 0.23624 0.0
O17 O 0.96054 0.19397 0.17829 0.0
C18 C 0.92599 0.20164 0.19067 0.0
O19 O 0.91866 0.18734 0.17579 0.0
O20 O 0.95761 0.19893 0.3059 0.0
C21 C 0.95651 0.18993 0.12971 0.0
O22 O 0.94216 0.18407 0.11638 0.0
C23 C 0.9282 0.15931 0.22771 0.0
O24 O 0.9402 0.16029 0.20381 0.0
O25 O 0.93819 0.20658 0.21771 0.0
C26 C 0.79432 0.76328 0.3268 0.0
O27 O 0.80581 0.77334 0.2979 0.0
O28 O 0.81597 0.75104 0.24657 0.0
Zn29 Zn 0.79389 0.74478 0.24157 0.0
O30 O 0.79019 0.75605 0.18297 0.0
C31 C 0.78508 0.71341 0.24967 0.0
O32 O 0.79627 0.71883 0.28479 0.0
O33 O 0.78719 0.74958 0.31108 0.0
C34 C 0.79237 0.75451 0.13342 0.0
O35 O 0.79756 0.74546 0.11984 0.0
C36 C 0.82681 0.76295 0.22562 0.0
O37 O 0.82386 0.77221 0.19807 0.0
O38 O 0.78175 0.72246 0.2262 0.0
C39 C 0.0285 0.22342 0.655 0.0
O40 O 0.03046 0.21339 0.68189 0.0
O41 O 0.06385 0.23689 0.72729 0.0
Zn42 Zn 0.04704 0.24144 0.73985 0.0
O43 O 0.03288 0.22859 0.79877 0.0
C44 C 0.06867 0.26992 0.78595 0.0
O45 O 0.07541 0.26214 0.79772 0.0
O46 O 0.03486 0.237 0.67202 0.0
C47 C 0.03699 0.22877 0.84738 0.0
O48 O 0.05135 0.23733 0.86039 0.0
C49 C 0.0644 0.22542 0.74465 0.0
O50 O 0.05303 0.21502 0.77306 0.0
O51 O 0.05617 0.26346 0.76024 0.0
C52 C 0.76067 0.7974 0.65181 0.0
O53 O 0.77031 0.80958 0.67869 0.0
O54 O 0.74739 0.8173 0.73584 0.0
Zn55 Zn 0.74216 0.79551 0.73987 0.0
O56 O 0.75391 0.79231 0.79795 0.0
C57 C 0.71061 0.78596 0.73418 0.0
O58 O 0.71576 0.79744 0.70037 0.0
O59 O 0.74726 0.78932 0.66985 0.0
C60 C 0.75219 0.79429 0.84753 0.0
O61 O 0.74273 0.79899 0.86114 0.0
C62 C 0.75901 0.8285 0.75662 0.0
O63 O 0.76889 0.82623 0.78317 0.0
O64 O 0.7199 0.78264 0.75584 0.0
C65 C 0.19456 0.96478 0.64596 0.0
O66 O 0.18186 0.96104 0.67167 0.0
O67 O 0.17549 0.93137 0.72646 0.0
Zn68 Zn 0.19704 0.94847 0.73367 0.0
O69 O 0.19868 0.96259 0.79307 0.0
C70 C 0.20502 0.92707 0.77441 0.0
O71 O 0.19047 0.91972 0.78604 0.0
O72 O 0.20337 0.96041 0.66471 0.0
C73 C 0.1965 0.95849 0.84231 0.0
O74 O 0.19295 0.94456 0.85494 0.0
C75 C 0.16406 0.93135 0.74733 0.0
O76 O 0.16597 0.94327 0.77444 0.0
O77 O 0.21067 0.93986 0.75078 0.0
C78 C 0.76268 0.96242 0.66213 0.0
O79 O 0.77247 0.96017 0.68942 0.0
O80 O 0.74948 0.92777 0.73729 0.0
Zn81 Zn 0.74433 0.94428 0.74737 0.0
O82 O 0.75663 0.9586 0.80676 0.0
C83 C 0.71583 0.92221 0.7921 0.0
O84 O 0.72394 0.91589 0.80494 0.0
O85 O 0.74908 0.95638 0.67895 0.0
C86 C 0.75607 0.95451 0.85564 0.0
O87 O 0.74741 0.94016 0.86861 0.0
C88 C 0.76091 0.92756 0.75698 0.0
O89 O 0.77088 0.93913 0.78567 0.0
O90 O 0.72209 0.93467 0.76608 0.0
C91 C 0.03116 0.80264 0.66175 0.0
O92 O 0.03363 0.81454 0.69025 0.0
O93 O 0.06481 0.82239 0.74146 0.0
Zn94 Zn 0.0478 0.80084 0.7487 0.0
O95 O 0.03282 0.79863 0.80588 0.0
C96 C 0.06848 0.79331 0.79784 0.0
O97 O 0.07448 0.80748 0.8136 0.0
O98 O 0.03649 0.79443 0.67849 0.0
C99 C 0.03637 0.80285 0.8546 0.0
O100 O 0.05067 0.80945 0.86934 0.0
C101 C 0.06489 0.83416 0.75897 0.0
O102 O 0.05288 0.83281 0.78394 0.0
O103 O 0.05669 0.78763 0.76815 0.0
C104 C 0.20867 0.23373 0.67714 0.0
O105 O 0.20541 0.22589 0.72224 0.0
O106 O 0.17662 0.24519 0.72319 0.0
Zn107 Zn 0.19837 0.2514 0.7364 0.0
O108 O 0.20025 0.24212 0.80541 0.0
C109 C 0.2064 0.28014 0.78069 0.0
O110 O 0.19436 0.27149 0.81017 0.0
O111 O 0.20649 0.24497 0.67411 0.0
C112 C 0.21323 0.24791 0.82747 0.0
O113 O 0.2248 0.25961 0.80433 0.0
C114 C 0.16569 0.2327 0.74013 0.0
O115 O 0.16859 0.22322 0.76642 0.0
O116 O 0.21043 0.27404 0.74439 0.0
C117 C 0.96459 0.7733 0.33378 0.0
O118 O 0.96283 0.78362 0.30806 0.0
O119 O 0.92945 0.76046 0.25746 0.0
Zn120 Zn 0.94591 0.75528 0.24788 0.0
O121 O 0.9601 0.76716 0.18775 0.0
C122 C 0.94101 0.72663 0.20234 0.0
O123 O 0.95443 0.73486 0.18003 0.0
O124 O 0.95806 0.75982 0.31576 0.0
C125 C 0.9561 0.76556 0.13846 0.0
O126 O 0.94191 0.75601 0.12563 0.0
C127 C 0.92871 0.77128 0.23481 0.0
O128 O 0.93978 0.78068 0.20293 0.0
O129 O 0.93565 0.73297 0.23229 0.0
C130 C 0.24704 0.20302 0.35587 0.0
O131 O 0.25375 0.19489 0.35986 0.0
O132 O 0.24094 0.17759 0.23583 0.0
Zn133 Zn 0.24988 0.20016 0.24041 0.0
O134 O 0.24298 0.20771 0.17831 0.0
C135 C 0.27716 0.20695 0.18986 0.0
O136 O 0.26715 0.19747 0.15505 0.0
O137 O 0.24436 0.20646 0.3094 0.0
C138 C 0.22965 0.20132 0.15893 0.0
O139 O 0.21901 0.18862 0.18048 0.0
C140 C 0.23009 0.16782 0.26461 0.0
O141 O 0.22353 0.17228 0.30011 0.0
O142 O 0.27247 0.20997 0.23314 0.0
C143 C 0.79589 0.02863 0.33233 0.0
O144 O 0.80781 0.03037 0.30548 0.0
O145 O 0.8177 0.06251 0.25212 0.0
Zn146 Zn 0.79585 0.04618 0.24434 0.0
O147 O 0.79323 0.03123 0.18651 0.0
C148 C 0.78967 0.06798 0.19592 0.0
O149 O 0.80397 0.07384 0.1818 0.0
O150 O 0.78854 0.03475 0.31416 0.0
C151 C 0.79762 0.03507 0.13803 0.0
O152 O 0.80463 0.0495 0.12472 0.0
C153 C 0.82916 0.06186 0.23521 0.0
O154 O 0.8272 0.04946 0.21151 0.0
O155 O 0.78347 0.05594 0.22427 0.0
C156 C 0.8919 0.36004 0.65553 0.0
O157 O 0.88196 0.36196 0.62782 0.0
O158 O 0.90295 0.39362 0.57886 0.0
Zn159 Zn 0.91052 0.37885 0.57187 0.0
O160 O 0.90022 0.36445 0.51079 0.0
C161 C 0.94104 0.40438 0.56283 0.0
O162 O 0.93456 0.41206 0.57917 0.0
O163 O 0.90561 0.36658 0.63963 0.0
C164 C 0.9046 0.36816 0.46226 0.0
O165 O 0.91585 0.38187 0.45187 0.0
C166 C 0.8933 0.39415 0.54771 0.0
O167 O 0.88736 0.38437 0.50792 0.0
O168 O 0.93306 0.39005 0.55805 0.0
C169 C 0.63055 0.53007 0.6628 0.0
O170 O 0.62796 0.51808 0.63463 0.0
O171 O 0.59549 0.51045 0.58651 0.0
Zn172 Zn 0.61312 0.53165 0.5774 0.0
O173 O 0.62726 0.53258 0.51893 0.0
C174 C 0.59279 0.54034 0.53192 0.0
O175 O 0.58567 0.52595 0.51814 0.0
O176 O 0.62502 0.53813 0.64647 0.0
C177 C 0.62316 0.5286 0.47035 0.0
O178 O 0.60892 0.52337 0.4568 0.0
C179 C 0.5951 0.49845 0.56983 0.0
O180 O 0.60701 0.4994 0.54537 0.0
O181 O 0.60511 0.54565 0.55847 0.0
C182 C 0.46072 0.0968 0.66863 0.0
O183 O 0.47253 0.10697 0.64127 0.0
O184 O 0.4832 0.08542 0.59107 0.0
Zn185 Zn 0.46116 0.07909 0.5825 0.0
O186 O 0.45792 0.09078 0.52385 0.0
C187 C 0.4559 0.05105 0.53706 0.0
O188 O 0.47025 0.05962 0.52382 0.0
O189 O 0.4536 0.08322 0.65155 0.0
C190 C 0.46151 0.09057 0.4748 0.0
O191 O 0.46819 0.08284 0.4614 0.0
C192 C 0.49442 0.09722 0.5712 0.0
O193 O 0.49207 0.10678 0.54293 0.0
O194 O 0.44936 0.05684 0.56374 0.0
C195 C 0.69606 0.55939 -0.00628 0.0
O196 O 0.69713 0.54881 0.02052 0.0
O197 O 0.73131 0.57297 0.074 0.0
Zn198 Zn 0.71378 0.57664 0.08245 0.0
O199 O 0.69884 0.56316 0.1385 0.0
C200 C 0.73368 0.60426 0.13663 0.0
O201 O 0.73948 0.59595 0.15291 0.0
O202 O 0.70266 0.57283 0.01215 0.0
C203 C 0.70243 0.56109 0.18562 0.0
O204 O 0.71682 0.5675 0.19903 0.0
C205 C 0.73169 0.56086 0.08261 0.0
O206 O 0.71932 0.54851 0.09799 0.0
O207 O 0.72227 0.59842 0.10515 0.0
C208 C 0.4268 0.1298 -0.00384 0.0
O209 O 0.43656 0.14173 0.0239 0.0
O210 O 0.41421 0.1506 0.07818 0.0
Zn211 Zn 0.40822 0.12859 0.08277 0.0
O212 O 0.41953 0.12514 0.14198 0.0
C213 C 0.37682 0.11959 0.07378 0.0
O214 O 0.38224 0.13043 0.03726 0.0
O215 O 0.41324 0.12205 0.01316 0.0
C216 C 0.41774 0.12735 0.19128 0.0
O217 O 0.40836 0.13223 0.20382 0.0
C218 C 0.426 0.16144 0.09965 0.0
O219 O 0.43537 0.15855 0.12678 0.0
O220 O 0.38588 0.11643 0.09822 0.0
C221 C 0.85819 0.29251 0.98151 0.0
O222 O 0.84649 0.29059 0.01025 0.0
O223 O 0.83829 0.26167 0.07395 0.0
Zn224 Zn 0.86068 0.27612 0.0696 0.0
O225 O 0.86688 0.29175 0.12761 0.0
C226 C 0.88445 0.27004 0.10171 0.0
O227 O 0.89136 0.28431 0.11696 0.0
O228 O 0.86611 0.28689 -0.00156 0.0
C229 C 0.8616 0.28829 0.17526 0.0
O230 O 0.85175 0.27409 0.18684 0.0
C231 C 0.83175 0.25231 0.03573 0.0
O232 O 0.83977 0.25264 -0.00645 0.0
O233 O 0.87145 0.2643 0.07974 0.0
C234 C 0.43681 0.29875 0.01056 0.0
O235 O 0.44682 0.29612 0.03426 0.0
O236 O 0.42355 0.26431 0.0898 0.0
Zn237 Zn 0.41906 0.28123 0.09927 0.0
O238 O 0.43127 0.29535 0.15874 0.0
C239 C 0.38735 0.26108 0.08805 0.0
O240 O 0.39215 0.25674 0.04603 0.0
O241 O 0.42363 0.2932 0.03092 0.0
C242 C 0.42898 0.29123 0.20793 0.0
O243 O 0.4188 0.27715 0.21983 0.0
C244 C 0.43447 0.26345 0.1109 0.0
O245 O 0.44436 0.27458 0.14135 0.0
O246 O 0.39697 0.27188 0.11724 0.0
C247 C 0.69205 0.12879 -0.00595 0.0
O248 O 0.69533 0.14142 0.01928 0.0
O249 O 0.72664 0.14957 0.06579 0.0
Zn250 Zn 0.70979 0.12827 0.07942 0.0
O251 O 0.69601 0.12718 0.13914 0.0
C252 C 0.73114 0.11794 0.07467 0.0
O253 O 0.73699 0.12852 0.03727 0.0
O254 O 0.69728 0.12066 0.01234 0.0
C255 C 0.69941 0.12745 0.18867 0.0
O256 O 0.7127 0.12914 0.20161 0.0
C257 C 0.73005 0.16113 0.09484 0.0
O258 O 0.72199 0.15972 0.1382 0.0
O259 O 0.71899 0.11539 0.09825 0.0
C260 C 0.86599 0.5771 0.97485 0.0
O261 O 0.85701 0.58283 0.96944 0.0
O262 O 0.84537 0.58146 0.08434 0.0
Zn263 Zn 0.86704 0.58614 0.08571 0.0
O264 O 0.87156 0.57819 0.1532 0.0
C265 C 0.87765 0.61523 0.12654 0.0
O266 O 0.86643 0.6069 0.15978 0.0
O267 O 0.87171 0.57744 0.02083 0.0
C268 C 0.86205 0.56694 0.1811 0.0
O269 O 0.8478 0.55926 0.1657 0.0
C270 C 0.83389 0.56887 0.07118 0.0
O271 O 0.83571 0.55742 0.05742 0.0
O272 O 0.88041 0.60876 0.08785 0.0
C273 C 0.62533 0.09603 0.66619 0.0
O274 O 0.62371 0.10625 0.63912 0.0
O275 O 0.59192 0.08527 0.58936 0.0
Zn276 Zn 0.6075 0.07883 0.5793 0.0
O277 O 0.62261 0.0909 0.52177 0.0
C278 C 0.58389 0.05065 0.53724 0.0
O279 O 0.57757 0.05899 0.52874 0.0
O280 O 0.61899 0.08252 0.64848 0.0
C281 C 0.61914 0.09047 0.47225 0.0
O282 O 0.60489 0.08215 0.45741 0.0
C283 C 0.5921 0.09676 0.56842 0.0
O284 O 0.60352 0.10599 0.53747 0.0
O285 O 0.59694 0.05666 0.5591 0.0
C286 C 0.88603 0.52825 0.65818 0.0
O287 O 0.87646 0.52272 0.61756 0.0
O288 O 0.89644 0.49879 0.59334 0.0
Zn289 Zn 0.9038 0.52105 0.58801 0.0
O290 O 0.8946 0.52574 0.52443 0.0
C291 C 0.93174 0.53164 0.53174 0.0
O292 O 0.92228 0.52392 0.49256 0.0
O293 O 0.8986 0.52845 0.65534 0.0
C294 C 0.90033 0.53957 0.5108 0.0
O295 O 0.91181 0.55 0.53863 0.0
C296 C 0.88908 0.48947 0.5558 0.0
O297 O 0.88547 0.49433 0.51214 0.0
O298 O 0.92644 0.53203 0.57789 0.0
C299 C 0.46644 0.3654 0.68248 0.0
O300 O 0.47779 0.36722 0.65185 0.0
O301 O 0.48521 0.40013 0.60045 0.0
Zn302 Zn 0.46385 0.38248 0.59733 0.0
O303 O 0.46156 0.36772 0.53935 0.0
C304 C 0.45392 0.40195 0.55267 0.0
O305 O 0.46796 0.40902 0.53474 0.0
O306 O 0.45857 0.3713 0.66785 0.0
C307 C 0.46567 0.37158 0.49068 0.0
O308 O 0.47208 0.38596 0.477 0.0
C309 C 0.49689 0.39994 0.58321 0.0
O310 O 0.49542 0.38741 0.56232 0.0
O311 O 0.44942 0.39014 0.58163 0.0
C312 C 0.55568 0.69541 0.98304 0.0
O313 O 0.54587 0.69796 0.95736 0.0
O314 O 0.56764 0.72844 0.90211 0.0
Zn315 Zn 0.57317 0.71214 0.89393 0.0
O316 O 0.56093 0.69702 0.83646 0.0
C317 C 0.60125 0.73419 0.84667 0.0
O318 O 0.59279 0.74003 0.83269 0.0
O319 O 0.56896 0.70075 0.96374 0.0
C320 C 0.56127 0.70048 0.78693 0.0
O321 O 0.5695 0.71473 0.77199 0.0
C322 C 0.55636 0.72868 0.8811 0.0
O323 O 0.54665 0.71718 0.85155 0.0
O324 O 0.59537 0.72202 0.87435 0.0
C325 C 0.29153 0.85711 0.00554 0.0
O326 O 0.2897 0.84533 0.97762 0.0
O327 O 0.2574 0.83572 0.926 0.0
Zn328 Zn 0.27357 0.85762 0.91995 0.0
O329 O 0.28836 0.86092 0.86089 0.0
C330 C 0.26964 0.88243 0.88101 0.0
O331 O 0.28403 0.88872 0.86751 0.0
O332 O 0.28523 0.86445 0.98911 0.0
C333 C 0.28468 0.85899 0.81128 0.0
O334 O 0.2705 0.8542 0.79765 0.0
C335 C 0.25754 0.82464 0.90295 0.0
O336 O 0.26921 0.8271 0.87293 0.0
O337 O 0.26321 0.86958 0.90433 0.0
C338 C 0.12266 0.41331 0.027 0.0
O339 O 0.13537 0.4129 0.02625 0.0
O340 O 0.14518 0.41584 0.91597 0.0
Zn341 Zn 0.12289 0.40862 0.91189 0.0
O342 O 0.11887 0.42051 0.85673 0.0
C343 C 0.11634 0.37793 0.91053 0.0
O344 O 0.12784 0.38355 0.94438 0.0
O345 O 0.11539 0.41144 0.98326 0.0
C346 C 0.12376 0.42198 0.80861 0.0
O347 O 0.13167 0.41553 0.79462 0.0
C348 C 0.15592 0.42895 0.90319 0.0
O349 O 0.15281 0.43924 0.88529 0.0
O350 O 0.11186 0.3866 0.89131 0.0
C351 C 0.35917 0.89283 0.33096 0.0
O352 O 0.36156 0.8831 0.35792 0.0
O353 O 0.39261 0.90568 0.41208 0.0
Zn354 Zn 0.37612 0.91098 0.41856 0.0
O355 O 0.36125 0.89889 0.47654 0.0
C356 C 0.39851 0.94248 0.41632 0.0
O357 O 0.40505 0.93748 0.38281 0.0
O358 O 0.36469 0.90626 0.34884 0.0
C359 C 0.3649 0.90046 0.52617 0.0
O360 O 0.379 0.90998 0.54009 0.0
C361 C 0.39259 0.89427 0.43306 0.0
O362 O 0.38091 0.88459 0.46206 0.0
O363 O 0.38565 0.93315 0.43629 0.0
C364 C 0.09571 0.45554 0.34508 0.0
O365 O 0.10613 0.46373 0.38103 0.0
O366 O 0.08497 0.48602 0.38809 0.0
Zn367 Zn 0.07873 0.46469 0.40995 0.0
O368 O 0.09045 0.46396 0.47394 0.0
C369 C 0.05016 0.46071 0.44667 0.0
O370 O 0.05828 0.47551 0.45215 0.0
O371 O 0.08268 0.45432 0.34849 0.0
C372 C 0.08704 0.46467 0.52281 0.0
O373 O 0.07559 0.46678 0.53355 0.0
C374 C 0.09347 0.49768 0.41617 0.0
O375 O 0.09931 0.49613 0.46144 0.0
O376 O 0.05645 0.45351 0.42856 0.0
C377 C 0.5234 0.62827 0.31027 0.0
O378 O 0.51179 0.62663 0.33887 0.0
O379 O 0.50139 0.59344 0.38586 0.0
Zn380 Zn 0.52327 0.60953 0.39405 0.0
O381 O 0.52603 0.62392 0.45388 0.0
C382 C 0.54788 0.60532 0.43395 0.0
O383 O 0.554 0.61955 0.44926 0.0
O384 O 0.53048 0.62159 0.32566 0.0
C385 C 0.52384 0.62009 0.50337 0.0
O386 O 0.51927 0.60596 0.51684 0.0
C387 C 0.49013 0.59364 0.40726 0.0
O388 O 0.4924 0.60524 0.43723 0.0
O389 O 0.53519 0.59909 0.40953 0.0
C390 C 0.09067 0.6256 0.31532 0.0
O391 O 0.1004 0.62451 0.34726 0.0
O392 O 0.07961 0.594 0.40308 0.0
Zn393 Zn 0.07133 0.60817 0.3999 0.0
O394 O 0.08075 0.62397 0.45779 0.0
C395 C 0.0436 0.5913 0.45739 0.0
O396 O 0.05322 0.59422 0.4972 0.0
O397 O 0.07676 0.61905 0.32889 0.0
C398 C 0.08797 0.62281 0.49771 0.0
O399 O 0.08925 0.61065 0.50258 0.0
C400 C 0.0782 0.58567 0.3628 0.0
O401 O 0.0713 0.5865 0.31911 0.0
O402 O 0.04871 0.59625 0.41032 0.0
C403 C 0.35532 0.45771 0.32577 0.0
O404 O 0.35279 0.46614 0.35967 0.0
O405 O 0.39264 0.48481 0.39474 0.0
Zn406 Zn 0.37721 0.46286 0.40543 0.0
O407 O 0.3625 0.46006 0.4644 0.0
C408 C 0.38337 0.44018 0.45275 0.0
O409 O 0.36936 0.43385 0.47081 0.0
O410 O 0.36565 0.45459 0.33659 0.0
C411 C 0.36647 0.4639 0.51313 0.0
O412 O 0.38088 0.47012 0.52628 0.0
C413 C 0.39186 0.49614 0.41213 0.0
O414 O 0.37984 0.49396 0.43943 0.0
O415 O 0.38864 0.45215 0.42422 0.0
C416 C 0.52361 0.89317 0.31403 0.0
O417 O 0.5119 0.88319 0.34227 0.0
O418 O 0.50148 0.90516 0.39087 0.0
Zn419 Zn 0.52357 0.91157 0.39853 0.0
O420 O 0.52689 0.90024 0.45807 0.0
C421 C 0.5288 0.94085 0.43166 0.0
O422 O 0.51398 0.93324 0.43712 0.0
O423 O 0.53078 0.90687 0.32991 0.0
C424 C 0.52479 0.90206 0.50746 0.0
O425 O 0.51983 0.91135 0.52027 0.0
C426 C 0.49047 0.89406 0.4148 0.0
O427 O 0.49309 0.88523 0.44636 0.0
O428 O 0.5356 0.934 0.41503 0.0
C429 C 0.29664 0.4225 0.9797 0.0
O430 O 0.30081 0.41677 0.94011 0.0
O431 O 0.25804 0.42536 0.90932 0.0
Zn432 Zn 0.27449 0.42014 0.90229 0.0
O433 O 0.28931 0.43188 0.84342 0.0
C434 C 0.26978 0.39155 0.85722 0.0
O435 O 0.2832 0.39993 0.83507 0.0
O436 O 0.28558 0.42477 0.9726 0.0
C437 C 0.28541 0.43063 0.79409 0.0
O438 O 0.27106 0.42187 0.78115 0.0
C439 C 0.25731 0.43642 0.88882 0.0
O440 O 0.26846 0.44632 0.85833 0.0
O441 O 0.26429 0.39776 0.88719 0.0
C442 C 0.55668 0.85884 0.98779 0.0
O443 O 0.54701 0.84656 0.96146 0.0
O444 O 0.56966 0.83882 0.90309 0.0
Zn445 Zn 0.57512 0.86069 0.89914 0.0
O446 O 0.56365 0.86411 0.84047 0.0
C447 C 0.60656 0.86985 0.90595 0.0
O448 O 0.60118 0.85833 0.93967 0.0
O449 O 0.57002 0.86694 0.96914 0.0
C450 C 0.56523 0.86179 0.79108 0.0
O451 O 0.57434 0.85662 0.77811 0.0
C452 C 0.55808 0.82766 0.88193 0.0
O453 O 0.5483 0.83 0.85502 0.0
O454 O 0.59745 0.87335 0.88387 0.0
C455 C 0.12669 0.6925 0.98773 0.0
O456 O 0.13954 0.69561 0.96441 0.0
O457 O 0.14808 0.72672 0.91001 0.0
Zn458 Zn 0.12631 0.71046 0.90061 0.0
O459 O 0.12405 0.69683 0.83883 0.0
C460 C 0.11704 0.73268 0.90931 0.0
O461 O 0.12813 0.73842 0.94483 0.0
O462 O 0.11887 0.69788 0.96773 0.0
C463 C 0.12339 0.70074 0.7906 0.0
O464 O 0.12462 0.71403 0.78158 0.0
C465 C 0.15932 0.72696 0.88665 0.0
O466 O 0.15705 0.71581 0.85415 0.0
O467 O 0.11386 0.72037 0.88561 0.0
H468 H 0.22167 0.97831 0.59159 0.0
H469 H 0.19293 0.01237 0.35885 0.0
H470 H 0.17679 0.97293 0.58872 0.0
H471 H 0.24019 0.02666 0.38456 0.0
H472 H 0.18641 -0.00362 0.43937 0.0
H473 H 0.22828 0.99449 0.51143 0.0
C474 C 0.2132 0.98049 0.57402 0.0
C475 C 0.19866 0.97428 0.59687 0.0
C476 C 0.19822 0.00306 0.42748 0.0
C477 C 0.20614 0.99275 0.50529 0.0
C478 C 0.20194 0.01218 0.3815 0.0
C479 C 0.21713 0.02086 0.365 0.0
C480 C 0.20974 0.00251 0.45688 0.0
C481 C 0.22834 0.02018 0.39592 0.0
C482 C 0.21699 0.98978 0.52843 0.0
C483 C 0.18814 0.97752 0.57252 0.0
N484 N 0.22441 0.0111 0.44027 0.0
N485 N 0.19208 0.9865 0.52796 0.0
H486 H 0.02004 0.24057 0.59469 0.0
H487 H 0.97333 0.17467 0.3799 0.0
H488 H 0.01486 0.19585 0.60459 0.0
H489 H 0.97315 0.21699 0.38275 0.0
H490 H 0.98931 0.18261 0.46048 0.0
H491 H 0.00372 0.23255 0.5148 0.0
C492 C 0.01549 0.22907 0.58003 0.0
C493 C 0.01882 0.21886 0.60633 0.0
C494 C 0.98575 0.19015 0.44357 0.0
C495 C 0.00015 0.20963 0.51503 0.0
C496 C 0.97663 0.18563 0.39752 0.0
C497 C 0.97192 0.19519 0.37454 0.0
C498 C 0.99026 0.20438 0.46667 0.0
C499 C 0.97652 0.20925 0.39916 0.0
C500 C 0.00614 0.2245 0.53452 0.0
C501 C 0.01259 0.2041 0.58563 0.0
N502 N 0.98548 0.21345 0.44382 0.0
N503 N 0.00357 0.19994 0.54115 0.0
H504 H 0.76912 0.74621 0.38902 0.0
H505 H 0.78772 0.81311 0.5983 0.0
H506 H 0.80821 0.79114 0.37528 0.0
H507 H 0.74492 0.77105 0.59429 0.0
H508 H 0.79605 0.80479 0.51939 0.0
H509 H 0.76078 0.75458 0.46785 0.0
C510 C 0.77598 0.75782 0.40268 0.0
C511 C 0.78937 0.768 0.37551 0.0
C512 C 0.78482 0.7974 0.53568 0.0
C513 C 0.77989 0.77764 0.46557 0.0
C514 C 0.78006 0.80214 0.58075 0.0
C515 C 0.76561 0.79276 0.60291 0.0
C516 C 0.7751 0.78313 0.51286 0.0
C517 C 0.75615 0.77867 0.57846 0.0
C518 C 0.77118 0.7626 0.44755 0.0
C519 C 0.79779 0.78291 0.39493 0.0
N520 N 0.76109 0.77425 0.53485 0.0
N521 N 0.79292 0.78728 0.43883 0.0
H522 H 0.79018 0.97495 0.61135 0.0
H523 H 0.76997 0.01981 0.39148 0.0
H524 H 0.74643 0.97209 0.60218 0.0
H525 H 0.81041 0.01609 0.38593 0.0
H526 H 0.76174 0.0037 0.47212 0.0
H527 H 0.79834 0.99132 0.5318 0.0
C528 C 0.78228 0.97775 0.59258 0.0
C529 C 0.76759 0.97213 0.61342 0.0
C530 C 0.77241 0.00642 0.45321 0.0
C531 C 0.77689 0.99094 0.52236 0.0
C532 C 0.77714 0.01565 0.4073 0.0
C533 C 0.79089 0.01928 0.3819 0.0
C534 C 0.78155 0.00086 0.47401 0.0
C535 C 0.79971 0.01355 0.40409 0.0
C536 C 0.78694 0.9871 0.5471 0.0
C537 C 0.75784 0.97614 0.58738 0.0
N538 N 0.79489 0.00464 0.44888 0.0
N539 N 0.76268 0.98534 0.54324 0.0
H540 H 0.02035 0.81916 0.61116 0.0
H541 H 0.97295 0.7555 0.39032 0.0
H542 H 0.02071 0.77701 0.59972 0.0
H543 H 0.97861 0.80047 0.38709 0.0
H544 H 0.98951 0.7627 0.4694 0.0
H545 H 0.00425 0.81208 0.53105 0.0
C546 C 0.01707 0.80842 0.59173 0.0
C547 C 0.02186 0.79864 0.6122 0.0
C548 C 0.98714 0.77099 0.45134 0.0
C549 C 0.00337 0.79044 0.52055 0.0
C550 C 0.97765 0.76688 0.40629 0.0
C551 C 0.97439 0.77741 0.38209 0.0
C552 C 0.99334 0.7857 0.47252 0.0
C553 C 0.98083 0.79199 0.40442 0.0
C554 C 0.00789 0.80439 0.54593 0.0
C555 C 0.01728 0.78489 0.58527 0.0
N556 N 0.98998 0.7957 0.44846 0.0
N557 N 0.00823 0.78117 0.54091 0.0
H558 H 0.24692 0.19443 0.46124 0.0
H559 H 0.21428 0.24599 0.57562 0.0
H560 H 0.23597 0.22247 0.36143 0.0
H561 H 0.21709 0.21205 0.67178 0.0
H562 H 0.22424 0.23889 0.4983 0.0
H563 H 0.23803 0.20214 0.54067 0.0
C564 C 0.24271 0.20224 0.45605 0.0
C565 C 0.24215 0.20779 0.40464 0.0
C566 C 0.22267 0.23298 0.53629 0.0
C567 C 0.23202 0.21665 0.49509 0.0
C568 C 0.217 0.23705 0.58052 0.0
C569 C 0.2148 0.22957 0.63021 0.0
C570 C 0.22625 0.22139 0.54176 0.0
C571 C 0.21855 0.21807 0.63415 0.0
C572 C 0.2376 0.2066 0.50134 0.0
C573 C 0.23656 0.21786 0.40024 0.0
N574 N 0.22411 0.21433 0.59046 0.0
N575 N 0.23172 0.22196 0.44485 0.0
H576 H 0.90864 0.35095 0.71497 0.0
H577 H 0.84265 0.30432 0.92974 0.0
H578 H 0.86417 0.34641 0.70525 0.0
H579 H 0.88383 0.302 0.92053 0.0
H580 H 0.85074 0.32066 0.84987 0.0
H581 H 0.90023 0.33408 0.79339 0.0
C582 C 0.89712 0.34643 0.72939 0.0
C583 C 0.88708 0.35009 0.70354 0.0
C584 C 0.85798 0.31653 0.86522 0.0
C585 C 0.8774 0.33078 0.7932 0.0
C586 C 0.85337 0.30721 0.91083 0.0
C587 C 0.8626 0.30181 0.93187 0.0
C588 C 0.87196 0.32057 0.84074 0.0
C589 C 0.87636 0.30589 0.90565 0.0
C590 C 0.89231 0.33676 0.77404 0.0
C591 C 0.87227 0.34387 0.72389 0.0
N592 N 0.88065 0.31509 0.86159 0.0
N593 N 0.86789 0.33455 0.76762 0.0
H594 H 0.64188 0.51392 0.71279 0.0
H595 H 0.68844 0.57749 0.93517 0.0
H596 H 0.64101 0.55581 0.72426 0.0
H597 H 0.68254 0.53244 0.93924 0.0
H598 H 0.67246 0.57047 0.85443 0.0
H599 H 0.65806 0.52119 0.79272 0.0
C600 C 0.64508 0.52465 0.73215 0.0
C601 C 0.64008 0.53427 0.71183 0.0
C602 C 0.67467 0.56213 0.87303 0.0
C603 C 0.65867 0.5427 0.80329 0.0
C604 C 0.68383 0.56614 0.919 0.0
C605 C 0.68681 0.55552 0.94402 0.0
C606 C 0.66854 0.54743 0.85176 0.0
C607 C 0.68052 0.54098 0.92137 0.0
C608 C 0.65431 0.52879 0.77784 0.0
C609 C 0.64458 0.54803 0.73863 0.0
N610 N 0.67169 0.53737 0.87651 0.0
N611 N 0.65367 0.55186 0.78294 0.0
H612 H 0.4349 0.07966 0.72814 0.0
H613 H 0.45417 0.14516 0.94465 0.0
H614 H 0.47481 0.12417 0.72024 0.0
H615 H 0.41074 0.10389 0.93631 0.0
H616 H 0.46246 0.13704 0.86519 0.0
H617 H 0.42644 0.08767 0.80772 0.0
C618 C 0.44191 0.0911 0.74322 0.0
C619 C 0.45558 0.10127 0.7175 0.0
C620 C 0.4511 0.12978 0.88063 0.0
C621 C 0.44597 0.11049 0.8084 0.0
C622 C 0.44636 0.1344 0.92605 0.0
C623 C 0.43174 0.12519 0.94714 0.0
C624 C 0.44119 0.11579 0.85629 0.0
C625 C 0.4221 0.11136 0.92132 0.0
C626 C 0.43704 0.09568 0.78852 0.0
C627 C 0.46418 0.11596 0.7387 0.0
N628 N 0.42702 0.10706 0.87732 0.0
N629 N 0.45924 0.12012 0.78296 0.0
H630 H 0.48212 0.35297 0.72877 0.0
H631 H 0.41975 0.30862 0.95746 0.0
H632 H 0.44175 0.35639 0.74847 0.0
H633 H 0.46334 0.31102 0.95308 0.0
H634 H 0.42707 0.32513 0.8782 0.0
H635 H 0.47497 0.33674 0.80872 0.0
C636 C 0.47177 0.35034 0.74998 0.0
C637 C 0.46251 0.35603 0.7319 0.0
C638 C 0.43504 0.32206 0.89461 0.0
C639 C 0.45422 0.3374 0.82326 0.0
C640 C 0.43085 0.31259 0.93977 0.0
C641 C 0.44096 0.30845 0.96194 0.0
C642 C 0.44941 0.32735 0.87126 0.0
C643 C 0.4552 0.31395 0.93738 0.0
C644 C 0.4677 0.34108 0.79565 0.0
C645 C 0.44924 0.35227 0.76102 0.0
N646 N 0.45899 0.3231 0.89329 0.0
N647 N 0.44546 0.34313 0.80517 0.0
H648 H 0.68064 0.14448 0.94119 0.0
H649 H 0.63344 0.07862 0.72665 0.0
H650 H 0.68096 0.10222 0.93727 0.0
H651 H 0.63869 0.12337 0.71795 0.0
H652 H 0.64962 0.08643 0.807 0.0
H653 H 0.66411 0.13633 0.86213 0.0
C654 C 0.67724 0.13348 0.92368 0.0
C655 C 0.6822 0.12402 0.94582 0.0
C656 C 0.64722 0.09453 0.78748 0.0
C657 C 0.66322 0.1146 0.85537 0.0
C658 C 0.63796 0.09007 0.74171 0.0
C659 C 0.63474 0.10037 0.71552 0.0
C660 C 0.65322 0.10937 0.80728 0.0
C661 C 0.6409 0.11506 0.73675 0.0
C662 C 0.6678 0.12884 0.87849 0.0
C663 C 0.67743 0.10989 0.92143 0.0
N664 N 0.64984 0.11912 0.7814 0.0
N665 N 0.66817 0.10559 0.87752 0.0
H666 H 0.86216 0.53324 0.67108 0.0
H667 H 0.88642 0.56713 0.96927 0.0
H668 H 0.90201 0.5384 0.75265 0.0
H669 H 0.85254 0.57059 0.87504 0.0
H670 H 0.89106 0.55486 0.89277 0.0
H671 H 0.85713 0.54504 0.74832 0.0
C672 C 0.86982 0.53679 0.70531 0.0
C673 C 0.88254 0.53485 0.70539 0.0
C674 C 0.88263 0.55833 0.88879 0.0
C675 C 0.87685 0.54837 0.79381 0.0
C676 C 0.87996 0.56532 0.93247 0.0
C677 C 0.86908 0.56992 0.92849 0.0
C678 C 0.8743 0.55579 0.84089 0.0
C679 C 0.86106 0.56728 0.8798 0.0
C680 C 0.86697 0.54358 0.74929 0.0
C681 C 0.89209 0.53971 0.7508 0.0
N682 N 0.8638 0.56035 0.83791 0.0
N683 N 0.88904 0.54623 0.79321 0.0
H684 H 0.54865 0.63661 0.24789 0.0
H685 H 0.52906 0.68435 0.03894 0.0
H686 H 0.50949 0.64231 0.26244 0.0
H687 H 0.57175 0.68485 0.03922 0.0
H688 H 0.52124 0.66803 0.11867 0.0
H689 H 0.55679 0.65325 0.16871 0.0
C690 C 0.54175 0.64133 0.23438 0.0
C691 C 0.52837 0.63807 0.26181 0.0
C692 C 0.53234 0.67174 0.10141 0.0
C693 C 0.53761 0.6571 0.17135 0.0
C694 C 0.53681 0.68105 0.05584 0.0
C695 C 0.55108 0.68596 0.03236 0.0
C696 C 0.54216 0.66721 0.12353 0.0
C697 C 0.56066 0.68135 0.05606 0.0
C698 C 0.54643 0.65086 0.18929 0.0
C699 C 0.51989 0.64452 0.24259 0.0
N700 N 0.556 0.67217 0.10026 0.0
N701 N 0.52464 0.65371 0.1985 0.0
H702 H 0.34918 0.90894 0.27207 0.0
H703 H 0.30494 0.84285 0.05553 0.0
H704 H 0.34736 0.86566 0.27835 0.0
H705 H 0.30051 0.88281 0.06556 0.0
H706 H 0.32168 0.85167 0.13414 0.0
H707 H 0.33266 0.90028 0.19273 0.0
C708 C 0.34535 0.89764 0.25666 0.0
C709 C 0.34963 0.888 0.28191 0.0
C710 C 0.31702 0.85849 0.11922 0.0
C711 C 0.33072 0.87802 0.19127 0.0
C712 C 0.30746 0.85347 0.07432 0.0
C713 C 0.30131 0.86211 0.05398 0.0
C714 C 0.32053 0.8723 0.14378 0.0
C715 C 0.30497 0.87577 0.07998 0.0
C716 C 0.33588 0.89268 0.21149 0.0
C717 C 0.34431 0.87346 0.26025 0.0
N718 N 0.31438 0.88047 0.12346 0.0
N719 N 0.33514 0.86892 0.21615 0.0
H720 H 0.12157 0.454 0.331 0.0
H721 H 0.09605 0.41317 0.04391 0.0
H722 H 0.07776 0.43973 0.25924 0.0
H723 H 0.13765 0.42268 0.12372 0.0
H724 H 0.08877 0.42203 0.12393 0.0
H725 H 0.1274 0.44198 0.25665 0.0
C726 C 0.11316 0.44832 0.29965 0.0
C727 C 0.09919 0.44795 0.30112 0.0
C728 C 0.09944 0.42208 0.12414 0.0
C729 C 0.1058 0.43417 0.21593 0.0
C730 C 0.10361 0.41703 0.07844 0.0
C731 C 0.11754 0.41731 0.07698 0.0
C732 C 0.10931 0.42756 0.16862 0.0
C733 C 0.12683 0.42232 0.12301 0.0
C734 C 0.11648 0.44141 0.2573 0.0
C735 C 0.08869 0.44034 0.25962 0.0
N736 N 0.12261 0.42738 0.16683 0.0
N737 N 0.09225 0.43382 0.21853 0.0
H738 H 0.11908 0.63924 0.27087 0.0
H739 H 0.09931 0.68134 0.03904 0.0
H740 H 0.07434 0.6332 0.24696 0.0
H741 H 0.14156 0.681 0.04578 0.0
H742 H 0.09036 0.66465 0.11786 0.0
H743 H 0.12788 0.6554 0.19064 0.0
C744 C 0.11109 0.64127 0.24867 0.0
C745 C 0.09596 0.63488 0.26568 0.0
C746 C 0.10158 0.66821 0.10204 0.0
C747 C 0.10597 0.65342 0.17402 0.0
C748 C 0.10672 0.67778 0.05714 0.0
C749 C 0.12121 0.68257 0.0358 0.0
C750 C 0.11103 0.66347 0.12601 0.0
C751 C 0.1303 0.67757 0.06085 0.0
C752 C 0.11612 0.65049 0.20284 0.0
C753 C 0.0861 0.63788 0.23528 0.0
N754 N 0.12507 0.66831 0.10473 0.0
N755 N 0.0913 0.647 0.19104 0.0
H756 H 0.33133 0.46088 0.29402 0.0
H757 H 0.32086 0.41931 0.00962 0.0
H758 H 0.35872 0.44159 0.24357 0.0
H759 H 0.2915 0.43556 0.06759 0.0
H760 H 0.33495 0.42734 0.09475 0.0
H761 H 0.31671 0.4517 0.21073 0.0
C762 C 0.33428 0.45471 0.26542 0.0
C763 C 0.34629 0.45203 0.27572 0.0
C764 C 0.3254 0.4291 0.08884 0.0
C765 C 0.32958 0.44148 0.18014 0.0
C766 C 0.31735 0.42452 0.04026 0.0
C767 C 0.30502 0.42681 0.03141 0.0
C768 C 0.32109 0.43604 0.1287 0.0
C769 C 0.30096 0.43359 0.07257 0.0
C770 C 0.32589 0.44944 0.21787 0.0
C771 C 0.34955 0.44392 0.23725 0.0
N772 N 0.309 0.43801 0.11931 0.0
N773 N 0.34126 0.43896 0.19105 0.0
H774 H 0.54903 0.91008 0.2525 0.0
H775 H 0.52978 0.84318 0.04224 0.0
H776 H 0.5096 0.86536 0.26534 0.0
H777 H 0.57259 0.88523 0.04508 0.0
H778 H 0.52169 0.85153 0.12169 0.0
H779 H 0.55729 0.90166 0.17355 0.0
C780 C 0.54209 0.8985 0.23864 0.0
C781 C 0.52861 0.8884 0.26555 0.0
C782 C 0.53287 0.85891 0.10503 0.0
C783 C 0.53799 0.8787 0.17533 0.0
C784 C 0.5375 0.85416 0.05964 0.0
C785 C 0.55188 0.86353 0.03697 0.0
C786 C 0.54266 0.87319 0.12773 0.0
C787 C 0.56141 0.87763 0.06127 0.0
C788 C 0.54684 0.89369 0.19368 0.0
C789 C 0.52008 0.87352 0.24589 0.0
N790 N 0.55661 0.88206 0.10524 0.0
N791 N 0.52491 0.86913 0.20192 0.0
H792 H 0.20195 0.9875 0.82955 0.0
H793 H 0.21578 0.00659 0.14427 0.0
H794 H 0.19552 0.95453 0.95202 0.0
H795 H 0.21772 0.03841 0.02447 0.0
H796 H 0.20712 0.98704 0.07482 0.0
H797 H 0.20661 0.00598 0.90055 0.0
C798 C 0.20145 0.98412 0.8714 0.0
C799 C 0.19847 0.96948 0.8849 0.0
C800 C 0.20933 -0.00174 0.06372 0.0
C801 C 0.20382 0.99059 0.96632 0.0
C802 C 0.2143 0.00945 0.10337 0.0
C803 C 0.21762 0.0242 0.09002 0.0
C804 C 0.20776 0.00185 0.01017 0.0
C805 C 0.21536 0.0272 0.03649 0.0
C806 C 0.20408 0.99467 0.91191 0.0
C807 C 0.19785 0.9657 0.93976 0.0
N808 N 0.2107 0.01615 -0.00163 0.0
N809 N 0.20062 0.97623 0.97846 0.0
H810 H 0.9523 0.18419 0.02096 0.0
H811 H 0.04124 0.22823 0.95663 0.0
H812 H 0.98714 0.20245 0.14372 0.0
H813 H 0.00638 0.21043 0.83392 0.0
H814 H 0.0216 0.21642 0.02596 0.0
H815 H 0.97195 0.1913 0.95212 0.0
C816 C 0.96407 0.18958 0.0335 0.0
C817 C 0.96809 0.19288 0.08811 0.0
C818 C 0.01826 0.215 0.98383 0.0
C819 C 0.99064 0.2011 0.00955 0.0
C820 C 0.02948 0.22172 0.94422 0.0
C821 C 0.02544 0.22046 0.88944 0.0
C822 C 0.0029 0.20699 0.96853 0.0
C823 C 0.01002 0.21182 0.87571 0.0
C824 C 0.97529 0.19364 -0.00584 0.0
C825 C 0.98352 0.19981 0.10203 0.0
N826 N -0.00069 0.20552 0.91501 0.0
N827 N 0.99423 0.20379 0.06296 0.0
H828 H 0.77123 0.78292 0.83248 0.0
H829 H 0.78025 0.77289 0.14853 0.0
H830 H 0.75103 0.79671 0.95759 0.0
H831 H 0.79521 0.75376 0.02337 0.0
H832 H 0.7721 0.7843 0.07912 0.0
H833 H 0.7827 0.77484 0.90197 0.0
C834 C 0.76927 0.78434 0.87459 0.0
C835 C 0.76004 0.79039 0.88928 0.0
C836 C 0.77722 0.77766 0.06682 0.0
C837 C 0.77314 0.78113 0.969 0.0
C838 C 0.7819 0.77115 0.10643 0.0
C839 C 0.78831 0.76224 0.0917 0.0
C840 C 0.77898 0.77529 0.01203 0.0
C841 C 0.79024 0.76046 0.03654 0.0
C842 C 0.77582 0.7797 0.91423 0.0
C843 C 0.75798 0.79202 0.94444 0.0
N844 N 0.78552 0.76687 -0.00133 0.0
N845 N 0.76442 0.78734 0.98233 0.0
H846 H 0.75602 0.95019 0.96504 0.0
H847 H 0.80364 0.03903 0.02941 0.0
H848 H 0.77491 0.98504 0.84229 0.0
H849 H 0.78309 0.0043 0.15203 0.0
H850 H 0.79551 0.01927 0.96061 0.0
H851 H 0.76815 0.96972 0.03439 0.0
C852 C 0.76281 0.96193 0.95263 0.0
C853 C 0.76432 0.966 0.89781 0.0
C854 C 0.79287 0.01598 0.00261 0.0
C855 C 0.7782 0.98841 0.97694 0.0
C856 C 0.79752 0.02726 0.04193 0.0
C857 C 0.79391 0.02331 0.09649 0.0
C858 C 0.78453 0.00064 0.01797 0.0
C859 C 0.78602 0.00787 0.11038 0.0
C860 C 0.76972 0.97308 0.99226 0.0
C861 C 0.77332 0.98139 0.88409 0.0
N862 N 0.7815 -0.0029 0.07133 0.0
N863 N 0.77983 0.99204 0.92342 0.0
H864 H 0.00571 0.78877 0.8377 0.0
H865 H 0.98625 0.78599 0.15205 0.0
H866 H 0.03959 0.80925 0.96299 0.0
H867 H 0.9524 0.76289 0.02839 0.0
H868 H 0.0057 0.79703 0.0821 0.0
H869 H 0.98589 0.78162 0.90574 0.0
C870 C 0.009 0.79186 0.87949 0.0
C871 C 0.02434 0.7995 0.89478 0.0
C872 C 0.99401 0.78963 0.07019 0.0
C873 C 0.00168 0.79131 0.97286 0.0
C874 C 0.98288 0.78332 0.11013 0.0
C875 C 0.96769 0.77337 0.09607 0.0
C876 C 0.98995 0.78596 0.01574 0.0
C877 C 0.96399 0.77043 0.04108 0.0
C878 C -0.00234 0.78776 0.91832 0.0
C879 C 0.02791 0.80327 0.94943 0.0
N880 N 0.97507 0.77661 0.00291 0.0
N881 N 0.01666 0.79905 0.98656 0.0
H882 H 0.20281 0.19077 0.10336 0.0
H883 H 0.23917 0.25833 0.88685 0.0
H884 H 0.24928 0.22751 0.10674 0.0
H885 H 0.19223 0.22267 0.88254 0.0
H886 H 0.24276 0.24721 0.96879 0.0
H887 H 0.19834 0.2023 0.02358 0.0
C888 C 0.21205 0.20126 0.08746 0.0
C889 C 0.22645 0.20815 0.11166 0.0
C890 C 0.23165 0.24181 0.95005 0.0
C891 C 0.22143 0.22136 0.02065 0.0
C892 C 0.2296 0.24816 0.90318 0.0
C893 C 0.21539 0.2414 0.87773 0.0
C894 C 0.21942 0.22855 0.97167 0.0
C895 C 0.20339 0.22825 0.90085 0.0
C896 C 0.20949 0.20783 0.04197 0.0
C897 C 0.238 0.22175 0.08941 0.0
N898 N 0.20569 0.22222 0.94649 0.0
N899 N 0.23524 0.22787 0.04518 0.0
H900 H 0.91137 0.37191 0.35415 0.0
H901 H 0.85296 0.28513 0.28164 0.0
H902 H 0.88151 0.33879 0.4708 0.0
H903 H 0.88234 0.31847 0.16464 0.0
H904 H 0.86257 0.30487 0.35094 0.0
H905 H 0.90011 0.35271 0.28333 0.0
C906 C 0.90241 0.36062 0.36484 0.0
C907 C 0.89743 0.35693 0.4185 0.0
C908 C 0.86688 0.30787 0.31005 0.0
C909 C 0.88452 0.33489 0.33775 0.0
C910 C 0.86139 0.2966 0.27048 0.0
C911 C 0.8669 0.30014 0.21734 0.0
C912 C 0.87796 0.32277 0.29638 0.0
C913 C 0.8778 0.31521 0.20514 0.0
C914 C 0.89598 0.34966 0.3244 0.0
C915 C 0.88575 0.34213 0.43 0.0
N916 N 0.88301 0.32595 0.2444 0.0
N917 N 0.87974 0.33163 0.38999 0.0
H918 H 0.67171 0.54543 0.17 0.0
H919 H 0.65324 0.53807 0.48578 0.0
H920 H 0.70577 0.55858 0.2945 0.0
H921 H 0.61908 0.5238 0.36111 0.0
H922 H 0.67231 0.54329 0.41649 0.0
H923 H 0.65202 0.53497 0.23935 0.0
C924 C 0.67505 0.54599 0.21191 0.0
C925 C 0.69043 0.55307 0.22654 0.0
C926 C 0.66063 0.53891 0.40428 0.0
C927 C 0.66792 0.5412 0.30622 0.0
C928 C 0.64972 0.53594 0.44383 0.0
C929 C 0.63456 0.53065 0.42915 0.0
C930 C 0.65638 0.53664 0.34957 0.0
C931 C 0.63065 0.52798 0.37424 0.0
C932 C 0.66379 0.54002 0.25151 0.0
C933 C 0.69407 0.55333 0.28141 0.0
N934 N 0.64152 0.53113 0.33639 0.0
N935 N 0.6829 0.54763 0.31933 0.0
H936 H 0.41631 0.13018 0.30104 0.0
H937 H 0.46656 0.09176 0.36563 0.0
H938 H 0.43742 0.11667 0.17845 0.0
H939 H 0.44649 0.10633 0.48862 0.0
H940 H 0.45743 0.10244 0.29661 0.0
H941 H 0.42864 0.12305 0.37062 0.0
C942 C 0.42359 0.12579 0.28874 0.0
C943 C 0.42574 0.12391 0.23387 0.0
C944 C 0.45511 0.10339 0.33873 0.0
C945 C 0.43986 0.11569 0.3132 0.0
C946 C 0.46033 0.09729 0.37816 0.0
C947 C 0.45717 0.09803 0.43293 0.0
C948 C 0.44662 0.11022 0.35418 0.0
C949 C 0.4491 0.10541 0.44684 0.0
C950 C 0.43064 0.12172 0.32848 0.0
C951 C 0.43536 0.11822 0.22027 0.0
N952 N 0.44402 0.11112 0.40768 0.0
N953 N 0.44199 0.11424 0.25967 0.0
H954 H 0.42596 0.28686 0.31763 0.0
H955 H 0.47271 0.37558 0.38275 0.0
H956 H 0.44932 0.3215 0.19648 0.0
H957 H 0.45144 0.34084 0.50502 0.0
H958 H 0.46579 0.35583 0.31462 0.0
H959 H 0.43681 0.30633 0.3877 0.0
C960 C 0.43347 0.29853 0.30578 0.0
C961 C 0.43661 0.30257 0.25109 0.0
C962 C 0.46273 0.35253 0.35642 0.0
C963 C 0.44899 0.32493 0.33099 0.0
C964 C 0.46667 0.36381 0.39534 0.0
C965 C 0.46253 0.35986 0.44957 0.0
C966 C 0.45453 0.33719 0.37183 0.0
C967 C 0.45478 0.34442 0.4636 0.0
C968 C 0.43966 0.30965 0.34581 0.0
C969 C 0.44649 0.31787 0.23812 0.0
N970 N 0.45094 0.33365 0.42491 0.0
N971 N 0.45222 0.3285 0.27775 0.0
H972 H 0.67009 0.12094 0.17456 0.0
H973 H 0.64979 0.10672 0.48923 0.0
H974 H 0.70267 0.12745 0.29869 0.0
H975 H 0.61611 0.09227 0.36274 0.0
H976 H 0.66973 0.11798 0.42094 0.0
H977 H 0.65072 0.11408 0.24419 0.0
C978 C 0.67322 0.12105 0.2165 0.0
C979 C 0.688 0.12463 0.2308 0.0
C980 C 0.65798 0.11243 0.40815 0.0
C981 C 0.66585 0.11676 0.31064 0.0
C982 C 0.64657 0.10601 0.44711 0.0
C983 C 0.63124 0.0984 0.4316 0.0
C984 C 0.65405 0.11128 0.35327 0.0
C985 C 0.62777 0.09792 0.37648 0.0
C986 C 0.66213 0.1171 0.25621 0.0
C987 C 0.69139 0.12466 0.2858 0.0
N988 N 0.6391 0.1042 0.33924 0.0
N989 N 0.68037 0.12069 0.32372 0.0
H990 H 0.91282 0.56716 0.46093 0.0
H991 H 0.84595 0.54181 0.24507 0.0
H992 H 0.87436 0.52171 0.45337 0.0
H993 H 0.88967 0.58255 0.23046 0.0
H994 H 0.85489 0.53515 0.32693 0.0
H995 H 0.90314 0.57394 0.38174 0.0
C996 C 0.90231 0.55862 0.44272 0.0
C997 C 0.8944 0.54384 0.46363 0.0
C998 C 0.8625 0.54553 0.30567 0.0
C999 C 0.88325 0.55152 0.3731 0.0
C1000 C 0.85741 0.54936 0.25907 0.0
C1001 C 0.8671 0.56272 0.23079 0.0
C1002 C 0.87733 0.55522 0.32428 0.0
C1003 C 0.88183 0.57209 0.2508 0.0
C1004 C 0.89682 0.56248 0.39741 0.0
C1005 C 0.88085 0.53322 0.43835 0.0
N1006 N 0.88648 0.56817 0.29635 0.0
N1007 N 0.87568 0.53727 0.39439 0.0
H1008 H 0.53358 0.65019 0.48829 0.0
H1009 H 0.54466 0.66982 0.80381 0.0
H1010 H 0.52187 0.61654 0.61362 0.0
H1011 H 0.56011 0.70359 0.6773 0.0
H1012 H 0.53364 0.64995 0.73527 0.0
H1013 H 0.54076 0.66961 0.55756 0.0
C1014 C 0.53244 0.64685 0.53042 0.0
C1015 C 0.52724 0.63172 0.54519 0.0
C1016 C 0.53936 0.66171 0.72252 0.0
C1017 C 0.53547 0.65396 0.62477 0.0
C1018 C 0.54564 0.67307 0.76163 0.0
C1019 C 0.55345 0.68841 0.74622 0.0
C1020 C 0.54088 0.66569 0.66759 0.0
C1021 C 0.55429 0.69193 0.69101 0.0
C1022 C 0.53655 0.65797 0.56997 0.0
C1023 C 0.52591 0.62808 0.6004 0.0
N1024 N 0.54816 0.68065 0.65367 0.0
N1025 N 0.53008 0.63915 0.63823 0.0
H1026 H 0.31514 0.87072 0.82646 0.0
H1027 H 0.3345 0.88137 0.51058 0.0
H1028 H 0.28118 0.85669 0.70114 0.0
H1029 H 0.36838 0.90108 0.63622 0.0
H1030 H 0.31489 0.86951 0.57977 0.0
H1031 H 0.33477 0.87912 0.75711 0.0
C1032 C 0.31179 0.86931 0.78433 0.0
C1033 C 0.29649 0.8631 0.76955 0.0
C1034 C 0.32662 0.87637 0.59221 0.0
C1035 C 0.31895 0.87274 0.68997 0.0
C1036 C 0.33784 0.88314 0.55274 0.0
C1037 C 0.35311 0.89235 0.56767 0.0
C1038 C 0.33068 0.87879 0.64705 0.0
C1039 C 0.35675 0.89415 0.62289 0.0
C1040 C 0.32302 0.87414 0.74476 0.0
C1041 C 0.29284 0.8615 0.71436 0.0
N1042 N 0.3456 0.88749 0.66061 0.0
N1043 N 0.304 0.86636 0.67653 0.0
H1044 H 0.10699 0.43588 0.82424 0.0
H1045 H 0.11055 0.45903 0.51358 0.0
H1046 H 0.13242 0.42763 0.70231 0.0
H1047 H 0.08131 0.46278 0.63169 0.0
H1048 H 0.12135 0.45078 0.58488 0.0
H1049 H 0.10003 0.44879 0.7567 0.0
C1050 C 0.11118 0.43684 0.7833 0.0
C1051 C 0.12018 0.43053 0.76873 0.0
C1052 C 0.11265 0.45351 0.59529 0.0
C1053 C 0.11225 0.44532 0.69126 0.0
C1054 C 0.10649 0.45826 0.55462 0.0
C1055 C 0.09486 0.46143 0.56661 0.0
C1056 C 0.10715 0.4519 0.64835 0.0
C1057 C 0.09015 0.46034 0.62055 0.0
C1058 C 0.1072 0.44423 0.74477 0.0
C1059 C 0.12536 0.43222 0.7152 0.0
N1060 N 0.09623 0.45554 0.6594 0.0
N1061 N 0.12124 0.43939 0.67831 0.0
H1062 H 0.12215 0.67328 0.7943 0.0
H1063 H 0.08983 0.65052 0.49425 0.0
H1064 H 0.11709 0.70358 0.68506 0.0
H1065 H 0.1011 0.62279 0.59442 0.0
H1066 H 0.1 0.67017 0.56355 0.0
H1067 H 0.11486 0.65478 0.72135 0.0
C1068 C 0.11959 0.67608 0.75487 0.0
C1069 C 0.12013 0.68996 0.74583 0.0
C1070 C 0.10032 0.65982 0.5703 0.0
C1071 C 0.1117 0.6688 0.66228 0.0
C1072 C 0.09447 0.64857 0.5308 0.0
C1073 C 0.09454 0.63495 0.5387 0.0
C1074 C 0.1062 0.65742 0.61828 0.0
C1075 C 0.10079 0.63309 0.58671 0.0
C1076 C 0.11545 0.66552 0.71323 0.0
C1077 C 0.11678 0.69301 0.69388 0.0
N1078 N 0.10629 0.64418 0.62487 0.0
N1079 N 0.11259 0.68246 0.65416 0.0
H1080 H 0.28149 0.42906 0.68416 0.0
H1081 H 0.37054 0.4698 0.6219 0.0
H1082 H 0.31614 0.44804 0.80743 0.0
H1083 H 0.33584 0.45113 0.49873 0.0
H1084 H 0.35085 0.46351 0.69002 0.0
H1085 H 0.30132 0.43879 0.61505 0.0
C1086 C 0.29325 0.43538 0.6967 0.0
C1087 C 0.29715 0.43763 0.75167 0.0
C1088 C 0.34755 0.46086 0.64804 0.0
C1089 C 0.31992 0.44872 0.67283 0.0
C1090 C 0.3588 0.46444 0.60914 0.0
C1091 C 0.35483 0.46088 0.5546 0.0
C1092 C 0.33224 0.45365 0.63229 0.0
C1093 C 0.33943 0.454 0.54036 0.0
C1094 C 0.30458 0.44092 0.65721 0.0
C1095 C 0.3126 0.44596 0.76553 0.0
N1096 N 0.3287 0.45054 0.57899 0.0
N1097 N 0.32341 0.4511 0.72639 0.0
H1098 H 0.56583 0.85831 0.68138 0.0
H1099 H 0.52178 0.90316 0.61725 0.0
H1100 H 0.54717 0.87436 0.80451 0.0
H1101 H 0.53691 0.8836 0.49426 0.0
H1102 H 0.53004 0.89174 0.68661 0.0
H1103 H 0.55436 0.86653 0.61215 0.0
C1104 C 0.55925 0.86348 0.69387 0.0
C1105 C 0.55755 0.86575 0.74878 0.0
C1106 C 0.53146 0.88987 0.64443 0.0
C1107 C 0.54445 0.87525 0.66984 0.0
C1108 C 0.52675 0.8964 0.60482 0.0
C1109 C 0.52876 0.89443 0.5499 0.0
C1110 C 0.53829 0.88138 0.62898 0.0
C1111 C 0.53521 0.88549 0.53613 0.0
C1112 C 0.55269 0.86817 0.65434 0.0
C1113 C 0.54885 0.87245 0.76264 0.0
N1114 N 0.53984 0.87939 0.57541 0.0
N1115 N 0.54271 0.87706 0.72342 0.0
H1116 H 0.3621 0.09748 0.15035 0.0
H1117 H 0.28151 0.09141 0.09921 0.0
H1118 H 0.35444 0.12383 0.03056 0.0
H1119 H 0.28923 0.06577 0.22173 0.0
H1120 H 0.30814 0.10315 0.07281 0.0
H1121 H 0.33534 0.08534 0.17587 0.0
C1122 C 0.35478 0.10068 0.12925 0.0
C1123 C 0.36053 0.11171 0.08826 0.0
C1124 C 0.30402 0.09496 0.1055 0.0
C1125 C 0.32989 0.09789 0.11746 0.0
C1126 C 0.28881 0.08826 0.12066 0.0
C1127 C 0.28312 0.07759 0.16279 0.0
C1128 C 0.31365 0.09097 0.1326 0.0
C1129 C 0.29312 0.07395 0.18906 0.0
C1130 C 0.33951 0.09376 0.14393 0.0
C1131 C 0.35052 0.1154 0.06241 0.0
N1132 N 0.3079 0.08062 0.1735 0.0
N1133 N 0.3357 0.10852 0.07749 0.0
H1134 H 0.91138 0.27805 0.1526 0.0
H1135 H 0.90033 0.19458 0.13335 0.0
H1136 H 0.87314 0.2402 0.07536 0.0
H1137 H 0.93824 0.23188 0.21411 0.0
H1138 H 0.89065 0.21143 0.10955 0.0
H1139 H 0.92192 0.26165 0.17295 0.0
C1140 C 0.90523 0.26631 0.13972 0.0
C1141 C 0.89134 0.26048 0.11235 0.0
C1142 C 0.9011 0.21595 0.13244 0.0
C1143 C 0.90331 0.24165 0.13564 0.0
C1144 C 0.90663 0.20632 0.14609 0.0
C1145 C 0.9201 0.21181 0.17589 0.0
C1146 C 0.90908 0.23121 0.14868 0.0
C1147 C 0.92779 0.22715 0.19118 0.0
C1148 C 0.91125 0.25695 0.15142 0.0
C1149 C 0.88387 0.24518 0.09664 0.0
N1150 N 0.92216 0.23631 0.17744 0.0
N1151 N 0.88994 0.2363 0.10862 0.0
H1152 H 0.72564 0.62533 0.10747 0.0
H1153 H 0.79036 0.69125 0.2881 0.0
H1154 H 0.75732 0.61952 0.20656 0.0
H1155 H 0.76123 0.69839 0.17968 0.0
H1156 H 0.77736 0.66454 0.26232 0.0
H1157 H 0.73757 0.65178 0.13688 0.0
C1158 C 0.73508 0.6296 0.13546 0.0
C1159 C 0.74052 0.6202 0.15446 0.0
C1160 C 0.77378 0.67193 0.24423 0.0
C1161 C 0.7542 0.65043 0.18829 0.0
C1162 C 0.78119 0.68719 0.25901 0.0
C1163 C 0.77691 0.69709 0.23591 0.0
C1164 C 0.76197 0.66649 0.20609 0.0
C1165 C 0.76494 0.69118 0.19843 0.0
C1166 C 0.74189 0.6447 0.15221 0.0
C1167 C 0.75277 0.62634 0.19072 0.0
N1168 N 0.7579 0.67626 0.18462 0.0
N1169 N 0.7592 0.64106 0.20639 0.0
H1170 H 0.05849 0.28985 0.76565 0.0
H1171 H 0.12446 0.35695 0.93833 0.0
H1172 H 0.0942 0.28633 0.84675 0.0
H1173 H 0.09175 0.36236 0.84395 0.0
H1174 H 0.11275 0.33066 0.90818 0.0
H1175 H 0.06984 0.31612 0.79656 0.0
C1176 C 0.06872 0.29459 0.78991 0.0
C1177 C 0.07541 0.28587 0.80361 0.0
C1178 C 0.10812 0.33759 0.89406 0.0
C1179 C 0.08842 0.31589 0.83923 0.0
C1180 C 0.11478 0.3526 0.91137 0.0
C1181 C 0.10909 0.36188 0.8936 0.0
C1182 C 0.09563 0.33176 0.85883 0.0
C1183 C 0.09653 0.35562 0.85862 0.0
C1184 C 0.07519 0.30959 0.80752 0.0
C1185 C 0.08866 0.29262 0.83513 0.0
N1186 N 0.09023 0.34094 0.84238 0.0
N1187 N 0.0947 0.30721 0.85192 0.0
H1188 H 0.69604 0.76138 0.80166 0.0
H1189 H 0.61646 0.75916 0.78226 0.0
H1190 H 0.68816 0.79144 0.70096 0.0
H1191 H 0.62261 0.72612 0.87131 0.0
H1192 H 0.64287 0.7713 0.7534 0.0
H1193 H 0.66932 0.74838 0.82846 0.0
C1194 C 0.68869 0.76521 0.78501 0.0
C1195 C 0.69436 0.77754 0.74906 0.0
C1196 C 0.63846 0.76138 0.77919 0.0
C1197 C 0.6638 0.76276 0.77979 0.0
C1198 C 0.62336 0.75445 0.79582 0.0
C1199 C 0.6173 0.74161 0.82934 0.0
C1200 C 0.64764 0.75548 0.7963 0.0
C1201 C 0.62681 0.73601 0.84547 0.0
C1202 C 0.67343 0.75778 0.80036 0.0
C1203 C 0.6843 0.782 0.72878 0.0
N1204 N 0.64153 0.743 0.82888 0.0
N1205 N 0.66954 0.77465 0.74458 0.0
H1206 H 0.19637 0.90046 0.82744 0.0
H1207 H 0.27919 0.90943 0.8278 0.0
H1208 H 0.23564 0.93902 0.75766 0.0
H1209 H 0.23964 0.87207 0.9015 0.0
H1210 H 0.26371 0.92067 0.80193 0.0
H1211 H 0.21229 0.89001 0.85448 0.0
C1212 C 0.20836 0.90674 0.81771 0.0
C1213 C 0.21467 0.92064 0.79018 0.0
C1214 C 0.25845 0.91003 0.82389 0.0
C1215 C 0.23304 0.90871 0.82123 0.0
C1216 C 0.26728 0.90362 0.83873 0.0
C1217 C 0.2607 0.88977 0.86681 0.0
C1218 C 0.24294 0.90252 0.83715 0.0
C1219 C 0.24521 0.88275 0.87985 0.0
C1220 C 0.21746 0.90076 0.83327 0.0
C1221 C 0.23029 0.92826 0.77879 0.0
N1222 N 0.23688 0.88918 0.86482 0.0
N1223 N 0.23895 0.92218 0.79435 0.0
H1224 H 0.69506 0.93113 0.7685 0.0
H1225 H 0.62864 0.86393 0.94012 0.0
H1226 H 0.69999 0.89688 0.85434 0.0
H1227 H 0.62163 0.89452 0.83913 0.0
H1228 H 0.65529 0.877 0.91338 0.0
H1229 H 0.66852 0.91887 0.79771 0.0
C1230 C 0.69057 0.92104 0.79346 0.0
C1231 C 0.69975 0.915 0.80891 0.0
C1232 C 0.64794 0.88088 0.8971 0.0
C1233 C 0.66946 0.90098 0.8426 0.0
C1234 C 0.63271 0.87344 0.91248 0.0
C1235 C 0.62287 0.87811 0.89174 0.0
C1236 C 0.65341 0.89312 0.8608 0.0
C1237 C 0.62881 0.89051 0.85603 0.0
C1238 C 0.67542 0.91405 0.8101 0.0
C1239 C 0.69334 0.90192 0.84131 0.0
N1240 N 0.6437 0.89758 0.84164 0.0
N1241 N 0.67861 0.89537 0.85709 0.0
H1242 H 0.09239 0.80172 0.86641 0.0
H1243 H 0.0934 0.72395 0.83832 0.0
H1244 H 0.06015 0.76407 0.76937 0.0
H1245 H 0.12241 0.76019 0.94683 0.0
H1246 H 0.08109 0.73836 0.81198 0.0
H1247 H 0.10365 0.78664 0.89523 0.0
C1248 C 0.08767 0.79027 0.85109 0.0
C1249 C 0.07531 0.78416 0.81531 0.0
C1250 C 0.09011 0.74312 0.8417 0.0
C1251 C 0.08819 0.76679 0.84829 0.0
C1252 C 0.09714 0.7349 0.8568 0.0
C1253 C 0.10898 0.74089 0.89479 0.0
C1254 C 0.09499 0.75746 0.86458 0.0
C1255 C 0.11334 0.75513 0.91738 0.0
C1256 C 0.0941 0.78164 0.86771 0.0
C1257 C 0.06967 0.76924 0.79698 0.0
N1258 N 0.10639 0.76294 0.90177 0.0
N1259 N 0.07618 0.76106 0.81359 0.0
H1260 H 0.20026 0.29687 0.85209 0.0
H1261 H 0.27696 0.37468 0.7897 0.0
H1262 H 0.23329 0.30092 0.73361 0.0
H1263 H 0.24208 0.37094 0.89878 0.0
H1264 H 0.26151 0.34757 0.7702 0.0
H1265 H 0.21575 0.32395 0.87087 0.0
C1266 C 0.21076 0.30346 0.82993 0.0
C1267 C 0.21548 0.29661 0.79123 0.0
C1268 C 0.25725 0.35269 0.79841 0.0
C1269 C 0.23333 0.32764 0.81271 0.0
C1270 C 0.26608 0.36816 0.80967 0.0
C1271 C 0.26081 0.3751 0.84593 0.0
C1272 C 0.24307 0.34409 0.82371 0.0
C1273 C 0.24661 0.36609 0.87052 0.0
C1274 C 0.21961 0.31893 0.84069 0.0
C1275 C 0.22919 0.30573 0.76374 0.0
N1276 N 0.23825 0.35106 0.85896 0.0
N1277 N 0.23765 0.32077 0.77511 0.0
H1278 H 0.91379 0.7063 0.24738 0.0
H1279 H 0.90349 0.63565 0.07236 0.0
H1280 H 0.94726 0.70947 0.13254 0.0
H1281 H 0.87339 0.63242 0.20138 0.0
H1282 H 0.9192 0.66287 0.09036 0.0
H1283 H 0.89843 0.67932 0.22791 0.0
C1284 C 0.91794 0.70132 0.21809 0.0
C1285 C 0.93185 0.71017 0.19156 0.0
C1286 C 0.90915 0.65618 0.11467 0.0
C1287 C 0.91423 0.6792 0.16889 0.0
C1288 C 0.90016 0.64066 0.10433 0.0
C1289 C 0.88711 0.63174 0.13546 0.0
C1290 C 0.90501 0.66281 0.15624 0.0
C1291 C 0.88335 0.63883 0.17642 0.0
C1292 C 0.90914 0.68588 0.20699 0.0
C1293 C 0.93662 0.70306 0.15402 0.0
N1294 N 0.89225 0.65392 0.18556 0.0
N1295 N 0.92779 0.68798 0.14368 0.0
H1296 H 0.36378 0.2379 0.03349 0.0
H1297 H 0.3009 0.22866 0.24901 0.0
H1298 H 0.37384 0.26595 0.17564 0.0
H1299 H 0.29071 0.2027 0.10145 0.0
H1300 H 0.32781 0.24184 0.22467 0.0
H1301 H 0.33702 0.22441 0.05918 0.0
C1302 C 0.36036 0.24125 0.07006 0.0
C1303 C 0.37107 0.25308 0.10243 0.0
C1304 C 0.31968 0.23324 0.19768 0.0
C1305 C 0.34044 0.23763 0.13223 0.0
C1306 C 0.30432 0.22568 0.21162 0.0
C1307 C 0.29354 0.21458 0.17715 0.0
C1308 C 0.32428 0.22965 0.14898 0.0
C1309 C 0.29862 0.2112 0.1292 0.0
C1310 C 0.34507 0.23352 0.08474 0.0
C1311 C 0.36598 0.25691 0.14941 0.0
N1312 N 0.31362 0.21872 0.11652 0.0
N1313 N 0.35103 0.2492 0.16293 0.0
H1314 H 0.72191 0.09484 0.14852 0.0
H1315 H 0.79904 0.09224 0.12819 0.0
H1316 H 0.75853 0.12249 0.03885 0.0
H1317 H 0.76037 0.06012 0.22184 0.0
H1318 H 0.78451 0.10393 0.09751 0.0
H1319 H 0.73589 0.08231 0.17782 0.0
C1320 C 0.73286 0.09824 0.13044 0.0
C1321 C 0.73907 0.10975 0.0912 0.0
C1322 C 0.77918 0.09431 0.12471 0.0
C1323 C 0.75514 0.09553 0.12479 0.0
C1324 C 0.78749 0.08764 0.1424 0.0
C1325 C 0.78092 0.07518 0.1777 0.0
C1326 C 0.76418 0.08854 0.14259 0.0
C1327 C 0.76588 0.06971 0.19461 0.0
C1328 C 0.74082 0.09108 0.1472 0.0
C1329 C 0.75329 0.11368 0.06919 0.0
N1330 N 0.75802 0.07645 0.17698 0.0
N1331 N 0.76086 0.10663 0.08644 0.0
H1332 H 0.0334 0.4727 0.4871 0.0
H1333 H 0.95788 0.39213 0.52473 0.0
H1334 H 0.03025 0.43005 0.44501 0.0
H1335 H 0.96115 0.43491 0.56546 0.0
H1336 H 0.98446 0.40574 0.49652 0.0
H1337 H 0.00697 0.45898 0.51653 0.0
C1338 C 0.02715 0.46044 0.48395 0.0
C1339 C 0.03406 0.45251 0.46352 0.0
C1340 C 0.97937 0.41215 0.51172 0.0
C1341 C 0.00376 0.43671 0.49735 0.0
C1342 C 0.96419 0.40438 0.52793 0.0
C1343 C 0.95726 0.41239 0.54748 0.0
C1344 C 0.98769 0.42805 0.51502 0.0
C1345 C 0.96601 0.42826 0.55066 0.0
C1346 C 0.01204 0.45261 0.50084 0.0
C1347 C 0.02538 0.43663 0.46044 0.0
N1348 N 0.98075 0.43556 0.53451 0.0
N1349 N 0.01069 0.42925 0.47721 0.0
H1350 H 0.56707 0.53236 0.47386 0.0
H1351 H 0.57448 0.61439 0.48926 0.0
H1352 H 0.6041 0.57057 0.55442 0.0
H1353 H 0.53807 0.57574 0.40828 0.0
H1354 H 0.58588 0.59888 0.51241 0.0
H1355 H 0.55661 0.54841 0.44865 0.0
C1356 C 0.57302 0.54414 0.48628 0.0
C1357 C 0.58648 0.55011 0.51641 0.0
C1358 C 0.57542 0.59382 0.48946 0.0
C1359 C 0.57452 0.56862 0.48755 0.0
C1360 C 0.56891 0.60267 0.47618 0.0
C1361 C 0.55528 0.59635 0.44685 0.0
C1362 C 0.56823 0.57855 0.47332 0.0
C1363 C 0.54857 0.5811 0.43101 0.0
C1364 C 0.56703 0.55332 0.4718 0.0
C1365 C 0.59369 0.56548 0.53123 0.0
N1366 N 0.55509 0.57274 0.44452 0.0
N1367 N 0.5876 0.57421 0.5167 0.0
H1368 H 0.46621 0.03597 0.47454 0.0
H1369 H 0.38817 0.95679 0.48354 0.0
H1370 H 0.42628 0.02967 0.55892 0.0
H1371 H 0.42692 0.96489 0.38711 0.0
H1372 H 0.40194 0.98326 0.51298 0.0
H1373 H 0.45206 0.00971 0.44413 0.0
C1374 C 0.45446 0.02906 0.48679 0.0
C1375 C 0.44743 0.03504 0.51938 0.0
C1376 C 0.4074 0.97925 0.48525 0.0
C1377 C 0.43112 0.0049 0.48451 0.0
C1378 C 0.39955 0.96414 0.46839 0.0
C1379 C 0.40641 0.9586 0.43283 0.0
C1380 C 0.42225 0.98887 0.4666 0.0
C1381 C 0.42117 0.96865 0.41454 0.0
C1382 C 0.44637 0.01405 0.46927 0.0
C1383 C 0.43216 0.02553 0.53385 0.0
N1384 N 0.42861 0.98327 0.43176 0.0
N1385 N 0.42452 0.01091 0.51635 0.0
H1386 H 0.55453 0.03358 0.50373 0.0
H1387 H 0.55965 0.9592 0.44222 0.0
H1388 H 0.59496 0.03096 0.53395 0.0
H1389 H 0.51748 0.95957 0.45343 0.0
H1390 H 0.57338 0.98607 0.46758 0.0
H1391 H 0.54134 0.00697 0.47691 0.0
C1392 C 0.56065 0.02741 0.5047 0.0
C1393 C 0.57587 0.0345 0.52122 0.0
C1394 C 0.56112 0.98024 0.46448 0.0
C1395 C 0.56082 0.00401 0.49029 0.0
C1396 C 0.55329 0.96493 0.44983 0.0
C1397 C 0.5374 0.95713 0.44576 0.0
C1398 C 0.553 0.9878 0.47457 0.0
C1399 C 0.52973 0.96511 0.45623 0.0
C1400 C 0.55309 0.0122 0.48949 0.0
C1401 C 0.58321 0.02592 0.52169 0.0
N1402 N 0.5376 0.98 0.47 0.0
N1403 N 0.57562 0.01111 0.50628 0.0
H1404 H 0.95462 0.54631 0.60551 0.0
H1405 H 0.02054 0.58025 0.383 0.0
H1406 H 0.94652 0.53644 0.43499 0.0
H1407 H 0.02901 0.58203 0.5547 0.0
H1408 H 0.99327 0.56548 0.40101 0.0
H1409 H 0.98188 0.56072 0.58746 0.0
C1410 C 0.95857 0.54716 0.56428 0.0
C1411 C 0.94827 0.54016 0.52169 0.0
C1412 C 0.00111 0.56908 0.43471 0.0
C1413 C 0.97946 0.5567 0.50073 0.0
C1414 C 0.01667 0.57755 0.42448 0.0
C1415 C 0.02708 0.58238 0.46742 0.0
C1416 C -0.0041 0.56553 0.48829 0.0
C1417 C 0.02141 0.57852 0.52034 0.0
C1418 C 0.97414 0.55537 0.55402 0.0
C1419 C 0.95405 0.54162 0.46908 0.0
N1420 N 0.00621 0.57036 0.52928 0.0
N1421 N 0.96925 0.54978 0.46006 0.0
H1422 H 0.37647 0.41523 0.51536 0.0
H1423 H 0.46003 0.42654 0.49049 0.0
H1424 H 0.41284 0.45086 0.42272 0.0
H1425 H 0.42401 0.39008 0.58148 0.0
H1426 H 0.44269 0.43551 0.46564 0.0
H1427 H 0.39346 0.40563 0.54 0.0
C1428 C 0.388 0.42101 0.50008 0.0
C1429 C 0.39324 0.43388 0.46696 0.0
C1430 C 0.43855 0.42554 0.49105 0.0
C1431 C 0.41272 0.423 0.49512 0.0
C1432 C 0.44847 0.42042 0.50533 0.0
C1433 C 0.44348 0.40754 0.53816 0.0
C1434 C 0.42349 0.41775 0.5097 0.0
C1435 C 0.42834 0.40007 0.55611 0.0
C1436 C 0.39769 0.41553 0.51421 0.0
C1437 C 0.40829 0.44091 0.44838 0.0
N1438 N 0.41888 0.40529 0.54164 0.0
N1439 N 0.41748 0.4354 0.46277 0.0
H1440 H 0.23039 0.08603 0.18112 0.0
H1441 H 0.21412 0.14511 0.33814 0.0
H1442 H 0.21838 0.08174 0.35036 0.0
H1443 H 0.23713 0.15405 0.1843 0.0
H1444 H 0.2105 0.11942 0.33674 0.0
H1445 H 0.2277 0.10849 0.17557 0.0
C1446 C 0.22705 0.08972 0.21704 0.0
C1447 C 0.22482 0.08211 0.26651 0.0
C1448 C 0.2162 0.12698 0.3031 0.0
C1449 C 0.22174 0.10785 0.26035 0.0
C1450 C 0.21821 0.1416 0.30374 0.0
C1451 C 0.2261 0.15177 0.26158 0.0
C1452 C 0.22199 0.12251 0.25974 0.0
C1453 C 0.23115 0.14664 0.21798 0.0
C1454 C 0.22554 0.10256 0.21383 0.0
C1455 C 0.22038 0.08736 0.31156 0.0
N1456 N 0.22909 0.1324 0.21835 0.0
N1457 N 0.21909 0.09999 0.30752 0.0
H1458 H 0.85613 0.06585 0.19528 0.0
H1459 H 0.90212 0.15341 0.27952 0.0
H1460 H 0.83695 0.08883 0.28399 0.0
H1461 H 0.92226 0.13148 0.19009 0.0
H1462 H 0.8786 0.12924 0.28606 0.0
H1463 H 0.88089 0.08915 0.19756 0.0
C1464 C 0.85714 0.07574 0.21555 0.0
C1465 C 0.84443 0.07541 0.23918 0.0
C1466 C 0.88816 0.12966 0.26516 0.0
C1467 C 0.87266 0.10206 0.24179 0.0
C1468 C 0.90162 0.14349 0.26138 0.0
C1469 C 0.91417 0.1445 0.23392 0.0
C1470 C 0.88716 0.11669 0.24114 0.0
C1471 C 0.91285 0.13123 0.21149 0.0
C1472 C 0.87127 0.08904 0.21676 0.0
C1473 C 0.8464 0.08856 0.26495 0.0
N1474 N 0.89954 0.11786 0.21533 0.0
N1475 N 0.86022 0.10134 0.26533 0.0
H1476 H 0.90487 0.75488 0.30276 0.0
H1477 H 0.85262 0.78529 0.17679 0.0
H1478 H 0.92061 0.78961 0.17965 0.0
H1479 H 0.83686 0.74761 0.2878 0.0
H1480 H 0.87835 0.78918 0.18425 0.0
H1481 H 0.88076 0.75444 0.30542 0.0
C1482 C 0.9033 0.7625 0.27649 0.0
C1483 C 0.91473 0.77218 0.24047 0.0
C1484 C 0.86926 0.78012 0.20714 0.0
C1485 C 0.88701 0.77165 0.24307 0.0
C1486 C 0.85458 0.7779 0.20294 0.0
C1487 C 0.84255 0.76603 0.23139 0.0
C1488 C 0.87189 0.77044 0.24018 0.0
C1489 C 0.84574 0.75682 0.26477 0.0
C1490 C 0.88949 0.76223 0.27799 0.0
C1491 C 0.91208 0.78191 0.20782 0.0
N1492 N 0.86007 0.7592 0.26807 0.0
N1493 N 0.89842 0.78131 0.20955 0.0
H1494 H 0.08861 0.24369 0.68075 0.0
H1495 H 0.13962 0.20922 0.78333 0.0
H1496 H 0.07194 0.20529 0.78884 0.0
H1497 H 0.15586 0.24898 0.68228 0.0
H1498 H 0.11398 0.20563 0.77796 0.0
H1499 H 0.11246 0.24374 0.67277 0.0
C1500 C 0.08993 0.23519 0.70261 0.0
C1501 C 0.07831 0.22456 0.73601 0.0
C1502 C 0.12315 0.21506 0.75665 0.0
C1503 C 0.10572 0.22462 0.72727 0.0
C1504 C 0.13778 0.21711 0.75962 0.0
C1505 C 0.14993 0.22951 0.73366 0.0
C1506 C 0.1207 0.22548 0.72744 0.0
C1507 C 0.14688 0.23934 0.70339 0.0
C1508 C 0.10358 0.23523 0.69802 0.0
C1509 C 0.08063 0.21374 0.76289 0.0
N1510 N 0.1326 0.23716 0.7014 0.0
N1511 N 0.09415 0.21413 0.75833 0.0
H1512 H 0.78086 0.85493 0.80362 0.0
H1513 H 0.7432 0.90262 0.69542 0.0
H1514 H 0.74156 0.83704 0.69956 0.0
H1515 H 0.78149 0.92113 0.80435 0.0
H1516 H 0.74406 0.8792 0.69066 0.0
H1517 H 0.78281 0.87989 0.799 0.0
C1518 C 0.77271 0.85626 0.77957 0.0
C1519 C 0.76096 0.84385 0.75226 0.0
C1520 C 0.75234 0.88839 0.71544 0.0
C1521 C 0.76312 0.87231 0.74681 0.0
C1522 C 0.75186 0.9018 0.71815 0.0
C1523 C 0.76222 0.91382 0.7507 0.0
C1524 C 0.76321 0.88691 0.74567 0.0
C1525 C 0.77325 0.91212 0.77892 0.0
C1526 C 0.77382 0.8705 0.77699 0.0
C1527 C 0.75073 0.84624 0.72161 0.0
N1528 N 0.77339 0.89885 0.77607 0.0
N1529 N 0.75202 0.86015 0.71992 0.0
H1530 H 0.15631 0.9051 0.69314 0.0
H1531 H 0.07043 0.86164 0.79889 0.0
H1532 H 0.13733 0.92632 0.7929 0.0
H1533 H 0.09092 0.84077 0.70528 0.0
H1534 H 0.0941 0.88598 0.79179 0.0
H1535 H 0.13165 0.88199 0.69156 0.0
C1536 C 0.14693 0.90493 0.71453 0.0
C1537 C 0.14892 0.91764 0.7435 0.0
C1538 C 0.09336 0.87607 0.77262 0.0
C1539 C 0.1206 0.89113 0.74205 0.0
C1540 C 0.07986 0.86218 0.77661 0.0
C1541 C 0.07873 0.84913 0.75293 0.0
C1542 C 0.10578 0.87687 0.74469 0.0
C1543 C 0.09129 0.8505 0.72447 0.0
C1544 C 0.13283 0.89171 0.71364 0.0
C1545 C 0.13632 0.91677 0.77023 0.0
N1546 N 0.10429 0.8641 0.72134 0.0
N1547 N 0.1227 0.90369 0.76911 0.0
H1548 H 0.90099 0.41404 0.63172 0.0
H1549 H 0.87586 0.46699 0.47954 0.0
H1550 H 0.87755 0.40232 0.4784 0.0
H1551 H 0.89593 0.47619 0.6388 0.0
H1552 H 0.87414 0.44216 0.48147 0.0
H1553 H 0.89711 0.43574 0.63815 0.0
C1554 C 0.89492 0.41597 0.59953 0.0
C1555 C 0.88973 0.40645 0.55415 0.0
C1556 C 0.87877 0.44956 0.51621 0.0
C1557 C 0.88532 0.43137 0.56109 0.0
C1558 C 0.87975 0.46373 0.51515 0.0
C1559 C 0.88623 0.47377 0.55878 0.0
C1560 C 0.88439 0.44544 0.5611 0.0
C1561 C 0.891 0.4689 0.60398 0.0
C1562 C 0.89268 0.42836 0.60327 0.0
C1563 C 0.88182 0.40942 0.51396 0.0
N1564 N 0.89012 0.45516 0.60372 0.0
N1565 N 0.88 0.42174 0.51808 0.0
H1566 H 0.52413 0.40431 0.54511 0.0
H1567 H 0.56866 0.4927 0.61875 0.0
H1568 H 0.50376 0.42751 0.62471 0.0
H1569 H 0.58945 0.4705 0.53501 0.0
H1570 H 0.54517 0.46846 0.62545 0.0
H1571 H 0.54853 0.428 0.54506 0.0
C1572 C 0.52479 0.41435 0.56278 0.0
C1573 C 0.51187 0.41394 0.58476 0.0
C1574 C 0.55487 0.46885 0.60574 0.0
C1575 C 0.53971 0.44105 0.58477 0.0
C1576 C 0.56831 0.48271 0.60191 0.0
C1577 C 0.58104 0.48365 0.57606 0.0
C1578 C 0.55409 0.45579 0.58347 0.0
C1579 C 0.57991 0.4703 0.55516 0.0
C1580 C 0.53872 0.42787 0.5627 0.0
C1581 C 0.5134 0.4273 0.60716 0.0
N1582 N 0.56663 0.45692 0.55914 0.0
N1583 N 0.52704 0.4403 0.60643 0.0
H1584 H 0.56808 0.08119 0.63644 0.0
H1585 H 0.52074 0.11847 0.52157 0.0
H1586 H 0.58597 0.11714 0.51767 0.0
H1587 H 0.50324 0.08096 0.63391 0.0
H1588 H 0.54566 0.12028 0.52655 0.0
H1589 H 0.54528 0.08315 0.64318 0.0
C1590 C 0.56725 0.08958 0.61195 0.0
C1591 C 0.57889 0.09891 0.576 0.0
C1592 C 0.53638 0.11174 0.55038 0.0
C1593 C 0.55267 0.10116 0.5833 0.0
C1594 C 0.52217 0.11072 0.54764 0.0
C1595 C 0.50986 0.09945 0.57697 0.0
C1596 C 0.53825 0.10145 0.58277 0.0
C1597 C 0.51235 0.08973 0.61017 0.0
C1598 C 0.5542 0.09069 0.61583 0.0
C1599 C 0.57723 0.10967 0.54571 0.0
N1600 N 0.52622 0.0909 0.6119 0.0
N1601 N 0.56428 0.11041 0.54967 0.0
H1602 H 0.73725 0.5371 0.09163 0.0
H1603 H 0.8271 0.5915 0.07908 0.0
H1604 H 0.75955 0.58542 0.06353 0.0
H1605 H 0.80607 0.54286 0.06348 0.0
H1606 H 0.80209 0.58909 0.07992 0.0
H1607 H 0.76206 0.53854 0.08708 0.0
C1608 C 0.74732 0.54798 0.08434 0.0
C1609 C 0.74632 0.56116 0.07807 0.0
C1610 C 0.8029 0.57892 0.07615 0.0
C1611 C 0.77461 0.56289 0.07322 0.0
C1612 C 0.8172 0.58028 0.07586 0.0
C1613 C 0.81868 0.56735 0.0712 0.0
C1614 C 0.7899 0.56451 0.07227 0.0
C1615 C 0.80543 0.55312 0.06697 0.0
C1616 C 0.76145 0.54878 0.08166 0.0
C1617 C 0.75973 0.57495 0.06863 0.0
N1618 N 0.79155 0.55206 0.06787 0.0
N1619 N 0.77329 0.57545 0.06679 0.0
H1620 H 0.41008 0.1714 0.04026 0.0
H1621 H 0.45401 0.25571 0.15911 0.0
H1622 H 0.448 0.18709 0.15009 0.0
H1623 H 0.4165 0.23914 0.04709 0.0
H1624 H 0.4534 0.2314 0.15192 0.0
H1625 H 0.41363 0.19686 0.03795 0.0
C1626 C 0.41921 0.18023 0.06378 0.0
C1627 C 0.42869 0.17708 0.09575 0.0
C1628 C 0.44538 0.23315 0.12867 0.0
C1629 C 0.43279 0.20635 0.09345 0.0
C1630 C 0.44574 0.24703 0.13269 0.0
C1631 C 0.43521 0.24942 0.10403 0.0
C1632 C 0.43441 0.22163 0.09577 0.0
C1633 C 0.42476 0.23778 0.07031 0.0
C1634 C 0.42124 0.1948 0.06239 0.0
C1635 C 0.44039 0.18901 0.12505 0.0
N1636 N 0.42459 0.2244 0.06739 0.0
N1637 N 0.44205 0.20312 0.1235 0.0
H1638 H 0.74761 0.16828 0.00405 0.0
H1639 H 0.81208 0.248 0.11858 0.0
H1640 H 0.74364 0.18723 0.15524 0.0
H1641 H 0.81472 0.22948 0.96454 0.0
H1642 H 0.78617 0.22693 0.1296 0.0
H1643 H 0.77129 0.19164 0.98579 0.0
C1644 C 0.75167 0.1774 0.03332 0.0
C1645 C 0.7437 0.17574 0.08154 0.0
C1646 C 0.79237 0.22754 0.0932 0.0
C1647 C 0.77092 0.20255 0.06093 0.0
C1648 C 0.80717 0.23957 0.08686 0.0
C1649 C 0.81564 0.24042 0.04078 0.0
C1650 C 0.78601 0.21625 0.05328 0.0
C1651 C 0.80867 0.22923 0.00089 0.0
C1652 C 0.76521 0.19076 0.0228 0.0
C1653 C 0.74945 0.188 0.11769 0.0
N1654 N 0.79431 0.21755 0.00827 0.0
N1655 N 0.7628 0.20085 0.10686 0.0
H1656 H 0.57346 0.75334 0.94461 0.0
H1657 H 0.53652 0.80139 0.83314 0.0
H1658 H 0.53619 0.73528 0.83127 0.0
H1659 H 0.57516 0.81892 0.94031 0.0
H1660 H 0.53458 0.77642 0.83736 0.0
H1661 H 0.5725 0.7767 0.94932 0.0
C1662 C 0.565 0.75425 0.92087 0.0
C1663 C 0.55497 0.74237 0.88713 0.0
C1664 C 0.54342 0.78573 0.86014 0.0
C1665 C 0.55386 0.76923 0.89212 0.0
C1666 C 0.54453 0.79997 0.85779 0.0
C1667 C 0.55609 0.81229 0.8861 0.0
C1668 C 0.55393 0.78382 0.8911 0.0
C1669 C 0.56613 0.8098 0.91748 0.0
C1670 C 0.56447 0.76763 0.92356 0.0
C1671 C 0.54418 0.74418 0.85765 0.0
N1672 N 0.56484 0.79589 0.91894 0.0
N1673 N 0.54398 0.75743 0.86052 0.0
H1674 H 0.18577 0.73307 0.8355 0.0
H1675 H 0.23288 0.81543 0.96847 0.0
H1676 H 0.16787 0.75099 0.95466 0.0
H1677 H 0.25148 0.79894 0.84672 0.0
H1678 H 0.20979 0.79079 0.96965 0.0
H1679 H 0.21066 0.75602 0.84446 0.0
C1680 C 0.18709 0.74176 0.86381 0.0
C1681 C 0.17469 0.74017 0.89402 0.0
C1682 C 0.21893 0.79249 0.94284 0.0
C1683 C 0.20307 0.76639 0.9044 0.0
C1684 C 0.23215 0.80659 0.94214 0.0
C1685 C 0.24408 0.8093 0.90703 0.0
C1686 C 0.21755 0.78099 0.90796 0.0
C1687 C 0.24252 0.79735 0.87423 0.0
C1688 C 0.20129 0.75485 0.86886 0.0
C1689 C 0.17707 0.75177 0.9302 0.0
N1690 N 0.22943 0.78373 0.87514 0.0
N1691 N 0.19094 0.7644 0.93413 0.0
H1692 H 0.18155 0.4527 0.85829 0.0
H1693 H 0.2341 0.41966 0.95831 0.0
H1694 H 0.16627 0.41244 0.95592 0.0
H1695 H 0.24893 0.45538 0.83926 0.0
H1696 H 0.21033 0.41965 0.96748 0.0
H1697 H 0.20734 0.45642 0.85991 0.0
C1698 C 0.18364 0.44474 0.88043 0.0
C1699 C 0.17174 0.43216 0.9066 0.0
C1700 C 0.21878 0.42755 0.93944 0.0
C1701 C 0.20106 0.43637 0.90873 0.0
C1702 C 0.23239 0.42757 0.93417 0.0
C1703 C 0.24346 0.43741 0.89741 0.0
C1704 C 0.2161 0.43739 0.9076 0.0
C1705 C 0.24065 0.44753 0.86781 0.0
C1706 C 0.19833 0.44684 0.8812 0.0
C1707 C 0.17505 0.4222 0.93468 0.0
N1708 N 0.22716 0.44718 0.87321 0.0
N1709 N 0.18937 0.4245 0.93484 0.0
H1710 H 0.39839 0.87333 0.48103 0.0
H1711 H 0.48121 0.90954 0.34973 0.0
H1712 H 0.41726 0.91087 0.3687 0.0
H1713 H 0.46475 0.87425 0.47092 0.0
H1714 H 0.45658 0.90803 0.34937 0.0
H1715 H 0.42142 0.87151 0.47161 0.0
C1716 C 0.40732 0.88112 0.45417 0.0
C1717 C 0.40595 0.89235 0.42594 0.0
C1718 C 0.45829 0.90054 0.37587 0.0
C1719 C 0.43224 0.89032 0.41495 0.0
C1720 C 0.47237 0.90138 0.37605 0.0
C1721 C 0.4751 0.8921 0.4108 0.0
C1722 C 0.44681 0.89039 0.41085 0.0
C1723 C 0.46316 0.88167 0.44368 0.0
C1724 C 0.42045 0.88008 0.44885 0.0
C1725 C 0.41785 0.90211 0.3916 0.0
N1726 N 0.44955 0.88118 0.44323 0.0
N1727 N 0.43049 0.9009 0.38727 0.0
H1728 H 0.09366 0.58169 0.44585 0.0
H1729 H 0.08422 0.50511 0.32306 0.0
H1730 H 0.07482 0.5644 0.28797 0.0
H1731 H 0.1056 0.52368 0.47674 0.0
H1732 H 0.08323 0.52816 0.30532 0.0
H1733 H 0.10047 0.56194 0.45407 0.0
C1734 C 0.09104 0.5738 0.41273 0.0
C1735 C 0.08348 0.57458 0.3664 0.0
C1736 C 0.08829 0.52728 0.34268 0.0
C1737 C 0.09122 0.55191 0.37564 0.0
C1738 C 0.08887 0.51411 0.35285 0.0
C1739 C 0.09482 0.51239 0.4018 0.0
C1740 C 0.09359 0.53877 0.38193 0.0
C1741 C 0.10081 0.52448 0.43864 0.0
C1742 C 0.09496 0.56254 0.41742 0.0
C1743 C 0.08051 0.56415 0.3246 0.0
N1744 N 0.09987 0.5371 0.42824 0.0
N1745 N 0.08426 0.55316 0.33045 0.0
H1746 H 0.4814 0.56925 0.34101 0.0
H1747 H 0.39704 0.52277 0.45938 0.0
H1748 H 0.46381 0.58779 0.45889 0.0
H1749 H 0.41669 0.5046 0.34842 0.0
H1750 H 0.42017 0.54762 0.45247 0.0
H1751 H 0.45656 0.5465 0.33588 0.0
C1752 C 0.47228 0.56857 0.36568 0.0
C1753 C 0.47474 0.58038 0.4009 0.0
C1754 C 0.41934 0.5382 0.42936 0.0
C1755 C 0.44618 0.55423 0.39541 0.0
C1756 C 0.40614 0.52403 0.43318 0.0
C1757 C 0.405 0.51155 0.40489 0.0
C1758 C 0.43142 0.53986 0.3969 0.0
C1759 C 0.41712 0.51385 0.37145 0.0
C1760 C 0.45807 0.55555 0.3627 0.0
C1761 C 0.46243 0.57891 0.43142 0.0
N1762 N 0.42983 0.52768 0.36867 0.0
N1763 N 0.44869 0.56599 0.42834 0.0
loop_
_geom_bond_atom_site_label_1
_geom_bond_atom_site_label_2
_geom_bond_distance
_geom_bond_site_symmetry_2
_ccdc_geom_bond_type
C0 O1 1.160 . S
C0 O7 1.185 . S
O1 C0 1.160 . S
O2 Zn3 1.899 . S
O2 C10 1.284 . S
Zn3 O2 1.899 . S
Zn3 O4 2.032 . S
Zn3 O7 2.086 . S
Zn3 O12 1.977 . S
O4 Zn3 2.032 . S
O4 C8 1.278 . S
C5 O6 1.203 . S
C5 O12 1.267 . S
O6 C5 1.203 . S
O7 C0 1.185 . S
O7 Zn3 2.086 . S
C8 O4 1.278 . S
C8 O9 1.211 . S
O9 C8 1.211 . S
C10 O2 1.284 . S
C10 O11 1.273 . S
O11 C10 1.273 . S
O12 Zn3 1.977 . S
O12 C5 1.267 . S
C13 O14 1.160 . S
C13 O20 1.185 . S
O14 C13 1.160 . S
O15 Zn16 1.899 . S
O15 C23 1.284 . S
Zn16 O15 1.899 . S
Zn16 O17 2.032 . S
Zn16 O20 2.086 . S
Zn16 O25 1.977 . S
O17 Zn16 2.032 . S
O17 C21 1.278 . S
C18 O19 1.203 . S
C18 O25 1.267 . S
O19 C18 1.203 . S
O20 C13 1.185 . S
O20 Zn16 2.086 . S
C21 O17 1.278 . S
C21 O22 1.211 . S
O22 C21 1.211 . S
C23 O15 1.284 . S
C23 O24 1.273 . S
O24 C23 1.273 . S
O25 Zn16 1.977 . S
O25 C18 1.267 . S
C26 O27 1.160 . S
C26 O33 1.185 . S
O27 C26 1.160 . S
O28 Zn29 1.899 . S
O28 C36 1.284 . S
Zn29 O28 1.899 . S
Zn29 O30 2.032 . S
Zn29 O33 2.086 . S
Zn29 O38 1.977 . S
O30 Zn29 2.032 . S
O30 C34 1.278 . S
C31 O32 1.203 . S
C31 O38 1.267 . S
O32 C31 1.203 . S
O33 C26 1.185 . S
O33 Zn29 2.086 . S
C34 O30 1.278 . S
C34 O35 1.211 . S
O35 C34 1.211 . S
C36 O28 1.284 . S
C36 O37 1.273 . S
O37 C36 1.273 . S
O38 Zn29 1.977 . S
O38 C31 1.267 . S
C39 O40 1.160 . S
C39 O46 1.185 . S
O40 C39 1.160 . S
O41 Zn42 1.899 . S
O41 C49 1.284 . S
Zn42 O41 1.899 . S
Zn42 O43 2.032 . S
Zn42 O46 2.086 . S
Zn42 O51 1.977 . S
O43 Zn42 2.032 . S
O43 C47 1.278 . S
C44 O45 1.203 . S
C44 O51 1.267 . S
O45 C44 1.203 . S
O46 C39 1.185 . S
O46 Zn42 2.086 . S
C47 O43 1.278 . S
C47 O48 1.211 . S
O48 C47 1.211 . S
C49 O41 1.284 . S
C49 O50 1.273 . S
O50 C49 1.273 . S
O51 Zn42 1.977 . S
O51 C44 1.267 . S
C52 O53 1.160 . S
C52 O59 1.185 . S
O53 C52 1.160 . S
O54 Zn55 1.899 . S
O54 C62 1.284 . S
Zn55 O54 1.899 . S
Zn55 O56 2.032 . S
Zn55 O59 2.086 . S
Zn55 O64 1.977 . S
O56 Zn55 2.032 . S
O56 C60 1.278 . S
C57 O58 1.203 . S
C57 O64 1.267 . S
O58 C57 1.203 . S
O59 C52 1.185 . S
O59 Zn55 2.086 . S
C60 O56 1.278 . S
C60 O61 1.211 . S
O61 C60 1.211 . S
C62 O54 1.284 . S
C62 O63 1.273 . S
O63 C62 1.273 . S
O64 Zn55 1.977 . S
O64 C57 1.267 . S
C65 O66 1.160 . S
C65 O72 1.185 . S
O66 C65 1.160 . S
O67 Zn68 1.899 . S
O67 C75 1.284 . S
Zn68 O67 1.899 . S
Zn68 O69 2.032 . S
Zn68 O72 2.086 . S
Zn68 O77 1.977 . S
O69 Zn68 2.032 . S
O69 C73 1.278 . S
C70 O71 1.203 . S
C70 O77 1.267 . S
O71 C70 1.203 . S
O72 C65 1.185 . S
O72 Zn68 2.086 . S
C73 O69 1.278 . S
C73 O74 1.211 . S
O74 C73 1.211 . S
C75 O67 1.284 . S
C75 O76 1.273 . S
O76 C75 1.273 . S
O77 Zn68 1.977 . S
O77 C70 1.267 . S
C78 O79 1.160 . S
C78 O85 1.185 . S
O79 C78 1.160 . S
O80 Zn81 1.899 . S
O80 C88 1.284 . S
Zn81 O80 1.899 . S
Zn81 O82 2.032 . S
Zn81 O85 2.086 . S
Zn81 O90 1.977 . S
O82 Zn81 2.032 . S
O82 C86 1.278 . S
C83 O84 1.203 . S
C83 O90 1.267 . S
O84 C83 1.203 . S
O85 C78 1.185 . S
O85 Zn81 2.086 . S
C86 O82 1.278 . S
C86 O87 1.211 . S
O87 C86 1.211 . S
C88 O80 1.284 . S
C88 O89 1.273 . S
O89 C88 1.273 . S
O90 Zn81 1.977 . S
O90 C83 1.267 . S
C91 O92 1.160 . S
C91 O98 1.185 . S
O92 C91 1.160 . S
O93 Zn94 1.899 . S
O93 C101 1.284 . S
Zn94 O93 1.899 . S
Zn94 O95 2.032 . S
Zn94 O98 2.086 . S
Zn94 O103 1.977 . S
O95 Zn94 2.032 . S
O95 C99 1.278 . S
C96 O97 1.203 . S
C96 O103 1.267 . S
O97 C96 1.203 . S
O98 C91 1.185 . S
O98 Zn94 2.086 . S
C99 O95 1.278 . S
C99 O100 1.211 . S
O100 C99 1.211 . S
C101 O93 1.284 . S
C101 O102 1.273 . S
O102 C101 1.273 . S
O103 Zn94 1.977 . S
O103 C96 1.267 . S
C104 O105 1.160 . S
C104 O111 1.185 . S
O105 C104 1.160 . S
O106 Zn107 1.899 . S
O106 C114 1.284 . S
Zn107 O106 1.899 . S
Zn107 O108 2.032 . S
Zn107 O111 2.086 . S
Zn107 O116 1.977 . S
O108 Zn107 2.032 . S
O108 C112 1.278 . S
C109 O110 1.203 . S
C109 O116 1.267 . S
O110 C109 1.203 . S
O111 C104 1.185 . S
O111 Zn107 2.086 . S
C112 O108 1.278 . S
C112 O113 1.211 . S
O113 C112 1.211 . S
C114 O106 1.284 . S
C114 O115 1.273 . S
O115 C114 1.273 . S
O116 Zn107 1.977 . S
O116 C109 1.267 . S
C117 O118 1.160 . S
C117 O124 1.185 . S
O118 C117 1.160 . S
O119 Zn120 1.899 . S
O119 C127 1.284 . S
Zn120 O119 1.899 . S
Zn120 O121 2.032 . S
Zn120 O124 2.086 . S
Zn120 O129 1.977 . S
O121 Zn120 2.032 . S
O121 C125 1.278 . S
C122 O123 1.203 . S
C122 O129 1.267 . S
O123 C122 1.203 . S
O124 C117 1.185 . S
O124 Zn120 2.086 . S
C125 O121 1.278 . S
C125 O126 1.211 . S
O126 C125 1.211 . S
C127 O119 1.284 . S
C127 O128 1.273 . S
O128 C127 1.273 . S
O129 Zn120 1.977 . S
O129 C122 1.267 . S
C130 O131 1.160 . S
C130 O137 1.185 . S
O131 C130 1.160 . S
O132 Zn133 1.899 . S
O132 C140 1.284 . S
Zn133 O132 1.899 . S
Zn133 O134 2.032 . S
Zn133 O137 2.086 . S
Zn133 O142 1.977 . S
O134 Zn133 2.032 . S
O134 C138 1.278 . S
C135 O136 1.203 . S
C135 O142 1.267 . S
O136 C135 1.203 . S
O137 C130 1.185 . S
O137 Zn133 2.086 . S
C138 O134 1.278 . S
C138 O139 1.211 . S
O139 C138 1.211 . S
C140 O132 1.284 . S
C140 O141 1.273 . S
O141 C140 1.273 . S
O142 Zn133 1.977 . S
O142 C135 1.267 . S
C143 O144 1.160 . S
C143 O150 1.185 . S
O144 C143 1.160 . S
O145 Zn146 1.899 . S
O145 C153 1.284 . S
Zn146 O145 1.899 . S
Zn146 O147 2.032 . S
Zn146 O150 2.086 . S
Zn146 O155 1.977 . S
O147 Zn146 2.032 . S
O147 C151 1.278 . S
C148 O149 1.203 . S
C148 O155 1.267 . S
O149 C148 1.203 . S
O150 C143 1.185 . S
O150 Zn146 2.086 . S
C151 O147 1.278 . S
C151 O152 1.211 . S
O152 C151 1.211 . S
C153 O145 1.284 . S
C153 O154 1.273 . S
O154 C153 1.273 . S
O155 Zn146 1.977 . S
O155 C148 1.267 . S
C156 O157 1.160 . S
C156 O163 1.185 . S
O157 C156 1.160 . S
O158 Zn159 1.899 . S
O158 C166 1.284 . S
Zn159 O158 1.899 . S
Zn159 O160 2.032 . S
Zn159 O163 2.086 . S
Zn159 O168 1.977 . S
O160 Zn159 2.032 . S
O160 C164 1.278 . S
C161 O162 1.203 . S
C161 O168 1.267 . S
O162 C161 1.203 . S
O163 C156 1.185 . S
O163 Zn159 2.086 . S
C164 O160 1.278 . S
C164 O165 1.211 . S
O165 C164 1.211 . S
C166 O158 1.284 . S
C166 O167 1.273 . S
O167 C166 1.273 . S
O168 Zn159 1.977 . S
O168 C161 1.267 . S
C169 O170 1.160 . S
C169 O176 1.185 . S
O170 C169 1.160 . S
O171 Zn172 1.899 . S
O171 C179 1.284 . S
Zn172 O171 1.899 . S
Zn172 O173 2.032 . S
Zn172 O176 2.086 . S
Zn172 O181 1.977 . S
O173 Zn172 2.032 . S
O173 C177 1.278 . S
C174 O175 1.203 . S
C174 O181 1.267 . S
O175 C174 1.203 . S
O176 C169 1.185 . S
O176 Zn172 2.086 . S
C177 O173 1.278 . S
C177 O178 1.211 . S
O178 C177 1.211 . S
C179 O171 1.284 . S
C179 O180 1.273 . S
O180 C179 1.273 . S
O181 Zn172 1.977 . S
O181 C174 1.267 . S
C182 O183 1.160 . S
C182 O189 1.185 . S
O183 C182 1.160 . S
O184 Zn185 1.899 . S
O184 C192 1.284 . S
Zn185 O184 1.899 . S
Zn185 O186 2.032 . S
Zn185 O189 2.086 . S
Zn185 O194 1.977 . S
O186 Zn185 2.032 . S
O186 C190 1.278 . S
C187 O188 1.203 . S
C187 O194 1.267 . S
O188 C187 1.203 . S
O189 C182 1.185 . S
O189 Zn185 2.086 . S
C190 O186 1.278 . S
C190 O191 1.211 . S
O191 C190 1.211 . S
C192 O184 1.284 . S
C192 O193 1.273 . S
O193 C192 1.273 . S
O194 Zn185 1.977 . S
O194 C187 1.267 . S
C195 O196 1.160 1_556 S
C195 O202 1.185 1_556 S
O196 C195 1.160 1_554 S
O197 Zn198 1.899 . S
O197 C205 1.284 . S
Zn198 O197 1.899 . S
Zn198 O199 2.032 . S
Zn198 O202 2.086 . S
Zn198 O207 1.977 . S
O199 Zn198 2.032 . S
O199 C203 1.278 . S
C200 O201 1.203 . S
C200 O207 1.267 . S
O201 C200 1.203 . S
O202 C195 1.185 1_554 S
O202 Zn198 2.086 . S
C203 O199 1.278 . S
C203 O204 1.211 . S
O204 C203 1.211 . S
C205 O197 1.284 . S
C205 O206 1.273 . S
O206 C205 1.273 . S
O207 Zn198 1.977 . S
O207 C200 1.267 . S
C208 O209 1.160 1_556 S
C208 O215 1.185 1_556 S
O209 C208 1.160 1_554 S
O210 Zn211 1.899 . S
O210 C218 1.284 . S
Zn211 O210 1.899 . S
Zn211 O212 2.032 . S
Zn211 O215 2.086 . S
Zn211 O220 1.977 . S
O212 Zn211 2.032 . S
O212 C216 1.278 . S
C213 O214 1.203 . S
C213 O220 1.267 . S
O214 C213 1.203 . S
O215 C208 1.185 1_554 S
O215 Zn211 2.086 . S
C216 O212 1.278 . S
C216 O217 1.211 . S
O217 C216 1.211 . S
C218 O210 1.284 . S
C218 O219 1.273 . S
O219 C218 1.273 . S
O220 Zn211 1.977 . S
O220 C213 1.267 . S
C221 O222 1.160 1_556 S
C221 O228 1.185 1_556 S
O222 C221 1.160 1_554 S
O223 Zn224 1.899 . S
O223 C231 1.284 . S
Zn224 O223 1.899 . S
Zn224 O225 2.032 . S
Zn224 O228 2.086 . S
Zn224 O233 1.977 . S
O225 Zn224 2.032 . S
O225 C229 1.278 . S
C226 O227 1.203 . S
C226 O233 1.267 . S
O227 C226 1.203 . S
O228 C221 1.185 1_554 S
O228 Zn224 2.086 . S
C229 O225 1.278 . S
C229 O230 1.211 . S
O230 C229 1.211 . S
C231 O223 1.284 . S
C231 O232 1.273 . S
O232 C231 1.273 . S
O233 Zn224 1.977 . S
O233 C226 1.267 . S
C234 O235 1.160 1_556 S
C234 O241 1.185 1_556 S
O235 C234 1.160 1_554 S
O236 Zn237 1.899 . S
O236 C244 1.284 . S
Zn237 O236 1.899 . S
Zn237 O238 2.032 . S
Zn237 O241 2.086 . S
Zn237 O246 1.977 . S
O238 Zn237 2.032 . S
O238 C242 1.278 . S
C239 O240 1.203 . S
C239 O246 1.267 . S
O240 C239 1.203 . S
O241 C234 1.185 1_554 S
O241 Zn237 2.086 . S
C242 O238 1.278 . S
C242 O243 1.211 . S
O243 C242 1.211 . S
C244 O236 1.284 . S
C244 O245 1.273 . S
O245 C244 1.273 . S
O246 Zn237 1.977 . S
O246 C239 1.267 . S
C247 O248 1.160 1_556 S
C247 O254 1.185 1_556 S
O248 C247 1.160 1_554 S
O249 Zn250 1.899 . S
O249 C257 1.284 . S
Zn250 O249 1.899 . S
Zn250 O251 2.032 . S
Zn250 O254 2.086 . S
Zn250 O259 1.977 . S
O251 Zn250 2.032 . S
O251 C255 1.278 . S
C252 O253 1.203 . S
C252 O259 1.267 . S
O253 C252 1.203 . S
O254 C247 1.185 1_554 S
O254 Zn250 2.086 . S
C255 O251 1.278 . S
C255 O256 1.211 . S
O256 C255 1.211 . S
C257 O249 1.284 . S
C257 O258 1.273 . S
O258 C257 1.273 . S
O259 Zn250 1.977 . S
O259 C252 1.267 . S
C260 O261 1.160 1_556 S
C260 O267 1.185 1_556 S
O261 C260 1.160 1_554 S
O262 Zn263 1.899 . S
O262 C270 1.284 . S
Zn263 O262 1.899 . S
Zn263 O264 2.032 . S
Zn263 O267 2.086 . S
Zn263 O272 1.977 . S
O264 Zn263 2.032 . S
O264 C268 1.278 . S
C265 O266 1.203 . S
C265 O272 1.267 . S
O266 C265 1.203 . S
O267 C260 1.185 1_554 S
O267 Zn263 2.086 . S
C268 O264 1.278 . S
C268 O269 1.211 . S
O269 C268 1.211 . S
C270 O262 1.284 . S
C270 O271 1.273 . S
O271 C270 1.273 . S
O272 Zn263 1.977 . S
O272 C265 1.267 . S
C273 O274 1.160 . S
C273 O280 1.185 . S
O274 C273 1.160 . S
O275 Zn276 1.899 . S
O275 C283 1.284 . S
Zn276 O275 1.899 . S
Zn276 O277 2.032 . S
Zn276 O280 2.086 . S
Zn276 O285 1.977 . S
O277 Zn276 2.032 . S
O277 C281 1.278 . S
C278 O279 1.203 . S
C278 O285 1.267 . S
O279 C278 1.203 . S
O280 C273 1.185 . S
O280 Zn276 2.086 . S
C281 O277 1.278 . S
C281 O282 1.211 . S
O282 C281 1.211 . S
C283 O275 1.284 . S
C283 O284 1.273 . S
O284 C283 1.273 . S
O285 Zn276 1.977 . S
O285 C278 1.267 . S
C286 O287 1.160 . S
C286 O293 1.185 . S
O287 C286 1.160 . S
O288 Zn289 1.899 . S
O288 C296 1.284 . S
Zn289 O288 1.899 . S
Zn289 O290 2.032 . S
Zn289 O293 2.086 . S
Zn289 O298 1.977 . S
O290 Zn289 2.032 . S
O290 C294 1.278 . S
C291 O292 1.203 . S
C291 O298 1.267 . S
O292 C291 1.203 . S
O293 C286 1.185 . S
O293 Zn289 2.086 . S
C294 O290 1.278 . S
C294 O295 1.211 . S
O295 C294 1.211 . S
C296 O288 1.284 . S
C296 O297 1.273 . S
O297 C296 1.273 . S
O298 Zn289 1.977 . S
O298 C291 1.267 . S
C299 O300 1.160 . S
C299 O306 1.185 . S
O300 C299 1.160 . S
O301 Zn302 1.899 . S
O301 C309 1.284 . S
Zn302 O301 1.899 . S
Zn302 O303 2.032 . S
Zn302 O306 2.086 . S
Zn302 O311 1.977 . S
O303 Zn302 2.032 . S
O303 C307 1.278 . S
C304 O305 1.203 . S
C304 O311 1.267 . S
O305 C304 1.203 . S
O306 C299 1.185 . S
O306 Zn302 2.086 . S
C307 O303 1.278 . S
C307 O308 1.211 . S
O308 C307 1.211 . S
C309 O301 1.284 . S
C309 O310 1.273 . S
O310 C309 1.273 . S
O311 Zn302 1.977 . S
O311 C304 1.267 . S
C312 O313 1.160 1_554 S
C312 O319 1.185 1_554 S
O313 C312 1.160 1_556 S
O314 Zn315 1.899 . S
O314 C322 1.284 . S
Zn315 O314 1.899 . S
Zn315 O316 2.032 . S
Zn315 O319 2.086 . S
Zn315 O324 1.977 . S
O316 Zn315 2.032 . S
O316 C320 1.278 . S
C317 O318 1.203 . S
C317 O324 1.267 . S
O318 C317 1.203 . S
O319 C312 1.185 1_556 S
O319 Zn315 2.086 . S
C320 O316 1.278 . S
C320 O321 1.211 . S
O321 C320 1.211 . S
C322 O314 1.284 . S
C322 O323 1.273 . S
O323 C322 1.273 . S
O324 Zn315 1.977 . S
O324 C317 1.267 . S
C325 O326 1.160 1_554 S
C325 O332 1.185 1_554 S
O326 C325 1.160 1_556 S
O327 Zn328 1.899 . S
O327 C335 1.284 . S
Zn328 O327 1.899 . S
Zn328 O329 2.032 . S
Zn328 O332 2.086 . S
Zn328 O337 1.977 . S
O329 Zn328 2.032 . S
O329 C333 1.278 . S
C330 O331 1.203 . S
C330 O337 1.267 . S
O331 C330 1.203 . S
O332 C325 1.185 1_556 S
O332 Zn328 2.086 . S
C333 O329 1.278 . S
C333 O334 1.211 . S
O334 C333 1.211 . S
C335 O327 1.284 . S
C335 O336 1.273 . S
O336 C335 1.273 . S
O337 Zn328 1.977 . S
O337 C330 1.267 . S
C338 O339 1.160 1_554 S
C338 O345 1.185 1_554 S
O339 C338 1.160 1_556 S
O340 Zn341 1.899 . S
O340 C348 1.284 . S
Zn341 O340 1.899 . S
Zn341 O342 2.032 . S
Zn341 O345 2.086 . S
Zn341 O350 1.977 . S
O342 Zn341 2.032 . S
O342 C346 1.278 . S
C343 O344 1.203 . S
C343 O350 1.267 . S
O344 C343 1.203 . S
O345 C338 1.185 1_556 S
O345 Zn341 2.086 . S
C346 O342 1.278 . S
C346 O347 1.211 . S
O347 C346 1.211 . S
C348 O340 1.284 . S
C348 O349 1.273 . S
O349 C348 1.273 . S
O350 Zn341 1.977 . S
O350 C343 1.267 . S
C351 O352 1.160 . S
C351 O358 1.185 . S
O352 C351 1.160 . S
O353 Zn354 1.899 . S
O353 C361 1.284 . S
Zn354 O353 1.899 . S
Zn354 O355 2.032 . S
Zn354 O358 2.086 . S
Zn354 O363 1.977 . S
O355 Zn354 2.032 . S
O355 C359 1.278 . S
C356 O357 1.203 . S
C356 O363 1.267 . S
O357 C356 1.203 . S
O358 C351 1.185 . S
O358 Zn354 2.086 . S
C359 O355 1.278 . S
C359 O360 1.211 . S
O360 C359 1.211 . S
C361 O353 1.284 . S
C361 O362 1.273 . S
O362 C361 1.273 . S
O363 Zn354 1.977 . S
O363 C356 1.267 . S
C364 O365 1.160 . S
C364 O371 1.185 . S
O365 C364 1.160 . S
O366 Zn367 1.899 . S
O366 C374 1.284 . S
Zn367 O366 1.899 . S
Zn367 O368 2.032 . S
Zn367 O371 2.086 . S
Zn367 O376 1.977 . S
O368 Zn367 2.032 . S
O368 C372 1.278 . S
C369 O370 1.203 . S
C369 O376 1.267 . S
O370 C369 1.203 . S
O371 C364 1.185 . S
O371 Zn367 2.086 . S
C372 O368 1.278 . S
C372 O373 1.211 . S
O373 C372 1.211 . S
C374 O366 1.284 . S
C374 O375 1.273 . S
O375 C374 1.273 . S
O376 Zn367 1.977 . S
O376 C369 1.267 . S
C377 O378 1.160 . S
C377 O384 1.185 . S
O378 C377 1.160 . S
O379 Zn380 1.899 . S
O379 C387 1.284 . S
Zn380 O379 1.899 . S
Zn380 O381 2.032 . S
Zn380 O384 2.086 . S
Zn380 O389 1.977 . S
O381 Zn380 2.032 . S
O381 C385 1.278 . S
C382 O383 1.203 . S
C382 O389 1.267 . S
O383 C382 1.203 . S
O384 C377 1.185 . S
O384 Zn380 2.086 . S
C385 O381 1.278 . S
C385 O386 1.211 . S
O386 C385 1.211 . S
C387 O379 1.284 . S
C387 O388 1.273 . S
O388 C387 1.273 . S
O389 Zn380 1.977 . S
O389 C382 1.267 . S
C390 O391 1.160 . S
C390 O397 1.185 . S
O391 C390 1.160 . S
O392 Zn393 1.899 . S
O392 C400 1.284 . S
Zn393 O392 1.899 . S
Zn393 O394 2.032 . S
Zn393 O397 2.086 . S
Zn393 O402 1.977 . S
O394 Zn393 2.032 . S
O394 C398 1.278 . S
C395 O396 1.203 . S
C395 O402 1.267 . S
O396 C395 1.203 . S
O397 C390 1.185 . S
O397 Zn393 2.086 . S
C398 O394 1.278 . S
C398 O399 1.211 . S
O399 C398 1.211 . S
C400 O392 1.284 . S
C400 O401 1.273 . S
O401 C400 1.273 . S
O402 Zn393 1.977 . S
O402 C395 1.267 . S
C403 O404 1.160 . S
C403 O410 1.185 . S
O404 C403 1.160 . S
O405 Zn406 1.899 . S
O405 C413 1.284 . S
Zn406 O405 1.899 . S
Zn406 O407 2.032 . S
Zn406 O410 2.086 . S
Zn406 O415 1.977 . S
O407 Zn406 2.032 . S
O407 C411 1.278 . S
C408 O409 1.203 . S
C408 O415 1.267 . S
O409 C408 1.203 . S
O410 C403 1.185 . S
O410 Zn406 2.086 . S
C411 O407 1.278 . S
C411 O412 1.211 . S
O412 C411 1.211 . S
C413 O405 1.284 . S
C413 O414 1.273 . S
O414 C413 1.273 . S
O415 Zn406 1.977 . S
O415 C408 1.267 . S
C416 O417 1.160 . S
C416 O423 1.185 . S
O417 C416 1.160 . S
O418 Zn419 1.899 . S
O418 C426 1.284 . S
Zn419 O418 1.899 . S
Zn419 O420 2.032 . S
Zn419 O423 2.086 . S
Zn419 O428 1.977 . S
O420 Zn419 2.032 . S
O420 C424 1.278 . S
C421 O422 1.203 . S
C421 O428 1.267 . S
O422 C421 1.203 . S
O423 C416 1.185 . S
O423 Zn419 2.086 . S
C424 O420 1.278 . S
C424 O425 1.211 . S
O425 C424 1.211 . S
C426 O418 1.284 . S
C426 O427 1.273 . S
O427 C426 1.273 . S
O428 Zn419 1.977 . S
O428 C421 1.267 . S
C429 O430 1.160 1_554 S
C429 O436 1.185 1_554 S
O430 C429 1.160 1_556 S
O431 Zn432 1.899 . S
O431 C439 1.284 . S
Zn432 O431 1.899 . S
Zn432 O433 2.032 . S
Zn432 O436 2.086 . S
Zn432 O441 1.977 . S
O433 Zn432 2.032 . S
O433 C437 1.278 . S
C434 O435 1.203 . S
C434 O441 1.267 . S
O435 C434 1.203 . S
O436 C429 1.185 1_556 S
O436 Zn432 2.086 . S
C437 O433 1.278 . S
C437 O438 1.211 . S
O438 C437 1.211 . S
C439 O431 1.284 . S
C439 O440 1.273 . S
O440 C439 1.273 . S
O441 Zn432 1.977 . S
O441 C434 1.267 . S
C442 O443 1.160 1_554 S
C442 O449 1.185 1_554 S
O443 C442 1.160 1_556 S
O444 Zn445 1.899 . S
O444 C452 1.284 . S
Zn445 O444 1.899 . S
Zn445 O446 2.032 . S
Zn445 O449 2.086 . S
Zn445 O454 1.977 . S
O446 Zn445 2.032 . S
O446 C450 1.278 . S
C447 O448 1.203 . S
C447 O454 1.267 . S
O448 C447 1.203 . S
O449 C442 1.185 1_556 S
O449 Zn445 2.086 . S
C450 O446 1.278 . S
C450 O451 1.211 . S
O451 C450 1.211 . S
C452 O444 1.284 . S
C452 O453 1.273 . S
O453 C452 1.273 . S
O454 Zn445 1.977 . S
O454 C447 1.267 . S
C455 O456 1.160 1_554 S
C455 O462 1.185 1_554 S
O456 C455 1.160 1_556 S
O457 Zn458 1.899 . S
O457 C465 1.284 . S
Zn458 O457 1.899 . S
Zn458 O459 2.032 . S
Zn458 O462 2.086 . S
Zn458 O467 1.977 . S
O459 Zn458 2.032 . S
O459 C463 1.278 . S
C460 O461 1.203 . S
C460 O467 1.267 . S
O461 C460 1.203 . S
O462 C455 1.185 1_556 S
O462 Zn458 2.086 . S
C463 O459 1.278 . S
C463 O464 1.211 . S
O464 C463 1.211 . S
C465 O457 1.284 . S
C465 O466 1.273 . S
O466 C465 1.273 . S
O467 Zn458 1.977 . S
O467 C460 1.267 . S
H468 C474 0.930 . S
H469 C478 0.930 . S
H470 C483 0.929 . S
H471 C481 0.929 . S
H472 C476 0.967 . S
H473 C482 0.967 . S
C474 H468 0.930 . S
C474 C475 1.367 . S
C474 C482 1.345 1_565 S
C475 C474 1.367 . S
C475 C483 1.433 . S
C476 H472 0.967 . S
C476 C478 1.346 1_565 S
C476 C480 1.348 1_565 S
C477 C480 1.463 1_565 S
C477 C482 1.348 1_565 S
C477 N485 1.427 . S
C478 H469 0.930 . S
C478 C476 1.346 1_545 S
C478 C479 1.367 . S
C479 C478 1.367 . S
C479 C481 1.433 . S
C480 C476 1.348 1_545 S
C480 C477 1.463 1_545 S
C480 N484 1.427 . S
C481 H471 0.929 . S
C481 C479 1.433 . S
C481 N484 1.384 . S
C482 H473 0.967 . S
C482 C474 1.345 1_545 S
C482 C477 1.348 1_545 S
C483 H470 0.929 . S
C483 C475 1.433 . S
C483 N485 1.384 . S
N484 C480 1.427 . S
N484 C481 1.384 . S
N485 C477 1.427 . S
N485 C483 1.384 . S
H486 C492 0.930 . S
H487 C496 0.930 . S
H488 C501 0.929 . S
H489 C499 0.929 . S
H490 C494 0.929 . S
H491 C500 0.929 . S
C492 H486 0.930 . S
C492 C493 1.367 . S
C492 C500 1.378 . S
C493 C492 1.367 . S
C493 C501 1.433 . S
C494 H490 0.929 . S
C494 C496 1.378 . S
C494 C498 1.350 . S
C495 C498 1.463 1_455 S
C495 C500 1.350 . S
C495 N503 1.424 1_455 S
C496 H487 0.930 . S
C496 C494 1.378 . S
C496 C497 1.367 . S
C497 C496 1.367 . S
C497 C499 1.433 . S
C498 C494 1.350 . S
C498 C495 1.463 1_655 S
C498 N502 1.424 1_655 S
C499 H489 0.929 . S
C499 C497 1.433 . S
C499 N502 1.349 1_655 S
C500 H491 0.929 . S
C500 C492 1.378 . S
C500 C495 1.350 . S
C501 H488 0.929 . S
C501 C493 1.433 . S
C501 N503 1.349 1_455 S
N502 C498 1.424 1_455 S
N502 C499 1.349 1_455 S
N503 C495 1.424 1_655 S
N503 C501 1.349 1_655 S
H504 C510 0.930 . S
H505 C514 0.930 . S
H506 C519 0.929 . S
H507 C517 0.929 . S
H508 C512 0.929 . S
H509 C518 0.929 . S
C510 H504 0.930 . S
C510 C511 1.367 . S
C510 C518 1.378 . S
C511 C510 1.367 . S
C511 C519 1.433 . S
C512 H508 0.929 . S
C512 C514 1.378 . S
C512 C516 1.350 . S
C513 C516 1.463 . S
C513 C518 1.350 . S
C513 N521 1.427 . S
C514 H505 0.930 . S
C514 C512 1.378 . S
C514 C515 1.367 . S
C515 C514 1.367 . S
C515 C517 1.433 . S
C516 C512 1.350 . S
C516 C513 1.463 . S
C516 N520 1.427 . S
C517 H507 0.929 . S
C517 C515 1.433 . S
C517 N520 1.384 . S
C518 H509 0.929 . S
C518 C510 1.378 . S
C518 C513 1.350 . S
C519 H506 0.929 . S
C519 C511 1.433 . S
C519 N521 1.384 . S
N520 C516 1.427 . S
N520 C517 1.384 . S
N521 C513 1.427 . S
N521 C519 1.384 . S
H522 C528 0.930 . S
H523 C532 0.930 . S
H524 C537 0.929 . S
H525 C535 0.929 . S
H526 C530 0.929 . S
H527 C536 0.929 . S
C528 H522 0.930 . S
C528 C529 1.367 . S
C528 C536 1.378 1_565 S
C529 C528 1.367 . S
C529 C537 1.433 . S
C530 H526 0.929 . S
C530 C532 1.378 1_565 S
C530 C534 1.350 1_565 S
C531 C534 1.463 1_565 S
C531 C536 1.350 1_565 S
C531 N539 1.427 . S
C532 H523 0.930 . S
C532 C530 1.378 1_545 S
C532 C533 1.367 . S
C533 C532 1.367 . S
C533 C535 1.433 . S
C534 C530 1.350 1_545 S
C534 C531 1.463 1_545 S
C534 N538 1.427 . S
C535 H525 0.929 . S
C535 C533 1.433 . S
C535 N538 1.384 . S
C536 H527 0.929 . S
C536 C528 1.378 1_545 S
C536 C531 1.350 1_545 S
C537 H524 0.929 . S
C537 C529 1.433 . S
C537 N539 1.384 . S
N538 C534 1.427 . S
N538 C535 1.384 . S
N539 C531 1.427 . S
N539 C537 1.384 . S
H540 C546 0.930 . S
H541 C550 0.930 . S
H542 C555 0.929 . S
H543 C553 0.929 . S
H544 C548 0.929 . S
H545 C554 0.929 . S
C546 H540 0.930 . S
C546 C547 1.367 . S
C546 C554 1.378 . S
C547 C546 1.367 . S
C547 C555 1.433 . S
C548 H544 0.929 . S
C548 C550 1.378 . S
C548 C552 1.350 . S
C549 C552 1.463 1_455 S
C549 C554 1.350 . S
C549 N557 1.423 1_455 S
C550 H541 0.930 . S
C550 C548 1.378 . S
C550 C551 1.367 . S
C551 C550 1.367 . S
C551 C553 1.433 . S
C552 C548 1.350 . S
C552 C549 1.463 1_655 S
C552 N556 1.423 1_655 S
C553 H543 0.929 . S
C553 C551 1.433 . S
C553 N556 1.344 1_655 S
C554 H545 0.929 . S
C554 C546 1.378 . S
C554 C549 1.350 . S
C555 H542 0.929 . S
C555 C547 1.433 . S
C555 N557 1.344 1_455 S
N556 C552 1.423 1_455 S
N556 C553 1.344 1_455 S
N557 C549 1.423 1_655 S
N557 C555 1.344 1_655 S
H558 C564 0.930 . S
H559 C568 0.930 . S
H560 C573 0.929 . S
H561 C571 0.929 . S
H562 C566 0.929 . S
H563 C572 0.929 . S
C564 H558 0.930 . S
C564 C565 1.367 . S
C564 C572 1.378 . S
C565 C564 1.367 . S
C565 C573 1.433 . S
C566 H562 0.929 . S
C566 C568 1.378 . S
C566 C570 1.350 . S
C567 C570 1.463 . S
C567 C572 1.350 . S
C567 N575 1.427 . S
C568 H559 0.930 . S
C568 C566 1.378 . S
C568 C569 1.367 . S
C569 C568 1.367 . S
C569 C571 1.433 . S
C570 C566 1.350 . S
C570 C567 1.463 . S
C570 N574 1.427 . S
C571 H561 0.929 . S
C571 C569 1.433 . S
C571 N574 1.384 . S
C572 H563 0.929 . S
C572 C564 1.378 . S
C572 C567 1.350 . S
C573 H560 0.929 . S
C573 C565 1.433 . S
C573 N575 1.384 . S
N574 C570 1.427 . S
N574 C571 1.384 . S
N575 C567 1.427 . S
N575 C573 1.384 . S
H576 C582 0.930 . S
H577 C586 0.930 . S
H578 C591 0.929 . S
H579 C589 0.929 . S
H580 C584 0.929 . S
H581 C590 0.929 . S
C582 H576 0.930 . S
C582 C583 1.367 . S
C582 C590 1.378 . S
C583 C582 1.367 . S
C583 C591 1.433 . S
C584 H580 0.929 . S
C584 C586 1.378 . S
C584 C588 1.350 . S
C585 C588 1.463 . S
C585 C590 1.350 . S
C585 N593 1.427 . S
C586 H577 0.930 . S
C586 C584 1.378 . S
C586 C587 1.367 . S
C587 C586 1.367 . S
C587 C589 1.433 . S
C588 C584 1.350 . S
C588 C585 1.463 . S
C588 N592 1.427 . S
C589 H579 0.929 . S
C589 C587 1.433 . S
C589 N592 1.384 . S
C590 H581 0.929 . S
C590 C582 1.378 . S
C590 C585 1.350 . S
C591 H578 0.929 . S
C591 C583 1.433 . S
C591 N593 1.384 . S
N592 C588 1.427 . S
N592 C589 1.384 . S
N593 C585 1.427 . S
N593 C591 1.384 . S
H594 C600 0.930 . S
H595 C604 0.930 . S
H596 C609 0.929 . S
H597 C607 0.929 . S
H598 C602 0.929 . S
H599 C608 0.929 . S
C600 H594 0.930 . S
C600 C601 1.367 . S
C600 C608 1.378 . S
C601 C600 1.367 . S
C601 C609 1.433 . S
C602 H598 0.929 . S
C602 C604 1.378 . S
C602 C606 1.350 . S
C603 C606 1.463 . S
C603 C608 1.350 . S
C603 N611 1.427 . S
C604 H595 0.930 . S
C604 C602 1.378 . S
C604 C605 1.367 . S
C605 C604 1.367 . S
C605 C607 1.433 . S
C606 C602 1.350 . S
C606 C603 1.463 . S
C606 N610 1.427 . S
C607 H597 0.929 . S
C607 C605 1.433 . S
C607 N610 1.384 . S
C608 H599 0.929 . S
C608 C600 1.378 . S
C608 C603 1.350 . S
C609 H596 0.929 . S
C609 C601 1.433 . S
C609 N611 1.384 . S
N610 C606 1.427 . S
N610 C607 1.384 . S
N611 C603 1.427 . S
N611 C609 1.384 . S
H612 C618 0.930 . S
H613 C622 0.930 . S
H614 C627 0.929 . S
H615 C625 0.929 . S
H616 C620 0.929 . S
H617 C626 0.929 . S
C618 H612 0.930 . S
C618 C619 1.367 . S
C618 C626 1.378 . S
C619 C618 1.367 . S
C619 C627 1.433 . S
C620 H616 0.929 . S
C620 C622 1.378 . S
C620 C624 1.350 . S
C621 C624 1.463 . S
C621 C626 1.350 . S
C621 N629 1.427 . S
C622 H613 0.930 . S
C622 C620 1.378 . S
C622 C623 1.367 . S
C623 C622 1.367 . S
C623 C625 1.433 . S
C624 C620 1.350 . S
C624 C621 1.463 . S
C624 N628 1.427 . S
C625 H615 0.929 . S
C625 C623 1.433 . S
C625 N628 1.384 . S
C626 H617 0.929 . S
C626 C618 1.378 . S
C626 C621 1.350 . S
C627 H614 0.929 . S
C627 C619 1.433 . S
C627 N629 1.384 . S
N628 C624 1.427 . S
N628 C625 1.384 . S
N629 C621 1.427 . S
N629 C627 1.384 . S
H630 C636 0.930 . S
H631 C640 0.930 . S
H632 C645 0.929 . S
H633 C643 0.929 . S
H634 C638 0.929 . S
H635 C644 0.929 . S
C636 H630 0.930 . S
C636 C637 1.367 . S
C636 C644 1.378 . S
C637 C636 1.367 . S
C637 C645 1.433 . S
C638 H634 0.929 . S
C638 C640 1.378 . S
C638 C642 1.350 . S
C639 C642 1.463 . S
C639 C644 1.350 . S
C639 N647 1.427 . S
C640 H631 0.930 . S
C640 C638 1.378 . S
C640 C641 1.367 . S
C641 C640 1.367 . S
C641 C643 1.433 . S
C642 C638 1.350 . S
C642 C639 1.463 . S
C642 N646 1.427 . S
C643 H633 0.929 . S
C643 C641 1.433 . S
C643 N646 1.384 . S
C644 H635 0.929 . S
C644 C636 1.378 . S
C644 C639 1.350 . S
C645 H632 0.929 . S
C645 C637 1.433 . S
C645 N647 1.384 . S
N646 C642 1.427 . S
N646 C643 1.384 . S
N647 C639 1.427 . S
N647 C645 1.384 . S
H648 C654 0.930 . S
H649 C658 0.930 . S
H650 C663 0.929 . S
H651 C661 0.929 . S
H652 C656 0.929 . S
H653 C662 0.929 . S
C654 H648 0.930 . S
C654 C655 1.367 . S
C654 C662 1.378 . S
C655 C654 1.367 . S
C655 C663 1.433 . S
C656 H652 0.929 . S
C656 C658 1.378 . S
C656 C660 1.350 . S
C657 C660 1.463 . S
C657 C662 1.350 . S
C657 N665 1.427 . S
C658 H649 0.930 . S
C658 C656 1.378 . S
C658 C659 1.367 . S
C659 C658 1.367 . S
C659 C661 1.433 . S
C660 C656 1.350 . S
C660 C657 1.463 . S
C660 N664 1.427 . S
C661 H651 0.929 . S
C661 C659 1.433 . S
C661 N664 1.384 . S
C662 H653 0.929 . S
C662 C654 1.378 . S
C662 C657 1.350 . S
C663 H650 0.929 . S
C663 C655 1.433 . S
C663 N665 1.384 . S
N664 C660 1.427 . S
N664 C661 1.384 . S
N665 C657 1.427 . S
N665 C663 1.384 . S
H666 C672 0.930 . S
H667 C676 0.930 . S
H668 C681 0.929 . S
H669 C679 0.929 . S
H670 C674 0.929 . S
H671 C680 0.929 . S
C672 H666 0.930 . S
C672 C673 1.367 . S
C672 C680 1.378 . S
C673 C672 1.367 . S
C673 C681 1.433 . S
C674 H670 0.929 . S
C674 C676 1.378 . S
C674 C678 1.350 . S
C675 C678 1.463 . S
C675 C680 1.350 . S
C675 N683 1.427 . S
C676 H667 0.930 . S
C676 C674 1.378 . S
C676 C677 1.367 . S
C677 C676 1.367 . S
C677 C679 1.433 . S
C678 C674 1.350 . S
C678 C675 1.463 . S
C678 N682 1.427 . S
C679 H669 0.929 . S
C679 C677 1.433 . S
C679 N682 1.384 . S
C680 H671 0.929 . S
C680 C672 1.378 . S
C680 C675 1.350 . S
C681 H668 0.929 . S
C681 C673 1.433 . S
C681 N683 1.384 . S
N682 C678 1.427 . S
N682 C679 1.384 . S
N683 C675 1.427 . S
N683 C681 1.384 . S
H684 C690 0.930 . S
H685 C694 0.930 . S
H686 C699 0.929 . S
H687 C697 0.929 . S
H688 C692 0.929 . S
H689 C698 0.929 . S
C690 H684 0.930 . S
C690 C691 1.367 . S
C690 C698 1.378 . S
C691 C690 1.367 . S
C691 C699 1.433 . S
C692 H688 0.929 . S
C692 C694 1.378 . S
C692 C696 1.350 . S
C693 C696 1.463 . S
C693 C698 1.350 . S
C693 N701 1.427 . S
C694 H685 0.930 . S
C694 C692 1.378 . S
C694 C695 1.367 . S
C695 C694 1.367 . S
C695 C697 1.433 . S
C696 C692 1.350 . S
C696 C693 1.463 . S
C696 N700 1.427 . S
C697 H687 0.929 . S
C697 C695 1.433 . S
C697 N700 1.384 . S
C698 H689 0.929 . S
C698 C690 1.378 . S
C698 C693 1.350 . S
C699 H686 0.929 . S
C699 C691 1.433 . S
C699 N701 1.384 . S
N700 C696 1.427 . S
N700 C697 1.384 . S
N701 C693 1.427 . S
N701 C699 1.384 . S
H702 C708 0.930 . S
H703 C712 0.930 . S
H704 C717 0.929 . S
H705 C715 0.929 . S
H706 C710 0.929 . S
H707 C716 0.929 . S
C708 H702 0.930 . S
C708 C709 1.367 . S
C708 C716 1.378 . S
C709 C708 1.367 . S
C709 C717 1.433 . S
C710 H706 0.929 . S
C710 C712 1.378 . S
C710 C714 1.350 . S
C711 C714 1.463 . S
C711 C716 1.350 . S
C711 N719 1.427 . S
C712 H703 0.930 . S
C712 C710 1.378 . S
C712 C713 1.367 . S
C713 C712 1.367 . S
C713 C715 1.433 . S
C714 C710 1.350 . S
C714 C711 1.463 . S
C714 N718 1.427 . S
C715 H705 0.929 . S
C715 C713 1.433 . S
C715 N718 1.384 . S
C716 H707 0.929 . S
C716 C708 1.378 . S
C716 C711 1.350 . S
C717 H704 0.929 . S
C717 C709 1.433 . S
C717 N719 1.384 . S
N718 C714 1.427 . S
N718 C715 1.384 . S
N719 C711 1.427 . S
N719 C717 1.384 . S
H720 C726 0.930 . S
H721 C730 0.930 . S
H722 C735 0.929 . S
H723 C733 0.929 . S
H724 C728 0.929 . S
H725 C734 0.929 . S
C726 H720 0.930 . S
C726 C727 1.367 . S
C726 C734 1.378 . S
C727 C726 1.367 . S
C727 C735 1.433 . S
C728 H724 0.929 . S
C728 C730 1.378 . S
C728 C732 1.350 . S
C729 C732 1.463 . S
C729 C734 1.350 . S
C729 N737 1.427 . S
C730 H721 0.930 . S
C730 C728 1.378 . S
C730 C731 1.367 . S
C731 C730 1.367 . S
C731 C733 1.433 . S
C732 C728 1.350 . S
C732 C729 1.463 . S
C732 N736 1.427 . S
C733 H723 0.929 . S
C733 C731 1.433 . S
C733 N736 1.384 . S
C734 H725 0.929 . S
C734 C726 1.378 . S
C734 C729 1.350 . S
C735 H722 0.929 . S
C735 C727 1.433 . S
C735 N737 1.384 . S
N736 C732 1.427 . S
N736 C733 1.384 . S
N737 C729 1.427 . S
N737 C735 1.384 . S
H738 C744 0.930 . S
H739 C748 0.930 . S
H740 C753 0.929 . S
H741 C751 0.929 . S
H742 C746 0.929 . S
H743 C752 0.929 . S
C744 H738 0.930 . S
C744 C745 1.367 . S
C744 C752 1.378 . S
C745 C744 1.367 . S
C745 C753 1.433 . S
C746 H742 0.929 . S
C746 C748 1.378 . S
C746 C750 1.350 . S
C747 C750 1.463 . S
C747 C752 1.350 . S
C747 N755 1.427 . S
C748 H739 0.930 . S
C748 C746 1.378 . S
C748 C749 1.367 . S
C749 C748 1.367 . S
C749 C751 1.433 . S
C750 C746 1.350 . S
C750 C747 1.463 . S
C750 N754 1.427 . S
C751 H741 0.929 . S
C751 C749 1.433 . S
C751 N754 1.384 . S
C752 H743 0.929 . S
C752 C744 1.378 . S
C752 C747 1.350 . S
C753 H740 0.929 . S
C753 C745 1.433 . S
C753 N755 1.384 . S
N754 C750 1.427 . S
N754 C751 1.384 . S
N755 C747 1.427 . S
N755 C753 1.384 . S
H756 C762 0.930 . S
H757 C766 0.930 . S
H758 C771 0.929 . S
H759 C769 0.929 . S
H760 C764 0.929 . S
H761 C770 0.929 . S
C762 H756 0.930 . S
C762 C763 1.367 . S
C762 C770 1.378 . S
C763 C762 1.367 . S
C763 C771 1.433 . S
C764 H760 0.929 . S
C764 C766 1.378 . S
C764 C768 1.350 . S
C765 C768 1.463 . S
C765 C770 1.350 . S
C765 N773 1.427 . S
C766 H757 0.930 . S
C766 C764 1.378 . S
C766 C767 1.367 . S
C767 C766 1.367 . S
C767 C769 1.433 . S
C768 C764 1.350 . S
C768 C765 1.463 . S
C768 N772 1.427 . S
C769 H759 0.929 . S
C769 C767 1.433 . S
C769 N772 1.384 . S
C770 H761 0.929 . S
C770 C762 1.378 . S
C770 C765 1.350 . S
C771 H758 0.929 . S
C771 C763 1.433 . S
C771 N773 1.384 . S
N772 C768 1.427 . S
N772 C769 1.384 . S
N773 C765 1.427 . S
N773 C771 1.384 . S
H774 C780 0.930 . S
H775 C784 0.930 . S
H776 C789 0.929 . S
H777 C787 0.929 . S
H778 C782 0.929 . S
H779 C788 0.929 . S
C780 H774 0.930 . S
C780 C781 1.367 . S
C780 C788 1.378 . S
C781 C780 1.367 . S
C781 C789 1.433 . S
C782 H778 0.929 . S
C782 C784 1.378 . S
C782 C786 1.350 . S
C783 C786 1.463 . S
C783 C788 1.350 . S
C783 N791 1.427 . S
C784 H775 0.930 . S
C784 C782 1.378 . S
C784 C785 1.367 . S
C785 C784 1.367 . S
C785 C787 1.433 . S
C786 C782 1.350 . S
C786 C783 1.463 . S
C786 N790 1.427 . S
C787 H777 0.929 . S
C787 C785 1.433 . S
C787 N790 1.384 . S
C788 H779 0.929 . S
C788 C780 1.378 . S
C788 C783 1.350 . S
C789 H776 0.929 . S
C789 C781 1.433 . S
C789 N791 1.384 . S
N790 C786 1.427 . S
N790 C787 1.384 . S
N791 C783 1.427 . S
N791 C789 1.384 . S
H792 C798 0.930 . S
H793 C802 0.930 . S
H794 C807 0.929 . S
H795 C805 0.929 . S
H796 C800 0.931 . S
H797 C806 0.931 . S
C798 H792 0.930 . S
C798 C799 1.367 . S
C798 C806 1.376 1_565 S
C799 C798 1.367 . S
C799 C807 1.433 . S
C800 H796 0.931 . S
C800 C802 1.377 1_565 S
C800 C804 1.349 1_565 S
C801 C804 1.463 1_566 S
C801 C806 1.349 1_565 S
C801 N809 1.427 . S
C802 H793 0.930 . S
C802 C800 1.377 1_545 S
C802 C803 1.367 . S
C803 C802 1.367 . S
C803 C805 1.433 . S
C804 C800 1.349 1_545 S
C804 C801 1.463 1_544 S
C804 N808 1.427 . S
C805 H795 0.929 . S
C805 C803 1.433 . S
C805 N808 1.384 . S
C806 H797 0.931 . S
C806 C798 1.376 1_545 S
C806 C801 1.349 1_545 S
C807 H794 0.929 . S
C807 C799 1.433 . S
C807 N809 1.384 . S
N808 C804 1.427 . S
N808 C805 1.384 . S
N809 C801 1.427 . S
N809 C807 1.384 . S
H810 C816 0.930 . S
H811 C820 0.930 . S
H812 C825 0.929 . S
H813 C823 0.929 . S
H814 C818 0.929 1_554 S
H815 C824 0.929 1_556 S
C816 H810 0.930 . S
C816 C817 1.367 . S
C816 C824 1.378 . S
C817 C816 1.367 . S
C817 C825 1.433 . S
C818 H814 0.929 1_556 S
C818 C820 1.378 . S
C818 C822 1.350 . S
C819 C822 1.463 1_654 S
C819 C824 1.350 . S
C819 N827 1.427 . S
C820 H811 0.930 . S
C820 C818 1.378 . S
C820 C821 1.367 . S
C821 C820 1.367 . S
C821 C823 1.433 . S
C822 C818 1.350 . S
C822 C819 1.463 1_456 S
C822 N826 1.427 . S
C823 H813 0.929 . S
C823 C821 1.433 . S
C823 N826 1.379 . S
C824 H815 0.929 1_554 S
C824 C816 1.378 . S
C824 C819 1.350 . S
C825 H812 0.929 . S
C825 C817 1.433 . S
C825 N827 1.379 . S
N826 C822 1.427 . S
N826 C823 1.379 . S
N827 C819 1.427 . S
N827 C825 1.379 . S
H828 C834 0.930 . S
H829 C838 0.930 . S
H830 C843 0.929 . S
H831 C841 0.929 . S
H832 C836 0.929 . S
H833 C842 0.929 . S
C834 H828 0.930 . S
C834 C835 1.367 . S
C834 C842 1.378 . S
C835 C834 1.367 . S
C835 C843 1.433 . S
C836 H832 0.929 . S
C836 C838 1.378 . S
C836 C840 1.350 . S
C837 C840 1.463 1_556 S
C837 C842 1.350 . S
C837 N845 1.427 . S
C838 H829 0.930 . S
C838 C836 1.378 . S
C838 C839 1.367 . S
C839 C838 1.367 . S
C839 C841 1.433 . S
C840 C836 1.350 . S
C840 C837 1.463 1_554 S
C840 N844 1.427 . S
C841 H831 0.929 . S
C841 C839 1.433 . S
C841 N844 1.384 . S
C842 H833 0.929 . S
C842 C834 1.378 . S
C842 C837 1.350 . S
C843 H830 0.929 . S
C843 C835 1.433 . S
C843 N845 1.384 . S
N844 C840 1.427 . S
N844 C841 1.384 . S
N845 C837 1.427 . S
N845 C843 1.384 . S
H846 C852 0.930 . S
H847 C856 0.930 . S
H848 C861 0.929 . S
H849 C859 0.929 . S
H850 C854 0.929 1_556 S
H851 C860 0.929 1_554 S
C852 H846 0.930 . S
C852 C853 1.367 . S
C852 C860 1.378 . S
C853 C852 1.367 . S
C853 C861 1.433 . S
C854 H850 0.929 1_554 S
C854 C856 1.378 . S
C854 C858 1.350 . S
C855 C858 1.463 1_566 S
C855 C860 1.350 . S
C855 N863 1.427 . S
C856 H847 0.930 . S
C856 C854 1.378 . S
C856 C857 1.367 . S
C857 C856 1.367 . S
C857 C859 1.433 . S
C858 C854 1.350 . S
C858 C855 1.463 1_544 S
C858 N862 1.427 . S
C859 H849 0.929 . S
C859 C857 1.433 . S
C859 N862 1.384 . S
C860 H851 0.929 1_556 S
C860 C852 1.378 . S
C860 C855 1.350 . S
C861 H848 0.929 . S
C861 C853 1.433 . S
C861 N863 1.384 . S
N862 C858 1.427 . S
N862 C859 1.384 . S
N863 C855 1.427 . S
N863 C861 1.384 . S
H864 C870 0.930 . S
H865 C874 0.930 . S
H866 C879 0.929 . S
H867 C877 0.929 . S
H868 C872 0.976 . S
H869 C878 0.977 . S
C870 H864 0.930 . S
C870 C871 1.367 . S
C870 C878 1.344 1_455 S
C871 C870 1.367 . S
C871 C879 1.433 . S
C872 H868 0.976 . S
C872 C874 1.344 1_455 S
C872 C876 1.339 1_455 S
C873 C876 1.463 1_456 S
C873 C878 1.339 1_455 S
C873 N881 1.427 . S
C874 H865 0.930 . S
C874 C872 1.344 1_655 S
C874 C875 1.367 . S
C875 C874 1.367 . S
C875 C877 1.433 . S
C876 C872 1.339 1_655 S
C876 C873 1.463 1_654 S
C876 N880 1.427 . S
C877 H867 0.929 . S
C877 C875 1.433 . S
C877 N880 1.384 . S
C878 H869 0.977 . S
C878 C870 1.344 1_655 S
C878 C873 1.339 1_655 S
C879 H866 0.929 . S
C879 C871 1.433 . S
C879 N881 1.384 . S
N880 C876 1.427 . S
N880 C877 1.384 . S
N881 C873 1.427 . S
N881 C879 1.384 . S
H882 C888 0.930 . S
H883 C892 0.930 . S
H884 C897 0.929 . S
H885 C895 0.929 . S
H886 C890 0.929 1_554 S
H887 C896 0.929 1_556 S
C888 H882 0.930 . S
C888 C889 1.367 . S
C888 C896 1.378 . S
C889 C888 1.367 . S
C889 C897 1.433 . S
C890 H886 0.929 1_556 S
C890 C892 1.378 . S
C890 C894 1.350 . S
C891 C894 1.463 1_554 S
C891 C896 1.350 . S
C891 N899 1.427 . S
C892 H883 0.930 . S
C892 C890 1.378 . S
C892 C893 1.367 . S
C893 C892 1.367 . S
C893 C895 1.433 . S
C894 C890 1.350 . S
C894 C891 1.463 1_556 S
C894 N898 1.427 . S
C895 H885 0.929 . S
C895 C893 1.433 . S
C895 N898 1.384 . S
C896 H887 0.929 1_554 S
C896 C888 1.378 . S
C896 C891 1.350 . S
C897 H884 0.929 . S
C897 C889 1.433 . S
C897 N899 1.384 . S
N898 C894 1.427 . S
N898 C895 1.384 . S
N899 C891 1.427 . S
N899 C897 1.384 . S
H900 C906 0.930 . S
H901 C910 0.930 . S
H902 C915 0.929 . S
H903 C913 0.929 . S
H904 C908 0.929 . S
H905 C914 0.929 . S
C906 H900 0.930 . S
C906 C907 1.367 . S
C906 C914 1.378 . S
C907 C906 1.367 . S
C907 C915 1.433 . S
C908 H904 0.929 . S
C908 C910 1.378 . S
C908 C912 1.350 . S
C909 C912 1.463 . S
C909 C914 1.350 . S
C909 N917 1.427 . S
C910 H901 0.930 . S
C910 C908 1.378 . S
C910 C911 1.367 . S
C911 C910 1.367 . S
C911 C913 1.433 . S
C912 C908 1.350 . S
C912 C909 1.463 . S
C912 N916 1.427 . S
C913 H903 0.929 . S
C913 C911 1.433 . S
C913 N916 1.384 . S
C914 H905 0.929 . S
C914 C906 1.378 . S
C914 C909 1.350 . S
C915 H902 0.929 . S
C915 C907 1.433 . S
C915 N917 1.384 . S
N916 C912 1.427 . S
N916 C913 1.384 . S
N917 C909 1.427 . S
N917 C915 1.384 . S
H918 C924 0.930 . S
H919 C928 0.930 . S
H920 C933 0.929 . S
H921 C931 0.929 . S
H922 C926 0.929 . S
H923 C932 0.929 . S
C924 H918 0.930 . S
C924 C925 1.367 . S
C924 C932 1.378 . S
C925 C924 1.367 . S
C925 C933 1.433 . S
C926 H922 0.929 . S
C926 C928 1.378 . S
C926 C930 1.350 . S
C927 C930 1.463 . S
C927 C932 1.350 . S
C927 N935 1.427 . S
C928 H919 0.930 . S
C928 C926 1.378 . S
C928 C929 1.367 . S
C929 C928 1.367 . S
C929 C931 1.433 . S
C930 C926 1.350 . S
C930 C927 1.463 . S
C930 N934 1.427 . S
C931 H921 0.929 . S
C931 C929 1.433 . S
C931 N934 1.384 . S
C932 H923 0.929 . S
C932 C924 1.378 . S
C932 C927 1.350 . S
C933 H920 0.929 . S
C933 C925 1.433 . S
C933 N935 1.384 . S
N934 C930 1.427 . S
N934 C931 1.384 . S
N935 C927 1.427 . S
N935 C933 1.384 . S
H936 C942 0.930 . S
H937 C946 0.930 . S
H938 C951 0.929 . S
H939 C949 0.929 . S
H940 C944 0.929 . S
H941 C950 0.929 . S
C942 H936 0.930 . S
C942 C943 1.367 . S
C942 C950 1.378 . S
C943 C942 1.367 . S
C943 C951 1.433 . S
C944 H940 0.929 . S
C944 C946 1.378 . S
C944 C948 1.350 . S
C945 C948 1.463 . S
C945 C950 1.350 . S
C945 N953 1.427 . S
C946 H937 0.930 . S
C946 C944 1.378 . S
C946 C947 1.367 . S
C947 C946 1.367 . S
C947 C949 1.433 . S
C948 C944 1.350 . S
C948 C945 1.463 . S
C948 N952 1.427 . S
C949 H939 0.929 . S
C949 C947 1.433 . S
C949 N952 1.384 . S
C950 H941 0.929 . S
C950 C942 1.378 . S
C950 C945 1.350 . S
C951 H938 0.929 . S
C951 C943 1.433 . S
C951 N953 1.384 . S
N952 C948 1.427 . S
N952 C949 1.384 . S
N953 C945 1.427 . S
N953 C951 1.384 . S
H954 C960 0.930 . S
H955 C964 0.930 . S
H956 C969 0.929 . S
H957 C967 0.929 . S
H958 C962 0.929 . S
H959 C968 0.929 . S
C960 H954 0.930 . S
C960 C961 1.367 . S
C960 C968 1.378 . S
C961 C960 1.367 . S
C961 C969 1.433 . S
C962 H958 0.929 . S
C962 C964 1.378 . S
C962 C966 1.350 . S
C963 C966 1.463 . S
C963 C968 1.350 . S
C963 N971 1.427 . S
C964 H955 0.930 . S
C964 C962 1.378 . S
C964 C965 1.367 . S
C965 C964 1.367 . S
C965 C967 1.433 . S
C966 C962 1.350 . S
C966 C963 1.463 . S
C966 N970 1.427 . S
C967 H957 0.929 . S
C967 C965 1.433 . S
C967 N970 1.384 . S
C968 H959 0.929 . S
C968 C960 1.378 . S
C968 C963 1.350 . S
C969 H956 0.929 . S
C969 C961 1.433 . S
C969 N971 1.384 . S
N970 C966 1.427 . S
N970 C967 1.384 . S
N971 C963 1.427 . S
N971 C969 1.384 . S
H972 C978 0.930 . S
H973 C982 0.930 . S
H974 C987 0.929 . S
H975 C985 0.929 . S
H976 C980 0.929 . S
H977 C986 0.929 . S
C978 H972 0.930 . S
C978 C979 1.367 . S
C978 C986 1.378 . S
C979 C978 1.367 . S
C979 C987 1.433 . S
C980 H976 0.929 . S
C980 C982 1.378 . S
C980 C984 1.350 . S
C981 C984 1.463 . S
C981 C986 1.350 . S
C981 N989 1.427 . S
C982 H973 0.930 . S
C982 C980 1.378 . S
C982 C983 1.367 . S
C983 C982 1.367 . S
C983 C985 1.433 . S
C984 C980 1.350 . S
C984 C981 1.463 . S
C984 N988 1.427 . S
C985 H975 0.929 . S
C985 C983 1.433 . S
C985 N988 1.384 . S
C986 H977 0.929 . S
C986 C978 1.378 . S
C986 C981 1.350 . S
C987 H974 0.929 . S
C987 C979 1.433 . S
C987 N989 1.384 . S
N988 C984 1.427 . S
N988 C985 1.384 . S
N989 C981 1.427 . S
N989 C987 1.384 . S
H990 C996 0.930 . S
H991 C1000 0.930 . S
H992 C1005 0.929 . S
H993 C1003 0.929 . S
H994 C998 0.929 . S
H995 C1004 0.929 . S
C996 H990 0.930 . S
C996 C997 1.367 . S
C996 C1004 1.378 . S
C997 C996 1.367 . S
C997 C1005 1.433 . S
C998 H994 0.929 . S
C998 C1000 1.378 . S
C998 C1002 1.350 . S
C999 C1002 1.463 . S
C999 C1004 1.350 . S
C999 N1007 1.427 . S
C1000 H991 0.930 . S
C1000 C998 1.378 . S
C1000 C1001 1.367 . S
C1001 C1000 1.367 . S
C1001 C1003 1.433 . S
C1002 C998 1.350 . S
C1002 C999 1.463 . S
C1002 N1006 1.427 . S
C1003 H993 0.929 . S
C1003 C1001 1.433 . S
C1003 N1006 1.384 . S
C1004 H995 0.929 . S
C1004 C996 1.378 . S
C1004 C999 1.350 . S
C1005 H992 0.929 . S
C1005 C997 1.433 . S
C1005 N1007 1.384 . S
N1006 C1002 1.427 . S
N1006 C1003 1.384 . S
N1007 C999 1.427 . S
N1007 C1005 1.384 . S
H1008 C1014 0.930 . S
H1009 C1018 0.930 . S
H1010 C1023 0.929 . S
H1011 C1021 0.929 . S
H1012 C1016 0.929 . S
H1013 C1022 0.929 . S
C1014 H1008 0.930 . S
C1014 C1015 1.367 . S
C1014 C1022 1.378 . S
C1015 C1014 1.367 . S
C1015 C1023 1.433 . S
C1016 H1012 0.929 . S
C1016 C1018 1.378 . S
C1016 C1020 1.350 . S
C1017 C1020 1.463 . S
C1017 C1022 1.350 . S
C1017 N1025 1.427 . S
C1018 H1009 0.930 . S
C1018 C1016 1.378 . S
C1018 C1019 1.367 . S
C1019 C1018 1.367 . S
C1019 C1021 1.433 . S
C1020 C1016 1.350 . S
C1020 C1017 1.463 . S
C1020 N1024 1.427 . S
C1021 H1011 0.929 . S
C1021 C1019 1.433 . S
C1021 N1024 1.384 . S
C1022 H1013 0.929 . S
C1022 C1014 1.378 . S
C1022 C1017 1.350 . S
C1023 H1010 0.929 . S
C1023 C1015 1.433 . S
C1023 N1025 1.384 . S
N1024 C1020 1.427 . S
N1024 C1021 1.384 . S
N1025 C1017 1.427 . S
N1025 C1023 1.384 . S
H1026 C1032 0.930 . S
H1027 C1036 0.930 . S
H1028 C1041 0.929 . S
H1029 C1039 0.929 . S
H1030 C1034 0.929 . S
H1031 C1040 0.929 . S
C1032 H1026 0.930 . S
C1032 C1033 1.367 . S
C1032 C1040 1.378 . S
C1033 C1032 1.367 . S
C1033 C1041 1.433 . S
C1034 H1030 0.929 . S
C1034 C1036 1.378 . S
C1034 C1038 1.350 . S
C1035 C1038 1.463 . S
C1035 C1040 1.350 . S
C1035 N1043 1.427 . S
C1036 H1027 0.930 . S
C1036 C1034 1.378 . S
C1036 C1037 1.367 . S
C1037 C1036 1.367 . S
C1037 C1039 1.433 . S
C1038 C1034 1.350 . S
C1038 C1035 1.463 . S
C1038 N1042 1.427 . S
C1039 H1029 0.929 . S
C1039 C1037 1.433 . S
C1039 N1042 1.384 . S
C1040 H1031 0.929 . S
C1040 C1032 1.378 . S
C1040 C1035 1.350 . S
C1041 H1028 0.929 . S
C1041 C1033 1.433 . S
C1041 N1043 1.384 . S
N1042 C1038 1.427 . S
N1042 C1039 1.384 . S
N1043 C1035 1.427 . S
N1043 C1041 1.384 . S
H1044 C1050 0.930 . S
H1045 C1054 0.930 . S
H1046 C1059 0.929 . S
H1047 C1057 0.929 . S
H1048 C1052 0.929 . S
H1049 C1058 0.929 . S
C1050 H1044 0.930 . S
C1050 C1051 1.367 . S
C1050 C1058 1.378 . S
C1051 C1050 1.367 . S
C1051 C1059 1.433 . S
C1052 H1048 0.929 . S
C1052 C1054 1.378 . S
C1052 C1056 1.350 . S
C1053 C1056 1.463 . S
C1053 C1058 1.350 . S
C1053 N1061 1.427 . S
C1054 H1045 0.930 . S
C1054 C1052 1.378 . S
C1054 C1055 1.367 . S
C1055 C1054 1.367 . S
C1055 C1057 1.433 . S
C1056 C1052 1.350 . S
C1056 C1053 1.463 . S
C1056 N1060 1.427 . S
C1057 H1047 0.929 . S
C1057 C1055 1.433 . S
C1057 N1060 1.384 . S
C1058 H1049 0.929 . S
C1058 C1050 1.378 . S
C1058 C1053 1.350 . S
C1059 H1046 0.929 . S
C1059 C1051 1.433 . S
C1059 N1061 1.384 . S
N1060 C1056 1.427 . S
N1060 C1057 1.384 . S
N1061 C1053 1.427 . S
N1061 C1059 1.384 . S
H1062 C1068 0.930 . S
H1063 C1072 0.930 . S
H1064 C1077 0.929 . S
H1065 C1075 0.929 . S
H1066 C1070 0.929 . S
H1067 C1076 0.929 . S
C1068 H1062 0.930 . S
C1068 C1069 1.367 . S
C1068 C1076 1.378 . S
C1069 C1068 1.367 . S
C1069 C1077 1.433 . S
C1070 H1066 0.929 . S
C1070 C1072 1.378 . S
C1070 C1074 1.350 . S
C1071 C1074 1.463 . S
C1071 C1076 1.350 . S
C1071 N1079 1.427 . S
C1072 H1063 0.930 . S
C1072 C1070 1.378 . S
C1072 C1073 1.367 . S
C1073 C1072 1.367 . S
C1073 C1075 1.433 . S
C1074 C1070 1.350 . S
C1074 C1071 1.463 . S
C1074 N1078 1.427 . S
C1075 H1065 0.929 . S
C1075 C1073 1.433 . S
C1075 N1078 1.384 . S
C1076 H1067 0.929 . S
C1076 C1068 1.378 . S
C1076 C1071 1.350 . S
C1077 H1064 0.929 . S
C1077 C1069 1.433 . S
C1077 N1079 1.384 . S
N1078 C1074 1.427 . S
N1078 C1075 1.384 . S
N1079 C1071 1.427 . S
N1079 C1077 1.384 . S
H1080 C1086 0.930 . S
H1081 C1090 0.930 . S
H1082 C1095 0.929 . S
H1083 C1093 0.929 . S
H1084 C1088 0.929 . S
H1085 C1094 0.929 . S
C1086 H1080 0.930 . S
C1086 C1087 1.367 . S
C1086 C1094 1.378 . S
C1087 C1086 1.367 . S
C1087 C1095 1.433 . S
C1088 H1084 0.929 . S
C1088 C1090 1.378 . S
C1088 C1092 1.350 . S
C1089 C1092 1.463 . S
C1089 C1094 1.350 . S
C1089 N1097 1.427 . S
C1090 H1081 0.930 . S
C1090 C1088 1.378 . S
C1090 C1091 1.367 . S
C1091 C1090 1.367 . S
C1091 C1093 1.433 . S
C1092 C1088 1.350 . S
C1092 C1089 1.463 . S
C1092 N1096 1.427 . S
C1093 H1083 0.929 . S
C1093 C1091 1.433 . S
C1093 N1096 1.384 . S
C1094 H1085 0.929 . S
C1094 C1086 1.378 . S
C1094 C1089 1.350 . S
C1095 H1082 0.929 . S
C1095 C1087 1.433 . S
C1095 N1097 1.384 . S
N1096 C1092 1.427 . S
N1096 C1093 1.384 . S
N1097 C1089 1.427 . S
N1097 C1095 1.384 . S
H1098 C1104 0.930 . S
H1099 C1108 0.930 . S
H1100 C1113 0.929 . S
H1101 C1111 0.929 . S
H1102 C1106 0.929 . S
H1103 C1112 0.929 . S
C1104 H1098 0.930 . S
C1104 C1105 1.367 . S
C1104 C1112 1.378 . S
C1105 C1104 1.367 . S
C1105 C1113 1.433 . S
C1106 H1102 0.929 . S
C1106 C1108 1.378 . S
C1106 C1110 1.350 . S
C1107 C1110 1.463 . S
C1107 C1112 1.350 . S
C1107 N1115 1.427 . S
C1108 H1099 0.930 . S
C1108 C1106 1.378 . S
C1108 C1109 1.367 . S
C1109 C1108 1.367 . S
C1109 C1111 1.433 . S
C1110 C1106 1.350 . S
C1110 C1107 1.463 . S
C1110 N1114 1.427 . S
C1111 H1101 0.929 . S
C1111 C1109 1.433 . S
C1111 N1114 1.384 . S
C1112 H1103 0.929 . S
C1112 C1104 1.378 . S
C1112 C1107 1.350 . S
C1113 H1100 0.929 . S
C1113 C1105 1.433 . S
C1113 N1115 1.384 . S
N1114 C1110 1.427 . S
N1114 C1111 1.384 . S
N1115 C1107 1.427 . S
N1115 C1113 1.384 . S
H1116 C1122 0.930 . S
H1117 C1126 0.930 . S
H1118 C1131 0.929 . S
H1119 C1129 0.929 . S
H1120 C1124 0.929 . S
H1121 C1130 0.929 . S
C1122 H1116 0.930 . S
C1122 C1123 1.367 . S
C1122 C1130 1.378 . S
C1123 C1122 1.367 . S
C1123 C1131 1.433 . S
C1124 H1120 0.929 . S
C1124 C1126 1.378 . S
C1124 C1128 1.350 . S
C1125 C1128 1.463 . S
C1125 C1130 1.350 . S
C1125 N1133 1.427 . S
C1126 H1117 0.930 . S
C1126 C1124 1.378 . S
C1126 C1127 1.367 . S
C1127 C1126 1.367 . S
C1127 C1129 1.433 . S
C1128 C1124 1.350 . S
C1128 C1125 1.463 . S
C1128 N1132 1.427 . S
C1129 H1119 0.929 . S
C1129 C1127 1.433 . S
C1129 N1132 1.384 . S
C1130 H1121 0.929 . S
C1130 C1122 1.378 . S
C1130 C1125 1.350 . S
C1131 H1118 0.929 . S
C1131 C1123 1.433 . S
C1131 N1133 1.384 . S
N1132 C1128 1.427 . S
N1132 C1129 1.384 . S
N1133 C1125 1.427 . S
N1133 C1131 1.384 . S
H1134 C1140 0.930 . S
H1135 C1144 0.930 . S
H1136 C1149 0.929 . S
H1137 C1147 0.929 . S
H1138 C1142 0.929 . S
H1139 C1148 0.929 . S
C1140 H1134 0.930 . S
C1140 C1141 1.367 . S
C1140 C1148 1.378 . S
C1141 C1140 1.367 . S
C1141 C1149 1.433 . S
C1142 H1138 0.929 . S
C1142 C1144 1.378 . S
C1142 C1146 1.350 . S
C1143 C1146 1.463 . S
C1143 C1148 1.350 . S
C1143 N1151 1.427 . S
C1144 H1135 0.930 . S
C1144 C1142 1.378 . S
C1144 C1145 1.367 . S
C1145 C1144 1.367 . S
C1145 C1147 1.433 . S
C1146 C1142 1.350 . S
C1146 C1143 1.463 . S
C1146 N1150 1.427 . S
C1147 H1137 0.929 . S
C1147 C1145 1.433 . S
C1147 N1150 1.384 . S
C1148 H1139 0.929 . S
C1148 C1140 1.378 . S
C1148 C1143 1.350 . S
C1149 H1136 0.929 . S
C1149 C1141 1.433 . S
C1149 N1151 1.384 . S
N1150 C1146 1.427 . S
N1150 C1147 1.384 . S
N1151 C1143 1.427 . S
N1151 C1149 1.384 . S
H1152 C1158 0.930 . S
H1153 C1162 0.930 . S
H1154 C1167 0.929 . S
H1155 C1165 0.929 . S
H1156 C1160 0.929 . S
H1157 C1166 0.929 . S
C1158 H1152 0.930 . S
C1158 C1159 1.367 . S
C1158 C1166 1.378 . S
C1159 C1158 1.367 . S
C1159 C1167 1.433 . S
C1160 H1156 0.929 . S
C1160 C1162 1.378 . S
C1160 C1164 1.350 . S
C1161 C1164 1.463 . S
C1161 C1166 1.350 . S
C1161 N1169 1.427 . S
C1162 H1153 0.930 . S
C1162 C1160 1.378 . S
C1162 C1163 1.367 . S
C1163 C1162 1.367 . S
C1163 C1165 1.433 . S
C1164 C1160 1.350 . S
C1164 C1161 1.463 . S
C1164 N1168 1.427 . S
C1165 H1155 0.929 . S
C1165 C1163 1.433 . S
C1165 N1168 1.384 . S
C1166 H1157 0.929 . S
C1166 C1158 1.378 . S
C1166 C1161 1.350 . S
C1167 H1154 0.929 . S
C1167 C1159 1.433 . S
C1167 N1169 1.384 . S
N1168 C1164 1.427 . S
N1168 C1165 1.384 . S
N1169 C1161 1.427 . S
N1169 C1167 1.384 . S
H1170 C1176 0.930 . S
H1171 C1180 0.930 . S
H1172 C1185 0.929 . S
H1173 C1183 0.929 . S
H1174 C1178 0.929 . S
H1175 C1184 0.929 . S
C1176 H1170 0.930 . S
C1176 C1177 1.367 . S
C1176 C1184 1.378 . S
C1177 C1176 1.367 . S
C1177 C1185 1.433 . S
C1178 H1174 0.929 . S
C1178 C1180 1.378 . S
C1178 C1182 1.350 . S
C1179 C1182 1.463 . S
C1179 C1184 1.350 . S
C1179 N1187 1.427 . S
C1180 H1171 0.930 . S
C1180 C1178 1.378 . S
C1180 C1181 1.367 . S
C1181 C1180 1.367 . S
C1181 C1183 1.433 . S
C1182 C1178 1.350 . S
C1182 C1179 1.463 . S
C1182 N1186 1.427 . S
C1183 H1173 0.929 . S
C1183 C1181 1.433 . S
C1183 N1186 1.384 . S
C1184 H1175 0.929 . S
C1184 C1176 1.378 . S
C1184 C1179 1.350 . S
C1185 H1172 0.929 . S
C1185 C1177 1.433 . S
C1185 N1187 1.384 . S
N1186 C1182 1.427 . S
N1186 C1183 1.384 . S
N1187 C1179 1.427 . S
N1187 C1185 1.384 . S
H1188 C1194 0.930 . S
H1189 C1198 0.930 . S
H1190 C1203 0.929 . S
H1191 C1201 0.929 . S
H1192 C1196 0.929 . S
H1193 C1202 0.929 . S
C1194 H1188 0.930 . S
C1194 C1195 1.367 . S
C1194 C1202 1.378 . S
C1195 C1194 1.367 . S
C1195 C1203 1.433 . S
C1196 H1192 0.929 . S
C1196 C1198 1.378 . S
C1196 C1200 1.350 . S
C1197 C1200 1.463 . S
C1197 C1202 1.350 . S
C1197 N1205 1.427 . S
C1198 H1189 0.930 . S
C1198 C1196 1.378 . S
C1198 C1199 1.367 . S
C1199 C1198 1.367 . S
C1199 C1201 1.433 . S
C1200 C1196 1.350 . S
C1200 C1197 1.463 . S
C1200 N1204 1.427 . S
C1201 H1191 0.929 . S
C1201 C1199 1.433 . S
C1201 N1204 1.384 . S
C1202 H1193 0.929 . S
C1202 C1194 1.378 . S
C1202 C1197 1.350 . S
C1203 H1190 0.929 . S
C1203 C1195 1.433 . S
C1203 N1205 1.384 . S
N1204 C1200 1.427 . S
N1204 C1201 1.384 . S
N1205 C1197 1.427 . S
N1205 C1203 1.384 . S
H1206 C1212 0.930 . S
H1207 C1216 0.930 . S
H1208 C1221 0.929 . S
H1209 C1219 0.929 . S
H1210 C1214 0.929 . S
H1211 C1220 0.929 . S
C1212 H1206 0.930 . S
C1212 C1213 1.367 . S
C1212 C1220 1.378 . S
C1213 C1212 1.367 . S
C1213 C1221 1.433 . S
C1214 H1210 0.929 . S
C1214 C1216 1.378 . S
C1214 C1218 1.350 . S
C1215 C1218 1.463 . S
C1215 C1220 1.350 . S
C1215 N1223 1.427 . S
C1216 H1207 0.930 . S
C1216 C1214 1.378 . S
C1216 C1217 1.367 . S
C1217 C1216 1.367 . S
C1217 C1219 1.433 . S
C1218 C1214 1.350 . S
C1218 C1215 1.463 . S
C1218 N1222 1.427 . S
C1219 H1209 0.929 . S
C1219 C1217 1.433 . S
C1219 N1222 1.384 . S
C1220 H1211 0.929 . S
C1220 C1212 1.378 . S
C1220 C1215 1.350 . S
C1221 H1208 0.929 . S
C1221 C1213 1.433 . S
C1221 N1223 1.384 . S
N1222 C1218 1.427 . S
N1222 C1219 1.384 . S
N1223 C1215 1.427 . S
N1223 C1221 1.384 . S
H1224 C1230 0.930 . S
H1225 C1234 0.930 . S
H1226 C1239 0.929 . S
H1227 C1237 0.929 . S
H1228 C1232 0.929 . S
H1229 C1238 0.929 . S
C1230 H1224 0.930 . S
C1230 C1231 1.367 . S
C1230 C1238 1.378 . S
C1231 C1230 1.367 . S
C1231 C1239 1.433 . S
C1232 H1228 0.929 . S
C1232 C1234 1.378 . S
C1232 C1236 1.350 . S
C1233 C1236 1.463 . S
C1233 C1238 1.350 . S
C1233 N1241 1.427 . S
C1234 H1225 0.930 . S
C1234 C1232 1.378 . S
C1234 C1235 1.367 . S
C1235 C1234 1.367 . S
C1235 C1237 1.433 . S
C1236 C1232 1.350 . S
C1236 C1233 1.463 . S
C1236 N1240 1.427 . S
C1237 H1227 0.929 . S
C1237 C1235 1.433 . S
C1237 N1240 1.384 . S
C1238 H1229 0.929 . S
C1238 C1230 1.378 . S
C1238 C1233 1.350 . S
C1239 H1226 0.929 . S
C1239 C1231 1.433 . S
C1239 N1241 1.384 . S
N1240 C1236 1.427 . S
N1240 C1237 1.384 . S
N1241 C1233 1.427 . S
N1241 C1239 1.384 . S
H1242 C1248 0.930 . S
H1243 C1252 0.930 . S
H1244 C1257 0.929 . S
H1245 C1255 0.929 . S
H1246 C1250 0.929 . S
H1247 C1256 0.929 . S
C1248 H1242 0.930 . S
C1248 C1249 1.367 . S
C1248 C1256 1.378 . S
C1249 C1248 1.367 . S
C1249 C1257 1.433 . S
C1250 H1246 0.929 . S
C1250 C1252 1.378 . S
C1250 C1254 1.350 . S
C1251 C1254 1.463 . S
C1251 C1256 1.350 . S
C1251 N1259 1.427 . S
C1252 H1243 0.930 . S
C1252 C1250 1.378 . S
C1252 C1253 1.367 . S
C1253 C1252 1.367 . S
C1253 C1255 1.433 . S
C1254 C1250 1.350 . S
C1254 C1251 1.463 . S
C1254 N1258 1.427 . S
C1255 H1245 0.929 . S
C1255 C1253 1.433 . S
C1255 N1258 1.384 . S
C1256 H1247 0.929 . S
C1256 C1248 1.378 . S
C1256 C1251 1.350 . S
C1257 H1244 0.929 . S
C1257 C1249 1.433 . S
C1257 N1259 1.384 . S
N1258 C1254 1.427 . S
N1258 C1255 1.384 . S
N1259 C1251 1.427 . S
N1259 C1257 1.384 . S
H1260 C1266 0.930 . S
H1261 C1270 0.930 . S
H1262 C1275 0.929 . S
H1263 C1273 0.929 . S
H1264 C1268 0.929 . S
H1265 C1274 0.929 . S
C1266 H1260 0.930 . S
C1266 C1267 1.367 . S
C1266 C1274 1.378 . S
C1267 C1266 1.367 . S
C1267 C1275 1.433 . S
C1268 H1264 0.929 . S
C1268 C1270 1.378 . S
C1268 C1272 1.350 . S
C1269 C1272 1.463 . S
C1269 C1274 1.350 . S
C1269 N1277 1.427 . S
C1270 H1261 0.930 . S
C1270 C1268 1.378 . S
C1270 C1271 1.367 . S
C1271 C1270 1.367 . S
C1271 C1273 1.433 . S
C1272 C1268 1.350 . S
C1272 C1269 1.463 . S
C1272 N1276 1.427 . S
C1273 H1263 0.929 . S
C1273 C1271 1.433 . S
C1273 N1276 1.384 . S
C1274 H1265 0.929 . S
C1274 C1266 1.378 . S
C1274 C1269 1.350 . S
C1275 H1262 0.929 . S
C1275 C1267 1.433 . S
C1275 N1277 1.384 . S
N1276 C1272 1.427 . S
N1276 C1273 1.384 . S
N1277 C1269 1.427 . S
N1277 C1275 1.384 . S
H1278 C1284 0.930 . S
H1279 C1288 0.930 . S
H1280 C1293 0.929 . S
H1281 C1291 0.929 . S
H1282 C1286 0.929 . S
H1283 C1292 0.929 . S
C1284 H1278 0.930 . S
C1284 C1285 1.367 . S
C1284 C1292 1.378 . S
C1285 C1284 1.367 . S
C1285 C1293 1.433 . S
C1286 H1282 0.929 . S
C1286 C1288 1.378 . S
C1286 C1290 1.350 . S
C1287 C1290 1.463 . S
C1287 C1292 1.350 . S
C1287 N1295 1.427 . S
C1288 H1279 0.930 . S
C1288 C1286 1.378 . S
C1288 C1289 1.367 . S
C1289 C1288 1.367 . S
C1289 C1291 1.433 . S
C1290 C1286 1.350 . S
C1290 C1287 1.463 . S
C1290 N1294 1.427 . S
C1291 H1281 0.929 . S
C1291 C1289 1.433 . S
C1291 N1294 1.384 . S
C1292 H1283 0.929 . S
C1292 C1284 1.378 . S
C1292 C1287 1.350 . S
C1293 H1280 0.929 . S
C1293 C1285 1.433 . S
C1293 N1295 1.384 . S
N1294 C1290 1.427 . S
N1294 C1291 1.384 . S
N1295 C1287 1.427 . S
N1295 C1293 1.384 . S
H1296 C1302 0.930 . S
H1297 C1306 0.930 . S
H1298 C1311 0.929 . S
H1299 C1309 0.929 . S
H1300 C1304 0.929 . S
H1301 C1310 0.929 . S
C1302 H1296 0.930 . S
C1302 C1303 1.367 . S
C1302 C1310 1.378 . S
C1303 C1302 1.367 . S
C1303 C1311 1.433 . S
C1304 H1300 0.929 . S
C1304 C1306 1.378 . S
C1304 C1308 1.350 . S
C1305 C1308 1.463 . S
C1305 C1310 1.350 . S
C1305 N1313 1.427 . S
C1306 H1297 0.930 . S
C1306 C1304 1.378 . S
C1306 C1307 1.367 . S
C1307 C1306 1.367 . S
C1307 C1309 1.433 . S
C1308 C1304 1.350 . S
C1308 C1305 1.463 . S
C1308 N1312 1.427 . S
C1309 H1299 0.929 . S
C1309 C1307 1.433 . S
C1309 N1312 1.384 . S
C1310 H1301 0.929 . S
C1310 C1302 1.378 . S
C1310 C1305 1.350 . S
C1311 H1298 0.929 . S
C1311 C1303 1.433 . S
C1311 N1313 1.384 . S
N1312 C1308 1.427 . S
N1312 C1309 1.384 . S
N1313 C1305 1.427 . S
N1313 C1311 1.384 . S
H1314 C1320 0.930 . S
H1315 C1324 0.930 . S
H1316 C1329 0.929 . S
H1317 C1327 0.929 . S
H1318 C1322 0.929 . S
H1319 C1328 0.929 . S
C1320 H1314 0.930 . S
C1320 C1321 1.367 . S
C1320 C1328 1.378 . S
C1321 C1320 1.367 . S
C1321 C1329 1.433 . S
C1322 H1318 0.929 . S
C1322 C1324 1.378 . S
C1322 C1326 1.350 . S
C1323 C1326 1.463 . S
C1323 C1328 1.350 . S
C1323 N1331 1.427 . S
C1324 H1315 0.930 . S
C1324 C1322 1.378 . S
C1324 C1325 1.367 . S
C1325 C1324 1.367 . S
C1325 C1327 1.433 . S
C1326 C1322 1.350 . S
C1326 C1323 1.463 . S
C1326 N1330 1.427 . S
C1327 H1317 0.929 . S
C1327 C1325 1.433 . S
C1327 N1330 1.384 . S
C1328 H1319 0.929 . S
C1328 C1320 1.378 . S
C1328 C1323 1.350 . S
C1329 H1316 0.929 . S
C1329 C1321 1.433 . S
C1329 N1331 1.384 . S
N1330 C1326 1.427 . S
N1330 C1327 1.384 . S
N1331 C1323 1.427 . S
N1331 C1329 1.384 . S
H1332 C1338 0.930 . S
H1333 C1342 0.930 . S
H1334 C1347 0.929 . S
H1335 C1345 0.929 . S
H1336 C1340 0.929 . S
H1337 C1346 0.929 . S
C1338 H1332 0.930 . S
C1338 C1339 1.367 . S
C1338 C1346 1.378 . S
C1339 C1338 1.367 . S
C1339 C1347 1.433 . S
C1340 H1336 0.929 . S
C1340 C1342 1.378 . S
C1340 C1344 1.350 . S
C1341 C1344 1.463 1_455 S
C1341 C1346 1.350 . S
C1341 N1349 1.427 . S
C1342 H1333 0.930 . S
C1342 C1340 1.378 . S
C1342 C1343 1.367 . S
C1343 C1342 1.367 . S
C1343 C1345 1.433 . S
C1344 C1340 1.350 . S
C1344 C1341 1.463 1_655 S
C1344 N1348 1.427 . S
C1345 H1335 0.929 . S
C1345 C1343 1.433 . S
C1345 N1348 1.384 . S
C1346 H1337 0.929 . S
C1346 C1338 1.378 . S
C1346 C1341 1.350 . S
C1347 H1334 0.929 . S
C1347 C1339 1.433 . S
C1347 N1349 1.384 . S
N1348 C1344 1.427 . S
N1348 C1345 1.384 . S
N1349 C1341 1.427 . S
N1349 C1347 1.384 . S
H1350 C1356 0.930 . S
H1351 C1360 0.930 . S
H1352 C1365 0.929 . S
H1353 C1363 0.929 . S
H1354 C1358 0.929 . S
H1355 C1364 0.929 . S
C1356 H1350 0.930 . S
C1356 C1357 1.367 . S
C1356 C1364 1.378 . S
C1357 C1356 1.367 . S
C1357 C1365 1.433 . S
C1358 H1354 0.929 . S
C1358 C1360 1.378 . S
C1358 C1362 1.350 . S
C1359 C1362 1.463 . S
C1359 C1364 1.350 . S
C1359 N1367 1.427 . S
C1360 H1351 0.930 . S
C1360 C1358 1.378 . S
C1360 C1361 1.367 . S
C1361 C1360 1.367 . S
C1361 C1363 1.433 . S
C1362 C1358 1.350 . S
C1362 C1359 1.463 . S
C1362 N1366 1.427 . S
C1363 H1353 0.929 . S
C1363 C1361 1.433 . S
C1363 N1366 1.384 . S
C1364 H1355 0.929 . S
C1364 C1356 1.378 . S
C1364 C1359 1.350 . S
C1365 H1352 0.929 . S
C1365 C1357 1.433 . S
C1365 N1367 1.384 . S
N1366 C1362 1.427 . S
N1366 C1363 1.384 . S
N1367 C1359 1.427 . S
N1367 C1365 1.384 . S
H1368 C1374 0.930 . S
H1369 C1378 0.930 . S
H1370 C1383 0.929 . S
H1371 C1381 0.929 . S
H1372 C1376 0.929 . S
H1373 C1382 0.929 . S
C1374 H1368 0.930 . S
C1374 C1375 1.367 . S
C1374 C1382 1.378 . S
C1375 C1374 1.367 . S
C1375 C1383 1.433 . S
C1376 H1372 0.929 . S
C1376 C1378 1.378 . S
C1376 C1380 1.350 . S
C1377 C1380 1.463 1_545 S
C1377 C1382 1.350 . S
C1377 N1385 1.427 . S
C1378 H1369 0.930 . S
C1378 C1376 1.378 . S
C1378 C1379 1.367 . S
C1379 C1378 1.367 . S
C1379 C1381 1.433 . S
C1380 C1376 1.350 . S
C1380 C1377 1.463 1_565 S
C1380 N1384 1.427 . S
C1381 H1371 0.929 . S
C1381 C1379 1.433 . S
C1381 N1384 1.384 . S
C1382 H1373 0.929 . S
C1382 C1374 1.378 . S
C1382 C1377 1.350 . S
C1383 H1370 0.929 . S
C1383 C1375 1.433 . S
C1383 N1385 1.384 . S
N1384 C1380 1.427 . S
N1384 C1381 1.384 . S
N1385 C1377 1.427 . S
N1385 C1383 1.384 . S
H1386 C1392 0.930 . S
H1387 C1396 0.930 . S
H1388 C1401 0.929 . S
H1389 C1399 0.929 . S
H1390 C1394 0.929 . S
H1391 C1400 0.929 . S
C1392 H1386 0.930 . S
C1392 C1393 1.367 . S
C1392 C1400 1.378 . S
C1393 C1392 1.367 . S
C1393 C1401 1.433 . S
C1394 H1390 0.929 . S
C1394 C1396 1.378 . S
C1394 C1398 1.350 . S
C1395 C1398 1.463 1_545 S
C1395 C1400 1.350 . S
C1395 N1403 1.427 . S
C1396 H1387 0.930 . S
C1396 C1394 1.378 . S
C1396 C1397 1.367 . S
C1397 C1396 1.367 . S
C1397 C1399 1.433 . S
C1398 C1394 1.350 . S
C1398 C1395 1.463 1_565 S
C1398 N1402 1.427 . S
C1399 H1389 0.929 . S
C1399 C1397 1.433 . S
C1399 N1402 1.384 . S
C1400 H1391 0.929 . S
C1400 C1392 1.378 . S
C1400 C1395 1.350 . S
C1401 H1388 0.929 . S
C1401 C1393 1.433 . S
C1401 N1403 1.384 . S
N1402 C1398 1.427 . S
N1402 C1399 1.384 . S
N1403 C1395 1.427 . S
N1403 C1401 1.384 . S
H1404 C1410 0.930 . S
H1405 C1414 0.930 . S
H1406 C1419 0.929 . S
H1407 C1417 0.929 . S
H1408 C1412 0.929 . S
H1409 C1418 0.929 . S
C1410 H1404 0.930 . S
C1410 C1411 1.367 . S
C1410 C1418 1.378 . S
C1411 C1410 1.367 . S
C1411 C1419 1.433 . S
C1412 H1408 0.929 . S
C1412 C1414 1.378 . S
C1412 C1416 1.350 . S
C1413 C1416 1.463 1_655 S
C1413 C1418 1.350 . S
C1413 N1421 1.427 . S
C1414 H1405 0.930 . S
C1414 C1412 1.378 . S
C1414 C1415 1.367 . S
C1415 C1414 1.367 . S
C1415 C1417 1.433 . S
C1416 C1412 1.350 . S
C1416 C1413 1.463 1_455 S
C1416 N1420 1.427 . S
C1417 H1407 0.929 . S
C1417 C1415 1.433 . S
C1417 N1420 1.384 . S
C1418 H1409 0.929 . S
C1418 C1410 1.378 . S
C1418 C1413 1.350 . S
C1419 H1406 0.929 . S
C1419 C1411 1.433 . S
C1419 N1421 1.384 . S
N1420 C1416 1.427 . S
N1420 C1417 1.384 . S
N1421 C1413 1.427 . S
N1421 C1419 1.384 . S
H1422 C1428 0.930 . S
H1423 C1432 0.930 . S
H1424 C1437 0.929 . S
H1425 C1435 0.929 . S
H1426 C1430 0.929 . S
H1427 C1436 0.929 . S
C1428 H1422 0.930 . S
C1428 C1429 1.367 . S
C1428 C1436 1.378 . S
C1429 C1428 1.367 . S
C1429 C1437 1.433 . S
C1430 H1426 0.929 . S
C1430 C1432 1.378 . S
C1430 C1434 1.350 . S
C1431 C1434 1.463 . S
C1431 C1436 1.350 . S
C1431 N1439 1.427 . S
C1432 H1423 0.930 . S
C1432 C1430 1.378 . S
C1432 C1433 1.367 . S
C1433 C1432 1.367 . S
C1433 C1435 1.433 . S
C1434 C1430 1.350 . S
C1434 C1431 1.463 . S
C1434 N1438 1.427 . S
C1435 H1425 0.929 . S
C1435 C1433 1.433 . S
C1435 N1438 1.384 . S
C1436 H1427 0.929 . S
C1436 C1428 1.378 . S
C1436 C1431 1.350 . S
C1437 H1424 0.929 . S
C1437 C1429 1.433 . S
C1437 N1439 1.384 . S
N1438 C1434 1.427 . S
N1438 C1435 1.384 . S
N1439 C1431 1.427 . S
N1439 C1437 1.384 . S
H1440 C1446 0.930 . S
H1441 C1450 0.930 . S
H1442 C1455 0.929 . S
H1443 C1453 0.929 . S
H1444 C1448 0.929 . S
H1445 C1454 0.929 . S
C1446 H1440 0.930 . S
C1446 C1447 1.367 . S
C1446 C1454 1.378 . S
C1447 C1446 1.367 . S
C1447 C1455 1.433 . S
C1448 H1444 0.929 . S
C1448 C1450 1.378 . S
C1448 C1452 1.350 . S
C1449 C1452 1.463 . S
C1449 C1454 1.350 . S
C1449 N1457 1.427 . S
C1450 H1441 0.930 . S
C1450 C1448 1.378 . S
C1450 C1451 1.367 . S
C1451 C1450 1.367 . S
C1451 C1453 1.433 . S
C1452 C1448 1.350 . S
C1452 C1449 1.463 . S
C1452 N1456 1.427 . S
C1453 H1443 0.929 . S
C1453 C1451 1.433 . S
C1453 N1456 1.384 . S
C1454 H1445 0.929 . S
C1454 C1446 1.378 . S
C1454 C1449 1.350 . S
C1455 H1442 0.929 . S
C1455 C1447 1.433 . S
C1455 N1457 1.384 . S
N1456 C1452 1.427 . S
N1456 C1453 1.384 . S
N1457 C1449 1.427 . S
N1457 C1455 1.384 . S
H1458 C1464 0.930 . S
H1459 C1468 0.930 . S
H1460 C1473 0.929 . S
H1461 C1471 0.929 . S
H1462 C1466 0.929 . S
H1463 C1472 0.929 . S
C1464 H1458 0.930 . S
C1464 C1465 1.367 . S
C1464 C1472 1.378 . S
C1465 C1464 1.367 . S
C1465 C1473 1.433 . S
C1466 H1462 0.929 . S
C1466 C1468 1.378 . S
C1466 C1470 1.350 . S
C1467 C1470 1.463 . S
C1467 C1472 1.350 . S
C1467 N1475 1.427 . S
C1468 H1459 0.930 . S
C1468 C1466 1.378 . S
C1468 C1469 1.367 . S
C1469 C1468 1.367 . S
C1469 C1471 1.433 . S
C1470 C1466 1.350 . S
C1470 C1467 1.463 . S
C1470 N1474 1.427 . S
C1471 H1461 0.929 . S
C1471 C1469 1.433 . S
C1471 N1474 1.384 . S
C1472 H1463 0.929 . S
C1472 C1464 1.378 . S
C1472 C1467 1.350 . S
C1473 H1460 0.929 . S
C1473 C1465 1.433 . S
C1473 N1475 1.384 . S
N1474 C1470 1.427 . S
N1474 C1471 1.384 . S
N1475 C1467 1.427 . S
N1475 C1473 1.384 . S
H1476 C1482 0.930 . S
H1477 C1486 0.930 . S
H1478 C1491 0.929 . S
H1479 C1489 0.929 . S
H1480 C1484 0.929 . S
H1481 C1490 0.929 . S
C1482 H1476 0.930 . S
C1482 C1483 1.367 . S
C1482 C1490 1.378 . S
C1483 C1482 1.367 . S
C1483 C1491 1.433 . S
C1484 H1480 0.929 . S
C1484 C1486 1.378 . S
C1484 C1488 1.350 . S
C1485 C1488 1.463 . S
C1485 C1490 1.350 . S
C1485 N1493 1.427 . S
C1486 H1477 0.930 . S
C1486 C1484 1.378 . S
C1486 C1487 1.367 . S
C1487 C1486 1.367 . S
C1487 C1489 1.433 . S
C1488 C1484 1.350 . S
C1488 C1485 1.463 . S
C1488 N1492 1.427 . S
C1489 H1479 0.929 . S
C1489 C1487 1.433 . S
C1489 N1492 1.384 . S
C1490 H1481 0.929 . S
C1490 C1482 1.378 . S
C1490 C1485 1.350 . S
C1491 H1478 0.929 . S
C1491 C1483 1.433 . S
C1491 N1493 1.384 . S
N1492 C1488 1.427 . S
N1492 C1489 1.384 . S
N1493 C1485 1.427 . S
N1493 C1491 1.384 . S
H1494 C1500 0.930 . S
H1495 C1504 0.930 . S
H1496 C1509 0.929 . S
H1497 C1507 0.929 . S
H1498 C1502 0.929 . S
H1499 C1508 0.929 . S
C1500 H1494 0.930 . S
C1500 C1501 1.367 . S
C1500 C1508 1.378 . S
C1501 C1500 1.367 . S
C1501 C1509 1.433 . S
C1502 H1498 0.929 . S
C1502 C1504 1.378 . S
C1502 C1506 1.350 . S
C1503 C1506 1.463 . S
C1503 C1508 1.350 . S
C1503 N1511 1.427 . S
C1504 H1495 0.930 . S
C1504 C1502 1.378 . S
C1504 C1505 1.367 . S
C1505 C1504 1.367 . S
C1505 C1507 1.433 . S
C1506 C1502 1.350 . S
C1506 C1503 1.463 . S
C1506 N1510 1.427 . S
C1507 H1497 0.929 . S
C1507 C1505 1.433 . S
C1507 N1510 1.384 . S
C1508 H1499 0.929 . S
C1508 C1500 1.378 . S
C1508 C1503 1.350 . S
C1509 H1496 0.929 . S
C1509 C1501 1.433 . S
C1509 N1511 1.384 . S
N1510 C1506 1.427 . S
N1510 C1507 1.384 . S
N1511 C1503 1.427 . S
N1511 C1509 1.384 . S
H1512 C1518 0.930 . S
H1513 C1522 0.930 . S
H1514 C1527 0.929 . S
H1515 C1525 0.929 . S
H1516 C1520 0.929 . S
H1517 C1526 0.929 . S
C1518 H1512 0.930 . S
C1518 C1519 1.367 . S
C1518 C1526 1.378 . S
C1519 C1518 1.367 . S
C1519 C1527 1.433 . S
C1520 H1516 0.929 . S
C1520 C1522 1.378 . S
C1520 C1524 1.350 . S
C1521 C1524 1.463 . S
C1521 C1526 1.350 . S
C1521 N1529 1.427 . S
C1522 H1513 0.930 . S
C1522 C1520 1.378 . S
C1522 C1523 1.367 . S
C1523 C1522 1.367 . S
C1523 C1525 1.433 . S
C1524 C1520 1.350 . S
C1524 C1521 1.463 . S
C1524 N1528 1.427 . S
C1525 H1515 0.929 . S
C1525 C1523 1.433 . S
C1525 N1528 1.384 . S
C1526 H1517 0.929 . S
C1526 C1518 1.378 . S
C1526 C1521 1.350 . S
C1527 H1514 0.929 . S
C1527 C1519 1.433 . S
C1527 N1529 1.384 . S
N1528 C1524 1.427 . S
N1528 C1525 1.384 . S
N1529 C1521 1.427 . S
N1529 C1527 1.384 . S
H1530 C1536 0.930 . S
H1531 C1540 0.930 . S
H1532 C1545 0.929 . S
H1533 C1543 0.929 . S
H1534 C1538 0.929 . S
H1535 C1544 0.929 . S
C1536 H1530 0.930 . S
C1536 C1537 1.367 . S
C1536 C1544 1.378 . S
C1537 C1536 1.367 . S
C1537 C1545 1.433 . S
C1538 H1534 0.929 . S
C1538 C1540 1.378 . S
C1538 C1542 1.350 . S
C1539 C1542 1.463 . S
C1539 C1544 1.350 . S
C1539 N1547 1.427 . S
C1540 H1531 0.930 . S
C1540 C1538 1.378 . S
C1540 C1541 1.367 . S
C1541 C1540 1.367 . S
C1541 C1543 1.433 . S
C1542 C1538 1.350 . S
C1542 C1539 1.463 . S
C1542 N1546 1.427 . S
C1543 H1533 0.929 . S
C1543 C1541 1.433 . S
C1543 N1546 1.384 . S
C1544 H1535 0.929 . S
C1544 C1536 1.378 . S
C1544 C1539 1.350 . S
C1545 H1532 0.929 . S
C1545 C1537 1.433 . S
C1545 N1547 1.384 . S
N1546 C1542 1.427 . S
N1546 C1543 1.384 . S
N1547 C1539 1.427 . S
N1547 C1545 1.384 . S
H1548 C1554 0.930 . S
H1549 C1558 0.930 . S
H1550 C1563 0.929 . S
H1551 C1561 0.929 . S
H1552 C1556 0.929 . S
H1553 C1562 0.929 . S
C1554 H1548 0.930 . S
C1554 C1555 1.367 . S
C1554 C1562 1.378 . S
C1555 C1554 1.367 . S
C1555 C1563 1.433 . S
C1556 H1552 0.929 . S
C1556 C1558 1.378 . S
C1556 C1560 1.350 . S
C1557 C1560 1.463 . S
C1557 C1562 1.350 . S
C1557 N1565 1.427 . S
C1558 H1549 0.930 . S
C1558 C1556 1.378 . S
C1558 C1559 1.367 . S
C1559 C1558 1.367 . S
C1559 C1561 1.433 . S
C1560 C1556 1.350 . S
C1560 C1557 1.463 . S
C1560 N1564 1.427 . S
C1561 H1551 0.929 . S
C1561 C1559 1.433 . S
C1561 N1564 1.384 . S
C1562 H1553 0.929 . S
C1562 C1554 1.378 . S
C1562 C1557 1.350 . S
C1563 H1550 0.929 . S
C1563 C1555 1.433 . S
C1563 N1565 1.384 . S
N1564 C1560 1.427 . S
N1564 C1561 1.384 . S
N1565 C1557 1.427 . S
N1565 C1563 1.384 . S
H1566 C1572 0.930 . S
H1567 C1576 0.930 . S
H1568 C1581 0.929 . S
H1569 C1579 0.929 . S
H1570 C1574 0.929 . S
H1571 C1580 0.929 . S
C1572 H1566 0.930 . S
C1572 C1573 1.367 . S
C1572 C1580 1.378 . S
C1573 C1572 1.367 . S
C1573 C1581 1.433 . S
C1574 H1570 0.929 . S
C1574 C1576 1.378 . S
C1574 C1578 1.350 . S
C1575 C1578 1.463 . S
C1575 C1580 1.350 . S
C1575 N1583 1.427 . S
C1576 H1567 0.930 . S
C1576 C1574 1.378 . S
C1576 C1577 1.367 . S
C1577 C1576 1.367 . S
C1577 C1579 1.433 . S
C1578 C1574 1.350 . S
C1578 C1575 1.463 . S
C1578 N1582 1.427 . S
C1579 H1569 0.929 . S
C1579 C1577 1.433 . S
C1579 N1582 1.384 . S
C1580 H1571 0.929 . S
C1580 C1572 1.378 . S
C1580 C1575 1.350 . S
C1581 H1568 0.929 . S
C1581 C1573 1.433 . S
C1581 N1583 1.384 . S
N1582 C1578 1.427 . S
N1582 C1579 1.384 . S
N1583 C1575 1.427 . S
N1583 C1581 1.384 . S
H1584 C1590 0.930 . S
H1585 C1594 0.930 . S
H1586 C1599 0.929 . S
H1587 C1597 0.929 . S
H1588 C1592 0.929 . S
H1589 C1598 0.929 . S
C1590 H1584 0.930 . S
C1590 C1591 1.367 . S
C1590 C1598 1.378 . S
C1591 C1590 1.367 . S
C1591 C1599 1.433 . S
C1592 H1588 0.929 . S
C1592 C1594 1.378 . S
C1592 C1596 1.350 . S
C1593 C1596 1.463 . S
C1593 C1598 1.350 . S
C1593 N1601 1.427 . S
C1594 H1585 0.930 . S
C1594 C1592 1.378 . S
C1594 C1595 1.367 . S
C1595 C1594 1.367 . S
C1595 C1597 1.433 . S
C1596 C1592 1.350 . S
C1596 C1593 1.463 . S
C1596 N1600 1.427 . S
C1597 H1587 0.929 . S
C1597 C1595 1.433 . S
C1597 N1600 1.384 . S
C1598 H1589 0.929 . S
C1598 C1590 1.378 . S
C1598 C1593 1.350 . S
C1599 H1586 0.929 . S
C1599 C1591 1.433 . S
C1599 N1601 1.384 . S
N1600 C1596 1.427 . S
N1600 C1597 1.384 . S
N1601 C1593 1.427 . S
N1601 C1599 1.384 . S
H1602 C1608 0.930 . S
H1603 C1612 0.930 . S
H1604 C1617 0.929 . S
H1605 C1615 0.929 . S
H1606 C1610 0.929 . S
H1607 C1616 0.929 . S
C1608 H1602 0.930 . S
C1608 C1609 1.367 . S
C1608 C1616 1.378 . S
C1609 C1608 1.367 . S
C1609 C1617 1.433 . S
C1610 H1606 0.929 . S
C1610 C1612 1.378 . S
C1610 C1614 1.350 . S
C1611 C1614 1.463 . S
C1611 C1616 1.350 . S
C1611 N1619 1.427 . S
C1612 H1603 0.930 . S
C1612 C1610 1.378 . S
C1612 C1613 1.367 . S
C1613 C1612 1.367 . S
C1613 C1615 1.433 . S
C1614 C1610 1.350 . S
C1614 C1611 1.463 . S
C1614 N1618 1.427 . S
C1615 H1605 0.929 . S
C1615 C1613 1.433 . S
C1615 N1618 1.384 . S
C1616 H1607 0.929 . S
C1616 C1608 1.378 . S
C1616 C1611 1.350 . S
C1617 H1604 0.929 . S
C1617 C1609 1.433 . S
C1617 N1619 1.384 . S
N1618 C1614 1.427 . S
N1618 C1615 1.384 . S
N1619 C1611 1.427 . S
N1619 C1617 1.384 . S
H1620 C1626 0.930 . S
H1621 C1630 0.930 . S
H1622 C1635 0.929 . S
H1623 C1633 0.929 . S
H1624 C1628 0.929 . S
H1625 C1634 0.929 . S
C1626 H1620 0.930 . S
C1626 C1627 1.367 . S
C1626 C1634 1.378 . S
C1627 C1626 1.367 . S
C1627 C1635 1.433 . S
C1628 H1624 0.929 . S
C1628 C1630 1.378 . S
C1628 C1632 1.350 . S
C1629 C1632 1.463 . S
C1629 C1634 1.350 . S
C1629 N1637 1.427 . S
C1630 H1621 0.930 . S
C1630 C1628 1.378 . S
C1630 C1631 1.367 . S
C1631 C1630 1.367 . S
C1631 C1633 1.433 . S
C1632 C1628 1.350 . S
C1632 C1629 1.463 . S
C1632 N1636 1.427 . S
C1633 H1623 0.929 . S
C1633 C1631 1.433 . S
C1633 N1636 1.384 . S
C1634 H1625 0.929 . S
C1634 C1626 1.378 . S
C1634 C1629 1.350 . S
C1635 H1622 0.929 . S
C1635 C1627 1.433 . S
C1635 N1637 1.384 . S
N1636 C1632 1.427 . S
N1636 C1633 1.384 . S
N1637 C1629 1.427 . S
N1637 C1635 1.384 . S
H1638 C1644 0.930 . S
H1639 C1648 0.930 . S
H1640 C1653 0.929 . S
H1641 C1651 0.929 . S
H1642 C1646 0.929 . S
H1643 C1652 0.929 . S
C1644 H1638 0.930 . S
C1644 C1645 1.367 . S
C1644 C1652 1.378 . S
C1645 C1644 1.367 . S
C1645 C1653 1.433 . S
C1646 H1642 0.929 . S
C1646 C1648 1.378 . S
C1646 C1650 1.350 . S
C1647 C1650 1.463 . S
C1647 C1652 1.350 . S
C1647 N1655 1.427 . S
C1648 H1639 0.930 . S
C1648 C1646 1.378 . S
C1648 C1649 1.367 . S
C1649 C1648 1.367 . S
C1649 C1651 1.433 . S
C1650 C1646 1.350 . S
C1650 C1647 1.463 . S
C1650 N1654 1.427 . S
C1651 H1641 0.929 . S
C1651 C1649 1.433 . S
C1651 N1654 1.384 . S
C1652 H1643 0.929 . S
C1652 C1644 1.378 . S
C1652 C1647 1.350 . S
C1653 H1640 0.929 . S
C1653 C1645 1.433 . S
C1653 N1655 1.384 . S
N1654 C1650 1.427 . S
N1654 C1651 1.384 . S
N1655 C1647 1.427 . S
N1655 C1653 1.384 . S
H1656 C1662 0.930 . S
H1657 C1666 0.930 . S
H1658 C1671 0.929 . S
H1659 C1669 0.929 . S
H1660 C1664 0.929 . S
H1661 C1670 0.929 . S
C1662 H1656 0.930 . S
C1662 C1663 1.367 . S
C1662 C1670 1.378 . S
C1663 C1662 1.367 . S
C1663 C1671 1.433 . S
C1664 H1660 0.929 . S
C1664 C1666 1.378 . S
C1664 C1668 1.350 . S
C1665 C1668 1.463 . S
C1665 C1670 1.350 . S
C1665 N1673 1.427 . S
C1666 H1657 0.930 . S
C1666 C1664 1.378 . S
C1666 C1667 1.367 . S
C1667 C1666 1.367 . S
C1667 C1669 1.433 . S
C1668 C1664 1.350 . S
C1668 C1665 1.463 . S
C1668 N1672 1.427 . S
C1669 H1659 0.929 . S
C1669 C1667 1.433 . S
C1669 N1672 1.384 . S
C1670 H1661 0.929 . S
C1670 C1662 1.378 . S
C1670 C1665 1.350 . S
C1671 H1658 0.929 . S
C1671 C1663 1.433 . S
C1671 N1673 1.384 . S
N1672 C1668 1.427 . S
N1672 C1669 1.384 . S
N1673 C1665 1.427 . S
N1673 C1671 1.384 . S
H1674 C1680 0.930 . S
H1675 C1684 0.930 . S
H1676 C1689 0.929 . S
H1677 C1687 0.929 . S
H1678 C1682 0.929 . S
H1679 C1688 0.929 . S
C1680 H1674 0.930 . S
C1680 C1681 1.367 . S
C1680 C1688 1.378 . S
C1681 C1680 1.367 . S
C1681 C1689 1.433 . S
C1682 H1678 0.929 . S
C1682 C1684 1.378 . S
C1682 C1686 1.350 . S
C1683 C1686 1.463 . S
C1683 C1688 1.350 . S
C1683 N1691 1.427 . S
C1684 H1675 0.930 . S
C1684 C1682 1.378 . S
C1684 C1685 1.367 . S
C1685 C1684 1.367 . S
C1685 C1687 1.433 . S
C1686 C1682 1.350 . S
C1686 C1683 1.463 . S
C1686 N1690 1.427 . S
C1687 H1677 0.929 . S
C1687 C1685 1.433 . S
C1687 N1690 1.384 . S
C1688 H1679 0.929 . S
C1688 C1680 1.378 . S
C1688 C1683 1.350 . S
C1689 H1676 0.929 . S
C1689 C1681 1.433 . S
C1689 N1691 1.384 . S
N1690 C1686 1.427 . S
N1690 C1687 1.384 . S
N1691 C1683 1.427 . S
N1691 C1689 1.384 . S
H1692 C1698 0.930 . S
H1693 C1702 0.930 . S
H1694 C1707 0.929 . S
H1695 C1705 0.929 . S
H1696 C1700 0.929 . S
H1697 C1706 0.929 . S
C1698 H1692 0.930 . S
C1698 C1699 1.367 . S
C1698 C1706 1.378 . S
C1699 C1698 1.367 . S
C1699 C1707 1.433 . S
C1700 H1696 0.929 . S
C1700 C1702 1.378 . S
C1700 C1704 1.350 . S
C1701 C1704 1.463 . S
C1701 C1706 1.350 . S
C1701 N1709 1.427 . S
C1702 H1693 0.930 . S
C1702 C1700 1.378 . S
C1702 C1703 1.367 . S
C1703 C1702 1.367 . S
C1703 C1705 1.433 . S
C1704 C1700 1.350 . S
C1704 C1701 1.463 . S
C1704 N1708 1.427 . S
C1705 H1695 0.929 . S
C1705 C1703 1.433 . S
C1705 N1708 1.384 . S
C1706 H1697 0.929 . S
C1706 C1698 1.378 . S
C1706 C1701 1.350 . S
C1707 H1694 0.929 . S
C1707 C1699 1.433 . S
C1707 N1709 1.384 . S
N1708 C1704 1.427 . S
N1708 C1705 1.384 . S
N1709 C1701 1.427 . S
N1709 C1707 1.384 . S
H1710 C1716 0.930 . S
H1711 C1720 0.930 . S
H1712 C1725 0.929 . S
H1713 C1723 0.929 . S
H1714 C1718 0.929 . S
H1715 C1724 0.929 . S
C1716 H1710 0.930 . S
C1716 C1717 1.367 . S
C1716 C1724 1.378 . S
C1717 C1716 1.367 . S
C1717 C1725 1.433 . S
C1718 H1714 0.929 . S
C1718 C1720 1.378 . S
C1718 C1722 1.350 . S
C1719 C1722 1.463 . S
C1719 C1724 1.350 . S
C1719 N1727 1.427 . S
C1720 H1711 0.930 . S
C1720 C1718 1.378 . S
C1720 C1721 1.367 . S
C1721 C1720 1.367 . S
C1721 C1723 1.433 . S
C1722 C1718 1.350 . S
C1722 C1719 1.463 . S
C1722 N1726 1.427 . S
C1723 H1713 0.929 . S
C1723 C1721 1.433 . S
C1723 N1726 1.384 . S
C1724 H1715 0.929 . S
C1724 C1716 1.378 . S
C1724 C1719 1.350 . S
C1725 H1712 0.929 . S
C1725 C1717 1.433 . S
C1725 N1727 1.384 . S
N1726 C1722 1.427 . S
N1726 C1723 1.384 . S
N1727 C1719 1.427 . S
N1727 C1725 1.384 . S
H1728 C1734 0.930 . S
H1729 C1738 0.930 . S
H1730 C1743 0.929 . S
H1731 C1741 0.929 . S
H1732 C1736 0.929 . S
H1733 C1742 0.929 . S
C1734 H1728 0.930 . S
C1734 C1735 1.367 . S
C1734 C1742 1.378 . S
C1735 C1734 1.367 . S
C1735 C1743 1.433 . S
C1736 H1732 0.929 . S
C1736 C1738 1.378 . S
C1736 C1740 1.350 . S
C1737 C1740 1.463 . S
C1737 C1742 1.350 . S
C1737 N1745 1.427 . S
C1738 H1729 0.930 . S
C1738 C1736 1.378 . S
C1738 C1739 1.367 . S
C1739 C1738 1.367 . S
C1739 C1741 1.433 . S
C1740 C1736 1.350 . S
C1740 C1737 1.463 . S
C1740 N1744 1.427 . S
C1741 H1731 0.929 . S
C1741 C1739 1.433 . S
C1741 N1744 1.384 . S
C1742 H1733 0.929 . S
C1742 C1734 1.378 . S
C1742 C1737 1.350 . S
C1743 H1730 0.929 . S
C1743 C1735 1.433 . S
C1743 N1745 1.384 . S
N1744 C1740 1.427 . S
N1744 C1741 1.384 . S
N1745 C1737 1.427 . S
N1745 C1743 1.384 . S
H1746 C1752 0.930 . S
H1747 C1756 0.930 . S
H1748 C1761 0.929 . S
H1749 C1759 0.929 . S
H1750 C1754 0.929 . S
H1751 C1760 0.929 . S
C1752 H1746 0.930 . S
C1752 C1753 1.367 . S
C1752 C1760 1.378 . S
C1753 C1752 1.367 . S
C1753 C1761 1.433 . S
C1754 H1750 0.929 . S
C1754 C1756 1.378 . S
C1754 C1758 1.350 . S
C1755 C1758 1.463 . S
C1755 C1760 1.350 . S
C1755 N1763 1.427 . S
C1756 H1747 0.930 . S
C1756 C1754 1.378 . S
C1756 C1757 1.367 . S
C1757 C1756 1.367 . S
C1757 C1759 1.433 . S
C1758 C1754 1.350 . S
C1758 C1755 1.463 . S
C1758 N1762 1.427 . S
C1759 H1749 0.929 . S
C1759 C1757 1.433 . S
C1759 N1762 1.384 . S
C1760 H1751 0.929 . S
C1760 C1752 1.378 . S
C1760 C1755 1.350 . S
C1761 H1748 0.929 . S
C1761 C1753 1.433 . S
C1761 N1763 1.384 . S
N1762 C1758 1.427 . S
N1762 C1759 1.384 . S
N1763 C1755 1.427 . S
N1763 C1761 1.384 . S
C475 C65 1.538 . S
C479 C0 1.535 . S
C493 C39 1.532 . S
C497 C13 1.529 . S
C511 C26 1.536 . S
C515 C52 1.531 . S
C529 C78 1.536 . S
C533 C143 1.538 . S
C547 C91 1.529 . S
C551 C117 1.532 . S
C565 C130 1.529 . S
C569 C104 1.533 . S
C583 C156 1.538 . S
C587 C221 1.535 . S
C601 C169 1.530 . S
C605 C195 1.535 . S
C619 C182 1.537 . S
C623 C208 1.532 . S
C637 C299 1.529 . S
C641 C234 1.533 . S
C655 C247 1.529 . S
C659 C273 1.533 . S
C673 C286 1.535 . S
C677 C260 1.538 . S
C691 C377 1.538 . S
C695 C312 1.534 . S
C709 C351 1.534 . S
C713 C325 1.530 . S
C727 C364 1.536 . S
C731 C338 1.538 . S
C745 C390 1.536 . S
C749 C455 1.538 . S
C763 C403 1.537 . S
C767 C429 1.538 . S
C781 C416 1.533 . S
C785 C442 1.529 . S
C799 C73 1.208 . S
C803 C8 1.201 . S
C817 C21 1.200 . S
C821 C47 1.193 . S
C835 C60 1.202 . S
C839 C34 1.207 . S
C853 C86 1.192 . S
C857 C151 1.202 . S
C871 C99 1.203 . S
C875 C125 1.207 . S
C889 C138 1.198 . S
C893 C112 1.193 . S
C907 C164 1.192 . S
C911 C229 1.204 . S
C925 C203 1.206 . S
C929 C177 1.205 . S
C943 C216 1.201 . S
C947 C190 1.192 . S
C961 C242 1.192 . S
C965 C307 1.202 . S
C979 C255 1.210 . S
C983 C281 1.196 . S
C997 C294 1.191 . S
C1001 C268 1.206 . S
C1015 C385 1.204 . S
C1019 C320 1.206 . S
C1033 C333 1.206 . S
C1037 C359 1.205 . S
C1051 C346 1.194 . S
C1055 C372 1.209 . S
C1069 C463 1.208 . S
C1073 C398 1.201 . S
C1087 C437 1.192 . S
C1091 C411 1.204 . S
C1105 C450 1.192 . S
C1109 C424 1.208 . S
C1123 C213 1.575 . S
C1127 C5 1.567 . S
C1141 C226 1.569 . S
C1145 C18 1.571 . S
C1159 C200 1.578 . S
C1163 C31 1.570 . S
C1177 C44 1.578 . S
C1181 C343 1.571 . S
C1195 C57 1.573 . S
C1199 C317 1.567 . S
C1213 C70 1.572 . S
C1217 C330 1.568 . S
C1231 C83 1.578 . S
C1235 C447 1.570 . S
C1249 C96 1.570 . S
C1253 C460 1.578 . S
C1267 C109 1.571 . S
C1271 C434 1.568 . S
C1285 C122 1.574 . S
C1289 C265 1.577 . S
C1303 C239 1.572 . S
C1307 C135 1.578 . S
C1321 C252 1.576 . S
C1325 C148 1.567 . S
C1339 C369 1.567 . S
C1343 C161 1.576 . S
C1357 C174 1.568 . S
C1361 C382 1.572 . S
C1375 C187 1.568 . S
C1379 C356 1.573 . S
C1393 C278 1.568 . S
C1397 C421 1.577 . S
C1411 C291 1.575 . S
C1415 C395 1.577 . S
C1429 C408 1.572 . S
C1433 C304 1.568 . S
C1447 C10 1.292 . S
C1451 C140 1.298 . S
C1465 C153 1.292 . S
C1469 C23 1.299 . S
C1483 C127 1.296 . S
C1487 C36 1.294 . S
C1501 C49 1.298 . S
C1505 C114 1.291 . S
C1519 C62 1.296 . S
C1523 C88 1.294 . S
C1537 C75 1.298 . S
C1541 C101 1.292 . S
C1555 C166 1.299 . S
C1559 C296 1.291 . S
C1573 C309 1.292 . S
C1577 C179 1.299 . S
C1591 C283 1.296 . S
C1595 C192 1.294 . S
C1609 C205 1.296 . S
C1613 C270 1.294 . S
C1627 C218 1.297 . S
C1631 C244 1.293 . S
C1645 C257 1.299 . S
C1649 C231 1.292 . S
C1663 C322 1.299 . S
C1667 C452 1.291 . S
C1681 C465 1.296 . S
C1685 C335 1.295 . S
C1699 C348 1.295 . S
C1703 C439 1.295 . S
C1717 C361 1.297 . S
C1721 C426 1.292 . S
C1735 C400 1.292 . S
C1739 C374 1.298 . S
C1753 C387 1.296 . S
C1757 C413 1.295 . S
