# Generated by pormake.
# Topology lcy-a, (4)-cn, num edge types: 1
# Building blocks:
#     Node 0, Type 0, BuildingBlock: NAHDIM_clean_sbu_0, # of connection points: 4
#     Node 1, Type 0, BuildingBlock: NAHDIM_clean_sbu_0, # of connection points: 4
#     Node 2, Type 0, BuildingBlock: NAHDIM_clean_sbu_0, # of connection points: 4
#     Node 3, Type 0, BuildingBlock: NAHDIM_clean_sbu_0, # of connection points: 4
#     Node 4, Type 0, BuildingBlock: NAHDIM_clean_sbu_0, # of connection points: 4
#     Node 5, Type 0, BuildingBlock: NAHDIM_clean_sbu_0, # of connection points: 4
#     Node 6, Type 0, BuildingBlock: NAHDIM_clean_sbu_0, # of connection points: 4
#     Node 7, Type 0, BuildingBlock: NAHDIM_clean_sbu_0, # of connection points: 4
#     Node 8, Type 0, BuildingBlock: NAHDIM_clean_sbu_0, # of connection points: 4
#     Node 9, Type 0, BuildingBlock: NAHDIM_clean_sbu_0, # of connection points: 4
#     Node 10, Type 0, BuildingBlock: NAHDIM_clean_sbu_0, # of connection points: 4
#     Node 11, Type 0, BuildingBlock: NAHDIM_clean_sbu_0, # of connection points: 4
#     Node 12, Type 0, BuildingBlock: NAHDIM_clean_sbu_0, # of connection points: 4
#     Node 13, Type 0, BuildingBlock: NAHDIM_clean_sbu_0, # of connection points: 4
#     Node 14, Type 0, BuildingBlock: NAHDIM_clean_sbu_0, # of connection points: 4
#     Node 15, Type 0, BuildingBlock: NAHDIM_clean_sbu_0, # of connection points: 4
#     Node 16, Type 0, BuildingBlock: NAHDIM_clean_sbu_0, # of connection points: 4
#     Node 17, Type 0, BuildingBlock: NAHDIM_clean_sbu_0, # of connection points: 4
#     Node 18, Type 0, BuildingBlock: NAHDIM_clean_sbu_0, # of connection points: 4
#     Node 19, Type 0, BuildingBlock: NAHDIM_clean_sbu_0, # of connection points: 4
#     Node 20, Type 0, BuildingBlock: NAHDIM_clean_sbu_0, # of connection points: 4
#     Node 21, Type 0, BuildingBlock: NAHDIM_clean_sbu_0, # of connection points: 4
#     Node 22, Type 0, BuildingBlock: NAHDIM_clean_sbu_0, # of connection points: 4
#     Node 23, Type 0, BuildingBlock: NAHDIM_clean_sbu_0, # of connection points: 4
#     Edge 24, Type (0, 0), BuildingBlock: EZIPEK_clean_linker_0, # of connection points: 2
#     Edge 25, Type (0, 0), BuildingBlock: EZIPEK_clean_linker_0, # of connection points: 2
#     Edge 26, Type (0, 0), BuildingBlock: EZIPEK_clean_linker_0, # of connection points: 2
#     Edge 27, Type (0, 0), BuildingBlock: EZIPEK_clean_linker_0, # of connection points: 2
#     Edge 28, Type (0, 0), BuildingBlock: EZIPEK_clean_linker_0, # of connection points: 2
#     Edge 29, Type (0, 0), BuildingBlock: EZIPEK_clean_linker_0, # of connection points: 2
#     Edge 30, Type (0, 0), BuildingBlock: EZIPEK_clean_linker_0, # of connection points: 2
#     Edge 31, Type (0, 0), BuildingBlock: EZIPEK_clean_linker_0, # of connection points: 2
#     Edge 32, Type (0, 0), BuildingBlock: EZIPEK_clean_linker_0, # of connection points: 2
#     Edge 33, Type (0, 0), BuildingBlock: EZIPEK_clean_linker_0, # of connection points: 2
#     Edge 34, Type (0, 0), BuildingBlock: EZIPEK_clean_linker_0, # of connection points: 2
#     Edge 35, Type (0, 0), BuildingBlock: EZIPEK_clean_linker_0, # of connection points: 2
#     Edge 36, Type (0, 0), BuildingBlock: EZIPEK_clean_linker_0, # of connection points: 2
#     Edge 37, Type (0, 0), BuildingBlock: EZIPEK_clean_linker_0, # of connection points: 2
#     Edge 38, Type (0, 0), BuildingBlock: EZIPEK_clean_linker_0, # of connection points: 2
#     Edge 39, Type (0, 0), BuildingBlock: EZIPEK_clean_linker_0, # of connection points: 2
#     Edge 40, Type (0, 0), BuildingBlock: EZIPEK_clean_linker_0, # of connection points: 2
#     Edge 41, Type (0, 0), BuildingBlock: EZIPEK_clean_linker_0, # of connection points: 2
#     Edge 42, Type (0, 0), BuildingBlock: EZIPEK_clean_linker_0, # of connection points: 2
#     Edge 43, Type (0, 0), BuildingBlock: EZIPEK_clean_linker_0, # of connection points: 2
#     Edge 44, Type (0, 0), BuildingBlock: EZIPEK_clean_linker_0, # of connection points: 2
#     Edge 45, Type (0, 0), BuildingBlock: EZIPEK_clean_linker_0, # of connection points: 2
#     Edge 46, Type (0, 0), BuildingBlock: EZIPEK_clean_linker_0, # of connection points: 2
#     Edge 47, Type (0, 0), BuildingBlock: EZIPEK_clean_linker_0, # of connection points: 2
#     Edge 48, Type (0, 0), BuildingBlock: EZIPEK_clean_linker_0, # of connection points: 2
#     Edge 49, Type (0, 0), BuildingBlock: EZIPEK_clean_linker_0, # of connection points: 2
#     Edge 50, Type (0, 0), BuildingBlock: EZIPEK_clean_linker_0, # of connection points: 2
#     Edge 51, Type (0, 0), BuildingBlock: EZIPEK_clean_linker_0, # of connection points: 2
#     Edge 52, Type (0, 0), BuildingBlock: EZIPEK_clean_linker_0, # of connection points: 2
#     Edge 53, Type (0, 0), BuildingBlock: EZIPEK_clean_linker_0, # of connection points: 2
#     Edge 54, Type (0, 0), BuildingBlock: EZIPEK_clean_linker_0, # of connection points: 2
#     Edge 55, Type (0, 0), BuildingBlock: EZIPEK_clean_linker_0, # of connection points: 2
#     Edge 56, Type (0, 0), BuildingBlock: EZIPEK_clean_linker_0, # of connection points: 2
#     Edge 57, Type (0, 0), BuildingBlock: EZIPEK_clean_linker_0, # of connection points: 2
#     Edge 58, Type (0, 0), BuildingBlock: EZIPEK_clean_linker_0, # of connection points: 2
#     Edge 59, Type (0, 0), BuildingBlock: EZIPEK_clean_linker_0, # of connection points: 2
#     Edge 60, Type (0, 0), BuildingBlock: EZIPEK_clean_linker_0, # of connection points: 2
#     Edge 61, Type (0, 0), BuildingBlock: EZIPEK_clean_linker_0, # of connection points: 2
#     Edge 62, Type (0, 0), BuildingBlock: EZIPEK_clean_linker_0, # of connection points: 2
#     Edge 63, Type (0, 0), BuildingBlock: EZIPEK_clean_linker_0, # of connection points: 2
#     Edge 64, Type (0, 0), BuildingBlock: EZIPEK_clean_linker_0, # of connection points: 2
#     Edge 65, Type (0, 0), BuildingBlock: EZIPEK_clean_linker_0, # of connection points: 2
#     Edge 66, Type (0, 0), BuildingBlock: EZIPEK_clean_linker_0, # of connection points: 2
#     Edge 67, Type (0, 0), BuildingBlock: EZIPEK_clean_linker_0, # of connection points: 2
#     Edge 68, Type (0, 0), BuildingBlock: EZIPEK_clean_linker_0, # of connection points: 2
#     Edge 69, Type (0, 0), BuildingBlock: EZIPEK_clean_linker_0, # of connection points: 2
#     Edge 70, Type (0, 0), BuildingBlock: EZIPEK_clean_linker_0, # of connection points: 2
#     Edge 71, Type (0, 0), BuildingBlock: EZIPEK_clean_linker_0, # of connection points: 2
# Relax obj value: 0.392
# Max RMSD: 0.215
# Mean RMSD: 0.215
data_MOF--net-lcy-a--node1-NAHDIM_clean_sbu_0--edge1-EZIPEK_clean_linker_0
_symmetry_space_group_name_H-M    P1
_symmetry_Int_Tables_number       1
_symmetry_cell_setting            triclinic
loop_
_symmetry_equiv_pos_as_xyz
'x, y, z'
_cell_length_a     41.86391
_cell_length_b     41.93042
_cell_length_c     41.805885
_cell_angle_alpha  90.261284
_cell_angle_beta   90.05339
_cell_angle_gamma 89.752969
loop_
_atom_site_label
_atom_site_type_symbol
_atom_site_fract_x
_atom_site_fract_y
_atom_site_fract_z
_atom_type_partial_charge
C0 C 0.18726 0.23997 0.46518 0.0
O1 O 0.21701 0.24476 0.47387 0.0
O2 O 0.238 0.22555 0.39533 0.0
Zn3 Zn 0.21191 0.26375 0.40834 0.0
O4 O 0.23848 0.29607 0.43141 0.0
C5 C 0.21483 0.29195 0.34829 0.0
O6 O 0.24503 0.28526 0.35349 0.0
O7 O 0.17816 0.24784 0.43733 0.0
C8 C 0.22542 0.3223 0.43935 0.0
O9 O 0.195 0.32703 0.43315 0.0
C10 C 0.26828 0.22577 0.39602 0.0
O11 O 0.28327 0.25109 0.40679 0.0
O12 O 0.19402 0.28448 0.36899 0.0
C13 C 0.9764 0.88704 0.64299 0.0
O14 O -0.00192 0.89811 0.6234 0.0
O15 O 0.97557 0.94305 0.58483 0.0
Zn16 Zn 0.93562 0.92652 0.60579 0.0
O17 O 0.9141 0.96171 0.63133 0.0
C18 C 0.91311 0.91486 0.54224 0.0
O19 O 0.94357 0.91381 0.53491 0.0
O20 O 0.9471 0.89336 0.63826 0.0
C21 C 0.88409 0.9662 0.6295 0.0
O22 O 0.86698 0.9485 0.61003 0.0
C23 C 0.9903 0.9675 0.59484 0.0
O24 O 0.97941 0.9832 0.61984 0.0
O25 O 0.90489 0.9128 0.57141 0.0
C26 C 0.29264 0.75704 0.96882 0.0
O27 O 0.26706 0.7491 0.98505 0.0
O28 O 0.22451 0.76991 0.90725 0.0
Zn29 Zn 0.25576 0.73418 0.91652 0.0
O30 O 0.23497 0.7004 0.94332 0.0
C31 C 0.24616 0.7019 0.85909 0.0
O32 O 0.21703 0.70372 0.87051 0.0
O33 O 0.29366 0.75234 0.93885 0.0
C34 C 0.25089 0.67777 0.95576 0.0
O35 O 0.28203 0.67657 0.9521 0.0
C36 C 0.19453 0.76617 0.91013 0.0
O37 O 0.18342 0.73916 0.92124 0.0
O38 O 0.26905 0.71406 0.8748 0.0
C39 C 0.52719 0.08326 0.18716 0.0
O40 O 0.52738 0.0521 0.19025 0.0
O41 O 0.52039 0.04299 0.11454 0.0
Zn42 Zn 0.55936 0.06198 0.13504 0.0
O43 O 0.58301 0.02937 0.16131 0.0
C44 C 0.59593 0.05222 0.08307 0.0
O45 O 0.58401 0.02434 0.09055 0.0
O46 O 0.54235 0.09582 0.16414 0.0
C47 C 0.61149 0.03532 0.16979 0.0
O48 O 0.62463 0.06238 0.16132 0.0
C49 C 0.51167 0.0144 0.11886 0.0
O50 O 0.52851 -0.00439 0.13749 0.0
O51 O 0.5885 0.07652 0.09978 0.0
C52 C 0.67758 0.25659 0.55824 0.0
O53 O 0.70809 0.25526 0.55101 0.0
O54 O 0.73368 0.23171 0.61478 0.0
Zn55 Zn 0.69788 0.20636 0.59569 0.0
O56 O 0.71636 0.18039 0.55981 0.0
C57 C 0.67434 0.18362 0.65716 0.0
O58 O 0.67815 0.21352 0.6658 0.0
O59 O 0.66609 0.23683 0.57803 0.0
C60 C 0.72803 0.1531 0.56596 0.0
O61 O 0.72722 0.14214 0.59531 0.0
C62 C 0.75265 0.21899 0.63468 0.0
O63 O 0.7482 0.18944 0.64384 0.0
O64 O 0.67977 0.17634 0.62816 0.0
C65 C 0.02277 0.40315 0.75538 0.0
O66 O 0.00296 0.42618 0.7475 0.0
O67 O 0.01088 0.46887 0.80579 0.0
Zn68 Zn 0.05184 0.45445 0.78491 0.0
O69 O 0.06374 0.48256 0.74862 0.0
C70 C 0.08481 0.44267 0.84369 0.0
O71 O 0.06331 0.42018 0.8467 0.0
O72 O 0.04771 0.40948 0.77129 0.0
C73 C 0.09198 0.47969 0.73794 0.0
O74 O 0.11037 0.45658 0.74853 0.0
C75 C 0.00845 0.49828 0.8126 0.0
O76 O 0.03002 0.51814 0.8018 0.0
O77 O 0.08582 0.45895 0.81821 0.0
C78 C 0.78618 0.67785 0.06418 0.0
O79 O 0.75516 0.6739 0.06654 0.0
O80 O 0.7325 0.72484 0.11083 0.0
Zn81 Zn 0.77188 0.74021 0.08836 0.0
O82 O 0.75693 0.76621 0.0507 0.0
C83 C 0.79752 0.76032 0.14871 0.0
O84 O 0.78796 0.73161 0.1566 0.0
O85 O 0.79879 0.70389 0.07311 0.0
C86 C 0.75665 0.7965 0.05197 0.0
O87 O 0.7686 0.81125 0.077 0.0
C88 C 0.71498 0.74715 0.12174 0.0
O89 O 0.72397 0.77688 0.11812 0.0
O90 O 0.79514 0.76831 0.11953 0.0
C91 C 0.45803 0.57403 0.26508 0.0
O92 O 0.47637 0.55069 0.25474 0.0
O93 O 0.47811 0.50906 0.31286 0.0
Zn94 Zn 0.43386 0.52438 0.30232 0.0
O95 O 0.41119 0.49399 0.27331 0.0
C96 C 0.41312 0.54505 0.36606 0.0
O97 O 0.43282 0.56909 0.3629 0.0
O98 O 0.43592 0.56821 0.28487 0.0
C99 C 0.3809 0.49562 0.27345 0.0
O100 O 0.36657 0.51825 0.28994 0.0
C101 C 0.47975 0.48293 0.32794 0.0
O102 O 0.45376 0.46589 0.33161 0.0
O103 O 0.41001 0.52479 0.34362 0.0
C104 C 0.43934 0.15331 0.26728 0.0
O105 O 0.41121 0.16032 0.25528 0.0
O106 O 0.38691 0.21372 0.2864 0.0
Zn107 Zn 0.41574 0.19175 0.31786 0.0
O108 O 0.43857 0.22569 0.34224 0.0
C109 C 0.36231 0.15576 0.3375 0.0
O110 O 0.36027 0.15186 0.30637 0.0
O111 O 0.44656 0.16291 0.29519 0.0
C112 C 0.42132 0.24513 0.35805 0.0
O113 O 0.39011 0.24205 0.35787 0.0
C114 C 0.39634 0.23066 0.26318 0.0
O115 O 0.42702 0.23495 0.25839 0.0
O116 O 0.38721 0.16914 0.34842 0.0
C117 C 0.10443 0.16065 0.53991 0.0
O118 O 0.07506 0.17033 0.54539 0.0
O119 O 0.04463 0.1055 0.5202 0.0
Zn120 Zn 0.07568 0.10417 0.55691 0.0
O121 O 0.05139 0.12194 0.59423 0.0
C122 C 0.08856 0.03784 0.54499 0.0
O123 O 0.08909 0.04719 0.51506 0.0
O124 O 0.11204 0.13181 0.54518 0.0
C125 C 0.0359 0.10368 0.61273 0.0
O126 O 0.03805 0.07259 0.60943 0.0
C127 C 0.0217 0.08585 0.51949 0.0
O128 O 0.01973 0.06366 0.54139 0.0
O129 O 0.08799 0.05916 0.56663 0.0
C130 C 0.03428 0.8452 0.75934 0.0
O131 O 0.06449 0.83847 0.75416 0.0
O132 O 0.0636 0.77423 0.77323 0.0
Zn133 Zn 0.04822 0.80396 0.80789 0.0
O134 O 0.02319 0.77798 0.83908 0.0
C135 C 0.08816 0.82818 0.85939 0.0
O136 O 0.0619 0.82498 0.8762 0.0
O137 O 0.02098 0.83531 0.78467 0.0
C138 C 0.03787 0.75446 0.85139 0.0
O139 O 0.06787 0.74907 0.8439 0.0
C140 C 0.09274 0.76653 0.76982 0.0
O141 O 0.11414 0.77752 0.78998 0.0
O142 O 0.08661 0.82286 0.82949 0.0
C143 C 0.39604 0.82157 0.03264 0.0
O144 O 0.42408 0.80773 0.0355 0.0
O145 O 0.46058 0.88182 0.02103 0.0
Zn146 Zn 0.43053 0.87363 0.05747 0.0
O147 O 0.4535 0.85006 0.092 0.0
C148 C 0.41972 0.94062 0.059 0.0
O149 O 0.42094 0.93658 0.02786 0.0
O150 O 0.39235 0.85026 0.04174 0.0
C151 C 0.47763 0.86416 0.10375 0.0
O152 O 0.4865 0.89184 0.09225 0.0
C153 C 0.48164 0.86251 0.01078 0.0
O154 O 0.48518 0.83522 0.0257 0.0
O155 O 0.41945 0.91587 0.07635 0.0
C156 C 0.97639 0.27727 0.73066 0.0
O157 O 0.98807 0.25047 0.74195 0.0
O158 O 0.91508 0.22096 0.75612 0.0
Zn159 Zn 0.92725 0.2364 0.71216 0.0
O160 O 0.95597 0.20452 0.69141 0.0
C161 C 0.86944 0.26501 0.68641 0.0
O162 O 0.87686 0.29 0.70391 0.0
O163 O 0.94982 0.27743 0.71616 0.0
C164 C 0.94913 0.17507 0.69132 0.0
O165 O 0.92323 0.16505 0.70576 0.0
C166 C 0.8876 0.20876 0.75935 0.0
O167 O 0.86825 0.20733 0.7347 0.0
O168 O 0.88818 0.2412 0.6851 0.0
C169 C 0.88153 0.60604 -0.00104 0.0
O170 O 0.89478 0.57808 0.00415 0.0
O171 O 0.96658 0.59824 0.9851 0.0
Zn172 Zn 0.93332 0.61459 0.95468 0.0
O173 O 0.94992 0.65403 0.93276 0.0
C174 C 0.95333 0.57157 0.90904 0.0
O175 O 0.98012 0.58283 0.92075 0.0
O176 O 0.89323 0.62468 0.97826 0.0
C177 C 0.97959 0.66048 0.93257 0.0
O178 O -0.0003 0.64248 0.94853 0.0
C179 C 0.97369 0.60932 0.01248 0.0
O180 O 0.95716 0.63303 0.02486 0.0
O181 O 0.9269 0.58119 0.9205 0.0
C182 C 0.50323 0.69981 0.23738 0.0
O183 O 0.49152 0.72047 0.21692 0.0
O184 O 0.57204 0.76509 0.28228 0.0
Zn185 Zn 0.55487 0.74422 0.2428 0.0
O186 O 0.53074 0.7752 0.21524 0.0
C187 C 0.59523 0.73428 0.18813 0.0
O188 O 0.5693 0.74135 0.17191 0.0
O189 O 0.52917 0.70566 0.25198 0.0
C190 C 0.54132 0.80285 0.20911 0.0
O191 O 0.56706 0.81335 0.22364 0.0
C192 C 0.56065 0.79006 0.29531 0.0
O193 O 0.53271 0.80048 0.28548 0.0
O194 O 0.59385 0.73142 0.2183 0.0
C195 C 0.59467 0.34904 0.49863 0.0
O196 O 0.58286 0.37258 0.51579 0.0
O197 O 0.52243 0.39051 0.48779 0.0
Zn198 Zn 0.54648 0.36729 0.45313 0.0
O199 O 0.51707 0.33469 0.43486 0.0
C200 C 0.55702 0.42597 0.41804 0.0
O201 O 0.55287 0.43922 0.44629 0.0
O202 O 0.58438 0.34406 0.47049 0.0
C203 C 0.48975 0.34348 0.42504 0.0
O204 O 0.48074 0.37337 0.42827 0.0
C205 C 0.5099 0.37458 0.51029 0.0
O206 O 0.51316 0.34344 0.50943 0.0
O207 O 0.55674 0.39577 0.4163 0.0
C208 C 0.22978 0.38492 0.14025 0.0
O209 O 0.22398 0.39816 0.16816 0.0
O210 O 0.23648 0.33925 0.2121 0.0
Zn211 Zn 0.26989 0.35334 0.18071 0.0
O212 O 0.29086 0.39317 0.19707 0.0
C213 C 0.29806 0.29146 0.1881 0.0
O214 O 0.26823 0.28198 0.18931 0.0
O215 O 0.24995 0.36231 0.1383 0.0
C216 C 0.31013 0.3902 0.22037 0.0
O217 O 0.31484 0.36199 0.23309 0.0
C218 C 0.22447 0.35712 0.2336 0.0
O219 O 0.23417 0.38681 0.23523 0.0
O220 O 0.30419 0.31998 0.1803 0.0
C221 C 0.7586 0.02117 0.79952 0.0
O222 O 0.76361 0.00769 0.77154 0.0
O223 O 0.75568 0.10275 0.74691 0.0
Zn224 Zn 0.7878 0.07571 0.77039 0.0
O225 O 0.81083 0.04711 0.7395 0.0
C226 C 0.81358 0.12492 0.81175 0.0
O227 O 0.78372 0.12855 0.82067 0.0
O228 O 0.76661 0.04997 0.80424 0.0
C229 C 0.8183 0.05637 0.71161 0.0
O230 O 0.81032 0.08519 0.70225 0.0
C231 C 0.72867 0.09207 0.73818 0.0
O232 O 0.72081 0.06259 0.74494 0.0
O233 O 0.82019 0.10384 0.79083 0.0
C234 C 0.16199 0.45498 0.04525 0.0
O235 O 0.13909 0.44545 0.02601 0.0
O236 O 0.13302 0.49386 0.97808 0.0
Zn237 Zn 0.14861 0.51565 0.01753 0.0
O238 O 0.17887 0.54951 0.00289 0.0
C239 C 0.09282 0.55146 0.01964 0.0
O240 O 0.10088 0.55312 0.98938 0.0
O241 O 0.1702 0.4841 0.04584 0.0
C242 C 0.18259 0.5757 0.01775 0.0
O243 O 0.16813 0.58041 0.04524 0.0
C244 C 0.15152 0.48062 0.95794 0.0
O245 O 0.18246 0.47989 0.9631 0.0
O246 O 0.11048 0.53604 0.0389 0.0
C247 C 0.76252 0.95044 0.28737 0.0
O248 O 0.76105 0.95428 0.25624 0.0
O249 O 0.75151 0.86665 0.25302 0.0
Zn250 Zn 0.72163 0.89874 0.27289 0.0
O251 O 0.69977 0.92579 0.23961 0.0
C252 C 0.66589 0.86306 0.28373 0.0
O253 O 0.6666 0.86292 0.25236 0.0
O254 O 0.74732 0.92781 0.30043 0.0
C255 C 0.67974 0.94611 0.25013 0.0
O256 O 0.67446 0.94797 0.28104 0.0
C257 C 0.74701 0.85638 0.2248 0.0
O258 O 0.72277 0.8672 0.20803 0.0
O259 O 0.68794 0.87692 0.29923 0.0
C260 C 0.3245 0.52209 0.56623 0.0
O261 O 0.3505 0.5315 0.55154 0.0
O262 O 0.35791 0.48718 0.4981 0.0
Zn263 Zn 0.33891 0.4633 0.53492 0.0
O264 O 0.3104 0.42727 0.5197 0.0
C265 C 0.39193 0.4258 0.53734 0.0
O266 O 0.37941 0.41949 0.50924 0.0
O267 O 0.31511 0.49348 0.56322 0.0
C268 C 0.29837 0.42655 0.49178 0.0
O269 O 0.30347 0.4501 0.47197 0.0
C270 C 0.34482 0.5067 0.47898 0.0
O271 O 0.3146 0.51441 0.48263 0.0
O272 O 0.37724 0.44437 0.55643 0.0
C273 C 0.24518 0.59983 0.64712 0.0
O274 O 0.24541 0.58975 0.67682 0.0
O275 O 0.22802 0.65002 0.71237 0.0
Zn276 Zn 0.19937 0.63523 0.67629 0.0
O277 O 0.17428 0.59685 0.69002 0.0
C278 C 0.15208 0.67574 0.69365 0.0
O279 O 0.15588 0.65593 0.71755 0.0
O280 O 0.2264 0.62233 0.63924 0.0
C281 C 0.15478 0.58199 0.67213 0.0
O282 O 0.14981 0.59158 0.64268 0.0
C283 C 0.22372 0.64041 0.74081 0.0
O284 O 0.20359 0.61711 0.74619 0.0
O285 O 0.16856 0.67157 0.66844 0.0
C286 C 0.7035 0.95713 0.90768 0.0
O287 O 0.72232 0.9518 0.93226 0.0
O288 O 0.64745 0.97623 0.97925 0.0
Zn289 Zn 0.65628 0.93782 0.95183 0.0
O290 O 0.68646 0.90858 0.97481 0.0
C291 C 0.5994 0.91037 0.97179 0.0
O292 O 0.61208 0.91913 -0.00083 0.0
O293 O 0.67384 0.95158 0.90991 0.0
C294 C 0.68877 0.87965 0.96608 0.0
O295 O 0.67192 0.86928 0.9417 0.0
C296 C 0.66438 0.00094 0.9836 0.0
O297 O 0.69173 0.00419 0.96867 0.0
O298 O 0.61429 0.91569 0.94594 0.0
C299 C 0.83626 0.02574 0.37532 0.0
O300 O 0.86073 0.00967 0.38667 0.0
O301 O 0.85491 0.02011 0.45522 0.0
Zn302 Zn 0.84798 0.06096 0.43106 0.0
O303 O 0.82008 0.08946 0.45795 0.0
C304 C 0.90278 0.08247 0.45697 0.0
O305 O 0.8839 0.07669 0.48126 0.0
O306 O 0.82797 0.05167 0.38873 0.0
C307 C 0.7944 0.07901 0.47009 0.0
O308 O 0.7849 0.04992 0.46349 0.0
C309 C 0.84073 -0.00659 0.45674 0.0
O310 O 0.81445 0.98826 0.44043 0.0
O311 O 0.89199 0.07956 0.42868 0.0
C312 C 0.13466 0.1715 0.48993 0.0
C313 C 0.12607 0.181 0.52138 0.0
C314 C 0.15578 0.23075 0.51519 0.0
C315 C 0.16659 0.21977 0.48494 0.0
N316 N 0.17246 0.17674 0.44671 0.0
N317 N 0.13128 0.21729 0.56594 0.0
C318 C 0.1578 0.18929 0.47319 0.0
C319 C 0.13738 0.21003 0.53462 0.0
N320 N 0.11965 0.14638 0.4754 0.0
N321 N 0.16226 0.26124 0.52484 0.0
H322 H 0.11775 0.20263 0.58075 0.0
H323 H 0.1416 0.23645 0.57796 0.0
H324 H 0.17591 0.27688 0.51125 0.0
H325 H 0.15221 0.27182 0.54505 0.0
H326 H 0.12256 0.14076 0.45128 0.0
H327 H 0.10182 0.13306 0.4864 0.0
H328 H 0.16939 0.15322 0.43923 0.0
H329 H 0.19017 0.18867 0.43401 0.0
C330 C 0.99007 0.84301 0.68066 0.0
C331 C 0.98668 0.87601 0.6747 0.0
C332 C 0.01134 0.88906 0.72626 0.0
C333 C 0.01462 0.85606 0.73231 0.0
N334 N 0.00193 0.80145 0.71908 0.0
N335 N 0.98759 0.9305 0.69354 0.0
C336 C 0.0022 0.83295 0.71071 0.0
C337 C -0.00476 0.89909 0.69813 0.0
N338 N 0.98282 0.82145 0.65713 0.0
N339 N 0.02457 0.91069 0.74691 0.0
H340 H 0.97601 0.93874 0.67306 0.0
H341 H 0.99036 0.94809 0.71095 0.0
H342 H 0.03532 0.90407 0.76843 0.0
H343 H 0.02646 0.93494 0.74206 0.0
H344 H 0.9883 0.79726 0.6584 0.0
H345 H 0.97285 0.82811 0.63525 0.0
H346 H 0.99054 0.78378 0.70581 0.0
H347 H 0.01091 0.79316 0.74078 0.0
C348 C 0.32765 0.80465 0.97571 0.0
C349 C 0.31933 0.7733 0.98498 0.0
C350 C 0.35936 0.77479 0.02759 0.0
C351 C 0.36975 0.80484 0.01628 0.0
N352 N 0.36887 0.84479 0.97474 0.0
N353 N 0.33173 0.72578 0.01487 0.0
C354 C 0.35533 0.81884 0.98897 0.0
C355 C 0.33641 0.75754 0.00961 0.0
N356 N 0.30858 0.82136 0.9551 0.0
N357 N 0.37051 0.76322 0.05602 0.0
H358 H 0.31605 0.71215 0.00116 0.0
H359 H 0.34575 0.71233 0.03043 0.0
H360 H 0.38691 0.77544 0.07025 0.0
H361 H 0.36124 0.74298 0.06694 0.0
H362 H 0.3118 0.84549 0.95027 0.0
H363 H 0.28771 0.81206 0.94519 0.0
H364 H 0.3611 0.85383 0.95289 0.0
H365 H 0.38993 0.85526 0.98288 0.0
C366 C 0.51632 0.12844 0.22538 0.0
C367 C 0.50508 0.1024 0.20694 0.0
C368 C 0.45259 0.10705 0.23197 0.0
C369 C 0.46261 0.13527 0.24772 0.0
N370 N 0.5021 0.17694 0.25353 0.0
N371 N 0.46015 0.07292 0.18599 0.0
C372 C 0.494 0.14717 0.24292 0.0
C373 C 0.47251 0.09338 0.20828 0.0
N374 N 0.54828 0.13477 0.22695 0.0
N375 N 0.42462 0.09262 0.24031 0.0
H376 H 0.47348 0.06415 0.16678 0.0
H377 H 0.43586 0.06779 0.18436 0.0
H378 H 0.40992 0.10108 0.25864 0.0
H379 H 0.41787 0.07036 0.23147 0.0
H380 H 0.55798 0.1514 0.24276 0.0
H381 H 0.56537 0.12146 0.21453 0.0
H382 H 0.52366 0.18783 0.24778 0.0
H383 H 0.48617 0.19217 0.26522 0.0
C384 C 0.66382 0.31331 0.54536 0.0
C385 C 0.65669 0.28033 0.54275 0.0
C386 C 0.60735 0.29285 0.5142 0.0
C387 C 0.61623 0.32551 0.51361 0.0
N388 N 0.65562 0.36619 0.52369 0.0
N389 N 0.62554 0.23828 0.51854 0.0
C390 C 0.64525 0.33562 0.52782 0.0
C391 C 0.62956 0.26993 0.52541 0.0
N392 N 0.6874 0.32346 0.56558 0.0
N393 N 0.57721 0.28375 0.50557 0.0
H394 H 0.64173 0.22068 0.52556 0.0
H395 H 0.60791 0.2299 0.50306 0.0
H396 H 0.55957 0.29976 0.49831 0.0
H397 H 0.56864 0.2607 0.50886 0.0
H398 H 0.69135 0.34741 0.57092 0.0
H399 H 0.7011 0.30793 0.57942 0.0
H400 H 0.6782 0.3739 0.53069 0.0
H401 H 0.64287 0.38311 0.51059 0.0
C402 C 0.00649 0.32496 0.71276 0.0
C403 C -0.00809 0.30777 0.73788 0.0
C404 C 0.00233 0.35133 0.77545 0.0
C405 C 0.01385 0.36981 0.74958 0.0
N406 N 0.02577 0.3759 0.69355 0.0
N407 N 0.97275 0.30477 0.79219 0.0
C408 C 0.0157 0.35708 0.71818 0.0
C409 C 0.98931 0.32079 0.76912 0.0
N410 N 0.01211 0.31021 0.68405 0.0
N411 N 0.00359 0.36308 0.80602 0.0
H412 H 0.96315 0.28212 0.78865 0.0
H413 H 0.9665 0.31465 0.8142 0.0
H414 H 0.01088 0.38619 0.81158 0.0
H415 H -0.00067 0.34933 0.82623 0.0
H416 H 0.02535 0.32027 0.66565 0.0
H417 H 0.00564 0.28661 0.67948 0.0
H418 H 0.02427 0.36935 0.66956 0.0
H419 H 0.03419 0.39905 0.69695 0.0
C420 C 0.83192 0.63983 0.06713 0.0
C421 C 0.80652 0.6532 0.04916 0.0
C422 C 0.8254 0.62526 0.00127 0.0
C423 C 0.85377 0.61702 0.01778 0.0
N424 N 0.88518 0.61712 0.06629 0.0
N425 N 0.7796 0.66049 -0.00148 0.0
C426 C 0.85717 0.62391 0.05087 0.0
C427 C 0.80298 0.64597 0.01616 0.0
N428 N 0.83169 0.64224 0.09975 0.0
N429 N 0.82 0.61314 0.97135 0.0
H430 H 0.76269 0.67599 0.00834 0.0
H431 H 0.77835 0.65908 0.97368 0.0
H432 H 0.83603 0.59765 0.96004 0.0
H433 H 0.79843 0.61581 0.95918 0.0
H434 H 0.84792 0.63044 0.11447 0.0
H435 H 0.8133 0.65364 0.11227 0.0
H436 H 0.8905 0.62524 0.08925 0.0
H437 H 0.9041 0.605 0.05549 0.0
C438 C 0.48165 0.64726 0.21818 0.0
C439 C 0.48692 0.66937 0.24346 0.0
C440 C 0.47369 0.62879 0.28283 0.0
C441 C 0.46621 0.6073 0.2576 0.0
N442 N 0.45609 0.59816 0.20153 0.0
N443 N 0.4795 0.68393 0.29883 0.0
C444 C 0.46796 0.61721 0.2253 0.0
C445 C 0.48013 0.66101 0.27548 0.0
N446 N 0.49143 0.65402 0.18777 0.0
N447 N 0.47686 0.61813 0.31354 0.0
H448 H 0.48346 0.70801 0.29409 0.0
H449 H 0.47173 0.67955 0.32207 0.0
H450 H 0.4744 0.59427 0.3199 0.0
H451 H 0.48542 0.63234 0.33215 0.0
H452 H 0.49139 0.63726 0.1693 0.0
H453 H 0.50219 0.67544 0.18147 0.0
H454 H 0.45384 0.60557 0.17788 0.0
H455 H 0.44567 0.57606 0.20599 0.0
C456 C 0.22963 0.41283 0.08739 0.0
C457 C 0.21273 0.39684 0.11189 0.0
C458 C 0.16182 0.41616 0.09062 0.0
C459 C 0.17869 0.43202 0.06602 0.0
N460 N 0.22709 0.4384 0.03557 0.0
N461 N 0.16325 0.37582 0.13196 0.0
C462 C 0.21216 0.42804 0.06265 0.0
C463 C 0.17891 0.39605 0.11184 0.0
N464 N 0.26217 0.41521 0.08876 0.0
N465 N 0.12992 0.42179 0.095 0.0
H466 H 0.17528 0.36053 0.14755 0.0
H467 H 0.13872 0.37191 0.13098 0.0
H468 H 0.11645 0.43656 0.08015 0.0
H469 H 0.11726 0.41381 0.11482 0.0
H470 H 0.27535 0.42988 0.07373 0.0
H471 H 0.27598 0.4043 0.10639 0.0
H472 H 0.25093 0.43343 0.03035 0.0
H473 H 0.21481 0.44926 0.01679 0.0
C474 C 0.74203 0.95777 0.86202 0.0
C475 C 0.71632 0.97235 0.8787 0.0
C476 C 0.71497 0.01562 0.83969 0.0
C477 C 0.74321 0.00326 0.82554 0.0
N478 N 0.7867 0.96518 0.82615 0.0
N479 N 0.68172 0.01809 0.88677 0.0
C480 C 0.75754 0.97491 0.83733 0.0
C481 C 0.70355 0.002 0.8684 0.0
N482 N 0.75102 0.92723 0.86914 0.0
N483 N 0.69849 0.03982 0.82524 0.0
H484 H 0.67281 0.00943 0.90826 0.0
H485 H 0.67461 0.04148 0.88221 0.0
H486 H 0.70586 0.05029 0.80396 0.0
H487 H 0.67591 0.04735 0.83261 0.0
H488 H 0.76742 0.91423 0.85556 0.0
H489 H 0.73986 0.91374 0.88677 0.0
H490 H 0.79983 0.94672 0.83643 0.0
H491 H 0.79919 0.97731 0.80844 0.0
C492 C 0.81383 0.97744 0.30235 0.0
C493 C 0.78065 0.97302 0.30747 0.0
C494 C 0.78305 0.00545 0.35614 0.0
C495 C 0.81604 0.01109 0.35031 0.0
N496 N 0.86057 0.0094 0.31385 0.0
N497 N 0.73216 0.98945 0.33418 0.0
C498 C 0.83071 -0.00072 0.32207 0.0
C499 C 0.76479 0.98916 0.33275 0.0
N500 N 0.82965 0.95953 0.27996 0.0
N501 N 0.76939 0.01364 0.38474 0.0
H502 H 0.71781 0.97753 0.31771 0.0
H503 H 0.71929 0.004 0.34984 0.0
H504 H 0.78125 0.02558 0.40301 0.0
H505 H 0.74672 0.00611 0.39158 0.0
H506 H 0.85443 0.95927 0.27774 0.0
H507 H 0.81839 0.94273 0.26542 0.0
H508 H 0.87127 0.00401 0.29199 0.0
H509 H 0.8733 0.02594 0.32751 0.0
C510 C 0.25232 0.56704 0.59736 0.0
C511 C 0.26595 0.58398 0.62341 0.0
C512 C 0.31846 0.56092 0.61162 0.0
C513 C 0.30508 0.54503 0.58478 0.0
N514 N 0.26149 0.53924 0.54738 0.0
N515 N 0.31275 0.60333 0.65079 0.0
C516 C 0.27266 0.55004 0.57617 0.0
C517 C 0.29932 0.5829 0.62908 0.0
N518 N 0.21989 0.56565 0.59379 0.0
N519 N 0.34878 0.55376 0.62151 0.0
H520 H 0.29938 0.62008 0.66365 0.0
H521 H 0.33732 0.60586 0.65373 0.0
H522 H 0.36349 0.53742 0.60969 0.0
H523 H 0.35842 0.56194 0.64299 0.0
H524 H 0.20863 0.55036 0.57768 0.0
H525 H 0.20397 0.57781 0.60862 0.0
H526 H 0.23902 0.54515 0.53839 0.0
H527 H 0.27576 0.52696 0.531 0.0
C528 C 0.25174 0.38919 0.49504 0.0
C529 C 0.28084 0.39821 0.48037 0.0
C530 C 0.27249 0.35891 0.43784 0.0
C531 C 0.24473 0.34804 0.45382 0.0
N532 N 0.2115 0.34832 0.50098 0.0
N533 N 0.32296 0.38628 0.44276 0.0
C534 C 0.23534 0.36188 0.48343 0.0
C535 C 0.29245 0.38143 0.45324 0.0
N536 N 0.23907 0.4074 0.51912 0.0
N537 N 0.27902 0.34907 0.40729 0.0
H538 H 0.33871 0.40179 0.4542 0.0
H539 H 0.33369 0.3724 0.42501 0.0
H540 H 0.2644 0.3335 0.39451 0.0
H541 H 0.29711 0.35891 0.39344 0.0
H542 H 0.21618 0.404 0.52821 0.0
H543 H 0.25034 0.4276 0.5283 0.0
H544 H 0.2059 0.3554 0.52423 0.0
H545 H 0.19927 0.328 0.49352 0.0
C546 C 0.84108 0.97986 0.66882 0.0
C547 C 0.86792 0.98964 0.65068 0.0
C548 C 0.86396 0.04303 0.67457 0.0
C549 C 0.83491 0.03412 0.68955 0.0
N550 N 0.79181 -0.00372 0.69408 0.0
N551 N 0.90135 0.03242 0.63164 0.0
C552 C 0.82227 0.00317 0.68468 0.0
C553 C 0.87844 0.02178 0.65222 0.0
N554 N 0.83432 0.94819 0.67225 0.0
N555 N 0.87852 0.07107 0.68262 0.0
H556 H 0.91227 0.01786 0.61456 0.0
H557 H 0.90736 0.0564 0.62951 0.0
H558 H 0.86923 0.08695 0.6995 0.0
H559 H 0.90133 0.07713 0.67484 0.0
H560 H 0.8168 0.93986 0.68778 0.0
H561 H 0.84849 0.93007 0.66255 0.0
H562 H 0.78052 0.97491 0.68831 0.0
H563 H 0.77658 0.01317 0.70439 0.0
C564 C 0.21083 0.63377 0.95451 0.0
C565 C 0.23395 0.65143 0.9718 0.0
C566 C 0.22582 0.61717 0.01842 0.0
C567 C 0.2002 0.60198 0.00226 0.0
N568 N 0.16351 0.60134 0.95753 0.0
N569 N 0.25933 0.66397 0.0221 0.0
C570 C 0.19135 0.61177 0.97099 0.0
C571 C 0.24039 0.64424 0.00431 0.0
N572 N 0.20818 0.63708 0.9221 0.0
N573 N 0.23699 0.60514 0.04665 0.0
H574 H 0.26956 0.68452 0.01278 0.0
H575 H 0.26228 0.66171 0.04673 0.0
H576 H 0.22728 0.58504 0.05748 0.0
H577 H 0.25772 0.61328 0.05775 0.0
H578 H 0.19404 0.62227 0.90793 0.0
H579 H 0.2226 0.65234 0.90892 0.0
H580 H 0.15442 0.61032 0.93616 0.0
H581 H 0.1477 0.58635 0.9693 0.0
C582 C 0.64452 0.023 0.21826 0.0
C583 C 0.62947 0.01235 0.18976 0.0
C584 C 0.64571 0.95746 0.20171 0.0
C585 C 0.66363 0.96874 0.22826 0.0
N586 N 0.68691 0.01347 0.25626 0.0
N587 N 0.62209 0.97044 0.15057 0.0
C588 C 0.66505 0.00189 0.23494 0.0
C589 C 0.63185 0.97983 0.18035 0.0
N590 N 0.63815 0.0527 0.23033 0.0
N591 N 0.64072 0.92553 0.19754 0.0
H592 H 0.61291 0.98625 0.13371 0.0
H593 H 0.62624 0.94764 0.14144 0.0
H594 H 0.64989 0.90833 0.21294 0.0
H595 H 0.62495 0.91636 0.18056 0.0
H596 H 0.6462 0.06026 0.2527 0.0
H597 H 0.62202 0.06849 0.21977 0.0
H598 H 0.69081 0.03776 0.2598 0.0
H599 H 0.70372 -0.00106 0.26751 0.0
C600 C 0.77778 0.12775 0.54492 0.0
C601 C 0.74491 0.13487 0.54084 0.0
C602 C 0.74528 0.10807 0.48862 0.0
C603 C 0.77722 0.09821 0.49431 0.0
N604 N 0.82163 0.09284 0.53085 0.0
N605 N 0.69581 0.1281 0.51135 0.0
C606 C 0.79292 0.10648 0.52326 0.0
C607 C 0.72818 0.12411 0.51332 0.0
N608 N 0.79487 0.14217 0.5688 0.0
N609 N 0.73163 0.10296 0.45933 0.0
H610 H 0.68244 0.13962 0.52903 0.0
H611 H 0.68182 0.11772 0.49356 0.0
H612 H 0.74345 0.09124 0.44069 0.0
H613 H 0.70968 0.1126 0.4526 0.0
H614 H 0.81963 0.14047 0.57069 0.0
H615 H 0.78481 0.15839 0.58492 0.0
H616 H 0.83248 0.09538 0.55315 0.0
H617 H 0.83306 0.07629 0.51612 0.0
C618 C 0.1169 0.56265 0.7134 0.0
C619 C 0.13558 0.55599 0.68596 0.0
C620 C 0.12074 0.49963 0.68933 0.0
C621 C 0.10615 0.50588 0.71935 0.0
N622 N 0.09713 0.54249 0.76342 0.0
N623 N 0.1583 0.5176 0.64919 0.0
C624 C 0.10592 0.53718 0.73233 0.0
C625 C 0.13817 0.52433 0.67405 0.0
N626 N 0.10895 0.59338 0.72093 0.0
N627 N 0.11738 0.47039 0.67519 0.0
H628 H 0.17135 0.53507 0.63737 0.0
H629 H 0.16386 0.49448 0.64182 0.0
H630 H 0.10465 0.45187 0.68574 0.0
H631 H 0.12478 0.46539 0.65192 0.0
H632 H 0.09295 0.5994 0.73909 0.0
H633 H 0.11537 0.61244 0.70649 0.0
H634 H 0.09958 0.56455 0.77472 0.0
H635 H 0.09093 0.52426 0.77907 0.0
C636 C 0.74012 0.8553 0.98485 0.0
C637 C 0.70634 0.85687 0.98638 0.0
C638 C 0.70568 0.81449 0.02644 0.0
C639 C 0.73959 0.81521 0.02741 0.0
N640 N 0.78952 0.83725 0.00943 0.0
N641 N 0.65697 0.84218 0.01194 0.0
C642 C 0.75696 0.83591 0.00711 0.0
C643 C 0.68907 0.83744 0.0079 0.0
N644 N 0.75594 0.87182 0.96164 0.0
N645 N 0.68927 0.79202 0.04333 0.0
H646 H 0.64403 0.85919 -0.00079 0.0
H647 H 0.64363 0.83144 0.02989 0.0
H648 H 0.70023 0.77547 0.05826 0.0
H649 H 0.66488 0.78802 0.04059 0.0
H650 H 0.78024 0.86929 0.95704 0.0
H651 H 0.74424 0.88647 0.94523 0.0
H652 H 0.80336 0.85441 -0.00185 0.0
H653 H 0.80275 0.82202 0.02407 0.0
C654 C 0.34755 0.43626 0.21339 0.0
C655 C 0.32709 0.41821 0.23339 0.0
C656 C 0.34385 0.44956 0.27991 0.0
C657 C 0.36201 0.46942 0.25947 0.0
N658 N 0.37724 0.48525 0.2063 0.0
N659 N 0.3008 0.41155 0.28431 0.0
C660 C 0.36273 0.46383 0.22603 0.0
C661 C 0.32379 0.42597 0.26628 0.0
N662 N 0.35377 0.42623 0.18285 0.0
N663 N 0.3469 0.45217 0.3124 0.0
H664 H 0.28532 0.39434 0.27518 0.0
H665 H 0.29503 0.41878 0.30747 0.0
H666 H 0.36187 0.46869 0.32351 0.0
H667 H 0.33697 0.43596 0.32833 0.0
H668 H 0.37114 0.43647 0.16839 0.0
H669 H 0.34365 0.40583 0.1728 0.0
H670 H 0.37556 0.48428 0.18146 0.0
H671 H 0.38871 0.50565 0.21479 0.0
C672 C 0.45424 0.29579 0.42588 0.0
C673 C 0.46919 0.32038 0.40823 0.0
C674 C 0.4509 0.29675 0.35774 0.0
C675 C 0.43626 0.27192 0.37539 0.0
N676 N 0.41964 0.24942 0.42566 0.0
N677 N 0.47887 0.34743 0.35839 0.0
C678 C 0.43647 0.27203 0.40934 0.0
C679 C 0.4665 0.3219 0.37442 0.0
N680 N 0.4577 0.29491 0.45842 0.0
N681 N 0.45022 0.29588 0.325 0.0
H682 H 0.49179 0.36553 0.36958 0.0
H683 H 0.47509 0.35191 0.33424 0.0
H684 H 0.43716 0.27912 0.31202 0.0
H685 H 0.46338 0.31091 0.31039 0.0
H686 H 0.45082 0.27584 0.47262 0.0
H687 H 0.46876 0.31304 0.47144 0.0
H688 H 0.41585 0.24995 0.45024 0.0
H689 H 0.40775 0.23065 0.41444 0.0
C690 C 0.97986 0.11707 0.62835 0.0
C691 C 0.013 0.11773 0.63558 0.0
C692 C 0.00241 0.14956 0.68364 0.0
C693 C 0.97007 0.15256 0.674 0.0
N694 N 0.92794 0.14171 0.63603 0.0
N695 N 0.05662 0.1351 0.66895 0.0
C696 C 0.95858 0.13658 0.64632 0.0
C697 C 0.02451 0.13401 0.66301 0.0
N698 N 0.96879 0.09819 0.60401 0.0
N699 N 0.01169 0.16086 0.71293 0.0
H700 H 0.07335 0.12246 0.65536 0.0
H701 H 0.0669 0.14977 0.68623 0.0
H702 H -0.00412 0.17191 0.72882 0.0
H703 H 0.03419 0.15683 0.72277 0.0
H704 H 0.94467 0.09404 0.59973 0.0
H705 H 0.98369 0.08467 0.58929 0.0
H706 H 0.91927 0.13391 0.61403 0.0
H707 H 0.91155 0.15591 0.64838 0.0
C708 C 0.01123 0.71048 0.92594 0.0
C709 C -0.00791 0.68624 0.91209 0.0
C710 C -0.00096 0.7101 0.85913 0.0
C711 C 0.021 0.7321 0.87254 0.0
N712 N 0.05141 0.75107 0.91781 0.0
N713 N 0.97251 0.65931 0.86479 0.0
C714 C 0.02814 0.73165 0.90571 0.0
C715 C 0.98694 0.6852 0.8785 0.0
N716 N 0.0123 0.71397 0.95846 0.0
N717 N 0.9901 0.71267 0.82777 0.0
H718 H 0.96437 0.63991 0.87788 0.0
H719 H 0.97133 0.65552 0.84018 0.0
H720 H -0.0002 0.72936 0.81218 0.0
H721 H 0.97137 0.69973 0.81777 0.0
H722 H 0.02334 0.73304 0.96996 0.0
H723 H -0.00059 0.69945 0.97394 0.0
H724 H 0.06027 0.74917 0.94101 0.0
H725 H 0.06358 0.76769 0.90399 0.0
C726 C 0.54293 0.826 0.15401 0.0
C727 C 0.52625 0.82153 0.18327 0.0
C728 C 0.4793 0.84895 0.16139 0.0
C729 C 0.49475 0.85034 0.13126 0.0
N730 N 0.53973 0.83814 0.09738 0.0
N731 N 0.47833 0.82686 0.21488 0.0
C732 C 0.5263 0.83864 0.12722 0.0
C733 C 0.49434 0.83248 0.18697 0.0
N734 N 0.57455 0.81791 0.15171 0.0
N735 N 0.45083 0.8645 0.16584 0.0
H736 H 0.48921 0.81698 0.235 0.0
H737 H 0.45387 0.83048 0.21768 0.0
H738 H 0.43921 0.877 0.14767 0.0
H739 H 0.43992 0.86735 0.18803 0.0
H740 H 0.58897 0.82412 0.13248 0.0
H741 H 0.58724 0.80666 0.1699 0.0
H742 H 0.56105 0.8265 0.09192 0.0
H743 H 0.52843 0.84748 0.07723 0.0
C744 C 0.20468 0.34297 0.31939 0.0
C745 C 0.20583 0.30916 0.31899 0.0
C746 C 0.20107 0.30909 0.26071 0.0
C747 C 0.20719 0.34229 0.26105 0.0
N748 N 0.19539 0.39123 0.2889 0.0
N749 N 0.20169 0.25942 0.29028 0.0
C750 C 0.20288 0.35955 0.28991 0.0
C751 C 0.2023 0.29199 0.28993 0.0
N752 N 0.2071 0.35915 0.34773 0.0
N753 N 0.19264 0.29455 0.23268 0.0
H754 H 0.20079 0.24641 0.31148 0.0
H755 H 0.20325 0.24531 0.26978 0.0
H756 H 0.18866 0.30758 0.21182 0.0
H757 H 0.18591 0.27074 0.2309 0.0
H758 H 0.21053 0.38369 0.34926 0.0
H759 H 0.20726 0.3477 0.36982 0.0
H760 H 0.18994 0.40482 0.30909 0.0
H761 H 0.1903 0.40273 0.26739 0.0
C762 C 0.85989 0.98066 0.51098 0.0
C763 C 0.85318 0.96974 0.4797 0.0
C764 C 0.88068 0.91936 0.49164 0.0
C765 C 0.89164 0.93285 0.52078 0.0
N766 N 0.89871 0.98032 0.55324 0.0
N767 N 0.85951 0.92956 0.43857 0.0
C768 C 0.88307 0.96455 0.52927 0.0
C769 C 0.86382 0.93908 0.46956 0.0
N770 N 0.84409 0.00654 0.52322 0.0
N771 N 0.88638 0.8879 0.48514 0.0
H772 H 0.8473 0.94328 0.42177 0.0
H773 H 0.86988 0.90903 0.42896 0.0
H774 H 0.89917 0.87319 0.50068 0.0
H775 H 0.8764 0.87593 0.4657 0.0
H776 H 0.8465 0.01393 0.54695 0.0
H777 H 0.82592 0.01816 0.51067 0.0
H778 H 0.89523 0.00453 0.55792 0.0
H779 H 0.9177 0.9704 0.56593 0.0
C780 C 0.25216 0.64002 0.79341 0.0
C781 C 0.23771 0.6578 0.76839 0.0
C782 C 0.24371 0.70654 0.80027 0.0
C783 C 0.2511 0.68777 0.82717 0.0
N784 N 0.2641 0.63691 0.85018 0.0
N785 N 0.21667 0.70848 0.74953 0.0
C786 C 0.25631 0.65457 0.82391 0.0
C787 C 0.23325 0.69136 0.77183 0.0
N788 N 0.26219 0.60945 0.78779 0.0
N789 N 0.24637 0.73894 0.80216 0.0
H790 H 0.20736 0.69873 0.72866 0.0
H791 H 0.20952 0.73206 0.75314 0.0
H792 H 0.25483 0.75033 0.82272 0.0
H793 H 0.24381 0.7539 0.78248 0.0
H794 H 0.27517 0.59608 0.80426 0.0
H795 H 0.26019 0.59856 0.76538 0.0
H796 H 0.26434 0.61208 0.85034 0.0
H797 H 0.26915 0.64736 0.87232 0.0
C798 C 0.60313 0.05172 0.02429 0.0
C799 C 0.61703 0.05407 0.05502 0.0
C800 C 0.66719 0.03159 0.03526 0.0
C801 C 0.65209 0.02594 0.00537 0.0
N802 N 0.61063 0.0395 0.96792 0.0
N803 N 0.66412 0.0573 0.08745 0.0
C804 C 0.62167 0.03928 -0.00131 0.0
C805 C 0.64992 0.04803 0.05955 0.0
N806 N 0.57171 0.05969 0.02028 0.0
N807 N 0.69681 0.01916 0.04124 0.0
H808 H 0.65151 0.06975 0.10507 0.0
H809 H 0.68856 0.05564 0.09174 0.0
H810 H 0.71036 0.00743 0.02389 0.0
H811 H 0.70744 0.01916 0.06376 0.0
H812 H 0.55874 0.05494 -0.00044 0.0
H813 H 0.55836 0.07043 0.03849 0.0
H814 H 0.58954 0.05069 0.9609 0.0
H815 H 0.62425 0.03076 0.94886 0.0
C816 C 0.67726 0.12552 0.67112 0.0
C817 C 0.67453 0.15754 0.68156 0.0
C818 C 0.69648 0.14255 0.73371 0.0
C819 C 0.70641 0.1129 0.7202 0.0
N820 N 0.70673 0.07613 0.67534 0.0
N821 N 0.66532 0.19128 0.72715 0.0
C822 C 0.69624 0.10394 0.689 0.0
C823 C 0.67922 0.16461 0.71436 0.0
N824 N 0.66083 0.11569 0.64466 0.0
N825 N 0.70418 0.14973 0.7647 0.0
H826 H 0.6494 0.20527 0.71402 0.0
H827 H 0.66625 0.19746 0.75125 0.0
H828 H 0.71444 0.13315 0.7802 0.0
H829 H 0.70122 0.1722 0.77495 0.0
H830 H 0.65988 0.09198 0.63717 0.0
H831 H 0.64481 0.13074 0.63287 0.0
H832 H 0.70298 0.07047 0.65134 0.0
H833 H 0.72152 0.05986 0.68701 0.0
C834 C 0.12252 0.49431 0.90811 0.0
C835 C 0.1383 0.47096 0.92671 0.0
C836 C 0.12389 0.42989 0.88751 0.0
C837 C 0.10419 0.45248 0.87162 0.0
N838 N 0.07986 0.50503 0.87099 0.0
N839 N 0.15206 0.41593 0.93627 0.0
C840 C 0.1023 0.48447 0.88288 0.0
C841 C 0.13872 0.43855 0.91692 0.0
N842 N 0.12731 0.52601 0.9142 0.0
N843 N 0.12909 0.40055 0.87408 0.0
H844 H 0.16346 0.42149 0.95777 0.0
H845 H 0.14988 0.39152 0.93216 0.0
H846 H 0.11892 0.3936 0.85237 0.0
H847 H 0.14567 0.38423 0.88293 0.0
H848 H 0.11882 0.54406 0.89935 0.0
H849 H 0.14267 0.53417 0.9321 0.0
H850 H 0.07525 0.52739 0.88098 0.0
H851 H 0.06343 0.49865 0.85345 0.0
C852 C 0.78616 0.84212 0.18178 0.0
C853 C 0.76969 0.83345 0.21013 0.0
C854 C 0.79118 0.77925 0.20555 0.0
C855 C 0.79985 0.78595 0.17363 0.0
N856 N 0.82212 0.82546 0.13903 0.0
N857 N 0.75795 0.79409 0.25059 0.0
C858 C 0.80265 0.81814 0.1641 0.0
C859 C 0.77341 0.80236 0.22308 0.0
N860 N 0.78518 0.873 0.17146 0.0
N861 N 0.8007 0.75124 0.21909 0.0
H862 H 0.74432 0.81008 0.26404 0.0
H863 H 0.75675 0.77075 0.25888 0.0
H864 H 0.81592 0.73543 0.2071 0.0
H865 H 0.79709 0.74574 0.24308 0.0
H866 H 0.79342 0.88033 0.14921 0.0
H867 H 0.77532 0.89146 0.18512 0.0
H868 H 0.82685 0.84857 0.13148 0.0
H869 H 0.83635 0.80813 0.12796 0.0
C870 C 0.38293 0.49591 0.43398 0.0
C871 C 0.36307 0.51783 0.45083 0.0
C872 C 0.37658 0.5593 0.41197 0.0
C873 C 0.39844 0.53792 0.39728 0.0
N874 N 0.43024 0.49008 0.40175 0.0
N875 N 0.34761 0.57275 0.46033 0.0
C876 C 0.40413 0.50756 0.41071 0.0
C877 C 0.36174 0.5503 0.44116 0.0
N878 N 0.38039 0.46377 0.43854 0.0
N879 N 0.36913 0.58759 0.39766 0.0
H880 H 0.33791 0.56746 0.48263 0.0
H881 H 0.34859 0.59711 0.45563 0.0
H882 H 0.37967 0.59502 0.37639 0.0
H883 H 0.35073 0.60243 0.40563 0.0
H884 H 0.39265 0.44709 0.42458 0.0
H885 H 0.36324 0.45355 0.4532 0.0
H886 H 0.43684 0.46886 0.41293 0.0
H887 H 0.44731 0.49889 0.38603 0.0
C888 C 0.3111 0.18481 0.40436 0.0
C889 C 0.28688 0.19793 0.38446 0.0
C890 C 0.30319 0.16159 0.34166 0.0
C891 C 0.3327 0.15726 0.35736 0.0
N892 N 0.36072 0.15433 0.40732 0.0
N893 N 0.25937 0.198 0.33327 0.0
C894 C 0.33509 0.16513 0.39025 0.0
C895 C 0.2821 0.1855 0.35311 0.0
N896 N 0.3108 0.19111 0.43647 0.0
N897 N 0.29552 0.14294 0.31601 0.0
H898 H 0.24399 0.21642 0.33989 0.0
H899 H 0.25764 0.19179 0.30916 0.0
H900 H 0.31002 0.12384 0.30897 0.0
H901 H 0.27327 0.14379 0.30483 0.0
H902 H 0.32677 0.18119 0.45273 0.0
H903 H 0.29275 0.20457 0.4473 0.0
H904 H 0.36626 0.16168 0.43045 0.0
H905 H 0.37658 0.13756 0.39769 0.0
C906 C 0.0225 0.98243 0.54629 0.0
C907 C 0.02077 0.97698 0.57978 0.0
C908 C 0.07524 -0.00288 0.58624 0.0
C909 C 0.07477 0.00632 0.5537 0.0
N910 N 0.05787 0.99008 0.50119 0.0
N911 N 0.0493 0.96827 0.62923 0.0
C912 C 0.05175 -0.00715 0.53309 0.0
C913 C 0.04851 0.9807 0.59907 0.0
N914 N -0.00405 0.9801 0.52742 0.0
N915 N 0.10074 0.00544 0.60479 0.0
H916 H 0.03036 0.95536 0.63881 0.0
H917 H 0.0695 0.9683 0.64374 0.0
H918 H 0.12124 0.01544 0.59481 0.0
H919 H 0.10142 0.00309 0.62955 0.0
H920 H -0.00428 0.98709 0.50352 0.0
H921 H 0.97349 0.9741 0.53618 0.0
H922 H 0.04243 0.97865 0.48531 0.0
H923 H 0.08025 -0.00446 0.49173 0.0
C924 C 0.14822 0.80296 0.92085 0.0
C925 C 0.17187 0.79121 0.89932 0.0
C926 C 0.14769 0.82241 0.85624 0.0
C927 C 0.12019 0.82677 0.87534 0.0
N928 N 0.10139 0.83688 0.9286 0.0
N929 N 0.19381 0.78947 0.84568 0.0
C930 C 0.12259 0.8219 0.90874 0.0
C931 C 0.17213 0.80157 0.86696 0.0
N932 N 0.15 0.79529 0.95255 0.0
N933 N 0.15052 0.83873 0.82823 0.0
H934 H 0.21159 0.77327 0.85196 0.0
H935 H 0.19243 0.79341 0.82112 0.0
H936 H 0.13363 0.85577 0.82133 0.0
H937 H 0.17114 0.83838 0.81429 0.0
H938 H 0.13193 0.79986 0.96902 0.0
H939 H 0.16971 0.78361 0.96242 0.0
H940 H 0.10213 0.83571 0.95343 0.0
H941 H 0.08501 0.85361 0.92 0.0
C942 C 0.45721 0.99001 0.12288 0.0
C943 C 0.48211 0.00257 0.10358 0.0
C944 C 0.45054 -0.00866 0.0557 0.0
C945 C 0.43117 0.97088 0.07396 0.0
N946 N 0.40776 0.95948 0.1249 0.0
N947 N 0.50271 0.01493 0.0509 0.0
C948 C 0.43162 0.97346 0.10776 0.0
C949 C 0.47857 0.00389 0.06979 0.0
N950 N 0.45816 -0.00596 0.15535 0.0
N951 N 0.44183 -0.00094 0.02525 0.0
H952 H 0.52429 0.0233 0.05995 0.0
H953 H 0.50238 0.01306 0.02604 0.0
H954 H 0.41982 -0.0078 0.01577 0.0
H955 H 0.45414 0.01559 0.01145 0.0
H956 H 0.44028 0.98678 0.1709 0.0
H957 H 0.47644 0.00631 0.16695 0.0
H958 H 0.40743 0.95747 0.14967 0.0
H959 H 0.3876 0.95006 0.11361 0.0
C960 C 0.78127 0.24642 0.67914 0.0
C961 C 0.78046 0.23682 0.64665 0.0
C962 C 0.83469 0.25689 0.63891 0.0
C963 C 0.8373 0.26147 0.67238 0.0
N964 N 0.81377 0.25972 0.72512 0.0
N965 N 0.80613 0.23167 0.5952 0.0
C966 C 0.81061 0.2566 0.69271 0.0
C967 C 0.80692 0.24218 0.62621 0.0
N968 N 0.75385 0.24608 0.69688 0.0
N969 N 0.85884 0.26682 0.61941 0.0
H970 H 0.78602 0.22122 0.58486 0.0
H971 H 0.82597 0.2314 0.58022 0.0
H972 H 0.87933 0.2779 0.62828 0.0
H973 H 0.85737 0.26685 0.59455 0.0
H974 H 0.75206 0.25582 0.71977 0.0
H975 H 0.732 0.23862 0.68757 0.0
H976 H 0.79656 0.25224 0.74138 0.0
H977 H 0.83445 0.26805 0.73611 0.0
C978 C 0.96495 0.53638 0.82698 0.0
C979 C 0.98441 0.51011 0.83584 0.0
C980 C 0.96816 0.51719 0.89172 0.0
C981 C 0.95513 0.54717 0.88364 0.0
N982 N 0.93732 0.58462 0.84405 0.0
N983 N 0.00373 0.47414 0.87686 0.0
C984 C 0.95169 0.55624 0.85127 0.0
C985 C 0.98506 0.49947 0.86815 0.0
N986 N 0.9594 0.54216 0.79531 0.0
N987 N 0.96464 0.5061 0.9222 0.0
H988 H 0.01578 0.4597 0.86059 0.0
H989 H 0.00871 0.46829 0.90052 0.0
H990 H 0.95226 0.51902 0.93968 0.0
H991 H 0.97106 0.48317 0.92925 0.0
H992 H 0.94362 0.5595 0.78702 0.0
H993 H 0.96861 0.52749 0.77727 0.0
H994 H 0.93748 0.59476 0.82138 0.0
H995 H 0.92584 0.59856 0.86132 0.0
C996 C 0.63225 0.71693 0.1441 0.0
C997 C 0.6267 0.73527 0.17217 0.0
C998 C 0.68159 0.75471 0.17037 0.0
C999 C 0.68557 0.74034 0.13992 0.0
N1000 N 0.66283 0.71151 0.09524 0.0
N1001 N 0.64426 0.77753 0.20786 0.0
C1002 C 0.6605 0.72223 0.12608 0.0
C1003 C 0.65089 0.7557 0.18434 0.0
N1004 N 0.61097 0.69395 0.13508 0.0
N1005 N 0.70731 0.76685 0.18636 0.0
H1006 H 0.6217 0.78063 0.21788 0.0
H1007 H 0.66035 0.79509 0.21497 0.0
H1008 H 0.73045 0.76563 0.17728 0.0
H1009 H 0.70613 0.7748 0.20998 0.0
H1010 H 0.61538 0.67778 0.1166 0.0
H1011 H 0.59031 0.68902 0.14805 0.0
H1012 H 0.6438 0.70128 0.0829 0.0
H1013 H 0.68283 0.71533 0.08095 0.0
C1014 C 0.52264 0.44249 0.3376 0.0
C1015 C 0.50946 0.47302 0.34443 0.0
C1016 C 0.545 0.47797 0.3908 0.0
C1017 C 0.55159 0.44502 0.38831 0.0
N1018 N 0.56287 0.40276 0.35097 0.0
N1019 N 0.50986 0.52148 0.37635 0.0
C1020 C 0.54556 0.42929 0.3589 0.0
C1021 C 0.52189 0.49175 0.37008 0.0
N1022 N 0.51224 0.42574 0.31151 0.0
N1023 N 0.56166 0.49598 0.41231 0.0
H1024 H 0.49321 0.53289 0.36182 0.0
H1025 H 0.51501 0.53426 0.39712 0.0
H1026 H 0.58025 0.48626 0.42584 0.0
H1027 H 0.55992 0.52072 0.41382 0.0
H1028 H 0.51772 0.40182 0.30742 0.0
H1029 H 0.49707 0.43567 0.29438 0.0
H1030 H 0.5611 0.39103 0.32905 0.0
H1031 H 0.58197 0.39496 0.36502 0.0
C1032 C 0.34964 0.26725 0.25816 0.0
C1033 C 0.3723 0.24699 0.24309 0.0
C1034 C 0.34703 0.25687 0.19106 0.0
C1035 C 0.32254 0.2743 0.20678 0.0
N1036 N 0.29764 0.29229 0.25593 0.0
N1037 N 0.39055 0.21883 0.19598 0.0
C1038 C 0.32288 0.27819 0.24055 0.0
C1039 C 0.37061 0.24087 0.20968 0.0
N1040 N 0.35464 0.27753 0.28885 0.0
N1041 N 0.34792 0.25592 0.15839 0.0
H1042 H 0.40818 0.2067 0.20875 0.0
H1043 H 0.38812 0.21076 0.17252 0.0
H1044 H 0.33026 0.26629 0.14415 0.0
H1045 H 0.3671 0.24669 0.14543 0.0
H1046 H 0.34073 0.29497 0.3 0.0
H1047 H 0.37482 0.27128 0.30208 0.0
H1048 H 0.29491 0.29214 0.2807 0.0
H1049 H 0.27806 0.30206 0.24407 0.0
C1050 C 0.82965 0.1819 0.82031 0.0
C1051 C 0.83829 0.14934 0.81886 0.0
C1052 C 0.89039 0.16297 0.79693 0.0
C1053 C 0.8776 0.19333 0.78927 0.0
N1054 N 0.83975 0.23517 0.79996 0.0
N1055 N 0.88112 0.11158 0.82229 0.0
C1056 C 0.84897 0.20416 0.80378 0.0
C1057 C 0.87051 0.14096 0.81311 0.0
N1058 N 0.80354 0.19116 0.83753 0.0
N1059 N 0.92006 0.15445 0.78627 0.0
H1060 H 0.86616 0.09587 0.83447 0.0
H1061 H 0.90469 0.10389 0.82028 0.0
H1062 H 0.93543 0.17065 0.77549 0.0
H1063 H 0.92946 0.13151 0.7879 0.0
H1064 H 0.79639 0.21479 0.84042 0.0
H1065 H 0.79126 0.1752 0.85205 0.0
H1066 H 0.81754 0.24413 0.80673 0.0
H1067 H 0.8548 0.25187 0.78936 0.0
C1068 C 0.03148 0.61634 0.02568 0.0
C1069 C 0.00339 0.59764 0.02754 0.0
C1070 C 0.03521 0.54923 0.03534 0.0
C1071 C 0.06318 0.56743 0.03023 0.0
N1072 N 0.08932 0.61832 0.03026 0.0
N1073 N 0.97772 0.54937 0.04386 0.0
C1074 C 0.06169 0.60113 0.02887 0.0
C1075 C 0.00511 0.56503 0.03592 0.0
N1076 N 0.02931 0.64807 0.01863 0.0
N1077 N 0.03729 0.51676 0.03741 0.0
H1078 H 0.95557 0.56092 0.0445 0.0
H1079 H 0.97721 0.52613 0.05249 0.0
H1080 H 0.05908 0.50461 0.03796 0.0
H1081 H 0.01759 0.50172 0.03733 0.0
H1082 H 0.04879 0.66215 0.0126 0.0
H1083 H 0.00761 0.66026 0.01767 0.0
H1084 H 0.09006 0.64307 0.03199 0.0
H1085 H 0.11166 0.60745 0.03252 0.0
C1086 C 0.60816 0.86314 0.29865 0.0
C1087 C 0.63865 0.84826 0.30029 0.0
C1088 C 0.61402 0.79945 0.32006 0.0
C1089 C 0.58396 0.81199 0.31096 0.0
N1090 N 0.55156 0.8593 0.3109 0.0
N1091 N 0.67179 0.80428 0.31711 0.0
C1092 C 0.58066 0.84518 0.30661 0.0
C1093 C 0.64204 0.81729 0.31342 0.0
N1094 N 0.60548 0.89375 0.28792 0.0
N1095 N 0.61521 0.77035 0.33448 0.0
H1096 H 0.69265 0.81714 0.31295 0.0
H1097 H 0.67596 0.78066 0.32343 0.0
H1098 H 0.59433 0.75792 0.33989 0.0
H1099 H 0.63598 0.75996 0.34341 0.0
H1100 H 0.58374 0.90462 0.28251 0.0
H1101 H 0.62535 0.90788 0.2832 0.0
H1102 H 0.5478 0.88383 0.30988 0.0
H1103 H 0.53207 0.84651 0.31955 0.0
C1104 C 0.43127 0.38323 0.55123 0.0
C1105 C 0.42499 0.41552 0.54357 0.0
C1106 C 0.48129 0.42351 0.5307 0.0
C1107 C 0.48586 0.39007 0.53187 0.0
N1108 N 0.47177 0.34292 0.56127 0.0
N1109 N 0.44594 0.46817 0.53179 0.0
C1110 C 0.46292 0.37125 0.54794 0.0
C1111 C 0.4505 0.43629 0.53589 0.0
N1112 N 0.40681 0.36382 0.56026 0.0
N1113 N 0.50635 0.44324 0.52458 0.0
H1114 H 0.424 0.47975 0.53497 0.0
H1115 H 0.424 0.47975 0.53497 0.0
H1116 H 0.52989 0.43491 0.52388 0.0
H1117 H 0.50368 0.46793 0.52267 0.0
H1118 H 0.40913 0.33918 0.56241 0.0
H1119 H 0.38372 0.37245 0.56431 0.0
H1120 H 0.4565 0.32896 0.57491 0.0
H1121 H 0.49565 0.33576 0.56241 0.0
C1122 C 0.14479 0.73429 0.7032 0.0
C1123 C 0.13118 0.7037 0.699 0.0
C1124 C 0.08812 0.71676 0.73605 0.0
C1125 C 0.10294 0.74656 0.74237 0.0
N1126 N 0.13784 0.78813 0.7236 0.0
N1127 N 0.08402 0.67174 0.69962 0.0
C1128 C 0.12886 0.75683 0.72312 0.0
C1129 C 0.10054 0.69725 0.71125 0.0
N1130 N 0.17364 0.74115 0.68977 0.0
N1131 N 0.06411 0.7058 0.75516 0.0
H1132 H 0.09304 0.65785 0.68085 0.0
H1133 H 0.0605 0.66677 0.70594 0.0
H1134 H 0.0551 0.71841 0.7747 0.0
H1135 H 0.05499 0.68278 0.75335 0.0
H1136 H 0.18687 0.76135 0.69561 0.0
H1137 H 0.18494 0.72595 0.67353 0.0
H1138 H 0.15482 0.79757 0.70815 0.0
H1139 H 0.12592 0.80536 0.7372 0.0
C1140 C 0.50973 0.90654 0.98102 0.0
C1141 C 0.50662 0.87361 0.98782 0.0
C1142 C 0.56151 0.86439 0.96969 0.0
C1143 C 0.56661 0.89778 0.9713 0.0
N1144 N 0.54569 0.9513 0.97612 0.0
N1145 N 0.52333 0.82087 0.97247 0.0
C1146 C 0.54063 0.91911 0.97577 0.0
C1147 C 0.53071 0.85224 0.97712 0.0
N1148 N 0.48314 0.92515 0.97749 0.0
N1149 N 0.58641 0.84448 0.96246 0.0
H1150 H 0.49995 0.81258 0.97462 0.0
H1151 H 0.53907 0.80395 0.9632 0.0
H1152 H 0.60849 0.85296 0.95481 0.0
H1153 H 0.5856 0.81979 0.9646 0.0
H1154 H 0.48389 0.94901 0.97073 0.0
H1155 H 0.46027 0.91541 0.97657 0.0
H1156 H 0.52843 0.96779 0.98335 0.0
H1157 H 0.56776 0.96142 0.97072 0.0
C1158 C 0.94453 0.11546 0.48248 0.0
C1159 C 0.93679 0.08846 0.46365 0.0
C1160 C 0.99013 0.06631 0.47299 0.0
C1161 C -0.00481 0.08996 0.49668 0.0
N1162 N 0.97725 0.13696 0.52516 0.0
N1163 N 0.95152 0.03729 0.44119 0.0
C1164 C 0.97273 0.11497 0.50134 0.0
C1165 C 0.95964 0.0639 0.45831 0.0
N1166 N 0.92456 0.14132 0.48247 0.0
N1167 N 0.01456 0.04627 0.46461 0.0
H1168 H 0.9297 0.03484 0.42944 0.0
H1169 H 0.9657 0.01685 0.44011 0.0
H1170 H 0.03726 0.04808 0.47476 0.0
H1171 H 0.01331 0.03017 0.44562 0.0
H1172 H 0.93003 0.1629 0.49355 0.0
H1173 H 0.90379 0.14204 0.46862 0.0
H1174 H 0.95985 0.15333 0.53226 0.0
H1175 H -0.00229 0.13762 0.53938 0.0
loop_
_geom_bond_atom_site_label_1
_geom_bond_atom_site_label_2
_geom_bond_distance
_geom_bond_site_symmetry_2
_ccdc_geom_bond_type
C0 O1 1.160 . S
C0 O7 1.185 . S
O1 C0 1.160 . S
O2 Zn3 1.899 . S
O2 C10 1.284 . S
Zn3 O2 1.899 . S
Zn3 O4 2.032 . S
Zn3 O7 2.086 . S
Zn3 O12 1.977 . S
O4 Zn3 2.032 . S
O4 C8 1.278 . S
C5 O6 1.203 . S
C5 O12 1.267 . S
O6 C5 1.203 . S
O7 C0 1.185 . S
O7 Zn3 2.086 . S
C8 O4 1.278 . S
C8 O9 1.211 . S
O9 C8 1.211 . S
C10 O2 1.284 . S
C10 O11 1.273 . S
O11 C10 1.273 . S
O12 Zn3 1.977 . S
O12 C5 1.267 . S
C13 O14 1.160 1_655 S
C13 O20 1.185 . S
O14 C13 1.160 1_455 S
O15 Zn16 1.899 . S
O15 C23 1.311 . S
Zn16 O15 1.899 . S
Zn16 O17 2.032 . S
Zn16 O20 2.086 . S
Zn16 O25 1.977 . S
O17 Zn16 2.032 . S
O17 C21 1.278 . S
C18 O19 1.203 . S
C18 O25 1.267 . S
O19 C18 1.203 . S
O20 C13 1.185 . S
O20 Zn16 2.086 . S
C21 O17 1.278 . S
C21 O22 1.211 . S
O22 C21 1.211 . S
C23 O15 1.311 . S
C23 O24 1.260 1_565 S
O24 C23 1.260 1_545 S
O25 Zn16 1.977 . S
O25 C18 1.267 . S
C26 O27 1.160 . S
C26 O33 1.185 . S
O27 C26 1.160 . S
O28 Zn29 1.899 . S
O28 C36 1.284 . S
Zn29 O28 1.899 . S
Zn29 O30 2.032 . S
Zn29 O33 2.086 . S
Zn29 O38 1.977 . S
O30 Zn29 2.032 . S
O30 C34 1.278 . S
C31 O32 1.203 . S
C31 O38 1.267 . S
O32 C31 1.203 . S
O33 C26 1.185 . S
O33 Zn29 2.086 . S
C34 O30 1.278 . S
C34 O35 1.211 . S
O35 C34 1.211 . S
C36 O28 1.284 . S
C36 O37 1.273 . S
O37 C36 1.273 . S
O38 Zn29 1.977 . S
O38 C31 1.267 . S
C39 O40 1.160 . S
C39 O46 1.185 . S
O40 C39 1.160 . S
O41 Zn42 1.899 . S
O41 C49 1.311 . S
Zn42 O41 1.899 . S
Zn42 O43 2.032 . S
Zn42 O46 2.086 . S
Zn42 O51 1.977 . S
O43 Zn42 2.032 . S
O43 C47 1.278 . S
C44 O45 1.203 . S
C44 O51 1.267 . S
O45 C44 1.203 . S
O46 C39 1.185 . S
O46 Zn42 2.086 . S
C47 O43 1.278 . S
C47 O48 1.211 . S
O48 C47 1.211 . S
C49 O41 1.311 . S
C49 O50 1.260 1_545 S
O50 C49 1.260 1_565 S
O51 Zn42 1.977 . S
O51 C44 1.267 . S
C52 O53 1.160 . S
C52 O59 1.185 . S
O53 C52 1.160 . S
O54 Zn55 1.899 . S
O54 C62 1.284 . S
Zn55 O54 1.899 . S
Zn55 O56 2.032 . S
Zn55 O59 2.086 . S
Zn55 O64 1.977 . S
O56 Zn55 2.032 . S
O56 C60 1.278 . S
C57 O58 1.203 . S
C57 O64 1.267 . S
O58 C57 1.203 . S
O59 C52 1.185 . S
O59 Zn55 2.086 . S
C60 O56 1.278 . S
C60 O61 1.211 . S
O61 C60 1.211 . S
C62 O54 1.284 . S
C62 O63 1.273 . S
O63 C62 1.273 . S
O64 Zn55 1.977 . S
O64 C57 1.267 . S
C65 O66 1.160 1_455 S
C65 O72 1.185 . S
O66 C65 1.160 1_655 S
O67 Zn68 1.899 . S
O67 C75 1.284 . S
Zn68 O67 1.899 . S
Zn68 O69 2.032 . S
Zn68 O72 2.086 . S
Zn68 O77 1.977 . S
O69 Zn68 2.032 . S
O69 C73 1.278 . S
C70 O71 1.203 . S
C70 O77 1.267 . S
O71 C70 1.203 . S
O72 C65 1.185 . S
O72 Zn68 2.086 . S
C73 O69 1.278 . S
C73 O74 1.211 . S
O74 C73 1.211 . S
C75 O67 1.284 . S
C75 O76 1.273 . S
O76 C75 1.273 . S
O77 Zn68 1.977 . S
O77 C70 1.267 . S
C78 O79 1.160 . S
C78 O85 1.185 . S
O79 C78 1.160 . S
O80 Zn81 1.899 . S
O80 C88 1.284 . S
Zn81 O80 1.899 . S
Zn81 O82 2.032 . S
Zn81 O85 2.086 . S
Zn81 O90 1.977 . S
O82 Zn81 2.032 . S
O82 C86 1.278 . S
C83 O84 1.203 . S
C83 O90 1.267 . S
O84 C83 1.203 . S
O85 C78 1.185 . S
O85 Zn81 2.086 . S
C86 O82 1.278 . S
C86 O87 1.211 . S
O87 C86 1.211 . S
C88 O80 1.284 . S
C88 O89 1.273 . S
O89 C88 1.273 . S
O90 Zn81 1.977 . S
O90 C83 1.267 . S
C91 O92 1.160 . S
C91 O98 1.185 . S
O92 C91 1.160 . S
O93 Zn94 1.899 . S
O93 C101 1.284 . S
Zn94 O93 1.899 . S
Zn94 O95 2.032 . S
Zn94 O98 2.086 . S
Zn94 O103 1.977 . S
O95 Zn94 2.032 . S
O95 C99 1.278 . S
C96 O97 1.203 . S
C96 O103 1.267 . S
O97 C96 1.203 . S
O98 C91 1.185 . S
O98 Zn94 2.086 . S
C99 O95 1.278 . S
C99 O100 1.211 . S
O100 C99 1.211 . S
C101 O93 1.284 . S
C101 O102 1.273 . S
O102 C101 1.273 . S
O103 Zn94 1.977 . S
O103 C96 1.267 . S
C104 O105 1.160 . S
C104 O111 1.185 . S
O105 C104 1.160 . S
O106 Zn107 1.899 . S
O106 C114 1.284 . S
Zn107 O106 1.899 . S
Zn107 O108 2.032 . S
Zn107 O111 2.086 . S
Zn107 O116 1.977 . S
O108 Zn107 2.032 . S
O108 C112 1.278 . S
C109 O110 1.203 . S
C109 O116 1.267 . S
O110 C109 1.203 . S
O111 C104 1.185 . S
O111 Zn107 2.086 . S
C112 O108 1.278 . S
C112 O113 1.211 . S
O113 C112 1.211 . S
C114 O106 1.284 . S
C114 O115 1.273 . S
O115 C114 1.273 . S
O116 Zn107 1.977 . S
O116 C109 1.267 . S
C117 O118 1.160 . S
C117 O124 1.185 . S
O118 C117 1.160 . S
O119 Zn120 1.899 . S
O119 C127 1.311 . S
Zn120 O119 1.899 . S
Zn120 O121 2.032 . S
Zn120 O124 2.086 . S
Zn120 O129 1.977 . S
O121 Zn120 2.032 . S
O121 C125 1.278 . S
C122 O123 1.203 . S
C122 O129 1.267 . S
O123 C122 1.203 . S
O124 C117 1.185 . S
O124 Zn120 2.086 . S
C125 O121 1.278 . S
C125 O126 1.211 . S
O126 C125 1.211 . S
C127 O119 1.311 . S
C127 O128 1.260 1_455 S
O128 C127 1.260 1_655 S
O129 Zn120 1.977 . S
O129 C122 1.267 . S
C130 O131 1.160 . S
C130 O137 1.185 . S
O131 C130 1.160 . S
O132 Zn133 1.899 . S
O132 C140 1.284 . S
Zn133 O132 1.899 . S
Zn133 O134 2.032 . S
Zn133 O137 2.086 . S
Zn133 O142 1.977 . S
O134 Zn133 2.032 . S
O134 C138 1.278 . S
C135 O136 1.203 . S
C135 O142 1.267 . S
O136 C135 1.203 . S
O137 C130 1.185 . S
O137 Zn133 2.086 . S
C138 O134 1.278 . S
C138 O139 1.211 . S
O139 C138 1.211 . S
C140 O132 1.284 . S
C140 O141 1.273 . S
O141 C140 1.273 . S
O142 Zn133 1.977 . S
O142 C135 1.267 . S
C143 O144 1.160 1_554 S
C143 O150 1.185 . S
O144 C143 1.160 1_556 S
O145 Zn146 1.899 . S
O145 C153 1.284 . S
Zn146 O145 1.899 . S
Zn146 O147 2.032 . S
Zn146 O150 2.086 . S
Zn146 O155 1.977 . S
O147 Zn146 2.032 . S
O147 C151 1.278 . S
C148 O149 1.203 . S
C148 O155 1.267 . S
O149 C148 1.203 . S
O150 C143 1.185 . S
O150 Zn146 2.086 . S
C151 O147 1.278 . S
C151 O152 1.211 . S
O152 C151 1.211 . S
C153 O145 1.284 . S
C153 O154 1.273 . S
O154 C153 1.273 . S
O155 Zn146 1.977 . S
O155 C148 1.267 . S
C156 O157 1.160 . S
C156 O163 1.185 . S
O157 C156 1.160 . S
O158 Zn159 1.899 . S
O158 C166 1.284 . S
Zn159 O158 1.899 . S
Zn159 O160 2.032 . S
Zn159 O163 2.086 . S
Zn159 O168 1.977 . S
O160 Zn159 2.032 . S
O160 C164 1.278 . S
C161 O162 1.203 . S
C161 O168 1.267 . S
O162 C161 1.203 . S
O163 C156 1.185 . S
O163 Zn159 2.086 . S
C164 O160 1.278 . S
C164 O165 1.211 . S
O165 C164 1.211 . S
C166 O158 1.284 . S
C166 O167 1.273 . S
O167 C166 1.273 . S
O168 Zn159 1.977 . S
O168 C161 1.267 . S
C169 O170 1.160 1_556 S
C169 O176 1.185 . S
O170 C169 1.160 1_554 S
O171 Zn172 1.899 . S
O171 C179 1.311 . S
Zn172 O171 1.899 . S
Zn172 O173 2.032 . S
Zn172 O176 2.086 . S
Zn172 O181 1.977 . S
O173 Zn172 2.032 . S
O173 C177 1.278 . S
C174 O175 1.203 . S
C174 O181 1.267 . S
O175 C174 1.203 . S
O176 C169 1.185 . S
O176 Zn172 2.086 . S
C177 O173 1.278 . S
C177 O178 1.211 . S
O178 C177 1.211 . S
C179 O171 1.311 . S
C179 O180 1.260 1_655 S
O180 C179 1.260 1_455 S
O181 Zn172 1.977 . S
O181 C174 1.267 . S
C182 O183 1.160 . S
C182 O189 1.185 . S
O183 C182 1.160 . S
O184 Zn185 1.899 . S
O184 C192 1.284 . S
Zn185 O184 1.899 . S
Zn185 O186 2.032 . S
Zn185 O189 2.086 . S
Zn185 O194 1.977 . S
O186 Zn185 2.032 . S
O186 C190 1.278 . S
C187 O188 1.203 . S
C187 O194 1.267 . S
O188 C187 1.203 . S
O189 C182 1.185 . S
O189 Zn185 2.086 . S
C190 O186 1.278 . S
C190 O191 1.211 . S
O191 C190 1.211 . S
C192 O184 1.284 . S
C192 O193 1.273 . S
O193 C192 1.273 . S
O194 Zn185 1.977 . S
O194 C187 1.267 . S
C195 O196 1.160 . S
C195 O202 1.185 . S
O196 C195 1.160 . S
O197 Zn198 1.899 . S
O197 C205 1.284 . S
Zn198 O197 1.899 . S
Zn198 O199 2.032 . S
Zn198 O202 2.086 . S
Zn198 O207 1.977 . S
O199 Zn198 2.032 . S
O199 C203 1.278 . S
C200 O201 1.203 . S
C200 O207 1.267 . S
O201 C200 1.203 . S
O202 C195 1.185 . S
O202 Zn198 2.086 . S
C203 O199 1.278 . S
C203 O204 1.211 . S
O204 C203 1.211 . S
C205 O197 1.284 . S
C205 O206 1.273 . S
O206 C205 1.273 . S
O207 Zn198 1.977 . S
O207 C200 1.267 . S
C208 O209 1.160 . S
C208 O215 1.185 . S
O209 C208 1.160 . S
O210 Zn211 1.899 . S
O210 C218 1.284 . S
Zn211 O210 1.899 . S
Zn211 O212 2.032 . S
Zn211 O215 2.086 . S
Zn211 O220 1.977 . S
O212 Zn211 2.032 . S
O212 C216 1.278 . S
C213 O214 1.203 . S
C213 O220 1.267 . S
O214 C213 1.203 . S
O215 C208 1.185 . S
O215 Zn211 2.086 . S
C216 O212 1.278 . S
C216 O217 1.211 . S
O217 C216 1.211 . S
C218 O210 1.284 . S
C218 O219 1.273 . S
O219 C218 1.273 . S
O220 Zn211 1.977 . S
O220 C213 1.267 . S
C221 O222 1.160 . S
C221 O228 1.185 . S
O222 C221 1.160 . S
O223 Zn224 1.899 . S
O223 C231 1.284 . S
Zn224 O223 1.899 . S
Zn224 O225 2.032 . S
Zn224 O228 2.086 . S
Zn224 O233 1.977 . S
O225 Zn224 2.032 . S
O225 C229 1.278 . S
C226 O227 1.203 . S
C226 O233 1.267 . S
O227 C226 1.203 . S
O228 C221 1.185 . S
O228 Zn224 2.086 . S
C229 O225 1.278 . S
C229 O230 1.211 . S
O230 C229 1.211 . S
C231 O223 1.284 . S
C231 O232 1.273 . S
O232 C231 1.273 . S
O233 Zn224 1.977 . S
O233 C226 1.267 . S
C234 O235 1.160 . S
C234 O241 1.185 . S
O235 C234 1.160 . S
O236 Zn237 1.899 . S
O236 C244 1.311 . S
Zn237 O236 1.899 . S
Zn237 O238 2.032 . S
Zn237 O241 2.086 . S
Zn237 O246 1.977 . S
O238 Zn237 2.032 . S
O238 C242 1.278 . S
C239 O240 1.203 . S
C239 O246 1.267 . S
O240 C239 1.203 . S
O241 C234 1.185 . S
O241 Zn237 2.086 . S
C242 O238 1.278 . S
C242 O243 1.211 . S
O243 C242 1.211 . S
C244 O236 1.311 . S
C244 O245 1.260 1_554 S
O245 C244 1.260 1_556 S
O246 Zn237 1.977 . S
O246 C239 1.267 . S
C247 O248 1.160 . S
C247 O254 1.185 . S
O248 C247 1.160 . S
O249 Zn250 1.899 . S
O249 C257 1.284 . S
Zn250 O249 1.899 . S
Zn250 O251 2.032 . S
Zn250 O254 2.086 . S
Zn250 O259 1.977 . S
O251 Zn250 2.032 . S
O251 C255 1.278 . S
C252 O253 1.203 . S
C252 O259 1.267 . S
O253 C252 1.203 . S
O254 C247 1.185 . S
O254 Zn250 2.086 . S
C255 O251 1.278 . S
C255 O256 1.211 . S
O256 C255 1.211 . S
C257 O249 1.284 . S
C257 O258 1.273 . S
O258 C257 1.273 . S
O259 Zn250 1.977 . S
O259 C252 1.267 . S
C260 O261 1.160 . S
C260 O267 1.185 . S
O261 C260 1.160 . S
O262 Zn263 1.899 . S
O262 C270 1.284 . S
Zn263 O262 1.899 . S
Zn263 O264 2.032 . S
Zn263 O267 2.086 . S
Zn263 O272 1.977 . S
O264 Zn263 2.032 . S
O264 C268 1.278 . S
C265 O266 1.203 . S
C265 O272 1.267 . S
O266 C265 1.203 . S
O267 C260 1.185 . S
O267 Zn263 2.086 . S
C268 O264 1.278 . S
C268 O269 1.211 . S
O269 C268 1.211 . S
C270 O262 1.284 . S
C270 O271 1.273 . S
O271 C270 1.273 . S
O272 Zn263 1.977 . S
O272 C265 1.267 . S
C273 O274 1.160 . S
C273 O280 1.185 . S
O274 C273 1.160 . S
O275 Zn276 1.899 . S
O275 C283 1.284 . S
Zn276 O275 1.899 . S
Zn276 O277 2.032 . S
Zn276 O280 2.086 . S
Zn276 O285 1.977 . S
O277 Zn276 2.032 . S
O277 C281 1.278 . S
C278 O279 1.203 . S
C278 O285 1.267 . S
O279 C278 1.203 . S
O280 C273 1.185 . S
O280 Zn276 2.086 . S
C281 O277 1.278 . S
C281 O282 1.211 . S
O282 C281 1.211 . S
C283 O275 1.284 . S
C283 O284 1.273 . S
O284 C283 1.273 . S
O285 Zn276 1.977 . S
O285 C278 1.267 . S
C286 O287 1.160 1_565 S
C286 O293 1.185 . S
O287 C286 1.160 1_545 S
O288 Zn289 1.899 . S
O288 C296 1.311 . S
Zn289 O288 1.899 . S
Zn289 O290 2.032 . S
Zn289 O293 2.086 . S
Zn289 O298 1.977 . S
O290 Zn289 2.032 . S
O290 C294 1.278 . S
C291 O292 1.203 . S
C291 O298 1.267 . S
O292 C291 1.203 . S
O293 C286 1.185 . S
O293 Zn289 2.086 . S
C294 O290 1.278 . S
C294 O295 1.211 . S
O295 C294 1.211 . S
C296 O288 1.311 . S
C296 O297 1.260 1_556 S
O297 C296 1.260 1_554 S
O298 Zn289 1.977 . S
O298 C291 1.267 . S
C299 O300 1.160 1_545 S
C299 O306 1.185 . S
O300 C299 1.160 1_565 S
O301 Zn302 1.899 . S
O301 C309 1.284 . S
Zn302 O301 1.899 . S
Zn302 O303 2.032 . S
Zn302 O306 2.086 . S
Zn302 O311 1.977 . S
O303 Zn302 2.032 . S
O303 C307 1.278 . S
C304 O305 1.203 . S
C304 O311 1.267 . S
O305 C304 1.203 . S
O306 C299 1.185 . S
O306 Zn302 2.086 . S
C307 O303 1.278 . S
C307 O308 1.211 . S
O308 C307 1.211 . S
C309 O301 1.284 . S
C309 O310 1.273 . S
O310 C309 1.273 . S
O311 Zn302 1.977 . S
O311 C304 1.267 . S
C312 C313 1.363 . S
C312 C318 1.379 . S
C312 N320 1.356 . S
C313 C312 1.363 . S
C313 C319 1.363 . S
C314 C315 1.363 . S
C314 C319 1.379 . S
C314 N321 1.356 . S
C315 C314 1.363 . S
C315 C318 1.363 . S
N316 C318 1.356 . S
N316 H328 0.984 . S
N316 H329 0.985 . S
N317 C319 1.356 . S
N317 H322 0.984 . S
N317 H323 0.985 . S
C318 C312 1.379 . S
C318 C315 1.363 . S
C318 N316 1.356 . S
C319 C313 1.363 . S
C319 C314 1.379 . S
C319 N317 1.356 . S
N320 C312 1.356 . S
N320 H326 0.984 . S
N320 H327 0.984 . S
N321 C314 1.356 . S
N321 H324 0.984 . S
N321 H325 0.985 . S
H322 N317 0.984 . S
H323 N317 0.985 . S
H324 N321 0.984 . S
H325 N321 0.985 . S
H326 N320 0.984 . S
H327 N320 0.984 . S
H328 N316 0.984 . S
H329 N316 0.985 . S
C330 C331 1.363 . S
C330 C336 1.379 . S
C330 N338 1.356 1_455 S
C331 C330 1.363 . S
C331 C337 1.363 . S
C332 C333 1.363 . S
C332 C337 1.379 . S
C332 N339 1.356 . S
C333 C332 1.363 . S
C333 C336 1.363 . S
N334 C336 1.356 . S
N334 H346 0.984 . S
N334 H347 0.985 . S
N335 C337 1.356 . S
N335 H340 0.984 1_455 S
N335 H341 0.985 . S
C336 C330 1.379 . S
C336 C333 1.363 . S
C336 N334 1.356 . S
C337 C331 1.363 . S
C337 C332 1.379 . S
C337 N335 1.356 . S
N338 C330 1.356 1_655 S
N338 H344 0.984 . S
N338 H345 0.984 . S
N339 C332 1.356 . S
N339 H342 0.984 . S
N339 H343 0.985 . S
H340 N335 0.984 1_655 S
H341 N335 0.985 . S
H342 N339 0.984 . S
H343 N339 0.985 . S
H344 N338 0.984 . S
H345 N338 0.984 . S
H346 N334 0.984 . S
H347 N334 0.985 . S
C348 C349 1.363 . S
C348 C354 1.379 . S
C348 N356 1.356 . S
C349 C348 1.363 . S
C349 C355 1.363 . S
C350 C351 1.363 1_554 S
C350 C355 1.379 1_554 S
C350 N357 1.356 . S
C351 C350 1.363 1_556 S
C351 C354 1.363 . S
N352 C354 1.356 . S
N352 H364 0.984 . S
N352 H365 0.985 . S
N353 C355 1.356 . S
N353 H358 0.984 . S
N353 H359 0.985 . S
C354 C348 1.379 . S
C354 C351 1.363 . S
C354 N352 1.356 . S
C355 C349 1.363 . S
C355 C350 1.379 1_556 S
C355 N353 1.356 . S
N356 C348 1.356 . S
N356 H362 0.984 . S
N356 H363 0.984 . S
N357 C350 1.356 . S
N357 H360 0.984 . S
N357 H361 0.985 . S
H358 N353 0.984 . S
H359 N353 0.985 . S
H360 N357 0.984 . S
H361 N357 0.985 . S
H362 N356 0.984 . S
H363 N356 0.984 . S
H364 N352 0.984 . S
H365 N352 0.985 . S
C366 C367 1.363 . S
C366 C372 1.379 . S
C366 N374 1.356 . S
C367 C366 1.363 . S
C367 C373 1.363 . S
C368 C369 1.363 . S
C368 C373 1.379 . S
C368 N375 1.356 . S
C369 C368 1.363 . S
C369 C372 1.363 . S
N370 C372 1.356 . S
N370 H382 0.984 . S
N370 H383 0.985 . S
N371 C373 1.356 . S
N371 H376 0.984 . S
N371 H377 0.985 . S
C372 C366 1.379 . S
C372 C369 1.363 . S
C372 N370 1.356 . S
C373 C367 1.363 . S
C373 C368 1.379 . S
C373 N371 1.356 . S
N374 C366 1.356 . S
N374 H380 0.984 . S
N374 H381 0.984 . S
N375 C368 1.356 . S
N375 H378 0.984 . S
N375 H379 0.985 . S
H376 N371 0.984 . S
H377 N371 0.985 . S
H378 N375 0.984 . S
H379 N375 0.985 . S
H380 N374 0.984 . S
H381 N374 0.984 . S
H382 N370 0.984 . S
H383 N370 0.985 . S
C384 C385 1.363 . S
C384 C390 1.379 . S
C384 N392 1.356 . S
C385 C384 1.363 . S
C385 C391 1.363 . S
C386 C387 1.363 . S
C386 C391 1.379 . S
C386 N393 1.356 . S
C387 C386 1.363 . S
C387 C390 1.363 . S
N388 C390 1.356 . S
N388 H400 0.984 . S
N388 H401 0.985 . S
N389 C391 1.356 . S
N389 H394 0.984 . S
N389 H395 0.985 . S
C390 C384 1.379 . S
C390 C387 1.363 . S
C390 N388 1.356 . S
C391 C385 1.363 . S
C391 C386 1.379 . S
C391 N389 1.356 . S
N392 C384 1.356 . S
N392 H398 0.984 . S
N392 H399 0.984 . S
N393 C386 1.356 . S
N393 H396 0.984 . S
N393 H397 0.985 . S
H394 N389 0.984 . S
H395 N389 0.985 . S
H396 N393 0.984 . S
H397 N393 0.985 . S
H398 N392 0.984 . S
H399 N392 0.984 . S
H400 N388 0.984 . S
H401 N388 0.985 . S
C402 C403 1.363 . S
C402 C408 1.379 . S
C402 N410 1.356 . S
C403 C402 1.363 . S
C403 C409 1.363 . S
C404 C405 1.363 . S
C404 C409 1.379 . S
C404 N411 1.356 . S
C405 C404 1.363 . S
C405 C408 1.363 . S
N406 C408 1.356 1_455 S
N406 H418 0.984 . S
N406 H419 0.985 . S
N407 C409 1.356 . S
N407 H412 0.984 . S
N407 H413 0.985 . S
C408 C402 1.379 . S
C408 C405 1.363 . S
C408 N406 1.356 1_655 S
C409 C403 1.363 . S
C409 C404 1.379 . S
C409 N407 1.356 . S
N410 C402 1.356 . S
N410 H416 0.984 . S
N410 H417 0.984 . S
N411 C404 1.356 . S
N411 H414 0.984 . S
N411 H415 0.985 . S
H412 N407 0.984 . S
H413 N407 0.985 . S
H414 N411 0.984 . S
H415 N411 0.985 . S
H416 N410 0.984 . S
H417 N410 0.984 . S
H418 N406 0.984 . S
H419 N406 0.985 . S
C420 C421 1.363 . S
C420 C426 1.379 . S
C420 N428 1.356 . S
C421 C420 1.363 . S
C421 C427 1.363 . S
C422 C423 1.363 . S
C422 C427 1.379 . S
C422 N429 1.356 1_554 S
C423 C422 1.363 . S
C423 C426 1.363 . S
N424 C426 1.356 . S
N424 H436 0.984 . S
N424 H437 0.985 1_554 S
N425 C427 1.356 . S
N425 H430 0.984 . S
N425 H431 0.985 . S
C426 C420 1.379 . S
C426 C423 1.363 . S
C426 N424 1.356 . S
C427 C421 1.363 . S
C427 C422 1.379 . S
C427 N425 1.356 . S
N428 C420 1.356 . S
N428 H434 0.984 . S
N428 H435 0.984 . S
N429 C422 1.356 1_556 S
N429 H432 0.984 . S
N429 H433 0.985 . S
H430 N425 0.984 . S
H431 N425 0.985 . S
H432 N429 0.984 . S
H433 N429 0.985 . S
H434 N428 0.984 . S
H435 N428 0.984 . S
H436 N424 0.984 . S
H437 N424 0.985 1_556 S
C438 C439 1.363 . S
C438 C444 1.379 . S
C438 N446 1.356 . S
C439 C438 1.363 . S
C439 C445 1.363 . S
C440 C441 1.363 . S
C440 C445 1.379 . S
C440 N447 1.356 . S
C441 C440 1.363 . S
C441 C444 1.363 . S
N442 C444 1.356 . S
N442 H454 0.984 . S
N442 H455 0.985 . S
N443 C445 1.356 . S
N443 H448 0.984 . S
N443 H449 0.985 . S
C444 C438 1.379 . S
C444 C441 1.363 . S
C444 N442 1.356 . S
C445 C439 1.363 . S
C445 C440 1.379 . S
C445 N443 1.356 . S
N446 C438 1.356 . S
N446 H452 0.984 . S
N446 H453 0.984 . S
N447 C440 1.356 . S
N447 H450 0.984 . S
N447 H451 0.985 . S
H448 N443 0.984 . S
H449 N443 0.985 . S
H450 N447 0.984 . S
H451 N447 0.985 . S
H452 N446 0.984 . S
H453 N446 0.984 . S
H454 N442 0.984 . S
H455 N442 0.985 . S
C456 C457 1.363 . S
C456 C462 1.379 . S
C456 N464 1.356 . S
C457 C456 1.363 . S
C457 C463 1.363 . S
C458 C459 1.363 . S
C458 C463 1.379 . S
C458 N465 1.356 . S
C459 C458 1.363 . S
C459 C462 1.363 . S
N460 C462 1.356 . S
N460 H472 0.984 . S
N460 H473 0.985 . S
N461 C463 1.356 . S
N461 H466 0.984 . S
N461 H467 0.985 . S
C462 C456 1.379 . S
C462 C459 1.363 . S
C462 N460 1.356 . S
C463 C457 1.363 . S
C463 C458 1.379 . S
C463 N461 1.356 . S
N464 C456 1.356 . S
N464 H470 0.984 . S
N464 H471 0.984 . S
N465 C458 1.356 . S
N465 H468 0.984 . S
N465 H469 0.985 . S
H466 N461 0.984 . S
H467 N461 0.985 . S
H468 N465 0.984 . S
H469 N465 0.985 . S
H470 N464 0.984 . S
H471 N464 0.984 . S
H472 N460 0.984 . S
H473 N460 0.985 . S
C474 C475 1.363 1_565 S
C474 C480 1.379 1_565 S
C474 N482 1.356 . S
C475 C474 1.363 1_545 S
C475 C481 1.363 . S
C476 C477 1.363 . S
C476 C481 1.379 . S
C476 N483 1.356 . S
C477 C476 1.363 . S
C477 C480 1.363 . S
N478 C480 1.356 . S
N478 H490 1.002 . S
N478 H491 0.985 . S
N479 C481 1.356 . S
N479 H484 0.984 . S
N479 H485 0.985 . S
C480 C474 1.379 1_545 S
C480 C477 1.363 . S
C480 N478 1.356 . S
C481 C475 1.363 . S
C481 C476 1.379 . S
C481 N479 1.356 . S
N482 C474 1.356 . S
N482 H488 0.984 . S
N482 H489 0.984 . S
N483 C476 1.356 . S
N483 H486 0.984 . S
N483 H487 0.985 . S
H484 N479 0.984 . S
H485 N479 0.985 . S
H486 N483 0.984 . S
H487 N483 0.985 . S
H488 N482 0.984 . S
H489 N482 0.984 . S
H490 N478 1.002 . S
H491 N478 0.985 . S
C492 C493 1.363 . S
C492 C498 1.379 . S
C492 N500 1.356 . S
C493 C492 1.363 . S
C493 C499 1.363 . S
C494 C495 1.363 . S
C494 C499 1.379 . S
C494 N501 1.356 1_565 S
C495 C494 1.363 . S
C495 C498 1.363 . S
N496 C498 1.356 . S
N496 H508 0.984 . S
N496 H509 0.985 1_565 S
N497 C499 1.356 . S
N497 H502 0.984 . S
N497 H503 0.985 . S
C498 C492 1.379 . S
C498 C495 1.363 . S
C498 N496 1.356 . S
C499 C493 1.363 . S
C499 C494 1.379 . S
C499 N497 1.356 . S
N500 C492 1.356 . S
N500 H506 0.984 . S
N500 H507 0.984 . S
N501 C494 1.356 1_545 S
N501 H504 0.984 . S
N501 H505 0.985 . S
H502 N497 0.984 . S
H503 N497 0.985 . S
H504 N501 0.984 . S
H505 N501 0.985 . S
H506 N500 0.984 . S
H507 N500 0.984 . S
H508 N496 0.984 . S
H509 N496 0.985 1_545 S
C510 C511 1.363 . S
C510 C516 1.379 . S
C510 N518 1.356 . S
C511 C510 1.363 . S
C511 C517 1.363 . S
C512 C513 1.363 . S
C512 C517 1.379 . S
C512 N519 1.356 . S
C513 C512 1.363 . S
C513 C516 1.363 . S
N514 C516 1.356 . S
N514 H526 0.984 . S
N514 H527 0.985 . S
N515 C517 1.356 . S
N515 H520 0.984 . S
N515 H521 0.985 . S
C516 C510 1.379 . S
C516 C513 1.363 . S
C516 N514 1.356 . S
C517 C511 1.363 . S
C517 C512 1.379 . S
C517 N515 1.356 . S
N518 C510 1.356 . S
N518 H524 0.984 . S
N518 H525 0.984 . S
N519 C512 1.356 . S
N519 H522 0.984 . S
N519 H523 0.985 . S
H520 N515 0.984 . S
H521 N515 0.985 . S
H522 N519 0.984 . S
H523 N519 0.985 . S
H524 N518 0.984 . S
H525 N518 0.984 . S
H526 N514 0.984 . S
H527 N514 0.985 . S
C528 C529 1.363 . S
C528 C534 1.379 . S
C528 N536 1.356 . S
C529 C528 1.363 . S
C529 C535 1.363 . S
C530 C531 1.363 . S
C530 C535 1.379 . S
C530 N537 1.356 . S
C531 C530 1.363 . S
C531 C534 1.363 . S
N532 C534 1.356 . S
N532 H544 0.984 . S
N532 H545 0.985 . S
N533 C535 1.356 . S
N533 H538 0.984 . S
N533 H539 0.985 . S
C534 C528 1.379 . S
C534 C531 1.363 . S
C534 N532 1.356 . S
C535 C529 1.363 . S
C535 C530 1.379 . S
C535 N533 1.356 . S
N536 C528 1.356 . S
N536 H542 0.984 . S
N536 H543 0.984 . S
N537 C530 1.356 . S
N537 H540 0.984 . S
N537 H541 0.985 . S
H538 N533 0.984 . S
H539 N533 0.985 . S
H540 N537 0.984 . S
H541 N537 0.985 . S
H542 N536 0.984 . S
H543 N536 0.984 . S
H544 N532 0.984 . S
H545 N532 0.985 . S
C546 C547 1.363 1_545 S
C546 C552 1.379 . S
C546 N554 1.356 . S
C547 C546 1.363 1_565 S
C547 C553 1.363 . S
C548 C549 1.363 . S
C548 C553 1.379 1_545 S
C548 N555 1.356 . S
C549 C548 1.363 . S
C549 C552 1.363 . S
N550 C552 1.356 . S
N550 H562 0.984 . S
N550 H563 0.985 . S
N551 C553 1.356 . S
N551 H556 0.984 . S
N551 H557 0.985 . S
C552 C546 1.379 . S
C552 C549 1.363 . S
C552 N550 1.356 . S
C553 C547 1.363 . S
C553 C548 1.379 1_565 S
C553 N551 1.356 . S
N554 C546 1.356 . S
N554 H560 0.984 . S
N554 H561 0.984 1_545 S
N555 C548 1.356 . S
N555 H558 0.984 . S
N555 H559 0.985 . S
H556 N551 0.984 . S
H557 N551 0.985 . S
H558 N555 0.984 . S
H559 N555 0.985 . S
H560 N554 0.984 . S
H561 N554 0.984 1_565 S
H562 N550 0.984 . S
H563 N550 0.985 . S
C564 C565 1.363 . S
C564 C570 1.379 . S
C564 N572 1.356 . S
C565 C564 1.363 . S
C565 C571 1.363 . S
C566 C567 1.363 . S
C566 C571 1.379 1_554 S
C566 N573 1.356 . S
C567 C566 1.363 . S
C567 C570 1.363 1_554 S
N568 C570 1.356 . S
N568 H580 0.984 . S
N568 H581 0.985 . S
N569 C571 1.356 . S
N569 H574 0.984 . S
N569 H575 0.985 1_556 S
C570 C564 1.379 . S
C570 C567 1.363 1_556 S
C570 N568 1.356 . S
C571 C565 1.363 . S
C571 C566 1.379 1_556 S
C571 N569 1.356 . S
N572 C564 1.356 . S
N572 H578 0.984 . S
N572 H579 0.984 . S
N573 C566 1.356 . S
N573 H576 0.984 . S
N573 H577 0.985 . S
H574 N569 0.984 . S
H575 N569 0.985 1_554 S
H576 N573 0.984 . S
H577 N573 0.985 . S
H578 N572 0.984 . S
H579 N572 0.984 . S
H580 N568 0.984 . S
H581 N568 0.985 . S
C582 C583 1.363 . S
C582 C588 1.379 1_545 S
C582 N590 1.356 . S
C583 C582 1.363 . S
C583 C589 1.363 1_545 S
C584 C585 1.363 . S
C584 C589 1.379 . S
C584 N591 1.356 . S
C585 C584 1.363 . S
C585 C588 1.363 . S
N586 C588 1.356 . S
N586 H598 0.984 1_565 S
N586 H599 0.985 . S
N587 C589 1.356 . S
N587 H592 0.984 . S
N587 H593 0.985 . S
C588 C582 1.379 1_565 S
C588 C585 1.363 . S
C588 N586 1.356 . S
C589 C583 1.363 1_565 S
C589 C584 1.379 . S
C589 N587 1.356 . S
N590 C582 1.356 . S
N590 H596 0.984 . S
N590 H597 0.984 . S
N591 C584 1.356 . S
N591 H594 0.984 . S
N591 H595 0.985 . S
H592 N587 0.984 . S
H593 N587 0.985 . S
H594 N591 0.984 . S
H595 N591 0.985 . S
H596 N590 0.984 . S
H597 N590 0.984 . S
H598 N586 0.984 1_545 S
H599 N586 0.985 . S
C600 C601 1.363 . S
C600 C606 1.379 . S
C600 N608 1.356 . S
C601 C600 1.363 . S
C601 C607 1.363 . S
C602 C603 1.363 . S
C602 C607 1.379 . S
C602 N609 1.356 . S
C603 C602 1.363 . S
C603 C606 1.363 . S
N604 C606 1.356 . S
N604 H616 0.984 . S
N604 H617 0.985 . S
N605 C607 1.356 . S
N605 H610 0.984 . S
N605 H611 0.985 . S
C606 C600 1.379 . S
C606 C603 1.363 . S
C606 N604 1.356 . S
C607 C601 1.363 . S
C607 C602 1.379 . S
C607 N605 1.356 . S
N608 C600 1.356 . S
N608 H614 0.984 . S
N608 H615 0.984 . S
N609 C602 1.356 . S
N609 H612 0.984 . S
N609 H613 0.985 . S
H610 N605 0.984 . S
H611 N605 0.985 . S
H612 N609 0.984 . S
H613 N609 0.985 . S
H614 N608 0.984 . S
H615 N608 0.984 . S
H616 N604 0.984 . S
H617 N604 0.985 . S
C618 C619 1.363 . S
C618 C624 1.379 . S
C618 N626 1.356 . S
C619 C618 1.363 . S
C619 C625 1.363 . S
C620 C621 1.363 . S
C620 C625 1.379 . S
C620 N627 1.356 . S
C621 C620 1.363 . S
C621 C624 1.363 . S
N622 C624 1.356 . S
N622 H634 0.984 . S
N622 H635 0.985 . S
N623 C625 1.356 . S
N623 H628 0.984 . S
N623 H629 0.985 . S
C624 C618 1.379 . S
C624 C621 1.363 . S
C624 N622 1.356 . S
C625 C619 1.363 . S
C625 C620 1.379 . S
C625 N623 1.356 . S
N626 C618 1.356 . S
N626 H632 0.984 . S
N626 H633 0.984 . S
N627 C620 1.356 . S
N627 H630 0.984 . S
N627 H631 0.985 . S
H628 N623 0.984 . S
H629 N623 0.985 . S
H630 N627 0.984 . S
H631 N627 0.985 . S
H632 N626 0.984 . S
H633 N626 0.984 . S
H634 N622 0.984 . S
H635 N622 0.985 . S
C636 C637 1.363 . S
C636 C642 1.379 1_556 S
C636 N644 1.356 . S
C637 C636 1.363 . S
C637 C643 1.363 1_556 S
C638 C639 1.363 . S
C638 C643 1.379 . S
C638 N645 1.356 . S
C639 C638 1.363 . S
C639 C642 1.363 . S
N640 C642 1.356 . S
N640 H652 0.984 . S
N640 H653 0.985 . S
N641 C643 1.356 . S
N641 H646 0.984 1_554 S
N641 H647 0.985 . S
C642 C636 1.379 1_554 S
C642 C639 1.363 . S
C642 N640 1.356 . S
C643 C637 1.363 1_554 S
C643 C638 1.379 . S
C643 N641 1.356 . S
N644 C636 1.356 . S
N644 H650 0.984 . S
N644 H651 0.984 . S
N645 C638 1.356 . S
N645 H648 0.984 . S
N645 H649 0.985 . S
H646 N641 0.984 1_556 S
H647 N641 0.985 . S
H648 N645 0.984 . S
H649 N645 0.985 . S
H650 N644 0.984 . S
H651 N644 0.984 . S
H652 N640 0.984 . S
H653 N640 0.985 . S
C654 C655 1.363 . S
C654 C660 1.379 . S
C654 N662 1.356 . S
C655 C654 1.363 . S
C655 C661 1.363 . S
C656 C657 1.363 . S
C656 C661 1.379 . S
C656 N663 1.356 . S
C657 C656 1.363 . S
C657 C660 1.363 . S
N658 C660 1.356 . S
N658 H670 0.984 . S
N658 H671 0.985 . S
N659 C661 1.356 . S
N659 H664 0.984 . S
N659 H665 0.985 . S
C660 C654 1.379 . S
C660 C657 1.363 . S
C660 N658 1.356 . S
C661 C655 1.363 . S
C661 C656 1.379 . S
C661 N659 1.356 . S
N662 C654 1.356 . S
N662 H668 0.984 . S
N662 H669 0.984 . S
N663 C656 1.356 . S
N663 H666 0.984 . S
N663 H667 0.985 . S
H664 N659 0.984 . S
H665 N659 0.985 . S
H666 N663 0.984 . S
H667 N663 0.985 . S
H668 N662 0.984 . S
H669 N662 0.984 . S
H670 N658 0.984 . S
H671 N658 0.985 . S
C672 C673 1.363 . S
C672 C678 1.379 . S
C672 N680 1.356 . S
C673 C672 1.363 . S
C673 C679 1.363 . S
C674 C675 1.363 . S
C674 C679 1.379 . S
C674 N681 1.356 . S
C675 C674 1.363 . S
C675 C678 1.363 . S
N676 C678 1.356 . S
N676 H688 0.984 . S
N676 H689 0.985 . S
N677 C679 1.356 . S
N677 H682 0.984 . S
N677 H683 0.985 . S
C678 C672 1.379 . S
C678 C675 1.363 . S
C678 N676 1.356 . S
C679 C673 1.363 . S
C679 C674 1.379 . S
C679 N677 1.356 . S
N680 C672 1.356 . S
N680 H686 0.984 . S
N680 H687 0.984 . S
N681 C674 1.356 . S
N681 H684 0.984 . S
N681 H685 0.985 . S
H682 N677 0.984 . S
H683 N677 0.985 . S
H684 N681 0.984 . S
H685 N681 0.985 . S
H686 N680 0.984 . S
H687 N680 0.984 . S
H688 N676 0.984 . S
H689 N676 0.985 . S
C690 C691 1.363 1_655 S
C690 C696 1.379 . S
C690 N698 1.356 . S
C691 C690 1.363 1_455 S
C691 C697 1.363 . S
C692 C693 1.363 . S
C692 C697 1.379 1_655 S
C692 N699 1.356 . S
C693 C692 1.363 . S
C693 C696 1.363 . S
N694 C696 1.356 . S
N694 H706 0.984 . S
N694 H707 0.985 . S
N695 C697 1.356 . S
N695 H700 0.984 . S
N695 H701 0.985 . S
C696 C690 1.379 . S
C696 C693 1.363 . S
C696 N694 1.356 . S
C697 C691 1.363 . S
C697 C692 1.379 1_455 S
C697 N695 1.356 . S
N698 C690 1.356 . S
N698 H704 0.984 . S
N698 H705 0.984 1_655 S
N699 C692 1.356 . S
N699 H702 0.984 . S
N699 H703 0.985 . S
H700 N695 0.984 . S
H701 N695 0.985 . S
H702 N699 0.984 . S
H703 N699 0.985 . S
H704 N698 0.984 . S
H705 N698 0.984 1_455 S
H706 N694 0.984 . S
H707 N694 0.985 . S
C708 C709 1.363 1_455 S
C708 C714 1.379 . S
C708 N716 1.356 . S
C709 C708 1.363 1_655 S
C709 C715 1.363 . S
C710 C711 1.363 . S
C710 C715 1.379 1_455 S
C710 N717 1.356 . S
C711 C710 1.363 . S
C711 C714 1.363 . S
N712 C714 1.356 . S
N712 H724 0.984 . S
N712 H725 0.985 . S
N713 C715 1.356 . S
N713 H718 0.984 . S
N713 H719 0.985 . S
C714 C708 1.379 . S
C714 C711 1.363 . S
C714 N712 1.356 . S
C715 C709 1.363 . S
C715 C710 1.379 1_655 S
C715 N713 1.356 . S
N716 C708 1.356 . S
N716 H722 0.984 . S
N716 H723 0.984 1_455 S
N717 C710 1.356 . S
N717 H720 0.984 . S
N717 H721 0.985 1_455 S
H718 N713 0.984 . S
H719 N713 0.985 . S
H720 N717 0.984 . S
H721 N717 0.985 1_655 S
H722 N716 0.984 . S
H723 N716 0.984 1_655 S
H724 N712 0.984 . S
H725 N712 0.985 . S
C726 C727 1.363 . S
C726 C732 1.379 . S
C726 N734 1.356 . S
C727 C726 1.363 . S
C727 C733 1.363 . S
C728 C729 1.363 . S
C728 C733 1.379 . S
C728 N735 1.356 . S
C729 C728 1.363 . S
C729 C732 1.363 . S
N730 C732 1.356 . S
N730 H742 0.984 . S
N730 H743 0.985 . S
N731 C733 1.356 . S
N731 H736 0.984 . S
N731 H737 0.985 . S
C732 C726 1.379 . S
C732 C729 1.363 . S
C732 N730 1.356 . S
C733 C727 1.363 . S
C733 C728 1.379 . S
C733 N731 1.356 . S
N734 C726 1.356 . S
N734 H740 0.984 . S
N734 H741 0.984 . S
N735 C728 1.356 . S
N735 H738 0.984 . S
N735 H739 0.985 . S
H736 N731 0.984 . S
H737 N731 0.985 . S
H738 N735 0.984 . S
H739 N735 0.985 . S
H740 N734 0.984 . S
H741 N734 0.984 . S
H742 N730 0.984 . S
H743 N730 0.985 . S
C744 C745 1.363 . S
C744 C750 1.379 . S
C744 N752 1.356 . S
C745 C744 1.363 . S
C745 C751 1.363 . S
C746 C747 1.363 . S
C746 C751 1.379 . S
C746 N753 1.356 . S
C747 C746 1.363 . S
C747 C750 1.363 . S
N748 C750 1.356 . S
N748 H760 0.984 . S
N748 H761 0.985 . S
N749 C751 1.356 . S
N749 H754 0.984 . S
N749 H755 0.985 . S
C750 C744 1.379 . S
C750 C747 1.363 . S
C750 N748 1.356 . S
C751 C745 1.363 . S
C751 C746 1.379 . S
C751 N749 1.356 . S
N752 C744 1.356 . S
N752 H758 0.984 . S
N752 H759 0.984 . S
N753 C746 1.356 . S
N753 H756 0.984 . S
N753 H757 0.985 . S
H754 N749 0.984 . S
H755 N749 0.985 . S
H756 N753 0.984 . S
H757 N753 0.985 . S
H758 N752 0.984 . S
H759 N752 0.984 . S
H760 N748 0.984 . S
H761 N748 0.985 . S
C762 C763 1.363 . S
C762 C768 1.379 . S
C762 N770 1.356 1_565 S
C763 C762 1.363 . S
C763 C769 1.363 . S
C764 C765 1.363 . S
C764 C769 1.379 . S
C764 N771 1.356 . S
C765 C764 1.363 . S
C765 C768 1.363 . S
N766 C768 1.356 . S
N766 H778 0.976 1_565 S
N766 H779 0.985 . S
N767 C769 1.356 . S
N767 H772 0.984 . S
N767 H773 0.985 . S
C768 C762 1.379 . S
C768 C765 1.363 . S
C768 N766 1.356 . S
C769 C763 1.363 . S
C769 C764 1.379 . S
C769 N767 1.356 . S
N770 C762 1.356 1_545 S
N770 H776 0.984 . S
N770 H777 0.984 . S
N771 C764 1.356 . S
N771 H774 0.984 . S
N771 H775 0.985 . S
H772 N767 0.984 . S
H773 N767 0.985 . S
H774 N771 0.984 . S
H775 N771 0.985 . S
H776 N770 0.984 . S
H777 N770 0.984 . S
H778 N766 0.976 1_545 S
H779 N766 0.985 . S
C780 C781 1.363 . S
C780 C786 1.379 . S
C780 N788 1.356 . S
C781 C780 1.363 . S
C781 C787 1.363 . S
C782 C783 1.363 . S
C782 C787 1.379 . S
C782 N789 1.356 . S
C783 C782 1.363 . S
C783 C786 1.363 . S
N784 C786 1.356 . S
N784 H796 0.984 . S
N784 H797 0.985 . S
N785 C787 1.356 . S
N785 H790 0.984 . S
N785 H791 0.985 . S
C786 C780 1.379 . S
C786 C783 1.363 . S
C786 N784 1.356 . S
C787 C781 1.363 . S
C787 C782 1.379 . S
C787 N785 1.356 . S
N788 C780 1.356 . S
N788 H794 0.984 . S
N788 H795 0.984 . S
N789 C782 1.356 . S
N789 H792 0.984 . S
N789 H793 0.985 . S
H790 N785 0.984 . S
H791 N785 0.985 . S
H792 N789 0.984 . S
H793 N789 0.985 . S
H794 N788 0.984 . S
H795 N788 0.984 . S
H796 N784 0.984 . S
H797 N784 0.985 . S
C798 C799 1.363 . S
C798 C804 1.379 . S
C798 N806 1.356 . S
C799 C798 1.363 . S
C799 C805 1.363 . S
C800 C801 1.363 . S
C800 C805 1.379 . S
C800 N807 1.356 1_545 S
C801 C800 1.363 . S
C801 C804 1.363 . S
N802 C804 1.356 1_556 S
N802 H814 0.984 . S
N802 H815 0.985 . S
N803 C805 1.356 . S
N803 H808 0.984 . S
N803 H809 0.985 . S
C804 C798 1.379 . S
C804 C801 1.363 . S
C804 N802 1.356 1_554 S
C805 C799 1.363 . S
C805 C800 1.379 . S
C805 N803 1.356 . S
N806 C798 1.356 . S
N806 H812 0.984 . S
N806 H813 0.984 . S
N807 C800 1.356 1_565 S
N807 H810 0.984 . S
N807 H811 0.985 . S
H808 N803 0.984 . S
H809 N803 0.985 . S
H810 N807 0.984 . S
H811 N807 0.985 . S
H812 N806 0.984 . S
H813 N806 0.984 . S
H814 N802 0.984 . S
H815 N802 0.985 . S
C816 C817 1.363 . S
C816 C822 1.379 . S
C816 N824 1.356 . S
C817 C816 1.363 . S
C817 C823 1.363 . S
C818 C819 1.363 . S
C818 C823 1.379 . S
C818 N825 1.356 . S
C819 C818 1.363 . S
C819 C822 1.363 . S
N820 C822 1.356 . S
N820 H832 0.984 . S
N820 H833 0.985 . S
N821 C823 1.356 . S
N821 H826 0.984 . S
N821 H827 0.985 . S
C822 C816 1.379 . S
C822 C819 1.363 . S
C822 N820 1.356 . S
C823 C817 1.363 . S
C823 C818 1.379 . S
C823 N821 1.356 . S
N824 C816 1.356 . S
N824 H830 0.984 . S
N824 H831 0.984 . S
N825 C818 1.356 . S
N825 H828 0.984 . S
N825 H829 0.985 . S
H826 N821 0.984 . S
H827 N821 0.985 . S
H828 N825 0.984 . S
H829 N825 0.985 . S
H830 N824 0.984 . S
H831 N824 0.984 . S
H832 N820 0.984 . S
H833 N820 0.985 . S
C834 C835 1.363 . S
C834 C840 1.379 . S
C834 N842 1.356 . S
C835 C834 1.363 . S
C835 C841 1.363 . S
C836 C837 1.363 . S
C836 C841 1.379 . S
C836 N843 1.356 . S
C837 C836 1.363 . S
C837 C840 1.363 . S
N838 C840 1.356 . S
N838 H850 0.984 . S
N838 H851 0.985 . S
N839 C841 1.356 1_554 S
N839 H844 0.984 . S
N839 H845 0.985 . S
C840 C834 1.379 . S
C840 C837 1.363 . S
C840 N838 1.356 . S
C841 C835 1.363 . S
C841 C836 1.379 . S
C841 N839 1.356 1_556 S
N842 C834 1.356 . S
N842 H848 0.984 . S
N842 H849 0.984 . S
N843 C836 1.356 . S
N843 H846 0.984 . S
N843 H847 0.985 . S
H844 N839 0.984 . S
H845 N839 0.985 . S
H846 N843 0.984 . S
H847 N843 0.985 . S
H848 N842 0.984 . S
H849 N842 0.984 . S
H850 N838 0.984 . S
H851 N838 0.985 . S
C852 C853 1.363 . S
C852 C858 1.379 . S
C852 N860 1.356 . S
C853 C852 1.363 . S
C853 C859 1.363 . S
C854 C855 1.363 . S
C854 C859 1.379 . S
C854 N861 1.356 . S
C855 C854 1.363 . S
C855 C858 1.363 . S
N856 C858 1.356 . S
N856 H868 0.984 . S
N856 H869 0.985 . S
N857 C859 1.356 . S
N857 H862 0.984 . S
N857 H863 0.985 . S
C858 C852 1.379 . S
C858 C855 1.363 . S
C858 N856 1.356 . S
C859 C853 1.363 . S
C859 C854 1.379 . S
C859 N857 1.356 . S
N860 C852 1.356 . S
N860 H866 0.984 . S
N860 H867 0.984 . S
N861 C854 1.356 . S
N861 H864 0.984 . S
N861 H865 0.985 . S
H862 N857 0.984 . S
H863 N857 0.985 . S
H864 N861 0.984 . S
H865 N861 0.985 . S
H866 N860 0.984 . S
H867 N860 0.984 . S
H868 N856 0.984 . S
H869 N856 0.985 . S
C870 C871 1.363 . S
C870 C876 1.379 . S
C870 N878 1.356 . S
C871 C870 1.363 . S
C871 C877 1.363 . S
C872 C873 1.363 . S
C872 C877 1.379 . S
C872 N879 1.356 . S
C873 C872 1.363 . S
C873 C876 1.363 . S
N874 C876 1.356 . S
N874 H886 0.984 . S
N874 H887 0.985 . S
N875 C877 1.356 . S
N875 H880 0.984 . S
N875 H881 0.985 . S
C876 C870 1.379 . S
C876 C873 1.363 . S
C876 N874 1.356 . S
C877 C871 1.363 . S
C877 C872 1.379 . S
C877 N875 1.356 . S
N878 C870 1.356 . S
N878 H884 0.984 . S
N878 H885 0.984 . S
N879 C872 1.356 . S
N879 H882 0.984 . S
N879 H883 0.985 . S
H880 N875 0.984 . S
H881 N875 0.985 . S
H882 N879 0.984 . S
H883 N879 0.985 . S
H884 N878 0.984 . S
H885 N878 0.984 . S
H886 N874 0.984 . S
H887 N874 0.985 . S
C888 C889 1.363 . S
C888 C894 1.379 . S
C888 N896 1.356 . S
C889 C888 1.363 . S
C889 C895 1.363 . S
C890 C891 1.363 . S
C890 C895 1.379 . S
C890 N897 1.356 . S
C891 C890 1.363 . S
C891 C894 1.363 . S
N892 C894 1.356 . S
N892 H904 0.984 . S
N892 H905 0.985 . S
N893 C895 1.356 . S
N893 H898 0.984 . S
N893 H899 0.985 . S
C894 C888 1.379 . S
C894 C891 1.363 . S
C894 N892 1.356 . S
C895 C889 1.363 . S
C895 C890 1.379 . S
C895 N893 1.356 . S
N896 C888 1.356 . S
N896 H902 0.984 . S
N896 H903 0.984 . S
N897 C890 1.356 . S
N897 H900 0.984 . S
N897 H901 0.985 . S
H898 N893 0.984 . S
H899 N893 0.985 . S
H900 N897 0.984 . S
H901 N897 0.985 . S
H902 N896 0.984 . S
H903 N896 0.984 . S
H904 N892 0.984 . S
H905 N892 0.985 . S
C906 C907 1.363 . S
C906 C912 1.379 . S
C906 N914 1.356 1_545 S
C907 C906 1.363 . S
C907 C913 1.363 . S
C908 C909 1.363 . S
C908 C913 1.379 . S
C908 N915 1.356 . S
C909 C908 1.363 . S
C909 C912 1.363 . S
N910 C912 1.356 . S
N910 H922 0.984 . S
N910 H923 0.985 . S
N911 C913 1.356 1_655 S
N911 H916 0.984 . S
N911 H917 0.985 . S
C912 C906 1.379 . S
C912 C909 1.363 . S
C912 N910 1.356 . S
C913 C907 1.363 . S
C913 C908 1.379 . S
C913 N911 1.356 1_455 S
N914 C906 1.356 1_565 S
N914 H920 0.984 . S
N914 H921 0.984 . S
N915 C908 1.356 . S
N915 H918 0.984 . S
N915 H919 0.985 . S
H916 N911 0.984 . S
H917 N911 0.985 . S
H918 N915 0.984 . S
H919 N915 0.985 . S
H920 N914 0.984 . S
H921 N914 0.984 . S
H922 N910 0.984 . S
H923 N910 0.985 . S
C924 C925 1.363 . S
C924 C930 1.379 . S
C924 N932 1.356 . S
C925 C924 1.363 . S
C925 C931 1.363 . S
C926 C927 1.363 . S
C926 C931 1.379 . S
C926 N933 1.356 . S
C927 C926 1.363 . S
C927 C930 1.363 . S
N928 C930 1.356 . S
N928 H940 0.984 . S
N928 H941 0.985 . S
N929 C931 1.356 . S
N929 H934 0.984 . S
N929 H935 0.985 . S
C930 C924 1.379 . S
C930 C927 1.363 . S
C930 N928 1.356 . S
C931 C925 1.363 . S
C931 C926 1.379 . S
C931 N929 1.356 . S
N932 C924 1.356 . S
N932 H938 0.984 . S
N932 H939 0.984 . S
N933 C926 1.356 . S
N933 H936 0.984 . S
N933 H937 0.985 . S
H934 N929 0.984 . S
H935 N929 0.985 . S
H936 N933 0.984 . S
H937 N933 0.985 . S
H938 N932 0.984 . S
H939 N932 0.984 . S
H940 N928 0.984 . S
H941 N928 0.985 . S
C942 C943 1.363 . S
C942 C948 1.379 . S
C942 N950 1.356 . S
C943 C942 1.363 . S
C943 C949 1.363 . S
C944 C945 1.363 . S
C944 C949 1.379 . S
C944 N951 1.356 . S
C945 C944 1.363 . S
C945 C948 1.363 . S
N946 C948 1.356 . S
N946 H958 0.984 . S
N946 H959 0.985 . S
N947 C949 1.356 1_545 S
N947 H952 0.984 . S
N947 H953 0.985 . S
C948 C942 1.379 . S
C948 C945 1.363 . S
C948 N946 1.356 . S
C949 C943 1.363 . S
C949 C944 1.379 . S
C949 N947 1.356 1_565 S
N950 C942 1.356 . S
N950 H956 0.984 . S
N950 H957 0.984 . S
N951 C944 1.356 . S
N951 H954 0.984 . S
N951 H955 0.985 . S
H952 N947 0.984 . S
H953 N947 0.985 . S
H954 N951 0.984 . S
H955 N951 0.985 . S
H956 N950 0.984 . S
H957 N950 0.984 . S
H958 N946 0.984 . S
H959 N946 0.985 . S
C960 C961 1.363 . S
C960 C966 1.379 . S
C960 N968 1.356 . S
C961 C960 1.363 . S
C961 C967 1.363 . S
C962 C963 1.363 . S
C962 C967 1.379 . S
C962 N969 1.356 . S
C963 C962 1.363 . S
C963 C966 1.363 . S
N964 C966 1.356 . S
N964 H976 0.984 . S
N964 H977 0.985 . S
N965 C967 1.356 . S
N965 H970 0.984 . S
N965 H971 0.985 . S
C966 C960 1.379 . S
C966 C963 1.363 . S
C966 N964 1.356 . S
C967 C961 1.363 . S
C967 C962 1.379 . S
C967 N965 1.356 . S
N968 C960 1.356 . S
N968 H974 0.984 . S
N968 H975 0.984 . S
N969 C962 1.356 . S
N969 H972 0.984 . S
N969 H973 0.985 . S
H970 N965 0.984 . S
H971 N965 0.985 . S
H972 N969 0.984 . S
H973 N969 0.985 . S
H974 N968 0.984 . S
H975 N968 0.984 . S
H976 N964 0.984 . S
H977 N964 0.985 . S
C978 C979 1.363 . S
C978 C984 1.379 . S
C978 N986 1.356 . S
C979 C978 1.363 . S
C979 C985 1.363 . S
C980 C981 1.363 . S
C980 C985 1.379 . S
C980 N987 1.356 . S
C981 C980 1.363 . S
C981 C984 1.363 . S
N982 C984 1.356 . S
N982 H994 0.984 . S
N982 H995 0.985 . S
N983 C985 1.356 1_455 S
N983 H988 0.984 . S
N983 H989 0.985 . S
C984 C978 1.379 . S
C984 C981 1.363 . S
C984 N982 1.356 . S
C985 C979 1.363 . S
C985 C980 1.379 . S
C985 N983 1.356 1_655 S
N986 C978 1.356 . S
N986 H992 0.984 . S
N986 H993 0.984 1_655 S
N987 C980 1.356 . S
N987 H990 0.984 . S
N987 H991 0.985 . S
H988 N983 0.984 . S
H989 N983 0.985 . S
H990 N987 0.984 . S
H991 N987 0.985 . S
H992 N986 0.984 . S
H993 N986 0.984 1_455 S
H994 N982 0.984 . S
H995 N982 0.985 . S
C996 C997 1.363 . S
C996 C1002 1.379 . S
C996 N1004 1.356 . S
C997 C996 1.363 . S
C997 C1003 1.363 . S
C998 C999 1.363 . S
C998 C1003 1.379 . S
C998 N1005 1.356 . S
C999 C998 1.363 . S
C999 C1002 1.363 . S
N1000 C1002 1.356 . S
N1000 H1012 0.984 . S
N1000 H1013 0.985 . S
N1001 C1003 1.356 . S
N1001 H1006 0.984 . S
N1001 H1007 0.985 . S
C1002 C996 1.379 . S
C1002 C999 1.363 . S
C1002 N1000 1.356 . S
C1003 C997 1.363 . S
C1003 C998 1.379 . S
C1003 N1001 1.356 . S
N1004 C996 1.356 . S
N1004 H1010 0.984 . S
N1004 H1011 0.984 . S
N1005 C998 1.356 . S
N1005 H1008 0.984 . S
N1005 H1009 0.985 . S
H1006 N1001 0.984 . S
H1007 N1001 0.985 . S
H1008 N1005 0.984 . S
H1009 N1005 0.985 . S
H1010 N1004 0.984 . S
H1011 N1004 0.984 . S
H1012 N1000 0.984 . S
H1013 N1000 0.985 . S
C1014 C1015 1.363 . S
C1014 C1020 1.379 . S
C1014 N1022 1.356 . S
C1015 C1014 1.363 . S
C1015 C1021 1.363 . S
C1016 C1017 1.363 . S
C1016 C1021 1.379 . S
C1016 N1023 1.356 . S
C1017 C1016 1.363 . S
C1017 C1020 1.363 . S
N1018 C1020 1.356 . S
N1018 H1030 0.984 . S
N1018 H1031 0.985 . S
N1019 C1021 1.356 . S
N1019 H1024 0.984 . S
N1019 H1025 0.985 . S
C1020 C1014 1.379 . S
C1020 C1017 1.363 . S
C1020 N1018 1.356 . S
C1021 C1015 1.363 . S
C1021 C1016 1.379 . S
C1021 N1019 1.356 . S
N1022 C1014 1.356 . S
N1022 H1028 0.984 . S
N1022 H1029 0.984 . S
N1023 C1016 1.356 . S
N1023 H1026 0.984 . S
N1023 H1027 0.985 . S
H1024 N1019 0.984 . S
H1025 N1019 0.985 . S
H1026 N1023 0.984 . S
H1027 N1023 0.985 . S
H1028 N1022 0.984 . S
H1029 N1022 0.984 . S
H1030 N1018 0.984 . S
H1031 N1018 0.985 . S
C1032 C1033 1.363 . S
C1032 C1038 1.379 . S
C1032 N1040 1.356 . S
C1033 C1032 1.363 . S
C1033 C1039 1.363 . S
C1034 C1035 1.363 . S
C1034 C1039 1.379 . S
C1034 N1041 1.356 . S
C1035 C1034 1.363 . S
C1035 C1038 1.363 . S
N1036 C1038 1.356 . S
N1036 H1048 0.984 . S
N1036 H1049 0.985 . S
N1037 C1039 1.356 . S
N1037 H1042 0.984 . S
N1037 H1043 0.985 . S
C1038 C1032 1.379 . S
C1038 C1035 1.363 . S
C1038 N1036 1.356 . S
C1039 C1033 1.363 . S
C1039 C1034 1.379 . S
C1039 N1037 1.356 . S
N1040 C1032 1.356 . S
N1040 H1046 0.984 . S
N1040 H1047 0.984 . S
N1041 C1034 1.356 . S
N1041 H1044 0.984 . S
N1041 H1045 0.985 . S
H1042 N1037 0.984 . S
H1043 N1037 0.985 . S
H1044 N1041 0.984 . S
H1045 N1041 0.985 . S
H1046 N1040 0.984 . S
H1047 N1040 0.984 . S
H1048 N1036 0.984 . S
H1049 N1036 0.985 . S
C1050 C1051 1.363 . S
C1050 C1056 1.379 . S
C1050 N1058 1.356 . S
C1051 C1050 1.363 . S
C1051 C1057 1.363 . S
C1052 C1053 1.363 . S
C1052 C1057 1.379 . S
C1052 N1059 1.356 . S
C1053 C1052 1.363 . S
C1053 C1056 1.363 . S
N1054 C1056 1.356 . S
N1054 H1066 0.984 . S
N1054 H1067 0.985 . S
N1055 C1057 1.356 . S
N1055 H1060 0.984 . S
N1055 H1061 0.985 . S
C1056 C1050 1.379 . S
C1056 C1053 1.363 . S
C1056 N1054 1.356 . S
C1057 C1051 1.363 . S
C1057 C1052 1.379 . S
C1057 N1055 1.356 . S
N1058 C1050 1.356 . S
N1058 H1064 0.984 . S
N1058 H1065 0.984 . S
N1059 C1052 1.356 . S
N1059 H1062 0.984 . S
N1059 H1063 0.985 . S
H1060 N1055 0.984 . S
H1061 N1055 0.985 . S
H1062 N1059 0.984 . S
H1063 N1059 0.985 . S
H1064 N1058 0.984 . S
H1065 N1058 0.984 . S
H1066 N1054 0.984 . S
H1067 N1054 0.985 . S
C1068 C1069 1.363 . S
C1068 C1074 1.379 . S
C1068 N1076 1.356 1_554 S
C1069 C1068 1.363 . S
C1069 C1075 1.363 . S
C1070 C1071 1.363 . S
C1070 C1075 1.379 . S
C1070 N1077 1.356 . S
C1071 C1070 1.363 . S
C1071 C1074 1.363 . S
N1072 C1074 1.356 . S
N1072 H1084 0.984 . S
N1072 H1085 0.985 . S
N1073 C1075 1.356 1_655 S
N1073 H1078 0.984 1_554 S
N1073 H1079 0.985 . S
C1074 C1068 1.379 . S
C1074 C1071 1.363 . S
C1074 N1072 1.356 . S
C1075 C1069 1.363 . S
C1075 C1070 1.379 . S
C1075 N1073 1.356 1_455 S
N1076 C1068 1.356 1_556 S
N1076 H1082 0.984 . S
N1076 H1083 0.984 . S
N1077 C1070 1.356 . S
N1077 H1080 0.984 . S
N1077 H1081 0.985 . S
H1078 N1073 0.984 1_556 S
H1079 N1073 0.985 . S
H1080 N1077 0.984 . S
H1081 N1077 0.985 . S
H1082 N1076 0.984 . S
H1083 N1076 0.984 . S
H1084 N1072 0.984 . S
H1085 N1072 0.985 . S
C1086 C1087 1.363 . S
C1086 C1092 1.379 . S
C1086 N1094 1.356 . S
C1087 C1086 1.363 . S
C1087 C1093 1.363 . S
C1088 C1089 1.363 . S
C1088 C1093 1.379 . S
C1088 N1095 1.356 . S
C1089 C1088 1.363 . S
C1089 C1092 1.363 . S
N1090 C1092 1.356 . S
N1090 H1102 0.984 . S
N1090 H1103 0.985 . S
N1091 C1093 1.356 . S
N1091 H1096 0.984 . S
N1091 H1097 0.985 . S
C1092 C1086 1.379 . S
C1092 C1089 1.363 . S
C1092 N1090 1.356 . S
C1093 C1087 1.363 . S
C1093 C1088 1.379 . S
C1093 N1091 1.356 . S
N1094 C1086 1.356 . S
N1094 H1100 0.984 . S
N1094 H1101 0.984 . S
N1095 C1088 1.356 . S
N1095 H1098 0.984 . S
N1095 H1099 0.985 . S
H1096 N1091 0.984 . S
H1097 N1091 0.985 . S
H1098 N1095 0.984 . S
H1099 N1095 0.985 . S
H1100 N1094 0.984 . S
H1101 N1094 0.984 . S
H1102 N1090 0.984 . S
H1103 N1090 0.985 . S
C1104 C1105 1.363 . S
C1104 C1110 1.379 . S
C1104 N1112 1.356 . S
C1105 C1104 1.363 . S
C1105 C1111 1.363 . S
C1106 C1107 1.363 . S
C1106 C1111 1.379 . S
C1106 N1113 1.356 . S
C1107 C1106 1.363 . S
C1107 C1110 1.363 . S
N1108 C1110 1.356 . S
N1108 H1120 0.984 . S
N1108 H1121 0.985 . S
N1109 C1111 1.356 . S
N1109 H1114 0.984 . S
N1109 H1115 0.985 . S
C1110 C1104 1.379 . S
C1110 C1107 1.363 . S
C1110 N1108 1.356 . S
C1111 C1105 1.363 . S
C1111 C1106 1.379 . S
C1111 N1109 1.356 . S
N1112 C1104 1.356 . S
N1112 H1118 0.984 . S
N1112 H1119 0.984 . S
N1113 C1106 1.356 . S
N1113 H1116 0.984 . S
N1113 H1117 0.985 . S
H1114 N1109 0.984 . S
H1115 N1109 0.985 . S
H1116 N1113 0.984 . S
H1117 N1113 0.985 . S
H1118 N1112 0.984 . S
H1119 N1112 0.984 . S
H1120 N1108 0.984 . S
H1121 N1108 0.985 . S
C1122 C1123 1.363 . S
C1122 C1128 1.379 . S
C1122 N1130 1.356 . S
C1123 C1122 1.363 . S
C1123 C1129 1.363 . S
C1124 C1125 1.363 . S
C1124 C1129 1.379 . S
C1124 N1131 1.356 . S
C1125 C1124 1.363 . S
C1125 C1128 1.363 . S
N1126 C1128 1.356 . S
N1126 H1138 0.984 . S
N1126 H1139 0.985 . S
N1127 C1129 1.356 . S
N1127 H1132 0.984 . S
N1127 H1133 0.985 . S
C1128 C1122 1.379 . S
C1128 C1125 1.363 . S
C1128 N1126 1.356 . S
C1129 C1123 1.363 . S
C1129 C1124 1.379 . S
C1129 N1127 1.356 . S
N1130 C1122 1.356 . S
N1130 H1136 0.984 . S
N1130 H1137 0.984 . S
N1131 C1124 1.356 . S
N1131 H1134 0.984 . S
N1131 H1135 0.985 . S
H1132 N1127 0.984 . S
H1133 N1127 0.985 . S
H1134 N1131 0.984 . S
H1135 N1131 0.985 . S
H1136 N1130 0.984 . S
H1137 N1130 0.984 . S
H1138 N1126 0.984 . S
H1139 N1126 0.985 . S
C1140 C1141 1.363 . S
C1140 C1146 1.379 . S
C1140 N1148 1.356 . S
C1141 C1140 1.363 . S
C1141 C1147 1.363 . S
C1142 C1143 1.363 . S
C1142 C1147 1.379 . S
C1142 N1149 1.356 . S
C1143 C1142 1.363 . S
C1143 C1146 1.363 . S
N1144 C1146 1.356 . S
N1144 H1156 0.984 . S
N1144 H1157 0.985 . S
N1145 C1147 1.356 1_554 S
N1145 H1150 0.984 . S
N1145 H1151 0.985 . S
C1146 C1140 1.379 . S
C1146 C1143 1.363 . S
C1146 N1144 1.356 . S
C1147 C1141 1.363 . S
C1147 C1142 1.379 . S
C1147 N1145 1.356 1_556 S
N1148 C1140 1.356 . S
N1148 H1154 0.984 . S
N1148 H1155 0.984 1_556 S
N1149 C1142 1.356 . S
N1149 H1152 0.984 . S
N1149 H1153 0.985 . S
H1150 N1145 0.984 . S
H1151 N1145 0.985 . S
H1152 N1149 0.984 . S
H1153 N1149 0.985 . S
H1154 N1148 0.984 . S
H1155 N1148 0.984 1_554 S
H1156 N1144 0.984 . S
H1157 N1144 0.985 . S
C1158 C1159 1.363 . S
C1158 C1164 1.379 . S
C1158 N1166 1.356 . S
C1159 C1158 1.363 . S
C1159 C1165 1.363 . S
C1160 C1161 1.363 . S
C1160 C1165 1.379 . S
C1160 N1167 1.356 . S
C1161 C1160 1.363 . S
C1161 C1164 1.363 . S
N1162 C1164 1.356 1_455 S
N1162 H1174 0.984 . S
N1162 H1175 0.985 . S
N1163 C1165 1.356 . S
N1163 H1168 0.984 . S
N1163 H1169 0.985 . S
C1164 C1158 1.379 . S
C1164 C1161 1.363 . S
C1164 N1162 1.356 1_655 S
C1165 C1159 1.363 . S
C1165 C1160 1.379 . S
C1165 N1163 1.356 . S
N1166 C1158 1.356 . S
N1166 H1172 0.984 . S
N1166 H1173 0.984 . S
N1167 C1160 1.356 . S
N1167 H1170 0.984 . S
N1167 H1171 0.985 . S
H1168 N1163 0.984 . S
H1169 N1163 0.985 . S
H1170 N1167 0.984 . S
H1171 N1167 0.985 . S
H1172 N1166 0.984 . S
H1173 N1166 0.984 . S
H1174 N1162 0.984 . S
H1175 N1162 0.985 . S
C313 C117 1.297 . S
C315 C0 1.297 . S
C331 C13 1.297 1_455 S
C333 C130 1.297 . S
C349 C26 1.297 . S
C351 C143 1.297 1_556 S
C367 C39 1.297 . S
C369 C104 1.297 . S
C385 C52 1.297 . S
C387 C195 1.297 . S
C403 C156 1.297 . S
C405 C65 1.297 1_655 S
C421 C78 1.297 . S
C423 C169 1.297 1_554 S
C439 C182 1.297 . S
C441 C91 1.297 . S
C457 C208 1.297 . S
C459 C234 1.297 . S
C475 C286 1.297 1_545 S
C477 C221 1.297 . S
C493 C247 1.297 . S
C495 C299 1.297 1_565 S
C511 C273 1.297 . S
C513 C260 1.297 . S
C529 C268 1.545 . S
C531 C8 1.545 . S
C547 C21 1.545 . S
C549 C229 1.545 . S
C565 C34 1.545 . S
C567 C242 1.545 . S
C583 C47 1.545 . S
C585 C255 1.545 . S
C601 C60 1.545 . S
C603 C307 1.545 . S
C619 C281 1.545 . S
C621 C73 1.545 . S
C637 C294 1.545 . S
C639 C86 1.545 . S
C655 C216 1.545 . S
C657 C99 1.545 . S
C673 C203 1.545 . S
C675 C112 1.545 . S
C691 C125 1.545 . S
C693 C164 1.545 . S
C709 C177 1.545 . S
C711 C138 1.545 . S
C727 C190 1.545 . S
C729 C151 1.545 . S
C745 C5 1.026 . S
C747 C218 1.244 . S
C763 C309 1.244 1_565 S
C765 C18 1.026 . S
C781 C283 1.244 . S
C783 C31 1.026 . S
C799 C44 1.026 . S
C801 C296 1.228 1_544 S
C817 C57 1.026 . S
C819 C231 1.244 . S
C835 C244 1.228 1_556 S
C837 C70 1.026 . S
C853 C257 1.244 . S
C855 C83 1.026 . S
C871 C270 1.244 . S
C873 C96 1.026 . S
C889 C10 1.244 . S
C891 C109 1.026 . S
C907 C23 1.228 1_445 S
C909 C122 1.026 . S
C925 C36 1.244 . S
C927 C135 1.026 . S
C943 C49 1.228 1_565 S
C945 C148 1.026 . S
C961 C62 1.244 . S
C963 C161 1.026 . S
C979 C75 1.244 1_655 S
C981 C174 1.026 . S
C997 C187 1.026 . S
C999 C88 1.244 . S
C1015 C101 1.244 . S
C1017 C200 1.026 . S
C1033 C114 1.244 . S
C1035 C213 1.026 . S
C1051 C226 1.026 . S
C1053 C166 1.244 . S
C1069 C179 1.228 1_454 S
C1071 C239 1.026 . S
C1087 C252 1.026 . S
C1089 C192 1.244 . S
C1105 C265 1.026 . S
C1107 C205 1.244 . S
C1123 C278 1.026 . S
C1125 C140 1.244 . S
C1141 C153 1.244 1_556 S
C1143 C291 1.026 . S
C1159 C304 1.026 . S
C1161 C127 1.228 1_655 S
