# Generated by pormake.
# Topology lvt, (4)-cn, num edge types: 1
# Building blocks:
#     Node 0, Type 0, BuildingBlock: KOZSID_clean_sbu_0, # of connection points: 4
#     Node 1, Type 0, BuildingBlock: KOZSID_clean_sbu_0, # of connection points: 4
#     Node 2, Type 0, BuildingBlock: KOZSID_clean_sbu_0, # of connection points: 4
#     Node 3, Type 0, BuildingBlock: KOZSID_clean_sbu_0, # of connection points: 4
#     Node 4, Type 0, BuildingBlock: KOZSID_clean_sbu_0, # of connection points: 4
#     Node 5, Type 0, BuildingBlock: KOZSID_clean_sbu_0, # of connection points: 4
#     Node 6, Type 0, BuildingBlock: KOZSID_clean_sbu_0, # of connection points: 4
#     Node 7, Type 0, BuildingBlock: KOZSID_clean_sbu_0, # of connection points: 4
#     Edge 8, Type (0, 0), None
#     Edge 9, Type (0, 0), None
#     Edge 10, Type (0, 0), None
#     Edge 11, Type (0, 0), None
#     Edge 12, Type (0, 0), None
#     Edge 13, Type (0, 0), None
#     Edge 14, Type (0, 0), None
#     Edge 15, Type (0, 0), None
#     Edge 16, Type (0, 0), None
#     Edge 17, Type (0, 0), None
#     Edge 18, Type (0, 0), None
#     Edge 19, Type (0, 0), None
#     Edge 20, Type (0, 0), None
#     Edge 21, Type (0, 0), None
#     Edge 22, Type (0, 0), None
#     Edge 23, Type (0, 0), None
# Relax obj value: 0.011
# Max RMSD: 0.058
# Mean RMSD: 0.036
data_MOF--net-lvt--node1-KOZSID_clean_sbu_0--edge1-none
_symmetry_space_group_name_H-M    P1
_symmetry_Int_Tables_number       1
_symmetry_cell_setting            triclinic
loop_
_symmetry_equiv_pos_as_xyz
'x, y, z'
_cell_length_a     23.235543
_cell_length_b     23.28222
_cell_length_c     21.41279
_cell_angle_alpha  78.26399
_cell_angle_beta   95.596497
_cell_angle_gamma 84.498095
loop_
_atom_site_label
_atom_site_type_symbol
_atom_site_fract_x
_atom_site_fract_y
_atom_site_fract_z
_atom_type_partial_charge
C0 C 0.08925 0.90381 0.57405 0.0
C1 C 0.09841 0.85051 0.55447 0.0
C2 C 0.06356 0.85621 0.49813 0.0
C3 C 0.03431 0.91188 0.48679 0.0
N4 N 0.0484 0.94254 0.5323 0.0
Co5 Co 0.01143 0.0234 0.53632 0.0
N6 N 0.95842 0.03035 0.45443 0.0
C7 C 0.9546 0.98866 0.41899 0.0
C8 C 0.91422 1.00496 0.3657 0.0
C9 C 0.89107 0.06076 0.36652 0.0
C10 C 0.91945 0.0759 0.42008 0.0
N11 N 0.9745 0.10429 0.54032 0.0
C12 C 0.93353 0.14295 0.49866 0.0
C13 C 0.92434 0.19625 0.51825 0.0
C14 C 0.95933 0.19063 0.57448 0.0
C15 C 0.98866 0.13499 0.58576 0.0
N16 N 0.0644 0.01644 0.61823 0.0
C17 C 0.0682 0.05812 0.6537 0.0
C18 C 0.10854 0.04179 0.70702 0.0
C19 C 0.13166 0.98598 0.70622 0.0
C20 C 0.10329 0.97085 0.65264 0.0
N21 N 0.07107 0.06049 0.48483 0.0
C22 C 0.14896 0.1181 0.40615 0.0
C23 C 0.13606 0.13597 0.46216 0.0
C24 C 0.09762 0.10668 0.50061 0.0
C25 C 0.1239 0.06957 0.39142 0.0
C26 C 0.08525 0.04187 0.4308 0.0
N27 N 0.95178 0.98633 0.5878 0.0
C28 C 0.89858 0.97768 0.68089 0.0
C29 C 0.87378 0.9289 0.66645 0.0
C30 C 0.88701 0.91068 0.61073 0.0
C31 C 0.9255 0.93989 0.57228 0.0
C32 C 0.9373 1.00527 0.64155 0.0
H33 H 0.93371 0.9236 0.53063 0.0
H34 H 0.9555 0.04147 0.65604 0.0
H35 H 0.08966 0.12271 0.54247 0.0
H36 H 0.06687 1.00583 0.41612 0.0
C37 C 0.99073 0.93519 0.43595 0.0
C38 C 0.11676 0.91341 0.63542 0.0
C39 C 0.90592 0.13329 0.43738 0.0
C40 C 0.03216 0.11164 0.63667 0.0
H41 H 0.12615 0.81079 0.57921 0.0
H42 H 0.05864 0.82298 0.4699 0.0
H43 H 0.90316 0.97941 0.33022 0.0
H44 H 0.85713 0.08741 0.33147 0.0
H45 H 0.89647 0.2359 0.49358 0.0
H46 H 0.96422 0.22386 0.60271 0.0
H47 H 0.1196 0.06734 0.74249 0.0
H48 H 0.16557 0.95932 0.74131 0.0
H49 H 0.15509 0.17296 0.47588 0.0
H50 H 0.13348 0.05351 0.34906 0.0
H51 H 0.88875 0.994 0.72303 0.0
H52 H 0.86822 0.87347 0.59725 0.0
C53 C 0.14191 0.84257 0.7397 0.0
C54 C 0.09005 0.8578 0.76318 0.0
C55 C 0.09037 0.82043 0.82116 0.0
C56 C 0.14167 0.78402 0.82982 0.0
N57 N 0.17435 0.7957 0.78081 0.0
Co58 Co 0.25157 0.75146 0.7745 0.0
N59 N 0.2508 0.69577 0.85929 0.0
C60 C 0.20579 0.69178 0.89482 0.0
C61 C 0.21668 0.64843 0.94976 0.0
C62 C 0.27242 0.62388 0.95003 0.0
C63 C 0.29301 0.6547 0.89564 0.0
N64 N 0.33036 0.70892 0.77013 0.0
C65 C 0.36674 0.66889 0.81603 0.0
C66 C 0.42142 0.65909 0.79605 0.0
C67 C 0.41911 0.69241 0.73555 0.0
C68 C 0.36403 0.7219 0.72226 0.0
N69 N 0.25138 0.80566 0.68843 0.0
C70 C 0.29313 0.80425 0.64881 0.0
C71 C 0.28179 0.84622 0.59284 0.0
C72 C 0.22913 0.87586 0.59627 0.0
C73 C 0.21069 0.84957 0.6541 0.0
N74 N 0.2912 0.80679 0.81899 0.0
C75 C 0.35192 0.87981 0.88603 0.0
C76 C 0.36321 0.87495 0.82426 0.0
C77 C 0.3329 0.83825 0.79203 0.0
C78 C 0.30875 0.84851 0.91303 0.0
C79 C 0.27867 0.81321 0.87868 0.0
N80 N 0.2114 0.6961 0.72942 0.0
C81 C 0.20436 0.642 0.64362 0.0
C82 C 0.14934 0.62746 0.65721 0.0
C83 C 0.12676 0.64598 0.70878 0.0
C84 C 0.15821 0.67975 0.74399 0.0
C85 C 0.23442 0.67598 0.68004 0.0
H86 H 0.13793 0.69268 0.78216 0.0
H87 H 0.2759 0.68604 0.66669 0.0
H88 H 0.34451 0.83546 0.74569 0.0
H89 H 0.24579 0.79095 0.90167 0.0
C90 C 0.15749 0.73474 0.8801 0.0
C91 C 0.15542 0.87 0.67534 0.0
C92 C 0.35325 0.64369 0.88124 0.0
C93 C 0.34424 0.76544 0.66735 0.0
H94 H 0.05455 0.89113 0.73989 0.0
H95 H 0.05615 0.81849 0.85212 0.0
H96 H 0.1884 0.63771 0.98669 0.0
H97 H 0.296 0.5886 0.98722 0.0
H98 H 0.46002 0.63252 0.82315 0.0
H99 H 0.45439 0.69692 0.70606 0.0
H100 H 0.30907 0.85494 0.5546 0.0
H101 H 0.207 0.91303 0.56036 0.0
H102 H 0.39652 0.8981 0.80149 0.0
H103 H 0.29794 0.85146 0.96045 0.0
H104 H 0.22384 0.62773 0.60455 0.0
H105 H 0.08448 0.63506 0.72139 0.0
C106 C 0.41449 0.11982 0.04942 0.0
C107 C 0.3861 0.17466 0.01736 0.0
C108 C 0.40748 0.18803 0.95975 0.0
C109 C 0.44789 0.14116 0.95982 0.0
N110 N 0.45319 0.09808 0.01372 0.0
Co111 Co 0.51104 0.02491 0.03577 0.0
N112 N 0.54704 0.04819 0.95406 0.0
C113 C 0.53202 0.09826 0.90836 0.0
C114 C 0.56362 0.10187 0.85721 0.0
C115 C 0.60039 0.05049 0.87033 0.0
C116 C 0.58869 0.01816 0.92875 0.0
N117 N 0.56883 0.95169 0.05778 0.0
C118 C 0.60758 0.92999 0.02211 0.0
C119 C 0.63584 0.87506 0.05409 0.0
C120 C 0.61435 0.86161 0.11163 0.0
C121 C 0.574 0.90852 0.11159 0.0
N122 N 0.4751 1.00166 0.11752 0.0
C123 C 0.49017 0.95164 0.16328 0.0
C124 C 0.45862 0.94808 0.21446 0.0
C125 C 0.42187 0.99946 0.20133 0.0
C126 C 0.43352 0.03174 0.14287 0.0
N127 N 0.45582 0.98167 0.99065 0.0
C128 C 0.38604 0.91589 0.92264 0.0
C129 C 0.40963 0.89317 0.98644 0.0
C130 C 0.44426 0.92632 0.01908 0.0
C131 C 0.3966 0.97281 0.89404 0.0
C132 C 0.43064 1.00493 0.92886 0.0
N133 N 0.56625 0.06813 0.08088 0.0
C134 C 0.62586 0.07652 0.17741 0.0
C135 C 0.63595 0.13372 0.14922 0.0
C136 C 0.61198 0.15682 0.08562 0.0
C137 C 0.57737 0.12375 0.0528 0.0
C138 C 0.59186 0.04453 0.14244 0.0
H139 H 0.55928 0.14469 0.00513 0.0
H140 H 0.58627 1.00104 0.16655 0.0
H141 H 0.46202 0.90562 0.06692 0.0
H142 H 0.43658 0.04821 0.90444 0.0
C143 C 0.48555 0.13925 0.9131 0.0
C144 C 0.4058 0.09181 0.11508 0.0
C145 C 0.61646 0.95811 0.95655 0.0
C146 C 0.53646 0.91051 0.15841 0.0
H147 H 0.35464 0.20327 0.03437 0.0
H148 H 0.39674 0.2284 0.92336 0.0
H149 H 0.55931 0.13692 0.81462 0.0
H150 H 0.63136 0.03761 0.83961 0.0
H151 H 0.6673 0.84644 0.03709 0.0
H152 H 0.62502 0.8212 0.14796 0.0
H153 H 0.46294 0.91303 0.25707 0.0
H154 H 0.39094 0.01237 0.23207 0.0
H155 H 0.40288 0.84914 0.01063 0.0
H156 H 0.37847 0.99268 0.84498 0.0
H157 H 0.64433 0.05636 0.22628 0.0
H158 H 0.61839 0.20106 0.06175 0.0
C159 C 0.29562 0.34933 0.16748 0.0
C160 C 0.27073 0.38149 0.10745 0.0
C161 C 0.21875 0.36096 0.09482 0.0
C162 C 0.2147 0.31773 0.14765 0.0
N163 N 0.26048 0.30995 0.19385 0.0
Co164 Co 0.27308 0.24913 0.27663 0.0
N165 N 0.19555 0.22005 0.25888 0.0
C166 C 0.15599 0.24104 0.20656 0.0
C167 C 0.10428 0.21758 0.21023 0.0
C168 C 0.11049 0.18021 0.26905 0.0
C169 C 0.16623 0.18244 0.29785 0.0
N170 N 0.28646 0.18685 0.35821 0.0
C171 C 0.24977 0.15037 0.38674 0.0
C172 C 0.27692 0.114 0.44358 0.0
C173 C 0.33202 0.12918 0.45222 0.0
C174 C 0.33564 0.17346 0.40013 0.0
N175 N 0.34919 0.28009 0.29626 0.0
C176 C 0.38799 0.25998 0.34943 0.0
C177 C 0.43664 0.28895 0.3496 0.0
C178 C 0.42859 0.33 0.2931 0.0
C179 C 0.37522 0.32371 0.26147 0.0
N180 N 0.23427 0.30551 0.32221 0.0
C181 C 0.17399 0.37911 0.39042 0.0
C182 C 0.22442 0.34181 0.41936 0.0
C183 C 0.25384 0.30603 0.38459 0.0
C184 C 0.15532 0.38007 0.32606 0.0
C185 C 0.18578 0.34324 0.29316 0.0
N186 N 0.31239 0.1927 0.23039 0.0
C187 C 0.4006 0.13744 0.21133 0.0
C188 C 0.37272 0.12547 0.15551 0.0
C189 C 0.31338 0.145 0.13951 0.0
C190 C 0.28438 0.17855 0.17701 0.0
C191 C 0.3698 0.17009 0.24812 0.0
H192 H 0.23952 0.19315 0.16115 0.0
H193 H 0.39393 0.17707 0.29018 0.0
H194 H 0.29197 0.27851 0.40942 0.0
H195 H 0.16873 0.34525 0.24457 0.0
C196 C 0.16761 0.28524 0.15635 0.0
C197 C 0.35295 0.35758 0.19683 0.0
C198 C 0.1884 0.1503 0.36337 0.0
C199 C 0.38038 0.20959 0.39464 0.0
H200 H 0.28843 0.4161 0.07588 0.0
H201 H 0.18756 0.37584 0.05221 0.0
H202 H 0.06585 0.22808 0.17524 0.0
H203 H 0.07693 0.1556 0.28893 0.0
H204 H 0.25817 0.08125 0.47645 0.0
H205 H 0.36447 0.11216 0.49333 0.0
H206 H 0.4745 0.27979 0.38536 0.0
H207 H 0.45944 0.35986 0.2763 0.0
H208 H 0.24126 0.34017 0.46876 0.0
H209 H 0.11629 0.40786 0.30152 0.0
H210 H 0.44635 0.12205 0.22628 0.0
H211 H 0.28964 0.13526 0.09754 0.0
C212 C 0.81182 0.19673 0.41921 0.0
C213 C 0.79348 0.16993 0.4769 0.0
C214 C 0.74086 0.19945 0.48073 0.0
C215 C 0.72947 0.2419 0.42514 0.0
N216 N 0.77113 0.24087 0.38535 0.0
Co217 Co 0.77103 0.296 0.2999 0.0
N218 N 0.69243 0.33858 0.30493 0.0
C219 C 0.65878 0.32511 0.35274 0.0
C220 C 0.60379 0.35485 0.33986 0.0
C221 C 0.60152 0.38884 0.27969 0.0
C222 C 0.65612 0.37912 0.25949 0.0
N223 N 0.77194 0.35263 0.21579 0.0
C224 C 0.72981 0.39409 0.17994 0.0
C225 C 0.75042 0.42548 0.12588 0.0
C226 C 0.8061 0.40093 0.12582 0.0
C227 C 0.81692 0.35699 0.18025 0.0
N228 N 0.84803 0.25174 0.29285 0.0
C229 C 0.88061 0.26385 0.2438 0.0
C230 C 0.93176 0.22727 0.25189 0.0
C231 C 0.93207 0.18934 0.30951 0.0
C232 C 0.88039 0.20446 0.33338 0.0
N233 N 0.73102 0.24159 0.25436 0.0
C234 C 0.67 0.1696 0.18617 0.0
C235 C 0.71303 0.20126 0.1594 0.0
C236 C 0.74328 0.23604 0.19432 0.0
C237 C 0.6589 0.17369 0.24822 0.0
C238 C 0.68934 0.2099 0.281 0.0
N239 N 0.81158 0.3504 0.34604 0.0
C240 C 0.89654 0.39978 0.36763 0.0
C241 C 0.87393 0.41799 0.41935 0.0
C242 C 0.81882 0.40354 0.43266 0.0
C243 C 0.78862 0.37007 0.39572 0.0
C244 C 0.86496 0.36652 0.33188 0.0
H245 H 0.74706 0.3601 0.40885 0.0
H246 H 0.88524 0.35385 0.29357 0.0
H247 H 0.77608 0.25858 0.17149 0.0
H248 H 0.6779 0.21207 0.32755 0.0
C249 C 0.67849 0.28096 0.40714 0.0
C250 C 0.86703 0.1766 0.39766 0.0
C251 C 0.66957 0.40485 0.19442 0.0
C252 C 0.86499 0.31376 0.19425 0.0
H253 H 0.81567 0.13253 0.51245 0.0
H254 H 0.71368 0.19042 0.51902 0.0
H255 H 0.56855 0.35009 0.36936 0.0
H256 H 0.56297 0.41576 0.25291 0.0
H257 H 0.72685 0.46111 0.08908 0.0
H258 H 0.83434 0.412 0.08893 0.0
H259 H 0.9659 0.22949 0.22084 0.0
H260 H 0.96751 0.15576 0.33236 0.0
H261 H 0.72365 0.19893 0.11175 0.0
H262 H 0.62569 0.15025 0.27083 0.0
H263 H 0.9389 0.41064 0.35522 0.0
H264 H 0.79931 0.4176 0.47183 0.0
C265 C 0.64717 0.72466 0.8136 0.0
C266 C 0.59372 0.71821 0.78226 0.0
C267 C 0.58573 0.75868 0.72534 0.0
C268 C 0.63448 0.78751 0.72499 0.0
N269 N 0.67329 0.76787 0.77823 0.0
Co270 Co 0.74949 0.7989 0.79724 0.0
N271 N 0.7363 0.86023 0.71488 0.0
C272 C 0.6872 0.87315 0.67281 0.0
C273 C 0.69095 0.91677 0.62015 0.0
C274 C 0.74603 0.93201 0.62857 0.0
C275 C 0.77306 0.89634 0.68587 0.0
N276 N 0.82706 0.82807 0.81447 0.0
C277 C 0.85643 0.86527 0.7751 0.0
C278 C 0.91215 0.86778 0.8038 0.0
C279 C 0.91827 0.83103 0.863 0.0
C280 C 0.86655 0.80764 0.86696 0.0
N281 N 0.76193 0.73901 0.88074 0.0
C282 C 0.80772 0.73164 0.92686 0.0
C283 C 0.80365 0.68894 0.98014 0.0
C284 C 0.75167 0.66828 0.96787 0.0
C285 C 0.72679 0.69987 0.90759 0.0
N286 N 0.78824 0.74157 0.75274 0.0
C287 C 0.84859 0.66694 0.68568 0.0
C288 C 0.86738 0.66688 0.74978 0.0
C289 C 0.83687 0.70421 0.78212 0.0
C290 C 0.79793 0.70374 0.6565 0.0
C291 C 0.76849 0.74005 0.6907 0.0
N292 N 0.71024 0.85629 0.8424 0.0
C293 C 0.70903 0.90485 0.9326 0.0
C294 C 0.64975 0.92447 0.91625 0.0
C295 C 0.62205 0.91228 0.86046 0.0
C296 C 0.65294 0.87916 0.82417 0.0
C297 C 0.73812 0.87084 0.89561 0.0
H298 H 0.62896 0.87196 0.78213 0.0
H299 H 0.78291 0.85613 0.91176 0.0
H300 H 0.854 0.70291 0.83052 0.0
H301 H 0.73024 0.7672 0.66568 0.0
C302 C 0.6423 0.83726 0.67899 0.0
C303 C 0.6695 0.69127 0.87843 0.0
C304 C 0.83435 0.89679 0.70932 0.0
C305 C 0.85486 0.76399 0.91768 0.0
H306 H 0.5628 0.6886 0.79948 0.0
H307 H 0.54788 0.76752 0.68959 0.0
H308 H 0.65856 0.93333 0.57889 0.0
H309 H 0.76483 0.96438 0.59529 0.0
H310 H 0.94574 0.89216 0.78365 0.0
H311 H 0.95665 0.82089 0.89806 0.0
H312 H 0.83484 0.67444 0.02279 0.0
H313 H 0.73399 0.63394 0.99983 0.0
H314 H 0.90657 0.63947 0.7745 0.0
H315 H 0.78096 0.70465 0.60732 0.0
H316 H 0.73263 0.91476 0.97456 0.0
H317 H 0.57636 0.92775 0.84522 0.0
C318 C 0.42296 0.5526 0.91573 0.0
C319 C 0.40472 0.52863 0.86374 0.0
C320 C 0.44163 0.47863 0.8674 0.0
C321 C 0.47936 0.47391 0.92191 0.0
N322 N 0.46834 0.51725 0.95414 0.0
Co323 Co 0.51142 0.52432 0.03786 0.0
N324 N 0.56865 0.45283 0.0406 0.0
C325 C 0.56878 0.41861 0.99651 0.0
C326 C 0.6097 0.37008 0.01262 0.0
C327 C 0.63735 0.37296 0.07073 0.0
C328 C 0.61243 0.42408 0.08667 0.0
N329 N 0.55448 0.53134 0.12161 0.0
C330 C 0.59973 0.49587 0.16013 0.0
C331 C 0.61783 0.5197 0.21227 0.0
C332 C 0.581 0.56977 0.20855 0.0
C333 C 0.54342 0.57465 0.15388 0.0
N334 N 0.45421 0.59584 0.03508 0.0
C335 C 0.45417 0.63014 0.0791 0.0
C336 C 0.41338 0.67877 0.06288 0.0
C337 C 0.3857 0.67586 0.00478 0.0
C338 C 0.41047 0.62462 0.98898 0.0
N339 N 0.45964 0.47257 0.0867 0.0
C340 C 0.38999 0.39744 0.15909 0.0
C341 C 0.40149 0.45076 0.17503 0.0
C342 C 0.43612 0.48738 0.13851 0.0
C343 C 0.41339 0.38248 0.10618 0.0
C344 C 0.44771 0.42031 0.07095 0.0
N345 N 0.5632 0.57608 0.989 0.0
C346 C 0.60948 0.66616 0.9695 0.0
C347 C 0.63265 0.65132 0.9164 0.0
C348 C 0.62106 0.59804 0.90043 0.0
C349 C 0.58652 0.56138 0.93703 0.0
C350 C 0.57528 0.62826 0.00485 0.0
H351 H 0.579 0.5215 0.92214 0.0
H352 H 0.55889 0.64245 0.04454 0.0
H353 H 0.44353 0.52733 0.15332 0.0
H354 H 0.46431 0.40601 0.03143 0.0
C355 C 0.52652 0.43018 0.94318 0.0
C356 C 0.39492 0.60858 0.92677 0.0
C357 C 0.62782 0.43995 0.14899 0.0
C358 C 0.49636 0.61847 0.13251 0.0
H359 H 0.36886 0.546 0.82638 0.0
H360 H 0.4413 0.44944 0.83398 0.0
H361 H 0.61678 0.33522 0.98661 0.0
H362 H 0.67058 0.33968 0.09913 0.0
H363 H 0.65357 0.50221 0.24974 0.0
H364 H 0.58126 0.59889 0.24204 0.0
H365 H 0.40637 0.71369 0.08883 0.0
H366 H 0.35254 0.7092 0.97631 0.0
H367 H 0.38382 0.46411 0.21557 0.0
H368 H 0.40533 0.34153 0.09214 0.0
H369 H 0.61763 0.70707 0.9836 0.0
H370 H 0.63854 0.58477 0.85975 0.0
C371 C 0.10422 0.53303 0.64681 0.0
C372 C 0.13161 0.50216 0.70631 0.0
C373 C 0.10845 0.44996 0.71938 0.0
C374 C 0.0686 0.45171 0.66724 0.0
N375 N 0.0655 0.50147 0.62103 0.0
Co376 Co 0.01147 0.52278 0.5384 0.0
N377 N 0.97328 0.44846 0.56046 0.0
C378 C 0.98597 0.40594 0.61483 0.0
C379 C 0.9553 0.35849 0.61518 0.0
C380 C 0.9215 0.37088 0.55723 0.0
C381 C 0.93328 0.42565 0.52471 0.0
N382 N 0.95751 0.54405 0.45572 0.0
C383 C 0.91888 0.51244 0.4299 0.0
C384 C 0.89155 0.54326 0.37035 0.0
C385 C 0.91468 0.59547 0.35727 0.0
C386 C 0.95446 0.59376 0.40946 0.0
N387 N 0.04959 0.59714 0.51638 0.0
C388 C 0.03674 0.63977 0.46211 0.0
C389 C 0.06739 0.68723 0.46176 0.0
C390 C 0.10132 0.67476 0.51962 0.0
C391 C 0.08966 0.61991 0.55208 0.0
N392 N 0.06885 0.48046 0.49495 0.0
C393 C 0.14001 0.4152 0.42749 0.0
C394 C 0.11516 0.47297 0.39979 0.0
C395 C 0.0805 0.50466 0.43423 0.0
C396 C 0.13046 0.39162 0.49055 0.0
C397 C 0.09516 0.42468 0.52307 0.0
N398 N 0.95407 0.56512 0.58186 0.0
C399 C 0.89188 0.65375 0.58566 0.0
C400 C 0.88275 0.63061 0.64897 0.0
C401 C 0.90816 0.57314 0.67716 0.0
C402 C 0.94288 0.5413 0.64288 0.0
C403 C 0.92727 0.6206 0.55334 0.0
H404 H 0.96097 0.49784 0.6672 0.0
H405 H 0.93323 0.64141 0.50578 0.0
H406 H 0.06282 0.54834 0.41025 0.0
H407 H 0.08882 0.40359 0.57042 0.0
C408 C 0.03056 0.40943 0.6622 0.0
C409 C 0.11521 0.59294 0.61803 0.0
C410 C 0.90794 0.45251 0.45865 0.0
C411 C 0.99231 0.63618 0.41463 0.0
H412 H 0.1641 0.5165 0.73763 0.0
H413 H 0.11825 0.41558 0.76261 0.0
H414 H 0.95878 0.31857 0.65218 0.0
H415 H 0.89283 0.34191 0.54022 0.0
H416 H 0.85911 0.52889 0.33899 0.0
H417 H 0.90489 0.62983 0.31403 0.0
H418 H 0.06387 0.72716 0.42477 0.0
H419 H 0.13004 0.7037 0.53659 0.0
H420 H 0.12226 0.49375 0.35156 0.0
H421 H 0.14857 0.34701 0.51423 0.0
H422 H 0.87337 0.69814 0.5616 0.0
H423 H 0.90143 0.55268 0.72564 0.0
loop_
_geom_bond_atom_site_label_1
_geom_bond_atom_site_label_2
_geom_bond_distance
_geom_bond_site_symmetry_2
_ccdc_geom_bond_type
C0 C1 1.443 . S
C0 N4 1.376 . S
C0 C38 1.389 . S
C1 C0 1.443 . S
C1 C2 1.340 . S
C1 H41 0.951 . S
C2 C1 1.340 . S
C2 C3 1.439 . S
C2 H42 0.950 . S
C3 C2 1.439 . S
C3 N4 1.374 . S
C3 C37 1.395 1_455 S
N4 C0 1.376 . S
N4 C3 1.374 . S
N4 Co5 2.004 1_565 S
Co5 N4 2.004 1_545 S
Co5 N6 1.989 1_455 S
Co5 N11 2.013 1_455 S
Co5 N16 2.001 1_545 S
Co5 N21 2.294 . S
Co5 N27 2.271 1_445 S
N6 Co5 1.989 1_655 S
N6 C7 1.376 1_545 S
N6 C10 1.383 . S
C7 N6 1.376 1_565 S
C7 C8 1.446 . S
C7 C37 1.391 . S
C8 C7 1.446 . S
C8 C9 1.339 1_565 S
C8 H43 0.949 . S
C9 C8 1.339 1_545 S
C9 C10 1.439 . S
C9 H44 0.950 . S
C10 N6 1.383 . S
C10 C9 1.439 . S
C10 C39 1.392 . S
N11 Co5 2.013 1_655 S
N11 C12 1.376 . S
N11 C15 1.374 . S
C12 N11 1.376 . S
C12 C13 1.443 . S
C12 C39 1.389 . S
C13 C12 1.443 . S
C13 C14 1.340 . S
C13 H45 0.951 . S
C14 C13 1.340 . S
C14 C15 1.439 . S
C14 H46 0.950 . S
C15 N11 1.374 . S
C15 C14 1.439 . S
C15 C40 1.395 1_655 S
N16 Co5 2.001 1_565 S
N16 C17 1.376 1_565 S
N16 C20 1.383 . S
C17 N16 1.376 1_545 S
C17 C18 1.446 . S
C17 C40 1.391 . S
C18 C17 1.446 . S
C18 C19 1.339 1_545 S
C18 H47 0.949 . S
C19 C18 1.339 1_565 S
C19 C20 1.439 . S
C19 H48 0.950 . S
C20 N16 1.383 . S
C20 C19 1.439 . S
C20 C38 1.392 . S
N21 Co5 2.294 . S
N21 C24 1.332 . S
N21 C26 1.332 . S
C22 C23 1.386 . S
C22 C25 1.388 . S
C23 C22 1.386 . S
C23 C24 1.382 . S
C23 H49 0.950 . S
C24 N21 1.332 . S
C24 C23 1.382 . S
C24 H35 0.952 . S
C25 C22 1.388 . S
C25 C26 1.382 . S
C25 H50 0.950 . S
C26 N21 1.332 . S
C26 C25 1.382 . S
C26 H36 0.948 . S
N27 Co5 2.271 1_665 S
N27 C31 1.332 . S
N27 C32 1.332 . S
C28 C29 1.388 . S
C28 C32 1.382 . S
C28 H51 0.950 . S
C29 C28 1.388 . S
C29 C30 1.386 . S
C30 C29 1.386 . S
C30 C31 1.382 . S
C30 H52 0.950 . S
C31 N27 1.332 . S
C31 C30 1.382 . S
C31 H33 0.952 . S
C32 N27 1.332 . S
C32 C28 1.382 . S
C32 H34 0.948 . S
H33 C31 0.952 . S
H34 C32 0.948 . S
H35 C24 0.952 . S
H36 C26 0.948 . S
C37 C3 1.395 1_655 S
C37 C7 1.391 . S
C38 C0 1.389 . S
C38 C20 1.392 . S
C39 C10 1.392 . S
C39 C12 1.389 . S
C40 C15 1.395 1_455 S
C40 C17 1.391 . S
H41 C1 0.951 . S
H42 C2 0.950 . S
H43 C8 0.949 . S
H44 C9 0.950 . S
H45 C13 0.951 . S
H46 C14 0.950 . S
H47 C18 0.949 . S
H48 C19 0.950 . S
H49 C23 0.950 . S
H50 C25 0.950 . S
H51 C28 0.950 . S
H52 C30 0.950 . S
C53 C54 1.443 . S
C53 N57 1.376 . S
C53 C91 1.389 . S
C54 C53 1.443 . S
C54 C55 1.340 . S
C54 H94 0.951 . S
C55 C54 1.340 . S
C55 C56 1.439 . S
C55 H95 0.950 . S
C56 C55 1.439 . S
C56 N57 1.374 . S
C56 C90 1.395 . S
N57 C53 1.376 . S
N57 C56 1.374 . S
N57 Co58 2.008 . S
Co58 N57 2.008 . S
Co58 N59 1.995 . S
Co58 N64 2.008 . S
Co58 N69 1.995 . S
Co58 N74 2.282 . S
Co58 N80 2.282 . S
N59 Co58 1.995 . S
N59 C60 1.376 . S
N59 C63 1.383 . S
C60 N59 1.376 . S
C60 C61 1.446 . S
C60 C90 1.391 . S
C61 C60 1.446 . S
C61 C62 1.339 . S
C61 H96 0.937 1_556 S
C62 C61 1.339 . S
C62 C63 1.439 . S
C62 H97 0.961 . S
C63 N59 1.383 . S
C63 C62 1.439 . S
C63 C92 1.392 . S
N64 Co58 2.008 . S
N64 C65 1.376 . S
N64 C68 1.374 . S
C65 N64 1.376 . S
C65 C66 1.443 . S
C65 C92 1.389 . S
C66 C65 1.443 . S
C66 C67 1.340 . S
C66 H98 0.951 . S
C67 C66 1.340 . S
C67 C68 1.439 . S
C67 H99 0.950 . S
C68 N64 1.374 . S
C68 C67 1.439 . S
C68 C93 1.395 . S
N69 Co58 1.995 . S
N69 C70 1.376 . S
N69 C73 1.383 . S
C70 N69 1.376 . S
C70 C71 1.446 . S
C70 C93 1.391 . S
C71 C70 1.446 . S
C71 C72 1.339 . S
C71 H100 0.949 . S
C72 C71 1.339 . S
C72 C73 1.439 . S
C72 H101 0.950 . S
C73 N69 1.383 . S
C73 C72 1.439 . S
C73 C91 1.392 . S
N74 Co58 2.282 . S
N74 C77 1.332 . S
N74 C79 1.332 . S
C75 C76 1.386 . S
C75 C78 1.388 . S
C76 C75 1.386 . S
C76 C77 1.382 . S
C76 H102 0.950 . S
C77 N74 1.332 . S
C77 C76 1.382 . S
C77 H88 0.952 . S
C78 C75 1.388 . S
C78 C79 1.382 . S
C78 H103 0.950 . S
C79 N74 1.332 . S
C79 C78 1.382 . S
C79 H89 0.948 . S
N80 Co58 2.282 . S
N80 C84 1.332 . S
N80 C85 1.332 . S
C81 C82 1.388 . S
C81 C85 1.382 . S
C81 H104 0.950 . S
C82 C81 1.388 . S
C82 C83 1.386 . S
C83 C82 1.386 . S
C83 C84 1.382 . S
C83 H105 0.950 . S
C84 N80 1.332 . S
C84 C83 1.382 . S
C84 H86 0.952 . S
C85 N80 1.332 . S
C85 C81 1.382 . S
C85 H87 0.948 . S
H86 C84 0.952 . S
H87 C85 0.948 . S
H88 C77 0.952 . S
H89 C79 0.948 . S
C90 C56 1.395 . S
C90 C60 1.391 . S
C91 C53 1.389 . S
C91 C73 1.392 . S
C92 C63 1.392 . S
C92 C65 1.389 . S
C93 C68 1.395 . S
C93 C70 1.391 . S
H94 C54 0.951 . S
H95 C55 0.950 . S
H96 C61 0.937 1_554 S
H97 C62 0.961 . S
H98 C66 0.951 . S
H99 C67 0.950 . S
H100 C71 0.949 . S
H101 C72 0.950 . S
H102 C76 0.950 . S
H103 C78 0.950 . S
H104 C81 0.950 . S
H105 C83 0.950 . S
C106 C107 1.443 1_554 S
C106 N110 1.376 1_554 S
C106 C144 1.389 . S
C107 C106 1.443 1_556 S
C107 C108 1.340 . S
C107 H147 0.951 1_556 S
C108 C107 1.340 . S
C108 C109 1.439 . S
C108 H148 0.950 . S
C109 C108 1.439 . S
C109 N110 1.374 . S
C109 C143 1.395 . S
N110 C106 1.376 1_556 S
N110 C109 1.374 . S
N110 Co111 2.009 1_556 S
Co111 N110 2.009 1_554 S
Co111 N112 1.985 1_554 S
Co111 N117 2.008 1_545 S
Co111 N122 2.004 . S
Co111 N127 2.277 1_544 S
Co111 N133 2.288 . S
N112 Co111 1.985 1_556 S
N112 C113 1.376 . S
N112 C116 1.383 . S
C113 N112 1.376 . S
C113 C114 1.446 . S
C113 C143 1.391 . S
C114 C113 1.446 . S
C114 C115 1.339 . S
C114 H149 0.949 . S
C115 C114 1.339 . S
C115 C116 1.439 . S
C115 H150 0.950 . S
C116 N112 1.383 . S
C116 C115 1.439 . S
C116 C145 1.392 1_545 S
N117 Co111 2.008 1_565 S
N117 C118 1.376 1_554 S
N117 C121 1.374 . S
C118 N117 1.376 1_556 S
C118 C119 1.443 1_556 S
C118 C145 1.389 . S
C119 C118 1.443 1_554 S
C119 C120 1.340 . S
C119 H151 0.951 1_554 S
C120 C119 1.340 . S
C120 C121 1.439 . S
C120 H152 0.950 . S
C121 N117 1.374 . S
C121 C120 1.439 . S
C121 C146 1.395 . S
N122 Co111 2.004 . S
N122 C123 1.376 1_545 S
N122 C126 1.383 . S
C123 N122 1.376 1_565 S
C123 C124 1.446 . S
C123 C146 1.391 . S
C124 C123 1.446 . S
C124 C125 1.339 1_565 S
C124 H153 0.949 . S
C125 C124 1.339 1_545 S
C125 C126 1.439 . S
C125 H154 0.950 . S
C126 N122 1.383 . S
C126 C125 1.439 . S
C126 C144 1.392 . S
N127 Co111 2.277 1_566 S
N127 C130 1.332 . S
N127 C132 1.332 1_565 S
C128 C129 1.386 . S
C128 C131 1.388 . S
C129 C128 1.386 . S
C129 C130 1.382 . S
C129 H155 0.950 . S
C130 N127 1.332 . S
C130 C129 1.382 . S
C130 H141 0.952 1_556 S
C131 C128 1.388 . S
C131 C132 1.382 1_565 S
C131 H156 0.950 . S
C132 N127 1.332 1_545 S
C132 C131 1.382 1_545 S
C132 H142 0.948 . S
N133 Co111 2.288 . S
N133 C137 1.332 . S
N133 C138 1.332 . S
C134 C135 1.388 . S
C134 C138 1.382 . S
C134 H157 0.950 . S
C135 C134 1.388 . S
C135 C136 1.386 . S
C136 C135 1.386 . S
C136 C137 1.382 . S
C136 H158 0.950 . S
C137 N133 1.332 . S
C137 C136 1.382 . S
C137 H139 0.952 1_554 S
C138 N133 1.332 . S
C138 C134 1.382 . S
C138 H140 0.948 . S
H139 C137 0.952 1_556 S
H140 C138 0.948 . S
H141 C130 0.952 1_554 S
H142 C132 0.948 . S
C143 C109 1.395 . S
C143 C113 1.391 . S
C144 C106 1.389 . S
C144 C126 1.392 . S
C145 C116 1.392 1_565 S
C145 C118 1.389 . S
C146 C121 1.395 . S
C146 C123 1.391 . S
H147 C107 0.951 1_554 S
H148 C108 0.950 . S
H149 C114 0.949 . S
H150 C115 0.950 . S
H151 C119 0.951 1_556 S
H152 C120 0.950 . S
H153 C124 0.949 . S
H154 C125 0.950 . S
H155 C129 0.950 . S
H156 C131 0.950 . S
H157 C134 0.950 . S
H158 C136 0.950 . S
C159 C160 1.443 . S
C159 N163 1.376 . S
C159 C197 1.389 . S
C160 C159 1.443 . S
C160 C161 1.340 . S
C160 H200 0.951 . S
C161 C160 1.340 . S
C161 C162 1.439 . S
C161 H201 0.950 . S
C162 C161 1.439 . S
C162 N163 1.374 . S
C162 C196 1.395 . S
N163 C159 1.376 . S
N163 C162 1.374 . S
N163 Co164 2.008 . S
Co164 N163 2.008 . S
Co164 N165 1.995 . S
Co164 N170 2.008 . S
Co164 N175 1.995 . S
Co164 N180 2.282 . S
Co164 N186 2.282 . S
N165 Co164 1.995 . S
N165 C166 1.376 . S
N165 C169 1.383 . S
C166 N165 1.376 . S
C166 C167 1.446 . S
C166 C196 1.391 . S
C167 C166 1.446 . S
C167 C168 1.339 . S
C167 H202 0.949 . S
C168 C167 1.339 . S
C168 C169 1.439 . S
C168 H203 0.950 . S
C169 N165 1.383 . S
C169 C168 1.439 . S
C169 C198 1.392 . S
N170 Co164 2.008 . S
N170 C171 1.376 . S
N170 C174 1.374 . S
C171 N170 1.376 . S
C171 C172 1.443 . S
C171 C198 1.389 . S
C172 C171 1.443 . S
C172 C173 1.340 . S
C172 H204 0.951 . S
C173 C172 1.340 . S
C173 C174 1.439 . S
C173 H205 0.950 . S
C174 N170 1.374 . S
C174 C173 1.439 . S
C174 C199 1.395 . S
N175 Co164 1.995 . S
N175 C176 1.376 . S
N175 C179 1.383 . S
C176 N175 1.376 . S
C176 C177 1.446 . S
C176 C199 1.391 . S
C177 C176 1.446 . S
C177 C178 1.339 . S
C177 H206 0.949 . S
C178 C177 1.339 . S
C178 C179 1.439 . S
C178 H207 0.950 . S
C179 N175 1.383 . S
C179 C178 1.439 . S
C179 C197 1.392 . S
N180 Co164 2.282 . S
N180 C183 1.332 . S
N180 C185 1.332 . S
C181 C182 1.386 . S
C181 C184 1.388 . S
C182 C181 1.386 . S
C182 C183 1.382 . S
C182 H208 0.950 . S
C183 N180 1.332 . S
C183 C182 1.382 . S
C183 H194 0.952 . S
C184 C181 1.388 . S
C184 C185 1.382 . S
C184 H209 0.950 . S
C185 N180 1.332 . S
C185 C184 1.382 . S
C185 H195 0.948 . S
N186 Co164 2.282 . S
N186 C190 1.332 . S
N186 C191 1.332 . S
C187 C188 1.388 . S
C187 C191 1.382 . S
C187 H210 0.950 . S
C188 C187 1.388 . S
C188 C189 1.386 . S
C189 C188 1.386 . S
C189 C190 1.382 . S
C189 H211 0.950 . S
C190 N186 1.332 . S
C190 C189 1.382 . S
C190 H192 0.952 . S
C191 N186 1.332 . S
C191 C187 1.382 . S
C191 H193 0.948 . S
H192 C190 0.952 . S
H193 C191 0.948 . S
H194 C183 0.952 . S
H195 C185 0.948 . S
C196 C162 1.395 . S
C196 C166 1.391 . S
C197 C159 1.389 . S
C197 C179 1.392 . S
C198 C169 1.392 . S
C198 C171 1.389 . S
C199 C174 1.395 . S
C199 C176 1.391 . S
H200 C160 0.951 . S
H201 C161 0.950 . S
H202 C167 0.949 . S
H203 C168 0.950 . S
H204 C172 0.951 . S
H205 C173 0.950 . S
H206 C177 0.949 . S
H207 C178 0.950 . S
H208 C182 0.950 . S
H209 C184 0.950 . S
H210 C187 0.950 . S
H211 C189 0.950 . S
C212 C213 1.443 . S
C212 N216 1.376 . S
C212 C250 1.389 . S
C213 C212 1.443 . S
C213 C214 1.340 . S
C213 H253 0.951 . S
C214 C213 1.340 . S
C214 C215 1.439 . S
C214 H254 0.950 . S
C215 C214 1.439 . S
C215 N216 1.374 . S
C215 C249 1.395 . S
N216 C212 1.376 . S
N216 C215 1.374 . S
N216 Co217 2.008 . S
Co217 N216 2.008 . S
Co217 N218 1.995 . S
Co217 N223 2.008 . S
Co217 N228 1.995 . S
Co217 N233 2.282 . S
Co217 N239 2.282 . S
N218 Co217 1.995 . S
N218 C219 1.376 . S
N218 C222 1.383 . S
C219 N218 1.376 . S
C219 C220 1.446 . S
C219 C249 1.391 . S
C220 C219 1.446 . S
C220 C221 1.339 . S
C220 H255 0.949 . S
C221 C220 1.339 . S
C221 C222 1.439 . S
C221 H256 0.950 . S
C222 N218 1.383 . S
C222 C221 1.439 . S
C222 C251 1.392 . S
N223 Co217 2.008 . S
N223 C224 1.376 . S
N223 C227 1.374 . S
C224 N223 1.376 . S
C224 C225 1.443 . S
C224 C251 1.389 . S
C225 C224 1.443 . S
C225 C226 1.340 . S
C225 H257 0.951 . S
C226 C225 1.340 . S
C226 C227 1.439 . S
C226 H258 0.950 . S
C227 N223 1.374 . S
C227 C226 1.439 . S
C227 C252 1.395 . S
N228 Co217 1.995 . S
N228 C229 1.376 . S
N228 C232 1.383 . S
C229 N228 1.376 . S
C229 C230 1.446 . S
C229 C252 1.391 . S
C230 C229 1.446 . S
C230 C231 1.339 . S
C230 H259 0.949 . S
C231 C230 1.339 . S
C231 C232 1.439 . S
C231 H260 0.950 . S
C232 N228 1.383 . S
C232 C231 1.439 . S
C232 C250 1.392 . S
N233 Co217 2.282 . S
N233 C236 1.332 . S
N233 C238 1.332 . S
C234 C235 1.386 . S
C234 C237 1.388 . S
C235 C234 1.386 . S
C235 C236 1.382 . S
C235 H261 0.950 . S
C236 N233 1.332 . S
C236 C235 1.382 . S
C236 H247 0.952 . S
C237 C234 1.388 . S
C237 C238 1.382 . S
C237 H262 0.950 . S
C238 N233 1.332 . S
C238 C237 1.382 . S
C238 H248 0.948 . S
N239 Co217 2.282 . S
N239 C243 1.332 . S
N239 C244 1.332 . S
C240 C241 1.388 . S
C240 C244 1.382 . S
C240 H263 0.950 . S
C241 C240 1.388 . S
C241 C242 1.386 . S
C242 C241 1.386 . S
C242 C243 1.382 . S
C242 H264 0.950 . S
C243 N239 1.332 . S
C243 C242 1.382 . S
C243 H245 0.952 . S
C244 N239 1.332 . S
C244 C240 1.382 . S
C244 H246 0.948 . S
H245 C243 0.952 . S
H246 C244 0.948 . S
H247 C236 0.952 . S
H248 C238 0.948 . S
C249 C215 1.395 . S
C249 C219 1.391 . S
C250 C212 1.389 . S
C250 C232 1.392 . S
C251 C222 1.392 . S
C251 C224 1.389 . S
C252 C227 1.395 . S
C252 C229 1.391 . S
H253 C213 0.951 . S
H254 C214 0.950 . S
H255 C220 0.949 . S
H256 C221 0.950 . S
H257 C225 0.951 . S
H258 C226 0.950 . S
H259 C230 0.949 . S
H260 C231 0.950 . S
H261 C235 0.950 . S
H262 C237 0.950 . S
H263 C240 0.950 . S
H264 C242 0.950 . S
C265 C266 1.443 . S
C265 N269 1.376 . S
C265 C303 1.389 . S
C266 C265 1.443 . S
C266 C267 1.340 . S
C266 H306 0.951 . S
C267 C266 1.340 . S
C267 C268 1.439 . S
C267 H307 0.950 . S
C268 C267 1.439 . S
C268 N269 1.374 . S
C268 C302 1.395 . S
N269 C265 1.376 . S
N269 C268 1.374 . S
N269 Co270 2.008 . S
Co270 N269 2.008 . S
Co270 N271 1.995 . S
Co270 N276 2.008 . S
Co270 N281 1.995 . S
Co270 N286 2.282 . S
Co270 N292 2.282 . S
N271 Co270 1.995 . S
N271 C272 1.376 . S
N271 C275 1.383 . S
C272 N271 1.376 . S
C272 C273 1.446 . S
C272 C302 1.391 . S
C273 C272 1.446 . S
C273 C274 1.339 . S
C273 H308 0.949 . S
C274 C273 1.339 . S
C274 C275 1.439 . S
C274 H309 0.950 . S
C275 N271 1.383 . S
C275 C274 1.439 . S
C275 C304 1.392 . S
N276 Co270 2.008 . S
N276 C277 1.376 . S
N276 C280 1.374 . S
C277 N276 1.376 . S
C277 C278 1.443 . S
C277 C304 1.389 . S
C278 C277 1.443 . S
C278 C279 1.340 . S
C278 H310 0.951 . S
C279 C278 1.340 . S
C279 C280 1.439 . S
C279 H311 0.950 . S
C280 N276 1.374 . S
C280 C279 1.439 . S
C280 C305 1.395 . S
N281 Co270 1.995 . S
N281 C282 1.376 . S
N281 C285 1.383 . S
C282 N281 1.376 . S
C282 C283 1.446 . S
C282 C305 1.391 . S
C283 C282 1.446 . S
C283 C284 1.339 . S
C283 H312 0.949 1_556 S
C284 C283 1.339 . S
C284 C285 1.439 . S
C284 H313 0.950 . S
C285 N281 1.383 . S
C285 C284 1.439 . S
C285 C303 1.392 . S
N286 Co270 2.282 . S
N286 C289 1.332 . S
N286 C291 1.332 . S
C287 C288 1.386 . S
C287 C290 1.388 . S
C288 C287 1.386 . S
C288 C289 1.382 . S
C288 H314 0.950 . S
C289 N286 1.332 . S
C289 C288 1.382 . S
C289 H300 0.952 . S
C290 C287 1.388 . S
C290 C291 1.382 . S
C290 H315 0.950 . S
C291 N286 1.332 . S
C291 C290 1.382 . S
C291 H301 0.948 . S
N292 Co270 2.282 . S
N292 C296 1.332 . S
N292 C297 1.332 . S
C293 C294 1.388 . S
C293 C297 1.382 . S
C293 H316 0.950 . S
C294 C293 1.388 . S
C294 C295 1.386 . S
C295 C294 1.386 . S
C295 C296 1.382 . S
C295 H317 0.950 . S
C296 N292 1.332 . S
C296 C295 1.382 . S
C296 H298 0.952 . S
C297 N292 1.332 . S
C297 C293 1.382 . S
C297 H299 0.948 . S
H298 C296 0.952 . S
H299 C297 0.948 . S
H300 C289 0.952 . S
H301 C291 0.948 . S
C302 C268 1.395 . S
C302 C272 1.391 . S
C303 C265 1.389 . S
C303 C285 1.392 . S
C304 C275 1.392 . S
C304 C277 1.389 . S
C305 C280 1.395 . S
C305 C282 1.391 . S
H306 C266 0.951 . S
H307 C267 0.950 . S
H308 C273 0.949 . S
H309 C274 0.950 . S
H310 C278 0.951 . S
H311 C279 0.950 . S
H312 C283 0.949 1_554 S
H313 C284 0.950 . S
H314 C288 0.950 . S
H315 C290 0.950 . S
H316 C293 0.950 . S
H317 C295 0.950 . S
C318 C319 1.443 . S
C318 N322 1.376 . S
C318 C356 1.389 . S
C319 C318 1.443 . S
C319 C320 1.340 . S
C319 H359 0.951 . S
C320 C319 1.340 . S
C320 C321 1.439 . S
C320 H360 0.950 . S
C321 C320 1.439 . S
C321 N322 1.374 . S
C321 C355 1.395 . S
N322 C318 1.376 . S
N322 C321 1.374 . S
N322 Co323 2.008 1_556 S
Co323 N322 2.008 1_554 S
Co323 N324 1.995 . S
Co323 N329 2.008 . S
Co323 N334 1.995 . S
Co323 N339 2.282 . S
Co323 N345 2.282 . S
N324 Co323 1.995 . S
N324 C325 1.376 1_554 S
N324 C328 1.383 . S
C325 N324 1.376 1_556 S
C325 C326 1.446 1_556 S
C325 C355 1.391 . S
C326 C325 1.446 1_554 S
C326 C327 1.339 . S
C326 H361 0.949 1_554 S
C327 C326 1.339 . S
C327 C328 1.439 . S
C327 H362 0.950 . S
C328 N324 1.383 . S
C328 C327 1.439 . S
C328 C357 1.392 . S
N329 Co323 2.008 . S
N329 C330 1.376 . S
N329 C333 1.374 . S
C330 N329 1.376 . S
C330 C331 1.443 . S
C330 C357 1.389 . S
C331 C330 1.443 . S
C331 C332 1.340 . S
C331 H363 0.951 . S
C332 C331 1.340 . S
C332 C333 1.439 . S
C332 H364 0.950 . S
C333 N329 1.374 . S
C333 C332 1.439 . S
C333 C358 1.395 . S
N334 Co323 1.995 . S
N334 C335 1.376 . S
N334 C338 1.383 . S
C335 N334 1.376 . S
C335 C336 1.446 . S
C335 C358 1.391 . S
C336 C335 1.446 . S
C336 C337 1.339 . S
C336 H365 0.949 . S
C337 C336 1.339 . S
C337 C338 1.439 . S
C337 H366 0.950 . S
C338 N334 1.383 . S
C338 C337 1.439 . S
C338 C356 1.392 1_554 S
N339 Co323 2.282 . S
N339 C342 1.332 . S
N339 C344 1.332 . S
C340 C341 1.386 . S
C340 C343 1.388 . S
C341 C340 1.386 . S
C341 C342 1.382 . S
C341 H367 0.950 . S
C342 N339 1.332 . S
C342 C341 1.382 . S
C342 H353 0.952 . S
C343 C340 1.388 . S
C343 C344 1.382 . S
C343 H368 0.950 . S
C344 N339 1.332 . S
C344 C343 1.382 . S
C344 H354 0.948 . S
N345 Co323 2.282 . S
N345 C349 1.332 1_554 S
N345 C350 1.332 . S
C346 C347 1.388 . S
C346 C350 1.382 1_556 S
C346 H369 0.950 . S
C347 C346 1.388 . S
C347 C348 1.386 . S
C348 C347 1.386 . S
C348 C349 1.382 . S
C348 H370 0.950 . S
C349 N345 1.332 1_556 S
C349 C348 1.382 . S
C349 H351 0.952 . S
C350 N345 1.332 . S
C350 C346 1.382 1_554 S
C350 H352 0.948 . S
H351 C349 0.952 . S
H352 C350 0.948 . S
H353 C342 0.952 . S
H354 C344 0.948 . S
C355 C321 1.395 . S
C355 C325 1.391 . S
C356 C318 1.389 . S
C356 C338 1.392 1_556 S
C357 C328 1.392 . S
C357 C330 1.389 . S
C358 C333 1.395 . S
C358 C335 1.391 . S
H359 C319 0.951 . S
H360 C320 0.950 . S
H361 C326 0.949 1_556 S
H362 C327 0.950 . S
H363 C331 0.951 . S
H364 C332 0.950 . S
H365 C336 0.949 . S
H366 C337 0.950 . S
H367 C341 0.950 . S
H368 C343 0.950 . S
H369 C346 0.950 . S
H370 C348 0.950 . S
C371 C372 1.443 . S
C371 N375 1.376 . S
C371 C409 1.389 . S
C372 C371 1.443 . S
C372 C373 1.340 . S
C372 H412 0.951 . S
C373 C372 1.340 . S
C373 C374 1.439 . S
C373 H413 0.950 . S
C374 C373 1.439 . S
C374 N375 1.374 . S
C374 C408 1.395 . S
N375 C371 1.376 . S
N375 C374 1.374 . S
N375 Co376 2.008 . S
Co376 N375 2.008 . S
Co376 N377 1.995 1_455 S
Co376 N382 2.008 1_455 S
Co376 N387 1.995 . S
Co376 N392 2.282 . S
Co376 N398 2.282 1_455 S
N377 Co376 1.995 1_655 S
N377 C378 1.376 . S
N377 C381 1.383 . S
C378 N377 1.376 . S
C378 C379 1.446 . S
C378 C408 1.391 1_655 S
C379 C378 1.446 . S
C379 C380 1.339 . S
C379 H414 0.949 . S
C380 C379 1.339 . S
C380 C381 1.439 . S
C380 H415 0.950 . S
C381 N377 1.383 . S
C381 C380 1.439 . S
C381 C410 1.392 . S
N382 Co376 2.008 1_655 S
N382 C383 1.376 . S
N382 C386 1.374 . S
C383 N382 1.376 . S
C383 C384 1.443 . S
C383 C410 1.389 . S
C384 C383 1.443 . S
C384 C385 1.340 . S
C384 H416 0.951 . S
C385 C384 1.340 . S
C385 C386 1.439 . S
C385 H417 0.950 . S
C386 N382 1.374 . S
C386 C385 1.439 . S
C386 C411 1.395 1_655 S
N387 Co376 1.995 . S
N387 C388 1.376 . S
N387 C391 1.383 . S
C388 N387 1.376 . S
C388 C389 1.446 . S
C388 C411 1.391 . S
C389 C388 1.446 . S
C389 C390 1.339 . S
C389 H418 0.949 . S
C390 C389 1.339 . S
C390 C391 1.439 . S
C390 H419 0.950 . S
C391 N387 1.383 . S
C391 C390 1.439 . S
C391 C409 1.392 . S
N392 Co376 2.282 . S
N392 C395 1.332 . S
N392 C397 1.332 . S
C393 C394 1.386 . S
C393 C396 1.388 . S
C394 C393 1.386 . S
C394 C395 1.382 . S
C394 H420 0.950 . S
C395 N392 1.332 . S
C395 C394 1.382 . S
C395 H406 0.952 . S
C396 C393 1.388 . S
C396 C397 1.382 . S
C396 H421 0.950 . S
C397 N392 1.332 . S
C397 C396 1.382 . S
C397 H407 0.948 . S
N398 Co376 2.282 1_655 S
N398 C402 1.332 . S
N398 C403 1.332 . S
C399 C400 1.388 . S
C399 C403 1.382 . S
C399 H422 0.950 . S
C400 C399 1.388 . S
C400 C401 1.386 . S
C401 C400 1.386 . S
C401 C402 1.382 . S
C401 H423 0.950 . S
C402 N398 1.332 . S
C402 C401 1.382 . S
C402 H404 0.952 . S
C403 N398 1.332 . S
C403 C399 1.382 . S
C403 H405 0.948 . S
H404 C402 0.952 . S
H405 C403 0.948 . S
H406 C395 0.952 . S
H407 C397 0.948 . S
C408 C374 1.395 . S
C408 C378 1.391 1_455 S
C409 C371 1.389 . S
C409 C391 1.392 . S
C410 C381 1.392 . S
C410 C383 1.389 . S
C411 C386 1.395 1_455 S
C411 C388 1.391 . S
H412 C372 0.951 . S
H413 C373 0.950 . S
H414 C379 0.949 . S
H415 C380 0.950 . S
H416 C384 0.951 . S
H417 C385 0.950 . S
H418 C389 0.949 . S
H419 C390 0.950 . S
H420 C394 0.950 . S
H421 C396 0.950 . S
H422 C399 0.950 . S
H423 C401 0.950 . S
C22 C198 1.776 . S
C38 C91 1.738 . S
C128 C75 1.462 . S
C188 C144 1.633 . S
C29 C304 1.828 . S
C39 C250 1.810 . S
C234 C135 1.357 . S
C145 C294 1.480 . S
C347 C303 1.594 . S
C251 C357 1.864 . S
C241 C410 1.672 . S
C287 C400 1.292 . S
C340 C197 1.629 . S
C92 C356 1.889 . S
C82 C409 1.647 . S
C181 C393 1.261 . S
