# Generated by pormake.
# Topology ure, (4)-cn, num edge types: 1
# Building blocks:
#     Node 0, Type 0, BuildingBlock: CEKHIL_clean_sbu_0, # of connection points: 4
#     Node 1, Type 0, BuildingBlock: CEKHIL_clean_sbu_0, # of connection points: 4
#     Node 2, Type 0, BuildingBlock: CEKHIL_clean_sbu_0, # of connection points: 4
#     Node 3, Type 0, BuildingBlock: CEKHIL_clean_sbu_0, # of connection points: 4
#     Node 4, Type 0, BuildingBlock: CEKHIL_clean_sbu_0, # of connection points: 4
#     Node 5, Type 0, BuildingBlock: CEKHIL_clean_sbu_0, # of connection points: 4
#     Node 6, Type 0, BuildingBlock: CEKHIL_clean_sbu_0, # of connection points: 4
#     Node 7, Type 0, BuildingBlock: CEKHIL_clean_sbu_0, # of connection points: 4
#     Node 8, Type 0, BuildingBlock: CEKHIL_clean_sbu_0, # of connection points: 4
#     Node 9, Type 0, BuildingBlock: CEKHIL_clean_sbu_0, # of connection points: 4
#     Node 10, Type 0, BuildingBlock: CEKHIL_clean_sbu_0, # of connection points: 4
#     Node 11, Type 0, BuildingBlock: CEKHIL_clean_sbu_0, # of connection points: 4
#     Node 12, Type 0, BuildingBlock: CEKHIL_clean_sbu_0, # of connection points: 4
#     Node 13, Type 0, BuildingBlock: CEKHIL_clean_sbu_0, # of connection points: 4
#     Node 14, Type 0, BuildingBlock: CEKHIL_clean_sbu_0, # of connection points: 4
#     Node 15, Type 0, BuildingBlock: CEKHIL_clean_sbu_0, # of connection points: 4
#     Edge 16, Type (0, 0), BuildingBlock: TEMPAE_clean_linker_10, # of connection points: 2
#     Edge 17, Type (0, 0), BuildingBlock: TEMPAE_clean_linker_10, # of connection points: 2
#     Edge 18, Type (0, 0), BuildingBlock: TEMPAE_clean_linker_10, # of connection points: 2
#     Edge 19, Type (0, 0), BuildingBlock: TEMPAE_clean_linker_10, # of connection points: 2
#     Edge 20, Type (0, 0), BuildingBlock: TEMPAE_clean_linker_10, # of connection points: 2
#     Edge 21, Type (0, 0), BuildingBlock: TEMPAE_clean_linker_10, # of connection points: 2
#     Edge 22, Type (0, 0), BuildingBlock: TEMPAE_clean_linker_10, # of connection points: 2
#     Edge 23, Type (0, 0), BuildingBlock: TEMPAE_clean_linker_10, # of connection points: 2
#     Edge 24, Type (0, 0), BuildingBlock: TEMPAE_clean_linker_10, # of connection points: 2
#     Edge 25, Type (0, 0), BuildingBlock: TEMPAE_clean_linker_10, # of connection points: 2
#     Edge 26, Type (0, 0), BuildingBlock: TEMPAE_clean_linker_10, # of connection points: 2
#     Edge 27, Type (0, 0), BuildingBlock: TEMPAE_clean_linker_10, # of connection points: 2
#     Edge 28, Type (0, 0), BuildingBlock: TEMPAE_clean_linker_10, # of connection points: 2
#     Edge 29, Type (0, 0), BuildingBlock: TEMPAE_clean_linker_10, # of connection points: 2
#     Edge 30, Type (0, 0), BuildingBlock: TEMPAE_clean_linker_10, # of connection points: 2
#     Edge 31, Type (0, 0), BuildingBlock: TEMPAE_clean_linker_10, # of connection points: 2
#     Edge 32, Type (0, 0), BuildingBlock: TEMPAE_clean_linker_10, # of connection points: 2
#     Edge 33, Type (0, 0), BuildingBlock: TEMPAE_clean_linker_10, # of connection points: 2
#     Edge 34, Type (0, 0), BuildingBlock: TEMPAE_clean_linker_10, # of connection points: 2
#     Edge 35, Type (0, 0), BuildingBlock: TEMPAE_clean_linker_10, # of connection points: 2
#     Edge 36, Type (0, 0), BuildingBlock: TEMPAE_clean_linker_10, # of connection points: 2
#     Edge 37, Type (0, 0), BuildingBlock: TEMPAE_clean_linker_10, # of connection points: 2
#     Edge 38, Type (0, 0), BuildingBlock: TEMPAE_clean_linker_10, # of connection points: 2
#     Edge 39, Type (0, 0), BuildingBlock: TEMPAE_clean_linker_10, # of connection points: 2
#     Edge 40, Type (0, 0), BuildingBlock: TEMPAE_clean_linker_10, # of connection points: 2
#     Edge 41, Type (0, 0), BuildingBlock: TEMPAE_clean_linker_10, # of connection points: 2
#     Edge 42, Type (0, 0), BuildingBlock: TEMPAE_clean_linker_10, # of connection points: 2
#     Edge 43, Type (0, 0), BuildingBlock: TEMPAE_clean_linker_10, # of connection points: 2
#     Edge 44, Type (0, 0), BuildingBlock: TEMPAE_clean_linker_10, # of connection points: 2
#     Edge 45, Type (0, 0), BuildingBlock: TEMPAE_clean_linker_10, # of connection points: 2
#     Edge 46, Type (0, 0), BuildingBlock: TEMPAE_clean_linker_10, # of connection points: 2
#     Edge 47, Type (0, 0), BuildingBlock: TEMPAE_clean_linker_10, # of connection points: 2
# Relax obj value: 0.224
# Max RMSD: 0.160
# Mean RMSD: 0.160
data_MOF--net-ure--node1-CEKHIL_clean_sbu_0--edge1-TEMPAE_clean_linker_10
_symmetry_space_group_name_H-M    P1
_symmetry_Int_Tables_number       1
_symmetry_cell_setting            triclinic
loop_
_symmetry_equiv_pos_as_xyz
'x, y, z'
_cell_length_a     34.506835
_cell_length_b     29.303134
_cell_length_c     29.299869
_cell_angle_alpha  90.028018
_cell_angle_beta   90.013452
_cell_angle_gamma 89.963307
loop_
_atom_site_label
_atom_site_type_symbol
_atom_site_fract_x
_atom_site_fract_y
_atom_site_fract_z
_atom_type_partial_charge
Co0 Co 0.28127 0.23783 0.27292 0.0
O1 O 0.22727 0.22385 0.26193 0.0
O2 O 0.27284 0.21831 0.20966 0.0
C3 C 0.28447 0.19905 0.33972 0.0
O4 O 0.34077 0.24734 0.27309 0.0
Co5 Co 0.30425 0.29302 0.36052 0.0
O6 O 0.35779 0.28055 0.33966 0.0
C7 C 0.2654 0.33909 0.28403 0.0
C8 C 0.23659 0.21247 0.22066 0.0
C9 C 0.3666 0.26321 0.30107 0.0
O10 O 0.27219 0.3048 0.25736 0.0
O11 O 0.27134 0.33817 0.32712 0.0
O12 O 0.28781 0.17708 0.30139 0.0
O13 O 0.27655 0.2417 0.33604 0.0
Co14 Co 0.99254 0.02047 0.48314 0.0
O15 O 0.0476 0.01148 0.47368 0.0
O16 O 1.00376 0.95757 0.46509 0.0
C17 C 0.99004 0.08673 0.44343 0.0
O18 O 0.93282 0.01754 0.48748 0.0
Co19 Co 0.96081 0.10705 0.53345 0.0
O20 O 0.91007 0.0864 0.50928 0.0
C21 C 0.99915 0.0334 0.58555 0.0
C22 C 0.03991 0.96984 0.46178 0.0
C23 C 0.90473 0.04589 0.49482 0.0
O24 O 0.99779 0.00609 0.55086 0.0
O25 O 0.98986 0.07565 0.58364 0.0
O26 O 0.98908 0.04807 0.42172 0.0
O27 O 0.9948 0.08391 0.48683 0.0
Co28 Co 0.24168 0.7661 0.77682 0.0
O29 O 0.2964 0.77597 0.76612 0.0
O30 O 0.25142 0.78265 0.71318 0.0
C31 C 0.24002 0.80736 0.84219 0.0
O32 O 0.18195 0.76077 0.77579 0.0
Co33 Co 0.21274 0.71721 0.86549 0.0
O34 O 0.16146 0.74093 0.84616 0.0
C35 C 0.25039 0.66435 0.79192 0.0
C36 C 0.28781 0.78651 0.72437 0.0
C37 C 0.15475 0.75411 0.80547 0.0
O38 O 0.24749 0.69824 0.76386 0.0
O39 O 0.2422 0.66712 0.83444 0.0
O40 O 0.23805 0.82814 0.80309 0.0
O41 O 0.24533 0.76401 0.84017 0.0
Co42 Co 0.52599 0.98042 0.98436 0.0
O43 O 0.47126 0.98952 0.97258 0.0
O44 O 0.51536 0.04361 0.96668 0.0
C45 C 0.52928 0.91441 0.94414 0.0
O46 O 0.58564 0.98309 0.99107 0.0
Co47 Co 0.5561 0.8933 0.03497 0.0
O48 O 0.60729 0.91345 0.01173 0.0
C49 C 0.51686 0.96679 0.08645 0.0
C50 C 0.47937 0.03128 0.96172 0.0
C51 C 0.61336 0.95421 0.99842 0.0
O52 O 0.51895 0.99427 0.05198 0.0
O53 O 0.52615 0.92454 0.08451 0.0
O54 O 0.53106 0.95324 0.92283 0.0
O55 O 0.52343 0.91699 0.98736 0.0
Co56 Co 0.28428 0.7697 0.22507 0.0
O57 O 0.23009 0.78333 0.2353 0.0
O58 O 0.27478 0.7864 0.28885 0.0
C59 C 0.28889 0.81126 0.16014 0.0
O60 O 0.34374 0.76009 0.22618 0.0
Co61 Co 0.3091 0.71835 0.13582 0.0
O62 O 0.36219 0.72986 0.15875 0.0
C63 C 0.26839 0.66917 0.20883 0.0
C64 C 0.23872 0.7928 0.27728 0.0
C65 C 0.37017 0.74552 0.1983 0.0
O66 O 0.27483 0.70211 0.23728 0.0
O67 O 0.27518 0.6721 0.16601 0.0
O68 O 0.29143 0.83164 0.19943 0.0
O69 O 0.28084 0.76855 0.16178 0.0
Co70 Co 0.52973 0.0195 0.52007 0.0
O71 O 0.4753 0.00875 0.53133 0.0
O72 O 0.52006 0.95528 0.53473 0.0
C73 C 0.53243 0.08284 0.56407 0.0
O74 O 0.58931 0.01879 0.51281 0.0
Co75 Co 0.55713 0.11008 0.47392 0.0
O76 O 0.60893 0.09012 0.49541 0.0
C77 C 0.51942 0.03821 0.41883 0.0
C78 C 0.48388 0.9667 0.54044 0.0
C79 C 0.61619 0.04898 0.50668 0.0
O80 O 0.52242 0.00915 0.45187 0.0
O81 O 0.5277 0.08061 0.42285 0.0
O82 O 0.53506 0.04289 0.58297 0.0
O83 O 0.52581 0.08296 0.52092 0.0
Co84 Co 0.23532 0.23313 0.72685 0.0
O85 O 0.28947 0.22075 0.7394 0.0
O86 O 0.24285 0.214 0.79025 0.0
C87 C 0.23368 0.19395 0.66022 0.0
O88 O 0.17571 0.24154 0.72569 0.0
Co89 Co 0.21213 0.287 0.6385 0.0
O90 O 0.15851 0.27633 0.65999 0.0
C91 C 0.2504 0.33406 0.71477 0.0
C92 C 0.2795 0.20952 0.78053 0.0
C93 C 0.14987 0.25831 0.69828 0.0
O94 O 0.24317 0.30034 0.74196 0.0
O95 O 0.24512 0.33223 0.67159 0.0
O96 O 0.23021 0.17208 0.69857 0.0
O97 O 0.2408 0.23678 0.6638 0.0
Co98 Co 0.98944 0.98159 0.02015 0.0
O99 O 0.04462 0.98995 0.02938 0.0
O100 O 1.00143 0.04487 0.03608 0.0
C101 C 0.98609 0.91677 0.06207 0.0
O102 O 0.92968 0.98546 0.01572 0.0
Co103 Co 0.95659 0.89385 0.97294 0.0
O104 O 0.90625 0.91611 0.9968 0.0
C105 C 0.99655 0.96453 0.91847 0.0
C106 C 0.03744 0.03212 0.03983 0.0
C107 C 0.9013 0.9572 0.00975 0.0
O108 O 0.99504 0.99335 0.95192 0.0
O109 O 0.98675 0.92256 0.92214 0.0
O110 O 0.98561 0.95612 0.08251 0.0
O111 O 0.99091 0.91807 0.01863 0.0
Co112 Co 0.77358 0.25955 0.72996 0.0
O113 O 0.71967 0.27262 0.74268 0.0
O114 O 0.76664 0.282 0.79257 0.0
C115 C 0.77397 0.29536 0.66135 0.0
O116 O 0.83327 0.25162 0.72741 0.0
Co117 Co 0.79487 0.20124 0.6438 0.0
O118 O 0.84846 0.21898 0.66003 0.0
C119 C 0.75974 0.15741 0.72391 0.0
C120 C 0.72995 0.28642 0.78288 0.0
C121 C 0.85843 0.23722 0.6978 0.0
O122 O 0.76642 0.19303 0.74886 0.0
O123 O 0.76437 0.15663 0.68061 0.0
O124 O 0.77809 0.31908 0.69851 0.0
O125 O 0.76693 0.25277 0.66736 0.0
Co126 Co 0.02937 0.53006 0.01746 0.0
O127 O 0.97515 0.51858 0.02959 0.0
O128 O 0.02092 0.46667 0.03641 0.0
C129 C 0.03142 0.59677 0.0566 0.0
O130 O 0.08907 0.53098 0.00972 0.0
Co131 Co 0.05235 0.618 0.96298 0.0
O132 O 0.10567 0.59879 0.97904 0.0
C133 C 0.01538 0.54099 0.91577 0.0
C134 C 0.98443 0.47728 0.0409 0.0
C135 C 0.11483 0.56012 0.99594 0.0
O136 O 0.02182 0.51449 0.95024 0.0
O137 O 0.02093 0.58414 0.91673 0.0
O138 O 0.03447 0.5584 0.07852 0.0
O139 O 0.02426 0.59311 0.01375 0.0
Co140 Co 0.7457 0.73654 0.22926 0.0
O141 O 0.79972 0.7218 0.23925 0.0
O142 O 0.75505 0.71804 0.29268 0.0
C143 C 0.74072 0.69642 0.16329 0.0
O144 O 0.68631 0.74725 0.23013 0.0
Co145 Co 0.72244 0.79051 0.14099 0.0
O146 O 0.66908 0.779 0.16294 0.0
C147 C 0.76249 0.83747 0.21603 0.0
C148 C 0.79105 0.71137 0.28095 0.0
C149 C 0.66041 0.76283 0.20206 0.0
O150 O 0.75583 0.8037 0.24338 0.0
O151 O 0.75603 0.83583 0.17306 0.0
O152 O 0.73782 0.67533 0.20213 0.0
O153 O 0.74941 0.73893 0.166 0.0
Co154 Co 0.03205 0.4726 0.48576 0.0
O155 O 0.97796 0.48326 0.47162 0.0
O156 O 0.02305 0.5362 0.46777 0.0
C157 C 0.0364 0.40679 0.44547 0.0
O158 O 0.09149 0.47301 0.49575 0.0
Co159 Co 0.0557 0.38414 0.53919 0.0
O160 O 0.10909 0.40677 0.52932 0.0
C161 C 0.01585 0.45898 0.5867 0.0
C162 C 0.98691 0.52495 0.46144 0.0
C163 C 0.11746 0.44554 0.51219 0.0
O164 O 0.02249 0.48647 0.55304 0.0
O165 O 0.02214 0.416 0.58474 0.0
O166 O 0.03926 0.44564 0.42439 0.0
O167 O 0.0281 0.40935 0.4881 0.0
Co168 Co 0.4909 0.53135 0.98385 0.0
O169 O 0.54494 0.52144 0.96882 0.0
O170 O 0.50074 0.46731 0.96825 0.0
C171 C 0.48473 0.59546 0.94124 0.0
O172 O 0.43165 0.52972 0.99525 0.0
Co173 Co 0.46629 0.6213 0.03424 0.0
O174 O 0.41325 0.59671 0.02667 0.0
C175 C 0.50827 0.54952 0.08381 0.0
C176 C 0.53655 0.47914 0.9606 0.0
C177 C 0.4054 0.55703 0.01132 0.0
O178 O 0.50172 0.52049 0.0514 0.0
O179 O 0.50119 0.59222 0.08023 0.0
O180 O 0.48221 0.55577 0.92164 0.0
O181 O 0.49369 0.5947 0.98373 0.0
Co182 Co 0.77904 0.72542 0.77834 0.0
O183 O 0.72421 0.71593 0.76642 0.0
O184 O 0.77029 0.709 0.71469 0.0
C185 C 0.78032 0.68333 0.84313 0.0
O186 O 0.83877 0.73083 0.7774 0.0
Co187 Co 0.80883 0.77212 0.86782 0.0
O188 O 0.8606 0.75158 0.84693 0.0
C189 C 0.76973 0.82639 0.79605 0.0
C190 C 0.73372 0.70545 0.72488 0.0
C191 C 0.86652 0.73846 0.80609 0.0
O192 O 0.77305 0.79359 0.76667 0.0
O193 O 0.7782 0.82214 0.83838 0.0
O194 O 0.78257 0.66305 0.80378 0.0
O195 O 0.77516 0.72672 0.84181 0.0
Co196 Co 0.7428 0.26894 0.27316 0.0
O197 O 0.79673 0.28314 0.26254 0.0
O198 O 0.75182 0.286 0.20926 0.0
C199 C 0.73844 0.3106 0.33796 0.0
O200 O 0.68339 0.2586 0.27322 0.0
Co201 Co 0.72022 0.21715 0.36282 0.0
O202 O 0.6667 0.22913 0.3416 0.0
C203 C 0.75952 0.16828 0.28838 0.0
C204 C 0.78787 0.29281 0.22072 0.0
C205 C 0.65767 0.24436 0.3022 0.0
O206 O 0.75273 0.20151 0.26044 0.0
O207 O 0.75328 0.17073 0.33135 0.0
O208 O 0.73517 0.33077 0.29869 0.0
O209 O 0.74715 0.26803 0.33642 0.0
Co210 Co 0.4932 0.47555 0.51405 0.0
O211 O 0.54655 0.49091 0.52824 0.0
O212 O 0.49703 0.53763 0.53796 0.0
C213 C 0.49505 0.40597 0.54791 0.0
O214 O 0.43373 0.47101 0.50557 0.0
Co215 Co 0.47335 0.39053 0.45403 0.0
O216 O 0.41924 0.4041 0.47184 0.0
C217 C 0.50883 0.47183 0.41262 0.0
C218 C 0.53403 0.53018 0.54223 0.0
C219 C 0.40886 0.44127 0.49085 0.0
O220 O 0.50066 0.49624 0.44817 0.0
O221 O 0.50467 0.42849 0.41119 0.0
O222 O 0.48926 0.44223 0.57259 0.0
O223 O 0.50193 0.41348 0.5055 0.0
C224 C 0.17379 0.17127 0.20862 0.0
C225 C 0.20756 0.19036 0.18984 0.0
C226 C 0.14677 0.14762 0.18149 0.0
C227 C 0.15284 0.14366 0.1338 0.0
C228 C 0.18633 0.16403 0.11431 0.0
C229 C 0.21354 0.18653 0.1426 0.0
C230 C 0.1122 0.12568 0.20424 0.0
C231 C 0.19355 0.16176 0.06359 0.0
C232 C 0.10315 0.04279 0.07515 0.0
C233 C 0.0683 0.06212 0.05952 0.0
C234 C 0.13119 0.06907 0.0982 0.0
C235 C 0.12492 0.11639 0.10517 0.0
C236 C 0.09055 0.13656 0.08768 0.0
C237 C 0.06249 0.10916 0.06563 0.0
C238 C 0.16679 0.04561 0.11691 0.0
C239 C 0.08296 0.18697 0.09323 0.0
H240 H 0.16892 0.17363 0.2451 0.0
H241 H 0.23941 0.20126 0.1277 0.0
H242 H 0.08495 0.13879 0.18905 0.0
H243 H 0.11285 0.08826 0.19843 0.0
H244 H 0.11146 0.1321 0.24161 0.0
H245 H 0.21919 0.18217 0.0532 0.0
H246 H 0.19829 0.12582 0.05308 0.0
H247 H 0.16778 0.17439 0.04476 0.0
H248 H 0.10797 0.00648 0.07093 0.0
H249 H 0.03581 0.12454 0.05361 0.0
H250 H 0.16676 0.04783 0.15473 0.0
H251 H 0.19339 0.06293 0.10469 0.0
H252 H 0.16828 0.00906 0.10696 0.0
H253 H 0.07814 0.19499 0.12979 0.0
H254 H 0.05719 0.19838 0.07357 0.0
H255 H 0.10854 0.20691 0.08187 0.0
C256 C 0.06501 0.89289 0.43573 0.0
C257 C 0.07038 0.94009 0.44097 0.0
C258 C 0.09285 0.86564 0.41309 0.0
C259 C 0.12641 0.88616 0.39398 0.0
C260 C 0.13213 0.93372 0.39982 0.0
C261 C 0.10443 0.95983 0.42362 0.0
C262 C 0.08597 0.81498 0.40885 0.0
C263 C 0.16678 0.95754 0.37926 0.0
C264 C 0.2158 0.81805 0.35555 0.0
C265 C 0.20923 0.81352 0.30847 0.0
C266 C 0.1885 0.83998 0.38415 0.0
C267 C 0.15419 0.8589 0.36516 0.0
C268 C 0.14733 0.85389 0.31772 0.0
C269 C 0.17458 0.83097 0.29025 0.0
C270 C 0.19664 0.84346 0.43463 0.0
C271 C 0.11175 0.87416 0.29552 0.0
H272 H 0.03892 0.87726 0.4491 0.0
H273 H 0.10883 0.99629 0.4271 0.0
H274 H 0.08056 0.80603 0.37262 0.0
H275 H 0.11208 0.79584 0.41995 0.0
H276 H 0.06078 0.80349 0.42946 0.0
H277 H 0.16776 0.9944 0.38811 0.0
H278 H 0.194 0.94127 0.39111 0.0
H279 H 0.1659 0.95421 0.34154 0.0
H280 H 0.24235 0.80461 0.37006 0.0
H281 H 0.16917 0.82798 0.25393 0.0
H282 H 0.17138 0.8309 0.45441 0.0
H283 H 0.20118 0.87968 0.44419 0.0
H284 H 0.22271 0.82364 0.44478 0.0
H285 H 0.08516 0.86081 0.31203 0.0
H286 H 0.11023 0.86659 0.2584 0.0
H287 H 0.11176 0.91175 0.30019 0.0
C288 C 0.46055 0.88842 0.56503 0.0
C289 C 0.45438 0.93562 0.56114 0.0
C290 C 0.43347 0.8601 0.5876 0.0
C291 C 0.39993 0.87953 0.60796 0.0
C292 C 0.39344 0.92708 0.6035 0.0
C293 C 0.42034 0.95425 0.5798 0.0
C294 C 0.44109 0.80948 0.59036 0.0
C295 C 0.35877 0.94975 0.6254 0.0
C296 C 0.31088 0.81117 0.64613 0.0
C297 C 0.31768 0.80617 0.69311 0.0
C298 C 0.33823 0.83286 0.61752 0.0
C299 C 0.37279 0.85117 0.63643 0.0
C300 C 0.38001 0.84539 0.68371 0.0
C301 C 0.35272 0.82259 0.71119 0.0
C302 C 0.32972 0.83709 0.56719 0.0
C303 C 0.41584 0.86507 0.70584 0.0
H304 H 0.48663 0.87364 0.55066 0.0
H305 H 0.41529 0.99068 0.57737 0.0
H306 H 0.44721 0.79972 0.62622 0.0
H307 H 0.41505 0.79017 0.57936 0.0
H308 H 0.46608 0.79896 0.56889 0.0
H309 H 0.35734 0.98687 0.6179 0.0
H310 H 0.3316 0.93359 0.61331 0.0
H311 H 0.36004 0.94511 0.66296 0.0
H312 H 0.28403 0.79845 0.63175 0.0
H313 H 0.35829 0.81919 0.74744 0.0
H314 H 0.35508 0.82565 0.54689 0.0
H315 H 0.3243 0.87336 0.55847 0.0
H316 H 0.30399 0.81676 0.55688 0.0
H317 H 0.44224 0.85199 0.68867 0.0
H318 H 0.4177 0.85671 0.74276 0.0
H319 H 0.41582 0.90275 0.70202 0.0
C320 C 0.42876 0.04278 0.90212 0.0
C321 C 0.44993 0.06057 0.9389 0.0
C322 C 0.40123 0.06936 0.87863 0.0
C323 C 0.39329 0.11454 0.89331 0.0
C324 C 0.41399 0.13234 0.93128 0.0
C325 C 0.44267 0.10549 0.95302 0.0
C326 C 0.38108 0.04923 0.83753 0.0
C327 C 0.4057 0.17966 0.94906 0.0
C328 C 0.34825 0.19284 0.80337 0.0
C329 C 0.30843 0.18949 0.81285 0.0
C330 C 0.37613 0.17033 0.83037 0.0
C331 C 0.36416 0.14315 0.86782 0.0
C332 C 0.32406 0.14077 0.87848 0.0
C333 C 0.29675 0.16408 0.85108 0.0
C334 C 0.41839 0.17418 0.81758 0.0
C335 C 0.30985 0.11222 0.91792 0.0
H336 H 0.43453 0.00816 0.89089 0.0
H337 H 0.45879 0.11924 0.98164 0.0
H338 H 0.3493 0.04873 0.84314 0.0
H339 H 0.38662 0.07076 0.80707 0.0
H340 H 0.39093 0.01391 0.83003 0.0
H341 H 0.42297 0.18785 0.98 0.0
H342 H 0.41224 0.20531 0.92233 0.0
H343 H 0.37446 0.18295 0.95746 0.0
H344 H 0.3577 0.21248 0.77407 0.0
H345 H 0.26612 0.16103 0.85864 0.0
H346 H 0.42937 0.14034 0.8065 0.0
H347 H 0.4358 0.18481 0.84757 0.0
H348 H 0.42326 0.19904 0.78954 0.0
H349 H 0.31527 0.07559 0.91071 0.0
H350 H 0.27837 0.11695 0.9243 0.0
H351 H 0.32603 0.12098 0.94946 0.0
C352 C 0.7102 0.32047 0.85915 0.0
C353 C 0.70141 0.3097 0.8136 0.0
C354 C 0.68369 0.34491 0.88679 0.0
C355 C 0.64784 0.35999 0.86826 0.0
C356 C 0.63875 0.34864 0.82247 0.0
C357 C 0.6653 0.32341 0.79606 0.0
C358 C 0.69432 0.35521 0.93567 0.0
C359 C 0.60146 0.3646 0.80063 0.0
C360 C 0.56155 0.40013 0.9409 0.0
C361 C 0.56595 0.44775 0.93993 0.0
C362 C 0.58885 0.37103 0.91958 0.0
C363 C 0.62073 0.38991 0.89541 0.0
C364 C 0.62533 0.43798 0.89471 0.0
C365 C 0.59833 0.46607 0.91737 0.0
C366 C 0.58329 0.32006 0.92243 0.0
C367 C 0.65805 0.46002 0.86856 0.0
H368 H 0.73789 0.31002 0.87316 0.0
H369 H 0.65811 0.31562 0.7609 0.0
H370 H 0.69835 0.3925 0.94008 0.0
H371 H 0.6705 0.34466 0.9588 0.0
H372 H 0.7214 0.33766 0.94628 0.0
H373 H 0.5982 0.35205 0.76505 0.0
H374 H 0.57623 0.35278 0.82083 0.0
H375 H 0.6006 0.40246 0.80025 0.0
H376 H 0.53681 0.38558 0.95841 0.0
H377 H 0.60197 0.50279 0.91606 0.0
H378 H 0.61041 0.30344 0.93421 0.0
H379 H 0.57661 0.30621 0.88808 0.0
H380 H 0.5594 0.31056 0.94598 0.0
H381 H 0.68634 0.44654 0.88045 0.0
H382 H 0.65824 0.49776 0.87227 0.0
H383 H 0.65543 0.45153 0.83176 0.0
C384 C 0.91927 0.46375 0.07625 0.0
C385 C 0.9549 0.44595 0.06125 0.0
C386 C 0.89182 0.43638 0.09886 0.0
C387 C 0.8995 0.38941 0.10605 0.0
C388 C 0.93476 0.37071 0.08935 0.0
C389 C 0.96222 0.39926 0.0677 0.0
C390 C 0.85523 0.45834 0.11677 0.0
C391 C 0.94383 0.32068 0.09517 0.0
C392 C 0.85042 0.33446 0.20909 0.0
C393 C 0.81713 0.31449 0.18997 0.0
C394 C 0.87751 0.35812 0.18215 0.0
C395 C 0.87205 0.36119 0.13432 0.0
C396 C 0.83919 0.33973 0.11445 0.0
C397 C 0.81185 0.31724 0.14254 0.0
C398 C 0.91134 0.38127 0.20529 0.0
C399 C 0.83268 0.34104 0.06356 0.0
H400 H 0.91323 0.49977 0.07169 0.0
H401 H 0.98949 0.38505 0.05607 0.0
H402 H 0.82937 0.43999 0.10383 0.0
H403 H 0.85467 0.45603 0.15458 0.0
H404 H 0.85283 0.49483 0.10689 0.0
H405 H 0.97022 0.31036 0.07605 0.0
H406 H 0.94839 0.31297 0.13184 0.0
H407 H 0.91905 0.29964 0.08335 0.0
H408 H 0.85478 0.33293 0.2457 0.0
H409 H 0.78638 0.30181 0.12737 0.0
H410 H 0.90978 0.41865 0.19945 0.0
H411 H 0.93904 0.36912 0.19044 0.0
H412 H 0.91194 0.37495 0.24267 0.0
H413 H 0.82671 0.37657 0.05258 0.0
H414 H 0.80799 0.31917 0.05289 0.0
H415 H 0.85918 0.32959 0.04538 0.0
C416 C 0.96401 0.60328 0.43614 0.0
C417 C 0.95762 0.55614 0.44021 0.0
C418 C 0.93681 0.6319 0.41401 0.0
C419 C 0.90281 0.61288 0.39434 0.0
C420 C 0.89617 0.56536 0.39883 0.0
C421 C 0.92327 0.53787 0.42202 0.0
C422 C 0.94474 0.68243 0.4111 0.0
C423 C 0.86102 0.54308 0.37767 0.0
C424 C 0.81417 0.68385 0.35848 0.0
C425 C 0.82044 0.68936 0.31145 0.0
C426 C 0.84142 0.6608 0.38628 0.0
C427 C 0.87537 0.6417 0.36653 0.0
C428 C 0.88194 0.64773 0.31917 0.0
C429 C 0.85478 0.67176 0.29252 0.0
C430 C 0.83358 0.65626 0.43672 0.0
C431 C 0.91707 0.62732 0.29611 0.0
H432 H 0.99031 0.61784 0.45018 0.0
H433 H 0.91801 0.5015 0.42461 0.0
H434 H 0.94982 0.69226 0.37504 0.0
H435 H 0.91919 0.70198 0.42324 0.0
H436 H 0.97044 0.6926 0.43156 0.0
H437 H 0.85946 0.50596 0.38517 0.0
H438 H 0.83416 0.55954 0.39036 0.0
H439 H 0.86171 0.54775 0.34009 0.0
H440 H 0.78789 0.69741 0.37355 0.0
H441 H 0.85999 0.67549 0.25623 0.0
H442 H 0.85921 0.6676 0.45659 0.0
H443 H 0.82837 0.61993 0.44536 0.0
H444 H 0.80798 0.67651 0.44764 0.0
H445 H 0.94396 0.63935 0.31298 0.0
H446 H 0.91863 0.63615 0.25928 0.0
H447 H 0.91633 0.5896 0.29942 0.0
C448 C 0.56537 0.55652 0.61415 0.0
C449 C 0.56017 0.56182 0.56704 0.0
C450 C 0.59304 0.58248 0.63817 0.0
C451 C 0.61614 0.61484 0.61457 0.0
C452 C 0.61027 0.62098 0.56697 0.0
C453 C 0.58258 0.59411 0.54371 0.0
C454 C 0.5984 0.57416 0.68864 0.0
C455 C 0.63369 0.65541 0.54048 0.0
C456 C 0.66698 0.70289 0.69052 0.0
C457 C 0.70483 0.68557 0.69279 0.0
C458 C 0.6384 0.68166 0.66335 0.0
C459 C 0.64728 0.64077 0.63954 0.0
C460 C 0.68562 0.6233 0.64173 0.0
C461 C 0.71404 0.6464 0.6675 0.0
C462 C 0.59847 0.70254 0.66086 0.0
C463 C 0.69624 0.57902 0.61849 0.0
H464 H 0.54837 0.53108 0.63206 0.0
H465 H 0.57887 0.59783 0.50716 0.0
H466 H 0.62847 0.56249 0.69535 0.0
H467 H 0.59409 0.60635 0.7079 0.0
H468 H 0.57796 0.54815 0.70206 0.0
H469 H 0.62373 0.65857 0.50456 0.0
H470 H 0.63182 0.68938 0.5571 0.0
H471 H 0.66466 0.64526 0.54038 0.0
H472 H 0.6597 0.73312 0.71008 0.0
H473 H 0.74309 0.63244 0.66976 0.0
H474 H 0.57735 0.68013 0.67847 0.0
H475 H 0.58905 0.70556 0.62476 0.0
H476 H 0.59739 0.73687 0.67694 0.0
H477 H 0.67845 0.55085 0.63267 0.0
H478 H 0.72733 0.57024 0.62293 0.0
H479 H 0.68981 0.58107 0.58147 0.0
C480 C 0.26162 0.13987 0.39474 0.0
C481 C 0.28525 0.17751 0.38509 0.0
C482 C 0.25271 0.12832 0.44023 0.0
C483 C 0.26818 0.1549 0.47634 0.0
C484 C 0.29547 0.18966 0.46642 0.0
C485 C 0.30328 0.20082 0.4209 0.0
C486 C 0.22388 0.09071 0.44921 0.0
C487 C 0.31346 0.21833 0.50369 0.0
C488 C 0.21286 0.19392 0.57979 0.0
C489 C 0.2333 0.17236 0.6149 0.0
C490 C 0.22099 0.18437 0.53395 0.0
C491 C 0.25105 0.15323 0.52303 0.0
C492 C 0.26908 0.12796 0.55843 0.0
C493 C 0.25983 0.13776 0.60424 0.0
C494 C 0.20026 0.21144 0.49747 0.0
C495 C 0.30088 0.0941 0.54837 0.0
H496 H 0.24741 0.12208 0.36693 0.0
H497 H 0.3217 0.22981 0.4133 0.0
H498 H 0.23142 0.07151 0.48061 0.0
H499 H 0.19473 0.10589 0.4543 0.0
H500 H 0.2222 0.06652 0.42007 0.0
H501 H 0.33793 0.23934 0.49082 0.0
H502 H 0.29123 0.24163 0.5181 0.0
H503 H 0.32421 0.19642 0.53183 0.0
H504 H 0.1923 0.22064 0.58819 0.0
H505 H 0.27593 0.12142 0.63151 0.0
H506 H 0.19153 0.18898 0.46878 0.0
H507 H 0.22011 0.23782 0.48364 0.0
H508 H 0.17401 0.22882 0.51094 0.0
H509 H 0.29479 0.07478 0.5166 0.0
H510 H 0.30482 0.06961 0.57695 0.0
H511 H 0.32856 0.11271 0.54343 0.0
C512 C 0.98844 0.01691 0.85189 0.0
C513 C 1.00712 0.97959 0.87199 0.0
C514 C 0.99105 0.02458 0.80455 0.0
C515 C 0.0136 0.99475 0.77704 0.0
C516 C 0.03445 0.95874 0.79785 0.0
C517 C 0.03054 0.95126 0.84494 0.0
C518 C 0.96757 0.06272 0.78365 0.0
C519 C 0.05952 0.92684 0.77013 0.0
C520 C 0.98451 0.9835 0.65202 0.0
C521 C 1.00853 0.01597 0.63144 0.0
C522 C 0.98643 0.97546 0.69933 0.0
C523 C 0.01364 0.9998 0.72632 0.0
C524 C 0.03954 0.03059 0.705 0.0
C525 C 0.03623 0.03883 0.65793 0.0
C526 C 0.95747 0.94336 0.72077 0.0
C527 C 0.06981 0.05602 0.73217 0.0
H528 H 0.96966 0.03818 0.8726 0.0
H529 H 0.0448 0.92216 0.86048 0.0
H530 H 0.9856 0.08327 0.76006 0.0
H531 H 0.94353 0.04792 0.7633 0.0
H532 H 0.95503 0.08575 0.80991 0.0
H533 H 0.07585 0.90246 0.79191 0.0
H534 H 0.04125 0.907 0.74611 0.0
H535 H 0.08044 0.94671 0.74936 0.0
H536 H 0.96238 0.96681 0.63173 0.0
H537 H 0.05445 0.06441 0.64199 0.0
H538 H 0.93642 0.96338 0.74127 0.0
H539 H 0.97208 0.91926 0.74431 0.0
H540 H 0.9412 0.92343 0.69482 0.0
H541 H 0.08734 0.07934 0.71058 0.0
H542 H 0.08951 0.03126 0.74901 0.0
H543 H 0.05584 0.07631 0.75956 0.0
C544 C 0.22081 0.80905 0.9232 0.0
C545 C 0.23969 0.83047 0.88684 0.0
C546 C 0.22898 0.82094 0.96843 0.0
C547 C 0.25736 0.85468 0.97756 0.0
C548 C 0.27351 0.87981 0.94084 0.0
C549 C 0.26438 0.86739 0.89561 0.0
C550 C 0.21026 0.79375 0.00629 0.0
C551 C 0.30318 0.91668 0.94898 0.0
C552 C 0.26572 0.87038 0.10539 0.0
C553 C 0.29103 0.83442 0.11569 0.0
C554 C 0.25738 0.88154 0.05966 0.0
C555 C 0.27493 0.8561 0.02403 0.0
C556 C 0.30417 0.82383 0.03474 0.0
C557 C 0.31153 0.8131 0.08048 0.0
C558 C 0.2268 0.91698 0.04982 0.0
C559 C 0.32443 0.79652 0.99805 0.0
H560 H 0.20148 0.78072 0.91636 0.0
H561 H 0.27917 0.88385 0.86742 0.0
H562 H 0.23194 0.77018 0.0214 0.0
H563 H 0.19988 0.81668 0.03382 0.0
H564 H 0.18537 0.77316 0.99385 0.0
H565 H 0.30446 0.94089 0.91984 0.0
H566 H 0.29681 0.93599 0.98069 0.0
H567 H 0.3322 0.90084 0.95285 0.0
H568 H 0.24968 0.88669 0.13272 0.0
H569 H 0.33124 0.78544 0.0886 0.0
H570 H 0.19838 0.89985 0.04533 0.0
H571 H 0.23334 0.93586 0.01792 0.0
H572 H 0.22408 0.94172 0.07839 0.0
H573 H 0.30398 0.77111 0.98361 0.0
H574 H 0.35009 0.77797 0.01152 0.0
H575 H 0.33399 0.81904 0.96982 0.0
C576 C 0.48399 0.04933 0.34575 0.0
C577 C 0.50919 0.02279 0.37235 0.0
C578 C 0.47966 0.04128 0.29877 0.0
C579 C 0.502 0.00671 0.2776 0.0
C580 C 0.52657 0.97878 0.30466 0.0
C581 C 0.52946 0.98679 0.35191 0.0
C582 C 0.45187 0.07045 0.27164 0.0
C583 C 0.55175 0.94241 0.2833 0.0
C584 C 0.48091 0.9592 0.15945 0.0
C585 C 0.50683 0.98406 0.13226 0.0
C586 C 0.47736 0.96797 0.20639 0.0
C587 C 0.5014 1.00129 0.22693 0.0
C588 C 0.5266 0.02771 0.19923 0.0
C589 C 0.52861 0.01916 0.15201 0.0
C590 C 0.44915 0.94018 0.23426 0.0
C591 C 0.55332 0.06294 0.21987 0.0
H592 H 0.4684 0.07732 0.3616 0.0
H593 H 0.54955 0.96693 0.37229 0.0
H594 H 0.46709 0.08712 0.24281 0.0
H595 H 0.42891 0.04854 0.25674 0.0
H596 H 0.43796 0.0973 0.29285 0.0
H597 H 0.56754 0.92195 0.30925 0.0
H598 H 0.53407 0.91899 0.2621 0.0
H599 H 0.57328 0.95871 0.26037 0.0
H600 H 0.46435 0.93169 0.14418 0.0
H601 H 0.54929 0.03762 0.13117 0.0
H602 H 0.43102 0.96297 0.2557 0.0
H603 H 0.46523 0.9172 0.25762 0.0
H604 H 0.42986 0.91901 0.2125 0.0
H605 H 0.53663 0.08768 0.24071 0.0
H606 H 0.5698 0.08205 0.19351 0.0
H607 H 0.57426 0.04583 0.24299 0.0
C608 C 0.43386 0.29334 0.3114 0.0
C609 C 0.40879 0.26264 0.28922 0.0
C610 C 0.47422 0.29123 0.30569 0.0
C611 C 0.49054 0.25743 0.27699 0.0
C612 C 0.46544 0.2278 0.25247 0.0
C613 C 0.42483 0.23083 0.25873 0.0
C614 C 0.49947 0.3237 0.33258 0.0
C615 C 0.48163 0.19186 0.22091 0.0
C616 C 0.59968 0.2721 0.25609 0.0
C617 C 0.61533 0.24466 0.29081 0.0
C618 C 0.55911 0.27492 0.2493 0.0
C619 C 0.5336 0.24977 0.27788 0.0
C620 C 0.54946 0.22043 0.31141 0.0
C621 C 0.58978 0.21822 0.31731 0.0
C622 C 0.54358 0.30633 0.21285 0.0
C623 C 0.52376 0.19288 0.34283 0.0
H624 H 0.42195 0.3187 0.33441 0.0
H625 H 0.40584 0.20713 0.24121 0.0
H626 H 0.5165 0.30428 0.35819 0.0
H627 H 0.52037 0.34107 0.30971 0.0
H628 H 0.48227 0.35013 0.35074 0.0
H629 H 0.45848 0.17284 0.20267 0.0
H630 H 0.50107 0.20794 0.19541 0.0
H631 H 0.49935 0.16718 0.24063 0.0
H632 H 0.61895 0.29256 0.23528 0.0
H633 H 0.60127 0.19619 0.34377 0.0
H634 H 0.53228 0.33792 0.22895 0.0
H635 H 0.51923 0.29005 0.19422 0.0
H636 H 0.56638 0.31611 0.18795 0.0
H637 H 0.50645 0.21626 0.36459 0.0
H638 H 0.54061 0.16976 0.36541 0.0
H639 H 0.5031 0.17199 0.32272 0.0
C640 C 0.01461 0.3516 0.38591 0.0
C641 C 0.03861 0.36191 0.42307 0.0
C642 C 1.00676 0.30586 0.37424 0.0
C643 C 0.02359 0.27022 0.40031 0.0
C644 C 0.05146 0.28096 0.43419 0.0
C645 C 0.05825 0.32669 0.44547 0.0
C646 C 0.97748 0.296 0.33732 0.0
C647 C 0.07096 0.24426 0.46221 0.0
C648 C 0.96948 0.16732 0.4426 0.0
C649 C 0.98964 0.13183 0.42127 0.0
C650 C 0.97733 0.21296 0.43207 0.0
C651 C 1.00673 0.22337 0.39994 0.0
C652 C 0.02435 0.18754 0.37484 0.0
C653 C 0.01546 0.14189 0.38578 0.0
C654 C 0.95705 0.24986 0.45907 0.0
C655 C 0.05527 0.19705 0.33976 0.0
H656 H 0.99922 0.37893 0.36876 0.0
H657 H 0.077 0.33483 0.47404 0.0
H658 H 0.98517 0.2646 0.31817 0.0
H659 H 0.94864 0.29053 0.35313 0.0
H660 H 0.97502 0.32493 0.31298 0.0
H661 H 0.09576 0.25782 0.48225 0.0
H662 H 0.04967 0.22937 0.48637 0.0
H663 H 0.08162 0.21633 0.43995 0.0
H664 H 0.94933 0.15945 0.46986 0.0
H665 H 0.03127 0.11437 0.36946 0.0
H666 H 0.94733 0.27781 0.43627 0.0
H667 H 0.97754 0.26467 0.48424 0.0
H668 H 0.93149 0.23654 0.47788 0.0
H669 H 0.04895 0.22881 0.32054 0.0
H670 H 0.05822 0.1683 0.31526 0.0
H671 H 0.08352 0.20162 0.35727 0.0
C672 C 0.92305 0.76773 0.7614 0.0
C673 C 0.90754 0.73533 0.79148 0.0
C674 C 0.9635 0.77236 0.75592 0.0
C675 C 0.98896 0.7434 0.78059 0.0
C676 C 0.97312 0.70871 0.80874 0.0
C677 C 0.9327 0.70554 0.81429 0.0
C678 C 0.979 0.81012 0.72609 0.0
C679 C 0.99895 0.67638 0.83494 0.0
C680 C 0.09771 0.73363 0.75624 0.0
C681 C 0.11334 0.75883 0.79255 0.0
C682 C 0.05719 0.72963 0.75059 0.0
C683 C 0.03183 0.75221 0.78137 0.0
C684 C 0.04776 0.78025 0.81609 0.0
C685 C 0.08818 0.78263 0.82162 0.0
C686 C 0.04152 0.6994 0.71321 0.0
C687 C 0.02211 0.80578 0.84917 0.0
H688 H 0.90363 0.7914 0.74446 0.0
H689 H 0.92072 0.68077 0.83789 0.0
H690 H 1.00021 0.79628 0.70125 0.0
H691 H 0.95562 0.82801 0.70711 0.0
H692 H 0.99456 0.83543 0.74747 0.0
H693 H 0.9821 0.65095 0.85477 0.0
H694 H 0.01839 0.65794 0.81105 0.0
H695 H 0.01754 0.69582 0.85896 0.0
H696 H 0.11708 0.71467 0.73411 0.0
H697 H 0.10021 0.80199 0.84981 0.0
H698 H 0.02192 0.71929 0.69074 0.0
H699 H 0.0241 0.6714 0.72827 0.0
H700 H 0.06493 0.68422 0.69204 0.0
H701 H 1.0002 0.82617 0.8304 0.0
H702 H 0.03889 0.82907 0.87165 0.0
H703 H 1.00625 0.78109 0.87096 0.0
C704 C 0.45977 0.67413 0.9379 0.0
C705 C 0.48156 0.63948 0.91742 0.0
C706 C 0.46627 0.72005 0.92712 0.0
C707 C 0.49602 0.73153 0.89581 0.0
C708 C 0.51486 0.69635 0.87105 0.0
C709 C 0.50734 0.65042 0.88217 0.0
C710 C 0.44455 0.75622 0.95351 0.0
C711 C 0.54597 0.70704 0.83655 0.0
C712 C 0.50592 0.86019 0.8842 0.0
C713 C 0.52992 0.86942 0.92167 0.0
C714 C 0.4971 0.8148 0.872 0.0
C715 C 0.51285 0.77837 0.89793 0.0
C716 C 0.54042 0.78793 0.93251 0.0
C717 C 0.54833 0.8333 0.94411 0.0
C718 C 0.46824 0.80631 0.83429 0.0
C719 C 0.55869 0.75039 0.96061 0.0
H720 H 0.43973 0.66551 0.96506 0.0
H721 H 0.52441 0.62355 0.86654 0.0
H722 H 0.46397 0.77116 0.97977 0.0
H723 H 0.43516 0.78421 0.93057 0.0
H724 H 0.41861 0.74211 0.97098 0.0
H725 H 0.5504 0.6782 0.81247 0.0
H726 H 0.5387 0.73821 0.81682 0.0
H727 H 0.57372 0.71337 0.85461 0.0
H728 H 0.49145 0.88817 0.86698 0.0
H729 H 0.5671 0.84049 0.97288 0.0
H730 H 0.43875 0.80381 0.84916 0.0
H731 H 0.47442 0.77389 0.8161 0.0
H732 H 0.46818 0.83476 0.80925 0.0
H733 H 0.53646 0.73501 0.98324 0.0
H734 H 0.5828 0.76319 0.98225 0.0
H735 H 0.57005 0.72297 0.93821 0.0
C736 C 0.59308 0.79227 0.19005 0.0
C737 C 0.61824 0.76318 0.21422 0.0
C738 C 0.55275 0.79059 0.19599 0.0
C739 C 0.53651 0.75901 0.22711 0.0
C740 C 0.56169 0.73139 0.25379 0.0
C741 C 0.60229 0.73383 0.24712 0.0
C742 C 0.52742 0.82098 0.16681 0.0
C743 C 0.54561 0.6985 0.28852 0.0
C744 C 0.42719 0.77563 0.24443 0.0
C745 C 0.41211 0.7458 0.21135 0.0
C746 C 0.46763 0.77865 0.25212 0.0
C747 C 0.49351 0.75104 0.22636 0.0
C748 C 0.4781 0.71907 0.19499 0.0
C749 C 0.43792 0.71692 0.18794 0.0
C750 C 0.48278 0.81229 0.28676 0.0
C751 C 0.50421 0.68859 0.16689 0.0
H752 H 0.60487 0.81591 0.16524 0.0
H753 H 0.62133 0.7116 0.26639 0.0
H754 H 0.51026 0.79968 0.14286 0.0
H755 H 0.50663 0.84019 0.18836 0.0
H756 H 0.54457 0.84586 0.14657 0.0
H757 H 0.5687 0.678 0.3052 0.0
H758 H 0.52965 0.71775 0.31517 0.0
H759 H 0.52457 0.67499 0.27222 0.0
H760 H 0.40761 0.7978 0.263 0.0
H761 H 0.42675 0.69298 0.16297 0.0
H762 H 0.50186 0.83762 0.2699 0.0
H763 H 0.50062 0.79416 0.31252 0.0
H764 H 0.45906 0.8308 0.30453 0.0
H765 H 0.52195 0.70976 0.14345 0.0
H766 H 0.48763 0.66352 0.14622 0.0
H767 H 0.52443 0.66961 0.18935 0.0
C768 C 0.56214 0.15717 0.58242 0.0
C769 C 0.53208 0.12601 0.58942 0.0
C770 C 0.55642 0.20395 0.59013 0.0
C771 C 0.51936 0.21972 0.60391 0.0
C772 C 0.49053 0.18765 0.61637 0.0
C773 C 0.49727 0.14093 0.60887 0.0
C774 C 0.58837 0.23676 0.57754 0.0
C775 C 0.45083 0.2028 0.63172 0.0
C776 C 0.5059 0.349 0.611 0.0
C777 C 0.49535 0.35881 0.56583 0.0
C778 C 0.5124 0.30356 0.62501 0.0
C779 C 0.50802 0.26757 0.59303 0.0
C780 C 0.49512 0.27747 0.54821 0.0
C781 C 0.48909 0.3228 0.53529 0.0
C782 C 0.52596 0.29448 0.67309 0.0
C783 C 0.4895 0.24036 0.51289 0.0
H784 H 0.58901 0.1455 0.56718 0.0
H785 H 0.47386 0.11672 0.61373 0.0
H786 H 0.5825 0.25109 0.54316 0.0
H787 H 0.58962 0.2656 0.60202 0.0
H788 H 0.6171 0.21963 0.57667 0.0
H789 H 0.43529 0.17507 0.64995 0.0
H790 H 0.45273 0.23306 0.65438 0.0
H791 H 0.43341 0.21256 0.6014 0.0
H792 H 0.51096 0.37682 0.63466 0.0
H793 H 0.4805 0.33008 0.5005 0.0
H794 H 0.55773 0.28861 0.67291 0.0
H795 H 0.51208 0.2634 0.68722 0.0
H796 H 0.51977 0.32376 0.69607 0.0
H797 H 0.51772 0.22388 0.50521 0.0
H798 H 0.47725 0.25367 0.48044 0.0
H799 H 0.46978 0.2136 0.52617 0.0
C800 C 0.08367 0.29263 0.69305 0.0
C801 C 0.10787 0.25825 0.71068 0.0
C802 C 0.04326 0.29123 0.6986 0.0
C803 C 0.02605 0.25416 0.72202 0.0
C804 C 0.05041 0.22069 0.74234 0.0
C805 C 0.09106 0.22322 0.73661 0.0
C806 C 0.01891 0.32802 0.67657 0.0
C807 C 0.03344 0.18067 0.76773 0.0
C808 C 0.91658 0.26378 0.74459 0.0
C809 C 0.90118 0.2405 0.70676 0.0
C810 C 0.95715 0.26741 0.75107 0.0
C811 C 0.98297 0.24731 0.71905 0.0
C812 C 0.9675 0.22299 0.68152 0.0
C813 C 0.9272 0.21987 0.67596 0.0
C814 C 0.97245 0.29334 0.79173 0.0
C815 C 0.99356 0.20116 0.64621 0.0
H816 H 0.09634 0.32034 0.67362 0.0
H817 H 0.10942 0.19656 0.75043 0.0
H818 H 1.00424 0.31384 0.64597 0.0
H819 H 0.99604 0.34015 0.70023 0.0
H820 H 0.03659 0.35781 0.66581 0.0
H821 H 0.05561 0.16262 0.78847 0.0
H822 H 1.00952 0.19187 0.79043 0.0
H823 H 0.02115 0.15612 0.74282 0.0
H824 H 0.89703 0.27968 0.76877 0.0
H825 H 0.91613 0.20133 0.64672 0.0
H826 H 0.98942 0.3233 0.7801 0.0
H827 H 0.99239 0.2713 0.81168 0.0
H828 H 0.94885 0.30544 0.81451 0.0
H829 H 0.0112 0.22778 0.6291 0.0
H830 H 0.97702 0.18229 0.61971 0.0
H831 H 0.01393 0.17704 0.66286 0.0
C832 C 0.96247 0.83757 0.06633 0.0
C833 C 0.98489 0.87237 0.08551 0.0
C834 C 0.96988 0.79169 0.07636 0.0
C835 C 1.0011 0.78036 0.10568 0.0
C836 C 0.02092 0.81562 0.12923 0.0
C837 C 0.0125 0.86153 0.11885 0.0
C838 C 0.94726 0.75544 0.05114 0.0
C839 C 0.05376 0.80512 0.16153 0.0
C840 C 0.01079 0.65178 0.11724 0.0
C841 C 0.03278 0.64215 0.0782 0.0
C842 C 1.00292 0.6973 0.12982 0.0
C843 C 0.0177 0.73345 0.10278 0.0
C844 C 0.04342 0.72345 0.0664 0.0
C845 C 0.05028 0.67794 0.05435 0.0
C846 C 0.97594 0.70635 0.1693 0.0
C847 C 0.06065 0.76069 0.03707 0.0
H848 H 0.941 0.84603 0.04069 0.0
H849 H 0.03006 0.88851 0.13348 0.0
H850 H 0.96561 0.74075 0.02369 0.0
H851 H 0.93905 0.72728 0.07448 0.0
H852 H 0.9205 0.7694 0.0353 0.0
H853 H 0.05883 0.83374 0.1857 0.0
H854 H 0.04798 0.77353 0.18124 0.0
H855 H 0.08073 0.79972 0.14162 0.0
H856 H 0.9971 0.62402 0.1356 0.0
H857 H 0.0676 0.67041 0.02441 0.0
H858 H 0.94607 0.71118 0.15614 0.0
H859 H 0.98428 0.73785 0.18788 0.0
H860 H 0.97557 0.67729 0.19363 0.0
H861 H 0.03757 0.77606 0.01561 0.0
H862 H 0.08379 0.74757 0.01419 0.0
H863 H 0.07301 0.78817 0.05864 0.0
C864 C 0.22761 0.41107 0.28888 0.0
C865 C 0.2545 0.38404 0.26519 0.0
C866 C 0.22371 0.45782 0.27957 0.0
C867 C 0.24802 0.47829 0.24653 0.0
C868 C 0.27376 0.45063 0.22072 0.0
C869 C 0.27638 0.40361 0.23007 0.0
C870 C 0.19484 0.48568 0.3065 0.0
C871 C 0.30058 0.47122 0.1856 0.0
C872 C 0.23122 0.59722 0.19884 0.0
C873 C 0.25683 0.62349 0.2252 0.0
C874 C 0.22651 0.55032 0.20683 0.0
C875 C 0.24873 0.52893 0.24132 0.0
C876 C 0.27335 0.55573 0.26943 0.0
C877 C 0.27674 0.6029 0.26135 0.0
C878 C 0.19896 0.52339 0.17718 0.0
C879 C 0.29797 0.53414 0.30618 0.0
H880 H 0.21076 0.3959 0.31619 0.0
H881 H 0.29769 0.38294 0.21237 0.0
H882 H 0.21005 0.51249 0.32631 0.0
H883 H 0.17466 0.50328 0.28284 0.0
H884 H 0.17768 0.46444 0.33052 0.0
H885 H 0.31698 0.44481 0.16642 0.0
H886 H 0.28405 0.49227 0.16091 0.0
H887 H 0.3216 0.49413 0.20285 0.0
H888 H 0.21592 0.61315 0.17069 0.0
H889 H 0.29708 0.62297 0.28116 0.0
H890 H 0.17792 0.50472 0.19886 0.0
H891 H 0.21519 0.49751 0.15723 0.0
H892 H 0.18272 0.54547 0.15301 0.0
H893 H 0.2796 0.51437 0.33009 0.0
H894 H 0.31459 0.55984 0.32604 0.0
H895 H 0.31874 0.50987 0.2904 0.0
C896 C 0.77605 0.09343 0.77644 0.0
C897 C 0.75058 0.11288 0.74475 0.0
C898 C 0.77506 0.04627 0.78555 0.0
C899 C 0.7475 0.01829 0.76294 0.0
C900 C 0.71981 0.03859 0.73365 0.0
C901 C 0.72201 0.08551 0.72449 0.0
C902 C 0.80552 0.02597 0.81648 0.0
C903 C 0.68938 0.01035 0.70971 0.0
C904 C 0.77567 0.89381 0.7441 0.0
C905 C 0.75812 0.87276 0.78162 0.0
C906 C 0.77171 0.94112 0.73697 0.0
C907 C 0.74917 0.96761 0.76773 0.0
C908 C 0.72949 0.94581 0.804 0.0
C909 C 0.73445 0.89877 0.81066 0.0
C910 C 0.79344 0.96314 0.69807 0.0
C911 C 0.70463 0.97243 0.83705 0.0
H912 H 0.79876 0.11432 0.79121 0.0
H913 H 0.70261 0.1005 0.6995 0.0
H914 H 0.79245 1.00122 0.84058 0.0
H915 H 0.82699 0.00708 0.79551 0.0
H916 H 0.82111 0.05255 0.83632 0.0
H917 H 0.6671 0.03193 0.69285 0.0
H918 H 0.70335 0.98873 0.68331 0.0
H919 H 0.67479 0.9872 0.73424 0.0
H920 H 0.79448 0.87392 0.72211 0.0
H921 H 0.7208 0.88243 0.83968 0.0
H922 H 0.81614 0.98608 0.71196 0.0
H923 H 0.77356 0.98439 0.67727 0.0
H924 H 0.80749 0.93757 0.67547 0.0
H925 H 0.72319 0.99532 0.8578 0.0
H926 H 0.68826 0.94978 0.86054 0.0
H927 H 0.68375 0.99425 0.81825 0.0
C928 C 0.34656 0.51615 0.97927 0.0
C929 C 0.36377 0.5432 0.01321 0.0
C930 C 0.30588 0.51012 0.97778 0.0
C931 C 0.28197 0.53139 0.0111 0.0
C932 C 0.29968 0.55561 0.04736 0.0
C933 C 0.34008 0.56135 0.04779 0.0
C934 C 0.28833 0.48336 0.93898 0.0
C935 C 0.27584 0.57858 0.08403 0.0
C936 C 0.18374 0.57892 0.97646 0.0
C937 C 0.15735 0.54958 0.99841 0.0
C938 C 0.22394 0.57225 0.97918 0.0
C939 C 0.23891 0.53505 0.00443 0.0
C940 C 0.21266 0.5044 0.02578 0.0
C941 C 0.1722 0.51193 0.02244 0.0
C942 C 0.25046 0.60616 0.956 0.0
C943 C 0.22739 0.46397 0.05252 0.0
H944 H 0.36454 0.50186 0.95251 0.0
H945 H 0.3531 0.58166 0.07468 0.0
H946 H 0.26546 0.46006 0.95178 0.0
H947 H 0.27444 0.50721 0.91455 0.0
H948 H 0.31043 0.46303 0.92034 0.0
H949 H 0.29383 0.58906 0.11368 0.0
H950 H 0.2618 0.60948 0.06964 0.0
H951 H 0.25252 0.5557 0.09638 0.0
H952 H 0.17306 0.60788 0.95723 0.0
H953 H 0.1523 0.48883 0.0393 0.0
H954 H 0.27013 0.58827 0.93198 0.0
H955 H 0.2688 0.62344 0.98189 0.0
H956 H 0.23424 0.63265 0.93673 0.0
H957 H 0.24345 0.44068 0.02939 0.0
H958 H 0.20355 0.4446 0.06903 0.0
H959 H 0.24803 0.4753 0.07925 0.0
C960 C 0.79817 0.09715 0.29582 0.0
C961 C 0.77096 0.12283 0.2712 0.0
C962 C 0.80279 0.05019 0.28804 0.0
C963 C 0.77905 0.02817 0.25536 0.0
C964 C 0.75296 0.05447 0.22864 0.0
C965 C 0.74946 0.10167 0.23666 0.0
C966 C 0.8316 0.02386 0.31652 0.0
C967 C 0.72675 0.0323 0.19382 0.0
C968 C 0.79951 0.9097 0.20853 0.0
C969 C 0.77372 0.88275 0.23388 0.0
C970 C 0.80316 0.95668 0.21677 0.0
C971 C 0.77989 0.97744 0.25071 0.0
C972 C 0.75546 0.94988 0.27828 0.0
C973 C 0.75291 0.90268 0.26974 0.0
C974 C 0.83021 0.98439 0.18727 0.0
C975 C 0.72985 0.97069 0.31452 0.0
H976 H 0.81481 0.1136 0.32256 0.0
H977 H 0.72791 0.1213 0.21822 0.0
H978 H 0.81591 0.0025 0.34172 0.0
H979 H 0.84899 1.00062 0.2947 0.0
H980 H 0.85157 0.04679 0.33546 0.0
H981 H 0.71058 0.05781 0.17321 0.0
H982 H 0.74372 0.01028 0.17039 0.0
H983 H 0.70552 0.01008 0.21157 0.0
H984 H 0.81559 0.89428 0.18071 0.0
H985 H 0.73244 0.88209 0.28879 0.0
H986 H 0.84756 0.00818 0.20851 0.0
H987 H 0.81306 0.00525 0.16296 0.0
H988 H 0.85026 0.96243 0.16728 0.0
H989 H 0.74696 0.99315 0.33734 0.0
H990 H 0.71517 0.94437 0.33561 0.0
H991 H 0.70738 0.9922 0.29802 0.0
C992 C 0.83609 0.94848 0.0449 0.0
C993 C 0.86052 0.97228 0.01505 0.0
C994 C 0.7956 0.95389 0.04312 0.0
C995 C 0.77886 0.98288 0.00971 0.0
C996 C 0.8036 0.0089 0.98108 0.0
C997 C 0.84419 0.00352 0.98432 0.0
C998 C 0.77063 0.92621 0.07511 0.0
C999 C 0.78713 0.04023 0.94514 0.0
C1000 C 0.68023 0.94049 0.96962 0.0
C1001 C 0.65456 0.9682 0.99427 0.0
C1002 C 0.72056 0.94688 0.97225 0.0
C1003 C 0.73592 0.98114 1.00129 0.0
C1004 C 0.71002 0.01044 0.02497 0.0
C1005 C 0.66959 0.00394 0.02076 0.0
C1006 C 0.7468 0.91542 0.94551 0.0
C1007 C 0.72503 0.04708 0.05654 0.0
H1008 H 0.84867 0.92403 0.06843 0.0
H1009 H 0.863 0.02137 0.96068 0.0
H1010 H 0.74952 0.94866 0.09279 0.0
H1011 H 0.75383 0.90066 0.05535 0.0
H1012 H 0.78806 0.90792 0.1012 0.0
H1013 H 0.81009 0.05897 0.92633 0.0
H1014 H 0.76983 0.02018 0.92034 0.0
H1015 H 0.76725 0.06535 0.96107 0.0
H1016 H 0.66868 0.91271 0.94929 0.0
H1017 H 0.64984 0.02493 0.04046 0.0
H1018 H 0.76552 0.89574 0.96919 0.0
H1019 H 0.76611 0.93571 0.92304 0.0
H1020 H 0.7303 0.89093 0.9241 0.0
H1021 H 0.74314 0.03155 0.0837 0.0
H1022 H 0.70125 0.06677 0.07285 0.0
H1023 H 0.74381 0.07103 0.03735 0.0
C1024 C 0.23948 0.59855 0.73953 0.0
C1025 C 0.26054 0.6184 0.77518 0.0
C1026 C 0.24225 0.55146 0.7307 0.0
C1027 C 0.26744 0.52405 0.75749 0.0
C1028 C 0.29063 0.54471 0.79155 0.0
C1029 C 0.28648 0.59152 0.80041 0.0
C1030 C 0.21645 0.5306 0.69464 0.0
C1031 C 0.31923 0.51723 0.81925 0.0
C1032 C 0.24013 0.39872 0.76885 0.0
C1033 C 0.26115 0.37933 0.7329 0.0
C1034 C 0.2428 0.44573 0.77816 0.0
C1035 C 0.26775 0.47352 0.75151 0.0
C1036 C 0.29118 0.45326 0.71747 0.0
C1037 C 0.28718 0.40654 0.70816 0.0
C1038 C 0.21709 0.46612 0.81456 0.0
C1039 C 0.31903 0.48123 0.68925 0.0
H1040 H 0.2189 0.61921 0.72065 0.0
H1041 H 0.30272 0.607 0.82807 0.0
H1042 H 0.23403 0.51134 0.66947 0.0
H1043 H 0.19625 0.50597 0.7108 0.0
H1044 H 0.19917 0.55669 0.67611 0.0
H1045 H 0.33249 0.53754 0.84722 0.0
H1046 H 0.30502 0.48681 0.83426 0.0
H1047 H 0.34266 0.50467 0.79655 0.0
H1048 H 0.21952 0.3779 0.78742 0.0
H1049 H 0.30333 0.39154 0.68015 0.0
H1050 H 0.19629 0.49024 0.79863 0.0
H1051 H 0.23467 0.48582 0.83938 0.0
H1052 H 0.20047 0.43971 0.83342 0.0
H1053 H 0.30258 0.5034 0.66546 0.0
H1054 H 0.33887 0.45944 0.66881 0.0
H1055 H 0.3366 0.5038 0.71153 0.0
C1056 C 0.18314 0.44184 0.54781 0.0
C1057 C 0.15938 0.4581 0.51238 0.0
C1058 C 0.22365 0.44629 0.54629 0.0
C1059 C 0.24135 0.46711 0.50799 0.0
C1060 C 0.21744 0.48619 0.47336 0.0
C1061 C 0.17669 0.48163 0.47605 0.0
C1062 C 0.24753 0.42577 0.58437 0.0
C1063 C 0.23487 0.50887 0.43197 0.0
C1064 C 0.35093 0.48892 0.51612 0.0
C1065 C 0.3661 0.44987 0.49475 0.0
C1066 C 0.31044 0.49586 0.51972 0.0
C1067 C 0.28442 0.46297 0.50159 0.0
C1068 C 0.29962 0.42392 0.47949 0.0
C1069 C 0.33991 0.41791 0.47633 0.0
C1070 C 0.29547 0.53804 0.54342 0.0
C1071 C 0.27328 0.38767 0.45983 0.0
H1072 H 0.17002 0.42412 0.57638 0.0
H1073 H 0.15865 0.49421 0.44849 0.0
H1074 H 0.26186 0.39421 0.57192 0.0
H1075 H 0.27065 0.44962 0.59539 0.0
H1076 H 0.22957 0.41691 0.61456 0.0
H1077 H 0.21336 0.53045 0.41381 0.0
H1078 H 0.2601 0.53029 0.44159 0.0
H1079 H 0.24531 0.48228 0.40795 0.0
H1080 H 0.37065 0.51399 0.53038 0.0
H1081 H 0.35082 0.38765 0.4595 0.0
H1082 H 0.27972 0.52823 0.57493 0.0
H1083 H 0.27455 0.55615 0.52107 0.0
H1084 H 0.31916 0.56192 0.55281 0.0
H1085 H 0.25543 0.37248 0.48742 0.0
H1086 H 0.28961 0.35984 0.44268 0.0
H1087 H 0.25312 0.4031 0.43469 0.0
C1088 C 0.80565 0.67734 0.92148 0.0
C1089 C 0.78142 0.65984 0.88748 0.0
C1090 C 0.7986 0.6683 0.96765 0.0
C1091 C 0.76592 0.6418 0.98008 0.0
C1092 C 0.7441 0.61962 0.94558 0.0
C1093 C 0.75214 0.62897 0.89936 0.0
C1094 C 0.82335 0.69188 0.00305 0.0
C1095 C 0.70971 0.59013 0.95724 0.0
C1096 C 0.75732 0.63332 0.10906 0.0
C1097 C 0.73767 0.67416 0.11831 0.0
C1098 C 0.76388 0.61933 0.06366 0.0
C1099 C 0.75022 0.64687 0.02724 0.0
C1100 C 0.72673 0.68538 0.03696 0.0
C1101 C 0.72106 0.69868 0.08234 0.0
C1102 C 0.78834 0.57757 0.05495 0.0
C1103 C 0.71076 0.71538 0.99945 0.0
H1104 H 0.82835 0.7011 0.9122 0.0
H1105 H 0.73318 0.61568 0.87299 0.0
H1106 H 0.80697 0.72094 0.01788 0.0
H1107 H 0.83067 0.66818 0.03125 0.0
H1108 H 0.85071 0.70531 0.98825 0.0
H1109 H 0.70274 0.56614 0.92903 0.0
H1110 H 0.71496 0.57033 0.98892 0.0
H1111 H 0.68403 0.6122 0.96306 0.0
H1112 H 0.77029 0.61439 0.13695 0.0
H1113 H 0.70548 0.72998 0.08959 0.0
H1114 H 0.81897 0.58804 0.05026 0.0
H1115 H 0.77897 0.55953 0.02353 0.0
H1116 H 0.78711 0.55348 0.08419 0.0
H1117 H 0.73486 0.73435 0.98305 0.0
H1118 H 0.6894 0.74058 0.01254 0.0
H1119 H 0.69655 0.69442 0.97276 0.0
C1120 C 0.54909 0.47226 0.34268 0.0
C1121 C 0.52011 0.49317 0.369 0.0
C1122 C 0.55345 0.48235 0.29619 0.0
C1123 C 0.52755 0.51332 0.27521 0.0
C1124 C 0.49987 0.53685 0.30232 0.0
C1125 C 0.49667 0.5267 0.34914 0.0
C1126 C 0.5841 0.45751 0.26904 0.0
C1127 C 0.47178 0.57027 0.28123 0.0
C1128 C 0.54384 0.56194 0.15657 0.0
C1129 C 0.5199 0.53393 0.12979 0.0
C1130 C 0.54806 0.55444 0.20362 0.0
C1131 C 0.52728 0.51852 0.22456 0.0
C1132 C 0.50461 0.48868 0.19726 0.0
C1133 C 0.5015 0.49651 0.15002 0.0
C1134 C 0.57401 0.58562 0.23101 0.0
C1135 C 0.48172 0.45017 0.21835 0.0
H1136 H 0.56709 0.44605 0.35803 0.0
H1137 H 0.47383 0.54226 0.36925 0.0
H1138 H 0.57028 0.4305 0.24809 0.0
H1139 H 0.59911 0.4812 0.2454 0.0
H1140 H 0.60602 0.44114 0.29149 0.0
H1141 H 0.45404 0.58818 0.30732 0.0
H1142 H 0.48755 0.59612 0.26075 0.0
H1143 H 0.45202 0.55182 0.2577 0.0
H1144 H 0.55818 0.59089 0.1409 0.0
H1145 H 0.4825 0.47531 0.12954 0.0
H1146 H 0.59925 0.56594 0.2438 0.0
H1147 H 0.55845 0.59906 0.26125 0.0
H1148 H 0.58487 0.61487 0.21056 0.0
H1149 H 0.50109 0.42761 0.23844 0.0
H1150 H 0.46655 0.42917 0.19231 0.0
H1151 H 0.45984 0.46434 0.24224 0.0
C1152 C 0.76853 0.3601 0.39646 0.0
C1153 C 0.73675 0.33411 0.38212 0.0
C1154 C 0.77519 0.36787 0.44318 0.0
C1155 C 0.74933 0.34918 0.47576 0.0
C1156 C 0.71461 0.32812 0.46073 0.0
C1157 C 0.70906 0.32022 0.41399 0.0
C1158 C 0.81228 0.39099 0.45758 0.0
C1159 C 0.68569 0.30868 0.49411 0.0
C1160 C 0.78722 0.28654 0.57896 0.0
C1161 C 0.7751 0.31462 0.61486 0.0
C1162 C 0.7814 0.29918 0.53347 0.0
C1163 C 0.76252 0.34095 0.52347 0.0
C1164 C 0.75274 0.37113 0.55954 0.0
C1165 C 0.7593 0.3576 0.60508 0.0
C1166 C 0.79306 0.26612 0.49627 0.0
C1167 C 0.73291 0.41607 0.55039 0.0
H1168 H 0.79019 0.3703 0.37167 0.0
H1169 H 0.6846 0.29991 0.40271 0.0
H1170 H 0.8078 0.41204 0.48862 0.0
H1171 H 0.8343 0.36462 0.46577 0.0
H1172 H 0.82401 0.41296 0.42996 0.0
H1173 H 0.65741 0.30127 0.47754 0.0
H1174 H 0.69723 0.27636 0.50846 0.0
H1175 H 0.6808 0.33258 0.52291 0.0
H1176 H 0.79994 0.25358 0.58642 0.0
H1177 H 0.74977 0.3793 0.63288 0.0
H1178 H 0.81022 0.28384 0.46964 0.0
H1179 H 0.76673 0.25206 0.47966 0.0
H1180 H 0.81048 0.23714 0.50961 0.0
H1181 H 0.74489 0.43275 0.51948 0.0
H1182 H 0.73572 0.43977 0.57981 0.0
H1183 H 0.70161 0.40993 0.54427 0.0
C1184 C 0.02387 0.51438 0.65086 0.0
C1185 C 1.00469 0.47671 0.63208 0.0
C1186 C 0.02101 0.52413 0.69779 0.0
C1187 C 0.99781 0.49599 0.72622 0.0
C1188 C 0.97619 0.45997 0.70662 0.0
C1189 C 0.98024 0.45046 0.65993 0.0
C1190 C 0.04507 0.56243 0.71742 0.0
C1191 C 0.95018 0.43009 0.73532 0.0
C1192 C 0.02807 0.48792 0.85097 0.0
C1193 C 1.00503 0.52186 0.8708 0.0
C1194 C 0.02526 0.47821 0.80403 0.0
C1195 C 0.9982 0.50246 0.77673 0.0
C1196 C 0.97303 0.53449 0.79747 0.0
C1197 C 0.97707 0.54414 0.84414 0.0
C1198 C 0.05297 0.44419 0.78315 0.0
C1199 C 0.94322 0.56039 0.77002 0.0
H1200 H 0.04332 0.53418 0.6296 0.0
H1201 H 0.96544 0.42119 0.64545 0.0
H1202 H 0.02729 0.58436 0.74007 0.0
H1203 H 0.06874 0.54782 0.73851 0.0
H1204 H 0.05816 0.58409 0.69041 0.0
H1205 H 0.96795 0.40952 0.75924 0.0
H1206 H 0.9304 0.45147 0.7562 0.0
H1207 H 0.93256 0.40639 0.71421 0.0
H1208 H 0.05018 0.47135 0.87139 0.0
H1209 H 0.95929 0.57049 0.85957 0.0
H1210 H 0.07217 0.46184 0.75843 0.0
H1211 H 0.0368 0.41766 0.764 0.0
H1212 H 0.07132 0.42712 0.80922 0.0
H1213 H 0.92241 0.57901 0.79218 0.0
H1214 H 0.92683 0.53681 0.74752 0.0
H1215 H 0.95799 0.58562 0.74781 0.0
C1216 C 0.83975 0.05324 0.45855 0.0
C1217 C 0.86387 0.03117 0.49005 0.0
C1218 C 0.7992 0.04836 0.46045 0.0
C1219 C 0.78218 0.02175 0.49558 0.0
C1220 C 0.80663 0.99762 0.52616 0.0
C1221 C 0.84722 0.0024 0.52282 0.0
C1222 C 0.77448 0.074 0.42653 0.0
C1223 C 0.78989 0.9695 0.5645 0.0
C1224 C 0.68334 0.06621 0.53258 0.0
C1225 C 0.65779 0.03639 0.51031 0.0
C1226 C 0.72369 0.0602 0.53007 0.0
C1227 C 0.73922 0.0241 0.50349 0.0
C1228 C 0.71351 0.99286 0.48215 0.0
C1229 C 0.67303 0.99907 0.48628 0.0
C1230 C 0.7497 0.09396 0.55416 0.0
C1231 C 0.72875 0.95424 0.4532 0.0
H1232 H 0.8526 0.07595 0.43356 0.0
H1233 H 0.86581 0.98612 0.54784 0.0
H1234 H 0.75736 0.10059 0.44446 0.0
H1235 H 0.79213 0.09079 0.39971 0.0
H1236 H 0.75365 0.05043 0.40992 0.0
H1237 H 0.77543 0.99237 0.58943 0.0
H1238 H 0.76756 0.94572 0.55128 0.0
H1239 H 0.81247 0.9495 0.5827 0.0
H1240 H 0.67164 0.09518 0.55109 0.0
H1241 H 0.6534 0.97634 0.46846 0.0
H1242 H 0.76547 0.11476 0.52855 0.0
H1243 H 0.77169 0.07575 0.57495 0.0
H1244 H 0.73321 0.11737 0.57683 0.0
H1245 H 0.74581 0.96815 0.42429 0.0
H1246 H 0.70513 0.93256 0.43929 0.0
H1247 H 0.7486 0.93253 0.47359 0.0
loop_
_geom_bond_atom_site_label_1
_geom_bond_atom_site_label_2
_geom_bond_distance
_geom_bond_site_symmetry_2
_ccdc_geom_bond_type
Co0 O1 2.216 . S
Co0 O2 2.091 . S
Co0 O4 2.004 . S
Co0 O10 2.021 . S
Co0 O12 2.137 . S
Co0 O13 2.244 . S
O1 Co0 2.216 . S
O1 C8 1.247 . S
O2 Co0 2.091 . S
O2 C8 1.261 . S
C3 O12 1.247 . S
C3 O13 1.272 . S
O4 Co0 2.004 . S
O4 C9 1.259 . S
Co5 O6 2.061 . S
Co5 O11 2.052 . S
Co5 O13 2.135 . S
O6 Co5 2.061 . S
O6 C9 1.235 . S
C7 O10 1.238 . S
C7 O11 1.241 . S
C8 O1 1.247 . S
C8 O2 1.261 . S
C9 O4 1.259 . S
C9 O6 1.235 . S
O10 Co0 2.021 . S
O10 C7 1.238 . S
O11 Co5 2.052 . S
O11 C7 1.241 . S
O12 Co0 2.137 . S
O12 C3 1.247 . S
O13 Co0 2.244 . S
O13 C3 1.272 . S
O13 Co5 2.135 . S
Co14 O15 2.216 1_655 S
Co14 O16 2.091 1_545 S
Co14 O18 2.004 . S
Co14 O24 2.021 1_545 S
Co14 O26 2.137 . S
Co14 O27 2.244 . S
O15 Co14 2.216 1_455 S
O15 C22 1.247 1_545 S
O16 Co14 2.091 1_565 S
O16 C22 1.261 1_655 S
C17 O26 1.247 . S
C17 O27 1.272 . S
O18 Co14 2.004 . S
O18 C23 1.259 . S
Co19 O20 2.061 . S
Co19 O25 2.052 . S
Co19 O27 2.135 . S
O20 Co19 2.061 . S
O20 C23 1.235 . S
C21 O24 1.238 1_545 S
C21 O25 1.241 . S
C22 O15 1.247 1_565 S
C22 O16 1.261 1_455 S
C23 O18 1.259 . S
C23 O20 1.235 . S
O24 Co14 2.021 1_565 S
O24 C21 1.238 1_565 S
O25 Co19 2.052 . S
O25 C21 1.241 . S
O26 Co14 2.137 . S
O26 C17 1.247 . S
O27 Co14 2.244 . S
O27 C17 1.272 . S
O27 Co19 2.135 . S
Co28 O29 2.216 . S
Co28 O30 2.091 . S
Co28 O32 2.004 . S
Co28 O38 2.021 . S
Co28 O40 2.137 . S
Co28 O41 2.244 . S
O29 Co28 2.216 . S
O29 C36 1.247 . S
O30 Co28 2.091 . S
O30 C36 1.261 . S
C31 O40 1.247 . S
C31 O41 1.272 . S
O32 Co28 2.004 . S
O32 C37 1.259 . S
Co33 O34 2.061 . S
Co33 O39 2.052 . S
Co33 O41 2.135 . S
O34 Co33 2.061 . S
O34 C37 1.235 . S
C35 O38 1.238 . S
C35 O39 1.241 . S
C36 O29 1.247 . S
C36 O30 1.261 . S
C37 O32 1.259 . S
C37 O34 1.235 . S
O38 Co28 2.021 . S
O38 C35 1.238 . S
O39 Co33 2.052 . S
O39 C35 1.241 . S
O40 Co28 2.137 . S
O40 C31 1.247 . S
O41 Co28 2.244 . S
O41 C31 1.272 . S
O41 Co33 2.135 . S
Co42 O43 2.216 . S
Co42 O44 2.091 1_565 S
Co42 O46 2.004 . S
Co42 O52 2.021 1_566 S
Co42 O54 2.137 . S
Co42 O55 2.244 1_556 S
O43 Co42 2.216 . S
O43 C50 1.247 1_565 S
O44 Co42 2.091 1_545 S
O44 C50 1.261 . S
C45 O54 1.247 . S
C45 O55 1.272 1_556 S
O46 Co42 2.004 . S
O46 C51 1.259 . S
Co47 O48 2.061 . S
Co47 O53 2.052 . S
Co47 O55 2.135 . S
O48 Co47 2.061 . S
O48 C51 1.235 1_554 S
C49 O52 1.238 1_565 S
C49 O53 1.241 . S
C50 O43 1.247 1_545 S
C50 O44 1.261 . S
C51 O46 1.259 . S
C51 O48 1.235 1_556 S
O52 Co42 2.021 1_544 S
O52 C49 1.238 1_545 S
O53 Co47 2.052 . S
O53 C49 1.241 . S
O54 Co42 2.137 . S
O54 C45 1.247 . S
O55 Co42 2.244 1_554 S
O55 C45 1.272 1_554 S
O55 Co47 2.135 . S
Co56 O57 2.216 . S
Co56 O58 2.091 . S
Co56 O60 2.004 . S
Co56 O66 2.021 . S
Co56 O68 2.137 . S
Co56 O69 2.244 . S
O57 Co56 2.216 . S
O57 C64 1.247 . S
O58 Co56 2.091 . S
O58 C64 1.261 . S
C59 O68 1.247 . S
C59 O69 1.272 . S
O60 Co56 2.004 . S
O60 C65 1.259 . S
Co61 O62 2.061 . S
Co61 O67 2.052 . S
Co61 O69 2.135 . S
O62 Co61 2.061 . S
O62 C65 1.235 . S
C63 O66 1.238 . S
C63 O67 1.241 . S
C64 O57 1.247 . S
C64 O58 1.261 . S
C65 O60 1.259 . S
C65 O62 1.235 . S
O66 Co56 2.021 . S
O66 C63 1.238 . S
O67 Co61 2.052 . S
O67 C63 1.241 . S
O68 Co56 2.137 . S
O68 C59 1.247 . S
O69 Co56 2.244 . S
O69 C59 1.272 . S
O69 Co61 2.135 . S
Co70 O71 2.216 . S
Co70 O72 2.091 1_545 S
Co70 O74 2.004 . S
Co70 O80 2.021 1_545 S
Co70 O82 2.137 . S
Co70 O83 2.244 . S
O71 Co70 2.216 . S
O71 C78 1.247 1_545 S
O72 Co70 2.091 1_565 S
O72 C78 1.261 . S
C73 O82 1.247 . S
C73 O83 1.272 . S
O74 Co70 2.004 . S
O74 C79 1.259 . S
Co75 O76 2.061 . S
Co75 O81 2.052 . S
Co75 O83 2.135 . S
O76 Co75 2.061 . S
O76 C79 1.235 . S
C77 O80 1.238 1_545 S
C77 O81 1.241 . S
C78 O71 1.247 1_565 S
C78 O72 1.261 . S
C79 O74 1.259 . S
C79 O76 1.235 . S
O80 Co70 2.021 1_565 S
O80 C77 1.238 1_565 S
O81 Co75 2.052 . S
O81 C77 1.241 . S
O82 Co70 2.137 . S
O82 C73 1.247 . S
O83 Co70 2.244 . S
O83 C73 1.272 . S
O83 Co75 2.135 . S
Co84 O85 2.216 . S
Co84 O86 2.091 . S
Co84 O88 2.004 . S
Co84 O94 2.021 . S
Co84 O96 2.137 . S
Co84 O97 2.244 . S
O85 Co84 2.216 . S
O85 C92 1.247 . S
O86 Co84 2.091 . S
O86 C92 1.261 . S
C87 O96 1.247 . S
C87 O97 1.272 . S
O88 Co84 2.004 . S
O88 C93 1.259 . S
Co89 O90 2.061 . S
Co89 O95 2.052 . S
Co89 O97 2.135 . S
O90 Co89 2.061 . S
O90 C93 1.235 . S
C91 O94 1.238 . S
C91 O95 1.241 . S
C92 O85 1.247 . S
C92 O86 1.261 . S
C93 O88 1.259 . S
C93 O90 1.235 . S
O94 Co84 2.021 . S
O94 C91 1.238 . S
O95 Co89 2.052 . S
O95 C91 1.241 . S
O96 Co84 2.137 . S
O96 C87 1.247 . S
O97 Co84 2.244 . S
O97 C87 1.272 . S
O97 Co89 2.135 . S
Co98 O99 2.216 1_655 S
Co98 O100 2.091 1_565 S
Co98 O102 2.004 . S
Co98 O108 2.021 1_564 S
Co98 O110 2.137 . S
Co98 O111 2.244 1_554 S
O99 Co98 2.216 1_455 S
O99 C106 1.247 1_565 S
O100 Co98 2.091 1_545 S
O100 C106 1.261 1_655 S
C101 O110 1.247 . S
C101 O111 1.272 1_554 S
O102 Co98 2.004 . S
O102 C107 1.259 . S
Co103 O104 2.061 . S
Co103 O109 2.052 . S
Co103 O111 2.135 . S
O104 Co103 2.061 . S
O104 C107 1.235 1_556 S
C105 O108 1.238 1_565 S
C105 O109 1.241 . S
C106 O99 1.247 1_545 S
C106 O100 1.261 1_455 S
C107 O102 1.259 . S
C107 O104 1.235 1_554 S
O108 Co98 2.021 1_546 S
O108 C105 1.238 1_545 S
O109 Co103 2.052 . S
O109 C105 1.241 . S
O110 Co98 2.137 . S
O110 C101 1.247 . S
O111 Co98 2.244 1_556 S
O111 C101 1.272 1_556 S
O111 Co103 2.135 . S
Co112 O113 2.216 . S
Co112 O114 2.091 . S
Co112 O116 2.004 . S
Co112 O122 2.021 . S
Co112 O124 2.137 . S
Co112 O125 2.244 . S
O113 Co112 2.216 . S
O113 C120 1.247 . S
O114 Co112 2.091 . S
O114 C120 1.261 . S
C115 O124 1.247 . S
C115 O125 1.272 . S
O116 Co112 2.004 . S
O116 C121 1.259 . S
Co117 O118 2.061 . S
Co117 O123 2.052 . S
Co117 O125 2.135 . S
O118 Co117 2.061 . S
O118 C121 1.235 . S
C119 O122 1.238 . S
C119 O123 1.241 . S
C120 O113 1.247 . S
C120 O114 1.261 . S
C121 O116 1.259 . S
C121 O118 1.235 . S
O122 Co112 2.021 . S
O122 C119 1.238 . S
O123 Co117 2.052 . S
O123 C119 1.241 . S
O124 Co112 2.137 . S
O124 C115 1.247 . S
O125 Co112 2.244 . S
O125 C115 1.272 . S
O125 Co117 2.135 . S
Co126 O127 2.216 1_455 S
Co126 O128 2.091 . S
Co126 O130 2.004 . S
Co126 O136 2.021 1_554 S
Co126 O138 2.137 . S
Co126 O139 2.244 1_554 S
O127 Co126 2.216 1_655 S
O127 C134 1.247 . S
O128 Co126 2.091 . S
O128 C134 1.261 1_455 S
C129 O138 1.247 . S
C129 O139 1.272 1_554 S
O130 Co126 2.004 . S
O130 C135 1.259 . S
Co131 O132 2.061 . S
Co131 O137 2.052 . S
Co131 O139 2.135 . S
O132 Co131 2.061 . S
O132 C135 1.235 1_556 S
C133 O136 1.238 . S
C133 O137 1.241 . S
C134 O127 1.247 . S
C134 O128 1.261 1_655 S
C135 O130 1.259 . S
C135 O132 1.235 1_554 S
O136 Co126 2.021 1_556 S
O136 C133 1.238 . S
O137 Co131 2.052 . S
O137 C133 1.241 . S
O138 Co126 2.137 . S
O138 C129 1.247 . S
O139 Co126 2.244 1_556 S
O139 C129 1.272 1_556 S
O139 Co131 2.135 . S
Co140 O141 2.216 . S
Co140 O142 2.091 . S
Co140 O144 2.004 . S
Co140 O150 2.021 . S
Co140 O152 2.137 . S
Co140 O153 2.244 . S
O141 Co140 2.216 . S
O141 C148 1.247 . S
O142 Co140 2.091 . S
O142 C148 1.261 . S
C143 O152 1.247 . S
C143 O153 1.272 . S
O144 Co140 2.004 . S
O144 C149 1.259 . S
Co145 O146 2.061 . S
Co145 O151 2.052 . S
Co145 O153 2.135 . S
O146 Co145 2.061 . S
O146 C149 1.235 . S
C147 O150 1.238 . S
C147 O151 1.241 . S
C148 O141 1.247 . S
C148 O142 1.261 . S
C149 O144 1.259 . S
C149 O146 1.235 . S
O150 Co140 2.021 . S
O150 C147 1.238 . S
O151 Co145 2.052 . S
O151 C147 1.241 . S
O152 Co140 2.137 . S
O152 C143 1.247 . S
O153 Co140 2.244 . S
O153 C143 1.272 . S
O153 Co145 2.135 . S
Co154 O155 2.216 1_455 S
Co154 O156 2.091 . S
Co154 O158 2.004 . S
Co154 O164 2.021 . S
Co154 O166 2.137 . S
Co154 O167 2.244 . S
O155 Co154 2.216 1_655 S
O155 C162 1.247 . S
O156 Co154 2.091 . S
O156 C162 1.261 1_455 S
C157 O166 1.247 . S
C157 O167 1.272 . S
O158 Co154 2.004 . S
O158 C163 1.259 . S
Co159 O160 2.061 . S
Co159 O165 2.052 . S
Co159 O167 2.135 . S
O160 Co159 2.061 . S
O160 C163 1.235 . S
C161 O164 1.238 . S
C161 O165 1.241 . S
C162 O155 1.247 . S
C162 O156 1.261 1_655 S
C163 O158 1.259 . S
C163 O160 1.235 . S
O164 Co154 2.021 . S
O164 C161 1.238 . S
O165 Co159 2.052 . S
O165 C161 1.241 . S
O166 Co154 2.137 . S
O166 C157 1.247 . S
O167 Co154 2.244 . S
O167 C157 1.272 . S
O167 Co159 2.135 . S
Co168 O169 2.216 . S
Co168 O170 2.091 . S
Co168 O172 2.004 . S
Co168 O178 2.021 1_556 S
Co168 O180 2.137 . S
Co168 O181 2.244 1_556 S
O169 Co168 2.216 . S
O169 C176 1.247 . S
O170 Co168 2.091 . S
O170 C176 1.261 . S
C171 O180 1.247 . S
C171 O181 1.272 1_556 S
O172 Co168 2.004 . S
O172 C177 1.259 . S
Co173 O174 2.061 . S
Co173 O179 2.052 . S
Co173 O181 2.135 . S
O174 Co173 2.061 . S
O174 C177 1.235 1_554 S
C175 O178 1.238 . S
C175 O179 1.241 . S
C176 O169 1.247 . S
C176 O170 1.261 . S
C177 O172 1.259 . S
C177 O174 1.235 1_556 S
O178 Co168 2.021 1_554 S
O178 C175 1.238 . S
O179 Co173 2.052 . S
O179 C175 1.241 . S
O180 Co168 2.137 . S
O180 C171 1.247 . S
O181 Co168 2.244 1_554 S
O181 C171 1.272 1_554 S
O181 Co173 2.135 . S
Co182 O183 2.216 . S
Co182 O184 2.091 . S
Co182 O186 2.004 . S
Co182 O192 2.021 . S
Co182 O194 2.137 . S
Co182 O195 2.244 . S
O183 Co182 2.216 . S
O183 C190 1.247 . S
O184 Co182 2.091 . S
O184 C190 1.261 . S
C185 O194 1.247 . S
C185 O195 1.272 . S
O186 Co182 2.004 . S
O186 C191 1.259 . S
Co187 O188 2.061 . S
Co187 O193 2.052 . S
Co187 O195 2.135 . S
O188 Co187 2.061 . S
O188 C191 1.235 . S
C189 O192 1.238 . S
C189 O193 1.241 . S
C190 O183 1.247 . S
C190 O184 1.261 . S
C191 O186 1.259 . S
C191 O188 1.235 . S
O192 Co182 2.021 . S
O192 C189 1.238 . S
O193 Co187 2.052 . S
O193 C189 1.241 . S
O194 Co182 2.137 . S
O194 C185 1.247 . S
O195 Co182 2.244 . S
O195 C185 1.272 . S
O195 Co187 2.135 . S
Co196 O197 2.216 . S
Co196 O198 2.091 . S
Co196 O200 2.004 . S
Co196 O206 2.021 . S
Co196 O208 2.137 . S
Co196 O209 2.244 . S
O197 Co196 2.216 . S
O197 C204 1.247 . S
O198 Co196 2.091 . S
O198 C204 1.261 . S
C199 O208 1.247 . S
C199 O209 1.272 . S
O200 Co196 2.004 . S
O200 C205 1.259 . S
Co201 O202 2.061 . S
Co201 O207 2.052 . S
Co201 O209 2.135 . S
O202 Co201 2.061 . S
O202 C205 1.235 . S
C203 O206 1.238 . S
C203 O207 1.241 . S
C204 O197 1.247 . S
C204 O198 1.261 . S
C205 O200 1.259 . S
C205 O202 1.235 . S
O206 Co196 2.021 . S
O206 C203 1.238 . S
O207 Co201 2.052 . S
O207 C203 1.241 . S
O208 Co196 2.137 . S
O208 C199 1.247 . S
O209 Co196 2.244 . S
O209 C199 1.272 . S
O209 Co201 2.135 . S
Co210 O211 2.216 . S
Co210 O212 2.091 . S
Co210 O214 2.004 . S
Co210 O220 2.021 . S
Co210 O222 2.137 . S
Co210 O223 2.244 . S
O211 Co210 2.216 . S
O211 C218 1.247 . S
O212 Co210 2.091 . S
O212 C218 1.261 . S
C213 O222 1.247 . S
C213 O223 1.272 . S
O214 Co210 2.004 . S
O214 C219 1.259 . S
Co215 O216 2.061 . S
Co215 O221 2.052 . S
Co215 O223 2.135 . S
O216 Co215 2.061 . S
O216 C219 1.235 . S
C217 O220 1.238 . S
C217 O221 1.241 . S
C218 O211 1.247 . S
C218 O212 1.261 . S
C219 O214 1.259 . S
C219 O216 1.235 . S
O220 Co210 2.021 . S
O220 C217 1.238 . S
O221 Co215 2.052 . S
O221 C217 1.241 . S
O222 Co210 2.137 . S
O222 C213 1.247 . S
O223 Co210 2.244 . S
O223 C213 1.272 . S
O223 Co215 2.135 . S
C224 C225 1.391 . S
C224 C226 1.394 . S
C224 H240 0.931 . S
C225 C224 1.391 . S
C225 C229 1.376 . S
C226 C224 1.394 . S
C226 C227 1.369 . S
C226 C230 1.531 . S
C227 C226 1.369 . S
C227 C228 1.410 . S
C227 C235 1.503 . S
C228 C227 1.410 . S
C228 C229 1.392 . S
C228 C231 1.511 . S
C229 C225 1.376 . S
C229 C228 1.392 . S
C229 H241 0.929 . S
C230 C226 1.531 . S
C230 H242 0.960 . S
C230 H243 0.962 . S
C230 H244 0.960 . S
C231 C228 1.511 . S
C231 H245 0.961 . S
C231 H246 0.961 . S
C231 H247 0.961 . S
C232 C233 1.370 . S
C232 C234 1.363 . S
C232 H248 0.931 . S
C233 C232 1.370 . S
C233 C237 1.408 . S
C234 C232 1.363 . S
C234 C235 1.370 . S
C234 C238 1.524 . S
C235 C227 1.503 . S
C235 C234 1.370 . S
C235 C236 1.403 . S
C236 C235 1.403 . S
C236 C237 1.404 . S
C236 C239 1.539 . S
C237 C233 1.408 . S
C237 C236 1.404 . S
C237 H249 0.930 . S
C238 C234 1.524 . S
C238 H250 0.956 . S
C238 H251 0.961 . S
C238 H252 0.961 . S
C239 C236 1.539 . S
C239 H253 0.958 . S
C239 H254 0.961 . S
C239 H255 0.960 . S
H240 C224 0.931 . S
H241 C229 0.929 . S
H242 C230 0.960 . S
H243 C230 0.962 . S
H244 C230 0.960 . S
H245 C231 0.961 . S
H246 C231 0.961 . S
H247 C231 0.961 . S
H248 C232 0.931 . S
H249 C237 0.930 . S
H250 C238 0.956 . S
H251 C238 0.961 . S
H252 C238 0.961 . S
H253 C239 0.958 . S
H254 C239 0.961 . S
H255 C239 0.960 . S
C256 C257 1.391 . S
C256 C258 1.394 . S
C256 H272 0.931 . S
C257 C256 1.391 . S
C257 C261 1.376 . S
C258 C256 1.394 . S
C258 C259 1.369 . S
C258 C262 1.531 . S
C259 C258 1.369 . S
C259 C260 1.410 . S
C259 C267 1.503 . S
C260 C259 1.410 . S
C260 C261 1.392 . S
C260 C263 1.511 . S
C261 C257 1.376 . S
C261 C260 1.392 . S
C261 H273 0.929 . S
C262 C258 1.531 . S
C262 H274 0.960 . S
C262 H275 0.962 . S
C262 H276 0.960 . S
C263 C260 1.511 . S
C263 H277 0.961 . S
C263 H278 0.961 . S
C263 H279 0.961 . S
C264 C265 1.370 . S
C264 C266 1.363 . S
C264 H280 0.931 . S
C265 C264 1.370 . S
C265 C269 1.408 . S
C266 C264 1.363 . S
C266 C267 1.370 . S
C266 C270 1.524 . S
C267 C259 1.503 . S
C267 C266 1.370 . S
C267 C268 1.403 . S
C268 C267 1.403 . S
C268 C269 1.404 . S
C268 C271 1.539 . S
C269 C265 1.408 . S
C269 C268 1.404 . S
C269 H281 0.930 . S
C270 C266 1.524 . S
C270 H282 0.956 . S
C270 H283 0.961 . S
C270 H284 0.961 . S
C271 C268 1.539 . S
C271 H285 0.958 . S
C271 H286 0.961 . S
C271 H287 0.960 . S
H272 C256 0.931 . S
H273 C261 0.929 . S
H274 C262 0.960 . S
H275 C262 0.962 . S
H276 C262 0.960 . S
H277 C263 0.961 . S
H278 C263 0.961 . S
H279 C263 0.961 . S
H280 C264 0.931 . S
H281 C269 0.930 . S
H282 C270 0.956 . S
H283 C270 0.961 . S
H284 C270 0.961 . S
H285 C271 0.958 . S
H286 C271 0.961 . S
H287 C271 0.960 . S
C288 C289 1.391 . S
C288 C290 1.394 . S
C288 H304 0.931 . S
C289 C288 1.391 . S
C289 C293 1.376 . S
C290 C288 1.394 . S
C290 C291 1.369 . S
C290 C294 1.531 . S
C291 C290 1.369 . S
C291 C292 1.410 . S
C291 C299 1.503 . S
C292 C291 1.410 . S
C292 C293 1.392 . S
C292 C295 1.511 . S
C293 C289 1.376 . S
C293 C292 1.392 . S
C293 H305 0.929 . S
C294 C290 1.531 . S
C294 H306 0.960 . S
C294 H307 0.962 . S
C294 H308 0.960 . S
C295 C292 1.511 . S
C295 H309 0.961 . S
C295 H310 0.961 . S
C295 H311 0.961 . S
C296 C297 1.370 . S
C296 C298 1.363 . S
C296 H312 0.931 . S
C297 C296 1.370 . S
C297 C301 1.408 . S
C298 C296 1.363 . S
C298 C299 1.370 . S
C298 C302 1.524 . S
C299 C291 1.503 . S
C299 C298 1.370 . S
C299 C300 1.403 . S
C300 C299 1.403 . S
C300 C301 1.404 . S
C300 C303 1.539 . S
C301 C297 1.408 . S
C301 C300 1.404 . S
C301 H313 0.930 . S
C302 C298 1.524 . S
C302 H314 0.956 . S
C302 H315 0.961 . S
C302 H316 0.961 . S
C303 C300 1.539 . S
C303 H317 0.958 . S
C303 H318 0.961 . S
C303 H319 0.960 . S
H304 C288 0.931 . S
H305 C293 0.929 . S
H306 C294 0.960 . S
H307 C294 0.962 . S
H308 C294 0.960 . S
H309 C295 0.961 . S
H310 C295 0.961 . S
H311 C295 0.961 . S
H312 C296 0.931 . S
H313 C301 0.930 . S
H314 C302 0.956 . S
H315 C302 0.961 . S
H316 C302 0.961 . S
H317 C303 0.958 . S
H318 C303 0.961 . S
H319 C303 0.960 . S
C320 C321 1.391 . S
C320 C322 1.394 . S
C320 H336 0.931 . S
C321 C320 1.391 . S
C321 C325 1.376 . S
C322 C320 1.394 . S
C322 C323 1.369 . S
C322 C326 1.531 . S
C323 C322 1.369 . S
C323 C324 1.410 . S
C323 C331 1.503 . S
C324 C323 1.410 . S
C324 C325 1.392 . S
C324 C327 1.511 . S
C325 C321 1.376 . S
C325 C324 1.392 . S
C325 H337 0.929 . S
C326 C322 1.531 . S
C326 H338 0.960 . S
C326 H339 0.962 . S
C326 H340 0.960 . S
C327 C324 1.511 . S
C327 H341 0.961 . S
C327 H342 0.961 . S
C327 H343 0.961 . S
C328 C329 1.370 . S
C328 C330 1.363 . S
C328 H344 0.931 . S
C329 C328 1.370 . S
C329 C333 1.408 . S
C330 C328 1.363 . S
C330 C331 1.370 . S
C330 C334 1.524 . S
C331 C323 1.503 . S
C331 C330 1.370 . S
C331 C332 1.403 . S
C332 C331 1.403 . S
C332 C333 1.404 . S
C332 C335 1.539 . S
C333 C329 1.408 . S
C333 C332 1.404 . S
C333 H345 0.930 . S
C334 C330 1.524 . S
C334 H346 0.956 . S
C334 H347 0.961 . S
C334 H348 0.961 . S
C335 C332 1.539 . S
C335 H349 0.958 . S
C335 H350 0.961 . S
C335 H351 0.960 . S
H336 C320 0.931 . S
H337 C325 0.929 . S
H338 C326 0.960 . S
H339 C326 0.962 . S
H340 C326 0.960 . S
H341 C327 0.961 . S
H342 C327 0.961 . S
H343 C327 0.961 . S
H344 C328 0.931 . S
H345 C333 0.930 . S
H346 C334 0.956 . S
H347 C334 0.961 . S
H348 C334 0.961 . S
H349 C335 0.958 . S
H350 C335 0.961 . S
H351 C335 0.960 . S
C352 C353 1.391 . S
C352 C354 1.394 . S
C352 H368 0.931 . S
C353 C352 1.391 . S
C353 C357 1.376 . S
C354 C352 1.394 . S
C354 C355 1.369 . S
C354 C358 1.531 . S
C355 C354 1.369 . S
C355 C356 1.410 . S
C355 C363 1.503 . S
C356 C355 1.410 . S
C356 C357 1.392 . S
C356 C359 1.511 . S
C357 C353 1.376 . S
C357 C356 1.392 . S
C357 H369 0.929 . S
C358 C354 1.531 . S
C358 H370 0.960 . S
C358 H371 0.962 . S
C358 H372 0.960 . S
C359 C356 1.511 . S
C359 H373 0.961 . S
C359 H374 0.961 . S
C359 H375 0.961 . S
C360 C361 1.370 . S
C360 C362 1.363 . S
C360 H376 0.931 . S
C361 C360 1.370 . S
C361 C365 1.408 . S
C362 C360 1.363 . S
C362 C363 1.370 . S
C362 C366 1.524 . S
C363 C355 1.503 . S
C363 C362 1.370 . S
C363 C364 1.403 . S
C364 C363 1.403 . S
C364 C365 1.404 . S
C364 C367 1.539 . S
C365 C361 1.408 . S
C365 C364 1.404 . S
C365 H377 0.930 . S
C366 C362 1.524 . S
C366 H378 0.956 . S
C366 H379 0.961 . S
C366 H380 0.961 . S
C367 C364 1.539 . S
C367 H381 0.958 . S
C367 H382 0.961 . S
C367 H383 0.960 . S
H368 C352 0.931 . S
H369 C357 0.929 . S
H370 C358 0.960 . S
H371 C358 0.962 . S
H372 C358 0.960 . S
H373 C359 0.961 . S
H374 C359 0.961 . S
H375 C359 0.961 . S
H376 C360 0.931 . S
H377 C365 0.930 . S
H378 C366 0.956 . S
H379 C366 0.961 . S
H380 C366 0.961 . S
H381 C367 0.958 . S
H382 C367 0.961 . S
H383 C367 0.960 . S
C384 C385 1.391 . S
C384 C386 1.394 . S
C384 H400 0.931 . S
C385 C384 1.391 . S
C385 C389 1.376 . S
C386 C384 1.394 . S
C386 C387 1.369 . S
C386 C390 1.531 . S
C387 C386 1.369 . S
C387 C388 1.410 . S
C387 C395 1.503 . S
C388 C387 1.410 . S
C388 C389 1.392 . S
C388 C391 1.511 . S
C389 C385 1.376 . S
C389 C388 1.392 . S
C389 H401 0.929 . S
C390 C386 1.531 . S
C390 H402 0.960 . S
C390 H403 0.962 . S
C390 H404 0.960 . S
C391 C388 1.511 . S
C391 H405 0.961 . S
C391 H406 0.961 . S
C391 H407 0.961 . S
C392 C393 1.370 . S
C392 C394 1.363 . S
C392 H408 0.931 . S
C393 C392 1.370 . S
C393 C397 1.408 . S
C394 C392 1.363 . S
C394 C395 1.370 . S
C394 C398 1.524 . S
C395 C387 1.503 . S
C395 C394 1.370 . S
C395 C396 1.403 . S
C396 C395 1.403 . S
C396 C397 1.404 . S
C396 C399 1.539 . S
C397 C393 1.408 . S
C397 C396 1.404 . S
C397 H409 0.930 . S
C398 C394 1.524 . S
C398 H410 0.956 . S
C398 H411 0.961 . S
C398 H412 0.961 . S
C399 C396 1.539 . S
C399 H413 0.958 . S
C399 H414 0.961 . S
C399 H415 0.960 . S
H400 C384 0.931 . S
H401 C389 0.929 . S
H402 C390 0.960 . S
H403 C390 0.962 . S
H404 C390 0.960 . S
H405 C391 0.961 . S
H406 C391 0.961 . S
H407 C391 0.961 . S
H408 C392 0.931 . S
H409 C397 0.930 . S
H410 C398 0.956 . S
H411 C398 0.961 . S
H412 C398 0.961 . S
H413 C399 0.958 . S
H414 C399 0.961 . S
H415 C399 0.960 . S
C416 C417 1.391 . S
C416 C418 1.394 . S
C416 H432 0.931 . S
C417 C416 1.391 . S
C417 C421 1.376 . S
C418 C416 1.394 . S
C418 C419 1.369 . S
C418 C422 1.531 . S
C419 C418 1.369 . S
C419 C420 1.410 . S
C419 C427 1.503 . S
C420 C419 1.410 . S
C420 C421 1.392 . S
C420 C423 1.511 . S
C421 C417 1.376 . S
C421 C420 1.392 . S
C421 H433 0.929 . S
C422 C418 1.531 . S
C422 H434 0.960 . S
C422 H435 0.962 . S
C422 H436 0.960 . S
C423 C420 1.511 . S
C423 H437 0.961 . S
C423 H438 0.961 . S
C423 H439 0.961 . S
C424 C425 1.370 . S
C424 C426 1.363 . S
C424 H440 0.931 . S
C425 C424 1.370 . S
C425 C429 1.408 . S
C426 C424 1.363 . S
C426 C427 1.370 . S
C426 C430 1.524 . S
C427 C419 1.503 . S
C427 C426 1.370 . S
C427 C428 1.403 . S
C428 C427 1.403 . S
C428 C429 1.404 . S
C428 C431 1.539 . S
C429 C425 1.408 . S
C429 C428 1.404 . S
C429 H441 0.930 . S
C430 C426 1.524 . S
C430 H442 0.956 . S
C430 H443 0.961 . S
C430 H444 0.961 . S
C431 C428 1.539 . S
C431 H445 0.958 . S
C431 H446 0.961 . S
C431 H447 0.960 . S
H432 C416 0.931 . S
H433 C421 0.929 . S
H434 C422 0.960 . S
H435 C422 0.962 . S
H436 C422 0.960 . S
H437 C423 0.961 . S
H438 C423 0.961 . S
H439 C423 0.961 . S
H440 C424 0.931 . S
H441 C429 0.930 . S
H442 C430 0.956 . S
H443 C430 0.961 . S
H444 C430 0.961 . S
H445 C431 0.958 . S
H446 C431 0.961 . S
H447 C431 0.960 . S
C448 C449 1.391 . S
C448 C450 1.394 . S
C448 H464 0.931 . S
C449 C448 1.391 . S
C449 C453 1.376 . S
C450 C448 1.394 . S
C450 C451 1.369 . S
C450 C454 1.531 . S
C451 C450 1.369 . S
C451 C452 1.410 . S
C451 C459 1.503 . S
C452 C451 1.410 . S
C452 C453 1.392 . S
C452 C455 1.511 . S
C453 C449 1.376 . S
C453 C452 1.392 . S
C453 H465 0.929 . S
C454 C450 1.531 . S
C454 H466 0.960 . S
C454 H467 0.962 . S
C454 H468 0.960 . S
C455 C452 1.511 . S
C455 H469 0.961 . S
C455 H470 0.961 . S
C455 H471 0.961 . S
C456 C457 1.370 . S
C456 C458 1.363 . S
C456 H472 0.931 . S
C457 C456 1.370 . S
C457 C461 1.408 . S
C458 C456 1.363 . S
C458 C459 1.370 . S
C458 C462 1.524 . S
C459 C451 1.503 . S
C459 C458 1.370 . S
C459 C460 1.403 . S
C460 C459 1.403 . S
C460 C461 1.404 . S
C460 C463 1.539 . S
C461 C457 1.408 . S
C461 C460 1.404 . S
C461 H473 0.930 . S
C462 C458 1.524 . S
C462 H474 0.956 . S
C462 H475 0.961 . S
C462 H476 0.961 . S
C463 C460 1.539 . S
C463 H477 0.958 . S
C463 H478 0.961 . S
C463 H479 0.960 . S
H464 C448 0.931 . S
H465 C453 0.929 . S
H466 C454 0.960 . S
H467 C454 0.962 . S
H468 C454 0.960 . S
H469 C455 0.961 . S
H470 C455 0.961 . S
H471 C455 0.961 . S
H472 C456 0.931 . S
H473 C461 0.930 . S
H474 C462 0.956 . S
H475 C462 0.961 . S
H476 C462 0.961 . S
H477 C463 0.958 . S
H478 C463 0.961 . S
H479 C463 0.960 . S
C480 C481 1.391 . S
C480 C482 1.394 . S
C480 H496 0.931 . S
C481 C480 1.391 . S
C481 C485 1.376 . S
C482 C480 1.394 . S
C482 C483 1.369 . S
C482 C486 1.531 . S
C483 C482 1.369 . S
C483 C484 1.410 . S
C483 C491 1.503 . S
C484 C483 1.410 . S
C484 C485 1.392 . S
C484 C487 1.511 . S
C485 C481 1.376 . S
C485 C484 1.392 . S
C485 H497 0.929 . S
C486 C482 1.531 . S
C486 H498 0.960 . S
C486 H499 0.962 . S
C486 H500 0.960 . S
C487 C484 1.511 . S
C487 H501 0.961 . S
C487 H502 0.961 . S
C487 H503 0.961 . S
C488 C489 1.370 . S
C488 C490 1.363 . S
C488 H504 0.931 . S
C489 C488 1.370 . S
C489 C493 1.408 . S
C490 C488 1.363 . S
C490 C491 1.370 . S
C490 C494 1.524 . S
C491 C483 1.503 . S
C491 C490 1.370 . S
C491 C492 1.403 . S
C492 C491 1.403 . S
C492 C493 1.404 . S
C492 C495 1.539 . S
C493 C489 1.408 . S
C493 C492 1.404 . S
C493 H505 0.930 . S
C494 C490 1.524 . S
C494 H506 0.956 . S
C494 H507 0.961 . S
C494 H508 0.961 . S
C495 C492 1.539 . S
C495 H509 0.958 . S
C495 H510 0.961 . S
C495 H511 0.960 . S
H496 C480 0.931 . S
H497 C485 0.929 . S
H498 C486 0.960 . S
H499 C486 0.962 . S
H500 C486 0.960 . S
H501 C487 0.961 . S
H502 C487 0.961 . S
H503 C487 0.961 . S
H504 C488 0.931 . S
H505 C493 0.930 . S
H506 C494 0.956 . S
H507 C494 0.961 . S
H508 C494 0.961 . S
H509 C495 0.958 . S
H510 C495 0.961 . S
H511 C495 0.960 . S
C512 C513 1.391 . S
C512 C514 1.394 . S
C512 H528 0.931 . S
C513 C512 1.391 . S
C513 C517 1.376 1_655 S
C514 C512 1.394 . S
C514 C515 1.369 . S
C514 C518 1.531 . S
C515 C514 1.369 . S
C515 C516 1.407 1_645 S
C515 C523 1.503 . S
C516 C515 1.407 1_465 S
C516 C517 1.392 1_565 S
C516 C519 1.514 . S
C517 C513 1.376 1_455 S
C517 C516 1.392 1_545 S
C517 H529 0.929 1_545 S
C518 C514 1.531 . S
C518 H530 0.960 . S
C518 H531 0.962 . S
C518 H532 0.960 . S
C519 C516 1.514 . S
C519 H533 0.961 . S
C519 H534 0.961 . S
C519 H535 0.961 1_565 S
C520 C521 1.370 . S
C520 C522 1.363 . S
C520 H536 0.931 . S
C521 C520 1.370 . S
C521 C525 1.408 1_565 S
C522 C520 1.363 . S
C522 C523 1.370 1_565 S
C522 C526 1.524 . S
C523 C515 1.503 . S
C523 C522 1.370 1_545 S
C523 C524 1.403 . S
C524 C523 1.403 . S
C524 C525 1.404 . S
C524 C527 1.539 1_655 S
C525 C521 1.408 1_545 S
C525 C524 1.404 . S
C525 H537 0.930 . S
C526 C522 1.524 . S
C526 H538 0.956 . S
C526 H539 0.961 . S
C526 H540 0.961 . S
C527 C524 1.539 1_455 S
C527 H541 0.958 1_455 S
C527 H542 0.961 . S
C527 H543 0.960 . S
H528 C512 0.931 . S
H529 C517 0.929 1_565 S
H530 C518 0.960 . S
H531 C518 0.962 . S
H532 C518 0.960 . S
H533 C519 0.961 . S
H534 C519 0.961 . S
H535 C519 0.961 1_545 S
H536 C520 0.931 . S
H537 C525 0.930 . S
H538 C526 0.956 . S
H539 C526 0.961 . S
H540 C526 0.961 . S
H541 C527 0.958 1_655 S
H542 C527 0.961 . S
H543 C527 0.960 . S
C544 C545 1.391 . S
C544 C546 1.394 . S
C544 H560 0.931 . S
C545 C544 1.391 . S
C545 C549 1.376 . S
C546 C544 1.394 . S
C546 C547 1.369 . S
C546 C550 1.531 . S
C547 C546 1.369 . S
C547 C548 1.410 . S
C547 C555 1.503 1_556 S
C548 C547 1.410 . S
C548 C549 1.392 . S
C548 C551 1.511 . S
C549 C545 1.376 . S
C549 C548 1.392 . S
C549 H561 0.929 . S
C550 C546 1.531 . S
C550 H562 0.960 1_556 S
C550 H563 0.962 . S
C550 H564 0.960 . S
C551 C548 1.511 . S
C551 H565 0.961 . S
C551 H566 0.961 . S
C551 H567 0.961 . S
C552 C553 1.370 . S
C552 C554 1.363 . S
C552 H568 0.931 . S
C553 C552 1.370 . S
C553 C557 1.408 . S
C554 C552 1.363 . S
C554 C555 1.370 . S
C554 C558 1.524 . S
C555 C547 1.503 1_554 S
C555 C554 1.370 . S
C555 C556 1.403 . S
C556 C555 1.403 . S
C556 C557 1.404 . S
C556 C559 1.539 . S
C557 C553 1.408 . S
C557 C556 1.404 . S
C557 H569 0.930 . S
C558 C554 1.524 . S
C558 H570 0.956 . S
C558 H571 0.961 . S
C558 H572 0.961 . S
C559 C556 1.539 . S
C559 H573 0.958 . S
C559 H574 0.961 . S
C559 H575 0.960 1_554 S
H560 C544 0.931 . S
H561 C549 0.929 . S
H562 C550 0.960 1_554 S
H563 C550 0.962 . S
H564 C550 0.960 . S
H565 C551 0.961 . S
H566 C551 0.961 . S
H567 C551 0.961 . S
H568 C552 0.931 . S
H569 C557 0.930 . S
H570 C558 0.956 . S
H571 C558 0.961 . S
H572 C558 0.961 . S
H573 C559 0.958 . S
H574 C559 0.961 . S
H575 C559 0.960 1_556 S
C576 C577 1.391 1_545 S
C576 C578 1.394 . S
C576 H592 0.931 . S
C577 C576 1.391 1_565 S
C577 C581 1.376 . S
C578 C576 1.394 . S
C578 C579 1.369 . S
C578 C582 1.531 . S
C579 C578 1.369 . S
C579 C580 1.410 1_545 S
C579 C587 1.503 . S
C580 C579 1.410 1_565 S
C580 C581 1.392 . S
C580 C583 1.511 . S
C581 C577 1.376 . S
C581 C580 1.392 . S
C581 H593 0.929 . S
C582 C578 1.531 . S
C582 H594 0.960 . S
C582 H595 0.962 . S
C582 H596 0.960 . S
C583 C580 1.511 . S
C583 H597 0.961 . S
C583 H598 0.961 . S
C583 H599 0.961 . S
C584 C585 1.370 1_565 S
C584 C586 1.363 . S
C584 H600 0.931 . S
C585 C584 1.370 1_545 S
C585 C589 1.408 . S
C586 C584 1.363 . S
C586 C587 1.370 1_565 S
C586 C590 1.524 . S
C587 C579 1.503 . S
C587 C586 1.370 1_545 S
C587 C588 1.403 . S
C588 C587 1.403 . S
C588 C589 1.404 . S
C588 C591 1.539 . S
C589 C585 1.408 . S
C589 C588 1.404 . S
C589 H601 0.930 . S
C590 C586 1.524 . S
C590 H602 0.956 . S
C590 H603 0.961 . S
C590 H604 0.961 . S
C591 C588 1.539 . S
C591 H605 0.958 . S
C591 H606 0.961 . S
C591 H607 0.960 . S
H592 C576 0.931 . S
H593 C581 0.929 . S
H594 C582 0.960 . S
H595 C582 0.962 . S
H596 C582 0.960 . S
H597 C583 0.961 . S
H598 C583 0.961 . S
H599 C583 0.961 . S
H600 C584 0.931 . S
H601 C589 0.930 . S
H602 C590 0.956 . S
H603 C590 0.961 . S
H604 C590 0.961 . S
H605 C591 0.958 . S
H606 C591 0.961 . S
H607 C591 0.960 . S
C608 C609 1.391 . S
C608 C610 1.394 . S
C608 H624 0.931 . S
C609 C608 1.391 . S
C609 C613 1.376 . S
C610 C608 1.394 . S
C610 C611 1.369 . S
C610 C614 1.531 . S
C611 C610 1.369 . S
C611 C612 1.410 . S
C611 C619 1.503 . S
C612 C611 1.410 . S
C612 C613 1.392 . S
C612 C615 1.511 . S
C613 C609 1.376 . S
C613 C612 1.392 . S
C613 H625 0.929 . S
C614 C610 1.531 . S
C614 H626 0.960 . S
C614 H627 0.962 . S
C614 H628 0.960 . S
C615 C612 1.511 . S
C615 H629 0.961 . S
C615 H630 0.961 . S
C615 H631 0.961 . S
C616 C617 1.370 . S
C616 C618 1.363 . S
C616 H632 0.931 . S
C617 C616 1.370 . S
C617 C621 1.408 . S
C618 C616 1.363 . S
C618 C619 1.370 . S
C618 C622 1.524 . S
C619 C611 1.503 . S
C619 C618 1.370 . S
C619 C620 1.403 . S
C620 C619 1.403 . S
C620 C621 1.404 . S
C620 C623 1.539 . S
C621 C617 1.408 . S
C621 C620 1.404 . S
C621 H633 0.930 . S
C622 C618 1.524 . S
C622 H634 0.956 . S
C622 H635 0.961 . S
C622 H636 0.961 . S
C623 C620 1.539 . S
C623 H637 0.958 . S
C623 H638 0.961 . S
C623 H639 0.960 . S
H624 C608 0.931 . S
H625 C613 0.929 . S
H626 C614 0.960 . S
H627 C614 0.962 . S
H628 C614 0.960 . S
H629 C615 0.961 . S
H630 C615 0.961 . S
H631 C615 0.961 . S
H632 C616 0.931 . S
H633 C621 0.930 . S
H634 C622 0.956 . S
H635 C622 0.961 . S
H636 C622 0.961 . S
H637 C623 0.958 . S
H638 C623 0.961 . S
H639 C623 0.960 . S
C640 C641 1.391 1_655 S
C640 C642 1.394 . S
C640 H656 0.931 . S
C641 C640 1.391 1_455 S
C641 C645 1.376 . S
C642 C640 1.394 . S
C642 C643 1.369 1_655 S
C642 C646 1.531 . S
C643 C642 1.369 1_455 S
C643 C644 1.410 . S
C643 C651 1.503 1_455 S
C644 C643 1.410 . S
C644 C645 1.392 . S
C644 C647 1.511 . S
C645 C641 1.376 . S
C645 C644 1.392 . S
C645 H657 0.929 . S
C646 C642 1.531 . S
C646 H658 0.960 . S
C646 H659 0.962 . S
C646 H660 0.960 . S
C647 C644 1.511 . S
C647 H661 0.961 . S
C647 H662 0.961 . S
C647 H663 0.961 . S
C648 C649 1.370 . S
C648 C650 1.363 . S
C648 H664 0.931 . S
C649 C648 1.370 . S
C649 C653 1.398 1_655 S
C650 C648 1.363 . S
C650 C651 1.370 . S
C650 C654 1.524 . S
C651 C643 1.503 1_655 S
C651 C650 1.370 . S
C651 C652 1.403 1_655 S
C652 C651 1.403 1_455 S
C652 C653 1.409 . S
C652 C655 1.539 . S
C653 C649 1.398 1_455 S
C653 C652 1.409 . S
C653 H665 0.936 . S
C654 C650 1.524 . S
C654 H666 0.956 . S
C654 H667 0.961 . S
C654 H668 0.961 . S
C655 C652 1.539 . S
C655 H669 0.958 . S
C655 H670 0.961 . S
C655 H671 0.960 . S
H656 C640 0.931 . S
H657 C645 0.929 . S
H658 C646 0.960 . S
H659 C646 0.962 . S
H660 C646 0.960 . S
H661 C647 0.961 . S
H662 C647 0.961 . S
H663 C647 0.961 . S
H664 C648 0.931 . S
H665 C653 0.936 . S
H666 C654 0.956 . S
H667 C654 0.961 . S
H668 C654 0.961 . S
H669 C655 0.958 . S
H670 C655 0.961 . S
H671 C655 0.960 . S
C672 C673 1.391 . S
C672 C674 1.394 . S
C672 H688 0.931 . S
C673 C672 1.391 . S
C673 C677 1.376 . S
C674 C672 1.394 . S
C674 C675 1.369 . S
C674 C678 1.531 . S
C675 C674 1.369 . S
C675 C676 1.410 . S
C675 C683 1.503 1_655 S
C676 C675 1.410 . S
C676 C677 1.392 . S
C676 C679 1.511 . S
C677 C673 1.376 . S
C677 C676 1.392 . S
C677 H689 0.929 . S
C678 C674 1.531 . S
C678 H690 0.960 . S
C678 H691 0.962 . S
C678 H692 0.960 . S
C679 C676 1.511 . S
C679 H693 0.961 . S
C679 H694 0.961 1_655 S
C679 H695 0.961 . S
C680 C681 1.370 . S
C680 C682 1.363 . S
C680 H696 0.931 . S
C681 C680 1.370 . S
C681 C685 1.408 . S
C682 C680 1.363 . S
C682 C683 1.370 . S
C682 C686 1.524 . S
C683 C675 1.503 1_455 S
C683 C682 1.370 . S
C683 C684 1.403 . S
C684 C683 1.403 . S
C684 C685 1.404 . S
C684 C687 1.539 . S
C685 C681 1.408 . S
C685 C684 1.404 . S
C685 H697 0.930 . S
C686 C682 1.524 . S
C686 H698 0.971 . S
C686 H699 0.959 . S
C686 H700 0.961 . S
C687 C684 1.539 . S
C687 H701 0.958 . S
C687 H702 0.961 . S
C687 H703 0.974 . S
H688 C672 0.931 . S
H689 C677 0.929 . S
H690 C678 0.960 . S
H691 C678 0.962 . S
H692 C678 0.960 . S
H693 C679 0.961 . S
H694 C679 0.961 1_455 S
H695 C679 0.961 . S
H696 C680 0.931 . S
H697 C685 0.930 . S
H698 C686 0.971 . S
H699 C686 0.959 . S
H700 C686 0.961 . S
H701 C687 0.958 . S
H702 C687 0.961 . S
H703 C687 0.974 . S
C704 C705 1.391 . S
C704 C706 1.394 . S
C704 H720 0.931 1_556 S
C705 C704 1.391 . S
C705 C709 1.376 . S
C706 C704 1.394 . S
C706 C707 1.369 . S
C706 C710 1.531 1_556 S
C707 C706 1.369 . S
C707 C708 1.410 . S
C707 C715 1.503 . S
C708 C707 1.410 . S
C708 C709 1.392 . S
C708 C711 1.511 . S
C709 C705 1.376 . S
C709 C708 1.392 . S
C709 H721 0.929 . S
C710 C706 1.531 1_554 S
C710 H722 0.960 . S
C710 H723 0.962 1_554 S
C710 H724 0.960 . S
C711 C708 1.511 . S
C711 H725 0.961 . S
C711 H726 0.961 . S
C711 H727 0.961 . S
C712 C713 1.370 . S
C712 C714 1.363 . S
C712 H728 0.931 . S
C713 C712 1.370 . S
C713 C717 1.408 1_556 S
C714 C712 1.363 . S
C714 C715 1.370 . S
C714 C718 1.524 . S
C715 C707 1.503 . S
C715 C714 1.370 . S
C715 C716 1.403 1_556 S
C716 C715 1.403 1_554 S
C716 C717 1.404 . S
C716 C719 1.539 . S
C717 C713 1.408 1_554 S
C717 C716 1.404 . S
C717 H729 0.930 . S
C718 C714 1.524 . S
C718 H730 0.956 . S
C718 H731 0.961 . S
C718 H732 0.961 . S
C719 C716 1.539 . S
C719 H733 0.958 . S
C719 H734 0.961 . S
C719 H735 0.960 . S
H720 C704 0.931 1_554 S
H721 C709 0.929 . S
H722 C710 0.960 . S
H723 C710 0.962 1_556 S
H724 C710 0.960 . S
H725 C711 0.961 . S
H726 C711 0.961 . S
H727 C711 0.961 . S
H728 C712 0.931 . S
H729 C717 0.930 . S
H730 C718 0.956 . S
H731 C718 0.961 . S
H732 C718 0.961 . S
H733 C719 0.958 . S
H734 C719 0.961 . S
H735 C719 0.960 . S
C736 C737 1.391 . S
C736 C738 1.394 . S
C736 H752 0.931 . S
C737 C736 1.391 . S
C737 C741 1.376 . S
C738 C736 1.394 . S
C738 C739 1.369 . S
C738 C742 1.531 . S
C739 C738 1.369 . S
C739 C740 1.410 . S
C739 C747 1.503 . S
C740 C739 1.410 . S
C740 C741 1.392 . S
C740 C743 1.511 . S
C741 C737 1.376 . S
C741 C740 1.392 . S
C741 H753 0.929 . S
C742 C738 1.531 . S
C742 H754 0.960 . S
C742 H755 0.962 . S
C742 H756 0.960 . S
C743 C740 1.511 . S
C743 H757 0.961 . S
C743 H758 0.961 . S
C743 H759 0.961 . S
C744 C745 1.370 . S
C744 C746 1.363 . S
C744 H760 0.931 . S
C745 C744 1.370 . S
C745 C749 1.408 . S
C746 C744 1.363 . S
C746 C747 1.370 . S
C746 C750 1.524 . S
C747 C739 1.503 . S
C747 C746 1.370 . S
C747 C748 1.403 . S
C748 C747 1.403 . S
C748 C749 1.404 . S
C748 C751 1.539 . S
C749 C745 1.408 . S
C749 C748 1.404 . S
C749 H761 0.930 . S
C750 C746 1.524 . S
C750 H762 0.956 . S
C750 H763 0.961 . S
C750 H764 0.961 . S
C751 C748 1.539 . S
C751 H765 0.958 . S
C751 H766 0.961 . S
C751 H767 0.960 . S
H752 C736 0.931 . S
H753 C741 0.929 . S
H754 C742 0.960 . S
H755 C742 0.962 . S
H756 C742 0.960 . S
H757 C743 0.961 . S
H758 C743 0.961 . S
H759 C743 0.961 . S
H760 C744 0.931 . S
H761 C749 0.930 . S
H762 C750 0.956 . S
H763 C750 0.961 . S
H764 C750 0.961 . S
H765 C751 0.958 . S
H766 C751 0.961 . S
H767 C751 0.960 . S
C768 C769 1.391 . S
C768 C770 1.394 . S
C768 H784 0.931 . S
C769 C768 1.391 . S
C769 C773 1.376 . S
C770 C768 1.394 . S
C770 C771 1.369 . S
C770 C774 1.531 . S
C771 C770 1.369 . S
C771 C772 1.410 . S
C771 C779 1.503 . S
C772 C771 1.410 . S
C772 C773 1.392 . S
C772 C775 1.511 . S
C773 C769 1.376 . S
C773 C772 1.392 . S
C773 H785 0.929 . S
C774 C770 1.531 . S
C774 H786 0.960 . S
C774 H787 0.962 . S
C774 H788 0.960 . S
C775 C772 1.511 . S
C775 H789 0.961 . S
C775 H790 0.961 . S
C775 H791 0.961 . S
C776 C777 1.370 . S
C776 C778 1.363 . S
C776 H792 0.931 . S
C777 C776 1.370 . S
C777 C781 1.408 . S
C778 C776 1.363 . S
C778 C779 1.370 . S
C778 C782 1.524 . S
C779 C771 1.503 . S
C779 C778 1.370 . S
C779 C780 1.403 . S
C780 C779 1.403 . S
C780 C781 1.404 . S
C780 C783 1.539 . S
C781 C777 1.408 . S
C781 C780 1.404 . S
C781 H793 0.930 . S
C782 C778 1.524 . S
C782 H794 0.956 . S
C782 H795 0.961 . S
C782 H796 0.961 . S
C783 C780 1.539 . S
C783 H797 0.958 . S
C783 H798 0.961 . S
C783 H799 0.960 . S
H784 C768 0.931 . S
H785 C773 0.929 . S
H786 C774 0.960 . S
H787 C774 0.962 . S
H788 C774 0.960 . S
H789 C775 0.961 . S
H790 C775 0.961 . S
H791 C775 0.961 . S
H792 C776 0.931 . S
H793 C781 0.930 . S
H794 C782 0.956 . S
H795 C782 0.961 . S
H796 C782 0.961 . S
H797 C783 0.958 . S
H798 C783 0.961 . S
H799 C783 0.960 . S
C800 C801 1.391 . S
C800 C802 1.394 . S
C800 H816 0.931 . S
C801 C800 1.391 . S
C801 C805 1.376 . S
C802 C800 1.394 . S
C802 C803 1.369 . S
C802 C806 1.531 . S
C803 C802 1.369 . S
C803 C804 1.410 . S
C803 C811 1.503 1_455 S
C804 C803 1.410 . S
C804 C805 1.392 . S
C804 C807 1.511 . S
C805 C801 1.376 . S
C805 C804 1.392 . S
C805 H817 0.929 . S
C806 C802 1.531 . S
C806 H818 0.960 . S
C806 H819 0.962 . S
C806 H820 0.960 . S
C807 C804 1.511 . S
C807 H821 0.961 . S
C807 H822 0.961 1_455 S
C807 H823 0.961 . S
C808 C809 1.370 . S
C808 C810 1.363 . S
C808 H824 0.931 . S
C809 C808 1.370 . S
C809 C813 1.408 . S
C810 C808 1.363 . S
C810 C811 1.370 . S
C810 C814 1.524 . S
C811 C803 1.503 1_655 S
C811 C810 1.370 . S
C811 C812 1.403 . S
C812 C811 1.403 . S
C812 C813 1.404 . S
C812 C815 1.539 . S
C813 C809 1.408 . S
C813 C812 1.404 . S
C813 H825 0.930 . S
C814 C810 1.524 . S
C814 H826 0.955 1_655 S
C814 H827 0.944 1_655 S
C814 H828 0.961 . S
C815 C812 1.539 . S
C815 H829 0.958 . S
C815 H830 0.961 . S
C815 H831 0.960 . S
H816 C800 0.931 . S
H817 C805 0.929 . S
H818 C806 0.960 . S
H819 C806 0.962 . S
H820 C806 0.960 . S
H821 C807 0.961 . S
H822 C807 0.961 1_655 S
H823 C807 0.961 . S
H824 C808 0.931 . S
H825 C813 0.930 . S
H826 C814 0.955 1_455 S
H827 C814 0.944 1_455 S
H828 C814 0.961 . S
H829 C815 0.958 . S
H830 C815 0.961 . S
H831 C815 0.960 . S
C832 C833 1.391 1_556 S
C832 C834 1.394 . S
C832 H848 0.931 . S
C833 C832 1.391 1_554 S
C833 C837 1.376 . S
C834 C832 1.394 . S
C834 C835 1.369 1_656 S
C834 C838 1.531 . S
C835 C834 1.369 1_454 S
C835 C836 1.410 . S
C835 C843 1.503 . S
C836 C835 1.410 . S
C836 C837 1.392 1_455 S
C836 C839 1.511 . S
C837 C833 1.376 . S
C837 C836 1.392 1_655 S
C837 H849 0.928 1_655 S
C838 C834 1.531 . S
C838 H850 0.960 1_655 S
C838 H851 0.962 . S
C838 H852 0.960 . S
C839 C836 1.511 . S
C839 H853 0.961 . S
C839 H854 0.961 . S
C839 H855 0.961 . S
C840 C841 1.370 1_655 S
C840 C842 1.363 . S
C840 H856 0.931 . S
C841 C840 1.370 1_455 S
C841 C845 1.408 . S
C842 C840 1.363 . S
C842 C843 1.370 1_655 S
C842 C846 1.524 . S
C843 C835 1.503 . S
C843 C842 1.370 1_455 S
C843 C844 1.403 . S
C844 C843 1.403 . S
C844 C845 1.404 . S
C844 C847 1.539 . S
C845 C841 1.408 . S
C845 C844 1.404 . S
C845 H857 0.930 . S
C846 C842 1.524 . S
C846 H858 0.956 . S
C846 H859 0.961 . S
C846 H860 0.961 . S
C847 C844 1.539 . S
C847 H861 0.958 1_554 S
C847 H862 0.961 . S
C847 H863 0.960 . S
H848 C832 0.931 . S
H849 C837 0.928 1_455 S
H850 C838 0.960 1_455 S
H851 C838 0.962 . S
H852 C838 0.960 . S
H853 C839 0.961 . S
H854 C839 0.961 . S
H855 C839 0.961 . S
H856 C840 0.931 . S
H857 C845 0.930 . S
H858 C846 0.956 . S
H859 C846 0.961 . S
H860 C846 0.961 . S
H861 C847 0.958 1_556 S
H862 C847 0.961 . S
H863 C847 0.960 . S
C864 C865 1.391 . S
C864 C866 1.394 . S
C864 H880 0.931 . S
C865 C864 1.391 . S
C865 C869 1.376 . S
C866 C864 1.394 . S
C866 C867 1.369 . S
C866 C870 1.531 . S
C867 C866 1.369 . S
C867 C868 1.410 . S
C867 C875 1.503 . S
C868 C867 1.410 . S
C868 C869 1.392 . S
C868 C871 1.511 . S
C869 C865 1.376 . S
C869 C868 1.392 . S
C869 H881 0.929 . S
C870 C866 1.531 . S
C870 H882 0.960 . S
C870 H883 0.962 . S
C870 H884 0.960 . S
C871 C868 1.511 . S
C871 H885 0.961 . S
C871 H886 0.961 . S
C871 H887 0.961 . S
C872 C873 1.370 . S
C872 C874 1.363 . S
C872 H888 0.931 . S
C873 C872 1.370 . S
C873 C877 1.408 . S
C874 C872 1.363 . S
C874 C875 1.370 . S
C874 C878 1.524 . S
C875 C867 1.503 . S
C875 C874 1.370 . S
C875 C876 1.403 . S
C876 C875 1.403 . S
C876 C877 1.404 . S
C876 C879 1.539 . S
C877 C873 1.408 . S
C877 C876 1.404 . S
C877 H889 0.930 . S
C878 C874 1.524 . S
C878 H890 0.956 . S
C878 H891 0.961 . S
C878 H892 0.961 . S
C879 C876 1.539 . S
C879 H893 0.958 . S
C879 H894 0.961 . S
C879 H895 0.960 . S
H880 C864 0.931 . S
H881 C869 0.929 . S
H882 C870 0.960 . S
H883 C870 0.962 . S
H884 C870 0.960 . S
H885 C871 0.961 . S
H886 C871 0.961 . S
H887 C871 0.961 . S
H888 C872 0.931 . S
H889 C877 0.930 . S
H890 C878 0.956 . S
H891 C878 0.961 . S
H892 C878 0.961 . S
H893 C879 0.958 . S
H894 C879 0.961 . S
H895 C879 0.960 . S
C896 C897 1.391 . S
C896 C898 1.394 . S
C896 H912 0.931 . S
C897 C896 1.391 . S
C897 C901 1.376 . S
C898 C896 1.394 . S
C898 C899 1.369 . S
C898 C902 1.531 . S
C899 C898 1.369 . S
C899 C900 1.410 . S
C899 C907 1.503 1_545 S
C900 C899 1.410 . S
C900 C901 1.392 . S
C900 C903 1.511 . S
C901 C897 1.376 . S
C901 C900 1.392 . S
C901 H913 0.929 . S
C902 C898 1.531 . S
C902 H914 0.960 1_545 S
C902 H915 0.962 . S
C902 H916 0.960 . S
C903 C900 1.511 . S
C903 H917 0.961 . S
C903 H918 0.961 1_545 S
C903 H919 0.961 . S
C904 C905 1.370 . S
C904 C906 1.363 . S
C904 H920 0.931 . S
C905 C904 1.370 . S
C905 C909 1.408 . S
C906 C904 1.363 . S
C906 C907 1.370 . S
C906 C910 1.524 . S
C907 C899 1.503 1_565 S
C907 C906 1.370 . S
C907 C908 1.403 . S
C908 C907 1.403 . S
C908 C909 1.404 . S
C908 C911 1.539 . S
C909 C905 1.408 . S
C909 C908 1.404 . S
C909 H921 0.930 . S
C910 C906 1.524 . S
C910 H922 0.956 1_565 S
C910 H923 0.961 1_565 S
C910 H924 0.961 . S
C911 C908 1.539 . S
C911 H925 0.958 . S
C911 H926 0.961 . S
C911 H927 0.960 . S
H912 C896 0.931 . S
H913 C901 0.929 . S
H914 C902 0.960 1_565 S
H915 C902 0.962 . S
H916 C902 0.960 . S
H917 C903 0.961 . S
H918 C903 0.961 1_565 S
H919 C903 0.961 . S
H920 C904 0.931 . S
H921 C909 0.930 . S
H922 C910 0.956 1_545 S
H923 C910 0.961 1_545 S
H924 C910 0.961 . S
H925 C911 0.958 . S
H926 C911 0.961 . S
H927 C911 0.960 . S
C928 C929 1.391 . S
C928 C930 1.394 . S
C928 H944 0.931 . S
C929 C928 1.391 . S
C929 C933 1.376 1_556 S
C930 C928 1.394 . S
C930 C931 1.369 1_556 S
C930 C934 1.531 . S
C931 C930 1.369 1_554 S
C931 C932 1.410 . S
C931 C939 1.503 . S
C932 C931 1.410 . S
C932 C933 1.392 . S
C932 C935 1.511 . S
C933 C929 1.376 1_554 S
C933 C932 1.392 . S
C933 H945 0.929 . S
C934 C930 1.531 . S
C934 H946 0.960 . S
C934 H947 0.962 . S
C934 H948 0.960 . S
C935 C932 1.511 . S
C935 H949 0.961 . S
C935 H950 0.961 . S
C935 H951 0.961 . S
C936 C937 1.370 1_556 S
C936 C938 1.363 . S
C936 H952 0.931 . S
C937 C936 1.370 1_554 S
C937 C941 1.408 . S
C938 C936 1.363 . S
C938 C939 1.370 1_556 S
C938 C942 1.524 . S
C939 C931 1.503 . S
C939 C938 1.370 1_554 S
C939 C940 1.403 . S
C940 C939 1.403 . S
C940 C941 1.404 . S
C940 C943 1.539 . S
C941 C937 1.408 . S
C941 C940 1.404 . S
C941 H953 0.930 . S
C942 C938 1.524 . S
C942 H954 0.956 . S
C942 H955 0.961 . S
C942 H956 0.961 . S
C943 C940 1.539 . S
C943 H957 0.958 . S
C943 H958 0.961 . S
C943 H959 0.960 . S
H944 C928 0.931 . S
H945 C933 0.929 . S
H946 C934 0.960 . S
H947 C934 0.962 . S
H948 C934 0.960 . S
H949 C935 0.961 . S
H950 C935 0.961 . S
H951 C935 0.961 . S
H952 C936 0.931 . S
H953 C941 0.930 . S
H954 C942 0.956 . S
H955 C942 0.961 . S
H956 C942 0.961 . S
H957 C943 0.958 . S
H958 C943 0.961 . S
H959 C943 0.960 . S
C960 C961 1.391 . S
C960 C962 1.394 . S
C960 H976 0.931 . S
C961 C960 1.391 . S
C961 C965 1.376 . S
C962 C960 1.394 . S
C962 C963 1.369 . S
C962 C966 1.531 . S
C963 C962 1.369 . S
C963 C964 1.410 . S
C963 C971 1.503 1_545 S
C964 C963 1.410 . S
C964 C965 1.392 . S
C964 C967 1.511 . S
C965 C961 1.376 . S
C965 C964 1.392 . S
C965 H977 0.929 . S
C966 C962 1.531 . S
C966 H978 0.960 . S
C966 H979 0.962 . S
C966 H980 0.960 . S
C967 C964 1.511 . S
C967 H981 0.961 . S
C967 H982 0.961 1_545 S
C967 H983 0.961 . S
C968 C969 1.370 . S
C968 C970 1.363 . S
C968 H984 0.931 . S
C969 C968 1.370 . S
C969 C973 1.408 . S
C970 C968 1.363 . S
C970 C971 1.370 . S
C970 C974 1.524 . S
C971 C963 1.503 1_565 S
C971 C970 1.370 . S
C971 C972 1.403 . S
C972 C971 1.403 . S
C972 C973 1.404 . S
C972 C975 1.539 . S
C973 C969 1.408 . S
C973 C972 1.404 . S
C973 H985 0.930 . S
C974 C970 1.524 . S
C974 H986 0.956 . S
C974 H987 0.961 . S
C974 H988 0.961 . S
C975 C972 1.539 . S
C975 H989 0.958 . S
C975 H990 0.961 . S
C975 H991 0.960 1_565 S
H976 C960 0.931 . S
H977 C965 0.929 . S
H978 C966 0.960 . S
H979 C966 0.962 . S
H980 C966 0.960 . S
H981 C967 0.961 . S
H982 C967 0.961 1_565 S
H983 C967 0.961 . S
H984 C968 0.931 . S
H985 C973 0.930 . S
H986 C974 0.956 . S
H987 C974 0.961 . S
H988 C974 0.961 . S
H989 C975 0.958 . S
H990 C975 0.961 . S
H991 C975 0.960 1_545 S
C992 C993 1.391 . S
C992 C994 1.394 . S
C992 H1008 0.931 . S
C993 C992 1.391 . S
C993 C997 1.376 1_554 S
C994 C992 1.394 . S
C994 C995 1.369 . S
C994 C998 1.531 . S
C995 C994 1.369 . S
C995 C996 1.405 1_564 S
C995 C1003 1.503 . S
C996 C995 1.405 1_546 S
C996 C997 1.392 1_545 S
C996 C999 1.516 . S
C997 C993 1.376 1_556 S
C997 C996 1.392 1_565 S
C997 H1009 0.929 1_565 S
C998 C994 1.531 . S
C998 H1010 0.960 . S
C998 H1011 0.962 . S
C998 H1012 0.960 . S
C999 C996 1.516 . S
C999 H1013 0.961 . S
C999 H1014 0.961 . S
C999 H1015 0.961 . S
C1000 C1001 1.370 . S
C1000 C1002 1.363 . S
C1000 H1016 0.931 . S
C1001 C1000 1.370 . S
C1001 C1005 1.408 1_566 S
C1002 C1000 1.363 . S
C1002 C1003 1.370 1_556 S
C1002 C1006 1.524 . S
C1003 C995 1.503 . S
C1003 C1002 1.370 1_554 S
C1003 C1004 1.403 1_565 S
C1004 C1003 1.403 1_545 S
C1004 C1005 1.404 . S
C1004 C1007 1.539 . S
C1005 C1001 1.408 1_544 S
C1005 C1004 1.404 . S
C1005 H1017 0.930 . S
C1006 C1002 1.524 . S
C1006 H1018 0.956 . S
C1006 H1019 0.961 . S
C1006 H1020 0.961 . S
C1007 C1004 1.539 . S
C1007 H1021 0.958 . S
C1007 H1022 0.961 . S
C1007 H1023 0.960 . S
H1008 C992 0.931 . S
H1009 C997 0.929 1_545 S
H1010 C998 0.960 . S
H1011 C998 0.962 . S
H1012 C998 0.960 . S
H1013 C999 0.961 . S
H1014 C999 0.961 . S
H1015 C999 0.961 . S
H1016 C1000 0.931 . S
H1017 C1005 0.930 . S
H1018 C1006 0.956 . S
H1019 C1006 0.961 . S
H1020 C1006 0.961 . S
H1021 C1007 0.958 . S
H1022 C1007 0.961 . S
H1023 C1007 0.960 . S
C1024 C1025 1.391 . S
C1024 C1026 1.394 . S
C1024 H1040 0.931 . S
C1025 C1024 1.391 . S
C1025 C1029 1.376 . S
C1026 C1024 1.394 . S
C1026 C1027 1.369 . S
C1026 C1030 1.531 . S
C1027 C1026 1.369 . S
C1027 C1028 1.410 . S
C1027 C1035 1.503 . S
C1028 C1027 1.410 . S
C1028 C1029 1.392 . S
C1028 C1031 1.511 . S
C1029 C1025 1.376 . S
C1029 C1028 1.392 . S
C1029 H1041 0.929 . S
C1030 C1026 1.531 . S
C1030 H1042 0.960 . S
C1030 H1043 0.962 . S
C1030 H1044 0.960 . S
C1031 C1028 1.511 . S
C1031 H1045 0.961 . S
C1031 H1046 0.961 . S
C1031 H1047 0.961 . S
C1032 C1033 1.370 . S
C1032 C1034 1.363 . S
C1032 H1048 0.931 . S
C1033 C1032 1.370 . S
C1033 C1037 1.408 . S
C1034 C1032 1.363 . S
C1034 C1035 1.370 . S
C1034 C1038 1.524 . S
C1035 C1027 1.503 . S
C1035 C1034 1.370 . S
C1035 C1036 1.403 . S
C1036 C1035 1.403 . S
C1036 C1037 1.404 . S
C1036 C1039 1.539 . S
C1037 C1033 1.408 . S
C1037 C1036 1.404 . S
C1037 H1049 0.930 . S
C1038 C1034 1.524 . S
C1038 H1050 0.956 . S
C1038 H1051 0.961 . S
C1038 H1052 0.961 . S
C1039 C1036 1.539 . S
C1039 H1053 0.958 . S
C1039 H1054 0.961 . S
C1039 H1055 0.960 . S
H1040 C1024 0.931 . S
H1041 C1029 0.929 . S
H1042 C1030 0.960 . S
H1043 C1030 0.962 . S
H1044 C1030 0.960 . S
H1045 C1031 0.961 . S
H1046 C1031 0.961 . S
H1047 C1031 0.961 . S
H1048 C1032 0.931 . S
H1049 C1037 0.930 . S
H1050 C1038 0.956 . S
H1051 C1038 0.961 . S
H1052 C1038 0.961 . S
H1053 C1039 0.958 . S
H1054 C1039 0.961 . S
H1055 C1039 0.960 . S
C1056 C1057 1.391 . S
C1056 C1058 1.394 . S
C1056 H1072 0.931 . S
C1057 C1056 1.391 . S
C1057 C1061 1.376 . S
C1058 C1056 1.394 . S
C1058 C1059 1.369 . S
C1058 C1062 1.531 . S
C1059 C1058 1.369 . S
C1059 C1060 1.410 . S
C1059 C1067 1.503 . S
C1060 C1059 1.410 . S
C1060 C1061 1.392 . S
C1060 C1063 1.511 . S
C1061 C1057 1.376 . S
C1061 C1060 1.392 . S
C1061 H1073 0.929 . S
C1062 C1058 1.531 . S
C1062 H1074 0.960 . S
C1062 H1075 0.962 . S
C1062 H1076 0.960 . S
C1063 C1060 1.511 . S
C1063 H1077 0.961 . S
C1063 H1078 0.961 . S
C1063 H1079 0.961 . S
C1064 C1065 1.370 . S
C1064 C1066 1.363 . S
C1064 H1080 0.931 . S
C1065 C1064 1.370 . S
C1065 C1069 1.408 . S
C1066 C1064 1.363 . S
C1066 C1067 1.370 . S
C1066 C1070 1.524 . S
C1067 C1059 1.503 . S
C1067 C1066 1.370 . S
C1067 C1068 1.403 . S
C1068 C1067 1.403 . S
C1068 C1069 1.404 . S
C1068 C1071 1.539 . S
C1069 C1065 1.408 . S
C1069 C1068 1.404 . S
C1069 H1081 0.930 . S
C1070 C1066 1.524 . S
C1070 H1082 0.956 . S
C1070 H1083 0.961 . S
C1070 H1084 0.961 . S
C1071 C1068 1.539 . S
C1071 H1085 0.958 . S
C1071 H1086 0.961 . S
C1071 H1087 0.960 . S
H1072 C1056 0.931 . S
H1073 C1061 0.929 . S
H1074 C1062 0.960 . S
H1075 C1062 0.962 . S
H1076 C1062 0.960 . S
H1077 C1063 0.961 . S
H1078 C1063 0.961 . S
H1079 C1063 0.961 . S
H1080 C1064 0.931 . S
H1081 C1069 0.930 . S
H1082 C1070 0.956 . S
H1083 C1070 0.961 . S
H1084 C1070 0.961 . S
H1085 C1071 0.958 . S
H1086 C1071 0.961 . S
H1087 C1071 0.960 . S
C1088 C1089 1.391 . S
C1088 C1090 1.394 . S
C1088 H1104 0.931 . S
C1089 C1088 1.391 . S
C1089 C1093 1.376 . S
C1090 C1088 1.394 . S
C1090 C1091 1.369 . S
C1090 C1094 1.531 . S
C1091 C1090 1.369 . S
C1091 C1092 1.410 . S
C1091 C1099 1.503 1_556 S
C1092 C1091 1.410 . S
C1092 C1093 1.392 . S
C1092 C1095 1.511 . S
C1093 C1089 1.376 . S
C1093 C1092 1.392 . S
C1093 H1105 0.929 . S
C1094 C1090 1.531 . S
C1094 H1106 0.960 1_556 S
C1094 H1107 0.969 . S
C1094 H1108 0.960 . S
C1095 C1092 1.511 . S
C1095 H1109 0.961 . S
C1095 H1110 0.961 . S
C1095 H1111 0.961 . S
C1096 C1097 1.370 . S
C1096 C1098 1.363 . S
C1096 H1112 0.931 . S
C1097 C1096 1.370 . S
C1097 C1101 1.408 . S
C1098 C1096 1.363 . S
C1098 C1099 1.370 . S
C1098 C1102 1.524 . S
C1099 C1091 1.503 1_554 S
C1099 C1098 1.370 . S
C1099 C1100 1.403 . S
C1100 C1099 1.403 . S
C1100 C1101 1.404 . S
C1100 C1103 1.539 . S
C1101 C1097 1.408 . S
C1101 C1100 1.404 . S
C1101 H1113 0.930 . S
C1102 C1098 1.524 . S
C1102 H1114 0.956 . S
C1102 H1115 0.961 . S
C1102 H1116 0.961 . S
C1103 C1100 1.539 . S
C1103 H1117 0.958 . S
C1103 H1118 0.961 . S
C1103 H1119 0.960 1_554 S
H1104 C1088 0.931 . S
H1105 C1093 0.929 . S
H1106 C1094 0.960 1_554 S
H1107 C1094 0.969 . S
H1108 C1094 0.960 . S
H1109 C1095 0.961 . S
H1110 C1095 0.961 . S
H1111 C1095 0.961 . S
H1112 C1096 0.931 . S
H1113 C1101 0.930 . S
H1114 C1102 0.956 . S
H1115 C1102 0.961 . S
H1116 C1102 0.961 . S
H1117 C1103 0.958 . S
H1118 C1103 0.961 . S
H1119 C1103 0.960 1_556 S
C1120 C1121 1.391 . S
C1120 C1122 1.394 . S
C1120 H1136 0.931 . S
C1121 C1120 1.391 . S
C1121 C1125 1.376 . S
C1122 C1120 1.394 . S
C1122 C1123 1.369 . S
C1122 C1126 1.531 . S
C1123 C1122 1.369 . S
C1123 C1124 1.410 . S
C1123 C1131 1.503 . S
C1124 C1123 1.410 . S
C1124 C1125 1.392 . S
C1124 C1127 1.511 . S
C1125 C1121 1.376 . S
C1125 C1124 1.392 . S
C1125 H1137 0.929 . S
C1126 C1122 1.531 . S
C1126 H1138 0.960 . S
C1126 H1139 0.962 . S
C1126 H1140 0.960 . S
C1127 C1124 1.511 . S
C1127 H1141 0.961 . S
C1127 H1142 0.961 . S
C1127 H1143 0.961 . S
C1128 C1129 1.370 . S
C1128 C1130 1.363 . S
C1128 H1144 0.931 . S
C1129 C1128 1.370 . S
C1129 C1133 1.408 . S
C1130 C1128 1.363 . S
C1130 C1131 1.370 . S
C1130 C1134 1.524 . S
C1131 C1123 1.503 . S
C1131 C1130 1.370 . S
C1131 C1132 1.403 . S
C1132 C1131 1.403 . S
C1132 C1133 1.404 . S
C1132 C1135 1.539 . S
C1133 C1129 1.408 . S
C1133 C1132 1.404 . S
C1133 H1145 0.930 . S
C1134 C1130 1.524 . S
C1134 H1146 0.956 . S
C1134 H1147 0.961 . S
C1134 H1148 0.961 . S
C1135 C1132 1.539 . S
C1135 H1149 0.958 . S
C1135 H1150 0.961 . S
C1135 H1151 0.960 . S
H1136 C1120 0.931 . S
H1137 C1125 0.929 . S
H1138 C1126 0.960 . S
H1139 C1126 0.962 . S
H1140 C1126 0.960 . S
H1141 C1127 0.961 . S
H1142 C1127 0.961 . S
H1143 C1127 0.961 . S
H1144 C1128 0.931 . S
H1145 C1133 0.930 . S
H1146 C1134 0.956 . S
H1147 C1134 0.961 . S
H1148 C1134 0.961 . S
H1149 C1135 0.958 . S
H1150 C1135 0.961 . S
H1151 C1135 0.960 . S
C1152 C1153 1.391 . S
C1152 C1154 1.394 . S
C1152 H1168 0.931 . S
C1153 C1152 1.391 . S
C1153 C1157 1.376 . S
C1154 C1152 1.394 . S
C1154 C1155 1.369 . S
C1154 C1158 1.531 . S
C1155 C1154 1.369 . S
C1155 C1156 1.410 . S
C1155 C1163 1.503 . S
C1156 C1155 1.410 . S
C1156 C1157 1.392 . S
C1156 C1159 1.511 . S
C1157 C1153 1.376 . S
C1157 C1156 1.392 . S
C1157 H1169 0.929 . S
C1158 C1154 1.531 . S
C1158 H1170 0.960 . S
C1158 H1171 0.962 . S
C1158 H1172 0.960 . S
C1159 C1156 1.511 . S
C1159 H1173 0.961 . S
C1159 H1174 0.961 . S
C1159 H1175 0.961 . S
C1160 C1161 1.370 . S
C1160 C1162 1.363 . S
C1160 H1176 0.931 . S
C1161 C1160 1.370 . S
C1161 C1165 1.408 . S
C1162 C1160 1.363 . S
C1162 C1163 1.370 . S
C1162 C1166 1.524 . S
C1163 C1155 1.503 . S
C1163 C1162 1.370 . S
C1163 C1164 1.403 . S
C1164 C1163 1.403 . S
C1164 C1165 1.404 . S
C1164 C1167 1.539 . S
C1165 C1161 1.408 . S
C1165 C1164 1.404 . S
C1165 H1177 0.930 . S
C1166 C1162 1.524 . S
C1166 H1178 0.956 . S
C1166 H1179 0.961 . S
C1166 H1180 0.961 . S
C1167 C1164 1.539 . S
C1167 H1181 0.958 . S
C1167 H1182 0.961 . S
C1167 H1183 0.960 . S
H1168 C1152 0.931 . S
H1169 C1157 0.929 . S
H1170 C1158 0.960 . S
H1171 C1158 0.962 . S
H1172 C1158 0.960 . S
H1173 C1159 0.961 . S
H1174 C1159 0.961 . S
H1175 C1159 0.961 . S
H1176 C1160 0.931 . S
H1177 C1165 0.930 . S
H1178 C1166 0.956 . S
H1179 C1166 0.961 . S
H1180 C1166 0.961 . S
H1181 C1167 0.958 . S
H1182 C1167 0.961 . S
H1183 C1167 0.960 . S
C1184 C1185 1.391 . S
C1184 C1186 1.394 . S
C1184 H1200 0.931 . S
C1185 C1184 1.391 . S
C1185 C1189 1.376 . S
C1186 C1184 1.394 . S
C1186 C1187 1.369 . S
C1186 C1190 1.531 . S
C1187 C1186 1.369 . S
C1187 C1188 1.410 . S
C1187 C1195 1.503 . S
C1188 C1187 1.410 . S
C1188 C1189 1.392 . S
C1188 C1191 1.511 . S
C1189 C1185 1.376 . S
C1189 C1188 1.392 . S
C1189 H1201 0.929 . S
C1190 C1186 1.531 . S
C1190 H1202 0.960 . S
C1190 H1203 0.962 . S
C1190 H1204 0.960 . S
C1191 C1188 1.511 . S
C1191 H1205 0.961 . S
C1191 H1206 0.961 . S
C1191 H1207 0.961 1_455 S
C1192 C1193 1.370 . S
C1192 C1194 1.363 . S
C1192 H1208 0.931 . S
C1193 C1192 1.370 . S
C1193 C1197 1.408 1_455 S
C1194 C1192 1.363 . S
C1194 C1195 1.370 . S
C1194 C1198 1.524 . S
C1195 C1187 1.503 . S
C1195 C1194 1.370 . S
C1195 C1196 1.403 1_455 S
C1196 C1195 1.403 1_655 S
C1196 C1197 1.404 . S
C1196 C1199 1.539 . S
C1197 C1193 1.408 1_655 S
C1197 C1196 1.404 . S
C1197 H1209 0.930 . S
C1198 C1194 1.524 . S
C1198 H1210 0.956 . S
C1198 H1211 0.961 . S
C1198 H1212 0.961 . S
C1199 C1196 1.539 . S
C1199 H1213 0.958 . S
C1199 H1214 0.961 . S
C1199 H1215 0.960 . S
H1200 C1184 0.931 . S
H1201 C1189 0.929 . S
H1202 C1190 0.960 . S
H1203 C1190 0.962 . S
H1204 C1190 0.960 . S
H1205 C1191 0.961 . S
H1206 C1191 0.961 . S
H1207 C1191 0.961 1_655 S
H1208 C1192 0.931 . S
H1209 C1197 0.930 . S
H1210 C1198 0.956 . S
H1211 C1198 0.961 . S
H1212 C1198 0.961 . S
H1213 C1199 0.958 . S
H1214 C1199 0.961 . S
H1215 C1199 0.960 . S
C1216 C1217 1.391 . S
C1216 C1218 1.394 . S
C1216 H1232 0.931 . S
C1217 C1216 1.391 . S
C1217 C1221 1.376 . S
C1218 C1216 1.394 . S
C1218 C1219 1.369 . S
C1218 C1222 1.531 . S
C1219 C1218 1.369 . S
C1219 C1220 1.410 . S
C1219 C1227 1.503 . S
C1220 C1219 1.410 . S
C1220 C1221 1.392 . S
C1220 C1223 1.511 1_545 S
C1221 C1217 1.376 . S
C1221 C1220 1.392 . S
C1221 H1233 0.929 . S
C1222 C1218 1.531 . S
C1222 H1234 0.960 . S
C1222 H1235 0.962 . S
C1222 H1236 0.960 . S
C1223 C1220 1.511 1_565 S
C1223 H1237 0.961 1_565 S
C1223 H1238 0.961 1_565 S
C1223 H1239 0.961 . S
C1224 C1225 1.370 . S
C1224 C1226 1.363 . S
C1224 H1240 0.931 . S
C1225 C1224 1.370 . S
C1225 C1229 1.408 1_545 S
C1226 C1224 1.363 . S
C1226 C1227 1.370 . S
C1226 C1230 1.524 . S
C1227 C1219 1.503 . S
C1227 C1226 1.370 . S
C1227 C1228 1.403 1_545 S
C1228 C1227 1.403 1_565 S
C1228 C1229 1.404 . S
C1228 C1231 1.539 . S
C1229 C1225 1.408 1_565 S
C1229 C1228 1.404 . S
C1229 H1241 0.930 . S
C1230 C1226 1.524 . S
C1230 H1242 0.956 . S
C1230 H1243 0.961 . S
C1230 H1244 0.961 . S
C1231 C1228 1.539 . S
C1231 H1245 0.958 . S
C1231 H1246 0.961 . S
C1231 H1247 0.960 . S
H1232 C1216 0.931 . S
H1233 C1221 0.929 . S
H1234 C1222 0.960 . S
H1235 C1222 0.962 . S
H1236 C1222 0.960 . S
H1237 C1223 0.961 1_545 S
H1238 C1223 0.961 1_545 S
H1239 C1223 0.961 . S
H1240 C1224 0.931 . S
H1241 C1229 0.930 . S
H1242 C1230 0.956 . S
H1243 C1230 0.961 . S
H1244 C1230 0.961 . S
H1245 C1231 0.958 . S
H1246 C1231 0.961 . S
H1247 C1231 0.960 . S
C225 C8 1.761 . S
C233 C106 1.756 . S
C257 C22 1.749 . S
C265 C64 1.762 . S
C289 C78 1.747 . S
C297 C36 1.761 . S
C321 C50 1.756 . S
C329 C92 1.755 . S
C353 C120 1.753 . S
C361 C176 1.756 . S
C385 C134 1.759 . S
C393 C204 1.762 . S
C417 C162 1.746 . S
C425 C148 1.758 . S
C449 C218 1.756 . S
C457 C190 1.755 . S
C481 C3 0.790 . S
C489 C87 0.779 . S
C513 C105 1.494 1_545 S
C521 C21 1.439 1_565 S
C545 C31 0.759 . S
C553 C59 0.766 . S
C577 C77 1.407 1_565 S
C585 C49 1.454 1_545 S
C609 C9 1.374 . S
C617 C205 1.371 . S
C641 C157 0.790 . S
C649 C17 0.779 . S
C673 C191 1.361 . S
C681 C37 1.375 . S
C705 C171 0.752 . S
C713 C45 0.763 . S
C737 C149 1.376 . S
C745 C65 1.371 . S
C769 C73 0.750 . S
C777 C213 0.762 . S
C801 C93 1.365 . S
C809 C121 1.373 . S
C833 C101 0.768 . S
C841 C129 0.770 . S
C865 C7 1.400 . S
C873 C63 1.462 . S
C897 C119 1.492 . S
C905 C189 1.435 . S
C929 C177 1.381 . S
C937 C135 1.390 . S
C961 C203 1.405 . S
C969 C147 1.455 . S
C993 C107 1.400 . S
C1001 C51 1.382 . S
C1025 C35 1.493 . S
C1033 C91 1.441 . S
C1057 C163 1.375 . S
C1065 C219 1.371 . S
C1089 C185 0.754 . S
C1097 C143 0.764 . S
C1121 C217 1.405 . S
C1129 C175 1.455 . S
C1153 C199 0.792 . S
C1161 C115 0.780 . S
C1185 C161 1.465 . S
C1193 C133 1.461 . S
C1217 C23 1.396 . S
C1225 C79 1.385 . S
