# Generated by pormake.
# Topology umv, (4)-cn, num edge types: 1
# Building blocks:
#     Node 0, Type 0, BuildingBlock: CEKHIL_clean_sbu_0, # of connection points: 4
#     Node 1, Type 0, BuildingBlock: CEKHIL_clean_sbu_0, # of connection points: 4
#     Node 2, Type 0, BuildingBlock: CEKHIL_clean_sbu_0, # of connection points: 4
#     Node 3, Type 0, BuildingBlock: CEKHIL_clean_sbu_0, # of connection points: 4
#     Node 4, Type 0, BuildingBlock: CEKHIL_clean_sbu_0, # of connection points: 4
#     Node 5, Type 0, BuildingBlock: CEKHIL_clean_sbu_0, # of connection points: 4
#     Node 6, Type 0, BuildingBlock: CEKHIL_clean_sbu_0, # of connection points: 4
#     Node 7, Type 0, BuildingBlock: CEKHIL_clean_sbu_0, # of connection points: 4
#     Node 8, Type 0, BuildingBlock: CEKHIL_clean_sbu_0, # of connection points: 4
#     Node 9, Type 0, BuildingBlock: CEKHIL_clean_sbu_0, # of connection points: 4
#     Node 10, Type 0, BuildingBlock: CEKHIL_clean_sbu_0, # of connection points: 4
#     Node 11, Type 0, BuildingBlock: CEKHIL_clean_sbu_0, # of connection points: 4
#     Node 12, Type 0, BuildingBlock: CEKHIL_clean_sbu_0, # of connection points: 4
#     Node 13, Type 0, BuildingBlock: CEKHIL_clean_sbu_0, # of connection points: 4
#     Node 14, Type 0, BuildingBlock: CEKHIL_clean_sbu_0, # of connection points: 4
#     Node 15, Type 0, BuildingBlock: CEKHIL_clean_sbu_0, # of connection points: 4
#     Node 16, Type 0, BuildingBlock: CEKHIL_clean_sbu_0, # of connection points: 4
#     Node 17, Type 0, BuildingBlock: CEKHIL_clean_sbu_0, # of connection points: 4
#     Node 18, Type 0, BuildingBlock: CEKHIL_clean_sbu_0, # of connection points: 4
#     Node 19, Type 0, BuildingBlock: CEKHIL_clean_sbu_0, # of connection points: 4
#     Node 20, Type 0, BuildingBlock: CEKHIL_clean_sbu_0, # of connection points: 4
#     Node 21, Type 0, BuildingBlock: CEKHIL_clean_sbu_0, # of connection points: 4
#     Node 22, Type 0, BuildingBlock: CEKHIL_clean_sbu_0, # of connection points: 4
#     Node 23, Type 0, BuildingBlock: CEKHIL_clean_sbu_0, # of connection points: 4
#     Node 24, Type 0, BuildingBlock: CEKHIL_clean_sbu_0, # of connection points: 4
#     Node 25, Type 0, BuildingBlock: CEKHIL_clean_sbu_0, # of connection points: 4
#     Node 26, Type 0, BuildingBlock: CEKHIL_clean_sbu_0, # of connection points: 4
#     Node 27, Type 0, BuildingBlock: CEKHIL_clean_sbu_0, # of connection points: 4
#     Node 28, Type 0, BuildingBlock: CEKHIL_clean_sbu_0, # of connection points: 4
#     Node 29, Type 0, BuildingBlock: CEKHIL_clean_sbu_0, # of connection points: 4
#     Node 30, Type 0, BuildingBlock: CEKHIL_clean_sbu_0, # of connection points: 4
#     Node 31, Type 0, BuildingBlock: CEKHIL_clean_sbu_0, # of connection points: 4
#     Edge 32, Type (0, 0), BuildingBlock: ZUJKAS_clean_linker_0, # of connection points: 2
#     Edge 33, Type (0, 0), BuildingBlock: ZUJKAS_clean_linker_0, # of connection points: 2
#     Edge 34, Type (0, 0), BuildingBlock: ZUJKAS_clean_linker_0, # of connection points: 2
#     Edge 35, Type (0, 0), BuildingBlock: ZUJKAS_clean_linker_0, # of connection points: 2
#     Edge 36, Type (0, 0), BuildingBlock: ZUJKAS_clean_linker_0, # of connection points: 2
#     Edge 37, Type (0, 0), BuildingBlock: ZUJKAS_clean_linker_0, # of connection points: 2
#     Edge 38, Type (0, 0), BuildingBlock: ZUJKAS_clean_linker_0, # of connection points: 2
#     Edge 39, Type (0, 0), BuildingBlock: ZUJKAS_clean_linker_0, # of connection points: 2
#     Edge 40, Type (0, 0), BuildingBlock: ZUJKAS_clean_linker_0, # of connection points: 2
#     Edge 41, Type (0, 0), BuildingBlock: ZUJKAS_clean_linker_0, # of connection points: 2
#     Edge 42, Type (0, 0), BuildingBlock: ZUJKAS_clean_linker_0, # of connection points: 2
#     Edge 43, Type (0, 0), BuildingBlock: ZUJKAS_clean_linker_0, # of connection points: 2
#     Edge 44, Type (0, 0), BuildingBlock: ZUJKAS_clean_linker_0, # of connection points: 2
#     Edge 45, Type (0, 0), BuildingBlock: ZUJKAS_clean_linker_0, # of connection points: 2
#     Edge 46, Type (0, 0), BuildingBlock: ZUJKAS_clean_linker_0, # of connection points: 2
#     Edge 47, Type (0, 0), BuildingBlock: ZUJKAS_clean_linker_0, # of connection points: 2
#     Edge 48, Type (0, 0), BuildingBlock: ZUJKAS_clean_linker_0, # of connection points: 2
#     Edge 49, Type (0, 0), BuildingBlock: ZUJKAS_clean_linker_0, # of connection points: 2
#     Edge 50, Type (0, 0), BuildingBlock: ZUJKAS_clean_linker_0, # of connection points: 2
#     Edge 51, Type (0, 0), BuildingBlock: ZUJKAS_clean_linker_0, # of connection points: 2
#     Edge 52, Type (0, 0), BuildingBlock: ZUJKAS_clean_linker_0, # of connection points: 2
#     Edge 53, Type (0, 0), BuildingBlock: ZUJKAS_clean_linker_0, # of connection points: 2
#     Edge 54, Type (0, 0), BuildingBlock: ZUJKAS_clean_linker_0, # of connection points: 2
#     Edge 55, Type (0, 0), BuildingBlock: ZUJKAS_clean_linker_0, # of connection points: 2
#     Edge 56, Type (0, 0), BuildingBlock: ZUJKAS_clean_linker_0, # of connection points: 2
#     Edge 57, Type (0, 0), BuildingBlock: ZUJKAS_clean_linker_0, # of connection points: 2
#     Edge 58, Type (0, 0), BuildingBlock: ZUJKAS_clean_linker_0, # of connection points: 2
#     Edge 59, Type (0, 0), BuildingBlock: ZUJKAS_clean_linker_0, # of connection points: 2
#     Edge 60, Type (0, 0), BuildingBlock: ZUJKAS_clean_linker_0, # of connection points: 2
#     Edge 61, Type (0, 0), BuildingBlock: ZUJKAS_clean_linker_0, # of connection points: 2
#     Edge 62, Type (0, 0), BuildingBlock: ZUJKAS_clean_linker_0, # of connection points: 2
#     Edge 63, Type (0, 0), BuildingBlock: ZUJKAS_clean_linker_0, # of connection points: 2
#     Edge 64, Type (0, 0), BuildingBlock: ZUJKAS_clean_linker_0, # of connection points: 2
#     Edge 65, Type (0, 0), BuildingBlock: ZUJKAS_clean_linker_0, # of connection points: 2
#     Edge 66, Type (0, 0), BuildingBlock: ZUJKAS_clean_linker_0, # of connection points: 2
#     Edge 67, Type (0, 0), BuildingBlock: ZUJKAS_clean_linker_0, # of connection points: 2
#     Edge 68, Type (0, 0), BuildingBlock: ZUJKAS_clean_linker_0, # of connection points: 2
#     Edge 69, Type (0, 0), BuildingBlock: ZUJKAS_clean_linker_0, # of connection points: 2
#     Edge 70, Type (0, 0), BuildingBlock: ZUJKAS_clean_linker_0, # of connection points: 2
#     Edge 71, Type (0, 0), BuildingBlock: ZUJKAS_clean_linker_0, # of connection points: 2
#     Edge 72, Type (0, 0), BuildingBlock: ZUJKAS_clean_linker_0, # of connection points: 2
#     Edge 73, Type (0, 0), BuildingBlock: ZUJKAS_clean_linker_0, # of connection points: 2
#     Edge 74, Type (0, 0), BuildingBlock: ZUJKAS_clean_linker_0, # of connection points: 2
#     Edge 75, Type (0, 0), BuildingBlock: ZUJKAS_clean_linker_0, # of connection points: 2
#     Edge 76, Type (0, 0), BuildingBlock: ZUJKAS_clean_linker_0, # of connection points: 2
#     Edge 77, Type (0, 0), BuildingBlock: ZUJKAS_clean_linker_0, # of connection points: 2
#     Edge 78, Type (0, 0), BuildingBlock: ZUJKAS_clean_linker_0, # of connection points: 2
#     Edge 79, Type (0, 0), BuildingBlock: ZUJKAS_clean_linker_0, # of connection points: 2
#     Edge 80, Type (0, 0), BuildingBlock: ZUJKAS_clean_linker_0, # of connection points: 2
#     Edge 81, Type (0, 0), BuildingBlock: ZUJKAS_clean_linker_0, # of connection points: 2
#     Edge 82, Type (0, 0), BuildingBlock: ZUJKAS_clean_linker_0, # of connection points: 2
#     Edge 83, Type (0, 0), BuildingBlock: ZUJKAS_clean_linker_0, # of connection points: 2
#     Edge 84, Type (0, 0), BuildingBlock: ZUJKAS_clean_linker_0, # of connection points: 2
#     Edge 85, Type (0, 0), BuildingBlock: ZUJKAS_clean_linker_0, # of connection points: 2
#     Edge 86, Type (0, 0), BuildingBlock: ZUJKAS_clean_linker_0, # of connection points: 2
#     Edge 87, Type (0, 0), BuildingBlock: ZUJKAS_clean_linker_0, # of connection points: 2
#     Edge 88, Type (0, 0), BuildingBlock: ZUJKAS_clean_linker_0, # of connection points: 2
#     Edge 89, Type (0, 0), BuildingBlock: ZUJKAS_clean_linker_0, # of connection points: 2
#     Edge 90, Type (0, 0), BuildingBlock: ZUJKAS_clean_linker_0, # of connection points: 2
#     Edge 91, Type (0, 0), BuildingBlock: ZUJKAS_clean_linker_0, # of connection points: 2
#     Edge 92, Type (0, 0), BuildingBlock: ZUJKAS_clean_linker_0, # of connection points: 2
#     Edge 93, Type (0, 0), BuildingBlock: ZUJKAS_clean_linker_0, # of connection points: 2
#     Edge 94, Type (0, 0), BuildingBlock: ZUJKAS_clean_linker_0, # of connection points: 2
#     Edge 95, Type (0, 0), BuildingBlock: ZUJKAS_clean_linker_0, # of connection points: 2
# Relax obj value: 0.131
# Max RMSD: 0.111
# Mean RMSD: 0.111
data_MOF--net-umv--node1-CEKHIL_clean_sbu_0--edge1-ZUJKAS_clean_linker_0
_symmetry_space_group_name_H-M    P1
_symmetry_Int_Tables_number       1
_symmetry_cell_setting            triclinic
loop_
_symmetry_equiv_pos_as_xyz
'x, y, z'
_cell_length_a     135.76078
_cell_length_b     33.064769
_cell_length_c     74.616692
_cell_angle_alpha  89.984286
_cell_angle_beta   90.025414
_cell_angle_gamma 90.04944
loop_
_atom_site_label
_atom_site_type_symbol
_atom_site_fract_x
_atom_site_fract_y
_atom_site_fract_z
_atom_type_partial_charge
Co0 Co 0.05965 0.11345 0.30901 0.0
O1 O 0.04551 0.11828 0.30708 0.0
O2 O 0.05609 0.14079 0.2869 0.0
C3 C 0.05999 0.04856 0.31846 0.0
O4 O 0.07472 0.11319 0.30617 0.0
Co5 Co 0.06947 0.09594 0.34619 0.0
O6 O 0.08147 0.08829 0.33148 0.0
C7 C 0.06018 0.17453 0.33893 0.0
C8 C 0.04698 0.13733 0.29209 0.0
C9 C 0.08217 0.10035 0.31531 0.0
O10 O 0.06006 0.16678 0.32203 0.0
O11 O 0.06269 0.14856 0.3508 0.0
O12 O 0.05905 0.05617 0.30142 0.0
O13 O 0.05976 0.07954 0.32881 0.0
Co14 Co 0.20696 0.13672 0.31256 0.0
O15 O 0.22098 0.1283 0.31076 0.0
O16 O 0.21009 0.10736 0.29076 0.0
C17 C 0.20788 0.20189 0.32102 0.0
O18 O 0.19194 0.14063 0.30959 0.0
Co19 Co 0.19715 0.15995 0.34884 0.0
O20 O 0.18564 0.17276 0.33355 0.0
C21 C 0.20363 0.07591 0.34246 0.0
C22 C 0.21925 0.10907 0.29594 0.0
C23 C 0.18474 0.15788 0.31788 0.0
O24 O 0.20571 0.08428 0.32606 0.0
O25 O 0.20064 0.10214 0.35384 0.0
O26 O 0.20838 0.19275 0.30409 0.0
O27 O 0.20756 0.17198 0.33202 0.0
Co28 Co 0.05952 0.13556 0.94012 0.0
O29 O 0.04542 0.13043 0.94233 0.0
O30 O 0.05616 0.10901 0.96249 0.0
C31 C 0.05976 0.20002 0.93018 0.0
O32 O 0.07459 0.13652 0.94268 0.0
Co33 Co 0.06901 0.15147 0.90258 0.0
O34 O 0.08125 0.15805 0.91672 0.0
C35 C 0.05925 0.07442 0.91054 0.0
C36 C 0.04701 0.11195 0.95741 0.0
C37 C 0.08205 0.14768 0.93312 0.0
O38 O 0.05987 0.08173 0.92745 0.0
O39 O 0.06144 0.10045 0.8985 0.0
O40 O 0.05892 0.1931 0.9473 0.0
O41 O 0.05946 0.16862 0.9201 0.0
Co42 Co 0.20578 0.11199 0.94143 0.0
O43 O 0.2199 0.11599 0.94389 0.0
O44 O 0.20918 0.13759 0.96401 0.0
C45 C 0.20522 0.04794 0.93105 0.0
O46 O 0.19069 0.11211 0.94378 0.0
Co47 Co 0.1964 0.09848 0.9036 0.0
O48 O 0.18406 0.09253 0.91749 0.0
C49 C 0.20623 0.17491 0.91238 0.0
C50 C 0.21833 0.13426 0.95902 0.0
C51 C 0.18323 0.10207 0.93398 0.0
O52 O 0.20574 0.16631 0.92918 0.0
O53 O 0.20389 0.14986 0.90003 0.0
O54 O 0.20607 0.05417 0.94822 0.0
O55 O 0.20575 0.07965 0.92117 0.0
Co56 Co 0.95434 0.87479 0.69125 0.0
O57 O 0.96849 0.86839 0.69021 0.0
O58 O 0.9592 0.85165 0.71339 0.0
C59 C 0.9539 0.93754 0.67926 0.0
O60 O 0.93965 0.87716 0.69765 0.0
Co61 Co 0.94148 0.88803 0.65704 0.0
O62 O 0.93104 0.90243 0.67442 0.0
C63 C 0.95058 0.80852 0.66445 0.0
C64 C 0.96792 0.85282 0.70617 0.0
C65 C 0.93165 0.8911 0.69068 0.0
O66 O 0.95276 0.81934 0.68055 0.0
O67 O 0.94683 0.83251 0.65284 0.0
O68 O 0.95583 0.93313 0.69626 0.0
O69 O 0.953 0.90461 0.67029 0.0
Co70 Co 0.80852 0.86328 0.69228 0.0
O71 O 0.79449 0.87257 0.69244 0.0
O72 O 0.80445 0.88581 0.71514 0.0
C73 C 0.80759 0.80175 0.67924 0.0
O74 O 0.82333 0.85724 0.69728 0.0
Co75 Co 0.82017 0.84884 0.6567 0.0
O76 O 0.83089 0.83173 0.67296 0.0
C77 C 0.81247 0.93012 0.66601 0.0
C78 C 0.79558 0.88688 0.70852 0.0
C79 C 0.83096 0.84236 0.68937 0.0
O80 O 0.81053 0.919 0.68216 0.0
O81 O 0.81556 0.9059 0.65385 0.0
O82 O 0.80644 0.80484 0.69653 0.0
O83 O 0.80878 0.83521 0.67085 0.0
Co84 Co 0.9582 0.85829 0.06331 0.0
O85 O 0.9721 0.86759 0.06021 0.0
O86 O 0.96064 0.8871 0.04102 0.0
C87 C 0.9598 0.79365 0.07241 0.0
O88 O 0.94315 0.85325 0.06174 0.0
Co89 Co 0.94957 0.83505 0.10066 0.0
O90 O 0.93725 0.8253 0.08705 0.0
C91 C 0.95725 0.91717 0.0938 0.0
C92 C 0.96992 0.88627 0.04545 0.0
C93 C 0.93603 0.83838 0.07113 0.0
O94 O 0.95717 0.91083 0.07677 0.0
O95 O 0.95544 0.88958 0.10539 0.0
O96 O 0.95961 0.8016 0.05532 0.0
O97 O 0.95952 0.82433 0.0829 0.0
Co98 Co 0.81143 0.87926 0.06054 0.0
O99 O 0.79739 0.87506 0.05694 0.0
O100 O 0.80859 0.85045 0.03843 0.0
C101 C 0.8117 0.94473 0.06903 0.0
O102 O 0.82657 0.87872 0.05969 0.0
Co103 Co 0.81955 0.89837 0.09891 0.0
O104 O 0.83243 0.89925 0.08644 0.0
C105 C 0.81011 0.8205 0.09122 0.0
C106 C 0.79932 0.85477 0.04247 0.0
C107 C 0.83375 0.88832 0.07024 0.0
O108 O 0.81112 0.8268 0.07429 0.0
O109 O 0.81196 0.84738 0.10309 0.0
O110 O 0.81136 0.93593 0.05203 0.0
O111 O 0.81088 0.91461 0.07977 0.0
Co112 Co 0.06013 0.61662 0.81037 0.0
O113 O 0.04624 0.62717 0.80809 0.0
O114 O 0.05731 0.6427 0.78752 0.0
C115 C 0.05815 0.55349 0.82124 0.0
O116 O 0.07513 0.60966 0.80789 0.0
Co117 Co 0.0695 0.59644 0.84753 0.0
O118 O 0.08125 0.5824 0.83317 0.0
C119 C 0.0629 0.67961 0.83904 0.0
C120 C 0.04815 0.64343 0.79266 0.0
C121 C 0.08229 0.59429 0.81704 0.0
O122 O 0.06185 0.67065 0.82236 0.0
O123 O 0.06507 0.65355 0.85111 0.0
O124 O 0.05808 0.55924 0.80397 0.0
O125 O 0.05899 0.58539 0.83089 0.0
Co126 Co 0.20661 0.63053 0.81275 0.0
O127 O 0.22058 0.62391 0.80952 0.0
O128 O 0.20931 0.60266 0.79032 0.0
C129 C 0.20765 0.69515 0.82218 0.0
O130 O 0.19149 0.63296 0.81138 0.0
Co131 Co 0.19797 0.65126 0.8504 0.0
O132 O 0.18545 0.65814 0.83714 0.0
C133 C 0.20663 0.57112 0.84302 0.0
C134 C 0.21858 0.60515 0.7947 0.0
C135 C 0.18426 0.64569 0.82111 0.0
O136 O 0.2062 0.57754 0.82602 0.0
O137 O 0.20465 0.59822 0.85472 0.0
O138 O 0.20744 0.68768 0.80504 0.0
O139 O 0.20767 0.66411 0.83246 0.0
Co140 Co 0.05902 0.63441 0.43788 0.0
O141 O 0.04508 0.62495 0.44029 0.0
O142 O 0.05623 0.60637 0.46024 0.0
C143 C 0.05736 0.69865 0.42821 0.0
O144 O 0.07405 0.63982 0.4402 0.0
Co145 Co 0.06822 0.6568 0.40088 0.0
O146 O 0.08032 0.66696 0.41501 0.0
C147 C 0.06075 0.5743 0.40792 0.0
C148 C 0.04702 0.60697 0.45532 0.0
C149 C 0.08132 0.65432 0.43105 0.0
O150 O 0.06034 0.5814 0.42487 0.0
O151 O 0.06278 0.6015 0.39627 0.0
O152 O 0.05736 0.69133 0.44537 0.0
O153 O 0.05793 0.66761 0.41797 0.0
Co154 Co 0.2054 0.61233 0.44093 0.0
O155 O 0.21944 0.61919 0.44347 0.0
O156 O 0.2084 0.64273 0.46255 0.0
C157 C 0.20581 0.54641 0.43332 0.0
O158 O 0.19028 0.61025 0.44294 0.0
Co159 Co 0.19642 0.58872 0.40378 0.0
O160 O 0.18407 0.58337 0.41762 0.0
C161 C 0.2034 0.67191 0.41007 0.0
C162 C 0.21762 0.63962 0.45793 0.0
C163 C 0.18299 0.59684 0.4335 0.0
O164 O 0.20477 0.66418 0.42678 0.0
O165 O 0.20074 0.64537 0.39856 0.0
O166 O 0.20626 0.5566 0.45014 0.0
O167 O 0.206 0.57569 0.422 0.0
Co168 Co 0.95415 0.37857 0.19162 0.0
O169 O 0.96827 0.37312 0.19372 0.0
O170 O 0.95757 0.3514 0.21386 0.0
C171 C 0.95403 0.4433 0.18198 0.0
O172 O 0.93906 0.37964 0.19427 0.0
Co173 Co 0.94457 0.3958 0.15421 0.0
O174 O 0.93241 0.40243 0.16852 0.0
C175 C 0.95348 0.31669 0.16194 0.0
C176 C 0.96671 0.35435 0.20873 0.0
C177 C 0.93161 0.39128 0.18481 0.0
O178 O 0.95366 0.325 0.1788 0.0
O179 O 0.95105 0.34244 0.14993 0.0
O180 O 0.95489 0.4359 0.19905 0.0
O181 O 0.95422 0.41216 0.17172 0.0
Co182 Co 0.80799 0.35872 0.18886 0.0
O183 O 0.79405 0.36829 0.19107 0.0
O184 O 0.8051 0.3859 0.21138 0.0
C185 C 0.80645 0.29479 0.17881 0.0
O186 O 0.82299 0.35298 0.19139 0.0
Co187 Co 0.8173 0.33822 0.15178 0.0
O188 O 0.82924 0.3264 0.16609 0.0
C189 C 0.81045 0.4211 0.15966 0.0
C190 C 0.79592 0.38573 0.20626 0.0
C191 C 0.83024 0.33837 0.18223 0.0
O192 O 0.80944 0.41232 0.17637 0.0
O193 O 0.81268 0.39494 0.14769 0.0
O194 O 0.80629 0.30168 0.19598 0.0
O195 O 0.80698 0.32611 0.16869 0.0
Co196 Co 0.95752 0.35845 0.56109 0.0
O197 O 0.97148 0.36483 0.5576 0.0
O198 O 0.96015 0.38468 0.53824 0.0
C199 C 0.95848 0.2945 0.57154 0.0
O200 O 0.9424 0.35595 0.55996 0.0
Co201 Co 0.94903 0.34085 0.59922 0.0
O202 O 0.93652 0.33189 0.58609 0.0
C203 C 0.95805 0.41955 0.59045 0.0
C204 C 0.96943 0.38262 0.54257 0.0
C205 C 0.93525 0.34325 0.56992 0.0
O206 O 0.95719 0.41238 0.57357 0.0
O207 O 0.95623 0.39321 0.60259 0.0
O208 O 0.95828 0.30064 0.55429 0.0
O209 O 0.95859 0.32642 0.58127 0.0
Co210 Co 0.81038 0.37757 0.56274 0.0
O211 O 0.79635 0.37399 0.55925 0.0
O212 O 0.80744 0.35246 0.53979 0.0
C213 C 0.81055 0.44134 0.57361 0.0
O214 O 0.82553 0.37725 0.56173 0.0
Co215 Co 0.81876 0.39053 0.60139 0.0
O216 O 0.83146 0.3965 0.58863 0.0
C217 C 0.80835 0.31613 0.59155 0.0
C218 C 0.79819 0.35586 0.54421 0.0
C219 C 0.83274 0.38699 0.57223 0.0
O220 O 0.81002 0.3232 0.57487 0.0
O221 O 0.8102 0.34165 0.60398 0.0
O222 O 0.81031 0.43573 0.55632 0.0
O223 O 0.80984 0.40915 0.58309 0.0
Co224 Co 0.55805 0.11196 0.81122 0.0
O225 O 0.54416 0.12062 0.80766 0.0
O226 O 0.55574 0.14145 0.78901 0.0
C227 C 0.55644 0.04689 0.81974 0.0
O228 O 0.57314 0.10769 0.81028 0.0
Co229 Co 0.56615 0.08791 0.84886 0.0
O230 O 0.57877 0.08046 0.83595 0.0
C231 C 0.55853 0.17003 0.84211 0.0
C232 C 0.54641 0.13978 0.79307 0.0
C233 C 0.5802 0.09372 0.82011 0.0
O234 O 0.55883 0.16411 0.82507 0.0
O235 O 0.56015 0.14216 0.85365 0.0
O236 O 0.55684 0.05556 0.80273 0.0
O237 O 0.55653 0.07713 0.83049 0.0
Co238 Co 0.70469 0.12922 0.81338 0.0
O239 O 0.71861 0.11983 0.81086 0.0
O240 O 0.7075 0.10349 0.79046 0.0
C241 C 0.70643 0.19238 0.82431 0.0
O242 O 0.68964 0.13499 0.81118 0.0
Co243 Co 0.69551 0.14778 0.85079 0.0
O244 O 0.6835 0.16026 0.83684 0.0
C245 C 0.70259 0.06561 0.84195 0.0
C246 C 0.71669 0.1034 0.79548 0.0
C247 C 0.68243 0.149 0.82061 0.0
O248 O 0.7033 0.07493 0.82525 0.0
O249 O 0.70046 0.09129 0.85419 0.0
O250 O 0.70643 0.18679 0.80703 0.0
O251 O 0.70581 0.16034 0.83394 0.0
Co252 Co 0.56011 0.13094 0.44131 0.0
O253 O 0.54602 0.12683 0.44396 0.0
O254 O 0.55684 0.10493 0.46387 0.0
C255 C 0.56049 0.1952 0.43116 0.0
O256 O 0.57521 0.13092 0.44327 0.0
Co257 Co 0.56908 0.1454 0.40321 0.0
O258 O 0.58157 0.1507 0.41679 0.0
C259 C 0.55952 0.0685 0.41208 0.0
C260 C 0.54766 0.10845 0.45904 0.0
C261 C 0.58258 0.14083 0.43321 0.0
O262 O 0.56016 0.07683 0.42889 0.0
O263 O 0.56161 0.0939 0.39972 0.0
O264 O 0.5598 0.18861 0.44833 0.0
O265 O 0.55994 0.16367 0.42119 0.0
Co266 Co 0.70706 0.11187 0.44118 0.0
O267 O 0.72111 0.1178 0.44363 0.0
O268 O 0.7103 0.13457 0.46449 0.0
C269 C 0.70744 0.04961 0.42868 0.0
O270 O 0.69198 0.10915 0.4434 0.0
Co271 Co 0.6978 0.10135 0.40301 0.0
O272 O 0.68558 0.09076 0.41675 0.0
C273 C 0.70732 0.17734 0.41387 0.0
C274 C 0.71945 0.13351 0.45927 0.0
C275 C 0.68464 0.0987 0.43339 0.0
O276 O 0.70644 0.1677 0.43049 0.0
O277 O 0.70539 0.15307 0.40098 0.0
O278 O 0.70796 0.05306 0.44606 0.0
O279 O 0.70747 0.08307 0.42002 0.0
Co280 Co 0.45516 0.88201 0.18861 0.0
O281 O 0.46903 0.87114 0.19073 0.0
O282 O 0.45794 0.85416 0.21104 0.0
C283 C 0.45725 0.94589 0.17878 0.0
O284 O 0.44017 0.88893 0.19117 0.0
Co285 Co 0.44588 0.90522 0.15177 0.0
O286 O 0.43402 0.9174 0.16618 0.0
C287 C 0.45228 0.82124 0.15901 0.0
C288 C 0.46711 0.85386 0.20593 0.0
C289 C 0.43298 0.90447 0.18216 0.0
O290 O 0.45335 0.82898 0.17581 0.0
O291 O 0.45022 0.84827 0.14731 0.0
O292 O 0.45727 0.93874 0.19594 0.0
O293 O 0.45638 0.91487 0.16859 0.0
Co294 Co 0.3084 0.85998 0.18967 0.0
O295 O 0.29447 0.86632 0.19357 0.0
O296 O 0.306 0.88834 0.21209 0.0
C297 C 0.30736 0.79509 0.18062 0.0
O298 O 0.32352 0.85808 0.19032 0.0
Co299 Co 0.31651 0.83879 0.15171 0.0
O300 O 0.32928 0.83326 0.16429 0.0
C301 C 0.30774 0.91861 0.15915 0.0
C302 C 0.29667 0.88557 0.20817 0.0
C303 C 0.33066 0.84586 0.18025 0.0
O304 O 0.30851 0.91264 0.17614 0.0
O305 O 0.30955 0.89129 0.14746 0.0
O306 O 0.30779 0.80302 0.1977 0.0
O307 O 0.30711 0.82584 0.17017 0.0
Co308 Co 0.45664 0.85965 0.56118 0.0
O309 O 0.4706 0.86854 0.55873 0.0
O310 O 0.45941 0.88984 0.53939 0.0
C311 C 0.45776 0.79421 0.56917 0.0
O312 O 0.44159 0.85516 0.55902 0.0
Co313 Co 0.44769 0.83513 0.59811 0.0
O314 O 0.43564 0.82526 0.58385 0.0
C315 C 0.45394 0.9194 0.59171 0.0
C316 C 0.46864 0.8882 0.54412 0.0
C317 C 0.43445 0.83938 0.5681 0.0
O318 O 0.45551 0.91168 0.57506 0.0
O319 O 0.45143 0.89256 0.60321 0.0
O320 O 0.45798 0.8039 0.55227 0.0
O321 O 0.45763 0.82377 0.58034 0.0
Co322 Co 0.30973 0.87963 0.56062 0.0
O323 O 0.29563 0.87734 0.55763 0.0
O324 O 0.30639 0.8519 0.5385 0.0
C325 C 0.31065 0.94468 0.56955 0.0
O326 O 0.32485 0.8773 0.55904 0.0
Co327 Co 0.3186 0.89638 0.59865 0.0
O328 O 0.33121 0.89825 0.58535 0.0
C329 C 0.30808 0.82089 0.59108 0.0
C330 C 0.29722 0.8572 0.54299 0.0
C331 C 0.33223 0.88706 0.5691 0.0
O332 O 0.30915 0.82687 0.57414 0.0
O333 O 0.31033 0.8473 0.60291 0.0
O334 O 0.31 0.9366 0.55251 0.0
O335 O 0.30974 0.91425 0.58009 0.0
Co336 Co 0.55777 0.61027 0.31167 0.0
O337 O 0.54382 0.62057 0.31037 0.0
O338 O 0.55453 0.63807 0.28947 0.0
C339 C 0.55604 0.54625 0.32158 0.0
O340 O 0.57269 0.60413 0.30811 0.0
Co341 Co 0.568 0.58657 0.34761 0.0
O342 O 0.57935 0.57315 0.33206 0.0
C343 C 0.56127 0.67067 0.34116 0.0
C344 C 0.54545 0.63798 0.29509 0.0
C345 C 0.58002 0.58734 0.31622 0.0
O346 O 0.55968 0.66326 0.32446 0.0
O347 O 0.56377 0.64347 0.3525 0.0
O348 O 0.55567 0.55344 0.30443 0.0
O349 O 0.55706 0.57727 0.33172 0.0
Co350 Co 0.70399 0.62703 0.3092 0.0
O351 O 0.71798 0.61693 0.3088 0.0
O352 O 0.70783 0.60332 0.28643 0.0
C353 C 0.70523 0.68915 0.32164 0.0
O354 O 0.68915 0.63368 0.30454 0.0
Co355 Co 0.69265 0.6439 0.34491 0.0
O356 O 0.68206 0.66236 0.32864 0.0
C357 C 0.6995 0.56118 0.33587 0.0
C358 C 0.71675 0.60212 0.29285 0.0
C359 C 0.68173 0.65034 0.31244 0.0
O360 O 0.70182 0.57185 0.31982 0.0
O361 O 0.69644 0.58585 0.34786 0.0
O362 O 0.70625 0.68512 0.30437 0.0
O363 O 0.70398 0.65616 0.33039 0.0
Co364 Co 0.56022 0.6323 0.94087 0.0
O365 O 0.54616 0.62303 0.94105 0.0
O366 O 0.55628 0.60618 0.96301 0.0
C367 C 0.55969 0.69616 0.93013 0.0
O368 O 0.57506 0.63749 0.94583 0.0
Co369 Co 0.57152 0.65039 0.90522 0.0
O370 O 0.5825 0.6642 0.92159 0.0
C371 C 0.56373 0.5687 0.91257 0.0
C372 C 0.54736 0.60622 0.95663 0.0
C373 C 0.58265 0.6527 0.93787 0.0
O374 O 0.56214 0.57807 0.92906 0.0
O375 O 0.56661 0.59427 0.90079 0.0
O376 O 0.55823 0.6898 0.94714 0.0
O377 O 0.56056 0.66432 0.92042 0.0
Co378 Co 0.70688 0.61003 0.94266 0.0
O379 O 0.72104 0.61516 0.9441 0.0
O380 O 0.71061 0.63825 0.96441 0.0
C381 C 0.70649 0.54478 0.93373 0.0
O382 O 0.69187 0.60963 0.94611 0.0
Co383 Co 0.6966 0.59073 0.90609 0.0
O384 O 0.68475 0.584 0.9213 0.0
C385 C 0.70629 0.66905 0.91212 0.0
C386 C 0.71968 0.63471 0.95898 0.0
C387 C 0.68429 0.59652 0.93742 0.0
O388 O 0.70633 0.66278 0.92916 0.0
O389 O 0.70371 0.64223 0.90068 0.0
O390 O 0.70761 0.55303 0.95068 0.0
O391 O 0.70658 0.57537 0.92315 0.0
Co392 Co 0.45491 0.38383 0.69002 0.0
O393 O 0.469 0.37671 0.69129 0.0
O394 O 0.45848 0.3549 0.71172 0.0
C395 C 0.45523 0.44918 0.68146 0.0
O396 O 0.43989 0.38636 0.69355 0.0
Co397 Co 0.44472 0.40535 0.65367 0.0
O398 O 0.43294 0.41316 0.66885 0.0
C399 C 0.45179 0.32238 0.66025 0.0
C400 C 0.46756 0.35742 0.70621 0.0
C401 C 0.43236 0.40021 0.6849 0.0
O402 O 0.4538 0.33112 0.67665 0.0
O403 O 0.44869 0.34814 0.64876 0.0
O404 O 0.45618 0.44012 0.69834 0.0
O405 O 0.45497 0.41913 0.67054 0.0
Co406 Co 0.30861 0.36205 0.68813 0.0
O407 O 0.29464 0.36892 0.69117 0.0
O408 O 0.30582 0.38779 0.71102 0.0
C409 C 0.30755 0.29845 0.67744 0.0
O410 O 0.32371 0.35882 0.68977 0.0
Co411 Co 0.31743 0.34513 0.65025 0.0
O412 O 0.3298 0.33572 0.66367 0.0
C413 C 0.30946 0.4256 0.65929 0.0
C414 C 0.29658 0.3862 0.70636 0.0
C415 C 0.33095 0.34657 0.67993 0.0
O416 O 0.30925 0.41638 0.67605 0.0
O417 O 0.31163 0.40022 0.64696 0.0
O418 O 0.30761 0.30431 0.69471 0.0
O419 O 0.30762 0.33047 0.66774 0.0
Co420 Co 0.4559 0.36041 0.05918 0.0
O421 O 0.46999 0.36752 0.0575 0.0
O422 O 0.45931 0.38777 0.03702 0.0
C423 C 0.45608 0.29564 0.06882 0.0
O424 O 0.44087 0.35756 0.05597 0.0
Co425 Co 0.446 0.34176 0.09615 0.0
O426 O 0.434 0.33423 0.08143 0.0
C427 C 0.45478 0.42136 0.08901 0.0
C428 C 0.46842 0.38583 0.04237 0.0
C429 C 0.43337 0.34517 0.06509 0.0
O430 O 0.45493 0.4139 0.07207 0.0
O431 O 0.45251 0.39485 0.1008 0.0
O432 O 0.45706 0.30315 0.05177 0.0
O433 O 0.45598 0.32678 0.07907 0.0
Co434 Co 0.31005 0.37859 0.06124 0.0
O435 O 0.29592 0.37291 0.05945 0.0
O436 O 0.30651 0.35245 0.03887 0.0
C437 C 0.31026 0.44282 0.07147 0.0
O438 O 0.32509 0.38017 0.05813 0.0
Co439 Co 0.31996 0.39397 0.0985 0.0
O440 O 0.33203 0.40102 0.08395 0.0
C441 C 0.31101 0.31523 0.09031 0.0
C442 C 0.29741 0.35483 0.04424 0.0
C443 C 0.33265 0.39113 0.06748 0.0
O444 O 0.31067 0.32437 0.07354 0.0
O445 O 0.31354 0.34039 0.10248 0.0
O446 O 0.30923 0.43625 0.05436 0.0
O447 O 0.31014 0.4112 0.08146 0.0
H448 H 0.09036 0.15881 0.29376 0.0
H449 H 0.108 0.16819 0.28763 0.0
H450 H 0.11428 0.05481 0.31384 0.0
H451 H 0.09681 0.04608 0.32044 0.0
H452 H 0.1242 0.11577 0.32867 0.0
H453 H 0.1292 0.12177 0.25494 0.0
H454 H 0.11992 0.15548 0.26333 0.0
H455 H 0.1182 0.10176 0.26528 0.0
C456 C 0.09549 0.13534 0.29768 0.0
C457 C 0.09223 0.10184 0.30766 0.0
C458 C 0.10557 0.14066 0.29414 0.0
C459 C 0.1125 0.11216 0.30025 0.0
C460 C 0.10911 0.07728 0.30903 0.0
H461 H 0.17669 0.10164 0.29501 0.0
H462 H 0.1591 0.09263 0.28824 0.0
C463 C 0.09911 0.07229 0.31278 0.0
C464 C 0.12327 0.12087 0.29994 0.0
H465 H 0.14295 0.14216 0.27284 0.0
C466 C 0.12828 0.12131 0.31641 0.0
C467 C 0.12864 0.128 0.28397 0.0
C468 C 0.12375 0.1264 0.26585 0.0
C469 C 0.13842 0.12876 0.31743 0.0
C470 C 0.14376 0.13706 0.30156 0.0
C471 C 0.13883 0.13621 0.285 0.0
C472 C 0.15446 0.14656 0.30229 0.0
C473 C 0.14338 0.12715 0.33555 0.0
C474 C 0.15771 0.18081 0.31168 0.0
C475 C 0.16769 0.18579 0.3157 0.0
C476 C 0.17466 0.1569 0.31019 0.0
C477 C 0.17151 0.12445 0.29941 0.0
C478 C 0.16146 0.11924 0.29555 0.0
H479 H 0.13882 0.11078 0.34557 0.0
H480 H 0.15067 0.1121 0.33465 0.0
H481 H 0.14454 0.15842 0.34051 0.0
H482 H 0.15245 0.2026 0.31677 0.0
H483 H 0.16989 0.21139 0.32383 0.0
H484 H 0.17665 0.13757 0.96535 0.0
H485 H 0.15948 0.14367 0.97552 0.0
H486 H 0.14982 0.07578 0.9294 0.0
H487 H 0.16672 0.06884 0.91947 0.0
H488 H 0.14464 0.1814 0.95856 0.0
H489 H 0.13375 0.02252 0.96768 0.0
H490 H 0.14651 0.03769 0.96608 0.0
H491 H 0.13936 0.02838 0.94611 0.0
C492 C 0.17087 0.12324 0.95761 0.0
C493 C 0.17309 0.10282 0.94156 0.0
C494 C 0.16106 0.12681 0.96342 0.0
C495 C 0.15334 0.10953 0.95341 0.0
C496 C 0.15561 0.0884 0.93766 0.0
H497 H 0.0986 0.18161 0.91904 0.0
H498 H 0.11546 0.17476 0.92925 0.0
C499 C 0.16533 0.08489 0.93187 0.0
C500 C 0.14281 0.11665 0.95805 0.0
H501 H 0.12054 0.06853 0.95818 0.0
C502 C 0.13939 0.15666 0.95898 0.0
C503 C 0.13591 0.08456 0.95909 0.0
C504 C 0.13911 0.04091 0.9599 0.0
C505 C 0.12926 0.16536 0.95912 0.0
C506 C 0.12237 0.13328 0.95786 0.0
C507 C 0.12578 0.09327 0.95876 0.0
C508 C 0.11186 0.14044 0.95307 0.0
C509 C 0.12606 0.20899 0.95998 0.0
C510 C 0.1041 0.12283 0.96286 0.0
C511 C 0.09432 0.12634 0.95689 0.0
C512 C 0.09215 0.14705 0.94087 0.0
C513 C 0.09994 0.16535 0.93141 0.0
C514 C 0.10964 0.16188 0.93736 0.0
H515 H 0.13137 0.22726 0.96792 0.0
H516 H 0.12589 0.22174 0.94622 0.0
H517 H 0.11862 0.21213 0.96602 0.0
H518 H 0.10564 0.10573 0.97492 0.0
H519 H 0.08852 0.11173 0.96446 0.0
H520 H 0.9194 0.95273 0.69969 0.0
H521 H 0.90226 0.9467 0.7096 0.0
H522 H 0.90535 0.81676 0.71115 0.0
H523 H 0.92264 0.82329 0.70261 0.0
H524 H 0.88904 0.91688 0.69047 0.0
H525 H 0.8879 0.8271 0.75267 0.0
H526 H 0.89923 0.84863 0.74435 0.0
H527 H 0.89485 0.80062 0.73603 0.0
C528 C 0.9165 0.92312 0.70299 0.0
C529 C 0.92233 0.88853 0.70072 0.0
C530 C 0.90669 0.91957 0.70852 0.0
C531 C 0.90242 0.88125 0.71132 0.0
C532 C 0.90844 0.84677 0.70974 0.0
H533 H 0.84646 0.79213 0.68316 0.0
H534 H 0.86352 0.80191 0.69273 0.0
C535 C 0.91834 0.85045 0.70475 0.0
C536 C 0.8915 0.87712 0.71297 0.0
H537 H 0.87311 0.82434 0.73404 0.0
C538 C 0.8856 0.89743 0.70035 0.0
C539 C 0.88687 0.85161 0.72576 0.0
C540 C 0.89256 0.83116 0.74056 0.0
C541 C 0.87537 0.89163 0.69965 0.0
C542 C 0.87087 0.86442 0.71171 0.0
C543 C 0.87662 0.84506 0.72475 0.0
C544 C 0.86035 0.85345 0.70956 0.0
C545 C 0.86944 0.91339 0.68551 0.0
C546 C 0.85288 0.8783 0.71644 0.0
C547 C 0.84306 0.87259 0.71109 0.0
C548 C 0.84065 0.84233 0.69857 0.0
C549 C 0.84809 0.81583 0.69274 0.0
C550 C 0.85784 0.82127 0.69823 0.0
H551 H 0.87403 0.9341 0.67728 0.0
H552 H 0.86588 0.89101 0.6765 0.0
H553 H 0.86351 0.93125 0.69197 0.0
H554 H 0.85471 0.90351 0.7251 0.0
H555 H 0.83752 0.89368 0.71571 0.0
H556 H 0.91988 0.79984 0.08473 0.0
H557 H 0.90278 0.8074 0.07576 0.0
H558 H 0.91155 0.88578 0.0324 0.0
H559 H 0.92884 0.87899 0.04158 0.0
H560 H 0.89706 0.91904 0.05162 0.0
H561 H 0.88614 0.76257 0.03602 0.0
H562 H 0.89192 0.76439 0.0576 0.0
H563 H 0.89889 0.7776 0.03788 0.0
C564 C 0.91825 0.81824 0.0731 0.0
C565 C 0.92579 0.83893 0.06394 0.0
C566 C 0.90842 0.82219 0.06785 0.0
C567 C 0.90584 0.84661 0.0532 0.0
C568 C 0.91336 0.86645 0.04366 0.0
H569 H 0.84101 0.8568 0.03845 0.0
H570 H 0.85841 0.84962 0.02974 0.0
C571 C 0.92325 0.86245 0.04889 0.0
C572 C 0.89524 0.85449 0.04932 0.0
H573 H 0.87293 0.80687 0.04651 0.0
C574 C 0.89182 0.89453 0.05007 0.0
C575 C 0.88834 0.82279 0.04686 0.0
C576 C 0.89154 0.7795 0.04433 0.0
C577 C 0.88169 0.90334 0.04996 0.0
C578 C 0.87478 0.87124 0.04951 0.0
C579 C 0.8782 0.83152 0.04719 0.0
C580 C 0.86418 0.87777 0.05375 0.0
C581 C 0.87852 0.947 0.0509 0.0
C582 C 0.86162 0.89563 0.07014 0.0
C583 C 0.85178 0.89981 0.07509 0.0
C584 C 0.84415 0.88579 0.0639 0.0
C585 C 0.84668 0.86811 0.04736 0.0
C586 C 0.85662 0.86393 0.04238 0.0
H587 H 0.88402 0.96706 0.04438 0.0
H588 H 0.87125 0.95169 0.04438 0.0
H589 H 0.87795 0.95629 0.06515 0.0
H590 H 0.86728 0.9055 0.0794 0.0
H591 H 0.8502 0.91352 0.08795 0.0
H592 H 0.08962 0.63587 0.78784 0.0
H593 H 0.10699 0.64289 0.77914 0.0
H594 H 0.11531 0.56055 0.82134 0.0
H595 H 0.09815 0.5526 0.82972 0.0
H596 H 0.12108 0.67489 0.79892 0.0
H597 H 0.1328 0.5202 0.78244 0.0
H598 H 0.11996 0.53394 0.78405 0.0
H599 H 0.12681 0.51995 0.80382 0.0
C600 C 0.09513 0.61837 0.79491 0.0
C601 C 0.09246 0.59379 0.80954 0.0
C602 C 0.10507 0.62254 0.78997 0.0
C603 C 0.1125 0.60186 0.79941 0.0
C604 C 0.10976 0.57606 0.81349 0.0
H605 H 0.16755 0.67238 0.83765 0.0
H606 H 0.15059 0.66414 0.82819 0.0
C607 C 0.09989 0.57187 0.81841 0.0
C608 C 0.12315 0.61054 0.79624 0.0
H609 H 0.14566 0.5644 0.79468 0.0
C610 C 0.12643 0.65074 0.79755 0.0
C611 C 0.13021 0.57939 0.79402 0.0
C612 C 0.12723 0.53605 0.79079 0.0
C613 C 0.13652 0.66019 0.79823 0.0
C614 C 0.14355 0.62854 0.79808 0.0
C615 C 0.14031 0.58871 0.7952 0.0
C616 C 0.15409 0.63558 0.80289 0.0
C617 C 0.13952 0.70403 0.79953 0.0
C618 C 0.16183 0.62141 0.79205 0.0
C619 C 0.17168 0.62565 0.79757 0.0
C620 C 0.17396 0.64383 0.81414 0.0
C621 C 0.16616 0.65838 0.82477 0.0
C622 C 0.15639 0.65404 0.81929 0.0
H623 H 0.13411 0.7238 0.7926 0.0
H624 H 0.13968 0.71317 0.81384 0.0
H625 H 0.14691 0.70934 0.79364 0.0
H626 H 0.16024 0.60668 0.77941 0.0
H627 H 0.17747 0.61389 0.78907 0.0
H628 H 0.08801 0.61677 0.46183 0.0
H629 H 0.10519 0.60928 0.47163 0.0
H630 H 0.11478 0.68071 0.42652 0.0
H631 H 0.09783 0.68924 0.41702 0.0
H632 H 0.11959 0.57204 0.45461 0.0
H633 H 0.13155 0.72928 0.46465 0.0
H634 H 0.11871 0.71578 0.46275 0.0
H635 H 0.12602 0.72475 0.44295 0.0
C636 C 0.09377 0.6317 0.45426 0.0
C637 C 0.09149 0.65358 0.4386 0.0
C638 C 0.1036 0.62729 0.45985 0.0
C639 C 0.11132 0.64498 0.45001 0.0
C640 C 0.109 0.6677 0.43469 0.0
H641 H 0.16651 0.56396 0.41859 0.0
H642 H 0.1495 0.57376 0.42723 0.0
C643 C 0.09924 0.67219 0.42914 0.0
C644 C 0.12185 0.63657 0.45437 0.0
H645 H 0.14447 0.68194 0.45541 0.0
C646 C 0.125 0.59616 0.45523 0.0
C647 C 0.12898 0.66779 0.45568 0.0
C648 C 0.12611 0.71179 0.45667 0.0
C649 C 0.13506 0.5862 0.45577 0.0
C650 C 0.14221 0.61743 0.45491 0.0
C651 C 0.13905 0.65784 0.45568 0.0
C652 C 0.15278 0.60895 0.45096 0.0
C653 C 0.13791 0.54217 0.45681 0.0
C654 C 0.16043 0.62614 0.46117 0.0
C655 C 0.17033 0.62107 0.45605 0.0
C656 C 0.17272 0.59902 0.44051 0.0
C657 C 0.16502 0.58114 0.43064 0.0
C658 C 0.15522 0.58633 0.4357 0.0
H659 H 0.13235 0.52463 0.46452 0.0
H660 H 0.13815 0.52934 0.44307 0.0
H661 H 0.14523 0.53805 0.46319 0.0
H662 H 0.15875 0.64409 0.47292 0.0
H663 H 0.17604 0.63543 0.46392 0.0
H664 H 0.91517 0.42716 0.17133 0.0
H665 H 0.89821 0.41768 0.18049 0.0
H666 H 0.90769 0.34257 0.2245 0.0
H667 H 0.92492 0.3511 0.21499 0.0
H668 H 0.89324 0.30678 0.20637 0.0
H669 H 0.88141 0.46294 0.21934 0.0
H670 H 0.88712 0.46079 0.19774 0.0
H671 H 0.89426 0.44944 0.21752 0.0
C672 C 0.91373 0.40904 0.18314 0.0
C673 C 0.92146 0.38973 0.19236 0.0
C674 C 0.90397 0.40403 0.18851 0.0
C675 C 0.90162 0.38004 0.20341 0.0
C676 C 0.90932 0.36158 0.21305 0.0
H677 H 0.83685 0.37236 0.21388 0.0
H678 H 0.85399 0.3783 0.2241 0.0
C679 C 0.91917 0.36659 0.20765 0.0
C680 C 0.89107 0.3713 0.20742 0.0
H681 H 0.86853 0.4171 0.20832 0.0
C682 C 0.88785 0.33092 0.20726 0.0
C683 C 0.88398 0.40251 0.20909 0.0
C684 C 0.8869 0.44628 0.21115 0.0
C685 C 0.87777 0.32117 0.20705 0.0
C686 C 0.87069 0.35264 0.20648 0.0
C687 C 0.8739 0.39283 0.20834 0.0
C688 C 0.86017 0.34501 0.20179 0.0
C689 C 0.87483 0.27716 0.20698 0.0
C690 C 0.85788 0.32417 0.18594 0.0
C691 C 0.84814 0.32053 0.18016 0.0
C692 C 0.84038 0.33819 0.18991 0.0
C693 C 0.84262 0.35822 0.20606 0.0
C694 C 0.85243 0.36174 0.2119 0.0
H695 H 0.88022 0.25867 0.21462 0.0
H696 H 0.8674 0.27256 0.21285 0.0
H697 H 0.8748 0.26585 0.19298 0.0
H698 H 0.86368 0.31202 0.17757 0.0
H699 H 0.84676 0.30492 0.16765 0.0
H700 H 0.91929 0.30429 0.58383 0.0
H701 H 0.90209 0.3116 0.57539 0.0
H702 H 0.91036 0.39117 0.53213 0.0
H703 H 0.92776 0.38446 0.54074 0.0
H704 H 0.89586 0.42342 0.55229 0.0
H705 H 0.88532 0.26709 0.53552 0.0
H706 H 0.89136 0.26835 0.55688 0.0
H707 H 0.89803 0.2829 0.53701 0.0
C708 C 0.91752 0.32293 0.57233 0.0
C709 C 0.92495 0.34391 0.56302 0.0
C710 C 0.90764 0.32674 0.56739 0.0
C711 C 0.90489 0.3514 0.55293 0.0
C712 C 0.9123 0.37164 0.54324 0.0
H713 H 0.83994 0.35784 0.53996 0.0
H714 H 0.8573 0.35255 0.53078 0.0
C715 C 0.92225 0.36768 0.54815 0.0
C716 C 0.89424 0.35893 0.54938 0.0
H717 H 0.87207 0.31014 0.54673 0.0
C718 C 0.89068 0.3987 0.55064 0.0
C719 C 0.88742 0.32696 0.54681 0.0
C720 C 0.89075 0.28401 0.54377 0.0
C721 C 0.88052 0.40691 0.55094 0.0
C722 C 0.87371 0.37443 0.55036 0.0
C723 C 0.87726 0.33506 0.54752 0.0
C724 C 0.86311 0.38009 0.55489 0.0
C725 C 0.87721 0.45031 0.55242 0.0
C726 C 0.86058 0.39704 0.57149 0.0
C727 C 0.85075 0.40014 0.57671 0.0
C728 C 0.8431 0.38593 0.56559 0.0
C729 C 0.84561 0.36927 0.54883 0.0
C730 C 0.85553 0.36616 0.54358 0.0
H731 H 0.88259 0.47103 0.54595 0.0
H732 H 0.86987 0.45491 0.54615 0.0
H733 H 0.87673 0.45881 0.56678 0.0
H734 H 0.86625 0.40696 0.58071 0.0
H735 H 0.84918 0.4131 0.58973 0.0
H736 H 0.6753 0.1103 0.79045 0.0
H737 H 0.65799 0.10279 0.78148 0.0
H738 H 0.64916 0.17786 0.8259 0.0
H739 H 0.66626 0.18635 0.83457 0.0
H740 H 0.6438 0.06708 0.80005 0.0
H741 H 0.63189 0.2236 0.78775 0.0
H742 H 0.64474 0.20998 0.78925 0.0
H743 H 0.63773 0.22066 0.80924 0.0
C744 C 0.66969 0.12608 0.798 0.0
C745 C 0.67222 0.14887 0.81327 0.0
C746 C 0.65978 0.12162 0.79291 0.0
C747 C 0.65222 0.14022 0.80284 0.0
C748 C 0.6548 0.16405 0.81768 0.0
H749 H 0.59657 0.06299 0.83643 0.0
H750 H 0.61369 0.07205 0.82808 0.0
C751 C 0.66464 0.16854 0.82275 0.0
C752 C 0.64162 0.13161 0.79915 0.0
H753 H 0.61903 0.17718 0.79801 0.0
C754 C 0.63841 0.09119 0.79919 0.0
C755 C 0.63451 0.16279 0.79757 0.0
C756 C 0.63743 0.20663 0.79574 0.0
C757 C 0.62833 0.08135 0.79917 0.0
C758 C 0.62123 0.11273 0.7996 0.0
C759 C 0.62443 0.153 0.79806 0.0
C760 C 0.61063 0.10472 0.80357 0.0
C761 C 0.62542 0.03731 0.79905 0.0
C762 C 0.60307 0.1207 0.79278 0.0
C763 C 0.59313 0.11597 0.79768 0.0
C764 C 0.59057 0.09546 0.81357 0.0
C765 C 0.59819 0.07886 0.82408 0.0
C766 C 0.60805 0.08368 0.81922 0.0
H767 H 0.63097 0.01879 0.79182 0.0
H768 H 0.62507 0.02605 0.81305 0.0
H769 H 0.61812 0.03268 0.79265 0.0
H770 H 0.60485 0.13739 0.78072 0.0
H771 H 0.58749 0.12935 0.7893 0.0
H772 H 0.6683 0.0653 0.4182 0.0
H773 H 0.65127 0.07174 0.42768 0.0
H774 H 0.66054 0.1361 0.47504 0.0
H775 H 0.6778 0.13067 0.46532 0.0
H776 H 0.6407 0.0487 0.45691 0.0
H777 H 0.64195 0.21669 0.45172 0.0
H778 H 0.65183 0.18523 0.44363 0.0
H779 H 0.65036 0.1936 0.46726 0.0
C780 C 0.66679 0.08068 0.43072 0.0
C781 C 0.67446 0.09806 0.44083 0.0
C782 C 0.65701 0.08413 0.43618 0.0
C783 C 0.65457 0.10503 0.45191 0.0
C784 C 0.66221 0.12054 0.46265 0.0
H785 H 0.58928 0.10909 0.46537 0.0
H786 H 0.60652 0.10189 0.47505 0.0
C787 C 0.67208 0.11713 0.45715 0.0
C788 C 0.64397 0.11234 0.456 0.0
H789 H 0.62652 0.18674 0.45546 0.0
C790 C 0.63759 0.0789 0.45697 0.0
C791 C 0.63992 0.15179 0.45603 0.0
C792 C 0.64632 0.18898 0.45449 0.0
C793 C 0.62729 0.08368 0.45668 0.0
C794 C 0.62325 0.12309 0.45581 0.0
C795 C 0.62963 0.15657 0.45617 0.0
C796 C 0.61268 0.13015 0.45138 0.0
C797 C 0.62087 0.04644 0.45595 0.0
C798 C 0.61038 0.14977 0.43526 0.0
C799 C 0.60062 0.15425 0.42983 0.0
C800 C 0.59282 0.13917 0.44034 0.0
C801 C 0.59509 0.12087 0.45689 0.0
C802 C 0.60494 0.11646 0.46238 0.0
H803 H 0.62523 0.01838 0.45396 0.0
H804 H 0.61675 0.0435 0.46873 0.0
H805 H 0.61542 0.04893 0.4449 0.0
H806 H 0.61618 0.16068 0.42654 0.0
H807 H 0.59922 0.16888 0.41709 0.0
H808 H 0.33767 0.87475 0.21269 0.0
H809 H 0.35495 0.88366 0.22163 0.0
H810 H 0.36436 0.83366 0.17109 0.0
H811 H 0.34733 0.82357 0.16234 0.0
H812 H 0.37545 0.80544 0.19797 0.0
H813 H 0.37258 0.9729 0.20321 0.0
H814 H 0.36463 0.94427 0.21767 0.0
H815 H 0.36285 0.94242 0.19382 0.0
C816 C 0.34342 0.86531 0.20356 0.0
C817 C 0.34104 0.84874 0.18671 0.0
C818 C 0.35331 0.87073 0.20864 0.0
C819 C 0.36099 0.86004 0.19691 0.0
C820 C 0.3586 0.84227 0.1804 0.0
H821 H 0.41676 0.94277 0.16887 0.0
H822 H 0.39965 0.93231 0.17713 0.0
C823 C 0.34879 0.83664 0.17538 0.0
C824 C 0.37156 0.86808 0.20115 0.0
H825 H 0.38831 0.94461 0.20599 0.0
C826 C 0.37826 0.8358 0.20001 0.0
C827 C 0.37524 0.90774 0.20377 0.0
C828 C 0.36849 0.94395 0.20457 0.0
C829 C 0.3885 0.84226 0.20027 0.0
C830 C 0.39219 0.88211 0.20226 0.0
C831 C 0.38549 0.91408 0.20453 0.0
C832 C 0.4028 0.89198 0.19925 0.0
C833 C 0.39524 0.80665 0.1971 0.0
C834 C 0.41039 0.8741 0.20936 0.0
C835 C 0.4203 0.87977 0.20451 0.0
C836 C 0.42278 0.90367 0.18955 0.0
C837 C 0.41517 0.92372 0.18032 0.0
C838 C 0.40533 0.91789 0.18509 0.0
H839 H 0.39115 0.7795 0.19243 0.0
H840 H 0.40095 0.81419 0.18698 0.0
H841 H 0.39901 0.79872 0.20981 0.0
H842 H 0.40865 0.85478 0.22064 0.0
H843 H 0.42596 0.86406 0.21201 0.0
H844 H 0.33892 0.85426 0.53713 0.0
H845 H 0.35616 0.8465 0.52753 0.0
H846 H 0.36589 0.90513 0.57604 0.0
H847 H 0.34895 0.9139 0.5854 0.0
H848 H 0.37624 0.93115 0.5473 0.0
H849 H 0.37483 0.76283 0.54848 0.0
H850 H 0.36638 0.78803 0.53368 0.0
H851 H 0.36503 0.79343 0.5575 0.0
C852 C 0.34474 0.8658 0.54564 0.0
C853 C 0.3425 0.88429 0.56215 0.0
C854 C 0.3546 0.8611 0.54019 0.0
C855 C 0.36235 0.87467 0.55119 0.0
C856 C 0.36007 0.89432 0.5673 0.0
H857 H 0.41809 0.80516 0.58294 0.0
H858 H 0.40104 0.81324 0.57394 0.0
C859 C 0.35032 0.8991 0.5727 0.0
C860 C 0.37291 0.86754 0.54676 0.0
H861 H 0.39031 0.79297 0.54527 0.0
C862 C 0.37932 0.90095 0.5465 0.0
C863 C 0.37693 0.82811 0.54577 0.0
C864 C 0.37049 0.79093 0.54647 0.0
C865 C 0.38961 0.89606 0.54662 0.0
C866 C 0.39364 0.85655 0.54645 0.0
C867 C 0.38722 0.82323 0.54538 0.0
C868 C 0.40426 0.84891 0.55033 0.0
C869 C 0.39603 0.93319 0.54831 0.0
C870 C 0.41188 0.86532 0.53981 0.0
C871 C 0.42177 0.86114 0.54509 0.0
C872 C 0.4242 0.84014 0.56091 0.0
C873 C 0.41655 0.82193 0.57078 0.0
C874 C 0.40675 0.82634 0.56559 0.0
H875 H 0.39168 0.9607 0.55153 0.0
H876 H 0.40166 0.92893 0.55893 0.0
H877 H 0.3999 0.93857 0.53544 0.0
H878 H 0.41018 0.88207 0.52773 0.0
H879 H 0.42745 0.87531 0.53707 0.0
H880 H 0.67358 0.59192 0.29111 0.0
H881 H 0.65601 0.58354 0.28454 0.0
H882 H 0.65009 0.7001 0.30814 0.0
H883 H 0.66754 0.70778 0.3153 0.0
H884 H 0.63994 0.64304 0.32422 0.0
H885 H 0.63489 0.62437 0.25105 0.0
H886 H 0.64402 0.59099 0.26015 0.0
H887 H 0.64605 0.64476 0.26066 0.0
C888 C 0.66857 0.61639 0.29426 0.0
C889 C 0.67191 0.65044 0.30378 0.0
C890 C 0.65851 0.61161 0.29047 0.0
C891 C 0.65168 0.64121 0.29582 0.0
C892 C 0.65518 0.67677 0.30392 0.0
H893 H 0.58722 0.64127 0.29141 0.0
H894 H 0.60461 0.65277 0.2839 0.0
C895 C 0.66517 0.68122 0.30796 0.0
C896 C 0.64089 0.63265 0.29577 0.0
H897 H 0.62137 0.60342 0.26971 0.0
C898 C 0.6359 0.63481 0.31222 0.0
C899 C 0.63555 0.62188 0.28015 0.0
C900 C 0.64038 0.62073 0.26197 0.0
C901 C 0.62582 0.62605 0.31359 0.0
C902 C 0.62056 0.61376 0.29815 0.0
C903 C 0.62545 0.61235 0.28157 0.0
C904 C 0.61001 0.60214 0.2994 0.0
C905 C 0.62088 0.63021 0.33162 0.0
C906 C 0.60725 0.56877 0.30988 0.0
C907 C 0.59738 0.56234 0.3143 0.0
C908 C 0.59002 0.5889 0.30816 0.0
C909 C 0.5927 0.62023 0.29634 0.0
C910 C 0.60264 0.62688 0.29205 0.0
H911 H 0.62527 0.64918 0.34097 0.0
H912 H 0.61344 0.64376 0.33023 0.0
H913 H 0.62004 0.5998 0.33774 0.0
H914 H 0.61281 0.54898 0.31549 0.0
H915 H 0.59556 0.53765 0.32325 0.0
H916 H 0.67669 0.65406 0.9601 0.0
H917 H 0.65921 0.6635 0.96762 0.0
H918 H 0.65211 0.55197 0.94054 0.0
H919 H 0.6694 0.54313 0.93262 0.0
H920 H 0.64227 0.6154 0.92697 0.0
H921 H 0.63839 0.61473 1.00102 0.0
H922 H 0.64776 0.64814 0.99258 0.0
H923 H 0.64908 0.59448 0.98973 0.0
C924 C 0.67142 0.631 0.95627 0.0
C925 C 0.67437 0.59806 0.94564 0.0
C926 C 0.66144 0.63634 0.96061 0.0
C927 C 0.65433 0.6084 0.95467 0.0
C928 C 0.65744 0.57398 0.94524 0.0
H929 H 0.59044 0.59546 0.96034 0.0
H930 H 0.60799 0.58729 0.96764 0.0
C931 C 0.66733 0.56897 0.94071 0.0
C932 C 0.64361 0.61751 0.95571 0.0
H933 H 0.62438 0.63638 0.98418 0.0
C934 C 0.63838 0.61978 0.93952 0.0
C935 C 0.63851 0.62317 0.97207 0.0
C936 C 0.64368 0.61968 0.98987 0.0
C937 C 0.62824 0.62753 0.93915 0.0
C938 C 0.62316 0.63424 0.95543 0.0
C939 C 0.62832 0.63165 0.97172 0.0
C940 C 0.61247 0.64364 0.95535 0.0
C941 C 0.62302 0.62794 0.92126 0.0
C942 C 0.60913 0.67898 0.94691 0.0
C943 C 0.59919 0.68342 0.94255 0.0
C944 C 0.59237 0.65295 0.94685 0.0
C945 C 0.59554 0.61952 0.95697 0.0
C946 C 0.60556 0.61479 0.96111 0.0
H947 H 0.62744 0.61299 0.91063 0.0
H948 H 0.61577 0.61251 0.92217 0.0
H949 H 0.62173 0.65972 0.91711 0.0
H950 H 0.61433 0.70181 0.94253 0.0
H951 H 0.59694 0.70963 0.93486 0.0
H952 H 0.34774 0.32393 0.66257 0.0
H953 H 0.36465 0.3304 0.67254 0.0
H954 H 0.35475 0.37699 0.72341 0.0
H955 H 0.33757 0.37169 0.71323 0.0
H956 H 0.36932 0.42229 0.7105 0.0
H957 H 0.38113 0.26367 0.70534 0.0
H958 H 0.37565 0.27886 0.68458 0.0
H959 H 0.3683 0.2779 0.70473 0.0
C960 C 0.34907 0.33511 0.676 0.0
C961 C 0.34121 0.34722 0.68708 0.0
C962 C 0.35881 0.33841 0.68176 0.0
C963 C 0.36103 0.35326 0.6989 0.0
C964 C 0.35323 0.365 0.71018 0.0
H965 H 0.4256 0.35198 0.71251 0.0
H966 H 0.40836 0.34221 0.72165 0.0
C967 C 0.34341 0.36188 0.70436 0.0
C968 C 0.37154 0.35938 0.70413 0.0
H969 H 0.39409 0.31421 0.70103 0.0
C970 C 0.37471 0.39839 0.70885 0.0
C971 C 0.37862 0.32814 0.70252 0.0
C972 C 0.37571 0.28473 0.69922 0.0
C973 C 0.38479 0.4077 0.71041 0.0
C974 C 0.3919 0.3775 0.70668 0.0
C975 C 0.3887 0.33771 0.70357 0.0
C976 C 0.40248 0.38739 0.70355 0.0
C977 C 0.3877 0.45015 0.7156 0.0
C978 C 0.40497 0.41635 0.69057 0.0
C979 C 0.41475 0.42203 0.68542 0.0
C980 C 0.42235 0.39855 0.69294 0.0
C981 C 0.41995 0.37074 0.70654 0.0
C982 C 0.41009 0.36502 0.71171 0.0
H983 H 0.38217 0.4636 0.72481 0.0
H984 H 0.39502 0.45095 0.72221 0.0
H985 H 0.38796 0.46933 0.70341 0.0
H986 H 0.39929 0.43329 0.68369 0.0
H987 H 0.4163 0.44383 0.67495 0.0
H988 H 0.34944 0.42236 0.08185 0.0
H989 H 0.36617 0.41576 0.07108 0.0
H990 H 0.35576 0.35272 0.02415 0.0
H991 H 0.33875 0.35828 0.03521 0.0
H992 H 0.37078 0.31322 0.03918 0.0
H993 H 0.38182 0.47259 0.03353 0.0
H994 H 0.37656 0.46448 0.05523 0.0
H995 H 0.36906 0.4577 0.03547 0.0
C996 C 0.35061 0.40747 0.0691 0.0
C997 C 0.34268 0.39072 0.05944 0.0
C998 C 0.36024 0.40416 0.06283 0.0
C999 C 0.36227 0.38454 0.04659 0.0
C1000 C 0.35438 0.36843 0.03663 0.0
H1001 H 0.42691 0.38462 0.0346 0.0
H1002 H 0.40981 0.39106 0.02414 0.0
C1003 C 0.34466 0.3717 0.04295 0.0
C1004 C 0.37272 0.37774 0.04132 0.0
H1005 H 0.39506 0.42525 0.04168 0.0
C1006 C 0.37606 0.33784 0.03923 0.0
C1007 C 0.37966 0.40974 0.04082 0.0
C1008 C 0.37655 0.45352 0.04117 0.0
C1009 C 0.38617 0.32891 0.0385 0.0
C1010 C 0.39313 0.36059 0.0404 0.0
C1011 C 0.38977 0.40074 0.04062 0.0
C1012 C 0.40366 0.35261 0.04481 0.0
C1013 C 0.38928 0.28541 0.03633 0.0
C1014 C 0.40593 0.32873 0.05979 0.0
C1015 C 0.41563 0.32496 0.06572 0.0
C1016 C 0.42335 0.34541 0.05699 0.0
C1017 C 0.42116 0.36831 0.04159 0.0
C1018 C 0.41138 0.3721 0.03563 0.0
H1019 H 0.38392 0.26862 0.02787 0.0
H1020 H 0.3967 0.28291 0.03018 0.0
H1021 H 0.38942 0.27056 0.04966 0.0
H1022 H 0.40014 0.31432 0.06747 0.0
H1023 H 0.417 0.30694 0.07759 0.0
H1024 H 0.02734 0.13277 0.2998 0.0
H1025 H 0.01377 0.16884 0.28536 0.0
H1026 H 0.03423 0.22371 0.24843 0.0
H1027 H 0.04784 0.18712 0.26265 0.0
H1028 H 0.01107 0.25056 0.28272 0.0
H1029 H 0.01293 0.18333 0.21473 0.0
H1030 H 0.01932 0.16178 0.23367 0.0
H1031 H 0.02435 0.20491 0.22218 0.0
C1032 C 0.02895 0.15208 0.28845 0.0
C1033 C 0.03869 0.15684 0.28233 0.0
C1034 C 0.02118 0.17282 0.28024 0.0
C1035 C 0.02292 0.19872 0.26566 0.0
C1036 C 0.03263 0.20328 0.2594 0.0
H1037 H 0.98638 0.35831 0.20125 0.0
H1038 H 0.99983 0.32175 0.21578 0.0
C1039 C 0.04043 0.18242 0.26759 0.0
C1040 C 0.01464 0.22215 0.25759 0.0
H1041 H 1.00236 0.23992 0.21835 0.0
C1042 C 0.00913 0.24807 0.26866 0.0
C1043 C 0.0121 0.21902 0.23923 0.0
C1044 C 0.01742 0.19049 0.22678 0.0
C1045 C 1.00132 0.27143 0.26184 0.0
C1046 C 0.99879 0.26836 0.24347 0.0
C1047 C 1.00429 0.24239 0.23242 0.0
C1048 C 0.99057 0.29206 0.23536 0.0
C1049 C 0.996 0.29995 0.2743 0.0
C1050 C 0.98083 0.2878 0.24153 0.0
C1051 C 0.9731 0.30896 0.23329 0.0
C1052 C 0.97493 0.33455 0.21859 0.0
C1053 C 0.98469 0.339 0.21257 0.0
C1054 C 0.9924 0.31797 0.22083 0.0
H1055 H 1.00046 0.30692 0.2864 0.0
H1056 H 0.99415 0.32876 0.26743 0.0
H1057 H 0.98903 0.28563 0.27879 0.0
H1058 H 0.97917 0.26737 0.25247 0.0
H1059 H 0.96566 0.30448 0.23815 0.0
H1060 H 0.2179 0.05984 0.26635 0.0
H1061 H 0.23121 0.02143 0.25204 0.0
H1062 H 0.25209 0.0724 0.2893 0.0
H1063 H 0.23887 0.11028 0.30377 0.0
H1064 H 0.24862 0.04733 0.23575 0.0
H1065 H 0.25695 0.95144 0.29485 0.0
H1066 H 0.24588 0.98138 0.29321 0.0
H1067 H 0.25736 0.00472 0.29939 0.0
C1068 C 0.22533 0.06297 0.27144 0.0
C1069 C 0.2273 0.08797 0.28627 0.0
C1070 C 0.23293 0.04095 0.26328 0.0
C1071 C 0.24262 0.04336 0.26983 0.0
C1072 C 0.24464 0.06923 0.28428 0.0
H1073 H 0.29876 0.93552 0.23746 0.0
H1074 H 0.28575 0.97404 0.25271 0.0
C1075 C 0.23707 0.09114 0.29245 0.0
C1076 C 0.25066 0.0192 0.26149 0.0
H1077 H 0.26814 0.94747 0.27044 0.0
C1078 C 0.25285 0.02537 0.24331 0.0
C1079 C 0.25622 0.99061 0.27139 0.0
C1080 C 0.25395 0.98128 0.29075 0.0
C1081 C 0.26053 0.00422 0.23484 0.0
C1082 C 0.26607 0.97559 0.24472 0.0
C1083 C 0.26391 0.96952 0.26291 0.0
C1084 C 0.27392 0.95082 0.23619 0.0
C1085 C 0.26276 0.01323 0.21543 0.0
C1086 C 0.27156 0.92411 0.22224 0.0
C1087 C 0.27894 0.90209 0.21359 0.0
C1088 C 0.28887 0.90608 0.21874 0.0
C1089 C 0.2912 0.93175 0.23317 0.0
C1090 C 0.28377 0.95384 0.24186 0.0
H1091 H 0.25969 0.0429 0.21121 0.0
H1092 H 0.27082 0.01329 0.21294 0.0
H1093 H 0.25938 0.98949 0.20689 0.0
H1094 H 0.26399 0.92059 0.2179 0.0
H1095 H 0.27686 0.88244 0.20261 0.0
H1096 H 0.04808 0.06578 0.98796 0.0
H1097 H 0.03467 0.02824 0.00247 0.0
H1098 H 0.0141 0.07561 0.96378 0.0
H1099 H 0.02742 0.11278 0.94914 0.0
H1100 H 0.01681 0.05485 0.01765 0.0
H1101 H 0.00994 0.95323 0.95976 0.0
H1102 H 0.0209 0.9839 0.96162 0.0
H1103 H 0.00948 0.00617 0.95445 0.0
C1104 C 0.04069 0.06842 0.98262 0.0
C1105 C 0.03884 0.09215 0.96733 0.0
C1106 C 0.03303 0.04688 0.9909 0.0
C1107 C 0.02341 0.04844 0.984 0.0
C1108 C 0.02149 0.07317 0.96911 0.0
H1109 H 0.96776 0.93377 0.01537 0.0
H1110 H 0.98057 0.97374 1.00023 0.0
C1111 C 0.02912 0.09468 0.96084 0.0
C1112 C 0.01536 0.02425 0.99233 0.0
H1113 H 0.99861 0.94927 0.98387 0.0
C1114 C 0.01285 0.03169 0.01028 0.0
C1115 C 0.01017 0.99409 0.98269 0.0
C1116 C 0.01279 0.98351 0.96361 0.0
C1117 C 1.00523 0.01017 0.01877 0.0
C1118 C 1.00008 0.97984 0.00917 0.0
C1119 C 1.00254 0.97258 0.99119 0.0
C1120 C 0.99236 0.95446 0.01779 0.0
C1121 C 1.00265 0.02056 0.03789 0.0
C1122 C 0.99477 0.92951 0.03235 0.0
C1123 C 0.98751 0.90665 0.04095 0.0
C1124 C 0.97765 0.90802 0.03514 0.0
C1125 C 0.97528 0.93204 0.02018 0.0
C1126 C 0.98258 0.95495 0.01155 0.0
H1127 H 1.00534 0.05115 0.04165 0.0
H1128 H 0.99456 0.01933 0.04005 0.0
H1129 H 1.00615 -0.00169 0.04701 0.0
H1130 H 1.00229 0.92792 0.03716 0.0
H1131 H 0.98962 0.88834 0.05235 0.0
H1132 H 0.21724 0.18246 0.98894 0.0
H1133 H 0.23069 0.22005 0.0033 0.0
H1134 H 0.25138 0.16794 0.96609 0.0
H1135 H 0.23801 0.1308 0.95157 0.0
H1136 H 0.2482 0.19441 0.01958 0.0
H1137 H 0.25624 0.28898 0.95992 0.0
H1138 H 0.24516 0.25911 0.96188 0.0
H1139 H 0.2566 0.23557 0.95567 0.0
C1140 C 0.22466 0.17875 0.98391 0.0
C1141 C 0.22653 0.15376 0.96903 0.0
C1142 C 0.23234 0.20034 0.9921 0.0
C1143 C 0.24202 0.19754 0.98554 0.0
C1144 C 0.24395 0.17142 0.97113 0.0
H1145 H 0.29842 0.30668 0.01431 0.0
H1146 H 0.28497 0.26872 1.00017 0.0
C1147 C 0.23629 0.14991 0.96293 0.0
C1148 C 0.25011 0.22194 0.99369 0.0
H1149 H 0.2675 0.29373 0.98417 0.0
C1150 C 0.25238 0.21628 0.01187 0.0
C1151 C 0.2556 0.25045 0.98361 0.0
C1152 C 0.25324 0.25926 0.96423 0.0
C1153 C 0.26011 0.23768 0.02015 0.0
C1154 C 0.2656 0.26621 0.01008 0.0
C1155 C 0.26332 0.27187 0.99189 0.0
C1156 C 0.27369 0.29061 0.01821 0.0
C1157 C 0.26248 0.22877 0.03951 0.0
C1158 C 0.27181 0.31647 0.03273 0.0
C1159 C 0.27947 0.33815 0.04083 0.0
C1160 C 0.28919 0.33479 0.03448 0.0
C1161 C 0.29102 0.31001 0.01953 0.0
C1162 C 0.28334 0.28821 0.01145 0.0
H1163 H 0.25952 0.19893 0.04377 0.0
H1164 H 0.27055 0.22911 0.04188 0.0
H1165 H 0.25908 0.25228 0.04812 0.0
H1166 H 0.2644 0.31968 0.03791 0.0
H1167 H 0.27778 0.35711 0.05225 0.0
H1168 H 0.96876 0.81472 0.73876 0.0
H1169 H 0.98293 0.78059 0.75234 0.0
H1170 H 1.00089 0.81407 0.70706 0.0
H1171 H 0.98681 0.84863 0.6935 0.0
H1172 H 0.99355 0.71604 0.73798 0.0
H1173 H 0.01811 0.84793 0.74941 0.0
H1174 H 1.00513 0.85336 0.7447 0.0
H1175 H 0.01365 0.84296 0.72685 0.0
C1176 C 0.97576 0.81529 0.73179 0.0
C1177 C 0.97665 0.83462 0.71507 0.0
C1178 C 0.98385 0.79565 0.73955 0.0
C1179 C 0.99302 0.79514 0.73084 0.0
C1180 C 0.99396 0.81473 0.71423 0.0
H1181 H 0.04952 0.68254 0.76011 0.0
H1182 H 0.0363 0.71798 0.74393 0.0
C1183 C 0.98587 0.83435 0.70645 0.0
C1184 C 1.00145 0.77248 0.73876 0.0
H1185 H 0.02493 0.78311 0.75476 0.0
C1186 C 1.0004 0.73074 0.74168 0.0
C1187 C 0.01044 0.79155 0.74342 0.0
C1188 C 0.01191 0.83647 0.7411 0.0
C1189 C 0.00807 0.70757 0.74908 0.0
C1190 C 0.01699 0.72674 0.7541 0.0
C1191 C 0.01811 0.76837 0.75091 0.0
C1192 C 0.02502 0.70451 0.76354 0.0
C1193 C 1.00657 0.6626 0.75125 0.0
C1194 C 0.02312 0.6855 0.77999 0.0
C1195 C 0.0306 0.66514 0.78915 0.0
C1196 C 0.04023 0.66361 0.7822 0.0
C1197 C 0.04217 0.68288 0.76576 0.0
C1198 C 0.03464 0.70325 0.75654 0.0
H1199 H 1.00089 0.65098 0.74183 0.0
H1200 H 0.01353 0.64575 0.74897 0.0
H1201 H 1.004 0.65623 0.76507 0.0
H1202 H 0.01585 0.68687 0.78592 0.0
H1203 H 0.02884 0.65105 0.80185 0.0
H1204 H 0.73619 0.0996 0.80381 0.0
H1205 H 0.74919 0.06297 0.78828 0.0
H1206 H 0.72838 0.02447 0.74807 0.0
H1207 H 0.71518 0.06076 0.76384 0.0
H1208 H 0.74005 0.96178 0.76056 0.0
H1209 H 0.76357 0.09257 0.74264 0.0
H1210 H 0.76073 0.09068 0.7661 0.0
H1211 H 0.751 0.09837 0.75006 0.0
C1212 C 0.73436 0.08376 0.79156 0.0
C1213 C 0.72463 0.08337 0.78502 0.0
C1214 C 0.74184 0.06295 0.78262 0.0
C1215 C 0.73983 0.0415 0.76681 0.0
C1216 C 0.73013 0.04107 0.76017 0.0
H1217 H 0.77639 0.89084 0.69774 0.0
H1218 H 0.76281 0.92692 0.71203 0.0
C1219 C 0.7226 0.06194 0.76916 0.0
C1220 C 0.74781 0.01823 0.75778 0.0
H1221 H 0.77095 0.02732 0.7401 0.0
C1222 C 0.74676 0.97617 0.75592 0.0
C1223 C 0.75661 0.03692 0.7518 0.0
C1224 C 0.75803 0.08216 0.75258 0.0
C1225 C 0.75435 0.95223 0.74869 0.0
C1226 C 0.76319 0.97089 0.74293 0.0
C1227 C 0.76421 0.01297 0.74465 0.0
C1228 C 0.77139 0.94747 0.7347 0.0
C1229 C 0.75295 0.90702 0.74771 0.0
C1230 C 0.78081 0.94733 0.74255 0.0
C1231 C 0.78863 0.92668 0.73438 0.0
C1232 C 0.7872 0.90609 0.71808 0.0
C1233 C 0.77775 0.9061 0.71034 0.0
C1234 C 0.76994 0.92661 0.71854 0.0
H1235 H 0.747 0.89653 0.75681 0.0
H1236 H 0.75088 0.89852 0.73382 0.0
H1237 H 0.75986 0.89089 0.7512 0.0
H1238 H 0.78212 0.96342 0.75498 0.0
H1239 H 0.79583 0.92753 0.74063 0.0
H1240 H 0.73929 0.62987 0.95102 0.0
H1241 H 0.75293 0.66618 0.96517 0.0
H1242 H 0.73261 0.72236 0.00189 0.0
H1243 H 0.71894 0.6855 0.98802 0.0
H1244 H 0.7559 0.74748 0.96746 0.0
H1245 H 0.75372 0.68234 0.03579 0.0
H1246 H 0.74726 0.66063 0.01696 0.0
H1247 H 0.74234 0.70415 0.02832 0.0
C1248 C 0.73773 0.64954 0.96227 0.0
C1249 C 0.72802 0.65454 0.96846 0.0
C1250 C 0.74554 0.67041 0.97031 0.0
C1251 C 0.74385 0.69669 0.98476 0.0
C1252 C 0.73416 0.7016 0.99104 0.0
H1253 H 0.77952 0.8602 0.04824 0.0
H1254 H 0.76635 0.82275 0.03334 0.0
C1255 C 0.72633 0.68059 0.98304 0.0
C1256 C 0.75216 0.72008 0.99274 0.0
H1257 H 0.76419 0.73944 0.03209 0.0
C1258 C 0.75775 0.74552 0.98157 0.0
C1259 C 0.7546 0.71757 0.01116 0.0
C1260 C 0.74923 0.68942 0.02374 0.0
C1261 C 0.76554 0.76914 0.98837 0.0
C1262 C 0.7679 0.7669 0.00681 0.0
C1263 C 0.76236 0.74128 0.01796 0.0
C1264 C 0.77598 0.79132 0.01496 0.0
C1265 C 0.77099 0.79708 0.97582 0.0
C1266 C 0.78583 0.78641 0.00953 0.0
C1267 C 0.79342 0.808 0.01802 0.0
C1268 C 0.79131 0.83472 0.03218 0.0
C1269 C 0.78143 0.83999 0.03736 0.0
C1270 C 0.77387 0.81847 0.02889 0.0
H1271 H 0.76675 0.80283 0.96333 0.0
H1272 H 0.77259 0.82649 0.98239 0.0
H1273 H 0.7781 0.783 0.97203 0.0
H1274 H 0.78768 0.76511 0.99905 0.0
H1275 H 0.80095 0.80295 0.01381 0.0
H1276 H 0.21688 0.55434 0.76562 0.0
H1277 H 0.23015 0.51657 0.75075 0.0
H1278 H 0.25148 0.57283 0.78558 0.0
H1279 H 0.23835 0.61011 0.80054 0.0
H1280 H 0.24738 0.54331 0.73296 0.0
H1281 H 0.25683 0.45221 0.79299 0.0
H1282 H 0.24555 0.48087 0.7913 0.0
H1283 H 0.25694 0.50583 0.79678 0.0
C1284 C 0.2244 0.55885 0.77001 0.0
C1285 C 0.22654 0.58504 0.78435 0.0
C1286 C 0.23198 0.53719 0.76154 0.0
C1287 C 0.24179 0.54119 0.76732 0.0
C1288 C 0.24395 0.56845 0.78118 0.0
H1289 H 0.29826 0.43606 0.73576 0.0
H1290 H 0.28499 0.47375 0.75068 0.0
C1291 C 0.23642 0.58999 0.78963 0.0
C1292 C 0.24981 0.517 0.75895 0.0
H1293 H 0.26779 0.44768 0.76828 0.0
C1294 C 0.2518 0.52222 0.74065 0.0
C1295 C 0.25562 0.48961 0.76902 0.0
C1296 C 0.25359 0.48142 0.78858 0.0
C1297 C 0.25955 0.50141 0.73221 0.0
C1298 C 0.26536 0.47397 0.74228 0.0
C1299 C 0.26337 0.46877 0.76059 0.0
C1300 C 0.27337 0.44973 0.7339 0.0
C1301 C 0.2616 0.50973 0.71268 0.0
C1302 C 0.27121 0.42278 0.71993 0.0
C1303 C 0.27874 0.4013 0.71143 0.0
C1304 C 0.28862 0.40596 0.71682 0.0
C1305 C 0.29074 0.43175 0.7313 0.0
C1306 C 0.28317 0.45339 0.7398 0.0
H1307 H 0.25842 0.53908 0.70832 0.0
H1308 H 0.26964 0.51008 0.70995 0.0
H1309 H 0.25821 0.48552 0.70442 0.0
H1310 H 0.26369 0.41862 0.71544 0.0
H1311 H 0.27683 0.38148 0.70041 0.0
H1312 H 0.02732 0.60814 0.44844 0.0
H1313 H 0.01429 0.57019 0.46344 0.0
H1314 H 0.03566 0.51895 0.49967 0.0
H1315 H 0.04878 0.55752 0.48483 0.0
H1316 H 0.0124 0.48807 0.46628 0.0
H1317 H 0.01432 0.55724 0.53394 0.0
H1318 H 0.0203 0.57937 0.51469 0.0
H1319 H 0.02583 0.53721 0.5261 0.0
C1320 C 0.02926 0.58919 0.45974 0.0
C1321 C 0.03911 0.58603 0.46548 0.0
C1322 C 0.02179 0.56738 0.46827 0.0
C1323 C 0.02395 0.54195 0.4828 0.0
C1324 C 0.03376 0.53896 0.48872 0.0
H1325 H 0.98921 0.37946 0.54854 0.0
H1326 H 1.00222 0.41685 0.53321 0.0
C1327 C 0.04127 0.56094 0.48019 0.0
C1328 C 0.01595 0.51755 0.4912 0.0
H1329 H 1.00399 0.4998 0.53073 0.0
C1330 C 0.01053 0.49075 0.48037 0.0
C1331 C 0.0135 0.52104 0.50957 0.0
C1332 C 0.01872 0.55052 0.52175 0.0
C1333 C 1.00288 0.46689 0.48744 0.0
C1334 C 1.00045 0.47032 0.50582 0.0
C1335 C 1.00585 0.49714 0.51665 0.0
C1336 C 0.99247 0.44587 0.51423 0.0
C1337 C 0.99761 0.43755 0.47527 0.0
C1338 C 0.98262 0.44938 0.5086 0.0
C1339 C 0.97512 0.42777 0.51733 0.0
C1340 C 0.97733 0.40248 0.53194 0.0
C1341 C 0.98722 0.39858 0.53732 0.0
C1342 C 0.99469 0.42006 0.5286 0.0
H1343 H 1.00193 0.43114 0.46295 0.0
H1344 H 0.99612 0.40855 0.48227 0.0
H1345 H 0.99045 0.45077 0.47114 0.0
H1346 H 0.98069 0.46965 0.49775 0.0
H1347 H 0.96757 0.43176 0.51297 0.0
H1348 H 0.21617 0.69241 0.4863 0.0
H1349 H 0.22955 0.73069 0.50058 0.0
H1350 H 0.25064 0.67215 0.46608 0.0
H1351 H 0.23736 0.63441 0.45165 0.0
H1352 H 0.24651 0.70518 0.51864 0.0
H1353 H 0.25657 0.79142 0.45759 0.0
H1354 H 0.24524 0.76313 0.45938 0.0
H1355 H 0.25662 0.73761 0.45444 0.0
C1356 C 0.22366 0.68757 0.48183 0.0
C1357 C 0.22568 0.66053 0.46775 0.0
C1358 C 0.2313 0.70952 0.48998 0.0
C1359 C 0.24109 0.70499 0.48414 0.0
C1360 C 0.24313 0.677 0.47051 0.0
H1361 H 0.29815 0.8053 0.51428 0.0
H1362 H 0.28446 0.76893 0.50005 0.0
C1363 C 0.23552 0.65518 0.46236 0.0
C1364 C 0.24919 0.72926 0.4923 0.0
H1365 H 0.26758 0.7964 0.48229 0.0
C1366 C 0.25107 0.72533 0.51072 0.0
C1367 C 0.25517 0.75553 0.48196 0.0
C1368 C 0.25326 0.76256 0.46228 0.0
C1369 C 0.25889 0.74615 0.51899 0.0
C1370 C 0.26491 0.77227 0.50863 0.0
C1371 C 0.263 0.77632 0.49022 0.0
C1372 C 0.27317 0.79579 0.51669 0.0
C1373 C 0.26081 0.73912 0.53867 0.0
C1374 C 0.27137 0.8239 0.53039 0.0
C1375 C 0.27916 0.8447 0.53851 0.0
C1376 C 0.28895 0.83814 0.53302 0.0
C1377 C 0.29071 0.8111 0.51882 0.0
C1378 C 0.28289 0.79021 0.51071 0.0
H1379 H 0.25736 0.71062 0.54346 0.0
H1380 H 0.26884 0.73785 0.5415 0.0
H1381 H 0.25762 0.76447 0.54649 0.0
H1382 H 0.26392 0.82951 0.53494 0.0
H1383 H 0.27752 0.86545 0.54933 0.0
H1384 H 0.77653 0.39102 0.19725 0.0
H1385 H 0.76354 0.4288 0.21234 0.0
H1386 H 0.78412 0.46543 0.25328 0.0
H1387 H 0.7973 0.42814 0.23795 0.0
H1388 H 0.75571 0.4212 0.24562 0.0
H1389 H 0.77256 0.57328 0.23804 0.0
H1390 H 0.77709 0.52952 0.22619 0.0
H1391 H 0.78023 0.53718 0.24935 0.0
C1392 C 0.77833 0.40701 0.20949 0.0
C1393 C 0.78798 0.40664 0.21635 0.0
C1394 C 0.77087 0.42866 0.21811 0.0
C1395 C 0.77286 0.45059 0.23379 0.0
C1396 C 0.78244 0.44952 0.24097 0.0
H1397 H 0.73594 0.5968 0.30349 0.0
H1398 H 0.74938 0.56027 0.28896 0.0
C1399 C 0.78995 0.42789 0.23229 0.0
C1400 C 0.76482 0.47408 0.24256 0.0
H1401 H 0.75791 0.56936 0.2552 0.0
C1402 C 0.75619 0.45362 0.24768 0.0
C1403 C 0.76542 0.51643 0.24522 0.0
C1404 C 0.77428 0.54054 0.23928 0.0
C1405 C 0.74822 0.47414 0.25556 0.0
C1406 C 0.74881 0.51648 0.25817 0.0
C1407 C 0.75745 0.53694 0.25316 0.0
C1408 C 0.74063 0.53991 0.26647 0.0
C1409 C 0.73932 0.45012 0.26137 0.0
C1410 C 0.73125 0.54145 0.25848 0.0
C1411 C 0.72351 0.56243 0.26678 0.0
C1412 C 0.72503 0.58242 0.28319 0.0
C1413 C 0.73449 0.58171 0.29087 0.0
C1414 C 0.7422 0.56081 0.28258 0.0
H1415 H 0.74099 0.41734 0.26255 0.0
H1416 H 0.73648 0.4611 0.27445 0.0
H1417 H 0.73339 0.45374 0.25125 0.0
H1418 H 0.7299 0.52624 0.24587 0.0
H1419 H 0.71633 0.56245 0.26047 0.0
H1420 H 0.77855 0.3569 0.55169 0.0
H1421 H 0.76543 0.31862 0.53711 0.0
H1422 H 0.78628 0.27208 0.49874 0.0
H1423 H 0.79956 0.3098 0.51357 0.0
H1424 H 0.75795 0.31932 0.5033 0.0
H1425 H 0.77411 0.1688 0.51806 0.0
H1426 H 0.77868 0.2147 0.52816 0.0
H1427 H 0.78208 0.20176 0.50559 0.0
C1428 C 0.78036 0.33877 0.54006 0.0
C1429 C 0.79014 0.33627 0.53387 0.0
C1430 C 0.77283 0.31683 0.53174 0.0
C1431 C 0.77487 0.29174 0.51704 0.0
C1432 C 0.78455 0.29041 0.51034 0.0
H1433 H 0.73901 0.1339 0.45106 0.0
H1434 H 0.75218 0.172 0.46561 0.0
C1435 C 0.79212 0.31233 0.51871 0.0
C1436 C 0.76683 0.26694 0.50896 0.0
H1437 H 0.75978 0.16971 0.49993 0.0
C1438 C 0.75835 0.2866 0.50261 0.0
C1439 C 0.76731 0.22418 0.50812 0.0
C1440 C 0.77598 0.201 0.51549 0.0
C1441 C 0.75043 0.26484 0.49517 0.0
C1442 C 0.75091 0.2221 0.49431 0.0
C1443 C 0.7594 0.20243 0.50064 0.0
C1444 C 0.74287 0.19735 0.48625 0.0
C1445 C 0.74172 0.28791 0.48788 0.0
C1446 C 0.73326 0.1979 0.4933 0.0
C1447 C 0.72567 0.17599 0.48498 0.0
C1448 C 0.72756 0.15297 0.46952 0.0
C1449 C 0.73727 0.15133 0.46293 0.0
C1450 C 0.74483 0.17316 0.47123 0.0
H1451 H 0.74351 0.32028 0.48555 0.0
H1452 H 0.7391 0.27451 0.47509 0.0
H1453 H 0.73559 0.28649 0.4977 0.0
H1454 H 0.73161 0.21563 0.50512 0.0
H1455 H 0.71828 0.17789 0.49041 0.0
H1456 H 0.48714 0.36096 0.69805 0.0
H1457 H 0.50068 0.32393 0.71211 0.0
H1458 H 0.48036 0.27083 0.74975 0.0
H1459 H 0.46672 0.30761 0.73565 0.0
H1460 H 0.50763 0.3244 0.74755 0.0
H1461 H 0.49425 0.17202 0.72795 0.0
H1462 H 0.48944 0.21787 0.71816 0.0
H1463 H 0.48543 0.20195 0.74001 0.0
C1464 C 0.48554 0.34153 0.70937 0.0
C1465 C 0.47582 0.33713 0.71567 0.0
C1466 C 0.4933 0.32037 0.71739 0.0
C1467 C 0.49153 0.29406 0.73179 0.0
C1468 C 0.48188 0.29035 0.73843 0.0
H1469 H 0.52661 0.13743 0.79858 0.0
H1470 H 0.51379 0.17515 0.78296 0.0
C1471 C 0.4741 0.31164 0.73044 0.0
C1472 C 0.4998 0.27058 0.7398 0.0
H1473 H 0.50795 0.1744 0.74765 0.0
C1474 C 0.50773 0.2916 0.7475 0.0
C1475 C 0.49995 0.22777 0.73965 0.0
C1476 C 0.49187 0.20347 0.73086 0.0
C1477 C 0.51567 0.27102 0.75551 0.0
C1478 C 0.51578 0.22819 0.75551 0.0
C1479 C 0.50788 0.2072 0.74763 0.0
C1480 C 0.52373 0.20451 0.76443 0.0
C1481 C 0.52371 0.29533 0.76442 0.0
C1482 C 0.53363 0.20772 0.759 0.0
C1483 C 0.54103 0.18604 0.76796 0.0
C1484 C 0.53866 0.16065 0.78247 0.0
C1485 C 0.52872 0.15676 0.78751 0.0
C1486 C 0.52135 0.17833 0.77858 0.0
H1487 H 0.52139 0.32704 0.76696 0.0
H1488 H 0.52592 0.2814 0.77735 0.0
H1489 H 0.53026 0.29609 0.75555 0.0
H1490 H 0.53563 0.22709 0.74788 0.0
H1491 H 0.54861 0.18964 0.76372 0.0
H1492 H 0.48834 0.88666 0.55104 0.0
H1493 H 0.50138 0.92537 0.53644 0.0
H1494 H 0.4801 0.97718 0.50019 0.0
H1495 H 0.46692 0.93873 0.51496 0.0
H1496 H 0.50777 0.92558 0.50123 0.0
H1497 H 0.49385 0.07719 0.52076 0.0
H1498 H 0.48927 0.0311 0.53072 0.0
H1499 H 0.48515 0.04629 0.50884 0.0
C1500 C 0.48641 0.90618 0.53992 0.0
C1501 C 0.47656 0.9097 0.53422 0.0
C1502 C 0.49389 0.92832 0.53158 0.0
C1503 C 0.49172 0.95473 0.51741 0.0
C1504 C 0.48193 0.95763 0.51135 0.0
H1505 H 0.52797 0.11314 0.45194 0.0
H1506 H 0.51458 0.07618 0.46645 0.0
C1507 C 0.47442 0.93537 0.5197 0.0
C1508 C 0.49977 0.97889 0.50905 0.0
H1509 H 0.50773 0.07559 0.5016 0.0
C1510 C 0.50777 0.95838 0.50134 0.0
C1511 C 0.49978 0.02171 0.50922 0.0
C1512 C 0.49161 0.04549 0.51796 0.0
C1513 C 0.5157 0.97944 0.49359 0.0
C1514 C 0.51575 0.02226 0.49385 0.0
C1515 C 0.50772 0.04279 0.50147 0.0
C1516 C 0.52392 0.04627 0.48582 0.0
C1517 C 0.52387 0.95561 0.48485 0.0
C1518 C 0.53363 0.04268 0.49219 0.0
C1519 C 0.54134 0.0639 0.48392 0.0
C1520 C 0.53947 0.08924 0.46916 0.0
C1521 C 0.52969 0.09383 0.46325 0.0
C1522 C 0.522 0.07269 0.47152 0.0
H1523 H 0.52156 0.92409 0.48183 0.0
H1524 H 0.5263 0.97026 0.47221 0.0
H1525 H 0.53027 0.95426 0.49407 0.0
H1526 H 0.53527 0.02312 0.50344 0.0
H1527 H 0.54878 0.05973 0.48882 0.0
H1528 H 0.46563 0.81064 0.23741 0.0
H1529 H 0.47888 0.77455 0.25318 0.0
H1530 H 0.49962 0.81339 0.21296 0.0
H1531 H 0.48657 0.84975 0.19739 0.0
H1532 H 0.49079 0.71206 0.24041 0.0
H1533 H 0.51375 0.84423 0.25896 0.0
H1534 H 0.50115 0.84922 0.25154 0.0
H1535 H 0.51089 0.84218 0.2355 0.0
C1536 C 0.47304 0.81184 0.23206 0.0
C1537 C 0.47504 0.83334 0.21621 0.0
C1538 C 0.4806 0.79112 0.24105 0.0
C1539 C 0.49029 0.79179 0.23442 0.0
C1540 C 0.49227 0.81318 0.21859 0.0
H1541 H 0.54645 0.68128 0.26363 0.0
H1542 H 0.53298 0.71719 0.24848 0.0
C1543 C 0.48476 0.83382 0.20964 0.0
C1544 C 0.49831 0.76895 0.24354 0.0
H1545 H 0.52121 0.77942 0.26207 0.0
C1546 C 0.4974 0.72682 0.24529 0.0
C1547 C 0.50698 0.78816 0.2498 0.0
C1548 C 0.50824 0.83348 0.24903 0.0
C1549 C 0.50501 0.70332 0.25274 0.0
C1550 C 0.5137 0.72252 0.25892 0.0
C1551 C 0.51459 0.76466 0.25724 0.0
C1552 C 0.52182 0.69963 0.26769 0.0
C1553 C 0.50376 0.658 0.25354 0.0
C1554 C 0.52006 0.67806 0.28356 0.0
C1555 C 0.52771 0.65752 0.29218 0.0
C1556 C 0.53734 0.65828 0.28521 0.0
C1557 C 0.53912 0.67989 0.26929 0.0
C1558 C 0.53143 0.7005 0.26065 0.0
H1559 H 0.49812 0.64724 0.24385 0.0
H1560 H 0.51082 0.6423 0.25072 0.0
H1561 H 0.5013 0.64926 0.26718 0.0
H1562 H 0.51278 0.67767 0.28949 0.0
H1563 H 0.52608 0.64147 0.30448 0.0
H1564 H 0.46747 0.42834 0.01078 0.0
H1565 H 0.48086 0.46473 0.99568 0.0
H1566 H 0.50107 0.42671 0.03696 0.0
H1567 H 0.48783 0.38981 0.05188 0.0
H1568 H 0.49209 0.52758 0.00844 0.0
H1569 H 0.51629 0.39784 0.99218 0.0
H1570 H 0.50365 0.39141 0.99911 0.0
H1571 H 0.51313 0.40049 0.01549 0.0
C1572 C 0.4748 0.42729 0.0165 0.0
C1573 C 0.47658 0.40588 0.03247 0.0
C1574 C 0.48245 0.44822 0.00789 0.0
C1575 C 0.49204 0.44802 0.015 0.0
C1576 C 0.49382 0.42658 0.03093 0.0
H1577 H 0.5478 0.56456 0.98844 0.0
H1578 H 0.53426 0.52766 0.0028 0.0
C1579 C 0.4862 0.40561 0.03951 0.0
C1580 C 0.50009 0.47159 0.00627 0.0
H1581 H 0.5233 0.46347 0.98884 0.0
C1582 C 0.49889 0.5135 0.00403 0.0
C1583 C 0.50898 0.45332 1.00057 0.0
C1584 C 0.51058 0.40824 0.00178 0.0
C1585 C 0.50639 0.53768 0.99663 0.0
C1586 C 0.51531 0.51943 0.99104 0.0
C1587 C 0.5165 0.47752 0.99321 0.0
C1588 C 0.52343 0.54314 0.98264 0.0
C1589 C 0.50479 0.58273 0.99528 0.0
C1590 C 0.52189 0.56404 0.96649 0.0
C1591 C 0.52961 0.58523 0.9583 0.0
C1592 C 0.53907 0.58581 0.966 0.0
C1593 C 0.5406 0.56497 0.98221 0.0
C1594 C 0.53287 0.54374 0.9904 0.0
H1595 H 0.49887 0.59316 0.00445 0.0
H1596 H 0.51166 0.59957 0.99845 0.0
H1597 H 0.50257 0.59044 0.98139 0.0
H1598 H 0.51475 0.56336 0.96003 0.0
H1599 H 0.52818 0.60062 0.94575 0.0
H1600 H 0.05868 0.50416 0.42742 0.0
H1601 H 0.05656 0.43546 0.41552 0.0
H1602 H 0.05626 0.48283 0.36169 0.0
H1603 H 0.05844 0.55097 0.37321 0.0
H1604 H 0.04136 0.40254 0.39039 0.0
H1605 H 0.07961 0.40061 0.36376 0.0
H1606 H 0.07561 0.43599 0.38068 0.0
H1607 H 0.07244 0.44411 0.35757 0.0
C1608 C 0.05811 0.49993 0.41306 0.0
C1609 C 0.05889 0.53296 0.40126 0.0
C1610 C 0.05687 0.46078 0.40632 0.0
C1611 C 0.0564 0.45437 0.38776 0.0
C1612 C 0.05676 0.48733 0.37604 0.0
H1613 H 0.05834 0.2437 0.31891 0.0
H1614 H 0.0558 0.31252 0.33017 0.0
C1615 C 0.05803 0.52623 0.3827 0.0
C1616 C 0.05601 0.41318 0.38037 0.0
H1617 H 0.06921 0.34664 0.35516 0.0
C1618 C 0.04744 0.3901 0.38275 0.0
C1619 C 0.06396 0.39745 0.37038 0.0
C1620 C 0.07347 0.42061 0.36803 0.0
C1621 C 0.04658 0.35153 0.37509 0.0
C1622 C 0.05454 0.33591 0.36504 0.0
C1623 C 0.06309 0.35908 0.36269 0.0
C1624 C 0.05455 0.29438 0.35795 0.0
C1625 C 0.03716 0.32797 0.3776 0.0
C1626 C 0.0546 0.26173 0.36987 0.0
C1627 C 0.05611 0.22265 0.36355 0.0
C1628 C 0.05766 0.21555 0.34517 0.0
C1629 C 0.05721 0.24821 0.33314 0.0
C1630 C 0.05573 0.28744 0.33952 0.0
H1631 H 0.03093 0.348 0.38137 0.0
H1632 H 0.03518 0.31127 0.3652 0.0
H1633 H 0.0382 0.30556 0.38851 0.0
H1634 H 0.05388 0.26664 0.38417 0.0
H1635 H 0.05633 0.19813 0.37318 0.0
H1636 H 0.21682 0.72776 0.4216 0.0
H1637 H 0.21926 0.79638 0.40989 0.0
H1638 H 0.19502 0.77874 0.3732 0.0
H1639 H 0.193 0.70972 0.38406 0.0
H1640 H 0.20934 0.81378 0.35663 0.0
H1641 H 0.2036 0.89407 0.42114 0.0
H1642 H 0.21377 0.85955 0.4215 0.0
H1643 H 0.20142 0.84061 0.41874 0.0
C1644 C 0.21202 0.73877 0.41107 0.0
C1645 C 0.20471 0.71367 0.40372 0.0
C1646 C 0.21338 0.77798 0.40447 0.0
C1647 C 0.20721 0.79302 0.39087 0.0
C1648 C 0.19989 0.76783 0.38365 0.0
H1649 H 0.19206 0.03624 0.36625 0.0
H1650 H 0.19397 0.96712 0.37718 0.0
C1651 C 0.19871 0.72845 0.38989 0.0
C1652 C 0.20829 0.83476 0.3839 0.0
H1653 H 0.20763 0.9341 0.39609 0.0
C1654 C 0.20896 0.84014 0.36526 0.0
C1655 C 0.20779 0.8691 0.39518 0.0
C1656 C 0.20651 0.86567 0.41522 0.0
C1657 C 0.20868 0.87873 0.3575 0.0
C1658 C 0.2082 0.91308 0.36878 0.0
C1659 C 0.20799 0.90775 0.38746 0.0
C1660 C 0.20709 0.95465 0.36161 0.0
C1661 C 0.20837 0.88197 0.33732 0.0
C1662 C 0.2138 0.97066 0.34914 0.0
C1663 C 0.21252 0.00981 0.34245 0.0
C1664 C 0.20473 0.03395 0.34864 0.0
C1665 C 0.19814 0.0182 0.36132 0.0
C1666 C 0.19925 0.9788 0.36761 0.0
H1667 H 0.20601 0.85312 0.331 0.0
H1668 H 0.20326 0.90622 0.33293 0.0
H1669 H 0.21585 0.88916 0.33225 0.0
H1670 H 0.22007 0.95312 0.34471 0.0
H1671 H 0.21778 0.02162 0.33286 0.0
H1672 H 0.05074 0.0556 0.87879 0.0
H1673 H 0.04813 0.98843 0.86625 0.0
H1674 H 0.05877 0.93462 0.91525 0.0
H1675 H 0.06122 0.0021 0.92812 0.0
H1676 H 0.06371 0.93839 0.86104 0.0
H1677 H 0.03536 0.86253 0.90266 0.0
H1678 H 0.03713 0.91669 0.90274 0.0
H1679 H 0.04516 0.88454 0.91556 0.0
C1680 C 0.05236 0.02945 0.88704 0.0
C1681 C 0.05632 0.03394 0.90433 0.0
C1682 C 0.05081 0.99116 0.87987 0.0
C1683 C 0.05323 0.95668 0.88983 0.0
C1684 C 0.05669 0.96093 0.90748 0.0
H1685 H 0.06725 0.7117 0.87167 0.0
H1686 H 0.06392 0.77979 0.88231 0.0
C1687 C 0.05814 -0.00058 0.91477 0.0
C1688 C 0.05341 0.91696 0.88087 0.0
H1689 H 0.0453 0.81968 0.88406 0.0
C1690 C 0.05956 0.91254 0.86588 0.0
C1691 C 0.048 0.88348 0.88727 0.0
C1692 C 0.04097 0.88704 0.90284 0.0
C1693 C 0.06078 0.87499 0.85755 0.0
C1694 C 0.05561 0.84123 0.8643 0.0
C1695 C 0.04923 0.84583 0.87895 0.0
C1696 C 0.05745 0.80021 0.85743 0.0
C1697 C 0.06794 0.8713 0.84216 0.0
C1698 C 0.05495 0.7894 0.83982 0.0
C1699 C 0.0569 0.75036 0.83358 0.0
C1700 C 0.06131 0.72167 0.84495 0.0
C1701 C 0.06382 0.73294 0.86255 0.0
C1702 C 0.0619 0.77179 0.86871 0.0
H1703 H 0.07257 0.89881 0.8406 0.0
H1704 H 0.07285 0.84481 0.8441 0.0
H1705 H 0.06379 0.86665 0.82952 0.0
H1706 H 0.05142 0.81101 0.831 0.0
H1707 H 0.0548 0.7425 0.82001 0.0
H1708 H 0.20741 0.49948 0.82436 0.0
H1709 H 0.21028 0.43181 0.83692 0.0
H1710 H 0.21489 0.48412 0.88917 0.0
H1711 H 0.21204 0.55134 0.87697 0.0
H1712 H 0.22763 0.40074 0.86243 0.0
H1713 H 0.18953 0.40501 0.8902 0.0
H1714 H 0.19322 0.43536 0.87123 0.0
H1715 H 0.1971 0.44915 0.89338 0.0
C1716 C 0.20917 0.49657 0.83846 0.0
C1717 C 0.20931 0.53064 0.84973 0.0
C1718 C 0.21084 0.45804 0.84557 0.0
C1719 C 0.21271 0.45338 0.86393 0.0
C1720 C 0.21339 0.48739 0.87497 0.0
H1721 H 0.2081 0.24298 0.93317 0.0
H1722 H 0.21158 0.31183 0.92273 0.0
C1723 C 0.2117 0.52569 0.86796 0.0
C1724 C 0.21299 0.41298 0.87208 0.0
H1725 H 0.1993 0.34891 0.8977 0.0
C1726 C 0.22146 0.38922 0.87015 0.0
C1727 C 0.20495 0.39864 0.88224 0.0
C1728 C 0.19564 0.42312 0.88438 0.0
C1729 C 0.22207 0.35095 0.87819 0.0
C1730 C 0.21394 0.33632 0.88812 0.0
C1731 C 0.20555 0.36049 0.89023 0.0
C1732 C 0.21349 0.29459 0.89496 0.0
C1733 C 0.23138 0.32658 0.87608 0.0
C1734 C 0.21351 0.2624 0.8828 0.0
C1735 C 0.21147 0.22335 0.88865 0.0
C1736 C 0.2093 0.21579 0.90678 0.0
C1737 C 0.2097 0.24788 0.91911 0.0
C1738 C 0.21172 0.28712 0.9132 0.0
H1739 H 0.23781 0.34628 0.87304 0.0
H1740 H 0.23299 0.30885 0.88838 0.0
H1741 H 0.23047 0.30511 0.86477 0.0
H1742 H 0.21466 0.26771 0.86862 0.0
H1743 H 0.21132 0.19927 0.87881 0.0
H1744 H 0.94471 0.772 0.63357 0.0
H1745 H 0.94936 0.70556 0.62251 0.0
H1746 H 0.96643 0.6844 0.67035 0.0
H1747 H 0.96179 0.75133 0.68173 0.0
H1748 H 0.96931 0.67617 0.61685 0.0
H1749 H 0.94744 0.58551 0.66577 0.0
H1750 H 0.94506 0.63851 0.66191 0.0
H1751 H 0.95568 0.6233 0.67453 0.0
C1752 C 0.94942 0.7533 0.64185 0.0
C1753 C 0.95287 0.76697 0.65856 0.0
C1754 C 0.9521 0.71541 0.63544 0.0
C1755 C 0.95823 0.69036 0.64561 0.0
C1756 C 0.96163 0.70343 0.66239 0.0
H1757 H 0.96812 0.43795 0.62065 0.0
H1758 H 0.97076 0.50482 0.63355 0.0
C1759 C 0.95894 0.74153 0.66887 0.0
C1760 C 0.96087 0.65034 0.63846 0.0
H1761 H 0.95541 0.55039 0.64275 0.0
C1762 C 0.96641 0.64848 0.6226 0.0
C1763 C 0.95707 0.61457 0.6461 0.0
C1764 C 0.95093 0.61525 0.66296 0.0
C1765 C 0.96801 0.6116 0.61383 0.0
C1766 C 0.9638 0.57605 0.62101 0.0
C1767 C 0.95862 0.57778 0.63729 0.0
C1768 C 0.96403 0.53698 0.61146 0.0
C1769 C 0.97409 0.61113 0.59693 0.0
C1770 C 0.95966 0.53307 0.59447 0.0
C1771 C 0.95823 0.49479 0.58695 0.0
C1772 C 0.96096 0.46009 0.59656 0.0
C1773 C 0.96582 0.46428 0.61309 0.0
C1774 C 0.96737 0.5024 0.62045 0.0
H1775 H 0.97935 0.63691 0.59658 0.0
H1776 H 0.97829 0.58249 0.59562 0.0
H1777 H 0.96914 0.61402 0.58517 0.0
H1778 H 0.95685 0.55935 0.58749 0.0
H1779 H 0.95445 0.49227 0.57421 0.0
H1780 H 0.80171 0.98787 0.68383 0.0
H1781 H 0.79709 0.05501 0.67248 0.0
H1782 H 0.81412 0.03379 0.62464 0.0
H1783 H 0.81879 0.96743 0.63569 0.0
H1784 H 0.81028 0.11973 0.66073 0.0
H1785 H 0.78607 0.06414 0.60624 0.0
H1786 H 0.78934 0.03363 0.62546 0.0
H1787 H 0.79781 0.03919 0.60709 0.0
C1788 C 0.80454 -0.00226 0.67098 0.0
C1789 C 0.81053 0.9722 0.66057 0.0
C1790 C 0.80184 0.03584 0.66449 0.0
C1791 C 0.80504 0.0485 0.64753 0.0
C1792 C 0.81135 0.02385 0.63753 0.0
H1793 H 0.81263 0.2423 0.57713 0.0
H1794 H 0.80928 0.17648 0.59108 0.0
C1795 C 0.81406 0.98606 0.64395 0.0
C1796 C 0.80224 0.08814 0.64024 0.0
H1797 H 0.79239 0.13182 0.60291 0.0
C1798 C 0.80617 0.12272 0.64834 0.0
C1799 C 0.79689 0.09146 0.62405 0.0
C1800 C 0.7922 0.05514 0.61527 0.0
C1801 C 0.8055 0.16047 0.63995 0.0
C1802 C 0.80057 0.16351 0.62327 0.0
C1803 C 0.79617 0.12922 0.61567 0.0
C1804 C 0.80071 0.2014 0.61292 0.0
C1805 C 0.81064 0.19621 0.64845 0.0
C1806 C 0.79653 0.23652 0.6201 0.0
C1807 C 0.79857 0.27388 0.61237 0.0
C1808 C 0.80464 0.27646 0.59717 0.0
C1809 C 0.80798 0.24094 0.58891 0.0
C1810 C 0.80606 0.20349 0.59684 0.0
H1811 H 0.81571 0.18689 0.65938 0.0
H1812 H 0.81493 0.21336 0.6383 0.0
H1813 H 0.80506 0.21688 0.65425 0.0
H1814 H 0.79219 0.23524 0.63227 0.0
H1815 H 0.79576 0.30095 0.61875 0.0
H1816 H 0.95878 0.25136 0.18256 0.0
H1817 H 0.9624 0.1827 0.17211 0.0
H1818 H 0.9575 0.22039 0.1175 0.0
H1819 H 0.95399 0.28866 0.12761 0.0
H1820 H 0.94905 0.13506 0.15323 0.0
H1821 H 0.98317 0.15693 0.1137 0.0
H1822 H 0.9789 0.19344 0.12994 0.0
H1823 H 0.97362 0.19198 0.10783 0.0
C1824 C 0.95857 0.24511 0.16831 0.0
C1825 C 0.95605 0.27548 0.15594 0.0
C1826 C 0.96068 0.20598 0.16239 0.0
C1827 C 0.96039 0.19684 0.14403 0.0
C1828 C 0.95801 0.22715 0.13168 0.0
H1829 H 0.95621 0.98924 0.07563 0.0
H1830 H 0.95806 0.05724 0.08838 0.0
C1831 C 0.9559 0.26611 0.13754 0.0
C1832 C 0.96153 0.15487 0.13776 0.0
H1833 H 0.974 0.09615 0.10779 0.0
C1834 C 0.9546 0.12629 0.14353 0.0
C1835 C 0.96874 0.14387 0.12498 0.0
C1836 C 0.97659 0.17309 0.11887 0.0
C1837 C 0.95442 0.08726 0.13631 0.0
C1838 C 0.9615 0.07649 0.12325 0.0
C1839 C 0.96858 0.10474 0.11776 0.0
C1840 C 0.96151 0.03597 0.11509 0.0
C1841 C 0.94643 0.05839 0.14223 0.0
C1842 C 0.96316 0.00192 0.12581 0.0
C1843 C 0.96201 0.96334 0.11868 0.0
C1844 C 0.9593 0.95815 0.10062 0.0
C1845 C 0.95823 0.99235 0.08961 0.0
C1846 C 0.9593 0.0311 0.09684 0.0
H1847 H 0.94029 0.07431 0.14908 0.0
H1848 H 0.94339 0.04147 0.13062 0.0
H1849 H 0.94958 0.03615 0.15178 0.0
H1850 H 0.96506 0.00523 0.13983 0.0
H1851 H 0.96309 0.93758 0.12743 0.0
H1852 H 0.81409 0.45263 0.12657 0.0
H1853 H 0.81145 0.5217 0.11645 0.0
H1854 H 0.80048 0.55424 0.16872 0.0
H1855 H 0.8032 0.48488 0.17919 0.0
H1856 H 0.79376 0.56736 0.11588 0.0
H1857 H 0.82282 0.63604 0.15897 0.0
H1858 H 0.82203 0.58225 0.15513 0.0
H1859 H 0.81361 0.60639 0.17027 0.0
C1860 C 0.81112 0.47434 0.13599 0.0
C1861 C 0.80891 0.46325 0.15375 0.0
C1862 C 0.80958 0.51377 0.13013 0.0
C1863 C 0.80583 0.54292 0.14187 0.0
C1864 C 0.8035 0.53211 0.15955 0.0
H1865 H 0.80243 0.80126 0.12376 0.0
H1866 H 0.79945 0.73393 0.13588 0.0
C1867 C 0.80506 0.49254 0.16549 0.0
C1868 C 0.80462 0.58479 0.13548 0.0
H1869 H 0.8142 0.6795 0.13971 0.0
C1870 C 0.79815 0.59207 0.12116 0.0
C1871 C 0.81038 0.61669 0.14244 0.0
C1872 C 0.81766 0.61013 0.15746 0.0
C1873 C 0.79738 0.63057 0.11342 0.0
C1874 C 0.80336 0.66218 0.12004 0.0
C1875 C 0.80962 0.6551 0.13469 0.0
C1876 C 0.80365 0.70255 0.11163 0.0
C1877 C 0.79022 0.63701 0.09823 0.0
C1878 C 0.8068 0.70713 0.09383 0.0
C1879 C 0.80848 0.74569 0.08678 0.0
C1880 C 0.80718 0.78005 0.09759 0.0
C1881 C 0.80363 0.77531 0.11517 0.0
C1882 C 0.80187 0.73691 0.12211 0.0
H1883 H 0.78423 0.61405 0.09839 0.0
H1884 H 0.78687 0.66761 0.09885 0.0
H1885 H 0.79418 0.63415 0.08529 0.0
H1886 H 0.80841 0.6809 0.08565 0.0
H1887 H 0.81123 0.74844 0.07321 0.0
H1888 H 0.56123 0.24244 0.82491 0.0
H1889 H 0.55999 0.31008 0.8382 0.0
H1890 H 0.55008 0.25749 0.88794 0.0
H1891 H 0.55149 0.19005 0.87499 0.0
H1892 H 0.54453 0.35304 0.85501 0.0
H1893 H 0.57502 0.31862 0.90241 0.0
H1894 H 0.57222 0.28688 0.88342 0.0
H1895 H 0.56482 0.28412 0.90336 0.0
C1896 C 0.55868 0.24539 0.83861 0.0
C1897 C 0.55664 0.21101 0.84903 0.0
C1898 C 0.55798 0.28394 0.84617 0.0
C1899 C 0.55517 0.28849 0.86416 0.0
C1900 C 0.55251 0.25441 0.87418 0.0
H1901 H 0.55651 0.50463 0.9321 0.0
H1902 H 0.55325 0.43587 0.92126 0.0
C1903 C 0.55331 0.21597 0.86674 0.0
C1904 C 0.55553 0.3286 0.87275 0.0
H1905 H 0.56737 0.38222 0.90536 0.0
C1906 C 0.54948 0.35945 0.86606 0.0
C1907 C 0.562 0.33664 0.8872 0.0
C1908 C 0.56895 0.30497 0.89445 0.0
C1909 C 0.5498 0.39845 0.87338 0.0
C1910 C 0.55642 0.40664 0.88756 0.0
C1911 C 0.56227 0.37557 0.89456 0.0
C1912 C 0.55807 0.44806 0.89415 0.0
C1913 C 0.54311 0.43064 0.86583 0.0
C1914 C 0.56205 0.47704 0.88256 0.0
C1915 C 0.56398 0.51598 0.88867 0.0
C1916 C 0.562 0.52672 0.90656 0.0
C1917 C 0.55812 0.49736 0.91826 0.0
C1918 C 0.55622 0.45819 0.91209 0.0
H1919 H 0.53666 0.41722 0.85885 0.0
H1920 H 0.54043 0.45116 0.87655 0.0
H1921 H 0.54727 0.44901 0.85594 0.0
H1922 H 0.56376 0.4694 0.86879 0.0
H1923 H 0.56701 0.53763 0.87928 0.0
H1924 H 0.71264 0.6868 0.87856 0.0
H1925 H 0.71518 0.7535 0.86551 0.0
H1926 H 0.70835 0.80884 0.91636 0.0
H1927 H 0.70597 0.74183 0.92971 0.0
H1928 H 0.70026 0.80775 0.86333 0.0
H1929 H 0.73199 0.87477 0.8995 0.0
H1930 H 0.72936 0.8212 0.89982 0.0
H1931 H 0.72266 0.85514 0.91418 0.0
C1932 C 0.71182 0.71312 0.88707 0.0
C1933 C 0.70898 0.7092 0.90511 0.0
C1934 C 0.71332 0.75116 0.87959 0.0
C1935 C 0.712 0.78597 0.88998 0.0
C1936 C 0.70959 0.78223 0.90821 0.0
H1937 H 0.70022 0.03375 0.87534 0.0
H1938 H 0.70357 0.96501 0.88511 0.0
C1939 C 0.70817 0.744 0.91579 0.0
C1940 C 0.71194 0.82589 0.88118 0.0
H1941 H 0.7217 0.92078 0.88311 0.0
C1942 C 0.70505 0.83233 0.86743 0.0
C1943 C 0.71821 0.85769 0.8866 0.0
C1944 C 0.72604 0.85182 0.90072 0.0
C1945 C 0.70395 0.87039 0.85949 0.0
C1946 C 0.70999 0.90255 0.86534 0.0
C1947 C 0.7171 0.89585 0.87868 0.0
C1948 C 0.70836 0.9442 0.85907 0.0
C1949 C 0.69603 0.8764 0.84554 0.0
C1950 C 0.70997 0.95509 0.84114 0.0
C1951 C 0.70801 0.99451 0.8354 0.0
C1952 C 0.70445 0.0235 0.84758 0.0
C1953 C 0.70294 0.01227 0.86556 0.0
C1954 C 0.70488 0.97304 0.87123 0.0
H1955 H 0.69096 0.85008 0.84468 0.0
H1956 H 0.69164 0.90388 0.84855 0.0
H1957 H 0.69951 0.88066 0.83222 0.0
H1958 H 0.71275 0.93314 0.83162 0.0
H1959 H 0.70934 0.00229 0.82151 0.0
H1960 H 0.5549 0.73814 0.3229 0.0
H1961 H 0.55304 0.80686 0.3349 0.0
H1962 H 0.56293 0.76553 0.38667 0.0
H1963 H 0.56492 0.69755 0.375 0.0
H1964 H 0.54134 0.83297 0.36603 0.0
H1965 H 0.58146 0.86094 0.37371 0.0
H1966 H 0.57658 0.82155 0.35949 0.0
H1967 H 0.57732 0.81409 0.38331 0.0
C1968 C 0.55672 0.74376 0.33681 0.0
C1969 C 0.56013 0.71238 0.34793 0.0
C1970 C 0.55561 0.7829 0.34363 0.0
C1971 C 0.55796 0.79104 0.36158 0.0
C1972 C 0.56122 0.75979 0.37272 0.0
H1973 H 0.56104 -0.00157 0.43145 0.0
H1974 H 0.55902 0.92938 0.42002 0.0
C1975 C 0.56233 0.7209 0.36598 0.0
C1976 C 0.55713 0.83218 0.36892 0.0
H1977 H 0.57071 0.90688 0.38839 0.0
C1978 C 0.54774 0.8494 0.3708 0.0
C1979 C 0.56552 0.85319 0.37513 0.0
C1980 C 0.57581 0.83673 0.37269 0.0
C1981 C 0.54653 0.88703 0.37919 0.0
C1982 C 0.55492 0.90758 0.38569 0.0
C1983 C 0.5643 0.89051 0.38363 0.0
C1984 C 0.55433 0.94824 0.39358 0.0
C1985 C 0.53633 0.90433 0.38132 0.0
C1986 C 0.55218 0.98127 0.38254 0.0
C1987 C 0.55343 0.02048 0.38892 0.0
C1988 C 0.55684 0.02725 0.40646 0.0
C1989 C 0.55841 0.99408 0.41787 0.0
C1990 C 0.55726 0.95473 0.41139 0.0
H1991 H 0.53053 0.88119 0.379 0.0
H1992 H 0.53537 0.91728 0.39494 0.0
H1993 H 0.53527 0.92911 0.37147 0.0
H1994 H 0.55005 0.97672 0.36869 0.0
H1995 H 0.55205 0.0455 0.37988 0.0
H1996 H 0.71979 0.19836 0.3874 0.0
H1997 H 0.72209 0.26574 0.37469 0.0
H1998 H 0.70323 0.31572 0.41563 0.0
H1999 H 0.70124 0.24831 0.42882 0.0
H2000 H 0.70665 0.30295 0.36066 0.0
H2001 H 0.72371 0.40331 0.41122 0.0
H2002 H 0.72405 0.34885 0.41308 0.0
H2003 H 0.71332 0.37656 0.42013 0.0
C2004 C 0.7164 0.22401 0.39399 0.0
C2005 C 0.71027 0.21845 0.40893 0.0
C2006 C 0.71773 0.26238 0.38675 0.0
C2007 C 0.71284 0.29568 0.39421 0.0
C2008 C 0.70723 0.29056 0.40988 0.0
H2009 H 0.69059 0.52244 0.36349 0.0
H2010 H 0.69478 0.45652 0.37588 0.0
C2011 C 0.70605 0.25211 0.41736 0.0
C2012 C 0.71229 0.3338 0.38398 0.0
H2013 H 0.71442 0.4361 0.38773 0.0
C2014 C 0.70854 0.33204 0.36644 0.0
C2015 C 0.71475 0.37159 0.39158 0.0
C2016 C 0.71928 0.37519 0.40997 0.0
C2017 C 0.70669 0.36726 0.3566 0.0
C2018 C 0.70873 0.40505 0.36453 0.0
C2019 C 0.71285 0.40686 0.38177 0.0
C2020 C 0.70583 0.44318 0.35586 0.0
C2021 C 0.70214 0.36396 0.33821 0.0
C2022 C 0.71049 0.45675 0.3402 0.0
C2023 C 0.70805 0.49443 0.33295 0.0
C2024 C 0.70101 0.51896 0.34146 0.0
C2025 C 0.69611 0.50436 0.35673 0.0
C2026 C 0.69851 0.46682 0.36387 0.0
H2027 H 0.6997 0.33265 0.33512 0.0
H2028 H 0.69571 0.38455 0.33704 0.0
H2029 H 0.70762 0.37319 0.32798 0.0
H2030 H 0.71621 0.43884 0.33394 0.0
H2031 H 0.71199 0.50511 0.32124 0.0
H2032 H 0.45526 0.49223 0.06975 0.0
H2033 H 0.45687 0.56088 0.08191 0.0
H2034 H 0.46076 0.51174 0.13499 0.0
H2035 H 0.45911 0.44359 0.12316 0.0
H2036 H 0.44525 0.56793 0.13153 0.0
H2037 H 0.48046 0.62556 0.10319 0.0
H2038 H 0.47211 0.60277 0.08741 0.0
H2039 H 0.47761 0.57225 0.10461 0.0
C2040 C 0.45663 0.49609 0.08395 0.0
C2041 C 0.45691 0.46256 0.09553 0.0
C2042 C 0.45759 0.53523 0.09085 0.0
C2043 C 0.45896 0.54111 0.10932 0.0
C2044 C 0.4597 0.50766 0.12071 0.0
H2045 H 0.45744 0.75393 0.1785 0.0
H2046 H 0.4596 0.68484 0.1672 0.0
C2047 C 0.45871 0.46877 0.11389 0.0
C2048 C 0.45859 0.58191 0.11718 0.0
H2049 H 0.47033 0.67303 0.11841 0.0
C2050 C 0.45077 0.59085 0.12881 0.0
C2051 C 0.46582 0.61147 0.11352 0.0
C2052 C 0.47453 0.60262 0.10161 0.0
C2053 C 0.44987 0.62909 0.13664 0.0
C2054 C 0.45704 0.65878 0.13284 0.0
C2055 C 0.46491 0.64985 0.12132 0.0
C2056 C 0.45607 0.70019 0.13975 0.0
C2057 C 0.44113 0.63799 0.14848 0.0
C2058 C 0.45345 0.73121 0.12796 0.0
C2059 C 0.45217 0.7704 0.13431 0.0
C2060 C 0.45355 0.77931 0.15259 0.0
C2061 C 0.45627 0.74804 0.16438 0.0
C2062 C 0.45752 0.70866 0.15797 0.0
H2063 H 0.43562 0.61312 0.14831 0.0
H2064 H 0.44367 0.64235 0.16249 0.0
H2065 H 0.43748 0.66638 0.14413 0.0
H2066 H 0.45227 0.72498 0.11387 0.0
H2067 H 0.45008 0.79364 0.12482 0.0
H2068 H 0.30841 0.99124 0.17691 0.0
H2069 H 0.30555 0.05837 0.16402 0.0
H2070 H 0.29766 0.00367 0.11352 0.0
H2071 H 0.30063 0.93687 0.1261 0.0
H2072 H 0.31262 0.05884 0.11084 0.0
H2073 H 0.28122 0.12321 0.14879 0.0
H2074 H 0.29082 0.10323 0.16278 0.0
H2075 H 0.28393 0.06972 0.14852 0.0
C2076 C 0.30589 0.99354 0.16317 0.0
C2077 C 0.3049 0.95888 0.15244 0.0
C2078 C 0.30419 0.03184 0.15587 0.0
C2079 C 0.30133 0.0358 0.13786 0.0
C2080 C 0.29985 0.00114 0.12744 0.0
H2081 H 0.30372 0.25291 0.06981 0.0
H2082 H 0.29982 0.18411 0.07985 0.0
C2083 C 0.30161 0.96304 0.13465 0.0
C2084 C 0.30111 0.07586 0.12921 0.0
H2085 H 0.291 0.16996 0.13183 0.0
C2086 C 0.30778 0.08301 0.1152 0.0
C2087 C 0.29479 0.1071 0.135 0.0
C2088 C 0.28721 0.10042 0.14949 0.0
C2089 C 0.30864 0.12126 0.10735 0.0
C2090 C 0.30254 0.1529 0.11351 0.0
C2091 C 0.29562 0.14544 0.12712 0.0
C2092 C 0.30402 0.19484 0.10743 0.0
C2093 C 0.31642 0.12803 0.09321 0.0
C2094 C 0.30742 0.22355 0.11973 0.0
C2095 C 0.30963 0.26261 0.11411 0.0
C2096 C 0.30846 0.27377 0.09603 0.0
C2097 C 0.30481 0.24513 0.08377 0.0
C2098 C 0.30257 0.2059 0.08946 0.0
H2099 H 0.32165 0.10227 0.09229 0.0
H2100 H 0.31282 0.1317 0.07996 0.0
H2101 H 0.32068 0.15601 0.09606 0.0
H2102 H 0.3086 0.21545 0.13364 0.0
H2103 H 0.31237 0.28385 0.12397 0.0
H2104 H 0.43968 0.28014 0.6384 0.0
H2105 H 0.44195 0.21141 0.62724 0.0
H2106 H 0.46952 0.20307 0.65592 0.0
H2107 H 0.46688 0.27107 0.66812 0.0
H2108 H 0.45513 0.18193 0.60635 0.0
H2109 H 0.45758 0.09969 0.67107 0.0
H2110 H 0.45405 0.15211 0.66983 0.0
H2111 H 0.46683 0.13793 0.66851 0.0
C2112 C 0.44615 0.26334 0.64249 0.0
C2113 C 0.45307 0.2805 0.65419 0.0
C2114 C 0.44747 0.22419 0.63606 0.0
C2115 C 0.45585 0.20178 0.64088 0.0
C2116 C 0.46286 0.2192 0.65242 0.0
H2117 H 0.46618 0.9784 0.57885 0.0
H2118 H 0.46812 0.04731 0.59048 0.0
C2119 C 0.46138 0.25806 0.6593 0.0
C2120 C 0.45721 0.16064 0.63339 0.0
H2121 H 0.46023 0.06156 0.64483 0.0
C2122 C 0.45623 0.15557 0.61477 0.0
C2123 C 0.45867 0.12629 0.64439 0.0
C2124 C 0.45925 0.12913 0.66456 0.0
C2125 C 0.45622 0.11707 0.60692 0.0
C2126 C 0.45769 0.08275 0.61792 0.0
C2127 C 0.45911 0.08795 0.63642 0.0
C2128 C 0.45687 0.04098 0.6109 0.0
C2129 C 0.45409 0.11363 0.58711 0.0
C2130 C 0.45016 0.01417 0.61886 0.0
C2131 C 0.44925 0.97469 0.61259 0.0
C2132 C 0.45493 0.96138 0.59803 0.0
C2133 C 0.46163 0.98816 0.58996 0.0
C2134 C 0.4627 0.02753 0.59653 0.0
H2135 H 0.45058 0.14146 0.58174 0.0
H2136 H 0.46111 0.10906 0.57977 0.0
H2137 H 0.44917 0.08757 0.58425 0.0
H2138 H 0.44556 0.02386 0.62992 0.0
H2139 H 0.44399 0.95472 0.61901 0.0
H2140 H 0.31117 0.4579 0.62586 0.0
H2141 H 0.30742 0.52648 0.61641 0.0
H2142 H 0.29832 0.55649 0.67016 0.0
H2143 H 0.3022 0.48754 0.67997 0.0
H2144 H 0.28969 0.57114 0.61807 0.0
H2145 H 0.31999 0.63952 0.65842 0.0
H2146 H 0.31916 0.58581 0.65447 0.0
H2147 H 0.31115 0.60951 0.67046 0.0
C2148 C 0.30837 0.47891 0.63575 0.0
C2149 C 0.30708 0.46732 0.65374 0.0
C2150 C 0.30617 0.51806 0.63026 0.0
C2151 C 0.30266 0.54642 0.64261 0.0
C2152 C 0.30115 0.53497 0.6605 0.0
H2153 H 0.30002 0.80446 0.62357 0.0
H2154 H 0.29629 0.73827 0.63618 0.0
C2155 C 0.30338 0.49567 0.66607 0.0
C2156 C 0.30111 0.5884 0.63664 0.0
H2157 H 0.31106 0.68269 0.63965 0.0
C2158 C 0.29426 0.59576 0.62292 0.0
C2159 C 0.30712 0.62018 0.64301 0.0
C2160 C 0.31483 0.61355 0.65731 0.0
C2161 C 0.29343 0.63412 0.61506 0.0
C2162 C 0.29969 0.66546 0.62099 0.0
C2163 C 0.30626 0.65845 0.63518 0.0
C2164 C 0.30008 0.70527 0.61214 0.0
C2165 C 0.28596 0.64066 0.60038 0.0
C2166 C 0.30321 0.70857 0.59426 0.0
C2167 C 0.30535 0.74649 0.58695 0.0
C2168 C 0.30453 0.78139 0.59756 0.0
C2169 C 0.30088 0.77802 0.61514 0.0
C2170 C 0.29868 0.74029 0.62235 0.0
H2171 H 0.27992 0.618 0.60105 0.0
H2172 H 0.28272 0.67145 0.60115 0.0
H2173 H 0.28964 0.63746 0.58718 0.0
H2174 H 0.30451 0.68174 0.58628 0.0
H2175 H 0.30813 0.74823 0.57337 0.0
H2176 H 0.06691 0.76947 0.43705 0.0
H2177 H 0.06744 0.83126 0.41844 0.0
H2178 H 0.04653 0.77787 0.38185 0.0
H2179 H 0.04601 0.71699 0.40016 0.0
H2180 H 0.07337 0.8292 0.38141 0.0
H2181 H 0.03578 0.89252 0.38867 0.0
H2182 H 0.04099 0.85745 0.40463 0.0
H2183 H 0.03591 0.83933 0.38387 0.0
C2184 C 0.06221 0.77175 0.42536 0.0
C2185 C 0.05637 0.73885 0.42003 0.0
C2186 C 0.06257 0.80672 0.41468 0.0
C2187 C 0.05694 0.80919 0.39886 0.0
C2188 C 0.05078 0.77695 0.39413 0.0
H2189 H 0.05117 0.977 0.30883 0.0
H2190 H 0.05114 0.9141 0.32663 0.0
C2191 C 0.05052 0.74216 0.40459 0.0
C2192 C 0.05811 0.84328 0.38617 0.0
H2193 H 0.04516 0.91577 0.36368 0.0
C2194 C 0.06724 0.84846 0.37766 0.0
C2195 C 0.05004 0.86777 0.38107 0.0
C2196 C 0.04015 0.86431 0.39014 0.0
C2197 C 0.06849 0.87724 0.364 0.0
C2198 C 0.06042 0.9017 0.3589 0.0
C2199 C 0.05129 0.89648 0.3674 0.0
C2200 C 0.06156 0.93606 0.34636 0.0
C2201 C 0.07839 0.88092 0.35499 0.0
C2202 C 0.06754 0.96859 0.35137 0.0
C2203 C 0.06749 0.00415 0.34142 0.0
C2204 C 0.06151 0.00797 0.32615 0.0
C2205 C 0.05594 0.97458 0.32041 0.0
C2206 C 0.05588 0.93888 0.33062 0.0
H2207 H 0.08278 0.85278 0.35645 0.0
H2208 H 0.07756 0.88784 0.3405 0.0
H2209 H 0.08259 0.90596 0.3613 0.0
H2210 H 0.07185 0.96737 0.36359 0.0
H2211 H 0.07184 0.02927 0.34622 0.0
H2212 H 0.18954 0.50777 0.4212 0.0
H2213 H 0.18927 0.44656 0.40272 0.0
H2214 H 0.22053 0.43201 0.41093 0.0
H2215 H 0.22074 0.49309 0.42958 0.0
H2216 H 0.19965 0.44215 0.37123 0.0
H2217 H 0.21061 0.31651 0.4162 0.0
H2218 H 0.20629 0.36456 0.42459 0.0
H2219 H 0.21881 0.35906 0.4171 0.0
C2220 C 0.19626 0.49064 0.41955 0.0
C2221 C 0.20513 0.50455 0.42696 0.0
C2222 C 0.19612 0.45585 0.40893 0.0
C2223 C 0.20486 0.43458 0.4055 0.0
C2224 C 0.21365 0.4474 0.41369 0.0
H2225 H 0.22323 0.24227 0.33507 0.0
H2226 H 0.22239 0.3025 0.35414 0.0
C2227 C 0.21378 0.48216 0.42438 0.0
C2228 C 0.205 0.40204 0.39181 0.0
H2229 H 0.21132 0.30347 0.38482 0.0
C2230 C 0.20211 0.41169 0.37422 0.0
C2231 C 0.20827 0.36245 0.39571 0.0
C2232 C 0.21109 0.34983 0.41446 0.0
C2233 C 0.20264 0.3831 0.36034 0.0
C2234 C 0.20602 0.34364 0.36421 0.0
C2235 C 0.2088 0.33387 0.38184 0.0
C2236 C 0.20675 0.31173 0.35029 0.0
C2237 C 0.19985 0.39572 0.34158 0.0
C2238 C 0.1983 0.29775 0.3413 0.0
C2239 C 0.19883 0.26375 0.33016 0.0
C2240 C 0.20779 0.24333 0.32795 0.0
C2241 C 0.2163 0.25829 0.33628 0.0
C2242 C 0.2158 0.29235 0.34729 0.0
H2243 H 0.19996 0.42913 0.33999 0.0
H2244 H 0.2049 0.38218 0.33154 0.0
H2245 H 0.19227 0.38503 0.33865 0.0
H2246 H 0.1912 0.31165 0.34371 0.0
H2247 H 0.19213 0.25191 0.32424 0.0
H2248 H 0.04898 0.53933 0.85235 0.0
H2249 H 0.04941 0.47813 0.87046 0.0
H2250 H 0.06587 0.4173 0.82904 0.0
H2251 H 0.06543 0.47933 0.81058 0.0
H2252 H 0.04326 0.3964 0.86313 0.0
H2253 H 0.08351 0.41347 0.87545 0.0
H2254 H 0.07606 0.45404 0.86659 0.0
H2255 H 0.07952 0.41254 0.85245 0.0
C2256 C 0.05257 0.51273 0.84694 0.0
C2257 C 0.05723 0.51396 0.83013 0.0
C2258 C 0.05279 0.47782 0.85731 0.0
C2259 C 0.05778 0.44351 0.8512 0.0
C2260 C 0.06207 0.4438 0.83402 0.0
H2261 H 0.07055 0.21752 0.90082 0.0
H2262 H 0.07036 0.27931 0.88334 0.0
C2263 C 0.06175 0.47893 0.82345 0.0
C2264 C 0.05882 0.40867 0.86348 0.0
H2265 H 0.07548 0.35922 0.88982 0.0
C2266 C 0.0503 0.38808 0.86893 0.0
C2267 C 0.068 0.3985 0.87119 0.0
C2268 C 0.07731 0.42086 0.86628 0.0
C2269 C 0.05073 0.35692 0.88168 0.0
C2270 C 0.05991 0.3468 0.88946 0.0
C2271 C 0.06844 0.36747 0.884 0.0
C2272 C 0.06097 0.31189 0.90174 0.0
C2273 C 0.04141 0.33435 0.88636 0.0
C2274 C 0.0561 0.31025 0.91838 0.0
C2275 C 0.05624 0.27455 0.92859 0.0
C2276 C 0.06119 0.24028 0.92212 0.0
C2277 C 0.06656 0.24317 0.90607 0.0
C2278 C 0.06648 0.2786 0.89604 0.0
H2279 H 0.03537 0.3407 0.87671 0.0
H2280 H 0.04275 0.30123 0.88663 0.0
H2281 H 0.03891 0.34369 0.8999 0.0
H2282 H 0.05194 0.336 0.92315 0.0
H2283 H 0.05203 0.27302 0.94089 0.0
H2284 H 0.19366 0.03254 0.90243 0.0
H2285 H 0.19311 0.97149 0.88448 0.0
H2286 H 0.21265 0.91249 0.92181 0.0
H2287 H 0.21303 0.97418 0.94032 0.0
H2288 H 0.20962 0.94178 0.86832 0.0
H2289 H 0.19213 0.82476 0.91126 0.0
H2290 H 0.19121 0.87817 0.91604 0.0
H2291 H 0.20228 0.85102 0.92146 0.0
C2292 C 0.19766 0.00641 0.90712 0.0
C2293 C 0.20342 0.00818 0.92275 0.0
C2294 C 0.19735 0.97147 0.89678 0.0
C2295 C 0.20286 0.93752 0.90173 0.0
C2296 C 0.20823 0.93825 0.91787 0.0
H2297 H 0.21817 0.71529 0.85107 0.0
H2298 H 0.21702 0.77673 0.86886 0.0
C2299 C 0.20844 0.97338 0.92844 0.0
C2300 C 0.20364 0.90333 0.88898 0.0
H2301 H 0.19931 0.80239 0.88402 0.0
C2302 C 0.20731 0.9113 0.8717 0.0
C2303 C 0.20059 0.86376 0.89342 0.0
C2304 C 0.19625 0.85381 0.91149 0.0
C2305 C 0.20823 0.88052 0.85887 0.0
C2306 C 0.20529 0.84087 0.86339 0.0
C2307 C 0.20152 0.83296 0.88059 0.0
C2308 C 0.20673 0.80632 0.85105 0.0
C2309 C 0.21259 0.89037 0.8408 0.0
C2310 C 0.20157 0.80316 0.83473 0.0
C2311 C 0.20233 0.76791 0.8243 0.0
C2312 C 0.20815 0.73559 0.83031 0.0
C2313 C 0.21361 0.73981 0.84618 0.0
C2314 C 0.21293 0.77479 0.85641 0.0
H2315 H 0.21616 0.92061 0.84063 0.0
H2316 H 0.21812 0.86726 0.83689 0.0
H2317 H 0.20666 0.89024 0.83056 0.0
H2318 H 0.19666 0.82709 0.83047 0.0
H2319 H 0.19795 0.76501 0.81223 0.0
H2320 H 0.95062 0.22187 0.55976 0.0
H2321 H 0.94896 0.15944 0.57778 0.0
H2322 H 0.96484 0.21617 0.62109 0.0
H2323 H 0.96639 0.27772 0.60355 0.0
H2324 H 0.9638 0.10965 0.59583 0.0
H2325 H 0.93834 0.18311 0.64393 0.0
H2326 H 0.94092 0.2039 0.62204 0.0
H2327 H 0.94949 0.21105 0.64015 0.0
C2328 C 0.95385 0.22056 0.57302 0.0
C2329 C 0.95852 0.25464 0.58037 0.0
C2330 C 0.95287 0.18515 0.58331 0.0
C2331 C 0.95655 0.18377 0.60094 0.0
C2332 C 0.96171 0.21702 0.60774 0.0
H2333 H 0.96116 0.01219 0.68921 0.0
H2334 H 0.96145 0.0737 0.67048 0.0
C2335 C 0.96262 0.25209 0.59763 0.0
C2336 C 0.95502 0.14818 0.61264 0.0
H2337 H 0.94538 0.1203 0.65313 0.0
C2338 C 0.95968 0.11175 0.60824 0.0
C2339 C 0.94971 0.15127 0.62893 0.0
C2340 C 0.94425 0.18932 0.634 0.0
C2341 C 0.9594 0.07854 0.61996 0.0
C2342 C 0.95419 0.08181 0.63634 0.0
C2343 C 0.94944 0.1181 0.64065 0.0
C2344 C 0.9532 0.04694 0.64864 0.0
C2345 C 0.96485 0.04046 0.6149 0.0
C2346 C 0.94812 0.01256 0.64286 0.0
C2347 C 0.94797 0.97787 0.6534 0.0
C2348 C 0.95281 0.97685 0.67006 0.0
C2349 C 0.95737 0.01218 0.67644 0.0
C2350 C 0.95757 0.04713 0.66574 0.0
H2351 H 0.97042 0.04612 0.60428 0.0
H2352 H 0.9686 0.02715 0.62674 0.0
H2353 H 0.95951 0.01786 0.60971 0.0
H2354 H 0.94451 0.01215 0.62991 0.0
H2355 H 0.94428 0.95141 0.64814 0.0
H2356 H 0.80916 0.51834 0.55921 0.0
H2357 H 0.80966 0.58263 0.57604 0.0
H2358 H 0.81478 0.51658 0.625 0.0
H2359 H 0.81431 0.45361 0.6087 0.0
H2360 H 0.79681 0.60236 0.60506 0.0
H2361 H 0.83573 0.60479 0.6273 0.0
H2362 H 0.83151 0.57389 0.60886 0.0
H2363 H 0.8298 0.55726 0.63162 0.0
C2364 C 0.81056 0.51781 0.5735 0.0
C2365 C 0.81173 0.48089 0.58257 0.0
C2366 C 0.81083 0.55439 0.58308 0.0
C2367 C 0.81243 0.55427 0.60173 0.0
C2368 C 0.81378 0.51748 0.6106 0.0
H2369 H 0.8089 0.72302 0.69184 0.0
H2370 H 0.80975 0.66108 0.67337 0.0
C2371 C 0.81345 0.48134 0.60117 0.0
C2372 C 0.81191 0.59173 0.61251 0.0
H2373 H 0.8245 0.64617 0.644 0.0
C2374 C 0.8029 0.61233 0.61339 0.0
C2375 C 0.81983 0.6042 0.62357 0.0
C2376 C 0.82979 0.5841 0.62269 0.0
C2377 C 0.80152 0.64454 0.62536 0.0
C2378 C 0.80939 0.65659 0.63658 0.0
C2379 C 0.81843 0.6363 0.63559 0.0
C2380 C 0.80867 0.69285 0.64806 0.0
C2381 C 0.79161 0.66512 0.62612 0.0
C2382 C 0.80789 0.73071 0.63989 0.0
C2383 C 0.80745 0.76554 0.65025 0.0
C2384 C 0.80781 0.76345 0.66908 0.0
C2385 C 0.80857 0.72545 0.67738 0.0
C2386 C 0.80907 0.69024 0.66688 0.0
H2387 H 0.78572 0.64612 0.62013 0.0
H2388 H 0.78958 0.67241 0.64017 0.0
H2389 H 0.79197 0.69389 0.61849 0.0
H2390 H 0.80772 0.73337 0.62542 0.0
H2391 H 0.80686 0.79429 0.64337 0.0
H2392 H 0.94239 0.46359 0.15409 0.0
H2393 H 0.94307 0.52512 0.13631 0.0
H2394 H 0.96401 0.5762 0.17344 0.0
H2395 H 0.96331 0.51387 0.19156 0.0
H2396 H 0.94033 0.60992 0.14377 0.0
H2397 H 0.97857 0.56893 0.12394 0.0
H2398 H 0.97038 0.53355 0.1348 0.0
H2399 H 0.97618 0.5729 0.14759 0.0
C2400 C 0.94698 0.48817 0.15875 0.0
C2401 C 0.95286 0.48388 0.17413 0.0
C2402 C 0.94735 0.52338 0.14855 0.0
C2403 C 0.95371 0.55483 0.15338 0.0
C2404 C 0.95913 0.55192 0.16941 0.0
H2405 H 0.9712 0.77155 0.09989 0.0
H2406 H 0.96979 0.71065 0.1181 0.0
C2407 C 0.95866 0.51661 0.17982 0.0
C2408 C 0.9552 0.58861 0.14064 0.0
H2409 H 0.97185 0.62778 0.11106 0.0
C2410 C 0.94722 0.614 0.13664 0.0
C2411 C 0.96416 0.59327 0.13119 0.0
C2412 C 0.97282 0.56562 0.13442 0.0
C2413 C 0.94803 0.64462 0.12367 0.0
C2414 C 0.95699 0.64926 0.11421 0.0
C2415 C 0.96496 0.62377 0.11819 0.0
C2416 C 0.95858 0.68308 0.10151 0.0
C2417 C 0.9394 0.67245 0.12054 0.0
C2418 C 0.95304 0.68696 0.08564 0.0
C2419 C 0.95393 0.72183 0.075 0.0
C2420 C 0.96032 0.75299 0.08028 0.0
C2421 C 0.96623 0.7478 0.09556 0.0
C2422 C 0.96542 0.71311 0.10599 0.0
H2423 H 0.93373 0.66957 0.1312 0.0
H2424 H 0.94187 0.70445 0.11992 0.0
H2425 H 0.9359 0.66488 0.10752 0.0
H2426 H 0.94781 0.66375 0.08184 0.0
H2427 H 0.94922 0.72551 0.0634 0.0
H2428 H 0.79469 0.27304 0.15173 0.0
H2429 H 0.79587 0.2124 0.13324 0.0
H2430 H 0.819 0.16701 0.16745 0.0
H2431 H 0.81756 0.22763 0.18646 0.0
H2432 H 0.81208 0.19295 0.11438 0.0
H2433 H 0.80221 0.0669 0.1602 0.0
H2434 H 0.79966 0.11909 0.16553 0.0
H2435 H 0.81187 0.09912 0.16835 0.0
C2436 C 0.79982 0.24949 0.15561 0.0
C2437 C 0.80596 0.25455 0.17056 0.0
C2438 C 0.80053 0.21504 0.14498 0.0
C2439 C 0.80751 0.18514 0.14893 0.0
C2440 C 0.81343 0.18934 0.16433 0.0
H2441 H 0.82462 0.96694 0.09459 0.0
H2442 H 0.82441 0.02871 0.11225 0.0
C2443 C 0.8126 0.22381 0.17521 0.0
C2444 C 0.80902 0.1516 0.13602 0.0
H2445 H 0.80839 0.04901 0.13164 0.0
C2446 C 0.81126 0.16143 0.11814 0.0
C2447 C 0.80795 0.11059 0.14095 0.0
C2448 C 0.8052 0.09817 0.15976 0.0
C2449 C 0.81255 0.13135 0.10507 0.0
C2450 C 0.81145 0.09035 0.10999 0.0
C2451 C 0.80925 0.08052 0.12789 0.0
C2452 C 0.8127 0.05675 0.09702 0.0
C2453 C 0.81523 0.1437 0.08623 0.0
C2454 C 0.80648 0.05265 0.08202 0.0
C2455 C 0.80676 0.01737 0.07158 0.0
C2456 C 0.81312 0.98567 0.07628 0.0
C2457 C 0.81967 0.99091 0.09064 0.0
C2458 C 0.81952 0.02616 0.10082 0.0
H2459 H 0.81831 0.17483 0.08577 0.0
H2460 H 0.82069 0.12252 0.08034 0.0
H2461 H 0.80852 0.1431 0.07775 0.0
H2462 H 0.80103 0.07558 0.07901 0.0
H2463 H 0.8015 0.01362 0.06077 0.0
H2464 H 0.54877 0.7644 0.93686 0.0
H2465 H 0.54798 0.8251 0.91768 0.0
H2466 H 0.57176 0.77844 0.88548 0.0
H2467 H 0.57236 0.71813 0.90399 0.0
H2468 H 0.56186 0.88449 0.9063 0.0
H2469 H 0.5494 0.78985 0.84925 0.0
H2470 H 0.54964 0.77145 0.87203 0.0
H2471 H 0.56077 0.77309 0.85898 0.0
C2472 C 0.55395 0.76772 0.92593 0.0
C2473 C 0.56055 0.73643 0.92179 0.0
C2474 C 0.55346 0.80214 0.91493 0.0
C2475 C 0.55961 0.80553 0.89982 0.0
C2476 C 0.56674 0.77583 0.8967 0.0
H2477 H 0.56803 0.98028 0.81342 0.0
H2478 H 0.56859 0.91899 0.83231 0.0
C2479 C 0.56712 0.74145 0.90743 0.0
C2480 C 0.5584 0.83888 0.88674 0.0
H2481 H 0.55385 0.85778 0.84243 0.0
C2482 C 0.56003 0.87873 0.89238 0.0
C2483 C 0.55605 0.83118 0.86853 0.0
C2484 C 0.55377 0.78912 0.86184 0.0
C2485 C 0.5596 0.91107 0.88021 0.0
C2486 C 0.55732 0.90332 0.862 0.0
C2487 C 0.55566 0.86351 0.85636 0.0
C2488 C 0.55622 0.93661 0.84888 0.0
C2489 C 0.56175 0.95327 0.88688 0.0
C2490 C 0.54879 0.96537 0.85139 0.0
C2491 C 0.54848 -0.0001 0.84075 0.0
C2492 C 0.55548 0.00598 0.82717 0.0
C2493 C 0.56247 0.9758 0.82365 0.0
C2494 C 0.56284 0.94113 0.83451 0.0
H2495 H 0.56578 0.95289 0.89984 0.0
H2496 H 0.56615 0.97053 0.87694 0.0
H2497 H 0.55469 0.96953 0.88898 0.0
H2498 H 0.54349 0.96198 0.86214 0.0
H2499 H 0.54304 0.02293 0.84369 0.0
H2500 H 0.69407 0.52441 0.90701 0.0
H2501 H 0.69392 0.46242 0.88971 0.0
H2502 H 0.71564 0.41094 0.92519 0.0
H2503 H 0.71566 0.47371 0.94303 0.0
H2504 H 0.71108 0.43668 0.87239 0.0
H2505 H 0.69565 0.31772 0.91707 0.0
H2506 H 0.69377 0.37102 0.92113 0.0
H2507 H 0.70542 0.34812 0.92625 0.0
C2508 C 0.69863 0.49969 0.91149 0.0
C2509 C 0.7049 0.50396 0.92636 0.0
C2510 C 0.69855 0.46421 0.90151 0.0
C2511 C 0.7048 0.43221 0.90607 0.0
C2512 C 0.71068 0.43523 0.92156 0.0
H2513 H 0.71737 0.20701 0.8534 0.0
H2514 H 0.71749 0.2675 0.87199 0.0
C2515 C 0.71067 0.47093 0.93176 0.0
C2516 C 0.70573 0.39787 0.89346 0.0
H2517 H 0.7015 0.29683 0.88878 0.0
C2518 C 0.709 0.40602 0.87595 0.0
C2519 C 0.70299 0.3581 0.89817 0.0
C2520 C 0.69919 0.34801 0.91662 0.0
C2521 C 0.70969 0.37534 0.86303 0.0
C2522 C 0.70687 0.33557 0.86768 0.0
C2523 C 0.70363 0.32742 0.88522 0.0
C2524 C 0.70761 0.30135 0.8549 0.0
C2525 C 0.71362 0.38564 0.84467 0.0
C2526 C 0.70224 0.3007 0.83873 0.0
C2527 C 0.70231 0.2661 0.82782 0.0
C2528 C 0.70759 0.23175 0.8332 0.0
C2529 C 0.71321 0.23317 0.84899 0.0
C2530 C 0.71326 0.26763 0.85967 0.0
H2531 H 0.71775 0.41466 0.84471 0.0
H2532 H 0.71855 0.3614 0.83962 0.0
H2533 H 0.70737 0.38875 0.8352 0.0
H2534 H 0.6977 0.32618 0.83494 0.0
H2535 H 0.69781 0.26537 0.81582 0.0
H2536 H 0.54624 0.5287 0.3516 0.0
H2537 H 0.54734 0.46745 0.36958 0.0
H2538 H 0.56557 0.41216 0.32909 0.0
H2539 H 0.56448 0.47434 0.31082 0.0
H2540 H 0.54274 0.38567 0.36279 0.0
H2541 H 0.58266 0.41161 0.37553 0.0
H2542 H 0.57478 0.44999 0.36601 0.0
H2543 H 0.57892 0.40855 0.35244 0.0
C2544 C 0.55033 0.50319 0.34634 0.0
C2545 C 0.5553 0.50608 0.32989 0.0
C2546 C 0.55095 0.46826 0.35664 0.0
C2547 C 0.55666 0.43561 0.35081 0.0
C2548 C 0.56123 0.43739 0.33389 0.0
H2549 H 0.57124 0.21224 0.40171 0.0
H2550 H 0.57077 0.27349 0.38378 0.0
C2551 C 0.56052 0.47255 0.3234 0.0
C2552 C 0.55814 0.40112 0.36316 0.0
H2553 H 0.57532 0.35553 0.38979 0.0
C2554 C 0.54986 0.37891 0.36866 0.0
C2555 C 0.56742 0.39295 0.37097 0.0
C2556 C 0.57647 0.41712 0.3661 0.0
C2557 C 0.55064 0.34825 0.38158 0.0
C2558 C 0.55991 0.34017 0.38945 0.0
C2559 C 0.5682 0.36226 0.3839 0.0
C2560 C 0.56131 0.30606 0.40204 0.0
C2561 C 0.54158 0.32411 0.3864 0.0
C2562 C 0.55652 0.30475 0.41876 0.0
C2563 C 0.55684 0.26947 0.42922 0.0
C2564 C 0.56188 0.23528 0.42292 0.0
C2565 C 0.5672 0.23791 0.40681 0.0
C2566 C 0.56696 0.27299 0.39654 0.0
H2567 H 0.53547 0.3291 0.37675 0.0
H2568 H 0.54329 0.29128 0.38682 0.0
H2569 H 0.539 0.33328 0.39991 0.0
H2570 H 0.55223 0.33033 0.42335 0.0
H2571 H 0.55265 0.26809 0.44156 0.0
H2572 H 0.70563 0.04121 0.39286 0.0
H2573 H 0.70481 0.97971 0.37537 0.0
H2574 H 0.70676 0.90853 0.42368 0.0
H2575 H 0.70747 0.97107 0.44169 0.0
H2576 H 0.71928 0.91904 0.37421 0.0
H2577 H 0.6827 0.86101 0.39604 0.0
H2578 H 0.6865 0.91272 0.3997 0.0
H2579 H 0.69137 0.87302 0.4135 0.0
C2580 C 0.7058 0.01263 0.39994 0.0
C2581 C 0.70659 0.01107 0.41875 0.0
C2582 C 0.70536 0.97743 0.38983 0.0
C2583 C 0.70568 0.93965 0.39819 0.0
C2584 C 0.70639 0.93757 0.417 0.0
H2585 H 0.70502 0.69863 0.35749 0.0
H2586 H 0.7051 0.76064 0.37469 0.0
C2587 C 0.70682 0.97317 0.42726 0.0
C2588 C 0.70556 0.90298 0.38684 0.0
H2589 H 0.69158 0.82128 0.37536 0.0
C2590 C 0.71324 0.89754 0.37446 0.0
C2591 C 0.69761 0.87543 0.38709 0.0
C2592 C 0.68902 0.88077 0.39968 0.0
C2593 C 0.71328 0.86475 0.36252 0.0
C2594 C 0.70533 0.83714 0.36276 0.0
C2595 C 0.69763 0.84273 0.3751 0.0
C2596 C 0.70528 0.8001 0.35159 0.0
C2597 C 0.72195 0.85936 0.35011 0.0
C2598 C 0.70535 0.80158 0.33273 0.0
C2599 C 0.70537 0.76566 0.32265 0.0
C2600 C 0.70523 0.72804 0.3314 0.0
C2601 C 0.70509 0.72704 0.35025 0.0
C2602 C 0.70512 0.76254 0.36019 0.0
H2603 H 0.72834 0.87825 0.3542 0.0
H2604 H 0.72431 0.82722 0.34971 0.0
H2605 H 0.71978 0.8684 0.33634 0.0
H2606 H 0.70531 0.83039 0.32582 0.0
H2607 H 0.70543 0.76731 0.30816 0.0
H2608 H 0.46536 0.22476 0.05964 0.0
H2609 H 0.46544 0.16188 0.07747 0.0
H2610 H 0.44421 0.2139 0.11371 0.0
H2611 H 0.4441 0.27558 0.09624 0.0
H2612 H 0.47107 0.1619 0.11427 0.0
H2613 H 0.4334 0.1001 0.10619 0.0
H2614 H 0.43865 0.13612 0.09069 0.0
H2615 H 0.43349 0.15297 0.1116 0.0
C2616 C 0.46049 0.22205 0.07107 0.0
C2617 C 0.45473 0.25502 0.07657 0.0
C2618 C 0.46059 0.18638 0.0813 0.0
C2619 C 0.45476 0.18319 0.09684 0.0
C2620 C 0.44863 0.21536 0.10164 0.0
H2621 H 0.44841 0.01811 0.18759 0.0
H2622 H 0.44846 0.07988 0.16896 0.0
C2623 C 0.44862 0.25083 0.09164 0.0
C2624 C 0.45578 0.14864 0.10932 0.0
H2625 H 0.4425 0.07685 0.13167 0.0
C2626 C 0.46487 0.14292 0.11792 0.0
C2627 C 0.44762 0.1245 0.11428 0.0
C2628 C 0.43776 0.12844 0.10509 0.0
C2629 C 0.46597 0.11411 0.13159 0.0
C2630 C 0.45779 0.09017 0.13662 0.0
C2631 C 0.44871 0.09576 0.12798 0.0
C2632 C 0.45874 0.0562 0.14941 0.0
C2633 C 0.47582 0.10991 0.14074 0.0
C2634 C 0.46461 0.02309 0.14471 0.0
C2635 C 0.46453 0.98827 0.15515 0.0
C2636 C 0.45863 0.98586 0.17057 0.0
C2637 C 0.45313 0.01965 0.17591 0.0
C2638 C 0.45311 0.05463 0.16523 0.0
H2639 H 0.4804 0.13753 0.13907 0.0
H2640 H 0.47491 0.10377 0.15528 0.0
H2641 H 0.47988 0.08416 0.13473 0.0
H2642 H 0.46887 0.02338 0.13243 0.0
H2643 H 0.46879 0.96241 0.15074 0.0
H2644 H 0.29576 0.77297 0.15343 0.0
H2645 H 0.2968 0.71166 0.13547 0.0
H2646 H 0.31921 0.66509 0.17092 0.0
H2647 H 0.31803 0.72692 0.18932 0.0
H2648 H 0.31403 0.68968 0.11789 0.0
H2649 H 0.30066 0.56763 0.16311 0.0
H2650 H 0.29823 0.62046 0.16735 0.0
H2651 H 0.31018 0.59971 0.172 0.0
C2652 C 0.30074 0.7492 0.15767 0.0
C2653 C 0.3068 0.75442 0.17275 0.0
C2654 C 0.30136 0.71432 0.14735 0.0
C2655 C 0.3081 0.68394 0.1518 0.0
C2656 C 0.31387 0.68806 0.16738 0.0
H2657 H 0.32245 0.46082 0.0989 0.0
H2658 H 0.32273 0.52204 0.11681 0.0
C2659 C 0.31318 0.72316 0.17792 0.0
C2660 C 0.30947 0.64981 0.13919 0.0
H2661 H 0.30659 0.54792 0.13473 0.0
C2662 C 0.31243 0.65861 0.12156 0.0
C2663 C 0.30734 0.60948 0.14402 0.0
C2664 C 0.30385 0.59856 0.1626 0.0
C2665 C 0.31337 0.62805 0.10862 0.0
C2666 C 0.31116 0.58774 0.1134 0.0
C2667 C 0.30827 0.57893 0.13108 0.0
C2668 C 0.31203 0.55371 0.10057 0.0
C2669 C 0.31687 0.63909 0.09006 0.0
C2670 C 0.3062 0.55168 0.08497 0.0
C2671 C 0.30616 0.51653 0.07441 0.0
C2672 C 0.31181 0.48295 0.07958 0.0
C2673 C 0.31798 0.48605 0.09462 0.0
C2674 C 0.31813 0.52107 0.10494 0.0
H2675 H 0.32059 0.66904 0.08987 0.0
H2676 H 0.32204 0.61598 0.08479 0.0
H2677 H 0.31044 0.64063 0.08091 0.0
H2678 H 0.30132 0.57633 0.08149 0.0
H2679 H 0.30125 0.51464 0.063 0.0
H2680 H 0.4393 0.4868 0.66739 0.0
H2681 H 0.4395 0.54698 0.64825 0.0
H2682 H 0.47041 0.56341 0.65948 0.0
H2683 H 0.4702 0.50298 0.6787 0.0
H2684 H 0.44626 0.6315 0.65343 0.0
H2685 H 0.4679 0.54286 0.60382 0.0
H2686 H 0.46128 0.5194 0.62206 0.0
H2687 H 0.47278 0.5445 0.62623 0.0
C2688 C 0.44605 0.50398 0.66619 0.0
C2689 C 0.45472 0.49065 0.67456 0.0
C2690 C 0.44617 0.53823 0.65523 0.0
C2691 C 0.455 0.55915 0.65225 0.0
C2692 C 0.46354 0.54738 0.66152 0.0
H2693 H 0.47305 0.75241 0.58258 0.0
H2694 H 0.47206 0.692 0.60156 0.0
C2695 C 0.46339 0.51326 0.67263 0.0
C2696 C 0.45543 0.59094 0.6383 0.0
H2697 H 0.46474 0.61128 0.59673 0.0
C2698 C 0.45028 0.62715 0.64101 0.0
C2699 C 0.46061 0.58486 0.62208 0.0
C2700 C 0.46591 0.54572 0.61821 0.0
C2701 C 0.45039 0.658 0.62807 0.0
C2702 C 0.45561 0.65199 0.61186 0.0
C2703 C 0.4607 0.61565 0.60912 0.0
C2704 C 0.45635 0.68418 0.5981 0.0
C2705 C 0.44514 0.69722 0.63203 0.0
C2706 C 0.44792 0.69848 0.58918 0.0
C2707 C 0.44852 0.73265 0.57814 0.0
C2708 C 0.45755 0.75258 0.57585 0.0
C2709 C 0.46606 0.73684 0.5839 0.0
C2710 C 0.46548 0.70263 0.59483 0.0
H2711 H 0.44324 0.70011 0.64646 0.0
H2712 H 0.44976 0.72351 0.62809 0.0
H2713 H 0.43821 0.6985 0.62418 0.0
H2714 H 0.44083 0.68433 0.59138 0.0
H2715 H 0.44185 0.74493 0.57233 0.0
H2716 H 0.32222 0.9627 0.59782 0.0
H2717 H 0.32226 0.02467 0.61524 0.0
H2718 H 0.3029 0.08035 0.57661 0.0
H2719 H 0.30283 0.01737 0.55891 0.0
H2720 H 0.32666 0.1065 0.60863 0.0
H2721 H 0.28711 0.07996 0.62428 0.0
H2722 H 0.29476 0.04206 0.61386 0.0
H2723 H 0.29013 0.08366 0.60087 0.0
C2724 C 0.31814 0.98831 0.59276 0.0
C2725 C 0.31245 0.98515 0.5771 0.0
C2726 C 0.31818 0.02379 0.60276 0.0
C2727 C 0.31243 0.05674 0.59742 0.0
C2728 C 0.30728 0.05489 0.58106 0.0
H2729 H 0.29843 0.28138 0.64657 0.0
H2730 H 0.29959 0.21997 0.62875 0.0
C2731 C 0.30732 0.0192 0.57088 0.0
C2732 C 0.31127 0.09112 0.60992 0.0
H2733 H 0.29455 0.13743 0.63723 0.0
C2734 C 0.31965 0.11339 0.61487 0.0
C2735 C 0.30214 0.09933 0.6183 0.0
C2736 C 0.29302 0.07486 0.61423 0.0
C2737 C 0.31908 0.14444 0.62766 0.0
C2738 C 0.30993 0.15291 0.63586 0.0
C2739 C 0.30157 0.13046 0.63102 0.0
C2740 C 0.30864 0.18798 0.64791 0.0
C2741 C 0.32819 0.16871 0.63198 0.0
C2742 C 0.3131 0.18979 0.66492 0.0
C2743 C 0.31236 0.22504 0.67534 0.0
C2744 C 0.30724 0.25868 0.66865 0.0
C2745 C 0.30248 0.25591 0.65198 0.0
C2746 C 0.30312 0.22087 0.64178 0.0
H2747 H 0.33435 0.16207 0.62263 0.0
H2748 H 0.32656 0.20159 0.63144 0.0
H2749 H 0.33065 0.16147 0.6458 0.0
H2750 H 0.31732 0.16438 0.66992 0.0
H2751 H 0.31613 0.22666 0.68811 0.0
loop_
_geom_bond_atom_site_label_1
_geom_bond_atom_site_label_2
_geom_bond_distance
_geom_bond_site_symmetry_2
_ccdc_geom_bond_type
Co0 O1 2.216 . S
Co0 O2 2.091 . S
Co0 O4 2.004 . S
Co0 O10 2.021 . S
Co0 O12 2.137 . S
Co0 O13 2.244 . S
O1 Co0 2.216 . S
O1 C8 1.247 . S
O2 Co0 2.091 . S
O2 C8 1.261 . S
C3 O12 1.247 . S
C3 O13 1.272 . S
O4 Co0 2.004 . S
O4 C9 1.259 . S
Co5 O6 2.061 . S
Co5 O11 2.052 . S
Co5 O13 2.135 . S
O6 Co5 2.061 . S
O6 C9 1.235 . S
C7 O10 1.238 . S
C7 O11 1.241 . S
C8 O1 1.247 . S
C8 O2 1.261 . S
C9 O4 1.259 . S
C9 O6 1.235 . S
O10 Co0 2.021 . S
O10 C7 1.238 . S
O11 Co5 2.052 . S
O11 C7 1.241 . S
O12 Co0 2.137 . S
O12 C3 1.247 . S
O13 Co0 2.244 . S
O13 C3 1.272 . S
O13 Co5 2.135 . S
Co14 O15 2.216 . S
Co14 O16 2.091 . S
Co14 O18 2.004 . S
Co14 O24 2.021 . S
Co14 O26 2.137 . S
Co14 O27 2.244 . S
O15 Co14 2.216 . S
O15 C22 1.247 . S
O16 Co14 2.091 . S
O16 C22 1.261 . S
C17 O26 1.247 . S
C17 O27 1.272 . S
O18 Co14 2.004 . S
O18 C23 1.259 . S
Co19 O20 2.061 . S
Co19 O25 2.052 . S
Co19 O27 2.135 . S
O20 Co19 2.061 . S
O20 C23 1.235 . S
C21 O24 1.238 . S
C21 O25 1.241 . S
C22 O15 1.247 . S
C22 O16 1.261 . S
C23 O18 1.259 . S
C23 O20 1.235 . S
O24 Co14 2.021 . S
O24 C21 1.238 . S
O25 Co19 2.052 . S
O25 C21 1.241 . S
O26 Co14 2.137 . S
O26 C17 1.247 . S
O27 Co14 2.244 . S
O27 C17 1.272 . S
O27 Co19 2.135 . S
Co28 O29 2.216 . S
Co28 O30 2.091 . S
Co28 O32 2.004 . S
Co28 O38 2.021 . S
Co28 O40 2.137 . S
Co28 O41 2.244 . S
O29 Co28 2.216 . S
O29 C36 1.247 . S
O30 Co28 2.091 . S
O30 C36 1.261 . S
C31 O40 1.247 . S
C31 O41 1.272 . S
O32 Co28 2.004 . S
O32 C37 1.259 . S
Co33 O34 2.061 . S
Co33 O39 2.052 . S
Co33 O41 2.135 . S
O34 Co33 2.061 . S
O34 C37 1.235 . S
C35 O38 1.238 . S
C35 O39 1.241 . S
C36 O29 1.247 . S
C36 O30 1.261 . S
C37 O32 1.259 . S
C37 O34 1.235 . S
O38 Co28 2.021 . S
O38 C35 1.238 . S
O39 Co33 2.052 . S
O39 C35 1.241 . S
O40 Co28 2.137 . S
O40 C31 1.247 . S
O41 Co28 2.244 . S
O41 C31 1.272 . S
O41 Co33 2.135 . S
Co42 O43 2.216 . S
Co42 O44 2.091 . S
Co42 O46 2.004 . S
Co42 O52 2.021 . S
Co42 O54 2.137 . S
Co42 O55 2.244 . S
O43 Co42 2.216 . S
O43 C50 1.247 . S
O44 Co42 2.091 . S
O44 C50 1.261 . S
C45 O54 1.247 . S
C45 O55 1.272 . S
O46 Co42 2.004 . S
O46 C51 1.259 . S
Co47 O48 2.061 . S
Co47 O53 2.052 . S
Co47 O55 2.135 . S
O48 Co47 2.061 . S
O48 C51 1.235 . S
C49 O52 1.238 . S
C49 O53 1.241 . S
C50 O43 1.247 . S
C50 O44 1.261 . S
C51 O46 1.259 . S
C51 O48 1.235 . S
O52 Co42 2.021 . S
O52 C49 1.238 . S
O53 Co47 2.052 . S
O53 C49 1.241 . S
O54 Co42 2.137 . S
O54 C45 1.247 . S
O55 Co42 2.244 . S
O55 C45 1.272 . S
O55 Co47 2.135 . S
Co56 O57 2.216 . S
Co56 O58 2.091 . S
Co56 O60 2.004 . S
Co56 O66 2.021 . S
Co56 O68 2.137 . S
Co56 O69 2.244 . S
O57 Co56 2.216 . S
O57 C64 1.247 . S
O58 Co56 2.091 . S
O58 C64 1.261 . S
C59 O68 1.247 . S
C59 O69 1.272 . S
O60 Co56 2.004 . S
O60 C65 1.259 . S
Co61 O62 2.061 . S
Co61 O67 2.052 . S
Co61 O69 2.135 . S
O62 Co61 2.061 . S
O62 C65 1.235 . S
C63 O66 1.238 . S
C63 O67 1.241 . S
C64 O57 1.247 . S
C64 O58 1.261 . S
C65 O60 1.259 . S
C65 O62 1.235 . S
O66 Co56 2.021 . S
O66 C63 1.238 . S
O67 Co61 2.052 . S
O67 C63 1.241 . S
O68 Co56 2.137 . S
O68 C59 1.247 . S
O69 Co56 2.244 . S
O69 C59 1.272 . S
O69 Co61 2.135 . S
Co70 O71 2.216 . S
Co70 O72 2.091 . S
Co70 O74 2.004 . S
Co70 O80 2.021 . S
Co70 O82 2.137 . S
Co70 O83 2.244 . S
O71 Co70 2.216 . S
O71 C78 1.247 . S
O72 Co70 2.091 . S
O72 C78 1.261 . S
C73 O82 1.247 . S
C73 O83 1.272 . S
O74 Co70 2.004 . S
O74 C79 1.259 . S
Co75 O76 2.061 . S
Co75 O81 2.052 . S
Co75 O83 2.135 . S
O76 Co75 2.061 . S
O76 C79 1.235 . S
C77 O80 1.238 . S
C77 O81 1.241 . S
C78 O71 1.247 . S
C78 O72 1.261 . S
C79 O74 1.259 . S
C79 O76 1.235 . S
O80 Co70 2.021 . S
O80 C77 1.238 . S
O81 Co75 2.052 . S
O81 C77 1.241 . S
O82 Co70 2.137 . S
O82 C73 1.247 . S
O83 Co70 2.244 . S
O83 C73 1.272 . S
O83 Co75 2.135 . S
Co84 O85 2.216 . S
Co84 O86 2.091 . S
Co84 O88 2.004 . S
Co84 O94 2.021 . S
Co84 O96 2.137 . S
Co84 O97 2.244 . S
O85 Co84 2.216 . S
O85 C92 1.247 . S
O86 Co84 2.091 . S
O86 C92 1.261 . S
C87 O96 1.247 . S
C87 O97 1.272 . S
O88 Co84 2.004 . S
O88 C93 1.259 . S
Co89 O90 2.061 . S
Co89 O95 2.052 . S
Co89 O97 2.135 . S
O90 Co89 2.061 . S
O90 C93 1.235 . S
C91 O94 1.238 . S
C91 O95 1.241 . S
C92 O85 1.247 . S
C92 O86 1.261 . S
C93 O88 1.259 . S
C93 O90 1.235 . S
O94 Co84 2.021 . S
O94 C91 1.238 . S
O95 Co89 2.052 . S
O95 C91 1.241 . S
O96 Co84 2.137 . S
O96 C87 1.247 . S
O97 Co84 2.244 . S
O97 C87 1.272 . S
O97 Co89 2.135 . S
Co98 O99 2.216 . S
Co98 O100 2.091 . S
Co98 O102 2.004 . S
Co98 O108 2.021 . S
Co98 O110 2.137 . S
Co98 O111 2.244 . S
O99 Co98 2.216 . S
O99 C106 1.247 . S
O100 Co98 2.091 . S
O100 C106 1.261 . S
C101 O110 1.247 . S
C101 O111 1.272 . S
O102 Co98 2.004 . S
O102 C107 1.259 . S
Co103 O104 2.061 . S
Co103 O109 2.052 . S
Co103 O111 2.135 . S
O104 Co103 2.061 . S
O104 C107 1.235 . S
C105 O108 1.238 . S
C105 O109 1.241 . S
C106 O99 1.247 . S
C106 O100 1.261 . S
C107 O102 1.259 . S
C107 O104 1.235 . S
O108 Co98 2.021 . S
O108 C105 1.238 . S
O109 Co103 2.052 . S
O109 C105 1.241 . S
O110 Co98 2.137 . S
O110 C101 1.247 . S
O111 Co98 2.244 . S
O111 C101 1.272 . S
O111 Co103 2.135 . S
Co112 O113 2.216 . S
Co112 O114 2.091 . S
Co112 O116 2.004 . S
Co112 O122 2.021 . S
Co112 O124 2.137 . S
Co112 O125 2.244 . S
O113 Co112 2.216 . S
O113 C120 1.247 . S
O114 Co112 2.091 . S
O114 C120 1.261 . S
C115 O124 1.247 . S
C115 O125 1.272 . S
O116 Co112 2.004 . S
O116 C121 1.259 . S
Co117 O118 2.061 . S
Co117 O123 2.052 . S
Co117 O125 2.135 . S
O118 Co117 2.061 . S
O118 C121 1.235 . S
C119 O122 1.238 . S
C119 O123 1.241 . S
C120 O113 1.247 . S
C120 O114 1.261 . S
C121 O116 1.259 . S
C121 O118 1.235 . S
O122 Co112 2.021 . S
O122 C119 1.238 . S
O123 Co117 2.052 . S
O123 C119 1.241 . S
O124 Co112 2.137 . S
O124 C115 1.247 . S
O125 Co112 2.244 . S
O125 C115 1.272 . S
O125 Co117 2.135 . S
Co126 O127 2.216 . S
Co126 O128 2.091 . S
Co126 O130 2.004 . S
Co126 O136 2.021 . S
Co126 O138 2.137 . S
Co126 O139 2.244 . S
O127 Co126 2.216 . S
O127 C134 1.247 . S
O128 Co126 2.091 . S
O128 C134 1.261 . S
C129 O138 1.247 . S
C129 O139 1.272 . S
O130 Co126 2.004 . S
O130 C135 1.259 . S
Co131 O132 2.061 . S
Co131 O137 2.052 . S
Co131 O139 2.135 . S
O132 Co131 2.061 . S
O132 C135 1.235 . S
C133 O136 1.238 . S
C133 O137 1.241 . S
C134 O127 1.247 . S
C134 O128 1.261 . S
C135 O130 1.259 . S
C135 O132 1.235 . S
O136 Co126 2.021 . S
O136 C133 1.238 . S
O137 Co131 2.052 . S
O137 C133 1.241 . S
O138 Co126 2.137 . S
O138 C129 1.247 . S
O139 Co126 2.244 . S
O139 C129 1.272 . S
O139 Co131 2.135 . S
Co140 O141 2.216 . S
Co140 O142 2.091 . S
Co140 O144 2.004 . S
Co140 O150 2.021 . S
Co140 O152 2.137 . S
Co140 O153 2.244 . S
O141 Co140 2.216 . S
O141 C148 1.247 . S
O142 Co140 2.091 . S
O142 C148 1.261 . S
C143 O152 1.247 . S
C143 O153 1.272 . S
O144 Co140 2.004 . S
O144 C149 1.259 . S
Co145 O146 2.061 . S
Co145 O151 2.052 . S
Co145 O153 2.135 . S
O146 Co145 2.061 . S
O146 C149 1.235 . S
C147 O150 1.238 . S
C147 O151 1.241 . S
C148 O141 1.247 . S
C148 O142 1.261 . S
C149 O144 1.259 . S
C149 O146 1.235 . S
O150 Co140 2.021 . S
O150 C147 1.238 . S
O151 Co145 2.052 . S
O151 C147 1.241 . S
O152 Co140 2.137 . S
O152 C143 1.247 . S
O153 Co140 2.244 . S
O153 C143 1.272 . S
O153 Co145 2.135 . S
Co154 O155 2.216 . S
Co154 O156 2.091 . S
Co154 O158 2.004 . S
Co154 O164 2.021 . S
Co154 O166 2.137 . S
Co154 O167 2.244 . S
O155 Co154 2.216 . S
O155 C162 1.247 . S
O156 Co154 2.091 . S
O156 C162 1.261 . S
C157 O166 1.247 . S
C157 O167 1.272 . S
O158 Co154 2.004 . S
O158 C163 1.259 . S
Co159 O160 2.061 . S
Co159 O165 2.052 . S
Co159 O167 2.135 . S
O160 Co159 2.061 . S
O160 C163 1.235 . S
C161 O164 1.238 . S
C161 O165 1.241 . S
C162 O155 1.247 . S
C162 O156 1.261 . S
C163 O158 1.259 . S
C163 O160 1.235 . S
O164 Co154 2.021 . S
O164 C161 1.238 . S
O165 Co159 2.052 . S
O165 C161 1.241 . S
O166 Co154 2.137 . S
O166 C157 1.247 . S
O167 Co154 2.244 . S
O167 C157 1.272 . S
O167 Co159 2.135 . S
Co168 O169 2.216 . S
Co168 O170 2.091 . S
Co168 O172 2.004 . S
Co168 O178 2.021 . S
Co168 O180 2.137 . S
Co168 O181 2.244 . S
O169 Co168 2.216 . S
O169 C176 1.247 . S
O170 Co168 2.091 . S
O170 C176 1.261 . S
C171 O180 1.247 . S
C171 O181 1.272 . S
O172 Co168 2.004 . S
O172 C177 1.259 . S
Co173 O174 2.061 . S
Co173 O179 2.052 . S
Co173 O181 2.135 . S
O174 Co173 2.061 . S
O174 C177 1.235 . S
C175 O178 1.238 . S
C175 O179 1.241 . S
C176 O169 1.247 . S
C176 O170 1.261 . S
C177 O172 1.259 . S
C177 O174 1.235 . S
O178 Co168 2.021 . S
O178 C175 1.238 . S
O179 Co173 2.052 . S
O179 C175 1.241 . S
O180 Co168 2.137 . S
O180 C171 1.247 . S
O181 Co168 2.244 . S
O181 C171 1.272 . S
O181 Co173 2.135 . S
Co182 O183 2.216 . S
Co182 O184 2.091 . S
Co182 O186 2.004 . S
Co182 O192 2.021 . S
Co182 O194 2.137 . S
Co182 O195 2.244 . S
O183 Co182 2.216 . S
O183 C190 1.247 . S
O184 Co182 2.091 . S
O184 C190 1.261 . S
C185 O194 1.247 . S
C185 O195 1.272 . S
O186 Co182 2.004 . S
O186 C191 1.259 . S
Co187 O188 2.061 . S
Co187 O193 2.052 . S
Co187 O195 2.135 . S
O188 Co187 2.061 . S
O188 C191 1.235 . S
C189 O192 1.238 . S
C189 O193 1.241 . S
C190 O183 1.247 . S
C190 O184 1.261 . S
C191 O186 1.259 . S
C191 O188 1.235 . S
O192 Co182 2.021 . S
O192 C189 1.238 . S
O193 Co187 2.052 . S
O193 C189 1.241 . S
O194 Co182 2.137 . S
O194 C185 1.247 . S
O195 Co182 2.244 . S
O195 C185 1.272 . S
O195 Co187 2.135 . S
Co196 O197 2.216 . S
Co196 O198 2.091 . S
Co196 O200 2.004 . S
Co196 O206 2.021 . S
Co196 O208 2.137 . S
Co196 O209 2.244 . S
O197 Co196 2.216 . S
O197 C204 1.247 . S
O198 Co196 2.091 . S
O198 C204 1.261 . S
C199 O208 1.247 . S
C199 O209 1.272 . S
O200 Co196 2.004 . S
O200 C205 1.259 . S
Co201 O202 2.061 . S
Co201 O207 2.052 . S
Co201 O209 2.135 . S
O202 Co201 2.061 . S
O202 C205 1.235 . S
C203 O206 1.238 . S
C203 O207 1.241 . S
C204 O197 1.247 . S
C204 O198 1.261 . S
C205 O200 1.259 . S
C205 O202 1.235 . S
O206 Co196 2.021 . S
O206 C203 1.238 . S
O207 Co201 2.052 . S
O207 C203 1.241 . S
O208 Co196 2.137 . S
O208 C199 1.247 . S
O209 Co196 2.244 . S
O209 C199 1.272 . S
O209 Co201 2.135 . S
Co210 O211 2.216 . S
Co210 O212 2.091 . S
Co210 O214 2.004 . S
Co210 O220 2.021 . S
Co210 O222 2.137 . S
Co210 O223 2.244 . S
O211 Co210 2.216 . S
O211 C218 1.247 . S
O212 Co210 2.091 . S
O212 C218 1.261 . S
C213 O222 1.247 . S
C213 O223 1.272 . S
O214 Co210 2.004 . S
O214 C219 1.259 . S
Co215 O216 2.061 . S
Co215 O221 2.052 . S
Co215 O223 2.135 . S
O216 Co215 2.061 . S
O216 C219 1.235 . S
C217 O220 1.238 . S
C217 O221 1.241 . S
C218 O211 1.247 . S
C218 O212 1.261 . S
C219 O214 1.259 . S
C219 O216 1.235 . S
O220 Co210 2.021 . S
O220 C217 1.238 . S
O221 Co215 2.052 . S
O221 C217 1.241 . S
O222 Co210 2.137 . S
O222 C213 1.247 . S
O223 Co210 2.244 . S
O223 C213 1.272 . S
O223 Co215 2.135 . S
Co224 O225 2.216 . S
Co224 O226 2.091 . S
Co224 O228 2.004 . S
Co224 O234 2.021 . S
Co224 O236 2.137 . S
Co224 O237 2.244 . S
O225 Co224 2.216 . S
O225 C232 1.247 . S
O226 Co224 2.091 . S
O226 C232 1.261 . S
C227 O236 1.247 . S
C227 O237 1.272 . S
O228 Co224 2.004 . S
O228 C233 1.259 . S
Co229 O230 2.061 . S
Co229 O235 2.052 . S
Co229 O237 2.135 . S
O230 Co229 2.061 . S
O230 C233 1.235 . S
C231 O234 1.238 . S
C231 O235 1.241 . S
C232 O225 1.247 . S
C232 O226 1.261 . S
C233 O228 1.259 . S
C233 O230 1.235 . S
O234 Co224 2.021 . S
O234 C231 1.238 . S
O235 Co229 2.052 . S
O235 C231 1.241 . S
O236 Co224 2.137 . S
O236 C227 1.247 . S
O237 Co224 2.244 . S
O237 C227 1.272 . S
O237 Co229 2.135 . S
Co238 O239 2.216 . S
Co238 O240 2.091 . S
Co238 O242 2.004 . S
Co238 O248 2.021 . S
Co238 O250 2.137 . S
Co238 O251 2.244 . S
O239 Co238 2.216 . S
O239 C246 1.247 . S
O240 Co238 2.091 . S
O240 C246 1.261 . S
C241 O250 1.247 . S
C241 O251 1.272 . S
O242 Co238 2.004 . S
O242 C247 1.259 . S
Co243 O244 2.061 . S
Co243 O249 2.052 . S
Co243 O251 2.135 . S
O244 Co243 2.061 . S
O244 C247 1.235 . S
C245 O248 1.238 . S
C245 O249 1.241 . S
C246 O239 1.247 . S
C246 O240 1.261 . S
C247 O242 1.259 . S
C247 O244 1.235 . S
O248 Co238 2.021 . S
O248 C245 1.238 . S
O249 Co243 2.052 . S
O249 C245 1.241 . S
O250 Co238 2.137 . S
O250 C241 1.247 . S
O251 Co238 2.244 . S
O251 C241 1.272 . S
O251 Co243 2.135 . S
Co252 O253 2.216 . S
Co252 O254 2.091 . S
Co252 O256 2.004 . S
Co252 O262 2.021 . S
Co252 O264 2.137 . S
Co252 O265 2.244 . S
O253 Co252 2.216 . S
O253 C260 1.247 . S
O254 Co252 2.091 . S
O254 C260 1.261 . S
C255 O264 1.247 . S
C255 O265 1.272 . S
O256 Co252 2.004 . S
O256 C261 1.259 . S
Co257 O258 2.061 . S
Co257 O263 2.052 . S
Co257 O265 2.135 . S
O258 Co257 2.061 . S
O258 C261 1.235 . S
C259 O262 1.238 . S
C259 O263 1.241 . S
C260 O253 1.247 . S
C260 O254 1.261 . S
C261 O256 1.259 . S
C261 O258 1.235 . S
O262 Co252 2.021 . S
O262 C259 1.238 . S
O263 Co257 2.052 . S
O263 C259 1.241 . S
O264 Co252 2.137 . S
O264 C255 1.247 . S
O265 Co252 2.244 . S
O265 C255 1.272 . S
O265 Co257 2.135 . S
Co266 O267 2.216 . S
Co266 O268 2.091 . S
Co266 O270 2.004 . S
Co266 O276 2.021 . S
Co266 O278 2.137 . S
Co266 O279 2.244 . S
O267 Co266 2.216 . S
O267 C274 1.247 . S
O268 Co266 2.091 . S
O268 C274 1.261 . S
C269 O278 1.247 . S
C269 O279 1.272 . S
O270 Co266 2.004 . S
O270 C275 1.259 . S
Co271 O272 2.061 . S
Co271 O277 2.052 . S
Co271 O279 2.135 . S
O272 Co271 2.061 . S
O272 C275 1.235 . S
C273 O276 1.238 . S
C273 O277 1.241 . S
C274 O267 1.247 . S
C274 O268 1.261 . S
C275 O270 1.259 . S
C275 O272 1.235 . S
O276 Co266 2.021 . S
O276 C273 1.238 . S
O277 Co271 2.052 . S
O277 C273 1.241 . S
O278 Co266 2.137 . S
O278 C269 1.247 . S
O279 Co266 2.244 . S
O279 C269 1.272 . S
O279 Co271 2.135 . S
Co280 O281 2.216 . S
Co280 O282 2.091 . S
Co280 O284 2.004 . S
Co280 O290 2.021 . S
Co280 O292 2.137 . S
Co280 O293 2.244 . S
O281 Co280 2.216 . S
O281 C288 1.247 . S
O282 Co280 2.091 . S
O282 C288 1.261 . S
C283 O292 1.247 . S
C283 O293 1.272 . S
O284 Co280 2.004 . S
O284 C289 1.259 . S
Co285 O286 2.061 . S
Co285 O291 2.052 . S
Co285 O293 2.135 . S
O286 Co285 2.061 . S
O286 C289 1.235 . S
C287 O290 1.238 . S
C287 O291 1.241 . S
C288 O281 1.247 . S
C288 O282 1.261 . S
C289 O284 1.259 . S
C289 O286 1.235 . S
O290 Co280 2.021 . S
O290 C287 1.238 . S
O291 Co285 2.052 . S
O291 C287 1.241 . S
O292 Co280 2.137 . S
O292 C283 1.247 . S
O293 Co280 2.244 . S
O293 C283 1.272 . S
O293 Co285 2.135 . S
Co294 O295 2.216 . S
Co294 O296 2.091 . S
Co294 O298 2.004 . S
Co294 O304 2.021 . S
Co294 O306 2.137 . S
Co294 O307 2.244 . S
O295 Co294 2.216 . S
O295 C302 1.247 . S
O296 Co294 2.091 . S
O296 C302 1.261 . S
C297 O306 1.247 . S
C297 O307 1.272 . S
O298 Co294 2.004 . S
O298 C303 1.259 . S
Co299 O300 2.061 . S
Co299 O305 2.052 . S
Co299 O307 2.135 . S
O300 Co299 2.061 . S
O300 C303 1.235 . S
C301 O304 1.238 . S
C301 O305 1.241 . S
C302 O295 1.247 . S
C302 O296 1.261 . S
C303 O298 1.259 . S
C303 O300 1.235 . S
O304 Co294 2.021 . S
O304 C301 1.238 . S
O305 Co299 2.052 . S
O305 C301 1.241 . S
O306 Co294 2.137 . S
O306 C297 1.247 . S
O307 Co294 2.244 . S
O307 C297 1.272 . S
O307 Co299 2.135 . S
Co308 O309 2.216 . S
Co308 O310 2.091 . S
Co308 O312 2.004 . S
Co308 O318 2.021 . S
Co308 O320 2.137 . S
Co308 O321 2.244 . S
O309 Co308 2.216 . S
O309 C316 1.247 . S
O310 Co308 2.091 . S
O310 C316 1.261 . S
C311 O320 1.247 . S
C311 O321 1.272 . S
O312 Co308 2.004 . S
O312 C317 1.259 . S
Co313 O314 2.061 . S
Co313 O319 2.052 . S
Co313 O321 2.135 . S
O314 Co313 2.061 . S
O314 C317 1.235 . S
C315 O318 1.238 . S
C315 O319 1.241 . S
C316 O309 1.247 . S
C316 O310 1.261 . S
C317 O312 1.259 . S
C317 O314 1.235 . S
O318 Co308 2.021 . S
O318 C315 1.238 . S
O319 Co313 2.052 . S
O319 C315 1.241 . S
O320 Co308 2.137 . S
O320 C311 1.247 . S
O321 Co308 2.244 . S
O321 C311 1.272 . S
O321 Co313 2.135 . S
Co322 O323 2.216 . S
Co322 O324 2.091 . S
Co322 O326 2.004 . S
Co322 O332 2.021 . S
Co322 O334 2.137 . S
Co322 O335 2.244 . S
O323 Co322 2.216 . S
O323 C330 1.247 . S
O324 Co322 2.091 . S
O324 C330 1.261 . S
C325 O334 1.247 . S
C325 O335 1.272 . S
O326 Co322 2.004 . S
O326 C331 1.259 . S
Co327 O328 2.061 . S
Co327 O333 2.052 . S
Co327 O335 2.135 . S
O328 Co327 2.061 . S
O328 C331 1.235 . S
C329 O332 1.238 . S
C329 O333 1.241 . S
C330 O323 1.247 . S
C330 O324 1.261 . S
C331 O326 1.259 . S
C331 O328 1.235 . S
O332 Co322 2.021 . S
O332 C329 1.238 . S
O333 Co327 2.052 . S
O333 C329 1.241 . S
O334 Co322 2.137 . S
O334 C325 1.247 . S
O335 Co322 2.244 . S
O335 C325 1.272 . S
O335 Co327 2.135 . S
Co336 O337 2.216 . S
Co336 O338 2.091 . S
Co336 O340 2.004 . S
Co336 O346 2.021 . S
Co336 O348 2.137 . S
Co336 O349 2.244 . S
O337 Co336 2.216 . S
O337 C344 1.247 . S
O338 Co336 2.091 . S
O338 C344 1.261 . S
C339 O348 1.247 . S
C339 O349 1.272 . S
O340 Co336 2.004 . S
O340 C345 1.259 . S
Co341 O342 2.061 . S
Co341 O347 2.052 . S
Co341 O349 2.135 . S
O342 Co341 2.061 . S
O342 C345 1.235 . S
C343 O346 1.238 . S
C343 O347 1.241 . S
C344 O337 1.247 . S
C344 O338 1.261 . S
C345 O340 1.259 . S
C345 O342 1.235 . S
O346 Co336 2.021 . S
O346 C343 1.238 . S
O347 Co341 2.052 . S
O347 C343 1.241 . S
O348 Co336 2.137 . S
O348 C339 1.247 . S
O349 Co336 2.244 . S
O349 C339 1.272 . S
O349 Co341 2.135 . S
Co350 O351 2.216 . S
Co350 O352 2.091 . S
Co350 O354 2.004 . S
Co350 O360 2.021 . S
Co350 O362 2.137 . S
Co350 O363 2.244 . S
O351 Co350 2.216 . S
O351 C358 1.247 . S
O352 Co350 2.091 . S
O352 C358 1.261 . S
C353 O362 1.247 . S
C353 O363 1.272 . S
O354 Co350 2.004 . S
O354 C359 1.259 . S
Co355 O356 2.061 . S
Co355 O361 2.052 . S
Co355 O363 2.135 . S
O356 Co355 2.061 . S
O356 C359 1.235 . S
C357 O360 1.238 . S
C357 O361 1.241 . S
C358 O351 1.247 . S
C358 O352 1.261 . S
C359 O354 1.259 . S
C359 O356 1.235 . S
O360 Co350 2.021 . S
O360 C357 1.238 . S
O361 Co355 2.052 . S
O361 C357 1.241 . S
O362 Co350 2.137 . S
O362 C353 1.247 . S
O363 Co350 2.244 . S
O363 C353 1.272 . S
O363 Co355 2.135 . S
Co364 O365 2.216 . S
Co364 O366 2.091 . S
Co364 O368 2.004 . S
Co364 O374 2.021 . S
Co364 O376 2.137 . S
Co364 O377 2.244 . S
O365 Co364 2.216 . S
O365 C372 1.247 . S
O366 Co364 2.091 . S
O366 C372 1.261 . S
C367 O376 1.247 . S
C367 O377 1.272 . S
O368 Co364 2.004 . S
O368 C373 1.259 . S
Co369 O370 2.061 . S
Co369 O375 2.052 . S
Co369 O377 2.135 . S
O370 Co369 2.061 . S
O370 C373 1.235 . S
C371 O374 1.238 . S
C371 O375 1.241 . S
C372 O365 1.247 . S
C372 O366 1.261 . S
C373 O368 1.259 . S
C373 O370 1.235 . S
O374 Co364 2.021 . S
O374 C371 1.238 . S
O375 Co369 2.052 . S
O375 C371 1.241 . S
O376 Co364 2.137 . S
O376 C367 1.247 . S
O377 Co364 2.244 . S
O377 C367 1.272 . S
O377 Co369 2.135 . S
Co378 O379 2.216 . S
Co378 O380 2.091 . S
Co378 O382 2.004 . S
Co378 O388 2.021 . S
Co378 O390 2.137 . S
Co378 O391 2.244 . S
O379 Co378 2.216 . S
O379 C386 1.247 . S
O380 Co378 2.091 . S
O380 C386 1.261 . S
C381 O390 1.247 . S
C381 O391 1.272 . S
O382 Co378 2.004 . S
O382 C387 1.259 . S
Co383 O384 2.061 . S
Co383 O389 2.052 . S
Co383 O391 2.135 . S
O384 Co383 2.061 . S
O384 C387 1.235 . S
C385 O388 1.238 . S
C385 O389 1.241 . S
C386 O379 1.247 . S
C386 O380 1.261 . S
C387 O382 1.259 . S
C387 O384 1.235 . S
O388 Co378 2.021 . S
O388 C385 1.238 . S
O389 Co383 2.052 . S
O389 C385 1.241 . S
O390 Co378 2.137 . S
O390 C381 1.247 . S
O391 Co378 2.244 . S
O391 C381 1.272 . S
O391 Co383 2.135 . S
Co392 O393 2.216 . S
Co392 O394 2.091 . S
Co392 O396 2.004 . S
Co392 O402 2.021 . S
Co392 O404 2.137 . S
Co392 O405 2.244 . S
O393 Co392 2.216 . S
O393 C400 1.247 . S
O394 Co392 2.091 . S
O394 C400 1.261 . S
C395 O404 1.247 . S
C395 O405 1.272 . S
O396 Co392 2.004 . S
O396 C401 1.259 . S
Co397 O398 2.061 . S
Co397 O403 2.052 . S
Co397 O405 2.135 . S
O398 Co397 2.061 . S
O398 C401 1.235 . S
C399 O402 1.238 . S
C399 O403 1.241 . S
C400 O393 1.247 . S
C400 O394 1.261 . S
C401 O396 1.259 . S
C401 O398 1.235 . S
O402 Co392 2.021 . S
O402 C399 1.238 . S
O403 Co397 2.052 . S
O403 C399 1.241 . S
O404 Co392 2.137 . S
O404 C395 1.247 . S
O405 Co392 2.244 . S
O405 C395 1.272 . S
O405 Co397 2.135 . S
Co406 O407 2.216 . S
Co406 O408 2.091 . S
Co406 O410 2.004 . S
Co406 O416 2.021 . S
Co406 O418 2.137 . S
Co406 O419 2.244 . S
O407 Co406 2.216 . S
O407 C414 1.247 . S
O408 Co406 2.091 . S
O408 C414 1.261 . S
C409 O418 1.247 . S
C409 O419 1.272 . S
O410 Co406 2.004 . S
O410 C415 1.259 . S
Co411 O412 2.061 . S
Co411 O417 2.052 . S
Co411 O419 2.135 . S
O412 Co411 2.061 . S
O412 C415 1.235 . S
C413 O416 1.238 . S
C413 O417 1.241 . S
C414 O407 1.247 . S
C414 O408 1.261 . S
C415 O410 1.259 . S
C415 O412 1.235 . S
O416 Co406 2.021 . S
O416 C413 1.238 . S
O417 Co411 2.052 . S
O417 C413 1.241 . S
O418 Co406 2.137 . S
O418 C409 1.247 . S
O419 Co406 2.244 . S
O419 C409 1.272 . S
O419 Co411 2.135 . S
Co420 O421 2.216 . S
Co420 O422 2.091 . S
Co420 O424 2.004 . S
Co420 O430 2.021 . S
Co420 O432 2.137 . S
Co420 O433 2.244 . S
O421 Co420 2.216 . S
O421 C428 1.247 . S
O422 Co420 2.091 . S
O422 C428 1.261 . S
C423 O432 1.247 . S
C423 O433 1.272 . S
O424 Co420 2.004 . S
O424 C429 1.259 . S
Co425 O426 2.061 . S
Co425 O431 2.052 . S
Co425 O433 2.135 . S
O426 Co425 2.061 . S
O426 C429 1.235 . S
C427 O430 1.238 . S
C427 O431 1.241 . S
C428 O421 1.247 . S
C428 O422 1.261 . S
C429 O424 1.259 . S
C429 O426 1.235 . S
O430 Co420 2.021 . S
O430 C427 1.238 . S
O431 Co425 2.052 . S
O431 C427 1.241 . S
O432 Co420 2.137 . S
O432 C423 1.247 . S
O433 Co420 2.244 . S
O433 C423 1.272 . S
O433 Co425 2.135 . S
Co434 O435 2.216 . S
Co434 O436 2.091 . S
Co434 O438 2.004 . S
Co434 O444 2.021 . S
Co434 O446 2.137 . S
Co434 O447 2.244 . S
O435 Co434 2.216 . S
O435 C442 1.247 . S
O436 Co434 2.091 . S
O436 C442 1.261 . S
C437 O446 1.247 . S
C437 O447 1.272 . S
O438 Co434 2.004 . S
O438 C443 1.259 . S
Co439 O440 2.061 . S
Co439 O445 2.052 . S
Co439 O447 2.135 . S
O440 Co439 2.061 . S
O440 C443 1.235 . S
C441 O444 1.238 . S
C441 O445 1.241 . S
C442 O435 1.247 . S
C442 O436 1.261 . S
C443 O438 1.259 . S
C443 O440 1.235 . S
O444 Co434 2.021 . S
O444 C441 1.238 . S
O445 Co439 2.052 . S
O445 C441 1.241 . S
O446 Co434 2.137 . S
O446 C437 1.247 . S
O447 Co434 2.244 . S
O447 C437 1.272 . S
O447 Co439 2.135 . S
H448 C456 0.929 . S
H449 C458 0.930 . S
H450 C460 0.930 . S
H451 C463 0.929 . S
H452 C466 0.930 . S
H453 C468 0.960 . S
H454 C468 0.960 . S
H455 C468 0.960 . S
C456 H448 0.929 . S
C456 C457 1.377 . S
C456 C458 1.384 . S
C457 C456 1.377 . S
C457 C463 1.390 . S
C458 H449 0.930 . S
C458 C456 1.384 . S
C458 C459 1.372 . S
C459 C458 1.372 . S
C459 C460 1.400 . S
C459 C464 1.490 . S
C460 H450 0.930 . S
C460 C459 1.400 . S
C460 C463 1.386 . S
H461 C477 0.930 . S
H462 C478 0.931 . S
C463 H451 0.929 . S
C463 C457 1.390 . S
C463 C460 1.386 . S
C464 C459 1.490 . S
C464 C466 1.395 . S
C464 C467 1.403 . S
H465 C471 0.930 . S
C466 H452 0.930 . S
C466 C464 1.395 . S
C466 C469 1.403 . S
C467 C464 1.403 . S
C467 C468 1.524 . S
C467 C471 1.400 . S
C468 H453 0.960 . S
C468 H454 0.960 . S
C468 H455 0.960 . S
C468 C467 1.524 . S
C469 C466 1.403 . S
C469 C470 1.392 . S
C469 C473 1.495 . S
C470 C469 1.392 . S
C470 C471 1.385 . S
C470 C472 1.478 . S
C471 H465 0.930 . S
C471 C467 1.400 . S
C471 C470 1.385 . S
C472 C470 1.478 . S
C472 C474 1.381 . S
C472 C478 1.383 . S
C473 C469 1.495 . S
C473 H479 0.959 . S
C473 H480 0.961 . S
C473 H481 0.960 . S
C474 C472 1.381 . S
C474 C475 1.394 . S
C474 H482 0.930 . S
C475 C474 1.394 . S
C475 C476 1.383 . S
C475 H483 0.929 . S
C476 C475 1.383 . S
C476 C477 1.377 . S
C477 H461 0.930 . S
C477 C476 1.377 . S
C477 C478 1.379 . S
C478 H462 0.931 . S
C478 C472 1.383 . S
C478 C477 1.379 . S
H479 C473 0.959 . S
H480 C473 0.961 . S
H481 C473 0.960 . S
H482 C474 0.930 . S
H483 C475 0.929 . S
H484 C492 0.929 . S
H485 C494 0.930 . S
H486 C496 0.930 . S
H487 C499 0.929 . S
H488 C502 0.930 . S
H489 C504 0.960 . S
H490 C504 0.960 . S
H491 C504 0.960 . S
C492 H484 0.929 . S
C492 C493 1.377 . S
C492 C494 1.384 . S
C493 C492 1.377 . S
C493 C499 1.390 . S
C494 H485 0.930 . S
C494 C492 1.384 . S
C494 C495 1.372 . S
C495 C494 1.372 . S
C495 C496 1.400 . S
C495 C500 1.490 . S
C496 H486 0.930 . S
C496 C495 1.400 . S
C496 C499 1.386 . S
H497 C513 0.930 . S
H498 C514 0.931 . S
C499 H487 0.929 . S
C499 C493 1.390 . S
C499 C496 1.386 . S
C500 C495 1.490 . S
C500 C502 1.395 . S
C500 C503 1.403 . S
H501 C507 0.930 . S
C502 H488 0.930 . S
C502 C500 1.395 . S
C502 C505 1.403 . S
C503 C500 1.403 . S
C503 C504 1.524 . S
C503 C507 1.400 . S
C504 H489 0.960 . S
C504 H490 0.960 . S
C504 H491 0.960 . S
C504 C503 1.524 . S
C505 C502 1.403 . S
C505 C506 1.392 . S
C505 C509 1.495 . S
C506 C505 1.392 . S
C506 C507 1.385 . S
C506 C508 1.478 . S
C507 H501 0.930 . S
C507 C503 1.400 . S
C507 C506 1.385 . S
C508 C506 1.478 . S
C508 C510 1.381 . S
C508 C514 1.383 . S
C509 C505 1.495 . S
C509 H515 0.959 . S
C509 H516 0.961 . S
C509 H517 0.960 . S
C510 C508 1.381 . S
C510 C511 1.394 . S
C510 H518 0.930 . S
C511 C510 1.394 . S
C511 C512 1.383 . S
C511 H519 0.929 . S
C512 C511 1.383 . S
C512 C513 1.377 . S
C513 H497 0.930 . S
C513 C512 1.377 . S
C513 C514 1.379 . S
C514 H498 0.931 . S
C514 C508 1.383 . S
C514 C513 1.379 . S
H515 C509 0.959 . S
H516 C509 0.961 . S
H517 C509 0.960 . S
H518 C510 0.930 . S
H519 C511 0.929 . S
H520 C528 0.929 . S
H521 C530 0.930 . S
H522 C532 0.930 . S
H523 C535 0.929 . S
H524 C538 0.930 . S
H525 C540 0.960 . S
H526 C540 0.960 . S
H527 C540 0.960 . S
C528 H520 0.929 . S
C528 C529 1.377 . S
C528 C530 1.384 . S
C529 C528 1.377 . S
C529 C535 1.390 . S
C530 H521 0.930 . S
C530 C528 1.384 . S
C530 C531 1.372 . S
C531 C530 1.372 . S
C531 C532 1.400 . S
C531 C536 1.490 . S
C532 H522 0.930 . S
C532 C531 1.400 . S
C532 C535 1.386 . S
H533 C549 0.930 . S
H534 C550 0.931 . S
C535 H523 0.929 . S
C535 C529 1.390 . S
C535 C532 1.386 . S
C536 C531 1.490 . S
C536 C538 1.395 . S
C536 C539 1.403 . S
H537 C543 0.930 . S
C538 H524 0.930 . S
C538 C536 1.395 . S
C538 C541 1.403 . S
C539 C536 1.403 . S
C539 C540 1.524 . S
C539 C543 1.400 . S
C540 H525 0.960 . S
C540 H526 0.960 . S
C540 H527 0.960 . S
C540 C539 1.524 . S
C541 C538 1.403 . S
C541 C542 1.392 . S
C541 C545 1.495 . S
C542 C541 1.392 . S
C542 C543 1.385 . S
C542 C544 1.478 . S
C543 H537 0.930 . S
C543 C539 1.400 . S
C543 C542 1.385 . S
C544 C542 1.478 . S
C544 C546 1.381 . S
C544 C550 1.383 . S
C545 C541 1.495 . S
C545 H551 0.959 . S
C545 H552 0.961 . S
C545 H553 0.960 . S
C546 C544 1.381 . S
C546 C547 1.394 . S
C546 H554 0.930 . S
C547 C546 1.394 . S
C547 C548 1.383 . S
C547 H555 0.929 . S
C548 C547 1.383 . S
C548 C549 1.377 . S
C549 H533 0.930 . S
C549 C548 1.377 . S
C549 C550 1.379 . S
C550 H534 0.931 . S
C550 C544 1.383 . S
C550 C549 1.379 . S
H551 C545 0.959 . S
H552 C545 0.961 . S
H553 C545 0.960 . S
H554 C546 0.930 . S
H555 C547 0.929 . S
H556 C564 0.929 . S
H557 C566 0.930 . S
H558 C568 0.930 . S
H559 C571 0.929 . S
H560 C574 0.930 . S
H561 C576 0.960 . S
H562 C576 0.960 . S
H563 C576 0.960 . S
C564 H556 0.929 . S
C564 C565 1.377 . S
C564 C566 1.384 . S
C565 C564 1.377 . S
C565 C571 1.390 . S
C566 H557 0.930 . S
C566 C564 1.384 . S
C566 C567 1.372 . S
C567 C566 1.372 . S
C567 C568 1.400 . S
C567 C572 1.490 . S
C568 H558 0.930 . S
C568 C567 1.400 . S
C568 C571 1.386 . S
H569 C585 0.930 . S
H570 C586 0.931 . S
C571 H559 0.929 . S
C571 C565 1.390 . S
C571 C568 1.386 . S
C572 C567 1.490 . S
C572 C574 1.395 . S
C572 C575 1.403 . S
H573 C579 0.930 . S
C574 H560 0.930 . S
C574 C572 1.395 . S
C574 C577 1.403 . S
C575 C572 1.403 . S
C575 C576 1.524 . S
C575 C579 1.400 . S
C576 H561 0.960 . S
C576 H562 0.960 . S
C576 H563 0.960 . S
C576 C575 1.524 . S
C577 C574 1.403 . S
C577 C578 1.392 . S
C577 C581 1.495 . S
C578 C577 1.392 . S
C578 C579 1.385 . S
C578 C580 1.478 . S
C579 H573 0.930 . S
C579 C575 1.400 . S
C579 C578 1.385 . S
C580 C578 1.478 . S
C580 C582 1.381 . S
C580 C586 1.383 . S
C581 C577 1.495 . S
C581 H587 0.959 . S
C581 H588 0.961 . S
C581 H589 0.960 . S
C582 C580 1.381 . S
C582 C583 1.394 . S
C582 H590 0.930 . S
C583 C582 1.394 . S
C583 C584 1.383 . S
C583 H591 0.929 . S
C584 C583 1.383 . S
C584 C585 1.377 . S
C585 H569 0.930 . S
C585 C584 1.377 . S
C585 C586 1.379 . S
C586 H570 0.931 . S
C586 C580 1.383 . S
C586 C585 1.379 . S
H587 C581 0.959 . S
H588 C581 0.961 . S
H589 C581 0.960 . S
H590 C582 0.930 . S
H591 C583 0.929 . S
H592 C600 0.929 . S
H593 C602 0.930 . S
H594 C604 0.930 . S
H595 C607 0.929 . S
H596 C610 0.930 . S
H597 C612 0.960 . S
H598 C612 0.960 . S
H599 C612 0.960 . S
C600 H592 0.929 . S
C600 C601 1.377 . S
C600 C602 1.384 . S
C601 C600 1.377 . S
C601 C607 1.390 . S
C602 H593 0.930 . S
C602 C600 1.384 . S
C602 C603 1.372 . S
C603 C602 1.372 . S
C603 C604 1.400 . S
C603 C608 1.490 . S
C604 H594 0.930 . S
C604 C603 1.400 . S
C604 C607 1.386 . S
H605 C621 0.930 . S
H606 C622 0.931 . S
C607 H595 0.929 . S
C607 C601 1.390 . S
C607 C604 1.386 . S
C608 C603 1.490 . S
C608 C610 1.395 . S
C608 C611 1.403 . S
H609 C615 0.930 . S
C610 H596 0.930 . S
C610 C608 1.395 . S
C610 C613 1.403 . S
C611 C608 1.403 . S
C611 C612 1.524 . S
C611 C615 1.400 . S
C612 H597 0.960 . S
C612 H598 0.960 . S
C612 H599 0.960 . S
C612 C611 1.524 . S
C613 C610 1.403 . S
C613 C614 1.392 . S
C613 C617 1.495 . S
C614 C613 1.392 . S
C614 C615 1.385 . S
C614 C616 1.478 . S
C615 H609 0.930 . S
C615 C611 1.400 . S
C615 C614 1.385 . S
C616 C614 1.478 . S
C616 C618 1.381 . S
C616 C622 1.383 . S
C617 C613 1.495 . S
C617 H623 0.959 . S
C617 H624 0.961 . S
C617 H625 0.960 . S
C618 C616 1.381 . S
C618 C619 1.394 . S
C618 H626 0.930 . S
C619 C618 1.394 . S
C619 C620 1.383 . S
C619 H627 0.929 . S
C620 C619 1.383 . S
C620 C621 1.377 . S
C621 H605 0.930 . S
C621 C620 1.377 . S
C621 C622 1.379 . S
C622 H606 0.931 . S
C622 C616 1.383 . S
C622 C621 1.379 . S
H623 C617 0.959 . S
H624 C617 0.961 . S
H625 C617 0.960 . S
H626 C618 0.930 . S
H627 C619 0.929 . S
H628 C636 0.929 . S
H629 C638 0.930 . S
H630 C640 0.930 . S
H631 C643 0.929 . S
H632 C646 0.930 . S
H633 C648 0.960 . S
H634 C648 0.960 . S
H635 C648 0.960 . S
C636 H628 0.929 . S
C636 C637 1.377 . S
C636 C638 1.384 . S
C637 C636 1.377 . S
C637 C643 1.390 . S
C638 H629 0.930 . S
C638 C636 1.384 . S
C638 C639 1.372 . S
C639 C638 1.372 . S
C639 C640 1.400 . S
C639 C644 1.490 . S
C640 H630 0.930 . S
C640 C639 1.400 . S
C640 C643 1.386 . S
H641 C657 0.930 . S
H642 C658 0.931 . S
C643 H631 0.929 . S
C643 C637 1.390 . S
C643 C640 1.386 . S
C644 C639 1.490 . S
C644 C646 1.395 . S
C644 C647 1.403 . S
H645 C651 0.930 . S
C646 H632 0.930 . S
C646 C644 1.395 . S
C646 C649 1.403 . S
C647 C644 1.403 . S
C647 C648 1.524 . S
C647 C651 1.400 . S
C648 H633 0.960 . S
C648 H634 0.960 . S
C648 H635 0.960 . S
C648 C647 1.524 . S
C649 C646 1.403 . S
C649 C650 1.392 . S
C649 C653 1.495 . S
C650 C649 1.392 . S
C650 C651 1.385 . S
C650 C652 1.478 . S
C651 H645 0.930 . S
C651 C647 1.400 . S
C651 C650 1.385 . S
C652 C650 1.478 . S
C652 C654 1.381 . S
C652 C658 1.383 . S
C653 C649 1.495 . S
C653 H659 0.959 . S
C653 H660 0.961 . S
C653 H661 0.960 . S
C654 C652 1.381 . S
C654 C655 1.394 . S
C654 H662 0.930 . S
C655 C654 1.394 . S
C655 C656 1.383 . S
C655 H663 0.929 . S
C656 C655 1.383 . S
C656 C657 1.377 . S
C657 H641 0.930 . S
C657 C656 1.377 . S
C657 C658 1.379 . S
C658 H642 0.931 . S
C658 C652 1.383 . S
C658 C657 1.379 . S
H659 C653 0.959 . S
H660 C653 0.961 . S
H661 C653 0.960 . S
H662 C654 0.930 . S
H663 C655 0.929 . S
H664 C672 0.929 . S
H665 C674 0.930 . S
H666 C676 0.930 . S
H667 C679 0.929 . S
H668 C682 0.930 . S
H669 C684 0.960 . S
H670 C684 0.960 . S
H671 C684 0.960 . S
C672 H664 0.929 . S
C672 C673 1.377 . S
C672 C674 1.384 . S
C673 C672 1.377 . S
C673 C679 1.390 . S
C674 H665 0.930 . S
C674 C672 1.384 . S
C674 C675 1.372 . S
C675 C674 1.372 . S
C675 C676 1.400 . S
C675 C680 1.490 . S
C676 H666 0.930 . S
C676 C675 1.400 . S
C676 C679 1.386 . S
H677 C693 0.930 . S
H678 C694 0.931 . S
C679 H667 0.929 . S
C679 C673 1.390 . S
C679 C676 1.386 . S
C680 C675 1.490 . S
C680 C682 1.395 . S
C680 C683 1.403 . S
H681 C687 0.930 . S
C682 H668 0.930 . S
C682 C680 1.395 . S
C682 C685 1.403 . S
C683 C680 1.403 . S
C683 C684 1.524 . S
C683 C687 1.400 . S
C684 H669 0.960 . S
C684 H670 0.960 . S
C684 H671 0.960 . S
C684 C683 1.524 . S
C685 C682 1.403 . S
C685 C686 1.392 . S
C685 C689 1.495 . S
C686 C685 1.392 . S
C686 C687 1.385 . S
C686 C688 1.478 . S
C687 H681 0.930 . S
C687 C683 1.400 . S
C687 C686 1.385 . S
C688 C686 1.478 . S
C688 C690 1.381 . S
C688 C694 1.383 . S
C689 C685 1.495 . S
C689 H695 0.959 . S
C689 H696 0.961 . S
C689 H697 0.960 . S
C690 C688 1.381 . S
C690 C691 1.394 . S
C690 H698 0.930 . S
C691 C690 1.394 . S
C691 C692 1.383 . S
C691 H699 0.929 . S
C692 C691 1.383 . S
C692 C693 1.377 . S
C693 H677 0.930 . S
C693 C692 1.377 . S
C693 C694 1.379 . S
C694 H678 0.931 . S
C694 C688 1.383 . S
C694 C693 1.379 . S
H695 C689 0.959 . S
H696 C689 0.961 . S
H697 C689 0.960 . S
H698 C690 0.930 . S
H699 C691 0.929 . S
H700 C708 0.929 . S
H701 C710 0.930 . S
H702 C712 0.930 . S
H703 C715 0.929 . S
H704 C718 0.930 . S
H705 C720 0.960 . S
H706 C720 0.960 . S
H707 C720 0.960 . S
C708 H700 0.929 . S
C708 C709 1.377 . S
C708 C710 1.384 . S
C709 C708 1.377 . S
C709 C715 1.390 . S
C710 H701 0.930 . S
C710 C708 1.384 . S
C710 C711 1.372 . S
C711 C710 1.372 . S
C711 C712 1.400 . S
C711 C716 1.490 . S
C712 H702 0.930 . S
C712 C711 1.400 . S
C712 C715 1.386 . S
H713 C729 0.930 . S
H714 C730 0.931 . S
C715 H703 0.929 . S
C715 C709 1.390 . S
C715 C712 1.386 . S
C716 C711 1.490 . S
C716 C718 1.395 . S
C716 C719 1.403 . S
H717 C723 0.930 . S
C718 H704 0.930 . S
C718 C716 1.395 . S
C718 C721 1.403 . S
C719 C716 1.403 . S
C719 C720 1.524 . S
C719 C723 1.400 . S
C720 H705 0.960 . S
C720 H706 0.960 . S
C720 H707 0.960 . S
C720 C719 1.524 . S
C721 C718 1.403 . S
C721 C722 1.392 . S
C721 C725 1.495 . S
C722 C721 1.392 . S
C722 C723 1.385 . S
C722 C724 1.478 . S
C723 H717 0.930 . S
C723 C719 1.400 . S
C723 C722 1.385 . S
C724 C722 1.478 . S
C724 C726 1.381 . S
C724 C730 1.383 . S
C725 C721 1.495 . S
C725 H731 0.959 . S
C725 H732 0.961 . S
C725 H733 0.960 . S
C726 C724 1.381 . S
C726 C727 1.394 . S
C726 H734 0.930 . S
C727 C726 1.394 . S
C727 C728 1.383 . S
C727 H735 0.929 . S
C728 C727 1.383 . S
C728 C729 1.377 . S
C729 H713 0.930 . S
C729 C728 1.377 . S
C729 C730 1.379 . S
C730 H714 0.931 . S
C730 C724 1.383 . S
C730 C729 1.379 . S
H731 C725 0.959 . S
H732 C725 0.961 . S
H733 C725 0.960 . S
H734 C726 0.930 . S
H735 C727 0.929 . S
H736 C744 0.929 . S
H737 C746 0.930 . S
H738 C748 0.930 . S
H739 C751 0.929 . S
H740 C754 0.930 . S
H741 C756 0.960 . S
H742 C756 0.960 . S
H743 C756 0.960 . S
C744 H736 0.929 . S
C744 C745 1.377 . S
C744 C746 1.384 . S
C745 C744 1.377 . S
C745 C751 1.390 . S
C746 H737 0.930 . S
C746 C744 1.384 . S
C746 C747 1.372 . S
C747 C746 1.372 . S
C747 C748 1.400 . S
C747 C752 1.490 . S
C748 H738 0.930 . S
C748 C747 1.400 . S
C748 C751 1.386 . S
H749 C765 0.930 . S
H750 C766 0.931 . S
C751 H739 0.929 . S
C751 C745 1.390 . S
C751 C748 1.386 . S
C752 C747 1.490 . S
C752 C754 1.395 . S
C752 C755 1.403 . S
H753 C759 0.930 . S
C754 H740 0.930 . S
C754 C752 1.395 . S
C754 C757 1.403 . S
C755 C752 1.403 . S
C755 C756 1.524 . S
C755 C759 1.400 . S
C756 H741 0.960 . S
C756 H742 0.960 . S
C756 H743 0.960 . S
C756 C755 1.524 . S
C757 C754 1.403 . S
C757 C758 1.392 . S
C757 C761 1.495 . S
C758 C757 1.392 . S
C758 C759 1.385 . S
C758 C760 1.478 . S
C759 H753 0.930 . S
C759 C755 1.400 . S
C759 C758 1.385 . S
C760 C758 1.478 . S
C760 C762 1.381 . S
C760 C766 1.383 . S
C761 C757 1.495 . S
C761 H767 0.959 . S
C761 H768 0.961 . S
C761 H769 0.960 . S
C762 C760 1.381 . S
C762 C763 1.394 . S
C762 H770 0.930 . S
C763 C762 1.394 . S
C763 C764 1.383 . S
C763 H771 0.929 . S
C764 C763 1.383 . S
C764 C765 1.377 . S
C765 H749 0.930 . S
C765 C764 1.377 . S
C765 C766 1.379 . S
C766 H750 0.931 . S
C766 C760 1.383 . S
C766 C765 1.379 . S
H767 C761 0.959 . S
H768 C761 0.961 . S
H769 C761 0.960 . S
H770 C762 0.930 . S
H771 C763 0.929 . S
H772 C780 0.929 . S
H773 C782 0.930 . S
H774 C784 0.930 . S
H775 C787 0.929 . S
H776 C790 0.930 . S
H777 C792 0.960 . S
H778 C792 0.960 . S
H779 C792 0.960 . S
C780 H772 0.929 . S
C780 C781 1.377 . S
C780 C782 1.384 . S
C781 C780 1.377 . S
C781 C787 1.390 . S
C782 H773 0.930 . S
C782 C780 1.384 . S
C782 C783 1.372 . S
C783 C782 1.372 . S
C783 C784 1.400 . S
C783 C788 1.490 . S
C784 H774 0.930 . S
C784 C783 1.400 . S
C784 C787 1.386 . S
H785 C801 0.930 . S
H786 C802 0.931 . S
C787 H775 0.929 . S
C787 C781 1.390 . S
C787 C784 1.386 . S
C788 C783 1.490 . S
C788 C790 1.395 . S
C788 C791 1.403 . S
H789 C795 0.930 . S
C790 H776 0.930 . S
C790 C788 1.395 . S
C790 C793 1.403 . S
C791 C788 1.403 . S
C791 C792 1.524 . S
C791 C795 1.400 . S
C792 H777 0.960 . S
C792 H778 0.960 . S
C792 H779 0.960 . S
C792 C791 1.524 . S
C793 C790 1.403 . S
C793 C794 1.392 . S
C793 C797 1.495 . S
C794 C793 1.392 . S
C794 C795 1.385 . S
C794 C796 1.478 . S
C795 H789 0.930 . S
C795 C791 1.400 . S
C795 C794 1.385 . S
C796 C794 1.478 . S
C796 C798 1.381 . S
C796 C802 1.383 . S
C797 C793 1.495 . S
C797 H803 0.959 . S
C797 H804 0.961 . S
C797 H805 0.960 . S
C798 C796 1.381 . S
C798 C799 1.394 . S
C798 H806 0.930 . S
C799 C798 1.394 . S
C799 C800 1.383 . S
C799 H807 0.929 . S
C800 C799 1.383 . S
C800 C801 1.377 . S
C801 H785 0.930 . S
C801 C800 1.377 . S
C801 C802 1.379 . S
C802 H786 0.931 . S
C802 C796 1.383 . S
C802 C801 1.379 . S
H803 C797 0.959 . S
H804 C797 0.961 . S
H805 C797 0.960 . S
H806 C798 0.930 . S
H807 C799 0.929 . S
H808 C816 0.929 . S
H809 C818 0.930 . S
H810 C820 0.930 . S
H811 C823 0.929 . S
H812 C826 0.930 . S
H813 C828 0.960 . S
H814 C828 0.960 . S
H815 C828 0.960 . S
C816 H808 0.929 . S
C816 C817 1.377 . S
C816 C818 1.384 . S
C817 C816 1.377 . S
C817 C823 1.390 . S
C818 H809 0.930 . S
C818 C816 1.384 . S
C818 C819 1.372 . S
C819 C818 1.372 . S
C819 C820 1.400 . S
C819 C824 1.490 . S
C820 H810 0.930 . S
C820 C819 1.400 . S
C820 C823 1.386 . S
H821 C837 0.930 . S
H822 C838 0.931 . S
C823 H811 0.929 . S
C823 C817 1.390 . S
C823 C820 1.386 . S
C824 C819 1.490 . S
C824 C826 1.395 . S
C824 C827 1.403 . S
H825 C831 0.930 . S
C826 H812 0.930 . S
C826 C824 1.395 . S
C826 C829 1.403 . S
C827 C824 1.403 . S
C827 C828 1.524 . S
C827 C831 1.400 . S
C828 H813 0.960 . S
C828 H814 0.960 . S
C828 H815 0.960 . S
C828 C827 1.524 . S
C829 C826 1.403 . S
C829 C830 1.392 . S
C829 C833 1.495 . S
C830 C829 1.392 . S
C830 C831 1.385 . S
C830 C832 1.478 . S
C831 H825 0.930 . S
C831 C827 1.400 . S
C831 C830 1.385 . S
C832 C830 1.478 . S
C832 C834 1.381 . S
C832 C838 1.383 . S
C833 C829 1.495 . S
C833 H839 0.959 . S
C833 H840 0.961 . S
C833 H841 0.960 . S
C834 C832 1.381 . S
C834 C835 1.394 . S
C834 H842 0.930 . S
C835 C834 1.394 . S
C835 C836 1.383 . S
C835 H843 0.929 . S
C836 C835 1.383 . S
C836 C837 1.377 . S
C837 H821 0.930 . S
C837 C836 1.377 . S
C837 C838 1.379 . S
C838 H822 0.931 . S
C838 C832 1.383 . S
C838 C837 1.379 . S
H839 C833 0.959 . S
H840 C833 0.961 . S
H841 C833 0.960 . S
H842 C834 0.930 . S
H843 C835 0.929 . S
H844 C852 0.929 . S
H845 C854 0.930 . S
H846 C856 0.930 . S
H847 C859 0.929 . S
H848 C862 0.930 . S
H849 C864 0.960 . S
H850 C864 0.960 . S
H851 C864 0.960 . S
C852 H844 0.929 . S
C852 C853 1.377 . S
C852 C854 1.384 . S
C853 C852 1.377 . S
C853 C859 1.390 . S
C854 H845 0.930 . S
C854 C852 1.384 . S
C854 C855 1.372 . S
C855 C854 1.372 . S
C855 C856 1.400 . S
C855 C860 1.490 . S
C856 H846 0.930 . S
C856 C855 1.400 . S
C856 C859 1.386 . S
H857 C873 0.930 . S
H858 C874 0.931 . S
C859 H847 0.929 . S
C859 C853 1.390 . S
C859 C856 1.386 . S
C860 C855 1.490 . S
C860 C862 1.395 . S
C860 C863 1.403 . S
H861 C867 0.930 . S
C862 H848 0.930 . S
C862 C860 1.395 . S
C862 C865 1.403 . S
C863 C860 1.403 . S
C863 C864 1.524 . S
C863 C867 1.400 . S
C864 H849 0.960 . S
C864 H850 0.960 . S
C864 H851 0.960 . S
C864 C863 1.524 . S
C865 C862 1.403 . S
C865 C866 1.392 . S
C865 C869 1.495 . S
C866 C865 1.392 . S
C866 C867 1.385 . S
C866 C868 1.478 . S
C867 H861 0.930 . S
C867 C863 1.400 . S
C867 C866 1.385 . S
C868 C866 1.478 . S
C868 C870 1.381 . S
C868 C874 1.383 . S
C869 C865 1.495 . S
C869 H875 0.959 . S
C869 H876 0.961 . S
C869 H877 0.960 . S
C870 C868 1.381 . S
C870 C871 1.394 . S
C870 H878 0.930 . S
C871 C870 1.394 . S
C871 C872 1.383 . S
C871 H879 0.929 . S
C872 C871 1.383 . S
C872 C873 1.377 . S
C873 H857 0.930 . S
C873 C872 1.377 . S
C873 C874 1.379 . S
C874 H858 0.931 . S
C874 C868 1.383 . S
C874 C873 1.379 . S
H875 C869 0.959 . S
H876 C869 0.961 . S
H877 C869 0.960 . S
H878 C870 0.930 . S
H879 C871 0.929 . S
H880 C888 0.929 . S
H881 C890 0.930 . S
H882 C892 0.930 . S
H883 C895 0.929 . S
H884 C898 0.930 . S
H885 C900 0.960 . S
H886 C900 0.960 . S
H887 C900 0.960 . S
C888 H880 0.929 . S
C888 C889 1.377 . S
C888 C890 1.384 . S
C889 C888 1.377 . S
C889 C895 1.390 . S
C890 H881 0.930 . S
C890 C888 1.384 . S
C890 C891 1.372 . S
C891 C890 1.372 . S
C891 C892 1.400 . S
C891 C896 1.490 . S
C892 H882 0.930 . S
C892 C891 1.400 . S
C892 C895 1.386 . S
H893 C909 0.930 . S
H894 C910 0.931 . S
C895 H883 0.929 . S
C895 C889 1.390 . S
C895 C892 1.386 . S
C896 C891 1.490 . S
C896 C898 1.395 . S
C896 C899 1.403 . S
H897 C903 0.930 . S
C898 H884 0.930 . S
C898 C896 1.395 . S
C898 C901 1.403 . S
C899 C896 1.403 . S
C899 C900 1.524 . S
C899 C903 1.400 . S
C900 H885 0.960 . S
C900 H886 0.960 . S
C900 H887 0.960 . S
C900 C899 1.524 . S
C901 C898 1.403 . S
C901 C902 1.392 . S
C901 C905 1.495 . S
C902 C901 1.392 . S
C902 C903 1.385 . S
C902 C904 1.478 . S
C903 H897 0.930 . S
C903 C899 1.400 . S
C903 C902 1.385 . S
C904 C902 1.478 . S
C904 C906 1.381 . S
C904 C910 1.383 . S
C905 C901 1.495 . S
C905 H911 0.959 . S
C905 H912 0.961 . S
C905 H913 0.960 . S
C906 C904 1.381 . S
C906 C907 1.394 . S
C906 H914 0.930 . S
C907 C906 1.394 . S
C907 C908 1.383 . S
C907 H915 0.929 . S
C908 C907 1.383 . S
C908 C909 1.377 . S
C909 H893 0.930 . S
C909 C908 1.377 . S
C909 C910 1.379 . S
C910 H894 0.931 . S
C910 C904 1.383 . S
C910 C909 1.379 . S
H911 C905 0.959 . S
H912 C905 0.961 . S
H913 C905 0.960 . S
H914 C906 0.930 . S
H915 C907 0.929 . S
H916 C924 0.929 . S
H917 C926 0.930 . S
H918 C928 0.930 . S
H919 C931 0.929 . S
H920 C934 0.930 . S
H921 C936 0.960 . S
H922 C936 0.960 . S
H923 C936 0.960 . S
C924 H916 0.929 . S
C924 C925 1.377 . S
C924 C926 1.384 . S
C925 C924 1.377 . S
C925 C931 1.390 . S
C926 H917 0.930 . S
C926 C924 1.384 . S
C926 C927 1.372 . S
C927 C926 1.372 . S
C927 C928 1.400 . S
C927 C932 1.490 . S
C928 H918 0.930 . S
C928 C927 1.400 . S
C928 C931 1.386 . S
H929 C945 0.930 . S
H930 C946 0.931 . S
C931 H919 0.929 . S
C931 C925 1.390 . S
C931 C928 1.386 . S
C932 C927 1.490 . S
C932 C934 1.395 . S
C932 C935 1.403 . S
H933 C939 0.930 . S
C934 H920 0.930 . S
C934 C932 1.395 . S
C934 C937 1.403 . S
C935 C932 1.403 . S
C935 C936 1.524 . S
C935 C939 1.400 . S
C936 H921 0.960 . S
C936 H922 0.960 . S
C936 H923 0.960 . S
C936 C935 1.524 . S
C937 C934 1.403 . S
C937 C938 1.392 . S
C937 C941 1.495 . S
C938 C937 1.392 . S
C938 C939 1.385 . S
C938 C940 1.478 . S
C939 H933 0.930 . S
C939 C935 1.400 . S
C939 C938 1.385 . S
C940 C938 1.478 . S
C940 C942 1.381 . S
C940 C946 1.383 . S
C941 C937 1.495 . S
C941 H947 0.959 . S
C941 H948 0.961 . S
C941 H949 0.960 . S
C942 C940 1.381 . S
C942 C943 1.394 . S
C942 H950 0.930 . S
C943 C942 1.394 . S
C943 C944 1.383 . S
C943 H951 0.929 . S
C944 C943 1.383 . S
C944 C945 1.377 . S
C945 H929 0.930 . S
C945 C944 1.377 . S
C945 C946 1.379 . S
C946 H930 0.931 . S
C946 C940 1.383 . S
C946 C945 1.379 . S
H947 C941 0.959 . S
H948 C941 0.961 . S
H949 C941 0.960 . S
H950 C942 0.930 . S
H951 C943 0.929 . S
H952 C960 0.929 . S
H953 C962 0.930 . S
H954 C964 0.930 . S
H955 C967 0.929 . S
H956 C970 0.930 . S
H957 C972 0.960 . S
H958 C972 0.960 . S
H959 C972 0.960 . S
C960 H952 0.929 . S
C960 C961 1.377 . S
C960 C962 1.384 . S
C961 C960 1.377 . S
C961 C967 1.390 . S
C962 H953 0.930 . S
C962 C960 1.384 . S
C962 C963 1.372 . S
C963 C962 1.372 . S
C963 C964 1.400 . S
C963 C968 1.490 . S
C964 H954 0.930 . S
C964 C963 1.400 . S
C964 C967 1.386 . S
H965 C981 0.930 . S
H966 C982 0.931 . S
C967 H955 0.929 . S
C967 C961 1.390 . S
C967 C964 1.386 . S
C968 C963 1.490 . S
C968 C970 1.395 . S
C968 C971 1.403 . S
H969 C975 0.930 . S
C970 H956 0.930 . S
C970 C968 1.395 . S
C970 C973 1.403 . S
C971 C968 1.403 . S
C971 C972 1.524 . S
C971 C975 1.400 . S
C972 H957 0.960 . S
C972 H958 0.960 . S
C972 H959 0.960 . S
C972 C971 1.524 . S
C973 C970 1.403 . S
C973 C974 1.392 . S
C973 C977 1.495 . S
C974 C973 1.392 . S
C974 C975 1.385 . S
C974 C976 1.478 . S
C975 H969 0.930 . S
C975 C971 1.400 . S
C975 C974 1.385 . S
C976 C974 1.478 . S
C976 C978 1.381 . S
C976 C982 1.383 . S
C977 C973 1.495 . S
C977 H983 0.959 . S
C977 H984 0.961 . S
C977 H985 0.960 . S
C978 C976 1.381 . S
C978 C979 1.394 . S
C978 H986 0.930 . S
C979 C978 1.394 . S
C979 C980 1.383 . S
C979 H987 0.929 . S
C980 C979 1.383 . S
C980 C981 1.377 . S
C981 H965 0.930 . S
C981 C980 1.377 . S
C981 C982 1.379 . S
C982 H966 0.931 . S
C982 C976 1.383 . S
C982 C981 1.379 . S
H983 C977 0.959 . S
H984 C977 0.961 . S
H985 C977 0.960 . S
H986 C978 0.930 . S
H987 C979 0.929 . S
H988 C996 0.929 . S
H989 C998 0.930 . S
H990 C1000 0.930 . S
H991 C1003 0.929 . S
H992 C1006 0.930 . S
H993 C1008 0.960 . S
H994 C1008 0.960 . S
H995 C1008 0.960 . S
C996 H988 0.929 . S
C996 C997 1.377 . S
C996 C998 1.384 . S
C997 C996 1.377 . S
C997 C1003 1.390 . S
C998 H989 0.930 . S
C998 C996 1.384 . S
C998 C999 1.372 . S
C999 C998 1.372 . S
C999 C1000 1.400 . S
C999 C1004 1.490 . S
C1000 H990 0.930 . S
C1000 C999 1.400 . S
C1000 C1003 1.386 . S
H1001 C1017 0.930 . S
H1002 C1018 0.931 . S
C1003 H991 0.929 . S
C1003 C997 1.390 . S
C1003 C1000 1.386 . S
C1004 C999 1.490 . S
C1004 C1006 1.395 . S
C1004 C1007 1.403 . S
H1005 C1011 0.930 . S
C1006 H992 0.930 . S
C1006 C1004 1.395 . S
C1006 C1009 1.403 . S
C1007 C1004 1.403 . S
C1007 C1008 1.524 . S
C1007 C1011 1.400 . S
C1008 H993 0.960 . S
C1008 H994 0.960 . S
C1008 H995 0.960 . S
C1008 C1007 1.524 . S
C1009 C1006 1.403 . S
C1009 C1010 1.392 . S
C1009 C1013 1.495 . S
C1010 C1009 1.392 . S
C1010 C1011 1.385 . S
C1010 C1012 1.478 . S
C1011 H1005 0.930 . S
C1011 C1007 1.400 . S
C1011 C1010 1.385 . S
C1012 C1010 1.478 . S
C1012 C1014 1.381 . S
C1012 C1018 1.383 . S
C1013 C1009 1.495 . S
C1013 H1019 0.959 . S
C1013 H1020 0.961 . S
C1013 H1021 0.960 . S
C1014 C1012 1.381 . S
C1014 C1015 1.394 . S
C1014 H1022 0.930 . S
C1015 C1014 1.394 . S
C1015 C1016 1.383 . S
C1015 H1023 0.929 . S
C1016 C1015 1.383 . S
C1016 C1017 1.377 . S
C1017 H1001 0.930 . S
C1017 C1016 1.377 . S
C1017 C1018 1.379 . S
C1018 H1002 0.931 . S
C1018 C1012 1.383 . S
C1018 C1017 1.379 . S
H1019 C1013 0.959 . S
H1020 C1013 0.961 . S
H1021 C1013 0.960 . S
H1022 C1014 0.930 . S
H1023 C1015 0.929 . S
H1024 C1032 0.929 . S
H1025 C1034 0.930 . S
H1026 C1036 0.930 . S
H1027 C1039 0.929 . S
H1028 C1042 0.930 . S
H1029 C1044 0.960 . S
H1030 C1044 0.960 . S
H1031 C1044 0.960 . S
C1032 H1024 0.929 . S
C1032 C1033 1.377 . S
C1032 C1034 1.384 . S
C1033 C1032 1.377 . S
C1033 C1039 1.390 . S
C1034 H1025 0.930 . S
C1034 C1032 1.384 . S
C1034 C1035 1.372 . S
C1035 C1034 1.372 . S
C1035 C1036 1.400 . S
C1035 C1040 1.490 . S
C1036 H1026 0.930 . S
C1036 C1035 1.400 . S
C1036 C1039 1.386 . S
H1037 C1053 0.930 . S
H1038 C1054 0.931 . S
C1039 H1027 0.929 . S
C1039 C1033 1.390 . S
C1039 C1036 1.386 . S
C1040 C1035 1.490 . S
C1040 C1042 1.395 1_455 S
C1040 C1043 1.403 . S
H1041 C1047 0.936 . S
C1042 H1028 0.930 . S
C1042 C1040 1.395 1_655 S
C1042 C1045 1.403 . S
C1043 C1040 1.403 . S
C1043 C1044 1.524 . S
C1043 C1047 1.433 . S
C1044 H1029 0.960 . S
C1044 H1030 0.960 . S
C1044 H1031 0.960 . S
C1044 C1043 1.524 . S
C1045 C1042 1.403 . S
C1045 C1046 1.392 . S
C1045 C1049 1.495 . S
C1046 C1045 1.392 . S
C1046 C1047 1.347 1_655 S
C1046 C1048 1.478 . S
C1047 H1041 0.936 . S
C1047 C1043 1.433 . S
C1047 C1046 1.347 1_455 S
C1048 C1046 1.478 . S
C1048 C1050 1.381 . S
C1048 C1054 1.383 . S
C1049 C1045 1.495 . S
C1049 H1055 0.959 . S
C1049 H1056 0.961 . S
C1049 H1057 0.960 . S
C1050 C1048 1.381 . S
C1050 C1051 1.394 . S
C1050 H1058 0.930 . S
C1051 C1050 1.394 . S
C1051 C1052 1.383 . S
C1051 H1059 0.929 . S
C1052 C1051 1.383 . S
C1052 C1053 1.377 . S
C1053 H1037 0.930 . S
C1053 C1052 1.377 . S
C1053 C1054 1.379 . S
C1054 H1038 0.931 . S
C1054 C1048 1.383 . S
C1054 C1053 1.379 . S
H1055 C1049 0.959 . S
H1056 C1049 0.961 . S
H1057 C1049 0.960 . S
H1058 C1050 0.930 . S
H1059 C1051 0.929 . S
H1060 C1068 0.929 . S
H1061 C1070 0.930 . S
H1062 C1072 0.930 . S
H1063 C1075 0.929 . S
H1064 C1078 0.930 . S
H1065 C1080 0.960 . S
H1066 C1080 0.960 . S
H1067 C1080 0.960 1_545 S
C1068 H1060 0.929 . S
C1068 C1069 1.377 . S
C1068 C1070 1.384 . S
C1069 C1068 1.377 . S
C1069 C1075 1.390 . S
C1070 H1061 0.930 . S
C1070 C1068 1.384 . S
C1070 C1071 1.372 . S
C1071 C1070 1.372 . S
C1071 C1072 1.400 . S
C1071 C1076 1.490 . S
C1072 H1062 0.930 . S
C1072 C1071 1.400 . S
C1072 C1075 1.386 . S
H1073 C1089 0.930 . S
H1074 C1090 0.931 . S
C1075 H1063 0.929 . S
C1075 C1069 1.390 . S
C1075 C1072 1.386 . S
C1076 C1071 1.490 . S
C1076 C1078 1.395 . S
C1076 C1079 1.403 1_545 S
H1077 C1083 0.930 . S
C1078 H1064 0.930 . S
C1078 C1076 1.395 . S
C1078 C1081 1.403 . S
C1079 C1076 1.403 1_565 S
C1079 C1080 1.524 . S
C1079 C1083 1.400 . S
C1080 H1065 0.960 . S
C1080 H1066 0.960 . S
C1080 H1067 0.960 1_565 S
C1080 C1079 1.524 . S
C1081 C1078 1.403 . S
C1081 C1082 1.392 1_545 S
C1081 C1085 1.495 . S
C1082 C1081 1.392 1_565 S
C1082 C1083 1.385 . S
C1082 C1084 1.478 . S
C1083 H1077 0.930 . S
C1083 C1079 1.400 . S
C1083 C1082 1.385 . S
C1084 C1082 1.478 . S
C1084 C1086 1.381 . S
C1084 C1090 1.383 . S
C1085 C1081 1.495 . S
C1085 H1091 0.959 . S
C1085 H1092 0.961 . S
C1085 H1093 0.960 1_545 S
C1086 C1084 1.381 . S
C1086 C1087 1.394 . S
C1086 H1094 0.930 . S
C1087 C1086 1.394 . S
C1087 C1088 1.383 . S
C1087 H1095 0.929 . S
C1088 C1087 1.383 . S
C1088 C1089 1.377 . S
C1089 H1073 0.930 . S
C1089 C1088 1.377 . S
C1089 C1090 1.379 . S
C1090 H1074 0.931 . S
C1090 C1084 1.383 . S
C1090 C1089 1.379 . S
H1091 C1085 0.959 . S
H1092 C1085 0.961 . S
H1093 C1085 0.960 1_565 S
H1094 C1086 0.930 . S
H1095 C1087 0.929 . S
H1096 C1104 0.929 . S
H1097 C1106 0.930 1_554 S
H1098 C1108 0.930 . S
H1099 C1111 0.929 . S
H1100 C1114 0.930 . S
H1101 C1116 0.960 . S
H1102 C1116 0.960 . S
H1103 C1116 0.960 . S
C1104 H1096 0.929 . S
C1104 C1105 1.377 . S
C1104 C1106 1.384 . S
C1105 C1104 1.377 . S
C1105 C1111 1.390 . S
C1106 H1097 0.930 1_556 S
C1106 C1104 1.384 . S
C1106 C1107 1.372 . S
C1107 C1106 1.372 . S
C1107 C1108 1.400 . S
C1107 C1112 1.490 . S
C1108 H1098 0.930 . S
C1108 C1107 1.400 . S
C1108 C1111 1.386 . S
H1109 C1125 0.930 . S
H1110 C1126 0.931 1_556 S
C1111 H1099 0.929 . S
C1111 C1105 1.390 . S
C1111 C1108 1.386 . S
C1112 C1107 1.490 . S
C1112 C1114 1.395 1_556 S
C1112 C1115 1.403 1_545 S
H1113 C1119 0.930 . S
C1114 H1100 0.930 . S
C1114 C1112 1.395 1_554 S
C1114 C1117 1.403 1_455 S
C1115 C1112 1.403 1_565 S
C1115 C1116 1.524 . S
C1115 C1119 1.400 1_455 S
C1116 H1101 0.960 . S
C1116 H1102 0.960 . S
C1116 H1103 0.960 . S
C1116 C1115 1.524 . S
C1117 C1114 1.403 1_655 S
C1117 C1118 1.392 1_545 S
C1117 C1121 1.495 . S
C1118 C1117 1.392 1_565 S
C1118 C1119 1.385 1_554 S
C1118 C1120 1.478 . S
C1119 H1113 0.930 . S
C1119 C1115 1.400 1_655 S
C1119 C1118 1.385 1_556 S
C1120 C1118 1.478 . S
C1120 C1122 1.381 . S
C1120 C1126 1.383 . S
C1121 C1117 1.495 . S
C1121 H1127 0.959 . S
C1121 H1128 0.961 . S
C1121 H1129 0.960 . S
C1122 C1120 1.381 . S
C1122 C1123 1.394 . S
C1122 H1130 0.930 . S
C1123 C1122 1.394 . S
C1123 C1124 1.383 . S
C1123 H1131 0.929 . S
C1124 C1123 1.383 . S
C1124 C1125 1.377 . S
C1125 H1109 0.930 . S
C1125 C1124 1.377 . S
C1125 C1126 1.379 . S
C1126 H1110 0.931 1_554 S
C1126 C1120 1.383 . S
C1126 C1125 1.379 . S
H1127 C1121 0.959 . S
H1128 C1121 0.961 . S
H1129 C1121 0.960 . S
H1130 C1122 0.930 . S
H1131 C1123 0.929 . S
H1132 C1140 0.929 . S
H1133 C1142 0.930 . S
H1134 C1144 0.930 . S
H1135 C1147 0.929 . S
H1136 C1150 0.930 . S
H1137 C1152 0.960 . S
H1138 C1152 0.960 . S
H1139 C1152 0.960 . S
C1140 H1132 0.929 . S
C1140 C1141 1.377 . S
C1140 C1142 1.384 . S
C1141 C1140 1.377 . S
C1141 C1147 1.390 . S
C1142 H1133 0.930 . S
C1142 C1140 1.384 . S
C1142 C1143 1.372 . S
C1143 C1142 1.372 . S
C1143 C1144 1.400 . S
C1143 C1148 1.490 . S
C1144 H1134 0.930 . S
C1144 C1143 1.400 . S
C1144 C1147 1.386 . S
H1145 C1161 0.930 . S
H1146 C1162 0.931 . S
C1147 H1135 0.929 . S
C1147 C1141 1.390 . S
C1147 C1144 1.386 . S
C1148 C1143 1.490 . S
C1148 C1150 1.395 1_556 S
C1148 C1151 1.403 . S
H1149 C1155 0.930 . S
C1150 H1136 0.930 . S
C1150 C1148 1.395 1_554 S
C1150 C1153 1.403 . S
C1151 C1148 1.403 . S
C1151 C1152 1.524 . S
C1151 C1155 1.400 . S
C1152 H1137 0.960 . S
C1152 H1138 0.960 . S
C1152 H1139 0.960 . S
C1152 C1151 1.524 . S
C1153 C1150 1.403 . S
C1153 C1154 1.392 . S
C1153 C1157 1.495 . S
C1154 C1153 1.392 . S
C1154 C1155 1.385 1_554 S
C1154 C1156 1.478 . S
C1155 H1149 0.930 . S
C1155 C1151 1.400 . S
C1155 C1154 1.385 1_556 S
C1156 C1154 1.478 . S
C1156 C1158 1.381 . S
C1156 C1162 1.383 . S
C1157 C1153 1.495 . S
C1157 H1163 0.959 . S
C1157 H1164 0.961 . S
C1157 H1165 0.960 . S
C1158 C1156 1.381 . S
C1158 C1159 1.394 . S
C1158 H1166 0.930 . S
C1159 C1158 1.394 . S
C1159 C1160 1.383 . S
C1159 H1167 0.929 . S
C1160 C1159 1.383 . S
C1160 C1161 1.377 . S
C1161 H1145 0.930 . S
C1161 C1160 1.377 . S
C1161 C1162 1.379 . S
C1162 H1146 0.931 . S
C1162 C1156 1.383 . S
C1162 C1161 1.379 . S
H1163 C1157 0.959 . S
H1164 C1157 0.961 . S
H1165 C1157 0.960 . S
H1166 C1158 0.930 . S
H1167 C1159 0.929 . S
H1168 C1176 0.929 . S
H1169 C1178 0.930 . S
H1170 C1180 0.930 . S
H1171 C1183 0.929 . S
H1172 C1186 0.930 . S
H1173 C1188 0.960 . S
H1174 C1188 0.960 . S
H1175 C1188 0.957 . S
C1176 H1168 0.929 . S
C1176 C1177 1.377 . S
C1176 C1178 1.384 . S
C1177 C1176 1.377 . S
C1177 C1183 1.390 . S
C1178 H1169 0.930 . S
C1178 C1176 1.384 . S
C1178 C1179 1.372 . S
C1179 C1178 1.372 . S
C1179 C1180 1.400 . S
C1179 C1184 1.490 . S
C1180 H1170 0.930 . S
C1180 C1179 1.400 . S
C1180 C1183 1.386 . S
H1181 C1197 0.930 . S
H1182 C1198 0.931 . S
C1183 H1171 0.929 . S
C1183 C1177 1.390 . S
C1183 C1180 1.386 . S
C1184 C1179 1.490 . S
C1184 C1186 1.395 . S
C1184 C1187 1.403 1_655 S
H1185 C1191 0.930 . S
C1186 H1172 0.930 . S
C1186 C1184 1.395 . S
C1186 C1189 1.403 . S
C1187 C1184 1.403 1_455 S
C1187 C1188 1.524 . S
C1187 C1191 1.400 . S
C1188 H1173 0.960 . S
C1188 H1174 0.960 . S
C1188 H1175 0.957 . S
C1188 C1187 1.524 . S
C1189 C1186 1.403 . S
C1189 C1190 1.392 1_655 S
C1189 C1193 1.495 . S
C1190 C1189 1.392 1_455 S
C1190 C1191 1.385 . S
C1190 C1192 1.478 . S
C1191 H1185 0.930 . S
C1191 C1187 1.400 . S
C1191 C1190 1.385 . S
C1192 C1190 1.478 . S
C1192 C1194 1.381 . S
C1192 C1198 1.383 . S
C1193 C1189 1.495 . S
C1193 H1199 0.959 . S
C1193 H1200 0.961 . S
C1193 H1201 1.003 . S
C1194 C1192 1.381 . S
C1194 C1195 1.394 . S
C1194 H1202 0.930 . S
C1195 C1194 1.394 . S
C1195 C1196 1.383 . S
C1195 H1203 0.929 . S
C1196 C1195 1.383 . S
C1196 C1197 1.377 . S
C1197 H1181 0.930 . S
C1197 C1196 1.377 . S
C1197 C1198 1.379 . S
C1198 H1182 0.931 . S
C1198 C1192 1.383 . S
C1198 C1197 1.379 . S
H1199 C1193 0.959 . S
H1200 C1193 0.961 . S
H1201 C1193 1.003 . S
H1202 C1194 0.930 . S
H1203 C1195 0.929 . S
H1204 C1212 0.929 . S
H1205 C1214 0.930 . S
H1206 C1216 0.930 . S
H1207 C1219 0.929 . S
H1208 C1222 0.930 . S
H1209 C1224 0.960 . S
H1210 C1224 0.960 . S
H1211 C1224 0.960 . S
C1212 H1204 0.929 . S
C1212 C1213 1.377 . S
C1212 C1214 1.384 . S
C1213 C1212 1.377 . S
C1213 C1219 1.390 . S
C1214 H1205 0.930 . S
C1214 C1212 1.384 . S
C1214 C1215 1.372 . S
C1215 C1214 1.372 . S
C1215 C1216 1.400 . S
C1215 C1220 1.490 . S
C1216 H1206 0.930 . S
C1216 C1215 1.400 . S
C1216 C1219 1.386 . S
H1217 C1233 0.930 . S
H1218 C1234 0.931 . S
C1219 H1207 0.929 . S
C1219 C1213 1.390 . S
C1219 C1216 1.386 . S
C1220 C1215 1.490 . S
C1220 C1222 1.395 1_545 S
C1220 C1223 1.403 . S
H1221 C1227 0.930 . S
C1222 H1208 0.930 . S
C1222 C1220 1.395 1_565 S
C1222 C1225 1.403 . S
C1223 C1220 1.403 . S
C1223 C1224 1.524 . S
C1223 C1227 1.400 . S
C1224 H1209 0.960 . S
C1224 H1210 0.960 . S
C1224 H1211 0.960 . S
C1224 C1223 1.524 . S
C1225 C1222 1.403 . S
C1225 C1226 1.392 . S
C1225 C1229 1.495 . S
C1226 C1225 1.392 . S
C1226 C1227 1.385 1_565 S
C1226 C1228 1.478 . S
C1227 H1221 0.930 . S
C1227 C1223 1.400 . S
C1227 C1226 1.385 1_545 S
C1228 C1226 1.478 . S
C1228 C1230 1.381 . S
C1228 C1234 1.383 . S
C1229 C1225 1.495 . S
C1229 H1235 0.959 . S
C1229 H1236 0.961 . S
C1229 H1237 0.960 . S
C1230 C1228 1.381 . S
C1230 C1231 1.394 . S
C1230 H1238 0.930 . S
C1231 C1230 1.394 . S
C1231 C1232 1.383 . S
C1231 H1239 0.929 . S
C1232 C1231 1.383 . S
C1232 C1233 1.377 . S
C1233 H1217 0.930 . S
C1233 C1232 1.377 . S
C1233 C1234 1.379 . S
C1234 H1218 0.931 . S
C1234 C1228 1.383 . S
C1234 C1233 1.379 . S
H1235 C1229 0.959 . S
H1236 C1229 0.961 . S
H1237 C1229 0.960 . S
H1238 C1230 0.930 . S
H1239 C1231 0.929 . S
H1240 C1248 0.929 . S
H1241 C1250 0.930 . S
H1242 C1252 0.930 . S
H1243 C1255 0.929 . S
H1244 C1258 0.930 . S
H1245 C1260 0.960 . S
H1246 C1260 0.960 . S
H1247 C1260 0.960 . S
C1248 H1240 0.929 . S
C1248 C1249 1.377 . S
C1248 C1250 1.384 . S
C1249 C1248 1.377 . S
C1249 C1255 1.390 . S
C1250 H1241 0.930 . S
C1250 C1248 1.384 . S
C1250 C1251 1.372 . S
C1251 C1250 1.372 . S
C1251 C1252 1.400 . S
C1251 C1256 1.490 . S
C1252 H1242 0.930 . S
C1252 C1251 1.400 . S
C1252 C1255 1.386 . S
H1253 C1269 0.930 . S
H1254 C1270 0.931 . S
C1255 H1243 0.929 . S
C1255 C1249 1.390 . S
C1255 C1252 1.386 . S
C1256 C1251 1.490 . S
C1256 C1258 1.395 . S
C1256 C1259 1.403 1_556 S
H1257 C1263 0.930 . S
C1258 H1244 0.930 . S
C1258 C1256 1.395 . S
C1258 C1261 1.403 . S
C1259 C1256 1.403 1_554 S
C1259 C1260 1.524 . S
C1259 C1263 1.400 . S
C1260 H1245 0.960 . S
C1260 H1246 0.960 . S
C1260 H1247 0.960 . S
C1260 C1259 1.524 . S
C1261 C1258 1.403 . S
C1261 C1262 1.392 1_556 S
C1261 C1265 1.495 . S
C1262 C1261 1.392 1_554 S
C1262 C1263 1.385 . S
C1262 C1264 1.478 . S
C1263 H1257 0.930 . S
C1263 C1259 1.400 . S
C1263 C1262 1.385 . S
C1264 C1262 1.478 . S
C1264 C1266 1.381 . S
C1264 C1270 1.383 . S
C1265 C1261 1.495 . S
C1265 H1271 0.959 . S
C1265 H1272 0.961 . S
C1265 H1273 0.960 . S
C1266 C1264 1.381 . S
C1266 C1267 1.394 . S
C1266 H1274 0.930 . S
C1267 C1266 1.394 . S
C1267 C1268 1.383 . S
C1267 H1275 0.929 . S
C1268 C1267 1.383 . S
C1268 C1269 1.377 . S
C1269 H1253 0.930 . S
C1269 C1268 1.377 . S
C1269 C1270 1.379 . S
C1270 H1254 0.931 . S
C1270 C1264 1.383 . S
C1270 C1269 1.379 . S
H1271 C1265 0.959 . S
H1272 C1265 0.961 . S
H1273 C1265 0.960 . S
H1274 C1266 0.930 . S
H1275 C1267 0.929 . S
H1276 C1284 0.929 . S
H1277 C1286 0.930 . S
H1278 C1288 0.930 . S
H1279 C1291 0.929 . S
H1280 C1294 0.930 . S
H1281 C1296 0.960 . S
H1282 C1296 0.960 . S
H1283 C1296 0.960 . S
C1284 H1276 0.929 . S
C1284 C1285 1.377 . S
C1284 C1286 1.384 . S
C1285 C1284 1.377 . S
C1285 C1291 1.390 . S
C1286 H1277 0.930 . S
C1286 C1284 1.384 . S
C1286 C1287 1.372 . S
C1287 C1286 1.372 . S
C1287 C1288 1.400 . S
C1287 C1292 1.490 . S
C1288 H1278 0.930 . S
C1288 C1287 1.400 . S
C1288 C1291 1.386 . S
H1289 C1305 0.930 . S
H1290 C1306 0.931 . S
C1291 H1279 0.929 . S
C1291 C1285 1.390 . S
C1291 C1288 1.386 . S
C1292 C1287 1.490 . S
C1292 C1294 1.395 . S
C1292 C1295 1.403 . S
H1293 C1299 0.930 . S
C1294 H1280 0.930 . S
C1294 C1292 1.395 . S
C1294 C1297 1.403 . S
C1295 C1292 1.403 . S
C1295 C1296 1.524 . S
C1295 C1299 1.400 . S
C1296 H1281 0.960 . S
C1296 H1282 0.960 . S
C1296 H1283 0.960 . S
C1296 C1295 1.524 . S
C1297 C1294 1.403 . S
C1297 C1298 1.392 . S
C1297 C1301 1.495 . S
C1298 C1297 1.392 . S
C1298 C1299 1.385 . S
C1298 C1300 1.478 . S
C1299 H1293 0.930 . S
C1299 C1295 1.400 . S
C1299 C1298 1.385 . S
C1300 C1298 1.478 . S
C1300 C1302 1.381 . S
C1300 C1306 1.383 . S
C1301 C1297 1.495 . S
C1301 H1307 0.959 . S
C1301 H1308 0.961 . S
C1301 H1309 0.960 . S
C1302 C1300 1.381 . S
C1302 C1303 1.394 . S
C1302 H1310 0.930 . S
C1303 C1302 1.394 . S
C1303 C1304 1.383 . S
C1303 H1311 0.929 . S
C1304 C1303 1.383 . S
C1304 C1305 1.377 . S
C1305 H1289 0.930 . S
C1305 C1304 1.377 . S
C1305 C1306 1.379 . S
C1306 H1290 0.931 . S
C1306 C1300 1.383 . S
C1306 C1305 1.379 . S
H1307 C1301 0.959 . S
H1308 C1301 0.961 . S
H1309 C1301 0.960 . S
H1310 C1302 0.930 . S
H1311 C1303 0.929 . S
H1312 C1320 0.929 . S
H1313 C1322 0.930 . S
H1314 C1324 0.930 . S
H1315 C1327 0.929 . S
H1316 C1330 0.928 1_455 S
H1317 C1332 0.960 . S
H1318 C1332 0.960 . S
H1319 C1332 0.960 . S
C1320 H1312 0.929 . S
C1320 C1321 1.377 . S
C1320 C1322 1.384 . S
C1321 C1320 1.377 . S
C1321 C1327 1.390 . S
C1322 H1313 0.930 . S
C1322 C1320 1.384 . S
C1322 C1323 1.372 . S
C1323 C1322 1.372 . S
C1323 C1324 1.400 . S
C1323 C1328 1.490 . S
C1324 H1314 0.930 . S
C1324 C1323 1.400 . S
C1324 C1327 1.386 . S
H1325 C1341 0.930 . S
H1326 C1342 0.931 . S
C1327 H1315 0.929 . S
C1327 C1321 1.390 . S
C1327 C1324 1.386 . S
C1328 C1323 1.490 . S
C1328 C1330 1.396 1_455 S
C1328 C1331 1.403 . S
H1329 C1335 0.930 . S
C1330 H1316 0.928 1_655 S
C1330 C1328 1.396 1_655 S
C1330 C1333 1.402 . S
C1331 C1328 1.403 . S
C1331 C1332 1.524 . S
C1331 C1335 1.400 1_455 S
C1332 H1317 0.960 . S
C1332 H1318 0.960 . S
C1332 H1319 0.960 . S
C1332 C1331 1.524 . S
C1333 C1330 1.402 . S
C1333 C1334 1.392 . S
C1333 C1337 1.495 . S
C1334 C1333 1.392 . S
C1334 C1335 1.385 . S
C1334 C1336 1.478 . S
C1335 H1329 0.930 . S
C1335 C1331 1.400 1_655 S
C1335 C1334 1.385 . S
C1336 C1334 1.478 . S
C1336 C1338 1.381 . S
C1336 C1342 1.383 . S
C1337 C1333 1.495 . S
C1337 H1343 0.959 . S
C1337 H1344 0.961 . S
C1337 H1345 0.960 . S
C1338 C1336 1.381 . S
C1338 C1339 1.394 . S
C1338 H1346 0.930 . S
C1339 C1338 1.394 . S
C1339 C1340 1.383 . S
C1339 H1347 0.929 . S
C1340 C1339 1.383 . S
C1340 C1341 1.377 . S
C1341 H1325 0.930 . S
C1341 C1340 1.377 . S
C1341 C1342 1.379 . S
C1342 H1326 0.931 . S
C1342 C1336 1.383 . S
C1342 C1341 1.379 . S
H1343 C1337 0.959 . S
H1344 C1337 0.961 . S
H1345 C1337 0.960 . S
H1346 C1338 0.930 . S
H1347 C1339 0.929 . S
H1348 C1356 0.929 . S
H1349 C1358 0.930 . S
H1350 C1360 0.930 . S
H1351 C1363 0.929 . S
H1352 C1366 0.930 . S
H1353 C1368 0.960 . S
H1354 C1368 0.960 . S
H1355 C1368 0.960 . S
C1356 H1348 0.929 . S
C1356 C1357 1.377 . S
C1356 C1358 1.384 . S
C1357 C1356 1.377 . S
C1357 C1363 1.390 . S
C1358 H1349 0.930 . S
C1358 C1356 1.384 . S
C1358 C1359 1.372 . S
C1359 C1358 1.372 . S
C1359 C1360 1.400 . S
C1359 C1364 1.490 . S
C1360 H1350 0.930 . S
C1360 C1359 1.400 . S
C1360 C1363 1.386 . S
H1361 C1377 0.930 . S
H1362 C1378 0.931 . S
C1363 H1351 0.929 . S
C1363 C1357 1.390 . S
C1363 C1360 1.386 . S
C1364 C1359 1.490 . S
C1364 C1366 1.395 . S
C1364 C1367 1.403 . S
H1365 C1371 0.930 . S
C1366 H1352 0.930 . S
C1366 C1364 1.395 . S
C1366 C1369 1.403 . S
C1367 C1364 1.403 . S
C1367 C1368 1.524 . S
C1367 C1371 1.400 . S
C1368 H1353 0.960 . S
C1368 H1354 0.960 . S
C1368 H1355 0.960 . S
C1368 C1367 1.524 . S
C1369 C1366 1.403 . S
C1369 C1370 1.392 . S
C1369 C1373 1.495 . S
C1370 C1369 1.392 . S
C1370 C1371 1.385 . S
C1370 C1372 1.478 . S
C1371 H1365 0.930 . S
C1371 C1367 1.400 . S
C1371 C1370 1.385 . S
C1372 C1370 1.478 . S
C1372 C1374 1.381 . S
C1372 C1378 1.383 . S
C1373 C1369 1.495 . S
C1373 H1379 0.959 . S
C1373 H1380 0.961 . S
C1373 H1381 0.960 . S
C1374 C1372 1.381 . S
C1374 C1375 1.394 . S
C1374 H1382 0.930 . S
C1375 C1374 1.394 . S
C1375 C1376 1.383 . S
C1375 H1383 0.929 . S
C1376 C1375 1.383 . S
C1376 C1377 1.377 . S
C1377 H1361 0.930 . S
C1377 C1376 1.377 . S
C1377 C1378 1.379 . S
C1378 H1362 0.931 . S
C1378 C1372 1.383 . S
C1378 C1377 1.379 . S
H1379 C1373 0.959 . S
H1380 C1373 0.961 . S
H1381 C1373 0.960 . S
H1382 C1374 0.930 . S
H1383 C1375 0.929 . S
H1384 C1392 0.929 . S
H1385 C1394 0.930 . S
H1386 C1396 0.930 . S
H1387 C1399 0.929 . S
H1388 C1402 0.930 . S
H1389 C1404 0.960 . S
H1390 C1404 0.960 . S
H1391 C1404 0.960 . S
C1392 H1384 0.929 . S
C1392 C1393 1.377 . S
C1392 C1394 1.384 . S
C1393 C1392 1.377 . S
C1393 C1399 1.390 . S
C1394 H1385 0.930 . S
C1394 C1392 1.384 . S
C1394 C1395 1.372 . S
C1395 C1394 1.372 . S
C1395 C1396 1.400 . S
C1395 C1400 1.490 . S
C1396 H1386 0.930 . S
C1396 C1395 1.400 . S
C1396 C1399 1.386 . S
H1397 C1413 0.930 . S
H1398 C1414 0.931 . S
C1399 H1387 0.929 . S
C1399 C1393 1.390 . S
C1399 C1396 1.386 . S
C1400 C1395 1.490 . S
C1400 C1402 1.395 . S
C1400 C1403 1.403 . S
H1401 C1407 0.930 . S
C1402 H1388 0.930 . S
C1402 C1400 1.395 . S
C1402 C1405 1.403 . S
C1403 C1400 1.403 . S
C1403 C1404 1.524 . S
C1403 C1407 1.400 . S
C1404 H1389 0.960 . S
C1404 H1390 0.960 . S
C1404 H1391 0.960 . S
C1404 C1403 1.524 . S
C1405 C1402 1.403 . S
C1405 C1406 1.392 . S
C1405 C1409 1.495 . S
C1406 C1405 1.392 . S
C1406 C1407 1.385 . S
C1406 C1408 1.478 . S
C1407 H1401 0.930 . S
C1407 C1403 1.400 . S
C1407 C1406 1.385 . S
C1408 C1406 1.478 . S
C1408 C1410 1.381 . S
C1408 C1414 1.383 . S
C1409 C1405 1.495 . S
C1409 H1415 0.959 . S
C1409 H1416 0.961 . S
C1409 H1417 0.960 . S
C1410 C1408 1.381 . S
C1410 C1411 1.394 . S
C1410 H1418 0.930 . S
C1411 C1410 1.394 . S
C1411 C1412 1.383 . S
C1411 H1419 0.929 . S
C1412 C1411 1.383 . S
C1412 C1413 1.377 . S
C1413 H1397 0.930 . S
C1413 C1412 1.377 . S
C1413 C1414 1.379 . S
C1414 H1398 0.931 . S
C1414 C1408 1.383 . S
C1414 C1413 1.379 . S
H1415 C1409 0.959 . S
H1416 C1409 0.961 . S
H1417 C1409 0.960 . S
H1418 C1410 0.930 . S
H1419 C1411 0.929 . S
H1420 C1428 0.929 . S
H1421 C1430 0.930 . S
H1422 C1432 0.930 . S
H1423 C1435 0.929 . S
H1424 C1438 0.930 . S
H1425 C1440 0.960 . S
H1426 C1440 0.960 . S
H1427 C1440 0.960 . S
C1428 H1420 0.929 . S
C1428 C1429 1.377 . S
C1428 C1430 1.384 . S
C1429 C1428 1.377 . S
C1429 C1435 1.390 . S
C1430 H1421 0.930 . S
C1430 C1428 1.384 . S
C1430 C1431 1.372 . S
C1431 C1430 1.372 . S
C1431 C1432 1.400 . S
C1431 C1436 1.490 . S
C1432 H1422 0.930 . S
C1432 C1431 1.400 . S
C1432 C1435 1.386 . S
H1433 C1449 0.930 . S
H1434 C1450 0.931 . S
C1435 H1423 0.929 . S
C1435 C1429 1.390 . S
C1435 C1432 1.386 . S
C1436 C1431 1.490 . S
C1436 C1438 1.395 . S
C1436 C1439 1.403 . S
H1437 C1443 0.930 . S
C1438 H1424 0.930 . S
C1438 C1436 1.395 . S
C1438 C1441 1.403 . S
C1439 C1436 1.403 . S
C1439 C1440 1.524 . S
C1439 C1443 1.400 . S
C1440 H1425 0.960 . S
C1440 H1426 0.960 . S
C1440 H1427 0.960 . S
C1440 C1439 1.524 . S
C1441 C1438 1.403 . S
C1441 C1442 1.392 . S
C1441 C1445 1.495 . S
C1442 C1441 1.392 . S
C1442 C1443 1.385 . S
C1442 C1444 1.478 . S
C1443 H1437 0.930 . S
C1443 C1439 1.400 . S
C1443 C1442 1.385 . S
C1444 C1442 1.478 . S
C1444 C1446 1.381 . S
C1444 C1450 1.383 . S
C1445 C1441 1.495 . S
C1445 H1451 0.959 . S
C1445 H1452 0.961 . S
C1445 H1453 0.960 . S
C1446 C1444 1.381 . S
C1446 C1447 1.394 . S
C1446 H1454 0.930 . S
C1447 C1446 1.394 . S
C1447 C1448 1.383 . S
C1447 H1455 0.929 . S
C1448 C1447 1.383 . S
C1448 C1449 1.377 . S
C1449 H1433 0.930 . S
C1449 C1448 1.377 . S
C1449 C1450 1.379 . S
C1450 H1434 0.931 . S
C1450 C1444 1.383 . S
C1450 C1449 1.379 . S
H1451 C1445 0.959 . S
H1452 C1445 0.961 . S
H1453 C1445 0.960 . S
H1454 C1446 0.930 . S
H1455 C1447 0.929 . S
H1456 C1464 0.929 . S
H1457 C1466 0.930 . S
H1458 C1468 0.930 . S
H1459 C1471 0.929 . S
H1460 C1474 0.930 . S
H1461 C1476 0.960 . S
H1462 C1476 0.960 . S
H1463 C1476 0.960 . S
C1464 H1456 0.929 . S
C1464 C1465 1.377 . S
C1464 C1466 1.384 . S
C1465 C1464 1.377 . S
C1465 C1471 1.390 . S
C1466 H1457 0.930 . S
C1466 C1464 1.384 . S
C1466 C1467 1.372 . S
C1467 C1466 1.372 . S
C1467 C1468 1.400 . S
C1467 C1472 1.490 . S
C1468 H1458 0.930 . S
C1468 C1467 1.400 . S
C1468 C1471 1.386 . S
H1469 C1485 0.930 . S
H1470 C1486 0.931 . S
C1471 H1459 0.929 . S
C1471 C1465 1.390 . S
C1471 C1468 1.386 . S
C1472 C1467 1.490 . S
C1472 C1474 1.395 . S
C1472 C1475 1.403 . S
H1473 C1479 0.930 . S
C1474 H1460 0.930 . S
C1474 C1472 1.395 . S
C1474 C1477 1.403 . S
C1475 C1472 1.403 . S
C1475 C1476 1.524 . S
C1475 C1479 1.400 . S
C1476 H1461 0.960 . S
C1476 H1462 0.960 . S
C1476 H1463 0.960 . S
C1476 C1475 1.524 . S
C1477 C1474 1.403 . S
C1477 C1478 1.392 . S
C1477 C1481 1.495 . S
C1478 C1477 1.392 . S
C1478 C1479 1.385 . S
C1478 C1480 1.478 . S
C1479 H1473 0.930 . S
C1479 C1475 1.400 . S
C1479 C1478 1.385 . S
C1480 C1478 1.478 . S
C1480 C1482 1.381 . S
C1480 C1486 1.383 . S
C1481 C1477 1.495 . S
C1481 H1487 0.959 . S
C1481 H1488 0.961 . S
C1481 H1489 0.960 . S
C1482 C1480 1.381 . S
C1482 C1483 1.394 . S
C1482 H1490 0.930 . S
C1483 C1482 1.394 . S
C1483 C1484 1.383 . S
C1483 H1491 0.929 . S
C1484 C1483 1.383 . S
C1484 C1485 1.377 . S
C1485 H1469 0.930 . S
C1485 C1484 1.377 . S
C1485 C1486 1.379 . S
C1486 H1470 0.931 . S
C1486 C1480 1.383 . S
C1486 C1485 1.379 . S
H1487 C1481 0.959 . S
H1488 C1481 0.961 . S
H1489 C1481 0.960 . S
H1490 C1482 0.930 . S
H1491 C1483 0.929 . S
H1492 C1500 0.929 . S
H1493 C1502 0.930 . S
H1494 C1504 0.930 . S
H1495 C1507 0.929 . S
H1496 C1510 0.930 . S
H1497 C1512 0.960 . S
H1498 C1512 0.960 . S
H1499 C1512 0.960 . S
C1500 H1492 0.929 . S
C1500 C1501 1.377 . S
C1500 C1502 1.384 . S
C1501 C1500 1.377 . S
C1501 C1507 1.390 . S
C1502 H1493 0.930 . S
C1502 C1500 1.384 . S
C1502 C1503 1.372 . S
C1503 C1502 1.372 . S
C1503 C1504 1.400 . S
C1503 C1508 1.490 . S
C1504 H1494 0.930 . S
C1504 C1503 1.400 . S
C1504 C1507 1.386 . S
H1505 C1521 0.930 . S
H1506 C1522 0.931 . S
C1507 H1495 0.929 . S
C1507 C1501 1.390 . S
C1507 C1504 1.386 . S
C1508 C1503 1.490 . S
C1508 C1510 1.395 . S
C1508 C1511 1.403 1_565 S
H1509 C1515 0.930 . S
C1510 H1496 0.930 . S
C1510 C1508 1.395 . S
C1510 C1513 1.403 . S
C1511 C1508 1.403 1_545 S
C1511 C1512 1.524 . S
C1511 C1515 1.400 . S
C1512 H1497 0.960 . S
C1512 H1498 0.960 . S
C1512 H1499 0.960 . S
C1512 C1511 1.524 . S
C1513 C1510 1.403 . S
C1513 C1514 1.392 1_565 S
C1513 C1517 1.495 . S
C1514 C1513 1.392 1_545 S
C1514 C1515 1.385 . S
C1514 C1516 1.478 . S
C1515 H1509 0.930 . S
C1515 C1511 1.400 . S
C1515 C1514 1.385 . S
C1516 C1514 1.478 . S
C1516 C1518 1.381 . S
C1516 C1522 1.383 . S
C1517 C1513 1.495 . S
C1517 H1523 0.959 . S
C1517 H1524 0.961 . S
C1517 H1525 0.960 . S
C1518 C1516 1.381 . S
C1518 C1519 1.394 . S
C1518 H1526 0.930 . S
C1519 C1518 1.394 . S
C1519 C1520 1.383 . S
C1519 H1527 0.929 . S
C1520 C1519 1.383 . S
C1520 C1521 1.377 . S
C1521 H1505 0.930 . S
C1521 C1520 1.377 . S
C1521 C1522 1.379 . S
C1522 H1506 0.931 . S
C1522 C1516 1.383 . S
C1522 C1521 1.379 . S
H1523 C1517 0.959 . S
H1524 C1517 0.961 . S
H1525 C1517 0.960 . S
H1526 C1518 0.930 . S
H1527 C1519 0.929 . S
H1528 C1536 0.929 . S
H1529 C1538 0.930 . S
H1530 C1540 0.930 . S
H1531 C1543 0.929 . S
H1532 C1546 0.930 . S
H1533 C1548 0.960 . S
H1534 C1548 0.960 . S
H1535 C1548 0.960 . S
C1536 H1528 0.929 . S
C1536 C1537 1.377 . S
C1536 C1538 1.384 . S
C1537 C1536 1.377 . S
C1537 C1543 1.390 . S
C1538 H1529 0.930 . S
C1538 C1536 1.384 . S
C1538 C1539 1.372 . S
C1539 C1538 1.372 . S
C1539 C1540 1.400 . S
C1539 C1544 1.490 . S
C1540 H1530 0.930 . S
C1540 C1539 1.400 . S
C1540 C1543 1.386 . S
H1541 C1557 0.930 . S
H1542 C1558 0.931 . S
C1543 H1531 0.929 . S
C1543 C1537 1.390 . S
C1543 C1540 1.386 . S
C1544 C1539 1.490 . S
C1544 C1546 1.395 . S
C1544 C1547 1.403 . S
H1545 C1551 0.930 . S
C1546 H1532 0.930 . S
C1546 C1544 1.395 . S
C1546 C1549 1.403 . S
C1547 C1544 1.403 . S
C1547 C1548 1.524 . S
C1547 C1551 1.400 . S
C1548 H1533 0.960 . S
C1548 H1534 0.960 . S
C1548 H1535 0.960 . S
C1548 C1547 1.524 . S
C1549 C1546 1.403 . S
C1549 C1550 1.392 . S
C1549 C1553 1.495 . S
C1550 C1549 1.392 . S
C1550 C1551 1.385 . S
C1550 C1552 1.478 . S
C1551 H1545 0.930 . S
C1551 C1547 1.400 . S
C1551 C1550 1.385 . S
C1552 C1550 1.478 . S
C1552 C1554 1.381 . S
C1552 C1558 1.383 . S
C1553 C1549 1.495 . S
C1553 H1559 0.959 . S
C1553 H1560 0.961 . S
C1553 H1561 0.960 . S
C1554 C1552 1.381 . S
C1554 C1555 1.394 . S
C1554 H1562 0.930 . S
C1555 C1554 1.394 . S
C1555 C1556 1.383 . S
C1555 H1563 0.929 . S
C1556 C1555 1.383 . S
C1556 C1557 1.377 . S
C1557 H1541 0.930 . S
C1557 C1556 1.377 . S
C1557 C1558 1.379 . S
C1558 H1542 0.931 . S
C1558 C1552 1.383 . S
C1558 C1557 1.379 . S
H1559 C1553 0.959 . S
H1560 C1553 0.961 . S
H1561 C1553 0.960 . S
H1562 C1554 0.930 . S
H1563 C1555 0.929 . S
H1564 C1572 0.929 . S
H1565 C1574 0.930 1_556 S
H1566 C1576 0.930 . S
H1567 C1579 0.929 . S
H1568 C1582 0.930 . S
H1569 C1584 0.960 . S
H1570 C1584 0.960 . S
H1571 C1584 0.960 . S
C1572 H1564 0.929 . S
C1572 C1573 1.377 . S
C1572 C1574 1.384 . S
C1573 C1572 1.377 . S
C1573 C1579 1.390 . S
C1574 H1565 0.930 1_554 S
C1574 C1572 1.384 . S
C1574 C1575 1.372 . S
C1575 C1574 1.372 . S
C1575 C1576 1.400 . S
C1575 C1580 1.490 . S
C1576 H1566 0.930 . S
C1576 C1575 1.400 . S
C1576 C1579 1.386 . S
H1577 C1593 0.930 . S
H1578 C1594 0.986 . S
C1579 H1567 0.929 . S
C1579 C1573 1.390 . S
C1579 C1576 1.386 . S
C1580 C1575 1.490 . S
C1580 C1582 1.395 1_554 S
C1580 C1583 1.403 . S
H1581 C1587 0.930 . S
C1582 H1568 0.930 . S
C1582 C1580 1.395 1_556 S
C1582 C1585 1.403 . S
C1583 C1580 1.403 . S
C1583 C1584 1.524 . S
C1583 C1587 1.400 . S
C1584 H1569 0.960 . S
C1584 H1570 0.960 . S
C1584 H1571 0.960 . S
C1584 C1583 1.524 . S
C1585 C1582 1.403 . S
C1585 C1586 1.392 . S
C1585 C1589 1.495 . S
C1586 C1585 1.392 . S
C1586 C1587 1.385 1_556 S
C1586 C1588 1.478 . S
C1587 H1581 0.930 . S
C1587 C1583 1.400 . S
C1587 C1586 1.385 1_554 S
C1588 C1586 1.478 . S
C1588 C1590 1.381 . S
C1588 C1594 1.383 . S
C1589 C1585 1.495 . S
C1589 H1595 0.959 . S
C1589 H1596 0.961 . S
C1589 H1597 0.960 . S
C1590 C1588 1.381 . S
C1590 C1591 1.394 . S
C1590 H1598 0.930 . S
C1591 C1590 1.394 . S
C1591 C1592 1.383 . S
C1591 H1599 0.929 . S
C1592 C1591 1.383 . S
C1592 C1593 1.377 . S
C1593 H1577 0.930 . S
C1593 C1592 1.377 . S
C1593 C1594 1.379 . S
C1594 H1578 0.986 . S
C1594 C1588 1.383 . S
C1594 C1593 1.379 . S
H1595 C1589 0.959 . S
H1596 C1589 0.961 . S
H1597 C1589 0.960 . S
H1598 C1590 0.930 . S
H1599 C1591 0.929 . S
H1600 C1608 0.929 . S
H1601 C1610 0.930 . S
H1602 C1612 0.930 . S
H1603 C1615 0.929 . S
H1604 C1618 0.930 . S
H1605 C1620 0.960 . S
H1606 C1620 0.960 . S
H1607 C1620 0.960 . S
C1608 H1600 0.929 . S
C1608 C1609 1.377 . S
C1608 C1610 1.384 . S
C1609 C1608 1.377 . S
C1609 C1615 1.390 . S
C1610 H1601 0.930 . S
C1610 C1608 1.384 . S
C1610 C1611 1.372 . S
C1611 C1610 1.372 . S
C1611 C1612 1.400 . S
C1611 C1616 1.490 . S
C1612 H1602 0.930 . S
C1612 C1611 1.400 . S
C1612 C1615 1.386 . S
H1613 C1629 0.930 . S
H1614 C1630 0.931 . S
C1615 H1603 0.929 . S
C1615 C1609 1.390 . S
C1615 C1612 1.386 . S
C1616 C1611 1.490 . S
C1616 C1618 1.395 . S
C1616 C1619 1.403 . S
H1617 C1623 0.930 . S
C1618 H1604 0.930 . S
C1618 C1616 1.395 . S
C1618 C1621 1.403 . S
C1619 C1616 1.403 . S
C1619 C1620 1.524 . S
C1619 C1623 1.400 . S
C1620 H1605 0.960 . S
C1620 H1606 0.960 . S
C1620 H1607 0.960 . S
C1620 C1619 1.524 . S
C1621 C1618 1.403 . S
C1621 C1622 1.392 . S
C1621 C1625 1.495 . S
C1622 C1621 1.392 . S
C1622 C1623 1.385 . S
C1622 C1624 1.478 . S
C1623 H1617 0.930 . S
C1623 C1619 1.400 . S
C1623 C1622 1.385 . S
C1624 C1622 1.478 . S
C1624 C1626 1.381 . S
C1624 C1630 1.383 . S
C1625 C1621 1.495 . S
C1625 H1631 0.959 . S
C1625 H1632 0.961 . S
C1625 H1633 0.960 . S
C1626 C1624 1.381 . S
C1626 C1627 1.394 . S
C1626 H1634 0.930 . S
C1627 C1626 1.394 . S
C1627 C1628 1.383 . S
C1627 H1635 0.929 . S
C1628 C1627 1.383 . S
C1628 C1629 1.377 . S
C1629 H1613 0.930 . S
C1629 C1628 1.377 . S
C1629 C1630 1.379 . S
C1630 H1614 0.931 . S
C1630 C1624 1.383 . S
C1630 C1629 1.379 . S
H1631 C1625 0.959 . S
H1632 C1625 0.961 . S
H1633 C1625 0.960 . S
H1634 C1626 0.930 . S
H1635 C1627 0.929 . S
H1636 C1644 0.929 . S
H1637 C1646 0.930 . S
H1638 C1648 0.930 . S
H1639 C1651 0.929 . S
H1640 C1654 0.930 . S
H1641 C1656 0.960 . S
H1642 C1656 0.960 . S
H1643 C1656 0.960 . S
C1644 H1636 0.929 . S
C1644 C1645 1.377 . S
C1644 C1646 1.384 . S
C1645 C1644 1.377 . S
C1645 C1651 1.390 . S
C1646 H1637 0.930 . S
C1646 C1644 1.384 . S
C1646 C1647 1.372 . S
C1647 C1646 1.372 . S
C1647 C1648 1.400 . S
C1647 C1652 1.490 . S
C1648 H1638 0.930 . S
C1648 C1647 1.400 . S
C1648 C1651 1.386 . S
H1649 C1665 0.930 . S
H1650 C1666 0.931 . S
C1651 H1639 0.929 . S
C1651 C1645 1.390 . S
C1651 C1648 1.386 . S
C1652 C1647 1.490 . S
C1652 C1654 1.395 . S
C1652 C1655 1.403 . S
H1653 C1659 0.930 . S
C1654 H1640 0.930 . S
C1654 C1652 1.395 . S
C1654 C1657 1.403 . S
C1655 C1652 1.403 . S
C1655 C1656 1.524 . S
C1655 C1659 1.400 . S
C1656 H1641 0.960 . S
C1656 H1642 0.960 . S
C1656 H1643 0.960 . S
C1656 C1655 1.524 . S
C1657 C1654 1.403 . S
C1657 C1658 1.392 . S
C1657 C1661 1.495 . S
C1658 C1657 1.392 . S
C1658 C1659 1.385 . S
C1658 C1660 1.478 . S
C1659 H1653 0.930 . S
C1659 C1655 1.400 . S
C1659 C1658 1.385 . S
C1660 C1658 1.478 . S
C1660 C1662 1.381 . S
C1660 C1666 1.383 . S
C1661 C1657 1.495 . S
C1661 H1667 0.959 . S
C1661 H1668 0.961 . S
C1661 H1669 0.960 . S
C1662 C1660 1.381 . S
C1662 C1663 1.394 1_565 S
C1662 H1670 0.930 . S
C1663 C1662 1.394 1_545 S
C1663 C1664 1.383 . S
C1663 H1671 0.929 . S
C1664 C1663 1.383 . S
C1664 C1665 1.377 . S
C1665 H1649 0.930 . S
C1665 C1664 1.377 . S
C1665 C1666 1.379 1_545 S
C1666 H1650 0.931 . S
C1666 C1660 1.383 . S
C1666 C1665 1.379 1_565 S
H1667 C1661 0.959 . S
H1668 C1661 0.961 . S
H1669 C1661 0.960 . S
H1670 C1662 0.930 . S
H1671 C1663 0.929 . S
H1672 C1680 0.929 . S
H1673 C1682 0.930 . S
H1674 C1684 0.930 . S
H1675 C1687 0.929 . S
H1676 C1690 0.930 . S
H1677 C1692 0.960 . S
H1678 C1692 0.960 . S
H1679 C1692 0.960 . S
C1680 H1672 0.929 . S
C1680 C1681 1.377 . S
C1680 C1682 1.384 1_545 S
C1681 C1680 1.377 . S
C1681 C1687 1.390 1_545 S
C1682 H1673 0.930 . S
C1682 C1680 1.384 1_565 S
C1682 C1683 1.372 . S
C1683 C1682 1.372 . S
C1683 C1684 1.400 . S
C1683 C1688 1.490 . S
C1684 H1674 0.930 . S
C1684 C1683 1.400 . S
C1684 C1687 1.386 . S
H1685 C1701 0.930 . S
H1686 C1702 0.931 . S
C1687 H1675 0.929 . S
C1687 C1681 1.390 1_565 S
C1687 C1684 1.386 . S
C1688 C1683 1.490 . S
C1688 C1690 1.395 . S
C1688 C1691 1.403 . S
H1689 C1695 0.930 . S
C1690 H1676 0.930 . S
C1690 C1688 1.395 . S
C1690 C1693 1.403 . S
C1691 C1688 1.403 . S
C1691 C1692 1.524 . S
C1691 C1695 1.400 . S
C1692 H1677 0.960 . S
C1692 H1678 0.960 . S
C1692 H1679 0.960 . S
C1692 C1691 1.524 . S
C1693 C1690 1.403 . S
C1693 C1694 1.392 . S
C1693 C1697 1.495 . S
C1694 C1693 1.392 . S
C1694 C1695 1.385 . S
C1694 C1696 1.478 . S
C1695 H1689 0.930 . S
C1695 C1691 1.400 . S
C1695 C1694 1.385 . S
C1696 C1694 1.478 . S
C1696 C1698 1.381 . S
C1696 C1702 1.383 . S
C1697 C1693 1.495 . S
C1697 H1703 0.959 . S
C1697 H1704 0.961 . S
C1697 H1705 0.960 . S
C1698 C1696 1.381 . S
C1698 C1699 1.394 . S
C1698 H1706 0.930 . S
C1699 C1698 1.394 . S
C1699 C1700 1.383 . S
C1699 H1707 0.929 . S
C1700 C1699 1.383 . S
C1700 C1701 1.377 . S
C1701 H1685 0.930 . S
C1701 C1700 1.377 . S
C1701 C1702 1.379 . S
C1702 H1686 0.931 . S
C1702 C1696 1.383 . S
C1702 C1701 1.379 . S
H1703 C1697 0.959 . S
H1704 C1697 0.961 . S
H1705 C1697 0.960 . S
H1706 C1698 0.930 . S
H1707 C1699 0.929 . S
H1708 C1716 0.929 . S
H1709 C1718 0.930 . S
H1710 C1720 0.930 . S
H1711 C1723 0.929 . S
H1712 C1726 0.930 . S
H1713 C1728 0.960 . S
H1714 C1728 0.960 . S
H1715 C1728 0.960 . S
C1716 H1708 0.929 . S
C1716 C1717 1.377 . S
C1716 C1718 1.384 . S
C1717 C1716 1.377 . S
C1717 C1723 1.390 . S
C1718 H1709 0.930 . S
C1718 C1716 1.384 . S
C1718 C1719 1.372 . S
C1719 C1718 1.372 . S
C1719 C1720 1.400 . S
C1719 C1724 1.490 . S
C1720 H1710 0.930 . S
C1720 C1719 1.400 . S
C1720 C1723 1.386 . S
H1721 C1737 0.930 . S
H1722 C1738 0.931 . S
C1723 H1711 0.929 . S
C1723 C1717 1.390 . S
C1723 C1720 1.386 . S
C1724 C1719 1.490 . S
C1724 C1726 1.395 . S
C1724 C1727 1.403 . S
H1725 C1731 0.930 . S
C1726 H1712 0.930 . S
C1726 C1724 1.395 . S
C1726 C1729 1.403 . S
C1727 C1724 1.403 . S
C1727 C1728 1.524 . S
C1727 C1731 1.400 . S
C1728 H1713 0.960 . S
C1728 H1714 0.960 . S
C1728 H1715 0.960 . S
C1728 C1727 1.524 . S
C1729 C1726 1.403 . S
C1729 C1730 1.392 . S
C1729 C1733 1.495 . S
C1730 C1729 1.392 . S
C1730 C1731 1.385 . S
C1730 C1732 1.478 . S
C1731 H1725 0.930 . S
C1731 C1727 1.400 . S
C1731 C1730 1.385 . S
C1732 C1730 1.478 . S
C1732 C1734 1.381 . S
C1732 C1738 1.383 . S
C1733 C1729 1.495 . S
C1733 H1739 0.959 . S
C1733 H1740 0.961 . S
C1733 H1741 0.960 . S
C1734 C1732 1.381 . S
C1734 C1735 1.394 . S
C1734 H1742 0.930 . S
C1735 C1734 1.394 . S
C1735 C1736 1.383 . S
C1735 H1743 0.929 . S
C1736 C1735 1.383 . S
C1736 C1737 1.377 . S
C1737 H1721 0.930 . S
C1737 C1736 1.377 . S
C1737 C1738 1.379 . S
C1738 H1722 0.931 . S
C1738 C1732 1.383 . S
C1738 C1737 1.379 . S
H1739 C1733 0.959 . S
H1740 C1733 0.961 . S
H1741 C1733 0.960 . S
H1742 C1734 0.930 . S
H1743 C1735 0.929 . S
H1744 C1752 0.929 . S
H1745 C1754 0.930 . S
H1746 C1756 0.930 . S
H1747 C1759 0.929 . S
H1748 C1762 0.930 . S
H1749 C1764 0.960 . S
H1750 C1764 0.960 . S
H1751 C1764 0.960 . S
C1752 H1744 0.929 . S
C1752 C1753 1.377 . S
C1752 C1754 1.384 . S
C1753 C1752 1.377 . S
C1753 C1759 1.390 . S
C1754 H1745 0.930 . S
C1754 C1752 1.384 . S
C1754 C1755 1.372 . S
C1755 C1754 1.372 . S
C1755 C1756 1.400 . S
C1755 C1760 1.490 . S
C1756 H1746 0.930 . S
C1756 C1755 1.400 . S
C1756 C1759 1.386 . S
H1757 C1773 0.930 . S
H1758 C1774 0.931 . S
C1759 H1747 0.929 . S
C1759 C1753 1.390 . S
C1759 C1756 1.386 . S
C1760 C1755 1.490 . S
C1760 C1762 1.395 . S
C1760 C1763 1.403 . S
H1761 C1767 0.930 . S
C1762 H1748 0.930 . S
C1762 C1760 1.395 . S
C1762 C1765 1.403 . S
C1763 C1760 1.403 . S
C1763 C1764 1.524 . S
C1763 C1767 1.400 . S
C1764 H1749 0.960 . S
C1764 H1750 0.960 . S
C1764 H1751 0.960 . S
C1764 C1763 1.524 . S
C1765 C1762 1.403 . S
C1765 C1766 1.392 . S
C1765 C1769 1.495 . S
C1766 C1765 1.392 . S
C1766 C1767 1.385 . S
C1766 C1768 1.478 . S
C1767 H1761 0.930 . S
C1767 C1763 1.400 . S
C1767 C1766 1.385 . S
C1768 C1766 1.478 . S
C1768 C1770 1.381 . S
C1768 C1774 1.383 . S
C1769 C1765 1.495 . S
C1769 H1775 0.959 . S
C1769 H1776 0.961 . S
C1769 H1777 0.960 . S
C1770 C1768 1.381 . S
C1770 C1771 1.394 . S
C1770 H1778 0.930 . S
C1771 C1770 1.394 . S
C1771 C1772 1.383 . S
C1771 H1779 0.929 . S
C1772 C1771 1.383 . S
C1772 C1773 1.377 . S
C1773 H1757 0.930 . S
C1773 C1772 1.377 . S
C1773 C1774 1.379 . S
C1774 H1758 0.931 . S
C1774 C1768 1.383 . S
C1774 C1773 1.379 . S
H1775 C1769 0.959 . S
H1776 C1769 0.961 . S
H1777 C1769 0.960 . S
H1778 C1770 0.930 . S
H1779 C1771 0.929 . S
H1780 C1788 0.927 1_565 S
H1781 C1790 0.930 . S
H1782 C1792 0.930 . S
H1783 C1795 0.929 . S
H1784 C1798 0.930 . S
H1785 C1800 0.960 . S
H1786 C1800 0.960 . S
H1787 C1800 0.960 . S
C1788 H1780 0.927 1_545 S
C1788 C1789 1.377 1_545 S
C1788 C1790 1.384 . S
C1789 C1788 1.377 1_565 S
C1789 C1795 1.390 . S
C1790 H1781 0.930 . S
C1790 C1788 1.384 . S
C1790 C1791 1.372 . S
C1791 C1790 1.372 . S
C1791 C1792 1.400 . S
C1791 C1796 1.490 . S
C1792 H1782 0.930 . S
C1792 C1791 1.400 . S
C1792 C1795 1.386 1_545 S
H1793 C1809 0.930 . S
H1794 C1810 0.931 . S
C1795 H1783 0.929 . S
C1795 C1789 1.390 . S
C1795 C1792 1.386 1_565 S
C1796 C1791 1.490 . S
C1796 C1798 1.395 . S
C1796 C1799 1.403 . S
H1797 C1803 0.930 . S
C1798 H1784 0.930 . S
C1798 C1796 1.395 . S
C1798 C1801 1.403 . S
C1799 C1796 1.403 . S
C1799 C1800 1.524 . S
C1799 C1803 1.400 . S
C1800 H1785 0.960 . S
C1800 H1786 0.960 . S
C1800 H1787 0.960 . S
C1800 C1799 1.524 . S
C1801 C1798 1.403 . S
C1801 C1802 1.392 . S
C1801 C1805 1.495 . S
C1802 C1801 1.392 . S
C1802 C1803 1.385 . S
C1802 C1804 1.478 . S
C1803 H1797 0.930 . S
C1803 C1799 1.400 . S
C1803 C1802 1.385 . S
C1804 C1802 1.478 . S
C1804 C1806 1.381 . S
C1804 C1810 1.383 . S
C1805 C1801 1.495 . S
C1805 H1811 0.959 . S
C1805 H1812 0.961 . S
C1805 H1813 0.960 . S
C1806 C1804 1.381 . S
C1806 C1807 1.394 . S
C1806 H1814 0.930 . S
C1807 C1806 1.394 . S
C1807 C1808 1.383 . S
C1807 H1815 0.929 . S
C1808 C1807 1.383 . S
C1808 C1809 1.377 . S
C1809 H1793 0.930 . S
C1809 C1808 1.377 . S
C1809 C1810 1.379 . S
C1810 H1794 0.931 . S
C1810 C1804 1.383 . S
C1810 C1809 1.379 . S
H1811 C1805 0.959 . S
H1812 C1805 0.961 . S
H1813 C1805 0.960 . S
H1814 C1806 0.930 . S
H1815 C1807 0.929 . S
H1816 C1824 0.929 . S
H1817 C1826 0.930 . S
H1818 C1828 0.930 . S
H1819 C1831 0.929 . S
H1820 C1834 0.930 . S
H1821 C1836 0.960 . S
H1822 C1836 0.960 . S
H1823 C1836 0.960 . S
C1824 H1816 0.929 . S
C1824 C1825 1.377 . S
C1824 C1826 1.384 . S
C1825 C1824 1.377 . S
C1825 C1831 1.390 . S
C1826 H1817 0.930 . S
C1826 C1824 1.384 . S
C1826 C1827 1.372 . S
C1827 C1826 1.372 . S
C1827 C1828 1.400 . S
C1827 C1832 1.490 . S
C1828 H1818 0.930 . S
C1828 C1827 1.400 . S
C1828 C1831 1.386 . S
H1829 C1845 0.930 . S
H1830 C1846 0.931 . S
C1831 H1819 0.929 . S
C1831 C1825 1.390 . S
C1831 C1828 1.386 . S
C1832 C1827 1.490 . S
C1832 C1834 1.395 . S
C1832 C1835 1.403 . S
H1833 C1839 0.930 . S
C1834 H1820 0.930 . S
C1834 C1832 1.395 . S
C1834 C1837 1.403 . S
C1835 C1832 1.403 . S
C1835 C1836 1.524 . S
C1835 C1839 1.400 . S
C1836 H1821 0.960 . S
C1836 H1822 0.960 . S
C1836 H1823 0.960 . S
C1836 C1835 1.524 . S
C1837 C1834 1.403 . S
C1837 C1838 1.392 . S
C1837 C1841 1.495 . S
C1838 C1837 1.392 . S
C1838 C1839 1.385 . S
C1838 C1840 1.478 . S
C1839 H1833 0.930 . S
C1839 C1835 1.400 . S
C1839 C1838 1.385 . S
C1840 C1838 1.478 . S
C1840 C1842 1.381 . S
C1840 C1846 1.383 . S
C1841 C1837 1.495 . S
C1841 H1847 0.959 . S
C1841 H1848 0.961 . S
C1841 H1849 0.960 . S
C1842 C1840 1.381 . S
C1842 C1843 1.394 1_545 S
C1842 H1850 0.930 . S
C1843 C1842 1.394 1_565 S
C1843 C1844 1.383 . S
C1843 H1851 0.929 . S
C1844 C1843 1.383 . S
C1844 C1845 1.377 . S
C1845 H1829 0.930 . S
C1845 C1844 1.377 . S
C1845 C1846 1.379 1_565 S
C1846 H1830 0.931 . S
C1846 C1840 1.383 . S
C1846 C1845 1.379 1_545 S
H1847 C1841 0.959 . S
H1848 C1841 0.961 . S
H1849 C1841 0.960 . S
H1850 C1842 0.930 . S
H1851 C1843 0.929 . S
H1852 C1860 0.929 . S
H1853 C1862 0.930 . S
H1854 C1864 0.930 . S
H1855 C1867 0.929 . S
H1856 C1870 0.930 . S
H1857 C1872 0.960 . S
H1858 C1872 0.960 . S
H1859 C1872 0.960 . S
C1860 H1852 0.929 . S
C1860 C1861 1.377 . S
C1860 C1862 1.384 . S
C1861 C1860 1.377 . S
C1861 C1867 1.390 . S
C1862 H1853 0.930 . S
C1862 C1860 1.384 . S
C1862 C1863 1.372 . S
C1863 C1862 1.372 . S
C1863 C1864 1.400 . S
C1863 C1868 1.490 . S
C1864 H1854 0.930 . S
C1864 C1863 1.400 . S
C1864 C1867 1.386 . S
H1865 C1881 0.930 . S
H1866 C1882 0.931 . S
C1867 H1855 0.929 . S
C1867 C1861 1.390 . S
C1867 C1864 1.386 . S
C1868 C1863 1.490 . S
C1868 C1870 1.395 . S
C1868 C1871 1.403 . S
H1869 C1875 0.930 . S
C1870 H1856 0.930 . S
C1870 C1868 1.395 . S
C1870 C1873 1.403 . S
C1871 C1868 1.403 . S
C1871 C1872 1.524 . S
C1871 C1875 1.400 . S
C1872 H1857 0.960 . S
C1872 H1858 0.960 . S
C1872 H1859 0.960 . S
C1872 C1871 1.524 . S
C1873 C1870 1.403 . S
C1873 C1874 1.392 . S
C1873 C1877 1.495 . S
C1874 C1873 1.392 . S
C1874 C1875 1.385 . S
C1874 C1876 1.478 . S
C1875 H1869 0.930 . S
C1875 C1871 1.400 . S
C1875 C1874 1.385 . S
C1876 C1874 1.478 . S
C1876 C1878 1.381 . S
C1876 C1882 1.383 . S
C1877 C1873 1.495 . S
C1877 H1883 0.959 . S
C1877 H1884 0.961 . S
C1877 H1885 0.960 . S
C1878 C1876 1.381 . S
C1878 C1879 1.394 . S
C1878 H1886 0.930 . S
C1879 C1878 1.394 . S
C1879 C1880 1.383 . S
C1879 H1887 0.929 . S
C1880 C1879 1.383 . S
C1880 C1881 1.377 . S
C1881 H1865 0.930 . S
C1881 C1880 1.377 . S
C1881 C1882 1.379 . S
C1882 H1866 0.931 . S
C1882 C1876 1.383 . S
C1882 C1881 1.379 . S
H1883 C1877 0.959 . S
H1884 C1877 0.961 . S
H1885 C1877 0.960 . S
H1886 C1878 0.930 . S
H1887 C1879 0.929 . S
H1888 C1896 0.929 . S
H1889 C1898 0.930 . S
H1890 C1900 0.930 . S
H1891 C1903 0.929 . S
H1892 C1906 0.930 . S
H1893 C1908 0.960 . S
H1894 C1908 0.960 . S
H1895 C1908 0.960 . S
C1896 H1888 0.929 . S
C1896 C1897 1.377 . S
C1896 C1898 1.384 . S
C1897 C1896 1.377 . S
C1897 C1903 1.390 . S
C1898 H1889 0.930 . S
C1898 C1896 1.384 . S
C1898 C1899 1.372 . S
C1899 C1898 1.372 . S
C1899 C1900 1.400 . S
C1899 C1904 1.490 . S
C1900 H1890 0.930 . S
C1900 C1899 1.400 . S
C1900 C1903 1.386 . S
H1901 C1917 0.930 . S
H1902 C1918 0.931 . S
C1903 H1891 0.929 . S
C1903 C1897 1.390 . S
C1903 C1900 1.386 . S
C1904 C1899 1.490 . S
C1904 C1906 1.395 . S
C1904 C1907 1.403 . S
H1905 C1911 0.930 . S
C1906 H1892 0.930 . S
C1906 C1904 1.395 . S
C1906 C1909 1.403 . S
C1907 C1904 1.403 . S
C1907 C1908 1.524 . S
C1907 C1911 1.400 . S
C1908 H1893 0.960 . S
C1908 H1894 0.960 . S
C1908 H1895 0.960 . S
C1908 C1907 1.524 . S
C1909 C1906 1.403 . S
C1909 C1910 1.392 . S
C1909 C1913 1.495 . S
C1910 C1909 1.392 . S
C1910 C1911 1.385 . S
C1910 C1912 1.478 . S
C1911 H1905 0.930 . S
C1911 C1907 1.400 . S
C1911 C1910 1.385 . S
C1912 C1910 1.478 . S
C1912 C1914 1.381 . S
C1912 C1918 1.383 . S
C1913 C1909 1.495 . S
C1913 H1919 0.959 . S
C1913 H1920 0.961 . S
C1913 H1921 0.960 . S
C1914 C1912 1.381 . S
C1914 C1915 1.394 . S
C1914 H1922 0.930 . S
C1915 C1914 1.394 . S
C1915 C1916 1.383 . S
C1915 H1923 0.929 . S
C1916 C1915 1.383 . S
C1916 C1917 1.377 . S
C1917 H1901 0.930 . S
C1917 C1916 1.377 . S
C1917 C1918 1.379 . S
C1918 H1902 0.931 . S
C1918 C1912 1.383 . S
C1918 C1917 1.379 . S
H1919 C1913 0.959 . S
H1920 C1913 0.961 . S
H1921 C1913 0.960 . S
H1922 C1914 0.930 . S
H1923 C1915 0.929 . S
H1924 C1932 0.929 . S
H1925 C1934 0.930 . S
H1926 C1936 0.930 . S
H1927 C1939 0.929 . S
H1928 C1942 0.930 . S
H1929 C1944 0.960 . S
H1930 C1944 0.960 . S
H1931 C1944 0.960 . S
C1932 H1924 0.929 . S
C1932 C1933 1.377 . S
C1932 C1934 1.384 . S
C1933 C1932 1.377 . S
C1933 C1939 1.390 . S
C1934 H1925 0.930 . S
C1934 C1932 1.384 . S
C1934 C1935 1.372 . S
C1935 C1934 1.372 . S
C1935 C1936 1.400 . S
C1935 C1940 1.490 . S
C1936 H1926 0.930 . S
C1936 C1935 1.400 . S
C1936 C1939 1.386 . S
H1937 C1953 0.930 . S
H1938 C1954 0.931 . S
C1939 H1927 0.929 . S
C1939 C1933 1.390 . S
C1939 C1936 1.386 . S
C1940 C1935 1.490 . S
C1940 C1942 1.395 . S
C1940 C1943 1.403 . S
H1941 C1947 0.930 . S
C1942 H1928 0.930 . S
C1942 C1940 1.395 . S
C1942 C1945 1.403 . S
C1943 C1940 1.403 . S
C1943 C1944 1.524 . S
C1943 C1947 1.400 . S
C1944 H1929 0.960 . S
C1944 H1930 0.960 . S
C1944 H1931 0.960 . S
C1944 C1943 1.524 . S
C1945 C1942 1.403 . S
C1945 C1946 1.392 . S
C1945 C1949 1.495 . S
C1946 C1945 1.392 . S
C1946 C1947 1.385 . S
C1946 C1948 1.478 . S
C1947 H1941 0.930 . S
C1947 C1943 1.400 . S
C1947 C1946 1.385 . S
C1948 C1946 1.478 . S
C1948 C1950 1.381 . S
C1948 C1954 1.383 . S
C1949 C1945 1.495 . S
C1949 H1955 0.959 . S
C1949 H1956 0.961 . S
C1949 H1957 0.960 . S
C1950 C1948 1.381 . S
C1950 C1951 1.394 . S
C1950 H1958 0.930 . S
C1951 C1950 1.394 . S
C1951 C1952 1.383 1_565 S
C1951 H1959 0.929 . S
C1952 C1951 1.383 1_545 S
C1952 C1953 1.377 . S
C1953 H1937 0.930 . S
C1953 C1952 1.377 . S
C1953 C1954 1.379 1_545 S
C1954 H1938 0.931 . S
C1954 C1948 1.383 . S
C1954 C1953 1.379 1_565 S
H1955 C1949 0.959 . S
H1956 C1949 0.961 . S
H1957 C1949 0.960 . S
H1958 C1950 0.930 . S
H1959 C1951 0.929 . S
H1960 C1968 0.929 . S
H1961 C1970 0.930 . S
H1962 C1972 0.930 . S
H1963 C1975 0.929 . S
H1964 C1978 0.930 . S
H1965 C1980 0.960 . S
H1966 C1980 0.960 . S
H1967 C1980 0.960 . S
C1968 H1960 0.929 . S
C1968 C1969 1.377 . S
C1968 C1970 1.384 . S
C1969 C1968 1.377 . S
C1969 C1975 1.390 . S
C1970 H1961 0.930 . S
C1970 C1968 1.384 . S
C1970 C1971 1.372 . S
C1971 C1970 1.372 . S
C1971 C1972 1.400 . S
C1971 C1976 1.490 . S
C1972 H1962 0.930 . S
C1972 C1971 1.400 . S
C1972 C1975 1.386 . S
H1973 C1989 0.930 . S
H1974 C1990 0.931 . S
C1975 H1963 0.929 . S
C1975 C1969 1.390 . S
C1975 C1972 1.386 . S
C1976 C1971 1.490 . S
C1976 C1978 1.395 . S
C1976 C1979 1.403 . S
H1977 C1983 0.930 . S
C1978 H1964 0.930 . S
C1978 C1976 1.395 . S
C1978 C1981 1.403 . S
C1979 C1976 1.403 . S
C1979 C1980 1.524 . S
C1979 C1983 1.400 . S
C1980 H1965 0.960 . S
C1980 H1966 0.960 . S
C1980 H1967 0.960 . S
C1980 C1979 1.524 . S
C1981 C1978 1.403 . S
C1981 C1982 1.392 . S
C1981 C1985 1.495 . S
C1982 C1981 1.392 . S
C1982 C1983 1.385 . S
C1982 C1984 1.478 . S
C1983 H1977 0.930 . S
C1983 C1979 1.400 . S
C1983 C1982 1.385 . S
C1984 C1982 1.478 . S
C1984 C1986 1.381 . S
C1984 C1990 1.383 . S
C1985 C1981 1.495 . S
C1985 H1991 0.959 . S
C1985 H1992 0.961 . S
C1985 H1993 0.960 . S
C1986 C1984 1.381 . S
C1986 C1987 1.394 1_565 S
C1986 H1994 0.930 . S
C1987 C1986 1.394 1_545 S
C1987 C1988 1.383 . S
C1987 H1995 0.929 . S
C1988 C1987 1.383 . S
C1988 C1989 1.377 1_545 S
C1989 H1973 0.930 . S
C1989 C1988 1.377 1_565 S
C1989 C1990 1.379 . S
C1990 H1974 0.931 . S
C1990 C1984 1.383 . S
C1990 C1989 1.379 . S
H1991 C1985 0.959 . S
H1992 C1985 0.961 . S
H1993 C1985 0.960 . S
H1994 C1986 0.930 . S
H1995 C1987 0.929 . S
H1996 C2004 0.929 . S
H1997 C2006 0.930 . S
H1998 C2008 0.930 . S
H1999 C2011 0.929 . S
H2000 C2014 0.930 . S
H2001 C2016 0.960 . S
H2002 C2016 0.960 . S
H2003 C2016 0.960 . S
C2004 H1996 0.929 . S
C2004 C2005 1.377 . S
C2004 C2006 1.384 . S
C2005 C2004 1.377 . S
C2005 C2011 1.390 . S
C2006 H1997 0.930 . S
C2006 C2004 1.384 . S
C2006 C2007 1.372 . S
C2007 C2006 1.372 . S
C2007 C2008 1.400 . S
C2007 C2012 1.490 . S
C2008 H1998 0.930 . S
C2008 C2007 1.400 . S
C2008 C2011 1.386 . S
H2009 C2025 0.930 . S
H2010 C2026 0.931 . S
C2011 H1999 0.929 . S
C2011 C2005 1.390 . S
C2011 C2008 1.386 . S
C2012 C2007 1.490 . S
C2012 C2014 1.395 . S
C2012 C2015 1.403 . S
H2013 C2019 0.930 . S
C2014 H2000 0.930 . S
C2014 C2012 1.395 . S
C2014 C2017 1.403 . S
C2015 C2012 1.403 . S
C2015 C2016 1.524 . S
C2015 C2019 1.400 . S
C2016 H2001 0.960 . S
C2016 H2002 0.960 . S
C2016 H2003 0.960 . S
C2016 C2015 1.524 . S
C2017 C2014 1.403 . S
C2017 C2018 1.392 . S
C2017 C2021 1.495 . S
C2018 C2017 1.392 . S
C2018 C2019 1.385 . S
C2018 C2020 1.478 . S
C2019 H2013 0.930 . S
C2019 C2015 1.400 . S
C2019 C2018 1.385 . S
C2020 C2018 1.478 . S
C2020 C2022 1.381 . S
C2020 C2026 1.383 . S
C2021 C2017 1.495 . S
C2021 H2027 0.959 . S
C2021 H2028 0.961 . S
C2021 H2029 0.960 . S
C2022 C2020 1.381 . S
C2022 C2023 1.394 . S
C2022 H2030 0.930 . S
C2023 C2022 1.394 . S
C2023 C2024 1.383 . S
C2023 H2031 0.929 . S
C2024 C2023 1.383 . S
C2024 C2025 1.377 . S
C2025 H2009 0.930 . S
C2025 C2024 1.377 . S
C2025 C2026 1.379 . S
C2026 H2010 0.931 . S
C2026 C2020 1.383 . S
C2026 C2025 1.379 . S
H2027 C2021 0.959 . S
H2028 C2021 0.961 . S
H2029 C2021 0.960 . S
H2030 C2022 0.930 . S
H2031 C2023 0.929 . S
H2032 C2040 0.929 . S
H2033 C2042 0.930 . S
H2034 C2044 0.930 . S
H2035 C2047 0.929 . S
H2036 C2050 0.930 . S
H2037 C2052 0.960 . S
H2038 C2052 0.960 . S
H2039 C2052 0.960 . S
C2040 H2032 0.929 . S
C2040 C2041 1.377 . S
C2040 C2042 1.384 . S
C2041 C2040 1.377 . S
C2041 C2047 1.390 . S
C2042 H2033 0.930 . S
C2042 C2040 1.384 . S
C2042 C2043 1.372 . S
C2043 C2042 1.372 . S
C2043 C2044 1.400 . S
C2043 C2048 1.490 . S
C2044 H2034 0.930 . S
C2044 C2043 1.400 . S
C2044 C2047 1.386 . S
H2045 C2061 0.930 . S
H2046 C2062 0.931 . S
C2047 H2035 0.929 . S
C2047 C2041 1.390 . S
C2047 C2044 1.386 . S
C2048 C2043 1.490 . S
C2048 C2050 1.395 . S
C2048 C2051 1.403 . S
H2049 C2055 0.930 . S
C2050 H2036 0.930 . S
C2050 C2048 1.395 . S
C2050 C2053 1.403 . S
C2051 C2048 1.403 . S
C2051 C2052 1.524 . S
C2051 C2055 1.400 . S
C2052 H2037 0.960 . S
C2052 H2038 0.960 . S
C2052 H2039 0.960 . S
C2052 C2051 1.524 . S
C2053 C2050 1.403 . S
C2053 C2054 1.392 . S
C2053 C2057 1.495 . S
C2054 C2053 1.392 . S
C2054 C2055 1.385 . S
C2054 C2056 1.478 . S
C2055 H2049 0.930 . S
C2055 C2051 1.400 . S
C2055 C2054 1.385 . S
C2056 C2054 1.478 . S
C2056 C2058 1.381 . S
C2056 C2062 1.383 . S
C2057 C2053 1.495 . S
C2057 H2063 0.959 . S
C2057 H2064 0.961 . S
C2057 H2065 0.960 . S
C2058 C2056 1.381 . S
C2058 C2059 1.394 . S
C2058 H2066 0.930 . S
C2059 C2058 1.394 . S
C2059 C2060 1.383 . S
C2059 H2067 0.929 . S
C2060 C2059 1.383 . S
C2060 C2061 1.377 . S
C2061 H2045 0.930 . S
C2061 C2060 1.377 . S
C2061 C2062 1.379 . S
C2062 H2046 0.931 . S
C2062 C2056 1.383 . S
C2062 C2061 1.379 . S
H2063 C2057 0.959 . S
H2064 C2057 0.961 . S
H2065 C2057 0.960 . S
H2066 C2058 0.930 . S
H2067 C2059 0.929 . S
H2068 C2076 0.929 . S
H2069 C2078 0.930 . S
H2070 C2080 0.930 . S
H2071 C2083 0.929 . S
H2072 C2086 0.930 . S
H2073 C2088 0.960 . S
H2074 C2088 0.960 . S
H2075 C2088 0.960 . S
C2076 H2068 0.929 . S
C2076 C2077 1.377 . S
C2076 C2078 1.384 1_565 S
C2077 C2076 1.377 . S
C2077 C2083 1.390 . S
C2078 H2069 0.930 . S
C2078 C2076 1.384 1_545 S
C2078 C2079 1.372 . S
C2079 C2078 1.372 . S
C2079 C2080 1.400 . S
C2079 C2084 1.490 . S
C2080 H2070 0.930 . S
C2080 C2079 1.400 . S
C2080 C2083 1.386 1_545 S
H2081 C2097 0.930 . S
H2082 C2098 0.931 . S
C2083 H2071 0.929 . S
C2083 C2077 1.390 . S
C2083 C2080 1.386 1_565 S
C2084 C2079 1.490 . S
C2084 C2086 1.395 . S
C2084 C2087 1.403 . S
H2085 C2091 0.930 . S
C2086 H2072 0.930 . S
C2086 C2084 1.395 . S
C2086 C2089 1.403 . S
C2087 C2084 1.403 . S
C2087 C2088 1.524 . S
C2087 C2091 1.400 . S
C2088 H2073 0.960 . S
C2088 H2074 0.960 . S
C2088 H2075 0.960 . S
C2088 C2087 1.524 . S
C2089 C2086 1.403 . S
C2089 C2090 1.392 . S
C2089 C2093 1.495 . S
C2090 C2089 1.392 . S
C2090 C2091 1.385 . S
C2090 C2092 1.478 . S
C2091 H2085 0.930 . S
C2091 C2087 1.400 . S
C2091 C2090 1.385 . S
C2092 C2090 1.478 . S
C2092 C2094 1.381 . S
C2092 C2098 1.383 . S
C2093 C2089 1.495 . S
C2093 H2099 0.959 . S
C2093 H2100 0.961 . S
C2093 H2101 0.960 . S
C2094 C2092 1.381 . S
C2094 C2095 1.394 . S
C2094 H2102 0.930 . S
C2095 C2094 1.394 . S
C2095 C2096 1.383 . S
C2095 H2103 0.929 . S
C2096 C2095 1.383 . S
C2096 C2097 1.377 . S
C2097 H2081 0.930 . S
C2097 C2096 1.377 . S
C2097 C2098 1.379 . S
C2098 H2082 0.931 . S
C2098 C2092 1.383 . S
C2098 C2097 1.379 . S
H2099 C2093 0.959 . S
H2100 C2093 0.961 . S
H2101 C2093 0.960 . S
H2102 C2094 0.930 . S
H2103 C2095 0.929 . S
H2104 C2112 0.929 . S
H2105 C2114 0.930 . S
H2106 C2116 0.930 . S
H2107 C2119 0.929 . S
H2108 C2122 0.930 . S
H2109 C2124 0.960 . S
H2110 C2124 0.960 . S
H2111 C2124 0.960 . S
C2112 H2104 0.929 . S
C2112 C2113 1.377 . S
C2112 C2114 1.384 . S
C2113 C2112 1.377 . S
C2113 C2119 1.390 . S
C2114 H2105 0.930 . S
C2114 C2112 1.384 . S
C2114 C2115 1.372 . S
C2115 C2114 1.372 . S
C2115 C2116 1.400 . S
C2115 C2120 1.490 . S
C2116 H2106 0.930 . S
C2116 C2115 1.400 . S
C2116 C2119 1.386 . S
H2117 C2133 0.930 . S
H2118 C2134 0.931 . S
C2119 H2107 0.929 . S
C2119 C2113 1.390 . S
C2119 C2116 1.386 . S
C2120 C2115 1.490 . S
C2120 C2122 1.395 . S
C2120 C2123 1.403 . S
H2121 C2127 0.930 . S
C2122 H2108 0.930 . S
C2122 C2120 1.395 . S
C2122 C2125 1.403 . S
C2123 C2120 1.403 . S
C2123 C2124 1.524 . S
C2123 C2127 1.400 . S
C2124 H2109 0.960 . S
C2124 H2110 0.960 . S
C2124 H2111 0.960 . S
C2124 C2123 1.524 . S
C2125 C2122 1.403 . S
C2125 C2126 1.392 . S
C2125 C2129 1.495 . S
C2126 C2125 1.392 . S
C2126 C2127 1.385 . S
C2126 C2128 1.478 . S
C2127 H2121 0.930 . S
C2127 C2123 1.400 . S
C2127 C2126 1.385 . S
C2128 C2126 1.478 . S
C2128 C2130 1.381 . S
C2128 C2134 1.383 . S
C2129 C2125 1.495 . S
C2129 H2135 0.959 . S
C2129 H2136 0.961 . S
C2129 H2137 0.960 . S
C2130 C2128 1.381 . S
C2130 C2131 1.394 1_545 S
C2130 H2138 0.930 . S
C2131 C2130 1.394 1_565 S
C2131 C2132 1.383 . S
C2131 H2139 0.929 . S
C2132 C2131 1.383 . S
C2132 C2133 1.377 . S
C2133 H2117 0.930 . S
C2133 C2132 1.377 . S
C2133 C2134 1.379 1_565 S
C2134 H2118 0.931 . S
C2134 C2128 1.383 . S
C2134 C2133 1.379 1_545 S
H2135 C2129 0.959 . S
H2136 C2129 0.961 . S
H2137 C2129 0.960 . S
H2138 C2130 0.930 . S
H2139 C2131 0.929 . S
H2140 C2148 0.929 . S
H2141 C2150 0.930 . S
H2142 C2152 0.930 . S
H2143 C2155 0.929 . S
H2144 C2158 0.930 . S
H2145 C2160 0.960 . S
H2146 C2160 0.960 . S
H2147 C2160 0.960 . S
C2148 H2140 0.929 . S
C2148 C2149 1.377 . S
C2148 C2150 1.384 . S
C2149 C2148 1.377 . S
C2149 C2155 1.390 . S
C2150 H2141 0.930 . S
C2150 C2148 1.384 . S
C2150 C2151 1.372 . S
C2151 C2150 1.372 . S
C2151 C2152 1.400 . S
C2151 C2156 1.490 . S
C2152 H2142 0.930 . S
C2152 C2151 1.400 . S
C2152 C2155 1.386 . S
H2153 C2169 0.930 . S
H2154 C2170 0.931 . S
C2155 H2143 0.929 . S
C2155 C2149 1.390 . S
C2155 C2152 1.386 . S
C2156 C2151 1.490 . S
C2156 C2158 1.395 . S
C2156 C2159 1.403 . S
H2157 C2163 0.930 . S
C2158 H2144 0.930 . S
C2158 C2156 1.395 . S
C2158 C2161 1.403 . S
C2159 C2156 1.403 . S
C2159 C2160 1.524 . S
C2159 C2163 1.400 . S
C2160 H2145 0.960 . S
C2160 H2146 0.960 . S
C2160 H2147 0.960 . S
C2160 C2159 1.524 . S
C2161 C2158 1.403 . S
C2161 C2162 1.392 . S
C2161 C2165 1.495 . S
C2162 C2161 1.392 . S
C2162 C2163 1.385 . S
C2162 C2164 1.478 . S
C2163 H2157 0.930 . S
C2163 C2159 1.400 . S
C2163 C2162 1.385 . S
C2164 C2162 1.478 . S
C2164 C2166 1.381 . S
C2164 C2170 1.383 . S
C2165 C2161 1.495 . S
C2165 H2171 0.959 . S
C2165 H2172 0.961 . S
C2165 H2173 0.960 . S
C2166 C2164 1.381 . S
C2166 C2167 1.394 . S
C2166 H2174 0.930 . S
C2167 C2166 1.394 . S
C2167 C2168 1.383 . S
C2167 H2175 0.929 . S
C2168 C2167 1.383 . S
C2168 C2169 1.377 . S
C2169 H2153 0.930 . S
C2169 C2168 1.377 . S
C2169 C2170 1.379 . S
C2170 H2154 0.931 . S
C2170 C2164 1.383 . S
C2170 C2169 1.379 . S
H2171 C2165 0.959 . S
H2172 C2165 0.961 . S
H2173 C2165 0.960 . S
H2174 C2166 0.930 . S
H2175 C2167 0.929 . S
H2176 C2184 0.929 . S
H2177 C2186 0.930 . S
H2178 C2188 0.930 . S
H2179 C2191 0.929 . S
H2180 C2194 0.930 . S
H2181 C2196 0.960 . S
H2182 C2196 0.960 . S
H2183 C2196 0.960 . S
C2184 H2176 0.929 . S
C2184 C2185 1.377 . S
C2184 C2186 1.384 . S
C2185 C2184 1.377 . S
C2185 C2191 1.390 . S
C2186 H2177 0.930 . S
C2186 C2184 1.384 . S
C2186 C2187 1.372 . S
C2187 C2186 1.372 . S
C2187 C2188 1.400 . S
C2187 C2192 1.490 . S
C2188 H2178 0.930 . S
C2188 C2187 1.400 . S
C2188 C2191 1.386 . S
H2189 C2205 0.930 . S
H2190 C2206 0.931 . S
C2191 H2179 0.929 . S
C2191 C2185 1.390 . S
C2191 C2188 1.386 . S
C2192 C2187 1.490 . S
C2192 C2194 1.395 . S
C2192 C2195 1.403 . S
H2193 C2199 0.930 . S
C2194 H2180 0.930 . S
C2194 C2192 1.395 . S
C2194 C2197 1.403 . S
C2195 C2192 1.403 . S
C2195 C2196 1.524 . S
C2195 C2199 1.400 . S
C2196 H2181 0.960 . S
C2196 H2182 0.960 . S
C2196 H2183 0.960 . S
C2196 C2195 1.524 . S
C2197 C2194 1.403 . S
C2197 C2198 1.392 . S
C2197 C2201 1.495 . S
C2198 C2197 1.392 . S
C2198 C2199 1.385 . S
C2198 C2200 1.478 . S
C2199 H2193 0.930 . S
C2199 C2195 1.400 . S
C2199 C2198 1.385 . S
C2200 C2198 1.478 . S
C2200 C2202 1.381 . S
C2200 C2206 1.383 . S
C2201 C2197 1.495 . S
C2201 H2207 0.959 . S
C2201 H2208 0.961 . S
C2201 H2209 0.960 . S
C2202 C2200 1.381 . S
C2202 C2203 1.394 1_565 S
C2202 H2210 0.930 . S
C2203 C2202 1.394 1_545 S
C2203 C2204 1.383 . S
C2203 H2211 0.929 . S
C2204 C2203 1.383 . S
C2204 C2205 1.377 1_545 S
C2205 H2189 0.930 . S
C2205 C2204 1.377 1_565 S
C2205 C2206 1.379 . S
C2206 H2190 0.931 . S
C2206 C2200 1.383 . S
C2206 C2205 1.379 . S
H2207 C2201 0.959 . S
H2208 C2201 0.961 . S
H2209 C2201 0.960 . S
H2210 C2202 0.930 . S
H2211 C2203 0.929 . S
H2212 C2220 0.929 . S
H2213 C2222 0.930 . S
H2214 C2224 0.930 . S
H2215 C2227 0.929 . S
H2216 C2230 0.930 . S
H2217 C2232 0.960 . S
H2218 C2232 0.960 . S
H2219 C2232 0.960 . S
C2220 H2212 0.929 . S
C2220 C2221 1.377 . S
C2220 C2222 1.384 . S
C2221 C2220 1.377 . S
C2221 C2227 1.390 . S
C2222 H2213 0.930 . S
C2222 C2220 1.384 . S
C2222 C2223 1.372 . S
C2223 C2222 1.372 . S
C2223 C2224 1.400 . S
C2223 C2228 1.490 . S
C2224 H2214 0.930 . S
C2224 C2223 1.400 . S
C2224 C2227 1.386 . S
H2225 C2241 0.930 . S
H2226 C2242 0.931 . S
C2227 H2215 0.929 . S
C2227 C2221 1.390 . S
C2227 C2224 1.386 . S
C2228 C2223 1.490 . S
C2228 C2230 1.395 . S
C2228 C2231 1.403 . S
H2229 C2235 0.930 . S
C2230 H2216 0.930 . S
C2230 C2228 1.395 . S
C2230 C2233 1.403 . S
C2231 C2228 1.403 . S
C2231 C2232 1.524 . S
C2231 C2235 1.400 . S
C2232 H2217 0.960 . S
C2232 H2218 0.960 . S
C2232 H2219 0.960 . S
C2232 C2231 1.524 . S
C2233 C2230 1.403 . S
C2233 C2234 1.392 . S
C2233 C2237 1.495 . S
C2234 C2233 1.392 . S
C2234 C2235 1.385 . S
C2234 C2236 1.478 . S
C2235 H2229 0.930 . S
C2235 C2231 1.400 . S
C2235 C2234 1.385 . S
C2236 C2234 1.478 . S
C2236 C2238 1.381 . S
C2236 C2242 1.383 . S
C2237 C2233 1.495 . S
C2237 H2243 0.959 . S
C2237 H2244 0.961 . S
C2237 H2245 0.960 . S
C2238 C2236 1.381 . S
C2238 C2239 1.394 . S
C2238 H2246 0.930 . S
C2239 C2238 1.394 . S
C2239 C2240 1.383 . S
C2239 H2247 0.929 . S
C2240 C2239 1.383 . S
C2240 C2241 1.377 . S
C2241 H2225 0.930 . S
C2241 C2240 1.377 . S
C2241 C2242 1.379 . S
C2242 H2226 0.931 . S
C2242 C2236 1.383 . S
C2242 C2241 1.379 . S
H2243 C2237 0.959 . S
H2244 C2237 0.961 . S
H2245 C2237 0.960 . S
H2246 C2238 0.930 . S
H2247 C2239 0.929 . S
H2248 C2256 0.929 . S
H2249 C2258 0.930 . S
H2250 C2260 0.930 . S
H2251 C2263 0.929 . S
H2252 C2266 0.930 . S
H2253 C2268 0.960 . S
H2254 C2268 0.960 . S
H2255 C2268 0.960 . S
C2256 H2248 0.929 . S
C2256 C2257 1.377 . S
C2256 C2258 1.384 . S
C2257 C2256 1.377 . S
C2257 C2263 1.390 . S
C2258 H2249 0.930 . S
C2258 C2256 1.384 . S
C2258 C2259 1.372 . S
C2259 C2258 1.372 . S
C2259 C2260 1.400 . S
C2259 C2264 1.490 . S
C2260 H2250 0.930 . S
C2260 C2259 1.400 . S
C2260 C2263 1.386 . S
H2261 C2277 0.930 . S
H2262 C2278 0.931 . S
C2263 H2251 0.929 . S
C2263 C2257 1.390 . S
C2263 C2260 1.386 . S
C2264 C2259 1.490 . S
C2264 C2266 1.395 . S
C2264 C2267 1.403 . S
H2265 C2271 0.930 . S
C2266 H2252 0.930 . S
C2266 C2264 1.395 . S
C2266 C2269 1.403 . S
C2267 C2264 1.403 . S
C2267 C2268 1.524 . S
C2267 C2271 1.400 . S
C2268 H2253 0.960 . S
C2268 H2254 0.960 . S
C2268 H2255 0.960 . S
C2268 C2267 1.524 . S
C2269 C2266 1.403 . S
C2269 C2270 1.392 . S
C2269 C2273 1.495 . S
C2270 C2269 1.392 . S
C2270 C2271 1.385 . S
C2270 C2272 1.478 . S
C2271 H2265 0.930 . S
C2271 C2267 1.400 . S
C2271 C2270 1.385 . S
C2272 C2270 1.478 . S
C2272 C2274 1.381 . S
C2272 C2278 1.383 . S
C2273 C2269 1.495 . S
C2273 H2279 0.959 . S
C2273 H2280 0.961 . S
C2273 H2281 0.960 . S
C2274 C2272 1.381 . S
C2274 C2275 1.394 . S
C2274 H2282 0.930 . S
C2275 C2274 1.394 . S
C2275 C2276 1.383 . S
C2275 H2283 0.929 . S
C2276 C2275 1.383 . S
C2276 C2277 1.377 . S
C2277 H2261 0.930 . S
C2277 C2276 1.377 . S
C2277 C2278 1.379 . S
C2278 H2262 0.931 . S
C2278 C2272 1.383 . S
C2278 C2277 1.379 . S
H2279 C2273 0.959 . S
H2280 C2273 0.961 . S
H2281 C2273 0.960 . S
H2282 C2274 0.930 . S
H2283 C2275 0.929 . S
H2284 C2292 0.929 . S
H2285 C2294 0.930 . S
H2286 C2296 0.930 . S
H2287 C2299 0.929 . S
H2288 C2302 0.930 . S
H2289 C2304 0.960 . S
H2290 C2304 0.960 . S
H2291 C2304 0.960 . S
C2292 H2284 0.929 . S
C2292 C2293 1.377 . S
C2292 C2294 1.384 1_545 S
C2293 C2292 1.377 . S
C2293 C2299 1.390 1_545 S
C2294 H2285 0.930 . S
C2294 C2292 1.384 1_565 S
C2294 C2295 1.372 . S
C2295 C2294 1.372 . S
C2295 C2296 1.400 . S
C2295 C2300 1.490 . S
C2296 H2286 0.930 . S
C2296 C2295 1.400 . S
C2296 C2299 1.386 . S
H2297 C2313 0.930 . S
H2298 C2314 0.931 . S
C2299 H2287 0.929 . S
C2299 C2293 1.390 1_565 S
C2299 C2296 1.386 . S
C2300 C2295 1.490 . S
C2300 C2302 1.395 . S
C2300 C2303 1.403 . S
H2301 C2307 0.930 . S
C2302 H2288 0.930 . S
C2302 C2300 1.395 . S
C2302 C2305 1.403 . S
C2303 C2300 1.403 . S
C2303 C2304 1.524 . S
C2303 C2307 1.400 . S
C2304 H2289 0.960 . S
C2304 H2290 0.960 . S
C2304 H2291 0.960 . S
C2304 C2303 1.524 . S
C2305 C2302 1.403 . S
C2305 C2306 1.392 . S
C2305 C2309 1.495 . S
C2306 C2305 1.392 . S
C2306 C2307 1.385 . S
C2306 C2308 1.478 . S
C2307 H2301 0.930 . S
C2307 C2303 1.400 . S
C2307 C2306 1.385 . S
C2308 C2306 1.478 . S
C2308 C2310 1.381 . S
C2308 C2314 1.383 . S
C2309 C2305 1.495 . S
C2309 H2315 0.959 . S
C2309 H2316 0.961 . S
C2309 H2317 0.960 . S
C2310 C2308 1.381 . S
C2310 C2311 1.394 . S
C2310 H2318 0.930 . S
C2311 C2310 1.394 . S
C2311 C2312 1.383 . S
C2311 H2319 0.929 . S
C2312 C2311 1.383 . S
C2312 C2313 1.377 . S
C2313 H2297 0.930 . S
C2313 C2312 1.377 . S
C2313 C2314 1.379 . S
C2314 H2298 0.931 . S
C2314 C2308 1.383 . S
C2314 C2313 1.379 . S
H2315 C2309 0.959 . S
H2316 C2309 0.961 . S
H2317 C2309 0.960 . S
H2318 C2310 0.930 . S
H2319 C2311 0.929 . S
H2320 C2328 0.929 . S
H2321 C2330 0.930 . S
H2322 C2332 0.930 . S
H2323 C2335 0.929 . S
H2324 C2338 0.930 . S
H2325 C2340 0.960 . S
H2326 C2340 0.960 . S
H2327 C2340 0.960 . S
C2328 H2320 0.929 . S
C2328 C2329 1.377 . S
C2328 C2330 1.384 . S
C2329 C2328 1.377 . S
C2329 C2335 1.390 . S
C2330 H2321 0.930 . S
C2330 C2328 1.384 . S
C2330 C2331 1.372 . S
C2331 C2330 1.372 . S
C2331 C2332 1.400 . S
C2331 C2336 1.490 . S
C2332 H2322 0.930 . S
C2332 C2331 1.400 . S
C2332 C2335 1.386 . S
H2333 C2349 0.930 1_565 S
H2334 C2350 0.931 . S
C2335 H2323 0.929 . S
C2335 C2329 1.390 . S
C2335 C2332 1.386 . S
C2336 C2331 1.490 . S
C2336 C2338 1.395 . S
C2336 C2339 1.403 . S
H2337 C2343 0.930 . S
C2338 H2324 0.930 . S
C2338 C2336 1.395 . S
C2338 C2341 1.403 . S
C2339 C2336 1.403 . S
C2339 C2340 1.524 . S
C2339 C2343 1.400 . S
C2340 H2325 0.960 . S
C2340 H2326 0.960 . S
C2340 H2327 0.960 . S
C2340 C2339 1.524 . S
C2341 C2338 1.403 . S
C2341 C2342 1.392 . S
C2341 C2345 1.495 . S
C2342 C2341 1.392 . S
C2342 C2343 1.385 . S
C2342 C2344 1.478 . S
C2343 H2337 0.930 . S
C2343 C2339 1.400 . S
C2343 C2342 1.385 . S
C2344 C2342 1.478 . S
C2344 C2346 1.381 . S
C2344 C2350 1.383 . S
C2345 C2341 1.495 . S
C2345 H2351 0.959 . S
C2345 H2352 0.961 . S
C2345 H2353 0.960 . S
C2346 C2344 1.381 . S
C2346 C2347 1.394 1_545 S
C2346 H2354 0.930 . S
C2347 C2346 1.394 1_565 S
C2347 C2348 1.383 . S
C2347 H2355 0.929 . S
C2348 C2347 1.383 . S
C2348 C2349 1.377 1_565 S
C2349 H2333 0.930 1_545 S
C2349 C2348 1.377 1_545 S
C2349 C2350 1.379 . S
C2350 H2334 0.931 . S
C2350 C2344 1.383 . S
C2350 C2349 1.379 . S
H2351 C2345 0.959 . S
H2352 C2345 0.961 . S
H2353 C2345 0.960 . S
H2354 C2346 0.930 . S
H2355 C2347 0.929 . S
H2356 C2364 0.929 . S
H2357 C2366 0.930 . S
H2358 C2368 0.930 . S
H2359 C2371 0.929 . S
H2360 C2374 0.930 . S
H2361 C2376 0.960 . S
H2362 C2376 0.960 . S
H2363 C2376 0.960 . S
C2364 H2356 0.929 . S
C2364 C2365 1.377 . S
C2364 C2366 1.384 . S
C2365 C2364 1.377 . S
C2365 C2371 1.390 . S
C2366 H2357 0.930 . S
C2366 C2364 1.384 . S
C2366 C2367 1.372 . S
C2367 C2366 1.372 . S
C2367 C2368 1.400 . S
C2367 C2372 1.490 . S
C2368 H2358 0.930 . S
C2368 C2367 1.400 . S
C2368 C2371 1.386 . S
H2369 C2385 0.930 . S
H2370 C2386 0.931 . S
C2371 H2359 0.929 . S
C2371 C2365 1.390 . S
C2371 C2368 1.386 . S
C2372 C2367 1.490 . S
C2372 C2374 1.395 . S
C2372 C2375 1.403 . S
H2373 C2379 0.930 . S
C2374 H2360 0.930 . S
C2374 C2372 1.395 . S
C2374 C2377 1.403 . S
C2375 C2372 1.403 . S
C2375 C2376 1.524 . S
C2375 C2379 1.400 . S
C2376 H2361 0.960 . S
C2376 H2362 0.960 . S
C2376 H2363 0.960 . S
C2376 C2375 1.524 . S
C2377 C2374 1.403 . S
C2377 C2378 1.392 . S
C2377 C2381 1.495 . S
C2378 C2377 1.392 . S
C2378 C2379 1.385 . S
C2378 C2380 1.478 . S
C2379 H2373 0.930 . S
C2379 C2375 1.400 . S
C2379 C2378 1.385 . S
C2380 C2378 1.478 . S
C2380 C2382 1.381 . S
C2380 C2386 1.383 . S
C2381 C2377 1.495 . S
C2381 H2387 0.959 . S
C2381 H2388 0.961 . S
C2381 H2389 0.960 . S
C2382 C2380 1.381 . S
C2382 C2383 1.394 . S
C2382 H2390 0.930 . S
C2383 C2382 1.394 . S
C2383 C2384 1.383 . S
C2383 H2391 0.929 . S
C2384 C2383 1.383 . S
C2384 C2385 1.377 . S
C2385 H2369 0.930 . S
C2385 C2384 1.377 . S
C2385 C2386 1.379 . S
C2386 H2370 0.931 . S
C2386 C2380 1.383 . S
C2386 C2385 1.379 . S
H2387 C2381 0.959 . S
H2388 C2381 0.961 . S
H2389 C2381 0.960 . S
H2390 C2382 0.930 . S
H2391 C2383 0.929 . S
H2392 C2400 0.929 . S
H2393 C2402 0.930 . S
H2394 C2404 0.930 . S
H2395 C2407 0.929 . S
H2396 C2410 0.930 . S
H2397 C2412 0.960 . S
H2398 C2412 0.960 . S
H2399 C2412 0.960 . S
C2400 H2392 0.929 . S
C2400 C2401 1.377 . S
C2400 C2402 1.384 . S
C2401 C2400 1.377 . S
C2401 C2407 1.390 . S
C2402 H2393 0.930 . S
C2402 C2400 1.384 . S
C2402 C2403 1.372 . S
C2403 C2402 1.372 . S
C2403 C2404 1.400 . S
C2403 C2408 1.490 . S
C2404 H2394 0.930 . S
C2404 C2403 1.400 . S
C2404 C2407 1.386 . S
H2405 C2421 0.930 . S
H2406 C2422 0.931 . S
C2407 H2395 0.929 . S
C2407 C2401 1.390 . S
C2407 C2404 1.386 . S
C2408 C2403 1.490 . S
C2408 C2410 1.395 . S
C2408 C2411 1.403 . S
H2409 C2415 0.930 . S
C2410 H2396 0.930 . S
C2410 C2408 1.395 . S
C2410 C2413 1.403 . S
C2411 C2408 1.403 . S
C2411 C2412 1.524 . S
C2411 C2415 1.400 . S
C2412 H2397 0.960 . S
C2412 H2398 0.960 . S
C2412 H2399 0.960 . S
C2412 C2411 1.524 . S
C2413 C2410 1.403 . S
C2413 C2414 1.392 . S
C2413 C2417 1.495 . S
C2414 C2413 1.392 . S
C2414 C2415 1.385 . S
C2414 C2416 1.478 . S
C2415 H2409 0.930 . S
C2415 C2411 1.400 . S
C2415 C2414 1.385 . S
C2416 C2414 1.478 . S
C2416 C2418 1.381 . S
C2416 C2422 1.383 . S
C2417 C2413 1.495 . S
C2417 H2423 0.959 . S
C2417 H2424 0.961 . S
C2417 H2425 0.960 . S
C2418 C2416 1.381 . S
C2418 C2419 1.394 . S
C2418 H2426 0.930 . S
C2419 C2418 1.394 . S
C2419 C2420 1.383 . S
C2419 H2427 0.929 . S
C2420 C2419 1.383 . S
C2420 C2421 1.377 . S
C2421 H2405 0.930 . S
C2421 C2420 1.377 . S
C2421 C2422 1.379 . S
C2422 H2406 0.931 . S
C2422 C2416 1.383 . S
C2422 C2421 1.379 . S
H2423 C2417 0.959 . S
H2424 C2417 0.961 . S
H2425 C2417 0.960 . S
H2426 C2418 0.930 . S
H2427 C2419 0.929 . S
H2428 C2436 0.929 . S
H2429 C2438 0.930 . S
H2430 C2440 0.930 . S
H2431 C2443 0.929 . S
H2432 C2446 0.930 . S
H2433 C2448 0.960 . S
H2434 C2448 0.960 . S
H2435 C2448 0.960 . S
C2436 H2428 0.929 . S
C2436 C2437 1.377 . S
C2436 C2438 1.384 . S
C2437 C2436 1.377 . S
C2437 C2443 1.390 . S
C2438 H2429 0.930 . S
C2438 C2436 1.384 . S
C2438 C2439 1.372 . S
C2439 C2438 1.372 . S
C2439 C2440 1.400 . S
C2439 C2444 1.490 . S
C2440 H2430 0.930 . S
C2440 C2439 1.400 . S
C2440 C2443 1.386 . S
H2441 C2457 0.930 . S
H2442 C2458 0.931 . S
C2443 H2431 0.929 . S
C2443 C2437 1.390 . S
C2443 C2440 1.386 . S
C2444 C2439 1.490 . S
C2444 C2446 1.395 . S
C2444 C2447 1.403 . S
H2445 C2451 0.930 . S
C2446 H2432 0.930 . S
C2446 C2444 1.395 . S
C2446 C2449 1.403 . S
C2447 C2444 1.403 . S
C2447 C2448 1.524 . S
C2447 C2451 1.400 . S
C2448 H2433 0.960 . S
C2448 H2434 0.960 . S
C2448 H2435 0.960 . S
C2448 C2447 1.524 . S
C2449 C2446 1.403 . S
C2449 C2450 1.392 . S
C2449 C2453 1.495 . S
C2450 C2449 1.392 . S
C2450 C2451 1.385 . S
C2450 C2452 1.478 . S
C2451 H2445 0.930 . S
C2451 C2447 1.400 . S
C2451 C2450 1.385 . S
C2452 C2450 1.478 . S
C2452 C2454 1.381 . S
C2452 C2458 1.383 . S
C2453 C2449 1.495 . S
C2453 H2459 0.959 . S
C2453 H2460 0.961 . S
C2453 H2461 0.960 . S
C2454 C2452 1.381 . S
C2454 C2455 1.394 1_545 S
C2454 H2462 0.930 . S
C2455 C2454 1.394 1_565 S
C2455 C2456 1.383 . S
C2455 H2463 0.929 . S
C2456 C2455 1.383 . S
C2456 C2457 1.377 . S
C2457 H2441 0.930 . S
C2457 C2456 1.377 . S
C2457 C2458 1.379 1_565 S
C2458 H2442 0.931 . S
C2458 C2452 1.383 . S
C2458 C2457 1.379 1_545 S
H2459 C2453 0.959 . S
H2460 C2453 0.961 . S
H2461 C2453 0.960 . S
H2462 C2454 0.930 . S
H2463 C2455 0.929 . S
H2464 C2472 0.929 . S
H2465 C2474 0.930 . S
H2466 C2476 0.930 . S
H2467 C2479 0.929 . S
H2468 C2482 0.930 . S
H2469 C2484 0.960 . S
H2470 C2484 0.960 . S
H2471 C2484 0.960 . S
C2472 H2464 0.929 . S
C2472 C2473 1.377 . S
C2472 C2474 1.384 . S
C2473 C2472 1.377 . S
C2473 C2479 1.390 . S
C2474 H2465 0.930 . S
C2474 C2472 1.384 . S
C2474 C2475 1.372 . S
C2475 C2474 1.372 . S
C2475 C2476 1.400 . S
C2475 C2480 1.490 . S
C2476 H2466 0.930 . S
C2476 C2475 1.400 . S
C2476 C2479 1.386 . S
H2477 C2493 0.930 . S
H2478 C2494 0.931 . S
C2479 H2467 0.929 . S
C2479 C2473 1.390 . S
C2479 C2476 1.386 . S
C2480 C2475 1.490 . S
C2480 C2482 1.395 . S
C2480 C2483 1.403 . S
H2481 C2487 0.930 . S
C2482 H2468 0.930 . S
C2482 C2480 1.395 . S
C2482 C2485 1.403 . S
C2483 C2480 1.403 . S
C2483 C2484 1.524 . S
C2483 C2487 1.400 . S
C2484 H2469 0.960 . S
C2484 H2470 0.960 . S
C2484 H2471 0.960 . S
C2484 C2483 1.524 . S
C2485 C2482 1.403 . S
C2485 C2486 1.392 . S
C2485 C2489 1.495 . S
C2486 C2485 1.392 . S
C2486 C2487 1.385 . S
C2486 C2488 1.478 . S
C2487 H2481 0.930 . S
C2487 C2483 1.400 . S
C2487 C2486 1.385 . S
C2488 C2486 1.478 . S
C2488 C2490 1.381 . S
C2488 C2494 1.383 . S
C2489 C2485 1.495 . S
C2489 H2495 0.959 . S
C2489 H2496 0.961 . S
C2489 H2497 0.960 . S
C2490 C2488 1.381 . S
C2490 C2491 1.394 1_565 S
C2490 H2498 0.930 . S
C2491 C2490 1.394 1_545 S
C2491 C2492 1.383 . S
C2491 H2499 0.929 . S
C2492 C2491 1.383 . S
C2492 C2493 1.377 . S
C2493 H2477 0.930 . S
C2493 C2492 1.377 . S
C2493 C2494 1.379 1_545 S
C2494 H2478 0.931 . S
C2494 C2488 1.383 . S
C2494 C2493 1.379 1_565 S
H2495 C2489 0.959 . S
H2496 C2489 0.961 . S
H2497 C2489 0.960 . S
H2498 C2490 0.930 . S
H2499 C2491 0.929 . S
H2500 C2508 0.929 . S
H2501 C2510 0.930 . S
H2502 C2512 0.930 . S
H2503 C2515 0.929 . S
H2504 C2518 0.930 . S
H2505 C2520 0.960 . S
H2506 C2520 0.960 . S
H2507 C2520 0.960 . S
C2508 H2500 0.929 . S
C2508 C2509 1.377 . S
C2508 C2510 1.384 . S
C2509 C2508 1.377 . S
C2509 C2515 1.390 . S
C2510 H2501 0.930 . S
C2510 C2508 1.384 . S
C2510 C2511 1.372 . S
C2511 C2510 1.372 . S
C2511 C2512 1.400 . S
C2511 C2516 1.490 . S
C2512 H2502 0.930 . S
C2512 C2511 1.400 . S
C2512 C2515 1.386 . S
H2513 C2529 0.930 . S
H2514 C2530 0.931 . S
C2515 H2503 0.929 . S
C2515 C2509 1.390 . S
C2515 C2512 1.386 . S
C2516 C2511 1.490 . S
C2516 C2518 1.395 . S
C2516 C2519 1.403 . S
H2517 C2523 0.930 . S
C2518 H2504 0.930 . S
C2518 C2516 1.395 . S
C2518 C2521 1.403 . S
C2519 C2516 1.403 . S
C2519 C2520 1.524 . S
C2519 C2523 1.400 . S
C2520 H2505 0.960 . S
C2520 H2506 0.960 . S
C2520 H2507 0.960 . S
C2520 C2519 1.524 . S
C2521 C2518 1.403 . S
C2521 C2522 1.392 . S
C2521 C2525 1.495 . S
C2522 C2521 1.392 . S
C2522 C2523 1.385 . S
C2522 C2524 1.478 . S
C2523 H2517 0.930 . S
C2523 C2519 1.400 . S
C2523 C2522 1.385 . S
C2524 C2522 1.478 . S
C2524 C2526 1.381 . S
C2524 C2530 1.383 . S
C2525 C2521 1.495 . S
C2525 H2531 0.959 . S
C2525 H2532 0.961 . S
C2525 H2533 0.960 . S
C2526 C2524 1.381 . S
C2526 C2527 1.394 . S
C2526 H2534 0.930 . S
C2527 C2526 1.394 . S
C2527 C2528 1.383 . S
C2527 H2535 0.929 . S
C2528 C2527 1.383 . S
C2528 C2529 1.377 . S
C2529 H2513 0.930 . S
C2529 C2528 1.377 . S
C2529 C2530 1.379 . S
C2530 H2514 0.931 . S
C2530 C2524 1.383 . S
C2530 C2529 1.379 . S
H2531 C2525 0.959 . S
H2532 C2525 0.961 . S
H2533 C2525 0.960 . S
H2534 C2526 0.930 . S
H2535 C2527 0.929 . S
H2536 C2544 0.929 . S
H2537 C2546 0.930 . S
H2538 C2548 0.930 . S
H2539 C2551 0.929 . S
H2540 C2554 0.930 . S
H2541 C2556 0.960 . S
H2542 C2556 0.960 . S
H2543 C2556 0.960 . S
C2544 H2536 0.929 . S
C2544 C2545 1.377 . S
C2544 C2546 1.384 . S
C2545 C2544 1.377 . S
C2545 C2551 1.390 . S
C2546 H2537 0.930 . S
C2546 C2544 1.384 . S
C2546 C2547 1.372 . S
C2547 C2546 1.372 . S
C2547 C2548 1.400 . S
C2547 C2552 1.490 . S
C2548 H2538 0.930 . S
C2548 C2547 1.400 . S
C2548 C2551 1.386 . S
H2549 C2565 0.930 . S
H2550 C2566 0.931 . S
C2551 H2539 0.929 . S
C2551 C2545 1.390 . S
C2551 C2548 1.386 . S
C2552 C2547 1.490 . S
C2552 C2554 1.395 . S
C2552 C2555 1.403 . S
H2553 C2559 0.930 . S
C2554 H2540 0.930 . S
C2554 C2552 1.395 . S
C2554 C2557 1.403 . S
C2555 C2552 1.403 . S
C2555 C2556 1.524 . S
C2555 C2559 1.400 . S
C2556 H2541 0.960 . S
C2556 H2542 0.960 . S
C2556 H2543 0.960 . S
C2556 C2555 1.524 . S
C2557 C2554 1.403 . S
C2557 C2558 1.392 . S
C2557 C2561 1.495 . S
C2558 C2557 1.392 . S
C2558 C2559 1.385 . S
C2558 C2560 1.478 . S
C2559 H2553 0.930 . S
C2559 C2555 1.400 . S
C2559 C2558 1.385 . S
C2560 C2558 1.478 . S
C2560 C2562 1.381 . S
C2560 C2566 1.383 . S
C2561 C2557 1.495 . S
C2561 H2567 0.959 . S
C2561 H2568 0.961 . S
C2561 H2569 0.960 . S
C2562 C2560 1.381 . S
C2562 C2563 1.394 . S
C2562 H2570 0.930 . S
C2563 C2562 1.394 . S
C2563 C2564 1.383 . S
C2563 H2571 0.929 . S
C2564 C2563 1.383 . S
C2564 C2565 1.377 . S
C2565 H2549 0.930 . S
C2565 C2564 1.377 . S
C2565 C2566 1.379 . S
C2566 H2550 0.931 . S
C2566 C2560 1.383 . S
C2566 C2565 1.379 . S
H2567 C2561 0.959 . S
H2568 C2561 0.961 . S
H2569 C2561 0.960 . S
H2570 C2562 0.930 . S
H2571 C2563 0.929 . S
H2572 C2580 0.929 . S
H2573 C2582 0.930 . S
H2574 C2584 0.930 . S
H2575 C2587 0.929 . S
H2576 C2590 0.930 . S
H2577 C2592 0.960 . S
H2578 C2592 0.960 . S
H2579 C2592 0.960 . S
C2580 H2572 0.929 . S
C2580 C2581 1.377 . S
C2580 C2582 1.384 1_545 S
C2581 C2580 1.377 . S
C2581 C2587 1.390 1_545 S
C2582 H2573 0.930 . S
C2582 C2580 1.384 1_565 S
C2582 C2583 1.372 . S
C2583 C2582 1.372 . S
C2583 C2584 1.400 . S
C2583 C2588 1.490 . S
C2584 H2574 0.930 . S
C2584 C2583 1.400 . S
C2584 C2587 1.386 . S
H2585 C2601 0.930 . S
H2586 C2602 0.931 . S
C2587 H2575 0.929 . S
C2587 C2581 1.390 1_565 S
C2587 C2584 1.386 . S
C2588 C2583 1.490 . S
C2588 C2590 1.395 . S
C2588 C2591 1.403 . S
H2589 C2595 0.930 . S
C2590 H2576 0.930 . S
C2590 C2588 1.395 . S
C2590 C2593 1.403 . S
C2591 C2588 1.403 . S
C2591 C2592 1.524 . S
C2591 C2595 1.400 . S
C2592 H2577 0.960 . S
C2592 H2578 0.960 . S
C2592 H2579 0.960 . S
C2592 C2591 1.524 . S
C2593 C2590 1.403 . S
C2593 C2594 1.392 . S
C2593 C2597 1.495 . S
C2594 C2593 1.392 . S
C2594 C2595 1.385 . S
C2594 C2596 1.478 . S
C2595 H2589 0.930 . S
C2595 C2591 1.400 . S
C2595 C2594 1.385 . S
C2596 C2594 1.478 . S
C2596 C2598 1.381 . S
C2596 C2602 1.383 . S
C2597 C2593 1.495 . S
C2597 H2603 0.959 . S
C2597 H2604 0.961 . S
C2597 H2605 0.960 . S
C2598 C2596 1.381 . S
C2598 C2599 1.394 . S
C2598 H2606 0.930 . S
C2599 C2598 1.394 . S
C2599 C2600 1.383 . S
C2599 H2607 0.929 . S
C2600 C2599 1.383 . S
C2600 C2601 1.377 . S
C2601 H2585 0.930 . S
C2601 C2600 1.377 . S
C2601 C2602 1.379 . S
C2602 H2586 0.931 . S
C2602 C2596 1.383 . S
C2602 C2601 1.379 . S
H2603 C2597 0.959 . S
H2604 C2597 0.961 . S
H2605 C2597 0.960 . S
H2606 C2598 0.930 . S
H2607 C2599 0.929 . S
H2608 C2616 0.929 . S
H2609 C2618 0.930 . S
H2610 C2620 0.930 . S
H2611 C2623 0.929 . S
H2612 C2626 0.930 . S
H2613 C2628 0.960 . S
H2614 C2628 0.960 . S
H2615 C2628 0.960 . S
C2616 H2608 0.929 . S
C2616 C2617 1.377 . S
C2616 C2618 1.384 . S
C2617 C2616 1.377 . S
C2617 C2623 1.390 . S
C2618 H2609 0.930 . S
C2618 C2616 1.384 . S
C2618 C2619 1.372 . S
C2619 C2618 1.372 . S
C2619 C2620 1.400 . S
C2619 C2624 1.490 . S
C2620 H2610 0.930 . S
C2620 C2619 1.400 . S
C2620 C2623 1.386 . S
H2621 C2637 0.930 1_565 S
H2622 C2638 0.931 . S
C2623 H2611 0.929 . S
C2623 C2617 1.390 . S
C2623 C2620 1.386 . S
C2624 C2619 1.490 . S
C2624 C2626 1.395 . S
C2624 C2627 1.403 . S
H2625 C2631 0.930 . S
C2626 H2612 0.930 . S
C2626 C2624 1.395 . S
C2626 C2629 1.403 . S
C2627 C2624 1.403 . S
C2627 C2628 1.524 . S
C2627 C2631 1.400 . S
C2628 H2613 0.960 . S
C2628 H2614 0.960 . S
C2628 H2615 0.960 . S
C2628 C2627 1.524 . S
C2629 C2626 1.403 . S
C2629 C2630 1.392 . S
C2629 C2633 1.495 . S
C2630 C2629 1.392 . S
C2630 C2631 1.385 . S
C2630 C2632 1.478 . S
C2631 H2625 0.930 . S
C2631 C2627 1.400 . S
C2631 C2630 1.385 . S
C2632 C2630 1.478 . S
C2632 C2634 1.381 . S
C2632 C2638 1.383 . S
C2633 C2629 1.495 . S
C2633 H2639 0.959 . S
C2633 H2640 0.961 . S
C2633 H2641 0.960 . S
C2634 C2632 1.381 . S
C2634 C2635 1.394 1_545 S
C2634 H2642 0.930 . S
C2635 C2634 1.394 1_565 S
C2635 C2636 1.383 . S
C2635 H2643 0.929 . S
C2636 C2635 1.383 . S
C2636 C2637 1.377 1_565 S
C2637 H2621 0.930 1_545 S
C2637 C2636 1.377 1_545 S
C2637 C2638 1.379 . S
C2638 H2622 0.931 . S
C2638 C2632 1.383 . S
C2638 C2637 1.379 . S
H2639 C2633 0.959 . S
H2640 C2633 0.961 . S
H2641 C2633 0.960 . S
H2642 C2634 0.930 . S
H2643 C2635 0.929 . S
H2644 C2652 0.929 . S
H2645 C2654 0.930 . S
H2646 C2656 0.930 . S
H2647 C2659 0.929 . S
H2648 C2662 0.930 . S
H2649 C2664 0.960 . S
H2650 C2664 0.960 . S
H2651 C2664 0.960 . S
C2652 H2644 0.929 . S
C2652 C2653 1.377 . S
C2652 C2654 1.384 . S
C2653 C2652 1.377 . S
C2653 C2659 1.390 . S
C2654 H2645 0.930 . S
C2654 C2652 1.384 . S
C2654 C2655 1.372 . S
C2655 C2654 1.372 . S
C2655 C2656 1.400 . S
C2655 C2660 1.490 . S
C2656 H2646 0.930 . S
C2656 C2655 1.400 . S
C2656 C2659 1.386 . S
H2657 C2673 0.930 . S
H2658 C2674 0.931 . S
C2659 H2647 0.929 . S
C2659 C2653 1.390 . S
C2659 C2656 1.386 . S
C2660 C2655 1.490 . S
C2660 C2662 1.395 . S
C2660 C2663 1.403 . S
H2661 C2667 0.930 . S
C2662 H2648 0.930 . S
C2662 C2660 1.395 . S
C2662 C2665 1.403 . S
C2663 C2660 1.403 . S
C2663 C2664 1.524 . S
C2663 C2667 1.400 . S
C2664 H2649 0.960 . S
C2664 H2650 0.960 . S
C2664 H2651 0.960 . S
C2664 C2663 1.524 . S
C2665 C2662 1.403 . S
C2665 C2666 1.392 . S
C2665 C2669 1.495 . S
C2666 C2665 1.392 . S
C2666 C2667 1.385 . S
C2666 C2668 1.478 . S
C2667 H2661 0.930 . S
C2667 C2663 1.400 . S
C2667 C2666 1.385 . S
C2668 C2666 1.478 . S
C2668 C2670 1.381 . S
C2668 C2674 1.383 . S
C2669 C2665 1.495 . S
C2669 H2675 0.959 . S
C2669 H2676 0.961 . S
C2669 H2677 0.960 . S
C2670 C2668 1.381 . S
C2670 C2671 1.394 . S
C2670 H2678 0.930 . S
C2671 C2670 1.394 . S
C2671 C2672 1.383 . S
C2671 H2679 0.929 . S
C2672 C2671 1.383 . S
C2672 C2673 1.377 . S
C2673 H2657 0.930 . S
C2673 C2672 1.377 . S
C2673 C2674 1.379 . S
C2674 H2658 0.931 . S
C2674 C2668 1.383 . S
C2674 C2673 1.379 . S
H2675 C2669 0.959 . S
H2676 C2669 0.961 . S
H2677 C2669 0.960 . S
H2678 C2670 0.930 . S
H2679 C2671 0.929 . S
H2680 C2688 0.929 . S
H2681 C2690 0.930 . S
H2682 C2692 0.930 . S
H2683 C2695 0.929 . S
H2684 C2698 0.930 . S
H2685 C2700 0.960 . S
H2686 C2700 0.960 . S
H2687 C2700 0.960 . S
C2688 H2680 0.929 . S
C2688 C2689 1.377 . S
C2688 C2690 1.384 . S
C2689 C2688 1.377 . S
C2689 C2695 1.390 . S
C2690 H2681 0.930 . S
C2690 C2688 1.384 . S
C2690 C2691 1.372 . S
C2691 C2690 1.372 . S
C2691 C2692 1.400 . S
C2691 C2696 1.490 . S
C2692 H2682 0.930 . S
C2692 C2691 1.400 . S
C2692 C2695 1.386 . S
H2693 C2709 0.930 . S
H2694 C2710 0.931 . S
C2695 H2683 0.929 . S
C2695 C2689 1.390 . S
C2695 C2692 1.386 . S
C2696 C2691 1.490 . S
C2696 C2698 1.395 . S
C2696 C2699 1.403 . S
H2697 C2703 0.930 . S
C2698 H2684 0.930 . S
C2698 C2696 1.395 . S
C2698 C2701 1.403 . S
C2699 C2696 1.403 . S
C2699 C2700 1.524 . S
C2699 C2703 1.400 . S
C2700 H2685 0.960 . S
C2700 H2686 0.960 . S
C2700 H2687 0.960 . S
C2700 C2699 1.524 . S
C2701 C2698 1.403 . S
C2701 C2702 1.392 . S
C2701 C2705 1.495 . S
C2702 C2701 1.392 . S
C2702 C2703 1.385 . S
C2702 C2704 1.478 . S
C2703 H2697 0.930 . S
C2703 C2699 1.400 . S
C2703 C2702 1.385 . S
C2704 C2702 1.478 . S
C2704 C2706 1.381 . S
C2704 C2710 1.383 . S
C2705 C2701 1.495 . S
C2705 H2711 0.959 . S
C2705 H2712 0.961 . S
C2705 H2713 0.960 . S
C2706 C2704 1.381 . S
C2706 C2707 1.394 . S
C2706 H2714 0.930 . S
C2707 C2706 1.394 . S
C2707 C2708 1.383 . S
C2707 H2715 0.929 . S
C2708 C2707 1.383 . S
C2708 C2709 1.377 . S
C2709 H2693 0.930 . S
C2709 C2708 1.377 . S
C2709 C2710 1.379 . S
C2710 H2694 0.931 . S
C2710 C2704 1.383 . S
C2710 C2709 1.379 . S
H2711 C2705 0.959 . S
H2712 C2705 0.961 . S
H2713 C2705 0.960 . S
H2714 C2706 0.930 . S
H2715 C2707 0.929 . S
H2716 C2724 0.929 . S
H2717 C2726 0.930 . S
H2718 C2728 0.930 . S
H2719 C2731 0.929 1_565 S
H2720 C2734 0.930 . S
H2721 C2736 0.960 . S
H2722 C2736 0.960 . S
H2723 C2736 0.960 . S
C2724 H2716 0.929 . S
C2724 C2725 1.377 . S
C2724 C2726 1.384 1_565 S
C2725 C2724 1.377 . S
C2725 C2731 1.390 1_565 S
C2726 H2717 0.930 . S
C2726 C2724 1.384 1_545 S
C2726 C2727 1.372 . S
C2727 C2726 1.372 . S
C2727 C2728 1.400 . S
C2727 C2732 1.490 . S
C2728 H2718 0.930 . S
C2728 C2727 1.400 . S
C2728 C2731 1.386 . S
H2729 C2745 0.930 . S
H2730 C2746 0.931 . S
C2731 H2719 0.929 1_545 S
C2731 C2725 1.390 1_545 S
C2731 C2728 1.386 . S
C2732 C2727 1.490 . S
C2732 C2734 1.395 . S
C2732 C2735 1.403 . S
H2733 C2739 0.930 . S
C2734 H2720 0.930 . S
C2734 C2732 1.395 . S
C2734 C2737 1.403 . S
C2735 C2732 1.403 . S
C2735 C2736 1.524 . S
C2735 C2739 1.400 . S
C2736 H2721 0.960 . S
C2736 H2722 0.960 . S
C2736 H2723 0.960 . S
C2736 C2735 1.524 . S
C2737 C2734 1.403 . S
C2737 C2738 1.392 . S
C2737 C2741 1.495 . S
C2738 C2737 1.392 . S
C2738 C2739 1.385 . S
C2738 C2740 1.478 . S
C2739 H2733 0.930 . S
C2739 C2735 1.400 . S
C2739 C2738 1.385 . S
C2740 C2738 1.478 . S
C2740 C2742 1.381 . S
C2740 C2746 1.383 . S
C2741 C2737 1.495 . S
C2741 H2747 0.959 . S
C2741 H2748 0.961 . S
C2741 H2749 0.960 . S
C2742 C2740 1.381 . S
C2742 C2743 1.394 . S
C2742 H2750 0.930 . S
C2743 C2742 1.394 . S
C2743 C2744 1.383 . S
C2743 H2751 0.929 . S
C2744 C2743 1.383 . S
C2744 C2745 1.377 . S
C2745 H2729 0.930 . S
C2745 C2744 1.377 . S
C2745 C2746 1.379 . S
C2746 H2730 0.931 . S
C2746 C2740 1.383 . S
C2746 C2745 1.379 . S
H2747 C2741 0.959 . S
H2748 C2741 0.961 . S
H2749 C2741 0.960 . S
H2750 C2742 0.930 . S
H2751 C2743 0.929 . S
C457 C9 1.370 . S
C476 C23 1.342 . S
C493 C51 1.371 . S
C512 C37 1.366 . S
C529 C65 1.372 . S
C548 C79 1.355 . S
C565 C93 1.365 . S
C584 C107 1.349 . S
C601 C121 1.372 . S
C620 C135 1.352 . S
C637 C149 1.372 . S
C656 C163 1.355 . S
C673 C177 1.364 . S
C692 C191 1.356 . S
C709 C205 1.365 . S
C728 C219 1.349 . S
C745 C247 1.371 . S
C764 C233 1.367 . S
C781 C275 1.364 . S
C800 C261 1.367 . S
C817 C303 1.372 . S
C836 C289 1.366 . S
C853 C331 1.371 . S
C872 C317 1.374 . S
C889 C359 1.370 . S
C908 C345 1.343 . S
C925 C387 1.371 . S
C944 C373 1.342 . S
C961 C415 1.363 . S
C980 C401 1.375 . S
C997 C443 1.363 . S
C1016 C429 1.368 . S
C1033 C8 1.408 . S
C1052 C176 1.398 . S
C1069 C22 1.402 . S
C1088 C302 1.392 . S
C1105 C36 1.404 . S
C1124 C92 1.387 . S
C1141 C50 1.403 . S
C1160 C442 1.402 . S
C1177 C64 1.409 . S
C1196 C120 1.403 . S
C1213 C246 1.405 . S
C1232 C78 1.415 . S
C1249 C386 1.409 . S
C1268 C106 1.407 . S
C1285 C134 1.403 . S
C1304 C414 1.400 . S
C1321 C148 1.409 . S
C1340 C204 1.411 . S
C1357 C162 1.404 . S
C1376 C330 1.407 . S
C1393 C190 1.402 . S
C1412 C358 1.397 . S
C1429 C218 1.403 . S
C1448 C274 1.400 . S
C1465 C400 1.405 . S
C1484 C232 1.388 . S
C1501 C316 1.405 . S
C1520 C260 1.387 . S
C1537 C288 1.409 . S
C1556 C344 1.410 . S
C1573 C428 1.409 . S
C1592 C372 1.407 . S
C1609 C147 0.603 . S
C1628 C7 0.626 . S
C1645 C161 0.612 . S
C1664 C21 0.644 . S
C1681 C35 0.608 . S
C1700 C119 0.611 . S
C1717 C133 0.602 . S
C1736 C49 0.624 . S
C1753 C63 0.597 . S
C1772 C203 0.644 . S
C1789 C77 0.608 . S
C1808 C217 0.560 . S
C1825 C175 0.607 . S
C1844 C91 0.565 . S
C1861 C189 0.600 . S
C1880 C105 0.634 . S
C1897 C231 0.592 . S
C1916 C371 0.566 . S
C1933 C385 0.608 . S
C1952 C245 0.613 . S
C1969 C343 0.607 . S
C1988 C259 0.642 . S
C2005 C273 0.612 . S
C2024 C357 0.643 . S
C2041 C427 0.608 . S
C2060 C287 0.595 . S
C2077 C301 0.606 . S
C2096 C441 0.611 . S
C2113 C399 0.604 . S
C2132 C315 0.619 . S
C2149 C413 0.593 . S
C2168 C329 0.648 . S
C2185 C143 1.597 . S
C2204 C3 1.587 . S
C2221 C157 1.596 . S
C2240 C17 1.593 . S
C2257 C115 1.597 . S
C2276 C31 1.598 . S
C2293 C45 1.596 . S
C2312 C129 1.600 . S
C2329 C199 1.595 . S
C2348 C59 1.595 . S
C2365 C213 1.596 . S
C2384 C73 1.600 . S
C2401 C171 1.596 . S
C2420 C87 1.587 . S
C2437 C185 1.599 . S
C2456 C101 1.597 . S
C2473 C367 1.598 . S
C2492 C227 1.593 . S
C2509 C381 1.596 . S
C2528 C241 1.596 . S
C2545 C339 1.597 . S
C2564 C255 1.598 . S
C2581 C269 1.596 . S
C2600 C353 1.600 . S
C2617 C423 1.598 . S
C2636 C283 1.600 . S
C2653 C297 1.599 . S
C2672 C437 1.594 . S
C2689 C395 1.596 . S
C2708 C311 1.589 . S
C2725 C325 1.597 . S
C2744 C409 1.586 . S
