# Generated by pormake.
# Topology pbz, (3)-cn, num edge types: 1
# Building blocks:
#     Node 0, Type 0, BuildingBlock: OLANEW_clean_sbu_2, # of connection points: 3
#     Node 1, Type 0, BuildingBlock: OLANEW_clean_sbu_2, # of connection points: 3
#     Node 2, Type 0, BuildingBlock: OLANEW_clean_sbu_2, # of connection points: 3
#     Node 3, Type 0, BuildingBlock: OLANEW_clean_sbu_2, # of connection points: 3
#     Node 4, Type 0, BuildingBlock: OLANEW_clean_sbu_2, # of connection points: 3
#     Node 5, Type 0, BuildingBlock: OLANEW_clean_sbu_2, # of connection points: 3
#     Node 6, Type 0, BuildingBlock: OLANEW_clean_sbu_2, # of connection points: 3
#     Node 7, Type 0, BuildingBlock: OLANEW_clean_sbu_2, # of connection points: 3
#     Node 8, Type 0, BuildingBlock: OLANEW_clean_sbu_2, # of connection points: 3
#     Node 9, Type 0, BuildingBlock: OLANEW_clean_sbu_2, # of connection points: 3
#     Node 10, Type 0, BuildingBlock: OLANEW_clean_sbu_2, # of connection points: 3
#     Node 11, Type 0, BuildingBlock: OLANEW_clean_sbu_2, # of connection points: 3
#     Node 12, Type 0, BuildingBlock: OLANEW_clean_sbu_2, # of connection points: 3
#     Node 13, Type 0, BuildingBlock: OLANEW_clean_sbu_2, # of connection points: 3
#     Node 14, Type 0, BuildingBlock: OLANEW_clean_sbu_2, # of connection points: 3
#     Node 15, Type 0, BuildingBlock: OLANEW_clean_sbu_2, # of connection points: 3
#     Node 16, Type 0, BuildingBlock: OLANEW_clean_sbu_2, # of connection points: 3
#     Node 17, Type 0, BuildingBlock: OLANEW_clean_sbu_2, # of connection points: 3
#     Node 18, Type 0, BuildingBlock: OLANEW_clean_sbu_2, # of connection points: 3
#     Node 19, Type 0, BuildingBlock: OLANEW_clean_sbu_2, # of connection points: 3
#     Node 20, Type 0, BuildingBlock: OLANEW_clean_sbu_2, # of connection points: 3
#     Node 21, Type 0, BuildingBlock: OLANEW_clean_sbu_2, # of connection points: 3
#     Node 22, Type 0, BuildingBlock: OLANEW_clean_sbu_2, # of connection points: 3
#     Node 23, Type 0, BuildingBlock: OLANEW_clean_sbu_2, # of connection points: 3
#     Edge 24, Type (0, 0), BuildingBlock: EZIPEK_clean_linker_0, # of connection points: 2
#     Edge 25, Type (0, 0), BuildingBlock: EZIPEK_clean_linker_0, # of connection points: 2
#     Edge 26, Type (0, 0), BuildingBlock: EZIPEK_clean_linker_0, # of connection points: 2
#     Edge 27, Type (0, 0), BuildingBlock: EZIPEK_clean_linker_0, # of connection points: 2
#     Edge 28, Type (0, 0), BuildingBlock: EZIPEK_clean_linker_0, # of connection points: 2
#     Edge 29, Type (0, 0), BuildingBlock: EZIPEK_clean_linker_0, # of connection points: 2
#     Edge 30, Type (0, 0), BuildingBlock: EZIPEK_clean_linker_0, # of connection points: 2
#     Edge 31, Type (0, 0), BuildingBlock: EZIPEK_clean_linker_0, # of connection points: 2
#     Edge 32, Type (0, 0), BuildingBlock: EZIPEK_clean_linker_0, # of connection points: 2
#     Edge 33, Type (0, 0), BuildingBlock: EZIPEK_clean_linker_0, # of connection points: 2
#     Edge 34, Type (0, 0), BuildingBlock: EZIPEK_clean_linker_0, # of connection points: 2
#     Edge 35, Type (0, 0), BuildingBlock: EZIPEK_clean_linker_0, # of connection points: 2
#     Edge 36, Type (0, 0), BuildingBlock: EZIPEK_clean_linker_0, # of connection points: 2
#     Edge 37, Type (0, 0), BuildingBlock: EZIPEK_clean_linker_0, # of connection points: 2
#     Edge 38, Type (0, 0), BuildingBlock: EZIPEK_clean_linker_0, # of connection points: 2
#     Edge 39, Type (0, 0), BuildingBlock: EZIPEK_clean_linker_0, # of connection points: 2
#     Edge 40, Type (0, 0), BuildingBlock: EZIPEK_clean_linker_0, # of connection points: 2
#     Edge 41, Type (0, 0), BuildingBlock: EZIPEK_clean_linker_0, # of connection points: 2
#     Edge 42, Type (0, 0), BuildingBlock: EZIPEK_clean_linker_0, # of connection points: 2
#     Edge 43, Type (0, 0), BuildingBlock: EZIPEK_clean_linker_0, # of connection points: 2
#     Edge 44, Type (0, 0), BuildingBlock: EZIPEK_clean_linker_0, # of connection points: 2
#     Edge 45, Type (0, 0), BuildingBlock: EZIPEK_clean_linker_0, # of connection points: 2
#     Edge 46, Type (0, 0), BuildingBlock: EZIPEK_clean_linker_0, # of connection points: 2
#     Edge 47, Type (0, 0), BuildingBlock: EZIPEK_clean_linker_0, # of connection points: 2
#     Edge 48, Type (0, 0), BuildingBlock: EZIPEK_clean_linker_0, # of connection points: 2
#     Edge 49, Type (0, 0), BuildingBlock: EZIPEK_clean_linker_0, # of connection points: 2
#     Edge 50, Type (0, 0), BuildingBlock: EZIPEK_clean_linker_0, # of connection points: 2
#     Edge 51, Type (0, 0), BuildingBlock: EZIPEK_clean_linker_0, # of connection points: 2
#     Edge 52, Type (0, 0), BuildingBlock: EZIPEK_clean_linker_0, # of connection points: 2
#     Edge 53, Type (0, 0), BuildingBlock: EZIPEK_clean_linker_0, # of connection points: 2
#     Edge 54, Type (0, 0), BuildingBlock: EZIPEK_clean_linker_0, # of connection points: 2
#     Edge 55, Type (0, 0), BuildingBlock: EZIPEK_clean_linker_0, # of connection points: 2
#     Edge 56, Type (0, 0), BuildingBlock: EZIPEK_clean_linker_0, # of connection points: 2
#     Edge 57, Type (0, 0), BuildingBlock: EZIPEK_clean_linker_0, # of connection points: 2
#     Edge 58, Type (0, 0), BuildingBlock: EZIPEK_clean_linker_0, # of connection points: 2
#     Edge 59, Type (0, 0), BuildingBlock: EZIPEK_clean_linker_0, # of connection points: 2
# Relax obj value: 0.059
# Max RMSD: 0.148
# Mean RMSD: 0.103
data_MOF--net-pbz--node1-OLANEW_clean_sbu_2--edge1-EZIPEK_clean_linker_0
_symmetry_space_group_name_H-M    P1
_symmetry_Int_Tables_number       1
_symmetry_cell_setting            triclinic
loop_
_symmetry_equiv_pos_as_xyz
'x, y, z'
_cell_length_a     50.001766
_cell_length_b     48.833393
_cell_length_c     47.424127
_cell_angle_alpha  90.657386
_cell_angle_beta   89.938789
_cell_angle_gamma 94.782953
loop_
_atom_site_label
_atom_site_type_symbol
_atom_site_fract_x
_atom_site_fract_y
_atom_site_fract_z
_atom_type_partial_charge
O0 O 0.05619 0.22944 0.75628 0.0
Cd1 Cd 0.05078 0.18052 0.74408 0.0
O2 O 0.01457 0.22721 0.77198 0.0
Cd3 Cd 0.00187 0.18881 0.75013 0.0
O4 O 0.97682 0.17335 0.71484 0.0
C5 C 0.98594 0.17651 0.68998 0.0
O6 O 0.01094 0.18638 0.68633 0.0
C7 C 0.0374 0.24043 0.76911 0.0
C8 C 0.09311 0.15315 0.76538 0.0
O9 O 0.07378 0.15939 0.78132 0.0
O10 O 0.09237 0.15973 0.73932 0.0
O11 O 0.96837 0.5703 0.23375 0.0
Cd12 Cd 0.92441 0.54448 0.23495 0.0
O13 O 0.98103 0.55598 0.27523 0.0
Cd14 Cd 0.94186 0.5346 0.28381 0.0
O15 O 0.90071 0.52569 0.29849 0.0
C16 C 0.89215 0.54283 0.31596 0.0
O17 O 0.9083 0.5639 0.32446 0.0
C18 C 0.98599 0.56977 0.25299 0.0
C19 C 0.91721 0.51117 0.18726 0.0
O20 O 0.91012 0.53578 0.18731 0.0
O21 O 0.92747 0.50212 0.2097 0.0
O22 O 0.5186 0.33957 0.78906 0.0
Cd23 Cd 0.51796 0.37093 0.74924 0.0
O24 O 0.4805 0.3509 0.80759 0.0
Cd25 Cd 0.47297 0.38177 0.7762 0.0
O26 O 0.45262 0.41292 0.75371 0.0
C27 C 0.42723 0.40902 0.75208 0.0
O28 O 0.41503 0.38682 0.76316 0.0
C29 C 0.50066 0.33669 0.80806 0.0
C30 C 0.55847 0.35998 0.71139 0.0
O31 O 0.53493 0.34762 0.70909 0.0
O32 O 0.56277 0.37793 0.73114 0.0
O33 O 0.7683 0.14092 0.27366 0.0
Cd34 Cd 0.73017 0.16263 0.25431 0.0
O35 O 0.73996 0.11232 0.29619 0.0
Cd36 Cd 0.72974 0.07836 0.32485 0.0
O37 O 0.71121 0.04623 0.35188 0.0
C38 C 0.71336 0.04843 0.37851 0.0
O39 O 0.72743 0.06977 0.38964 0.0
C40 C 0.764 0.12092 0.29041 0.0
C41 C 0.7372 0.17604 0.19778 0.0
O42 O 0.74641 0.19249 0.21737 0.0
O43 O 0.72471 0.15316 0.20485 0.0
O44 O 0.03747 0.37067 0.80634 0.0
Cd45 Cd 0.02905 0.41352 0.83035 0.0
O46 O 0.04038 0.34857 0.84635 0.0
Cd47 Cd 0.03363 0.38411 0.87303 0.0
O48 O 0.01147 0.40704 0.90369 0.0
C49 C 0.0035 0.43069 0.89952 0.0
O50 O 0.00964 0.44365 0.87599 0.0
C51 C 0.04051 0.34863 0.81954 0.0
C52 C 0.07391 0.45076 0.83529 0.0
O53 O 0.06878 0.4323 0.85398 0.0
O54 O 0.05817 0.45131 0.81403 0.0
O55 O 0.77352 0.52516 0.37677 0.0
Cd56 Cd 0.72934 0.5274 0.39837 0.0
O57 O 0.77136 0.56183 0.3503 0.0
Cd58 Cd 0.73103 0.57171 0.36219 0.0
O59 O 0.69674 0.59655 0.35938 0.0
C60 C 0.6959 0.61792 0.37478 0.0
O61 O 0.71479 0.62384 0.39364 0.0
C62 C 0.78406 0.54206 0.35895 0.0
C63 C 0.7187 0.48322 0.43455 0.0
O64 O 0.73125 0.50563 0.44336 0.0
O65 O 0.71088 0.4817 0.40881 0.0
O66 O 0.50784 0.23297 0.89252 0.0
Cd67 Cd 0.51548 0.19811 0.92761 0.0
O68 O 0.50849 0.2672 0.9234 0.0
Cd69 Cd 0.50596 0.23948 0.95928 0.0
O70 O 0.49248 0.20815 0.98987 0.0
C71 C 0.47319 0.19142 0.98163 0.0
O72 O 0.46378 0.19349 0.95596 0.0
C73 C 0.50756 0.2585 0.89801 0.0
C74 C 0.56974 0.20364 0.94116 0.0
O75 O 0.55273 0.21599 0.95571 0.0
O76 O 0.56111 0.18775 0.92087 0.0
O77 O 0.97043 0.03796 0.41844 0.0
Cd78 Cd 0.99344 0.01471 0.38072 0.0
O79 O 0.93855 0.04507 0.38831 0.0
Cd80 Cd 0.90105 0.06221 0.377 0.0
O81 O 0.86423 0.07864 0.36248 0.0
C82 C 0.85642 0.07373 0.33731 0.0
O83 O 0.87037 0.05856 0.32072 0.0
C84 C 0.94846 0.04812 0.41292 0.0
C85 C 0.01488 0.9666 0.39716 0.0
O86 O 0.02843 0.98992 0.40002 0.0
O87 O 0.99112 0.96596 0.38695 0.0
O88 O 0.33899 0.67811 0.11945 0.0
Cd89 Cd 0.30348 0.6438 0.10432 0.0
O90 O 0.36608 0.64817 0.13495 0.0
Cd91 Cd 0.33413 0.61504 0.13072 0.0
O92 O 0.29306 0.60642 0.14577 0.0
C93 C 0.28869 0.62108 0.1673 0.0
O94 O 0.30851 0.63738 0.17783 0.0
C95 C 0.36134 0.67287 0.12999 0.0
C96 C 0.28423 0.6555 0.05133 0.0
O97 O 0.30395 0.64058 0.05401 0.0
O98 O 0.27349 0.66479 0.07365 0.0
O99 O 0.25441 0.81101 0.7109 0.0
Cd100 Cd 0.23184 0.83156 0.75033 0.0
O101 O 0.2309 0.83484 0.68264 0.0
Cd102 Cd 0.21647 0.84478 0.64101 0.0
O103 O 0.19526 0.84878 0.60143 0.0
C104 C 0.20365 0.8374 0.57931 0.0
O105 O 0.22543 0.82415 0.58046 0.0
C106 C 0.24796 0.8173 0.68605 0.0
C107 C 0.23883 0.88853 0.75084 0.0
O108 O 0.25523 0.87419 0.76371 0.0
O109 O 0.2193 0.87599 0.73714 0.0
O110 O 0.36476 0.69504 0.60965 0.0
Cd111 Cd 0.37699 0.74347 0.59917 0.0
O112 O 0.34124 0.68641 0.57083 0.0
Cd113 Cd 0.33862 0.73043 0.56599 0.0
O114 O 0.3208 0.76207 0.59091 0.0
C115 C 0.29561 0.75854 0.59475 0.0
O116 O 0.28178 0.73823 0.58154 0.0
C117 C 0.35149 0.67806 0.59337 0.0
C118 C 0.4159 0.7488 0.55709 0.0
O119 O 0.42265 0.74791 0.5831 0.0
O120 O 0.39089 0.74745 0.55092 0.0
O121 O 0.47088 0.88065 0.21854 0.0
Cd122 Cd 0.44219 0.86735 0.17801 0.0
O123 O 0.46865 0.83873 0.23579 0.0
Cd124 Cd 0.44431 0.81821 0.20234 0.0
O125 O 0.42026 0.78389 0.18253 0.0
C126 C 0.43004 0.76836 0.16421 0.0
O127 O 0.45498 0.77352 0.15583 0.0
C128 C 0.47687 0.86403 0.23754 0.0
C129 C 0.4262 0.91282 0.14928 0.0
O130 O 0.41281 0.90305 0.17047 0.0
O131 O 0.44716 0.90125 0.14162 0.0
O132 O 0.11586 0.82275 0.47838 0.0
Cd133 Cd 0.085 0.81782 0.43824 0.0
O134 O 0.1495 0.84394 0.455 0.0
Cd135 Cd 0.12968 0.8336 0.41505 0.0
O136 O 0.12399 0.80194 0.38244 0.0
C137 C 0.14001 0.78325 0.38495 0.0
O138 O 0.15712 0.78473 0.40604 0.0
C139 C 0.13938 0.83487 0.47798 0.0
C140 C 0.06216 0.86641 0.42587 0.0
O141 O 0.05151 0.84989 0.4443 0.0
O142 O 0.08356 0.86014 0.41335 0.0
O143 O 0.2428 0.66295 0.85137 0.0
Cd144 Cd 0.22792 0.69438 0.88734 0.0
O145 O 0.20954 0.63297 0.86273 0.0
Cd146 Cd 0.18528 0.59419 0.8564 0.0
O147 O 0.15513 0.55956 0.85182 0.0
C148 C 0.16136 0.53553 0.84567 0.0
O149 O 0.18667 0.53106 0.84191 0.0
C150 C 0.22978 0.63977 0.84737 0.0
C151 C 0.24591 0.68156 0.94056 0.0
O152 O 0.26004 0.69824 0.92474 0.0
O153 O 0.22326 0.67093 0.9313 0.0
O154 O 0.58964 0.77484 0.35538 0.0
Cd155 Cd 0.57791 0.72921 0.33509 0.0
O156 O 0.55826 0.76529 0.3869 0.0
Cd157 Cd 0.53528 0.77476 0.42446 0.0
O158 O 0.50846 0.77617 0.46074 0.0
C159 C 0.49307 0.75478 0.46591 0.0
O160 O 0.49404 0.73291 0.44968 0.0
C161 C 0.57681 0.78185 0.37706 0.0
C162 C 0.61529 0.69266 0.34975 0.0
O163 O 0.61802 0.70678 0.32716 0.0
O164 O 0.59489 0.6957 0.3655 0.0
O165 O 0.41048 0.08492 0.04621 0.0
Cd166 Cd 0.37409 0.0513 0.06072 0.0
O167 O 0.38283 0.11675 0.03751 0.0
Cd168 Cd 0.34549 0.09098 0.04271 0.0
O169 O 0.31254 0.07877 0.0139 0.0
C170 C 0.3143 0.09188 0.99087 0.0
O171 O 0.3338 0.11136 0.98772 0.0
C172 C 0.40648 0.10909 0.03846 0.0
C173 C 0.39192 0.00667 0.0894 0.0
O174 O 0.39077 0.00664 0.0624 0.0
O175 O 0.38492 0.02779 0.10291 0.0
O176 O 0.17165 0.65072 0.21656 0.0
Cd177 Cd 0.13604 0.66709 0.24614 0.0
O178 O 0.18953 0.6279 0.25063 0.0
Cd179 Cd 0.1598 0.63976 0.28093 0.0
O180 O 0.14235 0.66912 0.30892 0.0
C181 C 0.1556 0.69245 0.3101 0.0
O182 O 0.17723 0.6968 0.29449 0.0
C183 C 0.1898 0.63611 0.22529 0.0
C184 C 0.08798 0.63421 0.24548 0.0
O185 O 0.09219 0.65389 0.22796 0.0
O186 O 0.1066 0.62965 0.26291 0.0
O187 O 0.33611 0.55258 0.64763 0.0
Cd188 Cd 0.31992 0.517 0.68084 0.0
O189 O 0.31371 0.58229 0.67147 0.0
Cd190 Cd 0.29954 0.55724 0.70714 0.0
O191 O 0.2817 0.56259 0.74868 0.0
C192 C 0.26856 0.58372 0.75045 0.0
O193 O 0.26555 0.59837 0.72779 0.0
C194 C 0.3285 0.57663 0.65074 0.0
C195 C 0.35838 0.48516 0.70282 0.0
O196 O 0.34588 0.47791 0.68 0.0
O197 O 0.35336 0.50784 0.71479 0.0
O198 O 0.61442 0.88644 0.45782 0.0
Cd199 Cd 0.62637 0.92969 0.48284 0.0
O200 O 0.60002 0.90884 0.42167 0.0
Cd201 Cd 0.58226 0.90799 0.3796 0.0
O202 O 0.56201 0.90051 0.33917 0.0
C203 C 0.53668 0.89541 0.33884 0.0
O204 O 0.52321 0.89551 0.36263 0.0
C205 C 0.6041 0.88626 0.43334 0.0
C206 C 0.65509 0.96781 0.44893 0.0
O207 O 0.66726 0.95092 0.46373 0.0
O208 O 0.62941 0.96672 0.45007 0.0
O209 O 0.23708 0.07454 0.87728 0.0
Cd210 Cd 0.22579 0.06966 0.82705 0.0
O211 O 0.27695 0.0603 0.86823 0.0
Cd212 Cd 0.26658 0.04422 0.82633 0.0
O213 O 0.25581 0.00689 0.80204 0.0
C214 C 0.25937 0.00336 0.77579 0.0
O215 O 0.26926 0.02386 0.76022 0.0
C216 C 0.26059 0.07016 0.88536 0.0
C217 C 0.1822 0.09715 0.80915 0.0
O218 O 0.20508 0.11017 0.81404 0.0
O219 O 0.17974 0.07118 0.81339 0.0
O220 O 0.92506 0.42386 -0.0003 0.0
Cd221 Cd 0.89487 0.41075 0.03882 0.0
O222 O 0.9057 0.4605 0.9862 0.0
Cd223 Cd 0.87133 0.44753 0.01243 0.0
O224 O 0.84288 0.41227 0.02084 0.0
C225 C 0.84424 0.39271 0.00313 0.0
O226 O 0.86131 0.3957 0.98209 0.0
C227 C 0.9244 0.44453 0.9837 0.0
C228 C 0.90319 0.44352 0.08684 0.0
O229 O 0.88644 0.44951 0.06793 0.0
O230 O 0.91623 0.42228 0.0831 0.0
O231 O 0.90727 0.14636 0.58075 0.0
Cd232 Cd 0.87475 0.14036 0.54233 0.0
O233 O 0.89195 0.18388 0.59887 0.0
Cd234 Cd 0.85891 0.18822 0.56956 0.0
O235 O 0.82421 0.20944 0.55638 0.0
C236 C 0.82184 0.23248 0.56849 0.0
O237 O 0.84025 0.24203 0.58662 0.0
C238 C 0.90849 0.16547 0.59923 0.0
C239 C 0.89677 0.11059 0.49887 0.0
O240 O 0.88357 0.09827 0.51887 0.0
O241 O 0.89907 0.13693 0.49902 0.0
O242 O 0.7266 0.31449 0.54155 0.0
Cd243 Cd 0.68954 0.34426 0.54255 0.0
O244 O 0.71878 0.29958 0.58477 0.0
Cd245 Cd 0.68494 0.32391 0.59377 0.0
O246 O 0.65253 0.34119 0.61731 0.0
C247 C 0.6421 0.32664 0.63716 0.0
O248 O 0.65089 0.30252 0.64204 0.0
C249 C 0.73239 0.29957 0.56211 0.0
C250 C 0.69919 0.38976 0.50797 0.0
O251 O 0.70544 0.39124 0.53417 0.0
O252 O 0.68845 0.36693 0.49804 0.0
O253 O 0.78595 0.26943 0.02541 0.0
Cd254 Cd 0.76209 0.2237 0.02571 0.0
O255 O 0.76336 0.28361 0.98925 0.0
Cd256 Cd 0.73591 0.24661 0.98627 0.0
O257 O 0.69761 0.22337 0.97767 0.0
C258 C 0.68009 0.23754 0.96699 0.0
O259 O 0.68645 0.26362 0.96169 0.0
C260 C 0.78166 0.28791 0.00771 0.0
C261 C 0.75276 0.20677 0.08088 0.0
O262 O 0.7749 0.20282 0.06846 0.0
O263 O 0.73485 0.21836 0.06711 0.0
C264 C 0.063 0.30543 0.80954 0.0
C265 C 0.04189 0.32231 0.8039 0.0
C266 C 0.02269 0.28797 0.77 0.0
C267 C 0.04102 0.26932 0.77921 0.0
N268 N 0.07716 0.25918 0.81013 0.0
N269 N -0.00126 0.3273 0.78222 0.0
C270 C 0.06101 0.27778 0.79944 0.0
C271 C 0.02104 0.31311 0.78485 0.0
N272 N 0.08519 0.316 0.82402 0.0
N273 N 0.00716 0.28188 0.74669 0.0
H274 H 0.99586 0.34523 0.79353 0.0
H275 H 0.98178 0.31973 0.77094 0.0
H276 H 0.00832 0.26393 0.73477 0.0
H277 H 0.99536 0.29594 0.73747 0.0
H278 H 0.10234 0.30551 0.82642 0.0
H279 H 0.08753 0.33634 0.83119 0.0
H280 H 0.08999 0.26351 0.82719 0.0
H281 H 0.07621 0.23869 0.80353 0.0
C282 C 0.83365 0.54088 0.36705 0.0
C283 C 0.81152 0.53913 0.3482 0.0
C284 C 0.84225 0.53928 0.30786 0.0
C285 C 0.86427 0.53946 0.32676 0.0
N286 N 0.88052 0.53367 0.374 0.0
N287 N 0.79429 0.53004 0.30124 0.0
C288 C 0.85983 0.53818 0.35628 0.0
C289 C 0.81569 0.53628 0.31875 0.0
N290 N 0.82994 0.54657 0.39501 0.0
N291 N 0.8466 0.54345 0.27971 0.0
H292 H 0.77457 0.52725 0.30854 0.0
H293 H 0.7963 0.52496 0.27999 0.0
H294 H 0.8657 0.54617 0.27081 0.0
H295 H 0.83132 0.54664 0.26551 0.0
H296 H 0.84573 0.55119 0.40905 0.0
H297 H 0.81118 0.54911 0.40382 0.0
H298 H 0.87791 0.52975 0.39541 0.0
H299 H 0.89988 0.53107 0.36681 0.0
C300 C 0.48266 0.29432 0.83345 0.0
C301 C 0.5029 0.31629 0.83065 0.0
C302 C 0.52771 0.29835 0.87003 0.0
C303 C 0.50608 0.27821 0.87468 0.0
N304 N 0.46099 0.25962 0.86383 0.0
N305 N 0.54264 0.34192 0.8489 0.0
C306 C 0.483 0.27685 0.85718 0.0
C307 C 0.52495 0.31902 0.84961 0.0
N308 N 0.46366 0.28948 0.81287 0.0
N309 N 0.55127 0.29716 0.88442 0.0
H310 H 0.54118 0.35767 0.83445 0.0
H311 H 0.55734 0.34649 0.86417 0.0
H312 H 0.55415 0.28219 0.89938 0.0
H313 H 0.56872 0.30943 0.87974 0.0
H314 H 0.45017 0.27204 0.81223 0.0
H315 H 0.46295 0.30152 0.7949 0.0
H316 H 0.44255 0.25996 0.8537 0.0
H317 H 0.46035 0.2466 0.88114 0.0
C318 C 0.8305 0.11449 0.32739 0.0
C319 C 0.83219 0.08562 0.32639 0.0
C320 C 0.78975 0.0799 0.30027 0.0
C321 C 0.78691 0.10844 0.30356 0.0
N322 N 0.80151 0.1517 0.32612 0.0
N323 N 0.81062 0.04029 0.31738 0.0
C324 C 0.80639 0.1254 0.31885 0.0
C325 C 0.81099 0.06813 0.31441 0.0
N326 N 0.8523 0.13166 0.33519 0.0
N327 N 0.77298 0.06421 0.28265 0.0
H328 H 0.82551 0.03089 0.32814 0.0
H329 H 0.79426 0.02676 0.31167 0.0
H330 H 0.75747 0.07209 0.27143 0.0
H331 H 0.77597 0.04398 0.27714 0.0
H332 H 0.85301 0.15294 0.33333 0.0
H333 H 0.87066 0.12466 0.34085 0.0
H334 H 0.81381 0.16398 0.33972 0.0
H335 H 0.78375 0.16028 0.32099 0.0
C336 C 0.38748 0.70043 0.16718 0.0
C337 C 0.38098 0.69592 0.13828 0.0
C338 C 0.40656 0.73927 0.12613 0.0
C339 C 0.41426 0.7429 0.1548 0.0
N340 N 0.41746 0.72392 0.20131 0.0
N341 N 0.38825 0.70797 0.08956 0.0
C342 C 0.40634 0.72256 0.17495 0.0
C343 C 0.3917 0.71446 0.11752 0.0
N344 N 0.37462 0.68453 0.18743 0.0
N345 N 0.41244 0.75998 0.1074 0.0
H346 H 0.37769 0.68985 0.08256 0.0
H347 H 0.39783 0.71923 0.0734 0.0
H348 H 0.42336 0.77839 0.11291 0.0
H349 H 0.40477 0.75985 0.08699 0.0
H350 H 0.37626 0.68898 0.20892 0.0
H351 H 0.36041 0.66826 0.18284 0.0
H352 H 0.41463 0.70813 0.21587 0.0
H353 H 0.43167 0.73961 0.20772 0.0
C354 C 0.27032 0.75932 0.6403 0.0
C355 C 0.28279 0.77394 0.61745 0.0
C356 C 0.27345 0.81757 0.64009 0.0
C357 C 0.25891 0.80273 0.66157 0.0
N358 N 0.23786 0.75956 0.67806 0.0
N359 N 0.29217 0.81662 0.59289 0.0
C360 C 0.25567 0.77362 0.66047 0.0
C361 C 0.28319 0.80301 0.61654 0.0
N362 N 0.27358 0.73201 0.64366 0.0
N363 N 0.279 0.84536 0.64274 0.0
H364 H 0.29936 0.8066 0.57525 0.0
H365 H 0.29027 0.83745 0.58978 0.0
H366 H 0.2725 0.85673 0.65979 0.0
H367 H 0.29194 0.85681 0.6293 0.0
H368 H 0.26727 0.72117 0.66159 0.0
H369 H 0.28505 0.72081 0.63006 0.0
H370 H 0.23272 0.7385 0.67614 0.0
H371 H 0.22604 0.76929 0.69259 0.0
C372 C 0.14352 0.76404 0.33565 0.0
C373 C 0.13955 0.75969 0.36495 0.0
C374 C 0.14442 0.71054 0.35828 0.0
C375 C 0.14726 0.71469 0.32881 0.0
N376 N 0.1419 0.74374 0.28878 0.0
N377 N 0.12849 0.72801 0.40267 0.0
C378 C 0.14437 0.74095 0.31728 0.0
C379 C 0.13752 0.73265 0.37578 0.0
N380 N 0.14812 0.79008 0.32546 0.0
N381 N 0.1499 0.68613 0.36991 0.0
H382 H 0.12258 0.74368 0.41584 0.0
H383 H 0.12416 0.70839 0.41076 0.0
H384 H 0.1557 0.66951 0.3581 0.0
H385 H 0.15107 0.68322 0.39158 0.0
H386 H 0.15416 0.79419 0.3048 0.0
H387 H 0.14827 0.80766 0.33813 0.0
H388 H 0.13716 0.7619 0.27939 0.0
H389 H 0.14174 0.7271 0.27475 0.0
C390 C 0.27538 0.60129 0.80027 0.0
C391 C 0.25776 0.59305 0.77769 0.0
C392 C 0.2208 0.61349 0.80188 0.0
C393 C 0.23826 0.62119 0.82474 0.0
N394 N 0.27966 0.61575 0.84923 0.0
N395 N 0.21252 0.58445 0.76048 0.0
C396 C 0.26477 0.61291 0.82506 0.0
C397 C 0.23004 0.59693 0.77968 0.0
N398 N 0.30242 0.59968 0.79747 0.0
N399 N 0.19603 0.62331 0.80043 0.0
H400 H 0.21869 0.57189 0.74418 0.0
H401 H 0.19174 0.58424 0.76241 0.0
H402 H 0.18853 0.63583 0.81598 0.0
H403 H 0.18375 0.6209 0.7827 0.0
H404 H 0.3164 0.60845 0.81191 0.0
H405 H 0.31121 0.59153 0.77967 0.0
H406 H 0.29811 0.6076 0.85159 0.0
H407 H 0.27231 0.62381 0.86791 0.0
C408 C 0.57018 0.85234 0.41015 0.0
C409 C 0.59712 0.8598 0.41841 0.0
C410 C 0.61016 0.81515 0.40167 0.0
C411 C 0.58382 0.80877 0.39105 0.0
N412 N 0.54017 0.82351 0.38013 0.0
N413 N 0.64383 0.85077 0.41681 0.0
C414 C 0.56419 0.828 0.39386 0.0
C415 C 0.61744 0.84189 0.4127 0.0
N416 N 0.55012 0.86788 0.41879 0.0
N417 N 0.62793 0.79534 0.40234 0.0
H418 H 0.65006 0.87042 0.42435 0.0
H419 H 0.65963 0.83966 0.41016 0.0
H420 H 0.6233 0.77531 0.39497 0.0
H421 H 0.64637 0.798 0.41264 0.0
H422 H 0.52983 0.8618 0.416 0.0
H423 H 0.55359 0.88571 0.43101 0.0
H424 H 0.52626 0.83819 0.37893 0.0
H425 H 0.53517 0.80612 0.36763 0.0
C426 C 0.2823 0.10604 0.9544 0.0
C427 C 0.29578 0.08484 0.96701 0.0
C428 C 0.27804 0.05267 0.93031 0.0
C429 C 0.26906 0.07495 0.91505 0.0
N430 N 0.26397 0.12352 0.91156 0.0
N431 N 0.30889 0.03825 0.96526 0.0
C432 C 0.27115 0.10181 0.92696 0.0
C433 C 0.29398 0.05806 0.9548 0.0
N434 N 0.27987 0.13007 0.96886 0.0
N435 N 0.27107 0.02629 0.92149 0.0
H436 H 0.32136 0.04126 0.98279 0.0
H437 H 0.31071 0.01949 0.95506 0.0
H438 H 0.259 0.02165 0.90386 0.0
H439 H 0.27484 0.00914 0.93326 0.0
H440 H 0.26813 0.14531 0.96192 0.0
H441 H 0.2874 0.13355 0.98923 0.0
H442 H 0.26804 0.14393 0.91789 0.0
H443 H 0.25567 0.12132 0.89143 0.0
C444 C 0.82614 0.31583 0.00568 0.0
C445 C 0.79783 0.31473 0.0086 0.0
C446 C 0.7997 0.36505 0.00767 0.0
C447 C 0.82813 0.36614 0.00678 0.0
N448 N 0.86854 0.34285 0.01208 0.0
N449 N 0.75828 0.33817 0.01905 0.0
C450 C 0.84141 0.34159 0.00793 0.0
C451 C 0.78477 0.33933 0.01159 0.0
N452 N 0.8384 0.29251 -0.0006 0.0
N453 N 0.78685 0.3883 0.00342 0.0
H454 H 0.7468 0.31973 0.02273 0.0
H455 H 0.74845 0.3555 0.02433 0.0
H456 H 0.79698 0.40752 7e-05 0.0
H457 H 0.76617 0.3881 0.00071 0.0
H458 H 0.85861 0.29269 0.99397 0.0
H459 H 0.82797 0.27324 0.99696 0.0
H460 H 0.87885 0.3256 0.01594 0.0
H461 H 0.88037 0.36134 0.01463 0.0
C462 C 0.75004 0.25314 0.56432 0.0
C463 C 0.75499 0.28181 0.55994 0.0
C464 C 0.80295 0.27614 0.55419 0.0
C465 C 0.79846 0.24846 0.563 0.0
N466 N 0.76787 0.21139 0.58011 0.0
N467 N 0.78668 0.32145 0.554 0.0
C468 C 0.77201 0.23702 0.56879 0.0
C469 C 0.78157 0.29356 0.55547 0.0
N470 N 0.72433 0.24119 0.56359 0.0
N471 N 0.82754 0.2856 0.54398 0.0
H472 H 0.77172 0.33506 0.55521 0.0
H473 H 0.80599 0.33126 0.55403 0.0
H474 H 0.84351 0.27323 0.54222 0.0
H475 H 0.83128 0.30474 0.53463 0.0
H476 H 0.71968 0.22 0.5638 0.0
H477 H 0.70776 0.25229 0.55985 0.0
H478 H 0.74934 0.20339 0.58776 0.0
H479 H 0.78334 0.19896 0.58423 0.0
C480 C 0.13311 0.1058 0.80922 0.0
C481 C 0.15938 0.11166 0.79822 0.0
C482 C 0.14266 0.14768 0.76911 0.0
C483 C 0.11589 0.13892 0.77683 0.0
N484 N 0.08567 0.10448 0.79931 0.0
N485 N 0.18723 0.13355 0.76171 0.0
C486 C 0.11106 0.1165 0.79552 0.0
C487 C 0.16367 0.1313 0.77645 0.0
N488 N 0.12916 0.09102 0.83338 0.0
N489 N 0.1484 0.17217 0.75586 0.0
H490 H 0.20257 0.12071 0.76487 0.0
H491 H 0.19015 0.14593 0.74402 0.0
H492 H 0.13396 0.18578 0.75166 0.0
H493 H 0.16799 0.18039 0.75215 0.0
H494 H 0.11061 0.08843 0.84347 0.0
H495 H 0.14485 0.08416 0.84511 0.0
H496 H 0.08166 0.0865 0.81077 0.0
H497 H 0.06906 0.11041 0.78841 0.0
C498 C 0.06042 0.58908 0.24078 0.0
C499 C 0.06178 0.61777 0.24639 0.0
C500 C 0.01302 0.61525 0.25327 0.0
C501 C 0.012 0.58625 0.25006 0.0
N502 N 0.03454 0.54488 0.24348 0.0
N503 N 0.04046 0.65768 0.26246 0.0
C504 C 0.03569 0.57294 0.24469 0.0
C505 C 0.03834 0.6308 0.25364 0.0
N506 N 0.08251 0.5775 0.23057 0.0
N507 N 0.98978 0.62797 0.25604 0.0
H508 H 0.05866 0.66973 0.26347 0.0
H509 H 0.02461 0.66746 0.27113 0.0
H510 H 0.9709 0.61729 0.25763 0.0
H511 H 0.98896 0.64916 0.2549 0.0
H512 H 0.08217 0.55731 0.22323 0.0
H513 H 0.10087 0.58874 0.22717 0.0
H514 H 0.05146 0.53381 0.24302 0.0
H515 H 0.0166 0.53242 0.24466 0.0
C516 C 0.39121 0.4414 0.7566 0.0
C517 C 0.41115 0.43011 0.73981 0.0
C518 C 0.39933 0.45863 0.70019 0.0
C519 C 0.37714 0.467 0.71583 0.0
N520 N 0.34904 0.46224 0.7573 0.0
N521 N 0.43202 0.42505 0.69433 0.0
C522 C 0.37232 0.45738 0.74366 0.0
C523 C 0.41476 0.43803 0.71126 0.0
N524 N 0.39082 0.43761 0.78513 0.0
N525 N 0.40619 0.47098 0.67519 0.0
H526 H 0.44352 0.4097 0.70153 0.0
H527 H 0.43324 0.42781 0.67261 0.0
H528 H 0.39563 0.48647 0.66666 0.0
H529 H 0.42377 0.46777 0.66428 0.0
H530 H 0.37848 0.44775 0.79874 0.0
H531 H 0.40478 0.42665 0.79556 0.0
H532 H 0.34325 0.4531 0.77634 0.0
H533 H 0.33419 0.47317 0.74841 0.0
C534 C 0.7039 -0.00029 0.39443 0.0
C535 C 0.69884 0.02781 0.39686 0.0
C536 C 0.66749 0.01679 0.43565 0.0
C537 C 0.67035 0.98841 0.43115 0.0
N538 N 0.68758 0.95241 0.40286 0.0
N539 N 0.67188 0.06242 0.41594 0.0
C540 C 0.68759 0.9797 0.40963 0.0
C541 C 0.67958 0.03621 0.41646 0.0
N542 N 0.72488 0.99221 0.37839 0.0
N543 N 0.6541 0.02535 0.45886 0.0
H544 H 0.67972 0.07717 0.40179 0.0
H545 H 0.65583 0.06876 0.42767 0.0
H546 H 0.64539 0.01185 0.47379 0.0
H547 H 0.6539 0.04594 0.46479 0.0
H548 H 0.73127 0.97244 0.37823 0.0
H549 H 0.73755 0.0063 0.36727 0.0
H550 H 0.69756 0.94515 0.38537 0.0
H551 H 0.67555 0.93712 0.4131 0.0
C552 C 0.11656 0.47474 0.81669 0.0
C553 C 0.09713 0.47146 0.8385 0.0
C554 C 0.12268 0.50689 0.86673 0.0
C555 C 0.14006 0.51264 0.84349 0.0
N556 N 0.15107 0.50496 0.79458 0.0
N557 N 0.07905 0.48781 0.88229 0.0
C558 C 0.13643 0.49729 0.81798 0.0
C559 C 0.09949 0.48837 0.86307 0.0
N560 N 0.1166 0.45582 0.79523 0.0
N561 N 0.12878 0.51843 0.89258 0.0
H562 H 0.06133 0.47512 0.88015 0.0
H563 H 0.07852 0.50185 0.89895 0.0
H564 H 0.14595 0.53161 0.8963 0.0
H565 H 0.11832 0.51275 0.91089 0.0
H566 H 0.13193 0.45562 0.78036 0.0
H567 H 0.10273 0.43868 0.79387 0.0
H568 H 0.14716 0.49638 0.77465 0.0
H569 H 0.16554 0.52163 0.79445 0.0
C570 C 0.66293 0.68382 0.36002 0.0
C571 C 0.63561 0.67365 0.3576 0.0
C572 C 0.64751 0.6278 0.37087 0.0
C573 C 0.6751 0.63725 0.36969 0.0
N574 N 0.70922 0.67321 0.35752 0.0
N575 N 0.60226 0.63492 0.35621 0.0
C576 C 0.6829 0.66502 0.36283 0.0
C577 C 0.62793 0.64535 0.36191 0.0
N578 N 0.66979 0.71152 0.36059 0.0
N579 N 0.63993 0.60237 0.38137 0.0
H580 H 0.58741 0.64692 0.34908 0.0
H581 H 0.59632 0.61396 0.35604 0.0
H582 H 0.65367 0.5891 0.38857 0.0
H583 H 0.62003 0.59552 0.38547 0.0
H584 H 0.68909 0.72007 0.36526 0.0
H585 H 0.65569 0.72605 0.35934 0.0
H586 H 0.71553 0.69244 0.34949 0.0
H587 H 0.72451 0.65996 0.35831 0.0
C588 C 0.46114 0.14179 0.99077 0.0
C589 C 0.46132 0.16944 0.00017 0.0
C590 C 0.43316 0.15463 0.04043 0.0
C591 C 0.42883 0.12811 0.02795 0.0
N592 N 0.43719 0.09672 0.98968 0.0
N593 N 0.44656 0.20288 0.0334 0.0
C594 C 0.44279 0.12154 0.00297 0.0
C595 C 0.44748 0.17606 0.02517 0.0
N596 N 0.47871 0.13493 0.97028 0.0
N597 N 0.42362 0.15917 0.06694 0.0
H598 H 0.45677 0.21922 0.0229 0.0
H599 H 0.43416 0.20914 0.04947 0.0
H600 H 0.4133 0.14368 0.07863 0.0
H601 H 0.42818 0.17732 0.07832 0.0
H602 H 0.48137 0.11472 0.96442 0.0
H603 H 0.49263 0.14935 0.96119 0.0
H604 H 0.4443 0.09226 0.96964 0.0
H605 H 0.42378 0.0812 0.99755 0.0
C606 C 0.0342 0.93635 0.43302 0.0
C607 C 0.02674 0.94087 0.40469 0.0
C608 C 0.03999 0.89535 0.39104 0.0
C609 C 0.04976 0.89193 0.41874 0.0
N610 N 0.06028 0.91082 0.46502 0.0
N611 N 0.0269 0.92701 0.35567 0.0
C612 C 0.04795 0.91286 0.4395 0.0
C613 C 0.03078 0.92099 0.38338 0.0
N614 N 0.02729 0.95398 0.45389 0.0
N615 N 0.03858 0.87377 0.37231 0.0
H616 H 0.02045 0.94568 0.3491 0.0
H617 H 0.03241 0.91457 0.33902 0.0
H618 H 0.04491 0.85456 0.37716 0.0
H619 H 0.02891 0.8741 0.3529 0.0
H620 H 0.02957 0.95018 0.47528 0.0
H621 H 0.01706 0.97132 0.45 0.0
H622 H 0.06222 0.92677 0.47983 0.0
H623 H 0.07069 0.89401 0.4705 0.0
C624 C 0.73303 0.20929 0.15835 0.0
C625 C 0.74064 0.18354 0.16769 0.0
C626 C 0.7525 0.17157 0.11919 0.0
C627 C 0.74823 0.19864 0.11065 0.0
N628 N 0.74006 0.24519 0.12385 0.0
N629 N 0.76285 0.14237 0.15786 0.0
C630 C 0.74001 0.21807 0.13069 0.0
C631 C 0.7518 0.16522 0.14836 0.0
N632 N 0.71819 0.22494 0.1754 0.0
N633 N 0.75618 0.1516 0.09947 0.0
H634 H 0.76365 0.13739 0.17915 0.0
H635 H 0.77369 0.12991 0.14493 0.0
H636 H 0.7559 0.15512 0.07784 0.0
H637 H 0.75669 0.13093 0.10449 0.0
H638 H 0.70986 0.24253 0.16847 0.0
H639 H 0.71171 0.21884 0.19545 0.0
H640 H 0.73687 0.26054 0.13863 0.0
H641 H 0.7461 0.25284 0.10421 0.0
C642 C 0.96378 0.19543 0.64782 0.0
C643 C 0.96743 0.17282 0.66559 0.0
C644 C 0.93181 0.14513 0.64018 0.0
C645 C 0.92979 0.16704 0.62105 0.0
N646 N 0.94854 0.21031 0.60255 0.0
N647 N 0.95881 0.12454 0.67533 0.0
C648 C 0.94723 0.19136 0.62362 0.0
C649 C 0.9526 0.14715 0.66076 0.0
N650 N 0.97481 0.22117 0.65482 0.0
N651 N 0.91315 0.12303 0.63967 0.0
H652 H 0.97408 0.12521 0.69035 0.0
H653 H 0.95057 0.10471 0.67067 0.0
H654 H 0.89737 0.1209 0.62525 0.0
H655 H 0.91191 0.10795 0.65508 0.0
H656 H 0.97031 0.23877 0.64419 0.0
H657 H 0.98622 0.22549 0.67296 0.0
H658 H 0.96289 0.22705 0.60204 0.0
H659 H 0.9372 0.20778 0.58412 0.0
C660 C 0.93216 0.49784 0.13898 0.0
C661 C 0.9138 0.49364 0.16169 0.0
C662 C 0.88785 0.45741 0.13474 0.0
C663 C 0.90702 0.46058 0.11268 0.0
N664 N 0.94884 0.48119 0.09436 0.0
N665 N 0.87605 0.46788 0.18314 0.0
C666 C 0.92963 0.48004 0.11498 0.0
C667 C 0.89219 0.47293 0.16014 0.0
N668 N 0.95174 0.51913 0.14025 0.0
N669 N 0.86525 0.4399 0.13114 0.0
H670 H 0.87791 0.4796 0.20168 0.0
H671 H 0.86188 0.45111 0.18468 0.0
H672 H 0.86194 0.42733 0.11335 0.0
H673 H 0.84898 0.43891 0.14489 0.0
H674 H 0.96386 0.52537 0.12326 0.0
H675 H 0.95497 0.5318 0.15798 0.0
H676 H 0.96727 0.49266 0.09607 0.0
H677 H 0.94712 0.46923 0.07598 0.0
C678 C 0.60424 0.34366 0.70362 0.0
C679 C 0.58041 0.35296 0.69224 0.0
C680 C 0.59663 0.34433 0.64436 0.0
C681 C 0.6213 0.33714 0.65576 0.0
N682 N 0.65097 0.33645 0.69581 0.0
N683 N 0.55629 0.36772 0.65186 0.0
C684 C 0.62582 0.33873 0.68528 0.0
C685 C 0.57727 0.35492 0.66259 0.0
N686 N 0.60586 0.33814 0.73174 0.0
N687 N 0.59112 0.33989 0.61637 0.0
H688 H 0.54198 0.3762 0.66455 0.0
H689 H 0.55452 0.37229 0.63057 0.0
H690 H 0.60458 0.33187 0.60233 0.0
H691 H 0.57231 0.34188 0.60757 0.0
H692 H 0.62162 0.32848 0.74054 0.0
H693 H 0.59028 0.34067 0.74592 0.0
H694 H 0.65599 0.34027 0.71689 0.0
H695 H 0.66752 0.33358 0.68302 0.0
C696 C 0.6959 0.46093 0.47666 0.0
C697 C 0.71382 0.45941 0.45353 0.0
C698 C 0.7238 0.41311 0.46767 0.0
C699 C 0.70441 0.41386 0.48947 0.0
N700 N 0.66932 0.4365 0.51273 0.0
N701 N 0.74326 0.43358 0.4252 0.0
C702 C 0.68984 0.43732 0.49357 0.0
C703 C 0.72721 0.43529 0.44843 0.0
N704 N 0.68464 0.48496 0.48243 0.0
N705 N 0.73985 0.39177 0.46622 0.0
H706 H 0.74797 0.45002 0.41175 0.0
H707 H 0.75079 0.41544 0.41827 0.0
H708 H 0.73805 0.37525 0.48003 0.0
H709 H 0.75637 0.39136 0.45292 0.0
H710 H 0.67416 0.48856 0.5009 0.0
H711 H 0.68702 0.5021 0.46948 0.0
H712 H 0.65591 0.4516 0.5146 0.0
H713 H 0.66426 0.41957 0.52546 0.0
C714 C 0.61594 0.22131 0.92583 0.0
C715 C 0.5988 0.20897 0.94683 0.0
C716 C 0.6355 0.21396 0.98122 0.0
C717 C 0.65292 0.22509 0.95981 0.0
N718 N 0.66164 0.23268 0.91039 0.0
N719 N 0.59351 0.18782 0.99238 0.0
C720 C 0.64371 0.22665 0.93166 0.0
C721 C 0.60899 0.20349 0.9739 0.0
N722 N 0.60553 0.22948 0.90093 0.0
N723 N 0.64369 0.21473 0.00873 0.0
H724 H 0.5741 0.17961 0.98754 0.0
H725 H 0.60075 0.1808 0.01133 0.0
H726 H 0.66285 0.22237 0.01508 0.0
H727 H 0.63082 0.20985 0.02555 0.0
H728 H 0.61667 0.24142 0.88631 0.0
H729 H 0.58521 0.22657 0.89587 0.0
H730 H 0.65644 0.23139 0.88912 0.0
H731 H 0.68225 0.2362 0.91384 0.0
C732 C 0.93772 0.10006 0.4714 0.0
C733 C 0.90982 0.09474 0.47662 0.0
C734 C 0.9079 0.05678 0.44218 0.0
C735 C 0.93504 0.06415 0.43475 0.0
N736 N 0.97396 0.09687 0.43805 0.0
N737 N 0.86717 0.07165 0.46282 0.0
C738 C 0.94947 0.08695 0.44816 0.0
C739 C 0.89454 0.07408 0.46086 0.0
N740 N 0.95334 0.11664 0.48934 0.0
N741 N 0.89516 0.03272 0.43232 0.0
H742 H 0.85654 0.0844 0.47567 0.0
H743 H 0.85492 0.05887 0.4496 0.0
H744 H 0.90441 0.01915 0.41909 0.0
H745 H 0.87633 0.02497 0.43941 0.0
H746 H 0.97422 0.11884 0.48811 0.0
H747 H 0.94582 0.12594 0.50723 0.0
H748 H 0.98399 0.11518 0.44524 0.0
H749 H 0.98301 0.08846 0.42052 0.0
C750 C 0.95585 0.43738 0.91182 0.0
C751 C 0.98346 0.4409 0.91906 0.0
C752 C 0.97212 0.45282 0.9677 0.0
C753 C 0.94448 0.44821 0.96078 0.0
N754 N 0.90972 0.44228 0.92529 0.0
N755 N 0.01832 0.4579 0.9511 0.0
C756 C 0.93627 0.44283 0.93243 0.0
C757 C 0.99172 0.4506 0.94618 0.0
N758 N 0.9483 0.42696 0.88584 0.0
N759 N 0.97949 0.45863 0.99501 0.0
H760 H 0.03294 0.45659 0.93552 0.0
H761 H 0.02572 0.46725 0.96964 0.0
H762 H 0.9656 0.46223 0.01079 0.0
H763 H -0.00087 0.45905 0.00234 0.0
H764 H 0.92863 0.42035 0.88046 0.0
H765 H 0.96196 0.42325 0.86991 0.0
H766 H 0.90286 0.44173 0.90457 0.0
H767 H 0.89444 0.44446 0.93986 0.0
C768 C 0.24608 0.60055 0.19004 0.0
C769 C 0.26115 0.6234 0.17799 0.0
C770 C 0.22899 0.65432 0.19601 0.0
C771 C 0.21312 0.63143 0.20707 0.0
N772 N 0.20327 0.58233 0.20918 0.0
N773 N 0.26269 0.6702 0.16202 0.0
C774 C 0.22064 0.60435 0.20237 0.0
C775 C 0.25117 0.64969 0.17855 0.0
N776 N 0.25656 0.57562 0.19095 0.0
N777 N 0.22417 0.68056 0.20367 0.0
H778 H 0.27864 0.66735 0.14839 0.0
H779 H 0.25455 0.68899 0.15954 0.0
H780 H 0.20897 0.68522 0.21751 0.0
H781 H 0.23707 0.69766 0.19859 0.0
H782 H 0.24788 0.55904 0.20231 0.0
H783 H 0.275 0.57202 0.18197 0.0
H784 H 0.20652 0.56212 0.20382 0.0
H785 H 0.18436 0.58447 0.21784 0.0
C786 C 0.16319 0.81085 0.51547 0.0
C787 C 0.15602 0.83583 0.50377 0.0
C788 C 0.18276 0.86197 0.5398 0.0
C789 C 0.18758 0.83695 0.55312 0.0
N790 N 0.17806 0.78781 0.55677 0.0
N791 N 0.15567 0.88511 0.50663 0.0
C792 C 0.17666 0.81142 0.5418 0.0
C793 C 0.16494 0.86143 0.5164 0.0
N794 N 0.15807 0.78663 0.50093 0.0
N795 N 0.19596 0.8861 0.54889 0.0
H796 H 0.1426 0.88545 0.48952 0.0
H797 H 0.15911 0.90407 0.51683 0.0
H798 H 0.20934 0.88725 0.56581 0.0
H799 H 0.19548 0.90458 0.53822 0.0
H800 H 0.16552 0.76829 0.50698 0.0
H801 H 0.14857 0.78528 0.48133 0.0
H802 H 0.16784 0.76914 0.55097 0.0
H803 H 0.18729 0.7873 0.57644 0.0
C804 C 0.2653 0.6406 0.00407 0.0
C805 C 0.27426 0.66212 0.02304 0.0
C806 C 0.26172 0.6962 0.98902 0.0
C807 C 0.25552 0.67483 0.96897 0.0
N808 N 0.25626 0.62705 0.95552 0.0
N809 N 0.28598 0.71049 0.03153 0.0
C810 C 0.25861 0.64709 0.97596 0.0
C811 C 0.27383 0.68998 0.01499 0.0
N812 N 0.26216 0.61407 0.01318 0.0
N813 N 0.25509 0.72226 0.9838 0.0
H814 H 0.29565 0.70683 0.05042 0.0
H815 H 0.28877 0.73089 0.02519 0.0
H816 H 0.24565 0.7276 0.96529 0.0
H817 H 0.25653 0.73796 -0.00108 0.0
H818 H 0.25299 0.59797 0.00111 0.0
H819 H 0.26631 0.60849 0.03378 0.0
H820 H 0.26114 0.60701 0.95881 0.0
H821 H 0.25193 0.63099 0.93452 0.0
C822 C 0.43728 0.77343 0.51562 0.0
C823 C 0.43648 0.75109 0.53456 0.0
C824 C 0.47553 0.73393 0.51104 0.0
C825 C 0.47421 0.75427 0.49007 0.0
N826 N 0.45097 0.79072 0.46973 0.0
N827 N 0.45187 0.70735 0.54745 0.0
C828 C 0.45438 0.77341 0.49166 0.0
C829 C 0.45486 0.73061 0.53159 0.0
N830 N 0.42238 0.79514 0.52101 0.0
N831 N 0.497 0.71837 0.51192 0.0
H832 H 0.43669 0.70379 0.56238 0.0
H833 H 0.46287 0.69042 0.54396 0.0
H834 H 0.51286 0.72058 0.4976 0.0
H835 H 0.50042 0.70524 0.52846 0.0
H836 H 0.42432 0.81329 0.50958 0.0
H837 H 0.40995 0.79615 0.5386 0.0
H838 H 0.43491 0.80294 0.46842 0.0
H839 H 0.46271 0.79109 0.45154 0.0
C840 C 0.38485 0.95714 0.10334 0.0
C841 C 0.40079 0.98263 0.10466 0.0
C842 C 0.43384 0.9621 0.1345 0.0
C843 C 0.41751 0.93684 0.13386 0.0
N844 N 0.37717 0.90996 0.11922 0.0
N845 N 0.43949 0.01044 0.12209 0.0
C846 C 0.39291 0.93428 0.1187 0.0
C847 C 0.42503 0.9854 0.12044 0.0
N848 N 0.36206 0.95483 0.08721 0.0
N849 N 0.45788 0.96368 0.14846 0.0
H850 H 0.43477 0.02741 0.11052 0.0
H851 H 0.45564 0.01504 0.13559 0.0
H852 H 0.46414 0.94777 0.16066 0.0
H853 H 0.47232 0.98023 0.14735 0.0
H854 H 0.35103 0.93636 0.08246 0.0
H855 H 0.35437 0.9715 0.07743 0.0
H856 H 0.35766 0.90729 0.11156 0.0
H857 H 0.38324 0.89218 0.12836 0.0
C858 C 0.50115 0.90414 0.30349 0.0
C859 C 0.52243 0.88858 0.31197 0.0
C860 C 0.51692 0.86084 0.26868 0.0
C861 C 0.49339 0.87388 0.26217 0.0
N862 N 0.46046 0.90499 0.27607 0.0
N863 N 0.54748 0.84878 0.30513 0.0
C864 C 0.48482 0.89487 0.2802 0.0
C865 C 0.5296 0.86607 0.2952 0.0
N866 N 0.497 0.92822 0.31716 0.0
N867 N 0.52764 0.84406 0.24918 0.0
H868 H 0.55675 0.85134 0.32478 0.0
H869 H 0.55114 0.83038 0.29509 0.0
H870 H 0.51935 0.84031 0.22919 0.0
H871 H 0.54621 0.83619 0.25173 0.0
H872 H 0.48359 0.94183 0.31004 0.0
H873 H 0.50885 0.93596 0.334 0.0
H874 H 0.45198 0.91806 0.29042 0.0
H875 H 0.44752 0.89841 0.25969 0.0
C876 C 0.27339 0.96046 0.75207 0.0
C877 C 0.25284 0.97561 0.76353 0.0
C878 C 0.22194 0.934 0.76424 0.0
C879 C 0.24234 0.91891 0.75234 0.0
N880 N 0.2845 0.91901 0.72765 0.0
N881 N 0.20587 0.97881 0.77293 0.0
C882 C 0.26714 0.93258 0.74389 0.0
C883 C 0.22652 0.96298 0.76707 0.0
N884 N 0.29919 0.97204 0.75058 0.0
N885 N 0.19894 0.92063 0.77455 0.0
H886 H 0.2086 0.00018 0.77475 0.0
H887 H 0.1858 0.97112 0.77308 0.0
H888 H 0.19484 0.89937 0.77348 0.0
H889 H 0.18486 0.9304 0.78635 0.0
H890 H 0.31547 0.96088 0.74561 0.0
H891 H 0.30477 0.99235 0.75637 0.0
H892 H 0.30171 0.92866 0.71855 0.0
H893 H 0.28027 0.8987 0.7209 0.0
C894 C 0.31415 0.6112 0.6172 0.0
C895 C 0.33544 0.59846 0.6299 0.0
C896 C 0.36758 0.63376 0.6101 0.0
C897 C 0.34592 0.64918 0.60241 0.0
N898 N 0.29803 0.65385 0.60206 0.0
N899 N 0.38276 0.59796 0.63966 0.0
C900 C 0.319 0.63809 0.60639 0.0
C901 C 0.36236 0.60953 0.62631 0.0
N902 N 0.28922 0.5975 0.61556 0.0
N903 N 0.39305 0.6422 0.60166 0.0
H904 H 0.37981 0.58007 0.65143 0.0
H905 H 0.40233 0.60705 0.64058 0.0
H906 H 0.39736 0.65965 0.58942 0.0
H907 H 0.40936 0.63055 0.60438 0.0
H908 H 0.27347 0.6047 0.60419 0.0
H909 H 0.28519 0.57755 0.62303 0.0
H910 H 0.27836 0.64767 0.60784 0.0
H911 H 0.30034 0.6741 0.59525 0.0
loop_
_geom_bond_atom_site_label_1
_geom_bond_atom_site_label_2
_geom_bond_distance
_geom_bond_site_symmetry_2
_ccdc_geom_bond_type
O0 Cd1 2.300 . S
O0 C7 1.240 1_455 S
Cd1 O0 2.300 . S
Cd1 O9 2.381 . S
Cd1 O10 2.378 . S
O2 Cd3 2.385 . S
O2 C7 1.280 . S
Cd3 O2 2.385 . S
Cd3 O4 2.317 . S
O4 Cd3 2.317 . S
O4 C5 1.232 . S
C5 O4 1.232 . S
C5 O6 1.218 . S
O6 C5 1.218 . S
C7 O0 1.240 1_655 S
C7 O2 1.280 . S
C8 O9 1.258 . S
C8 O10 1.256 . S
O9 Cd1 2.381 . S
O9 C8 1.258 . S
O10 Cd1 2.378 . S
O10 C8 1.256 . S
O11 Cd12 2.300 . S
O11 C18 1.275 . S
Cd12 O11 2.300 . S
Cd12 O20 2.381 . S
Cd12 O21 2.378 . S
O13 Cd14 2.385 . S
O13 C18 1.255 . S
Cd14 O13 2.385 . S
Cd14 O15 2.317 . S
O15 Cd14 2.317 . S
O15 C16 1.232 . S
C16 O15 1.232 . S
C16 O17 1.218 . S
O17 C16 1.218 . S
C18 O11 1.275 . S
C18 O13 1.255 . S
C19 O20 1.258 . S
C19 O21 1.256 . S
O20 Cd12 2.381 . S
O20 C19 1.258 . S
O21 Cd12 2.378 . S
O21 C19 1.256 . S
O22 Cd23 2.300 . S
O22 C29 1.275 . S
Cd23 O22 2.300 . S
Cd23 O31 2.381 . S
Cd23 O32 2.378 . S
O24 Cd25 2.385 . S
O24 C29 1.255 . S
Cd25 O24 2.385 . S
Cd25 O26 2.317 . S
O26 Cd25 2.317 . S
O26 C27 1.232 . S
C27 O26 1.232 . S
C27 O28 1.218 . S
O28 C27 1.218 . S
C29 O22 1.275 . S
C29 O24 1.255 . S
C30 O31 1.258 . S
C30 O32 1.256 . S
O31 Cd23 2.381 . S
O31 C30 1.258 . S
O32 Cd23 2.378 . S
O32 C30 1.256 . S
O33 Cd34 2.300 . S
O33 C40 1.275 . S
Cd34 O33 2.300 . S
Cd34 O42 2.381 . S
Cd34 O43 2.378 . S
O35 Cd36 2.385 1_545 S
O35 C40 1.255 . S
Cd36 O35 2.385 1_565 S
Cd36 O37 2.316 1_565 S
O37 Cd36 2.316 1_545 S
O37 C38 1.231 1_545 S
C38 O37 1.231 1_565 S
C38 O39 1.218 . S
O39 C38 1.218 . S
C40 O33 1.275 . S
C40 O35 1.255 . S
C41 O42 1.258 . S
C41 O43 1.256 . S
O42 Cd34 2.381 . S
O42 C41 1.258 . S
O43 Cd34 2.378 . S
O43 C41 1.256 . S
O44 Cd45 2.300 . S
O44 C51 1.275 1_455 S
Cd45 O44 2.300 . S
Cd45 O53 2.381 . S
Cd45 O54 2.378 . S
O46 Cd47 2.385 . S
O46 C51 1.255 . S
Cd47 O46 2.385 . S
Cd47 O48 2.317 . S
O48 Cd47 2.317 . S
O48 C49 1.232 . S
C49 O48 1.232 . S
C49 O50 1.218 . S
O50 C49 1.218 . S
C51 O44 1.275 1_655 S
C51 O46 1.255 . S
C52 O53 1.258 . S
C52 O54 1.256 . S
O53 Cd45 2.381 . S
O53 C52 1.258 . S
O54 Cd45 2.378 . S
O54 C52 1.256 . S
O55 Cd56 2.300 . S
O55 C62 1.275 . S
Cd56 O55 2.300 . S
Cd56 O64 2.381 . S
Cd56 O65 2.378 . S
O57 Cd58 2.385 . S
O57 C62 1.255 . S
Cd58 O57 2.385 . S
Cd58 O59 2.317 . S
O59 Cd58 2.317 . S
O59 C60 1.232 . S
C60 O59 1.232 . S
C60 O61 1.218 . S
O61 C60 1.218 . S
C62 O55 1.275 . S
C62 O57 1.255 . S
C63 O64 1.258 . S
C63 O65 1.256 . S
O64 Cd56 2.381 . S
O64 C63 1.258 . S
O65 Cd56 2.378 . S
O65 C63 1.256 . S
O66 Cd67 2.300 . S
O66 C73 1.275 . S
Cd67 O66 2.300 . S
Cd67 O75 2.381 . S
Cd67 O76 2.378 . S
O68 Cd69 2.385 . S
O68 C73 1.255 . S
Cd69 O68 2.385 . S
Cd69 O70 2.317 . S
O70 Cd69 2.317 . S
O70 C71 1.232 . S
C71 O70 1.232 . S
C71 O72 1.218 . S
O72 C71 1.218 . S
C73 O66 1.275 . S
C73 O68 1.255 . S
C74 O75 1.258 . S
C74 O76 1.256 . S
O75 Cd67 2.381 . S
O75 C74 1.258 . S
O76 Cd67 2.378 . S
O76 C74 1.256 . S
O77 Cd78 2.300 . S
O77 C84 1.275 . S
Cd78 O77 2.300 . S
Cd78 O86 2.381 . S
Cd78 O87 2.378 1_545 S
O79 Cd80 2.385 . S
O79 C84 1.255 . S
Cd80 O79 2.385 . S
Cd80 O81 2.317 . S
O81 Cd80 2.317 . S
O81 C82 1.232 . S
C82 O81 1.232 . S
C82 O83 1.218 . S
O83 C82 1.218 . S
C84 O77 1.275 . S
C84 O79 1.255 . S
C85 O86 1.260 . S
C85 O87 1.269 1_545 S
O86 Cd78 2.381 . S
O86 C85 1.260 . S
O87 Cd78 2.378 1_565 S
O87 C85 1.269 1_565 S
O88 Cd89 2.300 . S
O88 C95 1.275 . S
Cd89 O88 2.300 . S
Cd89 O97 2.381 . S
Cd89 O98 2.378 . S
O90 Cd91 2.385 . S
O90 C95 1.255 . S
Cd91 O90 2.385 . S
Cd91 O92 2.317 . S
O92 Cd91 2.317 . S
O92 C93 1.232 . S
C93 O92 1.232 . S
C93 O94 1.218 . S
O94 C93 1.218 . S
C95 O88 1.275 . S
C95 O90 1.255 . S
C96 O97 1.258 . S
C96 O98 1.256 . S
O97 Cd89 2.381 . S
O97 C96 1.258 . S
O98 Cd89 2.378 . S
O98 C96 1.256 . S
O99 Cd100 2.300 . S
O99 C106 1.275 . S
Cd100 O99 2.300 . S
Cd100 O108 2.381 . S
Cd100 O109 2.378 . S
O101 Cd102 2.385 . S
O101 C106 1.255 . S
Cd102 O101 2.385 . S
Cd102 O103 2.317 . S
O103 Cd102 2.317 . S
O103 C104 1.232 . S
C104 O103 1.232 . S
C104 O105 1.218 . S
O105 C104 1.218 . S
C106 O99 1.275 . S
C106 O101 1.255 . S
C107 O108 1.258 . S
C107 O109 1.256 . S
O108 Cd100 2.381 . S
O108 C107 1.258 . S
O109 Cd100 2.378 . S
O109 C107 1.256 . S
O110 Cd111 2.300 . S
O110 C117 1.275 . S
Cd111 O110 2.300 . S
Cd111 O119 2.381 . S
Cd111 O120 2.378 . S
O112 Cd113 2.385 . S
O112 C117 1.255 . S
Cd113 O112 2.385 . S
Cd113 O114 2.317 . S
O114 Cd113 2.317 . S
O114 C115 1.232 . S
C115 O114 1.232 . S
C115 O116 1.218 . S
O116 C115 1.218 . S
C117 O110 1.275 . S
C117 O112 1.255 . S
C118 O119 1.258 . S
C118 O120 1.256 . S
O119 Cd111 2.381 . S
O119 C118 1.258 . S
O120 Cd111 2.378 . S
O120 C118 1.256 . S
O121 Cd122 2.300 . S
O121 C128 1.275 . S
Cd122 O121 2.300 . S
Cd122 O130 2.381 . S
Cd122 O131 2.378 . S
O123 Cd124 2.385 . S
O123 C128 1.255 . S
Cd124 O123 2.385 . S
Cd124 O125 2.317 . S
O125 Cd124 2.317 . S
O125 C126 1.232 . S
C126 O125 1.232 . S
C126 O127 1.218 . S
O127 C126 1.218 . S
C128 O121 1.275 . S
C128 O123 1.255 . S
C129 O130 1.258 . S
C129 O131 1.256 . S
O130 Cd122 2.381 . S
O130 C129 1.258 . S
O131 Cd122 2.378 . S
O131 C129 1.256 . S
O132 Cd133 2.300 . S
O132 C139 1.275 . S
Cd133 O132 2.300 . S
Cd133 O141 2.381 . S
Cd133 O142 2.378 . S
O134 Cd135 2.385 . S
O134 C139 1.255 . S
Cd135 O134 2.385 . S
Cd135 O136 2.317 . S
O136 Cd135 2.317 . S
O136 C137 1.232 . S
C137 O136 1.232 . S
C137 O138 1.218 . S
O138 C137 1.218 . S
C139 O132 1.275 . S
C139 O134 1.255 . S
C140 O141 1.258 . S
C140 O142 1.256 . S
O141 Cd133 2.381 . S
O141 C140 1.258 . S
O142 Cd133 2.378 . S
O142 C140 1.256 . S
O143 Cd144 2.300 . S
O143 C150 1.275 . S
Cd144 O143 2.300 . S
Cd144 O152 2.381 . S
Cd144 O153 2.378 . S
O145 Cd146 2.385 . S
O145 C150 1.255 . S
Cd146 O145 2.385 . S
Cd146 O147 2.317 . S
O147 Cd146 2.317 . S
O147 C148 1.232 . S
C148 O147 1.232 . S
C148 O149 1.218 . S
O149 C148 1.218 . S
C150 O143 1.275 . S
C150 O145 1.255 . S
C151 O152 1.258 . S
C151 O153 1.256 . S
O152 Cd144 2.381 . S
O152 C151 1.258 . S
O153 Cd144 2.378 . S
O153 C151 1.256 . S
O154 Cd155 2.300 . S
O154 C161 1.275 . S
Cd155 O154 2.300 . S
Cd155 O163 2.381 . S
Cd155 O164 2.378 . S
O156 Cd157 2.385 . S
O156 C161 1.255 . S
Cd157 O156 2.385 . S
Cd157 O158 2.317 . S
O158 Cd157 2.317 . S
O158 C159 1.232 . S
C159 O158 1.232 . S
C159 O160 1.218 . S
O160 C159 1.218 . S
C161 O154 1.275 . S
C161 O156 1.255 . S
C162 O163 1.258 . S
C162 O164 1.256 . S
O163 Cd155 2.381 . S
O163 C162 1.258 . S
O164 Cd155 2.378 . S
O164 C162 1.256 . S
O165 Cd166 2.300 1_556 S
O165 C172 1.275 . S
Cd166 O165 2.300 1_554 S
Cd166 O174 2.381 . S
Cd166 O175 2.378 . S
O167 Cd168 2.385 . S
O167 C172 1.255 . S
Cd168 O167 2.385 . S
Cd168 O169 2.317 . S
O169 Cd168 2.317 . S
O169 C170 1.232 . S
C170 O169 1.232 . S
C170 O171 1.218 . S
O171 C170 1.218 . S
C172 O165 1.275 . S
C172 O167 1.255 . S
C173 O174 1.258 . S
C173 O175 1.256 . S
O174 Cd166 2.381 . S
O174 C173 1.258 . S
O175 Cd166 2.378 . S
O175 C173 1.256 . S
O176 Cd177 2.300 . S
O176 C183 1.275 . S
Cd177 O176 2.300 . S
Cd177 O185 2.381 . S
Cd177 O186 2.378 . S
O178 Cd179 2.385 . S
O178 C183 1.255 . S
Cd179 O178 2.385 . S
Cd179 O180 2.317 . S
O180 Cd179 2.317 . S
O180 C181 1.232 . S
C181 O180 1.232 . S
C181 O182 1.218 . S
O182 C181 1.218 . S
C183 O176 1.275 . S
C183 O178 1.255 . S
C184 O185 1.258 . S
C184 O186 1.256 . S
O185 Cd177 2.381 . S
O185 C184 1.258 . S
O186 Cd177 2.378 . S
O186 C184 1.256 . S
O187 Cd188 2.300 . S
O187 C194 1.275 . S
Cd188 O187 2.300 . S
Cd188 O196 2.381 . S
Cd188 O197 2.378 . S
O189 Cd190 2.385 . S
O189 C194 1.255 . S
Cd190 O189 2.385 . S
Cd190 O191 2.317 . S
O191 Cd190 2.317 . S
O191 C192 1.232 . S
C192 O191 1.232 . S
C192 O193 1.218 . S
O193 C192 1.218 . S
C194 O187 1.275 . S
C194 O189 1.255 . S
C195 O196 1.258 . S
C195 O197 1.256 . S
O196 Cd188 2.381 . S
O196 C195 1.258 . S
O197 Cd188 2.378 . S
O197 C195 1.256 . S
O198 Cd199 2.300 . S
O198 C205 1.275 . S
Cd199 O198 2.300 . S
Cd199 O207 2.381 . S
Cd199 O208 2.378 . S
O200 Cd201 2.385 . S
O200 C205 1.255 . S
Cd201 O200 2.385 . S
Cd201 O202 2.317 . S
O202 Cd201 2.317 . S
O202 C203 1.232 . S
C203 O202 1.232 . S
C203 O204 1.218 . S
O204 C203 1.218 . S
C205 O198 1.275 . S
C205 O200 1.255 . S
C206 O207 1.258 . S
C206 O208 1.256 . S
O207 Cd199 2.381 . S
O207 C206 1.258 . S
O208 Cd199 2.378 . S
O208 C206 1.256 . S
O209 Cd210 2.300 . S
O209 C216 1.275 . S
Cd210 O209 2.300 . S
Cd210 O218 2.381 . S
Cd210 O219 2.378 . S
O211 Cd212 2.385 . S
O211 C216 1.255 . S
Cd212 O211 2.385 . S
Cd212 O213 2.317 . S
O213 Cd212 2.317 . S
O213 C214 1.232 . S
C214 O213 1.232 . S
C214 O215 1.218 . S
O215 C214 1.218 . S
C216 O209 1.275 . S
C216 O211 1.255 . S
C217 O218 1.258 . S
C217 O219 1.256 . S
O218 Cd210 2.381 . S
O218 C217 1.258 . S
O219 Cd210 2.378 . S
O219 C217 1.256 . S
O220 Cd221 2.300 1_556 S
O220 C227 1.275 . S
Cd221 O220 2.300 1_554 S
Cd221 O229 2.381 . S
Cd221 O230 2.378 . S
O222 Cd223 2.385 . S
O222 C227 1.255 . S
Cd223 O222 2.385 . S
Cd223 O224 2.317 . S
O224 Cd223 2.317 . S
O224 C225 1.232 . S
C225 O224 1.232 . S
C225 O226 1.218 . S
O226 C225 1.218 . S
C227 O220 1.275 . S
C227 O222 1.255 . S
C228 O229 1.258 . S
C228 O230 1.256 . S
O229 Cd221 2.381 . S
O229 C228 1.258 . S
O230 Cd221 2.378 . S
O230 C228 1.256 . S
O231 Cd232 2.300 . S
O231 C238 1.275 . S
Cd232 O231 2.300 . S
Cd232 O240 2.381 . S
Cd232 O241 2.378 . S
O233 Cd234 2.385 . S
O233 C238 1.255 . S
Cd234 O233 2.385 . S
Cd234 O235 2.317 . S
O235 Cd234 2.317 . S
O235 C236 1.232 . S
C236 O235 1.232 . S
C236 O237 1.218 . S
O237 C236 1.218 . S
C238 O231 1.275 . S
C238 O233 1.255 . S
C239 O240 1.258 . S
C239 O241 1.256 . S
O240 Cd232 2.381 . S
O240 C239 1.258 . S
O241 Cd232 2.378 . S
O241 C239 1.256 . S
O242 Cd243 2.300 . S
O242 C249 1.275 . S
Cd243 O242 2.300 . S
Cd243 O251 2.381 . S
Cd243 O252 2.378 . S
O244 Cd245 2.385 . S
O244 C249 1.255 . S
Cd245 O244 2.385 . S
Cd245 O246 2.317 . S
O246 Cd245 2.317 . S
O246 C247 1.232 . S
C247 O246 1.232 . S
C247 O248 1.218 . S
O248 C247 1.218 . S
C249 O242 1.275 . S
C249 O244 1.255 . S
C250 O251 1.258 . S
C250 O252 1.256 . S
O251 Cd243 2.381 . S
O251 C250 1.258 . S
O252 Cd243 2.378 . S
O252 C250 1.256 . S
O253 Cd254 2.300 . S
O253 C260 1.275 1_554 S
Cd254 O253 2.300 . S
Cd254 O262 2.381 . S
Cd254 O263 2.378 . S
O255 Cd256 2.385 . S
O255 C260 1.255 1_554 S
Cd256 O255 2.385 . S
Cd256 O257 2.317 1_554 S
O257 Cd256 2.317 1_556 S
O257 C258 1.232 . S
C258 O257 1.232 . S
C258 O259 1.218 . S
O259 C258 1.218 . S
C260 O253 1.275 1_556 S
C260 O255 1.255 1_556 S
C261 O262 1.258 . S
C261 O263 1.256 . S
O262 Cd254 2.381 . S
O262 C261 1.258 . S
O263 Cd254 2.378 . S
O263 C261 1.256 . S
C264 C265 1.363 1_455 S
C264 C270 1.379 . S
C264 N272 1.356 . S
C265 C264 1.363 1_655 S
C265 C271 1.363 . S
C266 C267 1.363 . S
C266 C271 1.379 . S
C266 N273 1.356 . S
C267 C266 1.363 . S
C267 C270 1.363 1_655 S
N268 C270 1.356 . S
N268 H280 0.984 . S
N268 H281 0.985 . S
N269 C271 1.356 . S
N269 H274 0.984 . S
N269 H275 0.985 . S
C270 C264 1.379 . S
C270 C267 1.363 1_455 S
C270 N268 1.356 . S
C271 C265 1.363 . S
C271 C266 1.379 . S
C271 N269 1.356 . S
N272 C264 1.356 . S
N272 H278 0.984 . S
N272 H279 0.984 . S
N273 C266 1.356 . S
N273 H276 0.984 . S
N273 H277 0.985 . S
H274 N269 0.984 . S
H275 N269 0.985 . S
H276 N273 0.984 . S
H277 N273 0.985 . S
H278 N272 0.984 . S
H279 N272 0.984 . S
H280 N268 0.984 . S
H281 N268 0.985 . S
C282 C283 1.363 . S
C282 C288 1.379 . S
C282 N290 1.356 . S
C283 C282 1.363 . S
C283 C289 1.363 . S
C284 C285 1.363 . S
C284 C289 1.379 . S
C284 N291 1.356 . S
C285 C284 1.363 . S
C285 C288 1.363 . S
N286 C288 1.356 . S
N286 H298 0.984 . S
N286 H299 0.985 . S
N287 C289 1.356 . S
N287 H292 0.984 . S
N287 H293 0.985 . S
C288 C282 1.379 . S
C288 C285 1.363 . S
C288 N286 1.356 . S
C289 C283 1.363 . S
C289 C284 1.379 . S
C289 N287 1.356 . S
N290 C282 1.356 . S
N290 H296 0.984 . S
N290 H297 0.984 . S
N291 C284 1.356 . S
N291 H294 0.984 . S
N291 H295 0.985 . S
H292 N287 0.984 . S
H293 N287 0.985 . S
H294 N291 0.984 . S
H295 N291 0.985 . S
H296 N290 0.984 . S
H297 N290 0.984 . S
H298 N286 0.984 . S
H299 N286 0.985 . S
C300 C301 1.363 . S
C300 C306 1.379 . S
C300 N308 1.356 . S
C301 C300 1.363 . S
C301 C307 1.363 . S
C302 C303 1.363 . S
C302 C307 1.379 . S
C302 N309 1.356 . S
C303 C302 1.363 . S
C303 C306 1.363 . S
N304 C306 1.356 . S
N304 H316 0.984 . S
N304 H317 0.985 . S
N305 C307 1.356 . S
N305 H310 0.984 . S
N305 H311 0.985 . S
C306 C300 1.379 . S
C306 C303 1.363 . S
C306 N304 1.356 . S
C307 C301 1.363 . S
C307 C302 1.379 . S
C307 N305 1.356 . S
N308 C300 1.356 . S
N308 H314 0.984 . S
N308 H315 0.984 . S
N309 C302 1.356 . S
N309 H312 0.984 . S
N309 H313 0.985 . S
H310 N305 0.984 . S
H311 N305 0.985 . S
H312 N309 0.984 . S
H313 N309 0.985 . S
H314 N308 0.984 . S
H315 N308 0.984 . S
H316 N304 0.984 . S
H317 N304 0.985 . S
C318 C319 1.363 . S
C318 C324 1.379 . S
C318 N326 1.356 . S
C319 C318 1.363 . S
C319 C325 1.363 . S
C320 C321 1.363 . S
C320 C325 1.379 . S
C320 N327 1.356 . S
C321 C320 1.363 . S
C321 C324 1.363 . S
N322 C324 1.356 . S
N322 H334 0.984 . S
N322 H335 0.985 . S
N323 C325 1.356 . S
N323 H328 0.984 . S
N323 H329 0.985 . S
C324 C318 1.379 . S
C324 C321 1.363 . S
C324 N322 1.356 . S
C325 C319 1.363 . S
C325 C320 1.379 . S
C325 N323 1.356 . S
N326 C318 1.356 . S
N326 H332 0.984 . S
N326 H333 0.984 . S
N327 C320 1.356 . S
N327 H330 0.984 . S
N327 H331 0.985 1_545 S
H328 N323 0.984 . S
H329 N323 0.985 . S
H330 N327 0.984 . S
H331 N327 0.985 1_565 S
H332 N326 0.984 . S
H333 N326 0.984 . S
H334 N322 0.984 . S
H335 N322 0.985 . S
C336 C337 1.363 . S
C336 C342 1.379 . S
C336 N344 1.356 . S
C337 C336 1.363 . S
C337 C343 1.363 . S
C338 C339 1.363 . S
C338 C343 1.379 . S
C338 N345 1.356 . S
C339 C338 1.363 . S
C339 C342 1.363 . S
N340 C342 1.356 . S
N340 H352 0.984 . S
N340 H353 0.985 . S
N341 C343 1.356 . S
N341 H346 0.984 . S
N341 H347 0.985 . S
C342 C336 1.379 . S
C342 C339 1.363 . S
C342 N340 1.356 . S
C343 C337 1.363 . S
C343 C338 1.379 . S
C343 N341 1.356 . S
N344 C336 1.356 . S
N344 H350 0.984 . S
N344 H351 0.984 . S
N345 C338 1.356 . S
N345 H348 0.984 . S
N345 H349 0.985 . S
H346 N341 0.984 . S
H347 N341 0.985 . S
H348 N345 0.984 . S
H349 N345 0.985 . S
H350 N344 0.984 . S
H351 N344 0.984 . S
H352 N340 0.984 . S
H353 N340 0.985 . S
C354 C355 1.363 . S
C354 C360 1.379 . S
C354 N362 1.356 . S
C355 C354 1.363 . S
C355 C361 1.363 . S
C356 C357 1.363 . S
C356 C361 1.379 . S
C356 N363 1.356 . S
C357 C356 1.363 . S
C357 C360 1.363 . S
N358 C360 1.356 . S
N358 H370 0.984 . S
N358 H371 0.985 . S
N359 C361 1.356 . S
N359 H364 0.984 . S
N359 H365 0.985 . S
C360 C354 1.379 . S
C360 C357 1.363 . S
C360 N358 1.356 . S
C361 C355 1.363 . S
C361 C356 1.379 . S
C361 N359 1.356 . S
N362 C354 1.356 . S
N362 H368 0.984 . S
N362 H369 0.984 . S
N363 C356 1.356 . S
N363 H366 0.984 . S
N363 H367 0.985 . S
H364 N359 0.984 . S
H365 N359 0.985 . S
H366 N363 0.984 . S
H367 N363 0.985 . S
H368 N362 0.984 . S
H369 N362 0.984 . S
H370 N358 0.984 . S
H371 N358 0.985 . S
C372 C373 1.363 . S
C372 C378 1.379 . S
C372 N380 1.356 . S
C373 C372 1.363 . S
C373 C379 1.363 . S
C374 C375 1.363 . S
C374 C379 1.379 . S
C374 N381 1.356 . S
C375 C374 1.363 . S
C375 C378 1.363 . S
N376 C378 1.356 . S
N376 H388 0.984 . S
N376 H389 0.985 . S
N377 C379 1.356 . S
N377 H382 0.984 . S
N377 H383 0.985 . S
C378 C372 1.379 . S
C378 C375 1.363 . S
C378 N376 1.356 . S
C379 C373 1.363 . S
C379 C374 1.379 . S
C379 N377 1.356 . S
N380 C372 1.356 . S
N380 H386 0.984 . S
N380 H387 0.984 . S
N381 C374 1.356 . S
N381 H384 0.984 . S
N381 H385 0.985 . S
H382 N377 0.984 . S
H383 N377 0.985 . S
H384 N381 0.984 . S
H385 N381 0.985 . S
H386 N380 0.984 . S
H387 N380 0.984 . S
H388 N376 0.984 . S
H389 N376 0.985 . S
C390 C391 1.363 . S
C390 C396 1.379 . S
C390 N398 1.356 . S
C391 C390 1.363 . S
C391 C397 1.363 . S
C392 C393 1.363 . S
C392 C397 1.379 . S
C392 N399 1.356 . S
C393 C392 1.363 . S
C393 C396 1.363 . S
N394 C396 1.356 . S
N394 H406 0.984 . S
N394 H407 0.985 . S
N395 C397 1.356 . S
N395 H400 0.984 . S
N395 H401 0.985 . S
C396 C390 1.379 . S
C396 C393 1.363 . S
C396 N394 1.356 . S
C397 C391 1.363 . S
C397 C392 1.379 . S
C397 N395 1.356 . S
N398 C390 1.356 . S
N398 H404 0.984 . S
N398 H405 0.984 . S
N399 C392 1.356 . S
N399 H402 0.984 . S
N399 H403 0.985 . S
H400 N395 0.984 . S
H401 N395 0.985 . S
H402 N399 0.984 . S
H403 N399 0.985 . S
H404 N398 0.984 . S
H405 N398 0.984 . S
H406 N394 0.984 . S
H407 N394 0.985 . S
C408 C409 1.363 . S
C408 C414 1.379 . S
C408 N416 1.356 . S
C409 C408 1.363 . S
C409 C415 1.363 . S
C410 C411 1.363 . S
C410 C415 1.379 . S
C410 N417 1.356 . S
C411 C410 1.363 . S
C411 C414 1.363 . S
N412 C414 1.356 . S
N412 H424 0.984 . S
N412 H425 0.985 . S
N413 C415 1.356 . S
N413 H418 0.984 . S
N413 H419 0.985 . S
C414 C408 1.379 . S
C414 C411 1.363 . S
C414 N412 1.356 . S
C415 C409 1.363 . S
C415 C410 1.379 . S
C415 N413 1.356 . S
N416 C408 1.356 . S
N416 H422 0.984 . S
N416 H423 0.984 . S
N417 C410 1.356 . S
N417 H420 0.984 . S
N417 H421 0.985 . S
H418 N413 0.984 . S
H419 N413 0.985 . S
H420 N417 0.984 . S
H421 N417 0.985 . S
H422 N416 0.984 . S
H423 N416 0.984 . S
H424 N412 0.984 . S
H425 N412 0.985 . S
C426 C427 1.363 . S
C426 C432 1.379 . S
C426 N434 1.356 . S
C427 C426 1.363 . S
C427 C433 1.363 . S
C428 C429 1.363 . S
C428 C433 1.379 . S
C428 N435 1.356 . S
C429 C428 1.363 . S
C429 C432 1.363 . S
N430 C432 1.356 . S
N430 H442 0.984 . S
N430 H443 0.985 . S
N431 C433 1.356 . S
N431 H436 0.984 . S
N431 H437 0.985 . S
C432 C426 1.379 . S
C432 C429 1.363 . S
C432 N430 1.356 . S
C433 C427 1.363 . S
C433 C428 1.379 . S
C433 N431 1.356 . S
N434 C426 1.356 . S
N434 H440 0.984 . S
N434 H441 0.984 . S
N435 C428 1.356 . S
N435 H438 0.984 . S
N435 H439 0.985 . S
H436 N431 0.984 . S
H437 N431 0.985 . S
H438 N435 0.984 . S
H439 N435 0.985 . S
H440 N434 0.984 . S
H441 N434 0.984 . S
H442 N430 0.984 . S
H443 N430 0.985 . S
C444 C445 1.363 . S
C444 C450 1.379 . S
C444 N452 1.356 . S
C445 C444 1.363 . S
C445 C451 1.363 1_556 S
C446 C447 1.363 1_554 S
C446 C451 1.379 . S
C446 N453 1.356 . S
C447 C446 1.363 1_556 S
C447 C450 1.363 . S
N448 C450 1.356 . S
N448 H460 0.984 . S
N448 H461 0.985 . S
N449 C451 1.356 . S
N449 H454 0.984 . S
N449 H455 0.985 . S
C450 C444 1.379 . S
C450 C447 1.363 . S
C450 N448 1.356 . S
C451 C445 1.363 1_554 S
C451 C446 1.379 . S
C451 N449 1.356 . S
N452 C444 1.356 . S
N452 H458 0.984 . S
N452 H459 0.984 . S
N453 C446 1.356 . S
N453 H456 0.984 . S
N453 H457 0.985 . S
H454 N449 0.984 . S
H455 N449 0.985 . S
H456 N453 0.984 . S
H457 N453 0.985 . S
H458 N452 0.984 . S
H459 N452 0.984 . S
H460 N448 0.984 . S
H461 N448 0.985 . S
C462 C463 1.363 . S
C462 C468 1.379 . S
C462 N470 1.356 . S
C463 C462 1.363 . S
C463 C469 1.363 . S
C464 C465 1.363 . S
C464 C469 1.379 . S
C464 N471 1.356 . S
C465 C464 1.363 . S
C465 C468 1.363 . S
N466 C468 1.356 . S
N466 H478 0.984 . S
N466 H479 0.985 . S
N467 C469 1.356 . S
N467 H472 0.984 . S
N467 H473 0.985 . S
C468 C462 1.379 . S
C468 C465 1.363 . S
C468 N466 1.356 . S
C469 C463 1.363 . S
C469 C464 1.379 . S
C469 N467 1.356 . S
N470 C462 1.356 . S
N470 H476 0.984 . S
N470 H477 0.984 . S
N471 C464 1.356 . S
N471 H474 0.984 . S
N471 H475 0.985 . S
H472 N467 0.984 . S
H473 N467 0.985 . S
H474 N471 0.984 . S
H475 N471 0.985 . S
H476 N470 0.984 . S
H477 N470 0.984 . S
H478 N466 0.984 . S
H479 N466 0.985 . S
C480 C481 1.363 . S
C480 C486 1.379 . S
C480 N488 1.356 . S
C481 C480 1.363 . S
C481 C487 1.363 . S
C482 C483 1.363 . S
C482 C487 1.379 . S
C482 N489 1.356 . S
C483 C482 1.363 . S
C483 C486 1.363 . S
N484 C486 1.356 . S
N484 H496 0.984 . S
N484 H497 0.985 . S
N485 C487 1.356 . S
N485 H490 0.984 . S
N485 H491 0.985 . S
C486 C480 1.379 . S
C486 C483 1.363 . S
C486 N484 1.356 . S
C487 C481 1.363 . S
C487 C482 1.379 . S
C487 N485 1.356 . S
N488 C480 1.356 . S
N488 H494 0.984 . S
N488 H495 0.984 . S
N489 C482 1.356 . S
N489 H492 0.984 . S
N489 H493 0.985 . S
H490 N485 0.984 . S
H491 N485 0.985 . S
H492 N489 0.984 . S
H493 N489 0.985 . S
H494 N488 0.984 . S
H495 N488 0.984 . S
H496 N484 0.984 . S
H497 N484 0.985 . S
C498 C499 1.363 . S
C498 C504 1.379 1_455 S
C498 N506 1.356 . S
C499 C498 1.363 . S
C499 C505 1.363 . S
C500 C501 1.363 . S
C500 C505 1.379 1_655 S
C500 N507 1.356 . S
C501 C500 1.363 . S
C501 C504 1.363 . S
N502 C504 1.356 . S
N502 H514 0.984 . S
N502 H515 0.985 . S
N503 C505 1.356 . S
N503 H508 0.984 . S
N503 H509 0.985 . S
C504 C498 1.379 1_655 S
C504 C501 1.363 . S
C504 N502 1.356 . S
C505 C499 1.363 . S
C505 C500 1.379 1_455 S
C505 N503 1.356 . S
N506 C498 1.356 . S
N506 H512 0.984 . S
N506 H513 0.984 . S
N507 C500 1.356 . S
N507 H510 0.984 . S
N507 H511 0.985 . S
H508 N503 0.984 . S
H509 N503 0.985 . S
H510 N507 0.984 . S
H511 N507 0.985 . S
H512 N506 0.984 . S
H513 N506 0.984 . S
H514 N502 0.984 . S
H515 N502 0.985 . S
C516 C517 1.363 . S
C516 C522 1.379 . S
C516 N524 1.356 . S
C517 C516 1.363 . S
C517 C523 1.363 . S
C518 C519 1.363 . S
C518 C523 1.379 . S
C518 N525 1.356 . S
C519 C518 1.363 . S
C519 C522 1.363 . S
N520 C522 1.356 . S
N520 H532 0.984 . S
N520 H533 0.985 . S
N521 C523 1.356 . S
N521 H526 0.984 . S
N521 H527 0.985 . S
C522 C516 1.379 . S
C522 C519 1.363 . S
C522 N520 1.356 . S
C523 C517 1.363 . S
C523 C518 1.379 . S
C523 N521 1.356 . S
N524 C516 1.356 . S
N524 H530 0.984 . S
N524 H531 0.984 . S
N525 C518 1.356 . S
N525 H528 0.984 . S
N525 H529 0.985 . S
H526 N521 0.984 . S
H527 N521 0.985 . S
H528 N525 0.984 . S
H529 N525 0.985 . S
H530 N524 0.984 . S
H531 N524 0.984 . S
H532 N520 0.984 . S
H533 N520 0.985 . S
C534 C535 1.363 . S
C534 C540 1.379 . S
C534 N542 1.356 . S
C535 C534 1.363 . S
C535 C541 1.363 1_565 S
C536 C537 1.363 . S
C536 C541 1.379 1_565 S
C536 N543 1.356 . S
C537 C536 1.363 . S
C537 C540 1.363 . S
N538 C540 1.356 . S
N538 H550 0.984 . S
N538 H551 0.985 . S
N539 C541 1.356 . S
N539 H544 0.984 . S
N539 H545 0.985 . S
C540 C534 1.379 . S
C540 C537 1.363 . S
C540 N538 1.356 . S
C541 C535 1.363 1_545 S
C541 C536 1.379 1_545 S
C541 N539 1.356 . S
N542 C534 1.356 . S
N542 H548 0.984 . S
N542 H549 0.984 . S
N543 C536 1.356 . S
N543 H546 0.984 . S
N543 H547 0.985 1_565 S
H544 N539 0.984 . S
H545 N539 0.985 . S
H546 N543 0.984 . S
H547 N543 0.985 1_545 S
H548 N542 0.984 . S
H549 N542 0.984 . S
H550 N538 0.984 . S
H551 N538 0.985 . S
C552 C553 1.363 . S
C552 C558 1.379 . S
C552 N560 1.356 . S
C553 C552 1.363 . S
C553 C559 1.363 . S
C554 C555 1.363 . S
C554 C559 1.379 . S
C554 N561 1.356 . S
C555 C554 1.363 . S
C555 C558 1.363 . S
N556 C558 1.356 . S
N556 H568 0.984 . S
N556 H569 0.985 . S
N557 C559 1.356 . S
N557 H562 0.984 . S
N557 H563 0.985 . S
C558 C552 1.379 . S
C558 C555 1.363 . S
C558 N556 1.356 . S
C559 C553 1.363 . S
C559 C554 1.379 . S
C559 N557 1.356 . S
N560 C552 1.356 . S
N560 H566 0.984 . S
N560 H567 0.984 . S
N561 C554 1.356 . S
N561 H564 0.984 . S
N561 H565 0.985 . S
H562 N557 0.984 . S
H563 N557 0.985 . S
H564 N561 0.984 . S
H565 N561 0.985 . S
H566 N560 0.984 . S
H567 N560 0.984 . S
H568 N556 0.984 . S
H569 N556 0.985 . S
C570 C571 1.363 . S
C570 C576 1.379 . S
C570 N578 1.356 . S
C571 C570 1.363 . S
C571 C577 1.363 . S
C572 C573 1.363 . S
C572 C577 1.379 . S
C572 N579 1.356 . S
C573 C572 1.363 . S
C573 C576 1.363 . S
N574 C576 1.356 . S
N574 H586 0.984 . S
N574 H587 0.985 . S
N575 C577 1.356 . S
N575 H580 0.984 . S
N575 H581 0.985 . S
C576 C570 1.379 . S
C576 C573 1.363 . S
C576 N574 1.356 . S
C577 C571 1.363 . S
C577 C572 1.379 . S
C577 N575 1.356 . S
N578 C570 1.356 . S
N578 H584 0.984 . S
N578 H585 0.984 . S
N579 C572 1.356 . S
N579 H582 0.984 . S
N579 H583 0.985 . S
H580 N575 0.984 . S
H581 N575 0.985 . S
H582 N579 0.984 . S
H583 N579 0.985 . S
H584 N578 0.984 . S
H585 N578 0.984 . S
H586 N574 0.984 . S
H587 N574 0.985 . S
C588 C589 1.363 . S
C588 C594 1.379 . S
C588 N596 1.356 . S
C589 C588 1.363 . S
C589 C595 1.363 . S
C590 C591 1.363 . S
C590 C595 1.379 . S
C590 N597 1.356 . S
C591 C590 1.363 . S
C591 C594 1.363 . S
N592 C594 1.356 . S
N592 H604 0.984 . S
N592 H605 0.985 . S
N593 C595 1.356 . S
N593 H598 0.984 . S
N593 H599 0.985 . S
C594 C588 1.379 . S
C594 C591 1.363 . S
C594 N592 1.356 . S
C595 C589 1.363 . S
C595 C590 1.379 . S
C595 N593 1.356 . S
N596 C588 1.356 . S
N596 H602 0.984 . S
N596 H603 0.984 . S
N597 C590 1.356 . S
N597 H600 0.984 . S
N597 H601 0.985 1_556 S
H598 N593 0.984 . S
H599 N593 0.985 . S
H600 N597 0.984 . S
H601 N597 0.985 1_554 S
H602 N596 0.984 . S
H603 N596 0.984 . S
H604 N592 0.984 . S
H605 N592 0.985 . S
C606 C607 1.363 . S
C606 C612 1.379 . S
C606 N614 1.356 1_565 S
C607 C606 1.363 . S
C607 C613 1.363 . S
C608 C609 1.363 . S
C608 C613 1.379 . S
C608 N615 1.356 . S
C609 C608 1.363 . S
C609 C612 1.363 . S
N610 C612 1.356 . S
N610 H622 0.984 . S
N610 H623 0.985 . S
N611 C613 1.356 . S
N611 H616 0.984 1_455 S
N611 H617 0.985 . S
C612 C606 1.379 . S
C612 C609 1.363 . S
C612 N610 1.356 . S
C613 C607 1.363 . S
C613 C608 1.379 . S
C613 N611 1.356 . S
N614 C606 1.356 1_545 S
N614 H620 0.984 . S
N614 H621 0.984 . S
N615 C608 1.356 . S
N615 H618 0.984 . S
N615 H619 0.985 . S
H616 N611 0.984 1_655 S
H617 N611 0.985 . S
H618 N615 0.984 . S
H619 N615 0.985 . S
H620 N614 0.984 . S
H621 N614 0.984 . S
H622 N610 0.984 . S
H623 N610 0.985 . S
C624 C625 1.363 . S
C624 C630 1.379 . S
C624 N632 1.356 . S
C625 C624 1.363 . S
C625 C631 1.363 . S
C626 C627 1.363 . S
C626 C631 1.379 . S
C626 N633 1.356 . S
C627 C626 1.363 . S
C627 C630 1.363 . S
N628 C630 1.356 . S
N628 H640 0.984 . S
N628 H641 0.985 . S
N629 C631 1.356 . S
N629 H634 0.984 . S
N629 H635 0.985 . S
C630 C624 1.379 . S
C630 C627 1.363 . S
C630 N628 1.356 . S
C631 C625 1.363 . S
C631 C626 1.379 . S
C631 N629 1.356 . S
N632 C624 1.356 . S
N632 H638 0.984 . S
N632 H639 0.984 . S
N633 C626 1.356 . S
N633 H636 0.984 . S
N633 H637 0.985 . S
H634 N629 0.984 . S
H635 N629 0.985 . S
H636 N633 0.984 . S
H637 N633 0.985 . S
H638 N632 0.984 . S
H639 N632 0.984 . S
H640 N628 0.984 . S
H641 N628 0.985 . S
C642 C643 1.363 . S
C642 C648 1.379 . S
C642 N650 1.356 . S
C643 C642 1.363 . S
C643 C649 1.363 . S
C644 C645 1.363 . S
C644 C649 1.379 . S
C644 N651 1.356 . S
C645 C644 1.363 . S
C645 C648 1.363 . S
N646 C648 1.356 . S
N646 H658 0.984 . S
N646 H659 0.985 . S
N647 C649 1.356 . S
N647 H652 0.984 . S
N647 H653 0.985 . S
C648 C642 1.379 . S
C648 C645 1.363 . S
C648 N646 1.356 . S
C649 C643 1.363 . S
C649 C644 1.379 . S
C649 N647 1.356 . S
N650 C642 1.356 . S
N650 H656 0.984 . S
N650 H657 0.984 . S
N651 C644 1.356 . S
N651 H654 0.984 . S
N651 H655 0.985 . S
H652 N647 0.984 . S
H653 N647 0.985 . S
H654 N651 0.984 . S
H655 N651 0.985 . S
H656 N650 0.984 . S
H657 N650 0.984 . S
H658 N646 0.984 . S
H659 N646 0.985 . S
C660 C661 1.363 . S
C660 C666 1.379 . S
C660 N668 1.356 . S
C661 C660 1.363 . S
C661 C667 1.363 . S
C662 C663 1.363 . S
C662 C667 1.379 . S
C662 N669 1.356 . S
C663 C662 1.363 . S
C663 C666 1.363 . S
N664 C666 1.356 . S
N664 H676 0.984 . S
N664 H677 0.985 . S
N665 C667 1.356 . S
N665 H670 0.984 . S
N665 H671 0.985 . S
C666 C660 1.379 . S
C666 C663 1.363 . S
C666 N664 1.356 . S
C667 C661 1.363 . S
C667 C662 1.379 . S
C667 N665 1.356 . S
N668 C660 1.356 . S
N668 H674 0.984 . S
N668 H675 0.984 . S
N669 C662 1.356 . S
N669 H672 0.984 . S
N669 H673 0.985 . S
H670 N665 0.984 . S
H671 N665 0.985 . S
H672 N669 0.984 . S
H673 N669 0.985 . S
H674 N668 0.984 . S
H675 N668 0.984 . S
H676 N664 0.984 . S
H677 N664 0.985 . S
C678 C679 1.363 . S
C678 C684 1.379 . S
C678 N686 1.356 . S
C679 C678 1.363 . S
C679 C685 1.363 . S
C680 C681 1.363 . S
C680 C685 1.379 . S
C680 N687 1.356 . S
C681 C680 1.363 . S
C681 C684 1.363 . S
N682 C684 1.356 . S
N682 H694 0.984 . S
N682 H695 0.985 . S
N683 C685 1.356 . S
N683 H688 0.984 . S
N683 H689 0.985 . S
C684 C678 1.379 . S
C684 C681 1.363 . S
C684 N682 1.356 . S
C685 C679 1.363 . S
C685 C680 1.379 . S
C685 N683 1.356 . S
N686 C678 1.356 . S
N686 H692 0.984 . S
N686 H693 0.984 . S
N687 C680 1.356 . S
N687 H690 0.984 . S
N687 H691 0.985 . S
H688 N683 0.984 . S
H689 N683 0.985 . S
H690 N687 0.984 . S
H691 N687 0.985 . S
H692 N686 0.984 . S
H693 N686 0.984 . S
H694 N682 0.984 . S
H695 N682 0.985 . S
C696 C697 1.363 . S
C696 C702 1.379 . S
C696 N704 1.356 . S
C697 C696 1.363 . S
C697 C703 1.363 . S
C698 C699 1.363 . S
C698 C703 1.379 . S
C698 N705 1.356 . S
C699 C698 1.363 . S
C699 C702 1.363 . S
N700 C702 1.356 . S
N700 H712 0.984 . S
N700 H713 0.985 . S
N701 C703 1.356 . S
N701 H706 0.984 . S
N701 H707 0.985 . S
C702 C696 1.379 . S
C702 C699 1.363 . S
C702 N700 1.356 . S
C703 C697 1.363 . S
C703 C698 1.379 . S
C703 N701 1.356 . S
N704 C696 1.356 . S
N704 H710 0.984 . S
N704 H711 0.984 . S
N705 C698 1.356 . S
N705 H708 0.984 . S
N705 H709 0.985 . S
H706 N701 0.984 . S
H707 N701 0.985 . S
H708 N705 0.984 . S
H709 N705 0.985 . S
H710 N704 0.984 . S
H711 N704 0.984 . S
H712 N700 0.984 . S
H713 N700 0.985 . S
C714 C715 1.363 . S
C714 C720 1.379 . S
C714 N722 1.356 . S
C715 C714 1.363 . S
C715 C721 1.363 . S
C716 C717 1.363 . S
C716 C721 1.379 . S
C716 N723 1.356 . S
C717 C716 1.363 . S
C717 C720 1.363 . S
N718 C720 1.356 . S
N718 H730 0.984 . S
N718 H731 0.985 . S
N719 C721 1.356 . S
N719 H724 0.984 . S
N719 H725 0.985 . S
C720 C714 1.379 . S
C720 C717 1.363 . S
C720 N718 1.356 . S
C721 C715 1.363 . S
C721 C716 1.379 . S
C721 N719 1.356 . S
N722 C714 1.356 . S
N722 H728 0.984 . S
N722 H729 0.984 . S
N723 C716 1.356 . S
N723 H726 0.984 . S
N723 H727 1.006 . S
H724 N719 0.984 . S
H725 N719 0.985 . S
H726 N723 0.984 . S
H727 N723 1.006 . S
H728 N722 0.984 . S
H729 N722 0.984 . S
H730 N718 0.984 . S
H731 N718 0.985 . S
C732 C733 1.363 . S
C732 C738 1.379 . S
C732 N740 1.356 . S
C733 C732 1.363 . S
C733 C739 1.363 . S
C734 C735 1.363 . S
C734 C739 1.379 . S
C734 N741 1.356 . S
C735 C734 1.363 . S
C735 C738 1.363 . S
N736 C738 1.356 . S
N736 H748 0.984 . S
N736 H749 0.985 . S
N737 C739 1.356 . S
N737 H742 0.984 . S
N737 H743 0.985 . S
C738 C732 1.379 . S
C738 C735 1.363 . S
C738 N736 1.356 . S
C739 C733 1.363 . S
C739 C734 1.379 . S
C739 N737 1.356 . S
N740 C732 1.356 . S
N740 H746 0.984 . S
N740 H747 0.984 . S
N741 C734 1.356 . S
N741 H744 0.984 . S
N741 H745 0.985 . S
H742 N737 0.984 . S
H743 N737 0.985 . S
H744 N741 0.984 . S
H745 N741 0.985 . S
H746 N740 0.984 . S
H747 N740 0.984 . S
H748 N736 0.984 . S
H749 N736 0.985 . S
C750 C751 1.363 . S
C750 C756 1.379 . S
C750 N758 1.356 . S
C751 C750 1.363 . S
C751 C757 1.363 . S
C752 C753 1.363 . S
C752 C757 1.379 . S
C752 N759 1.356 . S
C753 C752 1.363 . S
C753 C756 1.363 . S
N754 C756 1.356 . S
N754 H766 0.984 . S
N754 H767 0.985 . S
N755 C757 1.356 . S
N755 H760 0.984 . S
N755 H761 0.985 . S
C756 C750 1.379 . S
C756 C753 1.363 . S
C756 N754 1.356 . S
C757 C751 1.363 . S
C757 C752 1.379 . S
C757 N755 1.356 . S
N758 C750 1.356 . S
N758 H764 0.984 . S
N758 H765 0.984 . S
N759 C752 1.356 . S
N759 H762 0.984 . S
N759 H763 0.985 . S
H760 N755 0.984 . S
H761 N755 0.985 . S
H762 N759 0.984 . S
H763 N759 0.985 . S
H764 N758 0.984 . S
H765 N758 0.984 . S
H766 N754 0.984 . S
H767 N754 0.985 . S
C768 C769 1.363 . S
C768 C774 1.379 . S
C768 N776 1.356 . S
C769 C768 1.363 . S
C769 C775 1.363 . S
C770 C771 1.363 . S
C770 C775 1.379 . S
C770 N777 1.356 . S
C771 C770 1.363 . S
C771 C774 1.363 . S
N772 C774 1.356 . S
N772 H784 0.984 . S
N772 H785 0.985 . S
N773 C775 1.356 . S
N773 H778 0.984 . S
N773 H779 0.985 . S
C774 C768 1.379 . S
C774 C771 1.363 . S
C774 N772 1.356 . S
C775 C769 1.363 . S
C775 C770 1.379 . S
C775 N773 1.356 . S
N776 C768 1.356 . S
N776 H782 0.984 . S
N776 H783 0.984 . S
N777 C770 1.356 . S
N777 H780 0.984 . S
N777 H781 0.985 . S
H778 N773 0.984 . S
H779 N773 0.985 . S
H780 N777 0.984 . S
H781 N777 0.985 . S
H782 N776 0.984 . S
H783 N776 0.984 . S
H784 N772 0.984 . S
H785 N772 0.985 . S
C786 C787 1.363 . S
C786 C792 1.379 . S
C786 N794 1.356 . S
C787 C786 1.363 . S
C787 C793 1.363 . S
C788 C789 1.363 . S
C788 C793 1.379 . S
C788 N795 1.356 . S
C789 C788 1.363 . S
C789 C792 1.363 . S
N790 C792 1.356 . S
N790 H802 0.984 . S
N790 H803 0.985 . S
N791 C793 1.356 . S
N791 H796 0.984 . S
N791 H797 0.985 . S
C792 C786 1.379 . S
C792 C789 1.363 . S
C792 N790 1.356 . S
C793 C787 1.363 . S
C793 C788 1.379 . S
C793 N791 1.356 . S
N794 C786 1.356 . S
N794 H800 0.984 . S
N794 H801 0.984 . S
N795 C788 1.356 . S
N795 H798 0.984 . S
N795 H799 0.985 . S
H796 N791 0.984 . S
H797 N791 0.985 . S
H798 N795 0.984 . S
H799 N795 0.985 . S
H800 N794 0.984 . S
H801 N794 0.984 . S
H802 N790 0.984 . S
H803 N790 0.985 . S
C804 C805 1.363 . S
C804 C810 1.379 . S
C804 N812 1.356 . S
C805 C804 1.363 . S
C805 C811 1.363 . S
C806 C807 1.363 1_554 S
C806 C811 1.379 . S
C806 N813 1.356 . S
C807 C806 1.363 1_556 S
C807 C810 1.363 1_556 S
N808 C810 1.356 1_556 S
N808 H820 0.984 . S
N808 H821 0.985 . S
N809 C811 1.356 . S
N809 H814 0.984 . S
N809 H815 0.985 . S
C810 C804 1.379 . S
C810 C807 1.363 1_554 S
C810 N808 1.356 1_554 S
C811 C805 1.363 . S
C811 C806 1.379 . S
C811 N809 1.356 . S
N812 C804 1.356 . S
N812 H818 0.984 . S
N812 H819 0.984 . S
N813 C806 1.356 . S
N813 H816 0.984 1_554 S
N813 H817 0.985 . S
H814 N809 0.984 . S
H815 N809 0.985 . S
H816 N813 0.984 1_556 S
H817 N813 0.985 . S
H818 N812 0.984 . S
H819 N812 0.984 . S
H820 N808 0.984 . S
H821 N808 0.985 . S
C822 C823 1.363 . S
C822 C828 1.379 . S
C822 N830 1.356 . S
C823 C822 1.363 . S
C823 C829 1.363 . S
C824 C825 1.363 . S
C824 C829 1.379 . S
C824 N831 1.356 . S
C825 C824 1.363 . S
C825 C828 1.363 . S
N826 C828 1.356 . S
N826 H838 0.984 . S
N826 H839 0.985 . S
N827 C829 1.356 . S
N827 H832 0.984 . S
N827 H833 0.985 . S
C828 C822 1.379 . S
C828 C825 1.363 . S
C828 N826 1.356 . S
C829 C823 1.363 . S
C829 C824 1.379 . S
C829 N827 1.356 . S
N830 C822 1.356 . S
N830 H836 0.984 . S
N830 H837 0.984 . S
N831 C824 1.356 . S
N831 H834 0.984 . S
N831 H835 0.985 . S
H832 N827 0.984 . S
H833 N827 0.985 . S
H834 N831 0.984 . S
H835 N831 0.985 . S
H836 N830 0.984 . S
H837 N830 0.984 . S
H838 N826 0.984 . S
H839 N826 0.985 . S
C840 C841 1.363 1_565 S
C840 C846 1.379 . S
C840 N848 1.356 . S
C841 C840 1.363 1_545 S
C841 C847 1.363 . S
C842 C843 1.363 1_545 S
C842 C847 1.379 . S
C842 N849 1.356 . S
C843 C842 1.363 1_565 S
C843 C846 1.363 . S
N844 C846 1.356 . S
N844 H856 0.984 . S
N844 H857 0.985 . S
N845 C847 1.356 . S
N845 H850 0.984 . S
N845 H851 0.985 . S
C846 C840 1.379 . S
C846 C843 1.363 . S
C846 N844 1.356 . S
C847 C841 1.363 . S
C847 C842 1.379 . S
C847 N845 1.356 . S
N848 C840 1.356 . S
N848 H854 0.984 . S
N848 H855 0.984 . S
N849 C842 1.356 . S
N849 H852 0.984 1_545 S
N849 H853 0.985 . S
H850 N845 0.984 . S
H851 N845 0.985 . S
H852 N849 0.984 1_565 S
H853 N849 0.985 . S
H854 N848 0.984 . S
H855 N848 0.984 . S
H856 N844 0.984 . S
H857 N844 0.985 . S
C858 C859 1.363 . S
C858 C864 1.379 . S
C858 N866 1.356 . S
C859 C858 1.363 . S
C859 C865 1.363 . S
C860 C861 1.363 . S
C860 C865 1.379 . S
C860 N867 1.356 . S
C861 C860 1.363 . S
C861 C864 1.363 . S
N862 C864 1.356 . S
N862 H874 0.984 . S
N862 H875 0.985 . S
N863 C865 1.356 . S
N863 H868 0.984 . S
N863 H869 0.985 . S
C864 C858 1.379 . S
C864 C861 1.363 . S
C864 N862 1.356 . S
C865 C859 1.363 . S
C865 C860 1.379 . S
C865 N863 1.356 . S
N866 C858 1.356 . S
N866 H872 0.984 . S
N866 H873 0.984 . S
N867 C860 1.356 . S
N867 H870 0.984 . S
N867 H871 0.985 . S
H868 N863 0.984 . S
H869 N863 0.985 . S
H870 N867 0.984 . S
H871 N867 0.985 . S
H872 N866 0.984 . S
H873 N866 0.984 . S
H874 N862 0.984 . S
H875 N862 0.985 . S
C876 C877 1.363 . S
C876 C882 1.379 . S
C876 N884 1.356 . S
C877 C876 1.363 . S
C877 C883 1.363 . S
C878 C879 1.363 . S
C878 C883 1.379 . S
C878 N885 1.356 . S
C879 C878 1.363 . S
C879 C882 1.363 . S
N880 C882 1.356 . S
N880 H892 0.984 . S
N880 H893 0.985 . S
N881 C883 1.356 1_545 S
N881 H886 0.984 . S
N881 H887 0.985 . S
C882 C876 1.379 . S
C882 C879 1.363 . S
C882 N880 1.356 . S
C883 C877 1.363 . S
C883 C878 1.379 . S
C883 N881 1.356 1_565 S
N884 C876 1.356 . S
N884 H890 0.984 . S
N884 H891 0.984 1_565 S
N885 C878 1.356 . S
N885 H888 0.984 . S
N885 H889 0.985 . S
H886 N881 0.984 . S
H887 N881 0.985 . S
H888 N885 0.984 . S
H889 N885 0.985 . S
H890 N884 0.984 . S
H891 N884 0.984 1_545 S
H892 N880 0.984 . S
H893 N880 0.985 . S
C894 C895 1.363 . S
C894 C900 1.379 . S
C894 N902 1.356 . S
C895 C894 1.363 . S
C895 C901 1.363 . S
C896 C897 1.363 . S
C896 C901 1.379 . S
C896 N903 1.356 . S
C897 C896 1.363 . S
C897 C900 1.363 . S
N898 C900 1.356 . S
N898 H910 0.984 . S
N898 H911 0.985 . S
N899 C901 1.356 . S
N899 H904 0.984 . S
N899 H905 0.985 . S
C900 C894 1.379 . S
C900 C897 1.363 . S
C900 N898 1.356 . S
C901 C895 1.363 . S
C901 C896 1.379 . S
C901 N899 1.356 . S
N902 C894 1.356 . S
N902 H908 0.984 . S
N902 H909 0.984 . S
N903 C896 1.356 . S
N903 H906 0.984 . S
N903 H907 0.985 . S
H904 N899 0.984 . S
H905 N899 0.985 . S
H906 N903 0.984 . S
H907 N903 0.985 . S
H908 N902 0.984 . S
H909 N902 0.984 . S
H910 N898 0.984 . S
H911 N898 0.985 . S
C265 C51 1.747 . S
C267 C7 1.763 . S
C283 C62 1.555 . S
C285 C16 1.259 . S
C301 C29 1.711 . S
C303 C73 1.707 . S
C319 C82 1.254 . S
C321 C40 1.472 . S
C337 C95 1.874 . S
C339 C126 1.423 . S
C355 C115 1.409 . S
C357 C106 1.542 . S
C373 C137 1.679 . S
C375 C181 1.720 . S
C391 C192 1.165 . S
C393 C150 1.476 . S
C409 C205 1.453 . S
C411 C161 1.475 . S
C427 C170 1.277 . S
C429 C216 1.342 . S
C445 C260 1.518 . S
C447 C225 1.611 . S
C463 C249 1.409 . S
C465 C236 1.413 . S
C481 C217 1.687 . S
C483 C8 1.685 . S
C499 C184 1.970 . S
C501 C18 1.852 . S
C517 C27 1.854 . S
C519 C195 1.929 . S
C535 C38 1.565 . S
C537 C206 1.648 . S
C553 C52 1.768 . S
C555 C148 1.611 . S
C571 C162 1.828 . S
C573 C60 1.911 . S
C589 C71 1.742 . S
C591 C172 1.816 . S
C607 C85 1.754 1_465 S
C609 C140 1.770 . S
C625 C41 1.683 . S
C627 C261 1.599 . S
C643 C5 1.662 . S
C645 C238 1.775 . S
C661 C19 1.601 . S
C663 C228 1.612 . S
C679 C30 1.923 . S
C681 C247 1.451 . S
C697 C63 1.624 . S
C699 C250 1.598 . S
C715 C74 1.876 . S
C717 C258 1.314 . S
C733 C239 1.769 . S
C735 C84 1.677 . S
C751 C49 1.746 . S
C753 C227 1.799 . S
C769 C93 1.875 . S
C771 C183 1.942 . S
C787 C139 1.899 . S
C789 C104 1.426 . S
C805 C96 1.902 . S
C807 C151 1.920 . S
C823 C118 1.785 . S
C825 C159 1.458 . S
C841 C173 1.767 . S
C843 C129 1.723 . S
C859 C203 1.630 . S
C861 C128 1.873 . S
C877 C214 1.856 1_565 S
C879 C107 1.784 . S
C895 C194 1.967 . S
C897 C117 1.966 . S
