# Generated by pormake.
# Topology mmt, (4)-cn, num edge types: 1
# Building blocks:
#     Node 0, Type 0, BuildingBlock: ICAMEG_clean_sbu_1, # of connection points: 4
#     Node 1, Type 0, BuildingBlock: ICAMEG_clean_sbu_1, # of connection points: 4
#     Node 2, Type 0, BuildingBlock: ICAMEG_clean_sbu_1, # of connection points: 4
#     Node 3, Type 0, BuildingBlock: ICAMEG_clean_sbu_1, # of connection points: 4
#     Node 4, Type 0, BuildingBlock: ICAMEG_clean_sbu_1, # of connection points: 4
#     Node 5, Type 0, BuildingBlock: ICAMEG_clean_sbu_1, # of connection points: 4
#     Node 6, Type 0, BuildingBlock: ICAMEG_clean_sbu_1, # of connection points: 4
#     Node 7, Type 0, BuildingBlock: ICAMEG_clean_sbu_1, # of connection points: 4
#     Edge 8, Type (0, 0), BuildingBlock: XUDNAN_clean_linker_2, # of connection points: 2
#     Edge 9, Type (0, 0), BuildingBlock: XUDNAN_clean_linker_2, # of connection points: 2
#     Edge 10, Type (0, 0), BuildingBlock: XUDNAN_clean_linker_2, # of connection points: 2
#     Edge 11, Type (0, 0), BuildingBlock: XUDNAN_clean_linker_2, # of connection points: 2
#     Edge 12, Type (0, 0), BuildingBlock: XUDNAN_clean_linker_2, # of connection points: 2
#     Edge 13, Type (0, 0), BuildingBlock: XUDNAN_clean_linker_2, # of connection points: 2
#     Edge 14, Type (0, 0), BuildingBlock: XUDNAN_clean_linker_2, # of connection points: 2
#     Edge 15, Type (0, 0), BuildingBlock: XUDNAN_clean_linker_2, # of connection points: 2
#     Edge 16, Type (0, 0), BuildingBlock: XUDNAN_clean_linker_2, # of connection points: 2
#     Edge 17, Type (0, 0), BuildingBlock: XUDNAN_clean_linker_2, # of connection points: 2
#     Edge 18, Type (0, 0), BuildingBlock: XUDNAN_clean_linker_2, # of connection points: 2
#     Edge 19, Type (0, 0), BuildingBlock: XUDNAN_clean_linker_2, # of connection points: 2
#     Edge 20, Type (0, 0), BuildingBlock: XUDNAN_clean_linker_2, # of connection points: 2
#     Edge 21, Type (0, 0), BuildingBlock: XUDNAN_clean_linker_2, # of connection points: 2
#     Edge 22, Type (0, 0), BuildingBlock: XUDNAN_clean_linker_2, # of connection points: 2
#     Edge 23, Type (0, 0), BuildingBlock: XUDNAN_clean_linker_2, # of connection points: 2
# Relax obj value: 0.088
# Max RMSD: 0.129
# Mean RMSD: 0.129
data_MOF--net-mmt--node1-ICAMEG_clean_sbu_1--edge1-XUDNAN_clean_linker_2
_symmetry_space_group_name_H-M    P1
_symmetry_Int_Tables_number       1
_symmetry_cell_setting            triclinic
loop_
_symmetry_equiv_pos_as_xyz
'x, y, z'
_cell_length_a     23.920499
_cell_length_b     42.180455
_cell_length_c     41.807015
_cell_angle_alpha  89.843771
_cell_angle_beta   89.968954
_cell_angle_gamma 90.213798
loop_
_atom_site_label
_atom_site_type_symbol
_atom_site_fract_x
_atom_site_fract_y
_atom_site_fract_z
_atom_type_partial_charge
Co0 Co 0.19697 0.55505 0.35317 0.0
Co1 Co 0.10056 0.61485 0.3645 0.0
O2 O 0.17497 0.5996 0.35243 0.0
C3 C 0.24634 0.54461 0.28937 0.0
O4 O 0.20914 0.52188 0.28591 0.0
C5 C 0.18054 0.6533 0.403 0.0
O6 O 0.20545 0.62677 0.41102 0.0
O7 O 0.1009 0.58945 0.40538 0.0
O8 O 0.15125 0.54683 0.39194 0.0
H9 H 0.90296 0.60315 0.40362 0.0
H10 H 0.28499 0.60459 0.34937 0.0
O11 O 0.24436 0.56241 0.31398 0.0
H12 H 0.32292 0.54634 0.4494 0.0
H13 H 0.33375 0.46459 0.34537 0.0
H14 H 0.13713 0.49423 0.36359 0.0
H15 H 0.24431 0.53073 0.4147 0.0
H16 H 0.3055 0.52073 0.34493 0.0
O17 O 0.13582 0.65239 0.38648 0.0
H18 H 0.99629 0.58432 0.38752 0.0
H19 H 0.04772 0.67886 0.36771 0.0
H20 H 0.16357 0.43779 0.3643 0.0
H21 H 0.36453 0.62073 0.38316 0.0
H22 H 0.26252 0.42265 0.35508 0.0
H23 H 0.38379 0.5916 0.43365 0.0
O24 O 0.13081 0.54362 0.32628 0.0
H25 H 0.18168 0.68736 0.28067 0.0
H26 H 0.01556 0.62596 0.31362 0.0
H27 H 0.01361 0.65597 0.26293 0.0
H28 H 0.09708 0.68712 0.24625 0.0
H29 H 0.18209 0.65651 0.33085 0.0
H30 H 0.95507 0.69873 0.3838 0.0
H31 H 0.88186 0.66075 0.4018 0.0
O32 O 0.0644 0.57843 0.34136 0.0
C33 C 0.11852 0.56136 0.41084 0.0
C34 C 0.93445 0.61993 0.39572 0.0
C35 C 0.96374 0.67358 0.38466 0.0
N36 N 0.0273 0.63043 0.37652 0.0
C37 C 0.98732 0.6094 0.38649 0.0
C38 C 0.01619 0.66219 0.37568 0.0
C39 C 0.92267 0.65225 0.39473 0.0
C40 C 0.29352 0.59151 0.37108 0.0
N41 N 0.26014 0.56662 0.37993 0.0
C42 C 0.33846 0.60088 0.39021 0.0
C43 C 0.34916 0.58458 0.41858 0.0
C44 C 0.31497 0.55921 0.42744 0.0
C45 C 0.27035 0.55054 0.40775 0.0
C46 C 0.29048 0.47087 0.34936 0.0
C47 C 0.1802 0.48784 0.35945 0.0
C48 C 0.2742 0.50263 0.34911 0.0
N49 N 0.21954 0.51078 0.35395 0.0
C50 C 0.19497 0.45584 0.35995 0.0
C51 C 0.25049 0.44736 0.3548 0.0
C52 C 0.08047 0.55379 0.32614 0.0
C53 C 0.14509 0.67383 0.28765 0.0
C54 C 0.05227 0.63903 0.30626 0.0
C55 C 0.05081 0.65618 0.27766 0.0
C56 C 0.09762 0.67368 0.26833 0.0
N57 N 0.099 0.63921 0.32504 0.0
C58 C 0.14504 0.65634 0.31606 0.0
Co59 Co 0.31855 0.98821 0.37596 0.0
Co60 Co 0.39876 0.92121 0.36373 0.0
O61 O 0.32654 0.94304 0.36534 0.0
C62 C 0.25746 0.98204 0.31459 0.0
O63 O 0.30085 0.96711 0.30286 0.0
C64 C 0.31714 0.87341 0.39308 0.0
O65 O 0.27646 0.89415 0.39285 0.0
O66 O 0.41795 0.93706 0.4073 0.0
O67 O 0.37888 0.98539 0.40898 0.0
H68 H 0.60721 0.91442 0.37671 0.0
H69 H 0.21612 0.94821 0.37586 0.0
O70 O 0.25764 0.99219 0.34321 0.0
H71 H 0.23262 0.98881 0.48595 0.0
H72 H 0.20937 0.08797 0.39649 0.0
H73 H 0.3974 0.04094 0.38962 0.0
H74 H 0.3021 1.00361 0.44496 0.0
H75 H 0.22086 0.03129 0.38379 0.0
O76 O 0.36599 0.88114 0.38333 0.0
H77 H 0.51531 0.94063 0.37809 0.0
H78 H 0.43629 0.85576 0.34702 0.0
H79 H 0.38778 0.09759 0.40275 0.0
H80 H 0.14524 0.93319 0.41601 0.0
H81 H 0.29321 0.12149 0.40622 0.0
H82 H 0.15335 0.95342 0.47156 0.0
O83 O 0.37558 1.00056 0.34339 0.0
H84 H 0.27347 0.875 0.27868 0.0
H85 H 0.46084 0.91795 0.30209 0.0
H86 H 0.43876 0.9002 0.24747 0.0
H87 H 0.34455 0.87832 0.23547 0.0
H88 H 0.29698 0.89347 0.33271 0.0
H89 H 0.52729 0.82852 0.34576 0.0
H90 H 0.61362 0.85794 0.36049 0.0
O91 O 0.43505 0.95954 0.34412 0.0
C92 C 0.41171 0.96431 0.42011 0.0
C93 C 0.56992 0.90136 0.37017 0.0
C94 C 0.52505 0.85314 0.35284 0.0
N95 N 0.47048 0.89983 0.36247 0.0
C96 C 0.51776 0.91611 0.37081 0.0
C97 C 0.4736 0.86867 0.35373 0.0
C98 C 0.57347 0.86967 0.36109 0.0
C99 C 0.21977 0.9573 0.39992 0.0
N100 N 0.26342 0.97663 0.40805 0.0
C101 C 0.17958 0.94862 0.42258 0.0
C102 C 0.1842 0.95994 0.45375 0.0
C103 C 0.22872 0.97975 0.46186 0.0
C104 C 0.26814 0.9879 0.43857 0.0
C105 C 0.25079 0.07782 0.39508 0.0
C106 C 0.35608 0.05109 0.39127 0.0
C107 C 0.25756 0.04576 0.3878 0.0
N108 N 0.30974 0.03276 0.38613 0.0
C109 C 0.35091 0.08322 0.39863 0.0
C110 C 0.29785 0.09661 0.40055 0.0
C111 C 0.42198 0.98771 0.3359 0.0
C112 C 0.31484 0.8842 0.28367 0.0
C113 C 0.41975 0.90849 0.29715 0.0
C114 C 0.4075 0.89843 0.26613 0.0
C115 C 0.35468 0.88615 0.25942 0.0
N116 N 0.3807 0.90619 0.32097 0.0
C117 C 0.32862 0.89447 0.31441 0.0
Co118 Co 0.69569 0.48514 0.14292 0.0
Co119 Co 0.61947 0.41597 0.1485 0.0
O120 O 0.69041 0.4393 0.15121 0.0
C121 C 0.75767 0.47504 0.20388 0.0
O122 O 0.71991 0.4539 0.21205 0.0
C123 C 0.69937 0.3754 0.11171 0.0
O124 O 0.7197 0.40106 0.0981 0.0
O125 O 0.60744 0.43205 0.10422 0.0
O126 O 0.63804 0.48227 0.10809 0.0
H127 H 0.41533 0.40362 0.12291 0.0
H128 H 0.79897 0.44655 0.1432 0.0
O129 O 0.7539 0.48979 0.17736 0.0
H130 H 0.78976 0.49409 0.03545 0.0
H131 H 0.79738 0.58909 0.12937 0.0
H132 H 0.61332 0.53604 0.13027 0.0
H133 H 0.71697 0.50551 0.07554 0.0
H134 H 0.79004 0.53152 0.13908 0.0
O135 O 0.65924 0.37752 0.13161 0.0
H136 H 0.50502 0.43229 0.1269 0.0
H137 H 0.58371 0.3496 0.1633 0.0
H138 H 0.61883 0.59356 0.12005 0.0
H139 H 0.873 0.43475 0.10395 0.0
H140 H 0.71138 0.62048 0.11959 0.0
H141 H 0.86858 0.45854 0.0496 0.0
O142 O 0.63569 0.49371 0.17478 0.0
H143 H 0.73022 0.36589 0.23726 0.0
H144 H 0.54937 0.41337 0.20762 0.0
H145 H 0.56398 0.39439 0.26278 0.0
H146 H 0.65487 0.37032 0.27789 0.0
H147 H 0.71418 0.38568 0.18249 0.0
H148 H 0.495 0.31992 0.15931 0.0
H149 H 0.40991 0.34699 0.13916 0.0
O150 O 0.57714 0.45308 0.1658 0.0
C151 C 0.61072 0.46048 0.09373 0.0
C152 C 0.45208 0.39157 0.13179 0.0
C153 C 0.49682 0.34459 0.15218 0.0
N154 N 0.54952 0.39271 0.14548 0.0
C155 C 0.50298 0.4077 0.13417 0.0
C156 C 0.54699 0.3615 0.15428 0.0
C157 C 0.44908 0.3598 0.14089 0.0
C158 C 0.79707 0.45724 0.11971 0.0
N159 N 0.75383 0.4768 0.11173 0.0
C160 C 0.83897 0.45037 0.09753 0.0
C161 C 0.83641 0.46367 0.06702 0.0
C162 C 0.79217 0.4836 0.05906 0.0
C163 C 0.75098 0.4899 0.08184 0.0
C164 C 0.75683 0.57762 0.12946 0.0
C165 C 0.65379 0.54753 0.1299 0.0
C166 C 0.75239 0.54504 0.13504 0.0
N167 N 0.70132 0.53038 0.13503 0.0
C168 C 0.65662 0.58013 0.1242 0.0
C169 C 0.70856 0.59522 0.12397 0.0
C170 C 0.58809 0.48025 0.17766 0.0
C171 C 0.69038 0.37625 0.23095 0.0
C172 C 0.58923 0.4032 0.21404 0.0
C173 C 0.59716 0.39235 0.2453 0.0
C174 C 0.64813 0.3788 0.25375 0.0
N175 N 0.63089 0.40063 0.19181 0.0
C176 C 0.68095 0.38734 0.19991 0.0
Co177 Co 0.81663 0.04508 0.16247 0.0
Co178 Co 0.90595 0.10853 0.15096 0.0
O179 O 0.83103 0.09109 0.16088 0.0
C180 C 0.74464 0.07194 0.21607 0.0
O181 O 0.76724 0.10019 0.21347 0.0
C182 C 0.82292 0.15359 0.11983 0.0
O183 O 0.78138 0.13411 0.12584 0.0
O184 O 0.90944 0.08341 0.11036 0.0
O185 O 0.87144 0.03782 0.12728 0.0
H186 H 0.10709 0.10038 0.11731 0.0
H187 H 0.71894 0.08822 0.15533 0.0
O188 O 0.76054 0.04935 0.19812 0.0
H189 H 0.7141 0.019 0.06063 0.0
H190 H 0.69792 0.94656 0.17224 0.0
H191 H 0.88961 0.98839 0.16036 0.0
H192 H 0.7878 1.01277 0.10125 0.0
H193 H 0.71491 1.00413 0.1689 0.0
O194 O 0.873 0.14587 0.12691 0.0
H195 H 0.01311 0.07995 0.13036 0.0
H196 H 0.95699 0.1734 0.14982 0.0
H197 H 0.87439 0.93061 0.16323 0.0
H198 H 0.64401 0.09491 0.11562 0.0
H199 H 0.77797 0.90934 0.16925 0.0
H200 H 0.6413 0.06023 0.06773 0.0
O201 O 0.87717 0.03986 0.19454 0.0
H202 H 0.81741 0.1798 0.23319 0.0
H203 H 0.98613 0.11967 0.20431 0.0
H204 H 0.98422 0.14942 0.25485 0.0
H205 H 0.89949 0.17998 0.26954 0.0
H206 H 0.82072 0.14921 0.18331 0.0
H207 H 0.05026 0.19483 0.13668 0.0
H208 H 0.12617 0.15822 0.12042 0.0
O209 O 0.94271 0.07282 0.17497 0.0
C210 C 0.90024 0.05374 0.1072 0.0
C211 C 0.0744 0.11657 0.12443 0.0
C212 C 0.04247 0.16958 0.13525 0.0
N213 N 0.97961 0.12541 0.141 0.0
C214 C 0.0211 0.10514 0.13193 0.0
C215 C 0.98967 0.1573 0.14256 0.0
C216 C 0.08506 0.14902 0.12616 0.0
C217 C 0.71785 0.07277 0.13485 0.0
N218 N 0.75778 0.05008 0.13081 0.0
C219 C 0.67539 0.07679 0.11229 0.0
C220 C 0.67395 0.05737 0.0854 0.0
C221 C 0.71481 0.03428 0.08139 0.0
C222 C 0.75665 0.03096 0.10443 0.0
C223 C 0.74012 0.95553 0.16954 0.0
C224 C 0.84749 0.97933 0.16277 0.0
C225 C 0.75004 0.98813 0.16771 0.0
N226 N 0.80323 0.99966 0.16424 0.0
C227 C 0.83915 0.94658 0.16447 0.0
C228 C 0.78505 0.93466 0.16787 0.0
C229 C 0.92741 0.05003 0.19323 0.0
C230 C 0.85468 0.16669 0.22701 0.0
C231 C 0.94889 0.13259 0.21059 0.0
C232 C 0.94817 0.14956 0.23922 0.0
C233 C 0.90068 0.16673 0.24743 0.0
N234 N 0.90369 0.1327 0.19057 0.0
C235 C 0.85695 0.14943 0.19857 0.0
Co236 Co 0.83629 0.47575 0.6396 0.0
Co237 Co 0.91831 0.40909 0.64371 0.0
O238 O 0.84572 0.43015 0.64723 0.0
C239 C 0.77321 0.49488 0.69757 0.0
O240 O 0.81241 0.51621 0.70249 0.0
C241 C 0.83249 0.36145 0.61877 0.0
O242 O 0.79216 0.38225 0.6212 0.0
O243 O 0.92789 0.42648 0.59968 0.0
O244 O 0.895 0.47598 0.60516 0.0
H245 H 0.12298 0.4048 0.61693 0.0
H246 H 0.73429 0.43533 0.63873 0.0
O247 O 0.77709 0.47599 0.67388 0.0
H248 H 0.74497 0.48342 0.53128 0.0
H249 H 0.72433 0.57578 0.62501 0.0
H250 H 0.91356 0.53007 0.63017 0.0
H251 H 0.81612 0.49581 0.57199 0.0
H252 H 0.73722 0.51846 0.63403 0.0
O253 O 0.8828 0.36915 0.62566 0.0
H254 H 0.03074 0.43009 0.62224 0.0
H255 H 0.96074 0.34365 0.65633 0.0
H256 H 0.90258 0.58747 0.62092 0.0
H257 H 0.66174 0.42269 0.59888 0.0
H258 H 0.80741 0.61069 0.61833 0.0
H259 H 0.66691 0.4467 0.54464 0.0
O260 O 0.89512 0.48542 0.67196 0.0
H261 H 0.81263 0.35929 0.73544 0.0
H262 H 0.99251 0.40528 0.70076 0.0
H263 H 0.98226 0.38572 0.756 0.0
H264 H 0.89191 0.3623 0.77365 0.0
H265 H 0.8244 0.37949 0.68063 0.0
H266 H 0.05212 0.31733 0.65098 0.0
H267 H 0.13413 0.348 0.63133 0.0
O268 O 0.95737 0.44722 0.66175 0.0
C269 C 0.92338 0.45519 0.59012 0.0
C270 C 0.0876 0.39119 0.62557 0.0
C271 C 0.0478 0.3421 0.64463 0.0
N272 N 0.99039 0.38844 0.63971 0.0
C273 C 0.03525 0.40541 0.6287 0.0
C274 C 0.99609 0.35711 0.64748 0.0
C275 C 0.09381 0.35932 0.63363 0.0
C276 C 0.7367 0.44606 0.61528 0.0
N277 N 0.77966 0.46615 0.60772 0.0
C278 C 0.69555 0.43872 0.59276 0.0
C279 C 0.69851 0.45217 0.56232 0.0
C280 C 0.74235 0.47272 0.5548 0.0
C281 C 0.78276 0.47948 0.57791 0.0
C282 C 0.76601 0.56594 0.62608 0.0
C283 C 0.87201 0.53997 0.629 0.0
C284 C 0.77357 0.53351 0.63119 0.0
N285 N 0.8261 0.52091 0.63255 0.0
C286 C 0.86605 0.5725 0.62379 0.0
C287 C 0.81264 0.58552 0.62233 0.0
C288 C 0.94384 0.47351 0.67459 0.0
C289 C 0.85239 0.36915 0.72795 0.0
C290 C 0.95305 0.39506 0.70814 0.0
C291 C 0.94752 0.38403 0.73951 0.0
C292 C 0.89683 0.37091 0.7494 0.0
N293 N 0.90951 0.39286 0.68704 0.0
C294 C 0.85946 0.38043 0.69676 0.0
Co295 Co 0.68436 0.04077 0.6634 0.0
Co296 Co 0.59937 0.10672 0.65436 0.0
O297 O 0.67078 0.08654 0.66624 0.0
C298 C 0.74822 0.06031 0.72405 0.0
O299 O 0.74105 0.09089 0.72016 0.0
C300 C 0.68567 0.14306 0.61754 0.0
O301 O 0.70763 0.11596 0.60876 0.0
O302 O 0.59652 0.08373 0.61221 0.0
O303 O 0.64206 0.03859 0.62273 0.0
H304 H 0.40217 0.10857 0.61316 0.0
H305 H 0.77768 0.08882 0.66674 0.0
O306 O 0.72752 0.0402 0.70463 0.0
H307 H 0.81989 0.02285 0.57302 0.0
H308 H 0.79719 0.94056 0.674 0.0
H309 H 0.61424 0.98564 0.64481 0.0
H310 H 0.73596 1.01237 0.60539 0.0
H311 H 0.78156 0.99822 0.67653 0.0
O312 O 0.64123 0.14325 0.63433 0.0
H313 H 0.49117 0.08363 0.62879 0.0
H314 H 0.55791 0.17348 0.65454 0.0
H315 H 0.62833 0.92788 0.64159 0.0
H316 H 0.86239 0.09967 0.63559 0.0
H317 H 0.72034 0.90496 0.65628 0.0
H318 H 0.8842 0.06665 0.58816 0.0
O319 O 0.61442 0.03168 0.68795 0.0
H320 H 0.68953 0.17088 0.74154 0.0
H321 H 0.51571 0.1189 0.70574 0.0
H322 H 0.51757 0.14613 0.75784 0.0
H323 H 0.60496 0.17251 0.776 0.0
H324 H 0.68598 0.14288 0.68988 0.0
H325 H 0.46975 0.19941 0.63897 0.0
H326 H 0.39103 0.16688 0.61822 0.0
O327 O 0.55585 0.07147 0.67528 0.0
C328 C 0.61196 0.05576 0.60464 0.0
C329 C 0.43609 0.12299 0.62226 0.0
C330 C 0.47407 0.17398 0.6367 0.0
N331 N 0.5296 0.12704 0.64273 0.0
C332 C 0.48655 0.109 0.63123 0.0
C333 C 0.52396 0.15917 0.64538 0.0
C334 C 0.4299 0.15571 0.62507 0.0
C335 C 0.78721 0.07363 0.64695 0.0
N336 N 0.75227 0.04924 0.63882 0.0
C337 C 0.83516 0.08021 0.629 0.0
C338 C 0.84725 0.06178 0.60233 0.0
C339 C 0.8112 0.03723 0.59383 0.0
C340 C 0.7636 0.03141 0.61232 0.0
C341 C 0.7569 0.95026 0.66755 0.0
C342 C 0.65448 0.9759 0.65112 0.0
C343 C 0.74769 0.98289 0.66908 0.0
N344 N 0.697 0.99536 0.66078 0.0
C345 C 0.66217 0.94315 0.64931 0.0
C346 C 0.71379 0.9303 0.65758 0.0
C347 C 0.5664 0.04485 0.6886 0.0
C348 C 0.65125 0.15941 0.73394 0.0
C349 C 0.55408 0.12985 0.71372 0.0
C350 C 0.55479 0.14546 0.74313 0.0
C351 C 0.6038 0.1603 0.75327 0.0
N352 N 0.60084 0.12893 0.69496 0.0
C353 C 0.64896 0.14354 0.70469 0.0
Co354 Co 0.33189 0.55194 0.85486 0.0
Co355 Co 0.42665 0.61219 0.86676 0.0
O356 O 0.35176 0.59695 0.85504 0.0
C357 C 0.27795 0.54234 0.79218 0.0
O358 O 0.31667 0.52092 0.78713 0.0
C359 C 0.34968 0.6522 0.90547 0.0
O360 O 0.32448 0.62613 0.91503 0.0
O361 O 0.42453 0.58786 0.90806 0.0
O362 O 0.38176 0.5433 0.89208 0.0
H363 H 0.62337 0.60076 0.90712 0.0
H364 H 0.24163 0.59976 0.85588 0.0
O365 O 0.28025 0.55938 0.81738 0.0
H366 H 0.21563 0.53691 0.95442 0.0
H367 H 0.1998 0.4586 0.84854 0.0
H368 H 0.39645 0.49229 0.85969 0.0
H369 H 0.29149 0.5242 0.91671 0.0
H370 H 0.22467 0.51537 0.84936 0.0
O371 O 0.39254 0.65047 0.88751 0.0
H372 H 0.52961 0.58191 0.89156 0.0
H373 H 0.4816 0.67589 0.86763 0.0
H374 H 0.37338 0.43528 0.85908 0.0
H375 H 0.16474 0.61304 0.89275 0.0
H376 H 0.27444 0.4181 0.85344 0.0
H377 H 0.15147 0.58156 0.94249 0.0
O378 O 0.39568 0.54324 0.82538 0.0
H379 H 0.35014 0.68392 0.78125 0.0
H380 H 0.51148 0.61952 0.8148 0.0
H381 H 0.5151 0.64826 0.76344 0.0
H382 H 0.4341 0.6809 0.74642 0.0
H383 H 0.34797 0.6544 0.83223 0.0
H384 H 0.57478 0.69579 0.88314 0.0
H385 H 0.64649 0.65809 0.90294 0.0
O386 O 0.46261 0.57509 0.8452 0.0
C387 C 0.41123 0.55875 0.91214 0.0
C388 C 0.59254 0.61742 0.89845 0.0
C389 C 0.56523 0.67075 0.88504 0.0
N390 N 0.50024 0.62774 0.87855 0.0
C391 C 0.53939 0.60687 0.88954 0.0
C392 C 0.51248 0.65936 0.87638 0.0
C393 C 0.60545 0.64959 0.89613 0.0
C394 C 0.23574 0.58572 0.87729 0.0
N395 N 0.27089 0.56113 0.88402 0.0
C396 C 0.19229 0.59345 0.89815 0.0
C397 C 0.18494 0.57582 0.92609 0.0
C398 C 0.22096 0.55079 0.93282 0.0
C399 C 0.26401 0.54378 0.91142 0.0
C400 C 0.24306 0.46578 0.85105 0.0
C401 C 0.35328 0.48502 0.85728 0.0
C402 C 0.25741 0.4979 0.85156 0.0
N403 N 0.312 0.50718 0.85461 0.0
C404 C 0.34047 0.4527 0.85695 0.0
C405 C 0.28496 0.44308 0.85378 0.0
C406 C 0.44658 0.55233 0.82726 0.0
C407 C 0.38572 0.66981 0.78842 0.0
C408 C 0.47588 0.63343 0.80746 0.0
C409 C 0.47826 0.64977 0.7784 0.0
C410 C 0.43282 0.66809 0.76888 0.0
N411 N 0.4296 0.6353 0.82656 0.0
C412 C 0.38479 0.65311 0.81731 0.0
Co413 Co 0.17468 0.98505 0.86935 0.0
Co414 Co 0.11443 0.91103 0.87448 0.0
O415 O 0.17926 0.93836 0.86573 0.0
C416 C 0.23266 0.97341 0.8073 0.0
O417 O 0.19701 0.95034 0.8019 0.0
C418 C 0.21408 0.87137 0.89756 0.0
O419 O 0.25134 0.89283 0.88938 0.0
O420 O 0.10708 0.93031 0.91754 0.0
O421 O 0.12165 0.9818 0.90674 0.0
H422 H 0.91954 0.88988 0.91439 0.0
H423 H 0.28589 0.95417 0.8688 0.0
O424 O 0.22845 0.99008 0.83253 0.0
H425 H 0.27665 1.01155 0.97126 0.0
H426 H 0.25351 0.09595 0.86815 0.0
H427 H 0.08296 0.03095 0.88019 0.0
H428 H 0.19787 1.01347 0.93333 0.0
H429 H 0.2582 0.03766 0.86479 0.0
O430 O 0.16202 0.87633 0.89343 0.0
H431 H 1.00188 0.92288 0.9017 0.0
H432 H 0.08861 0.84194 0.86775 0.0
H433 H 0.0765 0.08913 0.88401 0.0
H434 H 0.36588 0.95184 0.90591 0.0
H435 H 0.1622 0.12206 0.87796 0.0
H436 H 0.36153 0.98063 0.9576 0.0
O437 O 0.10955 0.98643 0.8393 0.0
H438 H 0.21774 0.8628 0.78141 0.0
H439 H 0.03424 0.89726 0.82184 0.0
H440 H 0.0412 0.87454 0.76781 0.0
H441 H 0.13341 0.8569 0.74729 0.0
H442 H 0.20908 0.88622 0.83488 0.0
H443 H 1.0073 0.80804 0.88031 0.0
H444 H 0.92189 0.832 0.90368 0.0
O445 O 0.06289 0.94362 0.8565 0.0
C446 C 0.10354 0.95959 0.92488 0.0
C447 C 0.95645 0.87916 0.90412 0.0
C448 C 1.00573 0.83323 0.88503 0.0
N449 N 0.04992 0.88444 0.88378 0.0
C450 C 1.00319 0.89775 0.89682 0.0
C451 C 0.0517 0.85256 0.87804 0.0
C452 C 0.95781 0.84669 0.89814 0.0
C453 C 0.28378 0.96689 0.89117 0.0
N454 N 0.23725 0.98393 0.89886 0.0
C455 C 0.32916 0.96542 0.91212 0.0
C456 C 0.32667 0.98155 0.94113 0.0
C457 C 0.27905 0.99888 0.94882 0.0
C458 C 0.23446 0.99978 0.92729 0.0
C459 C 0.21589 0.08186 0.87087 0.0
C460 C 0.12051 0.04508 0.87771 0.0
C461 C 0.21825 0.04884 0.86891 0.0
N462 N 0.17095 0.03089 0.87248 0.0
C463 C 0.11656 0.07804 0.87982 0.0
C464 C 0.16465 0.09649 0.87639 0.0
C465 C 0.065 0.96978 0.84122 0.0
C466 C 0.17721 0.87009 0.7902 0.0
C467 C 0.0746 0.88972 0.81316 0.0
C468 C 0.07823 0.8768 0.78251 0.0
C469 C 0.12994 0.86688 0.77103 0.0
N470 N 0.12107 0.89253 0.83203 0.0
C471 C 0.17195 0.88308 0.82074 0.0
H472 H 0.28018 0.49851 0.24771 0.0
H473 H 0.33113 0.58876 0.28813 0.0
H474 H 0.42341 0.58359 0.26197 0.0
H475 H 0.40692 0.46008 0.26047 0.0
H476 H 0.40488 0.43709 0.2242 0.0
H477 H 0.34074 0.44963 0.24269 0.0
H478 H 0.31022 0.47704 0.18997 0.0
H479 H 0.374 0.46418 0.17117 0.0
H480 H 0.35607 0.50565 0.17132 0.0
H481 H 0.51329 0.56623 0.23434 0.0
H482 H 0.59106 0.53887 0.2069 0.0
H483 H 0.48041 0.45958 0.18652 0.0
C484 C 0.31005 0.51767 0.2504 0.0
C485 C 0.29804 0.54424 0.26971 0.0
C486 C 0.3391 0.56832 0.2732 0.0
C487 C 0.39172 0.56556 0.25849 0.0
C488 C 0.40272 0.53855 0.2404 0.0
C489 C 0.36281 0.51514 0.23617 0.0
C490 C 0.38601 0.48748 0.21743 0.0
C491 C 0.38455 0.45677 0.2374 0.0
C492 C 0.35472 0.48336 0.18558 0.0
C493 C 0.44537 0.49879 0.21204 0.0
C494 C 0.45432 0.52835 0.22525 0.0
C495 C 0.50656 0.54315 0.22375 0.0
C496 C 0.55057 0.52737 0.20821 0.0
C497 C 0.54217 0.49699 0.19454 0.0
C498 C 0.48863 0.48274 0.19662 0.0
H499 H 0.03401 0.07096 0.20605 0.0
H500 H 0.92003 0.99261 0.22437 0.0
H501 H 0.99385 0.96548 0.25529 0.0
H502 H 0.15961 0.02639 0.19795 0.0
H503 H 0.20239 0.05501 0.21864 0.0
H504 H 0.14111 0.06779 0.19723 0.0
H505 H 0.10274 0.09412 0.24865 0.0
H506 H 0.16412 0.08168 0.27015 0.0
H507 H 0.09569 0.07083 0.28465 0.0
H508 H 0.08092 0.94677 0.28415 0.0
H509 H 0.17199 0.93989 0.31171 0.0
H510 H 0.2268 0.03147 0.27644 0.0
C511 C 0.0242 0.0482 0.21665 0.0
C512 C 0.97092 0.03403 0.21276 0.0
C513 C 0.96032 1.00408 0.22706 0.0
C514 C 1.00209 0.98841 0.24458 0.0
C515 C 0.05408 1.00312 0.24791 0.0
C516 C 0.06498 0.03252 0.23463 0.0
C517 C 0.12343 0.04388 0.24275 0.0
C518 C 0.15871 0.04853 0.21232 0.0
C519 C 0.12135 0.07443 0.26274 0.0
C520 C 0.14411 0.0161 0.26243 0.0
C521 C 0.10359 0.99272 0.26498 0.0
C522 C 0.11289 0.9649 0.28227 0.0
C523 C 0.1646 0.96111 0.2977 0.0
C524 C 0.206 0.98501 0.29572 0.0
C525 C 0.19578 1.01275 0.27783 0.0
H526 H 0.80558 0.53178 0.21955 0.0
H527 H 0.82078 0.43043 0.23413 0.0
H528 H 0.90744 0.43914 0.26551 0.0
H529 H 0.95039 0.55127 0.213 0.0
H530 H 0.94532 0.58744 0.23566 0.0
H531 H 0.88577 0.57312 0.21358 0.0
H532 H 0.82595 0.57372 0.26529 0.0
H533 H 0.88526 0.58824 0.28745 0.0
H534 H 0.84997 0.55254 0.30015 0.0
H535 H 0.99646 0.4593 0.2922 0.0
H536 H 0.07199 0.48933 0.31912 0.0
H537 H 0.99224 0.57747 0.29194 0.0
C538 C 0.82722 0.51149 0.22946 0.0
C539 C 0.80704 0.48042 0.22435 0.0
C540 C 0.83574 0.4544 0.23794 0.0
C541 C 0.88505 0.45913 0.25559 0.0
C542 C 0.90422 0.49009 0.26005 0.0
C543 C 0.87543 0.51587 0.24799 0.0
C544 C 0.90297 0.54677 0.25772 0.0
C545 C 0.92226 0.56576 0.22823 0.0
C546 C 0.8637 0.56647 0.27891 0.0
C547 C 0.95231 0.5344 0.27665 0.0
C548 C 0.95288 0.50165 0.27732 0.0
C549 C 0.9959 0.48495 0.29222 0.0
C550 C 0.03877 0.50219 0.30734 0.0
C551 C 0.03762 0.53575 0.30807 0.0
C552 C 0.99386 0.55189 0.29232 0.0
H553 H 0.7042 0.015 0.23744 0.0
H554 H 0.67344 0.11621 0.24176 0.0
H555 H 0.58645 0.10596 0.27237 0.0
H556 H 0.56404 0.99017 0.22694 0.0
H557 H 0.57027 0.9554 0.25182 0.0
H558 H 0.6307 0.97082 0.2312 0.0
H559 H 0.68414 0.97501 0.28493 0.0
H560 H 0.62408 0.95931 0.30569 0.0
H561 H 0.65368 0.99682 0.31757 0.0
H562 H 0.49911 0.08381 0.29985 0.0
H563 H 0.42473 0.05235 0.3263 0.0
H564 H 0.51618 0.9661 0.30549 0.0
C565 C 0.67947 0.03509 0.24504 0.0
C566 C 0.69558 0.06645 0.23714 0.0
C567 C 0.66212 0.09201 0.24768 0.0
C568 C 0.61248 0.08639 0.26492 0.0
C569 C 0.5973 0.0551 0.27175 0.0
C570 C 0.63038 0.02993 0.26253 0.0
C571 C 0.60531 0.99856 0.27302 0.0
C572 C 0.59178 0.97751 0.24401 0.0
C573 C 0.64411 0.98142 0.29671 0.0
C574 C 0.55255 1.0099 0.28931 0.0
C575 C 0.54832 0.04255 0.28817 0.0
C576 C 0.50231 0.05825 0.30107 0.0
C577 C 0.46008 0.04014 0.31592 0.0
C578 C 0.46435 1.00667 0.31805 0.0
C579 C 0.51133 0.99157 0.30436 0.0
H580 H 0.55771 0.56782 0.82217 0.0
H581 H 0.43373 0.50079 0.78737 0.0
H582 H 0.5056 0.47635 0.75284 0.0
H583 H 0.62412 0.58081 0.74794 0.0
H584 H 0.69319 0.58444 0.76479 0.0
H585 H 0.63298 0.59479 0.78834 0.0
H586 H 0.66401 0.55543 0.83252 0.0
H587 H 0.72434 0.54485 0.80909 0.0
H588 H 0.67632 0.51452 0.82238 0.0
H589 H 0.59081 0.46096 0.72013 0.0
H590 H 0.68049 0.45682 0.69118 0.0
H591 H 0.74723 0.5348 0.74718 0.0
C592 C 0.54539 0.54788 0.80749 0.0
C593 C 0.48973 0.53635 0.80749 0.0
C594 C 0.47592 0.51015 0.7878 0.0
C595 C 0.51654 0.49605 0.76816 0.0
C596 C 0.57077 0.50838 0.76849 0.0
C597 C 0.58511 0.53373 0.78767 0.0
C598 C 0.6454 0.54362 0.78263 0.0
C599 C 0.64911 0.57794 0.77018 0.0
C600 C 0.67952 0.53934 0.81349 0.0
C601 C 0.66281 0.52008 0.75728 0.0
C602 C 0.61936 0.49977 0.7496 0.0
C603 C 0.62516 0.47662 0.72612 0.0
C604 C 0.67636 0.47444 0.70981 0.0
C605 C 0.72114 0.49542 0.71691 0.0
C606 C 0.71413 0.51824 0.74127 0.0
H607 H 0.85394 0.08077 0.74066 0.0
H608 H 0.72727 1.01 0.76197 0.0
H609 H 0.79382 0.98162 0.79658 0.0
H610 H 0.96415 0.02752 0.73312 0.0
H611 H 0.01736 0.05193 0.75124 0.0
H612 H 0.95823 0.0701 0.73199 0.0
H613 H 0.93458 0.10043 0.78398 0.0
H614 H 0.99418 0.0827 0.80332 0.0
H615 H 0.92565 0.07872 0.82085 0.0
H616 H 0.87409 0.95771 0.82313 0.0
H617 H 0.96396 0.94003 0.84394 0.0
H618 H 0.04376 0.02518 0.8063 0.0
C619 C 0.83988 0.06001 0.75371 0.0
C620 C 0.78514 0.04785 0.74934 0.0
C621 C 0.7687 0.01987 0.76552 0.0
C622 C 0.80625 1.00358 0.78513 0.0
C623 C 0.86037 0.01544 0.78816 0.0
C624 C 0.87737 0.04311 0.77325 0.0
C625 C 0.93955 0.0489 0.77875 0.0
C626 C 0.9717 0.04965 0.74688 0.0
C627 C 0.94904 0.07951 0.79787 0.0
C628 C 0.95474 0.01979 0.79843 0.0
C629 C 0.90803 1.00109 0.80357 0.0
C630 C 0.91087 0.97235 0.81971 0.0
C631 C 0.96261 0.96247 0.83136 0.0
C632 C 0.01157 0.98118 0.82701 0.0
C633 C 1.00736 1.01033 0.81019 0.0
H634 H 0.24852 0.49841 0.74716 0.0
H635 H 0.18772 0.58267 0.79508 0.0
H636 H 0.09615 0.57603 0.76828 0.0
H637 H 0.17294 0.50887 0.67158 0.0
H638 H 0.15952 0.46697 0.66774 0.0
H639 H 0.22151 0.48061 0.68803 0.0
H640 H 0.19328 0.44775 0.73804 0.0
H641 H 0.13097 0.43434 0.71803 0.0
H642 H 0.1258 0.45403 0.75613 0.0
H643 H 1.00844 0.55764 0.73832 0.0
H644 H 0.93425 0.52964 0.70811 0.0
H645 H 0.05371 0.45686 0.68199 0.0
C646 C 0.21654 0.51599 0.7515 0.0
C647 C 0.22569 0.54131 0.773 0.0
C648 C 0.182 0.56326 0.77848 0.0
C649 C 0.12976 0.55963 0.76341 0.0
C650 C 0.12179 0.53388 0.74298 0.0
C651 C 0.16421 0.51254 0.73697 0.0
C652 C 0.14435 0.48574 0.71575 0.0
C653 C 0.17649 0.48556 0.68388 0.0
C654 C 0.14887 0.45358 0.73303 0.0
C655 C 0.08398 0.49513 0.71092 0.0
C656 C 0.07161 0.52304 0.72657 0.0
C657 C 0.01787 0.53585 0.72586 0.0
C658 C 0.97592 0.51972 0.7087 0.0
C659 C 0.98781 0.49093 0.69266 0.0
C660 C 0.04281 0.47875 0.6939 0.0
H661 H 0.28824 0.029 0.79431 0.0
H662 H 0.28771 0.92855 0.77249 0.0
H663 H 0.37403 0.93554 0.74048 0.0
H664 H 0.3351 0.05432 0.71499 0.0
H665 H 0.37638 0.08671 0.73033 0.0
H666 H 0.31501 0.0736 0.75166 0.0
H667 H 0.3747 0.06527 0.80267 0.0
H668 H 0.43628 0.07814 0.78142 0.0
H669 H 0.43525 0.04 0.80098 0.0
H670 H 0.46507 0.95312 0.71434 0.0
H671 H 0.54569 0.98098 0.68981 0.0
H672 H 0.4817 0.07056 0.72446 0.0
C673 C 0.30616 1.00854 0.78259 0.0
C674 C 0.28146 0.9782 0.78593 0.0
C675 C 0.3058 0.95203 0.77008 0.0
C676 C 0.35499 0.95575 0.75202 0.0
C677 C 0.3787 0.98592 0.74948 0.0
C678 C 0.35441 1.01199 0.76378 0.0
C679 C 0.38708 0.04202 0.75639 0.0
C680 C 0.35125 0.06555 0.7372 0.0
C681 C 0.40966 0.05724 0.7872 0.0
C682 C 0.43404 0.02873 0.73614 0.0
C683 C 0.42895 0.99627 0.7328 0.0
C684 C 0.46895 0.9786 0.71642 0.0
C685 C 0.51477 0.9946 0.70269 0.0
C686 C 0.5197 0.028 0.70483 0.0
C687 C 0.4787 0.04513 0.72189 0.0
H688 H 0.0342 0.57626 0.45461 0.0
H689 H 0.15628 0.50381 0.43097 0.0
H690 H 0.11839 0.4695 0.4729 0.0
H691 H 0.0373 0.56172 0.54164 0.0
H692 H 0.96341 0.56836 0.54661 0.0
H693 H 1.00107 0.58844 0.51513 0.0
H694 H 0.93158 0.56576 0.4735 0.0
H695 H 0.89409 0.54537 0.50484 0.0
H696 H 0.92091 0.52349 0.47122 0.0
H697 H 0.06503 0.44095 0.5146 0.0
H698 H 1.00443 0.42208 0.55832 0.0
H699 H 0.91787 0.51253 0.55792 0.0
C700 C 0.05351 0.55342 0.45862 0.0
C701 C 0.0984 0.543 0.43917 0.0
C702 C 0.12196 0.51267 0.44522 0.0
C703 C 0.10062 0.49275 0.46906 0.0
C704 C 0.05577 0.50331 0.48715 0.0
C705 C 0.03285 0.53305 0.48272 0.0
C706 C 0.98467 0.53817 0.50588 0.0
C707 C 0.99739 0.56581 0.52867 0.0
C708 C 0.92955 0.54351 0.48777 0.0
C709 C 0.98419 0.5066 0.52359 0.0
C710 C 0.02538 0.48685 0.51213 0.0
C711 C 0.03282 0.45626 0.52403 0.0
C712 C 0.99791 0.44569 0.54882 0.0
C713 C 0.95627 0.46571 0.56178 0.0
C714 C 0.94923 0.49655 0.54866 0.0
H715 H 0.40491 0.0178 0.458 0.0
H716 H 0.49948 0.93092 0.44524 0.0
H717 H 0.56275 0.94704 0.48874 0.0
H718 H 0.52164 0.06877 0.47544 0.0
H719 H 0.48544 0.09142 0.50546 0.0
H720 H 0.44685 0.07342 0.4732 0.0
H721 H 0.38364 0.04407 0.51402 0.0
H722 H 0.42165 0.06221 0.54639 0.0
H723 H 0.4152 0.01966 0.54447 0.0
H724 H 0.61641 0.9722 0.53225 0.0
H725 H 0.65362 1.00238 0.57723 0.0
H726 H 0.5247 0.07361 0.56406 0.0
C727 C 0.43869 1.00201 0.46445 0.0
C728 C 0.44703 0.97297 0.44804 0.0
C729 C 0.49186 0.95314 0.45737 0.0
C730 C 0.5283 0.9622 0.48197 0.0
C731 C 0.51933 0.99108 0.49722 0.0
C732 C 0.47534 1.01057 0.48919 0.0
C733 C 0.47468 0.04005 0.51011 0.0
C734 C 0.48263 0.0702 0.48983 0.0
C735 C 0.42058 0.04158 0.52992 0.0
C736 C 0.52523 0.03397 0.53123 0.0
C737 C 0.55037 1.00567 0.52299 0.0
C738 C 0.59711 0.99438 0.53894 0.0
C739 C 0.61809 1.01195 0.56456 0.0
C740 C 0.59248 0.04066 0.57441 0.0
C741 C 0.54577 0.05204 0.55703 0.0
H742 H 0.61023 0.51789 0.06167 0.0
H743 H 0.53577 0.42372 0.06067 0.0
H744 H 0.4758 0.4397 0.0156 0.0
H745 H 0.48562 0.56096 0.04383 0.0
H746 H 0.51956 0.58969 0.01832 0.0
H747 H 0.55809 0.571 0.05019 0.0
H748 H 0.63253 0.55196 0.00965 0.0
H749 H 0.59451 0.5708 0.97766 0.0
H750 H 0.61096 0.5292 0.97533 0.0
H751 H 0.42222 0.46568 0.97217 0.0
H752 H 0.38204 0.49867 0.92988 0.0
H753 H 0.49089 0.57677 0.95738 0.0
C754 C 0.58167 0.50049 0.05185 0.0
C755 C 0.57793 0.46942 0.06487 0.0
C756 C 0.5398 0.44754 0.0512 0.0
C757 C 0.5053 0.45645 0.02563 0.0
C758 C 0.50949 0.48729 0.01378 0.0
C759 C 0.54703 0.50893 0.02614 0.0
C760 C 0.54312 0.54053 0.00867 0.0
C761 C 0.52555 0.56711 0.03162 0.0
C762 C 0.59858 0.54859 0.99183 0.0
C763 C 0.49727 0.53325 0.98462 0.0
C764 C 0.47851 0.5024 0.98825 0.0
C765 C 0.43665 0.48983 0.96903 0.0
C766 C 0.41394 0.50898 0.94502 0.0
C767 C 0.43299 0.54058 0.9401 0.0
C768 C 0.47498 0.55291 0.96055 0.0
H769 H 0.09188 0.01899 0.95235 0.0
H770 H 0.04481 0.92002 0.96457 0.0
H771 H 0.98791 0.93425 0.01127 0.0
H772 H 0.10171 0.03679 0.03784 0.0
H773 H 0.07379 0.0762 0.03357 0.0
H774 H 0.11209 0.0585 1.0011 0.0
H775 H 0.02807 0.06796 0.96331 0.0
H776 H 0.98933 0.0855 0.99568 0.0
H777 H 0.96025 0.05243 0.97402 0.0
H778 H 0.93298 0.95847 0.05441 0.0
H779 H 0.88793 0.99064 0.09536 0.0
H780 H 0.97132 0.07493 0.05831 0.0
C781 C 0.07001 1.00025 0.96501 0.0
C782 C 0.07297 0.96828 0.95457 0.0
C783 C 0.04356 0.9446 0.97192 0.0
C784 C 0.01087 0.95246 0.9985 0.0
C785 C 1.00824 0.9841 0.00779 0.0
C786 C 0.03744 1.00764 0.99195 0.0
C787 C 0.02726 0.03976 0.00741 0.0
C788 C 0.08197 0.05363 0.02077 0.0
C789 C 0.99958 0.06277 0.98369 0.0
C790 C 0.98729 0.0305 0.03419 0.0
C791 C 0.97696 0.99824 0.03363 0.0
C792 C 0.94104 0.98371 0.05529 0.0
C793 C 0.91547 1.00243 0.07854 0.0
C794 C 0.92591 0.03557 0.08041 0.0
C795 C 0.96226 0.04977 0.05764 0.0
H796 H 0.1379 0.71305 0.39271 0.0
H797 H 0.28654 0.66415 0.42572 0.0
H798 H 0.33611 0.71548 0.42976 0.0
H799 H 0.20647 0.76928 0.34433 0.0
H800 H 0.16015 0.80156 0.35369 0.0
H801 H 0.13506 0.76131 0.35568 0.0
H802 H 0.10454 0.76977 0.41449 0.0
H803 H 0.12933 0.81014 0.41266 0.0
H804 H 0.15488 0.78378 0.4433 0.0
H805 H 0.37253 0.77176 0.42479 0.0
H806 H 0.39064 0.82875 0.41489 0.0
H807 H 0.21716 0.84145 0.38778 0.0
C808 C 0.18058 0.71313 0.40134 0.0
C809 C 0.20816 0.68443 0.40903 0.0
C810 C 0.26423 0.68572 0.41994 0.0
C811 C 0.29285 0.71481 0.42222 0.0
C812 C 0.26475 0.74255 0.41388 0.0
C813 C 0.20961 0.74199 0.40405 0.0
C814 C 0.18947 0.77505 0.39556 0.0
C815 C 0.17176 0.77689 0.36022 0.0
C816 C 0.14173 0.78529 0.41784 0.0
C817 C 0.24213 0.79427 0.40165 0.0
C818 C 0.28517 0.77506 0.41208 0.0
C819 C 0.33884 0.78709 0.41719 0.0
C820 C 0.34878 0.81948 0.41145 0.0
C821 C 0.30518 0.83969 0.40108 0.0
C822 C 0.25106 0.82681 0.39644 0.0
H823 H 0.72716 0.18752 0.13057 0.0
H824 H 0.89348 0.19558 0.08996 0.0
H825 H 0.87758 0.25267 0.07971 0.0
H826 H 0.6569 0.24539 0.07852 0.0
H827 H 0.61485 0.2607 0.11072 0.0
H828 H 0.63703 0.21992 0.11134 0.0
H829 H 0.68172 0.22854 0.16711 0.0
H830 H 0.65997 0.26934 0.16657 0.0
H831 H 0.73263 0.25972 0.17232 0.0
H832 H 0.84467 0.30989 0.07631 0.0
H833 H 0.79975 0.36229 0.08254 0.0
H834 H 0.65713 0.31693 0.128 0.0
C835 C 0.7597 0.20109 0.11874 0.0
C836 C 0.81123 0.18692 0.11049 0.0
C837 C 0.85345 0.20583 0.09612 0.0
C838 C 0.84477 0.23828 0.0902 0.0
C839 C 0.79383 0.25164 0.09912 0.0
C840 C 0.75209 0.23362 0.11321 0.0
C841 C 0.70303 0.25412 0.12298 0.0
C842 C 0.6498 0.24445 0.1048 0.0
C843 C 0.69383 0.25285 0.1594 0.0
C844 C 0.72373 0.2865 0.11239 0.0
C845 C 0.77588 0.28458 0.09832 0.0
C846 C 0.80372 0.31159 0.08717 0.0
C847 C 0.77782 0.34128 0.09076 0.0
C848 C 0.72488 0.34384 0.10574 0.0
C849 C 0.69759 0.3159 0.11642 0.0
H850 H 0.64702 0.20363 0.62733 0.0
H851 H 0.79182 0.15164 0.59376 0.0
H852 H 0.84365 0.20212 0.58752 0.0
H853 H 0.66468 0.27247 0.57445 0.0
H854 H 0.64169 0.30005 0.60453 0.0
H855 H 0.6152 0.26 0.60454 0.0
H856 H 0.64822 0.25279 0.6631 0.0
H857 H 0.67491 0.29275 0.66326 0.0
H858 H 0.72043 0.26018 0.67303 0.0
H859 H 0.88245 0.25823 0.58958 0.0
H860 H 0.90311 0.31525 0.59696 0.0
H861 H 0.73175 0.33081 0.62691 0.0
C862 C 0.68939 0.20282 0.61823 0.0
C863 C 0.71521 0.17353 0.61093 0.0
C864 C 0.77087 0.17368 0.59928 0.0
C865 C 0.80074 0.20228 0.59574 0.0
C866 C 0.77428 0.23065 0.6036 0.0
C867 C 0.71961 0.23114 0.61428 0.0
C868 C 0.70121 0.26467 0.62191 0.0
C869 C 0.65283 0.2749 0.60004 0.0
C870 C 0.68527 0.26777 0.65743 0.0
C871 C 0.75428 0.28299 0.61431 0.0
C872 C 0.79604 0.26294 0.60387 0.0
C873 C 0.84977 0.27417 0.59726 0.0
C874 C 0.86116 0.30662 0.60155 0.0
C875 C 0.81892 0.32766 0.61205 0.0
C876 C 0.76467 0.31555 0.61818 0.0
H877 H 0.38817 0.7107 0.88586 0.0
H878 H 0.2553 0.66548 0.94036 0.0
H879 H 0.21087 0.71766 0.94825 0.0
H880 H 0.39482 0.78455 0.93259 0.0
H881 H 0.40736 0.80872 0.89767 0.0
H882 H 0.43127 0.76825 0.89868 0.0
H883 H 0.37676 0.7565 0.84649 0.0
H884 H 0.35273 0.79687 0.8453 0.0
H885 H 0.30292 0.76471 0.84474 0.0
H886 H 0.17629 0.77385 0.94592 0.0
H887 H 0.15462 0.82985 0.93426 0.0
H888 H 0.31088 0.83928 0.88234 0.0
C889 C 0.35026 0.71176 0.89998 0.0
C890 C 0.32548 0.68385 0.91269 0.0
C891 C 0.27538 0.68642 0.93057 0.0
C892 C 0.24981 0.71601 0.93519 0.0
C893 C 0.27494 0.74293 0.92195 0.0
C894 C 0.32423 0.74111 0.90485 0.0
C895 C 0.34103 0.77335 0.89166 0.0
C896 C 0.39694 0.78436 0.90601 0.0
C897 C 0.34348 0.77281 0.85487 0.0
C898 C 0.29295 0.79356 0.90352 0.0
C899 C 0.25541 0.7755 0.92104 0.0
C900 C 0.20583 0.78829 0.93269 0.0
C901 C 0.19388 0.82016 0.92593 0.0
C902 C 0.23142 0.83912 0.90781 0.0
C903 C 0.28206 0.82566 0.89694 0.0
loop_
_geom_bond_atom_site_label_1
_geom_bond_atom_site_label_2
_geom_bond_distance
_geom_bond_site_symmetry_2
_ccdc_geom_bond_type
Co0 O2 2.143 . S
Co0 O8 2.074 . S
Co0 O11 2.093 . S
Co0 O24 2.097 . S
Co0 N41 2.151 . S
Co0 N49 2.214 . S
Co1 O2 2.160 . S
Co1 O7 2.058 . S
Co1 O17 2.057 . S
Co1 O32 2.037 . S
Co1 N36 2.145 . S
Co1 N57 2.257 . S
O2 Co0 2.143 . S
O2 Co1 2.160 . S
C3 O4 1.278 . S
C3 O11 1.224 . S
O4 C3 1.278 . S
C5 O6 1.245 . S
C5 O17 1.232 . S
O6 C5 1.245 . S
O7 Co1 2.058 . S
O7 C33 1.269 . S
O8 Co0 2.074 . S
O8 C33 1.257 . S
H9 C34 0.930 . S
H10 C40 0.930 . S
O11 Co0 2.093 . S
O11 C3 1.224 . S
H12 C44 0.929 . S
H13 C46 0.930 . S
H14 C47 0.930 . S
H15 C45 0.929 . S
H16 C48 0.928 . S
O17 Co1 2.057 . S
O17 C5 1.232 . S
H18 C37 0.929 . S
H19 C38 0.929 . S
H20 C50 0.931 . S
H21 C42 0.929 . S
H22 C51 0.930 . S
H23 C43 0.931 . S
O24 Co0 2.097 . S
O24 C52 1.214 . S
H25 C53 0.929 . S
H26 C54 0.929 . S
H27 C55 0.930 . S
H28 C56 0.929 . S
H29 C58 0.930 . S
H30 C35 0.930 . S
H31 C39 0.930 . S
O32 Co1 2.037 . S
O32 C52 1.234 . S
C33 O7 1.269 . S
C33 O8 1.257 . S
C34 H9 0.930 . S
C34 C37 1.388 . S
C34 C39 1.418 . S
C35 H30 0.930 . S
C35 C38 1.404 1_655 S
C35 C39 1.353 . S
N36 Co1 2.145 . S
N36 C37 1.397 1_455 S
N36 C38 1.334 . S
C37 H18 0.929 . S
C37 C34 1.388 . S
C37 N36 1.397 1_655 S
C38 H19 0.929 . S
C38 C35 1.404 1_455 S
C38 N36 1.334 . S
C39 H31 0.930 . S
C39 C34 1.418 . S
C39 C35 1.353 . S
C40 H10 0.930 . S
C40 N41 1.330 . S
C40 C42 1.446 . S
N41 Co0 2.151 . S
N41 C40 1.330 . S
N41 C45 1.418 . S
C42 H21 0.929 . S
C42 C40 1.446 . S
C42 C43 1.332 . S
C43 H23 0.931 . S
C43 C42 1.332 . S
C43 C44 1.267 . S
C44 H12 0.929 . S
C44 C43 1.267 . S
C44 C45 1.251 . S
C45 H15 0.929 . S
C45 N41 1.418 . S
C45 C44 1.251 . S
C46 H13 0.930 . S
C46 C48 1.406 . S
C46 C51 1.261 . S
C47 H14 0.930 . S
C47 N49 1.325 . S
C47 C50 1.357 . S
C48 H16 0.928 . S
C48 C46 1.406 . S
C48 N49 1.261 . S
N49 Co0 2.214 . S
N49 C47 1.325 . S
N49 C48 1.261 . S
C50 H20 0.931 . S
C50 C47 1.357 . S
C50 C51 1.312 . S
C51 H22 0.930 . S
C51 C46 1.261 . S
C51 C50 1.312 . S
C52 O24 1.214 . S
C52 O32 1.234 . S
C53 H25 0.929 . S
C53 C56 1.391 . S
C53 C58 1.391 . S
C54 H26 0.929 . S
C54 C55 1.390 . S
C54 N57 1.391 . S
C55 H27 0.930 . S
C55 C54 1.390 . S
C55 C56 1.392 . S
C56 H28 0.929 . S
C56 C53 1.391 . S
C56 C55 1.392 . S
N57 Co1 2.257 . S
N57 C54 1.391 . S
N57 C58 1.388 . S
C58 H29 0.930 . S
C58 C53 1.391 . S
C58 N57 1.388 . S
Co59 O61 2.143 . S
Co59 O67 2.074 . S
Co59 O70 2.093 . S
Co59 O83 2.097 . S
Co59 N100 2.151 . S
Co59 N108 2.214 1_565 S
Co60 O61 2.160 . S
Co60 O66 2.058 . S
Co60 O76 2.057 . S
Co60 O91 2.037 . S
Co60 N95 2.145 . S
Co60 N116 2.257 . S
O61 Co59 2.143 . S
O61 Co60 2.160 . S
C62 O63 1.278 . S
C62 O70 1.224 . S
O63 C62 1.278 . S
C64 O65 1.245 . S
C64 O76 1.232 . S
O65 C64 1.245 . S
O66 Co60 2.058 . S
O66 C92 1.269 . S
O67 Co59 2.074 . S
O67 C92 1.257 . S
H68 C93 0.930 . S
H69 C99 0.930 . S
O70 Co59 2.093 . S
O70 C62 1.224 . S
H71 C103 0.929 . S
H72 C105 0.930 . S
H73 C106 0.930 . S
H74 C104 0.929 1_545 S
H75 C107 0.928 . S
O76 Co60 2.057 . S
O76 C64 1.232 . S
H77 C96 0.929 . S
H78 C97 0.929 . S
H79 C109 0.931 . S
H80 C101 0.929 . S
H81 C110 0.930 . S
H82 C102 0.931 . S
O83 Co59 2.097 . S
O83 C111 1.214 . S
H84 C112 0.929 . S
H85 C113 0.929 . S
H86 C114 0.930 . S
H87 C115 0.929 . S
H88 C117 0.930 . S
H89 C94 0.930 . S
H90 C98 0.930 . S
O91 Co60 2.037 . S
O91 C111 1.234 . S
C92 O66 1.269 . S
C92 O67 1.257 . S
C93 H68 0.930 . S
C93 C96 1.388 . S
C93 C98 1.418 . S
C94 H89 0.930 . S
C94 C97 1.404 . S
C94 C98 1.353 . S
N95 Co60 2.145 . S
N95 C96 1.397 . S
N95 C97 1.334 . S
C96 H77 0.929 . S
C96 C93 1.388 . S
C96 N95 1.397 . S
C97 H78 0.929 . S
C97 C94 1.404 . S
C97 N95 1.334 . S
C98 H90 0.930 . S
C98 C93 1.418 . S
C98 C94 1.353 . S
C99 H69 0.930 . S
C99 N100 1.330 . S
C99 C101 1.446 . S
N100 Co59 2.151 . S
N100 C99 1.330 . S
N100 C104 1.418 . S
C101 H80 0.929 . S
C101 C99 1.446 . S
C101 C102 1.332 . S
C102 H82 0.931 . S
C102 C101 1.332 . S
C102 C103 1.267 1_565 S
C103 H71 0.929 . S
C103 C102 1.267 1_545 S
C103 C104 1.251 1_545 S
C104 H74 0.929 1_565 S
C104 N100 1.418 . S
C104 C103 1.251 1_565 S
C105 H72 0.930 . S
C105 C107 1.406 . S
C105 C110 1.261 . S
C106 H73 0.930 . S
C106 N108 1.325 . S
C106 C109 1.357 . S
C107 H75 0.928 . S
C107 C105 1.406 . S
C107 N108 1.261 . S
N108 Co59 2.214 1_545 S
N108 C106 1.325 . S
N108 C107 1.261 . S
C109 H79 0.931 . S
C109 C106 1.357 . S
C109 C110 1.312 . S
C110 H81 0.930 . S
C110 C105 1.261 . S
C110 C109 1.312 . S
C111 O83 1.214 . S
C111 O91 1.234 . S
C112 H84 0.929 . S
C112 C115 1.391 . S
C112 C117 1.391 . S
C113 H85 0.929 . S
C113 C114 1.390 . S
C113 N116 1.391 . S
C114 H86 0.930 . S
C114 C113 1.390 . S
C114 C115 1.392 . S
C115 H87 0.929 . S
C115 C112 1.391 . S
C115 C114 1.392 . S
N116 Co60 2.257 . S
N116 C113 1.391 . S
N116 C117 1.388 . S
C117 H88 0.930 . S
C117 C112 1.391 . S
C117 N116 1.388 . S
Co118 O120 2.143 . S
Co118 O126 2.074 . S
Co118 O129 2.093 . S
Co118 O142 2.097 . S
Co118 N159 2.151 . S
Co118 N167 2.214 . S
Co119 O120 2.160 . S
Co119 O125 2.058 . S
Co119 O135 2.057 . S
Co119 O150 2.037 . S
Co119 N154 2.145 . S
Co119 N175 2.257 . S
O120 Co118 2.143 . S
O120 Co119 2.160 . S
C121 O122 1.278 . S
C121 O129 1.224 . S
O122 C121 1.278 . S
C123 O124 1.245 . S
C123 O135 1.232 . S
O124 C123 1.245 . S
O125 Co119 2.058 . S
O125 C151 1.269 . S
O126 Co118 2.074 . S
O126 C151 1.257 . S
H127 C152 0.930 . S
H128 C158 0.930 . S
O129 Co118 2.093 . S
O129 C121 1.224 . S
H130 C162 0.929 . S
H131 C164 0.930 . S
H132 C165 0.930 . S
H133 C163 0.929 . S
H134 C166 0.928 . S
O135 Co119 2.057 . S
O135 C123 1.232 . S
H136 C155 0.929 . S
H137 C156 0.929 . S
H138 C168 0.931 . S
H139 C160 0.929 . S
H140 C169 0.930 . S
H141 C161 0.931 . S
O142 Co118 2.097 . S
O142 C170 1.214 . S
H143 C171 0.929 . S
H144 C172 0.929 . S
H145 C173 0.930 . S
H146 C174 0.929 . S
H147 C176 0.930 . S
H148 C153 0.930 . S
H149 C157 0.930 . S
O150 Co119 2.037 . S
O150 C170 1.234 . S
C151 O125 1.269 . S
C151 O126 1.257 . S
C152 H127 0.930 . S
C152 C155 1.388 . S
C152 C157 1.418 . S
C153 H148 0.930 . S
C153 C156 1.404 . S
C153 C157 1.353 . S
N154 Co119 2.145 . S
N154 C155 1.397 . S
N154 C156 1.334 . S
C155 H136 0.929 . S
C155 C152 1.388 . S
C155 N154 1.397 . S
C156 H137 0.929 . S
C156 C153 1.404 . S
C156 N154 1.334 . S
C157 H149 0.930 . S
C157 C152 1.418 . S
C157 C153 1.353 . S
C158 H128 0.930 . S
C158 N159 1.330 . S
C158 C160 1.446 . S
N159 Co118 2.151 . S
N159 C158 1.330 . S
N159 C163 1.418 . S
C160 H139 0.929 . S
C160 C158 1.446 . S
C160 C161 1.332 . S
C161 H141 0.931 . S
C161 C160 1.332 . S
C161 C162 1.267 . S
C162 H130 0.929 . S
C162 C161 1.267 . S
C162 C163 1.251 . S
C163 H133 0.929 . S
C163 N159 1.418 . S
C163 C162 1.251 . S
C164 H131 0.930 . S
C164 C166 1.406 . S
C164 C169 1.261 . S
C165 H132 0.930 . S
C165 N167 1.325 . S
C165 C168 1.357 . S
C166 H134 0.928 . S
C166 C164 1.406 . S
C166 N167 1.261 . S
N167 Co118 2.214 . S
N167 C165 1.325 . S
N167 C166 1.261 . S
C168 H138 0.931 . S
C168 C165 1.357 . S
C168 C169 1.312 . S
C169 H140 0.930 . S
C169 C164 1.261 . S
C169 C168 1.312 . S
C170 O142 1.214 . S
C170 O150 1.234 . S
C171 H143 0.929 . S
C171 C174 1.391 . S
C171 C176 1.391 . S
C172 H144 0.929 . S
C172 C173 1.390 . S
C172 N175 1.391 . S
C173 H145 0.930 . S
C173 C172 1.390 . S
C173 C174 1.392 . S
C174 H146 0.929 . S
C174 C171 1.391 . S
C174 C173 1.392 . S
N175 Co119 2.257 . S
N175 C172 1.391 . S
N175 C176 1.388 . S
C176 H147 0.930 . S
C176 C171 1.391 . S
C176 N175 1.388 . S
Co177 O179 2.143 . S
Co177 O185 2.074 . S
Co177 O188 2.093 . S
Co177 O201 2.097 . S
Co177 N218 2.151 . S
Co177 N226 2.214 1_545 S
Co178 O179 2.160 . S
Co178 O184 2.058 . S
Co178 O194 2.057 . S
Co178 O209 2.037 . S
Co178 N213 2.145 . S
Co178 N234 2.257 . S
O179 Co177 2.143 . S
O179 Co178 2.160 . S
C180 O181 1.278 . S
C180 O188 1.224 . S
O181 C180 1.278 . S
C182 O183 1.245 . S
C182 O194 1.232 . S
O183 C182 1.245 . S
O184 Co178 2.058 . S
O184 C210 1.269 . S
O185 Co177 2.074 . S
O185 C210 1.257 . S
H186 C211 0.930 . S
H187 C217 0.930 . S
O188 Co177 2.093 . S
O188 C180 1.224 . S
H189 C221 0.929 . S
H190 C223 0.930 . S
H191 C224 0.930 . S
H192 C222 0.929 1_565 S
H193 C225 0.928 . S
O194 Co178 2.057 . S
O194 C182 1.232 . S
H195 C214 0.929 . S
H196 C215 0.929 . S
H197 C227 0.931 . S
H198 C219 0.929 . S
H199 C228 0.930 . S
H200 C220 0.931 . S
O201 Co177 2.097 . S
O201 C229 1.214 . S
H202 C230 0.929 . S
H203 C231 0.929 . S
H204 C232 0.930 . S
H205 C233 0.929 . S
H206 C235 0.930 . S
H207 C212 0.930 . S
H208 C216 0.930 . S
O209 Co178 2.037 . S
O209 C229 1.234 . S
C210 O184 1.269 . S
C210 O185 1.257 . S
C211 H186 0.930 . S
C211 C214 1.388 . S
C211 C216 1.418 . S
C212 H207 0.930 . S
C212 C215 1.404 1_455 S
C212 C216 1.353 . S
N213 Co178 2.145 . S
N213 C214 1.397 1_655 S
N213 C215 1.334 . S
C214 H195 0.929 . S
C214 C211 1.388 . S
C214 N213 1.397 1_455 S
C215 H196 0.929 . S
C215 C212 1.404 1_655 S
C215 N213 1.334 . S
C216 H208 0.930 . S
C216 C211 1.418 . S
C216 C212 1.353 . S
C217 H187 0.930 . S
C217 N218 1.330 . S
C217 C219 1.446 . S
N218 Co177 2.151 . S
N218 C217 1.330 . S
N218 C222 1.418 . S
C219 H198 0.929 . S
C219 C217 1.446 . S
C219 C220 1.332 . S
C220 H200 0.931 . S
C220 C219 1.332 . S
C220 C221 1.267 1_545 S
C221 H189 0.929 . S
C221 C220 1.267 1_565 S
C221 C222 1.251 1_565 S
C222 H192 0.929 1_545 S
C222 N218 1.418 . S
C222 C221 1.251 1_545 S
C223 H190 0.930 . S
C223 C225 1.406 . S
C223 C228 1.261 . S
C224 H191 0.930 . S
C224 N226 1.325 . S
C224 C227 1.357 . S
C225 H193 0.928 . S
C225 C223 1.406 . S
C225 N226 1.261 . S
N226 Co177 2.214 1_565 S
N226 C224 1.325 . S
N226 C225 1.261 . S
C227 H197 0.931 . S
C227 C224 1.357 . S
C227 C228 1.312 . S
C228 H199 0.930 . S
C228 C223 1.261 . S
C228 C227 1.312 . S
C229 O201 1.214 . S
C229 O209 1.234 . S
C230 H202 0.929 . S
C230 C233 1.391 . S
C230 C235 1.391 . S
C231 H203 0.929 . S
C231 C232 1.390 . S
C231 N234 1.391 . S
C232 H204 0.930 . S
C232 C231 1.390 . S
C232 C233 1.392 . S
C233 H205 0.929 . S
C233 C230 1.391 . S
C233 C232 1.392 . S
N234 Co178 2.257 . S
N234 C231 1.391 . S
N234 C235 1.388 . S
C235 H206 0.930 . S
C235 C230 1.391 . S
C235 N234 1.388 . S
Co236 O238 2.143 . S
Co236 O244 2.074 . S
Co236 O247 2.093 . S
Co236 O260 2.097 . S
Co236 N277 2.151 . S
Co236 N285 2.214 . S
Co237 O238 2.160 . S
Co237 O243 2.058 . S
Co237 O253 2.057 . S
Co237 O268 2.037 . S
Co237 N272 2.145 . S
Co237 N293 2.257 . S
O238 Co236 2.143 . S
O238 Co237 2.160 . S
C239 O240 1.278 . S
C239 O247 1.224 . S
O240 C239 1.278 . S
C241 O242 1.245 . S
C241 O253 1.232 . S
O242 C241 1.245 . S
O243 Co237 2.058 . S
O243 C269 1.269 . S
O244 Co236 2.074 . S
O244 C269 1.257 . S
H245 C270 0.930 . S
H246 C276 0.930 . S
O247 Co236 2.093 . S
O247 C239 1.224 . S
H248 C280 0.929 . S
H249 C282 0.930 . S
H250 C283 0.930 . S
H251 C281 0.929 . S
H252 C284 0.928 . S
O253 Co237 2.057 . S
O253 C241 1.232 . S
H254 C273 0.929 . S
H255 C274 0.929 . S
H256 C286 0.931 . S
H257 C278 0.929 . S
H258 C287 0.930 . S
H259 C279 0.931 . S
O260 Co236 2.097 . S
O260 C288 1.214 . S
H261 C289 0.929 . S
H262 C290 0.929 . S
H263 C291 0.930 . S
H264 C292 0.929 . S
H265 C294 0.930 . S
H266 C271 0.930 . S
H267 C275 0.930 . S
O268 Co237 2.037 . S
O268 C288 1.234 . S
C269 O243 1.269 . S
C269 O244 1.257 . S
C270 H245 0.930 . S
C270 C273 1.388 . S
C270 C275 1.418 . S
C271 H266 0.930 . S
C271 C274 1.404 1_455 S
C271 C275 1.353 . S
N272 Co237 2.145 . S
N272 C273 1.397 1_655 S
N272 C274 1.334 . S
C273 H254 0.929 . S
C273 C270 1.388 . S
C273 N272 1.397 1_455 S
C274 H255 0.929 . S
C274 C271 1.404 1_655 S
C274 N272 1.334 . S
C275 H267 0.930 . S
C275 C270 1.418 . S
C275 C271 1.353 . S
C276 H246 0.930 . S
C276 N277 1.330 . S
C276 C278 1.446 . S
N277 Co236 2.151 . S
N277 C276 1.330 . S
N277 C281 1.418 . S
C278 H257 0.929 . S
C278 C276 1.446 . S
C278 C279 1.332 . S
C279 H259 0.931 . S
C279 C278 1.332 . S
C279 C280 1.267 . S
C280 H248 0.929 . S
C280 C279 1.267 . S
C280 C281 1.251 . S
C281 H251 0.929 . S
C281 N277 1.418 . S
C281 C280 1.251 . S
C282 H249 0.930 . S
C282 C284 1.406 . S
C282 C287 1.261 . S
C283 H250 0.930 . S
C283 N285 1.325 . S
C283 C286 1.357 . S
C284 H252 0.928 . S
C284 C282 1.406 . S
C284 N285 1.261 . S
N285 Co236 2.214 . S
N285 C283 1.325 . S
N285 C284 1.261 . S
C286 H256 0.931 . S
C286 C283 1.357 . S
C286 C287 1.312 . S
C287 H258 0.930 . S
C287 C282 1.261 . S
C287 C286 1.312 . S
C288 O260 1.214 . S
C288 O268 1.234 . S
C289 H261 0.929 . S
C289 C292 1.391 . S
C289 C294 1.391 . S
C290 H262 0.929 . S
C290 C291 1.390 . S
C290 N293 1.391 . S
C291 H263 0.930 . S
C291 C290 1.390 . S
C291 C292 1.392 . S
C292 H264 0.929 . S
C292 C289 1.391 . S
C292 C291 1.392 . S
N293 Co237 2.257 . S
N293 C290 1.391 . S
N293 C294 1.388 . S
C294 H265 0.930 . S
C294 C289 1.391 . S
C294 N293 1.388 . S
Co295 O297 2.143 . S
Co295 O303 2.074 . S
Co295 O306 2.093 . S
Co295 O319 2.097 . S
Co295 N336 2.151 . S
Co295 N344 2.214 1_545 S
Co296 O297 2.160 . S
Co296 O302 2.058 . S
Co296 O312 2.057 . S
Co296 O327 2.037 . S
Co296 N331 2.145 . S
Co296 N352 2.257 . S
O297 Co295 2.143 . S
O297 Co296 2.160 . S
C298 O299 1.278 . S
C298 O306 1.224 . S
O299 C298 1.278 . S
C300 O301 1.245 . S
C300 O312 1.232 . S
O301 C300 1.245 . S
O302 Co296 2.058 . S
O302 C328 1.269 . S
O303 Co295 2.074 . S
O303 C328 1.257 . S
H304 C329 0.930 . S
H305 C335 0.930 . S
O306 Co295 2.093 . S
O306 C298 1.224 . S
H307 C339 0.929 . S
H308 C341 0.930 . S
H309 C342 0.930 . S
H310 C340 0.929 1_565 S
H311 C343 0.928 . S
O312 Co296 2.057 . S
O312 C300 1.232 . S
H313 C332 0.929 . S
H314 C333 0.929 . S
H315 C345 0.931 . S
H316 C337 0.929 . S
H317 C346 0.930 . S
H318 C338 0.931 . S
O319 Co295 2.097 . S
O319 C347 1.214 . S
H320 C348 0.929 . S
H321 C349 0.929 . S
H322 C350 0.930 . S
H323 C351 0.929 . S
H324 C353 0.930 . S
H325 C330 0.930 . S
H326 C334 0.930 . S
O327 Co296 2.037 . S
O327 C347 1.234 . S
C328 O302 1.269 . S
C328 O303 1.257 . S
C329 H304 0.930 . S
C329 C332 1.388 . S
C329 C334 1.418 . S
C330 H325 0.930 . S
C330 C333 1.404 . S
C330 C334 1.353 . S
N331 Co296 2.145 . S
N331 C332 1.397 . S
N331 C333 1.334 . S
C332 H313 0.929 . S
C332 C329 1.388 . S
C332 N331 1.397 . S
C333 H314 0.929 . S
C333 C330 1.404 . S
C333 N331 1.334 . S
C334 H326 0.930 . S
C334 C329 1.418 . S
C334 C330 1.353 . S
C335 H305 0.930 . S
C335 N336 1.330 . S
C335 C337 1.446 . S
N336 Co295 2.151 . S
N336 C335 1.330 . S
N336 C340 1.418 . S
C337 H316 0.929 . S
C337 C335 1.446 . S
C337 C338 1.332 . S
C338 H318 0.931 . S
C338 C337 1.332 . S
C338 C339 1.267 1_545 S
C339 H307 0.929 . S
C339 C338 1.267 1_565 S
C339 C340 1.251 1_565 S
C340 H310 0.929 1_545 S
C340 N336 1.418 . S
C340 C339 1.251 1_545 S
C341 H308 0.930 . S
C341 C343 1.406 . S
C341 C346 1.261 . S
C342 H309 0.930 . S
C342 N344 1.325 . S
C342 C345 1.357 . S
C343 H311 0.928 . S
C343 C341 1.406 . S
C343 N344 1.261 . S
N344 Co295 2.214 1_565 S
N344 C342 1.325 . S
N344 C343 1.261 . S
C345 H315 0.931 . S
C345 C342 1.357 . S
C345 C346 1.312 . S
C346 H317 0.930 . S
C346 C341 1.261 . S
C346 C345 1.312 . S
C347 O319 1.214 . S
C347 O327 1.234 . S
C348 H320 0.929 . S
C348 C351 1.391 . S
C348 C353 1.391 . S
C349 H321 0.929 . S
C349 C350 1.390 . S
C349 N352 1.391 . S
C350 H322 0.930 . S
C350 C349 1.390 . S
C350 C351 1.392 . S
C351 H323 0.929 . S
C351 C348 1.391 . S
C351 C350 1.392 . S
N352 Co296 2.257 . S
N352 C349 1.391 . S
N352 C353 1.388 . S
C353 H324 0.930 . S
C353 C348 1.391 . S
C353 N352 1.388 . S
Co354 O356 2.143 . S
Co354 O362 2.074 . S
Co354 O365 2.093 . S
Co354 O378 2.097 . S
Co354 N395 2.151 . S
Co354 N403 2.214 . S
Co355 O356 2.160 . S
Co355 O361 2.058 . S
Co355 O371 2.057 . S
Co355 O386 2.037 . S
Co355 N390 2.145 . S
Co355 N411 2.257 . S
O356 Co354 2.143 . S
O356 Co355 2.160 . S
C357 O358 1.278 . S
C357 O365 1.224 . S
O358 C357 1.278 . S
C359 O360 1.245 . S
C359 O371 1.232 . S
O360 C359 1.245 . S
O361 Co355 2.058 . S
O361 C387 1.269 . S
O362 Co354 2.074 . S
O362 C387 1.257 . S
H363 C388 0.930 . S
H364 C394 0.930 . S
O365 Co354 2.093 . S
O365 C357 1.224 . S
H366 C398 0.929 . S
H367 C400 0.930 . S
H368 C401 0.930 . S
H369 C399 0.929 . S
H370 C402 0.928 . S
O371 Co355 2.057 . S
O371 C359 1.232 . S
H372 C391 0.929 . S
H373 C392 0.929 . S
H374 C404 0.931 . S
H375 C396 0.929 . S
H376 C405 0.930 . S
H377 C397 0.931 . S
O378 Co354 2.097 . S
O378 C406 1.214 . S
H379 C407 0.929 . S
H380 C408 0.929 . S
H381 C409 0.930 . S
H382 C410 0.929 . S
H383 C412 0.930 . S
H384 C389 0.930 . S
H385 C393 0.930 . S
O386 Co355 2.037 . S
O386 C406 1.234 . S
C387 O361 1.269 . S
C387 O362 1.257 . S
C388 H363 0.930 . S
C388 C391 1.388 . S
C388 C393 1.418 . S
C389 H384 0.930 . S
C389 C392 1.404 . S
C389 C393 1.353 . S
N390 Co355 2.145 . S
N390 C391 1.397 . S
N390 C392 1.334 . S
C391 H372 0.929 . S
C391 C388 1.388 . S
C391 N390 1.397 . S
C392 H373 0.929 . S
C392 C389 1.404 . S
C392 N390 1.334 . S
C393 H385 0.930 . S
C393 C388 1.418 . S
C393 C389 1.353 . S
C394 H364 0.930 . S
C394 N395 1.330 . S
C394 C396 1.446 . S
N395 Co354 2.151 . S
N395 C394 1.330 . S
N395 C399 1.418 . S
C396 H375 0.929 . S
C396 C394 1.446 . S
C396 C397 1.332 . S
C397 H377 0.931 . S
C397 C396 1.332 . S
C397 C398 1.267 . S
C398 H366 0.929 . S
C398 C397 1.267 . S
C398 C399 1.251 . S
C399 H369 0.929 . S
C399 N395 1.418 . S
C399 C398 1.251 . S
C400 H367 0.930 . S
C400 C402 1.406 . S
C400 C405 1.261 . S
C401 H368 0.930 . S
C401 N403 1.325 . S
C401 C404 1.357 . S
C402 H370 0.928 . S
C402 C400 1.406 . S
C402 N403 1.261 . S
N403 Co354 2.214 . S
N403 C401 1.325 . S
N403 C402 1.261 . S
C404 H374 0.931 . S
C404 C401 1.357 . S
C404 C405 1.312 . S
C405 H376 0.930 . S
C405 C400 1.261 . S
C405 C404 1.312 . S
C406 O378 1.214 . S
C406 O386 1.234 . S
C407 H379 0.929 . S
C407 C410 1.391 . S
C407 C412 1.391 . S
C408 H380 0.929 . S
C408 C409 1.390 . S
C408 N411 1.391 . S
C409 H381 0.930 . S
C409 C408 1.390 . S
C409 C410 1.392 . S
C410 H382 0.929 . S
C410 C407 1.391 . S
C410 C409 1.392 . S
N411 Co355 2.257 . S
N411 C408 1.391 . S
N411 C412 1.388 . S
C412 H383 0.930 . S
C412 C407 1.391 . S
C412 N411 1.388 . S
Co413 O415 2.143 . S
Co413 O421 2.074 . S
Co413 O424 2.093 . S
Co413 O437 2.097 . S
Co413 N454 2.151 . S
Co413 N462 2.214 1_565 S
Co414 O415 2.160 . S
Co414 O420 2.058 . S
Co414 O430 2.057 . S
Co414 O445 2.037 . S
Co414 N449 2.145 . S
Co414 N470 2.257 . S
O415 Co413 2.143 . S
O415 Co414 2.160 . S
C416 O417 1.278 . S
C416 O424 1.224 . S
O417 C416 1.278 . S
C418 O419 1.245 . S
C418 O430 1.232 . S
O419 C418 1.245 . S
O420 Co414 2.058 . S
O420 C446 1.269 . S
O421 Co413 2.074 . S
O421 C446 1.257 . S
H422 C447 0.930 . S
H423 C453 0.930 . S
O424 Co413 2.093 . S
O424 C416 1.224 . S
H425 C457 0.929 . S
H426 C459 0.930 . S
H427 C460 0.930 . S
H428 C458 0.929 1_545 S
H429 C461 0.928 . S
O430 Co414 2.057 . S
O430 C418 1.232 . S
H431 C450 0.929 . S
H432 C451 0.929 . S
H433 C463 0.931 . S
H434 C455 0.929 . S
H435 C464 0.930 . S
H436 C456 0.931 . S
O437 Co413 2.097 . S
O437 C465 1.214 . S
H438 C466 0.929 . S
H439 C467 0.929 . S
H440 C468 0.930 . S
H441 C469 0.929 . S
H442 C471 0.930 . S
H443 C448 0.930 . S
H444 C452 0.930 . S
O445 Co414 2.037 . S
O445 C465 1.234 . S
C446 O420 1.269 . S
C446 O421 1.257 . S
C447 H422 0.930 . S
C447 C450 1.388 . S
C447 C452 1.418 . S
C448 H443 0.930 . S
C448 C451 1.404 1_655 S
C448 C452 1.353 . S
N449 Co414 2.145 . S
N449 C450 1.397 1_455 S
N449 C451 1.334 . S
C450 H431 0.929 . S
C450 C447 1.388 . S
C450 N449 1.397 1_655 S
C451 H432 0.929 . S
C451 C448 1.404 1_455 S
C451 N449 1.334 . S
C452 H444 0.930 . S
C452 C447 1.418 . S
C452 C448 1.353 . S
C453 H423 0.930 . S
C453 N454 1.330 . S
C453 C455 1.446 . S
N454 Co413 2.151 . S
N454 C453 1.330 . S
N454 C458 1.418 . S
C455 H434 0.929 . S
C455 C453 1.446 . S
C455 C456 1.332 . S
C456 H436 0.931 . S
C456 C455 1.332 . S
C456 C457 1.267 1_565 S
C457 H425 0.929 . S
C457 C456 1.267 1_545 S
C457 C458 1.251 1_545 S
C458 H428 0.929 1_565 S
C458 N454 1.418 . S
C458 C457 1.251 1_565 S
C459 H426 0.930 . S
C459 C461 1.406 . S
C459 C464 1.261 . S
C460 H427 0.930 . S
C460 N462 1.325 . S
C460 C463 1.357 . S
C461 H429 0.928 . S
C461 C459 1.406 . S
C461 N462 1.261 . S
N462 Co413 2.214 1_545 S
N462 C460 1.325 . S
N462 C461 1.261 . S
C463 H433 0.931 . S
C463 C460 1.357 . S
C463 C464 1.312 . S
C464 H435 0.930 . S
C464 C459 1.261 . S
C464 C463 1.312 . S
C465 O437 1.214 . S
C465 O445 1.234 . S
C466 H438 0.929 . S
C466 C469 1.391 . S
C466 C471 1.391 . S
C467 H439 0.929 . S
C467 C468 1.390 . S
C467 N470 1.391 . S
C468 H440 0.930 . S
C468 C467 1.390 . S
C468 C469 1.392 . S
C469 H441 0.929 . S
C469 C466 1.391 . S
C469 C468 1.392 . S
N470 Co414 2.257 . S
N470 C467 1.391 . S
N470 C471 1.388 . S
C471 H442 0.930 . S
C471 C466 1.391 . S
C471 N470 1.388 . S
H472 C484 0.930 . S
H473 C486 0.930 . S
H474 C487 0.930 . S
H475 C491 0.959 . S
H476 C491 0.959 . S
H477 C491 0.961 . S
H478 C492 0.960 . S
H479 C492 0.961 . S
H480 C492 0.959 . S
H481 C495 0.929 . S
H482 C496 0.931 . S
H483 C498 0.930 . S
C484 H472 0.930 . S
C484 C485 1.399 . S
C484 C489 1.399 . S
C485 C484 1.399 . S
C485 C486 1.376 . S
C486 H473 0.930 . S
C486 C485 1.376 . S
C486 C487 1.388 . S
C487 H474 0.930 . S
C487 C486 1.388 . S
C487 C488 1.390 . S
C488 C487 1.390 . S
C488 C489 1.394 . S
C488 C494 1.465 . S
C489 C484 1.399 . S
C489 C488 1.394 . S
C489 C490 1.516 . S
C490 C489 1.516 . S
C490 C491 1.502 . S
C490 C492 1.561 . S
C490 C493 1.526 . S
C491 H475 0.959 . S
C491 H476 0.959 . S
C491 H477 0.961 . S
C491 C490 1.502 . S
C492 H478 0.960 . S
C492 H479 0.961 . S
C492 H480 0.959 . S
C492 C490 1.561 . S
C493 C490 1.526 . S
C493 C494 1.396 . S
C493 C498 1.390 . S
C494 C488 1.465 . S
C494 C493 1.396 . S
C494 C495 1.399 . S
C495 H481 0.929 . S
C495 C494 1.399 . S
C495 C496 1.385 . S
C496 H482 0.931 . S
C496 C495 1.385 . S
C496 C497 1.389 . S
C497 C496 1.389 . S
C497 C498 1.387 . S
C498 H483 0.930 . S
C498 C493 1.390 . S
C498 C497 1.387 . S
H499 C511 0.930 . S
H500 C513 0.930 . S
H501 C514 0.930 . S
H502 C518 0.959 . S
H503 C518 0.959 . S
H504 C518 0.961 . S
H505 C519 0.960 . S
H506 C519 0.961 . S
H507 C519 0.959 . S
H508 C522 0.929 . S
H509 C523 0.931 . S
H510 C525 0.941 . S
C511 H499 0.930 . S
C511 C512 1.399 1_455 S
C511 C516 1.399 . S
C512 C511 1.399 1_655 S
C512 C513 1.376 1_545 S
C513 H500 0.930 . S
C513 C512 1.376 1_565 S
C513 C514 1.388 . S
C514 H501 0.930 . S
C514 C513 1.388 . S
C514 C515 1.390 1_655 S
C515 C514 1.390 1_455 S
C515 C516 1.394 1_565 S
C515 C521 1.465 . S
C516 C511 1.399 . S
C516 C515 1.394 1_545 S
C516 C517 1.516 . S
C517 C516 1.516 . S
C517 C518 1.502 . S
C517 C519 1.561 . S
C517 C520 1.526 . S
C518 H502 0.959 . S
C518 H503 0.959 . S
C518 H504 0.961 . S
C518 C517 1.502 . S
C519 H505 0.960 . S
C519 H506 0.961 . S
C519 H507 0.959 . S
C519 C517 1.561 . S
C520 C517 1.526 . S
C520 C521 1.396 1_545 S
C520 C525 1.391 . S
C521 C515 1.465 . S
C521 C520 1.396 1_565 S
C521 C522 1.399 . S
C522 H508 0.929 . S
C522 C521 1.399 . S
C522 C523 1.385 . S
C523 H509 0.931 . S
C523 C522 1.385 . S
C523 C524 1.389 . S
C524 C523 1.389 . S
C524 C525 1.374 1_565 S
C525 H510 0.941 . S
C525 C520 1.391 . S
C525 C524 1.374 1_545 S
H526 C538 0.930 . S
H527 C540 0.930 . S
H528 C541 0.930 . S
H529 C545 0.959 . S
H530 C545 0.959 . S
H531 C545 0.961 . S
H532 C546 0.960 . S
H533 C546 0.961 . S
H534 C546 0.959 . S
H535 C549 0.929 . S
H536 C550 0.931 . S
H537 C552 0.930 . S
C538 H526 0.930 . S
C538 C539 1.399 . S
C538 C543 1.399 . S
C539 C538 1.399 . S
C539 C540 1.376 . S
C540 H527 0.930 . S
C540 C539 1.376 . S
C540 C541 1.388 . S
C541 H528 0.930 . S
C541 C540 1.388 . S
C541 C542 1.390 . S
C542 C541 1.390 . S
C542 C543 1.394 . S
C542 C548 1.465 . S
C543 C538 1.399 . S
C543 C542 1.394 . S
C543 C544 1.516 . S
C544 C543 1.516 . S
C544 C545 1.502 . S
C544 C546 1.561 . S
C544 C547 1.526 . S
C545 H529 0.959 . S
C545 H530 0.959 . S
C545 H531 0.961 . S
C545 C544 1.502 . S
C546 H532 0.960 . S
C546 H533 0.961 . S
C546 H534 0.959 . S
C546 C544 1.561 . S
C547 C544 1.526 . S
C547 C548 1.396 . S
C547 C552 1.390 . S
C548 C542 1.465 . S
C548 C547 1.396 . S
C548 C549 1.399 . S
C549 H535 0.929 . S
C549 C548 1.399 . S
C549 C550 1.385 1_655 S
C550 H536 0.931 . S
C550 C549 1.385 1_455 S
C550 C551 1.389 . S
C551 C550 1.389 . S
C551 C552 1.387 1_455 S
C552 H537 0.930 . S
C552 C547 1.390 . S
C552 C551 1.387 1_655 S
H553 C565 0.930 . S
H554 C567 0.930 . S
H555 C568 0.930 . S
H556 C572 0.959 . S
H557 C572 0.959 . S
H558 C572 0.961 . S
H559 C573 0.960 . S
H560 C573 0.961 . S
H561 C573 0.959 . S
H562 C576 0.929 . S
H563 C577 0.931 . S
H564 C579 0.930 . S
C565 H553 0.930 . S
C565 C566 1.399 1_565 S
C565 C570 1.399 . S
C566 C565 1.399 1_545 S
C566 C567 1.376 . S
C567 H554 0.930 . S
C567 C566 1.376 . S
C567 C568 1.388 . S
C568 H555 0.930 . S
C568 C567 1.388 . S
C568 C569 1.390 . S
C569 C568 1.390 . S
C569 C570 1.394 1_545 S
C569 C575 1.465 . S
C570 C565 1.399 . S
C570 C569 1.394 1_565 S
C570 C571 1.516 . S
C571 C570 1.516 . S
C571 C572 1.502 . S
C571 C573 1.561 . S
C571 C574 1.526 . S
C572 H556 0.959 . S
C572 H557 0.959 . S
C572 H558 0.961 . S
C572 C571 1.502 . S
C573 H559 0.960 . S
C573 H560 0.961 . S
C573 H561 0.959 . S
C573 C571 1.561 . S
C574 C571 1.526 . S
C574 C575 1.396 1_565 S
C574 C579 1.390 . S
C575 C569 1.465 . S
C575 C574 1.396 1_545 S
C575 C576 1.399 . S
C576 H562 0.929 . S
C576 C575 1.399 . S
C576 C577 1.385 . S
C577 H563 0.931 . S
C577 C576 1.385 . S
C577 C578 1.389 1_545 S
C578 C577 1.389 1_565 S
C578 C579 1.387 . S
C579 H564 0.930 . S
C579 C574 1.390 . S
C579 C578 1.387 . S
H580 C592 0.930 . S
H581 C594 0.930 . S
H582 C595 0.930 . S
H583 C599 0.959 . S
H584 C599 0.959 . S
H585 C599 0.961 . S
H586 C600 0.960 . S
H587 C600 0.961 . S
H588 C600 0.959 . S
H589 C603 0.929 . S
H590 C604 0.931 . S
H591 C606 0.930 . S
C592 H580 0.930 . S
C592 C593 1.399 . S
C592 C597 1.399 . S
C593 C592 1.399 . S
C593 C594 1.376 . S
C594 H581 0.930 . S
C594 C593 1.376 . S
C594 C595 1.388 . S
C595 H582 0.930 . S
C595 C594 1.388 . S
C595 C596 1.390 . S
C596 C595 1.390 . S
C596 C597 1.394 . S
C596 C602 1.465 . S
C597 C592 1.399 . S
C597 C596 1.394 . S
C597 C598 1.516 . S
C598 C597 1.516 . S
C598 C599 1.502 . S
C598 C600 1.561 . S
C598 C601 1.526 . S
C599 H583 0.959 . S
C599 H584 0.959 . S
C599 H585 0.961 . S
C599 C598 1.502 . S
C600 H586 0.960 . S
C600 H587 0.961 . S
C600 H588 0.959 . S
C600 C598 1.561 . S
C601 C598 1.526 . S
C601 C602 1.396 . S
C601 C606 1.390 . S
C602 C596 1.465 . S
C602 C601 1.396 . S
C602 C603 1.399 . S
C603 H589 0.929 . S
C603 C602 1.399 . S
C603 C604 1.385 . S
C604 H590 0.931 . S
C604 C603 1.385 . S
C604 C605 1.389 . S
C605 C604 1.389 . S
C605 C606 1.387 . S
C606 H591 0.930 . S
C606 C601 1.390 . S
C606 C605 1.387 . S
H607 C619 0.930 . S
H608 C621 0.930 . S
H609 C622 0.930 . S
H610 C626 0.959 . S
H611 C626 0.959 . S
H612 C626 0.961 . S
H613 C627 0.960 . S
H614 C627 0.961 . S
H615 C627 0.959 . S
H616 C630 0.929 . S
H617 C631 0.931 . S
H618 C633 0.930 . S
C619 H607 0.930 . S
C619 C620 1.399 . S
C619 C624 1.399 . S
C620 C619 1.399 . S
C620 C621 1.376 1_545 S
C621 H608 0.930 . S
C621 C620 1.376 1_565 S
C621 C622 1.388 . S
C622 H609 0.930 . S
C622 C621 1.388 . S
C622 C623 1.390 . S
C623 C622 1.390 . S
C623 C624 1.394 1_565 S
C623 C629 1.465 . S
C624 C619 1.399 . S
C624 C623 1.394 1_545 S
C624 C625 1.516 . S
C625 C624 1.516 . S
C625 C626 1.502 . S
C625 C627 1.561 . S
C625 C628 1.526 . S
C626 H610 0.959 . S
C626 H611 0.959 . S
C626 H612 0.961 . S
C626 C625 1.502 . S
C627 H613 0.960 . S
C627 H614 0.961 . S
C627 H615 0.959 . S
C627 C625 1.561 . S
C628 C625 1.526 . S
C628 C629 1.396 1_545 S
C628 C633 1.390 1_655 S
C629 C623 1.465 . S
C629 C628 1.396 1_565 S
C629 C630 1.399 . S
C630 H616 0.929 . S
C630 C629 1.399 . S
C630 C631 1.385 1_655 S
C631 H617 0.931 . S
C631 C630 1.385 1_455 S
C631 C632 1.389 . S
C632 C631 1.389 . S
C632 C633 1.387 1_565 S
C633 H618 0.930 . S
C633 C628 1.390 1_455 S
C633 C632 1.387 1_545 S
H634 C646 0.930 . S
H635 C648 0.930 . S
H636 C649 0.930 . S
H637 C653 0.959 . S
H638 C653 0.959 . S
H639 C653 0.961 . S
H640 C654 0.960 . S
H641 C654 0.961 . S
H642 C654 0.959 . S
H643 C657 0.929 . S
H644 C658 0.931 . S
H645 C660 0.930 . S
C646 H634 0.930 . S
C646 C647 1.399 . S
C646 C651 1.399 . S
C647 C646 1.399 . S
C647 C648 1.376 . S
C648 H635 0.930 . S
C648 C647 1.376 . S
C648 C649 1.388 . S
C649 H636 0.930 . S
C649 C648 1.388 . S
C649 C650 1.390 . S
C650 C649 1.390 . S
C650 C651 1.394 . S
C650 C656 1.465 . S
C651 C646 1.399 . S
C651 C650 1.394 . S
C651 C652 1.516 . S
C652 C651 1.516 . S
C652 C653 1.502 . S
C652 C654 1.561 . S
C652 C655 1.526 . S
C653 H637 0.959 . S
C653 H638 0.959 . S
C653 H639 0.961 . S
C653 C652 1.502 . S
C654 H640 0.960 . S
C654 H641 0.961 . S
C654 H642 0.959 . S
C654 C652 1.561 . S
C655 C652 1.526 . S
C655 C656 1.396 . S
C655 C660 1.390 1_455 S
C656 C650 1.465 . S
C656 C655 1.396 . S
C656 C657 1.399 . S
C657 H643 0.929 . S
C657 C656 1.399 . S
C657 C658 1.385 1_455 S
C658 H644 0.931 . S
C658 C657 1.385 1_655 S
C658 C659 1.389 . S
C659 C658 1.389 . S
C659 C660 1.387 . S
C660 H645 0.930 . S
C660 C655 1.390 1_655 S
C660 C659 1.387 . S
H661 C673 0.930 . S
H662 C675 0.930 . S
H663 C676 0.930 . S
H664 C680 0.959 . S
H665 C680 0.959 . S
H666 C680 0.961 . S
H667 C681 0.960 . S
H668 C681 0.961 . S
H669 C681 0.959 . S
H670 C684 0.929 . S
H671 C685 0.931 . S
H672 C687 0.930 . S
C673 H661 0.930 . S
C673 C674 1.399 1_545 S
C673 C678 1.399 . S
C674 C673 1.399 1_565 S
C674 C675 1.376 . S
C675 H662 0.930 . S
C675 C674 1.376 . S
C675 C676 1.388 . S
C676 H663 0.930 . S
C676 C675 1.388 . S
C676 C677 1.390 . S
C677 C676 1.390 . S
C677 C678 1.394 1_565 S
C677 C683 1.465 . S
C678 C673 1.399 . S
C678 C677 1.394 1_545 S
C678 C679 1.516 . S
C679 C678 1.516 . S
C679 C680 1.502 . S
C679 C681 1.561 . S
C679 C682 1.526 . S
C680 H664 0.959 . S
C680 H665 0.959 . S
C680 H666 0.961 . S
C680 C679 1.502 . S
C681 H667 0.960 . S
C681 H668 0.961 . S
C681 H669 0.959 . S
C681 C679 1.561 . S
C682 C679 1.526 . S
C682 C683 1.396 1_545 S
C682 C687 1.390 . S
C683 C677 1.465 . S
C683 C682 1.396 1_565 S
C683 C684 1.399 . S
C684 H670 0.929 . S
C684 C683 1.399 . S
C684 C685 1.385 . S
C685 H671 0.931 . S
C685 C684 1.385 . S
C685 C686 1.389 1_565 S
C686 C685 1.389 1_545 S
C686 C687 1.387 . S
C687 H672 0.930 . S
C687 C682 1.390 . S
C687 C686 1.387 . S
H688 C700 0.930 . S
H689 C702 0.930 . S
H690 C703 0.930 . S
H691 C707 0.959 . S
H692 C707 0.959 . S
H693 C707 0.961 . S
H694 C708 0.960 . S
H695 C708 0.961 . S
H696 C708 0.959 . S
H697 C711 0.929 . S
H698 C712 0.931 . S
H699 C714 0.930 . S
C700 H688 0.930 . S
C700 C701 1.399 . S
C700 C705 1.399 . S
C701 C700 1.399 . S
C701 C702 1.376 . S
C702 H689 0.930 . S
C702 C701 1.376 . S
C702 C703 1.388 1_455 S
C703 H690 0.930 . S
C703 C702 1.388 1_655 S
C703 C704 1.390 . S
C704 C703 1.390 . S
C704 C705 1.394 1_655 S
C704 C710 1.465 . S
C705 C700 1.399 . S
C705 C704 1.394 1_455 S
C705 C706 1.516 . S
C706 C705 1.516 . S
C706 C707 1.502 . S
C706 C708 1.561 . S
C706 C709 1.526 1_455 S
C707 H691 0.959 . S
C707 H692 0.959 . S
C707 H693 0.961 . S
C707 C706 1.502 . S
C708 H694 0.960 . S
C708 H695 0.961 . S
C708 H696 0.959 . S
C708 C706 1.561 . S
C709 C706 1.526 1_655 S
C709 C710 1.396 . S
C709 C714 1.390 . S
C710 C704 1.465 . S
C710 C709 1.396 . S
C710 C711 1.399 . S
C711 H697 0.929 . S
C711 C710 1.399 . S
C711 C712 1.385 . S
C712 H698 0.931 . S
C712 C711 1.385 . S
C712 C713 1.389 . S
C713 C712 1.389 . S
C713 C714 1.387 . S
C714 H699 0.930 . S
C714 C709 1.390 . S
C714 C713 1.387 . S
H715 C727 0.930 . S
H716 C729 0.930 . S
H717 C730 0.930 . S
H718 C734 0.959 . S
H719 C734 0.959 . S
H720 C734 0.961 . S
H721 C735 0.964 . S
H722 C735 0.950 1_545 S
H723 C735 0.973 . S
H724 C738 0.929 . S
H725 C739 0.931 . S
H726 C741 0.930 . S
C727 H715 0.930 . S
C727 C728 1.399 . S
C727 C732 1.399 . S
C728 C727 1.399 . S
C728 C729 1.376 . S
C729 H716 0.930 . S
C729 C728 1.376 . S
C729 C730 1.388 . S
C730 H717 0.930 . S
C730 C729 1.388 . S
C730 C731 1.390 . S
C731 C730 1.390 . S
C731 C732 1.394 . S
C731 C737 1.465 . S
C732 C727 1.399 . S
C732 C731 1.394 . S
C732 C733 1.516 1_565 S
C733 C732 1.516 1_545 S
C733 C734 1.502 . S
C733 C735 1.554 1_545 S
C733 C736 1.526 . S
C734 H718 0.959 . S
C734 H719 0.959 . S
C734 H720 0.961 . S
C734 C733 1.502 . S
C735 H721 0.964 . S
C735 H722 0.950 1_565 S
C735 H723 0.973 . S
C735 C733 1.554 1_565 S
C736 C733 1.526 . S
C736 C737 1.396 1_545 S
C736 C741 1.390 . S
C737 C731 1.465 . S
C737 C736 1.396 1_565 S
C737 C738 1.399 . S
C738 H724 0.929 . S
C738 C737 1.399 . S
C738 C739 1.385 1_565 S
C739 H725 0.931 . S
C739 C738 1.385 1_545 S
C739 C740 1.389 . S
C740 C739 1.389 . S
C740 C741 1.387 . S
C741 H726 0.930 . S
C741 C736 1.390 . S
C741 C740 1.387 . S
H742 C754 0.930 . S
H743 C756 0.930 . S
H744 C757 0.930 1_556 S
H745 C761 0.959 . S
H746 C761 0.959 . S
H747 C761 0.961 . S
H748 C762 0.960 . S
H749 C762 0.961 . S
H750 C762 0.959 . S
H751 C765 0.929 . S
H752 C766 0.931 . S
H753 C768 0.930 . S
C754 H742 0.930 . S
C754 C755 1.399 . S
C754 C759 1.399 . S
C755 C754 1.399 . S
C755 C756 1.376 . S
C756 H743 0.930 . S
C756 C755 1.376 . S
C756 C757 1.388 . S
C757 H744 0.930 1_554 S
C757 C756 1.388 . S
C757 C758 1.390 . S
C758 C757 1.390 . S
C758 C759 1.394 . S
C758 C764 1.465 1_554 S
C759 C754 1.399 . S
C759 C758 1.394 . S
C759 C760 1.516 . S
C760 C759 1.516 . S
C760 C761 1.502 . S
C760 C762 1.561 . S
C760 C763 1.526 1_554 S
C761 H745 0.959 . S
C761 H746 0.959 . S
C761 H747 0.961 . S
C761 C760 1.502 . S
C762 H748 0.960 . S
C762 H749 0.961 . S
C762 H750 0.959 . S
C762 C760 1.561 . S
C763 C760 1.526 1_556 S
C763 C764 1.396 . S
C763 C768 1.390 . S
C764 C758 1.465 1_556 S
C764 C763 1.396 . S
C764 C765 1.399 . S
C765 H751 0.929 . S
C765 C764 1.399 . S
C765 C766 1.385 . S
C766 H752 0.931 . S
C766 C765 1.385 . S
C766 C767 1.389 . S
C767 C766 1.389 . S
C767 C768 1.387 . S
C768 H753 0.930 . S
C768 C763 1.390 . S
C768 C767 1.387 . S
H769 C781 0.930 . S
H770 C783 0.930 . S
H771 C784 0.923 1_554 S
H772 C788 0.959 . S
H773 C788 0.959 . S
H774 C788 0.961 . S
H775 C789 0.960 . S
H776 C789 0.961 1_545 S
H777 C789 0.959 . S
H778 C792 0.929 . S
H779 C793 0.931 . S
H780 C795 0.930 . S
C781 H769 0.930 . S
C781 C782 1.399 . S
C781 C786 1.399 . S
C782 C781 1.399 . S
C782 C783 1.376 . S
C783 H770 0.930 . S
C783 C782 1.376 . S
C783 C784 1.395 . S
C784 H771 0.923 1_556 S
C784 C783 1.395 . S
C784 C785 1.390 . S
C785 C784 1.390 . S
C785 C786 1.394 . S
C785 C791 1.465 1_456 S
C786 C781 1.399 . S
C786 C785 1.394 . S
C786 C787 1.516 1_465 S
C787 C786 1.516 1_645 S
C787 C788 1.502 . S
C787 C789 1.561 1_545 S
C787 C790 1.526 1_556 S
C788 H772 0.959 . S
C788 H773 0.959 . S
C788 H774 0.961 . S
C788 C787 1.502 . S
C789 H775 0.960 . S
C789 H776 0.961 1_565 S
C789 H777 0.959 . S
C789 C787 1.561 1_565 S
C790 C787 1.526 1_554 S
C790 C791 1.396 1_545 S
C790 C795 1.390 . S
C791 C785 1.465 1_654 S
C791 C790 1.396 1_565 S
C791 C792 1.399 1_655 S
C792 H778 0.929 . S
C792 C791 1.399 1_455 S
C792 C793 1.385 1_465 S
C793 H779 0.931 . S
C793 C792 1.385 1_645 S
C793 C794 1.389 . S
C794 C793 1.389 . S
C794 C795 1.387 . S
C795 H780 0.930 . S
C795 C790 1.390 . S
C795 C794 1.387 . S
H796 C808 0.930 . S
H797 C810 0.930 . S
H798 C811 0.930 . S
H799 C815 0.959 . S
H800 C815 0.959 . S
H801 C815 0.961 . S
H802 C816 0.960 . S
H803 C816 0.961 . S
H804 C816 0.959 . S
H805 C819 0.929 . S
H806 C820 0.931 . S
H807 C822 0.930 . S
C808 H796 0.930 . S
C808 C809 1.399 . S
C808 C813 1.399 . S
C809 C808 1.399 . S
C809 C810 1.376 . S
C810 H797 0.930 . S
C810 C809 1.376 . S
C810 C811 1.388 . S
C811 H798 0.930 . S
C811 C810 1.388 . S
C811 C812 1.390 . S
C812 C811 1.390 . S
C812 C813 1.394 . S
C812 C818 1.465 . S
C813 C808 1.399 . S
C813 C812 1.394 . S
C813 C814 1.516 . S
C814 C813 1.516 . S
C814 C815 1.502 . S
C814 C816 1.561 . S
C814 C817 1.526 . S
C815 H799 0.959 . S
C815 H800 0.959 . S
C815 H801 0.961 . S
C815 C814 1.502 . S
C816 H802 0.960 . S
C816 H803 0.961 . S
C816 H804 0.959 . S
C816 C814 1.561 . S
C817 C814 1.526 . S
C817 C818 1.396 . S
C817 C822 1.390 . S
C818 C812 1.465 . S
C818 C817 1.396 . S
C818 C819 1.399 . S
C819 H805 0.929 . S
C819 C818 1.399 . S
C819 C820 1.385 . S
C820 H806 0.931 . S
C820 C819 1.385 . S
C820 C821 1.389 . S
C821 C820 1.389 . S
C821 C822 1.387 . S
C822 H807 0.930 . S
C822 C817 1.390 . S
C822 C821 1.387 . S
H823 C835 0.930 . S
H824 C837 0.930 . S
H825 C838 0.930 . S
H826 C842 0.959 . S
H827 C842 0.959 . S
H828 C842 0.961 . S
H829 C843 0.960 . S
H830 C843 0.961 . S
H831 C843 0.959 . S
H832 C846 0.929 . S
H833 C847 0.931 . S
H834 C849 0.930 . S
C835 H823 0.930 . S
C835 C836 1.399 . S
C835 C840 1.399 . S
C836 C835 1.399 . S
C836 C837 1.376 . S
C837 H824 0.930 . S
C837 C836 1.376 . S
C837 C838 1.388 . S
C838 H825 0.930 . S
C838 C837 1.388 . S
C838 C839 1.390 . S
C839 C838 1.390 . S
C839 C840 1.394 . S
C839 C845 1.465 . S
C840 C835 1.399 . S
C840 C839 1.394 . S
C840 C841 1.516 . S
C841 C840 1.516 . S
C841 C842 1.502 . S
C841 C843 1.561 . S
C841 C844 1.526 . S
C842 H826 0.959 . S
C842 H827 0.959 . S
C842 H828 0.961 . S
C842 C841 1.502 . S
C843 H829 0.960 . S
C843 H830 0.961 . S
C843 H831 0.959 . S
C843 C841 1.561 . S
C844 C841 1.526 . S
C844 C845 1.396 . S
C844 C849 1.390 . S
C845 C839 1.465 . S
C845 C844 1.396 . S
C845 C846 1.399 . S
C846 H832 0.929 . S
C846 C845 1.399 . S
C846 C847 1.385 . S
C847 H833 0.931 . S
C847 C846 1.385 . S
C847 C848 1.389 . S
C848 C847 1.389 . S
C848 C849 1.387 . S
C849 H834 0.930 . S
C849 C844 1.390 . S
C849 C848 1.387 . S
H850 C862 0.930 . S
H851 C864 0.930 . S
H852 C865 0.930 . S
H853 C869 0.959 . S
H854 C869 0.959 . S
H855 C869 0.961 . S
H856 C870 0.960 . S
H857 C870 0.961 . S
H858 C870 0.959 . S
H859 C873 0.929 . S
H860 C874 0.931 . S
H861 C876 0.930 . S
C862 H850 0.930 . S
C862 C863 1.399 . S
C862 C867 1.399 . S
C863 C862 1.399 . S
C863 C864 1.376 . S
C864 H851 0.930 . S
C864 C863 1.376 . S
C864 C865 1.388 . S
C865 H852 0.930 . S
C865 C864 1.388 . S
C865 C866 1.390 . S
C866 C865 1.390 . S
C866 C867 1.394 . S
C866 C872 1.465 . S
C867 C862 1.399 . S
C867 C866 1.394 . S
C867 C868 1.516 . S
C868 C867 1.516 . S
C868 C869 1.502 . S
C868 C870 1.561 . S
C868 C871 1.526 . S
C869 H853 0.959 . S
C869 H854 0.959 . S
C869 H855 0.961 . S
C869 C868 1.502 . S
C870 H856 0.960 . S
C870 H857 0.961 . S
C870 H858 0.959 . S
C870 C868 1.561 . S
C871 C868 1.526 . S
C871 C872 1.396 . S
C871 C876 1.390 . S
C872 C866 1.465 . S
C872 C871 1.396 . S
C872 C873 1.399 . S
C873 H859 0.929 . S
C873 C872 1.399 . S
C873 C874 1.385 . S
C874 H860 0.931 . S
C874 C873 1.385 . S
C874 C875 1.389 . S
C875 C874 1.389 . S
C875 C876 1.387 . S
C876 H861 0.930 . S
C876 C871 1.390 . S
C876 C875 1.387 . S
H877 C889 0.930 . S
H878 C891 0.930 . S
H879 C892 0.930 . S
H880 C896 0.959 . S
H881 C896 0.959 . S
H882 C896 0.961 . S
H883 C897 0.960 . S
H884 C897 0.961 . S
H885 C897 0.959 . S
H886 C900 0.929 . S
H887 C901 0.931 . S
H888 C903 0.930 . S
C889 H877 0.930 . S
C889 C890 1.399 . S
C889 C894 1.399 . S
C890 C889 1.399 . S
C890 C891 1.376 . S
C891 H878 0.930 . S
C891 C890 1.376 . S
C891 C892 1.388 . S
C892 H879 0.930 . S
C892 C891 1.388 . S
C892 C893 1.390 . S
C893 C892 1.390 . S
C893 C894 1.394 . S
C893 C899 1.465 . S
C894 C889 1.399 . S
C894 C893 1.394 . S
C894 C895 1.516 . S
C895 C894 1.516 . S
C895 C896 1.502 . S
C895 C897 1.561 . S
C895 C898 1.526 . S
C896 H880 0.959 . S
C896 H881 0.959 . S
C896 H882 0.961 . S
C896 C895 1.502 . S
C897 H883 0.960 . S
C897 H884 0.961 . S
C897 H885 0.959 . S
C897 C895 1.561 . S
C898 C895 1.526 . S
C898 C899 1.396 . S
C898 C903 1.390 . S
C899 C893 1.465 . S
C899 C898 1.396 . S
C899 C900 1.399 . S
C900 H886 0.929 . S
C900 C899 1.399 . S
C900 C901 1.385 . S
C901 H887 0.931 . S
C901 C900 1.385 . S
C901 C902 1.389 . S
C902 C901 1.389 . S
C902 C903 1.387 . S
C903 H888 0.930 . S
C903 C898 1.390 . S
C903 C902 1.387 . S
C485 C3 1.567 . S
C497 C170 1.564 . S
C512 C229 1.558 . S
C524 C62 1.571 . S
C539 C121 1.559 . S
C551 C52 1.570 . S
C566 C180 1.552 . S
C578 C111 1.573 . S
C593 C406 1.561 . S
C605 C239 1.574 . S
C620 C298 1.546 . S
C632 C465 1.542 . S
C647 C357 1.551 . S
C659 C288 1.539 . S
C674 C416 1.572 . S
C686 C347 1.565 . S
C701 C33 1.579 . S
C713 C269 1.596 . S
C728 C92 1.594 . S
C740 C328 1.582 . S
C755 C151 1.602 . S
C767 C387 1.567 . S
C782 C446 1.604 . S
C794 C210 1.568 . S
C809 C5 1.642 . S
C821 C64 1.629 . S
C836 C182 1.637 . S
C848 C123 1.653 . S
C863 C300 1.654 . S
C875 C241 1.648 . S
C890 C359 1.653 . S
C902 C418 1.645 . S
