# Generated by pormake.
# Topology neb, (4)-cn, num edge types: 1
# Building blocks:
#     Node 0, Type 0, BuildingBlock: ICAMEG_clean_sbu_1, # of connection points: 4
#     Node 1, Type 0, BuildingBlock: ICAMEG_clean_sbu_1, # of connection points: 4
#     Node 2, Type 0, BuildingBlock: ICAMEG_clean_sbu_1, # of connection points: 4
#     Node 3, Type 0, BuildingBlock: ICAMEG_clean_sbu_1, # of connection points: 4
#     Node 4, Type 0, BuildingBlock: ICAMEG_clean_sbu_1, # of connection points: 4
#     Node 5, Type 0, BuildingBlock: ICAMEG_clean_sbu_1, # of connection points: 4
#     Node 6, Type 0, BuildingBlock: ICAMEG_clean_sbu_1, # of connection points: 4
#     Node 7, Type 0, BuildingBlock: ICAMEG_clean_sbu_1, # of connection points: 4
#     Node 8, Type 0, BuildingBlock: ICAMEG_clean_sbu_1, # of connection points: 4
#     Node 9, Type 0, BuildingBlock: ICAMEG_clean_sbu_1, # of connection points: 4
#     Node 10, Type 0, BuildingBlock: ICAMEG_clean_sbu_1, # of connection points: 4
#     Node 11, Type 0, BuildingBlock: ICAMEG_clean_sbu_1, # of connection points: 4
#     Node 12, Type 0, BuildingBlock: ICAMEG_clean_sbu_1, # of connection points: 4
#     Node 13, Type 0, BuildingBlock: ICAMEG_clean_sbu_1, # of connection points: 4
#     Node 14, Type 0, BuildingBlock: ICAMEG_clean_sbu_1, # of connection points: 4
#     Node 15, Type 0, BuildingBlock: ICAMEG_clean_sbu_1, # of connection points: 4
#     Edge 16, Type (0, 0), BuildingBlock: EZIPEK_clean_linker_0, # of connection points: 2
#     Edge 17, Type (0, 0), BuildingBlock: EZIPEK_clean_linker_0, # of connection points: 2
#     Edge 18, Type (0, 0), BuildingBlock: EZIPEK_clean_linker_0, # of connection points: 2
#     Edge 19, Type (0, 0), BuildingBlock: EZIPEK_clean_linker_0, # of connection points: 2
#     Edge 20, Type (0, 0), BuildingBlock: EZIPEK_clean_linker_0, # of connection points: 2
#     Edge 21, Type (0, 0), BuildingBlock: EZIPEK_clean_linker_0, # of connection points: 2
#     Edge 22, Type (0, 0), BuildingBlock: EZIPEK_clean_linker_0, # of connection points: 2
#     Edge 23, Type (0, 0), BuildingBlock: EZIPEK_clean_linker_0, # of connection points: 2
#     Edge 24, Type (0, 0), BuildingBlock: EZIPEK_clean_linker_0, # of connection points: 2
#     Edge 25, Type (0, 0), BuildingBlock: EZIPEK_clean_linker_0, # of connection points: 2
#     Edge 26, Type (0, 0), BuildingBlock: EZIPEK_clean_linker_0, # of connection points: 2
#     Edge 27, Type (0, 0), BuildingBlock: EZIPEK_clean_linker_0, # of connection points: 2
#     Edge 28, Type (0, 0), BuildingBlock: EZIPEK_clean_linker_0, # of connection points: 2
#     Edge 29, Type (0, 0), BuildingBlock: EZIPEK_clean_linker_0, # of connection points: 2
#     Edge 30, Type (0, 0), BuildingBlock: EZIPEK_clean_linker_0, # of connection points: 2
#     Edge 31, Type (0, 0), BuildingBlock: EZIPEK_clean_linker_0, # of connection points: 2
#     Edge 32, Type (0, 0), BuildingBlock: EZIPEK_clean_linker_0, # of connection points: 2
#     Edge 33, Type (0, 0), BuildingBlock: EZIPEK_clean_linker_0, # of connection points: 2
#     Edge 34, Type (0, 0), BuildingBlock: EZIPEK_clean_linker_0, # of connection points: 2
#     Edge 35, Type (0, 0), BuildingBlock: EZIPEK_clean_linker_0, # of connection points: 2
#     Edge 36, Type (0, 0), BuildingBlock: EZIPEK_clean_linker_0, # of connection points: 2
#     Edge 37, Type (0, 0), BuildingBlock: EZIPEK_clean_linker_0, # of connection points: 2
#     Edge 38, Type (0, 0), BuildingBlock: EZIPEK_clean_linker_0, # of connection points: 2
#     Edge 39, Type (0, 0), BuildingBlock: EZIPEK_clean_linker_0, # of connection points: 2
#     Edge 40, Type (0, 0), BuildingBlock: EZIPEK_clean_linker_0, # of connection points: 2
#     Edge 41, Type (0, 0), BuildingBlock: EZIPEK_clean_linker_0, # of connection points: 2
#     Edge 42, Type (0, 0), BuildingBlock: EZIPEK_clean_linker_0, # of connection points: 2
#     Edge 43, Type (0, 0), BuildingBlock: EZIPEK_clean_linker_0, # of connection points: 2
#     Edge 44, Type (0, 0), BuildingBlock: EZIPEK_clean_linker_0, # of connection points: 2
#     Edge 45, Type (0, 0), BuildingBlock: EZIPEK_clean_linker_0, # of connection points: 2
#     Edge 46, Type (0, 0), BuildingBlock: EZIPEK_clean_linker_0, # of connection points: 2
#     Edge 47, Type (0, 0), BuildingBlock: EZIPEK_clean_linker_0, # of connection points: 2
# Relax obj value: 0.005
# Max RMSD: 0.054
# Mean RMSD: 0.054
data_MOF--net-neb--node1-ICAMEG_clean_sbu_1--edge1-EZIPEK_clean_linker_0
_symmetry_space_group_name_H-M    P1
_symmetry_Int_Tables_number       1
_symmetry_cell_setting            triclinic
loop_
_symmetry_equiv_pos_as_xyz
'x, y, z'
_cell_length_a     30.831563
_cell_length_b     18.217175
_cell_length_c     62.218843
_cell_angle_alpha  89.978696
_cell_angle_beta   102.5617
_cell_angle_gamma 89.934915
loop_
_atom_site_label
_atom_site_type_symbol
_atom_site_fract_x
_atom_site_fract_y
_atom_site_fract_z
_atom_type_partial_charge
Co0 Co 0.16788 0.06316 0.43093 0.0
Co1 Co 0.0777 0.16282 0.44005 0.0
O2 O 0.10612 0.07054 0.43436 0.0
C3 C 0.12124 0.97461 0.39121 0.0
O4 O 0.09601 0.03073 0.38327 0.0
C5 C 0.06092 0.06093 0.4752 0.0
O6 O 0.10136 0.03494 0.47763 0.0
O7 O 0.12931 0.18952 0.4643 0.0
O8 O 0.18751 0.14236 0.45285 0.0
H9 H 0.07393 0.43531 0.45193 0.0
H10 H 0.12201 0.92719 0.44021 0.0
O11 O 0.15032 0.98081 0.40912 0.0
H12 H 0.2501 0.95429 0.50277 0.0
H13 H 0.30225 0.92126 0.42071 0.0
H14 H 0.24526 0.16602 0.4338 0.0
H15 H 0.23696 0.0442 0.47248 0.0
H16 H 0.22513 0.93663 0.4246 0.0
O17 O 0.04745 0.11272 0.46166 0.0
H18 H 0.1073 0.31771 0.44436 0.0
H19 H 0.98886 0.20499 0.44859 0.0
H20 H 0.32253 0.15299 0.43015 0.0
H21 H 0.13449 0.83521 0.46997 0.0
H22 H 0.35165 0.02999 0.42336 0.0
H23 H 0.19881 0.84861 0.50161 0.0
O24 O 0.15643 0.14048 0.40688 0.0
H25 H 0.96148 0.99274 0.3979 0.0
H26 H 0.01763 0.2468 0.40412 0.0
H27 H 0.95146 0.21619 0.37545 0.0
H28 H 0.92296 0.08828 0.37216 0.0
H29 H 0.02733 0.02589 0.42641 0.0
H30 H 0.95457 0.32119 0.45658 0.0
H31 H 0.99704 0.43755 0.45813 0.0
O32 O 0.106 0.21374 0.41786 0.0
C33 C 0.17093 0.18335 0.46546 0.0
C34 C 0.05503 0.38501 0.45121 0.0
C35 C 0.98809 0.32093 0.45388 0.0
N36 N 0.05002 0.2545 0.44584 0.0
C37 C 0.07368 0.31825 0.44683 0.0
C38 C 0.00781 0.25519 0.44946 0.0
C39 C 0.01191 0.38621 0.45472 0.0
C40 C 0.15048 0.93287 0.45372 0.0
N41 N 0.17879 0.99098 0.45449 0.0
C42 C 0.15721 0.88081 0.47061 0.0
C43 C 0.19323 0.88847 0.48839 0.0
C44 C 0.222 0.94778 0.48906 0.0
C45 C 0.21425 0.99873 0.47187 0.0
C46 C 0.28972 0.97544 0.42315 0.0
C47 C 0.25689 0.11252 0.43024 0.0
C48 C 0.24573 0.98474 0.42503 0.0
N49 N 0.22929 0.053 0.42789 0.0
C50 C 0.30108 0.10538 0.42846 0.0
C51 C 0.31744 0.03638 0.42471 0.0
C52 C 0.13346 0.20011 0.40552 0.0
C53 C 0.97367 0.0486 0.39908 0.0
C54 C 1.00559 0.19094 0.40276 0.0
C55 C 0.96802 0.17397 0.3865 0.0
C56 C 0.95206 0.10222 0.38466 0.0
N57 N 0.02679 0.13804 0.41678 0.0
C58 C 0.01112 0.06766 0.41515 0.0
Co59 Co 0.08223 0.09593 0.82024 0.0
Co60 Co 0.17269 0.1887 0.8085 0.0
O61 O 0.14227 0.09777 0.81407 0.0
C62 C 0.13418 0.97359 0.84805 0.0
O63 O 0.16983 0.99013 0.84089 0.0
C64 C 0.2013 0.07106 0.77921 0.0
O65 O 0.1751 0.02269 0.78539 0.0
O66 O 0.12069 0.21424 0.7841 0.0
O67 O 0.06313 0.17874 0.79876 0.0
H68 H 0.18685 0.46166 0.79815 0.0
H69 H 0.12008 0.95951 0.8041 0.0
O70 O 0.09852 0.01115 0.84202 0.0
H71 H 0.97763 1.00325 0.75201 0.0
H72 H 0.94508 0.97435 0.83533 0.0
H73 H 0.01797 0.21019 0.8276 0.0
H74 H 1.00274 0.08605 0.78347 0.0
H75 H 0.01933 0.9775 0.82674 0.0
O76 O 0.20278 0.13695 0.78645 0.0
H77 H 0.14983 0.34838 0.80586 0.0
H78 H 0.26275 0.22286 0.80055 0.0
H79 H 0.94354 0.20993 0.83599 0.0
H80 H 0.09646 0.87578 0.77285 0.0
H81 H 0.90651 0.09119 0.83994 0.0
H82 H 0.02462 0.89709 0.74647 0.0
O83 O 0.10129 0.16845 0.84471 0.0
H84 H 0.28665 0.02184 0.85486 0.0
H85 H 0.22522 0.27259 0.84634 0.0
H86 H 0.28567 0.24347 0.87809 0.0
H87 H 0.31692 0.11726 0.88255 0.0
H88 H 0.22628 0.05343 0.82338 0.0
H89 H 0.30127 0.33457 0.7928 0.0
H90 H 0.26332 0.45532 0.79149 0.0
O91 O 0.14468 0.24415 0.82997 0.0
C92 C 0.07915 0.21277 0.78425 0.0
C93 C 0.20354 0.40928 0.79834 0.0
C94 C 0.2677 0.33801 0.79535 0.0
N95 N 0.20298 0.27824 0.80278 0.0
C96 C 0.18236 0.34469 0.80248 0.0
C97 C 0.24543 0.27464 0.79953 0.0
C98 C 0.24645 0.40573 0.79466 0.0
C99 C 0.08886 0.96946 0.79287 0.0
N100 N 0.06285 0.02751 0.79594 0.0
C101 C 0.07557 0.92165 0.77511 0.0
C102 C 0.03529 0.93361 0.76033 0.0
C103 C 0.00889 0.99301 0.76345 0.0
C104 C 0.02334 0.03972 0.78137 0.0
C105 C 0.96087 0.02647 0.83369 0.0
C106 C 1.00219 0.15858 0.82924 0.0
C107 C 1.00308 0.02864 0.82892 0.0
N108 N 0.02321 0.09424 0.82668 0.0
C109 C 0.95997 0.15862 0.83402 0.0
C110 C 0.93923 0.09201 0.83624 0.0
C111 C 0.12207 0.22906 0.84432 0.0
C112 C 0.27346 0.07713 0.85308 0.0
C113 C 0.23868 0.21757 0.84801 0.0
C114 C 0.27294 0.20143 0.8661 0.0
C115 C 0.29041 0.13064 0.86861 0.0
N116 N 0.22224 0.16485 0.83275 0.0
C117 C 0.23915 0.09536 0.83522 0.0
Co118 Co 0.8236 0.94319 0.56663 0.0
Co119 Co 0.90989 0.83887 0.5553 0.0
O120 O 0.88402 0.93282 0.56155 0.0
C121 C 0.88024 0.05786 0.59597 0.0
O122 O 0.91611 0.03671 0.58963 0.0
C123 C 0.93079 0.93736 0.5201 0.0
O124 O 0.88933 0.95946 0.51516 0.0
O125 O 0.85775 0.82084 0.53029 0.0
O126 O 0.80124 0.86464 0.54428 0.0
H127 H 0.91008 0.56842 0.53835 0.0
H128 H 0.87312 0.06724 0.55129 0.0
O129 O 0.84333 0.02446 0.5892 0.0
H130 H 0.72837 0.05831 0.49895 0.0
H131 H 0.6942 0.08576 0.58308 0.0
H132 H 0.74827 0.84144 0.56781 0.0
H133 H 0.74593 0.97062 0.5297 0.0
H134 H 0.76865 0.07069 0.57551 0.0
O135 O 0.94343 0.88994 0.53518 0.0
H136 H 0.87765 0.68505 0.54718 0.0
H137 H 0.99973 0.79459 0.54929 0.0
H138 H 0.67352 0.85357 0.57523 0.0
H139 H 0.85712 0.15556 0.52073 0.0
H140 H 0.6459 0.97671 0.58301 0.0
H141 H 0.78411 0.15191 0.49429 0.0
O142 O 0.83722 0.86626 0.5905 0.0
H143 H 0.03427 0.98794 0.60035 0.0
H144 H 0.9574 0.74913 0.59334 0.0
H145 H 0.02092 0.77009 0.62443 0.0
H146 H 0.05976 0.89032 0.62813 0.0
H147 H 0.97068 0.96452 0.56948 0.0
H148 H 0.0336 0.67939 0.5403 0.0
H149 H 0.98878 0.56503 0.53481 0.0
O150 O 0.8785 0.78546 0.57594 0.0
C151 C 0.81628 0.82803 0.52998 0.0
C152 C 0.92998 0.61787 0.54068 0.0
C153 C 0.99925 0.68013 0.54175 0.0
N154 N 0.93637 0.74687 0.54868 0.0
C155 C 0.91164 0.68416 0.54569 0.0
C156 C 0.97975 0.74536 0.54675 0.0
C157 C 0.97411 0.616 0.53869 0.0
C158 C 0.84119 0.06544 0.54011 0.0
N159 N 0.8101 0.01509 0.5429 0.0
C160 C 0.83232 0.11563 0.52272 0.0
C161 C 0.7914 0.1135 0.50788 0.0
C162 C 0.76009 0.06118 0.51052 0.0
C163 C 0.77016 0.01191 0.52811 0.0
C164 C 0.70604 0.03163 0.58001 0.0
C165 C 0.73712 0.89455 0.57161 0.0
C166 C 0.74852 0.02254 0.57594 0.0
N167 N 0.76389 0.95438 0.57202 0.0
C168 C 0.69444 0.90144 0.5756 0.0
C169 C 0.67893 0.9705 0.57992 0.0
C170 C 0.85568 0.80314 0.59006 0.0
C171 C 0.01754 0.93541 0.59897 0.0
C172 C 0.97397 0.80173 0.59488 0.0
C173 C 0.01005 0.81317 0.61248 0.0
C174 C 0.03183 0.88062 0.61454 0.0
N175 N 0.95995 0.85591 0.57974 0.0
C176 C 0.98146 0.92186 0.58153 0.0
Co177 Co 0.929 0.94477 0.18377 0.0
Co178 Co 0.84488 0.83718 0.19613 0.0
O179 O 0.86899 0.93176 0.1891 0.0
C180 C 0.86962 0.05326 0.15265 0.0
O181 O 0.83318 0.03337 0.15867 0.0
C182 C 0.82436 0.93826 0.23082 0.0
O183 O 0.86525 0.96313 0.23482 0.0
O184 O 0.89831 0.82023 0.22062 0.0
O185 O 0.95349 0.87028 0.20696 0.0
H186 H 0.84904 0.56696 0.21383 0.0
H187 H 0.87752 0.07088 0.1962 0.0
O188 O 0.90665 0.02102 0.16018 0.0
H189 H 0.02046 0.07327 0.24993 0.0
H190 H 0.05249 0.09383 0.16399 0.0
H191 H 0.00964 0.84988 0.18599 0.0
H192 H 1.00482 0.97874 0.22103 0.0
H193 H 0.97878 0.07412 0.17189 0.0
O194 O 0.81222 0.88784 0.21666 0.0
H195 H 0.87923 0.6843 0.2041 0.0
H196 H 0.75672 0.79062 0.20389 0.0
H197 H 0.08358 0.86698 0.17821 0.0
H198 H 0.89187 0.1674 0.22446 0.0
H199 H 0.10562 0.98985 0.16702 0.0
H200 H 0.96391 0.16899 0.25171 0.0
O201 O 0.9178 0.86462 0.16093 0.0
H202 H 0.71658 0.98225 0.15253 0.0
H203 H 0.79574 0.74521 0.15911 0.0
H204 H 0.72964 0.76337 0.12917 0.0
H205 H 0.68954 0.88261 0.12574 0.0
H206 H 0.78279 0.96169 0.18224 0.0
H207 H 0.72514 0.67463 0.2138 0.0
H208 H 0.77131 0.56154 0.21879 0.0
O209 O 0.87535 0.78453 0.17501 0.0
C210 C 0.93952 0.83078 0.22097 0.0
C211 C 0.82856 0.61585 0.21171 0.0
C212 C 0.75908 0.67627 0.21173 0.0
N213 N 0.82012 0.74457 0.20346 0.0
C214 C 0.84561 0.68255 0.20618 0.0
C215 C 0.77729 0.74196 0.2062 0.0
C216 C 0.78498 0.61284 0.2145 0.0
C217 C 0.90922 0.07234 0.20748 0.0
N218 N 0.94064 0.02056 0.20633 0.0
C219 C 0.91707 0.12666 0.22369 0.0
C220 C 0.9574 0.12737 0.23901 0.0
C221 C 0.98914 0.07375 0.23801 0.0
C222 C 0.98008 0.0204 0.22153 0.0
C223 C 0.04301 0.03965 0.16842 0.0
C224 C 0.01802 0.90261 0.18047 0.0
C225 C 1.0009 0.02773 0.17265 0.0
N226 N 0.98841 0.95939 0.17823 0.0
C227 C 0.06043 0.91244 0.17639 0.0
C228 C 0.07283 0.98139 0.17018 0.0
C229 C 0.89923 0.80171 0.16131 0.0
C230 C 0.73381 0.9301 0.15382 0.0
C231 C 0.77866 0.79743 0.15766 0.0
C232 C 0.74113 0.80729 0.14071 0.0
C233 C 0.71866 0.87419 0.13879 0.0
N234 N 0.79342 0.85262 0.17229 0.0
C235 C 0.77137 0.91817 0.17059 0.0
Co236 Co 0.185 0.59291 0.93279 0.0
Co237 Co 0.09842 0.69148 0.9461 0.0
O238 O 0.12583 0.59912 0.9396 0.0
C239 C 0.12916 0.47245 0.90564 0.0
O240 O 0.09511 0.48731 0.91436 0.0
C241 C 0.08132 0.59141 0.98196 0.0
O242 O 0.12314 0.57116 0.98676 0.0
O243 O 0.15178 0.7125 0.97027 0.0
O244 O 0.2075 0.67263 0.95486 0.0
H245 H 0.09152 0.96229 0.96192 0.0
H246 H 0.14106 0.46645 0.95084 0.0
O247 O 0.16472 0.51082 0.91052 0.0
H248 H 0.29146 0.48194 0.99765 0.0
H249 H 0.31431 0.46086 0.91234 0.0
H250 H 0.25577 0.7005 0.92884 0.0
H251 H 0.2673 0.56941 0.9673 0.0
H252 H 0.24162 0.46999 0.92224 0.0
O253 O 0.06758 0.63824 0.96686 0.0
H254 H 0.12606 0.84844 0.95256 0.0
H255 H 0.00889 0.72898 0.954 0.0
H256 H 0.32877 0.69445 0.91913 0.0
H257 H 0.16356 0.37864 0.98109 0.0
H258 H 0.35864 0.57368 0.91072 0.0
H259 H 0.23951 0.3854 0.00474 0.0
O260 O 0.16699 0.6688 0.90896 0.0
H261 H 0.97611 0.53428 0.90278 0.0
H262 H 0.04658 0.77838 0.90845 0.0
H263 H 0.98237 0.75319 0.87808 0.0
H264 H 0.94674 0.63029 0.87505 0.0
H265 H 0.04025 0.56197 0.93296 0.0
H266 H 0.97292 0.84129 0.96351 0.0
H267 H 0.01421 0.95925 0.96753 0.0
O268 O 0.12679 0.7473 0.92485 0.0
C269 C 0.19305 0.70796 0.96966 0.0
C270 C 0.07322 0.91119 0.96034 0.0
C271 C 0.00672 0.84333 0.96124 0.0
N272 N 0.07021 0.78159 0.95304 0.0
C273 C 0.09286 0.84638 0.95509 0.0
C274 C 0.02748 0.77969 0.95597 0.0
C275 C 0.02986 0.90947 0.96347 0.0
C276 C 0.17418 0.46968 0.9607 0.0
N277 N 0.20317 0.5216 0.95648 0.0
C278 C 0.18678 0.41975 0.97798 0.0
C279 C 0.22933 0.42362 0.99126 0.0
C280 C 0.25852 0.47757 0.98724 0.0
C281 C 0.24468 0.52665 0.96984 0.0
C282 C 0.3015 0.51396 0.91573 0.0
C283 C 0.26796 0.64831 0.92491 0.0
C284 C 0.25997 0.51961 0.92115 0.0
N285 N 0.24341 0.58638 0.92554 0.0
C286 C 0.30962 0.64492 0.91955 0.0
C287 C 0.32638 0.5772 0.91486 0.0
C288 C 0.14786 0.73093 0.90993 0.0
C289 C 0.99142 0.58797 0.90387 0.0
C290 C 0.0314 0.72466 0.90722 0.0
C291 C 0.99493 0.7108 0.89001 0.0
C292 C 0.97496 0.64185 0.88832 0.0
N293 N 0.04756 0.67136 0.92233 0.0
C294 C 0.02783 0.60392 0.9209 0.0
Co295 Co 0.0811 0.56379 0.31847 0.0
Co296 Co 0.17169 0.66138 0.3092 0.0
O297 O 0.14291 0.56976 0.31504 0.0
C298 C 0.12767 0.47406 0.35792 0.0
O299 O 0.15331 0.52971 0.36577 0.0
C300 C 0.18919 0.55818 0.27443 0.0
O301 O 0.14794 0.53536 0.2711 0.0
O302 O 0.12026 0.68764 0.28466 0.0
O303 O 0.06198 0.64369 0.2967 0.0
H304 H 0.17627 0.93323 0.29624 0.0
H305 H 0.1254 0.42622 0.30907 0.0
O306 O 0.09823 0.48093 0.34017 0.0
H307 H 0.99786 0.45803 0.24645 0.0
H308 H 0.94591 0.42469 0.32867 0.0
H309 H 1.00426 0.6683 0.31562 0.0
H310 H 0.01187 0.54726 0.27688 0.0
H311 H 0.02311 0.43853 0.3248 0.0
O312 O 0.20269 0.60938 0.28815 0.0
H313 H 0.14253 0.81656 0.3042 0.0
H314 H 0.2609 0.70181 0.30078 0.0
H315 H 0.92691 0.65675 0.31921 0.0
H316 H 0.11205 0.33489 0.27915 0.0
H317 H 0.8971 0.53435 0.32599 0.0
H318 H 0.04802 0.35066 0.24748 0.0
O319 O 0.09321 0.64071 0.34257 0.0
H320 H 0.28724 0.49187 0.35242 0.0
H321 H 0.23163 0.74642 0.34484 0.0
H322 H 0.29761 0.71644 0.37374 0.0
H323 H 0.32583 0.58829 0.37771 0.0
H324 H 0.22157 0.52435 0.32367 0.0
H325 H 0.29555 0.81703 0.29239 0.0
H326 H 0.25332 0.93396 0.29023 0.0
O327 O 0.14301 0.71382 0.33108 0.0
C328 C 0.07863 0.68334 0.28382 0.0
C329 C 0.19508 0.88268 0.29722 0.0
C330 C 0.26197 0.81743 0.295 0.0
N331 N 0.19972 0.75237 0.30314 0.0
C332 C 0.1762 0.81644 0.30182 0.0
C333 C 0.24202 0.75223 0.29964 0.0
C334 C 0.23827 0.88303 0.29381 0.0
C335 C 0.09714 0.43306 0.2955 0.0
N336 N 0.06951 0.49214 0.29479 0.0
C337 C 0.08987 0.38131 0.27854 0.0
C338 C 0.054 0.39028 0.26076 0.0
C339 C 0.02588 0.45052 0.26016 0.0
C340 C 0.03413 0.5011 0.27742 0.0
C341 C 0.95875 0.47861 0.32624 0.0
C342 C 0.99234 0.61501 0.31916 0.0
C343 C 1.0028 0.48705 0.32438 0.0
N344 N 0.01964 0.55497 0.32153 0.0
C345 C 0.94809 0.60873 0.32092 0.0
C346 C 0.93136 0.54007 0.32466 0.0
C347 C 0.11592 0.70046 0.34364 0.0
C348 C 0.27514 0.54784 0.35095 0.0
C349 C 0.24353 0.69045 0.34651 0.0
C350 C 0.281 0.67383 0.36289 0.0
C351 C 0.2968 0.60195 0.36511 0.0
N352 N 0.22225 0.63706 0.33275 0.0
C353 C 0.23777 0.56653 0.33476 0.0
Co354 Co 0.84726 0.43033 0.07433 0.0
Co355 Co 0.93429 0.34912 0.05764 0.0
O356 O 0.90518 0.4369 0.06613 0.0
C357 C 0.89678 0.55647 0.10119 0.0
O358 O 0.93184 0.54462 0.09295 0.0
C359 C 0.94981 0.46197 0.02472 0.0
O360 O 0.90895 0.48614 0.02218 0.0
O361 O 0.881 0.33116 0.03348 0.0
O362 O 0.82816 0.34867 0.05278 0.0
H363 H 0.93785 0.091 0.02942 0.0
H364 H 0.87943 0.56758 0.05608 0.0
O365 O 0.86284 0.51446 0.09627 0.0
H366 H 0.73102 0.52021 0.00983 0.0
H367 H 0.7095 0.52797 0.09578 0.0
H368 H 0.79217 0.30567 0.08345 0.0
H369 H 0.76243 0.43786 0.04064 0.0
H370 H 0.7807 0.538 0.08412 0.0
O371 O 0.96354 0.40864 0.03758 0.0
H372 H 0.90352 0.19951 0.04255 0.0
H373 H 0.02574 0.31501 0.05165 0.0
H374 H 0.72086 0.29314 0.09488 0.0
H375 H 0.84915 0.65145 0.0256 0.0
H376 H 0.67899 0.40482 0.10114 0.0
H377 H 0.7743 0.62833 0.00218 0.0
O378 O 0.87266 0.35672 0.09763 0.0
H379 H 0.05306 0.50766 0.103 0.0
H380 H 0.98961 0.25873 0.09397 0.0
H381 H 0.05286 0.28399 0.12468 0.0
H382 H 0.08521 0.40929 0.12936 0.0
H383 H 0.9894 0.47999 0.07262 0.0
H384 H 0.06147 0.20754 0.03875 0.0
H385 H 0.01751 0.09436 0.02758 0.0
O386 O 0.90785 0.2851 0.07792 0.0
C387 C 0.84103 0.32495 0.03592 0.0
C388 C 0.95746 0.13982 0.03437 0.0
C389 C 0.02683 0.20516 0.03965 0.0
N390 N 0.96276 0.26309 0.04837 0.0
C391 C 0.93816 0.20153 0.0418 0.0
C392 C 1.00643 0.26578 0.04704 0.0
C393 C 1.00213 0.14173 0.03334 0.0
C394 C 0.84657 0.55754 0.04637 0.0
N395 N 0.82222 0.49915 0.05087 0.0
C396 C 0.82966 0.60516 0.02895 0.0
C397 C 0.78772 0.59208 0.01579 0.0
C398 C 0.7634 0.53159 0.02012 0.0
C399 C 0.78134 0.48534 0.03772 0.0
C400 C 0.72742 0.47889 0.09309 0.0
C401 C 0.7741 0.35457 0.08603 0.0
C402 C 0.76788 0.48424 0.08658 0.0
N403 N 0.79059 0.42251 0.08302 0.0
C404 C 0.73375 0.34711 0.09256 0.0
C405 C 0.7103 0.40979 0.09609 0.0
C406 C 0.89181 0.29596 0.09491 0.0
C407 C 0.03924 0.45284 0.10117 0.0
C408 C 1.00296 0.31346 0.09597 0.0
C409 C 0.03906 0.32741 0.11336 0.0
C410 C 0.05723 0.39768 0.11596 0.0
N411 N 0.98534 0.36786 0.08154 0.0
C412 C 1.00318 0.43679 0.08397 0.0
Co413 Co 0.92496 0.4417 0.67949 0.0
Co414 Co 0.84017 0.33982 0.69308 0.0
O415 O 0.86583 0.43341 0.68627 0.0
C416 C 0.86766 0.55933 0.65162 0.0
O417 O 0.83271 0.53969 0.65902 0.0
C418 C 0.82065 0.4426 0.72781 0.0
O419 O 0.86105 0.46894 0.73106 0.0
O420 O 0.89389 0.32137 0.71732 0.0
O421 O 0.94858 0.36184 0.70137 0.0
H422 H 0.838 0.06819 0.70851 0.0
H423 H 0.87964 0.56779 0.69663 0.0
O424 O 0.90431 0.52423 0.65739 0.0
H425 H 0.02822 0.55212 0.74544 0.0
H426 H 0.05432 0.57902 0.66123 0.0
H427 H 0.99449 0.33565 0.67296 0.0
H428 H 1.00604 0.46528 0.71475 0.0
H429 H 0.98142 0.56719 0.67092 0.0
O430 O 0.80831 0.39164 0.71385 0.0
H431 H 0.87026 0.18384 0.69896 0.0
H432 H 0.75174 0.29812 0.70155 0.0
H433 H 0.06775 0.34447 0.66351 0.0
H434 H 0.90032 0.65536 0.72711 0.0
H435 H 0.09821 0.46712 0.65752 0.0
H436 H 0.97526 0.64832 0.75179 0.0
O437 O 0.90782 0.36597 0.65561 0.0
H438 H 0.71483 0.49055 0.64925 0.0
H439 H 0.79061 0.25054 0.65548 0.0
H440 H 0.72639 0.27263 0.62484 0.0
H441 H 0.68804 0.39343 0.62154 0.0
H442 H 0.77925 0.46613 0.67961 0.0
H443 H 0.71801 0.18394 0.71123 0.0
H444 H 0.76115 0.06768 0.71479 0.0
O445 O 0.86976 0.28546 0.67198 0.0
C446 C 0.93498 0.32651 0.71641 0.0
C447 C 0.81896 0.11858 0.7072 0.0
C448 C 0.75167 0.18349 0.70873 0.0
N449 N 0.81373 0.24834 0.70019 0.0
C450 C 0.83734 0.18442 0.7019 0.0
C451 C 0.77119 0.24823 0.70339 0.0
C452 C 0.77585 0.1183 0.71069 0.0
C453 C 0.91243 0.5646 0.70697 0.0
N454 N 0.94196 0.51273 0.70325 0.0
C455 C 0.92394 0.61434 0.72436 0.0
C456 C 0.96594 0.61029 0.73821 0.0
C457 C 0.99569 0.55652 0.73462 0.0
C458 C 0.98296 0.50769 0.71708 0.0
C459 C 0.04136 0.52521 0.6637 0.0
C460 C 0.00729 0.38877 0.67034 0.0
C461 C 0.99985 0.51807 0.66905 0.0
N462 N 0.98322 0.45033 0.67232 0.0
C463 C 0.04892 0.39367 0.66501 0.0
C464 C 0.06599 0.46246 0.66165 0.0
C465 C 0.89023 0.30278 0.65692 0.0
C466 C 0.7313 0.43774 0.65047 0.0
C467 C 0.77426 0.30338 0.65413 0.0
C468 C 0.73779 0.31547 0.63677 0.0
C469 C 0.71629 0.38324 0.63493 0.0
N470 N 0.78901 0.3573 0.66923 0.0
C471 C 0.76782 0.4236 0.66764 0.0
Co472 Co 0.68692 0.08232 0.93344 0.0
Co473 Co 0.60306 0.18555 0.94757 0.0
O474 O 0.62778 0.09215 0.94003 0.0
C475 C 0.62804 0.96889 0.9045 0.0
O476 O 0.59295 0.98686 0.91204 0.0
C477 C 0.58355 0.0822 0.98214 0.0
O478 O 0.62478 0.05876 0.9864 0.0
O479 O 0.65693 0.20108 0.9719 0.0
O480 O 0.71153 0.15838 0.95623 0.0
H481 H 0.60406 0.45469 0.96666 0.0
H482 H 0.63915 0.95722 0.94907 0.0
O483 O 0.66465 1.00383 0.91046 0.0
H484 H 0.7881 0.95789 0.99762 0.0
H485 H 0.81221 0.94112 0.91237 0.0
H486 H 0.7614 0.18426 0.93092 0.0
H487 H 0.76737 0.05098 0.96851 0.0
H488 H 0.73944 0.95562 0.92199 0.0
O489 O 0.571 0.13228 0.96788 0.0
H490 H 0.63538 0.33956 0.95605 0.0
H491 H 0.51472 0.22823 0.95593 0.0
H492 H 0.83449 0.17258 0.92149 0.0
H493 H 0.6584 0.8624 0.97767 0.0
H494 H 0.86043 0.05004 0.91206 0.0
H495 H 0.73355 0.86223 0.00229 0.0
O496 O 0.67163 0.16149 0.9104 0.0
H497 H 0.47562 0.04113 0.90318 0.0
H498 H 0.55342 0.27914 0.911 0.0
H499 H 0.48787 0.26148 0.88076 0.0
H500 H 0.44849 0.14171 0.87668 0.0
H501 H 0.54129 0.0612 0.9332 0.0
H502 H 0.48196 0.34192 0.96671 0.0
H503 H 0.52663 0.45645 0.97213 0.0
O504 O 0.63285 0.24127 0.92671 0.0
C505 C 0.69802 0.19362 0.9713 0.0
C506 C 0.58427 0.40512 0.96443 0.0
C507 C 0.5158 0.34187 0.96447 0.0
N508 N 0.57747 0.27673 0.95555 0.0
C509 C 0.60204 0.3396 0.95843 0.0
C510 C 0.53472 0.27744 0.95847 0.0
C511 C 0.54085 0.40609 0.96749 0.0
C512 C 0.67214 0.95623 0.95912 0.0
N513 N 0.70249 1.00773 0.95628 0.0
C514 C 0.68279 0.90294 0.97557 0.0
C515 C 0.72487 0.90303 0.98942 0.0
C516 C 0.75549 0.95657 0.98678 0.0
C517 C 0.74357 1.00898 0.97014 0.0
C518 C 0.8011 0.99497 0.9162 0.0
C519 C 0.77191 0.1314 0.92651 0.0
C520 C 0.7596 1.00378 0.92146 0.0
N521 N 0.74523 0.07161 0.92638 0.0
C522 C 0.8136 0.12477 0.92133 0.0
C523 C 0.82816 0.05604 0.91607 0.0
C524 C 0.65408 0.22475 0.91183 0.0
C525 C 0.49256 0.09349 0.90474 0.0
C526 C 0.53665 0.22671 0.90928 0.0
C527 C 0.49942 0.21714 0.89216 0.0
C528 C 0.47735 0.14994 0.88988 0.0
N529 N 0.55154 0.17093 0.92372 0.0
C530 C 0.52983 0.10514 0.92169 0.0
Co531 Co 0.5847 0.06806 0.31786 0.0
Co532 Co 0.67307 0.16913 0.30737 0.0
O533 O 0.6459 0.07654 0.31368 0.0
C534 C 0.63538 0.98017 0.35685 0.0
O535 O 0.66264 0.0349 0.36359 0.0
C536 C 0.69051 0.0656 0.27272 0.0
O537 O 0.65026 0.03899 0.27033 0.0
O538 O 0.62048 0.19373 0.28332 0.0
O539 O 0.56351 0.14634 0.29578 0.0
H540 H 0.67381 0.44108 0.29391 0.0
H541 H 0.63131 0.93288 0.30846 0.0
O542 O 0.60405 0.98709 0.33987 0.0
H543 H 0.50021 0.95494 0.24723 0.0
H544 H 0.45454 0.92344 0.33208 0.0
H545 H 0.50466 0.16737 0.31378 0.0
H546 H 0.51403 0.04626 0.27712 0.0
H547 H 0.53035 0.94071 0.32668 0.0
O548 O 0.70334 0.11863 0.28585 0.0
H549 H 0.64188 0.32332 0.30233 0.0
H550 H 0.76113 0.21253 0.29822 0.0
H551 H 0.42874 0.15236 0.31901 0.0
H552 H 0.61826 0.83962 0.27909 0.0
H553 H 0.403 0.02979 0.32843 0.0
H554 H 0.55241 0.85045 0.24813 0.0
O555 O 0.5965 0.14619 0.34161 0.0
H556 H 0.79224 1.00391 0.34977 0.0
H557 H 0.73215 0.25578 0.34287 0.0
H558 H 0.79922 0.22816 0.37139 0.0
H559 H 0.82969 0.10138 0.37502 0.0
H560 H 0.72555 0.03416 0.32136 0.0
H561 H 0.79403 0.3289 0.2894 0.0
H562 H 0.75042 0.44438 0.28734 0.0
O563 O 0.64506 0.22041 0.32953 0.0
C564 C 0.57907 0.18731 0.2828 0.0
C565 C 0.69321 0.39116 0.29483 0.0
C566 C 0.76063 0.32817 0.29225 0.0
N567 N 0.69962 0.26105 0.30093 0.0
C568 C 0.67535 0.32432 0.29968 0.0
C569 C 0.74169 0.26232 0.29714 0.0
C570 C 0.73616 0.39296 0.29111 0.0
C571 C 0.60223 0.9375 0.29523 0.0
N572 N 0.57342 0.99495 0.2946 0.0
C573 C 0.59516 0.8847 0.27856 0.0
C574 C 0.55826 0.89091 0.26117 0.0
C575 C 0.52898 0.94954 0.26065 0.0
C576 C 0.5371 1.00127 0.27761 0.0
C577 C 0.46568 0.9776 0.32858 0.0
C578 C 0.49485 0.11437 0.3187 0.0
C579 C 0.50903 0.98813 0.32587 0.0
N580 N 0.5238 0.05642 0.32171 0.0
C581 C 0.45123 0.10595 0.32127 0.0
C582 C 0.43675 0.03716 0.32646 0.0
C583 C 0.61872 0.20637 0.34236 0.0
C584 C 0.77924 0.05934 0.34841 0.0
C585 C 0.74515 0.20045 0.34434 0.0
C586 C 0.78319 0.18515 0.36052 0.0
C587 C 0.80024 0.11403 0.36255 0.0
N588 N 0.72466 0.14655 0.33053 0.0
C589 C 0.74134 0.07674 0.33239 0.0
Co590 Co 0.34314 0.95885 0.07109 0.0
Co591 Co 0.42873 0.85469 0.05838 0.0
O592 O 0.40352 0.94862 0.06548 0.0
C593 C 0.4002 0.07485 0.10004 0.0
O594 O 0.43582 0.05558 0.09314 0.0
C595 C 0.44867 0.95725 0.02382 0.0
O596 O 0.40835 0.9842 0.02056 0.0
O597 O 0.37538 0.83658 0.03419 0.0
O598 O 0.32011 0.88147 0.0487 0.0
H599 H 0.42356 0.58468 0.04127 0.0
H600 H 0.39237 0.08327 0.0554 0.0
O601 O 0.3638 0.03942 0.09386 0.0
H602 H 0.24648 0.07532 0.00406 0.0
H603 H 0.21664 0.09981 0.09148 0.0
H604 H 0.26345 0.86027 0.06812 0.0
H605 H 0.26473 0.9874 0.03466 0.0
H606 H 0.29037 0.0848 0.08344 0.0
O607 O 0.46056 0.90512 0.03742 0.0
H608 H 0.39398 0.7029 0.05096 0.0
H609 H 0.51645 0.80738 0.04977 0.0
H610 H 0.18961 0.87274 0.07614 0.0
H611 H 0.37556 0.17206 0.02507 0.0
H612 H 0.16545 0.9933 0.08801 0.0
H613 H 0.30197 0.16894 0.99909 0.0
O614 O 0.35695 0.88028 0.09466 0.0
H615 H 0.55512 1.00441 0.10132 0.0
H616 H 0.4818 0.76255 0.09442 0.0
H617 H 0.5491 0.78228 0.12353 0.0
H618 H 0.58614 0.90406 0.1272 0.0
H619 H 0.48822 0.98177 0.07222 0.0
H620 H 0.54722 0.69053 0.03981 0.0
H621 H 0.50076 0.57796 0.03559 0.0
O622 O 0.39966 0.80215 0.07996 0.0
C623 C 0.33428 0.84359 0.03446 0.0
C624 C 0.44418 0.63331 0.0431 0.0
C625 C 0.51353 0.69274 0.04224 0.0
N626 N 0.45334 0.76208 0.05102 0.0
C627 C 0.42759 0.70042 0.04864 0.0
C628 C 0.49581 0.75889 0.04779 0.0
C629 C 0.48747 0.62959 0.03989 0.0
C630 C 0.36011 0.08185 0.04455 0.0
N631 N 0.32913 0.03161 0.04757 0.0
C632 C 0.3508 0.13228 0.02723 0.0
C633 C 0.30958 0.13041 0.01264 0.0
C634 C 0.27842 0.07808 0.01546 0.0
C635 C 0.2889 0.02868 0.033 0.0
C636 C 0.22714 0.04648 0.08685 0.0
C637 C 0.25457 0.91197 0.07415 0.0
C638 C 0.26945 0.03716 0.08258 0.0
N639 N 0.28336 0.96999 0.07678 0.0
C640 C 0.21201 0.91918 0.07828 0.0
C641 C 0.1984 0.98683 0.08484 0.0
C642 C 0.37653 0.81805 0.09411 0.0
C643 C 0.53918 0.9512 0.09998 0.0
C644 C 0.49765 0.81577 0.09594 0.0
C645 C 0.53583 0.82655 0.11242 0.0
C646 C 0.55658 0.89488 0.11447 0.0
N647 N 0.48068 0.87135 0.08183 0.0
C648 C 0.50114 0.9382 0.0836 0.0
Co649 Co 0.42954 0.94009 0.67826 0.0
Co650 Co 0.34641 0.84451 0.69478 0.0
O651 O 0.37077 0.93631 0.6858 0.0
C652 C 0.37359 0.06117 0.65132 0.0
O653 O 0.33917 0.04398 0.65946 0.0
C654 C 0.31083 0.96723 0.71973 0.0
O655 O 0.33023 0.01707 0.70994 0.0
O656 O 0.40036 0.8344 0.71897 0.0
O657 O 0.45267 0.8589 0.69989 0.0
H658 H 0.35644 0.5802 0.71881 0.0
H659 H 0.3912 0.07408 0.69547 0.0
O660 O 0.40952 0.02366 0.65634 0.0
H661 H 0.53823 0.03835 0.74429 0.0
H662 H 0.55983 0.06714 0.65751 0.0
H663 H 0.49634 0.82916 0.67178 0.0
H664 H 0.51226 0.95547 0.71297 0.0
H665 H 0.4877 0.06099 0.66824 0.0
O666 O 0.31496 0.8989 0.71577 0.0
H667 H 0.38409 0.69611 0.70646 0.0
H668 H 0.25917 0.79747 0.70383 0.0
H669 H 0.56874 0.83217 0.66119 0.0
H670 H 0.4155 0.1575 0.72672 0.0
H671 H 0.60103 0.95213 0.65392 0.0
H672 H 0.48972 0.14032 0.75143 0.0
O673 O 0.40841 0.86465 0.65461 0.0
H674 H 0.22108 0.97912 0.64413 0.0
H675 H 0.2963 0.7409 0.66156 0.0
H676 H 0.23212 0.74996 0.63032 0.0
H677 H 0.19393 0.86976 0.62136 0.0
H678 H 0.28493 0.96738 0.67528 0.0
H679 H 0.23011 0.68302 0.71637 0.0
H680 H 0.27882 0.57309 0.72387 0.0
O681 O 0.37596 0.78613 0.67427 0.0
C682 C 0.44063 0.83346 0.71684 0.0
C683 C 0.33484 0.62765 0.71557 0.0
C684 C 0.264 0.68538 0.71424 0.0
N685 N 0.3234 0.75362 0.70434 0.0
C686 C 0.35037 0.69345 0.70852 0.0
C687 C 0.28073 0.75024 0.70723 0.0
C688 C 0.29132 0.62372 0.71842 0.0
C689 C 0.42332 0.06573 0.70602 0.0
N690 N 0.45018 1.01012 0.70201 0.0
C691 C 0.43706 0.11349 0.72375 0.0
C692 C 0.47868 0.10385 0.73759 0.0
C693 C 0.50593 0.04681 0.73357 0.0
C694 C 0.49101 1.00016 0.71569 0.0
C695 C 0.54598 0.01446 0.66044 0.0
C696 C 0.50978 0.88102 0.6684 0.0
C697 C 0.50485 1.01053 0.66636 0.0
N698 N 0.48708 0.94423 0.67016 0.0
C699 C 0.55099 0.88268 0.66252 0.0
C700 C 0.5691 0.94996 0.65847 0.0
C701 C 0.3915 0.80178 0.65734 0.0
C702 C 0.23726 0.92648 0.64792 0.0
C703 C 0.27973 0.79322 0.658 0.0
C704 C 0.24337 0.79795 0.64021 0.0
C705 C 0.22205 0.86516 0.63516 0.0
N706 N 0.29433 0.85347 0.67066 0.0
C707 C 0.27365 0.91953 0.66564 0.0
Co708 Co 0.67576 0.57004 0.42919 0.0
Co709 Co 0.58626 0.66743 0.43989 0.0
O710 O 0.61419 0.57595 0.43314 0.0
C711 C 0.62917 0.48008 0.39 0.0
O712 O 0.60498 0.5369 0.3817 0.0
C713 C 0.55269 0.54836 0.46644 0.0
O714 O 0.57284 0.49766 0.45732 0.0
O715 O 0.63852 0.68978 0.46414 0.0
O716 O 0.6958 0.65079 0.45048 0.0
H717 H 0.58812 0.9389 0.45425 0.0
H718 H 0.63344 0.43173 0.43972 0.0
O719 O 0.65807 0.48618 0.40797 0.0
H720 H 0.762 0.46941 0.50141 0.0
H721 H 0.81155 0.43175 0.41926 0.0
H722 H 0.75009 0.67614 0.42901 0.0
H723 H 0.74667 0.55592 0.47028 0.0
H724 H 0.73463 0.44482 0.42382 0.0
O725 O 0.5566 0.61633 0.46201 0.0
H726 H 0.6181 0.82091 0.44471 0.0
H727 H 0.49986 0.7124 0.45136 0.0
H728 H 0.82719 0.66549 0.42472 0.0
H729 H 0.64798 0.34332 0.47043 0.0
H730 H 0.85848 0.54265 0.4196 0.0
H731 H 0.71249 0.36208 0.50165 0.0
O732 O 0.66209 0.64595 0.40493 0.0
H733 H 0.47169 0.50604 0.39145 0.0
H734 H 0.52199 0.76025 0.40787 0.0
H735 H 0.4541 0.73722 0.37989 0.0
H736 H 0.42821 0.60935 0.37146 0.0
H737 H 0.53901 0.53101 0.41949 0.0
H738 H 0.46907 0.82884 0.46143 0.0
H739 H 0.51309 0.94347 0.46274 0.0
O740 O 0.61424 0.71983 0.41768 0.0
C741 C 0.67981 0.68725 0.46427 0.0
C742 C 0.5685 0.88941 0.45361 0.0
C743 C 0.50178 0.8276 0.45772 0.0
N744 N 0.56065 0.75956 0.44716 0.0
C745 C 0.5852 0.82238 0.44808 0.0
C746 C 0.51957 0.76154 0.45215 0.0
C747 C 0.52645 0.8919 0.45842 0.0
C748 C 0.66176 0.44016 0.45315 0.0
N749 N 0.68882 0.49953 0.45323 0.0
C750 C 0.66977 0.38992 0.47054 0.0
C751 C 0.70593 0.40051 0.48806 0.0
C752 C 0.73369 0.46073 0.48794 0.0
C753 C 0.72466 0.50981 0.47028 0.0
C754 C 0.79808 0.48574 0.42105 0.0
C755 C 0.76287 0.62252 0.42637 0.0
C756 C 0.75425 0.49363 0.42334 0.0
N757 N 0.73669 0.56158 0.4254 0.0
C758 C 0.80686 0.61682 0.42413 0.0
C759 C 0.82442 0.54792 0.42131 0.0
C760 C 0.63996 0.70616 0.40442 0.0
C761 C 0.48236 0.56208 0.39514 0.0
C762 C 0.51078 0.70431 0.40489 0.0
C763 C 0.47234 0.69166 0.38873 0.0
C764 C 0.45795 0.62 0.38393 0.0
N765 N 0.53419 0.64741 0.41632 0.0
C766 C 0.52069 0.57683 0.41119 0.0
Co767 Co 0.5889 0.58767 0.82169 0.0
Co768 Co 0.67521 0.67956 0.80613 0.0
O769 O 0.64766 0.58941 0.81418 0.0
C770 C 0.64373 0.46946 0.85043 0.0
O771 O 0.67904 0.48612 0.84291 0.0
C772 C 0.69017 0.57129 0.77176 0.0
O773 O 0.64966 0.54607 0.76957 0.0
O774 O 0.62065 0.7002 0.78255 0.0
O775 O 0.56624 0.66554 0.79933 0.0
H776 H 0.67757 0.94245 0.78131 0.0
H777 H 0.62989 0.45458 0.80567 0.0
O778 O 0.60785 0.50654 0.84448 0.0
H779 H 0.48244 0.48033 0.75631 0.0
H780 H 0.45452 0.46654 0.84009 0.0
H781 H 0.52751 0.70207 0.83189 0.0
H782 H 0.50704 0.56774 0.78665 0.0
H783 H 0.52709 0.46935 0.82963 0.0
O784 O 0.70401 0.62357 0.78502 0.0
H785 H 0.64336 0.8303 0.79209 0.0
H786 H 0.76601 0.71671 0.80003 0.0
H787 H 0.45463 0.70207 0.84199 0.0
H788 H 0.60648 0.36574 0.77574 0.0
H789 H 0.41756 0.58356 0.84618 0.0
H790 H 0.53213 0.37796 0.75077 0.0
O791 O 0.60868 0.66604 0.84451 0.0
H792 H 0.7983 0.52196 0.84888 0.0
H793 H 0.72872 0.76705 0.84327 0.0
H794 H 0.79327 0.74133 0.8734 0.0
H795 H 0.82867 0.61812 0.87632 0.0
H796 H 0.73329 0.54965 0.81918 0.0
H797 H 0.80151 0.82731 0.78895 0.0
H798 H 0.75735 0.94154 0.77967 0.0
O799 O 0.64959 0.73896 0.8275 0.0
C800 C 0.57977 0.69918 0.78403 0.0
C801 C 0.69737 0.89338 0.78564 0.0
C802 C 0.76687 0.82874 0.78988 0.0
N803 N 0.70289 0.76771 0.79764 0.0
C804 C 0.67821 0.82985 0.79205 0.0
C805 C 0.74656 0.7663 0.79623 0.0
C806 C 0.74208 0.89277 0.78466 0.0
C807 C 0.59722 0.45981 0.79528 0.0
N808 N 0.56935 0.51494 0.79863 0.0
C809 C 0.58421 0.40943 0.77818 0.0
C810 C 0.54257 0.41643 0.76414 0.0
C811 C 0.51467 0.47374 0.76727 0.0
C812 C 0.52878 0.52293 0.78458 0.0
C813 C 0.47017 0.51857 0.83817 0.0
C814 C 0.51135 0.65047 0.83325 0.0
C815 C 0.51135 0.52052 0.83227 0.0
N816 N 0.53121 0.586 0.82959 0.0
C817 C 0.47017 0.65071 0.83918 0.0
C818 C 0.44945 0.58422 0.84158 0.0
C819 C 0.62819 0.72725 0.8426 0.0
C820 C 0.7832 0.57588 0.84778 0.0
C821 C 0.74356 0.713 0.84453 0.0
C822 C 0.7803 0.69891 0.86158 0.0
C823 C 0.80018 0.62981 0.86319 0.0
N824 N 0.72703 0.65977 0.82948 0.0
C825 C 0.74644 0.59197 0.83094 0.0
Co826 Co 0.32058 0.44104 0.56563 0.0
Co827 Co 0.4051 0.33912 0.55254 0.0
O828 O 0.37909 0.43217 0.55876 0.0
C829 C 0.33782 0.54679 0.60373 0.0
O830 O 0.31444 0.50442 0.61399 0.0
C831 C 0.43818 0.45472 0.52441 0.0
O832 O 0.41495 0.5061 0.53142 0.0
O833 O 0.3511 0.32024 0.52867 0.0
O834 O 0.29658 0.35642 0.5455 0.0
H835 H 0.40459 0.06762 0.53699 0.0
H836 H 0.35995 0.57617 0.55069 0.0
O837 O 0.34508 0.52739 0.58513 0.0
H838 H 0.22139 0.53349 0.49543 0.0
H839 H 0.18422 0.58171 0.57499 0.0
H840 H 0.25849 0.34156 0.58218 0.0
H841 H 0.24314 0.45075 0.52725 0.0
H842 H 0.2567 0.56659 0.56535 0.0
O843 O 0.43608 0.38808 0.53055 0.0
H844 H 0.3732 0.1848 0.54613 0.0
H845 H 0.49345 0.29448 0.54432 0.0
H846 H 0.1857 0.35319 0.59176 0.0
H847 H 0.33919 0.66053 0.5192 0.0
H848 H 0.14785 0.4744 0.58826 0.0
H849 H 0.26952 0.63941 0.49123 0.0
O850 O 0.33955 0.36909 0.59068 0.0
H851 H 0.52064 0.49673 0.60133 0.0
H852 H 0.46038 0.24661 0.58764 0.0
H853 H 0.524 0.26834 0.61848 0.0
H854 H 0.55471 0.39416 0.62552 0.0
H855 H 0.4577 0.47252 0.57046 0.0
H856 H 0.52628 0.17883 0.53496 0.0
H857 H 0.48185 0.06408 0.5313 0.0
O858 O 0.3764 0.2865 0.5743 0.0
C859 C 0.31017 0.32318 0.52999 0.0
C860 C 0.42429 0.11725 0.53849 0.0
C861 C 0.49251 0.17964 0.53731 0.0
N862 N 0.431 0.24678 0.54563 0.0
C863 C 0.40651 0.18384 0.54365 0.0
C864 C 0.47357 0.24519 0.54248 0.0
C865 C 0.46761 0.11529 0.53529 0.0
C866 C 0.32954 0.56643 0.53865 0.0
N867 N 0.30311 0.50794 0.5408 0.0
C868 C 0.31797 0.6145 0.52082 0.0
C869 C 0.2789 0.60261 0.50513 0.0
C870 C 0.25191 0.5432 0.50747 0.0
C871 C 0.2646 0.49617 0.52548 0.0
C872 C 0.20027 0.52851 0.57657 0.0
C873 C 0.24241 0.39377 0.58036 0.0
C874 C 0.24163 0.51959 0.57117 0.0
N875 N 0.26235 0.45265 0.57301 0.0
C876 C 0.20106 0.40041 0.58593 0.0
C877 C 0.17989 0.46836 0.58399 0.0
C878 C 0.35703 0.30539 0.58966 0.0
C879 C 0.50798 0.44146 0.59825 0.0
C880 C 0.47412 0.30127 0.59017 0.0
C881 C 0.50998 0.31332 0.60783 0.0
C882 C 0.52706 0.38393 0.61183 0.0
N883 N 0.45629 0.35757 0.57648 0.0
C884 C 0.47226 0.42726 0.58068 0.0
Co885 Co 0.43957 0.45911 0.18518 0.0
Co886 Co 0.34893 0.36179 0.19399 0.0
O887 O 0.37863 0.45212 0.1889 0.0
C888 C 0.39897 0.5492 0.14456 0.0
O889 O 0.38344 0.48949 0.13385 0.0
C890 C 0.31917 0.4051 0.23505 0.0
O891 O 0.34501 0.3537 0.2458 0.0
O892 O 0.40047 0.33392 0.21853 0.0
O893 O 0.45958 0.37676 0.20646 0.0
H894 H 0.33377 0.09041 0.20652 0.0
H895 H 0.39256 0.59005 0.19732 0.0
O896 O 0.4213 0.5451 0.16437 0.0
H897 H 0.52562 0.56128 0.25716 0.0
H898 H 0.57613 0.60304 0.17962 0.0
H899 H 0.51099 0.35667 0.17814 0.0
H900 H 0.51138 0.47566 0.22575 0.0
H901 H 0.49955 0.58665 0.18438 0.0
O902 O 0.31883 0.41753 0.21482 0.0
H903 H 0.37262 0.20312 0.1998 0.0
H904 H 0.25675 0.32925 0.19882 0.0
H905 H 0.58756 0.36968 0.17324 0.0
H906 H 0.40562 0.67696 0.22841 0.0
H907 H 0.62082 0.49403 0.17396 0.0
H908 H 0.47259 0.66295 0.25861 0.0
O909 O 0.42643 0.38309 0.16077 0.0
H910 H 0.23378 0.53258 0.1509 0.0
H911 H 0.29612 0.28229 0.15511 0.0
H912 H 0.23337 0.31461 0.12466 0.0
H913 H 0.20164 0.44049 0.12247 0.0
H914 H 0.29684 0.49819 0.18094 0.0
H915 H 0.21622 0.21805 0.20541 0.0
H916 H 0.25475 0.09739 0.20937 0.0
O917 O 0.37801 0.3074 0.17267 0.0
C918 C 0.44237 0.33785 0.21952 0.0
C919 C 0.31664 0.14268 0.20495 0.0
C920 C 0.2507 0.21424 0.20429 0.0
N921 N 0.31758 0.27301 0.19925 0.0
C922 C 0.33874 0.20679 0.20124 0.0
C923 C 0.27395 0.27714 0.20065 0.0
C924 C 0.27232 0.1466 0.20652 0.0
C925 C 0.42196 0.58383 0.21031 0.0
N926 N 0.45138 0.52819 0.20957 0.0
C927 C 0.42911 0.63313 0.22791 0.0
C928 C 0.46665 0.62517 0.24487 0.0
C929 C 0.49643 0.56818 0.24405 0.0
C930 C 0.48814 0.5198 0.22622 0.0
C931 C 0.56204 0.54853 0.1792 0.0
C932 C 0.52482 0.41032 0.17828 0.0
C933 C 0.51857 0.5388 0.18184 0.0
N934 N 0.50027 0.47024 0.18125 0.0
C935 C 0.56842 0.41771 0.17559 0.0
C936 C 0.58707 0.48742 0.17602 0.0
C937 C 0.40452 0.32237 0.15999 0.0
C938 C 0.24721 0.47748 0.15171 0.0
C939 C 0.28261 0.33727 0.15423 0.0
C940 C 0.24701 0.3552 0.13697 0.0
C941 C 0.22924 0.42582 0.13575 0.0
N942 N 0.30002 0.38818 0.16986 0.0
C943 C 0.28292 0.45767 0.1687 0.0
C944 C 0.26158 0.31865 0.49164 0.0
C945 C 0.27589 0.28619 0.51276 0.0
C946 C 0.21568 0.19553 0.50386 0.0
C947 C 0.20304 0.22468 0.48234 0.0
N948 N 0.21631 0.30863 0.45451 0.0
N949 N 0.27422 0.18221 0.53633 0.0
C950 C 0.2267 0.28485 0.47587 0.0
C951 C 0.25486 0.22166 0.51818 0.0
N952 N 0.28084 0.38234 0.4868 0.0
N953 N 0.19034 0.14252 0.51066 0.0
H954 H 0.30403 0.19829 0.54646 0.0
H955 H 0.26358 0.13033 0.53996 0.0
H956 H 0.16181 0.12112 0.50049 0.0
H957 H 0.19531 0.12461 0.52692 0.0
H958 H 0.26869 0.41367 0.47279 0.0
H959 H 0.30789 0.40634 0.49747 0.0
H960 H 0.23545 0.34592 0.44793 0.0
H961 H 0.18944 0.28808 0.44292 0.0
C962 C 0.98413 0.92343 0.49487 0.0
C963 C 0.96415 0.96896 0.50857 0.0
C964 C 0.01188 0.07186 0.50248 0.0
C965 C 0.0293 0.02799 0.48748 0.0
N966 N 0.02804 0.91546 0.46694 0.0
N967 N 0.95691 0.08735 0.52476 0.0
C968 C 0.01465 0.95445 0.48315 0.0
C969 C 0.9773 0.04358 0.51208 0.0
N970 N 0.97393 0.85031 0.49305 0.0
N971 N 0.02998 0.13946 0.50831 0.0
H972 H 0.93449 0.0673 0.53364 0.0
H973 H 0.96044 0.14413 0.52572 0.0
H974 H 0.05569 0.16144 0.50186 0.0
H975 H 0.0223 0.17161 0.5208 0.0
H976 H 0.99152 0.81224 0.48581 0.0
H977 H 0.94934 0.82643 0.4999 0.0
H978 H 0.01466 0.86501 0.46111 0.0
H979 H 0.05029 0.9359 0.45799 0.0
C980 C 0.23604 0.98269 0.72979 0.0
C981 C 0.283 0.99181 0.73529 0.0
C982 C 0.27691 0.05253 0.76988 0.0
C983 C 0.2297 0.04774 0.76369 0.0
N984 N 0.16418 0.02111 0.7358 0.0
N985 N 0.34802 0.04266 0.75934 0.0
C986 C 0.20927 0.01596 0.74315 0.0
C987 C 0.30329 0.02929 0.75491 0.0
N988 N 0.2168 0.94239 0.71173 0.0
N989 N 0.29688 0.07542 0.79055 0.0
H990 H 0.36929 0.02107 0.75 0.0
H991 H 0.36385 0.0785 0.77158 0.0
H992 H 0.2792 0.09368 0.80192 0.0
H993 H 0.33085 0.0712 0.79713 0.0
H994 H 0.18375 0.92557 0.70843 0.0
H995 H 0.23451 0.9213 0.70071 0.0
H996 H 0.14751 1.00647 0.72 0.0
H997 H 0.14356 0.04683 0.74475 0.0
C998 C 0.02781 0.31601 0.76784 0.0
C999 C 0.04602 0.2456 0.76563 0.0
C1000 C 0.98943 0.22537 0.7317 0.0
C1001 C 0.97024 0.2949 0.73438 0.0
N1002 N 0.96662 0.40127 0.75684 0.0
N1003 N 0.05043 0.13925 0.74338 0.0
C1004 C 0.98827 0.3388 0.75297 0.0
C1005 C 0.02851 0.20188 0.74694 0.0
N1006 N 0.05011 0.36307 0.78336 0.0
N1007 N 0.96884 0.18027 0.71515 0.0
H1008 H 0.07913 0.12093 0.75421 0.0
H1009 H 0.0425 0.10808 0.72906 0.0
H1010 H 0.94041 0.19636 0.70394 0.0
H1011 H 0.97755 0.12578 0.71339 0.0
H1012 H 0.04194 0.41818 0.78447 0.0
H1013 H 0.07981 0.34831 0.79379 0.0
H1014 H 0.97484 0.43146 0.77135 0.0
H1015 H 0.93794 0.41999 0.74617 0.0
C1016 C 0.76306 0.72425 0.51759 0.0
C1017 C 0.78283 0.79065 0.51254 0.0
C1018 C 0.73411 0.78999 0.47559 0.0
C1019 C 0.71211 0.72691 0.48142 0.0
N1020 N 0.70162 0.6385 0.50864 0.0
N1021 N 0.78383 0.8921 0.48781 0.0
C1022 C 0.7253 0.6956 0.50267 0.0
C1023 C 0.76746 0.82499 0.4918 0.0
N1024 N 0.78161 0.68691 0.53633 0.0
N1025 N 0.72363 0.81566 0.45443 0.0
H1026 H 0.80918 0.91809 0.49901 0.0
H1027 H 0.77039 0.92431 0.47416 0.0
H1028 H 0.69788 0.79401 0.44241 0.0
H1029 H 0.74203 0.8555 0.44837 0.0
H1030 H 0.77257 0.63391 0.53981 0.0
H1031 H 0.80877 0.70706 0.54768 0.0
H1032 H 0.70644 0.61847 0.52465 0.0
H1033 H 0.67467 0.61435 0.49793 0.0
C1034 C 0.74035 0.07342 0.24575 0.0
C1035 C 0.72302 0.03142 0.26117 0.0
C1036 C 0.77087 0.9274 0.25607 0.0
C1037 C 0.79054 0.97119 0.24184 0.0
N1038 N 0.7957 0.08665 0.22359 0.0
N1039 N 0.72533 0.92226 0.28334 0.0
C1040 C 0.7759 0.04462 0.23693 0.0
C1041 C 0.73895 0.95917 0.26683 0.0
N1042 N 0.72128 0.13959 0.23879 0.0
N1043 N 0.78264 0.85514 0.25928 0.0
H1044 H 0.70178 0.94301 0.29148 0.0
H1045 H 0.73953 0.8734 0.29018 0.0
H1046 H 0.80829 0.83116 0.25322 0.0
H1047 H 0.76548 0.81764 0.26693 0.0
H1048 H 0.72892 0.17021 0.226 0.0
H1049 H 0.69491 0.16182 0.24469 0.0
H1050 H 0.79106 0.14301 0.22156 0.0
H1051 H 0.81864 0.0657 0.21515 0.0
C1052 C 0.99099 0.82496 0.25847 0.0
C1053 C 0.97406 0.79229 0.23765 0.0
C1054 C 0.03192 0.69684 0.24578 0.0
C1055 C 0.04656 0.72598 0.26721 0.0
N1056 N 0.03725 0.81243 0.29523 0.0
N1057 N 0.97393 0.69137 0.21269 0.0
C1058 C 0.02531 0.78867 0.27391 0.0
C1059 C 0.99341 0.72668 0.23165 0.0
N1060 N 0.97499 0.89157 0.26327 0.0
N1061 N 0.05512 0.6409 0.23885 0.0
H1062 H 0.94669 0.71293 0.20165 0.0
H1063 H 0.98256 0.63869 0.20863 0.0
H1064 H 0.08295 0.6169 0.24892 0.0
H1065 H 0.04917 0.62226 0.22266 0.0
H1066 H 0.98938 0.92267 0.277 0.0
H1067 H 0.94878 0.91814 0.25271 0.0
H1068 H 0.01958 0.85178 0.30194 0.0
H1069 H 0.0636 0.78965 0.30668 0.0
C1070 C 0.28288 0.84251 0.99728 0.0
C1071 C 0.3001 0.80629 0.01747 0.0
C1072 C 0.24608 0.70622 0.00675 0.0
C1073 C 0.22719 0.74456 0.98706 0.0
N1074 N 0.22277 0.85444 0.96525 0.0
N1075 N 0.29556 0.70835 0.04289 0.0
C1076 C 0.24435 0.81416 0.98281 0.0
C1077 C 0.28095 0.73939 0.02261 0.0
N1078 N 0.30381 0.90361 0.99178 0.0
N1079 N 0.23131 0.63731 0.01004 0.0
H1080 H 0.32221 0.72937 0.05447 0.0
H1081 H 0.27993 0.66452 0.04879 0.0
H1082 H 0.20452 0.61299 0.99933 0.0
H1083 H 0.247 0.60239 0.02259 0.0
H1084 H 0.29613 0.92814 0.9763 0.0
H1085 H 0.33138 0.92688 0.00222 0.0
H1086 H 0.22985 0.90908 0.96254 0.0
H1087 H 0.19525 0.83434 0.95419 0.0
C1088 C 0.03567 0.48339 0.98936 0.0
C1089 C 0.04842 0.55795 0.9934 0.0
C1090 C 0.99602 0.57014 0.01796 0.0
C1091 C 0.98153 0.49694 0.01292 0.0
N1092 N 0.98215 0.3872 0.99141 0.0
N1093 N 0.03735 0.67541 0.00932 0.0
C1094 C 1.00008 0.45434 0.99803 0.0
C1095 C 0.02739 0.6023 0.00696 0.0
N1096 N 0.05742 0.44037 0.97709 0.0
N1097 N 0.98162 0.60764 0.03415 0.0
H1098 H 0.06245 0.70001 0.00299 0.0
H1099 H 0.01915 0.71272 0.01648 0.0
H1100 H 0.95867 0.58626 0.04255 0.0
H1101 H 0.99478 0.65769 0.04048 0.0
H1102 H 0.05392 0.38363 0.97583 0.0
H1103 H 0.08113 0.4608 0.96905 0.0
H1104 H 0.99076 0.35618 0.97894 0.0
H1105 H 0.95562 0.36475 0.99711 0.0
C1106 C 0.25751 0.4043 0.25613 0.0
C1107 C 0.28675 0.44454 0.24571 0.0
C1108 C 0.24826 0.5587 0.25186 0.0
C1109 C 0.22216 0.51907 0.26413 0.0
N1110 N 0.2106 0.40658 0.28262 0.0
N1111 N 0.31551 0.56212 0.23761 0.0
C1112 C 0.22916 0.44253 0.26756 0.0
C1113 C 0.28363 0.52243 0.24465 0.0
N1114 N 0.25512 0.32955 0.25441 0.0
N1115 N 0.23841 0.63046 0.24647 0.0
H1116 H 0.34264 0.53788 0.23288 0.0
H1117 H 0.31757 0.61914 0.23857 0.0
H1118 H 0.21246 0.65856 0.25116 0.0
H1119 H 0.25321 0.66002 0.23566 0.0
H1120 H 0.23071 0.29876 0.25951 0.0
H1121 H 0.27444 0.29862 0.24598 0.0
H1122 H 0.21841 0.35252 0.28746 0.0
H1123 H 0.19127 0.43286 0.2921 0.0
C1124 C 0.75114 0.29728 0.98416 0.0
C1125 C 0.73298 0.22871 0.98858 0.0
C1126 C 0.78721 0.2216 0.02395 0.0
C1127 C 0.80692 0.28811 0.01881 0.0
N1128 N 0.81077 0.38623 0.99329 0.0
N1129 N 0.73555 0.12182 0.01157 0.0
C1130 C 0.78986 0.32486 0.99865 0.0
C1131 C 0.75148 0.1899 0.00823 0.0
N1132 N 0.73023 0.33744 0.96641 0.0
N1133 N 0.8024 0.18927 0.04404 0.0
H1134 H 0.70808 0.09878 0.00098 0.0
H1135 H 0.75071 0.08632 0.02407 0.0
H1136 H 0.83041 0.20766 0.05531 0.0
H1137 H 0.78631 0.14625 0.05006 0.0
H1138 H 0.73769 0.39182 0.96361 0.0
H1139 H 0.70301 0.31745 0.9551 0.0
H1140 H 0.80351 0.41064 0.9778 0.0
H1141 H 0.83764 0.41062 0.00392 0.0
C1142 C 0.73989 0.5799 0.74465 0.0
C1143 C 0.72168 0.53685 0.7596 0.0
C1144 C 0.76875 0.43225 0.7539 0.0
C1145 C 0.78746 0.47566 0.73921 0.0
N1146 N 0.7862 0.58591 0.71766 0.0
N1147 N 0.72284 0.42633 0.78105 0.0
C1148 C 0.77208 0.5485 0.73396 0.0
C1149 C 0.73679 0.46379 0.76471 0.0
N1150 N 0.72669 0.6514 0.74091 0.0
N1151 N 0.78128 0.36034 0.7573 0.0
H1152 H 0.69981 0.44735 0.78946 0.0
H1153 H 0.73614 0.3765 0.78752 0.0
H1154 H 0.80691 0.3368 0.75113 0.0
H1155 H 0.765 0.32254 0.76528 0.0
H1156 H 0.74254 0.68929 0.73274 0.0
H1157 H 0.70058 0.67446 0.74682 0.0
H1158 H 0.77311 0.63582 0.71117 0.0
H1159 H 0.80923 0.56469 0.70929 0.0
C1160 C 0.536 0.97549 0.98892 0.0
C1161 C 0.55008 0.04935 0.99339 0.0
C1162 C 0.49818 0.06232 0.01818 0.0
C1163 C 0.48224 0.99008 0.01268 0.0
N1164 N 0.48156 0.8806 0.99096 0.0
N1165 N 0.54159 0.16607 0.01034 0.0
C1166 C 0.5002 0.94719 0.99765 0.0
C1167 C 0.53009 0.09368 0.00738 0.0
N1168 N 0.55663 0.93252 0.97614 0.0
N1169 N 0.48459 0.09957 0.03464 0.0
H1170 H 0.56736 0.1898 0.00433 0.0
H1171 H 0.52411 0.20383 0.01775 0.0
H1172 H 0.46151 0.07858 0.043 0.0
H1173 H 0.49863 0.14869 0.0413 0.0
H1174 H 0.55222 0.87603 0.97445 0.0
H1175 H 0.58015 0.95271 0.96795 0.0
H1176 H 0.48962 0.84942 0.97838 0.0
H1177 H 0.45519 0.8585 0.99686 0.0
C1178 C 0.49082 0.32851 0.25767 0.0
C1179 C 0.47397 0.29611 0.2368 0.0
C1180 C 0.53013 0.19825 0.24527 0.0
C1181 C 0.54603 0.2289 0.26639 0.0
N1182 N 0.53814 0.3168 0.29426 0.0
N1183 N 0.47021 0.19107 0.21311 0.0
C1184 C 0.52535 0.29229 0.27306 0.0
C1185 C 0.49161 0.22841 0.23129 0.0
N1186 N 0.47414 0.39438 0.26264 0.0
N1187 N 0.5522 0.14067 0.23842 0.0
H1188 H 0.44241 0.21232 0.20244 0.0
H1189 H 0.47774 0.1373 0.20955 0.0
H1190 H 0.58007 0.11629 0.24838 0.0
H1191 H 0.54521 0.12097 0.22233 0.0
H1192 H 0.48834 0.42579 0.27633 0.0
H1193 H 0.44684 0.41951 0.25241 0.0
H1194 H 0.52128 0.35716 0.30103 0.0
H1195 H 0.56453 0.29375 0.30562 0.0
C1196 C 0.48611 0.82879 0.75568 0.0
C1197 C 0.47523 0.79833 0.7343 0.0
C1198 C 0.53619 0.70913 0.74473 0.0
C1199 C 0.54491 0.73555 0.76674 0.0
N1200 N 0.51897 0.80883 0.79401 0.0
N1201 N 0.48197 0.69735 0.71045 0.0
C1202 C 0.51717 0.79189 0.77249 0.0
C1203 C 0.49832 0.73542 0.72931 0.0
N1204 N 0.46773 0.8941 0.75992 0.0
N1205 N 0.56313 0.65734 0.73854 0.0
H1206 H 0.45257 0.71264 0.69974 0.0
H1207 H 0.49422 0.64662 0.7068 0.0
H1208 H 0.58888 0.63165 0.74954 0.0
H1209 H 0.56155 0.6431 0.72218 0.0
H1210 H 0.47857 0.92336 0.77448 0.0
H1211 H 0.44439 0.92242 0.74817 0.0
H1212 H 0.49614 0.8433 0.79909 0.0
H1213 H 0.54033 0.78314 0.80699 0.0
C1214 C 0.51461 0.46802 0.51607 0.0
C1215 C 0.46763 0.47524 0.50923 0.0
C1216 C 0.47662 0.53533 0.47504 0.0
C1217 C 0.52348 0.52532 0.48146 0.0
N1218 N 0.58706 0.47509 0.50679 0.0
N1219 N 0.40339 0.50384 0.48081 0.0
C1220 C 0.54238 0.48922 0.50155 0.0
C1221 C 0.44852 0.50606 0.48837 0.0
N1222 N 0.53294 0.44437 0.5369 0.0
N1223 N 0.4588 0.57241 0.45608 0.0
H1224 H 0.38185 0.4817 0.48991 0.0
H1225 H 0.38729 0.51787 0.46486 0.0
H1226 H 0.47741 0.58895 0.44488 0.0
H1227 H 0.426 0.59044 0.45192 0.0
H1228 H 0.56674 0.44676 0.54401 0.0
H1229 H 0.51404 0.42661 0.54781 0.0
H1230 H 0.60211 0.44022 0.5195 0.0
H1231 H 0.60919 0.49516 0.4977 0.0
C1232 C 0.15406 0.78903 0.37198 0.0
C1233 C 0.11348 0.75902 0.36053 0.0
C1234 C 0.0755 0.86579 0.37279 0.0
C1235 C 0.11718 0.90207 0.37953 0.0
N1236 N 0.19587 0.90055 0.3802 0.0
N1237 N 0.03369 0.76541 0.35263 0.0
C1238 C 0.15645 0.86417 0.37774 0.0
C1239 C 0.0735 0.79649 0.36166 0.0
N1240 N 0.19008 0.74456 0.3782 0.0
N1241 N 0.03837 0.89494 0.37812 0.0
H1242 H 0.03129 0.7099 0.349 0.0
H1243 H 1.00367 0.79393 0.34951 0.0
H1244 H 0.03882 0.94344 0.38701 0.0
H1245 H 0.00795 0.86787 0.37553 0.0
H1246 H 0.21986 0.76276 0.38813 0.0
H1247 H 0.1878 0.68797 0.37545 0.0
H1248 H 0.22467 0.87531 0.37758 0.0
H1249 H 0.19821 0.9574 0.3821 0.0
C1250 C 0.17579 0.29593 0.38748 0.0
C1251 C 0.13589 0.25822 0.38852 0.0
C1252 C 0.09266 0.36317 0.37123 0.0
C1253 C 0.13185 0.40125 0.36948 0.0
N1254 N 0.21065 0.394 0.3708 0.0
N1255 N 0.05933 0.24345 0.37082 0.0
C1256 C 0.17361 0.36504 0.37623 0.0
C1257 C 0.09526 0.28801 0.37698 0.0
N1258 N 0.21569 0.26547 0.39678 0.0
N1259 N 0.05316 0.39942 0.36883 0.0
H1260 H 0.06168 0.18691 0.37369 0.0
H1261 H 0.02951 0.26154 0.36086 0.0
H1262 H 0.05069 0.4563 0.36705 0.0
H1263 H 0.02441 0.374 0.37142 0.0
H1264 H 0.24554 0.29436 0.39988 0.0
H1265 H 0.21835 0.21023 0.40078 0.0
H1266 H 0.24109 0.36688 0.37343 0.0
H1267 H 0.21004 0.44217 0.36173 0.0
C1268 C 0.15 0.28394 0.88186 0.0
C1269 C 0.12002 0.28692 0.86109 0.0
C1270 C 0.09414 0.40916 0.87009 0.0
C1271 C 0.12633 0.40854 0.89026 0.0
N1272 N 0.18504 0.34604 0.9157 0.0
N1273 N 0.06353 0.35058 0.83502 0.0
C1274 C 0.1543 0.34601 0.89623 0.0
C1275 C 0.09184 0.34891 0.8552 0.0
N1276 N 0.17374 0.22091 0.88794 0.0
N1277 N 0.06591 0.46784 0.86512 0.0
H1278 H 0.05966 0.30606 0.82434 0.0
H1279 H 0.04499 0.39601 0.82834 0.0
H1280 H 0.06907 0.51573 0.8745 0.0
H1281 H 0.03824 0.46908 0.85215 0.0
H1282 H 0.19354 0.21135 0.90347 0.0
H1283 H 0.17166 0.17514 0.87769 0.0
H1284 H 0.21015 0.30725 0.92012 0.0
H1285 H 0.1866 0.38703 0.92743 0.0
C1286 C 0.17628 0.84958 0.89738 0.0
C1287 C 0.14784 0.78777 0.89257 0.0
C1288 C 0.11061 0.84625 0.8577 0.0
C1289 C 0.13638 0.91091 0.86374 0.0
N1290 N 0.18851 0.97839 0.89108 0.0
N1291 N 0.0868 0.72703 0.86852 0.0
C1292 C 0.16789 0.91355 0.88403 0.0
C1293 C 0.11477 0.78597 0.87275 0.0
N1294 N 0.21249 0.84616 0.91436 0.0
N1295 N 0.08329 0.84137 0.8373 0.0
H1296 H 0.09085 0.6801 0.87838 0.0
H1297 H 0.05837 0.72569 0.85595 0.0
H1298 H 0.07802 0.88489 0.82625 0.0
H1299 H 0.06774 0.79321 0.83074 0.0
H1300 H 0.23756 0.88553 0.91728 0.0
H1301 H 0.21932 0.80015 0.92433 0.0
H1302 H 0.20807 0.98595 0.90682 0.0
H1303 H 0.18268 0.02696 0.88202 0.0
C1304 C 0.91988 0.18353 0.64542 0.0
C1305 C 0.89165 0.24547 0.6399 0.0
C1306 C 0.85795 0.18727 0.60453 0.0
C1307 C 0.88294 0.12208 0.61121 0.0
N1308 N 0.93265 0.05444 0.63964 0.0
N1309 N 0.83143 0.30508 0.61485 0.0
C1310 C 0.91273 0.1194 0.63206 0.0
C1311 C 0.86014 0.2471 0.61956 0.0
N1312 N 0.95456 0.18679 0.66319 0.0
N1313 N 0.83339 0.19335 0.58353 0.0
H1314 H 0.83369 0.35158 0.62481 0.0
H1315 H 0.80378 0.30545 0.60181 0.0
H1316 H 0.83017 0.15082 0.57222 0.0
H1317 H 0.81883 0.24208 0.57676 0.0
H1318 H 0.97949 0.14719 0.66679 0.0
H1319 H 0.96046 0.2328 0.67324 0.0
H1320 H 0.95076 0.04694 0.65569 0.0
H1321 H 0.92765 1.0058 0.6306 0.0
C1322 C 0.83221 0.62263 0.6162 0.0
C1323 C 0.86418 0.62379 0.63637 0.0
C1324 C 0.8871 0.74821 0.62746 0.0
C1325 C 0.85409 0.74746 0.60763 0.0
N1326 N 0.78751 0.69273 0.58652 0.0
N1327 N 0.91713 0.69286 0.66305 0.0
C1328 C 0.8244 0.68718 0.60303 0.0
C1329 C 0.89036 0.68805 0.64251 0.0
N1330 N 0.81063 0.55871 0.60901 0.0
N1331 N 0.91581 0.80617 0.63175 0.0
H1332 H 0.92105 0.65001 0.67429 0.0
H1333 H 0.93307 0.74075 0.6696 0.0
H1334 H 0.91234 0.85318 0.62194 0.0
H1335 H 0.94424 0.80652 0.64434 0.0
H1336 H 0.79068 0.55237 0.59331 0.0
H1337 H 0.81598 0.50971 0.61788 0.0
H1338 H 0.76187 0.65437 0.58374 0.0
H1339 H 0.78074 0.73983 0.57703 0.0
C1340 C 0.86604 0.67934 0.11046 0.0
C1341 C 0.89694 0.62046 0.11627 0.0
C1342 C 0.93584 0.69113 0.14827 0.0
C1343 C 0.90218 0.74568 0.14408 0.0
N1344 N 0.83571 0.79416 0.12088 0.0
N1345 N 0.95717 0.56578 0.1427 0.0
C1346 C 0.86745 0.74046 0.12501 0.0
C1347 C 0.93087 0.62538 0.13567 0.0
N1348 N 0.83642 0.67828 0.09065 0.0
N1349 N 0.97358 0.70342 0.16381 0.0
H1350 H 0.95396 0.51589 0.13428 0.0
H1351 H 0.97917 0.56332 0.15798 0.0
H1352 H 0.97805 0.75137 0.17296 0.0
H1353 H 1.00163 0.66995 0.1661 0.0
H1354 H 0.8166 0.72262 0.08411 0.0
H1355 H 0.83334 0.63404 0.07994 0.0
H1356 H 0.80628 0.79006 0.10902 0.0
H1357 H 0.83808 0.8425 0.13006 0.0
C1358 C 0.87703 0.10079 0.1161 0.0
C1359 C 0.86929 0.11569 0.13716 0.0
C1360 C 0.88352 0.24697 0.13226 0.0
C1361 C 0.89051 0.23263 0.11074 0.0
N1362 N 0.9149 0.13838 0.08822 0.0
N1363 N 0.85582 0.20389 0.16372 0.0
C1364 C 0.89266 0.15754 0.10408 0.0
C1365 C 0.86969 0.18913 0.14477 0.0
N1366 N 0.86912 0.03184 0.10747 0.0
N1367 N 0.89506 0.31382 0.14178 0.0
H1368 H 0.84454 0.16318 0.1729 0.0
H1369 H 0.85085 0.25675 0.16906 0.0
H1370 H 0.9115 0.35366 0.13453 0.0
H1371 H 0.89447 0.3262 0.15804 0.0
H1372 H 0.86889 0.01939 0.0911 0.0
H1373 H 0.85784 0.98901 0.11598 0.0
H1374 H 0.91879 0.08447 0.08341 0.0
H1375 H 0.93763 0.1728 0.08336 0.0
C1376 C 0.6205 0.86345 0.85088 0.0
C1377 C 0.62643 0.78912 0.85851 0.0
C1378 C 0.62572 0.8331 0.89585 0.0
C1379 C 0.62543 0.90711 0.88858 0.0
N1380 N 0.62911 0.99302 0.85961 0.0
N1381 N 0.6468 0.70803 0.88989 0.0
C1382 C 0.62513 0.92224 0.86627 0.0
C1383 C 0.63213 0.77511 0.88145 0.0
N1384 N 0.60799 0.87854 0.82893 0.0
N1385 N 0.61989 0.81771 0.9165 0.0
H1386 H 0.6555 0.66566 0.88039 0.0
H1387 H 0.65561 0.69735 0.90674 0.0
H1388 H 0.61494 0.85825 0.9275 0.0
H1389 H 0.61545 0.76457 0.92185 0.0
H1390 H 0.59814 0.93043 0.82267 0.0
H1391 H 0.60275 0.83835 0.81693 0.0
H1392 H 0.63515 1.00648 0.84424 0.0
H1393 H 0.62955 0.03825 0.86993 0.0
C1394 C 0.62132 0.28253 0.875 0.0
C1395 C 0.65496 0.28194 0.8946 0.0
C1396 C 0.67816 0.40598 0.88599 0.0
C1397 C 0.64585 0.40581 0.86592 0.0
N1398 N 0.59048 0.33924 0.83975 0.0
N1399 N 0.72226 0.33483 0.91563 0.0
C1400 C 0.61834 0.34281 0.86002 0.0
C1401 C 0.68534 0.34134 0.89916 0.0
N1402 N 0.59172 0.22573 0.87088 0.0
N1403 N 0.70073 0.46917 0.89305 0.0
H1404 H 0.7286 0.28775 0.92516 0.0
H1405 H 0.74834 0.37236 0.91837 0.0
H1406 H 0.69581 0.51817 0.88416 0.0
H1407 H 0.72108 0.4751 0.90867 0.0
H1408 H 0.56283 0.22661 0.85857 0.0
H1409 H 0.59489 0.17846 0.88058 0.0
H1410 H 0.57377 0.29195 0.83322 0.0
H1411 H 0.58604 0.38265 0.82871 0.0
C1412 C 0.57798 0.30587 0.35958 0.0
C1413 C 0.61699 0.26445 0.35935 0.0
C1414 C 0.66236 0.36571 0.37747 0.0
C1415 C 0.62389 0.40696 0.37867 0.0
N1416 N 0.54453 0.40595 0.37604 0.0
N1417 N 0.6927 0.24356 0.37772 0.0
C1418 C 0.58136 0.37422 0.37117 0.0
C1419 C 0.65801 0.29079 0.3715 0.0
N1420 N 0.53776 0.28022 0.34882 0.0
N1421 N 0.70285 0.39888 0.3804 0.0
H1422 H 0.68927 0.18744 0.37432 0.0
H1423 H 0.72258 0.25917 0.38811 0.0
H1424 H 0.7066 0.45562 0.38205 0.0
H1425 H 0.73123 0.3712 0.37823 0.0
H1426 H 0.50894 0.31197 0.34548 0.0
H1427 H 0.53398 0.22664 0.34325 0.0
H1428 H 0.51337 0.38114 0.37279 0.0
H1429 H 0.54592 0.45371 0.38532 0.0
C1430 C 0.60085 0.79945 0.37793 0.0
C1431 C 0.64142 0.76499 0.38746 0.0
C1432 C 0.67996 0.86776 0.37353 0.0
C1433 C 0.63942 0.90834 0.36885 0.0
N1434 N 0.56259 0.91501 0.37177 0.0
N1435 N 0.72067 0.76163 0.39096 0.0
C1436 C 0.6002 0.87469 0.37247 0.0
C1437 C 0.68148 0.79785 0.38434 0.0
N1438 N 0.56301 0.75882 0.37299 0.0
N1439 N 0.71608 0.8934 0.36644 0.0
H1440 H 0.72153 0.70542 0.39364 0.0
H1441 H 0.75164 0.78656 0.39276 0.0
H1442 H 0.71577 0.94243 0.3578 0.0
H1443 H 0.74519 0.86336 0.36744 0.0
H1444 H 0.53283 0.7803 0.36436 0.0
H1445 H 0.56379 0.70193 0.37518 0.0
H1446 H 0.53418 0.89282 0.37579 0.0
H1447 H 0.56172 0.97189 0.36974 0.0
C1448 C 0.37513 0.26266 0.12309 0.0
C1449 C 0.40776 0.26518 0.14304 0.0
C1450 C 0.43344 0.14152 0.13529 0.0
C1451 C 0.40221 0.14028 0.11487 0.0
N1452 N 0.34911 0.20654 0.0874 0.0
N1453 N 0.47364 0.21307 0.16585 0.0
C1454 C 0.37459 0.20275 0.10825 0.0
C1455 C 0.43869 0.20651 0.14835 0.0
N1456 N 0.34389 0.31697 0.11849 0.0
N1457 N 0.45635 0.07904 0.14293 0.0
H1458 H 0.47667 0.25737 0.1765 0.0
H1459 H 0.50066 0.17729 0.16898 0.0
H1460 H 0.45278 0.02977 0.13419 0.0
H1461 H 0.47574 0.07384 0.1588 0.0
H1462 H 0.31555 0.3137 0.10588 0.0
H1463 H 0.34489 0.36377 0.1282 0.0
H1464 H 0.33259 0.25378 0.08061 0.0
H1465 H 0.34726 0.16408 0.07617 0.0
C1466 C 0.34698 0.64441 0.1228 0.0
C1467 C 0.39063 0.62284 0.13358 0.0
C1468 C 0.41703 0.74548 0.12622 0.0
C1469 C 0.37638 0.76062 0.11141 0.0
N1470 N 0.30168 0.72271 0.09537 0.0
N1471 N 0.46911 0.6498 0.14073 0.0
C1472 C 0.34087 0.70977 0.10978 0.0
C1473 C 0.42619 0.67297 0.13431 0.0
N1474 N 0.31128 0.60384 0.12545 0.0
N1475 N 0.44705 0.80047 0.13246 0.0
H1476 H 0.47711 0.59462 0.1436 0.0
H1477 H 0.49621 0.68323 0.14005 0.0
H1478 H 0.44056 0.85434 0.1269 0.0
H1479 H 0.47587 0.79359 0.14466 0.0
H1480 H 0.27848 0.62054 0.11969 0.0
H1481 H 0.31442 0.55711 0.13533 0.0
H1482 H 0.27626 0.68417 0.0914 0.0
H1483 H 0.29616 0.77112 0.08649 0.0
C1484 C 0.3524 0.74881 0.62062 0.0
C1485 C 0.38654 0.74352 0.63995 0.0
C1486 C 0.39283 0.61089 0.63364 0.0
C1487 C 0.3581 0.61562 0.61461 0.0
N1488 N 0.31568 0.69295 0.5861 0.0
N1489 N 0.45009 0.67609 0.65912 0.0
C1490 C 0.3414 0.68591 0.6068 0.0
C1491 C 0.40995 0.67633 0.64477 0.0
N1492 N 0.32921 0.8129 0.61591 0.0
N1493 N 0.40956 0.5439 0.64118 0.0
H1494 H 0.46454 0.72456 0.66589 0.0
H1495 H 0.47102 0.63056 0.66202 0.0
H1496 H 0.40016 0.49511 0.63267 0.0
H1497 H 0.43104 0.53649 0.65645 0.0
H1498 H 0.30036 0.81756 0.60365 0.0
H1499 H 0.33725 0.86055 0.6252 0.0
H1500 H 0.30555 0.74334 0.57879 0.0
H1501 H 0.30892 0.64898 0.57529 0.0
C1502 C 0.32792 0.1883 0.60298 0.0
C1503 C 0.35718 0.24931 0.6073 0.0
C1504 C 0.3964 0.18918 0.64154 0.0
C1505 C 0.36987 0.12504 0.63586 0.0
N1506 N 0.31504 0.05967 0.60927 0.0
N1507 N 0.42055 0.30761 0.63029 0.0
C1508 C 0.33673 0.12382 0.61612 0.0
C1509 C 0.39165 0.24979 0.62657 0.0
N1510 N 0.29071 0.19269 0.5866 0.0
N1511 N 0.42515 0.19325 0.66157 0.0
H1512 H 0.41639 0.3546 0.62046 0.0
H1513 H 0.4498 0.30783 0.64237 0.0
H1514 H 0.4308 0.14957 0.67253 0.0
H1515 H 0.44143 0.24106 0.66795 0.0
H1516 H 0.26505 0.1544 0.58431 0.0
H1517 H 0.28392 0.23814 0.57638 0.0
H1518 H 0.29422 0.05296 0.5938 0.0
H1519 H 0.32109 0.01073 0.61814 0.0
loop_
_geom_bond_atom_site_label_1
_geom_bond_atom_site_label_2
_geom_bond_distance
_geom_bond_site_symmetry_2
_ccdc_geom_bond_type
Co0 O2 2.143 . S
Co0 O8 2.074 . S
Co0 O11 2.093 1_545 S
Co0 O24 2.097 . S
Co0 N41 2.151 1_545 S
Co0 N49 2.214 . S
Co1 O2 2.160 . S
Co1 O7 2.058 . S
Co1 O17 2.057 . S
Co1 O32 2.037 . S
Co1 N36 2.145 . S
Co1 N57 2.257 . S
O2 Co0 2.143 . S
O2 Co1 2.160 . S
C3 O4 1.278 . S
C3 O11 1.224 . S
O4 C3 1.278 . S
C5 O6 1.254 . S
C5 O17 1.232 . S
O6 C5 1.254 . S
O7 Co1 2.058 . S
O7 C33 1.269 . S
O8 Co0 2.074 . S
O8 C33 1.257 . S
H9 C34 0.930 . S
H10 C40 0.930 . S
O11 Co0 2.093 1_565 S
O11 C3 1.224 . S
H12 C44 0.929 . S
H13 C46 0.930 . S
H14 C47 0.930 . S
H15 C45 0.929 . S
H16 C48 0.928 . S
O17 Co1 2.057 . S
O17 C5 1.232 . S
H18 C37 0.929 . S
H19 C38 0.929 . S
H20 C50 0.931 . S
H21 C42 0.929 . S
H22 C51 0.930 . S
H23 C43 0.931 . S
O24 Co0 2.097 . S
O24 C52 1.214 . S
H25 C53 0.929 . S
H26 C54 0.929 . S
H27 C55 0.930 . S
H28 C56 0.929 . S
H29 C58 0.930 . S
H30 C35 0.930 . S
H31 C39 0.930 1_655 S
O32 Co1 2.037 . S
O32 C52 1.234 . S
C33 O7 1.269 . S
C33 O8 1.257 . S
C34 H9 0.930 . S
C34 C37 1.388 . S
C34 C39 1.418 . S
C35 H30 0.930 . S
C35 C38 1.404 1_655 S
C35 C39 1.353 1_655 S
N36 Co1 2.145 . S
N36 C37 1.397 . S
N36 C38 1.334 . S
C37 H18 0.929 . S
C37 C34 1.388 . S
C37 N36 1.397 . S
C38 H19 0.929 . S
C38 C35 1.404 1_455 S
C38 N36 1.334 . S
C39 H31 0.930 1_455 S
C39 C34 1.418 . S
C39 C35 1.353 1_455 S
C40 H10 0.930 . S
C40 N41 1.330 . S
C40 C42 1.446 . S
N41 Co0 2.151 1_565 S
N41 C40 1.330 . S
N41 C45 1.418 1_565 S
C42 H21 0.929 . S
C42 C40 1.446 . S
C42 C43 1.332 . S
C43 H23 0.931 . S
C43 C42 1.332 . S
C43 C44 1.267 . S
C44 H12 0.929 . S
C44 C43 1.267 . S
C44 C45 1.251 1_565 S
C45 H15 0.929 . S
C45 N41 1.418 1_545 S
C45 C44 1.251 1_545 S
C46 H13 0.930 . S
C46 C48 1.406 . S
C46 C51 1.261 . S
C47 H14 0.930 . S
C47 N49 1.325 . S
C47 C50 1.357 . S
C48 H16 0.928 . S
C48 C46 1.406 . S
C48 N49 1.261 . S
N49 Co0 2.214 . S
N49 C47 1.325 . S
N49 C48 1.261 . S
C50 H20 0.931 . S
C50 C47 1.357 . S
C50 C51 1.312 . S
C51 H22 0.930 . S
C51 C46 1.261 . S
C51 C50 1.312 . S
C52 O24 1.214 . S
C52 O32 1.234 . S
C53 H25 0.929 . S
C53 C56 1.391 . S
C53 C58 1.391 1_655 S
C54 H26 0.929 . S
C54 C55 1.390 1_455 S
C54 N57 1.391 . S
C55 H27 0.930 . S
C55 C54 1.390 1_655 S
C55 C56 1.392 . S
C56 H28 0.929 . S
C56 C53 1.391 . S
C56 C55 1.392 . S
N57 Co1 2.257 . S
N57 C54 1.391 . S
N57 C58 1.388 . S
C58 H29 0.930 . S
C58 C53 1.391 1_455 S
C58 N57 1.388 . S
Co59 O61 2.143 . S
Co59 O67 2.074 . S
Co59 O70 2.093 1_545 S
Co59 O83 2.097 . S
Co59 N100 2.151 1_545 S
Co59 N108 2.214 . S
Co60 O61 2.160 . S
Co60 O66 2.058 . S
Co60 O76 2.057 . S
Co60 O91 2.037 . S
Co60 N95 2.145 . S
Co60 N116 2.257 . S
O61 Co59 2.143 . S
O61 Co60 2.160 . S
C62 O63 1.278 . S
C62 O70 1.224 . S
O63 C62 1.278 . S
C64 O65 1.254 . S
C64 O76 1.232 . S
O65 C64 1.254 . S
O66 Co60 2.058 . S
O66 C92 1.269 . S
O67 Co59 2.074 . S
O67 C92 1.257 . S
H68 C93 0.930 . S
H69 C99 0.930 . S
O70 Co59 2.093 1_565 S
O70 C62 1.224 . S
H71 C103 0.929 . S
H72 C105 0.930 . S
H73 C106 0.932 . S
H74 C104 0.929 . S
H75 C107 0.928 . S
O76 Co60 2.057 . S
O76 C64 1.232 . S
H77 C96 0.929 . S
H78 C97 0.929 . S
H79 C109 0.931 . S
H80 C101 0.929 . S
H81 C110 0.930 . S
H82 C102 0.931 . S
O83 Co59 2.097 . S
O83 C111 1.214 . S
H84 C112 0.929 . S
H85 C113 0.929 . S
H86 C114 0.930 . S
H87 C115 0.929 . S
H88 C117 0.930 . S
H89 C94 0.930 . S
H90 C98 0.930 . S
O91 Co60 2.037 . S
O91 C111 1.234 . S
C92 O66 1.269 . S
C92 O67 1.257 . S
C93 H68 0.930 . S
C93 C96 1.388 . S
C93 C98 1.418 . S
C94 H89 0.930 . S
C94 C97 1.404 . S
C94 C98 1.353 . S
N95 Co60 2.145 . S
N95 C96 1.397 . S
N95 C97 1.334 . S
C96 H77 0.929 . S
C96 C93 1.388 . S
C96 N95 1.397 . S
C97 H78 0.929 . S
C97 C94 1.404 . S
C97 N95 1.334 . S
C98 H90 0.930 . S
C98 C93 1.418 . S
C98 C94 1.353 . S
C99 H69 0.930 . S
C99 N100 1.330 . S
C99 C101 1.446 . S
N100 Co59 2.151 1_565 S
N100 C99 1.330 . S
N100 C104 1.418 1_465 S
C101 H80 0.929 . S
C101 C99 1.446 . S
C101 C102 1.332 1_455 S
C102 H82 0.931 . S
C102 C101 1.332 1_655 S
C102 C103 1.267 . S
C103 H71 0.929 . S
C103 C102 1.267 . S
C103 C104 1.251 1_565 S
C104 H74 0.929 . S
C104 N100 1.418 1_645 S
C104 C103 1.251 1_545 S
C105 H72 0.930 . S
C105 C107 1.406 . S
C105 C110 1.261 . S
C106 H73 0.932 . S
C106 N108 1.326 . S
C106 C109 1.354 1_455 S
C107 H75 0.928 . S
C107 C105 1.406 . S
C107 N108 1.261 1_655 S
N108 Co59 2.214 . S
N108 C106 1.326 . S
N108 C107 1.261 1_455 S
C109 H79 0.931 . S
C109 C106 1.354 1_655 S
C109 C110 1.312 . S
C110 H81 0.930 . S
C110 C105 1.261 . S
C110 C109 1.312 . S
C111 O83 1.214 . S
C111 O91 1.234 . S
C112 H84 0.929 . S
C112 C115 1.391 . S
C112 C117 1.391 . S
C113 H85 0.929 . S
C113 C114 1.390 . S
C113 N116 1.391 . S
C114 H86 0.930 . S
C114 C113 1.390 . S
C114 C115 1.392 . S
C115 H87 0.929 . S
C115 C112 1.391 . S
C115 C114 1.392 . S
N116 Co60 2.257 . S
N116 C113 1.391 . S
N116 C117 1.388 . S
C117 H88 0.930 . S
C117 C112 1.391 . S
C117 N116 1.388 . S
Co118 O120 2.143 . S
Co118 O126 2.074 . S
Co118 O129 2.093 1_565 S
Co118 O142 2.097 . S
Co118 N159 2.151 1_565 S
Co118 N167 2.214 . S
Co119 O120 2.160 . S
Co119 O125 2.058 . S
Co119 O135 2.057 . S
Co119 O150 2.037 . S
Co119 N154 2.145 . S
Co119 N175 2.257 . S
O120 Co118 2.143 . S
O120 Co119 2.160 . S
C121 O122 1.278 . S
C121 O129 1.224 . S
O122 C121 1.278 . S
C123 O124 1.254 . S
C123 O135 1.232 . S
O124 C123 1.254 . S
O125 Co119 2.058 . S
O125 C151 1.269 . S
O126 Co118 2.074 . S
O126 C151 1.257 . S
H127 C152 0.930 . S
H128 C158 0.930 . S
O129 Co118 2.093 1_545 S
O129 C121 1.224 . S
H130 C162 0.929 . S
H131 C164 0.930 . S
H132 C165 0.930 . S
H133 C163 0.929 . S
H134 C166 0.928 . S
O135 Co119 2.057 . S
O135 C123 1.232 . S
H136 C155 0.929 . S
H137 C156 0.929 . S
H138 C168 0.931 . S
H139 C160 0.929 . S
H140 C169 0.930 . S
H141 C161 0.931 . S
O142 Co118 2.097 . S
O142 C170 1.214 . S
H143 C171 0.929 . S
H144 C172 0.929 . S
H145 C173 0.930 . S
H146 C174 0.929 . S
H147 C176 0.930 . S
H148 C153 0.930 . S
H149 C157 0.930 1_455 S
O150 Co119 2.037 . S
O150 C170 1.234 . S
C151 O125 1.269 . S
C151 O126 1.257 . S
C152 H127 0.930 . S
C152 C155 1.388 . S
C152 C157 1.418 . S
C153 H148 0.930 . S
C153 C156 1.404 1_455 S
C153 C157 1.353 1_455 S
N154 Co119 2.145 . S
N154 C155 1.397 . S
N154 C156 1.334 . S
C155 H136 0.929 . S
C155 C152 1.388 . S
C155 N154 1.397 . S
C156 H137 0.929 . S
C156 C153 1.404 1_655 S
C156 N154 1.334 . S
C157 H149 0.930 1_655 S
C157 C152 1.418 . S
C157 C153 1.353 1_655 S
C158 H128 0.930 . S
C158 N159 1.330 . S
C158 C160 1.446 . S
N159 Co118 2.151 1_545 S
N159 C158 1.330 . S
N159 C163 1.418 1_545 S
C160 H139 0.929 . S
C160 C158 1.446 . S
C160 C161 1.332 . S
C161 H141 0.931 . S
C161 C160 1.332 . S
C161 C162 1.267 . S
C162 H130 0.929 . S
C162 C161 1.267 . S
C162 C163 1.251 1_545 S
C163 H133 0.929 . S
C163 N159 1.418 1_565 S
C163 C162 1.251 1_565 S
C164 H131 0.930 . S
C164 C166 1.406 . S
C164 C169 1.261 . S
C165 H132 0.930 . S
C165 N167 1.325 . S
C165 C168 1.357 . S
C166 H134 0.928 . S
C166 C164 1.406 . S
C166 N167 1.261 . S
N167 Co118 2.214 . S
N167 C165 1.325 . S
N167 C166 1.261 . S
C168 H138 0.931 . S
C168 C165 1.357 . S
C168 C169 1.312 . S
C169 H140 0.930 . S
C169 C164 1.261 . S
C169 C168 1.312 . S
C170 O142 1.214 . S
C170 O150 1.234 . S
C171 H143 0.929 . S
C171 C174 1.391 . S
C171 C176 1.391 1_455 S
C172 H144 0.929 . S
C172 C173 1.390 1_655 S
C172 N175 1.391 . S
C173 H145 0.930 . S
C173 C172 1.390 1_455 S
C173 C174 1.392 . S
C174 H146 0.929 . S
C174 C171 1.391 . S
C174 C173 1.392 . S
N175 Co119 2.257 . S
N175 C172 1.391 . S
N175 C176 1.388 . S
C176 H147 0.930 . S
C176 C171 1.391 1_655 S
C176 N175 1.388 . S
Co177 O179 2.143 . S
Co177 O185 2.074 . S
Co177 O188 2.093 1_565 S
Co177 O201 2.097 . S
Co177 N218 2.151 1_565 S
Co177 N226 2.214 . S
Co178 O179 2.160 . S
Co178 O184 2.058 . S
Co178 O194 2.057 . S
Co178 O209 2.037 . S
Co178 N213 2.145 . S
Co178 N234 2.257 . S
O179 Co177 2.143 . S
O179 Co178 2.160 . S
C180 O181 1.278 . S
C180 O188 1.224 . S
O181 C180 1.278 . S
C182 O183 1.254 . S
C182 O194 1.232 . S
O183 C182 1.254 . S
O184 Co178 2.058 . S
O184 C210 1.269 . S
O185 Co177 2.074 . S
O185 C210 1.257 . S
H186 C211 0.930 . S
H187 C217 0.930 . S
O188 Co177 2.093 1_545 S
O188 C180 1.224 . S
H189 C221 0.929 . S
H190 C223 0.930 . S
H191 C224 0.932 . S
H192 C222 0.929 . S
H193 C225 0.928 . S
O194 Co178 2.057 . S
O194 C182 1.232 . S
H195 C214 0.929 . S
H196 C215 0.929 . S
H197 C227 0.931 . S
H198 C219 0.929 . S
H199 C228 0.930 . S
H200 C220 0.931 . S
O201 Co177 2.097 . S
O201 C229 1.214 . S
H202 C230 0.929 . S
H203 C231 0.929 . S
H204 C232 0.930 . S
H205 C233 0.929 . S
H206 C235 0.930 . S
H207 C212 0.930 . S
H208 C216 0.930 . S
O209 Co178 2.037 . S
O209 C229 1.234 . S
C210 O184 1.269 . S
C210 O185 1.257 . S
C211 H186 0.930 . S
C211 C214 1.388 . S
C211 C216 1.418 . S
C212 H207 0.930 . S
C212 C215 1.404 . S
C212 C216 1.353 . S
N213 Co178 2.145 . S
N213 C214 1.397 . S
N213 C215 1.334 . S
C214 H195 0.929 . S
C214 C211 1.388 . S
C214 N213 1.397 . S
C215 H196 0.929 . S
C215 C212 1.404 . S
C215 N213 1.334 . S
C216 H208 0.930 . S
C216 C211 1.418 . S
C216 C212 1.353 . S
C217 H187 0.930 . S
C217 N218 1.330 . S
C217 C219 1.446 . S
N218 Co177 2.151 1_545 S
N218 C217 1.330 . S
N218 C222 1.418 1_645 S
C219 H198 0.929 . S
C219 C217 1.446 . S
C219 C220 1.332 1_655 S
C220 H200 0.931 . S
C220 C219 1.332 1_455 S
C220 C221 1.267 . S
C221 H189 0.929 . S
C221 C220 1.267 . S
C221 C222 1.251 1_545 S
C222 H192 0.929 . S
C222 N218 1.418 1_465 S
C222 C221 1.251 1_565 S
C223 H190 0.930 . S
C223 C225 1.406 . S
C223 C228 1.261 . S
C224 H191 0.932 . S
C224 N226 1.326 . S
C224 C227 1.355 1_655 S
C225 H193 0.928 . S
C225 C223 1.406 . S
C225 N226 1.261 1_455 S
N226 Co177 2.214 . S
N226 C224 1.326 . S
N226 C225 1.261 1_655 S
C227 H197 0.931 . S
C227 C224 1.355 1_455 S
C227 C228 1.312 . S
C228 H199 0.930 . S
C228 C223 1.261 . S
C228 C227 1.312 . S
C229 O201 1.214 . S
C229 O209 1.234 . S
C230 H202 0.929 . S
C230 C233 1.391 . S
C230 C235 1.391 . S
C231 H203 0.929 . S
C231 C232 1.390 . S
C231 N234 1.391 . S
C232 H204 0.930 . S
C232 C231 1.390 . S
C232 C233 1.392 . S
C233 H205 0.929 . S
C233 C230 1.391 . S
C233 C232 1.392 . S
N234 Co178 2.257 . S
N234 C231 1.391 . S
N234 C235 1.388 . S
C235 H206 0.930 . S
C235 C230 1.391 . S
C235 N234 1.388 . S
Co236 O238 2.143 . S
Co236 O244 2.074 . S
Co236 O247 2.093 . S
Co236 O260 2.097 . S
Co236 N277 2.151 . S
Co236 N285 2.214 . S
Co237 O238 2.160 . S
Co237 O243 2.058 . S
Co237 O253 2.057 . S
Co237 O268 2.037 . S
Co237 N272 2.145 . S
Co237 N293 2.257 . S
O238 Co236 2.143 . S
O238 Co237 2.160 . S
C239 O240 1.278 . S
C239 O247 1.224 . S
O240 C239 1.278 . S
C241 O242 1.245 . S
C241 O253 1.232 . S
O242 C241 1.245 . S
O243 Co237 2.058 . S
O243 C269 1.269 . S
O244 Co236 2.074 . S
O244 C269 1.257 . S
H245 C270 0.930 . S
H246 C276 0.930 . S
O247 Co236 2.093 . S
O247 C239 1.224 . S
H248 C280 0.929 . S
H249 C282 0.930 . S
H250 C283 0.930 . S
H251 C281 0.929 . S
H252 C284 0.928 . S
O253 Co237 2.057 . S
O253 C241 1.232 . S
H254 C273 0.929 . S
H255 C274 0.929 . S
H256 C286 0.931 . S
H257 C278 0.929 . S
H258 C287 0.930 . S
H259 C279 0.931 . S
O260 Co236 2.097 . S
O260 C288 1.214 . S
H261 C289 0.929 . S
H262 C290 0.929 . S
H263 C291 0.930 . S
H264 C292 0.929 . S
H265 C294 0.930 . S
H266 C271 0.930 . S
H267 C275 0.930 1_655 S
O268 Co237 2.037 . S
O268 C288 1.234 . S
C269 O243 1.269 . S
C269 O244 1.257 . S
C270 H245 0.930 . S
C270 C273 1.388 . S
C270 C275 1.418 . S
C271 H266 0.930 . S
C271 C274 1.404 1_655 S
C271 C275 1.353 1_655 S
N272 Co237 2.145 . S
N272 C273 1.397 . S
N272 C274 1.334 . S
C273 H254 0.929 . S
C273 C270 1.388 . S
C273 N272 1.397 . S
C274 H255 0.929 . S
C274 C271 1.404 1_455 S
C274 N272 1.334 . S
C275 H267 0.930 1_455 S
C275 C270 1.418 . S
C275 C271 1.353 1_455 S
C276 H246 0.930 . S
C276 N277 1.330 . S
C276 C278 1.446 . S
N277 Co236 2.151 . S
N277 C276 1.330 . S
N277 C281 1.418 . S
C278 H257 0.929 . S
C278 C276 1.446 . S
C278 C279 1.332 . S
C279 H259 0.931 . S
C279 C278 1.332 . S
C279 C280 1.267 . S
C280 H248 0.929 . S
C280 C279 1.267 . S
C280 C281 1.251 . S
C281 H251 0.929 . S
C281 N277 1.418 . S
C281 C280 1.251 . S
C282 H249 0.930 . S
C282 C284 1.406 . S
C282 C287 1.261 . S
C283 H250 0.930 . S
C283 N285 1.325 . S
C283 C286 1.357 . S
C284 H252 0.928 . S
C284 C282 1.406 . S
C284 N285 1.261 . S
N285 Co236 2.214 . S
N285 C283 1.325 . S
N285 C284 1.261 . S
C286 H256 0.931 . S
C286 C283 1.357 . S
C286 C287 1.312 . S
C287 H258 0.930 . S
C287 C282 1.261 . S
C287 C286 1.312 . S
C288 O260 1.214 . S
C288 O268 1.234 . S
C289 H261 0.929 . S
C289 C292 1.391 . S
C289 C294 1.391 1_655 S
C290 H262 0.929 . S
C290 C291 1.390 1_455 S
C290 N293 1.391 . S
C291 H263 0.930 . S
C291 C290 1.390 1_655 S
C291 C292 1.392 . S
C292 H264 0.929 . S
C292 C289 1.391 . S
C292 C291 1.392 . S
N293 Co237 2.257 . S
N293 C290 1.391 . S
N293 C294 1.388 . S
C294 H265 0.930 . S
C294 C289 1.391 1_455 S
C294 N293 1.388 . S
Co295 O297 2.143 . S
Co295 O303 2.074 . S
Co295 O306 2.093 . S
Co295 O319 2.097 . S
Co295 N336 2.151 . S
Co295 N344 2.214 . S
Co296 O297 2.160 . S
Co296 O302 2.058 . S
Co296 O312 2.057 . S
Co296 O327 2.037 . S
Co296 N331 2.145 . S
Co296 N352 2.257 . S
O297 Co295 2.143 . S
O297 Co296 2.160 . S
C298 O299 1.278 . S
C298 O306 1.224 . S
O299 C298 1.278 . S
C300 O301 1.245 . S
C300 O312 1.232 . S
O301 C300 1.245 . S
O302 Co296 2.058 . S
O302 C328 1.269 . S
O303 Co295 2.074 . S
O303 C328 1.257 . S
H304 C329 0.930 . S
H305 C335 0.930 . S
O306 Co295 2.093 . S
O306 C298 1.224 . S
H307 C339 0.929 . S
H308 C341 0.930 . S
H309 C342 0.932 . S
H310 C340 0.929 . S
H311 C343 0.928 . S
O312 Co296 2.057 . S
O312 C300 1.232 . S
H313 C332 0.929 . S
H314 C333 0.929 . S
H315 C345 0.931 . S
H316 C337 0.929 . S
H317 C346 0.930 . S
H318 C338 0.931 . S
O319 Co295 2.097 . S
O319 C347 1.214 . S
H320 C348 0.929 . S
H321 C349 0.929 . S
H322 C350 0.930 . S
H323 C351 0.929 . S
H324 C353 0.930 . S
H325 C330 0.930 . S
H326 C334 0.930 . S
O327 Co296 2.037 . S
O327 C347 1.234 . S
C328 O302 1.269 . S
C328 O303 1.257 . S
C329 H304 0.930 . S
C329 C332 1.388 . S
C329 C334 1.418 . S
C330 H325 0.930 . S
C330 C333 1.404 . S
C330 C334 1.353 . S
N331 Co296 2.145 . S
N331 C332 1.397 . S
N331 C333 1.334 . S
C332 H313 0.929 . S
C332 C329 1.388 . S
C332 N331 1.397 . S
C333 H314 0.929 . S
C333 C330 1.404 . S
C333 N331 1.334 . S
C334 H326 0.930 . S
C334 C329 1.418 . S
C334 C330 1.353 . S
C335 H305 0.930 . S
C335 N336 1.330 . S
C335 C337 1.446 . S
N336 Co295 2.151 . S
N336 C335 1.330 . S
N336 C340 1.418 1_455 S
C337 H316 0.929 . S
C337 C335 1.446 . S
C337 C338 1.332 1_455 S
C338 H318 0.931 . S
C338 C337 1.332 1_655 S
C338 C339 1.267 . S
C339 H307 0.929 . S
C339 C338 1.267 . S
C339 C340 1.251 . S
C340 H310 0.929 . S
C340 N336 1.418 1_655 S
C340 C339 1.251 . S
C341 H308 0.930 . S
C341 C343 1.406 . S
C341 C346 1.261 . S
C342 H309 0.932 . S
C342 N344 1.326 . S
C342 C345 1.354 1_455 S
C343 H311 0.928 . S
C343 C341 1.406 . S
C343 N344 1.261 1_655 S
N344 Co295 2.214 . S
N344 C342 1.326 . S
N344 C343 1.261 1_455 S
C345 H315 0.931 . S
C345 C342 1.354 1_655 S
C345 C346 1.312 . S
C346 H317 0.930 . S
C346 C341 1.261 . S
C346 C345 1.312 . S
C347 O319 1.214 . S
C347 O327 1.234 . S
C348 H320 0.929 . S
C348 C351 1.391 . S
C348 C353 1.391 . S
C349 H321 0.929 . S
C349 C350 1.390 . S
C349 N352 1.391 . S
C350 H322 0.930 . S
C350 C349 1.390 . S
C350 C351 1.392 . S
C351 H323 0.929 . S
C351 C348 1.391 . S
C351 C350 1.392 . S
N352 Co296 2.257 . S
N352 C349 1.391 . S
N352 C353 1.388 . S
C353 H324 0.930 . S
C353 C348 1.391 . S
C353 N352 1.388 . S
Co354 O356 2.143 . S
Co354 O362 2.074 . S
Co354 O365 2.093 . S
Co354 O378 2.097 . S
Co354 N395 2.151 . S
Co354 N403 2.214 . S
Co355 O356 2.160 . S
Co355 O361 2.058 . S
Co355 O371 2.057 . S
Co355 O386 2.037 . S
Co355 N390 2.145 . S
Co355 N411 2.257 . S
O356 Co354 2.143 . S
O356 Co355 2.160 . S
C357 O358 1.278 . S
C357 O365 1.224 . S
O358 C357 1.278 . S
C359 O360 1.245 . S
C359 O371 1.232 . S
O360 C359 1.245 . S
O361 Co355 2.058 . S
O361 C387 1.269 . S
O362 Co354 2.074 . S
O362 C387 1.257 . S
H363 C388 0.930 . S
H364 C394 0.930 . S
O365 Co354 2.093 . S
O365 C357 1.224 . S
H366 C398 0.929 . S
H367 C400 0.930 . S
H368 C401 0.930 . S
H369 C399 0.929 . S
H370 C402 0.928 . S
O371 Co355 2.057 . S
O371 C359 1.232 . S
H372 C391 0.929 . S
H373 C392 0.929 . S
H374 C404 0.931 . S
H375 C396 0.929 . S
H376 C405 0.930 . S
H377 C397 0.931 . S
O378 Co354 2.097 . S
O378 C406 1.214 . S
H379 C407 0.929 . S
H380 C408 0.929 . S
H381 C409 0.930 . S
H382 C410 0.929 . S
H383 C412 0.930 . S
H384 C389 0.930 . S
H385 C393 0.930 1_455 S
O386 Co355 2.037 . S
O386 C406 1.234 . S
C387 O361 1.269 . S
C387 O362 1.257 . S
C388 H363 0.930 . S
C388 C391 1.388 . S
C388 C393 1.418 . S
C389 H384 0.930 . S
C389 C392 1.404 1_455 S
C389 C393 1.353 1_455 S
N390 Co355 2.145 . S
N390 C391 1.397 . S
N390 C392 1.334 . S
C391 H372 0.929 . S
C391 C388 1.388 . S
C391 N390 1.397 . S
C392 H373 0.929 . S
C392 C389 1.404 1_655 S
C392 N390 1.334 . S
C393 H385 0.930 1_655 S
C393 C388 1.418 . S
C393 C389 1.353 1_655 S
C394 H364 0.930 . S
C394 N395 1.330 . S
C394 C396 1.446 . S
N395 Co354 2.151 . S
N395 C394 1.330 . S
N395 C399 1.418 . S
C396 H375 0.929 . S
C396 C394 1.446 . S
C396 C397 1.332 . S
C397 H377 0.931 . S
C397 C396 1.332 . S
C397 C398 1.267 . S
C398 H366 0.929 . S
C398 C397 1.267 . S
C398 C399 1.251 . S
C399 H369 0.929 . S
C399 N395 1.418 . S
C399 C398 1.251 . S
C400 H367 0.930 . S
C400 C402 1.406 . S
C400 C405 1.261 . S
C401 H368 0.930 . S
C401 N403 1.325 . S
C401 C404 1.357 . S
C402 H370 0.928 . S
C402 C400 1.406 . S
C402 N403 1.261 . S
N403 Co354 2.214 . S
N403 C401 1.325 . S
N403 C402 1.261 . S
C404 H374 0.931 . S
C404 C401 1.357 . S
C404 C405 1.312 . S
C405 H376 0.930 . S
C405 C400 1.261 . S
C405 C404 1.312 . S
C406 O378 1.214 . S
C406 O386 1.234 . S
C407 H379 0.929 . S
C407 C410 1.391 . S
C407 C412 1.391 1_455 S
C408 H380 0.929 . S
C408 C409 1.390 1_655 S
C408 N411 1.391 . S
C409 H381 0.930 . S
C409 C408 1.390 1_455 S
C409 C410 1.392 . S
C410 H382 0.929 . S
C410 C407 1.391 . S
C410 C409 1.392 . S
N411 Co355 2.257 . S
N411 C408 1.391 . S
N411 C412 1.388 . S
C412 H383 0.930 . S
C412 C407 1.391 1_655 S
C412 N411 1.388 . S
Co413 O415 2.143 . S
Co413 O421 2.074 . S
Co413 O424 2.093 . S
Co413 O437 2.097 . S
Co413 N454 2.151 . S
Co413 N462 2.214 . S
Co414 O415 2.160 . S
Co414 O420 2.058 . S
Co414 O430 2.057 . S
Co414 O445 2.037 . S
Co414 N449 2.145 . S
Co414 N470 2.257 . S
O415 Co413 2.143 . S
O415 Co414 2.160 . S
C416 O417 1.278 . S
C416 O424 1.224 . S
O417 C416 1.278 . S
C418 O419 1.245 . S
C418 O430 1.232 . S
O419 C418 1.245 . S
O420 Co414 2.058 . S
O420 C446 1.269 . S
O421 Co413 2.074 . S
O421 C446 1.257 . S
H422 C447 0.930 . S
H423 C453 0.930 . S
O424 Co413 2.093 . S
O424 C416 1.224 . S
H425 C457 0.929 . S
H426 C459 0.930 . S
H427 C460 0.932 . S
H428 C458 0.929 . S
H429 C461 0.928 . S
O430 Co414 2.057 . S
O430 C418 1.232 . S
H431 C450 0.929 . S
H432 C451 0.929 . S
H433 C463 0.931 . S
H434 C455 0.929 . S
H435 C464 0.930 . S
H436 C456 0.931 . S
O437 Co413 2.097 . S
O437 C465 1.214 . S
H438 C466 0.929 . S
H439 C467 0.929 . S
H440 C468 0.930 . S
H441 C469 0.929 . S
H442 C471 0.930 . S
H443 C448 0.930 . S
H444 C452 0.930 . S
O445 Co414 2.037 . S
O445 C465 1.234 . S
C446 O420 1.269 . S
C446 O421 1.257 . S
C447 H422 0.930 . S
C447 C450 1.388 . S
C447 C452 1.418 . S
C448 H443 0.930 . S
C448 C451 1.404 . S
C448 C452 1.353 . S
N449 Co414 2.145 . S
N449 C450 1.397 . S
N449 C451 1.334 . S
C450 H431 0.929 . S
C450 C447 1.388 . S
C450 N449 1.397 . S
C451 H432 0.929 . S
C451 C448 1.404 . S
C451 N449 1.334 . S
C452 H444 0.930 . S
C452 C447 1.418 . S
C452 C448 1.353 . S
C453 H423 0.930 . S
C453 N454 1.330 . S
C453 C455 1.446 . S
N454 Co413 2.151 . S
N454 C453 1.330 . S
N454 C458 1.418 1_655 S
C455 H434 0.929 . S
C455 C453 1.446 . S
C455 C456 1.332 1_655 S
C456 H436 0.931 . S
C456 C455 1.332 1_455 S
C456 C457 1.267 . S
C457 H425 0.929 . S
C457 C456 1.267 . S
C457 C458 1.251 . S
C458 H428 0.929 . S
C458 N454 1.418 1_455 S
C458 C457 1.251 . S
C459 H426 0.930 . S
C459 C461 1.406 . S
C459 C464 1.261 . S
C460 H427 0.932 . S
C460 N462 1.326 . S
C460 C463 1.354 1_655 S
C461 H429 0.928 . S
C461 C459 1.406 . S
C461 N462 1.261 1_455 S
N462 Co413 2.214 . S
N462 C460 1.326 . S
N462 C461 1.261 1_655 S
C463 H433 0.931 . S
C463 C460 1.354 1_455 S
C463 C464 1.312 . S
C464 H435 0.930 . S
C464 C459 1.261 . S
C464 C463 1.312 . S
C465 O437 1.214 . S
C465 O445 1.234 . S
C466 H438 0.929 . S
C466 C469 1.391 . S
C466 C471 1.391 . S
C467 H439 0.929 . S
C467 C468 1.390 . S
C467 N470 1.391 . S
C468 H440 0.930 . S
C468 C467 1.390 . S
C468 C469 1.392 . S
C469 H441 0.929 . S
C469 C466 1.391 . S
C469 C468 1.392 . S
N470 Co414 2.257 . S
N470 C467 1.391 . S
N470 C471 1.388 . S
C471 H442 0.930 . S
C471 C466 1.391 . S
C471 N470 1.388 . S
Co472 O474 2.143 . S
Co472 O480 2.074 . S
Co472 O483 2.093 1_545 S
Co472 O496 2.097 . S
Co472 N513 2.151 1_545 S
Co472 N521 2.214 . S
Co473 O474 2.160 . S
Co473 O479 2.058 . S
Co473 O489 2.057 . S
Co473 O504 2.037 . S
Co473 N508 2.145 . S
Co473 N529 2.257 . S
O474 Co472 2.143 . S
O474 Co473 2.160 . S
C475 O476 1.278 . S
C475 O483 1.224 . S
O476 C475 1.278 . S
C477 O478 1.254 . S
C477 O489 1.232 . S
O478 C477 1.254 . S
O479 Co473 2.058 . S
O479 C505 1.269 . S
O480 Co472 2.074 . S
O480 C505 1.257 . S
H481 C506 0.930 . S
H482 C512 0.930 . S
O483 Co472 2.093 1_565 S
O483 C475 1.224 . S
H484 C516 0.929 . S
H485 C518 0.930 . S
H486 C519 0.930 . S
H487 C517 0.929 . S
H488 C520 0.928 . S
O489 Co473 2.057 . S
O489 C477 1.232 . S
H490 C509 0.929 . S
H491 C510 0.929 . S
H492 C522 0.931 . S
H493 C514 0.929 . S
H494 C523 0.930 . S
H495 C515 0.931 . S
O496 Co472 2.097 . S
O496 C524 1.214 . S
H497 C525 0.929 . S
H498 C526 0.929 . S
H499 C527 0.930 . S
H500 C528 0.929 . S
H501 C530 0.930 . S
H502 C507 0.930 . S
H503 C511 0.930 . S
O504 Co473 2.037 . S
O504 C524 1.234 . S
C505 O479 1.269 . S
C505 O480 1.257 . S
C506 H481 0.930 . S
C506 C509 1.388 . S
C506 C511 1.418 . S
C507 H502 0.930 . S
C507 C510 1.404 . S
C507 C511 1.353 . S
N508 Co473 2.145 . S
N508 C509 1.397 . S
N508 C510 1.334 . S
C509 H490 0.929 . S
C509 C506 1.388 . S
C509 N508 1.397 . S
C510 H491 0.929 . S
C510 C507 1.404 . S
C510 N508 1.334 . S
C511 H503 0.930 . S
C511 C506 1.418 . S
C511 C507 1.353 . S
C512 H482 0.930 . S
C512 N513 1.330 . S
C512 C514 1.446 . S
N513 Co472 2.151 1_565 S
N513 C512 1.330 . S
N513 C517 1.418 1_565 S
C514 H493 0.929 . S
C514 C512 1.446 . S
C514 C515 1.332 . S
C515 H495 0.931 . S
C515 C514 1.332 . S
C515 C516 1.267 . S
C516 H484 0.929 . S
C516 C515 1.267 . S
C516 C517 1.251 1_565 S
C517 H487 0.929 . S
C517 N513 1.418 1_545 S
C517 C516 1.251 1_545 S
C518 H485 0.930 . S
C518 C520 1.406 . S
C518 C523 1.261 . S
C519 H486 0.930 . S
C519 N521 1.325 . S
C519 C522 1.357 . S
C520 H488 0.928 . S
C520 C518 1.406 . S
C520 N521 1.261 . S
N521 Co472 2.214 . S
N521 C519 1.325 . S
N521 C520 1.261 . S
C522 H492 0.931 . S
C522 C519 1.357 . S
C522 C523 1.312 . S
C523 H494 0.930 . S
C523 C518 1.261 . S
C523 C522 1.312 . S
C524 O496 1.214 . S
C524 O504 1.234 . S
C525 H497 0.929 . S
C525 C528 1.391 . S
C525 C530 1.391 . S
C526 H498 0.929 . S
C526 C527 1.390 . S
C526 N529 1.391 . S
C527 H499 0.930 . S
C527 C526 1.390 . S
C527 C528 1.392 . S
C528 H500 0.929 . S
C528 C525 1.391 . S
C528 C527 1.392 . S
N529 Co473 2.257 . S
N529 C526 1.391 . S
N529 C530 1.388 . S
C530 H501 0.930 . S
C530 C525 1.391 . S
C530 N529 1.388 . S
Co531 O533 2.143 . S
Co531 O539 2.074 . S
Co531 O542 2.093 1_545 S
Co531 O555 2.097 . S
Co531 N572 2.151 1_545 S
Co531 N580 2.214 . S
Co532 O533 2.160 . S
Co532 O538 2.058 . S
Co532 O548 2.057 . S
Co532 O563 2.037 . S
Co532 N567 2.145 . S
Co532 N588 2.257 . S
O533 Co531 2.143 . S
O533 Co532 2.160 . S
C534 O535 1.278 . S
C534 O542 1.224 . S
O535 C534 1.278 . S
C536 O537 1.254 . S
C536 O548 1.232 . S
O537 C536 1.254 . S
O538 Co532 2.058 . S
O538 C564 1.269 . S
O539 Co531 2.074 . S
O539 C564 1.257 . S
H540 C565 0.930 . S
H541 C571 0.930 . S
O542 Co531 2.093 1_565 S
O542 C534 1.224 . S
H543 C575 0.929 . S
H544 C577 0.930 . S
H545 C578 0.930 . S
H546 C576 0.929 . S
H547 C579 0.928 . S
O548 Co532 2.057 . S
O548 C536 1.232 . S
H549 C568 0.929 . S
H550 C569 0.929 . S
H551 C581 0.931 . S
H552 C573 0.929 . S
H553 C582 0.930 . S
H554 C574 0.931 . S
O555 Co531 2.097 . S
O555 C583 1.214 . S
H556 C584 0.929 . S
H557 C585 0.929 . S
H558 C586 0.930 . S
H559 C587 0.929 . S
H560 C589 0.930 . S
H561 C566 0.930 . S
H562 C570 0.930 . S
O563 Co532 2.037 . S
O563 C583 1.234 . S
C564 O538 1.269 . S
C564 O539 1.257 . S
C565 H540 0.930 . S
C565 C568 1.388 . S
C565 C570 1.418 . S
C566 H561 0.930 . S
C566 C569 1.404 . S
C566 C570 1.353 . S
N567 Co532 2.145 . S
N567 C568 1.397 . S
N567 C569 1.334 . S
C568 H549 0.929 . S
C568 C565 1.388 . S
C568 N567 1.397 . S
C569 H550 0.929 . S
C569 C566 1.404 . S
C569 N567 1.334 . S
C570 H562 0.930 . S
C570 C565 1.418 . S
C570 C566 1.353 . S
C571 H541 0.930 . S
C571 N572 1.330 . S
C571 C573 1.446 . S
N572 Co531 2.151 1_565 S
N572 C571 1.330 . S
N572 C576 1.418 1_565 S
C573 H552 0.929 . S
C573 C571 1.446 . S
C573 C574 1.332 . S
C574 H554 0.931 . S
C574 C573 1.332 . S
C574 C575 1.267 . S
C575 H543 0.929 . S
C575 C574 1.267 . S
C575 C576 1.251 1_565 S
C576 H546 0.929 . S
C576 N572 1.418 1_545 S
C576 C575 1.251 1_545 S
C577 H544 0.930 . S
C577 C579 1.406 . S
C577 C582 1.261 . S
C578 H545 0.930 . S
C578 N580 1.325 . S
C578 C581 1.357 . S
C579 H547 0.928 . S
C579 C577 1.406 . S
C579 N580 1.261 . S
N580 Co531 2.214 . S
N580 C578 1.325 . S
N580 C579 1.261 . S
C581 H551 0.931 . S
C581 C578 1.357 . S
C581 C582 1.312 . S
C582 H553 0.930 . S
C582 C577 1.261 . S
C582 C581 1.312 . S
C583 O555 1.214 . S
C583 O563 1.234 . S
C584 H556 0.929 . S
C584 C587 1.391 . S
C584 C589 1.391 . S
C585 H557 0.929 . S
C585 C586 1.390 . S
C585 N588 1.391 . S
C586 H558 0.930 . S
C586 C585 1.390 . S
C586 C587 1.392 . S
C587 H559 0.929 . S
C587 C584 1.391 . S
C587 C586 1.392 . S
N588 Co532 2.257 . S
N588 C585 1.391 . S
N588 C589 1.388 . S
C589 H560 0.930 . S
C589 C584 1.391 . S
C589 N588 1.388 . S
Co590 O592 2.143 . S
Co590 O598 2.074 . S
Co590 O601 2.093 1_565 S
Co590 O614 2.097 . S
Co590 N631 2.151 1_565 S
Co590 N639 2.214 . S
Co591 O592 2.160 . S
Co591 O597 2.058 . S
Co591 O607 2.057 . S
Co591 O622 2.037 . S
Co591 N626 2.145 . S
Co591 N647 2.257 . S
O592 Co590 2.143 . S
O592 Co591 2.160 . S
C593 O594 1.278 . S
C593 O601 1.224 . S
O594 C593 1.278 . S
C595 O596 1.254 . S
C595 O607 1.232 . S
O596 C595 1.254 . S
O597 Co591 2.058 . S
O597 C623 1.269 . S
O598 Co590 2.074 . S
O598 C623 1.257 . S
H599 C624 0.930 . S
H600 C630 0.930 . S
O601 Co590 2.093 1_545 S
O601 C593 1.224 . S
H602 C634 0.929 . S
H603 C636 0.930 . S
H604 C637 0.930 . S
H605 C635 0.929 . S
H606 C638 0.928 . S
O607 Co591 2.057 . S
O607 C595 1.232 . S
H608 C627 0.929 . S
H609 C628 0.929 . S
H610 C640 0.931 . S
H611 C632 0.929 . S
H612 C641 0.930 . S
H613 C633 0.931 . S
O614 Co590 2.097 . S
O614 C642 1.214 . S
H615 C643 0.929 . S
H616 C644 0.929 . S
H617 C645 0.930 . S
H618 C646 0.929 . S
H619 C648 0.930 . S
H620 C625 0.930 . S
H621 C629 0.930 . S
O622 Co591 2.037 . S
O622 C642 1.234 . S
C623 O597 1.269 . S
C623 O598 1.257 . S
C624 H599 0.930 . S
C624 C627 1.388 . S
C624 C629 1.418 . S
C625 H620 0.930 . S
C625 C628 1.404 . S
C625 C629 1.353 . S
N626 Co591 2.145 . S
N626 C627 1.397 . S
N626 C628 1.334 . S
C627 H608 0.929 . S
C627 C624 1.388 . S
C627 N626 1.397 . S
C628 H609 0.929 . S
C628 C625 1.404 . S
C628 N626 1.334 . S
C629 H621 0.930 . S
C629 C624 1.418 . S
C629 C625 1.353 . S
C630 H600 0.930 . S
C630 N631 1.330 . S
C630 C632 1.446 . S
N631 Co590 2.151 1_545 S
N631 C630 1.330 . S
N631 C635 1.418 1_545 S
C632 H611 0.929 . S
C632 C630 1.446 . S
C632 C633 1.332 . S
C633 H613 0.931 . S
C633 C632 1.332 . S
C633 C634 1.267 . S
C634 H602 0.929 . S
C634 C633 1.267 . S
C634 C635 1.251 1_545 S
C635 H605 0.929 . S
C635 N631 1.418 1_565 S
C635 C634 1.251 1_565 S
C636 H603 0.930 . S
C636 C638 1.406 . S
C636 C641 1.261 . S
C637 H604 0.930 . S
C637 N639 1.325 . S
C637 C640 1.357 . S
C638 H606 0.928 . S
C638 C636 1.406 . S
C638 N639 1.261 . S
N639 Co590 2.214 . S
N639 C637 1.325 . S
N639 C638 1.261 . S
C640 H610 0.931 . S
C640 C637 1.357 . S
C640 C641 1.312 . S
C641 H612 0.930 . S
C641 C636 1.261 . S
C641 C640 1.312 . S
C642 O614 1.214 . S
C642 O622 1.234 . S
C643 H615 0.929 . S
C643 C646 1.391 . S
C643 C648 1.391 . S
C644 H616 0.929 . S
C644 C645 1.390 . S
C644 N647 1.391 . S
C645 H617 0.930 . S
C645 C644 1.390 . S
C645 C646 1.392 . S
C646 H618 0.929 . S
C646 C643 1.391 . S
C646 C645 1.392 . S
N647 Co591 2.257 . S
N647 C644 1.391 . S
N647 C648 1.388 . S
C648 H619 0.930 . S
C648 C643 1.391 . S
C648 N647 1.388 . S
Co649 O651 2.143 . S
Co649 O657 2.074 . S
Co649 O660 2.093 1_565 S
Co649 O673 2.097 . S
Co649 N690 2.151 1_565 S
Co649 N698 2.214 . S
Co650 O651 2.160 . S
Co650 O656 2.058 . S
Co650 O666 2.057 . S
Co650 O681 2.037 . S
Co650 N685 2.145 . S
Co650 N706 2.257 . S
O651 Co649 2.143 . S
O651 Co650 2.160 . S
C652 O653 1.278 . S
C652 O660 1.224 . S
O653 C652 1.278 . S
C654 O655 1.254 . S
C654 O666 1.232 . S
O655 C654 1.254 . S
O656 Co650 2.058 . S
O656 C682 1.269 . S
O657 Co649 2.074 . S
O657 C682 1.257 . S
H658 C683 0.930 . S
H659 C689 0.930 . S
O660 Co649 2.093 1_545 S
O660 C652 1.224 . S
H661 C693 0.929 . S
H662 C695 0.930 . S
H663 C696 0.930 . S
H664 C694 0.929 . S
H665 C697 0.928 . S
O666 Co650 2.057 . S
O666 C654 1.232 . S
H667 C686 0.929 . S
H668 C687 0.929 . S
H669 C699 0.931 . S
H670 C691 0.929 . S
H671 C700 0.930 . S
H672 C692 0.931 . S
O673 Co649 2.097 . S
O673 C701 1.214 . S
H674 C702 0.929 . S
H675 C703 0.929 . S
H676 C704 0.930 . S
H677 C705 0.929 . S
H678 C707 0.930 . S
H679 C684 0.930 . S
H680 C688 0.930 . S
O681 Co650 2.037 . S
O681 C701 1.234 . S
C682 O656 1.269 . S
C682 O657 1.257 . S
C683 H658 0.930 . S
C683 C686 1.388 . S
C683 C688 1.418 . S
C684 H679 0.930 . S
C684 C687 1.404 . S
C684 C688 1.353 . S
N685 Co650 2.145 . S
N685 C686 1.397 . S
N685 C687 1.334 . S
C686 H667 0.929 . S
C686 C683 1.388 . S
C686 N685 1.397 . S
C687 H668 0.929 . S
C687 C684 1.404 . S
C687 N685 1.334 . S
C688 H680 0.930 . S
C688 C683 1.418 . S
C688 C684 1.353 . S
C689 H659 0.930 . S
C689 N690 1.330 . S
C689 C691 1.446 . S
N690 Co649 2.151 1_545 S
N690 C689 1.330 . S
N690 C694 1.418 1_545 S
C691 H670 0.929 . S
C691 C689 1.446 . S
C691 C692 1.332 . S
C692 H672 0.931 . S
C692 C691 1.332 . S
C692 C693 1.267 . S
C693 H661 0.929 . S
C693 C692 1.267 . S
C693 C694 1.251 1_545 S
C694 H664 0.929 . S
C694 N690 1.418 1_565 S
C694 C693 1.251 1_565 S
C695 H662 0.930 . S
C695 C697 1.406 . S
C695 C700 1.261 . S
C696 H663 0.930 . S
C696 N698 1.325 . S
C696 C699 1.357 . S
C697 H665 0.928 . S
C697 C695 1.406 . S
C697 N698 1.261 . S
N698 Co649 2.214 . S
N698 C696 1.325 . S
N698 C697 1.261 . S
C699 H669 0.931 . S
C699 C696 1.357 . S
C699 C700 1.312 . S
C700 H671 0.930 . S
C700 C695 1.261 . S
C700 C699 1.312 . S
C701 O673 1.214 . S
C701 O681 1.234 . S
C702 H674 0.929 . S
C702 C705 1.391 . S
C702 C707 1.391 . S
C703 H675 0.929 . S
C703 C704 1.390 . S
C703 N706 1.391 . S
C704 H676 0.930 . S
C704 C703 1.390 . S
C704 C705 1.392 . S
C705 H677 0.929 . S
C705 C702 1.391 . S
C705 C704 1.392 . S
N706 Co650 2.257 . S
N706 C703 1.391 . S
N706 C707 1.388 . S
C707 H678 0.930 . S
C707 C702 1.391 . S
C707 N706 1.388 . S
Co708 O710 2.143 . S
Co708 O716 2.074 . S
Co708 O719 2.093 . S
Co708 O732 2.097 . S
Co708 N749 2.151 . S
Co708 N757 2.214 . S
Co709 O710 2.160 . S
Co709 O715 2.058 . S
Co709 O725 2.057 . S
Co709 O740 2.037 . S
Co709 N744 2.145 . S
Co709 N765 2.257 . S
O710 Co708 2.143 . S
O710 Co709 2.160 . S
C711 O712 1.278 . S
C711 O719 1.224 . S
O712 C711 1.278 . S
C713 O714 1.245 . S
C713 O725 1.232 . S
O714 C713 1.245 . S
O715 Co709 2.058 . S
O715 C741 1.269 . S
O716 Co708 2.074 . S
O716 C741 1.257 . S
H717 C742 0.930 . S
H718 C748 0.930 . S
O719 Co708 2.093 . S
O719 C711 1.224 . S
H720 C752 0.929 . S
H721 C754 0.930 . S
H722 C755 0.930 . S
H723 C753 0.929 . S
H724 C756 0.928 . S
O725 Co709 2.057 . S
O725 C713 1.232 . S
H726 C745 0.929 . S
H727 C746 0.929 . S
H728 C758 0.931 . S
H729 C750 0.929 . S
H730 C759 0.930 . S
H731 C751 0.931 . S
O732 Co708 2.097 . S
O732 C760 1.214 . S
H733 C761 0.929 . S
H734 C762 0.929 . S
H735 C763 0.930 . S
H736 C764 0.929 . S
H737 C766 0.930 . S
H738 C743 0.930 . S
H739 C747 0.930 . S
O740 Co709 2.037 . S
O740 C760 1.234 . S
C741 O715 1.269 . S
C741 O716 1.257 . S
C742 H717 0.930 . S
C742 C745 1.388 . S
C742 C747 1.418 . S
C743 H738 0.930 . S
C743 C746 1.404 . S
C743 C747 1.353 . S
N744 Co709 2.145 . S
N744 C745 1.397 . S
N744 C746 1.334 . S
C745 H726 0.929 . S
C745 C742 1.388 . S
C745 N744 1.397 . S
C746 H727 0.929 . S
C746 C743 1.404 . S
C746 N744 1.334 . S
C747 H739 0.930 . S
C747 C742 1.418 . S
C747 C743 1.353 . S
C748 H718 0.930 . S
C748 N749 1.330 . S
C748 C750 1.446 . S
N749 Co708 2.151 . S
N749 C748 1.330 . S
N749 C753 1.418 . S
C750 H729 0.929 . S
C750 C748 1.446 . S
C750 C751 1.332 . S
C751 H731 0.931 . S
C751 C750 1.332 . S
C751 C752 1.267 . S
C752 H720 0.929 . S
C752 C751 1.267 . S
C752 C753 1.251 . S
C753 H723 0.929 . S
C753 N749 1.418 . S
C753 C752 1.251 . S
C754 H721 0.930 . S
C754 C756 1.406 . S
C754 C759 1.261 . S
C755 H722 0.930 . S
C755 N757 1.325 . S
C755 C758 1.357 . S
C756 H724 0.928 . S
C756 C754 1.406 . S
C756 N757 1.261 . S
N757 Co708 2.214 . S
N757 C755 1.325 . S
N757 C756 1.261 . S
C758 H728 0.931 . S
C758 C755 1.357 . S
C758 C759 1.312 . S
C759 H730 0.930 . S
C759 C754 1.261 . S
C759 C758 1.312 . S
C760 O732 1.214 . S
C760 O740 1.234 . S
C761 H733 0.929 . S
C761 C764 1.391 . S
C761 C766 1.391 . S
C762 H734 0.929 . S
C762 C763 1.390 . S
C762 N765 1.391 . S
C763 H735 0.930 . S
C763 C762 1.390 . S
C763 C764 1.392 . S
C764 H736 0.929 . S
C764 C761 1.391 . S
C764 C763 1.392 . S
N765 Co709 2.257 . S
N765 C762 1.391 . S
N765 C766 1.388 . S
C766 H737 0.930 . S
C766 C761 1.391 . S
C766 N765 1.388 . S
Co767 O769 2.143 . S
Co767 O775 2.074 . S
Co767 O778 2.093 . S
Co767 O791 2.097 . S
Co767 N808 2.151 . S
Co767 N816 2.214 . S
Co768 O769 2.160 . S
Co768 O774 2.058 . S
Co768 O784 2.057 . S
Co768 O799 2.037 . S
Co768 N803 2.145 . S
Co768 N824 2.257 . S
O769 Co767 2.143 . S
O769 Co768 2.160 . S
C770 O771 1.278 . S
C770 O778 1.224 . S
O771 C770 1.278 . S
C772 O773 1.245 . S
C772 O784 1.232 . S
O773 C772 1.245 . S
O774 Co768 2.058 . S
O774 C800 1.269 . S
O775 Co767 2.074 . S
O775 C800 1.257 . S
H776 C801 0.930 . S
H777 C807 0.930 . S
O778 Co767 2.093 . S
O778 C770 1.224 . S
H779 C811 0.929 . S
H780 C813 0.930 . S
H781 C814 0.930 . S
H782 C812 0.929 . S
H783 C815 0.928 . S
O784 Co768 2.057 . S
O784 C772 1.232 . S
H785 C804 0.929 . S
H786 C805 0.929 . S
H787 C817 0.931 . S
H788 C809 0.929 . S
H789 C818 0.930 . S
H790 C810 0.931 . S
O791 Co767 2.097 . S
O791 C819 1.214 . S
H792 C820 0.929 . S
H793 C821 0.929 . S
H794 C822 0.930 . S
H795 C823 0.929 . S
H796 C825 0.930 . S
H797 C802 0.930 . S
H798 C806 0.930 . S
O799 Co768 2.037 . S
O799 C819 1.234 . S
C800 O774 1.269 . S
C800 O775 1.257 . S
C801 H776 0.930 . S
C801 C804 1.388 . S
C801 C806 1.418 . S
C802 H797 0.930 . S
C802 C805 1.404 . S
C802 C806 1.353 . S
N803 Co768 2.145 . S
N803 C804 1.397 . S
N803 C805 1.334 . S
C804 H785 0.929 . S
C804 C801 1.388 . S
C804 N803 1.397 . S
C805 H786 0.929 . S
C805 C802 1.404 . S
C805 N803 1.334 . S
C806 H798 0.930 . S
C806 C801 1.418 . S
C806 C802 1.353 . S
C807 H777 0.930 . S
C807 N808 1.330 . S
C807 C809 1.446 . S
N808 Co767 2.151 . S
N808 C807 1.330 . S
N808 C812 1.418 . S
C809 H788 0.929 . S
C809 C807 1.446 . S
C809 C810 1.332 . S
C810 H790 0.931 . S
C810 C809 1.332 . S
C810 C811 1.267 . S
C811 H779 0.929 . S
C811 C810 1.267 . S
C811 C812 1.251 . S
C812 H782 0.929 . S
C812 N808 1.418 . S
C812 C811 1.251 . S
C813 H780 0.930 . S
C813 C815 1.406 . S
C813 C818 1.261 . S
C814 H781 0.930 . S
C814 N816 1.325 . S
C814 C817 1.357 . S
C815 H783 0.928 . S
C815 C813 1.406 . S
C815 N816 1.261 . S
N816 Co767 2.214 . S
N816 C814 1.325 . S
N816 C815 1.261 . S
C817 H787 0.931 . S
C817 C814 1.357 . S
C817 C818 1.312 . S
C818 H789 0.930 . S
C818 C813 1.261 . S
C818 C817 1.312 . S
C819 O791 1.214 . S
C819 O799 1.234 . S
C820 H792 0.929 . S
C820 C823 1.391 . S
C820 C825 1.391 . S
C821 H793 0.929 . S
C821 C822 1.390 . S
C821 N824 1.391 . S
C822 H794 0.930 . S
C822 C821 1.390 . S
C822 C823 1.392 . S
C823 H795 0.929 . S
C823 C820 1.391 . S
C823 C822 1.392 . S
N824 Co768 2.257 . S
N824 C821 1.391 . S
N824 C825 1.388 . S
C825 H796 0.930 . S
C825 C820 1.391 . S
C825 N824 1.388 . S
Co826 O828 2.143 . S
Co826 O834 2.074 . S
Co826 O837 2.093 . S
Co826 O850 2.097 . S
Co826 N867 2.151 . S
Co826 N875 2.214 . S
Co827 O828 2.160 . S
Co827 O833 2.058 . S
Co827 O843 2.057 . S
Co827 O858 2.037 . S
Co827 N862 2.145 . S
Co827 N883 2.257 . S
O828 Co826 2.143 . S
O828 Co827 2.160 . S
C829 O830 1.278 . S
C829 O837 1.224 . S
O830 C829 1.278 . S
C831 O832 1.245 . S
C831 O843 1.232 . S
O832 C831 1.245 . S
O833 Co827 2.058 . S
O833 C859 1.269 . S
O834 Co826 2.074 . S
O834 C859 1.257 . S
H835 C860 0.930 . S
H836 C866 0.930 . S
O837 Co826 2.093 . S
O837 C829 1.224 . S
H838 C870 0.929 . S
H839 C872 0.930 . S
H840 C873 0.930 . S
H841 C871 0.929 . S
H842 C874 0.928 . S
O843 Co827 2.057 . S
O843 C831 1.232 . S
H844 C863 0.929 . S
H845 C864 0.929 . S
H846 C876 0.931 . S
H847 C868 0.929 . S
H848 C877 0.930 . S
H849 C869 0.931 . S
O850 Co826 2.097 . S
O850 C878 1.214 . S
H851 C879 0.929 . S
H852 C880 0.929 . S
H853 C881 0.930 . S
H854 C882 0.929 . S
H855 C884 0.930 . S
H856 C861 0.930 . S
H857 C865 0.930 . S
O858 Co827 2.037 . S
O858 C878 1.234 . S
C859 O833 1.269 . S
C859 O834 1.257 . S
C860 H835 0.930 . S
C860 C863 1.388 . S
C860 C865 1.418 . S
C861 H856 0.930 . S
C861 C864 1.404 . S
C861 C865 1.353 . S
N862 Co827 2.145 . S
N862 C863 1.397 . S
N862 C864 1.334 . S
C863 H844 0.929 . S
C863 C860 1.388 . S
C863 N862 1.397 . S
C864 H845 0.929 . S
C864 C861 1.404 . S
C864 N862 1.334 . S
C865 H857 0.930 . S
C865 C860 1.418 . S
C865 C861 1.353 . S
C866 H836 0.930 . S
C866 N867 1.330 . S
C866 C868 1.446 . S
N867 Co826 2.151 . S
N867 C866 1.330 . S
N867 C871 1.418 . S
C868 H847 0.929 . S
C868 C866 1.446 . S
C868 C869 1.332 . S
C869 H849 0.931 . S
C869 C868 1.332 . S
C869 C870 1.267 . S
C870 H838 0.929 . S
C870 C869 1.267 . S
C870 C871 1.251 . S
C871 H841 0.929 . S
C871 N867 1.418 . S
C871 C870 1.251 . S
C872 H839 0.930 . S
C872 C874 1.406 . S
C872 C877 1.261 . S
C873 H840 0.930 . S
C873 N875 1.325 . S
C873 C876 1.357 . S
C874 H842 0.928 . S
C874 C872 1.406 . S
C874 N875 1.261 . S
N875 Co826 2.214 . S
N875 C873 1.325 . S
N875 C874 1.261 . S
C876 H846 0.931 . S
C876 C873 1.357 . S
C876 C877 1.312 . S
C877 H848 0.930 . S
C877 C872 1.261 . S
C877 C876 1.312 . S
C878 O850 1.214 . S
C878 O858 1.234 . S
C879 H851 0.929 . S
C879 C882 1.391 . S
C879 C884 1.391 . S
C880 H852 0.929 . S
C880 C881 1.390 . S
C880 N883 1.391 . S
C881 H853 0.930 . S
C881 C880 1.390 . S
C881 C882 1.392 . S
C882 H854 0.929 . S
C882 C879 1.391 . S
C882 C881 1.392 . S
N883 Co827 2.257 . S
N883 C880 1.391 . S
N883 C884 1.388 . S
C884 H855 0.930 . S
C884 C879 1.391 . S
C884 N883 1.388 . S
Co885 O887 2.143 . S
Co885 O893 2.074 . S
Co885 O896 2.093 . S
Co885 O909 2.097 . S
Co885 N926 2.151 . S
Co885 N934 2.214 . S
Co886 O887 2.160 . S
Co886 O892 2.058 . S
Co886 O902 2.057 . S
Co886 O917 2.037 . S
Co886 N921 2.145 . S
Co886 N942 2.257 . S
O887 Co885 2.143 . S
O887 Co886 2.160 . S
C888 O889 1.278 . S
C888 O896 1.224 . S
O889 C888 1.278 . S
C890 O891 1.245 . S
C890 O902 1.232 . S
O891 C890 1.245 . S
O892 Co886 2.058 . S
O892 C918 1.269 . S
O893 Co885 2.074 . S
O893 C918 1.257 . S
H894 C919 0.930 . S
H895 C925 0.930 . S
O896 Co885 2.093 . S
O896 C888 1.224 . S
H897 C929 0.929 . S
H898 C931 0.930 . S
H899 C932 0.930 . S
H900 C930 0.929 . S
H901 C933 0.928 . S
O902 Co886 2.057 . S
O902 C890 1.232 . S
H903 C922 0.929 . S
H904 C923 0.929 . S
H905 C935 0.931 . S
H906 C927 0.929 . S
H907 C936 0.930 . S
H908 C928 0.931 . S
O909 Co885 2.097 . S
O909 C937 1.214 . S
H910 C938 0.929 . S
H911 C939 0.929 . S
H912 C940 0.930 . S
H913 C941 0.929 . S
H914 C943 0.930 . S
H915 C920 0.930 . S
H916 C924 0.930 . S
O917 Co886 2.037 . S
O917 C937 1.234 . S
C918 O892 1.269 . S
C918 O893 1.257 . S
C919 H894 0.930 . S
C919 C922 1.388 . S
C919 C924 1.418 . S
C920 H915 0.930 . S
C920 C923 1.404 . S
C920 C924 1.353 . S
N921 Co886 2.145 . S
N921 C922 1.397 . S
N921 C923 1.334 . S
C922 H903 0.929 . S
C922 C919 1.388 . S
C922 N921 1.397 . S
C923 H904 0.929 . S
C923 C920 1.404 . S
C923 N921 1.334 . S
C924 H916 0.930 . S
C924 C919 1.418 . S
C924 C920 1.353 . S
C925 H895 0.930 . S
C925 N926 1.330 . S
C925 C927 1.446 . S
N926 Co885 2.151 . S
N926 C925 1.330 . S
N926 C930 1.418 . S
C927 H906 0.929 . S
C927 C925 1.446 . S
C927 C928 1.332 . S
C928 H908 0.931 . S
C928 C927 1.332 . S
C928 C929 1.267 . S
C929 H897 0.929 . S
C929 C928 1.267 . S
C929 C930 1.251 . S
C930 H900 0.929 . S
C930 N926 1.418 . S
C930 C929 1.251 . S
C931 H898 0.930 . S
C931 C933 1.406 . S
C931 C936 1.261 . S
C932 H899 0.930 . S
C932 N934 1.325 . S
C932 C935 1.357 . S
C933 H901 0.928 . S
C933 C931 1.406 . S
C933 N934 1.261 . S
N934 Co885 2.214 . S
N934 C932 1.325 . S
N934 C933 1.261 . S
C935 H905 0.931 . S
C935 C932 1.357 . S
C935 C936 1.312 . S
C936 H907 0.930 . S
C936 C931 1.261 . S
C936 C935 1.312 . S
C937 O909 1.214 . S
C937 O917 1.234 . S
C938 H910 0.929 . S
C938 C941 1.391 . S
C938 C943 1.391 . S
C939 H911 0.929 . S
C939 C940 1.390 . S
C939 N942 1.391 . S
C940 H912 0.930 . S
C940 C939 1.390 . S
C940 C941 1.392 . S
C941 H913 0.929 . S
C941 C938 1.391 . S
C941 C940 1.392 . S
N942 Co886 2.257 . S
N942 C939 1.391 . S
N942 C943 1.388 . S
C943 H914 0.930 . S
C943 C938 1.391 . S
C943 N942 1.388 . S
C944 C945 1.363 . S
C944 C950 1.379 . S
C944 N952 1.356 . S
C945 C944 1.363 . S
C945 C951 1.363 . S
C946 C947 1.363 . S
C946 C951 1.379 . S
C946 N953 1.356 . S
C947 C946 1.363 . S
C947 C950 1.363 . S
N948 C950 1.356 . S
N948 H960 0.984 . S
N948 H961 0.985 . S
N949 C951 1.356 . S
N949 H954 0.984 . S
N949 H955 0.985 . S
C950 C944 1.379 . S
C950 C947 1.363 . S
C950 N948 1.356 . S
C951 C945 1.363 . S
C951 C946 1.379 . S
C951 N949 1.356 . S
N952 C944 1.356 . S
N952 H958 0.984 . S
N952 H959 0.984 . S
N953 C946 1.356 . S
N953 H956 0.984 . S
N953 H957 0.985 . S
H954 N949 0.984 . S
H955 N949 0.985 . S
H956 N953 0.984 . S
H957 N953 0.985 . S
H958 N952 0.984 . S
H959 N952 0.984 . S
H960 N948 0.984 . S
H961 N948 0.985 . S
C962 C963 1.363 . S
C962 C968 1.379 1_655 S
C962 N970 1.356 . S
C963 C962 1.363 . S
C963 C969 1.363 1_565 S
C964 C965 1.363 . S
C964 C969 1.379 1_455 S
C964 N971 1.356 . S
C965 C964 1.363 . S
C965 C968 1.363 1_545 S
N966 C968 1.356 . S
N966 H978 0.984 . S
N966 H979 0.985 . S
N967 C969 1.356 . S
N967 H972 0.984 . S
N967 H973 0.985 . S
C968 C962 1.379 1_455 S
C968 C965 1.363 1_565 S
C968 N966 1.356 . S
C969 C963 1.363 1_545 S
C969 C964 1.379 1_655 S
C969 N967 1.356 . S
N970 C962 1.356 . S
N970 H976 0.984 . S
N970 H977 0.984 . S
N971 C964 1.356 . S
N971 H974 0.984 . S
N971 H975 0.985 . S
H972 N967 0.984 . S
H973 N967 0.985 . S
H974 N971 0.984 . S
H975 N971 0.985 . S
H976 N970 0.984 . S
H977 N970 0.984 . S
H978 N966 0.984 . S
H979 N966 0.985 . S
C980 C981 1.363 . S
C980 C986 1.379 . S
C980 N988 1.356 . S
C981 C980 1.363 . S
C981 C987 1.363 1_565 S
C982 C983 1.363 . S
C982 C987 1.379 . S
C982 N989 1.356 . S
C983 C982 1.363 . S
C983 C986 1.363 1_545 S
N984 C986 1.356 . S
N984 H996 0.984 . S
N984 H997 0.985 . S
N985 C987 1.356 . S
N985 H990 0.984 . S
N985 H991 0.985 . S
C986 C980 1.379 . S
C986 C983 1.363 1_565 S
C986 N984 1.356 . S
C987 C981 1.363 1_545 S
C987 C982 1.379 . S
C987 N985 1.356 . S
N988 C980 1.356 . S
N988 H994 0.984 . S
N988 H995 0.984 . S
N989 C982 1.356 . S
N989 H992 0.984 . S
N989 H993 0.985 . S
H990 N985 0.984 . S
H991 N985 0.985 . S
H992 N989 0.984 . S
H993 N989 0.985 . S
H994 N988 0.984 . S
H995 N988 0.984 . S
H996 N984 0.984 . S
H997 N984 0.985 . S
C998 C999 1.363 . S
C998 C1004 1.379 1_455 S
C998 N1006 1.356 . S
C999 C998 1.363 . S
C999 C1005 1.363 . S
C1000 C1001 1.363 . S
C1000 C1005 1.379 1_655 S
C1000 N1007 1.356 . S
C1001 C1000 1.363 . S
C1001 C1004 1.363 . S
N1002 C1004 1.356 . S
N1002 H1014 0.984 . S
N1002 H1015 0.985 . S
N1003 C1005 1.356 . S
N1003 H1008 0.984 . S
N1003 H1009 0.985 . S
C1004 C998 1.379 1_655 S
C1004 C1001 1.363 . S
C1004 N1002 1.356 . S
C1005 C999 1.363 . S
C1005 C1000 1.379 1_455 S
C1005 N1003 1.356 . S
N1006 C998 1.356 . S
N1006 H1012 0.984 . S
N1006 H1013 0.984 . S
N1007 C1000 1.356 . S
N1007 H1010 0.984 . S
N1007 H1011 0.985 . S
H1008 N1003 0.984 . S
H1009 N1003 0.985 . S
H1010 N1007 0.984 . S
H1011 N1007 0.985 . S
H1012 N1006 0.984 . S
H1013 N1006 0.984 . S
H1014 N1002 0.984 . S
H1015 N1002 0.985 . S
C1016 C1017 1.363 . S
C1016 C1022 1.379 . S
C1016 N1024 1.356 . S
C1017 C1016 1.363 . S
C1017 C1023 1.363 . S
C1018 C1019 1.363 . S
C1018 C1023 1.379 . S
C1018 N1025 1.356 . S
C1019 C1018 1.363 . S
C1019 C1022 1.363 . S
N1020 C1022 1.356 . S
N1020 H1032 0.984 . S
N1020 H1033 0.985 . S
N1021 C1023 1.356 . S
N1021 H1026 0.984 . S
N1021 H1027 0.985 . S
C1022 C1016 1.379 . S
C1022 C1019 1.363 . S
C1022 N1020 1.356 . S
C1023 C1017 1.363 . S
C1023 C1018 1.379 . S
C1023 N1021 1.356 . S
N1024 C1016 1.356 . S
N1024 H1030 0.984 . S
N1024 H1031 0.984 . S
N1025 C1018 1.356 . S
N1025 H1028 0.984 . S
N1025 H1029 0.985 . S
H1026 N1021 0.984 . S
H1027 N1021 0.985 . S
H1028 N1025 0.984 . S
H1029 N1025 0.985 . S
H1030 N1024 0.984 . S
H1031 N1024 0.984 . S
H1032 N1020 0.984 . S
H1033 N1020 0.985 . S
C1034 C1035 1.363 . S
C1034 C1040 1.379 1_545 S
C1034 N1042 1.356 . S
C1035 C1034 1.363 . S
C1035 C1041 1.363 . S
C1036 C1037 1.363 . S
C1036 C1041 1.379 1_565 S
C1036 N1043 1.356 . S
C1037 C1036 1.363 . S
C1037 C1040 1.363 . S
N1038 C1040 1.356 . S
N1038 H1050 0.984 . S
N1038 H1051 0.985 . S
N1039 C1041 1.356 . S
N1039 H1044 0.984 . S
N1039 H1045 0.985 . S
C1040 C1034 1.379 1_565 S
C1040 C1037 1.363 . S
C1040 N1038 1.356 . S
C1041 C1035 1.363 . S
C1041 C1036 1.379 1_545 S
C1041 N1039 1.356 . S
N1042 C1034 1.356 . S
N1042 H1048 0.984 . S
N1042 H1049 0.984 . S
N1043 C1036 1.356 . S
N1043 H1046 0.984 . S
N1043 H1047 0.985 . S
H1044 N1039 0.984 . S
H1045 N1039 0.985 . S
H1046 N1043 0.984 . S
H1047 N1043 0.985 . S
H1048 N1042 0.984 . S
H1049 N1042 0.984 . S
H1050 N1038 0.984 . S
H1051 N1038 0.985 . S
C1052 C1053 1.363 1_455 S
C1052 C1058 1.379 . S
C1052 N1060 1.356 1_455 S
C1053 C1052 1.363 1_655 S
C1053 C1059 1.363 . S
C1054 C1055 1.363 1_655 S
C1054 C1059 1.379 . S
C1054 N1061 1.356 1_655 S
C1055 C1054 1.363 1_455 S
C1055 C1058 1.363 . S
N1056 C1058 1.356 . S
N1056 H1068 0.984 . S
N1056 H1069 0.985 . S
N1057 C1059 1.356 . S
N1057 H1062 0.984 . S
N1057 H1063 0.985 . S
C1058 C1052 1.379 . S
C1058 C1055 1.363 . S
C1058 N1056 1.356 . S
C1059 C1053 1.363 . S
C1059 C1054 1.379 . S
C1059 N1057 1.356 . S
N1060 C1052 1.356 1_655 S
N1060 H1066 0.984 1_655 S
N1060 H1067 0.984 . S
N1061 C1054 1.356 1_455 S
N1061 H1064 0.984 . S
N1061 H1065 0.985 1_455 S
H1062 N1057 0.984 . S
H1063 N1057 0.985 . S
H1064 N1061 0.984 . S
H1065 N1061 0.985 1_655 S
H1066 N1060 0.984 1_455 S
H1067 N1060 0.984 . S
H1068 N1056 0.984 . S
H1069 N1056 0.985 . S
C1070 C1071 1.363 . S
C1070 C1076 1.379 1_554 S
C1070 N1078 1.356 . S
C1071 C1070 1.363 . S
C1071 C1077 1.363 . S
C1072 C1073 1.363 . S
C1072 C1077 1.379 1_556 S
C1072 N1079 1.356 . S
C1073 C1072 1.363 . S
C1073 C1076 1.363 . S
N1074 C1076 1.356 . S
N1074 H1086 0.984 . S
N1074 H1087 0.985 . S
N1075 C1077 1.356 . S
N1075 H1080 0.984 . S
N1075 H1081 0.985 . S
C1076 C1070 1.379 1_556 S
C1076 C1073 1.363 . S
C1076 N1074 1.356 . S
C1077 C1071 1.363 . S
C1077 C1072 1.379 1_554 S
C1077 N1075 1.356 . S
N1078 C1070 1.356 . S
N1078 H1084 0.984 . S
N1078 H1085 0.984 . S
N1079 C1072 1.356 . S
N1079 H1082 0.984 . S
N1079 H1083 0.985 . S
H1080 N1075 0.984 . S
H1081 N1075 0.985 . S
H1082 N1079 0.984 . S
H1083 N1079 0.985 . S
H1084 N1078 0.984 . S
H1085 N1078 0.984 . S
H1086 N1074 0.984 . S
H1087 N1074 0.985 . S
C1088 C1089 1.363 1_655 S
C1088 C1094 1.379 . S
C1088 N1096 1.356 1_655 S
C1089 C1088 1.363 1_455 S
C1089 C1095 1.363 1_556 S
C1090 C1091 1.363 1_455 S
C1090 C1095 1.379 . S
C1090 N1097 1.356 1_455 S
C1091 C1090 1.363 1_655 S
C1091 C1094 1.363 1_554 S
N1092 C1094 1.356 . S
N1092 H1104 0.984 . S
N1092 H1105 0.985 1_556 S
N1093 C1095 1.356 . S
N1093 H1098 0.984 1_554 S
N1093 H1099 0.985 . S
C1094 C1088 1.379 . S
C1094 C1091 1.363 1_556 S
C1094 N1092 1.356 . S
C1095 C1089 1.363 1_554 S
C1095 C1090 1.379 . S
C1095 N1093 1.356 . S
N1096 C1088 1.356 1_455 S
N1096 H1102 0.984 1_455 S
N1096 H1103 0.984 . S
N1097 C1090 1.356 1_655 S
N1097 H1100 0.984 . S
N1097 H1101 0.985 1_655 S
H1098 N1093 0.984 1_556 S
H1099 N1093 0.985 . S
H1100 N1097 0.984 . S
H1101 N1097 0.985 1_455 S
H1102 N1096 0.984 1_655 S
H1103 N1096 0.984 . S
H1104 N1092 0.984 . S
H1105 N1092 0.985 1_554 S
C1106 C1107 1.363 . S
C1106 C1112 1.379 . S
C1106 N1114 1.356 . S
C1107 C1106 1.363 . S
C1107 C1113 1.363 . S
C1108 C1109 1.363 . S
C1108 C1113 1.379 . S
C1108 N1115 1.356 . S
C1109 C1108 1.363 . S
C1109 C1112 1.363 . S
N1110 C1112 1.356 . S
N1110 H1122 0.984 . S
N1110 H1123 0.985 . S
N1111 C1113 1.356 . S
N1111 H1116 0.984 . S
N1111 H1117 0.985 . S
C1112 C1106 1.379 . S
C1112 C1109 1.363 . S
C1112 N1110 1.356 . S
C1113 C1107 1.363 . S
C1113 C1108 1.379 . S
C1113 N1111 1.356 . S
N1114 C1106 1.356 . S
N1114 H1120 0.984 . S
N1114 H1121 0.984 . S
N1115 C1108 1.356 . S
N1115 H1118 0.984 . S
N1115 H1119 0.985 . S
H1116 N1111 0.984 . S
H1117 N1111 0.985 . S
H1118 N1115 0.984 . S
H1119 N1115 0.985 . S
H1120 N1114 0.984 . S
H1121 N1114 0.984 . S
H1122 N1110 0.984 . S
H1123 N1110 0.985 . S
C1124 C1125 1.363 . S
C1124 C1130 1.379 1_556 S
C1124 N1132 1.356 . S
C1125 C1124 1.363 . S
C1125 C1131 1.363 . S
C1126 C1127 1.363 . S
C1126 C1131 1.379 1_554 S
C1126 N1133 1.356 . S
C1127 C1126 1.363 . S
C1127 C1130 1.363 . S
N1128 C1130 1.356 . S
N1128 H1140 0.984 . S
N1128 H1141 0.985 . S
N1129 C1131 1.356 . S
N1129 H1134 0.984 . S
N1129 H1135 0.985 . S
C1130 C1124 1.379 1_554 S
C1130 C1127 1.363 . S
C1130 N1128 1.356 . S
C1131 C1125 1.363 . S
C1131 C1126 1.379 1_556 S
C1131 N1129 1.356 . S
N1132 C1124 1.356 . S
N1132 H1138 0.984 . S
N1132 H1139 0.984 . S
N1133 C1126 1.356 . S
N1133 H1136 0.984 . S
N1133 H1137 0.985 . S
H1134 N1129 0.984 . S
H1135 N1129 0.985 . S
H1136 N1133 0.984 . S
H1137 N1133 0.985 . S
H1138 N1132 0.984 . S
H1139 N1132 0.984 . S
H1140 N1128 0.984 . S
H1141 N1128 0.985 . S
C1142 C1143 1.363 . S
C1142 C1148 1.379 . S
C1142 N1150 1.356 . S
C1143 C1142 1.363 . S
C1143 C1149 1.363 . S
C1144 C1145 1.363 . S
C1144 C1149 1.379 . S
C1144 N1151 1.356 . S
C1145 C1144 1.363 . S
C1145 C1148 1.363 . S
N1146 C1148 1.356 . S
N1146 H1158 0.984 . S
N1146 H1159 0.985 . S
N1147 C1149 1.356 . S
N1147 H1152 0.984 . S
N1147 H1153 0.985 . S
C1148 C1142 1.379 . S
C1148 C1145 1.363 . S
C1148 N1146 1.356 . S
C1149 C1143 1.363 . S
C1149 C1144 1.379 . S
C1149 N1147 1.356 . S
N1150 C1142 1.356 . S
N1150 H1156 0.984 . S
N1150 H1157 0.984 . S
N1151 C1144 1.356 . S
N1151 H1154 0.984 . S
N1151 H1155 0.985 . S
H1152 N1147 0.984 . S
H1153 N1147 0.985 . S
H1154 N1151 0.984 . S
H1155 N1151 0.985 . S
H1156 N1150 0.984 . S
H1157 N1150 0.984 . S
H1158 N1146 0.984 . S
H1159 N1146 0.985 . S
C1160 C1161 1.363 1_565 S
C1160 C1166 1.379 . S
C1160 N1168 1.356 . S
C1161 C1160 1.363 1_545 S
C1161 C1167 1.363 1_556 S
C1162 C1163 1.363 1_545 S
C1162 C1167 1.379 . S
C1162 N1169 1.356 . S
C1163 C1162 1.363 1_565 S
C1163 C1166 1.363 1_554 S
N1164 C1166 1.356 . S
N1164 H1176 0.984 . S
N1164 H1177 0.985 1_556 S
N1165 C1167 1.356 . S
N1165 H1170 0.984 1_554 S
N1165 H1171 0.985 . S
C1166 C1160 1.379 . S
C1166 C1163 1.363 1_556 S
C1166 N1164 1.356 . S
C1167 C1161 1.363 1_554 S
C1167 C1162 1.379 . S
C1167 N1165 1.356 . S
N1168 C1160 1.356 . S
N1168 H1174 0.984 . S
N1168 H1175 0.984 . S
N1169 C1162 1.356 . S
N1169 H1172 0.984 . S
N1169 H1173 0.985 . S
H1170 N1165 0.984 1_556 S
H1171 N1165 0.985 . S
H1172 N1169 0.984 . S
H1173 N1169 0.985 . S
H1174 N1168 0.984 . S
H1175 N1168 0.984 . S
H1176 N1164 0.984 . S
H1177 N1164 0.985 1_554 S
C1178 C1179 1.363 . S
C1178 C1184 1.379 . S
C1178 N1186 1.356 . S
C1179 C1178 1.363 . S
C1179 C1185 1.363 . S
C1180 C1181 1.363 . S
C1180 C1185 1.379 . S
C1180 N1187 1.356 . S
C1181 C1180 1.363 . S
C1181 C1184 1.363 . S
N1182 C1184 1.356 . S
N1182 H1194 0.984 . S
N1182 H1195 0.985 . S
N1183 C1185 1.356 . S
N1183 H1188 0.984 . S
N1183 H1189 0.985 . S
C1184 C1178 1.379 . S
C1184 C1181 1.363 . S
C1184 N1182 1.356 . S
C1185 C1179 1.363 . S
C1185 C1180 1.379 . S
C1185 N1183 1.356 . S
N1186 C1178 1.356 . S
N1186 H1192 0.984 . S
N1186 H1193 0.984 . S
N1187 C1180 1.356 . S
N1187 H1190 0.984 . S
N1187 H1191 0.985 . S
H1188 N1183 0.984 . S
H1189 N1183 0.985 . S
H1190 N1187 0.984 . S
H1191 N1187 0.985 . S
H1192 N1186 0.984 . S
H1193 N1186 0.984 . S
H1194 N1182 0.984 . S
H1195 N1182 0.985 . S
C1196 C1197 1.363 . S
C1196 C1202 1.379 . S
C1196 N1204 1.356 . S
C1197 C1196 1.363 . S
C1197 C1203 1.363 . S
C1198 C1199 1.363 . S
C1198 C1203 1.379 . S
C1198 N1205 1.356 . S
C1199 C1198 1.363 . S
C1199 C1202 1.363 . S
N1200 C1202 1.356 . S
N1200 H1212 0.984 . S
N1200 H1213 0.985 . S
N1201 C1203 1.356 . S
N1201 H1206 0.984 . S
N1201 H1207 0.985 . S
C1202 C1196 1.379 . S
C1202 C1199 1.363 . S
C1202 N1200 1.356 . S
C1203 C1197 1.363 . S
C1203 C1198 1.379 . S
C1203 N1201 1.356 . S
N1204 C1196 1.356 . S
N1204 H1210 0.984 . S
N1204 H1211 0.984 . S
N1205 C1198 1.356 . S
N1205 H1208 0.984 . S
N1205 H1209 0.985 . S
H1206 N1201 0.984 . S
H1207 N1201 0.985 . S
H1208 N1205 0.984 . S
H1209 N1205 0.985 . S
H1210 N1204 0.984 . S
H1211 N1204 0.984 . S
H1212 N1200 0.984 . S
H1213 N1200 0.985 . S
C1214 C1215 1.363 . S
C1214 C1220 1.379 . S
C1214 N1222 1.356 . S
C1215 C1214 1.363 . S
C1215 C1221 1.363 . S
C1216 C1217 1.363 . S
C1216 C1221 1.379 . S
C1216 N1223 1.356 . S
C1217 C1216 1.363 . S
C1217 C1220 1.363 . S
N1218 C1220 1.356 . S
N1218 H1230 0.984 . S
N1218 H1231 0.985 . S
N1219 C1221 1.356 . S
N1219 H1224 0.984 . S
N1219 H1225 0.985 . S
C1220 C1214 1.379 . S
C1220 C1217 1.363 . S
C1220 N1218 1.356 . S
C1221 C1215 1.363 . S
C1221 C1216 1.379 . S
C1221 N1219 1.356 . S
N1222 C1214 1.356 . S
N1222 H1228 0.984 . S
N1222 H1229 0.984 . S
N1223 C1216 1.356 . S
N1223 H1226 0.984 . S
N1223 H1227 0.985 . S
H1224 N1219 0.984 . S
H1225 N1219 0.985 . S
H1226 N1223 0.984 . S
H1227 N1223 0.985 . S
H1228 N1222 0.984 . S
H1229 N1222 0.984 . S
H1230 N1218 0.984 . S
H1231 N1218 0.985 . S
C1232 C1233 1.363 . S
C1232 C1238 1.379 . S
C1232 N1240 1.356 . S
C1233 C1232 1.363 . S
C1233 C1239 1.363 . S
C1234 C1235 1.363 . S
C1234 C1239 1.379 . S
C1234 N1241 1.356 . S
C1235 C1234 1.363 . S
C1235 C1238 1.363 . S
N1236 C1238 1.356 . S
N1236 H1248 0.984 . S
N1236 H1249 0.985 . S
N1237 C1239 1.356 . S
N1237 H1242 0.984 . S
N1237 H1243 0.985 . S
C1238 C1232 1.379 . S
C1238 C1235 1.363 . S
C1238 N1236 1.356 . S
C1239 C1233 1.363 . S
C1239 C1234 1.379 . S
C1239 N1237 1.356 . S
N1240 C1232 1.356 . S
N1240 H1246 0.984 . S
N1240 H1247 0.984 . S
N1241 C1234 1.356 . S
N1241 H1244 0.984 . S
N1241 H1245 0.985 . S
H1242 N1237 0.984 . S
H1243 N1237 0.985 . S
H1244 N1241 0.984 . S
H1245 N1241 0.985 . S
H1246 N1240 0.984 . S
H1247 N1240 0.984 . S
H1248 N1236 0.984 . S
H1249 N1236 0.985 . S
C1250 C1251 1.363 . S
C1250 C1256 1.379 . S
C1250 N1258 1.356 . S
C1251 C1250 1.363 . S
C1251 C1257 1.363 . S
C1252 C1253 1.363 . S
C1252 C1257 1.379 . S
C1252 N1259 1.356 . S
C1253 C1252 1.363 . S
C1253 C1256 1.363 . S
N1254 C1256 1.356 . S
N1254 H1266 0.984 . S
N1254 H1267 0.985 . S
N1255 C1257 1.356 . S
N1255 H1260 0.984 . S
N1255 H1261 0.985 . S
C1256 C1250 1.379 . S
C1256 C1253 1.363 . S
C1256 N1254 1.356 . S
C1257 C1251 1.363 . S
C1257 C1252 1.379 . S
C1257 N1255 1.356 . S
N1258 C1250 1.356 . S
N1258 H1264 0.984 . S
N1258 H1265 0.984 . S
N1259 C1252 1.356 . S
N1259 H1262 0.984 . S
N1259 H1263 0.985 . S
H1260 N1255 0.984 . S
H1261 N1255 0.985 . S
H1262 N1259 0.984 . S
H1263 N1259 0.985 . S
H1264 N1258 0.984 . S
H1265 N1258 0.984 . S
H1266 N1254 0.984 . S
H1267 N1254 0.985 . S
C1268 C1269 1.363 . S
C1268 C1274 1.379 . S
C1268 N1276 1.356 . S
C1269 C1268 1.363 . S
C1269 C1275 1.363 . S
C1270 C1271 1.363 . S
C1270 C1275 1.379 . S
C1270 N1277 1.356 . S
C1271 C1270 1.363 . S
C1271 C1274 1.363 . S
N1272 C1274 1.356 . S
N1272 H1284 0.984 . S
N1272 H1285 0.985 . S
N1273 C1275 1.356 . S
N1273 H1278 0.984 . S
N1273 H1279 0.985 . S
C1274 C1268 1.379 . S
C1274 C1271 1.363 . S
C1274 N1272 1.356 . S
C1275 C1269 1.363 . S
C1275 C1270 1.379 . S
C1275 N1273 1.356 . S
N1276 C1268 1.356 . S
N1276 H1282 0.984 . S
N1276 H1283 0.984 . S
N1277 C1270 1.356 . S
N1277 H1280 0.984 . S
N1277 H1281 0.985 . S
H1278 N1273 0.984 . S
H1279 N1273 0.985 . S
H1280 N1277 0.984 . S
H1281 N1277 0.985 . S
H1282 N1276 0.984 . S
H1283 N1276 0.984 . S
H1284 N1272 0.984 . S
H1285 N1272 0.985 . S
C1286 C1287 1.363 . S
C1286 C1292 1.379 . S
C1286 N1294 1.356 . S
C1287 C1286 1.363 . S
C1287 C1293 1.363 . S
C1288 C1289 1.363 . S
C1288 C1293 1.379 . S
C1288 N1295 1.356 . S
C1289 C1288 1.363 . S
C1289 C1292 1.363 . S
N1290 C1292 1.356 . S
N1290 H1302 0.984 . S
N1290 H1303 0.985 . S
N1291 C1293 1.356 . S
N1291 H1296 0.984 . S
N1291 H1297 0.985 . S
C1292 C1286 1.379 . S
C1292 C1289 1.363 . S
C1292 N1290 1.356 . S
C1293 C1287 1.363 . S
C1293 C1288 1.379 . S
C1293 N1291 1.356 . S
N1294 C1286 1.356 . S
N1294 H1300 0.984 . S
N1294 H1301 0.984 . S
N1295 C1288 1.356 . S
N1295 H1298 0.984 . S
N1295 H1299 0.985 . S
H1296 N1291 0.984 . S
H1297 N1291 0.985 . S
H1298 N1295 0.984 . S
H1299 N1295 0.985 . S
H1300 N1294 0.984 . S
H1301 N1294 0.984 . S
H1302 N1290 0.984 . S
H1303 N1290 0.985 . S
C1304 C1305 1.363 . S
C1304 C1310 1.379 . S
C1304 N1312 1.356 . S
C1305 C1304 1.363 . S
C1305 C1311 1.363 . S
C1306 C1307 1.363 . S
C1306 C1311 1.379 . S
C1306 N1313 1.356 . S
C1307 C1306 1.363 . S
C1307 C1310 1.363 . S
N1308 C1310 1.356 . S
N1308 H1320 0.984 . S
N1308 H1321 0.985 . S
N1309 C1311 1.356 . S
N1309 H1314 0.984 . S
N1309 H1315 0.985 . S
C1310 C1304 1.379 . S
C1310 C1307 1.363 . S
C1310 N1308 1.356 . S
C1311 C1305 1.363 . S
C1311 C1306 1.379 . S
C1311 N1309 1.356 . S
N1312 C1304 1.356 . S
N1312 H1318 0.984 . S
N1312 H1319 0.984 . S
N1313 C1306 1.356 . S
N1313 H1316 0.984 . S
N1313 H1317 0.985 . S
H1314 N1309 0.984 . S
H1315 N1309 0.985 . S
H1316 N1313 0.984 . S
H1317 N1313 0.985 . S
H1318 N1312 0.984 . S
H1319 N1312 0.984 . S
H1320 N1308 0.984 . S
H1321 N1308 0.985 . S
C1322 C1323 1.363 . S
C1322 C1328 1.379 . S
C1322 N1330 1.356 . S
C1323 C1322 1.363 . S
C1323 C1329 1.363 . S
C1324 C1325 1.363 . S
C1324 C1329 1.379 . S
C1324 N1331 1.356 . S
C1325 C1324 1.363 . S
C1325 C1328 1.363 . S
N1326 C1328 1.356 . S
N1326 H1338 0.984 . S
N1326 H1339 0.985 . S
N1327 C1329 1.356 . S
N1327 H1332 0.984 . S
N1327 H1333 0.985 . S
C1328 C1322 1.379 . S
C1328 C1325 1.363 . S
C1328 N1326 1.356 . S
C1329 C1323 1.363 . S
C1329 C1324 1.379 . S
C1329 N1327 1.356 . S
N1330 C1322 1.356 . S
N1330 H1336 0.984 . S
N1330 H1337 0.984 . S
N1331 C1324 1.356 . S
N1331 H1334 0.984 . S
N1331 H1335 0.985 . S
H1332 N1327 0.984 . S
H1333 N1327 0.985 . S
H1334 N1331 0.984 . S
H1335 N1331 0.985 . S
H1336 N1330 0.984 . S
H1337 N1330 0.984 . S
H1338 N1326 0.984 . S
H1339 N1326 0.985 . S
C1340 C1341 1.363 . S
C1340 C1346 1.379 . S
C1340 N1348 1.356 . S
C1341 C1340 1.363 . S
C1341 C1347 1.363 . S
C1342 C1343 1.363 . S
C1342 C1347 1.379 . S
C1342 N1349 1.356 . S
C1343 C1342 1.363 . S
C1343 C1346 1.363 . S
N1344 C1346 1.356 . S
N1344 H1356 0.984 . S
N1344 H1357 0.985 . S
N1345 C1347 1.356 . S
N1345 H1350 0.984 . S
N1345 H1351 0.985 . S
C1346 C1340 1.379 . S
C1346 C1343 1.363 . S
C1346 N1344 1.356 . S
C1347 C1341 1.363 . S
C1347 C1342 1.379 . S
C1347 N1345 1.356 . S
N1348 C1340 1.356 . S
N1348 H1354 0.984 . S
N1348 H1355 0.984 . S
N1349 C1342 1.356 . S
N1349 H1352 0.984 . S
N1349 H1353 0.985 . S
H1350 N1345 0.984 . S
H1351 N1345 0.985 . S
H1352 N1349 0.984 . S
H1353 N1349 0.985 . S
H1354 N1348 0.984 . S
H1355 N1348 0.984 . S
H1356 N1344 0.984 . S
H1357 N1344 0.985 . S
C1358 C1359 1.363 . S
C1358 C1364 1.379 . S
C1358 N1366 1.356 . S
C1359 C1358 1.363 . S
C1359 C1365 1.363 . S
C1360 C1361 1.363 . S
C1360 C1365 1.379 . S
C1360 N1367 1.356 . S
C1361 C1360 1.363 . S
C1361 C1364 1.363 . S
N1362 C1364 1.356 . S
N1362 H1374 0.984 . S
N1362 H1375 0.985 . S
N1363 C1365 1.356 . S
N1363 H1368 0.984 . S
N1363 H1369 0.985 . S
C1364 C1358 1.379 . S
C1364 C1361 1.363 . S
C1364 N1362 1.356 . S
C1365 C1359 1.363 . S
C1365 C1360 1.379 . S
C1365 N1363 1.356 . S
N1366 C1358 1.356 . S
N1366 H1372 0.984 . S
N1366 H1373 0.984 . S
N1367 C1360 1.356 . S
N1367 H1370 0.984 . S
N1367 H1371 0.985 . S
H1368 N1363 0.984 . S
H1369 N1363 0.985 . S
H1370 N1367 0.984 . S
H1371 N1367 0.985 . S
H1372 N1366 0.984 . S
H1373 N1366 0.984 . S
H1374 N1362 0.984 . S
H1375 N1362 0.985 . S
C1376 C1377 1.363 . S
C1376 C1382 1.379 . S
C1376 N1384 1.356 . S
C1377 C1376 1.363 . S
C1377 C1383 1.363 . S
C1378 C1379 1.363 . S
C1378 C1383 1.379 . S
C1378 N1385 1.356 . S
C1379 C1378 1.363 . S
C1379 C1382 1.363 . S
N1380 C1382 1.356 . S
N1380 H1392 0.984 . S
N1380 H1393 0.985 1_565 S
N1381 C1383 1.356 . S
N1381 H1386 0.984 . S
N1381 H1387 0.985 . S
C1382 C1376 1.379 . S
C1382 C1379 1.363 . S
C1382 N1380 1.356 . S
C1383 C1377 1.363 . S
C1383 C1378 1.379 . S
C1383 N1381 1.356 . S
N1384 C1376 1.356 . S
N1384 H1390 0.984 . S
N1384 H1391 0.984 . S
N1385 C1378 1.356 . S
N1385 H1388 0.984 . S
N1385 H1389 0.985 . S
H1386 N1381 0.984 . S
H1387 N1381 0.985 . S
H1388 N1385 0.984 . S
H1389 N1385 0.985 . S
H1390 N1384 0.984 . S
H1391 N1384 0.984 . S
H1392 N1380 0.984 . S
H1393 N1380 0.985 1_545 S
C1394 C1395 1.363 . S
C1394 C1400 1.379 . S
C1394 N1402 1.356 . S
C1395 C1394 1.363 . S
C1395 C1401 1.363 . S
C1396 C1397 1.363 . S
C1396 C1401 1.379 . S
C1396 N1403 1.356 . S
C1397 C1396 1.363 . S
C1397 C1400 1.363 . S
N1398 C1400 1.356 . S
N1398 H1410 0.984 . S
N1398 H1411 0.985 . S
N1399 C1401 1.356 . S
N1399 H1404 0.984 . S
N1399 H1405 0.985 . S
C1400 C1394 1.379 . S
C1400 C1397 1.363 . S
C1400 N1398 1.356 . S
C1401 C1395 1.363 . S
C1401 C1396 1.379 . S
C1401 N1399 1.356 . S
N1402 C1394 1.356 . S
N1402 H1408 0.984 . S
N1402 H1409 0.984 . S
N1403 C1396 1.356 . S
N1403 H1406 0.984 . S
N1403 H1407 0.985 . S
H1404 N1399 0.984 . S
H1405 N1399 0.985 . S
H1406 N1403 0.984 . S
H1407 N1403 0.985 . S
H1408 N1402 0.984 . S
H1409 N1402 0.984 . S
H1410 N1398 0.984 . S
H1411 N1398 0.985 . S
C1412 C1413 1.363 . S
C1412 C1418 1.379 . S
C1412 N1420 1.356 . S
C1413 C1412 1.363 . S
C1413 C1419 1.363 . S
C1414 C1415 1.363 . S
C1414 C1419 1.379 . S
C1414 N1421 1.356 . S
C1415 C1414 1.363 . S
C1415 C1418 1.363 . S
N1416 C1418 1.356 . S
N1416 H1428 0.984 . S
N1416 H1429 0.985 . S
N1417 C1419 1.356 . S
N1417 H1422 0.984 . S
N1417 H1423 0.985 . S
C1418 C1412 1.379 . S
C1418 C1415 1.363 . S
C1418 N1416 1.356 . S
C1419 C1413 1.363 . S
C1419 C1414 1.379 . S
C1419 N1417 1.356 . S
N1420 C1412 1.356 . S
N1420 H1426 0.984 . S
N1420 H1427 0.984 . S
N1421 C1414 1.356 . S
N1421 H1424 0.984 . S
N1421 H1425 0.985 . S
H1422 N1417 0.984 . S
H1423 N1417 0.985 . S
H1424 N1421 0.984 . S
H1425 N1421 0.985 . S
H1426 N1420 0.984 . S
H1427 N1420 0.984 . S
H1428 N1416 0.984 . S
H1429 N1416 0.985 . S
C1430 C1431 1.363 . S
C1430 C1436 1.379 . S
C1430 N1438 1.356 . S
C1431 C1430 1.363 . S
C1431 C1437 1.363 . S
C1432 C1433 1.363 . S
C1432 C1437 1.379 . S
C1432 N1439 1.356 . S
C1433 C1432 1.363 . S
C1433 C1436 1.363 . S
N1434 C1436 1.356 . S
N1434 H1446 0.984 . S
N1434 H1447 0.985 . S
N1435 C1437 1.356 . S
N1435 H1440 0.984 . S
N1435 H1441 0.985 . S
C1436 C1430 1.379 . S
C1436 C1433 1.363 . S
C1436 N1434 1.356 . S
C1437 C1431 1.363 . S
C1437 C1432 1.379 . S
C1437 N1435 1.356 . S
N1438 C1430 1.356 . S
N1438 H1444 0.984 . S
N1438 H1445 0.984 . S
N1439 C1432 1.356 . S
N1439 H1442 0.984 . S
N1439 H1443 0.985 . S
H1440 N1435 0.984 . S
H1441 N1435 0.985 . S
H1442 N1439 0.984 . S
H1443 N1439 0.985 . S
H1444 N1438 0.984 . S
H1445 N1438 0.984 . S
H1446 N1434 0.984 . S
H1447 N1434 0.985 . S
C1448 C1449 1.363 . S
C1448 C1454 1.379 . S
C1448 N1456 1.356 . S
C1449 C1448 1.363 . S
C1449 C1455 1.363 . S
C1450 C1451 1.363 . S
C1450 C1455 1.379 . S
C1450 N1457 1.356 . S
C1451 C1450 1.363 . S
C1451 C1454 1.363 . S
N1452 C1454 1.356 . S
N1452 H1464 0.984 . S
N1452 H1465 0.985 . S
N1453 C1455 1.356 . S
N1453 H1458 0.984 . S
N1453 H1459 0.985 . S
C1454 C1448 1.379 . S
C1454 C1451 1.363 . S
C1454 N1452 1.356 . S
C1455 C1449 1.363 . S
C1455 C1450 1.379 . S
C1455 N1453 1.356 . S
N1456 C1448 1.356 . S
N1456 H1462 0.984 . S
N1456 H1463 0.984 . S
N1457 C1450 1.356 . S
N1457 H1460 0.984 1_545 S
N1457 H1461 0.985 . S
H1458 N1453 0.984 . S
H1459 N1453 0.985 . S
H1460 N1457 0.984 1_565 S
H1461 N1457 0.985 . S
H1462 N1456 0.984 . S
H1463 N1456 0.984 . S
H1464 N1452 0.984 . S
H1465 N1452 0.985 . S
C1466 C1467 1.363 . S
C1466 C1472 1.379 . S
C1466 N1474 1.356 . S
C1467 C1466 1.363 . S
C1467 C1473 1.363 . S
C1468 C1469 1.363 . S
C1468 C1473 1.379 . S
C1468 N1475 1.356 . S
C1469 C1468 1.363 . S
C1469 C1472 1.363 . S
N1470 C1472 1.356 . S
N1470 H1482 0.984 . S
N1470 H1483 0.985 . S
N1471 C1473 1.356 . S
N1471 H1476 0.984 . S
N1471 H1477 0.985 . S
C1472 C1466 1.379 . S
C1472 C1469 1.363 . S
C1472 N1470 1.356 . S
C1473 C1467 1.363 . S
C1473 C1468 1.379 . S
C1473 N1471 1.356 . S
N1474 C1466 1.356 . S
N1474 H1480 0.984 . S
N1474 H1481 0.984 . S
N1475 C1468 1.356 . S
N1475 H1478 0.984 . S
N1475 H1479 0.985 . S
H1476 N1471 0.984 . S
H1477 N1471 0.985 . S
H1478 N1475 0.984 . S
H1479 N1475 0.985 . S
H1480 N1474 0.984 . S
H1481 N1474 0.984 . S
H1482 N1470 0.984 . S
H1483 N1470 0.985 . S
C1484 C1485 1.363 . S
C1484 C1490 1.379 . S
C1484 N1492 1.356 . S
C1485 C1484 1.363 . S
C1485 C1491 1.363 . S
C1486 C1487 1.363 . S
C1486 C1491 1.379 . S
C1486 N1493 1.356 . S
C1487 C1486 1.363 . S
C1487 C1490 1.363 . S
N1488 C1490 1.356 . S
N1488 H1500 0.984 . S
N1488 H1501 0.985 . S
N1489 C1491 1.356 . S
N1489 H1494 0.984 . S
N1489 H1495 0.985 . S
C1490 C1484 1.379 . S
C1490 C1487 1.363 . S
C1490 N1488 1.356 . S
C1491 C1485 1.363 . S
C1491 C1486 1.379 . S
C1491 N1489 1.356 . S
N1492 C1484 1.356 . S
N1492 H1498 0.984 . S
N1492 H1499 0.984 . S
N1493 C1486 1.356 . S
N1493 H1496 0.984 . S
N1493 H1497 0.985 . S
H1494 N1489 0.984 . S
H1495 N1489 0.985 . S
H1496 N1493 0.984 . S
H1497 N1493 0.985 . S
H1498 N1492 0.984 . S
H1499 N1492 0.984 . S
H1500 N1488 0.984 . S
H1501 N1488 0.985 . S
C1502 C1503 1.363 . S
C1502 C1508 1.379 . S
C1502 N1510 1.356 . S
C1503 C1502 1.363 . S
C1503 C1509 1.363 . S
C1504 C1505 1.363 . S
C1504 C1509 1.379 . S
C1504 N1511 1.356 . S
C1505 C1504 1.363 . S
C1505 C1508 1.363 . S
N1506 C1508 1.356 . S
N1506 H1518 0.984 . S
N1506 H1519 0.985 . S
N1507 C1509 1.356 . S
N1507 H1512 0.984 . S
N1507 H1513 0.985 . S
C1508 C1502 1.379 . S
C1508 C1505 1.363 . S
C1508 N1506 1.356 . S
C1509 C1503 1.363 . S
C1509 C1504 1.379 . S
C1509 N1507 1.356 . S
N1510 C1502 1.356 . S
N1510 H1516 0.984 . S
N1510 H1517 0.984 . S
N1511 C1504 1.356 . S
N1511 H1514 0.984 . S
N1511 H1515 0.985 . S
H1512 N1507 0.984 . S
H1513 N1507 0.985 . S
H1514 N1511 0.984 . S
H1515 N1511 0.985 . S
H1516 N1510 0.984 . S
H1517 N1510 0.984 . S
H1518 N1506 0.984 . S
H1519 N1506 0.985 . S
C945 C859 1.513 . S
C947 C33 1.513 . S
C963 C123 1.508 . S
C965 C5 1.508 . S
C981 C654 1.508 . S
C983 C64 1.508 . S
C999 C92 1.513 . S
C1001 C446 1.513 . S
C1017 C151 1.513 . S
C1019 C741 1.513 . S
C1035 C536 1.508 . S
C1037 C182 1.508 . S
C1053 C210 1.513 . S
C1055 C328 1.513 . S
C1071 C623 1.513 . S
C1073 C269 1.513 . S
C1089 C241 1.508 . S
C1091 C359 1.508 . S
C1107 C890 1.508 . S
C1109 C300 1.508 . S
C1125 C505 1.513 . S
C1127 C387 1.513 . S
C1143 C772 1.508 . S
C1145 C418 1.508 . S
C1161 C477 1.508 . S
C1163 C595 1.508 . S
C1179 C918 1.513 . S
C1181 C564 1.513 . S
C1197 C682 1.513 . S
C1199 C800 1.513 . S
C1215 C831 1.508 . S
C1217 C713 1.508 . S
C1233 C347 1.573 . S
C1235 C3 1.564 . S
C1251 C52 1.573 . S
C1253 C298 1.564 . S
C1269 C111 1.573 . S
C1271 C239 1.564 . S
C1287 C288 1.573 . S
C1289 C62 1.564 . S
C1305 C465 1.573 . S
C1307 C121 1.564 . S
C1323 C416 1.564 . S
C1325 C170 1.573 . S
C1341 C357 1.564 . S
C1343 C229 1.573 . S
C1359 C180 1.564 . S
C1361 C406 1.573 . S
C1377 C819 1.573 . S
C1379 C475 1.564 . S
C1395 C524 1.573 . S
C1397 C770 1.564 . S
C1413 C583 1.573 . S
C1415 C711 1.564 . S
C1431 C760 1.573 . S
C1433 C534 1.564 . S
C1449 C937 1.573 . S
C1451 C593 1.564 . S
C1467 C888 1.564 . S
C1469 C642 1.573 . S
C1485 C701 1.573 . S
C1487 C829 1.564 . S
C1503 C878 1.573 . S
C1505 C652 1.564 . S
