# Generated by pormake.
# Topology smu, (6)-cn, num edge types: 1
# Building blocks:
#     Node 0, Type 0, BuildingBlock: PAMTUU_clean_sbu_0, # of connection points: 6
#     Node 1, Type 0, BuildingBlock: PAMTUU_clean_sbu_0, # of connection points: 6
#     Node 2, Type 0, BuildingBlock: PAMTUU_clean_sbu_0, # of connection points: 6
#     Node 3, Type 0, BuildingBlock: PAMTUU_clean_sbu_0, # of connection points: 6
#     Node 4, Type 0, BuildingBlock: PAMTUU_clean_sbu_0, # of connection points: 6
#     Node 5, Type 0, BuildingBlock: PAMTUU_clean_sbu_0, # of connection points: 6
#     Edge 6, Type (0, 0), BuildingBlock: XIVTED_clean_linker_0, # of connection points: 2
#     Edge 7, Type (0, 0), BuildingBlock: XIVTED_clean_linker_0, # of connection points: 2
#     Edge 8, Type (0, 0), BuildingBlock: XIVTED_clean_linker_0, # of connection points: 2
#     Edge 9, Type (0, 0), BuildingBlock: XIVTED_clean_linker_0, # of connection points: 2
#     Edge 10, Type (0, 0), BuildingBlock: XIVTED_clean_linker_0, # of connection points: 2
#     Edge 11, Type (0, 0), BuildingBlock: XIVTED_clean_linker_0, # of connection points: 2
#     Edge 12, Type (0, 0), BuildingBlock: XIVTED_clean_linker_0, # of connection points: 2
#     Edge 13, Type (0, 0), BuildingBlock: XIVTED_clean_linker_0, # of connection points: 2
#     Edge 14, Type (0, 0), BuildingBlock: XIVTED_clean_linker_0, # of connection points: 2
#     Edge 15, Type (0, 0), BuildingBlock: XIVTED_clean_linker_0, # of connection points: 2
#     Edge 16, Type (0, 0), BuildingBlock: XIVTED_clean_linker_0, # of connection points: 2
#     Edge 17, Type (0, 0), BuildingBlock: XIVTED_clean_linker_0, # of connection points: 2
#     Edge 18, Type (0, 0), BuildingBlock: XIVTED_clean_linker_0, # of connection points: 2
#     Edge 19, Type (0, 0), BuildingBlock: XIVTED_clean_linker_0, # of connection points: 2
#     Edge 20, Type (0, 0), BuildingBlock: XIVTED_clean_linker_0, # of connection points: 2
#     Edge 21, Type (0, 0), BuildingBlock: XIVTED_clean_linker_0, # of connection points: 2
#     Edge 22, Type (0, 0), BuildingBlock: XIVTED_clean_linker_0, # of connection points: 2
#     Edge 23, Type (0, 0), BuildingBlock: XIVTED_clean_linker_0, # of connection points: 2
# Relax obj value: 0.217
# Max RMSD: 0.311
# Mean RMSD: 0.311
data_MOF--net-smu--node1-PAMTUU_clean_sbu_0--edge1-XIVTED_clean_linker_0
_symmetry_space_group_name_H-M    P1
_symmetry_Int_Tables_number       1
_symmetry_cell_setting            triclinic
loop_
_symmetry_equiv_pos_as_xyz
'x, y, z'
_cell_length_a     39.578029
_cell_length_b     39.459089
_cell_length_c     27.877398
_cell_angle_alpha  90.145739
_cell_angle_beta   89.759164
_cell_angle_gamma 120.01433
loop_
_atom_site_label
_atom_site_type_symbol
_atom_site_fract_x
_atom_site_fract_y
_atom_site_fract_z
_atom_type_partial_charge
Tb0 Tb 0.31838 0.11496 0.26416 0.0
Tb1 Tb 0.38232 0.08503 0.26749 0.0
C2 C 0.33833 0.08047 0.17143 0.0
C3 C 0.24488 0.15381 0.25497 0.0
C4 C 0.19062 0.18023 0.24621 0.0
C5 C 0.21869 0.18839 0.21011 0.0
C6 C 0.24578 0.17554 0.21463 0.0
C7 C 0.21582 0.14423 0.28981 0.0
C8 C 0.18924 0.15739 0.28567 0.0
C9 C 0.27786 0.14788 0.26675 0.0
O10 O 0.28309 0.05354 0.24902 0.0
O11 O 0.32463 0.0318 0.27624 0.0
O12 O 0.37152 0.09568 0.34111 0.0
O13 O 0.30992 0.08617 0.33313 0.0
O14 O 0.42125 0.07226 0.23146 0.0
O15 O 0.41766 0.07003 0.30848 0.0
O16 O 0.41313 0.14688 0.2484 0.0
O17 O 0.37337 0.15991 0.29289 0.0
O18 O 0.32678 0.10437 0.1885 0.0
O19 O 0.35583 0.06659 0.19809 0.0
C20 C 0.28994 0.02559 0.26234 0.0
O21 O 0.27143 0.11825 0.29365 0.0
O22 O 0.30661 0.15773 0.23652 0.0
C23 C 0.33679 0.08478 0.359 0.0
C24 C 0.47969 0.09109 0.2734 0.0
C25 C 0.56228 0.13101 0.27474 0.0
C26 C 0.54025 0.0933 0.29466 0.0
C27 C 0.49945 0.07363 0.29399 0.0
C28 C 0.50139 0.12893 0.25399 0.0
C29 C 0.54229 0.14865 0.25454 0.0
C30 C 0.43665 0.06877 0.27092 0.0
C31 C 0.40661 0.17207 0.27105 0.0
H32 H 0.22037 0.20541 0.17888 0.0
H33 H 0.26829 0.18397 0.18756 0.0
H34 H 0.215 0.12845 0.32196 0.0
H35 H 0.16891 0.15119 0.31493 0.0
H36 H 0.55449 0.0785 0.3099 0.0
H37 H 0.48328 0.04444 0.30899 0.0
H38 H 0.48675 0.14309 0.23803 0.0
H39 H 0.55821 0.1778 0.23943 0.0
Tb40 Tb 0.81612 0.71113 0.24979 0.0
Tb41 Tb 0.72336 0.64554 0.26029 0.0
C42 C 0.7584 0.68848 0.1644 0.0
C43 C 0.92792 0.78551 0.24971 0.0
C44 C 1.00907 0.83611 0.26045 0.0
C45 C 0.98953 0.83833 0.2196 0.0
C46 C 0.94947 0.81323 0.21426 0.0
C47 C 0.94681 0.78501 0.29214 0.0
C48 C 0.98703 0.8102 0.29751 0.0
C49 C 0.88893 0.75286 0.23701 0.0
O50 O 0.78927 0.74689 0.25287 0.0
O51 O 0.72391 0.70129 0.26878 0.0
O52 O 0.74902 0.65891 0.33174 0.0
O53 O 0.80024 0.72141 0.32133 0.0
O54 O 0.67183 0.60484 0.22613 0.0
O55 O 0.6743 0.60955 0.30329 0.0
O56 O 0.75457 0.61553 0.23734 0.0
O57 O 0.80947 0.65702 0.27694 0.0
O58 O 0.79151 0.69099 0.17772 0.0
O59 O 0.72934 0.67649 0.19457 0.0
C60 C 0.75295 0.73751 0.26183 0.0
O61 O 0.87252 0.72263 0.26533 0.0
O62 O 0.86359 0.75986 0.2163 0.0
C63 C 0.77265 0.6943 0.34849 0.0
C64 C 0.63403 0.546 0.26983 0.0
C65 C 0.58984 0.46322 0.27458 0.0
C66 C 0.5926 0.48633 0.31459 0.0
C67 C 0.61427 0.5272 0.31214 0.0
C68 C 0.63225 0.52294 0.23023 0.0
C69 C 0.61041 0.48209 0.23258 0.0
C70 C 0.654 0.5893 0.26638 0.0
C71 C 0.78759 0.62312 0.25694 0.0
H72 H 1.00547 0.85854 0.19082 0.0
H73 H 0.93575 0.81393 0.181 0.0
H74 H 0.93106 0.76369 0.31997 0.0
H75 H 1.00115 0.80769 0.3294 0.0
H76 H 0.57772 0.47287 0.34783 0.0
H77 H 0.61502 0.54415 0.34317 0.0
H78 H 0.64695 0.53637 0.19688 0.0
H79 H 0.60862 0.46539 0.20085 0.0
Tb80 Tb 0.90794 0.20983 0.26776 0.0
Tb81 Tb 0.93977 0.30348 0.25601 0.0
C82 C 0.93907 0.25354 0.16734 0.0
C83 C 0.86453 0.09705 0.26873 0.0
C84 C 0.83353 0.01549 0.26284 0.0
C85 C 0.82251 0.03483 0.22949 0.0
C86 C 0.83777 0.07526 0.23251 0.0
C87 C 0.87719 0.07802 0.30026 0.0
C88 C 0.86195 0.03768 0.29727 0.0
C89 C 0.87299 0.13693 0.28063 0.0
O90 O 0.96835 0.23221 0.25093 0.0
O91 O 0.99309 0.29913 0.26246 0.0
O92 O 0.93483 0.29186 0.33306 0.0
O93 O 0.93893 0.23595 0.33375 0.0
O94 O 0.94754 0.34993 0.21209 0.0
O95 O 0.96005 0.35897 0.28756 0.0
O96 O 0.87713 0.27112 0.24216 0.0
O97 O 0.86649 0.22512 0.29663 0.0
O98 O 0.91569 0.22033 0.18976 0.0
O99 O 0.95459 0.28773 0.18856 0.0
C100 C 0.99748 0.26819 0.25614 0.0
O101 O 0.90644 0.16116 0.30018 0.0
O102 O 0.86005 0.15446 0.2527 0.0
C103 C 0.94367 0.26778 0.35484 0.0
C104 C 0.93316 0.39479 0.25138 0.0
C105 C 0.89477 0.43915 0.25562 0.0
C106 C 0.92143 0.44286 0.29144 0.0
C107 C 0.94049 0.42111 0.28918 0.0
C108 C 0.90579 0.39026 0.21616 0.0
C109 C 0.88688 0.4122 0.21824 0.0
C110 C 0.95543 0.37377 0.24808 0.0
C111 C 0.85322 0.24332 0.2709 0.0
H112 H 0.80052 0.01849 0.20269 0.0
H113 H 0.82697 0.08899 0.20815 0.0
H114 H 0.89732 0.09397 0.329 0.0
H115 H 0.87158 0.02372 0.32289 0.0
H116 H 0.92777 0.46274 0.32129 0.0
H117 H 0.96138 0.42523 0.31683 0.0
H118 H 0.89942 0.37029 0.18639 0.0
H119 H 0.86696 0.40882 0.1897 0.0
Tb120 Tb 0.08758 0.37374 0.77625 0.0
Tb121 Tb 0.11057 0.30486 0.75562 0.0
C122 C 0.0885 0.31991 0.85946 0.0
C123 C 0.0931 0.47214 0.78341 0.0
C124 C 0.12653 0.55382 0.76877 0.0
C125 C 0.09232 0.53265 0.7964 0.0
C126 C 0.07583 0.49238 0.80344 0.0
C127 C 0.12697 0.49271 0.75532 0.0
C128 C 0.14348 0.53317 0.74796 0.0
C129 C 0.07716 0.4306 0.79623 0.0
O130 O 0.14772 0.40076 0.75048 0.0
O131 O 0.16075 0.35629 0.78436 0.0
O132 O 0.10353 0.32484 0.68489 0.0
O133 O 0.07179 0.35914 0.70196 0.0
O134 O 0.10311 0.2486 0.76433 0.0
O135 O 0.14758 0.2909 0.7167 0.0
O136 O 0.04939 0.28028 0.73998 0.0
O137 O 0.03499 0.31682 0.79141 0.0
O138 O 0.09812 0.3554 0.84541 0.0
O139 O 0.08946 0.29441 0.82978 0.0
C140 C 0.17283 0.39155 0.76787 0.0
O141 O 0.05719 0.40421 0.76387 0.0
O142 O 0.10083 0.42248 0.81906 0.0
C143 C 0.08318 0.3414 0.67159 0.0
C144 C 0.15681 0.2392 0.74446 0.0
C145 C 0.19893 0.1994 0.75797 0.0
C146 C 0.19345 0.21009 0.71176 0.0
C147 C 0.17284 0.22985 0.70522 0.0
C148 C 0.16277 0.22955 0.79089 0.0
C149 C 0.18381 0.20996 0.79759 0.0
C150 C 0.13131 0.25561 0.73439 0.0
C151 C 0.02487 0.28377 0.76839 0.0
H152 H 0.07873 0.54731 0.81398 0.0
H153 H 0.05003 0.47716 0.82578 0.0
H154 H 0.14098 0.47764 0.73984 0.0
H155 H 0.16953 0.54822 0.72607 0.0
H156 H 0.20372 0.20192 0.68017 0.0
H157 H 0.16824 0.23668 0.66904 0.0
H158 H 0.15061 0.23645 0.82178 0.0
H159 H 0.18786 0.20281 0.83379 0.0
Tb160 Tb 0.30266 0.93321 0.76712 0.0
Tb161 Tb 0.20978 0.90715 0.76342 0.0
C162 C 0.25803 0.9331 0.8593 0.0
C163 C 0.39391 0.92583 0.77201 0.0
C164 C 0.44065 0.89005 0.77403 0.0
C165 C 0.44254 0.91511 0.81129 0.0
C166 C 0.41962 0.93291 0.81013 0.0
C167 C 0.39096 0.89983 0.73542 0.0
C168 C 0.41411 0.88219 0.73641 0.0
C169 C 0.37269 0.94786 0.76948 0.0
O170 O 0.27005 0.8711 0.74825 0.0
O171 O 0.21515 0.8583 0.7888 0.0
O172 O 0.22886 0.91574 0.68817 0.0
O173 O 0.29546 0.95257 0.69782 0.0
O174 O 0.16065 0.90851 0.79027 0.0
O175 O 0.15547 0.86821 0.7325 0.0
O176 O 0.23868 0.96872 0.74789 0.0
O177 O 0.3002 0.98745 0.77802 0.0
O178 O 0.28102 0.92143 0.84058 0.0
O179 O 0.2303 0.93329 0.83385 0.0
C180 C 0.23662 0.84599 0.76787 0.0
O181 O 0.35348 0.94439 0.73031 0.0
O182 O 0.35318 0.9476 0.80736 0.0
C183 C 0.26423 0.93882 0.67104 0.0
C184 C 0.09562 0.86559 0.75891 0.0
C185 C 0.01409 0.8334 0.7564 0.0
C186 C 0.03492 0.83545 0.71442 0.0
C187 C 0.07527 0.85106 0.71581 0.0
C188 C 0.07525 0.86445 0.80062 0.0
C189 C 0.03483 0.84821 0.79951 0.0
C190 C 0.13783 0.88097 0.76064 0.0
C191 C 0.27317 0.99547 0.76321 0.0
H192 H 0.462 0.92129 0.84137 0.0
H193 H 0.42249 0.95281 0.83874 0.0
H194 H 0.37147 0.89374 0.70539 0.0
H195 H 0.41206 0.86341 0.70684 0.0
H196 H 0.02016 0.82513 0.68039 0.0
H197 H 0.09061 0.85194 0.68313 0.0
H198 H 0.09043 0.87524 0.83437 0.0
H199 H 0.01987 0.84648 0.83279 0.0
Tb200 Tb 0.64457 0.71725 0.76114 0.0
Tb201 Tb 0.71235 0.81061 0.75015 0.0
C202 C 0.69633 0.76622 0.84976 0.0
C203 C 0.54486 0.62684 0.76988 0.0
C204 C 0.46238 0.58098 0.77113 0.0
C205 C 0.48468 0.57965 0.80952 0.0
C206 C 0.52537 0.60216 0.80876 0.0
C207 C 0.52275 0.62931 0.73207 0.0
C208 C 0.48192 0.60658 0.73269 0.0
C209 C 0.58805 0.64782 0.76882 0.0
O210 O 0.61665 0.7513 0.74441 0.0
O211 O 0.66064 0.80672 0.78261 0.0
O212 O 0.69399 0.78737 0.67721 0.0
O213 O 0.66959 0.72181 0.69096 0.0
O214 O 0.72326 0.8663 0.72826 0.0
O215 O 0.77013 0.85712 0.75209 0.0
O216 O 0.74169 0.77812 0.73532 0.0
O217 O 0.70003 0.71845 0.7711 0.0
O218 O 0.66239 0.73831 0.83401 0.0
O219 O 0.72085 0.79608 0.82307 0.0
C220 C 0.6256 0.78447 0.76536 0.0
O221 O 0.60537 0.66375 0.7285 0.0
O222 O 0.60588 0.67041 0.80519 0.0
C223 C 0.6845 0.752 0.66202 0.0
C224 C 0.78321 0.92275 0.75273 0.0
C225 C 0.82882 1.00273 0.7769 0.0
C226 C 0.84417 0.98439 0.74803 0.0
C227 C 0.82166 0.94497 0.7362 0.0
C228 C 0.76743 0.94057 0.7819 0.0
C229 C 0.79016 0.98044 0.79385 0.0
C230 C 0.7607 0.88209 0.73555 0.0
C231 C 0.73438 0.74456 0.7537 0.0
H232 H 0.47072 0.56094 0.8402 0.0
H233 H 0.54172 0.59982 0.83839 0.0
H234 H 0.53695 0.64815 0.70156 0.0
H235 H 0.46579 0.60816 0.70234 0.0
H236 H 0.87347 1.00077 0.73352 0.0
H237 H 0.83418 0.93191 0.71314 0.0
H238 H 0.73769 0.92392 0.79492 0.0
H239 H 0.77765 0.99379 0.81635 0.0
H240 H 0.31632 0.94303 0.92062 0.0
H241 H 0.2792 0.07371 0.11212 0.0
H242 H 0.2221 0.9677 0.90713 0.0
H243 H 0.37322 0.04833 0.11917 0.0
H244 H 0.25799 0.03679 0.03628 0.0
H245 H 0.33643 0.98123 0.9944 0.0
C246 C 0.29949 0.95603 0.93342 0.0
C247 C 0.26732 0.95188 0.90749 0.0
C248 C 0.28343 0.03963 0.05439 0.0
C249 C 0.29078 0.99661 0.99208 0.0
C250 C 0.29577 0.06106 0.09737 0.0
C251 C 0.32806 0.0642 0.12211 0.0
C252 C 0.30355 0.02129 0.03621 0.0
C253 C 0.34806 0.04662 0.10163 0.0
C254 C 0.31121 0.97818 0.97552 0.0
C255 C 0.24698 0.96987 0.92594 0.0
N256 N 0.33541 0.0259 0.06026 0.0
N257 N 0.25912 0.99156 0.96694 0.0
H258 H 0.65552 0.68301 0.61409 0.0
H259 H 0.80337 0.76719 0.39088 0.0
H260 H 0.73884 0.80608 0.59872 0.0
H261 H 0.72087 0.64498 0.41552 0.0
H262 H 0.78146 0.78329 0.46577 0.0
H263 H 0.67885 0.67015 0.53943 0.0
C264 C 0.6785 0.70752 0.59468 0.0
C265 C 0.69508 0.74575 0.61284 0.0
C266 C 0.76845 0.75296 0.45487 0.0
C267 C 0.72268 0.731 0.52675 0.0
C268 C 0.78118 0.74367 0.41233 0.0
C269 C 0.76416 0.70457 0.39679 0.0
C270 C 0.73843 0.72295 0.48205 0.0
C271 C 0.73504 0.67551 0.42582 0.0
C272 C 0.69201 0.70009 0.55197 0.0
C273 C 0.72487 0.7762 0.58586 0.0
N274 N 0.72312 0.6853 0.46669 0.0
N275 N 0.7379 0.76815 0.54427 0.0
H276 H 0.9456 0.30367 0.09787 0.0
H277 H 0.05913 0.24771 0.90447 0.0
H278 H 0.96507 0.20729 0.12474 0.0
H279 H 0.07212 0.36235 0.92303 0.0
H280 H 0.01828 0.22586 0.97754 0.0
H281 H 0.98192 0.31699 0.02304 0.0
C282 C 0.9568 0.28468 0.08732 0.0
C283 C 0.95205 0.25417 0.11733 0.0
C284 C 0.03048 0.25583 0.96557 0.0
C285 C 0.99511 0.27011 0.03204 0.0
C286 C 0.05399 0.26843 0.92409 0.0
C287 C 0.06936 0.30705 0.90734 0.0
C288 C 0.02172 0.28183 0.98971 0.0
C289 C 0.06128 0.33239 0.93418 0.0
C290 C 0.97799 0.29259 0.04485 0.0
C291 C 0.96754 0.23069 0.10212 0.0
N292 N 0.03786 0.31924 0.97342 0.0
N293 N 0.98879 0.23936 0.06057 0.0
H294 H 0.38247 0.07094 0.4201 0.0
H295 H 0.21387 0.95028 0.61384 0.0
H296 H 0.26601 0.05293 0.40582 0.0
H297 H 0.32898 0.96383 0.61621 0.0
H298 H 0.23049 0.98641 0.53738 0.0
H299 H 0.36239 0.03242 0.49342 0.0
C300 C 0.35277 0.05933 0.43265 0.0
C301 C 0.32604 0.06549 0.40671 0.0
C302 C 0.25188 0.98106 0.55451 0.0
C303 C 0.30245 0.02046 0.49084 0.0
C304 C 0.24227 0.96011 0.59783 0.0
C305 C 0.27012 0.95409 0.62142 0.0
C306 C 0.28955 0.99593 0.53494 0.0
C307 C 0.30668 0.968 0.59949 0.0
C308 C 0.34117 0.03698 0.47448 0.0
C309 C 0.28775 0.04921 0.42478 0.0
N310 N 0.31533 0.98834 0.55783 0.0
N311 N 0.27707 0.02738 0.46567 0.0
H312 H 0.70908 0.70661 0.86852 0.0
H313 H 0.7101 0.71652 0.14383 0.0
H314 H 0.71477 0.80818 0.9345 0.0
H315 H 0.79546 0.69378 0.07736 0.0
H316 H 0.70111 0.74097 0.06759 0.0
H317 H 0.73081 0.69186 0.94399 0.0
C318 C 0.715 0.72584 0.89901 0.0
C319 C 0.7102 0.75868 0.89547 0.0
C320 C 0.72203 0.73095 0.0698 0.0
C321 C 0.73402 0.74136 0.98189 0.0
C322 C 0.7272 0.71681 0.11324 0.0
C323 C 0.75391 0.7033 0.11725 0.0
C324 C 0.74246 0.73019 0.0292 0.0
C325 C 0.77477 0.70409 0.07599 0.0
C326 C 0.72765 0.71754 0.94176 0.0
C327 C 0.71823 0.78267 0.93587 0.0
N328 N 0.76804 0.71663 0.0333 0.0
N329 N 0.72902 0.77308 0.97786 0.0
H330 H 0.97405 0.22972 0.405 0.0
H331 H 0.04846 0.37795 0.62686 0.0
H332 H 0.95884 0.33059 0.41286 0.0
H333 H 0.08144 0.29017 0.60329 0.0
H334 H 0.01477 0.3609 0.54974 0.0
H335 H 1.01098 0.25014 0.47944 0.0
C336 C 0.97808 0.25599 0.42257 0.0
C337 C 0.96298 0.27831 0.40253 0.0
C338 C 0.02969 0.34564 0.56121 0.0
C339 C 1.00589 0.30214 0.48814 0.0
C340 C 0.0491 0.35544 0.60524 0.0
C341 C 0.06792 0.3355 0.62179 0.0
C342 C 0.02861 0.31532 0.53356 0.0
C343 C 0.06759 0.30653 0.59206 0.0
C344 C 0.99952 0.2678 0.46502 0.0
C345 C 0.96966 0.3123 0.42699 0.0
N346 N 0.04795 0.2971 0.54969 0.0
N347 N 0.99055 0.32313 0.46852 0.0
H348 H 0.61367 0.17705 0.20395 0.0
H349 H 0.80065 0.19691 0.3386 0.0
H350 H 0.61057 0.13161 0.34562 0.0
H351 H 0.80974 0.26079 0.2092 0.0
H352 H 0.73072 0.1725 0.34056 0.0
H353 H 0.68493 0.20787 0.20408 0.0
C354 C 0.62789 0.17382 0.23528 0.0
C355 C 0.60583 0.15142 0.27477 0.0
C356 C 0.74791 0.19203 0.31182 0.0
C357 C 0.68752 0.18629 0.27478 0.0
C358 C 0.78795 0.206 0.31064 0.0
C359 C 0.81117 0.23093 0.27362 0.0
C360 C 0.73054 0.2026 0.27542 0.0
C361 C 0.79297 0.24173 0.23849 0.0
C362 C 0.66861 0.1913 0.23519 0.0
C363 C 0.62606 0.14789 0.31398 0.0
N364 N 0.75365 0.22725 0.24003 0.0
N365 N 0.66558 0.16494 0.31286 0.0
H366 H 0.51853 0.42072 0.31834 0.0
H367 H 0.4796 0.21096 0.22863 0.0
H368 H 0.602 0.40645 0.23319 0.0
H369 H 0.40052 0.22979 0.31683 0.0
H370 H 0.52581 0.28181 0.23024 0.0
H371 H 0.47606 0.35014 0.31904 0.0
C372 C 0.52823 0.40279 0.30018 0.0
C373 C 0.56417 0.41982 0.27592 0.0
C374 C 0.49836 0.27028 0.24932 0.0
C375 C 0.51487 0.33833 0.27568 0.0
C376 C 0.47201 0.22987 0.24845 0.0
C377 C 0.43607 0.21434 0.27256 0.0
C378 C 0.48859 0.29517 0.27447 0.0
C379 C 0.42778 0.24026 0.29764 0.0
C380 C 0.5037 0.36232 0.30025 0.0
C381 C 0.57443 0.39477 0.252 0.0
N382 N 0.45372 0.27922 0.29782 0.0
N383 N 0.5499 0.35531 0.25243 0.0
H384 H 0.82018 0.42062 0.22877 0.0
H385 H 0.85596 0.63381 0.29285 0.0
H386 H 0.92806 0.51596 0.28332 0.0
H387 H 0.751 0.54688 0.22245 0.0
H388 H 0.8802 0.5884 0.29316 0.0
H389 H 0.79236 0.46393 0.22875 0.0
C390 C 0.8381 0.45058 0.24066 0.0
C391 C 0.87661 0.46446 0.25629 0.0
C392 C 0.85184 0.57903 0.27758 0.0
C393 C 0.84465 0.51399 0.25683 0.0
C394 C 0.83782 0.60504 0.27744 0.0
C395 C 0.80127 0.59428 0.25746 0.0
C396 C 0.82935 0.54161 0.25765 0.0
C397 C 0.77935 0.55646 0.23812 0.0
C398 C 0.82207 0.47521 0.24082 0.0
C399 C 0.89808 0.50349 0.27185 0.0
N400 N 0.79375 0.53142 0.23866 0.0
N401 N 0.88183 0.5267 0.27171 0.0
H402 H 0.20482 0.61047 0.76361 0.0
H403 H 0.16254 0.78738 0.78571 0.0
H404 H 0.08957 0.59691 0.76091 0.0
H405 H 0.27612 0.80662 0.74474 0.0
H406 H 0.13698 0.71719 0.78214 0.0
H407 H 0.2329 0.68166 0.75997 0.0
C408 C 0.18532 0.62222 0.76177 0.0
C409 C 0.14456 0.59724 0.76313 0.0
C410 C 0.16749 0.73662 0.7738 0.0
C411 C 0.17677 0.67897 0.76002 0.0
C412 C 0.18226 0.77688 0.77611 0.0
C413 C 0.22168 0.80313 0.76572 0.0
C414 C 0.19224 0.72202 0.76152 0.0
C415 C 0.24555 0.78749 0.75305 0.0
C416 C 0.20148 0.66297 0.75998 0.0
C417 C 0.12106 0.61463 0.76124 0.0
N418 N 0.23052 0.7479 0.7516 0.0
N419 N 0.13746 0.65419 0.76019 0.0
H420 H 0.51703 0.9256 0.80281 0.0
H421 H 0.54982 0.7471 0.73267 0.0
H422 H 0.42572 0.81705 0.74367 0.0
H423 H 0.63544 0.85267 0.80365 0.0
H424 H 0.50384 0.77163 0.73512 0.0
H425 H 0.56052 0.89877 0.80231 0.0
C426 C 0.50588 0.89594 0.79013 0.0
C427 C 0.46734 0.87354 0.77367 0.0
C428 C 0.53265 0.78931 0.75026 0.0
C429 C 0.51772 0.84271 0.77204 0.0
C430 C 0.55894 0.77534 0.74891 0.0
C431 C 0.59666 0.79788 0.76792 0.0
C432 C 0.5442 0.82611 0.77068 0.0
C433 C 0.60677 0.83423 0.7885 0.0
C434 C 0.53095 0.88069 0.78952 0.0
C435 C 0.45521 0.83561 0.75638 0.0
N436 N 0.58079 0.84718 0.7892 0.0
N437 N 0.48029 0.82141 0.75601 0.0
H438 H 0.23126 0.38082 0.80201 0.0
H439 H 0.40534 0.59619 0.73873 0.0
H440 H 0.21131 0.46826 0.73635 0.0
H441 H 0.42062 0.5049 0.80167 0.0
H442 H 0.33461 0.55117 0.73775 0.0
H443 H 0.30077 0.42738 0.80312 0.0
C444 C 0.24145 0.40988 0.78778 0.0
C445 C 0.21522 0.42051 0.76891 0.0
C446 C 0.35352 0.54114 0.75189 0.0
C447 C 0.29555 0.47441 0.77004 0.0
C448 C 0.39394 0.56674 0.75225 0.0
C449 C 0.41918 0.55451 0.77056 0.0
C450 C 0.33819 0.50297 0.76988 0.0
C451 C 0.40252 0.51607 0.78805 0.0
C452 C 0.28134 0.43656 0.78843 0.0
C453 C 0.23044 0.45874 0.75113 0.0
N454 N 0.36327 0.49183 0.78724 0.0
N455 N 0.26964 0.48433 0.75206 0.0
H456 H 0.11521 0.14695 0.27912 0.0
H457 H 0.05685 0.29726 0.18993 0.0
H458 H 0.2049 0.25149 0.2097 0.0
H459 H 0.02185 0.24152 0.32814 0.0
H460 H 0.10865 0.27972 0.18659 0.0
H461 H 0.07494 0.1772 0.28533 0.0
C462 C 0.12667 0.17631 0.2653 0.0
C463 C 0.16407 0.19685 0.2447 0.0
C464 C 0.09035 0.27253 0.21821 0.0
C465 C 0.11715 0.23121 0.25052 0.0
C466 C 0.0613 0.28296 0.22039 0.0
C467 C 0.03584 0.27141 0.25981 0.0
C468 C 0.09266 0.24953 0.25503 0.0
C469 C 0.04146 0.25145 0.29757 0.0
C470 C 0.10351 0.1935 0.2688 0.0
C471 C 0.17628 0.23433 0.22567 0.0
N472 N 0.06878 0.24048 0.29387 0.0
N473 N 0.1528 0.25034 0.2289 0.0
H474 H 0.06065 0.84865 0.18785 0.0
H475 H 0.25076 0.98673 0.34225 0.0
H476 H 0.05652 0.87399 0.3378 0.0
H477 H 0.24893 0.97972 0.18807 0.0
H478 H 0.18205 0.9345 0.34435 0.0
H479 H 0.13158 0.88693 0.19027 0.0
C480 C 0.07463 0.8625 0.22128 0.0
C481 C 0.05244 0.85867 0.26248 0.0
C482 C 0.197 0.94357 0.31014 0.0
C483 C 0.13407 0.902 0.26571 0.0
C484 C 0.2363 0.97281 0.30903 0.0
C485 C 0.25545 0.98657 0.26497 0.0
C486 C 0.17699 0.92831 0.2668 0.0
C487 C 0.23522 0.96905 0.22272 0.0
C488 C 0.11522 0.88406 0.22272 0.0
C489 C 0.0724 0.87621 0.30515 0.0
N490 N 0.19698 0.94099 0.22464 0.0
N491 N 0.1121 0.89737 0.30559 0.0
H492 H 0.80883 0.9669 0.34093 0.0
H493 H 0.75009 0.77656 0.18499 0.0
H494 H 0.81318 0.9654 0.18621 0.0
H495 H 0.74634 0.77578 0.33927 0.0
H496 H 0.76211 0.84333 0.1849 0.0
H497 H 0.77799 0.89567 0.34142 0.0
C498 C 0.80343 0.9516 0.30703 0.0
C499 C 0.81407 0.97219 0.26343 0.0
C500 C 0.75753 0.82836 0.21887 0.0
C501 C 0.77798 0.89059 0.26377 0.0
C502 C 0.74985 0.78992 0.2188 0.0
C503 C 0.74596 0.77045 0.26211 0.0
C504 C 0.76243 0.8478 0.26272 0.0
C505 C 0.74813 0.78968 0.30518 0.0
C506 C 0.78543 0.91089 0.30736 0.0
C507 C 0.8054 0.95075 0.22062 0.0
N508 N 0.75681 0.82767 0.30447 0.0
N509 N 0.78811 0.91115 0.22191 0.0
H510 H 0.2593 0.20213 0.70481 0.0
H511 H 0.25811 0.02426 0.8429 0.0
H512 H 0.18322 0.14172 0.82462 0.0
H513 H 0.29368 0.05188 0.69537 0.0
H514 H 0.2454 0.07901 0.84602 0.0
H515 H 0.28548 0.15784 0.70963 0.0
C516 C 0.24805 0.17972 0.73223 0.0
C517 C 0.21845 0.17557 0.76398 0.0
C518 C 0.25705 0.07382 0.81337 0.0
C519 C 0.24948 0.12549 0.77043 0.0
C520 C 0.26491 0.04306 0.81185 0.0
C521 C 0.27814 0.03458 0.7693 0.0
C522 C 0.26251 0.0962 0.77196 0.0
C523 C 0.28468 0.05845 0.72922 0.0
C524 C 0.2633 0.15462 0.73508 0.0
C525 C 0.20617 0.14655 0.79961 0.0
N526 N 0.27671 0.08821 0.73144 0.0
N527 N 0.22163 0.12259 0.80173 0.0
H528 H 0.96095 0.77101 0.70204 0.0
H529 H 0.77743 0.76073 0.83331 0.0
H530 H 0.96821 0.85397 0.80896 0.0
H531 H 0.77093 0.72461 0.68618 0.0
H532 H 0.84586 0.77797 0.83552 0.0
H533 H 0.88983 0.74045 0.70377 0.0
C534 C 0.94782 0.78301 0.72571 0.0
C535 C 0.97089 0.81511 0.75569 0.0
C536 C 0.82913 0.7651 0.80321 0.0
C537 C 0.88959 0.77907 0.75904 0.0
C538 C 0.7899 0.75439 0.80234 0.0
C539 C 0.76846 0.74007 0.76002 0.0
C540 C 0.8469 0.76156 0.76136 0.0
C541 C 0.7865 0.73459 0.7198 0.0
C542 C 0.90722 0.76521 0.72694 0.0
C543 C 0.95188 0.82874 0.78613 0.0
N544 N 0.82499 0.74563 0.72127 0.0
N545 N 0.91237 0.81049 0.78723 0.0
H546 H 0.0297 0.2282 0.81753 0.0
H547 H 0.80884 0.06045 0.77504 0.0
H548 H 0.94572 0.25315 0.75326 0.0
H549 H 0.9054 0.04172 0.80305 0.0
H550 H 0.85338 0.13146 0.7831 0.0
H551 H 0.9791 0.16099 0.82993 0.0
C552 C 1.0002 0.21977 0.80734 0.0
C553 C 0.99176 0.24644 0.78498 0.0
C554 C 0.86457 0.11165 0.78781 0.0
C555 C 0.93343 0.16843 0.79728 0.0
C556 C 0.83919 0.07118 0.78359 0.0
C557 C 0.85352 0.04513 0.78785 0.0
C558 C 0.90433 0.12593 0.79688 0.0
C559 C 0.89314 0.06066 0.7987 0.0
C560 C 0.97128 0.1811 0.8139 0.0
C561 C 0.95316 0.2335 0.77126 0.0
N562 N 0.91706 0.09989 0.80253 0.0
N563 N 0.9253 0.19509 0.77715 0.0
loop_
_geom_bond_atom_site_label_1
_geom_bond_atom_site_label_2
_geom_bond_distance
_geom_bond_site_symmetry_2
_ccdc_geom_bond_type
Tb0 C9 2.764 . S
Tb0 O10 2.325 . S
Tb0 O13 2.303 . S
Tb0 O17 2.322 . S
Tb0 O18 2.349 . S
Tb0 O21 2.415 . S
Tb0 O22 2.399 . S
Tb1 O11 2.322 . S
Tb1 O12 2.349 . S
Tb1 O14 2.415 . S
Tb1 O15 2.399 . S
Tb1 O16 2.325 . S
Tb1 O19 2.303 . S
Tb1 C30 2.764 . S
C2 O18 1.261 . S
C2 O19 1.257 . S
C3 C6 1.358 . S
C3 C7 1.332 . S
C3 C9 1.504 . S
C4 C5 1.373 . S
C4 C8 1.308 . S
C5 C4 1.373 . S
C5 C6 1.429 . S
C5 H32 0.932 . S
C6 C3 1.358 . S
C6 C5 1.429 . S
C6 H33 0.930 . S
C7 C3 1.332 . S
C7 C8 1.394 . S
C7 H34 0.932 . S
C8 C4 1.308 . S
C8 C7 1.394 . S
C8 H35 0.929 . S
C9 Tb0 2.764 . S
C9 C3 1.504 . S
C9 O21 1.239 . S
C9 O22 1.263 . S
O10 Tb0 2.325 . S
O10 C20 1.236 . S
O11 Tb1 2.322 . S
O11 C20 1.257 . S
O12 Tb1 2.349 . S
O12 C23 1.261 . S
O13 Tb0 2.303 . S
O13 C23 1.257 . S
O14 Tb1 2.415 . S
O14 C30 1.239 . S
O15 Tb1 2.399 . S
O15 C30 1.263 . S
O16 Tb1 2.325 . S
O16 C31 1.236 . S
O17 Tb0 2.322 . S
O17 C31 1.257 . S
O18 Tb0 2.349 . S
O18 C2 1.261 . S
O19 Tb1 2.303 . S
O19 C2 1.257 . S
C20 O10 1.236 . S
C20 O11 1.257 . S
O21 Tb0 2.415 . S
O21 C9 1.239 . S
O22 Tb0 2.399 . S
O22 C9 1.263 . S
C23 O12 1.261 . S
C23 O13 1.257 . S
C24 C27 1.358 . S
C24 C28 1.332 . S
C24 C30 1.504 . S
C25 C26 1.373 . S
C25 C29 1.308 . S
C26 C25 1.373 . S
C26 C27 1.429 . S
C26 H36 0.932 . S
C27 C24 1.358 . S
C27 C26 1.429 . S
C27 H37 0.930 . S
C28 C24 1.332 . S
C28 C29 1.394 . S
C28 H38 0.932 . S
C29 C25 1.308 . S
C29 C28 1.394 . S
C29 H39 0.929 . S
C30 Tb1 2.764 . S
C30 O14 1.239 . S
C30 O15 1.263 . S
C30 C24 1.504 . S
C31 O16 1.236 . S
C31 O17 1.257 . S
H32 C5 0.932 . S
H33 C6 0.930 . S
H34 C7 0.932 . S
H35 C8 0.929 . S
H36 C26 0.932 . S
H37 C27 0.930 . S
H38 C28 0.932 . S
H39 C29 0.929 . S
Tb40 C49 2.764 . S
Tb40 O50 2.325 . S
Tb40 O53 2.303 . S
Tb40 O57 2.322 . S
Tb40 O58 2.349 . S
Tb40 O61 2.415 . S
Tb40 O62 2.399 . S
Tb41 O51 2.322 . S
Tb41 O52 2.349 . S
Tb41 O54 2.415 . S
Tb41 O55 2.399 . S
Tb41 O56 2.325 . S
Tb41 O59 2.303 . S
Tb41 C70 2.764 . S
C42 O58 1.261 . S
C42 O59 1.257 . S
C43 C46 1.358 . S
C43 C47 1.332 . S
C43 C49 1.504 . S
C44 C45 1.371 . S
C44 C48 1.319 . S
C45 C44 1.371 . S
C45 C46 1.429 . S
C45 H72 0.932 1_655 S
C46 C43 1.358 . S
C46 C45 1.429 . S
C46 H73 0.930 . S
C47 C43 1.332 . S
C47 C48 1.394 . S
C47 H74 0.932 . S
C48 C44 1.319 . S
C48 C47 1.394 . S
C48 H75 0.929 . S
C49 Tb40 2.764 . S
C49 C43 1.504 . S
C49 O61 1.239 . S
C49 O62 1.263 . S
O50 Tb40 2.325 . S
O50 C60 1.236 . S
O51 Tb41 2.322 . S
O51 C60 1.257 . S
O52 Tb41 2.349 . S
O52 C63 1.261 . S
O53 Tb40 2.303 . S
O53 C63 1.257 . S
O54 Tb41 2.415 . S
O54 C70 1.239 . S
O55 Tb41 2.399 . S
O55 C70 1.263 . S
O56 Tb41 2.325 . S
O56 C71 1.236 . S
O57 Tb40 2.322 . S
O57 C71 1.257 . S
O58 Tb40 2.349 . S
O58 C42 1.261 . S
O59 Tb41 2.303 . S
O59 C42 1.257 . S
C60 O50 1.236 . S
C60 O51 1.257 . S
O61 Tb40 2.415 . S
O61 C49 1.239 . S
O62 Tb40 2.399 . S
O62 C49 1.263 . S
C63 O52 1.261 . S
C63 O53 1.257 . S
C64 C67 1.358 . S
C64 C68 1.332 . S
C64 C70 1.504 . S
C65 C66 1.373 . S
C65 C69 1.308 . S
C66 C65 1.373 . S
C66 C67 1.429 . S
C66 H76 0.932 . S
C67 C64 1.358 . S
C67 C66 1.429 . S
C67 H77 0.930 . S
C68 C64 1.332 . S
C68 C69 1.394 . S
C68 H78 0.932 . S
C69 C65 1.308 . S
C69 C68 1.394 . S
C69 H79 0.929 . S
C70 Tb41 2.764 . S
C70 O54 1.239 . S
C70 O55 1.263 . S
C70 C64 1.504 . S
C71 O56 1.236 . S
C71 O57 1.257 . S
H72 C45 0.932 1_455 S
H73 C46 0.930 . S
H74 C47 0.932 . S
H75 C48 0.929 . S
H76 C66 0.932 . S
H77 C67 0.930 . S
H78 C68 0.932 . S
H79 C69 0.929 . S
Tb80 C89 2.764 . S
Tb80 O90 2.325 . S
Tb80 O93 2.303 . S
Tb80 O97 2.322 . S
Tb80 O98 2.349 . S
Tb80 O101 2.415 . S
Tb80 O102 2.399 . S
Tb81 O91 2.322 . S
Tb81 O92 2.349 . S
Tb81 O94 2.415 . S
Tb81 O95 2.399 . S
Tb81 O96 2.325 . S
Tb81 O99 2.303 . S
Tb81 C110 2.764 . S
C82 O98 1.261 . S
C82 O99 1.257 . S
C83 C86 1.358 . S
C83 C87 1.332 . S
C83 C89 1.504 . S
C84 C85 1.380 . S
C84 C88 1.319 . S
C85 C84 1.380 . S
C85 C86 1.429 . S
C85 H112 0.932 1_545 S
C86 C83 1.358 . S
C86 C85 1.429 . S
C86 H113 0.930 . S
C87 C83 1.332 . S
C87 C88 1.394 . S
C87 H114 0.932 . S
C88 C84 1.319 . S
C88 C87 1.394 . S
C88 H115 0.929 . S
C89 Tb80 2.764 . S
C89 C83 1.504 . S
C89 O101 1.239 . S
C89 O102 1.263 . S
O90 Tb80 2.325 . S
O90 C100 1.236 . S
O91 Tb81 2.322 . S
O91 C100 1.257 . S
O92 Tb81 2.349 . S
O92 C103 1.261 . S
O93 Tb80 2.303 . S
O93 C103 1.257 . S
O94 Tb81 2.415 . S
O94 C110 1.239 . S
O95 Tb81 2.399 . S
O95 C110 1.263 . S
O96 Tb81 2.325 . S
O96 C111 1.236 . S
O97 Tb80 2.322 . S
O97 C111 1.257 . S
O98 Tb80 2.349 . S
O98 C82 1.261 . S
O99 Tb81 2.303 . S
O99 C82 1.257 . S
C100 O90 1.236 . S
C100 O91 1.257 . S
O101 Tb80 2.415 . S
O101 C89 1.239 . S
O102 Tb80 2.399 . S
O102 C89 1.263 . S
C103 O92 1.261 . S
C103 O93 1.257 . S
C104 C107 1.358 . S
C104 C108 1.332 . S
C104 C110 1.504 . S
C105 C106 1.373 . S
C105 C109 1.308 . S
C106 C105 1.373 . S
C106 C107 1.429 . S
C106 H116 0.932 . S
C107 C104 1.358 . S
C107 C106 1.429 . S
C107 H117 0.930 . S
C108 C104 1.332 . S
C108 C109 1.394 . S
C108 H118 0.932 . S
C109 C105 1.308 . S
C109 C108 1.394 . S
C109 H119 0.929 . S
C110 Tb81 2.764 . S
C110 O94 1.239 . S
C110 O95 1.263 . S
C110 C104 1.504 . S
C111 O96 1.236 . S
C111 O97 1.257 . S
H112 C85 0.932 1_565 S
H113 C86 0.930 . S
H114 C87 0.932 . S
H115 C88 0.929 . S
H116 C106 0.932 . S
H117 C107 0.930 . S
H118 C108 0.932 . S
H119 C109 0.929 . S
Tb120 C129 2.764 . S
Tb120 O130 2.325 . S
Tb120 O133 2.303 . S
Tb120 O137 2.322 . S
Tb120 O138 2.349 . S
Tb120 O141 2.415 . S
Tb120 O142 2.399 . S
Tb121 O131 2.322 . S
Tb121 O132 2.349 . S
Tb121 O134 2.415 . S
Tb121 O135 2.399 . S
Tb121 O136 2.325 . S
Tb121 O139 2.303 . S
Tb121 C150 2.764 . S
C122 O138 1.261 . S
C122 O139 1.257 . S
C123 C126 1.358 . S
C123 C127 1.332 . S
C123 C129 1.504 . S
C124 C125 1.373 . S
C124 C128 1.308 . S
C125 C124 1.373 . S
C125 C126 1.429 . S
C125 H152 0.932 . S
C126 C123 1.358 . S
C126 C125 1.429 . S
C126 H153 0.930 . S
C127 C123 1.332 . S
C127 C128 1.394 . S
C127 H154 0.932 . S
C128 C124 1.308 . S
C128 C127 1.394 . S
C128 H155 0.929 . S
C129 Tb120 2.764 . S
C129 C123 1.504 . S
C129 O141 1.239 . S
C129 O142 1.263 . S
O130 Tb120 2.325 . S
O130 C140 1.236 . S
O131 Tb121 2.322 . S
O131 C140 1.257 . S
O132 Tb121 2.349 . S
O132 C143 1.261 . S
O133 Tb120 2.303 . S
O133 C143 1.257 . S
O134 Tb121 2.415 . S
O134 C150 1.239 . S
O135 Tb121 2.399 . S
O135 C150 1.263 . S
O136 Tb121 2.325 . S
O136 C151 1.236 . S
O137 Tb120 2.322 . S
O137 C151 1.257 . S
O138 Tb120 2.349 . S
O138 C122 1.261 . S
O139 Tb121 2.303 . S
O139 C122 1.257 . S
C140 O130 1.236 . S
C140 O131 1.257 . S
O141 Tb120 2.415 . S
O141 C129 1.239 . S
O142 Tb120 2.399 . S
O142 C129 1.263 . S
C143 O132 1.261 . S
C143 O133 1.257 . S
C144 C147 1.358 . S
C144 C148 1.332 . S
C144 C150 1.504 . S
C145 C146 1.373 . S
C145 C149 1.308 . S
C146 C145 1.373 . S
C146 C147 1.429 . S
C146 H156 0.932 . S
C147 C144 1.358 . S
C147 C146 1.429 . S
C147 H157 0.930 . S
C148 C144 1.332 . S
C148 C149 1.394 . S
C148 H158 0.932 . S
C149 C145 1.308 . S
C149 C148 1.394 . S
C149 H159 0.929 . S
C150 Tb121 2.764 . S
C150 O134 1.239 . S
C150 O135 1.263 . S
C150 C144 1.504 . S
C151 O136 1.236 . S
C151 O137 1.257 . S
H152 C125 0.932 . S
H153 C126 0.930 . S
H154 C127 0.932 . S
H155 C128 0.929 . S
H156 C146 0.932 . S
H157 C147 0.930 . S
H158 C148 0.932 . S
H159 C149 0.929 . S
Tb160 C169 2.764 . S
Tb160 O170 2.325 . S
Tb160 O173 2.303 . S
Tb160 O177 2.322 . S
Tb160 O178 2.349 . S
Tb160 O181 2.415 . S
Tb160 O182 2.399 . S
Tb161 O171 2.322 . S
Tb161 O172 2.349 . S
Tb161 O174 2.415 . S
Tb161 O175 2.399 . S
Tb161 O176 2.325 . S
Tb161 O179 2.303 . S
Tb161 C190 2.764 . S
C162 O178 1.261 . S
C162 O179 1.257 . S
C163 C166 1.358 . S
C163 C167 1.332 . S
C163 C169 1.504 . S
C164 C165 1.373 . S
C164 C168 1.308 . S
C165 C164 1.373 . S
C165 C166 1.429 . S
C165 H192 0.932 . S
C166 C163 1.358 . S
C166 C165 1.429 . S
C166 H193 0.930 . S
C167 C163 1.332 . S
C167 C168 1.394 . S
C167 H194 0.932 . S
C168 C164 1.308 . S
C168 C167 1.394 . S
C168 H195 0.929 . S
C169 Tb160 2.764 . S
C169 C163 1.504 . S
C169 O181 1.239 . S
C169 O182 1.263 . S
O170 Tb160 2.325 . S
O170 C180 1.236 . S
O171 Tb161 2.322 . S
O171 C180 1.257 . S
O172 Tb161 2.349 . S
O172 C183 1.261 . S
O173 Tb160 2.303 . S
O173 C183 1.257 . S
O174 Tb161 2.415 . S
O174 C190 1.239 . S
O175 Tb161 2.399 . S
O175 C190 1.263 . S
O176 Tb161 2.325 . S
O176 C191 1.236 . S
O177 Tb160 2.322 . S
O177 C191 1.257 . S
O178 Tb160 2.349 . S
O178 C162 1.261 . S
O179 Tb161 2.303 . S
O179 C162 1.257 . S
C180 O170 1.236 . S
C180 O171 1.257 . S
O181 Tb160 2.415 . S
O181 C169 1.239 . S
O182 Tb160 2.399 . S
O182 C169 1.263 . S
C183 O172 1.261 . S
C183 O173 1.257 . S
C184 C187 1.358 . S
C184 C188 1.332 . S
C184 C190 1.504 . S
C185 C186 1.380 . S
C185 C189 1.319 . S
C186 C185 1.380 . S
C186 C187 1.429 . S
C186 H196 0.932 1_455 S
C187 C184 1.358 . S
C187 C186 1.429 . S
C187 H197 0.930 . S
C188 C184 1.332 . S
C188 C189 1.394 . S
C188 H198 0.932 . S
C189 C185 1.319 . S
C189 C188 1.394 . S
C189 H199 0.929 . S
C190 Tb161 2.764 . S
C190 O174 1.239 . S
C190 O175 1.263 . S
C190 C184 1.504 . S
C191 O176 1.236 . S
C191 O177 1.257 . S
H192 C165 0.932 . S
H193 C166 0.930 . S
H194 C167 0.932 . S
H195 C168 0.929 . S
H196 C186 0.932 1_655 S
H197 C187 0.930 . S
H198 C188 0.932 . S
H199 C189 0.929 . S
Tb200 C209 2.764 . S
Tb200 O210 2.325 . S
Tb200 O213 2.303 . S
Tb200 O217 2.322 . S
Tb200 O218 2.349 . S
Tb200 O221 2.415 . S
Tb200 O222 2.399 . S
Tb201 O211 2.322 . S
Tb201 O212 2.349 . S
Tb201 O214 2.415 . S
Tb201 O215 2.399 . S
Tb201 O216 2.325 . S
Tb201 O219 2.303 . S
Tb201 C230 2.764 . S
C202 O218 1.261 . S
C202 O219 1.257 . S
C203 C206 1.358 . S
C203 C207 1.332 . S
C203 C209 1.504 . S
C204 C205 1.373 . S
C204 C208 1.308 . S
C205 C204 1.373 . S
C205 C206 1.429 . S
C205 H232 0.932 . S
C206 C203 1.358 . S
C206 C205 1.429 . S
C206 H233 0.930 . S
C207 C203 1.332 . S
C207 C208 1.394 . S
C207 H234 0.932 . S
C208 C204 1.308 . S
C208 C207 1.394 . S
C208 H235 0.929 . S
C209 Tb200 2.764 . S
C209 C203 1.504 . S
C209 O221 1.239 . S
C209 O222 1.263 . S
O210 Tb200 2.325 . S
O210 C220 1.236 . S
O211 Tb201 2.322 . S
O211 C220 1.257 . S
O212 Tb201 2.349 . S
O212 C223 1.261 . S
O213 Tb200 2.303 . S
O213 C223 1.257 . S
O214 Tb201 2.415 . S
O214 C230 1.239 . S
O215 Tb201 2.399 . S
O215 C230 1.263 . S
O216 Tb201 2.325 . S
O216 C231 1.236 . S
O217 Tb200 2.322 . S
O217 C231 1.257 . S
O218 Tb200 2.349 . S
O218 C202 1.261 . S
O219 Tb201 2.303 . S
O219 C202 1.257 . S
C220 O210 1.236 . S
C220 O211 1.257 . S
O221 Tb200 2.415 . S
O221 C209 1.239 . S
O222 Tb200 2.399 . S
O222 C209 1.263 . S
C223 O212 1.261 . S
C223 O213 1.257 . S
C224 C227 1.358 . S
C224 C228 1.332 . S
C224 C230 1.504 . S
C225 C226 1.371 . S
C225 C229 1.319 . S
C226 C225 1.371 . S
C226 C227 1.429 . S
C226 H236 0.932 1_565 S
C227 C224 1.358 . S
C227 C226 1.429 . S
C227 H237 0.930 . S
C228 C224 1.332 . S
C228 C229 1.394 . S
C228 H238 0.932 . S
C229 C225 1.319 . S
C229 C228 1.394 . S
C229 H239 0.929 . S
C230 Tb201 2.764 . S
C230 O214 1.239 . S
C230 O215 1.263 . S
C230 C224 1.504 . S
C231 O216 1.236 . S
C231 O217 1.257 . S
H232 C205 0.932 . S
H233 C206 0.930 . S
H234 C207 0.932 . S
H235 C208 0.929 . S
H236 C226 0.932 1_545 S
H237 C227 0.930 . S
H238 C228 0.932 . S
H239 C229 0.929 . S
H240 C246 0.930 . S
H241 C250 0.930 . S
H242 C255 0.929 . S
H243 C253 0.929 . S
H244 C248 0.929 1_556 S
H245 C254 0.929 1_554 S
C246 H240 0.930 . S
C246 C247 1.367 . S
C246 C254 1.378 . S
C247 C246 1.367 . S
C247 C255 1.433 . S
C248 H244 0.929 1_554 S
C248 C250 1.378 . S
C248 C252 1.350 . S
C249 C252 1.463 1_566 S
C249 C254 1.350 . S
C249 N257 1.427 1_565 S
C250 H241 0.930 . S
C250 C248 1.378 . S
C250 C251 1.367 . S
C251 C250 1.367 . S
C251 C253 1.433 . S
C252 C248 1.350 . S
C252 C249 1.463 1_544 S
C252 N256 1.427 . S
C253 H243 0.929 . S
C253 C251 1.433 . S
C253 N256 1.384 . S
C254 H245 0.929 1_556 S
C254 C246 1.378 . S
C254 C249 1.350 . S
C255 H242 0.929 . S
C255 C247 1.433 . S
C255 N257 1.384 1_565 S
N256 C252 1.427 . S
N256 C253 1.384 . S
N257 C249 1.427 1_545 S
N257 C255 1.384 1_545 S
H258 C264 0.930 . S
H259 C268 0.930 . S
H260 C273 0.929 . S
H261 C271 0.929 . S
H262 C266 0.929 . S
H263 C272 0.929 . S
C264 H258 0.930 . S
C264 C265 1.367 . S
C264 C272 1.378 . S
C265 C264 1.367 . S
C265 C273 1.433 . S
C266 H262 0.929 . S
C266 C268 1.378 . S
C266 C270 1.350 . S
C267 C270 1.463 . S
C267 C272 1.350 . S
C267 N275 1.427 . S
C268 H259 0.930 . S
C268 C266 1.378 . S
C268 C269 1.367 . S
C269 C268 1.367 . S
C269 C271 1.433 . S
C270 C266 1.350 . S
C270 C267 1.463 . S
C270 N274 1.427 . S
C271 H261 0.929 . S
C271 C269 1.433 . S
C271 N274 1.384 . S
C272 H263 0.929 . S
C272 C264 1.378 . S
C272 C267 1.350 . S
C273 H260 0.929 . S
C273 C265 1.433 . S
C273 N275 1.384 . S
N274 C270 1.427 . S
N274 C271 1.384 . S
N275 C267 1.427 . S
N275 C273 1.384 . S
H276 C282 0.930 . S
H277 C286 0.930 . S
H278 C291 0.929 . S
H279 C289 0.929 . S
H280 C284 0.929 1_554 S
H281 C290 0.929 1_556 S
C282 H276 0.930 . S
C282 C283 1.367 . S
C282 C290 1.378 . S
C283 C282 1.367 . S
C283 C291 1.433 . S
C284 H280 0.929 1_556 S
C284 C286 1.378 . S
C284 C288 1.350 . S
C285 C288 1.463 1_654 S
C285 C290 1.350 . S
C285 N293 1.427 . S
C286 H277 0.930 . S
C286 C284 1.378 . S
C286 C287 1.367 . S
C287 C286 1.367 . S
C287 C289 1.433 . S
C288 C284 1.350 . S
C288 C285 1.463 1_456 S
C288 N292 1.415 1_455 S
C289 H279 0.929 . S
C289 C287 1.433 . S
C289 N292 1.364 1_455 S
C290 H281 0.929 1_554 S
C290 C282 1.378 . S
C290 C285 1.350 . S
C291 H278 0.929 . S
C291 C283 1.433 . S
C291 N293 1.384 . S
N292 C288 1.415 1_655 S
N292 C289 1.364 1_655 S
N293 C285 1.427 . S
N293 C291 1.384 . S
H294 C300 0.930 . S
H295 C304 0.930 . S
H296 C309 0.929 . S
H297 C307 0.929 . S
H298 C302 0.929 1_545 S
H299 C308 0.929 1_565 S
C300 H294 0.930 . S
C300 C301 1.367 . S
C300 C308 1.378 . S
C301 C300 1.367 . S
C301 C309 1.433 . S
C302 H298 0.929 1_565 S
C302 C304 1.378 . S
C302 C306 1.350 . S
C303 C306 1.463 1_545 S
C303 C308 1.350 . S
C303 N311 1.427 . S
C304 H295 0.930 . S
C304 C302 1.378 . S
C304 C305 1.367 . S
C305 C304 1.367 . S
C305 C307 1.433 . S
C306 C302 1.350 . S
C306 C303 1.463 1_565 S
C306 N310 1.427 . S
C307 H297 0.929 . S
C307 C305 1.433 . S
C307 N310 1.384 . S
C308 H299 0.929 1_545 S
C308 C300 1.378 . S
C308 C303 1.350 . S
C309 H296 0.929 . S
C309 C301 1.433 . S
C309 N311 1.384 . S
N310 C306 1.427 . S
N310 C307 1.384 . S
N311 C303 1.427 . S
N311 C309 1.384 . S
H312 C318 0.930 . S
H313 C322 0.930 . S
H314 C327 0.929 . S
H315 C325 0.929 . S
H316 C320 0.929 . S
H317 C326 0.929 . S
C318 H312 0.930 . S
C318 C319 1.367 . S
C318 C326 1.378 . S
C319 C318 1.367 . S
C319 C327 1.433 . S
C320 H316 0.929 . S
C320 C322 1.378 . S
C320 C324 1.350 . S
C321 C324 1.463 1_556 S
C321 C326 1.350 . S
C321 N329 1.427 . S
C322 H313 0.930 . S
C322 C320 1.378 . S
C322 C323 1.367 . S
C323 C322 1.367 . S
C323 C325 1.433 . S
C324 C320 1.350 . S
C324 C321 1.463 1_554 S
C324 N328 1.427 . S
C325 H315 0.929 . S
C325 C323 1.433 . S
C325 N328 1.384 . S
C326 H317 0.929 . S
C326 C318 1.378 . S
C326 C321 1.350 . S
C327 H314 0.929 . S
C327 C319 1.433 . S
C327 N329 1.384 . S
N328 C324 1.427 . S
N328 C325 1.384 . S
N329 C321 1.427 . S
N329 C327 1.384 . S
H330 C336 0.930 . S
H331 C340 0.930 . S
H332 C345 0.929 . S
H333 C343 0.929 . S
H334 C338 0.929 1_655 S
H335 C344 0.929 . S
C336 H330 0.930 . S
C336 C337 1.367 . S
C336 C344 1.378 1_655 S
C337 C336 1.367 . S
C337 C345 1.433 . S
C338 H334 0.929 1_455 S
C338 C340 1.378 . S
C338 C342 1.350 . S
C339 C342 1.463 1_655 S
C339 C344 1.350 1_655 S
C339 N347 1.427 . S
C340 H331 0.930 . S
C340 C338 1.378 . S
C340 C341 1.367 . S
C341 C340 1.367 . S
C341 C343 1.433 . S
C342 C338 1.350 . S
C342 C339 1.463 1_455 S
C342 N346 1.427 . S
C343 H333 0.929 . S
C343 C341 1.433 . S
C343 N346 1.384 . S
C344 H335 0.929 . S
C344 C336 1.378 1_455 S
C344 C339 1.350 1_455 S
C345 H332 0.929 . S
C345 C337 1.433 . S
C345 N347 1.384 . S
N346 C342 1.427 . S
N346 C343 1.384 . S
N347 C339 1.427 . S
N347 C345 1.384 . S
H348 C354 0.930 . S
H349 C358 0.930 . S
H350 C363 0.929 . S
H351 C361 0.929 . S
H352 C356 0.929 . S
H353 C362 0.929 . S
C354 H348 0.930 . S
C354 C355 1.367 . S
C354 C362 1.378 . S
C355 C354 1.367 . S
C355 C363 1.433 . S
C356 H352 0.929 . S
C356 C358 1.378 . S
C356 C360 1.350 . S
C357 C360 1.463 . S
C357 C362 1.350 . S
C357 N365 1.427 . S
C358 H349 0.930 . S
C358 C356 1.378 . S
C358 C359 1.367 . S
C359 C358 1.367 . S
C359 C361 1.433 . S
C360 C356 1.350 . S
C360 C357 1.463 . S
C360 N364 1.427 . S
C361 H351 0.929 . S
C361 C359 1.433 . S
C361 N364 1.384 . S
C362 H353 0.929 . S
C362 C354 1.378 . S
C362 C357 1.350 . S
C363 H350 0.929 . S
C363 C355 1.433 . S
C363 N365 1.384 . S
N364 C360 1.427 . S
N364 C361 1.384 . S
N365 C357 1.427 . S
N365 C363 1.384 . S
H366 C372 0.930 . S
H367 C376 0.930 . S
H368 C381 0.929 . S
H369 C379 0.929 . S
H370 C374 0.929 . S
H371 C380 0.929 . S
C372 H366 0.930 . S
C372 C373 1.367 . S
C372 C380 1.378 . S
C373 C372 1.367 . S
C373 C381 1.433 . S
C374 H370 0.929 . S
C374 C376 1.378 . S
C374 C378 1.350 . S
C375 C378 1.463 . S
C375 C380 1.350 . S
C375 N383 1.427 . S
C376 H367 0.930 . S
C376 C374 1.378 . S
C376 C377 1.367 . S
C377 C376 1.367 . S
C377 C379 1.433 . S
C378 C374 1.350 . S
C378 C375 1.463 . S
C378 N382 1.427 . S
C379 H369 0.929 . S
C379 C377 1.433 . S
C379 N382 1.384 . S
C380 H371 0.929 . S
C380 C372 1.378 . S
C380 C375 1.350 . S
C381 H368 0.929 . S
C381 C373 1.433 . S
C381 N383 1.384 . S
N382 C378 1.427 . S
N382 C379 1.384 . S
N383 C375 1.427 . S
N383 C381 1.384 . S
H384 C390 0.930 . S
H385 C394 0.930 . S
H386 C399 0.929 . S
H387 C397 0.929 . S
H388 C392 0.929 . S
H389 C398 0.929 . S
C390 H384 0.930 . S
C390 C391 1.367 . S
C390 C398 1.378 . S
C391 C390 1.367 . S
C391 C399 1.433 . S
C392 H388 0.929 . S
C392 C394 1.378 . S
C392 C396 1.350 . S
C393 C396 1.463 . S
C393 C398 1.350 . S
C393 N401 1.427 . S
C394 H385 0.930 . S
C394 C392 1.378 . S
C394 C395 1.367 . S
C395 C394 1.367 . S
C395 C397 1.433 . S
C396 C392 1.350 . S
C396 C393 1.463 . S
C396 N400 1.427 . S
C397 H387 0.929 . S
C397 C395 1.433 . S
C397 N400 1.384 . S
C398 H389 0.929 . S
C398 C390 1.378 . S
C398 C393 1.350 . S
C399 H386 0.929 . S
C399 C391 1.433 . S
C399 N401 1.384 . S
N400 C396 1.427 . S
N400 C397 1.384 . S
N401 C393 1.427 . S
N401 C399 1.384 . S
H402 C408 0.930 . S
H403 C412 0.930 . S
H404 C417 0.929 . S
H405 C415 0.929 . S
H406 C410 0.929 . S
H407 C416 0.929 . S
C408 H402 0.930 . S
C408 C409 1.367 . S
C408 C416 1.378 . S
C409 C408 1.367 . S
C409 C417 1.433 . S
C410 H406 0.929 . S
C410 C412 1.378 . S
C410 C414 1.350 . S
C411 C414 1.463 . S
C411 C416 1.350 . S
C411 N419 1.427 . S
C412 H403 0.930 . S
C412 C410 1.378 . S
C412 C413 1.367 . S
C413 C412 1.367 . S
C413 C415 1.433 . S
C414 C410 1.350 . S
C414 C411 1.463 . S
C414 N418 1.427 . S
C415 H405 0.929 . S
C415 C413 1.433 . S
C415 N418 1.384 . S
C416 H407 0.929 . S
C416 C408 1.378 . S
C416 C411 1.350 . S
C417 H404 0.929 . S
C417 C409 1.433 . S
C417 N419 1.384 . S
N418 C414 1.427 . S
N418 C415 1.384 . S
N419 C411 1.427 . S
N419 C417 1.384 . S
H420 C426 0.930 . S
H421 C430 0.930 . S
H422 C435 0.929 . S
H423 C433 0.929 . S
H424 C428 0.929 . S
H425 C434 0.929 . S
C426 H420 0.930 . S
C426 C427 1.367 . S
C426 C434 1.378 . S
C427 C426 1.367 . S
C427 C435 1.433 . S
C428 H424 0.929 . S
C428 C430 1.378 . S
C428 C432 1.350 . S
C429 C432 1.463 . S
C429 C434 1.350 . S
C429 N437 1.427 . S
C430 H421 0.930 . S
C430 C428 1.378 . S
C430 C431 1.367 . S
C431 C430 1.367 . S
C431 C433 1.433 . S
C432 C428 1.350 . S
C432 C429 1.463 . S
C432 N436 1.427 . S
C433 H423 0.929 . S
C433 C431 1.433 . S
C433 N436 1.384 . S
C434 H425 0.929 . S
C434 C426 1.378 . S
C434 C429 1.350 . S
C435 H422 0.929 . S
C435 C427 1.433 . S
C435 N437 1.384 . S
N436 C432 1.427 . S
N436 C433 1.384 . S
N437 C429 1.427 . S
N437 C435 1.384 . S
H438 C444 0.930 . S
H439 C448 0.930 . S
H440 C453 0.929 . S
H441 C451 0.929 . S
H442 C446 0.929 . S
H443 C452 0.929 . S
C444 H438 0.930 . S
C444 C445 1.367 . S
C444 C452 1.378 . S
C445 C444 1.367 . S
C445 C453 1.433 . S
C446 H442 0.929 . S
C446 C448 1.378 . S
C446 C450 1.350 . S
C447 C450 1.463 . S
C447 C452 1.350 . S
C447 N455 1.427 . S
C448 H439 0.930 . S
C448 C446 1.378 . S
C448 C449 1.367 . S
C449 C448 1.367 . S
C449 C451 1.433 . S
C450 C446 1.350 . S
C450 C447 1.463 . S
C450 N454 1.427 . S
C451 H441 0.929 . S
C451 C449 1.433 . S
C451 N454 1.384 . S
C452 H443 0.929 . S
C452 C444 1.378 . S
C452 C447 1.350 . S
C453 H440 0.929 . S
C453 C445 1.433 . S
C453 N455 1.384 . S
N454 C450 1.427 . S
N454 C451 1.384 . S
N455 C447 1.427 . S
N455 C453 1.384 . S
H456 C462 0.930 . S
H457 C466 0.930 . S
H458 C471 0.929 . S
H459 C469 0.929 . S
H460 C464 0.929 . S
H461 C470 0.929 1_655 S
C462 H456 0.930 . S
C462 C463 1.367 . S
C462 C470 1.378 . S
C463 C462 1.367 . S
C463 C471 1.433 . S
C464 H460 0.929 . S
C464 C466 1.378 . S
C464 C468 1.350 . S
C465 C468 1.463 . S
C465 C470 1.350 . S
C465 N473 1.427 . S
C466 H457 0.930 . S
C466 C464 1.378 . S
C466 C467 1.367 1_455 S
C467 C466 1.367 1_655 S
C467 C469 1.433 . S
C468 C464 1.350 . S
C468 C465 1.463 . S
C468 N472 1.427 1_455 S
C469 H459 0.929 . S
C469 C467 1.433 . S
C469 N472 1.384 . S
C470 H461 0.929 1_455 S
C470 C462 1.378 . S
C470 C465 1.350 . S
C471 H458 0.929 . S
C471 C463 1.433 . S
C471 N473 1.384 . S
N472 C468 1.427 1_655 S
N472 C469 1.384 . S
N473 C465 1.427 . S
N473 C471 1.384 . S
H474 C480 0.930 . S
H475 C484 0.930 . S
H476 C489 0.929 . S
H477 C487 0.929 . S
H478 C482 0.929 . S
H479 C488 0.929 . S
C480 H474 0.930 . S
C480 C481 1.367 . S
C480 C488 1.378 . S
C481 C480 1.367 . S
C481 C489 1.433 . S
C482 H478 0.929 . S
C482 C484 1.378 . S
C482 C486 1.350 1_545 S
C483 C486 1.463 . S
C483 C488 1.350 . S
C483 N491 1.427 . S
C484 H475 0.930 . S
C484 C482 1.378 . S
C484 C485 1.367 . S
C485 C484 1.367 . S
C485 C487 1.433 1_545 S
C486 C482 1.350 1_565 S
C486 C483 1.463 . S
C486 N490 1.427 . S
C487 H477 0.929 . S
C487 C485 1.433 1_565 S
C487 N490 1.384 . S
C488 H479 0.929 . S
C488 C480 1.378 . S
C488 C483 1.350 . S
C489 H476 0.929 . S
C489 C481 1.433 . S
C489 N491 1.384 . S
N490 C486 1.427 . S
N490 C487 1.384 . S
N491 C483 1.427 . S
N491 C489 1.384 . S
H492 C498 0.930 . S
H493 C502 0.930 . S
H494 C507 0.929 . S
H495 C505 0.929 . S
H496 C500 0.929 . S
H497 C506 0.929 . S
C498 H492 0.930 . S
C498 C499 1.367 . S
C498 C506 1.378 . S
C499 C498 1.367 . S
C499 C507 1.433 . S
C500 H496 0.929 . S
C500 C502 1.378 . S
C500 C504 1.350 . S
C501 C504 1.463 . S
C501 C506 1.350 . S
C501 N509 1.427 . S
C502 H493 0.930 . S
C502 C500 1.378 . S
C502 C503 1.367 . S
C503 C502 1.367 . S
C503 C505 1.433 . S
C504 C500 1.350 . S
C504 C501 1.463 . S
C504 N508 1.427 . S
C505 H495 0.929 . S
C505 C503 1.433 . S
C505 N508 1.384 . S
C506 H497 0.929 . S
C506 C498 1.378 . S
C506 C501 1.350 . S
C507 H494 0.929 . S
C507 C499 1.433 . S
C507 N509 1.384 . S
N508 C504 1.427 . S
N508 C505 1.384 . S
N509 C501 1.427 . S
N509 C507 1.384 . S
H510 C516 0.930 . S
H511 C520 0.930 . S
H512 C525 0.929 . S
H513 C523 0.929 . S
H514 C518 0.929 . S
H515 C524 0.929 . S
C516 H510 0.930 . S
C516 C517 1.367 . S
C516 C524 1.378 . S
C517 C516 1.367 . S
C517 C525 1.433 . S
C518 H514 0.929 . S
C518 C520 1.378 . S
C518 C522 1.350 1_565 S
C519 C522 1.463 . S
C519 C524 1.350 . S
C519 N527 1.427 . S
C520 H511 0.930 . S
C520 C518 1.378 . S
C520 C521 1.367 . S
C521 C520 1.367 . S
C521 C523 1.433 1_565 S
C522 C518 1.350 1_545 S
C522 C519 1.463 . S
C522 N526 1.427 . S
C523 H513 0.929 . S
C523 C521 1.433 1_545 S
C523 N526 1.384 . S
C524 H515 0.929 . S
C524 C516 1.378 . S
C524 C519 1.350 . S
C525 H512 0.929 . S
C525 C517 1.433 . S
C525 N527 1.384 . S
N526 C522 1.427 . S
N526 C523 1.384 . S
N527 C519 1.427 . S
N527 C525 1.384 . S
H528 C534 0.930 . S
H529 C538 0.930 . S
H530 C543 0.929 . S
H531 C541 0.929 . S
H532 C536 0.929 . S
H533 C542 0.929 . S
C534 H528 0.930 . S
C534 C535 1.367 . S
C534 C542 1.378 . S
C535 C534 1.367 . S
C535 C543 1.433 . S
C536 H532 0.929 . S
C536 C538 1.378 . S
C536 C540 1.350 . S
C537 C540 1.463 . S
C537 C542 1.350 . S
C537 N545 1.427 . S
C538 H529 0.930 . S
C538 C536 1.378 . S
C538 C539 1.367 . S
C539 C538 1.367 . S
C539 C541 1.433 . S
C540 C536 1.350 . S
C540 C537 1.463 . S
C540 N544 1.427 . S
C541 H531 0.929 . S
C541 C539 1.433 . S
C541 N544 1.384 . S
C542 H533 0.929 . S
C542 C534 1.378 . S
C542 C537 1.350 . S
C543 H530 0.929 . S
C543 C535 1.433 . S
C543 N545 1.384 . S
N544 C540 1.427 . S
N544 C541 1.384 . S
N545 C537 1.427 . S
N545 C543 1.384 . S
H546 C552 0.930 . S
H547 C556 0.930 . S
H548 C561 0.929 . S
H549 C559 0.929 . S
H550 C554 0.929 . S
H551 C560 0.929 . S
C552 H546 0.930 . S
C552 C553 1.367 . S
C552 C560 1.378 . S
C553 C552 1.367 . S
C553 C561 1.433 1_455 S
C554 H550 0.929 . S
C554 C556 1.378 . S
C554 C558 1.350 . S
C555 C558 1.463 . S
C555 C560 1.350 1_655 S
C555 N563 1.427 . S
C556 H547 0.930 . S
C556 C554 1.378 . S
C556 C557 1.367 . S
C557 C556 1.367 . S
C557 C559 1.433 . S
C558 C554 1.350 . S
C558 C555 1.463 . S
C558 N562 1.427 . S
C559 H549 0.929 . S
C559 C557 1.433 . S
C559 N562 1.384 . S
C560 H551 0.929 . S
C560 C552 1.378 . S
C560 C555 1.350 1_455 S
C561 H548 0.929 . S
C561 C553 1.433 1_655 S
C561 N563 1.384 . S
N562 C558 1.427 . S
N562 C559 1.384 . S
N563 C555 1.427 . S
N563 C561 1.384 . S
C247 C162 2.361 . S
C251 C2 2.420 . S
C265 C223 2.421 . S
C269 C63 2.360 . S
C283 C82 2.424 . S
C287 C122 2.364 . S
C301 C23 2.350 . S
C305 C183 2.411 . S
C319 C202 2.351 . S
C323 C42 2.413 . S
C337 C103 2.352 . S
C341 C143 2.414 . S
C355 C25 1.812 . S
C359 C111 1.816 . S
C373 C65 1.814 . S
C377 C31 1.821 . S
C391 C105 1.806 . S
C395 C71 1.812 . S
C409 C124 1.806 . S
C413 C180 1.813 . S
C427 C164 1.816 . S
C431 C220 1.823 . S
C445 C140 1.812 . S
C449 C204 1.808 . S
C463 C4 1.055 . S
C467 C100 1.053 . S
C481 C44 1.025 1_455 S
C485 C20 1.037 . S
C499 C84 1.023 1_565 S
C503 C60 1.035 . S
C517 C145 1.039 . S
C521 C191 1.038 . S
C535 C185 1.020 1_655 S
C539 C231 1.037 . S
C553 C151 1.034 . S
C557 C225 1.026 1_545 S
