# Generated by pormake.
# Topology smm, (6)-cn, num edge types: 1
# Building blocks:
#     Node 0, Type 0, BuildingBlock: KUMBOL_clean_sbu_1, # of connection points: 6
#     Node 1, Type 0, BuildingBlock: KUMBOL_clean_sbu_1, # of connection points: 6
#     Node 2, Type 0, BuildingBlock: KUMBOL_clean_sbu_1, # of connection points: 6
#     Node 3, Type 0, BuildingBlock: KUMBOL_clean_sbu_1, # of connection points: 6
#     Node 4, Type 0, BuildingBlock: KUMBOL_clean_sbu_1, # of connection points: 6
#     Node 5, Type 0, BuildingBlock: KUMBOL_clean_sbu_1, # of connection points: 6
#     Node 6, Type 0, BuildingBlock: KUMBOL_clean_sbu_1, # of connection points: 6
#     Node 7, Type 0, BuildingBlock: KUMBOL_clean_sbu_1, # of connection points: 6
#     Node 8, Type 0, BuildingBlock: KUMBOL_clean_sbu_1, # of connection points: 6
#     Edge 9, Type (0, 0), BuildingBlock: TEMPAE_clean_linker_10, # of connection points: 2
#     Edge 10, Type (0, 0), BuildingBlock: TEMPAE_clean_linker_10, # of connection points: 2
#     Edge 11, Type (0, 0), BuildingBlock: TEMPAE_clean_linker_10, # of connection points: 2
#     Edge 12, Type (0, 0), BuildingBlock: TEMPAE_clean_linker_10, # of connection points: 2
#     Edge 13, Type (0, 0), BuildingBlock: TEMPAE_clean_linker_10, # of connection points: 2
#     Edge 14, Type (0, 0), BuildingBlock: TEMPAE_clean_linker_10, # of connection points: 2
#     Edge 15, Type (0, 0), BuildingBlock: TEMPAE_clean_linker_10, # of connection points: 2
#     Edge 16, Type (0, 0), BuildingBlock: TEMPAE_clean_linker_10, # of connection points: 2
#     Edge 17, Type (0, 0), BuildingBlock: TEMPAE_clean_linker_10, # of connection points: 2
#     Edge 18, Type (0, 0), BuildingBlock: TEMPAE_clean_linker_10, # of connection points: 2
#     Edge 19, Type (0, 0), BuildingBlock: TEMPAE_clean_linker_10, # of connection points: 2
#     Edge 20, Type (0, 0), BuildingBlock: TEMPAE_clean_linker_10, # of connection points: 2
#     Edge 21, Type (0, 0), BuildingBlock: TEMPAE_clean_linker_10, # of connection points: 2
#     Edge 22, Type (0, 0), BuildingBlock: TEMPAE_clean_linker_10, # of connection points: 2
#     Edge 23, Type (0, 0), BuildingBlock: TEMPAE_clean_linker_10, # of connection points: 2
#     Edge 24, Type (0, 0), BuildingBlock: TEMPAE_clean_linker_10, # of connection points: 2
#     Edge 25, Type (0, 0), BuildingBlock: TEMPAE_clean_linker_10, # of connection points: 2
#     Edge 26, Type (0, 0), BuildingBlock: TEMPAE_clean_linker_10, # of connection points: 2
#     Edge 27, Type (0, 0), BuildingBlock: TEMPAE_clean_linker_10, # of connection points: 2
#     Edge 28, Type (0, 0), BuildingBlock: TEMPAE_clean_linker_10, # of connection points: 2
#     Edge 29, Type (0, 0), BuildingBlock: TEMPAE_clean_linker_10, # of connection points: 2
#     Edge 30, Type (0, 0), BuildingBlock: TEMPAE_clean_linker_10, # of connection points: 2
#     Edge 31, Type (0, 0), BuildingBlock: TEMPAE_clean_linker_10, # of connection points: 2
#     Edge 32, Type (0, 0), BuildingBlock: TEMPAE_clean_linker_10, # of connection points: 2
#     Edge 33, Type (0, 0), BuildingBlock: TEMPAE_clean_linker_10, # of connection points: 2
#     Edge 34, Type (0, 0), BuildingBlock: TEMPAE_clean_linker_10, # of connection points: 2
#     Edge 35, Type (0, 0), BuildingBlock: TEMPAE_clean_linker_10, # of connection points: 2
# Relax obj value: 0.107
# Max RMSD: 0.220
# Mean RMSD: 0.174
data_MOF--net-smm--node1-KUMBOL_clean_sbu_1--edge1-TEMPAE_clean_linker_10
_symmetry_space_group_name_H-M    P1
_symmetry_Int_Tables_number       1
_symmetry_cell_setting            triclinic
loop_
_symmetry_equiv_pos_as_xyz
'x, y, z'
_cell_length_a     60.291758
_cell_length_b     76.128879
_cell_length_c     15.166832
_cell_angle_alpha  96.525569
_cell_angle_beta   96.839963
_cell_angle_gamma 121.61647
loop_
_atom_site_label
_atom_site_type_symbol
_atom_site_fract_x
_atom_site_fract_y
_atom_site_fract_z
_atom_type_partial_charge
C0 C 0.14744 0.22366 0.24079 0.0
C1 C 0.16105 0.21822 0.10165 0.0
C2 C 0.1445 0.22206 0.14739 0.0
C3 C 0.17983 0.21535 0.15053 0.0
C4 C 0.16681 0.22147 0.29061 0.0
C5 C 0.18278 0.21707 0.2448 0.0
N6 N 0.13067 0.22672 0.28259 0.0
C7 C 0.13357 0.22949 0.37451 0.0
C8 C 0.16926 0.22351 0.38486 0.0
C9 C 0.15273 0.22777 0.42709 0.0
Gd10 Gd 0.0291 0.17596 0.12538 0.0
Gd11 Gd 0.09923 0.22952 0.19035 0.0
N12 N 0.12596 0.22475 0.1018 0.0
C13 C 0.15865 0.21786 0.00849 0.0
C14 C 0.12559 0.22661 0.01334 0.0
C15 C 0.14126 0.22255 0.96461 0.0
H16 H 0.1138 0.23173 0.98036 0.0
H17 H 0.14025 0.2234 0.89361 0.0
H18 H 1.00296 0.17706 0.30352 0.0
H19 H 0.12126 0.23319 0.40711 0.0
H20 H 0.96262 0.1751 0.33692 0.0
H21 H 0.1709 0.21487 0.97072 0.0
H22 H 0.1925 0.21216 0.11628 0.0
H23 H 1.01752 0.16135 0.89632 0.0
H24 H 0.18394 0.22198 0.4256 0.0
H25 H 0.15476 0.22976 0.50002 0.0
H26 H 0.91453 0.16831 0.04533 0.0
H27 H 0.19754 0.21504 0.28168 0.0
H28 H 0.94804 0.15982 0.78369 0.0
H29 H 0.986 0.1567 0.76308 0.0
N30 N 1.00017 0.17036 0.99198 0.0
C31 C 0.97863 0.17095 0.00504 0.0
C32 C 1.00217 0.1642 0.90659 0.0
C33 C 0.96251 0.16278 0.84264 0.0
C34 C 0.98391 0.16101 0.83066 0.0
C35 C 0.95919 0.16715 0.93057 0.0
H36 H 0.9214 0.16402 0.88966 0.0
N37 N 0.99311 0.17615 0.16338 0.0
C38 C 0.97472 0.17349 0.09306 0.0
C39 C 0.94717 0.17296 0.19752 0.0
C40 C 0.95133 0.1721 0.10853 0.0
C41 C 0.98868 0.17598 0.2495 0.0
C42 C 0.96585 0.17476 0.26823 0.0
O43 O 0.09428 0.19826 0.21245 0.0
O44 O 0.06399 0.17596 0.08569 0.0
O45 O 0.02616 0.15142 0.19357 0.0
O46 O 0.99653 0.14362 0.07452 0.0
O47 O 0.07553 0.2221 0.04828 0.0
O48 O 0.05367 0.18623 0.01921 0.0
O49 O 0.02906 0.20547 0.17894 0.0
O50 O 0.06476 0.23285 0.13776 0.0
O51 O 0.13047 0.25947 0.1669 0.0
O52 O 0.11666 0.25801 0.29278 0.0
O53 O 0.05003 0.18615 0.27203 0.0
O54 O 0.07653 0.22259 0.30346 0.0
C55 C 0.0849 0.18159 0.14749 0.0
C56 C 0.06193 0.20381 0.99115 0.0
C57 C 1.00979 0.12034 0.08728 0.0
C58 C 1.00148 0.08545 0.0715 0.0
C59 C 1.02394 0.10726 0.9671 0.0
C60 C 1.0219 0.12322 0.01188 0.0
C61 C 1.01378 0.08837 -0.00317 0.0
C62 C 0.99975 0.10148 0.11752 0.0
C63 C 1.00622 0.13648 0.13067 0.0
C64 C 0.93254 0.16924 0.03473 0.0
C65 C 0.93649 0.16684 0.94605 0.0
H66 H 0.9294 0.1719 0.21212 0.0
C67 C 0.04105 0.22431 0.15841 0.0
C68 C 0.06279 0.20449 0.32893 0.0
C69 C 0.1288 0.28827 0.23128 0.0
C70 C 0.1451 0.32119 0.17942 0.0
C71 C 0.10871 0.30839 0.25901 0.0
C72 C 0.10978 0.29074 0.26638 0.0
C73 C 0.12644 0.32367 0.21648 0.0
C74 C 0.14618 0.30344 0.18656 0.0
C75 C 0.13087 0.27014 0.24109 0.0
H76 H 0.03296 0.10938 0.90842 0.0
H77 H 0.02926 0.13761 0.98657 0.0
H78 H 1.01518 0.07594 0.96115 0.0
H79 H 0.98998 0.09906 0.17473 0.0
H80 H 0.09413 0.31024 0.28651 0.0
H81 H 0.09579 0.2791 0.29976 0.0
H82 H 0.12542 0.33733 0.21153 0.0
H83 H 0.16081 0.30164 0.15869 0.0
C84 C 0.96581 0.80079 0.00751 0.0
C85 C 1.00072 0.81469 0.14284 0.0
C86 C 0.97544 0.80964 0.10001 0.0
C87 C 1.01634 0.81108 0.09139 0.0
C88 C 0.98112 0.79654 0.95637 0.0
C89 C 1.00655 0.80199 -0.00147 0.0
N90 N 0.94123 0.79579 0.96807 0.0
C91 C 0.93001 0.78531 0.88004 0.0
C92 C 0.9702 0.78658 0.86465 0.0
C93 C 0.9444 0.7807 0.82663 0.0
Gd94 Gd 0.91512 0.85544 0.10781 0.0
Gd95 Gd 0.91895 0.80403 0.06284 0.0
N96 N 0.95999 0.81319 0.14814 0.0
C97 C 1.0094 0.8229 0.23646 0.0
C98 C 0.96761 0.81976 0.24032 0.0
C99 C 0.99258 0.82514 0.28556 0.0
H100 H 0.95441 0.82024 0.2803 0.0
H101 H 0.99863 0.83065 0.35854 0.0
H102 H 0.87876 0.84176 0.89205 0.0
H103 H 0.90982 0.78036 0.85117 0.0
H104 H 0.83684 0.8367 0.82 0.0
H105 H 0.0287 0.82697 0.27185 0.0
H106 H 0.03588 0.81497 0.12311 0.0
H107 H 0.91814 0.86478 0.3321 0.0
H108 H 0.9813 0.78297 0.82317 0.0
H109 H 0.93552 0.77251 0.75648 0.0
H110 H 0.79908 0.84548 0.06873 0.0
H111 H 1.01868 0.79897 0.96014 0.0
H112 H 0.84514 0.85763 0.3706 0.0
H113 H 0.88938 0.86461 0.43445 0.0
N114 N 0.88917 0.85489 0.21154 0.0
C115 C 0.86569 0.85232 0.17478 0.0
C116 C 0.89816 0.8601 0.30343 0.0
C117 C 0.85738 0.85693 0.32528 0.0
C118 C 0.88221 0.86071 0.36165 0.0
C119 C 0.84905 0.85306 0.23101 0.0
H120 H 0.81197 0.85101 0.23398 0.0
N121 N 0.87426 0.84768 0.02705 0.0
C122 C 0.85815 0.84878 0.08044 0.0
C123 C 0.82632 0.84184 0.94674 0.0
C124 C 0.83375 0.84588 0.04134 0.0
C125 C 0.86669 0.84319 0.93473 0.0
C126 C 0.84267 0.84019 0.89329 0.0
O127 O 0.9609 0.83716 0.06835 0.0
O128 O 0.95529 0.86535 0.07404 0.0
O129 O 0.91937 0.88379 0.07305 0.0
O130 O 0.93692 0.88434 0.20803 0.0
O131 O 0.90947 0.8129 0.19325 0.0
O132 O 0.93656 0.84845 0.21529 0.0
O133 O 0.87929 0.82364 0.11633 0.0
O134 O 0.87856 0.80031 0.0062 0.0
O135 O 0.91086 0.7782 0.13673 0.0
O136 O 0.89054 0.77064 -2e-05 0.0
O137 O 0.91963 0.84765 0.96492 0.0
O138 O 0.91234 0.81382 0.93194 0.0
C139 C 0.9706 0.85784 0.06773 0.0
C140 C 0.92295 0.83148 0.24733 0.0
C141 C 0.95785 0.91556 0.15472 0.0
C142 C 0.97701 0.95191 0.14361 0.0
C143 C 1.00582 0.93957 0.18524 0.0
C144 C 0.98348 0.91946 0.17929 0.0
C145 C 1.00267 0.95577 0.16695 0.0
C146 C 0.95468 0.93175 0.13703 0.0
C147 C 0.93405 0.89521 0.15279 0.0
C148 C 0.81747 0.84703 0.09752 0.0
C149 C 0.82491 0.85035 0.19182 0.0
H150 H 0.80797 0.83989 0.9142 0.0
C151 C 0.86565 0.80706 0.04945 0.0
C152 C 0.91658 0.83148 0.90905 0.0
C153 C 0.89198 0.74201 0.05047 0.0
C154 C 0.87496 0.70446 0.06577 0.0
C155 C 0.89871 0.71904 0.94686 0.0
C156 C 0.90217 0.73848 0.97681 0.0
C157 C 0.88535 0.70238 0.99026 0.0
C158 C 0.87814 0.72459 0.09589 0.0
C159 C 0.89337 0.76285 0.06951 0.0
H160 H 0.02558 0.94263 0.2049 0.0
H161 H 0.98621 0.90709 0.19474 0.0
H162 H 1.02019 0.97139 0.17313 0.0
H163 H 0.93482 0.92871 0.11909 0.0
H164 H 0.90636 0.71681 0.88846 0.0
H165 H 0.91241 0.75068 0.93994 0.0
H166 H 0.88307 0.68753 0.96419 0.0
H167 H 0.86968 0.72655 0.15239 0.0
C168 C 0.19425 0.95005 0.07032 0.0
C169 C 0.16375 0.92591 0.92985 0.0
C170 C 0.18458 0.94627 0.97686 0.0
C171 C 0.15307 0.90937 0.97684 0.0
C172 C 0.18371 0.93338 0.11708 0.0
C173 C 0.16307 0.91307 0.06991 0.0
N174 N 0.21364 0.97001 0.11554 0.0
C175 C 0.22492 0.97404 0.20486 0.0
C176 C 0.1943 0.9376 0.20999 0.0
C177 C 0.21519 0.95796 0.25377 0.0
Gd178 Gd 0.21014 0.03761 0.03175 0.0
Gd179 Gd 0.22974 0.99479 0.02444 0.0
N180 N 0.19474 0.96273 0.93311 0.0
C181 C 0.15409 0.92278 0.83701 0.0
C182 C 0.18609 0.9596 0.84205 0.0
C183 C 0.16542 0.93967 0.79292 0.0
H184 H 0.19525 0.97219 0.8063 0.0
H185 H 0.1584 0.93729 0.72083 0.0
H186 H 0.23933 0.0641 0.24452 0.0
H187 H 0.24156 0.98962 0.23847 0.0
H188 H 0.2774 0.0995 0.32644 0.0
H189 H 0.13804 0.90736 0.7986 0.0
H190 H 0.13702 0.89362 0.94174 0.0
H191 H 0.19957 0.04189 0.81379 0.0
H192 H 0.18674 0.92518 0.24824 0.0
H193 H 0.22387 0.96128 0.32508 0.0
H194 H 0.3123 0.13559 0.08773 0.0
H195 H 0.15464 0.90009 0.10489 0.0
H196 H 0.26608 0.09969 0.78081 0.0
H197 H 0.22374 0.06561 0.71386 0.0
N198 N 0.23059 0.05959 0.93061 0.0
C199 C 0.25214 0.07921 0.97054 0.0
C200 C 0.21935 0.05542 0.84111 0.0
C201 C 0.25618 0.08868 0.8237 0.0
C202 C 0.23245 0.0694 0.78546 0.0
C203 C 0.26577 0.09415 0.9178 0.0
H204 H 0.29864 0.12587 0.92116 0.0
N205 N 0.24635 0.07019 0.11462 0.0
C206 C 0.25971 0.08491 0.06503 0.0
C207 C 0.28786 0.11047 0.2035 0.0
C208 C 0.28124 0.10534 0.10836 0.0
C209 C 0.2517 0.07542 0.20702 0.0
C210 C 0.27285 0.09551 0.253 0.0
O211 O 0.18511 0.9809 0.03077 0.0
O212 O 0.1716 1.00439 0.02817 0.0
O213 O 0.19434 0.05213 0.11588 0.0
O214 O 0.18691 0.04908 0.97146 0.0
O215 O 0.23102 1.00825 0.90028 0.0
O216 O 0.19836 0.01548 0.89515 0.0
O217 O 0.25568 0.04926 0.07279 0.0
O218 O 0.26177 0.02574 0.98968 0.0
O219 O 0.24405 0.97759 0.95211 0.0
O220 O 0.2625 0.99362 0.09242 0.0
O221 O 0.20734 0.02334 0.15509 0.0
O222 O 0.24079 0.01683 0.15901 0.0
C223 C 0.16618 0.98496 0.03049 0.0
C224 C 0.21448 1.012 0.85565 0.0
C225 C 0.1594 0.05594 0.04852 0.0
C226 C 0.13569 0.07392 0.07272 0.0
C227 C 0.11128 0.03625 0.00556 0.0
C228 C 0.13496 0.03692 0.01271 0.0
C229 C 0.1116 0.05445 0.03472 0.0
C230 C 0.15981 0.07455 0.07831 0.0
C231 C 0.18444 0.05671 0.04801 0.0
C232 C 0.29548 0.11988 0.05567 0.0
C233 C 0.2878 0.1143 0.96073 0.0
H234 H 0.30432 0.126 0.23932 0.0
C235 C 0.27116 0.04535 0.02971 0.0
C236 C 0.22436 0.01982 0.19838 0.0
C237 C 0.2895 0.99023 0.00015 0.0
C238 C 0.32024 0.98272 0.94102 0.0
C239 C 0.33476 0.0188 0.00415 0.0
C240 C 0.30959 1.01182 0.02189 0.0
C241 C 0.34007 1.00438 0.96378 0.0
C242 C 0.29492 0.97563 0.95994 0.0
C243 C 0.26308 0.98283 0.02052 0.0
H244 H 0.09251 0.02153 0.97637 0.0
H245 H 0.13426 0.02264 0.98859 0.0
H246 H 0.09274 0.05327 0.02617 0.0
H247 H 0.17872 0.08934 0.10559 0.0
H248 H 0.35021 0.03545 0.02181 0.0
H249 H 0.30589 0.02329 0.0532 0.0
H250 H 0.3598 1.01011 0.95087 0.0
H251 H 0.27951 0.95893 0.94284 0.0
C252 C 0.67529 0.46879 0.00618 0.0
C253 C 0.65369 0.44667 0.11206 0.0
C254 C 0.67515 0.46521 0.09479 0.0
C255 C 0.6324 0.43197 0.04026 0.0
C256 C 0.65407 0.45388 0.93401 0.0
C257 C 0.63257 0.43556 0.95169 0.0
N258 N 0.69677 0.48631 0.99006 0.0
C259 C 0.6978 0.49034 0.90469 0.0
C260 C 0.65533 0.45761 0.84579 0.0
C261 C 0.67725 0.47595 0.83116 0.0
Gd262 Gd 0.79528 0.50616 0.15131 0.0
Gd263 Gd 0.72936 0.50904 0.11918 0.0
N264 N 0.69653 0.4793 0.163 0.0
C265 C 0.65443 0.44328 0.2009 0.0
C266 C 0.69674 0.47655 0.25018 0.0
C267 C 0.67594 0.45838 0.27032 0.0
H268 H 0.71249 0.48841 0.3047 0.0
H269 H 0.67639 0.45613 0.33956 0.0
H270 H 0.81268 0.51631 0.95337 0.0
H271 H 0.71412 0.50488 0.89339 0.0
H272 H 0.84908 0.54474 0.89769 0.0
H273 H 0.63837 0.42917 0.21678 0.0
H274 H 0.6158 0.4176 0.05237 0.0
H275 H 0.81691 0.51499 0.37652 0.0
H276 H 0.63945 0.44645 0.78854 0.0
H277 H 0.67824 0.47908 0.7634 0.0
H278 H 0.91267 0.59196 0.17029 0.0
H279 H 0.61612 0.4239 0.89702 0.0
H280 H 0.89275 0.57303 0.45511 0.0
H281 H 0.8549 0.54239 0.49625 0.0
N282 N 0.83128 0.53074 0.27023 0.0
C283 C 0.85258 0.54667 0.24548 0.0
C284 C 0.83239 0.52871 0.35846 0.0
C285 C 0.87569 0.56121 0.40258 0.0
C286 C 0.85433 0.54403 0.42617 0.0
C287 C 0.87519 0.56253 0.31111 0.0
H288 H 0.91418 0.59134 0.33278 0.0
N289 N 0.83001 0.5311 0.09224 0.0
C290 C 0.85199 0.54681 0.15373 0.0
C291 C 0.87223 0.56251 0.03214 0.0
C292 C 0.87361 0.56308 0.12537 0.0
C293 C 0.8292 0.52975 0.00149 0.0
C294 C 0.85005 0.54563 0.96991 0.0
O295 O 0.72536 0.47765 0.06892 0.0
O296 O 0.75658 0.47808 0.17097 0.0
O297 O 0.80735 0.48784 0.06965 0.0
O298 O 0.80985 0.48875 0.21222 0.0
O299 O 0.75244 0.51815 0.26383 0.0
O300 O 0.77493 0.50113 0.26963 0.0
O301 O 0.80386 0.54048 0.16029 0.0
O302 O 0.76572 0.54166 0.13206 0.0
O303 O 0.71378 0.52344 0.20493 0.0
O304 O 0.70384 0.51819 0.05893 0.0
O305 O 0.76952 0.49715 0.01146 0.0
O306 O 0.7545 0.51954 0.01439 0.0
C307 C 0.73354 0.46753 0.11339 0.0
C308 C 0.76411 0.51025 0.30833 0.0
C309 C 0.839 0.48165 0.15023 0.0
C310 C 0.86282 0.46316 0.15084 0.0
C311 C 0.88603 0.50059 0.21992 0.0
C312 C 0.86287 0.50034 0.19553 0.0
C313 C 0.88603 0.48231 0.19828 0.0
C314 C 0.83894 0.46285 0.12818 0.0
C315 C 0.81395 0.48149 0.13858 0.0
C316 C 0.89586 0.57926 0.1907 0.0
C317 C 0.89669 0.57894 0.28328 0.0
H318 H 0.88839 0.57479 0.00753 0.0
C319 C 0.79182 0.55101 0.15125 0.0
C320 C 0.76373 0.50936 0.97325 0.0
C321 C 0.70297 0.54618 0.14024 0.0
C322 C 0.697 0.57298 0.21898 0.0
C323 C 0.70126 0.57159 0.06098 0.0
C324 C 0.70409 0.55462 0.06179 0.0
C325 C 0.69742 0.58053 0.13816 0.0
C326 C 0.69968 0.55559 0.21914 0.0
C327 C 0.70172 0.5261 0.13547 0.0
H328 H 0.90412 0.51504 0.25695 0.0
H329 H 0.86342 0.5147 0.21498 0.0
H330 H 0.9044 0.48315 0.21994 0.0
H331 H 0.82055 0.44821 0.09438 0.0
H332 H 0.70149 0.57759 -0.00052 0.0
H333 H 0.70631 0.54772 -0.00036 0.0
H334 H 0.69429 0.59318 0.13357 0.0
H335 H 0.69891 0.54919 0.27978 0.0
C336 C 0.57789 0.15737 0.99447 0.0
C337 C 0.60948 0.16708 0.13531 0.0
C338 C 0.58524 0.16341 0.08918 0.0
C339 C 0.62635 0.16485 0.08567 0.0
C340 C 0.59454 0.15448 0.94503 0.0
C341 C 0.61885 0.15848 0.99098 0.0
N342 N 0.5539 0.15304 0.95129 0.0
C343 C 0.54423 0.14351 0.86115 0.0
C344 C 0.5858 0.14676 0.85108 0.0
C345 C 0.56032 0.14087 0.80927 0.0
Gd346 Gd 0.52735 0.21164 0.0597 0.0
Gd347 Gd 0.52929 0.15847 0.04747 0.0
N348 N 0.56842 0.16517 0.13647 0.0
C349 C 0.61584 0.17241 0.23035 0.0
C350 C 0.57373 0.16906 0.22923 0.0
C351 C 0.59774 0.17317 0.27751 0.0
H352 H 0.55948 0.16906 0.26567 0.0
H353 H 0.60216 0.17673 0.35099 0.0
H354 H 0.50197 0.21472 0.85777 0.0
H355 H 0.52421 0.13832 0.82858 0.0
H356 H 0.462 0.21338 0.78655 0.0
H357 H 0.6344 0.17551 0.26798 0.0
H358 H 0.64502 0.16758 0.12013 0.0
H359 H 0.53514 0.22629 0.28759 0.0
H360 H 0.59813 0.14449 0.81086 0.0
H361 H 0.55295 0.1341 0.73728 0.0
H362 H 0.41939 0.21394 0.03368 0.0
H363 H 0.6318 0.15628 0.95392 0.0
H364 H 0.4649 0.22311 0.33289 0.0
H365 H 0.50839 0.22835 0.39291 0.0
N366 N 0.50545 0.21638 0.1688 0.0
C367 C 0.48271 0.21519 0.13424 0.0
C368 C 0.51538 0.22219 0.26033 0.0
C369 C 0.47616 0.22129 0.28617 0.0
C370 C 0.5006 0.22415 0.32038 0.0
C371 C 0.46729 0.21735 0.19217 0.0
H372 H 0.43189 0.2178 0.19836 0.0
N373 N 0.49152 0.21208 0.98674 0.0
C374 C 0.47564 0.21308 0.04083 0.0
C375 C 0.44767 0.21243 0.9107 0.0
C376 C 0.45303 0.213 0.00382 0.0
C377 C 0.48763 0.21319 0.89768 0.0
C378 C 0.46533 0.21291 0.85773 0.0
O379 O 0.56684 0.19041 0.10623 0.0
O380 O 0.56355 0.21239 0.02288 0.0
O381 O 0.54827 0.23814 0.99113 0.0
O382 O 0.54604 0.24436 0.12927 0.0
O383 O 0.51675 0.17025 0.16157 0.0
O384 O 0.54461 0.20606 0.18791 0.0
O385 O 0.48497 0.18058 0.04938 0.0
O386 O 0.4866 0.15047 0.01885 0.0
O387 O 0.52165 0.13419 0.12626 0.0
O388 O 0.50609 0.1257 0.97895 0.0
O389 O 0.51428 0.19191 0.91778 0.0
O390 O 0.53141 0.17079 0.91741 0.0
C391 C 0.57741 0.20541 0.06064 0.0
C392 C 0.53251 0.18842 0.21838 0.0
C393 C 0.58389 0.2714 0.08497 0.0
C394 C 0.61895 0.30904 0.09282 0.0
C395 C 0.62965 0.28618 0.16138 0.0
C396 C 0.60329 0.26915 0.13309 0.0
C397 C 0.63738 0.3058 0.14151 0.0
C398 C 0.5918 0.29162 0.06499 0.0
C399 C 0.55552 0.25282 0.0619 0.0
C400 C 0.43698 0.21415 0.06105 0.0
C401 C 0.44409 0.21633 0.15488 0.0
H402 H 0.43049 0.21239 0.87975 0.0
C403 C 0.47314 0.15951 0.03127 0.0
C404 C 0.52358 0.18166 0.87724 0.0
C405 C 0.49701 0.09677 0.05354 0.0
C406 C 0.48728 0.06815 0.1331 0.0
C407 C 0.47325 0.06063 0.96891 0.0
C408 C 0.48435 0.082 0.97078 0.0
C409 C 0.47456 0.05371 0.04937 0.0
C410 C 0.49875 0.0898 0.13481 0.0
C411 C 0.50891 0.11932 0.05324 0.0
H412 H 0.64427 0.28418 0.19935 0.0
H413 H 0.59793 0.25415 0.15015 0.0
H414 H 0.65806 0.31867 0.1648 0.0
H415 H 0.57711 0.29372 0.02809 0.0
H416 H 0.46358 0.04939 0.90477 0.0
H417 H 0.4831 0.08695 0.90716 0.0
H418 H 0.46583 0.03701 0.04609 0.0
H419 H 0.50859 0.10106 0.19907 0.0
C420 C 0.97859 0.39781 0.14669 0.0
C421 C 0.97766 0.41988 0.27365 0.0
C422 C 0.97648 0.4015 0.23647 0.0
C423 C 0.98019 0.43421 0.21876 0.0
C424 C 0.98263 0.41282 0.09318 0.0
C425 C 0.98266 0.43069 0.12881 0.0
N426 N 0.97816 0.38022 0.11333 0.0
C427 C 0.98577 0.37851 0.0331 0.0
C428 C 0.98752 0.40985 0.0066 0.0
C429 C 0.98991 0.39297 0.97762 0.0
Gd430 Gd 0.89442 0.30718 0.14153 0.0
Gd431 Gd 0.96983 0.35684 0.21258 0.0
N432 N 0.97298 0.38697 0.2873 0.0
C433 C 0.97617 0.42326 0.36492 0.0
C434 C 0.97238 0.39047 0.37706 0.0
C435 C 0.97377 0.40858 0.41704 0.0
H436 H 0.97055 0.37915 0.41719 0.0
H437 H 0.97285 0.41116 0.48781 0.0
H438 H 0.88699 0.28676 0.92556 0.0
H439 H 0.98896 0.36614 0.01145 0.0
H440 H 0.88408 0.25582 0.83822 0.0
H441 H 0.97696 0.43718 0.39585 0.0
H442 H 0.98066 0.44824 0.24566 0.0
H443 H 0.88471 0.29635 0.35056 0.0
H444 H 0.99073 0.42101 0.9634 0.0
H445 H 0.99505 0.39111 0.91272 0.0
H446 H 0.8847 0.21618 0.06233 0.0
H447 H 0.98528 0.44219 0.08806 0.0
H448 H 0.88695 0.24191 0.36877 0.0
H449 H 0.88523 0.27186 0.44121 0.0
N450 N 0.89094 0.28313 0.2329 0.0
C451 C 0.88881 0.2655 0.18917 0.0
C452 C 0.88794 0.2847 0.32058 0.0
C453 C 0.88774 0.25321 0.32966 0.0
C454 C 0.88705 0.27018 0.37105 0.0
C455 C 0.88793 0.25037 0.23702 0.0
H456 H 0.88635 0.2211 0.22667 0.0
N457 N 0.88778 0.27711 0.05125 0.0
C458 C 0.88682 0.26224 0.09563 0.0
C459 C 0.88439 0.24221 0.95516 0.0
C460 C 0.88538 0.24448 0.04879 0.0
C461 C 0.88641 0.27488 0.95989 0.0
C462 C 0.88478 0.25743 0.91049 0.0
O463 O 0.93537 0.36148 0.22297 0.0
O464 O 0.90249 0.33751 0.10228 0.0
O465 O 0.85426 0.28673 0.05608 0.0
O466 O 0.86087 0.30679 0.18113 0.0
O467 O 0.95362 0.33857 0.31942 0.0
O468 O 0.90918 0.32638 0.28719 0.0
O469 O 0.92812 0.30181 0.12134 0.0
O470 O 0.96231 0.32561 0.23904 0.0
O471 O 1.00543 0.37524 0.32084 0.0
O472 O 1.00765 0.36269 0.18951 0.0
O473 O 0.91009 0.32416 0.02958 0.0
O474 O 0.95544 0.33787 0.06676 0.0
C475 C 0.91496 0.35593 0.15797 0.0
C476 C 0.93182 0.33441 0.34595 0.0
C477 C 0.81801 0.27614 0.13106 0.0
C478 C 0.76963 0.258 0.11522 0.0
C479 C 0.79537 0.25065 0.22326 0.0
C480 C 0.81865 0.26487 0.19715 0.0
C481 C 0.77107 0.24721 0.1827 0.0
C482 C 0.79336 0.27277 0.09002 0.0
C483 C 0.84328 0.29259 0.11108 0.0
C484 C 0.88556 0.22984 0.09699 0.0
C485 C 0.88669 0.23272 0.19071 0.0
H486 H 0.88346 0.22885 0.91688 0.0
C487 C 0.95038 0.30793 0.1784 0.0
C488 C 0.93331 0.33113 0.0074 0.0
C489 C 0.04629 0.39442 0.27438 0.0
C490 C 0.09186 0.42123 0.35472 0.0
C491 C 0.07574 0.42196 0.20112 0.0
C492 C 0.05097 0.40405 0.19913 0.0
C493 C 0.09609 0.43046 0.27802 0.0
C494 C 0.06669 0.40325 0.35287 0.0
C495 C 1.02088 0.37454 0.26982 0.0
H496 H 0.79615 0.24227 0.2754 0.0
H497 H 0.83724 0.26732 0.22978 0.0
H498 H 0.75323 0.23605 0.20428 0.0
H499 H 0.79264 0.28146 0.03909 0.0
H500 H 0.07927 0.42917 0.14248 0.0
H501 H 0.0357 0.39758 0.13807 0.0
H502 H 0.11518 0.4444 0.27769 0.0
H503 H 0.06325 0.39577 0.41094 0.0
C504 C 0.5251 0.9292 0.86166 0.0
C505 C 0.54246 0.92067 0.73909 0.0
C506 C 0.5224 0.92236 0.76991 0.0
C507 C 0.56453 0.92487 0.80234 0.0
C508 C 0.54753 0.934 0.92519 0.0
C509 C 0.56703 0.93147 0.89517 0.0
N510 N 0.50596 0.93151 0.88845 0.0
C511 C 0.50862 0.93964 0.97667 0.0
C512 C 0.54983 0.94146 0.01678 0.0
C513 C 0.53041 0.94453 0.04246 0.0
Gd514 Gd 0.40282 0.86406 0.70667 0.0
Gd515 Gd 0.46842 0.9201 0.7764 0.0
N516 N 0.50063 0.91817 0.7106 0.0
C517 C 0.54013 0.91546 0.64546 0.0
C518 C 0.49984 0.91543 0.61965 0.0
C519 C 0.51903 0.91334 0.58543 0.0
H520 H 0.48529 0.91581 0.57331 0.0
H521 H 0.51786 0.91059 0.51292 0.0
H522 H 0.3857 0.87618 0.89884 0.0
H523 H 0.49433 0.94298 0.99532 0.0
H524 H 0.34609 0.87284 0.94268 0.0
H525 H 0.55515 0.91405 0.61888 0.0
H526 H 0.58005 0.92349 0.77998 0.0
H527 H 0.38937 0.85239 0.47736 0.0
H528 H 0.56678 0.94534 0.06777 0.0
H529 H 0.53232 0.95084 0.11258 0.0
H530 H 0.28248 0.8457 0.66141 0.0
H531 H 0.58436 0.93498 0.943 0.0
H532 H 0.31043 0.83725 0.38587 0.0
H533 H 0.35215 0.84199 0.3521 0.0
N534 N 0.37043 0.85628 0.58069 0.0
C535 C 0.34753 0.85344 0.60107 0.0
C536 C 0.37213 0.85196 0.49275 0.0
C537 C 0.32714 0.84262 0.44111 0.0
C538 C 0.3507 0.8454 0.42168 0.0
C539 C 0.32524 0.84647 0.53156 0.0
H540 H 0.28438 0.83798 0.50169 0.0
N541 N 0.36853 0.86531 0.75777 0.0
C542 C 0.3464 0.85769 0.69194 0.0
C543 C 0.32299 0.86071 0.80564 0.0
C544 C 0.32302 0.85522 0.7144 0.0
C545 C 0.36852 0.87054 0.84676 0.0
C546 C 0.3459 0.86853 0.87196 0.0
O547 O 0.47313 0.89322 0.80664 0.0
O548 O 0.4405 0.86478 0.69726 0.0
O549 O 0.38701 0.83812 0.77595 0.0
O550 O 0.37988 0.83233 0.6259 0.0
O551 O 0.44399 0.90726 0.63177 0.0
O552 O 0.42948 0.87256 0.60829 0.0
O553 O 0.3993 0.892 0.69251 0.0
O554 O 0.43157 0.91638 0.8129 0.0
O555 O 0.47453 0.94358 0.69442 0.0
O556 O 0.48878 0.95291 0.84212 0.0
O557 O 0.42291 0.87355 0.85515 0.0
O558 O 0.44807 0.91012 0.89422 0.0
C559 C 0.46226 0.8738 0.76095 0.0
C560 C 0.43673 0.88963 0.57763 0.0
C561 C 0.35969 0.80233 0.69368 0.0
C562 C 0.35644 0.77281 0.7461 0.0
C563 C 0.32257 0.76719 0.62185 0.0
C564 C 0.3363 0.78892 0.62729 0.0
C565 C 0.33265 0.75905 0.6811 0.0
C566 C 0.36952 0.79436 0.75332 0.0
C567 C 0.37527 0.82462 0.6984 0.0
C568 C 0.30065 0.84781 0.64525 0.0
C569 C 0.30176 0.84349 0.55422 0.0
H570 H 0.30546 0.85915 0.82548 0.0
C571 C 0.40979 0.90949 0.75333 0.0
C572 C 0.43606 0.89139 0.91598 0.0
C573 C 0.49687 0.98102 0.76371 0.0
C574 C 0.50069 1.00835 0.68374 0.0
C575 C 0.52095 0.01744 0.84445 0.0
C576 C 0.51161 0.9964 0.84395 0.0
C577 C 0.51567 0.02342 0.76519 0.0
C578 C 0.49143 0.98704 0.68343 0.0
C579 C 0.4863 0.95877 0.76642 0.0
H580 H 0.30454 0.75668 0.57066 0.0
H581 H 0.32886 0.79523 0.58001 0.0
H582 H 0.3225 0.74212 0.67421 0.0
H583 H 0.38807 0.80487 0.80291 0.0
H584 H 0.53238 0.02919 0.90663 0.0
H585 H 0.51589 0.99219 0.90674 0.0
H586 H 0.52362 0.03998 0.76766 0.0
H587 H 0.47955 0.97515 0.62177 0.0
C588 C 0.37448 0.52897 0.80115 0.0
C589 C 0.39892 0.53641 0.95411 0.0
C590 C 0.37596 0.53192 0.89449 0.0
C591 C 0.42065 0.53877 0.91903 0.0
C592 C 0.39615 0.53116 0.76563 0.0
C593 C 0.41928 0.53617 0.82513 0.0
N594 N 0.35211 0.52457 0.7452 0.0
C595 C 0.34973 0.52177 0.65338 0.0
C596 C 0.39402 0.52853 0.67138 0.0
C597 C 0.37066 0.52376 0.61501 0.0
Gd598 Gd 0.30973 0.56974 0.85617 0.0
Gd599 Gd 0.31844 0.52176 0.81535 0.0
N600 N 0.35472 0.52979 0.92667 0.0
C601 C 0.39907 0.53781 0.04703 0.0
C602 C 0.35379 0.52896 0.01558 0.0
C603 C 0.37618 0.53363 0.07762 0.0
H604 H 0.33558 0.52381 0.03867 0.0
H605 H 0.37551 0.53347 0.14856 0.0
H606 H 0.28262 0.56556 0.64186 0.0
H607 H 0.3316 0.5178 0.60979 0.0
H608 H 0.24245 0.56196 0.55895 0.0
H609 H 0.41631 0.54121 0.09507 0.0
H610 H 0.43853 0.54237 0.96394 0.0
H611 H 0.30918 0.57923 0.07731 0.0
H612 H 0.41028 0.53015 0.64149 0.0
H613 H 0.36875 0.52158 0.54209 0.0
H614 H 0.19378 0.56068 0.78891 0.0
H615 H 0.43621 0.53804 0.79919 0.0
H616 H 0.23458 0.57149 0.09776 0.0
H617 H 0.27834 0.57891 0.17122 0.0
N618 N 0.28198 0.5697 0.95208 0.0
C619 C 0.25847 0.56638 0.91023 0.0
C620 C 0.28956 0.57483 0.04451 0.0
C621 C 0.24769 0.57093 0.05616 0.0
C622 C 0.27236 0.57511 0.09792 0.0
C623 C 0.24072 0.56697 0.96133 0.0
H624 H 0.20322 0.56476 0.95477 0.0
N625 N 0.27098 0.56416 0.76888 0.0
C626 C 0.25299 0.56387 0.81615 0.0
C627 C 0.22596 0.56129 0.67791 0.0
C628 C 0.22986 0.56221 0.77162 0.0
C629 C 0.2677 0.56399 0.67818 0.0
C630 C 0.24505 0.56231 0.63112 0.0
O631 O 0.35396 0.55388 0.80495 0.0
O632 O 0.34986 0.57538 0.9084 0.0
O633 O 0.32812 0.59712 0.79646 0.0
O634 O 0.32417 0.60013 0.93782 0.0
O635 O 0.30334 0.52724 0.93957 0.0
O636 O 0.32722 0.56305 0.97596 0.0
O637 O 0.27148 0.53729 0.83638 0.0
O638 O 0.27919 0.5152 0.748 0.0
O639 O 0.29982 0.49323 0.87032 0.0
O640 O 0.30712 0.49209 0.73217 0.0
O641 O 0.31833 0.56301 0.71853 0.0
O642 O 0.30292 0.52751 0.68642 0.0
C643 C 0.36373 0.57267 0.85483 0.0
C644 C 0.3138 0.54488 -0.00097 0.0
C645 C 0.32284 0.62379 0.85678 0.0
C646 C 0.33608 0.65763 0.8275 0.0
C647 C 0.29125 0.63437 0.84821 0.0
C648 C 0.29744 0.61951 0.86246 0.0
C649 C 0.31063 0.65355 0.83054 0.0
C650 C 0.34199 0.64276 0.83948 0.0
C651 C 0.33086 0.60938 0.86999 0.0
C652 C 0.21175 0.5621 0.82211 0.0
C653 C 0.21712 0.56441 0.91661 0.0
H654 H 0.20848 0.56007 0.64132 0.0
C655 C 0.26316 0.51918 0.78321 0.0
C656 C 0.30985 0.54536 0.66076 0.0
C657 C 0.28548 0.45893 0.78188 0.0
C658 C 0.25961 0.42578 0.83007 0.0
C659 C 0.2749 0.42631 0.68902 0.0
C660 C 0.28697 0.44809 0.7038 0.0
C661 C 0.26137 0.41518 0.75199 0.0
C662 C 0.27153 0.44767 0.8448 0.0
C663 C 0.29737 0.48173 0.79476 0.0
H664 H 0.27174 0.63122 0.8526 0.0
H665 H 0.28271 0.60512 0.87921 0.0
H666 H 0.30611 0.66536 0.82214 0.0
H667 H 0.36181 0.64619 0.83717 0.0
H668 H 0.27601 0.41803 0.62853 0.0
H669 H 0.29734 0.45642 0.65384 0.0
H670 H 0.25204 0.39824 0.73948 0.0
H671 H 0.26995 0.4558 0.90487 0.0
C672 C 0.55871 0.64587 0.88536 0.0
C673 C 0.52853 0.62604 0.73923 0.0
C674 C 0.55144 0.64457 0.79271 0.0
C675 C 0.51346 0.60889 0.77924 0.0
C676 C 0.543 0.62893 0.92615 0.0
C677 C 0.52051 0.61039 0.87244 0.0
N678 N 0.5812 0.66364 0.93548 0.0
C679 C 0.58956 0.66534 0.02544 0.0
C680 C 0.55072 0.63094 0.0195 0.0
C681 C 0.57417 0.64921 0.06929 0.0
Gd682 Gd 0.60299 0.74068 0.86621 0.0
Gd683 Gd 0.60615 0.68875 0.85413 0.0
N684 N 0.5671 0.66109 0.75455 0.0
C685 C 0.52187 0.62498 0.64636 0.0
C686 C 0.56178 0.65939 0.66296 0.0
C687 C 0.53872 0.64168 0.60796 0.0
H688 H 0.57572 0.67097 0.63088 0.0
H689 H 0.53446 0.64062 0.53547 0.0
H690 H 0.6265 0.75982 0.09096 0.0
H691 H 0.60824 0.67908 0.06332 0.0
H692 H 0.66512 0.79154 0.193 0.0
H693 H 0.50428 0.61107 0.60325 0.0
H694 H 0.49623 0.59433 0.73853 0.0
H695 H 0.60749 0.74911 0.6545 0.0
H696 H 0.53897 0.61833 0.0534 0.0
H697 H 0.58059 0.65076 0.14108 0.0
H698 H 0.71343 0.83482 0.99143 0.0
H699 H 0.5084 0.59706 0.90229 0.0
H700 H 0.67902 0.80845 0.6711 0.0
H701 H 0.63862 0.77581 0.57864 0.0
N702 N 0.63147 0.76458 0.7862 0.0
C703 C 0.65266 0.78293 0.83894 0.0
C704 C 0.62589 0.76229 0.69439 0.0
C705 C 0.66576 0.7963 0.70426 0.0
C706 C 0.64314 0.77785 0.65174 0.0
C707 C 0.67056 0.79917 0.79908 0.0
H708 H 0.70644 0.83045 0.82533 0.0
N709 N 0.63932 0.76935 0.97045 0.0
C710 C 0.65655 0.78547 0.93345 0.0
C711 C 0.68182 0.80618 0.08366 0.0
C712 C 0.67849 0.8042 0.98932 0.0
C713 C 0.64162 0.77164 0.06214 0.0
C714 C 0.66317 0.7899 0.12017 0.0
O715 O 0.56943 0.68622 0.89099 0.0
O716 O 0.56282 0.7085 0.81732 0.0
O717 O 0.58518 0.7545 0.94225 0.0
O718 O 0.58767 0.7579 0.80499 0.0
O719 O 0.61313 0.70517 0.73423 0.0
O720 O 0.5867 0.71861 0.72939 0.0
O721 O 0.64615 0.74651 0.88226 0.0
O722 O 0.64731 0.717 0.89736 0.0
O723 O 0.61734 0.67073 0.76586 0.0
O724 O 0.62774 0.67644 0.91422 0.0
O725 O 0.59555 0.72557 0.98879 0.0
O726 O 0.62094 0.71091 0.99191 0.0
C727 C 0.55356 0.69107 0.85006 0.0
C728 C 0.59848 0.71065 0.68857 0.0
C729 C 0.55406 0.76046 0.86076 0.0
C730 C 0.52713 0.77631 0.85181 0.0
C731 C 0.50581 0.7381 0.82589 0.0
C732 C 0.53053 0.74038 0.84044 0.0
C733 C 0.50408 0.75577 0.83173 0.0
C734 C 0.55235 0.77854 0.86539 0.0
C735 C 0.58016 0.76234 0.87636 0.0
C736 C 0.69641 0.82032 0.94951 0.0
C737 C 0.69246 0.81781 0.85483 0.0
H738 H 0.69845 0.82034 0.12888 0.0
C739 C 0.65944 0.73713 0.89736 0.0
C740 C 0.60824 0.71822 0.03181 0.0
C741 C 0.64055 0.65515 0.83417 0.0
C742 C 0.65836 0.63702 0.75469 0.0
C743 C 0.65726 0.63724 0.91476 0.0
C744 C 0.64601 0.64917 0.91413 0.0
C745 C 0.6633 0.63114 0.83592 0.0
C746 C 0.64662 0.64894 0.754 0.0
C747 C 0.62815 0.6675 0.83676 0.0
H748 H 0.48777 0.72247 0.8099 0.0
H749 H 0.5313 0.72641 0.83576 0.0
H750 H 0.48447 0.75329 0.81918 0.0
H751 H 0.57045 0.79416 0.88074 0.0
H752 H 0.66119 0.63261 0.97664 0.0
H753 H 0.64135 0.65353 0.97651 0.0
H754 H 0.67162 0.62154 0.83849 0.0
H755 H 0.64263 0.65361 0.69221 0.0
C756 C 0.1809 0.35813 0.18257 0.0
C757 C 0.16354 0.33734 0.13411 0.0
C758 C 0.1977 0.374 0.13975 0.0
C759 C 0.19653 0.36892 0.04595 0.0
C760 C 0.17903 0.34786 0.99675 0.0
C761 C 0.16293 0.3322 0.04195 0.0
C762 C 0.21662 0.39616 0.1948 0.0
C763 C 0.17705 0.34196 0.89627 0.0
C764 C 0.22139 0.41157 0.90785 0.0
C765 C 0.24522 0.41366 0.89535 0.0
C766 C 0.20549 0.39737 0.95894 0.0
C767 C 0.2141 0.38548 -0.00064 0.0
C768 C 0.23892 0.3885 0.9908 0.0
C769 C 0.2541 0.40246 0.93802 0.0
C770 C 0.17889 0.39424 0.9654 0.0
C771 C 0.24893 0.37635 0.03416 0.0
H772 H 0.18135 0.3619 0.25415 0.0
H773 H 0.14932 0.31605 0.00489 0.0
H774 H 0.23734 0.40181 0.18826 0.0
H775 H 0.21167 0.40697 0.16846 0.0
H776 H 0.21584 0.39722 0.26792 0.0
H777 H 0.16192 0.32497 0.86763 0.0
H778 H 0.17176 0.35145 0.85923 0.0
H779 H 0.19661 0.34558 0.8835 0.0
H780 H 0.21461 0.42024 0.87396 0.0
H781 H 0.27265 0.40427 0.92807 0.0
H782 H 0.17705 0.39589 0.03732 0.0
H783 H 0.16264 0.37801 0.92965 0.0
H784 H 0.1759 0.40563 0.93493 0.0
H785 H 0.24804 0.37764 0.1071 0.0
H786 H 0.26972 0.38204 0.02817 0.0
H787 H 0.23596 0.3594 0.00111 0.0
C788 C 0.82059 0.7879 0.93401 0.0
C789 C 0.83534 0.79657 0.02424 0.0
C790 C 0.79274 0.77992 0.9113 0.0
C791 C 0.77842 0.77984 0.97997 0.0
C792 C 0.79331 0.7885 0.07111 0.0
C793 C 0.82117 0.79688 0.09153 0.0
C794 C 0.77862 0.77179 0.81289 0.0
C795 C 0.77974 0.78874 0.14814 0.0
C796 C 0.70727 0.77068 0.92191 0.0
C797 C 0.69002 0.74896 0.91782 0.0
C798 C 0.73563 0.78086 0.94115 0.0
C799 C 0.74784 0.76937 0.95756 0.0
C800 C 0.73042 0.74744 0.95336 0.0
C801 C 0.70234 0.73772 0.93376 0.0
C802 C 0.7525 0.80413 0.94501 0.0
C803 C 0.74144 0.73403 0.97021 0.0
H804 H 0.83099 0.78794 0.88046 0.0
H805 H 0.83198 0.80364 0.16148 0.0
H806 H 0.76281 0.75478 0.80133 0.0
H807 H 0.76874 0.78015 0.79495 0.0
H808 H 0.79242 0.7739 0.7667 0.0
H809 H 0.79378 0.79579 0.21524 0.0
H810 H 0.77048 0.79788 0.13825 0.0
H811 H 0.76354 0.77241 0.14886 0.0
H812 H 0.69872 0.77982 0.90975 0.0
H813 H 0.68997 0.72094 0.93117 0.0
H814 H 0.76875 0.80781 0.90829 0.0
H815 H 0.76147 0.81234 0.01695 0.0
H816 H 0.74073 0.81023 0.91559 0.0
H817 H 0.75315 0.7343 0.91868 0.0
H818 H 0.72553 0.71736 0.9675 0.0
H819 H 0.75514 0.74055 0.03777 0.0
C820 C 0.33504 0.97034 0.81552 0.0
C821 C 0.32672 0.96797 0.89816 0.0
C822 C 0.346 0.95936 0.78123 0.0
C823 C 0.349 0.94591 0.83157 0.0
C824 C 0.33918 0.94252 0.91254 0.0
C825 C 0.32803 0.95358 0.94486 0.0
C826 C 0.35591 0.96321 0.69414 0.0
C827 C 0.34184 0.92813 0.96749 0.0
C828 C 0.36805 0.90967 0.72082 0.0
C829 C 0.39477 0.9197 0.76506 0.0
C830 C 0.35265 0.91772 0.74252 0.0
C831 C 0.36486 0.93718 0.80486 0.0
C832 C 0.39249 0.9484 0.84314 0.0
C833 C 0.40694 0.93929 0.82453 0.0
C834 C 0.32315 0.90487 0.70184 0.0
C835 C 0.40674 0.96991 0.90493 0.0
H836 H 0.3339 0.98145 0.7795 0.0
H837 H 0.32172 0.95188 0.00909 0.0
H838 H 0.37799 0.97197 0.70935 0.0
H839 H 0.34834 0.94804 0.64731 0.0
H840 H 0.34974 0.97246 0.6588 0.0
H841 H 0.33095 0.92556 0.02373 0.0
H842 H 0.33422 0.91263 0.92317 0.0
H843 H 0.36319 0.9351 -0.00296 0.0
H844 H 0.35888 0.89525 0.67077 0.0
H845 H 0.42784 0.94756 0.85689 0.0
H846 H 0.31622 0.91497 0.68064 0.0
H847 H 0.31217 0.89713 0.75397 0.0
H848 H 0.31781 0.89241 0.64235 0.0
H849 H 0.40281 0.98056 0.87179 0.0
H850 H 0.42864 0.97728 0.92284 0.0
H851 H 0.39911 0.96859 0.96848 0.0
C852 C 0.42282 0.14754 0.00453 0.0
C853 C 0.44322 0.14412 0.03253 0.0
C854 C 0.3951 0.13217 0.00165 0.0
C855 C 0.38665 0.11277 0.03175 0.0
C856 C 0.40749 0.10976 0.06318 0.0
C857 C 0.43468 0.12485 0.06111 0.0
C858 C 0.37496 0.13696 0.96495 0.0
C859 C 0.40154 0.09046 0.09985 0.0
C860 C 0.31605 0.08163 0.09831 0.0
C861 C 0.3006 0.06293 0.03036 0.0
C862 C 0.34332 0.09764 0.09943 0.0
C863 C 0.3566 0.09576 0.03017 0.0
C864 C 0.34101 0.0769 0.96114 0.0
C865 C 0.31398 0.06099 0.96277 0.0
C866 C 0.35809 0.1166 0.17668 0.0
C867 C 0.3528 0.07342 0.88397 0.0
H868 H 0.42834 0.16203 0.98191 0.0
H869 H 0.4496 0.12155 0.08409 0.0
H870 H 0.35529 0.1224 0.93321 0.0
H871 H 0.37235 0.14587 0.02137 0.0
H872 H 0.38197 0.147 0.91393 0.0
H873 H 0.41875 0.09398 0.15182 0.0
H874 H 0.38373 0.08415 0.13061 0.0
H875 H 0.39796 0.07798 0.04377 0.0
H876 H 0.30702 0.08357 0.15294 0.0
H877 H 0.30309 0.0469 0.90942 0.0
H878 H 0.36085 0.13058 0.15148 0.0
H879 H 0.37815 0.11996 0.20421 0.0
H880 H 0.34713 0.11442 0.23261 0.0
H881 H 0.36388 0.08806 0.8576 0.0
H882 H 0.33731 0.06048 0.82724 0.0
H883 H 0.36708 0.06917 0.90864 0.0
C884 C 0.95709 0.28045 0.09522 0.0
C885 C 0.96288 0.29508 0.17406 0.0
C886 C 0.96967 0.26906 0.09019 0.0
C887 C 0.98837 0.27189 0.16626 0.0
C888 C 0.99395 0.28642 0.24639 0.0
C889 C 0.98148 0.29786 0.24893 0.0
C890 C 0.96297 0.25399 0.00289 0.0
C891 C 1.01312 0.28985 0.33021 0.0
C892 C 1.00313 0.22866 0.18726 0.0
C893 C 0.02766 0.23658 0.16032 0.0
C894 C 0.99009 0.23968 0.1881 0.0
C895 C 1.00185 0.25959 0.16291 0.0
C896 C 0.02686 0.26791 0.137 0.0
C897 C 0.03927 0.25637 0.1356 0.0
C898 C 0.96362 0.22994 0.21645 0.0
C899 C 0.04059 0.28909 0.11055 0.0
H900 H 0.94308 0.27821 0.03639 0.0
H901 H 0.98621 0.30898 0.31056 0.0
H902 H 0.98149 0.25745 0.98058 0.0
H903 H 0.95264 0.23762 0.01416 0.0
H904 H 0.94994 0.25482 0.9475 0.0
H905 H 1.01469 0.30105 0.38821 0.0
H906 H 1.00661 0.27462 0.35089 0.0
H907 H 0.03321 0.29609 0.31529 0.0
H908 H 0.99409 0.21384 0.20888 0.0
H909 H 0.05823 0.26298 0.11509 0.0
H910 H 0.94787 0.22645 0.1584 0.0
H911 H 0.96432 0.24116 0.27197 0.0
H912 H 0.95783 0.21511 0.23991 0.0
H913 H 0.0274 0.28899 0.05258 0.0
H914 H 0.05977 0.2934 0.09126 0.0
H915 H 0.04458 0.30149 0.1679 0.0
C916 C 0.87637 0.67938 0.16145 0.0
C917 C 0.86109 0.68467 0.10617 0.0
C918 C 0.86594 0.6585 0.17651 0.0
C919 C 0.83941 0.64169 0.13402 0.0
C920 C 0.82354 0.6471 0.08103 0.0
C921 C 0.83446 0.66816 0.06747 0.0
C922 C 0.88388 0.65424 0.23526 0.0
C923 C 0.79512 0.63034 0.03482 0.0
C924 C 0.82215 0.58365 0.08864 0.0
C925 C 0.80751 0.57476 0.15484 0.0
C926 C 0.83238 0.60503 0.08107 0.0
C927 C 0.82871 0.61857 0.14228 0.0
C928 C 0.8145 0.6097 0.21073 0.0
C929 C 0.80379 0.58813 0.21484 0.0
C930 C 0.84651 0.61296 0.00511 0.0
C931 C 0.81059 0.62305 0.2805 0.0
H932 H 0.89718 0.69147 0.18943 0.0
H933 H 0.82248 0.67148 0.02195 0.0
H934 H 0.87359 0.6453 0.28602 0.0
H935 H 0.88868 0.64438 0.1925 0.0
H936 H 0.90281 0.66902 0.27151 0.0
H937 H 0.78493 0.6369 -0.0015 0.0
H938 H 0.79473 0.61821 0.98536 0.0
H939 H 0.78369 0.62228 0.08545 0.0
H940 H 0.82458 0.57357 0.03973 0.0
H941 H 0.79213 0.58158 0.26526 0.0
H942 H 0.86707 0.62676 0.03345 0.0
H943 H 0.83602 0.6183 0.96161 0.0
H944 H 0.84753 0.60068 0.96209 0.0
H945 H 0.83022 0.63559 0.32385 0.0
H946 H 0.79742 0.61367 0.32482 0.0
H947 H 0.80196 0.63098 0.24697 0.0
C948 C 0.21879 0.50889 0.69888 0.0
C949 C 0.23452 0.50354 0.74891 0.0
C950 C 0.19342 0.49332 0.64712 0.0
C951 C 0.18345 0.47182 0.64679 0.0
C952 C 0.19848 0.46643 0.70312 0.0
C953 C 0.22415 0.48237 0.75198 0.0
C954 C 0.17826 0.49981 0.58725 0.0
C955 C 0.18825 0.44382 0.70798 0.0
C956 C 0.11112 0.43551 0.52247 0.0
C957 C 0.11423 0.43054 0.43469 0.0
C958 C 0.13345 0.44776 0.59476 0.0
C959 C 0.15927 0.45527 0.5781 0.0
C960 C 0.16218 0.44889 0.49115 0.0
C961 C 0.13961 0.43645 0.42096 0.0
C962 C 0.12954 0.45374 0.68726 0.0
C963 C 0.18928 0.45646 0.47013 0.0
H964 H 0.22704 0.52504 0.69425 0.0
H965 H 0.23653 0.47821 0.7901 0.0
H966 H 0.17655 0.49389 0.51484 0.0
H967 H 0.15776 0.49276 0.5993 0.0
H968 H 0.18809 0.51719 0.59912 0.0
H969 H 0.19879 0.44276 0.77044 0.0
H970 H 0.16655 0.43477 0.70656 0.0
H971 H 0.19154 0.43625 0.64848 0.0
H972 H 0.0915 0.43084 0.53364 0.0
H973 H 0.14194 0.43212 0.35369 0.0
H974 H 0.13326 0.4698 0.6961 0.0
H975 H 0.14377 0.45403 0.74199 0.0
H976 H 0.10892 0.44268 0.69546 0.0
H977 H 0.20071 0.47384 0.47675 0.0
H978 H 0.18794 0.44912 0.40041 0.0
H979 H 0.20074 0.45286 0.51923 0.0
C980 C 0.68919 0.63059 0.68125 0.0
C981 C 0.66557 0.63034 0.67231 0.0
C982 C 0.6949 0.62166 0.60851 0.0
C983 C 0.6769 0.61267 0.52339 0.0
C984 C 0.65373 0.61341 0.51209 0.0
C985 C 0.64824 0.62216 0.58686 0.0
C986 C 0.71987 0.62131 0.62377 0.0
C987 C 0.63435 0.60439 0.42172 0.0
C988 C 0.70351 0.60489 0.31751 0.0
C989 C 0.69299 0.58311 0.3008 0.0
C990 C 0.69804 0.61457 0.38837 0.0
C991 C 0.68237 0.60242 0.44664 0.0
C992 C 0.67249 0.58061 0.43282 0.0
C993 C 0.67769 0.57117 0.35965 0.0
C994 C 0.70876 0.63781 0.40005 0.0
C995 C 0.65617 0.56721 0.49485 0.0
H996 H 0.70308 0.63742 0.74629 0.0
H997 H 0.62995 0.62187 0.57915 0.0
H998 H 0.71445 0.60475 0.61173 0.0
H999 H 0.7323 0.6291 0.5749 0.0
H1000 H 0.73203 0.62932 0.69374 0.0
H1001 H 0.61849 0.60773 0.42189 0.0
H1002 H 0.645 0.61094 0.36714 0.0
H1003 H 0.62483 0.58706 0.4047 0.0
H1004 H 0.71602 0.61449 0.27463 0.0
H1005 H 0.66921 0.55434 0.3475 0.0
H1006 H 0.72161 0.64633 0.4686 0.0
H1007 H 0.69203 0.64018 0.39447 0.0
H1008 H 0.72052 0.64502 0.34857 0.0
H1009 H 0.66749 0.57397 0.56623 0.0
H1010 H 0.65063 0.55065 0.47689 0.0
H1011 H 0.63768 0.5672 0.49149 0.0
C1012 C 0.46466 0.04313 0.23319 0.0
C1013 C 0.48808 0.06021 0.21762 0.0
C1014 C 0.46506 0.034 0.30814 0.0
C1015 C 0.48954 0.04206 0.36893 0.0
C1016 C 0.51323 0.05963 0.35469 0.0
C1017 C 0.51219 0.06862 0.27942 0.0
C1018 C 0.43931 0.01553 0.32143 0.0
C1019 C 0.53973 0.06858 0.41782 0.0
C1020 C 0.48962 0.03108 0.60703 0.0
C1021 C 0.49516 0.01527 0.60035 0.0
C1022 C 0.48744 0.03973 0.53219 0.0
C1023 C 0.49037 0.03217 0.44763 0.0
C1024 C 0.49462 0.01547 0.43895 0.0
C1025 C 0.49703 1.00724 0.51548 0.0
C1026 C 0.48274 0.05741 0.54447 0.0
C1027 C 0.49751 1.00679 0.34951 0.0
H1028 H 0.44596 0.03678 0.18598 0.0
H1029 H 0.53035 0.08175 0.26718 0.0
H1030 H 0.44067 1.00151 0.3191 0.0
H1031 H 0.43574 0.01916 0.38923 0.0
H1032 H 0.42191 1.01143 0.26886 0.0
H1033 H 0.55625 0.08246 0.39829 0.0
H1034 H 0.53874 0.07334 0.48841 0.0
H1035 H 0.54443 0.0563 0.41765 0.0
H1036 H 0.48738 0.03697 0.67162 0.0
H1037 H 0.50133 0.99505 0.5095 0.0
H1038 H 0.46502 0.05339 0.49401 0.0
H1039 H 0.50008 0.07197 0.53254 0.0
H1040 H 0.47971 0.06082 0.61363 0.0
H1041 H 0.48014 1.00192 0.29521 0.0
H1042 H 0.49925 0.99304 0.35259 0.0
H1043 H 0.51551 0.01927 0.32976 0.0
C1044 C 0.11392 0.09059 0.14661 0.0
C1045 C 0.13454 0.09295 0.10385 0.0
C1046 C 0.10884 0.10663 0.16177 0.0
C1047 C 0.12512 0.12606 0.13584 0.0
C1048 C 0.14736 0.12929 0.0995 0.0
C1049 C 0.15174 0.11272 0.08345 0.0
C1050 C 0.08492 0.10221 0.20071 0.0
C1051 C 0.1658 0.14996 0.07366 0.0
C1052 C 0.0905 0.15398 0.06467 0.0
C1053 C 0.09682 0.16849 0.14444 0.0
C1054 C 0.10006 0.14056 0.06073 0.0
C1055 C 0.11704 0.14183 0.13786 0.0
C1056 C 0.12453 0.15713 0.21751 0.0
C1057 C 0.11397 0.16995 0.22035 0.0
C1058 C 0.09119 0.1245 0.9744 0.0
C1059 C 0.1432 0.15972 0.30079 0.0
H1060 H 0.10094 0.07571 0.16543 0.0
H1061 H 0.16784 0.11494 0.05096 0.0
H1062 H 0.09069 0.11509 0.25866 0.0
H1063 H 0.06983 0.10152 0.14818 0.0
H1064 H 0.07551 0.08706 0.22423 0.0
H1065 H 0.18386 0.15106 0.05671 0.0
H1066 H 0.15516 0.15172 0.01385 0.0
H1067 H 0.17204 0.16335 0.12993 0.0
H1068 H 0.07776 0.15292 0.00482 0.0
H1069 H 0.11883 0.18086 0.28278 0.0
H1070 H 0.0774 0.10847 0.98616 0.0
H1071 H 0.10843 0.1248 0.95412 0.0
H1072 H 0.08087 0.12723 0.91712 0.0
H1073 H 0.13217 0.14686 0.33707 0.0
H1074 H 0.15173 0.17503 0.34829 0.0
H1075 H 0.15977 0.15869 0.28193 0.0
C1076 C 0.98689 0.98196 0.07091 0.0
C1077 C 0.97346 0.96907 0.12957 0.0
C1078 C 0.98574 0.99954 0.06302 0.0
C1079 C 0.97106 1.0043 0.11618 0.0
C1080 C 0.95601 0.99056 0.17097 0.0
C1081 C 0.95736 0.97295 0.17706 0.0
C1082 C 1.00128 1.01356 0.00127 0.0
C1083 C 0.93955 0.99502 0.22588 0.0
C1084 C 1.00402 0.0628 0.17015 0.0
C1085 C 0.98976 0.06522 0.09854 0.0
C1086 C 0.99641 0.04264 0.18241 0.0
C1087 C 0.97414 0.02487 0.12122 0.0
C1088 C 0.95808 0.02746 0.05505 0.0
C1089 C 0.9663 0.0478 0.04402 0.0
C1090 C 1.01379 0.04037 0.25452 0.0
C1091 C 0.93384 1.00905 0.98954 0.0
H1092 H 0.99871 0.97848 0.03266 0.0
H1093 H 0.94676 0.96273 0.22178 0.0
H1094 H 0.98831 0.0165 0.95562 0.0
H1095 H 1.01794 0.02904 0.0426 0.0
H1096 H 1.0097 1.00657 0.95896 0.0
H1097 H 0.92696 0.98171 0.25798 0.0
H1098 H 0.95291 1.00935 0.28006 0.0
H1099 H 0.92652 0.99823 0.18208 0.0
H1100 H 1.02214 0.07655 0.21201 0.0
H1101 H 0.95534 0.05003 0.98913 0.0
H1102 H 0.02543 0.03511 0.2218 0.0
H1103 H 1.00141 0.02826 0.29205 0.0
H1104 H 0.02798 0.05547 0.30387 0.0
H1105 H 0.93929 1.00693 0.92357 0.0
H1106 H 0.91795 1.01233 0.97686 0.0
H1107 H 0.92567 0.9941 0.01411 0.0
C1108 C 1.02239 0.87305 0.07009 0.0
C1109 C 1.00001 0.87493 0.05843 0.0
C1110 C 0.04911 0.89 0.0656 0.0
C1111 C 0.05504 0.91017 0.04908 0.0
C1112 C 0.03245 0.9119 0.03597 0.0
C1113 C 1.0062 0.89486 0.04036 0.0
C1114 C 0.07131 0.88625 0.07922 0.0
C1115 C 0.03594 0.93211 0.0167 0.0
C1116 C 0.12796 0.9634 0.11676 0.0
C1117 C 0.13743 0.9663 0.03484 0.0
C1118 C 0.10228 0.94555 0.12261 0.0
C1119 C 0.08409 0.92925 0.04484 0.0
C1120 C 0.09373 0.93213 0.96205 0.0
C1121 C 0.11971 0.94992 0.95854 0.0
C1122 C 0.09462 0.94416 0.2137 0.0
C1123 C 0.07641 0.91623 0.87549 0.0
H1124 H 1.01922 0.85835 0.08395 0.0
H1125 H 0.9901 0.89736 0.02887 0.0
H1126 H 0.08057 0.88857 0.019 0.0
H1127 H 0.08706 0.89794 0.13852 0.0
H1128 H 0.06426 0.87012 0.09036 0.0
H1129 H 1.01681 0.93122 0.00433 0.0
H1130 H 0.04986 0.94533 0.07487 0.0
H1131 H 0.04494 0.93596 0.95635 0.0
H1132 H 0.14094 0.97513 0.17782 0.0
H1133 H 0.12614 0.95105 0.89453 0.0
H1134 H 0.08929 0.92875 0.23011 0.0
H1135 H 0.07675 0.94502 0.21134 0.0
H1136 H 0.11091 0.95699 0.26902 0.0
H1137 H 0.07316 0.90071 0.88167 0.0
H1138 H 0.0854 0.92093 0.81561 0.0
H1139 H 0.05659 0.91417 0.86351 0.0
C1140 C 0.84739 0.42472 0.14985 0.0
C1141 C 0.86496 0.44428 0.1286 0.0
C1142 C 0.85307 0.40876 0.14615 0.0
C1143 C 0.87699 0.41242 0.12162 0.0
C1144 C 0.89373 0.43154 0.09428 0.0
C1145 C 0.88743 0.44698 0.09731 0.0
C1146 C 0.8341 0.38834 0.17257 0.0
C1147 C 0.91921 0.43625 0.0663 0.0
C1148 C 0.91052 0.38581 0.22232 0.0
C1149 C 0.90492 0.37015 0.14878 0.0
C1150 C 0.90139 0.3994 0.21445 0.0
C1151 C 0.88575 0.39723 0.13112 0.0
C1152 C 0.87977 0.38124 0.05663 0.0
C1153 C 0.8893 0.36793 0.06644 0.0
C1154 C 0.90885 0.41634 0.29548 0.0
C1155 C 0.86314 0.37803 0.96644 0.0
H1156 H 0.82995 0.42228 0.17387 0.0
H1157 H 0.90091 0.46177 0.07872 0.0
H1158 H 0.82985 0.37472 0.12149 0.0
H1159 H 0.84343 0.3876 0.23848 0.0
H1160 H 0.81498 0.3867 0.17914 0.0
H1161 H 0.92902 0.45104 0.04012 0.0
H1162 H 0.9333 0.43781 0.12555 0.0
H1163 H 0.91522 0.42309 0.01311 0.0
H1164 H 0.92188 0.38734 0.2868 0.0
H1165 H 0.88469 0.35585 0.00895 0.0
H1166 H 0.89066 0.41496 0.31225 0.0
H1167 H 0.92122 0.43209 0.27901 0.0
H1168 H 0.92018 0.41549 0.3564 0.0
H1169 H 0.84226 0.37155 0.97334 0.0
H1170 H 0.86322 0.36695 0.91224 0.0
H1171 H 0.87042 0.39325 0.9448 0.0
C1172 C 0.69361 0.4317 0.02799 0.0
C1173 C 0.71564 0.44381 0.1013 0.0
C1174 C 0.67589 0.40963 0.01797 0.0
C1175 C 0.68025 0.39891 0.0819 0.0
C1176 C 0.70298 0.41096 0.15449 0.0
C1177 C 0.72019 0.43308 0.16342 0.0
C1178 C 0.65224 0.39784 0.9392 0.0
C1179 C 0.70915 0.40046 0.22329 0.0
C1180 C 0.62426 0.34491 0.11795 0.0
C1181 C 0.62974 0.33083 0.073 0.0
C1182 C 0.63974 0.36686 0.11822 0.0
C1183 C 0.66143 0.3752 0.07297 0.0
C1184 C 0.66601 0.36082 0.02352 0.0
C1185 C 0.65032 0.33906 0.02445 0.0
C1186 C 0.6337 0.38137 0.17058 0.0
C1187 C 0.68847 0.36853 0.97312 0.0
H1188 H 0.69016 0.43949 0.97773 0.0
H1189 H 0.73717 0.44201 0.21998 0.0
H1190 H 0.65095 0.38376 0.90269 0.0
H1191 H 0.63367 0.3922 0.96509 0.0
H1192 H 0.65312 0.40786 0.89013 0.0
H1193 H 0.72759 0.41183 0.27527 0.0
H1194 H 0.69231 0.39255 0.25808 0.0
H1195 H 0.71156 0.38811 0.18851 0.0
H1196 H 0.60886 0.33896 0.15721 0.0
H1197 H 0.65504 0.32849 0.99045 0.0
H1198 H 0.63126 0.39117 0.1264 0.0
H1199 H 0.65068 0.39232 0.22813 0.0
H1200 H 0.61538 0.37259 0.19775 0.0
H1201 H 0.68738 0.37859 0.92756 0.0
H1202 H 0.68814 0.35532 0.93192 0.0
H1203 H 0.70784 0.37836 0.02238 0.0
C1204 C 0.62414 0.21727 0.12882 0.0
C1205 C 0.60586 0.21502 0.05499 0.0
C1206 C 0.65087 0.22526 0.12444 0.0
C1207 C 0.65978 0.23116 0.04386 0.0
C1208 C 0.6413 0.22874 0.96848 0.0
C1209 C 0.61464 0.22093 0.97526 0.0
C1210 C 0.66948 0.22701 0.20591 0.0
C1211 C 0.64952 0.23377 0.87989 0.0
C1212 C 0.73557 0.26761 0.08826 0.0
C1213 C 0.74283 0.25296 0.07287 0.0
C1214 C 0.70845 0.261 0.07142 0.0
C1215 C 0.68827 0.23927 0.03921 0.0
C1216 C 0.69593 0.22498 0.01499 0.0
C1217 C 0.72299 0.23197 0.03248 0.0
C1218 C 0.70133 0.27697 0.09471 0.0
C1219 C 0.67592 0.20181 0.97884 0.0
H1220 H 0.61749 0.21274 0.19057 0.0
H1221 H 0.60046 0.21882 0.91726 0.0
H1222 H 0.67665 0.21659 0.18759 0.0
H1223 H 0.68717 0.24341 0.22735 0.0
H1224 H 0.65973 0.22249 0.26447 0.0
H1225 H 0.63306 0.23155 0.82826 0.0
H1226 H 0.66679 0.25029 0.8911 0.0
H1227 H 0.65596 0.2234 0.85246 0.0
H1228 H 0.75087 0.28389 0.11944 0.0
H1229 H 0.72854 0.22061 0.02012 0.0
H1230 H 0.69349 0.27486 0.15792 0.0
H1231 H 0.68543 0.27457 0.04011 0.0
H1232 H 0.71883 0.29341 0.1052 0.0
H1233 H 0.67396 0.19362 0.03608 0.0
H1234 H 0.68309 0.19535 0.92819 0.0
H1235 H 0.65611 0.19827 0.94711 0.0
C1236 C 0.5363 0.81045 0.80688 0.0
C1237 C 0.52364 0.79465 0.85655 0.0
C1238 C 0.52904 0.82523 0.79786 0.0
C1239 C 0.50872 0.82442 0.83968 0.0
C1240 C 0.49717 0.80938 0.89471 0.0
C1241 C 0.50473 0.79482 0.90238 0.0
C1242 C 0.54219 0.84113 0.73981 0.0
C1243 C 0.47609 0.80817 0.94329 0.0
C1244 C 0.49592 0.86921 0.85549 0.0
C1245 C 0.47503 0.86175 0.78002 0.0
C1246 C 0.50727 0.85748 0.87522 0.0
C1247 C 0.4976 0.83765 0.81842 0.0
C1248 C 0.47668 0.83022 0.74151 0.0
C1249 C 0.46572 0.84223 0.72378 0.0
C1250 C 0.52953 0.86634 0.95754 0.0
C1251 C 0.46564 0.80975 0.67521 0.0
H1252 H 0.55088 0.81057 0.77102 0.0
H1253 H 0.4951 0.783 0.94236 0.0
H1254 H 0.52745 0.83727 0.6775 0.0
H1255 H 0.54907 0.85716 0.77674 0.0
H1256 H 0.55945 0.84138 0.71961 0.0
H1257 H 0.46735 0.79447 0.97695 0.0
H1258 H 0.48492 0.82273 0.99584 0.0
H1259 H 0.45984 0.8071 0.89515 0.0
H1260 H 0.50326 0.88415 0.90015 0.0
H1261 H 0.44971 0.83617 0.66494 0.0
H1262 H 0.54597 0.86489 0.9405 0.0
H1263 H 0.522 0.85726 0.01105 0.0
H1264 H 0.53766 0.88318 0.98595 0.0
H1265 H 0.47181 0.81336 0.61007 0.0
H1266 H 0.44351 0.80052 0.66062 0.0
H1267 H 0.47244 0.79975 0.69854 0.0
C1268 C 0.37799 0.69113 0.8963 0.0
C1269 C 0.35739 0.67815 0.82047 0.0
C1270 C 0.39323 0.71281 0.902 0.0
C1271 C 0.3867 0.72083 0.83118 0.0
C1272 C 0.37015 0.70721 0.74667 0.0
C1273 C 0.35513 0.68568 0.74312 0.0
C1274 C 0.41242 0.72701 0.9897 0.0
C1275 C 0.36384 0.71512 0.6664 0.0
C1276 C 0.35497 0.75009 0.8503 0.0
C1277 C 0.36935 0.76475 0.79963 0.0
C1278 C 0.36373 0.73772 0.87972 0.0
C1279 C 0.38697 0.74008 0.85452 0.0
C1280 C 0.40403 0.75752 0.81899 0.0
C1281 C 0.39486 0.76984 0.79092 0.0
C1282 C 0.34531 0.71971 0.92154 0.0
C1283 C 0.42956 0.7608 0.79719 0.0
H1284 H 0.38008 0.6847 0.95474 0.0
H1285 H 0.33971 0.67504 0.68367 0.0
H1286 H 0.42755 0.7428 0.97927 0.0
H1287 H 0.40132 0.72907 0.03887 0.0
H1288 H 0.42263 0.71985 0.02039 0.0
H1289 H 0.35431 0.70272 0.60314 0.0
H1290 H 0.34981 0.71989 0.67951 0.0
H1291 H 0.38206 0.72896 0.65466 0.0
H1292 H 0.33574 0.74701 0.8594 0.0
H1293 H 0.40629 0.78186 0.75387 0.0
H1294 H 0.35668 0.71734 0.97651 0.0
H1295 H 0.33364 0.70497 0.86869 0.0
H1296 H 0.33098 0.72245 0.95008 0.0
H1297 H 0.4417 0.76059 0.85753 0.0
H1298 H 0.44139 0.77584 0.7749 0.0
H1299 H 0.42522 0.74779 0.74239 0.0
C1300 C 0.5159 0.67157 0.92881 0.0
C1301 C 0.52442 0.67654 0.84772 0.0
C1302 C 0.48954 0.65543 0.92934 0.0
C1303 C 0.47076 0.64357 0.84628 0.0
C1304 C 0.47912 0.64879 0.76386 0.0
C1305 C 0.50575 0.66516 0.76556 0.0
C1306 C 0.48215 0.65056 0.0192 0.0
C1307 C 0.46011 0.6367 0.6735 0.0
C1308 C 0.41137 0.58768 0.84173 0.0
C1309 C 0.39091 0.59084 0.85228 0.0
C1310 C 0.43717 0.60456 0.84061 0.0
C1311 C 0.44287 0.62531 0.84613 0.0
C1312 C 0.42203 0.62857 0.85487 0.0
C1313 C 0.39658 0.61146 0.85965 0.0
C1314 C 0.45843 0.60011 0.83397 0.0
C1315 C 0.42664 0.65017 0.85941 0.0
H1316 H 0.53007 0.68023 0.99251 0.0
H1317 H 0.51224 0.66846 0.70241 0.0
H1318 H 0.46355 0.64993 0.02419 0.0
H1319 H 0.47837 0.63483 0.02434 0.0
H1320 H 0.49811 0.66242 0.07782 0.0
H1321 H 0.46897 0.64346 0.61604 0.0
H1322 H 0.45431 0.62006 0.66285 0.0
H1323 H 0.44163 0.63664 0.67266 0.0
H1324 H 0.40746 0.57202 0.83684 0.0
H1325 H 0.38097 0.6142 0.86753 0.0
H1326 H 0.47606 0.61101 0.88935 0.0
H1327 H 0.46441 0.60298 0.76822 0.0
H1328 H 0.45171 0.58363 0.83816 0.0
H1329 H 0.44125 0.66101 0.92251 0.0
H1330 H 0.40799 0.64986 0.8584 0.0
H1331 H 0.43524 0.65677 0.80138 0.0
C1332 C 0.04909 0.21119 0.84516 0.0
C1333 C 0.06176 0.2033 0.89424 0.0
C1334 C 0.04829 0.21023 0.75189 0.0
C1335 C 0.06206 0.20253 0.7089 0.0
C1336 C 0.07506 0.19465 0.75897 0.0
C1337 C 0.07378 0.19435 0.85043 0.0
C1338 C 0.0325 0.21725 0.69925 0.0
C1339 C 0.09153 0.18765 0.71802 0.0
C1340 C 0.04538 0.18536 0.45277 0.0
C1341 C 0.06254 0.2043 0.42647 0.0
C1342 C 0.04471 0.18461 0.54428 0.0
C1343 C 0.0629 0.20292 0.61176 0.0
C1344 C 0.08103 0.22188 0.58618 0.0
C1345 C 0.07975 0.2226 0.49378 0.0
C1346 C 1.02429 0.16429 0.56848 0.0
C1347 C 0.10192 0.24137 0.65629 0.0
H1348 H 0.03916 0.21751 0.87924 0.0
H1349 H 0.08319 0.18795 0.88895 0.0
H1350 H 0.04621 0.23204 0.6778 0.0
H1351 H 1.01926 0.20515 0.63684 0.0
H1352 H 1.02013 0.22009 0.73998 0.0
H1353 H 0.09711 0.17924 0.76187 0.0
H1354 H 0.08089 0.17727 0.64996 0.0
H1355 H 0.1101 0.20176 0.70926 0.0
H1356 H 0.032 0.17106 0.40173 0.0
H1357 H 0.09264 0.23744 0.47471 0.0
H1358 H 1.01295 0.16728 0.61381 0.0
H1359 H 0.03437 0.15781 0.60586 0.0
H1360 H 1.00999 0.15212 0.5075 0.0
H1361 H 0.09246 0.24863 0.69001 0.0
H1362 H 0.11755 0.25331 0.62559 0.0
H1363 H 0.11162 0.23722 0.70959 0.0
C1364 C 0.91448 0.84771 0.77411 0.0
C1365 C 0.91836 0.83336 0.81293 0.0
C1366 C 0.91498 0.84861 0.68209 0.0
C1367 C 0.92064 0.83551 0.62868 0.0
C1368 C 0.92594 0.82187 0.66862 0.0
C1369 C 0.92466 0.82098 0.75965 0.0
C1370 C 0.90879 0.86316 0.64154 0.0
C1371 C 0.93324 0.80827 0.61548 0.0
C1372 C 0.89893 0.81923 0.37209 0.0
C1373 C 0.92251 0.83293 0.34494 0.0
C1374 C 0.89769 0.82066 0.46418 0.0
C1375 C 0.92083 0.83572 0.53075 0.0
C1376 C 0.9447 0.84967 0.50355 0.0
C1377 C 0.94517 0.84827 0.41068 0.0
C1378 C 0.87176 0.80575 0.49033 0.0
C1379 C 0.9699 0.86565 0.57261 0.0
H1380 H 0.91078 0.85814 0.8149 0.0
H1381 H 0.9293 0.81091 0.78944 0.0
H1382 H 0.92449 0.87314 0.60572 0.0
H1383 H 0.88975 0.85362 0.59049 0.0
H1384 H 0.90694 0.87355 0.69361 0.0
H1385 H 0.93563 0.79782 0.65552 0.0
H1386 H 0.91773 0.79832 0.55296 0.0
H1387 H 0.95222 0.81847 0.59413 0.0
H1388 H 0.88127 0.80763 0.321 0.0
H1389 H 0.96337 0.8589 0.38941 0.0
H1390 H 0.86658 0.81469 0.53718 0.0
H1391 H 0.87394 0.79474 0.52686 0.0
H1392 H 0.85503 0.79635 0.43033 0.0
H1393 H 0.96621 0.87566 0.61959 0.0
H1394 H 0.98645 0.87599 0.54039 0.0
H1395 H 0.97631 0.85737 0.61424 0.0
C1396 C 0.1951 1.01176 0.69704 0.0
C1397 C 0.21504 1.01227 0.75744 0.0
C1398 C 0.19765 0.01438 0.60754 0.0
C1399 C 0.21913 0.0152 0.57443 0.0
C1400 C 0.23831 1.01416 0.63309 0.0
C1401 C 0.23647 1.01337 0.7241 0.0
C1402 C 0.17766 0.01675 0.54918 0.0
C1403 C 0.26092 1.01398 0.60031 0.0
C1404 C 0.2062 0.99968 0.31738 0.0
C1405 C 0.22427 0.01871 0.29472 0.0
C1406 C 0.20549 0.99808 0.40839 0.0
C1407 C 0.22113 0.01651 0.47788 0.0
C1408 C 0.23858 0.03607 0.45473 0.0
C1409 C 0.24073 0.03675 0.36362 0.0
C1410 C 0.18846 0.9766 0.43008 0.0
C1411 C 0.25395 0.05641 0.52517 0.0
H1412 H 0.17787 1.00998 0.72035 0.0
H1413 H 0.25202 1.01357 0.76914 0.0
H1414 H 0.188 0.03006 0.51428 0.0
H1415 H 0.16428 1.00225 0.49607 0.0
H1416 H 0.16524 0.01962 0.58958 0.0
H1417 H 0.27071 1.00886 0.64834 0.0
H1418 H 0.25369 1.00333 0.53274 0.0
H1419 H 0.27621 0.03005 0.59328 0.0
H1420 H 0.19286 0.9859 0.26373 0.0
H1421 H 0.25478 0.0515 0.34628 0.0
H1422 H 0.17253 0.97582 0.46247 0.0
H1423 H 0.20087 0.97376 0.47912 0.0
H1424 H 0.17904 0.96374 0.36857 0.0
H1425 H 0.2397 0.05951 0.5519 0.0
H1426 H 0.26769 0.07009 0.49698 0.0
H1427 H 0.26567 0.05523 0.58356 0.0
C1428 C 0.75138 0.51894 0.45186 0.0
C1429 C 0.76338 0.51013 0.40632 0.0
C1430 C 0.74984 0.51812 0.54329 0.0
C1431 C 0.76257 0.50993 0.59261 0.0
C1432 C 0.77518 0.50144 0.54766 0.0
C1433 C 0.77393 0.50047 0.45427 0.0
C1434 C 0.73423 0.52573 0.58634 0.0
C1435 C 0.79012 0.49337 0.59761 0.0
C1436 C 0.78092 0.52803 0.84946 0.0
C1437 C 0.76372 0.50935 0.8765 0.0
C1438 C 0.78126 0.52834 0.75732 0.0
C1439 C 0.76247 0.50992 0.69074 0.0
C1440 C 0.74424 0.49123 0.71824 0.0
C1441 C 0.74576 0.49098 0.81112 0.0
C1442 C 0.80216 0.5482 0.73165 0.0
C1443 C 0.72272 0.47168 0.64976 0.0
H1444 H 0.7424 0.52589 0.4154 0.0
H1445 H 0.78142 0.49212 0.41939 0.0
H1446 H 0.72181 0.51471 0.6278 0.0
H1447 H 0.74812 0.54136 0.63206 0.0
H1448 H 0.72103 0.5273 0.53467 0.0
H1449 H 0.80443 0.49274 0.55957 0.0
H1450 H 0.80131 0.5035 0.66604 0.0
H1451 H 0.77585 0.4772 0.60638 0.0
H1452 H 0.79468 0.54222 0.90072 0.0
H1453 H 0.7322 0.47664 0.83277 0.0
H1454 H 0.79261 0.55519 0.69548 0.0
H1455 H 0.81265 0.54447 0.68487 0.0
H1456 H 0.81714 0.56021 0.79194 0.0
H1457 H 0.71156 0.47576 0.60175 0.0
H1458 H 0.70842 0.45931 0.68255 0.0
H1459 H 0.73172 0.465 0.60933 0.0
C1460 C 0.55366 0.20693 0.38369 0.0
C1461 C 0.53519 0.18862 0.31776 0.0
C1462 C 0.5544 0.20703 0.47716 0.0
C1463 C 0.53708 0.18814 0.50546 0.0
C1464 C 0.51985 0.16935 0.43925 0.0
C1465 C 0.51887 0.16987 0.34681 0.0
C1466 C 0.57322 0.22742 0.54541 0.0
C1467 C 0.50176 0.14867 0.4659 0.0
C1468 C 0.54725 0.182 0.75089 0.0
C1469 C 0.52714 0.1835 0.7822 0.0
C1470 C 0.55113 0.1838 0.66177 0.0
C1471 C 0.5352 0.18805 0.60307 0.0
C1472 C 0.51566 0.19049 0.63551 0.0
C1473 C 0.51156 0.18781 0.72377 0.0
C1474 C 0.57207 0.18092 0.63032 0.0
C1475 C 0.49877 0.19563 0.57623 0.0
H1476 H 0.56718 0.22131 0.36239 0.0
H1477 H 0.50495 0.15544 0.29704 0.0
H1478 H 0.56208 0.23078 0.59043 0.0
H1479 H 0.58807 0.226 0.58909 0.0
H1480 H 0.584 0.24101 0.51238 0.0
H1481 H 0.49142 0.13515 0.40687 0.0
H1482 H 0.51335 0.14562 0.51728 0.0
H1483 H 0.48649 0.14947 0.4971 0.0
H1484 H 0.56027 0.17967 0.79647 0.0
H1485 H 0.49581 0.18878 0.74637 0.0
H1486 H 0.58756 0.19567 0.61297 0.0
H1487 H 0.563 0.16836 0.56792 0.0
H1488 H 0.58189 0.17668 0.68282 0.0
H1489 H 0.51165 0.20962 0.54817 0.0
H1490 H 0.48615 0.19889 0.61385 0.0
H1491 H 0.48563 0.18224 0.51788 0.0
C1492 C 0.95681 0.34582 0.50762 0.0
C1493 C 0.93262 0.33724 0.44533 0.0
C1494 C 0.95778 0.34731 0.60125 0.0
C1495 C 0.93378 0.33856 0.63304 0.0
C1496 C 0.90944 0.33048 0.57111 0.0
C1497 C 0.90943 0.33098 0.47883 0.0
C1498 C 0.98447 0.35794 0.66579 0.0
C1499 C 0.88325 0.32061 0.60155 0.0
C1500 C 0.93579 0.31894 0.85179 0.0
C1501 C 0.93453 0.33337 0.91301 0.0
C1502 C 0.93482 0.32014 0.75977 0.0
C1503 C 0.93398 0.33684 0.72995 0.0
C1504 C 0.93316 0.35167 0.7927 0.0
C1505 C 0.93242 0.34923 0.88278 0.0
C1506 C 0.93414 0.30329 0.69423 0.0
C1507 C 0.93442 0.37069 0.76666 0.0
H1508 H 0.97515 0.35147 0.48347 0.0
H1509 H 0.89093 0.32556 0.4325 0.0
H1510 H 0.98541 0.36805 0.72683 0.0
H1511 H 0.98737 0.34585 0.68891 0.0
H1512 H 1.00119 0.3678 0.63317 0.0
H1513 H 0.86591 0.31257 0.54328 0.0
H1514 H 0.88136 0.30893 0.6428 0.0
H1515 H 0.88241 0.33291 0.64488 0.0
H1516 H 0.93668 0.30635 0.87535 0.0
H1517 H 0.93099 0.36014 0.93064 0.0
H1518 H 0.95302 0.31015 0.66968 0.0
H1519 H 0.91767 0.29695 0.63406 0.0
H1520 H 0.93146 0.29003 0.72592 0.0
H1521 H 0.95526 0.38251 0.76323 0.0
H1522 H 0.92831 0.37816 0.81719 0.0
H1523 H 0.9218 0.36666 0.6989 0.0
C1524 C 0.44646 0.87947 0.4333 0.0
C1525 C 0.43503 0.88855 0.47981 0.0
C1526 C 0.44581 0.87891 0.34037 0.0
C1527 C 0.43198 0.88645 0.29249 0.0
C1528 C 0.41901 0.89447 0.33864 0.0
C1529 C 0.42137 0.896 0.43265 0.0
C1530 C 0.46088 0.87113 0.29454 0.0
C1531 C 0.40276 0.90147 0.2888 0.0
C1532 C 0.45214 0.90774 0.08237 0.0
C1533 C 0.435 0.89005 0.01251 0.0
C1534 C 0.452 0.90653 0.17369 0.0
C1535 C 0.43281 0.88749 0.19585 0.0
C1536 C 0.41456 0.86973 0.12591 0.0
C1537 C 0.41645 0.87102 0.03525 0.0
C1538 C 0.47257 0.92562 0.24643 0.0
C1539 C 0.39289 0.84943 0.14644 0.0
H1540 H 0.45686 0.87362 0.47058 0.0
H1541 H 0.41196 0.90249 0.46901 0.0
H1542 H 0.4472 0.85768 0.23717 0.0
H1543 H 0.47623 0.88387 0.26606 0.0
H1544 H 0.47087 0.86605 0.34199 0.0
H1545 H 0.39144 0.90494 0.33263 0.0
H1546 H 0.41602 0.91588 0.26403 0.0
H1547 H 0.38849 0.88906 0.22851 0.0
H1548 H 0.46586 0.92259 0.06642 0.0
H1549 H 0.40281 0.85721 0.98207 0.0
H1550 H 0.48292 0.92115 0.29576 0.0
H1551 H 0.46271 0.93184 0.28465 0.0
H1552 H 0.48774 0.93847 0.21782 0.0
H1553 H 0.40169 0.84119 0.17563 0.0
H1554 H 0.37753 0.83863 0.08452 0.0
H1555 H 0.383 0.8527 0.19725 0.0
C1556 C 0.334 0.55314 0.16283 0.0
C1557 C 0.31123 0.54438 0.09417 0.0
C1558 C 0.332 0.55284 0.25387 0.0
C1559 C 0.30697 0.5455 0.27749 0.0
C1560 C 0.28414 0.53788 0.20847 0.0
C1561 C 0.28634 0.53646 0.11704 0.0
C1562 C 0.35659 0.56001 0.32439 0.0
C1563 C 0.2577 0.53193 0.23131 0.0
C1564 C 0.29809 0.52654 0.49908 0.0
C1565 C 0.30738 0.54523 0.56183 0.0
C1566 C 0.29741 0.52634 0.4062 0.0
C1567 C 0.30478 0.54501 0.37409 0.0
C1568 C 0.31238 0.56358 0.436 0.0
C1569 C 0.31437 0.56364 0.52932 0.0
C1570 C 0.29 0.50636 0.34311 0.0
C1571 C 0.31908 0.58359 0.40445 0.0
H1572 H 0.3533 0.55965 0.14494 0.0
H1573 H 0.26888 0.53027 0.06362 0.0
H1574 H 0.36242 0.57472 0.37112 0.0
H1575 H 0.3524 0.5479 0.36578 0.0
H1576 H 0.37373 0.56299 0.29341 0.0
H1577 H 0.24239 0.52771 0.17005 0.0
H1578 H 0.25025 0.51841 0.26575 0.0
H1579 H 0.26025 0.54534 0.27916 0.0
H1580 H 0.29201 0.51206 0.5226 0.0
H1581 H 0.32146 0.57819 0.57666 0.0
H1582 H 0.3067 0.50944 0.30937 0.0
H1583 H 0.27244 0.50109 0.28901 0.0
H1584 H 0.28533 0.4933 0.37922 0.0
H1585 H 0.33995 0.5921 0.39533 0.0
H1586 H 0.3172 0.59427 0.45484 0.0
H1587 H 0.30595 0.5801 0.33836 0.0
C1588 C 0.60937 0.70106 0.54198 0.0
C1589 C 0.59597 0.70849 0.58767 0.0
C1590 C 0.60844 0.70014 0.44826 0.0
C1591 C 0.59529 0.70812 0.39975 0.0
C1592 C 0.58101 0.71499 0.44451 0.0
C1593 C 0.58046 0.71409 0.53647 0.0
C1594 C 0.62213 0.6911 0.40166 0.0
C1595 C 0.5674 0.72428 0.39673 0.0
C1596 C 0.62491 0.73069 0.20015 0.0
C1597 C 0.60518 0.71572 0.12573 0.0
C1598 C 0.62141 0.72874 0.28947 0.0
C1599 C 0.59828 0.71079 0.3047 0.0
C1600 C 0.57851 0.69544 0.22921 0.0
C1601 C 0.58194 0.69844 0.14088 0.0
C1602 C 0.64235 0.74603 0.36764 0.0
C1603 C 0.55423 0.67548 0.24126 0.0
H1604 H 0.62066 0.69594 0.5794 0.0
H1605 H 0.56895 0.71891 0.56946 0.0
H1606 H 0.60919 0.68033 0.33593 0.0
H1607 H 0.64072 0.70404 0.38685 0.0
H1608 H 0.62732 0.68229 0.44417 0.0
H1609 H 0.55906 0.73052 0.44322 0.0
H1610 H 0.58176 0.73731 0.36691 0.0
H1611 H 0.55098 0.71216 0.34015 0.0
H1612 H 0.6429 0.74409 0.18857 0.0
H1613 H 0.5668 0.68685 0.08326 0.0
H1614 H 0.65234 0.73994 0.40844 0.0
H1615 H 0.63291 0.75132 0.41312 0.0
H1616 H 0.65774 0.75987 0.34431 0.0
H1617 H 0.56055 0.66613 0.27472 0.0
H1618 H 0.54028 0.66555 0.17552 0.0
H1619 H 0.54336 0.67923 0.28594 0.0
loop_
_geom_bond_atom_site_label_1
_geom_bond_atom_site_label_2
_geom_bond_distance
_geom_bond_site_symmetry_2
_ccdc_geom_bond_type
C0 C2 1.422 . S
C0 C4 1.415 . S
C0 N6 1.369 . S
C1 C2 1.421 . S
C1 C3 1.417 . S
C1 C13 1.422 . S
C2 C0 1.422 . S
C2 C1 1.421 . S
C2 N12 1.359 . S
C3 C1 1.417 . S
C3 C5 1.329 . S
C3 H22 0.930 . S
C4 C0 1.415 . S
C4 C5 1.437 . S
C4 C8 1.413 . S
C5 C3 1.329 . S
C5 C4 1.437 . S
C5 H27 0.929 . S
N6 C0 1.369 . S
N6 C7 1.338 . S
N6 Gd11 2.622 . S
C7 N6 1.338 . S
C7 C9 1.378 . S
C7 H19 0.929 . S
C8 C4 1.413 . S
C8 C9 1.348 . S
C8 H24 0.931 . S
C9 C7 1.378 . S
C9 C8 1.348 . S
C9 H25 0.930 . S
Gd10 N30 2.622 1_454 S
Gd10 N37 2.570 1_455 S
Gd10 O44 2.353 . S
Gd10 O45 2.468 1_455 S
Gd10 O46 2.427 1_455 S
Gd10 O48 2.388 1_554 S
Gd10 O49 2.386 . S
Gd10 O53 2.307 . S
Gd10 C63 2.805 1_455 S
Gd11 N6 2.622 . S
Gd11 N12 2.570 . S
Gd11 O43 2.386 . S
Gd11 O47 2.307 . S
Gd11 O50 2.353 . S
Gd11 O51 2.468 . S
Gd11 O52 2.427 . S
Gd11 O54 2.388 . S
Gd11 C75 2.805 . S
N12 C2 1.359 . S
N12 Gd11 2.570 . S
N12 C14 1.343 . S
C13 C1 1.422 . S
C13 C15 1.321 . S
C13 H21 0.931 . S
C14 N12 1.343 . S
C14 C15 1.390 . S
C14 H16 0.931 . S
C15 C13 1.321 . S
C15 C14 1.390 . S
C15 H17 0.930 1_554 S
H16 C14 0.931 . S
H17 C15 0.930 1_556 S
H18 C41 0.931 . S
H19 C7 0.929 . S
H20 C42 0.930 . S
H21 C13 0.931 . S
H22 C3 0.930 . S
H23 C32 0.929 . S
H24 C8 0.931 . S
H25 C9 0.930 . S
H26 C64 0.930 . S
H27 C5 0.929 . S
H28 C33 0.931 . S
H29 C34 0.930 . S
N30 Gd10 2.622 1_656 S
N30 C31 1.369 . S
N30 C32 1.338 . S
C31 N30 1.369 . S
C31 C35 1.415 . S
C31 C38 1.422 1_556 S
C32 H23 0.929 . S
C32 N30 1.338 . S
C32 C34 1.378 . S
C33 H28 0.931 . S
C33 C34 1.348 . S
C33 C35 1.413 . S
C34 H29 0.930 . S
C34 C32 1.378 . S
C34 C33 1.348 . S
C35 C31 1.415 . S
C35 C33 1.413 . S
C35 C65 1.437 . S
H36 C65 0.929 . S
N37 Gd10 2.570 1_655 S
N37 C38 1.359 . S
N37 C41 1.343 . S
C38 C31 1.422 1_554 S
C38 N37 1.359 . S
C38 C40 1.421 . S
C39 C40 1.422 . S
C39 C42 1.321 . S
C39 H66 0.931 . S
C40 C38 1.421 . S
C40 C39 1.422 . S
C40 C64 1.417 . S
C41 H18 0.931 . S
C41 N37 1.343 . S
C41 C42 1.390 . S
C42 H20 0.930 . S
C42 C39 1.321 . S
C42 C41 1.390 . S
O43 Gd11 2.386 . S
O43 C55 1.265 . S
O44 Gd10 2.353 . S
O44 C55 1.242 . S
O45 Gd10 2.468 1_655 S
O45 C63 1.263 . S
O46 Gd10 2.427 1_655 S
O46 C63 1.252 . S
O47 Gd11 2.307 . S
O47 C56 1.261 1_554 S
O48 Gd10 2.388 1_556 S
O48 C56 1.252 . S
O49 Gd10 2.386 . S
O49 C67 1.265 . S
O50 Gd11 2.353 . S
O50 C67 1.242 . S
O51 Gd11 2.468 . S
O51 C75 1.263 . S
O52 Gd11 2.427 . S
O52 C75 1.252 . S
O53 Gd10 2.307 . S
O53 C68 1.261 . S
O54 Gd11 2.388 . S
O54 C68 1.252 . S
C55 O43 1.265 . S
C55 O44 1.242 . S
C56 O47 1.261 1_556 S
C56 O48 1.252 . S
C57 C60 1.394 . S
C57 C62 1.370 . S
C57 C63 1.500 . S
C58 C61 1.383 . S
C58 C62 1.395 . S
C59 C60 1.396 . S
C59 C61 1.365 . S
C59 H76 0.929 1_554 S
C60 C57 1.394 . S
C60 C59 1.396 . S
C60 H77 0.930 1_554 S
C61 C58 1.383 . S
C61 C59 1.365 . S
C61 H78 0.931 . S
C62 C57 1.370 . S
C62 C58 1.395 . S
C62 H79 0.930 . S
C63 Gd10 2.805 1_655 S
C63 O45 1.263 . S
C63 O46 1.252 . S
C63 C57 1.500 . S
C64 H26 0.930 . S
C64 C40 1.417 . S
C64 C65 1.329 1_554 S
C65 C35 1.437 . S
C65 H36 0.929 . S
C65 C64 1.329 1_556 S
H66 C39 0.931 . S
C67 O49 1.265 . S
C67 O50 1.242 . S
C68 O53 1.261 . S
C68 O54 1.252 . S
C69 C72 1.394 . S
C69 C74 1.370 . S
C69 C75 1.500 . S
C70 C73 1.383 . S
C70 C74 1.395 . S
C71 C72 1.396 . S
C71 C73 1.365 . S
C71 H80 0.929 . S
C72 C69 1.394 . S
C72 C71 1.396 . S
C72 H81 0.930 . S
C73 C70 1.383 . S
C73 C71 1.365 . S
C73 H82 0.931 . S
C74 C69 1.370 . S
C74 C70 1.395 . S
C74 H83 0.930 . S
C75 Gd11 2.805 . S
C75 O51 1.263 . S
C75 O52 1.252 . S
C75 C69 1.500 . S
H76 C59 0.929 1_556 S
H77 C60 0.930 1_556 S
H78 C61 0.931 . S
H79 C62 0.930 . S
H80 C71 0.929 . S
H81 C72 0.930 . S
H82 C73 0.931 . S
H83 C74 0.930 . S
C84 C86 1.422 . S
C84 C88 1.415 1_554 S
C84 N90 1.369 1_554 S
C85 C86 1.421 . S
C85 C87 1.417 . S
C85 C97 1.422 . S
C86 C84 1.422 . S
C86 C85 1.421 . S
C86 N96 1.359 . S
C87 C85 1.417 . S
C87 C89 1.329 1_554 S
C87 H106 0.930 1_655 S
C88 C84 1.415 1_556 S
C88 C89 1.437 . S
C88 C92 1.413 . S
C89 C87 1.329 1_556 S
C89 C88 1.437 . S
C89 H111 0.929 . S
N90 C84 1.369 1_556 S
N90 C91 1.338 . S
N90 Gd95 2.622 1_556 S
C91 N90 1.338 . S
C91 C93 1.378 . S
C91 H103 0.929 . S
C92 C88 1.413 . S
C92 C93 1.348 . S
C92 H108 0.931 . S
C93 C91 1.378 . S
C93 C92 1.348 . S
C93 H109 0.930 . S
Gd94 N114 2.622 . S
Gd94 N121 2.570 . S
Gd94 O128 2.353 . S
Gd94 O129 2.468 . S
Gd94 O130 2.427 . S
Gd94 O132 2.388 . S
Gd94 O133 2.386 . S
Gd94 O137 2.307 . S
Gd94 C147 2.805 . S
Gd95 N90 2.622 1_554 S
Gd95 N96 2.570 . S
Gd95 O127 2.386 . S
Gd95 O131 2.307 . S
Gd95 O134 2.353 . S
Gd95 O135 2.468 . S
Gd95 O136 2.427 . S
Gd95 O138 2.388 1_554 S
Gd95 C159 2.805 . S
N96 C86 1.359 . S
N96 Gd95 2.570 . S
N96 C98 1.343 . S
C97 C85 1.422 . S
C97 C99 1.321 . S
C97 H105 0.931 . S
C98 N96 1.343 . S
C98 C99 1.390 . S
C98 H100 0.931 . S
C99 C97 1.321 . S
C99 C98 1.390 . S
C99 H101 0.930 . S
H100 C98 0.931 . S
H101 C99 0.930 . S
H102 C125 0.931 . S
H103 C91 0.929 . S
H104 C126 0.930 . S
H105 C97 0.931 . S
H106 C87 0.930 1_455 S
H107 C116 0.929 . S
H108 C92 0.931 . S
H109 C93 0.930 . S
H110 C148 0.930 . S
H111 C89 0.929 . S
H112 C117 0.931 . S
H113 C118 0.930 . S
N114 Gd94 2.622 . S
N114 C115 1.369 . S
N114 C116 1.338 . S
C115 N114 1.369 . S
C115 C119 1.415 . S
C115 C122 1.422 . S
C116 H107 0.929 . S
C116 N114 1.338 . S
C116 C118 1.378 . S
C117 H112 0.931 . S
C117 C118 1.348 . S
C117 C119 1.413 . S
C118 H113 0.930 . S
C118 C116 1.378 . S
C118 C117 1.348 . S
C119 C115 1.415 . S
C119 C117 1.413 . S
C119 C149 1.437 . S
H120 C149 0.929 . S
N121 Gd94 2.570 . S
N121 C122 1.359 . S
N121 C125 1.343 1_554 S
C122 C115 1.422 . S
C122 N121 1.359 . S
C122 C124 1.421 . S
C123 C124 1.422 1_556 S
C123 C126 1.321 . S
C123 H150 0.931 . S
C124 C122 1.421 . S
C124 C123 1.422 1_554 S
C124 C148 1.417 . S
C125 H102 0.931 . S
C125 N121 1.343 1_556 S
C125 C126 1.390 . S
C126 H104 0.930 . S
C126 C123 1.321 . S
C126 C125 1.390 . S
O127 Gd95 2.386 . S
O127 C139 1.265 . S
O128 Gd94 2.353 . S
O128 C139 1.242 . S
O129 Gd94 2.468 . S
O129 C147 1.263 . S
O130 Gd94 2.427 . S
O130 C147 1.252 . S
O131 Gd95 2.307 . S
O131 C140 1.261 . S
O132 Gd94 2.388 . S
O132 C140 1.252 . S
O133 Gd94 2.386 . S
O133 C151 1.265 . S
O134 Gd95 2.353 . S
O134 C151 1.242 . S
O135 Gd95 2.468 . S
O135 C159 1.263 . S
O136 Gd95 2.427 . S
O136 C159 1.252 . S
O137 Gd94 2.307 . S
O137 C152 1.261 1_554 S
O138 Gd95 2.388 1_556 S
O138 C152 1.252 . S
C139 O127 1.265 . S
C139 O128 1.242 . S
C140 O131 1.261 . S
C140 O132 1.252 . S
C141 C144 1.394 . S
C141 C146 1.370 . S
C141 C147 1.500 . S
C142 C145 1.383 . S
C142 C146 1.395 . S
C143 C144 1.396 . S
C143 C145 1.365 . S
C143 H160 0.929 . S
C144 C141 1.394 . S
C144 C143 1.396 . S
C144 H161 0.930 . S
C145 C142 1.383 . S
C145 C143 1.365 . S
C145 H162 0.931 . S
C146 C141 1.370 . S
C146 C142 1.395 . S
C146 H163 0.930 . S
C147 Gd94 2.805 . S
C147 O129 1.263 . S
C147 O130 1.252 . S
C147 C141 1.500 . S
C148 H110 0.930 . S
C148 C124 1.417 . S
C148 C149 1.329 . S
C149 C119 1.437 . S
C149 H120 0.929 . S
C149 C148 1.329 . S
H150 C123 0.931 . S
C151 O133 1.265 . S
C151 O134 1.242 . S
C152 O137 1.261 1_556 S
C152 O138 1.252 . S
C153 C156 1.394 1_554 S
C153 C158 1.370 . S
C153 C159 1.500 . S
C154 C157 1.383 . S
C154 C158 1.395 . S
C155 C156 1.396 . S
C155 C157 1.365 1_556 S
C155 H164 0.929 . S
C156 C153 1.394 1_556 S
C156 C155 1.396 . S
C156 H165 0.930 . S
C157 C154 1.383 . S
C157 C155 1.365 1_554 S
C157 H166 0.931 . S
C158 C153 1.370 . S
C158 C154 1.395 . S
C158 H167 0.930 . S
C159 Gd95 2.805 . S
C159 O135 1.263 . S
C159 O136 1.252 . S
C159 C153 1.500 . S
H160 C143 0.929 . S
H161 C144 0.930 . S
H162 C145 0.931 . S
H163 C146 0.930 . S
H164 C155 0.929 . S
H165 C156 0.930 . S
H166 C157 0.931 . S
H167 C158 0.930 . S
C168 C170 1.422 1_554 S
C168 C172 1.415 . S
C168 N174 1.369 . S
C169 C170 1.421 . S
C169 C171 1.417 . S
C169 C181 1.422 . S
C170 C168 1.422 1_556 S
C170 C169 1.421 . S
C170 N180 1.359 . S
C171 C169 1.417 . S
C171 C173 1.329 1_556 S
C171 H190 0.930 . S
C172 C168 1.415 . S
C172 C173 1.437 . S
C172 C176 1.413 . S
C173 C171 1.329 1_554 S
C173 C172 1.437 . S
C173 H195 0.929 . S
N174 C168 1.369 . S
N174 C175 1.338 . S
N174 Gd179 2.622 . S
C175 N174 1.338 . S
C175 C177 1.378 . S
C175 H187 0.929 . S
C176 C172 1.413 . S
C176 C177 1.348 . S
C176 H192 0.931 . S
C177 C175 1.378 . S
C177 C176 1.348 . S
C177 H193 0.930 . S
Gd178 N198 2.622 . S
Gd178 N205 2.570 1_556 S
Gd178 O212 2.353 . S
Gd178 O213 2.468 1_556 S
Gd178 O214 2.427 . S
Gd178 O216 2.388 . S
Gd178 O217 2.386 . S
Gd178 O221 2.307 1_556 S
Gd178 C231 2.805 1_556 S
Gd179 N174 2.622 . S
Gd179 N180 2.570 1_554 S
Gd179 O211 2.386 . S
Gd179 O215 2.307 1_554 S
Gd179 O218 2.353 1_565 S
Gd179 O219 2.468 1_554 S
Gd179 O220 2.427 . S
Gd179 O222 2.388 1_565 S
Gd179 C243 2.803 1_554 S
N180 C170 1.359 . S
N180 Gd179 2.570 1_556 S
N180 C182 1.343 . S
C181 C169 1.422 . S
C181 C183 1.321 . S
C181 H189 0.931 . S
C182 N180 1.343 . S
C182 C183 1.390 . S
C182 H184 0.931 . S
C183 C181 1.321 . S
C183 C182 1.390 . S
C183 H185 0.930 . S
H184 C182 0.931 . S
H185 C183 0.930 . S
H186 C209 0.931 . S
H187 C175 0.929 . S
H188 C210 0.930 . S
H189 C181 0.931 . S
H190 C171 0.930 . S
H191 C200 0.929 . S
H192 C176 0.931 . S
H193 C177 0.930 . S
H194 C232 0.930 . S
H195 C173 0.929 . S
H196 C201 0.931 . S
H197 C202 0.930 . S
N198 Gd178 2.622 . S
N198 C199 1.369 . S
N198 C200 1.338 . S
C199 N198 1.369 . S
C199 C203 1.415 . S
C199 C206 1.422 1_556 S
C200 H191 0.929 . S
C200 N198 1.338 . S
C200 C202 1.378 . S
C201 H196 0.931 . S
C201 C202 1.348 . S
C201 C203 1.413 . S
C202 H197 0.930 . S
C202 C200 1.378 . S
C202 C201 1.348 . S
C203 C199 1.415 . S
C203 C201 1.413 . S
C203 C233 1.437 . S
H204 C233 0.929 . S
N205 Gd178 2.570 1_554 S
N205 C206 1.359 . S
N205 C209 1.343 . S
C206 C199 1.422 1_554 S
C206 N205 1.359 . S
C206 C208 1.421 . S
C207 C208 1.422 . S
C207 C210 1.321 . S
C207 H234 0.931 . S
C208 C206 1.421 . S
C208 C207 1.422 . S
C208 C232 1.417 . S
C209 H186 0.931 . S
C209 N205 1.343 . S
C209 C210 1.390 . S
C210 H188 0.930 . S
C210 C207 1.321 . S
C210 C209 1.390 . S
O211 Gd179 2.386 . S
O211 C223 1.265 1_554 S
O212 Gd178 2.353 . S
O212 C223 1.242 1_545 S
O213 Gd178 2.468 1_554 S
O213 C231 1.263 . S
O214 Gd178 2.427 . S
O214 C231 1.252 1_556 S
O215 Gd179 2.307 1_556 S
O215 C224 1.261 1_565 S
O216 Gd178 2.388 . S
O216 C224 1.252 . S
O217 Gd178 2.386 . S
O217 C235 1.265 1_556 S
O218 Gd179 2.353 1_545 S
O218 C235 1.242 . S
O219 Gd179 2.468 1_556 S
O219 C243 1.271 . S
O220 Gd179 2.427 . S
O220 C243 1.242 1_554 S
O221 Gd178 2.307 1_554 S
O221 C236 1.261 . S
O222 Gd179 2.388 1_545 S
O222 C236 1.252 . S
C223 O211 1.265 1_556 S
C223 O212 1.242 1_565 S
C224 O215 1.261 1_545 S
C224 O216 1.252 . S
C225 C228 1.394 1_554 S
C225 C230 1.370 . S
C225 C231 1.500 . S
C226 C229 1.383 . S
C226 C230 1.395 . S
C227 C228 1.396 . S
C227 C229 1.365 1_556 S
C227 H244 0.929 . S
C228 C225 1.394 1_556 S
C228 C227 1.396 . S
C228 H245 0.930 . S
C229 C226 1.383 . S
C229 C227 1.365 1_554 S
C229 H246 0.931 . S
C230 C225 1.370 . S
C230 C226 1.395 . S
C230 H247 0.930 . S
C231 Gd178 2.805 1_554 S
C231 O213 1.263 . S
C231 O214 1.252 1_554 S
C231 C225 1.500 . S
C232 H194 0.930 . S
C232 C208 1.417 . S
C232 C233 1.329 1_554 S
C233 C203 1.437 . S
C233 H204 0.929 . S
C233 C232 1.329 1_556 S
H234 C207 0.931 . S
C235 O217 1.265 1_554 S
C235 O218 1.242 . S
C236 O221 1.261 . S
C236 O222 1.252 . S
C237 C240 1.394 1_556 S
C237 C242 1.370 . S
C237 C243 1.502 . S
C238 C241 1.383 . S
C238 C242 1.395 . S
C239 C240 1.396 . S
C239 C241 1.365 1_554 S
C239 H248 0.929 . S
C240 C237 1.394 1_554 S
C240 C239 1.396 . S
C240 H249 0.930 . S
C241 C238 1.383 . S
C241 C239 1.365 1_556 S
C241 H250 0.931 . S
C242 C237 1.370 . S
C242 C238 1.395 . S
C242 H251 0.930 . S
C243 Gd179 2.803 1_556 S
C243 O219 1.271 . S
C243 O220 1.242 1_556 S
C243 C237 1.502 . S
H244 C227 0.929 . S
H245 C228 0.930 . S
H246 C229 0.931 . S
H247 C230 0.930 . S
H248 C239 0.929 . S
H249 C240 0.930 . S
H250 C241 0.931 . S
H251 C242 0.930 . S
C252 C254 1.422 . S
C252 C256 1.415 1_554 S
C252 N258 1.369 1_554 S
C253 C254 1.421 . S
C253 C255 1.417 . S
C253 C265 1.422 . S
C254 C252 1.422 . S
C254 C253 1.421 . S
C254 N264 1.359 . S
C255 C253 1.417 . S
C255 C257 1.329 1_554 S
C255 H274 0.930 . S
C256 C252 1.415 1_556 S
C256 C257 1.437 . S
C256 C260 1.413 . S
C257 C255 1.329 1_556 S
C257 C256 1.437 . S
C257 H279 0.929 . S
N258 C252 1.369 1_556 S
N258 C259 1.338 . S
N258 Gd263 2.622 1_556 S
C259 N258 1.338 . S
C259 C261 1.378 . S
C259 H271 0.929 . S
C260 C256 1.413 . S
C260 C261 1.348 . S
C260 H276 0.931 . S
C261 C259 1.378 . S
C261 C260 1.348 . S
C261 H277 0.930 . S
Gd262 N282 2.622 . S
Gd262 N289 2.570 . S
Gd262 O296 2.353 . S
Gd262 O297 2.468 . S
Gd262 O298 2.427 . S
Gd262 O300 2.388 . S
Gd262 O301 2.386 . S
Gd262 O305 2.307 . S
Gd262 C315 2.805 . S
Gd263 N258 2.622 1_554 S
Gd263 N264 2.570 . S
Gd263 O295 2.386 . S
Gd263 O299 2.307 . S
Gd263 O302 2.353 . S
Gd263 O303 2.468 . S
Gd263 O304 2.427 . S
Gd263 O306 2.388 1_554 S
Gd263 C327 2.805 . S
N264 C254 1.359 . S
N264 Gd263 2.570 . S
N264 C266 1.343 . S
C265 C253 1.422 . S
C265 C267 1.321 . S
C265 H273 0.931 . S
C266 N264 1.343 . S
C266 C267 1.390 . S
C266 H268 0.931 . S
C267 C265 1.321 . S
C267 C266 1.390 . S
C267 H269 0.930 . S
H268 C266 0.931 . S
H269 C267 0.930 . S
H270 C293 0.931 . S
H271 C259 0.929 . S
H272 C294 0.930 1_556 S
H273 C265 0.931 . S
H274 C255 0.930 . S
H275 C284 0.929 . S
H276 C260 0.931 . S
H277 C261 0.930 . S
H278 C316 0.930 . S
H279 C257 0.929 . S
H280 C285 0.931 . S
H281 C286 0.930 . S
N282 Gd262 2.622 . S
N282 C283 1.369 . S
N282 C284 1.338 . S
C283 N282 1.369 . S
C283 C287 1.415 . S
C283 C290 1.422 . S
C284 H275 0.929 . S
C284 N282 1.338 . S
C284 C286 1.378 . S
C285 H280 0.931 . S
C285 C286 1.348 . S
C285 C287 1.413 . S
C286 H281 0.930 . S
C286 C284 1.378 . S
C286 C285 1.348 . S
C287 C283 1.415 . S
C287 C285 1.413 . S
C287 C317 1.437 . S
H288 C317 0.929 . S
N289 Gd262 2.570 . S
N289 C290 1.359 . S
N289 C293 1.343 . S
C290 C283 1.422 . S
C290 N289 1.359 . S
C290 C292 1.421 . S
C291 C292 1.422 . S
C291 C294 1.321 . S
C291 H318 0.931 . S
C292 C290 1.421 . S
C292 C291 1.422 . S
C292 C316 1.417 . S
C293 H270 0.931 . S
C293 N289 1.343 . S
C293 C294 1.390 . S
C294 H272 0.930 1_554 S
C294 C291 1.321 . S
C294 C293 1.390 . S
O295 Gd263 2.386 . S
O295 C307 1.265 . S
O296 Gd262 2.353 . S
O296 C307 1.242 . S
O297 Gd262 2.468 . S
O297 C315 1.263 . S
O298 Gd262 2.427 . S
O298 C315 1.252 . S
O299 Gd263 2.307 . S
O299 C308 1.261 . S
O300 Gd262 2.388 . S
O300 C308 1.252 . S
O301 Gd262 2.386 . S
O301 C319 1.265 . S
O302 Gd263 2.353 . S
O302 C319 1.242 . S
O303 Gd263 2.468 . S
O303 C327 1.263 . S
O304 Gd263 2.427 . S
O304 C327 1.252 . S
O305 Gd262 2.307 . S
O305 C320 1.261 1_554 S
O306 Gd263 2.388 1_556 S
O306 C320 1.252 . S
C307 O295 1.265 . S
C307 O296 1.242 . S
C308 O299 1.261 . S
C308 O300 1.252 . S
C309 C312 1.394 . S
C309 C314 1.370 . S
C309 C315 1.500 . S
C310 C313 1.383 . S
C310 C314 1.395 . S
C311 C312 1.396 . S
C311 C313 1.365 . S
C311 H328 0.929 . S
C312 C309 1.394 . S
C312 C311 1.396 . S
C312 H329 0.930 . S
C313 C310 1.383 . S
C313 C311 1.365 . S
C313 H330 0.931 . S
C314 C309 1.370 . S
C314 C310 1.395 . S
C314 H331 0.930 1_554 S
C315 Gd262 2.805 . S
C315 O297 1.263 . S
C315 O298 1.252 . S
C315 C309 1.500 . S
C316 H278 0.930 . S
C316 C292 1.417 . S
C316 C317 1.329 . S
C317 C287 1.437 . S
C317 H288 0.929 . S
C317 C316 1.329 . S
H318 C291 0.931 . S
C319 O301 1.265 . S
C319 O302 1.242 . S
C320 O305 1.261 1_556 S
C320 O306 1.252 . S
C321 C324 1.394 . S
C321 C326 1.370 . S
C321 C327 1.500 . S
C322 C325 1.383 . S
C322 C326 1.395 . S
C323 C324 1.396 . S
C323 C325 1.365 . S
C323 H332 0.929 . S
C324 C321 1.394 . S
C324 C323 1.396 . S
C324 H333 0.930 . S
C325 C322 1.383 . S
C325 C323 1.365 . S
C325 H334 0.931 . S
C326 C321 1.370 . S
C326 C322 1.395 . S
C326 H335 0.930 . S
C327 Gd263 2.805 . S
C327 O303 1.263 . S
C327 O304 1.252 . S
C327 C321 1.500 . S
H328 C311 0.929 . S
H329 C312 0.930 . S
H330 C313 0.931 . S
H331 C314 0.930 1_556 S
H332 C323 0.929 . S
H333 C324 0.930 . S
H334 C325 0.931 . S
H335 C326 0.930 . S
C336 C338 1.422 1_556 S
C336 C340 1.415 . S
C336 N342 1.369 . S
C337 C338 1.421 . S
C337 C339 1.417 . S
C337 C349 1.422 . S
C338 C336 1.422 1_554 S
C338 C337 1.421 . S
C338 N348 1.359 . S
C339 C337 1.417 . S
C339 C341 1.329 1_554 S
C339 H358 0.930 . S
C340 C336 1.415 . S
C340 C341 1.437 . S
C340 C344 1.413 . S
C341 C339 1.329 1_556 S
C341 C340 1.437 . S
C341 H363 0.929 . S
N342 C336 1.369 . S
N342 C343 1.338 . S
N342 Gd347 2.622 1_556 S
C343 N342 1.338 . S
C343 C345 1.378 . S
C343 H355 0.929 . S
C344 C340 1.413 . S
C344 C345 1.348 . S
C344 H360 0.931 . S
C345 C343 1.378 . S
C345 C344 1.348 . S
C345 H361 0.930 . S
Gd346 N366 2.622 . S
Gd346 N373 2.570 . S
Gd346 O380 2.353 . S
Gd346 O381 2.468 . S
Gd346 O382 2.427 . S
Gd346 O384 2.388 . S
Gd346 O385 2.386 . S
Gd346 O389 2.307 1_554 S
Gd346 C399 2.805 . S
Gd347 N342 2.622 1_554 S
Gd347 N348 2.570 . S
Gd347 O379 2.386 . S
Gd347 O383 2.307 . S
Gd347 O386 2.353 . S
Gd347 O387 2.468 . S
Gd347 O388 2.427 1_554 S
Gd347 O390 2.388 1_554 S
Gd347 C411 2.805 . S
N348 C338 1.359 . S
N348 Gd347 2.570 . S
N348 C350 1.343 . S
C349 C337 1.422 . S
C349 C351 1.321 . S
C349 H357 0.931 . S
C350 N348 1.343 . S
C350 C351 1.390 . S
C350 H352 0.931 . S
C351 C349 1.321 . S
C351 C350 1.390 . S
C351 H353 0.930 . S
H352 C350 0.931 . S
H353 C351 0.930 . S
H354 C377 0.931 . S
H355 C343 0.929 . S
H356 C378 0.930 . S
H357 C349 0.931 . S
H358 C339 0.930 . S
H359 C368 0.929 . S
H360 C344 0.931 . S
H361 C345 0.930 . S
H362 C400 0.930 . S
H363 C341 0.929 . S
H364 C369 0.931 . S
H365 C370 0.930 . S
N366 Gd346 2.622 . S
N366 C367 1.369 . S
N366 C368 1.338 . S
C367 N366 1.369 . S
C367 C371 1.415 . S
C367 C374 1.422 . S
C368 H359 0.929 . S
C368 N366 1.338 . S
C368 C370 1.378 . S
C369 H364 0.931 . S
C369 C370 1.348 . S
C369 C371 1.413 . S
C370 H365 0.930 . S
C370 C368 1.378 . S
C370 C369 1.348 . S
C371 C367 1.415 . S
C371 C369 1.413 . S
C371 C401 1.437 . S
H372 C401 0.929 . S
N373 Gd346 2.570 . S
N373 C374 1.359 . S
N373 C377 1.343 1_554 S
C374 C367 1.422 . S
C374 N373 1.359 . S
C374 C376 1.421 . S
C375 C376 1.422 1_556 S
C375 C378 1.321 . S
C375 H402 0.931 . S
C376 C374 1.421 . S
C376 C375 1.422 1_554 S
C376 C400 1.417 . S
C377 H354 0.931 . S
C377 N373 1.343 1_556 S
C377 C378 1.390 . S
C378 H356 0.930 . S
C378 C375 1.321 . S
C378 C377 1.390 . S
O379 Gd347 2.386 . S
O379 C391 1.265 . S
O380 Gd346 2.353 . S
O380 C391 1.242 . S
O381 Gd346 2.468 . S
O381 C399 1.263 . S
O382 Gd346 2.427 . S
O382 C399 1.252 . S
O383 Gd347 2.307 . S
O383 C392 1.261 . S
O384 Gd346 2.388 . S
O384 C392 1.252 . S
O385 Gd346 2.386 . S
O385 C403 1.265 . S
O386 Gd347 2.353 . S
O386 C403 1.242 . S
O387 Gd347 2.468 . S
O387 C411 1.263 . S
O388 Gd347 2.427 1_556 S
O388 C411 1.252 1_556 S
O389 Gd346 2.307 1_556 S
O389 C404 1.261 . S
O390 Gd347 2.388 1_556 S
O390 C404 1.252 . S
C391 O379 1.265 . S
C391 O380 1.242 . S
C392 O383 1.261 . S
C392 O384 1.252 . S
C393 C396 1.394 . S
C393 C398 1.370 1_554 S
C393 C399 1.500 . S
C394 C397 1.383 1_556 S
C394 C398 1.395 . S
C395 C396 1.396 . S
C395 C397 1.365 . S
C395 H412 0.929 . S
C396 C393 1.394 . S
C396 C395 1.396 . S
C396 H413 0.930 . S
C397 C394 1.383 1_554 S
C397 C395 1.365 . S
C397 H414 0.931 . S
C398 C393 1.370 1_556 S
C398 C394 1.395 . S
C398 H415 0.930 . S
C399 Gd346 2.805 . S
C399 O381 1.263 . S
C399 O382 1.252 . S
C399 C393 1.500 . S
C400 H362 0.930 . S
C400 C376 1.417 . S
C400 C401 1.329 . S
C401 C371 1.437 . S
C401 H372 0.929 . S
C401 C400 1.329 . S
H402 C375 0.931 . S
C403 O385 1.265 . S
C403 O386 1.242 . S
C404 O389 1.261 . S
C404 O390 1.252 . S
C405 C408 1.394 1_554 S
C405 C410 1.370 . S
C405 C411 1.500 . S
C406 C409 1.383 . S
C406 C410 1.395 . S
C407 C408 1.396 . S
C407 C409 1.365 1_556 S
C407 H416 0.929 . S
C408 C405 1.394 1_556 S
C408 C407 1.396 . S
C408 H417 0.930 . S
C409 C406 1.383 . S
C409 C407 1.365 1_554 S
C409 H418 0.931 . S
C410 C405 1.370 . S
C410 C406 1.395 . S
C410 H419 0.930 . S
C411 Gd347 2.805 . S
C411 O387 1.263 . S
C411 O388 1.252 1_554 S
C411 C405 1.500 . S
H412 C395 0.929 . S
H413 C396 0.930 . S
H414 C397 0.931 . S
H415 C398 0.930 . S
H416 C407 0.929 . S
H417 C408 0.930 . S
H418 C409 0.931 . S
H419 C410 0.930 . S
C420 C422 1.422 . S
C420 C424 1.415 . S
C420 N426 1.369 . S
C421 C422 1.421 . S
C421 C423 1.417 . S
C421 C433 1.422 . S
C422 C420 1.422 . S
C422 C421 1.421 . S
C422 N432 1.359 . S
C423 C421 1.417 . S
C423 C425 1.329 . S
C423 H442 0.930 . S
C424 C420 1.415 . S
C424 C425 1.437 . S
C424 C428 1.413 . S
C425 C423 1.329 . S
C425 C424 1.437 . S
C425 H447 0.929 . S
N426 C420 1.369 . S
N426 C427 1.338 . S
N426 Gd431 2.622 . S
C427 N426 1.338 . S
C427 C429 1.378 1_554 S
C427 H439 0.929 1_554 S
C428 C424 1.413 . S
C428 C429 1.348 1_554 S
C428 H444 0.931 1_554 S
C429 C427 1.378 1_556 S
C429 C428 1.348 1_556 S
C429 H445 0.930 . S
Gd430 N450 2.622 . S
Gd430 N457 2.570 . S
Gd430 O464 2.353 . S
Gd430 O465 2.468 . S
Gd430 O466 2.427 . S
Gd430 O468 2.388 . S
Gd430 O469 2.386 . S
Gd430 O473 2.307 . S
Gd430 C483 2.805 . S
Gd431 N426 2.622 . S
Gd431 N432 2.570 . S
Gd431 O463 2.386 . S
Gd431 O467 2.307 . S
Gd431 O470 2.353 . S
Gd431 O471 2.468 . S
Gd431 O472 2.427 . S
Gd431 O474 2.388 . S
Gd431 C495 2.805 . S
N432 C422 1.359 . S
N432 Gd431 2.570 . S
N432 C434 1.343 . S
C433 C421 1.422 . S
C433 C435 1.321 . S
C433 H441 0.931 . S
C434 N432 1.343 . S
C434 C435 1.390 . S
C434 H436 0.931 . S
C435 C433 1.321 . S
C435 C434 1.390 . S
C435 H437 0.930 . S
H436 C434 0.931 . S
H437 C435 0.930 . S
H438 C461 0.931 1_556 S
H439 C427 0.929 1_556 S
H440 C462 0.930 . S
H441 C433 0.931 . S
H442 C423 0.930 . S
H443 C452 0.929 . S
H444 C428 0.931 1_556 S
H445 C429 0.930 . S
H446 C484 0.930 . S
H447 C425 0.929 . S
H448 C453 0.931 . S
H449 C454 0.930 . S
N450 Gd430 2.622 . S
N450 C451 1.369 . S
N450 C452 1.338 . S
C451 N450 1.369 . S
C451 C455 1.415 . S
C451 C458 1.422 . S
C452 H443 0.929 . S
C452 N450 1.338 . S
C452 C454 1.378 . S
C453 H448 0.931 . S
C453 C454 1.348 . S
C453 C455 1.413 . S
C454 H449 0.930 . S
C454 C452 1.378 . S
C454 C453 1.348 . S
C455 C451 1.415 . S
C455 C453 1.413 . S
C455 C485 1.437 . S
H456 C485 0.929 . S
N457 Gd430 2.570 . S
N457 C458 1.359 . S
N457 C461 1.343 . S
C458 C451 1.422 . S
C458 N457 1.359 . S
C458 C460 1.421 . S
C459 C460 1.422 . S
C459 C462 1.321 1_554 S
C459 H486 0.931 1_554 S
C460 C458 1.421 . S
C460 C459 1.422 . S
C460 C484 1.417 . S
C461 H438 0.931 1_554 S
C461 N457 1.343 . S
C461 C462 1.390 1_554 S
C462 H440 0.930 . S
C462 C459 1.321 1_556 S
C462 C461 1.390 1_556 S
O463 Gd431 2.386 . S
O463 C475 1.265 . S
O464 Gd430 2.353 . S
O464 C475 1.242 . S
O465 Gd430 2.468 . S
O465 C483 1.263 . S
O466 Gd430 2.427 . S
O466 C483 1.252 . S
O467 Gd431 2.307 . S
O467 C476 1.261 . S
O468 Gd430 2.388 . S
O468 C476 1.252 . S
O469 Gd430 2.386 . S
O469 C487 1.265 . S
O470 Gd431 2.353 . S
O470 C487 1.242 . S
O471 Gd431 2.468 . S
O471 C495 1.263 . S
O472 Gd431 2.427 . S
O472 C495 1.252 . S
O473 Gd430 2.307 . S
O473 C488 1.261 . S
O474 Gd431 2.388 . S
O474 C488 1.252 . S
C475 O463 1.265 . S
C475 O464 1.242 . S
C476 O467 1.261 . S
C476 O468 1.252 . S
C477 C480 1.394 . S
C477 C482 1.370 . S
C477 C483 1.500 . S
C478 C481 1.383 1_556 S
C478 C482 1.395 1_556 S
C479 C480 1.396 . S
C479 C481 1.365 . S
C479 H496 0.929 . S
C480 C477 1.394 . S
C480 C479 1.396 . S
C480 H497 0.930 . S
C481 C478 1.383 1_554 S
C481 C479 1.365 . S
C481 H498 0.931 . S
C482 C477 1.370 . S
C482 C478 1.395 1_554 S
C482 H499 0.930 1_554 S
C483 Gd430 2.805 . S
C483 O465 1.263 . S
C483 O466 1.252 . S
C483 C477 1.500 . S
C484 H446 0.930 . S
C484 C460 1.417 . S
C484 C485 1.329 . S
C485 C455 1.437 . S
C485 H456 0.929 . S
C485 C484 1.329 . S
H486 C459 0.931 1_556 S
C487 O469 1.265 . S
C487 O470 1.242 . S
C488 O473 1.261 . S
C488 O474 1.252 . S
C489 C492 1.394 . S
C489 C494 1.370 . S
C489 C495 1.500 1_455 S
C490 C493 1.383 . S
C490 C494 1.395 . S
C491 C492 1.396 . S
C491 C493 1.365 . S
C491 H500 0.929 . S
C492 C489 1.394 . S
C492 C491 1.396 . S
C492 H501 0.930 . S
C493 C490 1.383 . S
C493 C491 1.365 . S
C493 H502 0.931 . S
C494 C489 1.370 . S
C494 C490 1.395 . S
C494 H503 0.930 . S
C495 Gd431 2.805 . S
C495 O471 1.263 . S
C495 O472 1.252 . S
C495 C489 1.500 1_655 S
H496 C479 0.929 . S
H497 C480 0.930 . S
H498 C481 0.931 . S
H499 C482 0.930 1_556 S
H500 C491 0.929 . S
H501 C492 0.930 . S
H502 C493 0.931 . S
H503 C494 0.930 . S
C504 C506 1.422 . S
C504 C508 1.415 . S
C504 N510 1.369 . S
C505 C506 1.421 . S
C505 C507 1.417 . S
C505 C517 1.422 . S
C506 C504 1.422 . S
C506 C505 1.421 . S
C506 N516 1.359 . S
C507 C505 1.417 . S
C507 C509 1.329 . S
C507 H526 0.930 . S
C508 C504 1.415 . S
C508 C509 1.437 . S
C508 C512 1.413 1_556 S
C509 C507 1.329 . S
C509 C508 1.437 . S
C509 H531 0.929 . S
N510 C504 1.369 . S
N510 C511 1.338 . S
N510 Gd515 2.622 . S
C511 N510 1.338 . S
C511 C513 1.378 1_556 S
C511 H523 0.929 1_556 S
C512 C508 1.413 1_554 S
C512 C513 1.348 . S
C512 H528 0.931 . S
C513 C511 1.378 1_554 S
C513 C512 1.348 . S
C513 H529 0.930 . S
Gd514 N534 2.622 . S
Gd514 N541 2.570 . S
Gd514 O548 2.353 . S
Gd514 O549 2.468 . S
Gd514 O550 2.427 . S
Gd514 O552 2.388 . S
Gd514 O553 2.386 . S
Gd514 O557 2.307 . S
Gd514 C567 2.805 . S
Gd515 N510 2.622 . S
Gd515 N516 2.570 . S
Gd515 O547 2.386 . S
Gd515 O551 2.307 . S
Gd515 O554 2.353 . S
Gd515 O555 2.468 . S
Gd515 O556 2.427 . S
Gd515 O558 2.388 . S
Gd515 C579 2.805 . S
N516 C506 1.359 . S
N516 Gd515 2.570 . S
N516 C518 1.343 . S
C517 C505 1.422 . S
C517 C519 1.321 . S
C517 H525 0.931 . S
C518 N516 1.343 . S
C518 C519 1.390 . S
C518 H520 0.931 . S
C519 C517 1.321 . S
C519 C518 1.390 . S
C519 H521 0.930 . S
H520 C518 0.931 . S
H521 C519 0.930 . S
H522 C545 0.931 . S
H523 C511 0.929 1_554 S
H524 C546 0.930 . S
H525 C517 0.931 . S
H526 C507 0.930 . S
H527 C536 0.929 . S
H528 C512 0.931 . S
H529 C513 0.930 . S
H530 C568 0.930 . S
H531 C509 0.929 . S
H532 C537 0.931 . S
H533 C538 0.930 . S
N534 Gd514 2.622 . S
N534 C535 1.369 . S
N534 C536 1.338 . S
C535 N534 1.369 . S
C535 C539 1.415 . S
C535 C542 1.422 . S
C536 H527 0.929 . S
C536 N534 1.338 . S
C536 C538 1.378 . S
C537 H532 0.931 . S
C537 C538 1.348 . S
C537 C539 1.413 . S
C538 H533 0.930 . S
C538 C536 1.378 . S
C538 C537 1.348 . S
C539 C535 1.415 . S
C539 C537 1.413 . S
C539 C569 1.437 . S
H540 C569 0.929 . S
N541 Gd514 2.570 . S
N541 C542 1.359 . S
N541 C545 1.343 . S
C542 C535 1.422 . S
C542 N541 1.359 . S
C542 C544 1.421 . S
C543 C544 1.422 . S
C543 C546 1.321 . S
C543 H570 0.931 . S
C544 C542 1.421 . S
C544 C543 1.422 . S
C544 C568 1.417 . S
C545 H522 0.931 . S
C545 N541 1.343 . S
C545 C546 1.390 . S
C546 H524 0.930 . S
C546 C543 1.321 . S
C546 C545 1.390 . S
O547 Gd515 2.386 . S
O547 C559 1.265 . S
O548 Gd514 2.353 . S
O548 C559 1.242 . S
O549 Gd514 2.468 . S
O549 C567 1.263 . S
O550 Gd514 2.427 . S
O550 C567 1.252 . S
O551 Gd515 2.307 . S
O551 C560 1.261 . S
O552 Gd514 2.388 . S
O552 C560 1.252 . S
O553 Gd514 2.386 . S
O553 C571 1.265 . S
O554 Gd515 2.353 . S
O554 C571 1.242 . S
O555 Gd515 2.468 . S
O555 C579 1.263 . S
O556 Gd515 2.427 . S
O556 C579 1.252 . S
O557 Gd514 2.307 . S
O557 C572 1.261 . S
O558 Gd515 2.388 . S
O558 C572 1.252 . S
C559 O547 1.265 . S
C559 O548 1.242 . S
C560 O551 1.261 . S
C560 O552 1.252 . S
C561 C564 1.394 . S
C561 C566 1.370 . S
C561 C567 1.500 . S
C562 C565 1.383 . S
C562 C566 1.395 . S
C563 C564 1.396 . S
C563 C565 1.365 . S
C563 H580 0.929 . S
C564 C561 1.394 . S
C564 C563 1.396 . S
C564 H581 0.930 . S
C565 C562 1.383 . S
C565 C563 1.365 . S
C565 H582 0.931 . S
C566 C561 1.370 . S
C566 C562 1.395 . S
C566 H583 0.930 . S
C567 Gd514 2.805 . S
C567 O549 1.263 . S
C567 O550 1.252 . S
C567 C561 1.500 . S
C568 H530 0.930 . S
C568 C544 1.417 . S
C568 C569 1.329 . S
C569 C539 1.437 . S
C569 H540 0.929 . S
C569 C568 1.329 . S
H570 C543 0.931 . S
C571 O553 1.265 . S
C571 O554 1.242 . S
C572 O557 1.261 . S
C572 O558 1.252 . S
C573 C576 1.394 . S
C573 C578 1.370 . S
C573 C579 1.500 . S
C574 C577 1.383 1_565 S
C574 C578 1.395 . S
C575 C576 1.395 . S
C575 C577 1.366 1_565 S
C575 H584 0.930 1_565 S
C576 C573 1.394 . S
C576 C575 1.395 . S
C576 H585 0.930 . S
C577 C574 1.383 1_545 S
C577 C575 1.366 1_545 S
C577 H586 0.931 . S
C578 C573 1.370 . S
C578 C574 1.395 . S
C578 H587 0.930 . S
C579 Gd515 2.805 . S
C579 O555 1.263 . S
C579 O556 1.252 . S
C579 C573 1.500 . S
H580 C563 0.929 . S
H581 C564 0.930 . S
H582 C565 0.931 . S
H583 C566 0.930 . S
H584 C575 0.930 1_545 S
H585 C576 0.930 . S
H586 C577 0.931 . S
H587 C578 0.930 . S
C588 C590 1.422 . S
C588 C592 1.415 . S
C588 N594 1.369 . S
C589 C590 1.421 . S
C589 C591 1.417 . S
C589 C601 1.422 1_556 S
C590 C588 1.422 . S
C590 C589 1.421 . S
C590 N600 1.359 . S
C591 C589 1.417 . S
C591 C593 1.329 . S
C591 H610 0.930 . S
C592 C588 1.415 . S
C592 C593 1.437 . S
C592 C596 1.413 . S
C593 C591 1.329 . S
C593 C592 1.437 . S
C593 H615 0.929 . S
N594 C588 1.369 . S
N594 C595 1.338 . S
N594 Gd599 2.622 . S
C595 N594 1.338 . S
C595 C597 1.378 . S
C595 H607 0.929 . S
C596 C592 1.413 . S
C596 C597 1.348 . S
C596 H612 0.931 . S
C597 C595 1.378 . S
C597 C596 1.348 . S
C597 H613 0.930 . S
Gd598 N618 2.622 . S
Gd598 N625 2.570 . S
Gd598 O632 2.353 . S
Gd598 O633 2.468 . S
Gd598 O634 2.427 . S
Gd598 O636 2.388 1_556 S
Gd598 O637 2.386 . S
Gd598 O641 2.307 . S
Gd598 C651 2.805 . S
Gd599 N594 2.622 . S
Gd599 N600 2.570 . S
Gd599 O631 2.386 . S
Gd599 O635 2.307 . S
Gd599 O638 2.353 . S
Gd599 O639 2.468 . S
Gd599 O640 2.427 . S
Gd599 O642 2.388 . S
Gd599 C663 2.805 . S
N600 C590 1.359 . S
N600 Gd599 2.570 . S
N600 C602 1.343 1_556 S
C601 C589 1.422 1_554 S
C601 C603 1.321 . S
C601 H609 0.931 . S
C602 N600 1.343 1_554 S
C602 C603 1.390 . S
C602 H604 0.931 . S
C603 C601 1.321 . S
C603 C602 1.390 . S
C603 H605 0.930 . S
H604 C602 0.931 . S
H605 C603 0.930 . S
H606 C629 0.931 . S
H607 C595 0.929 . S
H608 C630 0.930 . S
H609 C601 0.931 . S
H610 C591 0.930 . S
H611 C620 0.929 . S
H612 C596 0.931 . S
H613 C597 0.930 . S
H614 C652 0.930 . S
H615 C593 0.929 . S
H616 C621 0.931 . S
H617 C622 0.930 . S
N618 Gd598 2.622 . S
N618 C619 1.369 . S
N618 C620 1.338 1_556 S
C619 N618 1.369 . S
C619 C623 1.415 . S
C619 C626 1.422 . S
C620 H611 0.929 . S
C620 N618 1.338 1_554 S
C620 C622 1.378 . S
C621 H616 0.931 . S
C621 C622 1.348 . S
C621 C623 1.413 1_554 S
C622 H617 0.930 . S
C622 C620 1.378 . S
C622 C621 1.348 . S
C623 C619 1.415 . S
C623 C621 1.413 1_556 S
C623 C653 1.437 . S
H624 C653 0.929 . S
N625 Gd598 2.570 . S
N625 C626 1.359 . S
N625 C629 1.343 . S
C626 C619 1.422 . S
C626 N625 1.359 . S
C626 C628 1.421 . S
C627 C628 1.422 . S
C627 C630 1.321 . S
C627 H654 0.931 . S
C628 C626 1.421 . S
C628 C627 1.422 . S
C628 C652 1.417 . S
C629 H606 0.931 . S
C629 N625 1.343 . S
C629 C630 1.390 . S
C630 H608 0.930 . S
C630 C627 1.321 . S
C630 C629 1.390 . S
O631 Gd599 2.386 . S
O631 C643 1.265 . S
O632 Gd598 2.353 . S
O632 C643 1.242 . S
O633 Gd598 2.468 . S
O633 C651 1.263 . S
O634 Gd598 2.427 . S
O634 C651 1.252 . S
O635 Gd599 2.307 . S
O635 C644 1.261 1_556 S
O636 Gd598 2.388 1_554 S
O636 C644 1.252 . S
O637 Gd598 2.386 . S
O637 C655 1.265 . S
O638 Gd599 2.353 . S
O638 C655 1.242 . S
O639 Gd599 2.468 . S
O639 C663 1.263 . S
O640 Gd599 2.427 . S
O640 C663 1.252 . S
O641 Gd598 2.307 . S
O641 C656 1.261 . S
O642 Gd599 2.388 . S
O642 C656 1.252 . S
C643 O631 1.265 . S
C643 O632 1.242 . S
C644 O635 1.261 1_554 S
C644 O636 1.252 . S
C645 C648 1.394 . S
C645 C650 1.370 . S
C645 C651 1.500 . S
C646 C649 1.383 . S
C646 C650 1.395 . S
C647 C648 1.396 . S
C647 C649 1.365 . S
C647 H664 0.929 . S
C648 C645 1.394 . S
C648 C647 1.396 . S
C648 H665 0.930 . S
C649 C646 1.383 . S
C649 C647 1.365 . S
C649 H666 0.931 . S
C650 C645 1.370 . S
C650 C646 1.395 . S
C650 H667 0.930 . S
C651 Gd598 2.805 . S
C651 O633 1.263 . S
C651 O634 1.252 . S
C651 C645 1.500 . S
C652 H614 0.930 . S
C652 C628 1.417 . S
C652 C653 1.329 . S
C653 C623 1.437 . S
C653 H624 0.929 . S
C653 C652 1.329 . S
H654 C627 0.931 . S
C655 O637 1.265 . S
C655 O638 1.242 . S
C656 O641 1.261 . S
C656 O642 1.252 . S
C657 C660 1.394 . S
C657 C662 1.370 . S
C657 C663 1.500 . S
C658 C661 1.383 . S
C658 C662 1.395 . S
C659 C660 1.396 . S
C659 C661 1.365 . S
C659 H668 0.929 . S
C660 C657 1.394 . S
C660 C659 1.396 . S
C660 H669 0.930 . S
C661 C658 1.383 . S
C661 C659 1.365 . S
C661 H670 0.931 . S
C662 C657 1.370 . S
C662 C658 1.395 . S
C662 H671 0.930 . S
C663 Gd599 2.805 . S
C663 O639 1.263 . S
C663 O640 1.252 . S
C663 C657 1.500 . S
H664 C647 0.929 . S
H665 C648 0.930 . S
H666 C649 0.931 . S
H667 C650 0.930 . S
H668 C659 0.929 . S
H669 C660 0.930 . S
H670 C661 0.931 . S
H671 C662 0.930 . S
C672 C674 1.422 . S
C672 C676 1.415 . S
C672 N678 1.369 . S
C673 C674 1.421 . S
C673 C675 1.417 . S
C673 C685 1.422 . S
C674 C672 1.422 . S
C674 C673 1.421 . S
C674 N684 1.359 . S
C675 C673 1.417 . S
C675 C677 1.329 . S
C675 H694 0.930 . S
C676 C672 1.415 . S
C676 C677 1.437 . S
C676 C680 1.413 1_556 S
C677 C675 1.329 . S
C677 C676 1.437 . S
C677 H699 0.929 . S
N678 C672 1.369 . S
N678 C679 1.338 1_556 S
N678 Gd683 2.622 . S
C679 N678 1.338 1_554 S
C679 C681 1.378 . S
C679 H691 0.929 . S
C680 C676 1.413 1_554 S
C680 C681 1.348 . S
C680 H696 0.931 . S
C681 C679 1.378 . S
C681 C680 1.348 . S
C681 H697 0.930 . S
Gd682 N702 2.622 . S
Gd682 N709 2.570 . S
Gd682 O716 2.353 . S
Gd682 O717 2.468 . S
Gd682 O718 2.427 . S
Gd682 O720 2.388 . S
Gd682 O721 2.386 . S
Gd682 O725 2.307 . S
Gd682 C735 2.805 . S
Gd683 N678 2.622 . S
Gd683 N684 2.570 . S
Gd683 O715 2.386 . S
Gd683 O719 2.307 . S
Gd683 O722 2.353 . S
Gd683 O723 2.468 . S
Gd683 O724 2.427 . S
Gd683 O726 2.388 . S
Gd683 C747 2.805 . S
N684 C674 1.359 . S
N684 Gd683 2.570 . S
N684 C686 1.343 . S
C685 C673 1.422 . S
C685 C687 1.321 . S
C685 H693 0.931 . S
C686 N684 1.343 . S
C686 C687 1.390 . S
C686 H688 0.931 . S
C687 C685 1.321 . S
C687 C686 1.390 . S
C687 H689 0.930 . S
H688 C686 0.931 . S
H689 C687 0.930 . S
H690 C713 0.931 . S
H691 C679 0.929 . S
H692 C714 0.930 . S
H693 C685 0.931 . S
H694 C675 0.930 . S
H695 C704 0.929 . S
H696 C680 0.931 . S
H697 C681 0.930 . S
H698 C736 0.930 . S
H699 C677 0.929 . S
H700 C705 0.931 . S
H701 C706 0.930 . S
N702 Gd682 2.622 . S
N702 C703 1.369 . S
N702 C704 1.338 . S
C703 N702 1.369 . S
C703 C707 1.415 . S
C703 C710 1.422 . S
C704 H695 0.929 . S
C704 N702 1.338 . S
C704 C706 1.378 . S
C705 H700 0.931 . S
C705 C706 1.348 . S
C705 C707 1.413 . S
C706 H701 0.930 . S
C706 C704 1.378 . S
C706 C705 1.348 . S
C707 C703 1.415 . S
C707 C705 1.413 . S
C707 C737 1.437 . S
H708 C737 0.929 . S
N709 Gd682 2.570 . S
N709 C710 1.359 . S
N709 C713 1.343 1_556 S
C710 C703 1.422 . S
C710 N709 1.359 . S
C710 C712 1.421 . S
C711 C712 1.422 1_554 S
C711 C714 1.321 . S
C711 H738 0.931 . S
C712 C710 1.421 . S
C712 C711 1.422 1_556 S
C712 C736 1.417 . S
C713 H690 0.931 . S
C713 N709 1.343 1_554 S
C713 C714 1.390 . S
C714 H692 0.930 . S
C714 C711 1.321 . S
C714 C713 1.390 . S
O715 Gd683 2.386 . S
O715 C727 1.265 . S
O716 Gd682 2.353 . S
O716 C727 1.242 . S
O717 Gd682 2.468 . S
O717 C735 1.263 . S
O718 Gd682 2.427 . S
O718 C735 1.252 . S
O719 Gd683 2.307 . S
O719 C728 1.261 . S
O720 Gd682 2.388 . S
O720 C728 1.252 . S
O721 Gd682 2.386 . S
O721 C739 1.265 . S
O722 Gd683 2.353 . S
O722 C739 1.242 . S
O723 Gd683 2.468 . S
O723 C747 1.263 . S
O724 Gd683 2.427 . S
O724 C747 1.252 . S
O725 Gd682 2.307 . S
O725 C740 1.261 1_556 S
O726 Gd683 2.388 . S
O726 C740 1.252 1_556 S
C727 O715 1.265 . S
C727 O716 1.242 . S
C728 O719 1.261 . S
C728 O720 1.252 . S
C729 C732 1.394 . S
C729 C734 1.370 . S
C729 C735 1.500 . S
C730 C733 1.383 . S
C730 C734 1.395 . S
C731 C732 1.396 . S
C731 C733 1.365 . S
C731 H748 0.929 . S
C732 C729 1.394 . S
C732 C731 1.396 . S
C732 H749 0.930 . S
C733 C730 1.383 . S
C733 C731 1.365 . S
C733 H750 0.931 . S
C734 C729 1.370 . S
C734 C730 1.395 . S
C734 H751 0.930 1_556 S
C735 Gd682 2.805 . S
C735 O717 1.263 . S
C735 O718 1.252 . S
C735 C729 1.500 . S
C736 H698 0.930 . S
C736 C712 1.417 . S
C736 C737 1.329 . S
C737 C707 1.437 . S
C737 H708 0.929 . S
C737 C736 1.329 . S
H738 C711 0.931 . S
C739 O721 1.265 . S
C739 O722 1.242 . S
C740 O725 1.261 1_554 S
C740 O726 1.252 1_554 S
C741 C744 1.394 . S
C741 C746 1.370 . S
C741 C747 1.500 . S
C742 C745 1.383 . S
C742 C746 1.395 . S
C743 C744 1.396 . S
C743 C745 1.365 . S
C743 H752 0.929 . S
C744 C741 1.394 . S
C744 C743 1.396 . S
C744 H753 0.930 . S
C745 C742 1.383 . S
C745 C743 1.365 . S
C745 H754 0.931 . S
C746 C741 1.370 . S
C746 C742 1.395 . S
C746 H755 0.930 . S
C747 Gd683 2.805 . S
C747 O723 1.263 . S
C747 O724 1.252 . S
C747 C741 1.500 . S
H748 C731 0.929 . S
H749 C732 0.930 . S
H750 C733 0.931 . S
H751 C734 0.930 1_554 S
H752 C743 0.929 . S
H753 C744 0.930 . S
H754 C745 0.931 . S
H755 C746 0.930 . S
C756 C757 1.391 . S
C756 C758 1.394 . S
C756 H772 0.931 . S
C757 C756 1.391 . S
C757 C761 1.376 1_554 S
C758 C756 1.394 . S
C758 C759 1.369 . S
C758 C762 1.531 . S
C759 C758 1.369 . S
C759 C760 1.410 1_554 S
C759 C767 1.503 . S
C760 C759 1.410 1_556 S
C760 C761 1.392 . S
C760 C763 1.511 . S
C761 C757 1.376 1_556 S
C761 C760 1.392 . S
C761 H773 0.929 . S
C762 C758 1.531 . S
C762 H774 0.960 . S
C762 H775 0.962 . S
C762 H776 0.960 . S
C763 C760 1.511 . S
C763 H777 0.961 . S
C763 H778 0.961 . S
C763 H779 0.961 . S
C764 C765 1.370 . S
C764 C766 1.363 . S
C764 H780 0.931 . S
C765 C764 1.370 . S
C765 C769 1.408 . S
C766 C764 1.363 . S
C766 C767 1.370 1_556 S
C766 C770 1.524 . S
C767 C759 1.503 . S
C767 C766 1.370 1_554 S
C767 C768 1.403 . S
C768 C767 1.403 . S
C768 C769 1.404 1_554 S
C768 C771 1.539 . S
C769 C765 1.408 . S
C769 C768 1.404 1_556 S
C769 H781 0.930 . S
C770 C766 1.524 . S
C770 H782 0.956 1_556 S
C770 H783 0.961 . S
C770 H784 0.961 . S
C771 C768 1.539 . S
C771 H785 0.958 . S
C771 H786 0.961 . S
C771 H787 0.960 . S
H772 C756 0.931 . S
H773 C761 0.929 . S
H774 C762 0.960 . S
H775 C762 0.962 . S
H776 C762 0.960 . S
H777 C763 0.961 . S
H778 C763 0.961 . S
H779 C763 0.961 . S
H780 C764 0.931 . S
H781 C769 0.930 . S
H782 C770 0.956 1_554 S
H783 C770 0.961 . S
H784 C770 0.961 . S
H785 C771 0.958 . S
H786 C771 0.961 . S
H787 C771 0.960 . S
C788 C789 1.391 1_556 S
C788 C790 1.394 . S
C788 H804 0.931 . S
C789 C788 1.391 1_554 S
C789 C793 1.376 . S
C790 C788 1.394 . S
C790 C791 1.369 . S
C790 C794 1.531 . S
C791 C790 1.369 . S
C791 C792 1.410 1_556 S
C791 C799 1.503 . S
C792 C791 1.410 1_554 S
C792 C793 1.392 . S
C792 C795 1.511 . S
C793 C789 1.376 . S
C793 C792 1.392 . S
C793 H805 0.929 . S
C794 C790 1.531 . S
C794 H806 0.960 . S
C794 H807 0.962 . S
C794 H808 0.960 . S
C795 C792 1.511 . S
C795 H809 0.961 . S
C795 H810 0.961 . S
C795 H811 0.961 . S
C796 C797 1.370 . S
C796 C798 1.363 . S
C796 H812 0.931 . S
C797 C796 1.370 . S
C797 C801 1.408 . S
C798 C796 1.363 . S
C798 C799 1.370 . S
C798 C802 1.524 . S
C799 C791 1.503 . S
C799 C798 1.370 . S
C799 C800 1.403 . S
C800 C799 1.403 . S
C800 C801 1.404 . S
C800 C803 1.539 . S
C801 C797 1.408 . S
C801 C800 1.404 . S
C801 H813 0.930 . S
C802 C798 1.524 . S
C802 H814 0.956 . S
C802 H815 0.961 1_556 S
C802 H816 0.961 . S
C803 C800 1.539 . S
C803 H817 0.958 . S
C803 H818 0.961 . S
C803 H819 0.960 . S
H804 C788 0.931 . S
H805 C793 0.929 . S
H806 C794 0.960 . S
H807 C794 0.962 . S
H808 C794 0.960 . S
H809 C795 0.961 . S
H810 C795 0.961 . S
H811 C795 0.961 . S
H812 C796 0.931 . S
H813 C801 0.930 . S
H814 C802 0.956 . S
H815 C802 0.961 1_554 S
H816 C802 0.961 . S
H817 C803 0.958 . S
H818 C803 0.961 . S
H819 C803 0.960 . S
C820 C821 1.391 . S
C820 C822 1.394 . S
C820 H836 0.931 . S
C821 C820 1.391 . S
C821 C825 1.376 . S
C822 C820 1.394 . S
C822 C823 1.369 . S
C822 C826 1.531 . S
C823 C822 1.369 . S
C823 C824 1.410 . S
C823 C831 1.503 . S
C824 C823 1.410 . S
C824 C825 1.392 . S
C824 C827 1.511 . S
C825 C821 1.376 . S
C825 C824 1.392 . S
C825 H837 0.929 . S
C826 C822 1.531 . S
C826 H838 0.960 . S
C826 H839 0.962 . S
C826 H840 0.960 . S
C827 C824 1.511 . S
C827 H841 0.961 1_556 S
C827 H842 0.961 . S
C827 H843 0.961 1_556 S
C828 C829 1.370 . S
C828 C830 1.363 . S
C828 H844 0.931 . S
C829 C828 1.370 . S
C829 C833 1.408 . S
C830 C828 1.363 . S
C830 C831 1.370 . S
C830 C834 1.524 . S
C831 C823 1.503 . S
C831 C830 1.370 . S
C831 C832 1.403 . S
C832 C831 1.403 . S
C832 C833 1.404 . S
C832 C835 1.539 . S
C833 C829 1.408 . S
C833 C832 1.404 . S
C833 H845 0.930 . S
C834 C830 1.524 . S
C834 H846 0.956 . S
C834 H847 0.961 . S
C834 H848 0.961 . S
C835 C832 1.539 . S
C835 H849 0.958 . S
C835 H850 0.961 . S
C835 H851 0.960 . S
H836 C820 0.931 . S
H837 C825 0.929 . S
H838 C826 0.960 . S
H839 C826 0.962 . S
H840 C826 0.960 . S
H841 C827 0.961 1_554 S
H842 C827 0.961 . S
H843 C827 0.961 1_554 S
H844 C828 0.931 . S
H845 C833 0.930 . S
H846 C834 0.956 . S
H847 C834 0.961 . S
H848 C834 0.961 . S
H849 C835 0.958 . S
H850 C835 0.961 . S
H851 C835 0.960 . S
C852 C853 1.391 1_556 S
C852 C854 1.394 . S
C852 H868 0.931 . S
C853 C852 1.391 1_554 S
C853 C857 1.376 . S
C854 C852 1.394 . S
C854 C855 1.369 1_556 S
C854 C858 1.531 . S
C855 C854 1.369 1_554 S
C855 C856 1.410 . S
C855 C863 1.503 . S
C856 C855 1.410 . S
C856 C857 1.392 . S
C856 C859 1.511 . S
C857 C853 1.376 . S
C857 C856 1.392 . S
C857 H869 0.929 . S
C858 C854 1.531 . S
C858 H870 0.960 . S
C858 H871 0.962 . S
C858 H872 0.960 . S
C859 C856 1.511 . S
C859 H873 0.961 . S
C859 H874 0.961 . S
C859 H875 0.961 . S
C860 C861 1.370 . S
C860 C862 1.363 . S
C860 H876 0.931 . S
C861 C860 1.370 . S
C861 C865 1.408 1_554 S
C862 C860 1.363 . S
C862 C863 1.370 . S
C862 C866 1.524 . S
C863 C855 1.503 . S
C863 C862 1.370 . S
C863 C864 1.403 1_554 S
C864 C863 1.403 1_556 S
C864 C865 1.404 . S
C864 C867 1.539 . S
C865 C861 1.408 1_556 S
C865 C864 1.404 . S
C865 H877 0.930 . S
C866 C862 1.524 . S
C866 H878 0.956 . S
C866 H879 0.961 . S
C866 H880 0.961 . S
C867 C864 1.539 . S
C867 H881 0.958 . S
C867 H882 0.961 . S
C867 H883 0.960 . S
H868 C852 0.931 . S
H869 C857 0.929 . S
H870 C858 0.960 . S
H871 C858 0.962 . S
H872 C858 0.960 . S
H873 C859 0.961 . S
H874 C859 0.961 . S
H875 C859 0.961 . S
H876 C860 0.931 . S
H877 C865 0.930 . S
H878 C866 0.956 . S
H879 C866 0.961 . S
H880 C866 0.961 . S
H881 C867 0.958 . S
H882 C867 0.961 . S
H883 C867 0.960 . S
C884 C885 1.391 . S
C884 C886 1.394 . S
C884 H900 0.931 . S
C885 C884 1.391 . S
C885 C889 1.376 . S
C886 C884 1.394 . S
C886 C887 1.369 . S
C886 C890 1.522 1_554 S
C887 C886 1.369 . S
C887 C888 1.410 . S
C887 C895 1.503 . S
C888 C887 1.410 . S
C888 C889 1.392 . S
C888 C891 1.541 . S
C889 C885 1.376 . S
C889 C888 1.392 . S
C889 H901 0.929 . S
C890 C886 1.522 1_556 S
C890 H902 0.962 . S
C890 H903 0.960 . S
C890 H904 0.970 . S
C891 C888 1.541 . S
C891 H905 0.990 . S
C891 H906 0.940 . S
C891 H907 0.926 1_655 S
C892 C893 1.370 1_655 S
C892 C894 1.363 . S
C892 H908 0.931 . S
C893 C892 1.370 1_455 S
C893 C897 1.408 . S
C894 C892 1.363 . S
C894 C895 1.370 . S
C894 C898 1.524 . S
C895 C887 1.503 . S
C895 C894 1.370 . S
C895 C896 1.403 1_655 S
C896 C895 1.403 1_455 S
C896 C897 1.404 . S
C896 C899 1.539 . S
C897 C893 1.408 . S
C897 C896 1.404 . S
C897 H909 0.930 . S
C898 C894 1.524 . S
C898 H910 0.956 . S
C898 H911 0.961 . S
C898 H912 0.961 . S
C899 C896 1.539 . S
C899 H913 0.958 . S
C899 H914 0.961 . S
C899 H915 0.960 . S
H900 C884 0.931 . S
H901 C889 0.929 . S
H902 C890 0.962 . S
H903 C890 0.960 . S
H904 C890 0.970 . S
H905 C891 0.990 . S
H906 C891 0.940 . S
H907 C891 0.926 1_455 S
H908 C892 0.931 . S
H909 C897 0.930 . S
H910 C898 0.956 . S
H911 C898 0.961 . S
H912 C898 0.961 . S
H913 C899 0.958 . S
H914 C899 0.961 . S
H915 C899 0.960 . S
C916 C917 1.391 . S
C916 C918 1.394 . S
C916 H932 0.931 . S
C917 C916 1.391 . S
C917 C921 1.376 . S
C918 C916 1.394 . S
C918 C919 1.369 . S
C918 C922 1.531 . S
C919 C918 1.369 . S
C919 C920 1.410 . S
C919 C927 1.503 . S
C920 C919 1.410 . S
C920 C921 1.392 . S
C920 C923 1.511 . S
C921 C917 1.376 . S
C921 C920 1.392 . S
C921 H933 0.929 . S
C922 C918 1.531 . S
C922 H934 0.960 . S
C922 H935 0.962 . S
C922 H936 0.960 . S
C923 C920 1.511 . S
C923 H937 0.961 . S
C923 H938 0.961 . S
C923 H939 0.961 . S
C924 C925 1.370 . S
C924 C926 1.363 . S
C924 H940 0.931 . S
C925 C924 1.370 . S
C925 C929 1.408 . S
C926 C924 1.363 . S
C926 C927 1.370 . S
C926 C930 1.524 . S
C927 C919 1.503 . S
C927 C926 1.370 . S
C927 C928 1.403 . S
C928 C927 1.403 . S
C928 C929 1.404 . S
C928 C931 1.539 . S
C929 C925 1.408 . S
C929 C928 1.404 . S
C929 H941 0.930 . S
C930 C926 1.524 . S
C930 H942 0.956 . S
C930 H943 0.961 . S
C930 H944 0.954 1_554 S
C931 C928 1.539 . S
C931 H945 0.958 . S
C931 H946 0.961 . S
C931 H947 0.960 . S
H932 C916 0.931 . S
H933 C921 0.929 . S
H934 C922 0.960 . S
H935 C922 0.962 . S
H936 C922 0.960 . S
H937 C923 0.961 . S
H938 C923 0.961 . S
H939 C923 0.961 . S
H940 C924 0.931 . S
H941 C929 0.930 . S
H942 C930 0.956 . S
H943 C930 0.961 . S
H944 C930 0.954 1_556 S
H945 C931 0.958 . S
H946 C931 0.961 . S
H947 C931 0.960 . S
C948 C949 1.391 . S
C948 C950 1.394 . S
C948 H964 0.931 . S
C949 C948 1.391 . S
C949 C953 1.376 . S
C950 C948 1.394 . S
C950 C951 1.369 . S
C950 C954 1.531 . S
C951 C950 1.369 . S
C951 C952 1.410 . S
C951 C959 1.503 . S
C952 C951 1.410 . S
C952 C953 1.392 . S
C952 C955 1.511 . S
C953 C949 1.376 . S
C953 C952 1.392 . S
C953 H965 0.929 . S
C954 C950 1.531 . S
C954 H966 0.960 . S
C954 H967 0.962 . S
C954 H968 0.960 . S
C955 C952 1.511 . S
C955 H969 0.961 . S
C955 H970 0.961 . S
C955 H971 0.961 . S
C956 C957 1.370 . S
C956 C958 1.363 . S
C956 H972 0.931 . S
C957 C956 1.370 . S
C957 C961 1.408 . S
C958 C956 1.363 . S
C958 C959 1.370 . S
C958 C962 1.524 . S
C959 C951 1.503 . S
C959 C958 1.370 . S
C959 C960 1.403 . S
C960 C959 1.403 . S
C960 C961 1.404 . S
C960 C963 1.539 . S
C961 C957 1.408 . S
C961 C960 1.404 . S
C961 H973 0.930 . S
C962 C958 1.524 . S
C962 H974 0.956 . S
C962 H975 0.961 . S
C962 H976 0.961 . S
C963 C960 1.539 . S
C963 H977 0.958 . S
C963 H978 0.961 . S
C963 H979 0.960 . S
H964 C948 0.931 . S
H965 C953 0.929 . S
H966 C954 0.960 . S
H967 C954 0.962 . S
H968 C954 0.960 . S
H969 C955 0.961 . S
H970 C955 0.961 . S
H971 C955 0.961 . S
H972 C956 0.931 . S
H973 C961 0.930 . S
H974 C962 0.956 . S
H975 C962 0.961 . S
H976 C962 0.961 . S
H977 C963 0.958 . S
H978 C963 0.961 . S
H979 C963 0.960 . S
C980 C981 1.391 . S
C980 C982 1.394 . S
C980 H996 0.931 . S
C981 C980 1.391 . S
C981 C985 1.376 . S
C982 C980 1.394 . S
C982 C983 1.369 . S
C982 C986 1.531 . S
C983 C982 1.369 . S
C983 C984 1.410 . S
C983 C991 1.503 . S
C984 C983 1.410 . S
C984 C985 1.392 . S
C984 C987 1.511 . S
C985 C981 1.376 . S
C985 C984 1.392 . S
C985 H997 0.929 . S
C986 C982 1.531 . S
C986 H998 0.960 . S
C986 H999 0.962 . S
C986 H1000 0.960 . S
C987 C984 1.511 . S
C987 H1001 0.961 . S
C987 H1002 0.961 . S
C987 H1003 0.961 . S
C988 C989 1.370 . S
C988 C990 1.363 . S
C988 H1004 0.931 . S
C989 C988 1.370 . S
C989 C993 1.408 . S
C990 C988 1.363 . S
C990 C991 1.370 . S
C990 C994 1.524 . S
C991 C983 1.503 . S
C991 C990 1.370 . S
C991 C992 1.403 . S
C992 C991 1.403 . S
C992 C993 1.404 . S
C992 C995 1.539 . S
C993 C989 1.408 . S
C993 C992 1.404 . S
C993 H1005 0.930 . S
C994 C990 1.524 . S
C994 H1006 0.956 . S
C994 H1007 0.961 . S
C994 H1008 0.961 . S
C995 C992 1.539 . S
C995 H1009 0.958 . S
C995 H1010 0.961 . S
C995 H1011 0.960 . S
H996 C980 0.931 . S
H997 C985 0.929 . S
H998 C986 0.960 . S
H999 C986 0.962 . S
H1000 C986 0.960 . S
H1001 C987 0.961 . S
H1002 C987 0.961 . S
H1003 C987 0.961 . S
H1004 C988 0.931 . S
H1005 C993 0.930 . S
H1006 C994 0.956 . S
H1007 C994 0.961 . S
H1008 C994 0.961 . S
H1009 C995 0.958 . S
H1010 C995 0.961 . S
H1011 C995 0.960 . S
C1012 C1013 1.391 . S
C1012 C1014 1.394 . S
C1012 H1028 0.931 . S
C1013 C1012 1.391 . S
C1013 C1017 1.376 . S
C1014 C1012 1.394 . S
C1014 C1015 1.369 . S
C1014 C1018 1.531 . S
C1015 C1014 1.369 . S
C1015 C1016 1.410 . S
C1015 C1023 1.503 . S
C1016 C1015 1.410 . S
C1016 C1017 1.392 . S
C1016 C1019 1.511 . S
C1017 C1013 1.376 . S
C1017 C1016 1.392 . S
C1017 H1029 0.929 . S
C1018 C1014 1.531 . S
C1018 H1030 0.960 1_545 S
C1018 H1031 0.962 . S
C1018 H1032 0.962 1_545 S
C1019 C1016 1.511 . S
C1019 H1033 0.961 . S
C1019 H1034 0.961 . S
C1019 H1035 0.961 . S
C1020 C1021 1.370 1_545 S
C1020 C1022 1.363 . S
C1020 H1036 0.931 . S
C1021 C1020 1.370 1_565 S
C1021 C1025 1.408 . S
C1022 C1020 1.363 . S
C1022 C1023 1.370 . S
C1022 C1026 1.524 . S
C1023 C1015 1.503 . S
C1023 C1022 1.370 . S
C1023 C1024 1.392 1_545 S
C1024 C1023 1.392 1_565 S
C1024 C1025 1.411 . S
C1024 C1027 1.543 . S
C1025 C1021 1.408 . S
C1025 C1024 1.411 . S
C1025 H1037 0.930 . S
C1026 C1022 1.524 . S
C1026 H1038 0.956 . S
C1026 H1039 0.961 . S
C1026 H1040 0.961 . S
C1027 C1024 1.543 . S
C1027 H1041 0.958 . S
C1027 H1042 0.961 . S
C1027 H1043 0.960 1_565 S
H1028 C1012 0.931 . S
H1029 C1017 0.929 . S
H1030 C1018 0.960 1_565 S
H1031 C1018 0.962 . S
H1032 C1018 0.962 1_565 S
H1033 C1019 0.961 . S
H1034 C1019 0.961 . S
H1035 C1019 0.961 . S
H1036 C1020 0.931 . S
H1037 C1025 0.930 . S
H1038 C1026 0.956 . S
H1039 C1026 0.961 . S
H1040 C1026 0.961 . S
H1041 C1027 0.958 . S
H1042 C1027 0.961 . S
H1043 C1027 0.960 1_545 S
C1044 C1045 1.391 . S
C1044 C1046 1.394 . S
C1044 H1060 0.931 . S
C1045 C1044 1.391 . S
C1045 C1049 1.376 . S
C1046 C1044 1.394 . S
C1046 C1047 1.369 . S
C1046 C1050 1.531 . S
C1047 C1046 1.369 . S
C1047 C1048 1.410 . S
C1047 C1055 1.503 . S
C1048 C1047 1.410 . S
C1048 C1049 1.392 . S
C1048 C1051 1.511 . S
C1049 C1045 1.376 . S
C1049 C1048 1.392 . S
C1049 H1061 0.929 . S
C1050 C1046 1.531 . S
C1050 H1062 0.960 . S
C1050 H1063 0.962 . S
C1050 H1064 0.960 . S
C1051 C1048 1.511 . S
C1051 H1065 0.961 . S
C1051 H1066 0.961 . S
C1051 H1067 0.961 . S
C1052 C1053 1.370 . S
C1052 C1054 1.363 . S
C1052 H1068 0.931 . S
C1053 C1052 1.370 . S
C1053 C1057 1.408 . S
C1054 C1052 1.363 . S
C1054 C1055 1.370 . S
C1054 C1058 1.524 . S
C1055 C1047 1.503 . S
C1055 C1054 1.370 . S
C1055 C1056 1.403 . S
C1056 C1055 1.403 . S
C1056 C1057 1.404 . S
C1056 C1059 1.539 . S
C1057 C1053 1.408 . S
C1057 C1056 1.404 . S
C1057 H1069 0.930 . S
C1058 C1054 1.524 . S
C1058 H1070 0.956 . S
C1058 H1071 0.961 1_554 S
C1058 H1072 0.961 1_554 S
C1059 C1056 1.539 . S
C1059 H1073 0.958 . S
C1059 H1074 0.961 . S
C1059 H1075 0.960 . S
H1060 C1044 0.931 . S
H1061 C1049 0.929 . S
H1062 C1050 0.960 . S
H1063 C1050 0.962 . S
H1064 C1050 0.960 . S
H1065 C1051 0.961 . S
H1066 C1051 0.961 . S
H1067 C1051 0.961 . S
H1068 C1052 0.931 . S
H1069 C1057 0.930 . S
H1070 C1058 0.956 . S
H1071 C1058 0.961 1_556 S
H1072 C1058 0.961 1_556 S
H1073 C1059 0.958 . S
H1074 C1059 0.961 . S
H1075 C1059 0.960 . S
C1076 C1077 1.391 . S
C1076 C1078 1.394 . S
C1076 H1092 0.931 1_554 S
C1077 C1076 1.391 . S
C1077 C1081 1.376 . S
C1078 C1076 1.394 . S
C1078 C1079 1.369 . S
C1078 C1082 1.531 1_564 S
C1079 C1078 1.369 . S
C1079 C1080 1.410 . S
C1079 C1087 1.503 1_565 S
C1080 C1079 1.410 . S
C1080 C1081 1.392 . S
C1080 C1083 1.511 . S
C1081 C1077 1.376 . S
C1081 C1080 1.392 . S
C1081 H1093 0.929 . S
C1082 C1078 1.531 1_546 S
C1082 H1094 0.960 . S
C1082 H1095 0.962 1_556 S
C1082 H1096 0.960 1_545 S
C1083 C1080 1.511 . S
C1083 H1097 0.961 . S
C1083 H1098 0.961 . S
C1083 H1099 0.961 . S
C1084 C1085 1.370 . S
C1084 C1086 1.363 . S
C1084 H1100 0.931 . S
C1085 C1084 1.370 . S
C1085 C1089 1.408 . S
C1086 C1084 1.363 . S
C1086 C1087 1.370 . S
C1086 C1090 1.524 . S
C1087 C1079 1.503 1_545 S
C1087 C1086 1.370 . S
C1087 C1088 1.403 . S
C1088 C1087 1.403 . S
C1088 C1089 1.404 . S
C1088 C1091 1.532 1_545 S
C1089 C1085 1.408 . S
C1089 C1088 1.404 . S
C1089 H1101 0.930 . S
C1090 C1086 1.524 . S
C1090 H1102 0.995 . S
C1090 H1103 0.917 1_545 S
C1090 H1104 0.961 1_655 S
C1091 C1088 1.532 1_565 S
C1091 H1105 0.951 1_564 S
C1091 H1106 0.923 1_565 S
C1091 H1107 1.016 . S
H1092 C1076 0.931 1_556 S
H1093 C1081 0.929 . S
H1094 C1082 0.960 . S
H1095 C1082 0.962 1_554 S
H1096 C1082 0.960 1_565 S
H1097 C1083 0.961 . S
H1098 C1083 0.961 . S
H1099 C1083 0.961 . S
H1100 C1084 0.931 . S
H1101 C1089 0.930 . S
H1102 C1090 0.995 . S
H1103 C1090 0.917 1_565 S
H1104 C1090 0.961 1_455 S
H1105 C1091 0.951 1_546 S
H1106 C1091 0.923 1_545 S
H1107 C1091 1.016 . S
C1108 C1109 1.391 1_455 S
C1108 C1110 1.394 . S
C1108 H1124 0.931 . S
C1109 C1108 1.391 1_655 S
C1109 C1113 1.376 . S
C1110 C1108 1.394 . S
C1110 C1111 1.369 . S
C1110 C1114 1.531 . S
C1111 C1110 1.369 . S
C1111 C1112 1.410 . S
C1111 C1119 1.503 . S
C1112 C1111 1.410 . S
C1112 C1113 1.392 1_455 S
C1112 C1115 1.511 . S
C1113 C1109 1.376 . S
C1113 C1112 1.392 1_655 S
C1113 H1125 0.929 . S
C1114 C1110 1.531 . S
C1114 H1126 0.960 . S
C1114 H1127 0.962 . S
C1114 H1128 0.960 . S
C1115 C1112 1.511 . S
C1115 H1129 0.961 . S
C1115 H1130 0.961 . S
C1115 H1131 0.961 1_554 S
C1116 C1117 1.370 . S
C1116 C1118 1.363 . S
C1116 H1132 0.931 . S
C1117 C1116 1.370 . S
C1117 C1121 1.408 1_554 S
C1118 C1116 1.363 . S
C1118 C1119 1.370 . S
C1118 C1122 1.524 . S
C1119 C1111 1.503 . S
C1119 C1118 1.370 . S
C1119 C1120 1.403 1_554 S
C1120 C1119 1.403 1_556 S
C1120 C1121 1.404 . S
C1120 C1123 1.539 . S
C1121 C1117 1.408 1_556 S
C1121 C1120 1.404 . S
C1121 H1133 0.930 . S
C1122 C1118 1.524 . S
C1122 H1134 0.956 . S
C1122 H1135 0.961 . S
C1122 H1136 0.961 . S
C1123 C1120 1.539 . S
C1123 H1137 0.958 . S
C1123 H1138 0.961 . S
C1123 H1139 0.960 . S
H1124 C1108 0.931 . S
H1125 C1113 0.929 . S
H1126 C1114 0.960 . S
H1127 C1114 0.962 . S
H1128 C1114 0.960 . S
H1129 C1115 0.961 . S
H1130 C1115 0.961 . S
H1131 C1115 0.961 1_556 S
H1132 C1116 0.931 . S
H1133 C1121 0.930 . S
H1134 C1122 0.956 . S
H1135 C1122 0.961 . S
H1136 C1122 0.961 . S
H1137 C1123 0.958 . S
H1138 C1123 0.961 . S
H1139 C1123 0.960 . S
C1140 C1141 1.391 . S
C1140 C1142 1.394 . S
C1140 H1156 0.931 . S
C1141 C1140 1.391 . S
C1141 C1145 1.376 1_554 S
C1142 C1140 1.394 . S
C1142 C1143 1.369 . S
C1142 C1146 1.531 . S
C1143 C1142 1.369 . S
C1143 C1144 1.410 . S
C1143 C1151 1.503 . S
C1144 C1143 1.410 . S
C1144 C1145 1.392 1_554 S
C1144 C1147 1.511 . S
C1145 C1141 1.376 1_556 S
C1145 C1144 1.392 1_556 S
C1145 H1157 0.929 . S
C1146 C1142 1.531 . S
C1146 H1158 0.960 . S
C1146 H1159 0.962 . S
C1146 H1160 0.960 . S
C1147 C1144 1.511 . S
C1147 H1161 0.961 . S
C1147 H1162 0.961 . S
C1147 H1163 0.961 1_554 S
C1148 C1149 1.370 . S
C1148 C1150 1.363 . S
C1148 H1164 0.931 . S
C1149 C1148 1.370 . S
C1149 C1153 1.408 . S
C1150 C1148 1.363 . S
C1150 C1151 1.370 . S
C1150 C1154 1.524 . S
C1151 C1143 1.503 . S
C1151 C1150 1.370 . S
C1151 C1152 1.403 . S
C1152 C1151 1.403 . S
C1152 C1153 1.404 . S
C1152 C1155 1.539 1_554 S
C1153 C1149 1.408 . S
C1153 C1152 1.404 . S
C1153 H1165 0.930 . S
C1154 C1150 1.524 . S
C1154 H1166 0.956 . S
C1154 H1167 0.961 . S
C1154 H1168 0.961 . S
C1155 C1152 1.539 1_556 S
C1155 H1169 0.958 . S
C1155 H1170 0.961 . S
C1155 H1171 0.960 . S
H1156 C1140 0.931 . S
H1157 C1145 0.929 . S
H1158 C1146 0.960 . S
H1159 C1146 0.962 . S
H1160 C1146 0.960 . S
H1161 C1147 0.961 . S
H1162 C1147 0.961 . S
H1163 C1147 0.961 1_556 S
H1164 C1148 0.931 . S
H1165 C1153 0.930 . S
H1166 C1154 0.956 . S
H1167 C1154 0.961 . S
H1168 C1154 0.961 . S
H1169 C1155 0.958 . S
H1170 C1155 0.961 . S
H1171 C1155 0.960 . S
C1172 C1173 1.391 . S
C1172 C1174 1.394 1_554 S
C1172 H1188 0.931 1_554 S
C1173 C1172 1.391 . S
C1173 C1177 1.376 . S
C1174 C1172 1.394 1_556 S
C1174 C1175 1.369 1_556 S
C1174 C1178 1.531 . S
C1175 C1174 1.369 1_554 S
C1175 C1176 1.410 . S
C1175 C1183 1.503 . S
C1176 C1175 1.410 . S
C1176 C1177 1.392 . S
C1176 C1179 1.511 . S
C1177 C1173 1.376 . S
C1177 C1176 1.392 . S
C1177 H1189 0.929 . S
C1178 C1174 1.531 . S
C1178 H1190 0.960 . S
C1178 H1191 0.962 . S
C1178 H1192 0.960 . S
C1179 C1176 1.511 . S
C1179 H1193 0.961 . S
C1179 H1194 0.961 . S
C1179 H1195 0.961 . S
C1180 C1181 1.370 1_554 S
C1180 C1182 1.363 . S
C1180 H1196 0.931 . S
C1181 C1180 1.370 1_556 S
C1181 C1185 1.408 . S
C1182 C1180 1.363 . S
C1182 C1183 1.370 . S
C1182 C1186 1.524 . S
C1183 C1175 1.503 . S
C1183 C1182 1.370 . S
C1183 C1184 1.403 1_554 S
C1184 C1183 1.403 1_556 S
C1184 C1185 1.404 . S
C1184 C1187 1.539 . S
C1185 C1181 1.408 . S
C1185 C1184 1.404 . S
C1185 H1197 0.930 . S
C1186 C1182 1.524 . S
C1186 H1198 0.956 . S
C1186 H1199 0.961 . S
C1186 H1200 0.961 . S
C1187 C1184 1.539 . S
C1187 H1201 0.958 . S
C1187 H1202 0.961 . S
C1187 H1203 0.960 . S
H1188 C1172 0.931 1_556 S
H1189 C1177 0.929 . S
H1190 C1178 0.960 . S
H1191 C1178 0.962 . S
H1192 C1178 0.960 . S
H1193 C1179 0.961 . S
H1194 C1179 0.961 . S
H1195 C1179 0.961 . S
H1196 C1180 0.931 . S
H1197 C1185 0.930 . S
H1198 C1186 0.956 . S
H1199 C1186 0.961 . S
H1200 C1186 0.961 . S
H1201 C1187 0.958 . S
H1202 C1187 0.961 . S
H1203 C1187 0.960 . S
C1204 C1205 1.391 . S
C1204 C1206 1.394 . S
C1204 H1220 0.931 . S
C1205 C1204 1.391 . S
C1205 C1209 1.376 1_554 S
C1206 C1204 1.394 . S
C1206 C1207 1.369 . S
C1206 C1210 1.531 . S
C1207 C1206 1.369 . S
C1207 C1208 1.410 1_554 S
C1207 C1215 1.503 1_554 S
C1208 C1207 1.410 1_556 S
C1208 C1209 1.392 . S
C1208 C1211 1.511 . S
C1209 C1205 1.376 1_556 S
C1209 C1208 1.392 . S
C1209 H1221 0.929 . S
C1210 C1206 1.531 . S
C1210 H1222 0.960 . S
C1210 H1223 0.962 . S
C1210 H1224 0.960 . S
C1211 C1208 1.511 . S
C1211 H1225 0.961 . S
C1211 H1226 0.961 . S
C1211 H1227 0.961 . S
C1212 C1213 1.370 . S
C1212 C1214 1.363 . S
C1212 H1228 0.931 . S
C1213 C1212 1.370 . S
C1213 C1217 1.408 . S
C1214 C1212 1.363 . S
C1214 C1215 1.370 . S
C1214 C1218 1.524 1_556 S
C1215 C1207 1.503 1_556 S
C1215 C1214 1.370 . S
C1215 C1216 1.403 . S
C1216 C1215 1.403 . S
C1216 C1217 1.404 . S
C1216 C1219 1.539 . S
C1217 C1213 1.408 . S
C1217 C1216 1.404 . S
C1217 H1229 0.930 . S
C1218 C1214 1.524 1_554 S
C1218 H1230 0.956 . S
C1218 H1231 0.961 1_554 S
C1218 H1232 0.961 . S
C1219 C1216 1.539 . S
C1219 H1233 0.958 1_556 S
C1219 H1234 0.961 . S
C1219 H1235 0.960 . S
H1220 C1204 0.931 . S
H1221 C1209 0.929 . S
H1222 C1210 0.960 . S
H1223 C1210 0.962 . S
H1224 C1210 0.960 . S
H1225 C1211 0.961 . S
H1226 C1211 0.961 . S
H1227 C1211 0.961 . S
H1228 C1212 0.931 . S
H1229 C1217 0.930 . S
H1230 C1218 0.956 . S
H1231 C1218 0.961 1_556 S
H1232 C1218 0.961 . S
H1233 C1219 0.958 1_554 S
H1234 C1219 0.961 . S
H1235 C1219 0.960 . S
C1236 C1237 1.391 . S
C1236 C1238 1.394 . S
C1236 H1252 0.931 . S
C1237 C1236 1.391 . S
C1237 C1241 1.376 . S
C1238 C1236 1.394 . S
C1238 C1239 1.369 . S
C1238 C1242 1.531 . S
C1239 C1238 1.369 . S
C1239 C1240 1.410 . S
C1239 C1247 1.503 . S
C1240 C1239 1.410 . S
C1240 C1241 1.392 . S
C1240 C1243 1.511 . S
C1241 C1237 1.376 . S
C1241 C1240 1.392 . S
C1241 H1253 0.929 1_556 S
C1242 C1238 1.531 . S
C1242 H1254 0.960 . S
C1242 H1255 0.962 . S
C1242 H1256 0.960 . S
C1243 C1240 1.511 . S
C1243 H1257 0.961 1_556 S
C1243 H1258 0.961 . S
C1243 H1259 0.961 . S
C1244 C1245 1.370 . S
C1244 C1246 1.363 . S
C1244 H1260 0.931 . S
C1245 C1244 1.370 . S
C1245 C1249 1.408 . S
C1246 C1244 1.363 . S
C1246 C1247 1.370 . S
C1246 C1250 1.524 . S
C1247 C1239 1.503 . S
C1247 C1246 1.370 . S
C1247 C1248 1.403 . S
C1248 C1247 1.403 . S
C1248 C1249 1.404 . S
C1248 C1251 1.539 . S
C1249 C1245 1.408 . S
C1249 C1248 1.404 . S
C1249 H1261 0.930 . S
C1250 C1246 1.524 . S
C1250 H1262 0.956 . S
C1250 H1263 0.961 1_556 S
C1250 H1264 0.961 1_556 S
C1251 C1248 1.539 . S
C1251 H1265 0.958 . S
C1251 H1266 0.961 . S
C1251 H1267 0.960 . S
H1252 C1236 0.931 . S
H1253 C1241 0.929 1_554 S
H1254 C1242 0.960 . S
H1255 C1242 0.962 . S
H1256 C1242 0.960 . S
H1257 C1243 0.961 1_554 S
H1258 C1243 0.961 . S
H1259 C1243 0.961 . S
H1260 C1244 0.931 . S
H1261 C1249 0.930 . S
H1262 C1250 0.956 . S
H1263 C1250 0.961 1_554 S
H1264 C1250 0.961 1_554 S
H1265 C1251 0.958 . S
H1266 C1251 0.961 . S
H1267 C1251 0.960 . S
C1268 C1269 1.391 . S
C1268 C1270 1.394 . S
C1268 H1284 0.931 . S
C1269 C1268 1.391 . S
C1269 C1273 1.376 . S
C1270 C1268 1.394 . S
C1270 C1271 1.369 . S
C1270 C1274 1.531 . S
C1271 C1270 1.369 . S
C1271 C1272 1.410 . S
C1271 C1279 1.503 . S
C1272 C1271 1.410 . S
C1272 C1273 1.392 . S
C1272 C1275 1.511 . S
C1273 C1269 1.376 . S
C1273 C1272 1.392 . S
C1273 H1285 0.929 . S
C1274 C1270 1.531 . S
C1274 H1286 0.960 . S
C1274 H1287 0.962 . S
C1274 H1288 0.956 1_556 S
C1275 C1272 1.511 . S
C1275 H1289 0.961 . S
C1275 H1290 0.961 . S
C1275 H1291 0.961 . S
C1276 C1277 1.370 . S
C1276 C1278 1.363 . S
C1276 H1292 0.931 . S
C1277 C1276 1.370 . S
C1277 C1281 1.408 . S
C1278 C1276 1.363 . S
C1278 C1279 1.370 . S
C1278 C1282 1.524 . S
C1279 C1271 1.503 . S
C1279 C1278 1.370 . S
C1279 C1280 1.403 . S
C1280 C1279 1.403 . S
C1280 C1281 1.404 . S
C1280 C1283 1.539 . S
C1281 C1277 1.408 . S
C1281 C1280 1.404 . S
C1281 H1293 0.930 . S
C1282 C1278 1.524 . S
C1282 H1294 0.956 . S
C1282 H1295 0.961 . S
C1282 H1296 0.961 . S
C1283 C1280 1.539 . S
C1283 H1297 0.958 . S
C1283 H1298 0.961 . S
C1283 H1299 0.960 . S
H1284 C1268 0.931 . S
H1285 C1273 0.929 . S
H1286 C1274 0.960 . S
H1287 C1274 0.962 . S
H1288 C1274 0.956 1_554 S
H1289 C1275 0.961 . S
H1290 C1275 0.961 . S
H1291 C1275 0.961 . S
H1292 C1276 0.931 . S
H1293 C1281 0.930 . S
H1294 C1282 0.956 . S
H1295 C1282 0.961 . S
H1296 C1282 0.961 . S
H1297 C1283 0.958 . S
H1298 C1283 0.961 . S
H1299 C1283 0.960 . S
C1300 C1301 1.391 . S
C1300 C1302 1.394 . S
C1300 H1316 0.931 . S
C1301 C1300 1.391 . S
C1301 C1305 1.376 . S
C1302 C1300 1.394 . S
C1302 C1303 1.369 . S
C1302 C1306 1.531 1_556 S
C1303 C1302 1.369 . S
C1303 C1304 1.410 . S
C1303 C1311 1.503 . S
C1304 C1303 1.410 . S
C1304 C1305 1.392 . S
C1304 C1307 1.511 . S
C1305 C1301 1.376 . S
C1305 C1304 1.392 . S
C1305 H1317 0.929 . S
C1306 C1302 1.531 1_554 S
C1306 H1318 0.960 . S
C1306 H1319 0.962 . S
C1306 H1320 0.960 . S
C1307 C1304 1.511 . S
C1307 H1321 0.961 . S
C1307 H1322 0.961 . S
C1307 H1323 0.961 . S
C1308 C1309 1.370 . S
C1308 C1310 1.363 . S
C1308 H1324 0.931 . S
C1309 C1308 1.370 . S
C1309 C1313 1.408 . S
C1310 C1308 1.363 . S
C1310 C1311 1.370 . S
C1310 C1314 1.524 . S
C1311 C1303 1.503 . S
C1311 C1310 1.370 . S
C1311 C1312 1.403 . S
C1312 C1311 1.403 . S
C1312 C1313 1.404 . S
C1312 C1315 1.539 . S
C1313 C1309 1.408 . S
C1313 C1312 1.404 . S
C1313 H1325 0.930 . S
C1314 C1310 1.524 . S
C1314 H1326 0.956 . S
C1314 H1327 0.961 . S
C1314 H1328 0.961 . S
C1315 C1312 1.539 . S
C1315 H1329 0.958 . S
C1315 H1330 0.961 . S
C1315 H1331 0.960 . S
H1316 C1300 0.931 . S
H1317 C1305 0.929 . S
H1318 C1306 0.960 . S
H1319 C1306 0.962 . S
H1320 C1306 0.960 . S
H1321 C1307 0.961 . S
H1322 C1307 0.961 . S
H1323 C1307 0.961 . S
H1324 C1308 0.931 . S
H1325 C1313 0.930 . S
H1326 C1314 0.956 . S
H1327 C1314 0.961 . S
H1328 C1314 0.961 . S
H1329 C1315 0.958 . S
H1330 C1315 0.961 . S
H1331 C1315 0.960 . S
C1332 C1333 1.391 . S
C1332 C1334 1.394 . S
C1332 H1348 0.931 . S
C1333 C1332 1.391 . S
C1333 C1337 1.376 . S
C1334 C1332 1.394 . S
C1334 C1335 1.369 . S
C1334 C1338 1.531 . S
C1335 C1334 1.369 . S
C1335 C1336 1.410 . S
C1335 C1343 1.503 . S
C1336 C1335 1.410 . S
C1336 C1337 1.392 . S
C1336 C1339 1.511 . S
C1337 C1333 1.376 . S
C1337 C1336 1.392 . S
C1337 H1349 0.929 . S
C1338 C1334 1.531 . S
C1338 H1350 0.960 . S
C1338 H1351 0.962 . S
C1338 H1352 0.960 . S
C1339 C1336 1.511 . S
C1339 H1353 0.961 . S
C1339 H1354 0.961 . S
C1339 H1355 0.961 . S
C1340 C1341 1.370 . S
C1340 C1342 1.363 . S
C1340 H1356 0.931 . S
C1341 C1340 1.370 . S
C1341 C1345 1.408 . S
C1342 C1340 1.363 . S
C1342 C1343 1.370 . S
C1342 C1346 1.524 . S
C1343 C1335 1.503 . S
C1343 C1342 1.370 . S
C1343 C1344 1.403 . S
C1344 C1343 1.403 . S
C1344 C1345 1.404 . S
C1344 C1347 1.539 . S
C1345 C1341 1.408 . S
C1345 C1344 1.404 . S
C1345 H1357 0.930 . S
C1346 C1342 1.524 . S
C1346 H1358 0.956 1_455 S
C1346 H1359 0.961 . S
C1346 H1360 0.961 1_455 S
C1347 C1344 1.539 . S
C1347 H1361 0.958 . S
C1347 H1362 0.961 . S
C1347 H1363 0.960 . S
H1348 C1332 0.931 . S
H1349 C1337 0.929 . S
H1350 C1338 0.960 . S
H1351 C1338 0.962 . S
H1352 C1338 0.960 . S
H1353 C1339 0.961 . S
H1354 C1339 0.961 . S
H1355 C1339 0.961 . S
H1356 C1340 0.931 . S
H1357 C1345 0.930 . S
H1358 C1346 0.956 1_655 S
H1359 C1346 0.961 . S
H1360 C1346 0.961 1_655 S
H1361 C1347 0.958 . S
H1362 C1347 0.961 . S
H1363 C1347 0.960 . S
C1364 C1365 1.391 . S
C1364 C1366 1.394 . S
C1364 H1380 0.931 . S
C1365 C1364 1.391 . S
C1365 C1369 1.376 . S
C1366 C1364 1.394 . S
C1366 C1367 1.369 . S
C1366 C1370 1.531 . S
C1367 C1366 1.369 . S
C1367 C1368 1.410 . S
C1367 C1375 1.503 . S
C1368 C1367 1.410 . S
C1368 C1369 1.392 . S
C1368 C1371 1.511 . S
C1369 C1365 1.376 . S
C1369 C1368 1.392 . S
C1369 H1381 0.929 . S
C1370 C1366 1.531 . S
C1370 H1382 0.960 . S
C1370 H1383 0.962 . S
C1370 H1384 0.960 . S
C1371 C1368 1.511 . S
C1371 H1385 0.961 . S
C1371 H1386 0.961 . S
C1371 H1387 0.961 . S
C1372 C1373 1.370 . S
C1372 C1374 1.363 . S
C1372 H1388 0.931 . S
C1373 C1372 1.370 . S
C1373 C1377 1.408 . S
C1374 C1372 1.363 . S
C1374 C1375 1.370 . S
C1374 C1378 1.524 . S
C1375 C1367 1.503 . S
C1375 C1374 1.370 . S
C1375 C1376 1.403 . S
C1376 C1375 1.403 . S
C1376 C1377 1.404 . S
C1376 C1379 1.539 . S
C1377 C1373 1.408 . S
C1377 C1376 1.404 . S
C1377 H1389 0.930 . S
C1378 C1374 1.524 . S
C1378 H1390 0.956 . S
C1378 H1391 0.961 . S
C1378 H1392 0.961 . S
C1379 C1376 1.539 . S
C1379 H1393 0.958 . S
C1379 H1394 0.961 . S
C1379 H1395 0.960 . S
H1380 C1364 0.931 . S
H1381 C1369 0.929 . S
H1382 C1370 0.960 . S
H1383 C1370 0.962 . S
H1384 C1370 0.960 . S
H1385 C1371 0.961 . S
H1386 C1371 0.961 . S
H1387 C1371 0.961 . S
H1388 C1372 0.931 . S
H1389 C1377 0.930 . S
H1390 C1378 0.956 . S
H1391 C1378 0.961 . S
H1392 C1378 0.961 . S
H1393 C1379 0.958 . S
H1394 C1379 0.961 . S
H1395 C1379 0.960 . S
C1396 C1397 1.391 . S
C1396 C1398 1.394 . S
C1396 H1412 0.932 1_545 S
C1397 C1396 1.391 . S
C1397 C1401 1.376 . S
C1398 C1396 1.394 . S
C1398 C1399 1.369 . S
C1398 C1402 1.531 . S
C1399 C1398 1.369 . S
C1399 C1400 1.410 . S
C1399 C1407 1.503 . S
C1400 C1399 1.410 . S
C1400 C1401 1.392 . S
C1400 C1403 1.511 . S
C1401 C1397 1.376 . S
C1401 C1400 1.392 . S
C1401 H1413 0.929 . S
C1402 C1398 1.531 . S
C1402 H1414 0.960 . S
C1402 H1415 0.962 1_545 S
C1402 H1416 0.960 . S
C1403 C1400 1.511 . S
C1403 H1417 0.961 . S
C1403 H1418 0.961 . S
C1403 H1419 0.961 . S
C1404 C1405 1.370 1_565 S
C1404 C1406 1.363 . S
C1404 H1420 0.931 . S
C1405 C1404 1.370 1_545 S
C1405 C1409 1.408 . S
C1406 C1404 1.363 . S
C1406 C1407 1.370 1_565 S
C1406 C1410 1.524 . S
C1407 C1399 1.503 . S
C1407 C1406 1.370 1_545 S
C1407 C1408 1.403 . S
C1408 C1407 1.403 . S
C1408 C1409 1.404 . S
C1408 C1411 1.539 . S
C1409 C1405 1.408 . S
C1409 C1408 1.404 . S
C1409 H1421 0.930 . S
C1410 C1406 1.524 . S
C1410 H1422 0.956 . S
C1410 H1423 0.961 . S
C1410 H1424 0.961 . S
C1411 C1408 1.539 . S
C1411 H1425 0.958 . S
C1411 H1426 0.961 . S
C1411 H1427 0.960 . S
H1412 C1396 0.932 1_565 S
H1413 C1401 0.929 . S
H1414 C1402 0.960 . S
H1415 C1402 0.962 1_565 S
H1416 C1402 0.960 . S
H1417 C1403 0.961 . S
H1418 C1403 0.961 . S
H1419 C1403 0.961 . S
H1420 C1404 0.931 . S
H1421 C1409 0.930 . S
H1422 C1410 0.956 . S
H1423 C1410 0.961 . S
H1424 C1410 0.961 . S
H1425 C1411 0.958 . S
H1426 C1411 0.961 . S
H1427 C1411 0.960 . S
C1428 C1429 1.391 . S
C1428 C1430 1.394 . S
C1428 H1444 0.931 . S
C1429 C1428 1.391 . S
C1429 C1433 1.376 . S
C1430 C1428 1.394 . S
C1430 C1431 1.369 . S
C1430 C1434 1.531 . S
C1431 C1430 1.369 . S
C1431 C1432 1.410 . S
C1431 C1439 1.503 . S
C1432 C1431 1.410 . S
C1432 C1433 1.392 . S
C1432 C1435 1.511 . S
C1433 C1429 1.376 . S
C1433 C1432 1.392 . S
C1433 H1445 0.929 . S
C1434 C1430 1.531 . S
C1434 H1446 0.960 . S
C1434 H1447 0.962 . S
C1434 H1448 0.960 . S
C1435 C1432 1.511 . S
C1435 H1449 0.961 . S
C1435 H1450 0.961 . S
C1435 H1451 0.961 . S
C1436 C1437 1.370 . S
C1436 C1438 1.363 . S
C1436 H1452 0.931 . S
C1437 C1436 1.370 . S
C1437 C1441 1.408 . S
C1438 C1436 1.363 . S
C1438 C1439 1.370 . S
C1438 C1442 1.524 . S
C1439 C1431 1.503 . S
C1439 C1438 1.370 . S
C1439 C1440 1.403 . S
C1440 C1439 1.403 . S
C1440 C1441 1.404 . S
C1440 C1443 1.539 . S
C1441 C1437 1.408 . S
C1441 C1440 1.404 . S
C1441 H1453 0.930 . S
C1442 C1438 1.524 . S
C1442 H1454 0.956 . S
C1442 H1455 0.961 . S
C1442 H1456 0.961 . S
C1443 C1440 1.539 . S
C1443 H1457 0.958 . S
C1443 H1458 0.961 . S
C1443 H1459 0.960 . S
H1444 C1428 0.931 . S
H1445 C1433 0.929 . S
H1446 C1434 0.960 . S
H1447 C1434 0.962 . S
H1448 C1434 0.960 . S
H1449 C1435 0.961 . S
H1450 C1435 0.961 . S
H1451 C1435 0.961 . S
H1452 C1436 0.931 . S
H1453 C1441 0.930 . S
H1454 C1442 0.956 . S
H1455 C1442 0.961 . S
H1456 C1442 0.961 . S
H1457 C1443 0.958 . S
H1458 C1443 0.961 . S
H1459 C1443 0.960 . S
C1460 C1461 1.391 . S
C1460 C1462 1.394 . S
C1460 H1476 0.931 . S
C1461 C1460 1.391 . S
C1461 C1465 1.376 . S
C1462 C1460 1.394 . S
C1462 C1463 1.369 . S
C1462 C1466 1.531 . S
C1463 C1462 1.369 . S
C1463 C1464 1.410 . S
C1463 C1471 1.503 . S
C1464 C1463 1.410 . S
C1464 C1465 1.392 . S
C1464 C1467 1.511 . S
C1465 C1461 1.376 . S
C1465 C1464 1.392 . S
C1465 H1477 0.929 . S
C1466 C1462 1.531 . S
C1466 H1478 0.960 . S
C1466 H1479 0.962 . S
C1466 H1480 0.960 . S
C1467 C1464 1.511 . S
C1467 H1481 0.961 . S
C1467 H1482 0.961 . S
C1467 H1483 0.961 . S
C1468 C1469 1.370 . S
C1468 C1470 1.363 . S
C1468 H1484 0.931 . S
C1469 C1468 1.370 . S
C1469 C1473 1.408 . S
C1470 C1468 1.363 . S
C1470 C1471 1.370 . S
C1470 C1474 1.524 . S
C1471 C1463 1.503 . S
C1471 C1470 1.370 . S
C1471 C1472 1.403 . S
C1472 C1471 1.403 . S
C1472 C1473 1.404 . S
C1472 C1475 1.539 . S
C1473 C1469 1.408 . S
C1473 C1472 1.404 . S
C1473 H1485 0.930 . S
C1474 C1470 1.524 . S
C1474 H1486 0.956 . S
C1474 H1487 0.961 . S
C1474 H1488 0.961 . S
C1475 C1472 1.539 . S
C1475 H1489 0.958 . S
C1475 H1490 0.961 . S
C1475 H1491 0.960 . S
H1476 C1460 0.931 . S
H1477 C1465 0.929 . S
H1478 C1466 0.960 . S
H1479 C1466 0.962 . S
H1480 C1466 0.960 . S
H1481 C1467 0.961 . S
H1482 C1467 0.961 . S
H1483 C1467 0.961 . S
H1484 C1468 0.931 . S
H1485 C1473 0.930 . S
H1486 C1474 0.956 . S
H1487 C1474 0.961 . S
H1488 C1474 0.961 . S
H1489 C1475 0.958 . S
H1490 C1475 0.961 . S
H1491 C1475 0.960 . S
C1492 C1493 1.391 . S
C1492 C1494 1.394 . S
C1492 H1508 0.931 . S
C1493 C1492 1.391 . S
C1493 C1497 1.376 . S
C1494 C1492 1.394 . S
C1494 C1495 1.369 . S
C1494 C1498 1.531 . S
C1495 C1494 1.369 . S
C1495 C1496 1.410 . S
C1495 C1503 1.503 . S
C1496 C1495 1.410 . S
C1496 C1497 1.392 . S
C1496 C1499 1.511 . S
C1497 C1493 1.376 . S
C1497 C1496 1.392 . S
C1497 H1509 0.929 . S
C1498 C1494 1.531 . S
C1498 H1510 0.960 . S
C1498 H1511 0.962 . S
C1498 H1512 0.960 . S
C1499 C1496 1.511 . S
C1499 H1513 0.961 . S
C1499 H1514 0.961 . S
C1499 H1515 0.961 . S
C1500 C1501 1.370 . S
C1500 C1502 1.363 . S
C1500 H1516 0.931 . S
C1501 C1500 1.370 . S
C1501 C1505 1.408 . S
C1502 C1500 1.363 . S
C1502 C1503 1.370 . S
C1502 C1506 1.524 . S
C1503 C1495 1.503 . S
C1503 C1502 1.370 . S
C1503 C1504 1.403 . S
C1504 C1503 1.403 . S
C1504 C1505 1.404 . S
C1504 C1507 1.539 . S
C1505 C1501 1.408 . S
C1505 C1504 1.404 . S
C1505 H1517 0.930 . S
C1506 C1502 1.524 . S
C1506 H1518 0.956 . S
C1506 H1519 0.961 . S
C1506 H1520 0.961 . S
C1507 C1504 1.539 . S
C1507 H1521 0.958 . S
C1507 H1522 0.961 . S
C1507 H1523 0.960 . S
H1508 C1492 0.931 . S
H1509 C1497 0.929 . S
H1510 C1498 0.960 . S
H1511 C1498 0.962 . S
H1512 C1498 0.960 . S
H1513 C1499 0.961 . S
H1514 C1499 0.961 . S
H1515 C1499 0.961 . S
H1516 C1500 0.931 . S
H1517 C1505 0.930 . S
H1518 C1506 0.956 . S
H1519 C1506 0.961 . S
H1520 C1506 0.961 . S
H1521 C1507 0.958 . S
H1522 C1507 0.961 . S
H1523 C1507 0.960 . S
C1524 C1525 1.391 . S
C1524 C1526 1.394 . S
C1524 H1540 0.931 . S
C1525 C1524 1.391 . S
C1525 C1529 1.376 . S
C1526 C1524 1.394 . S
C1526 C1527 1.369 . S
C1526 C1530 1.531 . S
C1527 C1526 1.369 . S
C1527 C1528 1.410 . S
C1527 C1535 1.503 . S
C1528 C1527 1.410 . S
C1528 C1529 1.392 . S
C1528 C1531 1.511 . S
C1529 C1525 1.376 . S
C1529 C1528 1.392 . S
C1529 H1541 0.929 . S
C1530 C1526 1.531 . S
C1530 H1542 0.960 . S
C1530 H1543 0.962 . S
C1530 H1544 0.960 . S
C1531 C1528 1.511 . S
C1531 H1545 0.961 . S
C1531 H1546 0.961 . S
C1531 H1547 0.961 . S
C1532 C1533 1.370 . S
C1532 C1534 1.363 . S
C1532 H1548 0.931 . S
C1533 C1532 1.370 . S
C1533 C1537 1.408 . S
C1534 C1532 1.363 . S
C1534 C1535 1.370 . S
C1534 C1538 1.524 . S
C1535 C1527 1.503 . S
C1535 C1534 1.370 . S
C1535 C1536 1.403 . S
C1536 C1535 1.403 . S
C1536 C1537 1.404 . S
C1536 C1539 1.539 . S
C1537 C1533 1.408 . S
C1537 C1536 1.404 . S
C1537 H1549 0.930 1_554 S
C1538 C1534 1.524 . S
C1538 H1550 0.956 . S
C1538 H1551 0.961 . S
C1538 H1552 0.961 . S
C1539 C1536 1.539 . S
C1539 H1553 0.958 . S
C1539 H1554 0.961 . S
C1539 H1555 0.960 . S
H1540 C1524 0.931 . S
H1541 C1529 0.929 . S
H1542 C1530 0.960 . S
H1543 C1530 0.962 . S
H1544 C1530 0.960 . S
H1545 C1531 0.961 . S
H1546 C1531 0.961 . S
H1547 C1531 0.961 . S
H1548 C1532 0.931 . S
H1549 C1537 0.930 1_556 S
H1550 C1538 0.956 . S
H1551 C1538 0.961 . S
H1552 C1538 0.961 . S
H1553 C1539 0.958 . S
H1554 C1539 0.961 . S
H1555 C1539 0.960 . S
C1556 C1557 1.391 . S
C1556 C1558 1.394 . S
C1556 H1572 0.931 . S
C1557 C1556 1.391 . S
C1557 C1561 1.376 . S
C1558 C1556 1.394 . S
C1558 C1559 1.369 . S
C1558 C1562 1.531 . S
C1559 C1558 1.369 . S
C1559 C1560 1.410 . S
C1559 C1567 1.503 . S
C1560 C1559 1.410 . S
C1560 C1561 1.392 . S
C1560 C1563 1.511 . S
C1561 C1557 1.376 . S
C1561 C1560 1.392 . S
C1561 H1573 0.929 . S
C1562 C1558 1.531 . S
C1562 H1574 0.960 . S
C1562 H1575 0.962 . S
C1562 H1576 0.960 . S
C1563 C1560 1.511 . S
C1563 H1577 0.961 . S
C1563 H1578 0.961 . S
C1563 H1579 0.961 . S
C1564 C1565 1.370 . S
C1564 C1566 1.363 . S
C1564 H1580 0.931 . S
C1565 C1564 1.370 . S
C1565 C1569 1.408 . S
C1566 C1564 1.363 . S
C1566 C1567 1.370 . S
C1566 C1570 1.524 . S
C1567 C1559 1.503 . S
C1567 C1566 1.370 . S
C1567 C1568 1.403 . S
C1568 C1567 1.403 . S
C1568 C1569 1.404 . S
C1568 C1571 1.539 . S
C1569 C1565 1.408 . S
C1569 C1568 1.404 . S
C1569 H1581 0.930 . S
C1570 C1566 1.524 . S
C1570 H1582 0.956 . S
C1570 H1583 0.961 . S
C1570 H1584 0.961 . S
C1571 C1568 1.539 . S
C1571 H1585 0.958 . S
C1571 H1586 0.961 . S
C1571 H1587 0.960 . S
H1572 C1556 0.931 . S
H1573 C1561 0.929 . S
H1574 C1562 0.960 . S
H1575 C1562 0.962 . S
H1576 C1562 0.960 . S
H1577 C1563 0.961 . S
H1578 C1563 0.961 . S
H1579 C1563 0.961 . S
H1580 C1564 0.931 . S
H1581 C1569 0.930 . S
H1582 C1570 0.956 . S
H1583 C1570 0.961 . S
H1584 C1570 0.961 . S
H1585 C1571 0.958 . S
H1586 C1571 0.961 . S
H1587 C1571 0.960 . S
C1588 C1589 1.391 . S
C1588 C1590 1.394 . S
C1588 H1604 0.931 . S
C1589 C1588 1.391 . S
C1589 C1593 1.376 . S
C1590 C1588 1.394 . S
C1590 C1591 1.369 . S
C1590 C1594 1.531 . S
C1591 C1590 1.369 . S
C1591 C1592 1.410 . S
C1591 C1599 1.503 . S
C1592 C1591 1.410 . S
C1592 C1593 1.392 . S
C1592 C1595 1.511 . S
C1593 C1589 1.376 . S
C1593 C1592 1.392 . S
C1593 H1605 0.929 . S
C1594 C1590 1.531 . S
C1594 H1606 0.960 . S
C1594 H1607 0.962 . S
C1594 H1608 0.960 . S
C1595 C1592 1.511 . S
C1595 H1609 0.961 . S
C1595 H1610 0.961 . S
C1595 H1611 0.961 . S
C1596 C1597 1.370 . S
C1596 C1598 1.363 . S
C1596 H1612 0.931 . S
C1597 C1596 1.370 . S
C1597 C1601 1.408 . S
C1598 C1596 1.363 . S
C1598 C1599 1.370 . S
C1598 C1602 1.524 . S
C1599 C1591 1.503 . S
C1599 C1598 1.370 . S
C1599 C1600 1.403 . S
C1600 C1599 1.403 . S
C1600 C1601 1.404 . S
C1600 C1603 1.539 . S
C1601 C1597 1.408 . S
C1601 C1600 1.404 . S
C1601 H1613 0.930 . S
C1602 C1598 1.524 . S
C1602 H1614 0.956 . S
C1602 H1615 0.961 . S
C1602 H1616 0.961 . S
C1603 C1600 1.539 . S
C1603 H1617 0.958 . S
C1603 H1618 0.961 . S
C1603 H1619 0.960 . S
H1604 C1588 0.931 . S
H1605 C1593 0.929 . S
H1606 C1594 0.960 . S
H1607 C1594 0.962 . S
H1608 C1594 0.960 . S
H1609 C1595 0.961 . S
H1610 C1595 0.961 . S
H1611 C1595 0.961 . S
H1612 C1596 0.931 . S
H1613 C1601 0.930 . S
H1614 C1602 0.956 . S
H1615 C1602 0.961 . S
H1616 C1602 0.961 . S
H1617 C1603 0.958 . S
H1618 C1603 0.961 . S
H1619 C1603 0.960 . S
C757 C70 1.082 . S
C765 C658 1.132 . S
C789 C151 2.235 . S
C797 C739 2.233 . S
C821 C238 1.296 . S
C829 C571 1.495 . S
C853 C403 2.373 . S
C861 C235 2.384 . S
C885 C487 2.270 . S
C893 C67 2.259 . S
C917 C154 1.945 . S
C925 C319 2.162 . S
C949 C655 1.574 . S
C957 C490 1.442 . S
C981 C742 1.196 . S
C989 C322 1.267 . S
C1013 C406 1.548 . S
C1021 C574 1.619 . S
C1045 C226 1.445 . S
C1053 C55 1.757 . S
C1077 C142 1.236 . S
C1085 C58 1.212 . S
C1109 C139 2.948 . S
C1117 C223 3.001 1_554 S
C1141 C310 1.659 . S
C1149 C475 2.056 . S
C1173 C307 2.028 . S
C1181 C394 1.661 . S
C1205 C391 1.982 . S
C1213 C478 1.508 . S
C1237 C730 1.709 . S
C1245 C559 2.281 . S
C1269 C646 0.857 . S
C1277 C562 0.815 . S
C1301 C727 2.053 . S
C1309 C643 2.034 . S
C1333 C56 1.465 . S
C1341 C68 1.445 . S
C1365 C152 1.488 . S
C1373 C140 1.472 . S
C1397 C224 1.495 . S
C1405 C236 1.527 . S
C1429 C308 1.448 . S
C1437 C320 1.487 . S
C1461 C392 1.452 . S
C1469 C404 1.464 . S
C1493 C476 1.481 . S
C1501 C488 1.497 1_556 S
C1525 C560 1.444 . S
C1533 C572 1.460 1_554 S
C1557 C644 1.419 . S
C1565 C656 1.456 . S
C1589 C728 1.467 . S
C1597 C740 1.477 . S
