# Generated by pormake.
# Topology zni, (4)-cn, num edge types: 1
# Building blocks:
#     Node 0, Type 0, BuildingBlock: CEKHIL_clean_sbu_0, # of connection points: 4
#     Node 1, Type 0, BuildingBlock: CEKHIL_clean_sbu_0, # of connection points: 4
#     Node 2, Type 0, BuildingBlock: CEKHIL_clean_sbu_0, # of connection points: 4
#     Node 3, Type 0, BuildingBlock: CEKHIL_clean_sbu_0, # of connection points: 4
#     Node 4, Type 0, BuildingBlock: CEKHIL_clean_sbu_0, # of connection points: 4
#     Node 5, Type 0, BuildingBlock: CEKHIL_clean_sbu_0, # of connection points: 4
#     Node 6, Type 0, BuildingBlock: CEKHIL_clean_sbu_0, # of connection points: 4
#     Node 7, Type 0, BuildingBlock: CEKHIL_clean_sbu_0, # of connection points: 4
#     Node 8, Type 0, BuildingBlock: CEKHIL_clean_sbu_0, # of connection points: 4
#     Node 9, Type 0, BuildingBlock: CEKHIL_clean_sbu_0, # of connection points: 4
#     Node 10, Type 0, BuildingBlock: CEKHIL_clean_sbu_0, # of connection points: 4
#     Node 11, Type 0, BuildingBlock: CEKHIL_clean_sbu_0, # of connection points: 4
#     Node 12, Type 0, BuildingBlock: CEKHIL_clean_sbu_0, # of connection points: 4
#     Node 13, Type 0, BuildingBlock: CEKHIL_clean_sbu_0, # of connection points: 4
#     Node 14, Type 0, BuildingBlock: CEKHIL_clean_sbu_0, # of connection points: 4
#     Node 15, Type 0, BuildingBlock: CEKHIL_clean_sbu_0, # of connection points: 4
#     Node 16, Type 0, BuildingBlock: CEKHIL_clean_sbu_0, # of connection points: 4
#     Node 17, Type 0, BuildingBlock: CEKHIL_clean_sbu_0, # of connection points: 4
#     Node 18, Type 0, BuildingBlock: CEKHIL_clean_sbu_0, # of connection points: 4
#     Node 19, Type 0, BuildingBlock: CEKHIL_clean_sbu_0, # of connection points: 4
#     Node 20, Type 0, BuildingBlock: CEKHIL_clean_sbu_0, # of connection points: 4
#     Node 21, Type 0, BuildingBlock: CEKHIL_clean_sbu_0, # of connection points: 4
#     Node 22, Type 0, BuildingBlock: CEKHIL_clean_sbu_0, # of connection points: 4
#     Node 23, Type 0, BuildingBlock: CEKHIL_clean_sbu_0, # of connection points: 4
#     Node 24, Type 0, BuildingBlock: CEKHIL_clean_sbu_0, # of connection points: 4
#     Node 25, Type 0, BuildingBlock: CEKHIL_clean_sbu_0, # of connection points: 4
#     Node 26, Type 0, BuildingBlock: CEKHIL_clean_sbu_0, # of connection points: 4
#     Node 27, Type 0, BuildingBlock: CEKHIL_clean_sbu_0, # of connection points: 4
#     Node 28, Type 0, BuildingBlock: CEKHIL_clean_sbu_0, # of connection points: 4
#     Node 29, Type 0, BuildingBlock: CEKHIL_clean_sbu_0, # of connection points: 4
#     Node 30, Type 0, BuildingBlock: CEKHIL_clean_sbu_0, # of connection points: 4
#     Node 31, Type 0, BuildingBlock: CEKHIL_clean_sbu_0, # of connection points: 4
#     Edge 32, Type (0, 0), BuildingBlock: XIVTED_clean_linker_0, # of connection points: 2
#     Edge 33, Type (0, 0), BuildingBlock: XIVTED_clean_linker_0, # of connection points: 2
#     Edge 34, Type (0, 0), BuildingBlock: XIVTED_clean_linker_0, # of connection points: 2
#     Edge 35, Type (0, 0), BuildingBlock: XIVTED_clean_linker_0, # of connection points: 2
#     Edge 36, Type (0, 0), BuildingBlock: XIVTED_clean_linker_0, # of connection points: 2
#     Edge 37, Type (0, 0), BuildingBlock: XIVTED_clean_linker_0, # of connection points: 2
#     Edge 38, Type (0, 0), BuildingBlock: XIVTED_clean_linker_0, # of connection points: 2
#     Edge 39, Type (0, 0), BuildingBlock: XIVTED_clean_linker_0, # of connection points: 2
#     Edge 40, Type (0, 0), BuildingBlock: XIVTED_clean_linker_0, # of connection points: 2
#     Edge 41, Type (0, 0), BuildingBlock: XIVTED_clean_linker_0, # of connection points: 2
#     Edge 42, Type (0, 0), BuildingBlock: XIVTED_clean_linker_0, # of connection points: 2
#     Edge 43, Type (0, 0), BuildingBlock: XIVTED_clean_linker_0, # of connection points: 2
#     Edge 44, Type (0, 0), BuildingBlock: XIVTED_clean_linker_0, # of connection points: 2
#     Edge 45, Type (0, 0), BuildingBlock: XIVTED_clean_linker_0, # of connection points: 2
#     Edge 46, Type (0, 0), BuildingBlock: XIVTED_clean_linker_0, # of connection points: 2
#     Edge 47, Type (0, 0), BuildingBlock: XIVTED_clean_linker_0, # of connection points: 2
#     Edge 48, Type (0, 0), BuildingBlock: XIVTED_clean_linker_0, # of connection points: 2
#     Edge 49, Type (0, 0), BuildingBlock: XIVTED_clean_linker_0, # of connection points: 2
#     Edge 50, Type (0, 0), BuildingBlock: XIVTED_clean_linker_0, # of connection points: 2
#     Edge 51, Type (0, 0), BuildingBlock: XIVTED_clean_linker_0, # of connection points: 2
#     Edge 52, Type (0, 0), BuildingBlock: XIVTED_clean_linker_0, # of connection points: 2
#     Edge 53, Type (0, 0), BuildingBlock: XIVTED_clean_linker_0, # of connection points: 2
#     Edge 54, Type (0, 0), BuildingBlock: XIVTED_clean_linker_0, # of connection points: 2
#     Edge 55, Type (0, 0), BuildingBlock: XIVTED_clean_linker_0, # of connection points: 2
#     Edge 56, Type (0, 0), BuildingBlock: XIVTED_clean_linker_0, # of connection points: 2
#     Edge 57, Type (0, 0), BuildingBlock: XIVTED_clean_linker_0, # of connection points: 2
#     Edge 58, Type (0, 0), BuildingBlock: XIVTED_clean_linker_0, # of connection points: 2
#     Edge 59, Type (0, 0), BuildingBlock: XIVTED_clean_linker_0, # of connection points: 2
#     Edge 60, Type (0, 0), BuildingBlock: XIVTED_clean_linker_0, # of connection points: 2
#     Edge 61, Type (0, 0), BuildingBlock: XIVTED_clean_linker_0, # of connection points: 2
#     Edge 62, Type (0, 0), BuildingBlock: XIVTED_clean_linker_0, # of connection points: 2
#     Edge 63, Type (0, 0), BuildingBlock: XIVTED_clean_linker_0, # of connection points: 2
#     Edge 64, Type (0, 0), BuildingBlock: XIVTED_clean_linker_0, # of connection points: 2
#     Edge 65, Type (0, 0), BuildingBlock: XIVTED_clean_linker_0, # of connection points: 2
#     Edge 66, Type (0, 0), BuildingBlock: XIVTED_clean_linker_0, # of connection points: 2
#     Edge 67, Type (0, 0), BuildingBlock: XIVTED_clean_linker_0, # of connection points: 2
#     Edge 68, Type (0, 0), BuildingBlock: XIVTED_clean_linker_0, # of connection points: 2
#     Edge 69, Type (0, 0), BuildingBlock: XIVTED_clean_linker_0, # of connection points: 2
#     Edge 70, Type (0, 0), BuildingBlock: XIVTED_clean_linker_0, # of connection points: 2
#     Edge 71, Type (0, 0), BuildingBlock: XIVTED_clean_linker_0, # of connection points: 2
#     Edge 72, Type (0, 0), BuildingBlock: XIVTED_clean_linker_0, # of connection points: 2
#     Edge 73, Type (0, 0), BuildingBlock: XIVTED_clean_linker_0, # of connection points: 2
#     Edge 74, Type (0, 0), BuildingBlock: XIVTED_clean_linker_0, # of connection points: 2
#     Edge 75, Type (0, 0), BuildingBlock: XIVTED_clean_linker_0, # of connection points: 2
#     Edge 76, Type (0, 0), BuildingBlock: XIVTED_clean_linker_0, # of connection points: 2
#     Edge 77, Type (0, 0), BuildingBlock: XIVTED_clean_linker_0, # of connection points: 2
#     Edge 78, Type (0, 0), BuildingBlock: XIVTED_clean_linker_0, # of connection points: 2
#     Edge 79, Type (0, 0), BuildingBlock: XIVTED_clean_linker_0, # of connection points: 2
#     Edge 80, Type (0, 0), BuildingBlock: XIVTED_clean_linker_0, # of connection points: 2
#     Edge 81, Type (0, 0), BuildingBlock: XIVTED_clean_linker_0, # of connection points: 2
#     Edge 82, Type (0, 0), BuildingBlock: XIVTED_clean_linker_0, # of connection points: 2
#     Edge 83, Type (0, 0), BuildingBlock: XIVTED_clean_linker_0, # of connection points: 2
#     Edge 84, Type (0, 0), BuildingBlock: XIVTED_clean_linker_0, # of connection points: 2
#     Edge 85, Type (0, 0), BuildingBlock: XIVTED_clean_linker_0, # of connection points: 2
#     Edge 86, Type (0, 0), BuildingBlock: XIVTED_clean_linker_0, # of connection points: 2
#     Edge 87, Type (0, 0), BuildingBlock: XIVTED_clean_linker_0, # of connection points: 2
#     Edge 88, Type (0, 0), BuildingBlock: XIVTED_clean_linker_0, # of connection points: 2
#     Edge 89, Type (0, 0), BuildingBlock: XIVTED_clean_linker_0, # of connection points: 2
#     Edge 90, Type (0, 0), BuildingBlock: XIVTED_clean_linker_0, # of connection points: 2
#     Edge 91, Type (0, 0), BuildingBlock: XIVTED_clean_linker_0, # of connection points: 2
#     Edge 92, Type (0, 0), BuildingBlock: XIVTED_clean_linker_0, # of connection points: 2
#     Edge 93, Type (0, 0), BuildingBlock: XIVTED_clean_linker_0, # of connection points: 2
#     Edge 94, Type (0, 0), BuildingBlock: XIVTED_clean_linker_0, # of connection points: 2
#     Edge 95, Type (0, 0), BuildingBlock: XIVTED_clean_linker_0, # of connection points: 2
# Relax obj value: 0.226
# Max RMSD: 0.114
# Mean RMSD: 0.114
data_MOF--net-zni--node1-CEKHIL_clean_sbu_0--edge1-XIVTED_clean_linker_0
_symmetry_space_group_name_H-M    P1
_symmetry_Int_Tables_number       1
_symmetry_cell_setting            triclinic
loop_
_symmetry_equiv_pos_as_xyz
'x, y, z'
_cell_length_a     58.088125
_cell_length_b     58.080587
_cell_length_c     29.552508
_cell_angle_alpha  90.007729
_cell_angle_beta   89.985975
_cell_angle_gamma 89.999232
loop_
_atom_site_label
_atom_site_type_symbol
_atom_site_fract_x
_atom_site_fract_y
_atom_site_fract_z
_atom_type_partial_charge
Co0 Co 0.08541 0.08109 0.42678 0.0
O1 O 0.07903 0.04941 0.41333 0.0
O2 O 0.08978 0.07594 0.36339 0.0
C3 C 0.107 0.07471 0.48813 0.0
O4 O 0.09451 0.1147 0.42715 0.0
Co5 Co 0.06925 0.10482 0.51466 0.0
O6 O 0.08908 0.13095 0.49511 0.0
C7 C 0.03583 0.0961 0.44151 0.0
C8 C 0.08405 0.05474 0.37176 0.0
C9 C 0.09652 0.13173 0.45458 0.0
O10 O 0.05234 0.08936 0.4158 0.0
O11 O 0.03869 0.10137 0.48323 0.0
O12 O 0.11604 0.0731 0.44802 0.0
O13 O 0.08502 0.07814 0.48976 0.0
Co14 Co 0.15689 0.83454 0.66274 0.0
O15 O 0.18757 0.82399 0.65088 0.0
O16 O 0.16372 0.83905 0.59988 0.0
C17 C 0.16513 0.85466 0.72521 0.0
O18 O 0.12466 0.84784 0.66207 0.0
Co19 Co 0.13054 0.82053 0.74938 0.0
O20 O 0.10744 0.8437 0.72955 0.0
C21 C 0.13673 0.78682 0.67563 0.0
C22 C 0.18375 0.83036 0.60944 0.0
C23 C 0.10785 0.85162 0.68934 0.0
O24 O 0.14471 0.80283 0.65005 0.0
O25 O 0.13187 0.78993 0.71748 0.0
O26 O 0.16842 0.86373 0.68556 0.0
O27 O 0.159 0.83327 0.72581 0.0
Co28 Co 0.40726 0.91196 0.92625 0.0
O29 O 0.41252 0.944 0.91419 0.0
O30 O 0.40294 0.91763 0.863 0.0
C31 C 0.38521 0.91688 0.98749 0.0
O32 O 0.39941 0.87803 0.92523 0.0
Co33 Co 0.42395 0.88805 0.0136 0.0
O34 O 0.40496 0.86154 0.99292 0.0
C35 C 0.45729 0.89851 0.94114 0.0
C36 C 0.40785 0.93894 0.87233 0.0
C37 C 0.39778 0.86079 0.95221 0.0
O38 O 0.44068 0.90499 0.91545 0.0
O39 O 0.45445 0.89277 0.98262 0.0
O40 O 0.37624 0.91855 0.94735 0.0
O41 O 0.4073 0.91431 0.98931 0.0
Co42 Co 0.34145 0.16087 0.16218 0.0
O43 O 0.31023 0.16955 0.15036 0.0
O44 O 0.33479 0.15576 0.09941 0.0
C45 C 0.33408 0.14109 0.22547 0.0
O46 O 0.37428 0.14911 0.16164 0.0
Co47 Co 0.36735 0.17697 0.24771 0.0
O48 O 0.39131 0.15444 0.22893 0.0
C49 C 0.35971 0.20955 0.17264 0.0
C50 C 0.31428 0.16332 0.10891 0.0
C51 C 0.3912 0.14616 0.18899 0.0
O52 O 0.35206 0.19297 0.14815 0.0
O53 O 0.36499 0.20715 0.21447 0.0
O54 O 0.33135 0.1314 0.18621 0.0
O55 O 0.33936 0.16271 0.22519 0.0
Co56 Co 0.08845 0.91191 0.06896 0.0
O57 O 0.08278 0.94378 0.08177 0.0
O58 O 0.09254 0.9172 0.1324 0.0
C59 C 0.11054 0.91736 0.00799 0.0
O60 O 0.09663 0.87806 0.06913 0.0
Co61 Co 0.07189 0.88845 0.98107 0.0
O62 O 0.09113 0.86196 0.00105 0.0
C63 C 0.0385 0.89808 0.05378 0.0
C64 C 0.08728 0.93848 0.12358 0.0
C65 C 0.09837 0.86101 0.0417 0.0
O66 O 0.05511 0.90455 0.07947 0.0
O67 O 0.04132 0.8926 0.01215 0.0
O68 O 0.11941 0.91895 0.04824 0.0
O69 O 0.08848 0.91463 0.00595 0.0
Co70 Co 0.33792 0.83333 0.33268 0.0
O71 O 0.3072 0.82305 0.34515 0.0
O72 O 0.33108 0.8389 0.39518 0.0
C73 C 0.32975 0.85243 0.26894 0.0
O74 O 0.37016 0.84662 0.33265 0.0
Co75 Co 0.36444 0.818 0.24712 0.0
O76 O 0.3877 0.84124 0.26586 0.0
C77 C 0.35787 0.78539 0.32264 0.0
C78 C 0.31102 0.83013 0.38616 0.0
C79 C 0.38712 0.84987 0.30549 0.0
O80 O 0.35004 0.80182 0.34736 0.0
O81 O 0.36273 0.78788 0.28063 0.0
O82 O 0.32642 0.86213 0.30801 0.0
O83 O 0.33589 0.83104 0.26968 0.0
Co84 Co 0.40421 0.0839 0.57318 0.0
O85 O 0.40986 0.05206 0.58604 0.0
O86 O 0.39979 0.07854 0.63662 0.0
C87 C 0.38251 0.0781 0.51176 0.0
O88 O 0.39602 0.11778 0.57308 0.0
Co89 Co 0.42091 0.10717 0.48505 0.0
O90 O 0.40181 0.13375 0.50495 0.0
C91 C 0.45414 0.09756 0.55816 0.0
C92 C 0.40508 0.05726 0.62776 0.0
C93 C 0.39447 0.13481 0.54554 0.0
O94 O 0.43752 0.09133 0.5841 0.0
O95 O 0.45134 0.10278 0.5164 0.0
O96 O 0.37332 0.07676 0.55177 0.0
O97 O 0.40454 0.08101 0.5103 0.0
Co98 Co 0.16105 0.15984 0.82704 0.0
O99 O 0.19268 0.16747 0.83759 0.0
O100 O 0.16773 0.15616 0.89016 0.0
C101 C 0.16714 0.13803 0.76585 0.0
O102 O 0.12777 0.14956 0.82921 0.0
Co103 Co 0.13552 0.1747 0.74014 0.0
O104 O 0.11076 0.15369 0.76158 0.0
C105 C 0.1442 0.2088 0.81211 0.0
C106 C 0.18851 0.16257 0.87969 0.0
C107 C 0.11064 0.14657 0.80237 0.0
O108 O 0.1518 0.19268 0.83782 0.0
O109 O 0.1385 0.20553 0.77072 0.0
O110 O 0.16973 0.12932 0.80602 0.0
O111 O 0.16291 0.15986 0.76393 0.0
Co112 Co 0.90924 0.91434 0.57125 0.0
O113 O 0.91474 0.94622 0.58423 0.0
O114 O 0.90539 0.91946 0.63479 0.0
C115 C 0.88688 0.91995 0.51074 0.0
O116 O 0.90128 0.88044 0.57139 0.0
Co117 Co 0.92532 0.89104 0.48289 0.0
O118 O 0.90682 0.86415 0.50351 0.0
C119 C 0.95917 0.90123 0.55448 0.0
C120 C 0.91041 0.9408 0.62605 0.0
C121 C 0.89972 0.86324 0.54427 0.0
O122 O 0.94268 0.90721 0.58094 0.0
O123 O 0.95606 0.89591 0.51286 0.0
O124 O 0.87814 0.92127 0.55115 0.0
O125 O 0.90893 0.91721 0.50829 0.0
Co126 Co 0.83536 0.15794 0.32917 0.0
O127 O 0.80368 0.16578 0.3382 0.0
O128 O 0.82777 0.15393 0.39184 0.0
C129 C 0.8298 0.13668 0.26715 0.0
O130 O 0.86855 0.1474 0.33275 0.0
Co131 Co 0.86208 0.17325 0.244 0.0
O132 O 0.88646 0.15199 0.26611 0.0
C133 C 0.8523 0.20697 0.31608 0.0
C134 C 0.80722 0.16066 0.3804 0.0
C135 C 0.88601 0.14455 0.30666 0.0
O136 O 0.84463 0.19065 0.34123 0.0
O137 O 0.85842 0.20394 0.27485 0.0
O138 O 0.82673 0.12763 0.3069 0.0
O139 O 0.83429 0.15846 0.26608 0.0
Co140 Co 0.59029 0.08335 0.07144 0.0
O141 O 0.58551 0.05139 0.08466 0.0
O142 O 0.59459 0.07838 0.13495 0.0
C143 C 0.61247 0.07809 0.01054 0.0
O144 O 0.59755 0.11741 0.07112 0.0
Co145 Co 0.5734 0.10606 0.98295 0.0
O146 O 0.59156 0.13328 0.003 0.0
C147 C 0.54008 0.09563 0.05546 0.0
C148 C 0.59001 0.05691 0.12635 0.0
C149 C 0.59873 0.1345 0.04367 0.0
O150 O 0.55674 0.08988 0.08171 0.0
O151 O 0.54294 0.10087 0.01373 0.0
O152 O 0.62144 0.07704 0.05077 0.0
O153 O 0.59036 0.08034 0.00854 0.0
Co154 Co 0.65773 0.83609 0.83268 0.0
O155 O 0.68924 0.82788 0.84265 0.0
O156 O 0.66501 0.8404 0.89543 0.0
C157 C 0.66394 0.85688 0.77023 0.0
O158 O 0.62467 0.84713 0.83527 0.0
Co159 Co 0.63126 0.8207 0.74721 0.0
O160 O 0.60706 0.84243 0.76835 0.0
C161 C 0.64037 0.78722 0.82006 0.0
C162 C 0.68553 0.83335 0.88463 0.0
C163 C 0.6074 0.85011 0.80875 0.0
O164 O 0.64793 0.80357 0.84525 0.0
O165 O 0.63463 0.79014 0.7786 0.0
O166 O 0.66691 0.86613 0.80984 0.0
O167 O 0.65914 0.83516 0.76961 0.0
Co168 Co 0.91133 0.08573 0.92495 0.0
O169 O 0.91773 0.05416 0.91078 0.0
O170 O 0.9071 0.08099 0.86136 0.0
C171 C 0.88964 0.07878 0.98589 0.0
O172 O 0.90227 0.11936 0.92624 0.0
Co173 Co 0.92729 0.10877 0.01364 0.0
O174 O 0.90789 0.13527 0.99443 0.0
C175 C 0.96092 0.10027 0.94073 0.0
C176 C 0.91279 0.05973 0.86931 0.0
C177 C 0.90042 0.13628 0.95395 0.0
O178 O 0.94443 0.09401 0.91452 0.0
O179 O 0.95795 0.10513 0.98262 0.0
O180 O 0.88065 0.07758 0.94569 0.0
O181 O 0.9116 0.08227 0.98782 0.0
Co182 Co 0.65414 0.16266 0.66234 0.0
O183 O 0.68561 0.17088 0.65185 0.0
O184 O 0.66122 0.1581 0.59958 0.0
C185 C 0.66063 0.14203 0.72485 0.0
O186 O 0.62112 0.15152 0.66042 0.0
Co187 Co 0.62797 0.17848 0.74772 0.0
O188 O 0.60381 0.1565 0.72756 0.0
C189 C 0.63674 0.2116 0.67415 0.0
C190 C 0.6818 0.16514 0.61004 0.0
C191 C 0.604 0.14859 0.68734 0.0
O192 O 0.64428 0.19509 0.64935 0.0
O193 O 0.63106 0.20894 0.71572 0.0
O194 O 0.6635 0.13276 0.68524 0.0
O195 O 0.6558 0.16376 0.72546 0.0
Co196 Co 0.58669 0.91124 0.42401 0.0
O197 O 0.58214 0.94315 0.41011 0.0
O198 O 0.5919 0.916 0.36067 0.0
C199 C 0.60802 0.9168 0.486 0.0
O200 O 0.5939 0.87716 0.42518 0.0
Co201 Co 0.56851 0.88888 0.51179 0.0
O202 O 0.58693 0.86157 0.4932 0.0
C203 C 0.53623 0.89931 0.43749 0.0
C204 C 0.58725 0.9375 0.36876 0.0
C205 C 0.59467 0.86018 0.45295 0.0
O206 O 0.5533 0.90476 0.41202 0.0
O207 O 0.53848 0.89422 0.47944 0.0
O208 O 0.61752 0.91766 0.44622 0.0
O209 O 0.58589 0.91451 0.4869 0.0
Co210 Co 0.83834 0.83649 0.16712 0.0
O211 O 0.80678 0.82823 0.15764 0.0
O212 O 0.83104 0.83997 0.10422 0.0
C213 C 0.83223 0.85818 0.22843 0.0
O214 O 0.87141 0.84742 0.16374 0.0
Co215 Co 0.86494 0.82224 0.25309 0.0
O216 O 0.88918 0.84359 0.23068 0.0
C217 C 0.85594 0.78781 0.18192 0.0
C218 C 0.81048 0.83317 0.11539 0.0
C219 C 0.88876 0.8507 0.1899 0.0
O220 O 0.84807 0.8038 0.1562 0.0
O221 O 0.86189 0.79126 0.2231 0.0
O222 O 0.82923 0.86684 0.18833 0.0
O223 O 0.83699 0.83646 0.23027 0.0
Co224 Co 0.59064 0.5843 0.92775 0.0
O225 O 0.58523 0.55256 0.91322 0.0
O226 O 0.59486 0.57991 0.86412 0.0
C227 C 0.61272 0.5782 0.98852 0.0
O228 O 0.59863 0.61816 0.92912 0.0
Co229 Co 0.5741 0.60682 0.01655 0.0
O230 O 0.59292 0.63379 -0.00248 0.0
C231 C 0.54064 0.59762 0.94371 0.0
C232 C 0.58981 0.55847 0.87174 0.0
C233 C 0.6002 0.63506 0.95693 0.0
O234 O 0.55726 0.59157 0.91759 0.0
O235 O 0.54351 0.60269 0.98552 0.0
O236 O 0.62163 0.57719 0.94822 0.0
O237 O 0.59064 0.58084 0.99065 0.0
Co238 Co 0.65811 0.33645 0.16303 0.0
O239 O 0.68892 0.32636 0.15086 0.0
O240 O 0.66491 0.34158 0.10032 0.0
C241 C 0.66621 0.35612 0.22616 0.0
O242 O 0.62571 0.34936 0.16276 0.0
Co243 Co 0.63189 0.32147 0.24918 0.0
O244 O 0.60834 0.34427 0.22983 0.0
C245 C 0.63861 0.2884 0.17448 0.0
C246 C 0.68504 0.33304 0.10962 0.0
C247 C 0.60873 0.35257 0.18992 0.0
O248 O 0.64633 0.3047 0.14935 0.0
O249 O 0.63371 0.29113 0.21642 0.0
O250 O 0.66934 0.36556 0.1868 0.0
O251 O 0.66025 0.33468 0.22608 0.0
Co252 Co 0.90568 0.41029 0.42091 0.0
O253 O 0.91205 0.44206 0.40828 0.0
O254 O 0.90159 0.41582 0.35751 0.0
C255 C 0.88385 0.41628 0.48209 0.0
O256 O 0.8967 0.37665 0.42049 0.0
Co257 Co 0.92155 0.38624 0.50872 0.0
O258 O 0.90178 0.36023 0.4884 0.0
C259 C 0.95526 0.39539 0.43623 0.0
C260 C 0.90727 0.43698 0.36649 0.0
C261 C 0.89454 0.35957 0.44772 0.0
O262 O 0.93886 0.40216 0.41029 0.0
O263 O 0.9522 0.38999 0.47783 0.0
O264 O 0.8749 0.41803 0.44194 0.0
O265 O 0.90582 0.41294 0.48391 0.0
Co266 Co 0.83685 0.66294 0.66767 0.0
O267 O 0.80607 0.6734 0.65629 0.0
O268 O 0.82958 0.65785 0.60523 0.0
C269 C 0.82906 0.64341 0.7311 0.0
O270 O 0.86904 0.64956 0.66642 0.0
Co271 Co 0.86402 0.67765 0.75279 0.0
O272 O 0.88706 0.65444 0.73285 0.0
C273 C 0.85726 0.71071 0.67816 0.0
C274 C 0.8096 0.66661 0.61499 0.0
C275 C 0.88618 0.64608 0.69301 0.0
O276 O 0.84898 0.6945 0.65346 0.0
O277 O 0.8625 0.70797 0.71992 0.0
O278 O 0.82543 0.63401 0.69186 0.0
O279 O 0.83526 0.66479 0.73081 0.0
Co280 Co 0.59057 0.41616 0.56772 0.0
O281 O 0.58533 0.448 0.58184 0.0
O282 O 0.59456 0.42069 0.63134 0.0
C283 C 0.61291 0.42193 0.50718 0.0
O284 O 0.5983 0.38225 0.56696 0.0
Co285 Co 0.57439 0.39341 0.47886 0.0
O286 O 0.59268 0.36625 0.49887 0.0
C287 C 0.54061 0.40301 0.55101 0.0
C288 C 0.5897 0.44215 0.62343 0.0
C289 C 0.59976 0.36515 0.53961 0.0
O290 O 0.55708 0.40912 0.57741 0.0
O291 O 0.54371 0.39779 0.50933 0.0
O292 O 0.62169 0.42298 0.54757 0.0
O293 O 0.59083 0.41942 0.50481 0.0
Co294 Co 0.83949 0.33759 0.83317 0.0
O295 O 0.80851 0.32803 0.84516 0.0
O296 O 0.8326 0.34307 0.89573 0.0
C297 C 0.83186 0.3571 0.76964 0.0
O298 O 0.8721 0.35001 0.83358 0.0
Co299 Co 0.86567 0.32183 0.74752 0.0
O300 O 0.88953 0.34435 0.76675 0.0
C301 C 0.85821 0.28916 0.8226 0.0
C302 C 0.81238 0.33479 0.88635 0.0
C303 C 0.88917 0.35284 0.80651 0.0
O304 O 0.85075 0.30571 0.84747 0.0
O305 O 0.8632 0.29165 0.78065 0.0
O306 O 0.82879 0.36678 0.8088 0.0
O307 O 0.83748 0.33557 0.77014 0.0
Co308 Co 0.90706 0.58462 0.07243 0.0
O309 O 0.91241 0.55264 0.0848 0.0
O310 O 0.9038 0.57929 0.13608 0.0
C311 C 0.88398 0.57952 0.01276 0.0
O312 O 0.89936 0.61858 0.07321 0.0
Co313 Co 0.92245 0.60793 0.9835 0.0
O314 O 0.90369 0.63452 0.00465 0.0
C315 C 0.9569 0.59782 0.05407 0.0
C316 C 0.90849 0.55792 0.12684 0.0
C317 C 0.89722 0.63559 0.0458 0.0
O318 O 0.94067 0.59151 0.08088 0.0
O319 O 0.95343 0.60337 0.01268 0.0
O320 O 0.87568 0.57806 0.05349 0.0
O321 O 0.90603 0.58194 0.00946 0.0
Co322 Co 0.65714 0.65932 0.33514 0.0
O323 O 0.68775 0.66974 0.34817 0.0
O324 O 0.6633 0.65484 0.39824 0.0
C325 C 0.66592 0.63915 0.27299 0.0
O326 O 0.62489 0.6461 0.33474 0.0
Co327 Co 0.63151 0.67323 0.24768 0.0
O328 O 0.60798 0.65039 0.26705 0.0
C329 C 0.63732 0.7071 0.32126 0.0
C330 C 0.68347 0.66343 0.38949 0.0
C331 C 0.60818 0.64243 0.30723 0.0
O332 O 0.64496 0.69111 0.34726 0.0
O333 O 0.63281 0.7039 0.27928 0.0
O334 O 0.6688 0.63008 0.31276 0.0
O335 O 0.65982 0.66055 0.27214 0.0
Co336 Co 0.40982 0.41291 0.06567 0.0
O337 O 0.41516 0.44466 0.08026 0.0
O338 O 0.4046 0.41745 0.12895 0.0
C339 C 0.38886 0.41934 0.00354 0.0
O340 O 0.40166 0.3791 0.06425 0.0
Co341 Co 0.42727 0.38991 0.97811 0.0
O342 O 0.4086 0.3628 0.99694 0.0
C343 C 0.45992 0.39987 0.05204 0.0
C344 C 0.40983 0.43886 0.12144 0.0
C345 C 0.40065 0.3619 0.03708 0.0
O346 O 0.44301 0.40553 0.07776 0.0
O347 O 0.45746 0.3949 0.01008 0.0
O348 O 0.37923 0.42024 0.04321 0.0
O349 O 0.4109 0.41629 0.00282 0.0
Co350 Co 0.33974 0.65876 0.83296 0.0
O351 O 0.30811 0.66681 0.84197 0.0
O352 O 0.33205 0.65469 0.8956 0.0
C353 C 0.33398 0.63763 0.77079 0.0
O354 O 0.37287 0.64795 0.83653 0.0
Co355 Co 0.36659 0.67396 0.74786 0.0
O356 O 0.39075 0.65244 0.76983 0.0
C357 C 0.35706 0.70767 0.82011 0.0
C358 C 0.31154 0.66154 0.88413 0.0
C359 C 0.39029 0.64497 0.81037 0.0
O360 O 0.34926 0.69139 0.8452 0.0
O361 O 0.36316 0.70463 0.77887 0.0
O362 O 0.33087 0.62856 0.81051 0.0
O363 O 0.33867 0.65937 0.76983 0.0
Co364 Co 0.08469 0.58367 0.56979 0.0
O365 O 0.07985 0.5518 0.58368 0.0
O366 O 0.08998 0.57886 0.63304 0.0
C367 C 0.10586 0.57796 0.50763 0.0
O368 O 0.09228 0.61765 0.56872 0.0
Co369 Co 0.06661 0.60641 0.48238 0.0
O370 O 0.08533 0.63352 0.50097 0.0
C371 C 0.03436 0.59626 0.55689 0.0
C372 C 0.08513 0.5574 0.62498 0.0
C373 C 0.09317 0.63471 0.54116 0.0
O374 O 0.05141 0.5905 0.5821 0.0
O375 O 0.03657 0.60146 0.51498 0.0
O376 O 0.1154 0.57694 0.54735 0.0
O377 O 0.08375 0.5805 0.50687 0.0
Co378 Co 0.15599 0.33199 0.33034 0.0
O379 O 0.18761 0.32426 0.34057 0.0
O380 O 0.16301 0.33618 0.39322 0.0
C381 C 0.16212 0.35323 0.26841 0.0
O382 O 0.12277 0.34255 0.33271 0.0
Co383 Co 0.13001 0.3166 0.24439 0.0
O384 O 0.10551 0.33799 0.26543 0.0
C385 C 0.13919 0.28294 0.31689 0.0
C386 C 0.18372 0.32964 0.38254 0.0
C387 C 0.10559 0.34548 0.30596 0.0
O388 O 0.14663 0.29928 0.34226 0.0
O389 O 0.13344 0.28594 0.27546 0.0
O390 O 0.16482 0.36225 0.30828 0.0
O391 O 0.15764 0.33143 0.26718 0.0
Co392 Co 0.40821 0.58129 0.42499 0.0
O393 O 0.41329 0.54952 0.41038 0.0
O394 O 0.40312 0.57685 0.36161 0.0
C395 C 0.387 0.57517 0.48692 0.0
O396 O 0.40042 0.6152 0.42666 0.0
Co397 Co 0.42593 0.60381 0.5129 0.0
O398 O 0.40741 0.63107 0.49438 0.0
C399 C 0.45846 0.59389 0.43874 0.0
C400 C 0.40819 0.5554 0.36913 0.0
C401 C 0.39952 0.63226 0.45422 0.0
O402 O 0.44148 0.58835 0.41312 0.0
O403 O 0.45608 0.59882 0.48074 0.0
O404 O 0.37749 0.57429 0.44715 0.0
O405 O 0.40908 0.57784 0.48782 0.0
Co406 Co 0.15711 0.66011 0.1636 0.0
O407 O 0.1887 0.66808 0.15395 0.0
O408 O 0.16441 0.65622 0.1007 0.0
C409 C 0.16313 0.63872 0.22531 0.0
O410 O 0.12392 0.64941 0.16079 0.0
Co411 Co 0.13094 0.6751 0.24976 0.0
O412 O 0.1068 0.65338 0.22841 0.0
C413 C 0.14003 0.70902 0.17766 0.0
C414 C 0.18502 0.66291 0.11182 0.0
C415 C 0.10685 0.64615 0.18769 0.0
O416 O 0.14761 0.69282 0.15209 0.0
O417 O 0.13423 0.70585 0.21902 0.0
O418 O 0.166 0.62978 0.1854 0.0
O419 O 0.15858 0.66048 0.22666 0.0
Co420 Co 0.09056 0.41119 0.92129 0.0
O421 O 0.08542 0.44315 0.90856 0.0
O422 O 0.09519 0.41651 0.85802 0.0
C423 C 0.11224 0.41643 0.98288 0.0
O424 O 0.09835 0.37725 0.92101 0.0
Co425 Co 0.0734 0.38766 0.00866 0.0
O426 O 0.09246 0.36101 0.98882 0.0
C427 C 0.04036 0.39849 0.93591 0.0
C428 C 0.0902 0.43786 0.86686 0.0
C429 C 0.09985 0.36011 0.94826 0.0
O430 O 0.05717 0.40433 0.91007 0.0
O431 O 0.04303 0.39302 0.97758 0.0
O432 O 0.12148 0.41783 0.94291 0.0
O433 O 0.09016 0.41384 0.98426 0.0
Co434 Co 0.34006 0.33888 0.65738 0.0
O435 O 0.30847 0.33076 0.64811 0.0
O436 O 0.33264 0.34246 0.5945 0.0
C437 C 0.33418 0.36052 0.71888 0.0
O438 O 0.37319 0.34969 0.65409 0.0
Co439 Co 0.3665 0.32414 0.74332 0.0
O440 O 0.39059 0.34578 0.72142 0.0
C441 C 0.35696 0.28994 0.67204 0.0
C442 C 0.3121 0.33568 0.60584 0.0
C443 C 0.39036 0.35301 0.68071 0.0
O444 O 0.34957 0.30613 0.64625 0.0
O445 O 0.36282 0.29323 0.71333 0.0
O446 O 0.3311 0.36925 0.67886 0.0
O447 O 0.33879 0.33876 0.72046 0.0
H448 H 0.07839 0.00831 0.38037 0.0
H449 H 0.08208 0.98492 0.11437 0.0
H450 H 0.08845 0.0619 0.28103 0.0
H451 H 0.08995 0.9314 0.21461 0.0
H452 H 0.08038 0.01346 0.17501 0.0
H453 H 0.07846 0.97977 0.31962 0.0
C454 C 0.08055 0.01406 0.34576 0.0
C455 C 0.08349 0.03743 0.33559 0.0
C456 C 0.08251 0.99546 0.18368 0.0
C457 C 0.08355 0.00502 0.26623 0.0
C458 C 0.08343 0.97919 0.14915 0.0
C459 C 0.08623 0.95583 0.15962 0.0
C460 C 0.0842 0.98824 0.22887 0.0
C461 C 0.08788 0.94929 0.20515 0.0
C462 C 0.08066 0.99778 0.31118 0.0
C463 C 0.08622 0.044 0.29027 0.0
N464 N 0.08679 0.96544 0.2382 0.0
N465 N 0.08616 0.02784 0.25717 0.0
H466 H 0.21554 0.79636 0.59995 0.0
H467 H 0.30252 0.86133 0.45233 0.0
H468 H 0.19299 0.86077 0.54231 0.0
H469 H 0.27858 0.79685 0.3971 0.0
H470 H 0.2704 0.86065 0.50656 0.0
H471 H 0.24709 0.7951 0.54426 0.0
C472 C 0.21726 0.81015 0.57549 0.0
C473 C 0.2018 0.82866 0.57521 0.0
C474 C 0.27242 0.84665 0.48263 0.0
C475 C 0.2377 0.82763 0.51352 0.0
C476 C 0.29066 0.84693 0.45211 0.0
C477 C 0.29295 0.82913 0.42049 0.0
C478 C 0.25704 0.82811 0.48214 0.0
C479 C 0.27715 0.81091 0.42101 0.0
C480 C 0.23508 0.80938 0.54398 0.0
C481 C 0.20456 0.84616 0.5431 0.0
N482 N 0.25983 0.81071 0.45186 0.0
N483 N 0.22251 0.84544 0.51377 0.0
H484 H 0.41048 0.01095 0.61766 0.0
H485 H 0.41203 0.98544 0.88291 0.0
H486 H 0.40138 0.06376 0.71897 0.0
H487 H 0.404 0.93262 0.78128 0.0
H488 H 0.41171 0.01458 0.82324 0.0
H489 H 0.41166 0.98203 0.67748 0.0
C490 C 0.40875 0.01645 0.65253 0.0
C491 C 0.40579 0.03973 0.6635 0.0
C492 C 0.41 0.99661 0.81407 0.0
C493 C 0.40719 0.00683 0.73192 0.0
C494 C 0.41025 0.97999 0.84803 0.0
C495 C 0.408 0.95664 0.83689 0.0
C496 C 0.40767 0.98974 0.76877 0.0
C497 C 0.40571 0.95047 0.79127 0.0
C498 C 0.40937 -6e-05 0.68661 0.0
C499 C 0.40361 0.04595 0.70913 0.0
N500 N 0.40565 0.96695 0.7588 0.0
N501 N 0.40441 0.02955 0.74179 0.0
H502 H 0.1839 0.15988 0.97142 0.0
H503 H 0.31882 0.15768 0.01763 0.0
H504 H 0.23451 0.16813 0.8656 0.0
H505 H 0.26859 0.17134 0.12199 0.0
H506 H 0.28803 0.15853 0.96125 0.0
H507 H 0.21477 0.16111 0.02756 0.0
C508 C 0.2015 0.16199 0.96006 0.0
C509 C 0.20674 0.16388 0.91393 0.0
C510 C 0.2838 0.16145 0.99648 0.0
C511 C 0.24197 0.16517 0.97763 0.0
C512 C 0.30132 0.1609 0.02861 0.0
C513 C 0.29616 0.16441 0.07441 0.0
C514 C 0.26102 0.16528 0.01047 0.0
C515 C 0.27326 0.16858 0.08694 0.0
C516 C 0.21907 0.16276 0.99205 0.0
C517 C 0.22978 0.16665 0.90091 0.0
N518 N 0.25647 0.16876 0.05511 0.0
N519 N 0.24661 0.16707 0.93266 0.0
H520 H 0.90773 0.93359 0.71703 0.0
H521 H 0.90824 0.06717 0.77861 0.0
H522 H 0.91502 0.98731 0.61704 0.0
H523 H 0.91836 0.01333 0.87739 0.0
H524 H 0.90817 0.03814 0.7188 0.0
H525 H 0.90896 0.96269 0.77657 0.0
C526 C 0.90958 0.95152 0.70764 0.0
C527 C 0.91126 0.95812 0.66216 0.0
C528 C 0.9105 0.03271 0.75356 0.0
C529 C 0.91264 0.99139 0.72986 0.0
C530 C 0.91048 0.04923 0.78767 0.0
C531 C 0.91328 0.04257 0.8329 0.0
C532 C 0.91312 0.0094 0.76495 0.0
C533 C 0.91618 0.01916 0.84287 0.0
C534 C 0.91036 0.96809 0.7416 0.0
C535 C 0.9137 0.98153 0.65177 0.0
N536 N 0.91591 0.00336 0.8091 0.0
N537 N 0.91423 0.99739 0.68544 0.0
H538 H 0.76158 0.16737 0.36408 0.0
H539 H 0.72746 0.17243 0.62501 0.0
H540 H 0.81061 0.15796 0.47233 0.0
H541 H 0.67811 0.15989 0.51854 0.0
H542 H 0.75824 0.17246 0.56877 0.0
H543 H 0.73071 0.1698 0.42001 0.0
C544 C 0.76584 0.16587 0.39965 0.0
C545 C 0.78861 0.16239 0.41375 0.0
C546 C 0.74067 0.16972 0.55777 0.0
C547 C 0.75354 0.16524 0.47758 0.0
C548 C 0.7231 0.16979 0.58975 0.0
C549 C 0.70027 0.16606 0.57628 0.0
C550 C 0.73528 0.16611 0.51207 0.0
C551 C 0.69554 0.16271 0.53026 0.0
C552 C 0.74823 0.16719 0.43145 0.0
C553 C 0.79323 0.16054 0.46012 0.0
N554 N 0.71295 0.16283 0.49968 0.0
N555 N 0.7758 0.16204 0.49051 0.0
H556 H 0.59247 0.93021 0.27812 0.0
H557 H 0.59369 0.06404 0.21727 0.0
H558 H 0.5834 0.98406 0.37732 0.0
H559 H 0.58609 0.01036 0.11726 0.0
H560 H 0.59329 0.03483 0.27669 0.0
H561 H 0.59347 0.95938 0.2186 0.0
C562 C 0.5907 0.94818 0.28734 0.0
C563 C 0.58781 0.95479 0.33259 0.0
C564 C 0.59167 0.02947 0.24173 0.0
C565 C 0.58901 0.98812 0.26496 0.0
C566 C 0.59195 0.0461 0.20785 0.0
C567 C 0.58987 0.03955 0.1624 0.0
C568 C 0.58946 0.00616 0.22994 0.0
C569 C 0.58766 0.01611 0.15196 0.0
C570 C 0.59122 0.96478 0.2534 0.0
C571 C 0.58558 0.97825 0.34277 0.0
N572 N 0.58756 0.00021 0.18555 0.0
N573 N 0.58629 0.99412 0.30916 0.0
H574 H 0.73114 0.82572 0.86945 0.0
H575 H 0.76475 0.82633 0.13095 0.0
H576 H 0.68183 0.83743 0.97637 0.0
H577 H 0.8142 0.83626 0.02357 0.0
H578 H 0.73401 0.82493 0.07463 0.0
H579 H 0.7618 0.82413 0.92586 0.0
C580 C 0.72677 0.82787 0.90483 0.0
C581 C 0.70398 0.83181 0.91839 0.0
C582 C 0.7516 0.82739 0.06346 0.0
C583 C 0.73885 0.82994 0.98282 0.0
C584 C 0.76914 0.82811 0.0955 0.0
C585 C 0.79198 0.83151 0.08177 0.0
C586 C 0.75704 0.82986 0.01748 0.0
C587 C 0.79676 0.83373 0.0355 0.0
C588 C 0.74427 0.82704 0.93692 0.0
C589 C 0.69922 0.83449 0.96457 0.0
N590 N 0.77939 0.83285 0.00491 0.0
N591 N 0.71656 0.83348 0.99525 0.0
H592 H 0.59296 0.43391 0.71395 0.0
H593 H 0.59352 0.5668 0.78126 0.0
H594 H 0.5853 0.48882 0.6166 0.0
H595 H 0.58491 0.51187 0.87828 0.0
H596 H 0.59301 0.53844 0.7203 0.0
H597 H 0.59252 0.46232 0.77477 0.0
C598 C 0.59118 0.45196 0.7054 0.0
C599 C 0.58919 0.45909 0.66027 0.0
C600 C 0.59116 0.53262 0.75491 0.0
C601 C 0.58872 0.49158 0.7295 0.0
C602 C 0.59152 0.54876 0.7897 0.0
C603 C 0.58928 0.54161 0.83478 0.0
C604 C 0.58873 0.50918 0.76542 0.0
C605 C 0.58666 0.51808 0.84391 0.0
C606 C 0.59086 0.46814 0.74011 0.0
C607 C 0.58685 0.48264 0.65102 0.0
N608 N 0.58655 0.50265 0.80946 0.0
N609 N 0.58677 0.4981 0.68541 0.0
H610 H 0.80369 0.36586 0.95274 0.0
H611 H 0.71674 0.29914 0.09831 0.0
H612 H 0.78003 0.30145 0.89681 0.0
H613 H 0.69442 0.36444 0.04431 0.0
H614 H 0.7483 0.29858 0.0426 0.0
H615 H 0.77154 0.3649 0.00695 0.0
C616 C 0.79187 0.35143 0.95234 0.0
C617 C 0.79426 0.33372 0.92056 0.0
C618 C 0.73635 0.3129 0.04314 0.0
C619 C 0.75833 0.33236 0.98218 0.0
C620 C 0.71853 0.31327 0.07465 0.0
C621 C 0.70312 0.33182 0.07537 0.0
C622 C 0.73904 0.33158 0.0137 0.0
C623 C 0.70595 0.34979 0.04429 0.0
C624 C 0.77362 0.35099 0.98285 0.0
C625 C 0.77852 0.31544 0.92086 0.0
N626 N 0.72391 0.34943 0.01495 0.0
N627 N 0.76122 0.31506 0.9517 0.0
H628 H 0.90325 0.43049 0.27542 0.0
H629 H 0.90605 0.56458 0.21808 0.0
H630 H 0.91333 0.48327 0.37641 0.0
H631 H 0.91239 0.51141 0.1167 0.0
H632 H 0.90643 0.53502 0.27683 0.0
H633 H 0.90427 0.46001 0.21664 0.0
C634 C 0.9057 0.4483 0.28519 0.0
C635 C 0.90819 0.45451 0.33075 0.0
C636 C 0.90783 0.52984 0.24173 0.0
C637 C 0.9093 0.48827 0.26391 0.0
C638 C 0.90755 0.54668 0.20822 0.0
C639 C 0.90916 0.54037 0.16256 0.0
C640 C 0.90953 0.50657 0.22936 0.0
C641 C 0.91113 0.51697 0.15157 0.0
C642 C 0.90634 0.46511 0.25166 0.0
C643 C 0.91137 0.47778 0.34162 0.0
N644 N 0.91116 0.50087 0.1848 0.0
N645 N 0.91174 0.49387 0.30838 0.0
H646 H 0.69009 0.63457 0.4605 0.0
H647 H 0.77635 0.69937 0.60715 0.0
H648 H 0.71685 0.69602 0.39743 0.0
H649 H 0.80135 0.63647 0.54685 0.0
H650 H 0.74474 0.69997 0.55151 0.0
H651 H 0.72155 0.63629 0.5161 0.0
C652 C 0.70241 0.64855 0.45883 0.0
C653 C 0.70111 0.66516 0.42458 0.0
C654 C 0.75729 0.68617 0.55072 0.0
C655 C 0.73626 0.66737 0.48775 0.0
C656 C 0.77514 0.68576 0.58218 0.0
C657 C 0.79132 0.66788 0.58112 0.0
C658 C 0.75543 0.6682 0.51942 0.0
C659 C 0.78922 0.65061 0.54829 0.0
C660 C 0.72025 0.64942 0.49019 0.0
C661 C 0.7175 0.68286 0.42335 0.0
N662 N 0.77129 0.65099 0.51893 0.0
N663 N 0.73446 0.68364 0.4549 0.0
H664 H 0.40486 0.4307 0.21169 0.0
H665 H 0.40395 0.56362 0.2787 0.0
H666 H 0.41435 0.48549 0.11469 0.0
H667 H 0.41269 0.5088 0.37591 0.0
H668 H 0.40434 0.53516 0.21785 0.0
H669 H 0.40434 0.45918 0.27241 0.0
C670 C 0.40684 0.44874 0.20321 0.0
C671 C 0.40967 0.45582 0.15822 0.0
C672 C 0.40622 0.52939 0.2525 0.0
C673 C 0.40902 0.48837 0.22727 0.0
C674 C 0.40593 0.54558 0.2872 0.0
C675 C 0.40831 0.53848 0.33228 0.0
C676 C 0.40872 0.50598 0.26312 0.0
C677 C 0.41086 0.51496 0.34152 0.0
C678 C 0.4066 0.46495 0.23784 0.0
C679 C 0.41218 0.47935 0.14901 0.0
N680 N 0.41093 0.4995 0.30716 0.0
N681 N 0.41172 0.49485 0.18332 0.0
H682 H 0.23063 0.66985 0.12794 0.0
H683 H 0.26596 0.66851 0.86741 0.0
H684 H 0.18178 0.65884 0.01995 0.0
H685 H 0.31455 0.65796 0.97603 0.0
H686 H 0.23484 0.67012 0.92289 0.0
H687 H 0.26166 0.67073 0.0723 0.0
C688 C 0.22643 0.66771 0.09248 0.0
C689 C 0.20366 0.66418 0.07841 0.0
C690 C 0.25232 0.66746 0.93452 0.0
C691 C 0.23898 0.66521 0.01483 0.0
C692 C 0.27008 0.66661 0.90297 0.0
C693 C 0.2928 0.66302 0.91729 0.0
C694 C 0.25741 0.66493 0.98063 0.0
C695 C 0.29722 0.66065 0.96365 0.0
C696 C 0.24415 0.66813 0.06082 0.0
C697 C 0.19915 0.66149 0.03214 0.0
N698 N 0.27964 0.66168 0.99378 0.0
N699 N 0.21671 0.66209 0.00188 0.0
H700 H 0.09391 0.43094 0.77592 0.0
H701 H 0.09052 0.5647 0.71553 0.0
H702 H 0.0855 0.48433 0.87629 0.0
H703 H 0.08134 0.51084 0.61641 0.0
H704 H 0.09203 0.53552 0.77497 0.0
H705 H 0.09277 0.46019 0.71666 0.0
C706 C 0.09186 0.44883 0.78546 0.0
C707 C 0.08976 0.45529 0.83096 0.0
C708 C 0.08962 0.53012 0.74022 0.0
C709 C 0.08848 0.48872 0.76358 0.0
C710 C 0.08881 0.54673 0.70632 0.0
C711 C 0.08578 0.54011 0.66111 0.0
C712 C 0.08758 0.50677 0.72864 0.0
C713 C 0.08364 0.51664 0.65093 0.0
C714 C 0.09113 0.46549 0.75166 0.0
C715 C 0.08711 0.47866 0.84154 0.0
N716 N 0.08465 0.50077 0.6845 0.0
N717 N 0.08659 0.49459 0.80802 0.0
H718 H 0.18003 0.33444 0.47414 0.0
H719 H 0.31552 0.33854 0.51386 0.0
H720 H 0.22955 0.32366 0.36721 0.0
H721 H 0.26652 0.32856 0.62201 0.0
H722 H 0.28407 0.33589 0.45913 0.0
H723 H 0.21151 0.33497 0.529 0.0
C724 C 0.19752 0.33211 0.46228 0.0
C725 C 0.20227 0.32903 0.41619 0.0
C726 C 0.28025 0.33418 0.49485 0.0
C727 C 0.23821 0.32978 0.4784 0.0
C728 C 0.29815 0.33577 0.52603 0.0
C729 C 0.29354 0.33379 0.5724 0.0
C730 C 0.25764 0.33084 0.51033 0.0
C731 C 0.27078 0.33015 0.58648 0.0
C732 C 0.21545 0.33236 0.49354 0.0
C733 C 0.22519 0.32604 0.40251 0.0
N734 N 0.25361 0.32891 0.55552 0.0
N735 N 0.24237 0.32664 0.43352 0.0
H736 H 0.10483 0.17233 0.50004 0.0
H737 H 0.13072 0.24209 0.27354 0.0
H738 H 0.11081 0.14065 0.36826 0.0
H739 H 0.1406 0.27115 0.40669 0.0
H740 H 0.12333 0.20471 0.30821 0.0
H741 H 0.1181 0.20871 0.46729 0.0
C742 C 0.10908 0.17294 0.46438 0.0
C743 C 0.10646 0.15341 0.43684 0.0
C744 C 0.12728 0.21923 0.32985 0.0
C745 C 0.12148 0.19497 0.39917 0.0
C746 C 0.13144 0.24061 0.31005 0.0
C747 C 0.13616 0.25985 0.33721 0.0
C748 C 0.12756 0.21707 0.3772 0.0
C749 C 0.137 0.25682 0.38438 0.0
C750 C 0.11667 0.19371 0.44572 0.0
C751 C 0.11237 0.15523 0.39086 0.0
N752 N 0.13253 0.23588 0.4029 0.0
N753 N 0.11938 0.17567 0.37346 0.0
H754 H -0.00017 0.89318 0.50988 0.0
H755 H 0.06883 0.86467 0.73542 0.0
H756 H 0.97179 0.9038 0.64369 0.0
H757 H 0.10023 0.86677 0.60294 0.0
H758 H 0.03375 0.88107 0.70315 0.0
H759 H 0.03736 0.88545 0.54369 0.0
C760 C 0.00158 0.89408 0.54633 0.0
C761 C 0.98252 0.8989 0.57396 0.0
C762 C 0.04842 0.87816 0.68127 0.0
C763 C 0.02546 0.88989 0.61293 0.0
C764 C 0.06846 0.86877 0.69968 0.0
C765 C 0.08745 0.86403 0.6718 0.0
C766 C 0.04728 0.88265 0.6346 0.0
C767 C 0.08599 0.8699 0.62575 0.0
C768 C 0.02304 0.8897 0.56563 0.0
C769 C 0.98592 0.90001 0.621 0.0
N770 N 0.06618 0.87864 0.60854 0.0
N771 N 0.0069 0.89527 0.63901 0.0
H772 H 0.3845 0.85181 0.86527 0.0
H773 H 0.35422 0.7196 0.90973 0.0
H774 H 0.3898 0.81994 0.99698 0.0
H775 H 0.36674 0.74839 0.77719 0.0
H776 H 0.36145 0.75742 0.9431 0.0
H777 H 0.37198 0.81519 0.83381 0.0
C778 C 0.38291 0.83717 0.88775 0.0
C779 C 0.38846 0.83897 0.93389 0.0
C780 C 0.36251 0.75543 0.90672 0.0
C781 C 0.37408 0.79686 0.89775 0.0
C782 C 0.35832 0.73388 0.88757 0.0
C783 C 0.36002 0.73075 0.84052 0.0
C784 C 0.36824 0.77404 0.87864 0.0
C785 C 0.3654 0.74991 0.8136 0.0
C786 C 0.3758 0.81622 0.86962 0.0
C787 C 0.38589 0.81934 0.96119 0.0
N788 N 0.36935 0.77071 0.83307 0.0
N789 N 0.37896 0.79905 0.94265 0.0
H790 H 0.43075 0.13501 0.23532 0.0
H791 H 0.49913 0.10217 0.01114 0.0
H792 H 0.39897 0.12976 0.10355 0.0
H793 H 0.52793 0.09475 0.14511 0.0
H794 H 0.46174 0.11042 0.04498 0.0
H795 H 0.46598 0.11846 0.20383 0.0
C796 C 0.43108 0.13022 0.19991 0.0
C797 C 0.41192 0.13407 0.17197 0.0
C798 C 0.47618 0.10675 0.06699 0.0
C799 C 0.45222 0.11523 0.1357 0.0
C800 C 0.49757 0.10207 0.04766 0.0
C801 C 0.5168 0.098 0.07527 0.0
C802 C 0.47401 0.10764 0.11431 0.0
C803 C 0.51364 0.0979 0.12243 0.0
C804 C 0.4512 0.12073 0.18197 0.0
C805 C 0.41333 0.12733 0.12639 0.0
N806 N 0.49272 0.10295 0.14046 0.0
N807 N 0.4332 0.11848 0.10962 0.0
H808 H 0.13104 0.74959 0.2216 0.0
H809 H 0.10667 0.82055 0.9958 0.0
H810 H 0.14177 0.72124 0.08809 0.0
H811 H 0.11156 0.8515 0.12843 0.0
H812 H 0.11946 0.78393 0.02825 0.0
H813 H 0.1236 0.78709 0.18752 0.0
C814 C 0.13193 0.75125 0.18514 0.0
C815 C 0.13692 0.73217 0.1577 0.0
C816 C 0.11789 0.79883 0.05008 0.0
C817 C 0.12828 0.7751 0.11839 0.0
C818 C 0.11056 0.81973 0.0316 0.0
C819 C 0.10783 0.83913 0.05944 0.0
C820 C 0.12231 0.7973 0.09674 0.0
C821 C 0.11326 0.83703 0.10559 0.0
C822 C 0.12774 0.7727 0.16568 0.0
C823 C 0.13797 0.73544 0.11061 0.0
N824 N 0.12003 0.81647 0.1228 0.0
N825 N 0.13348 0.75645 0.09241 0.0
H826 H 0.52519 0.90084 0.34731 0.0
H827 H 0.39329 0.86853 0.38967 0.0
H828 H 0.49464 0.89308 0.47974 0.0
H829 H 0.42741 0.8601 0.26079 0.0
H830 H 0.42843 0.88512 0.42051 0.0
H831 H 0.48765 0.89336 0.31316 0.0
C832 C 0.51057 0.89783 0.36928 0.0
C833 C 0.51317 0.89731 0.41656 0.0
C834 C 0.42817 0.8798 0.38539 0.0
C835 C 0.47017 0.88876 0.37751 0.0
C836 C 0.40807 0.87035 0.36763 0.0
C837 C 0.40745 0.86254 0.32265 0.0
C838 C 0.44783 0.88155 0.35805 0.0
C839 C 0.42715 0.86562 0.29576 0.0
C840 C 0.48916 0.8935 0.34968 0.0
C841 C 0.49355 0.89339 0.44318 0.0
N842 N 0.44662 0.87472 0.314 0.0
N843 N 0.47291 0.88914 0.42327 0.0
H844 H 0.38126 0.14475 0.6322 0.0
H845 H 0.35393 0.27719 0.58288 0.0
H846 H 0.38685 0.17526 0.49929 0.0
H847 H 0.36588 0.24946 0.71648 0.0
H848 H 0.36017 0.23888 0.55099 0.0
H849 H 0.3695 0.18192 0.66241 0.0
C850 C 0.37986 0.1592 0.60919 0.0
C851 C 0.3853 0.15686 0.56309 0.0
C852 C 0.36133 0.24121 0.58728 0.0
C853 C 0.37183 0.19959 0.59779 0.0
C854 C 0.35772 0.26305 0.6056 0.0
C855 C 0.35954 0.26662 0.6525 0.0
C856 C 0.3666 0.22274 0.61606 0.0
C857 C 0.36448 0.2476 0.68014 0.0
C858 C 0.3732 0.18046 0.6266 0.0
C859 C 0.38301 0.17626 0.53508 0.0
N860 N 0.36786 0.2265 0.66149 0.0
N861 N 0.37654 0.19686 0.55293 0.0
H862 H 0.07079 0.13516 0.75736 0.0
H863 H 0.0016 0.10917 0.98458 0.0
H864 H 0.10225 0.13357 0.8898 0.0
H865 H 0.97312 0.0983 0.85123 0.0
H866 H 0.03894 0.11714 0.95018 0.0
H867 H 0.03512 0.12058 0.79062 0.0
C868 C 0.07028 0.13161 0.79332 0.0
C869 C 0.08952 0.13584 0.82084 0.0
C870 C 0.02456 0.11282 0.92847 0.0
C871 C 0.04871 0.11927 0.85913 0.0
C872 C 0.0032 0.1083 0.94811 0.0
C873 C 0.9841 0.10323 0.9208 0.0
C874 C 0.02683 0.1125 0.88114 0.0
C875 C 0.98731 0.10222 0.87369 0.0
C876 C 0.04991 0.12324 0.81228 0.0
C877 C 0.08786 0.13074 0.86721 0.0
N878 N 0.0082 0.10704 0.85535 0.0
N879 N 0.06776 0.12294 0.88491 0.0
H880 H 0.85651 0.72179 0.58787 0.0
H881 H 0.88591 0.85433 0.63087 0.0
H882 H 0.86745 0.7515 0.72016 0.0
H883 H 0.89275 0.82208 0.49976 0.0
H884 H 0.87367 0.81769 0.66243 0.0
H885 H 0.86469 0.75929 0.55378 0.0
C886 C 0.86052 0.73619 0.6098 0.0
C887 C 0.8614 0.73344 0.65702 0.0
C888 C 0.87779 0.81861 0.62673 0.0
C889 C 0.87065 0.77635 0.61812 0.0
C890 C 0.88472 0.83959 0.60853 0.0
C891 C 0.89059 0.84132 0.56253 0.0
C892 C 0.87655 0.79913 0.59884 0.0
C893 C 0.88855 0.82155 0.53543 0.0
C894 C 0.86524 0.75756 0.59025 0.0
C895 C 0.86671 0.75273 0.68364 0.0
N896 N 0.88176 0.80122 0.55405 0.0
N897 N 0.87111 0.77334 0.66381 0.0
H898 H 0.89333 0.13081 0.39409 0.0
H899 H 0.02391 0.09318 0.35193 0.0
H900 H 0.92626 0.13312 0.26305 0.0
H901 H 0.99511 0.10626 0.48428 0.0
H902 H 0.98651 0.10168 0.31823 0.0
H903 H 0.92878 0.11567 0.42655 0.0
C904 C 0.90794 0.12798 0.37198 0.0
C905 C 0.90684 0.1335 0.32574 0.0
C906 C 0.98837 0.10255 0.35465 0.0
C907 C 0.94755 0.11614 0.36296 0.0
C908 C 0.0097 0.09763 0.37401 0.0
C909 C 0.01276 0.09921 0.42108 0.0
C910 C 0.96989 0.10895 0.38251 0.0
C911 C 0.99365 0.10501 0.44785 0.0
C912 C 0.92821 0.11938 0.39066 0.0
C913 C 0.92635 0.12932 0.2989 0.0
N914 N 0.97306 0.10976 0.42816 0.0
N915 N 0.94595 0.12099 0.31796 0.0
H916 H 0.63899 0.27702 0.08431 0.0
H917 H 0.61268 0.14407 0.12991 0.0
H918 H 0.62947 0.24758 0.21725 0.0
H919 H 0.60472 0.17557 -0.00163 0.0
H920 H 0.62425 0.18109 0.16068 0.0
H921 H 0.63144 0.23923 0.05093 0.0
C922 C 0.63542 0.26263 0.10653 0.0
C923 C 0.63476 0.26553 0.15373 0.0
C924 C 0.62004 0.17992 0.12505 0.0
C925 C 0.62624 0.22228 0.11564 0.0
C926 C 0.61348 0.15873 0.10731 0.0
C927 C 0.60749 0.15667 0.06143 0.0
C928 C 0.62076 0.1993 0.09682 0.0
C929 C 0.60903 0.17636 0.03397 0.0
C930 C 0.63106 0.24109 0.08739 0.0
C931 C 0.63002 0.24623 0.18073 0.0
N932 N 0.61545 0.1969 0.05215 0.0
N933 N 0.62596 0.22546 0.1613 0.0
H934 H 0.60008 0.86504 0.89542 0.0
H935 H 0.46935 0.9016 0.85161 0.0
H936 H 0.5673 0.86134 0.76439 0.0
H937 H 0.49816 0.88962 0.98431 0.0
H938 H 0.50695 0.89352 0.81824 0.0
H939 H 0.56466 0.88068 0.92707 0.0
C940 C 0.58552 0.86767 0.87313 0.0
C941 C 0.58664 0.86157 0.82717 0.0
C942 C 0.50505 0.89283 0.85467 0.0
C943 C 0.54595 0.87953 0.86346 0.0
C944 C 0.48361 0.89752 0.87383 0.0
C945 C 0.48049 0.89606 0.92091 0.0
C946 C 0.52356 0.88678 0.88273 0.0
C947 C 0.49966 0.89074 0.94787 0.0
C948 C 0.56526 0.87657 0.89134 0.0
C949 C 0.56719 0.86556 0.80006 0.0
N950 N 0.52033 0.88618 0.92837 0.0
N951 N 0.54759 0.87417 0.81869 0.0
H952 H 0.85827 0.27823 0.91301 0.0
H953 H 0.88431 0.14505 0.86884 0.0
H954 H 0.8662 0.24798 0.78037 0.0
H955 H 0.89422 0.17739 -0.00092 0.0
H956 H 0.87157 0.18173 0.83823 0.0
H957 H 0.8658 0.24053 0.94689 0.0
C958 C 0.86146 0.26367 0.89097 0.0
C959 C 0.86175 0.26633 0.8437 0.0
C960 C 0.87644 0.1808 0.87355 0.0
C961 C 0.87023 0.2232 0.88235 0.0
C962 C 0.88368 0.15981 0.89121 0.0
C963 C 0.89063 0.15811 0.93661 0.0
C964 C 0.87602 0.20035 0.90139 0.0
C965 C 0.88921 0.1779 0.96383 0.0
C966 C 0.8658 0.24219 0.91039 0.0
C967 C 0.86598 0.24683 0.81692 0.0
N968 N 0.88217 0.19826 0.94571 0.0
N969 N 0.87006 0.22613 0.83663 0.0
H970 H 0.59664 0.1325 0.60151 0.0
H971 H 0.46614 0.09592 0.64787 0.0
H972 H 0.56402 0.13773 0.73253 0.0
H973 H 0.49498 0.1058 0.5145 0.0
H974 H 0.50372 0.10465 0.68074 0.0
H975 H 0.56131 0.11616 0.57095 0.0
C976 C 0.58213 0.13007 0.62403 0.0
C977 C 0.58327 0.1368 0.66964 0.0
C978 C 0.50182 0.10473 0.64429 0.0
C979 C 0.54268 0.11804 0.63461 0.0
C980 C 0.4804 0.09967 0.62542 0.0
C981 C 0.4773 0.10036 0.57828 0.0
C982 C 0.52033 0.11038 0.61585 0.0
C983 C 0.49647 0.10528 0.551 0.0
C984 C 0.56193 0.12076 0.60645 0.0
C985 C 0.56389 0.13303 0.69709 0.0
N986 N 0.51712 0.11022 0.5702 0.0
N987 N 0.54433 0.12402 0.67907 0.0
H988 H 0.62826 0.74738 0.27658 0.0
H989 H 0.60102 0.81965 0.49988 0.0
H990 H 0.6365 0.71933 0.41098 0.0
H991 H 0.60862 0.8498 0.36705 0.0
H992 H 0.61325 0.78252 0.46872 0.0
H993 H 0.61995 0.78488 0.30976 0.0
C994 C 0.62836 0.74909 0.31308 0.0
C995 C 0.63301 0.73012 0.34099 0.0
C996 C 0.61237 0.79735 0.44657 0.0
C997 C 0.62341 0.7731 0.37929 0.0
C998 C 0.60537 0.81854 0.46431 0.0
C999 C 0.60362 0.8379 0.43604 0.0
C1000 C 0.61744 0.79549 0.40022 0.0
C1001 C 0.60958 0.8354 0.39022 0.0
C1002 C 0.62369 0.77055 0.33203 0.0
C1003 C 0.63302 0.73346 0.38811 0.0
N1004 N 0.61604 0.81459 0.37374 0.0
N1005 N 0.62813 0.75451 0.4058 0.0
H1006 H 0.89592 0.86423 0.1023 0.0
H1007 H 0.02655 0.90192 0.14322 0.0
H1008 H 0.92898 0.86253 0.23322 0.0
H1009 H 0.99766 0.88811 0.01126 0.0
H1010 H 0.98911 0.89391 0.17718 0.0
H1011 H 0.93128 0.87937 0.06944 0.0
C1012 C 0.91053 0.8672 0.1243 0.0
C1013 C 0.9095 0.86183 0.17062 0.0
C1014 C 0.99095 0.89278 0.14078 0.0
C1015 C 0.95011 0.8792 0.13294 0.0
C1016 C 0.01231 0.89742 0.12126 0.0
C1017 C 0.01537 0.89546 0.07423 0.0
C1018 C 0.97244 0.88627 0.11313 0.0
C1019 C 0.99621 0.88964 0.04765 0.0
C1020 C 0.93075 0.87581 0.1054 0.0
C1021 C 0.92902 0.8662 0.19731 0.0
N1022 N 0.97559 0.88514 0.0675 0.0
N1023 N 0.94857 0.87453 0.17802 0.0
H1024 H 0.63243 0.74629 0.7768 0.0
H1025 H 0.60677 0.67592 0.00271 0.0
H1026 H 0.64125 0.77563 0.91001 0.0
H1027 H 0.61474 0.6445 0.87107 0.0
H1028 H 0.61914 0.71274 0.97031 0.0
H1029 H 0.62537 0.70887 0.81145 0.0
C1030 C 0.63297 0.74486 0.81333 0.0
C1031 C 0.63733 0.76418 0.8405 0.0
C1032 C 0.61834 0.69769 0.94872 0.0
C1033 C 0.62912 0.72134 0.88047 0.0
C1034 C 0.61126 0.67668 0.96717 0.0
C1035 C 0.60948 0.65709 0.93956 0.0
C1036 C 0.62346 0.69911 0.90232 0.0
C1037 C 0.61565 0.65912 0.89374 0.0
C1038 C 0.629 0.72346 0.83312 0.0
C1039 C 0.63795 0.76122 0.8877 0.0
N1040 N 0.62214 0.67976 0.87655 0.0
N1041 N 0.63368 0.74023 0.90623 0.0
H1042 H 0.50129 0.39373 0.00895 0.0
H1043 H 0.56888 0.3636 0.23537 0.0
H1044 H 0.47135 0.40089 0.14204 0.0
H1045 H 0.60144 0.36902 0.10433 0.0
H1046 H 0.53355 0.37931 0.2028 0.0
H1047 H 0.53863 0.38655 0.04389 0.0
C1048 C 0.50257 0.39396 0.04551 0.0
C1049 C 0.48306 0.39768 0.07255 0.0
C1050 C 0.54852 0.37728 0.18134 0.0
C1051 C 0.52581 0.38932 0.11285 0.0
C1052 C 0.56871 0.3683 0.19991 0.0
C1053 C 0.58812 0.36467 0.17247 0.0
C1054 C 0.54766 0.38249 0.13494 0.0
C1055 C 0.58689 0.37127 0.12679 0.0
C1056 C 0.52393 0.38991 0.06547 0.0
C1057 C 0.48587 0.39798 0.11979 0.0
N1058 N 0.56694 0.37959 0.10939 0.0
N1059 N 0.50678 0.39358 0.13843 0.0
H1060 H 0.84951 0.21887 0.40571 0.0
H1061 H 0.8803 0.35094 0.36123 0.0
H1062 H 0.86168 0.24774 0.27311 0.0
H1063 H 0.88612 0.31885 0.49265 0.0
H1064 H 0.86711 0.31453 0.32995 0.0
H1065 H 0.85679 0.25667 0.43909 0.0
C1066 C 0.85353 0.23316 0.38353 0.0
C1067 C 0.85515 0.23006 0.33647 0.0
C1068 C 0.87118 0.31547 0.36567 0.0
C1069 C 0.86342 0.27333 0.37461 0.0
C1070 C 0.87867 0.3363 0.38369 0.0
C1071 C 0.88461 0.33796 0.42967 0.0
C1072 C 0.86946 0.29609 0.39373 0.0
C1073 C 0.88194 0.31835 0.45697 0.0
C1074 C 0.85775 0.25471 0.4027 0.0
C1075 C 0.86042 0.24925 0.30954 0.0
N1076 N 0.87465 0.29817 0.43852 0.0
N1077 N 0.8644 0.27004 0.32901 0.0
H1078 H 0.8919 0.6284 0.60789 0.0
H1079 H 0.02353 0.59404 0.6471 0.0
H1080 H 0.92656 0.63505 0.73659 0.0
H1081 H 0.99275 0.60365 0.51536 0.0
H1082 H 0.98622 0.60173 0.68198 0.0
H1083 H 0.9268 0.61187 0.57578 0.0
C1084 C 0.90676 0.62619 0.62962 0.0
C1085 C 0.90635 0.63348 0.67495 0.0
C1086 C 0.98762 0.60197 0.64544 0.0
C1087 C 0.94644 0.61453 0.6381 0.0
C1088 C 0.00891 0.59752 0.62542 0.0
C1089 C 0.01139 0.59847 0.57814 0.0
C1090 C 0.96863 0.60726 0.61805 0.0
C1091 C 0.99175 0.60297 0.55191 0.0
C1092 C 0.92671 0.61678 0.61113 0.0
C1093 C 0.92613 0.62993 0.70138 0.0
N1094 N 0.97124 0.60733 0.57224 0.0
N1095 N 0.94544 0.62087 0.68245 0.0
H1096 H 0.6385 0.22262 0.584 0.0
H1097 H 0.61424 0.35621 0.62575 0.0
H1098 H 0.62838 0.25287 0.71608 0.0
H1099 H 0.60546 0.32372 0.49532 0.0
H1100 H 0.62553 0.31933 0.65753 0.0
H1101 H 0.6321 0.26037 0.5497 0.0
C1102 C 0.63507 0.2372 0.60586 0.0
C1103 C 0.63385 0.23452 0.65308 0.0
C1104 C 0.62121 0.32026 0.62193 0.0
C1105 C 0.62663 0.27774 0.61388 0.0
C1106 C 0.61481 0.34137 0.60359 0.0
C1107 C 0.60862 0.3431 0.55775 0.0
C1108 C 0.62158 0.30064 0.59433 0.0
C1109 C 0.60992 0.32319 0.53087 0.0
C1110 C 0.63136 0.25871 0.58617 0.0
C1111 C 0.62932 0.25405 0.67957 0.0
N1112 N 0.61617 0.30273 0.54963 0.0
N1113 N 0.62588 0.27482 0.65959 0.0
H1114 H 0.0284 0.40124 0.84629 0.0
H1115 H 0.89652 0.36973 0.8918 0.0
H1116 H -0.00078 0.39151 0.97942 0.0
H1117 H 0.92925 0.36309 0.76113 0.0
H1118 H 0.93228 0.3851 0.92246 0.0
H1119 H 0.99046 0.39448 0.81327 0.0
C1120 C 0.01401 0.39791 0.86867 0.0
C1121 C 0.0171 0.39667 0.91577 0.0
C1122 C 0.93158 0.38044 0.887 0.0
C1123 C 0.97363 0.38897 0.87801 0.0
C1124 C 0.91113 0.37171 0.86935 0.0
C1125 C 0.90991 0.36477 0.82386 0.0
C1126 C 0.95099 0.38237 0.85903 0.0
C1127 C 0.92942 0.36796 0.79649 0.0
C1128 C 0.99237 0.394 0.84971 0.0
C1129 C 0.99774 0.39239 0.94295 0.0
N1130 N 0.94922 0.37637 0.81459 0.0
N1131 N 0.97687 0.38858 0.92365 0.0
H1132 H 0.86631 0.74762 0.22613 0.0
H1133 H 0.88767 0.67576 -5e-05 0.0
H1134 H 0.85316 0.77508 0.09275 0.0
H1135 H 0.88608 0.64552 0.13349 0.0
H1136 H 0.87516 0.71241 0.03271 0.0
H1137 H 0.87389 0.71007 0.19232 0.0
C1138 C 0.86492 0.74576 0.18976 0.0
C1139 C 0.8592 0.7646 0.16227 0.0
C1140 C 0.87741 0.69767 0.0547 0.0
C1141 C 0.868 0.72162 0.12327 0.0
C1142 C 0.88458 0.67675 0.03604 0.0
C1143 C 0.88812 0.65753 0.06399 0.0
C1144 C 0.87394 0.69939 0.10165 0.0
C1145 C 0.88371 0.65984 0.11054 0.0
C1146 C 0.8692 0.72427 0.17047 0.0
C1147 C 0.85754 0.76107 0.11532 0.0
N1148 N 0.87705 0.68041 0.12789 0.0
N1149 N 0.8621 0.74004 0.09727 0.0
H1150 H 0.60153 0.62466 0.39198 0.0
H1151 H 0.46974 0.59221 0.34868 0.0
H1152 H 0.56802 0.63197 0.26225 0.0
H1153 H 0.49988 0.60059 0.48131 0.0
H1154 H 0.50737 0.59963 0.31481 0.0
H1155 H 0.56619 0.60851 0.42285 0.0
C1156 C 0.58683 0.62269 0.36977 0.0
C1157 C 0.5877 0.63005 0.32451 0.0
C1158 C 0.50575 0.59966 0.35132 0.0
C1159 C 0.54708 0.61154 0.35994 0.0
C1160 C 0.48428 0.59537 0.37076 0.0
C1161 C 0.48155 0.59605 0.418 0.0
C1162 C 0.52465 0.60451 0.37927 0.0
C1163 C 0.50108 0.60014 0.44477 0.0
C1164 C 0.56662 0.61349 0.38754 0.0
C1165 C 0.5681 0.62679 0.29742 0.0
N1166 N 0.52176 0.60434 0.42501 0.0
N1167 N 0.54852 0.61794 0.31567 0.0
H1168 H 0.38393 0.35361 0.12188 0.0
H1169 H 0.3598 0.21984 0.08204 0.0
H1170 H 0.39591 0.32015 0.99338 0.0
H1171 H 0.36763 0.25107 0.21381 0.0
H1172 H 0.36724 0.25728 0.04706 0.0
H1173 H 0.37171 0.317 0.15352 0.0
C1174 C 0.38387 0.33861 0.1001 0.0
C1175 C 0.39123 0.33999 0.05487 0.0
C1176 C 0.36725 0.25589 0.08361 0.0
C1177 C 0.3772 0.29784 0.09133 0.0
C1178 C 0.36294 0.23456 0.10366 0.0
C1179 C 0.36321 0.23226 0.15102 0.0
C1180 C 0.37159 0.2751 0.11109 0.0
C1181 C 0.36741 0.25196 0.17723 0.0
C1182 C 0.37693 0.31766 0.11836 0.0
C1183 C 0.39054 0.31989 0.02845 0.0
N1184 N 0.37142 0.27253 0.1569 0.0
N1185 N 0.38375 0.29958 0.04715 0.0
H1186 H 0.39775 0.63126 0.89781 0.0
H1187 H 0.52839 0.59419 0.85437 0.0
H1188 H 0.43033 0.63323 0.76641 0.0
H1189 H 0.49989 0.60713 0.98702 0.0
H1190 H 0.49079 0.60214 0.82113 0.0
H1191 H 0.43327 0.61609 0.93001 0.0
C1192 C 0.41229 0.62834 0.87557 0.0
C1193 C 0.41108 0.6338 0.82931 0.0
C1194 C 0.49275 0.60308 0.85753 0.0
C1195 C 0.45187 0.6164 0.86622 0.0
C1196 C 0.51421 0.59848 0.87662 0.0
C1197 C 0.51743 0.60021 0.92364 0.0
C1198 C 0.4743 0.60934 0.88558 0.0
C1199 C 0.49832 0.60578 0.95062 0.0
C1200 C 0.4326 0.61972 0.89409 0.0
C1201 C 0.4305 0.62949 0.80229 0.0
N1202 N 0.47761 0.61025 0.93118 0.0
N1203 N 0.45014 0.62116 0.8212 0.0
H1204 H 0.0996 0.67546 0.49494 0.0
H1205 H 0.12738 0.74638 0.7195 0.0
H1206 H 0.10761 0.6445 0.62695 0.0
H1207 H 0.13612 0.77503 0.5857 0.0
H1208 H 0.11894 0.70909 0.68553 0.0
H1209 H 0.11216 0.71235 0.52675 0.0
C1210 C 0.10412 0.67634 0.53045 0.0
C1211 C 0.10237 0.65683 0.55832 0.0
C1212 C 0.12282 0.7235 0.66357 0.0
C1213 C 0.11655 0.69895 0.59487 0.0
C1214 C 0.12757 0.74484 0.68297 0.0
C1215 C 0.13239 0.76392 0.65545 0.0
C1216 C 0.12264 0.72119 0.61626 0.0
C1217 C 0.13251 0.7608 0.60827 0.0
C1218 C 0.1113 0.69739 0.54856 0.0
C1219 C 0.10855 0.65902 0.60409 0.0
N1220 N 0.12753 0.73987 0.59014 0.0
N1221 N 0.11517 0.6797 0.62093 0.0
H1222 H 0.09781 0.36004 0.39271 0.0
H1223 H 0.9676 0.39776 0.34675 0.0
H1224 H 0.06564 0.35668 0.26106 0.0
H1225 H 0.99579 0.38578 0.47997 0.0
H1226 H 0.00517 0.38898 0.31396 0.0
H1227 H 0.06229 0.37571 0.42384 0.0
C1228 C 0.08335 0.36273 0.37019 0.0
C1229 C 0.08469 0.35676 0.32419 0.0
C1230 C 0.00314 0.38842 0.35037 0.0
C1231 C 0.04388 0.37476 0.35988 0.0
C1232 C 0.98171 0.39351 0.3692 0.0
C1233 C 0.97843 0.3923 0.41626 0.0
C1234 C 0.02147 0.38222 0.37875 0.0
C1235 C 0.99742 0.38674 0.44353 0.0
C1236 C 0.06304 0.37165 0.3881 0.0
C1237 C 0.06536 0.36082 0.29677 0.0
N1238 N 0.01809 0.38181 0.42435 0.0
N1239 N 0.04571 0.36946 0.3151 0.0
H1240 H 0.38298 0.64126 0.3696 0.0
H1241 H 0.35878 0.77476 0.41316 0.0
H1242 H 0.39494 0.67369 0.49909 0.0
H1243 H 0.36603 0.74421 0.28064 0.0
H1244 H 0.36662 0.73714 0.44724 0.0
H1245 H 0.37084 0.67812 0.33905 0.0
C1246 C 0.38295 0.65609 0.39182 0.0
C1247 C 0.39026 0.65434 0.437 0.0
C1248 C 0.36643 0.73873 0.41073 0.0
C1249 C 0.37632 0.6968 0.40182 0.0
C1250 C 0.3619 0.76015 0.3912 0.0
C1251 C 0.36186 0.76268 0.3439 0.0
C1252 C 0.37067 0.71968 0.38275 0.0
C1253 C 0.36605 0.74315 0.31721 0.0
C1254 C 0.37606 0.67719 0.37419 0.0
C1255 C 0.38961 0.67424 0.46402 0.0
N1256 N 0.37026 0.7225 0.33702 0.0
N1257 N 0.38286 0.69471 0.44594 0.0
H1258 H 0.99704 0.60721 0.00861 0.0
H1259 H 0.06789 0.63294 0.2337 0.0
H1260 H 0.97032 0.59452 0.14276 0.0
H1261 H 0.09804 0.63366 0.10005 0.0
H1262 H 0.03245 0.61737 0.20137 0.0
H1263 H 0.03467 0.61537 0.04159 0.0
C1264 C -0.0009 0.60593 0.04495 0.0
C1265 C 0.98038 0.60038 0.07293 0.0
C1266 C 0.0469 0.62075 0.17921 0.0
C1267 C 0.02343 0.60991 0.11096 0.0
C1268 C 0.06714 0.6297 0.19763 0.0
C1269 C 0.08594 0.63487 0.16953 0.0
C1270 C 0.04536 0.61714 0.13229 0.0
C1271 C 0.08399 0.6301 0.12307 0.0
C1272 C 0.02062 0.61058 0.06377 0.0
C1273 C 0.98418 0.59885 0.11981 0.0
N1274 N 0.064 0.62173 0.10588 0.0
N1275 N 0.00521 0.60384 0.13736 0.0
H1276 H 0.13476 0.24927 0.76813 0.0
H1277 H 0.10829 0.31962 0.99396 0.0
H1278 H 0.14552 0.22103 0.90169 0.0
H1279 H 0.11312 0.35075 0.86151 0.0
H1280 H 0.12168 0.2832 0.96146 0.0
H1281 H 0.12644 0.28659 0.80226 0.0
C1282 C 0.1355 0.25092 0.80461 0.0
C1283 C 0.14074 0.23192 0.83204 0.0
C1284 C 0.11995 0.29809 0.93968 0.0
C1285 C 0.13107 0.27463 0.87141 0.0
C1286 C 0.11227 0.31887 0.95819 0.0
C1287 C 0.10939 0.33827 0.93043 0.0
C1288 C 0.12457 0.29669 0.89308 0.0
C1289 C 0.11494 0.33628 0.8843 0.0
C1290 C 0.13079 0.27227 0.8241 0.0
C1291 C 0.14155 0.23517 0.87916 0.0
N1292 N 0.12207 0.31585 0.86708 0.0
N1293 N 0.13656 0.25607 0.89738 0.0
H1294 H 0.39818 0.36684 0.59346 0.0
H1295 H 0.52785 0.40619 0.64015 0.0
H1296 H 0.42993 0.36537 0.72563 0.0
H1297 H 0.50017 0.39347 0.50676 0.0
H1298 H 0.49017 0.3976 0.67255 0.0
H1299 H 0.43355 0.38284 0.56221 0.0
C1300 C 0.4125 0.37002 0.61606 0.0
C1301 C 0.41111 0.36447 0.66225 0.0
C1302 C 0.49233 0.39686 0.63618 0.0
C1303 C 0.45173 0.38285 0.62646 0.0
C1304 C 0.51383 0.40183 0.61756 0.0
C1305 C 0.5173 0.40031 0.57059 0.0
C1306 C 0.47411 0.39043 0.60768 0.0
C1307 C 0.4984 0.39466 0.54315 0.0
C1308 C 0.43273 0.37914 0.59809 0.0
C1309 C 0.43026 0.36915 0.68977 0.0
N1310 N 0.47766 0.3898 0.56213 0.0
N1311 N 0.44982 0.37796 0.67139 0.0
H1312 H 0.09471 0.06385 0.57404 0.0
H1313 H 0.17772 0.15012 0.67978 0.0
H1314 H 0.1511 0.09039 0.49469 0.0
H1315 H 0.15249 0.09353 0.76021 0.0
H1316 H 0.16906 0.12824 0.61114 0.0
H1317 H 0.11585 0.07347 0.64311 0.0
C1318 C 0.11175 0.07132 0.5713 0.0
C1319 C 0.12116 0.07661 0.52895 0.0
C1320 C 0.16594 0.12039 0.64382 0.0
C1321 C 0.14507 0.088 0.60723 0.0
C1322 C 0.17072 0.1329 0.68285 0.0
C1323 C 0.16556 0.1236 0.72534 0.0
C1324 C 0.15525 0.09882 0.64754 0.0
C1325 C 0.15664 0.10123 0.72785 0.0
C1326 C 0.12383 0.07666 0.61058 0.0
C1327 C 0.1433 0.08614 0.52689 0.0
N1328 N 0.15119 0.08975 0.68928 0.0
N1329 N 0.15433 0.09211 0.56566 0.0
H1330 H 0.15445 0.90019 0.73257 0.0
H1331 H 0.15318 0.89804 0.00225 0.0
H1332 H 0.17395 0.8407 0.81109 0.0
H1333 H 0.09999 0.93004 0.9222 0.0
H1334 H 0.1733 0.88725 0.93221 0.0
H1335 H 0.14701 0.92127 0.80315 0.0
C1336 C 0.15773 0.89181 0.76467 0.0
C1337 C 0.1645 0.86867 0.76641 0.0
C1338 C 0.15752 0.89714 0.93025 0.0
C1339 C 0.15648 0.89259 0.84631 0.0
C1340 C 0.14612 0.90334 0.96997 0.0
C1341 C 0.12486 0.91465 0.96756 0.0
C1342 C 0.14772 0.90281 0.88833 0.0
C1343 C 0.11625 0.92105 0.92514 0.0
C1344 C 0.15345 0.90378 0.80469 0.0
C1345 C 0.16844 0.85847 0.80862 0.0
N1346 N 0.12768 0.91492 0.88699 0.0
N1347 N 0.16424 0.87048 0.84711 0.0
H1348 H 0.39561 0.93014 0.07291 0.0
H1349 H 0.32251 0.8368 0.18353 0.0
H1350 H 0.34322 0.89624 0.99387 0.0
H1351 H 0.33887 0.89818 0.25917 0.0
H1352 H 0.32957 0.85788 0.11313 0.0
H1353 H 0.3752 0.91911 0.14206 0.0
C1354 C 0.37955 0.92075 0.07025 0.0
C1355 C 0.37105 0.91391 0.02803 0.0
C1356 C 0.33108 0.86686 0.14513 0.0
C1357 C 0.3481 0.90084 0.10637 0.0
C1358 C 0.32722 0.85483 0.18517 0.0
C1359 C 0.33037 0.86579 0.2269 0.0
C1360 C 0.33881 0.88971 0.14717 0.0
C1361 C 0.33634 0.88917 0.22749 0.0
C1362 C 0.36788 0.91458 0.10954 0.0
C1363 C 0.35022 0.9018 0.02601 0.0
N1364 N 0.34095 0.90027 0.18809 0.0
N1365 N 0.33968 0.89509 0.06487 0.0
H1366 H 0.39325 0.06249 0.4282 0.0
H1367 H 0.32508 0.15708 0.30993 0.0
H1368 H 0.34101 0.09942 0.5022 0.0
H1369 H 0.34249 0.09524 0.23664 0.0
H1370 H 0.32975 0.1361 0.3811 0.0
H1371 H 0.37423 0.073 0.35733 0.0
C1372 C 0.37745 0.07239 0.42939 0.0
C1373 C 0.36867 0.0803 0.47065 0.0
C1374 C 0.33203 0.12699 0.34941 0.0
C1375 C 0.34732 0.09285 0.39031 0.0
C1376 C 0.32957 0.13898 0.30893 0.0
C1377 C 0.33372 0.12786 0.26769 0.0
C1378 C 0.33936 0.10399 0.34844 0.0
C1379 C 0.33928 0.10439 0.26794 0.0
C1380 C 0.36657 0.07829 0.38911 0.0
C1381 C 0.34821 0.09304 0.47081 0.0
N1382 N 0.34249 0.0933 0.30788 0.0
N1383 N 0.33848 0.09949 0.43098 0.0
H1384 H 0.8446 0.90336 0.23477 0.0
H1385 H 0.8437 0.90182 0.5046 0.0
H1386 H 0.82184 0.84536 0.3142 0.0
H1387 H 0.89771 0.93301 0.42534 0.0
H1388 H 0.82343 0.89188 0.4343 0.0
H1389 H 0.85184 0.92479 0.30507 0.0
C1390 C 0.8406 0.8954 0.26698 0.0
C1391 C 0.833 0.87254 0.26913 0.0
C1392 C 0.83943 0.90142 0.43257 0.0
C1393 C 0.84075 0.89684 0.34864 0.0
C1394 C 0.85092 0.90713 0.47245 0.0
C1395 C 0.87247 0.9179 0.47031 0.0
C1396 C 0.84946 0.90699 0.39078 0.0
C1397 C 0.88124 0.92437 0.42806 0.0
C1398 C 0.84474 0.90757 0.30684 0.0
C1399 C 0.82807 0.86287 0.31144 0.0
N1400 N 0.86975 0.91866 0.38975 0.0
N1401 N 0.83217 0.87505 0.34972 0.0
H1402 H 0.90215 0.06652 0.07091 0.0
H1403 H 0.81845 0.1497 0.18211 0.0
H1404 H 0.84521 0.09338 0.99355 0.0
H1405 H 0.84454 0.0923 0.25916 0.0
H1406 H 0.8268 0.12875 0.11225 0.0
H1407 H 0.88082 0.07434 0.14061 0.0
C1408 C 0.88496 0.07368 0.06871 0.0
C1409 C 0.87545 0.07964 0.02681 0.0
C1410 C 0.83016 0.1205 0.14444 0.0
C1411 C 0.8513 0.08895 0.10583 0.0
C1412 C 0.82557 0.13248 0.18417 0.0
C1413 C 0.8311 0.1227 0.22604 0.0
C1414 C 0.84106 0.09899 0.14684 0.0
C1415 C 0.84014 0.10036 0.22727 0.0
C1416 C 0.87276 0.07797 0.10835 0.0
C1417 C 0.85311 0.08868 0.02542 0.0
N1418 N 0.84544 0.0894 0.18802 0.0
N1419 N 0.84195 0.09365 0.0646 0.0
H1420 H 0.65177 0.09615 0.73339 0.0
H1421 H 0.6538 0.09994 0.00305 0.0
H1422 H 0.66936 0.15679 0.81032 0.0
H1423 H 0.60256 0.0632 0.92601 0.0
H1424 H 0.67256 0.11136 0.93195 0.0
H1425 H 0.64662 0.07489 0.8045 0.0
C1426 C 0.65501 0.10481 0.76522 0.0
C1427 C 0.66059 0.12827 0.76639 0.0
C1428 C 0.65757 0.10029 0.93089 0.0
C1429 C 0.65525 0.10415 0.84689 0.0
C1430 C 0.64696 0.09372 0.97122 0.0
C1431 C 0.62656 0.0809 0.9699 0.0
C1432 C 0.64783 0.09354 0.88952 0.0
C1433 C 0.61816 0.07335 0.92806 0.0
C1434 C 0.65209 0.09272 0.80555 0.0
C1435 C 0.66466 0.13878 0.80828 0.0
N1436 N 0.62877 0.07993 0.88931 0.0
N1437 N 0.66177 0.12665 0.84707 0.0
H1438 H 0.59514 0.92932 0.57069 0.0
H1439 H 0.67503 0.84301 0.68554 0.0
H1440 H 0.65151 0.89982 0.49539 0.0
H1441 H 0.65031 0.90157 0.76101 0.0
H1442 H 0.66751 0.86379 0.61511 0.0
H1443 H 0.61533 0.92038 0.64117 0.0
C1444 C 0.61197 0.92132 0.56911 0.0
C1445 C 0.62165 0.91501 0.52753 0.0
C1446 C 0.66425 0.8723 0.64709 0.0
C1447 C 0.64448 0.90443 0.60745 0.0
C1448 C 0.66838 0.86042 0.68713 0.0
C1449 C 0.66302 0.87061 0.72874 0.0
C1450 C 0.65401 0.89415 0.64889 0.0
C1451 C 0.65458 0.89319 0.72936 0.0
C1452 C 0.62352 0.91638 0.60919 0.0
C1453 C 0.64351 0.90484 0.52698 0.0
N1454 N 0.64975 0.90408 0.68981 0.0
N1455 N 0.65401 0.8993 0.56655 0.0
H1456 H 0.65551 0.59715 0.99526 0.0
H1457 H 0.65509 0.59367 0.26497 0.0
H1458 H 0.60194 0.56475 0.07377 0.0
H1459 H 0.67584 0.65314 0.18761 0.0
H1460 H 0.64817 0.57279 0.19396 0.0
H1461 H 0.67547 0.60725 0.06582 0.0
C1462 C 0.64833 0.59161 0.0273 0.0
C1463 C 0.62699 0.58041 0.02914 0.0
C1464 C 0.65478 0.59022 0.19278 0.0
C1465 C 0.64969 0.59149 0.10897 0.0
C1466 C 0.65876 0.60208 0.23305 0.0
C1467 C 0.66571 0.62517 0.23173 0.0
C1468 C 0.65827 0.60148 0.15136 0.0
C1469 C 0.67017 0.63541 0.18975 0.0
C1470 C 0.65965 0.59741 0.06732 0.0
C1471 C 0.61825 0.57368 0.07126 0.0
N1472 N 0.66623 0.62351 0.15103 0.0
N1473 N 0.62959 0.57946 0.10972 0.0
H1474 H 0.60311 0.43616 0.4221 0.0
H1475 H 0.67373 0.34085 0.31171 0.0
H1476 H 0.65462 0.40071 0.50073 0.0
H1477 H 0.65779 0.40207 0.23524 0.0
H1478 H 0.66761 0.36243 0.38183 0.0
H1479 H 0.62323 0.42484 0.35284 0.0
C1480 C 0.61895 0.4264 0.42466 0.0
C1481 C 0.62723 0.41916 0.46679 0.0
C1482 C 0.66598 0.37126 0.3497 0.0
C1483 C 0.64984 0.40573 0.38828 0.0
C1484 C 0.66929 0.35894 0.30982 0.0
C1485 C 0.66598 0.36971 0.26795 0.0
C1486 C 0.65863 0.39424 0.34742 0.0
C1487 C 0.6604 0.39318 0.26704 0.0
C1488 C 0.63046 0.42005 0.38528 0.0
C1489 C 0.64778 0.40659 0.46866 0.0
N1490 N 0.65633 0.40459 0.30633 0.0
N1491 N 0.65814 0.39971 0.42973 0.0
H1492 H 0.84201 0.40263 0.75931 0.0
H1493 H 0.84153 0.3964 0.48976 0.0
H1494 H 0.82293 0.34169 0.68472 0.0
H1495 H 0.89451 0.43068 0.56664 0.0
H1496 H 0.82203 0.38631 0.56092 0.0
H1497 H 0.8486 0.42275 0.68736 0.0
C1498 C 0.83868 0.3937 0.72779 0.0
C1499 C 0.83227 0.37045 0.72756 0.0
C1500 C 0.8376 0.39656 0.56191 0.0
C1501 C 0.83929 0.3933 0.6461 0.0
C1502 C 0.84864 0.40237 0.52156 0.0
C1503 C 0.86968 0.41412 0.52282 0.0
C1504 C 0.84754 0.40306 0.60325 0.0
C1505 C 0.87839 0.42136 0.56462 0.0
C1506 C 0.84246 0.40514 0.68698 0.0
C1507 C 0.8282 0.35956 0.68604 0.0
N1508 N 0.86732 0.41559 0.60339 0.0
N1509 N 0.83191 0.37106 0.64678 0.0
H1510 H 0.84249 0.6013 0.00889 0.0
H1511 H 0.83753 0.59745 0.73941 0.0
H1512 H 0.89241 0.56546 0.92697 0.0
H1513 H 0.82241 0.65849 0.81714 0.0
H1514 H 0.84469 0.57649 0.81016 0.0
H1515 H 0.82214 0.61292 0.93961 0.0
C1516 C 0.84872 0.59533 0.97639 0.0
C1517 C 0.86918 0.58266 0.97317 0.0
C1518 C 0.83929 0.59433 0.81154 0.0
C1519 C 0.84607 0.59548 0.89484 0.0
C1520 C 0.83519 0.60625 0.7714 0.0
C1521 C 0.82973 0.62974 0.77278 0.0
C1522 C 0.83742 0.60595 0.85296 0.0
C1523 C 0.82692 0.64044 0.81489 0.0
C1524 C 0.83722 0.60201 0.93711 0.0
C1525 C 0.87678 0.57546 0.9305 0.0
N1526 N 0.83094 0.62847 0.85351 0.0
N1527 N 0.86526 0.58209 0.8928 0.0
H1528 H 0.34378 0.40649 0.7247 0.0
H1529 H 0.40225 0.43351 0.92031 0.0
H1530 H 0.32712 0.34689 0.80548 0.0
H1531 H 0.34538 0.40266 0.99193 0.0
H1532 H 0.3827 0.42572 0.84875 0.0
H1533 H 0.35159 0.42815 0.79445 0.0
C1534 C 0.34137 0.39814 0.75713 0.0
C1535 C 0.33531 0.37482 0.75967 0.0
C1536 C 0.37412 0.42136 0.88014 0.0
C1537 C 0.3441 0.39923 0.83866 0.0
C1538 C 0.38537 0.42557 0.92086 0.0
C1539 C 0.3754 0.41851 0.96169 0.0
C1540 C 0.35309 0.40948 0.88047 0.0
C1541 C 0.35355 0.40833 0.96093 0.0
C1542 C 0.34592 0.41042 0.7967 0.0
C1543 C 0.33224 0.36475 0.80229 0.0
N1544 N 0.34336 0.40348 0.92069 0.0
N1545 N 0.33682 0.377 0.84026 0.0
H1546 H 0.32332 0.65147 0.68584 0.0
H1547 H 0.39964 0.56208 0.57133 0.0
H1548 H 0.34633 0.59253 0.7622 0.0
H1549 H 0.34385 0.59297 0.4966 0.0
H1550 H 0.37998 0.57176 0.64203 0.0
H1551 H 0.32975 0.63002 0.61577 0.0
C1552 C 0.3294 0.63386 0.68772 0.0
C1553 C 0.33459 0.62374 0.72947 0.0
C1554 C 0.37176 0.57589 0.61015 0.0
C1555 C 0.34231 0.59939 0.64999 0.0
C1556 C 0.38301 0.57051 0.56994 0.0
C1557 C 0.37338 0.57702 0.52846 0.0
C1558 C 0.3512 0.5885 0.6086 0.0
C1559 C 0.3518 0.58777 0.52812 0.0
C1560 C 0.33289 0.62159 0.64789 0.0
C1561 C 0.34224 0.60087 0.73044 0.0
N1562 N 0.34164 0.59375 0.56779 0.0
N1563 N 0.34645 0.58957 0.69106 0.0
H1564 H 0.09257 0.5665 0.42257 0.0
H1565 H 0.1747 0.65151 0.31037 0.0
H1566 H 0.14982 0.59374 0.49857 0.0
H1567 H 0.14841 0.59432 0.23298 0.0
H1568 H 0.16671 0.6303 0.3801 0.0
H1569 H 0.11299 0.57541 0.3523 0.0
C1570 C 0.10963 0.574 0.42434 0.0
C1571 C 0.11949 0.5797 0.46608 0.0
C1572 C 0.16321 0.62216 0.34784 0.0
C1573 C 0.14261 0.59024 0.38643 0.0
C1574 C 0.16761 0.63429 0.3082 0.0
C1575 C 0.16195 0.62463 0.26628 0.0
C1576 C 0.15239 0.60061 0.34532 0.0
C1577 C 0.15294 0.60228 0.2649 0.0
C1578 C 0.12131 0.57892 0.38438 0.0
C1579 C 0.14165 0.58922 0.46687 0.0
N1580 N 0.14785 0.59117 0.30408 0.0
N1581 N 0.15229 0.59475 0.42744 0.0
H1582 H 0.15097 0.39867 0.26072 0.0
H1583 H 0.15452 0.39648 0.99098 0.0
H1584 H 0.17212 0.33948 0.1829 0.0
H1585 H 0.10098 0.43004 0.06766 0.0
H1586 H 0.17341 0.38559 0.06224 0.0
H1587 H 0.14496 0.41999 0.1899 0.0
C1588 C 0.15483 0.39038 0.22877 0.0
C1589 C 0.16167 0.36726 0.22724 0.0
C1590 C 0.15784 0.39585 0.06321 0.0
C1591 C 0.15533 0.39146 0.1471 0.0
C1592 C 0.14715 0.40211 0.02279 0.0
C1593 C 0.1261 0.41386 0.02391 0.0
C1594 C 0.14754 0.40186 0.10451 0.0
C1595 C 0.11708 0.4207 0.06573 0.0
C1596 C 0.1514 0.40249 0.18861 0.0
C1597 C 0.16646 0.3572 0.18521 0.0
N1598 N 0.12779 0.41445 0.10458 0.0
N1599 N 0.16307 0.36935 0.14661 0.0
loop_
_geom_bond_atom_site_label_1
_geom_bond_atom_site_label_2
_geom_bond_distance
_geom_bond_site_symmetry_2
_ccdc_geom_bond_type
Co0 O1 2.216 . S
Co0 O2 2.091 . S
Co0 O4 2.004 . S
Co0 O10 2.021 . S
Co0 O12 2.137 . S
Co0 O13 2.244 . S
O1 Co0 2.216 . S
O1 C8 1.247 . S
O2 Co0 2.091 . S
O2 C8 1.261 . S
C3 O12 1.247 . S
C3 O13 1.272 . S
O4 Co0 2.004 . S
O4 C9 1.259 . S
Co5 O6 2.061 . S
Co5 O11 2.052 . S
Co5 O13 2.135 . S
O6 Co5 2.061 . S
O6 C9 1.235 . S
C7 O10 1.238 . S
C7 O11 1.241 . S
C8 O1 1.247 . S
C8 O2 1.261 . S
C9 O4 1.259 . S
C9 O6 1.235 . S
O10 Co0 2.021 . S
O10 C7 1.238 . S
O11 Co5 2.052 . S
O11 C7 1.241 . S
O12 Co0 2.137 . S
O12 C3 1.247 . S
O13 Co0 2.244 . S
O13 C3 1.272 . S
O13 Co5 2.135 . S
Co14 O15 2.216 . S
Co14 O16 2.091 . S
Co14 O18 2.004 . S
Co14 O24 2.021 . S
Co14 O26 2.137 . S
Co14 O27 2.244 . S
O15 Co14 2.216 . S
O15 C22 1.247 . S
O16 Co14 2.091 . S
O16 C22 1.261 . S
C17 O26 1.247 . S
C17 O27 1.272 . S
O18 Co14 2.004 . S
O18 C23 1.259 . S
Co19 O20 2.061 . S
Co19 O25 2.052 . S
Co19 O27 2.135 . S
O20 Co19 2.061 . S
O20 C23 1.235 . S
C21 O24 1.238 . S
C21 O25 1.241 . S
C22 O15 1.247 . S
C22 O16 1.261 . S
C23 O18 1.259 . S
C23 O20 1.235 . S
O24 Co14 2.021 . S
O24 C21 1.238 . S
O25 Co19 2.052 . S
O25 C21 1.241 . S
O26 Co14 2.137 . S
O26 C17 1.247 . S
O27 Co14 2.244 . S
O27 C17 1.272 . S
O27 Co19 2.135 . S
Co28 O29 2.216 . S
Co28 O30 2.091 . S
Co28 O32 2.004 . S
Co28 O38 2.021 . S
Co28 O40 2.137 . S
Co28 O41 2.244 . S
O29 Co28 2.216 . S
O29 C36 1.247 . S
O30 Co28 2.091 . S
O30 C36 1.261 . S
C31 O40 1.247 . S
C31 O41 1.272 . S
O32 Co28 2.004 . S
O32 C37 1.259 . S
Co33 O34 2.061 . S
Co33 O39 2.052 . S
Co33 O41 2.135 . S
O34 Co33 2.061 . S
O34 C37 1.235 . S
C35 O38 1.238 . S
C35 O39 1.241 . S
C36 O29 1.247 . S
C36 O30 1.261 . S
C37 O32 1.259 . S
C37 O34 1.235 . S
O38 Co28 2.021 . S
O38 C35 1.238 . S
O39 Co33 2.052 . S
O39 C35 1.241 . S
O40 Co28 2.137 . S
O40 C31 1.247 . S
O41 Co28 2.244 . S
O41 C31 1.272 . S
O41 Co33 2.135 . S
Co42 O43 2.216 . S
Co42 O44 2.091 . S
Co42 O46 2.004 . S
Co42 O52 2.021 . S
Co42 O54 2.137 . S
Co42 O55 2.244 . S
O43 Co42 2.216 . S
O43 C50 1.247 . S
O44 Co42 2.091 . S
O44 C50 1.261 . S
C45 O54 1.247 . S
C45 O55 1.272 . S
O46 Co42 2.004 . S
O46 C51 1.259 . S
Co47 O48 2.061 . S
Co47 O53 2.052 . S
Co47 O55 2.135 . S
O48 Co47 2.061 . S
O48 C51 1.235 . S
C49 O52 1.238 . S
C49 O53 1.241 . S
C50 O43 1.247 . S
C50 O44 1.261 . S
C51 O46 1.259 . S
C51 O48 1.235 . S
O52 Co42 2.021 . S
O52 C49 1.238 . S
O53 Co47 2.052 . S
O53 C49 1.241 . S
O54 Co42 2.137 . S
O54 C45 1.247 . S
O55 Co42 2.244 . S
O55 C45 1.272 . S
O55 Co47 2.135 . S
Co56 O57 2.216 . S
Co56 O58 2.091 . S
Co56 O60 2.004 . S
Co56 O66 2.021 . S
Co56 O68 2.137 . S
Co56 O69 2.244 . S
O57 Co56 2.216 . S
O57 C64 1.247 . S
O58 Co56 2.091 . S
O58 C64 1.261 . S
C59 O68 1.247 . S
C59 O69 1.272 . S
O60 Co56 2.004 . S
O60 C65 1.259 . S
Co61 O62 2.061 . S
Co61 O67 2.052 . S
Co61 O69 2.135 . S
O62 Co61 2.061 . S
O62 C65 1.235 . S
C63 O66 1.238 . S
C63 O67 1.241 . S
C64 O57 1.247 . S
C64 O58 1.261 . S
C65 O60 1.259 . S
C65 O62 1.235 . S
O66 Co56 2.021 . S
O66 C63 1.238 . S
O67 Co61 2.052 . S
O67 C63 1.241 . S
O68 Co56 2.137 . S
O68 C59 1.247 . S
O69 Co56 2.244 . S
O69 C59 1.272 . S
O69 Co61 2.135 . S
Co70 O71 2.216 . S
Co70 O72 2.091 . S
Co70 O74 2.004 . S
Co70 O80 2.021 . S
Co70 O82 2.137 . S
Co70 O83 2.244 . S
O71 Co70 2.216 . S
O71 C78 1.247 . S
O72 Co70 2.091 . S
O72 C78 1.261 . S
C73 O82 1.247 . S
C73 O83 1.272 . S
O74 Co70 2.004 . S
O74 C79 1.259 . S
Co75 O76 2.061 . S
Co75 O81 2.052 . S
Co75 O83 2.135 . S
O76 Co75 2.061 . S
O76 C79 1.235 . S
C77 O80 1.238 . S
C77 O81 1.241 . S
C78 O71 1.247 . S
C78 O72 1.261 . S
C79 O74 1.259 . S
C79 O76 1.235 . S
O80 Co70 2.021 . S
O80 C77 1.238 . S
O81 Co75 2.052 . S
O81 C77 1.241 . S
O82 Co70 2.137 . S
O82 C73 1.247 . S
O83 Co70 2.244 . S
O83 C73 1.272 . S
O83 Co75 2.135 . S
Co84 O85 2.216 . S
Co84 O86 2.091 . S
Co84 O88 2.004 . S
Co84 O94 2.021 . S
Co84 O96 2.137 . S
Co84 O97 2.244 . S
O85 Co84 2.216 . S
O85 C92 1.247 . S
O86 Co84 2.091 . S
O86 C92 1.261 . S
C87 O96 1.247 . S
C87 O97 1.272 . S
O88 Co84 2.004 . S
O88 C93 1.259 . S
Co89 O90 2.061 . S
Co89 O95 2.052 . S
Co89 O97 2.135 . S
O90 Co89 2.061 . S
O90 C93 1.235 . S
C91 O94 1.238 . S
C91 O95 1.241 . S
C92 O85 1.247 . S
C92 O86 1.261 . S
C93 O88 1.259 . S
C93 O90 1.235 . S
O94 Co84 2.021 . S
O94 C91 1.238 . S
O95 Co89 2.052 . S
O95 C91 1.241 . S
O96 Co84 2.137 . S
O96 C87 1.247 . S
O97 Co84 2.244 . S
O97 C87 1.272 . S
O97 Co89 2.135 . S
Co98 O99 2.216 . S
Co98 O100 2.091 . S
Co98 O102 2.004 . S
Co98 O108 2.021 . S
Co98 O110 2.137 . S
Co98 O111 2.244 . S
O99 Co98 2.216 . S
O99 C106 1.247 . S
O100 Co98 2.091 . S
O100 C106 1.261 . S
C101 O110 1.247 . S
C101 O111 1.272 . S
O102 Co98 2.004 . S
O102 C107 1.259 . S
Co103 O104 2.061 . S
Co103 O109 2.052 . S
Co103 O111 2.135 . S
O104 Co103 2.061 . S
O104 C107 1.235 . S
C105 O108 1.238 . S
C105 O109 1.241 . S
C106 O99 1.247 . S
C106 O100 1.261 . S
C107 O102 1.259 . S
C107 O104 1.235 . S
O108 Co98 2.021 . S
O108 C105 1.238 . S
O109 Co103 2.052 . S
O109 C105 1.241 . S
O110 Co98 2.137 . S
O110 C101 1.247 . S
O111 Co98 2.244 . S
O111 C101 1.272 . S
O111 Co103 2.135 . S
Co112 O113 2.216 . S
Co112 O114 2.091 . S
Co112 O116 2.004 . S
Co112 O122 2.021 . S
Co112 O124 2.137 . S
Co112 O125 2.244 . S
O113 Co112 2.216 . S
O113 C120 1.247 . S
O114 Co112 2.091 . S
O114 C120 1.261 . S
C115 O124 1.247 . S
C115 O125 1.272 . S
O116 Co112 2.004 . S
O116 C121 1.259 . S
Co117 O118 2.061 . S
Co117 O123 2.052 . S
Co117 O125 2.135 . S
O118 Co117 2.061 . S
O118 C121 1.235 . S
C119 O122 1.238 . S
C119 O123 1.241 . S
C120 O113 1.247 . S
C120 O114 1.261 . S
C121 O116 1.259 . S
C121 O118 1.235 . S
O122 Co112 2.021 . S
O122 C119 1.238 . S
O123 Co117 2.052 . S
O123 C119 1.241 . S
O124 Co112 2.137 . S
O124 C115 1.247 . S
O125 Co112 2.244 . S
O125 C115 1.272 . S
O125 Co117 2.135 . S
Co126 O127 2.216 . S
Co126 O128 2.091 . S
Co126 O130 2.004 . S
Co126 O136 2.021 . S
Co126 O138 2.137 . S
Co126 O139 2.244 . S
O127 Co126 2.216 . S
O127 C134 1.247 . S
O128 Co126 2.091 . S
O128 C134 1.261 . S
C129 O138 1.247 . S
C129 O139 1.272 . S
O130 Co126 2.004 . S
O130 C135 1.259 . S
Co131 O132 2.061 . S
Co131 O137 2.052 . S
Co131 O139 2.135 . S
O132 Co131 2.061 . S
O132 C135 1.235 . S
C133 O136 1.238 . S
C133 O137 1.241 . S
C134 O127 1.247 . S
C134 O128 1.261 . S
C135 O130 1.259 . S
C135 O132 1.235 . S
O136 Co126 2.021 . S
O136 C133 1.238 . S
O137 Co131 2.052 . S
O137 C133 1.241 . S
O138 Co126 2.137 . S
O138 C129 1.247 . S
O139 Co126 2.244 . S
O139 C129 1.272 . S
O139 Co131 2.135 . S
Co140 O141 2.216 . S
Co140 O142 2.091 . S
Co140 O144 2.004 . S
Co140 O150 2.021 . S
Co140 O152 2.137 . S
Co140 O153 2.244 . S
O141 Co140 2.216 . S
O141 C148 1.247 . S
O142 Co140 2.091 . S
O142 C148 1.261 . S
C143 O152 1.247 . S
C143 O153 1.272 . S
O144 Co140 2.004 . S
O144 C149 1.259 . S
Co145 O146 2.061 . S
Co145 O151 2.052 . S
Co145 O153 2.135 . S
O146 Co145 2.061 . S
O146 C149 1.235 . S
C147 O150 1.238 . S
C147 O151 1.241 . S
C148 O141 1.247 . S
C148 O142 1.261 . S
C149 O144 1.259 . S
C149 O146 1.235 . S
O150 Co140 2.021 . S
O150 C147 1.238 . S
O151 Co145 2.052 . S
O151 C147 1.241 . S
O152 Co140 2.137 . S
O152 C143 1.247 . S
O153 Co140 2.244 . S
O153 C143 1.272 . S
O153 Co145 2.135 . S
Co154 O155 2.216 . S
Co154 O156 2.091 . S
Co154 O158 2.004 . S
Co154 O164 2.021 . S
Co154 O166 2.137 . S
Co154 O167 2.244 . S
O155 Co154 2.216 . S
O155 C162 1.247 . S
O156 Co154 2.091 . S
O156 C162 1.261 . S
C157 O166 1.247 . S
C157 O167 1.272 . S
O158 Co154 2.004 . S
O158 C163 1.259 . S
Co159 O160 2.061 . S
Co159 O165 2.052 . S
Co159 O167 2.135 . S
O160 Co159 2.061 . S
O160 C163 1.235 . S
C161 O164 1.238 . S
C161 O165 1.241 . S
C162 O155 1.247 . S
C162 O156 1.261 . S
C163 O158 1.259 . S
C163 O160 1.235 . S
O164 Co154 2.021 . S
O164 C161 1.238 . S
O165 Co159 2.052 . S
O165 C161 1.241 . S
O166 Co154 2.137 . S
O166 C157 1.247 . S
O167 Co154 2.244 . S
O167 C157 1.272 . S
O167 Co159 2.135 . S
Co168 O169 2.216 . S
Co168 O170 2.091 . S
Co168 O172 2.004 . S
Co168 O178 2.021 . S
Co168 O180 2.137 . S
Co168 O181 2.244 . S
O169 Co168 2.216 . S
O169 C176 1.247 . S
O170 Co168 2.091 . S
O170 C176 1.261 . S
C171 O180 1.247 . S
C171 O181 1.272 . S
O172 Co168 2.004 . S
O172 C177 1.259 . S
Co173 O174 2.061 . S
Co173 O179 2.052 . S
Co173 O181 2.135 . S
O174 Co173 2.061 . S
O174 C177 1.235 . S
C175 O178 1.238 . S
C175 O179 1.241 . S
C176 O169 1.247 . S
C176 O170 1.261 . S
C177 O172 1.259 . S
C177 O174 1.235 . S
O178 Co168 2.021 . S
O178 C175 1.238 . S
O179 Co173 2.052 . S
O179 C175 1.241 . S
O180 Co168 2.137 . S
O180 C171 1.247 . S
O181 Co168 2.244 . S
O181 C171 1.272 . S
O181 Co173 2.135 . S
Co182 O183 2.216 . S
Co182 O184 2.091 . S
Co182 O186 2.004 . S
Co182 O192 2.021 . S
Co182 O194 2.137 . S
Co182 O195 2.244 . S
O183 Co182 2.216 . S
O183 C190 1.247 . S
O184 Co182 2.091 . S
O184 C190 1.261 . S
C185 O194 1.247 . S
C185 O195 1.272 . S
O186 Co182 2.004 . S
O186 C191 1.259 . S
Co187 O188 2.061 . S
Co187 O193 2.052 . S
Co187 O195 2.135 . S
O188 Co187 2.061 . S
O188 C191 1.235 . S
C189 O192 1.238 . S
C189 O193 1.241 . S
C190 O183 1.247 . S
C190 O184 1.261 . S
C191 O186 1.259 . S
C191 O188 1.235 . S
O192 Co182 2.021 . S
O192 C189 1.238 . S
O193 Co187 2.052 . S
O193 C189 1.241 . S
O194 Co182 2.137 . S
O194 C185 1.247 . S
O195 Co182 2.244 . S
O195 C185 1.272 . S
O195 Co187 2.135 . S
Co196 O197 2.216 . S
Co196 O198 2.091 . S
Co196 O200 2.004 . S
Co196 O206 2.021 . S
Co196 O208 2.137 . S
Co196 O209 2.244 . S
O197 Co196 2.216 . S
O197 C204 1.247 . S
O198 Co196 2.091 . S
O198 C204 1.261 . S
C199 O208 1.247 . S
C199 O209 1.272 . S
O200 Co196 2.004 . S
O200 C205 1.259 . S
Co201 O202 2.061 . S
Co201 O207 2.052 . S
Co201 O209 2.135 . S
O202 Co201 2.061 . S
O202 C205 1.235 . S
C203 O206 1.238 . S
C203 O207 1.241 . S
C204 O197 1.247 . S
C204 O198 1.261 . S
C205 O200 1.259 . S
C205 O202 1.235 . S
O206 Co196 2.021 . S
O206 C203 1.238 . S
O207 Co201 2.052 . S
O207 C203 1.241 . S
O208 Co196 2.137 . S
O208 C199 1.247 . S
O209 Co196 2.244 . S
O209 C199 1.272 . S
O209 Co201 2.135 . S
Co210 O211 2.216 . S
Co210 O212 2.091 . S
Co210 O214 2.004 . S
Co210 O220 2.021 . S
Co210 O222 2.137 . S
Co210 O223 2.244 . S
O211 Co210 2.216 . S
O211 C218 1.247 . S
O212 Co210 2.091 . S
O212 C218 1.261 . S
C213 O222 1.247 . S
C213 O223 1.272 . S
O214 Co210 2.004 . S
O214 C219 1.259 . S
Co215 O216 2.061 . S
Co215 O221 2.052 . S
Co215 O223 2.135 . S
O216 Co215 2.061 . S
O216 C219 1.235 . S
C217 O220 1.238 . S
C217 O221 1.241 . S
C218 O211 1.247 . S
C218 O212 1.261 . S
C219 O214 1.259 . S
C219 O216 1.235 . S
O220 Co210 2.021 . S
O220 C217 1.238 . S
O221 Co215 2.052 . S
O221 C217 1.241 . S
O222 Co210 2.137 . S
O222 C213 1.247 . S
O223 Co210 2.244 . S
O223 C213 1.272 . S
O223 Co215 2.135 . S
Co224 O225 2.216 . S
Co224 O226 2.091 . S
Co224 O228 2.004 . S
Co224 O234 2.021 . S
Co224 O236 2.137 . S
Co224 O237 2.244 . S
O225 Co224 2.216 . S
O225 C232 1.247 . S
O226 Co224 2.091 . S
O226 C232 1.261 . S
C227 O236 1.247 . S
C227 O237 1.272 . S
O228 Co224 2.004 . S
O228 C233 1.259 . S
Co229 O230 2.061 . S
Co229 O235 2.052 . S
Co229 O237 2.135 . S
O230 Co229 2.061 . S
O230 C233 1.235 . S
C231 O234 1.238 . S
C231 O235 1.241 . S
C232 O225 1.247 . S
C232 O226 1.261 . S
C233 O228 1.259 . S
C233 O230 1.235 . S
O234 Co224 2.021 . S
O234 C231 1.238 . S
O235 Co229 2.052 . S
O235 C231 1.241 . S
O236 Co224 2.137 . S
O236 C227 1.247 . S
O237 Co224 2.244 . S
O237 C227 1.272 . S
O237 Co229 2.135 . S
Co238 O239 2.216 . S
Co238 O240 2.091 . S
Co238 O242 2.004 . S
Co238 O248 2.021 . S
Co238 O250 2.137 . S
Co238 O251 2.244 . S
O239 Co238 2.216 . S
O239 C246 1.247 . S
O240 Co238 2.091 . S
O240 C246 1.261 . S
C241 O250 1.247 . S
C241 O251 1.272 . S
O242 Co238 2.004 . S
O242 C247 1.259 . S
Co243 O244 2.061 . S
Co243 O249 2.052 . S
Co243 O251 2.135 . S
O244 Co243 2.061 . S
O244 C247 1.235 . S
C245 O248 1.238 . S
C245 O249 1.241 . S
C246 O239 1.247 . S
C246 O240 1.261 . S
C247 O242 1.259 . S
C247 O244 1.235 . S
O248 Co238 2.021 . S
O248 C245 1.238 . S
O249 Co243 2.052 . S
O249 C245 1.241 . S
O250 Co238 2.137 . S
O250 C241 1.247 . S
O251 Co238 2.244 . S
O251 C241 1.272 . S
O251 Co243 2.135 . S
Co252 O253 2.216 . S
Co252 O254 2.091 . S
Co252 O256 2.004 . S
Co252 O262 2.021 . S
Co252 O264 2.137 . S
Co252 O265 2.244 . S
O253 Co252 2.216 . S
O253 C260 1.247 . S
O254 Co252 2.091 . S
O254 C260 1.261 . S
C255 O264 1.247 . S
C255 O265 1.272 . S
O256 Co252 2.004 . S
O256 C261 1.259 . S
Co257 O258 2.061 . S
Co257 O263 2.052 . S
Co257 O265 2.135 . S
O258 Co257 2.061 . S
O258 C261 1.235 . S
C259 O262 1.238 . S
C259 O263 1.241 . S
C260 O253 1.247 . S
C260 O254 1.261 . S
C261 O256 1.259 . S
C261 O258 1.235 . S
O262 Co252 2.021 . S
O262 C259 1.238 . S
O263 Co257 2.052 . S
O263 C259 1.241 . S
O264 Co252 2.137 . S
O264 C255 1.247 . S
O265 Co252 2.244 . S
O265 C255 1.272 . S
O265 Co257 2.135 . S
Co266 O267 2.216 . S
Co266 O268 2.091 . S
Co266 O270 2.004 . S
Co266 O276 2.021 . S
Co266 O278 2.137 . S
Co266 O279 2.244 . S
O267 Co266 2.216 . S
O267 C274 1.247 . S
O268 Co266 2.091 . S
O268 C274 1.261 . S
C269 O278 1.247 . S
C269 O279 1.272 . S
O270 Co266 2.004 . S
O270 C275 1.259 . S
Co271 O272 2.061 . S
Co271 O277 2.052 . S
Co271 O279 2.135 . S
O272 Co271 2.061 . S
O272 C275 1.235 . S
C273 O276 1.238 . S
C273 O277 1.241 . S
C274 O267 1.247 . S
C274 O268 1.261 . S
C275 O270 1.259 . S
C275 O272 1.235 . S
O276 Co266 2.021 . S
O276 C273 1.238 . S
O277 Co271 2.052 . S
O277 C273 1.241 . S
O278 Co266 2.137 . S
O278 C269 1.247 . S
O279 Co266 2.244 . S
O279 C269 1.272 . S
O279 Co271 2.135 . S
Co280 O281 2.216 . S
Co280 O282 2.091 . S
Co280 O284 2.004 . S
Co280 O290 2.021 . S
Co280 O292 2.137 . S
Co280 O293 2.244 . S
O281 Co280 2.216 . S
O281 C288 1.247 . S
O282 Co280 2.091 . S
O282 C288 1.261 . S
C283 O292 1.247 . S
C283 O293 1.272 . S
O284 Co280 2.004 . S
O284 C289 1.259 . S
Co285 O286 2.061 . S
Co285 O291 2.052 . S
Co285 O293 2.135 . S
O286 Co285 2.061 . S
O286 C289 1.235 . S
C287 O290 1.238 . S
C287 O291 1.241 . S
C288 O281 1.247 . S
C288 O282 1.261 . S
C289 O284 1.259 . S
C289 O286 1.235 . S
O290 Co280 2.021 . S
O290 C287 1.238 . S
O291 Co285 2.052 . S
O291 C287 1.241 . S
O292 Co280 2.137 . S
O292 C283 1.247 . S
O293 Co280 2.244 . S
O293 C283 1.272 . S
O293 Co285 2.135 . S
Co294 O295 2.216 . S
Co294 O296 2.091 . S
Co294 O298 2.004 . S
Co294 O304 2.021 . S
Co294 O306 2.137 . S
Co294 O307 2.244 . S
O295 Co294 2.216 . S
O295 C302 1.247 . S
O296 Co294 2.091 . S
O296 C302 1.261 . S
C297 O306 1.247 . S
C297 O307 1.272 . S
O298 Co294 2.004 . S
O298 C303 1.259 . S
Co299 O300 2.061 . S
Co299 O305 2.052 . S
Co299 O307 2.135 . S
O300 Co299 2.061 . S
O300 C303 1.235 . S
C301 O304 1.238 . S
C301 O305 1.241 . S
C302 O295 1.247 . S
C302 O296 1.261 . S
C303 O298 1.259 . S
C303 O300 1.235 . S
O304 Co294 2.021 . S
O304 C301 1.238 . S
O305 Co299 2.052 . S
O305 C301 1.241 . S
O306 Co294 2.137 . S
O306 C297 1.247 . S
O307 Co294 2.244 . S
O307 C297 1.272 . S
O307 Co299 2.135 . S
Co308 O309 2.216 . S
Co308 O310 2.091 . S
Co308 O312 2.004 . S
Co308 O318 2.021 . S
Co308 O320 2.137 . S
Co308 O321 2.244 . S
O309 Co308 2.216 . S
O309 C316 1.247 . S
O310 Co308 2.091 . S
O310 C316 1.261 . S
C311 O320 1.247 . S
C311 O321 1.272 . S
O312 Co308 2.004 . S
O312 C317 1.259 . S
Co313 O314 2.061 . S
Co313 O319 2.052 . S
Co313 O321 2.135 . S
O314 Co313 2.061 . S
O314 C317 1.235 . S
C315 O318 1.238 . S
C315 O319 1.241 . S
C316 O309 1.247 . S
C316 O310 1.261 . S
C317 O312 1.259 . S
C317 O314 1.235 . S
O318 Co308 2.021 . S
O318 C315 1.238 . S
O319 Co313 2.052 . S
O319 C315 1.241 . S
O320 Co308 2.137 . S
O320 C311 1.247 . S
O321 Co308 2.244 . S
O321 C311 1.272 . S
O321 Co313 2.135 . S
Co322 O323 2.216 . S
Co322 O324 2.091 . S
Co322 O326 2.004 . S
Co322 O332 2.021 . S
Co322 O334 2.137 . S
Co322 O335 2.244 . S
O323 Co322 2.216 . S
O323 C330 1.247 . S
O324 Co322 2.091 . S
O324 C330 1.261 . S
C325 O334 1.247 . S
C325 O335 1.272 . S
O326 Co322 2.004 . S
O326 C331 1.259 . S
Co327 O328 2.061 . S
Co327 O333 2.052 . S
Co327 O335 2.135 . S
O328 Co327 2.061 . S
O328 C331 1.235 . S
C329 O332 1.238 . S
C329 O333 1.241 . S
C330 O323 1.247 . S
C330 O324 1.261 . S
C331 O326 1.259 . S
C331 O328 1.235 . S
O332 Co322 2.021 . S
O332 C329 1.238 . S
O333 Co327 2.052 . S
O333 C329 1.241 . S
O334 Co322 2.137 . S
O334 C325 1.247 . S
O335 Co322 2.244 . S
O335 C325 1.272 . S
O335 Co327 2.135 . S
Co336 O337 2.216 . S
Co336 O338 2.091 . S
Co336 O340 2.004 . S
Co336 O346 2.021 . S
Co336 O348 2.137 . S
Co336 O349 2.244 . S
O337 Co336 2.216 . S
O337 C344 1.247 . S
O338 Co336 2.091 . S
O338 C344 1.261 . S
C339 O348 1.247 . S
C339 O349 1.272 . S
O340 Co336 2.004 . S
O340 C345 1.259 . S
Co341 O342 2.061 . S
Co341 O347 2.052 . S
Co341 O349 2.135 . S
O342 Co341 2.061 . S
O342 C345 1.235 . S
C343 O346 1.238 . S
C343 O347 1.241 . S
C344 O337 1.247 . S
C344 O338 1.261 . S
C345 O340 1.259 . S
C345 O342 1.235 . S
O346 Co336 2.021 . S
O346 C343 1.238 . S
O347 Co341 2.052 . S
O347 C343 1.241 . S
O348 Co336 2.137 . S
O348 C339 1.247 . S
O349 Co336 2.244 . S
O349 C339 1.272 . S
O349 Co341 2.135 . S
Co350 O351 2.216 . S
Co350 O352 2.091 . S
Co350 O354 2.004 . S
Co350 O360 2.021 . S
Co350 O362 2.137 . S
Co350 O363 2.244 . S
O351 Co350 2.216 . S
O351 C358 1.247 . S
O352 Co350 2.091 . S
O352 C358 1.261 . S
C353 O362 1.247 . S
C353 O363 1.272 . S
O354 Co350 2.004 . S
O354 C359 1.259 . S
Co355 O356 2.061 . S
Co355 O361 2.052 . S
Co355 O363 2.135 . S
O356 Co355 2.061 . S
O356 C359 1.235 . S
C357 O360 1.238 . S
C357 O361 1.241 . S
C358 O351 1.247 . S
C358 O352 1.261 . S
C359 O354 1.259 . S
C359 O356 1.235 . S
O360 Co350 2.021 . S
O360 C357 1.238 . S
O361 Co355 2.052 . S
O361 C357 1.241 . S
O362 Co350 2.137 . S
O362 C353 1.247 . S
O363 Co350 2.244 . S
O363 C353 1.272 . S
O363 Co355 2.135 . S
Co364 O365 2.216 . S
Co364 O366 2.091 . S
Co364 O368 2.004 . S
Co364 O374 2.021 . S
Co364 O376 2.137 . S
Co364 O377 2.244 . S
O365 Co364 2.216 . S
O365 C372 1.247 . S
O366 Co364 2.091 . S
O366 C372 1.261 . S
C367 O376 1.247 . S
C367 O377 1.272 . S
O368 Co364 2.004 . S
O368 C373 1.259 . S
Co369 O370 2.061 . S
Co369 O375 2.052 . S
Co369 O377 2.135 . S
O370 Co369 2.061 . S
O370 C373 1.235 . S
C371 O374 1.238 . S
C371 O375 1.241 . S
C372 O365 1.247 . S
C372 O366 1.261 . S
C373 O368 1.259 . S
C373 O370 1.235 . S
O374 Co364 2.021 . S
O374 C371 1.238 . S
O375 Co369 2.052 . S
O375 C371 1.241 . S
O376 Co364 2.137 . S
O376 C367 1.247 . S
O377 Co364 2.244 . S
O377 C367 1.272 . S
O377 Co369 2.135 . S
Co378 O379 2.216 . S
Co378 O380 2.091 . S
Co378 O382 2.004 . S
Co378 O388 2.021 . S
Co378 O390 2.137 . S
Co378 O391 2.244 . S
O379 Co378 2.216 . S
O379 C386 1.247 . S
O380 Co378 2.091 . S
O380 C386 1.261 . S
C381 O390 1.247 . S
C381 O391 1.272 . S
O382 Co378 2.004 . S
O382 C387 1.259 . S
Co383 O384 2.061 . S
Co383 O389 2.052 . S
Co383 O391 2.135 . S
O384 Co383 2.061 . S
O384 C387 1.235 . S
C385 O388 1.238 . S
C385 O389 1.241 . S
C386 O379 1.247 . S
C386 O380 1.261 . S
C387 O382 1.259 . S
C387 O384 1.235 . S
O388 Co378 2.021 . S
O388 C385 1.238 . S
O389 Co383 2.052 . S
O389 C385 1.241 . S
O390 Co378 2.137 . S
O390 C381 1.247 . S
O391 Co378 2.244 . S
O391 C381 1.272 . S
O391 Co383 2.135 . S
Co392 O393 2.216 . S
Co392 O394 2.091 . S
Co392 O396 2.004 . S
Co392 O402 2.021 . S
Co392 O404 2.137 . S
Co392 O405 2.244 . S
O393 Co392 2.216 . S
O393 C400 1.247 . S
O394 Co392 2.091 . S
O394 C400 1.261 . S
C395 O404 1.247 . S
C395 O405 1.272 . S
O396 Co392 2.004 . S
O396 C401 1.259 . S
Co397 O398 2.061 . S
Co397 O403 2.052 . S
Co397 O405 2.135 . S
O398 Co397 2.061 . S
O398 C401 1.235 . S
C399 O402 1.238 . S
C399 O403 1.241 . S
C400 O393 1.247 . S
C400 O394 1.261 . S
C401 O396 1.259 . S
C401 O398 1.235 . S
O402 Co392 2.021 . S
O402 C399 1.238 . S
O403 Co397 2.052 . S
O403 C399 1.241 . S
O404 Co392 2.137 . S
O404 C395 1.247 . S
O405 Co392 2.244 . S
O405 C395 1.272 . S
O405 Co397 2.135 . S
Co406 O407 2.216 . S
Co406 O408 2.091 . S
Co406 O410 2.004 . S
Co406 O416 2.021 . S
Co406 O418 2.137 . S
Co406 O419 2.244 . S
O407 Co406 2.216 . S
O407 C414 1.247 . S
O408 Co406 2.091 . S
O408 C414 1.261 . S
C409 O418 1.247 . S
C409 O419 1.272 . S
O410 Co406 2.004 . S
O410 C415 1.259 . S
Co411 O412 2.061 . S
Co411 O417 2.052 . S
Co411 O419 2.135 . S
O412 Co411 2.061 . S
O412 C415 1.235 . S
C413 O416 1.238 . S
C413 O417 1.241 . S
C414 O407 1.247 . S
C414 O408 1.261 . S
C415 O410 1.259 . S
C415 O412 1.235 . S
O416 Co406 2.021 . S
O416 C413 1.238 . S
O417 Co411 2.052 . S
O417 C413 1.241 . S
O418 Co406 2.137 . S
O418 C409 1.247 . S
O419 Co406 2.244 . S
O419 C409 1.272 . S
O419 Co411 2.135 . S
Co420 O421 2.216 . S
Co420 O422 2.091 . S
Co420 O424 2.004 . S
Co420 O430 2.021 . S
Co420 O432 2.137 . S
Co420 O433 2.244 . S
O421 Co420 2.216 . S
O421 C428 1.247 . S
O422 Co420 2.091 . S
O422 C428 1.261 . S
C423 O432 1.247 . S
C423 O433 1.272 . S
O424 Co420 2.004 . S
O424 C429 1.259 . S
Co425 O426 2.061 . S
Co425 O431 2.052 . S
Co425 O433 2.135 . S
O426 Co425 2.061 . S
O426 C429 1.235 . S
C427 O430 1.238 . S
C427 O431 1.241 . S
C428 O421 1.247 . S
C428 O422 1.261 . S
C429 O424 1.259 . S
C429 O426 1.235 . S
O430 Co420 2.021 . S
O430 C427 1.238 . S
O431 Co425 2.052 . S
O431 C427 1.241 . S
O432 Co420 2.137 . S
O432 C423 1.247 . S
O433 Co420 2.244 . S
O433 C423 1.272 . S
O433 Co425 2.135 . S
Co434 O435 2.216 . S
Co434 O436 2.091 . S
Co434 O438 2.004 . S
Co434 O444 2.021 . S
Co434 O446 2.137 . S
Co434 O447 2.244 . S
O435 Co434 2.216 . S
O435 C442 1.247 . S
O436 Co434 2.091 . S
O436 C442 1.261 . S
C437 O446 1.247 . S
C437 O447 1.272 . S
O438 Co434 2.004 . S
O438 C443 1.259 . S
Co439 O440 2.061 . S
Co439 O445 2.052 . S
Co439 O447 2.135 . S
O440 Co439 2.061 . S
O440 C443 1.235 . S
C441 O444 1.238 . S
C441 O445 1.241 . S
C442 O435 1.247 . S
C442 O436 1.261 . S
C443 O438 1.259 . S
C443 O440 1.235 . S
O444 Co434 2.021 . S
O444 C441 1.238 . S
O445 Co439 2.052 . S
O445 C441 1.241 . S
O446 Co434 2.137 . S
O446 C437 1.247 . S
O447 Co434 2.244 . S
O447 C437 1.272 . S
O447 Co439 2.135 . S
H448 C454 0.930 . S
H449 C458 0.930 . S
H450 C463 0.929 . S
H451 C461 0.929 . S
H452 C456 0.929 1_545 S
H453 C462 0.929 1_565 S
C454 H448 0.930 . S
C454 C455 1.367 . S
C454 C462 1.378 . S
C455 C454 1.367 . S
C455 C463 1.433 . S
C456 H452 0.929 1_565 S
C456 C458 1.378 . S
C456 C460 1.350 . S
C457 C460 1.463 1_545 S
C457 C462 1.350 . S
C457 N465 1.427 . S
C458 H449 0.930 . S
C458 C456 1.378 . S
C458 C459 1.367 . S
C459 C458 1.367 . S
C459 C461 1.433 . S
C460 C456 1.350 . S
C460 C457 1.463 1_565 S
C460 N464 1.427 . S
C461 H451 0.929 . S
C461 C459 1.433 . S
C461 N464 1.384 . S
C462 H453 0.929 1_545 S
C462 C454 1.378 . S
C462 C457 1.350 . S
C463 H450 0.929 . S
C463 C455 1.433 . S
C463 N465 1.384 . S
N464 C460 1.427 . S
N464 C461 1.384 . S
N465 C457 1.427 . S
N465 C463 1.384 . S
H466 C472 0.930 . S
H467 C476 0.930 . S
H468 C481 0.929 . S
H469 C479 0.929 . S
H470 C474 0.929 . S
H471 C480 0.929 . S
C472 H466 0.930 . S
C472 C473 1.367 . S
C472 C480 1.378 . S
C473 C472 1.367 . S
C473 C481 1.433 . S
C474 H470 0.929 . S
C474 C476 1.378 . S
C474 C478 1.350 . S
C475 C478 1.463 . S
C475 C480 1.350 . S
C475 N483 1.427 . S
C476 H467 0.930 . S
C476 C474 1.378 . S
C476 C477 1.367 . S
C477 C476 1.367 . S
C477 C479 1.433 . S
C478 C474 1.350 . S
C478 C475 1.463 . S
C478 N482 1.427 . S
C479 H469 0.929 . S
C479 C477 1.433 . S
C479 N482 1.384 . S
C480 H471 0.929 . S
C480 C472 1.378 . S
C480 C475 1.350 . S
C481 H468 0.929 . S
C481 C473 1.433 . S
C481 N483 1.384 . S
N482 C478 1.427 . S
N482 C479 1.384 . S
N483 C475 1.427 . S
N483 C481 1.384 . S
H484 C490 0.930 . S
H485 C494 0.930 . S
H486 C499 0.929 . S
H487 C497 0.929 . S
H488 C492 0.929 1_545 S
H489 C498 0.929 1_565 S
C490 H484 0.930 . S
C490 C491 1.367 . S
C490 C498 1.378 . S
C491 C490 1.367 . S
C491 C499 1.433 . S
C492 H488 0.929 1_565 S
C492 C494 1.378 . S
C492 C496 1.350 . S
C493 C496 1.463 1_545 S
C493 C498 1.350 . S
C493 N501 1.427 . S
C494 H485 0.930 . S
C494 C492 1.378 . S
C494 C495 1.367 . S
C495 C494 1.367 . S
C495 C497 1.433 . S
C496 C492 1.350 . S
C496 C493 1.463 1_565 S
C496 N500 1.427 . S
C497 H487 0.929 . S
C497 C495 1.433 . S
C497 N500 1.384 . S
C498 H489 0.929 1_545 S
C498 C490 1.378 . S
C498 C493 1.350 . S
C499 H486 0.929 . S
C499 C491 1.433 . S
C499 N501 1.384 . S
N500 C496 1.427 . S
N500 C497 1.384 . S
N501 C493 1.427 . S
N501 C499 1.384 . S
H502 C508 0.930 . S
H503 C512 0.930 . S
H504 C517 0.929 . S
H505 C515 0.929 . S
H506 C510 0.929 1_556 S
H507 C516 0.929 1_554 S
C508 H502 0.930 . S
C508 C509 1.367 . S
C508 C516 1.378 . S
C509 C508 1.367 . S
C509 C517 1.433 . S
C510 H506 0.929 1_554 S
C510 C512 1.378 . S
C510 C514 1.350 . S
C511 C514 1.463 1_556 S
C511 C516 1.350 . S
C511 N519 1.427 . S
C512 H503 0.930 . S
C512 C510 1.378 . S
C512 C513 1.367 . S
C513 C512 1.367 . S
C513 C515 1.433 . S
C514 C510 1.350 . S
C514 C511 1.463 1_554 S
C514 N518 1.427 . S
C515 H505 0.929 . S
C515 C513 1.433 . S
C515 N518 1.384 . S
C516 H507 0.929 1_556 S
C516 C508 1.378 . S
C516 C511 1.350 . S
C517 H504 0.929 . S
C517 C509 1.433 . S
C517 N519 1.384 . S
N518 C514 1.427 . S
N518 C515 1.384 . S
N519 C511 1.427 . S
N519 C517 1.384 . S
H520 C526 0.930 . S
H521 C530 0.930 . S
H522 C535 0.929 . S
H523 C533 0.929 . S
H524 C528 0.929 . S
H525 C534 0.929 . S
C526 H520 0.930 . S
C526 C527 1.367 . S
C526 C534 1.378 . S
C527 C526 1.367 . S
C527 C535 1.433 . S
C528 H524 0.929 . S
C528 C530 1.378 . S
C528 C532 1.350 . S
C529 C532 1.463 1_565 S
C529 C534 1.350 . S
C529 N537 1.427 . S
C530 H521 0.930 . S
C530 C528 1.378 . S
C530 C531 1.367 . S
C531 C530 1.367 . S
C531 C533 1.433 . S
C532 C528 1.350 . S
C532 C529 1.463 1_545 S
C532 N536 1.427 . S
C533 H523 0.929 . S
C533 C531 1.433 . S
C533 N536 1.384 . S
C534 H525 0.929 . S
C534 C526 1.378 . S
C534 C529 1.350 . S
C535 H522 0.929 . S
C535 C527 1.433 . S
C535 N537 1.384 . S
N536 C532 1.427 . S
N536 C533 1.384 . S
N537 C529 1.427 . S
N537 C535 1.384 . S
H538 C544 0.930 . S
H539 C548 0.930 . S
H540 C553 0.929 . S
H541 C551 0.929 . S
H542 C546 0.929 . S
H543 C552 0.929 . S
C544 H538 0.930 . S
C544 C545 1.367 . S
C544 C552 1.378 . S
C545 C544 1.367 . S
C545 C553 1.433 . S
C546 H542 0.929 . S
C546 C548 1.378 . S
C546 C550 1.350 . S
C547 C550 1.463 . S
C547 C552 1.350 . S
C547 N555 1.427 . S
C548 H539 0.930 . S
C548 C546 1.378 . S
C548 C549 1.367 . S
C549 C548 1.367 . S
C549 C551 1.433 . S
C550 C546 1.350 . S
C550 C547 1.463 . S
C550 N554 1.427 . S
C551 H541 0.929 . S
C551 C549 1.433 . S
C551 N554 1.384 . S
C552 H543 0.929 . S
C552 C544 1.378 . S
C552 C547 1.350 . S
C553 H540 0.929 . S
C553 C545 1.433 . S
C553 N555 1.384 . S
N554 C550 1.427 . S
N554 C551 1.384 . S
N555 C547 1.427 . S
N555 C553 1.384 . S
H556 C562 0.930 . S
H557 C566 0.930 . S
H558 C571 0.929 . S
H559 C569 0.929 . S
H560 C564 0.929 . S
H561 C570 0.929 . S
C562 H556 0.930 . S
C562 C563 1.367 . S
C562 C570 1.378 . S
C563 C562 1.367 . S
C563 C571 1.433 . S
C564 H560 0.929 . S
C564 C566 1.378 . S
C564 C568 1.350 . S
C565 C568 1.463 1_565 S
C565 C570 1.350 . S
C565 N573 1.427 . S
C566 H557 0.930 . S
C566 C564 1.378 . S
C566 C567 1.367 . S
C567 C566 1.367 . S
C567 C569 1.433 . S
C568 C564 1.350 . S
C568 C565 1.463 1_545 S
C568 N572 1.427 . S
C569 H559 0.929 . S
C569 C567 1.433 . S
C569 N572 1.384 . S
C570 H561 0.929 . S
C570 C562 1.378 . S
C570 C565 1.350 . S
C571 H558 0.929 . S
C571 C563 1.433 . S
C571 N573 1.384 . S
N572 C568 1.427 . S
N572 C569 1.384 . S
N573 C565 1.427 . S
N573 C571 1.384 . S
H574 C580 0.930 . S
H575 C584 0.930 . S
H576 C589 0.929 . S
H577 C587 0.929 . S
H578 C582 0.929 . S
H579 C588 0.929 . S
C580 H574 0.930 . S
C580 C581 1.367 . S
C580 C588 1.378 . S
C581 C580 1.367 . S
C581 C589 1.433 . S
C582 H578 0.929 . S
C582 C584 1.378 . S
C582 C586 1.350 . S
C583 C586 1.463 1_556 S
C583 C588 1.350 . S
C583 N591 1.427 . S
C584 H575 0.930 . S
C584 C582 1.378 . S
C584 C585 1.367 . S
C585 C584 1.367 . S
C585 C587 1.433 . S
C586 C582 1.350 . S
C586 C583 1.463 1_554 S
C586 N590 1.427 . S
C587 H577 0.929 . S
C587 C585 1.433 . S
C587 N590 1.384 . S
C588 H579 0.929 . S
C588 C580 1.378 . S
C588 C583 1.350 . S
C589 H576 0.929 . S
C589 C581 1.433 . S
C589 N591 1.384 . S
N590 C586 1.427 . S
N590 C587 1.384 . S
N591 C583 1.427 . S
N591 C589 1.384 . S
H592 C598 0.930 . S
H593 C602 0.930 . S
H594 C607 0.929 . S
H595 C605 0.929 . S
H596 C600 0.929 . S
H597 C606 0.929 . S
C598 H592 0.930 . S
C598 C599 1.367 . S
C598 C606 1.378 . S
C599 C598 1.367 . S
C599 C607 1.433 . S
C600 H596 0.929 . S
C600 C602 1.378 . S
C600 C604 1.350 . S
C601 C604 1.463 . S
C601 C606 1.350 . S
C601 N609 1.427 . S
C602 H593 0.930 . S
C602 C600 1.378 . S
C602 C603 1.367 . S
C603 C602 1.367 . S
C603 C605 1.433 . S
C604 C600 1.350 . S
C604 C601 1.463 . S
C604 N608 1.427 . S
C605 H595 0.929 . S
C605 C603 1.433 . S
C605 N608 1.384 . S
C606 H597 0.929 . S
C606 C598 1.378 . S
C606 C601 1.350 . S
C607 H594 0.929 . S
C607 C599 1.433 . S
C607 N609 1.384 . S
N608 C604 1.427 . S
N608 C605 1.384 . S
N609 C601 1.427 . S
N609 C607 1.384 . S
H610 C616 0.930 . S
H611 C620 0.930 . S
H612 C625 0.929 . S
H613 C623 0.929 . S
H614 C618 0.929 . S
H615 C624 0.929 . S
C616 H610 0.930 . S
C616 C617 1.367 . S
C616 C624 1.378 . S
C617 C616 1.367 . S
C617 C625 1.433 . S
C618 H614 0.929 . S
C618 C620 1.378 . S
C618 C622 1.350 . S
C619 C622 1.463 1_556 S
C619 C624 1.350 . S
C619 N627 1.427 . S
C620 H611 0.930 . S
C620 C618 1.378 . S
C620 C621 1.367 . S
C621 C620 1.367 . S
C621 C623 1.433 . S
C622 C618 1.350 . S
C622 C619 1.463 1_554 S
C622 N626 1.427 . S
C623 H613 0.929 . S
C623 C621 1.433 . S
C623 N626 1.384 . S
C624 H615 0.929 . S
C624 C616 1.378 . S
C624 C619 1.350 . S
C625 H612 0.929 . S
C625 C617 1.433 . S
C625 N627 1.384 . S
N626 C622 1.427 . S
N626 C623 1.384 . S
N627 C619 1.427 . S
N627 C625 1.384 . S
H628 C634 0.930 . S
H629 C638 0.930 . S
H630 C643 0.929 . S
H631 C641 0.929 . S
H632 C636 0.929 . S
H633 C642 0.929 . S
C634 H628 0.930 . S
C634 C635 1.367 . S
C634 C642 1.378 . S
C635 C634 1.367 . S
C635 C643 1.433 . S
C636 H632 0.929 . S
C636 C638 1.378 . S
C636 C640 1.350 . S
C637 C640 1.463 . S
C637 C642 1.350 . S
C637 N645 1.427 . S
C638 H629 0.930 . S
C638 C636 1.378 . S
C638 C639 1.367 . S
C639 C638 1.367 . S
C639 C641 1.433 . S
C640 C636 1.350 . S
C640 C637 1.463 . S
C640 N644 1.427 . S
C641 H631 0.929 . S
C641 C639 1.433 . S
C641 N644 1.384 . S
C642 H633 0.929 . S
C642 C634 1.378 . S
C642 C637 1.350 . S
C643 H630 0.929 . S
C643 C635 1.433 . S
C643 N645 1.384 . S
N644 C640 1.427 . S
N644 C641 1.384 . S
N645 C637 1.427 . S
N645 C643 1.384 . S
H646 C652 0.930 . S
H647 C656 0.930 . S
H648 C661 0.929 . S
H649 C659 0.929 . S
H650 C654 0.929 . S
H651 C660 0.929 . S
C652 H646 0.930 . S
C652 C653 1.367 . S
C652 C660 1.378 . S
C653 C652 1.367 . S
C653 C661 1.433 . S
C654 H650 0.929 . S
C654 C656 1.378 . S
C654 C658 1.350 . S
C655 C658 1.463 . S
C655 C660 1.350 . S
C655 N663 1.427 . S
C656 H647 0.930 . S
C656 C654 1.378 . S
C656 C657 1.367 . S
C657 C656 1.367 . S
C657 C659 1.433 . S
C658 C654 1.350 . S
C658 C655 1.463 . S
C658 N662 1.427 . S
C659 H649 0.929 . S
C659 C657 1.433 . S
C659 N662 1.384 . S
C660 H651 0.929 . S
C660 C652 1.378 . S
C660 C655 1.350 . S
C661 H648 0.929 . S
C661 C653 1.433 . S
C661 N663 1.384 . S
N662 C658 1.427 . S
N662 C659 1.384 . S
N663 C655 1.427 . S
N663 C661 1.384 . S
H664 C670 0.930 . S
H665 C674 0.930 . S
H666 C679 0.929 . S
H667 C677 0.929 . S
H668 C672 0.929 . S
H669 C678 0.929 . S
C670 H664 0.930 . S
C670 C671 1.367 . S
C670 C678 1.378 . S
C671 C670 1.367 . S
C671 C679 1.433 . S
C672 H668 0.929 . S
C672 C674 1.378 . S
C672 C676 1.350 . S
C673 C676 1.463 . S
C673 C678 1.350 . S
C673 N681 1.427 . S
C674 H665 0.930 . S
C674 C672 1.378 . S
C674 C675 1.367 . S
C675 C674 1.367 . S
C675 C677 1.433 . S
C676 C672 1.350 . S
C676 C673 1.463 . S
C676 N680 1.427 . S
C677 H667 0.929 . S
C677 C675 1.433 . S
C677 N680 1.384 . S
C678 H669 0.929 . S
C678 C670 1.378 . S
C678 C673 1.350 . S
C679 H666 0.929 . S
C679 C671 1.433 . S
C679 N681 1.384 . S
N680 C676 1.427 . S
N680 C677 1.384 . S
N681 C673 1.427 . S
N681 C679 1.384 . S
H682 C688 0.930 . S
H683 C692 0.930 . S
H684 C697 0.929 . S
H685 C695 0.929 . S
H686 C690 0.929 . S
H687 C696 0.929 . S
C688 H682 0.930 . S
C688 C689 1.367 . S
C688 C696 1.378 . S
C689 C688 1.367 . S
C689 C697 1.433 . S
C690 H686 0.929 . S
C690 C692 1.378 . S
C690 C694 1.350 . S
C691 C694 1.463 1_554 S
C691 C696 1.350 . S
C691 N699 1.427 . S
C692 H683 0.930 . S
C692 C690 1.378 . S
C692 C693 1.367 . S
C693 C692 1.367 . S
C693 C695 1.433 . S
C694 C690 1.350 . S
C694 C691 1.463 1_556 S
C694 N698 1.427 . S
C695 H685 0.929 . S
C695 C693 1.433 . S
C695 N698 1.384 . S
C696 H687 0.929 . S
C696 C688 1.378 . S
C696 C691 1.350 . S
C697 H684 0.929 . S
C697 C689 1.433 . S
C697 N699 1.384 . S
N698 C694 1.427 . S
N698 C695 1.384 . S
N699 C691 1.427 . S
N699 C697 1.384 . S
H700 C706 0.930 . S
H701 C710 0.930 . S
H702 C715 0.929 . S
H703 C713 0.929 . S
H704 C708 0.929 . S
H705 C714 0.929 . S
C706 H700 0.930 . S
C706 C707 1.367 . S
C706 C714 1.378 . S
C707 C706 1.367 . S
C707 C715 1.433 . S
C708 H704 0.929 . S
C708 C710 1.378 . S
C708 C712 1.350 . S
C709 C712 1.463 . S
C709 C714 1.350 . S
C709 N717 1.427 . S
C710 H701 0.930 . S
C710 C708 1.378 . S
C710 C711 1.367 . S
C711 C710 1.367 . S
C711 C713 1.433 . S
C712 C708 1.350 . S
C712 C709 1.463 . S
C712 N716 1.427 . S
C713 H703 0.929 . S
C713 C711 1.433 . S
C713 N716 1.384 . S
C714 H705 0.929 . S
C714 C706 1.378 . S
C714 C709 1.350 . S
C715 H702 0.929 . S
C715 C707 1.433 . S
C715 N717 1.384 . S
N716 C712 1.427 . S
N716 C713 1.384 . S
N717 C709 1.427 . S
N717 C715 1.384 . S
H718 C724 0.930 . S
H719 C728 0.930 . S
H720 C733 0.929 . S
H721 C731 0.929 . S
H722 C726 0.929 . S
H723 C732 0.929 . S
C724 H718 0.930 . S
C724 C725 1.367 . S
C724 C732 1.378 . S
C725 C724 1.367 . S
C725 C733 1.433 . S
C726 H722 0.929 . S
C726 C728 1.378 . S
C726 C730 1.350 . S
C727 C730 1.463 . S
C727 C732 1.350 . S
C727 N735 1.427 . S
C728 H719 0.930 . S
C728 C726 1.378 . S
C728 C729 1.367 . S
C729 C728 1.367 . S
C729 C731 1.433 . S
C730 C726 1.350 . S
C730 C727 1.463 . S
C730 N734 1.427 . S
C731 H721 0.929 . S
C731 C729 1.433 . S
C731 N734 1.384 . S
C732 H723 0.929 . S
C732 C724 1.378 . S
C732 C727 1.350 . S
C733 H720 0.929 . S
C733 C725 1.433 . S
C733 N735 1.384 . S
N734 C730 1.427 . S
N734 C731 1.384 . S
N735 C727 1.427 . S
N735 C733 1.384 . S
H736 C742 0.930 . S
H737 C746 0.930 . S
H738 C751 0.929 . S
H739 C749 0.929 . S
H740 C744 0.929 . S
H741 C750 0.929 . S
C742 H736 0.930 . S
C742 C743 1.367 . S
C742 C750 1.378 . S
C743 C742 1.367 . S
C743 C751 1.433 . S
C744 H740 0.929 . S
C744 C746 1.378 . S
C744 C748 1.350 . S
C745 C748 1.463 . S
C745 C750 1.350 . S
C745 N753 1.427 . S
C746 H737 0.930 . S
C746 C744 1.378 . S
C746 C747 1.367 . S
C747 C746 1.367 . S
C747 C749 1.433 . S
C748 C744 1.350 . S
C748 C745 1.463 . S
C748 N752 1.427 . S
C749 H739 0.929 . S
C749 C747 1.433 . S
C749 N752 1.384 . S
C750 H741 0.929 . S
C750 C742 1.378 . S
C750 C745 1.350 . S
C751 H738 0.929 . S
C751 C743 1.433 . S
C751 N753 1.384 . S
N752 C748 1.427 . S
N752 C749 1.384 . S
N753 C745 1.427 . S
N753 C751 1.384 . S
H754 C760 0.930 . S
H755 C764 0.930 . S
H756 C769 0.929 . S
H757 C767 0.929 . S
H758 C762 0.929 . S
H759 C768 0.929 . S
C760 H754 0.930 . S
C760 C761 1.367 . S
C760 C768 1.378 . S
C761 C760 1.367 . S
C761 C769 1.433 . S
C762 H758 0.929 . S
C762 C764 1.378 . S
C762 C766 1.350 . S
C763 C766 1.480 . S
C763 C768 1.341 1_455 S
C763 N771 1.420 1_455 S
C764 H755 0.930 . S
C764 C762 1.378 . S
C764 C765 1.367 . S
C765 C764 1.367 . S
C765 C767 1.433 . S
C766 C762 1.350 . S
C766 C763 1.480 . S
C766 N770 1.427 . S
C767 H757 0.929 . S
C767 C765 1.433 . S
C767 N770 1.384 . S
C768 H759 0.929 . S
C768 C760 1.378 . S
C768 C763 1.341 1_655 S
C769 H756 0.929 . S
C769 C761 1.433 . S
C769 N771 1.384 . S
N770 C766 1.427 . S
N770 C767 1.384 . S
N771 C763 1.420 1_655 S
N771 C769 1.384 . S
H772 C778 0.930 . S
H773 C782 0.930 . S
H774 C787 0.929 . S
H775 C785 0.929 . S
H776 C780 0.929 . S
H777 C786 0.929 . S
C778 H772 0.930 . S
C778 C779 1.367 . S
C778 C786 1.378 . S
C779 C778 1.367 . S
C779 C787 1.433 . S
C780 H776 0.929 . S
C780 C782 1.378 . S
C780 C784 1.350 . S
C781 C784 1.463 . S
C781 C786 1.350 . S
C781 N789 1.427 . S
C782 H773 0.930 . S
C782 C780 1.378 . S
C782 C783 1.367 . S
C783 C782 1.367 . S
C783 C785 1.433 . S
C784 C780 1.350 . S
C784 C781 1.463 . S
C784 N788 1.427 . S
C785 H775 0.929 . S
C785 C783 1.433 . S
C785 N788 1.384 . S
C786 H777 0.929 . S
C786 C778 1.378 . S
C786 C781 1.350 . S
C787 H774 0.929 . S
C787 C779 1.433 . S
C787 N789 1.384 . S
N788 C784 1.427 . S
N788 C785 1.384 . S
N789 C781 1.427 . S
N789 C787 1.384 . S
H790 C796 0.930 . S
H791 C800 0.930 . S
H792 C805 0.929 . S
H793 C803 0.929 . S
H794 C798 0.929 . S
H795 C804 0.929 . S
C796 H790 0.930 . S
C796 C797 1.367 . S
C796 C804 1.378 . S
C797 C796 1.367 . S
C797 C805 1.433 . S
C798 H794 0.929 . S
C798 C800 1.378 . S
C798 C802 1.350 . S
C799 C802 1.463 . S
C799 C804 1.350 . S
C799 N807 1.427 . S
C800 H791 0.930 . S
C800 C798 1.378 . S
C800 C801 1.367 . S
C801 C800 1.367 . S
C801 C803 1.433 . S
C802 C798 1.350 . S
C802 C799 1.463 . S
C802 N806 1.427 . S
C803 H793 0.929 . S
C803 C801 1.433 . S
C803 N806 1.384 . S
C804 H795 0.929 . S
C804 C796 1.378 . S
C804 C799 1.350 . S
C805 H792 0.929 . S
C805 C797 1.433 . S
C805 N807 1.384 . S
N806 C802 1.427 . S
N806 C803 1.384 . S
N807 C799 1.427 . S
N807 C805 1.384 . S
H808 C814 0.930 . S
H809 C818 0.930 . S
H810 C823 0.929 . S
H811 C821 0.929 . S
H812 C816 0.929 . S
H813 C822 0.929 . S
C814 H808 0.930 . S
C814 C815 1.367 . S
C814 C822 1.378 . S
C815 C814 1.367 . S
C815 C823 1.433 . S
C816 H812 0.929 . S
C816 C818 1.378 . S
C816 C820 1.350 . S
C817 C820 1.463 . S
C817 C822 1.350 . S
C817 N825 1.427 . S
C818 H809 0.930 . S
C818 C816 1.378 . S
C818 C819 1.367 . S
C819 C818 1.367 . S
C819 C821 1.433 . S
C820 C816 1.350 . S
C820 C817 1.463 . S
C820 N824 1.427 . S
C821 H811 0.929 . S
C821 C819 1.433 . S
C821 N824 1.384 . S
C822 H813 0.929 . S
C822 C814 1.378 . S
C822 C817 1.350 . S
C823 H810 0.929 . S
C823 C815 1.433 . S
C823 N825 1.384 . S
N824 C820 1.427 . S
N824 C821 1.384 . S
N825 C817 1.427 . S
N825 C823 1.384 . S
H826 C832 0.930 . S
H827 C836 0.930 . S
H828 C841 0.929 . S
H829 C839 0.929 . S
H830 C834 0.929 . S
H831 C840 0.929 . S
C832 H826 0.930 . S
C832 C833 1.367 . S
C832 C840 1.378 . S
C833 C832 1.367 . S
C833 C841 1.433 . S
C834 H830 0.929 . S
C834 C836 1.378 . S
C834 C838 1.350 . S
C835 C838 1.463 . S
C835 C840 1.350 . S
C835 N843 1.427 . S
C836 H827 0.930 . S
C836 C834 1.378 . S
C836 C837 1.367 . S
C837 C836 1.367 . S
C837 C839 1.433 . S
C838 C834 1.350 . S
C838 C835 1.463 . S
C838 N842 1.427 . S
C839 H829 0.929 . S
C839 C837 1.433 . S
C839 N842 1.384 . S
C840 H831 0.929 . S
C840 C832 1.378 . S
C840 C835 1.350 . S
C841 H828 0.929 . S
C841 C833 1.433 . S
C841 N843 1.384 . S
N842 C838 1.427 . S
N842 C839 1.384 . S
N843 C835 1.427 . S
N843 C841 1.384 . S
H844 C850 0.930 . S
H845 C854 0.930 . S
H846 C859 0.929 . S
H847 C857 0.929 . S
H848 C852 0.929 . S
H849 C858 0.929 . S
C850 H844 0.930 . S
C850 C851 1.367 . S
C850 C858 1.378 . S
C851 C850 1.367 . S
C851 C859 1.433 . S
C852 H848 0.929 . S
C852 C854 1.378 . S
C852 C856 1.350 . S
C853 C856 1.463 . S
C853 C858 1.350 . S
C853 N861 1.427 . S
C854 H845 0.930 . S
C854 C852 1.378 . S
C854 C855 1.367 . S
C855 C854 1.367 . S
C855 C857 1.433 . S
C856 C852 1.350 . S
C856 C853 1.463 . S
C856 N860 1.427 . S
C857 H847 0.929 . S
C857 C855 1.433 . S
C857 N860 1.384 . S
C858 H849 0.929 . S
C858 C850 1.378 . S
C858 C853 1.350 . S
C859 H846 0.929 . S
C859 C851 1.433 . S
C859 N861 1.384 . S
N860 C856 1.427 . S
N860 C857 1.384 . S
N861 C853 1.427 . S
N861 C859 1.384 . S
H862 C868 0.930 . S
H863 C872 0.930 . S
H864 C877 0.929 . S
H865 C875 0.929 . S
H866 C870 0.929 . S
H867 C876 0.929 . S
C868 H862 0.930 . S
C868 C869 1.367 . S
C868 C876 1.378 . S
C869 C868 1.367 . S
C869 C877 1.433 . S
C870 H866 0.929 . S
C870 C872 1.378 . S
C870 C874 1.341 1_655 S
C871 C874 1.483 . S
C871 C876 1.350 . S
C871 N879 1.427 . S
C872 H863 0.930 . S
C872 C870 1.378 . S
C872 C873 1.367 . S
C873 C872 1.367 . S
C873 C875 1.433 . S
C874 C870 1.341 1_455 S
C874 C871 1.483 . S
C874 N878 1.417 1_455 S
C875 H865 0.929 . S
C875 C873 1.433 . S
C875 N878 1.384 . S
C876 H867 0.929 . S
C876 C868 1.378 . S
C876 C871 1.350 . S
C877 H864 0.929 . S
C877 C869 1.433 . S
C877 N879 1.384 . S
N878 C874 1.417 1_655 S
N878 C875 1.384 . S
N879 C871 1.427 . S
N879 C877 1.384 . S
H880 C886 0.930 . S
H881 C890 0.930 . S
H882 C895 0.929 . S
H883 C893 0.929 . S
H884 C888 0.929 . S
H885 C894 0.929 . S
C886 H880 0.930 . S
C886 C887 1.367 . S
C886 C894 1.378 . S
C887 C886 1.367 . S
C887 C895 1.433 . S
C888 H884 0.929 . S
C888 C890 1.378 . S
C888 C892 1.350 . S
C889 C892 1.463 . S
C889 C894 1.350 . S
C889 N897 1.427 . S
C890 H881 0.930 . S
C890 C888 1.378 . S
C890 C891 1.367 . S
C891 C890 1.367 . S
C891 C893 1.433 . S
C892 C888 1.350 . S
C892 C889 1.463 . S
C892 N896 1.427 . S
C893 H883 0.929 . S
C893 C891 1.433 . S
C893 N896 1.384 . S
C894 H885 0.929 . S
C894 C886 1.378 . S
C894 C889 1.350 . S
C895 H882 0.929 . S
C895 C887 1.433 . S
C895 N897 1.384 . S
N896 C892 1.427 . S
N896 C893 1.384 . S
N897 C889 1.427 . S
N897 C895 1.384 . S
H898 C904 0.930 . S
H899 C908 0.930 . S
H900 C913 0.929 . S
H901 C911 0.929 . S
H902 C906 0.929 . S
H903 C912 0.929 . S
C904 H898 0.930 . S
C904 C905 1.367 . S
C904 C912 1.378 . S
C905 C904 1.367 . S
C905 C913 1.433 . S
C906 H902 0.929 . S
C906 C908 1.378 . S
C906 C910 1.341 1_455 S
C907 C910 1.484 . S
C907 C912 1.350 . S
C907 N915 1.427 . S
C908 H899 0.930 . S
C908 C906 1.378 . S
C908 C909 1.367 . S
C909 C908 1.367 . S
C909 C911 1.433 . S
C910 C906 1.341 1_655 S
C910 C907 1.484 . S
C910 N914 1.417 1_655 S
C911 H901 0.929 . S
C911 C909 1.433 . S
C911 N914 1.384 . S
C912 H903 0.929 . S
C912 C904 1.378 . S
C912 C907 1.350 . S
C913 H900 0.929 . S
C913 C905 1.433 . S
C913 N915 1.384 . S
N914 C910 1.417 1_455 S
N914 C911 1.384 . S
N915 C907 1.427 . S
N915 C913 1.384 . S
H916 C922 0.930 . S
H917 C926 0.930 . S
H918 C931 0.929 . S
H919 C929 0.929 . S
H920 C924 0.929 . S
H921 C930 0.929 . S
C922 H916 0.930 . S
C922 C923 1.367 . S
C922 C930 1.378 . S
C923 C922 1.367 . S
C923 C931 1.433 . S
C924 H920 0.929 . S
C924 C926 1.378 . S
C924 C928 1.350 . S
C925 C928 1.463 . S
C925 C930 1.350 . S
C925 N933 1.427 . S
C926 H917 0.930 . S
C926 C924 1.378 . S
C926 C927 1.367 . S
C927 C926 1.367 . S
C927 C929 1.433 . S
C928 C924 1.350 . S
C928 C925 1.463 . S
C928 N932 1.427 . S
C929 H919 0.929 . S
C929 C927 1.433 . S
C929 N932 1.384 . S
C930 H921 0.929 . S
C930 C922 1.378 . S
C930 C925 1.350 . S
C931 H918 0.929 . S
C931 C923 1.433 . S
C931 N933 1.384 . S
N932 C928 1.427 . S
N932 C929 1.384 . S
N933 C925 1.427 . S
N933 C931 1.384 . S
H934 C940 0.930 . S
H935 C944 0.930 . S
H936 C949 0.929 . S
H937 C947 0.929 . S
H938 C942 0.929 . S
H939 C948 0.929 . S
C940 H934 0.930 . S
C940 C941 1.367 . S
C940 C948 1.378 . S
C941 C940 1.367 . S
C941 C949 1.433 . S
C942 H938 0.929 . S
C942 C944 1.378 . S
C942 C946 1.350 . S
C943 C946 1.463 . S
C943 C948 1.350 . S
C943 N951 1.427 . S
C944 H935 0.930 . S
C944 C942 1.378 . S
C944 C945 1.367 . S
C945 C944 1.367 . S
C945 C947 1.433 . S
C946 C942 1.350 . S
C946 C943 1.463 . S
C946 N950 1.427 . S
C947 H937 0.929 . S
C947 C945 1.433 . S
C947 N950 1.384 . S
C948 H939 0.929 . S
C948 C940 1.378 . S
C948 C943 1.350 . S
C949 H936 0.929 . S
C949 C941 1.433 . S
C949 N951 1.384 . S
N950 C946 1.427 . S
N950 C947 1.384 . S
N951 C943 1.427 . S
N951 C949 1.384 . S
H952 C958 0.930 . S
H953 C962 0.930 . S
H954 C967 0.929 . S
H955 C965 0.929 . S
H956 C960 0.929 . S
H957 C966 0.929 . S
C958 H952 0.930 . S
C958 C959 1.367 . S
C958 C966 1.378 . S
C959 C958 1.367 . S
C959 C967 1.433 . S
C960 H956 0.929 . S
C960 C962 1.378 . S
C960 C964 1.350 . S
C961 C964 1.463 . S
C961 C966 1.350 . S
C961 N969 1.427 . S
C962 H953 0.930 . S
C962 C960 1.378 . S
C962 C963 1.367 . S
C963 C962 1.367 . S
C963 C965 1.433 . S
C964 C960 1.350 . S
C964 C961 1.463 . S
C964 N968 1.427 . S
C965 H955 0.929 . S
C965 C963 1.433 . S
C965 N968 1.384 . S
C966 H957 0.929 . S
C966 C958 1.378 . S
C966 C961 1.350 . S
C967 H954 0.929 . S
C967 C959 1.433 . S
C967 N969 1.384 . S
N968 C964 1.427 . S
N968 C965 1.384 . S
N969 C961 1.427 . S
N969 C967 1.384 . S
H970 C976 0.930 . S
H971 C980 0.930 . S
H972 C985 0.929 . S
H973 C983 0.929 . S
H974 C978 0.929 . S
H975 C984 0.929 . S
C976 H970 0.930 . S
C976 C977 1.367 . S
C976 C984 1.378 . S
C977 C976 1.367 . S
C977 C985 1.433 . S
C978 H974 0.929 . S
C978 C980 1.378 . S
C978 C982 1.350 . S
C979 C982 1.463 . S
C979 C984 1.350 . S
C979 N987 1.427 . S
C980 H971 0.930 . S
C980 C978 1.378 . S
C980 C981 1.367 . S
C981 C980 1.367 . S
C981 C983 1.433 . S
C982 C978 1.350 . S
C982 C979 1.463 . S
C982 N986 1.427 . S
C983 H973 0.929 . S
C983 C981 1.433 . S
C983 N986 1.384 . S
C984 H975 0.929 . S
C984 C976 1.378 . S
C984 C979 1.350 . S
C985 H972 0.929 . S
C985 C977 1.433 . S
C985 N987 1.384 . S
N986 C982 1.427 . S
N986 C983 1.384 . S
N987 C979 1.427 . S
N987 C985 1.384 . S
H988 C994 0.930 . S
H989 C998 0.930 . S
H990 C1003 0.929 . S
H991 C1001 0.929 . S
H992 C996 0.929 . S
H993 C1002 0.929 . S
C994 H988 0.930 . S
C994 C995 1.367 . S
C994 C1002 1.378 . S
C995 C994 1.367 . S
C995 C1003 1.433 . S
C996 H992 0.929 . S
C996 C998 1.378 . S
C996 C1000 1.350 . S
C997 C1000 1.463 . S
C997 C1002 1.350 . S
C997 N1005 1.427 . S
C998 H989 0.930 . S
C998 C996 1.378 . S
C998 C999 1.367 . S
C999 C998 1.367 . S
C999 C1001 1.433 . S
C1000 C996 1.350 . S
C1000 C997 1.463 . S
C1000 N1004 1.427 . S
C1001 H991 0.929 . S
C1001 C999 1.433 . S
C1001 N1004 1.384 . S
C1002 H993 0.929 . S
C1002 C994 1.378 . S
C1002 C997 1.350 . S
C1003 H990 0.929 . S
C1003 C995 1.433 . S
C1003 N1005 1.384 . S
N1004 C1000 1.427 . S
N1004 C1001 1.384 . S
N1005 C997 1.427 . S
N1005 C1003 1.384 . S
H1006 C1012 0.930 . S
H1007 C1016 0.930 . S
H1008 C1021 0.929 . S
H1009 C1019 0.929 . S
H1010 C1014 0.929 . S
H1011 C1020 0.929 . S
C1012 H1006 0.930 . S
C1012 C1013 1.367 . S
C1012 C1020 1.378 . S
C1013 C1012 1.367 . S
C1013 C1021 1.433 . S
C1014 H1010 0.929 . S
C1014 C1016 1.378 . S
C1014 C1018 1.341 1_455 S
C1015 C1018 1.479 . S
C1015 C1020 1.350 . S
C1015 N1023 1.427 . S
C1016 H1007 0.930 . S
C1016 C1014 1.378 . S
C1016 C1017 1.367 . S
C1017 C1016 1.367 . S
C1017 C1019 1.433 . S
C1018 C1014 1.341 1_655 S
C1018 C1015 1.479 . S
C1018 N1022 1.421 1_655 S
C1019 H1009 0.929 . S
C1019 C1017 1.433 . S
C1019 N1022 1.384 . S
C1020 H1011 0.929 . S
C1020 C1012 1.378 . S
C1020 C1015 1.350 . S
C1021 H1008 0.929 . S
C1021 C1013 1.433 . S
C1021 N1023 1.384 . S
N1022 C1018 1.421 1_455 S
N1022 C1019 1.384 . S
N1023 C1015 1.427 . S
N1023 C1021 1.384 . S
H1024 C1030 0.930 . S
H1025 C1034 0.930 . S
H1026 C1039 0.929 . S
H1027 C1037 0.929 . S
H1028 C1032 0.929 . S
H1029 C1038 0.929 . S
C1030 H1024 0.930 . S
C1030 C1031 1.367 . S
C1030 C1038 1.378 . S
C1031 C1030 1.367 . S
C1031 C1039 1.433 . S
C1032 H1028 0.929 . S
C1032 C1034 1.378 . S
C1032 C1036 1.350 . S
C1033 C1036 1.463 . S
C1033 C1038 1.350 . S
C1033 N1041 1.427 . S
C1034 H1025 0.930 . S
C1034 C1032 1.378 . S
C1034 C1035 1.367 . S
C1035 C1034 1.367 . S
C1035 C1037 1.433 . S
C1036 C1032 1.350 . S
C1036 C1033 1.463 . S
C1036 N1040 1.427 . S
C1037 H1027 0.929 . S
C1037 C1035 1.433 . S
C1037 N1040 1.384 . S
C1038 H1029 0.929 . S
C1038 C1030 1.378 . S
C1038 C1033 1.350 . S
C1039 H1026 0.929 . S
C1039 C1031 1.433 . S
C1039 N1041 1.384 . S
N1040 C1036 1.427 . S
N1040 C1037 1.384 . S
N1041 C1033 1.427 . S
N1041 C1039 1.384 . S
H1042 C1048 0.930 . S
H1043 C1052 0.930 . S
H1044 C1057 0.929 . S
H1045 C1055 0.929 . S
H1046 C1050 0.929 . S
H1047 C1056 0.929 . S
C1048 H1042 0.930 . S
C1048 C1049 1.367 . S
C1048 C1056 1.378 . S
C1049 C1048 1.367 . S
C1049 C1057 1.433 . S
C1050 H1046 0.929 . S
C1050 C1052 1.378 . S
C1050 C1054 1.350 . S
C1051 C1054 1.463 . S
C1051 C1056 1.350 . S
C1051 N1059 1.427 . S
C1052 H1043 0.930 . S
C1052 C1050 1.378 . S
C1052 C1053 1.367 . S
C1053 C1052 1.367 . S
C1053 C1055 1.433 . S
C1054 C1050 1.350 . S
C1054 C1051 1.463 . S
C1054 N1058 1.427 . S
C1055 H1045 0.929 . S
C1055 C1053 1.433 . S
C1055 N1058 1.384 . S
C1056 H1047 0.929 . S
C1056 C1048 1.378 . S
C1056 C1051 1.350 . S
C1057 H1044 0.929 . S
C1057 C1049 1.433 . S
C1057 N1059 1.384 . S
N1058 C1054 1.427 . S
N1058 C1055 1.384 . S
N1059 C1051 1.427 . S
N1059 C1057 1.384 . S
H1060 C1066 0.930 . S
H1061 C1070 0.930 . S
H1062 C1075 0.929 . S
H1063 C1073 0.929 . S
H1064 C1068 0.929 . S
H1065 C1074 0.929 . S
C1066 H1060 0.930 . S
C1066 C1067 1.367 . S
C1066 C1074 1.378 . S
C1067 C1066 1.367 . S
C1067 C1075 1.433 . S
C1068 H1064 0.929 . S
C1068 C1070 1.378 . S
C1068 C1072 1.350 . S
C1069 C1072 1.463 . S
C1069 C1074 1.350 . S
C1069 N1077 1.427 . S
C1070 H1061 0.930 . S
C1070 C1068 1.378 . S
C1070 C1071 1.367 . S
C1071 C1070 1.367 . S
C1071 C1073 1.433 . S
C1072 C1068 1.350 . S
C1072 C1069 1.463 . S
C1072 N1076 1.427 . S
C1073 H1063 0.929 . S
C1073 C1071 1.433 . S
C1073 N1076 1.384 . S
C1074 H1065 0.929 . S
C1074 C1066 1.378 . S
C1074 C1069 1.350 . S
C1075 H1062 0.929 . S
C1075 C1067 1.433 . S
C1075 N1077 1.384 . S
N1076 C1072 1.427 . S
N1076 C1073 1.384 . S
N1077 C1069 1.427 . S
N1077 C1075 1.384 . S
H1078 C1084 0.930 . S
H1079 C1088 0.930 . S
H1080 C1093 0.929 . S
H1081 C1091 0.929 . S
H1082 C1086 0.929 . S
H1083 C1092 0.929 . S
C1084 H1078 0.930 . S
C1084 C1085 1.367 . S
C1084 C1092 1.378 . S
C1085 C1084 1.367 . S
C1085 C1093 1.433 . S
C1086 H1082 0.929 . S
C1086 C1088 1.378 . S
C1086 C1090 1.341 1_455 S
C1087 C1090 1.481 . S
C1087 C1092 1.350 . S
C1087 N1095 1.427 . S
C1088 H1079 0.930 . S
C1088 C1086 1.378 . S
C1088 C1089 1.367 . S
C1089 C1088 1.367 . S
C1089 C1091 1.433 . S
C1090 C1086 1.341 1_655 S
C1090 C1087 1.481 . S
C1090 N1094 1.419 1_655 S
C1091 H1081 0.929 . S
C1091 C1089 1.433 . S
C1091 N1094 1.384 . S
C1092 H1083 0.929 . S
C1092 C1084 1.378 . S
C1092 C1087 1.350 . S
C1093 H1080 0.929 . S
C1093 C1085 1.433 . S
C1093 N1095 1.384 . S
N1094 C1090 1.419 1_455 S
N1094 C1091 1.384 . S
N1095 C1087 1.427 . S
N1095 C1093 1.384 . S
H1096 C1102 0.930 . S
H1097 C1106 0.930 . S
H1098 C1111 0.929 . S
H1099 C1109 0.929 . S
H1100 C1104 0.929 . S
H1101 C1110 0.929 . S
C1102 H1096 0.930 . S
C1102 C1103 1.367 . S
C1102 C1110 1.378 . S
C1103 C1102 1.367 . S
C1103 C1111 1.433 . S
C1104 H1100 0.929 . S
C1104 C1106 1.378 . S
C1104 C1108 1.350 . S
C1105 C1108 1.463 . S
C1105 C1110 1.350 . S
C1105 N1113 1.427 . S
C1106 H1097 0.930 . S
C1106 C1104 1.378 . S
C1106 C1107 1.367 . S
C1107 C1106 1.367 . S
C1107 C1109 1.433 . S
C1108 C1104 1.350 . S
C1108 C1105 1.463 . S
C1108 N1112 1.427 . S
C1109 H1099 0.929 . S
C1109 C1107 1.433 . S
C1109 N1112 1.384 . S
C1110 H1101 0.929 . S
C1110 C1102 1.378 . S
C1110 C1105 1.350 . S
C1111 H1098 0.929 . S
C1111 C1103 1.433 . S
C1111 N1113 1.384 . S
N1112 C1108 1.427 . S
N1112 C1109 1.384 . S
N1113 C1105 1.427 . S
N1113 C1111 1.384 . S
H1114 C1120 0.930 . S
H1115 C1124 0.930 . S
H1116 C1129 0.929 . S
H1117 C1127 0.929 . S
H1118 C1122 0.929 . S
H1119 C1128 0.929 . S
C1120 H1114 0.930 . S
C1120 C1121 1.367 . S
C1120 C1128 1.378 . S
C1121 C1120 1.367 . S
C1121 C1129 1.433 . S
C1122 H1118 0.929 . S
C1122 C1124 1.378 . S
C1122 C1126 1.350 . S
C1123 C1126 1.481 . S
C1123 C1128 1.341 1_655 S
C1123 N1131 1.419 1_655 S
C1124 H1115 0.930 . S
C1124 C1122 1.378 . S
C1124 C1125 1.367 . S
C1125 C1124 1.367 . S
C1125 C1127 1.433 . S
C1126 C1122 1.350 . S
C1126 C1123 1.481 . S
C1126 N1130 1.427 . S
C1127 H1117 0.929 . S
C1127 C1125 1.433 . S
C1127 N1130 1.384 . S
C1128 H1119 0.929 . S
C1128 C1120 1.378 . S
C1128 C1123 1.341 1_455 S
C1129 H1116 0.929 . S
C1129 C1121 1.433 . S
C1129 N1131 1.384 . S
N1130 C1126 1.427 . S
N1130 C1127 1.384 . S
N1131 C1123 1.419 1_455 S
N1131 C1129 1.384 . S
H1132 C1138 0.930 . S
H1133 C1142 0.930 . S
H1134 C1147 0.929 . S
H1135 C1145 0.929 . S
H1136 C1140 0.929 . S
H1137 C1146 0.929 . S
C1138 H1132 0.930 . S
C1138 C1139 1.367 . S
C1138 C1146 1.378 . S
C1139 C1138 1.367 . S
C1139 C1147 1.433 . S
C1140 H1136 0.929 . S
C1140 C1142 1.378 . S
C1140 C1144 1.350 . S
C1141 C1144 1.463 . S
C1141 C1146 1.350 . S
C1141 N1149 1.427 . S
C1142 H1133 0.930 . S
C1142 C1140 1.378 . S
C1142 C1143 1.367 . S
C1143 C1142 1.367 . S
C1143 C1145 1.433 . S
C1144 C1140 1.350 . S
C1144 C1141 1.463 . S
C1144 N1148 1.427 . S
C1145 H1135 0.929 . S
C1145 C1143 1.433 . S
C1145 N1148 1.384 . S
C1146 H1137 0.929 . S
C1146 C1138 1.378 . S
C1146 C1141 1.350 . S
C1147 H1134 0.929 . S
C1147 C1139 1.433 . S
C1147 N1149 1.384 . S
N1148 C1144 1.427 . S
N1148 C1145 1.384 . S
N1149 C1141 1.427 . S
N1149 C1147 1.384 . S
H1150 C1156 0.930 . S
H1151 C1160 0.930 . S
H1152 C1165 0.929 . S
H1153 C1163 0.929 . S
H1154 C1158 0.929 . S
H1155 C1164 0.929 . S
C1156 H1150 0.930 . S
C1156 C1157 1.367 . S
C1156 C1164 1.378 . S
C1157 C1156 1.367 . S
C1157 C1165 1.433 . S
C1158 H1154 0.929 . S
C1158 C1160 1.378 . S
C1158 C1162 1.350 . S
C1159 C1162 1.463 . S
C1159 C1164 1.350 . S
C1159 N1167 1.427 . S
C1160 H1151 0.930 . S
C1160 C1158 1.378 . S
C1160 C1161 1.367 . S
C1161 C1160 1.367 . S
C1161 C1163 1.433 . S
C1162 C1158 1.350 . S
C1162 C1159 1.463 . S
C1162 N1166 1.427 . S
C1163 H1153 0.929 . S
C1163 C1161 1.433 . S
C1163 N1166 1.384 . S
C1164 H1155 0.929 . S
C1164 C1156 1.378 . S
C1164 C1159 1.350 . S
C1165 H1152 0.929 . S
C1165 C1157 1.433 . S
C1165 N1167 1.384 . S
N1166 C1162 1.427 . S
N1166 C1163 1.384 . S
N1167 C1159 1.427 . S
N1167 C1165 1.384 . S
H1168 C1174 0.930 . S
H1169 C1178 0.930 . S
H1170 C1183 0.929 . S
H1171 C1181 0.929 . S
H1172 C1176 0.929 . S
H1173 C1182 0.929 . S
C1174 H1168 0.930 . S
C1174 C1175 1.367 . S
C1174 C1182 1.378 . S
C1175 C1174 1.367 . S
C1175 C1183 1.433 . S
C1176 H1172 0.929 . S
C1176 C1178 1.378 . S
C1176 C1180 1.350 . S
C1177 C1180 1.463 . S
C1177 C1182 1.350 . S
C1177 N1185 1.427 . S
C1178 H1169 0.930 . S
C1178 C1176 1.378 . S
C1178 C1179 1.367 . S
C1179 C1178 1.367 . S
C1179 C1181 1.433 . S
C1180 C1176 1.350 . S
C1180 C1177 1.463 . S
C1180 N1184 1.427 . S
C1181 H1171 0.929 . S
C1181 C1179 1.433 . S
C1181 N1184 1.384 . S
C1182 H1173 0.929 . S
C1182 C1174 1.378 . S
C1182 C1177 1.350 . S
C1183 H1170 0.929 . S
C1183 C1175 1.433 . S
C1183 N1185 1.384 . S
N1184 C1180 1.427 . S
N1184 C1181 1.384 . S
N1185 C1177 1.427 . S
N1185 C1183 1.384 . S
H1186 C1192 0.930 . S
H1187 C1196 0.930 . S
H1188 C1201 0.929 . S
H1189 C1199 0.929 . S
H1190 C1194 0.929 . S
H1191 C1200 0.929 . S
C1192 H1186 0.930 . S
C1192 C1193 1.367 . S
C1192 C1200 1.378 . S
C1193 C1192 1.367 . S
C1193 C1201 1.433 . S
C1194 H1190 0.929 . S
C1194 C1196 1.378 . S
C1194 C1198 1.350 . S
C1195 C1198 1.463 . S
C1195 C1200 1.350 . S
C1195 N1203 1.427 . S
C1196 H1187 0.930 . S
C1196 C1194 1.378 . S
C1196 C1197 1.367 . S
C1197 C1196 1.367 . S
C1197 C1199 1.433 . S
C1198 C1194 1.350 . S
C1198 C1195 1.463 . S
C1198 N1202 1.427 . S
C1199 H1189 0.929 . S
C1199 C1197 1.433 . S
C1199 N1202 1.384 . S
C1200 H1191 0.929 . S
C1200 C1192 1.378 . S
C1200 C1195 1.350 . S
C1201 H1188 0.929 . S
C1201 C1193 1.433 . S
C1201 N1203 1.384 . S
N1202 C1198 1.427 . S
N1202 C1199 1.384 . S
N1203 C1195 1.427 . S
N1203 C1201 1.384 . S
H1204 C1210 0.930 . S
H1205 C1214 0.930 . S
H1206 C1219 0.929 . S
H1207 C1217 0.929 . S
H1208 C1212 0.929 . S
H1209 C1218 0.929 . S
C1210 H1204 0.930 . S
C1210 C1211 1.367 . S
C1210 C1218 1.378 . S
C1211 C1210 1.367 . S
C1211 C1219 1.433 . S
C1212 H1208 0.929 . S
C1212 C1214 1.378 . S
C1212 C1216 1.350 . S
C1213 C1216 1.463 . S
C1213 C1218 1.350 . S
C1213 N1221 1.427 . S
C1214 H1205 0.930 . S
C1214 C1212 1.378 . S
C1214 C1215 1.367 . S
C1215 C1214 1.367 . S
C1215 C1217 1.433 . S
C1216 C1212 1.350 . S
C1216 C1213 1.463 . S
C1216 N1220 1.427 . S
C1217 H1207 0.929 . S
C1217 C1215 1.433 . S
C1217 N1220 1.384 . S
C1218 H1209 0.929 . S
C1218 C1210 1.378 . S
C1218 C1213 1.350 . S
C1219 H1206 0.929 . S
C1219 C1211 1.433 . S
C1219 N1221 1.384 . S
N1220 C1216 1.427 . S
N1220 C1217 1.384 . S
N1221 C1213 1.427 . S
N1221 C1219 1.384 . S
H1222 C1228 0.930 . S
H1223 C1232 0.930 . S
H1224 C1237 0.929 . S
H1225 C1235 0.929 . S
H1226 C1230 0.952 . S
H1227 C1236 0.929 . S
C1228 H1222 0.930 . S
C1228 C1229 1.367 . S
C1228 C1236 1.378 . S
C1229 C1228 1.367 . S
C1229 C1237 1.433 . S
C1230 H1226 0.952 . S
C1230 C1232 1.378 . S
C1230 C1234 1.341 1_655 S
C1231 C1234 1.484 . S
C1231 C1236 1.350 . S
C1231 N1239 1.427 . S
C1232 H1223 0.930 . S
C1232 C1230 1.378 . S
C1232 C1233 1.367 . S
C1233 C1232 1.367 . S
C1233 C1235 1.433 . S
C1234 C1230 1.341 1_455 S
C1234 C1231 1.484 . S
C1234 N1238 1.416 1_455 S
C1235 H1225 0.929 . S
C1235 C1233 1.433 . S
C1235 N1238 1.384 . S
C1236 H1227 0.929 . S
C1236 C1228 1.378 . S
C1236 C1231 1.350 . S
C1237 H1224 0.929 . S
C1237 C1229 1.433 . S
C1237 N1239 1.384 . S
N1238 C1234 1.416 1_655 S
N1238 C1235 1.384 . S
N1239 C1231 1.427 . S
N1239 C1237 1.384 . S
H1240 C1246 0.930 . S
H1241 C1250 0.930 . S
H1242 C1255 0.929 . S
H1243 C1253 0.929 . S
H1244 C1248 0.929 . S
H1245 C1254 0.929 . S
C1246 H1240 0.930 . S
C1246 C1247 1.367 . S
C1246 C1254 1.378 . S
C1247 C1246 1.367 . S
C1247 C1255 1.433 . S
C1248 H1244 0.929 . S
C1248 C1250 1.378 . S
C1248 C1252 1.350 . S
C1249 C1252 1.463 . S
C1249 C1254 1.350 . S
C1249 N1257 1.427 . S
C1250 H1241 0.930 . S
C1250 C1248 1.378 . S
C1250 C1251 1.367 . S
C1251 C1250 1.367 . S
C1251 C1253 1.433 . S
C1252 C1248 1.350 . S
C1252 C1249 1.463 . S
C1252 N1256 1.427 . S
C1253 H1243 0.929 . S
C1253 C1251 1.433 . S
C1253 N1256 1.384 . S
C1254 H1245 0.929 . S
C1254 C1246 1.378 . S
C1254 C1249 1.350 . S
C1255 H1242 0.929 . S
C1255 C1247 1.433 . S
C1255 N1257 1.384 . S
N1256 C1252 1.427 . S
N1256 C1253 1.384 . S
N1257 C1249 1.427 . S
N1257 C1255 1.384 . S
H1258 C1264 0.930 . S
H1259 C1268 0.930 . S
H1260 C1273 0.929 . S
H1261 C1271 0.929 . S
H1262 C1266 0.929 . S
H1263 C1272 0.929 . S
C1264 H1258 0.930 . S
C1264 C1265 1.367 . S
C1264 C1272 1.378 . S
C1265 C1264 1.367 . S
C1265 C1273 1.433 . S
C1266 H1262 0.929 . S
C1266 C1268 1.378 . S
C1266 C1270 1.350 . S
C1267 C1270 1.480 . S
C1267 C1272 1.341 1_455 S
C1267 N1275 1.420 1_455 S
C1268 H1259 0.930 . S
C1268 C1266 1.378 . S
C1268 C1269 1.367 . S
C1269 C1268 1.367 . S
C1269 C1271 1.433 . S
C1270 C1266 1.350 . S
C1270 C1267 1.480 . S
C1270 N1274 1.427 . S
C1271 H1261 0.929 . S
C1271 C1269 1.433 . S
C1271 N1274 1.384 . S
C1272 H1263 0.929 . S
C1272 C1264 1.378 . S
C1272 C1267 1.341 1_655 S
C1273 H1260 0.929 . S
C1273 C1265 1.433 . S
C1273 N1275 1.384 . S
N1274 C1270 1.427 . S
N1274 C1271 1.384 . S
N1275 C1267 1.420 1_655 S
N1275 C1273 1.384 . S
H1276 C1282 0.930 . S
H1277 C1286 0.930 . S
H1278 C1291 0.929 . S
H1279 C1289 0.929 . S
H1280 C1284 0.929 . S
H1281 C1290 0.929 . S
C1282 H1276 0.930 . S
C1282 C1283 1.367 . S
C1282 C1290 1.378 . S
C1283 C1282 1.367 . S
C1283 C1291 1.433 . S
C1284 H1280 0.929 . S
C1284 C1286 1.378 . S
C1284 C1288 1.350 . S
C1285 C1288 1.463 . S
C1285 C1290 1.350 . S
C1285 N1293 1.427 . S
C1286 H1277 0.930 . S
C1286 C1284 1.378 . S
C1286 C1287 1.367 . S
C1287 C1286 1.367 . S
C1287 C1289 1.433 . S
C1288 C1284 1.350 . S
C1288 C1285 1.463 . S
C1288 N1292 1.427 . S
C1289 H1279 0.929 . S
C1289 C1287 1.433 . S
C1289 N1292 1.384 . S
C1290 H1281 0.929 . S
C1290 C1282 1.378 . S
C1290 C1285 1.350 . S
C1291 H1278 0.929 . S
C1291 C1283 1.433 . S
C1291 N1293 1.384 . S
N1292 C1288 1.427 . S
N1292 C1289 1.384 . S
N1293 C1285 1.427 . S
N1293 C1291 1.384 . S
H1294 C1300 0.930 . S
H1295 C1304 0.930 . S
H1296 C1309 0.929 . S
H1297 C1307 0.929 . S
H1298 C1302 0.929 . S
H1299 C1308 0.929 . S
C1300 H1294 0.930 . S
C1300 C1301 1.367 . S
C1300 C1308 1.378 . S
C1301 C1300 1.367 . S
C1301 C1309 1.433 . S
C1302 H1298 0.929 . S
C1302 C1304 1.378 . S
C1302 C1306 1.350 . S
C1303 C1306 1.463 . S
C1303 C1308 1.350 . S
C1303 N1311 1.427 . S
C1304 H1295 0.930 . S
C1304 C1302 1.378 . S
C1304 C1305 1.367 . S
C1305 C1304 1.367 . S
C1305 C1307 1.433 . S
C1306 C1302 1.350 . S
C1306 C1303 1.463 . S
C1306 N1310 1.427 . S
C1307 H1297 0.929 . S
C1307 C1305 1.433 . S
C1307 N1310 1.384 . S
C1308 H1299 0.929 . S
C1308 C1300 1.378 . S
C1308 C1303 1.350 . S
C1309 H1296 0.929 . S
C1309 C1301 1.433 . S
C1309 N1311 1.384 . S
N1310 C1306 1.427 . S
N1310 C1307 1.384 . S
N1311 C1303 1.427 . S
N1311 C1309 1.384 . S
H1312 C1318 0.930 . S
H1313 C1322 0.930 . S
H1314 C1327 0.929 . S
H1315 C1325 0.929 . S
H1316 C1320 0.929 . S
H1317 C1326 0.929 . S
C1318 H1312 0.930 . S
C1318 C1319 1.367 . S
C1318 C1326 1.378 . S
C1319 C1318 1.367 . S
C1319 C1327 1.433 . S
C1320 H1316 0.929 . S
C1320 C1322 1.378 . S
C1320 C1324 1.350 . S
C1321 C1324 1.463 . S
C1321 C1326 1.350 . S
C1321 N1329 1.427 . S
C1322 H1313 0.930 . S
C1322 C1320 1.378 . S
C1322 C1323 1.367 . S
C1323 C1322 1.367 . S
C1323 C1325 1.433 . S
C1324 C1320 1.350 . S
C1324 C1321 1.463 . S
C1324 N1328 1.427 . S
C1325 H1315 0.929 . S
C1325 C1323 1.433 . S
C1325 N1328 1.384 . S
C1326 H1317 0.929 . S
C1326 C1318 1.378 . S
C1326 C1321 1.350 . S
C1327 H1314 0.929 . S
C1327 C1319 1.433 . S
C1327 N1329 1.384 . S
N1328 C1324 1.427 . S
N1328 C1325 1.384 . S
N1329 C1321 1.427 . S
N1329 C1327 1.384 . S
H1330 C1336 0.930 . S
H1331 C1340 0.930 . S
H1332 C1345 0.929 . S
H1333 C1343 0.929 . S
H1334 C1338 0.929 . S
H1335 C1344 0.929 . S
C1336 H1330 0.930 . S
C1336 C1337 1.367 . S
C1336 C1344 1.378 . S
C1337 C1336 1.367 . S
C1337 C1345 1.433 . S
C1338 H1334 0.929 . S
C1338 C1340 1.378 . S
C1338 C1342 1.350 . S
C1339 C1342 1.463 . S
C1339 C1344 1.350 . S
C1339 N1347 1.427 . S
C1340 H1331 0.930 . S
C1340 C1338 1.378 . S
C1340 C1341 1.367 . S
C1341 C1340 1.367 . S
C1341 C1343 1.433 . S
C1342 C1338 1.350 . S
C1342 C1339 1.463 . S
C1342 N1346 1.427 . S
C1343 H1333 0.929 . S
C1343 C1341 1.433 . S
C1343 N1346 1.384 . S
C1344 H1335 0.929 . S
C1344 C1336 1.378 . S
C1344 C1339 1.350 . S
C1345 H1332 0.929 . S
C1345 C1337 1.433 . S
C1345 N1347 1.384 . S
N1346 C1342 1.427 . S
N1346 C1343 1.384 . S
N1347 C1339 1.427 . S
N1347 C1345 1.384 . S
H1348 C1354 0.930 . S
H1349 C1358 0.930 . S
H1350 C1363 0.929 . S
H1351 C1361 0.929 . S
H1352 C1356 0.929 . S
H1353 C1362 0.929 . S
C1354 H1348 0.930 . S
C1354 C1355 1.367 . S
C1354 C1362 1.378 . S
C1355 C1354 1.367 . S
C1355 C1363 1.433 . S
C1356 H1352 0.929 . S
C1356 C1358 1.378 . S
C1356 C1360 1.350 . S
C1357 C1360 1.463 . S
C1357 C1362 1.350 . S
C1357 N1365 1.427 . S
C1358 H1349 0.930 . S
C1358 C1356 1.378 . S
C1358 C1359 1.367 . S
C1359 C1358 1.367 . S
C1359 C1361 1.433 . S
C1360 C1356 1.350 . S
C1360 C1357 1.463 . S
C1360 N1364 1.427 . S
C1361 H1351 0.929 . S
C1361 C1359 1.433 . S
C1361 N1364 1.384 . S
C1362 H1353 0.929 . S
C1362 C1354 1.378 . S
C1362 C1357 1.350 . S
C1363 H1350 0.929 . S
C1363 C1355 1.433 . S
C1363 N1365 1.384 . S
N1364 C1360 1.427 . S
N1364 C1361 1.384 . S
N1365 C1357 1.427 . S
N1365 C1363 1.384 . S
H1366 C1372 0.930 . S
H1367 C1376 0.930 . S
H1368 C1381 0.929 . S
H1369 C1379 0.929 . S
H1370 C1374 0.929 . S
H1371 C1380 0.929 . S
C1372 H1366 0.930 . S
C1372 C1373 1.367 . S
C1372 C1380 1.378 . S
C1373 C1372 1.367 . S
C1373 C1381 1.433 . S
C1374 H1370 0.929 . S
C1374 C1376 1.378 . S
C1374 C1378 1.350 . S
C1375 C1378 1.463 . S
C1375 C1380 1.350 . S
C1375 N1383 1.427 . S
C1376 H1367 0.930 . S
C1376 C1374 1.378 . S
C1376 C1377 1.367 . S
C1377 C1376 1.367 . S
C1377 C1379 1.433 . S
C1378 C1374 1.350 . S
C1378 C1375 1.463 . S
C1378 N1382 1.427 . S
C1379 H1369 0.929 . S
C1379 C1377 1.433 . S
C1379 N1382 1.384 . S
C1380 H1371 0.929 . S
C1380 C1372 1.378 . S
C1380 C1375 1.350 . S
C1381 H1368 0.929 . S
C1381 C1373 1.433 . S
C1381 N1383 1.384 . S
N1382 C1378 1.427 . S
N1382 C1379 1.384 . S
N1383 C1375 1.427 . S
N1383 C1381 1.384 . S
H1384 C1390 0.930 . S
H1385 C1394 0.930 . S
H1386 C1399 0.929 . S
H1387 C1397 0.929 . S
H1388 C1392 0.929 . S
H1389 C1398 0.929 . S
C1390 H1384 0.930 . S
C1390 C1391 1.367 . S
C1390 C1398 1.378 . S
C1391 C1390 1.367 . S
C1391 C1399 1.433 . S
C1392 H1388 0.929 . S
C1392 C1394 1.378 . S
C1392 C1396 1.350 . S
C1393 C1396 1.463 . S
C1393 C1398 1.350 . S
C1393 N1401 1.427 . S
C1394 H1385 0.930 . S
C1394 C1392 1.378 . S
C1394 C1395 1.367 . S
C1395 C1394 1.367 . S
C1395 C1397 1.433 . S
C1396 C1392 1.350 . S
C1396 C1393 1.463 . S
C1396 N1400 1.427 . S
C1397 H1387 0.929 . S
C1397 C1395 1.433 . S
C1397 N1400 1.384 . S
C1398 H1389 0.929 . S
C1398 C1390 1.378 . S
C1398 C1393 1.350 . S
C1399 H1386 0.929 . S
C1399 C1391 1.433 . S
C1399 N1401 1.384 . S
N1400 C1396 1.427 . S
N1400 C1397 1.384 . S
N1401 C1393 1.427 . S
N1401 C1399 1.384 . S
H1402 C1408 0.930 . S
H1403 C1412 0.930 . S
H1404 C1417 0.929 . S
H1405 C1415 0.929 . S
H1406 C1410 0.929 . S
H1407 C1416 0.929 . S
C1408 H1402 0.930 . S
C1408 C1409 1.367 . S
C1408 C1416 1.378 . S
C1409 C1408 1.367 . S
C1409 C1417 1.433 . S
C1410 H1406 0.929 . S
C1410 C1412 1.378 . S
C1410 C1414 1.350 . S
C1411 C1414 1.463 . S
C1411 C1416 1.350 . S
C1411 N1419 1.427 . S
C1412 H1403 0.930 . S
C1412 C1410 1.378 . S
C1412 C1413 1.367 . S
C1413 C1412 1.367 . S
C1413 C1415 1.433 . S
C1414 C1410 1.350 . S
C1414 C1411 1.463 . S
C1414 N1418 1.427 . S
C1415 H1405 0.929 . S
C1415 C1413 1.433 . S
C1415 N1418 1.384 . S
C1416 H1407 0.929 . S
C1416 C1408 1.378 . S
C1416 C1411 1.350 . S
C1417 H1404 0.929 . S
C1417 C1409 1.433 . S
C1417 N1419 1.384 . S
N1418 C1414 1.427 . S
N1418 C1415 1.384 . S
N1419 C1411 1.427 . S
N1419 C1417 1.384 . S
H1420 C1426 0.930 . S
H1421 C1430 0.930 . S
H1422 C1435 0.929 . S
H1423 C1433 0.929 . S
H1424 C1428 0.929 . S
H1425 C1434 0.929 . S
C1426 H1420 0.930 . S
C1426 C1427 1.367 . S
C1426 C1434 1.378 . S
C1427 C1426 1.367 . S
C1427 C1435 1.433 . S
C1428 H1424 0.929 . S
C1428 C1430 1.378 . S
C1428 C1432 1.350 . S
C1429 C1432 1.463 . S
C1429 C1434 1.350 . S
C1429 N1437 1.427 . S
C1430 H1421 0.930 . S
C1430 C1428 1.378 . S
C1430 C1431 1.367 . S
C1431 C1430 1.367 . S
C1431 C1433 1.433 . S
C1432 C1428 1.350 . S
C1432 C1429 1.463 . S
C1432 N1436 1.427 . S
C1433 H1423 0.929 . S
C1433 C1431 1.433 . S
C1433 N1436 1.384 . S
C1434 H1425 0.929 . S
C1434 C1426 1.378 . S
C1434 C1429 1.350 . S
C1435 H1422 0.929 . S
C1435 C1427 1.433 . S
C1435 N1437 1.384 . S
N1436 C1432 1.427 . S
N1436 C1433 1.384 . S
N1437 C1429 1.427 . S
N1437 C1435 1.384 . S
H1438 C1444 0.930 . S
H1439 C1448 0.930 . S
H1440 C1453 0.929 . S
H1441 C1451 0.929 . S
H1442 C1446 0.929 . S
H1443 C1452 0.929 . S
C1444 H1438 0.930 . S
C1444 C1445 1.367 . S
C1444 C1452 1.378 . S
C1445 C1444 1.367 . S
C1445 C1453 1.433 . S
C1446 H1442 0.929 . S
C1446 C1448 1.378 . S
C1446 C1450 1.350 . S
C1447 C1450 1.463 . S
C1447 C1452 1.350 . S
C1447 N1455 1.427 . S
C1448 H1439 0.930 . S
C1448 C1446 1.378 . S
C1448 C1449 1.367 . S
C1449 C1448 1.367 . S
C1449 C1451 1.433 . S
C1450 C1446 1.350 . S
C1450 C1447 1.463 . S
C1450 N1454 1.427 . S
C1451 H1441 0.929 . S
C1451 C1449 1.433 . S
C1451 N1454 1.384 . S
C1452 H1443 0.929 . S
C1452 C1444 1.378 . S
C1452 C1447 1.350 . S
C1453 H1440 0.929 . S
C1453 C1445 1.433 . S
C1453 N1455 1.384 . S
N1454 C1450 1.427 . S
N1454 C1451 1.384 . S
N1455 C1447 1.427 . S
N1455 C1453 1.384 . S
H1456 C1462 0.930 . S
H1457 C1466 0.930 . S
H1458 C1471 0.929 . S
H1459 C1469 0.929 . S
H1460 C1464 0.929 . S
H1461 C1470 0.929 . S
C1462 H1456 0.930 . S
C1462 C1463 1.367 . S
C1462 C1470 1.378 . S
C1463 C1462 1.367 . S
C1463 C1471 1.433 . S
C1464 H1460 0.929 . S
C1464 C1466 1.378 . S
C1464 C1468 1.350 . S
C1465 C1468 1.463 . S
C1465 C1470 1.350 . S
C1465 N1473 1.427 . S
C1466 H1457 0.930 . S
C1466 C1464 1.378 . S
C1466 C1467 1.367 . S
C1467 C1466 1.367 . S
C1467 C1469 1.433 . S
C1468 C1464 1.350 . S
C1468 C1465 1.463 . S
C1468 N1472 1.427 . S
C1469 H1459 0.929 . S
C1469 C1467 1.433 . S
C1469 N1472 1.384 . S
C1470 H1461 0.929 . S
C1470 C1462 1.378 . S
C1470 C1465 1.350 . S
C1471 H1458 0.929 . S
C1471 C1463 1.433 . S
C1471 N1473 1.384 . S
N1472 C1468 1.427 . S
N1472 C1469 1.384 . S
N1473 C1465 1.427 . S
N1473 C1471 1.384 . S
H1474 C1480 0.930 . S
H1475 C1484 0.930 . S
H1476 C1489 0.929 . S
H1477 C1487 0.929 . S
H1478 C1482 0.929 . S
H1479 C1488 0.929 . S
C1480 H1474 0.930 . S
C1480 C1481 1.367 . S
C1480 C1488 1.378 . S
C1481 C1480 1.367 . S
C1481 C1489 1.433 . S
C1482 H1478 0.929 . S
C1482 C1484 1.378 . S
C1482 C1486 1.350 . S
C1483 C1486 1.463 . S
C1483 C1488 1.350 . S
C1483 N1491 1.427 . S
C1484 H1475 0.930 . S
C1484 C1482 1.378 . S
C1484 C1485 1.367 . S
C1485 C1484 1.367 . S
C1485 C1487 1.433 . S
C1486 C1482 1.350 . S
C1486 C1483 1.463 . S
C1486 N1490 1.427 . S
C1487 H1477 0.929 . S
C1487 C1485 1.433 . S
C1487 N1490 1.384 . S
C1488 H1479 0.929 . S
C1488 C1480 1.378 . S
C1488 C1483 1.350 . S
C1489 H1476 0.929 . S
C1489 C1481 1.433 . S
C1489 N1491 1.384 . S
N1490 C1486 1.427 . S
N1490 C1487 1.384 . S
N1491 C1483 1.427 . S
N1491 C1489 1.384 . S
H1492 C1498 0.930 . S
H1493 C1502 0.930 . S
H1494 C1507 0.929 . S
H1495 C1505 0.929 . S
H1496 C1500 0.929 . S
H1497 C1506 0.929 . S
C1498 H1492 0.930 . S
C1498 C1499 1.367 . S
C1498 C1506 1.378 . S
C1499 C1498 1.367 . S
C1499 C1507 1.433 . S
C1500 H1496 0.929 . S
C1500 C1502 1.378 . S
C1500 C1504 1.350 . S
C1501 C1504 1.463 . S
C1501 C1506 1.350 . S
C1501 N1509 1.427 . S
C1502 H1493 0.930 . S
C1502 C1500 1.378 . S
C1502 C1503 1.367 . S
C1503 C1502 1.367 . S
C1503 C1505 1.433 . S
C1504 C1500 1.350 . S
C1504 C1501 1.463 . S
C1504 N1508 1.427 . S
C1505 H1495 0.929 . S
C1505 C1503 1.433 . S
C1505 N1508 1.384 . S
C1506 H1497 0.929 . S
C1506 C1498 1.378 . S
C1506 C1501 1.350 . S
C1507 H1494 0.929 . S
C1507 C1499 1.433 . S
C1507 N1509 1.384 . S
N1508 C1504 1.427 . S
N1508 C1505 1.384 . S
N1509 C1501 1.427 . S
N1509 C1507 1.384 . S
H1510 C1516 0.930 . S
H1511 C1520 0.930 . S
H1512 C1525 0.929 . S
H1513 C1523 0.929 . S
H1514 C1518 0.929 . S
H1515 C1524 0.929 . S
C1516 H1510 0.930 . S
C1516 C1517 1.367 . S
C1516 C1524 1.378 . S
C1517 C1516 1.367 . S
C1517 C1525 1.433 . S
C1518 H1514 0.929 . S
C1518 C1520 1.378 . S
C1518 C1522 1.350 . S
C1519 C1522 1.463 . S
C1519 C1524 1.350 . S
C1519 N1527 1.427 . S
C1520 H1511 0.930 . S
C1520 C1518 1.378 . S
C1520 C1521 1.367 . S
C1521 C1520 1.367 . S
C1521 C1523 1.433 . S
C1522 C1518 1.350 . S
C1522 C1519 1.463 . S
C1522 N1526 1.427 . S
C1523 H1513 0.929 . S
C1523 C1521 1.433 . S
C1523 N1526 1.384 . S
C1524 H1515 0.929 . S
C1524 C1516 1.378 . S
C1524 C1519 1.350 . S
C1525 H1512 0.929 . S
C1525 C1517 1.433 . S
C1525 N1527 1.384 . S
N1526 C1522 1.427 . S
N1526 C1523 1.384 . S
N1527 C1519 1.427 . S
N1527 C1525 1.384 . S
H1528 C1534 0.930 . S
H1529 C1538 0.930 . S
H1530 C1543 0.929 . S
H1531 C1541 0.929 . S
H1532 C1536 0.929 . S
H1533 C1542 0.929 . S
C1534 H1528 0.930 . S
C1534 C1535 1.367 . S
C1534 C1542 1.378 . S
C1535 C1534 1.367 . S
C1535 C1543 1.433 . S
C1536 H1532 0.929 . S
C1536 C1538 1.378 . S
C1536 C1540 1.350 . S
C1537 C1540 1.463 . S
C1537 C1542 1.350 . S
C1537 N1545 1.427 . S
C1538 H1529 0.930 . S
C1538 C1536 1.378 . S
C1538 C1539 1.367 . S
C1539 C1538 1.367 . S
C1539 C1541 1.433 . S
C1540 C1536 1.350 . S
C1540 C1537 1.463 . S
C1540 N1544 1.427 . S
C1541 H1531 0.929 . S
C1541 C1539 1.433 . S
C1541 N1544 1.384 . S
C1542 H1533 0.929 . S
C1542 C1534 1.378 . S
C1542 C1537 1.350 . S
C1543 H1530 0.929 . S
C1543 C1535 1.433 . S
C1543 N1545 1.384 . S
N1544 C1540 1.427 . S
N1544 C1541 1.384 . S
N1545 C1537 1.427 . S
N1545 C1543 1.384 . S
H1546 C1552 0.930 . S
H1547 C1556 0.930 . S
H1548 C1561 0.929 . S
H1549 C1559 0.929 . S
H1550 C1554 0.929 . S
H1551 C1560 0.929 . S
C1552 H1546 0.930 . S
C1552 C1553 1.367 . S
C1552 C1560 1.378 . S
C1553 C1552 1.367 . S
C1553 C1561 1.433 . S
C1554 H1550 0.929 . S
C1554 C1556 1.378 . S
C1554 C1558 1.350 . S
C1555 C1558 1.463 . S
C1555 C1560 1.350 . S
C1555 N1563 1.427 . S
C1556 H1547 0.930 . S
C1556 C1554 1.378 . S
C1556 C1557 1.367 . S
C1557 C1556 1.367 . S
C1557 C1559 1.433 . S
C1558 C1554 1.350 . S
C1558 C1555 1.463 . S
C1558 N1562 1.427 . S
C1559 H1549 0.929 . S
C1559 C1557 1.433 . S
C1559 N1562 1.384 . S
C1560 H1551 0.929 . S
C1560 C1552 1.378 . S
C1560 C1555 1.350 . S
C1561 H1548 0.929 . S
C1561 C1553 1.433 . S
C1561 N1563 1.384 . S
N1562 C1558 1.427 . S
N1562 C1559 1.384 . S
N1563 C1555 1.427 . S
N1563 C1561 1.384 . S
H1564 C1570 0.930 . S
H1565 C1574 0.930 . S
H1566 C1579 0.929 . S
H1567 C1577 0.929 . S
H1568 C1572 0.929 . S
H1569 C1578 0.929 . S
C1570 H1564 0.930 . S
C1570 C1571 1.367 . S
C1570 C1578 1.378 . S
C1571 C1570 1.367 . S
C1571 C1579 1.433 . S
C1572 H1568 0.929 . S
C1572 C1574 1.378 . S
C1572 C1576 1.350 . S
C1573 C1576 1.463 . S
C1573 C1578 1.350 . S
C1573 N1581 1.427 . S
C1574 H1565 0.930 . S
C1574 C1572 1.378 . S
C1574 C1575 1.367 . S
C1575 C1574 1.367 . S
C1575 C1577 1.433 . S
C1576 C1572 1.350 . S
C1576 C1573 1.463 . S
C1576 N1580 1.427 . S
C1577 H1567 0.929 . S
C1577 C1575 1.433 . S
C1577 N1580 1.384 . S
C1578 H1569 0.929 . S
C1578 C1570 1.378 . S
C1578 C1573 1.350 . S
C1579 H1566 0.929 . S
C1579 C1571 1.433 . S
C1579 N1581 1.384 . S
N1580 C1576 1.427 . S
N1580 C1577 1.384 . S
N1581 C1573 1.427 . S
N1581 C1579 1.384 . S
H1582 C1588 0.930 . S
H1583 C1592 0.930 . S
H1584 C1597 0.929 . S
H1585 C1595 0.929 . S
H1586 C1590 0.929 . S
H1587 C1596 0.929 . S
C1588 H1582 0.930 . S
C1588 C1589 1.367 . S
C1588 C1596 1.378 . S
C1589 C1588 1.367 . S
C1589 C1597 1.433 . S
C1590 H1586 0.929 . S
C1590 C1592 1.378 . S
C1590 C1594 1.350 . S
C1591 C1594 1.463 . S
C1591 C1596 1.350 . S
C1591 N1599 1.427 . S
C1592 H1583 0.930 . S
C1592 C1590 1.378 . S
C1592 C1593 1.367 . S
C1593 C1592 1.367 . S
C1593 C1595 1.433 . S
C1594 C1590 1.350 . S
C1594 C1591 1.463 . S
C1594 N1598 1.427 . S
C1595 H1585 0.929 . S
C1595 C1593 1.433 . S
C1595 N1598 1.384 . S
C1596 H1587 0.929 . S
C1596 C1588 1.378 . S
C1596 C1591 1.350 . S
C1597 H1584 0.929 . S
C1597 C1589 1.433 . S
C1597 N1599 1.384 . S
N1598 C1594 1.427 . S
N1598 C1595 1.384 . S
N1599 C1591 1.427 . S
N1599 C1597 1.384 . S
C455 C8 1.466 . S
C459 C64 1.469 . S
C473 C22 1.463 . S
C477 C78 1.467 . S
C491 C92 1.465 . S
C495 C36 1.469 . S
C509 C106 1.461 . S
C513 C50 1.464 . S
C527 C120 1.461 . S
C531 C176 1.462 . S
C545 C134 1.467 . S
C549 C190 1.463 . S
C563 C204 1.461 . S
C567 C148 1.463 . S
C581 C162 1.464 . S
C585 C218 1.468 . S
C599 C288 1.464 . S
C603 C232 1.461 . S
C617 C302 1.467 . S
C621 C246 1.463 . S
C635 C260 1.463 . S
C639 C316 1.461 . S
C653 C330 1.467 . S
C657 C274 1.463 . S
C671 C344 1.461 . S
C675 C400 1.461 . S
C689 C414 1.464 . S
C693 C358 1.468 . S
C707 C428 1.462 . S
C711 C372 1.466 . S
C725 C386 1.464 . S
C729 C442 1.461 . S
C743 C9 1.495 . S
C747 C385 1.486 . S
C761 C119 1.487 . S
C765 C23 1.501 . S
C779 C37 1.499 . S
C783 C357 1.500 . S
C797 C51 1.501 . S
C801 C147 1.486 . S
C815 C413 1.492 . S
C819 C65 1.492 . S
C833 C203 1.495 . S
C837 C79 1.506 . S
C851 C93 1.500 . S
C855 C441 1.500 . S
C869 C107 1.493 . S
C873 C175 1.488 . S
C887 C273 1.500 . S
C891 C121 1.501 . S
C905 C135 1.497 . S
C909 C7 1.499 . S
C923 C245 1.499 . S
C927 C149 1.498 . S
C941 C163 1.506 . S
C945 C35 1.494 . S
C959 C301 1.500 . S
C963 C177 1.499 . S
C977 C191 1.504 . S
C981 C91 1.499 . S
C995 C329 1.486 . S
C999 C205 1.499 . S
C1013 C219 1.505 . S
C1017 C63 1.492 . S
C1031 C161 1.488 . S
C1035 C233 1.492 . S
C1049 C343 1.486 . S
C1053 C247 1.495 . S
C1067 C133 1.499 . S
C1071 C261 1.497 . S
C1085 C275 1.505 . S
C1089 C371 1.499 . S
C1103 C189 1.497 . S
C1107 C289 1.506 . S
C1121 C427 1.499 . S
C1125 C303 1.505 . S
C1139 C217 1.494 . S
C1143 C317 1.493 . S
C1157 C331 1.497 . S
C1161 C399 1.499 . S
C1175 C345 1.505 . S
C1179 C49 1.492 . S
C1193 C359 1.501 . S
C1197 C231 1.500 . S
C1211 C373 1.493 . S
C1215 C21 1.494 . S
C1229 C387 1.495 . S
C1233 C259 1.497 . S
C1247 C401 1.502 . S
C1251 C77 1.500 . S
C1265 C315 1.486 . S
C1269 C415 1.499 . S
C1283 C105 1.485 . S
C1287 C429 1.497 . S
C1301 C443 1.501 . S
C1305 C287 1.500 . S
C1319 C3 1.024 . S
C1323 C101 1.028 . S
C1337 C17 1.029 . S
C1341 C59 1.027 1_556 S
C1355 C31 1.032 1_554 S
C1359 C73 1.021 . S
C1373 C87 1.032 . S
C1377 C45 1.021 . S
C1391 C213 1.033 . S
C1395 C115 1.022 . S
C1409 C171 1.025 1_554 S
C1413 C129 1.027 . S
C1427 C185 1.033 . S
C1431 C143 1.021 1_556 S
C1445 C199 1.027 . S
C1449 C157 1.025 . S
C1463 C227 1.027 1_554 S
C1467 C325 1.029 . S
C1481 C283 1.031 . S
C1485 C241 1.021 . S
C1499 C297 1.031 . S
C1503 C255 1.024 . S
C1517 C311 1.022 1_556 S
C1521 C269 1.033 . S
C1535 C437 1.021 . S
C1539 C339 1.033 1_556 S
C1553 C353 1.022 . S
C1557 C395 1.031 . S
C1571 C367 1.025 . S
C1575 C409 1.027 . S
C1589 C381 1.033 . S
C1593 C423 1.022 1_554 S
