# Generated by pormake.
# Topology noy, (5)-cn, num edge types: 1
# Building blocks:
#     Node 0, Type 0, BuildingBlock: XOMCOT_clean_sbu_1, # of connection points: 5
#     Node 1, Type 0, BuildingBlock: XOMCOT_clean_sbu_1, # of connection points: 5
#     Node 2, Type 0, BuildingBlock: XOMCOT_clean_sbu_1, # of connection points: 5
#     Node 3, Type 0, BuildingBlock: XOMCOT_clean_sbu_1, # of connection points: 5
#     Node 4, Type 0, BuildingBlock: XOMCOT_clean_sbu_1, # of connection points: 5
#     Node 5, Type 0, BuildingBlock: XOMCOT_clean_sbu_1, # of connection points: 5
#     Node 6, Type 0, BuildingBlock: XOMCOT_clean_sbu_1, # of connection points: 5
#     Node 7, Type 0, BuildingBlock: XOMCOT_clean_sbu_1, # of connection points: 5
#     Edge 8, Type (0, 0), BuildingBlock: XUDNAN_clean_linker_2, # of connection points: 2
#     Edge 9, Type (0, 0), BuildingBlock: XUDNAN_clean_linker_2, # of connection points: 2
#     Edge 10, Type (0, 0), BuildingBlock: XUDNAN_clean_linker_2, # of connection points: 2
#     Edge 11, Type (0, 0), BuildingBlock: XUDNAN_clean_linker_2, # of connection points: 2
#     Edge 12, Type (0, 0), BuildingBlock: XUDNAN_clean_linker_2, # of connection points: 2
#     Edge 13, Type (0, 0), BuildingBlock: XUDNAN_clean_linker_2, # of connection points: 2
#     Edge 14, Type (0, 0), BuildingBlock: XUDNAN_clean_linker_2, # of connection points: 2
#     Edge 15, Type (0, 0), BuildingBlock: XUDNAN_clean_linker_2, # of connection points: 2
#     Edge 16, Type (0, 0), BuildingBlock: XUDNAN_clean_linker_2, # of connection points: 2
#     Edge 17, Type (0, 0), BuildingBlock: XUDNAN_clean_linker_2, # of connection points: 2
#     Edge 18, Type (0, 0), BuildingBlock: XUDNAN_clean_linker_2, # of connection points: 2
#     Edge 19, Type (0, 0), BuildingBlock: XUDNAN_clean_linker_2, # of connection points: 2
#     Edge 20, Type (0, 0), BuildingBlock: XUDNAN_clean_linker_2, # of connection points: 2
#     Edge 21, Type (0, 0), BuildingBlock: XUDNAN_clean_linker_2, # of connection points: 2
#     Edge 22, Type (0, 0), BuildingBlock: XUDNAN_clean_linker_2, # of connection points: 2
#     Edge 23, Type (0, 0), BuildingBlock: XUDNAN_clean_linker_2, # of connection points: 2
#     Edge 24, Type (0, 0), BuildingBlock: XUDNAN_clean_linker_2, # of connection points: 2
#     Edge 25, Type (0, 0), BuildingBlock: XUDNAN_clean_linker_2, # of connection points: 2
#     Edge 26, Type (0, 0), BuildingBlock: XUDNAN_clean_linker_2, # of connection points: 2
#     Edge 27, Type (0, 0), BuildingBlock: XUDNAN_clean_linker_2, # of connection points: 2
# Relax obj value: 0.152
# Max RMSD: 0.180
# Mean RMSD: 0.180
data_MOF--net-noy--node1-XOMCOT_clean_sbu_1--edge1-XUDNAN_clean_linker_2
_symmetry_space_group_name_H-M    P1
_symmetry_Int_Tables_number       1
_symmetry_cell_setting            triclinic
loop_
_symmetry_equiv_pos_as_xyz
'x, y, z'
_cell_length_a     49.613681
_cell_length_b     46.217603
_cell_length_c     20.300215
_cell_angle_alpha  89.989682
_cell_angle_beta   90.177196
_cell_angle_gamma 90.560901
loop_
_atom_site_label
_atom_site_type_symbol
_atom_site_fract_x
_atom_site_fract_y
_atom_site_fract_z
_atom_type_partial_charge
C0 C 0.3266 0.38144 0.19437 0.0
C1 C 0.32822 0.39595 0.13564 0.0
N2 N 0.32084 0.42363 0.14535 0.0
N3 N 0.31788 0.3995 0.2415 0.0
C4 C 0.31449 0.42516 0.21026 0.0
H5 H 0.33191 0.3591 0.20241 0.0
Co6 Co 0.31454 0.38715 0.32881 0.0
C7 C 0.28518 0.43404 0.40151 0.0
O8 O 0.27209 0.41511 0.43791 0.0
N9 N 0.31195 0.37347 0.41734 0.0
C10 C 0.32056 0.36834 0.52469 0.0
C11 C 0.32388 0.38586 0.47044 0.0
C12 C 0.30131 0.34841 0.44131 0.0
N13 N 0.30641 0.34469 0.50629 0.0
O14 O 0.27899 0.37256 0.30698 0.0
H15 H 0.33481 0.40622 0.46963 0.0
H16 H 0.2908 0.33251 0.4117 0.0
O17 O 0.30084 0.42534 0.35571 0.0
C18 C 0.2807 0.34661 0.28551 0.0
O19 O 0.30377 0.33316 0.29218 0.0
N20 N 0.35006 0.39922 0.34386 0.0
C21 C 0.4053 0.4106 0.33804 0.0
C22 C 0.38671 0.43331 0.33663 0.0
C23 C 0.35909 0.42716 0.33921 0.0
C24 C 0.36778 0.377 0.34801 0.0
C25 C 0.3955 0.3822 0.34568 0.0
H26 H 0.34515 0.44477 0.33351 0.0
H27 H 0.36025 0.35497 0.35013 0.0
H28 H 0.30831 0.44469 0.23498 0.0
H29 H 0.33444 0.38657 0.0894 0.0
H30 H 0.32809 0.37266 0.57385 0.0
H31 H 0.39334 0.4555 0.3298 0.0
H32 H 0.4091 0.36403 0.34785 0.0
C33 C 0.65965 0.6455 0.69963 0.0
C34 C 0.6579 0.62983 0.64225 0.0
N35 N 0.67488 0.60733 0.6467 0.0
N36 N 0.67756 0.63291 0.74021 0.0
C37 C 0.68658 0.60968 0.70673 0.0
H38 H 0.64888 0.66512 0.71089 0.0
Co39 Co 0.6881 0.64871 0.82028 0.0
C40 C 0.69649 0.59984 0.90951 0.0
O41 O 0.68211 0.61508 0.95105 0.0
N42 N 0.70019 0.66619 0.90025 0.0
C43 C 0.7312 0.67809 0.97546 0.0
C44 C 0.72378 0.65839 0.92854 0.0
C45 C 0.69434 0.69177 0.92987 0.0
N46 N 0.71284 0.69921 0.97611 0.0
O47 O 0.72199 0.65931 0.78111 0.0
H48 H 0.73624 0.64073 0.91234 0.0
H49 H 0.67884 0.70631 0.91326 0.0
O50 O 0.70158 0.61031 0.85201 0.0
C51 C 0.7198 0.68563 0.76293 0.0
O52 O 0.69734 0.69922 0.77663 0.0
N53 N 0.65304 0.64029 0.85298 0.0
C54 C 0.5973 0.63128 0.86451 0.0
C55 C 0.61455 0.60815 0.85182 0.0
C56 C 0.64214 0.61315 0.84521 0.0
C57 C 0.63659 0.663 0.86629 0.0
C58 C 0.60876 0.65891 0.87342 0.0
H59 H 0.65435 0.59541 0.82845 0.0
H60 H 0.64449 0.68475 0.86575 0.0
H61 H 0.70204 0.59537 0.72501 0.0
H62 H 0.64511 0.63464 0.60044 0.0
H63 H 0.74981 0.67809 1.0035 0.0
H64 H 0.60669 0.58665 0.84191 0.0
H65 H 0.59622 0.67753 0.88247 0.0
C66 C 0.3047 0.64521 0.86508 0.0
C67 C 0.30314 0.62218 0.90769 0.0
N68 N 0.30601 0.5976 0.87287 0.0
N69 N 0.30833 0.63543 0.80323 0.0
C70 C 0.30901 0.60627 0.80947 0.0
H71 H 0.30441 0.66776 0.87898 0.0
Co72 Co 0.31497 0.66002 0.73174 0.0
C73 C 0.31078 0.62418 0.61049 0.0
O74 O 0.33133 0.63932 0.58802 0.0
N75 N 0.32151 0.68639 0.66079 0.0
C76 C 0.33742 0.72312 0.60044 0.0
C77 C 0.34209 0.70559 0.65391 0.0
C78 C 0.30441 0.69314 0.61084 0.0
N79 N 0.31378 0.71519 0.57321 0.0
O80 O 0.27954 0.67661 0.74308 0.0
H81 H 0.35915 0.7078 0.68651 0.0
H82 H 0.28512 0.68251 0.60315 0.0
O83 O 0.30166 0.62952 0.66846 0.0
C84 C 0.28331 0.70048 0.77409 0.0
O85 O 0.30831 0.70895 0.78482 0.0
N86 N 0.3506 0.64644 0.72987 0.0
C87 C 0.40413 0.63248 0.75706 0.0
C88 C 0.38733 0.61298 0.72289 0.0
C89 C 0.36042 0.62025 0.71028 0.0
C90 C 0.36638 0.66468 0.7663 0.0
C91 C 0.39328 0.65856 0.77898 0.0
H92 H 0.34751 0.60417 0.68776 0.0
H93 H 0.35775 0.68402 0.78703 0.0
H94 H 0.31241 0.59175 0.76864 0.0
H95 H 0.30156 0.6236 0.96075 0.0
H96 H 0.35039 0.74046 0.58301 0.0
H97 H 0.39481 0.59218 0.70701 0.0
H98 H 0.40521 0.67366 0.80796 0.0
C99 C 0.68248 0.38813 0.36015 0.0
C100 C 0.68371 0.40997 0.40613 0.0
N101 N 0.69142 0.43458 0.37558 0.0
N102 N 0.68952 0.39876 0.30081 0.0
C103 C 0.69501 0.42706 0.31183 0.0
H104 H 0.67555 0.36621 0.36884 0.0
Co105 Co 0.68674 0.37833 0.22188 0.0
C106 C 0.72009 0.41266 0.13005 0.0
O107 O 0.73396 0.38947 0.11541 0.0
N108 N 0.68335 0.35759 0.14209 0.0
C109 C 0.67412 0.3478 0.03697 0.0
C110 C 0.67297 0.36838 0.08566 0.0
C111 C 0.69022 0.33014 0.1265 0.0
N112 N 0.68496 0.32374 0.06279 0.0
O113 O 0.72203 0.36293 0.23756 0.0
H114 H 0.66541 0.39011 0.07992 0.0
H115 H 0.69965 0.31525 0.16019 0.0
O116 O 0.7014 0.41108 0.17303 0.0
C117 C 0.71976 0.33945 0.27007 0.0
O118 O 0.69548 0.32916 0.28211 0.0
N119 N 0.65162 0.39169 0.21231 0.0
C120 C 0.59772 0.40686 0.22662 0.0
C121 C 0.61729 0.42786 0.21048 0.0
C122 C 0.64426 0.41983 0.20364 0.0
C123 C 0.63284 0.3709 0.22567 0.0
C124 C 0.60576 0.37795 0.23273 0.0
H125 H 0.65921 0.43645 0.19458 0.0
H126 H 0.63918 0.34886 0.23399 0.0
H127 H 0.70059 0.44213 0.27342 0.0
H128 H 0.67782 0.40813 0.45725 0.0
H129 H 0.66764 0.35038 0.98637 0.0
H130 H 0.61195 0.45039 0.20496 0.0
H131 H 0.59153 0.36109 0.24636 0.0
C132 C 0.85632 0.8958 0.21372 0.0
C133 C 0.85642 0.91127 0.15611 0.0
N134 N 0.83154 0.92178 0.14616 0.0
N135 N 0.83171 0.89716 0.24169 0.0
C136 C 0.81661 0.91158 0.19693 0.0
H137 H 0.87353 0.88502 0.2349 0.0
Co138 Co 0.82329 0.88076 0.32466 0.0
C139 C 0.80006 0.94221 0.34277 0.0
O140 O 0.80869 0.95303 0.28691 0.0
N141 N 0.81549 0.86342 0.40601 0.0
C142 C 0.81138 0.85693 0.51396 0.0
C143 C 0.81798 0.87635 0.46532 0.0
C144 C 0.80771 0.83593 0.41995 0.0
N145 N 0.80489 0.83146 0.48552 0.0
O146 O 0.79023 0.86566 0.28826 0.0
H147 H 0.82481 0.89839 0.47288 0.0
H148 H 0.80407 0.81956 0.3828 0.0
O149 O 0.80499 0.91585 0.3576 0.0
C150 C 0.79602 0.84402 0.25222 0.0
O151 O 0.82127 0.83567 0.25029 0.0
N152 N 0.85679 0.89373 0.35802 0.0
C153 C 0.91151 0.90654 0.37406 0.0
C154 C 0.89276 0.92871 0.36506 0.0
C155 C 0.86547 0.92187 0.35718 0.0
C156 C 0.8744 0.87208 0.37168 0.0
C157 C 0.90181 0.87802 0.38045 0.0
H158 H 0.85207 0.93907 0.34447 0.0
H159 H 0.86742 0.84983 0.37122 0.0
H160 H 0.79546 0.91622 0.20374 0.0
H161 H 0.87378 0.91541 0.12521 0.0
H162 H 0.81193 0.8611 0.56642 0.0
H163 H 0.89923 0.95099 0.35891 0.0
H164 H 0.91544 0.86021 0.38868 0.0
C165 C 0.16667 0.14578 0.68487 0.0
C166 C 0.1699 0.12626 0.63429 0.0
N167 N 0.18785 0.1062 0.65345 0.0
N168 N 0.18238 0.13812 0.73619 0.0
C169 C 0.19521 0.11407 0.71534 0.0
H170 H 0.15338 0.16419 0.68472 0.0
Co171 Co 0.18432 0.15732 0.81834 0.0
C172 C 0.18859 0.10169 0.89854 0.0
O173 O 0.16333 0.10293 0.91674 0.0
N174 N 0.18706 0.17701 0.90164 0.0
C175 C 0.18367 0.18708 1.00885 0.0
C176 C 0.17729 0.16766 0.96012 0.0
C177 C 0.19896 0.20286 0.91674 0.0
N178 N 0.19732 0.20928 0.98181 0.0
O179 O 0.21998 0.17118 0.79525 0.0
H180 H 0.16527 0.14853 0.96754 0.0
H181 H 0.20892 0.21665 0.88112 0.0
O182 O 0.19893 0.12133 0.86114 0.0
C183 C 0.21532 0.19284 0.7576 0.0
O184 O 0.19011 0.20052 0.74886 0.0
N185 N 0.14751 0.14754 0.83354 0.0
C186 C 0.09117 0.14284 0.83362 0.0
C187 C 0.10702 0.11959 0.81308 0.0
C188 C 0.13517 0.1225 0.81257 0.0
C189 C 0.13213 0.17064 0.85086 0.0
C190 C 0.10413 0.16856 0.85274 0.0
H191 H 0.14703 0.10474 0.79429 0.0
H192 H 0.14144 0.19143 0.8606 0.0
H193 H 0.20924 0.10219 0.74563 0.0
H194 H 0.15985 0.12697 0.58694 0.0
H195 H 0.17805 0.18537 0.06022 0.0
H196 H 0.09778 0.0995 0.79676 0.0
H197 H 0.09267 0.18749 0.86615 0.0
C198 C 0.83575 0.14036 0.85038 0.0
C199 C 0.83786 0.11883 0.89698 0.0
N200 N 0.82056 0.09728 0.8808 0.0
N201 N 0.81748 0.13224 0.80457 0.0
C202 C 0.80833 0.10609 0.82486 0.0
H203 H 0.84701 0.16052 0.84952 0.0
Co204 Co 0.80765 0.15295 0.72976 0.0
C205 C 0.80128 0.11024 0.62458 0.0
O206 O 0.8151 0.12834 0.5875 0.0
N207 N 0.79633 0.17414 0.65394 0.0
C208 C 0.76723 0.18645 0.57525 0.0
C209 C 0.77152 0.16901 0.62844 0.0
C210 C 0.80653 0.19566 0.61534 0.0
N211 N 0.78923 0.2032 0.56662 0.0
O212 O 0.77266 0.15818 0.76746 0.0
H213 H 0.75726 0.15326 0.64736 0.0
H214 H 0.82613 0.2056 0.62196 0.0
O215 O 0.79673 0.11665 0.68493 0.0
C216 C 0.77264 0.18397 0.78985 0.0
O217 O 0.79417 0.20029 0.78109 0.0
N218 N 0.8434 0.15029 0.70013 0.0
C219 C 0.89912 0.14998 0.71846 0.0
C220 C 0.8852 0.12432 0.7032 0.0
C221 C 0.85715 0.12483 0.69524 0.0
C222 C 0.85706 0.17563 0.71015 0.0
C223 C 0.88494 0.17602 0.71865 0.0
H224 H 0.84649 0.10438 0.69343 0.0
H225 H 0.84604 0.19517 0.72023 0.0
H226 H 0.79335 0.09345 0.79847 0.0
H227 H 0.85098 0.11912 0.93967 0.0
H228 H 0.74897 0.18724 0.546 0.0
H229 H 0.89542 0.10372 0.70454 0.0
H230 H 0.89496 0.19619 0.73147 0.0
C231 C 0.20922 0.88582 0.3643 0.0
C232 C 0.21513 0.90609 0.41164 0.0
N233 N 0.21082 0.93251 0.38612 0.0
N234 N 0.20164 0.89919 0.30827 0.0
C235 C 0.20249 0.92782 0.32335 0.0
H236 H 0.20991 0.86266 0.37102 0.0
Co237 Co 0.19086 0.87861 0.23274 0.0
C238 C 0.19794 0.91814 0.11731 0.0
O239 O 0.17844 0.90387 0.08752 0.0
N240 N 0.17967 0.85624 0.15687 0.0
C241 C 0.15495 0.8306 0.08517 0.0
C242 C 0.15426 0.84942 0.13746 0.0
C243 C 0.19538 0.84117 0.1143 0.0
N244 N 0.18084 0.82508 0.07077 0.0
O245 O 0.22489 0.85842 0.23458 0.0
H246 H 0.13598 0.85726 0.15943 0.0
H247 H 0.21716 0.84118 0.11665 0.0
O248 O 0.20528 0.91039 0.17544 0.0
C249 C 0.22017 0.83298 0.25701 0.0
O250 O 0.19506 0.82526 0.26846 0.0
N251 N 0.15696 0.89555 0.23976 0.0
C252 C 0.10456 0.91128 0.2714 0.0
C253 C 0.12133 0.93033 0.23605 0.0
C254 C 0.14774 0.92208 0.22084 0.0
C255 C 0.14139 0.87778 0.27762 0.0
C256 C 0.11502 0.88493 0.29295 0.0
H257 H 0.16062 0.93729 0.19553 0.0
H258 H 0.14948 0.8575 0.29487 0.0
H259 H 0.19712 0.94484 0.28926 0.0
H260 H 0.22142 0.90173 0.46177 0.0
H261 H 0.13754 0.8216 0.06001 0.0
H262 H 0.11403 0.95119 0.21999 0.0
H263 H 0.10296 0.87 0.32193 0.0
H264 H 0.43987 0.37897 0.26234 0.0
H265 H 0.43673 0.45505 0.38729 0.0
H266 H 0.4851 0.4645 0.36602 0.0
H267 H 0.50463 0.35537 0.31445 0.0
H268 H 0.51428 0.34274 0.23398 0.0
H269 H 0.47927 0.34301 0.2569 0.0
H270 H 0.46842 0.37423 0.15424 0.0
H271 H 0.50346 0.37423 0.13126 0.0
H272 H 0.48616 0.40801 0.14194 0.0
H273 H 0.53441 0.46441 0.33392 0.0
H274 H 0.58073 0.4538 0.29751 0.0
H275 H 0.55103 0.37789 0.19325 0.0
C276 C 0.44934 0.3975 0.2858 0.0
C277 C 0.43449 0.41621 0.32678 0.0
C278 C 0.44763 0.44054 0.35533 0.0
C279 C 0.47509 0.44605 0.3436 0.0
C280 C 0.48909 0.42712 0.30295 0.0
C281 C 0.47663 0.40331 0.27462 0.0
C282 C 0.49623 0.38584 0.23423 0.0
C283 C 0.49875 0.35492 0.26155 0.0
C284 C 0.48808 0.38558 0.16108 0.0
C285 C 0.52184 0.40323 0.24516 0.0
C286 C 0.51729 0.42711 0.28441 0.0
C287 C 0.53814 0.44591 0.3027 0.0
C288 C 0.56437 0.43982 0.28133 0.0
C289 C 0.56955 0.41506 0.24229 0.0
C290 C 0.5478 0.3969 0.22328 0.0
H291 H 0.5601 0.66752 0.80856 0.0
H292 H 0.56714 0.5848 0.90832 0.0
H293 H 0.51878 0.57508 0.88795 0.0
H294 H 0.49347 0.68459 0.8719 0.0
H295 H 0.48321 0.70174 0.79625 0.0
H296 H 0.51819 0.70207 0.82014 0.0
H297 H 0.5306 0.67887 0.70815 0.0
H298 H 0.49561 0.67799 0.68436 0.0
H299 H 0.51488 0.64513 0.68416 0.0
H300 H 0.46982 0.5735 0.85153 0.0
H301 H 0.42328 0.58264 0.81255 0.0
H302 H 0.44854 0.66698 0.74078 0.0
C303 C 0.55145 0.64765 0.82767 0.0
C304 C 0.56756 0.62693 0.86005 0.0
C305 C 0.55535 0.60089 0.8827 0.0
C306 C 0.52787 0.59518 0.87147 0.0
C307 C 0.5128 0.6158 0.83795 0.0
C308 C 0.52409 0.64169 0.81731 0.0
C309 C 0.50355 0.66032 0.78257 0.0
C310 C 0.49935 0.68886 0.81997 0.0
C311 C 0.51165 0.66589 0.71054 0.0
C312 C 0.47894 0.64086 0.78673 0.0
C313 C 0.48467 0.61514 0.81829 0.0
C314 C 0.46508 0.59363 0.82704 0.0
C315 C 0.4388 0.59887 0.80429 0.0
C316 C 0.4324 0.62549 0.77378 0.0
C317 C 0.45288 0.6465 0.7643 0.0
H318 H 0.06057 0.87741 0.24831 0.0
H319 H 0.08491 0.96028 0.33 0.0
H320 H 0.0379 0.96853 0.3668 0.0
H321 H 0.99431 0.89998 0.1903 0.0
H322 H 0.979 0.86551 0.20973 0.0
H323 H 0.0141 0.86749 0.18762 0.0
H324 H 0.02651 0.84155 0.29671 0.0
H325 H 0.99151 0.83995 0.31968 0.0
H326 H 0.01582 0.85676 0.37402 0.0
H327 H 0.98835 0.96556 0.40093 0.0
H328 H 0.94026 0.95387 0.42058 0.0
H329 H 0.94936 0.8735 0.31253 0.0
C330 C 0.05591 0.89743 0.27338 0.0
C331 C 0.07621 0.91823 0.28657 0.0
C332 C 0.06947 0.94424 0.31907 0.0
C333 C 0.04293 0.94897 0.34046 0.0
C334 C 0.02349 0.92758 0.32816 0.0
C335 C 0.02965 0.90254 0.29442 0.0
C336 C 0.00536 0.8828 0.28739 0.0
C337 C 0.99774 0.87872 0.21443 0.0
C338 C 0.0101 0.85354 0.3215 0.0
C339 C 0.98455 0.90035 0.32343 0.0
C340 C 0.99527 0.92609 0.34676 0.0
C341 C 0.97972 0.94557 0.38231 0.0
C342 C 0.95241 0.93875 0.39318 0.0
C343 C 0.94093 0.91268 0.36844 0.0
C344 C 0.95746 0.8933 0.33347 0.0
H345 H 0.05819 0.12151 0.735 0.0
H346 H 0.05667 0.16178 0.92807 0.0
H347 H 0.00724 0.16569 0.92064 0.0
H348 H 0.00892 0.1646 0.66204 0.0
H349 H 0.99318 0.13626 0.61405 0.0
H350 H 0.02822 0.13375 0.63637 0.0
H351 H 0.01932 0.08395 0.69105 0.0
H352 H 0.98426 0.08613 0.6682 0.0
H353 H 0.99358 0.08057 0.75313 0.0
H354 H 0.95935 0.16978 0.88883 0.0
H355 H 0.91434 0.17088 0.83724 0.0
H356 H 0.94547 0.12673 0.66535 0.0
C357 C 0.04734 0.13041 0.7764 0.0
C358 C 0.06126 0.14138 0.83216 0.0
C359 C 0.04643 0.15346 0.88473 0.0
C360 C 0.01836 0.15568 0.88106 0.0
C361 C 0.00533 0.1455 0.8247 0.0
C362 C 0.01918 0.13276 0.77358 0.0
C363 C 1.00021 0.12484 0.71738 0.0
C364 C 0.00811 0.14082 0.65371 0.0
C365 C 0.99929 0.09191 0.70684 0.0
C366 C 0.9737 0.13577 0.74439 0.0
C367 C 0.97725 0.14754 0.80647 0.0
C368 C 0.95623 0.16036 0.84056 0.0
C369 C 0.93083 0.16111 0.81064 0.0
C370 C 0.92657 0.14909 0.74725 0.0
C371 C 0.94824 0.13598 0.71395 0.0
H372 H 0.28514 0.57712 0.98821 0.0
H373 H 0.3339 0.55278 0.82027 0.0
H374 H 0.34201 0.50521 0.87132 0.0
H375 H 0.32613 0.54449 0.11079 0.0
H376 H 0.29838 0.53255 0.16142 0.0
H377 H 0.2949 0.56411 0.11015 0.0
H378 H 0.25277 0.54129 0.05424 0.0
H379 H 0.25601 0.50975 0.10572 0.0
H380 H 0.25509 0.50592 1.01737 0.0
H381 H 0.34753 0.46185 0.9438 0.0
H382 H 0.34796 0.42422 0.02868 0.0
H383 H 0.29477 0.4758 0.15019 0.0
C384 C 0.29746 0.56179 0.96196 0.0
C385 C 0.30887 0.56884 0.89997 0.0
C386 C 0.32461 0.54791 0.86716 0.0
C387 C 0.3295 0.52085 0.89608 0.0
C388 C 0.3184 0.51492 0.95772 0.0
C389 C 0.3025 0.53467 0.99007 0.0
C390 C 0.29333 0.523 0.05638 0.0
C391 C 0.30382 0.54218 0.11302 0.0
C392 C 0.26247 0.5198 0.05852 0.0
C393 C 0.30686 0.49371 0.05663 0.0
C394 C 0.32121 0.48958 0.99921 0.0
C395 C 0.33602 0.46466 0.98851 0.0
C396 C 0.33596 0.44322 0.03729 0.0
C397 C 0.32103 0.44651 0.09642 0.0
C398 C 0.30641 0.47237 0.10597 0.0
H399 H 0.69775 0.44917 0.50504 0.0
H400 H 0.68568 0.48569 0.31007 0.0
H401 H 0.68347 0.53434 0.35851 0.0
H402 H 0.65128 0.49384 0.58659 0.0
H403 H 0.67089 0.49749 0.66108 0.0
H404 H 0.67416 0.46566 0.61076 0.0
H405 H 0.72565 0.47478 0.60233 0.0
H406 H 0.72253 0.50665 0.65277 0.0
H407 H 0.73798 0.5092 0.5727 0.0
H408 H 0.67882 0.57857 0.42829 0.0
H409 H 0.67309 0.61549 0.51476 0.0
H410 H 0.6875 0.55069 0.66497 0.0
C411 C 0.6948 0.46736 0.47236 0.0
C412 C 0.69203 0.46336 0.40349 0.0
C413 C 0.68836 0.48796 0.3627 0.0
C414 C 0.68691 0.51579 0.38985 0.0
C415 C 0.68927 0.51882 0.45789 0.0
C416 C 0.69328 0.49532 0.49864 0.0
C417 C 0.69397 0.50439 0.57046 0.0
C418 C 0.67122 0.48946 0.6095 0.0
C419 C 0.72168 0.4984 0.60137 0.0
C420 C 0.68916 0.53659 0.56374 0.0
C421 C 0.68664 0.54444 0.49832 0.0
C422 C 0.68095 0.57273 0.47965 0.0
C423 C 0.67755 0.5935 0.52913 0.0
C424 C 0.67984 0.58597 0.59657 0.0
C425 C 0.68604 0.55715 0.61385 0.0
H426 H 0.68377 0.5728 0.0242 0.0
H427 H 0.72881 0.56062 0.8435 0.0
H428 H 0.74229 0.51185 0.88272 0.0
H429 H 0.72936 0.53671 0.13424 0.0
H430 H 0.70253 0.5213 0.18302 0.0
H431 H 0.69772 0.55528 0.14137 0.0
H432 H 0.65529 0.53435 0.08281 0.0
H433 H 0.65995 0.50036 0.12439 0.0
H434 H 0.65795 0.50143 0.03576 0.0
H435 H 0.74979 0.46342 0.94346 0.0
H436 H 0.74867 0.42009 1.01515 0.0
H437 H 0.69804 0.46569 0.15379 0.0
C438 C 0.69666 0.56013 0.99263 0.0
C439 C 0.70538 0.57069 0.93075 0.0
C440 C 0.72197 0.55305 0.89116 0.0
C441 C 0.72975 0.52538 0.91317 0.0
C442 C 0.7207 0.51576 0.9747 0.0
C443 C 0.70441 0.53271 1.01356 0.0
C444 C 0.69634 0.5174 0.07648 0.0
C445 C 0.70714 0.53364 0.13736 0.0
C446 C 0.66557 0.51313 0.08002 0.0
C447 C 0.71051 0.48894 0.06725 0.0
C448 C 0.72463 0.48832 1.00861 0.0
C449 C 0.73884 0.46383 0.98947 0.0
C450 C 0.73816 0.43933 0.03069 0.0
C451 C 0.72322 0.43941 0.09018 0.0
C452 C 0.7096 0.4648 0.10871 0.0
H453 H 0.27766 0.45797 0.52443 0.0
H454 H 0.29369 0.48066 0.32087 0.0
H455 H 0.29672 0.53227 0.35211 0.0
H456 H 0.23894 0.52288 0.56959 0.0
H457 H 0.25405 0.52553 0.65026 0.0
H458 H 0.25007 0.49068 0.61135 0.0
H459 H 0.30118 0.48149 0.62495 0.0
H460 H 0.30527 0.51622 0.66402 0.0
H461 H 0.32504 0.50745 0.59253 0.0
H462 H 0.30074 0.58077 0.40546 0.0
H463 H 0.30888 0.62273 0.47774 0.0
H464 H 0.29197 0.56969 0.64927 0.0
C465 C 0.28117 0.4739 0.48621 0.0
C466 C 0.28495 0.46527 0.41978 0.0
C467 C 0.29047 0.4867 0.37175 0.0
C468 C 0.29214 0.51611 0.3891 0.0
C469 C 0.28856 0.52386 0.45496 0.0
C470 C 0.28339 0.5034 0.50298 0.0
C471 C 0.28277 0.51737 0.57097 0.0
C472 C 0.25479 0.51391 0.60239 0.0
C473 C 0.30488 0.50489 0.61574 0.0
C474 C 0.28866 0.54885 0.55375 0.0
C475 C 0.29158 0.55201 0.48634 0.0
C476 C 0.29829 0.57856 0.45818 0.0
C477 C 0.30286 0.60232 0.49978 0.0
C478 C 0.30082 0.59966 0.56917 0.0
C479 C 0.29305 0.57261 0.59642 0.0
H480 H 0.85792 0.06781 0.95108 0.0
H481 H 0.77445 0.0651 0.88745 0.0
H482 H 0.76795 0.01862 0.9463 0.0
H483 H 0.87015 0.99162 0.93571 0.0
H484 H 0.89163 0.99022 1.0074 0.0
H485 H 0.88945 0.02311 0.96015 0.0
H486 H 0.87581 0.0513 0.06513 0.0
H487 H 0.87811 0.01855 0.11272 0.0
H488 H 0.84732 0.03893 0.1127 0.0
H489 H 0.77053 0.97283 1.01728 0.0
H490 H 0.7826 0.93156 0.08968 0.0
H491 H 0.86443 0.96479 0.10296 0.0
C492 C 0.83821 0.05758 0.94987 0.0
C493 C 0.81666 0.07016 0.91487 0.0
C494 C 0.79131 0.05575 0.91353 0.0
C495 C 0.78741 0.0294 0.94703 0.0
C496 C 0.80913 1.01762 0.98117 0.0
C497 C 0.83407 0.03124 0.98242 0.0
C498 C 0.85426 1.01418 0.02216 0.0
C499 C 0.87775 1.00419 0.97875 0.0
C500 C 0.86446 0.03179 0.08171 0.0
C501 C 0.8368 0.98889 0.04354 0.0
C502 C 0.81079 0.99119 1.01982 0.0
C503 C 0.79092 0.97072 0.03557 0.0
C504 C 0.7979 0.9474 0.07673 0.0
C505 C 0.82453 0.94465 0.10104 0.0
C506 C 0.84409 0.96574 0.08377 0.0
H507 H 0.16163 0.07895 0.55143 0.0
H508 H 0.23451 0.07651 0.67024 0.0
H509 H 0.2494 0.03359 0.60888 0.0
H510 H 0.15108 1.00305 0.54165 0.0
H511 H 0.1392 1.00328 0.45766 0.0
H512 H 0.13467 0.03461 0.50896 0.0
H513 H 0.15948 0.06634 0.42272 0.0
H514 H 0.16417 0.03504 0.37121 0.0
H515 H 0.19286 0.05656 0.39655 0.0
H516 H 0.25556 0.98967 0.53882 0.0
H517 H 0.25208 0.94699 0.46593 0.0
H518 H 0.17618 0.97804 0.38892 0.0
C519 C 0.18092 0.06975 0.56403 0.0
C520 C 0.19685 0.08136 0.61612 0.0
C521 C 0.22172 0.06804 0.63142 0.0
C522 C 0.23049 0.04372 0.59636 0.0
C523 C 0.21429 0.03288 0.54564 0.0
C524 C 0.19004 0.04544 0.52936 0.0
C525 C 0.17605 0.0288 0.47413 0.0
C526 C 0.14863 1.01672 0.49699 0.0
C527 C 0.17296 0.04783 0.4125 0.0
C528 C 0.19609 1.0047 0.46254 0.0
C529 C 0.21804 1.00762 0.50427 0.0
C530 C 0.23861 0.98734 0.5055 0.0
C531 C 0.23648 0.96318 0.464 0.0
C532 C 0.21406 0.95941 0.42143 0.0
C533 C 0.19382 0.98076 0.4199 0.0
H534 H 0.18081 0.04609 0.86359 0.0
H535 H 0.22753 0.10095 0.99415 0.0
H536 H 0.24077 0.05786 0.05935 0.0
H537 H 0.15297 1.00423 0.98018 0.0
H538 H 0.15328 0.97054 0.93548 0.0
H539 H 0.15269 1.0042 0.89135 0.0
H540 H 0.19602 0.99035 0.82838 0.0
H541 H 0.19651 0.95624 0.87146 0.0
H542 H 0.22562 0.97985 0.87386 0.0
H543 H 0.24116 1.00931 0.12225 0.0
H544 H 0.23115 0.961 0.1704 0.0
H545 H 0.18501 0.93866 0.99554 0.0
C546 C 0.19508 0.04873 0.90372 0.0
C547 C 0.20397 0.0766 0.92258 0.0
C548 C 0.22141 0.0796 0.97746 0.0
C549 C 0.22877 0.05524 1.01511 0.0
C550 C 0.21868 0.02803 0.9968 0.0
C551 C 0.20265 0.02468 0.9413 0.0
C552 C 0.19196 0.99399 0.93541 0.0
C553 C 0.1609 0.99323 0.93566 0.0
C554 C 0.20321 0.97924 0.87361 0.0
C555 C 0.20343 0.98078 0.99759 0.0
C556 C 0.21901 1.00049 0.03238 0.0
C557 C 0.22953 0.99357 0.09443 0.0
C558 C 0.22375 0.96604 0.12153 0.0
C559 C 0.20746 0.94579 0.08677 0.0
C560 C 0.19778 0.95334 0.02343 0.0
H561 H 0.79531 0.09811 0.49503 0.0
H562 H 0.78878 0.05909 0.6886 0.0
H563 H 0.78073 1.01117 0.63638 0.0
H564 H 0.74499 0.05071 0.4101 0.0
H565 H 0.76478 0.05043 0.3358 0.0
H566 H 0.76552 0.08171 0.38885 0.0
H567 H 0.81758 0.07838 0.39684 0.0
H568 H 0.817 0.0472 0.3441 0.0
H569 H 0.83261 0.0451 0.42424 0.0
H570 H 0.77976 0.96655 0.56103 0.0
H571 H 0.78638 0.93062 0.47232 0.0
H572 H 0.79338 1.00037 0.33015 0.0
C573 C 0.79161 0.07962 0.52662 0.0
C574 C 0.79268 0.08225 0.5958 0.0
C575 C 0.78781 0.05754 0.63541 0.0
C576 C 0.78322 0.03028 0.60612 0.0
C577 C 0.78313 0.02834 0.53738 0.0
C578 C 0.78691 0.05255 0.49835 0.0
C579 C 0.78835 0.04481 0.42615 0.0
C580 C 0.76448 0.05768 0.38799 0.0
C581 C 0.81549 0.05443 0.39614 0.0
C582 C 0.78601 1.01228 0.43042 0.0
C583 C 0.78258 1.00304 0.49466 0.0
C584 C 0.78209 0.97364 0.51054 0.0
C585 C 0.78598 0.95336 0.4598 0.0
C586 C 0.79071 0.9626 0.39421 0.0
C587 C 0.78973 0.99244 0.37955 0.0
H588 H 0.26501 0.29034 0.28542 0.0
H589 H 0.25245 0.37159 0.18431 0.0
H590 H 0.22857 0.34543 0.0942 0.0
H591 H 0.27965 0.24911 0.14968 0.0
H592 H 0.26244 0.21669 0.17646 0.0
H593 H 0.27529 0.24201 0.23635 0.0
H594 H 0.22789 0.24671 0.28814 0.0
H595 H 0.21496 0.22079 0.22947 0.0
H596 H 0.1996 0.25583 0.23647 0.0
H597 H 0.2119 0.30839 1.00712 0.0
H598 H 0.19769 0.26548 0.94117 0.0
H599 H 0.22002 0.2095 0.10298 0.0
C600 C 0.2563 0.30273 0.2455 0.0
C601 C 0.26008 0.33302 0.24232 0.0
C602 C 0.24907 0.34847 0.18855 0.0
C603 C 0.23581 0.3337 0.13678 0.0
C604 C 0.23339 0.30356 0.14015 0.0
C605 C 0.24274 0.2884 0.19423 0.0
C606 C 0.23857 0.25612 0.18567 0.0
C607 C 0.2656 0.24006 0.18712 0.0
C608 C 0.21909 0.24416 0.23804 0.0
C609 C 0.226 0.25525 0.11766 0.0
C610 C 0.22329 0.28272 0.09168 0.0
C611 C 0.21353 0.28687 0.02768 0.0
C612 C 0.20576 0.26242 0.99026 0.0
C613 C 0.20754 0.23423 1.01717 0.0
C614 C 0.21802 0.23082 0.08151 0.0
H615 H 0.73123 0.74275 0.76648 0.0
H616 H 0.75302 0.66352 0.66687 0.0
H617 H 0.7796 0.69218 0.5857 0.0
H618 H 0.72034 0.78403 0.62823 0.0
H619 H 0.73392 0.81726 0.66165 0.0
H620 H 0.71986 0.79034 0.71587 0.0
H621 H 0.76459 0.7886 0.78201 0.0
H622 H 0.77868 0.81596 0.72868 0.0
H623 H 0.79575 0.78202 0.73938 0.0
H624 H 0.79883 0.7312 0.50708 0.0
H625 H 0.81266 0.7756 0.44675 0.0
H626 H 0.77785 0.82808 0.60094 0.0
C627 C 0.7422 0.73134 0.7286 0.0
C628 C 0.74028 0.70097 0.72299 0.0
C629 C 0.75466 0.68677 0.67254 0.0
C630 C 0.76959 0.70292 0.62602 0.0
C631 C 0.77017 0.7331 0.63154 0.0
C632 C 0.75724 0.74702 0.68258 0.0
C633 C 0.7597 0.77955 0.67668 0.0
C634 C 0.7318 0.7936 0.6702 0.0
C635 C 0.77564 0.79228 0.73515 0.0
C636 C 0.77545 0.782 0.61333 0.0
C637 C 0.78139 0.75509 0.58772 0.0
C638 C 0.79459 0.75231 0.5274 0.0
C639 C 0.80217 0.77763 0.49314 0.0
C640 C 0.79659 0.80536 0.51937 0.0
C641 C 0.78298 0.8073 0.58019 0.0
H642 H 0.23021 0.82445 1.01116 0.0
H643 H 0.15363 0.77847 0.02044 0.0
H644 H 0.16985 0.74337 0.9388 0.0
H645 H 0.24193 0.81395 0.83644 0.0
H646 H 0.27768 0.80893 0.84678 0.0
H647 H 0.2595 0.8313 0.90378 0.0
H648 H 0.27672 0.80027 1.00136 0.0
H649 H 0.29508 0.77799 0.94472 0.0
H650 H 0.27111 0.76168 1.00036 0.0
H651 H 0.19575 0.71122 0.85838 0.0
H652 H 0.22943 0.6853 0.79047 0.0
H653 H 0.28815 0.75289 0.83388 0.0
C654 C 0.21681 0.80705 0.99616 0.0
C655 C 0.19049 0.80461 0.02229 0.0
C656 C 0.17368 0.78138 1.00063 0.0
C657 C 0.18276 0.76113 0.95427 0.0
C658 C 0.20876 0.76424 0.92945 0.0
C659 C 0.22552 0.78666 0.94974 0.0
C660 C 0.25285 0.78474 0.91719 0.0
C661 C 0.2583 0.81131 0.87345 0.0
C662 C 0.27525 0.78093 0.96899 0.0
C663 C 0.24896 0.7576 0.87613 0.0
C664 C 0.22341 0.74604 0.88341 0.0
C665 C 0.21577 0.72026 0.85193 0.0
C666 C 0.23495 0.70572 0.81316 0.0
C667 C 0.26142 0.71701 0.80641 0.0
C668 C 0.26809 0.7436 0.83751 0.0
H669 H 0.72804 0.28218 0.26584 0.0
H670 H 0.76159 0.362 0.34286 0.0
H671 H 0.79133 0.33394 0.41727 0.0
H672 H 0.72068 0.24837 0.40724 0.0
H673 H 0.72927 0.21245 0.38047 0.0
H674 H 0.71654 0.23805 0.3221 0.0
H675 H 0.75884 0.23167 0.24924 0.0
H676 H 0.77164 0.20552 0.30707 0.0
H677 H 0.79192 0.23656 0.28477 0.0
H678 H 0.80886 0.29714 0.50065 0.0
H679 H 0.81344 0.25614 0.5788 0.0
H680 H 0.76956 0.20077 0.44322 0.0
C681 C 0.74268 0.29363 0.29605 0.0
C682 C 0.74298 0.32408 0.29814 0.0
C683 C 0.76167 0.33861 0.3395 0.0
C684 C 0.77849 0.3228 0.38212 0.0
C685 C 0.77668 0.29258 0.38145 0.0
C686 C 0.75964 0.27819 0.33804 0.0
C687 C 0.7586 0.24607 0.35195 0.0
C688 C 0.72957 0.23567 0.36632 0.0
C689 C 0.771 0.22894 0.29486 0.0
C690 C 0.77618 0.24473 0.41275 0.0
C691 C 0.78694 0.27156 0.42865 0.0
C692 C 0.80118 0.27592 0.48749 0.0
C693 C 0.80377 0.25253 0.5316 0.0
C694 C 0.79186 0.22533 0.51691 0.0
C695 C 0.7789 0.22133 0.45559 0.0
H696 H 0.7579 0.73151 0.97604 0.0
H697 H 0.67671 0.72759 0.05233 0.0
H698 H 0.68698 0.76973 0.1251 0.0
H699 H 0.78965 0.74309 0.12205 0.0
H700 H 0.81548 0.76701 0.09062 0.0
H701 H 0.79994 0.74076 0.03712 0.0
H702 H 0.78631 0.78137 0.95571 0.0
H703 H 0.80213 0.80783 1.00876 0.0
H704 H 0.7673 0.81175 0.98519 0.0
H705 H 0.70938 0.80852 0.20074 0.0
H706 H 0.74068 0.83886 0.26827 0.0
H707 H 0.80658 0.81496 0.14035 0.0
C708 C 0.74209 0.74008 1.00685 0.0
C709 C 0.71655 0.72655 1.00885 0.0
C710 C 0.6963 0.73804 0.04983 0.0
C711 C 0.70204 0.76185 0.09129 0.0
C712 C 0.72799 0.77399 0.09009 0.0
C713 C 0.7475 0.76358 0.04796 0.0
C714 C 0.77448 0.77811 0.05933 0.0
C715 C 0.79614 0.75592 0.07844 0.0
C716 C 0.78305 0.79582 0.99864 0.0
C717 C 0.7676 0.79754 0.11643 0.0
C718 C 0.74066 0.79547 0.13317 0.0
C719 C 0.7304 0.81053 0.18725 0.0
C720 C 0.74826 0.82769 0.22535 0.0
C721 C 0.77602 0.82909 0.20966 0.0
C722 C 0.78547 0.81423 0.1538 0.0
H723 H 0.20985 0.22081 0.64167 0.0
H724 H 0.26787 0.20469 0.79708 0.0
H725 H 0.29932 0.24029 0.7455 0.0
H726 H 0.25878 0.2314 0.50701 0.0
H727 H 0.23869 0.25919 0.46929 0.0
H728 H 0.2226 0.23045 0.51506 0.0
H729 H 0.19906 0.26842 0.58841 0.0
H730 H 0.21526 0.29724 0.54348 0.0
H731 H 0.21921 0.29502 0.63163 0.0
H732 H 0.32182 0.28231 0.6822 0.0
H733 H 0.33473 0.32329 0.61009 0.0
H734 H 0.26162 0.31055 0.49597 0.0
C735 C 0.22941 0.22431 0.66431 0.0
C736 C 0.2365 0.20996 0.72338 0.0
C737 C 0.26221 0.21518 0.75146 0.0
C738 C 0.28007 0.23548 0.72261 0.0
C739 C 0.27199 0.24995 0.66531 0.0
C740 C 0.24737 0.24415 0.63601 0.0
C741 C 0.24268 0.26321 0.57638 0.0
C742 C 0.24057 0.24497 0.51319 0.0
C743 C 0.21757 0.28209 0.58557 0.0
C744 C 0.26823 0.28133 0.57718 0.0
C745 C 0.28494 0.27342 0.62873 0.0
C746 C 0.30898 0.28833 0.64134 0.0
C747 C 0.31606 0.31176 0.60037 0.0
C748 C 0.29925 0.32013 0.54711 0.0
C749 C 0.27514 0.30442 0.53542 0.0
H750 H 0.75152 0.23679 0.77379 0.0
H751 H 0.74532 0.15953 0.89347 0.0
H752 H 0.71728 0.18616 0.97404 0.0
H753 H 0.76134 0.2844 0.89695 0.0
H754 H 0.742 0.31364 0.86279 0.0
H755 H 0.7567 0.2873 0.80906 0.0
H756 H 0.70989 0.27558 0.75827 0.0
H757 H 0.695 0.30241 0.81096 0.0
H758 H 0.68222 0.26576 0.81142 0.0
H759 H 0.69792 0.22439 0.051 0.0
H760 H 0.68414 0.26874 0.11036 0.0
H761 H 0.7021 0.31993 0.93697 0.0
C762 C 0.74323 0.22519 0.8156 0.0
C763 C 0.75011 0.19613 0.82733 0.0
C764 C 0.73963 0.18164 0.88312 0.0
C765 C 0.72391 0.19669 0.92924 0.0
C766 C 0.71854 0.22592 0.91776 0.0
C767 C 0.72735 0.23974 0.86124 0.0
C768 C 0.72095 0.27167 0.86236 0.0
C769 C 0.74678 0.29032 0.85754 0.0
C770 C 0.70081 0.27929 0.8075 0.0
C771 C 0.7082 0.27407 0.92957 0.0
C772 C 0.70686 0.24752 0.96095 0.0
C773 C 0.69824 0.24511 0.02614 0.0
C774 C 0.69068 0.27039 0.05967 0.0
C775 C 0.69169 0.29766 0.02788 0.0
C776 C 0.70036 0.29929 0.96187 0.0
H777 H 0.26046 0.84307 0.34697 0.0
H778 H 0.22451 0.77705 0.22261 0.0
H779 H 0.248 0.73922 0.28577 0.0
H780 H 0.32672 0.80413 0.3799 0.0
H781 H 0.32742 0.81671 0.46394 0.0
H782 H 0.31251 0.83872 0.40046 0.0
H783 H 0.26838 0.84071 0.46791 0.0
H784 H 0.28281 0.81814 0.53074 0.0
H785 H 0.25172 0.80741 0.49115 0.0
H786 H 0.26753 0.70842 0.37484 0.0
H787 H 0.28759 0.68688 0.47526 0.0
H788 H 0.31188 0.77228 0.5419 0.0
C789 C 0.25891 0.82079 0.3308 0.0
C790 C 0.24135 0.81294 0.27875 0.0
C791 C 0.23848 0.78344 0.26122 0.0
C792 C 0.25156 0.7618 0.29721 0.0
C793 C 0.26752 0.77 0.35072 0.0
C794 C 0.2718 0.79882 0.36669 0.0
C795 C 0.28776 0.80155 0.43039 0.0
C796 C 0.31524 0.81614 0.41791 0.0
C797 C 0.2717 0.81792 0.48313 0.0
C798 C 0.29096 0.7699 0.44865 0.0
C799 C 0.27912 0.75206 0.40203 0.0
C800 C 0.27745 0.72213 0.41089 0.0
C801 C 0.2886 0.71009 0.46826 0.0
C802 C 0.30145 0.72787 0.5158 0.0
C803 C 0.30263 0.75816 0.5056 0.0
loop_
_geom_bond_atom_site_label_1
_geom_bond_atom_site_label_2
_geom_bond_distance
_geom_bond_site_symmetry_2
_ccdc_geom_bond_type
C0 C1 1.351 . S
C0 N3 1.368 . S
C0 H5 0.931 . S
C1 C0 1.351 . S
C1 N2 1.373 . S
C1 H29 0.930 . S
N2 C1 1.373 . S
N2 C4 1.340 . S
N3 C0 1.368 . S
N3 C4 1.321 . S
N3 Co6 2.135 . S
C4 N2 1.340 . S
C4 N3 1.321 . S
C4 H28 0.930 . S
H5 C0 0.931 . S
Co6 N3 2.135 . S
Co6 N9 2.121 . S
Co6 O14 2.055 . S
Co6 O17 2.039 . S
Co6 N20 2.140 . S
C7 O8 1.227 . S
C7 O17 1.265 . S
O8 C7 1.227 . S
N9 Co6 2.121 . S
N9 C11 1.375 . S
N9 C12 1.313 . S
C10 C11 1.338 . S
C10 N13 1.377 . S
C10 H30 0.930 . S
C11 N9 1.375 . S
C11 C10 1.338 . S
C11 H15 0.931 . S
C12 N9 1.313 . S
C12 N13 1.344 . S
C12 H16 0.930 . S
N13 C10 1.377 . S
N13 C12 1.344 . S
O14 Co6 2.055 . S
O14 C18 1.253 . S
H15 C11 0.931 . S
H16 C12 0.930 . S
O17 Co6 2.039 . S
O17 C7 1.265 . S
C18 O14 1.253 . S
C18 O19 1.227 . S
O19 C18 1.227 . S
N20 Co6 2.140 . S
N20 C23 1.346 . S
N20 C24 1.345 . S
C21 C22 1.387 . S
C21 C25 1.391 . S
C22 C21 1.387 . S
C22 C23 1.369 . S
C22 H31 0.929 . S
C23 N20 1.346 . S
C23 C22 1.369 . S
C23 H26 0.928 . S
C24 N20 1.345 . S
C24 C25 1.371 . S
C24 H27 0.931 . S
C25 C21 1.391 . S
C25 C24 1.371 . S
C25 H32 0.930 . S
H26 C23 0.928 . S
H27 C24 0.931 . S
H28 C4 0.930 . S
H29 C1 0.930 . S
H30 C10 0.930 . S
H31 C22 0.929 . S
H32 C25 0.930 . S
C33 C34 1.351 . S
C33 N36 1.368 . S
C33 H38 0.931 . S
C34 C33 1.351 . S
C34 N35 1.373 . S
C34 H62 0.930 . S
N35 C34 1.373 . S
N35 C37 1.340 . S
N36 C33 1.368 . S
N36 C37 1.321 . S
N36 Co39 2.135 . S
C37 N35 1.340 . S
C37 N36 1.321 . S
C37 H61 0.930 . S
H38 C33 0.931 . S
Co39 N36 2.135 . S
Co39 N42 2.121 . S
Co39 O47 2.055 . S
Co39 O50 2.039 . S
Co39 N53 2.140 . S
C40 O41 1.227 . S
C40 O50 1.265 . S
O41 C40 1.227 . S
N42 Co39 2.121 . S
N42 C44 1.375 . S
N42 C45 1.313 . S
C43 C44 1.338 . S
C43 N46 1.377 . S
C43 H63 0.930 1_556 S
C44 N42 1.375 . S
C44 C43 1.338 . S
C44 H48 0.931 . S
C45 N42 1.313 . S
C45 N46 1.344 . S
C45 H49 0.930 . S
N46 C43 1.377 . S
N46 C45 1.344 . S
O47 Co39 2.055 . S
O47 C51 1.253 . S
H48 C44 0.931 . S
H49 C45 0.930 . S
O50 Co39 2.039 . S
O50 C40 1.265 . S
C51 O47 1.253 . S
C51 O52 1.227 . S
O52 C51 1.227 . S
N53 Co39 2.140 . S
N53 C56 1.346 . S
N53 C57 1.345 . S
C54 C55 1.387 . S
C54 C58 1.391 . S
C55 C54 1.387 . S
C55 C56 1.369 . S
C55 H64 0.929 . S
C56 N53 1.346 . S
C56 C55 1.369 . S
C56 H59 0.928 . S
C57 N53 1.345 . S
C57 C58 1.371 . S
C57 H60 0.931 . S
C58 C54 1.391 . S
C58 C57 1.371 . S
C58 H65 0.930 . S
H59 C56 0.928 . S
H60 C57 0.931 . S
H61 C37 0.930 . S
H62 C34 0.930 . S
H63 C43 0.930 1_554 S
H64 C55 0.929 . S
H65 C58 0.930 . S
C66 C67 1.351 . S
C66 N69 1.368 . S
C66 H71 0.931 . S
C67 C66 1.351 . S
C67 N68 1.373 . S
C67 H95 0.930 . S
N68 C67 1.373 . S
N68 C70 1.340 . S
N69 C66 1.368 . S
N69 C70 1.321 . S
N69 Co72 2.135 . S
C70 N68 1.340 . S
C70 N69 1.321 . S
C70 H94 0.930 . S
H71 C66 0.931 . S
Co72 N69 2.135 . S
Co72 N75 2.121 . S
Co72 O80 2.055 . S
Co72 O83 2.039 . S
Co72 N86 2.140 . S
C73 O74 1.227 . S
C73 O83 1.265 . S
O74 C73 1.227 . S
N75 Co72 2.121 . S
N75 C77 1.375 . S
N75 C78 1.313 . S
C76 C77 1.338 . S
C76 N79 1.377 . S
C76 H96 0.930 . S
C77 N75 1.375 . S
C77 C76 1.338 . S
C77 H81 0.931 . S
C78 N75 1.313 . S
C78 N79 1.344 . S
C78 H82 0.930 . S
N79 C76 1.377 . S
N79 C78 1.344 . S
O80 Co72 2.055 . S
O80 C84 1.253 . S
H81 C77 0.931 . S
H82 C78 0.930 . S
O83 Co72 2.039 . S
O83 C73 1.265 . S
C84 O80 1.253 . S
C84 O85 1.227 . S
O85 C84 1.227 . S
N86 Co72 2.140 . S
N86 C89 1.346 . S
N86 C90 1.345 . S
C87 C88 1.387 . S
C87 C91 1.391 . S
C88 C87 1.387 . S
C88 C89 1.369 . S
C88 H97 0.929 . S
C89 N86 1.346 . S
C89 C88 1.369 . S
C89 H92 0.928 . S
C90 N86 1.345 . S
C90 C91 1.371 . S
C90 H93 0.931 . S
C91 C87 1.391 . S
C91 C90 1.371 . S
C91 H98 0.930 . S
H92 C89 0.928 . S
H93 C90 0.931 . S
H94 C70 0.930 . S
H95 C67 0.930 . S
H96 C76 0.930 . S
H97 C88 0.929 . S
H98 C91 0.930 . S
C99 C100 1.351 . S
C99 N102 1.368 . S
C99 H104 0.931 . S
C100 C99 1.351 . S
C100 N101 1.373 . S
C100 H128 0.930 . S
N101 C100 1.373 . S
N101 C103 1.340 . S
N102 C99 1.368 . S
N102 C103 1.321 . S
N102 Co105 2.135 . S
C103 N101 1.340 . S
C103 N102 1.321 . S
C103 H127 0.930 . S
H104 C99 0.931 . S
Co105 N102 2.135 . S
Co105 N108 2.121 . S
Co105 O113 2.055 . S
Co105 O116 2.039 . S
Co105 N119 2.140 . S
C106 O107 1.227 . S
C106 O116 1.265 . S
O107 C106 1.227 . S
N108 Co105 2.121 . S
N108 C110 1.375 . S
N108 C111 1.313 . S
C109 C110 1.338 . S
C109 N112 1.377 . S
C109 H129 0.930 1_554 S
C110 N108 1.375 . S
C110 C109 1.338 . S
C110 H114 0.931 . S
C111 N108 1.313 . S
C111 N112 1.344 . S
C111 H115 0.930 . S
N112 C109 1.377 . S
N112 C111 1.344 . S
O113 Co105 2.055 . S
O113 C117 1.253 . S
H114 C110 0.931 . S
H115 C111 0.930 . S
O116 Co105 2.039 . S
O116 C106 1.265 . S
C117 O113 1.253 . S
C117 O118 1.227 . S
O118 C117 1.227 . S
N119 Co105 2.140 . S
N119 C122 1.346 . S
N119 C123 1.345 . S
C120 C121 1.387 . S
C120 C124 1.391 . S
C121 C120 1.387 . S
C121 C122 1.369 . S
C121 H130 0.929 . S
C122 N119 1.346 . S
C122 C121 1.369 . S
C122 H125 0.928 . S
C123 N119 1.345 . S
C123 C124 1.371 . S
C123 H126 0.931 . S
C124 C120 1.391 . S
C124 C123 1.371 . S
C124 H131 0.930 . S
H125 C122 0.928 . S
H126 C123 0.931 . S
H127 C103 0.930 . S
H128 C100 0.930 . S
H129 C109 0.930 1_556 S
H130 C121 0.929 . S
H131 C124 0.930 . S
C132 C133 1.351 . S
C132 N135 1.368 . S
C132 H137 0.931 . S
C133 C132 1.351 . S
C133 N134 1.373 . S
C133 H161 0.930 . S
N134 C133 1.373 . S
N134 C136 1.340 . S
N135 C132 1.368 . S
N135 C136 1.321 . S
N135 Co138 2.135 . S
C136 N134 1.340 . S
C136 N135 1.321 . S
C136 H160 0.930 . S
H137 C132 0.931 . S
Co138 N135 2.135 . S
Co138 N141 2.121 . S
Co138 O146 2.055 . S
Co138 O149 2.039 . S
Co138 N152 2.140 . S
C139 O140 1.227 . S
C139 O149 1.265 . S
O140 C139 1.227 . S
N141 Co138 2.121 . S
N141 C143 1.375 . S
N141 C144 1.313 . S
C142 C143 1.338 . S
C142 N145 1.377 . S
C142 H162 0.930 . S
C143 N141 1.375 . S
C143 C142 1.338 . S
C143 H147 0.931 . S
C144 N141 1.313 . S
C144 N145 1.344 . S
C144 H148 0.930 . S
N145 C142 1.377 . S
N145 C144 1.344 . S
O146 Co138 2.055 . S
O146 C150 1.253 . S
H147 C143 0.931 . S
H148 C144 0.930 . S
O149 Co138 2.039 . S
O149 C139 1.265 . S
C150 O146 1.253 . S
C150 O151 1.227 . S
O151 C150 1.227 . S
N152 Co138 2.140 . S
N152 C155 1.346 . S
N152 C156 1.345 . S
C153 C154 1.387 . S
C153 C157 1.391 . S
C154 C153 1.387 . S
C154 C155 1.369 . S
C154 H163 0.929 . S
C155 N152 1.346 . S
C155 C154 1.369 . S
C155 H158 0.928 . S
C156 N152 1.345 . S
C156 C157 1.371 . S
C156 H159 0.931 . S
C157 C153 1.391 . S
C157 C156 1.371 . S
C157 H164 0.930 . S
H158 C155 0.928 . S
H159 C156 0.931 . S
H160 C136 0.930 . S
H161 C133 0.930 . S
H162 C142 0.930 . S
H163 C154 0.929 . S
H164 C157 0.930 . S
C165 C166 1.351 . S
C165 N168 1.368 . S
C165 H170 0.931 . S
C166 C165 1.351 . S
C166 N167 1.373 . S
C166 H194 0.930 . S
N167 C166 1.373 . S
N167 C169 1.340 . S
N168 C165 1.368 . S
N168 C169 1.321 . S
N168 Co171 2.135 . S
C169 N167 1.340 . S
C169 N168 1.321 . S
C169 H193 0.930 . S
H170 C165 0.931 . S
Co171 N168 2.135 . S
Co171 N174 2.121 . S
Co171 O179 2.055 . S
Co171 O182 2.039 . S
Co171 N185 2.140 . S
C172 O173 1.227 . S
C172 O182 1.265 . S
O173 C172 1.227 . S
N174 Co171 2.121 . S
N174 C176 1.375 . S
N174 C177 1.313 . S
C175 C176 1.338 . S
C175 N178 1.377 . S
C175 H195 0.930 1_556 S
C176 N174 1.375 . S
C176 C175 1.338 . S
C176 H180 0.931 . S
C177 N174 1.313 . S
C177 N178 1.344 . S
C177 H181 0.930 . S
N178 C175 1.377 . S
N178 C177 1.344 . S
O179 Co171 2.055 . S
O179 C183 1.253 . S
H180 C176 0.931 . S
H181 C177 0.930 . S
O182 Co171 2.039 . S
O182 C172 1.265 . S
C183 O179 1.253 . S
C183 O184 1.227 . S
O184 C183 1.227 . S
N185 Co171 2.140 . S
N185 C188 1.346 . S
N185 C189 1.345 . S
C186 C187 1.387 . S
C186 C190 1.391 . S
C187 C186 1.387 . S
C187 C188 1.369 . S
C187 H196 0.929 . S
C188 N185 1.346 . S
C188 C187 1.369 . S
C188 H191 0.928 . S
C189 N185 1.345 . S
C189 C190 1.371 . S
C189 H192 0.931 . S
C190 C186 1.391 . S
C190 C189 1.371 . S
C190 H197 0.930 . S
H191 C188 0.928 . S
H192 C189 0.931 . S
H193 C169 0.930 . S
H194 C166 0.930 . S
H195 C175 0.930 1_554 S
H196 C187 0.929 . S
H197 C190 0.930 . S
C198 C199 1.351 . S
C198 N201 1.368 . S
C198 H203 0.931 . S
C199 C198 1.351 . S
C199 N200 1.373 . S
C199 H227 0.930 . S
N200 C199 1.373 . S
N200 C202 1.340 . S
N201 C198 1.368 . S
N201 C202 1.321 . S
N201 Co204 2.135 . S
C202 N200 1.340 . S
C202 N201 1.321 . S
C202 H226 0.930 . S
H203 C198 0.931 . S
Co204 N201 2.135 . S
Co204 N207 2.121 . S
Co204 O212 2.055 . S
Co204 O215 2.039 . S
Co204 N218 2.140 . S
C205 O206 1.227 . S
C205 O215 1.265 . S
O206 C205 1.227 . S
N207 Co204 2.121 . S
N207 C209 1.375 . S
N207 C210 1.313 . S
C208 C209 1.338 . S
C208 N211 1.377 . S
C208 H228 0.930 . S
C209 N207 1.375 . S
C209 C208 1.338 . S
C209 H213 0.931 . S
C210 N207 1.313 . S
C210 N211 1.344 . S
C210 H214 0.930 . S
N211 C208 1.377 . S
N211 C210 1.344 . S
O212 Co204 2.055 . S
O212 C216 1.253 . S
H213 C209 0.931 . S
H214 C210 0.930 . S
O215 Co204 2.039 . S
O215 C205 1.265 . S
C216 O212 1.253 . S
C216 O217 1.227 . S
O217 C216 1.227 . S
N218 Co204 2.140 . S
N218 C221 1.346 . S
N218 C222 1.345 . S
C219 C220 1.387 . S
C219 C223 1.391 . S
C220 C219 1.387 . S
C220 C221 1.369 . S
C220 H229 0.929 . S
C221 N218 1.346 . S
C221 C220 1.369 . S
C221 H224 0.928 . S
C222 N218 1.345 . S
C222 C223 1.371 . S
C222 H225 0.931 . S
C223 C219 1.391 . S
C223 C222 1.371 . S
C223 H230 0.930 . S
H224 C221 0.928 . S
H225 C222 0.931 . S
H226 C202 0.930 . S
H227 C199 0.930 . S
H228 C208 0.930 . S
H229 C220 0.929 . S
H230 C223 0.930 . S
C231 C232 1.351 . S
C231 N234 1.368 . S
C231 H236 0.931 . S
C232 C231 1.351 . S
C232 N233 1.373 . S
C232 H260 0.930 . S
N233 C232 1.373 . S
N233 C235 1.340 . S
N234 C231 1.368 . S
N234 C235 1.321 . S
N234 Co237 2.135 . S
C235 N233 1.340 . S
C235 N234 1.321 . S
C235 H259 0.930 . S
H236 C231 0.931 . S
Co237 N234 2.135 . S
Co237 N240 2.121 . S
Co237 O245 2.055 . S
Co237 O248 2.039 . S
Co237 N251 2.140 . S
C238 O239 1.227 . S
C238 O248 1.265 . S
O239 C238 1.227 . S
N240 Co237 2.121 . S
N240 C242 1.375 . S
N240 C243 1.313 . S
C241 C242 1.338 . S
C241 N244 1.377 . S
C241 H261 0.930 1_554 S
C242 N240 1.375 . S
C242 C241 1.338 . S
C242 H246 0.931 . S
C243 N240 1.313 . S
C243 N244 1.344 . S
C243 H247 0.930 . S
N244 C241 1.377 . S
N244 C243 1.344 . S
O245 Co237 2.055 . S
O245 C249 1.253 . S
H246 C242 0.931 . S
H247 C243 0.930 . S
O248 Co237 2.039 . S
O248 C238 1.265 . S
C249 O245 1.253 . S
C249 O250 1.227 . S
O250 C249 1.227 . S
N251 Co237 2.140 . S
N251 C254 1.346 . S
N251 C255 1.345 . S
C252 C253 1.387 . S
C252 C256 1.391 . S
C253 C252 1.387 . S
C253 C254 1.369 . S
C253 H262 0.929 . S
C254 N251 1.346 . S
C254 C253 1.369 . S
C254 H257 0.928 . S
C255 N251 1.345 . S
C255 C256 1.371 . S
C255 H258 0.931 . S
C256 C252 1.391 . S
C256 C255 1.371 . S
C256 H263 0.930 . S
H257 C254 0.928 . S
H258 C255 0.931 . S
H259 C235 0.930 . S
H260 C232 0.930 . S
H261 C241 0.930 1_556 S
H262 C253 0.929 . S
H263 C256 0.930 . S
H264 C276 0.930 . S
H265 C278 0.930 . S
H266 C279 0.930 . S
H267 C283 0.959 . S
H268 C283 0.959 . S
H269 C283 0.961 . S
H270 C284 0.960 . S
H271 C284 0.961 . S
H272 C284 0.959 . S
H273 C287 0.929 . S
H274 C288 0.931 . S
H275 C290 0.930 . S
C276 H264 0.930 . S
C276 C277 1.399 . S
C276 C281 1.399 . S
C277 C276 1.399 . S
C277 C278 1.376 . S
C278 H265 0.930 . S
C278 C277 1.376 . S
C278 C279 1.388 . S
C279 H266 0.930 . S
C279 C278 1.388 . S
C279 C280 1.390 . S
C280 C279 1.390 . S
C280 C281 1.394 . S
C280 C286 1.465 . S
C281 C276 1.399 . S
C281 C280 1.394 . S
C281 C282 1.516 . S
C282 C281 1.516 . S
C282 C283 1.502 . S
C282 C284 1.561 . S
C282 C285 1.526 . S
C283 H267 0.959 . S
C283 H268 0.959 . S
C283 H269 0.961 . S
C283 C282 1.502 . S
C284 H270 0.960 . S
C284 H271 0.961 . S
C284 H272 0.959 . S
C284 C282 1.561 . S
C285 C282 1.526 . S
C285 C286 1.396 . S
C285 C290 1.390 . S
C286 C280 1.465 . S
C286 C285 1.396 . S
C286 C287 1.399 . S
C287 H273 0.929 . S
C287 C286 1.399 . S
C287 C288 1.385 . S
C288 H274 0.931 . S
C288 C287 1.385 . S
C288 C289 1.389 . S
C289 C288 1.389 . S
C289 C290 1.387 . S
C290 H275 0.930 . S
C290 C285 1.390 . S
C290 C289 1.387 . S
H291 C303 0.930 . S
H292 C305 0.930 . S
H293 C306 0.930 . S
H294 C310 0.959 . S
H295 C310 0.959 . S
H296 C310 0.961 . S
H297 C311 0.960 . S
H298 C311 0.961 . S
H299 C311 0.959 . S
H300 C314 0.929 . S
H301 C315 0.931 . S
H302 C317 0.930 . S
C303 H291 0.930 . S
C303 C304 1.399 . S
C303 C308 1.399 . S
C304 C303 1.399 . S
C304 C305 1.376 . S
C305 H292 0.930 . S
C305 C304 1.376 . S
C305 C306 1.388 . S
C306 H293 0.930 . S
C306 C305 1.388 . S
C306 C307 1.390 . S
C307 C306 1.390 . S
C307 C308 1.394 . S
C307 C313 1.465 . S
C308 C303 1.399 . S
C308 C307 1.394 . S
C308 C309 1.516 . S
C309 C308 1.516 . S
C309 C310 1.502 . S
C309 C311 1.561 . S
C309 C312 1.526 . S
C310 H294 0.959 . S
C310 H295 0.959 . S
C310 H296 0.961 . S
C310 C309 1.502 . S
C311 H297 0.960 . S
C311 H298 0.961 . S
C311 H299 0.959 . S
C311 C309 1.561 . S
C312 C309 1.526 . S
C312 C313 1.396 . S
C312 C317 1.390 . S
C313 C307 1.465 . S
C313 C312 1.396 . S
C313 C314 1.399 . S
C314 H300 0.929 . S
C314 C313 1.399 . S
C314 C315 1.385 . S
C315 H301 0.931 . S
C315 C314 1.385 . S
C315 C316 1.389 . S
C316 C315 1.389 . S
C316 C317 1.387 . S
C317 H302 0.930 . S
C317 C312 1.390 . S
C317 C316 1.387 . S
H318 C330 0.930 . S
H319 C332 0.930 . S
H320 C333 0.930 . S
H321 C337 0.959 . S
H322 C337 0.959 . S
H323 C337 0.961 1_455 S
H324 C338 0.960 . S
H325 C338 0.961 1_655 S
H326 C338 0.959 . S
H327 C341 0.929 . S
H328 C342 0.931 . S
H329 C344 0.930 . S
C330 H318 0.930 . S
C330 C331 1.399 . S
C330 C335 1.399 . S
C331 C330 1.399 . S
C331 C332 1.376 . S
C332 H319 0.930 . S
C332 C331 1.376 . S
C332 C333 1.388 . S
C333 H320 0.930 . S
C333 C332 1.388 . S
C333 C334 1.390 . S
C334 C333 1.390 . S
C334 C335 1.394 . S
C334 C340 1.465 1_455 S
C335 C330 1.399 . S
C335 C334 1.394 . S
C335 C336 1.516 1_455 S
C336 C335 1.516 1_655 S
C336 C337 1.502 . S
C336 C338 1.561 1_655 S
C336 C339 1.526 . S
C337 H321 0.959 . S
C337 H322 0.959 . S
C337 H323 0.961 1_655 S
C337 C336 1.502 . S
C338 H324 0.960 . S
C338 H325 0.961 1_455 S
C338 H326 0.959 . S
C338 C336 1.561 1_455 S
C339 C336 1.526 . S
C339 C340 1.396 . S
C339 C344 1.390 . S
C340 C334 1.465 1_655 S
C340 C339 1.396 . S
C340 C341 1.399 . S
C341 H327 0.929 . S
C341 C340 1.399 . S
C341 C342 1.385 . S
C342 H328 0.931 . S
C342 C341 1.385 . S
C342 C343 1.389 . S
C343 C342 1.389 . S
C343 C344 1.387 . S
C344 H329 0.930 . S
C344 C339 1.390 . S
C344 C343 1.387 . S
H345 C357 0.930 . S
H346 C359 0.930 . S
H347 C360 0.930 . S
H348 C364 0.959 . S
H349 C364 0.959 1_655 S
H350 C364 0.961 . S
H351 C365 0.960 1_455 S
H352 C365 0.961 . S
H353 C365 0.959 . S
H354 C368 0.929 . S
H355 C369 0.931 . S
H356 C371 0.930 . S
C357 H345 0.930 . S
C357 C358 1.399 . S
C357 C362 1.399 . S
C358 C357 1.399 . S
C358 C359 1.376 . S
C359 H346 0.930 . S
C359 C358 1.376 . S
C359 C360 1.388 . S
C360 H347 0.930 . S
C360 C359 1.388 . S
C360 C361 1.390 . S
C361 C360 1.390 . S
C361 C362 1.394 . S
C361 C367 1.465 1_455 S
C362 C357 1.399 . S
C362 C361 1.394 . S
C362 C363 1.516 . S
C363 C362 1.516 . S
C363 C364 1.502 . S
C363 C365 1.561 1_455 S
C363 C366 1.526 1_455 S
C364 H348 0.959 . S
C364 H349 0.959 1_455 S
C364 H350 0.961 . S
C364 C363 1.502 . S
C365 H351 0.960 1_655 S
C365 H352 0.961 . S
C365 H353 0.959 . S
C365 C363 1.561 1_655 S
C366 C363 1.526 1_655 S
C366 C367 1.396 . S
C366 C371 1.390 . S
C367 C361 1.465 1_655 S
C367 C366 1.396 . S
C367 C368 1.399 . S
C368 H354 0.929 . S
C368 C367 1.399 . S
C368 C369 1.385 . S
C369 H355 0.931 . S
C369 C368 1.385 . S
C369 C370 1.389 . S
C370 C369 1.389 . S
C370 C371 1.387 . S
C371 H356 0.930 . S
C371 C366 1.390 . S
C371 C370 1.387 . S
H372 C384 0.930 . S
H373 C386 0.930 . S
H374 C387 0.930 . S
H375 C391 0.959 . S
H376 C391 0.959 . S
H377 C391 0.961 . S
H378 C392 0.960 . S
H379 C392 0.961 . S
H380 C392 0.959 . S
H381 C395 0.929 . S
H382 C396 0.931 . S
H383 C398 0.930 . S
C384 H372 0.930 . S
C384 C385 1.399 . S
C384 C389 1.399 . S
C385 C384 1.399 . S
C385 C386 1.376 . S
C386 H373 0.930 . S
C386 C385 1.376 . S
C386 C387 1.388 . S
C387 H374 0.930 . S
C387 C386 1.388 . S
C387 C388 1.390 . S
C388 C387 1.390 . S
C388 C389 1.394 . S
C388 C394 1.465 1_556 S
C389 C384 1.399 . S
C389 C388 1.394 . S
C389 C390 1.516 1_556 S
C390 C389 1.516 1_554 S
C390 C391 1.502 . S
C390 C392 1.561 1_554 S
C390 C393 1.526 . S
C391 H375 0.959 . S
C391 H376 0.959 . S
C391 H377 0.961 . S
C391 C390 1.502 . S
C392 H378 0.960 . S
C392 H379 0.961 . S
C392 H380 0.959 . S
C392 C390 1.561 1_556 S
C393 C390 1.526 . S
C393 C394 1.396 . S
C393 C398 1.390 . S
C394 C388 1.465 1_554 S
C394 C393 1.396 . S
C394 C395 1.399 . S
C395 H381 0.929 . S
C395 C394 1.399 . S
C395 C396 1.385 . S
C396 H382 0.931 . S
C396 C395 1.385 . S
C396 C397 1.389 . S
C397 C396 1.389 . S
C397 C398 1.387 . S
C398 H383 0.930 . S
C398 C393 1.390 . S
C398 C397 1.387 . S
H399 C411 0.930 . S
H400 C413 0.930 . S
H401 C414 0.930 . S
H402 C418 0.959 . S
H403 C418 0.959 . S
H404 C418 0.961 . S
H405 C419 0.960 . S
H406 C419 0.961 . S
H407 C419 0.959 . S
H408 C422 0.929 . S
H409 C423 0.931 . S
H410 C425 0.930 . S
C411 H399 0.930 . S
C411 C412 1.399 . S
C411 C416 1.399 . S
C412 C411 1.399 . S
C412 C413 1.376 . S
C413 H400 0.930 . S
C413 C412 1.376 . S
C413 C414 1.388 . S
C414 H401 0.930 . S
C414 C413 1.388 . S
C414 C415 1.390 . S
C415 C414 1.390 . S
C415 C416 1.394 . S
C415 C421 1.465 . S
C416 C411 1.399 . S
C416 C415 1.394 . S
C416 C417 1.516 . S
C417 C416 1.516 . S
C417 C418 1.502 . S
C417 C419 1.561 . S
C417 C420 1.526 . S
C418 H402 0.959 . S
C418 H403 0.959 . S
C418 H404 0.961 . S
C418 C417 1.502 . S
C419 H405 0.960 . S
C419 H406 0.961 . S
C419 H407 0.959 . S
C419 C417 1.561 . S
C420 C417 1.526 . S
C420 C421 1.396 . S
C420 C425 1.390 . S
C421 C415 1.465 . S
C421 C420 1.396 . S
C421 C422 1.399 . S
C422 H408 0.929 . S
C422 C421 1.399 . S
C422 C423 1.385 . S
C423 H409 0.931 . S
C423 C422 1.385 . S
C423 C424 1.389 . S
C424 C423 1.389 . S
C424 C425 1.387 . S
C425 H410 0.930 . S
C425 C420 1.390 . S
C425 C424 1.387 . S
H426 C438 0.930 . S
H427 C440 0.930 . S
H428 C441 0.930 . S
H429 C445 0.959 . S
H430 C445 0.959 . S
H431 C445 0.961 . S
H432 C446 0.960 . S
H433 C446 0.961 . S
H434 C446 0.959 . S
H435 C449 0.929 . S
H436 C450 0.931 . S
H437 C452 0.930 . S
C438 H426 0.930 . S
C438 C439 1.399 . S
C438 C443 1.399 . S
C439 C438 1.399 . S
C439 C440 1.376 . S
C440 H427 0.930 . S
C440 C439 1.376 . S
C440 C441 1.388 . S
C441 H428 0.930 . S
C441 C440 1.388 . S
C441 C442 1.390 . S
C442 C441 1.390 . S
C442 C443 1.394 . S
C442 C448 1.465 . S
C443 C438 1.399 . S
C443 C442 1.394 . S
C443 C444 1.516 1_556 S
C444 C443 1.516 1_554 S
C444 C445 1.502 . S
C444 C446 1.561 . S
C444 C447 1.526 . S
C445 H429 0.959 . S
C445 H430 0.959 . S
C445 H431 0.961 . S
C445 C444 1.502 . S
C446 H432 0.960 . S
C446 H433 0.961 . S
C446 H434 0.959 . S
C446 C444 1.561 . S
C447 C444 1.526 . S
C447 C448 1.396 1_554 S
C447 C452 1.390 . S
C448 C442 1.465 . S
C448 C447 1.396 1_556 S
C448 C449 1.399 . S
C449 H435 0.929 . S
C449 C448 1.399 . S
C449 C450 1.385 1_556 S
C450 H436 0.931 . S
C450 C449 1.385 1_554 S
C450 C451 1.389 . S
C451 C450 1.389 . S
C451 C452 1.387 . S
C452 H437 0.930 . S
C452 C447 1.390 . S
C452 C451 1.387 . S
H453 C465 0.930 . S
H454 C467 0.930 . S
H455 C468 0.930 . S
H456 C472 0.959 . S
H457 C472 0.959 . S
H458 C472 0.961 . S
H459 C473 0.960 . S
H460 C473 0.961 . S
H461 C473 0.959 . S
H462 C476 0.929 . S
H463 C477 0.931 . S
H464 C479 0.930 . S
C465 H453 0.930 . S
C465 C466 1.399 . S
C465 C470 1.399 . S
C466 C465 1.399 . S
C466 C467 1.376 . S
C467 H454 0.930 . S
C467 C466 1.376 . S
C467 C468 1.388 . S
C468 H455 0.930 . S
C468 C467 1.388 . S
C468 C469 1.390 . S
C469 C468 1.390 . S
C469 C470 1.394 . S
C469 C475 1.465 . S
C470 C465 1.399 . S
C470 C469 1.394 . S
C470 C471 1.516 . S
C471 C470 1.516 . S
C471 C472 1.502 . S
C471 C473 1.561 . S
C471 C474 1.526 . S
C472 H456 0.959 . S
C472 H457 0.959 . S
C472 H458 0.961 . S
C472 C471 1.502 . S
C473 H459 0.960 . S
C473 H460 0.961 . S
C473 H461 0.959 . S
C473 C471 1.561 . S
C474 C471 1.526 . S
C474 C475 1.396 . S
C474 C479 1.390 . S
C475 C469 1.465 . S
C475 C474 1.396 . S
C475 C476 1.399 . S
C476 H462 0.929 . S
C476 C475 1.399 . S
C476 C477 1.385 . S
C477 H463 0.931 . S
C477 C476 1.385 . S
C477 C478 1.389 . S
C478 C477 1.389 . S
C478 C479 1.387 . S
C479 H464 0.930 . S
C479 C474 1.390 . S
C479 C478 1.387 . S
H480 C492 0.930 . S
H481 C494 0.930 . S
H482 C495 0.930 1_565 S
H483 C499 0.959 . S
H484 C499 0.959 . S
H485 C499 0.961 . S
H486 C500 0.960 . S
H487 C500 0.961 . S
H488 C500 0.959 . S
H489 C503 0.929 1_556 S
H490 C504 0.931 . S
H491 C506 0.930 . S
C492 H480 0.930 . S
C492 C493 1.399 . S
C492 C497 1.399 . S
C493 C492 1.399 . S
C493 C494 1.376 . S
C494 H481 0.930 . S
C494 C493 1.376 . S
C494 C495 1.388 . S
C495 H482 0.930 1_545 S
C495 C494 1.388 . S
C495 C496 1.390 . S
C496 C495 1.390 . S
C496 C497 1.394 . S
C496 C502 1.465 1_546 S
C497 C492 1.399 . S
C497 C496 1.394 . S
C497 C498 1.516 1_556 S
C498 C497 1.516 1_554 S
C498 C499 1.502 . S
C498 C500 1.561 . S
C498 C501 1.526 1_545 S
C499 H483 0.959 . S
C499 H484 0.959 . S
C499 H485 0.961 . S
C499 C498 1.502 . S
C500 H486 0.960 . S
C500 H487 0.961 . S
C500 H488 0.959 . S
C500 C498 1.561 . S
C501 C498 1.526 1_565 S
C501 C502 1.396 . S
C501 C506 1.390 . S
C502 C496 1.465 1_564 S
C502 C501 1.396 . S
C502 C503 1.399 . S
C503 H489 0.929 1_554 S
C503 C502 1.399 . S
C503 C504 1.385 . S
C504 H490 0.931 . S
C504 C503 1.385 . S
C504 C505 1.389 . S
C505 C504 1.389 . S
C505 C506 1.387 . S
C506 H491 0.930 . S
C506 C501 1.390 . S
C506 C505 1.387 . S
H507 C519 0.930 . S
H508 C521 0.930 . S
H509 C522 0.930 1_565 S
H510 C526 0.959 . S
H511 C526 0.959 . S
H512 C526 0.961 . S
H513 C527 0.960 . S
H514 C527 0.961 . S
H515 C527 0.959 . S
H516 C530 0.929 . S
H517 C531 0.931 . S
H518 C533 0.930 . S
C519 H507 0.930 . S
C519 C520 1.399 . S
C519 C524 1.399 . S
C520 C519 1.399 . S
C520 C521 1.376 . S
C521 H508 0.930 . S
C521 C520 1.376 . S
C521 C522 1.388 . S
C522 H509 0.930 1_545 S
C522 C521 1.388 . S
C522 C523 1.390 . S
C523 C522 1.390 . S
C523 C524 1.394 . S
C523 C529 1.465 1_545 S
C524 C519 1.399 . S
C524 C523 1.394 . S
C524 C525 1.516 . S
C525 C524 1.516 . S
C525 C526 1.502 . S
C525 C527 1.561 . S
C525 C528 1.526 1_545 S
C526 H510 0.959 . S
C526 H511 0.959 . S
C526 H512 0.961 . S
C526 C525 1.502 . S
C527 H513 0.960 . S
C527 H514 0.961 . S
C527 H515 0.959 . S
C527 C525 1.561 . S
C528 C525 1.526 1_565 S
C528 C529 1.396 . S
C528 C533 1.390 . S
C529 C523 1.465 1_565 S
C529 C528 1.396 . S
C529 C530 1.399 . S
C530 H516 0.929 . S
C530 C529 1.399 . S
C530 C531 1.385 . S
C531 H517 0.931 . S
C531 C530 1.385 . S
C531 C532 1.389 . S
C532 C531 1.389 . S
C532 C533 1.387 . S
C533 H518 0.930 . S
C533 C528 1.390 . S
C533 C532 1.387 . S
H534 C546 0.930 . S
H535 C548 0.930 . S
H536 C549 0.930 1_554 S
H537 C553 0.959 1_544 S
H538 C553 0.959 . S
H539 C553 0.961 1_545 S
H540 C554 0.960 . S
H541 C554 0.961 . S
H542 C554 0.959 . S
H543 C557 0.929 . S
H544 C558 0.931 . S
H545 C560 0.930 . S
C546 H534 0.930 . S
C546 C547 1.399 . S
C546 C551 1.399 . S
C547 C546 1.399 . S
C547 C548 1.376 . S
C548 H535 0.930 . S
C548 C547 1.376 . S
C548 C549 1.388 . S
C549 H536 0.930 1_556 S
C549 C548 1.388 . S
C549 C550 1.390 . S
C550 C549 1.390 . S
C550 C551 1.394 . S
C550 C556 1.465 1_546 S
C551 C546 1.399 . S
C551 C550 1.394 . S
C551 C552 1.516 1_545 S
C552 C551 1.516 1_565 S
C552 C553 1.502 . S
C552 C554 1.561 . S
C552 C555 1.526 1_556 S
C553 H537 0.959 1_566 S
C553 H538 0.959 . S
C553 H539 0.961 1_565 S
C553 C552 1.502 . S
C554 H540 0.960 . S
C554 H541 0.961 . S
C554 H542 0.959 . S
C554 C552 1.561 . S
C555 C552 1.526 1_554 S
C555 C556 1.396 . S
C555 C560 1.390 . S
C556 C550 1.465 1_564 S
C556 C555 1.396 . S
C556 C557 1.399 . S
C557 H543 0.929 . S
C557 C556 1.399 . S
C557 C558 1.385 . S
C558 H544 0.931 . S
C558 C557 1.385 . S
C558 C559 1.389 . S
C559 C558 1.389 . S
C559 C560 1.387 . S
C560 H545 0.930 . S
C560 C555 1.390 . S
C560 C559 1.387 . S
H561 C573 0.930 . S
H562 C575 0.930 . S
H563 C576 0.918 1_565 S
H564 C580 0.959 . S
H565 C580 0.959 . S
H566 C580 0.961 . S
H567 C581 0.960 . S
H568 C581 0.961 . S
H569 C581 0.959 . S
H570 C584 0.929 . S
H571 C585 0.931 . S
H572 C587 0.930 . S
C573 H561 0.930 . S
C573 C574 1.399 . S
C573 C578 1.399 . S
C574 C573 1.399 . S
C574 C575 1.376 . S
C575 H562 0.930 . S
C575 C574 1.376 . S
C575 C576 1.388 . S
C576 H563 0.918 1_545 S
C576 C575 1.388 . S
C576 C577 1.390 . S
C577 C576 1.390 . S
C577 C578 1.394 . S
C577 C583 1.465 1_545 S
C578 C573 1.399 . S
C578 C577 1.394 . S
C578 C579 1.516 . S
C579 C578 1.516 . S
C579 C580 1.502 . S
C579 C581 1.561 . S
C579 C582 1.526 1_545 S
C580 H564 0.959 . S
C580 H565 0.959 . S
C580 H566 0.961 . S
C580 C579 1.502 . S
C581 H567 0.960 . S
C581 H568 0.961 . S
C581 H569 0.959 . S
C581 C579 1.561 . S
C582 C579 1.526 1_565 S
C582 C583 1.396 . S
C582 C587 1.390 . S
C583 C577 1.465 1_565 S
C583 C582 1.396 . S
C583 C584 1.399 . S
C584 H570 0.929 . S
C584 C583 1.399 . S
C584 C585 1.385 . S
C585 H571 0.931 . S
C585 C584 1.385 . S
C585 C586 1.389 . S
C586 C585 1.389 . S
C586 C587 1.387 . S
C587 H572 0.930 . S
C587 C582 1.390 . S
C587 C586 1.387 . S
H588 C600 0.930 . S
H589 C602 0.930 . S
H590 C603 0.930 . S
H591 C607 0.959 . S
H592 C607 0.959 . S
H593 C607 0.961 . S
H594 C608 0.960 . S
H595 C608 0.961 . S
H596 C608 0.959 . S
H597 C611 0.929 . S
H598 C612 0.931 . S
H599 C614 0.930 . S
C600 H588 0.930 . S
C600 C601 1.399 . S
C600 C605 1.399 . S
C601 C600 1.399 . S
C601 C602 1.376 . S
C602 H589 0.930 . S
C602 C601 1.376 . S
C602 C603 1.388 . S
C603 H590 0.930 . S
C603 C602 1.388 . S
C603 C604 1.390 . S
C604 C603 1.390 . S
C604 C605 1.394 . S
C604 C610 1.465 . S
C605 C600 1.399 . S
C605 C604 1.394 . S
C605 C606 1.516 . S
C606 C605 1.516 . S
C606 C607 1.502 . S
C606 C608 1.561 . S
C606 C609 1.526 . S
C607 H591 0.959 . S
C607 H592 0.959 . S
C607 H593 0.961 . S
C607 C606 1.502 . S
C608 H594 0.960 . S
C608 H595 0.961 . S
C608 H596 0.959 . S
C608 C606 1.561 . S
C609 C606 1.526 . S
C609 C610 1.396 . S
C609 C614 1.390 . S
C610 C604 1.465 . S
C610 C609 1.396 . S
C610 C611 1.399 1_554 S
C611 H597 0.929 . S
C611 C610 1.399 1_556 S
C611 C612 1.385 . S
C612 H598 0.931 . S
C612 C611 1.385 . S
C612 C613 1.389 . S
C613 C612 1.389 . S
C613 C614 1.387 1_556 S
C614 H599 0.930 . S
C614 C609 1.390 . S
C614 C613 1.387 1_554 S
H615 C627 0.930 . S
H616 C629 0.930 . S
H617 C630 0.930 . S
H618 C634 0.959 . S
H619 C634 0.959 . S
H620 C634 0.961 . S
H621 C635 0.960 . S
H622 C635 0.961 . S
H623 C635 0.959 . S
H624 C638 0.929 . S
H625 C639 0.931 . S
H626 C641 0.930 . S
C627 H615 0.930 . S
C627 C628 1.399 . S
C627 C632 1.399 . S
C628 C627 1.399 . S
C628 C629 1.376 . S
C629 H616 0.930 . S
C629 C628 1.376 . S
C629 C630 1.388 . S
C630 H617 0.930 . S
C630 C629 1.388 . S
C630 C631 1.390 . S
C631 C630 1.390 . S
C631 C632 1.394 . S
C631 C637 1.465 . S
C632 C627 1.399 . S
C632 C631 1.394 . S
C632 C633 1.516 . S
C633 C632 1.516 . S
C633 C634 1.502 . S
C633 C635 1.561 . S
C633 C636 1.526 . S
C634 H618 0.959 . S
C634 H619 0.959 . S
C634 H620 0.961 . S
C634 C633 1.502 . S
C635 H621 0.960 . S
C635 H622 0.961 . S
C635 H623 0.959 . S
C635 C633 1.561 . S
C636 C633 1.526 . S
C636 C637 1.396 . S
C636 C641 1.390 . S
C637 C631 1.465 . S
C637 C636 1.396 . S
C637 C638 1.399 . S
C638 H624 0.929 . S
C638 C637 1.399 . S
C638 C639 1.385 . S
C639 H625 0.931 . S
C639 C638 1.385 . S
C639 C640 1.389 . S
C640 C639 1.389 . S
C640 C641 1.387 . S
C641 H626 0.930 . S
C641 C636 1.390 . S
C641 C640 1.387 . S
H642 C654 0.930 . S
H643 C656 0.930 . S
H644 C657 0.930 . S
H645 C661 0.959 . S
H646 C661 0.959 . S
H647 C661 0.961 . S
H648 C662 0.960 . S
H649 C662 0.961 1_556 S
H650 C662 0.959 . S
H651 C665 0.929 . S
H652 C666 0.931 . S
H653 C668 0.930 . S
C654 H642 0.930 . S
C654 C655 1.399 . S
C654 C659 1.399 1_554 S
C655 C654 1.399 . S
C655 C656 1.376 . S
C656 H643 0.930 . S
C656 C655 1.376 . S
C656 C657 1.388 1_554 S
C657 H644 0.930 . S
C657 C656 1.388 1_556 S
C657 C658 1.390 . S
C658 C657 1.390 . S
C658 C659 1.394 . S
C658 C664 1.465 . S
C659 C654 1.399 1_556 S
C659 C658 1.394 . S
C659 C660 1.516 . S
C660 C659 1.516 . S
C660 C661 1.502 . S
C660 C662 1.561 1_556 S
C660 C663 1.526 . S
C661 H645 0.959 . S
C661 H646 0.959 . S
C661 H647 0.961 . S
C661 C660 1.502 . S
C662 H648 0.960 . S
C662 H649 0.961 1_554 S
C662 H650 0.959 . S
C662 C660 1.561 1_554 S
C663 C660 1.526 . S
C663 C664 1.396 . S
C663 C668 1.390 . S
C664 C658 1.465 . S
C664 C663 1.396 . S
C664 C665 1.399 . S
C665 H651 0.929 . S
C665 C664 1.399 . S
C665 C666 1.385 . S
C666 H652 0.931 . S
C666 C665 1.385 . S
C666 C667 1.389 . S
C667 C666 1.389 . S
C667 C668 1.387 . S
C668 H653 0.930 . S
C668 C663 1.390 . S
C668 C667 1.387 . S
H669 C681 0.930 . S
H670 C683 0.930 . S
H671 C684 0.930 . S
H672 C688 0.959 . S
H673 C688 0.959 . S
H674 C688 0.961 . S
H675 C689 0.960 . S
H676 C689 0.961 . S
H677 C689 0.959 . S
H678 C692 0.929 . S
H679 C693 0.931 . S
H680 C695 0.930 . S
C681 H669 0.930 . S
C681 C682 1.399 . S
C681 C686 1.399 . S
C682 C681 1.399 . S
C682 C683 1.376 . S
C683 H670 0.930 . S
C683 C682 1.376 . S
C683 C684 1.388 . S
C684 H671 0.930 . S
C684 C683 1.388 . S
C684 C685 1.390 . S
C685 C684 1.390 . S
C685 C686 1.394 . S
C685 C691 1.465 . S
C686 C681 1.399 . S
C686 C685 1.394 . S
C686 C687 1.516 . S
C687 C686 1.516 . S
C687 C688 1.502 . S
C687 C689 1.561 . S
C687 C690 1.526 . S
C688 H672 0.959 . S
C688 H673 0.959 . S
C688 H674 0.961 . S
C688 C687 1.502 . S
C689 H675 0.960 . S
C689 H676 0.961 . S
C689 H677 0.959 . S
C689 C687 1.561 . S
C690 C687 1.526 . S
C690 C691 1.396 . S
C690 C695 1.390 . S
C691 C685 1.465 . S
C691 C690 1.396 . S
C691 C692 1.399 . S
C692 H678 0.929 . S
C692 C691 1.399 . S
C692 C693 1.385 . S
C693 H679 0.931 . S
C693 C692 1.385 . S
C693 C694 1.389 . S
C694 C693 1.389 . S
C694 C695 1.387 . S
C695 H680 0.930 . S
C695 C690 1.390 . S
C695 C694 1.387 . S
H696 C708 0.930 . S
H697 C710 0.930 . S
H698 C711 0.930 . S
H699 C715 0.959 1_554 S
H700 C715 0.959 . S
H701 C715 0.961 . S
H702 C716 0.960 . S
H703 C716 0.961 . S
H704 C716 0.959 . S
H705 C719 0.929 . S
H706 C720 0.931 . S
H707 C722 0.930 . S
C708 H696 0.930 . S
C708 C709 1.399 . S
C708 C713 1.399 1_556 S
C709 C708 1.399 . S
C709 C710 1.376 1_556 S
C710 H697 0.930 . S
C710 C709 1.376 1_554 S
C710 C711 1.388 . S
C711 H698 0.930 . S
C711 C710 1.388 . S
C711 C712 1.390 . S
C712 C711 1.390 . S
C712 C713 1.394 . S
C712 C718 1.465 . S
C713 C708 1.399 1_554 S
C713 C712 1.394 . S
C713 C714 1.516 . S
C714 C713 1.516 . S
C714 C715 1.502 1_554 S
C714 C716 1.561 1_554 S
C714 C717 1.526 . S
C715 H699 0.959 1_556 S
C715 H700 0.959 . S
C715 H701 0.961 . S
C715 C714 1.502 1_556 S
C716 H702 0.960 . S
C716 H703 0.961 . S
C716 H704 0.959 . S
C716 C714 1.561 1_556 S
C717 C714 1.526 . S
C717 C718 1.396 . S
C717 C722 1.390 . S
C718 C712 1.465 . S
C718 C717 1.396 . S
C718 C719 1.399 . S
C719 H705 0.929 . S
C719 C718 1.399 . S
C719 C720 1.385 . S
C720 H706 0.931 . S
C720 C719 1.385 . S
C720 C721 1.389 . S
C721 C720 1.389 . S
C721 C722 1.387 . S
C722 H707 0.930 . S
C722 C717 1.390 . S
C722 C721 1.387 . S
H723 C735 0.930 . S
H724 C737 0.930 . S
H725 C738 0.930 . S
H726 C742 0.959 . S
H727 C742 0.959 . S
H728 C742 0.961 . S
H729 C743 0.960 . S
H730 C743 0.961 . S
H731 C743 0.959 . S
H732 C746 0.929 . S
H733 C747 0.931 . S
H734 C749 0.930 . S
C735 H723 0.930 . S
C735 C736 1.399 . S
C735 C740 1.399 . S
C736 C735 1.399 . S
C736 C737 1.376 . S
C737 H724 0.930 . S
C737 C736 1.376 . S
C737 C738 1.388 . S
C738 H725 0.930 . S
C738 C737 1.388 . S
C738 C739 1.390 . S
C739 C738 1.390 . S
C739 C740 1.394 . S
C739 C745 1.465 . S
C740 C735 1.399 . S
C740 C739 1.394 . S
C740 C741 1.516 . S
C741 C740 1.516 . S
C741 C742 1.502 . S
C741 C743 1.561 . S
C741 C744 1.526 . S
C742 H726 0.959 . S
C742 H727 0.959 . S
C742 H728 0.961 . S
C742 C741 1.502 . S
C743 H729 0.960 . S
C743 H730 0.961 . S
C743 H731 0.959 . S
C743 C741 1.561 . S
C744 C741 1.526 . S
C744 C745 1.396 . S
C744 C749 1.390 . S
C745 C739 1.465 . S
C745 C744 1.396 . S
C745 C746 1.399 . S
C746 H732 0.929 . S
C746 C745 1.399 . S
C746 C747 1.385 . S
C747 H733 0.931 . S
C747 C746 1.385 . S
C747 C748 1.389 . S
C748 C747 1.389 . S
C748 C749 1.387 . S
C749 H734 0.930 . S
C749 C744 1.390 . S
C749 C748 1.387 . S
H750 C762 0.930 . S
H751 C764 0.930 . S
H752 C765 0.930 . S
H753 C769 0.959 . S
H754 C769 0.959 . S
H755 C769 0.961 . S
H756 C770 0.960 . S
H757 C770 0.961 . S
H758 C770 0.959 . S
H759 C773 0.929 . S
H760 C774 0.931 . S
H761 C776 0.930 . S
C762 H750 0.930 . S
C762 C763 1.399 . S
C762 C767 1.399 . S
C763 C762 1.399 . S
C763 C764 1.376 . S
C764 H751 0.930 . S
C764 C763 1.376 . S
C764 C765 1.388 . S
C765 H752 0.930 . S
C765 C764 1.388 . S
C765 C766 1.390 . S
C766 C765 1.390 . S
C766 C767 1.394 . S
C766 C772 1.465 . S
C767 C762 1.399 . S
C767 C766 1.394 . S
C767 C768 1.516 . S
C768 C767 1.516 . S
C768 C769 1.502 . S
C768 C770 1.561 . S
C768 C771 1.526 . S
C769 H753 0.959 . S
C769 H754 0.959 . S
C769 H755 0.961 . S
C769 C768 1.502 . S
C770 H756 0.960 . S
C770 H757 0.961 . S
C770 H758 0.959 . S
C770 C768 1.561 . S
C771 C768 1.526 . S
C771 C772 1.396 . S
C771 C776 1.390 . S
C772 C766 1.465 . S
C772 C771 1.396 . S
C772 C773 1.399 1_556 S
C773 H759 0.929 . S
C773 C772 1.399 1_554 S
C773 C774 1.385 . S
C774 H760 0.931 . S
C774 C773 1.385 . S
C774 C775 1.389 . S
C775 C774 1.389 . S
C775 C776 1.387 1_554 S
C776 H761 0.930 . S
C776 C771 1.390 . S
C776 C775 1.387 1_556 S
H777 C789 0.930 . S
H778 C791 0.930 . S
H779 C792 0.930 . S
H780 C796 0.959 . S
H781 C796 0.959 . S
H782 C796 0.961 . S
H783 C797 0.960 . S
H784 C797 0.961 . S
H785 C797 0.959 . S
H786 C800 0.929 . S
H787 C801 0.931 . S
H788 C803 0.930 . S
C789 H777 0.930 . S
C789 C790 1.399 . S
C789 C794 1.399 . S
C790 C789 1.399 . S
C790 C791 1.376 . S
C791 H778 0.930 . S
C791 C790 1.376 . S
C791 C792 1.388 . S
C792 H779 0.930 . S
C792 C791 1.388 . S
C792 C793 1.390 . S
C793 C792 1.390 . S
C793 C794 1.394 . S
C793 C799 1.465 . S
C794 C789 1.399 . S
C794 C793 1.394 . S
C794 C795 1.516 . S
C795 C794 1.516 . S
C795 C796 1.502 . S
C795 C797 1.561 . S
C795 C798 1.526 . S
C796 H780 0.959 . S
C796 H781 0.959 . S
C796 H782 0.961 . S
C796 C795 1.502 . S
C797 H783 0.960 . S
C797 H784 0.961 . S
C797 H785 0.959 . S
C797 C795 1.561 . S
C798 C795 1.526 . S
C798 C799 1.396 . S
C798 C803 1.390 . S
C799 C793 1.465 . S
C799 C798 1.396 . S
C799 C800 1.399 . S
C800 H786 0.929 . S
C800 C799 1.399 . S
C800 C801 1.385 . S
C801 H787 0.931 . S
C801 C800 1.385 . S
C801 C802 1.389 . S
C802 C801 1.389 . S
C802 C803 1.387 . S
C803 H788 0.930 . S
C803 C798 1.390 . S
C803 C802 1.387 . S
C277 C21 1.509 . S
C289 C120 1.497 . S
C304 C54 1.481 . S
C316 C87 1.479 . S
C331 C252 1.476 . S
C343 C153 1.488 . S
C358 C186 1.509 . S
C370 C219 1.497 . S
C385 N68 1.147 . S
C397 N2 1.116 . S
C412 N101 1.145 . S
C424 N35 1.119 . S
C439 C40 1.525 . S
C451 C106 1.554 . S
C466 C7 1.542 . S
C478 C73 1.575 . S
C493 N200 1.109 . S
C505 N134 1.053 . S
C520 N167 1.115 . S
C532 N233 1.053 . S
C547 C172 1.581 . S
C559 C238 1.576 . S
C574 C205 1.522 . S
C586 C139 1.545 . S
C601 C18 1.403 . S
C613 N178 1.402 . S
C628 C51 1.399 . S
C640 N145 1.402 . S
C655 N244 1.394 . S
C667 C84 1.410 . S
C682 C117 1.411 . S
C694 N211 1.390 . S
C709 N46 1.358 . S
C721 C150 1.404 . S
C736 C183 1.411 . S
C748 N13 1.383 . S
C763 C216 1.384 . S
C775 N112 1.393 . S
C790 C249 1.368 . S
C802 N79 1.339 . S
