# Generated by pormake.
# Topology dmp, (4)-cn, num edge types: 1
# Building blocks:
#     Node 0, Type 0, BuildingBlock: AZAVOO_clean_sbu_0, # of connection points: 4
#     Node 1, Type 0, BuildingBlock: AZAVOO_clean_sbu_0, # of connection points: 4
#     Node 2, Type 0, BuildingBlock: AZAVOO_clean_sbu_0, # of connection points: 4
#     Node 3, Type 0, BuildingBlock: AZAVOO_clean_sbu_0, # of connection points: 4
#     Edge 4, Type (0, 0), BuildingBlock: MIFKUJ_clean_linker_0, # of connection points: 2
#     Edge 5, Type (0, 0), BuildingBlock: MIFKUJ_clean_linker_0, # of connection points: 2
#     Edge 6, Type (0, 0), BuildingBlock: MIFKUJ_clean_linker_0, # of connection points: 2
#     Edge 7, Type (0, 0), BuildingBlock: MIFKUJ_clean_linker_0, # of connection points: 2
#     Edge 8, Type (0, 0), BuildingBlock: MIFKUJ_clean_linker_0, # of connection points: 2
#     Edge 9, Type (0, 0), BuildingBlock: MIFKUJ_clean_linker_0, # of connection points: 2
#     Edge 10, Type (0, 0), BuildingBlock: MIFKUJ_clean_linker_0, # of connection points: 2
#     Edge 11, Type (0, 0), BuildingBlock: MIFKUJ_clean_linker_0, # of connection points: 2
# Relax obj value: 0.252
# Max RMSD: 0.267
# Mean RMSD: 0.267
data_MOF--net-dmp--node1-AZAVOO_clean_sbu_0--edge1-MIFKUJ_clean_linker_0
_symmetry_space_group_name_H-M    P1
_symmetry_Int_Tables_number       1
_symmetry_cell_setting            triclinic
loop_
_symmetry_equiv_pos_as_xyz
'x, y, z'
_cell_length_a     47.734011
_cell_length_b     20.131373
_cell_length_c     27.734044
_cell_angle_alpha  89.848253
_cell_angle_beta   89.948754
_cell_angle_gamma 98.728267
loop_
_atom_site_label
_atom_site_type_symbol
_atom_site_fract_x
_atom_site_fract_y
_atom_site_fract_z
_atom_type_partial_charge
Mg0 Mg 0.07554 0.12292 0.3498 0.0
O1 O 0.11238 0.20256 0.32302 0.0
O2 O 0.14471 0.14837 0.28875 0.0
Mg3 Mg 0.1281 0.03604 0.28995 0.0
C4 C 0.13633 0.20255 0.30236 0.0
C5 C 0.06102 0.25106 0.39471 0.0
O6 O 0.08711 0.24873 0.40883 0.0
O7 O 0.05801 0.10577 0.27298 0.0
O8 O 0.09114 0.05186 0.24081 0.0
O9 O 0.10018 0.11808 0.41726 0.0
O10 O 0.10322 0.05227 0.35425 0.0
C11 C 0.06801 0.0762 0.23753 0.0
C12 C 0.11321 0.07537 0.395 0.0
O13 O 0.04923 0.20593 0.36616 0.0
Mg14 Mg 0.41731 0.8598 0.31336 0.0
O15 O 0.37577 0.7873 0.30125 0.0
O16 O 0.34638 0.83849 0.25697 0.0
Mg17 Mg 0.36873 0.9455 0.24204 0.0
C18 C 0.3521 0.78715 0.27986 0.0
C19 C 0.42619 0.74508 0.38093 0.0
O20 O 0.40557 0.77142 0.40116 0.0
O21 O 0.43175 0.84792 0.23521 0.0
O22 O 0.40214 0.90514 0.19565 0.0
O23 O 0.39858 0.9002 0.37891 0.0
O24 O 0.39605 0.94262 0.30587 0.0
C25 C 0.42289 0.87182 0.19623 0.0
C26 C 0.38895 0.94256 0.35061 0.0
O27 O 0.43676 0.77006 0.34152 0.0
Mg28 Mg 0.91632 0.87241 0.68166 0.0
O29 O 0.87347 0.80872 0.69996 0.0
O30 O 0.84295 0.87357 0.72709 0.0
Mg31 Mg 0.86808 0.97984 0.73187 0.0
C32 C 0.8489 0.81617 0.7151 0.0
C33 C 0.92057 0.7355 0.63821 0.0
O34 O 0.89654 0.75008 0.62124 0.0
O35 O 0.92797 0.87783 0.7618 0.0
O36 O 0.89802 0.94511 0.78845 0.0
O37 O 0.89997 0.89535 0.60918 0.0
O38 O 0.89685 0.95759 0.67395 0.0
C39 C 0.91789 0.9102 0.79572 0.0
C40 C 0.89064 0.94558 0.62935 0.0
O41 O 0.93463 0.77592 0.66774 0.0
Mg42 Mg 0.58248 0.13258 0.65725 0.0
O43 O 0.61832 0.21382 0.68497 0.0
O44 O 0.65256 0.15884 0.71147 0.0
Mg45 Mg 0.63832 0.04546 0.70561 0.0
C46 C 0.64305 0.21351 0.7026 0.0
C47 C 0.54182 0.20499 0.60529 0.0
O48 O 0.54651 0.15472 0.57783 0.0
O49 O 0.5671 0.10517 0.73447 0.0
O50 O 0.6015 0.0484 0.7582 0.0
O51 O 0.60572 0.13678 0.58698 0.0
O52 O 0.61105 0.06562 0.6459 0.0
C53 C 0.57805 0.06995 0.76577 0.0
C54 C 0.61915 0.09124 0.60479 0.0
O55 O 0.55336 0.21107 0.64668 0.0
H56 H 0.37107 0.04796 0.30456 0.0
H57 H 0.32901 0.09858 0.32332 0.0
H58 H 0.31517 0.97594 0.45149 0.0
H59 H 0.35745 0.92576 0.43327 0.0
H60 H 0.27951 0.02345 0.32069 0.0
H61 H 0.27492 0.04451 0.53051 0.0
H62 H 0.30712 0.08534 0.59721 0.0
H63 H 0.35925 0.21601 0.4994 0.0
H64 H 0.32747 0.17589 0.43217 0.0
H65 H 0.1389 0.96548 0.38309 0.0
H66 H 0.18981 0.96186 0.38641 0.0
H67 H 0.2046 0.16828 0.43389 0.0
H68 H 0.15351 0.17084 0.43288 0.0
H69 H 0.24236 0.10372 0.47353 0.0
H70 H 0.21305 0.13174 0.30918 0.0
H71 H 0.18462 0.10686 0.23516 0.0
H72 H 0.20381 0.90548 0.23464 0.0
H73 H 0.23286 0.9294 0.30793 0.0
C74 C 0.3594 0.03282 0.33729 0.0
C75 C 0.36709 0.98184 0.3669 0.0
C76 C 0.33549 0.06207 0.34808 0.0
C77 C 0.3189 0.04074 0.3886 0.0
C78 C 0.32785 0.99371 0.42031 0.0
C79 C 0.35189 0.96467 0.40967 0.0
C80 C 0.28997 0.05788 0.39291 0.0
C81 C 0.27152 0.04171 0.35401 0.0
C82 C 0.27965 0.08286 0.43594 0.0
C83 C 0.29891 0.10676 0.47627 0.0
C84 C 0.29325 0.08198 0.52327 0.0
C85 C 0.31149 0.10486 0.56114 0.0
C86 C 0.33533 0.15292 0.5525 0.0
C87 C 0.34097 0.17827 0.50598 0.0
C88 C 0.3229 0.15531 0.46795 0.0
C89 C 0.15301 0.00929 0.39564 0.0
C90 C 0.14244 0.0683 0.40777 0.0
C91 C 0.18206 0.00756 0.39697 0.0
C92 C 0.20105 0.06557 0.4088 0.0
C93 C 0.19036 0.12316 0.42423 0.0
C94 C 0.16118 0.12441 0.42396 0.0
C95 C 0.23188 0.06695 0.40183 0.0
C96 C 0.25056 0.08639 0.44012 0.0
C97 C 0.24279 0.04707 0.35759 0.0
C98 C 0.22487 0.03216 0.31418 0.0
C99 C 0.21104 0.08205 0.29342 0.0
C100 C 0.1949 0.0682 0.25158 0.0
C101 C 0.19217 0.00453 0.23059 0.0
C102 C 0.20584 0.95469 0.25106 0.0
C103 C 0.2223 0.96846 0.29253 0.0
H104 H 0.17957 0.99393 0.19832 0.0
H105 H 0.34939 0.1707 0.58187 0.0
H106 H 0.18182 0.23018 0.24183 0.0
H107 H 0.21754 0.33059 0.24029 0.0
H108 H 0.17279 0.41836 0.35304 0.0
H109 H 0.13637 0.3188 0.35348 0.0
H110 H 0.19207 0.51167 0.29408 0.0
H111 H 0.23293 0.34321 0.37568 0.0
H112 H 0.24727 0.23193 0.38905 0.0
H113 H 0.30218 0.26114 0.26574 0.0
H114 H 0.28792 0.37227 0.25116 0.0
H115 H 0.34871 0.68354 0.3449 0.0
H116 H 0.3114 0.58632 0.35201 0.0
H117 H 0.26965 0.65402 0.22717 0.0
H118 H 0.30616 0.75268 0.22125 0.0
H119 H 0.29342 0.48344 0.30223 0.0
H120 H 0.19938 0.61227 0.23248 0.0
H121 H 0.18421 0.7241 0.23403 0.0
H122 H 0.23479 0.77592 0.36019 0.0
H123 H 0.24994 0.66412 0.35985 0.0
C124 C 0.17942 0.27108 0.266 0.0
C125 C 0.15629 0.2663 0.29792 0.0
C126 C 0.2 0.32838 0.26533 0.0
C127 C 0.19831 0.3816 0.29736 0.0
C128 C 0.17469 0.37796 0.3281 0.0
C129 C 0.15383 0.321 0.32826 0.0
C130 C 0.22136 0.44044 0.29912 0.0
C131 C 0.21422 0.50545 0.29586 0.0
C132 C 0.2503 0.43268 0.30325 0.0
C133 C 0.25917 0.36599 0.31209 0.0
C134 C 0.24793 0.32577 0.3512 0.0
C135 C 0.25604 0.2627 0.35901 0.0
C136 C 0.27555 0.23943 0.3282 0.0
C137 C 0.28704 0.27923 0.28956 0.0
C138 C 0.27898 0.34232 0.28153 0.0
C139 C 0.33156 0.67771 0.31896 0.0
C140 C 0.33029 0.72625 0.28275 0.0
C141 C 0.31024 0.62194 0.32301 0.0
C142 C 0.28732 0.61311 0.29067 0.0
C143 C 0.2866 0.6604 0.25346 0.0
C144 C 0.30762 0.71673 0.24991 0.0
C145 C 0.26416 0.55471 0.29578 0.0
C146 C 0.27128 0.48973 0.30048 0.0
C147 C 0.23515 0.56265 0.2952 0.0
C148 C 0.226 0.62996 0.29582 0.0
C149 C 0.20718 0.64742 0.26065 0.0
C150 C 0.1986 0.71083 0.26131 0.0
C151 C 0.20858 0.75711 0.29712 0.0
C152 C 0.22715 0.74008 0.33239 0.0
C153 C 0.23576 0.67673 0.33195 0.0
H154 H 0.20186 0.80607 0.29764 0.0
H155 H 0.28184 0.19068 0.33434 0.0
H156 H 0.64066 0.9747 0.60793 0.0
H157 H 0.68966 0.95987 0.59201 0.0
H158 H 0.70862 0.16609 0.5445 0.0
H159 H 0.65911 0.1803 0.55854 0.0
H160 H 0.74039 0.08344 0.4951 0.0
H161 H 0.72173 0.13187 0.66584 0.0
H162 H 0.69723 0.11243 0.7444 0.0
H163 H 0.71009 0.90618 0.74254 0.0
H164 H 0.73547 0.92477 0.66494 0.0
H165 H 0.8757 0.06565 0.65401 0.0
H166 H 0.83316 0.10956 0.62852 0.0
H167 H 0.81476 0.9479 0.5262 0.0
H168 H 0.85751 0.90362 0.55145 0.0
H169 H 0.78429 0.02045 0.64735 0.0
H170 H 0.76732 0.00727 0.44039 0.0
H171 H 0.79558 0.0286 0.36593 0.0
H172 H 0.8568 0.16908 0.44121 0.0
H173 H 0.82873 0.14948 0.51592 0.0
C174 C 0.65509 0.01617 0.59265 0.0
C175 C 0.64632 0.07869 0.58472 0.0
C176 C 0.68306 0.00781 0.5838 0.0
C177 C 0.70286 0.06242 0.5683 0.0
C178 C 0.69364 0.12345 0.55664 0.0
C179 C 0.6654 0.13147 0.56459 0.0
C180 C 0.73346 0.05791 0.57014 0.0
C181 C 0.75011 0.06976 0.52829 0.0
C182 C 0.74615 0.04099 0.61363 0.0
C183 C 0.7302 0.02953 0.6595 0.0
C184 C 0.71916 0.08233 0.68211 0.0
C185 C 0.70522 0.07154 0.72646 0.0
C186 C 0.7018 0.00805 0.74806 0.0
C187 C 0.71264 0.95529 0.72568 0.0
C188 C 0.72699 0.966 0.68174 0.0
C189 C 0.86304 0.04051 0.62513 0.0
C190 C 0.86943 0.98035 0.60553 0.0
C191 C 0.83889 0.06594 0.61037 0.0
C192 C 0.8208 0.03163 0.57581 0.0
C193 C 0.82863 0.97532 0.55267 0.0
C194 C 0.85294 0.9499 0.56734 0.0
C195 C 0.7914 0.04545 0.5723 0.0
C196 C 0.77482 0.03478 0.61405 0.0
C197 C 0.77909 0.0635 0.5288 0.0
C198 C 0.79601 0.07633 0.48391 0.0
C199 C 0.78675 0.04293 0.44103 0.0
C200 C 0.80275 0.0547 0.39877 0.0
C201 C 0.82801 0.1 0.39889 0.0
C202 C 0.83729 0.13379 0.44123 0.0
C203 C 0.82136 0.12225 0.48358 0.0
H204 H 0.84037 0.10902 0.36614 0.0
H205 H 0.69089 0.99985 0.78229 0.0
H206 H 0.856 0.6842 0.71798 0.0
H207 H 0.81943 0.58546 0.7191 0.0
H208 H 0.75462 0.71339 0.71692 0.0
H209 H 0.79125 0.81274 0.71794 0.0
H210 H 0.73872 0.61206 0.77453 0.0
H211 H 0.77491 0.63161 0.6132 0.0
H212 H 0.81236 0.64454 0.55109 0.0
H213 H 0.83765 0.4579 0.59533 0.0
H214 H 0.80058 0.44428 0.65818 0.0
H215 H 0.63034 0.34243 0.69838 0.0
H216 H 0.66356 0.44791 0.70305 0.0
H217 H 0.73274 0.33609 0.72482 0.0
H218 H 0.69998 0.23112 0.72028 0.0
H219 H 0.7442 0.43257 0.65419 0.0
H220 H 0.70846 0.41617 0.81717 0.0
H221 H 0.67135 0.40539 0.87983 0.0
H222 H 0.64443 0.58784 0.8303 0.0
H223 H 0.68115 0.59921 0.76686 0.0
C224 C 0.83397 0.69142 0.71793 0.0
C225 C 0.82656 0.75639 0.71756 0.0
C226 C 0.81303 0.63481 0.7183 0.0
C227 C 0.78418 0.64174 0.71693 0.0
C228 C 0.7767 0.70661 0.71776 0.0
C229 C 0.79767 0.76339 0.71826 0.0
C230 C 0.76196 0.58127 0.71398 0.0
C231 C 0.73969 0.57338 0.74769 0.0
C232 C 0.7633 0.53014 0.67936 0.0
C233 C 0.78508 0.53719 0.64065 0.0
C234 C 0.78852 0.59344 0.6098 0.0
C235 C 0.80969 0.6009 0.57448 0.0
C236 C 0.82742 0.55216 0.56935 0.0
C237 C 0.82391 0.49564 0.59938 0.0
C238 C 0.80279 0.48797 0.63481 0.0
C239 C 0.65258 0.34031 0.70464 0.0
C240 C 0.66239 0.27807 0.70915 0.0
C241 C 0.67153 0.40066 0.70735 0.0
C242 C 0.70064 0.39986 0.71433 0.0
C243 C 0.71039 0.33794 0.71934 0.0
C244 C 0.69152 0.27784 0.71706 0.0
C245 C 0.72124 0.46316 0.71506 0.0
C246 C 0.74316 0.47157 0.68077 0.0
C247 C 0.71941 0.51489 0.74883 0.0
C248 C 0.69733 0.5081 0.78691 0.0
C249 C 0.69445 0.45365 0.81934 0.0
C250 C 0.67353 0.44751 0.85506 0.0
C251 C 0.65548 0.49579 0.85895 0.0
C252 C 0.65838 0.55041 0.82719 0.0
C253 C 0.67926 0.55675 0.79136 0.0
H254 H 0.63931 0.49096 0.88664 0.0
H255 H 0.84386 0.55812 0.54208 0.0
H256 H 0.01226 0.0889 0.2203 0.0
H257 H 0.98524 0.05915 0.1462 0.0
H258 H 0.06033 0.00811 0.07791 0.0
H259 H 0.08739 0.03817 0.15104 0.0
H260 H 0.03151 0.07611 0.01714 0.0
H261 H 0.01085 0.8867 0.1241 0.0
H262 H 0.99477 0.82864 0.19985 0.0
H263 H 0.9124 0.88626 0.18188 0.0
H264 H 0.92813 0.94551 0.1063 0.0
H265 H 0.97077 0.88398 0.82043 0.0
H266 H 0.99505 0.90856 0.89761 0.0
H267 H 0.91959 0.9702 0.9571 0.0
H268 H 0.8952 0.9459 0.88034 0.0
H269 H 0.94747 0.8977 0.02273 0.0
H270 H 0.96863 0.08657 0.91498 0.0
H271 H 0.98503 0.14297 0.8388 0.0
H272 H 0.06712 0.08441 0.85829 0.0
H273 H 0.05106 0.02677 0.93429 0.0
C274 C 0.02307 0.07218 0.18928 0.0
C275 C 0.05194 0.06548 0.19176 0.0
C276 C 0.00757 0.05474 0.1471 0.0
C277 C 0.0207 0.03048 0.10677 0.0
C278 C 0.04973 0.02645 0.1086 0.0
C279 C 0.06515 0.04352 0.15061 0.0
C280 C 0.0043 0.00758 0.06286 0.0
C281 C 0.01331 0.03664 0.01835 0.0
C282 C 0.98029 0.95677 0.06448 0.0
C283 C 0.97076 0.92119 0.10986 0.0
C284 C 0.98938 0.88749 0.13652 0.0
C285 C 0.98032 0.85427 0.17938 0.0
C286 C 0.9526 0.85394 0.19575 0.0
C287 C 0.93387 0.88668 0.16921 0.0
C288 C 0.94285 0.92006 0.12635 0.0
C289 C 0.95916 0.9014 0.85023 0.0
C290 C 0.93115 0.91362 0.8441 0.0
C291 C 0.9731 0.91579 0.8942 0.0
C292 C 0.95921 0.94215 0.93278 0.0
C293 C 0.93071 0.95017 0.92773 0.0
C294 C 0.91686 0.93644 0.88375 0.0
C295 C 0.97486 0.9659 0.97716 0.0
C296 C 0.96567 0.93717 0.02165 0.0
C297 C -0.00121 0.01685 0.97557 0.0
C298 C 0.00855 0.05175 0.93004 0.0
C299 C 0.99011 0.08524 0.90281 0.0
C300 C -0.00065 0.11752 0.85971 0.0
C301 C 0.02708 0.11711 0.84364 0.0
C302 C 0.04564 0.08458 0.87074 0.0
C303 C 0.03648 0.05214 0.91384 0.0
H304 H 0.0342 0.14215 0.81027 0.0
H305 H 0.94562 0.82817 0.22892 0.0
H306 H 0.53401 0.12248 0.80852 0.0
H307 H 0.50821 0.0821 0.8824 0.0
H308 H 0.56084 0.92723 0.89756 0.0
H309 H 0.58685 0.96737 0.82506 0.0
H310 H 0.50103 0.88129 0.90612 0.0
H311 H 0.57512 0.05157 0.96696 0.0
H312 H 0.60217 0.16594 0.97129 0.0
H313 H 0.52642 0.24428 0.00987 0.0
H314 H 0.49884 0.13041 0.00508 0.0
H315 H 0.47988 0.87246 0.1861 0.0
H316 H 0.50771 0.89693 0.112 0.0
H317 H 0.43067 0.89458 0.03055 0.0
H318 H 0.4028 0.87137 0.1044 0.0
H319 H 0.50427 0.01636 0.05595 0.0
H320 H 0.44575 0.8349 0.91562 0.0
H321 H 0.41917 0.71996 0.91153 0.0
H322 H 0.46529 0.66183 0.03352 0.0
H323 H 0.49241 0.77609 0.03791 0.0
C324 C 0.54012 0.08006 0.82776 0.0
C325 C 0.56256 0.04841 0.81094 0.0
C326 C 0.5254 0.05709 0.86987 0.0
C327 C 0.53264 1.00159 0.89523 0.0
C328 C 0.55489 0.96994 0.8784 0.0
C329 C 0.56984 0.99338 0.83703 0.0
C330 C 0.51719 0.97588 0.93943 0.0
C331 C 0.50161 0.91087 0.93885 0.0
C332 C 0.51831 0.01423 0.98217 0.0
C333 C 0.53487 0.08262 0.98512 0.0
C334 C 0.56419 0.09328 0.97591 0.0
C335 C 0.57962 0.15799 0.97855 0.0
C336 C 0.566 0.21237 0.9907 0.0
C337 C 0.53693 0.20212 0.00037 0.0
C338 C 0.52139 0.13751 0.99773 0.0
C339 C 0.46887 0.87522 0.15219 0.0
C340 C 0.43918 0.87012 0.151 0.0
C341 C 0.48478 0.88984 0.11002 0.0
C342 C 0.47121 0.89796 0.06596 0.0
C343 C 0.44153 0.88838 0.06419 0.0
C344 C 0.42565 0.87498 0.10637 0.0
C345 C 0.48793 0.92187 0.02259 0.0
C346 C 0.50364 0.98675 0.02323 0.0
C347 C 0.4869 0.88338 0.9799 0.0
C348 C 0.4709 0.81429 0.97737 0.0
C349 C 0.45028 0.79752 0.94147 0.0
C350 C 0.43511 0.7325 0.93911 0.0
C351 C 0.44047 0.68369 0.97235 0.0
C352 C 0.46107 0.69976 0.00793 0.0
C353 C 0.47631 0.7647 0.01043 0.0
H354 H 0.42871 0.63339 0.97046 0.0
H355 H 0.57799 0.26243 0.99275 0.0
H356 H 0.97272 0.69916 0.6555 0.0
H357 H 0.99417 0.61241 0.61384 0.0
H358 H 0.91712 0.55599 0.53292 0.0
H359 H 0.89534 0.64145 0.57499 0.0
H360 H 0.93996 0.44707 0.55767 0.0
H361 H 0.97219 0.66055 0.48374 0.0
H362 H 0.99359 0.77999 0.48154 0.0
H363 H 0.07159 0.72905 0.53699 0.0
H364 H 0.05051 0.60936 0.54015 0.0
H365 H 0.0061 0.26988 0.37659 0.0
H366 H 0.97964 0.34969 0.41637 0.0
H367 H 0.0534 0.42392 0.50136 0.0
H368 H 0.08 0.34624 0.46119 0.0
H369 H 0.02967 0.52444 0.46999 0.0
H370 H -0.00374 0.30957 0.54543 0.0
H371 H 0.974 0.19073 0.54763 0.0
H372 H 0.89747 0.24441 0.4881 0.0
H373 H 0.91944 0.36346 0.48483 0.0
C374 C 0.96021 0.66765 0.62937 0.0
C375 C 0.93248 0.67782 0.61809 0.0
C376 C 0.97253 0.61835 0.6054 0.0
C377 C 0.95743 0.57879 0.56953 0.0
C378 C 0.92922 0.58628 0.5602 0.0
C379 C 0.91685 0.63537 0.58422 0.0
C380 C 0.97148 0.532 0.54009 0.0
C381 C 0.95942 0.46401 0.53803 0.0
C382 C -0.00309 0.55415 0.51468 0.0
C383 C 0.00968 0.62608 0.5126 0.0
C384 C 0.99384 0.67488 0.49579 0.0
C385 C 0.00592 0.74261 0.49433 0.0
C386 C 0.03391 0.76212 0.50923 0.0
C387 C 0.0499 0.71389 0.52551 0.0
C388 C 0.0379 0.64609 0.52711 0.0
C389 C 0.01669 0.30362 0.40349 0.0
C390 C 0.04512 0.30156 0.41583 0.0
C391 C 0.0015 0.34883 0.42643 0.0
C392 C 0.01442 0.3921 0.46239 0.0
C393 C 0.04296 0.39099 0.47382 0.0
C394 C 0.05815 0.34637 0.45079 0.0
C395 C -0.00142 0.43896 0.48842 0.0
C396 C 0.01021 0.5073 0.48957 0.0
C397 C 0.97272 0.41702 0.51279 0.0
C398 C 0.95963 0.34532 0.51435 0.0
C399 C 0.97479 0.29595 0.53236 0.0
C400 C 0.9622 0.22855 0.53387 0.0
C401 C 0.93437 0.20999 0.51785 0.0
C402 C 0.91905 0.25881 0.50035 0.0
C403 C 0.93156 0.32624 0.49867 0.0
H404 H 0.92464 0.15782 0.51913 0.0
H405 H 0.04322 0.81458 0.50806 0.0
H406 H 0.41891 0.70605 0.47452 0.0
H407 H 0.43612 0.61191 0.51465 0.0
H408 H 0.47407 0.55987 0.38158 0.0
H409 H 0.45735 0.65526 0.34106 0.0
H410 H 0.43787 0.44875 0.43867 0.0
H411 H 0.51701 0.63129 0.45354 0.0
H412 H 0.53826 0.7463 0.47625 0.0
H413 H 0.51104 0.70792 0.62265 0.0
H414 H 0.48927 0.59293 0.60062 0.0
H415 H 0.52696 0.22119 0.51202 0.0
H416 H 0.50392 0.30991 0.4777 0.0
H417 H 0.49654 0.39338 0.61956 0.0
H418 H 0.52098 0.30564 0.6541 0.0
H419 H 0.51383 0.48921 0.56186 0.0
H420 H 0.43797 0.30889 0.55424 0.0
H421 H 0.41269 0.19544 0.53686 0.0
H422 H 0.42729 0.2284 0.38532 0.0
H423 H 0.45315 0.34166 0.40179 0.0
C424 C 0.43092 0.67464 0.45369 0.0
C425 C 0.43686 0.68808 0.40463 0.0
C426 C 0.44072 0.62096 0.47673 0.0
C427 C 0.4563 0.57922 0.45101 0.0
C428 C 0.46199 0.59171 0.40188 0.0
C429 C 0.45259 0.64627 0.37892 0.0
C430 C 0.46699 0.52314 0.47589 0.0
C431 C 0.45474 0.45714 0.46515 0.0
C432 C 0.48797 0.53487 0.51203 0.0
C433 C 0.50126 0.60379 0.52532 0.0
C434 C 0.51534 0.64758 0.49047 0.0
C435 C 0.52752 0.71272 0.50325 0.0
C436 C 0.52593 0.73447 0.55084 0.0
C437 C 0.51223 0.69104 0.58579 0.0
C438 C 0.49999 0.62588 0.57319 0.0
C439 C 0.5202 0.25794 0.53612 0.0
C440 C 0.52576 0.25634 0.58584 0.0
C441 C 0.5068 0.30854 0.5164 0.0
C442 C 0.49797 0.35785 0.54603 0.0
C443 C 0.50308 0.3558 0.59593 0.0
C444 C 0.51697 0.30561 0.61566 0.0
C445 C 0.48513 0.41367 0.52422 0.0
C446 C 0.49686 0.48003 0.5356 0.0
C447 C 0.46312 0.40213 0.48949 0.0
C448 C 0.44776 0.3337 0.47934 0.0
C449 C 0.43606 0.29176 0.51723 0.0
C450 C 0.42162 0.22745 0.50754 0.0
C451 C 0.41846 0.20465 0.46003 0.0
C452 C 0.42978 0.24611 0.42211 0.0
C453 C 0.44434 0.31039 0.43161 0.0
H454 H 0.40715 0.15496 0.4526 0.0
H455 H 0.53538 0.78492 0.56066 0.0
loop_
_geom_bond_atom_site_label_1
_geom_bond_atom_site_label_2
_geom_bond_distance
_geom_bond_site_symmetry_2
_ccdc_geom_bond_type
Mg0 O1 2.028 . S
Mg0 O7 1.986 . S
Mg0 O9 2.114 . S
Mg0 O10 2.251 . S
Mg0 O13 2.010 . S
O1 Mg0 2.028 . S
O1 C4 1.250 . S
O2 Mg3 2.028 . S
O2 C4 1.248 . S
Mg3 O2 2.028 . S
Mg3 O8 2.032 . S
Mg3 O10 2.079 . S
C4 O1 1.250 . S
C4 O2 1.248 . S
C5 O6 1.264 . S
C5 O13 1.249 . S
O6 C5 1.264 . S
O7 Mg0 1.986 . S
O7 C11 1.246 . S
O8 Mg3 2.032 . S
O8 C11 1.259 . S
O9 Mg0 2.114 . S
O9 C12 1.252 . S
O10 Mg0 2.251 . S
O10 Mg3 2.079 . S
O10 C12 1.273 . S
C11 O7 1.246 . S
C11 O8 1.259 . S
C12 O9 1.252 . S
C12 O10 1.273 . S
O13 Mg0 2.010 . S
O13 C5 1.249 . S
Mg14 O15 2.028 . S
Mg14 O21 1.986 . S
Mg14 O23 2.114 . S
Mg14 O24 2.251 . S
Mg14 O27 2.010 . S
O15 Mg14 2.028 . S
O15 C18 1.250 . S
O16 Mg17 2.028 . S
O16 C18 1.248 . S
Mg17 O16 2.028 . S
Mg17 O22 2.032 . S
Mg17 O24 2.079 . S
C18 O15 1.250 . S
C18 O16 1.248 . S
C19 O20 1.264 . S
C19 O27 1.249 . S
O20 C19 1.264 . S
O21 Mg14 1.986 . S
O21 C25 1.246 . S
O22 Mg17 2.032 . S
O22 C25 1.259 . S
O23 Mg14 2.114 . S
O23 C26 1.252 . S
O24 Mg14 2.251 . S
O24 Mg17 2.079 . S
O24 C26 1.273 . S
C25 O21 1.246 . S
C25 O22 1.259 . S
C26 O23 1.252 . S
C26 O24 1.273 . S
O27 Mg14 2.010 . S
O27 C19 1.249 . S
Mg28 O29 2.028 . S
Mg28 O35 1.986 . S
Mg28 O37 2.114 . S
Mg28 O38 2.251 . S
Mg28 O41 2.010 . S
O29 Mg28 2.028 . S
O29 C32 1.250 . S
O30 Mg31 2.028 . S
O30 C32 1.248 . S
Mg31 O30 2.028 . S
Mg31 O36 2.032 . S
Mg31 O38 2.079 . S
C32 O29 1.250 . S
C32 O30 1.248 . S
C33 O34 1.264 . S
C33 O41 1.249 . S
O34 C33 1.264 . S
O35 Mg28 1.986 . S
O35 C39 1.246 . S
O36 Mg31 2.032 . S
O36 C39 1.259 . S
O37 Mg28 2.114 . S
O37 C40 1.252 . S
O38 Mg28 2.251 . S
O38 Mg31 2.079 . S
O38 C40 1.273 . S
C39 O35 1.246 . S
C39 O36 1.259 . S
C40 O37 1.252 . S
C40 O38 1.273 . S
O41 Mg28 2.010 . S
O41 C33 1.249 . S
Mg42 O43 2.028 . S
Mg42 O49 1.986 . S
Mg42 O51 2.114 . S
Mg42 O52 2.251 . S
Mg42 O55 2.010 . S
O43 Mg42 2.028 . S
O43 C46 1.250 . S
O44 Mg45 2.028 . S
O44 C46 1.248 . S
Mg45 O44 2.028 . S
Mg45 O50 2.032 . S
Mg45 O52 2.079 . S
C46 O43 1.250 . S
C46 O44 1.248 . S
C47 O48 1.264 . S
C47 O55 1.249 . S
O48 C47 1.264 . S
O49 Mg42 1.986 . S
O49 C53 1.246 . S
O50 Mg45 2.032 . S
O50 C53 1.259 . S
O51 Mg42 2.114 . S
O51 C54 1.252 . S
O52 Mg42 2.251 . S
O52 Mg45 2.079 . S
O52 C54 1.273 . S
C53 O49 1.246 . S
C53 O50 1.259 . S
C54 O51 1.252 . S
C54 O52 1.273 . S
O55 Mg42 2.010 . S
O55 C47 1.249 . S
H56 C74 0.951 . S
H57 C76 0.951 1_545 S
H58 C78 0.950 . S
H59 C79 0.950 . S
H60 C81 0.950 . S
H61 C84 0.950 1_565 S
H62 C85 0.950 1_565 S
H63 C87 0.950 . S
H64 C88 0.950 . S
H65 C89 0.951 . S
H66 C91 0.951 1_565 S
H67 C93 0.950 . S
H68 C94 0.950 . S
H69 C96 0.950 . S
H70 C99 0.950 1_545 S
H71 C100 0.950 1_545 S
H72 C102 0.950 . S
H73 C103 0.950 . S
C74 H56 0.951 . S
C74 C75 1.366 . S
C74 C76 1.388 . S
C75 C74 1.366 . S
C75 C79 1.385 . S
C76 H57 0.951 1_565 S
C76 C74 1.388 . S
C76 C77 1.366 . S
C77 C76 1.366 . S
C77 C78 1.414 . S
C77 C80 1.499 . S
C78 H58 0.950 . S
C78 C77 1.414 . S
C78 C79 1.374 . S
C79 H59 0.950 . S
C79 C75 1.385 . S
C79 C78 1.374 . S
C80 C77 1.499 . S
C80 C81 1.373 . S
C80 C82 1.389 1_565 S
C81 H60 0.950 . S
C81 C80 1.373 . S
C81 C97 1.377 . S
C82 C80 1.389 1_545 S
C82 C83 1.524 . S
C82 C96 1.377 . S
C83 C82 1.524 . S
C83 C84 1.397 . S
C83 C88 1.363 . S
C84 H61 0.950 1_545 S
C84 C83 1.397 . S
C84 C85 1.334 . S
C85 H62 0.950 1_545 S
C85 C84 1.334 . S
C85 C86 1.287 . S
C86 C85 1.287 . S
C86 C87 1.524 . S
C86 H105 0.913 . S
C87 H63 0.950 . S
C87 C86 1.524 . S
C87 C88 1.415 . S
C88 H64 0.950 . S
C88 C83 1.363 . S
C88 C87 1.415 . S
C89 H65 0.951 . S
C89 C90 1.366 . S
C89 C91 1.388 . S
C90 C89 1.366 . S
C90 C94 1.385 . S
C91 H66 0.951 1_545 S
C91 C89 1.388 . S
C91 C92 1.366 . S
C92 C91 1.366 . S
C92 C93 1.414 . S
C92 C95 1.499 . S
C93 H67 0.950 . S
C93 C92 1.414 . S
C93 C94 1.374 . S
C94 H68 0.950 . S
C94 C90 1.385 . S
C94 C93 1.374 . S
C95 C92 1.499 . S
C95 C96 1.373 . S
C95 C97 1.389 1_545 S
C96 H69 0.950 . S
C96 C82 1.377 . S
C96 C95 1.373 . S
C97 C81 1.377 . S
C97 C95 1.389 1_565 S
C97 C98 1.524 . S
C98 C97 1.524 . S
C98 C99 1.397 . S
C98 C103 1.363 . S
C99 H70 0.950 1_565 S
C99 C98 1.397 . S
C99 C100 1.334 . S
C100 H71 0.950 1_565 S
C100 C99 1.334 . S
C100 C101 1.287 . S
C101 C100 1.287 . S
C101 C102 1.524 . S
C101 H104 0.999 . S
C102 H72 0.950 . S
C102 C101 1.524 . S
C102 C103 1.415 . S
C103 H73 0.950 . S
C103 C98 1.363 . S
C103 C102 1.415 . S
H104 C101 0.999 . S
H105 C86 0.913 . S
H106 C124 0.951 . S
H107 C126 0.951 . S
H108 C128 0.950 . S
H109 C129 0.950 . S
H110 C131 0.950 . S
H111 C134 0.950 . S
H112 C135 0.950 . S
H113 C137 0.950 . S
H114 C138 0.950 . S
H115 C139 0.951 . S
H116 C141 0.951 . S
H117 C143 0.950 . S
H118 C144 0.950 . S
H119 C146 0.950 . S
H120 C149 0.950 . S
H121 C150 0.950 . S
H122 C152 0.950 . S
H123 C153 0.950 . S
C124 H106 0.951 . S
C124 C125 1.366 . S
C124 C126 1.388 . S
C125 C124 1.366 . S
C125 C129 1.385 . S
C126 H107 0.951 . S
C126 C124 1.388 . S
C126 C127 1.366 . S
C127 C126 1.366 . S
C127 C128 1.414 . S
C127 C130 1.499 . S
C128 H108 0.950 . S
C128 C127 1.414 . S
C128 C129 1.374 . S
C129 H109 0.950 . S
C129 C125 1.385 . S
C129 C128 1.374 . S
C130 C127 1.499 . S
C130 C131 1.373 . S
C130 C132 1.389 . S
C131 H110 0.950 . S
C131 C130 1.373 . S
C131 C147 1.377 . S
C132 C130 1.389 . S
C132 C133 1.524 . S
C132 C146 1.377 . S
C133 C132 1.524 . S
C133 C134 1.397 . S
C133 C138 1.363 . S
C134 H111 0.950 . S
C134 C133 1.397 . S
C134 C135 1.334 . S
C135 H112 0.950 . S
C135 C134 1.334 . S
C135 C136 1.287 . S
C136 C135 1.287 . S
C136 C137 1.524 . S
C136 H155 0.913 . S
C137 H113 0.950 . S
C137 C136 1.524 . S
C137 C138 1.415 . S
C138 H114 0.950 . S
C138 C133 1.363 . S
C138 C137 1.415 . S
C139 H115 0.951 . S
C139 C140 1.366 . S
C139 C141 1.388 . S
C140 C139 1.366 . S
C140 C144 1.385 . S
C141 H116 0.951 . S
C141 C139 1.388 . S
C141 C142 1.366 . S
C142 C141 1.366 . S
C142 C143 1.414 . S
C142 C145 1.499 . S
C143 H117 0.950 . S
C143 C142 1.414 . S
C143 C144 1.374 . S
C144 H118 0.950 . S
C144 C140 1.385 . S
C144 C143 1.374 . S
C145 C142 1.499 . S
C145 C146 1.373 . S
C145 C147 1.389 . S
C146 H119 0.950 . S
C146 C132 1.377 . S
C146 C145 1.373 . S
C147 C131 1.377 . S
C147 C145 1.389 . S
C147 C148 1.524 . S
C148 C147 1.524 . S
C148 C149 1.397 . S
C148 C153 1.363 . S
C149 H120 0.950 . S
C149 C148 1.397 . S
C149 C150 1.334 . S
C150 H121 0.950 . S
C150 C149 1.334 . S
C150 C151 1.287 . S
C151 C150 1.287 . S
C151 C152 1.524 . S
C151 H154 0.999 . S
C152 H122 0.950 . S
C152 C151 1.524 . S
C152 C153 1.415 . S
C153 H123 0.950 . S
C153 C148 1.363 . S
C153 C152 1.415 . S
H154 C151 0.999 . S
H155 C136 0.913 . S
H156 C174 0.951 . S
H157 C176 0.951 1_565 S
H158 C178 0.950 . S
H159 C179 0.950 . S
H160 C181 0.950 . S
H161 C184 0.950 1_545 S
H162 C185 0.950 1_545 S
H163 C187 0.950 . S
H164 C188 0.950 . S
H165 C189 0.951 . S
H166 C191 0.951 1_545 S
H167 C193 0.950 . S
H168 C194 0.950 . S
H169 C196 0.950 . S
H170 C199 0.950 1_565 S
H171 C200 0.950 1_565 S
H172 C202 0.950 . S
H173 C203 0.950 . S
C174 H156 0.951 . S
C174 C175 1.366 . S
C174 C176 1.388 . S
C175 C174 1.366 . S
C175 C179 1.385 . S
C176 H157 0.951 1_545 S
C176 C174 1.388 . S
C176 C177 1.366 . S
C177 C176 1.366 . S
C177 C178 1.414 . S
C177 C180 1.499 . S
C178 H158 0.950 . S
C178 C177 1.414 . S
C178 C179 1.374 . S
C179 H159 0.950 . S
C179 C175 1.385 . S
C179 C178 1.374 . S
C180 C177 1.499 . S
C180 C181 1.373 . S
C180 C182 1.389 1_545 S
C181 H160 0.950 . S
C181 C180 1.373 . S
C181 C197 1.377 . S
C182 C180 1.389 1_565 S
C182 C183 1.524 . S
C182 C196 1.377 . S
C183 C182 1.524 . S
C183 C184 1.397 . S
C183 C188 1.363 . S
C184 H161 0.950 1_565 S
C184 C183 1.397 . S
C184 C185 1.334 . S
C185 H162 0.950 1_565 S
C185 C184 1.334 . S
C185 C186 1.287 . S
C186 C185 1.287 . S
C186 C187 1.524 . S
C186 H205 0.913 . S
C187 H163 0.950 . S
C187 C186 1.524 . S
C187 C188 1.415 . S
C188 H164 0.950 . S
C188 C183 1.363 . S
C188 C187 1.415 . S
C189 H165 0.951 . S
C189 C190 1.366 . S
C189 C191 1.388 . S
C190 C189 1.366 . S
C190 C194 1.385 . S
C191 H166 0.951 1_565 S
C191 C189 1.388 . S
C191 C192 1.366 . S
C192 C191 1.366 . S
C192 C193 1.414 . S
C192 C195 1.499 . S
C193 H167 0.950 . S
C193 C192 1.414 . S
C193 C194 1.374 . S
C194 H168 0.950 . S
C194 C190 1.385 . S
C194 C193 1.374 . S
C195 C192 1.499 . S
C195 C196 1.373 . S
C195 C197 1.389 1_565 S
C196 H169 0.950 . S
C196 C182 1.377 . S
C196 C195 1.373 . S
C197 C181 1.377 . S
C197 C195 1.389 1_545 S
C197 C198 1.524 . S
C198 C197 1.524 . S
C198 C199 1.397 . S
C198 C203 1.363 . S
C199 H170 0.950 1_545 S
C199 C198 1.397 . S
C199 C200 1.334 . S
C200 H171 0.950 1_545 S
C200 C199 1.334 . S
C200 C201 1.287 . S
C201 C200 1.287 . S
C201 C202 1.524 . S
C201 H204 0.999 . S
C202 H172 0.950 . S
C202 C201 1.524 . S
C202 C203 1.415 . S
C203 H173 0.950 . S
C203 C198 1.363 . S
C203 C202 1.415 . S
H204 C201 0.999 . S
H205 C186 0.913 . S
H206 C224 0.951 . S
H207 C226 0.951 . S
H208 C228 0.950 . S
H209 C229 0.950 . S
H210 C231 0.950 . S
H211 C234 0.950 . S
H212 C235 0.950 . S
H213 C237 0.950 . S
H214 C238 0.950 . S
H215 C239 0.951 . S
H216 C241 0.951 . S
H217 C243 0.950 . S
H218 C244 0.950 . S
H219 C246 0.950 . S
H220 C249 0.950 . S
H221 C250 0.950 . S
H222 C252 0.950 . S
H223 C253 0.950 . S
C224 H206 0.951 . S
C224 C225 1.366 . S
C224 C226 1.388 . S
C225 C224 1.366 . S
C225 C229 1.385 . S
C226 H207 0.951 . S
C226 C224 1.388 . S
C226 C227 1.366 . S
C227 C226 1.366 . S
C227 C228 1.414 . S
C227 C230 1.499 . S
C228 H208 0.950 . S
C228 C227 1.414 . S
C228 C229 1.374 . S
C229 H209 0.950 . S
C229 C225 1.385 . S
C229 C228 1.374 . S
C230 C227 1.499 . S
C230 C231 1.373 . S
C230 C232 1.389 . S
C231 H210 0.950 . S
C231 C230 1.373 . S
C231 C247 1.377 . S
C232 C230 1.389 . S
C232 C233 1.524 . S
C232 C246 1.377 . S
C233 C232 1.524 . S
C233 C234 1.397 . S
C233 C238 1.363 . S
C234 H211 0.950 . S
C234 C233 1.397 . S
C234 C235 1.334 . S
C235 H212 0.950 . S
C235 C234 1.334 . S
C235 C236 1.287 . S
C236 C235 1.287 . S
C236 C237 1.524 . S
C236 H255 0.913 . S
C237 H213 0.950 . S
C237 C236 1.524 . S
C237 C238 1.415 . S
C238 H214 0.950 . S
C238 C233 1.363 . S
C238 C237 1.415 . S
C239 H215 0.951 . S
C239 C240 1.366 . S
C239 C241 1.388 . S
C240 C239 1.366 . S
C240 C244 1.385 . S
C241 H216 0.951 . S
C241 C239 1.388 . S
C241 C242 1.366 . S
C242 C241 1.366 . S
C242 C243 1.414 . S
C242 C245 1.499 . S
C243 H217 0.950 . S
C243 C242 1.414 . S
C243 C244 1.374 . S
C244 H218 0.950 . S
C244 C240 1.385 . S
C244 C243 1.374 . S
C245 C242 1.499 . S
C245 C246 1.373 . S
C245 C247 1.389 . S
C246 H219 0.950 . S
C246 C232 1.377 . S
C246 C245 1.373 . S
C247 C231 1.377 . S
C247 C245 1.389 . S
C247 C248 1.524 . S
C248 C247 1.524 . S
C248 C249 1.397 . S
C248 C253 1.363 . S
C249 H220 0.950 . S
C249 C248 1.397 . S
C249 C250 1.334 . S
C250 H221 0.950 . S
C250 C249 1.334 . S
C250 C251 1.287 . S
C251 C250 1.287 . S
C251 C252 1.524 . S
C251 H254 0.999 . S
C252 H222 0.950 . S
C252 C251 1.524 . S
C252 C253 1.415 . S
C253 H223 0.950 . S
C253 C248 1.363 . S
C253 C252 1.415 . S
H254 C251 0.999 . S
H255 C236 0.913 . S
H256 C274 0.951 . S
H257 C276 0.968 . S
H258 C278 0.950 . S
H259 C279 0.950 . S
H260 C281 0.950 . S
H261 C284 0.950 . S
H262 C285 0.950 . S
H263 C287 0.950 . S
H264 C288 0.950 . S
H265 C289 0.951 . S
H266 C291 0.968 . S
H267 C293 0.950 . S
H268 C294 0.950 . S
H269 C296 0.950 . S
H270 C299 0.950 . S
H271 C300 0.950 . S
H272 C302 0.950 . S
H273 C303 0.950 . S
C274 H256 0.951 . S
C274 C275 1.366 . S
C274 C276 1.388 . S
C275 C274 1.366 . S
C275 C279 1.385 . S
C276 H257 0.968 . S
C276 C274 1.388 . S
C276 C277 1.366 . S
C277 C276 1.366 . S
C277 C278 1.414 . S
C277 C280 1.499 . S
C278 H258 0.950 . S
C278 C277 1.414 . S
C278 C279 1.374 . S
C279 H259 0.950 . S
C279 C275 1.385 . S
C279 C278 1.374 . S
C280 C277 1.499 . S
C280 C281 1.373 1_554 S
C280 C282 1.389 1_545 S
C281 H260 0.950 . S
C281 C280 1.373 1_556 S
C281 C297 1.377 1_455 S
C282 C280 1.389 1_565 S
C282 C283 1.524 . S
C282 C296 1.377 1_455 S
C283 C282 1.524 . S
C283 C284 1.397 . S
C283 C288 1.363 1_455 S
C284 H261 0.950 . S
C284 C283 1.397 . S
C284 C285 1.334 . S
C285 H262 0.950 . S
C285 C284 1.334 . S
C285 C286 1.287 . S
C286 C285 1.287 . S
C286 C287 1.524 1_455 S
C286 H305 0.913 . S
C287 H263 0.950 . S
C287 C286 1.524 1_655 S
C287 C288 1.415 . S
C288 H264 0.950 . S
C288 C283 1.363 1_655 S
C288 C287 1.415 . S
C289 H265 0.951 . S
C289 C290 1.366 . S
C289 C291 1.388 . S
C290 C289 1.366 . S
C290 C294 1.385 . S
C291 H266 0.968 . S
C291 C289 1.388 . S
C291 C292 1.366 . S
C292 C291 1.366 . S
C292 C293 1.414 . S
C292 C295 1.499 . S
C293 H267 0.950 . S
C293 C292 1.414 . S
C293 C294 1.374 . S
C294 H268 0.950 . S
C294 C290 1.385 . S
C294 C293 1.374 . S
C295 C292 1.499 . S
C295 C296 1.373 1_556 S
C295 C297 1.389 1_565 S
C296 H269 0.950 . S
C296 C282 1.377 1_655 S
C296 C295 1.373 1_554 S
C297 C281 1.377 1_655 S
C297 C295 1.389 1_545 S
C297 C298 1.524 . S
C298 C297 1.524 . S
C298 C299 1.397 . S
C298 C303 1.363 1_655 S
C299 H270 0.950 . S
C299 C298 1.397 . S
C299 C300 1.334 . S
C300 H271 0.950 . S
C300 C299 1.334 . S
C300 C301 1.287 . S
C301 C300 1.287 . S
C301 C302 1.524 1_655 S
C301 H304 0.999 . S
C302 H272 0.950 . S
C302 C301 1.524 1_455 S
C302 C303 1.415 . S
C303 H273 0.950 . S
C303 C298 1.363 1_455 S
C303 C302 1.415 . S
H304 C301 0.999 . S
H305 C286 0.913 . S
H306 C324 0.951 . S
H307 C326 0.951 . S
H308 C328 0.950 . S
H309 C329 0.950 . S
H310 C331 0.950 . S
H311 C334 0.950 . S
H312 C335 0.950 . S
H313 C337 0.950 . S
H314 C338 0.950 . S
H315 C339 0.951 . S
H316 C341 0.951 . S
H317 C343 0.950 . S
H318 C344 0.950 . S
H319 C346 0.950 . S
H320 C349 0.950 . S
H321 C350 0.950 . S
H322 C352 0.950 . S
H323 C353 0.950 . S
C324 H306 0.951 . S
C324 C325 1.366 . S
C324 C326 1.388 . S
C325 C324 1.366 . S
C325 C329 1.385 . S
C326 H307 0.951 . S
C326 C324 1.388 . S
C326 C327 1.366 . S
C327 C326 1.366 . S
C327 C328 1.414 . S
C327 C330 1.499 . S
C328 H308 0.950 . S
C328 C327 1.414 . S
C328 C329 1.374 . S
C329 H309 0.950 . S
C329 C325 1.385 . S
C329 C328 1.374 . S
C330 C327 1.499 . S
C330 C331 1.373 1_545 S
C330 C332 1.389 1_556 S
C331 H310 0.950 . S
C331 C330 1.373 1_565 S
C331 C347 1.377 . S
C332 C330 1.389 1_554 S
C332 C333 1.524 . S
C332 C346 1.377 . S
C333 C332 1.524 . S
C333 C334 1.397 . S
C333 C338 1.363 . S
C334 H311 0.950 . S
C334 C333 1.397 . S
C334 C335 1.334 . S
C335 H312 0.950 . S
C335 C334 1.334 . S
C335 C336 1.287 . S
C336 C335 1.287 . S
C336 C337 1.524 . S
C336 H355 0.913 . S
C337 H313 0.950 . S
C337 C336 1.524 . S
C337 C338 1.415 . S
C338 H314 0.950 . S
C338 C333 1.363 . S
C338 C337 1.415 . S
C339 H315 0.951 . S
C339 C340 1.366 . S
C339 C341 1.388 . S
C340 C339 1.366 . S
C340 C344 1.385 . S
C341 H316 0.951 . S
C341 C339 1.388 . S
C341 C342 1.366 . S
C342 C341 1.366 . S
C342 C343 1.414 . S
C342 C345 1.499 . S
C343 H317 0.950 . S
C343 C342 1.414 . S
C343 C344 1.374 . S
C344 H318 0.950 . S
C344 C340 1.385 . S
C344 C343 1.374 . S
C345 C342 1.499 . S
C345 C346 1.373 1_565 S
C345 C347 1.389 1_554 S
C346 H319 0.950 . S
C346 C332 1.377 . S
C346 C345 1.373 1_545 S
C347 C331 1.377 . S
C347 C345 1.389 1_556 S
C347 C348 1.524 . S
C348 C347 1.524 . S
C348 C349 1.397 . S
C348 C353 1.363 . S
C349 H320 0.950 . S
C349 C348 1.397 . S
C349 C350 1.334 . S
C350 H321 0.950 . S
C350 C349 1.334 . S
C350 C351 1.287 . S
C351 C350 1.287 . S
C351 C352 1.524 . S
C351 H354 0.999 . S
C352 H322 0.950 . S
C352 C351 1.524 . S
C352 C353 1.415 . S
C353 H323 0.950 . S
C353 C348 1.363 . S
C353 C352 1.415 . S
H354 C351 0.999 . S
H355 C336 0.913 . S
H356 C374 0.951 . S
H357 C376 0.951 1_455 S
H358 C378 0.950 . S
H359 C379 0.950 . S
H360 C381 0.950 . S
H361 C384 0.950 . S
H362 C385 0.950 . S
H363 C387 0.950 . S
H364 C388 0.950 . S
H365 C389 0.951 . S
H366 C391 0.951 1_655 S
H367 C393 0.950 . S
H368 C394 0.950 . S
H369 C396 0.950 . S
H370 C399 0.950 . S
H371 C400 0.950 . S
H372 C402 0.950 . S
H373 C403 0.950 . S
C374 H356 0.951 . S
C374 C375 1.366 . S
C374 C376 1.388 . S
C375 C374 1.366 . S
C375 C379 1.385 . S
C376 H357 0.951 1_655 S
C376 C374 1.388 . S
C376 C377 1.366 . S
C377 C376 1.366 . S
C377 C378 1.414 . S
C377 C380 1.499 . S
C378 H358 0.950 . S
C378 C377 1.414 . S
C378 C379 1.374 . S
C379 H359 0.950 . S
C379 C375 1.385 . S
C379 C378 1.374 . S
C380 C377 1.499 . S
C380 C381 1.373 . S
C380 C382 1.389 1_655 S
C381 H360 0.950 . S
C381 C380 1.373 . S
C381 C397 1.377 . S
C382 C380 1.389 1_455 S
C382 C383 1.524 . S
C382 C396 1.377 . S
C383 C382 1.524 . S
C383 C384 1.397 . S
C383 C388 1.363 . S
C384 H361 0.950 . S
C384 C383 1.397 . S
C384 C385 1.334 . S
C385 H362 0.950 . S
C385 C384 1.334 . S
C385 C386 1.287 . S
C386 C385 1.287 . S
C386 C387 1.524 . S
C386 H405 0.913 . S
C387 H363 0.950 . S
C387 C386 1.524 . S
C387 C388 1.415 . S
C388 H364 0.950 . S
C388 C383 1.363 . S
C388 C387 1.415 . S
C389 H365 0.951 . S
C389 C390 1.366 . S
C389 C391 1.388 . S
C390 C389 1.366 . S
C390 C394 1.385 . S
C391 H366 0.951 1_455 S
C391 C389 1.388 . S
C391 C392 1.366 . S
C392 C391 1.366 . S
C392 C393 1.414 . S
C392 C395 1.499 . S
C393 H367 0.950 . S
C393 C392 1.414 . S
C393 C394 1.374 . S
C394 H368 0.950 . S
C394 C390 1.385 . S
C394 C393 1.374 . S
C395 C392 1.499 . S
C395 C396 1.373 . S
C395 C397 1.389 1_455 S
C396 H369 0.950 . S
C396 C382 1.377 . S
C396 C395 1.373 . S
C397 C381 1.377 . S
C397 C395 1.389 1_655 S
C397 C398 1.524 . S
C398 C397 1.524 . S
C398 C399 1.397 . S
C398 C403 1.363 . S
C399 H370 0.950 . S
C399 C398 1.397 . S
C399 C400 1.334 . S
C400 H371 0.950 . S
C400 C399 1.334 . S
C400 C401 1.287 . S
C401 C400 1.287 . S
C401 C402 1.524 . S
C401 H404 0.999 . S
C402 H372 0.950 . S
C402 C401 1.524 . S
C402 C403 1.415 . S
C403 H373 0.950 . S
C403 C398 1.363 . S
C403 C402 1.415 . S
H404 C401 0.999 . S
H405 C386 0.913 . S
H406 C424 0.951 . S
H407 C426 0.951 . S
H408 C428 0.950 . S
H409 C429 0.950 . S
H410 C431 0.950 . S
H411 C434 0.950 . S
H412 C435 0.950 . S
H413 C437 0.950 . S
H414 C438 0.950 . S
H415 C439 0.951 . S
H416 C441 0.951 . S
H417 C443 0.950 . S
H418 C444 0.950 . S
H419 C446 0.950 . S
H420 C449 0.950 . S
H421 C450 0.950 . S
H422 C452 0.950 . S
H423 C453 0.950 . S
C424 H406 0.951 . S
C424 C425 1.366 . S
C424 C426 1.388 . S
C425 C424 1.366 . S
C425 C429 1.385 . S
C426 H407 0.951 . S
C426 C424 1.388 . S
C426 C427 1.366 . S
C427 C426 1.366 . S
C427 C428 1.414 . S
C427 C430 1.499 . S
C428 H408 0.950 . S
C428 C427 1.414 . S
C428 C429 1.374 . S
C429 H409 0.950 . S
C429 C425 1.385 . S
C429 C428 1.374 . S
C430 C427 1.499 . S
C430 C431 1.373 . S
C430 C432 1.389 . S
C431 H410 0.950 . S
C431 C430 1.373 . S
C431 C447 1.377 . S
C432 C430 1.389 . S
C432 C433 1.524 . S
C432 C446 1.377 . S
C433 C432 1.524 . S
C433 C434 1.397 . S
C433 C438 1.363 . S
C434 H411 0.950 . S
C434 C433 1.397 . S
C434 C435 1.334 . S
C435 H412 0.950 . S
C435 C434 1.334 . S
C435 C436 1.287 . S
C436 C435 1.287 . S
C436 C437 1.524 . S
C436 H455 0.913 . S
C437 H413 0.950 . S
C437 C436 1.524 . S
C437 C438 1.415 . S
C438 H414 0.950 . S
C438 C433 1.363 . S
C438 C437 1.415 . S
C439 H415 0.951 . S
C439 C440 1.366 . S
C439 C441 1.388 . S
C440 C439 1.366 . S
C440 C444 1.385 . S
C441 H416 0.951 . S
C441 C439 1.388 . S
C441 C442 1.366 . S
C442 C441 1.366 . S
C442 C443 1.414 . S
C442 C445 1.499 . S
C443 H417 0.950 . S
C443 C442 1.414 . S
C443 C444 1.374 . S
C444 H418 0.950 . S
C444 C440 1.385 . S
C444 C443 1.374 . S
C445 C442 1.499 . S
C445 C446 1.373 . S
C445 C447 1.389 . S
C446 H419 0.950 . S
C446 C432 1.377 . S
C446 C445 1.373 . S
C447 C431 1.377 . S
C447 C445 1.389 . S
C447 C448 1.524 . S
C448 C447 1.524 . S
C448 C449 1.397 . S
C448 C453 1.363 . S
C449 H420 0.950 . S
C449 C448 1.397 . S
C449 C450 1.334 . S
C450 H421 0.950 . S
C450 C449 1.334 . S
C450 C451 1.287 . S
C451 C450 1.287 . S
C451 C452 1.524 . S
C451 H454 0.999 . S
C452 H422 0.950 . S
C452 C451 1.524 . S
C452 C453 1.415 . S
C453 H423 0.950 . S
C453 C448 1.363 . S
C453 C452 1.415 . S
H454 C451 0.999 . S
H455 C436 0.913 . S
C75 C26 0.599 . S
C90 C12 0.600 . S
C125 C4 0.519 . S
C140 C18 0.519 . S
C175 C54 0.600 . S
C190 C40 0.599 . S
C225 C32 0.517 . S
C240 C46 0.517 . S
C275 C11 1.483 . S
C290 C39 1.483 . S
C325 C53 1.483 . S
C340 C25 1.483 . S
C375 C33 1.466 . S
C390 C5 1.466 . S
C425 C19 1.466 . S
C440 C47 1.465 . S
