# Generated by pormake.
# Topology ums, (4)-cn, num edge types: 1
# Building blocks:
#     Node 0, Type 0, BuildingBlock: GALJAG_clean_sbu_0, # of connection points: 4
#     Node 1, Type 0, BuildingBlock: GALJAG_clean_sbu_0, # of connection points: 4
#     Node 2, Type 0, BuildingBlock: GALJAG_clean_sbu_0, # of connection points: 4
#     Node 3, Type 0, BuildingBlock: GALJAG_clean_sbu_0, # of connection points: 4
#     Node 4, Type 0, BuildingBlock: GALJAG_clean_sbu_0, # of connection points: 4
#     Node 5, Type 0, BuildingBlock: GALJAG_clean_sbu_0, # of connection points: 4
#     Node 6, Type 0, BuildingBlock: GALJAG_clean_sbu_0, # of connection points: 4
#     Node 7, Type 0, BuildingBlock: GALJAG_clean_sbu_0, # of connection points: 4
#     Node 8, Type 0, BuildingBlock: GALJAG_clean_sbu_0, # of connection points: 4
#     Node 9, Type 0, BuildingBlock: GALJAG_clean_sbu_0, # of connection points: 4
#     Node 10, Type 0, BuildingBlock: GALJAG_clean_sbu_0, # of connection points: 4
#     Node 11, Type 0, BuildingBlock: GALJAG_clean_sbu_0, # of connection points: 4
#     Node 12, Type 0, BuildingBlock: GALJAG_clean_sbu_0, # of connection points: 4
#     Node 13, Type 0, BuildingBlock: GALJAG_clean_sbu_0, # of connection points: 4
#     Node 14, Type 0, BuildingBlock: GALJAG_clean_sbu_0, # of connection points: 4
#     Node 15, Type 0, BuildingBlock: GALJAG_clean_sbu_0, # of connection points: 4
#     Node 16, Type 0, BuildingBlock: GALJAG_clean_sbu_0, # of connection points: 4
#     Node 17, Type 0, BuildingBlock: GALJAG_clean_sbu_0, # of connection points: 4
#     Node 18, Type 0, BuildingBlock: GALJAG_clean_sbu_0, # of connection points: 4
#     Node 19, Type 0, BuildingBlock: GALJAG_clean_sbu_0, # of connection points: 4
#     Node 20, Type 0, BuildingBlock: GALJAG_clean_sbu_0, # of connection points: 4
#     Node 21, Type 0, BuildingBlock: GALJAG_clean_sbu_0, # of connection points: 4
#     Node 22, Type 0, BuildingBlock: GALJAG_clean_sbu_0, # of connection points: 4
#     Node 23, Type 0, BuildingBlock: GALJAG_clean_sbu_0, # of connection points: 4
#     Node 24, Type 0, BuildingBlock: GALJAG_clean_sbu_0, # of connection points: 4
#     Node 25, Type 0, BuildingBlock: GALJAG_clean_sbu_0, # of connection points: 4
#     Node 26, Type 0, BuildingBlock: GALJAG_clean_sbu_0, # of connection points: 4
#     Node 27, Type 0, BuildingBlock: GALJAG_clean_sbu_0, # of connection points: 4
#     Node 28, Type 0, BuildingBlock: GALJAG_clean_sbu_0, # of connection points: 4
#     Node 29, Type 0, BuildingBlock: GALJAG_clean_sbu_0, # of connection points: 4
#     Node 30, Type 0, BuildingBlock: GALJAG_clean_sbu_0, # of connection points: 4
#     Node 31, Type 0, BuildingBlock: GALJAG_clean_sbu_0, # of connection points: 4
#     Node 32, Type 0, BuildingBlock: GALJAG_clean_sbu_0, # of connection points: 4
#     Node 33, Type 0, BuildingBlock: GALJAG_clean_sbu_0, # of connection points: 4
#     Node 34, Type 0, BuildingBlock: GALJAG_clean_sbu_0, # of connection points: 4
#     Node 35, Type 0, BuildingBlock: GALJAG_clean_sbu_0, # of connection points: 4
#     Edge 36, Type (0, 0), BuildingBlock: AJUNOK_clean_linker_0, # of connection points: 2
#     Edge 37, Type (0, 0), BuildingBlock: AJUNOK_clean_linker_0, # of connection points: 2
#     Edge 38, Type (0, 0), BuildingBlock: AJUNOK_clean_linker_0, # of connection points: 2
#     Edge 39, Type (0, 0), BuildingBlock: AJUNOK_clean_linker_0, # of connection points: 2
#     Edge 40, Type (0, 0), BuildingBlock: AJUNOK_clean_linker_0, # of connection points: 2
#     Edge 41, Type (0, 0), BuildingBlock: AJUNOK_clean_linker_0, # of connection points: 2
#     Edge 42, Type (0, 0), BuildingBlock: AJUNOK_clean_linker_0, # of connection points: 2
#     Edge 43, Type (0, 0), BuildingBlock: AJUNOK_clean_linker_0, # of connection points: 2
#     Edge 44, Type (0, 0), BuildingBlock: AJUNOK_clean_linker_0, # of connection points: 2
#     Edge 45, Type (0, 0), BuildingBlock: AJUNOK_clean_linker_0, # of connection points: 2
#     Edge 46, Type (0, 0), BuildingBlock: AJUNOK_clean_linker_0, # of connection points: 2
#     Edge 47, Type (0, 0), BuildingBlock: AJUNOK_clean_linker_0, # of connection points: 2
#     Edge 48, Type (0, 0), BuildingBlock: AJUNOK_clean_linker_0, # of connection points: 2
#     Edge 49, Type (0, 0), BuildingBlock: AJUNOK_clean_linker_0, # of connection points: 2
#     Edge 50, Type (0, 0), BuildingBlock: AJUNOK_clean_linker_0, # of connection points: 2
#     Edge 51, Type (0, 0), BuildingBlock: AJUNOK_clean_linker_0, # of connection points: 2
#     Edge 52, Type (0, 0), BuildingBlock: AJUNOK_clean_linker_0, # of connection points: 2
#     Edge 53, Type (0, 0), BuildingBlock: AJUNOK_clean_linker_0, # of connection points: 2
#     Edge 54, Type (0, 0), BuildingBlock: AJUNOK_clean_linker_0, # of connection points: 2
#     Edge 55, Type (0, 0), BuildingBlock: AJUNOK_clean_linker_0, # of connection points: 2
#     Edge 56, Type (0, 0), BuildingBlock: AJUNOK_clean_linker_0, # of connection points: 2
#     Edge 57, Type (0, 0), BuildingBlock: AJUNOK_clean_linker_0, # of connection points: 2
#     Edge 58, Type (0, 0), BuildingBlock: AJUNOK_clean_linker_0, # of connection points: 2
#     Edge 59, Type (0, 0), BuildingBlock: AJUNOK_clean_linker_0, # of connection points: 2
#     Edge 60, Type (0, 0), BuildingBlock: AJUNOK_clean_linker_0, # of connection points: 2
#     Edge 61, Type (0, 0), BuildingBlock: AJUNOK_clean_linker_0, # of connection points: 2
#     Edge 62, Type (0, 0), BuildingBlock: AJUNOK_clean_linker_0, # of connection points: 2
#     Edge 63, Type (0, 0), BuildingBlock: AJUNOK_clean_linker_0, # of connection points: 2
#     Edge 64, Type (0, 0), BuildingBlock: AJUNOK_clean_linker_0, # of connection points: 2
#     Edge 65, Type (0, 0), BuildingBlock: AJUNOK_clean_linker_0, # of connection points: 2
#     Edge 66, Type (0, 0), BuildingBlock: AJUNOK_clean_linker_0, # of connection points: 2
#     Edge 67, Type (0, 0), BuildingBlock: AJUNOK_clean_linker_0, # of connection points: 2
#     Edge 68, Type (0, 0), BuildingBlock: AJUNOK_clean_linker_0, # of connection points: 2
#     Edge 69, Type (0, 0), BuildingBlock: AJUNOK_clean_linker_0, # of connection points: 2
#     Edge 70, Type (0, 0), BuildingBlock: AJUNOK_clean_linker_0, # of connection points: 2
#     Edge 71, Type (0, 0), BuildingBlock: AJUNOK_clean_linker_0, # of connection points: 2
#     Edge 72, Type (0, 0), BuildingBlock: AJUNOK_clean_linker_0, # of connection points: 2
#     Edge 73, Type (0, 0), BuildingBlock: AJUNOK_clean_linker_0, # of connection points: 2
#     Edge 74, Type (0, 0), BuildingBlock: AJUNOK_clean_linker_0, # of connection points: 2
#     Edge 75, Type (0, 0), BuildingBlock: AJUNOK_clean_linker_0, # of connection points: 2
#     Edge 76, Type (0, 0), BuildingBlock: AJUNOK_clean_linker_0, # of connection points: 2
#     Edge 77, Type (0, 0), BuildingBlock: AJUNOK_clean_linker_0, # of connection points: 2
#     Edge 78, Type (0, 0), BuildingBlock: AJUNOK_clean_linker_0, # of connection points: 2
#     Edge 79, Type (0, 0), BuildingBlock: AJUNOK_clean_linker_0, # of connection points: 2
#     Edge 80, Type (0, 0), BuildingBlock: AJUNOK_clean_linker_0, # of connection points: 2
#     Edge 81, Type (0, 0), BuildingBlock: AJUNOK_clean_linker_0, # of connection points: 2
#     Edge 82, Type (0, 0), BuildingBlock: AJUNOK_clean_linker_0, # of connection points: 2
#     Edge 83, Type (0, 0), BuildingBlock: AJUNOK_clean_linker_0, # of connection points: 2
#     Edge 84, Type (0, 0), BuildingBlock: AJUNOK_clean_linker_0, # of connection points: 2
#     Edge 85, Type (0, 0), BuildingBlock: AJUNOK_clean_linker_0, # of connection points: 2
#     Edge 86, Type (0, 0), BuildingBlock: AJUNOK_clean_linker_0, # of connection points: 2
#     Edge 87, Type (0, 0), BuildingBlock: AJUNOK_clean_linker_0, # of connection points: 2
#     Edge 88, Type (0, 0), BuildingBlock: AJUNOK_clean_linker_0, # of connection points: 2
#     Edge 89, Type (0, 0), BuildingBlock: AJUNOK_clean_linker_0, # of connection points: 2
#     Edge 90, Type (0, 0), BuildingBlock: AJUNOK_clean_linker_0, # of connection points: 2
#     Edge 91, Type (0, 0), BuildingBlock: AJUNOK_clean_linker_0, # of connection points: 2
#     Edge 92, Type (0, 0), BuildingBlock: AJUNOK_clean_linker_0, # of connection points: 2
#     Edge 93, Type (0, 0), BuildingBlock: AJUNOK_clean_linker_0, # of connection points: 2
#     Edge 94, Type (0, 0), BuildingBlock: AJUNOK_clean_linker_0, # of connection points: 2
#     Edge 95, Type (0, 0), BuildingBlock: AJUNOK_clean_linker_0, # of connection points: 2
#     Edge 96, Type (0, 0), BuildingBlock: AJUNOK_clean_linker_0, # of connection points: 2
#     Edge 97, Type (0, 0), BuildingBlock: AJUNOK_clean_linker_0, # of connection points: 2
#     Edge 98, Type (0, 0), BuildingBlock: AJUNOK_clean_linker_0, # of connection points: 2
#     Edge 99, Type (0, 0), BuildingBlock: AJUNOK_clean_linker_0, # of connection points: 2
#     Edge 100, Type (0, 0), BuildingBlock: AJUNOK_clean_linker_0, # of connection points: 2
#     Edge 101, Type (0, 0), BuildingBlock: AJUNOK_clean_linker_0, # of connection points: 2
#     Edge 102, Type (0, 0), BuildingBlock: AJUNOK_clean_linker_0, # of connection points: 2
#     Edge 103, Type (0, 0), BuildingBlock: AJUNOK_clean_linker_0, # of connection points: 2
#     Edge 104, Type (0, 0), BuildingBlock: AJUNOK_clean_linker_0, # of connection points: 2
#     Edge 105, Type (0, 0), BuildingBlock: AJUNOK_clean_linker_0, # of connection points: 2
#     Edge 106, Type (0, 0), BuildingBlock: AJUNOK_clean_linker_0, # of connection points: 2
#     Edge 107, Type (0, 0), BuildingBlock: AJUNOK_clean_linker_0, # of connection points: 2
# Relax obj value: 0.176
# Max RMSD: 0.175
# Mean RMSD: 0.174
data_MOF--net-ums--node1-GALJAG_clean_sbu_0--edge1-AJUNOK_clean_linker_0
_symmetry_space_group_name_H-M    P1
_symmetry_Int_Tables_number       1
_symmetry_cell_setting            triclinic
loop_
_symmetry_equiv_pos_as_xyz
'x, y, z'
_cell_length_a     71.62966
_cell_length_b     71.640785
_cell_length_c     19.259853
_cell_angle_alpha  89.979867
_cell_angle_beta   90.011006
_cell_angle_gamma 120.05142
loop_
_atom_site_label
_atom_site_type_symbol
_atom_site_fract_x
_atom_site_fract_y
_atom_site_fract_z
_atom_type_partial_charge
In0 In 0.16168 0.24732 0.16478 0.0
O1 O 0.16437 0.21715 0.17094 0.0
O2 O 0.19132 0.24671 0.20459 0.0
C3 C 0.13456 0.235 0.0549 0.0
C4 C 0.13867 0.24093 0.28257 0.0
C5 C 0.19095 0.28795 0.12627 0.0
O6 O 0.15023 0.23165 0.05799 0.0
O7 O 0.13185 0.24322 0.10906 0.0
O8 O 0.18348 0.28338 0.18723 0.0
O9 O 0.1844 0.27194 0.08647 0.0
C10 C 0.18301 0.22656 0.19742 0.0
O11 O 0.14413 0.25705 0.2437 0.0
O12 O 0.14439 0.22794 0.2614 0.0
In13 In 0.75123 0.90978 0.17864 0.0
O14 O 0.74395 0.90326 0.29331 0.0
O15 O 0.76732 0.8966 0.24987 0.0
C16 C 0.70934 0.89113 0.14113 0.0
C17 C 0.77306 0.95234 0.20571 0.0
C18 C 0.7633 0.89632 0.06594 0.0
O19 O 0.7163 0.88255 0.18319 0.0
O20 O 0.72337 0.90962 0.12037 0.0
O21 O 0.76582 0.91503 0.07001 0.0
O22 O 0.75588 0.88508 0.12003 0.0
C23 C 0.75725 0.89685 0.30326 0.0
O24 O 0.78243 0.94192 0.19072 0.0
O25 O 0.75273 0.94141 0.20432 0.0
In26 In 0.08604 0.83562 0.18359 0.0
O27 O 0.05302 0.83323 0.19518 0.0
O28 O 0.05528 0.80534 0.21487 0.0
C29 C 0.10215 0.86179 0.0728 0.0
C30 C 0.10179 0.85771 0.30311 0.0
C31 C 0.0997 0.80863 0.14038 0.0
O32 O 0.0821 0.84941 0.08131 0.0
O33 O 0.11375 0.86163 0.12186 0.0
O34 O 0.10595 0.81899 0.1967 0.0
O35 O 0.08623 0.81152 0.10683 0.0
C36 C 0.0435 0.81374 0.214 0.0
O37 O 0.09673 0.83824 0.29595 0.0
O38 O 0.0993 0.86629 0.24939 0.0
In39 In 0.24495 0.16014 0.34889 0.0
O40 O 0.25483 0.14277 0.27055 0.0
O41 O 0.22319 0.1381 0.26293 0.0
C42 C 0.28581 0.18969 0.38254 0.0
C43 C 0.2253 0.18209 0.30996 0.0
C44 C 0.23397 0.13527 0.46367 0.0
O45 O 0.28061 0.18172 0.32234 0.0
O46 O 0.27028 0.18342 0.42434 0.0
O47 O 0.22968 0.15024 0.45669 0.0
O48 O 0.24261 0.13219 0.41126 0.0
C49 C 0.23707 0.13401 0.23854 0.0
O50 O 0.21554 0.1642 0.34114 0.0
O51 O 0.2452 0.18932 0.30086 0.0
In52 In 0.83555 0.08465 0.31995 0.0
O53 O 0.83744 0.09428 0.20647 0.0
O54 O 0.86614 0.09872 0.25401 0.0
C55 C 0.80745 0.09679 0.3636 0.0
C56 C 0.81616 0.04195 0.29376 0.0
C57 C 0.86201 0.10311 0.42873 0.0
O58 O 0.81729 0.10298 0.30633 0.0
O59 O 0.81108 0.0838 0.39698 0.0
O60 O 0.85027 0.08287 0.42315 0.0
O61 O 0.86107 0.1137 0.3778 0.0
C62 C 0.85718 0.10027 0.1997 0.0
O63 O 0.83558 0.0528 0.31283 0.0
O64 O 0.80645 0.05251 0.29049 0.0
In65 In 0.91073 0.7468 0.32307 0.0
O66 O 0.9016 0.73662 0.21097 0.0
O67 O 0.89835 0.76283 0.24733 0.0
C68 C 0.8966 0.70667 0.37086 0.0
C69 C 0.95385 0.76865 0.30295 0.0
C70 C 0.89134 0.75521 0.42828 0.0
O71 O 0.89303 0.7102 0.30941 0.0
O72 O 0.90817 0.72327 0.40655 0.0
O73 O 0.91164 0.76401 0.42411 0.0
O74 O 0.88125 0.7439 0.37637 0.0
C75 C 0.89671 0.75083 0.19691 0.0
O76 O 0.94314 0.77811 0.31081 0.0
O77 O 0.94291 0.74843 0.30794 0.0
In78 In 0.83297 0.74419 0.8228 0.0
O79 O 0.83345 0.77608 0.80915 0.0
O80 O 0.80349 0.74711 0.7984 0.0
C81 C 0.86039 0.75351 0.93021 0.0
C82 C 0.85141 0.74781 0.6974 0.0
C83 C 0.80497 0.70426 0.86934 0.0
O84 O 0.848 0.76123 0.9251 0.0
O85 O 0.85976 0.74219 0.87912 0.0
O86 O 0.81523 0.70759 0.81309 0.0
O87 O 0.80827 0.72108 0.90081 0.0
C88 C 0.81362 0.7674 0.79551 0.0
O89 O 0.83254 0.73313 0.71207 0.0
O90 O 0.86137 0.76045 0.74701 0.0
In91 In 0.24469 0.08547 0.85193 0.0
O92 O 0.25208 0.09387 0.73804 0.0
O93 O 0.22935 0.10066 0.78547 0.0
C94 C 0.28738 0.10728 0.87935 0.0
C95 C 0.22292 0.04323 0.81818 0.0
C96 C 0.23258 0.09251 0.9772 0.0
O97 O 0.27737 0.11659 0.85883 0.0
O98 O 0.27594 0.08704 0.88369 0.0
O99 O 0.24034 0.0803 0.96867 0.0
O100 O 0.22981 0.10027 0.92193 0.0
C101 C 0.23919 0.1009 0.73081 0.0
O102 O 0.21349 0.05322 0.83759 0.0
O103 O 0.2432 0.05435 0.81864 0.0
In104 In 0.91224 0.16045 0.82079 0.0
O105 O 0.94392 0.16036 0.80906 0.0
O106 O 0.94412 0.1898 0.79231 0.0
C107 C 0.89909 0.13591 0.93632 0.0
C108 C 0.89842 0.14267 0.69447 0.0
C109 C 0.89474 0.18453 0.8592 0.0
O110 O 0.91729 0.15285 0.93236 0.0
O111 O 0.88834 0.13078 0.88079 0.0
O112 O 0.88406 0.16638 0.83027 0.0
O113 O 0.91456 0.19098 0.86667 0.0
C114 C 0.95465 0.18001 0.79194 0.0
O115 O 0.90291 0.16163 0.70899 0.0
O116 O 0.90048 0.1324 0.74434 0.0
In117 In 0.74869 0.83443 0.68029 0.0
O118 O 0.74268 0.8357 0.79535 0.0
O119 O 0.7674 0.86423 0.74784 0.0
C120 C 0.70637 0.81159 0.64784 0.0
C121 C 0.77007 0.8132 0.70578 0.0
C122 C 0.75974 0.85967 0.56694 0.0
O123 O 0.71421 0.82762 0.68808 0.0
O124 O 0.71976 0.80636 0.62629 0.0
O125 O 0.76131 0.84289 0.56902 0.0
O126 O 0.75364 0.86403 0.62287 0.0
C127 C 0.75722 0.85516 0.80257 0.0
O128 O 0.77942 0.83245 0.68443 0.0
O129 O 0.74987 0.80449 0.71142 0.0
In130 In 0.16096 0.91297 0.68322 0.0
O131 O 0.16107 0.94471 0.69439 0.0
O132 O 0.19018 0.94465 0.7152 0.0
C133 C 0.13673 0.89957 0.56705 0.0
C134 C 0.14141 0.8987 0.80707 0.0
C135 C 0.18484 0.89508 0.64607 0.0
O136 O 0.15332 0.91803 0.57157 0.0
O137 O 0.13179 0.88869 0.62227 0.0
O138 O 0.16783 0.88534 0.68158 0.0
O139 O 0.19059 0.91445 0.63222 0.0
C140 C 0.18046 0.95526 0.71414 0.0
O141 O 0.16068 0.90353 0.79593 0.0
O142 O 0.13186 0.90085 0.75524 0.0
In143 In 0.08597 0.24682 0.66613 0.0
O144 O 0.05414 0.21514 0.67915 0.0
O145 O 0.05401 0.24444 0.69325 0.0
C146 C 0.09793 0.23601 0.54695 0.0
C147 C 0.09954 0.24031 0.78926 0.0
C148 C 0.10457 0.28931 0.63697 0.0
O149 O 0.08106 0.23728 0.55227 0.0
O150 O 0.10822 0.23895 0.60295 0.0
O151 O 0.11151 0.28223 0.68435 0.0
O152 O 0.0881 0.27514 0.60581 0.0
C153 C 0.04343 0.22413 0.69499 0.0
O154 O 0.09158 0.25241 0.78158 0.0
O155 O 0.10139 0.23189 0.73384 0.0
In156 In 0.82685 0.57802 0.51749 0.0
O157 O 0.82663 0.58726 0.62958 0.0
O158 O 0.79727 0.56181 0.58857 0.0
C159 C 0.85117 0.61984 0.48103 0.0
C160 C 0.84748 0.55666 0.55338 0.0
C161 C 0.80396 0.56604 0.39853 0.0
O162 O 0.83539 0.61334 0.52212 0.0
O163 O 0.85487 0.60538 0.45977 0.0
O164 O 0.82224 0.56766 0.40431 0.0
O165 O 0.79656 0.56922 0.45396 0.0
C166 C 0.80726 0.57309 0.64083 0.0
O167 O 0.82806 0.54691 0.53368 0.0
O168 O 0.85641 0.5769 0.55212 0.0
In169 In 0.41793 0.24752 0.48346 0.0
O170 O 0.44193 0.28349 0.47331 0.0
O171 O 0.42064 0.27287 0.56004 0.0
C172 C 0.42882 0.23524 0.36494 0.0
C173 C 0.43004 0.22962 0.58387 0.0
C174 C 0.37606 0.23517 0.45957 0.0
O175 O 0.43289 0.25433 0.37487 0.0
O176 O 0.42038 0.22284 0.41616 0.0
O177 O 0.3825 0.23148 0.51604 0.0
O178 O 0.39079 0.24559 0.41613 0.0
C179 C 0.43597 0.28843 0.52861 0.0
O180 O 0.41159 0.22003 0.55619 0.0
O181 O 0.44279 0.24801 0.55896 0.0
In182 In 0.75026 0.1679 0.50817 0.0
O183 O 0.75803 0.16938 0.6234 0.0
O184 O 0.76657 0.19886 0.57238 0.0
C185 C 0.76338 0.14 0.47057 0.0
C186 C 0.7073 0.14825 0.53063 0.0
C187 C 0.76735 0.19394 0.39745 0.0
O188 O 0.76827 0.14958 0.52846 0.0
O189 O 0.7514 0.14401 0.43303 0.0
O190 O 0.74721 0.18262 0.40653 0.0
O191 O 0.77861 0.19277 0.44582 0.0
C192 C 0.76618 0.18955 0.62837 0.0
O193 O 0.71727 0.13805 0.52337 0.0
O194 O 0.71892 0.16843 0.52477 0.0
In195 In 0.9111 0.49063 0.69347 0.0
O196 O 0.87996 0.49198 0.67801 0.0
O197 O 0.91013 0.52064 0.66555 0.0
C198 C 0.89969 0.47324 0.82157 0.0
C199 C 0.90409 0.46918 0.57248 0.0
C200 C 0.9542 0.51228 0.71396 0.0
O201 O 0.90783 0.49312 0.81007 0.0
O202 O 0.89597 0.46187 0.76775 0.0
O203 O 0.94385 0.4922 0.70306 0.0
O204 O 0.94288 0.52117 0.71264 0.0
C205 C 0.88992 0.5118 0.66263 0.0
O206 O 0.89705 0.45945 0.62947 0.0
O207 O 0.91522 0.4894 0.5773 0.0
In208 In 0.4981 0.41887 0.65994 0.0
O209 O 0.50261 0.43305 0.55254 0.0
O210 O 0.52816 0.42908 0.59178 0.0
C211 C 0.46782 0.42808 0.70403 0.0
C212 C 0.47714 0.37662 0.62634 0.0
C213 C 0.52606 0.43751 0.7656 0.0
O214 O 0.47931 0.43662 0.65109 0.0
O215 O 0.47108 0.41433 0.73393 0.0
O216 O 0.51745 0.41763 0.75215 0.0
O217 O 0.52149 0.44808 0.72317 0.0
C218 C 0.52065 0.43457 0.54141 0.0
O219 O 0.48836 0.38355 0.68077 0.0
O220 O 0.47627 0.3908 0.59041 0.0
In221 In 0.57689 0.08959 0.6628 0.0
O222 O 0.55135 0.07829 0.57795 0.0
O223 O 0.57633 0.11106 0.57567 0.0
C224 C 0.55975 0.04758 0.69667 0.0
C225 C 0.61815 0.10728 0.62205 0.0
C226 C 0.56888 0.10347 0.78346 0.0
O227 O 0.54857 0.05645 0.68744 0.0
O228 O 0.5797 0.05974 0.68658 0.0
O229 O 0.58317 0.09822 0.77806 0.0
O230 O 0.55987 0.10326 0.72704 0.0
C231 C 0.55942 0.09632 0.54806 0.0
O232 O 0.61171 0.11704 0.66144 0.0
O233 O 0.60378 0.08852 0.60437 0.0
In234 In 0.50285 0.08791 0.16203 0.0
O235 O 0.50181 0.11903 0.14515 0.0
O236 O 0.47404 0.08919 0.12014 0.0
C237 C 0.52385 0.10029 0.28381 0.0
C238 C 0.5264 0.09492 0.04618 0.0
C239 C 0.47829 0.0458 0.19657 0.0
O240 O 0.50601 0.09934 0.2736 0.0
O241 O 0.53181 0.09632 0.23125 0.0
O242 O 0.49302 0.0522 0.15154 0.0
O243 O 0.47555 0.06043 0.22194 0.0
C244 C 0.48291 0.10944 0.12072 0.0
O245 O 0.50613 0.08318 0.04749 0.0
O246 O 0.53505 0.1027 0.10417 0.0
In247 In 0.90941 0.4157 0.19209 0.0
O248 O 0.91985 0.44445 0.11976 0.0
O249 O 0.8892 0.41675 0.10211 0.0
C250 C 0.9507 0.42778 0.22398 0.0
C251 C 0.88902 0.37414 0.15119 0.0
C252 C 0.89734 0.4284 0.30742 0.0
O253 O 0.9451 0.43029 0.16409 0.0
O254 O 0.93535 0.41843 0.26641 0.0
O255 O 0.89601 0.4102 0.30291 0.0
O256 O 0.90356 0.43946 0.25263 0.0
C257 C 0.90291 0.43559 0.08345 0.0
O258 O 0.87947 0.38245 0.18249 0.0
O259 O 0.90901 0.3866 0.14292 0.0
In260 In 0.5761 0.4928 0.16043 0.0
O261 O 0.6077 0.49263 0.14979 0.0
O262 O 0.60846 0.52246 0.13667 0.0
C263 C 0.56155 0.46779 0.27518 0.0
C264 C 0.56312 0.47512 0.03322 0.0
C265 C 0.55832 0.51694 0.19551 0.0
O266 O 0.57996 0.48449 0.27274 0.0
O267 O 0.55137 0.46309 0.21858 0.0
O268 O 0.54847 0.49985 0.16038 0.0
O269 O 0.57749 0.52231 0.21087 0.0
C270 C 0.6188 0.51247 0.13573 0.0
O271 O 0.56741 0.49404 0.04759 0.0
O272 O 0.5652 0.46497 0.08348 0.0
In273 In 0.42137 0.17675 0.97465 0.0
O274 O 0.43368 0.20753 0.03979 0.0
O275 O 0.41554 0.1773 0.09015 0.0
C276 C 0.37823 0.15516 0.95453 0.0
C277 C 0.4428 0.15576 0.00493 0.0
C278 C 0.43471 0.19444 0.84742 0.0
O279 O 0.38898 0.14606 0.9676 0.0
O280 O 0.3892 0.17549 0.95294 0.0
O281 O 0.42503 0.17441 0.85812 0.0
O282 O 0.43862 0.2057 0.90158 0.0
C283 C 0.42586 0.19753 0.0959 0.0
O284 O 0.45224 0.17609 0.00243 0.0
O285 O 0.42312 0.14643 0.98926 0.0
In286 In 0.82668 0.24483 0.00815 0.0
O287 O 0.82688 0.27659 0.02077 0.0
O288 O 0.85606 0.27647 0.03952 0.0
C289 C 0.80271 0.23161 0.89124 0.0
C290 C 0.80712 0.23043 0.13195 0.0
C291 C 0.85121 0.22761 0.97247 0.0
O292 O 0.81952 0.2499 0.89585 0.0
O293 O 0.79747 0.2208 0.94662 0.0
O294 O 0.83314 0.21694 0.00193 0.0
O295 O 0.85736 0.2473 0.96314 0.0
C296 C 0.84636 0.28709 0.03969 0.0
O297 O 0.82603 0.23426 0.11979 0.0
O298 O 0.79793 0.23361 0.08116 0.0
In299 In 0.75087 0.57708 0.01818 0.0
O300 O 0.71764 0.54703 0.02023 0.0
O301 O 0.72073 0.57618 0.05989 0.0
C302 C 0.76724 0.56649 0.90849 0.0
C303 C 0.76762 0.57039 0.13498 0.0
C304 C 0.76118 0.61731 0.97898 0.0
O305 O 0.74763 0.56127 0.91203 0.0
O306 O 0.77799 0.57557 0.96227 0.0
O307 O 0.76414 0.61301 0.04022 0.0
O308 O 0.75224 0.60123 0.93919 0.0
C309 C 0.70855 0.55626 0.0488 0.0
O310 O 0.77753 0.58741 0.09944 0.0
O311 O 0.74951 0.55663 0.11113 0.0
In312 In 0.49633 0.91763 0.83455 0.0
O313 O 0.49781 0.88661 0.84392 0.0
O314 O 0.52665 0.91657 0.85908 0.0
C315 C 0.47088 0.90665 0.72131 0.0
C316 C 0.47823 0.91113 0.96118 0.0
C317 C 0.51965 0.9597 0.80016 0.0
O318 O 0.48751 0.90482 0.72339 0.0
O319 O 0.46654 0.91262 0.77755 0.0
O320 O 0.50288 0.9521 0.83712 0.0
O321 O 0.52513 0.94618 0.7824 0.0
C322 C 0.51762 0.89628 0.85919 0.0
O323 O 0.49725 0.9259 0.94856 0.0
O324 O 0.46806 0.89983 0.9093 0.0
In325 In 0.08736 0.5796 0.8213 0.0
O326 O 0.11901 0.61139 0.83818 0.0
O327 O 0.08951 0.6114 0.84774 0.0
C328 C 0.09956 0.5725 0.69624 0.0
C329 C 0.0913 0.56432 0.94505 0.0
C330 C 0.04472 0.55836 0.79329 0.0
O331 O 0.09185 0.58475 0.70474 0.0
O332 O 0.10239 0.56481 0.7516 0.0
O333 O 0.05473 0.54864 0.80925 0.0
O334 O 0.05613 0.57864 0.79363 0.0
C335 C 0.10977 0.62202 0.85207 0.0
O336 O 0.07953 0.57254 0.93548 0.0
O337 O 0.10076 0.56315 0.89129 0.0
In338 In 0.41732 0.50428 0.8383 0.0
O339 O 0.44352 0.52124 0.91933 0.0
O340 O 0.41945 0.53027 0.91301 0.0
C341 C 0.42406 0.47135 0.80763 0.0
C342 C 0.37548 0.48263 0.875 0.0
C343 C 0.43585 0.52873 0.72438 0.0
O344 O 0.42954 0.48109 0.86511 0.0
O345 O 0.41433 0.47755 0.76766 0.0
O346 O 0.41601 0.52099 0.73732 0.0
O347 O 0.4461 0.52529 0.77092 0.0
C348 C 0.43626 0.53278 0.94276 0.0
O349 O 0.38183 0.49328 0.81915 0.0
O350 O 0.39018 0.48293 0.91188 0.0
In351 In 0.58044 0.82878 0.99433 0.0
O352 O 0.5501 0.8315 0.9802 0.0
O353 O 0.58061 0.85905 0.96025 0.0
C354 C 0.56835 0.81126 0.12112 0.0
C355 C 0.57473 0.80723 0.87448 0.0
C356 C 0.62261 0.84806 0.027 0.0
O357 O 0.57693 0.83125 0.11028 0.0
O358 O 0.56408 0.79983 0.06718 0.0
O359 O 0.61113 0.82794 0.01873 0.0
O360 O 0.61312 0.85854 0.01477 0.0
C361 C 0.56044 0.85089 0.96026 0.0
O362 O 0.58869 0.82683 0.88217 0.0
O363 O 0.56406 0.79805 0.92837 0.0
In364 In 0.17047 0.75307 0.98018 0.0
O365 O 0.17234 0.76281 0.86695 0.0
O366 O 0.20143 0.76885 0.91587 0.0
C367 C 0.1423 0.76498 0.0251 0.0
C368 C 0.15178 0.71067 0.94983 0.0
C369 C 0.19617 0.77009 0.09135 0.0
O370 O 0.15239 0.77169 0.96846 0.0
O371 O 0.14558 0.75149 0.0568 0.0
O372 O 0.18463 0.74995 0.08269 0.0
O373 O 0.19551 0.78138 0.0421 0.0
C374 C 0.19232 0.76986 0.86112 0.0
O375 O 0.17123 0.72167 0.96852 0.0
O376 O 0.1417 0.7209 0.9492 0.0
In377 In 0.24466 0.41799 0.00298 0.0
O378 O 0.21838 0.4107 0.92293 0.0
O379 O 0.24677 0.44154 0.91878 0.0
C380 C 0.23389 0.37692 0.03451 0.0
C381 C 0.28644 0.43695 0.9664 0.0
C382 C 0.22895 0.42853 0.11486 0.0
O383 O 0.22985 0.38217 0.97633 0.0
O384 O 0.2439 0.39245 0.07572 0.0
O385 O 0.24869 0.43445 0.10868 0.0
O386 O 0.21763 0.41856 0.06293 0.0
C387 C 0.22875 0.4286 0.89214 0.0
O388 O 0.28012 0.4435 0.01721 0.0
O389 O 0.27186 0.42054 0.93578 0.0
In390 In 0.17127 0.42013 0.50812 0.0
O391 O 0.16872 0.45003 0.48395 0.0
O392 O 0.13993 0.41962 0.48449 0.0
C393 C 0.19517 0.43413 0.625 0.0
C394 C 0.19056 0.4249 0.38394 0.0
C395 C 0.14884 0.37834 0.54704 0.0
O396 O 0.17759 0.43393 0.61736 0.0
O397 O 0.20158 0.42867 0.57173 0.0
O398 O 0.16083 0.38444 0.49419 0.0
O399 O 0.14773 0.39307 0.57888 0.0
C400 C 0.14858 0.43963 0.47442 0.0
O401 O 0.17084 0.41179 0.39484 0.0
O402 O 0.20105 0.43534 0.43695 0.0
In403 In 0.57815 0.75403 0.49361 0.0
O404 O 0.59173 0.77554 0.39884 0.0
O405 O 0.55777 0.75953 0.41363 0.0
C406 C 0.61947 0.77159 0.53573 0.0
C407 C 0.55841 0.71235 0.455 0.0
C408 C 0.56539 0.76481 0.61076 0.0
O409 O 0.61088 0.78255 0.51884 0.0
O410 O 0.60751 0.75146 0.52818 0.0
O411 O 0.56891 0.74923 0.60871 0.0
O412 O 0.56636 0.77338 0.55278 0.0
C413 C 0.57375 0.77238 0.37736 0.0
O414 O 0.54923 0.7199 0.49223 0.0
O415 O 0.57763 0.72577 0.43866 0.0
In416 In 0.24614 0.82963 0.48106 0.0
O417 O 0.23502 0.8287 0.36997 0.0
O418 O 0.2351 0.80092 0.40821 0.0
C419 C 0.22759 0.85253 0.52187 0.0
C420 C 0.28838 0.84954 0.44926 0.0
C421 C 0.23408 0.80581 0.59789 0.0
O422 O 0.21726 0.83421 0.49384 0.0
O423 O 0.2477 0.86006 0.52574 0.0
O424 O 0.25166 0.82344 0.59369 0.0
O425 O 0.22354 0.79969 0.54201 0.0
C426 C 0.23151 0.8099 0.35773 0.0
O427 O 0.27841 0.83067 0.47391 0.0
O428 O 0.2772 0.85858 0.44354 0.0
In429 In 0.08292 0.50281 0.32628 0.0
O430 O 0.07466 0.52148 0.4045 0.0
O431 O 0.10563 0.52444 0.41137 0.0
C432 C 0.04125 0.47351 0.2996 0.0
C433 C 0.10238 0.4804 0.36278 0.0
C434 C 0.09347 0.52777 0.2116 0.0
O435 O 0.04762 0.48213 0.3585 0.0
O436 O 0.05599 0.47924 0.25495 0.0
O437 O 0.0965 0.5119 0.21585 0.0
O438 O 0.0862 0.53149 0.26616 0.0
C439 C 0.0925 0.52955 0.43592 0.0
O440 O 0.11195 0.49781 0.32888 0.0
O441 O 0.08284 0.47399 0.3759 0.0
In442 In 0.49177 0.58093 0.32907 0.0
O443 O 0.49258 0.61242 0.35707 0.0
O444 O 0.52232 0.61308 0.34495 0.0
C445 C 0.47248 0.57476 0.20383 0.0
C446 C 0.47325 0.56373 0.45316 0.0
C447 C 0.51348 0.56047 0.29598 0.0
O448 O 0.49201 0.58848 0.21436 0.0
O449 O 0.4621 0.56511 0.25778 0.0
O450 O 0.52279 0.57994 0.31497 0.0
O451 O 0.49313 0.55111 0.2958 0.0
C452 C 0.5129 0.62343 0.35943 0.0
O453 O 0.49181 0.56764 0.43582 0.0
O454 O 0.46355 0.56815 0.40697 0.0
In455 In 0.42037 0.91609 0.33265 0.0
O456 O 0.38888 0.8843 0.34892 0.0
O457 O 0.38734 0.91304 0.34475 0.0
C458 C 0.43818 0.90619 0.22651 0.0
C459 C 0.43486 0.91113 0.45654 0.0
C460 C 0.43488 0.95723 0.29286 0.0
O461 O 0.41807 0.89885 0.2307 0.0
O462 O 0.44891 0.91748 0.27766 0.0
O463 O 0.43761 0.95236 0.35351 0.0
O464 O 0.42438 0.9414 0.25303 0.0
C465 C 0.37734 0.89294 0.35397 0.0
O466 O 0.42735 0.92353 0.44731 0.0
O467 O 0.43564 0.90155 0.4026 0.0
C468 C 0.226 0.21511 0.26483 0.0
C469 C 0.21413 0.1931 0.2822 0.0
C470 C 0.21584 0.22579 0.23682 0.0
C471 C 0.19352 0.21473 0.22382 0.0
H472 H 0.24326 0.22422 0.27348 0.0
H473 H 0.22555 0.24283 0.22506 0.0
S474 S 0.15523 0.15686 0.25891 0.0
N475 N 0.17888 0.16056 0.28404 0.0
N476 N 0.15984 0.18052 0.23029 0.0
C477 C 0.1815 0.19266 0.24022 0.0
C478 C 0.19178 0.18188 0.26979 0.0
C479 C 0.78356 0.00775 0.25768 0.0
C480 C 0.80573 0.01901 0.27306 0.0
C481 C 0.77325 0.9863 0.23533 0.0
C482 C 0.78472 0.97527 0.22691 0.0
H483 H 0.77401 0.01556 0.26287 0.0
H484 H 0.75611 0.97832 0.2245 0.0
S485 S 0.84312 0.99741 0.26034 0.0
N486 N 0.8389 0.01752 0.27854 0.0
N487 N 0.81952 0.97716 0.23608 0.0
C488 C 0.80694 0.98631 0.24196 0.0
C489 C 0.81743 0.00817 0.26525 0.0
C490 C 0.98734 0.80194 0.26434 0.0
C491 C 0.97696 0.78007 0.28371 0.0
C492 C 0.00879 0.81267 0.24117 0.0
C493 C 0.02068 0.80194 0.23676 0.0
H494 H 0.97874 0.8108 0.26605 0.0
H495 H 0.01608 0.8295 0.22668 0.0
S496 S 0.00116 0.74477 0.28345 0.0
N497 N 0.98037 0.74817 0.29837 0.0
N498 N 0.02059 0.76827 0.25505 0.0
C499 C 0.01057 0.78013 0.25676 0.0
C500 C 0.98875 0.76922 0.28021 0.0
C501 C 0.78056 0.76904 0.76668 0.0
C502 C 0.80312 0.77974 0.77393 0.0
C503 C 0.7701 0.77997 0.74383 0.0
C504 C 0.78179 0.80201 0.72675 0.0
H505 H 0.77083 0.75203 0.7788 0.0
H506 H 0.75268 0.77103 0.73958 0.0
S507 S 0.84123 0.83747 0.73619 0.0
N508 N 0.8369 0.81365 0.76202 0.0
N509 N 0.81722 0.83421 0.71859 0.0
C510 C 0.80439 0.81293 0.73342 0.0
C511 C 0.81505 0.8018 0.75724 0.0
C512 C 0.22308 0.01007 0.78006 0.0
C513 C 0.21141 0.02069 0.79298 0.0
C514 C 0.21295 0.98905 0.75372 0.0
C515 C 0.19076 0.97785 0.73863 0.0
H516 H 0.24024 0.01803 0.79047 0.0
H517 H 0.22265 0.98153 0.74524 0.0
S518 S 0.15288 0.99851 0.76231 0.0
N519 N 0.17642 0.0185 0.78833 0.0
N520 N 0.15736 0.97897 0.73833 0.0
C521 C 0.17887 0.9883 0.75086 0.0
C522 C 0.18919 0.00971 0.77827 0.0
C523 C 0.00961 0.22342 0.72993 0.0
C524 C 0.02069 0.21214 0.71812 0.0
C525 C 0.9884 0.21289 0.75464 0.0
C526 C 0.97741 0.19065 0.76899 0.0
H527 H 0.01736 0.2406 0.72008 0.0
H528 H 0.98057 0.22232 0.76242 0.0
S529 S -0.00077 0.15367 0.74748 0.0
N530 N 0.01914 0.17745 0.72294 0.0
N531 N 0.97921 0.15762 0.7697 0.0
C532 C 0.98829 0.17913 0.75772 0.0
C533 C 0.00992 0.18987 0.7321 0.0
C534 C 0.84701 0.52302 0.59192 0.0
C535 C 0.85859 0.54543 0.58025 0.0
C536 C 0.85709 0.51227 0.62028 0.0
C537 C 0.87913 0.52354 0.63765 0.0
H538 H 0.83 0.51371 0.57947 0.0
H539 H 0.84761 0.49498 0.62772 0.0
S540 S 0.91662 0.58242 0.61791 0.0
N541 N 0.89328 0.57853 0.58877 0.0
N542 N 0.91216 0.55842 0.64189 0.0
C543 C 0.89085 0.54597 0.62653 0.0
C544 C 0.88061 0.55688 0.59783 0.0
C545 C 0.4542 0.32798 0.50828 0.0
C546 C 0.44636 0.31066 0.5551 0.0
C547 C 0.4639 0.34926 0.53218 0.0
C548 C 0.46667 0.35396 0.60363 0.0
H549 H 0.45251 0.32505 0.45282 0.0
H550 H 0.46956 0.36216 0.4943 0.0
S551 S 0.4497 0.3143 0.74721 0.0
N552 N 0.44216 0.29946 0.67599 0.0
N553 N 0.46118 0.33963 0.72091 0.0
C554 C 0.45927 0.33681 0.65098 0.0
C555 C 0.44888 0.31509 0.62667 0.0
C556 C 0.67585 0.14965 0.58028 0.0
C557 C 0.68425 0.13756 0.54991 0.0
C558 C 0.65449 0.13968 0.60386 0.0
C559 C 0.64065 0.1173 0.59705 0.0
H560 H 0.68597 0.1669 0.58733 0.0
H561 H 0.64879 0.14963 0.62746 0.0
S562 S 0.65458 0.07851 0.51861 0.0
N563 N 0.67699 0.10208 0.51284 0.0
N564 N 0.63674 0.08339 0.55616 0.0
C565 C 0.64873 0.10508 0.56551 0.0
C566 C 0.67056 0.11519 0.54222 0.0
C567 C 0.4836 0.14364 0.08831 0.0
C568 C 0.47243 0.12096 0.09105 0.0
C569 C 0.47416 0.15482 0.0586 0.0
C570 C 0.45322 0.14372 0.03059 0.0
H571 H 0.49975 0.15286 0.1093 0.0
H572 H 0.48323 0.17228 0.05858 0.0
S573 S 0.41735 0.08427 0.0231 0.0
N574 N 0.43941 0.08778 0.06194 0.0
N575 N 0.42177 0.10872 0.0061 0.0
C576 C 0.44199 0.12103 0.03221 0.0
C577 C 0.45156 0.10967 0.0625 0.0
C578 C 0.87929 0.32138 0.07369 0.0
C579 C 0.85676 0.30957 0.06516 0.0
C580 C 0.88954 0.34223 0.10161 0.0
C581 C 0.87764 0.35195 0.12307 0.0
H582 H 0.88912 0.31446 0.05885 0.0
H583 H 0.90693 0.35071 0.10698 0.0
S584 S 0.81824 0.32794 0.11137 0.0
N585 N 0.82285 0.30921 0.07964 0.0
N586 N 0.8421 0.34831 0.13296 0.0
C587 C 0.8551 0.34035 0.1147 0.0
C588 C 0.84467 0.3192 0.08541 0.0
C589 C 0.65395 0.54573 0.11147 0.0
C590 C 0.64182 0.5231 0.11578 0.0
C591 C 0.67551 0.55628 0.08972 0.0
C592 C 0.68567 0.5446 0.07054 0.0
H593 H 0.64676 0.55542 0.12495 0.0
H594 H 0.6842 0.57374 0.08742 0.0
S595 S 0.66107 0.48505 0.07311 0.0
N596 N 0.64163 0.48932 0.09978 0.0
N597 N 0.68208 0.50914 0.05815 0.0
C598 C 0.67376 0.52196 0.0747 0.0
C599 C 0.65186 0.51121 0.09761 0.0
C600 C 0.51715 0.86277 0.89837 0.0
C601 C 0.52897 0.88483 0.88154 0.0
C602 C 0.52739 0.85197 0.92478 0.0
C603 C 0.54986 0.8628 0.93486 0.0
H604 H 0.49978 0.85383 0.89224 0.0
H605 H 0.51763 0.83498 0.93707 0.0
S606 S 0.58825 0.92051 0.89696 0.0
N607 N 0.56442 0.91706 0.87559 0.0
N608 N 0.58368 0.8968 0.92482 0.0
C609 C 0.5619 0.88482 0.91746 0.0
C610 C 0.55146 0.89582 0.89087 0.0
C611 C 0.10965 0.65558 0.88481 0.0
C612 C 0.1213 0.64475 0.87545 0.0
C613 C 0.11965 0.67675 0.90963 0.0
C614 C 0.14171 0.68798 0.92651 0.0
H615 H 0.09258 0.64764 0.87295 0.0
H616 H 0.10994 0.68436 0.91551 0.0
S617 S 0.17953 0.66693 0.91184 0.0
N618 N 0.15615 0.64682 0.88518 0.0
N619 N 0.175 0.68671 0.93214 0.0
C620 C 0.15361 0.67738 0.91762 0.0
C621 C 0.14341 0.65576 0.89192 0.0
C622 C 0.32596 0.458 0.99013 0.0
C623 C 0.30897 0.44829 0.94211 0.0
C624 C 0.34748 0.46886 0.96784 0.0
C625 C 0.35268 0.47096 0.89674 0.0
H626 H 0.3226 0.45694 0.04528 0.0
H627 H 0.36014 0.47595 0.00652 0.0
S628 S 0.31398 0.44905 0.75033 0.0
N629 N 0.29865 0.44153 0.82047 0.0
N630 N 0.33912 0.46269 0.77849 0.0
C631 C 0.33582 0.46164 0.84821 0.0
C632 C 0.31394 0.45008 0.87096 0.0
C633 C 0.13634 0.48023 0.3908 0.0
C634 C 0.11366 0.46938 0.38997 0.0
C635 C 0.14749 0.47067 0.4197 0.0
C636 C 0.13637 0.4498 0.44818 0.0
H637 H 0.14561 0.49638 0.36972 0.0
H638 H 0.16495 0.47963 0.41885 0.0
S639 S 0.07693 0.41445 0.4585 0.0
N640 N 0.08044 0.43661 0.42028 0.0
N641 N 0.10138 0.41854 0.47381 0.0
C642 C 0.11369 0.43872 0.44748 0.0
C643 C 0.10233 0.44853 0.41858 0.0
C644 C 0.51367 0.65566 0.41245 0.0
C645 C 0.52477 0.6463 0.38122 0.0
C646 C 0.52471 0.67695 0.43686 0.0
C647 C 0.54725 0.68975 0.4303 0.0
H648 H 0.49633 0.64638 0.41902 0.0
H649 H 0.51547 0.68344 0.46067 0.0
S650 S 0.58386 0.67299 0.35144 0.0
N651 N 0.5596 0.65154 0.34457 0.0
N652 N 0.58029 0.69157 0.3898 0.0
C653 C 0.55853 0.68066 0.3986 0.0
C654 C 0.54732 0.65894 0.37423 0.0
C655 C 0.34256 0.89178 0.37766 0.0
C656 C 0.3544 0.88098 0.37515 0.0
C657 C 0.32131 0.88149 0.40209 0.0
C658 C 0.31105 0.86 0.42541 0.0
H659 H 0.3498 0.90843 0.36114 0.0
H660 H 0.3129 0.89054 0.40294 0.0
S661 S 0.33485 0.82436 0.42868 0.0
N662 N 0.35421 0.84744 0.39726 0.0
N663 N 0.31424 0.82808 0.44346 0.0
C664 C 0.32262 0.84891 0.42278 0.0
C665 C 0.34428 0.85938 0.39749 0.0
C666 C 0.12104 0.22905 0.86284 0.0
C667 C 0.10641 0.23667 0.85798 0.0
C668 C 0.12921 0.22739 0.92737 0.0
C669 C 0.12287 0.23308 0.98937 0.0
H670 H 0.12688 0.22514 0.81632 0.0
H671 H 0.1412 0.2224 0.92827 0.0
S672 S 0.0826 0.25104 0.00528 0.0
N673 N 0.0843 0.24793 0.92106 0.0
N674 N 0.09943 0.24461 0.04209 0.0
C675 C 0.10724 0.23945 0.98542 0.0
C676 C 0.09909 0.24132 0.91978 0.0
C677 C 0.75559 0.86429 0.99498 0.0
C678 C 0.76519 0.88684 8e-05 0.0
C679 C 0.7536 0.85428 0.93099 0.0
C680 C 0.76143 0.86643 0.86979 0.0
H681 H 0.74863 0.85414 0.04024 0.0
H682 H 0.74545 0.83683 0.92936 0.0
S683 S 0.78989 0.92609 0.85592 0.0
N684 N 0.78397 0.92117 0.93921 0.0
N685 N 0.78058 0.9023 0.81869 0.0
C686 C 0.77217 0.88906 0.87454 0.0
C687 C 0.77396 0.89928 0.93978 0.0
C688 C 0.13411 0.88317 0.99713 0.0
C689 C 0.11169 0.87334 0.00696 0.0
C690 C 0.14354 0.89166 0.93266 0.0
C691 C 0.13095 0.89084 0.87546 0.0
H692 H 0.14449 0.8837 0.03892 0.0
H693 H 0.16082 0.89859 0.92745 0.0
S694 S 0.07167 0.86842 0.87511 0.0
N695 N 0.07722 0.86437 0.95504 0.0
N696 N 0.095 0.88058 0.83376 0.0
C697 C 0.10861 0.88191 0.88518 0.0
C698 C 0.09896 0.8731 0.95094 0.0
C699 C 0.24421 0.10428 0.6027 0.0
C700 C 0.23592 0.10852 0.66301 0.0
C701 C 0.24241 0.11204 0.53794 0.0
C702 C 0.23243 0.12458 0.53087 0.0
H703 H 0.25247 0.0951 0.6055 0.0
H704 H 0.24961 0.1088 0.49348 0.0
S705 S 0.20676 0.13909 0.67205 0.0
N706 N 0.21621 0.12501 0.71117 0.0
N707 N 0.21307 0.13992 0.5892 0.0
C708 C 0.22337 0.12834 0.59033 0.0
C709 C 0.22506 0.12024 0.65645 0.0
C710 C 0.87257 0.10113 0.55113 0.0
C711 C 0.8737 0.1137 0.4934 0.0
C712 C 0.88111 0.11067 0.61562 0.0
C713 C 0.89093 0.13311 0.62486 0.0
H714 H 0.86448 0.08372 0.54712 0.0
H715 H 0.87943 0.10031 0.659 0.0
S716 S 0.89982 0.17343 0.48872 0.0
N717 N 0.88686 0.14997 0.44857 0.0
N718 N 0.9027 0.16781 0.56976 0.0
C719 C 0.89292 0.14594 0.56697 0.0
C720 C 0.88439 0.13626 0.50122 0.0
C721 C 0.88245 0.76627 0.61461 0.0
C722 C 0.86093 0.75022 0.62729 0.0
C723 C 0.89195 0.76842 0.54916 0.0
C724 C 0.88023 0.75478 0.4937 0.0
H725 H 0.89219 0.77702 0.65586 0.0
H726 H 0.90875 0.78059 0.54243 0.0
S727 S 0.82313 0.7105 0.49925 0.0
N728 N 0.82803 0.72072 0.57833 0.0
N729 N 0.84575 0.72489 0.4556 0.0
C730 C 0.85851 0.73904 0.50522 0.0
C731 C 0.84891 0.73672 0.57192 0.0
C732 C 0.87038 0.76587 0.05313 0.0
C733 C 0.87224 0.75499 0.995 0.0
C734 C 0.87886 0.76494 0.11789 0.0
C735 C 0.88933 0.75295 0.12706 0.0
H736 H 0.86174 0.77464 0.04923 0.0
H737 H 0.87658 0.77314 0.16152 0.0
S738 S 0.90037 0.72333 0.98999 0.0
N739 N 0.88687 0.73322 0.94981 0.0
N740 N 0.90259 0.73135 0.0714 0.0
C741 C 0.89209 0.74275 0.06877 0.0
C742 C 0.88363 0.74382 0.00277 0.0
C743 C 0.24384 0.10022 0.10091 0.0
C744 C 0.23066 0.10014 0.04659 0.0
C745 C 0.24539 0.11076 0.16369 0.0
C746 C 0.23341 0.12112 0.17501 0.0
H747 H 0.25393 0.09308 0.09368 0.0
H748 H 0.25639 0.11117 0.20309 0.0
S749 S 0.19502 0.12383 0.05174 0.0
N750 N 0.2045 0.11026 0.00954 0.0
N751 N 0.20686 0.12949 0.12856 0.0
C752 C 0.21924 0.12011 0.12266 0.0
C753 C 0.21801 0.10977 0.05813 0.0
C754 C 0.85672 0.10365 0.07119 0.0
C755 C 0.86866 0.10826 0.13296 0.0
C756 C 0.86691 0.11171 0.00734 0.0
C757 C 0.88944 0.12501 0.00284 0.0
H758 H 0.83928 0.09391 0.07213 0.0
H759 H 0.8569 0.10815 0.96154 0.0
S760 S 0.92822 0.14093 0.14895 0.0
N761 N 0.90436 0.126 0.18543 0.0
N762 N 0.92353 0.1416 0.06527 0.0
C763 C 0.90168 0.12925 0.06391 0.0
C764 C 0.89128 0.12076 0.12901 0.0
C765 C 0.76759 0.8747 0.37634 0.0
C766 C 0.76013 0.88945 0.37171 0.0
C767 C 0.76834 0.86579 0.44036 0.0
C768 C 0.76197 0.8716 0.50196 0.0
H769 H 0.77204 0.86932 0.3299 0.0
H770 H 0.77332 0.85379 0.4412 0.0
S771 S 0.74386 0.91178 0.51822 0.0
N772 N 0.74806 0.91093 0.43432 0.0
N773 N 0.7498 0.89456 0.55479 0.0
C774 C 0.7557 0.88733 0.49834 0.0
C775 C 0.75467 0.89615 0.43311 0.0
C776 C 0.10551 0.85716 0.43134 0.0
C777 C 0.10963 0.86919 0.3699 0.0
C778 C 0.11339 0.86731 0.49531 0.0
C779 C 0.12605 0.88989 0.50031 0.0
H780 H 0.09626 0.8397 0.43003 0.0
H781 H 0.1102 0.85724 0.54079 0.0
S782 S 0.14057 0.92883 0.35524 0.0
N783 N 0.12623 0.90495 0.31826 0.0
N784 N 0.14156 0.92408 0.4387 0.0
C785 C 0.12983 0.90218 0.43958 0.0
C786 C 0.12148 0.89182 0.37433 0.0
C787 C 0.10284 0.24432 0.42061 0.0
C788 C 0.10671 0.23485 0.4788 0.0
C789 C 0.11314 0.2461 0.35707 0.0
C790 C 0.12719 0.23792 0.34895 0.0
H791 H 0.09246 0.25124 0.42491 0.0
H792 H 0.11017 0.25404 0.31413 0.0
S793 S 0.14181 0.21058 0.48422 0.0
N794 N 0.12516 0.21675 0.5239 0.0
N795 N 0.14388 0.21927 0.40358 0.0
C796 C 0.13057 0.22767 0.40595 0.0
C797 C 0.12051 0.22636 0.47117 0.0
C798 C 0.80729 0.57467 0.27257 0.0
C799 C 0.79396 0.56448 0.33023 0.0
C800 C 0.7986 0.57631 0.20921 0.0
C801 C 0.77624 0.56724 0.20073 0.0
H802 H 0.82467 0.58232 0.27728 0.0
H803 H 0.80948 0.58489 0.16674 0.0
S804 S 0.73432 0.53772 0.33442 0.0
N805 N 0.75731 0.54471 0.37442 0.0
N806 N 0.74084 0.54692 0.25421 0.0
C807 C 0.76266 0.55621 0.25704 0.0
C808 C 0.77156 0.55507 0.32217 0.0
C809 C 0.42362 0.196 0.22484 0.0
C810 C 0.42858 0.2083 0.16368 0.0
C811 C 0.42483 0.2052 0.28987 0.0
C812 C 0.43091 0.22707 0.29649 0.0
H813 H 0.41846 0.17898 0.22255 0.0
H814 H 0.42032 0.19485 0.33514 0.0
S815 S 0.44653 0.2666 0.15247 0.0
N816 N 0.44074 0.24375 0.11379 0.0
N817 N 0.44283 0.26108 0.23629 0.0
C818 C 0.43663 0.23979 0.23595 0.0
C819 C 0.4355 0.23039 0.16948 0.0
C820 C 0.80891 0.22198 0.25637 0.0
C821 C 0.79666 0.22261 0.20033 0.0
C822 C 0.7994 0.21361 0.32081 0.0
C823 C 0.77721 0.20535 0.33176 0.0
H824 H 0.82597 0.2277 0.25027 0.0
H825 H 0.80947 0.21299 0.36168 0.0
S826 S 0.73822 0.20462 0.20332 0.0
N827 N 0.76137 0.21541 0.161 0.0
N828 N 0.74342 0.19941 0.28225 0.0
C829 C 0.76487 0.20655 0.27694 0.0
C830 C 0.77462 0.21524 0.21121 0.0
C831 C 0.88579 0.442 0.90319 0.0
C832 C 0.89795 0.46439 0.89219 0.0
C833 C 0.88665 0.43289 0.9667 0.0
C834 C 0.90006 0.44582 0.02087 0.0
H835 H 0.87605 0.43135 0.86171 0.0
H836 H 0.87752 0.4155 0.97215 0.0
S837 S 0.9337 0.50545 0.02071 0.0
N838 N 0.92254 0.49943 0.9429 0.0
N839 N 0.9245 0.4822 0.06152 0.0
C840 C 0.91157 0.46828 0.01171 0.0
C841 C 0.91039 0.4776 0.94756 0.0
C842 C 0.55319 0.47785 0.91092 0.0
C843 C 0.55559 0.46554 0.96343 0.0
C844 C 0.54462 0.46889 0.84595 0.0
C845 C 0.53806 0.44727 0.83071 0.0
H846 H 0.55747 0.49441 0.92049 0.0
H847 H 0.54247 0.47889 0.80817 0.0
S848 S 0.54271 0.40866 0.94806 0.0
N849 N 0.55207 0.43098 0.99425 0.0
N850 N 0.5359 0.41414 0.87205 0.0
C851 C 0.54124 0.43502 0.88164 0.0
C852 C 0.55 0.44417 0.94798 0.0
C853 C 0.53883 0.10122 0.85421 0.0
C854 C 0.56008 0.10503 0.85124 0.0
C855 C 0.52827 0.09831 0.91773 0.0
C856 C 0.53868 0.09954 0.98082 0.0
H857 H 0.52983 0.09938 0.80701 0.0
H858 H 0.51167 0.09474 0.91729 0.0
S859 S 0.59497 0.11124 0.00202 0.0
N860 N 0.59164 0.11118 0.91712 0.0
N861 N 0.57189 0.10634 0.03701 0.0
C862 C 0.56031 0.10456 0.97901 0.0
C863 C 0.57099 0.10714 0.91407 0.0
C864 C 0.55524 0.1117 0.36336 0.0
C865 C 0.53284 0.10204 0.35386 0.0
C866 C 0.56387 0.1108 0.42787 0.0
C867 C 0.55028 0.09951 0.48384 0.0
H868 H 0.56613 0.11962 0.32031 0.0
H869 H 0.58119 0.11805 0.43297 0.0
S870 S 0.49062 0.0721 0.4864 0.0
N871 N 0.49732 0.08179 0.40682 0.0
N872 N 0.51356 0.07927 0.52694 0.0
C873 C 0.52792 0.0902 0.47548 0.0
C874 C 0.51918 0.09169 0.41067 0.0
C875 C 0.89374 0.42668 0.43689 0.0
C876 C 0.89543 0.43755 0.37418 0.0
C877 C 0.89576 0.4367 0.50128 0.0
C878 C 0.89978 0.45799 0.50501 0.0
H879 H 0.89175 0.41066 0.43633 0.0
H880 H 0.89509 0.42805 0.54823 0.0
S881 S 0.9023 0.49227 0.35678 0.0
N882 N 0.89885 0.46988 0.3205 0.0
N883 N 0.90294 0.48873 0.44125 0.0
C884 C 0.90026 0.46856 0.44299 0.0
C885 C 0.89798 0.45832 0.37762 0.0
C886 C 0.55381 0.45343 0.46717 0.0
C887 C 0.53125 0.44115 0.47296 0.0
C888 C 0.56369 0.46134 0.40237 0.0
C889 C 0.55134 0.45676 0.34121 0.0
H890 H 0.5638 0.45768 0.51322 0.0
H891 H 0.58107 0.47156 0.40044 0.0
S892 S 0.49171 0.42308 0.32855 0.0
N893 N 0.49693 0.4234 0.41213 0.0
N894 N 0.51536 0.43768 0.29061 0.0
C895 C 0.52882 0.44344 0.34626 0.0
C896 C 0.5188 0.43581 0.41211 0.0
C897 C 0.42368 0.19857 0.65811 0.0
C898 C 0.43507 0.22091 0.64604 0.0
C899 C 0.42507 0.19003 0.72201 0.0
C900 C 0.43752 0.20356 0.77675 0.0
H901 H 0.41294 0.18765 0.61881 0.0
H902 H 0.41522 0.17278 0.7298 0.0
S903 S 0.47206 0.26309 0.76916 0.0
N904 N 0.46072 0.25631 0.69167 0.0
N905 N 0.46292 0.24028 0.81264 0.0
C906 C 0.44998 0.22584 0.76399 0.0
C907 C 0.44887 0.23452 0.69834 0.0
C908 C 0.76915 0.18942 0.75723 0.0
C909 C 0.77454 0.20116 0.69482 0.0
C910 C 0.77751 0.19967 0.82081 0.0
C911 C 0.79183 0.22205 0.82453 0.0
H912 H 0.75856 0.17209 0.75702 0.0
H913 H 0.77325 0.18978 0.86711 0.0
S914 S 0.81015 0.26035 0.67654 0.0
N915 N 0.79423 0.23658 0.6409 0.0
N916 N 0.81027 0.25582 0.76058 0.0
C917 C 0.79689 0.23412 0.7628 0.0
C918 C 0.78815 0.22368 0.69793 0.0
C919 C 0.76501 0.55686 0.78254 0.0
C920 C 0.77756 0.5656 0.84282 0.0
C921 C 0.77469 0.55884 0.71751 0.0
C922 C 0.79726 0.56989 0.71029 0.0
H923 H 0.74759 0.54899 0.78517 0.0
H924 H 0.76442 0.55228 0.67231 0.0
S925 S 0.83737 0.59391 0.85266 0.0
N926 N 0.81379 0.58426 0.89156 0.0
N927 N 0.83188 0.58822 0.76955 0.0
C928 C 0.80997 0.57794 0.77046 0.0
C929 C 0.80014 0.5757 0.83667 0.0
C930 C 0.45648 0.90005 0.52992 0.0
C931 C 0.44233 0.90825 0.52512 0.0
C932 C 0.46497 0.89867 0.59413 0.0
C933 C 0.45935 0.90516 0.65589 0.0
H934 H 0.46162 0.89532 0.48351 0.0
H935 H 0.47646 0.89304 0.59505 0.0
S936 S 0.42106 0.92566 0.67183 0.0
N937 N 0.42186 0.9215 0.58789 0.0
N938 N 0.43747 0.91865 0.70849 0.0
C939 C 0.44435 0.91237 0.65204 0.0
C940 C 0.43595 0.91402 0.58666 0.0
C941 C 0.08805 0.56495 0.57274 0.0
C942 C 0.10108 0.56459 0.62684 0.0
C943 C 0.08586 0.55407 0.51024 0.0
C944 C 0.09701 0.54286 0.49893 0.0
H945 H 0.07853 0.57272 0.57997 0.0
H946 H 0.07497 0.55403 0.47111 0.0
S947 S 0.13482 0.53878 0.62134 0.0
N948 N 0.12632 0.55321 0.66346 0.0
N949 N 0.12274 0.53328 0.54493 0.0
C950 C 0.11109 0.54344 0.5509 0.0
C951 C 0.11298 0.55417 0.61518 0.0
C952 C 0.4348 0.544 0.60771 0.0
C953 C 0.44596 0.53875 0.65696 0.0
C954 C 0.44368 0.55211 0.54189 0.0
C955 C 0.46399 0.55511 0.52274 0.0
H956 H 0.41901 0.5417 0.61987 0.0
H957 H 0.43452 0.55596 0.50571 0.0
S958 S 0.49951 0.5432 0.63205 0.0
N959 N 0.47835 0.5369 0.6814 0.0
N960 N 0.49484 0.55187 0.55834 0.0
C961 C 0.47528 0.54989 0.57157 0.0
C962 C 0.46634 0.54181 0.63848 0.0
C963 C 0.55187 0.78202 0.21024 0.0
C964 C 0.56839 0.80261 0.19036 0.0
C965 C 0.55331 0.77258 0.27242 0.0
C966 C 0.57169 0.78312 0.31499 0.0
H967 H 0.53794 0.77308 0.17709 0.0
H968 H 0.54036 0.75661 0.28588 0.0
S969 S 0.61941 0.83718 0.28529 0.0
N970 N 0.60346 0.83338 0.21845 0.0
N971 N 0.60652 0.81531 0.33364 0.0
C972 C 0.5882 0.80376 0.29581 0.0
C973 C 0.58646 0.8136 0.23383 0.0
C974 C 0.2234 0.81164 0.23293 0.0
C975 C 0.22378 0.7994 0.2894 0.0
C976 C 0.21536 0.80213 0.16825 0.0
C977 C 0.20719 0.77994 0.15752 0.0
H978 H 0.22912 0.8287 0.23882 0.0
H979 H 0.21496 0.8122 0.12698 0.0
S980 S 0.2056 0.74093 0.2875 0.0
N981 N 0.21624 0.76409 0.32965 0.0
N982 N 0.20085 0.74613 0.20798 0.0
C983 C 0.20803 0.76759 0.21293 0.0
C984 C 0.21639 0.77734 0.27888 0.0
C985 C 0.23212 0.43834 0.24116 0.0
C986 C 0.21928 0.4302 0.18112 0.0
C987 C 0.22283 0.43716 0.30647 0.0
C988 C 0.20035 0.42761 0.31418 0.0
H989 H 0.24942 0.44504 0.23819 0.0
H990 H 0.23327 0.44312 0.35148 0.0
S991 S 0.15979 0.40606 0.17235 0.0
N992 N 0.18304 0.41395 0.13308 0.0
N993 N 0.16566 0.41156 0.25537 0.0
C994 C 0.18744 0.4203 0.25415 0.0
C995 C 0.19689 0.42166 0.18775 0.0
C996 C 0.19913 0.42571 0.81688 0.0
C997 C 0.22117 0.43303 0.82631 0.0
C998 C 0.19116 0.42754 0.75229 0.0
C999 C 0.20485 0.43608 0.69428 0.0
H1000 H 0.18791 0.41815 0.8594 0.0
H1001 H 0.17395 0.42111 0.74691 0.0
S1002 S 0.26392 0.45784 0.69226 0.0
N1003 N 0.25674 0.44998 0.77334 0.0
N1004 N 0.24155 0.45243 0.65088 0.0
C1005 C 0.22698 0.44383 0.70334 0.0
C1006 C 0.2352 0.44258 0.76972 0.0
C1007 C 0.56223 0.77381 0.80336 0.0
C1008 C 0.57078 0.79624 0.80682 0.0
C1009 C 0.55965 0.76344 0.73928 0.0
C1010 C 0.56494 0.7751 0.67666 0.0
H1011 H 0.55823 0.76432 0.85052 0.0
H1012 H 0.5539 0.74628 0.73886 0.0
S1013 S 0.58645 0.834 0.65788 0.0
N1014 N 0.58361 0.82965 0.74236 0.0
N1015 N 0.57826 0.81021 0.62219 0.0
C1016 C 0.5726 0.79741 0.6795 0.0
C1017 C 0.57567 0.80798 0.74457 0.0
C1018 C 0.19206 0.77262 0.73244 0.0
C1019 C 0.20386 0.77817 0.79469 0.0
C1020 C 0.20226 0.78075 0.66868 0.0
C1021 C 0.22464 0.79506 0.66472 0.0
H1022 H 0.17472 0.76202 0.7329 0.0
H1023 H 0.19233 0.77639 0.62244 0.0
S1024 S 0.26303 0.8139 0.8124 0.0
N1025 N 0.23929 0.79803 0.84838 0.0
N1026 N 0.25846 0.81377 0.7283 0.0
C1027 C 0.23675 0.80034 0.72636 0.0
C1028 C 0.22637 0.79177 0.7914 0.0
C1029 C 0.1009 0.54173 0.01967 0.0
C1030 C 0.09363 0.55662 0.01396 0.0
C1031 C 0.10168 0.5331 0.08432 0.0
C1032 C 0.09545 0.53924 0.14558 0.0
H1033 H 0.10536 0.53617 0.97366 0.0
H1034 H 0.10662 0.52107 0.08594 0.0
S1035 S 0.07758 0.57966 0.15921 0.0
N1036 N 0.08171 0.57844 0.07547 0.0
N1037 N 0.08341 0.5625 0.19677 0.0
C1038 C 0.08919 0.55495 0.14081 0.0
C1039 C 0.08819 0.56355 0.07504 0.0
C1040 C 0.43252 0.54686 0.05745 0.0
C1041 C 0.44583 0.54667 0.00414 0.0
C1042 C 0.4413 0.55688 0.12141 0.0
C1043 C 0.4637 0.56756 0.13315 0.0
H1044 H 0.41515 0.53815 0.05124 0.0
H1045 H 0.43046 0.55567 0.16261 0.0
S1046 S 0.50546 0.57333 0.00692 0.0
N1047 N 0.4824 0.55898 0.96532 0.0
N1048 N 0.49903 0.57852 0.084 0.0
C1049 C 0.47721 0.5686 0.07838 0.0
C1050 C 0.46823 0.55794 0.01422 0.0
C1051 C 0.44586 0.89619 0.03835 0.0
C1052 C 0.46842 0.90785 0.03082 0.0
C1053 C 0.43616 0.8947 0.10289 0.0
C1054 C 0.44868 0.90467 0.16227 0.0
H1055 H 0.43558 0.88887 0.9936 0.0
H1056 H 0.41872 0.88639 0.10556 0.0
S1057 S 0.50852 0.93449 0.17173 0.0
N1058 N 0.50306 0.92769 0.08923 0.0
N1059 N 0.48491 0.92474 0.21057 0.0
C1060 C 0.47129 0.91522 0.15616 0.0
C1061 C 0.48114 0.91688 0.09039 0.0
C1062 C 0.22385 0.34903 0.12688 0.0
C1063 C 0.22548 0.35424 0.05581 0.0
C1064 C 0.21334 0.32752 0.14926 0.0
C1065 C 0.20436 0.31041 0.10139 0.0
H1066 H 0.22992 0.36164 0.16579 0.0
H1067 H 0.21175 0.32429 0.20454 0.0
S1068 S 0.20611 0.31549 0.90918 0.0
N1069 N 0.21849 0.3406 0.93754 0.0
N1070 N 0.19908 0.30018 0.9793 0.0
C1071 C 0.20688 0.31542 0.03002 0.0
C1072 C 0.21734 0.33733 0.00731 0.0
C1073 C 0.6797 0.89105 0.0724 0.0
C1074 C 0.68696 0.87987 0.1143 0.0
C1075 C 0.65891 0.88058 0.04378 0.0
C1076 C 0.64477 0.85847 0.05494 0.0
H1077 H 0.69013 0.90805 0.0616 0.0
H1078 H 0.65394 0.88987 0.01234 0.0
S1079 S 0.65558 0.82192 0.16239 0.0
N1080 N 0.67804 0.84548 0.16701 0.0
N1081 N 0.63914 0.8258 0.11223 0.0
C1082 C 0.65176 0.84707 0.09678 0.0
C1083 C 0.6728 0.85778 0.12679 0.0
C1084 C 0.12012 0.7828 0.01237 0.0
C1085 C 0.12958 0.77401 0.05556 0.0
C1086 C 0.10965 0.79318 0.0405 0.0
C1087 C 0.10879 0.79563 0.11274 0.0
H1088 H 0.12105 0.78189 0.95643 0.0
H1089 H 0.1029 0.80005 0.00526 0.0
S1090 S 0.13075 0.77515 0.24826 0.0
N1091 N 0.13684 0.76784 0.17426 0.0
N1092 N 0.11773 0.78791 0.22688 0.0
C1093 C 0.11788 0.78662 0.1565 0.0
C1094 C 0.12812 0.77564 0.12795 0.0
C1095 C 0.3248 0.21318 0.35367 0.0
C1096 C 0.30852 0.20357 0.40415 0.0
C1097 C 0.34662 0.22434 0.3725 0.0
C1098 C 0.35298 0.22598 0.44243 0.0
H1099 H 0.32069 0.21165 0.29903 0.0
H1100 H 0.3586 0.23093 0.33161 0.0
S1101 S 0.3166 0.20485 0.59495 0.0
N1102 N 0.3002 0.19752 0.52751 0.0
N1103 N 0.34124 0.21817 0.56265 0.0
C1104 C 0.33686 0.21714 0.49363 0.0
C1105 C 0.31461 0.20602 0.47455 0.0
C1106 C 0.77435 0.12458 0.37333 0.0
C1107 C 0.77271 0.12694 0.44526 0.0
C1108 C 0.7852 0.11435 0.34724 0.0
C1109 C 0.79435 0.10566 0.39214 0.0
H1110 H 0.76792 0.13141 0.33671 0.0
H1111 H 0.78668 0.11351 0.2915 0.0
S1112 S 0.79344 0.1065 0.58481 0.0
N1113 N 0.78051 0.11913 0.56099 0.0
N1114 N 0.80041 0.09938 0.51209 0.0
C1115 C 0.7921 0.10716 0.46421 0.0
C1116 C 0.78141 0.11795 0.49075 0.0
C1117 C 0.88427 0.66745 0.36273 0.0
C1118 C 0.88608 0.68491 0.40118 0.0
C1119 C 0.87346 0.6465 0.39009 0.0
C1120 C 0.86354 0.64228 0.45582 0.0
H1121 H 0.89128 0.67001 0.31133 0.0
H1122 H 0.87237 0.63345 0.35869 0.0
S1123 S 0.86309 0.68258 0.5756 0.0
N1124 N 0.87709 0.69681 0.50777 0.0
N1125 N 0.85607 0.65731 0.55822 0.0
C1126 C 0.86513 0.65963 0.49448 0.0
C1127 C 0.87661 0.68102 0.46738 0.0
C1128 C 0.78351 0.6644 0.85418 0.0
C1129 C 0.79155 0.68238 0.89837 0.0
C1130 C 0.77269 0.6434 0.88082 0.0
C1131 C 0.76988 0.63957 0.9528 0.0
H1132 H 0.78596 0.66656 0.79858 0.0
H1133 H 0.76731 0.6301 0.84469 0.0
S1134 S 0.787 0.68115 0.09049 0.0
N1135 N 0.79503 0.69505 0.01745 0.0
N1136 N 0.7751 0.6555 0.06765 0.0
C1137 C 0.77724 0.65739 0.9975 0.0
C1138 C 0.78796 0.67882 0.97023 0.0
C1139 C 0.34442 0.15332 0.91079 0.0
C1140 C 0.35489 0.14281 0.93844 0.0
C1141 C 0.32261 0.14171 0.89153 0.0
C1142 C 0.31045 0.11916 0.89929 0.0
H1143 H 0.35319 0.17063 0.903 0.0
H1144 H 0.31527 0.1505 0.87013 0.0
S1145 S 0.33004 0.08408 0.97248 0.0
N1146 N 0.35124 0.1086 0.97485 0.0
N1147 N 0.31037 0.08684 0.93878 0.0
C1148 C 0.32066 0.1085 0.92786 0.0
C1149 C 0.34283 0.1203 0.94744 0.0
C1150 C 0.86214 0.18476 0.90212 0.0
C1151 C 0.88433 0.19625 0.88716 0.0
C1152 C 0.85177 0.19502 0.93129 0.0
C1153 C 0.8631 0.21726 0.9454 0.0
H1154 H 0.8527 0.16759 0.89212 0.0
H1155 H 0.83464 0.18548 0.94172 0.0
S1156 S 0.92142 0.25471 0.9155 0.0
N1157 N 0.9174 0.23104 0.88914 0.0
N1158 N 0.89772 0.25052 0.94233 0.0
C1159 C 0.88527 0.22902 0.93035 0.0
C1160 C 0.89595 0.21845 0.90172 0.0
C1161 C 0.67455 0.78091 0.58928 0.0
C1162 C 0.68379 0.80102 0.62308 0.0
C1163 C 0.65358 0.77126 0.56181 0.0
C1164 C 0.64136 0.78163 0.56584 0.0
H1165 H 0.68359 0.77259 0.58377 0.0
H1166 H 0.64707 0.75579 0.53612 0.0
S1167 S 0.65784 0.83416 0.65069 0.0
N1168 N 0.67877 0.83065 0.66067 0.0
N1169 N 0.63967 0.81275 0.60807 0.0
C1170 C 0.65033 0.80163 0.60002 0.0
C1171 C 0.67146 0.81126 0.62895 0.0
C1172 C 0.21699 0.89607 0.59056 0.0
C1173 C 0.19594 0.88405 0.61742 0.0
C1174 C 0.22728 0.88582 0.55994 0.0
C1175 C 0.21664 0.86325 0.55353 0.0
H1176 H 0.22559 0.91352 0.59325 0.0
H1177 H 0.24354 0.89563 0.54023 0.0
S1178 S 0.16165 0.82437 0.61686 0.0
N1179 N 0.16507 0.84827 0.63708 0.0
N1180 N 0.1842 0.82914 0.57831 0.0
C1181 C 0.19565 0.85106 0.58037 0.0
C1182 C 0.18536 0.86142 0.61269 0.0
C1183 C 0.12742 0.33894 0.52306 0.0
C1184 C 0.13748 0.35584 0.57114 0.0
C1185 C 0.11634 0.31741 0.54524 0.0
C1186 C 0.11562 0.31213 0.61593 0.0
H1187 H 0.12786 0.34239 0.46811 0.0
H1188 H 0.10867 0.3048 0.50663 0.0
S1189 S 0.14012 0.35058 0.76188 0.0
N1190 N 0.14614 0.36603 0.69227 0.0
N1191 N 0.12614 0.32547 0.73367 0.0
C1192 C 0.12593 0.32889 0.66435 0.0
C1193 C 0.13664 0.35081 0.64199 0.0
C1194 C 0.01017 0.52432 0.76762 0.0
C1195 C 0.02169 0.54696 0.7729 0.0
C1196 C 0.98847 0.51321 0.74704 0.0
C1197 C 0.97746 0.52433 0.73128 0.0
H1198 H 0.01796 0.51506 0.77943 0.0
H1199 H 0.9802 0.49577 0.74444 0.0
S1200 S 0.00042 0.58371 0.73505 0.0
N1201 N 0.02052 0.58014 0.75922 0.0
N1202 N 0.97984 0.55932 0.72081 0.0
C1203 C 0.98884 0.54699 0.73571 0.0
C1204 C 0.01092 0.55828 0.75646 0.0
C1205 C 0.43343 0.45424 0.71188 0.0
C1206 C 0.43173 0.45675 0.78367 0.0
C1207 C 0.44433 0.44402 0.68654 0.0
C1208 C 0.45346 0.43546 0.732 0.0
H1209 H 0.4274 0.46131 0.67473 0.0
H1210 H 0.44622 0.44343 0.6309 0.0
S1211 S 0.45154 0.43577 0.9244 0.0
N1212 N 0.43879 0.44853 0.89991 0.0
N1213 N 0.45878 0.4287 0.85208 0.0
C1214 C 0.45065 0.43656 0.80383 0.0
C1215 C 0.43992 0.44738 0.82974 0.0
C1216 C 0.52011 0.99419 0.77879 0.0
C1217 C 0.53079 0.98225 0.77517 0.0
C1218 C 0.52955 0.01515 0.75226 0.0
C1219 C 0.55018 0.02515 0.72195 0.0
H1220 H 0.50414 0.98719 0.80134 0.0
H1221 H 0.52063 0.02365 0.75624 0.0
S1222 S 0.58512 0.001 0.70069 0.0
N1223 N 0.56318 0.98195 0.739 0.0
N1224 N 0.58114 0.02163 0.69027 0.0
C1225 C 0.56118 0.01352 0.71859 0.0
C1226 C 0.55142 0.992 0.74487 0.0
C1227 C 0.46272 0.0063 0.17637 0.0
C1228 C 0.46611 0.02325 0.22093 0.0
C1229 C 0.45188 0.98485 0.19952 0.0
C1230 C 0.44465 0.97972 0.26856 0.0
H1231 H 0.46847 0.00963 0.12328 0.0
H1232 H 0.44974 0.97227 0.1637 0.0
S1233 S 0.44946 0.01815 0.40564 0.0
N1234 N 0.46095 0.03342 0.33683 0.0
N1235 N 0.44132 0.99317 0.38084 0.0
C1236 C 0.44788 0.99648 0.31352 0.0
C1237 C 0.45841 0.01824 0.28953 0.0
C1238 C 0.0117 0.45623 0.21197 0.0
C1239 C 0.01817 0.45952 0.28203 0.0
C1240 C 0.98982 0.44529 0.19359 0.0
C1241 C 0.97358 0.43696 0.24452 0.0
H1242 H 0.0236 0.46288 0.17087 0.0
H1243 H 0.98564 0.44382 0.13902 0.0
S1244 S 0.98203 0.43957 0.43539 0.0
N1245 N 0.00661 0.45243 0.40254 0.0
N1246 N 0.96551 0.43159 0.36817 0.0
C1247 C 0.97984 0.43923 0.31477 0.0
C1248 C 0.00213 0.4506 0.33347 0.0
C1249 C 0.52527 0.51986 0.21035 0.0
C1250 C 0.5476 0.5288 0.22032 0.0
C1251 C 0.51437 0.53008 0.23592 0.0
C1252 C 0.5254 0.54974 0.27199 0.0
H1253 H 0.51601 0.5047 0.18311 0.0
H1254 H 0.49718 0.52257 0.22669 0.0
S1255 S 0.58395 0.57998 0.31199 0.0
N1256 N 0.5804 0.55849 0.26906 0.0
N1257 N 0.55993 0.57782 0.31653 0.0
C1258 C 0.54775 0.55895 0.28211 0.0
C1259 C 0.55885 0.54845 0.25644 0.0
loop_
_geom_bond_atom_site_label_1
_geom_bond_atom_site_label_2
_geom_bond_distance
_geom_bond_site_symmetry_2
_ccdc_geom_bond_type
In0 O1 2.294 . S
In0 O2 2.326 . S
In0 O6 2.266 . S
In0 O7 2.326 . S
In0 O8 2.266 . S
In0 O9 2.326 . S
In0 O11 2.294 . S
In0 O12 2.326 . S
O1 In0 2.294 . S
O1 C10 1.240 . S
O2 In0 2.326 . S
O2 C10 1.252 . S
C3 O6 1.252 . S
C3 O7 1.260 . S
C4 O11 1.240 . S
C4 O12 1.252 . S
C5 O8 1.252 . S
C5 O9 1.260 . S
O6 In0 2.266 . S
O6 C3 1.252 . S
O7 In0 2.326 . S
O7 C3 1.260 . S
O8 In0 2.266 . S
O8 C5 1.252 . S
O9 In0 2.326 . S
O9 C5 1.260 . S
C10 O1 1.240 . S
C10 O2 1.252 . S
O11 In0 2.294 . S
O11 C4 1.240 . S
O12 In0 2.326 . S
O12 C4 1.252 . S
In13 O14 2.294 . S
In13 O15 2.326 . S
In13 O19 2.266 . S
In13 O20 2.326 . S
In13 O21 2.266 . S
In13 O22 2.326 . S
In13 O24 2.294 . S
In13 O25 2.326 . S
O14 In13 2.294 . S
O14 C23 1.240 . S
O15 In13 2.326 . S
O15 C23 1.252 . S
C16 O19 1.252 . S
C16 O20 1.260 . S
C17 O24 1.240 . S
C17 O25 1.252 . S
C18 O21 1.252 . S
C18 O22 1.260 . S
O19 In13 2.266 . S
O19 C16 1.252 . S
O20 In13 2.326 . S
O20 C16 1.260 . S
O21 In13 2.266 . S
O21 C18 1.252 . S
O22 In13 2.326 . S
O22 C18 1.260 . S
C23 O14 1.240 . S
C23 O15 1.252 . S
O24 In13 2.294 . S
O24 C17 1.240 . S
O25 In13 2.326 . S
O25 C17 1.252 . S
In26 O27 2.294 . S
In26 O28 2.326 . S
In26 O32 2.266 . S
In26 O33 2.326 . S
In26 O34 2.266 . S
In26 O35 2.326 . S
In26 O37 2.294 . S
In26 O38 2.326 . S
O27 In26 2.294 . S
O27 C36 1.240 . S
O28 In26 2.326 . S
O28 C36 1.252 . S
C29 O32 1.252 . S
C29 O33 1.260 . S
C30 O37 1.240 . S
C30 O38 1.252 . S
C31 O34 1.252 . S
C31 O35 1.260 . S
O32 In26 2.266 . S
O32 C29 1.252 . S
O33 In26 2.326 . S
O33 C29 1.260 . S
O34 In26 2.266 . S
O34 C31 1.252 . S
O35 In26 2.326 . S
O35 C31 1.260 . S
C36 O27 1.240 . S
C36 O28 1.252 . S
O37 In26 2.294 . S
O37 C30 1.240 . S
O38 In26 2.326 . S
O38 C30 1.252 . S
In39 O40 2.294 . S
In39 O41 2.326 . S
In39 O45 2.266 . S
In39 O46 2.326 . S
In39 O47 2.266 . S
In39 O48 2.326 . S
In39 O50 2.294 . S
In39 O51 2.326 . S
O40 In39 2.294 . S
O40 C49 1.240 . S
O41 In39 2.326 . S
O41 C49 1.252 . S
C42 O45 1.252 . S
C42 O46 1.260 . S
C43 O50 1.240 . S
C43 O51 1.252 . S
C44 O47 1.252 . S
C44 O48 1.260 . S
O45 In39 2.266 . S
O45 C42 1.252 . S
O46 In39 2.326 . S
O46 C42 1.260 . S
O47 In39 2.266 . S
O47 C44 1.252 . S
O48 In39 2.326 . S
O48 C44 1.260 . S
C49 O40 1.240 . S
C49 O41 1.252 . S
O50 In39 2.294 . S
O50 C43 1.240 . S
O51 In39 2.326 . S
O51 C43 1.252 . S
In52 O53 2.294 . S
In52 O54 2.326 . S
In52 O58 2.266 . S
In52 O59 2.326 . S
In52 O60 2.266 . S
In52 O61 2.326 . S
In52 O63 2.294 . S
In52 O64 2.326 . S
O53 In52 2.294 . S
O53 C62 1.240 . S
O54 In52 2.326 . S
O54 C62 1.252 . S
C55 O58 1.252 . S
C55 O59 1.260 . S
C56 O63 1.240 . S
C56 O64 1.252 . S
C57 O60 1.252 . S
C57 O61 1.260 . S
O58 In52 2.266 . S
O58 C55 1.252 . S
O59 In52 2.326 . S
O59 C55 1.260 . S
O60 In52 2.266 . S
O60 C57 1.252 . S
O61 In52 2.326 . S
O61 C57 1.260 . S
C62 O53 1.240 . S
C62 O54 1.252 . S
O63 In52 2.294 . S
O63 C56 1.240 . S
O64 In52 2.326 . S
O64 C56 1.252 . S
In65 O66 2.294 . S
In65 O67 2.326 . S
In65 O71 2.266 . S
In65 O72 2.326 . S
In65 O73 2.266 . S
In65 O74 2.326 . S
In65 O76 2.294 . S
In65 O77 2.326 . S
O66 In65 2.294 . S
O66 C75 1.240 . S
O67 In65 2.326 . S
O67 C75 1.252 . S
C68 O71 1.252 . S
C68 O72 1.260 . S
C69 O76 1.240 . S
C69 O77 1.252 . S
C70 O73 1.252 . S
C70 O74 1.260 . S
O71 In65 2.266 . S
O71 C68 1.252 . S
O72 In65 2.326 . S
O72 C68 1.260 . S
O73 In65 2.266 . S
O73 C70 1.252 . S
O74 In65 2.326 . S
O74 C70 1.260 . S
C75 O66 1.240 . S
C75 O67 1.252 . S
O76 In65 2.294 . S
O76 C69 1.240 . S
O77 In65 2.326 . S
O77 C69 1.252 . S
In78 O79 2.294 . S
In78 O80 2.326 . S
In78 O84 2.266 . S
In78 O85 2.326 . S
In78 O86 2.266 . S
In78 O87 2.326 . S
In78 O89 2.294 . S
In78 O90 2.326 . S
O79 In78 2.294 . S
O79 C88 1.240 . S
O80 In78 2.326 . S
O80 C88 1.252 . S
C81 O84 1.252 . S
C81 O85 1.260 . S
C82 O89 1.240 . S
C82 O90 1.252 . S
C83 O86 1.252 . S
C83 O87 1.260 . S
O84 In78 2.266 . S
O84 C81 1.252 . S
O85 In78 2.326 . S
O85 C81 1.260 . S
O86 In78 2.266 . S
O86 C83 1.252 . S
O87 In78 2.326 . S
O87 C83 1.260 . S
C88 O79 1.240 . S
C88 O80 1.252 . S
O89 In78 2.294 . S
O89 C82 1.240 . S
O90 In78 2.326 . S
O90 C82 1.252 . S
In91 O92 2.294 . S
In91 O93 2.326 . S
In91 O97 2.266 . S
In91 O98 2.326 . S
In91 O99 2.266 . S
In91 O100 2.326 . S
In91 O102 2.294 . S
In91 O103 2.326 . S
O92 In91 2.294 . S
O92 C101 1.240 . S
O93 In91 2.326 . S
O93 C101 1.252 . S
C94 O97 1.252 . S
C94 O98 1.260 . S
C95 O102 1.240 . S
C95 O103 1.252 . S
C96 O99 1.252 . S
C96 O100 1.260 . S
O97 In91 2.266 . S
O97 C94 1.252 . S
O98 In91 2.326 . S
O98 C94 1.260 . S
O99 In91 2.266 . S
O99 C96 1.252 . S
O100 In91 2.326 . S
O100 C96 1.260 . S
C101 O92 1.240 . S
C101 O93 1.252 . S
O102 In91 2.294 . S
O102 C95 1.240 . S
O103 In91 2.326 . S
O103 C95 1.252 . S
In104 O105 2.294 . S
In104 O106 2.326 . S
In104 O110 2.266 . S
In104 O111 2.326 . S
In104 O112 2.266 . S
In104 O113 2.326 . S
In104 O115 2.294 . S
In104 O116 2.326 . S
O105 In104 2.294 . S
O105 C114 1.240 . S
O106 In104 2.326 . S
O106 C114 1.252 . S
C107 O110 1.252 . S
C107 O111 1.260 . S
C108 O115 1.240 . S
C108 O116 1.252 . S
C109 O112 1.252 . S
C109 O113 1.260 . S
O110 In104 2.266 . S
O110 C107 1.252 . S
O111 In104 2.326 . S
O111 C107 1.260 . S
O112 In104 2.266 . S
O112 C109 1.252 . S
O113 In104 2.326 . S
O113 C109 1.260 . S
C114 O105 1.240 . S
C114 O106 1.252 . S
O115 In104 2.294 . S
O115 C108 1.240 . S
O116 In104 2.326 . S
O116 C108 1.252 . S
In117 O118 2.294 . S
In117 O119 2.326 . S
In117 O123 2.266 . S
In117 O124 2.326 . S
In117 O125 2.266 . S
In117 O126 2.326 . S
In117 O128 2.294 . S
In117 O129 2.326 . S
O118 In117 2.294 . S
O118 C127 1.240 . S
O119 In117 2.326 . S
O119 C127 1.252 . S
C120 O123 1.252 . S
C120 O124 1.260 . S
C121 O128 1.240 . S
C121 O129 1.252 . S
C122 O125 1.252 . S
C122 O126 1.260 . S
O123 In117 2.266 . S
O123 C120 1.252 . S
O124 In117 2.326 . S
O124 C120 1.260 . S
O125 In117 2.266 . S
O125 C122 1.252 . S
O126 In117 2.326 . S
O126 C122 1.260 . S
C127 O118 1.240 . S
C127 O119 1.252 . S
O128 In117 2.294 . S
O128 C121 1.240 . S
O129 In117 2.326 . S
O129 C121 1.252 . S
In130 O131 2.294 . S
In130 O132 2.326 . S
In130 O136 2.266 . S
In130 O137 2.326 . S
In130 O138 2.266 . S
In130 O139 2.326 . S
In130 O141 2.294 . S
In130 O142 2.326 . S
O131 In130 2.294 . S
O131 C140 1.240 . S
O132 In130 2.326 . S
O132 C140 1.252 . S
C133 O136 1.252 . S
C133 O137 1.260 . S
C134 O141 1.240 . S
C134 O142 1.252 . S
C135 O138 1.252 . S
C135 O139 1.260 . S
O136 In130 2.266 . S
O136 C133 1.252 . S
O137 In130 2.326 . S
O137 C133 1.260 . S
O138 In130 2.266 . S
O138 C135 1.252 . S
O139 In130 2.326 . S
O139 C135 1.260 . S
C140 O131 1.240 . S
C140 O132 1.252 . S
O141 In130 2.294 . S
O141 C134 1.240 . S
O142 In130 2.326 . S
O142 C134 1.252 . S
In143 O144 2.294 . S
In143 O145 2.326 . S
In143 O149 2.266 . S
In143 O150 2.326 . S
In143 O151 2.266 . S
In143 O152 2.326 . S
In143 O154 2.294 . S
In143 O155 2.326 . S
O144 In143 2.294 . S
O144 C153 1.240 . S
O145 In143 2.326 . S
O145 C153 1.252 . S
C146 O149 1.252 . S
C146 O150 1.260 . S
C147 O154 1.240 . S
C147 O155 1.252 . S
C148 O151 1.252 . S
C148 O152 1.260 . S
O149 In143 2.266 . S
O149 C146 1.252 . S
O150 In143 2.326 . S
O150 C146 1.260 . S
O151 In143 2.266 . S
O151 C148 1.252 . S
O152 In143 2.326 . S
O152 C148 1.260 . S
C153 O144 1.240 . S
C153 O145 1.252 . S
O154 In143 2.294 . S
O154 C147 1.240 . S
O155 In143 2.326 . S
O155 C147 1.252 . S
In156 O157 2.294 . S
In156 O158 2.326 . S
In156 O162 2.266 . S
In156 O163 2.326 . S
In156 O164 2.266 . S
In156 O165 2.326 . S
In156 O167 2.294 . S
In156 O168 2.326 . S
O157 In156 2.294 . S
O157 C166 1.240 . S
O158 In156 2.326 . S
O158 C166 1.252 . S
C159 O162 1.252 . S
C159 O163 1.260 . S
C160 O167 1.240 . S
C160 O168 1.252 . S
C161 O164 1.252 . S
C161 O165 1.260 . S
O162 In156 2.266 . S
O162 C159 1.252 . S
O163 In156 2.326 . S
O163 C159 1.260 . S
O164 In156 2.266 . S
O164 C161 1.252 . S
O165 In156 2.326 . S
O165 C161 1.260 . S
C166 O157 1.240 . S
C166 O158 1.252 . S
O167 In156 2.294 . S
O167 C160 1.240 . S
O168 In156 2.326 . S
O168 C160 1.252 . S
In169 O170 2.294 . S
In169 O171 2.326 . S
In169 O175 2.266 . S
In169 O176 2.326 . S
In169 O177 2.266 . S
In169 O178 2.326 . S
In169 O180 2.294 . S
In169 O181 2.326 . S
O170 In169 2.294 . S
O170 C179 1.240 . S
O171 In169 2.326 . S
O171 C179 1.252 . S
C172 O175 1.252 . S
C172 O176 1.260 . S
C173 O180 1.240 . S
C173 O181 1.252 . S
C174 O177 1.252 . S
C174 O178 1.260 . S
O175 In169 2.266 . S
O175 C172 1.252 . S
O176 In169 2.326 . S
O176 C172 1.260 . S
O177 In169 2.266 . S
O177 C174 1.252 . S
O178 In169 2.326 . S
O178 C174 1.260 . S
C179 O170 1.240 . S
C179 O171 1.252 . S
O180 In169 2.294 . S
O180 C173 1.240 . S
O181 In169 2.326 . S
O181 C173 1.252 . S
In182 O183 2.294 . S
In182 O184 2.326 . S
In182 O188 2.266 . S
In182 O189 2.326 . S
In182 O190 2.266 . S
In182 O191 2.326 . S
In182 O193 2.294 . S
In182 O194 2.326 . S
O183 In182 2.294 . S
O183 C192 1.240 . S
O184 In182 2.326 . S
O184 C192 1.252 . S
C185 O188 1.252 . S
C185 O189 1.260 . S
C186 O193 1.240 . S
C186 O194 1.252 . S
C187 O190 1.252 . S
C187 O191 1.260 . S
O188 In182 2.266 . S
O188 C185 1.252 . S
O189 In182 2.326 . S
O189 C185 1.260 . S
O190 In182 2.266 . S
O190 C187 1.252 . S
O191 In182 2.326 . S
O191 C187 1.260 . S
C192 O183 1.240 . S
C192 O184 1.252 . S
O193 In182 2.294 . S
O193 C186 1.240 . S
O194 In182 2.326 . S
O194 C186 1.252 . S
In195 O196 2.294 . S
In195 O197 2.326 . S
In195 O201 2.266 . S
In195 O202 2.326 . S
In195 O203 2.266 . S
In195 O204 2.326 . S
In195 O206 2.294 . S
In195 O207 2.326 . S
O196 In195 2.294 . S
O196 C205 1.240 . S
O197 In195 2.326 . S
O197 C205 1.252 . S
C198 O201 1.252 . S
C198 O202 1.260 . S
C199 O206 1.240 . S
C199 O207 1.252 . S
C200 O203 1.252 . S
C200 O204 1.260 . S
O201 In195 2.266 . S
O201 C198 1.252 . S
O202 In195 2.326 . S
O202 C198 1.260 . S
O203 In195 2.266 . S
O203 C200 1.252 . S
O204 In195 2.326 . S
O204 C200 1.260 . S
C205 O196 1.240 . S
C205 O197 1.252 . S
O206 In195 2.294 . S
O206 C199 1.240 . S
O207 In195 2.326 . S
O207 C199 1.252 . S
In208 O209 2.294 . S
In208 O210 2.326 . S
In208 O214 2.266 . S
In208 O215 2.326 . S
In208 O216 2.266 . S
In208 O217 2.326 . S
In208 O219 2.294 . S
In208 O220 2.326 . S
O209 In208 2.294 . S
O209 C218 1.240 . S
O210 In208 2.326 . S
O210 C218 1.252 . S
C211 O214 1.252 . S
C211 O215 1.260 . S
C212 O219 1.240 . S
C212 O220 1.252 . S
C213 O216 1.252 . S
C213 O217 1.260 . S
O214 In208 2.266 . S
O214 C211 1.252 . S
O215 In208 2.326 . S
O215 C211 1.260 . S
O216 In208 2.266 . S
O216 C213 1.252 . S
O217 In208 2.326 . S
O217 C213 1.260 . S
C218 O209 1.240 . S
C218 O210 1.252 . S
O219 In208 2.294 . S
O219 C212 1.240 . S
O220 In208 2.326 . S
O220 C212 1.252 . S
In221 O222 2.294 . S
In221 O223 2.326 . S
In221 O227 2.266 . S
In221 O228 2.326 . S
In221 O229 2.266 . S
In221 O230 2.326 . S
In221 O232 2.294 . S
In221 O233 2.326 . S
O222 In221 2.294 . S
O222 C231 1.240 . S
O223 In221 2.326 . S
O223 C231 1.252 . S
C224 O227 1.252 . S
C224 O228 1.260 . S
C225 O232 1.240 . S
C225 O233 1.252 . S
C226 O229 1.252 . S
C226 O230 1.260 . S
O227 In221 2.266 . S
O227 C224 1.252 . S
O228 In221 2.326 . S
O228 C224 1.260 . S
O229 In221 2.266 . S
O229 C226 1.252 . S
O230 In221 2.326 . S
O230 C226 1.260 . S
C231 O222 1.240 . S
C231 O223 1.252 . S
O232 In221 2.294 . S
O232 C225 1.240 . S
O233 In221 2.326 . S
O233 C225 1.252 . S
In234 O235 2.294 . S
In234 O236 2.326 . S
In234 O240 2.266 . S
In234 O241 2.326 . S
In234 O242 2.266 . S
In234 O243 2.326 . S
In234 O245 2.294 . S
In234 O246 2.326 . S
O235 In234 2.294 . S
O235 C244 1.240 . S
O236 In234 2.326 . S
O236 C244 1.252 . S
C237 O240 1.252 . S
C237 O241 1.260 . S
C238 O245 1.240 . S
C238 O246 1.252 . S
C239 O242 1.252 . S
C239 O243 1.260 . S
O240 In234 2.266 . S
O240 C237 1.252 . S
O241 In234 2.326 . S
O241 C237 1.260 . S
O242 In234 2.266 . S
O242 C239 1.252 . S
O243 In234 2.326 . S
O243 C239 1.260 . S
C244 O235 1.240 . S
C244 O236 1.252 . S
O245 In234 2.294 . S
O245 C238 1.240 . S
O246 In234 2.326 . S
O246 C238 1.252 . S
In247 O248 2.294 . S
In247 O249 2.326 . S
In247 O253 2.266 . S
In247 O254 2.326 . S
In247 O255 2.266 . S
In247 O256 2.326 . S
In247 O258 2.294 . S
In247 O259 2.326 . S
O248 In247 2.294 . S
O248 C257 1.240 . S
O249 In247 2.326 . S
O249 C257 1.252 . S
C250 O253 1.252 . S
C250 O254 1.260 . S
C251 O258 1.240 . S
C251 O259 1.252 . S
C252 O255 1.252 . S
C252 O256 1.260 . S
O253 In247 2.266 . S
O253 C250 1.252 . S
O254 In247 2.326 . S
O254 C250 1.260 . S
O255 In247 2.266 . S
O255 C252 1.252 . S
O256 In247 2.326 . S
O256 C252 1.260 . S
C257 O248 1.240 . S
C257 O249 1.252 . S
O258 In247 2.294 . S
O258 C251 1.240 . S
O259 In247 2.326 . S
O259 C251 1.252 . S
In260 O261 2.294 . S
In260 O262 2.326 . S
In260 O266 2.266 . S
In260 O267 2.326 . S
In260 O268 2.266 . S
In260 O269 2.326 . S
In260 O271 2.294 . S
In260 O272 2.326 . S
O261 In260 2.294 . S
O261 C270 1.240 . S
O262 In260 2.326 . S
O262 C270 1.252 . S
C263 O266 1.252 . S
C263 O267 1.260 . S
C264 O271 1.240 . S
C264 O272 1.252 . S
C265 O268 1.252 . S
C265 O269 1.260 . S
O266 In260 2.266 . S
O266 C263 1.252 . S
O267 In260 2.326 . S
O267 C263 1.260 . S
O268 In260 2.266 . S
O268 C265 1.252 . S
O269 In260 2.326 . S
O269 C265 1.260 . S
C270 O261 1.240 . S
C270 O262 1.252 . S
O271 In260 2.294 . S
O271 C264 1.240 . S
O272 In260 2.326 . S
O272 C264 1.252 . S
In273 O274 2.297 . S
In273 O275 2.328 . S
In273 O279 2.266 1_554 S
In273 O280 2.323 1_554 S
In273 O281 2.263 1_554 S
In273 O282 2.324 1_554 S
In273 O284 2.294 . S
In273 O285 2.329 . S
O274 In273 2.297 . S
O274 C283 1.240 . S
O275 In273 2.328 . S
O275 C283 1.252 . S
C276 O279 1.252 . S
C276 O280 1.260 . S
C277 O284 1.240 . S
C277 O285 1.252 . S
C278 O281 1.252 . S
C278 O282 1.260 . S
O279 In273 2.266 1_556 S
O279 C276 1.252 . S
O280 In273 2.323 1_556 S
O280 C276 1.260 . S
O281 In273 2.263 1_556 S
O281 C278 1.252 . S
O282 In273 2.324 1_556 S
O282 C278 1.260 . S
C283 O274 1.240 . S
C283 O275 1.252 . S
O284 In273 2.294 . S
O284 C277 1.240 . S
O285 In273 2.329 . S
O285 C277 1.252 . S
In286 O287 2.294 . S
In286 O288 2.329 . S
In286 O292 2.263 1_554 S
In286 O293 2.324 1_554 S
In286 O294 2.266 1_554 S
In286 O295 2.323 1_554 S
In286 O297 2.297 . S
In286 O298 2.328 . S
O287 In286 2.294 . S
O287 C296 1.240 . S
O288 In286 2.329 . S
O288 C296 1.252 . S
C289 O292 1.252 . S
C289 O293 1.260 . S
C290 O297 1.240 . S
C290 O298 1.252 . S
C291 O294 1.252 . S
C291 O295 1.260 . S
O292 In286 2.263 1_556 S
O292 C289 1.252 . S
O293 In286 2.324 1_556 S
O293 C289 1.260 . S
O294 In286 2.266 1_556 S
O294 C291 1.252 . S
O295 In286 2.323 1_556 S
O295 C291 1.260 . S
C296 O287 1.240 . S
C296 O288 1.252 . S
O297 In286 2.297 . S
O297 C290 1.240 . S
O298 In286 2.328 . S
O298 C290 1.252 . S
In299 O300 2.294 . S
In299 O301 2.329 . S
In299 O305 2.263 1_554 S
In299 O306 2.324 1_554 S
In299 O307 2.266 1_554 S
In299 O308 2.323 1_554 S
In299 O310 2.297 . S
In299 O311 2.328 . S
O300 In299 2.294 . S
O300 C309 1.240 . S
O301 In299 2.329 . S
O301 C309 1.252 . S
C302 O305 1.252 . S
C302 O306 1.260 . S
C303 O310 1.240 . S
C303 O311 1.252 . S
C304 O307 1.252 . S
C304 O308 1.260 . S
O305 In299 2.263 1_556 S
O305 C302 1.252 . S
O306 In299 2.324 1_556 S
O306 C302 1.260 . S
O307 In299 2.266 1_556 S
O307 C304 1.252 . S
O308 In299 2.323 1_556 S
O308 C304 1.260 . S
C309 O300 1.240 . S
C309 O301 1.252 . S
O310 In299 2.297 . S
O310 C303 1.240 . S
O311 In299 2.328 . S
O311 C303 1.252 . S
In312 O313 2.294 . S
In312 O314 2.326 . S
In312 O318 2.266 . S
In312 O319 2.326 . S
In312 O320 2.266 . S
In312 O321 2.326 . S
In312 O323 2.294 . S
In312 O324 2.326 . S
O313 In312 2.294 . S
O313 C322 1.240 . S
O314 In312 2.326 . S
O314 C322 1.252 . S
C315 O318 1.252 . S
C315 O319 1.260 . S
C316 O323 1.240 . S
C316 O324 1.252 . S
C317 O320 1.252 . S
C317 O321 1.260 . S
O318 In312 2.266 . S
O318 C315 1.252 . S
O319 In312 2.326 . S
O319 C315 1.260 . S
O320 In312 2.266 . S
O320 C317 1.252 . S
O321 In312 2.326 . S
O321 C317 1.260 . S
C322 O313 1.240 . S
C322 O314 1.252 . S
O323 In312 2.294 . S
O323 C316 1.240 . S
O324 In312 2.326 . S
O324 C316 1.252 . S
In325 O326 2.294 . S
In325 O327 2.326 . S
In325 O331 2.266 . S
In325 O332 2.326 . S
In325 O333 2.266 . S
In325 O334 2.326 . S
In325 O336 2.294 . S
In325 O337 2.326 . S
O326 In325 2.294 . S
O326 C335 1.240 . S
O327 In325 2.326 . S
O327 C335 1.252 . S
C328 O331 1.252 . S
C328 O332 1.260 . S
C329 O336 1.240 . S
C329 O337 1.252 . S
C330 O333 1.252 . S
C330 O334 1.260 . S
O331 In325 2.266 . S
O331 C328 1.252 . S
O332 In325 2.326 . S
O332 C328 1.260 . S
O333 In325 2.266 . S
O333 C330 1.252 . S
O334 In325 2.326 . S
O334 C330 1.260 . S
C335 O326 1.240 . S
C335 O327 1.252 . S
O336 In325 2.294 . S
O336 C329 1.240 . S
O337 In325 2.326 . S
O337 C329 1.252 . S
In338 O339 2.294 . S
In338 O340 2.326 . S
In338 O344 2.266 . S
In338 O345 2.326 . S
In338 O346 2.266 . S
In338 O347 2.326 . S
In338 O349 2.294 . S
In338 O350 2.326 . S
O339 In338 2.294 . S
O339 C348 1.240 . S
O340 In338 2.326 . S
O340 C348 1.252 . S
C341 O344 1.252 . S
C341 O345 1.260 . S
C342 O349 1.240 . S
C342 O350 1.252 . S
C343 O346 1.252 . S
C343 O347 1.260 . S
O344 In338 2.266 . S
O344 C341 1.252 . S
O345 In338 2.326 . S
O345 C341 1.260 . S
O346 In338 2.266 . S
O346 C343 1.252 . S
O347 In338 2.326 . S
O347 C343 1.260 . S
C348 O339 1.240 . S
C348 O340 1.252 . S
O349 In338 2.294 . S
O349 C342 1.240 . S
O350 In338 2.326 . S
O350 C342 1.252 . S
In351 O352 2.294 . S
In351 O353 2.329 . S
In351 O357 2.263 1_556 S
In351 O358 2.324 1_556 S
In351 O359 2.266 1_556 S
In351 O360 2.323 1_556 S
In351 O362 2.297 . S
In351 O363 2.328 . S
O352 In351 2.294 . S
O352 C361 1.240 . S
O353 In351 2.329 . S
O353 C361 1.252 . S
C354 O357 1.252 . S
C354 O358 1.260 . S
C355 O362 1.240 . S
C355 O363 1.252 . S
C356 O359 1.252 . S
C356 O360 1.260 . S
O357 In351 2.263 1_554 S
O357 C354 1.252 . S
O358 In351 2.324 1_554 S
O358 C354 1.260 . S
O359 In351 2.266 1_554 S
O359 C356 1.252 . S
O360 In351 2.323 1_554 S
O360 C356 1.260 . S
C361 O352 1.240 . S
C361 O353 1.252 . S
O362 In351 2.297 . S
O362 C355 1.240 . S
O363 In351 2.328 . S
O363 C355 1.252 . S
In364 O365 2.297 . S
In364 O366 2.328 . S
In364 O370 2.266 1_556 S
In364 O371 2.323 1_556 S
In364 O372 2.263 1_556 S
In364 O373 2.324 1_556 S
In364 O375 2.294 . S
In364 O376 2.329 . S
O365 In364 2.297 . S
O365 C374 1.240 . S
O366 In364 2.328 . S
O366 C374 1.252 . S
C367 O370 1.252 . S
C367 O371 1.260 . S
C368 O375 1.240 . S
C368 O376 1.252 . S
C369 O372 1.252 . S
C369 O373 1.260 . S
O370 In364 2.266 1_554 S
O370 C367 1.252 . S
O371 In364 2.323 1_554 S
O371 C367 1.260 . S
O372 In364 2.263 1_554 S
O372 C369 1.252 . S
O373 In364 2.324 1_554 S
O373 C369 1.260 . S
C374 O365 1.240 . S
C374 O366 1.252 . S
O375 In364 2.294 . S
O375 C368 1.240 . S
O376 In364 2.329 . S
O376 C368 1.252 . S
In377 O378 2.297 . S
In377 O379 2.328 . S
In377 O383 2.266 1_556 S
In377 O384 2.323 1_556 S
In377 O385 2.263 1_556 S
In377 O386 2.324 1_556 S
In377 O388 2.294 . S
In377 O389 2.329 . S
O378 In377 2.297 . S
O378 C387 1.240 . S
O379 In377 2.328 . S
O379 C387 1.252 . S
C380 O383 1.252 . S
C380 O384 1.260 . S
C381 O388 1.240 . S
C381 O389 1.252 . S
C382 O385 1.252 . S
C382 O386 1.260 . S
O383 In377 2.266 1_554 S
O383 C380 1.252 . S
O384 In377 2.323 1_554 S
O384 C380 1.260 . S
O385 In377 2.263 1_554 S
O385 C382 1.252 . S
O386 In377 2.324 1_554 S
O386 C382 1.260 . S
C387 O378 1.240 . S
C387 O379 1.252 . S
O388 In377 2.294 . S
O388 C381 1.240 . S
O389 In377 2.329 . S
O389 C381 1.252 . S
In390 O391 2.294 . S
In390 O392 2.326 . S
In390 O396 2.266 . S
In390 O397 2.326 . S
In390 O398 2.266 . S
In390 O399 2.326 . S
In390 O401 2.294 . S
In390 O402 2.326 . S
O391 In390 2.294 . S
O391 C400 1.240 . S
O392 In390 2.326 . S
O392 C400 1.252 . S
C393 O396 1.252 . S
C393 O397 1.260 . S
C394 O401 1.240 . S
C394 O402 1.252 . S
C395 O398 1.252 . S
C395 O399 1.260 . S
O396 In390 2.266 . S
O396 C393 1.252 . S
O397 In390 2.326 . S
O397 C393 1.260 . S
O398 In390 2.266 . S
O398 C395 1.252 . S
O399 In390 2.326 . S
O399 C395 1.260 . S
C400 O391 1.240 . S
C400 O392 1.252 . S
O401 In390 2.294 . S
O401 C394 1.240 . S
O402 In390 2.326 . S
O402 C394 1.252 . S
In403 O404 2.294 . S
In403 O405 2.326 . S
In403 O409 2.266 . S
In403 O410 2.326 . S
In403 O411 2.266 . S
In403 O412 2.326 . S
In403 O414 2.294 . S
In403 O415 2.326 . S
O404 In403 2.294 . S
O404 C413 1.240 . S
O405 In403 2.326 . S
O405 C413 1.252 . S
C406 O409 1.252 . S
C406 O410 1.260 . S
C407 O414 1.240 . S
C407 O415 1.252 . S
C408 O411 1.252 . S
C408 O412 1.260 . S
O409 In403 2.266 . S
O409 C406 1.252 . S
O410 In403 2.326 . S
O410 C406 1.260 . S
O411 In403 2.266 . S
O411 C408 1.252 . S
O412 In403 2.326 . S
O412 C408 1.260 . S
C413 O404 1.240 . S
C413 O405 1.252 . S
O414 In403 2.294 . S
O414 C407 1.240 . S
O415 In403 2.326 . S
O415 C407 1.252 . S
In416 O417 2.294 . S
In416 O418 2.326 . S
In416 O422 2.266 . S
In416 O423 2.326 . S
In416 O424 2.266 . S
In416 O425 2.326 . S
In416 O427 2.294 . S
In416 O428 2.326 . S
O417 In416 2.294 . S
O417 C426 1.240 . S
O418 In416 2.326 . S
O418 C426 1.252 . S
C419 O422 1.252 . S
C419 O423 1.260 . S
C420 O427 1.240 . S
C420 O428 1.252 . S
C421 O424 1.252 . S
C421 O425 1.260 . S
O422 In416 2.266 . S
O422 C419 1.252 . S
O423 In416 2.326 . S
O423 C419 1.260 . S
O424 In416 2.266 . S
O424 C421 1.252 . S
O425 In416 2.326 . S
O425 C421 1.260 . S
C426 O417 1.240 . S
C426 O418 1.252 . S
O427 In416 2.294 . S
O427 C420 1.240 . S
O428 In416 2.326 . S
O428 C420 1.252 . S
In429 O430 2.294 . S
In429 O431 2.326 . S
In429 O435 2.266 . S
In429 O436 2.326 . S
In429 O437 2.266 . S
In429 O438 2.326 . S
In429 O440 2.294 . S
In429 O441 2.326 . S
O430 In429 2.294 . S
O430 C439 1.240 . S
O431 In429 2.326 . S
O431 C439 1.252 . S
C432 O435 1.252 . S
C432 O436 1.260 . S
C433 O440 1.240 . S
C433 O441 1.252 . S
C434 O437 1.252 . S
C434 O438 1.260 . S
O435 In429 2.266 . S
O435 C432 1.252 . S
O436 In429 2.326 . S
O436 C432 1.260 . S
O437 In429 2.266 . S
O437 C434 1.252 . S
O438 In429 2.326 . S
O438 C434 1.260 . S
C439 O430 1.240 . S
C439 O431 1.252 . S
O440 In429 2.294 . S
O440 C433 1.240 . S
O441 In429 2.326 . S
O441 C433 1.252 . S
In442 O443 2.294 . S
In442 O444 2.326 . S
In442 O448 2.266 . S
In442 O449 2.326 . S
In442 O450 2.266 . S
In442 O451 2.326 . S
In442 O453 2.294 . S
In442 O454 2.326 . S
O443 In442 2.294 . S
O443 C452 1.240 . S
O444 In442 2.326 . S
O444 C452 1.252 . S
C445 O448 1.252 . S
C445 O449 1.260 . S
C446 O453 1.240 . S
C446 O454 1.252 . S
C447 O450 1.252 . S
C447 O451 1.260 . S
O448 In442 2.266 . S
O448 C445 1.252 . S
O449 In442 2.326 . S
O449 C445 1.260 . S
O450 In442 2.266 . S
O450 C447 1.252 . S
O451 In442 2.326 . S
O451 C447 1.260 . S
C452 O443 1.240 . S
C452 O444 1.252 . S
O453 In442 2.294 . S
O453 C446 1.240 . S
O454 In442 2.326 . S
O454 C446 1.252 . S
In455 O456 2.294 . S
In455 O457 2.326 . S
In455 O461 2.266 . S
In455 O462 2.326 . S
In455 O463 2.266 . S
In455 O464 2.326 . S
In455 O466 2.294 . S
In455 O467 2.326 . S
O456 In455 2.294 . S
O456 C465 1.240 . S
O457 In455 2.326 . S
O457 C465 1.252 . S
C458 O461 1.252 . S
C458 O462 1.260 . S
C459 O466 1.240 . S
C459 O467 1.252 . S
C460 O463 1.252 . S
C460 O464 1.260 . S
O461 In455 2.266 . S
O461 C458 1.252 . S
O462 In455 2.326 . S
O462 C458 1.260 . S
O463 In455 2.266 . S
O463 C460 1.252 . S
O464 In455 2.326 . S
O464 C460 1.260 . S
C465 O456 1.240 . S
C465 O457 1.252 . S
O466 In455 2.294 . S
O466 C459 1.240 . S
O467 In455 2.326 . S
O467 C459 1.252 . S
C468 C469 1.369 . S
C468 C470 1.419 . S
C468 H472 0.930 . S
C469 C468 1.369 . S
C469 C478 1.429 . S
C470 C468 1.419 . S
C470 C471 1.363 . S
C470 H473 0.929 . S
C471 C470 1.363 . S
C471 C477 1.428 . S
H472 C468 0.930 . S
H473 C470 0.929 . S
S474 N475 1.613 . S
S474 N476 1.610 . S
N475 S474 1.613 . S
N475 C478 1.350 . S
N476 S474 1.610 . S
N476 C477 1.351 . S
C477 C471 1.428 . S
C477 N476 1.351 . S
C477 C478 1.434 . S
C478 C469 1.429 . S
C478 N475 1.350 . S
C478 C477 1.434 . S
C479 C480 1.369 . S
C479 C481 1.419 1_545 S
C479 H483 0.930 . S
C480 C479 1.369 . S
C480 C489 1.429 . S
C481 C479 1.419 1_565 S
C481 C482 1.363 . S
C481 H484 0.929 . S
C482 C481 1.363 . S
C482 C488 1.428 . S
H483 C479 0.930 . S
H484 C481 0.929 . S
S485 N486 1.613 1_565 S
S485 N487 1.610 . S
N486 S485 1.613 1_545 S
N486 C489 1.350 . S
N487 S485 1.610 . S
N487 C488 1.351 . S
C488 C482 1.428 . S
C488 N487 1.351 . S
C488 C489 1.434 1_565 S
C489 C480 1.429 . S
C489 N486 1.350 . S
C489 C488 1.434 1_545 S
C490 C491 1.369 . S
C490 C492 1.419 1_655 S
C490 H494 0.930 . S
C491 C490 1.369 . S
C491 C500 1.429 . S
C492 C490 1.419 1_455 S
C492 C493 1.363 . S
C492 H495 0.929 . S
C493 C492 1.363 . S
C493 C499 1.428 . S
H494 C490 0.930 . S
H495 C492 0.929 . S
S496 N497 1.613 1_455 S
S496 N498 1.610 . S
N497 S496 1.613 1_655 S
N497 C500 1.350 . S
N498 S496 1.610 . S
N498 C499 1.351 . S
C499 C493 1.428 . S
C499 N498 1.351 . S
C499 C500 1.434 1_455 S
C500 C491 1.429 . S
C500 N497 1.350 . S
C500 C499 1.434 1_655 S
C501 C502 1.369 . S
C501 C503 1.419 . S
C501 H505 0.930 . S
C502 C501 1.369 . S
C502 C511 1.429 . S
C503 C501 1.419 . S
C503 C504 1.363 . S
C503 H506 0.929 . S
C504 C503 1.363 . S
C504 C510 1.428 . S
H505 C501 0.930 . S
H506 C503 0.929 . S
S507 N508 1.613 . S
S507 N509 1.610 . S
N508 S507 1.613 . S
N508 C511 1.350 . S
N509 S507 1.610 . S
N509 C510 1.351 . S
C510 C504 1.428 . S
C510 N509 1.351 . S
C510 C511 1.434 . S
C511 C502 1.429 . S
C511 N508 1.350 . S
C511 C510 1.434 . S
C512 C513 1.369 . S
C512 C514 1.419 1_545 S
C512 H516 0.930 . S
C513 C512 1.369 . S
C513 C522 1.429 . S
C514 C512 1.419 1_565 S
C514 C515 1.363 . S
C514 H517 0.929 . S
C515 C514 1.363 . S
C515 C521 1.428 . S
H516 C512 0.930 . S
H517 C514 0.929 . S
S518 N519 1.613 . S
S518 N520 1.610 1_545 S
N519 S518 1.613 . S
N519 C522 1.350 . S
N520 S518 1.610 1_565 S
N520 C521 1.351 . S
C521 C515 1.428 . S
C521 N520 1.351 . S
C521 C522 1.434 1_565 S
C522 C513 1.429 . S
C522 N519 1.350 . S
C522 C521 1.434 1_545 S
C523 C524 1.369 . S
C523 C525 1.419 1_455 S
C523 H527 0.930 . S
C524 C523 1.369 . S
C524 C533 1.429 . S
C525 C523 1.419 1_655 S
C525 C526 1.363 . S
C525 H528 0.929 . S
C526 C525 1.363 . S
C526 C532 1.428 . S
H527 C523 0.930 . S
H528 C525 0.929 . S
S529 N530 1.613 . S
S529 N531 1.610 1_455 S
N530 S529 1.613 . S
N530 C533 1.350 . S
N531 S529 1.610 1_655 S
N531 C532 1.351 . S
C532 C526 1.428 . S
C532 N531 1.351 . S
C532 C533 1.434 1_655 S
C533 C524 1.429 . S
C533 N530 1.350 . S
C533 C532 1.434 1_455 S
C534 C535 1.369 . S
C534 C536 1.419 . S
C534 H538 0.930 . S
C535 C534 1.369 . S
C535 C544 1.429 . S
C536 C534 1.419 . S
C536 C537 1.363 . S
C536 H539 0.929 . S
C537 C536 1.363 . S
C537 C543 1.428 . S
H538 C534 0.930 . S
H539 C536 0.929 . S
S540 N541 1.613 . S
S540 N542 1.610 . S
N541 S540 1.613 . S
N541 C544 1.350 . S
N542 S540 1.610 . S
N542 C543 1.351 . S
C543 C537 1.428 . S
C543 N542 1.351 . S
C543 C544 1.434 . S
C544 C535 1.429 . S
C544 N541 1.350 . S
C544 C543 1.434 . S
C545 C546 1.369 . S
C545 C547 1.419 . S
C545 H549 0.930 . S
C546 C545 1.369 . S
C546 C555 1.429 . S
C547 C545 1.419 . S
C547 C548 1.363 . S
C547 H550 0.929 . S
C548 C547 1.363 . S
C548 C554 1.428 . S
H549 C545 0.930 . S
H550 C547 0.929 . S
S551 N552 1.613 . S
S551 N553 1.610 . S
N552 S551 1.613 . S
N552 C555 1.350 . S
N553 S551 1.610 . S
N553 C554 1.351 . S
C554 C548 1.428 . S
C554 N553 1.351 . S
C554 C555 1.434 . S
C555 C546 1.429 . S
C555 N552 1.350 . S
C555 C554 1.434 . S
C556 C557 1.369 . S
C556 C558 1.419 . S
C556 H560 0.930 . S
C557 C556 1.369 . S
C557 C566 1.429 . S
C558 C556 1.419 . S
C558 C559 1.363 . S
C558 H561 0.929 . S
C559 C558 1.363 . S
C559 C565 1.428 . S
H560 C556 0.930 . S
H561 C558 0.929 . S
S562 N563 1.613 . S
S562 N564 1.610 . S
N563 S562 1.613 . S
N563 C566 1.350 . S
N564 S562 1.610 . S
N564 C565 1.351 . S
C565 C559 1.428 . S
C565 N564 1.351 . S
C565 C566 1.434 . S
C566 C557 1.429 . S
C566 N563 1.350 . S
C566 C565 1.434 . S
C567 C568 1.369 . S
C567 C569 1.419 . S
C567 H571 0.930 . S
C568 C567 1.369 . S
C568 C577 1.429 . S
C569 C567 1.419 . S
C569 C570 1.363 . S
C569 H572 0.929 . S
C570 C569 1.363 . S
C570 C576 1.428 . S
H571 C567 0.930 . S
H572 C569 0.929 . S
S573 N574 1.613 . S
S573 N575 1.610 . S
N574 S573 1.613 . S
N574 C577 1.350 . S
N575 S573 1.610 . S
N575 C576 1.351 . S
C576 C570 1.428 . S
C576 N575 1.351 . S
C576 C577 1.434 . S
C577 C568 1.429 . S
C577 N574 1.350 . S
C577 C576 1.434 . S
C578 C579 1.369 . S
C578 C580 1.419 . S
C578 H582 0.930 . S
C579 C578 1.369 . S
C579 C588 1.429 . S
C580 C578 1.419 . S
C580 C581 1.363 . S
C580 H583 0.929 . S
C581 C580 1.363 . S
C581 C587 1.428 . S
H582 C578 0.930 . S
H583 C580 0.929 . S
S584 N585 1.613 . S
S584 N586 1.610 . S
N585 S584 1.613 . S
N585 C588 1.350 . S
N586 S584 1.610 . S
N586 C587 1.351 . S
C587 C581 1.428 . S
C587 N586 1.351 . S
C587 C588 1.434 . S
C588 C579 1.429 . S
C588 N585 1.350 . S
C588 C587 1.434 . S
C589 C590 1.369 . S
C589 C591 1.419 . S
C589 H593 0.930 . S
C590 C589 1.369 . S
C590 C599 1.429 . S
C591 C589 1.419 . S
C591 C592 1.363 . S
C591 H594 0.929 . S
C592 C591 1.363 . S
C592 C598 1.428 . S
H593 C589 0.930 . S
H594 C591 0.929 . S
S595 N596 1.613 . S
S595 N597 1.610 . S
N596 S595 1.613 . S
N596 C599 1.350 . S
N597 S595 1.610 . S
N597 C598 1.351 . S
C598 C592 1.428 . S
C598 N597 1.351 . S
C598 C599 1.434 . S
C599 C590 1.429 . S
C599 N596 1.350 . S
C599 C598 1.434 . S
C600 C601 1.369 . S
C600 C602 1.419 . S
C600 H604 0.930 . S
C601 C600 1.369 . S
C601 C610 1.429 . S
C602 C600 1.419 . S
C602 C603 1.363 . S
C602 H605 0.929 . S
C603 C602 1.363 . S
C603 C609 1.428 . S
H604 C600 0.930 . S
H605 C602 0.929 . S
S606 N607 1.613 . S
S606 N608 1.610 . S
N607 S606 1.613 . S
N607 C610 1.350 . S
N608 S606 1.610 . S
N608 C609 1.351 . S
C609 C603 1.428 . S
C609 N608 1.351 . S
C609 C610 1.434 . S
C610 C601 1.429 . S
C610 N607 1.350 . S
C610 C609 1.434 . S
C611 C612 1.369 . S
C611 C613 1.419 . S
C611 H615 0.930 . S
C612 C611 1.369 . S
C612 C621 1.429 . S
C613 C611 1.419 . S
C613 C614 1.363 . S
C613 H616 0.929 . S
C614 C613 1.363 . S
C614 C620 1.428 . S
H615 C611 0.930 . S
H616 C613 0.929 . S
S617 N618 1.613 1_554 S
S617 N619 1.610 . S
N618 S617 1.613 1_556 S
N618 C621 1.350 . S
N619 S617 1.610 . S
N619 C620 1.351 1_554 S
C620 C614 1.428 . S
C620 N619 1.351 1_556 S
C620 C621 1.434 . S
C621 C612 1.429 . S
C621 N618 1.350 . S
C621 C620 1.434 . S
C622 C623 1.369 . S
C622 C624 1.419 . S
C622 H626 0.930 1_556 S
C623 C622 1.369 . S
C623 C632 1.429 . S
C624 C622 1.419 . S
C624 C625 1.363 . S
C624 H627 0.929 . S
C625 C624 1.363 . S
C625 C631 1.428 . S
H626 C622 0.930 1_554 S
H627 C624 0.929 . S
S628 N629 1.613 . S
S628 N630 1.610 . S
N629 S628 1.613 . S
N629 C632 1.350 . S
N630 S628 1.610 . S
N630 C631 1.351 . S
C631 C625 1.428 . S
C631 N630 1.351 . S
C631 C632 1.434 . S
C632 C623 1.429 . S
C632 N629 1.350 . S
C632 C631 1.434 . S
C633 C634 1.369 . S
C633 C635 1.419 . S
C633 H637 0.930 . S
C634 C633 1.369 . S
C634 C643 1.429 . S
C635 C633 1.419 . S
C635 C636 1.363 . S
C635 H638 0.929 . S
C636 C635 1.363 . S
C636 C642 1.428 . S
H637 C633 0.930 . S
H638 C635 0.929 . S
S639 N640 1.613 . S
S639 N641 1.610 . S
N640 S639 1.613 . S
N640 C643 1.350 . S
N641 S639 1.610 . S
N641 C642 1.351 . S
C642 C636 1.428 . S
C642 N641 1.351 . S
C642 C643 1.434 . S
C643 C634 1.429 . S
C643 N640 1.350 . S
C643 C642 1.434 . S
C644 C645 1.369 . S
C644 C646 1.419 . S
C644 H648 0.930 . S
C645 C644 1.369 . S
C645 C654 1.429 . S
C646 C644 1.419 . S
C646 C647 1.363 . S
C646 H649 0.929 . S
C647 C646 1.363 . S
C647 C653 1.428 . S
H648 C644 0.930 . S
H649 C646 0.929 . S
S650 N651 1.613 . S
S650 N652 1.610 . S
N651 S650 1.613 . S
N651 C654 1.350 . S
N652 S650 1.610 . S
N652 C653 1.351 . S
C653 C647 1.428 . S
C653 N652 1.351 . S
C653 C654 1.434 . S
C654 C645 1.429 . S
C654 N651 1.350 . S
C654 C653 1.434 . S
C655 C656 1.369 . S
C655 C657 1.419 . S
C655 H659 0.930 . S
C656 C655 1.369 . S
C656 C665 1.429 . S
C657 C655 1.419 . S
C657 C658 1.363 . S
C657 H660 0.929 . S
C658 C657 1.363 . S
C658 C664 1.428 . S
H659 C655 0.930 . S
H660 C657 0.929 . S
S661 N662 1.613 . S
S661 N663 1.610 . S
N662 S661 1.613 . S
N662 C665 1.350 . S
N663 S661 1.610 . S
N663 C664 1.351 . S
C664 C658 1.428 . S
C664 N663 1.351 . S
C664 C665 1.434 . S
C665 C656 1.429 . S
C665 N662 1.350 . S
C665 C664 1.434 . S
C666 C667 1.369 . S
C666 C668 1.419 . S
C666 H670 0.930 . S
C667 C666 1.369 . S
C667 C676 1.429 . S
C668 C666 1.419 . S
C668 C669 1.363 . S
C668 H671 0.929 . S
C669 C668 1.363 . S
C669 C675 1.428 . S
H670 C666 0.930 . S
H671 C668 0.929 . S
S672 N673 1.613 1_554 S
S672 N674 1.610 . S
N673 S672 1.613 1_556 S
N673 C676 1.350 . S
N674 S672 1.610 . S
N674 C675 1.351 1_554 S
C675 C669 1.428 . S
C675 N674 1.351 1_556 S
C675 C676 1.434 . S
C676 C667 1.429 . S
C676 N673 1.350 . S
C676 C675 1.434 . S
C677 C678 1.369 . S
C677 C679 1.419 . S
C677 H681 0.930 1_556 S
C678 C677 1.369 . S
C678 C687 1.429 . S
C679 C677 1.419 . S
C679 C680 1.363 . S
C679 H682 0.929 . S
C680 C679 1.363 . S
C680 C686 1.428 . S
H681 C677 0.930 1_554 S
H682 C679 0.929 . S
S683 N684 1.613 . S
S683 N685 1.610 . S
N684 S683 1.613 . S
N684 C687 1.350 . S
N685 S683 1.610 . S
N685 C686 1.351 . S
C686 C680 1.428 . S
C686 N685 1.351 . S
C686 C687 1.434 . S
C687 C678 1.429 . S
C687 N684 1.350 . S
C687 C686 1.434 . S
C688 C689 1.369 . S
C688 C690 1.419 . S
C688 H692 0.930 1_556 S
C689 C688 1.369 . S
C689 C698 1.429 . S
C690 C688 1.419 . S
C690 C691 1.363 . S
C690 H693 0.929 . S
C691 C690 1.363 . S
C691 C697 1.428 . S
H692 C688 0.930 1_554 S
H693 C690 0.929 . S
S694 N695 1.613 . S
S694 N696 1.610 . S
N695 S694 1.613 . S
N695 C698 1.350 . S
N696 S694 1.610 . S
N696 C697 1.351 . S
C697 C691 1.428 . S
C697 N696 1.351 . S
C697 C698 1.434 . S
C698 C689 1.429 . S
C698 N695 1.350 . S
C698 C697 1.434 . S
C699 C700 1.369 . S
C699 C701 1.419 . S
C699 H703 0.930 . S
C700 C699 1.369 . S
C700 C709 1.429 . S
C701 C699 1.419 . S
C701 C702 1.363 . S
C701 H704 0.929 . S
C702 C701 1.363 . S
C702 C708 1.428 . S
H703 C699 0.930 . S
H704 C701 0.929 . S
S705 N706 1.613 . S
S705 N707 1.610 . S
N706 S705 1.613 . S
N706 C709 1.350 . S
N707 S705 1.610 . S
N707 C708 1.351 . S
C708 C702 1.428 . S
C708 N707 1.351 . S
C708 C709 1.434 . S
C709 C700 1.429 . S
C709 N706 1.350 . S
C709 C708 1.434 . S
C710 C711 1.369 . S
C710 C712 1.419 . S
C710 H714 0.930 . S
C711 C710 1.369 . S
C711 C720 1.429 . S
C712 C710 1.419 . S
C712 C713 1.363 . S
C712 H715 0.929 . S
C713 C712 1.363 . S
C713 C719 1.428 . S
H714 C710 0.930 . S
H715 C712 0.929 . S
S716 N717 1.613 . S
S716 N718 1.610 . S
N717 S716 1.613 . S
N717 C720 1.350 . S
N718 S716 1.610 . S
N718 C719 1.351 . S
C719 C713 1.428 . S
C719 N718 1.351 . S
C719 C720 1.434 . S
C720 C711 1.429 . S
C720 N717 1.350 . S
C720 C719 1.434 . S
C721 C722 1.369 . S
C721 C723 1.419 . S
C721 H725 0.930 . S
C722 C721 1.369 . S
C722 C731 1.429 . S
C723 C721 1.419 . S
C723 C724 1.363 . S
C723 H726 0.929 . S
C724 C723 1.363 . S
C724 C730 1.428 . S
H725 C721 0.930 . S
H726 C723 0.929 . S
S727 N728 1.613 . S
S727 N729 1.610 . S
N728 S727 1.613 . S
N728 C731 1.350 . S
N729 S727 1.610 . S
N729 C730 1.351 . S
C730 C724 1.428 . S
C730 N729 1.351 . S
C730 C731 1.434 . S
C731 C722 1.429 . S
C731 N728 1.350 . S
C731 C730 1.434 . S
C732 C733 1.369 . S
C732 C734 1.419 . S
C732 H736 0.930 . S
C733 C732 1.369 . S
C733 C742 1.429 . S
C734 C732 1.419 . S
C734 C735 1.363 . S
C734 H737 0.929 . S
C735 C734 1.363 . S
C735 C741 1.428 . S
H736 C732 0.930 . S
H737 C734 0.929 . S
S738 N739 1.613 1_554 S
S738 N740 1.610 . S
N739 S738 1.613 1_556 S
N739 C742 1.350 1_556 S
N740 S738 1.610 . S
N740 C741 1.351 . S
C741 C735 1.428 . S
C741 N740 1.351 . S
C741 C742 1.434 . S
C742 C733 1.429 . S
C742 N739 1.350 1_554 S
C742 C741 1.434 . S
C743 C744 1.369 . S
C743 C745 1.419 . S
C743 H747 0.930 . S
C744 C743 1.369 . S
C744 C753 1.429 . S
C745 C743 1.419 . S
C745 C746 1.363 . S
C745 H748 0.929 . S
C746 C745 1.363 . S
C746 C752 1.428 . S
H747 C743 0.930 . S
H748 C745 0.929 . S
S749 N750 1.613 . S
S749 N751 1.610 1_556 S
N750 S749 1.613 . S
N750 C753 1.350 1_556 S
N751 S749 1.610 1_554 S
N751 C752 1.351 . S
C752 C746 1.428 . S
C752 N751 1.351 . S
C752 C753 1.434 . S
C753 C744 1.429 . S
C753 N750 1.350 1_554 S
C753 C752 1.434 . S
C754 C755 1.369 . S
C754 C756 1.419 . S
C754 H758 0.930 . S
C755 C754 1.369 . S
C755 C764 1.429 . S
C756 C754 1.419 . S
C756 C757 1.363 . S
C756 H759 0.929 . S
C757 C756 1.363 . S
C757 C763 1.428 . S
H758 C754 0.930 . S
H759 C756 0.929 . S
S760 N761 1.613 . S
S760 N762 1.610 . S
N761 S760 1.613 . S
N761 C764 1.350 . S
N762 S760 1.610 . S
N762 C763 1.351 . S
C763 C757 1.428 . S
C763 N762 1.351 . S
C763 C764 1.434 . S
C764 C755 1.429 . S
C764 N761 1.350 . S
C764 C763 1.434 . S
C765 C766 1.369 . S
C765 C767 1.419 . S
C765 H769 0.930 . S
C766 C765 1.369 . S
C766 C775 1.429 . S
C767 C765 1.419 . S
C767 C768 1.363 . S
C767 H770 0.929 . S
C768 C767 1.363 . S
C768 C774 1.428 . S
H769 C765 0.930 . S
H770 C767 0.929 . S
S771 N772 1.613 . S
S771 N773 1.610 . S
N772 S771 1.613 . S
N772 C775 1.350 . S
N773 S771 1.610 . S
N773 C774 1.351 . S
C774 C768 1.428 . S
C774 N773 1.351 . S
C774 C775 1.434 . S
C775 C766 1.429 . S
C775 N772 1.350 . S
C775 C774 1.434 . S
C776 C777 1.369 . S
C776 C778 1.419 . S
C776 H780 0.930 . S
C777 C776 1.369 . S
C777 C786 1.429 . S
C778 C776 1.419 . S
C778 C779 1.363 . S
C778 H781 0.929 . S
C779 C778 1.363 . S
C779 C785 1.428 . S
H780 C776 0.930 . S
H781 C778 0.929 . S
S782 N783 1.613 . S
S782 N784 1.610 . S
N783 S782 1.613 . S
N783 C786 1.350 . S
N784 S782 1.610 . S
N784 C785 1.351 . S
C785 C779 1.428 . S
C785 N784 1.351 . S
C785 C786 1.434 . S
C786 C777 1.429 . S
C786 N783 1.350 . S
C786 C785 1.434 . S
C787 C788 1.369 . S
C787 C789 1.419 . S
C787 H791 0.930 . S
C788 C787 1.369 . S
C788 C797 1.429 . S
C789 C787 1.419 . S
C789 C790 1.363 . S
C789 H792 0.929 . S
C790 C789 1.363 . S
C790 C796 1.428 . S
H791 C787 0.930 . S
H792 C789 0.929 . S
S793 N794 1.613 . S
S793 N795 1.610 . S
N794 S793 1.613 . S
N794 C797 1.350 . S
N795 S793 1.610 . S
N795 C796 1.351 . S
C796 C790 1.428 . S
C796 N795 1.351 . S
C796 C797 1.434 . S
C797 C788 1.429 . S
C797 N794 1.350 . S
C797 C796 1.434 . S
C798 C799 1.369 . S
C798 C800 1.419 . S
C798 H802 0.930 . S
C799 C798 1.369 . S
C799 C808 1.429 . S
C800 C798 1.419 . S
C800 C801 1.363 . S
C800 H803 0.929 . S
C801 C800 1.363 . S
C801 C807 1.428 . S
H802 C798 0.930 . S
H803 C800 0.929 . S
S804 N805 1.613 . S
S804 N806 1.610 . S
N805 S804 1.613 . S
N805 C808 1.350 . S
N806 S804 1.610 . S
N806 C807 1.351 . S
C807 C801 1.428 . S
C807 N806 1.351 . S
C807 C808 1.434 . S
C808 C799 1.429 . S
C808 N805 1.350 . S
C808 C807 1.434 . S
C809 C810 1.369 . S
C809 C811 1.419 . S
C809 H813 0.930 . S
C810 C809 1.369 . S
C810 C819 1.429 . S
C811 C809 1.419 . S
C811 C812 1.363 . S
C811 H814 0.929 . S
C812 C811 1.363 . S
C812 C818 1.428 . S
H813 C809 0.930 . S
H814 C811 0.929 . S
S815 N816 1.613 . S
S815 N817 1.610 . S
N816 S815 1.613 . S
N816 C819 1.350 . S
N817 S815 1.610 . S
N817 C818 1.351 . S
C818 C812 1.428 . S
C818 N817 1.351 . S
C818 C819 1.434 . S
C819 C810 1.429 . S
C819 N816 1.350 . S
C819 C818 1.434 . S
C820 C821 1.369 . S
C820 C822 1.419 . S
C820 H824 0.930 . S
C821 C820 1.369 . S
C821 C830 1.429 . S
C822 C820 1.419 . S
C822 C823 1.363 . S
C822 H825 0.929 . S
C823 C822 1.363 . S
C823 C829 1.428 . S
H824 C820 0.930 . S
H825 C822 0.929 . S
S826 N827 1.613 . S
S826 N828 1.610 . S
N827 S826 1.613 . S
N827 C830 1.350 . S
N828 S826 1.610 . S
N828 C829 1.351 . S
C829 C823 1.428 . S
C829 N828 1.351 . S
C829 C830 1.434 . S
C830 C821 1.429 . S
C830 N827 1.350 . S
C830 C829 1.434 . S
C831 C832 1.369 . S
C831 C833 1.419 . S
C831 H835 0.930 . S
C832 C831 1.369 . S
C832 C841 1.429 . S
C833 C831 1.419 . S
C833 C834 1.363 . S
C833 H836 0.929 . S
C834 C833 1.363 . S
C834 C840 1.428 . S
H835 C831 0.930 . S
H836 C833 0.929 . S
S837 N838 1.613 1_554 S
S837 N839 1.610 . S
N838 S837 1.613 1_556 S
N838 C841 1.350 . S
N839 S837 1.610 . S
N839 C840 1.351 1_554 S
C840 C834 1.428 . S
C840 N839 1.351 1_556 S
C840 C841 1.434 . S
C841 C832 1.429 . S
C841 N838 1.350 . S
C841 C840 1.434 . S
C842 C843 1.369 . S
C842 C844 1.419 . S
C842 H846 0.930 . S
C843 C842 1.369 . S
C843 C852 1.429 . S
C844 C842 1.419 . S
C844 C845 1.363 . S
C844 H847 0.929 . S
C845 C844 1.363 . S
C845 C851 1.428 . S
H846 C842 0.930 . S
H847 C844 0.929 . S
S848 N849 1.613 . S
S848 N850 1.610 . S
N849 S848 1.613 . S
N849 C852 1.350 . S
N850 S848 1.610 . S
N850 C851 1.351 . S
C851 C845 1.428 . S
C851 N850 1.351 . S
C851 C852 1.434 . S
C852 C843 1.429 . S
C852 N849 1.350 . S
C852 C851 1.434 . S
C853 C854 1.369 . S
C853 C855 1.419 . S
C853 H857 0.930 . S
C854 C853 1.369 . S
C854 C863 1.429 . S
C855 C853 1.419 . S
C855 C856 1.363 . S
C855 H858 0.929 . S
C856 C855 1.363 . S
C856 C862 1.428 . S
H857 C853 0.930 . S
H858 C855 0.929 . S
S859 N860 1.613 1_554 S
S859 N861 1.610 . S
N860 S859 1.613 1_556 S
N860 C863 1.350 . S
N861 S859 1.610 . S
N861 C862 1.351 1_554 S
C862 C856 1.428 . S
C862 N861 1.351 1_556 S
C862 C863 1.434 . S
C863 C854 1.429 . S
C863 N860 1.350 . S
C863 C862 1.434 . S
C864 C865 1.369 . S
C864 C866 1.419 . S
C864 H868 0.930 . S
C865 C864 1.369 . S
C865 C874 1.429 . S
C866 C864 1.419 . S
C866 C867 1.363 . S
C866 H869 0.929 . S
C867 C866 1.363 . S
C867 C873 1.428 . S
H868 C864 0.930 . S
H869 C866 0.929 . S
S870 N871 1.613 . S
S870 N872 1.610 . S
N871 S870 1.613 . S
N871 C874 1.350 . S
N872 S870 1.610 . S
N872 C873 1.351 . S
C873 C867 1.428 . S
C873 N872 1.351 . S
C873 C874 1.434 . S
C874 C865 1.429 . S
C874 N871 1.350 . S
C874 C873 1.434 . S
C875 C876 1.369 . S
C875 C877 1.419 . S
C875 H879 0.930 . S
C876 C875 1.369 . S
C876 C885 1.429 . S
C877 C875 1.419 . S
C877 C878 1.363 . S
C877 H880 0.929 . S
C878 C877 1.363 . S
C878 C884 1.428 . S
H879 C875 0.930 . S
H880 C877 0.929 . S
S881 N882 1.613 . S
S881 N883 1.610 . S
N882 S881 1.613 . S
N882 C885 1.350 . S
N883 S881 1.610 . S
N883 C884 1.351 . S
C884 C878 1.428 . S
C884 N883 1.351 . S
C884 C885 1.434 . S
C885 C876 1.429 . S
C885 N882 1.350 . S
C885 C884 1.434 . S
C886 C887 1.369 . S
C886 C888 1.419 . S
C886 H890 0.930 . S
C887 C886 1.369 . S
C887 C896 1.429 . S
C888 C886 1.419 . S
C888 C889 1.363 . S
C888 H891 0.929 . S
C889 C888 1.363 . S
C889 C895 1.428 . S
H890 C886 0.930 . S
H891 C888 0.929 . S
S892 N893 1.613 . S
S892 N894 1.610 . S
N893 S892 1.613 . S
N893 C896 1.350 . S
N894 S892 1.610 . S
N894 C895 1.351 . S
C895 C889 1.428 . S
C895 N894 1.351 . S
C895 C896 1.434 . S
C896 C887 1.429 . S
C896 N893 1.350 . S
C896 C895 1.434 . S
C897 C898 1.369 . S
C897 C899 1.419 . S
C897 H901 0.930 . S
C898 C897 1.369 . S
C898 C907 1.429 . S
C899 C897 1.419 . S
C899 C900 1.363 . S
C899 H902 0.929 . S
C900 C899 1.363 . S
C900 C906 1.428 . S
H901 C897 0.930 . S
H902 C899 0.929 . S
S903 N904 1.613 . S
S903 N905 1.610 . S
N904 S903 1.613 . S
N904 C907 1.350 . S
N905 S903 1.610 . S
N905 C906 1.351 . S
C906 C900 1.428 . S
C906 N905 1.351 . S
C906 C907 1.434 . S
C907 C898 1.429 . S
C907 N904 1.350 . S
C907 C906 1.434 . S
C908 C909 1.369 . S
C908 C910 1.419 . S
C908 H912 0.930 . S
C909 C908 1.369 . S
C909 C918 1.429 . S
C910 C908 1.419 . S
C910 C911 1.363 . S
C910 H913 0.929 . S
C911 C910 1.363 . S
C911 C917 1.428 . S
H912 C908 0.930 . S
H913 C910 0.929 . S
S914 N915 1.613 . S
S914 N916 1.610 . S
N915 S914 1.613 . S
N915 C918 1.350 . S
N916 S914 1.610 . S
N916 C917 1.351 . S
C917 C911 1.428 . S
C917 N916 1.351 . S
C917 C918 1.434 . S
C918 C909 1.429 . S
C918 N915 1.350 . S
C918 C917 1.434 . S
C919 C920 1.369 . S
C919 C921 1.419 . S
C919 H923 0.930 . S
C920 C919 1.369 . S
C920 C929 1.429 . S
C921 C919 1.419 . S
C921 C922 1.363 . S
C921 H924 0.929 . S
C922 C921 1.363 . S
C922 C928 1.428 . S
H923 C919 0.930 . S
H924 C921 0.929 . S
S925 N926 1.613 . S
S925 N927 1.610 . S
N926 S925 1.613 . S
N926 C929 1.350 . S
N927 S925 1.610 . S
N927 C928 1.351 . S
C928 C922 1.428 . S
C928 N927 1.351 . S
C928 C929 1.434 . S
C929 C920 1.429 . S
C929 N926 1.350 . S
C929 C928 1.434 . S
C930 C931 1.369 . S
C930 C932 1.419 . S
C930 H934 0.930 . S
C931 C930 1.369 . S
C931 C940 1.429 . S
C932 C930 1.419 . S
C932 C933 1.363 . S
C932 H935 0.929 . S
C933 C932 1.363 . S
C933 C939 1.428 . S
H934 C930 0.930 . S
H935 C932 0.929 . S
S936 N937 1.613 . S
S936 N938 1.610 . S
N937 S936 1.613 . S
N937 C940 1.350 . S
N938 S936 1.610 . S
N938 C939 1.351 . S
C939 C933 1.428 . S
C939 N938 1.351 . S
C939 C940 1.434 . S
C940 C931 1.429 . S
C940 N937 1.350 . S
C940 C939 1.434 . S
C941 C942 1.369 . S
C941 C943 1.419 . S
C941 H945 0.930 . S
C942 C941 1.369 . S
C942 C951 1.429 . S
C943 C941 1.419 . S
C943 C944 1.363 . S
C943 H946 0.929 . S
C944 C943 1.363 . S
C944 C950 1.428 . S
H945 C941 0.930 . S
H946 C943 0.929 . S
S947 N948 1.613 . S
S947 N949 1.610 . S
N948 S947 1.613 . S
N948 C951 1.350 . S
N949 S947 1.610 . S
N949 C950 1.351 . S
C950 C944 1.428 . S
C950 N949 1.351 . S
C950 C951 1.434 . S
C951 C942 1.429 . S
C951 N948 1.350 . S
C951 C950 1.434 . S
C952 C953 1.369 . S
C952 C954 1.419 . S
C952 H956 0.930 . S
C953 C952 1.369 . S
C953 C962 1.429 . S
C954 C952 1.419 . S
C954 C955 1.363 . S
C954 H957 0.929 . S
C955 C954 1.363 . S
C955 C961 1.428 . S
H956 C952 0.930 . S
H957 C954 0.929 . S
S958 N959 1.613 . S
S958 N960 1.610 . S
N959 S958 1.613 . S
N959 C962 1.350 . S
N960 S958 1.610 . S
N960 C961 1.351 . S
C961 C955 1.428 . S
C961 N960 1.351 . S
C961 C962 1.434 . S
C962 C953 1.429 . S
C962 N959 1.350 . S
C962 C961 1.434 . S
C963 C964 1.369 . S
C963 C965 1.419 . S
C963 H967 0.930 . S
C964 C963 1.369 . S
C964 C973 1.429 . S
C965 C963 1.419 . S
C965 C966 1.363 . S
C965 H968 0.929 . S
C966 C965 1.363 . S
C966 C972 1.428 . S
H967 C963 0.930 . S
H968 C965 0.929 . S
S969 N970 1.613 . S
S969 N971 1.610 . S
N970 S969 1.613 . S
N970 C973 1.350 . S
N971 S969 1.610 . S
N971 C972 1.351 . S
C972 C966 1.428 . S
C972 N971 1.351 . S
C972 C973 1.434 . S
C973 C964 1.429 . S
C973 N970 1.350 . S
C973 C972 1.434 . S
C974 C975 1.369 . S
C974 C976 1.419 . S
C974 H978 0.930 . S
C975 C974 1.369 . S
C975 C984 1.429 . S
C976 C974 1.419 . S
C976 C977 1.363 . S
C976 H979 0.929 . S
C977 C976 1.363 . S
C977 C983 1.428 . S
H978 C974 0.930 . S
H979 C976 0.929 . S
S980 N981 1.613 . S
S980 N982 1.610 . S
N981 S980 1.613 . S
N981 C984 1.350 . S
N982 S980 1.610 . S
N982 C983 1.351 . S
C983 C977 1.428 . S
C983 N982 1.351 . S
C983 C984 1.434 . S
C984 C975 1.429 . S
C984 N981 1.350 . S
C984 C983 1.434 . S
C985 C986 1.369 . S
C985 C987 1.419 . S
C985 H989 0.930 . S
C986 C985 1.369 . S
C986 C995 1.429 . S
C987 C985 1.419 . S
C987 C988 1.363 . S
C987 H990 0.929 . S
C988 C987 1.363 . S
C988 C994 1.428 . S
H989 C985 0.930 . S
H990 C987 0.929 . S
S991 N992 1.613 . S
S991 N993 1.610 . S
N992 S991 1.613 . S
N992 C995 1.350 . S
N993 S991 1.610 . S
N993 C994 1.351 . S
C994 C988 1.428 . S
C994 N993 1.351 . S
C994 C995 1.434 . S
C995 C986 1.429 . S
C995 N992 1.350 . S
C995 C994 1.434 . S
C996 C997 1.369 . S
C996 C998 1.419 . S
C996 H1000 0.930 . S
C997 C996 1.369 . S
C997 C1006 1.429 . S
C998 C996 1.419 . S
C998 C999 1.363 . S
C998 H1001 0.929 . S
C999 C998 1.363 . S
C999 C1005 1.428 . S
H1000 C996 0.930 . S
H1001 C998 0.929 . S
S1002 N1003 1.613 . S
S1002 N1004 1.610 . S
N1003 S1002 1.613 . S
N1003 C1006 1.350 . S
N1004 S1002 1.610 . S
N1004 C1005 1.351 . S
C1005 C999 1.428 . S
C1005 N1004 1.351 . S
C1005 C1006 1.434 . S
C1006 C997 1.429 . S
C1006 N1003 1.350 . S
C1006 C1005 1.434 . S
C1007 C1008 1.369 . S
C1007 C1009 1.419 . S
C1007 H1011 0.930 . S
C1008 C1007 1.369 . S
C1008 C1017 1.429 . S
C1009 C1007 1.419 . S
C1009 C1010 1.363 . S
C1009 H1012 0.929 . S
C1010 C1009 1.363 . S
C1010 C1016 1.428 . S
H1011 C1007 0.930 . S
H1012 C1009 0.929 . S
S1013 N1014 1.613 . S
S1013 N1015 1.610 . S
N1014 S1013 1.613 . S
N1014 C1017 1.350 . S
N1015 S1013 1.610 . S
N1015 C1016 1.351 . S
C1016 C1010 1.428 . S
C1016 N1015 1.351 . S
C1016 C1017 1.434 . S
C1017 C1008 1.429 . S
C1017 N1014 1.350 . S
C1017 C1016 1.434 . S
C1018 C1019 1.369 . S
C1018 C1020 1.419 . S
C1018 H1022 0.930 . S
C1019 C1018 1.369 . S
C1019 C1028 1.429 . S
C1020 C1018 1.419 . S
C1020 C1021 1.363 . S
C1020 H1023 0.929 . S
C1021 C1020 1.363 . S
C1021 C1027 1.428 . S
H1022 C1018 0.930 . S
H1023 C1020 0.929 . S
S1024 N1025 1.613 . S
S1024 N1026 1.610 . S
N1025 S1024 1.613 . S
N1025 C1028 1.350 . S
N1026 S1024 1.610 . S
N1026 C1027 1.351 . S
C1027 C1021 1.428 . S
C1027 N1026 1.351 . S
C1027 C1028 1.434 . S
C1028 C1019 1.429 . S
C1028 N1025 1.350 . S
C1028 C1027 1.434 . S
C1029 C1030 1.369 . S
C1029 C1031 1.419 . S
C1029 H1033 0.930 . S
C1030 C1029 1.369 . S
C1030 C1039 1.429 . S
C1031 C1029 1.419 . S
C1031 C1032 1.363 . S
C1031 H1034 0.929 . S
C1032 C1031 1.363 . S
C1032 C1038 1.428 . S
H1033 C1029 0.930 . S
H1034 C1031 0.929 . S
S1035 N1036 1.613 . S
S1035 N1037 1.610 . S
N1036 S1035 1.613 . S
N1036 C1039 1.350 . S
N1037 S1035 1.610 . S
N1037 C1038 1.351 . S
C1038 C1032 1.428 . S
C1038 N1037 1.351 . S
C1038 C1039 1.434 . S
C1039 C1030 1.429 . S
C1039 N1036 1.350 . S
C1039 C1038 1.434 . S
C1040 C1041 1.369 . S
C1040 C1042 1.419 . S
C1040 H1044 0.930 . S
C1041 C1040 1.369 . S
C1041 C1050 1.429 . S
C1042 C1040 1.419 . S
C1042 C1043 1.363 . S
C1042 H1045 0.929 . S
C1043 C1042 1.363 . S
C1043 C1049 1.428 . S
H1044 C1040 0.930 . S
H1045 C1042 0.929 . S
S1046 N1047 1.613 1_554 S
S1046 N1048 1.610 . S
N1047 S1046 1.613 1_556 S
N1047 C1050 1.350 1_556 S
N1048 S1046 1.610 . S
N1048 C1049 1.351 . S
C1049 C1043 1.428 . S
C1049 N1048 1.351 . S
C1049 C1050 1.434 . S
C1050 C1041 1.429 . S
C1050 N1047 1.350 1_554 S
C1050 C1049 1.434 . S
C1051 C1052 1.369 . S
C1051 C1053 1.419 . S
C1051 H1055 0.930 1_554 S
C1052 C1051 1.369 . S
C1052 C1061 1.429 . S
C1053 C1051 1.419 . S
C1053 C1054 1.363 . S
C1053 H1056 0.929 . S
C1054 C1053 1.363 . S
C1054 C1060 1.428 . S
H1055 C1051 0.930 1_556 S
H1056 C1053 0.929 . S
S1057 N1058 1.613 . S
S1057 N1059 1.610 . S
N1058 S1057 1.613 . S
N1058 C1061 1.350 . S
N1059 S1057 1.610 . S
N1059 C1060 1.351 . S
C1060 C1054 1.428 . S
C1060 N1059 1.351 . S
C1060 C1061 1.434 . S
C1061 C1052 1.429 . S
C1061 N1058 1.350 . S
C1061 C1060 1.434 . S
C1062 C1063 1.369 . S
C1062 C1064 1.419 . S
C1062 H1066 0.930 . S
C1063 C1062 1.369 . S
C1063 C1072 1.429 . S
C1064 C1062 1.419 . S
C1064 C1065 1.363 . S
C1064 H1067 0.929 . S
C1065 C1064 1.363 . S
C1065 C1071 1.428 . S
H1066 C1062 0.930 . S
H1067 C1064 0.929 . S
S1068 N1069 1.613 . S
S1068 N1070 1.610 . S
N1069 S1068 1.613 . S
N1069 C1072 1.350 1_556 S
N1070 S1068 1.610 . S
N1070 C1071 1.351 1_556 S
C1071 C1065 1.428 . S
C1071 N1070 1.351 1_554 S
C1071 C1072 1.434 . S
C1072 C1063 1.429 . S
C1072 N1069 1.350 1_554 S
C1072 C1071 1.434 . S
C1073 C1074 1.369 . S
C1073 C1075 1.419 . S
C1073 H1077 0.930 . S
C1074 C1073 1.369 . S
C1074 C1083 1.429 . S
C1075 C1073 1.419 . S
C1075 C1076 1.363 . S
C1075 H1078 0.929 . S
C1076 C1075 1.363 . S
C1076 C1082 1.428 . S
H1077 C1073 0.930 . S
H1078 C1075 0.929 . S
S1079 N1080 1.613 . S
S1079 N1081 1.610 . S
N1080 S1079 1.613 . S
N1080 C1083 1.350 . S
N1081 S1079 1.610 . S
N1081 C1082 1.351 . S
C1082 C1076 1.428 . S
C1082 N1081 1.351 . S
C1082 C1083 1.434 . S
C1083 C1074 1.429 . S
C1083 N1080 1.350 . S
C1083 C1082 1.434 . S
C1084 C1085 1.369 . S
C1084 C1086 1.419 . S
C1084 H1088 0.930 1_554 S
C1085 C1084 1.369 . S
C1085 C1094 1.429 . S
C1086 C1084 1.419 . S
C1086 C1087 1.363 . S
C1086 H1089 0.929 . S
C1087 C1086 1.363 . S
C1087 C1093 1.428 . S
H1088 C1084 0.930 1_556 S
H1089 C1086 0.929 . S
S1090 N1091 1.613 . S
S1090 N1092 1.610 . S
N1091 S1090 1.613 . S
N1091 C1094 1.350 . S
N1092 S1090 1.610 . S
N1092 C1093 1.351 . S
C1093 C1087 1.428 . S
C1093 N1092 1.351 . S
C1093 C1094 1.434 . S
C1094 C1085 1.429 . S
C1094 N1091 1.350 . S
C1094 C1093 1.434 . S
C1095 C1096 1.369 . S
C1095 C1097 1.419 . S
C1095 H1099 0.930 . S
C1096 C1095 1.369 . S
C1096 C1105 1.429 . S
C1097 C1095 1.419 . S
C1097 C1098 1.363 . S
C1097 H1100 0.929 . S
C1098 C1097 1.363 . S
C1098 C1104 1.428 . S
H1099 C1095 0.930 . S
H1100 C1097 0.929 . S
S1101 N1102 1.613 . S
S1101 N1103 1.610 . S
N1102 S1101 1.613 . S
N1102 C1105 1.350 . S
N1103 S1101 1.610 . S
N1103 C1104 1.351 . S
C1104 C1098 1.428 . S
C1104 N1103 1.351 . S
C1104 C1105 1.434 . S
C1105 C1096 1.429 . S
C1105 N1102 1.350 . S
C1105 C1104 1.434 . S
C1106 C1107 1.369 . S
C1106 C1108 1.419 . S
C1106 H1110 0.930 . S
C1107 C1106 1.369 . S
C1107 C1116 1.429 . S
C1108 C1106 1.419 . S
C1108 C1109 1.363 . S
C1108 H1111 0.929 . S
C1109 C1108 1.363 . S
C1109 C1115 1.428 . S
H1110 C1106 0.930 . S
H1111 C1108 0.929 . S
S1112 N1113 1.613 . S
S1112 N1114 1.610 . S
N1113 S1112 1.613 . S
N1113 C1116 1.350 . S
N1114 S1112 1.610 . S
N1114 C1115 1.351 . S
C1115 C1109 1.428 . S
C1115 N1114 1.351 . S
C1115 C1116 1.434 . S
C1116 C1107 1.429 . S
C1116 N1113 1.350 . S
C1116 C1115 1.434 . S
C1117 C1118 1.369 . S
C1117 C1119 1.419 . S
C1117 H1121 0.930 . S
C1118 C1117 1.369 . S
C1118 C1127 1.429 . S
C1119 C1117 1.419 . S
C1119 C1120 1.363 . S
C1119 H1122 0.929 . S
C1120 C1119 1.363 . S
C1120 C1126 1.428 . S
H1121 C1117 0.930 . S
H1122 C1119 0.929 . S
S1123 N1124 1.613 . S
S1123 N1125 1.610 . S
N1124 S1123 1.613 . S
N1124 C1127 1.350 . S
N1125 S1123 1.610 . S
N1125 C1126 1.351 . S
C1126 C1120 1.428 . S
C1126 N1125 1.351 . S
C1126 C1127 1.434 . S
C1127 C1118 1.429 . S
C1127 N1124 1.350 . S
C1127 C1126 1.434 . S
C1128 C1129 1.369 . S
C1128 C1130 1.419 . S
C1128 H1132 0.930 . S
C1129 C1128 1.369 . S
C1129 C1138 1.429 . S
C1130 C1128 1.419 . S
C1130 C1131 1.363 . S
C1130 H1133 0.929 . S
C1131 C1130 1.363 . S
C1131 C1137 1.428 . S
H1132 C1128 0.930 . S
H1133 C1130 0.929 . S
S1134 N1135 1.613 1_554 S
S1134 N1136 1.610 1_554 S
N1135 S1134 1.613 1_556 S
N1135 C1138 1.350 . S
N1136 S1134 1.610 1_556 S
N1136 C1137 1.351 . S
C1137 C1131 1.428 . S
C1137 N1136 1.351 . S
C1137 C1138 1.434 . S
C1138 C1129 1.429 . S
C1138 N1135 1.350 . S
C1138 C1137 1.434 . S
C1139 C1140 1.369 . S
C1139 C1141 1.419 . S
C1139 H1143 0.930 . S
C1140 C1139 1.369 . S
C1140 C1149 1.429 . S
C1141 C1139 1.419 . S
C1141 C1142 1.363 . S
C1141 H1144 0.929 . S
C1142 C1141 1.363 . S
C1142 C1148 1.428 . S
H1143 C1139 0.930 . S
H1144 C1141 0.929 . S
S1145 N1146 1.613 . S
S1145 N1147 1.611 . S
N1146 S1145 1.613 . S
N1146 C1149 1.350 1_554 S
N1147 S1145 1.611 . S
N1147 C1148 1.350 1_554 S
C1148 C1142 1.428 . S
C1148 N1147 1.350 1_556 S
C1148 C1149 1.434 . S
C1149 C1140 1.429 . S
C1149 N1146 1.350 1_556 S
C1149 C1148 1.434 . S
C1150 C1151 1.369 . S
C1150 C1152 1.419 . S
C1150 H1154 0.930 . S
C1151 C1150 1.369 . S
C1151 C1160 1.429 . S
C1152 C1150 1.419 . S
C1152 C1153 1.363 . S
C1152 H1155 0.929 . S
C1153 C1152 1.363 . S
C1153 C1159 1.428 . S
H1154 C1150 0.930 . S
H1155 C1152 0.929 . S
S1156 N1157 1.613 . S
S1156 N1158 1.610 . S
N1157 S1156 1.613 . S
N1157 C1160 1.350 . S
N1158 S1156 1.610 . S
N1158 C1159 1.351 . S
C1159 C1153 1.428 . S
C1159 N1158 1.351 . S
C1159 C1160 1.434 . S
C1160 C1151 1.429 . S
C1160 N1157 1.350 . S
C1160 C1159 1.434 . S
C1161 C1162 1.369 . S
C1161 C1163 1.419 . S
C1161 H1165 0.930 . S
C1162 C1161 1.369 . S
C1162 C1171 1.429 . S
C1163 C1161 1.419 . S
C1163 C1164 1.363 . S
C1163 H1166 0.929 . S
C1164 C1163 1.363 . S
C1164 C1170 1.428 . S
H1165 C1161 0.930 . S
H1166 C1163 0.929 . S
S1167 N1168 1.613 . S
S1167 N1169 1.610 . S
N1168 S1167 1.613 . S
N1168 C1171 1.350 . S
N1169 S1167 1.610 . S
N1169 C1170 1.351 . S
C1170 C1164 1.428 . S
C1170 N1169 1.351 . S
C1170 C1171 1.434 . S
C1171 C1162 1.429 . S
C1171 N1168 1.350 . S
C1171 C1170 1.434 . S
C1172 C1173 1.369 . S
C1172 C1174 1.419 . S
C1172 H1176 0.930 . S
C1173 C1172 1.369 . S
C1173 C1182 1.429 . S
C1174 C1172 1.419 . S
C1174 C1175 1.363 . S
C1174 H1177 0.929 . S
C1175 C1174 1.363 . S
C1175 C1181 1.428 . S
H1176 C1172 0.930 . S
H1177 C1174 0.929 . S
S1178 N1179 1.613 . S
S1178 N1180 1.610 . S
N1179 S1178 1.613 . S
N1179 C1182 1.350 . S
N1180 S1178 1.610 . S
N1180 C1181 1.351 . S
C1181 C1175 1.428 . S
C1181 N1180 1.351 . S
C1181 C1182 1.434 . S
C1182 C1173 1.429 . S
C1182 N1179 1.350 . S
C1182 C1181 1.434 . S
C1183 C1184 1.369 . S
C1183 C1185 1.419 . S
C1183 H1187 0.930 . S
C1184 C1183 1.369 . S
C1184 C1193 1.429 . S
C1185 C1183 1.419 . S
C1185 C1186 1.363 . S
C1185 H1188 0.929 . S
C1186 C1185 1.363 . S
C1186 C1192 1.428 . S
H1187 C1183 0.930 . S
H1188 C1185 0.929 . S
S1189 N1190 1.613 . S
S1189 N1191 1.610 . S
N1190 S1189 1.613 . S
N1190 C1193 1.350 . S
N1191 S1189 1.610 . S
N1191 C1192 1.351 . S
C1192 C1186 1.428 . S
C1192 N1191 1.351 . S
C1192 C1193 1.434 . S
C1193 C1184 1.429 . S
C1193 N1190 1.350 . S
C1193 C1192 1.434 . S
C1194 C1195 1.369 . S
C1194 C1196 1.419 1_455 S
C1194 H1198 0.930 . S
C1195 C1194 1.369 . S
C1195 C1204 1.429 . S
C1196 C1194 1.419 1_655 S
C1196 C1197 1.363 . S
C1196 H1199 0.929 . S
C1197 C1196 1.363 . S
C1197 C1203 1.428 . S
H1198 C1194 0.930 . S
H1199 C1196 0.929 . S
S1200 N1201 1.645 . S
S1200 N1202 1.599 1_455 S
N1201 S1200 1.645 . S
N1201 C1204 1.350 . S
N1202 S1200 1.599 1_655 S
N1202 C1203 1.351 . S
C1203 C1197 1.428 . S
C1203 N1202 1.351 . S
C1203 C1204 1.434 1_655 S
C1204 C1195 1.429 . S
C1204 N1201 1.350 . S
C1204 C1203 1.434 1_455 S
C1205 C1206 1.369 . S
C1205 C1207 1.419 . S
C1205 H1209 0.930 . S
C1206 C1205 1.369 . S
C1206 C1215 1.429 . S
C1207 C1205 1.419 . S
C1207 C1208 1.363 . S
C1207 H1210 0.929 . S
C1208 C1207 1.363 . S
C1208 C1214 1.428 . S
H1209 C1205 0.930 . S
H1210 C1207 0.929 . S
S1211 N1212 1.613 . S
S1211 N1213 1.610 . S
N1212 S1211 1.613 . S
N1212 C1215 1.350 . S
N1213 S1211 1.610 . S
N1213 C1214 1.351 . S
C1214 C1208 1.428 . S
C1214 N1213 1.351 . S
C1214 C1215 1.434 . S
C1215 C1206 1.429 . S
C1215 N1212 1.350 . S
C1215 C1214 1.434 . S
C1216 C1217 1.369 . S
C1216 C1218 1.419 1_565 S
C1216 H1220 0.930 . S
C1217 C1216 1.369 . S
C1217 C1226 1.429 . S
C1218 C1216 1.419 1_545 S
C1218 C1219 1.363 . S
C1218 H1221 0.929 . S
C1219 C1218 1.363 . S
C1219 C1225 1.428 . S
H1220 C1216 0.930 . S
H1221 C1218 0.929 . S
S1222 N1223 1.628 . S
S1222 N1224 1.570 1_565 S
N1223 S1222 1.628 . S
N1223 C1226 1.350 . S
N1224 S1222 1.570 1_545 S
N1224 C1225 1.351 . S
C1225 C1219 1.428 . S
C1225 N1224 1.351 . S
C1225 C1226 1.434 1_545 S
C1226 C1217 1.429 . S
C1226 N1223 1.350 . S
C1226 C1225 1.434 1_565 S
C1227 C1228 1.369 . S
C1227 C1229 1.419 1_545 S
C1227 H1231 0.930 . S
C1228 C1227 1.369 . S
C1228 C1237 1.429 . S
C1229 C1227 1.419 1_565 S
C1229 C1230 1.363 . S
C1229 H1232 0.929 . S
C1230 C1229 1.363 . S
C1230 C1236 1.428 . S
H1231 C1227 0.930 . S
H1232 C1229 0.929 . S
S1233 N1234 1.613 . S
S1233 N1235 1.610 1_545 S
N1234 S1233 1.613 . S
N1234 C1237 1.350 . S
N1235 S1233 1.610 1_565 S
N1235 C1236 1.351 . S
C1236 C1230 1.428 . S
C1236 N1235 1.351 . S
C1236 C1237 1.434 1_565 S
C1237 C1228 1.429 . S
C1237 N1234 1.350 . S
C1237 C1236 1.434 1_545 S
C1238 C1239 1.369 . S
C1238 C1240 1.419 1_455 S
C1238 H1242 0.930 . S
C1239 C1238 1.369 . S
C1239 C1248 1.429 . S
C1240 C1238 1.419 1_655 S
C1240 C1241 1.363 . S
C1240 H1243 0.929 . S
C1241 C1240 1.363 . S
C1241 C1247 1.428 . S
H1242 C1238 0.930 . S
H1243 C1240 0.929 . S
S1244 N1245 1.613 1_655 S
S1244 N1246 1.610 . S
N1245 S1244 1.613 1_455 S
N1245 C1248 1.350 . S
N1246 S1244 1.610 . S
N1246 C1247 1.351 . S
C1247 C1241 1.428 . S
C1247 N1246 1.351 . S
C1247 C1248 1.434 1_655 S
C1248 C1239 1.429 . S
C1248 N1245 1.350 . S
C1248 C1247 1.434 1_455 S
C1249 C1250 1.369 . S
C1249 C1251 1.419 . S
C1249 H1253 0.930 . S
C1250 C1249 1.369 . S
C1250 C1259 1.429 . S
C1251 C1249 1.419 . S
C1251 C1252 1.363 . S
C1251 H1254 0.929 . S
C1252 C1251 1.363 . S
C1252 C1258 1.428 . S
H1253 C1249 0.930 . S
H1254 C1251 0.929 . S
S1255 N1256 1.613 . S
S1255 N1257 1.610 . S
N1256 S1255 1.613 . S
N1256 C1259 1.350 . S
N1257 S1255 1.610 . S
N1257 C1258 1.351 . S
C1258 C1252 1.428 . S
C1258 N1257 1.351 . S
C1258 C1259 1.434 . S
C1259 C1250 1.429 . S
C1259 N1256 1.350 . S
C1259 C1258 1.434 . S
C469 C43 1.270 . S
C471 C10 1.270 . S
C480 C56 1.269 . S
C482 C17 1.271 . S
C491 C69 1.269 . S
C493 C36 1.271 . S
C502 C88 1.270 . S
C504 C121 1.270 . S
C513 C95 1.270 . S
C515 C140 1.269 . S
C524 C153 1.270 . S
C526 C114 1.269 . S
C535 C160 1.271 . S
C537 C205 1.271 . S
C546 C179 1.271 . S
C548 C212 1.270 . S
C557 C186 1.269 . S
C559 C225 1.271 . S
C568 C244 1.272 . S
C570 C277 1.270 . S
C579 C296 1.270 . S
C581 C251 1.269 . S
C590 C270 1.269 . S
C592 C309 1.270 . S
C601 C322 1.271 . S
C603 C361 1.271 . S
C612 C335 1.271 . S
C614 C368 1.269 . S
C623 C381 1.272 . S
C625 C342 1.270 . S
C634 C433 1.272 . S
C636 C400 1.270 . S
C645 C452 1.271 . S
C647 C407 1.271 . S
C656 C465 1.269 . S
C658 C420 1.270 . S
C667 C147 1.634 . S
C669 C3 1.672 1_556 S
C678 C18 1.670 1_556 S
C680 C127 1.638 . S
C689 C29 1.670 1_556 S
C691 C134 1.637 . S
C700 C101 1.641 . S
C702 C44 1.673 . S
C711 C57 1.674 . S
C713 C108 1.636 . S
C722 C82 1.635 . S
C724 C70 1.672 . S
C733 C81 1.672 1_554 S
C735 C75 1.634 . S
C744 C96 1.672 1_554 S
C746 C49 1.636 . S
C755 C62 1.640 . S
C757 C107 1.671 1_554 S
C766 C23 1.637 . S
C768 C122 1.674 . S
C777 C30 1.641 . S
C779 C133 1.672 . S
C788 C146 1.674 . S
C790 C4 1.638 . S
C799 C161 1.669 . S
C801 C303 1.633 . S
C810 C283 1.634 . S
C812 C172 1.666 . S
C821 C290 1.636 . S
C823 C187 1.667 . S
C832 C198 1.672 . S
C834 C257 1.636 1_556 S
C843 C264 1.641 1_556 S
C845 C213 1.673 . S
C854 C226 1.672 . S
C856 C238 1.636 1_556 S
C865 C237 1.671 . S
C867 C231 1.636 . S
C876 C252 1.673 . S
C878 C199 1.637 . S
C887 C218 1.635 . S
C889 C263 1.673 . S
C898 C173 1.641 . S
C900 C278 1.678 . S
C909 C192 1.643 . S
C911 C289 1.677 . S
C920 C302 1.675 . S
C922 C166 1.640 . S
C931 C459 1.634 . S
C933 C315 1.672 . S
C942 C328 1.673 . S
C944 C439 1.638 . S
C953 C343 1.672 . S
C955 C446 1.635 . S
C964 C354 1.675 . S
C966 C413 1.640 . S
C975 C426 1.643 . S
C977 C369 1.678 . S
C986 C382 1.676 . S
C988 C394 1.640 . S
C997 C387 1.635 . S
C999 C393 1.667 . S
C1008 C355 1.631 . S
C1010 C408 1.667 . S
C1019 C374 1.633 . S
C1021 C421 1.666 . S
C1030 C329 1.635 1_554 S
C1032 C434 1.674 . S
C1041 C348 1.634 1_554 S
C1043 C445 1.672 . S
C1052 C316 1.636 1_554 S
C1054 C458 1.674 . S
C1063 C380 1.514 . S
C1065 C5 1.519 . S
C1074 C16 1.515 . S
C1076 C356 1.516 . S
C1085 C367 1.520 . S
C1087 C31 1.518 . S
C1096 C42 1.521 . S
C1098 C174 1.518 . S
C1107 C185 1.515 . S
C1109 C55 1.519 . S
C1118 C68 1.521 . S
C1120 C159 1.517 . S
C1129 C83 1.520 . S
C1131 C304 1.518 . S
C1140 C276 1.518 . S
C1142 C94 1.520 . S
C1151 C109 1.520 . S
C1153 C291 1.518 . S
C1162 C120 1.515 . S
C1164 C406 1.517 . S
C1173 C135 1.515 . S
C1175 C419 1.517 . S
C1184 C395 1.519 . S
C1186 C148 1.516 . S
C1195 C330 1.520 . S
C1197 C200 1.520 . S
C1206 C341 1.515 . S
C1208 C211 1.517 . S
C1217 C317 1.520 . S
C1219 C224 1.520 . S
C1228 C239 1.521 . S
C1230 C460 1.517 . S
C1239 C432 1.517 . S
C1241 C250 1.520 . S
C1250 C265 1.521 . S
C1252 C447 1.517 . S
