# Generated by pormake.
# Topology fst, (5)-cn, num edge types: 1
# Building blocks:
#     Node 0, Type 0, BuildingBlock: BEQFEK_clean_sbu_0, # of connection points: 5
#     Node 1, Type 0, BuildingBlock: BEQFEK_clean_sbu_0, # of connection points: 5
#     Node 2, Type 0, BuildingBlock: BEQFEK_clean_sbu_0, # of connection points: 5
#     Node 3, Type 0, BuildingBlock: BEQFEK_clean_sbu_0, # of connection points: 5
#     Node 4, Type 0, BuildingBlock: BEQFEK_clean_sbu_0, # of connection points: 5
#     Node 5, Type 0, BuildingBlock: BEQFEK_clean_sbu_0, # of connection points: 5
#     Node 6, Type 0, BuildingBlock: BEQFEK_clean_sbu_0, # of connection points: 5
#     Node 7, Type 0, BuildingBlock: BEQFEK_clean_sbu_0, # of connection points: 5
#     Node 8, Type 0, BuildingBlock: BEQFEK_clean_sbu_0, # of connection points: 5
#     Node 9, Type 0, BuildingBlock: BEQFEK_clean_sbu_0, # of connection points: 5
#     Node 10, Type 0, BuildingBlock: BEQFEK_clean_sbu_0, # of connection points: 5
#     Node 11, Type 0, BuildingBlock: BEQFEK_clean_sbu_0, # of connection points: 5
#     Edge 12, Type (0, 0), BuildingBlock: EZIPEK_clean_linker_0, # of connection points: 2
#     Edge 13, Type (0, 0), BuildingBlock: EZIPEK_clean_linker_0, # of connection points: 2
#     Edge 14, Type (0, 0), BuildingBlock: EZIPEK_clean_linker_0, # of connection points: 2
#     Edge 15, Type (0, 0), BuildingBlock: EZIPEK_clean_linker_0, # of connection points: 2
#     Edge 16, Type (0, 0), BuildingBlock: EZIPEK_clean_linker_0, # of connection points: 2
#     Edge 17, Type (0, 0), BuildingBlock: EZIPEK_clean_linker_0, # of connection points: 2
#     Edge 18, Type (0, 0), BuildingBlock: EZIPEK_clean_linker_0, # of connection points: 2
#     Edge 19, Type (0, 0), BuildingBlock: EZIPEK_clean_linker_0, # of connection points: 2
#     Edge 20, Type (0, 0), BuildingBlock: EZIPEK_clean_linker_0, # of connection points: 2
#     Edge 21, Type (0, 0), BuildingBlock: EZIPEK_clean_linker_0, # of connection points: 2
#     Edge 22, Type (0, 0), BuildingBlock: EZIPEK_clean_linker_0, # of connection points: 2
#     Edge 23, Type (0, 0), BuildingBlock: EZIPEK_clean_linker_0, # of connection points: 2
#     Edge 24, Type (0, 0), BuildingBlock: EZIPEK_clean_linker_0, # of connection points: 2
#     Edge 25, Type (0, 0), BuildingBlock: EZIPEK_clean_linker_0, # of connection points: 2
#     Edge 26, Type (0, 0), BuildingBlock: EZIPEK_clean_linker_0, # of connection points: 2
#     Edge 27, Type (0, 0), BuildingBlock: EZIPEK_clean_linker_0, # of connection points: 2
#     Edge 28, Type (0, 0), BuildingBlock: EZIPEK_clean_linker_0, # of connection points: 2
#     Edge 29, Type (0, 0), BuildingBlock: EZIPEK_clean_linker_0, # of connection points: 2
#     Edge 30, Type (0, 0), BuildingBlock: EZIPEK_clean_linker_0, # of connection points: 2
#     Edge 31, Type (0, 0), BuildingBlock: EZIPEK_clean_linker_0, # of connection points: 2
#     Edge 32, Type (0, 0), BuildingBlock: EZIPEK_clean_linker_0, # of connection points: 2
#     Edge 33, Type (0, 0), BuildingBlock: EZIPEK_clean_linker_0, # of connection points: 2
#     Edge 34, Type (0, 0), BuildingBlock: EZIPEK_clean_linker_0, # of connection points: 2
#     Edge 35, Type (0, 0), BuildingBlock: EZIPEK_clean_linker_0, # of connection points: 2
#     Edge 36, Type (0, 0), BuildingBlock: EZIPEK_clean_linker_0, # of connection points: 2
#     Edge 37, Type (0, 0), BuildingBlock: EZIPEK_clean_linker_0, # of connection points: 2
#     Edge 38, Type (0, 0), BuildingBlock: EZIPEK_clean_linker_0, # of connection points: 2
#     Edge 39, Type (0, 0), BuildingBlock: EZIPEK_clean_linker_0, # of connection points: 2
#     Edge 40, Type (0, 0), BuildingBlock: EZIPEK_clean_linker_0, # of connection points: 2
#     Edge 41, Type (0, 0), BuildingBlock: EZIPEK_clean_linker_0, # of connection points: 2
# Relax obj value: 0.025
# Max RMSD: 0.073
# Mean RMSD: 0.073
data_MOF--net-fst--node1-BEQFEK_clean_sbu_0--edge1-EZIPEK_clean_linker_0
_symmetry_space_group_name_H-M    P1
_symmetry_Int_Tables_number       1
_symmetry_cell_setting            triclinic
loop_
_symmetry_equiv_pos_as_xyz
'x, y, z'
_cell_length_a     55.925239
_cell_length_b     55.927779
_cell_length_c     15.537025
_cell_angle_alpha  89.994413
_cell_angle_beta   90.059695
_cell_angle_gamma 119.99907
loop_
_atom_site_label
_atom_site_type_symbol
_atom_site_fract_x
_atom_site_fract_y
_atom_site_fract_z
_atom_type_partial_charge
Co0 Co 0.11217 0.45946 0.25756 0.0
Co1 Co 0.11198 0.46281 0.05415 0.0
C2 C 0.06075 0.4254 0.15116 0.0
O3 O 0.07338 0.43333 0.22293 0.0
O4 O 0.07318 0.43431 0.0795 0.0
C5 C 0.09956 0.43556 0.42995 0.0
O6 O 0.07957 0.41344 0.39312 0.0
C7 C 0.10521 0.44877 0.86829 0.0
C8 C 0.13737 0.4881 0.8119 0.0
C9 C 0.11695 0.46163 0.79092 0.0
N10 N 0.11826 0.46683 0.93253 0.0
N11 N 0.13741 0.49029 0.8982 0.0
C12 C 0.08184 0.42002 0.88097 0.0
H13 H 0.08572 0.41078 0.93876 0.0
H14 H 0.07894 0.40705 0.82349 0.0
H15 H 0.06262 0.42074 0.8922 0.0
C16 C 0.15931 0.4506 0.21817 0.0
N17 N 0.13797 0.45382 0.19359 0.0
N18 N 0.13737 0.45451 0.10883 0.0
C19 C 0.15797 0.45119 0.07716 0.0
C20 C 0.17255 0.4487 0.14529 0.0
C21 C 0.16759 0.4505 0.30955 0.0
H22 H 0.15379 0.4298 0.33711 0.0
H23 H 0.1892 0.45482 0.31414 0.0
H24 H 0.16522 0.46597 0.34752 0.0
O25 O 0.11857 0.49712 0.23758 0.0
O26 O 0.11753 0.49899 0.09467 0.0
H27 H 0.18053 0.44595 0.97271 0.0
H28 H 0.1457 0.43789 0.94745 0.0
C29 C 0.16468 0.45202 0.98369 0.0
H30 H 0.17261 0.47328 0.95904 0.0
H31 H 0.15049 0.50788 0.93384 0.0
O32 O 0.11569 0.45637 0.3845 0.0
C33 C 0.11986 0.50988 0.16839 0.0
Co34 Co 0.65374 0.11158 0.29292 0.0
Co35 Co 0.65287 0.11247 0.08994 0.0
C36 C 0.63693 0.06042 0.18757 0.0
O37 O 0.64254 0.07315 0.25931 0.0
O38 O 0.64006 0.07291 0.11612 0.0
C39 C 0.66728 0.10139 0.46476 0.0
O40 O 0.67431 0.08483 0.42681 0.0
C41 C 0.65966 0.1049 0.90409 0.0
C42 C 0.65966 0.14141 0.84937 0.0
C43 C 0.66144 0.1184 0.82739 0.0
N44 N 0.65719 0.11948 0.96887 0.0
N45 N 0.65715 0.14122 0.93552 0.0
C46 C 0.65964 0.07836 0.91562 0.0
H47 H 0.63851 0.06189 0.93315 0.0
H48 H 0.67362 0.08046 0.96945 0.0
H49 H 0.66612 0.07232 0.85581 0.0
C50 C 0.71016 0.15853 0.2621 0.0
N51 N 0.68602 0.13741 0.23379 0.0
N52 N 0.68622 0.13696 0.14901 0.0
C53 C 0.71087 0.15742 0.12107 0.0
C54 C 0.72668 0.17182 0.19166 0.0
C55 C 0.71652 0.1668 0.35443 0.0
H56 H 0.6988 0.16729 0.38464 0.0
H57 H 0.71952 0.15111 0.38861 0.0
H58 H 0.73549 0.18726 0.36132 0.0
O59 O 0.62258 0.11792 0.267 0.0
O60 O 0.62284 0.11966 0.12401 0.0
H61 H 0.70845 0.17535 0.00253 0.0
H62 H 0.74137 0.17784 0.02154 0.0
C63 C 0.71871 0.1643 0.02863 0.0
H64 H 0.71185 0.14511 0.99103 0.0
H65 H 0.65522 0.15588 0.97174 0.0
O66 O 0.65881 0.11474 0.42004 0.0
C67 C 0.61293 0.121 0.1963 0.0
Co68 Co 0.54378 0.6539 0.26172 0.0
Co69 Co 0.54152 0.6512 0.05861 0.0
C70 C 0.57834 0.63683 0.15812 0.0
O71 O 0.57064 0.64218 0.22919 0.0
O72 O 0.5692 0.63971 0.08588 0.0
C73 C 0.56716 0.6658 0.43378 0.0
O74 O 0.58959 0.66872 0.39702 0.0
C75 C 0.55618 0.65959 0.87309 0.0
C76 C 0.51633 0.65089 0.81639 0.0
C77 C 0.54309 0.65792 0.79562 0.0
N78 N 0.53794 0.65392 0.93715 0.0
N79 N 0.51422 0.64882 0.90265 0.0
C80 C 0.58512 0.66552 0.88591 0.0
H81 H 0.585 0.64568 0.89143 0.0
H82 H 0.59364 0.67722 0.94663 0.0
H83 H 0.59835 0.67726 0.8306 0.0
C84 C 0.55311 0.71 0.22452 0.0
N85 N 0.54984 0.68554 0.19886 0.0
N86 N 0.54971 0.68472 0.11413 0.0
C87 C 0.55319 0.7088 0.08336 0.0
C88 C 0.55533 0.72553 0.15217 0.0
C89 C 0.55258 0.71763 0.31641 0.0
H90 H 0.53314 0.70173 0.34695 0.0
H91 H 0.56999 0.71786 0.35129 0.0
H92 H 0.55424 0.7382 0.32212 0.0
O93 O 0.50639 0.6221 0.23915 0.0
O94 O 0.50502 0.62088 0.09617 0.0
H95 H 0.53154 0.70147 0.96424 0.0
H96 H 0.55829 0.73689 0.97982 0.0
C97 C 0.55261 0.71504 0.99002 0.0
H98 H 0.56717 0.71074 0.95413 0.0
H99 H 0.49644 0.64363 0.93812 0.0
O100 O 0.5461 0.66031 0.38827 0.0
C101 C 0.49391 0.61132 0.16891 0.0
Co102 Co 0.88925 0.54131 0.26438 0.0
Co103 Co 0.89307 0.54328 0.06115 0.0
C104 C 0.94243 0.57827 0.1678 0.0
O105 O 0.92803 0.56855 0.23576 0.0
O106 O 0.93186 0.57103 0.09282 0.0
C107 C 0.89657 0.56579 0.4339 0.0
O108 O 0.9101 0.58948 0.3933 0.0
C109 C 0.89984 0.55807 0.87451 0.0
C110 C 0.86679 0.51887 0.81967 0.0
C111 C 0.8873 0.54516 0.79774 0.0
N112 N 0.88708 0.54016 0.9393 0.0
N113 N 0.86743 0.5168 0.90577 0.0
C114 C 0.92354 0.58671 0.88608 0.0
H115 H 0.92127 0.59554 0.94746 0.0
H116 H 0.92497 0.60007 0.83116 0.0
H117 H 0.94294 0.58591 0.88945 0.0
C118 C 0.84211 0.55013 0.22421 0.0
N119 N 0.86421 0.54809 0.20066 0.0
N120 N 0.86675 0.55028 0.11626 0.0
C121 C 0.84671 0.55442 0.08399 0.0
C122 C 0.83042 0.55433 0.15116 0.0
C123 C 0.83159 0.54687 0.31428 0.0
H124 H 0.84229 0.5673 0.3463 0.0
H125 H 0.80908 0.53934 0.31508 0.0
H126 H 0.83595 0.53241 0.35061 0.0
O127 O 0.88362 0.50412 0.23784 0.0
O128 O 0.88706 0.50653 0.09525 0.0
H129 H 0.83363 0.53618 0.95972 0.0
H130 H 0.82734 0.56427 0.98002 0.0
C131 C 0.84212 0.55676 0.99029 0.0
H132 H 0.86203 0.57114 0.95907 0.0
H133 H 0.85437 0.49936 0.94195 0.0
O134 O 0.88555 0.54331 0.39149 0.0
C135 C 0.88379 0.49354 0.16545 0.0
Co136 Co 0.35373 0.89213 0.30144 0.0
Co137 Co 0.34765 0.88965 0.10232 0.0
C138 C 0.36635 0.94219 0.18942 0.0
O139 O 0.36548 0.93055 0.2609 0.0
O140 O 0.35856 0.92861 0.11937 0.0
C141 C 0.33387 0.89064 0.47572 0.0
O142 O 0.31147 0.88819 0.43988 0.0
C143 C 0.34348 0.894 0.91438 0.0
C144 C 0.32748 0.8505 0.87611 0.0
C145 C 0.33538 0.87647 0.84385 0.0
N146 N 0.33995 0.87888 0.98538 0.0
N147 N 0.33072 0.85301 0.9619 0.0
C148 C 0.35606 0.92471 0.91427 0.0
H149 H 0.37558 0.93419 0.95173 0.0
H150 H 0.34178 0.93021 0.94659 0.0
H151 H 0.36027 0.93317 0.8479 0.0
C152 C 0.29638 0.84236 0.28381 0.0
N153 N 0.31934 0.86459 0.25281 0.0
N154 N 0.31603 0.8664 0.1696 0.0
C155 C 0.29019 0.84699 0.14703 0.0
C156 C 0.27716 0.83088 0.21801 0.0
C157 C 0.29378 0.83002 0.37096 0.0
H158 H 0.31433 0.83804 0.40073 0.0
H159 H 0.28061 0.83493 0.41214 0.0
H160 H 0.2835 0.80719 0.36612 0.0
O161 O 0.38315 0.88434 0.27187 0.0
O162 O 0.38016 0.88503 0.12961 0.0
H163 H 0.27882 0.82651 0.02517 0.0
H164 H 0.2556 0.83708 0.06486 0.0
C165 C 0.27777 0.84336 0.05933 0.0
H166 H 0.28859 0.86277 0.02183 0.0
H167 H 0.32693 0.83709 0.00461 0.0
O168 O 0.35339 0.89308 0.42823 0.0
C169 C 0.39163 0.8828 0.19756 0.0
Co170 Co 0.45939 0.34925 0.27223 0.0
Co171 Co 0.46008 0.34945 0.06905 0.0
C172 C 0.4241 0.36511 0.16689 0.0
O173 O 0.43231 0.36058 0.23841 0.0
O174 O 0.43272 0.36138 0.09493 0.0
C175 C 0.43553 0.33559 0.44355 0.0
O176 O 0.41199 0.32851 0.40508 0.0
C177 C 0.44595 0.34267 0.88303 0.0
C178 C 0.48264 0.34293 0.82892 0.0
C179 C 0.45782 0.34103 0.80653 0.0
N180 N 0.46295 0.34517 0.9481 0.0
N181 N 0.48483 0.34536 0.91512 0.0
C182 C 0.41938 0.3426 0.89408 0.0
H183 H 0.42395 0.36372 0.91146 0.0
H184 H 0.40747 0.32864 0.94784 0.0
H185 H 0.40691 0.33605 0.8341 0.0
C186 C 0.45009 0.29281 0.24138 0.0
N187 N 0.45296 0.31688 0.21304 0.0
N188 N 0.45194 0.31646 0.12831 0.0
C189 C 0.44772 0.2918 0.10039 0.0
C190 C 0.44661 0.27614 0.17096 0.0
C191 C 0.45218 0.2866 0.33372 0.0
H192 H 0.47074 0.30416 0.36315 0.0
H193 H 0.43383 0.28421 0.3685 0.0
H194 H 0.45315 0.26736 0.34088 0.0
O195 O 0.49664 0.38069 0.24634 0.0
O196 O 0.49691 0.38011 0.10328 0.0
H197 H 0.46762 0.2941 0.98112 0.0
H198 H 0.43733 0.26117 0.00075 0.0
C199 C 0.44642 0.28383 0.0079 0.0
H200 H 0.4339 0.29059 0.97086 0.0
H201 H 0.50141 0.34737 0.95162 0.0
O202 O 0.45744 0.34418 0.3993 0.0
C203 C 0.50859 0.39055 0.17479 0.0
Co204 Co 0.5408 0.89107 0.06297 0.0
Co205 Co 0.54498 0.8879 0.26189 0.0
C206 C 0.57851 0.94073 0.17616 0.0
O207 O 0.5674 0.92943 0.10457 0.0
O208 O 0.57317 0.92676 0.24524 0.0
C209 C 0.55906 0.88996 0.88866 0.0
O210 O 0.57902 0.88758 0.92475 0.0
C211 C 0.55369 0.89227 0.44968 0.0
C212 C 0.52642 0.84878 0.48833 0.0
C213 C 0.54432 0.87485 0.52041 0.0
N214 N 0.54224 0.87702 0.37874 0.0
N215 N 0.52575 0.85114 0.40244 0.0
C216 C 0.57146 0.92303 0.44963 0.0
H217 H 0.561 0.93221 0.41295 0.0
H218 H 0.59118 0.92881 0.41643 0.0
H219 H 0.57587 0.93153 0.51595 0.0
C220 C 0.54816 0.84109 0.07722 0.0
N221 N 0.54765 0.86328 0.10977 0.0
N222 N 0.55292 0.86471 0.19282 0.0
C223 C 0.55925 0.84511 0.21372 0.0
C224 C 0.55594 0.82927 0.1418 0.0
C225 C 0.53808 0.82905 0.98988 0.0
H226 H 0.55599 0.83412 0.94774 0.0
H227 H 0.52554 0.80621 0.99391 0.0
H228 H 0.52542 0.83717 0.96169 0.0
O229 O 0.50374 0.88334 0.09408 0.0
O230 O 0.50792 0.88372 0.23619 0.0
H231 H 0.58397 0.83473 0.29397 0.0
H232 H 0.57684 0.8603 0.33918 0.0
C233 C 0.56814 0.84105 0.30072 0.0
H234 H 0.55025 0.82408 0.33454 0.0
H235 H 0.51363 0.83515 0.3599 0.0
O236 O 0.54192 0.89234 0.93604 0.0
C237 C 0.49404 0.88177 0.16892 0.0
Co238 Co 0.65051 0.53953 0.0536 0.0
Co239 Co 0.65749 0.54394 0.25259 0.0
C240 C 0.63873 0.57769 0.16407 0.0
O241 O 0.6394 0.56666 0.09296 0.0
O242 O 0.6466 0.57205 0.23432 0.0
C243 C 0.66975 0.55761 0.87946 0.0
O244 O 0.69193 0.57778 0.9156 0.0
C245 C 0.66167 0.55276 0.44032 0.0
C246 C 0.67818 0.52574 0.47916 0.0
C247 C 0.66982 0.54349 0.51112 0.0
N248 N 0.66562 0.54141 0.36948 0.0
N249 N 0.67516 0.52505 0.39329 0.0
C250 C 0.64843 0.5703 0.44006 0.0
H251 H 0.62902 0.55991 0.40213 0.0
H252 H 0.66244 0.59023 0.40801 0.0
H253 H 0.64389 0.57431 0.5063 0.0
C254 C 0.70773 0.54682 0.06904 0.0
N255 N 0.68497 0.54627 0.10108 0.0
N256 N 0.68871 0.55169 0.18405 0.0
C257 C 0.71465 0.55811 0.20541 0.0
C258 C 0.72727 0.55472 0.13391 0.0
C259 C 0.70991 0.53697 0.98161 0.0
H260 H 0.68918 0.52413 0.95328 0.0
H261 H 0.72257 0.555 0.93965 0.0
H262 H 0.7205 0.52469 0.98543 0.0
O263 O 0.62077 0.50286 0.08603 0.0
O264 O 0.62472 0.50676 0.22811 0.0
H265 H 0.72689 0.54963 0.32676 0.0
H266 H 0.74967 0.58332 0.28546 0.0
C267 C 0.72758 0.56732 0.29233 0.0
H268 H 0.71688 0.57595 0.33029 0.0
H269 H 0.67913 0.513 0.35082 0.0
O270 O 0.65037 0.54026 0.92679 0.0
C271 C 0.61265 0.49303 0.1608 0.0
Co272 Co 0.11281 0.65591 0.09416 0.0
Co273 Co 0.11309 0.65344 0.29632 0.0
C274 C 0.06154 0.63881 0.20238 0.0
O275 O 0.07394 0.64238 0.13074 0.0
O276 O 0.07449 0.64426 0.2737 0.0
C277 C 0.0954 0.65666 0.91986 0.0
O278 O 0.07066 0.64624 0.95359 0.0
C279 C 0.10702 0.65982 0.48243 0.0
C280 C 0.13895 0.65172 0.53593 0.0
C281 C 0.11854 0.65757 0.55876 0.0
N282 N 0.12013 0.65557 0.4169 0.0
N283 N 0.13926 0.65086 0.4494 0.0
C284 C 0.08321 0.66464 0.472 0.0
H285 H 0.0869 0.67851 0.41633 0.0
H286 H 0.0799 0.67368 0.5313 0.0
H287 H 0.06429 0.64463 0.45849 0.0
C288 C 0.16 0.71209 0.13094 0.0
N289 N 0.13875 0.68767 0.15675 0.0
N290 N 0.13854 0.68676 0.24143 0.0
C291 C 0.15935 0.71072 0.2721 0.0
C292 C 0.1737 0.72749 0.20321 0.0
C293 C 0.1679 0.71979 0.03897 0.0
H294 H 0.17037 0.70344 0.00688 0.0
H295 H 0.151 0.72103 0.00569 0.0
H296 H 0.1873 0.73993 0.03319 0.0
O297 O 0.11975 0.62495 0.11242 0.0
O298 O 0.1176 0.62218 0.2552 0.0
H299 H 0.18229 0.73881 0.37574 0.0
H300 H 0.14766 0.7119 0.40249 0.0
C301 C 0.16649 0.71683 0.36534 0.0
H302 H 0.17468 0.70367 0.38955 0.0
H303 H 0.15223 0.64658 0.41238 0.0
O304 O 0.11616 0.6632 0.96812 0.0
C305 C 0.12028 0.61338 0.18229 0.0
Co306 Co 0.46385 0.11288 0.0834 0.0
Co307 Co 0.45871 0.11417 0.28235 0.0
C308 C 0.42625 0.06186 0.19002 0.0
O309 O 0.4364 0.07456 0.11948 0.0
O310 O 0.43245 0.07447 0.26202 0.0
C311 C 0.44579 0.11395 0.90954 0.0
O312 O 0.42525 0.11521 0.94591 0.0
C313 C 0.44947 0.10908 0.47013 0.0
C314 C 0.47522 0.15286 0.50856 0.0
C315 C 0.45823 0.12661 0.54075 0.0
N316 N 0.46041 0.12446 0.3992 0.0
N317 N 0.476 0.15051 0.42278 0.0
C318 C 0.43286 0.07824 0.47005 0.0
H319 H 0.44391 0.06982 0.43266 0.0
H320 H 0.41284 0.07159 0.43741 0.0
H321 H 0.42902 0.06976 0.53639 0.0
C322 C 0.45524 0.16174 0.10017 0.0
N323 N 0.45613 0.13966 0.13151 0.0
N324 N 0.44998 0.13717 0.21399 0.0
C325 C 0.44279 0.15611 0.23556 0.0
C326 C 0.44641 0.17254 0.16483 0.0
C327 C 0.4656 0.17442 0.01375 0.0
H328 H 0.44782 0.1688 0.97028 0.0
H329 H 0.47732 0.19727 0.01888 0.0
H330 H 0.4791 0.16719 0.98633 0.0
O331 O 0.50063 0.12012 0.11792 0.0
O332 O 0.49669 0.12077 0.25981 0.0
H333 H 0.41619 0.16429 0.31417 0.0
H334 H 0.42455 0.13957 0.35929 0.0
C335 C 0.43274 0.15899 0.32199 0.0
H336 H 0.44986 0.17627 0.35755 0.0
H337 H 0.48764 0.16665 0.38021 0.0
O338 O 0.46362 0.11264 0.95665 0.0
C339 C 0.51057 0.12249 0.19293 0.0
Co340 Co 0.35191 0.46203 0.0559 0.0
Co341 Co 0.34495 0.4582 0.25497 0.0
C342 C 0.36362 0.42414 0.16786 0.0
O343 O 0.36293 0.43492 0.09624 0.0
O344 O 0.35581 0.43005 0.23765 0.0
C345 C 0.33263 0.44398 0.88149 0.0
O346 O 0.31032 0.42394 0.91734 0.0
C347 C 0.34061 0.44932 0.44257 0.0
C348 C 0.32442 0.4766 0.48146 0.0
C349 C 0.33256 0.45866 0.51336 0.0
N350 N 0.33682 0.46082 0.37176 0.0
N351 N 0.32747 0.47733 0.39561 0.0
C352 C 0.35362 0.43157 0.44232 0.0
H353 H 0.37313 0.44192 0.40502 0.0
H354 H 0.33956 0.41176 0.40966 0.0
H355 H 0.35795 0.42734 0.50859 0.0
C356 C 0.29484 0.4551 0.07029 0.0
N357 N 0.31751 0.45556 0.10286 0.0
N358 N 0.31374 0.45036 0.18593 0.0
C359 C 0.28785 0.44414 0.20683 0.0
C360 C 0.27531 0.44744 0.13487 0.0
C361 C 0.29283 0.46502 0.98278 0.0
H362 H 0.31358 0.47768 0.95463 0.0
H363 H 0.28001 0.44704 0.94076 0.0
H364 H 0.28246 0.47752 0.98648 0.0
O365 O 0.38169 0.49871 0.088 0.0
O366 O 0.37776 0.49534 0.23016 0.0
H367 H 0.27589 0.4532 0.32765 0.0
H368 H 0.25274 0.41951 0.28694 0.0
C369 C 0.27491 0.43528 0.29378 0.0
H370 H 0.28541 0.42653 0.33223 0.0
H371 H 0.32364 0.4895 0.35318 0.0
O372 O 0.35209 0.46116 0.92908 0.0
C373 C 0.38983 0.5088 0.16253 0.0
Co374 Co 0.88938 0.34668 0.06935 0.0
Co375 Co 0.89109 0.34988 0.27208 0.0
C376 C 0.94166 0.36417 0.17349 0.0
O377 O 0.92849 0.36024 0.10304 0.0
O378 O 0.92983 0.36007 0.24644 0.0
C379 C 0.90227 0.3364 0.89716 0.0
O380 O 0.92331 0.33606 0.93342 0.0
C381 C 0.89686 0.34191 0.45824 0.0
C382 C 0.86599 0.35126 0.51319 0.0
C383 C 0.88544 0.34395 0.53514 0.0
N384 N 0.88455 0.34761 0.39337 0.0
N385 N 0.86608 0.3531 0.42681 0.0
C386 C 0.91962 0.33556 0.4467 0.0
H387 H 0.93947 0.35524 0.44033 0.0
H388 H 0.91625 0.32345 0.3868 0.0
H389 H 0.92102 0.32407 0.50293 0.0
C390 C 0.84346 0.2905 0.10745 0.0
N391 N 0.86459 0.31505 0.13267 0.0
N392 N 0.86534 0.31616 0.21737 0.0
C393 C 0.84483 0.29209 0.24857 0.0
C394 C 0.83027 0.27514 0.18002 0.0
C395 C 0.83507 0.28274 0.01572 0.0
H396 H 0.85227 0.28269 0.98039 0.0
H397 H 0.81628 0.26207 0.01038 0.0
H398 H 0.83125 0.29848 0.98536 0.0
O399 O 0.88154 0.3769 0.0902 0.0
O400 O 0.88649 0.38122 0.2322 0.0
H401 H 0.83061 0.29963 0.3674 0.0
H402 H 0.82196 0.26417 0.35241 0.0
C403 C 0.8381 0.28603 0.34197 0.0
H404 H 0.85701 0.29044 0.37792 0.0
H405 H 0.8537 0.35841 0.39055 0.0
O406 O 0.88542 0.33986 0.94298 0.0
C407 C 0.88259 0.38938 0.15976 0.0
C408 C 0.14496 0.5869 0.15446 0.0
C409 C 0.12053 0.58704 0.17845 0.0
C410 C 0.09573 0.53658 0.19401 0.0
C411 C 0.12049 0.53658 0.17392 0.0
N412 N 0.16917 0.56098 0.14328 0.0
N413 N 0.0729 0.56286 0.22385 0.0
C414 C 0.14525 0.56155 0.15601 0.0
C415 C 0.09601 0.56209 0.19929 0.0
N416 N 0.16772 0.611 0.12963 0.0
N417 N 0.07169 0.51201 0.20456 0.0
H418 H 0.07131 0.5806 0.21991 0.0
H419 H 0.05553 0.54628 0.25104 0.0
H420 H 0.0708 0.49294 0.20452 0.0
H421 H 0.05225 0.51007 0.20877 0.0
H422 H 0.18529 0.61214 0.1028 0.0
H423 H 0.16859 0.63006 0.13169 0.0
H424 H 0.18857 0.57851 0.13805 0.0
H425 H 0.16992 0.54271 0.14331 0.0
C426 C 0.56161 0.09719 0.20484 0.0
C427 C 0.58711 0.12219 0.19759 0.0
C428 C 0.5625 0.14814 0.1879 0.0
C429 C 0.53725 0.12327 0.20226 0.0
N430 N 0.51332 0.07518 0.24318 0.0
N431 N 0.61269 0.17185 0.19214 0.0
C432 C 0.53701 0.09814 0.21702 0.0
C433 C 0.58784 0.14786 0.19211 0.0
N434 N 0.56071 0.07245 0.19546 0.0
N435 N 0.56213 0.17183 0.16905 0.0
H436 H 0.63152 0.17218 0.19316 0.0
H437 H 0.61473 0.19135 0.19683 0.0
H438 H 0.54402 0.17289 0.1693 0.0
H439 H 0.57942 0.18998 0.1488 0.0
H440 H 0.5424 0.05358 0.19159 0.0
H441 H 0.57819 0.07103 0.18182 0.0
H442 H 0.51268 0.05708 0.26308 0.0
H443 H 0.4948 0.07499 0.25313 0.0
C444 C 0.44102 0.53496 0.14858 0.0
C445 C 0.41639 0.53495 0.17026 0.0
C446 C 0.44299 0.58461 0.20143 0.0
C447 C 0.4672 0.58507 0.17131 0.0
N448 N 0.48929 0.56133 0.10958 0.0
N449 N 0.39285 0.55927 0.21175 0.0
C450 C 0.4662 0.56042 0.14292 0.0
C451 C 0.41708 0.55961 0.19597 0.0
N452 N 0.44048 0.51044 0.1367 0.0
N453 N 0.44481 0.60808 0.23489 0.0
H454 H 0.37366 0.54122 0.20967 0.0
H455 H 0.39145 0.57692 0.22176 0.0
H456 H 0.46312 0.62705 0.23554 0.0
H457 H 0.42865 0.60856 0.26646 0.0
H458 H 0.45813 0.50875 0.13108 0.0
H459 H 0.42243 0.49129 0.13995 0.0
H460 H 0.489 0.54486 0.07739 0.0
H461 H 0.50868 0.57907 0.10901 0.0
C462 C 0.86005 0.4172 0.19874 0.0
C463 C 0.88157 0.41537 0.1562 0.0
C464 C 0.90516 0.46501 0.12542 0.0
C465 C 0.88275 0.46652 0.16256 0.0
N466 N 0.83678 0.44351 0.22169 0.0
N467 N 0.92232 0.43656 0.066 0.0
C468 C 0.85963 0.44247 0.19608 0.0
C469 C 0.90329 0.43892 0.11503 0.0
N470 N 0.83998 0.39477 0.24156 0.0
N471 N 0.92902 0.48871 0.10458 0.0
H472 H 0.92304 0.41841 0.05983 0.0
H473 H 0.93628 0.45219 0.02569 0.0
H474 H 0.93161 0.50838 0.11169 0.0
H475 H 0.94726 0.48915 0.08786 0.0
H476 H 0.8258 0.39567 0.28282 0.0
H477 H 0.83831 0.37535 0.23936 0.0
H478 H 0.81815 0.42616 0.23826 0.0
H479 H 0.83562 0.46154 0.21953 0.0
C480 C 0.44301 0.90748 0.18802 0.0
C481 C 0.41763 0.88213 0.19031 0.0
C482 C 0.4425 0.85634 0.1867 0.0
C483 C 0.46767 0.88164 0.17765 0.0
N484 N 0.49214 0.93109 0.15853 0.0
N485 N 0.39231 0.83248 0.18357 0.0
C486 C 0.46799 0.90717 0.17511 0.0
C487 C 0.4171 0.85652 0.18739 0.0
N488 N 0.44327 0.93182 0.20069 0.0
N489 N 0.44302 0.8323 0.19603 0.0
H490 H 0.37341 0.83198 0.18585 0.0
H491 H 0.39032 0.81321 0.17261 0.0
H492 H 0.46126 0.83149 0.19379 0.0
H493 H 0.42578 0.81346 0.21157 0.0
H494 H 0.46122 0.95074 0.20945 0.0
H495 H 0.42537 0.93296 0.20927 0.0
H496 H 0.49322 0.94988 0.14574 0.0
H497 H 0.51108 0.93192 0.15136 0.0
C498 C 0.58561 0.44239 0.19637 0.0
C499 C 0.58616 0.46686 0.16918 0.0
C500 C 0.53622 0.44115 0.14374 0.0
C501 C 0.53536 0.41675 0.17409 0.0
N502 N 0.5581 0.39424 0.23886 0.0
N503 N 0.56187 0.49108 0.13392 0.0
C504 C 0.55974 0.41744 0.20379 0.0
C505 C 0.56142 0.46666 0.14748 0.0
N506 N 0.60992 0.44285 0.21181 0.0
N507 N 0.51297 0.43997 0.11053 0.0
H508 H 0.57992 0.51026 0.13588 0.0
H509 H 0.54419 0.4927 0.12818 0.0
H510 H 0.49358 0.42221 0.11129 0.0
H511 H 0.51309 0.45616 0.07712 0.0
H512 H 0.61137 0.42527 0.22292 0.0
H513 H 0.62911 0.46087 0.20822 0.0
H514 H 0.57443 0.39401 0.27027 0.0
H515 H 0.5398 0.37528 0.24097 0.0
C516 C 0.24934 0.47287 0.15407 0.0
C517 C 0.2491 0.44806 0.13299 0.0
C518 C 0.19855 0.42331 0.12429 0.0
C519 C 0.19892 0.44843 0.14078 0.0
N520 N 0.22437 0.49795 0.15671 0.0
N521 N 0.22454 0.40072 0.08586 0.0
C522 C 0.22425 0.47348 0.15151 0.0
C523 C 0.22398 0.42356 0.11435 0.0
N524 N 0.27348 0.49569 0.17853 0.0
N525 N 0.17387 0.39913 0.12055 0.0
H526 H 0.2428 0.40012 0.07942 0.0
H527 H 0.20729 0.38307 0.06256 0.0
H528 H 0.15488 0.39829 0.1261 0.0
H529 H 0.17213 0.37973 0.11798 0.0
H530 H 0.27448 0.51327 0.20491 0.0
H531 H 0.29251 0.49648 0.17788 0.0
H532 H 0.24227 0.51718 0.15468 0.0
H533 H 0.2064 0.49924 0.15627 0.0
C534 C 0.77851 0.24891 0.18214 0.0
C535 C 0.80374 0.24864 0.18374 0.0
C536 C 0.77846 0.19822 0.19899 0.0
C537 C 0.75326 0.19834 0.19083 0.0
N538 N 0.72869 0.22295 0.16627 0.0
N539 N 0.8284 0.22358 0.18447 0.0
C540 C 0.75311 0.22347 0.18008 0.0
C541 C 0.80391 0.22342 0.18975 0.0
N542 N 0.77887 0.27354 0.1849 0.0
N543 N 0.77798 0.17405 0.21708 0.0
H544 H 0.84744 0.24173 0.1797 0.0
H545 H 0.82988 0.20583 0.179 0.0
H546 H 0.7597 0.15513 0.222 0.0
H547 H 0.79544 0.17288 0.23305 0.0
H548 H 0.76134 0.27522 0.19409 0.0
H549 H 0.79703 0.29263 0.18404 0.0
H550 H 0.72737 0.2401 0.14734 0.0
H551 H 0.70952 0.2049 0.16849 0.0
C552 C 0.53039 0.7523 0.1605 0.0
C553 C 0.55544 0.75211 0.14836 0.0
C554 C 0.5799 0.80195 0.12016 0.0
C555 C 0.55545 0.8025 0.14004 0.0
N556 N 0.50811 0.7792 0.18826 0.0
N557 N 0.60462 0.77655 0.12563 0.0
C558 C 0.53086 0.77793 0.16275 0.0
C559 C 0.58038 0.7769 0.1304 0.0
N560 N 0.50602 0.72789 0.16702 0.0
N561 N 0.60249 0.82532 0.09027 0.0
H562 H 0.60563 0.7585 0.13163 0.0
H563 H 0.62395 0.79427 0.12189 0.0
H564 H 0.60294 0.8441 0.08361 0.0
H565 H 0.62003 0.82571 0.06605 0.0
H566 H 0.48673 0.72647 0.16608 0.0
H567 H 0.50482 0.70867 0.16652 0.0
H568 H 0.49077 0.76267 0.21587 0.0
H569 H 0.50716 0.79735 0.18714 0.0
C570 C 0.7534 0.52931 0.14965 0.0
C571 C 0.75362 0.55437 0.13295 0.0
C572 C 0.80425 0.57969 0.13266 0.0
C573 C 0.80397 0.55439 0.1444 0.0
N574 N 0.77874 0.50461 0.14813 0.0
N575 N 0.77844 0.6026 0.09571 0.0
C576 C 0.77865 0.52903 0.14827 0.0
C577 C 0.77885 0.57935 0.12051 0.0
N578 N 0.72912 0.50594 0.16928 0.0
N579 N 0.82876 0.60405 0.13562 0.0
H580 H 0.76016 0.60308 0.08749 0.0
H581 H 0.79594 0.62079 0.07693 0.0
H582 H 0.84776 0.605 0.1431 0.0
H583 H 0.83024 0.62335 0.13681 0.0
H584 H 0.72804 0.48795 0.19232 0.0
H585 H 0.71003 0.50503 0.16843 0.0
H586 H 0.76098 0.48543 0.14107 0.0
H587 H 0.79682 0.50353 0.148 0.0
C588 C 0.2002 0.77879 0.22621 0.0
C589 C 0.20024 0.75402 0.20692 0.0
C590 C 0.25068 0.77968 0.19369 0.0
C591 C 0.25077 0.8042 0.21797 0.0
N592 N 0.22663 0.82698 0.26897 0.0
N593 N 0.22524 0.72968 0.18618 0.0
C594 C 0.22579 0.8037 0.23779 0.0
C595 C 0.22542 0.75412 0.19441 0.0
N596 N 0.17568 0.77857 0.23109 0.0
N597 N 0.2747 0.78094 0.1683 0.0
H598 H 0.20715 0.71052 0.1853 0.0
H599 H 0.24302 0.72811 0.18687 0.0
H600 H 0.29386 0.79899 0.17071 0.0
H601 H 0.27549 0.76453 0.1396 0.0
H602 H 0.17417 0.79633 0.23589 0.0
H603 H 0.15658 0.76062 0.22401 0.0
H604 H 0.20949 0.82736 0.29326 0.0
H605 H 0.24501 0.84568 0.27657 0.0
C606 C 0.47129 0.22394 0.18386 0.0
C607 C 0.4465 0.19912 0.16462 0.0
C608 C 0.42129 0.22449 0.15672 0.0
C609 C 0.44647 0.24952 0.16975 0.0
N610 N 0.49613 0.27398 0.18151 0.0
N611 N 0.39871 0.17563 0.12186 0.0
C612 C 0.47169 0.24951 0.17944 0.0
C613 C 0.42169 0.19935 0.14785 0.0
N614 N 0.49432 0.22301 0.20834 0.0
N615 N 0.39696 0.22471 0.15507 0.0
H616 H 0.3982 0.15679 0.11636 0.0
H617 H 0.38079 0.17492 0.09979 0.0
H618 H 0.39599 0.24281 0.16019 0.0
H619 H 0.37763 0.20693 0.15494 0.0
H620 H 0.51197 0.23993 0.23317 0.0
H621 H 0.49518 0.20482 0.20991 0.0
H622 H 0.51538 0.27534 0.17845 0.0
H623 H 0.49732 0.29318 0.17929 0.0
C624 C 0.11862 0.43183 0.57265 0.0
C625 C 0.10081 0.43812 0.52502 0.0
C626 C 0.09058 0.4563 0.65499 0.0
C627 C 0.109 0.45074 0.70214 0.0
N628 N 0.13675 0.42903 0.71241 0.0
N629 N 0.06554 0.45086 0.52175 0.0
C630 C 0.1218 0.43711 0.66289 0.0
C631 C 0.08538 0.4486 0.56669 0.0
N632 N 0.13287 0.42136 0.53087 0.0
N633 N 0.07881 0.46981 0.69417 0.0
H634 H 0.06158 0.44589 0.45662 0.0
H635 H 0.05158 0.45566 0.54976 0.0
H636 H 0.08102 0.47447 0.75973 0.0
H637 H 0.06789 0.47757 0.6616 0.0
H638 H 0.14871 0.41932 0.55852 0.0
H639 H 0.12932 0.41537 0.46647 0.0
H640 H 0.14474 0.41692 0.69015 0.0
H641 H 0.13969 0.43292 0.77836 0.0
C642 C 0.63952 0.0915 0.59944 0.0
C643 C 0.66574 0.10196 0.55993 0.0
C644 C 0.68835 0.11656 0.70102 0.0
C645 C 0.66251 0.10968 0.73806 0.0
N646 N 0.61337 0.09082 0.72481 0.0
N647 N 0.7153 0.12444 0.57079 0.0
C648 C 0.63801 0.097 0.68799 0.0
C649 C 0.69022 0.11411 0.61028 0.0
N650 N 0.61607 0.07551 0.55266 0.0
N651 N 0.71101 0.12541 0.75283 0.0
H652 H 0.71739 0.12206 0.5052 0.0
H653 H 0.73412 0.13655 0.60169 0.0
H654 H 0.71041 0.12804 0.81909 0.0
H655 H 0.7299 0.12821 0.73179 0.0
H656 H 0.59639 0.06495 0.57927 0.0
H657 H 0.61646 0.07068 0.48799 0.0
H658 H 0.59537 0.08495 0.68989 0.0
H659 H 0.61113 0.09284 0.79062 0.0
C660 C 0.55015 0.6378 0.56858 0.0
C661 C 0.56457 0.66412 0.52868 0.0
C662 C 0.56832 0.68681 0.66716 0.0
C663 C 0.5537 0.66047 0.70677 0.0
N664 N 0.53623 0.61148 0.70158 0.0
N665 N 0.59243 0.71355 0.54058 0.0
C666 C 0.54636 0.63612 0.65931 0.0
C667 C 0.57537 0.68863 0.57837 0.0
N668 N 0.53952 0.61441 0.51931 0.0
N669 N 0.57444 0.70993 0.7137 0.0
H670 H 0.59764 0.71551 0.4755 0.0
H671 H 0.60313 0.732 0.57452 0.0
H672 H 0.57042 0.70939 0.77945 0.0
H673 H 0.58214 0.72945 0.68675 0.0
H674 H 0.52591 0.59474 0.54253 0.0
H675 H 0.54319 0.61472 0.45338 0.0
H676 H 0.53295 0.59333 0.67245 0.0
H677 H 0.53331 0.60964 0.76809 0.0
C678 C 0.88145 0.57251 0.58015 0.0
C679 C 0.89764 0.5649 0.52916 0.0
C680 C 0.91108 0.54895 0.65775 0.0
C681 C 0.89418 0.55568 0.70834 0.0
N682 N 0.86778 0.57868 0.72334 0.0
N683 N 0.93317 0.55264 0.52003 0.0
C684 C 0.88087 0.56913 0.6712 0.0
C685 C 0.91411 0.55518 0.56829 0.0
N686 N 0.86581 0.58189 0.54101 0.0
N687 N 0.92351 0.53578 0.69495 0.0
H688 H 0.93606 0.55725 0.45446 0.0
H689 H 0.94777 0.5483 0.5458 0.0
H690 H 0.92304 0.53234 0.76109 0.0
H691 H 0.93323 0.52713 0.66029 0.0
H692 H 0.85097 0.58467 0.57249 0.0
H693 H 0.86686 0.58588 0.47521 0.0
H694 H 0.8597 0.59082 0.70204 0.0
H695 H 0.86678 0.57618 0.79002 0.0
C696 C 0.35307 0.87606 0.69733 0.0
C697 C 0.33742 0.8834 0.75127 0.0
C698 C 0.32487 0.90128 0.6261 0.0
C699 C 0.33588 0.88889 0.5708 0.0
N700 N 0.35525 0.8585 0.55846 0.0
N701 N 0.30446 0.89912 0.76507 0.0
C702 C 0.34871 0.87473 0.60743 0.0
C703 C 0.32221 0.895 0.71533 0.0
N704 N 0.37245 0.87075 0.73163 0.0
N705 N 0.31813 0.91997 0.59472 0.0
H706 H 0.30145 0.89426 0.83039 0.0
H707 H 0.29092 0.90498 0.73946 0.0
H708 H 0.32175 0.92685 0.53117 0.0
H709 H 0.31221 0.93115 0.63429 0.0
H710 H 0.38611 0.86774 0.69379 0.0
H711 H 0.37702 0.8726 0.79725 0.0
H712 H 0.36215 0.84592 0.58518 0.0
H713 H 0.3508 0.85476 0.4933 0.0
C714 C 0.45311 0.3632 0.57877 0.0
C715 C 0.43747 0.33702 0.53877 0.0
C716 C 0.4293 0.31424 0.6795 0.0
C717 C 0.44815 0.34004 0.71706 0.0
N718 N 0.47833 0.38923 0.7048 0.0
N719 N 0.41041 0.28744 0.54876 0.0
C720 C 0.45998 0.36461 0.66743 0.0
C721 C 0.4251 0.31247 0.5887 0.0
N722 N 0.46058 0.38668 0.53232 0.0
N723 N 0.41546 0.2915 0.73089 0.0
H724 H 0.40599 0.28542 0.48311 0.0
H725 H 0.40369 0.26859 0.57935 0.0
H726 H 0.41861 0.29202 0.7972 0.0
H727 H 0.39944 0.27262 0.70945 0.0
H728 H 0.46961 0.40633 0.55926 0.0
H729 H 0.45544 0.38635 0.46758 0.0
H730 H 0.49046 0.40728 0.67026 0.0
H731 H 0.48247 0.39139 0.77071 0.0
C732 C 0.52575 0.87484 0.66595 0.0
C733 C 0.5489 0.88203 0.61292 0.0
C734 C 0.57897 0.90048 0.73875 0.0
C735 C 0.55544 0.88818 0.79347 0.0
N736 N 0.50562 0.85788 0.80475 0.0
N737 N 0.59767 0.89804 0.60089 0.0
C738 C 0.52853 0.87389 0.75615 0.0
C739 C 0.57563 0.89391 0.64969 0.0
N740 N 0.50114 0.86934 0.63048 0.0
N741 N 0.60428 0.91937 0.77049 0.0
H742 H 0.59603 0.89304 0.5357 0.0
H743 H 0.61703 0.9041 0.6272 0.0
H744 H 0.60732 0.92646 0.83383 0.0
H745 H 0.62149 0.93049 0.73129 0.0
H746 H 0.48435 0.86646 0.66745 0.0
H747 H 0.49858 0.8709 0.56457 0.0
H748 H 0.48623 0.84515 0.77764 0.0
H749 H 0.50606 0.85449 0.87028 0.0
C750 C 0.67867 0.57777 0.72987 0.0
C751 C 0.66783 0.55416 0.78427 0.0
C752 C 0.65145 0.52466 0.65648 0.0
C753 C 0.66713 0.54793 0.60361 0.0
N754 N 0.69945 0.59683 0.59193 0.0
N755 N 0.64887 0.50441 0.79473 0.0
C756 C 0.68179 0.57462 0.64063 0.0
C757 C 0.65539 0.52733 0.74659 0.0
N758 N 0.6848 0.60293 0.76209 0.0
N759 N 0.63244 0.50003 0.62091 0.0
H760 H 0.65294 0.50483 0.86009 0.0
H761 H 0.64232 0.48509 0.76728 0.0
H762 H 0.62818 0.49756 0.55508 0.0
H763 H 0.61874 0.48311 0.65785 0.0
H764 H 0.6906 0.62015 0.72314 0.0
H765 H 0.68078 0.60581 0.8256 0.0
H766 H 0.71263 0.61619 0.6184 0.0
H767 H 0.70275 0.59534 0.5266 0.0
C768 C 0.12185 0.6832 0.69474 0.0
C769 C 0.10955 0.65807 0.64789 0.0
C770 C 0.08708 0.63212 0.77857 0.0
C771 C 0.09873 0.65731 0.82528 0.0
N772 N 0.1222 0.707 0.82586 0.0
N773 N 0.07586 0.60962 0.63913 0.0
C774 C 0.11466 0.68296 0.7827 0.0
C775 C 0.0906 0.63285 0.68793 0.0
N776 N 0.1409 0.70712 0.65566 0.0
N777 N 0.0741 0.60743 0.82128 0.0
H778 H 0.07823 0.60932 0.57262 0.0
H779 H 0.05958 0.59133 0.66315 0.0
H780 H 0.07136 0.60584 0.88781 0.0
H781 H 0.06807 0.58852 0.79186 0.0
H782 H 0.15303 0.72552 0.68863 0.0
H783 H 0.14574 0.7082 0.5904 0.0
H784 H 0.13166 0.72634 0.79663 0.0
H785 H 0.11672 0.7074 0.88978 0.0
C786 C 0.42768 0.10695 0.67114 0.0
C787 C 0.45428 0.11964 0.63337 0.0
C788 C 0.47547 0.13003 0.77569 0.0
C789 C 0.44884 0.11509 0.81428 0.0
N790 N 0.40034 0.08177 0.79418 0.0
N791 N 0.50266 0.13466 0.64967 0.0
C792 C 0.42508 0.10125 0.76074 0.0
C793 C 0.4779 0.12834 0.68569 0.0
N794 N 0.40503 0.10123 0.62276 0.0
N795 N 0.49834 0.1473 0.82286 0.0
H796 H 0.50497 0.13257 0.58393 0.0
H797 H 0.51993 0.13875 0.68631 0.0
H798 H 0.49793 0.15123 0.888 0.0
H799 H 0.51743 0.1604 0.79469 0.0
H800 H 0.38563 0.09452 0.64965 0.0
H801 H 0.40609 0.10551 0.55713 0.0
H802 H 0.38311 0.06962 0.75597 0.0
H803 H 0.39794 0.07529 0.85808 0.0
C804 C 0.34722 0.47447 0.74909 0.0
C805 C 0.33456 0.44757 0.78635 0.0
C806 C 0.3203 0.42735 0.64244 0.0
C807 C 0.33517 0.45407 0.60581 0.0
N808 N 0.37024 0.50182 0.6237 0.0
N809 N 0.31704 0.39874 0.76333 0.0
C810 C 0.35108 0.47722 0.65898 0.0
C811 C 0.32344 0.42403 0.73157 0.0
N812 N 0.35406 0.4974 0.79764 0.0
N813 N 0.30245 0.40529 0.59344 0.0
H814 H 0.32105 0.39572 0.82673 0.0
H815 H 0.31102 0.38153 0.72411 0.0
H816 H 0.29915 0.40691 0.52818 0.0
H817 H 0.28913 0.38593 0.61963 0.0
H818 H 0.36076 0.51678 0.77049 0.0
H819 H 0.35011 0.49697 0.86306 0.0
H820 H 0.38411 0.51861 0.66083 0.0
H821 H 0.37444 0.50434 0.55786 0.0
C822 C 0.88725 0.31348 0.75287 0.0
C823 C 0.90099 0.33802 0.80237 0.0
C824 C 0.91032 0.36593 0.67174 0.0
C825 C 0.89337 0.34152 0.62438 0.0
N826 N 0.8647 0.29203 0.61796 0.0
N827 N 0.92493 0.38773 0.81172 0.0
C828 C 0.88178 0.31521 0.66419 0.0
C829 C 0.91253 0.36431 0.76246 0.0
N830 N 0.87967 0.28862 0.7907 0.0
N831 N 0.9247 0.39057 0.62944 0.0
H832 H 0.9281 0.38747 0.87783 0.0
H833 H 0.93071 0.40732 0.78833 0.0
H834 H 0.92356 0.3924 0.56293 0.0
H835 H 0.93957 0.40874 0.65858 0.0
H836 H 0.8719 0.27016 0.75684 0.0
H837 H 0.8832 0.28677 0.85566 0.0
H838 H 0.85302 0.27253 0.64516 0.0
H839 H 0.86099 0.29251 0.55234 0.0
C840 C 0.01673 0.38081 0.18059 0.0
C841 C 0.03021 0.40871 0.15233 0.0
C842 C 0.98595 0.40776 0.1495 0.0
C843 C 0.97218 0.37925 0.1699 0.0
N844 N 0.97343 0.33758 0.19773 0.0
N845 N 0.02738 0.44778 0.09793 0.0
C846 C 0.98729 0.36544 0.18374 0.0
C847 C 0.0147 0.42182 0.13265 0.0
N848 N 0.03212 0.36916 0.20498 0.0
N849 N 0.97171 0.42178 0.15074 0.0
H850 H 0.0486 0.4596 0.08806 0.0
H851 H 0.01662 0.4569 0.07263 0.0
H852 H 0.95077 0.41239 0.16578 0.0
H853 H 0.98108 0.44317 0.14575 0.0
H854 H 0.0239 0.35004 0.23513 0.0
H855 H 0.05357 0.37935 0.19909 0.0
H856 H 0.98292 0.32564 0.19958 0.0
H857 H 0.95196 0.32601 0.20233 0.0
C858 C 0.61962 0.98664 0.13589 0.0
C859 C 0.59443 0.97133 0.18161 0.0
C860 C 0.59713 0.0144 0.23051 0.0
C861 C 0.62303 0.02977 0.18825 0.0
N862 N 0.661 0.03102 0.1114 0.0
N863 N 0.55984 0.97018 0.27774 0.0
C864 C 0.6348 0.01601 0.14344 0.0
C865 C 0.58353 0.9851 0.23097 0.0
N866 N 0.62896 0.97307 0.08505 0.0
N867 N 0.58453 0.02771 0.26567 0.0
H868 H 0.54693 0.94892 0.2719 0.0
H869 H 0.55344 0.97868 0.32585 0.0
H870 H 0.59372 0.04907 0.26984 0.0
H871 H 0.56402 0.01778 0.28558 0.0
H872 H 0.64527 0.98291 0.04195 0.0
H873 H 0.61943 0.9516 0.08252 0.0
H874 H 0.67201 0.02231 0.0853 0.0
H875 H 0.67278 0.05245 0.11705 0.0
C876 C 0.59846 0.58268 0.20835 0.0
C877 C 0.62448 0.59402 0.16652 0.0
C878 C 0.62135 0.63476 0.12416 0.0
C879 C 0.5946 0.62251 0.16108 0.0
N880 N 0.5555 0.58278 0.22465 0.0
N881 N 0.65992 0.62936 0.07809 0.0
C882 C 0.58266 0.59603 0.20017 0.0
C883 C 0.63568 0.61964 0.12228 0.0
N884 N 0.58855 0.55887 0.25528 0.0
N885 N 0.63337 0.66122 0.09375 0.0
H886 H 0.6718 0.61974 0.07983 0.0
H887 H 0.66764 0.64611 0.03623 0.0
H888 H 0.62338 0.67275 0.09413 0.0
H889 H 0.65383 0.67252 0.07384 0.0
H890 H 0.57193 0.55193 0.29743 0.0
H891 H 0.5977 0.5466 0.25654 0.0
H892 H 0.54451 0.56211 0.24275 0.0
H893 H 0.54292 0.59154 0.21991 0.0
C894 C 0.01747 0.63683 0.15421 0.0
C895 C 0.03086 0.62508 0.20171 0.0
C896 C 0.98652 0.58237 0.22047 0.0
C897 C 0.97288 0.59465 0.17777 0.0
N898 N 0.97431 0.63458 0.11423 0.0
N899 N 0.02714 0.58832 0.29389 0.0
C900 C 0.98807 0.62217 0.14713 0.0
C901 C 0.01507 0.59851 0.23971 0.0
N902 N 0.03291 0.66202 0.1159 0.0
N903 N 0.97256 0.55466 0.23795 0.0
H904 H 0.04819 0.59799 0.30645 0.0
H905 H 0.01585 0.57096 0.3323 0.0
H906 H 0.95172 0.54172 0.22413 0.0
H907 H 0.98219 0.5438 0.2583 0.0
H908 H 0.025 0.6702 0.07146 0.0
H909 H 0.0541 0.67443 0.12598 0.0
H910 H 0.98377 0.65546 0.09882 0.0
H911 H 0.95286 0.62437 0.10804 0.0
C912 C 0.40687 0.98738 0.14595 0.0
C913 C 0.3806 0.97277 0.18619 0.0
C914 C 0.38301 0.01672 0.22275 0.0
C915 C 0.41017 0.03121 0.18863 0.0
N916 N 0.45015 0.03022 0.13392 0.0
N917 N 0.34454 0.97295 0.27056 0.0
C918 C 0.42263 0.01653 0.15403 0.0
C919 C 0.36896 0.98729 0.22718 0.0
N920 N 0.41705 0.97348 0.10038 0.0
N921 N 0.37026 0.03103 0.24761 0.0
H922 H 0.33292 0.95143 0.2708 0.0
H923 H 0.33654 0.98223 0.31027 0.0
H924 H 0.37985 0.0525 0.24443 0.0
H925 H 0.34954 0.02168 0.26486 0.0
H926 H 0.43409 0.98324 0.05982 0.0
H927 H 0.4076 0.95204 0.09799 0.0
H928 H 0.46119 0.02029 0.11935 0.0
H929 H 0.46284 0.0515 0.13963 0.0
C930 C 0.3666 0.38196 0.12896 0.0
C931 C 0.37791 0.40786 0.17152 0.0
C932 C 0.41991 0.40621 0.20544 0.0
C933 C 0.40783 0.37942 0.16846 0.0
N934 N 0.3688 0.34015 0.10396 0.0
N935 N 0.41403 0.44356 0.25867 0.0
C936 C 0.38094 0.36685 0.13227 0.0
C937 C 0.40405 0.41952 0.21287 0.0
N938 N 0.34225 0.37193 0.08501 0.0
N939 N 0.44721 0.41977 0.22854 0.0
H940 H 0.40473 0.45569 0.25971 0.0
H941 H 0.43083 0.45078 0.30033 0.0
H942 H 0.45987 0.4111 0.22388 0.0
H943 H 0.45819 0.44059 0.24509 0.0
H944 H 0.33443 0.35488 0.04429 0.0
H945 H 0.3304 0.38158 0.08568 0.0
H946 H 0.34825 0.3287 0.0848 0.0
H947 H 0.37878 0.32862 0.10548 0.0
loop_
_geom_bond_atom_site_label_1
_geom_bond_atom_site_label_2
_geom_bond_distance
_geom_bond_site_symmetry_2
_ccdc_geom_bond_type
Co0 O3 1.970 . S
Co0 N17 1.989 . S
Co0 O25 1.967 . S
Co0 O32 1.920 . S
Co1 O4 1.966 . S
Co1 N10 2.022 1_554 S
Co1 N18 1.993 . S
Co1 O26 1.941 . S
C2 O3 1.258 . S
C2 O4 1.263 . S
O3 Co0 1.970 . S
O3 C2 1.258 . S
O4 Co1 1.966 . S
O4 C2 1.263 . S
C5 O6 1.235 . S
C5 O32 1.289 . S
O6 C5 1.235 . S
C7 C9 1.400 . S
C7 N10 1.351 . S
C7 C12 1.501 . S
C8 C9 1.387 . S
C8 N11 1.341 . S
C9 C7 1.400 . S
C9 C8 1.387 . S
N10 Co1 2.022 1_556 S
N10 C7 1.351 . S
N10 N11 1.365 . S
N11 C8 1.341 . S
N11 N10 1.365 . S
N11 H31 0.862 . S
C12 C7 1.501 . S
C12 H13 0.961 . S
C12 H14 0.961 . S
C12 H15 0.960 . S
H13 C12 0.961 . S
H14 C12 0.961 . S
H15 C12 0.960 . S
C16 N17 1.342 . S
C16 C20 1.401 . S
C16 C21 1.499 . S
N17 Co0 1.989 . S
N17 C16 1.342 . S
N17 N18 1.388 . S
N18 Co1 1.993 . S
N18 N17 1.388 . S
N18 C19 1.346 . S
C19 N18 1.346 . S
C19 C20 1.396 . S
C19 C29 1.510 1_554 S
C20 C16 1.401 . S
C20 C19 1.396 . S
C21 C16 1.499 . S
C21 H22 0.959 . S
C21 H23 0.960 . S
C21 H24 0.961 . S
H22 C21 0.959 . S
H23 C21 0.960 . S
H24 C21 0.961 . S
O25 Co0 1.967 . S
O25 C33 1.258 . S
O26 Co1 1.941 . S
O26 C33 1.266 . S
H27 C29 0.959 . S
H28 C29 0.961 . S
C29 C19 1.510 1_556 S
C29 H27 0.959 . S
C29 H28 0.961 . S
C29 H30 0.960 . S
H30 C29 0.960 . S
H31 N11 0.862 . S
O32 Co0 1.920 . S
O32 C5 1.289 . S
C33 O25 1.258 . S
C33 O26 1.266 . S
Co34 O37 1.970 . S
Co34 N51 1.989 . S
Co34 O59 1.967 . S
Co34 O66 1.920 . S
Co35 O38 1.966 . S
Co35 N44 2.022 1_554 S
Co35 N52 1.993 . S
Co35 O60 1.941 . S
C36 O37 1.258 . S
C36 O38 1.263 . S
O37 Co34 1.970 . S
O37 C36 1.258 . S
O38 Co35 1.966 . S
O38 C36 1.263 . S
C39 O40 1.235 . S
C39 O66 1.289 . S
O40 C39 1.235 . S
C41 C43 1.400 . S
C41 N44 1.351 . S
C41 C46 1.501 . S
C42 C43 1.387 . S
C42 N45 1.341 . S
C43 C41 1.400 . S
C43 C42 1.387 . S
N44 Co35 2.022 1_556 S
N44 C41 1.351 . S
N44 N45 1.365 . S
N45 C42 1.341 . S
N45 N44 1.365 . S
N45 H65 0.862 . S
C46 C41 1.501 . S
C46 H47 0.961 . S
C46 H48 0.961 . S
C46 H49 0.960 . S
H47 C46 0.961 . S
H48 C46 0.961 . S
H49 C46 0.960 . S
C50 N51 1.342 . S
C50 C54 1.401 . S
C50 C55 1.499 . S
N51 Co34 1.989 . S
N51 C50 1.342 . S
N51 N52 1.388 . S
N52 Co35 1.993 . S
N52 N51 1.388 . S
N52 C53 1.346 . S
C53 N52 1.346 . S
C53 C54 1.396 . S
C53 C63 1.510 1_554 S
C54 C50 1.401 . S
C54 C53 1.396 . S
C55 C50 1.499 . S
C55 H56 0.959 . S
C55 H57 0.960 . S
C55 H58 0.961 . S
H56 C55 0.959 . S
H57 C55 0.960 . S
H58 C55 0.961 . S
O59 Co34 1.967 . S
O59 C67 1.258 . S
O60 Co35 1.941 . S
O60 C67 1.266 . S
H61 C63 0.959 . S
H62 C63 0.961 . S
C63 C53 1.510 1_556 S
C63 H61 0.959 . S
C63 H62 0.961 . S
C63 H64 0.960 . S
H64 C63 0.960 . S
H65 N45 0.862 . S
O66 Co34 1.920 . S
O66 C39 1.289 . S
C67 O59 1.258 . S
C67 O60 1.266 . S
Co68 O71 1.970 . S
Co68 N85 1.989 . S
Co68 O93 1.967 . S
Co68 O100 1.920 . S
Co69 O72 1.966 . S
Co69 N78 2.022 1_554 S
Co69 N86 1.993 . S
Co69 O94 1.941 . S
C70 O71 1.258 . S
C70 O72 1.263 . S
O71 Co68 1.970 . S
O71 C70 1.258 . S
O72 Co69 1.966 . S
O72 C70 1.263 . S
C73 O74 1.235 . S
C73 O100 1.289 . S
O74 C73 1.235 . S
C75 C77 1.400 . S
C75 N78 1.351 . S
C75 C80 1.501 . S
C76 C77 1.387 . S
C76 N79 1.341 . S
C77 C75 1.400 . S
C77 C76 1.387 . S
N78 Co69 2.022 1_556 S
N78 C75 1.351 . S
N78 N79 1.365 . S
N79 C76 1.341 . S
N79 N78 1.365 . S
N79 H99 0.862 . S
C80 C75 1.501 . S
C80 H81 0.961 . S
C80 H82 0.961 . S
C80 H83 0.960 . S
H81 C80 0.961 . S
H82 C80 0.961 . S
H83 C80 0.960 . S
C84 N85 1.342 . S
C84 C88 1.401 . S
C84 C89 1.499 . S
N85 Co68 1.989 . S
N85 C84 1.342 . S
N85 N86 1.388 . S
N86 Co69 1.993 . S
N86 N85 1.388 . S
N86 C87 1.346 . S
C87 N86 1.346 . S
C87 C88 1.396 . S
C87 C97 1.510 1_554 S
C88 C84 1.401 . S
C88 C87 1.396 . S
C89 C84 1.499 . S
C89 H90 0.959 . S
C89 H91 0.960 . S
C89 H92 0.961 . S
H90 C89 0.959 . S
H91 C89 0.960 . S
H92 C89 0.961 . S
O93 Co68 1.967 . S
O93 C101 1.258 . S
O94 Co69 1.941 . S
O94 C101 1.266 . S
H95 C97 0.959 . S
H96 C97 0.961 . S
C97 C87 1.510 1_556 S
C97 H95 0.959 . S
C97 H96 0.961 . S
C97 H98 0.960 . S
H98 C97 0.960 . S
H99 N79 0.862 . S
O100 Co68 1.920 . S
O100 C73 1.289 . S
C101 O93 1.258 . S
C101 O94 1.266 . S
Co102 O105 1.970 . S
Co102 N119 1.989 . S
Co102 O127 1.967 . S
Co102 O134 1.920 . S
Co103 O106 1.966 . S
Co103 N112 2.022 1_554 S
Co103 N120 1.993 . S
Co103 O128 1.941 . S
C104 O105 1.258 . S
C104 O106 1.263 . S
O105 Co102 1.970 . S
O105 C104 1.258 . S
O106 Co103 1.966 . S
O106 C104 1.263 . S
C107 O108 1.235 . S
C107 O134 1.289 . S
O108 C107 1.235 . S
C109 C111 1.400 . S
C109 N112 1.351 . S
C109 C114 1.501 . S
C110 C111 1.387 . S
C110 N113 1.341 . S
C111 C109 1.400 . S
C111 C110 1.387 . S
N112 Co103 2.022 1_556 S
N112 C109 1.351 . S
N112 N113 1.365 . S
N113 C110 1.341 . S
N113 N112 1.365 . S
N113 H133 0.862 . S
C114 C109 1.501 . S
C114 H115 0.961 . S
C114 H116 0.961 . S
C114 H117 0.960 . S
H115 C114 0.961 . S
H116 C114 0.961 . S
H117 C114 0.960 . S
C118 N119 1.342 . S
C118 C122 1.401 . S
C118 C123 1.499 . S
N119 Co102 1.989 . S
N119 C118 1.342 . S
N119 N120 1.388 . S
N120 Co103 1.993 . S
N120 N119 1.388 . S
N120 C121 1.346 . S
C121 N120 1.346 . S
C121 C122 1.396 . S
C121 C131 1.510 1_554 S
C122 C118 1.401 . S
C122 C121 1.396 . S
C123 C118 1.499 . S
C123 H124 0.959 . S
C123 H125 0.960 . S
C123 H126 0.961 . S
H124 C123 0.959 . S
H125 C123 0.960 . S
H126 C123 0.961 . S
O127 Co102 1.967 . S
O127 C135 1.258 . S
O128 Co103 1.941 . S
O128 C135 1.266 . S
H129 C131 0.959 . S
H130 C131 0.961 . S
C131 C121 1.510 1_556 S
C131 H129 0.959 . S
C131 H130 0.961 . S
C131 H132 0.960 . S
H132 C131 0.960 . S
H133 N113 0.862 . S
O134 Co102 1.920 . S
O134 C107 1.289 . S
C135 O127 1.258 . S
C135 O128 1.266 . S
Co136 O139 1.970 . S
Co136 N153 1.989 . S
Co136 O161 1.967 . S
Co136 O168 1.920 . S
Co137 O140 1.966 . S
Co137 N146 2.022 1_554 S
Co137 N154 1.993 . S
Co137 O162 1.941 . S
C138 O139 1.258 . S
C138 O140 1.263 . S
O139 Co136 1.970 . S
O139 C138 1.258 . S
O140 Co137 1.966 . S
O140 C138 1.263 . S
C141 O142 1.235 . S
C141 O168 1.289 . S
O142 C141 1.235 . S
C143 C145 1.400 . S
C143 N146 1.351 . S
C143 C148 1.501 . S
C144 C145 1.387 . S
C144 N147 1.341 . S
C145 C143 1.400 . S
C145 C144 1.387 . S
N146 Co137 2.022 1_556 S
N146 C143 1.351 . S
N146 N147 1.365 . S
N147 C144 1.341 . S
N147 N146 1.365 . S
N147 H167 0.862 . S
C148 C143 1.501 . S
C148 H149 0.961 . S
C148 H150 0.961 . S
C148 H151 0.960 . S
H149 C148 0.961 . S
H150 C148 0.961 . S
H151 C148 0.960 . S
C152 N153 1.342 . S
C152 C156 1.401 . S
C152 C157 1.499 . S
N153 Co136 1.989 . S
N153 C152 1.342 . S
N153 N154 1.388 . S
N154 Co137 1.993 . S
N154 N153 1.388 . S
N154 C155 1.346 . S
C155 N154 1.346 . S
C155 C156 1.396 . S
C155 C165 1.510 1_554 S
C156 C152 1.401 . S
C156 C155 1.396 . S
C157 C152 1.499 . S
C157 H158 0.959 . S
C157 H159 0.960 . S
C157 H160 0.961 . S
H158 C157 0.959 . S
H159 C157 0.960 . S
H160 C157 0.961 . S
O161 Co136 1.967 . S
O161 C169 1.258 . S
O162 Co137 1.941 . S
O162 C169 1.266 . S
H163 C165 0.959 . S
H164 C165 0.961 . S
C165 C155 1.510 1_556 S
C165 H163 0.959 . S
C165 H164 0.961 . S
C165 H166 0.960 . S
H166 C165 0.960 . S
H167 N147 0.862 . S
O168 Co136 1.920 . S
O168 C141 1.289 . S
C169 O161 1.258 . S
C169 O162 1.266 . S
Co170 O173 1.970 . S
Co170 N187 1.989 . S
Co170 O195 1.967 . S
Co170 O202 1.920 . S
Co171 O174 1.966 . S
Co171 N180 2.022 1_554 S
Co171 N188 1.993 . S
Co171 O196 1.941 . S
C172 O173 1.258 . S
C172 O174 1.263 . S
O173 Co170 1.970 . S
O173 C172 1.258 . S
O174 Co171 1.966 . S
O174 C172 1.263 . S
C175 O176 1.235 . S
C175 O202 1.289 . S
O176 C175 1.235 . S
C177 C179 1.400 . S
C177 N180 1.351 . S
C177 C182 1.501 . S
C178 C179 1.387 . S
C178 N181 1.341 . S
C179 C177 1.400 . S
C179 C178 1.387 . S
N180 Co171 2.022 1_556 S
N180 C177 1.351 . S
N180 N181 1.365 . S
N181 C178 1.341 . S
N181 N180 1.365 . S
N181 H201 0.862 . S
C182 C177 1.501 . S
C182 H183 0.961 . S
C182 H184 0.961 . S
C182 H185 0.960 . S
H183 C182 0.961 . S
H184 C182 0.961 . S
H185 C182 0.960 . S
C186 N187 1.342 . S
C186 C190 1.401 . S
C186 C191 1.499 . S
N187 Co170 1.989 . S
N187 C186 1.342 . S
N187 N188 1.388 . S
N188 Co171 1.993 . S
N188 N187 1.388 . S
N188 C189 1.346 . S
C189 N188 1.346 . S
C189 C190 1.396 . S
C189 C199 1.510 1_554 S
C190 C186 1.401 . S
C190 C189 1.396 . S
C191 C186 1.499 . S
C191 H192 0.959 . S
C191 H193 0.960 . S
C191 H194 0.961 . S
H192 C191 0.959 . S
H193 C191 0.960 . S
H194 C191 0.961 . S
O195 Co170 1.967 . S
O195 C203 1.258 . S
O196 Co171 1.941 . S
O196 C203 1.266 . S
H197 C199 0.959 . S
H198 C199 0.961 . S
C199 C189 1.510 1_556 S
C199 H197 0.959 . S
C199 H198 0.961 . S
C199 H200 0.960 . S
H200 C199 0.960 . S
H201 N181 0.862 . S
O202 Co170 1.920 . S
O202 C175 1.289 . S
C203 O195 1.258 . S
C203 O196 1.266 . S
Co204 O207 1.970 . S
Co204 N221 1.989 . S
Co204 O229 1.967 . S
Co204 O236 1.920 1_554 S
Co205 O208 1.966 . S
Co205 N214 2.022 . S
Co205 N222 1.993 . S
Co205 O230 1.941 . S
C206 O207 1.258 . S
C206 O208 1.263 . S
O207 Co204 1.970 . S
O207 C206 1.258 . S
O208 Co205 1.966 . S
O208 C206 1.263 . S
C209 O210 1.235 . S
C209 O236 1.289 . S
O210 C209 1.235 . S
C211 C213 1.400 . S
C211 N214 1.351 . S
C211 C216 1.501 . S
C212 C213 1.387 . S
C212 N215 1.341 . S
C213 C211 1.400 . S
C213 C212 1.387 . S
N214 Co205 2.022 . S
N214 C211 1.351 . S
N214 N215 1.365 . S
N215 C212 1.341 . S
N215 N214 1.365 . S
N215 H235 0.862 . S
C216 C211 1.501 . S
C216 H217 0.961 . S
C216 H218 0.961 . S
C216 H219 0.960 . S
H217 C216 0.961 . S
H218 C216 0.961 . S
H219 C216 0.960 . S
C220 N221 1.342 . S
C220 C224 1.401 . S
C220 C225 1.499 . S
N221 Co204 1.989 . S
N221 C220 1.342 . S
N221 N222 1.388 . S
N222 Co205 1.993 . S
N222 N221 1.388 . S
N222 C223 1.346 . S
C223 N222 1.346 . S
C223 C224 1.396 . S
C223 C233 1.510 . S
C224 C220 1.401 . S
C224 C223 1.396 . S
C225 C220 1.499 . S
C225 H226 0.959 1_554 S
C225 H227 0.960 . S
C225 H228 0.961 . S
H226 C225 0.959 1_556 S
H227 C225 0.960 . S
H228 C225 0.961 . S
O229 Co204 1.967 . S
O229 C237 1.258 . S
O230 Co205 1.941 . S
O230 C237 1.266 . S
H231 C233 0.959 . S
H232 C233 0.961 . S
C233 C223 1.510 . S
C233 H231 0.959 . S
C233 H232 0.961 . S
C233 H234 0.960 . S
H234 C233 0.960 . S
H235 N215 0.862 . S
O236 Co204 1.920 1_556 S
O236 C209 1.289 . S
C237 O229 1.258 . S
C237 O230 1.266 . S
Co238 O241 1.970 . S
Co238 N255 1.989 . S
Co238 O263 1.967 . S
Co238 O270 1.920 1_554 S
Co239 O242 1.966 . S
Co239 N248 2.022 . S
Co239 N256 1.993 . S
Co239 O264 1.941 . S
C240 O241 1.258 . S
C240 O242 1.263 . S
O241 Co238 1.970 . S
O241 C240 1.258 . S
O242 Co239 1.966 . S
O242 C240 1.263 . S
C243 O244 1.235 . S
C243 O270 1.289 . S
O244 C243 1.235 . S
C245 C247 1.400 . S
C245 N248 1.351 . S
C245 C250 1.501 . S
C246 C247 1.387 . S
C246 N249 1.341 . S
C247 C245 1.400 . S
C247 C246 1.387 . S
N248 Co239 2.022 . S
N248 C245 1.351 . S
N248 N249 1.365 . S
N249 C246 1.341 . S
N249 N248 1.365 . S
N249 H269 0.862 . S
C250 C245 1.501 . S
C250 H251 0.961 . S
C250 H252 0.961 . S
C250 H253 0.960 . S
H251 C250 0.961 . S
H252 C250 0.961 . S
H253 C250 0.960 . S
C254 N255 1.342 . S
C254 C258 1.401 . S
C254 C259 1.499 . S
N255 Co238 1.989 . S
N255 C254 1.342 . S
N255 N256 1.388 . S
N256 Co239 1.993 . S
N256 N255 1.388 . S
N256 C257 1.346 . S
C257 N256 1.346 . S
C257 C258 1.396 . S
C257 C267 1.510 . S
C258 C254 1.401 . S
C258 C257 1.396 . S
C259 C254 1.499 . S
C259 H260 0.959 1_554 S
C259 H261 0.960 . S
C259 H262 0.961 . S
H260 C259 0.959 1_556 S
H261 C259 0.960 . S
H262 C259 0.961 . S
O263 Co238 1.967 . S
O263 C271 1.258 . S
O264 Co239 1.941 . S
O264 C271 1.266 . S
H265 C267 0.959 . S
H266 C267 0.961 . S
C267 C257 1.510 . S
C267 H265 0.959 . S
C267 H266 0.961 . S
C267 H268 0.960 . S
H268 C267 0.960 . S
H269 N249 0.862 . S
O270 Co238 1.920 1_556 S
O270 C243 1.289 . S
C271 O263 1.258 . S
C271 O264 1.266 . S
Co272 O275 1.970 . S
Co272 N289 1.989 . S
Co272 O297 1.967 . S
Co272 O304 1.920 1_554 S
Co273 O276 1.966 . S
Co273 N282 2.022 . S
Co273 N290 1.993 . S
Co273 O298 1.941 . S
C274 O275 1.258 . S
C274 O276 1.263 . S
O275 Co272 1.970 . S
O275 C274 1.258 . S
O276 Co273 1.966 . S
O276 C274 1.263 . S
C277 O278 1.235 . S
C277 O304 1.289 . S
O278 C277 1.235 . S
C279 C281 1.400 . S
C279 N282 1.351 . S
C279 C284 1.501 . S
C280 C281 1.387 . S
C280 N283 1.341 . S
C281 C279 1.400 . S
C281 C280 1.387 . S
N282 Co273 2.022 . S
N282 C279 1.351 . S
N282 N283 1.365 . S
N283 C280 1.341 . S
N283 N282 1.365 . S
N283 H303 0.862 . S
C284 C279 1.501 . S
C284 H285 0.961 . S
C284 H286 0.961 . S
C284 H287 0.960 . S
H285 C284 0.961 . S
H286 C284 0.961 . S
H287 C284 0.960 . S
C288 N289 1.342 . S
C288 C292 1.401 . S
C288 C293 1.499 . S
N289 Co272 1.989 . S
N289 C288 1.342 . S
N289 N290 1.388 . S
N290 Co273 1.993 . S
N290 N289 1.388 . S
N290 C291 1.346 . S
C291 N290 1.346 . S
C291 C292 1.396 . S
C291 C301 1.510 . S
C292 C288 1.401 . S
C292 C291 1.396 . S
C293 C288 1.499 . S
C293 H294 0.959 1_554 S
C293 H295 0.960 . S
C293 H296 0.961 . S
H294 C293 0.959 1_556 S
H295 C293 0.960 . S
H296 C293 0.961 . S
O297 Co272 1.967 . S
O297 C305 1.258 . S
O298 Co273 1.941 . S
O298 C305 1.266 . S
H299 C301 0.959 . S
H300 C301 0.961 . S
C301 C291 1.510 . S
C301 H299 0.959 . S
C301 H300 0.961 . S
C301 H302 0.960 . S
H302 C301 0.960 . S
H303 N283 0.862 . S
O304 Co272 1.920 1_556 S
O304 C277 1.289 . S
C305 O297 1.258 . S
C305 O298 1.266 . S
Co306 O309 1.970 . S
Co306 N323 1.989 . S
Co306 O331 1.967 . S
Co306 O338 1.920 1_554 S
Co307 O310 1.966 . S
Co307 N316 2.022 . S
Co307 N324 1.993 . S
Co307 O332 1.941 . S
C308 O309 1.258 . S
C308 O310 1.263 . S
O309 Co306 1.970 . S
O309 C308 1.258 . S
O310 Co307 1.966 . S
O310 C308 1.263 . S
C311 O312 1.235 . S
C311 O338 1.289 . S
O312 C311 1.235 . S
C313 C315 1.400 . S
C313 N316 1.351 . S
C313 C318 1.501 . S
C314 C315 1.387 . S
C314 N317 1.341 . S
C315 C313 1.400 . S
C315 C314 1.387 . S
N316 Co307 2.022 . S
N316 C313 1.351 . S
N316 N317 1.365 . S
N317 C314 1.341 . S
N317 N316 1.365 . S
N317 H337 0.862 . S
C318 C313 1.501 . S
C318 H319 0.961 . S
C318 H320 0.961 . S
C318 H321 0.960 . S
H319 C318 0.961 . S
H320 C318 0.961 . S
H321 C318 0.960 . S
C322 N323 1.342 . S
C322 C326 1.401 . S
C322 C327 1.499 . S
N323 Co306 1.989 . S
N323 C322 1.342 . S
N323 N324 1.388 . S
N324 Co307 1.993 . S
N324 N323 1.388 . S
N324 C325 1.346 . S
C325 N324 1.346 . S
C325 C326 1.396 . S
C325 C335 1.510 . S
C326 C322 1.401 . S
C326 C325 1.396 . S
C327 C322 1.499 . S
C327 H328 0.959 1_554 S
C327 H329 0.960 . S
C327 H330 0.961 . S
H328 C327 0.959 1_556 S
H329 C327 0.960 . S
H330 C327 0.961 . S
O331 Co306 1.967 . S
O331 C339 1.258 . S
O332 Co307 1.941 . S
O332 C339 1.266 . S
H333 C335 0.959 . S
H334 C335 0.961 . S
C335 C325 1.510 . S
C335 H333 0.959 . S
C335 H334 0.961 . S
C335 H336 0.960 . S
H336 C335 0.960 . S
H337 N317 0.862 . S
O338 Co306 1.920 1_556 S
O338 C311 1.289 . S
C339 O331 1.258 . S
C339 O332 1.266 . S
Co340 O343 1.970 . S
Co340 N357 1.989 . S
Co340 O365 1.967 . S
Co340 O372 1.920 1_554 S
Co341 O344 1.966 . S
Co341 N350 2.022 . S
Co341 N358 1.993 . S
Co341 O366 1.941 . S
C342 O343 1.258 . S
C342 O344 1.263 . S
O343 Co340 1.970 . S
O343 C342 1.258 . S
O344 Co341 1.966 . S
O344 C342 1.263 . S
C345 O346 1.235 . S
C345 O372 1.289 . S
O346 C345 1.235 . S
C347 C349 1.400 . S
C347 N350 1.351 . S
C347 C352 1.501 . S
C348 C349 1.387 . S
C348 N351 1.341 . S
C349 C347 1.400 . S
C349 C348 1.387 . S
N350 Co341 2.022 . S
N350 C347 1.351 . S
N350 N351 1.365 . S
N351 C348 1.341 . S
N351 N350 1.365 . S
N351 H371 0.862 . S
C352 C347 1.501 . S
C352 H353 0.961 . S
C352 H354 0.961 . S
C352 H355 0.960 . S
H353 C352 0.961 . S
H354 C352 0.961 . S
H355 C352 0.960 . S
C356 N357 1.342 . S
C356 C360 1.401 . S
C356 C361 1.499 . S
N357 Co340 1.989 . S
N357 C356 1.342 . S
N357 N358 1.388 . S
N358 Co341 1.993 . S
N358 N357 1.388 . S
N358 C359 1.346 . S
C359 N358 1.346 . S
C359 C360 1.396 . S
C359 C369 1.510 . S
C360 C356 1.401 . S
C360 C359 1.396 . S
C361 C356 1.499 . S
C361 H362 0.959 1_554 S
C361 H363 0.960 . S
C361 H364 0.961 . S
H362 C361 0.959 1_556 S
H363 C361 0.960 . S
H364 C361 0.961 . S
O365 Co340 1.967 . S
O365 C373 1.258 . S
O366 Co341 1.941 . S
O366 C373 1.266 . S
H367 C369 0.959 . S
H368 C369 0.961 . S
C369 C359 1.510 . S
C369 H367 0.959 . S
C369 H368 0.961 . S
C369 H370 0.960 . S
H370 C369 0.960 . S
H371 N351 0.862 . S
O372 Co340 1.920 1_556 S
O372 C345 1.289 . S
C373 O365 1.258 . S
C373 O366 1.266 . S
Co374 O377 1.970 . S
Co374 N391 1.989 . S
Co374 O399 1.967 . S
Co374 O406 1.920 1_554 S
Co375 O378 1.966 . S
Co375 N384 2.022 . S
Co375 N392 1.993 . S
Co375 O400 1.941 . S
C376 O377 1.258 . S
C376 O378 1.263 . S
O377 Co374 1.970 . S
O377 C376 1.258 . S
O378 Co375 1.966 . S
O378 C376 1.263 . S
C379 O380 1.235 . S
C379 O406 1.289 . S
O380 C379 1.235 . S
C381 C383 1.400 . S
C381 N384 1.351 . S
C381 C386 1.501 . S
C382 C383 1.387 . S
C382 N385 1.341 . S
C383 C381 1.400 . S
C383 C382 1.387 . S
N384 Co375 2.022 . S
N384 C381 1.351 . S
N384 N385 1.365 . S
N385 C382 1.341 . S
N385 N384 1.365 . S
N385 H405 0.862 . S
C386 C381 1.501 . S
C386 H387 0.961 . S
C386 H388 0.961 . S
C386 H389 0.960 . S
H387 C386 0.961 . S
H388 C386 0.961 . S
H389 C386 0.960 . S
C390 N391 1.342 . S
C390 C394 1.401 . S
C390 C395 1.499 . S
N391 Co374 1.989 . S
N391 C390 1.342 . S
N391 N392 1.388 . S
N392 Co375 1.993 . S
N392 N391 1.388 . S
N392 C393 1.346 . S
C393 N392 1.346 . S
C393 C394 1.396 . S
C393 C403 1.510 . S
C394 C390 1.401 . S
C394 C393 1.396 . S
C395 C390 1.499 . S
C395 H396 0.959 1_554 S
C395 H397 0.960 . S
C395 H398 0.961 . S
H396 C395 0.959 1_556 S
H397 C395 0.960 . S
H398 C395 0.961 . S
O399 Co374 1.967 . S
O399 C407 1.258 . S
O400 Co375 1.941 . S
O400 C407 1.266 . S
H401 C403 0.959 . S
H402 C403 0.961 . S
C403 C393 1.510 . S
C403 H401 0.959 . S
C403 H402 0.961 . S
C403 H404 0.960 . S
H404 C403 0.960 . S
H405 N385 0.862 . S
O406 Co374 1.920 1_556 S
O406 C379 1.289 . S
C407 O399 1.258 . S
C407 O400 1.266 . S
C408 C409 1.363 . S
C408 C414 1.379 . S
C408 N416 1.356 . S
C409 C408 1.363 . S
C409 C415 1.363 . S
C410 C411 1.363 . S
C410 C415 1.379 . S
C410 N417 1.356 . S
C411 C410 1.363 . S
C411 C414 1.363 . S
N412 C414 1.356 . S
N412 H424 0.984 . S
N412 H425 0.985 . S
N413 C415 1.356 . S
N413 H418 0.984 . S
N413 H419 0.985 . S
C414 C408 1.379 . S
C414 C411 1.363 . S
C414 N412 1.356 . S
C415 C409 1.363 . S
C415 C410 1.379 . S
C415 N413 1.356 . S
N416 C408 1.356 . S
N416 H422 0.984 . S
N416 H423 0.984 . S
N417 C410 1.356 . S
N417 H420 0.984 . S
N417 H421 0.985 . S
H418 N413 0.984 . S
H419 N413 0.985 . S
H420 N417 0.984 . S
H421 N417 0.985 . S
H422 N416 0.984 . S
H423 N416 0.984 . S
H424 N412 0.984 . S
H425 N412 0.985 . S
C426 C427 1.363 . S
C426 C432 1.379 . S
C426 N434 1.356 . S
C427 C426 1.363 . S
C427 C433 1.363 . S
C428 C429 1.363 . S
C428 C433 1.379 . S
C428 N435 1.356 . S
C429 C428 1.363 . S
C429 C432 1.363 . S
N430 C432 1.356 . S
N430 H442 0.984 . S
N430 H443 0.985 . S
N431 C433 1.356 . S
N431 H436 0.984 . S
N431 H437 0.985 . S
C432 C426 1.379 . S
C432 C429 1.363 . S
C432 N430 1.356 . S
C433 C427 1.363 . S
C433 C428 1.379 . S
C433 N431 1.356 . S
N434 C426 1.356 . S
N434 H440 0.984 . S
N434 H441 0.984 . S
N435 C428 1.356 . S
N435 H438 0.984 . S
N435 H439 0.985 . S
H436 N431 0.984 . S
H437 N431 0.985 . S
H438 N435 0.984 . S
H439 N435 0.985 . S
H440 N434 0.984 . S
H441 N434 0.984 . S
H442 N430 0.984 . S
H443 N430 0.985 . S
C444 C445 1.363 . S
C444 C450 1.379 . S
C444 N452 1.356 . S
C445 C444 1.363 . S
C445 C451 1.363 . S
C446 C447 1.363 . S
C446 C451 1.379 . S
C446 N453 1.356 . S
C447 C446 1.363 . S
C447 C450 1.363 . S
N448 C450 1.356 . S
N448 H460 0.984 . S
N448 H461 0.985 . S
N449 C451 1.356 . S
N449 H454 0.984 . S
N449 H455 0.985 . S
C450 C444 1.379 . S
C450 C447 1.363 . S
C450 N448 1.356 . S
C451 C445 1.363 . S
C451 C446 1.379 . S
C451 N449 1.356 . S
N452 C444 1.356 . S
N452 H458 0.984 . S
N452 H459 0.984 . S
N453 C446 1.356 . S
N453 H456 0.984 . S
N453 H457 0.985 . S
H454 N449 0.984 . S
H455 N449 0.985 . S
H456 N453 0.984 . S
H457 N453 0.985 . S
H458 N452 0.984 . S
H459 N452 0.984 . S
H460 N448 0.984 . S
H461 N448 0.985 . S
C462 C463 1.363 . S
C462 C468 1.379 . S
C462 N470 1.356 . S
C463 C462 1.363 . S
C463 C469 1.363 . S
C464 C465 1.363 . S
C464 C469 1.379 . S
C464 N471 1.356 . S
C465 C464 1.363 . S
C465 C468 1.363 . S
N466 C468 1.356 . S
N466 H478 0.984 . S
N466 H479 0.985 . S
N467 C469 1.356 . S
N467 H472 0.984 . S
N467 H473 0.985 . S
C468 C462 1.379 . S
C468 C465 1.363 . S
C468 N466 1.356 . S
C469 C463 1.363 . S
C469 C464 1.379 . S
C469 N467 1.356 . S
N470 C462 1.356 . S
N470 H476 0.984 . S
N470 H477 0.984 . S
N471 C464 1.356 . S
N471 H474 0.984 . S
N471 H475 0.985 . S
H472 N467 0.984 . S
H473 N467 0.985 . S
H474 N471 0.984 . S
H475 N471 0.985 . S
H476 N470 0.984 . S
H477 N470 0.984 . S
H478 N466 0.984 . S
H479 N466 0.985 . S
C480 C481 1.363 . S
C480 C486 1.379 . S
C480 N488 1.356 . S
C481 C480 1.363 . S
C481 C487 1.363 . S
C482 C483 1.363 . S
C482 C487 1.379 . S
C482 N489 1.356 . S
C483 C482 1.363 . S
C483 C486 1.363 . S
N484 C486 1.356 . S
N484 H496 0.984 . S
N484 H497 0.985 . S
N485 C487 1.356 . S
N485 H490 0.984 . S
N485 H491 0.985 . S
C486 C480 1.379 . S
C486 C483 1.363 . S
C486 N484 1.356 . S
C487 C481 1.363 . S
C487 C482 1.379 . S
C487 N485 1.356 . S
N488 C480 1.356 . S
N488 H494 0.984 . S
N488 H495 0.984 . S
N489 C482 1.356 . S
N489 H492 0.984 . S
N489 H493 0.985 . S
H490 N485 0.984 . S
H491 N485 0.985 . S
H492 N489 0.984 . S
H493 N489 0.985 . S
H494 N488 0.984 . S
H495 N488 0.984 . S
H496 N484 0.984 . S
H497 N484 0.985 . S
C498 C499 1.363 . S
C498 C504 1.379 . S
C498 N506 1.356 . S
C499 C498 1.363 . S
C499 C505 1.363 . S
C500 C501 1.363 . S
C500 C505 1.379 . S
C500 N507 1.356 . S
C501 C500 1.363 . S
C501 C504 1.363 . S
N502 C504 1.356 . S
N502 H514 0.984 . S
N502 H515 0.985 . S
N503 C505 1.356 . S
N503 H508 0.984 . S
N503 H509 0.985 . S
C504 C498 1.379 . S
C504 C501 1.363 . S
C504 N502 1.356 . S
C505 C499 1.363 . S
C505 C500 1.379 . S
C505 N503 1.356 . S
N506 C498 1.356 . S
N506 H512 0.984 . S
N506 H513 0.984 . S
N507 C500 1.356 . S
N507 H510 0.984 . S
N507 H511 0.985 . S
H508 N503 0.984 . S
H509 N503 0.985 . S
H510 N507 0.984 . S
H511 N507 0.985 . S
H512 N506 0.984 . S
H513 N506 0.984 . S
H514 N502 0.984 . S
H515 N502 0.985 . S
C516 C517 1.363 . S
C516 C522 1.379 . S
C516 N524 1.356 . S
C517 C516 1.363 . S
C517 C523 1.363 . S
C518 C519 1.363 . S
C518 C523 1.379 . S
C518 N525 1.356 . S
C519 C518 1.363 . S
C519 C522 1.363 . S
N520 C522 1.356 . S
N520 H532 0.984 . S
N520 H533 0.985 . S
N521 C523 1.356 . S
N521 H526 0.984 . S
N521 H527 0.985 . S
C522 C516 1.379 . S
C522 C519 1.363 . S
C522 N520 1.356 . S
C523 C517 1.363 . S
C523 C518 1.379 . S
C523 N521 1.356 . S
N524 C516 1.356 . S
N524 H530 0.984 . S
N524 H531 0.984 . S
N525 C518 1.356 . S
N525 H528 0.984 . S
N525 H529 0.985 . S
H526 N521 0.984 . S
H527 N521 0.985 . S
H528 N525 0.984 . S
H529 N525 0.985 . S
H530 N524 0.984 . S
H531 N524 0.984 . S
H532 N520 0.984 . S
H533 N520 0.985 . S
C534 C535 1.363 . S
C534 C540 1.379 . S
C534 N542 1.356 . S
C535 C534 1.363 . S
C535 C541 1.363 . S
C536 C537 1.363 . S
C536 C541 1.379 . S
C536 N543 1.356 . S
C537 C536 1.363 . S
C537 C540 1.363 . S
N538 C540 1.356 . S
N538 H550 0.984 . S
N538 H551 0.985 . S
N539 C541 1.356 . S
N539 H544 0.984 . S
N539 H545 0.985 . S
C540 C534 1.379 . S
C540 C537 1.363 . S
C540 N538 1.356 . S
C541 C535 1.363 . S
C541 C536 1.379 . S
C541 N539 1.356 . S
N542 C534 1.356 . S
N542 H548 0.984 . S
N542 H549 0.984 . S
N543 C536 1.356 . S
N543 H546 0.984 . S
N543 H547 0.985 . S
H544 N539 0.984 . S
H545 N539 0.985 . S
H546 N543 0.984 . S
H547 N543 0.985 . S
H548 N542 0.984 . S
H549 N542 0.984 . S
H550 N538 0.984 . S
H551 N538 0.985 . S
C552 C553 1.363 . S
C552 C558 1.379 . S
C552 N560 1.356 . S
C553 C552 1.363 . S
C553 C559 1.363 . S
C554 C555 1.363 . S
C554 C559 1.379 . S
C554 N561 1.356 . S
C555 C554 1.363 . S
C555 C558 1.363 . S
N556 C558 1.356 . S
N556 H568 0.984 . S
N556 H569 0.985 . S
N557 C559 1.356 . S
N557 H562 0.984 . S
N557 H563 0.985 . S
C558 C552 1.379 . S
C558 C555 1.363 . S
C558 N556 1.356 . S
C559 C553 1.363 . S
C559 C554 1.379 . S
C559 N557 1.356 . S
N560 C552 1.356 . S
N560 H566 0.984 1_554 S
N560 H567 0.984 . S
N561 C554 1.356 . S
N561 H564 0.984 . S
N561 H565 0.985 . S
H562 N557 0.984 . S
H563 N557 0.985 . S
H564 N561 0.984 . S
H565 N561 0.985 . S
H566 N560 0.984 1_556 S
H567 N560 0.984 . S
H568 N556 0.984 . S
H569 N556 0.985 . S
C570 C571 1.363 . S
C570 C576 1.379 . S
C570 N578 1.356 . S
C571 C570 1.363 . S
C571 C577 1.363 . S
C572 C573 1.363 . S
C572 C577 1.379 . S
C572 N579 1.356 . S
C573 C572 1.363 . S
C573 C576 1.363 . S
N574 C576 1.356 . S
N574 H586 0.984 . S
N574 H587 0.985 . S
N575 C577 1.356 . S
N575 H580 0.984 . S
N575 H581 0.985 . S
C576 C570 1.379 . S
C576 C573 1.363 . S
C576 N574 1.356 . S
C577 C571 1.363 . S
C577 C572 1.379 . S
C577 N575 1.356 . S
N578 C570 1.356 . S
N578 H584 0.984 . S
N578 H585 0.984 . S
N579 C572 1.356 . S
N579 H582 0.984 . S
N579 H583 0.985 . S
H580 N575 0.984 . S
H581 N575 0.985 . S
H582 N579 0.984 . S
H583 N579 0.985 . S
H584 N578 0.984 . S
H585 N578 0.984 . S
H586 N574 0.984 . S
H587 N574 0.985 . S
C588 C589 1.363 . S
C588 C594 1.379 . S
C588 N596 1.356 . S
C589 C588 1.363 . S
C589 C595 1.363 . S
C590 C591 1.363 . S
C590 C595 1.379 . S
C590 N597 1.356 . S
C591 C590 1.363 . S
C591 C594 1.363 . S
N592 C594 1.356 . S
N592 H604 0.984 . S
N592 H605 0.985 . S
N593 C595 1.356 . S
N593 H598 0.984 . S
N593 H599 0.985 . S
C594 C588 1.379 . S
C594 C591 1.363 . S
C594 N592 1.356 . S
C595 C589 1.363 . S
C595 C590 1.379 . S
C595 N593 1.356 . S
N596 C588 1.356 . S
N596 H602 0.984 . S
N596 H603 0.984 . S
N597 C590 1.356 . S
N597 H600 0.984 . S
N597 H601 0.985 . S
H598 N593 0.984 . S
H599 N593 0.985 . S
H600 N597 0.984 . S
H601 N597 0.985 . S
H602 N596 0.984 . S
H603 N596 0.984 . S
H604 N592 0.984 . S
H605 N592 0.985 . S
C606 C607 1.363 . S
C606 C612 1.379 . S
C606 N614 1.356 . S
C607 C606 1.363 . S
C607 C613 1.363 . S
C608 C609 1.363 . S
C608 C613 1.379 . S
C608 N615 1.356 . S
C609 C608 1.363 . S
C609 C612 1.363 . S
N610 C612 1.356 . S
N610 H622 0.984 . S
N610 H623 0.985 . S
N611 C613 1.356 . S
N611 H616 0.984 . S
N611 H617 0.985 . S
C612 C606 1.379 . S
C612 C609 1.363 . S
C612 N610 1.356 . S
C613 C607 1.363 . S
C613 C608 1.379 . S
C613 N611 1.356 . S
N614 C606 1.356 . S
N614 H620 0.984 . S
N614 H621 0.984 . S
N615 C608 1.356 . S
N615 H618 0.984 . S
N615 H619 0.985 . S
H616 N611 0.984 . S
H617 N611 0.985 . S
H618 N615 0.984 . S
H619 N615 0.985 . S
H620 N614 0.984 . S
H621 N614 0.984 . S
H622 N610 0.984 . S
H623 N610 0.985 . S
C624 C625 1.363 . S
C624 C630 1.379 . S
C624 N632 1.356 . S
C625 C624 1.363 . S
C625 C631 1.363 . S
C626 C627 1.363 . S
C626 C631 1.379 . S
C626 N633 1.356 . S
C627 C626 1.363 . S
C627 C630 1.363 . S
N628 C630 1.356 . S
N628 H640 0.984 . S
N628 H641 0.985 . S
N629 C631 1.356 . S
N629 H634 0.984 . S
N629 H635 0.985 . S
C630 C624 1.379 . S
C630 C627 1.363 . S
C630 N628 1.356 . S
C631 C625 1.363 . S
C631 C626 1.379 . S
C631 N629 1.356 . S
N632 C624 1.356 . S
N632 H638 0.984 . S
N632 H639 0.984 . S
N633 C626 1.356 . S
N633 H636 0.984 . S
N633 H637 0.985 . S
H634 N629 0.984 . S
H635 N629 0.985 . S
H636 N633 0.984 . S
H637 N633 0.985 . S
H638 N632 0.984 . S
H639 N632 0.984 . S
H640 N628 0.984 . S
H641 N628 0.985 . S
C642 C643 1.363 . S
C642 C648 1.379 . S
C642 N650 1.356 . S
C643 C642 1.363 . S
C643 C649 1.363 . S
C644 C645 1.363 . S
C644 C649 1.379 . S
C644 N651 1.356 . S
C645 C644 1.363 . S
C645 C648 1.363 . S
N646 C648 1.356 . S
N646 H658 0.984 . S
N646 H659 0.985 . S
N647 C649 1.356 . S
N647 H652 0.984 . S
N647 H653 0.985 . S
C648 C642 1.379 . S
C648 C645 1.363 . S
C648 N646 1.356 . S
C649 C643 1.363 . S
C649 C644 1.379 . S
C649 N647 1.356 . S
N650 C642 1.356 . S
N650 H656 0.984 . S
N650 H657 0.984 . S
N651 C644 1.356 . S
N651 H654 0.984 . S
N651 H655 0.985 . S
H652 N647 0.984 . S
H653 N647 0.985 . S
H654 N651 0.984 . S
H655 N651 0.985 . S
H656 N650 0.984 . S
H657 N650 0.984 . S
H658 N646 0.984 . S
H659 N646 0.985 . S
C660 C661 1.363 . S
C660 C666 1.379 . S
C660 N668 1.356 . S
C661 C660 1.363 . S
C661 C667 1.363 . S
C662 C663 1.363 . S
C662 C667 1.379 . S
C662 N669 1.356 . S
C663 C662 1.363 . S
C663 C666 1.363 . S
N664 C666 1.356 . S
N664 H676 0.984 . S
N664 H677 0.985 . S
N665 C667 1.356 . S
N665 H670 0.984 . S
N665 H671 0.985 . S
C666 C660 1.379 . S
C666 C663 1.363 . S
C666 N664 1.356 . S
C667 C661 1.363 . S
C667 C662 1.379 . S
C667 N665 1.356 . S
N668 C660 1.356 . S
N668 H674 0.984 . S
N668 H675 0.984 . S
N669 C662 1.356 . S
N669 H672 0.984 . S
N669 H673 0.985 . S
H670 N665 0.984 . S
H671 N665 0.985 . S
H672 N669 0.984 . S
H673 N669 0.985 . S
H674 N668 0.984 . S
H675 N668 0.984 . S
H676 N664 0.984 . S
H677 N664 0.985 . S
C678 C679 1.363 . S
C678 C684 1.379 . S
C678 N686 1.356 . S
C679 C678 1.363 . S
C679 C685 1.363 . S
C680 C681 1.363 . S
C680 C685 1.379 . S
C680 N687 1.356 . S
C681 C680 1.363 . S
C681 C684 1.363 . S
N682 C684 1.356 . S
N682 H694 0.984 . S
N682 H695 0.985 . S
N683 C685 1.356 . S
N683 H688 0.984 . S
N683 H689 0.985 . S
C684 C678 1.379 . S
C684 C681 1.363 . S
C684 N682 1.356 . S
C685 C679 1.363 . S
C685 C680 1.379 . S
C685 N683 1.356 . S
N686 C678 1.356 . S
N686 H692 0.984 . S
N686 H693 0.984 . S
N687 C680 1.356 . S
N687 H690 0.984 . S
N687 H691 0.985 . S
H688 N683 0.984 . S
H689 N683 0.985 . S
H690 N687 0.984 . S
H691 N687 0.985 . S
H692 N686 0.984 . S
H693 N686 0.984 . S
H694 N682 0.984 . S
H695 N682 0.985 . S
C696 C697 1.363 . S
C696 C702 1.379 . S
C696 N704 1.356 . S
C697 C696 1.363 . S
C697 C703 1.363 . S
C698 C699 1.363 . S
C698 C703 1.379 . S
C698 N705 1.356 . S
C699 C698 1.363 . S
C699 C702 1.363 . S
N700 C702 1.356 . S
N700 H712 0.984 . S
N700 H713 0.985 . S
N701 C703 1.356 . S
N701 H706 0.984 . S
N701 H707 0.985 . S
C702 C696 1.379 . S
C702 C699 1.363 . S
C702 N700 1.356 . S
C703 C697 1.363 . S
C703 C698 1.379 . S
C703 N701 1.356 . S
N704 C696 1.356 . S
N704 H710 0.984 . S
N704 H711 0.984 . S
N705 C698 1.356 . S
N705 H708 0.984 . S
N705 H709 0.985 . S
H706 N701 0.984 . S
H707 N701 0.985 . S
H708 N705 0.984 . S
H709 N705 0.985 . S
H710 N704 0.984 . S
H711 N704 0.984 . S
H712 N700 0.984 . S
H713 N700 0.985 . S
C714 C715 1.363 . S
C714 C720 1.379 . S
C714 N722 1.356 . S
C715 C714 1.363 . S
C715 C721 1.363 . S
C716 C717 1.363 . S
C716 C721 1.379 . S
C716 N723 1.356 . S
C717 C716 1.363 . S
C717 C720 1.363 . S
N718 C720 1.356 . S
N718 H730 0.984 . S
N718 H731 0.985 . S
N719 C721 1.356 . S
N719 H724 0.984 . S
N719 H725 0.985 . S
C720 C714 1.379 . S
C720 C717 1.363 . S
C720 N718 1.356 . S
C721 C715 1.363 . S
C721 C716 1.379 . S
C721 N719 1.356 . S
N722 C714 1.356 . S
N722 H728 0.984 . S
N722 H729 0.984 . S
N723 C716 1.356 . S
N723 H726 0.984 . S
N723 H727 0.985 . S
H724 N719 0.984 . S
H725 N719 0.985 . S
H726 N723 0.984 . S
H727 N723 0.985 . S
H728 N722 0.984 . S
H729 N722 0.984 . S
H730 N718 0.984 . S
H731 N718 0.985 . S
C732 C733 1.363 . S
C732 C738 1.379 . S
C732 N740 1.356 . S
C733 C732 1.363 . S
C733 C739 1.363 . S
C734 C735 1.363 . S
C734 C739 1.379 . S
C734 N741 1.356 . S
C735 C734 1.363 . S
C735 C738 1.363 . S
N736 C738 1.356 . S
N736 H748 0.984 . S
N736 H749 0.985 . S
N737 C739 1.356 . S
N737 H742 0.984 . S
N737 H743 0.985 . S
C738 C732 1.379 . S
C738 C735 1.363 . S
C738 N736 1.356 . S
C739 C733 1.363 . S
C739 C734 1.379 . S
C739 N737 1.356 . S
N740 C732 1.356 . S
N740 H746 0.984 . S
N740 H747 0.984 . S
N741 C734 1.356 . S
N741 H744 0.984 . S
N741 H745 0.985 . S
H742 N737 0.984 . S
H743 N737 0.985 . S
H744 N741 0.984 . S
H745 N741 0.985 . S
H746 N740 0.984 . S
H747 N740 0.984 . S
H748 N736 0.984 . S
H749 N736 0.985 . S
C750 C751 1.363 . S
C750 C756 1.379 . S
C750 N758 1.356 . S
C751 C750 1.363 . S
C751 C757 1.363 . S
C752 C753 1.363 . S
C752 C757 1.379 . S
C752 N759 1.356 . S
C753 C752 1.363 . S
C753 C756 1.363 . S
N754 C756 1.356 . S
N754 H766 0.984 . S
N754 H767 0.985 . S
N755 C757 1.356 . S
N755 H760 0.984 . S
N755 H761 0.985 . S
C756 C750 1.379 . S
C756 C753 1.363 . S
C756 N754 1.356 . S
C757 C751 1.363 . S
C757 C752 1.379 . S
C757 N755 1.356 . S
N758 C750 1.356 . S
N758 H764 0.984 . S
N758 H765 0.984 . S
N759 C752 1.356 . S
N759 H762 0.984 . S
N759 H763 0.985 . S
H760 N755 0.984 . S
H761 N755 0.985 . S
H762 N759 0.984 . S
H763 N759 0.985 . S
H764 N758 0.984 . S
H765 N758 0.984 . S
H766 N754 0.984 . S
H767 N754 0.985 . S
C768 C769 1.363 . S
C768 C774 1.379 . S
C768 N776 1.356 . S
C769 C768 1.363 . S
C769 C775 1.363 . S
C770 C771 1.363 . S
C770 C775 1.379 . S
C770 N777 1.356 . S
C771 C770 1.363 . S
C771 C774 1.363 . S
N772 C774 1.356 . S
N772 H784 0.984 . S
N772 H785 0.985 . S
N773 C775 1.356 . S
N773 H778 0.984 . S
N773 H779 0.985 . S
C774 C768 1.379 . S
C774 C771 1.363 . S
C774 N772 1.356 . S
C775 C769 1.363 . S
C775 C770 1.379 . S
C775 N773 1.356 . S
N776 C768 1.356 . S
N776 H782 0.984 . S
N776 H783 0.984 . S
N777 C770 1.356 . S
N777 H780 0.984 . S
N777 H781 0.985 . S
H778 N773 0.984 . S
H779 N773 0.985 . S
H780 N777 0.984 . S
H781 N777 0.985 . S
H782 N776 0.984 . S
H783 N776 0.984 . S
H784 N772 0.984 . S
H785 N772 0.985 . S
C786 C787 1.363 . S
C786 C792 1.379 . S
C786 N794 1.356 . S
C787 C786 1.363 . S
C787 C793 1.363 . S
C788 C789 1.363 . S
C788 C793 1.379 . S
C788 N795 1.356 . S
C789 C788 1.363 . S
C789 C792 1.363 . S
N790 C792 1.356 . S
N790 H802 0.984 . S
N790 H803 0.985 . S
N791 C793 1.356 . S
N791 H796 0.984 . S
N791 H797 0.985 . S
C792 C786 1.379 . S
C792 C789 1.363 . S
C792 N790 1.356 . S
C793 C787 1.363 . S
C793 C788 1.379 . S
C793 N791 1.356 . S
N794 C786 1.356 . S
N794 H800 0.984 . S
N794 H801 0.984 . S
N795 C788 1.356 . S
N795 H798 0.984 . S
N795 H799 0.985 . S
H796 N791 0.984 . S
H797 N791 0.985 . S
H798 N795 0.984 . S
H799 N795 0.985 . S
H800 N794 0.984 . S
H801 N794 0.984 . S
H802 N790 0.984 . S
H803 N790 0.985 . S
C804 C805 1.363 . S
C804 C810 1.379 . S
C804 N812 1.356 . S
C805 C804 1.363 . S
C805 C811 1.363 . S
C806 C807 1.363 . S
C806 C811 1.379 . S
C806 N813 1.356 . S
C807 C806 1.363 . S
C807 C810 1.363 . S
N808 C810 1.356 . S
N808 H820 0.984 . S
N808 H821 0.985 . S
N809 C811 1.356 . S
N809 H814 0.984 . S
N809 H815 0.985 . S
C810 C804 1.379 . S
C810 C807 1.363 . S
C810 N808 1.356 . S
C811 C805 1.363 . S
C811 C806 1.379 . S
C811 N809 1.356 . S
N812 C804 1.356 . S
N812 H818 0.984 . S
N812 H819 0.984 . S
N813 C806 1.356 . S
N813 H816 0.984 . S
N813 H817 0.985 . S
H814 N809 0.984 . S
H815 N809 0.985 . S
H816 N813 0.984 . S
H817 N813 0.985 . S
H818 N812 0.984 . S
H819 N812 0.984 . S
H820 N808 0.984 . S
H821 N808 0.985 . S
C822 C823 1.363 . S
C822 C828 1.379 . S
C822 N830 1.356 . S
C823 C822 1.363 . S
C823 C829 1.363 . S
C824 C825 1.363 . S
C824 C829 1.379 . S
C824 N831 1.356 . S
C825 C824 1.363 . S
C825 C828 1.363 . S
N826 C828 1.356 . S
N826 H838 0.984 . S
N826 H839 0.985 . S
N827 C829 1.356 . S
N827 H832 0.984 . S
N827 H833 0.985 . S
C828 C822 1.379 . S
C828 C825 1.363 . S
C828 N826 1.356 . S
C829 C823 1.363 . S
C829 C824 1.379 . S
C829 N827 1.356 . S
N830 C822 1.356 . S
N830 H836 0.984 . S
N830 H837 0.984 . S
N831 C824 1.356 . S
N831 H834 0.984 . S
N831 H835 0.985 . S
H832 N827 0.984 . S
H833 N827 0.985 . S
H834 N831 0.984 . S
H835 N831 0.985 . S
H836 N830 0.984 . S
H837 N830 0.984 . S
H838 N826 0.984 . S
H839 N826 0.985 . S
C840 C841 1.363 . S
C840 C846 1.379 1_455 S
C840 N848 1.356 . S
C841 C840 1.363 . S
C841 C847 1.363 . S
C842 C843 1.363 . S
C842 C847 1.379 1_655 S
C842 N849 1.356 . S
C843 C842 1.363 . S
C843 C846 1.363 . S
N844 C846 1.356 . S
N844 H856 0.984 . S
N844 H857 0.985 . S
N845 C847 1.356 . S
N845 H850 0.984 . S
N845 H851 0.985 . S
C846 C840 1.379 1_655 S
C846 C843 1.363 . S
C846 N844 1.356 . S
C847 C841 1.363 . S
C847 C842 1.379 1_455 S
C847 N845 1.356 . S
N848 C840 1.356 . S
N848 H854 0.984 . S
N848 H855 0.984 . S
N849 C842 1.356 . S
N849 H852 0.984 . S
N849 H853 0.985 . S
H850 N845 0.984 . S
H851 N845 0.985 . S
H852 N849 0.984 . S
H853 N849 0.985 . S
H854 N848 0.984 . S
H855 N848 0.984 . S
H856 N844 0.984 . S
H857 N844 0.985 . S
C858 C859 1.363 . S
C858 C864 1.379 1_565 S
C858 N866 1.356 . S
C859 C858 1.363 . S
C859 C865 1.363 . S
C860 C861 1.363 . S
C860 C865 1.379 1_545 S
C860 N867 1.356 . S
C861 C860 1.363 . S
C861 C864 1.363 . S
N862 C864 1.356 . S
N862 H874 0.984 1_554 S
N862 H875 0.985 . S
N863 C865 1.356 . S
N863 H868 0.984 . S
N863 H869 0.985 . S
C864 C858 1.379 1_545 S
C864 C861 1.363 . S
C864 N862 1.356 . S
C865 C859 1.363 . S
C865 C860 1.379 1_565 S
C865 N863 1.356 . S
N866 C858 1.356 . S
N866 H872 0.984 . S
N866 H873 0.984 . S
N867 C860 1.356 . S
N867 H870 0.984 . S
N867 H871 0.985 . S
H868 N863 0.984 . S
H869 N863 0.985 . S
H870 N867 0.984 . S
H871 N867 0.985 . S
H872 N866 0.984 . S
H873 N866 0.984 . S
H874 N862 0.984 1_556 S
H875 N862 0.985 . S
C876 C877 1.363 . S
C876 C882 1.379 . S
C876 N884 1.356 . S
C877 C876 1.363 . S
C877 C883 1.363 . S
C878 C879 1.363 . S
C878 C883 1.379 . S
C878 N885 1.356 . S
C879 C878 1.363 . S
C879 C882 1.363 . S
N880 C882 1.356 . S
N880 H892 0.984 . S
N880 H893 0.985 . S
N881 C883 1.356 . S
N881 H886 0.984 . S
N881 H887 0.989 . S
C882 C876 1.379 . S
C882 C879 1.363 . S
C882 N880 1.356 . S
C883 C877 1.363 . S
C883 C878 1.379 . S
C883 N881 1.356 . S
N884 C876 1.356 . S
N884 H890 0.984 . S
N884 H891 0.984 . S
N885 C878 1.356 . S
N885 H888 0.984 . S
N885 H889 0.985 1_554 S
H886 N881 0.984 . S
H887 N881 0.989 . S
H888 N885 0.984 . S
H889 N885 0.985 1_556 S
H890 N884 0.984 . S
H891 N884 0.984 . S
H892 N880 0.984 . S
H893 N880 0.985 . S
C894 C895 1.363 . S
C894 C900 1.379 1_455 S
C894 N902 1.356 . S
C895 C894 1.363 . S
C895 C901 1.363 . S
C896 C897 1.363 . S
C896 C901 1.379 1_655 S
C896 N903 1.356 . S
C897 C896 1.363 . S
C897 C900 1.363 . S
N898 C900 1.356 . S
N898 H910 0.984 . S
N898 H911 0.985 . S
N899 C901 1.356 . S
N899 H904 0.984 . S
N899 H905 0.985 . S
C900 C894 1.379 1_655 S
C900 C897 1.363 . S
C900 N898 1.356 . S
C901 C895 1.363 . S
C901 C896 1.379 1_455 S
C901 N899 1.356 . S
N902 C894 1.356 . S
N902 H908 0.984 . S
N902 H909 0.984 . S
N903 C896 1.356 . S
N903 H906 0.984 . S
N903 H907 0.985 . S
H904 N899 0.984 . S
H905 N899 0.985 . S
H906 N903 0.984 . S
H907 N903 0.985 . S
H908 N902 0.984 . S
H909 N902 0.984 . S
H910 N898 0.984 . S
H911 N898 0.985 . S
C912 C913 1.363 . S
C912 C918 1.379 1_565 S
C912 N920 1.356 . S
C913 C912 1.363 . S
C913 C919 1.363 . S
C914 C915 1.363 . S
C914 C919 1.379 1_545 S
C914 N921 1.356 . S
C915 C914 1.363 . S
C915 C918 1.363 . S
N916 C918 1.356 . S
N916 H928 0.984 . S
N916 H929 0.985 . S
N917 C919 1.356 . S
N917 H922 0.984 . S
N917 H923 0.985 . S
C918 C912 1.379 1_545 S
C918 C915 1.363 . S
C918 N916 1.356 . S
C919 C913 1.363 . S
C919 C914 1.379 1_565 S
C919 N917 1.356 . S
N920 C912 1.356 . S
N920 H926 0.984 1_554 S
N920 H927 0.984 . S
N921 C914 1.356 . S
N921 H924 0.984 . S
N921 H925 0.985 . S
H922 N917 0.984 . S
H923 N917 0.985 . S
H924 N921 0.984 . S
H925 N921 0.985 . S
H926 N920 0.984 1_556 S
H927 N920 0.984 . S
H928 N916 0.984 . S
H929 N916 0.985 . S
C930 C931 1.363 . S
C930 C936 1.379 . S
C930 N938 1.356 . S
C931 C930 1.363 . S
C931 C937 1.363 . S
C932 C933 1.363 . S
C932 C937 1.379 . S
C932 N939 1.356 . S
C933 C932 1.363 . S
C933 C936 1.363 . S
N934 C936 1.356 . S
N934 H946 0.993 . S
N934 H947 0.985 . S
N935 C937 1.356 . S
N935 H940 0.984 . S
N935 H941 0.985 . S
C936 C930 1.379 . S
C936 C933 1.363 . S
C936 N934 1.356 . S
C937 C931 1.363 . S
C937 C932 1.379 . S
C937 N935 1.356 . S
N938 C930 1.356 . S
N938 H944 0.984 . S
N938 H945 0.984 . S
N939 C932 1.356 . S
N939 H942 0.984 . S
N939 H943 0.985 . S
H940 N935 0.984 . S
H941 N935 0.985 . S
H942 N939 0.984 . S
H943 N939 0.985 . S
H944 N938 0.984 . S
H945 N938 0.984 . S
H946 N934 0.993 . S
H947 N934 0.985 . S
C409 C305 1.497 . S
C411 C33 1.497 . S
C427 C67 1.497 . S
C429 C339 1.497 . S
C445 C373 1.497 . S
C447 C101 1.497 . S
C463 C407 1.497 . S
C465 C135 1.497 . S
C481 C169 1.497 . S
C483 C237 1.497 . S
C499 C271 1.497 . S
C501 C203 1.497 . S
C517 C360 1.485 . S
C519 C20 1.485 . S
C535 C394 1.485 . S
C537 C54 1.485 . S
C553 C88 1.485 . S
C555 C224 1.485 . S
C571 C258 1.485 . S
C573 C122 1.485 . S
C589 C292 1.485 . S
C591 C156 1.485 . S
C607 C326 1.485 . S
C609 C190 1.485 . S
C625 C5 1.508 . S
C627 C9 1.404 . S
C643 C39 1.508 . S
C645 C43 1.404 . S
C661 C73 1.508 . S
C663 C77 1.404 . S
C679 C107 1.508 . S
C681 C111 1.404 . S
C697 C145 1.404 . S
C699 C141 1.508 . S
C715 C175 1.508 . S
C717 C179 1.404 . S
C733 C213 1.404 . S
C735 C209 1.508 . S
C751 C243 1.508 . S
C753 C247 1.404 . S
C769 C281 1.404 . S
C771 C277 1.508 . S
C787 C315 1.404 . S
C789 C311 1.508 . S
C805 C345 1.508 . S
C807 C349 1.404 . S
C823 C379 1.508 . S
C825 C383 1.404 . S
C841 C2 1.482 . S
C843 C376 1.482 . S
C859 C206 1.482 . S
C861 C36 1.482 . S
C877 C240 1.482 . S
C879 C70 1.482 . S
C895 C274 1.482 . S
C897 C104 1.482 . S
C913 C138 1.482 . S
C915 C308 1.482 . S
C931 C342 1.482 . S
C933 C172 1.482 . S
