# Generated by pormake.
# Topology wib, (6)-cn, num edge types: 1
# Building blocks:
#     Node 0, Type 0, BuildingBlock: IZENUY_clean_sbu_0, # of connection points: 6
#     Node 1, Type 0, BuildingBlock: IZENUY_clean_sbu_0, # of connection points: 6
#     Node 2, Type 0, BuildingBlock: IZENUY_clean_sbu_0, # of connection points: 6
#     Node 3, Type 0, BuildingBlock: IZENUY_clean_sbu_0, # of connection points: 6
#     Node 4, Type 0, BuildingBlock: IZENUY_clean_sbu_0, # of connection points: 6
#     Node 5, Type 0, BuildingBlock: IZENUY_clean_sbu_0, # of connection points: 6
#     Node 6, Type 0, BuildingBlock: IZENUY_clean_sbu_0, # of connection points: 6
#     Node 7, Type 0, BuildingBlock: IZENUY_clean_sbu_0, # of connection points: 6
#     Node 8, Type 0, BuildingBlock: IZENUY_clean_sbu_0, # of connection points: 6
#     Node 9, Type 0, BuildingBlock: IZENUY_clean_sbu_0, # of connection points: 6
#     Node 10, Type 0, BuildingBlock: IZENUY_clean_sbu_0, # of connection points: 6
#     Node 11, Type 0, BuildingBlock: IZENUY_clean_sbu_0, # of connection points: 6
#     Node 12, Type 0, BuildingBlock: IZENUY_clean_sbu_0, # of connection points: 6
#     Node 13, Type 0, BuildingBlock: IZENUY_clean_sbu_0, # of connection points: 6
#     Node 14, Type 0, BuildingBlock: IZENUY_clean_sbu_0, # of connection points: 6
#     Node 15, Type 0, BuildingBlock: IZENUY_clean_sbu_0, # of connection points: 6
#     Edge 16, Type (0, 0), BuildingBlock: ZUJKAS_clean_linker_0, # of connection points: 2
#     Edge 17, Type (0, 0), BuildingBlock: ZUJKAS_clean_linker_0, # of connection points: 2
#     Edge 18, Type (0, 0), BuildingBlock: ZUJKAS_clean_linker_0, # of connection points: 2
#     Edge 19, Type (0, 0), BuildingBlock: ZUJKAS_clean_linker_0, # of connection points: 2
#     Edge 20, Type (0, 0), BuildingBlock: ZUJKAS_clean_linker_0, # of connection points: 2
#     Edge 21, Type (0, 0), BuildingBlock: ZUJKAS_clean_linker_0, # of connection points: 2
#     Edge 22, Type (0, 0), BuildingBlock: ZUJKAS_clean_linker_0, # of connection points: 2
#     Edge 23, Type (0, 0), BuildingBlock: ZUJKAS_clean_linker_0, # of connection points: 2
#     Edge 24, Type (0, 0), BuildingBlock: ZUJKAS_clean_linker_0, # of connection points: 2
#     Edge 25, Type (0, 0), BuildingBlock: ZUJKAS_clean_linker_0, # of connection points: 2
#     Edge 26, Type (0, 0), BuildingBlock: ZUJKAS_clean_linker_0, # of connection points: 2
#     Edge 27, Type (0, 0), BuildingBlock: ZUJKAS_clean_linker_0, # of connection points: 2
#     Edge 28, Type (0, 0), BuildingBlock: ZUJKAS_clean_linker_0, # of connection points: 2
#     Edge 29, Type (0, 0), BuildingBlock: ZUJKAS_clean_linker_0, # of connection points: 2
#     Edge 30, Type (0, 0), BuildingBlock: ZUJKAS_clean_linker_0, # of connection points: 2
#     Edge 31, Type (0, 0), BuildingBlock: ZUJKAS_clean_linker_0, # of connection points: 2
#     Edge 32, Type (0, 0), BuildingBlock: ZUJKAS_clean_linker_0, # of connection points: 2
#     Edge 33, Type (0, 0), BuildingBlock: ZUJKAS_clean_linker_0, # of connection points: 2
#     Edge 34, Type (0, 0), BuildingBlock: ZUJKAS_clean_linker_0, # of connection points: 2
#     Edge 35, Type (0, 0), BuildingBlock: ZUJKAS_clean_linker_0, # of connection points: 2
#     Edge 36, Type (0, 0), BuildingBlock: ZUJKAS_clean_linker_0, # of connection points: 2
#     Edge 37, Type (0, 0), BuildingBlock: ZUJKAS_clean_linker_0, # of connection points: 2
#     Edge 38, Type (0, 0), BuildingBlock: ZUJKAS_clean_linker_0, # of connection points: 2
#     Edge 39, Type (0, 0), BuildingBlock: ZUJKAS_clean_linker_0, # of connection points: 2
#     Edge 40, Type (0, 0), BuildingBlock: ZUJKAS_clean_linker_0, # of connection points: 2
#     Edge 41, Type (0, 0), BuildingBlock: ZUJKAS_clean_linker_0, # of connection points: 2
#     Edge 42, Type (0, 0), BuildingBlock: ZUJKAS_clean_linker_0, # of connection points: 2
#     Edge 43, Type (0, 0), BuildingBlock: ZUJKAS_clean_linker_0, # of connection points: 2
#     Edge 44, Type (0, 0), BuildingBlock: ZUJKAS_clean_linker_0, # of connection points: 2
#     Edge 45, Type (0, 0), BuildingBlock: ZUJKAS_clean_linker_0, # of connection points: 2
#     Edge 46, Type (0, 0), BuildingBlock: ZUJKAS_clean_linker_0, # of connection points: 2
#     Edge 47, Type (0, 0), BuildingBlock: ZUJKAS_clean_linker_0, # of connection points: 2
#     Edge 48, Type (0, 0), BuildingBlock: ZUJKAS_clean_linker_0, # of connection points: 2
#     Edge 49, Type (0, 0), BuildingBlock: ZUJKAS_clean_linker_0, # of connection points: 2
#     Edge 50, Type (0, 0), BuildingBlock: ZUJKAS_clean_linker_0, # of connection points: 2
#     Edge 51, Type (0, 0), BuildingBlock: ZUJKAS_clean_linker_0, # of connection points: 2
#     Edge 52, Type (0, 0), BuildingBlock: ZUJKAS_clean_linker_0, # of connection points: 2
#     Edge 53, Type (0, 0), BuildingBlock: ZUJKAS_clean_linker_0, # of connection points: 2
#     Edge 54, Type (0, 0), BuildingBlock: ZUJKAS_clean_linker_0, # of connection points: 2
#     Edge 55, Type (0, 0), BuildingBlock: ZUJKAS_clean_linker_0, # of connection points: 2
#     Edge 56, Type (0, 0), BuildingBlock: ZUJKAS_clean_linker_0, # of connection points: 2
#     Edge 57, Type (0, 0), BuildingBlock: ZUJKAS_clean_linker_0, # of connection points: 2
#     Edge 58, Type (0, 0), BuildingBlock: ZUJKAS_clean_linker_0, # of connection points: 2
#     Edge 59, Type (0, 0), BuildingBlock: ZUJKAS_clean_linker_0, # of connection points: 2
#     Edge 60, Type (0, 0), BuildingBlock: ZUJKAS_clean_linker_0, # of connection points: 2
#     Edge 61, Type (0, 0), BuildingBlock: ZUJKAS_clean_linker_0, # of connection points: 2
#     Edge 62, Type (0, 0), BuildingBlock: ZUJKAS_clean_linker_0, # of connection points: 2
#     Edge 63, Type (0, 0), BuildingBlock: ZUJKAS_clean_linker_0, # of connection points: 2
# Relax obj value: 0.444
# Max RMSD: 0.268
# Mean RMSD: 0.268
data_MOF--net-wib--node1-IZENUY_clean_sbu_0--edge1-ZUJKAS_clean_linker_0
_symmetry_space_group_name_H-M    P1
_symmetry_Int_Tables_number       1
_symmetry_cell_setting            triclinic
loop_
_symmetry_equiv_pos_as_xyz
'x, y, z'
_cell_length_a     38.826678
_cell_length_b     38.760073
_cell_length_c     73.744651
_cell_angle_alpha  89.972671
_cell_angle_beta   90.065126
_cell_angle_gamma 90.08566
loop_
_atom_site_label
_atom_site_type_symbol
_atom_site_fract_x
_atom_site_fract_y
_atom_site_fract_z
_atom_type_partial_charge
Fe0 Fe 0.09573 0.57403 0.27218 0.0
Fe1 Fe 0.13652 0.50724 0.27799 0.0
O2 O 0.13082 0.55209 0.28237 0.0
Fe3 Fe 0.16006 0.57458 0.29649 0.0
O4 O 0.15797 0.61451 0.28346 0.0
O5 O 0.12341 0.6041 0.26033 0.0
O6 O 0.09577 0.54757 0.25156 0.0
C7 C 0.12125 0.53297 0.24415 0.0
C8 C 0.09983 0.60588 0.30678 0.0
O9 O 0.14233 0.51607 0.25377 0.0
C10 C 0.15004 0.51018 0.3146 0.0
O11 O 0.06564 0.54616 0.28369 0.0
O12 O 0.09004 0.49796 0.27511 0.0
O13 O 0.12636 0.58964 0.31181 0.0
O14 O 0.08948 0.6046 0.29059 0.0
C15 C 0.20517 0.532 0.27877 0.0
O16 O 0.13209 0.49653 0.30208 0.0
O17 O 0.16659 0.53799 0.31188 0.0
C18 C 0.06443 0.51405 0.28155 0.0
O19 O 0.18364 0.50764 0.28002 0.0
O20 O 0.19645 0.56248 0.28245 0.0
C21 C 0.14617 0.62216 0.26798 0.0
Fe22 Fe 0.23714 0.38412 0.52843 0.0
Fe23 Fe 0.16729 0.40676 0.54399 0.0
O24 O 0.19177 0.37852 0.5303 0.0
Fe25 Fe 0.17128 0.345 0.518 0.0
O26 O 0.20095 0.34726 0.49863 0.0
O27 O 0.23282 0.3927 0.50419 0.0
O28 O 0.23662 0.43111 0.53173 0.0
C29 C 0.21277 0.45273 0.52913 0.0
C30 C 0.22898 0.31136 0.52884 0.0
O31 O 0.18173 0.44403 0.53111 0.0
C32 C 0.13439 0.34571 0.55133 0.0
O33 O 0.24332 0.37712 0.55279 0.0
O34 O 0.20138 0.41219 0.56106 0.0
O35 O 0.19672 0.31307 0.52962 0.0
O36 O 0.24656 0.33777 0.52462 0.0
C37 C 0.12417 0.39604 0.51327 0.0
O38 O 0.14992 0.37168 0.55778 0.0
O39 O 0.13803 0.33707 0.53492 0.0
C40 C 0.22845 0.39524 0.56481 0.0
O41 O 0.12939 0.40589 0.52938 0.0
O42 O 0.14356 0.3744 0.50572 0.0
C43 C 0.21741 0.37337 0.49301 0.0
Fe44 Fe 0.3618 0.50272 0.77655 0.0
Fe45 Fe 0.34554 0.44641 0.80457 0.0
O46 O 0.36711 0.46017 0.78484 0.0
Fe47 Fe 0.39465 0.43122 0.77334 0.0
O48 O 0.36802 0.43305 0.75337 0.0
O49 O 0.36603 0.48986 0.75221 0.0
O50 O 0.31598 0.49677 0.77361 0.0
C51 C 0.29544 0.48693 0.78581 0.0
C52 C 0.43082 0.49353 0.77153 0.0
O53 O 0.30637 0.47229 0.80014 0.0
C54 C 0.41258 0.41579 0.80785 0.0
O55 O 0.35488 0.52256 0.79924 0.0
O56 O 0.36516 0.47994 0.81807 0.0
O57 O 0.42346 0.46473 0.76455 0.0
O58 O 0.40789 0.51126 0.77927 0.0
C59 C 0.34062 0.38765 0.7852 0.0
O60 O 0.38093 0.41764 0.81229 0.0
O61 O 0.42261 0.42794 0.79288 0.0
C62 C 0.36078 0.51162 0.81521 0.0
O63 O 0.32435 0.41202 0.79241 0.0
O64 O 0.37132 0.39191 0.78 0.0
C65 C 0.36159 0.46041 0.74475 0.0
Fe66 Fe 0.22659 0.62741 0.02474 0.0
Fe67 Fe 0.28429 0.61118 0.05185 0.0
O68 O 0.26988 0.63187 0.03195 0.0
Fe69 Fe 0.29887 0.65691 1.01914 0.0
O70 O 0.29329 0.62923 0.99982 0.0
O71 O 0.23673 0.63025 0.99996 0.0
O72 O 0.23152 0.58113 0.02247 0.0
C73 C 0.24123 0.56137 0.03508 0.0
C74 C 0.23771 0.6958 1.01829 0.0
O75 O 0.25533 0.57355 0.04927 0.0
C76 C 0.32 0.67589 0.05263 0.0
O77 O 0.20903 0.62261 0.04815 0.0
O78 O 0.25351 0.63455 0.06547 0.0
O79 O 0.26606 0.68727 1.01115 0.0
O80 O 0.21967 0.67383 0.02669 0.0
C81 C 0.33871 0.59971 0.0296 0.0
O82 O 0.31652 0.64474 0.05772 0.0
O83 O 0.30648 0.68585 0.03799 0.0
C84 C 0.22151 0.63064 0.06358 0.0
O85 O 0.3156 0.58655 0.03934 0.0
O86 O 0.33685 0.63088 0.02463 0.0
C87 C 0.26508 0.62349 0.992 0.0
Fe88 Fe 0.8404 0.41728 0.74248 0.0
Fe89 Fe 0.90399 0.42017 0.76711 0.0
O90 O 0.86951 0.44125 0.75595 0.0
Fe91 Fe 0.86406 0.48652 0.75874 0.0
O92 O 0.81677 0.48582 0.75663 0.0
O93 O 0.80411 0.43066 0.75631 0.0
O94 O 0.84272 0.37846 0.75647 0.0
C95 C 0.85387 0.37244 0.77229 0.0
C96 C 0.85025 0.47946 0.72235 0.0
O97 O 0.87562 0.39198 0.77972 0.0
C98 C 0.93688 0.47834 0.75641 0.0
O99 O 0.87446 0.40124 0.72764 0.0
O100 O 0.91028 0.38764 0.74962 0.0
O101 O 0.86864 0.49431 0.73431 0.0
O102 O 0.83349 0.45222 0.72609 0.0
C103 C 0.87862 0.46501 0.79353 0.0
O104 O 0.93467 0.44614 0.75504 0.0
O105 O 0.9109 0.49588 0.76142 0.0
C106 C 0.90092 0.38553 0.73325 0.0
O107 O 0.90396 0.44901 0.78684 0.0
O108 O 0.85787 0.48067 0.78318 0.0
C109 C 0.79536 0.46155 0.75896 0.0
Fe110 Fe 0.82578 0.64587 0.52423 0.0
Fe111 Fe 0.75792 0.61775 0.50896 0.0
O112 O 0.80355 0.61953 0.50838 0.0
Fe113 Fe 0.82771 0.59424 0.49304 0.0
O114 O 0.86293 0.58679 0.50911 0.0
O115 O 0.84427 0.60792 0.535 0.0
O116 O 0.79238 0.64541 0.54161 0.0
C117 C 0.77349 0.62019 0.54552 0.0
C118 C 0.86684 0.65268 0.49299 0.0
O119 O 0.75873 0.60408 0.53287 0.0
C120 C 0.76893 0.61394 0.47195 0.0
O121 O 0.80756 0.68394 0.51404 0.0
O122 O 0.75385 0.66458 0.51436 0.0
O123 O 0.84887 0.63236 0.48346 0.0
O124 O 0.8638 0.65246 0.51004 0.0
C125 C 0.77736 0.54792 0.50381 0.0
O126 O 0.75354 0.62907 0.48489 0.0
O127 O 0.79615 0.59677 0.47472 0.0
C128 C 0.77553 0.68925 0.51268 0.0
O129 O 0.75497 0.57165 0.5036 0.0
O130 O 0.80889 0.55449 0.50149 0.0
C131 C 0.86128 0.58582 0.52625 0.0
Fe132 Fe 0.63813 0.50425 0.25945 0.0
Fe133 Fe 0.65886 0.57201 0.24003 0.0
O134 O 0.63443 0.5495 0.25646 0.0
Fe135 Fe 0.6068 0.57342 0.27089 0.0
O136 O 0.60796 0.54346 0.29002 0.0
O137 O 0.65061 0.50997 0.28335 0.0
O138 O 0.68456 0.50273 0.25486 0.0
C139 C 0.70707 0.52635 0.25368 0.0
C140 C 0.56611 0.5195 0.26119 0.0
O141 O 0.69908 0.5569 0.24953 0.0
C142 C 0.59861 0.6075 0.23759 0.0
O143 O 0.62815 0.49484 0.23561 0.0
O144 O 0.65831 0.53728 0.22344 0.0
O145 O 0.57005 0.55185 0.26144 0.0
O146 O 0.59124 0.49905 0.2644 0.0
C147 C 0.66538 0.6115 0.27138 0.0
O148 O 0.6201 0.58907 0.22919 0.0
O149 O 0.59902 0.60832 0.25472 0.0
C150 C 0.64239 0.50895 0.222 0.0
O151 O 0.66411 0.61042 0.25422 0.0
O152 O 0.64362 0.59529 0.28081 0.0
C153 C 0.63362 0.5263 0.29508 0.0
Fe154 Fe 0.68563 0.35008 1.01555 0.0
Fe155 Fe 0.75885 0.37777 1.01074 0.0
O156 O 0.71588 0.37394 1.0029 0.0
Fe157 Fe 0.70309 0.39396 0.98251 0.0
O158 O 0.67146 0.41971 0.99408 0.0
O159 O 0.6485 0.37664 1.00913 0.0
O160 O 0.69071 0.37845 0.03462 0.0
C161 C 0.71854 0.38393 0.04286 0.0
C162 C 0.6662 0.32985 0.98195 0.0
O163 O 0.7472 0.37638 0.03539 0.0
C164 C 0.76612 0.37285 0.97201 0.0
O165 O 0.71732 0.31934 0.0244 0.0
O166 O 0.76481 0.33119 1.00946 0.0
O167 O 0.67072 0.36062 0.97642 0.0
O168 O 0.67841 0.32048 0.997 0.0
C169 C 0.74639 0.44362 0.99938 0.0
O170 O 0.77797 0.38106 0.98756 0.0
O171 O 0.73417 0.36944 0.96976 0.0
C172 C 0.74581 0.30987 1.01772 0.0
O173 O 0.75492 0.42417 1.01235 0.0
O174 O 0.73255 0.43123 0.98516 0.0
C175 C 0.64741 0.40746 1.0035 0.0
Fe176 Fe 0.63833 0.01313 0.78038 0.0
Fe177 Fe 0.66382 0.08223 0.79677 0.0
O178 O 0.63722 0.05875 0.7817 0.0
Fe179 Fe 0.6097 0.08193 0.76684 0.0
O180 O 0.60667 0.0489 0.74934 0.0
O181 O 0.64883 0.01484 0.75603 0.0
O182 O 0.685 0.00952 0.78404 0.0
C183 C 0.70886 0.03187 0.78449 0.0
C184 C 0.56696 0.03223 0.77952 0.0
O185 O 0.7027 0.06321 0.78773 0.0
C186 C 0.60635 0.12236 0.79824 0.0
O187 O 0.62992 0.00746 0.80466 0.0
O188 O 0.662 0.05031 0.81493 0.0
O189 O 0.57267 0.06429 0.77819 0.0
O190 O 0.59084 0.0101 0.77669 0.0
C191 C 0.67039 0.11569 0.76337 0.0
O192 O 0.62672 0.10359 0.80722 0.0
O193 O 0.60586 0.1201 0.78119 0.0
C194 C 0.6455 0.02257 0.81755 0.0
O195 O 0.67077 0.11752 0.78055 0.0
O196 O 0.64694 0.09949 0.75509 0.0
C197 C 0.63051 0.0295 0.74423 0.0
Fe198 Fe 0.67845 0.84345 1.01498 0.0
Fe199 Fe 0.74555 0.87801 0.02755 0.0
O200 O 0.69996 0.874 0.0289 0.0
Fe201 Fe 0.67588 0.90098 0.0434 0.0
O202 O 0.63917 0.9041 0.02809 0.0
O203 O 0.65424 0.87653 1.00322 0.0
O204 O 0.70983 0.84556 0.99646 0.0
C205 C 0.72659 0.87193 0.99164 0.0
C206 C 0.63981 0.84085 0.04758 0.0
O207 O 0.74226 0.88944 1.00349 0.0
C208 C 0.73609 0.88537 0.0643 0.0
O209 O 0.70103 0.8088 0.02602 0.0
O210 O 0.75264 0.8314 0.02275 0.0
O211 O 0.65664 0.86451 0.05539 0.0
O212 O 0.6431 0.83561 0.03076 0.0
C213 C 0.72355 0.94734 0.03047 0.0
O214 O 0.75113 0.86861 0.05179 0.0
O215 O 0.70906 0.90262 0.06101 0.0
C216 C 0.73328 0.80556 0.02594 0.0
O217 O 0.74676 0.92466 0.03203 0.0
O218 O 0.69228 0.93951 0.03246 0.0
C219 C 0.63669 0.89917 1.01119 0.0
Fe220 Fe 0.86454 0.9958 0.27583 0.0
Fe221 Fe 0.85351 0.9379 0.30361 0.0
O222 O 0.87415 0.95399 0.28407 0.0
Fe223 Fe 0.90481 0.92816 0.27271 0.0
O224 O 0.87875 0.9276 0.25249 0.0
O225 O 0.87057 0.98381 0.25149 0.0
O226 O 0.81975 0.98484 0.27257 0.0
C227 C 0.79998 0.97342 0.28472 0.0
C228 C 0.93417 0.9941 0.27124 0.0
O229 O 0.81211 0.96012 0.29914 0.0
C230 C 0.92296 0.91324 0.30722 0.0
O231 O 0.8553 0.01459 0.2986 0.0
O232 O 0.86959 0.97292 0.31729 0.0
O233 O 0.93037 0.96455 0.26435 0.0
O234 O 0.90929 0.0093 0.27876 0.0
C235 C 0.85533 0.87899 0.2843 0.0
O236 O 0.89117 0.91253 0.31141 0.0
O237 O 0.93242 0.9271 0.29254 0.0
C238 C 0.86227 0.00408 0.31455 0.0
O239 O 0.83619 0.90161 0.2912 0.0
O240 O 0.88527 0.88674 0.27896 0.0
C241 C 0.86941 0.95416 0.24394 0.0
Fe242 Fe 0.72643 0.12033 0.52426 0.0
Fe243 Fe 0.7885 0.10465 0.54851 0.0
O244 O 0.77065 0.12548 0.52946 0.0
Fe245 Fe 0.79708 0.15149 0.51559 0.0
O246 O 0.78883 0.1247 0.49614 0.0
O247 O 0.73246 0.12393 0.4992 0.0
O248 O 0.7318 0.07414 0.5214 0.0
C249 C 0.74401 0.05435 0.53338 0.0
C250 C 0.73535 0.18915 0.51784 0.0
O251 O 0.75998 0.06656 0.54698 0.0
C252 C 0.82254 0.17008 0.54843 0.0
O253 O 0.71273 0.11472 0.54835 0.0
O254 O 0.75967 0.12706 0.5636 0.0
O255 O 0.76261 0.1814 0.50941 0.0
O256 O 0.71909 0.16664 0.52685 0.0
C257 C 0.83963 0.09486 0.52406 0.0
O258 O 0.82079 0.13868 0.5533 0.0
O259 O 0.80722 0.18003 0.53429 0.0
C260 C 0.72758 0.12253 0.56322 0.0
O261 O 0.8181 0.08101 0.5345 0.0
O262 O 0.83628 0.12598 0.51918 0.0
C263 C 0.7594 0.11885 0.48971 0.0
Fe264 Fe 0.34286 0.92675 0.23902 0.0
Fe265 Fe 0.39905 0.92884 0.26782 0.0
O266 O 0.36913 0.95092 0.2539 0.0
Fe267 Fe 0.36509 0.99633 0.25583 0.0
O268 O 0.31815 0.99704 0.25212 0.0
O269 O 0.30394 0.94214 0.24981 0.0
O270 O 0.34014 0.88934 0.25418 0.0
C271 C 0.3422 0.88896 0.27132 0.0
C272 C 0.35675 0.98826 0.21883 0.0
O273 O 0.3643 0.90687 0.27958 0.0
C274 C 0.43763 0.98272 0.25633 0.0
O275 O 0.38018 0.90919 0.22712 0.0
O276 O 0.40555 0.89286 0.25219 0.0
O277 O 0.37298 0.00331 0.23154 0.0
O278 O 0.34065 0.96033 0.22166 0.0
C279 C 0.37397 0.97762 0.29165 0.0
O280 O 0.43405 0.95037 0.25662 0.0
O281 O 0.41229 0.00275 0.25975 0.0
C282 C 0.40324 0.89198 0.23511 0.0
O283 O 0.39932 0.96044 0.28617 0.0
O284 O 0.35502 0.99248 0.28015 0.0
C285 C 0.29583 0.97313 0.25277 0.0
Fe286 Fe 0.31664 0.15697 0.02071 0.0
Fe287 Fe 0.24826 0.12585 1.00764 0.0
O288 O 0.29385 0.12863 1.00604 0.0
Fe289 Fe 0.31712 0.10266 0.99068 0.0
O290 O 0.35357 0.09688 1.00597 0.0
O291 O 0.33852 0.1213 0.03175 0.0
O292 O 0.285 0.15582 0.03904 0.0
C293 C 0.26741 0.13002 0.04368 0.0
C294 C 0.35529 0.16173 0.98834 0.0
O295 O 0.25159 0.11317 0.03163 0.0
C296 C 0.25694 0.12102 0.9705 0.0
O297 O 0.29588 0.19348 1.01033 0.0
O298 O 0.24315 0.17263 1.01282 0.0
O299 O 0.3371 0.1401 0.97979 0.0
O300 O 0.35283 0.1641 1.00537 0.0
C301 C 0.26844 0.05619 1.00299 0.0
O302 O 0.24193 0.13627 0.98354 0.0
O303 O 0.28414 0.1037 0.97306 0.0
C304 C 0.26368 0.19785 1.0101 0.0
O305 O 0.24569 0.07954 1.00269 0.0
O306 O 0.29972 0.06329 1.00034 0.0
C307 C 0.35486 0.09861 0.02308 0.0
Fe308 Fe 0.1385 0.9955 0.76011 0.0
Fe309 Fe 0.15078 0.06846 0.74456 0.0
O310 O 0.12839 0.04007 0.75909 0.0
Fe311 Fe 0.09619 0.05682 0.77363 0.0
O312 O 0.10142 0.02426 0.79137 0.0
O313 O 0.1495 0.99956 0.78428 0.0
O314 O 0.1847 0.00112 0.75586 0.0
C315 C 0.20393 0.02744 0.75692 0.0
C316 C 0.06515 0.99891 0.76128 0.0
O317 O 0.19198 0.0574 0.75465 0.0
C318 C 0.08641 0.09597 0.74179 0.0
O319 O 0.13031 0.98908 0.73584 0.0
O320 O 0.15636 0.03659 0.72649 0.0
O321 O 0.06405 0.03135 0.76228 0.0
O322 O 0.09299 0.98248 0.76445 0.0
C323 C 0.14675 0.10432 0.77767 0.0
O324 O 0.11099 0.082 0.73333 0.0
O325 O 0.08422 0.09268 0.7588 0.0
C326 C 0.14399 0.0069 0.72329 0.0
O327 O 0.14943 0.10488 0.76052 0.0
O328 O 0.12764 0.08278 0.78554 0.0
C329 C 0.12975 0.01163 0.79626 0.0
Fe330 Fe 0.19749 0.85749 0.51973 0.0
Fe331 Fe 0.26959 0.88462 0.51075 0.0
O332 O 0.22517 0.88165 0.50559 0.0
Fe333 Fe 0.20844 0.90273 0.48633 0.0
O334 O 0.17984 0.92812 0.50005 0.0
O335 O 0.15957 0.88472 0.51586 0.0
O336 O 0.20705 0.88466 0.53887 0.0
C337 C 0.23671 0.88929 0.54523 0.0
C338 C 0.17122 0.83892 0.48704 0.0
O339 O 0.26333 0.88198 0.53587 0.0
C340 C 0.26856 0.88195 0.47177 0.0
O341 O 0.23054 0.82606 0.5262 0.0
O342 O 0.27435 0.83799 0.50836 0.0
O343 O 0.17473 0.86993 0.4817 0.0
O344 O 0.1859 0.82887 0.50135 0.0
C345 C 0.25538 0.95116 0.50128 0.0
O346 O 0.28369 0.88912 0.48665 0.0
O347 O 0.23633 0.8787 0.47142 0.0
C348 C 0.257 0.81662 0.51754 0.0
O349 O 0.26666 0.93097 0.51333 0.0
O350 O 0.23863 0.93959 0.48776 0.0
C351 C 0.15766 0.91573 0.5106 0.0
H352 H 0.25993 0.57668 0.27841 0.0
H353 H 0.32074 0.56281 0.27403 0.0
H354 H 0.29476 0.45559 0.26658 0.0
H355 H 0.23375 0.46913 0.27085 0.0
H356 H 0.35992 0.51477 0.29559 0.0
H357 H 0.35708 0.47973 0.22239 0.0
H358 H 0.32327 0.50455 0.23295 0.0
H359 H 0.3261 0.45896 0.2369 0.0
C360 C 0.26702 0.55017 0.27569 0.0
C361 C 0.24187 0.52403 0.27501 0.0
C362 C 0.30182 0.54229 0.27324 0.0
C363 C 0.31221 0.50821 0.2699 0.0
C364 C 0.28724 0.4821 0.26894 0.0
H365 H 0.53551 0.46413 0.27829 0.0
H366 H 0.47315 0.45252 0.27996 0.0
C367 C 0.25238 0.48993 0.27145 0.0
C368 C 0.34935 0.50016 0.26801 0.0
H369 H 0.41078 0.47727 0.23717 0.0
C370 C 0.37106 0.50612 0.28291 0.0
C371 C 0.36367 0.48888 0.25142 0.0
C372 C 0.3415 0.48281 0.23491 0.0
C373 C 0.40691 0.50231 0.2815 0.0
C374 C 0.42139 0.49188 0.26477 0.0
C375 C 0.39955 0.48478 0.25004 0.0
C376 C 0.45905 0.49376 0.26159 0.0
C377 C 0.42918 0.51138 0.2976 0.0
C378 C 0.47171 0.51953 0.25006 0.0
C379 C 0.50693 0.52612 0.24911 0.0
C380 C 0.53034 0.50687 0.25956 0.0
C381 C 0.518 0.47924 0.27006 0.0
C382 C 0.48245 0.47281 0.27113 0.0
H383 H 0.41415 0.52336 0.30875 0.0
H384 H 0.44149 0.48762 0.30293 0.0
H385 H 0.44997 0.52948 0.29352 0.0
H386 H 0.45417 0.53594 0.24255 0.0
H387 H 0.51577 0.54743 0.2408 0.0
H388 H 0.26106 0.7764 0.54741 0.0
H389 H 0.26247 0.71341 0.54832 0.0
H390 H 0.27047 0.71076 0.48994 0.0
H391 H 0.27105 0.774 0.4892 0.0
H392 H 0.21374 0.67606 0.53529 0.0
H393 H 0.33432 0.63395 0.50214 0.0
H394 H 0.32745 0.67796 0.50922 0.0
H395 H 0.30989 0.66266 0.48808 0.0
C396 C 0.26452 0.76229 0.53486 0.0
C397 C 0.26634 0.77987 0.51826 0.0
C398 C 0.26507 0.72632 0.53535 0.0
C399 C 0.26664 0.70713 0.51921 0.0
C400 C 0.27011 0.72479 0.50263 0.0
H401 H 0.17177 0.50296 0.51459 0.0
H402 H 0.18551 0.56415 0.5107 0.0
C403 C 0.27042 0.76094 0.50219 0.0
C404 C 0.26021 0.66926 0.51974 0.0
H405 H 0.29043 0.59098 0.50566 0.0
C406 C 0.23075 0.6575 0.52893 0.0
C407 C 0.28236 0.64489 0.51151 0.0
C408 C 0.31545 0.65547 0.50235 0.0
C409 C 0.22284 0.62228 0.5302 0.0
C410 C 0.24419 0.59797 0.52136 0.0
C411 C 0.27378 0.60962 0.51222 0.0
C412 C 0.23684 0.56032 0.52206 0.0
C413 C 0.19219 0.61157 0.54148 0.0
C414 C 0.26172 0.5374 0.52881 0.0
C415 C 0.2542 0.50229 0.53065 0.0
C416 C 0.22149 0.48944 0.52594 0.0
C417 C 0.19698 0.5122 0.51863 0.0
C418 C 0.20476 0.54721 0.51649 0.0
H419 H 0.18524 0.6317 0.55155 0.0
H420 H 0.16961 0.60767 0.53247 0.0
H421 H 0.19726 0.58712 0.54886 0.0
H422 H 0.28672 0.54683 0.5331 0.0
H423 H 0.27368 0.48541 0.53629 0.0
H424 H 0.26626 0.53856 0.76589 0.0
H425 H 0.20508 0.55038 0.76141 0.0
H426 H 0.17938 0.4634 0.79539 0.0
H427 H 0.24065 0.45267 0.80069 0.0
H428 H 0.15908 0.51579 0.74537 0.0
H429 H 0.11381 0.53071 0.81571 0.0
H430 H 0.15901 0.52924 0.81015 0.0
H431 H 0.13477 0.48989 0.81317 0.0
C432 C 0.24754 0.52223 0.77262 0.0
C433 C 0.25828 0.49475 0.78373 0.0
C434 C 0.21251 0.52903 0.77004 0.0
C435 C 0.18732 0.50824 0.7783 0.0
C436 C 0.19808 0.48065 0.78935 0.0
H437 H 0.9921 0.4519 0.739 0.0
H438 H 0.05218 0.46682 0.74335 0.0
C439 C 0.23317 0.4743 0.79226 0.0
C440 C 0.15006 0.5138 0.77421 0.0
H441 H 0.07013 0.51564 0.79354 0.0
C442 C 0.13977 0.51637 0.75598 0.0
C443 C 0.12458 0.5156 0.78794 0.0
C444 C 0.1337 0.51663 0.80782 0.0
C445 C 0.10487 0.51857 0.75108 0.0
C446 C 0.0793 0.51682 0.76473 0.0
C447 C 0.08958 0.51645 0.783 0.0
C448 C 0.04222 0.51127 0.76032 0.0
C449 C 0.0959 0.52244 0.73127 0.0
C450 C 0.01611 0.53119 0.76842 0.0
C451 C 0.98126 0.52233 0.76611 0.0
C452 C 0.97209 0.49319 0.75582 0.0
C453 C 0.99823 0.47454 0.747 0.0
C454 C 0.03276 0.48324 0.74937 0.0
H455 H 0.11611 0.53731 0.724 0.0
H456 H 0.09453 0.49652 0.72492 0.0
H457 H 0.0708 0.53564 0.72935 0.0
H458 H 0.02275 0.55284 0.77703 0.0
H459 H 0.96177 0.53699 0.77322 0.0
H460 H 0.29343 0.25252 0.99346 0.0
H461 H 0.28081 0.31353 0.99809 0.0
H462 H 0.19462 0.28648 0.03209 0.0
H463 H 0.20678 0.22488 0.02718 0.0
H464 H 0.18278 0.34544 1.00956 0.0
H465 H 0.30565 0.35578 0.04742 0.0
H466 H 0.31116 0.33878 0.02499 0.0
H467 H 0.28665 0.31481 0.04144 0.0
C468 C 0.27136 0.25951 1.00165 0.0
C469 C 0.25131 0.23395 1.01012 0.0
C470 C 0.2643 0.29439 1.00436 0.0
C471 C 0.23739 0.30453 1.01583 0.0
C472 C 0.21573 0.27916 0.02331 0.0
H473 H 0.24623 0.51222 0.0617 0.0
H474 H 0.24009 0.44972 0.05842 0.0
C475 C 0.22259 0.24402 0.02044 0.0
C476 C 0.23375 0.34144 0.02086 0.0
H477 H 0.27894 0.40872 0.03899 0.0
C478 C 0.20361 0.35929 1.01615 0.0
C479 C 0.26064 0.3593 0.02984 0.0
C480 C 0.2927 0.34113 0.0364 0.0
C481 C 0.20031 0.3949 0.01948 0.0
C482 C 0.22818 0.41318 0.0274 0.0
C483 C 0.25768 0.39492 0.03276 0.0
C484 C 0.2281 0.45134 0.02975 0.0
C485 C 0.16695 0.41247 1.01456 0.0
C486 C 0.22329 0.4732 1.01477 0.0
C487 C 0.22649 0.50898 1.01664 0.0
C488 C 0.23516 0.52367 0.03349 0.0
C489 C 0.23958 0.50178 0.04853 0.0
C490 C 0.23603 0.46602 0.04667 0.0
H491 H 0.14509 0.39393 1.01459 0.0
H492 H 0.16099 0.43382 0.02408 0.0
H493 H 0.16908 0.42331 1.00068 0.0
H494 H 0.2182 0.46257 1.00145 0.0
H495 H 0.22328 0.52502 1.00473 0.0
H496 H 0.47342 0.50814 0.79976 0.0
H497 H 0.53649 0.51011 0.79867 0.0
H498 H 0.53271 0.50512 0.74021 0.0
H499 H 0.46989 0.50107 0.74147 0.0
H500 H 0.57254 0.45785 0.75186 0.0
H501 H 0.61063 0.57734 0.78758 0.0
H502 H 0.58332 0.55078 0.80134 0.0
H503 H 0.5668 0.56918 0.78065 0.0
C504 C 0.48614 0.50883 0.78669 0.0
C505 C 0.46696 0.50498 0.77068 0.0
C506 C 0.52223 0.50995 0.78605 0.0
C507 C 0.53962 0.50808 0.76933 0.0
C508 C 0.52008 0.50658 0.75328 0.0
H509 H 0.76193 0.52283 0.75344 0.0
H510 H 0.7003 0.53446 0.75653 0.0
C511 C 0.48417 0.5046 0.75397 0.0
C512 C 0.57774 0.50324 0.76853 0.0
H513 H 0.65496 0.53497 0.78347 0.0
C514 C 0.59049 0.47501 0.75865 0.0
C515 C 0.60142 0.52558 0.77727 0.0
C516 C 0.58986 0.55761 0.78714 0.0
C517 C 0.62591 0.46839 0.7573 0.0
C518 C 0.64952 0.48973 0.76674 0.0
C519 C 0.63691 0.51824 0.77647 0.0
C520 C 0.68737 0.48332 0.76621 0.0
C521 C 0.63757 0.43904 0.74534 0.0
C522 C 0.70094 0.45103 0.77111 0.0
C523 C 0.73609 0.44411 0.76904 0.0
C524 C 0.7586 0.46964 0.76246 0.0
C525 C 0.7453 0.50255 0.75851 0.0
C526 C 0.71003 0.50926 0.76029 0.0
H527 H 0.61787 0.43253 0.73494 0.0
H528 H 0.66203 0.44539 0.73829 0.0
H529 H 0.64173 0.41572 0.75378 0.0
H530 H 0.68424 0.43091 0.77628 0.0
H531 H 0.74559 0.41867 0.77248 0.0
H532 H 0.70305 0.22743 0.54406 0.0
H533 H 0.69625 0.29057 0.54415 0.0
H534 H 0.73641 0.29516 0.48968 0.0
H535 H 0.74303 0.23274 0.48951 0.0
H536 H 0.75239 0.33436 0.54051 0.0
H537 H 0.65702 0.36311 0.48701 0.0
H538 H 0.66085 0.32091 0.49724 0.0
H539 H 0.68924 0.33363 0.47912 0.0
C540 C 0.70921 0.2419 0.53192 0.0
C541 C 0.72354 0.22528 0.51678 0.0
C542 C 0.70555 0.27792 0.53201 0.0
C543 C 0.71553 0.29755 0.51685 0.0
C544 C 0.72787 0.28059 0.50139 0.0
H545 H 0.81733 0.48972 0.50379 0.0
H546 H 0.79896 0.43025 0.50892 0.0
C547 C 0.73184 0.24488 0.50135 0.0
C548 C 0.71764 0.33573 0.51772 0.0
H549 H 0.69868 0.40821 0.49339 0.0
C550 C 0.74005 0.35065 0.53046 0.0
C551 C 0.70136 0.35704 0.50472 0.0
C552 C 0.67549 0.34286 0.49138 0.0
C553 C 0.74827 0.38592 0.52982 0.0
C554 C 0.73414 0.40665 0.51588 0.0
C555 C 0.70999 0.3922 0.50388 0.0
C556 C 0.74522 0.44291 0.513 0.0
C557 C 0.77248 0.4005 0.54389 0.0
C558 C 0.72099 0.46972 0.51305 0.0
C559 C 0.73137 0.50378 0.50994 0.0
C560 C 0.7662 0.51168 0.5066 0.0
C561 C 0.79035 0.48465 0.50637 0.0
C562 C 0.77992 0.45062 0.50947 0.0
H563 H 0.77219 0.38479 0.5565 0.0
H564 H 0.79913 0.40022 0.53848 0.0
H565 H 0.76569 0.42752 0.54736 0.0
H566 H 0.69405 0.46431 0.51561 0.0
H567 H 0.71207 0.52392 0.51025 0.0
H568 H 0.73329 0.47079 0.27198 0.0
H569 H 0.79369 0.45967 0.27959 0.0
H570 H 0.82381 0.55141 0.25045 0.0
H571 H 0.76361 0.56336 0.2434 0.0
H572 H 0.8504 0.44785 0.26021 0.0
H573 H 0.86776 0.56911 0.29852 0.0
H574 H 0.82599 0.55461 0.29097 0.0
H575 H 0.85411 0.57769 0.27575 0.0
C576 C 0.75283 0.48852 0.26715 0.0
C577 C 0.74366 0.51811 0.25721 0.0
C578 C 0.78732 0.48214 0.27153 0.0
C579 C 0.81322 0.50513 0.26596 0.0
C580 C 0.8042 0.53388 0.25539 0.0
H581 H 0.03081 0.48144 0.25422 0.0
H582 H 0.96858 0.47232 0.2524 0.0
C583 C 0.76976 0.54056 0.25125 0.0
C584 C 0.84968 0.49934 0.27122 0.0
H585 H 0.91942 0.54023 0.28931 0.0
C586 C 0.86545 0.46784 0.2668 0.0
C587 C 0.86911 0.52505 0.28024 0.0
C588 C 0.85323 0.55831 0.28682 0.0
C589 C 0.90053 0.462 0.27042 0.0
C590 C 0.92055 0.48875 0.27818 0.0
C591 C 0.90432 0.51967 0.28325 0.0
C592 C 0.9586 0.48659 0.28033 0.0
C593 C 0.91559 0.42718 0.26594 0.0
C594 C 0.97404 0.49709 0.29668 0.0
C595 C 0.00944 0.50324 0.29753 0.0
C596 C 0.03015 0.49809 0.28221 0.0
C597 C 0.01537 0.48475 0.26633 0.0
C598 C 0.97975 0.47947 0.26531 0.0
H599 H 0.89572 0.4066 0.26688 0.0
H600 H 0.92523 0.42749 0.25178 0.0
H601 H 0.93725 0.42052 0.27513 0.0
H602 H 0.95839 0.50274 0.30846 0.0
H603 H 0.02035 0.51395 0.30984 0.0
H604 H 0.74088 0.49262 0.97263 0.0
H605 H 0.74955 0.55494 0.97551 0.0
H606 H 0.77556 0.542 0.03198 0.0
H607 H 0.76785 0.47982 0.02913 0.0
H608 H 0.71366 0.59754 0.99597 0.0
H609 H 0.85008 0.60776 1.01671 0.0
H610 H 0.83196 0.56849 1.00759 0.0
H611 H 0.82664 0.57898 0.03122 0.0
C612 C 0.74896 0.50298 0.9856 0.0
C613 C 0.75374 0.48115 1.00063 0.0
C614 C 0.75396 0.53863 0.98722 0.0
C615 C 0.76383 0.55321 1.00389 0.0
C616 C 0.76899 0.5314 1.01884 0.0
H617 H 0.70763 0.75078 0.04418 0.0
H618 H 0.71978 0.68993 0.03865 0.0
C619 C 0.76425 0.49577 1.01721 0.0
C620 C 0.76532 0.59134 1.00615 0.0
H621 H 0.81432 0.65724 0.02324 0.0
C622 C 0.73591 0.61057 1.00168 0.0
C623 C 0.79446 0.6086 1.0134 0.0
C624 C 0.82768 0.58991 1.01732 0.0
C625 C 0.73424 0.64614 1.005 0.0
C626 C 0.76244 0.66294 1.0134 0.0
C627 C 0.79252 0.64418 1.01709 0.0
C628 C 0.76007 0.69959 1.01906 0.0
C629 C 0.70203 0.66541 0.99963 0.0
C630 C 0.78031 0.72521 1.01077 0.0
C631 C 0.77373 0.76024 1.01413 0.0
C632 C 0.74672 0.7699 0.02574 0.0
C633 C 0.72843 0.74407 0.03505 0.0
C634 C 0.73521 0.7093 0.03183 0.0
H635 H 0.6873 0.65141 0.989 0.0
H636 H 0.68511 0.66813 1.01167 0.0
H637 H 0.7083 0.69164 0.99453 0.0
H638 H 0.7998 0.71818 1.00095 0.0
H639 H 0.78806 0.77961 1.00669 0.0
H640 H 0.73239 0.97158 0.76947 0.0
H641 H 0.7922 0.95551 0.76329 0.0
H642 H 0.82681 0.05162 0.78659 0.0
H643 H 0.76727 0.0683 0.79218 0.0
H644 H 0.85857 0.04017 0.75602 0.0
H645 H 0.86485 0.92045 0.79711 0.0
H646 H 0.83179 0.91971 0.7801 0.0
H647 H 0.82919 0.95008 0.79849 0.0
C648 C 0.75279 0.98913 0.77342 0.0
C649 C 0.74504 0.02114 0.78142 0.0
C650 C 0.78701 0.97981 0.76998 0.0
C651 C 0.81417 0.00201 0.77479 0.0
C652 C 0.80639 0.03393 0.78281 0.0
H653 H 0.02989 0.97673 0.7905 0.0
H654 H 0.96717 0.97097 0.792 0.0
C655 C 0.77227 0.04344 0.78603 0.0
C656 C 0.85068 0.99302 0.77088 0.0
H657 H 0.91379 0.9336 0.77922 0.0
C658 C 0.87059 0.01679 0.76105 0.0
C659 C 0.86647 0.96262 0.77755 0.0
C660 C 0.8471 0.93689 0.78905 0.0
C661 C 0.90588 0.01158 0.75809 0.0
C662 C 0.92162 0.98091 0.7645 0.0
C663 C 0.90161 0.95677 0.77404 0.0
C664 C 0.95944 0.97543 0.76301 0.0
C665 C 0.9262 0.03996 0.74896 0.0
C666 C 0.97616 0.97734 0.74614 0.0
C667 C 0.01199 0.98098 0.74532 0.0
C668 C 0.0316 0.98149 0.7613 0.0
C669 C 0.01528 0.97559 0.77798 0.0
C670 C 0.97942 0.97261 0.77884 0.0
H671 H 0.91211 0.0649 0.74901 0.0
H672 H 0.95145 0.04392 0.75574 0.0
H673 H 0.93097 0.03282 0.73462 0.0
H674 H 0.96135 0.97863 0.73371 0.0
H675 H 0.02405 0.98613 0.73235 0.0
H676 H 0.68061 0.00181 0.0239 0.0
H677 H 0.69623 0.06235 0.01986 0.0
H678 H 0.8036 0.03676 0.02618 0.0
H679 H 0.78825 0.97594 0.03036 0.0
H680 H 0.78221 0.09283 0.04753 0.0
H681 H 0.74169 0.10947 0.97605 0.0
H682 H 0.70877 0.09044 0.98992 0.0
H683 H 0.74841 0.06755 0.98617 0.0
C684 C 0.70761 0.00893 0.02435 0.0
C685 C 0.73318 0.98396 0.02749 0.0
C686 C 0.71648 0.04356 0.02189 0.0
C687 C 0.7511 0.05397 0.02245 0.0
C688 C 0.77675 0.02919 0.02556 0.0
H689 H 0.79172 0.27274 0.99722 0.0
H690 H 0.80131 0.21007 0.99831 0.0
C691 C 0.76791 0.99445 0.02795 0.0
C692 C 0.76005 0.09104 0.02075 0.0
H693 H 0.74801 0.16138 0.99362 0.0
C694 C 0.7753 0.10775 0.03562 0.0
C695 C 0.75159 0.11037 1.0051 0.0
C696 C 0.73703 0.0935 0.98833 0.0
C697 C 0.78023 0.14365 0.03569 0.0
C698 C 0.76932 0.1633 0.02058 0.0
C699 C 0.75616 0.14632 1.00526 0.0
C700 C 0.76752 0.20149 0.02119 0.0
C701 C 0.79627 0.16035 0.05214 0.0
C702 C 0.74565 0.21737 0.03378 0.0
C703 C 0.74003 0.25287 0.03313 0.0
C704 C 0.75615 0.27335 0.01986 0.0
C705 C 0.77918 0.25768 1.00769 0.0
C706 C 0.78457 0.22192 1.00825 0.0
H707 H 0.81298 0.14194 0.05961 0.0
H708 H 0.8118 0.1833 0.04831 0.0
H709 H 0.77556 0.16881 0.06148 0.0
H710 H 0.73171 0.20208 0.04364 0.0
H711 H 0.72212 0.2641 0.0427 0.0
H712 H 0.46814 0.03026 0.27871 0.0
H713 H 0.53044 0.03639 0.28381 0.0
H714 H 0.55013 0.96779 0.23898 0.0
H715 H 0.48827 0.96108 0.23417 0.0
H716 H 0.57843 0.94532 0.27098 0.0
H717 H 0.6129 0.08254 0.2586 0.0
H718 H 0.57701 0.07546 0.27353 0.0
H719 H 0.57361 0.06344 0.25009 0.0
C720 C 0.48587 0.01773 0.2695 0.0
C721 C 0.4735 0.99535 0.25599 0.0
C722 C 0.52146 0.02109 0.27247 0.0
C723 C 0.54499 0.00247 0.26179 0.0
C724 C 0.53251 0.98231 0.24741 0.0
H725 H 0.7659 0.99887 0.25516 0.0
H726 H 0.70406 0.00697 0.25123 0.0
C727 C 0.49717 0.9787 0.24458 0.0
C728 C 0.58205 0.0002 0.26678 0.0
H729 H 0.65655 0.04662 0.27076 0.0
C730 C 0.5955 0.96751 0.27097 0.0
C731 C 0.60426 0.02912 0.26674 0.0
C732 C 0.59142 0.06463 0.26187 0.0
C733 C 0.63058 0.96281 0.27482 0.0
C734 C 0.65285 0.99171 0.27486 0.0
C735 C 0.63938 0.02452 0.27087 0.0
C736 C 0.69053 0.98798 0.27787 0.0
C737 C 0.6437 0.92672 0.27819 0.0
C738 C 0.70362 0.97481 0.29424 0.0
C739 C 0.73912 0.96991 0.29653 0.0
C740 C 0.76224 0.97835 0.28252 0.0
C741 C 0.74896 0.99203 0.26626 0.0
C742 C 0.71355 0.99684 0.26399 0.0
H743 H 0.62498 0.90679 0.27366 0.0
H744 H 0.6685 0.92237 0.27107 0.0
H745 H 0.64813 0.92312 0.29294 0.0
H746 H 0.68635 0.96827 0.30525 0.0
H747 H 0.74843 0.95959 0.30928 0.0
H748 H 0.80921 0.74336 0.49759 0.0
H749 H 0.79617 0.8046 0.50085 0.0
H750 H 0.70405 0.77932 0.53069 0.0
H751 H 0.71652 0.71752 0.52698 0.0
H752 H 0.69497 0.83583 0.508 0.0
H753 H 0.81327 0.85158 0.5491 0.0
H754 H 0.82216 0.83405 0.52711 0.0
H755 H 0.79647 0.80978 0.54295 0.0
C756 C 0.78587 0.75079 0.50462 0.0
C757 C 0.76408 0.72566 0.51222 0.0
C758 C 0.77857 0.78583 0.50657 0.0
C759 C 0.74972 0.79659 0.51649 0.0
C760 C 0.72667 0.77159 0.52314 0.0
H761 H 0.74939 0.00573 0.56013 0.0
H762 H 0.74567 0.94306 0.55698 0.0
C763 C 0.73374 0.73631 0.52097 0.0
C764 C 0.74494 0.83382 0.52063 0.0
H765 H 0.78652 0.90333 0.53883 0.0
C766 C 0.71481 0.85059 0.51488 0.0
C767 C 0.77047 0.85295 0.52999 0.0
C768 C 0.80223 0.83611 0.53782 0.0
C769 C 0.71015 0.88623 0.51763 0.0
C770 C 0.73671 0.90574 0.52598 0.0
C771 C 0.76626 0.88862 0.53226 0.0
C772 C 0.73502 0.94393 0.52814 0.0
C773 C 0.67666 0.90244 0.51174 0.0
C774 C 0.72998 0.9655 0.51305 0.0
C775 C 0.73161 0.00142 0.51489 0.0
C776 C 0.73905 0.01652 0.53179 0.0
C777 C 0.74369 0.99494 0.54692 0.0
C778 C 0.74155 0.95907 0.54512 0.0
H779 H 0.65544 0.88318 0.51149 0.0
H780 H 0.66918 0.92395 0.52086 0.0
H781 H 0.67958 0.91278 0.49779 0.0
H782 H 0.72596 0.9546 0.4997 0.0
H783 H 0.72834 0.0173 0.50292 0.0
H784 H 0.9678 0.0184 0.24171 0.0
H785 H 0.03026 0.02634 0.23903 0.0
H786 H 0.04153 0.00673 0.29634 0.0
H787 H 0.97888 0.00056 0.29911 0.0
H788 H 0.09025 0.05183 0.28454 0.0
H789 H 0.08446 0.93805 0.23903 0.0
H790 H 0.06059 0.97425 0.23061 0.0
H791 H 0.04743 0.95336 0.2513 0.0
C792 C 0.98358 0.01736 0.25382 0.0
C793 C 0.96876 0.00936 0.27064 0.0
C794 C 0.01925 0.02136 0.25227 0.0
C795 C 0.04069 0.01608 0.26738 0.0
C796 C 0.02557 0.01079 0.28447 0.0
H797 H 0.24422 0.92886 0.26218 0.0
H798 H 0.18351 0.94184 0.26681 0.0
C799 C 0.98979 0.0075 0.28609 0.0
C800 C 0.07854 0.01211 0.2651 0.0
H801 H 0.13893 0.96363 0.2432 0.0
C802 C 0.10096 0.03262 0.27548 0.0
C803 C 0.09251 0.98644 0.25358 0.0
C804 C 0.07004 0.96152 0.24314 0.0
C805 C 0.13692 0.02824 0.27462 0.0
C806 C 0.15084 0.00326 0.26268 0.0
C807 C 0.12835 0.98293 0.25226 0.0
C808 C 0.18848 0.99648 0.26117 0.0
C809 C 0.15946 0.04956 0.28698 0.0
C810 C 0.21178 0.02284 0.25655 0.0
C811 C 0.24683 0.01553 0.25421 0.0
C812 C 0.25911 0.98157 0.25604 0.0
C813 C 0.2357 0.95528 0.26066 0.0
C814 C 0.20089 0.96269 0.26329 0.0
H815 H 0.14478 0.0597 0.29875 0.0
H816 H 0.18155 0.03427 0.29214 0.0
H817 H 0.16972 0.07196 0.27931 0.0
H818 H 0.20279 0.04893 0.25434 0.0
H819 H 0.26413 0.03631 0.25051 0.0
H820 H 0.20306 0.03024 1.00689 0.0
H821 H 0.18621 0.97007 1.01188 0.0
H822 H 0.29293 0.93961 1.0106 0.0
H823 H 0.31008 0.99949 1.00571 0.0
H824 H 0.19905 0.91288 0.98959 0.0
H825 H 0.25716 0.89515 0.05755 0.0
H826 H 0.24987 0.93723 0.04773 0.0
H827 H 0.28699 0.91236 0.0413 0.0
C828 C 0.22301 0.01076 1.00773 0.0
C829 C 0.25799 0.01977 1.00592 0.0
C830 C 0.21327 0.97641 1.0106 0.0
C831 C 0.23833 0.95048 1.01191 0.0
C832 C 0.2732 0.95933 1.01002 0.0
H833 H 0.25404 0.73998 0.99114 0.0
H834 H 0.24514 0.80211 0.99033 0.0
C835 C 0.28297 0.99359 1.00709 0.0
C836 C 0.22819 0.9139 1.01446 0.0
H837 H 0.24385 0.84341 0.04096 0.0
C838 C 0.20832 0.89779 1.00098 0.0
C839 C 0.2397 0.89438 0.0295 0.0
C840 C 0.25931 0.91072 0.04495 0.0
C841 C 0.20167 0.86218 1.00153 0.0
C842 C 0.21553 0.8422 1.01583 0.0
C843 C 0.23339 0.85871 0.02994 0.0
C844 C 0.2158 0.80396 1.01524 0.0
C845 C 0.18065 0.84608 0.98654 0.0
C846 C 0.20199 0.78416 0.02947 0.0
C847 C 0.20695 0.74832 0.02993 0.0
C848 C 0.2264 0.73202 1.01635 0.0
C849 C 0.23895 0.7518 1.0018 0.0
C850 C 0.23368 0.78734 1.00125 0.0
H851 H 0.16279 0.86514 0.98036 0.0
H852 H 0.19823 0.83682 0.97574 0.0
H853 H 0.16547 0.82376 0.99158 0.0
H854 H 0.18839 0.79658 0.04049 0.0
H855 H 0.19731 0.73374 0.04139 0.0
H856 H 0.53615 0.97352 0.76619 0.0
H857 H 0.47386 0.96249 0.76396 0.0
H858 H 0.45362 0.05619 0.79356 0.0
H859 H 0.51533 0.06733 0.79583 0.0
H860 H 0.40991 0.99687 0.80289 0.0
H861 H 0.41666 0.02688 0.72904 0.0
H862 H 0.445 0.99401 0.73767 0.0
H863 H 0.451 0.03801 0.7445 0.0
C864 C 0.51839 0.99125 0.7726 0.0
C865 C 0.53053 0.02145 0.78103 0.0
C866 C 0.48289 0.98506 0.77121 0.0
C867 C 0.45923 0.0088 0.7784 0.0
C868 C 0.47145 0.03763 0.78789 0.0
H869 H 0.25472 0.07664 0.75609 0.0
H870 H 0.31639 0.06859 0.76146 0.0
C871 C 0.50672 0.04398 0.78913 0.0
C872 C 0.42181 0.00579 0.77479 0.0
H873 H 0.36173 0.01854 0.74158 0.0
C874 C 0.3993 0.00102 0.78946 0.0
C875 C 0.40818 0.01184 0.75727 0.0
C876 C 0.43129 0.0182 0.74117 0.0
C877 C 0.36342 0.00267 0.7871 0.0
C878 C 0.34987 0.00927 0.76964 0.0
C879 C 0.37233 0.0134 0.75493 0.0
C880 C 0.31248 0.01377 0.76654 0.0
C881 C 0.3402 0.9987 0.80335 0.0
C882 C 0.28998 0.98552 0.76752 0.0
C883 C 0.25474 0.98996 0.76435 0.0
C884 C 0.24136 0.02277 0.76017 0.0
C885 C 0.26409 0.05102 0.75925 0.0
C886 C 0.29934 0.04649 0.7623 0.0
H887 H 0.35488 0.99821 0.81629 0.0
H888 H 0.3213 0.02017 0.80385 0.0
H889 H 0.32549 0.97423 0.80217 0.0
H890 H 0.29973 0.96002 0.77064 0.0
H891 H 0.23799 0.96765 0.76524 0.0
H892 H 0.28347 0.28727 0.50883 0.0
H893 H 0.29785 0.22628 0.50362 0.0
H894 H 0.22268 0.19599 0.54359 0.0
H895 H 0.20781 0.25643 0.54856 0.0
H896 H 0.31708 0.16676 0.52587 0.0
H897 H 0.1872 0.15497 0.49513 0.0
H898 H 0.20693 0.19614 0.49997 0.0
H899 H 0.18663 0.17184 0.51779 0.0
C900 C 0.27082 0.26761 0.51688 0.0
C901 C 0.24427 0.27648 0.52895 0.0
C902 C 0.27893 0.23282 0.51384 0.0
C903 C 0.26072 0.20667 0.52293 0.0
C904 C 0.23653 0.21576 0.53618 0.0
H905 H 0.27935 0.98632 0.53085 0.0
H906 H 0.28507 0.04863 0.53446 0.0
C907 C 0.22819 0.2503 0.53907 0.0
C908 C 0.26411 0.17004 0.51743 0.0
H909 H 0.21692 0.1026 0.50102 0.0
C910 C 0.29535 0.15271 0.52029 0.0
C911 C 0.23594 0.15199 0.50976 0.0
C912 C 0.20238 0.16972 0.50529 0.0
C913 C 0.29866 0.11732 0.51636 0.0
C914 C 0.26977 0.09881 0.50972 0.0
C915 C 0.23902 0.11661 0.50623 0.0
C916 C 0.27004 0.06082 0.50692 0.0
C917 C 0.33308 0.10021 0.5193 0.0
C918 C 0.25919 0.04674 0.4903 0.0
C919 C 0.25529 0.01106 0.48828 0.0
C920 C 0.26228 0.98868 0.50284 0.0
C921 C 0.27407 0.00277 0.5193 0.0
C922 C 0.27764 0.03846 0.52136 0.0
H923 H 0.3545 0.11918 0.51842 0.0
H924 H 0.33372 0.08864 0.53306 0.0
H925 H 0.3376 0.07944 0.50921 0.0
H926 H 0.25296 0.06346 0.47899 0.0
H927 H 0.24622 0.00109 0.47541 0.0
H928 H 0.20634 0.65058 0.25763 0.0
H929 H 0.22011 0.71193 0.26036 0.0
H930 H 0.11321 0.7346 0.27069 0.0
H931 H 0.09918 0.67313 0.26735 0.0
H932 H 0.17751 0.78535 0.24684 0.0
H933 H 0.18599 0.74458 0.31911 0.0
H934 H 0.19512 0.71247 0.30211 0.0
H935 H 0.15238 0.72954 0.30409 0.0
C936 C 0.18558 0.66895 0.25935 0.0
C937 C 0.15177 0.65756 0.26201 0.0
C938 C 0.1934 0.70384 0.26104 0.0
C939 C 0.16761 0.72745 0.26583 0.0
C940 C 0.13325 0.71665 0.26682 0.0
H941 H 0.2871 0.914 0.28906 0.0
H942 H 0.23316 0.88182 0.2936 0.0
C943 C 0.1253 0.68169 0.26476 0.0
C944 C 0.17843 0.76106 0.27304 0.0
H945 H 0.22307 0.79046 0.30972 0.0
C946 C 0.18607 0.78753 0.2608 0.0
C947 C 0.18918 0.76367 0.29132 0.0
C948 C 0.18014 0.73621 0.30503 0.0
C949 C 0.20779 0.81474 0.26591 0.0
C950 C 0.22257 0.81457 0.28346 0.0
C951 C 0.21166 0.79033 0.29629 0.0
C952 C 0.2554 0.83252 0.28655 0.0
C953 C 0.21805 0.8413 0.25195 0.0
C954 C 0.28577 0.81493 0.28205 0.0
C955 C 0.31613 0.83319 0.27915 0.0
C956 C 0.31652 0.86904 0.28119 0.0
C957 C 0.28723 0.88614 0.28777 0.0
C958 C 0.2565 0.86793 0.29029 0.0
H959 H 0.2019 0.83972 0.23953 0.0
H960 H 0.21572 0.86761 0.25776 0.0
H961 H 0.24539 0.8374 0.24807 0.0
H962 H 0.28514 0.78758 0.279 0.0
H963 H 0.33835 0.81981 0.27374 0.0
H964 H 0.09479 0.45686 0.50474 0.0
H965 H 0.03295 0.46795 0.50651 0.0
H966 H 0.01333 0.35871 0.51084 0.0
H967 H 0.07534 0.34749 0.50846 0.0
H968 H 0.96381 0.43353 0.48983 0.0
H969 H 0.99672 0.41257 0.56266 0.0
H970 H 0.03071 0.42287 0.54689 0.0
H971 H 0.00901 0.38213 0.54534 0.0
C972 C 0.07709 0.43521 0.50488 0.0
C973 C 0.08947 0.40143 0.50624 0.0
C974 C 0.04187 0.44148 0.50602 0.0
C975 C 0.01886 0.41409 0.50895 0.0
C976 C 0.0308 0.38004 0.50844 0.0
H977 H 0.83134 0.52602 0.53589 0.0
H978 H 0.86178 0.47059 0.53645 0.0
C979 C 0.06611 0.37371 0.50692 0.0
C980 C 0.98461 0.42244 0.5162 0.0
H981 H 0.95137 0.45141 0.55616 0.0
C982 C 0.95999 0.43602 0.50434 0.0
C983 C 0.97991 0.42538 0.53516 0.0
C984 C 0.00533 0.40993 0.54836 0.0
C985 C 0.9327 0.45598 0.51095 0.0
C986 C 0.93077 0.46286 0.52977 0.0
C987 C 0.95311 0.44604 0.54176 0.0
C988 C 0.91246 0.49378 0.53612 0.0
C989 C 0.9084 0.47283 0.49764 0.0
C990 C 0.93107 0.52482 0.53694 0.0
C991 C 0.91382 0.55629 0.53632 0.0
C992 C 0.87787 0.55684 0.5353 0.0
C993 C 0.85918 0.52594 0.53695 0.0
C994 C 0.87646 0.49435 0.53721 0.0
H995 H 0.91255 0.46368 0.48354 0.0
H996 H 0.88136 0.46724 0.50154 0.0
H997 H 0.91194 0.50126 0.49796 0.0
H998 H 0.95893 0.52472 0.53597 0.0
H999 H 0.92856 0.57985 0.53468 0.0
H1000 H 0.3772 0.33062 0.79456 0.0
H1001 H 0.3539 0.27477 0.80413 0.0
H1002 H 0.2511 0.31048 0.79203 0.0
H1003 H 0.27417 0.36678 0.78331 0.0
H1004 H 0.25478 0.27878 0.82501 0.0
H1005 H 0.31905 0.19838 0.77216 0.0
H1006 H 0.34621 0.22322 0.78695 0.0
H1007 H 0.31887 0.24481 0.7709 0.0
C1008 C 0.3497 0.32618 0.79359 0.0
C1009 C 0.32737 0.35263 0.78794 0.0
C1010 C 0.33645 0.29438 0.79915 0.0
C1011 C 0.30083 0.28846 0.7987 0.0
C1012 C 0.27868 0.31466 0.79261 0.0
H1013 H 0.15184 0.17234 0.77074 0.0
H1014 H 0.19262 0.21271 0.78443 0.0
C1015 C 0.29181 0.3466 0.78743 0.0
C1016 C 0.28584 0.25507 0.80423 0.0
H1017 H 0.27405 0.1734 0.78838 0.0
C1018 C 0.25965 0.25537 0.81738 0.0
C1019 C 0.29277 0.22439 0.79453 0.0
C1020 C 0.3206 0.22247 0.78028 0.0
C1021 C 0.23746 0.22716 0.81943 0.0
C1022 C 0.24201 0.19817 0.80822 0.0
C1023 C 0.27089 0.19599 0.79691 0.0
C1024 C 0.21277 0.17578 0.80373 0.0
C1025 C 0.2072 0.22971 0.83212 0.0
C1026 C 0.21004 0.14221 0.81063 0.0
C1027 C 0.18612 0.11934 0.80307 0.0
C1028 C 0.16576 0.1298 0.78828 0.0
C1029 C 0.16738 0.1639 0.78212 0.0
C1030 C 0.19049 0.18686 0.78995 0.0
H1031 H 0.21144 0.24966 0.84271 0.0
H1032 H 0.18387 0.23679 0.82424 0.0
H1033 H 0.20223 0.20445 0.83876 0.0
H1034 H 0.2274 0.13333 0.82114 0.0
H1035 H 0.1853 0.09292 0.80785 0.0
H1036 H 0.63554 0.47349 0.99233 0.0
H1037 H 0.58284 0.50692 0.99615 0.0
H1038 H 0.53617 0.42196 0.02489 0.0
H1039 H 0.58862 0.38801 0.021 0.0
H1040 H 0.49576 0.45107 0.99609 0.0
H1041 H 0.5467 0.54983 0.04388 0.0
H1042 H 0.5716 0.54351 0.02362 0.0
H1043 H 0.56817 0.50923 0.03991 0.0
C1044 C 0.61414 0.46192 0.99953 0.0
C1045 C 0.61615 0.42809 1.00634 0.0
C1046 C 0.58419 0.48112 1.00176 0.0
C1047 C 0.55601 0.46687 1.01093 0.0
C1048 C 0.55788 0.43325 1.01782 0.0
H1049 H 0.35186 0.53276 0.03865 0.0
H1050 H 0.40447 0.50027 0.03278 0.0
C1051 C 0.58782 0.41399 1.0156 0.0
C1052 C 0.52408 0.48669 1.01286 0.0
H1053 H 0.49036 0.55855 0.03251 0.0
C1054 C 0.49443 0.47453 1.00407 0.0
C1055 C 0.52285 0.51728 0.02323 0.0
C1056 C 0.55392 0.53069 0.03334 0.0
C1057 C 0.4633 0.49247 1.00529 0.0
C1058 C 0.462 0.52289 1.01578 0.0
C1059 C 0.49172 0.53519 0.02445 0.0
C1060 C 0.42976 0.5419 1.01844 0.0
C1061 C 0.43222 0.47903 0.9952 0.0
C1062 C 0.42704 0.57609 1.01248 0.0
C1063 C 0.39719 0.59482 1.01591 0.0
C1064 C 0.36979 0.57962 0.02548 0.0
C1065 C 0.37256 0.54518 0.03127 0.0
C1066 C 0.40242 0.5265 0.02782 0.0
H1067 H 0.4396 0.46082 0.98424 0.0
H1068 H 0.41522 0.46505 1.00481 0.0
H1069 H 0.41722 0.50054 0.98917 0.0
H1070 H 0.44811 0.5883 1.00529 0.0
H1071 H 0.39578 0.62129 1.01124 0.0
H1072 H 0.90547 0.32703 0.77766 0.0
H1073 H 0.89921 0.26428 0.77456 0.0
H1074 H 0.78876 0.27523 0.77639 0.0
H1075 H 0.7949 0.33781 0.77882 0.0
H1076 H 0.83179 0.20808 0.79425 0.0
H1077 H 0.84595 0.2429 0.72147 0.0
H1078 H 0.8732 0.26074 0.73901 0.0
H1079 H 0.82991 0.27607 0.73634 0.0
C1080 C 0.87997 0.31574 0.77844 0.0
C1081 C 0.85055 0.3369 0.77862 0.0
C1082 C 0.87649 0.28002 0.77651 0.0
C1083 C 0.84359 0.26546 0.77514 0.0
C1084 C 0.81436 0.28623 0.77751 0.0
H1085 H 0.68103 0.18253 0.75493 0.0
H1086 H 0.73793 0.20857 0.75128 0.0
C1087 C 0.8178 0.32185 0.77904 0.0
C1088 C 0.83835 0.23057 0.76785 0.0
H1089 H 0.80554 0.19799 0.7286 0.0
C1090 C 0.82772 0.20467 0.77981 0.0
C1091 C 0.83369 0.22621 0.74897 0.0
C1092 C 0.84647 0.25279 0.73561 0.0
C1093 C 0.8079 0.17687 0.77356 0.0
C1094 C 0.798 0.17594 0.75508 0.0
C1095 C 0.81298 0.19902 0.74278 0.0
C1096 C 0.76498 0.15978 0.75011 0.0
C1097 C 0.79376 0.15134 0.78711 0.0
C1098 C 0.76137 0.12385 0.74929 0.0
C1099 C 0.72867 0.10906 0.75094 0.0
C1100 C 0.69973 0.13015 0.75367 0.0
C1101 C 0.70301 0.16598 0.7525 0.0
C1102 C 0.7355 0.18074 0.75049 0.0
H1103 H 0.8055 0.15454 0.80075 0.0
H1104 H 0.76545 0.15461 0.78834 0.0
H1105 H 0.79873 0.12465 0.78236 0.0
H1106 H 0.78388 0.10737 0.74914 0.0
H1107 H 0.72652 0.08127 0.75208 0.0
H1108 H 0.79193 0.85056 0.28867 0.0
H1109 H 0.77868 0.79162 0.29779 0.0
H1110 H 0.88709 0.76687 0.29827 0.0
H1111 H 0.90046 0.82573 0.28851 0.0
H1112 H 0.85329 0.71821 0.28212 0.0
H1113 H 0.7841 0.74248 0.34522 0.0
H1114 H 0.76657 0.77174 0.32889 0.0
H1115 H 0.81154 0.77489 0.33506 0.0
C1116 C 0.81289 0.8325 0.29063 0.0
C1117 C 0.84709 0.84258 0.28775 0.0
C1118 C 0.80542 0.79904 0.29622 0.0
C1119 C 0.83203 0.77525 0.29945 0.0
C1120 C 0.86625 0.78502 0.29622 0.0
H1121 H 0.69219 0.60223 0.30544 0.0
H1122 H 0.74464 0.62953 0.31772 0.0
C1123 C 0.87374 0.81846 0.29039 0.0
C1124 C 0.82299 0.73929 0.30401 0.0
H1125 H 0.75599 0.69829 0.32439 0.0
C1126 C 0.83309 0.71327 0.29193 0.0
C1127 C 0.7981 0.73181 0.31745 0.0
C1128 C 0.78991 0.75674 0.33251 0.0
C1129 C 0.81402 0.68274 0.29064 0.0
C1130 C 0.7839 0.67924 0.3012 0.0
C1131 C 0.77828 0.70181 0.31572 0.0
C1132 C 0.75391 0.66054 0.29393 0.0
C1133 C 0.82368 0.6565 0.27645 0.0
C1134 C 0.74148 0.67007 0.27679 0.0
C1135 C 0.71188 0.65502 0.26984 0.0
C1136 C 0.69375 0.63042 0.28 0.0
C1137 C 0.70552 0.62151 0.29744 0.0
C1138 C 0.73553 0.63661 0.30438 0.0
H1139 H 0.85211 0.65369 0.27574 0.0
H1140 H 0.81196 0.63091 0.27931 0.0
H1141 H 0.8147 0.66551 0.26296 0.0
H1142 H 0.75455 0.68956 0.26879 0.0
H1143 H 0.70334 0.66248 0.2564 0.0
H1144 H 0.57721 0.86927 1.00066 0.0
H1145 H 0.52214 0.90005 0.99949 0.0
H1146 H 0.57649 0.99713 1.00241 0.0
H1147 H 0.63115 0.96643 1.00357 0.0
H1148 H 0.51046 0.93702 0.03098 0.0
H1149 H 0.49362 0.02181 0.97129 0.0
H1150 H 0.5218 0.98474 0.97108 0.0
H1151 H 0.53616 0.025 0.98065 0.0
C1152 C 0.57729 0.89719 0.99982 0.0
C1153 C 0.60799 0.91576 1.00205 0.0
C1154 C 0.54593 0.91471 0.99934 0.0
C1155 C 0.54535 0.95079 1.0009 0.0
C1156 C 0.5764 0.96933 1.00086 0.0
H1157 H 0.41895 0.11637 0.0336 0.0
H1158 H 0.4672 0.07584 0.03266 0.0
C1159 C 0.60762 0.95184 1.00148 0.0
C1160 C 0.51381 0.96844 1.00687 0.0
H1161 H 0.46502 0.03961 0.99878 0.0
C1162 C 0.49998 0.95907 0.02379 0.0
C1163 C 0.50066 0.99732 0.99756 0.0
C1164 C 0.51364 0.00761 0.97905 0.0
C1165 C 0.47425 0.9789 0.03204 0.0
C1166 C 0.46218 0.00857 0.02303 0.0
C1167 C 0.47508 0.01718 1.00582 0.0
C1168 C 0.43484 0.0305 0.03056 0.0
C1169 C 0.46102 0.96876 0.05051 0.0
C1170 C 0.401 0.01795 0.03112 0.0
C1171 C 0.37359 0.04103 0.03189 0.0
C1172 C 0.37995 0.07664 0.03202 0.0
C1173 C 0.41368 0.08891 0.0339 0.0
C1174 C 0.44115 0.06583 0.03314 0.0
H1175 H 0.47808 0.94966 0.05726 0.0
H1176 H 0.45856 0.99178 0.05938 0.0
H1177 H 0.43507 0.95704 0.04906 0.0
H1178 H 0.39567 0.99084 0.02889 0.0
H1179 H 0.34762 0.03129 0.03009 0.0
H1180 H 0.09808 0.89356 0.52648 0.0
H1181 H 0.04403 0.92553 0.52887 0.0
H1182 H 0.09255 0.01498 0.50518 0.0
H1183 H 0.14678 0.98355 0.50289 0.0
H1184 H 0.0482 0.02787 0.53593 0.0
H1185 H 0.98783 0.94768 0.48194 0.0
H1186 H 0.00643 0.9242 0.50056 0.0
H1187 H 0.03377 0.9488 0.48576 0.0
C1188 C 0.09738 0.92016 0.522 0.0
C1189 C 0.12644 0.93591 0.51423 0.0
C1190 C 0.06651 0.93825 0.52329 0.0
C1191 C 0.06446 0.97218 0.51684 0.0
C1192 C 0.09383 0.98863 0.51005 0.0
H1193 H 0.89784 0.12034 0.50809 0.0
H1194 H 0.9531 0.09077 0.50479 0.0
C1195 C 0.12466 0.9706 0.50873 0.0
C1196 C 0.0313 0.99015 0.51643 0.0
H1197 H 0.952 0.98833 0.49664 0.0
C1198 C 0.02713 0.01941 0.52732 0.0
C1199 C 0.00427 0.97892 0.50502 0.0
C1200 C 0.00823 0.94835 0.49252 0.0
C1201 C 0.99595 0.03741 0.52749 0.0
C1202 C 0.9688 0.02597 0.51621 0.0
C1203 C 0.97311 0.99691 0.50518 0.0
C1204 C 0.93505 0.04282 0.51644 0.0
C1205 C 0.99194 0.06789 0.54005 0.0
C1206 C 0.90663 0.02492 0.52336 0.0
C1207 C 0.87513 0.04154 0.52519 0.0
C1208 C 0.87169 0.07631 0.52009 0.0
C1209 C 0.89983 0.09362 0.51227 0.0
C1210 C 0.93138 0.07691 0.51046 0.0
H1211 H 0.01284 0.06908 0.55033 0.0
H1212 H 0.99271 0.09207 0.53199 0.0
H1213 H 0.96677 0.06682 0.54717 0.0
H1214 H 0.90914 0.99844 0.52789 0.0
H1215 H 0.85377 0.02741 0.53105 0.0
H1216 H 0.18316 0.53555 0.34432 0.0
H1217 H 0.19378 0.50758 0.37325 0.0
H1218 H 0.13854 0.41742 0.35509 0.0
H1219 H 0.12802 0.44532 0.32561 0.0
H1220 H 0.14707 0.48387 0.39857 0.0
H1221 H 0.22986 0.37689 0.37377 0.0
H1222 H 0.21981 0.41406 0.36 0.0
H1223 H 0.18828 0.38068 0.36321 0.0
C1224 C 0.17323 0.5097 0.34631 0.0
C1225 C 0.15485 0.49267 0.33246 0.0
C1226 C 0.17934 0.49374 0.36298 0.0
C1227 C 0.16744 0.4602 0.36634 0.0
C1228 C 0.14859 0.44309 0.35271 0.0
H1229 H 0.18786 0.33666 0.46524 0.0
H1230 H 0.17635 0.35636 0.43431 0.0
C1231 C 0.14235 0.45917 0.3359 0.0
C1232 C 0.17452 0.44402 0.38433 0.0
H1233 H 0.21865 0.37872 0.40522 0.0
C1234 C 0.16264 0.46081 0.4 0.0
C1235 C 0.19482 0.4139 0.38624 0.0
C1236 C 0.20923 0.39536 0.36996 0.0
C1237 C 0.17058 0.44851 0.41745 0.0
C1238 C 0.19158 0.4189 0.41939 0.0
C1239 C 0.20282 0.40158 0.40374 0.0
C1240 C 0.20183 0.4056 0.43759 0.0
C1241 C 0.15607 0.46719 0.43368 0.0
C1242 C 0.22117 0.42615 0.44958 0.0
C1243 C 0.22794 0.41492 0.4673 0.0
C1244 C 0.21559 0.3828 0.47343 0.0
C1245 C 0.19778 0.36154 0.46105 0.0
C1246 C 0.1911 0.37278 0.44333 0.0
H1247 H 0.13369 0.48356 0.42995 0.0
H1248 H 0.14788 0.44868 0.44434 0.0
H1249 H 0.17624 0.48422 0.43951 0.0
H1250 H 0.23031 0.45131 0.44535 0.0
H1251 H 0.24167 0.43203 0.47641 0.0
H1252 H 0.37601 0.40692 0.72218 0.0
H1253 H 0.35694 0.39797 0.6911 0.0
H1254 H 0.3043 0.49588 0.69213 0.0
H1255 H 0.32459 0.5056 0.72331 0.0
H1256 H 0.29464 0.38986 0.67876 0.0
H1257 H 0.35097 0.50347 0.64406 0.0
H1258 H 0.36285 0.49156 0.66687 0.0
H1259 H 0.32367 0.51505 0.66268 0.0
C1260 C 0.36073 0.42687 0.71576 0.0
C1261 C 0.3519 0.45708 0.72528 0.0
C1262 C 0.34976 0.42164 0.69792 0.0
C1263 C 0.32936 0.44628 0.68904 0.0
C1264 C 0.32071 0.47676 0.69842 0.0
H1265 H 0.2096 0.44229 0.59044 0.0
H1266 H 0.23569 0.45342 0.61988 0.0
C1267 C 0.33219 0.48228 0.7163 0.0
C1268 C 0.31588 0.43877 0.67042 0.0
H1269 H 0.3104 0.47025 0.62711 0.0
C1270 C 0.29844 0.40738 0.66747 0.0
C1271 C 0.32074 0.46146 0.65554 0.0
C1272 C 0.34087 0.4946 0.65736 0.0
C1273 C 0.28537 0.39839 0.65029 0.0
C1274 C 0.28978 0.42129 0.63557 0.0
C1275 C 0.30717 0.45264 0.63842 0.0
C1276 C 0.27466 0.41403 0.61738 0.0
C1277 C 0.26615 0.36481 0.64805 0.0
C1278 C 0.28797 0.38808 0.60605 0.0
C1279 C 0.27315 0.38162 0.58896 0.0
C1280 C 0.24457 0.40086 0.58298 0.0
C1281 C 0.23143 0.42673 0.5945 0.0
C1282 C 0.2464 0.43332 0.61139 0.0
H1283 H 0.26119 0.35189 0.66124 0.0
H1284 H 0.24116 0.36931 0.64111 0.0
H1285 H 0.28149 0.34711 0.63944 0.0
H1286 H 0.30993 0.37297 0.61039 0.0
H1287 H 0.284 0.36161 0.58048 0.0
H1288 H 0.31608 0.5662 0.81816 0.0
H1289 H 0.29582 0.59317 0.84638 0.0
H1290 H 0.36807 0.53202 0.87698 0.0
H1291 H 0.38817 0.50497 0.849 0.0
H1292 H 0.26672 0.55392 0.87664 0.0
H1293 H 0.38032 0.63103 0.89743 0.0
H1294 H 0.37352 0.61697 0.87434 0.0
H1295 H 0.39052 0.58757 0.89094 0.0
C1296 C 0.3284 0.55935 0.83085 0.0
C1297 C 0.35401 0.53366 0.83131 0.0
C1298 C 0.31652 0.57449 0.84699 0.0
C1299 C 0.33048 0.56472 0.86382 0.0
C1300 C 0.35715 0.54031 0.86417 0.0
H1301 H 0.3124 0.58087 0.97759 0.0
H1302 H 0.32338 0.56874 0.94574 0.0
C1303 C 0.36869 0.52489 0.84814 0.0
C1304 C 0.31599 0.57792 0.8812 0.0
H1305 H 0.33931 0.61797 0.92059 0.0
C1306 C 0.2823 0.56847 0.88616 0.0
C1307 C 0.3363 0.59691 0.8936 0.0
C1308 C 0.37208 0.60903 0.88879 0.0
C1309 C 0.26922 0.5757 0.9036 0.0
C1310 C 0.29018 0.59334 0.9163 0.0
C1311 C 0.32323 0.60423 0.91095 0.0
C1312 C 0.28007 0.59815 0.93569 0.0
C1313 C 0.23383 0.56277 0.9086 0.0
C1314 C 0.25127 0.61795 0.94086 0.0
C1315 C 0.24459 0.62463 0.95932 0.0
C1316 C 0.26693 0.612 0.9728 0.0
C1317 C 0.29478 0.59112 0.96754 0.0
C1318 C 0.30119 0.58426 0.94928 0.0
H1319 H 0.22368 0.544 0.89854 0.0
H1320 H 0.23422 0.55028 0.92216 0.0
H1321 H 0.21579 0.58491 0.90923 0.0
H1322 H 0.2348 0.62939 0.93065 0.0
H1323 H 0.22321 0.64115 0.96295 0.0
H1324 H 0.17346 0.58066 0.07019 0.0
H1325 H 0.15213 0.5622 0.09985 0.0
H1326 H 0.20375 0.64854 0.12495 0.0
H1327 H 0.2266 0.66585 0.09541 0.0
H1328 H 0.21899 0.59402 0.14265 0.0
H1329 H 0.0778 0.59057 0.13305 0.0
H1330 H 0.09956 0.56414 0.11678 0.0
H1331 H 0.1062 0.61017 0.11669 0.0
C1332 C 0.17925 0.59637 0.08195 0.0
C1333 C 0.20135 0.62501 0.08042 0.0
C1334 C 0.16705 0.58574 0.09899 0.0
C1335 C 0.17592 0.60406 0.11481 0.0
C1336 C 0.19649 0.6338 0.11307 0.0
H1337 H 0.08836 0.57827 0.22179 0.0
H1338 H 0.10194 0.59276 0.19052 0.0
C1339 C 0.20929 0.64395 0.09613 0.0
C1340 C 0.16651 0.59085 0.13327 0.0
H1341 H 0.09952 0.56241 0.15945 0.0
C1342 C 0.19277 0.58735 0.14631 0.0
C1343 C 0.13233 0.58215 0.13825 0.0
C1344 C 0.10233 0.58728 0.12551 0.0
C1345 C 0.18592 0.57589 0.16406 0.0
C1346 C 0.15193 0.56611 0.16888 0.0
C1347 C 0.12568 0.56937 0.15581 0.0
C1348 C 0.14258 0.55498 0.18771 0.0
C1349 C 0.2151 0.57576 0.17762 0.0
C1350 C 0.16016 0.52813 0.19668 0.0
C1351 C 0.15278 0.52007 0.21486 0.0
C1352 C 0.12701 0.53808 0.22433 0.0
C1353 C 0.1083 0.56367 0.21499 0.0
C1354 C 0.11607 0.57206 0.19701 0.0
H1355 H 0.23645 0.59307 0.17335 0.0
H1356 H 0.20618 0.58405 0.19123 0.0
H1357 H 0.22566 0.54927 0.17872 0.0
H1358 H 0.17998 0.51368 0.18972 0.0
H1359 H 0.16759 0.50013 0.22156 0.0
H1360 H 0.75665 0.55548 0.55829 0.0
H1361 H 0.7671 0.53264 0.5889 0.0
H1362 H 0.80335 0.63259 0.60611 0.0
H1363 H 0.79252 0.65555 0.57587 0.0
H1364 H 0.8301 0.52939 0.60595 0.0
H1365 H 0.74119 0.6072 0.64793 0.0
H1366 H 0.73737 0.60465 0.62357 0.0
H1367 H 0.76847 0.63312 0.63379 0.0
C1368 C 0.76582 0.57282 0.56875 0.0
C1369 C 0.77342 0.60746 0.56461 0.0
C1370 C 0.7721 0.55967 0.58622 0.0
C1371 C 0.78571 0.58093 0.59997 0.0
C1372 C 0.79218 0.61575 0.59596 0.0
H1373 H 0.86526 0.5457 0.71039 0.0
H1374 H 0.85146 0.57091 0.68057 0.0
C1375 C 0.78605 0.62884 0.57857 0.0
C1376 C 0.79574 0.56637 0.61801 0.0
H1377 H 0.78501 0.57634 0.66381 0.0
C1378 C 0.81999 0.5395 0.61858 0.0
C1379 C 0.78294 0.57973 0.63458 0.0
C1380 C 0.75581 0.60754 0.63499 0.0
C1381 C 0.83206 0.52602 0.63515 0.0
C1382 C 0.81926 0.53935 0.6517 0.0
C1383 C 0.7951 0.56629 0.65116 0.0
C1384 C 0.829 0.52419 0.66963 0.0
C1385 C 0.85894 0.49796 0.63477 0.0
C1386 C 0.82095 0.48968 0.67345 0.0
C1387 C 0.82873 0.47534 0.69036 0.0
C1388 C 0.84472 0.49509 0.70405 0.0
C1389 C 0.85318 0.52965 0.70017 0.0
C1390 C 0.84515 0.54413 0.68316 0.0
H1391 H 0.87316 0.49765 0.6217 0.0
H1392 H 0.87775 0.50115 0.646 0.0
H1393 H 0.84612 0.47254 0.63639 0.0
H1394 H 0.80798 0.47388 0.66343 0.0
H1395 H 0.82176 0.44865 0.69275 0.0
H1396 H 0.59667 0.54856 0.32434 0.0
H1397 H 0.61815 0.56375 0.35448 0.0
H1398 H 0.71952 0.52888 0.33948 0.0
H1399 H 0.69817 0.51363 0.30914 0.0
H1400 H 0.65226 0.52532 0.38232 0.0
H1401 H 0.73468 0.6304 0.35507 0.0
H1402 H 0.70058 0.61066 0.34202 0.0
H1403 H 0.74096 0.58872 0.34491 0.0
C1404 C 0.62345 0.54355 0.3275 0.0
C1405 C 0.64564 0.52976 0.31425 0.0
C1406 C 0.63571 0.55235 0.34479 0.0
C1407 C 0.67059 0.54805 0.34924 0.0
C1408 C 0.69259 0.53296 0.33632 0.0
H1409 H 0.80115 0.59657 0.44049 0.0
H1410 H 0.77532 0.58243 0.41133 0.0
C1411 C 0.68026 0.52384 0.31902 0.0
C1412 C 0.68397 0.56051 0.36714 0.0
H1413 H 0.73931 0.61878 0.3864 0.0
C1414 C 0.67122 0.54582 0.38322 0.0
C1415 C 0.70847 0.58751 0.3684 0.0
C1416 C 0.72185 0.60555 0.35173 0.0
C1417 C 0.68312 0.55657 0.40042 0.0
C1418 C 0.70792 0.58338 0.40166 0.0
C1419 C 0.72027 0.59834 0.38555 0.0
C1420 C 0.72321 0.59467 0.41937 0.0
C1421 C 0.66988 0.53826 0.41707 0.0
C1422 C 0.70284 0.60762 0.43363 0.0
C1423 C 0.71769 0.61593 0.45052 0.0
C1424 C 0.75325 0.61149 0.45347 0.0
C1425 C 0.77366 0.60018 0.43884 0.0
C1426 C 0.75889 0.59199 0.42207 0.0
H1427 H 0.65739 0.51329 0.41365 0.0
H1428 H 0.69108 0.53331 0.42685 0.0
H1429 H 0.65045 0.55475 0.42387 0.0
H1430 H 0.67535 0.61079 0.43181 0.0
H1431 H 0.70116 0.62446 0.46145 0.0
H1432 H 0.66564 0.4195 0.05757 0.0
H1433 H 0.65624 0.43517 0.08906 0.0
H1434 H 0.75459 0.39145 0.10351 0.0
H1435 H 0.76452 0.3759 0.07151 0.0
H1436 H 0.65077 0.39209 0.11814 0.0
H1437 H 0.75797 0.48538 0.12847 0.0
H1438 H 0.74502 0.47094 0.10623 0.0
H1439 H 0.77012 0.44325 0.1206 0.0
C1440 C 0.68556 0.41337 0.06736 0.0
C1441 C 0.71585 0.39627 0.06195 0.0
C1442 C 0.68003 0.42231 0.08544 0.0
C1443 C 0.70456 0.41452 0.09878 0.0
C1444 C 0.73536 0.39815 0.09347 0.0
H1445 H 0.64445 0.43902 0.21463 0.0
H1446 H 0.66004 0.412 0.18557 0.0
C1447 C 0.74107 0.38927 0.07517 0.0
C1448 C 0.69678 0.42318 0.11811 0.0
H1449 H 0.721 0.47559 0.15318 0.0
C1450 C 0.66633 0.41009 0.12589 0.0
C1451 C 0.71689 0.44684 0.12822 0.0
C1452 C 0.7492 0.46271 0.12048 0.0
C1453 C 0.65492 0.42078 0.14312 0.0
C1454 C 0.67475 0.44485 0.1531 0.0
C1455 C 0.70577 0.45708 0.14558 0.0
C1456 C 0.66258 0.46004 0.1706 0.0
C1457 C 0.62089 0.40747 0.15011 0.0
C1458 C 0.65832 0.49589 0.17191 0.0
C1459 C 0.64954 0.51123 0.18841 0.0
C1460 C 0.6447 0.49121 0.20414 0.0
C1461 C 0.64743 0.45511 0.20273 0.0
C1462 C 0.6565 0.43968 0.18612 0.0
H1463 H 0.60541 0.39504 0.13924 0.0
H1464 H 0.62569 0.38797 0.16083 0.0
H1465 H 0.60553 0.42869 0.15614 0.0
H1466 H 0.66254 0.51221 0.16019 0.0
H1467 H 0.64764 0.5391 0.18898 0.0
H1468 H 0.92325 0.44277 0.81975 0.0
H1469 H 0.91028 0.42886 0.85131 0.0
H1470 H 0.8064 0.46542 0.84403 0.0
H1471 H 0.81933 0.47998 0.81237 0.0
H1472 H 0.83413 0.48344 0.8778 0.0
H1473 H 0.85306 0.344 0.8641 0.0
H1474 H 0.88964 0.37039 0.85863 0.0
H1475 H 0.85011 0.37563 0.84621 0.0
C1476 C 0.89774 0.44841 0.82489 0.0
C1477 C 0.87227 0.46236 0.81342 0.0
C1478 C 0.8903 0.44015 0.84295 0.0
C1479 C 0.85712 0.44525 0.84998 0.0
C1480 C 0.83214 0.46099 0.8389 0.0
H1481 H 0.75319 0.34592 0.93859 0.0
H1482 H 0.77889 0.36322 0.90981 0.0
C1483 C 0.83962 0.46946 0.8208 0.0
C1484 C 0.84811 0.43275 0.86855 0.0
H1485 H 0.84283 0.35978 0.89457 0.0
C1486 C 0.83616 0.45644 0.8815 0.0
C1487 C 0.85032 0.39739 0.87335 0.0
C1488 C 0.86116 0.37028 0.85982 0.0
C1489 C 0.82643 0.44579 0.89905 0.0
C1490 C 0.82921 0.41051 0.90393 0.0
C1491 C 0.84118 0.38686 0.89097 0.0
C1492 C 0.81687 0.39716 0.9218 0.0
C1493 C 0.81207 0.47225 0.91199 0.0
C1494 C 0.83067 0.40909 0.93831 0.0
C1495 C 0.81605 0.39901 0.95493 0.0
C1496 C 0.78733 0.3768 0.95532 0.0
C1497 C 0.77521 0.36312 0.93881 0.0
C1498 C 0.78983 0.3731 0.9223 0.0
H1499 H 0.8046 0.49643 0.90491 0.0
H1500 H 0.78918 0.46194 0.91922 0.0
H1501 H 0.83194 0.47879 0.92226 0.0
H1502 H 0.85206 0.42705 0.93833 0.0
H1503 H 0.82592 0.41022 0.96734 0.0
H1504 H 0.66973 0.05186 0.8487 0.0
H1505 H 0.68323 0.02379 0.87739 0.0
H1506 H 0.64304 0.92771 0.85693 0.0
H1507 H 0.62928 0.95576 0.82787 0.0
H1508 H 0.62409 0.94425 0.89424 0.0
H1509 H 0.76483 0.95592 0.88277 0.0
H1510 H 0.74149 0.99565 0.88044 0.0
H1511 H 0.73368 0.961 0.86477 0.0
C1512 C 0.6634 0.02479 0.85024 0.0
C1513 C 0.64863 0.00606 0.83579 0.0
C1514 C 0.67138 0.00872 0.86669 0.0
C1515 C 0.66495 0.97345 0.86922 0.0
C1516 C 0.64857 0.95491 0.85524 0.0
H1517 H 0.69929 0.83756 0.96253 0.0
H1518 H 0.68549 0.86082 0.93261 0.0
C1519 C 0.64056 0.97103 0.83865 0.0
C1520 C 0.67606 0.95616 0.88635 0.0
H1521 H 0.74717 0.93859 0.91224 0.0
C1522 C 0.651 0.9427 0.89811 0.0
C1523 C 0.7112 0.95432 0.89148 0.0
C1524 C 0.73944 0.9672 0.87916 0.0
C1525 C 0.66004 0.92836 0.91503 0.0
C1526 C 0.69521 0.92666 0.9202 0.0
C1527 C 0.72026 0.93986 0.90834 0.0
C1528 C 0.70641 0.91158 0.93791 0.0
C1529 C 0.63168 0.91623 0.92749 0.0
C1530 C 0.72453 0.93167 0.95063 0.0
C1531 C 0.73293 0.91825 0.96777 0.0
C1532 C 0.7235 0.88435 0.97255 0.0
C1533 C 0.70689 0.86379 0.95942 0.0
C1534 C 0.69861 0.87719 0.94231 0.0
H1535 H 0.60639 0.92762 0.92376 0.0
H1536 H 0.62931 0.88776 0.9265 0.0
H1537 H 0.63745 0.92295 0.94181 0.0
H1538 H 0.73112 0.95819 0.94754 0.0
H1539 H 0.74549 0.93494 0.97754 0.0
H1540 H 0.71078 0.92263 0.0926 0.0
H1541 H 0.73681 0.93393 0.12186 0.0
H1542 H 0.82245 0.86832 0.10808 0.0
H1543 H 0.79684 0.85765 0.07806 0.0
H1544 H 0.75146 0.89418 0.14946 0.0
H1545 H 0.87317 0.953 0.12483 0.0
H1546 H 0.83744 0.94391 0.10991 0.0
H1547 H 0.86598 0.90983 0.11686 0.0
C1548 C 0.73522 0.91044 0.09562 0.0
C1549 C 0.75175 0.88931 0.08273 0.0
C1550 C 0.7501 0.91701 0.11251 0.0
C1551 C 0.78197 0.90259 0.11722 0.0
C1552 C 0.79827 0.88057 0.10466 0.0
H1553 H 0.88448 0.90019 0.22165 0.0
H1554 H 0.86436 0.88973 0.19078 0.0
C1555 C 0.78342 0.87415 0.08754 0.0
C1556 C 0.79725 0.91067 0.13539 0.0
H1557 H 0.86791 0.94518 0.15664 0.0
C1558 C 0.7769 0.90542 0.15095 0.0
C1559 C 0.8304 0.92563 0.13749 0.0
C1560 C 0.85294 0.93377 0.12139 0.0
C1561 C 0.78873 0.91446 0.16835 0.0
C1562 C 0.82184 0.92907 0.17041 0.0
C1563 C 0.84241 0.93414 0.15499 0.0
C1564 C 0.83597 0.93742 0.18867 0.0
C1565 C 0.76593 0.90812 0.18457 0.0
C1566 C 0.8271 0.96811 0.19771 0.0
C1567 C 0.83884 0.97443 0.21547 0.0
C1568 C 0.85931 0.94993 0.22454 0.0
C1569 C 0.86863 0.91962 0.21519 0.0
C1570 C 0.85724 0.91355 0.19747 0.0
H1571 H 0.74133 0.89529 0.18082 0.0
H1572 H 0.77965 0.89178 0.19461 0.0
H1573 H 0.75998 0.93306 0.19126 0.0
H1574 H 0.8106 0.98685 0.19114 0.0
H1575 H 0.83101 0.99789 0.22228 0.0
H1576 H 0.74649 0.05774 0.47259 0.0
H1577 H 0.75992 0.04412 0.44076 0.0
H1578 H 0.78445 0.15107 0.43101 0.0
H1579 H 0.77168 0.16444 0.46279 0.0
H1580 H 0.73887 0.06795 0.40583 0.0
H1581 H 0.87524 0.10127 0.42039 0.0
H1582 H 0.84355 0.0961 0.43805 0.0
H1583 H 0.84516 0.13528 0.42502 0.0
C1584 C 0.75357 0.07844 0.46344 0.0
C1585 C 0.7576 0.1122 0.47001 0.0
C1586 C 0.7615 0.07065 0.4453 0.0
C1587 C 0.77385 0.09646 0.43354 0.0
C1588 C 0.77557 0.13061 0.43986 0.0
H1589 H 0.81828 0.05968 0.31731 0.0
H1590 H 0.79657 0.08587 0.34541 0.0
C1591 C 0.76785 0.13832 0.45795 0.0
C1592 C 0.78763 0.08733 0.41526 0.0
H1593 H 0.86174 0.08662 0.39017 0.0
C1594 C 0.76567 0.07219 0.40236 0.0
C1595 C 0.82277 0.09242 0.41078 0.0
C1596 C 0.84819 0.10685 0.42431 0.0
C1597 C 0.77788 0.06204 0.38516 0.0
C1598 C 0.81294 0.06758 0.38061 0.0
C1599 C 0.8348 0.08281 0.39351 0.0
C1600 C 0.82822 0.05485 0.36326 0.0
C1601 C 0.75341 0.04432 0.37225 0.0
C1602 C 0.85458 0.03014 0.36383 0.0
C1603 C 0.86727 0.01551 0.34785 0.0
C1604 C 0.8541 0.02533 0.33081 0.0
C1605 C 0.82918 0.05166 0.33016 0.0
C1606 C 0.81635 0.06627 0.34624 0.0
H1607 H 0.72956 0.03552 0.37917 0.0
H1608 H 0.74594 0.06263 0.36137 0.0
H1609 H 0.7659 0.0217 0.36579 0.0
H1610 H 0.86444 0.02107 0.37673 0.0
H1611 H 0.88649 0.99537 0.3489 0.0
H1612 H 0.74633 0.14846 0.59612 0.0
H1613 H 0.72687 0.12934 0.62596 0.0
H1614 H 0.65124 0.06335 0.60078 0.0
H1615 H 0.67091 0.08218 0.57071 0.0
H1616 H 0.66402 0.13041 0.64377 0.0
H1617 H 0.70777 0.99586 0.63203 0.0
H1618 H 0.71991 0.03117 0.61739 0.0
H1619 H 0.67779 0.01223 0.61556 0.0
C1620 C 0.72509 0.13036 0.59689 0.0
C1621 C 0.71025 0.11682 0.58098 0.0
C1622 C 0.71408 0.11933 0.614 0.0
C1623 C 0.68816 0.09426 0.61566 0.0
C1624 C 0.67182 0.08216 0.59985 0.0
H1625 H 0.58628 0.04015 0.71627 0.0
H1626 H 0.60068 0.05278 0.68475 0.0
C1627 C 0.68273 0.09336 0.58266 0.0
C1628 C 0.67915 0.08043 0.63396 0.0
H1629 H 0.67983 0.00713 0.65997 0.0
C1630 C 0.66737 0.10344 0.64727 0.0
C1631 C 0.68416 0.04531 0.63867 0.0
C1632 C 0.69839 0.01967 0.62525 0.0
C1633 C 0.66002 0.09229 0.665 0.0
C1634 C 0.66418 0.05705 0.66959 0.0
C1635 C 0.67642 0.03406 0.6564 0.0
C1636 C 0.65528 0.04396 0.68801 0.0
C1637 C 0.64827 0.11846 0.67882 0.0
C1638 C 0.68099 0.03296 0.70017 0.0
C1639 C 0.67276 0.02536 0.71832 0.0
C1640 C 0.63867 0.02869 0.72454 0.0
C1641 C 0.61281 0.03744 0.71196 0.0
C1642 C 0.621 0.04487 0.69392 0.0
H1643 H 0.65371 0.14531 0.67438 0.0
H1644 H 0.62006 0.11587 0.68082 0.0
H1645 H 0.66104 0.11399 0.69209 0.0
H1646 H 0.70764 0.03198 0.69587 0.0
H1647 H 0.69332 0.01913 0.7277 0.0
H1648 H 0.25283 0.06545 0.05733 0.0
H1649 H 0.26705 0.04325 0.08757 0.0
H1650 H 0.30309 0.14408 0.10344 0.0
H1651 H 0.28955 0.16619 0.07327 0.0
H1652 H 0.34975 0.09529 0.11186 0.0
H1653 H 0.2217 0.05313 0.13651 0.0
H1654 H 0.23304 0.03464 0.11503 0.0
H1655 H 0.22681 0.0805 0.11689 0.0
C1656 C 0.26291 0.08311 0.0674 0.0
C1657 C 0.26977 0.1177 0.06283 0.0
C1658 C 0.27111 0.07036 0.08474 0.0
C1659 C 0.28597 0.09199 0.09797 0.0
C1660 C 0.29171 0.12678 0.09357 0.0
H1661 H 0.36747 0.05633 0.20858 0.0
H1662 H 0.35184 0.08316 0.17946 0.0
C1663 C 0.28373 0.13946 0.07628 0.0
C1664 C 0.29753 0.07816 0.11595 0.0
H1665 H 0.27025 0.03456 0.15367 0.0
C1666 C 0.33226 0.08226 0.12105 0.0
C1667 C 0.27485 0.06114 0.12806 0.0
C1668 C 0.23696 0.05735 0.12396 0.0
C1669 C 0.34503 0.06908 0.13757 0.0
C1670 C 0.32245 0.05165 0.14954 0.0
C1671 C 0.28767 0.04787 0.14453 0.0
C1672 C 0.33448 0.03569 0.16692 0.0
C1673 C 0.38286 0.07296 0.1418 0.0
C1674 C 0.3302 0.00013 0.16964 0.0
C1675 C 0.33905 0.98485 0.18617 0.0
C1676 C 0.35233 0.00467 0.20062 0.0
C1677 C 0.35767 0.04019 0.19775 0.0
C1678 C 0.34869 0.05557 0.18108 0.0
H1679 H 0.39805 0.07984 0.12956 0.0
H1680 H 0.38633 0.09381 0.15195 0.0
H1681 H 0.39341 0.04877 0.14764 0.0
H1682 H 0.31947 0.98414 0.15898 0.0
H1683 H 0.33466 0.95741 0.18776 0.0
H1684 H 0.29045 0.11137 0.93867 0.0
H1685 H 0.26616 0.09573 0.90937 0.0
H1686 H 0.16369 0.10812 0.93084 0.0
H1687 H 0.18816 0.12346 0.96061 0.0
H1688 H 0.17218 0.04581 0.91344 0.0
H1689 H 0.22147 0.14954 0.86895 0.0
H1690 H 0.25521 0.12974 0.88189 0.0
H1691 H 0.22165 0.15313 0.89336 0.0
C1692 C 0.2627 0.11158 0.93712 0.0
C1693 C 0.24128 0.11882 0.95205 0.0
C1694 C 0.2488 0.10274 0.92024 0.0
C1695 C 0.21303 0.10103 0.91769 0.0
C1696 C 0.19141 0.10945 0.93239 0.0
H1697 H 0.09048 0.02798 0.82573 0.0
H1698 H 0.1101 0.0481 0.85537 0.0
C1699 C 0.20539 0.11854 0.94938 0.0
C1700 C 0.19876 0.08757 0.90019 0.0
H1701 H 0.20256 0.09786 0.85409 0.0
C1702 C 0.17847 0.05749 0.90049 0.0
C1703 C 0.20712 0.10249 0.88318 0.0
C1704 C 0.22727 0.1357 0.8818 0.0
C1705 C 0.16726 0.04147 0.88436 0.0
C1706 C 0.17616 0.05605 0.86738 0.0
C1707 C 0.19604 0.08637 0.86706 0.0
C1708 C 0.16428 0.04089 0.8498 0.0
C1709 C 0.14677 0.00845 0.88562 0.0
C1710 C 0.18812 0.02983 0.83668 0.0
C1711 C 0.17692 0.01797 0.81965 0.0
C1712 C 0.14161 0.01744 0.81527 0.0
C1713 C 0.11783 0.02769 0.82864 0.0
C1714 C 0.12902 0.03924 0.84566 0.0
H1715 H 0.14971 0.99594 0.89909 0.0
H1716 H 0.11906 0.01431 0.88361 0.0
H1717 H 0.15476 0.9899 0.87496 0.0
H1718 H 0.21549 0.03103 0.83949 0.0
H1719 H 0.196 0.01089 0.80961 0.0
H1720 H 0.14096 0.93859 0.71219 0.0
H1721 H 0.15992 0.91495 0.68287 0.0
H1722 H 0.18099 0.01783 0.66365 0.0
H1723 H 0.16242 0.04148 0.69261 0.0
H1724 H 0.13819 0.92732 0.64647 0.0
H1725 H 0.27347 0.96907 0.65624 0.0
H1726 H 0.24269 0.96792 0.67457 0.0
H1727 H 0.24285 0.00337 0.65882 0.0
C1728 C 0.14919 0.95618 0.70164 0.0
C1729 C 0.15041 0.99196 0.70492 0.0
C1730 C 0.16023 0.94262 0.6849 0.0
C1731 C 0.17282 0.96454 0.67118 0.0
C1732 C 0.17237 0.00027 0.67415 0.0
H1733 H 0.24706 0.95248 0.56045 0.0
H1734 H 0.23373 0.96896 0.59188 0.0
C1735 C 0.16144 0.01377 0.69075 0.0
C1736 C 0.1866 0.95052 0.65374 0.0
H1737 H 0.25797 0.95075 0.62646 0.0
C1738 C 0.16449 0.93207 0.64219 0.0
C1739 C 0.22093 0.9568 0.64806 0.0
C1740 C 0.2465 0.97509 0.66013 0.0
C1741 C 0.17532 0.92086 0.62493 0.0
C1742 C 0.20954 0.92758 0.61913 0.0
C1743 C 0.2318 0.94557 0.63081 0.0
C1744 C 0.22223 0.91698 0.6008 0.0
C1745 C 0.14955 0.90308 0.61276 0.0
C1746 C 0.22191 0.88214 0.59551 0.0
C1747 C 0.22976 0.87276 0.57762 0.0
C1748 C 0.23876 0.89791 0.56473 0.0
C1749 C 0.24112 0.9325 0.57025 0.0
C1750 C 0.23314 0.94193 0.58816 0.0
H1751 H 0.12264 0.9077 0.61725 0.0
H1752 H 0.15219 0.91201 0.59852 0.0
H1753 H 0.1542 0.87485 0.61309 0.0
H1754 H 0.2143 0.86229 0.60504 0.0
H1755 H 0.22704 0.84601 0.5736 0.0
H1756 H 0.4164 0.96008 0.31957 0.0
H1757 H 0.40042 0.94575 0.35067 0.0
H1758 H 0.2955 0.97516 0.33962 0.0
H1759 H 0.31134 0.98963 0.30819 0.0
H1760 H 0.3243 0.99634 0.3757 0.0
H1761 H 0.34096 0.85711 0.36027 0.0
H1762 H 0.37668 0.88429 0.35417 0.0
H1763 H 0.3361 0.88938 0.34278 0.0
C1764 C 0.38999 0.96415 0.32378 0.0
C1765 C 0.36514 0.97596 0.3113 0.0
C1766 C 0.38089 0.95575 0.34158 0.0
C1767 C 0.34667 0.95878 0.34742 0.0
C1768 C 0.32207 0.97248 0.33539 0.0
H1769 H 0.24818 0.85808 0.43866 0.0
H1770 H 0.26887 0.87652 0.40892 0.0
C1771 C 0.3312 0.98096 0.31746 0.0
C1772 C 0.33661 0.94574 0.36571 0.0
H1773 H 0.33142 0.87184 0.39099 0.0
C1774 C 0.32581 0.96914 0.37906 0.0
C1775 C 0.33827 0.91017 0.37005 0.0
C1776 C 0.34834 0.88364 0.35606 0.0
C1777 C 0.31712 0.95798 0.39669 0.0
C1778 C 0.31967 0.92248 0.40117 0.0
C1779 C 0.32996 0.89907 0.38769 0.0
C1780 C 0.30972 0.90886 0.4194 0.0
C1781 C 0.30454 0.9842 0.41025 0.0
C1782 C 0.32674 0.91958 0.4353 0.0
C1783 C 0.31511 0.90876 0.45243 0.0
C1784 C 0.28615 0.88704 0.454 0.0
C1785 C 0.27052 0.87482 0.43799 0.0
C1786 C 0.28224 0.88547 0.42094 0.0
H1787 H 0.29672 0.0087 0.40361 0.0
H1788 H 0.28231 0.97395 0.41805 0.0
H1789 H 0.32555 0.9901 0.41998 0.0
H1790 H 0.34848 0.93703 0.43448 0.0
H1791 H 0.32762 0.9189 0.46444 0.0
H1792 H 0.13248 0.66031 0.32257 0.0
H1793 H 0.10501 0.71508 0.33074 0.0
H1794 H 0.00502 0.66864 0.32308 0.0
H1795 H 0.03246 0.61437 0.31444 0.0
H1796 H 0.01632 0.7232 0.30079 0.0
H1797 H 0.04905 0.76006 0.37149 0.0
H1798 H 0.08515 0.74727 0.35783 0.0
H1799 H 0.05237 0.71623 0.36333 0.0
C1800 C 0.10466 0.66135 0.32361 0.0
C1801 C 0.08451 0.63303 0.31817 0.0
C1802 C 0.08894 0.69274 0.32819 0.0
C1803 C 0.05289 0.69602 0.32759 0.0
C1804 C 0.03284 0.66674 0.3237 0.0
H1805 H 0.90777 0.8644 0.33296 0.0
H1806 H 0.94248 0.81389 0.34066 0.0
C1807 C 0.04849 0.63563 0.31893 0.0
C1808 C 0.03627 0.73061 0.32778 0.0
H1809 H 0.0238 0.80378 0.35291 0.0
C1810 C 0.01784 0.74066 0.31226 0.0
C1811 C 0.03839 0.75353 0.34269 0.0
C1812 C 0.05705 0.74373 0.35986 0.0
C1813 C 0.00155 0.77283 0.31119 0.0
C1814 C 0.00401 0.79592 0.32595 0.0
C1815 C 0.02225 0.78605 0.34157 0.0
C1816 C 0.98682 0.83002 0.32512 0.0
C1817 C 0.98151 0.78196 0.2943 0.0
C1818 C 0.00088 0.8565 0.31447 0.0
C1819 C 0.98114 0.88548 0.31001 0.0
C1820 C 0.94685 0.88837 0.31605 0.0
C1821 C 0.93403 0.86316 0.32806 0.0
C1822 C 0.95383 0.83418 0.3325 0.0
H1823 H 0.97908 0.75978 0.28485 0.0
H1824 H 0.9553 0.79097 0.29798 0.0
H1825 H 0.99468 0.80338 0.2871 0.0
H1826 H 0.0263 0.85366 0.30862 0.0
H1827 H 0.99196 0.9044 0.30081 0.0
H1828 H 0.08323 0.37625 0.57116 0.0
H1829 H 0.02707 0.35002 0.57818 0.0
H1830 H 0.06421 0.25168 0.55927 0.0
H1831 H 0.11994 0.27767 0.55217 0.0
H1832 H 0.00573 0.28427 0.53971 0.0
H1833 H 0.98615 0.27256 0.61429 0.0
H1834 H 0.00549 0.31128 0.60526 0.0
H1835 H 0.02861 0.27138 0.60427 0.0
C1836 C 0.0799 0.3487 0.56938 0.0
C1837 C 0.10597 0.32887 0.56126 0.0
C1838 C 0.04775 0.3338 0.57328 0.0
C1839 C 0.04152 0.29891 0.56923 0.0
C1840 C 0.06854 0.27859 0.56256 0.0
H1841 H 0.87633 0.15243 0.57073 0.0
H1842 H 0.92674 0.18778 0.57801 0.0
C1843 C 0.10041 0.29342 0.55859 0.0
C1844 C 0.006 0.28476 0.56887 0.0
H1845 H 0.94093 0.25323 0.59533 0.0
C1846 C 0.9914 0.27773 0.55187 0.0
C1847 C 0.98755 0.27624 0.58475 0.0
C1848 C 0.00257 0.28304 0.60326 0.0
C1849 C 0.9592 0.26161 0.55026 0.0
C1850 C 0.94065 0.25279 0.56613 0.0
C1851 C 0.95503 0.26027 0.5832 0.0
C1852 C 0.90739 0.23385 0.56497 0.0
C1853 C 0.94595 0.25292 0.53154 0.0
C1854 C 0.87905 0.24847 0.55599 0.0
C1855 C 0.85029 0.22828 0.55168 0.0
C1856 C 0.84916 0.19311 0.55643 0.0
C1857 C 0.87632 0.17937 0.56682 0.0
C1858 C 0.90521 0.19956 0.57101 0.0
H1859 H 0.96653 0.25464 0.52111 0.0
H1860 H 0.93489 0.22649 0.53121 0.0
H1861 H 0.92534 0.27138 0.52776 0.0
H1862 H 0.87993 0.27506 0.55149 0.0
H1863 H 0.82967 0.23982 0.54385 0.0
H1864 H 0.3969 0.37104 0.83565 0.0
H1865 H 0.43123 0.32171 0.84571 0.0
H1866 H 0.5137 0.35341 0.81023 0.0
H1867 H 0.48047 0.40325 0.80083 0.0
H1868 H 0.44686 0.27111 0.82541 0.0
H1869 H 0.57044 0.32006 0.85084 0.0
H1870 H 0.53371 0.34804 0.84791 0.0
H1871 H 0.56258 0.33957 0.82924 0.0
C1872 C 0.42288 0.36825 0.83053 0.0
C1873 C 0.43575 0.39107 0.8173 0.0
C1874 C 0.44247 0.33986 0.83623 0.0
C1875 C 0.47532 0.33373 0.82888 0.0
C1876 C 0.48895 0.35779 0.81656 0.0
H1877 H 0.55636 0.1602 0.7822 0.0
H1878 H 0.52398 0.20805 0.79448 0.0
C1879 C 0.46962 0.38627 0.81101 0.0
C1880 C 0.493 0.29993 0.8316 0.0
H1881 H 0.57314 0.26399 0.83482 0.0
C1882 C 0.47431 0.2696 0.82802 0.0
C1883 C 0.52871 0.29733 0.8354 0.0
C1884 C 0.54981 0.32806 0.84127 0.0
C1885 C 0.4908 0.23755 0.82643 0.0
C1886 C 0.52711 0.23579 0.82792 0.0
C1887 C 0.5454 0.26537 0.83326 0.0
C1888 C 0.54656 0.20525 0.82128 0.0
C1889 C 0.46918 0.20608 0.82241 0.0
C1890 C 0.57097 0.18799 0.8321 0.0
C1891 C 0.59013 0.16034 0.82496 0.0
C1892 C 0.58544 0.14997 0.80683 0.0
C1893 C 0.56082 0.16735 0.79621 0.0
C1894 C 0.54189 0.19465 0.80328 0.0
H1895 H 0.44323 0.2084 0.82863 0.0
H1896 H 0.46554 0.20378 0.80753 0.0
H1897 H 0.48156 0.18214 0.82748 0.0
H1898 H 0.57528 0.19599 0.84599 0.0
H1899 H 0.60897 0.14761 0.83348 0.0
H1900 H 0.59261 0.8674 0.07149 0.0
H1901 H 0.5368 0.84131 0.07931 0.0
H1902 H 0.56606 0.74811 0.05139 0.0
H1903 H 0.62114 0.77428 0.04326 0.0
H1904 H 0.50718 0.77706 0.03799 0.0
H1905 H 0.49876 0.76532 0.11296 0.0
H1906 H 0.51176 0.80688 0.10452 0.0
H1907 H 0.53928 0.77025 0.1012 0.0
C1908 C 0.58758 0.84089 0.06767 0.0
C1909 C 0.61116 0.82281 0.05679 0.0
C1910 C 0.55565 0.826 0.07211 0.0
C1911 C 0.54719 0.7927 0.06594 0.0
C1912 C 0.57194 0.77382 0.05628 0.0
H1913 H 0.37341 0.65555 0.07454 0.0
H1914 H 0.42663 0.6876 0.08034 0.0
C1915 C 0.60348 0.78874 0.0517 0.0
C1916 C 0.51135 0.77915 0.06708 0.0
H1917 H 0.44795 0.75281 0.09619 0.0
C1918 C 0.49426 0.77183 0.05074 0.0
C1919 C 0.4945 0.77228 0.0837 0.0
C1920 C 0.512 0.77879 0.10163 0.0
C1921 C 0.46112 0.75744 0.0505 0.0
C1922 C 0.44401 0.75085 0.06709 0.0
C1923 C 0.46094 0.75827 0.08349 0.0
C1924 C 0.40933 0.73449 0.06733 0.0
C1925 C 0.44515 0.7484 0.03242 0.0
C1926 C 0.38122 0.75083 0.05898 0.0
C1927 C 0.35083 0.73253 0.05552 0.0
C1928 C 0.34783 0.6976 0.06052 0.0
C1929 C 0.37478 0.68238 0.07049 0.0
C1930 C 0.40532 0.70067 0.07381 0.0
H1931 H 0.46456 0.74786 0.02136 0.0
H1932 H 0.43224 0.72284 0.033 0.0
H1933 H 0.42549 0.76803 0.02887 0.0
H1934 H 0.38354 0.77713 0.05415 0.0
H1935 H 0.33046 0.74516 0.04799 0.0
H1936 H 0.03487 0.13254 0.75749 0.0
H1937 H 0.99868 0.17635 0.74414 0.0
H1938 H 0.04597 0.15932 0.69201 0.0
H1939 H 0.08391 0.11557 0.70564 0.0
H1940 H 0.04245 0.22523 0.69813 0.0
H1941 H 0.91436 0.17452 0.7143 0.0
H1942 H 0.93874 0.17456 0.73488 0.0
H1943 H 0.95237 0.14794 0.7161 0.0
C1944 C 0.03753 0.13759 0.74311 0.0
C1945 C 0.06252 0.12044 0.73267 0.0
C1946 C 0.01629 0.16252 0.7354 0.0
C1947 C 0.01871 0.17064 0.71691 0.0
C1948 C 0.04324 0.15322 0.70627 0.0
H1949 H 0.87311 0.34175 0.70771 0.0
H1950 H 0.90051 0.28929 0.69578 0.0
C1951 C 0.06492 0.12823 0.71407 0.0
C1952 C 0.99803 0.19993 0.70963 0.0
H1953 H 0.9198 0.23827 0.71547 0.0
C1954 C 0.01535 0.22767 0.70142 0.0
C1955 C 0.9623 0.20307 0.71318 0.0
C1956 C 0.94091 0.17315 0.71989 0.0
C1957 C 0.99895 0.25957 0.69872 0.0
C1958 C 0.96477 0.26421 0.70497 0.0
C1959 C 0.94629 0.23529 0.71111 0.0
C1960 C 0.95004 0.29911 0.70835 0.0
C1961 C 0.019 0.28834 0.68986 0.0
C1962 C 0.96885 0.32262 0.71894 0.0
C1963 C 0.95341 0.35246 0.72557 0.0
C1964 C 0.91859 0.35948 0.72198 0.0
C1965 C 0.90016 0.33726 0.71044 0.0
C1966 C 0.91574 0.30715 0.70375 0.0
H1967 H 0.03581 0.27798 0.67897 0.0
H1968 H 0.00179 0.30825 0.68395 0.0
H1969 H 0.03604 0.30066 0.70008 0.0
H1970 H 0.99485 0.31677 0.72326 0.0
H1971 H 0.96817 0.369 0.73453 0.0
H1972 H 0.90054 0.7054 0.50926 0.0
H1973 H 0.95061 0.73679 0.49868 0.0
H1974 H 0.948 0.68045 0.44827 0.0
H1975 H 0.8975 0.64779 0.45911 0.0
H1976 H 0.01257 0.68218 0.46268 0.0
H1977 H 0.96111 0.81431 0.46315 0.0
H1978 H 0.95238 0.79413 0.48451 0.0
H1979 H 0.93339 0.7769 0.46409 0.0
C1980 C 0.91022 0.69975 0.49581 0.0
C1981 C 0.89497 0.6739 0.48507 0.0
C1982 C 0.93879 0.7181 0.48969 0.0
C1983 C 0.95281 0.71158 0.47253 0.0
C1984 C 0.93741 0.6862 0.46151 0.0
H1985 H 0.1274 0.85334 0.45864 0.0
H1986 H 0.07639 0.82044 0.44944 0.0
C1987 C 0.90851 0.66765 0.46768 0.0
C1988 C 0.9851 0.72968 0.46714 0.0
H1989 H 0.02287 0.80915 0.46905 0.0
C1990 C 0.01471 0.71003 0.46361 0.0
C1991 C 0.98798 0.76607 0.46785 0.0
C1992 C 0.95686 0.78902 0.4699 0.0
C1993 C 0.04741 0.72557 0.46239 0.0
C1994 C 0.05073 0.76158 0.46529 0.0
C1995 C 0.02071 0.78148 0.46718 0.0
C1996 C 0.08472 0.77864 0.46843 0.0
C1997 C 0.07808 0.703 0.45839 0.0
C1998 C 0.10697 0.76591 0.48188 0.0
C1999 C 0.13633 0.7844 0.48699 0.0
C2000 C 0.14389 0.81659 0.47907 0.0
C2001 C 0.12245 0.82867 0.46504 0.0
C2002 C 0.09316 0.8099 0.4598 0.0
H2003 H 0.07068 0.68121 0.4494 0.0
H2004 H 0.09921 0.71774 0.45182 0.0
H2005 H 0.08782 0.69175 0.47125 0.0
H2006 H 0.10074 0.74249 0.48919 0.0
H2007 H 0.15209 0.77422 0.49787 0.0
H2008 H 0.54009 0.63558 0.25062 0.0
H2009 H 0.5056 0.68133 0.23748 0.0
H2010 H 0.56967 0.68113 0.18973 0.0
H2011 H 0.60514 0.635 0.20313 0.0
H2012 H 0.56223 0.74534 0.20328 0.0
H2013 H 0.43332 0.68753 0.1988 0.0
H2014 H 0.45049 0.67915 0.22091 0.0
H2015 H 0.47165 0.66154 0.2012 0.0
C2016 C 0.54664 0.64479 0.23718 0.0
C2017 C 0.57553 0.63182 0.22798 0.0
C2018 C 0.52655 0.67075 0.22956 0.0
C2019 C 0.53453 0.68434 0.21244 0.0
C2020 C 0.56276 0.67076 0.20287 0.0
H2021 H 0.39022 0.85816 0.2028 0.0
H2022 H 0.42369 0.81002 0.18999 0.0
C2023 C 0.58296 0.6444 0.21051 0.0
C2024 C 0.51567 0.71544 0.20604 0.0
H2025 H 0.43473 0.74958 0.20671 0.0
C2026 C 0.53431 0.7461 0.20342 0.0
C2027 C 0.47922 0.71658 0.20566 0.0
C2028 C 0.45761 0.68427 0.20659 0.0
C2029 C 0.51756 0.77817 0.20264 0.0
C2030 C 0.48139 0.77963 0.20497 0.0
C2031 C 0.46253 0.7487 0.20534 0.0
C2032 C 0.46371 0.81202 0.21044 0.0
C2033 C 0.53903 0.81032 0.20031 0.0
C2034 C 0.47517 0.8293 0.22604 0.0
C2035 C 0.45622 0.85641 0.23332 0.0
C2036 C 0.42509 0.86688 0.22531 0.0
C2037 C 0.41421 0.85075 0.20921 0.0
C2038 C 0.43326 0.82323 0.20192 0.0
H2039 H 0.56148 0.80519 0.19138 0.0
H2040 H 0.52377 0.83183 0.19444 0.0
H2041 H 0.54923 0.81847 0.2137 0.0
H2042 H 0.49795 0.82067 0.23321 0.0
H2043 H 0.46538 0.86839 0.2457 0.0
H2044 H 0.38872 0.21753 1.00165 0.0
H2045 H 0.44048 0.24482 0.99022 0.0
H2046 H 0.43884 0.17808 0.94344 0.0
H2047 H 0.38675 0.14951 0.95525 0.0
H2048 H 0.50166 0.1795 0.95836 0.0
H2049 H 0.45897 0.31388 0.95147 0.0
H2050 H 0.44785 0.29889 0.97366 0.0
H2051 H 0.42874 0.27877 0.954 0.0
C2052 C 0.39891 0.20885 0.98876 0.0
C2053 C 0.38356 0.18119 0.9794 0.0
C2054 C 0.42847 0.22483 0.98213 0.0
C2055 C 0.44338 0.21408 0.96577 0.0
C2056 C 0.42764 0.18709 0.95601 0.0
H2057 H 0.62703 0.34312 0.95156 0.0
H2058 H 0.57549 0.31186 0.94163 0.0
C2059 C 0.39779 0.17089 0.96272 0.0
C2060 C 0.47706 0.22919 0.96018 0.0
H2061 H 0.51983 0.30613 0.95953 0.0
C2062 C 0.50553 0.20722 0.95813 0.0
C2063 C 0.4823 0.26532 0.9593 0.0
C2064 C 0.45268 0.29047 0.95951 0.0
C2065 C 0.53925 0.22039 0.95697 0.0
C2066 C 0.54477 0.25645 0.95847 0.0
C2067 C 0.51602 0.27845 0.95877 0.0
C2068 C 0.57951 0.2717 0.96195 0.0
C2069 C 0.56857 0.19534 0.95453 0.0
C2070 C 0.5997 0.25917 0.97633 0.0
C2071 C 0.62943 0.27663 0.98182 0.0
C2072 C 0.63938 0.30768 0.97338 0.0
C2073 C 0.6202 0.31933 0.95838 0.0
C2074 C 0.59058 0.30151 0.95273 0.0
H2075 H 0.56042 0.17311 0.94603 0.0
H2076 H 0.59128 0.20776 0.94812 0.0
H2077 H 0.57624 0.18493 0.96796 0.0
H2078 H 0.59145 0.23695 0.9841 0.0
H2079 H 0.64339 0.26681 0.99345 0.0
loop_
_geom_bond_atom_site_label_1
_geom_bond_atom_site_label_2
_geom_bond_distance
_geom_bond_site_symmetry_2
_ccdc_geom_bond_type
Fe0 O2 1.918 . S
Fe0 O5 1.997 . S
Fe0 O6 2.002 . S
Fe0 O11 1.976 . S
Fe0 O14 1.996 . S
Fe1 O2 1.918 . S
Fe1 O9 1.997 . S
Fe1 O12 1.996 . S
Fe1 O16 1.976 . S
Fe1 O19 2.002 . S
O2 Fe0 1.918 . S
O2 Fe1 1.918 . S
O2 Fe3 1.918 . S
Fe3 O2 1.918 . S
Fe3 O4 2.002 . S
Fe3 O13 1.976 . S
Fe3 O17 1.996 . S
Fe3 O20 1.997 . S
O4 Fe3 2.002 . S
O4 C21 1.295 . S
O5 Fe0 1.997 . S
O5 C21 1.235 . S
O6 Fe0 2.002 . S
O6 C7 1.295 . S
C7 O6 1.295 . S
C7 O9 1.235 . S
C8 O13 1.287 . S
C8 O14 1.255 . S
O9 Fe1 1.997 . S
O9 C7 1.235 . S
C10 O16 1.287 . S
C10 O17 1.255 . S
O11 Fe0 1.976 . S
O11 C18 1.287 . S
O12 Fe1 1.996 . S
O12 C18 1.255 . S
O13 Fe3 1.976 . S
O13 C8 1.287 . S
O14 Fe0 1.996 . S
O14 C8 1.255 . S
C15 O19 1.295 . S
C15 O20 1.235 . S
O16 Fe1 1.976 . S
O16 C10 1.287 . S
O17 Fe3 1.996 . S
O17 C10 1.255 . S
C18 O11 1.287 . S
C18 O12 1.255 . S
O19 Fe1 2.002 . S
O19 C15 1.295 . S
O20 Fe3 1.997 . S
O20 C15 1.235 . S
C21 O4 1.295 . S
C21 O5 1.235 . S
Fe22 O24 1.918 . S
Fe22 O27 1.997 . S
Fe22 O28 2.002 . S
Fe22 O33 1.976 . S
Fe22 O36 1.996 . S
Fe23 O24 1.918 . S
Fe23 O31 1.997 . S
Fe23 O34 1.996 . S
Fe23 O38 1.976 . S
Fe23 O41 2.002 . S
O24 Fe22 1.918 . S
O24 Fe23 1.918 . S
O24 Fe25 1.918 . S
Fe25 O24 1.918 . S
Fe25 O26 2.002 . S
Fe25 O35 1.976 . S
Fe25 O39 1.996 . S
Fe25 O42 1.997 . S
O26 Fe25 2.002 . S
O26 C43 1.295 . S
O27 Fe22 1.997 . S
O27 C43 1.235 . S
O28 Fe22 2.002 . S
O28 C29 1.295 . S
C29 O28 1.295 . S
C29 O31 1.235 . S
C30 O35 1.287 . S
C30 O36 1.255 . S
O31 Fe23 1.997 . S
O31 C29 1.235 . S
C32 O38 1.287 . S
C32 O39 1.255 . S
O33 Fe22 1.976 . S
O33 C40 1.287 . S
O34 Fe23 1.996 . S
O34 C40 1.255 . S
O35 Fe25 1.976 . S
O35 C30 1.287 . S
O36 Fe22 1.996 . S
O36 C30 1.255 . S
C37 O41 1.295 . S
C37 O42 1.235 . S
O38 Fe23 1.976 . S
O38 C32 1.287 . S
O39 Fe25 1.996 . S
O39 C32 1.255 . S
C40 O33 1.287 . S
C40 O34 1.255 . S
O41 Fe23 2.002 . S
O41 C37 1.295 . S
O42 Fe25 1.997 . S
O42 C37 1.235 . S
C43 O26 1.295 . S
C43 O27 1.235 . S
Fe44 O46 1.918 . S
Fe44 O49 1.997 . S
Fe44 O50 2.002 . S
Fe44 O55 1.976 . S
Fe44 O58 1.996 . S
Fe45 O46 1.918 . S
Fe45 O53 1.997 . S
Fe45 O56 1.996 . S
Fe45 O60 1.976 . S
Fe45 O63 2.002 . S
O46 Fe44 1.918 . S
O46 Fe45 1.918 . S
O46 Fe47 1.918 . S
Fe47 O46 1.918 . S
Fe47 O48 2.002 . S
Fe47 O57 1.976 . S
Fe47 O61 1.996 . S
Fe47 O64 1.997 . S
O48 Fe47 2.002 . S
O48 C65 1.295 . S
O49 Fe44 1.997 . S
O49 C65 1.235 . S
O50 Fe44 2.002 . S
O50 C51 1.295 . S
C51 O50 1.295 . S
C51 O53 1.235 . S
C52 O57 1.287 . S
C52 O58 1.255 . S
O53 Fe45 1.997 . S
O53 C51 1.235 . S
C54 O60 1.287 . S
C54 O61 1.255 . S
O55 Fe44 1.976 . S
O55 C62 1.287 . S
O56 Fe45 1.996 . S
O56 C62 1.255 . S
O57 Fe47 1.976 . S
O57 C52 1.287 . S
O58 Fe44 1.996 . S
O58 C52 1.255 . S
C59 O63 1.295 . S
C59 O64 1.235 . S
O60 Fe45 1.976 . S
O60 C54 1.287 . S
O61 Fe47 1.996 . S
O61 C54 1.255 . S
C62 O55 1.287 . S
C62 O56 1.255 . S
O63 Fe45 2.002 . S
O63 C59 1.295 . S
O64 Fe47 1.997 . S
O64 C59 1.235 . S
C65 O48 1.295 . S
C65 O49 1.235 . S
Fe66 O68 1.918 . S
Fe66 O71 1.997 1_554 S
Fe66 O72 2.002 . S
Fe66 O77 1.976 . S
Fe66 O80 1.996 . S
Fe67 O68 1.918 . S
Fe67 O75 1.997 . S
Fe67 O78 1.996 . S
Fe67 O82 1.976 . S
Fe67 O85 2.002 . S
O68 Fe66 1.918 . S
O68 Fe67 1.918 . S
O68 Fe69 1.918 1_554 S
Fe69 O68 1.918 1_556 S
Fe69 O70 2.002 . S
Fe69 O79 1.976 . S
Fe69 O83 1.996 1_556 S
Fe69 O86 1.997 . S
O70 Fe69 2.002 . S
O70 C87 1.295 . S
O71 Fe66 1.997 1_556 S
O71 C87 1.235 . S
O72 Fe66 2.002 . S
O72 C73 1.295 . S
C73 O72 1.295 . S
C73 O75 1.235 . S
C74 O79 1.285 1_554 S
C74 O80 1.257 . S
O75 Fe67 1.997 . S
O75 C73 1.235 . S
C76 O82 1.287 . S
C76 O83 1.255 . S
O77 Fe66 1.976 . S
O77 C84 1.287 . S
O78 Fe67 1.996 . S
O78 C84 1.255 . S
O79 Fe69 1.976 . S
O79 C74 1.285 1_556 S
O80 Fe66 1.996 . S
O80 C74 1.257 . S
C81 O85 1.295 . S
C81 O86 1.235 1_554 S
O82 Fe67 1.976 . S
O82 C76 1.287 . S
O83 Fe69 1.996 1_554 S
O83 C76 1.255 . S
C84 O77 1.287 . S
C84 O78 1.255 . S
O85 Fe67 2.002 . S
O85 C81 1.295 . S
O86 Fe69 1.997 . S
O86 C81 1.235 1_556 S
C87 O70 1.295 . S
C87 O71 1.235 . S
Fe88 O90 1.918 . S
Fe88 O93 1.997 . S
Fe88 O94 2.002 . S
Fe88 O99 1.976 . S
Fe88 O102 1.996 . S
Fe89 O90 1.918 . S
Fe89 O97 1.997 . S
Fe89 O100 1.996 . S
Fe89 O104 1.976 . S
Fe89 O107 2.002 . S
O90 Fe88 1.918 . S
O90 Fe89 1.918 . S
O90 Fe91 1.918 . S
Fe91 O90 1.918 . S
Fe91 O92 2.002 . S
Fe91 O101 1.976 . S
Fe91 O105 1.996 . S
Fe91 O108 1.997 . S
O92 Fe91 2.002 . S
O92 C109 1.295 . S
O93 Fe88 1.997 . S
O93 C109 1.235 . S
O94 Fe88 2.002 . S
O94 C95 1.295 . S
C95 O94 1.295 . S
C95 O97 1.235 . S
C96 O101 1.287 . S
C96 O102 1.255 . S
O97 Fe89 1.997 . S
O97 C95 1.235 . S
C98 O104 1.287 . S
C98 O105 1.255 . S
O99 Fe88 1.976 . S
O99 C106 1.287 . S
O100 Fe89 1.996 . S
O100 C106 1.255 . S
O101 Fe91 1.976 . S
O101 C96 1.287 . S
O102 Fe88 1.996 . S
O102 C96 1.255 . S
C103 O107 1.295 . S
C103 O108 1.235 . S
O104 Fe89 1.976 . S
O104 C98 1.287 . S
O105 Fe91 1.996 . S
O105 C98 1.255 . S
C106 O99 1.287 . S
C106 O100 1.255 . S
O107 Fe89 2.002 . S
O107 C103 1.295 . S
O108 Fe91 1.997 . S
O108 C103 1.235 . S
C109 O92 1.295 . S
C109 O93 1.235 . S
Fe110 O112 1.918 . S
Fe110 O115 1.997 . S
Fe110 O116 2.002 . S
Fe110 O121 1.976 . S
Fe110 O124 1.996 . S
Fe111 O112 1.918 . S
Fe111 O119 1.997 . S
Fe111 O122 1.996 . S
Fe111 O126 1.976 . S
Fe111 O129 2.002 . S
O112 Fe110 1.918 . S
O112 Fe111 1.918 . S
O112 Fe113 1.918 . S
Fe113 O112 1.918 . S
Fe113 O114 2.002 . S
Fe113 O123 1.976 . S
Fe113 O127 1.996 . S
Fe113 O130 1.997 . S
O114 Fe113 2.002 . S
O114 C131 1.295 . S
O115 Fe110 1.997 . S
O115 C131 1.235 . S
O116 Fe110 2.002 . S
O116 C117 1.295 . S
C117 O116 1.295 . S
C117 O119 1.235 . S
C118 O123 1.287 . S
C118 O124 1.255 . S
O119 Fe111 1.997 . S
O119 C117 1.235 . S
C120 O126 1.287 . S
C120 O127 1.255 . S
O121 Fe110 1.976 . S
O121 C128 1.287 . S
O122 Fe111 1.996 . S
O122 C128 1.255 . S
O123 Fe113 1.976 . S
O123 C118 1.287 . S
O124 Fe110 1.996 . S
O124 C118 1.255 . S
C125 O129 1.295 . S
C125 O130 1.235 . S
O126 Fe111 1.976 . S
O126 C120 1.287 . S
O127 Fe113 1.996 . S
O127 C120 1.255 . S
C128 O121 1.287 . S
C128 O122 1.255 . S
O129 Fe111 2.002 . S
O129 C125 1.295 . S
O130 Fe113 1.997 . S
O130 C125 1.235 . S
C131 O114 1.295 . S
C131 O115 1.235 . S
Fe132 O134 1.918 . S
Fe132 O137 1.997 . S
Fe132 O138 2.002 . S
Fe132 O143 1.976 . S
Fe132 O146 1.996 . S
Fe133 O134 1.918 . S
Fe133 O141 1.997 . S
Fe133 O144 1.996 . S
Fe133 O148 1.976 . S
Fe133 O151 2.002 . S
O134 Fe132 1.918 . S
O134 Fe133 1.918 . S
O134 Fe135 1.918 . S
Fe135 O134 1.918 . S
Fe135 O136 2.002 . S
Fe135 O145 1.976 . S
Fe135 O149 1.996 . S
Fe135 O152 1.997 . S
O136 Fe135 2.002 . S
O136 C153 1.295 . S
O137 Fe132 1.997 . S
O137 C153 1.235 . S
O138 Fe132 2.002 . S
O138 C139 1.295 . S
C139 O138 1.295 . S
C139 O141 1.235 . S
C140 O145 1.287 . S
C140 O146 1.255 . S
O141 Fe133 1.997 . S
O141 C139 1.235 . S
C142 O148 1.287 . S
C142 O149 1.255 . S
O143 Fe132 1.976 . S
O143 C150 1.287 . S
O144 Fe133 1.996 . S
O144 C150 1.255 . S
O145 Fe135 1.976 . S
O145 C140 1.287 . S
O146 Fe132 1.996 . S
O146 C140 1.255 . S
C147 O151 1.295 . S
C147 O152 1.235 . S
O148 Fe133 1.976 . S
O148 C142 1.287 . S
O149 Fe135 1.996 . S
O149 C142 1.255 . S
C150 O143 1.287 . S
C150 O144 1.255 . S
O151 Fe133 2.002 . S
O151 C147 1.295 . S
O152 Fe135 1.997 . S
O152 C147 1.235 . S
C153 O136 1.295 . S
C153 O137 1.235 . S
Fe154 O156 1.918 1_554 S
Fe154 O159 1.997 . S
Fe154 O160 2.002 . S
Fe154 O165 1.976 . S
Fe154 O168 1.996 1_554 S
Fe155 O156 1.918 . S
Fe155 O163 1.997 1_556 S
Fe155 O166 1.996 . S
Fe155 O170 1.976 . S
Fe155 O173 2.002 . S
O156 Fe154 1.918 1_556 S
O156 Fe155 1.918 . S
O156 Fe157 1.918 . S
Fe157 O156 1.918 . S
Fe157 O158 2.002 . S
Fe157 O167 1.976 . S
Fe157 O171 1.996 . S
Fe157 O174 1.997 . S
O158 Fe157 2.002 . S
O158 C175 1.295 . S
O159 Fe154 1.997 . S
O159 C175 1.235 1_554 S
O160 Fe154 2.002 . S
O160 C161 1.295 . S
C161 O160 1.295 . S
C161 O163 1.235 . S
C162 O167 1.287 . S
C162 O168 1.255 . S
O163 Fe155 1.997 1_554 S
O163 C161 1.235 . S
C164 O170 1.287 . S
C164 O171 1.255 . S
O165 Fe154 1.976 . S
O165 C172 1.285 1_554 S
O166 Fe155 1.996 . S
O166 C172 1.257 . S
O167 Fe157 1.976 . S
O167 C162 1.287 . S
O168 Fe154 1.996 1_556 S
O168 C162 1.255 . S
C169 O173 1.295 . S
C169 O174 1.235 . S
O170 Fe155 1.976 . S
O170 C164 1.287 . S
O171 Fe157 1.996 . S
O171 C164 1.255 . S
C172 O165 1.285 1_556 S
C172 O166 1.257 . S
O173 Fe155 2.002 . S
O173 C169 1.295 . S
O174 Fe157 1.997 . S
O174 C169 1.235 . S
C175 O158 1.295 . S
C175 O159 1.235 1_556 S
Fe176 O178 1.918 1_565 S
Fe176 O181 1.995 1_565 S
Fe176 O182 2.002 . S
Fe176 O187 1.976 . S
Fe176 O190 1.996 . S
Fe177 O178 1.918 . S
Fe177 O185 1.997 . S
Fe177 O188 1.996 . S
Fe177 O192 1.976 . S
Fe177 O195 2.002 . S
O178 Fe176 1.918 1_545 S
O178 Fe177 1.918 . S
O178 Fe179 1.918 . S
Fe179 O178 1.918 . S
Fe179 O180 2.002 . S
Fe179 O189 1.976 . S
Fe179 O193 1.996 . S
Fe179 O196 1.997 . S
O180 Fe179 2.002 . S
O180 C197 1.295 . S
O181 Fe176 1.995 1_545 S
O181 C197 1.250 . S
O182 Fe176 2.002 . S
O182 C183 1.295 1_565 S
C183 O182 1.295 1_545 S
C183 O185 1.235 . S
C184 O189 1.287 . S
C184 O190 1.255 1_545 S
O185 Fe177 1.997 . S
O185 C183 1.235 . S
C186 O192 1.287 . S
C186 O193 1.255 . S
O187 Fe176 1.976 . S
O187 C194 1.287 1_565 S
O188 Fe177 1.996 . S
O188 C194 1.255 . S
O189 Fe179 1.976 . S
O189 C184 1.287 . S
O190 Fe176 1.996 . S
O190 C184 1.255 1_565 S
C191 O195 1.295 . S
C191 O196 1.235 . S
O192 Fe177 1.976 . S
O192 C186 1.287 . S
O193 Fe179 1.996 . S
O193 C186 1.255 . S
C194 O187 1.287 1_545 S
C194 O188 1.255 . S
O195 Fe177 2.002 . S
O195 C191 1.295 . S
O196 Fe179 1.997 . S
O196 C191 1.235 . S
C197 O180 1.295 . S
C197 O181 1.250 . S
Fe198 O200 1.918 1_556 S
Fe198 O203 1.997 . S
Fe198 O204 2.002 . S
Fe198 O209 1.976 . S
Fe198 O212 1.996 1_556 S
Fe199 O200 1.918 . S
Fe199 O207 1.997 1_554 S
Fe199 O210 1.996 . S
Fe199 O214 1.976 . S
Fe199 O217 2.002 . S
O200 Fe198 1.918 1_554 S
O200 Fe199 1.918 . S
O200 Fe201 1.918 . S
Fe201 O200 1.918 . S
Fe201 O202 2.002 . S
Fe201 O211 1.976 . S
Fe201 O215 1.996 . S
Fe201 O218 1.997 . S
O202 Fe201 2.002 . S
O202 C219 1.295 . S
O203 Fe198 1.997 . S
O203 C219 1.235 1_556 S
O204 Fe198 2.002 . S
O204 C205 1.295 . S
C205 O204 1.295 . S
C205 O207 1.235 . S
C206 O211 1.287 . S
C206 O212 1.255 . S
O207 Fe199 1.997 1_556 S
O207 C205 1.235 . S
C208 O214 1.287 . S
C208 O215 1.255 . S
O209 Fe198 1.976 . S
O209 C216 1.285 1_556 S
O210 Fe199 1.996 . S
O210 C216 1.257 . S
O211 Fe201 1.976 . S
O211 C206 1.287 . S
O212 Fe198 1.996 1_554 S
O212 C206 1.255 . S
C213 O217 1.295 . S
C213 O218 1.235 . S
O214 Fe199 1.976 . S
O214 C208 1.287 . S
O215 Fe201 1.996 . S
O215 C208 1.255 . S
C216 O209 1.285 1_554 S
C216 O210 1.257 . S
O217 Fe199 2.002 . S
O217 C213 1.295 . S
O218 Fe201 1.997 . S
O218 C213 1.235 . S
C219 O202 1.295 . S
C219 O203 1.235 1_554 S
Fe220 O222 1.918 1_545 S
Fe220 O225 1.995 1_545 S
Fe220 O226 2.002 . S
Fe220 O231 1.976 . S
Fe220 O234 1.996 . S
Fe221 O222 1.918 . S
Fe221 O229 1.997 . S
Fe221 O232 1.996 . S
Fe221 O236 1.976 . S
Fe221 O239 2.002 . S
O222 Fe220 1.918 1_565 S
O222 Fe221 1.918 . S
O222 Fe223 1.918 . S
Fe223 O222 1.918 . S
Fe223 O224 2.002 . S
Fe223 O233 1.976 . S
Fe223 O237 1.996 . S
Fe223 O240 1.997 . S
O224 Fe223 2.002 . S
O224 C241 1.295 . S
O225 Fe220 1.995 1_565 S
O225 C241 1.250 . S
O226 Fe220 2.002 . S
O226 C227 1.295 1_545 S
C227 O226 1.295 1_565 S
C227 O229 1.235 . S
C228 O233 1.287 . S
C228 O234 1.255 1_565 S
O229 Fe221 1.997 . S
O229 C227 1.235 . S
C230 O236 1.287 . S
C230 O237 1.255 . S
O231 Fe220 1.976 . S
O231 C238 1.287 1_545 S
O232 Fe221 1.996 . S
O232 C238 1.255 . S
O233 Fe223 1.976 . S
O233 C228 1.287 . S
O234 Fe220 1.996 . S
O234 C228 1.255 1_545 S
C235 O239 1.295 . S
C235 O240 1.235 . S
O236 Fe221 1.976 . S
O236 C230 1.287 . S
O237 Fe223 1.996 . S
O237 C230 1.255 . S
C238 O231 1.287 1_565 S
C238 O232 1.255 . S
O239 Fe221 2.002 . S
O239 C235 1.295 . S
O240 Fe223 1.997 . S
O240 C235 1.235 . S
C241 O224 1.295 . S
C241 O225 1.250 . S
Fe242 O244 1.918 . S
Fe242 O247 1.997 . S
Fe242 O248 2.002 . S
Fe242 O253 1.976 . S
Fe242 O256 1.996 . S
Fe243 O244 1.918 . S
Fe243 O251 1.997 . S
Fe243 O254 1.996 . S
Fe243 O258 1.976 . S
Fe243 O261 2.002 . S
O244 Fe242 1.918 . S
O244 Fe243 1.918 . S
O244 Fe245 1.918 . S
Fe245 O244 1.918 . S
Fe245 O246 2.002 . S
Fe245 O255 1.976 . S
Fe245 O259 1.996 . S
Fe245 O262 1.997 . S
O246 Fe245 2.002 . S
O246 C263 1.295 . S
O247 Fe242 1.997 . S
O247 C263 1.235 . S
O248 Fe242 2.002 . S
O248 C249 1.295 . S
C249 O248 1.295 . S
C249 O251 1.235 . S
C250 O255 1.287 . S
C250 O256 1.255 . S
O251 Fe243 1.997 . S
O251 C249 1.235 . S
C252 O258 1.287 . S
C252 O259 1.255 . S
O253 Fe242 1.976 . S
O253 C260 1.287 . S
O254 Fe243 1.996 . S
O254 C260 1.255 . S
O255 Fe245 1.976 . S
O255 C250 1.287 . S
O256 Fe242 1.996 . S
O256 C250 1.255 . S
C257 O261 1.295 . S
C257 O262 1.235 . S
O258 Fe243 1.976 . S
O258 C252 1.287 . S
O259 Fe245 1.996 . S
O259 C252 1.255 . S
C260 O253 1.287 . S
C260 O254 1.255 . S
O261 Fe243 2.002 . S
O261 C257 1.295 . S
O262 Fe245 1.997 . S
O262 C257 1.235 . S
C263 O246 1.295 . S
C263 O247 1.235 . S
Fe264 O266 1.918 . S
Fe264 O269 1.997 . S
Fe264 O270 2.002 . S
Fe264 O275 1.976 . S
Fe264 O278 1.996 . S
Fe265 O266 1.918 . S
Fe265 O273 1.997 . S
Fe265 O276 1.996 . S
Fe265 O280 1.976 . S
Fe265 O283 2.002 . S
O266 Fe264 1.918 . S
O266 Fe265 1.918 . S
O266 Fe267 1.918 1_565 S
Fe267 O266 1.918 1_545 S
Fe267 O268 2.002 . S
Fe267 O277 1.976 . S
Fe267 O281 1.996 . S
Fe267 O284 1.995 1_545 S
O268 Fe267 2.002 . S
O268 C285 1.295 1_545 S
O269 Fe264 1.997 . S
O269 C285 1.235 . S
O270 Fe264 2.002 . S
O270 C271 1.295 . S
C271 O270 1.295 . S
C271 O273 1.235 . S
C272 O277 1.287 1_565 S
C272 O278 1.255 . S
O273 Fe265 1.997 . S
O273 C271 1.235 . S
C274 O280 1.287 . S
C274 O281 1.255 1_565 S
O275 Fe264 1.976 . S
O275 C282 1.287 . S
O276 Fe265 1.996 . S
O276 C282 1.255 . S
O277 Fe267 1.976 . S
O277 C272 1.287 1_545 S
O278 Fe264 1.996 . S
O278 C272 1.255 . S
C279 O283 1.295 . S
C279 O284 1.250 . S
O280 Fe265 1.976 . S
O280 C274 1.287 . S
O281 Fe267 1.996 . S
O281 C274 1.255 1_545 S
C282 O275 1.287 . S
C282 O276 1.255 . S
O283 Fe265 2.002 . S
O283 C279 1.295 . S
O284 Fe267 1.995 1_565 S
O284 C279 1.250 . S
C285 O268 1.295 1_565 S
C285 O269 1.235 . S
Fe286 O288 1.918 1_554 S
Fe286 O291 1.997 . S
Fe286 O292 2.002 . S
Fe286 O297 1.976 . S
Fe286 O300 1.996 1_554 S
Fe287 O288 1.918 . S
Fe287 O295 1.997 1_556 S
Fe287 O298 1.996 . S
Fe287 O302 1.976 . S
Fe287 O305 2.002 . S
O288 Fe286 1.918 1_556 S
O288 Fe287 1.918 . S
O288 Fe289 1.918 . S
Fe289 O288 1.918 . S
Fe289 O290 2.002 . S
Fe289 O299 1.976 . S
Fe289 O303 1.996 . S
Fe289 O306 1.997 . S
O290 Fe289 2.002 . S
O290 C307 1.295 . S
O291 Fe286 1.997 . S
O291 C307 1.235 1_554 S
O292 Fe286 2.002 . S
O292 C293 1.295 . S
C293 O292 1.295 . S
C293 O295 1.235 . S
C294 O299 1.287 . S
C294 O300 1.255 . S
O295 Fe287 1.997 1_554 S
O295 C293 1.235 . S
C296 O302 1.287 . S
C296 O303 1.255 . S
O297 Fe286 1.976 . S
O297 C304 1.285 1_554 S
O298 Fe287 1.996 . S
O298 C304 1.257 . S
O299 Fe289 1.976 . S
O299 C294 1.287 . S
O300 Fe286 1.996 1_556 S
O300 C294 1.255 . S
C301 O305 1.295 . S
C301 O306 1.235 . S
O302 Fe287 1.976 . S
O302 C296 1.287 . S
O303 Fe289 1.996 . S
O303 C296 1.255 . S
C304 O297 1.285 1_556 S
C304 O298 1.257 . S
O305 Fe287 2.002 . S
O305 C301 1.295 . S
O306 Fe289 1.997 . S
O306 C301 1.235 . S
C307 O290 1.295 . S
C307 O291 1.235 1_556 S
Fe308 O310 1.918 1_565 S
Fe308 O313 1.995 1_565 S
Fe308 O314 2.002 . S
Fe308 O319 1.976 . S
Fe308 O322 1.996 . S
Fe309 O310 1.918 . S
Fe309 O317 1.997 . S
Fe309 O320 1.996 . S
Fe309 O324 1.976 . S
Fe309 O327 2.002 . S
O310 Fe308 1.918 1_545 S
O310 Fe309 1.918 . S
O310 Fe311 1.918 . S
Fe311 O310 1.918 . S
Fe311 O312 2.002 . S
Fe311 O321 1.976 . S
Fe311 O325 1.996 . S
Fe311 O328 1.997 . S
O312 Fe311 2.002 . S
O312 C329 1.295 . S
O313 Fe308 1.995 1_545 S
O313 C329 1.250 . S
O314 Fe308 2.002 . S
O314 C315 1.295 1_565 S
C315 O314 1.295 1_545 S
C315 O317 1.235 . S
C316 O321 1.287 . S
C316 O322 1.255 1_545 S
O317 Fe309 1.997 . S
O317 C315 1.235 . S
C318 O324 1.287 . S
C318 O325 1.255 . S
O319 Fe308 1.976 . S
O319 C326 1.287 1_565 S
O320 Fe309 1.996 . S
O320 C326 1.255 . S
O321 Fe311 1.976 . S
O321 C316 1.287 . S
O322 Fe308 1.996 . S
O322 C316 1.255 1_565 S
C323 O327 1.295 . S
C323 O328 1.235 . S
O324 Fe309 1.976 . S
O324 C318 1.287 . S
O325 Fe311 1.996 . S
O325 C318 1.255 . S
C326 O319 1.287 1_545 S
C326 O320 1.255 . S
O327 Fe309 2.002 . S
O327 C323 1.295 . S
O328 Fe311 1.997 . S
O328 C323 1.235 . S
C329 O312 1.295 . S
C329 O313 1.250 . S
Fe330 O332 1.918 . S
Fe330 O335 1.997 . S
Fe330 O336 2.002 . S
Fe330 O341 1.976 . S
Fe330 O344 1.996 . S
Fe331 O332 1.918 . S
Fe331 O339 1.997 . S
Fe331 O342 1.996 . S
Fe331 O346 1.976 . S
Fe331 O349 2.002 . S
O332 Fe330 1.918 . S
O332 Fe331 1.918 . S
O332 Fe333 1.918 . S
Fe333 O332 1.918 . S
Fe333 O334 2.002 . S
Fe333 O343 1.976 . S
Fe333 O347 1.996 . S
Fe333 O350 1.997 . S
O334 Fe333 2.002 . S
O334 C351 1.295 . S
O335 Fe330 1.997 . S
O335 C351 1.235 . S
O336 Fe330 2.002 . S
O336 C337 1.295 . S
C337 O336 1.295 . S
C337 O339 1.235 . S
C338 O343 1.287 . S
C338 O344 1.255 . S
O339 Fe331 1.997 . S
O339 C337 1.235 . S
C340 O346 1.287 . S
C340 O347 1.255 . S
O341 Fe330 1.976 . S
O341 C348 1.287 . S
O342 Fe331 1.996 . S
O342 C348 1.255 . S
O343 Fe333 1.976 . S
O343 C338 1.287 . S
O344 Fe330 1.996 . S
O344 C338 1.255 . S
C345 O349 1.295 . S
C345 O350 1.235 . S
O346 Fe331 1.976 . S
O346 C340 1.287 . S
O347 Fe333 1.996 . S
O347 C340 1.255 . S
C348 O341 1.287 . S
C348 O342 1.255 . S
O349 Fe331 2.002 . S
O349 C345 1.295 . S
O350 Fe333 1.997 . S
O350 C345 1.235 . S
C351 O334 1.295 . S
C351 O335 1.235 . S
H352 C360 0.929 . S
H353 C362 0.930 . S
H354 C364 0.930 . S
H355 C367 0.929 . S
H356 C370 0.930 . S
H357 C372 0.960 . S
H358 C372 0.960 . S
H359 C372 0.960 . S
C360 H352 0.929 . S
C360 C361 1.377 . S
C360 C362 1.384 . S
C361 C360 1.377 . S
C361 C367 1.390 . S
C362 H353 0.930 . S
C362 C360 1.384 . S
C362 C363 1.372 . S
C363 C362 1.372 . S
C363 C364 1.400 . S
C363 C368 1.490 . S
C364 H354 0.930 . S
C364 C363 1.400 . S
C364 C367 1.386 . S
H365 C381 0.930 . S
H366 C382 0.931 . S
C367 H355 0.929 . S
C367 C361 1.390 . S
C367 C364 1.386 . S
C368 C363 1.490 . S
C368 C370 1.395 . S
C368 C371 1.403 . S
H369 C375 0.930 . S
C370 H356 0.930 . S
C370 C368 1.395 . S
C370 C373 1.403 . S
C371 C368 1.403 . S
C371 C372 1.524 . S
C371 C375 1.400 . S
C372 H357 0.960 . S
C372 H358 0.960 . S
C372 H359 0.960 . S
C372 C371 1.524 . S
C373 C370 1.403 . S
C373 C374 1.392 . S
C373 C377 1.495 . S
C374 C373 1.392 . S
C374 C375 1.385 . S
C374 C376 1.478 . S
C375 H369 0.930 . S
C375 C371 1.400 . S
C375 C374 1.385 . S
C376 C374 1.478 . S
C376 C378 1.381 . S
C376 C382 1.383 . S
C377 C373 1.495 . S
C377 H383 0.959 . S
C377 H384 0.961 . S
C377 H385 0.960 . S
C378 C376 1.381 . S
C378 C379 1.394 . S
C378 H386 0.930 . S
C379 C378 1.394 . S
C379 C380 1.383 . S
C379 H387 0.929 . S
C380 C379 1.383 . S
C380 C381 1.377 . S
C381 H365 0.930 . S
C381 C380 1.377 . S
C381 C382 1.379 . S
C382 H366 0.931 . S
C382 C376 1.383 . S
C382 C381 1.379 . S
H383 C377 0.959 . S
H384 C377 0.961 . S
H385 C377 0.960 . S
H386 C378 0.930 . S
H387 C379 0.929 . S
H388 C396 0.929 . S
H389 C398 0.930 . S
H390 C400 0.930 . S
H391 C403 0.929 . S
H392 C406 0.930 . S
H393 C408 0.960 . S
H394 C408 0.960 . S
H395 C408 0.960 . S
C396 H388 0.929 . S
C396 C397 1.377 . S
C396 C398 1.384 . S
C397 C396 1.377 . S
C397 C403 1.390 . S
C398 H389 0.930 . S
C398 C396 1.384 . S
C398 C399 1.372 . S
C399 C398 1.372 . S
C399 C400 1.400 . S
C399 C404 1.490 . S
C400 H390 0.930 . S
C400 C399 1.400 . S
C400 C403 1.386 . S
H401 C417 0.930 . S
H402 C418 0.931 . S
C403 H391 0.929 . S
C403 C397 1.390 . S
C403 C400 1.386 . S
C404 C399 1.490 . S
C404 C406 1.395 . S
C404 C407 1.403 . S
H405 C411 0.930 . S
C406 H392 0.930 . S
C406 C404 1.395 . S
C406 C409 1.403 . S
C407 C404 1.403 . S
C407 C408 1.524 . S
C407 C411 1.400 . S
C408 H393 0.960 . S
C408 H394 0.960 . S
C408 H395 0.960 . S
C408 C407 1.524 . S
C409 C406 1.403 . S
C409 C410 1.392 . S
C409 C413 1.495 . S
C410 C409 1.392 . S
C410 C411 1.385 . S
C410 C412 1.478 . S
C411 H405 0.930 . S
C411 C407 1.400 . S
C411 C410 1.385 . S
C412 C410 1.478 . S
C412 C414 1.381 . S
C412 C418 1.383 . S
C413 C409 1.495 . S
C413 H419 0.959 . S
C413 H420 0.961 . S
C413 H421 0.960 . S
C414 C412 1.381 . S
C414 C415 1.394 . S
C414 H422 0.930 . S
C415 C414 1.394 . S
C415 C416 1.383 . S
C415 H423 0.929 . S
C416 C415 1.383 . S
C416 C417 1.377 . S
C417 H401 0.930 . S
C417 C416 1.377 . S
C417 C418 1.379 . S
C418 H402 0.931 . S
C418 C412 1.383 . S
C418 C417 1.379 . S
H419 C413 0.959 . S
H420 C413 0.961 . S
H421 C413 0.960 . S
H422 C414 0.930 . S
H423 C415 0.929 . S
H424 C432 0.929 . S
H425 C434 0.930 . S
H426 C436 0.930 . S
H427 C439 0.929 . S
H428 C442 0.930 . S
H429 C444 0.960 . S
H430 C444 0.960 . S
H431 C444 0.960 . S
C432 H424 0.929 . S
C432 C433 1.377 . S
C432 C434 1.384 . S
C433 C432 1.377 . S
C433 C439 1.390 . S
C434 H425 0.930 . S
C434 C432 1.384 . S
C434 C435 1.372 . S
C435 C434 1.372 . S
C435 C436 1.400 . S
C435 C440 1.490 . S
C436 H426 0.930 . S
C436 C435 1.400 . S
C436 C439 1.386 . S
H437 C453 0.930 . S
H438 C454 0.931 1_455 S
C439 H427 0.929 . S
C439 C433 1.390 . S
C439 C436 1.386 . S
C440 C435 1.490 . S
C440 C442 1.395 . S
C440 C443 1.403 . S
H441 C447 0.930 . S
C442 H428 0.930 . S
C442 C440 1.395 . S
C442 C445 1.403 . S
C443 C440 1.403 . S
C443 C444 1.524 . S
C443 C447 1.400 . S
C444 H429 0.960 . S
C444 H430 0.960 . S
C444 H431 0.960 . S
C444 C443 1.524 . S
C445 C442 1.403 . S
C445 C446 1.392 . S
C445 C449 1.495 . S
C446 C445 1.392 . S
C446 C447 1.385 . S
C446 C448 1.478 . S
C447 H441 0.930 . S
C447 C443 1.400 . S
C447 C446 1.385 . S
C448 C446 1.478 . S
C448 C450 1.381 1_455 S
C448 C454 1.383 1_455 S
C449 C445 1.495 . S
C449 H455 0.959 . S
C449 H456 0.961 . S
C449 H457 0.960 . S
C450 C448 1.381 1_655 S
C450 C451 1.394 . S
C450 H458 0.930 1_655 S
C451 C450 1.394 . S
C451 C452 1.383 . S
C451 H459 0.929 . S
C452 C451 1.383 . S
C452 C453 1.377 . S
C453 H437 0.930 . S
C453 C452 1.377 . S
C453 C454 1.379 . S
C454 H438 0.931 1_655 S
C454 C448 1.383 1_655 S
C454 C453 1.379 . S
H455 C449 0.959 . S
H456 C449 0.961 . S
H457 C449 0.960 . S
H458 C450 0.930 1_455 S
H459 C451 0.929 . S
H460 C468 0.929 . S
H461 C470 0.930 . S
H462 C472 0.930 . S
H463 C475 0.929 . S
H464 C478 0.930 . S
H465 C480 0.960 . S
H466 C480 0.960 . S
H467 C480 0.960 . S
C468 H460 0.929 . S
C468 C469 1.377 1_556 S
C468 C470 1.384 . S
C469 C468 1.377 1_554 S
C469 C475 1.390 . S
C470 H461 0.930 . S
C470 C468 1.384 . S
C470 C471 1.372 1_556 S
C471 C470 1.372 1_554 S
C471 C472 1.400 . S
C471 C476 1.490 . S
C472 H462 0.930 . S
C472 C471 1.400 . S
C472 C475 1.386 . S
H473 C489 0.930 . S
H474 C490 0.931 . S
C475 H463 0.929 . S
C475 C469 1.390 . S
C475 C472 1.386 . S
C476 C471 1.490 . S
C476 C478 1.395 1_554 S
C476 C479 1.403 . S
H477 C483 0.930 . S
C478 H464 0.930 . S
C478 C476 1.395 1_556 S
C478 C481 1.404 . S
C479 C476 1.403 . S
C479 C480 1.524 . S
C479 C483 1.400 . S
C480 H465 0.960 . S
C480 H466 0.960 . S
C480 H467 0.960 . S
C480 C479 1.524 . S
C481 C478 1.404 . S
C481 C482 1.385 1_556 S
C481 C485 1.502 . S
C482 C481 1.385 1_554 S
C482 C483 1.385 . S
C482 C484 1.478 . S
C483 H477 0.930 . S
C483 C479 1.400 . S
C483 C482 1.385 . S
C484 C482 1.478 . S
C484 C486 1.361 1_554 S
C484 C490 1.383 . S
C485 C481 1.502 . S
C485 H491 0.959 . S
C485 H492 0.961 . S
C485 H493 0.960 . S
C486 C484 1.361 1_556 S
C486 C487 1.390 1_556 S
C486 H494 0.956 . S
C487 C486 1.390 1_554 S
C487 C488 1.383 . S
C487 H495 0.929 1_554 S
C488 C487 1.383 . S
C488 C489 1.377 . S
C489 H473 0.930 . S
C489 C488 1.377 . S
C489 C490 1.379 . S
C490 H474 0.931 . S
C490 C484 1.383 . S
C490 C489 1.379 . S
H491 C485 0.959 . S
H492 C485 0.961 . S
H493 C485 0.960 . S
H494 C486 0.956 . S
H495 C487 0.929 1_556 S
H496 C504 0.929 . S
H497 C506 0.930 . S
H498 C508 0.930 . S
H499 C511 0.929 . S
H500 C514 0.930 . S
H501 C516 0.960 . S
H502 C516 0.960 . S
H503 C516 0.960 . S
C504 H496 0.929 . S
C504 C505 1.377 . S
C504 C506 1.384 . S
C505 C504 1.377 . S
C505 C511 1.390 . S
C506 H497 0.930 . S
C506 C504 1.384 . S
C506 C507 1.372 . S
C507 C506 1.372 . S
C507 C508 1.400 . S
C507 C512 1.490 . S
C508 H498 0.930 . S
C508 C507 1.400 . S
C508 C511 1.386 . S
H509 C525 0.930 . S
H510 C526 0.931 . S
C511 H499 0.929 . S
C511 C505 1.390 . S
C511 C508 1.386 . S
C512 C507 1.490 . S
C512 C514 1.395 . S
C512 C515 1.403 . S
H513 C519 0.930 . S
C514 H500 0.930 . S
C514 C512 1.395 . S
C514 C517 1.403 . S
C515 C512 1.403 . S
C515 C516 1.524 . S
C515 C519 1.400 . S
C516 H501 0.960 . S
C516 H502 0.960 . S
C516 H503 0.960 . S
C516 C515 1.524 . S
C517 C514 1.403 . S
C517 C518 1.392 . S
C517 C521 1.495 . S
C518 C517 1.392 . S
C518 C519 1.385 . S
C518 C520 1.478 . S
C519 H513 0.930 . S
C519 C515 1.400 . S
C519 C518 1.385 . S
C520 C518 1.478 . S
C520 C522 1.381 . S
C520 C526 1.383 . S
C521 C517 1.495 . S
C521 H527 0.959 . S
C521 H528 0.961 . S
C521 H529 0.960 . S
C522 C520 1.381 . S
C522 C523 1.394 . S
C522 H530 0.930 . S
C523 C522 1.394 . S
C523 C524 1.383 . S
C523 H531 0.929 . S
C524 C523 1.383 . S
C524 C525 1.377 . S
C525 H509 0.930 . S
C525 C524 1.377 . S
C525 C526 1.379 . S
C526 H510 0.931 . S
C526 C520 1.383 . S
C526 C525 1.379 . S
H527 C521 0.959 . S
H528 C521 0.961 . S
H529 C521 0.960 . S
H530 C522 0.930 . S
H531 C523 0.929 . S
H532 C540 0.929 . S
H533 C542 0.930 . S
H534 C544 0.930 . S
H535 C547 0.929 . S
H536 C550 0.930 . S
H537 C552 0.960 . S
H538 C552 0.960 . S
H539 C552 0.960 . S
C540 H532 0.929 . S
C540 C541 1.377 . S
C540 C542 1.384 . S
C541 C540 1.377 . S
C541 C547 1.390 . S
C542 H533 0.930 . S
C542 C540 1.384 . S
C542 C543 1.372 . S
C543 C542 1.372 . S
C543 C544 1.400 . S
C543 C548 1.490 . S
C544 H534 0.930 . S
C544 C543 1.400 . S
C544 C547 1.386 . S
H545 C561 0.930 . S
H546 C562 0.931 . S
C547 H535 0.929 . S
C547 C541 1.390 . S
C547 C544 1.386 . S
C548 C543 1.490 . S
C548 C550 1.395 . S
C548 C551 1.403 . S
H549 C555 0.930 . S
C550 H536 0.930 . S
C550 C548 1.395 . S
C550 C553 1.403 . S
C551 C548 1.403 . S
C551 C552 1.524 . S
C551 C555 1.400 . S
C552 H537 0.960 . S
C552 H538 0.960 . S
C552 H539 0.960 . S
C552 C551 1.524 . S
C553 C550 1.403 . S
C553 C554 1.392 . S
C553 C557 1.495 . S
C554 C553 1.392 . S
C554 C555 1.385 . S
C554 C556 1.478 . S
C555 H549 0.930 . S
C555 C551 1.400 . S
C555 C554 1.385 . S
C556 C554 1.478 . S
C556 C558 1.381 . S
C556 C562 1.383 . S
C557 C553 1.495 . S
C557 H563 0.959 . S
C557 H564 0.961 . S
C557 H565 0.960 . S
C558 C556 1.381 . S
C558 C559 1.394 . S
C558 H566 0.930 . S
C559 C558 1.394 . S
C559 C560 1.383 . S
C559 H567 0.929 . S
C560 C559 1.383 . S
C560 C561 1.377 . S
C561 H545 0.930 . S
C561 C560 1.377 . S
C561 C562 1.379 . S
C562 H546 0.931 . S
C562 C556 1.383 . S
C562 C561 1.379 . S
H563 C557 0.959 . S
H564 C557 0.961 . S
H565 C557 0.960 . S
H566 C558 0.930 . S
H567 C559 0.929 . S
H568 C576 0.929 . S
H569 C578 0.930 . S
H570 C580 0.930 . S
H571 C583 0.929 . S
H572 C586 0.930 . S
H573 C588 0.960 . S
H574 C588 0.960 . S
H575 C588 0.960 . S
C576 H568 0.929 . S
C576 C577 1.377 . S
C576 C578 1.384 . S
C577 C576 1.377 . S
C577 C583 1.390 . S
C578 H569 0.930 . S
C578 C576 1.384 . S
C578 C579 1.372 . S
C579 C578 1.372 . S
C579 C580 1.400 . S
C579 C584 1.490 . S
C580 H570 0.930 . S
C580 C579 1.400 . S
C580 C583 1.386 . S
H581 C597 0.930 . S
H582 C598 0.920 1_655 S
C583 H571 0.929 . S
C583 C577 1.390 . S
C583 C580 1.386 . S
C584 C579 1.490 . S
C584 C586 1.395 . S
C584 C587 1.403 . S
H585 C591 0.930 . S
C586 H572 0.930 . S
C586 C584 1.395 . S
C586 C589 1.403 . S
C587 C584 1.403 . S
C587 C588 1.524 . S
C587 C591 1.400 . S
C588 H573 0.960 . S
C588 H574 0.960 . S
C588 H575 0.960 . S
C588 C587 1.524 . S
C589 C586 1.403 . S
C589 C590 1.392 . S
C589 C593 1.495 . S
C590 C589 1.392 . S
C590 C591 1.385 . S
C590 C592 1.478 . S
C591 H585 0.930 . S
C591 C587 1.400 . S
C591 C590 1.385 . S
C592 C590 1.478 . S
C592 C594 1.381 1_655 S
C592 C598 1.383 1_655 S
C593 C589 1.495 . S
C593 H599 0.959 . S
C593 H600 0.961 . S
C593 H601 0.960 . S
C594 C592 1.381 1_455 S
C594 C595 1.394 . S
C594 H602 0.930 1_455 S
C595 C594 1.394 . S
C595 C596 1.383 . S
C595 H603 0.929 . S
C596 C595 1.383 . S
C596 C597 1.377 . S
C597 H581 0.930 . S
C597 C596 1.377 . S
C597 C598 1.379 . S
C598 H582 0.920 1_455 S
C598 C592 1.383 1_455 S
C598 C597 1.379 . S
H599 C593 0.959 . S
H600 C593 0.961 . S
H601 C593 0.960 . S
H602 C594 0.930 1_655 S
H603 C595 0.929 . S
H604 C612 0.929 . S
H605 C614 0.930 . S
H606 C616 0.930 1_554 S
H607 C619 0.929 1_554 S
H608 C622 0.930 . S
H609 C624 0.960 . S
H610 C624 0.960 1_556 S
H611 C624 0.960 . S
C612 H604 0.929 . S
C612 C613 1.377 . S
C612 C614 1.384 . S
C613 C612 1.377 . S
C613 C619 1.390 . S
C614 H605 0.930 . S
C614 C612 1.384 . S
C614 C615 1.372 . S
C615 C614 1.372 . S
C615 C616 1.400 . S
C615 C620 1.490 . S
C616 H606 0.930 1_556 S
C616 C615 1.400 . S
C616 C619 1.386 . S
H617 C633 0.930 . S
H618 C634 0.931 . S
C619 H607 0.929 1_556 S
C619 C613 1.390 . S
C619 C616 1.386 . S
C620 C615 1.490 . S
C620 C622 1.395 . S
C620 C623 1.403 . S
H621 C627 0.930 1_554 S
C622 H608 0.930 . S
C622 C620 1.395 . S
C622 C625 1.403 . S
C623 C620 1.403 . S
C623 C624 1.524 1_556 S
C623 C627 1.400 . S
C624 H609 0.960 . S
C624 H610 0.960 1_554 S
C624 H611 0.960 . S
C624 C623 1.524 1_554 S
C625 C622 1.403 . S
C625 C626 1.392 . S
C625 C629 1.495 . S
C626 C625 1.392 . S
C626 C627 1.385 . S
C626 C628 1.478 . S
C627 H621 0.930 1_556 S
C627 C623 1.400 . S
C627 C626 1.385 . S
C628 C626 1.478 . S
C628 C630 1.381 . S
C628 C634 1.383 1_556 S
C629 C625 1.495 . S
C629 H635 0.959 . S
C629 H636 0.961 . S
C629 H637 0.960 . S
C630 C628 1.381 . S
C630 C631 1.394 . S
C630 H638 0.930 . S
C631 C630 1.394 . S
C631 C632 1.383 . S
C631 H639 0.929 . S
C632 C631 1.383 . S
C632 C633 1.377 1_556 S
C633 H617 0.930 . S
C633 C632 1.377 1_554 S
C633 C634 1.379 . S
C634 H618 0.931 . S
C634 C628 1.383 1_554 S
C634 C633 1.379 . S
H635 C629 0.959 . S
H636 C629 0.961 . S
H637 C629 0.960 . S
H638 C630 0.930 . S
H639 C631 0.929 . S
H640 C648 0.929 . S
H641 C650 0.930 . S
H642 C652 0.930 . S
H643 C655 0.929 . S
H644 C658 0.930 . S
H645 C660 0.963 . S
H646 C660 0.984 . S
H647 C660 0.937 1_545 S
C648 H640 0.929 . S
C648 C649 1.377 1_565 S
C648 C650 1.384 . S
C649 C648 1.377 1_545 S
C649 C655 1.390 . S
C650 H641 0.930 . S
C650 C648 1.384 . S
C650 C651 1.372 1_565 S
C651 C650 1.372 1_545 S
C651 C652 1.400 . S
C651 C656 1.490 . S
C652 H642 0.930 . S
C652 C651 1.400 . S
C652 C655 1.386 . S
H653 C669 0.930 . S
H654 C670 0.931 1_655 S
C655 H643 0.929 . S
C655 C649 1.390 . S
C655 C652 1.386 . S
C656 C651 1.490 . S
C656 C658 1.395 . S
C656 C659 1.403 . S
H657 C663 0.931 . S
C658 H644 0.930 . S
C658 C656 1.395 . S
C658 C661 1.403 . S
C659 C656 1.403 . S
C659 C660 1.521 1_545 S
C659 C663 1.400 . S
C660 H645 0.963 . S
C660 H646 0.984 . S
C660 H647 0.937 1_565 S
C660 C659 1.521 1_565 S
C661 C658 1.403 . S
C661 C662 1.392 . S
C661 C665 1.495 . S
C662 C661 1.392 . S
C662 C663 1.385 . S
C662 C664 1.478 . S
C663 H657 0.931 . S
C663 C659 1.400 . S
C663 C662 1.385 . S
C664 C662 1.478 . S
C664 C666 1.381 1_645 S
C664 C670 1.383 1_655 S
C665 C661 1.495 . S
C665 H671 0.959 . S
C665 H672 0.961 . S
C665 H673 0.960 1_545 S
C666 C664 1.381 1_465 S
C666 C667 1.394 . S
C666 H674 0.930 1_455 S
C667 C666 1.394 . S
C667 C668 1.406 . S
C667 H675 0.929 . S
C668 C667 1.406 . S
C668 C669 1.353 1_565 S
C669 H653 0.930 . S
C669 C668 1.353 1_545 S
C669 C670 1.379 . S
C670 H654 0.931 1_455 S
C670 C664 1.383 1_455 S
C670 C669 1.379 . S
H671 C665 0.959 . S
H672 C665 0.961 . S
H673 C665 0.960 1_565 S
H674 C666 0.930 1_655 S
H675 C667 0.929 . S
H676 C684 0.929 . S
H677 C686 0.930 . S
H678 C688 0.930 1_556 S
H679 C691 0.929 1_556 S
H680 C694 0.930 . S
H681 C696 0.960 1_556 S
H682 C696 0.960 . S
H683 C696 0.960 1_556 S
C684 H676 0.929 . S
C684 C685 1.377 . S
C684 C686 1.384 . S
C685 C684 1.377 . S
C685 C691 1.390 . S
C686 H677 0.930 . S
C686 C684 1.384 . S
C686 C687 1.372 . S
C687 C686 1.372 . S
C687 C688 1.400 . S
C687 C692 1.490 . S
C688 H678 0.930 1_554 S
C688 C687 1.400 . S
C688 C691 1.386 . S
H689 C705 0.930 . S
H690 C706 0.931 . S
C691 H679 0.929 1_554 S
C691 C685 1.390 . S
C691 C688 1.386 . S
C692 C687 1.490 . S
C692 C694 1.395 . S
C692 C695 1.403 . S
H693 C699 0.929 . S
C694 H680 0.930 . S
C694 C692 1.395 . S
C694 C697 1.403 . S
C695 C692 1.403 . S
C695 C696 1.524 . S
C695 C699 1.400 . S
C696 H681 0.960 1_554 S
C696 H682 0.960 . S
C696 H683 0.960 1_554 S
C696 C695 1.524 . S
C697 C694 1.403 . S
C697 C698 1.392 . S
C697 C701 1.495 . S
C698 C697 1.392 . S
C698 C699 1.385 . S
C698 C700 1.478 . S
C699 H693 0.929 . S
C699 C695 1.400 . S
C699 C698 1.385 . S
C700 C698 1.478 . S
C700 C702 1.381 . S
C700 C706 1.383 1_554 S
C701 C697 1.495 . S
C701 H707 0.959 . S
C701 H708 0.961 . S
C701 H709 0.960 . S
C702 C700 1.381 . S
C702 C703 1.394 . S
C702 H710 0.930 . S
C703 C702 1.394 . S
C703 C704 1.383 . S
C703 H711 0.929 . S
C704 C703 1.383 . S
C704 C705 1.377 1_554 S
C705 H689 0.930 . S
C705 C704 1.377 1_556 S
C705 C706 1.379 . S
C706 H690 0.931 . S
C706 C700 1.383 1_556 S
C706 C705 1.379 . S
H707 C701 0.959 . S
H708 C701 0.961 . S
H709 C701 0.960 . S
H710 C702 0.930 . S
H711 C703 0.929 . S
H712 C720 0.929 . S
H713 C722 0.930 . S
H714 C724 0.930 . S
H715 C727 0.929 . S
H716 C730 0.930 . S
H717 C732 0.960 . S
H718 C732 0.960 . S
H719 C732 0.960 . S
C720 H712 0.929 . S
C720 C721 1.377 . S
C720 C722 1.384 . S
C721 C720 1.377 . S
C721 C727 1.390 1_545 S
C722 H713 0.930 . S
C722 C720 1.384 . S
C722 C723 1.372 1_545 S
C723 C722 1.372 1_565 S
C723 C724 1.400 . S
C723 C728 1.490 . S
C724 H714 0.930 . S
C724 C723 1.400 . S
C724 C727 1.386 . S
H725 C741 0.930 . S
H726 C742 0.931 . S
C727 H715 0.929 . S
C727 C721 1.390 1_565 S
C727 C724 1.386 . S
C728 C723 1.490 . S
C728 C730 1.395 . S
C728 C731 1.403 1_565 S
H729 C735 0.930 . S
C730 H716 0.930 . S
C730 C728 1.395 . S
C730 C733 1.403 . S
C731 C728 1.403 1_545 S
C731 C732 1.524 . S
C731 C735 1.400 . S
C732 H717 0.960 . S
C732 H718 0.960 . S
C732 H719 0.960 . S
C732 C731 1.524 . S
C733 C730 1.403 . S
C733 C734 1.392 . S
C733 C737 1.495 . S
C734 C733 1.392 . S
C734 C735 1.385 1_565 S
C734 C736 1.478 . S
C735 H729 0.930 . S
C735 C731 1.400 . S
C735 C734 1.385 1_545 S
C736 C734 1.478 . S
C736 C738 1.381 1_565 S
C736 C742 1.383 . S
C737 C733 1.495 . S
C737 H743 0.959 . S
C737 H744 0.961 . S
C737 H745 0.960 . S
C738 C736 1.381 1_545 S
C738 C739 1.394 . S
C738 H746 0.930 . S
C739 C738 1.394 . S
C739 C740 1.383 1_545 S
C739 H747 0.929 . S
C740 C739 1.383 1_565 S
C740 C741 1.377 . S
C741 H725 0.930 . S
C741 C740 1.377 . S
C741 C742 1.379 . S
C742 H726 0.931 . S
C742 C736 1.383 . S
C742 C741 1.379 . S
H743 C737 0.959 . S
H744 C737 0.961 . S
H745 C737 0.960 . S
H746 C738 0.930 . S
H747 C739 0.929 . S
H748 C756 0.929 . S
H749 C758 0.930 . S
H750 C760 0.930 . S
H751 C763 0.929 . S
H752 C766 0.930 . S
H753 C768 0.960 . S
H754 C768 0.960 . S
H755 C768 0.960 . S
C756 H748 0.929 . S
C756 C757 1.377 . S
C756 C758 1.384 . S
C757 C756 1.377 . S
C757 C763 1.390 . S
C758 H749 0.930 . S
C758 C756 1.384 . S
C758 C759 1.372 . S
C759 C758 1.372 . S
C759 C760 1.400 . S
C759 C764 1.490 . S
C760 H750 0.930 . S
C760 C759 1.400 . S
C760 C763 1.386 . S
H761 C777 0.930 . S
H762 C778 0.931 . S
C763 H751 0.929 . S
C763 C757 1.390 . S
C763 C760 1.386 . S
C764 C759 1.490 . S
C764 C766 1.395 . S
C764 C767 1.403 . S
H765 C771 0.930 . S
C766 H752 0.930 . S
C766 C764 1.395 . S
C766 C769 1.403 . S
C767 C764 1.403 . S
C767 C768 1.524 . S
C767 C771 1.400 . S
C768 H753 0.960 . S
C768 H754 0.960 . S
C768 H755 0.960 . S
C768 C767 1.524 . S
C769 C766 1.403 . S
C769 C770 1.392 . S
C769 C773 1.495 . S
C770 C769 1.392 . S
C770 C771 1.385 . S
C770 C772 1.478 . S
C771 H765 0.930 . S
C771 C767 1.400 . S
C771 C770 1.385 . S
C772 C770 1.478 . S
C772 C774 1.381 . S
C772 C778 1.383 . S
C773 C769 1.495 . S
C773 H779 0.959 . S
C773 H780 0.961 . S
C773 H781 0.960 . S
C774 C772 1.381 . S
C774 C775 1.394 . S
C774 H782 0.930 . S
C775 C774 1.394 . S
C775 C776 1.383 . S
C775 H783 0.929 . S
C776 C775 1.383 . S
C776 C777 1.377 . S
C777 H761 0.930 . S
C777 C776 1.377 . S
C777 C778 1.379 . S
C778 H762 0.931 . S
C778 C772 1.383 . S
C778 C777 1.379 . S
H779 C773 0.959 . S
H780 C773 0.961 . S
H781 C773 0.960 . S
H782 C774 0.930 . S
H783 C775 0.929 . S
H784 C792 0.929 . S
H785 C794 0.930 1_455 S
H786 C796 0.930 1_455 S
H787 C799 0.929 . S
H788 C802 0.930 . S
H789 C804 0.960 . S
H790 C804 0.960 . S
H791 C804 0.960 . S
C792 H784 0.929 . S
C792 C793 1.377 . S
C792 C794 1.384 . S
C793 C792 1.377 . S
C793 C799 1.390 1_545 S
C794 H785 0.930 1_655 S
C794 C792 1.384 . S
C794 C795 1.351 1_645 S
C795 C794 1.351 1_465 S
C795 C796 1.420 1_455 S
C795 C800 1.491 . S
C796 H786 0.930 1_655 S
C796 C795 1.420 1_655 S
C796 C799 1.386 . S
H797 C813 0.930 . S
H798 C814 0.931 . S
C799 H787 0.929 . S
C799 C793 1.390 1_565 S
C799 C796 1.386 . S
C800 C795 1.491 . S
C800 C802 1.395 1_565 S
C800 C803 1.403 . S
H801 C807 0.930 . S
C802 H788 0.930 . S
C802 C800 1.395 1_545 S
C802 C805 1.403 . S
C803 C800 1.403 . S
C803 C804 1.524 . S
C803 C807 1.400 . S
C804 H789 0.960 . S
C804 H790 0.960 . S
C804 H791 0.960 . S
C804 C803 1.524 . S
C805 C802 1.403 . S
C805 C806 1.392 1_545 S
C805 C809 1.495 . S
C806 C805 1.392 1_565 S
C806 C807 1.385 . S
C806 C808 1.478 . S
C807 H801 0.930 . S
C807 C803 1.400 . S
C807 C806 1.385 . S
C808 C806 1.478 . S
C808 C810 1.381 1_565 S
C808 C814 1.383 . S
C809 C805 1.495 . S
C809 H815 0.959 . S
C809 H816 0.961 . S
C809 H817 0.960 . S
C810 C808 1.381 1_545 S
C810 C811 1.394 . S
C810 H818 0.930 . S
C811 C810 1.394 . S
C811 C812 1.383 1_545 S
C811 H819 0.929 . S
C812 C811 1.383 1_565 S
C812 C813 1.377 . S
C813 H797 0.930 . S
C813 C812 1.377 . S
C813 C814 1.379 . S
C814 H798 0.931 . S
C814 C808 1.383 . S
C814 C813 1.379 . S
H815 C809 0.959 . S
H816 C809 0.961 . S
H817 C809 0.960 . S
H818 C810 0.930 . S
H819 C811 0.929 . S
H820 C828 0.929 . S
H821 C830 0.930 . S
H822 C832 0.930 . S
H823 C835 0.929 . S
H824 C838 0.930 . S
H825 C840 0.960 . S
H826 C840 0.960 . S
H827 C840 0.960 . S
C828 H820 0.929 . S
C828 C829 1.377 . S
C828 C830 1.384 . S
C829 C828 1.377 . S
C829 C835 1.390 . S
C830 H821 0.930 . S
C830 C828 1.384 . S
C830 C831 1.372 . S
C831 C830 1.372 . S
C831 C832 1.400 . S
C831 C836 1.490 . S
C832 H822 0.930 . S
C832 C831 1.400 . S
C832 C835 1.386 . S
H833 C849 0.930 1_554 S
H834 C850 0.931 . S
C835 H823 0.929 . S
C835 C829 1.390 . S
C835 C832 1.386 . S
C836 C831 1.490 . S
C836 C838 1.395 . S
C836 C839 1.403 1_556 S
H837 C843 0.930 . S
C838 H824 0.930 . S
C838 C836 1.395 . S
C838 C841 1.403 . S
C839 C836 1.403 1_554 S
C839 C840 1.524 . S
C839 C843 1.400 . S
C840 H825 0.960 . S
C840 H826 0.960 . S
C840 H827 0.960 . S
C840 C839 1.524 . S
C841 C838 1.403 . S
C841 C842 1.392 . S
C841 C845 1.495 . S
C842 C841 1.392 . S
C842 C843 1.385 1_556 S
C842 C844 1.478 . S
C843 H837 0.930 . S
C843 C839 1.400 . S
C843 C842 1.385 1_554 S
C844 C842 1.478 . S
C844 C846 1.381 . S
C844 C850 1.383 . S
C845 C841 1.495 . S
C845 H851 0.959 . S
C845 H852 0.961 . S
C845 H853 0.960 . S
C846 C844 1.381 . S
C846 C847 1.394 . S
C846 H854 0.930 . S
C847 C846 1.394 . S
C847 C848 1.383 . S
C847 H855 0.929 . S
C848 C847 1.383 . S
C848 C849 1.377 . S
C849 H833 0.930 1_556 S
C849 C848 1.377 . S
C849 C850 1.379 . S
C850 H834 0.931 . S
C850 C844 1.383 . S
C850 C849 1.379 . S
H851 C845 0.959 . S
H852 C845 0.961 . S
H853 C845 0.960 . S
H854 C846 0.930 . S
H855 C847 0.929 . S
H856 C864 0.929 . S
H857 C866 0.930 . S
H858 C868 0.930 . S
H859 C871 0.929 . S
H860 C874 0.930 . S
H861 C876 0.960 . S
H862 C876 0.960 1_565 S
H863 C876 0.960 . S
C864 H856 0.929 . S
C864 C865 1.377 . S
C864 C866 1.384 . S
C865 C864 1.377 . S
C865 C871 1.390 1_565 S
C866 H857 0.930 . S
C866 C864 1.384 . S
C866 C867 1.359 1_565 S
C867 C866 1.359 1_545 S
C867 C868 1.412 . S
C867 C872 1.491 . S
C868 H858 0.930 . S
C868 C867 1.412 . S
C868 C871 1.386 . S
H869 C885 0.930 . S
H870 C886 0.931 . S
C871 H859 0.929 . S
C871 C865 1.390 1_545 S
C871 C868 1.386 . S
C872 C867 1.491 . S
C872 C874 1.395 1_545 S
C872 C875 1.403 . S
H873 C879 0.930 . S
C874 H860 0.930 . S
C874 C872 1.395 1_565 S
C874 C877 1.403 1_565 S
C875 C872 1.403 . S
C875 C876 1.524 . S
C875 C879 1.400 . S
C876 H861 0.960 . S
C876 H862 0.960 1_545 S
C876 H863 0.960 . S
C876 C875 1.524 . S
C877 C874 1.403 1_545 S
C877 C878 1.394 . S
C877 C881 1.494 1_545 S
C878 C877 1.394 . S
C878 C879 1.385 . S
C878 C880 1.478 . S
C879 H873 0.930 . S
C879 C875 1.400 . S
C879 C878 1.385 . S
C880 C878 1.478 . S
C880 C882 1.381 1_545 S
C880 C886 1.383 . S
C881 C877 1.494 1_565 S
C881 H887 0.959 . S
C881 H888 0.961 1_565 S
C881 H889 0.960 . S
C882 C880 1.381 1_565 S
C882 C883 1.394 . S
C882 H890 0.930 . S
C883 C882 1.394 . S
C883 C884 1.383 1_565 S
C883 H891 0.929 . S
C884 C883 1.383 1_545 S
C884 C885 1.377 . S
C885 H869 0.930 . S
C885 C884 1.377 . S
C885 C886 1.379 . S
C886 H870 0.931 . S
C886 C880 1.383 . S
C886 C885 1.379 . S
H887 C881 0.959 . S
H888 C881 0.961 1_545 S
H889 C881 0.960 . S
H890 C882 0.930 . S
H891 C883 0.929 . S
H892 C900 0.929 . S
H893 C902 0.930 . S
H894 C904 0.930 . S
H895 C907 0.929 . S
H896 C910 0.930 . S
H897 C912 0.960 . S
H898 C912 0.960 . S
H899 C912 0.960 . S
C900 H892 0.929 . S
C900 C901 1.377 . S
C900 C902 1.384 . S
C901 C900 1.377 . S
C901 C907 1.390 . S
C902 H893 0.930 . S
C902 C900 1.384 . S
C902 C903 1.372 . S
C903 C902 1.372 . S
C903 C904 1.400 . S
C903 C908 1.490 . S
C904 H894 0.930 . S
C904 C903 1.400 . S
C904 C907 1.386 . S
H905 C921 0.930 . S
H906 C922 0.931 . S
C907 H895 0.929 . S
C907 C901 1.390 . S
C907 C904 1.386 . S
C908 C903 1.490 . S
C908 C910 1.395 . S
C908 C911 1.403 . S
H909 C915 0.930 . S
C910 H896 0.930 . S
C910 C908 1.395 . S
C910 C913 1.403 . S
C911 C908 1.403 . S
C911 C912 1.524 . S
C911 C915 1.400 . S
C912 H897 0.960 . S
C912 H898 0.960 . S
C912 H899 0.960 . S
C912 C911 1.524 . S
C913 C910 1.403 . S
C913 C914 1.392 . S
C913 C917 1.495 . S
C914 C913 1.392 . S
C914 C915 1.385 . S
C914 C916 1.478 . S
C915 H909 0.930 . S
C915 C911 1.400 . S
C915 C914 1.385 . S
C916 C914 1.478 . S
C916 C918 1.381 . S
C916 C922 1.383 . S
C917 C913 1.495 . S
C917 H923 0.959 . S
C917 H924 0.961 . S
C917 H925 0.960 . S
C918 C916 1.381 . S
C918 C919 1.394 . S
C918 H926 0.930 . S
C919 C918 1.394 . S
C919 C920 1.383 . S
C919 H927 0.929 . S
C920 C919 1.383 . S
C920 C921 1.377 . S
C921 H905 0.930 . S
C921 C920 1.377 . S
C921 C922 1.379 . S
C922 H906 0.931 . S
C922 C916 1.383 . S
C922 C921 1.379 . S
H923 C917 0.959 . S
H924 C917 0.961 . S
H925 C917 0.960 . S
H926 C918 0.930 . S
H927 C919 0.929 . S
H928 C936 0.929 . S
H929 C938 0.930 . S
H930 C940 0.930 . S
H931 C943 0.929 . S
H932 C946 0.930 . S
H933 C948 0.960 . S
H934 C948 0.960 . S
H935 C948 0.960 . S
C936 H928 0.929 . S
C936 C937 1.377 . S
C936 C938 1.384 . S
C937 C936 1.377 . S
C937 C943 1.390 . S
C938 H929 0.930 . S
C938 C936 1.384 . S
C938 C939 1.372 . S
C939 C938 1.372 . S
C939 C940 1.400 . S
C939 C944 1.490 . S
C940 H930 0.930 . S
C940 C939 1.400 . S
C940 C943 1.386 . S
H941 C957 0.930 . S
H942 C958 0.931 . S
C943 H931 0.929 . S
C943 C937 1.390 . S
C943 C940 1.386 . S
C944 C939 1.490 . S
C944 C946 1.395 . S
C944 C947 1.403 . S
H945 C951 0.930 . S
C946 H932 0.930 . S
C946 C944 1.395 . S
C946 C949 1.403 . S
C947 C944 1.403 . S
C947 C948 1.524 . S
C947 C951 1.400 . S
C948 H933 0.960 . S
C948 H934 0.960 . S
C948 H935 0.960 . S
C948 C947 1.524 . S
C949 C946 1.403 . S
C949 C950 1.392 . S
C949 C953 1.495 . S
C950 C949 1.392 . S
C950 C951 1.385 . S
C950 C952 1.478 . S
C951 H945 0.930 . S
C951 C947 1.400 . S
C951 C950 1.385 . S
C952 C950 1.478 . S
C952 C954 1.381 . S
C952 C958 1.383 . S
C953 C949 1.495 . S
C953 H959 0.959 . S
C953 H960 0.961 . S
C953 H961 0.960 . S
C954 C952 1.381 . S
C954 C955 1.394 . S
C954 H962 0.930 . S
C955 C954 1.394 . S
C955 C956 1.383 . S
C955 H963 0.929 . S
C956 C955 1.383 . S
C956 C957 1.377 . S
C957 H941 0.930 . S
C957 C956 1.377 . S
C957 C958 1.379 . S
C958 H942 0.931 . S
C958 C952 1.383 . S
C958 C957 1.379 . S
H959 C953 0.959 . S
H960 C953 0.961 . S
H961 C953 0.960 . S
H962 C954 0.930 . S
H963 C955 0.929 . S
H964 C972 0.929 . S
H965 C974 0.930 . S
H966 C976 0.930 . S
H967 C979 0.929 . S
H968 C982 0.930 . S
H969 C984 0.960 1_655 S
H970 C984 0.960 . S
H971 C984 0.960 . S
C972 H964 0.929 . S
C972 C973 1.377 . S
C972 C974 1.384 . S
C973 C972 1.377 . S
C973 C979 1.390 . S
C974 H965 0.930 . S
C974 C972 1.384 . S
C974 C975 1.372 . S
C975 C974 1.372 . S
C975 C976 1.400 . S
C975 C980 1.490 . S
C976 H966 0.930 . S
C976 C975 1.400 . S
C976 C979 1.386 . S
H977 C993 0.930 . S
H978 C994 0.931 . S
C979 H967 0.929 . S
C979 C973 1.390 . S
C979 C976 1.386 . S
C980 C975 1.490 . S
C980 C982 1.395 . S
C980 C983 1.403 . S
H981 C987 0.930 . S
C982 H968 0.930 . S
C982 C980 1.395 . S
C982 C985 1.403 1_455 S
C983 C980 1.403 . S
C983 C984 1.524 . S
C983 C987 1.400 1_455 S
C984 H969 0.960 1_455 S
C984 H970 0.960 . S
C984 H971 0.960 . S
C984 C983 1.524 . S
C985 C982 1.403 1_655 S
C985 C986 1.392 . S
C985 C989 1.495 . S
C986 C985 1.392 . S
C986 C987 1.385 . S
C986 C988 1.478 . S
C987 H981 0.930 . S
C987 C983 1.400 1_655 S
C987 C986 1.385 . S
C988 C986 1.478 . S
C988 C990 1.381 . S
C988 C994 1.383 . S
C989 C985 1.495 . S
C989 H995 0.959 1_655 S
C989 H996 0.961 . S
C989 H997 0.960 . S
C990 C988 1.381 . S
C990 C991 1.394 . S
C990 H998 0.930 . S
C991 C990 1.394 . S
C991 C992 1.383 . S
C991 H999 0.929 . S
C992 C991 1.383 . S
C992 C993 1.377 . S
C993 H977 0.930 . S
C993 C992 1.377 . S
C993 C994 1.379 . S
C994 H978 0.931 . S
C994 C988 1.383 . S
C994 C993 1.379 . S
H995 C989 0.959 1_455 S
H996 C989 0.961 . S
H997 C989 0.960 . S
H998 C990 0.930 . S
H999 C991 0.929 . S
H1000 C1008 0.929 . S
H1001 C1010 0.930 . S
H1002 C1012 0.930 . S
H1003 C1015 0.929 . S
H1004 C1018 0.930 . S
H1005 C1020 0.960 . S
H1006 C1020 0.960 . S
H1007 C1020 0.960 . S
C1008 H1000 0.929 . S
C1008 C1009 1.377 . S
C1008 C1010 1.384 . S
C1009 C1008 1.377 . S
C1009 C1015 1.390 . S
C1010 H1001 0.930 . S
C1010 C1008 1.384 . S
C1010 C1011 1.372 . S
C1011 C1010 1.372 . S
C1011 C1012 1.400 . S
C1011 C1016 1.490 . S
C1012 H1002 0.930 . S
C1012 C1011 1.400 . S
C1012 C1015 1.386 . S
H1013 C1029 0.930 . S
H1014 C1030 0.931 . S
C1015 H1003 0.929 . S
C1015 C1009 1.390 . S
C1015 C1012 1.386 . S
C1016 C1011 1.490 . S
C1016 C1018 1.395 . S
C1016 C1019 1.403 . S
H1017 C1023 0.930 . S
C1018 H1004 0.930 . S
C1018 C1016 1.395 . S
C1018 C1021 1.403 . S
C1019 C1016 1.403 . S
C1019 C1020 1.524 . S
C1019 C1023 1.400 . S
C1020 H1005 0.960 . S
C1020 H1006 0.960 . S
C1020 H1007 0.960 . S
C1020 C1019 1.524 . S
C1021 C1018 1.403 . S
C1021 C1022 1.392 . S
C1021 C1025 1.495 . S
C1022 C1021 1.392 . S
C1022 C1023 1.385 . S
C1022 C1024 1.478 . S
C1023 H1017 0.930 . S
C1023 C1019 1.400 . S
C1023 C1022 1.385 . S
C1024 C1022 1.478 . S
C1024 C1026 1.381 . S
C1024 C1030 1.383 . S
C1025 C1021 1.495 . S
C1025 H1031 0.959 . S
C1025 H1032 0.961 . S
C1025 H1033 0.960 . S
C1026 C1024 1.381 . S
C1026 C1027 1.394 . S
C1026 H1034 0.930 . S
C1027 C1026 1.394 . S
C1027 C1028 1.383 . S
C1027 H1035 0.929 . S
C1028 C1027 1.383 . S
C1028 C1029 1.377 . S
C1029 H1013 0.930 . S
C1029 C1028 1.377 . S
C1029 C1030 1.379 . S
C1030 H1014 0.931 . S
C1030 C1024 1.383 . S
C1030 C1029 1.379 . S
H1031 C1025 0.959 . S
H1032 C1025 0.961 . S
H1033 C1025 0.960 . S
H1034 C1026 0.930 . S
H1035 C1027 0.929 . S
H1036 C1044 0.929 . S
H1037 C1046 0.930 . S
H1038 C1048 0.930 . S
H1039 C1051 0.929 . S
H1040 C1054 0.930 . S
H1041 C1056 0.963 . S
H1042 C1056 0.924 1_556 S
H1043 C1056 0.996 . S
C1044 H1036 0.929 . S
C1044 C1045 1.377 1_556 S
C1044 C1046 1.384 . S
C1045 C1044 1.377 1_554 S
C1045 C1051 1.390 . S
C1046 H1037 0.930 . S
C1046 C1044 1.384 . S
C1046 C1047 1.376 1_556 S
C1047 C1046 1.376 1_554 S
C1047 C1048 1.395 . S
C1047 C1052 1.489 1_554 S
C1048 H1038 0.930 . S
C1048 C1047 1.395 . S
C1048 C1051 1.386 . S
H1049 C1065 0.930 . S
H1050 C1066 0.931 . S
C1051 H1039 0.929 . S
C1051 C1045 1.390 . S
C1051 C1048 1.386 . S
C1052 C1047 1.489 1_556 S
C1052 C1054 1.397 . S
C1052 C1055 1.402 1_556 S
H1053 C1059 0.929 1_554 S
C1054 H1040 0.930 . S
C1054 C1052 1.397 . S
C1054 C1057 1.403 . S
C1055 C1052 1.402 1_554 S
C1055 C1056 1.523 . S
C1055 C1059 1.400 1_554 S
C1056 H1041 0.963 . S
C1056 H1042 0.924 1_554 S
C1056 H1043 0.996 . S
C1056 C1055 1.523 . S
C1057 C1054 1.403 . S
C1057 C1058 1.392 . S
C1057 C1061 1.495 . S
C1058 C1057 1.392 . S
C1058 C1059 1.385 . S
C1058 C1060 1.478 . S
C1059 H1053 0.929 1_556 S
C1059 C1055 1.400 1_556 S
C1059 C1058 1.385 . S
C1060 C1058 1.478 . S
C1060 C1062 1.381 . S
C1060 C1066 1.383 1_556 S
C1061 C1057 1.495 . S
C1061 H1067 0.959 . S
C1061 H1068 0.961 1_556 S
C1061 H1069 0.960 . S
C1062 C1060 1.381 . S
C1062 C1063 1.394 . S
C1062 H1070 0.930 . S
C1063 C1062 1.394 . S
C1063 C1064 1.383 . S
C1063 H1071 0.929 . S
C1064 C1063 1.383 . S
C1064 C1065 1.377 1_556 S
C1065 H1049 0.930 . S
C1065 C1064 1.377 1_554 S
C1065 C1066 1.379 . S
C1066 H1050 0.931 . S
C1066 C1060 1.383 1_554 S
C1066 C1065 1.379 . S
H1067 C1061 0.959 . S
H1068 C1061 0.961 1_554 S
H1069 C1061 0.960 . S
H1070 C1062 0.930 . S
H1071 C1063 0.929 . S
H1072 C1080 0.929 . S
H1073 C1082 0.930 . S
H1074 C1084 0.930 . S
H1075 C1087 0.929 . S
H1076 C1090 0.930 . S
H1077 C1092 0.960 . S
H1078 C1092 0.960 . S
H1079 C1092 0.960 . S
C1080 H1072 0.929 . S
C1080 C1081 1.377 . S
C1080 C1082 1.384 . S
C1081 C1080 1.377 . S
C1081 C1087 1.390 . S
C1082 H1073 0.930 . S
C1082 C1080 1.384 . S
C1082 C1083 1.372 . S
C1083 C1082 1.372 . S
C1083 C1084 1.400 . S
C1083 C1088 1.490 . S
C1084 H1074 0.930 . S
C1084 C1083 1.400 . S
C1084 C1087 1.386 . S
H1085 C1101 0.930 . S
H1086 C1102 0.931 . S
C1087 H1075 0.929 . S
C1087 C1081 1.390 . S
C1087 C1084 1.386 . S
C1088 C1083 1.490 . S
C1088 C1090 1.395 . S
C1088 C1091 1.403 . S
H1089 C1095 0.930 . S
C1090 H1076 0.930 . S
C1090 C1088 1.395 . S
C1090 C1093 1.403 . S
C1091 C1088 1.403 . S
C1091 C1092 1.524 . S
C1091 C1095 1.400 . S
C1092 H1077 0.960 . S
C1092 H1078 0.960 . S
C1092 H1079 0.960 . S
C1092 C1091 1.524 . S
C1093 C1090 1.403 . S
C1093 C1094 1.392 . S
C1093 C1097 1.495 . S
C1094 C1093 1.392 . S
C1094 C1095 1.385 . S
C1094 C1096 1.478 . S
C1095 H1089 0.930 . S
C1095 C1091 1.400 . S
C1095 C1094 1.385 . S
C1096 C1094 1.478 . S
C1096 C1098 1.381 . S
C1096 C1102 1.383 . S
C1097 C1093 1.495 . S
C1097 H1103 0.959 . S
C1097 H1104 0.961 . S
C1097 H1105 0.960 . S
C1098 C1096 1.381 . S
C1098 C1099 1.394 . S
C1098 H1106 0.930 . S
C1099 C1098 1.394 . S
C1099 C1100 1.383 . S
C1099 H1107 0.929 . S
C1100 C1099 1.383 . S
C1100 C1101 1.377 . S
C1101 H1085 0.930 . S
C1101 C1100 1.377 . S
C1101 C1102 1.379 . S
C1102 H1086 0.931 . S
C1102 C1096 1.383 . S
C1102 C1101 1.379 . S
H1103 C1097 0.959 . S
H1104 C1097 0.961 . S
H1105 C1097 0.960 . S
H1106 C1098 0.930 . S
H1107 C1099 0.929 . S
H1108 C1116 0.929 . S
H1109 C1118 0.930 . S
H1110 C1120 0.930 . S
H1111 C1123 0.929 . S
H1112 C1126 0.930 . S
H1113 C1128 0.960 . S
H1114 C1128 0.960 . S
H1115 C1128 0.960 . S
C1116 H1108 0.929 . S
C1116 C1117 1.377 . S
C1116 C1118 1.384 . S
C1117 C1116 1.377 . S
C1117 C1123 1.390 . S
C1118 H1109 0.930 . S
C1118 C1116 1.384 . S
C1118 C1119 1.372 . S
C1119 C1118 1.372 . S
C1119 C1120 1.400 . S
C1119 C1124 1.490 . S
C1120 H1110 0.930 . S
C1120 C1119 1.400 . S
C1120 C1123 1.386 . S
H1121 C1137 0.930 . S
H1122 C1138 0.931 . S
C1123 H1111 0.929 . S
C1123 C1117 1.390 . S
C1123 C1120 1.386 . S
C1124 C1119 1.490 . S
C1124 C1126 1.395 . S
C1124 C1127 1.403 . S
H1125 C1131 0.930 . S
C1126 H1112 0.930 . S
C1126 C1124 1.395 . S
C1126 C1129 1.403 . S
C1127 C1124 1.403 . S
C1127 C1128 1.524 . S
C1127 C1131 1.400 . S
C1128 H1113 0.960 . S
C1128 H1114 0.960 . S
C1128 H1115 0.960 . S
C1128 C1127 1.524 . S
C1129 C1126 1.403 . S
C1129 C1130 1.392 . S
C1129 C1133 1.495 . S
C1130 C1129 1.392 . S
C1130 C1131 1.385 . S
C1130 C1132 1.478 . S
C1131 H1125 0.930 . S
C1131 C1127 1.400 . S
C1131 C1130 1.385 . S
C1132 C1130 1.478 . S
C1132 C1134 1.381 . S
C1132 C1138 1.383 . S
C1133 C1129 1.495 . S
C1133 H1139 0.959 . S
C1133 H1140 0.961 . S
C1133 H1141 0.960 . S
C1134 C1132 1.381 . S
C1134 C1135 1.394 . S
C1134 H1142 0.930 . S
C1135 C1134 1.394 . S
C1135 C1136 1.383 . S
C1135 H1143 0.929 . S
C1136 C1135 1.383 . S
C1136 C1137 1.377 . S
C1137 H1121 0.930 . S
C1137 C1136 1.377 . S
C1137 C1138 1.379 . S
C1138 H1122 0.931 . S
C1138 C1132 1.383 . S
C1138 C1137 1.379 . S
H1139 C1133 0.959 . S
H1140 C1133 0.961 . S
H1141 C1133 0.960 . S
H1142 C1134 0.930 . S
H1143 C1135 0.929 . S
H1144 C1152 0.929 . S
H1145 C1154 0.930 . S
H1146 C1156 0.930 . S
H1147 C1159 0.929 . S
H1148 C1162 0.929 . S
H1149 C1164 0.960 . S
H1150 C1164 0.960 . S
H1151 C1164 0.960 1_554 S
C1152 H1144 0.929 . S
C1152 C1153 1.377 . S
C1152 C1154 1.384 . S
C1153 C1152 1.377 . S
C1153 C1159 1.390 1_556 S
C1154 H1145 0.930 . S
C1154 C1152 1.384 . S
C1154 C1155 1.372 . S
C1155 C1154 1.372 . S
C1155 C1156 1.400 1_556 S
C1155 C1160 1.490 . S
C1156 H1146 0.930 . S
C1156 C1155 1.400 1_554 S
C1156 C1159 1.386 . S
H1157 C1173 0.930 . S
H1158 C1174 0.931 . S
C1159 H1147 0.929 . S
C1159 C1153 1.390 1_554 S
C1159 C1156 1.386 . S
C1160 C1155 1.490 . S
C1160 C1162 1.393 1_556 S
C1160 C1163 1.403 1_565 S
H1161 C1167 0.930 . S
C1162 H1148 0.929 . S
C1162 C1160 1.393 1_554 S
C1162 C1165 1.404 . S
C1163 C1160 1.403 1_545 S
C1163 C1164 1.524 . S
C1163 C1167 1.400 . S
C1164 H1149 0.960 . S
C1164 H1150 0.960 . S
C1164 H1151 0.960 1_556 S
C1164 C1163 1.524 . S
C1165 C1162 1.404 . S
C1165 C1166 1.393 1_565 S
C1165 C1169 1.495 . S
C1166 C1165 1.393 1_545 S
C1166 C1167 1.384 1_554 S
C1166 C1168 1.478 . S
C1167 H1161 0.930 . S
C1167 C1163 1.400 . S
C1167 C1166 1.384 1_556 S
C1168 C1166 1.478 . S
C1168 C1170 1.381 1_554 S
C1168 C1174 1.383 . S
C1169 C1165 1.495 . S
C1169 H1175 0.959 . S
C1169 H1176 0.961 . S
C1169 H1177 0.960 1_554 S
C1170 C1168 1.381 1_556 S
C1170 C1171 1.394 . S
C1170 H1178 0.930 . S
C1171 C1170 1.394 . S
C1171 C1172 1.383 1_556 S
C1171 H1179 0.929 . S
C1172 C1171 1.383 1_554 S
C1172 C1173 1.377 . S
C1173 H1157 0.930 . S
C1173 C1172 1.377 . S
C1173 C1174 1.379 . S
C1174 H1158 0.931 . S
C1174 C1168 1.383 . S
C1174 C1173 1.379 . S
H1175 C1169 0.959 . S
H1176 C1169 0.961 . S
H1177 C1169 0.960 1_556 S
H1178 C1170 0.930 . S
H1179 C1171 0.929 . S
H1180 C1188 0.929 . S
H1181 C1190 0.930 . S
H1182 C1192 0.930 . S
H1183 C1195 0.929 . S
H1184 C1198 0.930 . S
H1185 C1200 0.960 1_655 S
H1186 C1200 0.960 . S
H1187 C1200 0.960 . S
C1188 H1180 0.929 . S
C1188 C1189 1.377 . S
C1188 C1190 1.384 . S
C1189 C1188 1.377 . S
C1189 C1195 1.390 . S
C1190 H1181 0.930 . S
C1190 C1188 1.384 . S
C1190 C1191 1.372 . S
C1191 C1190 1.372 . S
C1191 C1192 1.400 . S
C1191 C1196 1.490 . S
C1192 H1182 0.930 . S
C1192 C1191 1.400 . S
C1192 C1195 1.386 . S
H1193 C1209 0.930 . S
H1194 C1210 0.931 . S
C1195 H1183 0.929 . S
C1195 C1189 1.390 . S
C1195 C1192 1.386 . S
C1196 C1191 1.490 . S
C1196 C1198 1.395 1_565 S
C1196 C1199 1.403 . S
H1197 C1203 0.930 . S
C1198 H1184 0.930 . S
C1198 C1196 1.395 1_545 S
C1198 C1201 1.403 1_455 S
C1199 C1196 1.403 . S
C1199 C1200 1.524 . S
C1199 C1203 1.400 1_455 S
C1200 H1185 0.960 1_455 S
C1200 H1186 0.960 . S
C1200 H1187 0.960 . S
C1200 C1199 1.524 . S
C1201 C1198 1.403 1_655 S
C1201 C1202 1.392 . S
C1201 C1205 1.495 . S
C1202 C1201 1.392 . S
C1202 C1203 1.385 1_545 S
C1202 C1204 1.478 . S
C1203 H1197 0.930 . S
C1203 C1199 1.400 1_655 S
C1203 C1202 1.385 1_565 S
C1204 C1202 1.478 . S
C1204 C1206 1.381 . S
C1204 C1210 1.383 . S
C1205 C1201 1.495 . S
C1205 H1211 0.959 1_655 S
C1205 H1212 0.961 . S
C1205 H1213 0.960 . S
C1206 C1204 1.381 . S
C1206 C1207 1.394 . S
C1206 H1214 0.930 . S
C1207 C1206 1.394 . S
C1207 C1208 1.383 . S
C1207 H1215 0.929 . S
C1208 C1207 1.383 . S
C1208 C1209 1.377 . S
C1209 H1193 0.930 . S
C1209 C1208 1.377 . S
C1209 C1210 1.379 . S
C1210 H1194 0.931 . S
C1210 C1204 1.383 . S
C1210 C1209 1.379 . S
H1211 C1205 0.959 1_455 S
H1212 C1205 0.961 . S
H1213 C1205 0.960 . S
H1214 C1206 0.930 . S
H1215 C1207 0.929 . S
H1216 C1224 0.929 . S
H1217 C1226 0.930 . S
H1218 C1228 0.930 . S
H1219 C1231 0.929 . S
H1220 C1234 0.930 . S
H1221 C1236 0.960 . S
H1222 C1236 0.960 . S
H1223 C1236 0.960 . S
C1224 H1216 0.929 . S
C1224 C1225 1.377 . S
C1224 C1226 1.384 . S
C1225 C1224 1.377 . S
C1225 C1231 1.390 . S
C1226 H1217 0.930 . S
C1226 C1224 1.384 . S
C1226 C1227 1.372 . S
C1227 C1226 1.372 . S
C1227 C1228 1.400 . S
C1227 C1232 1.490 . S
C1228 H1218 0.930 . S
C1228 C1227 1.400 . S
C1228 C1231 1.386 . S
H1229 C1245 0.930 . S
H1230 C1246 0.931 . S
C1231 H1219 0.929 . S
C1231 C1225 1.390 . S
C1231 C1228 1.386 . S
C1232 C1227 1.490 . S
C1232 C1234 1.395 . S
C1232 C1235 1.403 . S
H1233 C1239 0.930 . S
C1234 H1220 0.930 . S
C1234 C1232 1.395 . S
C1234 C1237 1.403 . S
C1235 C1232 1.403 . S
C1235 C1236 1.524 . S
C1235 C1239 1.400 . S
C1236 H1221 0.960 . S
C1236 H1222 0.960 . S
C1236 H1223 0.960 . S
C1236 C1235 1.524 . S
C1237 C1234 1.403 . S
C1237 C1238 1.392 . S
C1237 C1241 1.495 . S
C1238 C1237 1.392 . S
C1238 C1239 1.385 . S
C1238 C1240 1.478 . S
C1239 H1233 0.930 . S
C1239 C1235 1.400 . S
C1239 C1238 1.385 . S
C1240 C1238 1.478 . S
C1240 C1242 1.381 . S
C1240 C1246 1.383 . S
C1241 C1237 1.495 . S
C1241 H1247 0.959 . S
C1241 H1248 0.961 . S
C1241 H1249 0.960 . S
C1242 C1240 1.381 . S
C1242 C1243 1.394 . S
C1242 H1250 0.930 . S
C1243 C1242 1.394 . S
C1243 C1244 1.383 . S
C1243 H1251 0.929 . S
C1244 C1243 1.383 . S
C1244 C1245 1.377 . S
C1245 H1229 0.930 . S
C1245 C1244 1.377 . S
C1245 C1246 1.379 . S
C1246 H1230 0.931 . S
C1246 C1240 1.383 . S
C1246 C1245 1.379 . S
H1247 C1241 0.959 . S
H1248 C1241 0.961 . S
H1249 C1241 0.960 . S
H1250 C1242 0.930 . S
H1251 C1243 0.929 . S
H1252 C1260 0.929 . S
H1253 C1262 0.930 . S
H1254 C1264 0.930 . S
H1255 C1267 0.929 . S
H1256 C1270 0.930 . S
H1257 C1272 0.960 . S
H1258 C1272 0.960 . S
H1259 C1272 0.960 . S
C1260 H1252 0.929 . S
C1260 C1261 1.377 . S
C1260 C1262 1.384 . S
C1261 C1260 1.377 . S
C1261 C1267 1.390 . S
C1262 H1253 0.930 . S
C1262 C1260 1.384 . S
C1262 C1263 1.372 . S
C1263 C1262 1.372 . S
C1263 C1264 1.400 . S
C1263 C1268 1.490 . S
C1264 H1254 0.930 . S
C1264 C1263 1.400 . S
C1264 C1267 1.386 . S
H1265 C1281 0.930 . S
H1266 C1282 0.931 . S
C1267 H1255 0.929 . S
C1267 C1261 1.390 . S
C1267 C1264 1.386 . S
C1268 C1263 1.490 . S
C1268 C1270 1.395 . S
C1268 C1271 1.403 . S
H1269 C1275 0.930 . S
C1270 H1256 0.930 . S
C1270 C1268 1.395 . S
C1270 C1273 1.403 . S
C1271 C1268 1.403 . S
C1271 C1272 1.524 . S
C1271 C1275 1.400 . S
C1272 H1257 0.960 . S
C1272 H1258 0.960 . S
C1272 H1259 0.960 . S
C1272 C1271 1.524 . S
C1273 C1270 1.403 . S
C1273 C1274 1.392 . S
C1273 C1277 1.495 . S
C1274 C1273 1.392 . S
C1274 C1275 1.385 . S
C1274 C1276 1.478 . S
C1275 H1269 0.930 . S
C1275 C1271 1.400 . S
C1275 C1274 1.385 . S
C1276 C1274 1.478 . S
C1276 C1278 1.381 . S
C1276 C1282 1.383 . S
C1277 C1273 1.495 . S
C1277 H1283 0.959 . S
C1277 H1284 0.961 . S
C1277 H1285 0.960 . S
C1278 C1276 1.381 . S
C1278 C1279 1.394 . S
C1278 H1286 0.930 . S
C1279 C1278 1.394 . S
C1279 C1280 1.383 . S
C1279 H1287 0.929 . S
C1280 C1279 1.383 . S
C1280 C1281 1.377 . S
C1281 H1265 0.930 . S
C1281 C1280 1.377 . S
C1281 C1282 1.379 . S
C1282 H1266 0.931 . S
C1282 C1276 1.383 . S
C1282 C1281 1.379 . S
H1283 C1277 0.959 . S
H1284 C1277 0.961 . S
H1285 C1277 0.960 . S
H1286 C1278 0.930 . S
H1287 C1279 0.929 . S
H1288 C1296 0.929 . S
H1289 C1298 0.930 . S
H1290 C1300 0.930 . S
H1291 C1303 0.929 . S
H1292 C1306 0.930 . S
H1293 C1308 0.960 . S
H1294 C1308 0.960 . S
H1295 C1308 0.960 . S
C1296 H1288 0.929 . S
C1296 C1297 1.377 . S
C1296 C1298 1.384 . S
C1297 C1296 1.377 . S
C1297 C1303 1.390 . S
C1298 H1289 0.930 . S
C1298 C1296 1.384 . S
C1298 C1299 1.372 . S
C1299 C1298 1.372 . S
C1299 C1300 1.400 . S
C1299 C1304 1.490 . S
C1300 H1290 0.930 . S
C1300 C1299 1.400 . S
C1300 C1303 1.386 . S
H1301 C1317 0.930 . S
H1302 C1318 0.931 . S
C1303 H1291 0.929 . S
C1303 C1297 1.390 . S
C1303 C1300 1.386 . S
C1304 C1299 1.490 . S
C1304 C1306 1.395 . S
C1304 C1307 1.403 . S
H1305 C1311 0.930 . S
C1306 H1292 0.930 . S
C1306 C1304 1.395 . S
C1306 C1309 1.403 . S
C1307 C1304 1.403 . S
C1307 C1308 1.524 . S
C1307 C1311 1.400 . S
C1308 H1293 0.960 . S
C1308 H1294 0.960 . S
C1308 H1295 0.960 . S
C1308 C1307 1.524 . S
C1309 C1306 1.403 . S
C1309 C1310 1.392 . S
C1309 C1313 1.495 . S
C1310 C1309 1.392 . S
C1310 C1311 1.385 . S
C1310 C1312 1.478 . S
C1311 H1305 0.930 . S
C1311 C1307 1.400 . S
C1311 C1310 1.385 . S
C1312 C1310 1.478 . S
C1312 C1314 1.381 . S
C1312 C1318 1.383 . S
C1313 C1309 1.495 . S
C1313 H1319 0.959 . S
C1313 H1320 0.961 . S
C1313 H1321 0.960 . S
C1314 C1312 1.381 . S
C1314 C1315 1.394 . S
C1314 H1322 0.930 . S
C1315 C1314 1.394 . S
C1315 C1316 1.383 . S
C1315 H1323 0.929 . S
C1316 C1315 1.383 . S
C1316 C1317 1.377 . S
C1317 H1301 0.930 . S
C1317 C1316 1.377 . S
C1317 C1318 1.379 . S
C1318 H1302 0.931 . S
C1318 C1312 1.383 . S
C1318 C1317 1.379 . S
H1319 C1313 0.959 . S
H1320 C1313 0.961 . S
H1321 C1313 0.960 . S
H1322 C1314 0.930 . S
H1323 C1315 0.929 . S
H1324 C1332 0.929 . S
H1325 C1334 0.930 . S
H1326 C1336 0.930 . S
H1327 C1339 0.929 . S
H1328 C1342 0.930 . S
H1329 C1344 0.960 . S
H1330 C1344 0.960 . S
H1331 C1344 0.960 . S
C1332 H1324 0.929 . S
C1332 C1333 1.377 . S
C1332 C1334 1.384 . S
C1333 C1332 1.377 . S
C1333 C1339 1.390 . S
C1334 H1325 0.930 . S
C1334 C1332 1.384 . S
C1334 C1335 1.372 . S
C1335 C1334 1.372 . S
C1335 C1336 1.400 . S
C1335 C1340 1.490 . S
C1336 H1326 0.930 . S
C1336 C1335 1.400 . S
C1336 C1339 1.386 . S
H1337 C1353 0.930 . S
H1338 C1354 0.931 . S
C1339 H1327 0.929 . S
C1339 C1333 1.390 . S
C1339 C1336 1.386 . S
C1340 C1335 1.490 . S
C1340 C1342 1.395 . S
C1340 C1343 1.403 . S
H1341 C1347 0.930 . S
C1342 H1328 0.930 . S
C1342 C1340 1.395 . S
C1342 C1345 1.403 . S
C1343 C1340 1.403 . S
C1343 C1344 1.524 . S
C1343 C1347 1.400 . S
C1344 H1329 0.960 . S
C1344 H1330 0.960 . S
C1344 H1331 0.960 . S
C1344 C1343 1.524 . S
C1345 C1342 1.403 . S
C1345 C1346 1.392 . S
C1345 C1349 1.495 . S
C1346 C1345 1.392 . S
C1346 C1347 1.385 . S
C1346 C1348 1.478 . S
C1347 H1341 0.930 . S
C1347 C1343 1.400 . S
C1347 C1346 1.385 . S
C1348 C1346 1.478 . S
C1348 C1350 1.381 . S
C1348 C1354 1.383 . S
C1349 C1345 1.495 . S
C1349 H1355 0.959 . S
C1349 H1356 0.961 . S
C1349 H1357 0.960 . S
C1350 C1348 1.381 . S
C1350 C1351 1.394 . S
C1350 H1358 0.930 . S
C1351 C1350 1.394 . S
C1351 C1352 1.383 . S
C1351 H1359 0.929 . S
C1352 C1351 1.383 . S
C1352 C1353 1.377 . S
C1353 H1337 0.930 . S
C1353 C1352 1.377 . S
C1353 C1354 1.379 . S
C1354 H1338 0.931 . S
C1354 C1348 1.383 . S
C1354 C1353 1.379 . S
H1355 C1349 0.959 . S
H1356 C1349 0.961 . S
H1357 C1349 0.960 . S
H1358 C1350 0.930 . S
H1359 C1351 0.929 . S
H1360 C1368 0.929 . S
H1361 C1370 0.930 . S
H1362 C1372 0.930 . S
H1363 C1375 0.929 . S
H1364 C1378 0.930 . S
H1365 C1380 0.960 . S
H1366 C1380 0.960 . S
H1367 C1380 0.960 . S
C1368 H1360 0.929 . S
C1368 C1369 1.377 . S
C1368 C1370 1.384 . S
C1369 C1368 1.377 . S
C1369 C1375 1.390 . S
C1370 H1361 0.930 . S
C1370 C1368 1.384 . S
C1370 C1371 1.372 . S
C1371 C1370 1.372 . S
C1371 C1372 1.400 . S
C1371 C1376 1.490 . S
C1372 H1362 0.930 . S
C1372 C1371 1.400 . S
C1372 C1375 1.386 . S
H1373 C1389 0.930 . S
H1374 C1390 0.931 . S
C1375 H1363 0.929 . S
C1375 C1369 1.390 . S
C1375 C1372 1.386 . S
C1376 C1371 1.490 . S
C1376 C1378 1.395 . S
C1376 C1379 1.403 . S
H1377 C1383 0.930 . S
C1378 H1364 0.930 . S
C1378 C1376 1.395 . S
C1378 C1381 1.403 . S
C1379 C1376 1.403 . S
C1379 C1380 1.524 . S
C1379 C1383 1.400 . S
C1380 H1365 0.960 . S
C1380 H1366 0.960 . S
C1380 H1367 0.960 . S
C1380 C1379 1.524 . S
C1381 C1378 1.403 . S
C1381 C1382 1.392 . S
C1381 C1385 1.495 . S
C1382 C1381 1.392 . S
C1382 C1383 1.385 . S
C1382 C1384 1.478 . S
C1383 H1377 0.930 . S
C1383 C1379 1.400 . S
C1383 C1382 1.385 . S
C1384 C1382 1.478 . S
C1384 C1386 1.381 . S
C1384 C1390 1.383 . S
C1385 C1381 1.495 . S
C1385 H1391 0.959 . S
C1385 H1392 0.961 . S
C1385 H1393 0.960 . S
C1386 C1384 1.381 . S
C1386 C1387 1.394 . S
C1386 H1394 0.930 . S
C1387 C1386 1.394 . S
C1387 C1388 1.383 . S
C1387 H1395 0.929 . S
C1388 C1387 1.383 . S
C1388 C1389 1.377 . S
C1389 H1373 0.930 . S
C1389 C1388 1.377 . S
C1389 C1390 1.379 . S
C1390 H1374 0.931 . S
C1390 C1384 1.383 . S
C1390 C1389 1.379 . S
H1391 C1385 0.959 . S
H1392 C1385 0.961 . S
H1393 C1385 0.960 . S
H1394 C1386 0.930 . S
H1395 C1387 0.929 . S
H1396 C1404 0.929 . S
H1397 C1406 0.930 . S
H1398 C1408 0.930 . S
H1399 C1411 0.929 . S
H1400 C1414 0.930 . S
H1401 C1416 0.960 . S
H1402 C1416 0.960 . S
H1403 C1416 0.960 . S
C1404 H1396 0.929 . S
C1404 C1405 1.377 . S
C1404 C1406 1.384 . S
C1405 C1404 1.377 . S
C1405 C1411 1.390 . S
C1406 H1397 0.930 . S
C1406 C1404 1.384 . S
C1406 C1407 1.372 . S
C1407 C1406 1.372 . S
C1407 C1408 1.400 . S
C1407 C1412 1.490 . S
C1408 H1398 0.930 . S
C1408 C1407 1.400 . S
C1408 C1411 1.386 . S
H1409 C1425 0.930 . S
H1410 C1426 0.931 . S
C1411 H1399 0.929 . S
C1411 C1405 1.390 . S
C1411 C1408 1.386 . S
C1412 C1407 1.490 . S
C1412 C1414 1.395 . S
C1412 C1415 1.403 . S
H1413 C1419 0.930 . S
C1414 H1400 0.930 . S
C1414 C1412 1.395 . S
C1414 C1417 1.403 . S
C1415 C1412 1.403 . S
C1415 C1416 1.524 . S
C1415 C1419 1.400 . S
C1416 H1401 0.960 . S
C1416 H1402 0.960 . S
C1416 H1403 0.960 . S
C1416 C1415 1.524 . S
C1417 C1414 1.403 . S
C1417 C1418 1.392 . S
C1417 C1421 1.495 . S
C1418 C1417 1.392 . S
C1418 C1419 1.385 . S
C1418 C1420 1.478 . S
C1419 H1413 0.930 . S
C1419 C1415 1.400 . S
C1419 C1418 1.385 . S
C1420 C1418 1.478 . S
C1420 C1422 1.381 . S
C1420 C1426 1.383 . S
C1421 C1417 1.495 . S
C1421 H1427 0.959 . S
C1421 H1428 0.961 . S
C1421 H1429 0.960 . S
C1422 C1420 1.381 . S
C1422 C1423 1.394 . S
C1422 H1430 0.930 . S
C1423 C1422 1.394 . S
C1423 C1424 1.383 . S
C1423 H1431 0.929 . S
C1424 C1423 1.383 . S
C1424 C1425 1.377 . S
C1425 H1409 0.930 . S
C1425 C1424 1.377 . S
C1425 C1426 1.379 . S
C1426 H1410 0.931 . S
C1426 C1420 1.383 . S
C1426 C1425 1.379 . S
H1427 C1421 0.959 . S
H1428 C1421 0.961 . S
H1429 C1421 0.960 . S
H1430 C1422 0.930 . S
H1431 C1423 0.929 . S
H1432 C1440 0.929 . S
H1433 C1442 0.930 . S
H1434 C1444 0.930 . S
H1435 C1447 0.929 . S
H1436 C1450 0.930 . S
H1437 C1452 0.960 . S
H1438 C1452 0.960 . S
H1439 C1452 0.960 . S
C1440 H1432 0.929 . S
C1440 C1441 1.377 . S
C1440 C1442 1.384 . S
C1441 C1440 1.377 . S
C1441 C1447 1.390 . S
C1442 H1433 0.930 . S
C1442 C1440 1.384 . S
C1442 C1443 1.372 . S
C1443 C1442 1.372 . S
C1443 C1444 1.400 . S
C1443 C1448 1.490 . S
C1444 H1434 0.930 . S
C1444 C1443 1.400 . S
C1444 C1447 1.386 . S
H1445 C1461 0.930 . S
H1446 C1462 0.931 . S
C1447 H1435 0.929 . S
C1447 C1441 1.390 . S
C1447 C1444 1.386 . S
C1448 C1443 1.490 . S
C1448 C1450 1.395 . S
C1448 C1451 1.403 . S
H1449 C1455 0.930 . S
C1450 H1436 0.930 . S
C1450 C1448 1.395 . S
C1450 C1453 1.403 . S
C1451 C1448 1.403 . S
C1451 C1452 1.524 . S
C1451 C1455 1.400 . S
C1452 H1437 0.960 . S
C1452 H1438 0.960 . S
C1452 H1439 0.960 . S
C1452 C1451 1.524 . S
C1453 C1450 1.403 . S
C1453 C1454 1.392 . S
C1453 C1457 1.495 . S
C1454 C1453 1.392 . S
C1454 C1455 1.385 . S
C1454 C1456 1.478 . S
C1455 H1449 0.930 . S
C1455 C1451 1.400 . S
C1455 C1454 1.385 . S
C1456 C1454 1.478 . S
C1456 C1458 1.381 . S
C1456 C1462 1.383 . S
C1457 C1453 1.495 . S
C1457 H1463 0.959 . S
C1457 H1464 0.961 . S
C1457 H1465 0.960 . S
C1458 C1456 1.381 . S
C1458 C1459 1.394 . S
C1458 H1466 0.930 . S
C1459 C1458 1.394 . S
C1459 C1460 1.383 . S
C1459 H1467 0.929 . S
C1460 C1459 1.383 . S
C1460 C1461 1.377 . S
C1461 H1445 0.930 . S
C1461 C1460 1.377 . S
C1461 C1462 1.379 . S
C1462 H1446 0.931 . S
C1462 C1456 1.383 . S
C1462 C1461 1.379 . S
H1463 C1457 0.959 . S
H1464 C1457 0.961 . S
H1465 C1457 0.960 . S
H1466 C1458 0.930 . S
H1467 C1459 0.929 . S
H1468 C1476 0.929 . S
H1469 C1478 0.930 . S
H1470 C1480 0.930 . S
H1471 C1483 0.929 . S
H1472 C1486 0.930 . S
H1473 C1488 0.960 . S
H1474 C1488 0.960 . S
H1475 C1488 0.960 . S
C1476 H1468 0.929 . S
C1476 C1477 1.377 . S
C1476 C1478 1.384 . S
C1477 C1476 1.377 . S
C1477 C1483 1.390 . S
C1478 H1469 0.930 . S
C1478 C1476 1.384 . S
C1478 C1479 1.372 . S
C1479 C1478 1.372 . S
C1479 C1480 1.400 . S
C1479 C1484 1.490 . S
C1480 H1470 0.930 . S
C1480 C1479 1.400 . S
C1480 C1483 1.386 . S
H1481 C1497 0.930 . S
H1482 C1498 0.931 . S
C1483 H1471 0.929 . S
C1483 C1477 1.390 . S
C1483 C1480 1.386 . S
C1484 C1479 1.490 . S
C1484 C1486 1.395 . S
C1484 C1487 1.403 . S
H1485 C1491 0.930 . S
C1486 H1472 0.930 . S
C1486 C1484 1.395 . S
C1486 C1489 1.403 . S
C1487 C1484 1.403 . S
C1487 C1488 1.524 . S
C1487 C1491 1.400 . S
C1488 H1473 0.960 . S
C1488 H1474 0.960 . S
C1488 H1475 0.960 . S
C1488 C1487 1.524 . S
C1489 C1486 1.403 . S
C1489 C1490 1.392 . S
C1489 C1493 1.495 . S
C1490 C1489 1.392 . S
C1490 C1491 1.385 . S
C1490 C1492 1.478 . S
C1491 H1485 0.930 . S
C1491 C1487 1.400 . S
C1491 C1490 1.385 . S
C1492 C1490 1.478 . S
C1492 C1494 1.381 . S
C1492 C1498 1.383 . S
C1493 C1489 1.495 . S
C1493 H1499 0.959 . S
C1493 H1500 0.961 . S
C1493 H1501 0.960 . S
C1494 C1492 1.381 . S
C1494 C1495 1.394 . S
C1494 H1502 0.930 . S
C1495 C1494 1.394 . S
C1495 C1496 1.383 . S
C1495 H1503 0.929 . S
C1496 C1495 1.383 . S
C1496 C1497 1.377 . S
C1497 H1481 0.930 . S
C1497 C1496 1.377 . S
C1497 C1498 1.379 . S
C1498 H1482 0.931 . S
C1498 C1492 1.383 . S
C1498 C1497 1.379 . S
H1499 C1493 0.959 . S
H1500 C1493 0.961 . S
H1501 C1493 0.960 . S
H1502 C1494 0.930 . S
H1503 C1495 0.929 . S
H1504 C1512 0.929 1_545 S
H1505 C1514 0.930 . S
H1506 C1516 0.930 . S
H1507 C1519 0.929 . S
H1508 C1522 0.930 . S
H1509 C1524 0.960 . S
H1510 C1524 0.960 . S
H1511 C1524 0.960 . S
C1512 H1504 0.929 1_565 S
C1512 C1513 1.377 . S
C1512 C1514 1.384 . S
C1513 C1512 1.377 . S
C1513 C1519 1.390 . S
C1514 H1505 0.930 . S
C1514 C1512 1.384 . S
C1514 C1515 1.372 . S
C1515 C1514 1.372 . S
C1515 C1516 1.400 . S
C1515 C1520 1.490 . S
C1516 H1506 0.930 . S
C1516 C1515 1.400 . S
C1516 C1519 1.386 . S
H1517 C1533 0.930 . S
H1518 C1534 0.931 . S
C1519 H1507 0.929 . S
C1519 C1513 1.390 . S
C1519 C1516 1.386 . S
C1520 C1515 1.490 . S
C1520 C1522 1.395 . S
C1520 C1523 1.403 . S
H1521 C1527 0.930 . S
C1522 H1508 0.930 . S
C1522 C1520 1.395 . S
C1522 C1525 1.403 . S
C1523 C1520 1.403 . S
C1523 C1524 1.524 1_565 S
C1523 C1527 1.400 . S
C1524 H1509 0.960 . S
C1524 H1510 0.960 . S
C1524 H1511 0.960 . S
C1524 C1523 1.524 1_545 S
C1525 C1522 1.403 . S
C1525 C1526 1.392 . S
C1525 C1529 1.495 . S
C1526 C1525 1.392 . S
C1526 C1527 1.385 . S
C1526 C1528 1.478 . S
C1527 H1521 0.930 . S
C1527 C1523 1.400 . S
C1527 C1526 1.385 . S
C1528 C1526 1.478 . S
C1528 C1530 1.381 . S
C1528 C1534 1.383 . S
C1529 C1525 1.495 . S
C1529 H1535 0.959 . S
C1529 H1536 0.961 . S
C1529 H1537 0.960 . S
C1530 C1528 1.381 . S
C1530 C1531 1.394 . S
C1530 H1538 0.930 . S
C1531 C1530 1.394 . S
C1531 C1532 1.383 . S
C1531 H1539 0.929 . S
C1532 C1531 1.383 . S
C1532 C1533 1.377 . S
C1533 H1517 0.930 . S
C1533 C1532 1.377 . S
C1533 C1534 1.379 . S
C1534 H1518 0.931 . S
C1534 C1528 1.383 . S
C1534 C1533 1.379 . S
H1535 C1529 0.959 . S
H1536 C1529 0.961 . S
H1537 C1529 0.960 . S
H1538 C1530 0.930 . S
H1539 C1531 0.929 . S
H1540 C1548 0.929 . S
H1541 C1550 0.930 . S
H1542 C1552 0.930 . S
H1543 C1555 0.929 . S
H1544 C1558 0.930 . S
H1545 C1560 0.960 . S
H1546 C1560 0.960 . S
H1547 C1560 0.960 . S
C1548 H1540 0.929 . S
C1548 C1549 1.377 . S
C1548 C1550 1.384 . S
C1549 C1548 1.377 . S
C1549 C1555 1.390 . S
C1550 H1541 0.930 . S
C1550 C1548 1.384 . S
C1550 C1551 1.372 . S
C1551 C1550 1.372 . S
C1551 C1552 1.400 . S
C1551 C1556 1.490 . S
C1552 H1542 0.930 . S
C1552 C1551 1.400 . S
C1552 C1555 1.386 . S
H1553 C1569 0.930 . S
H1554 C1570 0.931 . S
C1555 H1543 0.929 . S
C1555 C1549 1.390 . S
C1555 C1552 1.386 . S
C1556 C1551 1.490 . S
C1556 C1558 1.395 . S
C1556 C1559 1.403 . S
H1557 C1563 0.930 . S
C1558 H1544 0.930 . S
C1558 C1556 1.395 . S
C1558 C1561 1.403 . S
C1559 C1556 1.403 . S
C1559 C1560 1.524 . S
C1559 C1563 1.400 . S
C1560 H1545 0.960 . S
C1560 H1546 0.960 . S
C1560 H1547 0.960 . S
C1560 C1559 1.524 . S
C1561 C1558 1.403 . S
C1561 C1562 1.392 . S
C1561 C1565 1.495 . S
C1562 C1561 1.392 . S
C1562 C1563 1.385 . S
C1562 C1564 1.478 . S
C1563 H1557 0.930 . S
C1563 C1559 1.400 . S
C1563 C1562 1.385 . S
C1564 C1562 1.478 . S
C1564 C1566 1.381 . S
C1564 C1570 1.383 . S
C1565 C1561 1.495 . S
C1565 H1571 0.959 . S
C1565 H1572 0.961 . S
C1565 H1573 0.960 . S
C1566 C1564 1.381 . S
C1566 C1567 1.394 . S
C1566 H1574 0.930 . S
C1567 C1566 1.394 . S
C1567 C1568 1.383 . S
C1567 H1575 0.929 1_565 S
C1568 C1567 1.383 . S
C1568 C1569 1.377 . S
C1569 H1553 0.930 . S
C1569 C1568 1.377 . S
C1569 C1570 1.379 . S
C1570 H1554 0.931 . S
C1570 C1564 1.383 . S
C1570 C1569 1.379 . S
H1571 C1565 0.959 . S
H1572 C1565 0.961 . S
H1573 C1565 0.960 . S
H1574 C1566 0.930 . S
H1575 C1567 0.929 1_545 S
H1576 C1584 0.929 . S
H1577 C1586 0.930 . S
H1578 C1588 0.930 . S
H1579 C1591 0.929 . S
H1580 C1594 0.930 . S
H1581 C1596 0.960 . S
H1582 C1596 0.964 . S
H1583 C1596 0.960 . S
C1584 H1576 0.929 . S
C1584 C1585 1.377 . S
C1584 C1586 1.384 . S
C1585 C1584 1.377 . S
C1585 C1591 1.390 . S
C1586 H1577 0.930 . S
C1586 C1584 1.384 . S
C1586 C1587 1.372 . S
C1587 C1586 1.372 . S
C1587 C1588 1.400 . S
C1587 C1592 1.490 . S
C1588 H1578 0.930 . S
C1588 C1587 1.400 . S
C1588 C1591 1.386 . S
H1589 C1605 0.930 . S
H1590 C1606 0.931 . S
C1591 H1579 0.929 . S
C1591 C1585 1.390 . S
C1591 C1588 1.386 . S
C1592 C1587 1.490 . S
C1592 C1594 1.395 . S
C1592 C1595 1.403 . S
H1593 C1599 0.930 . S
C1594 H1580 0.930 . S
C1594 C1592 1.395 . S
C1594 C1597 1.403 . S
C1595 C1592 1.403 . S
C1595 C1596 1.524 . S
C1595 C1599 1.400 . S
C1596 H1581 0.960 . S
C1596 H1582 0.964 . S
C1596 H1583 0.960 . S
C1596 C1595 1.524 . S
C1597 C1594 1.403 . S
C1597 C1598 1.392 . S
C1597 C1601 1.495 . S
C1598 C1597 1.392 . S
C1598 C1599 1.385 . S
C1598 C1600 1.478 . S
C1599 H1593 0.930 . S
C1599 C1595 1.400 . S
C1599 C1598 1.385 . S
C1600 C1598 1.478 . S
C1600 C1602 1.381 . S
C1600 C1606 1.383 . S
C1601 C1597 1.495 . S
C1601 H1607 0.959 . S
C1601 H1608 0.961 . S
C1601 H1609 0.960 . S
C1602 C1600 1.381 . S
C1602 C1603 1.394 1_545 S
C1602 H1610 0.930 1_545 S
C1603 C1602 1.394 1_565 S
C1603 C1604 1.383 1_565 S
C1603 H1611 0.929 . S
C1604 C1603 1.383 1_545 S
C1604 C1605 1.377 . S
C1605 H1589 0.930 . S
C1605 C1604 1.377 . S
C1605 C1606 1.379 . S
C1606 H1590 0.931 . S
C1606 C1600 1.383 . S
C1606 C1605 1.379 . S
H1607 C1601 0.959 . S
H1608 C1601 0.961 . S
H1609 C1601 0.960 . S
H1610 C1602 0.930 1_565 S
H1611 C1603 0.929 . S
H1612 C1620 0.929 . S
H1613 C1622 0.930 . S
H1614 C1624 0.930 . S
H1615 C1627 0.929 . S
H1616 C1630 0.930 . S
H1617 C1632 0.960 . S
H1618 C1632 0.960 . S
H1619 C1632 0.960 . S
C1620 H1612 0.929 . S
C1620 C1621 1.377 . S
C1620 C1622 1.384 . S
C1621 C1620 1.377 . S
C1621 C1627 1.390 . S
C1622 H1613 0.930 . S
C1622 C1620 1.384 . S
C1622 C1623 1.372 . S
C1623 C1622 1.372 . S
C1623 C1624 1.400 . S
C1623 C1628 1.490 . S
C1624 H1614 0.930 . S
C1624 C1623 1.400 . S
C1624 C1627 1.386 . S
H1625 C1641 0.930 . S
H1626 C1642 0.931 . S
C1627 H1615 0.929 . S
C1627 C1621 1.390 . S
C1627 C1624 1.386 . S
C1628 C1623 1.490 . S
C1628 C1630 1.395 . S
C1628 C1631 1.403 . S
H1629 C1635 0.930 . S
C1630 H1616 0.930 . S
C1630 C1628 1.395 . S
C1630 C1633 1.403 . S
C1631 C1628 1.403 . S
C1631 C1632 1.524 . S
C1631 C1635 1.400 . S
C1632 H1617 0.960 . S
C1632 H1618 0.960 . S
C1632 H1619 0.960 . S
C1632 C1631 1.524 . S
C1633 C1630 1.403 . S
C1633 C1634 1.392 . S
C1633 C1637 1.495 . S
C1634 C1633 1.392 . S
C1634 C1635 1.385 . S
C1634 C1636 1.478 . S
C1635 H1629 0.930 . S
C1635 C1631 1.400 . S
C1635 C1634 1.385 . S
C1636 C1634 1.478 . S
C1636 C1638 1.381 . S
C1636 C1642 1.383 . S
C1637 C1633 1.495 . S
C1637 H1643 0.959 . S
C1637 H1644 0.961 . S
C1637 H1645 0.960 . S
C1638 C1636 1.381 . S
C1638 C1639 1.394 . S
C1638 H1646 0.930 1_545 S
C1639 C1638 1.394 . S
C1639 C1640 1.383 . S
C1639 H1647 0.929 1_545 S
C1640 C1639 1.383 . S
C1640 C1641 1.377 . S
C1641 H1625 0.930 . S
C1641 C1640 1.377 . S
C1641 C1642 1.379 . S
C1642 H1626 0.931 . S
C1642 C1636 1.383 . S
C1642 C1641 1.379 . S
H1643 C1637 0.959 . S
H1644 C1637 0.961 . S
H1645 C1637 0.960 . S
H1646 C1638 0.930 1_565 S
H1647 C1639 0.929 1_565 S
H1648 C1656 0.929 . S
H1649 C1658 0.930 . S
H1650 C1660 0.930 . S
H1651 C1663 0.929 . S
H1652 C1666 0.930 . S
H1653 C1668 0.960 . S
H1654 C1668 0.960 . S
H1655 C1668 0.960 1_545 S
C1656 H1648 0.929 . S
C1656 C1657 1.377 . S
C1656 C1658 1.384 . S
C1657 C1656 1.377 . S
C1657 C1663 1.390 . S
C1658 H1649 0.930 . S
C1658 C1656 1.384 . S
C1658 C1659 1.372 . S
C1659 C1658 1.372 . S
C1659 C1660 1.400 . S
C1659 C1664 1.490 . S
C1660 H1650 0.930 . S
C1660 C1659 1.400 . S
C1660 C1663 1.386 . S
H1661 C1677 0.930 . S
H1662 C1678 0.931 . S
C1663 H1651 0.929 . S
C1663 C1657 1.390 . S
C1663 C1660 1.386 . S
C1664 C1659 1.490 . S
C1664 C1666 1.395 . S
C1664 C1667 1.403 . S
H1665 C1671 0.930 1_565 S
C1666 H1652 0.930 . S
C1666 C1664 1.395 . S
C1666 C1669 1.403 . S
C1667 C1664 1.403 . S
C1667 C1668 1.524 1_545 S
C1667 C1671 1.400 . S
C1668 H1653 0.960 . S
C1668 H1654 0.960 . S
C1668 H1655 0.960 1_565 S
C1668 C1667 1.524 1_565 S
C1669 C1666 1.403 . S
C1669 C1670 1.392 . S
C1669 C1673 1.495 . S
C1670 C1669 1.392 . S
C1670 C1671 1.385 . S
C1670 C1672 1.478 . S
C1671 H1665 0.930 1_545 S
C1671 C1667 1.400 . S
C1671 C1670 1.385 . S
C1672 C1670 1.478 . S
C1672 C1674 1.381 . S
C1672 C1678 1.383 . S
C1673 C1669 1.495 . S
C1673 H1679 0.959 . S
C1673 H1680 0.961 . S
C1673 H1681 0.960 . S
C1674 C1672 1.381 . S
C1674 C1675 1.394 . S
C1674 H1682 0.930 . S
C1675 C1674 1.394 . S
C1675 C1676 1.383 . S
C1675 H1683 0.929 1_545 S
C1676 C1675 1.383 . S
C1676 C1677 1.377 . S
C1677 H1661 0.930 . S
C1677 C1676 1.377 . S
C1677 C1678 1.379 . S
C1678 H1662 0.931 . S
C1678 C1672 1.383 . S
C1678 C1677 1.379 . S
H1679 C1673 0.959 . S
H1680 C1673 0.961 . S
H1681 C1673 0.960 . S
H1682 C1674 0.930 . S
H1683 C1675 0.929 1_565 S
H1684 C1692 0.929 . S
H1685 C1694 0.930 . S
H1686 C1696 0.930 . S
H1687 C1699 0.929 . S
H1688 C1702 0.930 . S
H1689 C1704 0.960 . S
H1690 C1704 0.960 . S
H1691 C1704 0.960 . S
C1692 H1684 0.929 . S
C1692 C1693 1.377 . S
C1692 C1694 1.384 . S
C1693 C1692 1.377 . S
C1693 C1699 1.390 . S
C1694 H1685 0.930 . S
C1694 C1692 1.384 . S
C1694 C1695 1.372 . S
C1695 C1694 1.372 . S
C1695 C1696 1.400 . S
C1695 C1700 1.490 . S
C1696 H1686 0.930 . S
C1696 C1695 1.400 . S
C1696 C1699 1.386 . S
H1697 C1713 0.930 . S
H1698 C1714 0.931 . S
C1699 H1687 0.929 . S
C1699 C1693 1.390 . S
C1699 C1696 1.386 . S
C1700 C1695 1.490 . S
C1700 C1702 1.395 . S
C1700 C1703 1.403 . S
H1701 C1707 0.930 . S
C1702 H1688 0.930 . S
C1702 C1700 1.395 . S
C1702 C1705 1.403 . S
C1703 C1700 1.403 . S
C1703 C1704 1.524 . S
C1703 C1707 1.400 . S
C1704 H1689 0.960 . S
C1704 H1690 0.960 . S
C1704 H1691 0.960 . S
C1704 C1703 1.524 . S
C1705 C1702 1.403 . S
C1705 C1706 1.392 . S
C1705 C1709 1.495 . S
C1706 C1705 1.392 . S
C1706 C1707 1.385 . S
C1706 C1708 1.478 . S
C1707 H1701 0.930 . S
C1707 C1703 1.400 . S
C1707 C1706 1.385 . S
C1708 C1706 1.478 . S
C1708 C1710 1.381 . S
C1708 C1714 1.383 . S
C1709 C1705 1.495 . S
C1709 H1715 0.959 . S
C1709 H1716 0.961 . S
C1709 H1717 0.960 1_545 S
C1710 C1708 1.381 . S
C1710 C1711 1.394 1_545 S
C1710 H1718 0.930 1_545 S
C1711 C1710 1.394 1_565 S
C1711 C1712 1.383 1_565 S
C1711 H1719 0.929 . S
C1712 C1711 1.383 1_545 S
C1712 C1713 1.377 . S
C1713 H1697 0.930 . S
C1713 C1712 1.377 . S
C1713 C1714 1.379 . S
C1714 H1698 0.931 . S
C1714 C1708 1.383 . S
C1714 C1713 1.379 . S
H1715 C1709 0.959 . S
H1716 C1709 0.961 . S
H1717 C1709 0.960 1_565 S
H1718 C1710 0.930 1_565 S
H1719 C1711 0.929 . S
H1720 C1728 0.929 . S
H1721 C1730 0.930 . S
H1722 C1732 0.930 . S
H1723 C1735 0.933 . S
H1724 C1738 0.930 . S
H1725 C1740 0.960 . S
H1726 C1740 0.960 . S
H1727 C1740 0.960 . S
C1728 H1720 0.929 . S
C1728 C1729 1.377 . S
C1728 C1730 1.384 . S
C1729 C1728 1.377 . S
C1729 C1735 1.388 1_565 S
C1730 H1721 0.930 . S
C1730 C1728 1.384 . S
C1730 C1731 1.372 . S
C1731 C1730 1.372 . S
C1731 C1732 1.400 . S
C1731 C1736 1.490 . S
C1732 H1722 0.930 . S
C1732 C1731 1.400 . S
C1732 C1735 1.384 1_565 S
H1733 C1749 0.930 . S
H1734 C1750 0.931 . S
C1735 H1723 0.933 . S
C1735 C1729 1.388 1_545 S
C1735 C1732 1.384 1_545 S
C1736 C1731 1.490 . S
C1736 C1738 1.395 . S
C1736 C1739 1.403 . S
H1737 C1743 0.930 . S
C1738 H1724 0.930 . S
C1738 C1736 1.395 . S
C1738 C1741 1.403 . S
C1739 C1736 1.403 . S
C1739 C1740 1.524 1_565 S
C1739 C1743 1.400 . S
C1740 H1725 0.960 . S
C1740 H1726 0.960 . S
C1740 H1727 0.960 . S
C1740 C1739 1.524 1_545 S
C1741 C1738 1.403 . S
C1741 C1742 1.392 . S
C1741 C1745 1.495 . S
C1742 C1741 1.392 . S
C1742 C1743 1.385 . S
C1742 C1744 1.478 . S
C1743 H1737 0.930 . S
C1743 C1739 1.400 . S
C1743 C1742 1.385 . S
C1744 C1742 1.478 . S
C1744 C1746 1.381 . S
C1744 C1750 1.383 . S
C1745 C1741 1.495 . S
C1745 H1751 0.959 . S
C1745 H1752 0.961 . S
C1745 H1753 0.960 . S
C1746 C1744 1.381 . S
C1746 C1747 1.394 . S
C1746 H1754 0.930 . S
C1747 C1746 1.394 . S
C1747 C1748 1.383 . S
C1747 H1755 0.929 . S
C1748 C1747 1.383 . S
C1748 C1749 1.377 . S
C1749 H1733 0.930 . S
C1749 C1748 1.377 . S
C1749 C1750 1.379 . S
C1750 H1734 0.931 . S
C1750 C1744 1.383 . S
C1750 C1749 1.379 . S
H1751 C1745 0.959 . S
H1752 C1745 0.961 . S
H1753 C1745 0.960 . S
H1754 C1746 0.930 . S
H1755 C1747 0.929 . S
H1756 C1764 0.929 1_545 S
H1757 C1766 0.930 1_545 S
H1758 C1768 0.930 . S
H1759 C1771 0.929 . S
H1760 C1774 0.930 1_545 S
H1761 C1776 0.960 . S
H1762 C1776 0.960 . S
H1763 C1776 0.960 . S
C1764 H1756 0.929 1_565 S
C1764 C1765 1.377 . S
C1764 C1766 1.384 . S
C1765 C1764 1.377 . S
C1765 C1771 1.390 . S
C1766 H1757 0.930 1_565 S
C1766 C1764 1.384 . S
C1766 C1767 1.372 . S
C1767 C1766 1.372 . S
C1767 C1768 1.400 . S
C1767 C1772 1.490 . S
C1768 H1758 0.930 . S
C1768 C1767 1.400 . S
C1768 C1771 1.386 . S
H1769 C1785 0.930 . S
H1770 C1786 0.931 . S
C1771 H1759 0.929 . S
C1771 C1765 1.390 . S
C1771 C1768 1.386 . S
C1772 C1767 1.490 . S
C1772 C1774 1.395 . S
C1772 C1775 1.403 . S
H1773 C1779 0.930 . S
C1774 H1760 0.930 1_565 S
C1774 C1772 1.395 . S
C1774 C1777 1.403 . S
C1775 C1772 1.403 . S
C1775 C1776 1.524 . S
C1775 C1779 1.400 . S
C1776 H1761 0.960 . S
C1776 H1762 0.960 . S
C1776 H1763 0.960 . S
C1776 C1775 1.524 . S
C1777 C1774 1.403 . S
C1777 C1778 1.392 . S
C1777 C1781 1.495 1_565 S
C1778 C1777 1.392 . S
C1778 C1779 1.385 . S
C1778 C1780 1.478 . S
C1779 H1773 0.930 . S
C1779 C1775 1.400 . S
C1779 C1778 1.385 . S
C1780 C1778 1.478 . S
C1780 C1782 1.381 . S
C1780 C1786 1.383 . S
C1781 C1777 1.495 1_545 S
C1781 H1787 0.959 . S
C1781 H1788 0.961 1_545 S
C1781 H1789 0.960 . S
C1782 C1780 1.381 . S
C1782 C1783 1.394 . S
C1782 H1790 0.930 . S
C1783 C1782 1.394 . S
C1783 C1784 1.383 . S
C1783 H1791 0.929 . S
C1784 C1783 1.383 . S
C1784 C1785 1.377 . S
C1785 H1769 0.930 . S
C1785 C1784 1.377 . S
C1785 C1786 1.379 . S
C1786 H1770 0.931 . S
C1786 C1780 1.383 . S
C1786 C1785 1.379 . S
H1787 C1781 0.959 . S
H1788 C1781 0.961 1_565 S
H1789 C1781 0.960 . S
H1790 C1782 0.930 . S
H1791 C1783 0.929 . S
H1792 C1800 0.929 . S
H1793 C1802 0.930 . S
H1794 C1804 0.930 . S
H1795 C1807 0.929 . S
H1796 C1810 0.930 . S
H1797 C1812 0.960 . S
H1798 C1812 0.960 . S
H1799 C1812 0.960 . S
C1800 H1792 0.929 . S
C1800 C1801 1.377 . S
C1800 C1802 1.384 . S
C1801 C1800 1.377 . S
C1801 C1807 1.390 . S
C1802 H1793 0.930 . S
C1802 C1800 1.384 . S
C1802 C1803 1.372 . S
C1803 C1802 1.372 . S
C1803 C1804 1.400 . S
C1803 C1808 1.490 . S
C1804 H1794 0.930 . S
C1804 C1803 1.400 . S
C1804 C1807 1.386 . S
H1805 C1821 0.930 . S
H1806 C1822 0.931 . S
C1807 H1795 0.929 . S
C1807 C1801 1.390 . S
C1807 C1804 1.386 . S
C1808 C1803 1.490 . S
C1808 C1810 1.395 . S
C1808 C1811 1.403 . S
H1809 C1815 0.930 . S
C1810 H1796 0.930 . S
C1810 C1808 1.395 . S
C1810 C1813 1.403 1_455 S
C1811 C1808 1.403 . S
C1811 C1812 1.524 . S
C1811 C1815 1.400 1_455 S
C1812 H1797 0.960 . S
C1812 H1798 0.960 . S
C1812 H1799 0.960 . S
C1812 C1811 1.524 . S
C1813 C1810 1.403 1_655 S
C1813 C1814 1.392 . S
C1813 C1817 1.495 . S
C1814 C1813 1.392 . S
C1814 C1815 1.385 . S
C1814 C1816 1.478 . S
C1815 H1809 0.930 . S
C1815 C1811 1.400 1_655 S
C1815 C1814 1.385 . S
C1816 C1814 1.478 . S
C1816 C1818 1.381 . S
C1816 C1822 1.383 . S
C1817 C1813 1.495 . S
C1817 H1823 0.959 . S
C1817 H1824 0.961 . S
C1817 H1825 0.960 . S
C1818 C1816 1.381 . S
C1818 C1819 1.394 . S
C1818 H1826 0.930 . S
C1819 C1818 1.394 . S
C1819 C1820 1.383 . S
C1819 H1827 0.929 . S
C1820 C1819 1.383 . S
C1820 C1821 1.377 . S
C1821 H1805 0.930 . S
C1821 C1820 1.377 . S
C1821 C1822 1.379 . S
C1822 H1806 0.931 . S
C1822 C1816 1.383 . S
C1822 C1821 1.379 . S
H1823 C1817 0.959 . S
H1824 C1817 0.961 . S
H1825 C1817 0.960 . S
H1826 C1818 0.930 . S
H1827 C1819 0.929 . S
H1828 C1836 0.929 . S
H1829 C1838 0.930 . S
H1830 C1840 0.930 . S
H1831 C1843 0.929 . S
H1832 C1846 0.930 . S
H1833 C1848 0.960 . S
H1834 C1848 0.960 . S
H1835 C1848 0.960 . S
C1836 H1828 0.929 . S
C1836 C1837 1.377 . S
C1836 C1838 1.384 . S
C1837 C1836 1.377 . S
C1837 C1843 1.390 . S
C1838 H1829 0.930 . S
C1838 C1836 1.384 . S
C1838 C1839 1.372 . S
C1839 C1838 1.372 . S
C1839 C1840 1.400 . S
C1839 C1844 1.490 . S
C1840 H1830 0.930 . S
C1840 C1839 1.400 . S
C1840 C1843 1.386 . S
H1841 C1857 0.930 . S
H1842 C1858 0.931 . S
C1843 H1831 0.929 . S
C1843 C1837 1.390 . S
C1843 C1840 1.386 . S
C1844 C1839 1.490 . S
C1844 C1846 1.395 1_455 S
C1844 C1847 1.403 . S
H1845 C1851 0.929 1_455 S
C1846 H1832 0.930 . S
C1846 C1844 1.395 1_655 S
C1846 C1849 1.403 . S
C1847 C1844 1.403 . S
C1847 C1848 1.524 . S
C1847 C1851 1.374 1_455 S
C1848 H1833 0.960 . S
C1848 H1834 0.960 . S
C1848 H1835 0.960 . S
C1848 C1847 1.524 . S
C1849 C1846 1.403 . S
C1849 C1850 1.392 . S
C1849 C1853 1.495 . S
C1850 C1849 1.392 . S
C1850 C1851 1.413 . S
C1850 C1852 1.478 . S
C1851 H1845 0.929 1_655 S
C1851 C1847 1.374 1_655 S
C1851 C1850 1.413 . S
C1852 C1850 1.478 . S
C1852 C1854 1.381 . S
C1852 C1858 1.383 . S
C1853 C1849 1.495 . S
C1853 H1859 0.959 . S
C1853 H1860 0.961 . S
C1853 H1861 0.960 . S
C1854 C1852 1.381 . S
C1854 C1855 1.394 . S
C1854 H1862 0.930 . S
C1855 C1854 1.394 . S
C1855 C1856 1.383 . S
C1855 H1863 0.929 . S
C1856 C1855 1.383 . S
C1856 C1857 1.377 . S
C1857 H1841 0.930 . S
C1857 C1856 1.377 . S
C1857 C1858 1.379 . S
C1858 H1842 0.931 . S
C1858 C1852 1.383 . S
C1858 C1857 1.379 . S
H1859 C1853 0.959 . S
H1860 C1853 0.961 . S
H1861 C1853 0.960 . S
H1862 C1854 0.930 . S
H1863 C1855 0.929 . S
H1864 C1872 0.929 . S
H1865 C1874 0.930 . S
H1866 C1876 0.930 . S
H1867 C1879 0.929 . S
H1868 C1882 0.930 . S
H1869 C1884 0.960 . S
H1870 C1884 0.960 . S
H1871 C1884 0.960 . S
C1872 H1864 0.929 . S
C1872 C1873 1.377 . S
C1872 C1874 1.384 . S
C1873 C1872 1.377 . S
C1873 C1879 1.390 . S
C1874 H1865 0.930 . S
C1874 C1872 1.384 . S
C1874 C1875 1.372 . S
C1875 C1874 1.372 . S
C1875 C1876 1.400 . S
C1875 C1880 1.490 . S
C1876 H1866 0.930 . S
C1876 C1875 1.400 . S
C1876 C1879 1.386 . S
H1877 C1893 0.930 . S
H1878 C1894 0.931 . S
C1879 H1867 0.929 . S
C1879 C1873 1.390 . S
C1879 C1876 1.386 . S
C1880 C1875 1.490 . S
C1880 C1882 1.395 . S
C1880 C1883 1.403 . S
H1881 C1887 0.930 . S
C1882 H1868 0.930 . S
C1882 C1880 1.395 . S
C1882 C1885 1.403 . S
C1883 C1880 1.403 . S
C1883 C1884 1.524 . S
C1883 C1887 1.400 . S
C1884 H1869 0.960 . S
C1884 H1870 0.960 . S
C1884 H1871 0.960 . S
C1884 C1883 1.524 . S
C1885 C1882 1.403 . S
C1885 C1886 1.392 . S
C1885 C1889 1.495 . S
C1886 C1885 1.392 . S
C1886 C1887 1.385 . S
C1886 C1888 1.478 . S
C1887 H1881 0.930 . S
C1887 C1883 1.400 . S
C1887 C1886 1.385 . S
C1888 C1886 1.478 . S
C1888 C1890 1.381 . S
C1888 C1894 1.383 . S
C1889 C1885 1.495 . S
C1889 H1895 0.959 . S
C1889 H1896 0.961 . S
C1889 H1897 0.960 . S
C1890 C1888 1.381 . S
C1890 C1891 1.394 . S
C1890 H1898 0.930 . S
C1891 C1890 1.394 . S
C1891 C1892 1.383 . S
C1891 H1899 0.929 . S
C1892 C1891 1.383 . S
C1892 C1893 1.377 . S
C1893 H1877 0.930 . S
C1893 C1892 1.377 . S
C1893 C1894 1.379 . S
C1894 H1878 0.931 . S
C1894 C1888 1.383 . S
C1894 C1893 1.379 . S
H1895 C1889 0.959 . S
H1896 C1889 0.961 . S
H1897 C1889 0.960 . S
H1898 C1890 0.930 . S
H1899 C1891 0.929 . S
H1900 C1908 0.929 . S
H1901 C1910 0.930 . S
H1902 C1912 0.930 . S
H1903 C1915 0.929 . S
H1904 C1918 0.930 . S
H1905 C1920 0.960 . S
H1906 C1920 0.960 . S
H1907 C1920 0.960 . S
C1908 H1900 0.929 . S
C1908 C1909 1.377 . S
C1908 C1910 1.384 . S
C1909 C1908 1.377 . S
C1909 C1915 1.390 . S
C1910 H1901 0.930 . S
C1910 C1908 1.384 . S
C1910 C1911 1.372 . S
C1911 C1910 1.372 . S
C1911 C1912 1.400 . S
C1911 C1916 1.490 . S
C1912 H1902 0.930 . S
C1912 C1911 1.400 . S
C1912 C1915 1.386 . S
H1913 C1929 0.930 . S
H1914 C1930 0.931 . S
C1915 H1903 0.929 . S
C1915 C1909 1.390 . S
C1915 C1912 1.386 . S
C1916 C1911 1.490 . S
C1916 C1918 1.395 . S
C1916 C1919 1.403 . S
H1917 C1923 0.930 . S
C1918 H1904 0.930 . S
C1918 C1916 1.395 . S
C1918 C1921 1.403 . S
C1919 C1916 1.403 . S
C1919 C1920 1.524 . S
C1919 C1923 1.400 . S
C1920 H1905 0.960 . S
C1920 H1906 0.960 . S
C1920 H1907 0.960 . S
C1920 C1919 1.524 . S
C1921 C1918 1.403 . S
C1921 C1922 1.392 . S
C1921 C1925 1.495 1_554 S
C1922 C1921 1.392 . S
C1922 C1923 1.385 . S
C1922 C1924 1.478 . S
C1923 H1917 0.930 . S
C1923 C1919 1.400 . S
C1923 C1922 1.385 . S
C1924 C1922 1.478 . S
C1924 C1926 1.381 . S
C1924 C1930 1.383 . S
C1925 C1921 1.495 1_556 S
C1925 H1931 0.959 . S
C1925 H1932 0.961 . S
C1925 H1933 0.960 . S
C1926 C1924 1.381 . S
C1926 C1927 1.394 . S
C1926 H1934 0.930 . S
C1927 C1926 1.394 . S
C1927 C1928 1.383 . S
C1927 H1935 0.929 . S
C1928 C1927 1.383 . S
C1928 C1929 1.377 . S
C1929 H1913 0.930 . S
C1929 C1928 1.377 . S
C1929 C1930 1.379 . S
C1930 H1914 0.931 . S
C1930 C1924 1.383 . S
C1930 C1929 1.379 . S
H1931 C1925 0.959 . S
H1932 C1925 0.961 . S
H1933 C1925 0.960 . S
H1934 C1926 0.930 . S
H1935 C1927 0.929 . S
H1936 C1944 0.929 . S
H1937 C1946 0.930 . S
H1938 C1948 0.930 . S
H1939 C1951 0.929 . S
H1940 C1954 0.930 . S
H1941 C1956 0.960 . S
H1942 C1956 0.960 . S
H1943 C1956 0.960 . S
C1944 H1936 0.929 . S
C1944 C1945 1.377 . S
C1944 C1946 1.384 . S
C1945 C1944 1.377 . S
C1945 C1951 1.390 . S
C1946 H1937 0.930 . S
C1946 C1944 1.384 . S
C1946 C1947 1.372 . S
C1947 C1946 1.372 . S
C1947 C1948 1.400 . S
C1947 C1952 1.490 . S
C1948 H1938 0.930 . S
C1948 C1947 1.400 . S
C1948 C1951 1.386 . S
H1949 C1965 0.930 . S
H1950 C1966 0.931 . S
C1951 H1939 0.929 . S
C1951 C1945 1.390 . S
C1951 C1948 1.386 . S
C1952 C1947 1.490 . S
C1952 C1954 1.395 . S
C1952 C1955 1.403 1_455 S
H1953 C1959 0.930 . S
C1954 H1940 0.930 . S
C1954 C1952 1.395 . S
C1954 C1957 1.403 . S
C1955 C1952 1.403 1_655 S
C1955 C1956 1.524 . S
C1955 C1959 1.400 . S
C1956 H1941 0.960 . S
C1956 H1942 0.960 . S
C1956 H1943 0.960 . S
C1956 C1955 1.524 . S
C1957 C1954 1.403 . S
C1957 C1958 1.392 1_455 S
C1957 C1961 1.495 . S
C1958 C1957 1.392 1_655 S
C1958 C1959 1.385 . S
C1958 C1960 1.478 . S
C1959 H1953 0.930 . S
C1959 C1955 1.400 . S
C1959 C1958 1.385 . S
C1960 C1958 1.478 . S
C1960 C1962 1.381 . S
C1960 C1966 1.383 . S
C1961 C1957 1.495 . S
C1961 H1967 0.959 . S
C1961 H1968 0.961 . S
C1961 H1969 0.960 . S
C1962 C1960 1.381 . S
C1962 C1963 1.394 . S
C1962 H1970 0.930 . S
C1963 C1962 1.394 . S
C1963 C1964 1.383 . S
C1963 H1971 0.929 . S
C1964 C1963 1.383 . S
C1964 C1965 1.377 . S
C1965 H1949 0.930 . S
C1965 C1964 1.377 . S
C1965 C1966 1.379 . S
C1966 H1950 0.931 . S
C1966 C1960 1.383 . S
C1966 C1965 1.379 . S
H1967 C1961 0.959 . S
H1968 C1961 0.961 . S
H1969 C1961 0.960 . S
H1970 C1962 0.930 . S
H1971 C1963 0.929 . S
H1972 C1980 0.929 . S
H1973 C1982 0.930 . S
H1974 C1984 0.930 . S
H1975 C1987 0.929 . S
H1976 C1990 0.930 . S
H1977 C1992 0.960 . S
H1978 C1992 0.960 . S
H1979 C1992 0.960 . S
C1980 H1972 0.929 . S
C1980 C1981 1.377 . S
C1980 C1982 1.384 . S
C1981 C1980 1.377 . S
C1981 C1987 1.390 . S
C1982 H1973 0.930 . S
C1982 C1980 1.384 . S
C1982 C1983 1.372 . S
C1983 C1982 1.372 . S
C1983 C1984 1.400 . S
C1983 C1988 1.490 . S
C1984 H1974 0.930 . S
C1984 C1983 1.400 . S
C1984 C1987 1.386 . S
H1985 C2001 0.930 . S
H1986 C2002 0.931 . S
C1987 H1975 0.929 . S
C1987 C1981 1.390 . S
C1987 C1984 1.386 . S
C1988 C1983 1.490 . S
C1988 C1990 1.395 1_655 S
C1988 C1991 1.403 . S
H1989 C1995 0.929 1_655 S
C1990 H1976 0.930 . S
C1990 C1988 1.395 1_455 S
C1990 C1993 1.403 . S
C1991 C1988 1.403 . S
C1991 C1992 1.524 . S
C1991 C1995 1.381 1_655 S
C1992 H1977 0.960 . S
C1992 H1978 0.960 . S
C1992 H1979 0.960 . S
C1992 C1991 1.524 . S
C1993 C1990 1.403 . S
C1993 C1994 1.392 . S
C1993 C1997 1.495 . S
C1994 C1993 1.392 . S
C1994 C1995 1.406 . S
C1994 C1996 1.478 . S
C1995 H1989 0.929 1_455 S
C1995 C1991 1.381 1_455 S
C1995 C1994 1.406 . S
C1996 C1994 1.478 . S
C1996 C1998 1.381 . S
C1996 C2002 1.383 . S
C1997 C1993 1.495 . S
C1997 H2003 0.959 . S
C1997 H2004 0.961 . S
C1997 H2005 0.960 . S
C1998 C1996 1.381 . S
C1998 C1999 1.394 . S
C1998 H2006 0.930 . S
C1999 C1998 1.394 . S
C1999 C2000 1.383 . S
C1999 H2007 0.929 . S
C2000 C1999 1.383 . S
C2000 C2001 1.377 . S
C2001 H1985 0.930 . S
C2001 C2000 1.377 . S
C2001 C2002 1.379 . S
C2002 H1986 0.931 . S
C2002 C1996 1.383 . S
C2002 C2001 1.379 . S
H2003 C1997 0.959 . S
H2004 C1997 0.961 . S
H2005 C1997 0.960 . S
H2006 C1998 0.930 . S
H2007 C1999 0.929 . S
H2008 C2016 0.929 . S
H2009 C2018 0.930 . S
H2010 C2020 0.930 . S
H2011 C2023 0.929 . S
H2012 C2026 0.930 . S
H2013 C2028 0.960 . S
H2014 C2028 0.960 . S
H2015 C2028 0.960 . S
C2016 H2008 0.929 . S
C2016 C2017 1.377 . S
C2016 C2018 1.384 . S
C2017 C2016 1.377 . S
C2017 C2023 1.390 . S
C2018 H2009 0.930 . S
C2018 C2016 1.384 . S
C2018 C2019 1.372 . S
C2019 C2018 1.372 . S
C2019 C2020 1.400 . S
C2019 C2024 1.490 . S
C2020 H2010 0.930 . S
C2020 C2019 1.400 . S
C2020 C2023 1.386 . S
H2021 C2037 0.930 . S
H2022 C2038 0.931 . S
C2023 H2011 0.929 . S
C2023 C2017 1.390 . S
C2023 C2020 1.386 . S
C2024 C2019 1.490 . S
C2024 C2026 1.395 . S
C2024 C2027 1.403 . S
H2025 C2031 0.930 . S
C2026 H2012 0.930 . S
C2026 C2024 1.395 . S
C2026 C2029 1.403 . S
C2027 C2024 1.403 . S
C2027 C2028 1.524 . S
C2027 C2031 1.400 . S
C2028 H2013 0.960 . S
C2028 H2014 0.960 . S
C2028 H2015 0.960 . S
C2028 C2027 1.524 . S
C2029 C2026 1.403 . S
C2029 C2030 1.392 . S
C2029 C2033 1.495 . S
C2030 C2029 1.392 . S
C2030 C2031 1.385 . S
C2030 C2032 1.478 . S
C2031 H2025 0.930 . S
C2031 C2027 1.400 . S
C2031 C2030 1.385 . S
C2032 C2030 1.478 . S
C2032 C2034 1.381 . S
C2032 C2038 1.383 . S
C2033 C2029 1.495 . S
C2033 H2039 0.959 . S
C2033 H2040 0.961 . S
C2033 H2041 0.960 . S
C2034 C2032 1.381 . S
C2034 C2035 1.394 . S
C2034 H2042 0.930 . S
C2035 C2034 1.394 . S
C2035 C2036 1.383 . S
C2035 H2043 0.929 . S
C2036 C2035 1.383 . S
C2036 C2037 1.377 . S
C2037 H2021 0.930 . S
C2037 C2036 1.377 . S
C2037 C2038 1.379 . S
C2038 H2022 0.931 . S
C2038 C2032 1.383 . S
C2038 C2037 1.379 . S
H2039 C2033 0.959 . S
H2040 C2033 0.961 . S
H2041 C2033 0.960 . S
H2042 C2034 0.930 . S
H2043 C2035 0.929 . S
H2044 C2052 0.929 . S
H2045 C2054 0.930 . S
H2046 C2056 0.930 . S
H2047 C2059 0.929 . S
H2048 C2062 0.930 . S
H2049 C2064 0.960 . S
H2050 C2064 0.960 . S
H2051 C2064 0.960 . S
C2052 H2044 0.929 . S
C2052 C2053 1.377 . S
C2052 C2054 1.384 . S
C2053 C2052 1.377 . S
C2053 C2059 1.390 . S
C2054 H2045 0.930 . S
C2054 C2052 1.384 . S
C2054 C2055 1.372 . S
C2055 C2054 1.372 . S
C2055 C2056 1.400 . S
C2055 C2060 1.490 . S
C2056 H2046 0.930 . S
C2056 C2055 1.400 . S
C2056 C2059 1.386 . S
H2057 C2073 0.930 . S
H2058 C2074 0.931 . S
C2059 H2047 0.929 . S
C2059 C2053 1.390 . S
C2059 C2056 1.386 . S
C2060 C2055 1.490 . S
C2060 C2062 1.395 . S
C2060 C2063 1.403 . S
H2061 C2067 0.930 . S
C2062 H2048 0.930 . S
C2062 C2060 1.395 . S
C2062 C2065 1.403 . S
C2063 C2060 1.403 . S
C2063 C2064 1.524 . S
C2063 C2067 1.400 . S
C2064 H2049 0.960 . S
C2064 H2050 0.960 . S
C2064 H2051 0.960 . S
C2064 C2063 1.524 . S
C2065 C2062 1.403 . S
C2065 C2066 1.392 . S
C2065 C2069 1.495 . S
C2066 C2065 1.392 . S
C2066 C2067 1.385 . S
C2066 C2068 1.478 . S
C2067 H2061 0.930 . S
C2067 C2063 1.400 . S
C2067 C2066 1.385 . S
C2068 C2066 1.478 . S
C2068 C2070 1.381 . S
C2068 C2074 1.383 . S
C2069 C2065 1.495 . S
C2069 H2075 0.959 . S
C2069 H2076 0.961 . S
C2069 H2077 0.960 . S
C2070 C2068 1.381 . S
C2070 C2071 1.394 . S
C2070 H2078 0.930 . S
C2071 C2070 1.394 . S
C2071 C2072 1.383 . S
C2071 H2079 0.929 . S
C2072 C2071 1.383 . S
C2072 C2073 1.377 . S
C2073 H2057 0.930 . S
C2073 C2072 1.377 . S
C2073 C2074 1.379 . S
C2074 H2058 0.931 . S
C2074 C2068 1.383 . S
C2074 C2073 1.379 . S
H2075 C2069 0.959 . S
H2076 C2069 0.961 . S
H2077 C2069 0.960 . S
H2078 C2070 0.930 . S
H2079 C2071 0.929 . S
C361 C15 1.293 . S
C380 C140 1.234 . S
C397 C348 1.266 . S
C416 C29 1.289 . S
C433 C51 1.295 . S
C452 C98 1.280 . S
C469 C304 1.254 1_554 S
C488 C73 1.295 . S
C505 C52 1.260 . S
C524 C109 1.286 . S
C541 C250 1.266 . S
C560 C125 1.283 . S
C577 C139 1.292 . S
C596 C18 1.283 . S
C613 C169 1.296 . S
C632 C216 1.235 1_556 S
C649 C183 1.296 . S
C668 C316 1.243 1_565 S
C685 C213 1.294 1_545 S
C704 C172 1.284 1_554 S
C721 C274 1.266 1_545 S
C740 C227 1.290 . S
C757 C128 1.256 . S
C776 C249 1.297 1_565 S
C793 C228 1.263 1_545 S
C812 C285 1.293 . S
C829 C301 1.295 1_565 S
C848 C74 1.263 1_556 S
C865 C184 1.266 1_565 S
C884 C315 1.287 . S
C901 C30 1.262 . S
C920 C345 1.296 1_545 S
C937 C21 0.400 . S
C956 C271 0.335 . S
C973 C37 0.397 . S
C992 C131 0.348 . S
C1009 C59 0.403 . S
C1028 C323 0.463 . S
C1045 C175 0.404 1_554 S
C1064 C81 0.469 1_556 S
C1081 C95 0.399 . S
C1100 C191 0.339 . S
C1117 C235 0.400 . S
C1136 C147 0.337 . S
C1153 C219 0.433 1_556 S
C1172 C307 0.483 1_554 S
C1189 C351 0.422 . S
C1208 C257 0.368 . S
C1225 C10 1.325 . S
C1244 C43 1.311 . S
C1261 C65 1.338 . S
C1280 C40 1.354 . S
C1297 C62 1.333 . S
C1316 C87 1.327 . S
C1333 C84 1.329 . S
C1352 C7 1.342 . S
C1369 C117 1.339 . S
C1388 C96 1.348 . S
C1405 C153 1.330 . S
C1424 C120 1.321 . S
C1441 C161 1.335 . S
C1460 C150 1.354 . S
C1477 C103 1.330 . S
C1496 C164 1.325 . S
C1513 C194 1.328 1_565 S
C1532 C205 1.309 . S
C1549 C208 1.326 . S
C1568 C241 1.326 . S
C1585 C263 1.337 . S
C1604 C238 1.319 1_545 S
C1621 C260 1.327 . S
C1640 C197 1.334 . S
C1657 C293 1.335 . S
C1676 C272 1.354 1_545 S
C1693 C296 1.325 . S
C1712 C329 1.332 . S
C1729 C326 1.325 1_565 S
C1748 C337 1.322 . S
C1765 C279 1.334 . S
C1784 C340 1.302 . S
C1801 C8 1.462 . S
C1820 C230 1.432 . S
C1837 C32 1.466 . S
C1856 C252 1.455 . S
C1873 C54 1.465 . S
C1892 C186 1.440 . S
C1909 C206 1.462 . S
C1928 C76 1.432 . S
C1945 C318 1.455 . S
C1964 C106 1.476 . S
C1981 C118 1.457 . S
C2000 C338 1.459 . S
C2017 C142 1.455 . S
C2036 C282 1.481 . S
C2053 C294 1.457 . S
C2072 C162 1.460 . S
