# Generated by pormake.
# Topology uow, (4)-cn, num edge types: 1
# Building blocks:
#     Node 0, Type 0, BuildingBlock: ESEHIV_clean_sbu_0, # of connection points: 4
#     Node 1, Type 0, BuildingBlock: ESEHIV_clean_sbu_0, # of connection points: 4
#     Node 2, Type 0, BuildingBlock: ESEHIV_clean_sbu_0, # of connection points: 4
#     Node 3, Type 0, BuildingBlock: ESEHIV_clean_sbu_0, # of connection points: 4
#     Node 4, Type 0, BuildingBlock: ESEHIV_clean_sbu_0, # of connection points: 4
#     Node 5, Type 0, BuildingBlock: ESEHIV_clean_sbu_0, # of connection points: 4
#     Node 6, Type 0, BuildingBlock: ESEHIV_clean_sbu_0, # of connection points: 4
#     Node 7, Type 0, BuildingBlock: ESEHIV_clean_sbu_0, # of connection points: 4
#     Node 8, Type 0, BuildingBlock: ESEHIV_clean_sbu_0, # of connection points: 4
#     Node 9, Type 0, BuildingBlock: ESEHIV_clean_sbu_0, # of connection points: 4
#     Node 10, Type 0, BuildingBlock: ESEHIV_clean_sbu_0, # of connection points: 4
#     Node 11, Type 0, BuildingBlock: ESEHIV_clean_sbu_0, # of connection points: 4
#     Node 12, Type 0, BuildingBlock: ESEHIV_clean_sbu_0, # of connection points: 4
#     Node 13, Type 0, BuildingBlock: ESEHIV_clean_sbu_0, # of connection points: 4
#     Node 14, Type 0, BuildingBlock: ESEHIV_clean_sbu_0, # of connection points: 4
#     Node 15, Type 0, BuildingBlock: ESEHIV_clean_sbu_0, # of connection points: 4
#     Node 16, Type 0, BuildingBlock: ESEHIV_clean_sbu_0, # of connection points: 4
#     Node 17, Type 0, BuildingBlock: ESEHIV_clean_sbu_0, # of connection points: 4
#     Node 18, Type 0, BuildingBlock: ESEHIV_clean_sbu_0, # of connection points: 4
#     Node 19, Type 0, BuildingBlock: ESEHIV_clean_sbu_0, # of connection points: 4
#     Node 20, Type 0, BuildingBlock: ESEHIV_clean_sbu_0, # of connection points: 4
#     Node 21, Type 0, BuildingBlock: ESEHIV_clean_sbu_0, # of connection points: 4
#     Node 22, Type 0, BuildingBlock: ESEHIV_clean_sbu_0, # of connection points: 4
#     Node 23, Type 0, BuildingBlock: ESEHIV_clean_sbu_0, # of connection points: 4
#     Node 24, Type 0, BuildingBlock: ESEHIV_clean_sbu_0, # of connection points: 4
#     Node 25, Type 0, BuildingBlock: ESEHIV_clean_sbu_0, # of connection points: 4
#     Node 26, Type 0, BuildingBlock: ESEHIV_clean_sbu_0, # of connection points: 4
#     Node 27, Type 0, BuildingBlock: ESEHIV_clean_sbu_0, # of connection points: 4
#     Node 28, Type 0, BuildingBlock: ESEHIV_clean_sbu_0, # of connection points: 4
#     Node 29, Type 0, BuildingBlock: ESEHIV_clean_sbu_0, # of connection points: 4
#     Node 30, Type 0, BuildingBlock: ESEHIV_clean_sbu_0, # of connection points: 4
#     Node 31, Type 0, BuildingBlock: ESEHIV_clean_sbu_0, # of connection points: 4
#     Edge 32, Type (0, 0), BuildingBlock: KIFKEQ_clean_linker_1, # of connection points: 2
#     Edge 33, Type (0, 0), BuildingBlock: KIFKEQ_clean_linker_1, # of connection points: 2
#     Edge 34, Type (0, 0), BuildingBlock: KIFKEQ_clean_linker_1, # of connection points: 2
#     Edge 35, Type (0, 0), BuildingBlock: KIFKEQ_clean_linker_1, # of connection points: 2
#     Edge 36, Type (0, 0), BuildingBlock: KIFKEQ_clean_linker_1, # of connection points: 2
#     Edge 37, Type (0, 0), BuildingBlock: KIFKEQ_clean_linker_1, # of connection points: 2
#     Edge 38, Type (0, 0), BuildingBlock: KIFKEQ_clean_linker_1, # of connection points: 2
#     Edge 39, Type (0, 0), BuildingBlock: KIFKEQ_clean_linker_1, # of connection points: 2
#     Edge 40, Type (0, 0), BuildingBlock: KIFKEQ_clean_linker_1, # of connection points: 2
#     Edge 41, Type (0, 0), BuildingBlock: KIFKEQ_clean_linker_1, # of connection points: 2
#     Edge 42, Type (0, 0), BuildingBlock: KIFKEQ_clean_linker_1, # of connection points: 2
#     Edge 43, Type (0, 0), BuildingBlock: KIFKEQ_clean_linker_1, # of connection points: 2
#     Edge 44, Type (0, 0), BuildingBlock: KIFKEQ_clean_linker_1, # of connection points: 2
#     Edge 45, Type (0, 0), BuildingBlock: KIFKEQ_clean_linker_1, # of connection points: 2
#     Edge 46, Type (0, 0), BuildingBlock: KIFKEQ_clean_linker_1, # of connection points: 2
#     Edge 47, Type (0, 0), BuildingBlock: KIFKEQ_clean_linker_1, # of connection points: 2
#     Edge 48, Type (0, 0), BuildingBlock: KIFKEQ_clean_linker_1, # of connection points: 2
#     Edge 49, Type (0, 0), BuildingBlock: KIFKEQ_clean_linker_1, # of connection points: 2
#     Edge 50, Type (0, 0), BuildingBlock: KIFKEQ_clean_linker_1, # of connection points: 2
#     Edge 51, Type (0, 0), BuildingBlock: KIFKEQ_clean_linker_1, # of connection points: 2
#     Edge 52, Type (0, 0), BuildingBlock: KIFKEQ_clean_linker_1, # of connection points: 2
#     Edge 53, Type (0, 0), BuildingBlock: KIFKEQ_clean_linker_1, # of connection points: 2
#     Edge 54, Type (0, 0), BuildingBlock: KIFKEQ_clean_linker_1, # of connection points: 2
#     Edge 55, Type (0, 0), BuildingBlock: KIFKEQ_clean_linker_1, # of connection points: 2
#     Edge 56, Type (0, 0), BuildingBlock: KIFKEQ_clean_linker_1, # of connection points: 2
#     Edge 57, Type (0, 0), BuildingBlock: KIFKEQ_clean_linker_1, # of connection points: 2
#     Edge 58, Type (0, 0), BuildingBlock: KIFKEQ_clean_linker_1, # of connection points: 2
#     Edge 59, Type (0, 0), BuildingBlock: KIFKEQ_clean_linker_1, # of connection points: 2
#     Edge 60, Type (0, 0), BuildingBlock: KIFKEQ_clean_linker_1, # of connection points: 2
#     Edge 61, Type (0, 0), BuildingBlock: KIFKEQ_clean_linker_1, # of connection points: 2
#     Edge 62, Type (0, 0), BuildingBlock: KIFKEQ_clean_linker_1, # of connection points: 2
#     Edge 63, Type (0, 0), BuildingBlock: KIFKEQ_clean_linker_1, # of connection points: 2
#     Edge 64, Type (0, 0), BuildingBlock: KIFKEQ_clean_linker_1, # of connection points: 2
#     Edge 65, Type (0, 0), BuildingBlock: KIFKEQ_clean_linker_1, # of connection points: 2
#     Edge 66, Type (0, 0), BuildingBlock: KIFKEQ_clean_linker_1, # of connection points: 2
#     Edge 67, Type (0, 0), BuildingBlock: KIFKEQ_clean_linker_1, # of connection points: 2
#     Edge 68, Type (0, 0), BuildingBlock: KIFKEQ_clean_linker_1, # of connection points: 2
#     Edge 69, Type (0, 0), BuildingBlock: KIFKEQ_clean_linker_1, # of connection points: 2
#     Edge 70, Type (0, 0), BuildingBlock: KIFKEQ_clean_linker_1, # of connection points: 2
#     Edge 71, Type (0, 0), BuildingBlock: KIFKEQ_clean_linker_1, # of connection points: 2
#     Edge 72, Type (0, 0), BuildingBlock: KIFKEQ_clean_linker_1, # of connection points: 2
#     Edge 73, Type (0, 0), BuildingBlock: KIFKEQ_clean_linker_1, # of connection points: 2
#     Edge 74, Type (0, 0), BuildingBlock: KIFKEQ_clean_linker_1, # of connection points: 2
#     Edge 75, Type (0, 0), BuildingBlock: KIFKEQ_clean_linker_1, # of connection points: 2
#     Edge 76, Type (0, 0), BuildingBlock: KIFKEQ_clean_linker_1, # of connection points: 2
#     Edge 77, Type (0, 0), BuildingBlock: KIFKEQ_clean_linker_1, # of connection points: 2
#     Edge 78, Type (0, 0), BuildingBlock: KIFKEQ_clean_linker_1, # of connection points: 2
#     Edge 79, Type (0, 0), BuildingBlock: KIFKEQ_clean_linker_1, # of connection points: 2
#     Edge 80, Type (0, 0), BuildingBlock: KIFKEQ_clean_linker_1, # of connection points: 2
#     Edge 81, Type (0, 0), BuildingBlock: KIFKEQ_clean_linker_1, # of connection points: 2
#     Edge 82, Type (0, 0), BuildingBlock: KIFKEQ_clean_linker_1, # of connection points: 2
#     Edge 83, Type (0, 0), BuildingBlock: KIFKEQ_clean_linker_1, # of connection points: 2
#     Edge 84, Type (0, 0), BuildingBlock: KIFKEQ_clean_linker_1, # of connection points: 2
#     Edge 85, Type (0, 0), BuildingBlock: KIFKEQ_clean_linker_1, # of connection points: 2
#     Edge 86, Type (0, 0), BuildingBlock: KIFKEQ_clean_linker_1, # of connection points: 2
#     Edge 87, Type (0, 0), BuildingBlock: KIFKEQ_clean_linker_1, # of connection points: 2
#     Edge 88, Type (0, 0), BuildingBlock: KIFKEQ_clean_linker_1, # of connection points: 2
#     Edge 89, Type (0, 0), BuildingBlock: KIFKEQ_clean_linker_1, # of connection points: 2
#     Edge 90, Type (0, 0), BuildingBlock: KIFKEQ_clean_linker_1, # of connection points: 2
#     Edge 91, Type (0, 0), BuildingBlock: KIFKEQ_clean_linker_1, # of connection points: 2
#     Edge 92, Type (0, 0), BuildingBlock: KIFKEQ_clean_linker_1, # of connection points: 2
#     Edge 93, Type (0, 0), BuildingBlock: KIFKEQ_clean_linker_1, # of connection points: 2
#     Edge 94, Type (0, 0), BuildingBlock: KIFKEQ_clean_linker_1, # of connection points: 2
#     Edge 95, Type (0, 0), BuildingBlock: KIFKEQ_clean_linker_1, # of connection points: 2
# Relax obj value: 0.062
# Max RMSD: 0.244
# Mean RMSD: 0.222
data_MOF--net-uow--node1-ESEHIV_clean_sbu_0--edge1-KIFKEQ_clean_linker_1
_symmetry_space_group_name_H-M    P1
_symmetry_Int_Tables_number       1
_symmetry_cell_setting            triclinic
loop_
_symmetry_equiv_pos_as_xyz
'x, y, z'
_cell_length_a     64.160404
_cell_length_b     69.80408
_cell_length_c     49.177547
_cell_angle_alpha  90.032494
_cell_angle_beta   89.971234
_cell_angle_gamma 89.860352
loop_
_atom_site_label
_atom_site_type_symbol
_atom_site_fract_x
_atom_site_fract_y
_atom_site_fract_z
_atom_type_partial_charge
Cu0 Cu 0.0904 0.38963 0.30488 0.0
N1 N 0.10609 0.37404 0.3283 0.0
N2 N 0.11468 0.3523 0.35992 0.0
C3 C 0.09899 0.36176 0.34736 0.0
C4 C 0.13232 0.35897 0.34835 0.0
C5 C 0.12697 0.3723 0.32885 0.0
O6 O 0.06147 0.38758 0.31586 0.0
C7 C 0.08295 0.38472 0.24804 0.0
O8 O 0.06611 0.395 0.25252 0.0
H9 H 0.08266 0.35983 0.352 0.0
H10 H 0.13754 0.38003 0.31572 0.0
N11 N 0.0989 0.4152 0.30857 0.0
N12 N 0.10196 0.44699 0.30314 0.0
C13 C 0.09286 0.43068 0.29406 0.0
C14 C 0.11222 0.42191 0.32736 0.0
C15 C 0.11418 0.4414 0.32406 0.0
C16 C 0.05157 0.37183 0.31479 0.0
O17 O 0.06048 0.3569 0.30332 0.0
H18 H 0.08179 0.42999 0.27751 0.0
H19 H 0.11994 0.41322 0.34253 0.0
O20 O 0.09506 0.3809 0.26779 0.0
H21 H 0.14796 0.35419 0.35308 0.0
H22 H 0.1241 0.45065 0.33603 0.0
Cu23 Cu 0.88189 0.82485 0.53699 0.0
N24 N 0.89747 0.82395 0.50478 0.0
N25 N 0.91144 0.83109 0.46433 0.0
C26 C 0.89858 0.83696 0.48454 0.0
C27 C 0.91851 0.81372 0.47217 0.0
C28 C 0.90981 0.80935 0.49697 0.0
O29 O 0.85424 0.83493 0.52847 0.0
C30 C 0.91631 0.8353 0.56844 0.0
O31 O 0.9252 0.82289 0.55202 0.0
H32 H 0.89024 0.85045 0.48472 0.0
H33 H 0.91224 0.79635 0.50853 0.0
N34 N 0.87843 0.79976 0.54921 0.0
N35 N 0.88246 0.77237 0.57216 0.0
C36 C 0.8889 0.79066 0.56915 0.0
C37 C 0.86492 0.78684 0.53927 0.0
C38 C 0.86733 0.76994 0.5534 0.0
C39 C 0.83966 0.83638 0.54594 0.0
O40 O 0.84373 0.83271 0.5716 0.0
H41 H 0.90081 0.79738 0.5814 0.0
H42 H 0.85417 0.78953 0.52276 0.0
O43 O 0.897 0.83908 0.56516 0.0
H44 H 0.92889 0.80462 0.46054 0.0
H45 H 0.85884 0.75681 0.54979 0.0
Cu46 Cu 0.43471 0.63575 0.80893 0.0
N47 N 0.41911 0.65124 0.83262 0.0
N48 N 0.41089 0.67369 0.86347 0.0
C49 C 0.42637 0.66496 0.84945 0.0
C50 C 0.39321 0.66501 0.85517 0.0
C51 C 0.39832 0.65122 0.83615 0.0
O52 O 0.46362 0.638 0.81987 0.0
C53 C 0.44177 0.64022 0.75192 0.0
O54 O 0.45869 0.63006 0.75643 0.0
H55 H 0.44271 0.66836 0.85156 0.0
H56 H 0.38763 0.64192 0.82546 0.0
N57 N 0.42698 0.61006 0.81325 0.0
N58 N 0.42413 0.57836 0.80718 0.0
C59 C 0.42949 0.59529 0.79576 0.0
C60 C 0.41972 0.6022 0.83634 0.0
C61 C 0.41795 0.5827 0.83268 0.0
C62 C 0.47419 0.6533 0.81748 0.0
O63 O 0.46611 0.66791 0.8043 0.0
H64 H 0.43588 0.59683 0.77551 0.0
H65 H 0.41647 0.61008 0.85481 0.0
O66 O 0.42974 0.64418 0.77173 0.0
H67 H 0.37762 0.66862 0.86187 0.0
H68 H 0.41265 0.57249 0.84772 0.0
Cu69 Cu 0.6466 0.2002 0.04602 0.0
N70 N 0.62976 0.20276 1.01523 0.0
N71 N 0.6149 0.19757 0.97479 0.0
C72 C 0.63172 0.19427 0.99068 0.0
C73 C 0.602 0.20859 0.98984 0.0
C74 C 0.61122 0.21178 1.01471 0.0
O75 O 0.67323 0.18876 0.03527 0.0
C76 C 0.63205 0.18695 0.0982 0.0
O77 O 0.64795 0.19625 0.10855 0.0
H78 H 0.64469 0.18512 0.9851 0.0
H79 H 0.60455 0.21956 0.03166 0.0
N80 N 0.65199 0.22451 0.06014 0.0
N81 N 0.64889 0.25187 0.08343 0.0
C82 C 0.63932 0.2356 0.07538 0.0
C83 C 0.67006 0.23413 0.05829 0.0
C84 C 0.66822 0.25099 0.07267 0.0
C85 C 0.68815 0.18547 0.05174 0.0
O86 O 0.68504 0.18786 0.07791 0.0
H87 H 0.62365 0.23152 0.08108 0.0
H88 H 0.68372 0.22911 0.0475 0.0
O89 O 0.63002 0.18592 0.07246 0.0
H90 H 0.58682 0.21369 0.98346 0.0
H91 H 0.68018 0.26179 0.07491 0.0
Cu92 Cu 0.0893 0.63901 0.22905 0.0
N93 N 0.10536 0.65487 0.20656 0.0
N94 N 0.11443 0.67681 0.1755 0.0
C95 C 0.09855 0.66732 0.18752 0.0
C96 C 0.13188 0.67 0.18748 0.0
C97 C 0.12623 0.65656 0.20663 0.0
O98 O 0.06062 0.64114 0.21701 0.0
C99 C 0.0817 0.64188 0.28615 0.0
O100 O 0.06604 0.6303 0.28124 0.0
H101 H 0.08228 0.66931 0.18249 0.0
H102 H 0.13659 0.64866 0.21989 0.0
N103 N 0.09812 0.61349 0.22513 0.0
N104 N 0.10154 0.58168 0.23027 0.0
C105 C 0.09198 0.59786 0.23918 0.0
C106 C 0.11197 0.607 0.20677 0.0
C107 C 0.11415 0.5875 0.20989 0.0
C108 C 0.05013 0.65656 0.21923 0.0
O109 O 0.05822 0.67112 0.23244 0.0
H110 H 0.08053 0.59833 0.25531 0.0
H111 H 0.11995 0.61585 0.19205 0.0
O112 O 0.09313 0.64736 0.26649 0.0
H113 H 0.1476 0.67473 0.18321 0.0
H114 H 0.12451 0.57842 0.19823 0.0
Cu115 Cu 0.64667 0.82605 0.49194 0.0
N116 N 0.62953 0.82599 0.52268 0.0
N117 N 0.61499 0.83311 0.56285 0.0
C118 C 0.63074 0.83687 0.54531 0.0
C119 C 0.60359 0.8193 0.5507 0.0
C120 C 0.61257 0.81498 0.52602 0.0
O121 O 0.67419 0.83572 0.5022 0.0
C122 C 0.63444 0.83775 0.43811 0.0
O123 O 0.64948 0.82644 0.4296 0.0
H124 H 0.64269 0.84755 0.54856 0.0
H125 H 0.60709 0.80456 0.5114 0.0
N126 N 0.65001 0.8007 0.4807 0.0
N127 N 0.64544 0.77263 0.45957 0.0
C128 C 0.63801 0.79058 0.46343 0.0
C129 C 0.6654 0.78877 0.48829 0.0
C130 C 0.66265 0.77147 0.47532 0.0
C131 C 0.6889 0.83907 0.48546 0.0
O132 O 0.6852 0.83788 0.45927 0.0
H133 H 0.6244 0.79647 0.45347 0.0
H134 H 0.6778 0.79246 0.50222 0.0
O135 O 0.63192 0.84033 0.46358 0.0
H136 H 0.58984 0.81261 0.55915 0.0
H137 H 0.67256 0.75901 0.47752 0.0
Cu138 Cu 0.43757 0.38836 0.72471 0.0
N139 N 0.42131 0.37337 0.7013 0.0
N140 N 0.41203 0.35149 0.67019 0.0
C141 C 0.42798 0.36101 0.68202 0.0
C142 C 0.39466 0.35832 0.6824 0.0
C143 C 0.40044 0.37178 0.7015 0.0
O144 O 0.46649 0.38452 0.71465 0.0
C145 C 0.444 0.38413 0.78178 0.0
O146 O 0.46141 0.39348 0.77725 0.0
H147 H 0.44424 0.35861 0.67734 0.0
H148 H 0.39017 0.37963 0.71497 0.0
N149 N 0.43119 0.41431 0.71955 0.0
N150 N 0.4283 0.44603 0.72542 0.0
C151 C 0.43203 0.42894 0.73752 0.0
C152 C 0.42667 0.42241 0.69546 0.0
C153 C 0.42489 0.44192 0.69898 0.0
C154 C 0.47552 0.36828 0.7155 0.0
O155 O 0.46568 0.35363 0.72622 0.0
H156 H 0.43604 0.42717 0.75875 0.0
H157 H 0.42525 0.41465 0.6765 0.0
O158 O 0.43185 0.38062 0.76196 0.0
H159 H 0.37888 0.35387 0.678 0.0
H160 H 0.42145 0.45229 0.68325 0.0
Cu161 Cu 0.87937 0.19866 0.99181 0.0
N162 N 0.89633 0.19989 0.02265 0.0
N163 N 0.91106 0.19386 0.06304 0.0
C164 C 0.89569 0.18913 0.04542 0.0
C165 C 0.92163 0.20818 0.05081 0.0
C166 C 0.91253 0.21184 0.02599 0.0
O167 O 0.85233 0.188 1.00223 0.0
C168 C 0.89225 0.18677 0.93844 0.0
O169 O 0.87706 0.19783 0.92975 0.0
H170 H 0.88444 0.17783 0.04872 0.0
H171 H 0.91743 0.22243 1.01129 0.0
N172 N 0.87488 0.22366 0.97965 0.0
N173 N 0.87885 0.25186 0.9587 0.0
C174 C 0.88728 0.23443 0.9637 0.0
C175 C 0.85816 0.23462 0.98515 0.0
C176 C 0.86053 0.25199 0.97228 0.0
C177 C 0.83733 0.18542 0.98567 0.0
O178 O 0.84048 0.18821 0.95959 0.0
H179 H 0.90198 0.22939 0.95555 0.0
H180 H 0.84514 0.23025 0.99765 0.0
O181 O 0.89475 0.18442 0.96395 0.0
H182 H 0.93489 0.21565 0.05926 0.0
H183 H 0.84966 0.26385 0.97315 0.0
Cu184 Cu 0.97419 0.63757 0.74125 0.0
N185 N 0.95191 0.6509 0.72595 0.0
N186 N 0.93243 0.67174 0.70254 0.0
C187 C 0.95201 0.66599 0.70885 0.0
C188 C 0.9197 0.65972 0.71617 0.0
C189 C 0.93174 0.64695 0.73055 0.0
O190 O 1.00017 0.64698 0.72515 0.0
C191 C 0.97316 0.6577 0.79145 0.0
O192 O 0.97935 0.67221 0.77652 0.0
H193 H 0.96612 0.6727 0.70151 0.0
H194 H 0.92622 0.63548 0.74345 0.0
N195 N 0.97055 0.61174 0.732 0.0
N196 N 0.96992 0.57962 0.73225 0.0
C197 C 0.97441 0.59572 0.74655 0.0
C198 C 0.96332 0.60561 0.70788 0.0
C199 C 0.96288 0.58591 0.70796 0.0
C200 C 0.01577 0.63597 0.72109 0.0
O201 O 0.01517 0.61838 0.7305 0.0
H202 H 0.98072 0.59592 0.76694 0.0
H203 H 0.95865 0.6149 0.69136 0.0
O204 O 0.97157 0.6412 0.7805 0.0
H205 H 0.90284 0.65988 0.71549 0.0
H206 H 0.95752 0.57697 0.69142 0.0
Cu207 Cu 0.12588 0.20412 0.50695 0.0
N208 N 0.10822 0.18827 0.48689 0.0
N209 N 0.08772 0.1761 0.45453 0.0
C210 C 0.09809 0.19175 0.46336 0.0
C211 C 0.09143 0.16237 0.4732 0.0
C212 C 0.10399 0.16992 0.49313 0.0
O213 O 0.12471 0.23009 0.49242 0.0
C214 C 0.1248 0.18877 0.56024 0.0
O215 O 0.13978 0.1779 0.55051 0.0
H216 H 0.09864 0.20529 0.45267 0.0
H217 H 0.10991 0.1625 0.51083 0.0
N218 N 0.15316 0.19517 0.5015 0.0
N219 N 0.18796 0.19281 0.49989 0.0
C220 C 0.17145 0.20271 0.50985 0.0
C221 C 0.15833 0.18004 0.48592 0.0
C222 C 0.17967 0.17852 0.48493 0.0
C223 C 0.1081 0.23964 0.48814 0.0
O224 O 0.09011 0.23251 0.49583 0.0
H225 H 0.17261 0.21545 0.52232 0.0
H226 H 0.14731 0.17088 0.47559 0.0
O227 O 0.11719 0.20191 0.54515 0.0
H228 H 0.08527 0.14794 0.47264 0.0
H229 H 0.18841 0.16765 0.47409 0.0
Cu230 Cu 0.54815 0.38722 0.24048 0.0
N231 N 0.57082 0.37974 0.21898 0.0
N232 N 0.59177 0.36145 0.19337 0.0
C233 C 0.5757 0.36177 0.2112 0.0
C234 C 0.59725 0.38001 0.19016 0.0
C235 C 0.5843 0.39121 0.20592 0.0
O236 O 0.52308 0.37482 0.22574 0.0
C237 C 0.5726 0.38251 0.28718 0.0
O238 O 0.58599 0.39152 0.27157 0.0
H239 H 0.56721 0.3493 0.21802 0.0
H240 H 0.58423 0.40669 0.20708 0.0
N241 N 0.54396 0.41376 0.23652 0.0
N242 N 0.54502 0.4458 0.23951 0.0
C243 C 0.55167 0.42897 0.25028 0.0
C244 C 0.53202 0.42132 0.21676 0.0
C245 C 0.53263 0.44091 0.21851 0.0
C246 C 0.52149 0.37318 0.19995 0.0
O247 O 0.53695 0.37909 0.18462 0.0
H248 H 0.56211 0.42774 0.26748 0.0
H249 H 0.52335 0.41317 0.20196 0.0
O250 O 0.55421 0.3797 0.27816 0.0
H251 H 0.60917 0.38527 0.17653 0.0
H252 H 0.52422 0.4508 0.20557 0.0
Cu253 Cu 0.40415 0.82465 1.00705 0.0
N254 N 0.4216 0.84078 0.98696 0.0
N255 N 0.44272 0.8532 0.95546 0.0
C256 C 0.43239 0.83741 0.96389 0.0
C257 C 0.43826 0.86691 0.97391 0.0
C258 C 0.42531 0.8592 0.99329 0.0
O259 O 0.40497 0.7986 0.99244 0.0
C260 C 0.43153 0.82809 0.052 0.0
O261 O 0.44571 0.82586 0.03299 0.0
H262 H 0.43246 0.82382 0.9533 0.0
H263 H 0.41892 0.86651 1.01083 0.0
N264 N 0.37686 0.83371 1.00223 0.0
N265 N 0.34204 0.83573 1.00055 0.0
C266 C 0.35863 0.82602 1.01059 0.0
C267 C 0.37154 0.84875 0.98659 0.0
C268 C 0.35018 0.85005 0.98554 0.0
C269 C 0.42135 0.78902 0.98688 0.0
O270 O 0.43967 0.79617 0.99299 0.0
H271 H 0.35757 0.81323 0.02294 0.0
H272 H 0.38244 0.8579 0.97605 0.0
O273 O 0.41232 0.82695 0.04542 0.0
H274 H 0.44425 0.88139 0.97369 0.0
H275 H 0.34131 0.86074 0.97453 0.0
Cu276 Cu 0.9767 0.38443 0.79415 0.0
N277 N 0.95467 0.37665 0.81617 0.0
N278 N 0.93484 0.35914 0.84405 0.0
C279 C 0.95312 0.36024 0.83042 0.0
C280 C 0.9246 0.37553 0.83802 0.0
C281 C 0.93686 0.38627 0.82084 0.0
O282 O 1.00162 0.37203 0.80855 0.0
C283 C 0.97977 0.37948 0.73546 0.0
O284 O 0.9973 0.38913 0.73662 0.0
H285 H 0.96525 0.34946 0.83089 0.0
H286 H 0.93304 0.40008 0.81217 0.0
N287 N 0.97976 0.41089 0.79892 0.0
N288 N 0.9817 0.4428 0.79469 0.0
C289 C 0.97786 0.42596 0.78183 0.0
C290 C 0.98475 0.41846 0.82317 0.0
C291 C 0.98596 0.438 0.82069 0.0
C292 C 0.01984 0.37902 0.80608 0.0
O293 O 0.0226 0.39407 0.79046 0.0
H294 H 0.97397 0.4246 0.76051 0.0
H295 H 0.98726 0.41022 0.8415 0.0
O296 O 0.96951 0.37652 0.7572 0.0
H297 H 0.90917 0.37939 0.84506 0.0
H298 H 0.98933 0.44792 0.83702 0.0
Cu299 Cu 0.40347 0.20329 0.52398 0.0
N300 N 0.42136 0.18785 0.5447 0.0
N301 N 0.44132 0.17619 0.57808 0.0
C302 C 0.43046 0.19149 0.5689 0.0
C303 C 0.43896 0.16248 0.55903 0.0
C304 C 0.42672 0.16971 0.53852 0.0
O305 O 0.40507 0.22982 0.53637 0.0
C306 C 0.40501 0.18419 0.47375 0.0
O307 O 0.39258 0.17253 0.48701 0.0
H308 H 0.42885 0.20488 0.57982 0.0
H309 H 0.42193 0.16213 0.52043 0.0
N310 N 0.37622 0.19498 0.53093 0.0
N311 N 0.34143 0.19302 0.53316 0.0
C312 C 0.35792 0.20217 0.52194 0.0
C313 C 0.37111 0.18084 0.54824 0.0
C314 C 0.34976 0.17957 0.54963 0.0
C315 C 0.42181 0.2385 0.54275 0.0
O316 O 0.43983 0.23002 0.53849 0.0
H317 H 0.35674 0.21414 0.50803 0.0
H318 H 0.38218 0.17218 0.55938 0.0
O319 O 0.41093 0.19953 0.48554 0.0
H320 H 0.44585 0.14832 0.55973 0.0
H321 H 0.34104 0.16941 0.56172 0.0
Cu322 Cu 0.54811 0.64103 0.29227 0.0
N323 N 0.57145 0.65154 0.30904 0.0
N324 N 0.59212 0.67061 0.33355 0.0
C325 C 0.57229 0.6665 0.32633 0.0
C326 C 0.60409 0.65767 0.32033 0.0
C327 C 0.5913 0.64595 0.30526 0.0
O328 O 0.52345 0.65279 0.30868 0.0
C329 C 0.55468 0.66283 0.24513 0.0
O330 O 0.55388 0.67679 0.26304 0.0
H331 H 0.5587 0.67445 0.33293 0.0
H332 H 0.59609 0.63423 0.29226 0.0
N333 N 0.54773 0.61493 0.30102 0.0
N334 N 0.54843 0.58283 0.30058 0.0
C335 C 0.54974 0.59906 0.28549 0.0
C336 C 0.54523 0.60854 0.32658 0.0
C337 C 0.54564 0.58887 0.32641 0.0
C338 C 0.50545 0.64516 0.3074 0.0
O339 O 0.50279 0.62995 0.29205 0.0
H340 H 0.55182 0.5994 0.26366 0.0
H341 H 0.54329 0.61767 0.34418 0.0
O342 O 0.55123 0.64575 0.25321 0.0
H343 H 0.62089 0.65664 0.32158 0.0
H344 H 0.54428 0.57974 0.3441 0.0
Cu345 Cu 0.12645 0.82377 0.02559 0.0
N346 N 0.10872 0.83987 0.04542 0.0
N347 N 0.08775 0.85196 0.07745 0.0
C348 C 0.09818 0.83629 0.06862 0.0
C349 C 0.09182 0.86581 0.05911 0.0
C350 C 0.10465 0.8583 0.03939 0.0
O351 O 0.12586 0.79821 0.04151 0.0
C352 C 0.12184 0.83881 0.97256 0.0
O353 O 0.13463 0.85183 0.98215 0.0
H354 H 0.09844 0.82266 0.07908 0.0
H355 H 0.11082 0.86585 0.02199 0.0
N356 N 0.15365 0.83319 0.02953 0.0
N357 N 0.18844 0.83561 0.03077 0.0
C358 C 0.17196 0.82539 0.02156 0.0
C359 C 0.15879 0.84882 0.04405 0.0
C360 C 0.18013 0.85037 0.04481 0.0
C361 C 0.1094 0.78837 0.04511 0.0
O362 O 0.09153 0.79492 0.03591 0.0
H363 H 0.17319 0.81219 1.01011 0.0
H364 H 0.14778 0.85824 0.054 0.0
O365 O 0.11709 0.82459 0.98763 0.0
H366 H 0.08571 0.88027 0.05973 0.0
H367 H 0.18886 0.86152 0.05499 0.0
Cu368 Cu 0.59529 0.89044 0.80702 0.0
N369 N 0.61223 0.87458 0.82837 0.0
N370 N 0.62244 0.85206 0.85792 0.0
C371 C 0.60669 0.86362 0.84979 0.0
C372 C 0.63848 0.85603 0.84111 0.0
C373 C 0.63216 0.86991 0.82297 0.0
O374 O 0.56699 0.88816 0.82046 0.0
C375 C 0.58611 0.88622 0.75014 0.0
O376 O 0.5698 0.89709 0.75504 0.0
H377 H 0.59114 0.8634 0.85835 0.0
H378 H 0.64119 0.87573 0.80635 0.0
N379 N 0.60408 0.91596 0.81008 0.0
N380 N 0.60698 0.94775 0.80442 0.0
C381 C 0.59678 0.93158 0.79694 0.0
C382 C 0.61936 0.9224 0.82634 0.0
C383 C 0.62121 0.9419 0.82291 0.0
C384 C 0.557 0.87245 0.81931 0.0
O385 O 0.56537 0.85779 0.80654 0.0
H386 H 0.58415 0.93109 0.78241 0.0
H387 H 0.62862 0.91348 0.83969 0.0
O388 O 0.59831 0.88187 0.76957 0.0
H389 H 0.65359 0.8491 0.84154 0.0
H390 H 0.63249 0.95096 0.83296 0.0
Cu391 Cu 0.37954 0.32525 0.0388 0.0
N392 N 0.39628 0.32429 1.00773 0.0
N393 N 0.41094 0.33091 0.9675 0.0
C394 C 0.39573 0.33555 0.98546 0.0
C395 C 0.42131 0.31613 0.97901 0.0
C396 C 0.41226 0.31211 1.00373 0.0
O397 O 0.35227 0.33561 0.02899 0.0
C398 C 0.39391 0.33637 0.09181 0.0
O399 O 0.38027 0.32398 0.10103 0.0
H400 H 0.38468 0.34714 0.98277 0.0
H401 H 0.41706 0.30113 0.01793 0.0
N402 N 0.37572 0.3002 0.05104 0.0
N403 N 0.38062 0.27208 0.07182 0.0
C404 C 0.389 0.28927 0.06556 0.0
C405 C 0.35851 0.28954 0.04766 0.0
C406 C 0.36145 0.27221 0.06046 0.0
C407 C 0.33773 0.33866 0.04611 0.0
O408 O 0.34159 0.33649 0.07215 0.0
H409 H 0.40422 0.29409 0.0721 0.0
H410 H 0.3447 0.29415 0.03686 0.0
O411 O 0.3947 0.33981 0.06635 0.0
H412 H 0.4344 0.30859 0.97011 0.0
H413 H 0.35031 0.26061 0.06126 0.0
Cu414 Cu 0.937 0.1383 0.30723 0.0
N415 N 0.92104 0.15349 0.33083 0.0
N416 N 0.91228 0.17568 0.36181 0.0
C417 C 0.92797 0.16732 0.34771 0.0
C418 C 0.89482 0.16664 0.35348 0.0
C419 C 0.90027 0.15301 0.33439 0.0
O420 O 0.96588 0.14119 0.31802 0.0
C421 C 0.94381 0.1426 0.25018 0.0
O422 O 0.96087 0.13265 0.25469 0.0
H423 H 0.94423 0.17105 0.34983 0.0
H424 H 0.88982 0.14348 0.32371 0.0
N425 N 0.92988 0.11249 0.31186 0.0
N426 N 0.92687 0.08081 0.30578 0.0
C427 C 0.93139 0.09784 0.294 0.0
C428 C 0.92414 0.10447 0.33556 0.0
C429 C 0.92228 0.08499 0.3319 0.0
C430 C 0.97622 0.15661 0.31544 0.0
O431 O 0.96791 0.1711 0.30225 0.0
H432 H 0.93645 0.09952 0.27314 0.0
H433 H 0.92197 0.11225 0.35439 0.0
O434 O 0.93177 0.14648 0.27001 0.0
H435 H 0.87915 0.16988 0.36025 0.0
H436 H 0.918 0.07467 0.34734 0.0
Cu437 Cu 0.14424 0.69852 0.54535 0.0
N438 N 0.12541 0.69619 0.51653 0.0
N439 N 0.11023 0.68869 0.47694 0.0
C440 C 0.12758 0.68708 0.49248 0.0
C441 C 0.0968 0.69929 0.49189 0.0
C442 C 0.10619 0.70385 0.51618 0.0
O443 O 0.17177 0.68918 0.53454 0.0
C444 C 0.12104 0.67149 0.57672 0.0
O445 O 0.1192 0.66222 0.55358 0.0
H446 H 0.14149 0.67928 0.4867 0.0
H447 H 0.09952 0.71227 0.5325 0.0
N448 N 0.14674 0.72448 0.55335 0.0
N449 N 0.14214 0.75296 0.57332 0.0
C450 C 0.13639 0.73434 0.57266 0.0
C451 C 0.15942 0.7372 0.54129 0.0
C452 C 0.15665 0.75478 0.55357 0.0
C453 C 0.18664 0.68653 0.55131 0.0
O454 O 0.18299 0.68846 0.57746 0.0
H455 H 0.12516 0.72787 0.58624 0.0
H456 H 0.16997 0.73388 0.52477 0.0
O457 O 0.13231 0.68647 0.57762 0.0
H458 H 0.08138 0.70375 0.48561 0.0
H459 H 0.16457 0.76791 0.54816 0.0
Cu460 Cu 0.59001 0.13967 0.73065 0.0
N461 N 0.60612 0.15531 0.70785 0.0
N462 N 0.61511 0.17663 0.67588 0.0
C463 C 0.59931 0.16707 0.68794 0.0
C464 C 0.63255 0.17052 0.6886 0.0
C465 C 0.62695 0.15743 0.7083 0.0
O466 O 0.56121 0.14244 0.71905 0.0
C467 C 0.58065 0.15033 0.78586 0.0
O468 O 0.56104 0.14817 0.77889 0.0
H469 H 0.58312 0.16851 0.68225 0.0
H470 H 0.6373 0.15009 0.7222 0.0
N471 N 0.59807 0.11405 0.72589 0.0
N472 N 0.60158 0.08225 0.73103 0.0
C473 C 0.59316 0.09862 0.74116 0.0
C474 C 0.60998 0.10727 0.70554 0.0
C475 C 0.61219 0.08777 0.70864 0.0
C476 C 0.55161 0.15843 0.71907 0.0
O477 O 0.56061 0.17348 0.72998 0.0
H478 H 0.58339 0.09939 0.75907 0.0
H479 H 0.6166 0.11595 0.68951 0.0
O480 O 0.59491 0.14722 0.76837 0.0
H481 H 0.64819 0.1755 0.68446 0.0
H482 H 0.62124 0.07847 0.69554 0.0
Cu483 Cu 0.14579 0.32605 0.99031 0.0
N484 N 0.12886 0.32498 0.02119 0.0
N485 N 0.11428 0.33134 0.06159 0.0
C486 C 0.12963 0.33588 0.04383 0.0
C487 C 0.10358 0.31701 0.04957 0.0
C488 C 0.11259 0.31315 0.02474 0.0
O489 O 0.17293 0.33643 1.00069 0.0
C490 C 0.13307 0.33801 0.93702 0.0
O491 O 0.14814 0.3268 0.92834 0.0
H492 H 0.14096 0.34714 0.04693 0.0
H493 H 0.10757 0.3025 1.01017 0.0
N494 N 0.15002 0.30107 0.97792 0.0
N495 N 0.14601 0.27324 0.95603 0.0
C496 C 0.1375 0.29051 0.96185 0.0
C497 C 0.16687 0.29011 0.98268 0.0
C498 C 0.16447 0.27296 0.96922 0.0
C499 C 0.18762 0.33983 0.98394 0.0
O500 O 0.18406 0.33815 0.95777 0.0
H501 H 0.12276 0.29564 0.954 0.0
H502 H 0.18007 0.2944 0.99491 0.0
O503 O 0.1306 0.34044 0.96252 0.0
H504 H 0.09028 0.30967 0.05818 0.0
H505 H 0.17547 0.26119 0.96927 0.0
Cu506 Cu 0.9355 0.89098 0.22307 0.0
N507 N 0.91895 0.87557 0.20062 0.0
N508 N 0.90932 0.85291 0.17089 0.0
C509 C 0.92543 0.86253 0.18217 0.0
C510 C 0.89206 0.86034 0.18262 0.0
C511 C 0.89805 0.87429 0.20088 0.0
O512 O 0.96419 0.88755 0.21169 0.0
C513 C 0.94374 0.8861 0.27979 0.0
O514 O 0.96166 0.89433 0.27439 0.0
H515 H 0.94166 0.85972 0.17773 0.0
H516 H 0.88791 0.8827 0.21383 0.0
N517 N 0.92852 0.9168 0.21801 0.0
N518 N 0.92577 0.94854 0.22381 0.0
C519 C 0.93041 0.93154 0.23564 0.0
C520 C 0.92241 0.92472 0.1944 0.0
C521 C 0.9207 0.94425 0.19788 0.0
C522 C 0.97414 0.87183 0.21383 0.0
O523 O 0.96547 0.85739 0.22664 0.0
H524 H 0.9358 0.92992 0.25636 0.0
H525 H 0.91984 0.91684 0.17575 0.0
O526 O 0.93072 0.88348 0.26064 0.0
H527 H 0.87621 0.85598 0.17842 0.0
H528 H 0.91618 0.95451 0.18247 0.0
Cu529 Cu 0.37907 0.69723 0.49302 0.0
N530 N 0.39584 0.6982 0.52409 0.0
N531 N 0.41026 0.69199 0.56463 0.0
C532 C 0.39491 0.68744 0.54686 0.0
C533 C 0.42108 0.70619 0.5525 0.0
C534 C 0.41218 0.70995 0.5276 0.0
O535 O 0.35172 0.68698 0.5031 0.0
C536 C 0.39222 0.68536 0.43967 0.0
O537 O 0.37702 0.69636 0.4309 0.0
H538 H 0.3835 0.67627 0.55005 0.0
H539 H 0.41731 0.72049 0.51295 0.0
N540 N 0.37509 0.72231 0.48092 0.0
N541 N 0.37952 0.75037 0.45978 0.0
C542 C 0.38767 0.73285 0.46489 0.0
C543 C 0.35857 0.73354 0.48638 0.0
C544 C 0.36123 0.75083 0.47338 0.0
C545 C 0.33656 0.68535 0.48652 0.0
O546 O 0.33973 0.68876 0.46059 0.0
H547 H 0.40225 0.72757 0.4567 0.0
H548 H 0.34547 0.72939 0.4989 0.0
O549 O 0.39457 0.68295 0.4652 0.0
H550 H 0.4344 0.7135 0.56107 0.0
H551 H 0.35055 0.76284 0.47413 0.0
Cu552 Cu 0.47531 0.13611 0.23851 0.0
N553 N 0.45407 0.14842 0.21884 0.0
N554 N 0.43579 0.16699 0.1904 0.0
C555 C 0.45483 0.163 0.20081 0.0
C556 C 0.42266 0.1545 0.20229 0.0
C557 C 0.43392 0.14313 0.21968 0.0
O558 O 0.50265 0.14277 0.22374 0.0
C559 C 0.456 0.13671 0.28982 0.0
O560 O 0.44421 0.12388 0.27783 0.0
H561 H 0.469 0.17021 0.19483 0.0
H562 H 0.42783 0.1315 0.23176 0.0
N563 N 0.47151 0.10977 0.23253 0.0
N564 N 0.47035 0.07777 0.23551 0.0
C565 C 0.4762 0.09427 0.24787 0.0
C566 C 0.46277 0.10274 0.20977 0.0
C567 C 0.46193 0.08313 0.21157 0.0
C568 C 0.50942 0.15977 0.22084 0.0
O569 O 0.49826 0.17422 0.22996 0.0
H570 H 0.48341 0.09508 0.26773 0.0
H571 H 0.45739 0.11135 0.19289 0.0
O572 O 0.47168 0.14326 0.2769 0.0
H573 H 0.40603 0.15371 0.19882 0.0
H574 H 0.45589 0.07352 0.19621 0.0
Cu575 Cu 0.62239 0.70457 1.00706 0.0
N576 N 0.6061 0.68651 0.98885 0.0
N577 N 0.58532 0.67309 0.95777 0.0
C578 C 0.59381 0.68954 0.96705 0.0
C579 C 0.59251 0.65923 0.97445 0.0
C580 C 0.60529 0.66754 0.99359 0.0
O581 O 0.61737 0.72882 0.9886 0.0
C582 C 0.61947 0.69021 0.06064 0.0
O583 O 0.63257 0.67743 0.05093 0.0
H584 H 0.59161 0.70346 0.95776 0.0
H585 H 0.61372 0.6602 1.00951 0.0
N586 N 0.65035 0.69769 1.00149 0.0
N587 N 0.68524 0.69688 1.00043 0.0
C588 C 0.66815 0.70452 1.01254 0.0
C589 C 0.65648 0.68536 0.98202 0.0
C590 C 0.67786 0.68479 0.98135 0.0
C591 C 0.6236 0.74537 0.99573 0.0
O592 O 0.63346 0.74746 0.01895 0.0
H593 H 0.66857 0.71528 0.02839 0.0
H594 H 0.64607 0.67762 0.9687 0.0
O595 O 0.61398 0.70414 0.04543 0.0
H596 H 0.58874 0.64416 0.97303 0.0
H597 H 0.68727 0.67614 0.96778 0.0
Cu598 Cu 0.04984 0.88743 0.74157 0.0
N599 N 0.07285 0.87603 0.72493 0.0
N600 N 0.09289 0.85636 0.70026 0.0
C601 C 0.07326 0.8607 0.70827 0.0
C602 C 0.10517 0.86955 0.71236 0.0
C603 C 0.09276 0.88163 0.72752 0.0
O604 O 0.02493 0.87611 0.72527 0.0
C605 C 0.05584 0.86561 0.78885 0.0
O606 O 0.05477 0.85158 0.77109 0.0
H607 H 0.05948 0.85277 0.70253 0.0
H608 H 0.09786 0.8937 0.73958 0.0
N609 N 0.05092 0.91356 0.73295 0.0
N610 N 0.04965 0.94564 0.73361 0.0
C611 C 0.04781 0.92932 0.74839 0.0
C612 C 0.05496 0.92011 0.70781 0.0
C613 C 0.05421 0.93978 0.70812 0.0
C614 C 1.0088 0.88581 0.71878 0.0
O615 O 1.00764 0.90391 0.72597 0.0
H616 H 0.04394 0.9288 0.76979 0.0
H617 H 0.05822 0.91111 0.6904 0.0
O618 O 0.05276 0.88272 0.78061 0.0
H619 H 0.1219 0.87063 0.71014 0.0
H620 H 0.0571 0.94904 0.6909 0.0
Cu621 Cu 0.90328 0.32528 0.50831 0.0
N622 N 0.92101 0.3417 0.48922 0.0
N623 N 0.94315 0.35451 0.45918 0.0
C624 C 0.93172 0.33893 0.46592 0.0
C625 C 0.93921 0.36752 0.47888 0.0
C626 C 0.92564 0.35958 0.49728 0.0
O627 O 0.90414 0.29948 0.49283 0.0
C628 C 0.93036 0.32762 0.55363 0.0
O629 O 0.94464 0.32526 0.53477 0.0
H630 H 0.93143 0.3257 0.45447 0.0
H631 H 0.9195 0.36635 0.5154 0.0
N632 N 0.87613 0.33465 0.50367 0.0
N633 N 0.84135 0.33716 0.50222 0.0
C634 C 0.85782 0.32683 0.51136 0.0
C635 C 0.87104 0.35041 0.48939 0.0
C636 C 0.84969 0.35201 0.48848 0.0
C637 C 0.92063 0.29012 0.48705 0.0
O638 O 0.93887 0.29736 0.49338 0.0
H639 H 0.85659 0.31358 0.52267 0.0
H640 H 0.88209 0.35993 0.47982 0.0
O641 O 0.91119 0.3269 0.5468 0.0
H642 H 0.94554 0.38185 0.47991 0.0
H643 H 0.84098 0.36329 0.47852 0.0
Cu644 Cu 0.47795 0.88231 0.29392 0.0
N645 N 0.45579 0.87376 0.31513 0.0
N646 N 0.43599 0.85618 0.34296 0.0
C647 C 0.45458 0.85765 0.33013 0.0
C648 C 0.42519 0.87199 0.3356 0.0
C649 C 0.43743 0.88276 0.31846 0.0
O650 O 0.50306 0.87026 0.30843 0.0
C651 C 0.48135 0.87825 0.23488 0.0
O652 O 0.49884 0.88795 0.23625 0.0
H653 H 0.46717 0.84737 0.3318 0.0
H654 H 0.43324 0.8962 0.30897 0.0
N655 N 0.47998 0.90874 0.29999 0.0
N656 N 0.48177 0.94077 0.29733 0.0
C657 C 0.48016 0.92409 0.28324 0.0
C658 C 0.48142 0.91593 0.32524 0.0
C659 C 0.48247 0.93552 0.32374 0.0
C660 C 0.52106 0.87784 0.30669 0.0
O661 O 0.52348 0.89328 0.29178 0.0
H662 H 0.47924 0.92302 0.26133 0.0
H663 H 0.48148 0.90739 0.34359 0.0
O664 O 0.47113 0.87496 0.25656 0.0
H665 H 0.40942 0.8754 0.34175 0.0
H666 H 0.48318 0.94511 0.341 0.0
Cu667 Cu 0.90058 0.7028 0.0265 0.0
N668 N 0.91793 0.68699 0.04757 0.0
N669 N 0.93799 0.67523 0.08083 0.0
C670 C 0.9273 0.69064 0.07161 0.0
C671 C 0.93529 0.66148 0.06194 0.0
C672 C 0.92303 0.66876 0.04151 0.0
O673 O 0.90115 0.72885 0.04092 0.0
C674 C 0.90661 0.68598 0.97486 0.0
O675 O 0.8947 0.67266 0.9855 0.0
H676 H 0.92609 0.70414 0.08232 0.0
H677 H 0.91809 0.66115 0.02354 0.0
N678 N 0.87322 0.69369 0.03004 0.0
N679 N 0.83838 0.69197 0.03199 0.0
C680 C 0.85502 0.70267 0.02456 0.0
C681 C 0.86786 0.6768 0.04115 0.0
C682 C 0.84649 0.67567 0.04232 0.0
C683 C 0.91778 0.7379 0.04668 0.0
O684 O 0.9359 0.73006 0.04097 0.0
H685 H 0.85404 0.71694 1.01604 0.0
H686 H 0.87875 0.6661 0.04829 0.0
O687 O 0.91024 0.70111 0.98863 0.0
H688 H 0.94204 0.64726 0.06261 0.0
H689 H 0.83761 0.66369 0.05007 0.0
Cu690 Cu 0.04727 0.14133 0.79067 0.0
N691 N 0.0704 0.15068 0.80933 0.0
N692 N 0.09078 0.16863 0.83593 0.0
C693 C 0.07175 0.16675 0.82441 0.0
C694 C 0.10173 0.15315 0.82763 0.0
C695 C 0.08913 0.14212 0.8113 0.0
O696 O 0.02272 0.15298 0.80734 0.0
C697 C 0.06547 0.14031 0.73844 0.0
O698 O 0.07659 0.12664 0.74972 0.0
H699 H 0.05888 0.17659 0.82735 0.0
H700 H 0.09323 0.12868 0.80174 0.0
N701 N 0.04607 0.11493 0.79754 0.0
N702 N 0.04417 0.08291 0.7954 0.0
C703 C 0.04473 0.09949 0.78103 0.0
C704 C 0.04638 0.10786 0.82295 0.0
C705 C 0.04524 0.08824 0.82174 0.0
C706 C 1.00463 0.14557 0.80583 0.0
O707 O 1.00178 0.13058 0.79012 0.0
H708 H 0.04398 0.10039 0.75909 0.0
H709 H 0.0475 0.11649 0.84116 0.0
O710 O 0.05088 0.14806 0.75224 0.0
H711 H 0.11777 0.15001 0.83282 0.0
H712 H 0.04562 0.07864 0.83901 0.0
Cu713 Cu 0.62607 0.32199 0.52363 0.0
N714 N 0.6072 0.33783 0.54202 0.0
N715 N 0.58418 0.34987 0.57172 0.0
C716 C 0.5961 0.33457 0.56487 0.0
C717 C 0.58818 0.36321 0.55256 0.0
C718 C 0.60228 0.35577 0.53438 0.0
O719 O 0.62488 0.2961 0.53845 0.0
C720 C 0.62578 0.33869 0.47165 0.0
O721 O 0.6383 0.35072 0.48406 0.0
H722 H 0.5966 0.32122 0.57601 0.0
H723 H 0.60862 0.36303 0.51685 0.0
N724 N 0.65291 0.33112 0.53098 0.0
N725 N 0.68759 0.33404 0.53353 0.0
C726 C 0.67148 0.32459 0.52191 0.0
C727 C 0.65745 0.34515 0.54877 0.0
C728 C 0.67875 0.347 0.55036 0.0
C729 C 0.60842 0.28637 0.54257 0.0
O730 O 0.59038 0.29313 0.53427 0.0
H731 H 0.67313 0.31285 0.50768 0.0
H732 H 0.64603 0.35329 0.56013 0.0
O733 O 0.61938 0.32403 0.48471 0.0
H734 H 0.58165 0.3775 0.55184 0.0
H735 H 0.68707 0.35719 0.56287 0.0
H736 H 0.11722 0.36433 0.23143 0.0
H737 H 0.05976 0.38897 0.20165 0.0
H738 H 0.12494 0.35219 0.18601 0.0
H739 H 0.06766 0.37704 0.15616 0.0
H740 H 0.07692 0.33335 0.08728 0.0
H741 H 0.06969 0.34662 0.13207 0.0
H742 H 0.13433 0.36276 0.14013 0.0
H743 H 0.1417 0.34891 0.0955 0.0
C744 C 0.10626 0.36724 0.21519 0.0
C745 C 0.08782 0.37759 0.22026 0.0
C746 C 0.11077 0.36037 0.18908 0.0
C747 C 0.09693 0.36362 0.16739 0.0
C748 C 0.07855 0.37407 0.17244 0.0
C749 C 0.07407 0.381 0.19853 0.0
C750 C 0.08965 0.3396 0.09862 0.0
C751 C 0.10994 0.33993 0.08776 0.0
C752 C 0.08544 0.34742 0.12423 0.0
C753 C 0.10142 0.35577 0.13976 0.0
C754 C 0.12169 0.35627 0.12884 0.0
C755 C 0.12589 0.34851 0.10312 0.0
H756 H 0.96935 0.88594 0.32436 0.0
H757 H 0.90695 0.87142 0.29874 0.0
H758 H 0.96153 0.87428 0.37002 0.0
H759 H 0.89922 0.85964 0.34433 0.0
H760 H 0.88672 0.85554 0.43589 0.0
H761 H 0.8945 0.87043 0.392 0.0
H762 H 0.95495 0.84309 0.39169 0.0
H763 H 0.94733 0.82859 0.43563 0.0
C764 C 0.95395 0.88032 0.32845 0.0
C765 C 0.93882 0.87955 0.30781 0.0
C766 C 0.94949 0.87356 0.35462 0.0
C767 C 0.92975 0.866 0.36084 0.0
C768 C 0.9145 0.86557 0.34033 0.0
C769 C 0.919 0.8722 0.31412 0.0
C770 C 0.90175 0.85293 0.4266 0.0
C771 C 0.91635 0.84079 0.4392 0.0
C772 C 0.90615 0.86131 0.40134 0.0
C773 C 0.92533 0.8579 0.38827 0.0
C774 C 0.9401 0.84615 0.40125 0.0
C775 C 0.93564 0.83767 0.42633 0.0
H776 H 0.46472 0.63544 0.70542 0.0
H777 H 0.40741 0.66044 0.73514 0.0
H778 H 0.45668 0.64688 0.65976 0.0
H779 H 0.39953 0.67212 0.68952 0.0
H780 H 0.38271 0.67483 0.59885 0.0
H781 H 0.39001 0.66134 0.64373 0.0
H782 H 0.45476 0.67701 0.63523 0.0
H783 H 0.4476 0.6899 0.59026 0.0
C784 C 0.45041 0.64339 0.70225 0.0
C785 C 0.43676 0.64705 0.72403 0.0
C786 C 0.44585 0.65004 0.67606 0.0
C787 C 0.42747 0.66048 0.67092 0.0
C788 C 0.4137 0.66395 0.69265 0.0
C789 C 0.4183 0.65736 0.71887 0.0
C790 C 0.39853 0.6752 0.60644 0.0
C791 C 0.41453 0.68354 0.59091 0.0
C792 C 0.40269 0.66764 0.6323 0.0
C793 C 0.42298 0.66812 0.64317 0.0
C794 C 0.43899 0.67622 0.62745 0.0
C795 C 0.43483 0.68384 0.60172 0.0
H796 H 0.55581 0.16936 0.82189 0.0
H797 H 0.61778 0.14608 0.81272 0.0
H798 H 0.56463 0.18074 0.8671 0.0
H799 H 0.62639 0.1564 0.85874 0.0
H800 H 0.64202 0.19326 0.93306 0.0
H801 H 0.63415 0.1819 0.88717 0.0
H802 H 0.57023 0.17197 0.91141 0.0
H803 H 0.57807 0.18434 0.95646 0.0
C804 C 0.57127 0.16644 0.82972 0.0
C805 C 0.58608 0.1568 0.81371 0.0
C806 C 0.57634 0.17285 0.85585 0.0
C807 C 0.59625 0.16944 0.867 0.0
C808 C 0.61102 0.15965 0.8509 0.0
C809 C 0.60606 0.15357 0.82451 0.0
C810 C 0.62635 0.18858 0.92841 0.0
C811 C 0.61062 0.18985 0.94818 0.0
C812 C 0.62178 0.18196 0.90214 0.0
C813 C 0.60144 0.17608 0.8952 0.0
C814 C 0.58592 0.17686 0.91546 0.0
C815 C 0.59041 0.18384 0.94145 0.0
H816 H 0.06177 0.63142 0.33307 0.0
H817 H 0.112 0.66677 0.30323 0.0
H818 H 0.06932 0.64171 0.37937 0.0
H819 H 0.11924 0.67742 0.3495 0.0
H820 H 0.13919 0.67911 0.43872 0.0
H821 H 0.13272 0.66696 0.39295 0.0
H822 H 0.06641 0.66945 0.40779 0.0
H823 H 0.07287 0.68075 0.45369 0.0
C824 C 0.07437 0.64146 0.33635 0.0
C825 C 0.08623 0.64829 0.31436 0.0
C826 C 0.07865 0.64744 0.36294 0.0
C827 C 0.09488 0.66045 0.36826 0.0
C828 C 0.10681 0.6672 0.34626 0.0
C829 C 0.10255 0.66119 0.31966 0.0
C830 C 0.12325 0.67684 0.43236 0.0
C831 C 0.10658 0.68102 0.45001 0.0
C832 C 0.11952 0.67007 0.40596 0.0
C833 C 0.09902 0.66726 0.39655 0.0
C834 C 0.0824 0.67123 0.41434 0.0
C835 C 0.08612 0.67798 0.44066 0.0
H836 H 0.64312 0.84936 0.5971 0.0
H837 H 0.57763 0.83678 0.58819 0.0
H838 H 0.63628 0.86324 0.64184 0.0
H839 H 0.57089 0.85004 0.63311 0.0
H840 H 0.56297 0.89183 0.70393 0.0
H841 H 0.57025 0.8801 0.65812 0.0
H842 H 0.62631 0.85262 0.68731 0.0
H843 H 0.61923 0.86456 0.73296 0.0
C844 C 0.62727 0.84963 0.60458 0.0
C845 C 0.61096 0.84185 0.58901 0.0
C846 C 0.62336 0.8574 0.63038 0.0
C847 C 0.60303 0.8577 0.64117 0.0
C848 C 0.5867 0.85021 0.62539 0.0
C849 C 0.59062 0.84238 0.5997 0.0
C850 C 0.57687 0.88331 0.70059 0.0
C851 C 0.59048 0.87913 0.72219 0.0
C852 C 0.581 0.87651 0.67432 0.0
C853 C 0.59888 0.8654 0.66898 0.0
C854 C 0.61255 0.86134 0.69057 0.0
C855 C 0.60839 0.86809 0.71683 0.0
H856 H 0.38393 0.34962 0.93415 0.0
H857 H 0.44833 0.33239 0.94191 0.0
H858 H 0.39161 0.36375 0.8898 0.0
H859 H 0.45585 0.34592 0.89742 0.0
H860 H 0.46705 0.38795 0.82833 0.0
H861 H 0.45866 0.37636 0.8738 0.0
H862 H 0.40067 0.35329 0.84373 0.0
H863 H 0.40888 0.36514 0.79834 0.0
C864 C 0.39973 0.34891 0.92649 0.0
C865 C 0.41547 0.33977 0.94161 0.0
C866 C 0.40409 0.35684 0.90094 0.0
C867 C 0.42435 0.35594 0.88997 0.0
C868 C 0.44013 0.34705 0.9053 0.0
C869 C 0.43575 0.33907 0.93073 0.0
C870 C 0.45247 0.38047 0.8314 0.0
C871 C 0.43869 0.37744 0.80961 0.0
C872 C 0.4477 0.37374 0.85748 0.0
C873 C 0.429 0.36383 0.86245 0.0
C874 C 0.41508 0.36105 0.84073 0.0
C875 C 0.41988 0.36774 0.81463 0.0
H876 H 0.88389 0.17634 0.0974 0.0
H877 H 0.94852 0.19227 0.08847 0.0
H878 H 0.89154 0.16294 0.14221 0.0
H879 H 0.95601 0.17946 0.1334 0.0
H880 H 0.96674 0.13802 0.20361 0.0
H881 H 0.95845 0.14934 0.15796 0.0
H882 H 0.901 0.17391 0.18789 0.0
H883 H 0.90913 0.16236 0.23348 0.0
C884 C 0.89973 0.17692 0.1049 0.0
C885 C 0.91555 0.18547 0.08929 0.0
C886 C 0.90408 0.16941 0.13072 0.0
C887 C 0.92439 0.17014 0.14149 0.0
C888 C 0.94024 0.17846 0.1257 0.0
C889 C 0.93588 0.18603 0.1 0.0
C890 C 0.95231 0.1458 0.20048 0.0
C891 C 0.93864 0.14931 0.22229 0.0
C892 C 0.9476 0.15237 0.17429 0.0
C893 C 0.92907 0.16259 0.16921 0.0
C894 C 0.91529 0.16591 0.19098 0.0
C895 C 0.92003 0.15939 0.21719 0.0
H896 H 0.94558 0.63601 0.82038 0.0
H897 H 0.98236 0.68752 0.82562 0.0
H898 H 0.92967 0.64332 0.86395 0.0
H899 H 0.96749 0.69436 0.87023 0.0
H900 H 0.92226 0.71194 0.9379 0.0
H901 H 0.9388 0.70504 0.89417 0.0
H902 H 0.93277 0.64432 0.90989 0.0
H903 H 0.91513 0.65136 0.95228 0.0
C904 C 0.95065 0.64869 0.83119 0.0
C905 C 0.96531 0.66113 0.81951 0.0
C906 C 0.94155 0.65291 0.85641 0.0
C907 C 0.94718 0.6695 0.87108 0.0
C908 C 0.96231 0.68167 0.85957 0.0
C909 C 0.97107 0.67764 0.83403 0.0
C910 C 0.92441 0.69715 0.93181 0.0
C911 C 0.91714 0.68223 0.94843 0.0
C912 C 0.93409 0.69312 0.90679 0.0
C913 C 0.93716 0.67403 0.89801 0.0
C914 C 0.93026 0.6592 0.91519 0.0
C915 C 0.92021 0.66324 0.93977 0.0
H916 H 0.14284 0.16814 0.60077 0.0
H917 H 0.08626 0.19865 0.581 0.0
H918 H 0.12746 0.15741 0.64316 0.0
H919 H 0.07037 0.18726 0.62333 0.0
H920 H 0.05558 0.17495 0.71468 0.0
H921 H 0.0695 0.18811 0.67223 0.0
H922 H 0.10269 0.1351 0.65797 0.0
H923 H 0.08947 0.12239 0.70052 0.0
C924 C 0.12706 0.17259 0.6055 0.0
C925 C 0.11577 0.18418 0.58735 0.0
C926 C 0.11811 0.16625 0.62979 0.0
C927 C 0.09742 0.17105 0.63661 0.0
C928 C 0.08633 0.18327 0.61891 0.0
C929 C 0.09544 0.18981 0.59459 0.0
C930 C 0.0657 0.16608 0.70229 0.0
C931 C 0.07155 0.14767 0.71116 0.0
C932 C 0.07369 0.17362 0.6779 0.0
C933 C 0.0876 0.16286 0.66173 0.0
C934 C 0.09258 0.14412 0.67014 0.0
C935 C 0.08481 0.13671 0.69452 0.0
H936 H 0.63655 0.36936 0.4407 0.0
H937 H 0.59687 0.31946 0.43997 0.0
H938 H 0.62282 0.37911 0.39706 0.0
H939 H 0.58337 0.32907 0.39527 0.0
H940 H 0.54941 0.36496 0.32762 0.0
H941 H 0.5619 0.35318 0.37176 0.0
H942 H 0.62441 0.37058 0.35067 0.0
H943 H 0.61199 0.3827 0.30752 0.0
C944 C 0.62503 0.36028 0.43109 0.0
C945 C 0.61795 0.34352 0.44394 0.0
C946 C 0.61719 0.36587 0.40583 0.0
C947 C 0.60206 0.35485 0.39234 0.0
C948 C 0.5949 0.33802 0.4051 0.0
C949 C 0.60277 0.3324 0.43062 0.0
C950 C 0.56579 0.3663 0.33253 0.0
C951 C 0.57961 0.37502 0.31407 0.0
C952 C 0.573 0.35941 0.35775 0.0
C953 C 0.59417 0.36107 0.36503 0.0
C954 C 0.60794 0.36941 0.3462 0.0
C955 C 0.60077 0.37634 0.32126 0.0
H956 H 0.44648 0.85659 0.22525 0.0
H957 H 0.49853 0.88297 0.18418 0.0
H958 H 0.43417 0.84373 0.18206 0.0
H959 H 0.48596 0.87049 0.14089 0.0
H960 H 0.4711 0.82948 0.07223 0.0
H961 H 0.48264 0.84116 0.11627 0.0
H962 H 0.4187 0.8522 0.13906 0.0
H963 H 0.40707 0.84005 0.09495 0.0
C964 C 0.45526 0.85975 0.20699 0.0
C965 C 0.47359 0.8708 0.20831 0.0
C966 C 0.4481 0.85244 0.18213 0.0
C967 C 0.45905 0.85596 0.15784 0.0
C968 C 0.47727 0.86717 0.15916 0.0
C969 C 0.48444 0.87446 0.18403 0.0
C970 C 0.45942 0.83426 0.08665 0.0
C971 C 0.43811 0.83383 0.07991 0.0
C972 C 0.46609 0.84115 0.11192 0.0
C973 C 0.45168 0.84789 0.13127 0.0
C974 C 0.43028 0.84702 0.12482 0.0
C975 C 0.42359 0.84007 0.09946 0.0
H976 H 0.94473 0.35795 0.72631 0.0
H977 H 0.99724 0.38323 0.6848 0.0
H978 H 0.9325 0.34449 0.68345 0.0
H979 H 0.98476 0.37014 0.64185 0.0
H980 H 0.96977 0.32829 0.57441 0.0
H981 H 0.98122 0.34028 0.61832 0.0
H982 H 0.91735 0.3527 0.64002 0.0
H983 H 0.9058 0.34026 0.59604 0.0
C984 C 0.95364 0.36074 0.70803 0.0
C985 C 0.97205 0.37166 0.70911 0.0
C986 C 0.94653 0.35309 0.68336 0.0
C987 C 0.95763 0.35612 0.65907 0.0
C988 C 0.97595 0.36719 0.66016 0.0
C989 C 0.98307 0.37484 0.68482 0.0
C990 C 0.95809 0.33342 0.58858 0.0
C991 C 0.93683 0.33333 0.58157 0.0
C992 C 0.96471 0.34048 0.61376 0.0
C993 C 0.95029 0.34773 0.63273 0.0
C994 C 0.92893 0.34713 0.62605 0.0
C995 C 0.92228 0.34001 0.60079 0.0
H996 H 0.47744 0.16118 0.32423 0.0
H997 H 0.41971 0.12996 0.31655 0.0
H998 H 0.4659 0.17344 0.36858 0.0
H999 H 0.40798 0.14262 0.35967 0.0
H1000 H 0.40045 0.14959 0.44927 0.0
H1001 H 0.41404 0.13878 0.40607 0.0
H1002 H 0.4417 0.19434 0.39257 0.0
H1003 H 0.42857 0.20506 0.43699 0.0
C1004 C 0.46232 0.15695 0.33193 0.0
C1005 C 0.44966 0.14435 0.31691 0.0
C1006 C 0.45561 0.16411 0.35726 0.0
C1007 C 0.43605 0.1589 0.36804 0.0
C1008 C 0.42335 0.14661 0.3526 0.0
C1009 C 0.43009 0.13937 0.32762 0.0
C1010 C 0.40935 0.15963 0.43717 0.0
C1011 C 0.41319 0.1783 0.44662 0.0
C1012 C 0.41711 0.15341 0.41215 0.0
C1013 C 0.42878 0.16571 0.3954 0.0
C1014 C 0.43289 0.1844 0.40491 0.0
C1015 C 0.42522 0.19061 0.43029 0.0
H1016 H 0.56258 0.69777 0.22232 0.0
H1017 H 0.56353 0.63727 0.20399 0.0
H1018 H 0.57765 0.70469 0.17799 0.0
H1019 H 0.57829 0.64424 0.15925 0.0
H1020 H 0.62774 0.6615 0.09683 0.0
H1021 H 0.61087 0.65501 0.14013 0.0
H1022 H 0.57179 0.7049 0.12948 0.0
H1023 H 0.58901 0.71162 0.08613 0.0
C1024 C 0.56575 0.68592 0.2087 0.0
C1025 C 0.56188 0.66692 0.21688 0.0
C1026 C 0.57434 0.68993 0.18313 0.0
C1027 C 0.57937 0.67505 0.16495 0.0
C1028 C 0.57496 0.65607 0.17284 0.0
C1029 C 0.56631 0.65206 0.19844 0.0
C1030 C 0.61562 0.67119 0.1037 0.0
C1031 C 0.6098 0.68713 0.08788 0.0
C1032 C 0.60577 0.66733 0.12851 0.0
C1033 C 0.58978 0.67929 0.13834 0.0
C1034 C 0.58413 0.69542 0.12271 0.0
C1035 C 0.594 0.69928 0.0978 0.0
H1036 H 0.06394 0.83069 0.81176 0.0
H1037 H 0.06438 0.89124 0.82989 0.0
H1038 H 0.07916 0.8239 0.85605 0.0
H1039 H 0.07924 0.88439 0.87459 0.0
H1040 H 0.1293 0.86758 0.93629 0.0
H1041 H 0.112 0.87389 0.89326 0.0
H1042 H 0.07371 0.82372 0.90462 0.0
H1043 H 0.09139 0.81718 0.9477 0.0
C1044 C 0.06702 0.84258 0.82533 0.0
C1045 C 0.063 0.86155 0.8171 0.0
C1046 C 0.07568 0.83864 0.85087 0.0
C1047 C 0.08063 0.85357 0.86895 0.0
C1048 C 0.076 0.87253 0.86105 0.0
C1049 C 0.0673 0.87646 0.83547 0.0
C1050 C 0.11725 0.8578 0.92964 0.0
C1051 C 0.1118 0.84183 0.94556 0.0
C1052 C 0.10715 0.86155 0.90499 0.0
C1053 C 0.09126 0.84945 0.89544 0.0
C1054 C 0.08596 0.8333 0.91118 0.0
C1055 C 0.09609 0.82954 0.93593 0.0
H1056 H 0.08269 0.32742 0.36734 0.0
H1057 H 0.14294 0.34339 0.3989 0.0
H1058 H 0.08084 0.30127 0.40004 0.0
H1059 H 0.141 0.31751 0.432 0.0
H1060 H 0.14211 0.25584 0.46374 0.0
H1061 H 0.14315 0.2837 0.43418 0.0
H1062 H 0.07713 0.2925 0.4466 0.0
H1063 H 0.07599 0.26415 0.47557 0.0
C1064 C 0.09541 0.32555 0.38154 0.0
C1065 C 0.11303 0.33747 0.38034 0.0
C1066 C 0.09435 0.31053 0.4004 0.0
C1067 C 0.11082 0.30711 0.41871 0.0
C1068 C 0.1282 0.31938 0.41791 0.0
C1069 C 0.12931 0.33429 0.39893 0.0
C1070 C 0.12782 0.26378 0.46037 0.0
C1071 C 0.10895 0.25767 0.47204 0.0
C1072 C 0.12843 0.27989 0.44347 0.0
C1073 C 0.11022 0.29045 0.43784 0.0
C1074 C 0.09142 0.28459 0.45005 0.0
C1075 C 0.09079 0.26839 0.46687 0.0
H1076 H 0.90285 0.85796 0.61111 0.0
H1077 H 0.95778 0.83075 0.57786 0.0
H1078 H 0.92351 0.86942 0.64976 0.0
H1079 H 0.97827 0.84237 0.61578 0.0
H1080 H 1.00703 0.84939 0.69799 0.0
H1081 H 0.98329 0.83715 0.66347 0.0
H1082 H 0.95125 0.89163 0.66179 0.0
H1083 H 0.97466 0.90372 0.69683 0.0
C1084 C 0.91931 0.85454 0.61192 0.0
C1085 C 0.9286 0.84339 0.59137 0.0
C1086 C 0.93117 0.86112 0.63405 0.0
C1087 C 0.95256 0.85664 0.63613 0.0
C1088 C 0.96179 0.84573 0.6153 0.0
C1089 C 0.95001 0.8392 0.59333 0.0
C1090 C 0.99476 0.85869 0.69055 0.0
C1091 C 0.9929 0.8776 0.70011 0.0
C1092 C 0.98122 0.85172 0.67055 0.0
C1093 C 0.96549 0.86348 0.65947 0.0
C1094 C 0.96307 0.88212 0.6699 0.0
C1095 C 0.97659 0.88908 0.68996 0.0
H1096 H 0.38623 0.77201 0.96639 0.0
H1097 H 0.45302 0.76489 0.97147 0.0
H1098 H 0.38401 0.74369 0.93762 0.0
H1099 H 0.45074 0.73624 0.94326 0.0
H1100 H 0.44159 0.70042 0.86578 0.0
H1101 H 0.44422 0.72733 0.89706 0.0
H1102 H 0.38718 0.70958 0.93627 0.0
H1103 H 0.38447 0.68275 0.90475 0.0
C1104 C 0.40044 0.76427 0.96168 0.0
C1105 C 0.41982 0.77082 0.97123 0.0
C1106 C 0.39915 0.74793 0.94523 0.0
C1107 C 0.4172 0.73763 0.93793 0.0
C1108 C 0.43654 0.74395 0.94803 0.0
C1109 C 0.43783 0.76033 0.96442 0.0
C1110 C 0.42971 0.7021 0.88124 0.0
C1111 C 0.41277 0.68936 0.88261 0.0
C1112 C 0.43124 0.71757 0.89927 0.0
C1113 C 0.4159 0.72073 0.91928 0.0
C1114 C 0.3991 0.70784 0.92087 0.0
C1115 C 0.39754 0.6924 0.90277 0.0
H1116 H 0.63414 0.17744 0.1522 0.0
H1117 H 0.59098 0.1825 0.08521 0.0
H1118 H 0.60503 0.16992 0.18283 0.0
H1119 H 0.56198 0.17562 0.11602 0.0
H1120 H 0.51942 0.19194 0.19223 0.0
H1121 H 0.54955 0.19699 0.16253 0.0
H1122 H 0.57299 0.14091 0.18309 0.0
H1123 H 0.54245 0.1355 0.21223 0.0
C1124 C 0.6185 0.17678 0.14398 0.0
C1125 C 0.61489 0.18048 0.11625 0.0
C1126 C 0.60189 0.17248 0.16149 0.0
C1127 C 0.58132 0.17231 0.15175 0.0
C1128 C 0.57772 0.17573 0.12401 0.0
C1129 C 0.59434 0.17954 0.10638 0.0
C1130 C 0.53105 0.18072 0.19061 0.0
C1131 C 0.52855 0.16332 0.20461 0.0
C1132 C 0.54821 0.18359 0.1735 0.0
C1133 C 0.5635 0.16931 0.17052 0.0
C1134 C 0.5614 0.15213 0.1851 0.0
C1135 C 0.54394 0.14905 0.20171 0.0
H1136 H 0.14355 0.68581 0.13766 0.0
H1137 H 0.08237 0.70155 0.16672 0.0
H1138 H 0.1421 0.71157 0.10433 0.0
H1139 H 0.08099 0.72754 0.1337 0.0
H1140 H 0.07746 0.76364 0.05686 0.0
H1141 H 0.07833 0.73568 0.08661 0.0
H1142 H 0.14373 0.74552 0.10201 0.0
H1143 H 0.14299 0.77304 0.07173 0.0
C1144 C 0.12983 0.69484 0.13705 0.0
C1145 C 0.11313 0.69163 0.15501 0.0
C1146 C 0.12899 0.70967 0.11793 0.0
C1147 C 0.11147 0.7218 0.11631 0.0
C1148 C 0.09462 0.71837 0.134 0.0
C1149 C 0.09541 0.70345 0.15303 0.0
C1150 C 0.09207 0.75973 0.0664 0.0
C1151 C 0.11015 0.77063 0.06185 0.0
C1152 C 0.09254 0.74375 0.08366 0.0
C1153 C 0.11108 0.73829 0.0969 0.0
C1154 C 0.12922 0.74905 0.09193 0.0
C1155 C 0.12877 0.76495 0.07461 0.0
H1156 H 0.56241 0.88731 0.30364 0.0
H1157 H 0.51896 0.85307 0.34978 0.0
H1158 H 0.59033 0.87827 0.335 0.0
H1159 H 0.54686 0.84419 0.38116 0.0
H1160 H 0.59566 0.85242 0.44889 0.0
H1161 H 0.56875 0.86162 0.41624 0.0
H1162 H 0.6107 0.84883 0.35002 0.0
H1163 H 0.63763 0.83947 0.38263 0.0
C1164 C 0.55884 0.87773 0.32032 0.0
C1165 C 0.53843 0.87092 0.32416 0.0
C1166 C 0.57486 0.87254 0.33826 0.0
C1167 C 0.57077 0.86065 0.3607 0.0
C1168 C 0.55045 0.85357 0.36427 0.0
C1169 C 0.5345 0.85853 0.34612 0.0
C1170 C 0.59925 0.85176 0.42738 0.0
C1171 C 0.61883 0.8452 0.4184 0.0
C1172 C 0.58375 0.85686 0.40868 0.0
C1173 C 0.58753 0.85581 0.38054 0.0
C1174 C 0.60732 0.84985 0.37155 0.0
C1175 C 0.62274 0.84447 0.39026 0.0
H1176 H 0.38742 0.26064 0.55327 0.0
H1177 H 0.45378 0.25779 0.56752 0.0
H1178 H 0.38514 0.28899 0.58204 0.0
H1179 H 0.45142 0.28583 0.59693 0.0
H1180 H 0.38439 0.3227 0.66185 0.0
H1181 H 0.38697 0.29671 0.62916 0.0
H1182 H 0.44529 0.31965 0.59989 0.0
H1183 H 0.44277 0.34564 0.63295 0.0
C1184 C 0.40156 0.26611 0.56243 0.0
C1185 C 0.42077 0.25685 0.55811 0.0
C1186 C 0.40023 0.28231 0.57914 0.0
C1187 C 0.41805 0.28966 0.59214 0.0
C1188 C 0.43738 0.28075 0.58711 0.0
C1189 C 0.43873 0.26458 0.57027 0.0
C1190 C 0.39765 0.32239 0.64825 0.0
C1191 C 0.41335 0.33636 0.65011 0.0
C1192 C 0.39913 0.30744 0.62939 0.0
C1193 C 0.41631 0.30602 0.61169 0.0
C1194 C 0.43196 0.32008 0.61339 0.0
C1195 C 0.43052 0.33503 0.63237 0.0
H1196 H 1.00743 0.16991 0.84942 0.0
H1197 H 0.9632 0.13629 0.80364 0.0
H1198 H 0.97989 0.17899 0.88126 0.0
H1199 H 0.93566 0.14548 0.83547 0.0
H1200 H 0.88901 0.18467 0.88302 0.0
H1201 H 0.91577 0.17491 0.85044 0.0
H1202 H 0.9578 0.16239 0.91662 0.0
H1203 H 0.93103 0.17207 0.94927 0.0
C1204 C 0.99181 0.16459 0.84598 0.0
C1205 C 0.98755 0.15237 0.82392 0.0
C1206 C 0.97606 0.16967 0.86439 0.0
C1207 C 0.95561 0.16285 0.86102 0.0
C1208 C 0.95123 0.15103 0.83858 0.0
C1209 C 0.96703 0.14575 0.82036 0.0
C1210 C 0.90388 0.17966 0.89066 0.0
C1211 C 0.90784 0.17915 0.9188 0.0
C1212 C 0.91921 0.17403 0.87196 0.0
C1213 C 0.93897 0.16801 0.88092 0.0
C1214 C 0.94282 0.16719 0.90906 0.0
C1215 C 0.9274 0.17257 0.92778 0.0
H1216 H 0.896 0.69147 0.70393 0.0
H1217 H 0.95453 0.68732 0.66083 0.0
H1218 H 0.88441 0.71623 0.67266 0.0
H1219 H 0.94291 0.71233 0.62954 0.0
H1220 H 0.92105 0.77055 0.59475 0.0
H1221 H 0.93382 0.74682 0.62726 0.0
H1222 H 0.8742 0.71828 0.62482 0.0
H1223 H 0.86129 0.74224 0.59303 0.0
C1224 C 0.90638 0.69573 0.6877 0.0
C1225 C 0.92614 0.68719 0.68478 0.0
C1226 C 0.89972 0.70998 0.66976 0.0
C1227 C 0.91265 0.71614 0.64844 0.0
C1228 C 0.93263 0.708 0.64588 0.0
C1229 C 0.9393 0.69367 0.66384 0.0
C1230 C 0.91061 0.75932 0.60135 0.0
C1231 C 0.89011 0.75834 0.59129 0.0
C1232 C 0.91801 0.74561 0.61976 0.0
C1233 C 0.90502 0.73068 0.62868 0.0
C1234 C 0.88454 0.72972 0.61861 0.0
C1235 C 0.8772 0.74334 0.60014 0.0
H1236 H 0.99483 0.13086 0.34941 0.0
H1237 H 1.00151 0.18827 0.31781 0.0
H1238 H 0.02374 0.13626 0.3801 0.0
H1239 H 0.03116 0.19349 0.34804 0.0
H1240 H 0.06248 0.20305 0.43245 0.0
H1241 H 0.03769 0.1985 0.39529 0.0
H1242 H 0.05985 0.14039 0.38494 0.0
H1243 H 0.08395 0.14488 0.42265 0.0
C1244 C 1.00275 0.14454 0.3486 0.0
C1245 C 0.99573 0.15916 0.33121 0.0
C1246 C 0.01949 0.14762 0.36616 0.0
C1247 C 0.02986 0.16536 0.36671 0.0
C1248 C 0.02337 0.17976 0.34852 0.0
C1249 C 1.00647 0.1767 0.331 0.0
C1250 C 0.06218 0.18943 0.42192 0.0
C1251 C 0.07489 0.17423 0.43065 0.0
C1252 C 0.04804 0.1868 0.40055 0.0
C1253 C 0.04652 0.16897 0.38724 0.0
C1254 C 0.06013 0.15415 0.39513 0.0
C1255 C 0.07401 0.15671 0.41668 0.0
H1256 H 0.60856 0.26319 0.08741 0.0
H1257 H 0.67027 0.27456 0.1182 0.0
H1258 H 0.5947 0.28937 0.11498 0.0
H1259 H 0.65648 0.30041 0.14619 0.0
H1260 H 0.62952 0.35865 0.16857 0.0
H1261 H 0.64292 0.33189 0.1423 0.0
H1262 H 0.58722 0.2996 0.16024 0.0
H1263 H 0.57327 0.32679 0.18524 0.0
C1264 C 0.61911 0.27114 0.10032 0.0
C1265 C 0.64053 0.26689 0.10045 0.0
C1266 C 0.61118 0.28613 0.11621 0.0
C1267 C 0.62446 0.29712 0.13279 0.0
C1268 C 0.64583 0.29257 0.13326 0.0
C1269 C 0.65376 0.27771 0.11723 0.0
C1270 C 0.61999 0.34595 0.16678 0.0
C1271 C 0.60021 0.34506 0.17905 0.0
C1272 C 0.62784 0.33043 0.15195 0.0
C1273 C 0.61619 0.3135 0.14909 0.0
C1274 C 0.59653 0.31248 0.16167 0.0
C1275 C 0.58863 0.32805 0.17639 0.0
H1276 H 0.44793 0.88468 0.92442 0.0
H1277 H 0.46846 0.82623 0.93428 0.0
H1278 H 0.47326 0.88923 0.8881 0.0
H1279 H 0.49435 0.83081 0.89844 0.0
H1280 H 0.53146 0.84105 0.8215 0.0
H1281 H 0.50157 0.836 0.85137 0.0
H1282 H 0.5097 0.89288 0.88448 0.0
H1283 H 0.53895 0.8981 0.85411 0.0
C1284 C 0.45792 0.8728 0.91878 0.0
C1285 C 0.45638 0.85517 0.93236 0.0
C1286 C 0.4725 0.8754 0.89802 0.0
C1287 C 0.48612 0.86049 0.8905 0.0
C1288 C 0.48402 0.84259 0.90343 0.0
C1289 C 0.46922 0.83993 0.92404 0.0
C1290 C 0.52666 0.85256 0.83491 0.0
C1291 C 0.53764 0.86997 0.83542 0.0
C1292 C 0.50962 0.84961 0.8522 0.0
C1293 C 0.50321 0.86398 0.8705 0.0
C1294 C 0.5139 0.88156 0.87042 0.0
C1295 C 0.53081 0.88455 0.85304 0.0
H1296 H 0.85747 0.28052 0.93386 0.0
H1297 H 0.91953 0.25779 0.94547 0.0
H1298 H 0.87162 0.30639 0.90651 0.0
H1299 H 0.93368 0.2837 0.91783 0.0
H1300 H 0.94706 0.32178 0.84263 0.0
H1301 H 0.934 0.29561 0.87063 0.0
H1302 H 0.89294 0.33505 0.91218 0.0
H1303 H 0.90604 0.3612 0.8844 0.0
C1304 C 0.87415 0.28109 0.93084 0.0
C1305 C 0.88733 0.26705 0.9421 0.0
C1306 C 0.88228 0.29596 0.91509 0.0
C1307 C 0.9038 0.29719 0.91009 0.0
C1308 C 0.917 0.28306 0.92106 0.0
C1309 C 0.90887 0.26818 0.93691 0.0
C1310 C 0.93543 0.32495 0.85792 0.0
C1311 C 0.92756 0.34366 0.86108 0.0
C1312 C 0.92792 0.30991 0.87398 0.0
C1313 C 0.91233 0.31321 0.89354 0.0
C1314 C 0.90467 0.33194 0.89695 0.0
C1315 C 0.91219 0.34696 0.88097 0.0
H1316 H 0.53334 0.13215 0.68566 0.0
H1317 H 0.52625 0.19001 0.71556 0.0
H1318 H 0.50455 0.13713 0.65455 0.0
H1319 H 0.49669 0.19481 0.68506 0.0
H1320 H 0.46562 0.20354 0.60056 0.0
H1321 H 0.49013 0.19937 0.63813 0.0
H1322 H 0.46867 0.14115 0.64868 0.0
H1323 H 0.44496 0.14525 0.61043 0.0
C1324 C 0.52532 0.14583 0.68604 0.0
C1325 C 0.5322 0.16071 0.70302 0.0
C1326 C 0.50866 0.14868 0.66823 0.0
C1327 C 0.49822 0.16643 0.66712 0.0
C1328 C 0.50456 0.18107 0.68497 0.0
C1329 C 0.52141 0.17826 0.70264 0.0
C1330 C 0.46601 0.18999 0.61125 0.0
C1331 C 0.45364 0.17464 0.60243 0.0
C1332 C 0.47999 0.18757 0.63286 0.0
C1333 C 0.48166 0.16981 0.64633 0.0
C1334 C 0.4683 0.15485 0.63838 0.0
C1335 C 0.45462 0.1572 0.61656 0.0
H1336 H 0.66638 0.74227 0.43824 0.0
H1337 H 0.60591 0.76965 0.43987 0.0
H1338 H 0.65284 0.71769 0.40824 0.0
H1339 H 0.5926 0.74547 0.40867 0.0
H1340 H 0.57096 0.68694 0.37543 0.0
H1341 H 0.58345 0.71189 0.40614 0.0
H1342 H 0.64171 0.7138 0.36212 0.0
H1343 H 0.6293 0.68881 0.33176 0.0
C1344 C 0.65018 0.74308 0.43231 0.0
C1345 C 0.63728 0.75803 0.44165 0.0
C1346 C 0.64246 0.72907 0.41473 0.0
C1347 C 0.62165 0.72963 0.40585 0.0
C1348 C 0.60867 0.7445 0.41526 0.0
C1349 C 0.61639 0.75852 0.43294 0.0
C1350 C 0.58636 0.6928 0.37221 0.0
C1351 C 0.59918 0.68576 0.35125 0.0
C1352 C 0.59352 0.70713 0.38979 0.0
C1353 C 0.61366 0.71479 0.38675 0.0
C1354 C 0.6263 0.70795 0.36547 0.0
C1355 C 0.61918 0.69361 0.34801 0.0
H1356 H 0.08367 0.88293 0.10976 0.0
H1357 H 0.06191 0.82511 0.09829 0.0
H1358 H 0.05888 0.8874 0.14675 0.0
H1359 H 0.03645 0.82965 0.13474 0.0
H1360 H 0.99905 0.83982 0.21149 0.0
H1361 H 0.0291 0.8344 0.18192 0.0
H1362 H 0.02267 0.89189 0.15033 0.0
H1363 H 0.99334 0.89747 0.18036 0.0
C1364 C 0.07353 0.87117 0.11522 0.0
C1365 C 0.07453 0.85376 0.10098 0.0
C1366 C 0.05925 0.87372 0.13635 0.0
C1367 C 0.04536 0.859 0.14354 0.0
C1368 C 0.04699 0.84126 0.13 0.0
C1369 C 0.06152 0.83864 0.10905 0.0
C1370 C 1.00429 0.85138 0.19852 0.0
C1371 C 0.99373 0.86906 0.19827 0.0
C1372 C 0.02143 0.84822 0.1814 0.0
C1373 C 0.02833 0.86266 0.16358 0.0
C1374 C 0.0181 0.88051 0.16403 0.0
C1375 C 1.00112 0.88369 0.18121 0.0
H1376 H 0.62968 0.78374 1.00568 0.0
H1377 H 0.61266 0.74398 0.94212 0.0
H1378 H 0.62818 0.81015 0.97282 0.0
H1379 H 0.6115 0.77024 0.9095 0.0
H1380 H 0.64139 0.8175 0.85589 0.0
H1381 H 0.64031 0.7922 0.89011 0.0
H1382 H 0.60087 0.8275 0.94069 0.0
H1383 H 0.60181 0.85291 0.90608 0.0
C1384 C 0.6255 0.78064 0.98481 0.0
C1385 C 0.62137 0.76172 0.97656 0.0
C1386 C 0.62457 0.79577 0.96604 0.0
C1387 C 0.61985 0.79222 0.93858 0.0
C1388 C 0.61536 0.77338 0.93047 0.0
C1389 C 0.61595 0.75835 0.94925 0.0
C1390 C 0.63258 0.81992 0.87435 0.0
C1391 C 0.62174 0.83722 0.87834 0.0
C1392 C 0.63182 0.80538 0.89385 0.0
C1393 C 0.62048 0.80786 0.91805 0.0
C1394 C 0.6098 0.82523 0.92227 0.0
C1395 C 0.61023 0.83969 0.90244 0.0
H1396 H 0.51674 0.36306 0.1471 0.0
H1397 H 0.48217 0.3687 0.22209 0.0
H1398 H 0.48492 0.35533 0.12302 0.0
H1399 H 0.44986 0.36119 0.19759 0.0
H1400 H 0.40117 0.32703 0.14517 0.0
H1401 H 0.43117 0.33582 0.17299 0.0
H1402 H 0.45397 0.37159 0.10786 0.0
H1403 H 0.42433 0.36248 0.07987 0.0
C1404 C 0.5023 0.36264 0.15852 0.0
C1405 C 0.50202 0.36664 0.18654 0.0
C1406 C 0.48396 0.35836 0.14459 0.0
C1407 C 0.4647 0.35802 0.15819 0.0
C1408 C 0.46443 0.36135 0.18647 0.0
C1409 C 0.48293 0.36563 0.20052 0.0
C1410 C 0.41244 0.33697 0.1369 0.0
C1411 C 0.41042 0.34389 0.11013 0.0
C1412 C 0.42964 0.34205 0.15293 0.0
C1413 C 0.44521 0.35417 0.14255 0.0
C1414 C 0.44257 0.36185 0.1163 0.0
C1415 C 0.42545 0.35674 0.10028 0.0
H1416 H 0.95262 0.26651 0.47133 0.0
H1417 H 0.88576 0.27295 0.46607 0.0
H1418 H 0.9508 0.2381 0.44259 0.0
H1419 H 0.88399 0.24485 0.43677 0.0
H1420 H 0.88562 0.18402 0.40313 0.0
H1421 H 0.88776 0.21069 0.435 0.0
H1422 H 0.94443 0.22969 0.39608 0.0
H1423 H 0.94236 0.20296 0.36443 0.0
C1424 C 0.93751 0.26185 0.46412 0.0
C1425 C 0.91935 0.27208 0.47103 0.0
C1426 C 0.93648 0.24561 0.44743 0.0
C1427 C 0.91726 0.23918 0.43713 0.0
C1428 C 0.89905 0.24919 0.44453 0.0
C1429 C 0.90007 0.26541 0.46128 0.0
C1430 C 0.89849 0.19392 0.40128 0.0
C1431 C 0.91379 0.19128 0.3811 0.0
C1432 C 0.89972 0.20926 0.41958 0.0
C1433 C 0.91626 0.22243 0.41819 0.0
C1434 C 0.93165 0.21969 0.39814 0.0
C1435 C 0.93045 0.20433 0.37989 0.0
H1436 H 0.09953 0.63814 0.58422 0.0
H1437 H 0.11265 0.6924 0.62277 0.0
H1438 H 0.07565 0.6301 0.62107 0.0
H1439 H 0.08866 0.68431 0.6597 0.0
H1440 H 0.02283 0.67131 0.69801 0.0
H1441 H 0.04993 0.67988 0.66516 0.0
H1442 H 0.07532 0.62269 0.67049 0.0
H1443 H 0.04839 0.61411 0.70318 0.0
C1444 C 0.0975 0.64828 0.6007 0.0
C1445 C 0.10806 0.6659 0.6005 0.0
C1446 C 0.08384 0.64364 0.6219 0.0
C1447 C 0.08019 0.65658 0.64334 0.0
C1448 C 0.09099 0.67409 0.64339 0.0
C1449 C 0.10487 0.67865 0.62232 0.0
C1450 C 0.03434 0.66063 0.69242 0.0
C1451 C 0.03332 0.64199 0.70321 0.0
C1452 C 0.04992 0.66557 0.67365 0.0
C1453 C 0.06471 0.65192 0.66503 0.0
C1454 C 0.06402 0.63347 0.6764 0.0
C1455 C 0.04861 0.62859 0.69531 0.0
H1456 H 0.64235 0.27129 0.56869 0.0
H1457 H 0.57676 0.26142 0.55493 0.0
H1458 H 0.64353 0.2441 0.59946 0.0
H1459 H 0.57808 0.2337 0.58511 0.0
H1460 H 0.58267 0.20068 0.66597 0.0
H1461 H 0.58091 0.22602 0.63203 0.0
H1462 H 0.64237 0.21042 0.60348 0.0
H1463 H 0.64422 0.18536 0.63788 0.0
C1464 C 0.62822 0.26314 0.57188 0.0
C1465 C 0.60944 0.26864 0.55933 0.0
C1466 C 0.62892 0.24741 0.5895 0.0
C1467 C 0.6109 0.23661 0.59497 0.0
C1468 C 0.59221 0.24182 0.58183 0.0
C1469 C 0.59148 0.25766 0.5643 0.0
C1470 C 0.59571 0.20252 0.65227 0.0
C1471 C 0.61364 0.19102 0.65479 0.0
C1472 C 0.5947 0.21706 0.63268 0.0
C1473 C 0.61153 0.22042 0.61493 0.0
C1474 C 0.62926 0.20859 0.61709 0.0
C1475 C 0.63033 0.19415 0.63681 0.0
H1476 H 0.06136 0.38777 0.8025 0.0
H1477 H 0.01746 0.35469 0.84963 0.0
H1478 H 0.08923 0.37856 0.83381 0.0
H1479 H 0.04532 0.3456 0.88091 0.0
H1480 H 0.09455 0.35317 0.94804 0.0
H1481 H 0.06766 0.36266 0.91554 0.0
H1482 H 0.10915 0.34917 0.84908 0.0
H1483 H 0.13606 0.33959 0.88154 0.0
C1484 C 0.05768 0.3784 0.81938 0.0
C1485 C 0.03715 0.37197 0.82352 0.0
C1486 C 0.07367 0.37312 0.83729 0.0
C1487 C 0.06945 0.3615 0.85998 0.0
C1488 C 0.04901 0.35479 0.86384 0.0
C1489 C 0.03308 0.35986 0.84575 0.0
C1490 C 0.09804 0.35241 0.92651 0.0
C1491 C 0.11749 0.3456 0.91742 0.0
C1492 C 0.08256 0.35769 0.90789 0.0
C1493 C 0.08621 0.35652 0.87973 0.0
C1494 C 0.10587 0.3503 0.87063 0.0
C1495 C 0.12128 0.34478 0.88925 0.0
H1496 H 0.88319 0.75938 0.05881 0.0
H1497 H 0.9499 0.75764 0.07027 0.0
H1498 H 0.88114 0.78803 0.08702 0.0
H1499 H 0.9478 0.78591 0.0992 0.0
H1500 H 0.93949 0.84621 0.13322 0.0
H1501 H 0.94152 0.81951 0.10129 0.0
H1502 H 0.88381 0.79708 0.13337 0.0
H1503 H 0.88168 0.82388 0.16483 0.0
C1504 C 0.89744 0.76513 0.0673 0.0
C1505 C 0.91671 0.75615 0.06227 0.0
C1506 C 0.89625 0.7815 0.0837 0.0
C1507 C 0.91427 0.78929 0.0957 0.0
C1508 C 0.9336 0.78053 0.09012 0.0
C1509 C 0.93481 0.76422 0.07357 0.0
C1510 C 0.92727 0.83555 0.13349 0.0
C1511 C 0.9104 0.83727 0.15162 0.0
C1512 C 0.92844 0.82019 0.11518 0.0
C1513 C 0.91282 0.80605 0.11461 0.0
C1514 C 0.89593 0.80783 0.13273 0.0
C1515 C 0.89471 0.82324 0.15089 0.0
H1516 H 0.38921 0.68323 0.38424 0.0
H1517 H 0.43121 0.67113 0.45068 0.0
H1518 H 0.41621 0.67382 0.35178 0.0
H1519 H 0.45823 0.66182 0.41815 0.0
H1520 H 0.50799 0.66958 0.35099 0.0
H1521 H 0.48031 0.67847 0.38279 0.0
H1522 H 0.43643 0.64467 0.33686 0.0
H1523 H 0.4641 0.63567 0.3051 0.0
C1524 C 0.40413 0.67841 0.39195 0.0
C1525 C 0.408 0.67792 0.42011 0.0
C1526 C 0.4196 0.67298 0.37332 0.0
C1527 C 0.43943 0.6672 0.38235 0.0
C1528 C 0.44321 0.66643 0.41051 0.0
C1529 C 0.42764 0.6716 0.42917 0.0
C1530 C 0.49241 0.66416 0.34751 0.0
C1531 C 0.48829 0.65191 0.32543 0.0
C1532 C 0.47658 0.66912 0.3659 0.0
C1533 C 0.45618 0.66217 0.36248 0.0
C1534 C 0.45195 0.65033 0.34002 0.0
C1535 C 0.46783 0.64515 0.32184 0.0
H1536 H 0.45349 0.20199 0.18385 0.0
H1537 H 0.40527 0.16496 0.15285 0.0
H1538 H 0.44118 0.22778 0.15409 0.0
H1539 H 0.39316 0.19042 0.12302 0.0
H1540 H 0.36002 0.24575 0.10189 0.0
H1541 H 0.37493 0.22025 0.1292 0.0
H1542 H 0.43685 0.23866 0.1069 0.0
H1543 H 0.4218 0.26442 0.07945 0.0
C1544 C 0.44049 0.19928 0.17037 0.0
C1545 C 0.43014 0.18156 0.17098 0.0
C1546 C 0.43343 0.21403 0.15332 0.0
C1547 C 0.41595 0.21127 0.13648 0.0
C1548 C 0.40629 0.19322 0.13625 0.0
C1549 C 0.41325 0.1786 0.15331 0.0
C1550 C 0.3768 0.24429 0.10249 0.0
C1551 C 0.38968 0.25707 0.08822 0.0
C1552 C 0.38539 0.22962 0.1182 0.0
C1553 C 0.40711 0.22725 0.12003 0.0
C1554 C 0.42006 0.24017 0.10608 0.0
C1555 C 0.41143 0.25492 0.09034 0.0
H1556 H 0.4989 0.68518 0.8218 0.0
H1557 H 0.49293 0.62695 0.85048 0.0
H1558 H 0.5279 0.69021 0.85309 0.0
H1559 H 0.52135 0.63212 0.88217 0.0
H1560 H 0.58209 0.64197 0.92518 0.0
H1561 H 0.5577 0.63722 0.88784 0.0
H1562 H 0.53266 0.69399 0.90121 0.0
H1563 H 0.55739 0.6988 0.93822 0.0
C1564 C 0.5039 0.67339 0.83455 0.0
C1565 C 0.4935 0.65569 0.83369 0.0
C1566 C 0.52041 0.67632 0.85268 0.0
C1567 C 0.52689 0.66164 0.87039 0.0
C1568 C 0.517 0.64371 0.86868 0.0
C1569 C 0.50058 0.64076 0.85054 0.0
C1570 C 0.57137 0.65342 0.92014 0.0
C1571 C 0.57156 0.6707 0.93483 0.0
C1572 C 0.55737 0.65071 0.89872 0.0
C1573 C 0.54307 0.66516 0.89156 0.0
C1574 C 0.54363 0.68264 0.90585 0.0
C1575 C 0.55775 0.68539 0.92716 0.0
H1576 H 0.13095 0.83938 0.69858 0.0
H1577 H 0.0699 0.83823 0.66161 0.0
H1578 H 0.14252 0.81417 0.66792 0.0
H1579 H 0.0815 0.81288 0.63093 0.0
H1580 H 0.10467 0.75448 0.59902 0.0
H1581 H 0.09243 0.77914 0.63042 0.0
H1582 H 0.1502 0.80988 0.61982 0.0
H1583 H 0.16269 0.78497 0.58921 0.0
C1584 C 0.12001 0.83388 0.68379 0.0
C1585 C 0.0995 0.84099 0.68252 0.0
C1586 C 0.12666 0.81939 0.66619 0.0
C1587 C 0.11299 0.81157 0.64684 0.0
C1588 C 0.09238 0.81845 0.64579 0.0
C1589 C 0.08572 0.83299 0.66341 0.0
C1590 C 0.11484 0.76641 0.60356 0.0
C1591 C 0.1347 0.76768 0.59158 0.0
C1592 C 0.10772 0.78066 0.62135 0.0
C1593 C 0.12034 0.79648 0.62768 0.0
C1594 C 0.14017 0.79778 0.61564 0.0
C1595 C 0.14725 0.78358 0.59781 0.0
H1596 H 0.97615 0.37852 0.45604 0.0
H1597 H 0.9424 0.33561 0.41068 0.0
H1598 H 0.99969 0.38289 0.41806 0.0
H1599 H 0.96629 0.33996 0.37236 0.0
H1600 H 0.03115 0.33852 0.32727 0.0
H1601 H 1.00315 0.33431 0.36031 0.0
H1602 H 1.00029 0.39558 0.37211 0.0
H1603 H 0.02851 0.39978 0.33955 0.0
C1604 C 0.97353 0.37018 0.43783 0.0
C1605 C 0.95719 0.35682 0.43645 0.0
C1606 C 0.98707 0.37271 0.41595 0.0
C1607 C 0.98474 0.36195 0.392 0.0
C1608 C 0.96855 0.34843 0.39058 0.0
C1609 C 0.9549 0.34591 0.41256 0.0
C1610 C 0.0243 0.35113 0.33654 0.0
C1611 C 0.03226 0.36948 0.33101 0.0
C1612 C 1.0082 0.3487 0.35545 0.0
C1613 C 0.99971 0.36458 0.36918 0.0
C1614 C 1.00681 0.38301 0.36234 0.0
C1615 C 0.02291 0.38543 0.34354 0.0
H1616 H 0.44905 0.81908 0.34333 0.0
H1617 H 0.40682 0.85862 0.3827 0.0
H1618 H 0.43593 0.79318 0.3719 0.0
H1619 H 0.39375 0.83282 0.41113 0.0
H1620 H 0.35841 0.77866 0.43385 0.0
H1621 H 0.37282 0.80413 0.40601 0.0
H1622 H 0.43478 0.78165 0.41905 0.0
H1623 H 0.42032 0.75607 0.44709 0.0
C1624 C 0.43714 0.82232 0.35824 0.0
C1625 C 0.42889 0.84095 0.36052 0.0
C1626 C 0.42962 0.80746 0.37463 0.0
C1627 C 0.41366 0.81088 0.39366 0.0
C1628 C 0.40573 0.82958 0.39629 0.0
C1629 C 0.41324 0.8444 0.37995 0.0
C1630 C 0.37512 0.7792 0.43107 0.0
C1631 C 0.38818 0.76532 0.44293 0.0
C1632 C 0.3834 0.79384 0.41506 0.0
C1633 C 0.40498 0.79503 0.41042 0.0
C1634 C 0.41807 0.78105 0.42199 0.0
C1635 C 0.40976 0.76637 0.43807 0.0
H1636 H 0.03207 0.63088 0.18468 0.0
H1637 H 0.0243 0.68793 0.21733 0.0
H1638 H 1.00287 0.63614 0.1543 0.0
H1639 H 0.99443 0.69302 0.1874 0.0
H1640 H 0.96243 0.70259 0.10322 0.0
H1641 H 0.98748 0.69824 0.14019 0.0
H1642 H 0.96652 0.63985 0.15029 0.0
H1643 H 0.94215 0.64415 0.11281 0.0
C1644 C 0.02386 0.64444 0.18578 0.0
C1645 C 0.03063 0.65901 0.20339 0.0
C1646 C 1.00696 0.64744 0.1684 0.0
C1647 C 0.99621 0.66505 0.16828 0.0
C1648 C 1.00251 0.67939 0.18662 0.0
C1649 C 0.01954 0.67642 0.20395 0.0
C1650 C 0.96302 0.68896 0.11371 0.0
C1651 C 0.95059 0.67363 0.10495 0.0
C1652 C 0.97732 0.68644 0.13495 0.0
C1653 C 0.97929 0.66857 0.14805 0.0
C1654 C 0.96589 0.65363 0.14024 0.0
C1655 C 0.95184 0.6561 0.11884 0.0
H1656 H 0.16766 0.24623 0.92813 0.0
H1657 H 0.10526 0.2667 0.94411 0.0
H1658 H 0.15369 0.2211 0.89926 0.0
H1659 H 0.09122 0.24144 0.91511 0.0
H1660 H 0.07665 0.20535 0.83836 0.0
H1661 H 0.08955 0.23099 0.86761 0.0
H1662 H 0.13395 0.19176 0.90324 0.0
H1663 H 0.12113 0.16625 0.8741 0.0
C1664 C 0.15093 0.24528 0.92574 0.0
C1665 C 0.1376 0.25846 0.93866 0.0
C1666 C 0.14291 0.23084 0.90913 0.0
C1667 C 0.12131 0.22916 0.90498 0.0
C1668 C 0.10795 0.24245 0.91764 0.0
C1669 C 0.116 0.25693 0.93429 0.0
C1670 C 0.08903 0.20215 0.8526 0.0
C1671 C 0.09794 0.18373 0.85369 0.0
C1672 C 0.09642 0.21686 0.86939 0.0
C1673 C 0.1129 0.21348 0.88765 0.0
C1674 C 0.12155 0.19498 0.88902 0.0
C1675 C 0.11418 0.18032 0.87227 0.0
H1676 H 0.55107 0.37389 0.57511 0.0
H1677 H 0.58439 0.33011 0.6196 0.0
H1678 H 0.52754 0.37814 0.61312 0.0
H1679 H 0.56037 0.33428 0.65789 0.0
H1680 H 0.49454 0.33426 0.7023 0.0
H1681 H 0.52262 0.32937 0.6694 0.0
H1682 H 0.52836 0.39062 0.65981 0.0
H1683 H 0.5002 0.39553 0.69226 0.0
C1684 C 0.55359 0.3653 0.59311 0.0
C1685 C 0.56988 0.35181 0.59428 0.0
C1686 C 0.54003 0.36776 0.61499 0.0
C1687 C 0.54226 0.35676 0.63871 0.0
C1688 C 0.55826 0.34297 0.63986 0.0
C1689 C 0.57197 0.34055 0.61788 0.0
C1690 C 0.50207 0.34669 0.69357 0.0
C1691 C 0.49492 0.36529 0.69963 0.0
C1692 C 0.51819 0.34388 0.67475 0.0
C1693 C 0.52745 0.3596 0.66165 0.0
C1694 C 0.52121 0.3782 0.66911 0.0
C1695 C 0.50514 0.38101 0.68784 0.0
H1696 H 0.08914 0.45793 0.25261 0.0
H1697 H 0.10909 0.48031 0.33023 0.0
H1698 H 0.08648 0.4905 0.23499 0.0
H1699 H 0.10741 0.51264 0.31232 0.0
H1700 H 0.0875 0.57046 0.28011 0.0
H1701 H 0.08502 0.53785 0.29749 0.0
H1702 H 0.10868 0.51611 0.2212 0.0
H1703 H 0.11019 0.5485 0.20344 0.0
C1704 C 0.09288 0.46973 0.266 0.0
C1705 C 0.09951 0.46633 0.29284 0.0
C1706 C 0.09158 0.48846 0.25578 0.0
C1707 C 0.09685 0.50431 0.27212 0.0
C1708 C 0.10301 0.5009 0.29914 0.0
C1709 C 0.10428 0.48222 0.30934 0.0
C1710 C 0.09188 0.55874 0.26687 0.0
C1711 C 0.09922 0.56229 0.24037 0.0
C1712 C 0.09068 0.53999 0.27697 0.0
C1713 C 0.09678 0.52424 0.26087 0.0
C1714 C 0.10364 0.52777 0.23418 0.0
C1715 C 0.1048 0.54648 0.22408 0.0
H1716 H 0.82362 0.83369 0.49453 0.0
H1717 H 0.80615 0.84679 0.57725 0.0
H1718 H 0.78736 0.83614 0.48065 0.0
H1719 H 0.76991 0.85025 0.56323 0.0
H1720 H 0.70472 0.83135 0.53602 0.0
H1721 H 0.74094 0.83251 0.55052 0.0
H1722 H 0.75844 0.8551 0.4719 0.0
H1723 H 0.72231 0.85295 0.45709 0.0
C1724 C 0.81207 0.8375 0.50969 0.0
C1725 C 0.81783 0.83997 0.53704 0.0
C1726 C 0.79117 0.83902 0.5017 0.0
C1727 C 0.77542 0.84335 0.52075 0.0
C1728 C 0.78138 0.84648 0.54798 0.0
C1729 C 0.80225 0.84467 0.55604 0.0
C1730 C 0.71628 0.83674 0.52192 0.0
C1731 C 0.71059 0.84196 0.49533 0.0
C1732 C 0.73715 0.83752 0.53029 0.0
C1733 C 0.75291 0.8438 0.51242 0.0
C1734 C 0.74698 0.84974 0.48613 0.0
C1735 C 0.72616 0.84868 0.47766 0.0
H1736 H 0.44081 0.47907 0.70185 0.0
H1737 H 0.41656 0.45576 0.77657 0.0
H1738 H 0.44069 0.51102 0.72165 0.0
H1739 H 0.41559 0.48784 0.79631 0.0
H1740 H 0.43322 0.5452 0.83315 0.0
H1741 H 0.43514 0.51319 0.81364 0.0
H1742 H 0.41938 0.53647 0.73479 0.0
H1743 H 0.41829 0.56859 0.75439 0.0
C1744 C 0.43523 0.48083 0.72248 0.0
C1745 C 0.42862 0.46488 0.7376 0.0
C1746 C 0.43506 0.49921 0.73386 0.0
C1747 C 0.42799 0.50224 0.76064 0.0
C1748 C 0.42148 0.48618 0.77582 0.0
C1749 C 0.42195 0.46773 0.76451 0.0
C1750 C 0.43011 0.54345 0.81166 0.0
C1751 C 0.42553 0.55944 0.79533 0.0
C1752 C 0.43112 0.52503 0.80043 0.0
C1753 C 0.42731 0.52202 0.77255 0.0
C1754 C 0.42278 0.53812 0.75622 0.0
C1755 C 0.42207 0.55658 0.76743 0.0
H1756 H 0.82248 0.18985 0.03753 0.0
H1757 H 0.80344 0.17313 0.9568 0.0
H1758 H 0.78656 0.18769 0.053 0.0
H1759 H 0.76759 0.17001 0.97246 0.0
H1760 H 0.70301 0.1907 1.00006 0.0
H1761 H 0.73892 0.18856 0.98452 0.0
H1762 H 0.7578 0.16911 0.06428 0.0
H1763 H 0.72195 0.17221 0.08007 0.0
C1764 C 0.81068 0.1853 0.0232 0.0
C1765 C 0.81587 0.18176 0.99588 0.0
C1766 C 0.78998 0.18395 0.03211 0.0
C1767 C 0.77389 0.17877 1.01403 0.0
C1768 C 0.77932 0.17448 0.98693 0.0
C1769 C 0.79998 0.17609 0.97795 0.0
C1770 C 0.71478 0.18575 1.0142 0.0
C1771 C 0.70957 0.18172 0.04137 0.0
C1772 C 0.73548 0.18442 1.00525 0.0
C1773 C 0.75154 0.17876 0.0231 0.0
C1774 C 0.74608 0.17396 0.05001 0.0
C1775 C 0.72543 0.17555 0.05905 0.0
H1776 H 1.00298 0.47363 0.81326 0.0
H1777 H 0.95925 0.45592 0.7515 0.0
H1778 H 1.00021 0.50656 0.7978 0.0
H1779 H 0.95658 0.48911 0.73578 0.0
H1780 H 0.97358 0.54817 0.69982 0.0
H1781 H 0.97663 0.51489 0.71391 0.0
H1782 H 0.97462 0.53249 0.79805 0.0
H1783 H 0.97137 0.56584 0.784 0.0
C1784 C 0.99265 0.47675 0.79645 0.0
C1785 C 0.98112 0.46207 0.78388 0.0
C1786 C 0.99106 0.4957 0.78758 0.0
C1787 C 0.97798 0.50057 0.76577 0.0
C1788 C 0.96689 0.48585 0.75258 0.0
C1789 C 0.96845 0.46681 0.76154 0.0
C1790 C 0.97356 0.54502 0.72134 0.0
C1791 C 0.97215 0.55985 0.74074 0.0
C1792 C 0.97532 0.52586 0.72941 0.0
C1793 C 0.97585 0.52097 0.7571 0.0
C1794 C 0.97454 0.53576 0.77652 0.0
C1795 C 0.9727 0.55493 0.76846 0.0
H1796 H 0.32292 0.20691 0.48755 0.0
H1797 H 0.31004 0.18715 0.56897 0.0
H1798 H 0.28549 0.21031 0.47924 0.0
H1799 H 0.2728 0.19003 0.56052 0.0
H1800 H 0.20644 0.20876 0.5441 0.0
H1801 H 0.2439 0.21223 0.55219 0.0
H1802 H 0.25658 0.18798 0.47306 0.0
H1803 H 0.21935 0.185 0.46481 0.0
C1804 C 0.31213 0.20349 0.50375 0.0
C1805 C 0.31948 0.19655 0.52881 0.0
C1806 C 0.29068 0.20529 0.49894 0.0
C1807 C 0.2761 0.20033 0.51916 0.0
C1808 C 0.28353 0.19412 0.54456 0.0
C1809 C 0.30492 0.19223 0.54929 0.0
C1810 C 0.21725 0.20449 0.5283 0.0
C1811 C 0.2099 0.1964 0.50395 0.0
C1812 C 0.23871 0.20632 0.533 0.0
C1813 C 0.25329 0.20028 0.51333 0.0
C1814 C 0.24585 0.19292 0.48857 0.0
C1815 C 0.22447 0.19098 0.48398 0.0
H1816 H 0.531 0.5519 0.32486 0.0
H1817 H 0.56837 0.56878 0.25593 0.0
H1818 H 0.53317 0.51866 0.31061 0.0
H1819 H 0.57065 0.5353 0.2416 0.0
H1820 H 0.54655 0.47752 0.20805 0.0
H1821 H 0.54894 0.5106 0.22303 0.0
H1822 H 0.55622 0.49145 0.30602 0.0
H1823 H 0.55303 0.45814 0.29092 0.0
C1824 C 0.53993 0.54852 0.30681 0.0
C1825 C 0.54957 0.56311 0.2916 0.0
C1826 C 0.54123 0.52937 0.29867 0.0
C1827 C 0.55222 0.52418 0.27505 0.0
C1828 C 0.56189 0.53876 0.25978 0.0
C1829 C 0.56055 0.55798 0.26794 0.0
C1830 C 0.54867 0.48033 0.22951 0.0
C1831 C 0.54926 0.46516 0.24834 0.0
C1832 C 0.5503 0.49935 0.23809 0.0
C1833 C 0.5526 0.50379 0.26579 0.0
C1834 C 0.55412 0.48858 0.28456 0.0
C1835 C 0.55252 0.46947 0.27592 0.0
H1836 H 0.20732 0.81927 0.98709 0.0
H1837 H 0.21939 0.84326 0.06638 0.0
H1838 H 0.24492 0.81567 0.9796 0.0
H1839 H 0.25674 0.83998 0.05886 0.0
H1840 H 0.32333 0.82066 0.04516 0.0
H1841 H 0.28578 0.81699 0.0528 0.0
H1842 H 0.2737 0.83863 0.97207 0.0
H1843 H 0.31102 0.84197 0.96441 0.0
C1844 C 0.21798 0.82353 1.00303 0.0
C1845 C 0.21039 0.83175 0.02718 0.0
C1846 C 0.2395 0.8216 0.9987 0.0
C1847 C 0.25386 0.82762 0.01859 0.0
C1848 C 0.24617 0.83505 0.0432 0.0
C1849 C 0.22474 0.83715 0.04738 0.0
C1850 C 0.31263 0.82431 0.02895 0.0
C1851 C 0.32013 0.83182 1.00432 0.0
C1852 C 0.29114 0.82235 0.03336 0.0
C1853 C 0.27671 0.82761 1.01309 0.0
C1854 C 0.28432 0.8343 0.98805 0.0
C1855 C 0.30573 0.83644 0.98377 0.0
H1856 H 0.61766 0.98096 0.82973 0.0
H1857 H 0.58915 0.95889 0.75663 0.0
H1858 H 0.61478 0.01331 0.81206 0.0
H1859 H 0.58536 0.99145 0.73944 0.0
H1860 H 0.60672 0.04885 0.70334 0.0
H1861 H 0.6065 0.01656 0.72157 0.0
H1862 H 0.59154 0.03897 0.80113 0.0
H1863 H 0.59272 0.07148 0.78305 0.0
C1864 C 0.61071 0.98294 0.8099 0.0
C1865 C 0.60388 0.96712 0.79455 0.0
C1866 C 0.60877 1.00163 0.79989 0.0
C1867 C 0.59988 1.00513 0.77423 0.0
C1868 C 0.59257 0.98935 0.75912 0.0
C1869 C 0.59454 0.97062 0.76914 0.0
C1870 C 0.60352 0.047 0.72477 0.0
C1871 C 0.59999 0.06295 0.74171 0.0
C1872 C 0.6031 0.02835 0.73519 0.0
C1873 C 0.59905 0.02502 0.7629 0.0
C1874 C 0.59501 0.04094 0.77976 0.0
C1875 C 0.59546 0.05964 0.76931 0.0
H1876 H 0.32198 0.33423 0.99477 0.0
H1877 H 0.30426 0.35089 0.07612 0.0
H1878 H 0.28584 0.3366 0.98035 0.0
H1879 H 0.26814 0.35417 0.06149 0.0
H1880 H 0.20314 0.33383 0.03512 0.0
H1881 H 0.23927 0.33562 0.04987 0.0
H1882 H 0.25713 0.35579 0.97009 0.0
H1883 H 0.22108 0.3531 0.95509 0.0
C1884 C 0.31042 0.33879 1.00948 0.0
C1885 C 0.31605 0.34228 0.03665 0.0
C1886 C 0.2896 0.34026 1.00116 0.0
C1887 C 0.27382 0.34551 0.01971 0.0
C1888 C 0.27966 0.34969 0.04668 0.0
C1889 C 0.30045 0.34797 0.05507 0.0
C1890 C 0.21475 0.33885 0.02081 0.0
C1891 C 0.20919 0.34321 0.99386 0.0
C1892 C 0.23555 0.33998 0.02931 0.0
C1893 C 0.25137 0.34574 1.0112 0.0
C1894 C 0.24559 0.35086 0.98453 0.0
C1895 C 0.22483 0.34949 0.97594 0.0
H1896 H 0.938 0.04766 0.33031 0.0
H1897 H 0.91749 0.07119 0.25381 0.0
H1898 H 0.93862 0.01571 0.31052 0.0
H1899 H 0.91726 0.03911 0.23402 0.0
H1900 H 0.93629 0.9816 0.19863 0.0
H1901 H 0.93746 0.01359 0.21827 0.0
H1902 H 0.91783 0.99046 0.2957 0.0
H1903 H 0.9175 0.95836 0.27604 0.0
C1904 C 0.9334 0.04595 0.30928 0.0
C1905 C 0.92761 0.06196 0.29366 0.0
C1906 C 0.93365 0.02757 0.2979 0.0
C1907 C 0.92785 0.0246 0.27061 0.0
C1908 C 0.92217 0.04072 0.25494 0.0
C1909 C 0.92221 0.05916 0.26628 0.0
C1910 C 0.93218 0.98338 0.21983 0.0
C1911 C 0.92674 0.96743 0.23576 0.0
C1912 C 0.93276 1.00178 0.23113 0.0
C1913 C 0.92764 1.00483 0.25865 0.0
C1914 C 0.92225 0.98878 0.27458 0.0
C1915 C 0.92196 0.97033 0.26333 0.0
H1916 H 0.32171 0.68982 0.53841 0.0
H1917 H 0.30239 0.67408 0.45741 0.0
H1918 H 0.28568 0.68845 0.55372 0.0
H1919 H 0.26644 0.67169 0.47288 0.0
H1920 H 0.20205 0.69242 0.50005 0.0
H1921 H 0.23807 0.69037 0.48494 0.0
H1922 H 0.25639 0.67071 0.56483 0.0
H1923 H 0.22042 0.67377 0.5802 0.0
C1924 C 0.30981 0.68564 0.52398 0.0
C1925 C 0.31498 0.68214 0.49664 0.0
C1926 C 0.28904 0.68476 0.53279 0.0
C1927 C 0.27284 0.68007 0.5146 0.0
C1928 C 0.27824 0.67582 0.48746 0.0
C1929 C 0.29896 0.677 0.47858 0.0
C1930 C 0.21374 0.6875 0.51433 0.0
C1931 C 0.2083 0.68333 0.54138 0.0
C1932 C 0.2345 0.6862 0.50562 0.0
C1933 C 0.25044 0.68041 0.52359 0.0
C1934 C 0.2448 0.67563 0.55045 0.0
C1935 C 0.22407 0.67721 0.55926 0.0
H1936 H 0.50152 0.06294 0.26633 0.0
H1937 H 0.44392 0.04846 0.22621 0.0
H1938 H 0.506 0.02946 0.2798 0.0
H1939 H 0.44789 0.01526 0.24021 0.0
H1940 H 0.46823 0.95369 0.24802 0.0
H1941 H 0.46681 0.98681 0.23248 0.0
H1942 H 0.49335 1.00548 0.30874 0.0
H1943 H 0.49602 0.97252 0.32342 0.0
C1944 C 0.48969 0.05263 0.26072 0.0
C1945 C 0.47244 0.05832 0.24511 0.0
C1946 C 0.49221 0.03342 0.26841 0.0
C1947 C 0.47738 0.01947 0.26095 0.0
C1948 C 0.45994 0.02536 0.24576 0.0
C1949 C 0.45757 0.04447 0.23786 0.0
C1950 C 0.47407 0.9648 0.2613 0.0
C1951 C 0.48197 0.96026 0.28718 0.0
C1952 C 0.47301 0.9839 0.25253 0.0
C1953 C 0.47973 0.99899 0.26945 0.0
C1954 C 0.48816 0.99436 0.29498 0.0
C1955 C 0.48938 0.97532 0.30362 0.0
H1956 H 0.80706 0.6798 0.06458 0.0
H1957 H 0.81988 0.71461 0.99406 0.0
H1958 H 0.76982 0.68458 0.05798 0.0
H1959 H 0.78246 0.71985 0.98778 0.0
H1960 H 0.71659 0.69732 0.96383 0.0
H1961 H 0.75375 0.69945 0.97307 0.0
H1962 H 0.74066 0.7074 0.05851 0.0
H1963 H 0.70321 0.70485 0.04913 0.0
C1964 C 0.80193 0.68861 0.04775 0.0
C1965 C 0.81648 0.69658 0.02959 0.0
C1966 C 0.78054 0.69157 0.04418 0.0
C1967 C 0.77308 0.70253 0.02227 0.0
C1968 C 0.78766 0.71115 1.00471 0.0
C1969 C 0.80911 0.70828 1.0084 0.0
C1970 C 0.72162 0.69962 0.98458 0.0
C1971 C 0.70697 0.70064 1.00582 0.0
C1972 C 0.74295 0.70108 0.98985 0.0
C1973 C 0.75026 0.70351 0.01655 0.0
C1974 C 0.73557 0.70533 0.03773 0.0
C1975 C 0.71412 0.70403 0.03238 0.0
H1976 H 0.02821 0.05205 0.82148 0.0
H1977 H 0.05802 0.06936 0.74673 0.0
H1978 H 0.0288 0.01886 0.80652 0.0
H1979 H 0.05864 0.03599 0.73166 0.0
H1980 H 0.03862 0.97641 0.70306 0.0
H1981 H 0.03647 1.0097 0.71741 0.0
H1982 H 0.05349 0.99309 0.79904 0.0
H1983 H 0.05563 0.95967 0.78462 0.0
C1984 C 0.03501 0.04878 0.80188 0.0
C1985 C 0.04326 0.06343 0.78543 0.0
C1986 C 0.03537 0.02969 0.79331 0.0
C1987 C 0.04395 0.02465 0.768 0.0
C1988 C 0.05174 0.03934 0.7512 0.0
C1989 C 0.05138 0.05851 0.7598 0.0
C1990 C 0.04206 0.97981 0.72404 0.0
C1991 C 0.04746 0.96528 0.74263 0.0
C1992 C 0.04083 0.99896 0.73227 0.0
C1993 C 0.04491 1.00416 0.75935 0.0
C1994 C 0.05 0.98961 0.77807 0.0
C1995 C 0.05122 0.97041 0.76983 0.0
H1996 H 0.70675 0.32167 0.48749 0.0
H1997 H 0.71856 0.33983 0.56995 0.0
H1998 H 0.74432 0.3192 0.47947 0.0
H1999 H 0.75595 0.33778 0.56184 0.0
H2000 H 0.82271 0.31972 0.54513 0.0
H2001 H 0.78521 0.31577 0.5526 0.0
H2002 H 0.77286 0.34247 0.47504 0.0
H2003 H 0.81014 0.34602 0.46744 0.0
C2004 C 0.71734 0.32493 0.50397 0.0
C2005 C 0.70965 0.33114 0.52926 0.0
C2006 C 0.73886 0.32366 0.49934 0.0
C2007 C 0.75317 0.32839 0.51998 0.0
C2008 C 0.74542 0.33389 0.54556 0.0
C2009 C 0.72396 0.33529 0.5501 0.0
C2010 C 0.81197 0.32445 0.52954 0.0
C2011 C 0.8194 0.33337 0.50584 0.0
C2012 C 0.79049 0.32233 0.53388 0.0
C2013 C 0.77601 0.32889 0.51447 0.0
C2014 C 0.78353 0.33712 0.49033 0.0
C2015 C 0.80493 0.33937 0.48611 0.0
loop_
_geom_bond_atom_site_label_1
_geom_bond_atom_site_label_2
_geom_bond_distance
_geom_bond_site_symmetry_2
_ccdc_geom_bond_type
Cu0 N1 1.999 . S
Cu0 O6 1.974 . S
Cu0 N11 1.985 . S
Cu0 O20 1.959 . S
N1 Cu0 1.999 . S
N1 C3 1.263 . S
N1 C5 1.389 . S
N2 C3 1.358 . S
N2 C4 1.400 . S
C3 N1 1.263 . S
C3 N2 1.358 . S
C3 H9 0.930 . S
C4 N2 1.400 . S
C4 C5 1.351 . S
C4 H21 0.930 . S
C5 N1 1.389 . S
C5 C4 1.351 . S
C5 H10 0.930 . S
O6 Cu0 1.974 . S
O6 C16 1.282 . S
C7 O8 1.261 . S
C7 O20 1.251 . S
O8 C7 1.261 . S
H9 C3 0.930 . S
H10 C5 0.930 . S
N11 Cu0 1.985 . S
N11 C13 1.335 . S
N11 C14 1.390 . S
N12 C13 1.345 . S
N12 C15 1.336 . S
C13 N11 1.335 . S
C13 N12 1.345 . S
C13 H18 0.930 . S
C14 N11 1.390 . S
C14 C15 1.346 . S
C14 H19 0.930 . S
C15 N12 1.336 . S
C15 C14 1.346 . S
C15 H22 0.929 . S
C16 O6 1.282 . S
C16 O17 1.216 . S
O17 C16 1.216 . S
H18 C13 0.930 . S
H19 C14 0.930 . S
O20 Cu0 1.959 . S
O20 C7 1.251 . S
H21 C4 0.930 . S
H22 C15 0.929 . S
Cu23 N24 1.999 . S
Cu23 O29 1.974 . S
Cu23 N34 1.985 . S
Cu23 O43 1.959 . S
N24 Cu23 1.999 . S
N24 C26 1.263 . S
N24 C28 1.389 . S
N25 C26 1.358 . S
N25 C27 1.400 . S
C26 N24 1.263 . S
C26 N25 1.358 . S
C26 H32 0.930 . S
C27 N25 1.400 . S
C27 C28 1.351 . S
C27 H44 0.930 . S
C28 N24 1.389 . S
C28 C27 1.351 . S
C28 H33 0.930 . S
O29 Cu23 1.974 . S
O29 C39 1.282 . S
C30 O31 1.261 . S
C30 O43 1.251 . S
O31 C30 1.261 . S
H32 C26 0.930 . S
H33 C28 0.930 . S
N34 Cu23 1.985 . S
N34 C36 1.335 . S
N34 C37 1.390 . S
N35 C36 1.345 . S
N35 C38 1.336 . S
C36 N34 1.335 . S
C36 N35 1.345 . S
C36 H41 0.930 . S
C37 N34 1.390 . S
C37 C38 1.346 . S
C37 H42 0.930 . S
C38 N35 1.336 . S
C38 C37 1.346 . S
C38 H45 0.929 . S
C39 O29 1.282 . S
C39 O40 1.216 . S
O40 C39 1.216 . S
H41 C36 0.930 . S
H42 C37 0.930 . S
O43 Cu23 1.959 . S
O43 C30 1.251 . S
H44 C27 0.930 . S
H45 C38 0.929 . S
Cu46 N47 1.999 . S
Cu46 O52 1.974 . S
Cu46 N57 1.985 . S
Cu46 O66 1.959 . S
N47 Cu46 1.999 . S
N47 C49 1.263 . S
N47 C51 1.389 . S
N48 C49 1.358 . S
N48 C50 1.400 . S
C49 N47 1.263 . S
C49 N48 1.358 . S
C49 H55 0.930 . S
C50 N48 1.400 . S
C50 C51 1.351 . S
C50 H67 0.930 . S
C51 N47 1.389 . S
C51 C50 1.351 . S
C51 H56 0.930 . S
O52 Cu46 1.974 . S
O52 C62 1.282 . S
C53 O54 1.261 . S
C53 O66 1.251 . S
O54 C53 1.261 . S
H55 C49 0.930 . S
H56 C51 0.930 . S
N57 Cu46 1.985 . S
N57 C59 1.335 . S
N57 C60 1.390 . S
N58 C59 1.345 . S
N58 C61 1.336 . S
C59 N57 1.335 . S
C59 N58 1.345 . S
C59 H64 0.930 . S
C60 N57 1.390 . S
C60 C61 1.346 . S
C60 H65 0.930 . S
C61 N58 1.336 . S
C61 C60 1.346 . S
C61 H68 0.929 . S
C62 O52 1.282 . S
C62 O63 1.216 . S
O63 C62 1.216 . S
H64 C59 0.930 . S
H65 C60 0.930 . S
O66 Cu46 1.959 . S
O66 C53 1.251 . S
H67 C50 0.930 . S
H68 C61 0.929 . S
Cu69 N70 1.999 . S
Cu69 O75 1.974 . S
Cu69 N80 1.985 . S
Cu69 O89 1.959 . S
N70 Cu69 1.999 . S
N70 C72 1.263 1_554 S
N70 C74 1.389 1_554 S
N71 C72 1.358 . S
N71 C73 1.400 . S
C72 N70 1.263 1_556 S
C72 N71 1.358 . S
C72 H78 0.930 . S
C73 N71 1.400 . S
C73 C74 1.351 . S
C73 H90 0.930 . S
C74 N70 1.389 1_556 S
C74 C73 1.351 . S
C74 H79 0.930 . S
O75 Cu69 1.974 . S
O75 C85 1.282 . S
C76 O77 1.261 . S
C76 O89 1.251 . S
O77 C76 1.261 . S
H78 C72 0.930 . S
H79 C74 0.930 . S
N80 Cu69 1.985 . S
N80 C82 1.335 . S
N80 C83 1.390 . S
N81 C82 1.345 . S
N81 C84 1.336 . S
C82 N80 1.335 . S
C82 N81 1.345 . S
C82 H87 0.930 . S
C83 N80 1.390 . S
C83 C84 1.346 . S
C83 H88 0.930 . S
C84 N81 1.336 . S
C84 C83 1.346 . S
C84 H91 0.929 . S
C85 O75 1.282 . S
C85 O86 1.216 . S
O86 C85 1.216 . S
H87 C82 0.930 . S
H88 C83 0.930 . S
O89 Cu69 1.959 . S
O89 C76 1.251 . S
H90 C73 0.930 . S
H91 C84 0.929 . S
Cu92 N93 1.999 . S
Cu92 O98 1.974 . S
Cu92 N103 1.985 . S
Cu92 O112 1.959 . S
N93 Cu92 1.999 . S
N93 C95 1.263 . S
N93 C97 1.389 . S
N94 C95 1.358 . S
N94 C96 1.400 . S
C95 N93 1.263 . S
C95 N94 1.358 . S
C95 H101 0.930 . S
C96 N94 1.400 . S
C96 C97 1.351 . S
C96 H113 0.930 . S
C97 N93 1.389 . S
C97 C96 1.351 . S
C97 H102 0.930 . S
O98 Cu92 1.974 . S
O98 C108 1.282 . S
C99 O100 1.261 . S
C99 O112 1.251 . S
O100 C99 1.261 . S
H101 C95 0.930 . S
H102 C97 0.930 . S
N103 Cu92 1.985 . S
N103 C105 1.335 . S
N103 C106 1.390 . S
N104 C105 1.345 . S
N104 C107 1.336 . S
C105 N103 1.335 . S
C105 N104 1.345 . S
C105 H110 0.930 . S
C106 N103 1.390 . S
C106 C107 1.346 . S
C106 H111 0.930 . S
C107 N104 1.336 . S
C107 C106 1.346 . S
C107 H114 0.929 . S
C108 O98 1.282 . S
C108 O109 1.216 . S
O109 C108 1.216 . S
H110 C105 0.930 . S
H111 C106 0.930 . S
O112 Cu92 1.959 . S
O112 C99 1.251 . S
H113 C96 0.930 . S
H114 C107 0.929 . S
Cu115 N116 1.999 . S
Cu115 O121 1.974 . S
Cu115 N126 1.985 . S
Cu115 O135 1.959 . S
N116 Cu115 1.999 . S
N116 C118 1.263 . S
N116 C120 1.389 . S
N117 C118 1.358 . S
N117 C119 1.400 . S
C118 N116 1.263 . S
C118 N117 1.358 . S
C118 H124 0.930 . S
C119 N117 1.400 . S
C119 C120 1.351 . S
C119 H136 0.930 . S
C120 N116 1.389 . S
C120 C119 1.351 . S
C120 H125 0.930 . S
O121 Cu115 1.974 . S
O121 C131 1.282 . S
C122 O123 1.261 . S
C122 O135 1.251 . S
O123 C122 1.261 . S
H124 C118 0.930 . S
H125 C120 0.930 . S
N126 Cu115 1.985 . S
N126 C128 1.335 . S
N126 C129 1.390 . S
N127 C128 1.345 . S
N127 C130 1.336 . S
C128 N126 1.335 . S
C128 N127 1.345 . S
C128 H133 0.930 . S
C129 N126 1.390 . S
C129 C130 1.346 . S
C129 H134 0.930 . S
C130 N127 1.336 . S
C130 C129 1.346 . S
C130 H137 0.929 . S
C131 O121 1.282 . S
C131 O132 1.216 . S
O132 C131 1.216 . S
H133 C128 0.930 . S
H134 C129 0.930 . S
O135 Cu115 1.959 . S
O135 C122 1.251 . S
H136 C119 0.930 . S
H137 C130 0.929 . S
Cu138 N139 1.999 . S
Cu138 O144 1.974 . S
Cu138 N149 1.985 . S
Cu138 O158 1.959 . S
N139 Cu138 1.999 . S
N139 C141 1.263 . S
N139 C143 1.389 . S
N140 C141 1.358 . S
N140 C142 1.400 . S
C141 N139 1.263 . S
C141 N140 1.358 . S
C141 H147 0.930 . S
C142 N140 1.400 . S
C142 C143 1.351 . S
C142 H159 0.930 . S
C143 N139 1.389 . S
C143 C142 1.351 . S
C143 H148 0.930 . S
O144 Cu138 1.974 . S
O144 C154 1.282 . S
C145 O146 1.261 . S
C145 O158 1.251 . S
O146 C145 1.261 . S
H147 C141 0.930 . S
H148 C143 0.930 . S
N149 Cu138 1.985 . S
N149 C151 1.335 . S
N149 C152 1.390 . S
N150 C151 1.345 . S
N150 C153 1.336 . S
C151 N149 1.335 . S
C151 N150 1.345 . S
C151 H156 0.930 . S
C152 N149 1.390 . S
C152 C153 1.346 . S
C152 H157 0.930 . S
C153 N150 1.336 . S
C153 C152 1.346 . S
C153 H160 0.929 . S
C154 O144 1.282 . S
C154 O155 1.216 . S
O155 C154 1.216 . S
H156 C151 0.930 . S
H157 C152 0.930 . S
O158 Cu138 1.959 . S
O158 C145 1.251 . S
H159 C142 0.930 . S
H160 C153 0.929 . S
Cu161 N162 1.999 . S
Cu161 O167 1.974 . S
Cu161 N172 1.985 . S
Cu161 O181 1.959 . S
N162 Cu161 1.999 . S
N162 C164 1.263 1_556 S
N162 C166 1.389 1_556 S
N163 C164 1.358 . S
N163 C165 1.400 . S
C164 N162 1.263 1_554 S
C164 N163 1.358 . S
C164 H170 0.930 . S
C165 N163 1.400 . S
C165 C166 1.351 . S
C165 H182 0.930 . S
C166 N162 1.389 1_554 S
C166 C165 1.351 . S
C166 H171 0.930 . S
O167 Cu161 1.974 . S
O167 C177 1.282 . S
C168 O169 1.261 . S
C168 O181 1.251 . S
O169 C168 1.261 . S
H170 C164 0.930 . S
H171 C166 0.930 . S
N172 Cu161 1.985 . S
N172 C174 1.335 . S
N172 C175 1.390 . S
N173 C174 1.345 . S
N173 C176 1.336 . S
C174 N172 1.335 . S
C174 N173 1.345 . S
C174 H179 0.930 . S
C175 N172 1.390 . S
C175 C176 1.346 . S
C175 H180 0.930 . S
C176 N173 1.336 . S
C176 C175 1.346 . S
C176 H183 0.929 . S
C177 O167 1.282 . S
C177 O178 1.216 . S
O178 C177 1.216 . S
H179 C174 0.930 . S
H180 C175 0.930 . S
O181 Cu161 1.959 . S
O181 C168 1.251 . S
H182 C165 0.930 . S
H183 C176 0.929 . S
Cu184 N185 1.999 . S
Cu184 O190 1.974 . S
Cu184 N195 1.985 . S
Cu184 O204 1.959 . S
N185 Cu184 1.999 . S
N185 C187 1.263 . S
N185 C189 1.389 . S
N186 C187 1.358 . S
N186 C188 1.400 . S
C187 N185 1.263 . S
C187 N186 1.358 . S
C187 H193 0.930 . S
C188 N186 1.400 . S
C188 C189 1.351 . S
C188 H205 0.930 . S
C189 N185 1.389 . S
C189 C188 1.351 . S
C189 H194 0.930 . S
O190 Cu184 1.974 . S
O190 C200 1.282 . S
C191 O192 1.261 . S
C191 O204 1.251 . S
O192 C191 1.261 . S
H193 C187 0.930 . S
H194 C189 0.930 . S
N195 Cu184 1.985 . S
N195 C197 1.335 . S
N195 C198 1.390 . S
N196 C197 1.345 . S
N196 C199 1.336 . S
C197 N195 1.335 . S
C197 N196 1.345 . S
C197 H202 0.930 . S
C198 N195 1.390 . S
C198 C199 1.346 . S
C198 H203 0.930 . S
C199 N196 1.336 . S
C199 C198 1.346 . S
C199 H206 0.929 . S
C200 O190 1.282 . S
C200 O201 1.216 . S
O201 C200 1.216 . S
H202 C197 0.930 . S
H203 C198 0.930 . S
O204 Cu184 1.959 . S
O204 C191 1.251 . S
H205 C188 0.930 . S
H206 C199 0.929 . S
Cu207 N208 1.999 . S
Cu207 O213 1.974 . S
Cu207 N218 1.985 . S
Cu207 O227 1.959 . S
N208 Cu207 1.999 . S
N208 C210 1.263 . S
N208 C212 1.389 . S
N209 C210 1.358 . S
N209 C211 1.400 . S
C210 N208 1.263 . S
C210 N209 1.358 . S
C210 H216 0.930 . S
C211 N209 1.400 . S
C211 C212 1.351 . S
C211 H228 0.930 . S
C212 N208 1.389 . S
C212 C211 1.351 . S
C212 H217 0.930 . S
O213 Cu207 1.974 . S
O213 C223 1.282 . S
C214 O215 1.261 . S
C214 O227 1.251 . S
O215 C214 1.261 . S
H216 C210 0.930 . S
H217 C212 0.930 . S
N218 Cu207 1.985 . S
N218 C220 1.335 . S
N218 C221 1.390 . S
N219 C220 1.345 . S
N219 C222 1.336 . S
C220 N218 1.335 . S
C220 N219 1.345 . S
C220 H225 0.930 . S
C221 N218 1.390 . S
C221 C222 1.346 . S
C221 H226 0.930 . S
C222 N219 1.336 . S
C222 C221 1.346 . S
C222 H229 0.929 . S
C223 O213 1.282 . S
C223 O224 1.216 . S
O224 C223 1.216 . S
H225 C220 0.930 . S
H226 C221 0.930 . S
O227 Cu207 1.959 . S
O227 C214 1.251 . S
H228 C211 0.930 . S
H229 C222 0.929 . S
Cu230 N231 1.999 . S
Cu230 O236 1.974 . S
Cu230 N241 1.985 . S
Cu230 O250 1.959 . S
N231 Cu230 1.999 . S
N231 C233 1.263 . S
N231 C235 1.389 . S
N232 C233 1.358 . S
N232 C234 1.400 . S
C233 N231 1.263 . S
C233 N232 1.358 . S
C233 H239 0.930 . S
C234 N232 1.400 . S
C234 C235 1.351 . S
C234 H251 0.930 . S
C235 N231 1.389 . S
C235 C234 1.351 . S
C235 H240 0.930 . S
O236 Cu230 1.974 . S
O236 C246 1.282 . S
C237 O238 1.261 . S
C237 O250 1.251 . S
O238 C237 1.261 . S
H239 C233 0.930 . S
H240 C235 0.930 . S
N241 Cu230 1.985 . S
N241 C243 1.335 . S
N241 C244 1.390 . S
N242 C243 1.345 . S
N242 C245 1.336 . S
C243 N241 1.335 . S
C243 N242 1.345 . S
C243 H248 0.930 . S
C244 N241 1.390 . S
C244 C245 1.346 . S
C244 H249 0.930 . S
C245 N242 1.336 . S
C245 C244 1.346 . S
C245 H252 0.929 . S
C246 O236 1.282 . S
C246 O247 1.216 . S
O247 C246 1.216 . S
H248 C243 0.930 . S
H249 C244 0.930 . S
O250 Cu230 1.959 . S
O250 C237 1.251 . S
H251 C234 0.930 . S
H252 C245 0.929 . S
Cu253 N254 1.999 . S
Cu253 O259 1.974 . S
Cu253 N264 1.985 . S
Cu253 O273 1.959 . S
N254 Cu253 1.999 . S
N254 C256 1.263 . S
N254 C258 1.389 . S
N255 C256 1.358 . S
N255 C257 1.400 . S
C256 N254 1.263 . S
C256 N255 1.358 . S
C256 H262 0.930 . S
C257 N255 1.400 . S
C257 C258 1.351 . S
C257 H274 0.930 . S
C258 N254 1.389 . S
C258 C257 1.351 . S
C258 H263 0.930 . S
O259 Cu253 1.974 . S
O259 C269 1.282 . S
C260 O261 1.261 . S
C260 O273 1.251 1_554 S
O261 C260 1.261 . S
H262 C256 0.930 . S
H263 C258 0.930 . S
N264 Cu253 1.985 . S
N264 C266 1.335 . S
N264 C267 1.390 . S
N265 C266 1.345 . S
N265 C268 1.336 . S
C266 N264 1.335 . S
C266 N265 1.345 . S
C266 H271 0.930 . S
C267 N264 1.390 . S
C267 C268 1.346 . S
C267 H272 0.930 . S
C268 N265 1.336 . S
C268 C267 1.346 . S
C268 H275 0.929 . S
C269 O259 1.282 . S
C269 O270 1.216 . S
O270 C269 1.216 . S
H271 C266 0.930 . S
H272 C267 0.930 . S
O273 Cu253 1.959 . S
O273 C260 1.251 1_556 S
H274 C257 0.930 . S
H275 C268 0.929 . S
Cu276 N277 1.999 . S
Cu276 O282 1.974 . S
Cu276 N287 1.985 . S
Cu276 O296 1.959 . S
N277 Cu276 1.999 . S
N277 C279 1.263 . S
N277 C281 1.389 . S
N278 C279 1.358 . S
N278 C280 1.400 . S
C279 N277 1.263 . S
C279 N278 1.358 . S
C279 H285 0.930 . S
C280 N278 1.400 . S
C280 C281 1.351 . S
C280 H297 0.930 . S
C281 N277 1.389 . S
C281 C280 1.351 . S
C281 H286 0.930 . S
O282 Cu276 1.974 . S
O282 C292 1.282 . S
C283 O284 1.261 . S
C283 O296 1.251 . S
O284 C283 1.261 . S
H285 C279 0.930 . S
H286 C281 0.930 . S
N287 Cu276 1.985 . S
N287 C289 1.335 . S
N287 C290 1.390 . S
N288 C289 1.345 . S
N288 C291 1.336 . S
C289 N287 1.335 . S
C289 N288 1.345 . S
C289 H294 0.930 . S
C290 N287 1.390 . S
C290 C291 1.346 . S
C290 H295 0.930 . S
C291 N288 1.336 . S
C291 C290 1.346 . S
C291 H298 0.929 . S
C292 O282 1.282 . S
C292 O293 1.216 . S
O293 C292 1.216 . S
H294 C289 0.930 . S
H295 C290 0.930 . S
O296 Cu276 1.959 . S
O296 C283 1.251 . S
H297 C280 0.930 . S
H298 C291 0.929 . S
Cu299 N300 1.999 . S
Cu299 O305 1.974 . S
Cu299 N310 1.985 . S
Cu299 O319 1.959 . S
N300 Cu299 1.999 . S
N300 C302 1.263 . S
N300 C304 1.389 . S
N301 C302 1.358 . S
N301 C303 1.400 . S
C302 N300 1.263 . S
C302 N301 1.358 . S
C302 H308 0.930 . S
C303 N301 1.400 . S
C303 C304 1.351 . S
C303 H320 0.930 . S
C304 N300 1.389 . S
C304 C303 1.351 . S
C304 H309 0.930 . S
O305 Cu299 1.974 . S
O305 C315 1.282 . S
C306 O307 1.261 . S
C306 O319 1.251 . S
O307 C306 1.261 . S
H308 C302 0.930 . S
H309 C304 0.930 . S
N310 Cu299 1.985 . S
N310 C312 1.335 . S
N310 C313 1.390 . S
N311 C312 1.345 . S
N311 C314 1.336 . S
C312 N310 1.335 . S
C312 N311 1.345 . S
C312 H317 0.930 . S
C313 N310 1.390 . S
C313 C314 1.346 . S
C313 H318 0.930 . S
C314 N311 1.336 . S
C314 C313 1.346 . S
C314 H321 0.929 . S
C315 O305 1.282 . S
C315 O316 1.216 . S
O316 C315 1.216 . S
H317 C312 0.930 . S
H318 C313 0.930 . S
O319 Cu299 1.959 . S
O319 C306 1.251 . S
H320 C303 0.930 . S
H321 C314 0.929 . S
Cu322 N323 1.999 . S
Cu322 O328 1.974 . S
Cu322 N333 1.985 . S
Cu322 O342 1.959 . S
N323 Cu322 1.999 . S
N323 C325 1.263 . S
N323 C327 1.389 . S
N324 C325 1.358 . S
N324 C326 1.400 . S
C325 N323 1.263 . S
C325 N324 1.358 . S
C325 H331 0.930 . S
C326 N324 1.400 . S
C326 C327 1.351 . S
C326 H343 0.930 . S
C327 N323 1.389 . S
C327 C326 1.351 . S
C327 H332 0.930 . S
O328 Cu322 1.974 . S
O328 C338 1.282 . S
C329 O330 1.261 . S
C329 O342 1.251 . S
O330 C329 1.261 . S
H331 C325 0.930 . S
H332 C327 0.930 . S
N333 Cu322 1.985 . S
N333 C335 1.335 . S
N333 C336 1.390 . S
N334 C335 1.345 . S
N334 C337 1.336 . S
C335 N333 1.335 . S
C335 N334 1.345 . S
C335 H340 0.930 . S
C336 N333 1.390 . S
C336 C337 1.346 . S
C336 H341 0.930 . S
C337 N334 1.336 . S
C337 C336 1.346 . S
C337 H344 0.929 . S
C338 O328 1.282 . S
C338 O339 1.216 . S
O339 C338 1.216 . S
H340 C335 0.930 . S
H341 C336 0.930 . S
O342 Cu322 1.959 . S
O342 C329 1.251 . S
H343 C326 0.930 . S
H344 C337 0.929 . S
Cu345 N346 1.999 . S
Cu345 O351 1.974 . S
Cu345 N356 1.985 . S
Cu345 O365 1.959 . S
N346 Cu345 1.999 . S
N346 C348 1.263 . S
N346 C350 1.389 . S
N347 C348 1.358 . S
N347 C349 1.400 . S
C348 N346 1.263 . S
C348 N347 1.358 . S
C348 H354 0.930 . S
C349 N347 1.400 . S
C349 C350 1.351 . S
C349 H366 0.930 . S
C350 N346 1.389 . S
C350 C349 1.351 . S
C350 H355 0.930 . S
O351 Cu345 1.974 . S
O351 C361 1.282 . S
C352 O353 1.261 . S
C352 O365 1.251 1_556 S
O353 C352 1.261 . S
H354 C348 0.930 . S
H355 C350 0.930 . S
N356 Cu345 1.985 . S
N356 C358 1.335 . S
N356 C359 1.390 . S
N357 C358 1.345 . S
N357 C360 1.336 . S
C358 N356 1.335 . S
C358 N357 1.345 . S
C358 H363 0.930 . S
C359 N356 1.390 . S
C359 C360 1.346 . S
C359 H364 0.930 . S
C360 N357 1.336 . S
C360 C359 1.346 . S
C360 H367 0.929 . S
C361 O351 1.282 . S
C361 O362 1.216 . S
O362 C361 1.216 . S
H363 C358 0.930 . S
H364 C359 0.930 . S
O365 Cu345 1.959 . S
O365 C352 1.251 1_554 S
H366 C349 0.930 . S
H367 C360 0.929 . S
Cu368 N369 1.999 . S
Cu368 O374 1.974 . S
Cu368 N379 1.985 . S
Cu368 O388 1.959 . S
N369 Cu368 1.999 . S
N369 C371 1.263 . S
N369 C373 1.389 . S
N370 C371 1.358 . S
N370 C372 1.400 . S
C371 N369 1.263 . S
C371 N370 1.358 . S
C371 H377 0.930 . S
C372 N370 1.400 . S
C372 C373 1.351 . S
C372 H389 0.930 . S
C373 N369 1.389 . S
C373 C372 1.351 . S
C373 H378 0.930 . S
O374 Cu368 1.974 . S
O374 C384 1.282 . S
C375 O376 1.261 . S
C375 O388 1.251 . S
O376 C375 1.261 . S
H377 C371 0.930 . S
H378 C373 0.930 . S
N379 Cu368 1.985 . S
N379 C381 1.335 . S
N379 C382 1.390 . S
N380 C381 1.345 . S
N380 C383 1.336 . S
C381 N379 1.335 . S
C381 N380 1.345 . S
C381 H386 0.930 . S
C382 N379 1.390 . S
C382 C383 1.346 . S
C382 H387 0.930 . S
C383 N380 1.336 . S
C383 C382 1.346 . S
C383 H390 0.929 . S
C384 O374 1.282 . S
C384 O385 1.216 . S
O385 C384 1.216 . S
H386 C381 0.930 . S
H387 C382 0.930 . S
O388 Cu368 1.959 . S
O388 C375 1.251 . S
H389 C372 0.930 . S
H390 C383 0.929 . S
Cu391 N392 1.999 . S
Cu391 O397 1.974 . S
Cu391 N402 1.985 . S
Cu391 O411 1.959 . S
N392 Cu391 1.999 . S
N392 C394 1.263 1_554 S
N392 C396 1.389 1_554 S
N393 C394 1.358 . S
N393 C395 1.400 . S
C394 N392 1.263 1_556 S
C394 N393 1.358 . S
C394 H400 0.930 . S
C395 N393 1.400 . S
C395 C396 1.351 . S
C395 H412 0.930 . S
C396 N392 1.389 1_556 S
C396 C395 1.351 . S
C396 H401 0.930 . S
O397 Cu391 1.974 . S
O397 C407 1.282 . S
C398 O399 1.261 . S
C398 O411 1.251 . S
O399 C398 1.261 . S
H400 C394 0.930 . S
H401 C396 0.930 . S
N402 Cu391 1.985 . S
N402 C404 1.335 . S
N402 C405 1.390 . S
N403 C404 1.345 . S
N403 C406 1.336 . S
C404 N402 1.335 . S
C404 N403 1.345 . S
C404 H409 0.930 . S
C405 N402 1.390 . S
C405 C406 1.346 . S
C405 H410 0.930 . S
C406 N403 1.336 . S
C406 C405 1.346 . S
C406 H413 0.929 . S
C407 O397 1.282 . S
C407 O408 1.216 . S
O408 C407 1.216 . S
H409 C404 0.930 . S
H410 C405 0.930 . S
O411 Cu391 1.959 . S
O411 C398 1.251 . S
H412 C395 0.930 . S
H413 C406 0.929 . S
Cu414 N415 1.999 . S
Cu414 O420 1.974 . S
Cu414 N425 1.985 . S
Cu414 O434 1.959 . S
N415 Cu414 1.999 . S
N415 C417 1.263 . S
N415 C419 1.389 . S
N416 C417 1.358 . S
N416 C418 1.400 . S
C417 N415 1.263 . S
C417 N416 1.358 . S
C417 H423 0.930 . S
C418 N416 1.400 . S
C418 C419 1.351 . S
C418 H435 0.930 . S
C419 N415 1.389 . S
C419 C418 1.351 . S
C419 H424 0.930 . S
O420 Cu414 1.974 . S
O420 C430 1.282 . S
C421 O422 1.261 . S
C421 O434 1.251 . S
O422 C421 1.261 . S
H423 C417 0.930 . S
H424 C419 0.930 . S
N425 Cu414 1.985 . S
N425 C427 1.335 . S
N425 C428 1.390 . S
N426 C427 1.345 . S
N426 C429 1.336 . S
C427 N425 1.335 . S
C427 N426 1.345 . S
C427 H432 0.930 . S
C428 N425 1.390 . S
C428 C429 1.346 . S
C428 H433 0.930 . S
C429 N426 1.336 . S
C429 C428 1.346 . S
C429 H436 0.929 . S
C430 O420 1.282 . S
C430 O431 1.216 . S
O431 C430 1.216 . S
H432 C427 0.930 . S
H433 C428 0.930 . S
O434 Cu414 1.959 . S
O434 C421 1.251 . S
H435 C418 0.930 . S
H436 C429 0.929 . S
Cu437 N438 1.999 . S
Cu437 O443 1.974 . S
Cu437 N448 1.985 . S
Cu437 O457 1.959 . S
N438 Cu437 1.999 . S
N438 C440 1.263 . S
N438 C442 1.389 . S
N439 C440 1.358 . S
N439 C441 1.400 . S
C440 N438 1.263 . S
C440 N439 1.358 . S
C440 H446 0.930 . S
C441 N439 1.400 . S
C441 C442 1.351 . S
C441 H458 0.930 . S
C442 N438 1.389 . S
C442 C441 1.351 . S
C442 H447 0.930 . S
O443 Cu437 1.974 . S
O443 C453 1.282 . S
C444 O445 1.261 . S
C444 O457 1.251 . S
O445 C444 1.261 . S
H446 C440 0.930 . S
H447 C442 0.930 . S
N448 Cu437 1.985 . S
N448 C450 1.335 . S
N448 C451 1.390 . S
N449 C450 1.345 . S
N449 C452 1.336 . S
C450 N448 1.335 . S
C450 N449 1.345 . S
C450 H455 0.930 . S
C451 N448 1.390 . S
C451 C452 1.346 . S
C451 H456 0.930 . S
C452 N449 1.336 . S
C452 C451 1.346 . S
C452 H459 0.929 . S
C453 O443 1.282 . S
C453 O454 1.216 . S
O454 C453 1.216 . S
H455 C450 0.930 . S
H456 C451 0.930 . S
O457 Cu437 1.959 . S
O457 C444 1.251 . S
H458 C441 0.930 . S
H459 C452 0.929 . S
Cu460 N461 1.999 . S
Cu460 O466 1.974 . S
Cu460 N471 1.985 . S
Cu460 O480 1.959 . S
N461 Cu460 1.999 . S
N461 C463 1.263 . S
N461 C465 1.389 . S
N462 C463 1.358 . S
N462 C464 1.400 . S
C463 N461 1.263 . S
C463 N462 1.358 . S
C463 H469 0.930 . S
C464 N462 1.400 . S
C464 C465 1.351 . S
C464 H481 0.930 . S
C465 N461 1.389 . S
C465 C464 1.351 . S
C465 H470 0.930 . S
O466 Cu460 1.974 . S
O466 C476 1.282 . S
C467 O468 1.261 . S
C467 O480 1.251 . S
O468 C467 1.261 . S
H469 C463 0.930 . S
H470 C465 0.930 . S
N471 Cu460 1.985 . S
N471 C473 1.335 . S
N471 C474 1.390 . S
N472 C473 1.345 . S
N472 C475 1.336 . S
C473 N471 1.335 . S
C473 N472 1.345 . S
C473 H478 0.930 . S
C474 N471 1.390 . S
C474 C475 1.346 . S
C474 H479 0.930 . S
C475 N472 1.336 . S
C475 C474 1.346 . S
C475 H482 0.929 . S
C476 O466 1.282 . S
C476 O477 1.216 . S
O477 C476 1.216 . S
H478 C473 0.930 . S
H479 C474 0.930 . S
O480 Cu460 1.959 . S
O480 C467 1.251 . S
H481 C464 0.930 . S
H482 C475 0.929 . S
Cu483 N484 1.999 . S
Cu483 O489 1.974 . S
Cu483 N494 1.985 . S
Cu483 O503 1.959 . S
N484 Cu483 1.999 . S
N484 C486 1.263 1_556 S
N484 C488 1.389 1_556 S
N485 C486 1.358 . S
N485 C487 1.400 . S
C486 N484 1.263 1_554 S
C486 N485 1.358 . S
C486 H492 0.930 . S
C487 N485 1.400 . S
C487 C488 1.351 . S
C487 H504 0.930 . S
C488 N484 1.389 1_554 S
C488 C487 1.351 . S
C488 H493 0.930 . S
O489 Cu483 1.974 . S
O489 C499 1.282 . S
C490 O491 1.261 . S
C490 O503 1.251 . S
O491 C490 1.261 . S
H492 C486 0.930 . S
H493 C488 0.930 . S
N494 Cu483 1.985 . S
N494 C496 1.335 . S
N494 C497 1.390 . S
N495 C496 1.345 . S
N495 C498 1.336 . S
C496 N494 1.335 . S
C496 N495 1.345 . S
C496 H501 0.930 . S
C497 N494 1.390 . S
C497 C498 1.346 . S
C497 H502 0.930 . S
C498 N495 1.336 . S
C498 C497 1.346 . S
C498 H505 0.929 . S
C499 O489 1.282 . S
C499 O500 1.216 . S
O500 C499 1.216 . S
H501 C496 0.930 . S
H502 C497 0.930 . S
O503 Cu483 1.959 . S
O503 C490 1.251 . S
H504 C487 0.930 . S
H505 C498 0.929 . S
Cu506 N507 1.999 . S
Cu506 O512 1.974 . S
Cu506 N517 1.985 . S
Cu506 O526 1.959 . S
N507 Cu506 1.999 . S
N507 C509 1.263 . S
N507 C511 1.389 . S
N508 C509 1.358 . S
N508 C510 1.400 . S
C509 N507 1.263 . S
C509 N508 1.358 . S
C509 H515 0.930 . S
C510 N508 1.400 . S
C510 C511 1.351 . S
C510 H527 0.930 . S
C511 N507 1.389 . S
C511 C510 1.351 . S
C511 H516 0.930 . S
O512 Cu506 1.974 . S
O512 C522 1.282 . S
C513 O514 1.261 . S
C513 O526 1.251 . S
O514 C513 1.261 . S
H515 C509 0.930 . S
H516 C511 0.930 . S
N517 Cu506 1.985 . S
N517 C519 1.335 . S
N517 C520 1.390 . S
N518 C519 1.345 . S
N518 C521 1.336 . S
C519 N517 1.335 . S
C519 N518 1.345 . S
C519 H524 0.930 . S
C520 N517 1.390 . S
C520 C521 1.346 . S
C520 H525 0.930 . S
C521 N518 1.336 . S
C521 C520 1.346 . S
C521 H528 0.929 . S
C522 O512 1.282 . S
C522 O523 1.216 . S
O523 C522 1.216 . S
H524 C519 0.930 . S
H525 C520 0.930 . S
O526 Cu506 1.959 . S
O526 C513 1.251 . S
H527 C510 0.930 . S
H528 C521 0.929 . S
Cu529 N530 1.999 . S
Cu529 O535 1.974 . S
Cu529 N540 1.985 . S
Cu529 O549 1.959 . S
N530 Cu529 1.999 . S
N530 C532 1.263 . S
N530 C534 1.389 . S
N531 C532 1.358 . S
N531 C533 1.400 . S
C532 N530 1.263 . S
C532 N531 1.358 . S
C532 H538 0.930 . S
C533 N531 1.400 . S
C533 C534 1.351 . S
C533 H550 0.930 . S
C534 N530 1.389 . S
C534 C533 1.351 . S
C534 H539 0.930 . S
O535 Cu529 1.974 . S
O535 C545 1.282 . S
C536 O537 1.261 . S
C536 O549 1.251 . S
O537 C536 1.261 . S
H538 C532 0.930 . S
H539 C534 0.930 . S
N540 Cu529 1.985 . S
N540 C542 1.335 . S
N540 C543 1.390 . S
N541 C542 1.345 . S
N541 C544 1.336 . S
C542 N540 1.335 . S
C542 N541 1.345 . S
C542 H547 0.930 . S
C543 N540 1.390 . S
C543 C544 1.346 . S
C543 H548 0.930 . S
C544 N541 1.336 . S
C544 C543 1.346 . S
C544 H551 0.929 . S
C545 O535 1.282 . S
C545 O546 1.216 . S
O546 C545 1.216 . S
H547 C542 0.930 . S
H548 C543 0.930 . S
O549 Cu529 1.959 . S
O549 C536 1.251 . S
H550 C533 0.930 . S
H551 C544 0.929 . S
Cu552 N553 1.999 . S
Cu552 O558 1.974 . S
Cu552 N563 1.985 . S
Cu552 O572 1.959 . S
N553 Cu552 1.999 . S
N553 C555 1.263 . S
N553 C557 1.389 . S
N554 C555 1.358 . S
N554 C556 1.400 . S
C555 N553 1.263 . S
C555 N554 1.358 . S
C555 H561 0.930 . S
C556 N554 1.400 . S
C556 C557 1.351 . S
C556 H573 0.930 . S
C557 N553 1.389 . S
C557 C556 1.351 . S
C557 H562 0.930 . S
O558 Cu552 1.974 . S
O558 C568 1.282 . S
C559 O560 1.261 . S
C559 O572 1.251 . S
O560 C559 1.261 . S
H561 C555 0.930 . S
H562 C557 0.930 . S
N563 Cu552 1.985 . S
N563 C565 1.335 . S
N563 C566 1.390 . S
N564 C565 1.345 . S
N564 C567 1.336 . S
C565 N563 1.335 . S
C565 N564 1.345 . S
C565 H570 0.930 . S
C566 N563 1.390 . S
C566 C567 1.346 . S
C566 H571 0.930 . S
C567 N564 1.336 . S
C567 C566 1.346 . S
C567 H574 0.929 . S
C568 O558 1.282 . S
C568 O569 1.216 . S
O569 C568 1.216 . S
H570 C565 0.930 . S
H571 C566 0.930 . S
O572 Cu552 1.959 . S
O572 C559 1.251 . S
H573 C556 0.930 . S
H574 C567 0.929 . S
Cu575 N576 1.999 . S
Cu575 O581 1.974 . S
Cu575 N586 1.985 . S
Cu575 O595 1.959 . S
N576 Cu575 1.999 . S
N576 C578 1.263 . S
N576 C580 1.389 . S
N577 C578 1.358 . S
N577 C579 1.400 . S
C578 N576 1.263 . S
C578 N577 1.358 . S
C578 H584 0.930 . S
C579 N577 1.400 . S
C579 C580 1.351 . S
C579 H596 0.930 . S
C580 N576 1.389 . S
C580 C579 1.351 . S
C580 H585 0.930 . S
O581 Cu575 1.974 . S
O581 C591 1.282 . S
C582 O583 1.261 . S
C582 O595 1.251 1_554 S
O583 C582 1.261 . S
H584 C578 0.930 . S
H585 C580 0.930 . S
N586 Cu575 1.985 . S
N586 C588 1.335 . S
N586 C589 1.390 . S
N587 C588 1.345 . S
N587 C590 1.336 . S
C588 N586 1.335 . S
C588 N587 1.345 . S
C588 H593 0.930 . S
C589 N586 1.390 . S
C589 C590 1.346 . S
C589 H594 0.930 . S
C590 N587 1.336 . S
C590 C589 1.346 . S
C590 H597 0.929 . S
C591 O581 1.282 . S
C591 O592 1.216 . S
O592 C591 1.216 . S
H593 C588 0.930 . S
H594 C589 0.930 . S
O595 Cu575 1.959 . S
O595 C582 1.251 1_556 S
H596 C579 0.930 . S
H597 C590 0.929 . S
Cu598 N599 1.999 . S
Cu598 O604 1.974 . S
Cu598 N609 1.985 . S
Cu598 O618 1.959 . S
N599 Cu598 1.999 . S
N599 C601 1.263 . S
N599 C603 1.389 . S
N600 C601 1.358 . S
N600 C602 1.400 . S
C601 N599 1.263 . S
C601 N600 1.358 . S
C601 H607 0.930 . S
C602 N600 1.400 . S
C602 C603 1.351 . S
C602 H619 0.930 . S
C603 N599 1.389 . S
C603 C602 1.351 . S
C603 H608 0.930 . S
O604 Cu598 1.974 . S
O604 C614 1.282 . S
C605 O606 1.261 . S
C605 O618 1.251 . S
O606 C605 1.261 . S
H607 C601 0.930 . S
H608 C603 0.930 . S
N609 Cu598 1.985 . S
N609 C611 1.335 . S
N609 C612 1.390 . S
N610 C611 1.345 . S
N610 C613 1.336 . S
C611 N609 1.335 . S
C611 N610 1.345 . S
C611 H616 0.930 . S
C612 N609 1.390 . S
C612 C613 1.346 . S
C612 H617 0.930 . S
C613 N610 1.336 . S
C613 C612 1.346 . S
C613 H620 0.929 . S
C614 O604 1.282 . S
C614 O615 1.216 . S
O615 C614 1.216 . S
H616 C611 0.930 . S
H617 C612 0.930 . S
O618 Cu598 1.959 . S
O618 C605 1.251 . S
H619 C602 0.930 . S
H620 C613 0.929 . S
Cu621 N622 1.999 . S
Cu621 O627 1.974 . S
Cu621 N632 1.985 . S
Cu621 O641 1.959 . S
N622 Cu621 1.999 . S
N622 C624 1.263 . S
N622 C626 1.389 . S
N623 C624 1.358 . S
N623 C625 1.400 . S
C624 N622 1.263 . S
C624 N623 1.358 . S
C624 H630 0.930 . S
C625 N623 1.400 . S
C625 C626 1.351 . S
C625 H642 0.930 . S
C626 N622 1.389 . S
C626 C625 1.351 . S
C626 H631 0.930 . S
O627 Cu621 1.974 . S
O627 C637 1.282 . S
C628 O629 1.261 . S
C628 O641 1.251 . S
O629 C628 1.261 . S
H630 C624 0.930 . S
H631 C626 0.930 . S
N632 Cu621 1.985 . S
N632 C634 1.335 . S
N632 C635 1.390 . S
N633 C634 1.345 . S
N633 C636 1.336 . S
C634 N632 1.335 . S
C634 N633 1.345 . S
C634 H639 0.930 . S
C635 N632 1.390 . S
C635 C636 1.346 . S
C635 H640 0.930 . S
C636 N633 1.336 . S
C636 C635 1.346 . S
C636 H643 0.929 . S
C637 O627 1.282 . S
C637 O638 1.216 . S
O638 C637 1.216 . S
H639 C634 0.930 . S
H640 C635 0.930 . S
O641 Cu621 1.959 . S
O641 C628 1.251 . S
H642 C625 0.930 . S
H643 C636 0.929 . S
Cu644 N645 1.999 . S
Cu644 O650 1.974 . S
Cu644 N655 1.985 . S
Cu644 O664 1.959 . S
N645 Cu644 1.999 . S
N645 C647 1.263 . S
N645 C649 1.389 . S
N646 C647 1.358 . S
N646 C648 1.400 . S
C647 N645 1.263 . S
C647 N646 1.358 . S
C647 H653 0.930 . S
C648 N646 1.400 . S
C648 C649 1.351 . S
C648 H665 0.930 . S
C649 N645 1.389 . S
C649 C648 1.351 . S
C649 H654 0.930 . S
O650 Cu644 1.974 . S
O650 C660 1.282 . S
C651 O652 1.261 . S
C651 O664 1.251 . S
O652 C651 1.261 . S
H653 C647 0.930 . S
H654 C649 0.930 . S
N655 Cu644 1.985 . S
N655 C657 1.335 . S
N655 C658 1.390 . S
N656 C657 1.345 . S
N656 C659 1.336 . S
C657 N655 1.335 . S
C657 N656 1.345 . S
C657 H662 0.930 . S
C658 N655 1.390 . S
C658 C659 1.346 . S
C658 H663 0.930 . S
C659 N656 1.336 . S
C659 C658 1.346 . S
C659 H666 0.929 . S
C660 O650 1.282 . S
C660 O661 1.216 . S
O661 C660 1.216 . S
H662 C657 0.930 . S
H663 C658 0.930 . S
O664 Cu644 1.959 . S
O664 C651 1.251 . S
H665 C648 0.930 . S
H666 C659 0.929 . S
Cu667 N668 1.999 . S
Cu667 O673 1.974 . S
Cu667 N678 1.985 . S
Cu667 O687 1.959 . S
N668 Cu667 1.999 . S
N668 C670 1.263 . S
N668 C672 1.389 . S
N669 C670 1.358 . S
N669 C671 1.400 . S
C670 N668 1.263 . S
C670 N669 1.358 . S
C670 H676 0.930 . S
C671 N669 1.400 . S
C671 C672 1.351 . S
C671 H688 0.930 . S
C672 N668 1.389 . S
C672 C671 1.351 . S
C672 H677 0.930 . S
O673 Cu667 1.974 . S
O673 C683 1.282 . S
C674 O675 1.261 . S
C674 O687 1.251 1_556 S
O675 C674 1.261 . S
H676 C670 0.930 . S
H677 C672 0.930 . S
N678 Cu667 1.985 . S
N678 C680 1.335 . S
N678 C681 1.390 . S
N679 C680 1.345 . S
N679 C682 1.336 . S
C680 N678 1.335 . S
C680 N679 1.345 . S
C680 H685 0.930 . S
C681 N678 1.390 . S
C681 C682 1.346 . S
C681 H686 0.930 . S
C682 N679 1.336 . S
C682 C681 1.346 . S
C682 H689 0.929 . S
C683 O673 1.282 . S
C683 O684 1.216 . S
O684 C683 1.216 . S
H685 C680 0.930 . S
H686 C681 0.930 . S
O687 Cu667 1.959 . S
O687 C674 1.251 1_554 S
H688 C671 0.930 . S
H689 C682 0.929 . S
Cu690 N691 1.999 . S
Cu690 O696 1.974 . S
Cu690 N701 1.985 . S
Cu690 O710 1.959 . S
N691 Cu690 1.999 . S
N691 C693 1.263 . S
N691 C695 1.389 . S
N692 C693 1.358 . S
N692 C694 1.400 . S
C693 N691 1.263 . S
C693 N692 1.358 . S
C693 H699 0.930 . S
C694 N692 1.400 . S
C694 C695 1.351 . S
C694 H711 0.930 . S
C695 N691 1.389 . S
C695 C694 1.351 . S
C695 H700 0.930 . S
O696 Cu690 1.974 . S
O696 C706 1.282 . S
C697 O698 1.261 . S
C697 O710 1.251 . S
O698 C697 1.261 . S
H699 C693 0.930 . S
H700 C695 0.930 . S
N701 Cu690 1.985 . S
N701 C703 1.335 . S
N701 C704 1.390 . S
N702 C703 1.345 . S
N702 C705 1.336 . S
C703 N701 1.335 . S
C703 N702 1.345 . S
C703 H708 0.930 . S
C704 N701 1.390 . S
C704 C705 1.346 . S
C704 H709 0.930 . S
C705 N702 1.336 . S
C705 C704 1.346 . S
C705 H712 0.929 . S
C706 O696 1.282 . S
C706 O707 1.216 . S
O707 C706 1.216 . S
H708 C703 0.930 . S
H709 C704 0.930 . S
O710 Cu690 1.959 . S
O710 C697 1.251 . S
H711 C694 0.930 . S
H712 C705 0.929 . S
Cu713 N714 1.999 . S
Cu713 O719 1.974 . S
Cu713 N724 1.985 . S
Cu713 O733 1.959 . S
N714 Cu713 1.999 . S
N714 C716 1.263 . S
N714 C718 1.389 . S
N715 C716 1.358 . S
N715 C717 1.400 . S
C716 N714 1.263 . S
C716 N715 1.358 . S
C716 H722 0.930 . S
C717 N715 1.400 . S
C717 C718 1.351 . S
C717 H734 0.930 . S
C718 N714 1.389 . S
C718 C717 1.351 . S
C718 H723 0.930 . S
O719 Cu713 1.974 . S
O719 C729 1.282 . S
C720 O721 1.261 . S
C720 O733 1.251 . S
O721 C720 1.261 . S
H722 C716 0.930 . S
H723 C718 0.930 . S
N724 Cu713 1.985 . S
N724 C726 1.335 . S
N724 C727 1.390 . S
N725 C726 1.345 . S
N725 C728 1.336 . S
C726 N724 1.335 . S
C726 N725 1.345 . S
C726 H731 0.930 . S
C727 N724 1.390 . S
C727 C728 1.346 . S
C727 H732 0.930 . S
C728 N725 1.336 . S
C728 C727 1.346 . S
C728 H735 0.929 . S
C729 O719 1.282 . S
C729 O730 1.216 . S
O730 C729 1.216 . S
H731 C726 0.930 . S
H732 C727 0.930 . S
O733 Cu713 1.959 . S
O733 C720 1.251 . S
H734 C717 0.930 . S
H735 C728 0.929 . S
H736 C744 0.950 . S
H737 C749 0.950 . S
H738 C746 0.950 . S
H739 C748 0.950 . S
H740 C750 0.950 . S
H741 C752 0.950 . S
H742 C754 0.950 . S
H743 C755 0.950 . S
C744 H736 0.950 . S
C744 C745 1.386 . S
C744 C746 1.391 . S
C745 C744 1.386 . S
C745 C749 1.393 . S
C746 H738 0.950 . S
C746 C744 1.391 . S
C746 C747 1.400 . S
C747 C746 1.400 . S
C747 C748 1.398 . S
C747 C753 1.491 . S
C748 H739 0.950 . S
C748 C747 1.398 . S
C748 C749 1.391 . S
C749 H737 0.950 . S
C749 C745 1.393 . S
C749 C748 1.391 . S
C750 H740 0.950 . S
C750 C751 1.386 . S
C750 C752 1.391 . S
C751 C750 1.386 . S
C751 C755 1.393 . S
C752 H741 0.950 . S
C752 C750 1.391 . S
C752 C753 1.400 . S
C753 C747 1.491 . S
C753 C752 1.400 . S
C753 C754 1.398 . S
C754 H742 0.950 . S
C754 C753 1.398 . S
C754 C755 1.391 . S
C755 H743 0.950 . S
C755 C751 1.393 . S
C755 C754 1.391 . S
H756 C764 0.950 . S
H757 C769 0.950 . S
H758 C766 0.950 . S
H759 C768 0.950 . S
H760 C770 0.950 . S
H761 C772 0.950 . S
H762 C774 0.950 . S
H763 C775 0.950 . S
C764 H756 0.950 . S
C764 C765 1.386 . S
C764 C766 1.391 . S
C765 C764 1.386 . S
C765 C769 1.393 . S
C766 H758 0.950 . S
C766 C764 1.391 . S
C766 C767 1.400 . S
C767 C766 1.400 . S
C767 C768 1.398 . S
C767 C773 1.491 . S
C768 H759 0.950 . S
C768 C767 1.398 . S
C768 C769 1.391 . S
C769 H757 0.950 . S
C769 C765 1.393 . S
C769 C768 1.391 . S
C770 H760 0.950 . S
C770 C771 1.386 . S
C770 C772 1.391 . S
C771 C770 1.386 . S
C771 C775 1.393 . S
C772 H761 0.950 . S
C772 C770 1.391 . S
C772 C773 1.400 . S
C773 C767 1.491 . S
C773 C772 1.400 . S
C773 C774 1.398 . S
C774 H762 0.950 . S
C774 C773 1.398 . S
C774 C775 1.391 . S
C775 H763 0.950 . S
C775 C771 1.393 . S
C775 C774 1.391 . S
H776 C784 0.950 . S
H777 C789 0.950 . S
H778 C786 0.950 . S
H779 C788 0.950 . S
H780 C790 0.950 . S
H781 C792 0.950 . S
H782 C794 0.950 . S
H783 C795 0.950 . S
C784 H776 0.950 . S
C784 C785 1.386 . S
C784 C786 1.391 . S
C785 C784 1.386 . S
C785 C789 1.393 . S
C786 H778 0.950 . S
C786 C784 1.391 . S
C786 C787 1.400 . S
C787 C786 1.400 . S
C787 C788 1.398 . S
C787 C793 1.491 . S
C788 H779 0.950 . S
C788 C787 1.398 . S
C788 C789 1.391 . S
C789 H777 0.950 . S
C789 C785 1.393 . S
C789 C788 1.391 . S
C790 H780 0.950 . S
C790 C791 1.386 . S
C790 C792 1.391 . S
C791 C790 1.386 . S
C791 C795 1.393 . S
C792 H781 0.950 . S
C792 C790 1.391 . S
C792 C793 1.400 . S
C793 C787 1.491 . S
C793 C792 1.400 . S
C793 C794 1.398 . S
C794 H782 0.950 . S
C794 C793 1.398 . S
C794 C795 1.391 . S
C795 H783 0.950 . S
C795 C791 1.393 . S
C795 C794 1.391 . S
H796 C804 0.950 . S
H797 C809 0.950 . S
H798 C806 0.950 . S
H799 C808 0.950 . S
H800 C810 0.950 . S
H801 C812 0.950 . S
H802 C814 0.950 . S
H803 C815 0.950 . S
C804 H796 0.950 . S
C804 C805 1.386 . S
C804 C806 1.391 . S
C805 C804 1.386 . S
C805 C809 1.393 . S
C806 H798 0.950 . S
C806 C804 1.391 . S
C806 C807 1.400 . S
C807 C806 1.400 . S
C807 C808 1.398 . S
C807 C813 1.491 . S
C808 H799 0.950 . S
C808 C807 1.398 . S
C808 C809 1.391 . S
C809 H797 0.950 . S
C809 C805 1.393 . S
C809 C808 1.391 . S
C810 H800 0.950 . S
C810 C811 1.386 . S
C810 C812 1.391 . S
C811 C810 1.386 . S
C811 C815 1.393 . S
C812 H801 0.950 . S
C812 C810 1.391 . S
C812 C813 1.400 . S
C813 C807 1.491 . S
C813 C812 1.400 . S
C813 C814 1.398 . S
C814 H802 0.950 . S
C814 C813 1.398 . S
C814 C815 1.391 . S
C815 H803 0.950 . S
C815 C811 1.393 . S
C815 C814 1.391 . S
H816 C824 0.950 . S
H817 C829 0.950 . S
H818 C826 0.950 . S
H819 C828 0.950 . S
H820 C830 0.950 . S
H821 C832 0.950 . S
H822 C834 0.950 . S
H823 C835 0.950 . S
C824 H816 0.950 . S
C824 C825 1.386 . S
C824 C826 1.391 . S
C825 C824 1.386 . S
C825 C829 1.393 . S
C826 H818 0.950 . S
C826 C824 1.391 . S
C826 C827 1.400 . S
C827 C826 1.400 . S
C827 C828 1.398 . S
C827 C833 1.491 . S
C828 H819 0.950 . S
C828 C827 1.398 . S
C828 C829 1.391 . S
C829 H817 0.950 . S
C829 C825 1.393 . S
C829 C828 1.391 . S
C830 H820 0.950 . S
C830 C831 1.386 . S
C830 C832 1.391 . S
C831 C830 1.386 . S
C831 C835 1.393 . S
C832 H821 0.950 . S
C832 C830 1.391 . S
C832 C833 1.400 . S
C833 C827 1.491 . S
C833 C832 1.400 . S
C833 C834 1.398 . S
C834 H822 0.950 . S
C834 C833 1.398 . S
C834 C835 1.391 . S
C835 H823 0.950 . S
C835 C831 1.393 . S
C835 C834 1.391 . S
H836 C844 0.950 . S
H837 C849 0.950 . S
H838 C846 0.950 . S
H839 C848 0.950 . S
H840 C850 0.950 . S
H841 C852 0.950 . S
H842 C854 0.950 . S
H843 C855 0.950 . S
C844 H836 0.950 . S
C844 C845 1.386 . S
C844 C846 1.391 . S
C845 C844 1.386 . S
C845 C849 1.393 . S
C846 H838 0.950 . S
C846 C844 1.391 . S
C846 C847 1.400 . S
C847 C846 1.400 . S
C847 C848 1.398 . S
C847 C853 1.491 . S
C848 H839 0.950 . S
C848 C847 1.398 . S
C848 C849 1.391 . S
C849 H837 0.950 . S
C849 C845 1.393 . S
C849 C848 1.391 . S
C850 H840 0.950 . S
C850 C851 1.386 . S
C850 C852 1.391 . S
C851 C850 1.386 . S
C851 C855 1.393 . S
C852 H841 0.950 . S
C852 C850 1.391 . S
C852 C853 1.400 . S
C853 C847 1.491 . S
C853 C852 1.400 . S
C853 C854 1.398 . S
C854 H842 0.950 . S
C854 C853 1.398 . S
C854 C855 1.391 . S
C855 H843 0.950 . S
C855 C851 1.393 . S
C855 C854 1.391 . S
H856 C864 0.950 . S
H857 C869 0.950 . S
H858 C866 0.950 . S
H859 C868 0.950 . S
H860 C870 0.950 . S
H861 C872 0.950 . S
H862 C874 0.950 . S
H863 C875 0.950 . S
C864 H856 0.950 . S
C864 C865 1.386 . S
C864 C866 1.391 . S
C865 C864 1.386 . S
C865 C869 1.393 . S
C866 H858 0.950 . S
C866 C864 1.391 . S
C866 C867 1.400 . S
C867 C866 1.400 . S
C867 C868 1.398 . S
C867 C873 1.491 . S
C868 H859 0.950 . S
C868 C867 1.398 . S
C868 C869 1.391 . S
C869 H857 0.950 . S
C869 C865 1.393 . S
C869 C868 1.391 . S
C870 H860 0.950 . S
C870 C871 1.386 . S
C870 C872 1.391 . S
C871 C870 1.386 . S
C871 C875 1.393 . S
C872 H861 0.950 . S
C872 C870 1.391 . S
C872 C873 1.400 . S
C873 C867 1.491 . S
C873 C872 1.400 . S
C873 C874 1.398 . S
C874 H862 0.950 . S
C874 C873 1.398 . S
C874 C875 1.391 . S
C875 H863 0.950 . S
C875 C871 1.393 . S
C875 C874 1.391 . S
H876 C884 0.950 . S
H877 C889 0.950 . S
H878 C886 0.950 . S
H879 C888 0.950 . S
H880 C890 0.950 . S
H881 C892 0.950 . S
H882 C894 0.950 . S
H883 C895 0.950 . S
C884 H876 0.950 . S
C884 C885 1.386 . S
C884 C886 1.391 . S
C885 C884 1.386 . S
C885 C889 1.393 . S
C886 H878 0.950 . S
C886 C884 1.391 . S
C886 C887 1.400 . S
C887 C886 1.400 . S
C887 C888 1.398 . S
C887 C893 1.491 . S
C888 H879 0.950 . S
C888 C887 1.398 . S
C888 C889 1.391 . S
C889 H877 0.950 . S
C889 C885 1.393 . S
C889 C888 1.391 . S
C890 H880 0.950 . S
C890 C891 1.386 . S
C890 C892 1.391 . S
C891 C890 1.386 . S
C891 C895 1.393 . S
C892 H881 0.950 . S
C892 C890 1.391 . S
C892 C893 1.400 . S
C893 C887 1.491 . S
C893 C892 1.400 . S
C893 C894 1.398 . S
C894 H882 0.950 . S
C894 C893 1.398 . S
C894 C895 1.391 . S
C895 H883 0.950 . S
C895 C891 1.393 . S
C895 C894 1.391 . S
H896 C904 0.950 . S
H897 C909 0.950 . S
H898 C906 0.950 . S
H899 C908 0.950 . S
H900 C910 0.950 . S
H901 C912 0.950 . S
H902 C914 0.950 . S
H903 C915 0.950 . S
C904 H896 0.950 . S
C904 C905 1.386 . S
C904 C906 1.391 . S
C905 C904 1.386 . S
C905 C909 1.393 . S
C906 H898 0.950 . S
C906 C904 1.391 . S
C906 C907 1.400 . S
C907 C906 1.400 . S
C907 C908 1.398 . S
C907 C913 1.491 . S
C908 H899 0.950 . S
C908 C907 1.398 . S
C908 C909 1.391 . S
C909 H897 0.950 . S
C909 C905 1.393 . S
C909 C908 1.391 . S
C910 H900 0.950 . S
C910 C911 1.386 . S
C910 C912 1.391 . S
C911 C910 1.386 . S
C911 C915 1.393 . S
C912 H901 0.950 . S
C912 C910 1.391 . S
C912 C913 1.400 . S
C913 C907 1.491 . S
C913 C912 1.400 . S
C913 C914 1.398 . S
C914 H902 0.950 . S
C914 C913 1.398 . S
C914 C915 1.391 . S
C915 H903 0.950 . S
C915 C911 1.393 . S
C915 C914 1.391 . S
H916 C924 0.950 . S
H917 C929 0.950 . S
H918 C926 0.950 . S
H919 C928 0.950 . S
H920 C930 0.950 . S
H921 C932 0.950 . S
H922 C934 0.950 . S
H923 C935 0.950 . S
C924 H916 0.950 . S
C924 C925 1.386 . S
C924 C926 1.391 . S
C925 C924 1.386 . S
C925 C929 1.393 . S
C926 H918 0.950 . S
C926 C924 1.391 . S
C926 C927 1.400 . S
C927 C926 1.400 . S
C927 C928 1.398 . S
C927 C933 1.491 . S
C928 H919 0.950 . S
C928 C927 1.398 . S
C928 C929 1.391 . S
C929 H917 0.950 . S
C929 C925 1.393 . S
C929 C928 1.391 . S
C930 H920 0.950 . S
C930 C931 1.386 . S
C930 C932 1.391 . S
C931 C930 1.386 . S
C931 C935 1.393 . S
C932 H921 0.950 . S
C932 C930 1.391 . S
C932 C933 1.400 . S
C933 C927 1.491 . S
C933 C932 1.400 . S
C933 C934 1.398 . S
C934 H922 0.950 . S
C934 C933 1.398 . S
C934 C935 1.391 . S
C935 H923 0.950 . S
C935 C931 1.393 . S
C935 C934 1.391 . S
H936 C944 0.950 . S
H937 C949 0.950 . S
H938 C946 0.950 . S
H939 C948 0.950 . S
H940 C950 0.950 . S
H941 C952 0.950 . S
H942 C954 0.950 . S
H943 C955 0.950 . S
C944 H936 0.950 . S
C944 C945 1.386 . S
C944 C946 1.391 . S
C945 C944 1.386 . S
C945 C949 1.393 . S
C946 H938 0.950 . S
C946 C944 1.391 . S
C946 C947 1.400 . S
C947 C946 1.400 . S
C947 C948 1.398 . S
C947 C953 1.491 . S
C948 H939 0.950 . S
C948 C947 1.398 . S
C948 C949 1.391 . S
C949 H937 0.950 . S
C949 C945 1.393 . S
C949 C948 1.391 . S
C950 H940 0.950 . S
C950 C951 1.386 . S
C950 C952 1.391 . S
C951 C950 1.386 . S
C951 C955 1.393 . S
C952 H941 0.950 . S
C952 C950 1.391 . S
C952 C953 1.400 . S
C953 C947 1.491 . S
C953 C952 1.400 . S
C953 C954 1.398 . S
C954 H942 0.950 . S
C954 C953 1.398 . S
C954 C955 1.391 . S
C955 H943 0.950 . S
C955 C951 1.393 . S
C955 C954 1.391 . S
H956 C964 0.950 . S
H957 C969 0.950 . S
H958 C966 0.950 . S
H959 C968 0.950 . S
H960 C970 0.950 . S
H961 C972 0.950 . S
H962 C974 0.950 . S
H963 C975 0.950 . S
C964 H956 0.950 . S
C964 C965 1.386 . S
C964 C966 1.391 . S
C965 C964 1.386 . S
C965 C969 1.393 . S
C966 H958 0.950 . S
C966 C964 1.391 . S
C966 C967 1.400 . S
C967 C966 1.400 . S
C967 C968 1.398 . S
C967 C973 1.491 . S
C968 H959 0.950 . S
C968 C967 1.398 . S
C968 C969 1.391 . S
C969 H957 0.950 . S
C969 C965 1.393 . S
C969 C968 1.391 . S
C970 H960 0.950 . S
C970 C971 1.386 . S
C970 C972 1.391 . S
C971 C970 1.386 . S
C971 C975 1.393 . S
C972 H961 0.950 . S
C972 C970 1.391 . S
C972 C973 1.400 . S
C973 C967 1.491 . S
C973 C972 1.400 . S
C973 C974 1.398 . S
C974 H962 0.950 . S
C974 C973 1.398 . S
C974 C975 1.391 . S
C975 H963 0.950 . S
C975 C971 1.393 . S
C975 C974 1.391 . S
H976 C984 0.950 . S
H977 C989 0.950 . S
H978 C986 0.950 . S
H979 C988 0.950 . S
H980 C990 0.950 . S
H981 C992 0.950 . S
H982 C994 0.950 . S
H983 C995 0.950 . S
C984 H976 0.950 . S
C984 C985 1.386 . S
C984 C986 1.391 . S
C985 C984 1.386 . S
C985 C989 1.393 . S
C986 H978 0.950 . S
C986 C984 1.391 . S
C986 C987 1.400 . S
C987 C986 1.400 . S
C987 C988 1.398 . S
C987 C993 1.491 . S
C988 H979 0.950 . S
C988 C987 1.398 . S
C988 C989 1.391 . S
C989 H977 0.950 . S
C989 C985 1.393 . S
C989 C988 1.391 . S
C990 H980 0.950 . S
C990 C991 1.386 . S
C990 C992 1.391 . S
C991 C990 1.386 . S
C991 C995 1.393 . S
C992 H981 0.950 . S
C992 C990 1.391 . S
C992 C993 1.400 . S
C993 C987 1.491 . S
C993 C992 1.400 . S
C993 C994 1.398 . S
C994 H982 0.950 . S
C994 C993 1.398 . S
C994 C995 1.391 . S
C995 H983 0.950 . S
C995 C991 1.393 . S
C995 C994 1.391 . S
H996 C1004 0.950 . S
H997 C1009 0.950 . S
H998 C1006 0.950 . S
H999 C1008 0.950 . S
H1000 C1010 0.950 . S
H1001 C1012 0.950 . S
H1002 C1014 0.950 . S
H1003 C1015 0.950 . S
C1004 H996 0.950 . S
C1004 C1005 1.386 . S
C1004 C1006 1.391 . S
C1005 C1004 1.386 . S
C1005 C1009 1.393 . S
C1006 H998 0.950 . S
C1006 C1004 1.391 . S
C1006 C1007 1.400 . S
C1007 C1006 1.400 . S
C1007 C1008 1.398 . S
C1007 C1013 1.491 . S
C1008 H999 0.950 . S
C1008 C1007 1.398 . S
C1008 C1009 1.391 . S
C1009 H997 0.950 . S
C1009 C1005 1.393 . S
C1009 C1008 1.391 . S
C1010 H1000 0.950 . S
C1010 C1011 1.386 . S
C1010 C1012 1.391 . S
C1011 C1010 1.386 . S
C1011 C1015 1.393 . S
C1012 H1001 0.950 . S
C1012 C1010 1.391 . S
C1012 C1013 1.400 . S
C1013 C1007 1.491 . S
C1013 C1012 1.400 . S
C1013 C1014 1.398 . S
C1014 H1002 0.950 . S
C1014 C1013 1.398 . S
C1014 C1015 1.391 . S
C1015 H1003 0.950 . S
C1015 C1011 1.393 . S
C1015 C1014 1.391 . S
H1016 C1024 0.950 . S
H1017 C1029 0.950 . S
H1018 C1026 0.950 . S
H1019 C1028 0.950 . S
H1020 C1030 0.950 . S
H1021 C1032 0.950 . S
H1022 C1034 0.950 . S
H1023 C1035 0.950 . S
C1024 H1016 0.950 . S
C1024 C1025 1.386 . S
C1024 C1026 1.391 . S
C1025 C1024 1.386 . S
C1025 C1029 1.393 . S
C1026 H1018 0.950 . S
C1026 C1024 1.391 . S
C1026 C1027 1.400 . S
C1027 C1026 1.400 . S
C1027 C1028 1.398 . S
C1027 C1033 1.491 . S
C1028 H1019 0.950 . S
C1028 C1027 1.398 . S
C1028 C1029 1.391 . S
C1029 H1017 0.950 . S
C1029 C1025 1.393 . S
C1029 C1028 1.391 . S
C1030 H1020 0.950 . S
C1030 C1031 1.386 . S
C1030 C1032 1.391 . S
C1031 C1030 1.386 . S
C1031 C1035 1.393 . S
C1032 H1021 0.950 . S
C1032 C1030 1.391 . S
C1032 C1033 1.400 . S
C1033 C1027 1.491 . S
C1033 C1032 1.400 . S
C1033 C1034 1.398 . S
C1034 H1022 0.950 . S
C1034 C1033 1.398 . S
C1034 C1035 1.391 . S
C1035 H1023 0.950 . S
C1035 C1031 1.393 . S
C1035 C1034 1.391 . S
H1036 C1044 0.950 . S
H1037 C1049 0.950 . S
H1038 C1046 0.950 . S
H1039 C1048 0.950 . S
H1040 C1050 0.950 . S
H1041 C1052 0.950 . S
H1042 C1054 0.950 . S
H1043 C1055 0.950 . S
C1044 H1036 0.950 . S
C1044 C1045 1.386 . S
C1044 C1046 1.391 . S
C1045 C1044 1.386 . S
C1045 C1049 1.393 . S
C1046 H1038 0.950 . S
C1046 C1044 1.391 . S
C1046 C1047 1.400 . S
C1047 C1046 1.400 . S
C1047 C1048 1.398 . S
C1047 C1053 1.491 . S
C1048 H1039 0.950 . S
C1048 C1047 1.398 . S
C1048 C1049 1.391 . S
C1049 H1037 0.950 . S
C1049 C1045 1.393 . S
C1049 C1048 1.391 . S
C1050 H1040 0.950 . S
C1050 C1051 1.386 . S
C1050 C1052 1.391 . S
C1051 C1050 1.386 . S
C1051 C1055 1.393 . S
C1052 H1041 0.950 . S
C1052 C1050 1.391 . S
C1052 C1053 1.400 . S
C1053 C1047 1.491 . S
C1053 C1052 1.400 . S
C1053 C1054 1.398 . S
C1054 H1042 0.950 . S
C1054 C1053 1.398 . S
C1054 C1055 1.391 . S
C1055 H1043 0.950 . S
C1055 C1051 1.393 . S
C1055 C1054 1.391 . S
H1056 C1064 0.950 . S
H1057 C1069 0.950 . S
H1058 C1066 0.950 . S
H1059 C1068 0.950 . S
H1060 C1070 0.950 . S
H1061 C1072 0.950 . S
H1062 C1074 0.950 . S
H1063 C1075 0.950 . S
C1064 H1056 0.950 . S
C1064 C1065 1.386 . S
C1064 C1066 1.391 . S
C1065 C1064 1.386 . S
C1065 C1069 1.393 . S
C1066 H1058 0.950 . S
C1066 C1064 1.391 . S
C1066 C1067 1.400 . S
C1067 C1066 1.400 . S
C1067 C1068 1.398 . S
C1067 C1073 1.491 . S
C1068 H1059 0.950 . S
C1068 C1067 1.398 . S
C1068 C1069 1.391 . S
C1069 H1057 0.950 . S
C1069 C1065 1.393 . S
C1069 C1068 1.391 . S
C1070 H1060 0.950 . S
C1070 C1071 1.386 . S
C1070 C1072 1.391 . S
C1071 C1070 1.386 . S
C1071 C1075 1.393 . S
C1072 H1061 0.950 . S
C1072 C1070 1.391 . S
C1072 C1073 1.400 . S
C1073 C1067 1.491 . S
C1073 C1072 1.400 . S
C1073 C1074 1.398 . S
C1074 H1062 0.950 . S
C1074 C1073 1.398 . S
C1074 C1075 1.391 . S
C1075 H1063 0.950 . S
C1075 C1071 1.393 . S
C1075 C1074 1.391 . S
H1076 C1084 0.950 . S
H1077 C1089 0.950 . S
H1078 C1086 0.950 . S
H1079 C1088 0.950 . S
H1080 C1090 0.950 . S
H1081 C1092 0.951 . S
H1082 C1094 0.950 . S
H1083 C1095 0.950 . S
C1084 H1076 0.950 . S
C1084 C1085 1.386 . S
C1084 C1086 1.391 . S
C1085 C1084 1.386 . S
C1085 C1089 1.393 . S
C1086 H1078 0.950 . S
C1086 C1084 1.391 . S
C1086 C1087 1.400 . S
C1087 C1086 1.400 . S
C1087 C1088 1.398 . S
C1087 C1093 1.491 . S
C1088 H1079 0.950 . S
C1088 C1087 1.398 . S
C1088 C1089 1.391 . S
C1089 H1077 0.950 . S
C1089 C1085 1.393 . S
C1089 C1088 1.391 . S
C1090 H1080 0.950 . S
C1090 C1091 1.386 . S
C1090 C1092 1.391 . S
C1091 C1090 1.386 . S
C1091 C1095 1.393 . S
C1092 H1081 0.951 . S
C1092 C1090 1.391 . S
C1092 C1093 1.400 1_455 S
C1093 C1087 1.491 . S
C1093 C1092 1.400 1_655 S
C1093 C1094 1.398 . S
C1094 H1082 0.950 . S
C1094 C1093 1.398 . S
C1094 C1095 1.391 1_655 S
C1095 H1083 0.950 . S
C1095 C1091 1.393 . S
C1095 C1094 1.391 1_455 S
H1096 C1104 0.950 . S
H1097 C1109 0.950 . S
H1098 C1106 0.950 . S
H1099 C1108 0.950 . S
H1100 C1110 0.950 . S
H1101 C1112 0.950 . S
H1102 C1114 0.950 . S
H1103 C1115 0.950 . S
C1104 H1096 0.950 . S
C1104 C1105 1.386 . S
C1104 C1106 1.391 . S
C1105 C1104 1.386 . S
C1105 C1109 1.393 . S
C1106 H1098 0.950 . S
C1106 C1104 1.391 . S
C1106 C1107 1.400 . S
C1107 C1106 1.400 . S
C1107 C1108 1.398 . S
C1107 C1113 1.491 . S
C1108 H1099 0.950 . S
C1108 C1107 1.398 . S
C1108 C1109 1.391 . S
C1109 H1097 0.950 . S
C1109 C1105 1.393 . S
C1109 C1108 1.391 . S
C1110 H1100 0.950 . S
C1110 C1111 1.386 . S
C1110 C1112 1.391 . S
C1111 C1110 1.386 . S
C1111 C1115 1.393 . S
C1112 H1101 0.950 . S
C1112 C1110 1.391 . S
C1112 C1113 1.400 . S
C1113 C1107 1.491 . S
C1113 C1112 1.400 . S
C1113 C1114 1.398 . S
C1114 H1102 0.950 . S
C1114 C1113 1.398 . S
C1114 C1115 1.391 . S
C1115 H1103 0.950 . S
C1115 C1111 1.393 . S
C1115 C1114 1.391 . S
H1116 C1124 0.950 . S
H1117 C1129 0.950 . S
H1118 C1126 0.950 . S
H1119 C1128 0.950 . S
H1120 C1130 0.950 . S
H1121 C1132 0.950 . S
H1122 C1134 0.950 . S
H1123 C1135 0.950 . S
C1124 H1116 0.950 . S
C1124 C1125 1.386 . S
C1124 C1126 1.391 . S
C1125 C1124 1.386 . S
C1125 C1129 1.393 . S
C1126 H1118 0.950 . S
C1126 C1124 1.391 . S
C1126 C1127 1.400 . S
C1127 C1126 1.400 . S
C1127 C1128 1.398 . S
C1127 C1133 1.491 . S
C1128 H1119 0.950 . S
C1128 C1127 1.398 . S
C1128 C1129 1.391 . S
C1129 H1117 0.950 . S
C1129 C1125 1.393 . S
C1129 C1128 1.391 . S
C1130 H1120 0.950 . S
C1130 C1131 1.386 . S
C1130 C1132 1.391 . S
C1131 C1130 1.386 . S
C1131 C1135 1.393 . S
C1132 H1121 0.950 . S
C1132 C1130 1.391 . S
C1132 C1133 1.400 . S
C1133 C1127 1.491 . S
C1133 C1132 1.400 . S
C1133 C1134 1.398 . S
C1134 H1122 0.950 . S
C1134 C1133 1.398 . S
C1134 C1135 1.391 . S
C1135 H1123 0.950 . S
C1135 C1131 1.393 . S
C1135 C1134 1.391 . S
H1136 C1144 0.950 . S
H1137 C1149 0.950 . S
H1138 C1146 0.950 . S
H1139 C1148 0.950 . S
H1140 C1150 0.950 . S
H1141 C1152 0.950 . S
H1142 C1154 0.950 . S
H1143 C1155 0.950 . S
C1144 H1136 0.950 . S
C1144 C1145 1.386 . S
C1144 C1146 1.391 . S
C1145 C1144 1.386 . S
C1145 C1149 1.393 . S
C1146 H1138 0.950 . S
C1146 C1144 1.391 . S
C1146 C1147 1.400 . S
C1147 C1146 1.400 . S
C1147 C1148 1.398 . S
C1147 C1153 1.491 . S
C1148 H1139 0.950 . S
C1148 C1147 1.398 . S
C1148 C1149 1.391 . S
C1149 H1137 0.950 . S
C1149 C1145 1.393 . S
C1149 C1148 1.391 . S
C1150 H1140 0.950 . S
C1150 C1151 1.386 . S
C1150 C1152 1.391 . S
C1151 C1150 1.386 . S
C1151 C1155 1.393 . S
C1152 H1141 0.950 . S
C1152 C1150 1.391 . S
C1152 C1153 1.400 . S
C1153 C1147 1.491 . S
C1153 C1152 1.400 . S
C1153 C1154 1.398 . S
C1154 H1142 0.950 . S
C1154 C1153 1.398 . S
C1154 C1155 1.391 . S
C1155 H1143 0.950 . S
C1155 C1151 1.393 . S
C1155 C1154 1.391 . S
H1156 C1164 0.950 . S
H1157 C1169 0.950 . S
H1158 C1166 0.950 . S
H1159 C1168 0.950 . S
H1160 C1170 0.950 . S
H1161 C1172 0.950 . S
H1162 C1174 0.950 . S
H1163 C1175 0.950 . S
C1164 H1156 0.950 . S
C1164 C1165 1.386 . S
C1164 C1166 1.391 . S
C1165 C1164 1.386 . S
C1165 C1169 1.393 . S
C1166 H1158 0.950 . S
C1166 C1164 1.391 . S
C1166 C1167 1.400 . S
C1167 C1166 1.400 . S
C1167 C1168 1.398 . S
C1167 C1173 1.491 . S
C1168 H1159 0.950 . S
C1168 C1167 1.398 . S
C1168 C1169 1.391 . S
C1169 H1157 0.950 . S
C1169 C1165 1.393 . S
C1169 C1168 1.391 . S
C1170 H1160 0.950 . S
C1170 C1171 1.386 . S
C1170 C1172 1.391 . S
C1171 C1170 1.386 . S
C1171 C1175 1.393 . S
C1172 H1161 0.950 . S
C1172 C1170 1.391 . S
C1172 C1173 1.400 . S
C1173 C1167 1.491 . S
C1173 C1172 1.400 . S
C1173 C1174 1.398 . S
C1174 H1162 0.950 . S
C1174 C1173 1.398 . S
C1174 C1175 1.391 . S
C1175 H1163 0.950 . S
C1175 C1171 1.393 . S
C1175 C1174 1.391 . S
H1176 C1184 0.950 . S
H1177 C1189 0.950 . S
H1178 C1186 0.950 . S
H1179 C1188 0.950 . S
H1180 C1190 0.950 . S
H1181 C1192 0.950 . S
H1182 C1194 0.950 . S
H1183 C1195 0.950 . S
C1184 H1176 0.950 . S
C1184 C1185 1.386 . S
C1184 C1186 1.391 . S
C1185 C1184 1.386 . S
C1185 C1189 1.393 . S
C1186 H1178 0.950 . S
C1186 C1184 1.391 . S
C1186 C1187 1.400 . S
C1187 C1186 1.400 . S
C1187 C1188 1.398 . S
C1187 C1193 1.491 . S
C1188 H1179 0.950 . S
C1188 C1187 1.398 . S
C1188 C1189 1.391 . S
C1189 H1177 0.950 . S
C1189 C1185 1.393 . S
C1189 C1188 1.391 . S
C1190 H1180 0.950 . S
C1190 C1191 1.386 . S
C1190 C1192 1.391 . S
C1191 C1190 1.386 . S
C1191 C1195 1.393 . S
C1192 H1181 0.950 . S
C1192 C1190 1.391 . S
C1192 C1193 1.400 . S
C1193 C1187 1.491 . S
C1193 C1192 1.400 . S
C1193 C1194 1.398 . S
C1194 H1182 0.950 . S
C1194 C1193 1.398 . S
C1194 C1195 1.391 . S
C1195 H1183 0.950 . S
C1195 C1191 1.393 . S
C1195 C1194 1.391 . S
H1196 C1204 0.950 . S
H1197 C1209 0.950 . S
H1198 C1206 0.950 . S
H1199 C1208 0.950 . S
H1200 C1210 0.950 . S
H1201 C1212 0.950 . S
H1202 C1214 0.950 . S
H1203 C1215 0.950 . S
C1204 H1196 0.950 . S
C1204 C1205 1.386 . S
C1204 C1206 1.391 . S
C1205 C1204 1.386 . S
C1205 C1209 1.393 . S
C1206 H1198 0.950 . S
C1206 C1204 1.391 . S
C1206 C1207 1.400 1_455 S
C1207 C1206 1.400 1_655 S
C1207 C1208 1.398 . S
C1207 C1213 1.491 . S
C1208 H1199 0.950 . S
C1208 C1207 1.398 . S
C1208 C1209 1.391 1_655 S
C1209 H1197 0.950 . S
C1209 C1205 1.393 . S
C1209 C1208 1.391 1_455 S
C1210 H1200 0.950 . S
C1210 C1211 1.386 . S
C1210 C1212 1.391 . S
C1211 C1210 1.386 . S
C1211 C1215 1.393 . S
C1212 H1201 0.950 . S
C1212 C1210 1.391 . S
C1212 C1213 1.400 . S
C1213 C1207 1.491 . S
C1213 C1212 1.400 . S
C1213 C1214 1.398 . S
C1214 H1202 0.950 . S
C1214 C1213 1.398 . S
C1214 C1215 1.391 . S
C1215 H1203 0.950 . S
C1215 C1211 1.393 . S
C1215 C1214 1.391 . S
H1216 C1224 0.950 . S
H1217 C1229 0.950 . S
H1218 C1226 0.950 . S
H1219 C1228 0.950 . S
H1220 C1230 0.950 . S
H1221 C1232 0.950 . S
H1222 C1234 0.950 . S
H1223 C1235 0.950 . S
C1224 H1216 0.950 . S
C1224 C1225 1.386 . S
C1224 C1226 1.391 . S
C1225 C1224 1.386 . S
C1225 C1229 1.393 . S
C1226 H1218 0.950 . S
C1226 C1224 1.391 . S
C1226 C1227 1.400 . S
C1227 C1226 1.400 . S
C1227 C1228 1.398 . S
C1227 C1233 1.491 . S
C1228 H1219 0.950 . S
C1228 C1227 1.398 . S
C1228 C1229 1.391 . S
C1229 H1217 0.950 . S
C1229 C1225 1.393 . S
C1229 C1228 1.391 . S
C1230 H1220 0.950 . S
C1230 C1231 1.386 . S
C1230 C1232 1.391 . S
C1231 C1230 1.386 . S
C1231 C1235 1.393 . S
C1232 H1221 0.950 . S
C1232 C1230 1.391 . S
C1232 C1233 1.400 . S
C1233 C1227 1.491 . S
C1233 C1232 1.400 . S
C1233 C1234 1.398 . S
C1234 H1222 0.950 . S
C1234 C1233 1.398 . S
C1234 C1235 1.391 . S
C1235 H1223 0.950 . S
C1235 C1231 1.393 . S
C1235 C1234 1.391 . S
H1236 C1244 0.950 . S
H1237 C1249 0.950 . S
H1238 C1246 0.950 . S
H1239 C1248 0.950 . S
H1240 C1250 0.950 . S
H1241 C1252 0.950 . S
H1242 C1254 0.950 . S
H1243 C1255 0.950 . S
C1244 H1236 0.950 . S
C1244 C1245 1.386 . S
C1244 C1246 1.391 . S
C1245 C1244 1.386 . S
C1245 C1249 1.393 . S
C1246 H1238 0.950 . S
C1246 C1244 1.391 . S
C1246 C1247 1.400 . S
C1247 C1246 1.400 . S
C1247 C1248 1.398 . S
C1247 C1253 1.491 1_655 S
C1248 H1239 0.950 . S
C1248 C1247 1.398 . S
C1248 C1249 1.391 . S
C1249 H1237 0.950 . S
C1249 C1245 1.393 . S
C1249 C1248 1.391 . S
C1250 H1240 0.950 . S
C1250 C1251 1.386 . S
C1250 C1252 1.391 . S
C1251 C1250 1.386 . S
C1251 C1255 1.393 . S
C1252 H1241 0.950 . S
C1252 C1250 1.391 . S
C1252 C1253 1.400 . S
C1253 C1247 1.491 1_455 S
C1253 C1252 1.400 . S
C1253 C1254 1.398 . S
C1254 H1242 0.950 . S
C1254 C1253 1.398 . S
C1254 C1255 1.391 . S
C1255 H1243 0.950 . S
C1255 C1251 1.393 . S
C1255 C1254 1.391 . S
H1256 C1264 0.950 . S
H1257 C1269 0.950 . S
H1258 C1266 0.950 . S
H1259 C1268 0.950 . S
H1260 C1270 0.950 . S
H1261 C1272 0.950 . S
H1262 C1274 0.950 . S
H1263 C1275 0.950 . S
C1264 H1256 0.950 . S
C1264 C1265 1.386 . S
C1264 C1266 1.391 . S
C1265 C1264 1.386 . S
C1265 C1269 1.393 . S
C1266 H1258 0.950 . S
C1266 C1264 1.391 . S
C1266 C1267 1.400 . S
C1267 C1266 1.400 . S
C1267 C1268 1.398 . S
C1267 C1273 1.491 . S
C1268 H1259 0.950 . S
C1268 C1267 1.398 . S
C1268 C1269 1.391 . S
C1269 H1257 0.950 . S
C1269 C1265 1.393 . S
C1269 C1268 1.391 . S
C1270 H1260 0.950 . S
C1270 C1271 1.386 . S
C1270 C1272 1.391 . S
C1271 C1270 1.386 . S
C1271 C1275 1.393 . S
C1272 H1261 0.950 . S
C1272 C1270 1.391 . S
C1272 C1273 1.400 . S
C1273 C1267 1.491 . S
C1273 C1272 1.400 . S
C1273 C1274 1.398 . S
C1274 H1262 0.950 . S
C1274 C1273 1.398 . S
C1274 C1275 1.391 . S
C1275 H1263 0.950 . S
C1275 C1271 1.393 . S
C1275 C1274 1.391 . S
H1276 C1284 0.950 . S
H1277 C1289 0.950 . S
H1278 C1286 0.950 . S
H1279 C1288 0.950 . S
H1280 C1290 0.950 . S
H1281 C1292 0.950 . S
H1282 C1294 0.950 . S
H1283 C1295 0.950 . S
C1284 H1276 0.950 . S
C1284 C1285 1.386 . S
C1284 C1286 1.391 . S
C1285 C1284 1.386 . S
C1285 C1289 1.393 . S
C1286 H1278 0.950 . S
C1286 C1284 1.391 . S
C1286 C1287 1.400 . S
C1287 C1286 1.400 . S
C1287 C1288 1.398 . S
C1287 C1293 1.491 . S
C1288 H1279 0.950 . S
C1288 C1287 1.398 . S
C1288 C1289 1.391 . S
C1289 H1277 0.950 . S
C1289 C1285 1.393 . S
C1289 C1288 1.391 . S
C1290 H1280 0.950 . S
C1290 C1291 1.386 . S
C1290 C1292 1.391 . S
C1291 C1290 1.386 . S
C1291 C1295 1.393 . S
C1292 H1281 0.950 . S
C1292 C1290 1.391 . S
C1292 C1293 1.400 . S
C1293 C1287 1.491 . S
C1293 C1292 1.400 . S
C1293 C1294 1.398 . S
C1294 H1282 0.950 . S
C1294 C1293 1.398 . S
C1294 C1295 1.391 . S
C1295 H1283 0.950 . S
C1295 C1291 1.393 . S
C1295 C1294 1.391 . S
H1296 C1304 0.950 . S
H1297 C1309 0.950 . S
H1298 C1306 0.950 . S
H1299 C1308 0.950 . S
H1300 C1310 0.950 . S
H1301 C1312 0.950 . S
H1302 C1314 0.950 . S
H1303 C1315 0.950 . S
C1304 H1296 0.950 . S
C1304 C1305 1.386 . S
C1304 C1306 1.391 . S
C1305 C1304 1.386 . S
C1305 C1309 1.393 . S
C1306 H1298 0.950 . S
C1306 C1304 1.391 . S
C1306 C1307 1.400 . S
C1307 C1306 1.400 . S
C1307 C1308 1.398 . S
C1307 C1313 1.491 . S
C1308 H1299 0.950 . S
C1308 C1307 1.398 . S
C1308 C1309 1.391 . S
C1309 H1297 0.950 . S
C1309 C1305 1.393 . S
C1309 C1308 1.391 . S
C1310 H1300 0.950 . S
C1310 C1311 1.386 . S
C1310 C1312 1.391 . S
C1311 C1310 1.386 . S
C1311 C1315 1.393 . S
C1312 H1301 0.950 . S
C1312 C1310 1.391 . S
C1312 C1313 1.400 . S
C1313 C1307 1.491 . S
C1313 C1312 1.400 . S
C1313 C1314 1.398 . S
C1314 H1302 0.950 . S
C1314 C1313 1.398 . S
C1314 C1315 1.391 . S
C1315 H1303 0.950 . S
C1315 C1311 1.393 . S
C1315 C1314 1.391 . S
H1316 C1324 0.950 . S
H1317 C1329 0.950 . S
H1318 C1326 0.950 . S
H1319 C1328 0.950 . S
H1320 C1330 0.950 . S
H1321 C1332 0.950 . S
H1322 C1334 0.950 . S
H1323 C1335 0.950 . S
C1324 H1316 0.950 . S
C1324 C1325 1.386 . S
C1324 C1326 1.391 . S
C1325 C1324 1.386 . S
C1325 C1329 1.393 . S
C1326 H1318 0.950 . S
C1326 C1324 1.391 . S
C1326 C1327 1.400 . S
C1327 C1326 1.400 . S
C1327 C1328 1.398 . S
C1327 C1333 1.491 . S
C1328 H1319 0.950 . S
C1328 C1327 1.398 . S
C1328 C1329 1.391 . S
C1329 H1317 0.950 . S
C1329 C1325 1.393 . S
C1329 C1328 1.391 . S
C1330 H1320 0.950 . S
C1330 C1331 1.386 . S
C1330 C1332 1.391 . S
C1331 C1330 1.386 . S
C1331 C1335 1.393 . S
C1332 H1321 0.950 . S
C1332 C1330 1.391 . S
C1332 C1333 1.400 . S
C1333 C1327 1.491 . S
C1333 C1332 1.400 . S
C1333 C1334 1.398 . S
C1334 H1322 0.950 . S
C1334 C1333 1.398 . S
C1334 C1335 1.391 . S
C1335 H1323 0.950 . S
C1335 C1331 1.393 . S
C1335 C1334 1.391 . S
H1336 C1344 0.950 . S
H1337 C1349 0.950 . S
H1338 C1346 0.950 . S
H1339 C1348 0.950 . S
H1340 C1350 0.950 . S
H1341 C1352 0.950 . S
H1342 C1354 0.950 . S
H1343 C1355 0.950 . S
C1344 H1336 0.950 . S
C1344 C1345 1.386 . S
C1344 C1346 1.391 . S
C1345 C1344 1.386 . S
C1345 C1349 1.393 . S
C1346 H1338 0.950 . S
C1346 C1344 1.391 . S
C1346 C1347 1.400 . S
C1347 C1346 1.400 . S
C1347 C1348 1.398 . S
C1347 C1353 1.491 . S
C1348 H1339 0.950 . S
C1348 C1347 1.398 . S
C1348 C1349 1.391 . S
C1349 H1337 0.950 . S
C1349 C1345 1.393 . S
C1349 C1348 1.391 . S
C1350 H1340 0.950 . S
C1350 C1351 1.386 . S
C1350 C1352 1.391 . S
C1351 C1350 1.386 . S
C1351 C1355 1.393 . S
C1352 H1341 0.950 . S
C1352 C1350 1.391 . S
C1352 C1353 1.400 . S
C1353 C1347 1.491 . S
C1353 C1352 1.400 . S
C1353 C1354 1.398 . S
C1354 H1342 0.950 . S
C1354 C1353 1.398 . S
C1354 C1355 1.391 . S
C1355 H1343 0.950 . S
C1355 C1351 1.393 . S
C1355 C1354 1.391 . S
H1356 C1364 0.950 . S
H1357 C1369 0.950 . S
H1358 C1366 0.950 . S
H1359 C1368 0.950 1_655 S
H1360 C1370 0.950 . S
H1361 C1372 0.950 . S
H1362 C1374 0.950 . S
H1363 C1375 0.950 . S
C1364 H1356 0.950 . S
C1364 C1365 1.386 . S
C1364 C1366 1.391 . S
C1365 C1364 1.386 . S
C1365 C1369 1.393 . S
C1366 H1358 0.950 . S
C1366 C1364 1.391 . S
C1366 C1367 1.400 . S
C1367 C1366 1.400 . S
C1367 C1368 1.398 . S
C1367 C1373 1.491 1_455 S
C1368 H1359 0.950 1_455 S
C1368 C1367 1.398 . S
C1368 C1369 1.391 . S
C1369 H1357 0.950 . S
C1369 C1365 1.393 . S
C1369 C1368 1.391 . S
C1370 H1360 0.950 . S
C1370 C1371 1.386 . S
C1370 C1372 1.391 . S
C1371 C1370 1.386 . S
C1371 C1375 1.393 . S
C1372 H1361 0.950 . S
C1372 C1370 1.391 . S
C1372 C1373 1.400 . S
C1373 C1367 1.491 1_655 S
C1373 C1372 1.400 . S
C1373 C1374 1.398 . S
C1374 H1362 0.950 . S
C1374 C1373 1.398 . S
C1374 C1375 1.391 . S
C1375 H1363 0.950 . S
C1375 C1371 1.393 . S
C1375 C1374 1.391 . S
H1376 C1384 0.950 . S
H1377 C1389 0.950 . S
H1378 C1386 0.950 . S
H1379 C1388 0.950 . S
H1380 C1390 0.950 . S
H1381 C1392 0.950 . S
H1382 C1394 0.950 . S
H1383 C1395 0.950 . S
C1384 H1376 0.950 . S
C1384 C1385 1.386 . S
C1384 C1386 1.391 . S
C1385 C1384 1.386 . S
C1385 C1389 1.393 . S
C1386 H1378 0.950 . S
C1386 C1384 1.391 . S
C1386 C1387 1.400 . S
C1387 C1386 1.400 . S
C1387 C1388 1.398 . S
C1387 C1393 1.491 . S
C1388 H1379 0.950 . S
C1388 C1387 1.398 . S
C1388 C1389 1.391 . S
C1389 H1377 0.950 . S
C1389 C1385 1.393 . S
C1389 C1388 1.391 . S
C1390 H1380 0.950 . S
C1390 C1391 1.386 . S
C1390 C1392 1.391 . S
C1391 C1390 1.386 . S
C1391 C1395 1.393 . S
C1392 H1381 0.950 . S
C1392 C1390 1.391 . S
C1392 C1393 1.400 . S
C1393 C1387 1.491 . S
C1393 C1392 1.400 . S
C1393 C1394 1.398 . S
C1394 H1382 0.950 . S
C1394 C1393 1.398 . S
C1394 C1395 1.391 . S
C1395 H1383 0.950 . S
C1395 C1391 1.393 . S
C1395 C1394 1.391 . S
H1396 C1404 0.950 . S
H1397 C1409 0.950 . S
H1398 C1406 0.950 . S
H1399 C1408 0.950 . S
H1400 C1410 0.950 . S
H1401 C1412 0.950 . S
H1402 C1414 0.950 . S
H1403 C1415 0.950 . S
C1404 H1396 0.950 . S
C1404 C1405 1.386 . S
C1404 C1406 1.391 . S
C1405 C1404 1.386 . S
C1405 C1409 1.393 . S
C1406 H1398 0.950 . S
C1406 C1404 1.391 . S
C1406 C1407 1.400 . S
C1407 C1406 1.400 . S
C1407 C1408 1.398 . S
C1407 C1413 1.491 . S
C1408 H1399 0.950 . S
C1408 C1407 1.398 . S
C1408 C1409 1.391 . S
C1409 H1397 0.950 . S
C1409 C1405 1.393 . S
C1409 C1408 1.391 . S
C1410 H1400 0.950 . S
C1410 C1411 1.386 . S
C1410 C1412 1.391 . S
C1411 C1410 1.386 . S
C1411 C1415 1.393 . S
C1412 H1401 0.950 . S
C1412 C1410 1.391 . S
C1412 C1413 1.400 . S
C1413 C1407 1.491 . S
C1413 C1412 1.400 . S
C1413 C1414 1.398 . S
C1414 H1402 0.950 . S
C1414 C1413 1.398 . S
C1414 C1415 1.391 . S
C1415 H1403 0.950 . S
C1415 C1411 1.393 . S
C1415 C1414 1.391 . S
H1416 C1424 0.950 . S
H1417 C1429 0.950 . S
H1418 C1426 0.950 . S
H1419 C1428 0.950 . S
H1420 C1430 0.950 . S
H1421 C1432 0.950 . S
H1422 C1434 0.950 . S
H1423 C1435 0.950 . S
C1424 H1416 0.950 . S
C1424 C1425 1.386 . S
C1424 C1426 1.391 . S
C1425 C1424 1.386 . S
C1425 C1429 1.393 . S
C1426 H1418 0.950 . S
C1426 C1424 1.391 . S
C1426 C1427 1.400 . S
C1427 C1426 1.400 . S
C1427 C1428 1.398 . S
C1427 C1433 1.491 . S
C1428 H1419 0.950 . S
C1428 C1427 1.398 . S
C1428 C1429 1.391 . S
C1429 H1417 0.950 . S
C1429 C1425 1.393 . S
C1429 C1428 1.391 . S
C1430 H1420 0.950 . S
C1430 C1431 1.386 . S
C1430 C1432 1.391 . S
C1431 C1430 1.386 . S
C1431 C1435 1.393 . S
C1432 H1421 0.950 . S
C1432 C1430 1.391 . S
C1432 C1433 1.400 . S
C1433 C1427 1.491 . S
C1433 C1432 1.400 . S
C1433 C1434 1.398 . S
C1434 H1422 0.950 . S
C1434 C1433 1.398 . S
C1434 C1435 1.391 . S
C1435 H1423 0.950 . S
C1435 C1431 1.393 . S
C1435 C1434 1.391 . S
H1436 C1444 0.950 . S
H1437 C1449 0.950 . S
H1438 C1446 0.950 . S
H1439 C1448 0.950 . S
H1440 C1450 0.950 . S
H1441 C1452 0.950 . S
H1442 C1454 0.950 . S
H1443 C1455 0.950 . S
C1444 H1436 0.950 . S
C1444 C1445 1.386 . S
C1444 C1446 1.391 . S
C1445 C1444 1.386 . S
C1445 C1449 1.393 . S
C1446 H1438 0.950 . S
C1446 C1444 1.391 . S
C1446 C1447 1.400 . S
C1447 C1446 1.400 . S
C1447 C1448 1.398 . S
C1447 C1453 1.491 . S
C1448 H1439 0.950 . S
C1448 C1447 1.398 . S
C1448 C1449 1.391 . S
C1449 H1437 0.950 . S
C1449 C1445 1.393 . S
C1449 C1448 1.391 . S
C1450 H1440 0.950 . S
C1450 C1451 1.386 . S
C1450 C1452 1.391 1_655 S
C1451 C1450 1.386 . S
C1451 C1455 1.393 . S
C1452 H1441 0.950 . S
C1452 C1450 1.391 1_455 S
C1452 C1453 1.400 . S
C1453 C1447 1.491 . S
C1453 C1452 1.400 . S
C1453 C1454 1.398 . S
C1454 H1442 0.950 . S
C1454 C1453 1.398 . S
C1454 C1455 1.391 1_455 S
C1455 H1443 0.950 . S
C1455 C1451 1.393 . S
C1455 C1454 1.391 1_655 S
H1456 C1464 0.950 . S
H1457 C1469 0.950 . S
H1458 C1466 0.950 . S
H1459 C1468 0.950 . S
H1460 C1470 0.950 . S
H1461 C1472 0.950 . S
H1462 C1474 0.950 . S
H1463 C1475 0.950 . S
C1464 H1456 0.950 . S
C1464 C1465 1.386 . S
C1464 C1466 1.391 . S
C1465 C1464 1.386 . S
C1465 C1469 1.393 . S
C1466 H1458 0.950 . S
C1466 C1464 1.391 . S
C1466 C1467 1.400 . S
C1467 C1466 1.400 . S
C1467 C1468 1.398 . S
C1467 C1473 1.491 . S
C1468 H1459 0.950 . S
C1468 C1467 1.398 . S
C1468 C1469 1.391 . S
C1469 H1457 0.950 . S
C1469 C1465 1.393 . S
C1469 C1468 1.391 . S
C1470 H1460 0.950 . S
C1470 C1471 1.386 . S
C1470 C1472 1.391 . S
C1471 C1470 1.386 . S
C1471 C1475 1.393 . S
C1472 H1461 0.950 . S
C1472 C1470 1.391 . S
C1472 C1473 1.400 . S
C1473 C1467 1.491 . S
C1473 C1472 1.400 . S
C1473 C1474 1.398 . S
C1474 H1462 0.950 . S
C1474 C1473 1.398 . S
C1474 C1475 1.391 . S
C1475 H1463 0.950 . S
C1475 C1471 1.393 . S
C1475 C1474 1.391 . S
H1476 C1484 0.950 . S
H1477 C1489 0.950 . S
H1478 C1486 0.950 . S
H1479 C1488 0.950 . S
H1480 C1490 0.950 . S
H1481 C1492 0.950 . S
H1482 C1494 0.950 . S
H1483 C1495 0.950 . S
C1484 H1476 0.950 . S
C1484 C1485 1.386 . S
C1484 C1486 1.391 1_655 S
C1485 C1484 1.386 . S
C1485 C1489 1.393 . S
C1486 H1478 0.950 . S
C1486 C1484 1.391 1_455 S
C1486 C1487 1.400 . S
C1487 C1486 1.400 . S
C1487 C1488 1.398 1_455 S
C1487 C1493 1.491 . S
C1488 H1479 0.950 . S
C1488 C1487 1.398 1_655 S
C1488 C1489 1.391 . S
C1489 H1477 0.950 . S
C1489 C1485 1.393 . S
C1489 C1488 1.391 . S
C1490 H1480 0.950 . S
C1490 C1491 1.386 . S
C1490 C1492 1.391 . S
C1491 C1490 1.386 . S
C1491 C1495 1.393 . S
C1492 H1481 0.950 . S
C1492 C1490 1.391 . S
C1492 C1493 1.400 . S
C1493 C1487 1.491 . S
C1493 C1492 1.400 . S
C1493 C1494 1.398 . S
C1494 H1482 0.950 . S
C1494 C1493 1.398 . S
C1494 C1495 1.391 . S
C1495 H1483 0.950 . S
C1495 C1491 1.393 . S
C1495 C1494 1.391 . S
H1496 C1504 0.950 . S
H1497 C1509 0.950 . S
H1498 C1506 0.950 . S
H1499 C1508 0.950 . S
H1500 C1510 0.950 . S
H1501 C1512 0.950 . S
H1502 C1514 0.950 . S
H1503 C1515 0.950 . S
C1504 H1496 0.950 . S
C1504 C1505 1.386 . S
C1504 C1506 1.391 . S
C1505 C1504 1.386 . S
C1505 C1509 1.393 . S
C1506 H1498 0.950 . S
C1506 C1504 1.391 . S
C1506 C1507 1.400 . S
C1507 C1506 1.400 . S
C1507 C1508 1.398 . S
C1507 C1513 1.491 . S
C1508 H1499 0.950 . S
C1508 C1507 1.398 . S
C1508 C1509 1.391 . S
C1509 H1497 0.950 . S
C1509 C1505 1.393 . S
C1509 C1508 1.391 . S
C1510 H1500 0.950 . S
C1510 C1511 1.386 . S
C1510 C1512 1.391 . S
C1511 C1510 1.386 . S
C1511 C1515 1.393 . S
C1512 H1501 0.950 . S
C1512 C1510 1.391 . S
C1512 C1513 1.400 . S
C1513 C1507 1.491 . S
C1513 C1512 1.400 . S
C1513 C1514 1.398 . S
C1514 H1502 0.950 . S
C1514 C1513 1.398 . S
C1514 C1515 1.391 . S
C1515 H1503 0.950 . S
C1515 C1511 1.393 . S
C1515 C1514 1.391 . S
H1516 C1524 0.950 . S
H1517 C1529 0.950 . S
H1518 C1526 0.950 . S
H1519 C1528 0.950 . S
H1520 C1530 0.950 . S
H1521 C1532 0.950 . S
H1522 C1534 0.950 . S
H1523 C1535 0.950 . S
C1524 H1516 0.950 . S
C1524 C1525 1.386 . S
C1524 C1526 1.391 . S
C1525 C1524 1.386 . S
C1525 C1529 1.393 . S
C1526 H1518 0.950 . S
C1526 C1524 1.391 . S
C1526 C1527 1.400 . S
C1527 C1526 1.400 . S
C1527 C1528 1.398 . S
C1527 C1533 1.491 . S
C1528 H1519 0.950 . S
C1528 C1527 1.398 . S
C1528 C1529 1.391 . S
C1529 H1517 0.950 . S
C1529 C1525 1.393 . S
C1529 C1528 1.391 . S
C1530 H1520 0.950 . S
C1530 C1531 1.386 . S
C1530 C1532 1.391 . S
C1531 C1530 1.386 . S
C1531 C1535 1.393 . S
C1532 H1521 0.950 . S
C1532 C1530 1.391 . S
C1532 C1533 1.400 . S
C1533 C1527 1.491 . S
C1533 C1532 1.400 . S
C1533 C1534 1.398 . S
C1534 H1522 0.950 . S
C1534 C1533 1.398 . S
C1534 C1535 1.391 . S
C1535 H1523 0.950 . S
C1535 C1531 1.393 . S
C1535 C1534 1.391 . S
H1536 C1544 0.950 . S
H1537 C1549 0.950 . S
H1538 C1546 0.950 . S
H1539 C1548 0.950 . S
H1540 C1550 0.950 . S
H1541 C1552 0.950 . S
H1542 C1554 0.950 . S
H1543 C1555 0.950 . S
C1544 H1536 0.950 . S
C1544 C1545 1.386 . S
C1544 C1546 1.391 . S
C1545 C1544 1.386 . S
C1545 C1549 1.393 . S
C1546 H1538 0.950 . S
C1546 C1544 1.391 . S
C1546 C1547 1.400 . S
C1547 C1546 1.400 . S
C1547 C1548 1.398 . S
C1547 C1553 1.491 . S
C1548 H1539 0.950 . S
C1548 C1547 1.398 . S
C1548 C1549 1.391 . S
C1549 H1537 0.950 . S
C1549 C1545 1.393 . S
C1549 C1548 1.391 . S
C1550 H1540 0.950 . S
C1550 C1551 1.386 . S
C1550 C1552 1.391 . S
C1551 C1550 1.386 . S
C1551 C1555 1.393 . S
C1552 H1541 0.950 . S
C1552 C1550 1.391 . S
C1552 C1553 1.400 . S
C1553 C1547 1.491 . S
C1553 C1552 1.400 . S
C1553 C1554 1.398 . S
C1554 H1542 0.950 . S
C1554 C1553 1.398 . S
C1554 C1555 1.391 . S
C1555 H1543 0.950 . S
C1555 C1551 1.393 . S
C1555 C1554 1.391 . S
H1556 C1564 0.950 . S
H1557 C1569 0.950 . S
H1558 C1566 0.950 . S
H1559 C1568 0.950 . S
H1560 C1570 0.950 . S
H1561 C1572 0.950 . S
H1562 C1574 0.950 . S
H1563 C1575 0.950 . S
C1564 H1556 0.950 . S
C1564 C1565 1.386 . S
C1564 C1566 1.391 . S
C1565 C1564 1.386 . S
C1565 C1569 1.393 . S
C1566 H1558 0.950 . S
C1566 C1564 1.391 . S
C1566 C1567 1.400 . S
C1567 C1566 1.400 . S
C1567 C1568 1.398 . S
C1567 C1573 1.491 . S
C1568 H1559 0.950 . S
C1568 C1567 1.398 . S
C1568 C1569 1.391 . S
C1569 H1557 0.950 . S
C1569 C1565 1.393 . S
C1569 C1568 1.391 . S
C1570 H1560 0.950 . S
C1570 C1571 1.386 . S
C1570 C1572 1.391 . S
C1571 C1570 1.386 . S
C1571 C1575 1.393 . S
C1572 H1561 0.950 . S
C1572 C1570 1.391 . S
C1572 C1573 1.400 . S
C1573 C1567 1.491 . S
C1573 C1572 1.400 . S
C1573 C1574 1.398 . S
C1574 H1562 0.950 . S
C1574 C1573 1.398 . S
C1574 C1575 1.391 . S
C1575 H1563 0.950 . S
C1575 C1571 1.393 . S
C1575 C1574 1.391 . S
H1576 C1584 0.950 . S
H1577 C1589 0.950 . S
H1578 C1586 0.950 . S
H1579 C1588 0.950 . S
H1580 C1590 0.950 . S
H1581 C1592 0.950 . S
H1582 C1594 0.950 . S
H1583 C1595 0.950 . S
C1584 H1576 0.950 . S
C1584 C1585 1.386 . S
C1584 C1586 1.391 . S
C1585 C1584 1.386 . S
C1585 C1589 1.393 . S
C1586 H1578 0.950 . S
C1586 C1584 1.391 . S
C1586 C1587 1.400 . S
C1587 C1586 1.400 . S
C1587 C1588 1.398 . S
C1587 C1593 1.491 . S
C1588 H1579 0.950 . S
C1588 C1587 1.398 . S
C1588 C1589 1.391 . S
C1589 H1577 0.950 . S
C1589 C1585 1.393 . S
C1589 C1588 1.391 . S
C1590 H1580 0.950 . S
C1590 C1591 1.386 . S
C1590 C1592 1.391 . S
C1591 C1590 1.386 . S
C1591 C1595 1.393 . S
C1592 H1581 0.950 . S
C1592 C1590 1.391 . S
C1592 C1593 1.400 . S
C1593 C1587 1.491 . S
C1593 C1592 1.400 . S
C1593 C1594 1.398 . S
C1594 H1582 0.950 . S
C1594 C1593 1.398 . S
C1594 C1595 1.391 . S
C1595 H1583 0.950 . S
C1595 C1591 1.393 . S
C1595 C1594 1.391 . S
H1596 C1604 0.950 . S
H1597 C1609 0.950 . S
H1598 C1606 0.950 . S
H1599 C1608 0.950 . S
H1600 C1610 0.950 . S
H1601 C1612 0.950 . S
H1602 C1614 0.950 . S
H1603 C1615 0.950 . S
C1604 H1596 0.950 . S
C1604 C1605 1.386 . S
C1604 C1606 1.391 . S
C1605 C1604 1.386 . S
C1605 C1609 1.393 . S
C1606 H1598 0.950 . S
C1606 C1604 1.391 . S
C1606 C1607 1.400 . S
C1607 C1606 1.400 . S
C1607 C1608 1.398 . S
C1607 C1613 1.491 1_655 S
C1608 H1599 0.950 . S
C1608 C1607 1.398 . S
C1608 C1609 1.391 . S
C1609 H1597 0.950 . S
C1609 C1605 1.393 . S
C1609 C1608 1.391 . S
C1610 H1600 0.950 . S
C1610 C1611 1.386 . S
C1610 C1612 1.391 . S
C1611 C1610 1.386 . S
C1611 C1615 1.393 . S
C1612 H1601 0.950 . S
C1612 C1610 1.391 . S
C1612 C1613 1.400 . S
C1613 C1607 1.491 1_455 S
C1613 C1612 1.400 . S
C1613 C1614 1.398 . S
C1614 H1602 0.950 . S
C1614 C1613 1.398 . S
C1614 C1615 1.391 . S
C1615 H1603 0.950 . S
C1615 C1611 1.393 . S
C1615 C1614 1.391 . S
H1616 C1624 0.950 . S
H1617 C1629 0.950 . S
H1618 C1626 0.950 . S
H1619 C1628 0.950 . S
H1620 C1630 0.950 . S
H1621 C1632 0.950 . S
H1622 C1634 0.950 . S
H1623 C1635 0.950 . S
C1624 H1616 0.950 . S
C1624 C1625 1.386 . S
C1624 C1626 1.391 . S
C1625 C1624 1.386 . S
C1625 C1629 1.393 . S
C1626 H1618 0.950 . S
C1626 C1624 1.391 . S
C1626 C1627 1.400 . S
C1627 C1626 1.400 . S
C1627 C1628 1.398 . S
C1627 C1633 1.491 . S
C1628 H1619 0.950 . S
C1628 C1627 1.398 . S
C1628 C1629 1.391 . S
C1629 H1617 0.950 . S
C1629 C1625 1.393 . S
C1629 C1628 1.391 . S
C1630 H1620 0.950 . S
C1630 C1631 1.386 . S
C1630 C1632 1.391 . S
C1631 C1630 1.386 . S
C1631 C1635 1.393 . S
C1632 H1621 0.950 . S
C1632 C1630 1.391 . S
C1632 C1633 1.400 . S
C1633 C1627 1.491 . S
C1633 C1632 1.400 . S
C1633 C1634 1.398 . S
C1634 H1622 0.950 . S
C1634 C1633 1.398 . S
C1634 C1635 1.391 . S
C1635 H1623 0.950 . S
C1635 C1631 1.393 . S
C1635 C1634 1.391 . S
H1636 C1644 0.950 . S
H1637 C1649 0.950 . S
H1638 C1646 0.950 . S
H1639 C1648 0.950 . S
H1640 C1650 0.950 . S
H1641 C1652 0.950 . S
H1642 C1654 0.935 1_455 S
H1643 C1655 0.950 . S
C1644 H1636 0.950 . S
C1644 C1645 1.386 . S
C1644 C1646 1.391 . S
C1645 C1644 1.386 . S
C1645 C1649 1.393 . S
C1646 H1638 0.950 . S
C1646 C1644 1.391 . S
C1646 C1647 1.400 . S
C1647 C1646 1.400 . S
C1647 C1648 1.398 . S
C1647 C1653 1.491 1_455 S
C1648 H1639 0.950 . S
C1648 C1647 1.398 . S
C1648 C1649 1.391 . S
C1649 H1637 0.950 . S
C1649 C1645 1.393 . S
C1649 C1648 1.391 . S
C1650 H1640 0.950 . S
C1650 C1651 1.386 . S
C1650 C1652 1.391 . S
C1651 C1650 1.386 . S
C1651 C1655 1.393 . S
C1652 H1641 0.950 . S
C1652 C1650 1.391 . S
C1652 C1653 1.400 . S
C1653 C1647 1.491 1_655 S
C1653 C1652 1.400 . S
C1653 C1654 1.398 . S
C1654 H1642 0.935 1_655 S
C1654 C1653 1.398 . S
C1654 C1655 1.391 . S
C1655 H1643 0.950 . S
C1655 C1651 1.393 . S
C1655 C1654 1.391 . S
H1656 C1664 0.950 . S
H1657 C1669 0.950 . S
H1658 C1666 0.950 . S
H1659 C1668 0.950 . S
H1660 C1670 0.950 . S
H1661 C1672 0.950 . S
H1662 C1674 0.950 . S
H1663 C1675 0.950 . S
C1664 H1656 0.950 . S
C1664 C1665 1.386 . S
C1664 C1666 1.391 . S
C1665 C1664 1.386 . S
C1665 C1669 1.393 . S
C1666 H1658 0.950 . S
C1666 C1664 1.391 . S
C1666 C1667 1.400 . S
C1667 C1666 1.400 . S
C1667 C1668 1.398 . S
C1667 C1673 1.491 . S
C1668 H1659 0.950 . S
C1668 C1667 1.398 . S
C1668 C1669 1.391 . S
C1669 H1657 0.950 . S
C1669 C1665 1.393 . S
C1669 C1668 1.391 . S
C1670 H1660 0.950 . S
C1670 C1671 1.386 . S
C1670 C1672 1.391 . S
C1671 C1670 1.386 . S
C1671 C1675 1.393 . S
C1672 H1661 0.950 . S
C1672 C1670 1.391 . S
C1672 C1673 1.400 . S
C1673 C1667 1.491 . S
C1673 C1672 1.400 . S
C1673 C1674 1.398 . S
C1674 H1662 0.950 . S
C1674 C1673 1.398 . S
C1674 C1675 1.391 . S
C1675 H1663 0.950 . S
C1675 C1671 1.393 . S
C1675 C1674 1.391 . S
H1676 C1684 0.950 . S
H1677 C1689 0.950 . S
H1678 C1686 0.950 . S
H1679 C1688 0.950 . S
H1680 C1690 0.950 . S
H1681 C1692 0.950 . S
H1682 C1694 0.950 . S
H1683 C1695 0.950 . S
C1684 H1676 0.950 . S
C1684 C1685 1.386 . S
C1684 C1686 1.391 . S
C1685 C1684 1.386 . S
C1685 C1689 1.393 . S
C1686 H1678 0.950 . S
C1686 C1684 1.391 . S
C1686 C1687 1.400 . S
C1687 C1686 1.400 . S
C1687 C1688 1.398 . S
C1687 C1693 1.491 . S
C1688 H1679 0.950 . S
C1688 C1687 1.398 . S
C1688 C1689 1.391 . S
C1689 H1677 0.950 . S
C1689 C1685 1.393 . S
C1689 C1688 1.391 . S
C1690 H1680 0.950 . S
C1690 C1691 1.386 . S
C1690 C1692 1.391 . S
C1691 C1690 1.386 . S
C1691 C1695 1.393 . S
C1692 H1681 0.950 . S
C1692 C1690 1.391 . S
C1692 C1693 1.400 . S
C1693 C1687 1.491 . S
C1693 C1692 1.400 . S
C1693 C1694 1.398 . S
C1694 H1682 0.950 . S
C1694 C1693 1.398 . S
C1694 C1695 1.391 . S
C1695 H1683 0.950 . S
C1695 C1691 1.393 . S
C1695 C1694 1.391 . S
H1696 C1704 0.950 . S
H1697 C1709 0.950 . S
H1698 C1706 0.950 . S
H1699 C1708 0.950 . S
H1700 C1710 0.950 . S
H1701 C1712 0.950 . S
H1702 C1714 0.950 . S
H1703 C1715 0.950 . S
C1704 H1696 0.950 . S
C1704 C1705 1.386 . S
C1704 C1706 1.391 . S
C1705 C1704 1.386 . S
C1705 C1709 1.393 . S
C1706 H1698 0.950 . S
C1706 C1704 1.391 . S
C1706 C1707 1.400 . S
C1707 C1706 1.400 . S
C1707 C1708 1.398 . S
C1707 C1713 1.491 . S
C1708 H1699 0.950 . S
C1708 C1707 1.398 . S
C1708 C1709 1.391 . S
C1709 H1697 0.950 . S
C1709 C1705 1.393 . S
C1709 C1708 1.391 . S
C1710 H1700 0.950 . S
C1710 C1711 1.386 . S
C1710 C1712 1.391 . S
C1711 C1710 1.386 . S
C1711 C1715 1.393 . S
C1712 H1701 0.950 . S
C1712 C1710 1.391 . S
C1712 C1713 1.400 . S
C1713 C1707 1.491 . S
C1713 C1712 1.400 . S
C1713 C1714 1.398 . S
C1714 H1702 0.950 . S
C1714 C1713 1.398 . S
C1714 C1715 1.391 . S
C1715 H1703 0.950 . S
C1715 C1711 1.393 . S
C1715 C1714 1.391 . S
H1716 C1724 0.950 . S
H1717 C1729 0.950 . S
H1718 C1726 0.950 . S
H1719 C1728 0.950 . S
H1720 C1730 0.950 . S
H1721 C1732 0.950 . S
H1722 C1734 0.950 . S
H1723 C1735 0.950 . S
C1724 H1716 0.950 . S
C1724 C1725 1.386 . S
C1724 C1726 1.391 . S
C1725 C1724 1.386 . S
C1725 C1729 1.393 . S
C1726 H1718 0.950 . S
C1726 C1724 1.391 . S
C1726 C1727 1.400 . S
C1727 C1726 1.400 . S
C1727 C1728 1.398 . S
C1727 C1733 1.491 . S
C1728 H1719 0.950 . S
C1728 C1727 1.398 . S
C1728 C1729 1.391 . S
C1729 H1717 0.950 . S
C1729 C1725 1.393 . S
C1729 C1728 1.391 . S
C1730 H1720 0.950 . S
C1730 C1731 1.386 . S
C1730 C1732 1.391 . S
C1731 C1730 1.386 . S
C1731 C1735 1.393 . S
C1732 H1721 0.950 . S
C1732 C1730 1.391 . S
C1732 C1733 1.400 . S
C1733 C1727 1.491 . S
C1733 C1732 1.400 . S
C1733 C1734 1.398 . S
C1734 H1722 0.950 . S
C1734 C1733 1.398 . S
C1734 C1735 1.391 . S
C1735 H1723 0.950 . S
C1735 C1731 1.393 . S
C1735 C1734 1.391 . S
H1736 C1744 0.950 . S
H1737 C1749 0.950 . S
H1738 C1746 0.950 . S
H1739 C1748 0.950 . S
H1740 C1750 0.950 . S
H1741 C1752 0.950 . S
H1742 C1754 0.950 . S
H1743 C1755 0.950 . S
C1744 H1736 0.950 . S
C1744 C1745 1.386 . S
C1744 C1746 1.391 . S
C1745 C1744 1.386 . S
C1745 C1749 1.393 . S
C1746 H1738 0.950 . S
C1746 C1744 1.391 . S
C1746 C1747 1.400 . S
C1747 C1746 1.400 . S
C1747 C1748 1.398 . S
C1747 C1753 1.491 . S
C1748 H1739 0.950 . S
C1748 C1747 1.398 . S
C1748 C1749 1.391 . S
C1749 H1737 0.950 . S
C1749 C1745 1.393 . S
C1749 C1748 1.391 . S
C1750 H1740 0.950 . S
C1750 C1751 1.386 . S
C1750 C1752 1.391 . S
C1751 C1750 1.386 . S
C1751 C1755 1.393 . S
C1752 H1741 0.950 . S
C1752 C1750 1.391 . S
C1752 C1753 1.400 . S
C1753 C1747 1.491 . S
C1753 C1752 1.400 . S
C1753 C1754 1.398 . S
C1754 H1742 0.950 . S
C1754 C1753 1.398 . S
C1754 C1755 1.391 . S
C1755 H1743 0.950 . S
C1755 C1751 1.393 . S
C1755 C1754 1.391 . S
H1756 C1764 0.950 . S
H1757 C1769 0.950 . S
H1758 C1766 0.950 . S
H1759 C1768 0.950 . S
H1760 C1770 0.950 . S
H1761 C1772 0.950 . S
H1762 C1774 0.950 . S
H1763 C1775 0.950 . S
C1764 H1756 0.950 . S
C1764 C1765 1.386 1_554 S
C1764 C1766 1.391 . S
C1765 C1764 1.386 1_556 S
C1765 C1769 1.393 . S
C1766 H1758 0.950 . S
C1766 C1764 1.391 . S
C1766 C1767 1.400 1_554 S
C1767 C1766 1.400 1_556 S
C1767 C1768 1.398 . S
C1767 C1773 1.491 1_556 S
C1768 H1759 0.950 . S
C1768 C1767 1.398 . S
C1768 C1769 1.391 . S
C1769 H1757 0.950 . S
C1769 C1765 1.393 . S
C1769 C1768 1.391 . S
C1770 H1760 0.950 . S
C1770 C1771 1.386 1_556 S
C1770 C1772 1.391 . S
C1771 C1770 1.386 1_554 S
C1771 C1775 1.393 . S
C1772 H1761 0.950 . S
C1772 C1770 1.391 . S
C1772 C1773 1.400 1_556 S
C1773 C1767 1.491 1_554 S
C1773 C1772 1.400 1_554 S
C1773 C1774 1.398 . S
C1774 H1762 0.950 . S
C1774 C1773 1.398 . S
C1774 C1775 1.391 . S
C1775 H1763 0.950 . S
C1775 C1771 1.393 . S
C1775 C1774 1.391 . S
H1776 C1784 0.950 . S
H1777 C1789 0.950 . S
H1778 C1786 0.950 . S
H1779 C1788 0.950 . S
H1780 C1790 0.950 . S
H1781 C1792 0.950 . S
H1782 C1794 0.950 . S
H1783 C1795 0.950 . S
C1784 H1776 0.950 . S
C1784 C1785 1.386 . S
C1784 C1786 1.391 . S
C1785 C1784 1.386 . S
C1785 C1789 1.393 . S
C1786 H1778 0.950 . S
C1786 C1784 1.391 . S
C1786 C1787 1.400 . S
C1787 C1786 1.400 . S
C1787 C1788 1.398 . S
C1787 C1793 1.491 . S
C1788 H1779 0.950 . S
C1788 C1787 1.398 . S
C1788 C1789 1.391 . S
C1789 H1777 0.950 . S
C1789 C1785 1.393 . S
C1789 C1788 1.391 . S
C1790 H1780 0.950 . S
C1790 C1791 1.386 . S
C1790 C1792 1.391 . S
C1791 C1790 1.386 . S
C1791 C1795 1.393 . S
C1792 H1781 0.950 . S
C1792 C1790 1.391 . S
C1792 C1793 1.400 . S
C1793 C1787 1.491 . S
C1793 C1792 1.400 . S
C1793 C1794 1.398 . S
C1794 H1782 0.950 . S
C1794 C1793 1.398 . S
C1794 C1795 1.391 . S
C1795 H1783 0.950 . S
C1795 C1791 1.393 . S
C1795 C1794 1.391 . S
H1796 C1804 0.950 . S
H1797 C1809 0.950 . S
H1798 C1806 0.950 . S
H1799 C1808 0.950 . S
H1800 C1810 0.950 . S
H1801 C1812 0.950 . S
H1802 C1814 0.950 . S
H1803 C1815 0.950 . S
C1804 H1796 0.950 . S
C1804 C1805 1.386 . S
C1804 C1806 1.391 . S
C1805 C1804 1.386 . S
C1805 C1809 1.393 . S
C1806 H1798 0.950 . S
C1806 C1804 1.391 . S
C1806 C1807 1.400 . S
C1807 C1806 1.400 . S
C1807 C1808 1.398 . S
C1807 C1813 1.491 . S
C1808 H1799 0.950 . S
C1808 C1807 1.398 . S
C1808 C1809 1.391 . S
C1809 H1797 0.950 . S
C1809 C1805 1.393 . S
C1809 C1808 1.391 . S
C1810 H1800 0.950 . S
C1810 C1811 1.386 . S
C1810 C1812 1.391 . S
C1811 C1810 1.386 . S
C1811 C1815 1.393 . S
C1812 H1801 0.950 . S
C1812 C1810 1.391 . S
C1812 C1813 1.400 . S
C1813 C1807 1.491 . S
C1813 C1812 1.400 . S
C1813 C1814 1.398 . S
C1814 H1802 0.950 . S
C1814 C1813 1.398 . S
C1814 C1815 1.391 . S
C1815 H1803 0.950 . S
C1815 C1811 1.393 . S
C1815 C1814 1.391 . S
H1816 C1824 0.950 . S
H1817 C1829 0.950 . S
H1818 C1826 0.950 . S
H1819 C1828 0.950 . S
H1820 C1830 0.950 . S
H1821 C1832 0.950 . S
H1822 C1834 0.950 . S
H1823 C1835 0.950 . S
C1824 H1816 0.950 . S
C1824 C1825 1.386 . S
C1824 C1826 1.391 . S
C1825 C1824 1.386 . S
C1825 C1829 1.393 . S
C1826 H1818 0.950 . S
C1826 C1824 1.391 . S
C1826 C1827 1.400 . S
C1827 C1826 1.400 . S
C1827 C1828 1.398 . S
C1827 C1833 1.491 . S
C1828 H1819 0.950 . S
C1828 C1827 1.398 . S
C1828 C1829 1.391 . S
C1829 H1817 0.950 . S
C1829 C1825 1.393 . S
C1829 C1828 1.391 . S
C1830 H1820 0.950 . S
C1830 C1831 1.386 . S
C1830 C1832 1.391 . S
C1831 C1830 1.386 . S
C1831 C1835 1.393 . S
C1832 H1821 0.950 . S
C1832 C1830 1.391 . S
C1832 C1833 1.400 . S
C1833 C1827 1.491 . S
C1833 C1832 1.400 . S
C1833 C1834 1.398 . S
C1834 H1822 0.950 . S
C1834 C1833 1.398 . S
C1834 C1835 1.391 . S
C1835 H1823 0.950 . S
C1835 C1831 1.393 . S
C1835 C1834 1.391 . S
H1836 C1844 0.950 . S
H1837 C1849 0.950 . S
H1838 C1846 0.950 . S
H1839 C1848 0.950 . S
H1840 C1850 0.950 . S
H1841 C1852 0.950 . S
H1842 C1854 0.950 . S
H1843 C1855 0.950 . S
C1844 H1836 0.950 . S
C1844 C1845 1.386 1_556 S
C1844 C1846 1.391 . S
C1845 C1844 1.386 1_554 S
C1845 C1849 1.393 . S
C1846 H1838 0.950 . S
C1846 C1844 1.391 . S
C1846 C1847 1.386 1_556 S
C1847 C1846 1.386 1_554 S
C1847 C1848 1.414 . S
C1847 C1853 1.490 1_554 S
C1848 H1839 0.950 . S
C1848 C1847 1.414 . S
C1848 C1849 1.391 . S
C1849 H1837 0.950 . S
C1849 C1845 1.393 . S
C1849 C1848 1.391 . S
C1850 H1840 0.950 . S
C1850 C1851 1.386 1_554 S
C1850 C1852 1.391 . S
C1851 C1850 1.386 1_556 S
C1851 C1855 1.393 . S
C1852 H1841 0.950 . S
C1852 C1850 1.391 . S
C1852 C1853 1.386 1_554 S
C1853 C1847 1.490 1_556 S
C1853 C1852 1.386 1_556 S
C1853 C1854 1.414 . S
C1854 H1842 0.950 . S
C1854 C1853 1.414 . S
C1854 C1855 1.391 . S
C1855 H1843 0.950 . S
C1855 C1851 1.393 . S
C1855 C1854 1.391 . S
H1856 C1864 0.950 . S
H1857 C1869 0.950 . S
H1858 C1866 0.950 . S
H1859 C1868 0.950 . S
H1860 C1870 0.950 . S
H1861 C1872 0.950 . S
H1862 C1874 0.950 . S
H1863 C1875 0.950 . S
C1864 H1856 0.950 . S
C1864 C1865 1.386 . S
C1864 C1866 1.391 . S
C1865 C1864 1.386 . S
C1865 C1869 1.393 . S
C1866 H1858 0.950 . S
C1866 C1864 1.391 . S
C1866 C1867 1.400 . S
C1867 C1866 1.400 . S
C1867 C1868 1.398 . S
C1867 C1873 1.491 1_565 S
C1868 H1859 0.950 . S
C1868 C1867 1.398 . S
C1868 C1869 1.391 . S
C1869 H1857 0.950 . S
C1869 C1865 1.393 . S
C1869 C1868 1.391 . S
C1870 H1860 0.950 . S
C1870 C1871 1.386 . S
C1870 C1872 1.391 . S
C1871 C1870 1.386 . S
C1871 C1875 1.393 . S
C1872 H1861 0.950 . S
C1872 C1870 1.391 . S
C1872 C1873 1.400 . S
C1873 C1867 1.491 1_545 S
C1873 C1872 1.400 . S
C1873 C1874 1.398 . S
C1874 H1862 0.950 . S
C1874 C1873 1.398 . S
C1874 C1875 1.391 . S
C1875 H1863 0.950 . S
C1875 C1871 1.393 . S
C1875 C1874 1.391 . S
H1876 C1884 0.950 . S
H1877 C1889 0.950 . S
H1878 C1886 0.950 . S
H1879 C1888 0.950 . S
H1880 C1890 0.950 . S
H1881 C1892 0.950 . S
H1882 C1894 0.950 . S
H1883 C1895 0.950 . S
C1884 H1876 0.950 . S
C1884 C1885 1.386 1_556 S
C1884 C1886 1.391 . S
C1885 C1884 1.386 1_554 S
C1885 C1889 1.393 . S
C1886 H1878 0.950 . S
C1886 C1884 1.391 . S
C1886 C1887 1.400 1_556 S
C1887 C1886 1.400 1_554 S
C1887 C1888 1.398 . S
C1887 C1893 1.491 1_554 S
C1888 H1879 0.950 . S
C1888 C1887 1.398 . S
C1888 C1889 1.391 . S
C1889 H1877 0.950 . S
C1889 C1885 1.393 . S
C1889 C1888 1.391 . S
C1890 H1880 0.950 . S
C1890 C1891 1.386 1_554 S
C1890 C1892 1.391 . S
C1891 C1890 1.386 1_556 S
C1891 C1895 1.393 . S
C1892 H1881 0.950 . S
C1892 C1890 1.391 . S
C1892 C1893 1.400 1_554 S
C1893 C1887 1.491 1_556 S
C1893 C1892 1.400 1_556 S
C1893 C1894 1.398 . S
C1894 H1882 0.950 . S
C1894 C1893 1.398 . S
C1894 C1895 1.391 . S
C1895 H1883 0.950 . S
C1895 C1891 1.393 . S
C1895 C1894 1.391 . S
H1896 C1904 0.950 . S
H1897 C1909 0.950 . S
H1898 C1906 0.950 . S
H1899 C1908 0.950 . S
H1900 C1910 0.950 . S
H1901 C1912 0.950 . S
H1902 C1914 0.950 . S
H1903 C1915 0.950 . S
C1904 H1896 0.950 . S
C1904 C1905 1.386 . S
C1904 C1906 1.391 . S
C1905 C1904 1.386 . S
C1905 C1909 1.393 . S
C1906 H1898 0.950 . S
C1906 C1904 1.391 . S
C1906 C1907 1.400 . S
C1907 C1906 1.400 . S
C1907 C1908 1.398 . S
C1907 C1913 1.491 1_545 S
C1908 H1899 0.950 . S
C1908 C1907 1.398 . S
C1908 C1909 1.391 . S
C1909 H1897 0.950 . S
C1909 C1905 1.393 . S
C1909 C1908 1.391 . S
C1910 H1900 0.950 . S
C1910 C1911 1.386 . S
C1910 C1912 1.391 . S
C1911 C1910 1.386 . S
C1911 C1915 1.393 . S
C1912 H1901 0.950 . S
C1912 C1910 1.391 . S
C1912 C1913 1.400 . S
C1913 C1907 1.491 1_565 S
C1913 C1912 1.400 . S
C1913 C1914 1.398 . S
C1914 H1902 0.950 . S
C1914 C1913 1.398 . S
C1914 C1915 1.391 . S
C1915 H1903 0.950 . S
C1915 C1911 1.393 . S
C1915 C1914 1.391 . S
H1916 C1924 0.950 . S
H1917 C1929 0.950 . S
H1918 C1926 0.950 . S
H1919 C1928 0.950 . S
H1920 C1930 0.950 . S
H1921 C1932 0.950 . S
H1922 C1934 0.950 . S
H1923 C1935 0.950 . S
C1924 H1916 0.950 . S
C1924 C1925 1.386 . S
C1924 C1926 1.391 . S
C1925 C1924 1.386 . S
C1925 C1929 1.393 . S
C1926 H1918 0.950 . S
C1926 C1924 1.391 . S
C1926 C1927 1.400 . S
C1927 C1926 1.400 . S
C1927 C1928 1.398 . S
C1927 C1933 1.491 . S
C1928 H1919 0.950 . S
C1928 C1927 1.398 . S
C1928 C1929 1.391 . S
C1929 H1917 0.950 . S
C1929 C1925 1.393 . S
C1929 C1928 1.391 . S
C1930 H1920 0.950 . S
C1930 C1931 1.386 . S
C1930 C1932 1.391 . S
C1931 C1930 1.386 . S
C1931 C1935 1.393 . S
C1932 H1921 0.950 . S
C1932 C1930 1.391 . S
C1932 C1933 1.400 . S
C1933 C1927 1.491 . S
C1933 C1932 1.400 . S
C1933 C1934 1.398 . S
C1934 H1922 0.950 . S
C1934 C1933 1.398 . S
C1934 C1935 1.391 . S
C1935 H1923 0.950 . S
C1935 C1931 1.393 . S
C1935 C1934 1.391 . S
H1936 C1944 0.950 . S
H1937 C1949 0.950 . S
H1938 C1946 0.950 . S
H1939 C1948 0.950 . S
H1940 C1950 0.950 . S
H1941 C1952 0.950 . S
H1942 C1954 0.950 . S
H1943 C1955 0.950 . S
C1944 H1936 0.950 . S
C1944 C1945 1.386 . S
C1944 C1946 1.391 . S
C1945 C1944 1.386 . S
C1945 C1949 1.393 . S
C1946 H1938 0.950 . S
C1946 C1944 1.391 . S
C1946 C1947 1.400 . S
C1947 C1946 1.400 . S
C1947 C1948 1.398 . S
C1947 C1953 1.491 1_545 S
C1948 H1939 0.950 . S
C1948 C1947 1.398 . S
C1948 C1949 1.391 . S
C1949 H1937 0.950 . S
C1949 C1945 1.393 . S
C1949 C1948 1.391 . S
C1950 H1940 0.950 . S
C1950 C1951 1.386 . S
C1950 C1952 1.391 . S
C1951 C1950 1.386 . S
C1951 C1955 1.393 . S
C1952 H1941 0.950 . S
C1952 C1950 1.391 . S
C1952 C1953 1.400 . S
C1953 C1947 1.491 1_565 S
C1953 C1952 1.400 . S
C1953 C1954 1.398 . S
C1954 H1942 0.950 . S
C1954 C1953 1.398 . S
C1954 C1955 1.391 . S
C1955 H1943 0.950 . S
C1955 C1951 1.393 . S
C1955 C1954 1.391 . S
H1956 C1964 0.950 . S
H1957 C1969 0.950 . S
H1958 C1966 0.950 . S
H1959 C1968 0.950 . S
H1960 C1970 0.950 . S
H1961 C1972 0.950 . S
H1962 C1974 0.950 . S
H1963 C1975 0.950 . S
C1964 H1956 0.950 . S
C1964 C1965 1.387 . S
C1964 C1966 1.391 . S
C1965 C1964 1.387 . S
C1965 C1969 1.392 1_554 S
C1966 H1958 0.950 . S
C1966 C1964 1.391 . S
C1966 C1967 1.397 1_554 S
C1967 C1966 1.397 1_556 S
C1967 C1968 1.402 . S
C1967 C1973 1.490 1_556 S
C1968 H1959 0.950 . S
C1968 C1967 1.402 . S
C1968 C1969 1.391 . S
C1969 H1957 0.950 . S
C1969 C1965 1.392 1_556 S
C1969 C1968 1.391 . S
C1970 H1960 0.950 . S
C1970 C1971 1.387 . S
C1970 C1972 1.391 . S
C1971 C1970 1.387 . S
C1971 C1975 1.392 1_556 S
C1972 H1961 0.950 . S
C1972 C1970 1.391 . S
C1972 C1973 1.397 1_556 S
C1973 C1967 1.490 1_554 S
C1973 C1972 1.397 1_554 S
C1973 C1974 1.402 . S
C1974 H1962 0.950 . S
C1974 C1973 1.402 . S
C1974 C1975 1.391 . S
C1975 H1963 0.950 . S
C1975 C1971 1.392 1_554 S
C1975 C1974 1.391 . S
H1976 C1984 0.950 . S
H1977 C1989 0.950 . S
H1978 C1986 0.950 . S
H1979 C1988 0.950 . S
H1980 C1990 0.950 . S
H1981 C1992 0.950 . S
H1982 C1994 0.950 . S
H1983 C1995 0.950 . S
C1984 H1976 0.950 . S
C1984 C1985 1.386 . S
C1984 C1986 1.391 . S
C1985 C1984 1.386 . S
C1985 C1989 1.393 . S
C1986 H1978 0.950 . S
C1986 C1984 1.391 . S
C1986 C1987 1.400 . S
C1987 C1986 1.400 . S
C1987 C1988 1.398 . S
C1987 C1993 1.491 1_545 S
C1988 H1979 0.950 . S
C1988 C1987 1.398 . S
C1988 C1989 1.391 . S
C1989 H1977 0.950 . S
C1989 C1985 1.393 . S
C1989 C1988 1.391 . S
C1990 H1980 0.950 . S
C1990 C1991 1.386 . S
C1990 C1992 1.391 . S
C1991 C1990 1.386 . S
C1991 C1995 1.393 . S
C1992 H1981 0.950 . S
C1992 C1990 1.391 . S
C1992 C1993 1.400 . S
C1993 C1987 1.491 1_565 S
C1993 C1992 1.400 . S
C1993 C1994 1.398 . S
C1994 H1982 0.950 . S
C1994 C1993 1.398 . S
C1994 C1995 1.391 . S
C1995 H1983 0.950 . S
C1995 C1991 1.393 . S
C1995 C1994 1.391 . S
H1996 C2004 0.950 . S
H1997 C2009 0.950 . S
H1998 C2006 0.950 . S
H1999 C2008 0.950 . S
H2000 C2010 0.950 . S
H2001 C2012 0.950 . S
H2002 C2014 0.950 . S
H2003 C2015 0.950 . S
C2004 H1996 0.950 . S
C2004 C2005 1.386 . S
C2004 C2006 1.391 . S
C2005 C2004 1.386 . S
C2005 C2009 1.393 . S
C2006 H1998 0.950 . S
C2006 C2004 1.391 . S
C2006 C2007 1.400 . S
C2007 C2006 1.400 . S
C2007 C2008 1.398 . S
C2007 C2013 1.491 . S
C2008 H1999 0.950 . S
C2008 C2007 1.398 . S
C2008 C2009 1.391 . S
C2009 H1997 0.950 . S
C2009 C2005 1.393 . S
C2009 C2008 1.391 . S
C2010 H2000 0.950 . S
C2010 C2011 1.386 . S
C2010 C2012 1.391 . S
C2011 C2010 1.386 . S
C2011 C2015 1.393 . S
C2012 H2001 0.950 . S
C2012 C2010 1.391 . S
C2012 C2013 1.400 . S
C2013 C2007 1.491 . S
C2013 C2012 1.400 . S
C2013 C2014 1.398 . S
C2014 H2002 0.950 . S
C2014 C2013 1.398 . S
C2014 C2015 1.391 . S
C2015 H2003 0.950 . S
C2015 C2011 1.393 . S
C2015 C2014 1.391 . S
C745 C7 2.146 . S
C751 N485 1.995 . S
C765 C513 2.161 . S
C771 N25 1.977 . S
C785 C53 2.161 . S
C791 N531 1.974 . S
C805 C467 2.157 . S
C811 N71 1.968 . S
C825 C99 2.161 . S
C831 N439 1.969 . S
C845 N117 1.989 . S
C851 C375 2.146 . S
C865 N393 1.997 . S
C871 C145 2.146 . S
C885 N163 1.994 . S
C891 C421 2.146 . S
C905 C191 2.416 . S
C911 C674 2.394 . S
C925 C214 2.399 . S
C931 C697 2.408 . S
C945 C720 2.394 . S
C951 C237 2.414 . S
C965 C651 2.418 . S
C971 C260 2.394 . S
C985 C283 2.418 . S
C991 C628 2.394 . S
C1005 C559 2.408 . S
C1011 C306 2.409 . S
C1025 C329 2.411 . S
C1031 C582 2.407 . S
C1045 C605 2.409 . S
C1051 C352 2.408 . S
C1065 N2 1.861 . S
C1071 C223 1.797 . S
C1085 C30 2.054 . S
C1091 C614 1.949 . S
C1105 C269 1.821 . S
C1111 N48 1.868 . S
C1125 C76 2.054 . S
C1131 C568 1.954 . S
C1145 N94 1.867 . S
C1151 C361 1.821 . S
C1165 C660 1.963 . S
C1171 C122 2.052 . S
C1185 C315 1.815 . S
C1191 N140 1.872 . S
C1205 C706 1.944 . S
C1211 C168 2.051 . S
C1225 N186 1.625 . S
C1231 N35 1.645 . S
C1245 C430 1.384 . S
C1251 N209 1.416 . S
C1265 N81 1.659 . S
C1271 N232 1.610 . S
C1285 N255 1.422 . S
C1291 C384 1.385 . S
C1305 N173 1.637 . S
C1311 N278 1.611 . S
C1325 C476 1.385 . S
C1331 N301 1.409 . S
C1345 N127 1.641 . S
C1351 N324 1.623 . S
C1365 N347 1.416 . S
C1371 C522 1.384 . S
C1385 C591 1.817 . S
C1391 N370 1.871 . S
C1405 C246 1.943 . S
C1411 C398 2.051 . S
C1425 C637 1.799 . S
C1431 N416 1.859 . S
C1445 C444 2.051 . S
C1451 C200 1.964 . S
C1465 C729 1.819 . S
C1471 N462 1.869 . S
C1485 C292 1.961 . S
C1491 C490 2.053 . S
C1505 C683 1.814 . S
C1511 N508 1.855 . S
C1525 C536 2.053 . S
C1531 C338 1.958 . S
C1545 N554 1.616 . S
C1551 N403 1.657 . S
C1565 C62 1.399 . S
C1571 N577 1.402 . S
C1585 N600 1.623 . S
C1591 N449 1.641 . S
C1605 N623 1.424 . S
C1611 C16 1.386 . S
C1625 N646 1.623 . S
C1631 N541 1.652 . S
C1645 C108 1.393 . S
C1651 N669 1.430 . S
C1665 N495 1.642 . S
C1671 N692 1.601 . S
C1685 N715 1.431 . S
C1691 C154 1.395 . S
C1705 N12 1.554 . S
C1711 N104 1.564 . S
C1725 C39 1.726 . S
C1731 C131 1.723 . S
C1745 N150 1.547 . S
C1751 N58 1.540 . S
C1765 C177 1.729 . S
C1771 C85 1.723 . S
C1785 N288 1.442 . S
C1791 N196 1.450 . S
C1805 N311 1.361 . S
C1811 N219 1.348 . S
C1825 N334 1.465 . S
C1831 N242 1.471 . S
C1845 N357 1.340 . S
C1851 N265 1.330 . S
C1865 N380 1.564 . S
C1871 N472 1.552 . S
C1885 C407 1.733 . S
C1891 C499 1.726 . S
C1905 N426 1.546 . S
C1911 N518 1.541 . S
C1925 C545 1.730 . S
C1931 C453 1.724 . S
C1945 N564 1.463 . S
C1951 N656 1.451 . S
C1965 N679 1.355 . S
C1971 N587 1.364 . S
C1985 N702 1.442 . S
C1991 N610 1.449 . S
C2005 N725 1.342 . S
C2011 N633 1.330 . S
