# Generated by pormake.
# Topology wjm, (5)-cn, num edge types: 1
# Building blocks:
#     Node 0, Type 0, BuildingBlock: XOMCOT_clean_sbu_1, # of connection points: 5
#     Node 1, Type 0, BuildingBlock: XOMCOT_clean_sbu_1, # of connection points: 5
#     Node 2, Type 0, BuildingBlock: XOMCOT_clean_sbu_1, # of connection points: 5
#     Node 3, Type 0, BuildingBlock: XOMCOT_clean_sbu_1, # of connection points: 5
#     Node 4, Type 0, BuildingBlock: XOMCOT_clean_sbu_1, # of connection points: 5
#     Node 5, Type 0, BuildingBlock: XOMCOT_clean_sbu_1, # of connection points: 5
#     Node 6, Type 0, BuildingBlock: XOMCOT_clean_sbu_1, # of connection points: 5
#     Node 7, Type 0, BuildingBlock: XOMCOT_clean_sbu_1, # of connection points: 5
#     Node 8, Type 0, BuildingBlock: XOMCOT_clean_sbu_1, # of connection points: 5
#     Node 9, Type 0, BuildingBlock: XOMCOT_clean_sbu_1, # of connection points: 5
#     Node 10, Type 0, BuildingBlock: XOMCOT_clean_sbu_1, # of connection points: 5
#     Node 11, Type 0, BuildingBlock: XOMCOT_clean_sbu_1, # of connection points: 5
#     Edge 12, Type (0, 0), BuildingBlock: KIFKEQ_clean_linker_1, # of connection points: 2
#     Edge 13, Type (0, 0), BuildingBlock: KIFKEQ_clean_linker_1, # of connection points: 2
#     Edge 14, Type (0, 0), BuildingBlock: KIFKEQ_clean_linker_1, # of connection points: 2
#     Edge 15, Type (0, 0), BuildingBlock: KIFKEQ_clean_linker_1, # of connection points: 2
#     Edge 16, Type (0, 0), BuildingBlock: KIFKEQ_clean_linker_1, # of connection points: 2
#     Edge 17, Type (0, 0), BuildingBlock: KIFKEQ_clean_linker_1, # of connection points: 2
#     Edge 18, Type (0, 0), BuildingBlock: KIFKEQ_clean_linker_1, # of connection points: 2
#     Edge 19, Type (0, 0), BuildingBlock: KIFKEQ_clean_linker_1, # of connection points: 2
#     Edge 20, Type (0, 0), BuildingBlock: KIFKEQ_clean_linker_1, # of connection points: 2
#     Edge 21, Type (0, 0), BuildingBlock: KIFKEQ_clean_linker_1, # of connection points: 2
#     Edge 22, Type (0, 0), BuildingBlock: KIFKEQ_clean_linker_1, # of connection points: 2
#     Edge 23, Type (0, 0), BuildingBlock: KIFKEQ_clean_linker_1, # of connection points: 2
#     Edge 24, Type (0, 0), BuildingBlock: KIFKEQ_clean_linker_1, # of connection points: 2
#     Edge 25, Type (0, 0), BuildingBlock: KIFKEQ_clean_linker_1, # of connection points: 2
#     Edge 26, Type (0, 0), BuildingBlock: KIFKEQ_clean_linker_1, # of connection points: 2
#     Edge 27, Type (0, 0), BuildingBlock: KIFKEQ_clean_linker_1, # of connection points: 2
#     Edge 28, Type (0, 0), BuildingBlock: KIFKEQ_clean_linker_1, # of connection points: 2
#     Edge 29, Type (0, 0), BuildingBlock: KIFKEQ_clean_linker_1, # of connection points: 2
#     Edge 30, Type (0, 0), BuildingBlock: KIFKEQ_clean_linker_1, # of connection points: 2
#     Edge 31, Type (0, 0), BuildingBlock: KIFKEQ_clean_linker_1, # of connection points: 2
#     Edge 32, Type (0, 0), BuildingBlock: KIFKEQ_clean_linker_1, # of connection points: 2
#     Edge 33, Type (0, 0), BuildingBlock: KIFKEQ_clean_linker_1, # of connection points: 2
#     Edge 34, Type (0, 0), BuildingBlock: KIFKEQ_clean_linker_1, # of connection points: 2
#     Edge 35, Type (0, 0), BuildingBlock: KIFKEQ_clean_linker_1, # of connection points: 2
#     Edge 36, Type (0, 0), BuildingBlock: KIFKEQ_clean_linker_1, # of connection points: 2
#     Edge 37, Type (0, 0), BuildingBlock: KIFKEQ_clean_linker_1, # of connection points: 2
#     Edge 38, Type (0, 0), BuildingBlock: KIFKEQ_clean_linker_1, # of connection points: 2
#     Edge 39, Type (0, 0), BuildingBlock: KIFKEQ_clean_linker_1, # of connection points: 2
#     Edge 40, Type (0, 0), BuildingBlock: KIFKEQ_clean_linker_1, # of connection points: 2
#     Edge 41, Type (0, 0), BuildingBlock: KIFKEQ_clean_linker_1, # of connection points: 2
# Relax obj value: 0.685
# Max RMSD: 0.275
# Mean RMSD: 0.275
data_MOF--net-wjm--node1-XOMCOT_clean_sbu_1--edge1-KIFKEQ_clean_linker_1
_symmetry_space_group_name_H-M    P1
_symmetry_Int_Tables_number       1
_symmetry_cell_setting            triclinic
loop_
_symmetry_equiv_pos_as_xyz
'x, y, z'
_cell_length_a     33.319768
_cell_length_b     33.342855
_cell_length_c     41.8569
_cell_angle_alpha  89.89011
_cell_angle_beta   90.178279
_cell_angle_gamma 119.96091
loop_
_atom_site_label
_atom_site_type_symbol
_atom_site_fract_x
_atom_site_fract_y
_atom_site_fract_z
_atom_type_partial_charge
C0 C 0.34443 0.4945 0.20752 0.0
C1 C 0.37708 0.52372 0.22907 0.0
N2 N 0.35856 0.51258 0.25859 0.0
N3 N 0.30568 0.46472 0.22338 0.0
C4 C 0.31501 0.47699 0.25434 0.0
H5 H 0.34904 0.49397 0.18199 0.0
Co6 Co 0.25304 0.41664 0.2047 0.0
C7 C 0.23262 0.34018 0.2526 0.0
O8 O 0.2284 0.31307 0.22854 0.0
N9 N 0.19932 0.36965 0.18383 0.0
C10 C 0.13897 0.30563 0.16413 0.0
C11 C 0.16379 0.32728 0.19148 0.0
C12 C 0.19203 0.37428 0.15259 0.0
N13 N 0.15734 0.33545 0.13959 0.0
O14 O 0.21955 0.44959 0.21514 0.0
H15 H 0.15642 0.31219 0.21506 0.0
H16 H 0.21416 0.40485 0.13878 0.0
O17 O 0.23879 0.38096 0.24676 0.0
C18 C 0.22997 0.47945 0.19256 0.0
O19 O 0.25666 0.47936 0.16956 0.0
N20 N 0.28964 0.39064 0.19087 0.0
C21 C 0.37572 0.41143 0.16769 0.0
C22 C 0.36416 0.39772 0.1996 0.0
C23 C 0.32125 0.38891 0.21102 0.0
C24 C 0.29709 0.39299 0.15868 0.0
C25 C 0.33988 0.4031 0.1465 0.0
H26 H 0.31783 0.38949 0.23657 0.0
H27 H 0.2741 0.39578 0.14221 0.0
H28 H 0.29028 0.46006 0.27335 0.0
H29 H 0.4122 0.55005 0.22342 0.0
H30 H 0.11053 0.2704 0.16232 0.0
H31 H 0.39049 0.40189 0.21666 0.0
H32 H 0.34654 0.41223 0.12147 0.0
C33 C 0.8623 0.33542 0.52857 0.0
C34 C 0.8667 0.36999 0.54868 0.0
N35 N 0.86117 0.35418 0.57892 0.0
N36 N 0.8548 0.29839 0.54617 0.0
C37 C 0.85364 0.31059 0.57669 0.0
H38 H 0.86519 0.33731 0.50281 0.0
Co39 Co 0.84796 0.24332 0.5304 0.0
C40 C 0.91226 0.23277 0.57685 0.0
O41 O 0.9334 0.22786 0.55197 0.0
N42 N 0.8384 0.18679 0.51282 0.0
C43 C 0.84445 0.12749 0.4941 0.0
C44 C 0.85035 0.15476 0.52054 0.0
C45 C 0.8209 0.17481 0.48298 0.0
N46 N 0.82666 0.14097 0.4702 0.0
O47 O 0.78366 0.212 0.54539 0.0
H48 H 0.86457 0.1523 0.54315 0.0
H49 H 0.80991 0.19504 0.46916 0.0
O50 O 0.8749 0.23476 0.57229 0.0
C51 C 0.7598 0.21799 0.52364 0.0
O52 O 0.78146 0.24106 0.49785 0.0
N53 N 0.90858 0.27718 0.51199 0.0
C54 C 0.98082 0.34994 0.47904 0.0
C55 C 0.98046 0.34936 0.51255 0.0
C56 C 0.94379 0.31284 0.52857 0.0
C57 C 0.91261 0.27466 0.47962 0.0
C58 C 0.94912 0.31 0.46283 0.0
H59 H 0.9408 0.31671 0.55391 0.0
H60 H 0.88519 0.24902 0.46542 0.0
H61 H 0.84838 0.28831 0.59695 0.0
H62 H 0.87323 0.40397 0.54161 0.0
H63 H 0.855 0.10172 0.4921 0.0
H64 H 1.0041 0.37969 0.5262 0.0
H65 H 0.94842 0.30906 0.43695 0.0
C66 C 0.49619 0.77201 0.88925 0.0
C67 C 0.46628 0.77228 0.9116 0.0
N68 N 0.49109 0.80655 0.93255 0.0
N69 N 0.53966 0.80566 0.89625 0.0
C70 C 0.53535 0.82655 0.92251 0.0
H71 H 0.48683 0.74865 0.86917 0.0
Co72 Co 0.59215 0.81688 0.87379 0.0
C73 C 0.67221 0.87741 0.92142 0.0
O74 O 0.70523 0.88852 0.90035 0.0
N75 N 0.64391 0.82706 0.84929 0.0
C76 C 0.70289 0.82589 0.82497 0.0
C77 C 0.67886 0.81804 0.85348 0.0
C78 C 0.64666 0.83872 0.81812 0.0
N79 N 0.68193 0.83849 0.80277 0.0
O80 O 0.57859 0.75467 0.88561 0.0
H81 H 0.68523 0.80468 0.87531 0.0
H82 H 0.62163 0.84514 0.80619 0.0
O83 O 0.63 0.84864 0.91352 0.0
C84 C 0.55916 0.72801 0.86144 0.0
O85 O 0.56292 0.74768 0.83354 0.0
N86 N 0.59851 0.87229 0.85859 0.0
C87 C 0.59995 0.94044 0.81947 0.0
C88 C 0.63604 0.95146 0.84129 0.0
C89 C 0.63485 0.91656 0.86064 0.0
C90 C 0.56279 0.86166 0.83811 0.0
C91 C 0.56264 0.89504 0.81857 0.0
H92 H 0.66394 0.9252 0.8759 0.0
H93 H 0.53529 0.8262 0.83555 0.0
H94 H 0.5641 0.85524 0.93449 0.0
H95 H 0.42919 0.7491 0.91236 0.0
H96 H 0.7316 0.82014 0.82047 0.0
H97 H 0.66523 0.98634 0.8429 0.0
H98 H 0.53323 0.8851 0.80289 0.0
C99 C 0.67043 0.54301 0.19837 0.0
C100 C 0.63418 0.51326 0.21757 0.0
N101 N 0.65159 0.51275 0.24652 0.0
N102 N 0.71004 0.56186 0.2156 0.0
C103 C 0.69753 0.54215 0.24464 0.0
H104 H 0.66809 0.55109 0.17362 0.0
Co105 Co 0.76916 0.60495 0.20202 0.0
C106 C 0.79209 0.67637 0.2542 0.0
O107 O 0.8043 0.708 0.23181 0.0
N108 N 0.82892 0.64612 0.18644 0.0
C109 C 0.89429 0.70557 0.16796 0.0
C110 C 0.86604 0.68725 0.19443 0.0
C111 C 0.83814 0.63841 0.15645 0.0
N112 N 0.876 0.67476 0.14393 0.0
O113 O 0.79001 0.56052 0.21309 0.0
H114 H 0.87172 0.7043 0.2172 0.0
H115 H 0.81349 0.60929 0.14234 0.0
O116 O 0.78149 0.63478 0.24623 0.0
C117 C 0.77617 0.5301 0.19065 0.0
O118 O 0.75213 0.53424 0.16722 0.0
N119 N 0.74609 0.64423 0.18726 0.0
C120 C 0.68326 0.66309 0.15654 0.0
C121 C 0.68211 0.65816 0.18989 0.0
C122 C 0.71371 0.64839 0.20478 0.0
C123 C 0.75234 0.65742 0.15585 0.0
C124 C 0.72214 0.66844 0.14029 0.0
H125 H 0.7074 0.63743 0.22945 0.0
H126 H 0.77643 0.65395 0.14098 0.0
H127 H 0.72156 0.54973 0.26424 0.0
H128 H 0.59802 0.49332 0.2108 0.0
H129 H 0.92435 0.73983 0.16603 0.0
H130 H 0.65286 0.65409 0.20369 0.0
H131 H 0.72482 0.67322 0.1146 0.0
C132 C 0.14465 0.67119 0.53338 0.0
C133 C 0.13862 0.63593 0.5534 0.0
N134 N 0.15223 0.65373 0.58286 0.0
N135 N 0.16096 0.71067 0.55039 0.0
C136 C 0.16606 0.69913 0.5804 0.0
H137 H 0.13665 0.6681 0.50813 0.0
Co138 Co 0.17141 0.76676 0.53388 0.0
C139 C 0.12267 0.79234 0.58421 0.0
O140 O 0.10185 0.80171 0.5611 0.0
N141 N 0.1839 0.82342 0.51487 0.0
C142 C 0.1866 0.88709 0.49539 0.0
C143 C 0.18097 0.86122 0.52267 0.0
C144 C 0.19613 0.83012 0.48376 0.0
N145 N 0.19568 0.86687 0.47082 0.0
O146 O 0.23752 0.79397 0.54434 0.0
H147 H 0.17406 0.86938 0.54621 0.0
H148 H 0.20148 0.80586 0.46993 0.0
O149 O 0.15386 0.78171 0.577 0.0
C150 C 0.25577 0.78199 0.52198 0.0
O151 O 0.22842 0.7564 0.49872 0.0
N152 N 0.10824 0.73671 0.52022 0.0
C153 C 0.03338 0.6572 0.49588 0.0
C154 C 0.03403 0.66869 0.52814 0.0
C155 C 0.07314 0.70751 0.54018 0.0
C156 C 0.10158 0.73132 0.48794 0.0
C157 C 0.06404 0.69194 0.47518 0.0
H158 H 0.07807 0.70863 0.56567 0.0
H159 H 0.12856 0.75225 0.47155 0.0
H160 H 0.17857 0.7232 0.6002 0.0
H161 H 0.12531 0.60006 0.54688 0.0
H162 H 0.18276 0.91739 0.49361 0.0
H163 H 1.00968 0.64355 0.54488 0.0
H164 H 0.06454 0.68553 0.44988 0.0
C165 C 0.50394 0.17619 0.86345 0.0
C166 C 0.53375 0.17213 0.88436 0.0
N167 N 0.5186 0.17126 0.91432 0.0
N168 N 0.47018 0.17749 0.88031 0.0
C169 C 0.48061 0.1754 0.91112 0.0
H170 H 0.50579 0.17665 0.83764 0.0
Co171 Co 0.41913 0.17969 0.86477 0.0
C172 C 0.34789 0.10656 0.90991 0.0
O173 O 0.32414 0.0828 0.88483 0.0
N174 N 0.36817 0.1841 0.84798 0.0
C175 C 0.29832 0.16707 0.8301 0.0
C176 C 0.32289 0.1642 0.85579 0.0
C177 C 0.3704 0.20298 0.81895 0.0
N178 N 0.3284 0.19057 0.80648 0.0
O179 O 0.44623 0.24201 0.88237 0.0
H180 H 0.30765 0.14627 0.87778 0.0
H181 H 0.40193 0.22015 0.80517 0.0
O182 O 0.38381 0.147 0.90563 0.0
C183 C 0.47482 0.26824 0.86082 0.0
O184 O 0.47626 0.24913 0.83377 0.0
N185 N 0.39951 0.1224 0.84332 0.0
C186 C 0.41661 0.06406 0.80557 0.0
C187 C 0.41204 0.05762 0.83871 0.0
C188 C 0.40376 0.08749 0.85729 0.0
C189 C 0.39837 0.12469 0.81072 0.0
C190 C 0.40582 0.09527 0.79145 0.0
H191 H 0.40766 0.0866 0.88286 0.0
H192 H 0.39919 0.15334 0.79879 0.0
H193 H 0.46063 0.17679 0.93095 0.0
H194 H 0.56322 0.16849 0.87796 0.0
H195 H 0.26098 0.15028 0.82819 0.0
H196 H 0.42117 0.0343 0.85049 0.0
H197 H 0.40982 0.10154 0.76592 0.0
C198 C 0.55717 0.66983 0.51071 0.0
C199 C 0.52473 0.63631 0.49087 0.0
N200 N 0.52889 0.6552 0.46172 0.0
N201 N 0.58208 0.70916 0.49381 0.0
C202 C 0.56372 0.6993 0.46424 0.0
H203 H 0.56226 0.66595 0.53582 0.0
Co204 Co 0.62881 0.76632 0.50818 0.0
C205 C 0.70064 0.78039 0.45806 0.0
O206 O 0.73035 0.78827 0.48124 0.0
N207 N 0.67389 0.82475 0.5243 0.0
C208 C 0.73723 0.88649 0.54319 0.0
C209 C 0.71767 0.85775 0.51705 0.0
C210 C 0.66661 0.83723 0.55346 0.0
N211 N 0.70484 0.87304 0.56614 0.0
O212 O 0.59046 0.7932 0.49495 0.0
H213 H 0.73552 0.86008 0.49512 0.0
H214 H 0.63568 0.81606 0.56724 0.0
O215 O 0.66059 0.77534 0.46494 0.0
C216 C 0.5602 0.78293 0.51714 0.0
O217 O 0.56145 0.75853 0.54142 0.0
N218 N 0.66156 0.7374 0.52507 0.0
C219 C 0.66712 0.66845 0.5587 0.0
C220 C 0.66496 0.66722 0.52518 0.0
C221 C 0.66185 0.70198 0.5088 0.0
C222 C 0.67244 0.74295 0.55691 0.0
C223 C 0.6768 0.70949 0.574 0.0
H224 H 0.65261 0.69635 0.48378 0.0
H225 H 0.67177 0.76953 0.57074 0.0
H226 H 0.57566 0.72416 0.4449 0.0
H227 H 0.49943 0.60123 0.49752 0.0
H228 H 0.7731 0.91331 0.5458 0.0
H229 H 0.65783 0.63637 0.51208 0.0
H230 H 0.67973 0.71225 0.59979 0.0
C231 C 0.89995 0.54819 0.83192 0.0
C232 C 0.90137 0.51777 0.81048 0.0
N233 N 0.88691 0.52433 0.78182 0.0
N234 N 0.88541 0.57434 0.81674 0.0
C235 C 0.877 0.55855 0.78644 0.0
H236 H 0.90952 0.55163 0.85691 0.0
Co237 Co 0.8769 0.61986 0.83572 0.0
C238 C 0.92615 0.69504 0.78703 0.0
O239 O 0.94772 0.72393 0.81058 0.0
N240 N 0.86498 0.66209 0.85748 0.0
C241 C 0.86652 0.72003 0.88496 0.0
C242 C 0.87114 0.70521 0.85491 0.0
C243 C 0.8523 0.65028 0.88818 0.0
N244 N 0.85608 0.68555 0.90602 0.0
O245 O 0.81001 0.58191 0.8266 0.0
H246 H 0.88171 0.72611 0.83354 0.0
H247 H 0.84774 0.61852 0.8984 0.0
O248 O 0.89283 0.65394 0.79349 0.0
C249 C 0.79038 0.54943 0.84743 0.0
O250 O 0.81671 0.54504 0.86895 0.0
N251 N 0.94202 0.65407 0.84739 0.0
C252 C 0.02267 0.66383 0.87394 0.0
C253 C 0.0142 0.65547 0.84106 0.0
C254 C 0.97367 0.65128 0.82812 0.0
C255 C 0.95631 0.67376 0.87697 0.0
C256 C 0.99696 0.67949 0.8906 0.0
H257 H 0.96513 0.63959 0.80369 0.0
H258 H 0.93548 0.68179 0.8919 0.0
H259 H 0.86306 0.57142 0.76835 0.0
H260 H 0.91284 0.49327 0.81563 0.0
H261 H 0.87483 0.75483 0.89124 0.0
H262 H 0.0342 0.64494 0.82656 0.0
H263 H 1.00394 0.68893 0.9156 0.0
C264 C 0.35361 0.88966 0.17775 0.0
C265 C 0.38536 0.8877 0.15778 0.0
N266 N 0.36674 0.87672 0.12825 0.0
N267 N 0.31561 0.88061 0.16064 0.0
C268 C 0.32454 0.87264 0.13074 0.0
H269 H 0.35749 0.89637 0.20318 0.0
Co270 Co 0.25995 0.87373 0.17524 0.0
C271 C 0.25174 0.93515 0.1251 0.0
O272 O 0.24779 0.95916 0.14849 0.0
N273 N 0.20288 0.86363 0.19153 0.0
C274 C 0.14559 0.87157 0.2119 0.0
C275 C 0.17289 0.87878 0.18526 0.0
C276 C 0.19001 0.84366 0.22061 0.0
N277 N 0.1572 0.85014 0.23437 0.0
O278 O 0.22982 0.80783 0.16264 0.0
H279 H 0.17256 0.89681 0.16397 0.0
H280 H 0.21018 0.83201 0.23384 0.0
O281 O 0.25166 0.89725 0.13185 0.0
C282 C 0.23959 0.78732 0.1849 0.0
O283 O 0.26537 0.81292 0.20873 0.0
N284 N 0.2922 0.93594 0.19184 0.0
C285 C 0.3636 1.00366 0.22799 0.0
C286 C 0.36802 1.00303 0.1947 0.0
C287 C 0.33138 0.96899 0.17687 0.0
C288 C 0.28448 0.94324 0.22285 0.0
C289 C 0.31949 0.97779 0.24116 0.0
H290 H 0.33766 0.96506 0.15206 0.0
H291 H 0.2539 0.9196 0.23549 0.0
H292 H 0.30002 0.86316 0.1113 0.0
H293 H 0.41869 0.89225 0.16474 0.0
H294 H 0.1218 0.8844 0.21536 0.0
H295 H 0.40131 0.02329 0.18317 0.0
H296 H 0.31419 0.97869 0.26663 0.0
C297 C 0.47866 0.3466 0.5004 0.0
C298 C 0.50776 0.37855 0.47844 0.0
N299 N 0.49782 0.35803 0.44958 0.0
N300 N 0.44995 0.30668 0.48516 0.0
C301 C 0.46312 0.3144 0.45434 0.0
H302 H 0.47748 0.35241 0.52571 0.0
Co303 Co 0.40185 0.2543 0.50366 0.0
C304 C 0.3257 0.2357 0.45569 0.0
O305 O 0.29838 0.2314 0.4796 0.0
N306 N 0.35508 0.20085 0.52447 0.0
C307 C 0.2919 0.14224 0.54631 0.0
C308 C 0.31151 0.16632 0.51833 0.0
C309 C 0.36217 0.19373 0.55523 0.0
N310 N 0.32402 0.16019 0.56964 0.0
O311 O 0.43364 0.22018 0.49217 0.0
H312 H 0.29418 0.15937 0.49552 0.0
H313 H 0.39393 0.21606 0.56789 0.0
O314 O 0.36608 0.24096 0.46174 0.0
C315 C 0.46436 0.22865 0.51381 0.0
O316 O 0.46791 0.25603 0.5375 0.0
N317 N 0.37621 0.29103 0.51816 0.0
C318 C 0.39472 0.37567 0.54276 0.0
C319 C 0.38206 0.36517 0.51056 0.0
C320 C 0.37457 0.32305 0.49843 0.0
C321 C 0.3771 0.29713 0.55047 0.0
C322 C 0.38585 0.33912 0.56335 0.0
H323 H 0.37608 0.32059 0.47284 0.0
H324 H 0.37941 0.27364 0.56672 0.0
H325 H 0.44679 0.28899 0.43556 0.0
H326 H 0.53399 0.41407 0.48322 0.0
H327 H 0.2564 0.11488 0.54943 0.0
H328 H 0.38656 0.39202 0.49391 0.0
H329 H 0.39389 0.34484 0.58859 0.0
C330 C 0.13306 0.46331 0.83214 0.0
C331 C 0.13007 0.493 0.81077 0.0
N332 N 0.14141 0.48455 0.78174 0.0
N333 N 0.14536 0.43575 0.81646 0.0
C334 C 0.15094 0.45003 0.78581 0.0
H335 H 0.12596 0.46132 0.85747 0.0
Co336 Co 0.15129 0.38849 0.83543 0.0
C337 C 0.09559 0.31283 0.78728 0.0
O338 O 0.07295 0.28563 0.81137 0.0
N339 N 0.15932 0.34288 0.85676 0.0
C340 C 0.15593 0.28108 0.8802 0.0
C341 C 0.15008 0.299 0.8518 0.0
C342 C 0.17483 0.35176 0.88721 0.0
N343 N 0.17122 0.31458 0.9025 0.0
O344 O 0.21792 0.42215 0.82516 0.0
H345 H 0.13862 0.28031 0.82958 0.0
H346 H 0.18425 0.38401 0.89913 0.0
O347 O 0.13101 0.35296 0.7933 0.0
C348 C 0.23687 0.45446 0.84621 0.0
O349 O 0.20957 0.45704 0.8677 0.0
N350 N 0.08848 0.3612 0.8493 0.0
C351 C 0.02184 0.37943 0.87308 0.0
C352 C 0.01872 0.36437 0.84142 0.0
C353 C 0.05429 0.35827 0.82947 0.0
C354 C 0.08323 0.36248 0.88157 0.0
C355 C 0.0498 0.3713 0.89409 0.0
H356 H 0.05821 0.35972 0.80388 0.0
H357 H 0.10932 0.36541 0.89788 0.0
H358 H 0.16087 0.43489 0.76675 0.0
H359 H 0.12059 0.51894 0.81612 0.0
H360 H 0.148 0.24582 0.88436 0.0
H361 H 0.99534 0.36694 0.8246 0.0
H362 H 0.05246 0.38018 0.91915 0.0
C363 C 0.66143 0.12882 0.17185 0.0
C364 C 0.6298 0.12858 0.15049 0.0
N365 N 0.64782 0.13459 0.1209 0.0
N366 N 0.69884 0.13449 0.15562 0.0
C367 C 0.6898 0.13855 0.1248 0.0
H368 H 0.65748 0.12492 0.1975 0.0
Co369 Co 0.7531 0.13974 0.1721 0.0
C370 C 0.75989 0.07372 0.12593 0.0
O371 O 0.76328 0.0518 0.15099 0.0
N372 N 0.80909 0.14846 0.18999 0.0
C373 C 0.86691 0.14097 0.21019 0.0
C374 C 0.83971 0.13426 0.18346 0.0
C375 C 0.82159 0.1676 0.21936 0.0
N376 N 0.85463 0.16118 0.23304 0.0
O377 O 0.78543 0.20498 0.15808 0.0
H378 H 0.84079 0.11756 0.16171 0.0
H379 H 0.80119 0.17878 0.23264 0.0
O380 O 0.76125 0.1128 0.13014 0.0
C381 C 0.77717 0.22686 0.18009 0.0
O382 O 0.75174 0.2026 0.20441 0.0
N383 N 0.71823 0.07828 0.19011 0.0
C384 C 0.64448 0.01545 0.22687 0.0
C385 C 0.64035 0.01465 0.19348 0.0
C386 C 0.67829 0.04602 0.17534 0.0
C387 C 0.72508 0.07139 0.22146 0.0
C388 C 0.68872 0.03947 0.24018 0.0
H389 H 0.67281 0.049 0.15018 0.0
H390 H 0.75644 0.09345 0.23393 0.0
H391 H 0.71418 0.14562 0.10565 0.0
H392 H 0.59615 0.12405 0.15629 0.0
H393 H 0.89142 0.12894 0.21327 0.0
H394 H 0.60687 0.9955 0.18191 0.0
H395 H 0.69369 0.0393 0.26577 0.0
H396 H 0.65269 0.60018 0.10825 0.0
H397 H 0.61146 0.68001 0.16685 0.0
H398 H 0.57315 0.54026 0.1029 0.0
H399 H 0.53063 0.61995 0.16035 0.0
H400 H 0.4371 0.48074 0.2063 0.0
H401 H 0.50629 0.54998 0.19098 0.0
H402 H 0.49072 0.49964 0.09408 0.0
H403 H 0.42164 0.4277 0.10998 0.0
C404 C 0.6265 0.60653 0.11838 0.0
C405 C 0.63853 0.64395 0.13932 0.0
C406 C 0.58052 0.57167 0.11533 0.0
C407 C 0.54604 0.57433 0.13267 0.0
C408 C 0.55705 0.61623 0.14792 0.0
C409 C 0.60322 0.6509 0.15135 0.0
C410 C 0.44876 0.48321 0.18189 0.0
C411 C 0.4235 0.44807 0.15943 0.0
C412 C 0.48787 0.52399 0.17282 0.0
C413 C 0.50291 0.53123 0.14097 0.0
C414 C 0.47935 0.49541 0.11869 0.0
C415 C 0.44005 0.45412 0.12786 0.0
H416 H 0.93862 0.37723 0.4355 0.0
H417 H 0.06748 0.42564 0.48682 0.0
H418 H 0.95355 0.45577 0.43098 0.0
H419 H 0.08278 0.50496 0.48163 0.0
H420 H 0.03312 0.59041 0.53363 0.0
H421 H 0.03042 0.52067 0.51649 0.0
H422 H 0.99895 0.54275 0.42015 0.0
H423 H 0.99995 0.61347 0.43758 0.0
C424 C 0.97161 0.40483 0.4441 0.0
C425 C 1.00123 0.39519 0.46262 0.0
C426 C 0.97997 0.45001 0.44154 0.0
C427 C 0.01821 0.48586 0.45717 0.0
C428 C 0.0522 0.47734 0.47026 0.0
C429 C 0.04367 0.43209 0.47307 0.0
C430 C 0.02398 0.58028 0.50895 0.0
C431 C 0.01711 0.60832 0.48696 0.0
C432 C 0.02392 0.5407 0.49892 0.0
C433 C 0.01693 0.52775 0.46668 0.0
C434 C 1.0059 0.553 0.445 0.0
C435 C 1.00602 0.59309 0.45507 0.0
H436 H 0.4042 0.97729 0.79754 0.0
H437 H 0.49724 0.1216 0.77644 0.0
H438 H 0.46457 0.95969 0.78228 0.0
H439 H 0.55793 0.1042 0.76233 0.0
H440 H 0.62022 0.02705 0.83762 0.0
H441 H 0.58334 0.06779 0.81508 0.0
H442 H 0.53318 0.97272 0.73567 0.0
H443 H 0.57269 0.93349 0.75709 0.0
C444 C 0.4368 1.00473 0.78834 0.0
C445 C 0.44622 0.05057 0.78808 0.0
C446 C 0.47117 0.99478 0.7794 0.0
C447 C 0.51558 0.03077 0.77101 0.0
C448 C 0.52372 0.07601 0.76821 0.0
C449 C 0.48902 0.08578 0.77636 0.0
C450 C 0.60408 0.01669 0.81431 0.0
C451 C 0.59742 0.97593 0.79979 0.0
C452 C 0.58292 0.04005 0.80136 0.0
C453 C 0.55458 0.02233 0.77419 0.0
C454 C 0.55458 0.98653 0.75682 0.0
C455 C 0.5768 0.96396 0.7693 0.0
H456 H 0.6019 0.64653 0.60481 0.0
H457 H 0.67185 0.58894 0.55109 0.0
H458 H 0.53427 0.57082 0.60929 0.0
H459 H 0.60362 0.51226 0.55629 0.0
H460 H 0.46544 0.43707 0.50514 0.0
H461 H 0.53724 0.50193 0.52235 0.0
H462 H 0.48528 0.48554 0.61868 0.0
H463 H 0.41105 0.42031 0.60113 0.0
C464 C 0.60419 0.6174 0.59564 0.0
C465 C 0.64154 0.62403 0.57619 0.0
C466 C 0.56494 0.57376 0.59816 0.0
C467 C 0.56305 0.53635 0.58173 0.0
C468 C 0.60384 0.54123 0.56814 0.0
C469 C 0.64304 0.585 0.56538 0.0
C470 C 0.46808 0.44767 0.52984 0.0
C471 C 0.43203 0.42284 0.55177 0.0
C472 C 0.51015 0.48422 0.53992 0.0
C473 C 0.51763 0.4972 0.57218 0.0
C474 C 0.48075 0.47521 0.59382 0.0
C475 C 0.43821 0.43826 0.58368 0.0
H476 H 1.00382 0.40739 0.93131 0.0
H477 H 0.0249 0.44385 0.8308 0.0
H478 H 0.02065 0.48598 0.94369 0.0
H479 H 0.03881 0.51955 0.84321 0.0
H480 H 0.10095 0.65919 0.86013 0.0
H481 H 0.10439 0.58865 0.86882 0.0
H482 H 0.98973 0.5394 0.9345 0.0
H483 H 0.98704 0.60967 0.92675 0.0
C484 C 1.01115 0.43145 0.91182 0.0
C485 C 0.0142 0.41894 0.88011 0.0
C486 C 0.02108 0.47651 0.91901 0.0
C487 C 0.03368 0.50951 0.89456 0.0
C488 C 0.03172 0.49558 0.86277 0.0
C489 C 0.0221 0.45111 0.85561 0.0
C490 C 0.07829 0.63451 0.87778 0.0
C491 C 0.04239 0.63902 0.89148 0.0
C492 C 0.07992 0.59394 0.88256 0.0
C493 C 0.04556 0.55773 0.90095 0.0
C494 C 0.01598 0.56635 0.91968 0.0
C495 C 0.01472 0.60709 0.91522 0.0
H496 H 0.45071 0.08018 0.22453 0.0
H497 H 0.36954 0.95157 0.27572 0.0
H498 H 0.52136 0.08119 0.24161 0.0
H499 H 0.43981 0.95268 0.29223 0.0
H500 H 0.55599 0.94112 0.22483 0.0
H501 H 0.48698 0.9425 0.2428 0.0
H502 H 0.57303 0.07369 0.28929 0.0
H503 H 0.64173 0.07234 0.27192 0.0
C504 C 0.44799 0.05347 0.24064 0.0
C505 C 0.40456 0.01555 0.24824 0.0
C506 C 0.48835 0.05404 0.25049 0.0
C507 C 0.48555 0.01651 0.26777 0.0
C508 C 0.44257 0.98182 0.27886 0.0
C509 C 0.40235 0.98156 0.26946 0.0
C510 C 0.56006 0.96905 0.24017 0.0
C511 C 0.6042 1.00665 0.24667 0.0
C512 C 0.52069 0.96984 0.25056 0.0
C513 C 0.52512 0.00852 0.26715 0.0
C514 C 0.56899 0.04359 0.2766 0.0
C515 C 0.60825 0.04246 0.26672 0.0
H516 H 0.16505 0.39538 0.09344 0.0
H517 H 0.1355 0.25531 0.1088 0.0
H518 H 0.16861 0.38576 0.03605 0.0
H519 H 0.13932 0.2455 0.05104 0.0
H520 H 0.11265 0.2416 0.93951 0.0
H521 H 0.10471 0.24232 0.99773 0.0
H522 H 0.22364 0.38016 1.00112 0.0
H523 H 0.23103 0.37935 0.94326 0.0
C524 C 0.15881 0.36231 0.08446 0.0
C525 C 0.15035 0.32628 0.1057 0.0
C526 C 0.16124 0.35686 0.05157 0.0
C527 C 0.15541 0.3152 0.03891 0.0
C528 C 0.1441 0.27807 0.05996 0.0
C529 C 0.14161 0.28357 0.09304 0.0
C530 C 0.13776 0.27146 0.95288 0.0
C531 C 0.17233 0.31056 0.93681 0.0
C532 C 0.13305 0.27204 0.9862 0.0
C533 C 0.16283 0.31176 1.00406 0.0
C534 C 0.19921 0.34952 0.98808 0.0
C535 C 0.2038 0.34894 0.95495 0.0
H536 H 0.86838 0.09993 0.26792 0.0
H537 H 0.85377 0.22101 0.27594 0.0
H538 H 0.86167 0.09017 0.32604 0.0
H539 H 0.84644 0.21094 0.33376 0.0
H540 H 0.77047 0.14475 0.42516 0.0
H541 H 0.78276 0.1503 0.36756 0.0
H542 H 0.89834 0.12729 0.37992 0.0
H543 H 0.88643 0.12243 0.43785 0.0
C544 C 0.86506 0.12522 0.2821 0.0
C545 C 0.86129 0.16113 0.26721 0.0
C546 C 0.86082 0.11937 0.3154 0.0
C547 C 0.85239 0.14911 0.33442 0.0
C548 C 0.85169 0.1867 0.3197 0.0
C549 C 0.85626 0.19271 0.2866 0.0
C550 C 0.79815 0.14029 0.4156 0.0
C551 C 0.82768 0.1336 0.43622 0.0
C552 C 0.80542 0.14379 0.3826 0.0
C553 C 0.84223 0.14033 0.36923 0.0
C554 C 0.86981 0.13031 0.38952 0.0
C555 C 0.86272 0.12713 0.42271 0.0
H556 H 0.76493 0.88419 0.77224 0.0
H557 H 0.6174 0.80717 0.75641 0.0
H558 H 0.77712 0.90156 0.71471 0.0
H559 H 0.62902 0.82316 0.69965 0.0
H560 H 0.65046 0.88834 0.60541 0.0
H561 H 0.65001 0.88501 0.66366 0.0
H562 H 0.77122 0.86944 0.66169 0.0
H563 H 0.77234 0.87482 0.60327 0.0
C564 C 0.73526 0.87056 0.75639 0.0
C565 C 0.69022 0.84493 0.76882 0.0
C566 C 0.74211 0.88054 0.7235 0.0
C567 C 0.70399 0.86478 0.70248 0.0
C568 C 0.65921 0.83746 0.71505 0.0
C569 C 0.65247 0.82792 0.74765 0.0
C570 C 0.67777 0.88571 0.61761 0.0
C571 C 0.71151 0.88213 0.59994 0.0
C572 C 0.67724 0.88307 0.65094 0.0
C573 C 0.70989 0.87569 0.66751 0.0
C574 C 0.74559 0.87521 0.64987 0.0
C575 C 0.74643 0.87853 0.6164 0.0
H576 H 0.86675 0.6119 0.10025 0.0
H577 H 0.901 0.75409 0.11086 0.0
H578 H 0.86425 0.61864 0.0426 0.0
H579 H 0.90019 0.76177 0.05255 0.0
H580 H 0.83358 0.73245 0.94909 0.0
H581 H 0.8448 0.73508 1.00744 0.0
H582 H 0.91125 0.65288 0.99746 0.0
H583 H 0.89872 0.64891 0.94066 0.0
C584 C 0.87493 0.64501 0.09009 0.0
C585 C 0.88438 0.68245 0.11008 0.0
C586 C 0.8736 0.64904 0.05698 0.0
C587 C 0.88198 0.69083 0.04274 0.0
C588 C 0.89309 0.72897 0.06268 0.0
C589 C 0.89442 0.72485 0.09603 0.0
C590 C 0.85053 0.71507 0.95958 0.0
C591 C 0.86411 0.68959 0.94018 0.0
C592 C 0.85729 0.71678 0.99291 0.0
C593 C 0.87828 0.69348 1.0073 0.0
C594 C 0.89373 0.67005 0.98752 0.0
C595 C 0.88647 0.66783 0.95467 0.0
H596 H 0.24275 0.85217 0.4244 0.0
H597 H 0.14233 0.89566 0.44022 0.0
H598 H 0.22758 0.84766 0.36718 0.0
H599 H 0.12708 0.89134 0.38258 0.0
H600 H 0.15176 0.91512 0.27035 0.0
H601 H 0.16117 0.92369 0.32845 0.0
H602 H 0.16105 0.79431 0.33383 0.0
H603 H 0.15175 0.78598 0.27595 0.0
C604 C 0.21783 0.86135 0.41556 0.0
C605 C 0.19351 0.87389 0.43691 0.0
C606 C 0.20881 0.8584 0.38278 0.0
C607 C 0.17523 0.86799 0.37035 0.0
C608 C 0.153 0.88352 0.3914 0.0
C609 C 0.162 0.88636 0.42439 0.0
C610 C 0.1522 0.88781 0.28408 0.0
C611 C 0.15111 0.84984 0.26855 0.0
C612 C 0.15799 0.89291 0.31736 0.0
C613 C 0.16299 0.86026 0.33571 0.0
C614 C 0.15857 0.82075 0.32034 0.0
C615 C 0.15271 0.81565 0.28724 0.0
H616 H 0.25426 0.12308 0.77409 0.0
H617 H 0.38191 0.25231 0.76145 0.0
H618 H 0.24813 0.1113 0.7162 0.0
H619 H 0.3762 0.24001 0.70381 0.0
H620 H 0.38853 0.17205 0.6136 0.0
H621 H 0.3841 0.1802 0.67109 0.0
H622 H 0.24116 0.14494 0.66168 0.0
H623 H 0.2459 0.13772 0.60365 0.0
C624 C 0.28035 0.14963 0.759 0.0
C625 C 0.31892 0.18852 0.77256 0.0
C626 C 0.27697 0.14263 0.7258 0.0
C627 C 0.31223 0.17416 0.70552 0.0
C628 C 0.34904 0.2145 0.71889 0.0
C629 C 0.35219 0.22168 0.75191 0.0
C630 C 0.35601 0.16565 0.62374 0.0
C631 C 0.3178 0.15485 0.60389 0.0
C632 C 0.35353 0.17056 0.65669 0.0
C633 C 0.31261 0.16432 0.67083 0.0
C634 C 0.27326 0.15024 0.65142 0.0
C635 C 0.27587 0.14572 0.61822 0.0
H636 H 0.23934 0.20157 0.43043 0.0
H637 H 0.38278 0.29655 0.40898 0.0
H638 H 0.21577 0.22787 0.38331 0.0
H639 H 0.35916 0.32327 0.36153 0.0
H640 H 0.29557 0.39448 0.29912 0.0
H641 H 0.3194 0.36817 0.3467 0.0
H642 H 0.21619 0.22707 0.32508 0.0
H643 H 0.19277 0.25347 0.2779 0.0
C644 C 0.26602 0.22745 0.41525 0.0
C645 C 0.31308 0.2462 0.42344 0.0
C646 C 0.25243 0.24275 0.38815 0.0
C647 C 0.28535 0.27809 0.3684 0.0
C648 C 0.33263 0.29638 0.37621 0.0
C649 C 0.3463 0.28044 0.40318 0.0
C650 C 0.27709 0.35808 0.30509 0.0
C651 C 0.24147 0.32634 0.28491 0.0
C652 C 0.29137 0.34276 0.33208 0.0
C653 C 0.27001 0.29525 0.33994 0.0
C654 C 0.2334 0.26387 0.32022 0.0
C655 C 0.21973 0.27909 0.2931 0.0
H656 H 0.88099 0.2353 0.63837 0.0
H657 H 1.00304 0.25912 0.58691 0.0
H658 H 0.92596 0.2561 0.68852 0.0
H659 H 0.04741 0.28048 0.63625 0.0
H660 H 0.12419 0.36015 0.72915 0.0
H661 H 0.07948 0.34263 0.67912 0.0
H662 H 0.96568 0.22348 0.72351 0.0
H663 H 1.01001 0.23996 0.7727 0.0
C664 C 0.91717 0.24486 0.63763 0.0
C665 C 0.93782 0.24478 0.60834 0.0
C666 C 0.94309 0.25686 0.6664 0.0
C667 C 0.99066 0.27024 0.6666 0.0
C668 C 1.01123 0.27091 0.63723 0.0
C669 C 0.98531 0.25809 0.60879 0.0
C670 C 0.08991 0.32992 0.72814 0.0
C671 C 0.07133 0.30145 0.75525 0.0
C672 C 0.06407 0.31991 0.69944 0.0
C673 C 0.0185 0.28175 0.69719 0.0
C674 C 1.00016 0.25347 0.72427 0.0
C675 C 0.02613 0.26286 0.75256 0.0
H676 H 0.62069 0.85995 0.97713 0.0
H677 H 0.74918 0.96149 0.93389 0.0
H678 H 0.63984 0.90899 0.02487 0.0
H679 H 0.76778 0.01044 0.98116 0.0
H680 H 0.76461 0.10573 0.06315 0.0
H681 H 0.74193 0.05938 1.01356 0.0
H682 H 0.69946 0.93549 0.06893 0.0
H683 H 0.72257 0.98095 0.11759 0.0
C684 C 0.65294 0.89261 0.97767 0.0
C685 C 0.68342 0.90613 0.95147 0.0
C686 C 0.66401 0.92089 1.00512 0.0
C687 C 0.70545 0.96409 1.00705 0.0
C688 C 0.73543 0.97786 0.98063 0.0
C689 C 0.72484 0.94928 0.95353 0.0
C690 C 0.75058 0.06867 0.06468 0.0
C691 C 0.74621 0.04759 0.09467 0.0
C692 C 0.73755 0.04198 0.03623 0.0
C693 C 0.71858 0.99334 0.03705 0.0
C694 C 0.7134 0.97252 0.06709 0.0
C695 C 0.72724 0.99904 0.09518 0.0
H696 H 0.64151 0.71926 0.4117 0.0
H697 H 0.78594 0.8116 0.43251 0.0
H698 H 0.66346 0.69157 0.36396 0.0
H699 H 0.80776 0.78393 0.38577 0.0
H700 H 0.83345 0.76086 0.28246 0.0
H701 H 0.80922 0.78612 0.32926 0.0
H702 H 0.69991 0.64578 0.34593 0.0
H703 H 0.72422 0.62046 0.29813 0.0
C704 C 0.67785 0.73444 0.40579 0.0
C705 C 0.71185 0.76836 0.4259 0.0
C706 C 0.69056 0.71794 0.37866 0.0
C707 C 0.73762 0.73522 0.37067 0.0
C708 C 0.77123 0.7699 0.39052 0.0
C709 C 0.75862 0.78595 0.41753 0.0
C710 C 0.80475 0.73502 0.29636 0.0
C711 C 0.78145 0.68838 0.28654 0.0
C712 C 0.79067 0.74962 0.3234 0.0
C713 C 0.75235 0.71827 0.34181 0.0
C714 C 0.72928 0.67124 0.33238 0.0
C715 C 0.74376 0.65646 0.30523 0.0
H716 H 0.97677 0.78136 0.76176 0.0
H717 H 0.93103 0.63847 0.74043 0.0
H718 H 0.02659 0.80556 0.71496 0.0
H719 H 0.98094 0.66268 0.69296 0.0
H720 H 0.11398 0.72743 0.62952 0.0
H721 H 0.06401 0.70239 0.67698 0.0
H722 H 0.0265 0.80668 0.65777 0.0
H723 H 0.07629 0.83159 0.61096 0.0
C724 C 0.9765 0.75489 0.74664 0.0
C725 C 0.94903 0.70781 0.75483 0.0
C726 C 1.00535 0.76885 0.71967 0.0
C727 C 1.00837 0.7363 0.6999 0.0
C728 C 0.98016 0.68897 0.70766 0.0
C729 C 0.95074 0.67492 0.73462 0.0
C730 C 0.09604 0.74579 0.63593 0.0
C731 C 0.09997 0.78215 0.61649 0.0
C732 C 0.0666 0.73085 0.6629 0.0
C733 C 0.04064 0.75218 0.67143 0.0
C734 C 0.04595 0.78946 0.65245 0.0
C735 C 0.07479 0.80394 0.62547 0.0
H736 H 0.2665 0.02075 0.10854 0.0
H737 H 0.26769 0.9026 0.0676 0.0
H738 H 0.29213 0.06181 0.05818 0.0
H739 H 0.29303 0.94418 1.01635 0.0
H740 H 0.28521 0.01575 0.92203 0.0
H741 H 0.26411 0.97412 0.97246 0.0
H742 H 0.36025 0.09928 0.02189 0.0
H743 H 0.38211 0.14144 0.97079 0.0
C744 C 0.27189 1.0031 0.08876 0.0
C745 C 0.26446 0.95773 0.09254 0.0
C746 C 0.28719 0.0272 0.05973 0.0
C747 C 0.29518 1.00686 0.03294 0.0
C748 C 0.28716 0.96115 0.03635 0.0
C749 C 0.27244 0.93711 0.06578 0.0
C750 C 0.30208 0.03484 0.94353 0.0
C751 C 0.33525 0.08254 0.94197 0.0
C752 C 0.2901 0.01052 0.97262 0.0
C753 C 0.31027 0.03291 1.00157 0.0
C754 C 0.34354 0.08069 1.0002 0.0
C755 C 0.35616 0.10504 0.97084 0.0
H756 H 0.33564 0.47383 0.31779 0.0
H757 H 0.43378 0.5976 0.26747 0.0
H758 H 0.37491 0.5079 0.36786 0.0
H759 H 0.47417 0.63071 0.31731 0.0
H760 H 0.50604 0.69649 0.41531 0.0
H761 H 0.46303 0.66124 0.36651 0.0
H762 H 0.44727 0.52964 0.39553 0.0
H763 H 0.49002 0.56512 0.44472 0.0
C764 C 0.36546 0.50827 0.31729 0.0
C765 C 0.38142 0.53288 0.28842 0.0
C766 C 0.38832 0.52759 0.34603 0.0
C767 C 0.42766 0.57199 0.34657 0.0
C768 C 0.4436 0.59663 0.31778 0.0
C769 C 0.42071 0.57738 0.28908 0.0
C770 C 0.49358 0.6601 0.41118 0.0
C771 C 0.50168 0.63361 0.43366 0.0
C772 C 0.46898 0.6399 0.38322 0.0
C773 C 0.45209 0.59275 0.377 0.0
C774 C 0.45942 0.56597 0.39978 0.0
C775 C 0.48389 0.58621 0.42791 0.0
H776 H 0.81502 0.31819 0.63404 0.0
H777 H 0.91434 0.44628 0.58905 0.0
H778 H 0.82095 0.35982 0.6832 0.0
H779 H 0.92107 0.48804 0.63837 0.0
H780 H 0.88625 0.5537 0.72129 0.0
H781 H 0.87873 0.51226 0.67193 0.0
H782 H 0.87412 0.39945 0.72593 0.0
H783 H 0.87912 0.4397 0.77534 0.0
C784 C 0.83841 0.35522 0.63478 0.0
C785 C 0.8642 0.37899 0.60773 0.0
C786 C 0.84192 0.3791 0.66295 0.0
C787 C 0.8716 0.42727 0.66478 0.0
C788 C 0.89733 0.45105 0.63764 0.0
C789 C 0.89353 0.42717 0.60938 0.0
C790 C 0.88304 0.51984 0.72275 0.0
C791 C 0.8831 0.50007 0.75246 0.0
C792 C 0.87934 0.4963 0.69435 0.0
C793 C 0.87579 0.4525 0.69494 0.0
C794 C 0.87614 0.43285 0.7246 0.0
C795 C 0.87962 0.45627 0.75299 0.0
H796 H 0.45768 0.9112 0.11447 0.0
H797 H 0.31926 0.82145 0.07845 0.0
H798 H 0.48962 0.8945 0.06715 0.0
H799 H 0.35097 0.80683 0.03088 0.0
H800 H 0.41851 0.74731 0.96862 0.0
H801 H 0.39013 0.76522 1.01684 0.0
H802 H 0.49762 0.9086 1.00928 0.0
H803 H 0.52637 0.89039 0.961 0.0
C804 C 0.43412 0.88804 0.0965 0.0
C805 C 0.38594 0.86776 0.10025 0.0
C806 C 0.45239 0.8789 0.06927 0.0
C807 C 0.42276 0.84924 0.04537 0.0
C808 C 0.37469 0.82932 0.04907 0.0
C809 C 0.35651 0.83829 0.07621 0.0
C810 C 0.43579 0.78272 0.97706 0.0
C811 C 0.47437 0.81751 0.9609 0.0
C812 C 0.41961 0.79299 1.00471 0.0
C813 C 0.44146 0.83839 1.01671 0.0
C814 C 0.4804 0.8732 1.00077 0.0
C815 C 0.49675 0.86282 0.97312 0.0
H816 H 0.56939 0.4997 0.26718 0.0
H817 H 0.67809 0.4691 0.28827 0.0
H818 H 0.5293 0.46021 0.31654 0.0
H819 H 0.63778 0.42897 0.33721 0.0
H820 H 0.51911 0.31861 0.40146 0.0
H821 H 0.55442 0.35439 0.35019 0.0
H822 H 0.55641 0.47975 0.37865 0.0
H823 H 0.5218 0.44415 0.43011 0.0
C824 C 0.58423 0.48395 0.28222 0.0
C825 C 0.62666 0.4873 0.2742 0.0
C826 C 0.5616 0.46175 0.31038 0.0
C827 C 0.58065 0.44173 0.33043 0.0
C828 C 0.62244 0.44403 0.32195 0.0
C829 C 0.64551 0.46706 0.2942 0.0
C830 C 0.52703 0.35372 0.39659 0.0
C831 C 0.51817 0.37888 0.41957 0.0
C832 C 0.54722 0.37412 0.36747 0.0
C833 C 0.55786 0.41961 0.36068 0.0
C834 C 0.54819 0.44449 0.3834 0.0
C835 C 0.52889 0.4244 0.4128 0.0
H836 H 0.07941 0.50892 0.76257 0.0
H837 H 0.20539 0.51152 0.73519 0.0
H838 H 0.08167 0.54957 0.7131 0.0
H839 H 0.2083 0.55318 0.68598 0.0
H840 H 0.2169 0.68212 0.62922 0.0
H841 H 0.21426 0.6391 0.67762 0.0
H842 H 0.08039 0.52696 0.6491 0.0
H843 H 0.0836 0.56953 0.60039 0.0
C844 C 0.10759 0.5184 0.74594 0.0
C845 C 0.14228 0.50734 0.75248 0.0
C846 C 0.10876 0.54132 0.71774 0.0
C847 C 0.14523 0.55441 0.69604 0.0
C848 C 0.17999 0.54346 0.70255 0.0
C849 C 0.17821 0.51955 0.73044 0.0
C850 C 0.18704 0.6483 0.63343 0.0
C851 C 0.15053 0.62889 0.61127 0.0
C852 C 0.18564 0.62371 0.66085 0.0
C853 C 0.14718 0.57989 0.66679 0.0
C854 C 0.11036 0.56074 0.64487 0.0
C855 C 0.11227 0.58487 0.6171 0.0
H856 H 0.60746 0.19451 0.92681 0.0
H857 H 0.47073 0.13144 0.96838 0.0
H858 H 0.63821 0.18389 0.9772 0.0
H859 H 0.5014 0.12119 1.01855 0.0
H860 H 0.58504 0.16272 0.11232 0.0
H861 H 0.55316 0.17038 0.06165 0.0
H862 H 0.63297 0.12077 1.01146 0.0
H863 H 0.66456 0.11278 0.06206 0.0
C864 C 0.58398 0.17816 0.94659 0.0
C865 C 0.53682 0.16432 0.9437 0.0
C866 C 0.60153 0.17206 0.9754 0.0
C867 C 0.5722 0.15198 1.00183 0.0
C868 C 0.52497 0.13757 0.99878 0.0
C869 C 0.50746 0.14359 0.97003 0.0
C870 C 0.59536 0.15296 0.09053 0.0
C871 C 0.62755 0.13746 0.09121 0.0
C872 C 0.57717 0.1574 0.06152 0.0
C873 C 0.59082 0.14641 0.03262 0.0
C874 C 0.62249 0.13029 0.03332 0.0
C875 C 0.64058 0.12576 0.06231 0.0
H876 H 0.24509 0.73897 0.23516 0.0
H877 H 0.20269 0.72079 0.13625 0.0
H878 H 0.23353 0.66175 0.23697 0.0
H879 H 0.18873 0.64114 0.13838 0.0
H880 H 0.23454 0.53135 0.14133 0.0
H881 H 0.2281 0.60022 0.13917 0.0
H882 H 0.18852 0.58204 0.23867 0.0
H883 H 0.1974 0.51329 0.2411 0.0
C884 C 0.2325 0.71818 0.2137 0.0
C885 C 0.22545 0.73688 0.18534 0.0
C886 C 0.22525 0.67309 0.21494 0.0
C887 C 0.21025 0.64428 0.1879 0.0
C888 C 0.20112 0.66216 0.15973 0.0
C889 C 0.20866 0.70785 0.15845 0.0
C890 C 0.22404 0.54157 0.16287 0.0
C891 C 0.21712 0.51668 0.19158 0.0
C892 C 0.21984 0.58129 0.16147 0.0
C893 C 0.20819 0.59784 0.18872 0.0
C894 C 0.1986 0.5714 0.21717 0.0
C895 C 0.20311 0.53143 0.21861 0.0
H896 H 0.49093 0.19677 0.56424 0.0
H897 H 0.51603 0.22466 0.46356 0.0
H898 H 0.55675 0.18434 0.56839 0.0
H899 H 0.5836 0.21418 0.46765 0.0
H900 H 0.69462 0.17639 0.47788 0.0
H901 H 0.61833 0.16924 0.47492 0.0
H902 H 0.63714 0.22511 0.57042 0.0
H903 H 0.71296 0.23025 0.57352 0.0
C904 C 0.5102 0.19944 0.54276 0.0
C905 C 0.49782 0.21122 0.51347 0.0
C906 C 0.5486 0.19299 0.54524 0.0
C907 C 0.57668 0.19889 0.51857 0.0
C908 C 0.56293 0.20868 0.48883 0.0
C909 C 0.5239 0.21455 0.4863 0.0
C910 C 0.68174 0.18575 0.49865 0.0
C911 C 0.70965 0.20319 0.52614 0.0
C912 C 0.63813 0.18242 0.49675 0.0
C913 C 0.62108 0.19725 0.52214 0.0
C914 C 0.64826 0.2127 0.55035 0.0
C915 C 0.69187 0.21546 0.55236 0.0
H916 H 0.31331 0.45643 0.81666 0.0
H917 H 0.2757 0.53384 0.88042 0.0
H918 H 0.39557 0.51502 0.82402 0.0
H919 H 0.3559 0.59164 0.88707 0.0
H920 H 0.50202 0.68286 0.91288 0.0
H921 H 0.42709 0.61129 0.9104 0.0
H922 H 0.45325 0.5922 0.81216 0.0
H923 H 0.52842 0.66222 0.81524 0.0
C924 C 0.32238 0.48585 0.83203 0.0
C925 C 0.28748 0.48993 0.84796 0.0
C926 C 0.36963 0.51956 0.83637 0.0
C927 C 0.3831 0.55819 0.85672 0.0
C928 C 0.3478 0.56209 0.8721 0.0
C929 C 0.3012 0.52875 0.86789 0.0
C930 C 0.4926 0.66236 0.89123 0.0
C931 C 0.5214 0.67862 0.86428 0.0
C932 C 0.44903 0.62161 0.88948 0.0
C933 C 0.43296 0.5961 0.86069 0.0
C934 C 0.46378 0.61036 0.83474 0.0
C935 C 0.5072 0.65083 0.83655 0.0
H936 H 0.82578 0.50504 0.23251 0.0
H937 H 0.74621 0.46331 0.14508 0.0
H938 H 0.83698 0.43775 0.22818 0.0
H939 H 0.7559 0.39656 0.1413 0.0
H940 H 0.79348 0.28615 0.12841 0.0
H941 H 0.80193 0.36365 0.13051 0.0
H942 H 0.79863 0.3572 0.23365 0.0
H943 H 0.7922 0.28171 0.23136 0.0
C944 C 0.81068 0.48172 0.21244 0.0
C945 C 0.78495 0.49001 0.18932 0.0
C946 C 0.81692 0.44284 0.2099 0.0
C947 C 0.79754 0.41109 0.18419 0.0
C948 C 0.77241 0.42011 0.16106 0.0
C949 C 0.76636 0.45864 0.16354 0.0
C950 C 0.79597 0.30199 0.15144 0.0
C951 C 0.79192 0.27735 0.17964 0.0
C952 C 0.8001 0.34629 0.15279 0.0
C953 C 0.80024 0.36711 0.18237 0.0
C954 C 0.79905 0.34327 0.2104 0.0
C955 C 0.79501 0.2994 0.20903 0.0
H956 H 0.52533 0.81165 0.4667 0.0
H957 H 0.50854 0.78095 0.56759 0.0
H958 H 0.45697 0.82145 0.46779 0.0
H959 H 0.44033 0.78873 0.56853 0.0
H960 H 0.29993 0.76759 0.47275 0.0
H961 H 0.37628 0.77638 0.47103 0.0
H962 H 0.40297 0.83219 0.56678 0.0
H963 H 0.32454 0.8215 0.56889 0.0
C964 C 0.50752 0.8075 0.48912 0.0
C965 C 0.5225 0.79509 0.51691 0.0
C966 C 0.4679 0.81263 0.4898 0.0
C967 C 0.44223 0.80551 0.51829 0.0
C968 C 0.45883 0.79516 0.54618 0.0
C969 C 0.49811 0.79016 0.5455 0.0
C970 C 0.32192 0.78204 0.49357 0.0
C971 C 0.30539 0.79331 0.52119 0.0
C972 C 0.36641 0.78761 0.49236 0.0
C973 C 0.39655 0.80491 0.5187 0.0
C974 C 0.38078 0.81799 0.54605 0.0
C975 C 0.33581 0.81224 0.54728 0.0
H976 H 0.72552 0.50634 0.79905 0.0
H977 H 0.74004 0.51806 0.90146 0.0
H978 H 0.64546 0.44301 0.80525 0.0
H979 H 0.6602 0.45684 0.90791 0.0
H980 H 0.5403 0.30483 0.90832 0.0
H981 H 0.61417 0.37723 0.90525 0.0
H982 H 0.56806 0.41383 0.81905 0.0
H983 H 0.49534 0.34052 0.82173 0.0
C984 C 0.7112 0.49632 0.82284 0.0
C985 C 0.7393 0.51724 0.8497 0.0
C986 C 0.66512 0.45985 0.82655 0.0
C987 C 0.64577 0.44375 0.85725 0.0
C988 C 0.67356 0.46679 0.88391 0.0
C989 C 0.71948 0.5025 0.88019 0.0
C990 C 0.5453 0.32929 0.88953 0.0
C991 C 0.51148 0.31731 0.8657 0.0
C992 C 0.58803 0.37091 0.88746 0.0
C993 C 0.59806 0.40189 0.86155 0.0
C994 C 0.56267 0.39091 0.83894 0.0
C995 C 0.52035 0.34916 0.84085 0.0
loop_
_geom_bond_atom_site_label_1
_geom_bond_atom_site_label_2
_geom_bond_distance
_geom_bond_site_symmetry_2
_ccdc_geom_bond_type
C0 C1 1.351 . S
C0 N3 1.368 . S
C0 H5 0.931 . S
C1 C0 1.351 . S
C1 N2 1.373 . S
C1 H29 0.930 . S
N2 C1 1.373 . S
N2 C4 1.340 . S
N3 C0 1.368 . S
N3 C4 1.321 . S
N3 Co6 2.135 . S
C4 N2 1.340 . S
C4 N3 1.321 . S
C4 H28 0.930 . S
H5 C0 0.931 . S
Co6 N3 2.135 . S
Co6 N9 2.121 . S
Co6 O14 2.055 . S
Co6 O17 2.039 . S
Co6 N20 2.140 . S
C7 O8 1.227 . S
C7 O17 1.265 . S
O8 C7 1.227 . S
N9 Co6 2.121 . S
N9 C11 1.375 . S
N9 C12 1.313 . S
C10 C11 1.338 . S
C10 N13 1.377 . S
C10 H30 0.930 . S
C11 N9 1.375 . S
C11 C10 1.338 . S
C11 H15 0.931 . S
C12 N9 1.313 . S
C12 N13 1.344 . S
C12 H16 0.930 . S
N13 C10 1.377 . S
N13 C12 1.344 . S
O14 Co6 2.055 . S
O14 C18 1.253 . S
H15 C11 0.931 . S
H16 C12 0.930 . S
O17 Co6 2.039 . S
O17 C7 1.265 . S
C18 O14 1.253 . S
C18 O19 1.227 . S
O19 C18 1.227 . S
N20 Co6 2.140 . S
N20 C23 1.346 . S
N20 C24 1.345 . S
C21 C22 1.387 . S
C21 C25 1.391 . S
C22 C21 1.387 . S
C22 C23 1.369 . S
C22 H31 0.929 . S
C23 N20 1.346 . S
C23 C22 1.369 . S
C23 H26 0.928 . S
C24 N20 1.345 . S
C24 C25 1.371 . S
C24 H27 0.931 . S
C25 C21 1.391 . S
C25 C24 1.371 . S
C25 H32 0.930 . S
H26 C23 0.928 . S
H27 C24 0.931 . S
H28 C4 0.930 . S
H29 C1 0.930 . S
H30 C10 0.930 . S
H31 C22 0.929 . S
H32 C25 0.930 . S
C33 C34 1.351 . S
C33 N36 1.368 . S
C33 H38 0.931 . S
C34 C33 1.351 . S
C34 N35 1.373 . S
C34 H62 0.930 . S
N35 C34 1.373 . S
N35 C37 1.340 . S
N36 C33 1.368 . S
N36 C37 1.321 . S
N36 Co39 2.135 . S
C37 N35 1.340 . S
C37 N36 1.321 . S
C37 H61 0.930 . S
H38 C33 0.931 . S
Co39 N36 2.135 . S
Co39 N42 2.121 . S
Co39 O47 2.055 . S
Co39 O50 2.039 . S
Co39 N53 2.140 . S
C40 O41 1.227 . S
C40 O50 1.265 . S
O41 C40 1.227 . S
N42 Co39 2.121 . S
N42 C44 1.375 . S
N42 C45 1.313 . S
C43 C44 1.338 . S
C43 N46 1.377 . S
C43 H63 0.930 . S
C44 N42 1.375 . S
C44 C43 1.338 . S
C44 H48 0.931 . S
C45 N42 1.313 . S
C45 N46 1.344 . S
C45 H49 0.930 . S
N46 C43 1.377 . S
N46 C45 1.344 . S
O47 Co39 2.055 . S
O47 C51 1.253 . S
H48 C44 0.931 . S
H49 C45 0.930 . S
O50 Co39 2.039 . S
O50 C40 1.265 . S
C51 O47 1.253 . S
C51 O52 1.227 . S
O52 C51 1.227 . S
N53 Co39 2.140 . S
N53 C56 1.346 . S
N53 C57 1.345 . S
C54 C55 1.387 . S
C54 C58 1.391 . S
C55 C54 1.387 . S
C55 C56 1.369 . S
C55 H64 0.929 . S
C56 N53 1.346 . S
C56 C55 1.369 . S
C56 H59 0.928 . S
C57 N53 1.345 . S
C57 C58 1.371 . S
C57 H60 0.931 . S
C58 C54 1.391 . S
C58 C57 1.371 . S
C58 H65 0.930 . S
H59 C56 0.928 . S
H60 C57 0.931 . S
H61 C37 0.930 . S
H62 C34 0.930 . S
H63 C43 0.930 . S
H64 C55 0.929 . S
H65 C58 0.930 . S
C66 C67 1.351 . S
C66 N69 1.368 . S
C66 H71 0.931 . S
C67 C66 1.351 . S
C67 N68 1.373 . S
C67 H95 0.930 . S
N68 C67 1.373 . S
N68 C70 1.340 . S
N69 C66 1.368 . S
N69 C70 1.321 . S
N69 Co72 2.135 . S
C70 N68 1.340 . S
C70 N69 1.321 . S
C70 H94 0.930 . S
H71 C66 0.931 . S
Co72 N69 2.135 . S
Co72 N75 2.121 . S
Co72 O80 2.055 . S
Co72 O83 2.039 . S
Co72 N86 2.140 . S
C73 O74 1.227 . S
C73 O83 1.265 . S
O74 C73 1.227 . S
N75 Co72 2.121 . S
N75 C77 1.375 . S
N75 C78 1.313 . S
C76 C77 1.338 . S
C76 N79 1.377 . S
C76 H96 0.930 . S
C77 N75 1.375 . S
C77 C76 1.338 . S
C77 H81 0.931 . S
C78 N75 1.313 . S
C78 N79 1.344 . S
C78 H82 0.930 . S
N79 C76 1.377 . S
N79 C78 1.344 . S
O80 Co72 2.055 . S
O80 C84 1.253 . S
H81 C77 0.931 . S
H82 C78 0.930 . S
O83 Co72 2.039 . S
O83 C73 1.265 . S
C84 O80 1.253 . S
C84 O85 1.227 . S
O85 C84 1.227 . S
N86 Co72 2.140 . S
N86 C89 1.346 . S
N86 C90 1.345 . S
C87 C88 1.387 . S
C87 C91 1.391 . S
C88 C87 1.387 . S
C88 C89 1.369 . S
C88 H97 0.929 . S
C89 N86 1.346 . S
C89 C88 1.369 . S
C89 H92 0.928 . S
C90 N86 1.345 . S
C90 C91 1.371 . S
C90 H93 0.931 . S
C91 C87 1.391 . S
C91 C90 1.371 . S
C91 H98 0.930 . S
H92 C89 0.928 . S
H93 C90 0.931 . S
H94 C70 0.930 . S
H95 C67 0.930 . S
H96 C76 0.930 . S
H97 C88 0.929 . S
H98 C91 0.930 . S
C99 C100 1.351 . S
C99 N102 1.368 . S
C99 H104 0.931 . S
C100 C99 1.351 . S
C100 N101 1.373 . S
C100 H128 0.930 . S
N101 C100 1.373 . S
N101 C103 1.340 . S
N102 C99 1.368 . S
N102 C103 1.321 . S
N102 Co105 2.135 . S
C103 N101 1.340 . S
C103 N102 1.321 . S
C103 H127 0.930 . S
H104 C99 0.931 . S
Co105 N102 2.135 . S
Co105 N108 2.121 . S
Co105 O113 2.055 . S
Co105 O116 2.039 . S
Co105 N119 2.140 . S
C106 O107 1.227 . S
C106 O116 1.265 . S
O107 C106 1.227 . S
N108 Co105 2.121 . S
N108 C110 1.375 . S
N108 C111 1.313 . S
C109 C110 1.338 . S
C109 N112 1.377 . S
C109 H129 0.930 . S
C110 N108 1.375 . S
C110 C109 1.338 . S
C110 H114 0.931 . S
C111 N108 1.313 . S
C111 N112 1.344 . S
C111 H115 0.930 . S
N112 C109 1.377 . S
N112 C111 1.344 . S
O113 Co105 2.055 . S
O113 C117 1.253 . S
H114 C110 0.931 . S
H115 C111 0.930 . S
O116 Co105 2.039 . S
O116 C106 1.265 . S
C117 O113 1.253 . S
C117 O118 1.227 . S
O118 C117 1.227 . S
N119 Co105 2.140 . S
N119 C122 1.346 . S
N119 C123 1.345 . S
C120 C121 1.387 . S
C120 C124 1.391 . S
C121 C120 1.387 . S
C121 C122 1.369 . S
C121 H130 0.929 . S
C122 N119 1.346 . S
C122 C121 1.369 . S
C122 H125 0.928 . S
C123 N119 1.345 . S
C123 C124 1.371 . S
C123 H126 0.931 . S
C124 C120 1.391 . S
C124 C123 1.371 . S
C124 H131 0.930 . S
H125 C122 0.928 . S
H126 C123 0.931 . S
H127 C103 0.930 . S
H128 C100 0.930 . S
H129 C109 0.930 . S
H130 C121 0.929 . S
H131 C124 0.930 . S
C132 C133 1.351 . S
C132 N135 1.368 . S
C132 H137 0.931 . S
C133 C132 1.351 . S
C133 N134 1.373 . S
C133 H161 0.930 . S
N134 C133 1.373 . S
N134 C136 1.340 . S
N135 C132 1.368 . S
N135 C136 1.321 . S
N135 Co138 2.135 . S
C136 N134 1.340 . S
C136 N135 1.321 . S
C136 H160 0.930 . S
H137 C132 0.931 . S
Co138 N135 2.135 . S
Co138 N141 2.121 . S
Co138 O146 2.055 . S
Co138 O149 2.039 . S
Co138 N152 2.140 . S
C139 O140 1.227 . S
C139 O149 1.265 . S
O140 C139 1.227 . S
N141 Co138 2.121 . S
N141 C143 1.375 . S
N141 C144 1.313 . S
C142 C143 1.338 . S
C142 N145 1.377 . S
C142 H162 0.930 . S
C143 N141 1.375 . S
C143 C142 1.338 . S
C143 H147 0.931 . S
C144 N141 1.313 . S
C144 N145 1.344 . S
C144 H148 0.930 . S
N145 C142 1.377 . S
N145 C144 1.344 . S
O146 Co138 2.055 . S
O146 C150 1.253 . S
H147 C143 0.931 . S
H148 C144 0.930 . S
O149 Co138 2.039 . S
O149 C139 1.265 . S
C150 O146 1.253 . S
C150 O151 1.227 . S
O151 C150 1.227 . S
N152 Co138 2.140 . S
N152 C155 1.346 . S
N152 C156 1.345 . S
C153 C154 1.387 . S
C153 C157 1.391 . S
C154 C153 1.387 . S
C154 C155 1.369 . S
C154 H163 0.929 . S
C155 N152 1.346 . S
C155 C154 1.369 . S
C155 H158 0.928 . S
C156 N152 1.345 . S
C156 C157 1.371 . S
C156 H159 0.931 . S
C157 C153 1.391 . S
C157 C156 1.371 . S
C157 H164 0.930 . S
H158 C155 0.928 . S
H159 C156 0.931 . S
H160 C136 0.930 . S
H161 C133 0.930 . S
H162 C142 0.930 . S
H163 C154 0.929 . S
H164 C157 0.930 . S
C165 C166 1.351 . S
C165 N168 1.368 . S
C165 H170 0.931 . S
C166 C165 1.351 . S
C166 N167 1.373 . S
C166 H194 0.930 . S
N167 C166 1.373 . S
N167 C169 1.340 . S
N168 C165 1.368 . S
N168 C169 1.321 . S
N168 Co171 2.135 . S
C169 N167 1.340 . S
C169 N168 1.321 . S
C169 H193 0.930 . S
H170 C165 0.931 . S
Co171 N168 2.135 . S
Co171 N174 2.121 . S
Co171 O179 2.055 . S
Co171 O182 2.039 . S
Co171 N185 2.140 . S
C172 O173 1.227 . S
C172 O182 1.265 . S
O173 C172 1.227 . S
N174 Co171 2.121 . S
N174 C176 1.375 . S
N174 C177 1.313 . S
C175 C176 1.338 . S
C175 N178 1.377 . S
C175 H195 0.930 . S
C176 N174 1.375 . S
C176 C175 1.338 . S
C176 H180 0.931 . S
C177 N174 1.313 . S
C177 N178 1.344 . S
C177 H181 0.930 . S
N178 C175 1.377 . S
N178 C177 1.344 . S
O179 Co171 2.055 . S
O179 C183 1.253 . S
H180 C176 0.931 . S
H181 C177 0.930 . S
O182 Co171 2.039 . S
O182 C172 1.265 . S
C183 O179 1.253 . S
C183 O184 1.227 . S
O184 C183 1.227 . S
N185 Co171 2.140 . S
N185 C188 1.346 . S
N185 C189 1.345 . S
C186 C187 1.387 . S
C186 C190 1.391 . S
C187 C186 1.387 . S
C187 C188 1.369 . S
C187 H196 0.929 . S
C188 N185 1.346 . S
C188 C187 1.369 . S
C188 H191 0.928 . S
C189 N185 1.345 . S
C189 C190 1.371 . S
C189 H192 0.931 . S
C190 C186 1.391 . S
C190 C189 1.371 . S
C190 H197 0.930 . S
H191 C188 0.928 . S
H192 C189 0.931 . S
H193 C169 0.930 . S
H194 C166 0.930 . S
H195 C175 0.930 . S
H196 C187 0.929 . S
H197 C190 0.930 . S
C198 C199 1.351 . S
C198 N201 1.368 . S
C198 H203 0.931 . S
C199 C198 1.351 . S
C199 N200 1.373 . S
C199 H227 0.930 . S
N200 C199 1.373 . S
N200 C202 1.340 . S
N201 C198 1.368 . S
N201 C202 1.321 . S
N201 Co204 2.135 . S
C202 N200 1.340 . S
C202 N201 1.321 . S
C202 H226 0.930 . S
H203 C198 0.931 . S
Co204 N201 2.135 . S
Co204 N207 2.121 . S
Co204 O212 2.055 . S
Co204 O215 2.039 . S
Co204 N218 2.140 . S
C205 O206 1.227 . S
C205 O215 1.265 . S
O206 C205 1.227 . S
N207 Co204 2.121 . S
N207 C209 1.375 . S
N207 C210 1.313 . S
C208 C209 1.338 . S
C208 N211 1.377 . S
C208 H228 0.930 . S
C209 N207 1.375 . S
C209 C208 1.338 . S
C209 H213 0.931 . S
C210 N207 1.313 . S
C210 N211 1.344 . S
C210 H214 0.930 . S
N211 C208 1.377 . S
N211 C210 1.344 . S
O212 Co204 2.055 . S
O212 C216 1.253 . S
H213 C209 0.931 . S
H214 C210 0.930 . S
O215 Co204 2.039 . S
O215 C205 1.265 . S
C216 O212 1.253 . S
C216 O217 1.227 . S
O217 C216 1.227 . S
N218 Co204 2.140 . S
N218 C221 1.346 . S
N218 C222 1.345 . S
C219 C220 1.387 . S
C219 C223 1.391 . S
C220 C219 1.387 . S
C220 C221 1.369 . S
C220 H229 0.929 . S
C221 N218 1.346 . S
C221 C220 1.369 . S
C221 H224 0.928 . S
C222 N218 1.345 . S
C222 C223 1.371 . S
C222 H225 0.931 . S
C223 C219 1.391 . S
C223 C222 1.371 . S
C223 H230 0.930 . S
H224 C221 0.928 . S
H225 C222 0.931 . S
H226 C202 0.930 . S
H227 C199 0.930 . S
H228 C208 0.930 . S
H229 C220 0.929 . S
H230 C223 0.930 . S
C231 C232 1.351 . S
C231 N234 1.368 . S
C231 H236 0.931 . S
C232 C231 1.351 . S
C232 N233 1.373 . S
C232 H260 0.930 . S
N233 C232 1.373 . S
N233 C235 1.340 . S
N234 C231 1.368 . S
N234 C235 1.321 . S
N234 Co237 2.135 . S
C235 N233 1.340 . S
C235 N234 1.321 . S
C235 H259 0.930 . S
H236 C231 0.931 . S
Co237 N234 2.135 . S
Co237 N240 2.121 . S
Co237 O245 2.055 . S
Co237 O248 2.039 . S
Co237 N251 2.140 . S
C238 O239 1.227 . S
C238 O248 1.265 . S
O239 C238 1.227 . S
N240 Co237 2.121 . S
N240 C242 1.375 . S
N240 C243 1.313 . S
C241 C242 1.338 . S
C241 N244 1.377 . S
C241 H261 0.930 . S
C242 N240 1.375 . S
C242 C241 1.338 . S
C242 H246 0.931 . S
C243 N240 1.313 . S
C243 N244 1.344 . S
C243 H247 0.930 . S
N244 C241 1.377 . S
N244 C243 1.344 . S
O245 Co237 2.055 . S
O245 C249 1.253 . S
H246 C242 0.931 . S
H247 C243 0.930 . S
O248 Co237 2.039 . S
O248 C238 1.265 . S
C249 O245 1.253 . S
C249 O250 1.227 . S
O250 C249 1.227 . S
N251 Co237 2.140 . S
N251 C254 1.346 . S
N251 C255 1.345 . S
C252 C253 1.387 . S
C252 C256 1.391 . S
C253 C252 1.387 . S
C253 C254 1.369 . S
C253 H262 0.929 . S
C254 N251 1.346 . S
C254 C253 1.369 . S
C254 H257 0.928 . S
C255 N251 1.345 . S
C255 C256 1.371 . S
C255 H258 0.931 . S
C256 C252 1.391 . S
C256 C255 1.371 . S
C256 H263 0.930 . S
H257 C254 0.928 . S
H258 C255 0.931 . S
H259 C235 0.930 . S
H260 C232 0.930 . S
H261 C241 0.930 . S
H262 C253 0.929 . S
H263 C256 0.930 . S
C264 C265 1.351 . S
C264 N267 1.368 . S
C264 H269 0.931 . S
C265 C264 1.351 . S
C265 N266 1.373 . S
C265 H293 0.930 . S
N266 C265 1.373 . S
N266 C268 1.340 . S
N267 C264 1.368 . S
N267 C268 1.321 . S
N267 Co270 2.135 . S
C268 N266 1.340 . S
C268 N267 1.321 . S
C268 H292 0.930 . S
H269 C264 0.931 . S
Co270 N267 2.135 . S
Co270 N273 2.121 . S
Co270 O278 2.055 . S
Co270 O281 2.039 . S
Co270 N284 2.140 . S
C271 O272 1.227 . S
C271 O281 1.265 . S
O272 C271 1.227 . S
N273 Co270 2.121 . S
N273 C275 1.375 . S
N273 C276 1.313 . S
C274 C275 1.338 . S
C274 N277 1.377 . S
C274 H294 0.930 . S
C275 N273 1.375 . S
C275 C274 1.338 . S
C275 H279 0.931 . S
C276 N273 1.313 . S
C276 N277 1.344 . S
C276 H280 0.930 . S
N277 C274 1.377 . S
N277 C276 1.344 . S
O278 Co270 2.055 . S
O278 C282 1.253 . S
H279 C275 0.931 . S
H280 C276 0.930 . S
O281 Co270 2.039 . S
O281 C271 1.265 . S
C282 O278 1.253 . S
C282 O283 1.227 . S
O283 C282 1.227 . S
N284 Co270 2.140 . S
N284 C287 1.346 . S
N284 C288 1.345 . S
C285 C286 1.387 . S
C285 C289 1.391 . S
C286 C285 1.387 . S
C286 C287 1.369 . S
C286 H295 0.929 . S
C287 N284 1.346 . S
C287 C286 1.369 . S
C287 H290 0.928 . S
C288 N284 1.345 . S
C288 C289 1.371 . S
C288 H291 0.931 . S
C289 C285 1.391 . S
C289 C288 1.371 . S
C289 H296 0.930 . S
H290 C287 0.928 . S
H291 C288 0.931 . S
H292 C268 0.930 . S
H293 C265 0.930 . S
H294 C274 0.930 . S
H295 C286 0.929 . S
H296 C289 0.930 . S
C297 C298 1.351 . S
C297 N300 1.368 . S
C297 H302 0.931 . S
C298 C297 1.351 . S
C298 N299 1.373 . S
C298 H326 0.930 . S
N299 C298 1.373 . S
N299 C301 1.340 . S
N300 C297 1.368 . S
N300 C301 1.321 . S
N300 Co303 2.135 . S
C301 N299 1.340 . S
C301 N300 1.321 . S
C301 H325 0.930 . S
H302 C297 0.931 . S
Co303 N300 2.135 . S
Co303 N306 2.121 . S
Co303 O311 2.055 . S
Co303 O314 2.039 . S
Co303 N317 2.140 . S
C304 O305 1.227 . S
C304 O314 1.265 . S
O305 C304 1.227 . S
N306 Co303 2.121 . S
N306 C308 1.375 . S
N306 C309 1.313 . S
C307 C308 1.338 . S
C307 N310 1.377 . S
C307 H327 0.930 . S
C308 N306 1.375 . S
C308 C307 1.338 . S
C308 H312 0.931 . S
C309 N306 1.313 . S
C309 N310 1.344 . S
C309 H313 0.930 . S
N310 C307 1.377 . S
N310 C309 1.344 . S
O311 Co303 2.055 . S
O311 C315 1.253 . S
H312 C308 0.931 . S
H313 C309 0.930 . S
O314 Co303 2.039 . S
O314 C304 1.265 . S
C315 O311 1.253 . S
C315 O316 1.227 . S
O316 C315 1.227 . S
N317 Co303 2.140 . S
N317 C320 1.346 . S
N317 C321 1.345 . S
C318 C319 1.387 . S
C318 C322 1.391 . S
C319 C318 1.387 . S
C319 C320 1.369 . S
C319 H328 0.929 . S
C320 N317 1.346 . S
C320 C319 1.369 . S
C320 H323 0.928 . S
C321 N317 1.345 . S
C321 C322 1.371 . S
C321 H324 0.931 . S
C322 C318 1.391 . S
C322 C321 1.371 . S
C322 H329 0.930 . S
H323 C320 0.928 . S
H324 C321 0.931 . S
H325 C301 0.930 . S
H326 C298 0.930 . S
H327 C307 0.930 . S
H328 C319 0.929 . S
H329 C322 0.930 . S
C330 C331 1.351 . S
C330 N333 1.368 . S
C330 H335 0.931 . S
C331 C330 1.351 . S
C331 N332 1.373 . S
C331 H359 0.930 . S
N332 C331 1.373 . S
N332 C334 1.340 . S
N333 C330 1.368 . S
N333 C334 1.321 . S
N333 Co336 2.135 . S
C334 N332 1.340 . S
C334 N333 1.321 . S
C334 H358 0.930 . S
H335 C330 0.931 . S
Co336 N333 2.135 . S
Co336 N339 2.121 . S
Co336 O344 2.055 . S
Co336 O347 2.039 . S
Co336 N350 2.140 . S
C337 O338 1.227 . S
C337 O347 1.265 . S
O338 C337 1.227 . S
N339 Co336 2.121 . S
N339 C341 1.375 . S
N339 C342 1.313 . S
C340 C341 1.338 . S
C340 N343 1.377 . S
C340 H360 0.930 . S
C341 N339 1.375 . S
C341 C340 1.338 . S
C341 H345 0.931 . S
C342 N339 1.313 . S
C342 N343 1.344 . S
C342 H346 0.930 . S
N343 C340 1.377 . S
N343 C342 1.344 . S
O344 Co336 2.055 . S
O344 C348 1.253 . S
H345 C341 0.931 . S
H346 C342 0.930 . S
O347 Co336 2.039 . S
O347 C337 1.265 . S
C348 O344 1.253 . S
C348 O349 1.227 . S
O349 C348 1.227 . S
N350 Co336 2.140 . S
N350 C353 1.346 . S
N350 C354 1.345 . S
C351 C352 1.387 . S
C351 C355 1.391 . S
C352 C351 1.387 . S
C352 C353 1.369 . S
C352 H361 0.929 . S
C353 N350 1.346 . S
C353 C352 1.369 . S
C353 H356 0.928 . S
C354 N350 1.345 . S
C354 C355 1.371 . S
C354 H357 0.931 . S
C355 C351 1.391 . S
C355 C354 1.371 . S
C355 H362 0.930 . S
H356 C353 0.928 . S
H357 C354 0.931 . S
H358 C334 0.930 . S
H359 C331 0.930 . S
H360 C340 0.930 . S
H361 C352 0.929 . S
H362 C355 0.930 . S
C363 C364 1.351 . S
C363 N366 1.368 . S
C363 H368 0.931 . S
C364 C363 1.351 . S
C364 N365 1.373 . S
C364 H392 0.930 . S
N365 C364 1.373 . S
N365 C367 1.340 . S
N366 C363 1.368 . S
N366 C367 1.321 . S
N366 Co369 2.135 . S
C367 N365 1.340 . S
C367 N366 1.321 . S
C367 H391 0.930 . S
H368 C363 0.931 . S
Co369 N366 2.135 . S
Co369 N372 2.121 . S
Co369 O377 2.055 . S
Co369 O380 2.039 . S
Co369 N383 2.140 . S
C370 O371 1.227 . S
C370 O380 1.265 . S
O371 C370 1.227 . S
N372 Co369 2.121 . S
N372 C374 1.375 . S
N372 C375 1.313 . S
C373 C374 1.338 . S
C373 N376 1.377 . S
C373 H393 0.930 . S
C374 N372 1.375 . S
C374 C373 1.338 . S
C374 H378 0.931 . S
C375 N372 1.313 . S
C375 N376 1.344 . S
C375 H379 0.930 . S
N376 C373 1.377 . S
N376 C375 1.344 . S
O377 Co369 2.055 . S
O377 C381 1.253 . S
H378 C374 0.931 . S
H379 C375 0.930 . S
O380 Co369 2.039 . S
O380 C370 1.265 . S
C381 O377 1.253 . S
C381 O382 1.227 . S
O382 C381 1.227 . S
N383 Co369 2.140 . S
N383 C386 1.346 . S
N383 C387 1.345 . S
C384 C385 1.387 . S
C384 C388 1.391 . S
C385 C384 1.387 . S
C385 C386 1.369 . S
C385 H394 0.929 . S
C386 N383 1.346 . S
C386 C385 1.369 . S
C386 H389 0.928 . S
C387 N383 1.345 . S
C387 C388 1.371 . S
C387 H390 0.931 . S
C388 C384 1.391 . S
C388 C387 1.371 . S
C388 H395 0.930 . S
H389 C386 0.928 . S
H390 C387 0.931 . S
H391 C367 0.930 . S
H392 C364 0.930 . S
H393 C373 0.930 . S
H394 C385 0.929 . S
H395 C388 0.930 . S
H396 C404 0.950 . S
H397 C409 0.950 . S
H398 C406 0.950 . S
H399 C408 0.950 . S
H400 C410 0.950 . S
H401 C412 0.950 . S
H402 C414 0.950 . S
H403 C415 0.950 . S
C404 H396 0.950 . S
C404 C405 1.386 . S
C404 C406 1.391 . S
C405 C404 1.386 . S
C405 C409 1.393 . S
C406 H398 0.950 . S
C406 C404 1.391 . S
C406 C407 1.400 . S
C407 C406 1.400 . S
C407 C408 1.398 . S
C407 C413 1.491 . S
C408 H399 0.950 . S
C408 C407 1.398 . S
C408 C409 1.391 . S
C409 H397 0.950 . S
C409 C405 1.393 . S
C409 C408 1.391 . S
C410 H400 0.950 . S
C410 C411 1.386 . S
C410 C412 1.391 . S
C411 C410 1.386 . S
C411 C415 1.393 . S
C412 H401 0.950 . S
C412 C410 1.391 . S
C412 C413 1.400 . S
C413 C407 1.491 . S
C413 C412 1.400 . S
C413 C414 1.398 . S
C414 H402 0.950 . S
C414 C413 1.398 . S
C414 C415 1.391 . S
C415 H403 0.950 . S
C415 C411 1.393 . S
C415 C414 1.391 . S
H416 C424 0.950 . S
H417 C429 0.950 . S
H418 C426 0.950 . S
H419 C428 0.950 . S
H420 C430 0.950 . S
H421 C432 0.950 . S
H422 C434 0.950 . S
H423 C435 0.950 . S
C424 H416 0.950 . S
C424 C425 1.386 . S
C424 C426 1.391 . S
C425 C424 1.386 . S
C425 C429 1.393 . S
C426 H418 0.950 . S
C426 C424 1.391 . S
C426 C427 1.400 . S
C427 C426 1.400 . S
C427 C428 1.398 1_655 S
C427 C433 1.491 1_655 S
C428 H419 0.950 . S
C428 C427 1.398 1_455 S
C428 C429 1.391 1_455 S
C429 H417 0.950 . S
C429 C425 1.393 . S
C429 C428 1.391 1_655 S
C430 H420 0.950 . S
C430 C431 1.386 . S
C430 C432 1.391 . S
C431 C430 1.386 . S
C431 C435 1.393 . S
C432 H421 0.950 . S
C432 C430 1.391 . S
C432 C433 1.400 . S
C433 C427 1.491 1_455 S
C433 C432 1.400 . S
C433 C434 1.398 1_455 S
C434 H422 0.950 . S
C434 C433 1.398 1_655 S
C434 C435 1.391 1_655 S
C435 H423 0.950 . S
C435 C431 1.393 . S
C435 C434 1.391 1_455 S
H436 C444 0.950 . S
H437 C449 0.950 . S
H438 C446 0.950 . S
H439 C448 0.950 . S
H440 C450 0.950 . S
H441 C452 0.950 . S
H442 C454 0.950 . S
H443 C455 0.950 . S
C444 H436 0.950 . S
C444 C445 1.386 . S
C444 C446 1.391 . S
C445 C444 1.386 . S
C445 C449 1.393 . S
C446 H438 0.950 . S
C446 C444 1.391 . S
C446 C447 1.400 . S
C447 C446 1.400 . S
C447 C448 1.398 . S
C447 C453 1.491 1_545 S
C448 H439 0.950 . S
C448 C447 1.398 . S
C448 C449 1.391 . S
C449 H437 0.950 . S
C449 C445 1.393 . S
C449 C448 1.391 . S
C450 H440 0.950 . S
C450 C451 1.386 . S
C450 C452 1.391 . S
C451 C450 1.386 . S
C451 C455 1.393 . S
C452 H441 0.950 . S
C452 C450 1.391 . S
C452 C453 1.400 . S
C453 C447 1.491 1_565 S
C453 C452 1.400 . S
C453 C454 1.398 . S
C454 H442 0.950 . S
C454 C453 1.398 . S
C454 C455 1.391 . S
C455 H443 0.950 . S
C455 C451 1.393 . S
C455 C454 1.391 . S
H456 C464 0.950 . S
H457 C469 0.950 . S
H458 C466 0.950 . S
H459 C468 0.950 . S
H460 C470 0.950 . S
H461 C472 0.950 . S
H462 C474 0.950 . S
H463 C475 0.950 . S
C464 H456 0.950 . S
C464 C465 1.386 . S
C464 C466 1.391 . S
C465 C464 1.386 . S
C465 C469 1.393 . S
C466 H458 0.950 . S
C466 C464 1.391 . S
C466 C467 1.400 . S
C467 C466 1.400 . S
C467 C468 1.398 . S
C467 C473 1.491 . S
C468 H459 0.950 . S
C468 C467 1.398 . S
C468 C469 1.391 . S
C469 H457 0.950 . S
C469 C465 1.393 . S
C469 C468 1.391 . S
C470 H460 0.950 . S
C470 C471 1.386 . S
C470 C472 1.391 . S
C471 C470 1.386 . S
C471 C475 1.393 . S
C472 H461 0.950 . S
C472 C470 1.391 . S
C472 C473 1.400 . S
C473 C467 1.491 . S
C473 C472 1.400 . S
C473 C474 1.398 . S
C474 H462 0.950 . S
C474 C473 1.398 . S
C474 C475 1.391 . S
C475 H463 0.950 . S
C475 C471 1.393 . S
C475 C474 1.391 . S
H476 C484 0.950 . S
H477 C489 0.950 . S
H478 C486 0.950 1_655 S
H479 C488 0.950 . S
H480 C490 0.950 . S
H481 C492 0.950 1_455 S
H482 C494 0.950 . S
H483 C495 0.950 . S
C484 H476 0.950 . S
C484 C485 1.386 . S
C484 C486 1.391 . S
C485 C484 1.386 . S
C485 C489 1.393 . S
C486 H478 0.950 1_455 S
C486 C484 1.391 . S
C486 C487 1.400 . S
C487 C486 1.400 . S
C487 C488 1.398 . S
C487 C493 1.491 1_455 S
C488 H479 0.950 . S
C488 C487 1.398 . S
C488 C489 1.391 . S
C489 H477 0.950 . S
C489 C485 1.393 . S
C489 C488 1.391 . S
C490 H480 0.950 . S
C490 C491 1.386 . S
C490 C492 1.391 . S
C491 C490 1.386 . S
C491 C495 1.393 . S
C492 H481 0.950 1_655 S
C492 C490 1.391 . S
C492 C493 1.400 . S
C493 C487 1.491 1_655 S
C493 C492 1.400 . S
C493 C494 1.398 . S
C494 H482 0.950 . S
C494 C493 1.398 . S
C494 C495 1.391 . S
C495 H483 0.950 . S
C495 C491 1.393 . S
C495 C494 1.391 . S
H496 C504 0.950 1_545 S
H497 C509 0.950 . S
H498 C506 0.950 . S
H499 C508 0.950 . S
H500 C510 0.950 1_565 S
H501 C512 0.950 . S
H502 C514 0.950 . S
H503 C515 0.950 . S
C504 H496 0.950 1_565 S
C504 C505 1.386 . S
C504 C506 1.391 1_565 S
C505 C504 1.386 . S
C505 C509 1.393 . S
C506 H498 0.950 . S
C506 C504 1.391 1_545 S
C506 C507 1.400 1_545 S
C507 C506 1.400 1_565 S
C507 C508 1.398 . S
C507 C513 1.491 1_565 S
C508 H499 0.950 . S
C508 C507 1.398 . S
C508 C509 1.391 . S
C509 H497 0.950 . S
C509 C505 1.393 . S
C509 C508 1.391 . S
C510 H500 0.950 1_545 S
C510 C511 1.386 . S
C510 C512 1.391 1_545 S
C511 C510 1.386 . S
C511 C515 1.393 . S
C512 H501 0.950 . S
C512 C510 1.391 1_565 S
C512 C513 1.400 1_565 S
C513 C507 1.491 1_545 S
C513 C512 1.400 1_545 S
C513 C514 1.398 . S
C514 H502 0.950 . S
C514 C513 1.398 . S
C514 C515 1.391 . S
C515 H503 0.950 . S
C515 C511 1.393 . S
C515 C514 1.391 . S
H516 C524 0.950 . S
H517 C529 0.950 . S
H518 C526 0.950 . S
H519 C528 0.950 . S
H520 C530 0.950 . S
H521 C532 0.950 . S
H522 C534 0.950 . S
H523 C535 0.950 . S
C524 H516 0.950 . S
C524 C525 1.386 . S
C524 C526 1.391 . S
C525 C524 1.386 . S
C525 C529 1.393 . S
C526 H518 0.950 . S
C526 C524 1.391 . S
C526 C527 1.400 . S
C527 C526 1.400 . S
C527 C528 1.398 . S
C527 C533 1.491 1_554 S
C528 H519 0.950 . S
C528 C527 1.398 . S
C528 C529 1.391 . S
C529 H517 0.950 . S
C529 C525 1.393 . S
C529 C528 1.391 . S
C530 H520 0.950 . S
C530 C531 1.386 . S
C530 C532 1.391 . S
C531 C530 1.386 . S
C531 C535 1.393 . S
C532 H521 0.950 . S
C532 C530 1.391 . S
C532 C533 1.400 . S
C533 C527 1.491 1_556 S
C533 C532 1.400 . S
C533 C534 1.398 . S
C534 H522 0.950 . S
C534 C533 1.398 . S
C534 C535 1.391 . S
C535 H523 0.950 . S
C535 C531 1.393 . S
C535 C534 1.391 . S
H536 C544 0.950 . S
H537 C549 0.950 . S
H538 C546 0.950 . S
H539 C548 0.950 . S
H540 C550 0.950 . S
H541 C552 0.950 . S
H542 C554 0.950 . S
H543 C555 0.950 . S
C544 H536 0.950 . S
C544 C545 1.386 . S
C544 C546 1.391 . S
C545 C544 1.386 . S
C545 C549 1.393 . S
C546 H538 0.950 . S
C546 C544 1.391 . S
C546 C547 1.400 . S
C547 C546 1.400 . S
C547 C548 1.398 . S
C547 C553 1.491 . S
C548 H539 0.950 . S
C548 C547 1.398 . S
C548 C549 1.391 . S
C549 H537 0.950 . S
C549 C545 1.393 . S
C549 C548 1.391 . S
C550 H540 0.950 . S
C550 C551 1.386 . S
C550 C552 1.391 . S
C551 C550 1.386 . S
C551 C555 1.393 . S
C552 H541 0.950 . S
C552 C550 1.391 . S
C552 C553 1.400 . S
C553 C547 1.491 . S
C553 C552 1.400 . S
C553 C554 1.398 . S
C554 H542 0.950 . S
C554 C553 1.398 . S
C554 C555 1.391 . S
C555 H543 0.950 . S
C555 C551 1.393 . S
C555 C554 1.391 . S
H556 C564 0.950 . S
H557 C569 0.950 . S
H558 C566 0.950 . S
H559 C568 0.950 . S
H560 C570 0.950 . S
H561 C572 0.950 . S
H562 C574 0.950 . S
H563 C575 0.950 . S
C564 H556 0.950 . S
C564 C565 1.386 . S
C564 C566 1.391 . S
C565 C564 1.386 . S
C565 C569 1.393 . S
C566 H558 0.950 . S
C566 C564 1.391 . S
C566 C567 1.400 . S
C567 C566 1.400 . S
C567 C568 1.398 . S
C567 C573 1.491 . S
C568 H559 0.950 . S
C568 C567 1.398 . S
C568 C569 1.391 . S
C569 H557 0.950 . S
C569 C565 1.393 . S
C569 C568 1.391 . S
C570 H560 0.950 . S
C570 C571 1.386 . S
C570 C572 1.391 . S
C571 C570 1.386 . S
C571 C575 1.393 . S
C572 H561 0.950 . S
C572 C570 1.391 . S
C572 C573 1.400 . S
C573 C567 1.491 . S
C573 C572 1.400 . S
C573 C574 1.398 . S
C574 H562 0.950 . S
C574 C573 1.398 . S
C574 C575 1.391 . S
C575 H563 0.950 . S
C575 C571 1.393 . S
C575 C574 1.391 . S
H576 C584 0.950 . S
H577 C589 0.950 . S
H578 C586 0.950 . S
H579 C588 0.950 . S
H580 C590 0.950 . S
H581 C592 0.950 . S
H582 C594 0.950 . S
H583 C595 0.950 . S
C584 H576 0.950 . S
C584 C585 1.386 . S
C584 C586 1.391 . S
C585 C584 1.386 . S
C585 C589 1.393 . S
C586 H578 0.950 . S
C586 C584 1.391 . S
C586 C587 1.400 . S
C587 C586 1.400 . S
C587 C588 1.398 . S
C587 C593 1.491 1_554 S
C588 H579 0.950 . S
C588 C587 1.398 . S
C588 C589 1.391 . S
C589 H577 0.950 . S
C589 C585 1.393 . S
C589 C588 1.391 . S
C590 H580 0.950 . S
C590 C591 1.386 . S
C590 C592 1.391 . S
C591 C590 1.386 . S
C591 C595 1.393 . S
C592 H581 0.950 . S
C592 C590 1.391 . S
C592 C593 1.400 . S
C593 C587 1.491 1_556 S
C593 C592 1.400 . S
C593 C594 1.398 . S
C594 H582 0.950 . S
C594 C593 1.398 . S
C594 C595 1.391 . S
C595 H583 0.950 . S
C595 C591 1.393 . S
C595 C594 1.391 . S
H596 C604 0.950 . S
H597 C609 0.950 . S
H598 C606 0.950 . S
H599 C608 0.950 . S
H600 C610 0.950 . S
H601 C612 0.950 . S
H602 C614 0.950 . S
H603 C615 0.950 . S
C604 H596 0.950 . S
C604 C605 1.386 . S
C604 C606 1.391 . S
C605 C604 1.386 . S
C605 C609 1.393 . S
C606 H598 0.950 . S
C606 C604 1.391 . S
C606 C607 1.400 . S
C607 C606 1.400 . S
C607 C608 1.398 . S
C607 C613 1.491 . S
C608 H599 0.950 . S
C608 C607 1.398 . S
C608 C609 1.391 . S
C609 H597 0.950 . S
C609 C605 1.393 . S
C609 C608 1.391 . S
C610 H600 0.950 . S
C610 C611 1.386 . S
C610 C612 1.391 . S
C611 C610 1.386 . S
C611 C615 1.393 . S
C612 H601 0.950 . S
C612 C610 1.391 . S
C612 C613 1.400 . S
C613 C607 1.491 . S
C613 C612 1.400 . S
C613 C614 1.398 . S
C614 H602 0.950 . S
C614 C613 1.398 . S
C614 C615 1.391 . S
C615 H603 0.950 . S
C615 C611 1.393 . S
C615 C614 1.391 . S
H616 C624 0.950 . S
H617 C629 0.950 . S
H618 C626 0.950 . S
H619 C628 0.950 . S
H620 C630 0.950 . S
H621 C632 0.950 . S
H622 C634 0.950 . S
H623 C635 0.950 . S
C624 H616 0.950 . S
C624 C625 1.386 . S
C624 C626 1.391 . S
C625 C624 1.386 . S
C625 C629 1.393 . S
C626 H618 0.950 . S
C626 C624 1.391 . S
C626 C627 1.400 . S
C627 C626 1.400 . S
C627 C628 1.398 . S
C627 C633 1.491 . S
C628 H619 0.950 . S
C628 C627 1.398 . S
C628 C629 1.391 . S
C629 H617 0.950 . S
C629 C625 1.393 . S
C629 C628 1.391 . S
C630 H620 0.950 . S
C630 C631 1.386 . S
C630 C632 1.391 . S
C631 C630 1.386 . S
C631 C635 1.393 . S
C632 H621 0.950 . S
C632 C630 1.391 . S
C632 C633 1.400 . S
C633 C627 1.491 . S
C633 C632 1.400 . S
C633 C634 1.398 . S
C634 H622 0.950 . S
C634 C633 1.398 . S
C634 C635 1.391 . S
C635 H623 0.950 . S
C635 C631 1.393 . S
C635 C634 1.391 . S
H636 C644 0.950 . S
H637 C649 0.950 . S
H638 C646 0.950 . S
H639 C648 0.950 . S
H640 C650 0.950 . S
H641 C652 0.950 . S
H642 C654 0.950 . S
H643 C655 0.950 . S
C644 H636 0.950 . S
C644 C645 1.386 . S
C644 C646 1.391 . S
C645 C644 1.386 . S
C645 C649 1.393 . S
C646 H638 0.950 . S
C646 C644 1.391 . S
C646 C647 1.400 . S
C647 C646 1.400 . S
C647 C648 1.398 . S
C647 C653 1.491 . S
C648 H639 0.950 . S
C648 C647 1.398 . S
C648 C649 1.391 . S
C649 H637 0.950 . S
C649 C645 1.393 . S
C649 C648 1.391 . S
C650 H640 0.950 . S
C650 C651 1.386 . S
C650 C652 1.391 . S
C651 C650 1.386 . S
C651 C655 1.393 . S
C652 H641 0.950 . S
C652 C650 1.391 . S
C652 C653 1.400 . S
C653 C647 1.491 . S
C653 C652 1.400 . S
C653 C654 1.398 . S
C654 H642 0.950 . S
C654 C653 1.398 . S
C654 C655 1.391 . S
C655 H643 0.950 . S
C655 C651 1.393 . S
C655 C654 1.391 . S
H656 C664 0.950 . S
H657 C669 0.950 . S
H658 C666 0.950 . S
H659 C668 0.950 1_455 S
H660 C670 0.950 . S
H661 C672 0.950 . S
H662 C674 0.950 1_655 S
H663 C675 0.950 . S
C664 H656 0.950 . S
C664 C665 1.386 . S
C664 C666 1.391 . S
C665 C664 1.386 . S
C665 C669 1.393 . S
C666 H658 0.950 . S
C666 C664 1.391 . S
C666 C667 1.400 . S
C667 C666 1.400 . S
C667 C668 1.398 . S
C667 C673 1.491 1_655 S
C668 H659 0.950 1_655 S
C668 C667 1.398 . S
C668 C669 1.391 . S
C669 H657 0.950 . S
C669 C665 1.393 . S
C669 C668 1.391 . S
C670 H660 0.950 . S
C670 C671 1.386 . S
C670 C672 1.391 . S
C671 C670 1.386 . S
C671 C675 1.393 . S
C672 H661 0.950 . S
C672 C670 1.391 . S
C672 C673 1.400 . S
C673 C667 1.491 1_455 S
C673 C672 1.400 . S
C673 C674 1.398 . S
C674 H662 0.950 1_455 S
C674 C673 1.398 . S
C674 C675 1.391 . S
C675 H663 0.950 . S
C675 C671 1.393 . S
C675 C674 1.391 . S
H676 C684 0.950 . S
H677 C689 0.950 . S
H678 C686 0.950 1_554 S
H679 C688 0.950 1_545 S
H680 C690 0.950 . S
H681 C692 0.950 1_556 S
H682 C694 0.950 1_565 S
H683 C695 0.950 . S
C684 H676 0.950 . S
C684 C685 1.386 . S
C684 C686 1.391 . S
C685 C684 1.386 . S
C685 C689 1.393 . S
C686 H678 0.950 1_556 S
C686 C684 1.391 . S
C686 C687 1.400 . S
C687 C686 1.400 . S
C687 C688 1.398 . S
C687 C693 1.491 1_566 S
C688 H679 0.950 1_565 S
C688 C687 1.398 . S
C688 C689 1.391 . S
C689 H677 0.950 . S
C689 C685 1.393 . S
C689 C688 1.391 . S
C690 H680 0.950 . S
C690 C691 1.386 . S
C690 C692 1.391 . S
C691 C690 1.386 . S
C691 C695 1.393 . S
C692 H681 0.950 1_554 S
C692 C690 1.391 . S
C692 C693 1.400 . S
C693 C687 1.491 1_544 S
C693 C692 1.400 . S
C693 C694 1.398 . S
C694 H682 0.950 1_545 S
C694 C693 1.398 . S
C694 C695 1.391 . S
C695 H683 0.950 . S
C695 C691 1.393 . S
C695 C694 1.391 . S
H696 C704 0.950 . S
H697 C709 0.950 . S
H698 C706 0.950 . S
H699 C708 0.950 . S
H700 C710 0.950 . S
H701 C712 0.950 . S
H702 C714 0.950 . S
H703 C715 0.950 . S
C704 H696 0.950 . S
C704 C705 1.386 . S
C704 C706 1.391 . S
C705 C704 1.386 . S
C705 C709 1.393 . S
C706 H698 0.950 . S
C706 C704 1.391 . S
C706 C707 1.400 . S
C707 C706 1.400 . S
C707 C708 1.398 . S
C707 C713 1.491 . S
C708 H699 0.950 . S
C708 C707 1.398 . S
C708 C709 1.391 . S
C709 H697 0.950 . S
C709 C705 1.393 . S
C709 C708 1.391 . S
C710 H700 0.950 . S
C710 C711 1.386 . S
C710 C712 1.391 . S
C711 C710 1.386 . S
C711 C715 1.393 . S
C712 H701 0.950 . S
C712 C710 1.391 . S
C712 C713 1.400 . S
C713 C707 1.491 . S
C713 C712 1.400 . S
C713 C714 1.398 . S
C714 H702 0.950 . S
C714 C713 1.398 . S
C714 C715 1.391 . S
C715 H703 0.950 . S
C715 C711 1.393 . S
C715 C714 1.391 . S
H716 C724 0.950 . S
H717 C729 0.950 . S
H718 C726 0.950 . S
H719 C728 0.950 . S
H720 C730 0.950 . S
H721 C732 0.950 . S
H722 C734 0.950 . S
H723 C735 0.950 . S
C724 H716 0.950 . S
C724 C725 1.386 . S
C724 C726 1.391 . S
C725 C724 1.386 . S
C725 C729 1.393 . S
C726 H718 0.950 . S
C726 C724 1.391 . S
C726 C727 1.400 . S
C727 C726 1.400 . S
C727 C728 1.398 . S
C727 C733 1.491 1_655 S
C728 H719 0.950 . S
C728 C727 1.398 . S
C728 C729 1.391 . S
C729 H717 0.950 . S
C729 C725 1.393 . S
C729 C728 1.391 . S
C730 H720 0.950 . S
C730 C731 1.386 . S
C730 C732 1.391 . S
C731 C730 1.386 . S
C731 C735 1.393 . S
C732 H721 0.950 . S
C732 C730 1.391 . S
C732 C733 1.400 . S
C733 C727 1.491 1_455 S
C733 C732 1.400 . S
C733 C734 1.398 . S
C734 H722 0.950 . S
C734 C733 1.398 . S
C734 C735 1.391 . S
C735 H723 0.950 . S
C735 C731 1.393 . S
C735 C734 1.391 . S
H736 C744 0.950 . S
H737 C749 0.950 . S
H738 C746 0.950 1_545 S
H739 C748 0.950 1_556 S
H740 C750 0.950 . S
H741 C752 0.950 1_565 S
H742 C754 0.950 1_554 S
H743 C755 0.950 . S
C744 H736 0.950 . S
C744 C745 1.386 . S
C744 C746 1.391 . S
C745 C744 1.386 . S
C745 C749 1.393 . S
C746 H738 0.950 1_565 S
C746 C744 1.391 . S
C746 C747 1.400 . S
C747 C746 1.400 . S
C747 C748 1.398 . S
C747 C753 1.491 1_564 S
C748 H739 0.950 1_554 S
C748 C747 1.398 . S
C748 C749 1.391 . S
C749 H737 0.950 . S
C749 C745 1.393 . S
C749 C748 1.391 . S
C750 H740 0.950 . S
C750 C751 1.386 . S
C750 C752 1.391 . S
C751 C750 1.386 . S
C751 C755 1.393 . S
C752 H741 0.950 1_545 S
C752 C750 1.391 . S
C752 C753 1.400 . S
C753 C747 1.491 1_546 S
C753 C752 1.400 . S
C753 C754 1.398 . S
C754 H742 0.950 1_556 S
C754 C753 1.398 . S
C754 C755 1.391 . S
C755 H743 0.950 . S
C755 C751 1.393 . S
C755 C754 1.391 . S
H756 C764 0.950 . S
H757 C769 0.950 . S
H758 C766 0.950 . S
H759 C768 0.950 . S
H760 C770 0.950 . S
H761 C772 0.950 . S
H762 C774 0.950 . S
H763 C775 0.950 . S
C764 H756 0.950 . S
C764 C765 1.386 . S
C764 C766 1.391 . S
C765 C764 1.386 . S
C765 C769 1.393 . S
C766 H758 0.950 . S
C766 C764 1.391 . S
C766 C767 1.400 . S
C767 C766 1.400 . S
C767 C768 1.398 . S
C767 C773 1.491 . S
C768 H759 0.950 . S
C768 C767 1.398 . S
C768 C769 1.391 . S
C769 H757 0.950 . S
C769 C765 1.393 . S
C769 C768 1.391 . S
C770 H760 0.950 . S
C770 C771 1.386 . S
C770 C772 1.391 . S
C771 C770 1.386 . S
C771 C775 1.393 . S
C772 H761 0.950 . S
C772 C770 1.391 . S
C772 C773 1.400 . S
C773 C767 1.491 . S
C773 C772 1.400 . S
C773 C774 1.398 . S
C774 H762 0.950 . S
C774 C773 1.398 . S
C774 C775 1.391 . S
C775 H763 0.950 . S
C775 C771 1.393 . S
C775 C774 1.391 . S
H776 C784 0.950 . S
H777 C789 0.950 . S
H778 C786 0.950 . S
H779 C788 0.950 . S
H780 C790 0.950 . S
H781 C792 0.950 . S
H782 C794 0.950 . S
H783 C795 0.950 . S
C784 H776 0.950 . S
C784 C785 1.386 . S
C784 C786 1.391 . S
C785 C784 1.386 . S
C785 C789 1.393 . S
C786 H778 0.950 . S
C786 C784 1.391 . S
C786 C787 1.400 . S
C787 C786 1.400 . S
C787 C788 1.398 . S
C787 C793 1.491 . S
C788 H779 0.950 . S
C788 C787 1.398 . S
C788 C789 1.391 . S
C789 H777 0.950 . S
C789 C785 1.393 . S
C789 C788 1.391 . S
C790 H780 0.950 . S
C790 C791 1.386 . S
C790 C792 1.391 . S
C791 C790 1.386 . S
C791 C795 1.393 . S
C792 H781 0.950 . S
C792 C790 1.391 . S
C792 C793 1.400 . S
C793 C787 1.491 . S
C793 C792 1.400 . S
C793 C794 1.398 . S
C794 H782 0.950 . S
C794 C793 1.398 . S
C794 C795 1.391 . S
C795 H783 0.950 . S
C795 C791 1.393 . S
C795 C794 1.391 . S
H796 C804 0.950 1_556 S
H797 C809 0.950 . S
H798 C806 0.950 . S
H799 C808 0.950 . S
H800 C810 0.950 1_554 S
H801 C812 0.950 . S
H802 C814 0.950 . S
H803 C815 0.950 . S
C804 H796 0.950 1_554 S
C804 C805 1.386 . S
C804 C806 1.391 1_554 S
C805 C804 1.386 . S
C805 C809 1.393 . S
C806 H798 0.950 . S
C806 C804 1.391 1_556 S
C806 C807 1.400 1_556 S
C807 C806 1.400 1_554 S
C807 C808 1.398 . S
C807 C813 1.491 1_554 S
C808 H799 0.950 . S
C808 C807 1.398 . S
C808 C809 1.391 . S
C809 H797 0.950 . S
C809 C805 1.393 . S
C809 C808 1.391 . S
C810 H800 0.950 1_556 S
C810 C811 1.386 . S
C810 C812 1.391 1_556 S
C811 C810 1.386 . S
C811 C815 1.393 . S
C812 H801 0.950 . S
C812 C810 1.391 1_554 S
C812 C813 1.400 1_554 S
C813 C807 1.491 1_556 S
C813 C812 1.400 1_556 S
C813 C814 1.398 . S
C814 H802 0.950 . S
C814 C813 1.398 . S
C814 C815 1.391 . S
C815 H803 0.950 . S
C815 C811 1.393 . S
C815 C814 1.391 . S
H816 C824 0.950 . S
H817 C829 0.950 . S
H818 C826 0.950 . S
H819 C828 0.950 . S
H820 C830 0.950 . S
H821 C832 0.950 . S
H822 C834 0.950 . S
H823 C835 0.950 . S
C824 H816 0.950 . S
C824 C825 1.386 . S
C824 C826 1.391 . S
C825 C824 1.386 . S
C825 C829 1.393 . S
C826 H818 0.950 . S
C826 C824 1.391 . S
C826 C827 1.400 . S
C827 C826 1.400 . S
C827 C828 1.398 . S
C827 C833 1.491 . S
C828 H819 0.950 . S
C828 C827 1.398 . S
C828 C829 1.391 . S
C829 H817 0.950 . S
C829 C825 1.393 . S
C829 C828 1.391 . S
C830 H820 0.950 . S
C830 C831 1.386 . S
C830 C832 1.391 . S
C831 C830 1.386 . S
C831 C835 1.393 . S
C832 H821 0.950 . S
C832 C830 1.391 . S
C832 C833 1.400 . S
C833 C827 1.491 . S
C833 C832 1.400 . S
C833 C834 1.398 . S
C834 H822 0.950 . S
C834 C833 1.398 . S
C834 C835 1.391 . S
C835 H823 0.950 . S
C835 C831 1.393 . S
C835 C834 1.391 . S
H836 C844 0.950 . S
H837 C849 0.950 . S
H838 C846 0.950 . S
H839 C848 0.950 . S
H840 C850 0.950 . S
H841 C852 0.950 . S
H842 C854 0.950 . S
H843 C855 0.950 . S
C844 H836 0.950 . S
C844 C845 1.386 . S
C844 C846 1.391 . S
C845 C844 1.386 . S
C845 C849 1.393 . S
C846 H838 0.950 . S
C846 C844 1.391 . S
C846 C847 1.400 . S
C847 C846 1.400 . S
C847 C848 1.398 . S
C847 C853 1.491 . S
C848 H839 0.950 . S
C848 C847 1.398 . S
C848 C849 1.391 . S
C849 H837 0.950 . S
C849 C845 1.393 . S
C849 C848 1.391 . S
C850 H840 0.950 . S
C850 C851 1.386 . S
C850 C852 1.391 . S
C851 C850 1.386 . S
C851 C855 1.393 . S
C852 H841 0.950 . S
C852 C850 1.391 . S
C852 C853 1.400 . S
C853 C847 1.491 . S
C853 C852 1.400 . S
C853 C854 1.398 . S
C854 H842 0.950 . S
C854 C853 1.398 . S
C854 C855 1.391 . S
C855 H843 0.950 . S
C855 C851 1.393 . S
C855 C854 1.391 . S
H856 C864 0.950 . S
H857 C869 0.950 1_554 S
H858 C866 0.950 . S
H859 C868 0.950 . S
H860 C870 0.950 . S
H861 C872 0.950 . S
H862 C874 0.950 . S
H863 C875 0.950 1_556 S
C864 H856 0.950 . S
C864 C865 1.386 . S
C864 C866 1.391 . S
C865 C864 1.386 . S
C865 C869 1.393 . S
C866 H858 0.950 . S
C866 C864 1.391 . S
C866 C867 1.400 . S
C867 C866 1.400 . S
C867 C868 1.398 1_556 S
C867 C873 1.491 1_556 S
C868 H859 0.950 . S
C868 C867 1.398 1_554 S
C868 C869 1.391 1_554 S
C869 H857 0.950 1_556 S
C869 C865 1.393 . S
C869 C868 1.391 1_556 S
C870 H860 0.950 . S
C870 C871 1.386 . S
C870 C872 1.391 . S
C871 C870 1.386 . S
C871 C875 1.393 . S
C872 H861 0.950 . S
C872 C870 1.391 . S
C872 C873 1.400 . S
C873 C867 1.491 1_554 S
C873 C872 1.400 . S
C873 C874 1.398 1_554 S
C874 H862 0.950 . S
C874 C873 1.398 1_556 S
C874 C875 1.391 1_556 S
C875 H863 0.950 1_554 S
C875 C871 1.393 . S
C875 C874 1.391 1_554 S
H876 C884 0.950 . S
H877 C889 0.950 . S
H878 C886 0.950 . S
H879 C888 0.950 . S
H880 C890 0.950 . S
H881 C892 0.950 . S
H882 C894 0.950 . S
H883 C895 0.950 . S
C884 H876 0.950 . S
C884 C885 1.386 . S
C884 C886 1.391 . S
C885 C884 1.386 . S
C885 C889 1.393 . S
C886 H878 0.950 . S
C886 C884 1.391 . S
C886 C887 1.400 . S
C887 C886 1.400 . S
C887 C888 1.398 . S
C887 C893 1.491 . S
C888 H879 0.950 . S
C888 C887 1.398 . S
C888 C889 1.391 . S
C889 H877 0.950 . S
C889 C885 1.393 . S
C889 C888 1.391 . S
C890 H880 0.950 . S
C890 C891 1.386 . S
C890 C892 1.391 . S
C891 C890 1.386 . S
C891 C895 1.393 . S
C892 H881 0.950 . S
C892 C890 1.391 . S
C892 C893 1.400 . S
C893 C887 1.491 . S
C893 C892 1.400 . S
C893 C894 1.398 . S
C894 H882 0.950 . S
C894 C893 1.398 . S
C894 C895 1.391 . S
C895 H883 0.950 . S
C895 C891 1.393 . S
C895 C894 1.391 . S
H896 C904 0.950 . S
H897 C909 0.950 . S
H898 C906 0.950 . S
H899 C908 0.950 . S
H900 C910 0.950 . S
H901 C912 0.950 . S
H902 C914 0.950 . S
H903 C915 0.950 . S
C904 H896 0.950 . S
C904 C905 1.386 . S
C904 C906 1.391 . S
C905 C904 1.386 . S
C905 C909 1.393 . S
C906 H898 0.950 . S
C906 C904 1.391 . S
C906 C907 1.400 . S
C907 C906 1.400 . S
C907 C908 1.398 . S
C907 C913 1.491 . S
C908 H899 0.950 . S
C908 C907 1.398 . S
C908 C909 1.391 . S
C909 H897 0.950 . S
C909 C905 1.393 . S
C909 C908 1.391 . S
C910 H900 0.950 . S
C910 C911 1.386 . S
C910 C912 1.391 . S
C911 C910 1.386 . S
C911 C915 1.393 . S
C912 H901 0.950 . S
C912 C910 1.391 . S
C912 C913 1.400 . S
C913 C907 1.491 . S
C913 C912 1.400 . S
C913 C914 1.398 . S
C914 H902 0.950 . S
C914 C913 1.398 . S
C914 C915 1.391 . S
C915 H903 0.950 . S
C915 C911 1.393 . S
C915 C914 1.391 . S
H916 C924 0.950 . S
H917 C929 0.950 . S
H918 C926 0.950 . S
H919 C928 0.950 . S
H920 C930 0.950 . S
H921 C932 0.950 . S
H922 C934 0.950 . S
H923 C935 0.950 . S
C924 H916 0.950 . S
C924 C925 1.386 . S
C924 C926 1.391 . S
C925 C924 1.386 . S
C925 C929 1.393 . S
C926 H918 0.950 . S
C926 C924 1.391 . S
C926 C927 1.400 . S
C927 C926 1.400 . S
C927 C928 1.398 . S
C927 C933 1.491 . S
C928 H919 0.950 . S
C928 C927 1.398 . S
C928 C929 1.391 . S
C929 H917 0.950 . S
C929 C925 1.393 . S
C929 C928 1.391 . S
C930 H920 0.950 . S
C930 C931 1.386 . S
C930 C932 1.391 . S
C931 C930 1.386 . S
C931 C935 1.393 . S
C932 H921 0.950 . S
C932 C930 1.391 . S
C932 C933 1.400 . S
C933 C927 1.491 . S
C933 C932 1.400 . S
C933 C934 1.398 . S
C934 H922 0.950 . S
C934 C933 1.398 . S
C934 C935 1.391 . S
C935 H923 0.950 . S
C935 C931 1.393 . S
C935 C934 1.391 . S
H936 C944 0.950 . S
H937 C949 0.950 . S
H938 C946 0.950 . S
H939 C948 0.950 . S
H940 C950 0.950 . S
H941 C952 0.950 . S
H942 C954 0.950 . S
H943 C955 0.950 . S
C944 H936 0.950 . S
C944 C945 1.386 . S
C944 C946 1.391 . S
C945 C944 1.386 . S
C945 C949 1.393 . S
C946 H938 0.950 . S
C946 C944 1.391 . S
C946 C947 1.400 . S
C947 C946 1.400 . S
C947 C948 1.398 . S
C947 C953 1.491 . S
C948 H939 0.950 . S
C948 C947 1.398 . S
C948 C949 1.391 . S
C949 H937 0.950 . S
C949 C945 1.393 . S
C949 C948 1.391 . S
C950 H940 0.950 . S
C950 C951 1.386 . S
C950 C952 1.391 . S
C951 C950 1.386 . S
C951 C955 1.393 . S
C952 H941 0.950 . S
C952 C950 1.391 . S
C952 C953 1.400 . S
C953 C947 1.491 . S
C953 C952 1.400 . S
C953 C954 1.398 . S
C954 H942 0.950 . S
C954 C953 1.398 . S
C954 C955 1.391 . S
C955 H943 0.950 . S
C955 C951 1.393 . S
C955 C954 1.391 . S
H956 C964 0.950 . S
H957 C969 0.950 . S
H958 C966 0.950 . S
H959 C968 0.950 . S
H960 C970 0.950 . S
H961 C972 0.950 . S
H962 C974 0.950 . S
H963 C975 0.950 . S
C964 H956 0.950 . S
C964 C965 1.386 . S
C964 C966 1.391 . S
C965 C964 1.386 . S
C965 C969 1.393 . S
C966 H958 0.950 . S
C966 C964 1.391 . S
C966 C967 1.400 . S
C967 C966 1.400 . S
C967 C968 1.398 . S
C967 C973 1.491 . S
C968 H959 0.950 . S
C968 C967 1.398 . S
C968 C969 1.391 . S
C969 H957 0.950 . S
C969 C965 1.393 . S
C969 C968 1.391 . S
C970 H960 0.950 . S
C970 C971 1.386 . S
C970 C972 1.391 . S
C971 C970 1.386 . S
C971 C975 1.393 . S
C972 H961 0.950 . S
C972 C970 1.391 . S
C972 C973 1.400 . S
C973 C967 1.491 . S
C973 C972 1.400 . S
C973 C974 1.398 . S
C974 H962 0.950 . S
C974 C973 1.398 . S
C974 C975 1.391 . S
C975 H963 0.950 . S
C975 C971 1.393 . S
C975 C974 1.391 . S
H976 C984 0.950 . S
H977 C989 0.950 . S
H978 C986 0.950 . S
H979 C988 0.950 . S
H980 C990 0.950 . S
H981 C992 0.950 . S
H982 C994 0.950 . S
H983 C995 0.950 . S
C984 H976 0.950 . S
C984 C985 1.386 . S
C984 C986 1.391 . S
C985 C984 1.386 . S
C985 C989 1.393 . S
C986 H978 0.950 . S
C986 C984 1.391 . S
C986 C987 1.400 . S
C987 C986 1.400 . S
C987 C988 1.398 . S
C987 C993 1.491 . S
C988 H979 0.950 . S
C988 C987 1.398 . S
C988 C989 1.391 . S
C989 H977 0.950 . S
C989 C985 1.393 . S
C989 C988 1.391 . S
C990 H980 0.950 . S
C990 C991 1.386 . S
C990 C992 1.391 . S
C991 C990 1.386 . S
C991 C995 1.393 . S
C992 H981 0.950 . S
C992 C990 1.391 . S
C992 C993 1.400 . S
C993 C987 1.491 . S
C993 C992 1.400 . S
C993 C994 1.398 . S
C994 H982 0.950 . S
C994 C993 1.398 . S
C994 C995 1.391 . S
C995 H983 0.950 . S
C995 C991 1.393 . S
C995 C994 1.391 . S
C405 C120 0.297 . S
C411 C21 0.352 . S
C425 C54 0.298 . S
C431 C153 0.356 . S
C445 C186 0.310 . S
C451 C87 0.313 . S
C465 C219 0.298 . S
C471 C318 0.335 . S
C485 C351 0.325 . S
C491 C252 0.302 . S
C505 C285 0.370 . S
C511 C384 0.305 . S
C525 N13 2.008 . S
C531 N343 2.007 . S
C545 N376 2.023 . S
C551 N46 2.023 . S
C565 N79 2.023 . S
C571 N211 2.023 . S
C585 N112 2.012 . S
C591 N244 2.014 . S
C605 N145 2.007 . S
C611 N277 2.007 . S
C625 N178 2.023 . S
C631 N310 2.023 . S
C645 C304 1.719 . S
C651 C7 1.716 . S
C665 C40 1.735 . S
C671 C337 1.703 . S
C685 C73 1.739 . S
C691 C370 1.704 . S
C705 C205 1.736 . S
C711 C106 1.707 . S
C725 C238 1.713 . S
C731 C139 1.723 . S
C745 C271 1.703 . S
C751 C172 1.739 . S
C765 N2 1.041 . S
C771 N200 1.018 . S
C785 N35 1.053 . S
C791 N233 1.031 . S
C805 N266 1.011 . S
C811 N68 1.003 . S
C825 N101 1.003 . S
C831 N299 1.010 . S
C845 N332 1.003 . S
C851 N134 1.014 . S
C865 N167 1.005 . S
C871 N365 1.022 . S
C885 C282 1.318 . S
C891 C18 1.296 . S
C905 C315 1.315 . S
C911 C51 1.302 . S
C925 C348 1.298 . S
C931 C84 1.313 . S
C945 C117 1.300 . S
C951 C381 1.310 . S
C965 C216 1.307 . S
C971 C150 1.303 . S
C985 C249 1.302 . S
C991 C183 1.308 . S
