# Generated by pormake.
# Topology etd, (3)-cn, num edge types: 1
# Building blocks:
#     Node 0, Type 0, BuildingBlock: WUSLED_clean_sbu_0, # of connection points: 3
#     Node 1, Type 0, BuildingBlock: WUSLED_clean_sbu_0, # of connection points: 3
#     Node 2, Type 0, BuildingBlock: WUSLED_clean_sbu_0, # of connection points: 3
#     Node 3, Type 0, BuildingBlock: WUSLED_clean_sbu_0, # of connection points: 3
#     Node 4, Type 0, BuildingBlock: WUSLED_clean_sbu_0, # of connection points: 3
#     Node 5, Type 0, BuildingBlock: WUSLED_clean_sbu_0, # of connection points: 3
#     Node 6, Type 0, BuildingBlock: WUSLED_clean_sbu_0, # of connection points: 3
#     Node 7, Type 0, BuildingBlock: WUSLED_clean_sbu_0, # of connection points: 3
#     Node 8, Type 0, BuildingBlock: WUSLED_clean_sbu_0, # of connection points: 3
#     Node 9, Type 0, BuildingBlock: WUSLED_clean_sbu_0, # of connection points: 3
#     Node 10, Type 0, BuildingBlock: WUSLED_clean_sbu_0, # of connection points: 3
#     Node 11, Type 0, BuildingBlock: WUSLED_clean_sbu_0, # of connection points: 3
#     Edge 12, Type (0, 0), BuildingBlock: ZUJKAS_clean_linker_0, # of connection points: 2
#     Edge 13, Type (0, 0), BuildingBlock: ZUJKAS_clean_linker_0, # of connection points: 2
#     Edge 14, Type (0, 0), BuildingBlock: ZUJKAS_clean_linker_0, # of connection points: 2
#     Edge 15, Type (0, 0), BuildingBlock: ZUJKAS_clean_linker_0, # of connection points: 2
#     Edge 16, Type (0, 0), BuildingBlock: ZUJKAS_clean_linker_0, # of connection points: 2
#     Edge 17, Type (0, 0), BuildingBlock: ZUJKAS_clean_linker_0, # of connection points: 2
#     Edge 18, Type (0, 0), BuildingBlock: ZUJKAS_clean_linker_0, # of connection points: 2
#     Edge 19, Type (0, 0), BuildingBlock: ZUJKAS_clean_linker_0, # of connection points: 2
#     Edge 20, Type (0, 0), BuildingBlock: ZUJKAS_clean_linker_0, # of connection points: 2
#     Edge 21, Type (0, 0), BuildingBlock: ZUJKAS_clean_linker_0, # of connection points: 2
#     Edge 22, Type (0, 0), BuildingBlock: ZUJKAS_clean_linker_0, # of connection points: 2
#     Edge 23, Type (0, 0), BuildingBlock: ZUJKAS_clean_linker_0, # of connection points: 2
#     Edge 24, Type (0, 0), BuildingBlock: ZUJKAS_clean_linker_0, # of connection points: 2
#     Edge 25, Type (0, 0), BuildingBlock: ZUJKAS_clean_linker_0, # of connection points: 2
#     Edge 26, Type (0, 0), BuildingBlock: ZUJKAS_clean_linker_0, # of connection points: 2
#     Edge 27, Type (0, 0), BuildingBlock: ZUJKAS_clean_linker_0, # of connection points: 2
#     Edge 28, Type (0, 0), BuildingBlock: ZUJKAS_clean_linker_0, # of connection points: 2
#     Edge 29, Type (0, 0), BuildingBlock: ZUJKAS_clean_linker_0, # of connection points: 2
# Relax obj value: 0.000
# Max RMSD: 0.003
# Mean RMSD: 0.003
data_MOF--net-etd--node1-WUSLED_clean_sbu_0--edge1-ZUJKAS_clean_linker_0
_symmetry_space_group_name_H-M    P1
_symmetry_Int_Tables_number       1
_symmetry_cell_setting            triclinic
loop_
_symmetry_equiv_pos_as_xyz
'x, y, z'
_cell_length_a     108.18256
_cell_length_b     108.20733
_cell_length_c     77.762186
_cell_angle_alpha  89.984845
_cell_angle_beta   89.970976
_cell_angle_gamma 119.89625
loop_
_atom_site_label
_atom_site_type_symbol
_atom_site_fract_x
_atom_site_fract_y
_atom_site_fract_z
_atom_type_partial_charge
C0 C 0.50433 0.16336 0.09964 0.0
C1 C 0.50617 0.17084 0.11505 0.0
C2 C 0.50537 0.19004 0.09943 0.0
C3 C 0.50664 0.18403 0.11495 0.0
C4 C 0.50372 0.18252 0.08402 0.0
C5 C 0.50318 0.16933 0.08415 0.0
U6 U 0.51306 0.13581 0.11852 0.0
O7 O 0.49984 0.11248 0.12059 0.0
O8 O 0.51953 0.12189 0.10535 0.0
C9 C 0.50786 0.11016 0.10985 0.0
C10 C 0.50358 0.14935 0.09938 0.0
C11 C 0.50053 0.09939 0.0961 0.0
C12 C 0.47889 0.0806 0.08269 0.0
C13 C 0.48556 0.09155 0.09484 0.0
C14 C 0.50197 0.08521 0.07263 0.0
C15 C 0.48701 0.07721 0.07151 0.0
C16 C 0.50862 0.0961 0.08481 0.0
C17 C 0.53577 0.1459 0.16013 0.0
C18 C 0.53856 0.13024 0.18029 0.0
C19 C 0.5548 0.15571 0.18133 0.0
C20 C 0.54757 0.15761 0.16762 0.0
C21 C 0.55038 0.14201 0.18791 0.0
C22 C 0.53134 0.13216 0.16647 0.0
C23 C 0.52817 0.14849 0.14608 0.0
O24 O 0.51567 0.14963 0.09638 0.0
O25 O 0.49602 0.1404 0.11167 0.0
O26 O 0.51418 0.14074 0.14612 0.0
O27 O 0.53377 0.15017 0.13066 0.0
H28 H 0.50714 0.16645 0.12716 0.0
H29 H 0.50777 0.1894 0.12709 0.0
H30 H 0.50298 0.18689 0.07179 0.0
H31 H 0.50187 0.16377 0.07211 0.0
H32 H 0.46736 0.07477 0.08207 0.0
H33 H 0.47896 0.09371 0.10339 0.0
H34 H 0.50857 0.08278 0.06443 0.0
H35 H 0.52016 0.10179 0.08562 0.0
H36 H 0.53496 0.11953 0.18492 0.0
H37 H 0.56369 0.16504 0.18702 0.0
H38 H 0.55112 0.16831 0.16296 0.0
H39 H 0.52228 0.12295 0.16083 0.0
C40 C 0.35622 0.4944 0.26654 0.0
C41 C 0.35387 0.5024 0.27899 0.0
C42 C 0.33056 0.49539 0.26649 0.0
C43 C 0.34116 0.50291 0.27895 0.0
C44 C 0.33304 0.4874 0.25407 0.0
C45 C 0.34574 0.48693 0.25411 0.0
U46 U 0.39265 0.50366 0.28523 0.0
O47 O 0.4029 0.49055 0.28754 0.0
O48 O 0.41297 0.51005 0.27196 0.0
C49 C 0.41317 0.49848 0.2767 0.0
C50 C 0.36952 0.49377 0.26625 0.0
C51 C 0.41667 0.49103 0.26313 0.0
C52 C 0.41398 0.46929 0.25014 0.0
C53 C 0.4096 0.47606 0.26206 0.0
C54 C 0.43242 0.49228 0.23991 0.0
C55 C 0.42553 0.47731 0.239 0.0
C56 C 0.42809 0.49903 0.25186 0.0
C57 C 0.40544 0.52659 0.32652 0.0
C58 C 0.42427 0.52947 0.34608 0.0
C59 C 0.41472 0.54547 0.34793 0.0
C60 C 0.40544 0.53826 0.33434 0.0
C61 C 0.42423 0.54115 0.35404 0.0
C62 C 0.41498 0.52228 0.3324 0.0
C63 C 0.39512 0.51898 0.31262 0.0
O64 O 0.38123 0.50589 0.26311 0.0
O65 O 0.37104 0.48644 0.27872 0.0
O66 O 0.38889 0.50499 0.3128 0.0
O67 O 0.39894 0.52446 0.29714 0.0
H68 H 0.36184 0.50823 0.28873 0.0
H69 H 0.33956 0.50903 0.28882 0.0
H70 H 0.32525 0.48166 0.24413 0.0
H71 H 0.34739 0.48075 0.24436 0.0
H72 H 0.40832 0.45775 0.24968 0.0
H73 H 0.40081 0.46953 0.2706 0.0
H74 H 0.44148 0.49881 0.23173 0.0
H75 H 0.43389 0.51057 0.25254 0.0
H76 H 0.43155 0.52596 0.35034 0.0
H77 H 0.41424 0.55426 0.35388 0.0
H78 H 0.39812 0.54171 0.33004 0.0
H79 H 0.4152 0.51332 0.32649 0.0
C80 C 0.88023 0.34869 0.4337 0.0
C81 C 0.87051 0.3455 0.44724 0.0
C82 C 0.85327 0.32352 0.43282 0.0
C83 C 0.85716 0.33302 0.44681 0.0
C84 C 0.86309 0.32687 0.41928 0.0
C85 C 0.87642 0.33931 0.41973 0.0
U86 U 0.90811 0.38379 0.45437 0.0
O87 O 0.93132 0.39279 0.45718 0.0
O88 O 0.92301 0.4044 0.44249 0.0
C89 C 0.93436 0.4038 0.44731 0.0
C90 C 0.89441 0.36165 0.43397 0.0
C91 C 0.94549 0.40734 0.43415 0.0
C92 C 0.95307 0.40779 0.40453 0.0
C93 C 0.94216 0.40361 0.41677 0.0
C94 C 0.97073 0.4192 0.42693 0.0
C95 C 0.96751 0.41571 0.40945 0.0
C96 C 0.95985 0.41507 0.4391 0.0
C97 C 0.89856 0.39544 0.49697 0.0
C98 C 0.91063 0.41914 0.50971 0.0
C99 C 0.89363 0.39893 0.52653 0.0
C100 C 0.89131 0.38994 0.51251 0.0
C101 C 0.90326 0.41366 0.5253 0.0
C102 C 0.90834 0.4101 0.49568 0.0
C103 C 0.89542 0.38568 0.48229 0.0
O104 O 0.89454 0.37375 0.43172 0.0
O105 O 0.903 0.36226 0.4463 0.0
O106 O 0.90257 0.3788 0.48176 0.0
O107 O 0.89423 0.39043 0.46717 0.0
H108 H 0.87327 0.35264 0.45812 0.0
H109 H 0.84983 0.3309 0.45737 0.0
H110 H 0.86058 0.31974 0.40843 0.0
H111 H 0.8838 0.34158 0.40919 0.0
H112 H 0.95019 0.40478 0.39123 0.0
H113 H 0.93114 0.39758 0.41265 0.0
H114 H 0.98168 0.42544 0.43118 0.0
H115 H 0.96266 0.4181 0.45242 0.0
H116 H 0.91824 0.4304 0.50838 0.0
H117 H 0.88761 0.39436 0.53822 0.0
H118 H 0.88368 0.37867 0.51375 0.0
H119 H 0.91412 0.41456 0.48381 0.0
C120 C 0.54957 0.87173 0.59975 0.0
C121 C 0.53987 0.86047 0.61021 0.0
C122 C 0.54852 0.84507 0.59896 0.0
C123 C 0.53932 0.84724 0.60978 0.0
C124 C 0.55822 0.85645 0.58855 0.0
C125 C 0.55873 0.86962 0.58895 0.0
U126 U 0.54097 0.89889 0.61996 0.0
O127 O 0.55464 0.92215 0.62305 0.0
O128 O 0.53498 0.91351 0.60782 0.0
C129 C 0.54672 0.92498 0.61278 0.0
C130 C 0.55038 0.88574 0.59999 0.0
C131 C 0.55441 0.93614 0.59963 0.0
C132 C 0.55983 0.944 0.56982 0.0
C133 C 0.55313 0.93302 0.58195 0.0
C134 C 0.56946 0.96132 0.59283 0.0
C135 C 0.568 0.95831 0.5751 0.0
C136 C 0.56271 0.95036 0.60492 0.0
C137 C 0.51866 0.88818 0.66183 0.0
C138 C 0.51417 0.90392 0.67986 0.0
C139 C 0.50273 0.87871 0.68639 0.0
C140 C 0.50947 0.87666 0.67223 0.0
C141 C 0.50506 0.89238 0.6905 0.0
C142 C 0.52093 0.90184 0.66564 0.0
C143 C 0.52588 0.88562 0.64735 0.0
O144 O 0.53833 0.88563 0.59728 0.0
O145 O 0.55794 0.89431 0.61254 0.0
O146 O 0.53988 0.89315 0.64728 0.0
O147 O 0.52023 0.88454 0.63208 0.0
H148 H 0.53276 0.86192 0.61872 0.0
H149 H 0.53183 0.83878 0.6181 0.0
H150 H 0.56533 0.85512 0.57991 0.0
H151 H 0.56627 0.87818 0.58077 0.0
H152 H 0.55862 0.94128 0.55629 0.0
H153 H 0.54684 0.92212 0.5775 0.0
H154 H 0.57551 0.9722 0.59738 0.0
H155 H 0.56379 0.95304 0.61847 0.0
H156 H 0.5163 0.9146 0.6827 0.0
H157 H 0.49559 0.86953 0.69405 0.0
H158 H 0.50753 0.86603 0.66944 0.0
H159 H 0.52801 0.91088 0.65774 0.0
C160 C 0.69415 0.53842 0.76696 0.0
C161 C 0.70049 0.538 0.78255 0.0
C162 C 0.71965 0.53711 0.767 0.0
C163 C 0.71315 0.53742 0.78257 0.0
C164 C 0.71315 0.53737 0.75143 0.0
C165 C 0.70056 0.53804 0.75143 0.0
U166 U 0.65821 0.53087 0.78585 0.0
O167 O 0.64843 0.54446 0.78695 0.0
O168 O 0.63777 0.52425 0.77276 0.0
C169 C 0.63784 0.53609 0.77673 0.0
C170 C 0.68099 0.53935 0.76652 0.0
C171 C 0.63414 0.54296 0.76271 0.0
C172 C 0.63902 0.56357 0.74511 0.0
C173 C 0.6434 0.55709 0.75746 0.0
C174 C 0.61625 0.54184 0.74279 0.0
C175 C 0.62534 0.55605 0.73771 0.0
C176 C 0.62059 0.53541 0.75515 0.0
C177 C 0.64518 0.50966 0.82855 0.0
C178 C 0.63387 0.51085 0.85517 0.0
C179 C 0.62925 0.48798 0.84432 0.0
C180 C 0.63824 0.49476 0.83032 0.0
C181 C 0.62705 0.49594 0.85702 0.0
C182 C 0.64283 0.51764 0.8411 0.0
C183 C 0.65555 0.51661 0.81432 0.0
O184 O 0.66909 0.52725 0.76407 0.0
O185 O 0.67982 0.54742 0.77831 0.0
O186 O 0.66225 0.53062 0.81355 0.0
O187 O 0.65168 0.51054 0.79913 0.0
H188 H 0.69567 0.53816 0.79471 0.0
H189 H 0.71778 0.53706 0.79478 0.0
H190 H 0.71793 0.53732 0.73922 0.0
H191 H 0.69585 0.53836 0.73926 0.0
H192 H 0.64635 0.57447 0.74137 0.0
H193 H 0.65393 0.56319 0.76304 0.0
H194 H 0.60558 0.53578 0.73758 0.0
H195 H 0.61321 0.52456 0.75909 0.0
H196 H 0.63231 0.51729 0.86462 0.0
H197 H 0.62435 0.47651 0.84544 0.0
H198 H 0.64 0.48834 0.82101 0.0
H199 H 0.64806 0.52914 0.84022 0.0
C200 C 0.17237 0.68543 0.93144 0.0
C201 C 0.18141 0.68936 0.9458 0.0
C202 C 0.19909 0.71091 0.931 0.0
C203 C 0.19463 0.702 0.9456 0.0
C204 C 0.18994 0.70685 0.91665 0.0
C205 C 0.17674 0.69425 0.9169 0.0
U206 U 0.14485 0.65001 0.95177 0.0
O207 O 0.12151 0.63998 0.95348 0.0
O208 O 0.13106 0.62909 0.93968 0.0
C209 C 0.11928 0.62913 0.94371 0.0
C210 C 0.15842 0.6722 0.93137 0.0
C211 C 0.10847 0.62496 0.92992 0.0
C212 C 0.09281 0.6295 0.91173 0.0
C213 C 0.10391 0.63425 0.92377 0.0
C214 C 0.09095 0.60627 0.91145 0.0
C215 C 0.08605 0.61538 0.90557 0.0
C216 C 0.10198 0.611 0.9235 0.0
C217 C 0.15424 0.63922 0.9951 0.0
C218 C 0.14136 0.61583 1.00856 0.0
C219 C 0.16028 0.63563 0.02407 0.0
C220 C 0.1625 0.64455 1.01 0.0
C221 C 0.14973 0.62113 0.02353 0.0
C222 C 0.14358 0.62481 0.99447 0.0
C223 C 0.15724 0.64886 0.98034 0.0
O224 O 0.15885 0.66034 0.9295 0.0
O225 O 0.14934 0.67126 0.94325 0.0
O226 O 0.14949 0.65508 0.97928 0.0
O227 O 0.15908 0.64428 0.96543 0.0
H228 H 0.17824 0.68265 0.95714 0.0
H229 H 0.20145 0.70469 0.95679 0.0
H230 H 0.1929 0.71352 0.90529 0.0
H231 H 0.16989 0.6914 0.9057 0.0
H232 H 0.08927 0.63679 0.90761 0.0
H233 H 0.10871 0.64508 0.9285 0.0
H234 H 0.08623 0.59543 0.90678 0.0
H235 H 0.10531 0.60364 0.92803 0.0
H236 H 0.13304 0.60477 1.00777 0.0
H237 H 0.16707 0.64004 0.03523 0.0
H238 H 0.17082 0.65563 1.0107 0.0
H239 H 0.13705 0.62051 0.98308 0.0
C240 C 0.88071 0.53964 0.7611 0.0
C241 C 0.87275 0.53691 0.74592 0.0
C242 C 0.85407 0.53867 0.76152 0.0
C243 C 0.85957 0.53645 0.74612 0.0
C244 C 0.86208 0.54126 0.7767 0.0
C245 C 0.87526 0.54175 0.77647 0.0
U246 U 0.90841 0.53174 0.74098 0.0
O247 O 0.93175 0.54502 0.73945 0.0
O248 O 0.92216 0.5246 0.75324 0.0
C249 C 0.93395 0.53641 0.74928 0.0
C250 C 0.89467 0.54031 0.76121 0.0
C251 C 0.94463 0.54303 0.7632 0.0
C252 C 0.95957 0.56297 0.78205 0.0
C253 C 0.94868 0.55664 0.76975 0.0
C254 C 0.96226 0.54206 0.78174 0.0
C255 C 0.96656 0.55579 0.78813 0.0
C256 C 0.95145 0.53579 0.76941 0.0
C257 C 0.89931 0.51155 0.69769 0.0
C258 C 0.9116 0.50012 0.68491 0.0
C259 C 0.89384 0.50242 0.66847 0.0
C260 C 0.89164 0.50928 0.68239 0.0
C261 C 0.90378 0.49766 0.66957 0.0
C262 C 0.90941 0.50704 0.69884 0.0
C263 C 0.89621 0.51823 0.71235 0.0
O264 O 0.89427 0.52805 0.76313 0.0
O265 O 0.90382 0.54846 0.7494 0.0
O266 O 0.90393 0.53218 0.71339 0.0
O267 O 0.89426 0.51183 0.72729 0.0
H268 H 0.87676 0.5352 0.73391 0.0
H269 H 0.8538 0.53458 0.73414 0.0
H270 H 0.85812 0.54276 0.78886 0.0
H271 H 0.8812 0.54378 0.78835 0.0
H272 H 0.9625 0.57348 0.78683 0.0
H273 H 0.94358 0.56247 0.76523 0.0
H274 H 0.96751 0.53629 0.78593 0.0
H275 H 0.94858 0.52533 0.76448 0.0
H276 H 0.91945 0.49674 0.68614 0.0
H277 H 0.88748 0.50053 0.65699 0.0
H278 H 0.88376 0.51264 0.68128 0.0
H279 H 0.91549 0.50876 0.71054 0.0
C280 C 0.35751 0.87163 0.92632 0.0
C281 C 0.35675 0.86002 0.91734 0.0
C282 C 0.33216 0.84478 0.92691 0.0
C283 C 0.34421 0.84671 0.91766 0.0
C284 C 0.33299 0.85655 0.93571 0.0
C285 C 0.34553 0.8698 0.93542 0.0
U286 U 0.39376 0.89902 0.90743 0.0
O287 O 0.40337 0.92231 0.90449 0.0
O288 O 0.41394 0.91354 0.92039 0.0
C289 C 0.4138 0.92505 0.91525 0.0
C290 C 0.37064 0.88569 0.92641 0.0
C291 C 0.41704 0.93626 0.9283 0.0
C292 C 0.42134 0.9448 0.95792 0.0
C293 C 0.41692 0.93363 0.94604 0.0
C294 C 0.42568 0.9613 0.93461 0.0
C295 C 0.42598 0.95884 0.95234 0.0
C296 C 0.42131 0.95016 0.92276 0.0
C297 C 0.40707 0.88885 0.86656 0.0
C298 C 0.42539 0.9048 0.84649 0.0
C299 C 0.41698 0.87946 0.84566 0.0
C300 C 0.40766 0.87732 0.85926 0.0
C301 C 0.42592 0.89321 0.83902 0.0
C302 C 0.41608 0.90265 0.86018 0.0
C303 C 0.39667 0.88606 0.88043 0.0
O304 O 0.38253 0.88565 0.9298 0.0
O305 O 0.37196 0.89428 0.91371 0.0
O306 O 0.39007 0.89348 0.87999 0.0
O307 O 0.40061 0.88475 0.896 0.0
H308 H 0.36588 0.86122 0.91019 0.0
H309 H 0.34404 0.8379 0.91087 0.0
H310 H 0.32389 0.85557 0.9427 0.0
H311 H 0.34587 0.87866 0.94234 0.0
H312 H 0.42154 0.9425 0.97143 0.0
H313 H 0.41371 0.92303 0.95073 0.0
H314 H 0.4289 0.97188 0.92983 0.0
H315 H 0.42151 0.95247 0.90917 0.0
H316 H 0.43224 0.91554 0.84181 0.0
H317 H 0.41694 0.87026 0.84009 0.0
H318 H 0.40076 0.86659 0.86395 0.0
H319 H 0.41585 0.91172 0.86569 0.0
C320 C 0.50422 0.34924 0.09503 0.0
C321 C 0.506 0.34352 0.07963 0.0
C322 C 0.50574 0.32387 0.09539 0.0
C323 C 0.5067 0.33093 0.0798 0.0
C324 C 0.50417 0.32979 0.1108 0.0
C325 C 0.50339 0.34232 0.11059 0.0
U326 U 0.51133 0.38457 0.07505 0.0
O327 O 0.49715 0.39366 0.07252 0.0
O328 O 0.51706 0.4051 0.0872 0.0
C329 C 0.50509 0.40453 0.0826 0.0
C330 C 0.50301 0.36224 0.09512 0.0
C331 C 0.49745 0.40802 0.09585 0.0
C332 C 0.4938 0.4128 0.12551 0.0
C333 C 0.50043 0.40832 0.1135 0.0
C334 C 0.48087 0.4164 0.10251 0.0
C335 C 0.48406 0.41708 0.12015 0.0
C336 C 0.48751 0.41197 0.09054 0.0
C337 C 0.53249 0.39633 0.03236 0.0
C338 C 0.54372 0.41997 0.01946 0.0
C339 C 0.54168 0.39997 1.00315 0.0
C340 C 0.53488 0.39095 0.01711 0.0
C341 C 0.54627 0.41462 1.00415 0.0
C342 C 0.53686 0.4109 0.03343 0.0
C343 C 0.52583 0.38656 0.04702 0.0
O344 O 0.51496 0.3743 0.09748 0.0
O345 O 0.49494 0.36305 0.08304 0.0
O346 O 0.51183 0.37979 0.04759 0.0
O347 O 0.53179 0.39125 0.06213 0.0
H348 H 0.50678 0.34875 0.06747 0.0
H349 H 0.50809 0.32677 0.06774 0.0
H350 H 0.50325 0.32457 0.123 0.0
H351 H 0.50201 0.34655 0.12262 0.0
H352 H 0.49662 0.41329 0.13895 0.0
H353 H 0.50807 0.40535 0.118 0.0
H354 H 0.47324 0.41934 0.0979 0.0
H355 H 0.48503 0.41184 0.07701 0.0
H356 H 0.54698 0.43116 0.02061 0.0
H357 H 0.54363 0.3955 0.99171 0.0
H358 H 0.53164 0.37975 0.01605 0.0
H359 H 0.53506 0.41525 0.04509 0.0
C360 C 0.1705 0.4947 0.2603 0.0
C361 C 0.18229 0.50579 0.25183 0.0
C362 C 0.19711 0.49563 0.26021 0.0
C363 C 0.19549 0.50628 0.25185 0.0
C364 C 0.18521 0.48449 0.26853 0.0
C365 C 0.17206 0.48406 0.26859 0.0
U366 U 0.14293 0.5035 0.24165 0.0
O367 O 0.1196 0.49023 0.2398 0.0
O368 O 0.12904 0.51004 0.25479 0.0
C369 C 0.11729 0.49849 0.25012 0.0
C370 C 0.15654 0.49406 0.26074 0.0
C371 C 0.10636 0.49135 0.2636 0.0
C372 C 0.09348 0.47224 0.28433 0.0
C373 C 0.10453 0.47917 0.2723 0.0
C374 C 0.08616 0.48975 0.27932 0.0
C375 C 0.08404 0.47736 0.28785 0.0
C376 C 0.09717 0.49663 0.26735 0.0
C377 C 0.15203 0.52557 0.19959 0.0
C378 C 0.13905 0.52498 0.17368 0.0
C379 C 0.1589 0.54733 0.18338 0.0
C380 C 0.16089 0.54032 0.19731 0.0
C381 C 0.14805 0.53973 0.17128 0.0
C382 C 0.14099 0.51797 0.18769 0.0
C383 C 0.15514 0.51829 0.21371 0.0
O384 O 0.15684 0.50618 0.26363 0.0
O385 O 0.14751 0.48642 0.24858 0.0
O386 O 0.14775 0.50428 0.21406 0.0
O387 O 0.15711 0.52408 0.22906 0.0
H388 H 0.18129 0.51408 0.24524 0.0
H389 H 0.20438 0.51491 0.24514 0.0
H390 H 0.1861 0.47621 0.27526 0.0
H391 H 0.1631 0.47542 0.27521 0.0
H392 H 0.09212 0.46269 0.29055 0.0
H393 H 0.11151 0.4749 0.26963 0.0
H394 H 0.07932 0.49418 0.28193 0.0
H395 H 0.09842 0.50604 0.26083 0.0
H396 H 0.13049 0.51883 0.16471 0.0
H397 H 0.16615 0.55865 0.18181 0.0
H398 H 0.16958 0.54641 0.20615 0.0
H399 H 0.13397 0.50659 0.18902 0.0
C400 C 0.69449 0.16314 0.42819 0.0
C401 C 0.69584 0.17426 0.4176 0.0
C402 C 0.71995 0.1899 0.4284 0.0
C403 C 0.70844 0.18752 0.41772 0.0
C404 C 0.71854 0.17861 0.43881 0.0
C405 C 0.70595 0.1654 0.4387 0.0
U406 U 0.65861 0.13529 0.40898 0.0
O407 O 0.6486 0.11194 0.40783 0.0
O408 O 0.63795 0.12166 0.42177 0.0
C409 C 0.63791 0.10983 0.41782 0.0
C410 C 0.68123 0.14919 0.42861 0.0
C411 C 0.63395 0.09918 0.43176 0.0
C412 C 0.63909 0.08429 0.4506 0.0
C413 C 0.64361 0.09529 0.43843 0.0
C414 C 0.61535 0.08119 0.44993 0.0
C415 C 0.62484 0.07696 0.45634 0.0
C416 C 0.61985 0.09213 0.43777 0.0
C417 C 0.6468 0.14372 0.3655 0.0
C418 C 0.62434 0.13981 0.35337 0.0
C419 C 0.64315 0.14207 0.33449 0.0
C420 C 0.65173 0.14383 0.34877 0.0
C421 C 0.62942 0.14027 0.33656 0.0
C422 C 0.63293 0.14152 0.36768 0.0
C423 C 0.65669 0.14698 0.38019 0.0
O424 O 0.66938 0.1496 0.43079 0.0
O425 O 0.6801 0.13997 0.41684 0.0
O426 O 0.66314 0.13943 0.38128 0.0
O427 O 0.65261 0.14928 0.39521 0.0
H428 H 0.68712 0.17272 0.40935 0.0
H429 H 0.70906 0.19597 0.40966 0.0
H430 H 0.72723 0.17993 0.44696 0.0
H431 H 0.70514 0.15692 0.44689 0.0
H432 H 0.64668 0.08128 0.45514 0.0
H433 H 0.65456 0.10054 0.43402 0.0
H434 H 0.60438 0.07601 0.45426 0.0
H435 H 0.61221 0.09495 0.43283 0.0
H436 H 0.6139 0.13859 0.35548 0.0
H437 H 0.64734 0.14223 0.32179 0.0
H438 H 0.66238 0.14555 0.3467 0.0
H439 H 0.62881 0.14143 0.38039 0.0
C440 C 0.54882 0.68552 0.59297 0.0
C441 C 0.53934 0.68711 0.58213 0.0
C442 C 0.548 0.71125 0.59293 0.0
C443 C 0.5389 0.69985 0.58214 0.0
C444 C 0.55753 0.70957 0.60367 0.0
C445 C 0.55792 0.69684 0.60369 0.0
U446 U 0.54031 0.64949 0.57373 0.0
O447 O 0.55345 0.63924 0.57233 0.0
O448 O 0.53319 0.6288 0.58648 0.0
C449 C 0.54487 0.6286 0.58237 0.0
C450 C 0.54933 0.67215 0.59338 0.0
C451 C 0.55157 0.62453 0.59618 0.0
C452 C 0.57154 0.62955 0.61504 0.0
C453 C 0.56504 0.63416 0.60299 0.0
C454 C 0.55105 0.60576 0.61398 0.0
C455 C 0.5647 0.61523 0.62051 0.0
C456 C 0.5446 0.61036 0.60195 0.0
C457 C 0.51987 0.63787 0.53046 0.0
C458 C 0.50184 0.61506 0.51862 0.0
C459 C 0.51718 0.63429 0.49947 0.0
C460 C 0.52406 0.64297 0.51365 0.0
C461 C 0.50583 0.62028 0.50174 0.0
C462 C 0.50878 0.62375 0.53283 0.0
C463 C 0.52663 0.64776 0.54509 0.0
O464 O 0.53704 0.66041 0.59563 0.0
O465 O 0.55729 0.67087 0.58153 0.0
O466 O 0.5406 0.65406 0.54605 0.0
O467 O 0.52032 0.64374 0.56016 0.0
H468 H 0.53227 0.67851 0.57368 0.0
H469 H 0.53155 0.70083 0.57356 0.0
H470 H 0.56456 0.71804 0.61229 0.0
H471 H 0.56529 0.6958 0.61217 0.0
H472 H 0.58209 0.63712 0.61968 0.0
H473 H 0.57067 0.64516 0.59877 0.0
H474 H 0.54532 0.59475 0.61812 0.0
H475 H 0.5342 0.60275 0.59691 0.0
H476 H 0.49306 0.60439 0.5209 0.0
H477 H 0.52074 0.63861 0.4867 0.0
H478 H 0.53256 0.65381 0.51146 0.0
H479 H 0.50526 0.61949 0.54563 0.0
H480 H 0.57917 0.15557 0.19381 0.0
H481 H 0.59157 0.15386 0.21916 0.0
H482 H 0.55139 0.12277 0.24129 0.0
H483 H 0.53886 0.12447 0.21597 0.0
H484 H 0.5879 0.16 0.25294 0.0
H485 H 0.57589 0.10391 0.24717 0.0
H486 H 0.57351 0.11339 0.22954 0.0
H487 H 0.56061 0.10629 0.24661 0.0
C488 C 0.57294 0.14835 0.20405 0.0
C489 C 0.55799 0.14019 0.20284 0.0
C490 C 0.58007 0.14734 0.21851 0.0
C491 C 0.57244 0.13809 0.23207 0.0
C492 C 0.55754 0.12976 0.23084 0.0
H493 H 0.60046 0.12331 0.33183 0.0
H494 H 0.58626 0.12277 0.30698 0.0
C495 C 0.55038 0.13076 0.21634 0.0
C496 C 0.5801 0.13777 0.24781 0.0
H497 H 0.58774 0.11629 0.27251 0.0
C498 C 0.58788 0.15045 0.25719 0.0
C499 C 0.57998 0.12528 0.25345 0.0
C500 C 0.57216 0.11146 0.24362 0.0
C501 C 0.59552 0.15097 0.27204 0.0
C502 C 0.59564 0.13855 0.27751 0.0
C503 C 0.58767 0.12581 0.2683 0.0
C504 C 0.60425 0.13871 0.29251 0.0
C505 C 0.60322 0.1648 0.28189 0.0
C506 C 0.61911 0.14767 0.29255 0.0
C507 C 0.62723 0.1481 0.30676 0.0
C508 C 0.6207 0.13946 0.32125 0.0
C509 C 0.60583 0.13027 0.32103 0.0
C510 C 0.5977 0.12986 0.30678 0.0
H511 H 0.59877 0.17189 0.27906 0.0
H512 H 0.60261 0.16286 0.29597 0.0
H513 H 0.61462 0.17052 0.27807 0.0
H514 H 0.62445 0.1544 0.28156 0.0
H515 H 0.63861 0.15543 0.30649 0.0
H516 H 0.49843 0.62878 0.47212 0.0
H517 H 0.48547 0.61425 0.44732 0.0
H518 H 0.48207 0.57703 0.47205 0.0
H519 H 0.49527 0.59153 0.49688 0.0
H520 H 0.49243 0.5974 0.42575 0.0
H521 H 0.44051 0.56474 0.45902 0.0
H522 H 0.45463 0.58111 0.46796 0.0
H523 H 0.45565 0.56507 0.46902 0.0
C524 C 0.49508 0.61753 0.47227 0.0
C525 C 0.49794 0.61136 0.48657 0.0
C526 C 0.48759 0.60922 0.45809 0.0
C527 C 0.48265 0.59453 0.4579 0.0
C528 C 0.48554 0.5883 0.47205 0.0
H529 H 0.43086 0.52958 0.38152 0.0
H530 H 0.44587 0.54209 0.40635 0.0
C531 C 0.49309 0.59662 0.48625 0.0
C532 C 0.4746 0.58583 0.44278 0.0
H533 H 0.44189 0.55905 0.43004 0.0
C534 C 0.48139 0.589 0.42669 0.0
C535 C 0.46021 0.57482 0.44404 0.0
C536 C 0.45223 0.57125 0.46089 0.0
C537 C 0.47418 0.58148 0.41181 0.0
C538 C 0.4597 0.57068 0.41299 0.0
C539 C 0.45298 0.56732 0.42915 0.0
C540 C 0.45115 0.56313 0.39754 0.0
C541 C 0.4822 0.58508 0.395 0.0
C542 C 0.44909 0.57078 0.38435 0.0
C543 C 0.44058 0.56367 0.37013 0.0
C544 C 0.43386 0.54873 0.3688 0.0
C545 C 0.43602 0.5411 0.382 0.0
C546 C 0.44452 0.54822 0.39626 0.0
H547 H 0.49391 0.59034 0.39707 0.0
H548 H 0.47881 0.57538 0.38706 0.0
H549 H 0.47999 0.59255 0.38766 0.0
H550 H 0.45387 0.58225 0.38518 0.0
H551 H 0.43926 0.56991 0.36016 0.0
H552 H 0.9047 0.50347 0.63509 0.0
H553 H 0.90596 0.48959 0.61099 0.0
H554 H 0.90864 0.46046 0.64658 0.0
H555 H 0.90699 0.47405 0.67077 0.0
H556 H 0.9269 0.48225 0.60217 0.0
H557 H 0.87454 0.43427 0.61593 0.0
H558 H 0.87994 0.4514 0.62555 0.0
H559 H 0.88681 0.44046 0.63366 0.0
C560 C 0.90548 0.49407 0.63781 0.0
C561 C 0.9056 0.48981 0.6549 0.0
C562 C 0.90629 0.4862 0.62401 0.0
C563 C 0.90716 0.47386 0.62697 0.0
C564 C 0.90773 0.46981 0.64398 0.0
H565 H 0.90544 0.40884 0.5595 0.0
H566 H 0.90731 0.42386 0.58398 0.0
C567 C 0.90694 0.47769 0.65781 0.0
C568 C 0.90726 0.46515 0.61224 0.0
H569 H 0.88832 0.43228 0.59366 0.0
C570 C 0.91847 0.47133 0.60028 0.0
C571 C 0.89624 0.4509 0.60979 0.0
C572 C 0.88362 0.44386 0.62181 0.0
C573 C 0.91906 0.46358 0.58608 0.0
C574 C 0.90799 0.44935 0.58358 0.0
C575 C 0.89682 0.44317 0.59559 0.0
C576 C 0.90765 0.44067 0.56855 0.0
C577 C 0.93168 0.47062 0.57408 0.0
C578 C 0.9072 0.44508 0.55168 0.0
C579 C 0.90611 0.43649 0.53763 0.0
C580 C 0.9053 0.42322 0.54016 0.0
C581 C 0.90588 0.41891 0.55707 0.0
C582 C 0.90701 0.42751 0.57109 0.0
H583 H 0.94096 0.47978 0.58031 0.0
H584 H 0.93495 0.46293 0.56963 0.0
H585 H 0.92871 0.47471 0.56264 0.0
H586 H 0.90733 0.45501 0.54938 0.0
H587 H 0.90546 0.44005 0.52482 0.0
H588 H 0.5012 0.88002 0.72226 0.0
H589 H 0.48864 0.88238 0.74703 0.0
H590 H 0.48094 0.9122 0.71884 0.0
H591 H 0.4931 0.90953 0.69372 0.0
H592 H 0.4941 0.90618 0.76629 0.0
H593 H 0.44097 0.88267 0.73492 0.0
H594 H 0.45555 0.88125 0.72577 0.0
H595 H 0.45511 0.89758 0.72382 0.0
C596 C 0.49671 0.88698 0.72122 0.0
C597 C 0.49803 0.89445 0.70588 0.0
C598 C 0.48962 0.8884 0.73547 0.0
C599 C 0.48363 0.89729 0.73473 0.0
C600 C 0.48523 0.90507 0.71961 0.0
H601 H 0.43133 0.91041 0.81077 0.0
H602 H 0.44621 0.91285 0.78579 0.0
C603 C 0.49233 0.90365 0.70532 0.0
C604 C 0.47571 0.89829 0.74982 0.0
H605 H 0.44271 0.8912 0.76324 0.0
C606 C 0.48287 0.90295 0.76561 0.0
C607 C 0.46106 0.8941 0.74893 0.0
C608 C 0.45265 0.8885 0.73251 0.0
C609 C 0.47579 0.90347 0.78051 0.0
C610 C 0.46108 0.899 0.7797 0.0
C611 C 0.45399 0.89464 0.76384 0.0
C612 C 0.45269 0.89814 0.79528 0.0
C613 C 0.48415 0.90889 0.79699 0.0
C614 C 0.45135 0.88905 0.80891 0.0
C615 C 0.44291 0.88767 0.82321 0.0
C616 C 0.43553 0.8953 0.82418 0.0
C617 C 0.437 0.90451 0.81056 0.0
C618 C 0.44543 0.90586 0.79622 0.0
H619 H 0.49575 0.91566 0.79446 0.0
H620 H 0.48048 0.91517 0.80456 0.0
H621 H 0.48257 0.89969 0.80492 0.0
H622 H 0.45664 0.8828 0.80835 0.0
H623 H 0.44212 0.88057 0.83351 0.0
H624 H 0.54037 0.40947 0.96975 0.0
H625 H 0.55399 0.42451 0.94549 0.0
H626 H 0.58294 0.45673 0.9807 0.0
H627 H 0.56963 0.44156 1.00506 0.0
H628 H 0.56054 0.45216 0.93623 0.0
H629 H 0.60965 0.44971 0.95008 0.0
H630 H 0.59273 0.43783 0.96007 0.0
H631 H 0.60333 0.45583 0.96765 0.0
C632 C 0.54969 0.41972 0.97236 0.0
C633 C 0.55398 0.42423 0.98939 0.0
C634 C 0.55741 0.42835 0.95846 0.0
C635 C 0.56963 0.44165 0.96126 0.0
C636 C 0.5737 0.44639 0.97822 0.0
H637 H 0.63228 0.50451 0.89071 0.0
H638 H 0.61799 0.49209 0.91602 0.0
C639 C 0.56598 0.43777 0.99214 0.0
C640 C 0.57813 0.45043 0.94639 0.0
H641 H 0.61092 0.4648 0.92735 0.0
C642 C 0.57156 0.45492 0.93428 0.0
C643 C 0.59251 0.45404 0.94385 0.0
C644 C 0.59997 0.44902 0.95599 0.0
C645 C 0.57899 0.46301 0.9198 0.0
C646 C 0.59333 0.46651 0.91719 0.0
C647 C 0.59994 0.46214 0.92938 0.0
C648 C 0.60157 0.47438 0.9017 0.0
C649 C 0.57151 0.46791 0.90754 0.0
C650 C 0.59712 0.46854 0.88522 0.0
C651 C 0.60525 0.47563 0.87071 0.0
C652 C 0.61803 0.48871 0.87237 0.0
C653 C 0.6224 0.49458 0.88891 0.0
C654 C 0.61429 0.48745 0.90342 0.0
H655 H 0.56215 0.46777 0.91366 0.0
H656 H 0.57887 0.47886 0.90279 0.0
H657 H 0.56764 0.46064 0.89629 0.0
H658 H 0.58748 0.45835 0.88359 0.0
H659 H 0.60152 0.47085 0.85818 0.0
H660 H 0.15028 0.62708 0.0579 0.0
H661 H 0.14869 0.61212 0.08233 0.0
H662 H 0.14261 0.57852 0.04756 0.0
H663 H 0.14465 0.59359 0.023 0.0
H664 H 0.12701 0.58534 0.09272 0.0
H665 H 0.17634 0.58391 0.07679 0.0
H666 H 0.17194 0.59628 0.0668 0.0
H667 H 0.1634 0.57804 0.05979 0.0
C668 C 0.14871 0.61655 0.05542 0.0
C669 C 0.14775 0.61162 0.03844 0.0
C670 C 0.1477 0.60797 0.06942 0.0
C671 C 0.14578 0.59429 0.06679 0.0
C672 C 0.14437 0.58914 0.0499 0.0
H673 H 0.14296 0.53042 0.13787 0.0
H674 H 0.14134 0.543 0.11255 0.0
C675 C 0.14537 0.59772 0.03587 0.0
C676 C 0.14537 0.58551 0.08175 0.0
H677 H 0.16266 0.56966 0.10014 0.0
C678 C 0.1348 0.58191 0.09435 0.0
C679 C 0.15555 0.58104 0.08388 0.0
C680 C 0.16754 0.5851 0.07119 0.0
C681 C 0.13408 0.57388 0.10893 0.0
C682 C 0.14432 0.56951 0.11111 0.0
C683 C 0.15479 0.57298 0.09843 0.0
C684 C 0.14459 0.56162 0.12664 0.0
C685 C 0.12224 0.56998 0.12178 0.0
C686 C 0.14701 0.56792 0.14298 0.0
C687 C 0.14791 0.56074 0.15749 0.0
C688 C 0.14645 0.54712 0.15596 0.0
C689 C 0.14393 0.5408 0.13956 0.0
C690 C 0.14309 0.54801 0.12505 0.0
H691 H 0.11325 0.5708 0.11611 0.0
H692 H 0.1181 0.55896 0.12667 0.0
H693 H 0.12642 0.57739 0.13287 0.0
H694 H 0.14844 0.5785 0.14449 0.0
H695 H 0.14977 0.56588 0.16992 0.0
H696 H 0.48947 0.19792 0.07951 0.0
H697 H 0.49034 0.2209 0.07873 0.0
H698 H 0.52215 0.23662 0.11873 0.0
H699 H 0.52185 0.21389 0.11905 0.0
H700 H 0.48429 0.23462 0.10354 0.0
H701 H 0.54071 0.26808 0.08349 0.0
H702 H 0.53154 0.24887 0.08261 0.0
H703 H 0.53854 0.25798 0.10267 0.0
C704 C 0.49685 0.20632 0.08796 0.0
C705 C 0.50569 0.20402 0.09924 0.0
C706 C 0.49724 0.21944 0.08759 0.0
C707 C 0.50649 0.23061 0.09845 0.0
C708 C 0.51516 0.2283 0.10994 0.0
H709 H 0.52 0.31582 0.11787 0.0
H710 H 0.52003 0.2932 0.11869 0.0
C711 C 0.51482 0.21519 0.11027 0.0
C712 C 0.50675 0.24451 0.09802 0.0
H713 H 0.52857 0.28034 0.0919 0.0
C714 C 0.49397 0.2446 0.10091 0.0
C715 C 0.51937 0.25757 0.09459 0.0
C716 C 0.53329 0.25816 0.0905 0.0
C717 C 0.4935 0.25736 0.1007 0.0
C718 C 0.50612 0.27039 0.09734 0.0
C719 C 0.51891 0.27034 0.09451 0.0
C720 C 0.50622 0.28417 0.09663 0.0
C721 C 0.47955 0.25683 0.10438 0.0
C722 C 0.49862 0.2867 0.0838 0.0
C723 C 0.49859 0.29962 0.08328 0.0
C724 C 0.50615 0.31029 0.09561 0.0
C725 C 0.51391 0.30778 0.10832 0.0
C726 C 0.514 0.29488 0.10875 0.0
H727 H 0.47169 0.24661 0.11049 0.0
H728 H 0.48122 0.26575 0.11294 0.0
H729 H 0.47493 0.25792 0.09213 0.0
H730 H 0.4927 0.27866 0.07417 0.0
H731 H 0.49242 0.30114 0.0734 0.0
H732 H 0.22374 0.51884 0.26508 0.0
H733 H 0.2467 0.51946 0.2657 0.0
H734 H 0.2252 0.47413 0.25677 0.0
H735 H 0.20228 0.47346 0.25579 0.0
H736 H 0.25523 0.50424 0.28812 0.0
H737 H 0.25667 0.49028 0.21976 0.0
H738 H 0.24486 0.49636 0.22749 0.0
H739 H 0.24056 0.47822 0.23095 0.0
C740 C 0.22391 0.50903 0.26303 0.0
C741 C 0.21115 0.49611 0.26033 0.0
C742 C 0.23704 0.50939 0.2635 0.0
C743 C 0.2377 0.49687 0.26108 0.0
C744 C 0.22499 0.48396 0.25841 0.0
H745 H 0.30347 0.47343 0.2603 0.0
H746 H 0.28132 0.47429 0.25937 0.0
C747 C 0.21187 0.48358 0.25802 0.0
C748 C 0.25161 0.49721 0.26178 0.0
H749 H 0.27408 0.49018 0.23824 0.0
C750 C 0.25941 0.50127 0.27719 0.0
C751 C 0.25704 0.4933 0.24752 0.0
C752 C 0.24943 0.48941 0.23043 0.0
C753 C 0.27231 0.50115 0.27886 0.0
C754 C 0.2777 0.49714 0.26462 0.0
C755 C 0.26994 0.49322 0.24917 0.0
C756 C 0.29125 0.49673 0.26551 0.0
C757 C 0.27981 0.50489 0.29602 0.0
C758 C 0.30426 0.50908 0.26914 0.0
C759 C 0.31698 0.50864 0.26965 0.0
C760 C 0.31699 0.49584 0.26637 0.0
C761 C 0.30392 0.4835 0.26269 0.0
C762 C 0.29122 0.48396 0.26222 0.0
H763 H 0.27254 0.50404 0.30663 0.0
H764 H 0.28426 0.49784 0.29899 0.0
H765 H 0.28875 0.51605 0.29562 0.0
H766 H 0.30462 0.51914 0.27133 0.0
H767 H 0.32686 0.5184 0.27224 0.0
H768 H 0.83888 0.30519 0.45944 0.0
H769 H 0.816 0.28293 0.45836 0.0
H770 H 0.81269 0.28917 0.40418 0.0
H771 H 0.83547 0.31149 0.40514 0.0
H772 H 0.78885 0.27787 0.4483 0.0
H773 H 0.80735 0.24895 0.40609 0.0
H774 H 0.81954 0.26533 0.41688 0.0
H775 H 0.8105 0.26573 0.39768 0.0
C776 C 0.83324 0.30191 0.44731 0.0
C777 C 0.83912 0.31013 0.43235 0.0
C778 C 0.82018 0.28913 0.4467 0.0
C779 C 0.81274 0.28424 0.43113 0.0
C780 C 0.8184 0.29254 0.41626 0.0
H781 H 0.73381 0.208 0.40137 0.0
H782 H 0.75578 0.23114 0.40216 0.0
C783 C 0.83145 0.30532 0.41684 0.0
C784 C 0.799 0.27051 0.43048 0.0
H785 H 0.78262 0.2374 0.41214 0.0
C786 C 0.78749 0.269 0.44044 0.0
C787 C 0.79722 0.25895 0.42018 0.0
C788 C 0.80933 0.25971 0.4097 0.0
C789 C 0.77421 0.25634 0.44018 0.0
C790 C 0.77245 0.24474 0.42995 0.0
C791 C 0.78395 0.24628 0.41995 0.0
C792 C 0.75885 0.23085 0.42962 0.0
C793 C 0.7621 0.25564 0.45058 0.0
C794 C 0.75328 0.22289 0.44475 0.0
C795 C 0.74065 0.20971 0.44437 0.0
C796 C 0.73333 0.20408 0.4288 0.0
C797 C 0.739 0.21206 0.41363 0.0
C798 C 0.75163 0.22526 0.41404 0.0
H799 H 0.76386 0.26645 0.45354 0.0
H800 H 0.75179 0.24955 0.4437 0.0
H801 H 0.76129 0.25019 0.46297 0.0
H802 H 0.75878 0.2268 0.45688 0.0
H803 H 0.73657 0.20397 0.45634 0.0
H804 H 0.57051 0.73862 0.59414 0.0
H805 H 0.56977 0.76085 0.59519 0.0
H806 H 0.52387 0.73699 0.59264 0.0
H807 H 0.52449 0.71467 0.59197 0.0
H808 H 0.55777 0.77152 0.57094 0.0
H809 H 0.53187 0.76288 0.63497 0.0
H810 H 0.53998 0.75273 0.62764 0.0
H811 H 0.52273 0.74863 0.6198 0.0
C812 C 0.56024 0.73807 0.59397 0.0
C813 C 0.54755 0.72482 0.59308 0.0
C814 C 0.55984 0.7508 0.59447 0.0
C815 C 0.54676 0.75058 0.59423 0.0
C816 C 0.53408 0.73741 0.59311 0.0
H817 H 0.52498 0.81821 0.59921 0.0
H818 H 0.52435 0.79529 0.59773 0.0
C819 C 0.53446 0.72466 0.59255 0.0
C820 C 0.54646 0.76417 0.59491 0.0
H821 H 0.53549 0.78318 0.61937 0.0
C822 C 0.55292 0.77408 0.58154 0.0
C823 C 0.54006 0.76748 0.6087 0.0
C824 C 0.53336 0.75745 0.62369 0.0
C825 C 0.55306 0.78715 0.5815 0.0
C826 C 0.54685 0.79057 0.59543 0.0
C827 C 0.54026 0.78059 0.60872 0.0
C828 C 0.54727 0.80451 0.59655 0.0
C829 C 0.55962 0.79705 0.56636 0.0
C830 C 0.56035 0.81734 0.59674 0.0
C831 C 0.56074 0.83045 0.5976 0.0
C832 C 0.54805 0.83105 0.59847 0.0
C833 C 0.53496 0.81816 0.59868 0.0
C834 C 0.53458 0.80504 0.59775 0.0
H835 H 0.56006 0.79125 0.55479 0.0
H836 H 0.55355 0.80252 0.56312 0.0
H837 H 0.57071 0.80527 0.56962 0.0
H838 H 0.5703 0.81723 0.59632 0.0
H839 H 0.57102 0.84014 0.59777 0.0
H840 H 0.72689 0.52113 0.74639 0.0
H841 H 0.74939 0.52088 0.74582 0.0
H842 H 0.76575 0.55207 0.78651 0.0
H843 H 0.74325 0.55228 0.78725 0.0
H844 H 0.77616 0.54222 0.73885 0.0
H845 H 0.77451 0.52243 0.80503 0.0
H846 H 0.75919 0.52185 0.795 0.0
H847 H 0.77291 0.53815 0.80439 0.0
C848 C 0.73528 0.52793 0.75523 0.0
C849 C 0.73323 0.53668 0.76693 0.0
C850 C 0.74813 0.52775 0.75493 0.0
C851 C 0.75922 0.53628 0.76631 0.0
C852 C 0.75724 0.5451 0.77792 0.0
H853 H 0.84675 0.55573 0.77998 0.0
H854 H 0.82375 0.55488 0.78081 0.0
C855 C 0.74436 0.54523 0.7783 0.0
C856 C 0.773 0.5363 0.76561 0.0
H857 H 0.79648 0.53128 0.78993 0.0
C858 C 0.78055 0.53973 0.75 0.0
C859 C 0.77875 0.53304 0.78014 0.0
C860 C 0.77086 0.52852 0.79704 0.0
C861 C 0.79378 0.54029 0.74861 0.0
C862 C 0.79959 0.53719 0.76319 0.0
C863 C 0.79204 0.53371 0.77878 0.0
C864 C 0.81353 0.53761 0.76256 0.0
C865 C 0.80162 0.54453 0.73167 0.0
C866 C 0.81541 0.52807 0.75214 0.0
C867 C 0.82854 0.52843 0.75174 0.0
C868 C 0.84007 0.53832 0.76179 0.0
C869 C 0.83809 0.54783 0.77225 0.0
C870 C 0.82496 0.54742 0.77268 0.0
H871 H 0.79736 0.54966 0.72296 0.0
H872 H 0.81318 0.55198 0.73369 0.0
H873 H 0.80043 0.53487 0.72516 0.0
H874 H 0.80666 0.52022 0.74446 0.0
H875 H 0.82955 0.52078 0.74377 0.0
H876 H 0.2119 0.73047 0.95694 0.0
H877 H 0.23472 0.75284 0.95607 0.0
H878 H 0.24095 0.7443 0.9036 0.0
H879 H 0.21824 0.72191 0.90437 0.0
H880 H 0.2623 0.75778 0.94946 0.0
H881 H 0.24613 0.78434 0.90052 0.0
H882 H 0.2334 0.76838 0.91167 0.0
H883 H 0.24357 0.76729 0.89404 0.0
C884 C 0.21817 0.73329 0.94524 0.0
C885 C 0.21315 0.7244 0.93068 0.0
C886 C 0.23119 0.74612 0.94475 0.0
C887 C 0.23944 0.75039 0.92968 0.0
C888 C 0.23461 0.74142 0.91524 0.0
H889 H 0.3198 0.82528 0.90075 0.0
H890 H 0.29783 0.80215 0.90172 0.0
C891 C 0.2216 0.7286 0.91571 0.0
C892 C 0.25316 0.76414 0.92912 0.0
H893 H 0.27051 0.79629 0.90847 0.0
C894 C 0.26408 0.76623 0.94055 0.0
C895 C 0.25551 0.77514 0.91744 0.0
C896 C 0.24401 0.77378 0.90531 0.0
C897 C 0.27735 0.77891 0.94043 0.0
C898 C 0.27968 0.78994 0.9288 0.0
C899 C 0.26876 0.78783 0.91735 0.0
C900 C 0.29327 0.80384 0.92844 0.0
C901 C 0.28885 0.78023 0.95252 0.0
C902 C 0.29802 0.81257 0.94309 0.0
C903 C 0.31065 0.82575 0.94262 0.0
C904 C 0.3188 0.83059 0.92744 0.0
C905 C 0.31396 0.82184 0.91275 0.0
C906 C 0.30132 0.80864 0.91324 0.0
H907 H 0.28692 0.76962 0.95684 0.0
H908 H 0.29952 0.78601 0.94636 0.0
H909 H 0.28898 0.78629 0.96409 0.0
H910 H 0.29186 0.80926 0.95487 0.0
H911 H 0.31407 0.8321 0.95424 0.0
H912 H 0.46346 0.05085 0.07673 0.0
H913 H 0.45263 0.03073 0.05671 0.0
H914 H 0.48371 0.056 0.01818 0.0
H915 H 0.49459 0.07617 0.03807 0.0
H916 H 0.44069 0.02804 0.02426 0.0
H917 H 0.48774 0.02055 0.02063 0.0
H918 H 0.48598 0.03152 0.03682 0.0
H919 H 0.4916 0.03828 0.0154 0.0
C920 C 0.46792 0.05219 0.06394 0.0
C921 C 0.47998 0.06513 0.05907 0.0
C922 C 0.46175 0.04064 0.05253 0.0
C923 C 0.46751 0.04174 0.03604 0.0
C924 C 0.47929 0.05476 0.03098 0.0
H925 H 0.44872 0.98585 0.94828 0.0
H926 H 0.45796 1.00566 0.96861 0.0
C927 C 0.4855 0.0663 0.04238 0.0
C928 C 0.46118 0.02931 0.02413 0.0
H929 H 0.469 1.00726 1.00089 0.0
C930 C 0.44685 0.02344 0.01921 0.0
C931 C 0.46921 0.02328 0.01757 0.0
C932 C 0.48445 0.02862 0.02298 0.0
C933 C 0.44044 1.01197 1.00758 0.0
C934 C 0.44852 1.00603 1.00091 0.0
C935 C 0.46282 1.01183 1.00595 0.0
C936 C 0.44247 0.99395 0.98847 0.0
C937 C 0.42521 1.00659 1.00218 0.0
C938 C 0.43071 0.98069 0.99286 0.0
C939 C 0.42528 0.96932 0.98116 0.0
C940 C 0.43155 0.97095 0.96483 0.0
C941 C 0.44341 0.98424 0.96057 0.0
C942 C 0.4488 0.99558 0.97225 0.0
H943 H 0.42177 1.01452 1.00486 0.0
H944 H 0.42376 1.00397 0.98826 0.0
H945 H 0.41811 0.99674 1.00949 0.0
H946 H 0.4258 0.97906 1.00542 0.0
H947 H 0.41611 0.95929 0.98488 0.0
H948 H 0.47444 0.40751 0.15298 0.0
H949 H 0.46376 0.41674 0.17342 0.0
H950 H 0.46822 0.44836 0.1364 0.0
H951 H 0.47903 0.43937 0.11602 0.0
H952 H 0.47512 0.44421 0.18734 0.0
H953 H 0.42614 0.42977 0.14994 0.0
H954 H 0.43759 0.42249 0.14524 0.0
H955 H 0.44232 0.44009 0.13799 0.0
C956 C 0.47322 0.41647 0.1492 0.0
C957 C 0.47751 0.42259 0.13274 0.0
C958 C 0.46704 0.42169 0.16088 0.0
C959 C 0.46494 0.43307 0.15634 0.0
C960 C 0.46939 0.43933 0.14005 0.0
H961 H 0.43433 0.48457 0.20556 0.0
H962 H 0.44378 0.47348 0.1861 0.0
C963 C 0.47556 0.43415 0.12839 0.0
C964 C 0.45844 0.43869 0.16875 0.0
H965 H 0.43083 0.44525 0.17382 0.0
C966 C 0.46537 0.44433 0.18446 0.0
C967 C 0.44572 0.43886 0.16498 0.0
C968 C 0.43742 0.43236 0.1487 0.0
C969 C 0.46017 0.4505 0.19626 0.0
C970 C 0.44754 0.45083 0.19239 0.0
C971 C 0.44053 0.44504 0.17677 0.0
C972 C 0.44158 0.45735 0.20424 0.0
C973 C 0.46847 0.45702 0.21254 0.0
C974 C 0.43696 0.45183 0.22083 0.0
C975 C 0.43159 0.45817 0.23202 0.0
C976 C 0.43068 0.47017 0.22684 0.0
C977 C 0.43507 0.47549 0.21008 0.0
C978 C 0.4404 0.46911 0.19889 0.0
H979 H 0.47955 0.45897 0.21166 0.0
H980 H 0.46888 0.46727 0.21546 0.0
H981 H 0.46312 0.44963 0.22344 0.0
H982 H 0.43753 0.44261 0.22516 0.0
H983 H 0.42841 0.45384 0.24485 0.0
H984 H 0.08368 0.4649 0.31886 0.0
H985 H 0.06374 0.45292 0.33906 0.0
H986 H 0.03715 0.46117 0.30518 0.0
H987 H 0.05679 0.47269 0.28472 0.0
H988 H 0.04907 0.46419 0.35599 0.0
H989 H 1.01194 0.41889 0.315 0.0
H990 H 0.03062 0.42992 0.30989 0.0
H991 H 1.01824 0.43595 0.30501 0.0
C992 C 0.07353 0.46397 0.31557 0.0
C993 C 0.07188 0.46978 0.30012 0.0
C994 C 0.06216 0.45719 0.32719 0.0
C995 C 0.04886 0.45595 0.32355 0.0
C996 C 0.04719 0.46173 0.30815 0.0
H997 H 0.96853 0.42639 0.37709 0.0
H998 H 0.9883 0.43568 0.35652 0.0
C999 C 0.05853 0.4685 0.29655 0.0
C1000 C 0.03691 0.44916 0.33613 0.0
H1001 H 1.00217 0.42277 0.34056 0.0
C1002 C 0.03886 0.45505 0.35267 0.0
C1003 C 1.02355 0.43726 0.33179 0.0
C1004 C 1.02096 0.43004 0.31451 0.0
C1005 C 0.02773 0.44963 0.36481 0.0
C1006 C 1.01433 0.43781 0.36041 0.0
C1007 C 1.01242 0.43184 0.34392 0.0
C1008 C 1.00213 0.4316 0.3727 0.0
C1009 C 0.0303 0.45689 0.38206 0.0
C1010 C 1.00318 0.42589 0.38849 0.0
C1011 C 0.99188 0.42053 0.40026 0.0
C1012 C 0.97921 0.42065 0.39647 0.0
C1013 C 0.97805 0.426 0.38041 0.0
C1014 C 0.98938 0.43139 0.36865 0.0
H1015 H 0.03972 0.46781 0.3818 0.0
H1016 H 1.02085 0.45759 0.38624 0.0
H1017 H 0.03232 0.4506 0.3918 0.0
H1018 H 1.01276 0.42559 0.39173 0.0
H1019 H 0.99306 0.41624 0.41234 0.0
H1020 H 0.59936 0.05182 0.45594 0.0
H1021 H 0.59073 0.032 0.47623 0.0
H1022 H 0.63021 0.05405 0.50438 0.0
H1023 H 0.63877 0.07421 0.48445 0.0
H1024 H 0.60197 1.01461 0.48429 0.0
H1025 H 0.60047 0.04388 0.54217 0.0
H1026 H 0.60228 0.05093 0.5207 0.0
H1027 H 0.61742 0.05182 0.53143 0.0
C1028 C 0.60616 0.05259 0.46658 0.0
C1029 C 0.61973 0.06474 0.46862 0.0
C1030 C 0.60124 0.04117 0.4781 0.0
C1031 C 0.60971 0.0416 0.492 0.0
C1032 C 0.62336 0.05358 0.49395 0.0
H1033 H 0.59459 0.98217 0.57614 0.0
H1034 H 0.60507 1.00201 0.5557 0.0
C1035 C 0.6283 0.06504 0.48242 0.0
C1036 C 0.60428 0.0294 0.50424 0.0
H1037 H 0.59552 0.0202 0.5464 0.0
C1038 C 0.60055 1.01583 0.49787 0.0
C1039 C 0.60245 0.03098 0.52198 0.0
C1040 C 0.60574 0.04515 0.52951 0.0
C1041 C 0.59517 1.00385 0.50874 0.0
C1042 C 0.59319 1.0054 0.52644 0.0
C1043 C 0.59704 0.019 0.53284 0.0
C1044 C 0.58694 0.99306 0.53852 0.0
C1045 C 0.5919 0.9897 0.50118 0.0
C1046 C 0.5732 0.98142 0.53577 0.0
C1047 C 0.56718 0.97004 0.54744 0.0
C1048 C 0.57469 0.97012 0.56225 0.0
C1049 C 0.58845 0.9818 0.56497 0.0
C1050 C 0.59448 0.99314 0.55326 0.0
H1051 H 0.59779 0.99107 0.48897 0.0
H1052 H 0.59464 0.98355 0.51032 0.0
H1053 H 0.58033 0.98335 0.49832 0.0
H1054 H 0.567 0.98125 0.52475 0.0
H1055 H 0.55647 0.96137 0.54509 0.0
H1056 H 0.62942 0.58322 0.73866 0.0
H1057 H 0.61986 0.59405 0.71893 0.0
H1058 H 0.60038 0.5556 0.68861 0.0
H1059 H 0.60987 0.54471 0.70822 0.0
H1060 H 0.62328 0.59939 0.68372 0.0
H1061 H 0.5667 0.56134 0.69921 0.0
H1062 H 0.58125 0.56279 0.71206 0.0
H1063 H 0.57646 0.55283 0.6923 0.0
C1064 C 0.62322 0.57712 0.72769 0.0
C1065 C 0.62031 0.56303 0.72513 0.0
C1066 C 0.61771 0.58331 0.71646 0.0
C1067 C 0.60914 0.57555 0.70248 0.0
C1068 C 0.60663 0.56167 0.69956 0.0
H1069 H 0.56448 0.58978 0.61961 0.0
H1070 H 0.57564 0.58093 0.63968 0.0
C1071 C 0.61209 0.55546 0.71079 0.0
C1072 C 0.60278 0.5819 0.69097 0.0
H1073 H 0.571 0.57665 0.67529 0.0
C1074 C 0.61185 0.59448 0.68196 0.0
C1075 C 0.58784 0.57552 0.68872 0.0
C1076 C 0.57748 0.56245 0.6987 0.0
C1077 C 0.60641 0.60061 0.67039 0.0
C1078 C 0.5915 0.59408 0.66794 0.0
C1079 C 0.58243 0.58161 0.67711 0.0
C1080 C 0.58503 0.5998 0.65565 0.0
C1081 C 0.6167 0.61377 0.66051 0.0
C1082 C 0.58649 0.61334 0.65799 0.0
C1083 C 0.58001 0.61842 0.64657 0.0
C1084 C 0.57184 0.61002 0.63262 0.0
C1085 C 0.57046 0.59647 0.63034 0.0
C1086 C 0.57692 0.59141 0.64175 0.0
H1087 H 0.62773 0.61554 0.66087 0.0
H1088 H 0.61334 0.61301 0.64688 0.0
H1089 H 0.61684 0.62321 0.66629 0.0
H1090 H 0.59246 0.61989 0.66881 0.0
H1091 H 0.58115 0.6288 0.64889 0.0
H1092 H 0.98846 0.58356 0.78882 0.0
H1093 H 1.0088 0.59435 0.80856 0.0
H1094 H 0.99213 0.55442 0.83566 0.0
H1095 H 0.97182 0.54356 0.816 0.0
H1096 H 1.0105 0.59783 0.84388 0.0
H1097 H 0.03237 0.5633 0.82416 0.0
H1098 H 1.01867 0.56432 0.81208 0.0
H1099 H 1.01415 0.55345 0.83112 0.0
C1100 C 0.98905 0.5771 0.79908 0.0
C1101 C 0.97854 0.56264 0.80071 0.0
C1102 C 1.00072 0.58327 0.81031 0.0
C1103 C 1.00217 0.57513 0.82339 0.0
C1104 C 0.99147 0.56083 0.82539 0.0
H1105 H 0.06178 0.58913 0.9053 0.0
H1106 H 0.04181 0.5801 0.88521 0.0
C1107 C 0.97984 0.55463 0.81414 0.0
C1108 C 1.01484 0.58155 0.83494 0.0
H1109 H 0.04259 0.57756 0.84907 0.0
C1110 C 1.01758 0.59347 0.84492 0.0
C1111 C 1.02413 0.5759 0.83627 0.0
C1112 C 1.0223 0.56363 0.82522 0.0
C1113 C 0.02907 0.59961 0.85655 0.0
C1114 C 0.03819 0.59378 0.85808 0.0
C1115 C 0.03556 0.58198 0.84795 0.0
C1116 C 0.05035 0.59955 0.87036 0.0
C1117 C 0.03113 0.61202 0.86746 0.0
C1118 C 0.0619 0.61348 0.86865 0.0
C1119 C 0.07345 0.61867 0.88006 0.0
C1120 C 0.07373 0.61 0.89341 0.0
C1121 C 0.0621 0.59605 0.89505 0.0
C1122 C 0.0506 0.59088 0.88362 0.0
H1123 H 1.02148 0.61316 0.86756 0.0
H1124 H 0.03379 0.61078 0.88091 0.0
H1125 H 0.04012 0.622 0.86221 0.0
H1126 H 0.06209 0.62028 0.85831 0.0
H1127 H 0.08229 0.62938 0.87822 0.0
loop_
_geom_bond_atom_site_label_1
_geom_bond_atom_site_label_2
_geom_bond_distance
_geom_bond_site_symmetry_2
_ccdc_geom_bond_type
C0 C1 1.264 . S
C0 C5 1.479 . S
C0 C10 1.465 . S
C1 C0 1.264 . S
C1 C3 1.339 . S
C1 H28 0.931 . S
C2 C3 1.395 . S
C2 C4 1.320 . S
C3 C1 1.339 . S
C3 C2 1.395 . S
C3 H29 0.929 . S
C4 C2 1.320 . S
C4 C5 1.405 . S
C4 H30 0.930 . S
C5 C0 1.479 . S
C5 C4 1.405 . S
C5 H31 0.931 . S
U6 O7 2.454 . S
U6 O8 2.458 . S
U6 C9 2.984 . S
U6 C10 2.847 . S
U6 C23 2.882 . S
U6 O24 2.441 . S
U6 O25 2.420 . S
U6 O26 2.455 . S
U6 O27 2.449 . S
O7 U6 2.454 . S
O7 C9 1.353 . S
O8 U6 2.458 . S
O8 C9 1.286 . S
C9 U6 2.984 . S
C9 O7 1.353 . S
C9 O8 1.286 . S
C9 C11 1.363 . S
C10 C0 1.465 . S
C10 U6 2.847 . S
C10 O24 1.249 . S
C10 O25 1.202 . S
C11 C9 1.363 . S
C11 C13 1.408 . S
C11 C16 1.342 . S
C12 C13 1.310 . S
C12 C15 1.461 . S
C12 H32 0.932 . S
C13 C11 1.408 . S
C13 C12 1.310 . S
C13 H33 0.930 . S
C14 C15 1.474 . S
C14 C16 1.285 . S
C14 H34 0.929 . S
C15 C12 1.461 . S
C15 C14 1.474 . S
C16 C11 1.342 . S
C16 C14 1.285 . S
C16 H35 0.930 . S
C17 C20 1.424 . S
C17 C22 1.245 . S
C17 C23 1.428 . S
C18 C21 1.260 . S
C18 C22 1.477 . S
C18 H36 0.932 . S
C19 C20 1.384 . S
C19 C21 1.479 . S
C19 H37 0.929 . S
C20 C17 1.424 . S
C20 C19 1.384 . S
C20 H38 0.928 . S
C21 C18 1.260 . S
C21 C19 1.479 . S
C22 C17 1.245 . S
C22 C18 1.477 . S
C22 H39 0.932 . S
C23 U6 2.882 . S
C23 C17 1.428 . S
C23 O26 1.301 . S
C23 O27 1.282 . S
O24 U6 2.441 . S
O24 C10 1.249 . S
O25 U6 2.420 . S
O25 C10 1.202 . S
O26 U6 2.455 . S
O26 C23 1.301 . S
O27 U6 2.449 . S
O27 C23 1.282 . S
H28 C1 0.931 . S
H29 C3 0.929 . S
H30 C4 0.930 . S
H31 C5 0.931 . S
H32 C12 0.932 . S
H33 C13 0.930 . S
H34 C14 0.929 . S
H35 C16 0.930 . S
H36 C18 0.932 . S
H37 C19 0.929 . S
H38 C20 0.928 . S
H39 C22 0.932 . S
C40 C41 1.264 . S
C40 C45 1.479 . S
C40 C50 1.465 . S
C41 C40 1.264 . S
C41 C43 1.339 . S
C41 H68 0.931 . S
C42 C43 1.395 . S
C42 C44 1.320 . S
C43 C41 1.339 . S
C43 C42 1.395 . S
C43 H69 0.929 . S
C44 C42 1.320 . S
C44 C45 1.405 . S
C44 H70 0.930 . S
C45 C40 1.479 . S
C45 C44 1.405 . S
C45 H71 0.931 . S
U46 O47 2.454 . S
U46 O48 2.458 . S
U46 C49 2.984 . S
U46 C50 2.847 . S
U46 C63 2.882 . S
U46 O64 2.441 . S
U46 O65 2.420 . S
U46 O66 2.455 . S
U46 O67 2.449 . S
O47 U46 2.454 . S
O47 C49 1.353 . S
O48 U46 2.458 . S
O48 C49 1.286 . S
C49 U46 2.984 . S
C49 O47 1.353 . S
C49 O48 1.286 . S
C49 C51 1.363 . S
C50 C40 1.465 . S
C50 U46 2.847 . S
C50 O64 1.249 . S
C50 O65 1.202 . S
C51 C49 1.363 . S
C51 C53 1.408 . S
C51 C56 1.342 . S
C52 C53 1.310 . S
C52 C55 1.461 . S
C52 H72 0.932 . S
C53 C51 1.408 . S
C53 C52 1.310 . S
C53 H73 0.930 . S
C54 C55 1.474 . S
C54 C56 1.285 . S
C54 H74 0.929 . S
C55 C52 1.461 . S
C55 C54 1.474 . S
C56 C51 1.342 . S
C56 C54 1.285 . S
C56 H75 0.930 . S
C57 C60 1.424 . S
C57 C62 1.245 . S
C57 C63 1.428 . S
C58 C61 1.260 . S
C58 C62 1.477 . S
C58 H76 0.932 . S
C59 C60 1.384 . S
C59 C61 1.479 . S
C59 H77 0.929 . S
C60 C57 1.424 . S
C60 C59 1.384 . S
C60 H78 0.928 . S
C61 C58 1.260 . S
C61 C59 1.479 . S
C62 C57 1.245 . S
C62 C58 1.477 . S
C62 H79 0.932 . S
C63 U46 2.882 . S
C63 C57 1.428 . S
C63 O66 1.301 . S
C63 O67 1.282 . S
O64 U46 2.441 . S
O64 C50 1.249 . S
O65 U46 2.420 . S
O65 C50 1.202 . S
O66 U46 2.455 . S
O66 C63 1.301 . S
O67 U46 2.449 . S
O67 C63 1.282 . S
H68 C41 0.931 . S
H69 C43 0.929 . S
H70 C44 0.930 . S
H71 C45 0.931 . S
H72 C52 0.932 . S
H73 C53 0.930 . S
H74 C54 0.929 . S
H75 C56 0.930 . S
H76 C58 0.932 . S
H77 C59 0.929 . S
H78 C60 0.928 . S
H79 C62 0.932 . S
C80 C81 1.264 . S
C80 C85 1.479 . S
C80 C90 1.465 . S
C81 C80 1.264 . S
C81 C83 1.339 . S
C81 H108 0.931 . S
C82 C83 1.395 . S
C82 C84 1.320 . S
C83 C81 1.339 . S
C83 C82 1.395 . S
C83 H109 0.929 . S
C84 C82 1.320 . S
C84 C85 1.405 . S
C84 H110 0.930 . S
C85 C80 1.479 . S
C85 C84 1.405 . S
C85 H111 0.931 . S
U86 O87 2.454 . S
U86 O88 2.458 . S
U86 C89 2.984 . S
U86 C90 2.847 . S
U86 C103 2.882 . S
U86 O104 2.441 . S
U86 O105 2.420 . S
U86 O106 2.455 . S
U86 O107 2.449 . S
O87 U86 2.454 . S
O87 C89 1.353 . S
O88 U86 2.458 . S
O88 C89 1.286 . S
C89 U86 2.984 . S
C89 O87 1.353 . S
C89 O88 1.286 . S
C89 C91 1.363 . S
C90 C80 1.465 . S
C90 U86 2.847 . S
C90 O104 1.249 . S
C90 O105 1.202 . S
C91 C89 1.363 . S
C91 C93 1.408 . S
C91 C96 1.342 . S
C92 C93 1.310 . S
C92 C95 1.461 . S
C92 H112 0.932 . S
C93 C91 1.408 . S
C93 C92 1.310 . S
C93 H113 0.930 . S
C94 C95 1.474 . S
C94 C96 1.285 . S
C94 H114 0.929 . S
C95 C92 1.461 . S
C95 C94 1.474 . S
C96 C91 1.342 . S
C96 C94 1.285 . S
C96 H115 0.930 . S
C97 C100 1.424 . S
C97 C102 1.245 . S
C97 C103 1.428 . S
C98 C101 1.260 . S
C98 C102 1.477 . S
C98 H116 0.932 . S
C99 C100 1.384 . S
C99 C101 1.479 . S
C99 H117 0.929 . S
C100 C97 1.424 . S
C100 C99 1.384 . S
C100 H118 0.928 . S
C101 C98 1.260 . S
C101 C99 1.479 . S
C102 C97 1.245 . S
C102 C98 1.477 . S
C102 H119 0.932 . S
C103 U86 2.882 . S
C103 C97 1.428 . S
C103 O106 1.301 . S
C103 O107 1.282 . S
O104 U86 2.441 . S
O104 C90 1.249 . S
O105 U86 2.420 . S
O105 C90 1.202 . S
O106 U86 2.455 . S
O106 C103 1.301 . S
O107 U86 2.449 . S
O107 C103 1.282 . S
H108 C81 0.931 . S
H109 C83 0.929 . S
H110 C84 0.930 . S
H111 C85 0.931 . S
H112 C92 0.932 . S
H113 C93 0.930 . S
H114 C94 0.929 . S
H115 C96 0.930 . S
H116 C98 0.932 . S
H117 C99 0.929 . S
H118 C100 0.928 . S
H119 C102 0.932 . S
C120 C121 1.264 . S
C120 C125 1.479 . S
C120 C130 1.465 . S
C121 C120 1.264 . S
C121 C123 1.339 . S
C121 H148 0.931 . S
C122 C123 1.395 . S
C122 C124 1.320 . S
C123 C121 1.339 . S
C123 C122 1.395 . S
C123 H149 0.929 . S
C124 C122 1.320 . S
C124 C125 1.405 . S
C124 H150 0.930 . S
C125 C120 1.479 . S
C125 C124 1.405 . S
C125 H151 0.931 . S
U126 O127 2.454 . S
U126 O128 2.458 . S
U126 C129 2.984 . S
U126 C130 2.847 . S
U126 C143 2.882 . S
U126 O144 2.441 . S
U126 O145 2.420 . S
U126 O146 2.455 . S
U126 O147 2.449 . S
O127 U126 2.454 . S
O127 C129 1.353 . S
O128 U126 2.458 . S
O128 C129 1.286 . S
C129 U126 2.984 . S
C129 O127 1.353 . S
C129 O128 1.286 . S
C129 C131 1.363 . S
C130 C120 1.465 . S
C130 U126 2.847 . S
C130 O144 1.249 . S
C130 O145 1.202 . S
C131 C129 1.363 . S
C131 C133 1.408 . S
C131 C136 1.342 . S
C132 C133 1.310 . S
C132 C135 1.461 . S
C132 H152 0.932 . S
C133 C131 1.408 . S
C133 C132 1.310 . S
C133 H153 0.930 . S
C134 C135 1.474 . S
C134 C136 1.285 . S
C134 H154 0.929 . S
C135 C132 1.461 . S
C135 C134 1.474 . S
C136 C131 1.342 . S
C136 C134 1.285 . S
C136 H155 0.930 . S
C137 C140 1.424 . S
C137 C142 1.245 . S
C137 C143 1.428 . S
C138 C141 1.260 . S
C138 C142 1.477 . S
C138 H156 0.932 . S
C139 C140 1.384 . S
C139 C141 1.479 . S
C139 H157 0.929 . S
C140 C137 1.424 . S
C140 C139 1.384 . S
C140 H158 0.928 . S
C141 C138 1.260 . S
C141 C139 1.479 . S
C142 C137 1.245 . S
C142 C138 1.477 . S
C142 H159 0.932 . S
C143 U126 2.882 . S
C143 C137 1.428 . S
C143 O146 1.301 . S
C143 O147 1.282 . S
O144 U126 2.441 . S
O144 C130 1.249 . S
O145 U126 2.420 . S
O145 C130 1.202 . S
O146 U126 2.455 . S
O146 C143 1.301 . S
O147 U126 2.449 . S
O147 C143 1.282 . S
H148 C121 0.931 . S
H149 C123 0.929 . S
H150 C124 0.930 . S
H151 C125 0.931 . S
H152 C132 0.932 . S
H153 C133 0.930 . S
H154 C134 0.929 . S
H155 C136 0.930 . S
H156 C138 0.932 . S
H157 C139 0.929 . S
H158 C140 0.928 . S
H159 C142 0.932 . S
C160 C161 1.264 . S
C160 C165 1.479 . S
C160 C170 1.465 . S
C161 C160 1.264 . S
C161 C163 1.339 . S
C161 H188 0.931 . S
C162 C163 1.395 . S
C162 C164 1.320 . S
C163 C161 1.339 . S
C163 C162 1.395 . S
C163 H189 0.929 . S
C164 C162 1.320 . S
C164 C165 1.405 . S
C164 H190 0.930 . S
C165 C160 1.479 . S
C165 C164 1.405 . S
C165 H191 0.931 . S
U166 O167 2.454 . S
U166 O168 2.458 . S
U166 C169 2.984 . S
U166 C170 2.847 . S
U166 C183 2.882 . S
U166 O184 2.441 . S
U166 O185 2.420 . S
U166 O186 2.455 . S
U166 O187 2.449 . S
O167 U166 2.454 . S
O167 C169 1.353 . S
O168 U166 2.458 . S
O168 C169 1.286 . S
C169 U166 2.984 . S
C169 O167 1.353 . S
C169 O168 1.286 . S
C169 C171 1.363 . S
C170 C160 1.465 . S
C170 U166 2.847 . S
C170 O184 1.249 . S
C170 O185 1.202 . S
C171 C169 1.363 . S
C171 C173 1.408 . S
C171 C176 1.342 . S
C172 C173 1.310 . S
C172 C175 1.461 . S
C172 H192 0.932 . S
C173 C171 1.408 . S
C173 C172 1.310 . S
C173 H193 0.930 . S
C174 C175 1.474 . S
C174 C176 1.285 . S
C174 H194 0.929 . S
C175 C172 1.461 . S
C175 C174 1.474 . S
C176 C171 1.342 . S
C176 C174 1.285 . S
C176 H195 0.930 . S
C177 C180 1.424 . S
C177 C182 1.245 . S
C177 C183 1.428 . S
C178 C181 1.260 . S
C178 C182 1.477 . S
C178 H196 0.932 . S
C179 C180 1.384 . S
C179 C181 1.479 . S
C179 H197 0.929 . S
C180 C177 1.424 . S
C180 C179 1.384 . S
C180 H198 0.928 . S
C181 C178 1.260 . S
C181 C179 1.479 . S
C182 C177 1.245 . S
C182 C178 1.477 . S
C182 H199 0.932 . S
C183 U166 2.882 . S
C183 C177 1.428 . S
C183 O186 1.301 . S
C183 O187 1.282 . S
O184 U166 2.441 . S
O184 C170 1.249 . S
O185 U166 2.420 . S
O185 C170 1.202 . S
O186 U166 2.455 . S
O186 C183 1.301 . S
O187 U166 2.449 . S
O187 C183 1.282 . S
H188 C161 0.931 . S
H189 C163 0.929 . S
H190 C164 0.930 . S
H191 C165 0.931 . S
H192 C172 0.932 . S
H193 C173 0.930 . S
H194 C174 0.929 . S
H195 C176 0.930 . S
H196 C178 0.932 . S
H197 C179 0.929 . S
H198 C180 0.928 . S
H199 C182 0.932 . S
C200 C201 1.264 . S
C200 C205 1.479 . S
C200 C210 1.465 . S
C201 C200 1.264 . S
C201 C203 1.339 . S
C201 H228 0.931 . S
C202 C203 1.395 . S
C202 C204 1.320 . S
C203 C201 1.339 . S
C203 C202 1.395 . S
C203 H229 0.929 . S
C204 C202 1.320 . S
C204 C205 1.405 . S
C204 H230 0.930 . S
C205 C200 1.479 . S
C205 C204 1.405 . S
C205 H231 0.931 . S
U206 O207 2.454 . S
U206 O208 2.458 . S
U206 C209 2.984 . S
U206 C210 2.847 . S
U206 C223 2.882 . S
U206 O224 2.441 . S
U206 O225 2.420 . S
U206 O226 2.455 . S
U206 O227 2.449 . S
O207 U206 2.454 . S
O207 C209 1.353 . S
O208 U206 2.458 . S
O208 C209 1.286 . S
C209 U206 2.984 . S
C209 O207 1.353 . S
C209 O208 1.286 . S
C209 C211 1.363 . S
C210 C200 1.465 . S
C210 U206 2.847 . S
C210 O224 1.249 . S
C210 O225 1.202 . S
C211 C209 1.363 . S
C211 C213 1.408 . S
C211 C216 1.342 . S
C212 C213 1.310 . S
C212 C215 1.461 . S
C212 H232 0.932 . S
C213 C211 1.408 . S
C213 C212 1.310 . S
C213 H233 0.930 . S
C214 C215 1.474 . S
C214 C216 1.285 . S
C214 H234 0.929 . S
C215 C212 1.461 . S
C215 C214 1.474 . S
C216 C211 1.342 . S
C216 C214 1.285 . S
C216 H235 0.930 . S
C217 C220 1.424 1_556 S
C217 C222 1.245 . S
C217 C223 1.428 . S
C218 C221 1.260 . S
C218 C222 1.477 1_554 S
C218 H236 0.932 . S
C219 C220 1.384 . S
C219 C221 1.479 . S
C219 H237 0.929 . S
C220 C217 1.424 1_554 S
C220 C219 1.384 . S
C220 H238 0.943 . S
C221 C218 1.260 . S
C221 C219 1.479 . S
C222 C217 1.245 . S
C222 C218 1.477 1_556 S
C222 H239 0.932 . S
C223 U206 2.882 . S
C223 C217 1.428 . S
C223 O226 1.301 . S
C223 O227 1.282 . S
O224 U206 2.441 . S
O224 C210 1.249 . S
O225 U206 2.420 . S
O225 C210 1.202 . S
O226 U206 2.455 . S
O226 C223 1.301 . S
O227 U206 2.449 . S
O227 C223 1.282 . S
H228 C201 0.931 . S
H229 C203 0.929 . S
H230 C204 0.930 . S
H231 C205 0.931 . S
H232 C212 0.932 . S
H233 C213 0.930 . S
H234 C214 0.929 . S
H235 C216 0.930 . S
H236 C218 0.932 . S
H237 C219 0.929 . S
H238 C220 0.943 . S
H239 C222 0.932 . S
C240 C241 1.264 . S
C240 C245 1.479 . S
C240 C250 1.465 . S
C241 C240 1.264 . S
C241 C243 1.339 . S
C241 H268 0.931 . S
C242 C243 1.395 . S
C242 C244 1.320 . S
C243 C241 1.339 . S
C243 C242 1.395 . S
C243 H269 0.929 . S
C244 C242 1.320 . S
C244 C245 1.405 . S
C244 H270 0.930 . S
C245 C240 1.479 . S
C245 C244 1.405 . S
C245 H271 0.931 . S
U246 O247 2.454 . S
U246 O248 2.458 . S
U246 C249 2.984 . S
U246 C250 2.847 . S
U246 C263 2.882 . S
U246 O264 2.441 . S
U246 O265 2.420 . S
U246 O266 2.455 . S
U246 O267 2.449 . S
O247 U246 2.454 . S
O247 C249 1.353 . S
O248 U246 2.458 . S
O248 C249 1.286 . S
C249 U246 2.984 . S
C249 O247 1.353 . S
C249 O248 1.286 . S
C249 C251 1.363 . S
C250 C240 1.465 . S
C250 U246 2.847 . S
C250 O264 1.249 . S
C250 O265 1.202 . S
C251 C249 1.363 . S
C251 C253 1.408 . S
C251 C256 1.342 . S
C252 C253 1.310 . S
C252 C255 1.461 . S
C252 H272 0.932 . S
C253 C251 1.408 . S
C253 C252 1.310 . S
C253 H273 0.930 . S
C254 C255 1.474 . S
C254 C256 1.285 . S
C254 H274 0.929 . S
C255 C252 1.461 . S
C255 C254 1.474 . S
C256 C251 1.342 . S
C256 C254 1.285 . S
C256 H275 0.930 . S
C257 C260 1.424 . S
C257 C262 1.245 . S
C257 C263 1.428 . S
C258 C261 1.260 . S
C258 C262 1.477 . S
C258 H276 0.932 . S
C259 C260 1.384 . S
C259 C261 1.479 . S
C259 H277 0.929 . S
C260 C257 1.424 . S
C260 C259 1.384 . S
C260 H278 0.928 . S
C261 C258 1.260 . S
C261 C259 1.479 . S
C262 C257 1.245 . S
C262 C258 1.477 . S
C262 H279 0.932 . S
C263 U246 2.882 . S
C263 C257 1.428 . S
C263 O266 1.301 . S
C263 O267 1.282 . S
O264 U246 2.441 . S
O264 C250 1.249 . S
O265 U246 2.420 . S
O265 C250 1.202 . S
O266 U246 2.455 . S
O266 C263 1.301 . S
O267 U246 2.449 . S
O267 C263 1.282 . S
H268 C241 0.931 . S
H269 C243 0.929 . S
H270 C244 0.930 . S
H271 C245 0.931 . S
H272 C252 0.932 . S
H273 C253 0.930 . S
H274 C254 0.929 . S
H275 C256 0.930 . S
H276 C258 0.932 . S
H277 C259 0.929 . S
H278 C260 0.928 . S
H279 C262 0.932 . S
C280 C281 1.264 . S
C280 C285 1.479 . S
C280 C290 1.465 . S
C281 C280 1.264 . S
C281 C283 1.339 . S
C281 H308 0.931 . S
C282 C283 1.395 . S
C282 C284 1.320 . S
C283 C281 1.339 . S
C283 C282 1.395 . S
C283 H309 0.929 . S
C284 C282 1.320 . S
C284 C285 1.405 . S
C284 H310 0.930 . S
C285 C280 1.479 . S
C285 C284 1.405 . S
C285 H311 0.931 . S
U286 O287 2.454 . S
U286 O288 2.458 . S
U286 C289 2.984 . S
U286 C290 2.847 . S
U286 C303 2.882 . S
U286 O304 2.441 . S
U286 O305 2.420 . S
U286 O306 2.455 . S
U286 O307 2.449 . S
O287 U286 2.454 . S
O287 C289 1.353 . S
O288 U286 2.458 . S
O288 C289 1.286 . S
C289 U286 2.984 . S
C289 O287 1.353 . S
C289 O288 1.286 . S
C289 C291 1.363 . S
C290 C280 1.465 . S
C290 U286 2.847 . S
C290 O304 1.249 . S
C290 O305 1.202 . S
C291 C289 1.363 . S
C291 C293 1.408 . S
C291 C296 1.342 . S
C292 C293 1.310 . S
C292 C295 1.461 . S
C292 H312 0.932 . S
C293 C291 1.408 . S
C293 C292 1.310 . S
C293 H313 0.930 . S
C294 C295 1.474 . S
C294 C296 1.285 . S
C294 H314 0.929 . S
C295 C292 1.461 . S
C295 C294 1.474 . S
C296 C291 1.342 . S
C296 C294 1.285 . S
C296 H315 0.930 . S
C297 C300 1.424 . S
C297 C302 1.245 . S
C297 C303 1.428 . S
C298 C301 1.260 . S
C298 C302 1.477 . S
C298 H316 0.932 . S
C299 C300 1.384 . S
C299 C301 1.479 . S
C299 H317 0.929 . S
C300 C297 1.424 . S
C300 C299 1.384 . S
C300 H318 0.928 . S
C301 C298 1.260 . S
C301 C299 1.479 . S
C302 C297 1.245 . S
C302 C298 1.477 . S
C302 H319 0.932 . S
C303 U286 2.882 . S
C303 C297 1.428 . S
C303 O306 1.301 . S
C303 O307 1.282 . S
O304 U286 2.441 . S
O304 C290 1.249 . S
O305 U286 2.420 . S
O305 C290 1.202 . S
O306 U286 2.455 . S
O306 C303 1.301 . S
O307 U286 2.449 . S
O307 C303 1.282 . S
H308 C281 0.931 . S
H309 C283 0.929 . S
H310 C284 0.930 . S
H311 C285 0.931 . S
H312 C292 0.932 . S
H313 C293 0.930 . S
H314 C294 0.929 . S
H315 C296 0.930 . S
H316 C298 0.932 . S
H317 C299 0.929 . S
H318 C300 0.928 . S
H319 C302 0.932 . S
C320 C321 1.264 . S
C320 C325 1.479 . S
C320 C330 1.465 . S
C321 C320 1.264 . S
C321 C323 1.339 . S
C321 H348 0.931 . S
C322 C323 1.395 . S
C322 C324 1.320 . S
C323 C321 1.339 . S
C323 C322 1.395 . S
C323 H349 0.929 . S
C324 C322 1.320 . S
C324 C325 1.405 . S
C324 H350 0.930 . S
C325 C320 1.479 . S
C325 C324 1.405 . S
C325 H351 0.931 . S
U326 O327 2.454 . S
U326 O328 2.458 . S
U326 C329 2.984 . S
U326 C330 2.847 . S
U326 C343 2.882 . S
U326 O344 2.441 . S
U326 O345 2.420 . S
U326 O346 2.455 . S
U326 O347 2.449 . S
O327 U326 2.454 . S
O327 C329 1.353 . S
O328 U326 2.458 . S
O328 C329 1.286 . S
C329 U326 2.984 . S
C329 O327 1.353 . S
C329 O328 1.286 . S
C329 C331 1.363 . S
C330 C320 1.465 . S
C330 U326 2.847 . S
C330 O344 1.249 . S
C330 O345 1.202 . S
C331 C329 1.363 . S
C331 C333 1.408 . S
C331 C336 1.342 . S
C332 C333 1.310 . S
C332 C335 1.461 . S
C332 H352 0.932 . S
C333 C331 1.408 . S
C333 C332 1.310 . S
C333 H353 0.930 . S
C334 C335 1.474 . S
C334 C336 1.285 . S
C334 H354 0.929 . S
C335 C332 1.461 . S
C335 C334 1.474 . S
C336 C331 1.342 . S
C336 C334 1.285 . S
C336 H355 0.930 . S
C337 C340 1.424 1_554 S
C337 C342 1.245 . S
C337 C343 1.428 . S
C338 C341 1.260 . S
C338 C342 1.477 1_556 S
C338 H356 0.932 . S
C339 C340 1.384 . S
C339 C341 1.479 . S
C339 H357 0.929 . S
C340 C337 1.424 1_556 S
C340 C339 1.384 . S
C340 H358 0.943 . S
C341 C338 1.260 . S
C341 C339 1.479 . S
C342 C337 1.245 . S
C342 C338 1.477 1_554 S
C342 H359 0.932 . S
C343 U326 2.882 . S
C343 C337 1.428 . S
C343 O346 1.301 . S
C343 O347 1.282 . S
O344 U326 2.441 . S
O344 C330 1.249 . S
O345 U326 2.420 . S
O345 C330 1.202 . S
O346 U326 2.455 . S
O346 C343 1.301 . S
O347 U326 2.449 . S
O347 C343 1.282 . S
H348 C321 0.931 . S
H349 C323 0.929 . S
H350 C324 0.930 . S
H351 C325 0.931 . S
H352 C332 0.932 . S
H353 C333 0.930 . S
H354 C334 0.929 . S
H355 C336 0.930 . S
H356 C338 0.932 . S
H357 C339 0.929 . S
H358 C340 0.943 . S
H359 C342 0.932 . S
C360 C361 1.264 . S
C360 C365 1.479 . S
C360 C370 1.465 . S
C361 C360 1.264 . S
C361 C363 1.339 . S
C361 H388 0.931 . S
C362 C363 1.395 . S
C362 C364 1.320 . S
C363 C361 1.339 . S
C363 C362 1.395 . S
C363 H389 0.929 . S
C364 C362 1.320 . S
C364 C365 1.405 . S
C364 H390 0.930 . S
C365 C360 1.479 . S
C365 C364 1.405 . S
C365 H391 0.931 . S
U366 O367 2.454 . S
U366 O368 2.458 . S
U366 C369 2.984 . S
U366 C370 2.847 . S
U366 C383 2.882 . S
U366 O384 2.441 . S
U366 O385 2.420 . S
U366 O386 2.455 . S
U366 O387 2.449 . S
O367 U366 2.454 . S
O367 C369 1.353 . S
O368 U366 2.458 . S
O368 C369 1.286 . S
C369 U366 2.984 . S
C369 O367 1.353 . S
C369 O368 1.286 . S
C369 C371 1.363 . S
C370 C360 1.465 . S
C370 U366 2.847 . S
C370 O384 1.249 . S
C370 O385 1.202 . S
C371 C369 1.363 . S
C371 C373 1.408 . S
C371 C376 1.342 . S
C372 C373 1.310 . S
C372 C375 1.461 . S
C372 H392 0.932 . S
C373 C371 1.408 . S
C373 C372 1.310 . S
C373 H393 0.930 . S
C374 C375 1.474 . S
C374 C376 1.285 . S
C374 H394 0.929 . S
C375 C372 1.461 . S
C375 C374 1.474 . S
C376 C371 1.342 . S
C376 C374 1.285 . S
C376 H395 0.930 . S
C377 C380 1.424 . S
C377 C382 1.245 . S
C377 C383 1.428 . S
C378 C381 1.260 . S
C378 C382 1.477 . S
C378 H396 0.932 . S
C379 C380 1.384 . S
C379 C381 1.479 . S
C379 H397 0.929 . S
C380 C377 1.424 . S
C380 C379 1.384 . S
C380 H398 0.928 . S
C381 C378 1.260 . S
C381 C379 1.479 . S
C382 C377 1.245 . S
C382 C378 1.477 . S
C382 H399 0.932 . S
C383 U366 2.882 . S
C383 C377 1.428 . S
C383 O386 1.301 . S
C383 O387 1.282 . S
O384 U366 2.441 . S
O384 C370 1.249 . S
O385 U366 2.420 . S
O385 C370 1.202 . S
O386 U366 2.455 . S
O386 C383 1.301 . S
O387 U366 2.449 . S
O387 C383 1.282 . S
H388 C361 0.931 . S
H389 C363 0.929 . S
H390 C364 0.930 . S
H391 C365 0.931 . S
H392 C372 0.932 . S
H393 C373 0.930 . S
H394 C374 0.929 . S
H395 C376 0.930 . S
H396 C378 0.932 . S
H397 C379 0.929 . S
H398 C380 0.928 . S
H399 C382 0.932 . S
C400 C401 1.264 . S
C400 C405 1.479 . S
C400 C410 1.465 . S
C401 C400 1.264 . S
C401 C403 1.339 . S
C401 H428 0.931 . S
C402 C403 1.395 . S
C402 C404 1.320 . S
C403 C401 1.339 . S
C403 C402 1.395 . S
C403 H429 0.929 . S
C404 C402 1.320 . S
C404 C405 1.405 . S
C404 H430 0.930 . S
C405 C400 1.479 . S
C405 C404 1.405 . S
C405 H431 0.931 . S
U406 O407 2.454 . S
U406 O408 2.458 . S
U406 C409 2.984 . S
U406 C410 2.847 . S
U406 C423 2.882 . S
U406 O424 2.441 . S
U406 O425 2.420 . S
U406 O426 2.455 . S
U406 O427 2.449 . S
O407 U406 2.454 . S
O407 C409 1.353 . S
O408 U406 2.458 . S
O408 C409 1.286 . S
C409 U406 2.984 . S
C409 O407 1.353 . S
C409 O408 1.286 . S
C409 C411 1.363 . S
C410 C400 1.465 . S
C410 U406 2.847 . S
C410 O424 1.249 . S
C410 O425 1.202 . S
C411 C409 1.363 . S
C411 C413 1.408 . S
C411 C416 1.342 . S
C412 C413 1.310 . S
C412 C415 1.461 . S
C412 H432 0.932 . S
C413 C411 1.408 . S
C413 C412 1.310 . S
C413 H433 0.930 . S
C414 C415 1.474 . S
C414 C416 1.285 . S
C414 H434 0.929 . S
C415 C412 1.461 . S
C415 C414 1.474 . S
C416 C411 1.342 . S
C416 C414 1.285 . S
C416 H435 0.930 . S
C417 C420 1.424 . S
C417 C422 1.245 . S
C417 C423 1.428 . S
C418 C421 1.260 . S
C418 C422 1.477 . S
C418 H436 0.932 . S
C419 C420 1.384 . S
C419 C421 1.479 . S
C419 H437 0.929 . S
C420 C417 1.424 . S
C420 C419 1.384 . S
C420 H438 0.928 . S
C421 C418 1.260 . S
C421 C419 1.479 . S
C422 C417 1.245 . S
C422 C418 1.477 . S
C422 H439 0.932 . S
C423 U406 2.882 . S
C423 C417 1.428 . S
C423 O426 1.301 . S
C423 O427 1.282 . S
O424 U406 2.441 . S
O424 C410 1.249 . S
O425 U406 2.420 . S
O425 C410 1.202 . S
O426 U406 2.455 . S
O426 C423 1.301 . S
O427 U406 2.449 . S
O427 C423 1.282 . S
H428 C401 0.931 . S
H429 C403 0.929 . S
H430 C404 0.930 . S
H431 C405 0.931 . S
H432 C412 0.932 . S
H433 C413 0.930 . S
H434 C414 0.929 . S
H435 C416 0.930 . S
H436 C418 0.932 . S
H437 C419 0.929 . S
H438 C420 0.928 . S
H439 C422 0.932 . S
C440 C441 1.264 . S
C440 C445 1.479 . S
C440 C450 1.465 . S
C441 C440 1.264 . S
C441 C443 1.339 . S
C441 H468 0.931 . S
C442 C443 1.395 . S
C442 C444 1.320 . S
C443 C441 1.339 . S
C443 C442 1.395 . S
C443 H469 0.929 . S
C444 C442 1.320 . S
C444 C445 1.405 . S
C444 H470 0.930 . S
C445 C440 1.479 . S
C445 C444 1.405 . S
C445 H471 0.931 . S
U446 O447 2.454 . S
U446 O448 2.458 . S
U446 C449 2.984 . S
U446 C450 2.847 . S
U446 C463 2.882 . S
U446 O464 2.441 . S
U446 O465 2.420 . S
U446 O466 2.455 . S
U446 O467 2.449 . S
O447 U446 2.454 . S
O447 C449 1.353 . S
O448 U446 2.458 . S
O448 C449 1.286 . S
C449 U446 2.984 . S
C449 O447 1.353 . S
C449 O448 1.286 . S
C449 C451 1.363 . S
C450 C440 1.465 . S
C450 U446 2.847 . S
C450 O464 1.249 . S
C450 O465 1.202 . S
C451 C449 1.363 . S
C451 C453 1.408 . S
C451 C456 1.342 . S
C452 C453 1.310 . S
C452 C455 1.461 . S
C452 H472 0.932 . S
C453 C451 1.408 . S
C453 C452 1.310 . S
C453 H473 0.930 . S
C454 C455 1.474 . S
C454 C456 1.285 . S
C454 H474 0.929 . S
C455 C452 1.461 . S
C455 C454 1.474 . S
C456 C451 1.342 . S
C456 C454 1.285 . S
C456 H475 0.930 . S
C457 C460 1.424 . S
C457 C462 1.245 . S
C457 C463 1.428 . S
C458 C461 1.260 . S
C458 C462 1.477 . S
C458 H476 0.932 . S
C459 C460 1.384 . S
C459 C461 1.479 . S
C459 H477 0.929 . S
C460 C457 1.424 . S
C460 C459 1.384 . S
C460 H478 0.928 . S
C461 C458 1.260 . S
C461 C459 1.479 . S
C462 C457 1.245 . S
C462 C458 1.477 . S
C462 H479 0.932 . S
C463 U446 2.882 . S
C463 C457 1.428 . S
C463 O466 1.301 . S
C463 O467 1.282 . S
O464 U446 2.441 . S
O464 C450 1.249 . S
O465 U446 2.420 . S
O465 C450 1.202 . S
O466 U446 2.455 . S
O466 C463 1.301 . S
O467 U446 2.449 . S
O467 C463 1.282 . S
H468 C441 0.931 . S
H469 C443 0.929 . S
H470 C444 0.930 . S
H471 C445 0.931 . S
H472 C452 0.932 . S
H473 C453 0.930 . S
H474 C454 0.929 . S
H475 C456 0.930 . S
H476 C458 0.932 . S
H477 C459 0.929 . S
H478 C460 0.928 . S
H479 C462 0.932 . S
H480 C488 0.929 . S
H481 C490 0.930 . S
H482 C492 0.930 . S
H483 C495 0.929 . S
H484 C498 0.930 . S
H485 C500 0.960 . S
H486 C500 0.960 . S
H487 C500 0.960 . S
C488 H480 0.929 . S
C488 C489 1.377 . S
C488 C490 1.384 . S
C489 C488 1.377 . S
C489 C495 1.390 . S
C490 H481 0.930 . S
C490 C488 1.384 . S
C490 C491 1.372 . S
C491 C490 1.372 . S
C491 C492 1.400 . S
C491 C496 1.490 . S
C492 H482 0.930 . S
C492 C491 1.400 . S
C492 C495 1.386 . S
H493 C509 0.930 . S
H494 C510 0.931 . S
C495 H483 0.929 . S
C495 C489 1.390 . S
C495 C492 1.386 . S
C496 C491 1.490 . S
C496 C498 1.395 . S
C496 C499 1.403 . S
H497 C503 0.930 . S
C498 H484 0.930 . S
C498 C496 1.395 . S
C498 C501 1.403 . S
C499 C496 1.403 . S
C499 C500 1.524 . S
C499 C503 1.400 . S
C500 H485 0.960 . S
C500 H486 0.960 . S
C500 H487 0.960 . S
C500 C499 1.524 . S
C501 C498 1.403 . S
C501 C502 1.392 . S
C501 C505 1.495 . S
C502 C501 1.392 . S
C502 C503 1.385 . S
C502 C504 1.478 . S
C503 H497 0.930 . S
C503 C499 1.400 . S
C503 C502 1.385 . S
C504 C502 1.478 . S
C504 C506 1.381 . S
C504 C510 1.383 . S
C505 C501 1.495 . S
C505 H511 0.959 . S
C505 H512 0.961 . S
C505 H513 0.960 . S
C506 C504 1.381 . S
C506 C507 1.394 . S
C506 H514 0.930 . S
C507 C506 1.394 . S
C507 C508 1.383 . S
C507 H515 0.929 . S
C508 C507 1.383 . S
C508 C509 1.377 . S
C509 H493 0.930 . S
C509 C508 1.377 . S
C509 C510 1.379 . S
C510 H494 0.931 . S
C510 C504 1.383 . S
C510 C509 1.379 . S
H511 C505 0.959 . S
H512 C505 0.961 . S
H513 C505 0.960 . S
H514 C506 0.930 . S
H515 C507 0.929 . S
H516 C524 0.929 . S
H517 C526 0.930 . S
H518 C528 0.930 . S
H519 C531 0.929 . S
H520 C534 0.930 . S
H521 C536 0.960 . S
H522 C536 0.960 . S
H523 C536 0.960 . S
C524 H516 0.929 . S
C524 C525 1.377 . S
C524 C526 1.384 . S
C525 C524 1.377 . S
C525 C531 1.390 . S
C526 H517 0.930 . S
C526 C524 1.384 . S
C526 C527 1.372 . S
C527 C526 1.372 . S
C527 C528 1.400 . S
C527 C532 1.490 . S
C528 H518 0.930 . S
C528 C527 1.400 . S
C528 C531 1.386 . S
H529 C545 0.930 . S
H530 C546 0.931 . S
C531 H519 0.929 . S
C531 C525 1.390 . S
C531 C528 1.386 . S
C532 C527 1.490 . S
C532 C534 1.395 . S
C532 C535 1.403 . S
H533 C539 0.930 . S
C534 H520 0.930 . S
C534 C532 1.395 . S
C534 C537 1.403 . S
C535 C532 1.403 . S
C535 C536 1.524 . S
C535 C539 1.400 . S
C536 H521 0.960 . S
C536 H522 0.960 . S
C536 H523 0.960 . S
C536 C535 1.524 . S
C537 C534 1.403 . S
C537 C538 1.392 . S
C537 C541 1.495 . S
C538 C537 1.392 . S
C538 C539 1.385 . S
C538 C540 1.478 . S
C539 H533 0.930 . S
C539 C535 1.400 . S
C539 C538 1.385 . S
C540 C538 1.478 . S
C540 C542 1.381 . S
C540 C546 1.383 . S
C541 C537 1.495 . S
C541 H547 0.959 . S
C541 H548 0.961 . S
C541 H549 0.960 . S
C542 C540 1.381 . S
C542 C543 1.394 . S
C542 H550 0.930 . S
C543 C542 1.394 . S
C543 C544 1.383 . S
C543 H551 0.929 . S
C544 C543 1.383 . S
C544 C545 1.377 . S
C545 H529 0.930 . S
C545 C544 1.377 . S
C545 C546 1.379 . S
C546 H530 0.931 . S
C546 C540 1.383 . S
C546 C545 1.379 . S
H547 C541 0.959 . S
H548 C541 0.961 . S
H549 C541 0.960 . S
H550 C542 0.930 . S
H551 C543 0.929 . S
H552 C560 0.929 . S
H553 C562 0.930 . S
H554 C564 0.930 . S
H555 C567 0.929 . S
H556 C570 0.930 . S
H557 C572 0.960 . S
H558 C572 0.960 . S
H559 C572 0.960 . S
C560 H552 0.929 . S
C560 C561 1.377 . S
C560 C562 1.384 . S
C561 C560 1.377 . S
C561 C567 1.390 . S
C562 H553 0.930 . S
C562 C560 1.384 . S
C562 C563 1.372 . S
C563 C562 1.372 . S
C563 C564 1.400 . S
C563 C568 1.490 . S
C564 H554 0.930 . S
C564 C563 1.400 . S
C564 C567 1.386 . S
H565 C581 0.930 . S
H566 C582 0.931 . S
C567 H555 0.929 . S
C567 C561 1.390 . S
C567 C564 1.386 . S
C568 C563 1.490 . S
C568 C570 1.395 . S
C568 C571 1.403 . S
H569 C575 0.930 . S
C570 H556 0.930 . S
C570 C568 1.395 . S
C570 C573 1.403 . S
C571 C568 1.403 . S
C571 C572 1.524 . S
C571 C575 1.400 . S
C572 H557 0.960 . S
C572 H558 0.960 . S
C572 H559 0.960 . S
C572 C571 1.524 . S
C573 C570 1.403 . S
C573 C574 1.392 . S
C573 C577 1.495 . S
C574 C573 1.392 . S
C574 C575 1.385 . S
C574 C576 1.478 . S
C575 H569 0.930 . S
C575 C571 1.400 . S
C575 C574 1.385 . S
C576 C574 1.478 . S
C576 C578 1.381 . S
C576 C582 1.383 . S
C577 C573 1.495 . S
C577 H583 0.959 . S
C577 H584 0.961 . S
C577 H585 0.960 . S
C578 C576 1.381 . S
C578 C579 1.394 . S
C578 H586 0.930 . S
C579 C578 1.394 . S
C579 C580 1.383 . S
C579 H587 0.929 . S
C580 C579 1.383 . S
C580 C581 1.377 . S
C581 H565 0.930 . S
C581 C580 1.377 . S
C581 C582 1.379 . S
C582 H566 0.931 . S
C582 C576 1.383 . S
C582 C581 1.379 . S
H583 C577 0.959 . S
H584 C577 0.961 . S
H585 C577 0.960 . S
H586 C578 0.930 . S
H587 C579 0.929 . S
H588 C596 0.929 . S
H589 C598 0.930 . S
H590 C600 0.930 . S
H591 C603 0.929 . S
H592 C606 0.930 . S
H593 C608 0.960 . S
H594 C608 0.960 . S
H595 C608 0.960 . S
C596 H588 0.929 . S
C596 C597 1.377 . S
C596 C598 1.384 . S
C597 C596 1.377 . S
C597 C603 1.390 . S
C598 H589 0.930 . S
C598 C596 1.384 . S
C598 C599 1.372 . S
C599 C598 1.372 . S
C599 C600 1.400 . S
C599 C604 1.490 . S
C600 H590 0.930 . S
C600 C599 1.400 . S
C600 C603 1.386 . S
H601 C617 0.930 . S
H602 C618 0.931 . S
C603 H591 0.929 . S
C603 C597 1.390 . S
C603 C600 1.386 . S
C604 C599 1.490 . S
C604 C606 1.395 . S
C604 C607 1.403 . S
H605 C611 0.930 . S
C606 H592 0.930 . S
C606 C604 1.395 . S
C606 C609 1.403 . S
C607 C604 1.403 . S
C607 C608 1.524 . S
C607 C611 1.400 . S
C608 H593 0.960 . S
C608 H594 0.960 . S
C608 H595 0.960 . S
C608 C607 1.524 . S
C609 C606 1.403 . S
C609 C610 1.392 . S
C609 C613 1.495 . S
C610 C609 1.392 . S
C610 C611 1.385 . S
C610 C612 1.478 . S
C611 H605 0.930 . S
C611 C607 1.400 . S
C611 C610 1.385 . S
C612 C610 1.478 . S
C612 C614 1.381 . S
C612 C618 1.383 . S
C613 C609 1.495 . S
C613 H619 0.959 . S
C613 H620 0.961 . S
C613 H621 0.960 . S
C614 C612 1.381 . S
C614 C615 1.394 . S
C614 H622 0.930 . S
C615 C614 1.394 . S
C615 C616 1.383 . S
C615 H623 0.929 . S
C616 C615 1.383 . S
C616 C617 1.377 . S
C617 H601 0.930 . S
C617 C616 1.377 . S
C617 C618 1.379 . S
C618 H602 0.931 . S
C618 C612 1.383 . S
C618 C617 1.379 . S
H619 C613 0.959 . S
H620 C613 0.961 . S
H621 C613 0.960 . S
H622 C614 0.930 . S
H623 C615 0.929 . S
H624 C632 0.929 . S
H625 C634 0.930 . S
H626 C636 0.930 . S
H627 C639 0.929 . S
H628 C642 0.930 . S
H629 C644 0.960 . S
H630 C644 0.960 . S
H631 C644 0.960 . S
C632 H624 0.929 . S
C632 C633 1.377 . S
C632 C634 1.384 . S
C633 C632 1.377 . S
C633 C639 1.390 . S
C634 H625 0.930 . S
C634 C632 1.384 . S
C634 C635 1.372 . S
C635 C634 1.372 . S
C635 C636 1.400 . S
C635 C640 1.490 . S
C636 H626 0.930 . S
C636 C635 1.400 . S
C636 C639 1.386 . S
H637 C653 0.930 . S
H638 C654 0.931 . S
C639 H627 0.929 . S
C639 C633 1.390 . S
C639 C636 1.386 . S
C640 C635 1.490 . S
C640 C642 1.395 . S
C640 C643 1.403 . S
H641 C647 0.930 . S
C642 H628 0.930 . S
C642 C640 1.395 . S
C642 C645 1.403 . S
C643 C640 1.403 . S
C643 C644 1.524 . S
C643 C647 1.400 . S
C644 H629 0.960 . S
C644 H630 0.960 . S
C644 H631 0.960 . S
C644 C643 1.524 . S
C645 C642 1.403 . S
C645 C646 1.392 . S
C645 C649 1.495 . S
C646 C645 1.392 . S
C646 C647 1.385 . S
C646 C648 1.478 . S
C647 H641 0.930 . S
C647 C643 1.400 . S
C647 C646 1.385 . S
C648 C646 1.478 . S
C648 C650 1.381 . S
C648 C654 1.383 . S
C649 C645 1.495 . S
C649 H655 0.959 . S
C649 H656 0.961 . S
C649 H657 0.960 . S
C650 C648 1.381 . S
C650 C651 1.394 . S
C650 H658 0.930 . S
C651 C650 1.394 . S
C651 C652 1.383 . S
C651 H659 0.929 . S
C652 C651 1.383 . S
C652 C653 1.377 . S
C653 H637 0.930 . S
C653 C652 1.377 . S
C653 C654 1.379 . S
C654 H638 0.931 . S
C654 C648 1.383 . S
C654 C653 1.379 . S
H655 C649 0.959 . S
H656 C649 0.961 . S
H657 C649 0.960 . S
H658 C650 0.930 . S
H659 C651 0.929 . S
H660 C668 0.929 . S
H661 C670 0.930 . S
H662 C672 0.930 . S
H663 C675 0.929 . S
H664 C678 0.930 . S
H665 C680 0.960 . S
H666 C680 0.960 . S
H667 C680 0.960 . S
C668 H660 0.929 . S
C668 C669 1.377 . S
C668 C670 1.384 . S
C669 C668 1.377 . S
C669 C675 1.390 . S
C670 H661 0.930 . S
C670 C668 1.384 . S
C670 C671 1.372 . S
C671 C670 1.372 . S
C671 C672 1.400 . S
C671 C676 1.490 . S
C672 H662 0.930 . S
C672 C671 1.400 . S
C672 C675 1.386 . S
H673 C689 0.930 . S
H674 C690 0.931 . S
C675 H663 0.929 . S
C675 C669 1.390 . S
C675 C672 1.386 . S
C676 C671 1.490 . S
C676 C678 1.395 . S
C676 C679 1.403 . S
H677 C683 0.930 . S
C678 H664 0.930 . S
C678 C676 1.395 . S
C678 C681 1.403 . S
C679 C676 1.403 . S
C679 C680 1.524 . S
C679 C683 1.400 . S
C680 H665 0.960 . S
C680 H666 0.960 . S
C680 H667 0.960 . S
C680 C679 1.524 . S
C681 C678 1.403 . S
C681 C682 1.392 . S
C681 C685 1.495 . S
C682 C681 1.392 . S
C682 C683 1.385 . S
C682 C684 1.478 . S
C683 H677 0.930 . S
C683 C679 1.400 . S
C683 C682 1.385 . S
C684 C682 1.478 . S
C684 C686 1.381 . S
C684 C690 1.383 . S
C685 C681 1.495 . S
C685 H691 0.959 . S
C685 H692 0.961 . S
C685 H693 0.960 . S
C686 C684 1.381 . S
C686 C687 1.394 . S
C686 H694 0.930 . S
C687 C686 1.394 . S
C687 C688 1.383 . S
C687 H695 0.929 . S
C688 C687 1.383 . S
C688 C689 1.377 . S
C689 H673 0.930 . S
C689 C688 1.377 . S
C689 C690 1.379 . S
C690 H674 0.931 . S
C690 C684 1.383 . S
C690 C689 1.379 . S
H691 C685 0.959 . S
H692 C685 0.961 . S
H693 C685 0.960 . S
H694 C686 0.930 . S
H695 C687 0.929 . S
H696 C704 0.929 . S
H697 C706 0.930 . S
H698 C708 0.930 . S
H699 C711 0.929 . S
H700 C714 0.930 . S
H701 C716 0.960 . S
H702 C716 0.960 . S
H703 C716 0.960 . S
C704 H696 0.929 . S
C704 C705 1.377 . S
C704 C706 1.384 . S
C705 C704 1.377 . S
C705 C711 1.390 . S
C706 H697 0.930 . S
C706 C704 1.384 . S
C706 C707 1.372 . S
C707 C706 1.372 . S
C707 C708 1.400 . S
C707 C712 1.490 . S
C708 H698 0.930 . S
C708 C707 1.400 . S
C708 C711 1.386 . S
H709 C725 0.930 . S
H710 C726 0.931 . S
C711 H699 0.929 . S
C711 C705 1.390 . S
C711 C708 1.386 . S
C712 C707 1.490 . S
C712 C714 1.395 . S
C712 C715 1.403 . S
H713 C719 0.930 . S
C714 H700 0.930 . S
C714 C712 1.395 . S
C714 C717 1.403 . S
C715 C712 1.403 . S
C715 C716 1.524 . S
C715 C719 1.400 . S
C716 H701 0.960 . S
C716 H702 0.960 . S
C716 H703 0.960 . S
C716 C715 1.524 . S
C717 C714 1.403 . S
C717 C718 1.392 . S
C717 C721 1.495 . S
C718 C717 1.392 . S
C718 C719 1.385 . S
C718 C720 1.478 . S
C719 H713 0.930 . S
C719 C715 1.400 . S
C719 C718 1.385 . S
C720 C718 1.478 . S
C720 C722 1.381 . S
C720 C726 1.383 . S
C721 C717 1.495 . S
C721 H727 0.959 . S
C721 H728 0.961 . S
C721 H729 0.960 . S
C722 C720 1.381 . S
C722 C723 1.394 . S
C722 H730 0.930 . S
C723 C722 1.394 . S
C723 C724 1.383 . S
C723 H731 0.929 . S
C724 C723 1.383 . S
C724 C725 1.377 . S
C725 H709 0.930 . S
C725 C724 1.377 . S
C725 C726 1.379 . S
C726 H710 0.931 . S
C726 C720 1.383 . S
C726 C725 1.379 . S
H727 C721 0.959 . S
H728 C721 0.961 . S
H729 C721 0.960 . S
H730 C722 0.930 . S
H731 C723 0.929 . S
H732 C740 0.929 . S
H733 C742 0.930 . S
H734 C744 0.930 . S
H735 C747 0.929 . S
H736 C750 0.930 . S
H737 C752 0.960 . S
H738 C752 0.960 . S
H739 C752 0.960 . S
C740 H732 0.929 . S
C740 C741 1.377 . S
C740 C742 1.384 . S
C741 C740 1.377 . S
C741 C747 1.390 . S
C742 H733 0.930 . S
C742 C740 1.384 . S
C742 C743 1.372 . S
C743 C742 1.372 . S
C743 C744 1.400 . S
C743 C748 1.490 . S
C744 H734 0.930 . S
C744 C743 1.400 . S
C744 C747 1.386 . S
H745 C761 0.930 . S
H746 C762 0.931 . S
C747 H735 0.929 . S
C747 C741 1.390 . S
C747 C744 1.386 . S
C748 C743 1.490 . S
C748 C750 1.395 . S
C748 C751 1.403 . S
H749 C755 0.930 . S
C750 H736 0.930 . S
C750 C748 1.395 . S
C750 C753 1.403 . S
C751 C748 1.403 . S
C751 C752 1.524 . S
C751 C755 1.400 . S
C752 H737 0.960 . S
C752 H738 0.960 . S
C752 H739 0.960 . S
C752 C751 1.524 . S
C753 C750 1.403 . S
C753 C754 1.392 . S
C753 C757 1.495 . S
C754 C753 1.392 . S
C754 C755 1.385 . S
C754 C756 1.478 . S
C755 H749 0.930 . S
C755 C751 1.400 . S
C755 C754 1.385 . S
C756 C754 1.478 . S
C756 C758 1.381 . S
C756 C762 1.383 . S
C757 C753 1.495 . S
C757 H763 0.959 . S
C757 H764 0.961 . S
C757 H765 0.960 . S
C758 C756 1.381 . S
C758 C759 1.394 . S
C758 H766 0.930 . S
C759 C758 1.394 . S
C759 C760 1.383 . S
C759 H767 0.929 . S
C760 C759 1.383 . S
C760 C761 1.377 . S
C761 H745 0.930 . S
C761 C760 1.377 . S
C761 C762 1.379 . S
C762 H746 0.931 . S
C762 C756 1.383 . S
C762 C761 1.379 . S
H763 C757 0.959 . S
H764 C757 0.961 . S
H765 C757 0.960 . S
H766 C758 0.930 . S
H767 C759 0.929 . S
H768 C776 0.929 . S
H769 C778 0.930 . S
H770 C780 0.930 . S
H771 C783 0.929 . S
H772 C786 0.930 . S
H773 C788 0.960 . S
H774 C788 0.960 . S
H775 C788 0.960 . S
C776 H768 0.929 . S
C776 C777 1.377 . S
C776 C778 1.384 . S
C777 C776 1.377 . S
C777 C783 1.390 . S
C778 H769 0.930 . S
C778 C776 1.384 . S
C778 C779 1.372 . S
C779 C778 1.372 . S
C779 C780 1.400 . S
C779 C784 1.490 . S
C780 H770 0.930 . S
C780 C779 1.400 . S
C780 C783 1.386 . S
H781 C797 0.930 . S
H782 C798 0.931 . S
C783 H771 0.929 . S
C783 C777 1.390 . S
C783 C780 1.386 . S
C784 C779 1.490 . S
C784 C786 1.395 . S
C784 C787 1.403 . S
H785 C791 0.930 . S
C786 H772 0.930 . S
C786 C784 1.395 . S
C786 C789 1.403 . S
C787 C784 1.403 . S
C787 C788 1.524 . S
C787 C791 1.400 . S
C788 H773 0.960 . S
C788 H774 0.960 . S
C788 H775 0.960 . S
C788 C787 1.524 . S
C789 C786 1.403 . S
C789 C790 1.392 . S
C789 C793 1.495 . S
C790 C789 1.392 . S
C790 C791 1.385 . S
C790 C792 1.478 . S
C791 H785 0.930 . S
C791 C787 1.400 . S
C791 C790 1.385 . S
C792 C790 1.478 . S
C792 C794 1.381 . S
C792 C798 1.383 . S
C793 C789 1.495 . S
C793 H799 0.959 . S
C793 H800 0.961 . S
C793 H801 0.960 . S
C794 C792 1.381 . S
C794 C795 1.394 . S
C794 H802 0.930 . S
C795 C794 1.394 . S
C795 C796 1.383 . S
C795 H803 0.929 . S
C796 C795 1.383 . S
C796 C797 1.377 . S
C797 H781 0.930 . S
C797 C796 1.377 . S
C797 C798 1.379 . S
C798 H782 0.931 . S
C798 C792 1.383 . S
C798 C797 1.379 . S
H799 C793 0.959 . S
H800 C793 0.961 . S
H801 C793 0.960 . S
H802 C794 0.930 . S
H803 C795 0.929 . S
H804 C812 0.929 . S
H805 C814 0.930 . S
H806 C816 0.930 . S
H807 C819 0.929 . S
H808 C822 0.930 . S
H809 C824 0.960 . S
H810 C824 0.960 . S
H811 C824 0.960 . S
C812 H804 0.929 . S
C812 C813 1.377 . S
C812 C814 1.384 . S
C813 C812 1.377 . S
C813 C819 1.390 . S
C814 H805 0.930 . S
C814 C812 1.384 . S
C814 C815 1.372 . S
C815 C814 1.372 . S
C815 C816 1.400 . S
C815 C820 1.490 . S
C816 H806 0.930 . S
C816 C815 1.400 . S
C816 C819 1.386 . S
H817 C833 0.930 . S
H818 C834 0.931 . S
C819 H807 0.929 . S
C819 C813 1.390 . S
C819 C816 1.386 . S
C820 C815 1.490 . S
C820 C822 1.395 . S
C820 C823 1.403 . S
H821 C827 0.930 . S
C822 H808 0.930 . S
C822 C820 1.395 . S
C822 C825 1.403 . S
C823 C820 1.403 . S
C823 C824 1.524 . S
C823 C827 1.400 . S
C824 H809 0.960 . S
C824 H810 0.960 . S
C824 H811 0.960 . S
C824 C823 1.524 . S
C825 C822 1.403 . S
C825 C826 1.392 . S
C825 C829 1.495 . S
C826 C825 1.392 . S
C826 C827 1.385 . S
C826 C828 1.478 . S
C827 H821 0.930 . S
C827 C823 1.400 . S
C827 C826 1.385 . S
C828 C826 1.478 . S
C828 C830 1.381 . S
C828 C834 1.383 . S
C829 C825 1.495 . S
C829 H835 0.959 . S
C829 H836 0.961 . S
C829 H837 0.960 . S
C830 C828 1.381 . S
C830 C831 1.394 . S
C830 H838 0.930 . S
C831 C830 1.394 . S
C831 C832 1.383 . S
C831 H839 0.929 . S
C832 C831 1.383 . S
C832 C833 1.377 . S
C833 H817 0.930 . S
C833 C832 1.377 . S
C833 C834 1.379 . S
C834 H818 0.931 . S
C834 C828 1.383 . S
C834 C833 1.379 . S
H835 C829 0.959 . S
H836 C829 0.961 . S
H837 C829 0.960 . S
H838 C830 0.930 . S
H839 C831 0.929 . S
H840 C848 0.929 . S
H841 C850 0.930 . S
H842 C852 0.930 . S
H843 C855 0.929 . S
H844 C858 0.930 . S
H845 C860 0.960 . S
H846 C860 0.960 . S
H847 C860 0.960 . S
C848 H840 0.929 . S
C848 C849 1.377 . S
C848 C850 1.384 . S
C849 C848 1.377 . S
C849 C855 1.390 . S
C850 H841 0.930 . S
C850 C848 1.384 . S
C850 C851 1.372 . S
C851 C850 1.372 . S
C851 C852 1.400 . S
C851 C856 1.490 . S
C852 H842 0.930 . S
C852 C851 1.400 . S
C852 C855 1.386 . S
H853 C869 0.930 . S
H854 C870 0.931 . S
C855 H843 0.929 . S
C855 C849 1.390 . S
C855 C852 1.386 . S
C856 C851 1.490 . S
C856 C858 1.395 . S
C856 C859 1.403 . S
H857 C863 0.930 . S
C858 H844 0.930 . S
C858 C856 1.395 . S
C858 C861 1.403 . S
C859 C856 1.403 . S
C859 C860 1.524 . S
C859 C863 1.400 . S
C860 H845 0.960 . S
C860 H846 0.960 . S
C860 H847 0.960 . S
C860 C859 1.524 . S
C861 C858 1.403 . S
C861 C862 1.392 . S
C861 C865 1.495 . S
C862 C861 1.392 . S
C862 C863 1.385 . S
C862 C864 1.478 . S
C863 H857 0.930 . S
C863 C859 1.400 . S
C863 C862 1.385 . S
C864 C862 1.478 . S
C864 C866 1.381 . S
C864 C870 1.383 . S
C865 C861 1.495 . S
C865 H871 0.959 . S
C865 H872 0.961 . S
C865 H873 0.960 . S
C866 C864 1.381 . S
C866 C867 1.394 . S
C866 H874 0.930 . S
C867 C866 1.394 . S
C867 C868 1.383 . S
C867 H875 0.929 . S
C868 C867 1.383 . S
C868 C869 1.377 . S
C869 H853 0.930 . S
C869 C868 1.377 . S
C869 C870 1.379 . S
C870 H854 0.931 . S
C870 C864 1.383 . S
C870 C869 1.379 . S
H871 C865 0.959 . S
H872 C865 0.961 . S
H873 C865 0.960 . S
H874 C866 0.930 . S
H875 C867 0.929 . S
H876 C884 0.929 . S
H877 C886 0.930 . S
H878 C888 0.930 . S
H879 C891 0.929 . S
H880 C894 0.930 . S
H881 C896 0.960 . S
H882 C896 0.960 . S
H883 C896 0.960 . S
C884 H876 0.929 . S
C884 C885 1.377 . S
C884 C886 1.384 . S
C885 C884 1.377 . S
C885 C891 1.390 . S
C886 H877 0.930 . S
C886 C884 1.384 . S
C886 C887 1.372 . S
C887 C886 1.372 . S
C887 C888 1.400 . S
C887 C892 1.490 . S
C888 H878 0.930 . S
C888 C887 1.400 . S
C888 C891 1.386 . S
H889 C905 0.930 . S
H890 C906 0.931 . S
C891 H879 0.929 . S
C891 C885 1.390 . S
C891 C888 1.386 . S
C892 C887 1.490 . S
C892 C894 1.395 . S
C892 C895 1.403 . S
H893 C899 0.930 . S
C894 H880 0.930 . S
C894 C892 1.395 . S
C894 C897 1.403 . S
C895 C892 1.403 . S
C895 C896 1.524 . S
C895 C899 1.400 . S
C896 H881 0.960 . S
C896 H882 0.960 . S
C896 H883 0.960 . S
C896 C895 1.524 . S
C897 C894 1.403 . S
C897 C898 1.392 . S
C897 C901 1.495 . S
C898 C897 1.392 . S
C898 C899 1.385 . S
C898 C900 1.478 . S
C899 H893 0.930 . S
C899 C895 1.400 . S
C899 C898 1.385 . S
C900 C898 1.478 . S
C900 C902 1.381 . S
C900 C906 1.383 . S
C901 C897 1.495 . S
C901 H907 0.959 . S
C901 H908 0.961 . S
C901 H909 0.960 . S
C902 C900 1.381 . S
C902 C903 1.394 . S
C902 H910 0.930 . S
C903 C902 1.394 . S
C903 C904 1.383 . S
C903 H911 0.929 . S
C904 C903 1.383 . S
C904 C905 1.377 . S
C905 H889 0.930 . S
C905 C904 1.377 . S
C905 C906 1.379 . S
C906 H890 0.931 . S
C906 C900 1.383 . S
C906 C905 1.379 . S
H907 C901 0.959 . S
H908 C901 0.961 . S
H909 C901 0.960 . S
H910 C902 0.930 . S
H911 C903 0.929 . S
H912 C920 0.929 . S
H913 C922 0.930 . S
H914 C924 0.930 . S
H915 C927 0.929 . S
H916 C930 0.930 . S
H917 C932 0.960 . S
H918 C932 0.960 . S
H919 C932 0.960 1_545 S
C920 H912 0.929 . S
C920 C921 1.377 . S
C920 C922 1.384 . S
C921 C920 1.377 . S
C921 C927 1.390 . S
C922 H913 0.930 . S
C922 C920 1.384 . S
C922 C923 1.372 . S
C923 C922 1.372 . S
C923 C924 1.400 . S
C923 C928 1.490 . S
C924 H914 0.930 . S
C924 C923 1.400 . S
C924 C927 1.386 . S
H925 C941 0.930 . S
H926 C942 0.931 . S
C927 H915 0.929 . S
C927 C921 1.390 . S
C927 C924 1.386 . S
C928 C923 1.490 . S
C928 C930 1.350 1_554 S
C928 C931 1.403 1_545 S
H929 C935 0.930 . S
C930 H916 0.930 . S
C930 C928 1.350 1_556 S
C930 C933 1.449 . S
C931 C928 1.403 1_565 S
C931 C932 1.524 . S
C931 C935 1.372 1_554 S
C932 H917 0.960 . S
C932 H918 0.960 . S
C932 H919 0.960 1_565 S
C932 C931 1.524 . S
C933 C930 1.449 . S
C933 C934 1.392 1_545 S
C933 C937 1.495 . S
C934 C933 1.392 1_565 S
C934 C935 1.414 . S
C934 C936 1.478 . S
C935 H929 0.930 . S
C935 C931 1.372 1_556 S
C935 C934 1.414 . S
C936 C934 1.478 . S
C936 C938 1.381 . S
C936 C942 1.383 . S
C937 C933 1.495 . S
C937 H943 0.959 . S
C937 H944 0.961 . S
C937 H945 0.960 1_545 S
C938 C936 1.381 . S
C938 C939 1.394 . S
C938 H946 0.930 . S
C939 C938 1.394 . S
C939 C940 1.383 . S
C939 H947 0.929 . S
C940 C939 1.383 . S
C940 C941 1.377 . S
C941 H925 0.930 . S
C941 C940 1.377 . S
C941 C942 1.379 . S
C942 H926 0.931 . S
C942 C936 1.383 . S
C942 C941 1.379 . S
H943 C937 0.959 . S
H944 C937 0.961 . S
H945 C937 0.960 1_565 S
H946 C938 0.930 . S
H947 C939 0.929 . S
H948 C956 0.929 . S
H949 C958 0.930 . S
H950 C960 0.930 . S
H951 C963 0.929 . S
H952 C966 0.930 . S
H953 C968 0.960 . S
H954 C968 0.960 . S
H955 C968 0.960 . S
C956 H948 0.929 . S
C956 C957 1.377 . S
C956 C958 1.384 . S
C957 C956 1.377 . S
C957 C963 1.390 . S
C958 H949 0.930 . S
C958 C956 1.384 . S
C958 C959 1.372 . S
C959 C958 1.372 . S
C959 C960 1.400 . S
C959 C964 1.490 . S
C960 H950 0.930 . S
C960 C959 1.400 . S
C960 C963 1.386 . S
H961 C977 0.930 . S
H962 C978 0.931 . S
C963 H951 0.929 . S
C963 C957 1.390 . S
C963 C960 1.386 . S
C964 C959 1.490 . S
C964 C966 1.395 . S
C964 C967 1.403 . S
H965 C971 0.930 . S
C966 H952 0.930 . S
C966 C964 1.395 . S
C966 C969 1.403 . S
C967 C964 1.403 . S
C967 C968 1.524 . S
C967 C971 1.400 . S
C968 H953 0.960 . S
C968 H954 0.960 . S
C968 H955 0.960 . S
C968 C967 1.524 . S
C969 C966 1.403 . S
C969 C970 1.392 . S
C969 C973 1.495 . S
C970 C969 1.392 . S
C970 C971 1.385 . S
C970 C972 1.478 . S
C971 H965 0.930 . S
C971 C967 1.400 . S
C971 C970 1.385 . S
C972 C970 1.478 . S
C972 C974 1.381 . S
C972 C978 1.383 . S
C973 C969 1.495 . S
C973 H979 0.959 . S
C973 H980 0.961 . S
C973 H981 0.960 . S
C974 C972 1.381 . S
C974 C975 1.394 . S
C974 H982 0.930 . S
C975 C974 1.394 . S
C975 C976 1.383 . S
C975 H983 0.929 . S
C976 C975 1.383 . S
C976 C977 1.377 . S
C977 H961 0.930 . S
C977 C976 1.377 . S
C977 C978 1.379 . S
C978 H962 0.931 . S
C978 C972 1.383 . S
C978 C977 1.379 . S
H979 C973 0.959 . S
H980 C973 0.961 . S
H981 C973 0.960 . S
H982 C974 0.930 . S
H983 C975 0.929 . S
H984 C992 0.929 . S
H985 C994 0.930 . S
H986 C996 0.930 . S
H987 C999 0.929 . S
H988 C1002 0.930 . S
H989 C1004 0.948 1_655 S
H990 C1004 0.990 . S
H991 C1004 0.950 1_655 S
C992 H984 0.929 . S
C992 C993 1.377 . S
C992 C994 1.384 . S
C993 C992 1.377 . S
C993 C999 1.390 . S
C994 H985 0.930 . S
C994 C992 1.384 . S
C994 C995 1.372 . S
C995 C994 1.372 . S
C995 C996 1.400 . S
C995 C1000 1.490 . S
C996 H986 0.930 . S
C996 C995 1.400 . S
C996 C999 1.386 . S
H997 C1013 0.930 . S
H998 C1014 0.931 . S
C999 H987 0.929 . S
C999 C993 1.390 . S
C999 C996 1.386 . S
C1000 C995 1.490 . S
C1000 C1002 1.395 . S
C1000 C1003 1.425 . S
H1001 C1007 0.930 . S
C1002 H988 0.930 . S
C1002 C1000 1.395 . S
C1002 C1005 1.403 . S
C1003 C1000 1.425 . S
C1003 C1004 1.542 . S
C1003 C1007 1.351 1_455 S
C1004 H989 0.948 1_455 S
C1004 H990 0.990 . S
C1004 H991 0.950 1_455 S
C1004 C1003 1.542 . S
C1005 C1002 1.403 . S
C1005 C1006 1.392 1_455 S
C1005 C1009 1.495 . S
C1006 C1005 1.392 1_655 S
C1006 C1007 1.385 . S
C1006 C1008 1.478 . S
C1007 H1001 0.930 . S
C1007 C1003 1.351 1_655 S
C1007 C1006 1.385 . S
C1008 C1006 1.478 . S
C1008 C1010 1.381 . S
C1008 C1014 1.383 . S
C1009 C1005 1.495 . S
C1009 H1015 0.959 . S
C1009 H1016 0.961 1_455 S
C1009 H1017 0.960 . S
C1010 C1008 1.381 . S
C1010 C1011 1.394 . S
C1010 H1018 0.930 . S
C1011 C1010 1.394 . S
C1011 C1012 1.383 . S
C1011 H1019 0.929 . S
C1012 C1011 1.383 . S
C1012 C1013 1.377 . S
C1013 H997 0.930 . S
C1013 C1012 1.377 . S
C1013 C1014 1.379 . S
C1014 H998 0.931 . S
C1014 C1008 1.383 . S
C1014 C1013 1.379 . S
H1015 C1009 0.959 . S
H1016 C1009 0.961 1_655 S
H1017 C1009 0.960 . S
H1018 C1010 0.930 . S
H1019 C1011 0.929 . S
H1020 C1028 0.929 . S
H1021 C1030 0.930 . S
H1022 C1032 0.930 . S
H1023 C1035 0.929 . S
H1024 C1038 0.930 . S
H1025 C1040 0.960 . S
H1026 C1040 0.960 . S
H1027 C1040 0.960 . S
C1028 H1020 0.929 . S
C1028 C1029 1.377 . S
C1028 C1030 1.384 . S
C1029 C1028 1.377 . S
C1029 C1035 1.390 . S
C1030 H1021 0.930 . S
C1030 C1028 1.384 . S
C1030 C1031 1.372 . S
C1031 C1030 1.372 . S
C1031 C1032 1.400 . S
C1031 C1036 1.490 . S
C1032 H1022 0.930 . S
C1032 C1031 1.400 . S
C1032 C1035 1.386 . S
H1033 C1049 0.930 . S
H1034 C1050 0.931 . S
C1035 H1023 0.929 . S
C1035 C1029 1.390 . S
C1035 C1032 1.386 . S
C1036 C1031 1.490 . S
C1036 C1038 1.395 1_545 S
C1036 C1039 1.403 . S
H1037 C1043 0.921 . S
C1038 H1024 0.930 . S
C1038 C1036 1.395 1_565 S
C1038 C1041 1.403 . S
C1039 C1036 1.403 . S
C1039 C1040 1.524 . S
C1039 C1043 1.344 1_545 S
C1040 H1025 0.960 . S
C1040 H1026 0.960 . S
C1040 H1027 0.960 . S
C1040 C1039 1.524 . S
C1041 C1038 1.403 . S
C1041 C1042 1.392 . S
C1041 C1045 1.495 . S
C1042 C1041 1.392 . S
C1042 C1043 1.466 . S
C1042 C1044 1.478 . S
C1043 H1037 0.921 . S
C1043 C1039 1.344 1_565 S
C1043 C1042 1.466 . S
C1044 C1042 1.478 . S
C1044 C1046 1.381 . S
C1044 C1050 1.383 . S
C1045 C1041 1.495 . S
C1045 H1051 0.959 . S
C1045 H1052 0.961 . S
C1045 H1053 0.960 . S
C1046 C1044 1.381 . S
C1046 C1047 1.394 . S
C1046 H1054 0.930 . S
C1047 C1046 1.394 . S
C1047 C1048 1.383 . S
C1047 H1055 0.929 . S
C1048 C1047 1.383 . S
C1048 C1049 1.377 . S
C1049 H1033 0.930 . S
C1049 C1048 1.377 . S
C1049 C1050 1.379 . S
C1050 H1034 0.931 . S
C1050 C1044 1.383 . S
C1050 C1049 1.379 . S
H1051 C1045 0.959 . S
H1052 C1045 0.961 . S
H1053 C1045 0.960 . S
H1054 C1046 0.930 . S
H1055 C1047 0.929 . S
H1056 C1064 0.929 . S
H1057 C1066 0.930 . S
H1058 C1068 0.930 . S
H1059 C1071 0.929 . S
H1060 C1074 0.930 . S
H1061 C1076 0.960 . S
H1062 C1076 0.960 . S
H1063 C1076 0.960 . S
C1064 H1056 0.929 . S
C1064 C1065 1.377 . S
C1064 C1066 1.384 . S
C1065 C1064 1.377 . S
C1065 C1071 1.390 . S
C1066 H1057 0.930 . S
C1066 C1064 1.384 . S
C1066 C1067 1.372 . S
C1067 C1066 1.372 . S
C1067 C1068 1.400 . S
C1067 C1072 1.490 . S
C1068 H1058 0.930 . S
C1068 C1067 1.400 . S
C1068 C1071 1.386 . S
H1069 C1085 0.930 . S
H1070 C1086 0.931 . S
C1071 H1059 0.929 . S
C1071 C1065 1.390 . S
C1071 C1068 1.386 . S
C1072 C1067 1.490 . S
C1072 C1074 1.395 . S
C1072 C1075 1.403 . S
H1073 C1079 0.930 . S
C1074 H1060 0.930 . S
C1074 C1072 1.395 . S
C1074 C1077 1.403 . S
C1075 C1072 1.403 . S
C1075 C1076 1.524 . S
C1075 C1079 1.400 . S
C1076 H1061 0.960 . S
C1076 H1062 0.960 . S
C1076 H1063 0.960 . S
C1076 C1075 1.524 . S
C1077 C1074 1.403 . S
C1077 C1078 1.392 . S
C1077 C1081 1.495 . S
C1078 C1077 1.392 . S
C1078 C1079 1.385 . S
C1078 C1080 1.478 . S
C1079 H1073 0.930 . S
C1079 C1075 1.400 . S
C1079 C1078 1.385 . S
C1080 C1078 1.478 . S
C1080 C1082 1.381 . S
C1080 C1086 1.383 . S
C1081 C1077 1.495 . S
C1081 H1087 0.959 . S
C1081 H1088 0.961 . S
C1081 H1089 0.960 . S
C1082 C1080 1.381 . S
C1082 C1083 1.394 . S
C1082 H1090 0.930 . S
C1083 C1082 1.394 . S
C1083 C1084 1.383 . S
C1083 H1091 0.929 . S
C1084 C1083 1.383 . S
C1084 C1085 1.377 . S
C1085 H1069 0.930 . S
C1085 C1084 1.377 . S
C1085 C1086 1.379 . S
C1086 H1070 0.931 . S
C1086 C1080 1.383 . S
C1086 C1085 1.379 . S
H1087 C1081 0.959 . S
H1088 C1081 0.961 . S
H1089 C1081 0.960 . S
H1090 C1082 0.930 . S
H1091 C1083 0.929 . S
H1092 C1100 0.929 . S
H1093 C1102 0.930 . S
H1094 C1104 0.930 . S
H1095 C1107 0.929 . S
H1096 C1110 0.930 . S
H1097 C1112 0.960 1_455 S
H1098 C1112 0.967 . S
H1099 C1112 0.960 . S
C1100 H1092 0.929 . S
C1100 C1101 1.377 . S
C1100 C1102 1.384 . S
C1101 C1100 1.377 . S
C1101 C1107 1.390 . S
C1102 H1093 0.930 . S
C1102 C1100 1.384 . S
C1102 C1103 1.372 . S
C1103 C1102 1.372 . S
C1103 C1104 1.400 . S
C1103 C1108 1.490 . S
C1104 H1094 0.930 . S
C1104 C1103 1.400 . S
C1104 C1107 1.386 . S
H1105 C1121 0.930 . S
H1106 C1122 0.931 . S
C1107 H1095 0.929 . S
C1107 C1101 1.390 . S
C1107 C1104 1.386 . S
C1108 C1103 1.490 . S
C1108 C1110 1.395 . S
C1108 C1111 1.403 . S
H1109 C1115 0.930 . S
C1110 H1096 0.930 . S
C1110 C1108 1.395 . S
C1110 C1113 1.403 1_655 S
C1111 C1108 1.403 . S
C1111 C1112 1.524 . S
C1111 C1115 1.400 1_655 S
C1112 H1097 0.960 1_655 S
C1112 H1098 0.967 . S
C1112 H1099 0.960 . S
C1112 C1111 1.524 . S
C1113 C1110 1.403 1_455 S
C1113 C1114 1.392 . S
C1113 C1117 1.495 . S
C1114 C1113 1.392 . S
C1114 C1115 1.385 . S
C1114 C1116 1.478 . S
C1115 H1109 0.930 . S
C1115 C1111 1.400 1_455 S
C1115 C1114 1.385 . S
C1116 C1114 1.478 . S
C1116 C1118 1.381 . S
C1116 C1122 1.383 . S
C1117 C1113 1.495 . S
C1117 H1123 0.959 1_455 S
C1117 H1124 0.961 . S
C1117 H1125 0.960 . S
C1118 C1116 1.381 . S
C1118 C1119 1.394 . S
C1118 H1126 0.930 . S
C1119 C1118 1.394 . S
C1119 C1120 1.383 . S
C1119 H1127 0.929 . S
C1120 C1119 1.383 . S
C1120 C1121 1.377 . S
C1121 H1105 0.930 . S
C1121 C1120 1.377 . S
C1121 C1122 1.379 . S
C1122 H1106 0.931 . S
C1122 C1116 1.383 . S
C1122 C1121 1.379 . S
H1123 C1117 0.959 1_655 S
H1124 C1117 0.961 . S
H1125 C1117 0.960 . S
H1126 C1118 0.930 . S
H1127 C1119 0.929 . S
C489 C21 1.553 . S
C508 C421 1.554 . S
C525 C461 1.552 . S
C544 C61 1.553 . S
C561 C261 1.552 . S
C580 C101 1.550 . S
C597 C141 1.553 . S
C616 C301 1.553 . S
C633 C341 1.551 . S
C652 C181 1.551 . S
C669 C221 1.552 . S
C688 C381 1.552 . S
C705 C2 1.533 . S
C724 C322 1.520 . S
C741 C362 1.536 . S
C760 C42 1.533 . S
C777 C82 1.533 . S
C796 C402 1.539 . S
C813 C442 1.532 . S
C832 C122 1.524 . S
C849 C162 1.536 . S
C868 C242 1.532 . S
C885 C202 1.533 . S
C904 C282 1.537 . S
C921 C15 1.545 . S
C940 C295 1.545 . S
C957 C335 1.543 . S
C976 C55 1.544 . S
C993 C375 1.544 . S
C1012 C95 1.541 . S
C1029 C415 1.544 . S
C1048 C135 1.539 . S
C1065 C175 1.544 . S
C1084 C455 1.543 . S
C1101 C255 1.545 . S
C1120 C215 1.544 . S
