# Generated by pormake.
# Topology dia-f, (3)-cn, num edge types: 1
# Building blocks:
#     Node 0, Type 0, BuildingBlock: WUSLED_clean_sbu_0, # of connection points: 3
#     Node 1, Type 0, BuildingBlock: WUSLED_clean_sbu_0, # of connection points: 3
#     Node 2, Type 0, BuildingBlock: WUSLED_clean_sbu_0, # of connection points: 3
#     Node 3, Type 0, BuildingBlock: WUSLED_clean_sbu_0, # of connection points: 3
#     Node 4, Type 0, BuildingBlock: WUSLED_clean_sbu_0, # of connection points: 3
#     Node 5, Type 0, BuildingBlock: WUSLED_clean_sbu_0, # of connection points: 3
#     Node 6, Type 0, BuildingBlock: WUSLED_clean_sbu_0, # of connection points: 3
#     Node 7, Type 0, BuildingBlock: WUSLED_clean_sbu_0, # of connection points: 3
#     Node 8, Type 0, BuildingBlock: WUSLED_clean_sbu_0, # of connection points: 3
#     Node 9, Type 0, BuildingBlock: WUSLED_clean_sbu_0, # of connection points: 3
#     Node 10, Type 0, BuildingBlock: WUSLED_clean_sbu_0, # of connection points: 3
#     Node 11, Type 0, BuildingBlock: WUSLED_clean_sbu_0, # of connection points: 3
#     Node 12, Type 0, BuildingBlock: WUSLED_clean_sbu_0, # of connection points: 3
#     Node 13, Type 0, BuildingBlock: WUSLED_clean_sbu_0, # of connection points: 3
#     Node 14, Type 0, BuildingBlock: WUSLED_clean_sbu_0, # of connection points: 3
#     Node 15, Type 0, BuildingBlock: WUSLED_clean_sbu_0, # of connection points: 3
#     Edge 16, Type (0, 0), BuildingBlock: CIFDUS_clean_linker_0, # of connection points: 2
#     Edge 17, Type (0, 0), BuildingBlock: CIFDUS_clean_linker_0, # of connection points: 2
#     Edge 18, Type (0, 0), BuildingBlock: CIFDUS_clean_linker_0, # of connection points: 2
#     Edge 19, Type (0, 0), BuildingBlock: CIFDUS_clean_linker_0, # of connection points: 2
#     Edge 20, Type (0, 0), BuildingBlock: CIFDUS_clean_linker_0, # of connection points: 2
#     Edge 21, Type (0, 0), BuildingBlock: CIFDUS_clean_linker_0, # of connection points: 2
#     Edge 22, Type (0, 0), BuildingBlock: CIFDUS_clean_linker_0, # of connection points: 2
#     Edge 23, Type (0, 0), BuildingBlock: CIFDUS_clean_linker_0, # of connection points: 2
#     Edge 24, Type (0, 0), BuildingBlock: CIFDUS_clean_linker_0, # of connection points: 2
#     Edge 25, Type (0, 0), BuildingBlock: CIFDUS_clean_linker_0, # of connection points: 2
#     Edge 26, Type (0, 0), BuildingBlock: CIFDUS_clean_linker_0, # of connection points: 2
#     Edge 27, Type (0, 0), BuildingBlock: CIFDUS_clean_linker_0, # of connection points: 2
#     Edge 28, Type (0, 0), BuildingBlock: CIFDUS_clean_linker_0, # of connection points: 2
#     Edge 29, Type (0, 0), BuildingBlock: CIFDUS_clean_linker_0, # of connection points: 2
#     Edge 30, Type (0, 0), BuildingBlock: CIFDUS_clean_linker_0, # of connection points: 2
#     Edge 31, Type (0, 0), BuildingBlock: CIFDUS_clean_linker_0, # of connection points: 2
#     Edge 32, Type (0, 0), BuildingBlock: CIFDUS_clean_linker_0, # of connection points: 2
#     Edge 33, Type (0, 0), BuildingBlock: CIFDUS_clean_linker_0, # of connection points: 2
#     Edge 34, Type (0, 0), BuildingBlock: CIFDUS_clean_linker_0, # of connection points: 2
#     Edge 35, Type (0, 0), BuildingBlock: CIFDUS_clean_linker_0, # of connection points: 2
#     Edge 36, Type (0, 0), BuildingBlock: CIFDUS_clean_linker_0, # of connection points: 2
#     Edge 37, Type (0, 0), BuildingBlock: CIFDUS_clean_linker_0, # of connection points: 2
#     Edge 38, Type (0, 0), BuildingBlock: CIFDUS_clean_linker_0, # of connection points: 2
#     Edge 39, Type (0, 0), BuildingBlock: CIFDUS_clean_linker_0, # of connection points: 2
# Relax obj value: 0.109
# Max RMSD: 0.091
# Mean RMSD: 0.089
data_MOF--net-dia-f--node1-WUSLED_clean_sbu_0--edge1-CIFDUS_clean_linker_0
_symmetry_space_group_name_H-M    P1
_symmetry_Int_Tables_number       1
_symmetry_cell_setting            triclinic
loop_
_symmetry_equiv_pos_as_xyz
'x, y, z'
_cell_length_a     92.157623
_cell_length_b     92.047934
_cell_length_c     60.537409
_cell_angle_alpha  89.337666
_cell_angle_beta   90.242936
_cell_angle_gamma 90.551952
loop_
_atom_site_label
_atom_site_type_symbol
_atom_site_fract_x
_atom_site_fract_y
_atom_site_fract_z
_atom_type_partial_charge
C0 C 0.0252 0.61441 0.13186 0.0
C1 C 0.02928 0.62877 0.13672 0.0
C2 C 1.00394 0.63612 0.1354 0.0
C3 C 0.0187 0.63957 0.13839 0.0
C4 C 0.99983 0.6216 0.132 0.0
C5 C 1.01039 0.61084 0.13021 0.0
U6 U 0.06443 0.60113 0.12236 0.0
O7 O 0.07299 0.57874 0.12361 0.0
O8 O 0.07308 0.59115 0.09247 0.0
C9 C 0.0757 0.57865 0.10229 0.0
C10 C 0.03603 0.60357 0.12525 0.0
C11 C 0.07143 0.56555 0.08973 0.0
C12 C 0.0541 0.5517 0.0675 0.0
C13 C 0.05718 0.56314 0.08211 0.0
C14 C 0.07933 0.54471 0.06867 0.0
C15 C 0.06526 0.54262 0.06006 0.0
C16 C 0.08235 0.556 0.08331 0.0
C17 C 0.09652 0.62742 0.1377 0.0
C18 C 0.1212 0.62783 0.12327 0.0
C19 C 0.11357 0.6465 0.14837 0.0
C20 C 0.09986 0.63989 0.14988 0.0
C21 C 0.12435 0.64082 0.13459 0.0
C22 C 0.1074 0.62121 0.12478 0.0
C23 C 0.08124 0.62233 0.13697 0.0
O24 O 0.04353 0.6071 0.10757 0.0
O25 O 0.04401 0.59761 0.14091 0.0
O26 O 0.07763 0.61091 0.14909 0.0
O27 O 0.07507 0.62236 0.11738 0.0
H28 H 0.04064 0.63177 0.13803 0.0
H29 H 0.02208 0.65073 0.14098 0.0
H30 H 0.98852 0.61874 0.12944 0.0
H31 H 1.00702 0.59984 0.12632 0.0
H32 H 0.04314 0.55037 0.06125 0.0
H33 H 0.04857 0.5704 0.08684 0.0
H34 H 0.08812 0.53776 0.06368 0.0
H35 H 0.09341 0.55761 0.089 0.0
H36 H 0.12927 0.62298 0.11278 0.0
H37 H 0.1154 0.65655 0.15712 0.0
H38 H 0.09162 0.64493 0.15986 0.0
H39 H 0.10508 0.61156 0.11527 0.0
C40 C 0.70531 0.80401 0.37708 0.0
C41 C 0.69084 0.79954 0.38005 0.0
C42 C 0.68338 0.82474 0.38563 0.0
C43 C 0.68002 0.80977 0.38424 0.0
C44 C 0.698 0.82907 0.3833 0.0
C45 C 0.70881 0.81882 0.37907 0.0
U46 U 0.72037 0.76533 0.36805 0.0
O47 O 0.73124 0.75686 0.33866 0.0
O48 O 0.74289 0.75725 0.37037 0.0
C49 C 0.74337 0.75403 0.34928 0.0
C50 C 0.71663 0.79368 0.37013 0.0
C51 C 0.7571 0.75667 0.33719 0.0
C52 C 0.77318 0.77135 0.31378 0.0
C53 C 0.76075 0.77007 0.32721 0.0
C54 C 0.77845 0.746 0.32057 0.0
C55 C 0.78211 0.75924 0.31002 0.0
C56 C 0.76619 0.74478 0.33399 0.0
C57 C 0.69584 0.73202 0.38448 0.0
C58 C 0.69378 0.70824 0.36732 0.0
C59 C 0.67921 0.71362 0.39929 0.0
C60 C 0.68565 0.72746 0.40034 0.0
C61 C 0.68274 0.70405 0.38223 0.0
C62 C 0.70029 0.72209 0.36846 0.0
C63 C 0.69995 0.74764 0.38323 0.0
O64 O 0.72313 0.78609 0.38577 0.0
O65 O 0.71342 0.78588 0.35271 0.0
O66 O 0.69974 0.75363 0.36343 0.0
O67 O 0.71094 0.75211 0.39536 0.0
H68 H 0.68784 0.78819 0.37853 0.0
H69 H 0.66891 0.80594 0.38567 0.0
H70 H 0.70112 0.84039 0.38464 0.0
H71 H 0.71991 0.82254 0.37687 0.0
H72 H 0.77571 0.78179 0.30624 0.0
H73 H 0.75388 0.77941 0.32943 0.0
H74 H 0.78475 0.73632 0.31787 0.0
H75 H 0.76353 0.7343 0.34134 0.0
H76 H 0.69691 0.70105 0.35417 0.0
H77 H 0.67071 0.71083 0.41094 0.0
H78 H 0.68203 0.73492 0.41282 0.0
H79 H 0.70822 0.72529 0.35613 0.0
C80 C 0.5209 0.40541 0.62106 0.0
C81 C 0.52524 0.39316 0.63331 0.0
C82 C 0.50108 0.38209 0.62904 0.0
C83 C 0.51542 0.3817 0.6374 0.0
C84 C 0.49666 0.39473 0.61762 0.0
C85 C 0.50646 0.40623 0.61372 0.0
U86 U 0.55976 0.42041 0.61101 0.0
O87 O 0.56829 0.43126 0.58125 0.0
O88 O 0.56814 0.443 0.61257 0.0
C89 C 0.57093 0.44359 0.59127 0.0
C90 C 0.53139 0.41687 0.61412 0.0
C91 C 0.56679 0.45687 0.57886 0.0
C92 C 0.54935 0.47128 0.55777 0.0
C93 C 0.55244 0.45959 0.57218 0.0
C94 C 0.57483 0.47783 0.55712 0.0
C95 C 0.56057 0.48041 0.54961 0.0
C96 C 0.57785 0.46628 0.57159 0.0
C97 C 0.59173 0.39374 0.62602 0.0
C98 C 0.61786 0.39554 0.61956 0.0
C99 C 0.60711 0.37266 0.63122 0.0
C100 C 0.59349 0.37913 0.63188 0.0
C101 C 0.61958 0.38066 0.62501 0.0
C102 C 0.60403 0.40202 0.61998 0.0
C103 C 0.5767 0.39928 0.62505 0.0
O104 O 0.53936 0.42294 0.62963 0.0
O105 O 0.53884 0.41396 0.59631 0.0
O106 O 0.57054 0.39958 0.60547 0.0
O107 O 0.57329 0.41044 0.63733 0.0
H108 H 0.53632 0.39229 0.6392 0.0
H109 H 0.5192 0.37236 0.64674 0.0
H110 H 0.48584 0.39551 0.61073 0.0
H111 H 0.50287 0.41558 0.60421 0.0
H112 H 0.5382 0.47301 0.55278 0.0
H113 H 0.54371 0.45245 0.5776 0.0
H114 H 0.58387 0.48431 0.5511 0.0
H115 H 0.58901 0.46434 0.57641 0.0
H116 H 0.62713 0.40217 0.61487 0.0
H117 H 0.60765 0.36115 0.63492 0.0
H118 H 0.58416 0.37249 0.63641 0.0
H119 H 0.60291 0.41335 0.61531 0.0
C120 C 0.91626 0.30484 0.87311 0.0
C121 C 0.92938 0.30205 0.88431 0.0
C122 C 0.93715 0.32752 0.87921 0.0
C123 C 0.9397 0.31331 0.88744 0.0
C124 C 0.92383 0.33006 0.86832 0.0
C125 C 0.91357 0.31897 0.86554 0.0
U126 U 0.9013 0.26503 0.86541 0.0
O127 O 0.87834 0.25757 0.86559 0.0
O128 O 0.89121 0.25638 0.83531 0.0
C129 C 0.87847 0.2543 0.84449 0.0
C130 C 0.90559 0.29337 0.86704 0.0
C131 C 0.86573 0.25825 0.83068 0.0
C132 C 0.85203 0.27536 0.80777 0.0
C133 C 0.86306 0.27254 0.82342 0.0
C134 C 0.84597 0.24975 0.8071 0.0
C135 C 0.84349 0.26394 0.79904 0.0
C136 C 0.85689 0.24698 0.82268 0.0
C137 C 0.92636 0.23241 0.88363 0.0
C138 C 0.9259 0.20679 0.87352 0.0
C139 C 0.94648 0.21669 0.89338 0.0
C140 C 0.9398 0.23021 0.89386 0.0
C141 C 0.93981 0.20472 0.88296 0.0
C142 C 0.91927 0.22055 0.87371 0.0
C143 C 0.92129 0.24758 0.88161 0.0
O144 O 0.90903 0.28539 0.85005 0.0
O145 O 0.89912 0.28591 0.8829 0.0
O146 O 0.90987 0.25153 0.89298 0.0
O147 O 0.92183 0.25344 0.86177 0.0
H148 H 0.93173 0.29118 0.89028 0.0
H149 H 0.94966 0.31084 0.89618 0.0
H150 H 0.92138 0.34057 0.86113 0.0
H151 H 0.90361 0.32137 0.85671 0.0
H152 H 0.85033 0.28646 0.80229 0.0
H153 H 0.86974 0.28143 0.82937 0.0
H154 H 0.83987 0.24061 0.80068 0.0
H155 H 0.85881 0.23586 0.82787 0.0
H156 H 0.92023 0.19789 0.86562 0.0
H157 H 0.95727 0.21594 0.90036 0.0
H158 H 0.94554 0.23922 0.90142 0.0
H159 H 0.90886 0.22202 0.86565 0.0
C160 C 0.02391 0.40898 0.88751 0.0
C161 C 0.0283 0.39622 0.87701 0.0
C162 C 1.00377 0.38571 0.88073 0.0
C163 C 0.01831 0.38478 0.87347 0.0
C164 C 0.99948 0.39884 0.8905 0.0
C165 C 1.00936 0.41028 0.89363 0.0
U166 U 0.06253 0.42528 0.89716 0.0
O167 O 0.06981 0.44831 0.89761 0.0
O168 O 0.07105 0.43487 0.92778 0.0
C169 C 0.0734 0.44768 0.91867 0.0
C170 C 0.03432 0.42041 0.89462 0.0
C171 C 0.0712 0.46059 0.93273 0.0
C172 C 0.05647 0.47835 0.95217 0.0
C173 C 0.05754 0.46644 0.9377 0.0
C174 C 0.08255 0.47849 0.95669 0.0
C175 C 0.06903 0.48458 0.9618 0.0
C176 C 0.08359 0.46678 0.94236 0.0
C177 C 0.09555 0.40127 0.87875 0.0
C178 C 0.11963 0.3977 0.89487 0.0
C179 C 0.11227 0.38396 0.86285 0.0
C180 C 0.09896 0.39116 0.86246 0.0
C181 C 0.12257 0.38669 0.87955 0.0
C182 C 0.10618 0.40487 0.89457 0.0
C183 C 0.08022 0.40587 0.88064 0.0
O184 O 0.0423 0.41701 0.91189 0.0
O185 O 0.04163 0.42756 0.87929 0.0
O186 O 0.07594 0.41741 0.86945 0.0
O187 O 0.07443 0.40484 0.90038 0.0
H188 H 0.0395 0.39496 0.87208 0.0
H189 H 0.02212 0.37514 0.86534 0.0
H190 H 0.98863 0.40021 0.89679 0.0
H191 H 1.00572 0.41999 0.90181 0.0
H192 H 0.04588 0.48276 0.95561 0.0
H193 H 0.04778 0.4618 0.93054 0.0
H194 H 0.09246 0.48264 0.96406 0.0
H195 H 0.09422 0.4624 0.939 0.0
H196 H 0.12735 0.40018 0.90785 0.0
H197 H 0.11428 0.37583 0.85046 0.0
H198 H 0.09098 0.38822 0.85005 0.0
H199 H 0.10383 0.41267 0.9073 0.0
C200 C 0.9213 0.71918 0.13585 0.0
C201 C 0.93552 0.72181 0.12839 0.0
C202 C 0.94156 0.69631 0.13531 0.0
C203 C 0.94556 0.71036 0.12788 0.0
C204 C 0.92711 0.6937 0.14154 0.0
C205 C 0.91711 0.70498 0.14167 0.0
U206 U 0.90094 0.7571 0.14654 0.0
O207 O 0.87697 0.75858 0.14679 0.0
O208 O 0.88943 0.75916 0.17834 0.0
C209 C 0.87672 0.75921 0.1685 0.0
C210 C 0.91103 0.7308 0.14127 0.0
C211 C 0.86305 0.76042 0.18088 0.0
C212 C 0.84465 0.74942 0.20468 0.0
C213 C 0.85628 0.74801 0.18999 0.0
C214 C 0.84606 0.77559 0.20055 0.0
C215 C 0.83958 0.76325 0.21045 0.0
C216 C 0.85774 0.77417 0.18601 0.0
C217 C 0.92244 0.79464 0.13053 0.0
C218 C 0.92548 0.82015 0.14027 0.0
C219 C 0.94283 0.8088 0.11624 0.0
C220 C 0.93487 0.79582 0.11736 0.0
C221 C 0.93853 0.82102 0.12819 0.0
C222 C 0.91756 0.80699 0.14163 0.0
C223 C 0.91629 0.77992 0.13436 0.0
O224 O 0.91381 0.73873 0.15867 0.0
O225 O 0.90341 0.73747 0.12585 0.0
O226 O 0.90628 0.7742 0.12145 0.0
O227 O 0.91744 0.77377 0.15396 0.0
H228 H 0.939 0.73272 0.1239 0.0
H229 H 0.95663 0.71266 0.1229 0.0
H230 H 0.92364 0.68299 0.14706 0.0
H231 H 0.90622 0.70273 0.14755 0.0
H232 H 0.83975 0.7397 0.21178 0.0
H233 H 0.86026 0.73727 0.18631 0.0
H234 H 0.84248 0.78638 0.20473 0.0
H235 H 0.86296 0.78385 0.17935 0.0
H236 H 0.92179 0.82939 0.14956 0.0
H237 H 0.95262 0.80914 0.10639 0.0
H238 H 0.93883 0.78643 0.10869 0.0
H239 H 0.90797 0.80634 0.1519 0.0
C240 C 0.52034 0.61985 0.38837 0.0
C241 C 0.52487 0.63269 0.37766 0.0
C242 C 0.50056 0.643 0.38145 0.0
C243 C 0.51507 0.64408 0.3741 0.0
C244 C 0.49596 0.62977 0.39118 0.0
C245 C 0.50574 0.61836 0.39457 0.0
U246 U 0.55915 0.60492 0.39718 0.0
O247 O 0.56801 0.59355 0.42621 0.0
O248 O 0.56716 0.58238 0.3944 0.0
C249 C 0.57045 0.58148 0.41554 0.0
C250 C 0.53078 0.60839 0.39488 0.0
C251 C 0.56707 0.56778 0.42764 0.0
C252 C 0.55206 0.55354 0.45325 0.0
C253 C 0.55369 0.56522 0.43817 0.0
C254 C 0.57686 0.5465 0.44647 0.0
C255 C 0.56386 0.54443 0.45818 0.0
C256 C 0.57841 0.55799 0.43132 0.0
C257 C 0.5917 0.63099 0.38182 0.0
C258 C 0.61684 0.63073 0.39471 0.0
C259 C 0.60881 0.64979 0.36982 0.0
C260 C 0.59493 0.64351 0.36932 0.0
C261 C 0.61994 0.64369 0.38286 0.0
C262 C 0.60285 0.62444 0.39421 0.0
C263 C 0.57634 0.62615 0.38317 0.0
O264 O 0.5384 0.60249 0.37906 0.0
O265 O 0.53858 0.61119 0.41255 0.0
O266 O 0.57066 0.62556 0.40301 0.0
O267 O 0.5721 0.61536 0.37055 0.0
H268 H 0.53607 0.63407 0.37261 0.0
H269 H 0.51901 0.6539 0.36601 0.0
H270 H 0.48498 0.62843 0.39721 0.0
H271 H 0.502 0.60852 0.40283 0.0
H272 H 0.54193 0.55221 0.4621 0.0
H273 H 0.54478 0.57266 0.43562 0.0
H274 H 0.5861 0.53962 0.44988 0.0
H275 H 0.58883 0.55973 0.42344 0.0
H276 H 0.62515 0.62559 0.40471 0.0
H277 H 0.61058 0.65986 0.36078 0.0
H278 H 0.58649 0.64883 0.35978 0.0
H279 H 0.60062 0.61475 0.40399 0.0
C280 C 0.70772 0.30298 0.62683 0.0
C281 C 0.69341 0.29808 0.62357 0.0
C282 C 0.68478 0.32314 0.62219 0.0
C283 C 0.68206 0.30805 0.62129 0.0
C284 C 0.69925 0.32801 0.62352 0.0
C285 C 0.71061 0.31801 0.62592 0.0
U286 U 0.7234 0.26459 0.63827 0.0
O287 O 0.74624 0.25713 0.6375 0.0
O288 O 0.73396 0.25645 0.6685 0.0
C289 C 0.74635 0.25391 0.65874 0.0
C290 C 0.71927 0.29287 0.63424 0.0
C291 C 0.75971 0.25667 0.67193 0.0
C292 C 0.77511 0.27194 0.69533 0.0
C293 C 0.76389 0.27051 0.67949 0.0
C294 C 0.7784 0.24591 0.6953 0.0
C295 C 0.78207 0.25955 0.70407 0.0
C296 C 0.76742 0.24452 0.67945 0.0
C297 C 0.69819 0.23127 0.6221 0.0
C298 C 0.69575 0.20652 0.63689 0.0
C299 C 0.68129 0.21403 0.60544 0.0
C300 C 0.68781 0.22781 0.60596 0.0
C301 C 0.68493 0.20322 0.62109 0.0
C302 C 0.70234 0.22042 0.63737 0.0
C303 C 0.70305 0.24668 0.62371 0.0
O304 O 0.71627 0.28526 0.65215 0.0
O305 O 0.72576 0.28515 0.6191 0.0
O306 O 0.71411 0.25103 0.61159 0.0
O307 O 0.70295 0.25252 0.6434 0.0
H308 H 0.6909 0.28655 0.62404 0.0
H309 H 0.67103 0.30396 0.62001 0.0
H310 H 0.70171 0.33952 0.62431 0.0
H311 H 0.72157 0.32205 0.62836 0.0
H312 H 0.77772 0.2826 0.7017 0.0
H313 H 0.7581 0.28006 0.67391 0.0
H314 H 0.78363 0.23617 0.70145 0.0
H315 H 0.76442 0.23374 0.67391 0.0
H316 H 0.69896 0.19845 0.64906 0.0
H317 H 0.67286 0.21208 0.59327 0.0
H318 H 0.68429 0.236 0.59416 0.0
H319 H 0.71035 0.22281 0.65001 0.0
C320 C 0.41855 0.21911 0.63969 0.0
C321 C 0.43202 0.22393 0.63147 0.0
C322 C 0.44129 0.19903 0.63243 0.0
C323 C 0.44325 0.21399 0.62779 0.0
C324 C 0.42754 0.19426 0.63975 0.0
C325 C 0.41635 0.20417 0.64333 0.0
U326 U 0.40245 0.25761 0.64779 0.0
O327 O 0.37962 0.26496 0.64611 0.0
O328 O 0.39179 0.26616 0.6773 0.0
C329 C 0.37941 0.26852 0.66709 0.0
C330 C 0.40709 0.22937 0.64648 0.0
C331 C 0.36591 0.26594 0.67992 0.0
C332 C 0.35066 0.25169 0.70523 0.0
C333 C 0.36274 0.25278 0.69102 0.0
C334 C 0.34466 0.27667 0.69686 0.0
C335 C 0.34156 0.26372 0.70859 0.0
C336 C 0.35662 0.27773 0.68277 0.0
C337 C 0.42653 0.29098 0.62865 0.0
C338 C 0.42889 0.31559 0.64302 0.0
C339 C 0.44351 0.30828 0.61203 0.0
C340 C 0.43682 0.29458 0.61244 0.0
C341 C 0.44007 0.31878 0.62784 0.0
C342 C 0.42223 0.30174 0.64352 0.0
C343 C 0.42226 0.27548 0.63129 0.0
O344 O 0.41032 0.23751 0.66351 0.0
O345 O 0.40019 0.23654 0.63078 0.0
O346 O 0.41117 0.27061 0.6197 0.0
O347 O 0.42275 0.27006 0.65144 0.0
H348 H 0.43399 0.23541 0.62851 0.0
H349 H 0.45364 0.21812 0.62214 0.0
H350 H 0.42545 0.18284 0.64299 0.0
H351 H 0.40604 0.20017 0.64956 0.0
H352 H 0.34851 0.24147 0.71371 0.0
H353 H 0.36975 0.24351 0.68909 0.0
H354 H 0.33812 0.28625 0.69917 0.0
H355 H 0.35891 0.28803 0.6746 0.0
H356 H 0.42591 0.32346 0.65531 0.0
H357 H 0.45181 0.31048 0.5998 0.0
H358 H 0.44027 0.28651 0.60073 0.0
H359 H 0.41426 0.29924 0.65613 0.0
C360 C 0.20846 0.80319 0.13002 0.0
C361 C 0.19352 0.8 0.12912 0.0
C362 C 0.18799 0.82581 0.12419 0.0
C363 C 0.1834 0.81119 0.12619 0.0
C364 C 0.20301 0.82878 0.12379 0.0
C365 C 0.21309 0.8176 0.1267 0.0
U366 U 0.22281 0.76384 0.13974 0.0
O367 O 0.24551 0.75618 0.13976 0.0
O368 O 0.23267 0.75506 0.17014 0.0
C369 C 0.24536 0.75298 0.161 0.0
C370 C 0.21922 0.7922 0.13719 0.0
C371 C 0.25819 0.75717 0.17444 0.0
C372 C 0.27249 0.77477 0.19542 0.0
C373 C 0.26113 0.77159 0.1805 0.0
C374 C 0.27821 0.74922 0.1979 0.0
C375 C 0.28106 0.76357 0.20469 0.0
C376 C 0.267 0.74611 0.18296 0.0
C377 C 0.19856 0.73065 0.12306 0.0
C378 C 0.1974 0.70681 0.14094 0.0
C379 C 0.18114 0.71236 0.11059 0.0
C380 C 0.18752 0.7262 0.10852 0.0
C381 C 0.1856 0.70269 0.12741 0.0
C382 C 0.20383 0.72065 0.13877 0.0
C383 C 0.20271 0.74624 0.12364 0.0
O384 O 0.21554 0.78419 0.15439 0.0
O385 O 0.22585 0.78479 0.12182 0.0
O386 O 0.21415 0.75052 0.11228 0.0
O387 O 0.20196 0.75235 0.14309 0.0
H388 H 0.18966 0.78895 0.13165 0.0
H389 H 0.17195 0.80844 0.12665 0.0
H390 H 0.207 0.83982 0.12181 0.0
H391 H 0.22455 0.82033 0.12727 0.0
H392 H 0.27442 0.78598 0.19984 0.0
H393 H 0.25447 0.78033 0.17412 0.0
H394 H 0.28424 0.7402 0.20476 0.0
H395 H 0.26489 0.73489 0.17863 0.0
H396 H 0.20123 0.69955 0.15387 0.0
H397 H 0.17204 0.70962 0.1 0.0
H398 H 0.18322 0.73374 0.09633 0.0
H399 H 0.2124 0.7238 0.15011 0.0
C400 C 0.20651 0.30426 0.87623 0.0
C401 C 0.1936 0.29959 0.88643 0.0
C402 C 0.1835 0.32416 0.88331 0.0
C403 C 0.18229 0.30943 0.89006 0.0
C404 C 0.19678 0.32886 0.87409 0.0
C405 C 0.2081 0.31904 0.87065 0.0
U406 U 0.22196 0.26559 0.86674 0.0
O407 O 0.23362 0.25763 0.83774 0.0
O408 O 0.24455 0.25762 0.87002 0.0
C409 C 0.24554 0.25473 0.84884 0.0
C410 C 0.21799 0.29393 0.86967 0.0
C411 C 0.25956 0.25743 0.83734 0.0
C412 C 0.27497 0.27116 0.8116 0.0
C413 C 0.26263 0.27024 0.82529 0.0
C414 C 0.28156 0.24675 0.82249 0.0
C415 C 0.28444 0.25926 0.80956 0.0
C416 C 0.26935 0.24589 0.83616 0.0
C417 C 0.1942 0.23359 0.88353 0.0
C418 C 0.19293 0.20719 0.87904 0.0
C419 C 0.17318 0.21977 0.89638 0.0
C420 C 0.18058 0.23295 0.89364 0.0
C421 C 0.17918 0.20662 0.8893 0.0
C422 C 0.20042 0.22059 0.87621 0.0
C423 C 0.2008 0.24825 0.88037 0.0
O424 O 0.22408 0.28606 0.88538 0.0
O425 O 0.21524 0.28642 0.85181 0.0
O426 O 0.2016 0.25359 0.8602 0.0
O427 O 0.21169 0.25223 0.89312 0.0
H428 H 0.19212 0.28827 0.89106 0.0
H429 H 0.17246 0.30538 0.89778 0.0
H430 H 0.19826 0.33998 0.86851 0.0
H431 H 0.21798 0.32293 0.86283 0.0
H432 H 0.27695 0.2811 0.80231 0.0
H433 H 0.25529 0.27934 0.82592 0.0
H434 H 0.28837 0.23727 0.82133 0.0
H435 H 0.26719 0.23584 0.84512 0.0
H436 H 0.19793 0.19731 0.87338 0.0
H437 H 0.1625 0.21999 0.90376 0.0
H438 H 0.17548 0.24282 0.89921 0.0
H439 H 0.21092 0.2208 0.86825 0.0
C440 C 0.41698 0.80486 0.37356 0.0
C441 C 0.43177 0.80148 0.37594 0.0
C442 C 0.43813 0.82735 0.37803 0.0
C443 C 0.44224 0.81262 0.37826 0.0
C444 C 0.42321 0.83052 0.37718 0.0
C445 C 0.41281 0.81943 0.37496 0.0
U446 U 0.40136 0.76561 0.36507 0.0
O447 O 0.37839 0.75817 0.36584 0.0
O448 O 0.39092 0.75704 0.33517 0.0
C449 C 0.37834 0.75478 0.34478 0.0
C450 C 0.40594 0.79391 0.36679 0.0
C451 C 0.36521 0.75792 0.33129 0.0
C452 C 0.35163 0.7729 0.30489 0.0
C453 C 0.36276 0.77143 0.32085 0.0
C454 C 0.34497 0.74766 0.31049 0.0
C455 C 0.343 0.76083 0.29894 0.0
C456 C 0.35588 0.74625 0.32648 0.0
C457 C 0.42549 0.73249 0.38379 0.0
C458 C 0.42836 0.70825 0.36844 0.0
C459 C 0.44247 0.71538 0.40036 0.0
C460 C 0.43562 0.72888 0.40026 0.0
C461 C 0.43937 0.70508 0.38396 0.0
C462 C 0.42153 0.72188 0.36827 0.0
C463 C 0.42109 0.74791 0.38154 0.0
O464 O 0.40933 0.7859 0.34981 0.0
O465 O 0.39909 0.78655 0.38239 0.0
O466 O 0.40991 0.75237 0.39298 0.0
O467 O 0.42168 0.75361 0.36158 0.0
H468 H 0.43527 0.7903 0.37501 0.0
H469 H 0.4536 0.80973 0.37899 0.0
H470 H 0.41957 0.84166 0.37752 0.0
H471 H 0.40148 0.82233 0.3733 0.0
H472 H 0.35037 0.78319 0.29628 0.0
H473 H 0.36983 0.7806 0.32428 0.0
H474 H 0.33844 0.7382 0.30643 0.0
H475 H 0.35753 0.73573 0.33427 0.0
H476 H 0.42562 0.70055 0.35566 0.0
H477 H 0.45062 0.7132 0.41289 0.0
H478 H 0.43882 0.73683 0.41246 0.0
H479 H 0.4137 0.72438 0.35542 0.0
C480 C 0.52486 0.11678 0.63167 0.0
C481 C 0.52831 0.13166 0.63306 0.0
C482 C 0.50285 0.1374 0.63988 0.0
C483 C 0.51738 0.14188 0.637 0.0
C484 C 0.49961 0.12244 0.63967 0.0
C485 C 0.51048 0.11227 0.63549 0.0
U486 U 0.56374 0.10218 0.61989 0.0
O487 O 0.57152 0.07946 0.62052 0.0
O488 O 0.57137 0.09197 0.58941 0.0
C489 C 0.57426 0.07952 0.5992 0.0
C490 C 0.5355 0.10597 0.62382 0.0
C491 C 0.57149 0.06606 0.58642 0.0
C492 C 0.55624 0.04957 0.56468 0.0
C493 C 0.55772 0.06179 0.5785 0.0
C494 C 0.58213 0.04584 0.56681 0.0
C495 C 0.56849 0.04145 0.55852 0.0
C496 C 0.58357 0.05786 0.58057 0.0
C497 C 0.59678 0.12757 0.63781 0.0
C498 C 0.62165 0.13083 0.62453 0.0
C499 C 0.6132 0.14494 0.65526 0.0
C500 C 0.59968 0.13796 0.65403 0.0
C501 C 0.62438 0.14172 0.64034 0.0
C502 C 0.60797 0.12384 0.62326 0.0
C503 C 0.58155 0.12233 0.63534 0.0
O504 O 0.54299 0.10976 0.60623 0.0
O505 O 0.54334 0.09908 0.63874 0.0
O506 O 0.57729 0.11097 0.64708 0.0
O507 O 0.57583 0.12274 0.61543 0.0
H508 H 0.53934 0.13542 0.63037 0.0
H509 H 0.52025 0.15331 0.63748 0.0
H510 H 0.48854 0.11863 0.64179 0.0
H511 H 0.50751 0.10088 0.63442 0.0
H512 H 0.54553 0.04649 0.55885 0.0
H513 H 0.54821 0.06798 0.58273 0.0
H514 H 0.59191 0.04022 0.56221 0.0
H515 H 0.59431 0.06099 0.58623 0.0
H516 H 0.62999 0.12787 0.61293 0.0
H517 H 0.61462 0.1534 0.66739 0.0
H518 H 0.59121 0.14116 0.66531 0.0
H519 H 0.60603 0.11584 0.61057 0.0
C520 C 0.02186 0.9052 0.12125 0.0
C521 C 0.02542 0.89372 0.13569 0.0
C522 C 1.00166 0.88221 0.12922 0.0
C523 C 0.01539 0.8824 0.13976 0.0
C524 C 0.99813 0.89401 0.11525 0.0
C525 C 1.00807 0.90535 0.11142 0.0
U526 U 0.06081 0.92042 0.11256 0.0
O527 O 0.06949 0.93186 0.08341 0.0
O528 O 0.06906 0.94305 0.11521 0.0
C529 C 0.07197 0.94402 0.09397 0.0
C530 C 0.03247 0.9167 0.11494 0.0
C531 C 0.06819 0.95764 0.08196 0.0
C532 C 0.05384 0.97074 0.05424 0.0
C533 C 0.05546 0.95899 0.06917 0.0
C534 C 0.07715 0.98032 0.06579 0.0
C535 C 0.06499 0.98118 0.0517 0.0
C536 C 0.0787 0.96872 0.08073 0.0
C537 C 0.09282 0.89388 0.12766 0.0
C538 C 0.11692 0.89132 0.11164 0.0
C539 C 0.10885 0.87456 0.14023 0.0
C540 C 0.09573 0.88202 0.14171 0.0
C541 C 0.11939 0.87886 0.12477 0.0
C542 C 0.10369 0.89879 0.11305 0.0
C543 C 0.07769 0.89918 0.12642 0.0
O544 O 0.04025 0.92261 0.1308 0.0
O545 O 0.04008 0.91405 0.09718 0.0
O546 O 0.07182 0.8998 0.10664 0.0
O547 O 0.07396 0.91005 0.13905 0.0
H548 H 0.03601 0.89336 0.1435 0.0
H549 H 0.0185 0.87373 0.15098 0.0
H550 H 0.98787 0.8943 0.1065 0.0
H551 H 1.00511 0.91408 0.10017 0.0
H552 H 0.04434 0.9711 0.04365 0.0
H553 H 0.04716 0.95059 0.06985 0.0
H554 H 0.08586 0.98828 0.06445 0.0
H555 H 0.08859 0.96797 0.09041 0.0
H556 H 0.12487 0.89478 0.0995 0.0
H557 H 0.11045 0.86493 0.15038 0.0
H558 H 0.08749 0.87796 0.15298 0.0
H559 H 0.10168 0.90789 0.102 0.0
C560 C 0.52408 0.9092 0.38738 0.0
C561 C 0.52886 0.89486 0.38493 0.0
C562 C 0.50377 0.88602 0.3828 0.0
C563 C 0.51882 0.8834 0.38272 0.0
C564 C 0.49909 0.90052 0.38377 0.0
C565 C 0.50914 0.91196 0.38614 0.0
U566 U 0.56257 0.92519 0.39606 0.0
O567 O 0.57047 0.948 0.39518 0.0
O568 O 0.57169 0.93521 0.4259 0.0
C569 C 0.57391 0.9479 0.41631 0.0
C570 C 0.53424 0.92097 0.39404 0.0
C571 C 0.57026 0.96079 0.42963 0.0
C572 C 0.5532 0.97593 0.44962 0.0
C573 C 0.55593 0.96455 0.43483 0.0
C574 C 0.57902 0.98005 0.45371 0.0
C575 C 0.56476 0.98358 0.4597 0.0
C576 C 0.58171 0.96885 0.43888 0.0
C577 C 0.59421 0.89907 0.37812 0.0
C578 C 0.62033 0.89985 0.38517 0.0
C579 C 0.60915 0.87807 0.37055 0.0
C580 C 0.59568 0.88489 0.37032 0.0
C581 C 0.62157 0.88531 0.37839 0.0
C582 C 0.60667 0.90667 0.38523 0.0
C583 C 0.57929 0.9047 0.38027 0.0
O584 O 0.54221 0.91801 0.41152 0.0
O585 O 0.54162 0.92769 0.37835 0.0
O586 O 0.57556 0.91629 0.36872 0.0
O587 O 0.57374 0.90436 0.4002 0.0
H588 H 0.54034 0.89246 0.38569 0.0
H589 H 0.52282 0.87241 0.38156 0.0
H590 H 0.48761 0.90296 0.38392 0.0
H591 H 0.50519 0.92292 0.38802 0.0
H592 H 0.54208 0.97838 0.45381 0.0
H593 H 0.5469 0.95847 0.42793 0.0
H594 H 0.58818 0.98586 0.46075 0.0
H595 H 0.59285 0.9662 0.43509 0.0
H596 H 0.62977 0.9057 0.39121 0.0
H597 H 0.60982 0.86696 0.36495 0.0
H598 H 0.58625 0.87883 0.36469 0.0
H599 H 0.60578 0.91763 0.39134 0.0
C600 C 0.0216 0.1205 0.88491 0.0
C601 C 0.02573 0.13522 0.88527 0.0
C602 C 1.00041 0.14254 0.8811 0.0
C603 C 0.01524 0.14612 0.88345 0.0
C604 C 0.99646 0.12785 0.87882 0.0
C605 C 1.00696 0.11693 0.88082 0.0
U606 U 0.05999 0.10453 0.89549 0.0
O607 O 0.06811 0.09402 0.92585 0.0
O608 O 0.06702 0.08158 0.89517 0.0
C609 C 0.07014 0.08144 0.91641 0.0
C610 C 0.0318 0.10894 0.89203 0.0
C611 C 0.06635 0.06835 0.92981 0.0
C612 C 0.04929 0.05089 0.94633 0.0
C613 C 0.05216 0.06276 0.93194 0.0
C614 C 0.0747 0.05015 0.95633 0.0
C615 C 0.06056 0.04445 0.9589 0.0
C616 C 0.07753 0.06181 0.94197 0.0
C617 C 0.09324 0.12993 0.87863 0.0
C618 C 0.11914 0.12862 0.88742 0.0
C619 C 0.10964 0.14986 0.86865 0.0
C620 C 0.09575 0.14363 0.86888 0.0
C621 C 0.12145 0.14256 0.87815 0.0
C622 C 0.1051 0.12232 0.88765 0.0
C623 C 0.07796 0.12479 0.88034 0.0
O624 O 0.03935 0.10243 0.8767 0.0
O625 O 0.03951 0.11184 0.90975 0.0
O626 O 0.07207 0.12503 0.90004 0.0
O627 O 0.07381 0.11352 0.86866 0.0
H628 H 0.03694 0.13829 0.88824 0.0
H629 H 0.01863 0.15736 0.88501 0.0
H630 H 0.98515 0.12475 0.87707 0.0
H631 H 1.00351 0.10565 0.88048 0.0
H632 H 0.03827 0.04679 0.94762 0.0
H633 H 0.04332 0.06765 0.92275 0.0
H634 H 0.08367 0.0459 0.96594 0.0
H635 H 0.08854 0.06599 0.94076 0.0
H636 H 0.12809 0.12278 0.89489 0.0
H637 H 0.11111 0.16064 0.86156 0.0
H638 H 0.0868 0.14975 0.86195 0.0
H639 H 0.10344 0.11173 0.89528 0.0
H640 H 0.17465 0.6821 0.09904 0.0
H641 H 0.1761 0.69374 0.16783 0.0
H642 H 0.15851 0.6746 0.17661 0.0
H643 H 0.14081 0.65622 0.16433 0.0
H644 H 0.13897 0.64467 0.09549 0.0
H645 H 0.15882 0.66161 0.08741 0.0
C646 C 0.17124 0.68031 0.11598 0.0
C647 C 0.17667 0.68945 0.13272 0.0
C648 C 0.16098 0.66926 0.12097 0.0
C649 C 0.17225 0.68684 0.15463 0.0
C650 C 0.16207 0.67594 0.15966 0.0
C651 C 0.14476 0.65734 0.14755 0.0
C652 C 0.1381 0.64929 0.13052 0.0
C653 C 0.15606 0.66734 0.1429 0.0
C654 C 0.14377 0.65065 0.10901 0.0
C655 C 0.15508 0.66048 0.1043 0.0
H656 H 0.68101 0.85227 0.36742 0.0
H657 H 0.65911 0.8221 0.41147 0.0
H658 H 0.63869 0.83858 0.41406 0.0
H659 H 0.62614 0.86068 0.40186 0.0
H660 H 0.6479 0.89146 0.35904 0.0
H661 H 0.66939 0.87583 0.35835 0.0
C662 C 0.6719 0.84937 0.3779 0.0
C663 C 0.6716 0.83569 0.38886 0.0
C664 C 0.66012 0.85902 0.37951 0.0
C665 C 0.65958 0.83226 0.40229 0.0
C666 C 0.64789 0.84175 0.40393 0.0
C667 C 0.63567 0.86403 0.39259 0.0
C668 C 0.63541 0.87713 0.38038 0.0
C669 C 0.64789 0.85499 0.39226 0.0
C670 C 0.64786 0.88144 0.3686 0.0
C671 C 0.6601 0.87245 0.36811 0.0
H672 H 0.46934 0.32074 0.62695 0.0
H673 H 0.43127 0.34718 0.63303 0.0
H674 H 0.44665 0.3691 0.63493 0.0
H675 H 0.47114 0.38073 0.63393 0.0
H676 H 0.50879 0.35355 0.62674 0.0
H677 H 0.49336 0.33206 0.62667 0.0
C678 C 0.46437 0.33131 0.62852 0.0
C679 C 0.44915 0.3323 0.62953 0.0
C680 C 0.47325 0.34378 0.62963 0.0
C681 C 0.44294 0.34607 0.63218 0.0
C682 C 0.45175 0.35862 0.63321 0.0
C683 C 0.476 0.37013 0.63226 0.0
C684 C 0.49127 0.36895 0.63045 0.0
C685 C 0.46696 0.35762 0.6318 0.0
C686 C 0.49722 0.35498 0.62865 0.0
C687 C 0.48836 0.3426 0.62834 0.0
H688 H 0.95959 0.19297 0.91187 0.0
H689 H 0.93864 0.18439 0.84937 0.0
H690 H 0.95466 0.16375 0.84384 0.0
H691 H 0.97656 0.14948 0.85511 0.0
H692 H 0.99881 0.1608 0.91544 0.0
H693 H 0.98089 0.17936 0.92278 0.0
C694 C 0.95859 0.18684 0.89676 0.0
C695 C 0.94802 0.19071 0.88086 0.0
C696 C 0.96839 0.17554 0.89301 0.0
C697 C 0.94657 0.18188 0.86205 0.0
C698 C 0.95591 0.17011 0.85869 0.0
C699 C 0.97744 0.15604 0.86983 0.0
C700 C 0.98916 0.15386 0.88459 0.0
C701 C 0.96717 0.16708 0.87377 0.0
C702 C 0.99009 0.1624 0.90363 0.0
C703 C 0.97977 0.17297 0.90793 0.0
H704 H 0.1235 0.35732 0.87649 0.0
H705 H 0.15102 0.39457 0.88832 0.0
H706 H 0.17217 0.37865 0.89165 0.0
H707 H 0.1829 0.35397 0.89037 0.0
H708 H 0.15479 0.31716 0.87732 0.0
H709 H 0.13395 0.33304 0.87581 0.0
C710 C 0.13414 0.36201 0.8796 0.0
C711 C 0.13563 0.37718 0.88186 0.0
C712 C 0.14621 0.35281 0.88153 0.0
C713 C 0.1495 0.38296 0.8865 0.0
C714 C 0.16162 0.37384 0.88835 0.0
C715 C 0.17225 0.34938 0.88708 0.0
C716 C 0.17065 0.33419 0.88402 0.0
C717 C 0.16013 0.3587 0.88577 0.0
C718 C 0.15657 0.32862 0.8802 0.0
C719 C 0.14456 0.33776 0.87906 0.0
H720 H 0.97167 0.88188 0.12878 0.0
H721 H 1.00853 0.85337 0.13456 0.0
H722 H 0.99233 0.83239 0.13562 0.0
H723 H 0.96788 0.82183 0.13314 0.0
H724 H 0.93095 0.84987 0.12528 0.0
H725 H 0.94703 0.87123 0.12629 0.0
C726 C 0.97624 0.8711 0.13006 0.0
C727 C 0.99147 0.86941 0.1315 0.0
C728 C 0.96683 0.85891 0.13005 0.0
C729 C 0.99696 0.85524 0.13377 0.0
C730 C 0.98768 0.84313 0.13412 0.0
C731 C 0.96332 0.8326 0.13146 0.0
C732 C 0.94819 0.83418 0.12899 0.0
C733 C 0.97263 0.84481 0.13196 0.0
C734 C 0.94251 0.84829 0.12734 0.0
C735 C 0.95173 0.86051 0.12785 0.0
H736 H 0.46865 0.70353 0.38744 0.0
H737 H 0.43083 0.67674 0.3758 0.0
H738 H 0.44628 0.65524 0.37308 0.0
H739 H 0.47075 0.64403 0.37468 0.0
H740 H 0.5081 0.67147 0.38748 0.0
H741 H 0.49265 0.69261 0.38868 0.0
C742 C 0.46372 0.69297 0.38452 0.0
C743 C 0.44855 0.69179 0.38211 0.0
C744 C 0.47265 0.68072 0.38295 0.0
C745 C 0.44246 0.67803 0.37772 0.0
C746 C 0.45131 0.66571 0.37622 0.0
C747 C 0.47553 0.65461 0.37782 0.0
C748 C 0.49074 0.65598 0.38083 0.0
C749 C 0.46646 0.66691 0.37891 0.0
C750 C 0.4966 0.66993 0.38458 0.0
C751 C 0.48771 0.6821 0.38554 0.0
H752 H 0.6409 0.1513 0.60512 0.0
H753 H 0.63939 0.1521 0.67634 0.0
H754 H 0.65898 0.17008 0.67688 0.0
H755 H 0.67449 0.18789 0.657 0.0
H756 H 0.67651 0.18658 0.58589 0.0
H757 H 0.65915 0.16639 0.58559 0.0
C758 C 0.64504 0.15511 0.62082 0.0
C759 C 0.63825 0.15053 0.64062 0.0
C760 C 0.6564 0.16556 0.62108 0.0
C761 C 0.64396 0.1557 0.66074 0.0
C762 C 0.65527 0.16598 0.66111 0.0
C763 C 0.6714 0.183 0.64145 0.0
C764 C 0.67661 0.18909 0.62146 0.0
C765 C 0.66124 0.17139 0.64135 0.0
C766 C 0.67243 0.18246 0.60152 0.0
C767 C 0.66248 0.17085 0.60132 0.0
H768 H 0.97384 0.38606 0.87781 0.0
H769 H 1.00968 0.35614 0.88076 0.0
H770 H 0.99264 0.33575 0.88052 0.0
H771 H 0.96733 0.3262 0.87996 0.0
H772 H 0.93207 0.35675 0.8835 0.0
H773 H 0.94916 0.37683 0.88143 0.0
C774 C 0.97812 0.37517 0.87892 0.0
C775 C 0.99328 0.37298 0.87938 0.0
C776 C 0.96825 0.36339 0.88 0.0
C777 C 0.99821 0.35849 0.87992 0.0
C778 C 0.98841 0.34669 0.8801 0.0
C779 C 0.96332 0.33721 0.88064 0.0
C780 C 0.94818 0.3397 0.88111 0.0
C781 C 0.97336 0.34899 0.88029 0.0
C782 C 0.94347 0.35423 0.88211 0.0
C783 C 0.9533 0.36585 0.88114 0.0
H784 H 0.49689 0.16061 0.61295 0.0
H785 H 0.48179 0.13822 0.67151 0.0
H786 H 0.46153 0.15513 0.6743 0.0
H787 H 0.44804 0.17625 0.66008 0.0
H788 H 0.46246 0.19804 0.6005 0.0
H789 H 0.48296 0.18147 0.59816 0.0
C790 C 0.48923 0.15954 0.62643 0.0
C791 C 0.49093 0.14821 0.6421 0.0
C792 C 0.47742 0.16917 0.62769 0.0
C793 C 0.48074 0.14682 0.65924 0.0
C794 C 0.46915 0.15648 0.66082 0.0
C795 C 0.45555 0.17732 0.64642 0.0
C796 C 0.45362 0.18853 0.63055 0.0
C797 C 0.46731 0.16766 0.64507 0.0
C798 C 0.4637 0.18975 0.61318 0.0
C799 C 0.47543 0.18021 0.61177 0.0
H800 H 0.63546 0.6586 0.35117 0.0
H801 H 0.63657 0.6469 0.42038 0.0
H802 H 0.65726 0.66325 0.42596 0.0
H803 H 0.67296 0.68343 0.41219 0.0
H804 H 0.6713 0.69526 0.34306 0.0
H805 H 0.65296 0.67651 0.33662 0.0
C806 C 0.64023 0.65956 0.3675 0.0
C807 C 0.63414 0.65168 0.38539 0.0
C808 C 0.65198 0.66923 0.37072 0.0
C809 C 0.64088 0.65278 0.40624 0.0
C810 C 0.65268 0.66228 0.40952 0.0
C811 C 0.66872 0.68176 0.39567 0.0
C812 C 0.67349 0.69088 0.37817 0.0
C813 C 0.65799 0.67095 0.39205 0.0
C814 C 0.66798 0.68839 0.35682 0.0
C815 C 0.65737 0.67772 0.35313 0.0
H816 H 0.14734 0.88016 0.14053 0.0
H817 H 0.11855 0.85513 0.09931 0.0
H818 H 0.13732 0.83684 0.09433 0.0
H819 H 0.16146 0.82719 0.10341 0.0
H820 H 0.1902 0.85189 0.14543 0.0
H821 H 0.1722 0.87104 0.14801 0.0
C822 C 0.14532 0.87079 0.13023 0.0
C823 C 0.13163 0.86897 0.12021 0.0
C824 C 0.15617 0.86019 0.12764 0.0
C825 C 0.12905 0.85674 0.10707 0.0
C826 C 0.13976 0.84626 0.1043 0.0
C827 C 0.1638 0.83675 0.11315 0.0
C828 C 0.17724 0.83796 0.12425 0.0
C829 C 0.15329 0.84772 0.11481 0.0
C830 C 0.18008 0.85063 0.13647 0.0
C831 C 0.16971 0.8616 0.13812 0.0
H832 H 0.98388 0.6456 0.16495 0.0
H833 H 0.99972 0.65245 0.09882 0.0
H834 H 0.98181 0.67156 0.09248 0.0
H835 H 0.96175 0.68666 0.10598 0.0
H836 H 0.94585 0.67975 0.17216 0.0
H837 H 0.96358 0.66056 0.17835 0.0
C838 C 0.98339 0.65137 0.14924 0.0
C839 C 0.99315 0.64782 0.13242 0.0
C840 C 0.97307 0.6624 0.14577 0.0
C841 C 0.9924 0.65521 0.11205 0.0
C842 C 0.98215 0.6661 0.10842 0.0
C843 C 0.96225 0.68099 0.12176 0.0
C844 C 0.9525 0.68464 0.13856 0.0
C845 C 0.97248 0.66987 0.1252 0.0
C846 C 0.95315 0.67706 0.15887 0.0
C847 C 0.96333 0.6661 0.16246 0.0
H848 H 0.13099 0.15955 0.91128 0.0
H849 H 0.14327 0.14364 0.84758 0.0
H850 H 0.16376 0.16093 0.84631 0.0
H851 H 0.17581 0.18321 0.86109 0.0
H852 H 0.16324 0.19849 0.92534 0.0
H853 H 0.14536 0.17901 0.92852 0.0
C854 C 0.13841 0.15962 0.89742 0.0
C855 C 0.13567 0.15034 0.87959 0.0
C856 C 0.14994 0.1698 0.89663 0.0
C857 C 0.14522 0.15065 0.86155 0.0
C858 C 0.15686 0.16063 0.86076 0.0
C859 C 0.16941 0.1821 0.876 0.0
C860 C 0.17063 0.19274 0.8926 0.0
C861 C 0.15901 0.17068 0.87785 0.0
C862 C 0.16226 0.19087 0.91189 0.0
C863 C 0.15203 0.17964 0.91383 0.0
H864 H 0.67861 0.34899 0.60003 0.0
H865 H 0.66353 0.32051 0.65238 0.0
H866 H 0.6434 0.33667 0.65955 0.0
H867 H 0.62963 0.35826 0.65072 0.0
H868 H 0.64236 0.38585 0.59588 0.0
H869 H 0.66412 0.37122 0.59078 0.0
C870 C 0.67088 0.34636 0.61296 0.0
C871 C 0.67249 0.33339 0.62547 0.0
C872 C 0.65898 0.35566 0.61678 0.0
C873 C 0.66242 0.33021 0.64223 0.0
C874 C 0.65094 0.33952 0.64647 0.0
C875 C 0.63695 0.36104 0.63733 0.0
C876 C 0.63395 0.37305 0.62341 0.0
C877 C 0.64901 0.35215 0.63373 0.0
C878 C 0.64419 0.37673 0.60696 0.0
C879 C 0.65662 0.36823 0.60383 0.0
H880 H 0.46407 0.8302 0.40067 0.0
H881 H 0.43728 0.85168 0.3519 0.0
H882 H 0.45493 0.87146 0.34888 0.0
H883 H 0.47812 0.8829 0.35993 0.0
H884 H 0.50516 0.8614 0.40828 0.0
H885 H 0.48749 0.84154 0.41139 0.0
C886 C 0.46212 0.83917 0.38932 0.0
C887 C 0.44919 0.83942 0.37673 0.0
C888 C 0.47245 0.85059 0.38748 0.0
C889 C 0.44691 0.85125 0.3622 0.0
C890 C 0.45708 0.86258 0.36031 0.0
C891 C 0.48015 0.87387 0.37115 0.0
C892 C 0.49306 0.87366 0.38372 0.0
C893 C 0.46989 0.86241 0.37289 0.0
C894 C 0.49548 0.86178 0.39808 0.0
C895 C 0.48531 0.85042 0.39999 0.0
H896 H 0.08158 0.5382 0.02371 0.0
H897 H 0.04302 0.5224 0.0564 0.0
H898 H 0.03998 0.50361 0.02819 0.0
H899 H 0.04943 0.4906 0.99522 0.0
H900 H 0.0876 0.50777 0.96257 0.0
H901 H 0.08965 0.52685 0.98976 0.0
C902 C 0.07252 0.53062 0.02475 0.0
C903 C 0.0627 0.53159 0.04241 0.0
C904 C 0.07081 0.51995 0.00846 0.0
C905 C 0.05079 0.52189 0.04308 0.0
C906 C 0.04908 0.5111 0.02695 0.0
C907 C 0.05806 0.49864 0.99385 0.0
C908 C 0.06856 0.49739 0.977 0.0
C909 C 0.05916 0.50988 0.00965 0.0
C910 C 0.07959 0.50807 0.97559 0.0
C911 C 0.08076 0.5191 0.99113 0.0
H912 H 0.78491 0.77474 0.27098 0.0
H913 H 0.80824 0.74536 0.31413 0.0
H914 H 0.82764 0.74378 0.28717 0.0
H915 H 0.83779 0.74997 0.25074 0.0
H916 H 0.81542 0.78032 0.20825 0.0
H917 H 0.7961 0.78252 0.23566 0.0
C918 C 0.79433 0.76819 0.27473 0.0
C919 C 0.79482 0.75996 0.29456 0.0
C920 C 0.80568 0.76744 0.25917 0.0
C921 C 0.80722 0.75151 0.29886 0.0
C922 C 0.81843 0.75064 0.28345 0.0
C923 C 0.82864 0.75701 0.24744 0.0
C924 C 0.82795 0.7648 0.22732 0.0
C925 C 0.81767 0.75835 0.26339 0.0
C926 C 0.8162 0.77416 0.22355 0.0
C927 C 0.80514 0.7754 0.23923 0.0
H928 H 0.57427 0.50683 0.54454 0.0
H929 H 0.54055 0.48026 0.51548 0.0
H930 H 0.53769 0.49806 0.48559 0.0
H931 H 0.54608 0.52058 0.46588 0.0
H932 H 0.58123 0.54558 0.49395 0.0
H933 H 0.58242 0.52891 0.52551 0.0
C934 C 0.56636 0.50477 0.53162 0.0
C935 C 0.55777 0.49201 0.53241 0.0
C936 C 0.56511 0.5148 0.51399 0.0
C937 C 0.54727 0.48997 0.51569 0.0
C938 C 0.54571 0.50012 0.49835 0.0
C939 C 0.5539 0.52237 0.47903 0.0
C940 C 0.56361 0.53428 0.47755 0.0
C941 C 0.55475 0.51248 0.49708 0.0
C942 C 0.57373 0.53645 0.49464 0.0
C943 C 0.5744 0.52693 0.51272 0.0
H944 H 0.81695 0.25083 0.79343 0.0
H945 H 0.84548 0.28261 0.76318 0.0
H946 H 0.82885 0.28486 0.73172 0.0
H947 H 0.80664 0.27655 0.7114 0.0
H948 H 0.77909 0.24396 0.74183 0.0
H949 H 0.79488 0.24318 0.77416 0.0
C950 C 0.81961 0.25824 0.77997 0.0
C951 C 0.83261 0.26644 0.78081 0.0
C952 C 0.81014 0.25926 0.76168 0.0
C953 C 0.83556 0.27623 0.76327 0.0
C954 C 0.82607 0.27743 0.7451 0.0
C955 C 0.80407 0.26939 0.72521 0.0
C956 C 0.79171 0.26022 0.72403 0.0
C957 C 0.81339 0.26884 0.74392 0.0
C958 C 0.78859 0.25098 0.7421 0.0
C959 C 0.79761 0.25055 0.76068 0.0
H960 H 0.34064 0.25111 0.75002 0.0
H961 H 0.31449 0.27547 0.70366 0.0
H962 H 0.2951 0.27694 0.73081 0.0
H963 H 0.28535 0.27135 0.76779 0.0
H964 H 0.31155 0.24723 0.81443 0.0
H965 H 0.33083 0.2455 0.78714 0.0
C966 C 0.33063 0.25658 0.74573 0.0
C967 C 0.32918 0.26324 0.72471 0.0
C968 C 0.31944 0.25747 0.76157 0.0
C969 C 0.3161 0.2704 0.7197 0.0
C970 C 0.30494 0.27123 0.73526 0.0
C971 C 0.29534 0.26588 0.77218 0.0
C972 C 0.2968 0.25939 0.79332 0.0
C973 C 0.30651 0.26493 0.75634 0.0
C974 C 0.30987 0.25218 0.79832 0.0
C975 C 0.321 0.25121 0.78269 0.0
H976 H 0.31989 0.77891 0.28914 0.0
H977 H 0.34447 0.74316 0.26387 0.0
H978 H 0.32844 0.74168 0.23184 0.0
H979 H 0.30694 0.74966 0.21164 0.0
H980 H 0.28087 0.78418 0.2376 0.0
H981 H 0.29811 0.78731 0.26798 0.0
C982 C 0.32176 0.7709 0.27649 0.0
C983 C 0.33335 0.76108 0.27901 0.0
C984 C 0.31223 0.7699 0.2581 0.0
C985 C 0.33558 0.75073 0.26248 0.0
C986 C 0.32642 0.7499 0.2441 0.0
C987 C 0.30486 0.75781 0.22398 0.0
C988 C 0.29238 0.76652 0.22219 0.0
C989 C 0.31458 0.75926 0.24188 0.0
C990 C 0.29035 0.77733 0.23818 0.0
C991 C 0.30018 0.77906 0.25581 0.0
H992 H 0.57858 0.98621 0.49919 0.0
H993 H 0.54515 1.00608 0.45948 0.0
H994 H 0.54246 0.02522 0.48706 0.0
H995 H 0.551 0.03732 0.52154 0.0
H996 H 0.58376 0.01617 0.56138 0.0
H997 H 0.58536 0.99679 0.53468 0.0
C998 C 0.5707 0.99474 0.49651 0.0
C999 C 0.56225 0.99478 0.47706 0.0
C1000 C 0.56917 1.00564 0.51247 0.0
C1001 C 0.55184 1.00575 0.47422 0.0
C1002 C 0.55034 0.01675 0.48999 0.0
C1003 C 0.55832 0.02836 0.5246 0.0
C1004 C 0.56753 0.02858 0.54338 0.0
C1005 C 0.55911 0.01695 0.5091 0.0
C1006 C 0.57686 0.01671 0.54688 0.0
C1007 C 0.57774 1.00549 0.53162 0.0
H1008 H 0.07823 0.02161 0.96907 0.0
H1009 H 0.0367 0.03958 0.98586 0.0
H1010 H 0.0338 0.0212 0.01514 0.0
H1011 H 0.04405 1.00087 0.03807 0.0
H1012 H 0.08649 0.98479 0.02204 0.0
H1013 H 0.08818 1.00177 0.99104 0.0
C1014 C 0.06857 0.0217 0.97922 0.0
C1015 C 0.05785 0.03227 0.97527 0.0
C1016 C 0.06721 1.01146 0.99654 0.0
C1017 C 0.04518 0.03165 0.98825 0.0
C1018 C 0.04356 0.02119 1.00523 0.0
C1019 C 0.05361 1.00109 0.02769 0.0
C1020 C 0.06521 0.99163 0.03259 0.0
C1021 C 0.05465 1.01117 0.00985 0.0
C1022 C 0.07752 0.99206 0.01893 0.0
C1023 C 0.07847 1.00174 1.00109 0.0
loop_
_geom_bond_atom_site_label_1
_geom_bond_atom_site_label_2
_geom_bond_distance
_geom_bond_site_symmetry_2
_ccdc_geom_bond_type
C0 C1 1.264 . S
C0 C5 1.417 1_455 S
C0 C10 1.465 . S
C1 C0 1.264 . S
C1 C3 1.339 . S
C1 H28 0.931 . S
C2 C3 1.395 1_655 S
C2 C4 1.320 . S
C3 C1 1.339 . S
C3 C2 1.395 1_455 S
C3 H29 0.929 . S
C4 C2 1.320 . S
C4 C5 1.462 . S
C4 H30 0.930 . S
C5 C0 1.417 1_655 S
C5 C4 1.462 . S
C5 H31 0.938 . S
U6 O7 2.454 . S
U6 O8 2.458 . S
U6 C9 2.984 . S
U6 C10 2.847 . S
U6 C23 2.882 . S
U6 O24 2.441 . S
U6 O25 2.420 . S
U6 O26 2.455 . S
U6 O27 2.449 . S
O7 U6 2.454 . S
O7 C9 1.353 . S
O8 U6 2.458 . S
O8 C9 1.286 . S
C9 U6 2.984 . S
C9 O7 1.353 . S
C9 O8 1.286 . S
C9 C11 1.363 . S
C10 C0 1.465 . S
C10 U6 2.847 . S
C10 O24 1.249 . S
C10 O25 1.202 . S
C11 C9 1.363 . S
C11 C13 1.408 . S
C11 C16 1.342 . S
C12 C13 1.310 . S
C12 C15 1.461 . S
C12 H32 0.932 . S
C13 C11 1.408 . S
C13 C12 1.310 . S
C13 H33 0.930 . S
C14 C15 1.474 . S
C14 C16 1.285 . S
C14 H34 0.929 . S
C15 C12 1.461 . S
C15 C14 1.474 . S
C16 C11 1.342 . S
C16 C14 1.285 . S
C16 H35 0.930 . S
C17 C20 1.424 . S
C17 C22 1.245 . S
C17 C23 1.428 . S
C18 C21 1.260 . S
C18 C22 1.477 . S
C18 H36 0.932 . S
C19 C20 1.384 . S
C19 C21 1.479 . S
C19 H37 0.929 . S
C20 C17 1.424 . S
C20 C19 1.384 . S
C20 H38 0.928 . S
C21 C18 1.260 . S
C21 C19 1.479 . S
C22 C17 1.245 . S
C22 C18 1.477 . S
C22 H39 0.932 . S
C23 U6 2.882 . S
C23 C17 1.428 . S
C23 O26 1.301 . S
C23 O27 1.282 . S
O24 U6 2.441 . S
O24 C10 1.249 . S
O25 U6 2.420 . S
O25 C10 1.202 . S
O26 U6 2.455 . S
O26 C23 1.301 . S
O27 U6 2.449 . S
O27 C23 1.282 . S
H28 C1 0.931 . S
H29 C3 0.929 . S
H30 C4 0.930 . S
H31 C5 0.938 . S
H32 C12 0.932 . S
H33 C13 0.930 . S
H34 C14 0.929 . S
H35 C16 0.930 . S
H36 C18 0.932 . S
H37 C19 0.929 . S
H38 C20 0.928 . S
H39 C22 0.932 . S
C40 C41 1.264 . S
C40 C45 1.479 . S
C40 C50 1.465 . S
C41 C40 1.264 . S
C41 C43 1.339 . S
C41 H68 0.931 . S
C42 C43 1.395 . S
C42 C44 1.320 . S
C43 C41 1.339 . S
C43 C42 1.395 . S
C43 H69 0.929 . S
C44 C42 1.320 . S
C44 C45 1.405 . S
C44 H70 0.930 . S
C45 C40 1.479 . S
C45 C44 1.405 . S
C45 H71 0.931 . S
U46 O47 2.454 . S
U46 O48 2.458 . S
U46 C49 2.984 . S
U46 C50 2.847 . S
U46 C63 2.882 . S
U46 O64 2.441 . S
U46 O65 2.420 . S
U46 O66 2.455 . S
U46 O67 2.449 . S
O47 U46 2.454 . S
O47 C49 1.353 . S
O48 U46 2.458 . S
O48 C49 1.286 . S
C49 U46 2.984 . S
C49 O47 1.353 . S
C49 O48 1.286 . S
C49 C51 1.363 . S
C50 C40 1.465 . S
C50 U46 2.847 . S
C50 O64 1.249 . S
C50 O65 1.202 . S
C51 C49 1.363 . S
C51 C53 1.408 . S
C51 C56 1.342 . S
C52 C53 1.310 . S
C52 C55 1.461 . S
C52 H72 0.932 . S
C53 C51 1.408 . S
C53 C52 1.310 . S
C53 H73 0.930 . S
C54 C55 1.474 . S
C54 C56 1.285 . S
C54 H74 0.929 . S
C55 C52 1.461 . S
C55 C54 1.474 . S
C56 C51 1.342 . S
C56 C54 1.285 . S
C56 H75 0.930 . S
C57 C60 1.424 . S
C57 C62 1.245 . S
C57 C63 1.428 . S
C58 C61 1.260 . S
C58 C62 1.477 . S
C58 H76 0.932 . S
C59 C60 1.384 . S
C59 C61 1.479 . S
C59 H77 0.929 . S
C60 C57 1.424 . S
C60 C59 1.384 . S
C60 H78 0.928 . S
C61 C58 1.260 . S
C61 C59 1.479 . S
C62 C57 1.245 . S
C62 C58 1.477 . S
C62 H79 0.932 . S
C63 U46 2.882 . S
C63 C57 1.428 . S
C63 O66 1.301 . S
C63 O67 1.282 . S
O64 U46 2.441 . S
O64 C50 1.249 . S
O65 U46 2.420 . S
O65 C50 1.202 . S
O66 U46 2.455 . S
O66 C63 1.301 . S
O67 U46 2.449 . S
O67 C63 1.282 . S
H68 C41 0.931 . S
H69 C43 0.929 . S
H70 C44 0.930 . S
H71 C45 0.931 . S
H72 C52 0.932 . S
H73 C53 0.930 . S
H74 C54 0.929 . S
H75 C56 0.930 . S
H76 C58 0.932 . S
H77 C59 0.929 . S
H78 C60 0.928 . S
H79 C62 0.932 . S
C80 C81 1.264 . S
C80 C85 1.479 . S
C80 C90 1.465 . S
C81 C80 1.264 . S
C81 C83 1.339 . S
C81 H108 0.931 . S
C82 C83 1.395 . S
C82 C84 1.320 . S
C83 C81 1.339 . S
C83 C82 1.395 . S
C83 H109 0.929 . S
C84 C82 1.320 . S
C84 C85 1.405 . S
C84 H110 0.930 . S
C85 C80 1.479 . S
C85 C84 1.405 . S
C85 H111 0.931 . S
U86 O87 2.454 . S
U86 O88 2.458 . S
U86 C89 2.984 . S
U86 C90 2.847 . S
U86 C103 2.882 . S
U86 O104 2.441 . S
U86 O105 2.420 . S
U86 O106 2.455 . S
U86 O107 2.449 . S
O87 U86 2.454 . S
O87 C89 1.353 . S
O88 U86 2.458 . S
O88 C89 1.286 . S
C89 U86 2.984 . S
C89 O87 1.353 . S
C89 O88 1.286 . S
C89 C91 1.363 . S
C90 C80 1.465 . S
C90 U86 2.847 . S
C90 O104 1.249 . S
C90 O105 1.202 . S
C91 C89 1.363 . S
C91 C93 1.408 . S
C91 C96 1.342 . S
C92 C93 1.310 . S
C92 C95 1.461 . S
C92 H112 0.932 . S
C93 C91 1.408 . S
C93 C92 1.310 . S
C93 H113 0.930 . S
C94 C95 1.474 . S
C94 C96 1.285 . S
C94 H114 0.929 . S
C95 C92 1.461 . S
C95 C94 1.474 . S
C96 C91 1.342 . S
C96 C94 1.285 . S
C96 H115 0.930 . S
C97 C100 1.424 . S
C97 C102 1.245 . S
C97 C103 1.428 . S
C98 C101 1.260 . S
C98 C102 1.477 . S
C98 H116 0.932 . S
C99 C100 1.384 . S
C99 C101 1.479 . S
C99 H117 0.929 . S
C100 C97 1.424 . S
C100 C99 1.384 . S
C100 H118 0.928 . S
C101 C98 1.260 . S
C101 C99 1.479 . S
C102 C97 1.245 . S
C102 C98 1.477 . S
C102 H119 0.932 . S
C103 U86 2.882 . S
C103 C97 1.428 . S
C103 O106 1.301 . S
C103 O107 1.282 . S
O104 U86 2.441 . S
O104 C90 1.249 . S
O105 U86 2.420 . S
O105 C90 1.202 . S
O106 U86 2.455 . S
O106 C103 1.301 . S
O107 U86 2.449 . S
O107 C103 1.282 . S
H108 C81 0.931 . S
H109 C83 0.929 . S
H110 C84 0.930 . S
H111 C85 0.931 . S
H112 C92 0.932 . S
H113 C93 0.930 . S
H114 C94 0.929 . S
H115 C96 0.930 . S
H116 C98 0.932 . S
H117 C99 0.929 . S
H118 C100 0.928 . S
H119 C102 0.932 . S
C120 C121 1.264 . S
C120 C125 1.479 . S
C120 C130 1.465 . S
C121 C120 1.264 . S
C121 C123 1.339 . S
C121 H148 0.931 . S
C122 C123 1.395 . S
C122 C124 1.320 . S
C123 C121 1.339 . S
C123 C122 1.395 . S
C123 H149 0.929 . S
C124 C122 1.320 . S
C124 C125 1.405 . S
C124 H150 0.930 . S
C125 C120 1.479 . S
C125 C124 1.405 . S
C125 H151 0.931 . S
U126 O127 2.454 . S
U126 O128 2.458 . S
U126 C129 2.984 . S
U126 C130 2.847 . S
U126 C143 2.882 . S
U126 O144 2.441 . S
U126 O145 2.420 . S
U126 O146 2.455 . S
U126 O147 2.449 . S
O127 U126 2.454 . S
O127 C129 1.353 . S
O128 U126 2.458 . S
O128 C129 1.286 . S
C129 U126 2.984 . S
C129 O127 1.353 . S
C129 O128 1.286 . S
C129 C131 1.363 . S
C130 C120 1.465 . S
C130 U126 2.847 . S
C130 O144 1.249 . S
C130 O145 1.202 . S
C131 C129 1.363 . S
C131 C133 1.408 . S
C131 C136 1.342 . S
C132 C133 1.310 . S
C132 C135 1.461 . S
C132 H152 0.932 . S
C133 C131 1.408 . S
C133 C132 1.310 . S
C133 H153 0.930 . S
C134 C135 1.474 . S
C134 C136 1.285 . S
C134 H154 0.929 . S
C135 C132 1.461 . S
C135 C134 1.474 . S
C136 C131 1.342 . S
C136 C134 1.285 . S
C136 H155 0.930 . S
C137 C140 1.424 . S
C137 C142 1.245 . S
C137 C143 1.428 . S
C138 C141 1.260 . S
C138 C142 1.477 . S
C138 H156 0.932 . S
C139 C140 1.384 . S
C139 C141 1.479 . S
C139 H157 0.929 . S
C140 C137 1.424 . S
C140 C139 1.384 . S
C140 H158 0.928 . S
C141 C138 1.260 . S
C141 C139 1.479 . S
C142 C137 1.245 . S
C142 C138 1.477 . S
C142 H159 0.932 . S
C143 U126 2.882 . S
C143 C137 1.428 . S
C143 O146 1.301 . S
C143 O147 1.282 . S
O144 U126 2.441 . S
O144 C130 1.249 . S
O145 U126 2.420 . S
O145 C130 1.202 . S
O146 U126 2.455 . S
O146 C143 1.301 . S
O147 U126 2.449 . S
O147 C143 1.282 . S
H148 C121 0.931 . S
H149 C123 0.929 . S
H150 C124 0.930 . S
H151 C125 0.931 . S
H152 C132 0.932 . S
H153 C133 0.930 . S
H154 C134 0.929 . S
H155 C136 0.930 . S
H156 C138 0.932 . S
H157 C139 0.929 . S
H158 C140 0.928 . S
H159 C142 0.932 . S
C160 C161 1.264 . S
C160 C165 1.479 1_455 S
C160 C170 1.465 . S
C161 C160 1.264 . S
C161 C163 1.339 . S
C161 H188 0.931 . S
C162 C163 1.395 1_655 S
C162 C164 1.320 . S
C163 C161 1.339 . S
C163 C162 1.395 1_455 S
C163 H189 0.929 . S
C164 C162 1.320 . S
C164 C165 1.405 . S
C164 H190 0.930 . S
C165 C160 1.479 1_655 S
C165 C164 1.405 . S
C165 H191 0.931 . S
U166 O167 2.454 . S
U166 O168 2.458 . S
U166 C169 2.984 . S
U166 C170 2.847 . S
U166 C183 2.882 . S
U166 O184 2.441 . S
U166 O185 2.420 . S
U166 O186 2.455 . S
U166 O187 2.449 . S
O167 U166 2.454 . S
O167 C169 1.353 . S
O168 U166 2.458 . S
O168 C169 1.286 . S
C169 U166 2.984 . S
C169 O167 1.353 . S
C169 O168 1.286 . S
C169 C171 1.363 . S
C170 C160 1.465 . S
C170 U166 2.847 . S
C170 O184 1.249 . S
C170 O185 1.202 . S
C171 C169 1.363 . S
C171 C173 1.408 . S
C171 C176 1.342 . S
C172 C173 1.310 . S
C172 C175 1.461 . S
C172 H192 0.932 . S
C173 C171 1.408 . S
C173 C172 1.310 . S
C173 H193 0.930 . S
C174 C175 1.474 . S
C174 C176 1.285 . S
C174 H194 0.929 . S
C175 C172 1.461 . S
C175 C174 1.474 . S
C176 C171 1.342 . S
C176 C174 1.285 . S
C176 H195 0.930 . S
C177 C180 1.424 . S
C177 C182 1.245 . S
C177 C183 1.428 . S
C178 C181 1.260 . S
C178 C182 1.477 . S
C178 H196 0.932 . S
C179 C180 1.384 . S
C179 C181 1.479 . S
C179 H197 0.929 . S
C180 C177 1.424 . S
C180 C179 1.384 . S
C180 H198 0.928 . S
C181 C178 1.260 . S
C181 C179 1.479 . S
C182 C177 1.245 . S
C182 C178 1.477 . S
C182 H199 0.932 . S
C183 U166 2.882 . S
C183 C177 1.428 . S
C183 O186 1.301 . S
C183 O187 1.282 . S
O184 U166 2.441 . S
O184 C170 1.249 . S
O185 U166 2.420 . S
O185 C170 1.202 . S
O186 U166 2.455 . S
O186 C183 1.301 . S
O187 U166 2.449 . S
O187 C183 1.282 . S
H188 C161 0.931 . S
H189 C163 0.929 . S
H190 C164 0.930 . S
H191 C165 0.931 . S
H192 C172 0.932 . S
H193 C173 0.930 . S
H194 C174 0.929 . S
H195 C176 0.930 . S
H196 C178 0.932 . S
H197 C179 0.929 . S
H198 C180 0.928 . S
H199 C182 0.932 . S
C200 C201 1.264 . S
C200 C205 1.479 . S
C200 C210 1.465 . S
C201 C200 1.264 . S
C201 C203 1.339 . S
C201 H228 0.931 . S
C202 C203 1.395 . S
C202 C204 1.320 . S
C203 C201 1.339 . S
C203 C202 1.395 . S
C203 H229 0.929 . S
C204 C202 1.320 . S
C204 C205 1.405 . S
C204 H230 0.930 . S
C205 C200 1.479 . S
C205 C204 1.405 . S
C205 H231 0.931 . S
U206 O207 2.454 . S
U206 O208 2.458 . S
U206 C209 2.984 . S
U206 C210 2.847 . S
U206 C223 2.882 . S
U206 O224 2.441 . S
U206 O225 2.420 . S
U206 O226 2.455 . S
U206 O227 2.449 . S
O207 U206 2.454 . S
O207 C209 1.353 . S
O208 U206 2.458 . S
O208 C209 1.286 . S
C209 U206 2.984 . S
C209 O207 1.353 . S
C209 O208 1.286 . S
C209 C211 1.363 . S
C210 C200 1.465 . S
C210 U206 2.847 . S
C210 O224 1.249 . S
C210 O225 1.202 . S
C211 C209 1.363 . S
C211 C213 1.408 . S
C211 C216 1.342 . S
C212 C213 1.310 . S
C212 C215 1.461 . S
C212 H232 0.932 . S
C213 C211 1.408 . S
C213 C212 1.310 . S
C213 H233 0.930 . S
C214 C215 1.474 . S
C214 C216 1.285 . S
C214 H234 0.929 . S
C215 C212 1.461 . S
C215 C214 1.474 . S
C216 C211 1.342 . S
C216 C214 1.285 . S
C216 H235 0.930 . S
C217 C220 1.424 . S
C217 C222 1.245 . S
C217 C223 1.428 . S
C218 C221 1.260 . S
C218 C222 1.477 . S
C218 H236 0.932 . S
C219 C220 1.384 . S
C219 C221 1.479 . S
C219 H237 0.929 . S
C220 C217 1.424 . S
C220 C219 1.384 . S
C220 H238 0.928 . S
C221 C218 1.260 . S
C221 C219 1.479 . S
C222 C217 1.245 . S
C222 C218 1.477 . S
C222 H239 0.932 . S
C223 U206 2.882 . S
C223 C217 1.428 . S
C223 O226 1.301 . S
C223 O227 1.282 . S
O224 U206 2.441 . S
O224 C210 1.249 . S
O225 U206 2.420 . S
O225 C210 1.202 . S
O226 U206 2.455 . S
O226 C223 1.301 . S
O227 U206 2.449 . S
O227 C223 1.282 . S
H228 C201 0.931 . S
H229 C203 0.929 . S
H230 C204 0.930 . S
H231 C205 0.931 . S
H232 C212 0.932 . S
H233 C213 0.930 . S
H234 C214 0.929 . S
H235 C216 0.930 . S
H236 C218 0.932 . S
H237 C219 0.929 . S
H238 C220 0.928 . S
H239 C222 0.932 . S
C240 C241 1.264 . S
C240 C245 1.479 . S
C240 C250 1.465 . S
C241 C240 1.264 . S
C241 C243 1.339 . S
C241 H268 0.931 . S
C242 C243 1.395 . S
C242 C244 1.320 . S
C243 C241 1.339 . S
C243 C242 1.395 . S
C243 H269 0.929 . S
C244 C242 1.320 . S
C244 C245 1.405 . S
C244 H270 0.930 . S
C245 C240 1.479 . S
C245 C244 1.405 . S
C245 H271 0.931 . S
U246 O247 2.454 . S
U246 O248 2.458 . S
U246 C249 2.984 . S
U246 C250 2.847 . S
U246 C263 2.882 . S
U246 O264 2.441 . S
U246 O265 2.420 . S
U246 O266 2.455 . S
U246 O267 2.449 . S
O247 U246 2.454 . S
O247 C249 1.353 . S
O248 U246 2.458 . S
O248 C249 1.286 . S
C249 U246 2.984 . S
C249 O247 1.353 . S
C249 O248 1.286 . S
C249 C251 1.363 . S
C250 C240 1.465 . S
C250 U246 2.847 . S
C250 O264 1.249 . S
C250 O265 1.202 . S
C251 C249 1.363 . S
C251 C253 1.408 . S
C251 C256 1.342 . S
C252 C253 1.310 . S
C252 C255 1.461 . S
C252 H272 0.932 . S
C253 C251 1.408 . S
C253 C252 1.310 . S
C253 H273 0.930 . S
C254 C255 1.474 . S
C254 C256 1.285 . S
C254 H274 0.929 . S
C255 C252 1.461 . S
C255 C254 1.474 . S
C256 C251 1.342 . S
C256 C254 1.285 . S
C256 H275 0.930 . S
C257 C260 1.424 . S
C257 C262 1.245 . S
C257 C263 1.428 . S
C258 C261 1.260 . S
C258 C262 1.477 . S
C258 H276 0.932 . S
C259 C260 1.384 . S
C259 C261 1.479 . S
C259 H277 0.929 . S
C260 C257 1.424 . S
C260 C259 1.384 . S
C260 H278 0.928 . S
C261 C258 1.260 . S
C261 C259 1.479 . S
C262 C257 1.245 . S
C262 C258 1.477 . S
C262 H279 0.932 . S
C263 U246 2.882 . S
C263 C257 1.428 . S
C263 O266 1.301 . S
C263 O267 1.282 . S
O264 U246 2.441 . S
O264 C250 1.249 . S
O265 U246 2.420 . S
O265 C250 1.202 . S
O266 U246 2.455 . S
O266 C263 1.301 . S
O267 U246 2.449 . S
O267 C263 1.282 . S
H268 C241 0.931 . S
H269 C243 0.929 . S
H270 C244 0.930 . S
H271 C245 0.931 . S
H272 C252 0.932 . S
H273 C253 0.930 . S
H274 C254 0.929 . S
H275 C256 0.930 . S
H276 C258 0.932 . S
H277 C259 0.929 . S
H278 C260 0.928 . S
H279 C262 0.932 . S
C280 C281 1.264 . S
C280 C285 1.479 . S
C280 C290 1.465 . S
C281 C280 1.264 . S
C281 C283 1.339 . S
C281 H308 0.931 . S
C282 C283 1.395 . S
C282 C284 1.320 . S
C283 C281 1.339 . S
C283 C282 1.395 . S
C283 H309 0.929 . S
C284 C282 1.320 . S
C284 C285 1.405 . S
C284 H310 0.930 . S
C285 C280 1.479 . S
C285 C284 1.405 . S
C285 H311 0.931 . S
U286 O287 2.454 . S
U286 O288 2.458 . S
U286 C289 2.984 . S
U286 C290 2.847 . S
U286 C303 2.882 . S
U286 O304 2.441 . S
U286 O305 2.420 . S
U286 O306 2.455 . S
U286 O307 2.449 . S
O287 U286 2.454 . S
O287 C289 1.353 . S
O288 U286 2.458 . S
O288 C289 1.286 . S
C289 U286 2.984 . S
C289 O287 1.353 . S
C289 O288 1.286 . S
C289 C291 1.363 . S
C290 C280 1.465 . S
C290 U286 2.847 . S
C290 O304 1.249 . S
C290 O305 1.202 . S
C291 C289 1.363 . S
C291 C293 1.408 . S
C291 C296 1.342 . S
C292 C293 1.310 . S
C292 C295 1.461 . S
C292 H312 0.932 . S
C293 C291 1.408 . S
C293 C292 1.310 . S
C293 H313 0.930 . S
C294 C295 1.474 . S
C294 C296 1.285 . S
C294 H314 0.929 . S
C295 C292 1.461 . S
C295 C294 1.474 . S
C296 C291 1.342 . S
C296 C294 1.285 . S
C296 H315 0.930 . S
C297 C300 1.424 . S
C297 C302 1.245 . S
C297 C303 1.428 . S
C298 C301 1.260 . S
C298 C302 1.477 . S
C298 H316 0.932 . S
C299 C300 1.384 . S
C299 C301 1.479 . S
C299 H317 0.929 . S
C300 C297 1.424 . S
C300 C299 1.384 . S
C300 H318 0.928 . S
C301 C298 1.260 . S
C301 C299 1.479 . S
C302 C297 1.245 . S
C302 C298 1.477 . S
C302 H319 0.932 . S
C303 U286 2.882 . S
C303 C297 1.428 . S
C303 O306 1.301 . S
C303 O307 1.282 . S
O304 U286 2.441 . S
O304 C290 1.249 . S
O305 U286 2.420 . S
O305 C290 1.202 . S
O306 U286 2.455 . S
O306 C303 1.301 . S
O307 U286 2.449 . S
O307 C303 1.282 . S
H308 C281 0.931 . S
H309 C283 0.929 . S
H310 C284 0.930 . S
H311 C285 0.931 . S
H312 C292 0.932 . S
H313 C293 0.930 . S
H314 C294 0.929 . S
H315 C296 0.930 . S
H316 C298 0.932 . S
H317 C299 0.929 . S
H318 C300 0.928 . S
H319 C302 0.932 . S
C320 C321 1.264 . S
C320 C325 1.479 . S
C320 C330 1.465 . S
C321 C320 1.264 . S
C321 C323 1.339 . S
C321 H348 0.931 . S
C322 C323 1.395 . S
C322 C324 1.320 . S
C323 C321 1.339 . S
C323 C322 1.395 . S
C323 H349 0.929 . S
C324 C322 1.320 . S
C324 C325 1.405 . S
C324 H350 0.930 . S
C325 C320 1.479 . S
C325 C324 1.405 . S
C325 H351 0.931 . S
U326 O327 2.454 . S
U326 O328 2.458 . S
U326 C329 2.984 . S
U326 C330 2.847 . S
U326 C343 2.882 . S
U326 O344 2.441 . S
U326 O345 2.420 . S
U326 O346 2.455 . S
U326 O347 2.449 . S
O327 U326 2.454 . S
O327 C329 1.353 . S
O328 U326 2.458 . S
O328 C329 1.286 . S
C329 U326 2.984 . S
C329 O327 1.353 . S
C329 O328 1.286 . S
C329 C331 1.363 . S
C330 C320 1.465 . S
C330 U326 2.847 . S
C330 O344 1.249 . S
C330 O345 1.202 . S
C331 C329 1.363 . S
C331 C333 1.408 . S
C331 C336 1.342 . S
C332 C333 1.310 . S
C332 C335 1.461 . S
C332 H352 0.932 . S
C333 C331 1.408 . S
C333 C332 1.310 . S
C333 H353 0.930 . S
C334 C335 1.474 . S
C334 C336 1.285 . S
C334 H354 0.929 . S
C335 C332 1.461 . S
C335 C334 1.474 . S
C336 C331 1.342 . S
C336 C334 1.285 . S
C336 H355 0.930 . S
C337 C340 1.424 . S
C337 C342 1.245 . S
C337 C343 1.428 . S
C338 C341 1.260 . S
C338 C342 1.477 . S
C338 H356 0.932 . S
C339 C340 1.384 . S
C339 C341 1.479 . S
C339 H357 0.929 . S
C340 C337 1.424 . S
C340 C339 1.384 . S
C340 H358 0.928 . S
C341 C338 1.260 . S
C341 C339 1.479 . S
C342 C337 1.245 . S
C342 C338 1.477 . S
C342 H359 0.932 . S
C343 U326 2.882 . S
C343 C337 1.428 . S
C343 O346 1.301 . S
C343 O347 1.282 . S
O344 U326 2.441 . S
O344 C330 1.249 . S
O345 U326 2.420 . S
O345 C330 1.202 . S
O346 U326 2.455 . S
O346 C343 1.301 . S
O347 U326 2.449 . S
O347 C343 1.282 . S
H348 C321 0.931 . S
H349 C323 0.929 . S
H350 C324 0.930 . S
H351 C325 0.931 . S
H352 C332 0.932 . S
H353 C333 0.930 . S
H354 C334 0.929 . S
H355 C336 0.930 . S
H356 C338 0.932 . S
H357 C339 0.929 . S
H358 C340 0.928 . S
H359 C342 0.932 . S
C360 C361 1.264 . S
C360 C365 1.479 . S
C360 C370 1.465 . S
C361 C360 1.264 . S
C361 C363 1.339 . S
C361 H388 0.931 . S
C362 C363 1.395 . S
C362 C364 1.320 . S
C363 C361 1.339 . S
C363 C362 1.395 . S
C363 H389 0.929 . S
C364 C362 1.320 . S
C364 C365 1.405 . S
C364 H390 0.930 . S
C365 C360 1.479 . S
C365 C364 1.405 . S
C365 H391 0.931 . S
U366 O367 2.454 . S
U366 O368 2.458 . S
U366 C369 2.984 . S
U366 C370 2.847 . S
U366 C383 2.882 . S
U366 O384 2.441 . S
U366 O385 2.420 . S
U366 O386 2.455 . S
U366 O387 2.449 . S
O367 U366 2.454 . S
O367 C369 1.353 . S
O368 U366 2.458 . S
O368 C369 1.286 . S
C369 U366 2.984 . S
C369 O367 1.353 . S
C369 O368 1.286 . S
C369 C371 1.363 . S
C370 C360 1.465 . S
C370 U366 2.847 . S
C370 O384 1.249 . S
C370 O385 1.202 . S
C371 C369 1.363 . S
C371 C373 1.408 . S
C371 C376 1.342 . S
C372 C373 1.310 . S
C372 C375 1.461 . S
C372 H392 0.932 . S
C373 C371 1.408 . S
C373 C372 1.310 . S
C373 H393 0.930 . S
C374 C375 1.474 . S
C374 C376 1.285 . S
C374 H394 0.929 . S
C375 C372 1.461 . S
C375 C374 1.474 . S
C376 C371 1.342 . S
C376 C374 1.285 . S
C376 H395 0.930 . S
C377 C380 1.424 . S
C377 C382 1.245 . S
C377 C383 1.428 . S
C378 C381 1.260 . S
C378 C382 1.477 . S
C378 H396 0.932 . S
C379 C380 1.384 . S
C379 C381 1.479 . S
C379 H397 0.929 . S
C380 C377 1.424 . S
C380 C379 1.384 . S
C380 H398 0.928 . S
C381 C378 1.260 . S
C381 C379 1.479 . S
C382 C377 1.245 . S
C382 C378 1.477 . S
C382 H399 0.932 . S
C383 U366 2.882 . S
C383 C377 1.428 . S
C383 O386 1.301 . S
C383 O387 1.282 . S
O384 U366 2.441 . S
O384 C370 1.249 . S
O385 U366 2.420 . S
O385 C370 1.202 . S
O386 U366 2.455 . S
O386 C383 1.301 . S
O387 U366 2.449 . S
O387 C383 1.282 . S
H388 C361 0.931 . S
H389 C363 0.929 . S
H390 C364 0.930 . S
H391 C365 0.931 . S
H392 C372 0.932 . S
H393 C373 0.930 . S
H394 C374 0.929 . S
H395 C376 0.930 . S
H396 C378 0.932 . S
H397 C379 0.929 . S
H398 C380 0.928 . S
H399 C382 0.932 . S
C400 C401 1.264 . S
C400 C405 1.479 . S
C400 C410 1.465 . S
C401 C400 1.264 . S
C401 C403 1.339 . S
C401 H428 0.931 . S
C402 C403 1.395 . S
C402 C404 1.320 . S
C403 C401 1.339 . S
C403 C402 1.395 . S
C403 H429 0.929 . S
C404 C402 1.320 . S
C404 C405 1.405 . S
C404 H430 0.930 . S
C405 C400 1.479 . S
C405 C404 1.405 . S
C405 H431 0.931 . S
U406 O407 2.454 . S
U406 O408 2.458 . S
U406 C409 2.984 . S
U406 C410 2.847 . S
U406 C423 2.882 . S
U406 O424 2.441 . S
U406 O425 2.420 . S
U406 O426 2.455 . S
U406 O427 2.449 . S
O407 U406 2.454 . S
O407 C409 1.353 . S
O408 U406 2.458 . S
O408 C409 1.286 . S
C409 U406 2.984 . S
C409 O407 1.353 . S
C409 O408 1.286 . S
C409 C411 1.363 . S
C410 C400 1.465 . S
C410 U406 2.847 . S
C410 O424 1.249 . S
C410 O425 1.202 . S
C411 C409 1.363 . S
C411 C413 1.408 . S
C411 C416 1.342 . S
C412 C413 1.310 . S
C412 C415 1.461 . S
C412 H432 0.932 . S
C413 C411 1.408 . S
C413 C412 1.310 . S
C413 H433 0.930 . S
C414 C415 1.474 . S
C414 C416 1.285 . S
C414 H434 0.929 . S
C415 C412 1.461 . S
C415 C414 1.474 . S
C416 C411 1.342 . S
C416 C414 1.285 . S
C416 H435 0.930 . S
C417 C420 1.424 . S
C417 C422 1.245 . S
C417 C423 1.428 . S
C418 C421 1.260 . S
C418 C422 1.477 . S
C418 H436 0.932 . S
C419 C420 1.384 . S
C419 C421 1.479 . S
C419 H437 0.929 . S
C420 C417 1.424 . S
C420 C419 1.384 . S
C420 H438 0.928 . S
C421 C418 1.260 . S
C421 C419 1.479 . S
C422 C417 1.245 . S
C422 C418 1.477 . S
C422 H439 0.932 . S
C423 U406 2.882 . S
C423 C417 1.428 . S
C423 O426 1.301 . S
C423 O427 1.282 . S
O424 U406 2.441 . S
O424 C410 1.249 . S
O425 U406 2.420 . S
O425 C410 1.202 . S
O426 U406 2.455 . S
O426 C423 1.301 . S
O427 U406 2.449 . S
O427 C423 1.282 . S
H428 C401 0.931 . S
H429 C403 0.929 . S
H430 C404 0.930 . S
H431 C405 0.931 . S
H432 C412 0.932 . S
H433 C413 0.930 . S
H434 C414 0.929 . S
H435 C416 0.930 . S
H436 C418 0.932 . S
H437 C419 0.929 . S
H438 C420 0.928 . S
H439 C422 0.932 . S
C440 C441 1.264 . S
C440 C445 1.479 . S
C440 C450 1.465 . S
C441 C440 1.264 . S
C441 C443 1.339 . S
C441 H468 0.931 . S
C442 C443 1.395 . S
C442 C444 1.320 . S
C443 C441 1.339 . S
C443 C442 1.395 . S
C443 H469 0.929 . S
C444 C442 1.320 . S
C444 C445 1.405 . S
C444 H470 0.930 . S
C445 C440 1.479 . S
C445 C444 1.405 . S
C445 H471 0.931 . S
U446 O447 2.454 . S
U446 O448 2.458 . S
U446 C449 2.984 . S
U446 C450 2.847 . S
U446 C463 2.882 . S
U446 O464 2.441 . S
U446 O465 2.420 . S
U446 O466 2.455 . S
U446 O467 2.449 . S
O447 U446 2.454 . S
O447 C449 1.353 . S
O448 U446 2.458 . S
O448 C449 1.286 . S
C449 U446 2.984 . S
C449 O447 1.353 . S
C449 O448 1.286 . S
C449 C451 1.363 . S
C450 C440 1.465 . S
C450 U446 2.847 . S
C450 O464 1.249 . S
C450 O465 1.202 . S
C451 C449 1.363 . S
C451 C453 1.408 . S
C451 C456 1.342 . S
C452 C453 1.310 . S
C452 C455 1.461 . S
C452 H472 0.932 . S
C453 C451 1.408 . S
C453 C452 1.310 . S
C453 H473 0.930 . S
C454 C455 1.474 . S
C454 C456 1.285 . S
C454 H474 0.929 . S
C455 C452 1.461 . S
C455 C454 1.474 . S
C456 C451 1.342 . S
C456 C454 1.285 . S
C456 H475 0.930 . S
C457 C460 1.424 . S
C457 C462 1.245 . S
C457 C463 1.428 . S
C458 C461 1.260 . S
C458 C462 1.477 . S
C458 H476 0.932 . S
C459 C460 1.384 . S
C459 C461 1.479 . S
C459 H477 0.929 . S
C460 C457 1.424 . S
C460 C459 1.384 . S
C460 H478 0.928 . S
C461 C458 1.260 . S
C461 C459 1.479 . S
C462 C457 1.245 . S
C462 C458 1.477 . S
C462 H479 0.932 . S
C463 U446 2.882 . S
C463 C457 1.428 . S
C463 O466 1.301 . S
C463 O467 1.282 . S
O464 U446 2.441 . S
O464 C450 1.249 . S
O465 U446 2.420 . S
O465 C450 1.202 . S
O466 U446 2.455 . S
O466 C463 1.301 . S
O467 U446 2.449 . S
O467 C463 1.282 . S
H468 C441 0.931 . S
H469 C443 0.929 . S
H470 C444 0.930 . S
H471 C445 0.931 . S
H472 C452 0.932 . S
H473 C453 0.930 . S
H474 C454 0.929 . S
H475 C456 0.930 . S
H476 C458 0.932 . S
H477 C459 0.929 . S
H478 C460 0.928 . S
H479 C462 0.932 . S
C480 C481 1.264 . S
C480 C485 1.479 . S
C480 C490 1.465 . S
C481 C480 1.264 . S
C481 C483 1.339 . S
C481 H508 0.931 . S
C482 C483 1.395 . S
C482 C484 1.320 . S
C483 C481 1.339 . S
C483 C482 1.395 . S
C483 H509 0.929 . S
C484 C482 1.320 . S
C484 C485 1.405 . S
C484 H510 0.930 . S
C485 C480 1.479 . S
C485 C484 1.405 . S
C485 H511 0.931 . S
U486 O487 2.454 . S
U486 O488 2.458 . S
U486 C489 2.984 . S
U486 C490 2.847 . S
U486 C503 2.882 . S
U486 O504 2.441 . S
U486 O505 2.420 . S
U486 O506 2.455 . S
U486 O507 2.449 . S
O487 U486 2.454 . S
O487 C489 1.353 . S
O488 U486 2.458 . S
O488 C489 1.286 . S
C489 U486 2.984 . S
C489 O487 1.353 . S
C489 O488 1.286 . S
C489 C491 1.363 . S
C490 C480 1.465 . S
C490 U486 2.847 . S
C490 O504 1.249 . S
C490 O505 1.202 . S
C491 C489 1.363 . S
C491 C493 1.408 . S
C491 C496 1.342 . S
C492 C493 1.310 . S
C492 C495 1.461 . S
C492 H512 0.932 . S
C493 C491 1.408 . S
C493 C492 1.310 . S
C493 H513 0.930 . S
C494 C495 1.474 . S
C494 C496 1.285 . S
C494 H514 0.929 . S
C495 C492 1.461 . S
C495 C494 1.474 . S
C496 C491 1.342 . S
C496 C494 1.285 . S
C496 H515 0.930 . S
C497 C500 1.424 . S
C497 C502 1.245 . S
C497 C503 1.428 . S
C498 C501 1.260 . S
C498 C502 1.477 . S
C498 H516 0.932 . S
C499 C500 1.384 . S
C499 C501 1.479 . S
C499 H517 0.929 . S
C500 C497 1.424 . S
C500 C499 1.384 . S
C500 H518 0.928 . S
C501 C498 1.260 . S
C501 C499 1.479 . S
C502 C497 1.245 . S
C502 C498 1.477 . S
C502 H519 0.932 . S
C503 U486 2.882 . S
C503 C497 1.428 . S
C503 O506 1.301 . S
C503 O507 1.282 . S
O504 U486 2.441 . S
O504 C490 1.249 . S
O505 U486 2.420 . S
O505 C490 1.202 . S
O506 U486 2.455 . S
O506 C503 1.301 . S
O507 U486 2.449 . S
O507 C503 1.282 . S
H508 C481 0.931 . S
H509 C483 0.929 . S
H510 C484 0.930 . S
H511 C485 0.931 . S
H512 C492 0.932 . S
H513 C493 0.930 . S
H514 C494 0.929 . S
H515 C496 0.930 . S
H516 C498 0.932 . S
H517 C499 0.929 . S
H518 C500 0.928 . S
H519 C502 0.932 . S
C520 C521 1.264 . S
C520 C525 1.479 1_455 S
C520 C530 1.465 . S
C521 C520 1.264 . S
C521 C523 1.339 1_455 S
C521 H548 0.931 . S
C522 C523 1.395 . S
C522 C524 1.320 . S
C523 C521 1.339 1_655 S
C523 C522 1.395 . S
C523 H549 0.929 . S
C524 C522 1.320 . S
C524 C525 1.405 . S
C524 H550 0.930 . S
C525 C520 1.479 1_655 S
C525 C524 1.405 . S
C525 H551 0.931 . S
U526 O527 2.454 . S
U526 O528 2.458 . S
U526 C529 2.984 . S
U526 C530 2.847 . S
U526 C543 2.882 . S
U526 O544 2.441 . S
U526 O545 2.420 . S
U526 O546 2.455 . S
U526 O547 2.449 . S
O527 U526 2.454 . S
O527 C529 1.353 . S
O528 U526 2.458 . S
O528 C529 1.286 . S
C529 U526 2.984 . S
C529 O527 1.353 . S
C529 O528 1.286 . S
C529 C531 1.363 . S
C530 C520 1.465 . S
C530 U526 2.847 . S
C530 O544 1.249 . S
C530 O545 1.202 . S
C531 C529 1.363 . S
C531 C533 1.408 . S
C531 C536 1.342 . S
C532 C533 1.310 . S
C532 C535 1.461 . S
C532 H552 0.932 . S
C533 C531 1.408 . S
C533 C532 1.310 . S
C533 H553 0.930 . S
C534 C535 1.474 . S
C534 C536 1.285 . S
C534 H554 0.929 . S
C535 C532 1.461 . S
C535 C534 1.474 . S
C536 C531 1.342 . S
C536 C534 1.285 . S
C536 H555 0.930 . S
C537 C540 1.424 . S
C537 C542 1.245 . S
C537 C543 1.428 . S
C538 C541 1.260 . S
C538 C542 1.477 . S
C538 H556 0.932 . S
C539 C540 1.384 . S
C539 C541 1.479 . S
C539 H557 0.929 . S
C540 C537 1.424 . S
C540 C539 1.384 . S
C540 H558 0.928 . S
C541 C538 1.260 . S
C541 C539 1.479 . S
C542 C537 1.245 . S
C542 C538 1.477 . S
C542 H559 0.932 . S
C543 U526 2.882 . S
C543 C537 1.428 . S
C543 O546 1.301 . S
C543 O547 1.282 . S
O544 U526 2.441 . S
O544 C530 1.249 . S
O545 U526 2.420 . S
O545 C530 1.202 . S
O546 U526 2.455 . S
O546 C543 1.301 . S
O547 U526 2.449 . S
O547 C543 1.282 . S
H548 C521 0.931 . S
H549 C523 0.929 . S
H550 C524 0.930 . S
H551 C525 0.931 . S
H552 C532 0.932 . S
H553 C533 0.930 . S
H554 C534 0.929 . S
H555 C536 0.930 . S
H556 C538 0.932 . S
H557 C539 0.929 . S
H558 C540 0.928 . S
H559 C542 0.932 . S
C560 C561 1.264 . S
C560 C565 1.479 . S
C560 C570 1.465 . S
C561 C560 1.264 . S
C561 C563 1.339 . S
C561 H588 0.931 . S
C562 C563 1.395 . S
C562 C564 1.320 . S
C563 C561 1.339 . S
C563 C562 1.395 . S
C563 H589 0.929 . S
C564 C562 1.320 . S
C564 C565 1.405 . S
C564 H590 0.930 . S
C565 C560 1.479 . S
C565 C564 1.405 . S
C565 H591 0.931 . S
U566 O567 2.454 . S
U566 O568 2.458 . S
U566 C569 2.984 . S
U566 C570 2.847 . S
U566 C583 2.882 . S
U566 O584 2.441 . S
U566 O585 2.420 . S
U566 O586 2.455 . S
U566 O587 2.449 . S
O567 U566 2.454 . S
O567 C569 1.353 . S
O568 U566 2.458 . S
O568 C569 1.286 . S
C569 U566 2.984 . S
C569 O567 1.353 . S
C569 O568 1.286 . S
C569 C571 1.363 . S
C570 C560 1.465 . S
C570 U566 2.847 . S
C570 O584 1.249 . S
C570 O585 1.202 . S
C571 C569 1.363 . S
C571 C573 1.408 . S
C571 C576 1.342 . S
C572 C573 1.310 . S
C572 C575 1.461 . S
C572 H592 0.932 . S
C573 C571 1.408 . S
C573 C572 1.310 . S
C573 H593 0.930 . S
C574 C575 1.474 . S
C574 C576 1.285 . S
C574 H594 0.929 . S
C575 C572 1.461 . S
C575 C574 1.474 . S
C576 C571 1.342 . S
C576 C574 1.285 . S
C576 H595 0.930 . S
C577 C580 1.424 . S
C577 C582 1.245 . S
C577 C583 1.428 . S
C578 C581 1.260 . S
C578 C582 1.477 . S
C578 H596 0.932 . S
C579 C580 1.384 . S
C579 C581 1.479 . S
C579 H597 0.929 . S
C580 C577 1.424 . S
C580 C579 1.384 . S
C580 H598 0.928 . S
C581 C578 1.260 . S
C581 C579 1.479 . S
C582 C577 1.245 . S
C582 C578 1.477 . S
C582 H599 0.932 . S
C583 U566 2.882 . S
C583 C577 1.428 . S
C583 O586 1.301 . S
C583 O587 1.282 . S
O584 U566 2.441 . S
O584 C570 1.249 . S
O585 U566 2.420 . S
O585 C570 1.202 . S
O586 U566 2.455 . S
O586 C583 1.301 . S
O587 U566 2.449 . S
O587 C583 1.282 . S
H588 C561 0.931 . S
H589 C563 0.929 . S
H590 C564 0.930 . S
H591 C565 0.931 . S
H592 C572 0.932 . S
H593 C573 0.930 . S
H594 C574 0.929 . S
H595 C576 0.930 . S
H596 C578 0.932 . S
H597 C579 0.929 . S
H598 C580 0.928 . S
H599 C582 0.932 . S
C600 C601 1.264 . S
C600 C605 1.479 1_455 S
C600 C610 1.465 . S
C601 C600 1.264 . S
C601 C603 1.339 1_455 S
C601 H628 0.931 . S
C602 C603 1.395 . S
C602 C604 1.320 . S
C603 C601 1.339 1_655 S
C603 C602 1.395 . S
C603 H629 0.935 . S
C604 C602 1.320 . S
C604 C605 1.405 . S
C604 H630 0.930 . S
C605 C600 1.479 1_655 S
C605 C604 1.405 . S
C605 H631 0.931 . S
U606 O607 2.454 . S
U606 O608 2.458 . S
U606 C609 2.984 . S
U606 C610 2.847 . S
U606 C623 2.882 . S
U606 O624 2.441 . S
U606 O625 2.420 . S
U606 O626 2.455 . S
U606 O627 2.449 . S
O607 U606 2.454 . S
O607 C609 1.353 . S
O608 U606 2.458 . S
O608 C609 1.286 . S
C609 U606 2.984 . S
C609 O607 1.353 . S
C609 O608 1.286 . S
C609 C611 1.363 . S
C610 C600 1.465 . S
C610 U606 2.847 . S
C610 O624 1.249 . S
C610 O625 1.202 . S
C611 C609 1.363 . S
C611 C613 1.408 . S
C611 C616 1.342 . S
C612 C613 1.310 . S
C612 C615 1.461 . S
C612 H632 0.932 . S
C613 C611 1.408 . S
C613 C612 1.310 . S
C613 H633 0.930 . S
C614 C615 1.474 . S
C614 C616 1.285 . S
C614 H634 0.929 . S
C615 C612 1.461 . S
C615 C614 1.474 . S
C616 C611 1.342 . S
C616 C614 1.285 . S
C616 H635 0.930 . S
C617 C620 1.424 . S
C617 C622 1.245 . S
C617 C623 1.428 . S
C618 C621 1.260 . S
C618 C622 1.477 . S
C618 H636 0.932 . S
C619 C620 1.384 . S
C619 C621 1.479 . S
C619 H637 0.929 . S
C620 C617 1.424 . S
C620 C619 1.384 . S
C620 H638 0.928 . S
C621 C618 1.260 . S
C621 C619 1.479 . S
C622 C617 1.245 . S
C622 C618 1.477 . S
C622 H639 0.932 . S
C623 U606 2.882 . S
C623 C617 1.428 . S
C623 O626 1.301 . S
C623 O627 1.282 . S
O624 U606 2.441 . S
O624 C610 1.249 . S
O625 U606 2.420 . S
O625 C610 1.202 . S
O626 U606 2.455 . S
O626 C623 1.301 . S
O627 U606 2.449 . S
O627 C623 1.282 . S
H628 C601 0.931 . S
H629 C603 0.935 . S
H630 C604 0.930 . S
H631 C605 0.931 . S
H632 C612 0.932 . S
H633 C613 0.930 . S
H634 C614 0.929 . S
H635 C616 0.930 . S
H636 C618 0.932 . S
H637 C619 0.929 . S
H638 C620 0.928 . S
H639 C622 0.932 . S
H640 C646 0.930 . S
H641 C649 0.930 . S
H642 C650 0.930 . S
H643 C651 0.930 . S
H644 C654 0.930 . S
H645 C655 0.930 . S
C646 H640 0.930 . S
C646 C647 1.355 . S
C646 C648 1.415 . S
C647 C646 1.355 . S
C647 C649 1.419 . S
C648 C646 1.415 . S
C648 C653 1.425 . S
C648 C655 1.409 . S
C649 H641 0.930 . S
C649 C647 1.419 . S
C649 C650 1.362 . S
C650 H642 0.930 . S
C650 C649 1.362 . S
C650 C653 1.409 . S
C651 H643 0.930 . S
C651 C652 1.355 . S
C651 C653 1.415 . S
C652 C651 1.355 . S
C652 C654 1.419 . S
C653 C648 1.425 . S
C653 C650 1.409 . S
C653 C651 1.415 . S
C654 H644 0.930 . S
C654 C652 1.419 . S
C654 C655 1.362 . S
C655 H645 0.930 . S
C655 C648 1.409 . S
C655 C654 1.362 . S
H656 C662 0.930 . S
H657 C665 0.930 . S
H658 C666 0.930 . S
H659 C667 0.930 . S
H660 C670 0.930 . S
H661 C671 0.930 . S
C662 H656 0.930 . S
C662 C663 1.355 . S
C662 C664 1.415 . S
C663 C662 1.355 . S
C663 C665 1.419 . S
C664 C662 1.415 . S
C664 C669 1.425 . S
C664 C671 1.409 . S
C665 H657 0.930 . S
C665 C663 1.419 . S
C665 C666 1.362 . S
C666 H658 0.930 . S
C666 C665 1.362 . S
C666 C669 1.409 . S
C667 H659 0.930 . S
C667 C668 1.355 . S
C667 C669 1.415 . S
C668 C667 1.355 . S
C668 C670 1.419 . S
C669 C664 1.425 . S
C669 C666 1.409 . S
C669 C667 1.415 . S
C670 H660 0.930 . S
C670 C668 1.419 . S
C670 C671 1.362 . S
C671 H661 0.930 . S
C671 C664 1.409 . S
C671 C670 1.362 . S
H672 C678 0.930 . S
H673 C681 0.930 . S
H674 C682 0.930 . S
H675 C683 0.930 . S
H676 C686 0.930 . S
H677 C687 0.930 . S
C678 H672 0.930 . S
C678 C679 1.355 . S
C678 C680 1.415 . S
C679 C678 1.355 . S
C679 C681 1.419 . S
C680 C678 1.415 . S
C680 C685 1.425 . S
C680 C687 1.409 . S
C681 H673 0.930 . S
C681 C679 1.419 . S
C681 C682 1.362 . S
C682 H674 0.930 . S
C682 C681 1.362 . S
C682 C685 1.409 . S
C683 H675 0.930 . S
C683 C684 1.355 . S
C683 C685 1.415 . S
C684 C683 1.355 . S
C684 C686 1.419 . S
C685 C680 1.425 . S
C685 C682 1.409 . S
C685 C683 1.415 . S
C686 H676 0.930 . S
C686 C684 1.419 . S
C686 C687 1.362 . S
C687 H677 0.930 . S
C687 C680 1.409 . S
C687 C686 1.362 . S
H688 C694 0.930 . S
H689 C697 0.930 . S
H690 C698 0.930 . S
H691 C699 0.930 . S
H692 C702 0.930 . S
H693 C703 0.930 . S
C694 H688 0.930 . S
C694 C695 1.355 . S
C694 C696 1.415 . S
C695 C694 1.355 . S
C695 C697 1.419 . S
C696 C694 1.415 . S
C696 C701 1.425 . S
C696 C703 1.409 . S
C697 H689 0.930 . S
C697 C695 1.419 . S
C697 C698 1.362 . S
C698 H690 0.930 . S
C698 C697 1.362 . S
C698 C701 1.409 . S
C699 H691 0.930 . S
C699 C700 1.355 . S
C699 C701 1.415 . S
C700 C699 1.355 . S
C700 C702 1.419 . S
C701 C696 1.425 . S
C701 C698 1.409 . S
C701 C699 1.415 . S
C702 H692 0.930 . S
C702 C700 1.419 . S
C702 C703 1.362 . S
C703 H693 0.930 . S
C703 C696 1.409 . S
C703 C702 1.362 . S
H704 C710 0.930 . S
H705 C713 0.930 . S
H706 C714 0.930 . S
H707 C715 0.930 . S
H708 C718 0.930 . S
H709 C719 0.930 . S
C710 H704 0.930 . S
C710 C711 1.355 . S
C710 C712 1.415 . S
C711 C710 1.355 . S
C711 C713 1.419 . S
C712 C710 1.415 . S
C712 C717 1.425 . S
C712 C719 1.409 . S
C713 H705 0.930 . S
C713 C711 1.419 . S
C713 C714 1.362 . S
C714 H706 0.930 . S
C714 C713 1.362 . S
C714 C717 1.409 . S
C715 H707 0.930 . S
C715 C716 1.355 . S
C715 C717 1.415 . S
C716 C715 1.355 . S
C716 C718 1.419 . S
C717 C712 1.425 . S
C717 C714 1.409 . S
C717 C715 1.415 . S
C718 H708 0.930 . S
C718 C716 1.419 . S
C718 C719 1.362 . S
C719 H709 0.930 . S
C719 C712 1.409 . S
C719 C718 1.362 . S
H720 C726 0.930 . S
H721 C729 0.930 . S
H722 C730 0.930 . S
H723 C731 0.930 . S
H724 C734 0.930 . S
H725 C735 0.930 . S
C726 H720 0.930 . S
C726 C727 1.355 . S
C726 C728 1.415 . S
C727 C726 1.355 . S
C727 C729 1.419 . S
C728 C726 1.415 . S
C728 C733 1.425 . S
C728 C735 1.409 . S
C729 H721 0.930 . S
C729 C727 1.419 . S
C729 C730 1.362 . S
C730 H722 0.930 . S
C730 C729 1.362 . S
C730 C733 1.409 . S
C731 H723 0.930 . S
C731 C732 1.355 . S
C731 C733 1.415 . S
C732 C731 1.355 . S
C732 C734 1.419 . S
C733 C728 1.425 . S
C733 C730 1.409 . S
C733 C731 1.415 . S
C734 H724 0.930 . S
C734 C732 1.419 . S
C734 C735 1.362 . S
C735 H725 0.930 . S
C735 C728 1.409 . S
C735 C734 1.362 . S
H736 C742 0.930 . S
H737 C745 0.930 . S
H738 C746 0.930 . S
H739 C747 0.930 . S
H740 C750 0.930 . S
H741 C751 0.930 . S
C742 H736 0.930 . S
C742 C743 1.355 . S
C742 C744 1.415 . S
C743 C742 1.355 . S
C743 C745 1.419 . S
C744 C742 1.415 . S
C744 C749 1.425 . S
C744 C751 1.409 . S
C745 H737 0.930 . S
C745 C743 1.419 . S
C745 C746 1.362 . S
C746 H738 0.930 . S
C746 C745 1.362 . S
C746 C749 1.409 . S
C747 H739 0.930 . S
C747 C748 1.355 . S
C747 C749 1.415 . S
C748 C747 1.355 . S
C748 C750 1.419 . S
C749 C744 1.425 . S
C749 C746 1.409 . S
C749 C747 1.415 . S
C750 H740 0.930 . S
C750 C748 1.419 . S
C750 C751 1.362 . S
C751 H741 0.930 . S
C751 C744 1.409 . S
C751 C750 1.362 . S
H752 C758 0.930 . S
H753 C761 0.930 . S
H754 C762 0.930 . S
H755 C763 0.930 . S
H756 C766 0.930 . S
H757 C767 0.930 . S
C758 H752 0.930 . S
C758 C759 1.355 . S
C758 C760 1.415 . S
C759 C758 1.355 . S
C759 C761 1.419 . S
C760 C758 1.415 . S
C760 C765 1.425 . S
C760 C767 1.409 . S
C761 H753 0.930 . S
C761 C759 1.419 . S
C761 C762 1.362 . S
C762 H754 0.930 . S
C762 C761 1.362 . S
C762 C765 1.409 . S
C763 H755 0.930 . S
C763 C764 1.355 . S
C763 C765 1.415 . S
C764 C763 1.355 . S
C764 C766 1.419 . S
C765 C760 1.425 . S
C765 C762 1.409 . S
C765 C763 1.415 . S
C766 H756 0.930 . S
C766 C764 1.419 . S
C766 C767 1.362 . S
C767 H757 0.930 . S
C767 C760 1.409 . S
C767 C766 1.362 . S
H768 C774 0.930 . S
H769 C777 0.930 . S
H770 C778 0.930 . S
H771 C779 0.930 . S
H772 C782 0.930 . S
H773 C783 0.930 . S
C774 H768 0.930 . S
C774 C775 1.355 . S
C774 C776 1.415 . S
C775 C774 1.355 . S
C775 C777 1.419 . S
C776 C774 1.415 . S
C776 C781 1.425 . S
C776 C783 1.409 . S
C777 H769 0.930 . S
C777 C775 1.419 . S
C777 C778 1.362 . S
C778 H770 0.930 . S
C778 C777 1.362 . S
C778 C781 1.409 . S
C779 H771 0.930 . S
C779 C780 1.355 . S
C779 C781 1.415 . S
C780 C779 1.355 . S
C780 C782 1.419 . S
C781 C776 1.425 . S
C781 C778 1.409 . S
C781 C779 1.415 . S
C782 H772 0.930 . S
C782 C780 1.419 . S
C782 C783 1.362 . S
C783 H773 0.930 . S
C783 C776 1.409 . S
C783 C782 1.362 . S
H784 C790 0.930 . S
H785 C793 0.930 . S
H786 C794 0.930 . S
H787 C795 0.930 . S
H788 C798 0.930 . S
H789 C799 0.930 . S
C790 H784 0.930 . S
C790 C791 1.355 . S
C790 C792 1.415 . S
C791 C790 1.355 . S
C791 C793 1.419 . S
C792 C790 1.415 . S
C792 C797 1.425 . S
C792 C799 1.409 . S
C793 H785 0.930 . S
C793 C791 1.419 . S
C793 C794 1.362 . S
C794 H786 0.930 . S
C794 C793 1.362 . S
C794 C797 1.409 . S
C795 H787 0.930 . S
C795 C796 1.355 . S
C795 C797 1.415 . S
C796 C795 1.355 . S
C796 C798 1.419 . S
C797 C792 1.425 . S
C797 C794 1.409 . S
C797 C795 1.415 . S
C798 H788 0.930 . S
C798 C796 1.419 . S
C798 C799 1.362 . S
C799 H789 0.930 . S
C799 C792 1.409 . S
C799 C798 1.362 . S
H800 C806 0.930 . S
H801 C809 0.930 . S
H802 C810 0.930 . S
H803 C811 0.930 . S
H804 C814 0.930 . S
H805 C815 0.930 . S
C806 H800 0.930 . S
C806 C807 1.355 . S
C806 C808 1.415 . S
C807 C806 1.355 . S
C807 C809 1.419 . S
C808 C806 1.415 . S
C808 C813 1.425 . S
C808 C815 1.409 . S
C809 H801 0.930 . S
C809 C807 1.419 . S
C809 C810 1.362 . S
C810 H802 0.930 . S
C810 C809 1.362 . S
C810 C813 1.409 . S
C811 H803 0.930 . S
C811 C812 1.355 . S
C811 C813 1.415 . S
C812 C811 1.355 . S
C812 C814 1.419 . S
C813 C808 1.425 . S
C813 C810 1.409 . S
C813 C811 1.415 . S
C814 H804 0.930 . S
C814 C812 1.419 . S
C814 C815 1.362 . S
C815 H805 0.930 . S
C815 C808 1.409 . S
C815 C814 1.362 . S
H816 C822 0.930 . S
H817 C825 0.930 . S
H818 C826 0.930 . S
H819 C827 0.930 . S
H820 C830 0.930 . S
H821 C831 0.930 . S
C822 H816 0.930 . S
C822 C823 1.355 . S
C822 C824 1.415 . S
C823 C822 1.355 . S
C823 C825 1.419 . S
C824 C822 1.415 . S
C824 C829 1.425 . S
C824 C831 1.409 . S
C825 H817 0.930 . S
C825 C823 1.419 . S
C825 C826 1.362 . S
C826 H818 0.930 . S
C826 C825 1.362 . S
C826 C829 1.409 . S
C827 H819 0.930 . S
C827 C828 1.355 . S
C827 C829 1.415 . S
C828 C827 1.355 . S
C828 C830 1.419 . S
C829 C824 1.425 . S
C829 C826 1.409 . S
C829 C827 1.415 . S
C830 H820 0.930 . S
C830 C828 1.419 . S
C830 C831 1.362 . S
C831 H821 0.930 . S
C831 C824 1.409 . S
C831 C830 1.362 . S
H832 C838 0.930 . S
H833 C841 0.930 . S
H834 C842 0.930 . S
H835 C843 0.930 . S
H836 C846 0.930 . S
H837 C847 0.930 . S
C838 H832 0.930 . S
C838 C839 1.355 . S
C838 C840 1.415 . S
C839 C838 1.355 . S
C839 C841 1.419 . S
C840 C838 1.415 . S
C840 C845 1.425 . S
C840 C847 1.409 . S
C841 H833 0.930 . S
C841 C839 1.419 . S
C841 C842 1.362 . S
C842 H834 0.930 . S
C842 C841 1.362 . S
C842 C845 1.409 . S
C843 H835 0.930 . S
C843 C844 1.355 . S
C843 C845 1.415 . S
C844 C843 1.355 . S
C844 C846 1.419 . S
C845 C840 1.425 . S
C845 C842 1.409 . S
C845 C843 1.415 . S
C846 H836 0.930 . S
C846 C844 1.419 . S
C846 C847 1.362 . S
C847 H837 0.930 . S
C847 C840 1.409 . S
C847 C846 1.362 . S
H848 C854 0.930 . S
H849 C857 0.930 . S
H850 C858 0.930 . S
H851 C859 0.930 . S
H852 C862 0.930 . S
H853 C863 0.930 . S
C854 H848 0.930 . S
C854 C855 1.355 . S
C854 C856 1.415 . S
C855 C854 1.355 . S
C855 C857 1.419 . S
C856 C854 1.415 . S
C856 C861 1.425 . S
C856 C863 1.409 . S
C857 H849 0.930 . S
C857 C855 1.419 . S
C857 C858 1.362 . S
C858 H850 0.930 . S
C858 C857 1.362 . S
C858 C861 1.409 . S
C859 H851 0.930 . S
C859 C860 1.355 . S
C859 C861 1.415 . S
C860 C859 1.355 . S
C860 C862 1.419 . S
C861 C856 1.425 . S
C861 C858 1.409 . S
C861 C859 1.415 . S
C862 H852 0.930 . S
C862 C860 1.419 . S
C862 C863 1.362 . S
C863 H853 0.930 . S
C863 C856 1.409 . S
C863 C862 1.362 . S
H864 C870 0.930 . S
H865 C873 0.930 . S
H866 C874 0.930 . S
H867 C875 0.930 . S
H868 C878 0.930 . S
H869 C879 0.930 . S
C870 H864 0.930 . S
C870 C871 1.355 . S
C870 C872 1.415 . S
C871 C870 1.355 . S
C871 C873 1.419 . S
C872 C870 1.415 . S
C872 C877 1.425 . S
C872 C879 1.409 . S
C873 H865 0.930 . S
C873 C871 1.419 . S
C873 C874 1.362 . S
C874 H866 0.930 . S
C874 C873 1.362 . S
C874 C877 1.409 . S
C875 H867 0.930 . S
C875 C876 1.355 . S
C875 C877 1.415 . S
C876 C875 1.355 . S
C876 C878 1.419 . S
C877 C872 1.425 . S
C877 C874 1.409 . S
C877 C875 1.415 . S
C878 H868 0.930 . S
C878 C876 1.419 . S
C878 C879 1.362 . S
C879 H869 0.930 . S
C879 C872 1.409 . S
C879 C878 1.362 . S
H880 C886 0.930 . S
H881 C889 0.930 . S
H882 C890 0.930 . S
H883 C891 0.930 . S
H884 C894 0.930 . S
H885 C895 0.930 . S
C886 H880 0.930 . S
C886 C887 1.355 . S
C886 C888 1.415 . S
C887 C886 1.355 . S
C887 C889 1.419 . S
C888 C886 1.415 . S
C888 C893 1.425 . S
C888 C895 1.409 . S
C889 H881 0.930 . S
C889 C887 1.419 . S
C889 C890 1.362 . S
C890 H882 0.930 . S
C890 C889 1.362 . S
C890 C893 1.409 . S
C891 H883 0.930 . S
C891 C892 1.355 . S
C891 C893 1.415 . S
C892 C891 1.355 . S
C892 C894 1.419 . S
C893 C888 1.425 . S
C893 C890 1.409 . S
C893 C891 1.415 . S
C894 H884 0.930 . S
C894 C892 1.419 . S
C894 C895 1.362 . S
C895 H885 0.930 . S
C895 C888 1.409 . S
C895 C894 1.362 . S
H896 C902 0.930 . S
H897 C905 0.930 . S
H898 C906 0.930 . S
H899 C907 0.930 . S
H900 C910 0.930 . S
H901 C911 0.930 . S
C902 H896 0.930 . S
C902 C903 1.355 . S
C902 C904 1.415 . S
C903 C902 1.355 . S
C903 C905 1.419 . S
C904 C902 1.415 . S
C904 C909 1.420 1_554 S
C904 C911 1.409 1_554 S
C905 H897 0.930 . S
C905 C903 1.419 . S
C905 C906 1.362 . S
C906 H898 0.930 . S
C906 C905 1.362 . S
C906 C909 1.397 1_554 S
C907 H899 0.930 . S
C907 C908 1.355 . S
C907 C909 1.432 . S
C908 C907 1.355 . S
C908 C910 1.419 . S
C909 C904 1.420 1_556 S
C909 C906 1.397 1_556 S
C909 C907 1.432 . S
C910 H900 0.930 . S
C910 C908 1.419 . S
C910 C911 1.362 . S
C911 H901 0.930 . S
C911 C904 1.409 1_556 S
C911 C910 1.362 . S
H912 C918 0.930 . S
H913 C921 0.930 . S
H914 C922 0.930 . S
H915 C923 0.930 . S
H916 C926 0.930 . S
H917 C927 0.930 . S
C918 H912 0.930 . S
C918 C919 1.355 . S
C918 C920 1.415 . S
C919 C918 1.355 . S
C919 C921 1.419 . S
C920 C918 1.415 . S
C920 C925 1.425 . S
C920 C927 1.409 . S
C921 H913 0.930 . S
C921 C919 1.419 . S
C921 C922 1.362 . S
C922 H914 0.930 . S
C922 C921 1.362 . S
C922 C925 1.409 . S
C923 H915 0.930 . S
C923 C924 1.355 . S
C923 C925 1.415 . S
C924 C923 1.355 . S
C924 C926 1.419 . S
C925 C920 1.425 . S
C925 C922 1.409 . S
C925 C923 1.415 . S
C926 H916 0.930 . S
C926 C924 1.419 . S
C926 C927 1.362 . S
C927 H917 0.930 . S
C927 C920 1.409 . S
C927 C926 1.362 . S
H928 C934 0.930 . S
H929 C937 0.930 . S
H930 C938 0.930 . S
H931 C939 0.930 . S
H932 C942 0.930 . S
H933 C943 0.930 . S
C934 H928 0.930 . S
C934 C935 1.355 . S
C934 C936 1.415 . S
C935 C934 1.355 . S
C935 C937 1.419 . S
C936 C934 1.415 . S
C936 C941 1.425 . S
C936 C943 1.409 . S
C937 H929 0.930 . S
C937 C935 1.419 . S
C937 C938 1.362 . S
C938 H930 0.930 . S
C938 C937 1.362 . S
C938 C941 1.409 . S
C939 H931 0.930 . S
C939 C940 1.355 . S
C939 C941 1.415 . S
C940 C939 1.355 . S
C940 C942 1.419 . S
C941 C936 1.425 . S
C941 C938 1.409 . S
C941 C939 1.415 . S
C942 H932 0.930 . S
C942 C940 1.419 . S
C942 C943 1.362 . S
C943 H933 0.930 . S
C943 C936 1.409 . S
C943 C942 1.362 . S
H944 C950 0.930 . S
H945 C953 0.930 . S
H946 C954 0.930 . S
H947 C955 0.930 . S
H948 C958 0.930 . S
H949 C959 0.930 . S
C950 H944 0.930 . S
C950 C951 1.355 . S
C950 C952 1.415 . S
C951 C950 1.355 . S
C951 C953 1.419 . S
C952 C950 1.415 . S
C952 C957 1.425 . S
C952 C959 1.409 . S
C953 H945 0.930 . S
C953 C951 1.419 . S
C953 C954 1.362 . S
C954 H946 0.930 . S
C954 C953 1.362 . S
C954 C957 1.409 . S
C955 H947 0.930 . S
C955 C956 1.355 . S
C955 C957 1.415 . S
C956 C955 1.355 . S
C956 C958 1.419 . S
C957 C952 1.425 . S
C957 C954 1.409 . S
C957 C955 1.415 . S
C958 H948 0.930 . S
C958 C956 1.419 . S
C958 C959 1.362 . S
C959 H949 0.930 . S
C959 C952 1.409 . S
C959 C958 1.362 . S
H960 C966 0.930 . S
H961 C969 0.930 . S
H962 C970 0.930 . S
H963 C971 0.930 . S
H964 C974 0.930 . S
H965 C975 0.930 . S
C966 H960 0.930 . S
C966 C967 1.355 . S
C966 C968 1.415 . S
C967 C966 1.355 . S
C967 C969 1.419 . S
C968 C966 1.415 . S
C968 C973 1.425 . S
C968 C975 1.409 . S
C969 H961 0.930 . S
C969 C967 1.419 . S
C969 C970 1.362 . S
C970 H962 0.930 . S
C970 C969 1.362 . S
C970 C973 1.409 . S
C971 H963 0.930 . S
C971 C972 1.355 . S
C971 C973 1.415 . S
C972 C971 1.355 . S
C972 C974 1.419 . S
C973 C968 1.425 . S
C973 C970 1.409 . S
C973 C971 1.415 . S
C974 H964 0.930 . S
C974 C972 1.419 . S
C974 C975 1.362 . S
C975 H965 0.930 . S
C975 C968 1.409 . S
C975 C974 1.362 . S
H976 C982 0.930 . S
H977 C985 0.930 . S
H978 C986 0.930 . S
H979 C987 0.930 . S
H980 C990 0.930 . S
H981 C991 0.930 . S
C982 H976 0.930 . S
C982 C983 1.355 . S
C982 C984 1.415 . S
C983 C982 1.355 . S
C983 C985 1.419 . S
C984 C982 1.415 . S
C984 C989 1.425 . S
C984 C991 1.409 . S
C985 H977 0.930 . S
C985 C983 1.419 . S
C985 C986 1.362 . S
C986 H978 0.930 . S
C986 C985 1.362 . S
C986 C989 1.409 . S
C987 H979 0.930 . S
C987 C988 1.355 . S
C987 C989 1.415 . S
C988 C987 1.355 . S
C988 C990 1.419 . S
C989 C984 1.425 . S
C989 C986 1.409 . S
C989 C987 1.415 . S
C990 H980 0.930 . S
C990 C988 1.419 . S
C990 C991 1.362 . S
C991 H981 0.930 . S
C991 C984 1.409 . S
C991 C990 1.362 . S
H992 C998 0.930 . S
H993 C1001 0.930 . S
H994 C1002 0.930 . S
H995 C1003 0.930 . S
H996 C1006 0.930 . S
H997 C1007 0.930 . S
C998 H992 0.930 . S
C998 C999 1.355 . S
C998 C1000 1.415 . S
C999 C998 1.355 . S
C999 C1001 1.419 1_565 S
C1000 C998 1.415 . S
C1000 C1005 1.425 1_565 S
C1000 C1007 1.409 . S
C1001 H993 0.930 . S
C1001 C999 1.419 1_545 S
C1001 C1002 1.362 . S
C1002 H994 0.930 . S
C1002 C1001 1.362 . S
C1002 C1005 1.409 . S
C1003 H995 0.930 . S
C1003 C1004 1.355 . S
C1003 C1005 1.415 . S
C1004 C1003 1.355 . S
C1004 C1006 1.419 1_545 S
C1005 C1000 1.425 1_545 S
C1005 C1002 1.409 . S
C1005 C1003 1.415 . S
C1006 H996 0.930 . S
C1006 C1004 1.419 1_565 S
C1006 C1007 1.362 . S
C1007 H997 0.930 . S
C1007 C1000 1.409 . S
C1007 C1006 1.362 . S
H1008 C1014 0.930 . S
H1009 C1017 0.930 . S
H1010 C1018 0.930 . S
H1011 C1019 0.930 . S
H1012 C1022 0.930 . S
H1013 C1023 0.930 1_556 S
C1014 H1008 0.930 . S
C1014 C1015 1.355 1_565 S
C1014 C1016 1.415 . S
C1015 C1014 1.355 1_545 S
C1015 C1017 1.419 . S
C1016 C1014 1.415 . S
C1016 C1021 1.425 1_566 S
C1016 C1023 1.409 1_556 S
C1017 H1009 0.930 . S
C1017 C1015 1.419 . S
C1017 C1018 1.362 . S
C1018 H1010 0.930 . S
C1018 C1017 1.362 . S
C1018 C1021 1.409 1_556 S
C1019 H1011 0.930 . S
C1019 C1020 1.355 1_545 S
C1019 C1021 1.415 . S
C1020 C1019 1.355 1_565 S
C1020 C1022 1.419 . S
C1021 C1016 1.425 1_544 S
C1021 C1018 1.409 1_554 S
C1021 C1019 1.415 . S
C1022 H1012 0.930 . S
C1022 C1020 1.419 . S
C1022 C1023 1.362 . S
C1023 H1013 0.930 1_554 S
C1023 C1016 1.409 1_554 S
C1023 C1022 1.362 . S
C647 C381 2.340 . S
C652 C21 2.351 . S
C663 C42 2.179 . S
C668 C581 2.349 . S
C679 C341 2.275 . S
C684 C82 2.079 . S
C695 C141 2.292 . S
C700 C602 2.099 . S
C711 C181 2.328 . S
C716 C402 2.128 . S
C727 C522 2.113 . S
C732 C221 2.292 . S
C743 C461 2.305 . S
C748 C242 2.106 . S
C759 C501 2.379 . S
C764 C301 2.376 . S
C775 C162 2.250 . S
C780 C122 2.257 . S
C791 C482 2.317 . S
C796 C322 2.317 . S
C807 C261 2.186 . S
C812 C61 2.163 . S
C823 C541 2.136 . S
C828 C362 2.321 . S
C839 C2 2.275 . S
C844 C202 2.277 . S
C855 C621 2.239 . S
C860 C421 2.222 . S
C871 C282 2.315 . S
C876 C101 2.148 . S
C887 C442 2.256 . S
C892 C562 2.249 . S
C903 C15 2.382 . S
C908 C175 2.387 . S
C919 C55 2.377 . S
C924 C215 2.401 . S
C935 C95 2.341 . S
C940 C255 2.338 . S
C951 C135 2.351 . S
C956 C295 2.345 . S
C967 C335 2.415 . S
C972 C415 2.392 . S
C983 C455 2.366 . S
C988 C375 2.359 . S
C999 C575 2.399 . S
C1004 C495 2.397 . S
C1015 C615 2.348 . S
C1020 C535 2.352 . S
