# Generated by pormake.
# Topology umw, (4)-cn, num edge types: 1
# Building blocks:
#     Node 0, Type 0, BuildingBlock: NAHDIM_clean_sbu_0, # of connection points: 4
#     Node 1, Type 0, BuildingBlock: NAHDIM_clean_sbu_0, # of connection points: 4
#     Node 2, Type 0, BuildingBlock: NAHDIM_clean_sbu_0, # of connection points: 4
#     Node 3, Type 0, BuildingBlock: NAHDIM_clean_sbu_0, # of connection points: 4
#     Node 4, Type 0, BuildingBlock: NAHDIM_clean_sbu_0, # of connection points: 4
#     Node 5, Type 0, BuildingBlock: NAHDIM_clean_sbu_0, # of connection points: 4
#     Node 6, Type 0, BuildingBlock: NAHDIM_clean_sbu_0, # of connection points: 4
#     Node 7, Type 0, BuildingBlock: NAHDIM_clean_sbu_0, # of connection points: 4
#     Edge 8, Type (0, 0), BuildingBlock: XIVTED_clean_linker_0, # of connection points: 2
#     Edge 9, Type (0, 0), BuildingBlock: XIVTED_clean_linker_0, # of connection points: 2
#     Edge 10, Type (0, 0), BuildingBlock: XIVTED_clean_linker_0, # of connection points: 2
#     Edge 11, Type (0, 0), BuildingBlock: XIVTED_clean_linker_0, # of connection points: 2
#     Edge 12, Type (0, 0), BuildingBlock: XIVTED_clean_linker_0, # of connection points: 2
#     Edge 13, Type (0, 0), BuildingBlock: XIVTED_clean_linker_0, # of connection points: 2
#     Edge 14, Type (0, 0), BuildingBlock: XIVTED_clean_linker_0, # of connection points: 2
#     Edge 15, Type (0, 0), BuildingBlock: XIVTED_clean_linker_0, # of connection points: 2
#     Edge 16, Type (0, 0), BuildingBlock: XIVTED_clean_linker_0, # of connection points: 2
#     Edge 17, Type (0, 0), BuildingBlock: XIVTED_clean_linker_0, # of connection points: 2
#     Edge 18, Type (0, 0), BuildingBlock: XIVTED_clean_linker_0, # of connection points: 2
#     Edge 19, Type (0, 0), BuildingBlock: XIVTED_clean_linker_0, # of connection points: 2
#     Edge 20, Type (0, 0), BuildingBlock: XIVTED_clean_linker_0, # of connection points: 2
#     Edge 21, Type (0, 0), BuildingBlock: XIVTED_clean_linker_0, # of connection points: 2
#     Edge 22, Type (0, 0), BuildingBlock: XIVTED_clean_linker_0, # of connection points: 2
#     Edge 23, Type (0, 0), BuildingBlock: XIVTED_clean_linker_0, # of connection points: 2
# Relax obj value: 0.144
# Max RMSD: 0.106
# Mean RMSD: 0.106
data_MOF--net-umw--node1-NAHDIM_clean_sbu_0--edge1-XIVTED_clean_linker_0
_symmetry_space_group_name_H-M    P1
_symmetry_Int_Tables_number       1
_symmetry_cell_setting            triclinic
loop_
_symmetry_equiv_pos_as_xyz
'x, y, z'
_cell_length_a     44.425902
_cell_length_b     44.497321
_cell_length_c     23.682366
_cell_angle_alpha  90.06942
_cell_angle_beta   90.052921
_cell_angle_gamma 90.057714
loop_
_atom_site_label
_atom_site_type_symbol
_atom_site_fract_x
_atom_site_fract_y
_atom_site_fract_z
_atom_type_partial_charge
C0 C 0.34893 0.21323 0.25822 0.0
O1 O 0.37713 0.22105 0.25013 0.0
O2 O 0.40068 0.16871 0.17079 0.0
Zn3 Zn 0.37692 0.15829 0.24119 0.0
O4 O 0.40294 0.16377 0.30964 0.0
C5 C 0.38908 0.09768 0.24336 0.0
O6 O 0.41572 0.1105 0.24166 0.0
O7 O 0.3417 0.18574 0.2529 0.0
C8 C 0.39435 0.15283 0.35642 0.0
O9 O 0.36817 0.13915 0.35918 0.0
C10 C 0.42898 0.173 0.1739 0.0
O11 O 0.44228 0.17167 0.22336 0.0
O12 O 0.36585 0.11428 0.24058 0.0
C13 C 0.7687 0.36065 0.56798 0.0
O14 O 0.76177 0.38933 0.56682 0.0
O15 O 0.82044 0.40476 0.46624 0.0
Zn16 Zn 0.82587 0.3853 0.54263 0.0
O17 O 0.821 0.41654 0.60278 0.0
C18 C 0.88284 0.35841 0.50959 0.0
O19 O 0.86998 0.35572 0.45986 0.0
O20 O 0.79552 0.35274 0.55682 0.0
C21 C 0.83704 0.44018 0.6019 0.0
O22 O 0.8567 0.44386 0.56106 0.0
C23 C 0.80441 0.42824 0.46048 0.0
O24 O 0.78987 0.43897 0.50434 0.0
O25 O 0.86794 0.36948 0.55033 0.0
C26 C 0.62134 0.76441 0.83619 0.0
O27 O 0.59258 0.75793 0.84055 0.0
O28 O 0.57572 0.80598 0.71707 0.0
Zn29 Zn 0.59618 0.81751 0.79039 0.0
O30 O 0.56598 0.81726 0.85307 0.0
C31 C 0.61594 0.8746 0.74186 0.0
O32 O 0.61011 0.86185 0.69299 0.0
O33 O 0.62905 0.78888 0.81261 0.0
C34 C 0.54389 0.83531 0.85447 0.0
O35 O 0.54028 0.85469 0.81321 0.0
C36 C 0.55112 0.7913 0.71702 0.0
O37 O 0.5398 0.78212 0.76522 0.0
O38 O 0.61237 0.85963 0.78699 0.0
C39 C 0.22154 0.62823 0.02575 0.0
O40 O 0.22836 0.59958 0.02164 0.0
O41 O 0.18131 0.58154 0.91686 0.0
Zn42 Zn 0.16721 0.60394 0.98684 0.0
O43 O 0.16486 0.57675 0.05431 0.0
C44 C 0.10811 0.60725 0.93918 0.0
O45 O 0.11958 0.58682 0.90541 0.0
O46 O 0.19573 0.6369 0.00934 0.0
C47 C 0.1485 0.55338 0.05708 0.0
O48 O 0.13295 0.54483 0.01265 0.0
C49 C 0.19248 0.55523 0.91819 0.0
O50 O 0.19732 0.5423 0.96717 0.0
O51 O 0.12499 0.61952 0.97594 0.0
C52 C 0.35558 0.7633 0.2537 0.0
O53 O 0.38414 0.75594 0.25789 0.0
O54 O 0.40362 0.80176 0.36308 0.0
Zn55 Zn 0.38137 0.81634 0.2933 0.0
O56 O 0.40938 0.81705 0.22697 0.0
C57 C 0.39019 0.87648 0.31705 0.0
O58 O 0.41667 0.8644 0.32674 0.0
O59 O 0.34736 0.78915 0.27055 0.0
C60 C 0.40164 0.83094 0.18245 0.0
O61 O 0.3754 0.8445 0.18082 0.0
C62 C 0.43126 0.79441 0.35995 0.0
O63 O 0.44463 0.79465 0.31053 0.0
O64 O 0.36842 0.85931 0.30383 0.0
C65 C 0.21481 0.36389 0.44667 0.0
O66 O 0.22041 0.39275 0.44152 0.0
O67 O 0.17258 0.41028 0.56158 0.0
Zn68 Zn 0.1607 0.38787 0.49034 0.0
O69 O 0.1584 0.41535 0.42329 0.0
C70 C 0.10505 0.36747 0.54418 0.0
O71 O 0.1179 0.376 0.59156 0.0
O72 O 0.19041 0.35564 0.46997 0.0
C73 C 0.14559 0.44083 0.42242 0.0
O74 O 0.1334 0.45156 0.46876 0.0
C75 C 0.18761 0.43464 0.56146 0.0
O76 O 0.19708 0.44572 0.51326 0.0
O77 O 0.11945 0.36985 0.4981 0.0
C78 C 0.61864 0.21025 0.70957 0.0
O79 O 0.5899 0.21713 0.70803 0.0
O80 O 0.57302 0.16215 0.81477 0.0
Zn81 Zn 0.59351 0.1541 0.74006 0.0
O82 O 0.56306 0.15726 0.67805 0.0
C83 C 0.6176 0.09697 0.78001 0.0
O84 O 0.61698 0.10975 0.83004 0.0
O85 O 0.62635 0.18391 0.7243 0.0
C86 C 0.53998 0.1404 0.67803 0.0
O87 O 0.53637 0.12091 0.71911 0.0
C88 C 0.54923 0.17801 0.81704 0.0
O89 O 0.5388 0.19032 0.77062 0.0
O90 O 0.60945 0.11194 0.73703 0.0
C91 C 0.77139 0.63093 0.02745 0.0
O92 O 0.76368 0.60291 0.03743 0.0
O93 O 0.81965 0.57955 0.10874 0.0
Zn94 Zn 0.8272 0.60304 0.03702 0.0
O95 O 0.81843 0.57683 0.97 0.0
C96 C 0.88844 0.59464 0.01374 0.0
O97 O 0.87741 0.5676 0.00557 0.0
O98 O 0.7991 0.63798 0.02896 0.0
C99 C 0.8249 0.58665 0.92116 0.0
O100 O 0.83597 0.6139 0.91604 0.0
C101 C 0.82121 0.551 0.10743 0.0
O102 O 0.82748 0.53754 0.0595 0.0
O103 O 0.87097 0.61535 0.0309 0.0
H104 H 0.44828 0.18193 0.36666 0.0
H105 H 0.48622 0.11065 0.66802 0.0
H106 H 0.3867 0.1249 0.45832 0.0
H107 H 0.54221 0.17642 0.58477 0.0
H108 H 0.44949 0.11525 0.5916 0.0
H109 H 0.48294 0.18015 0.44651 0.0
C110 C 0.44198 0.16915 0.40372 0.0
C111 C 0.4146 0.15345 0.40579 0.0
C112 C 0.46977 0.12873 0.59019 0.0
C113 C 0.45427 0.15116 0.49723 0.0
C114 C 0.49078 0.12606 0.63372 0.0
C115 C 0.51737 0.14309 0.63265 0.0
C116 C 0.47548 0.14846 0.54519 0.0
C117 C 0.52206 0.1628 0.58727 0.0
C118 C 0.46178 0.16814 0.44932 0.0
C119 C 0.40758 0.13732 0.45493 0.0
N120 N 0.50137 0.16485 0.54527 0.0
N121 N 0.42738 0.13645 0.49862 0.0
H122 H 0.86381 0.49554 0.60829 0.0
H123 H 0.799 0.531 0.91529 0.0
H124 H 0.80206 0.43719 0.6966 0.0
H125 H 0.84705 0.59624 0.81494 0.0
H126 H 0.79991 0.4963 0.83544 0.0
H127 H 0.85834 0.53269 0.68371 0.0
C128 C 0.84907 0.49056 0.64347 0.0
C129 C 0.83348 0.46317 0.64632 0.0
C130 C 0.81006 0.51829 0.83072 0.0
C131 C 0.82716 0.50551 0.73267 0.0
C132 C 0.80956 0.53811 0.87631 0.0
C133 C 0.82308 0.5665 0.8718 0.0
C134 C 0.82444 0.5268 0.78044 0.0
C135 C 0.83636 0.57456 0.82025 0.0
C136 C 0.84589 0.51181 0.68641 0.0
C137 C 0.81458 0.45797 0.69274 0.0
N138 N 0.83692 0.55469 0.77667 0.0
N139 N 0.81208 0.47888 0.73424 0.0
H140 H 0.39421 0.86188 0.08349 0.0
H141 H 0.54695 0.79988 0.94832 0.0
H142 H 0.45542 0.802 0.16937 0.0
H143 H 0.49245 0.86843 0.86971 0.0
H144 H 0.51208 0.79869 0.02756 0.0
H145 H 0.42845 0.86298 0.00273 0.0
C146 C 0.41482 0.84895 0.08536 0.0
C147 C 0.42198 0.83183 0.13325 0.0
C148 C 0.50772 0.81402 0.99304 0.0
C149 C 0.46117 0.83295 0.04105 0.0
C150 C 0.52762 0.81469 0.94767 0.0
C151 C 0.52264 0.83434 0.90233 0.0
C152 C 0.48255 0.83306 0.99312 0.0
C153 C 0.49719 0.85298 0.90385 0.0
C154 C 0.43437 0.84963 0.03928 0.0
C155 C 0.449 0.81554 0.13338 0.0
N156 N 0.47805 0.85187 0.94855 0.0
N157 N 0.46758 0.81649 0.08797 0.0
H158 H 0.13727 0.50136 0.40847 0.0
H159 H 0.13111 0.49492 0.07255 0.0
H160 H 0.15117 0.41911 0.3153 0.0
H161 H 0.16166 0.57351 0.16306 0.0
H162 H 0.12897 0.46741 0.16221 0.0
H163 H 0.13672 0.52912 0.31895 0.0
C164 C 0.14004 0.48916 0.36921 0.0
C165 C 0.14443 0.45796 0.36919 0.0
C166 C 0.13611 0.49069 0.16224 0.0
C167 C 0.14344 0.48935 0.26722 0.0
C168 C 0.13725 0.50638 0.11127 0.0
C169 C 0.14673 0.53644 0.11046 0.0
C170 C 0.14392 0.50539 0.21268 0.0
C171 C 0.15447 0.55026 0.1618 0.0
C172 C 0.13985 0.50498 0.31832 0.0
C173 C 0.14797 0.44321 0.31718 0.0
N174 N 0.15273 0.53467 0.21094 0.0
N175 N 0.14724 0.45902 0.2682 0.0
H176 H 0.29167 0.20333 0.29773 0.0
H177 H 0.26898 0.37414 0.3957 0.0
H178 H 0.35712 0.27365 0.27089 0.0
H179 H 0.20657 0.30297 0.43656 0.0
H180 H 0.30057 0.33777 0.34663 0.0
H181 H 0.25863 0.2399 0.34371 0.0
C182 C 0.29896 0.2265 0.30096 0.0
C183 C 0.32726 0.23542 0.28061 0.0
C184 C 0.28002 0.33005 0.36643 0.0
C185 C 0.28973 0.27726 0.3336 0.0
C186 C 0.26198 0.35082 0.39464 0.0
C187 C 0.23508 0.3416 0.42034 0.0
C188 C 0.27108 0.2998 0.36365 0.0
C189 C 0.22717 0.31107 0.41748 0.0
C190 C 0.28017 0.24732 0.32751 0.0
C191 C 0.33557 0.26572 0.28613 0.0
N192 N 0.24505 0.29126 0.38947 0.0
N193 N 0.31695 0.28549 0.31224 0.0
H194 H 0.7091 0.36991 0.59018 0.0
H195 H 0.67937 0.20181 0.69624 0.0
H196 H 0.77698 0.30054 0.58817 0.0
H197 H 0.60969 0.26878 0.67923 0.0
H198 H 0.71602 0.23812 0.66048 0.0
H199 H 0.67272 0.3334 0.62541 0.0
C200 C 0.71634 0.34696 0.59691 0.0
C201 C 0.74614 0.33828 0.58625 0.0
C202 C 0.69271 0.24486 0.66463 0.0
C203 C 0.70461 0.29636 0.62701 0.0
C204 C 0.67179 0.22418 0.68526 0.0
C205 C 0.6414 0.23227 0.69069 0.0
C206 C 0.68318 0.27385 0.64955 0.0
C207 C 0.63286 0.26154 0.67567 0.0
C208 C 0.69554 0.32611 0.6171 0.0
C209 C 0.75422 0.30821 0.59575 0.0
N210 N 0.65363 0.28125 0.6558 0.0
N211 N 0.73359 0.28835 0.6158 0.0
H212 H 0.71049 0.6232 0.02177 0.0
H213 H 0.68227 0.77366 0.84465 0.0
H214 H 0.78063 0.68719 0.98328 0.0
H215 H 0.61209 0.71118 0.8909 0.0
H216 H 0.71873 0.74256 0.89531 0.0
H217 H 0.67398 0.65605 0.97611 0.0
C218 C 0.71819 0.64432 0.00419 0.0
C219 C 0.7487 0.65239 0.00615 0.0
C220 C 0.69535 0.73566 0.89431 0.0
C221 C 0.707 0.69 0.95309 0.0
C222 C 0.67455 0.75332 0.86515 0.0
C223 C 0.64407 0.74499 0.86346 0.0
C224 C 0.68562 0.70946 0.92188 0.0
C225 C 0.63534 0.71848 0.89101 0.0
C226 C 0.69731 0.66303 0.97792 0.0
C227 C 0.75733 0.68007 0.98274 0.0
N228 N 0.656 0.70169 0.91907 0.0
N229 N 0.7366 0.69779 0.95681 0.0
H230 H 0.27869 0.61697 0.06227 0.0
H231 H 0.29711 0.77458 0.22232 0.0
H232 H 0.21108 0.68657 0.05835 0.0
H233 H 0.36618 0.7065 0.21509 0.0
H234 H 0.26446 0.74234 0.16493 0.0
H235 H 0.31075 0.64963 0.11905 0.0
C236 C 0.27065 0.63923 0.07301 0.0
C237 C 0.24212 0.64902 0.05557 0.0
C238 C 0.28673 0.73446 0.17608 0.0
C239 C 0.27868 0.68652 0.12127 0.0
C240 C 0.30532 0.75277 0.20912 0.0
C241 C 0.33445 0.74324 0.22349 0.0
C242 C 0.29735 0.70642 0.15743 0.0
C243 C 0.34393 0.71482 0.20497 0.0
C244 C 0.28896 0.65786 0.10563 0.0
C245 C 0.23294 0.67811 0.07078 0.0
N246 N 0.32548 0.69748 0.17286 0.0
N247 N 0.25112 0.6958 0.10302 0.0
H248 H 0.4325 0.91807 0.34512 0.0
H249 H 0.33833 0.06178 0.24624 0.0
H250 H 0.3417 0.91023 0.28153 0.0
H251 H 0.43492 0.0593 0.26635 0.0
H252 H 0.33637 0.00787 0.26917 0.0
H253 H 0.43052 0.97197 0.32956 0.0
C254 C 0.412 0.92771 0.32827 0.0
C255 C 0.38733 0.90953 0.31409 0.0
C256 C 0.35791 0.01926 0.26838 0.0
C257 C 0.38501 0.97151 0.29562 0.0
C258 C 0.35907 0.04994 0.25524 0.0
C259 C 0.38684 0.06505 0.25423 0.0
C260 C 0.38468 0.00389 0.28121 0.0
C261 C 0.413 0.04866 0.26639 0.0
C262 C 0.41094 0.95855 0.31914 0.0
C263 C 0.36128 0.92343 0.29284 0.0
N264 N 0.41123 0.0191 0.27954 0.0
N265 N 0.36084 0.95366 0.28387 0.0
H266 H 0.92339 0.33998 0.42948 0.0
H267 H 0.06501 0.36603 0.63228 0.0
H268 H 0.91633 0.36257 0.60634 0.0
H269 H 0.07185 0.34888 0.45325 0.0
H270 H 0.01076 0.35726 0.62658 0.0
H271 H 0.97791 0.33559 0.44047 0.0
C272 C 0.93324 0.34369 0.47076 0.0
C273 C 0.91529 0.35205 0.51687 0.0
C274 C 0.02419 0.35513 0.58865 0.0
C275 C 0.97769 0.34723 0.52969 0.0
C276 C 0.05519 0.36009 0.5919 0.0
C277 C 0.07296 0.3586 0.54304 0.0
C278 C 0.01087 0.3487 0.53614 0.0
C279 C 0.059 0.35062 0.49192 0.0
C280 C 0.96439 0.34123 0.477 0.0
C281 C 0.9293 0.35639 0.56945 0.0
N282 N 0.02876 0.34626 0.48973 0.0
N283 N 0.95968 0.35421 0.57429 0.0
H284 H 0.62039 0.91519 0.65517 0.0
H285 H 0.63098 0.05641 0.86347 0.0
H286 H 0.62794 0.90792 0.83644 0.0
H287 H 0.61963 0.06366 0.68289 0.0
H288 H 0.63668 0.00205 0.85314 0.0
H289 H 0.62686 0.96958 0.66328 0.0
C290 C 0.62372 0.92497 0.69662 0.0
C291 C 0.62325 0.90699 0.74524 0.0
C292 C 0.63321 0.01558 0.81572 0.0
C293 C 0.63051 0.96925 0.75487 0.0
C294 C 0.62999 0.04664 0.8216 0.0
C295 C 0.62445 0.0646 0.77407 0.0
C296 C 0.63081 0.00237 0.76195 0.0
C297 C 0.62357 0.05068 0.72081 0.0
C298 C 0.62737 0.95604 0.70124 0.0
C299 C 0.62785 0.92091 0.79782 0.0
N300 N 0.62643 0.0204 0.71627 0.0
N301 N 0.63101 0.95122 0.80126 0.0
H302 H 0.92409 0.64248 0.04582 0.0
H303 H 0.06564 0.58106 0.87193 0.0
H304 H 0.92474 0.56083 0.94723 0.0
H305 H 0.07534 0.64317 0.01105 0.0
H306 H 0.01129 0.58201 0.88496 0.0
H307 H 0.97733 0.65049 0.02107 0.0
C308 C 0.93537 0.62637 0.01885 0.0
C309 C 0.92013 0.60079 -0.00096 0.0
C310 C 0.02528 0.59564 0.91235 0.0
C311 C 0.9804 0.61003 0.96999 0.0
C312 C 0.05635 0.59523 0.90478 0.0
C313 C 0.07514 0.61171 0.94101 0.0
C314 C 0.0128 0.61269 0.95638 0.0
C315 C 0.0617 0.62989 0.9825 0.0
C316 C 0.96564 0.63093 0.00481 0.0
C317 C 0.93569 0.58065 0.96408 0.0
N318 N 0.03129 0.62968 0.98946 0.0
N319 N 0.9649 0.58572 0.95068 0.0
H320 H 0.49229 0.19992 0.83163 0.0
H321 H 0.49024 0.17245 0.16485 0.0
H322 H 0.56709 0.16203 0.92368 0.0
H323 H 0.40939 0.18278 0.06543 0.0
H324 H 0.52017 0.17635 0.0788 0.0
H325 H 0.46319 0.20143 0.91913 0.0
C326 C 0.5027 0.19213 0.8703 0.0
C327 C 0.53215 0.18071 0.87032 0.0
C328 C 0.49589 0.17785 0.07586 0.0
C329 C 0.49895 0.18247 0.9705 0.0
C330 C 0.47875 0.17574 0.12497 0.0
C331 C 0.44722 0.17713 0.1223 0.0
C332 C 0.48145 0.18167 0.02367 0.0
C333 C 0.43363 0.18142 0.0694 0.0
C334 C 0.486 0.1929 0.92015 0.0
C335 C 0.54442 0.17088 0.92168 0.0
N336 N 0.45084 0.18353 0.02211 0.0
N337 N 0.52775 0.17199 0.96973 0.0
H338 H 0.8022 0.57013 0.21174 0.0
H339 H 0.82786 0.41065 0.35869 0.0
H340 H 0.83008 0.49072 0.1209 0.0
H341 H 0.78122 0.48406 0.43963 0.0
H342 H 0.83034 0.44017 0.27183 0.0
H343 H 0.79603 0.53958 0.29686 0.0
C344 C 0.80699 0.54629 0.20966 0.0
C345 C 0.81674 0.53298 0.15916 0.0
C346 C 0.8194 0.44974 0.3085 0.0
C347 C 0.80983 0.49796 0.25632 0.0
C348 C 0.81799 0.4329 0.35811 0.0
C349 C 0.80436 0.44492 0.40653 0.0
C350 C 0.80737 0.47893 0.30745 0.0
C351 C 0.79191 0.47387 0.40331 0.0
C352 C 0.80338 0.52885 0.2582 0.0
C353 C 0.82251 0.50196 0.15888 0.0
N354 N 0.79391 0.48997 0.35474 0.0
N355 N 0.81912 0.48555 0.20675 0.0
H356 H 0.4929 0.77222 0.70489 0.0
H357 H 0.49226 0.78828 0.36876 0.0
H358 H 0.57016 0.80091 0.60843 0.0
H359 H 0.41115 0.78833 0.46907 0.0
H360 H 0.52198 0.78373 0.45506 0.0
H361 H 0.46372 0.76904 0.61746 0.0
C362 C 0.50384 0.77758 0.66529 0.0
C363 C 0.534 0.78702 0.664 0.0
C364 C 0.49768 0.78457 0.45814 0.0
C365 C 0.5007 0.78333 0.5639 0.0
C366 C 0.48064 0.78705 0.40888 0.0
C367 C 0.44913 0.78892 0.41168 0.0
C368 C 0.48314 0.78368 0.51067 0.0
C369 C 0.43538 0.78716 0.46494 0.0
C370 C 0.4871 0.77586 0.61547 0.0
C371 C 0.54693 0.7937 0.61144 0.0
N372 N 0.45249 0.78471 0.51239 0.0
N373 N 0.5302 0.79176 0.56349 0.0
H374 H 0.1927 0.57648 0.80953 0.0
H375 H 0.18068 0.41449 0.66993 0.0
H376 H 0.20104 0.49469 0.90609 0.0
H377 H 0.20495 0.49333 0.57413 0.0
H378 H 0.18562 0.44375 0.757 0.0
H379 H 0.19498 0.54682 0.72247 0.0
C380 C 0.19526 0.55233 0.81243 0.0
C381 C 0.1966 0.53805 0.86519 0.0
C382 C 0.19011 0.45457 0.71694 0.0
C383 C 0.1988 0.50398 0.76582 0.0
C384 C 0.1872 0.43791 0.66722 0.0
C385 C 0.19234 0.4515 0.61466 0.0
C386 C 0.19772 0.48518 0.71408 0.0
C387 C 0.20082 0.48192 0.61372 0.0
C388 C 0.19661 0.53543 0.76274 0.0
C389 C 0.19996 0.50667 0.86638 0.0
N390 N 0.20294 0.49781 0.66265 0.0
N391 N 0.2006 0.49067 0.81747 0.0
loop_
_geom_bond_atom_site_label_1
_geom_bond_atom_site_label_2
_geom_bond_distance
_geom_bond_site_symmetry_2
_ccdc_geom_bond_type
C0 O1 1.160 . S
C0 O7 1.185 . S
O1 C0 1.160 . S
O2 Zn3 1.899 . S
O2 C10 1.284 . S
Zn3 O2 1.899 . S
Zn3 O4 2.032 . S
Zn3 O7 2.086 . S
Zn3 O12 1.977 . S
O4 Zn3 2.032 . S
O4 C8 1.278 . S
C5 O6 1.203 . S
C5 O12 1.267 . S
O6 C5 1.203 . S
O7 C0 1.185 . S
O7 Zn3 2.086 . S
C8 O4 1.278 . S
C8 O9 1.211 . S
O9 C8 1.211 . S
C10 O2 1.284 . S
C10 O11 1.273 . S
O11 C10 1.273 . S
O12 Zn3 1.977 . S
O12 C5 1.267 . S
C13 O14 1.160 . S
C13 O20 1.185 . S
O14 C13 1.160 . S
O15 Zn16 1.899 . S
O15 C23 1.284 . S
Zn16 O15 1.899 . S
Zn16 O17 2.032 . S
Zn16 O20 2.086 . S
Zn16 O25 1.977 . S
O17 Zn16 2.032 . S
O17 C21 1.278 . S
C18 O19 1.203 . S
C18 O25 1.267 . S
O19 C18 1.203 . S
O20 C13 1.185 . S
O20 Zn16 2.086 . S
C21 O17 1.278 . S
C21 O22 1.211 . S
O22 C21 1.211 . S
C23 O15 1.284 . S
C23 O24 1.273 . S
O24 C23 1.273 . S
O25 Zn16 1.977 . S
O25 C18 1.267 . S
C26 O27 1.160 . S
C26 O33 1.185 . S
O27 C26 1.160 . S
O28 Zn29 1.899 . S
O28 C36 1.284 . S
Zn29 O28 1.899 . S
Zn29 O30 2.032 . S
Zn29 O33 2.086 . S
Zn29 O38 1.977 . S
O30 Zn29 2.032 . S
O30 C34 1.278 . S
C31 O32 1.203 . S
C31 O38 1.267 . S
O32 C31 1.203 . S
O33 C26 1.185 . S
O33 Zn29 2.086 . S
C34 O30 1.278 . S
C34 O35 1.211 . S
O35 C34 1.211 . S
C36 O28 1.284 . S
C36 O37 1.273 . S
O37 C36 1.273 . S
O38 Zn29 1.977 . S
O38 C31 1.267 . S
C39 O40 1.160 . S
C39 O46 1.185 . S
O40 C39 1.160 . S
O41 Zn42 1.899 1_556 S
O41 C49 1.284 . S
Zn42 O41 1.899 1_554 S
Zn42 O43 2.032 . S
Zn42 O46 2.086 . S
Zn42 O51 1.977 . S
O43 Zn42 2.032 . S
O43 C47 1.278 . S
C44 O45 1.203 1_554 S
C44 O51 1.267 . S
O45 C44 1.203 1_556 S
O46 C39 1.185 . S
O46 Zn42 2.086 . S
C47 O43 1.278 . S
C47 O48 1.211 . S
O48 C47 1.211 . S
C49 O41 1.284 . S
C49 O50 1.273 . S
O50 C49 1.273 . S
O51 Zn42 1.977 . S
O51 C44 1.267 . S
C52 O53 1.160 . S
C52 O59 1.185 . S
O53 C52 1.160 . S
O54 Zn55 1.899 . S
O54 C62 1.284 . S
Zn55 O54 1.899 . S
Zn55 O56 2.032 . S
Zn55 O59 2.086 . S
Zn55 O64 1.977 . S
O56 Zn55 2.032 . S
O56 C60 1.278 . S
C57 O58 1.203 . S
C57 O64 1.267 . S
O58 C57 1.203 . S
O59 C52 1.185 . S
O59 Zn55 2.086 . S
C60 O56 1.278 . S
C60 O61 1.211 . S
O61 C60 1.211 . S
C62 O54 1.284 . S
C62 O63 1.273 . S
O63 C62 1.273 . S
O64 Zn55 1.977 . S
O64 C57 1.267 . S
C65 O66 1.160 . S
C65 O72 1.185 . S
O66 C65 1.160 . S
O67 Zn68 1.899 . S
O67 C75 1.284 . S
Zn68 O67 1.899 . S
Zn68 O69 2.032 . S
Zn68 O72 2.086 . S
Zn68 O77 1.977 . S
O69 Zn68 2.032 . S
O69 C73 1.278 . S
C70 O71 1.203 . S
C70 O77 1.267 . S
O71 C70 1.203 . S
O72 C65 1.185 . S
O72 Zn68 2.086 . S
C73 O69 1.278 . S
C73 O74 1.211 . S
O74 C73 1.211 . S
C75 O67 1.284 . S
C75 O76 1.273 . S
O76 C75 1.273 . S
O77 Zn68 1.977 . S
O77 C70 1.267 . S
C78 O79 1.160 . S
C78 O85 1.185 . S
O79 C78 1.160 . S
O80 Zn81 1.899 . S
O80 C88 1.284 . S
Zn81 O80 1.899 . S
Zn81 O82 2.032 . S
Zn81 O85 2.086 . S
Zn81 O90 1.977 . S
O82 Zn81 2.032 . S
O82 C86 1.278 . S
C83 O84 1.203 . S
C83 O90 1.267 . S
O84 C83 1.203 . S
O85 C78 1.185 . S
O85 Zn81 2.086 . S
C86 O82 1.278 . S
C86 O87 1.211 . S
O87 C86 1.211 . S
C88 O80 1.284 . S
C88 O89 1.273 . S
O89 C88 1.273 . S
O90 Zn81 1.977 . S
O90 C83 1.267 . S
C91 O92 1.160 1_556 S
C91 O98 1.185 . S
O92 C91 1.160 1_554 S
O93 Zn94 1.899 . S
O93 C101 1.284 . S
Zn94 O93 1.899 . S
Zn94 O95 2.032 1_554 S
Zn94 O98 2.086 1_554 S
Zn94 O103 1.977 1_554 S
O95 Zn94 2.032 1_556 S
O95 C99 1.278 . S
C96 O97 1.203 . S
C96 O103 1.267 1_554 S
O97 C96 1.203 . S
O98 C91 1.185 . S
O98 Zn94 2.086 1_556 S
C99 O95 1.278 . S
C99 O100 1.211 . S
O100 C99 1.211 . S
C101 O93 1.284 . S
C101 O102 1.273 . S
O102 C101 1.273 . S
O103 Zn94 1.977 1_556 S
O103 C96 1.267 1_556 S
H104 C110 0.930 . S
H105 C114 0.930 . S
H106 C119 0.929 . S
H107 C117 0.929 . S
H108 C112 0.929 . S
H109 C118 0.929 . S
C110 H104 0.930 . S
C110 C111 1.367 . S
C110 C118 1.378 . S
C111 C110 1.367 . S
C111 C119 1.433 . S
C112 H108 0.929 . S
C112 C114 1.378 . S
C112 C116 1.350 . S
C113 C116 1.463 . S
C113 C118 1.350 . S
C113 N121 1.427 . S
C114 H105 0.930 . S
C114 C112 1.378 . S
C114 C115 1.367 . S
C115 C114 1.367 . S
C115 C117 1.433 . S
C116 C112 1.350 . S
C116 C113 1.463 . S
C116 N120 1.427 . S
C117 H107 0.929 . S
C117 C115 1.433 . S
C117 N120 1.384 . S
C118 H109 0.929 . S
C118 C110 1.378 . S
C118 C113 1.350 . S
C119 H106 0.929 . S
C119 C111 1.433 . S
C119 N121 1.384 . S
N120 C116 1.427 . S
N120 C117 1.384 . S
N121 C113 1.427 . S
N121 C119 1.384 . S
H122 C128 0.930 . S
H123 C132 0.930 . S
H124 C137 0.929 . S
H125 C135 0.929 . S
H126 C130 0.929 . S
H127 C136 0.929 . S
C128 H122 0.930 . S
C128 C129 1.367 . S
C128 C136 1.378 . S
C129 C128 1.367 . S
C129 C137 1.433 . S
C130 H126 0.929 . S
C130 C132 1.378 . S
C130 C134 1.350 . S
C131 C134 1.463 . S
C131 C136 1.350 . S
C131 N139 1.427 . S
C132 H123 0.930 . S
C132 C130 1.378 . S
C132 C133 1.367 . S
C133 C132 1.367 . S
C133 C135 1.433 . S
C134 C130 1.350 . S
C134 C131 1.463 . S
C134 N138 1.427 . S
C135 H125 0.929 . S
C135 C133 1.433 . S
C135 N138 1.384 . S
C136 H127 0.929 . S
C136 C128 1.378 . S
C136 C131 1.350 . S
C137 H124 0.929 . S
C137 C129 1.433 . S
C137 N139 1.384 . S
N138 C134 1.427 . S
N138 C135 1.384 . S
N139 C131 1.427 . S
N139 C137 1.384 . S
H140 C146 0.930 . S
H141 C150 0.930 . S
H142 C155 0.929 . S
H143 C153 0.929 . S
H144 C148 0.929 . S
H145 C154 0.929 . S
C146 H140 0.930 . S
C146 C147 1.367 . S
C146 C154 1.378 . S
C147 C146 1.367 . S
C147 C155 1.433 . S
C148 H144 0.929 . S
C148 C150 1.378 . S
C148 C152 1.350 . S
C149 C152 1.463 1_554 S
C149 C154 1.350 . S
C149 N157 1.427 . S
C150 H141 0.930 . S
C150 C148 1.378 . S
C150 C151 1.367 . S
C151 C150 1.367 . S
C151 C153 1.433 . S
C152 C148 1.350 . S
C152 C149 1.463 1_556 S
C152 N156 1.427 . S
C153 H143 0.929 . S
C153 C151 1.433 . S
C153 N156 1.384 . S
C154 H145 0.929 . S
C154 C146 1.378 . S
C154 C149 1.350 . S
C155 H142 0.929 . S
C155 C147 1.433 . S
C155 N157 1.384 . S
N156 C152 1.427 . S
N156 C153 1.384 . S
N157 C149 1.427 . S
N157 C155 1.384 . S
H158 C164 0.930 . S
H159 C168 0.930 . S
H160 C173 0.929 . S
H161 C171 0.929 . S
H162 C166 0.929 . S
H163 C172 0.929 . S
C164 H158 0.930 . S
C164 C165 1.367 . S
C164 C172 1.378 . S
C165 C164 1.367 . S
C165 C173 1.433 . S
C166 H162 0.929 . S
C166 C168 1.378 . S
C166 C170 1.350 . S
C167 C170 1.463 . S
C167 C172 1.350 . S
C167 N175 1.427 . S
C168 H159 0.930 . S
C168 C166 1.378 . S
C168 C169 1.367 . S
C169 C168 1.367 . S
C169 C171 1.433 . S
C170 C166 1.350 . S
C170 C167 1.463 . S
C170 N174 1.427 . S
C171 H161 0.929 . S
C171 C169 1.433 . S
C171 N174 1.384 . S
C172 H163 0.929 . S
C172 C164 1.378 . S
C172 C167 1.350 . S
C173 H160 0.929 . S
C173 C165 1.433 . S
C173 N175 1.384 . S
N174 C170 1.427 . S
N174 C171 1.384 . S
N175 C167 1.427 . S
N175 C173 1.384 . S
H176 C182 0.930 . S
H177 C186 0.930 . S
H178 C191 0.929 . S
H179 C189 0.929 . S
H180 C184 0.929 . S
H181 C190 0.929 . S
C182 H176 0.930 . S
C182 C183 1.367 . S
C182 C190 1.378 . S
C183 C182 1.367 . S
C183 C191 1.433 . S
C184 H180 0.929 . S
C184 C186 1.378 . S
C184 C188 1.350 . S
C185 C188 1.463 . S
C185 C190 1.350 . S
C185 N193 1.427 . S
C186 H177 0.930 . S
C186 C184 1.378 . S
C186 C187 1.367 . S
C187 C186 1.367 . S
C187 C189 1.433 . S
C188 C184 1.350 . S
C188 C185 1.463 . S
C188 N192 1.427 . S
C189 H179 0.929 . S
C189 C187 1.433 . S
C189 N192 1.384 . S
C190 H181 0.929 . S
C190 C182 1.378 . S
C190 C185 1.350 . S
C191 H178 0.929 . S
C191 C183 1.433 . S
C191 N193 1.384 . S
N192 C188 1.427 . S
N192 C189 1.384 . S
N193 C185 1.427 . S
N193 C191 1.384 . S
H194 C200 0.930 . S
H195 C204 0.930 . S
H196 C209 0.929 . S
H197 C207 0.929 . S
H198 C202 0.929 . S
H199 C208 0.929 . S
C200 H194 0.930 . S
C200 C201 1.367 . S
C200 C208 1.378 . S
C201 C200 1.367 . S
C201 C209 1.433 . S
C202 H198 0.929 . S
C202 C204 1.378 . S
C202 C206 1.350 . S
C203 C206 1.463 . S
C203 C208 1.350 . S
C203 N211 1.427 . S
C204 H195 0.930 . S
C204 C202 1.378 . S
C204 C205 1.367 . S
C205 C204 1.367 . S
C205 C207 1.433 . S
C206 C202 1.350 . S
C206 C203 1.463 . S
C206 N210 1.427 . S
C207 H197 0.929 . S
C207 C205 1.433 . S
C207 N210 1.384 . S
C208 H199 0.929 . S
C208 C200 1.378 . S
C208 C203 1.350 . S
C209 H196 0.929 . S
C209 C201 1.433 . S
C209 N211 1.384 . S
N210 C206 1.427 . S
N210 C207 1.384 . S
N211 C203 1.427 . S
N211 C209 1.384 . S
H212 C218 0.930 . S
H213 C222 0.930 . S
H214 C227 0.929 1_554 S
H215 C225 0.929 . S
H216 C220 0.929 . S
H217 C226 0.929 . S
C218 H212 0.930 . S
C218 C219 1.367 . S
C218 C226 1.378 . S
C219 C218 1.367 . S
C219 C227 1.433 . S
C220 H216 0.929 . S
C220 C222 1.378 . S
C220 C224 1.350 . S
C221 C224 1.463 . S
C221 C226 1.350 . S
C221 N229 1.427 . S
C222 H213 0.930 . S
C222 C220 1.378 . S
C222 C223 1.367 . S
C223 C222 1.367 . S
C223 C225 1.433 . S
C224 C220 1.350 . S
C224 C221 1.463 . S
C224 N228 1.427 . S
C225 H215 0.929 . S
C225 C223 1.433 . S
C225 N228 1.384 . S
C226 H217 0.929 . S
C226 C218 1.378 . S
C226 C221 1.350 . S
C227 H214 0.929 1_556 S
C227 C219 1.433 . S
C227 N229 1.384 . S
N228 C224 1.427 . S
N228 C225 1.384 . S
N229 C221 1.427 . S
N229 C227 1.384 . S
H230 C236 0.930 . S
H231 C240 0.930 . S
H232 C245 0.929 . S
H233 C243 0.929 . S
H234 C238 0.929 . S
H235 C244 0.929 . S
C236 H230 0.930 . S
C236 C237 1.367 . S
C236 C244 1.378 . S
C237 C236 1.367 . S
C237 C245 1.433 . S
C238 H234 0.929 . S
C238 C240 1.378 . S
C238 C242 1.350 . S
C239 C242 1.463 . S
C239 C244 1.350 . S
C239 N247 1.427 . S
C240 H231 0.930 . S
C240 C238 1.378 . S
C240 C241 1.367 . S
C241 C240 1.367 . S
C241 C243 1.433 . S
C242 C238 1.350 . S
C242 C239 1.463 . S
C242 N246 1.427 . S
C243 H233 0.929 . S
C243 C241 1.433 . S
C243 N246 1.384 . S
C244 H235 0.929 . S
C244 C236 1.378 . S
C244 C239 1.350 . S
C245 H232 0.929 . S
C245 C237 1.433 . S
C245 N247 1.384 . S
N246 C242 1.427 . S
N246 C243 1.384 . S
N247 C239 1.427 . S
N247 C245 1.384 . S
H248 C254 0.930 . S
H249 C258 0.930 . S
H250 C263 0.929 . S
H251 C261 0.929 . S
H252 C256 0.929 . S
H253 C262 0.929 . S
C254 H248 0.930 . S
C254 C255 1.367 . S
C254 C262 1.378 . S
C255 C254 1.367 . S
C255 C263 1.433 . S
C256 H252 0.929 . S
C256 C258 1.378 . S
C256 C260 1.350 . S
C257 C260 1.463 1_565 S
C257 C262 1.350 . S
C257 N265 1.427 . S
C258 H249 0.930 . S
C258 C256 1.378 . S
C258 C259 1.367 . S
C259 C258 1.367 . S
C259 C261 1.433 . S
C260 C256 1.350 . S
C260 C257 1.463 1_545 S
C260 N264 1.427 . S
C261 H251 0.929 . S
C261 C259 1.433 . S
C261 N264 1.384 . S
C262 H253 0.929 . S
C262 C254 1.378 . S
C262 C257 1.350 . S
C263 H250 0.929 . S
C263 C255 1.433 . S
C263 N265 1.384 . S
N264 C260 1.427 . S
N264 C261 1.384 . S
N265 C257 1.427 . S
N265 C263 1.384 . S
H266 C272 0.930 . S
H267 C276 0.930 . S
H268 C281 0.929 . S
H269 C279 0.929 . S
H270 C274 0.929 . S
H271 C280 0.929 . S
C272 H266 0.930 . S
C272 C273 1.367 . S
C272 C280 1.378 . S
C273 C272 1.367 . S
C273 C281 1.433 . S
C274 H270 0.929 . S
C274 C276 1.378 . S
C274 C278 1.350 . S
C275 C278 1.463 1_655 S
C275 C280 1.350 . S
C275 N283 1.427 . S
C276 H267 0.930 . S
C276 C274 1.378 . S
C276 C277 1.367 . S
C277 C276 1.367 . S
C277 C279 1.433 . S
C278 C274 1.350 . S
C278 C275 1.463 1_455 S
C278 N282 1.427 . S
C279 H269 0.929 . S
C279 C277 1.433 . S
C279 N282 1.384 . S
C280 H271 0.929 . S
C280 C272 1.378 . S
C280 C275 1.350 . S
C281 H268 0.929 . S
C281 C273 1.433 . S
C281 N283 1.384 . S
N282 C278 1.427 . S
N282 C279 1.384 . S
N283 C275 1.427 . S
N283 C281 1.384 . S
H284 C290 0.930 . S
H285 C294 0.930 . S
H286 C299 0.929 . S
H287 C297 0.929 . S
H288 C292 0.929 . S
H289 C298 0.929 . S
C290 H284 0.930 . S
C290 C291 1.367 . S
C290 C298 1.378 . S
C291 C290 1.367 . S
C291 C299 1.433 . S
C292 H288 0.929 . S
C292 C294 1.378 . S
C292 C296 1.350 . S
C293 C296 1.463 1_565 S
C293 C298 1.350 . S
C293 N301 1.427 . S
C294 H285 0.930 . S
C294 C292 1.378 . S
C294 C295 1.367 . S
C295 C294 1.367 . S
C295 C297 1.433 . S
C296 C292 1.350 . S
C296 C293 1.463 1_545 S
C296 N300 1.427 . S
C297 H287 0.929 . S
C297 C295 1.433 . S
C297 N300 1.384 . S
C298 H289 0.929 . S
C298 C290 1.378 . S
C298 C293 1.350 . S
C299 H286 0.929 . S
C299 C291 1.433 . S
C299 N301 1.384 . S
N300 C296 1.427 . S
N300 C297 1.384 . S
N301 C293 1.427 . S
N301 C299 1.384 . S
H302 C308 0.930 . S
H303 C312 0.930 . S
H304 C317 0.929 . S
H305 C315 0.929 . S
H306 C310 0.929 . S
H307 C316 0.929 . S
C308 H302 0.930 . S
C308 C309 1.367 . S
C308 C316 1.378 . S
C309 C308 1.367 . S
C309 C317 1.433 . S
C310 H306 0.929 . S
C310 C312 1.378 . S
C310 C314 1.350 . S
C311 C314 1.463 1_655 S
C311 C316 1.350 . S
C311 N319 1.427 . S
C312 H303 0.930 . S
C312 C310 1.378 . S
C312 C313 1.367 . S
C313 C312 1.367 . S
C313 C315 1.433 . S
C314 C310 1.350 . S
C314 C311 1.463 1_455 S
C314 N318 1.427 . S
C315 H305 0.929 . S
C315 C313 1.433 . S
C315 N318 1.384 . S
C316 H307 0.929 . S
C316 C308 1.378 . S
C316 C311 1.350 . S
C317 H304 0.929 . S
C317 C309 1.433 . S
C317 N319 1.384 . S
N318 C314 1.427 . S
N318 C315 1.384 . S
N319 C311 1.427 . S
N319 C317 1.384 . S
H320 C326 0.930 . S
H321 C330 0.930 . S
H322 C335 0.929 . S
H323 C333 0.929 . S
H324 C328 0.929 . S
H325 C334 0.929 . S
C326 H320 0.930 . S
C326 C327 1.367 . S
C326 C334 1.378 . S
C327 C326 1.367 . S
C327 C335 1.433 . S
C328 H324 0.929 . S
C328 C330 1.378 . S
C328 C332 1.350 . S
C329 C332 1.463 1_556 S
C329 C334 1.350 . S
C329 N337 1.427 . S
C330 H321 0.930 . S
C330 C328 1.378 . S
C330 C331 1.367 . S
C331 C330 1.367 . S
C331 C333 1.433 . S
C332 C328 1.350 . S
C332 C329 1.463 1_554 S
C332 N336 1.427 . S
C333 H323 0.929 . S
C333 C331 1.433 . S
C333 N336 1.384 . S
C334 H325 0.929 . S
C334 C326 1.378 . S
C334 C329 1.350 . S
C335 H322 0.929 . S
C335 C327 1.433 . S
C335 N337 1.384 . S
N336 C332 1.427 . S
N336 C333 1.384 . S
N337 C329 1.427 . S
N337 C335 1.384 . S
H338 C344 0.930 . S
H339 C348 0.930 . S
H340 C353 0.929 . S
H341 C351 0.929 . S
H342 C346 0.929 . S
H343 C352 0.929 . S
C344 H338 0.930 . S
C344 C345 1.367 . S
C344 C352 1.378 . S
C345 C344 1.367 . S
C345 C353 1.433 . S
C346 H342 0.929 . S
C346 C348 1.378 . S
C346 C350 1.350 . S
C347 C350 1.463 . S
C347 C352 1.350 . S
C347 N355 1.427 . S
C348 H339 0.930 . S
C348 C346 1.378 . S
C348 C349 1.367 . S
C349 C348 1.367 . S
C349 C351 1.433 . S
C350 C346 1.350 . S
C350 C347 1.463 . S
C350 N354 1.427 . S
C351 H341 0.929 . S
C351 C349 1.433 . S
C351 N354 1.384 . S
C352 H343 0.929 . S
C352 C344 1.378 . S
C352 C347 1.350 . S
C353 H340 0.929 . S
C353 C345 1.433 . S
C353 N355 1.384 . S
N354 C350 1.427 . S
N354 C351 1.384 . S
N355 C347 1.427 . S
N355 C353 1.384 . S
H356 C362 0.930 . S
H357 C366 0.930 . S
H358 C371 0.929 . S
H359 C369 0.929 . S
H360 C364 0.929 . S
H361 C370 0.929 . S
C362 H356 0.930 . S
C362 C363 1.367 . S
C362 C370 1.378 . S
C363 C362 1.367 . S
C363 C371 1.433 . S
C364 H360 0.929 . S
C364 C366 1.378 . S
C364 C368 1.350 . S
C365 C368 1.463 . S
C365 C370 1.350 . S
C365 N373 1.427 . S
C366 H357 0.930 . S
C366 C364 1.378 . S
C366 C367 1.367 . S
C367 C366 1.367 . S
C367 C369 1.433 . S
C368 C364 1.350 . S
C368 C365 1.463 . S
C368 N372 1.427 . S
C369 H359 0.929 . S
C369 C367 1.433 . S
C369 N372 1.384 . S
C370 H361 0.929 . S
C370 C362 1.378 . S
C370 C365 1.350 . S
C371 H358 0.929 . S
C371 C363 1.433 . S
C371 N373 1.384 . S
N372 C368 1.427 . S
N372 C369 1.384 . S
N373 C365 1.427 . S
N373 C371 1.384 . S
H374 C380 0.930 . S
H375 C384 0.930 . S
H376 C389 0.929 . S
H377 C387 0.929 . S
H378 C382 0.929 . S
H379 C388 0.929 . S
C380 H374 0.930 . S
C380 C381 1.367 . S
C380 C388 1.378 . S
C381 C380 1.367 . S
C381 C389 1.433 . S
C382 H378 0.929 . S
C382 C384 1.378 . S
C382 C386 1.350 . S
C383 C386 1.463 . S
C383 C388 1.350 . S
C383 N391 1.427 . S
C384 H375 0.930 . S
C384 C382 1.378 . S
C384 C385 1.367 . S
C385 C384 1.367 . S
C385 C387 1.433 . S
C386 C382 1.350 . S
C386 C383 1.463 . S
C386 N390 1.427 . S
C387 H377 0.929 . S
C387 C385 1.433 . S
C387 N390 1.384 . S
C388 H379 0.929 . S
C388 C380 1.378 . S
C388 C383 1.350 . S
C389 H376 0.929 . S
C389 C381 1.433 . S
C389 N391 1.384 . S
N390 C386 1.427 . S
N390 C387 1.384 . S
N391 C383 1.427 . S
N391 C389 1.384 . S
C111 C8 1.024 . S
C115 C86 1.007 . S
C129 C21 1.006 . S
C133 C99 1.026 . S
C147 C60 1.006 . S
C151 C34 1.026 . S
C165 C73 1.022 . S
C169 C47 1.011 . S
C183 C0 1.313 . S
C187 C65 1.305 . S
C201 C13 1.306 . S
C205 C78 1.313 . S
C219 C91 1.306 . S
C223 C26 1.312 . S
C237 C39 1.307 . S
C241 C52 1.312 . S
C255 C57 1.327 . S
C259 C5 1.340 . S
C273 C18 1.337 . S
C277 C70 1.329 . S
C291 C31 1.328 . S
C295 C83 1.339 . S
C309 C96 1.343 . S
C313 C44 1.328 . S
C327 C88 1.496 . S
C331 C10 1.493 . S
C345 C101 1.505 . S
C349 C23 1.503 . S
C363 C36 1.499 . S
C367 C62 1.495 . S
C381 C49 1.505 . S
C385 C75 1.502 . S
