# Generated by pormake.
# Topology tfs, (6)-cn, num edge types: 1
# Building blocks:
#     Node 0, Type 0, BuildingBlock: FUNLAD_clean_sbu_0, # of connection points: 6
#     Node 1, Type 0, BuildingBlock: FUNLAD_clean_sbu_0, # of connection points: 6
#     Node 2, Type 0, BuildingBlock: FUNLAD_clean_sbu_0, # of connection points: 6
#     Node 3, Type 0, BuildingBlock: FUNLAD_clean_sbu_0, # of connection points: 6
#     Node 4, Type 0, BuildingBlock: FUNLAD_clean_sbu_0, # of connection points: 6
#     Node 5, Type 0, BuildingBlock: FUNLAD_clean_sbu_0, # of connection points: 6
#     Edge 6, Type (0, 0), BuildingBlock: XUDNAN_clean_linker_2, # of connection points: 2
#     Edge 7, Type (0, 0), BuildingBlock: XUDNAN_clean_linker_2, # of connection points: 2
#     Edge 8, Type (0, 0), BuildingBlock: XUDNAN_clean_linker_2, # of connection points: 2
#     Edge 9, Type (0, 0), BuildingBlock: XUDNAN_clean_linker_2, # of connection points: 2
#     Edge 10, Type (0, 0), BuildingBlock: XUDNAN_clean_linker_2, # of connection points: 2
#     Edge 11, Type (0, 0), BuildingBlock: XUDNAN_clean_linker_2, # of connection points: 2
#     Edge 12, Type (0, 0), BuildingBlock: XUDNAN_clean_linker_2, # of connection points: 2
#     Edge 13, Type (0, 0), BuildingBlock: XUDNAN_clean_linker_2, # of connection points: 2
#     Edge 14, Type (0, 0), BuildingBlock: XUDNAN_clean_linker_2, # of connection points: 2
#     Edge 15, Type (0, 0), BuildingBlock: XUDNAN_clean_linker_2, # of connection points: 2
#     Edge 16, Type (0, 0), BuildingBlock: XUDNAN_clean_linker_2, # of connection points: 2
#     Edge 17, Type (0, 0), BuildingBlock: XUDNAN_clean_linker_2, # of connection points: 2
#     Edge 18, Type (0, 0), BuildingBlock: XUDNAN_clean_linker_2, # of connection points: 2
#     Edge 19, Type (0, 0), BuildingBlock: XUDNAN_clean_linker_2, # of connection points: 2
#     Edge 20, Type (0, 0), BuildingBlock: XUDNAN_clean_linker_2, # of connection points: 2
#     Edge 21, Type (0, 0), BuildingBlock: XUDNAN_clean_linker_2, # of connection points: 2
#     Edge 22, Type (0, 0), BuildingBlock: XUDNAN_clean_linker_2, # of connection points: 2
#     Edge 23, Type (0, 0), BuildingBlock: XUDNAN_clean_linker_2, # of connection points: 2
# Relax obj value: 0.121
# Max RMSD: 0.155
# Mean RMSD: 0.154
data_MOF--net-tfs--node1-FUNLAD_clean_sbu_0--edge1-XUDNAN_clean_linker_2
_symmetry_space_group_name_H-M    P1
_symmetry_Int_Tables_number       1
_symmetry_cell_setting            triclinic
loop_
_symmetry_equiv_pos_as_xyz
'x, y, z'
_cell_length_a     40.984101
_cell_length_b     40.778939
_cell_length_c     21.652323
_cell_angle_alpha  90.647607
_cell_angle_beta   90.842777
_cell_angle_gamma 120.11966
loop_
_atom_site_label
_atom_site_type_symbol
_atom_site_fract_x
_atom_site_fract_y
_atom_site_fract_z
_atom_type_partial_charge
C0 C 0.12065 0.35501 0.05227 0.0
N1 N 0.2021 0.4261 0.18513 0.0
C2 C 0.17364 0.42515 0.21823 0.0
C3 C 0.17633 0.42823 0.28288 0.0
C4 C 0.20872 0.43254 0.31375 0.0
C5 C 0.23766 0.43364 0.27821 0.0
C6 C 0.23376 0.43033 0.21394 0.0
Zn7 Zn 0.19742 0.41804 0.09053 0.0
C8 C 0.21596 0.35855 0.05377 0.0
N9 N 0.18778 0.39763 0.89385 0.0
C10 C 0.16065 0.39909 0.85881 0.0
C11 C 0.21741 0.39724 0.86702 0.0
C12 C 0.22192 0.40078 0.80327 0.0
C13 C 0.19576 0.40481 0.76632 0.0
C14 C 0.16403 0.40254 0.7945 0.0
Zn15 Zn 0.19038 0.40458 0.9887 0.0
O16 O 0.14136 0.37464 0.09794 0.0
C17 C 0.17117 0.46384 0.02581 0.0
O18 O 0.13367 0.3616 0.99798 0.0
H19 H 0.23882 0.39629 0.89543 0.0
H20 H 0.14861 0.42161 0.19453 0.0
H21 H 0.13743 0.39961 0.88095 0.0
O22 O 0.17991 0.45842 0.07983 0.0
O23 O 0.17318 0.44511 0.98017 0.0
H24 H 0.25589 0.43054 0.18706 0.0
O25 O 0.24716 0.4478 0.98153 0.0
O26 O 0.25398 0.4614 0.08084 0.0
O27 O 0.20761 0.36416 0.99967 0.0
O28 O 0.21432 0.37752 0.09928 0.0
C29 C 0.2677 0.46751 0.02719 0.0
H30 H 0.15346 0.42753 0.30836 0.0
H31 H 0.26287 0.43626 0.29989 0.0
H32 H 0.2465 0.4018 0.78333 0.0
H33 H 0.14327 0.40566 0.76772 0.0
C34 C 0.84926 0.22309 0.0715 0.0
N35 N 0.77844 0.20331 0.91728 0.0
C36 C 0.80763 0.23054 0.88524 0.0
C37 C 0.80842 0.22728 0.8209 0.0
C38 C 0.77899 0.19559 0.78961 0.0
C39 C 0.74895 0.16845 0.82389 0.0
C40 C 0.74925 0.17286 0.88778 0.0
Zn41 Zn 0.77719 0.20541 1.01161 0.0
C42 C 0.7539 0.13041 0.06562 0.0
N43 N 0.7719 0.20634 0.20856 0.0
C44 C 0.8015 0.23292 0.24351 0.0
C45 C 0.74149 0.17713 0.23514 0.0
C46 C 0.74079 0.17278 0.29893 0.0
C47 C 0.77164 0.19877 0.33593 0.0
C48 C 0.80189 0.22974 0.30776 0.0
Zn49 Zn 0.774 0.20632 0.11424 0.0
O50 O 0.83411 0.21997 0.01852 0.0
C51 C 0.79853 0.28179 0.06277 0.0
O52 O 0.83022 0.21856 0.11963 0.0
H53 H 0.71822 0.15633 0.20661 0.0
H54 H 0.83058 0.25449 0.90967 0.0
H55 H 0.82545 0.25586 0.2214 0.0
O56 O 0.79349 0.26416 1.01141 0.0
O57 O 0.79246 0.26409 0.11302 0.0
H58 H 0.72622 0.15159 0.91394 0.0
O59 O 0.71703 0.19364 0.10689 0.0
O60 O 0.7204 0.19066 1.00612 0.0
O61 O 0.75654 0.14888 0.11468 0.0
O62 O 0.7609 0.14691 1.01407 0.0
C63 C 0.70141 0.18768 0.05361 0.0
H64 H 0.83219 0.24875 0.79615 0.0
H65 H 0.72535 0.14395 0.80154 0.0
H66 H 0.71666 0.14884 0.31898 0.0
H67 H 0.82628 0.25029 0.3347 0.0
C68 C 0.61543 0.76144 0.04487 0.0
N69 N 0.55027 0.77589 0.17699 0.0
C70 C 0.54773 0.7448 0.20416 0.0
C71 C 0.544 0.74058 0.26788 0.0
C72 C 0.54292 0.76864 0.30451 0.0
C73 C 0.546 0.80071 0.27551 0.0
C74 C 0.54954 0.80372 0.21126 0.0
Zn75 Zn 0.55614 0.77932 0.08289 0.0
C76 C 0.61569 0.85592 0.04517 0.0
N77 N 0.57043 0.7844 0.88683 0.0
C78 C 0.57082 0.75465 0.85848 0.0
C79 C 0.56868 0.81157 0.85332 0.0
C80 C 0.56521 0.80827 0.78878 0.0
C81 C 0.56328 0.7766 0.75875 0.0
C82 C 0.56729 0.75022 0.79436 0.0
Zn83 Zn 0.56571 0.78312 0.98113 0.0
O84 O 0.59812 0.76441 0.09079 0.0
C85 C 0.506 0.70617 0.01955 0.0
O86 O 0.60741 0.76746 0.99085 0.0
H87 H 0.56824 0.8349 0.87676 0.0
H88 H 0.54874 0.72315 0.17635 0.0
H89 H 0.57215 0.7333 0.8858 0.0
O90 O 0.51414 0.72197 0.07274 0.0
O91 O 0.52342 0.72527 0.97304 0.0
H92 H 0.55168 0.82825 0.18877 0.0
O93 O 0.52385 0.79857 0.97341 0.0
O94 O 0.51418 0.7946 0.07329 0.0
O95 O 0.60771 0.84099 0.99113 0.0
O96 O 0.59808 0.83633 0.09125 0.0
C97 C 0.50633 0.80117 0.01946 0.0
H98 H 0.54241 0.71572 0.28833 0.0
H99 H 0.54509 0.8229 0.30204 0.0
H100 H 0.56207 0.82917 0.76301 0.0
H101 H 0.56655 0.72571 0.77297 0.0
C102 C 0.75191 0.62417 0.06717 0.0
N103 N 0.76686 0.56367 0.92092 0.0
C104 C 0.73749 0.56096 0.88645 0.0
C105 C 0.73698 0.55714 0.8219 0.0
C106 C 0.7668 0.55576 0.79306 0.0
C107 C 0.79691 0.55937 0.82986 0.0
C108 C 0.7964 0.56334 0.89367 0.0
Zn109 Zn 0.76955 0.56767 1.01568 0.0
C110 C 0.84756 0.62863 0.05715 0.0
N111 N 0.78292 0.57769 0.2127 0.0
C112 C 0.75402 0.57592 0.24556 0.0
C113 C 0.81273 0.5779 0.24156 0.0
C114 C 0.81341 0.57449 0.30558 0.0
C115 C 0.78315 0.57087 0.3404 0.0
C116 C 0.75363 0.57262 0.3098 0.0
Zn117 Zn 0.77919 0.57466 0.11803 0.0
O118 O 0.75139 0.60817 1.01601 0.0
C119 C 0.7007 0.51399 0.07582 0.0
O120 O 0.76237 0.6151 0.11644 0.0
H121 H 0.83546 0.57939 0.21468 0.0
H122 H 0.71431 0.56136 0.90902 0.0
H123 H 0.73049 0.57563 0.22173 0.0
O124 O 0.71349 0.52356 0.02188 0.0
O125 O 0.72203 0.53077 0.12264 0.0
H126 H 0.81968 0.56589 0.92156 0.0
O127 O 0.79647 0.5344 0.11829 0.0
O128 O 0.78768 0.52681 0.01786 0.0
O129 O 0.83593 0.61822 0.11143 0.0
O130 O 0.82558 0.61221 1.01103 0.0
C131 C 0.79763 0.51848 0.06841 0.0
H132 H 0.7132 0.5544 0.79505 0.0
H133 H 0.8208 0.55918 0.80947 0.0
H134 H 0.83702 0.57387 0.32747 0.0
H135 H 0.72964 0.56968 0.33481 0.0
C136 C 0.26558 0.79482 1.00111 0.0
N137 N 0.18804 0.77798 0.85945 0.0
C138 C 0.21739 0.80825 0.83276 0.0
C139 C 0.21769 0.81261 0.76908 0.0
C140 C 0.18753 0.78558 0.73207 0.0
C141 C 0.15802 0.75399 0.7604 0.0
C142 C 0.15878 0.7508 0.82468 0.0
Zn143 Zn 0.18919 0.77635 0.95383 0.0
C144 C 0.16939 0.70057 1.00024 0.0
N145 N 0.19521 0.77654 0.15101 0.0
C146 C 0.22508 0.80634 0.1805 0.0
C147 C 0.16598 0.74945 0.18316 0.0
C148 C 0.16544 0.75259 0.2475 0.0
C149 C 0.19514 0.78404 0.27871 0.0
C150 C 0.22562 0.81065 0.24451 0.0
Zn151 Zn 0.1932 0.77613 0.05661 0.0
O152 O 0.24617 0.79074 0.95241 0.0
C153 C 0.21231 0.85162 1.0093 0.0
O154 O 0.2504 0.79002 0.05347 0.0
H155 H 0.14245 0.72606 0.15874 0.0
H156 H 0.24049 0.82947 0.86104 0.0
H157 H 0.24805 0.82754 0.15415 0.0
O158 O 0.20507 0.83364 0.95816 0.0
O159 O 0.21012 0.83463 0.05917 0.0
H160 H 0.13573 0.72698 0.84687 0.0
O161 O 0.13587 0.76214 0.05793 0.0
O162 O 0.13292 0.76261 0.95656 0.0
O163 O 0.1764 0.71788 0.05228 0.0
O164 O 0.17255 0.71845 0.9509 0.0
C165 C 0.11728 0.75849 1.00829 0.0
H166 H 0.24134 0.83703 0.749 0.0
H167 H 0.13419 0.7326 0.73343 0.0
H168 H 0.14132 0.73156 0.27217 0.0
H169 H 0.24936 0.83498 0.26692 0.0
C170 C 0.35199 0.22083 0.0651 0.0
N171 N 0.40508 0.19352 0.20475 0.0
C172 C 0.40444 0.2215 0.23867 0.0
C173 C 0.40102 0.21885 0.30276 0.0
C174 C 0.39797 0.18697 0.33219 0.0
C175 C 0.39967 0.15899 0.29621 0.0
C176 C 0.4033 0.16287 0.2323 0.0
Zn177 Zn 0.406 0.19648 0.11048 0.0
C178 C 0.35019 0.12591 0.049 0.0
N179 N 0.40561 0.20507 0.91385 0.0
C180 C 0.40403 0.23249 0.88078 0.0
C181 C 0.40415 0.1745 0.88509 0.0
C182 C 0.39976 0.16987 0.82124 0.0
C183 C 0.39668 0.19685 0.78597 0.0
C184 C 0.39972 0.229 0.81619 0.0
Zn185 Zn 0.40635 0.20437 1.00869 0.0
O186 O 0.36326 0.21071 0.11227 0.0
C187 C 0.4618 0.27524 0.07013 0.0
O188 O 0.36616 0.2218 1.01288 0.0
H189 H 0.40534 0.1529 0.91184 0.0
H190 H 0.40571 0.24556 0.21584 0.0
H191 H 0.4051 0.2565 0.90454 0.0
O192 O 0.44744 0.25439 0.11661 0.0
O193 O 0.4504 0.26142 1.0159 0.0
H194 H 0.404 0.14102 0.20453 0.0
O195 O 0.44669 0.1868 1.00648 0.0
O196 O 0.44902 0.1824 0.10722 0.0
O197 O 0.36232 0.14775 1.00334 0.0
O198 O 0.36442 0.13848 0.10249 0.0
C199 C 0.46041 0.17982 0.05412 0.0
H200 H 0.39949 0.24089 0.32869 0.0
H201 H 0.39793 0.13419 0.31719 0.0
H202 H 0.39823 0.14502 0.7997 0.0
H203 H 0.39742 0.25041 0.7905 0.0
H204 H 0.32604 0.25023 0.97659 0.0
H205 H 0.31527 0.2197 0.16986 0.0
H206 H 0.2731 0.24568 0.18459 0.0
H207 H 0.33256 0.3372 0.99893 0.0
H208 H 0.30569 0.3349 0.9307 0.0
H209 H 0.33066 0.30913 0.93257 0.0
H210 H 0.26864 0.24663 0.90563 0.0
H211 H 0.24343 0.2723 0.90331 0.0
H212 H 0.22801 0.23221 0.95295 0.0
H213 H 0.23964 0.28192 0.18228 0.0
H214 H 0.21476 0.32475 0.16197 0.0
H215 H 0.24568 0.33076 0.96979 0.0
C216 C 0.31413 0.24823 0.02165 0.0
C217 C 0.32388 0.23292 0.07204 0.0
C218 C 0.30815 0.23127 0.13054 0.0
C219 C 0.28405 0.24581 0.13936 0.0
C220 C 0.27572 0.26154 0.08912 0.0
C221 C 0.28996 0.26256 0.03126 0.0
C222 C 0.27895 0.28371 0.98631 0.0
C223 C 0.31406 0.31828 0.96066 0.0
C224 C 0.25322 0.25712 0.93396 0.0
C225 C 0.25754 0.29562 0.02865 0.0
C226 C 0.25572 0.28219 0.08758 0.0
C227 C 0.24017 0.29201 0.13609 0.0
C228 C 0.22634 0.31649 0.12419 0.0
C229 C 0.22813 0.33074 0.06425 0.0
C230 C 0.24336 0.31966 1.01574 0.0
H231 H 0.06157 0.32454 0.9687 0.0
H232 H 0.09113 0.321 0.16085 0.0
H233 H 0.02412 0.27836 0.18298 0.0
H234 H -0.01549 0.33285 0.99705 0.0
H235 H 0.95562 0.30388 0.9327 0.0
H236 H 0.00614 0.32771 0.92848 0.0
H237 H 0.0029 0.26365 0.9051 0.0
H238 H 0.95217 0.23956 0.90879 0.0
H239 H 0.97854 0.22481 0.95692 0.0
H240 H 0.95482 0.24501 0.18825 0.0
H241 H 0.88688 0.22242 0.1761 0.0
H242 H 0.90158 0.24758 0.98072 0.0
C243 C 0.05397 0.31374 1.0149 0.0
C244 C 0.08137 0.3258 0.063 0.0
C245 C 0.07045 0.31201 0.12334 0.0
C246 C 0.03252 0.2876 0.13629 0.0
C247 C 0.00598 0.27719 0.08835 0.0
C248 C 0.01613 0.28957 0.02873 0.0
C249 C 0.98175 0.27785 0.98745 0.0
C250 C 0.98204 0.31264 0.95985 0.0
C251 C 0.97866 0.24979 0.93656 0.0
C252 C 0.95088 0.2586 0.03392 0.0
C253 C 0.96545 0.2579 0.09153 0.0
C254 C 0.9429 0.24462 0.14314 0.0
C255 C 0.90441 0.23208 0.13584 0.0
C256 C 0.88903 0.23316 0.07743 0.0
C257 C 0.91249 0.24591 0.02571 0.0
H258 H 0.72253 0.07557 0.97391 0.0
H259 H 0.75829 0.09432 0.16711 0.0
H260 H 0.73367 0.02595 0.17824 0.0
H261 H 0.63681 -0.0054 0.99557 0.0
H262 H 0.63649 0.96991 0.92577 0.0
H263 H 0.66237 0.02089 0.92939 0.0
H264 H 0.72335 0.02101 0.89901 0.0
H265 H 0.69756 0.96989 0.89502 0.0
H266 H 0.73928 -0.0055 0.94386 0.0
H267 H 0.69862 0.95653 0.17321 0.0
H268 H 0.65462 0.88868 0.15198 0.0
H269 H 0.641 0.91334 0.96189 0.0
C270 C 0.72604 0.06529 0.018 0.0
C271 C 0.7424 0.0901 0.06958 0.0
C272 C 0.74578 0.0757 0.12703 0.0
C273 C 0.73212 0.03698 0.13374 0.0
C274 C 0.71528 0.01308 0.08254 0.0
C275 C 0.71225 0.02653 0.02566 0.0
C276 C 0.68942 -0.00579 0.98 0.0
C277 C 0.65419 -0.00504 0.95633 0.0
C278 C 0.71387 -0.00505 0.9263 0.0
C279 C 0.67897 0.96061 0.0209 0.0
C280 C 0.69469 0.97228 0.07958 0.0
C281 C 0.68669 0.94689 0.12718 0.0
C282 C 0.66152 0.90848 0.11476 0.0
C283 C 0.64469 0.89591 0.05525 0.0
C284 C 0.65409 0.92221 1.00744 0.0
H285 H 0.71671 0.6429 0.97661 0.0
H286 H 0.75921 0.6691 0.16637 0.0
H287 H 0.73481 0.71294 0.17654 0.0
H288 H 0.73377 0.73939 0.94018 0.0
H289 H 0.69083 0.72063 0.8943 0.0
H290 H 0.71586 0.69483 0.89875 0.0
H291 H 0.65527 0.63567 0.93573 0.0
H292 H 0.63014 0.66125 0.93155 0.0
H293 H 0.63192 0.63976 1.00286 0.0
H294 H 0.6997 0.74714 0.17145 0.0
H295 H 0.65636 0.77125 0.15018 0.0
H296 H 0.63737 0.72489 0.96312 0.0
C297 C 0.72157 0.65851 0.0198 0.0
C298 C 0.73988 0.65263 0.07063 0.0
C299 C 0.74521 0.6731 0.12678 0.0
C300 C 0.73165 0.69824 0.13298 0.0
C301 C 0.71306 0.70283 0.08252 0.0
C302 C 0.70816 0.6838 0.02685 0.0
C303 C 0.68453 0.69173 0.98162 0.0
C304 C 0.70764 0.71291 0.92538 0.0
C305 C 0.64833 0.65491 0.96182 0.0
C306 C 0.67587 0.71705 0.02146 0.0
C307 C 0.69296 0.72334 0.07927 0.0
C308 C 0.68672 0.74311 0.12602 0.0
C309 C 0.66195 0.7565 0.11361 0.0
C310 C 0.6439 0.75013 0.05492 0.0
C311 C 0.65148 0.73078 1.00795 0.0
H312 H 0.06872 0.72751 0.1038 0.0
H313 H 0.07632 0.76704 0.91636 0.0
H314 H 0.0086 0.7464 0.91576 0.0
H315 H -0.01559 0.64466 0.08141 0.0
H316 H 0.96561 0.64435 0.15629 0.0
H317 H 0.01581 0.66825 0.14668 0.0
H318 H 0.02198 0.73046 0.19105 0.0
H319 H 0.97165 0.70667 0.20089 0.0
H320 H -0.00533 0.74928 0.15656 0.0
H321 H 0.94009 0.71443 0.92916 0.0
H322 H 0.8738 0.67118 0.95479 0.0
H323 H 0.9094 0.65168 0.13373 0.0
C324 C 0.05628 0.73271 0.06331 0.0
C325 C 0.07766 0.749 1.01024 0.0
C326 C 0.06036 0.75458 0.9575 0.0
C327 C 0.02202 0.74324 0.95689 0.0
C328 C 0.00148 0.7265 1.00942 0.0
C329 C 0.01791 0.72125 0.06175 0.0
C330 C -0.01139 0.69862 0.10919 0.0
C331 C -0.01138 0.6618 0.12422 0.0
C332 C -0.00541 0.72271 0.1679 0.0
C333 C 0.95303 0.69057 0.07414 0.0
C334 C 0.96126 0.70758 0.01719 0.0
C335 C 0.93321 0.70155 0.97406 0.0
C336 C 0.89569 0.67681 0.98892 0.0
C337 C 0.88664 0.65835 0.04633 0.0
C338 C 0.9156 0.66608 0.09007 0.0
H339 H 0.25 0.90439 0.1019 0.0
H340 H 0.20149 0.89012 0.91709 0.0
H341 H 0.22519 0.95875 0.91347 0.0
H342 H 0.23526 0.98352 0.1539 0.0
H343 H 0.27992 0.00731 0.19542 0.0
H344 H 0.25435 0.95631 0.18769 0.0
H345 H 0.31288 0.9583 0.13981 0.0
H346 H 0.33854 0.00918 0.14721 0.0
H347 H 0.33362 0.98666 0.07282 0.0
H348 H 0.25964 0.02829 0.92402 0.0
H349 H 0.30407 0.09572 0.94761 0.0
H350 H 0.33109 0.06608 0.12559 0.0
C351 C 0.24359 0.91566 0.06137 0.0
C352 C 0.22378 0.89206 1.00991 0.0
C353 C 0.21663 0.90779 0.95703 0.0
C354 C 0.22975 0.94666 0.95467 0.0
C355 C 0.24989 0.96933 1.00558 0.0
C356 C 0.25678 0.95453 0.05804 0.0
C357 C 0.28237 0.98569 0.10367 0.0
C358 C 0.26173 0.98304 0.16373 0.0
C359 C 0.31902 0.9849 0.11659 0.0
C360 C 0.28976 0.02028 0.06766 0.0
C361 C 0.27025 0.01007 1.01162 0.0
C362 C 0.27459 0.03675 0.96816 0.0
C363 C 0.30002 0.07494 0.98189 0.0
C364 C 0.32083 0.08604 0.03854 0.0
C365 C 0.31505 0.05839 0.08241 0.0
H366 H 0.17802 0.65903 0.09082 0.0
H367 H 0.13936 0.65203 0.90078 0.0
H368 H 0.12835 0.58691 0.89121 0.0
H369 H 0.22974 0.6147 0.06464 0.0
H370 H 0.21895 0.58964 0.1363 0.0
H371 H 0.21834 0.63333 0.13164 0.0
H372 H 0.14946 0.59959 0.16925 0.0
H373 H 0.14991 0.55571 0.17427 0.0
H374 H 0.11389 0.55772 0.12848 0.0
H375 H 0.12844 0.52624 0.89806 0.0
H376 H 0.1402 0.47391 0.92045 0.0
H377 H 0.1792 0.52012 0.10598 0.0
C378 C 0.16633 0.64343 0.04771 0.0
C379 C 0.15934 0.66045 0.99662 0.0
C380 C 0.14487 0.63948 0.94052 0.0
C381 C 0.13834 0.60242 0.93473 0.0
C382 C 0.14635 0.58678 0.9855 0.0
C383 C 0.15991 0.60651 0.04101 0.0
C384 C 0.16958 0.58454 0.08648 0.0
C385 C 0.21164 0.60689 0.10586 0.0
C386 C 0.14418 0.57374 0.14296 0.0
C387 C 0.1605 0.54995 0.04713 0.0
C388 C 0.14664 0.5516 0.98936 0.0
C389 C 0.13871 0.52429 0.94342 0.0
C390 C 0.14563 0.49477 0.95653 0.0
C391 C 0.16049 0.4929 1.01503 0.0
C392 C 0.16731 0.52051 0.06117 0.0
H393 H 0.51383 0.18838 0.14049 0.0
H394 H 0.47596 0.15226 0.95071 0.0
H395 H 0.53073 0.14396 0.93391 0.0
H396 H 0.60864 0.24385 0.10839 0.0
H397 H 0.6264 0.23276 0.1769 0.0
H398 H 0.58136 0.23033 0.17763 0.0
H399 H 0.54945 0.16052 0.21223 0.0
H400 H 0.59454 0.16281 0.21206 0.0
H401 H 0.55536 0.12644 0.16728 0.0
H402 H 0.59218 0.14657 0.93351 0.0
H403 H 0.65714 0.15937 0.94969 0.0
H404 H 0.65633 0.19438 0.13962 0.0
C405 C 0.51657 0.17769 0.096 0.0
C406 C 0.49063 0.17068 0.047 0.0
C407 C 0.49555 0.15771 0.98887 0.0
C408 C 0.52645 0.15275 0.97895 0.0
C409 C 0.5521 0.16089 0.02764 0.0
C410 C 0.54751 0.17292 0.08512 0.0
C411 C 0.5811 0.18309 0.12765 0.0
C412 C 0.60051 0.22499 0.14885 0.0
C413 C 0.5694 0.15662 0.18309 0.0
C414 C 0.60566 0.17588 0.08446 0.0
C415 C 0.58814 0.16269 0.02727 0.0
C416 C 0.60603 0.15632 0.97834 0.0
C417 C 0.64299 0.16388 0.98794 0.0
C418 C 0.66169 0.17776 0.04597 0.0
C419 C 0.64254 0.18331 0.09504 0.0
H420 H 0.45548 0.66168 0.10563 0.0
H421 H 0.48637 0.66171 0.91461 0.0
H422 H 0.43144 0.59742 0.89876 0.0
H423 H 0.41828 0.55976 0.1325 0.0
H424 H 0.38061 0.55612 0.17923 0.0
H425 H 0.42483 0.60017 0.17754 0.0
H426 H 0.38939 0.63517 0.14492 0.0
H427 H 0.34515 0.59131 0.14622 0.0
H428 H 0.35888 0.61889 0.0771 0.0
H429 H 0.37039 0.5363 0.90089 0.0
H430 H 0.30712 0.48231 0.92061 0.0
H431 H 0.31593 0.52234 0.11025 0.0
C432 C 0.45117 0.64787 0.0608 0.0
C433 C 0.47524 0.66657 1.0114 0.0
C434 C 0.46829 0.64783 0.95314 0.0
C435 C 0.43726 0.61129 0.94375 0.0
C436 C 0.41365 0.59396 0.99312 0.0
C437 C 0.42029 0.61154 0.05057 0.0
C438 C 0.38907 0.58801 0.09456 0.0
C439 C 0.40411 0.57526 0.14918 0.0
C440 C 0.36947 0.60964 0.11697 0.0
C441 C 0.36333 0.55486 0.05238 0.0
C442 C 0.37822 0.55866 0.99428 0.0
C443 C 0.35864 0.53272 0.9464 0.0
C444 C 0.32268 0.50224 0.95804 0.0
C445 C 0.30668 0.4981 0.01703 0.0
C446 C 0.32759 0.52452 0.06491 0.0
H447 H 0.78233 0.46227 0.98245 0.0
H448 H 0.83843 0.50936 0.1597 0.0
H449 H 0.85278 0.45778 0.16919 0.0
H450 H 0.73688 0.36899 0.02566 0.0
H451 H 0.74115 0.34927 0.95335 0.0
H452 H 0.74095 0.39326 0.95459 0.0
H453 H 0.80502 0.4262 0.89943 0.0
H454 H 0.80537 0.38215 0.89784 0.0
H455 H 0.84462 0.42416 0.9323 0.0
H456 H 0.85316 0.39778 0.1675 0.0
H457 H 0.83938 0.33192 0.15478 0.0
H458 H 0.7835 0.32247 0.97826 0.0
C459 C 0.79857 0.46225 0.02234 0.0
C460 C 0.80946 0.48984 0.07021 0.0
C461 C 0.82984 0.48846 0.1225 0.0
C462 C 0.83834 0.45943 0.12813 0.0
C463 C 0.82637 0.43207 0.08101 0.0
C464 C 0.80706 0.4332 0.02894 0.0
C465 C 0.79393 0.39801 0.98842 0.0
C466 C 0.75067 0.3761 0.98007 0.0
C467 C 0.81341 0.40825 0.92578 0.0
C468 C 0.80753 0.37631 0.02722 0.0
C469 C 0.82668 0.39686 0.07993 0.0
C470 C 0.83893 0.38167 0.12586 0.0
C471 C 0.8308 0.34422 0.11838 0.0
C472 C 0.81068 0.3224 0.06535 0.0
C473 C 0.79968 0.33893 0.01852 0.0
H474 H 0.31028 0.78797 0.08966 0.0
H475 H 0.30984 0.82197 0.90045 0.0
H476 H 0.37447 0.83359 0.88863 0.0
H477 H 0.41129 0.85466 0.12555 0.0
H478 H 0.4163 0.82035 0.17026 0.0
H479 H 0.37161 0.81889 0.16652 0.0
H480 H 0.33887 0.7489 0.12778 0.0
H481 H 0.38337 0.75016 0.13134 0.0
H482 H 0.35609 0.73688 0.06005 0.0
H483 H 0.4361 0.83598 0.89366 0.0
H484 H 0.49092 0.82798 0.91477 0.0
H485 H 0.45182 0.79223 0.10062 0.0
C486 C 0.32411 0.7986 0.0462 0.0
C487 C 0.30517 0.80425 0.99606 0.0
C488 C 0.32386 0.81746 0.93948 0.0
C489 C 0.36063 0.82432 0.93239 0.0
C490 C 0.3783 0.81788 0.98231 0.0
C491 C 0.36077 0.80535 0.03816 0.0
C492 C 0.38495 0.7978 0.08274 0.0
C493 C 0.39674 0.82453 0.13963 0.0
C494 C 0.3646 0.75595 0.10154 0.0
C495 C 0.41838 0.8072 0.04265 0.0
C496 C 0.4141 0.81911 0.98515 0.0
C497 C 0.44008 0.82719 0.93877 0.0
C498 C 0.47105 0.82245 0.95116 0.0
C499 C 0.4757 0.80966 1.00942 0.0
C500 C 0.44931 0.80259 0.05599 0.0
H501 H 0.65226 0.46235 0.98893 0.0
H502 H 0.66158 0.49494 0.18288 0.0
H503 H 0.59815 0.44044 0.1996 0.0
H504 H 0.54986 0.426 0.969 0.0
H505 H 0.54317 0.3874 0.91892 0.0
H506 H 0.58752 0.43142 0.92039 0.0
H507 H 0.62273 0.39508 0.94567 0.0
H508 H 0.57858 0.35104 0.94435 0.0
H509 H 0.60923 0.36495 1.01187 0.0
H510 H 0.53705 0.37999 0.1978 0.0
H511 H 0.48199 0.31646 0.17797 0.0
H512 H 0.51185 0.32259 0.98513 0.0
C513 C 0.64064 0.45844 0.03464 0.0
C514 C 0.66174 0.48294 0.08457 0.0
C515 C 0.64588 0.47652 0.14395 0.0
C516 C 0.60982 0.44576 0.15387 0.0
C517 C 0.59 0.42179 0.10392 0.0
C518 C 0.60474 0.42775 0.04544 0.0
C519 C 0.57876 0.39609 1.00085 0.0
C520 C 0.56395 0.41114 0.94924 0.0
C521 C 0.59851 0.37559 0.97415 0.0
C522 C 0.54759 0.37095 0.04384 0.0
C523 C 0.55449 0.38656 0.1029 0.0
C524 C 0.53103 0.36765 0.15161 0.0
C525 C 0.49992 0.33154 0.13989 0.0
C526 C 0.49261 0.31469 0.07996 0.0
C527 C 0.51644 0.335 0.03117 0.0
H528 H 0.14699 0.37539 0.6647 0.0
H529 H 0.26256 0.45747 0.71866 0.0
H530 H 0.27731 0.4749 0.60988 0.0
H531 H 0.16922 0.34386 0.52448 0.0
H532 H 0.1288 0.33842 0.48129 0.0
H533 H 0.12663 0.33314 0.56384 0.0
H534 H 0.10775 0.38477 0.57419 0.0
H535 H 0.10997 0.39027 0.49162 0.0
H536 H 0.13746 0.4308 0.54208 0.0
H537 H 0.28027 0.48315 0.49613 0.0
H538 H 0.27179 0.48021 0.38292 0.0
H539 H 0.15469 0.3921 0.40022 0.0
C540 C 0.17529 0.3972 0.65352 0.0
C541 C 0.20371 0.41488 0.70021 0.0
C542 C 0.2405 0.4431 0.68367 0.0
C543 C 0.2491 0.45342 0.62203 0.0
C544 C 0.22064 0.43532 0.57714 0.0
C545 C 0.1845 0.40773 0.59184 0.0
C546 C 0.15963 0.39195 0.53401 0.0
C547 C 0.14523 0.34932 0.52541 0.0
C548 C 0.12675 0.39994 0.53559 0.0
C549 C 0.18754 0.41487 0.4847 0.0
C550 C 0.22248 0.43985 0.51084 0.0
C551 C 0.25306 0.46366 0.47505 0.0
C552 C 0.248 0.46161 0.4107 0.0
C553 C 0.21266 0.43579 0.38244 0.0
C554 C 0.18195 0.41243 0.4203 0.0
H555 H 0.79773 0.24851 0.69863 0.0
H556 H 0.76131 0.12995 0.72756 0.0
H557 H 0.75773 0.11881 0.61495 0.0
H558 H 0.73856 0.23419 0.56861 0.0
H559 H 0.77261 0.2753 0.52808 0.0
H560 H 0.77464 0.27487 0.61117 0.0
H561 H 0.84395 0.28983 0.60819 0.0
H562 H 0.8422 0.2905 0.52502 0.0
H563 H 0.85534 0.25961 0.56316 0.0
H564 H 0.7546 0.11934 0.50053 0.0
H565 H 0.75377 0.1319 0.38962 0.0
H566 H 0.79285 0.25028 0.4331 0.0
C567 C 0.78963 0.22038 0.6812 0.0
C568 C 0.77956 0.19003 0.72186 0.0
C569 C 0.7686 0.15349 0.69727 0.0
C570 C 0.7667 0.14692 0.63341 0.0
C571 C 0.77609 0.17722 0.59463 0.0
C572 C 0.78758 0.21329 0.61736 0.0
C573 C 0.7949 0.24051 0.56519 0.0
C574 C 0.7686 0.25719 0.56848 0.0
C575 C 0.83658 0.27197 0.56541 0.0
C576 C 0.78513 0.21389 0.50976 0.0
C577 C 0.77449 0.17757 0.52798 0.0
C578 C 0.76305 0.14769 0.48559 0.0
C579 C 0.76239 0.15505 0.42277 0.0
C580 C 0.77305 0.192 0.40281 0.0
C581 C 0.78487 0.22184 0.44701 0.0
H582 H 0.59314 0.82682 0.66304 0.0
H583 H 0.51227 0.70963 0.70286 0.0
H584 H 0.49659 0.696 0.59182 0.0
H585 H 0.5388 0.83668 0.53696 0.0
H586 H 0.57969 0.86554 0.49169 0.0
H587 H 0.58391 0.8668 0.57477 0.0
H588 H 0.63646 0.84938 0.56741 0.0
H589 H 0.63247 0.84818 0.48439 0.0
H590 H 0.6273 0.80737 0.52441 0.0
H591 H 0.49029 0.69429 0.47745 0.0
H592 H 0.49516 0.70417 0.36514 0.0
H593 H 0.58053 0.82223 0.39738 0.0
C594 C 0.57192 0.79841 0.6483 0.0
C595 C 0.5541 0.76921 0.69159 0.0
C596 C 0.52672 0.73229 0.67049 0.0
C597 C 0.51739 0.72432 0.60755 0.0
C598 C 0.53561 0.75356 0.56609 0.0
C599 C 0.56236 0.78985 0.58535 0.0
C600 C 0.57854 0.81567 0.53061 0.0
C601 C 0.56969 0.84809 0.53371 0.0
C602 C 0.62122 0.83104 0.52647 0.0
C603 C 0.55691 0.78808 0.47773 0.0
C604 C 0.53214 0.7525 0.49946 0.0
C605 C 0.50957 0.72202 0.45979 0.0
C606 C 0.5127 0.72787 0.39605 0.0
C607 C 0.53836 0.76389 0.37239 0.0
C608 C 0.56038 0.79448 0.41403 0.0
H609 H 0.75028 0.59118 0.69993 0.0
H610 H 0.78395 0.50745 0.73318 0.0
H611 H 0.79011 0.50131 0.6212 0.0
H612 H 0.69605 0.54706 0.55565 0.0
H613 H 0.71104 0.592 0.51996 0.0
H614 H 0.70697 0.58823 0.60268 0.0
H615 H 0.77647 0.64219 0.61617 0.0
H616 H 0.78085 0.64593 0.53357 0.0
H617 H 0.81315 0.63767 0.579 0.0
H618 H 0.79637 0.50672 0.5074 0.0
H619 H 0.79973 0.52135 0.39677 0.0
H620 H 0.76182 0.60146 0.4353 0.0
C621 C 0.75824 0.57106 0.68343 0.0
C622 C 0.76682 0.54991 0.72526 0.0
C623 C 0.77769 0.52426 0.70201 0.0
C624 C 0.78111 0.52045 0.63849 0.0
C625 C 0.77337 0.54233 0.59861 0.0
C626 C 0.76187 0.56692 0.6199 0.0
C627 C 0.75654 0.58795 0.56689 0.0
C628 C 0.71519 0.57822 0.56095 0.0
C629 C 0.78336 0.63098 0.57438 0.0
C630 C 0.76735 0.57166 0.51279 0.0
C631 C 0.77688 0.54536 0.53231 0.0
C632 C 0.78882 0.52715 0.49143 0.0
C633 C 0.79096 0.53591 0.42875 0.0
C634 C 0.78125 0.5627 0.40738 0.0
C635 C 0.76914 0.58065 0.45015 0.0
H636 H 0.17465 0.73234 0.37207 0.0
H637 H 0.21186 0.85044 0.33689 0.0
H638 H 0.2108 0.8625 0.44841 0.0
H639 H 0.11165 0.72153 0.49808 0.0
H640 H 0.12357 0.69148 0.54181 0.0
H641 H 0.12555 0.69143 0.45871 0.0
H642 H 0.19524 0.70757 0.46603 0.0
H643 H 0.19345 0.70762 0.54905 0.0
H644 H 0.229 0.74874 0.51044 0.0
H645 H 0.20782 0.86264 0.56269 0.0
H646 H 0.20443 0.85117 0.67453 0.0
H647 H 0.1694 0.73305 0.6374 0.0
C648 C 0.18215 0.7606 0.38789 0.0
C649 C 0.19354 0.79052 0.34587 0.0
C650 C 0.20359 0.82724 0.36834 0.0
C651 C 0.20279 0.83431 0.43152 0.0
C652 C 0.19177 0.80436 0.47173 0.0
C653 C 0.18164 0.76823 0.45103 0.0
C654 C 0.17227 0.74151 0.5046 0.0
C655 C 0.13079 0.7096 0.50054 0.0
C656 C 0.1991 0.72543 0.5077 0.0
C657 C 0.17922 0.76845 0.55854 0.0
C658 C 0.19019 0.80447 0.53831 0.0
C659 C 0.1992 0.83456 0.57918 0.0
C660 C 0.1974 0.8278 0.64259 0.0
C661 C 0.18686 0.79129 0.66463 0.0
C662 C 0.17717 0.76114 0.62187 0.0
H663 H 0.43079 0.24692 0.6915 0.0
H664 H 0.34487 0.13101 0.72827 0.0
H665 H 0.33479 0.11675 0.61645 0.0
H666 H 0.38415 0.25713 0.55196 0.0
H667 H 0.428 0.28496 0.513 0.0
H668 H 0.42693 0.28695 0.5961 0.0
H669 H 0.47869 0.26833 0.60365 0.0
H670 H 0.47973 0.26603 0.52067 0.0
H671 H 0.47109 0.2255 0.56529 0.0
H672 H 0.33648 0.11355 0.50209 0.0
H673 H 0.34805 0.12244 0.39046 0.0
H674 H 0.43268 0.24038 0.42603 0.0
C675 C 0.40941 0.21878 0.67584 0.0
C676 C 0.38877 0.18999 0.71852 0.0
C677 C 0.36135 0.15334 0.69636 0.0
C678 C 0.35528 0.145 0.63296 0.0
C679 C 0.37668 0.17366 0.59213 0.0
C680 C 0.40299 0.2099 0.61242 0.0
C681 C 0.42302 0.235 0.5584 0.0
C682 C 0.41504 0.26796 0.55465 0.0
C683 C 0.46566 0.24956 0.56226 0.0
C684 C 0.40423 0.20699 0.50489 0.0
C685 C 0.37753 0.17183 0.52553 0.0
C686 C 0.35717 0.141 0.48524 0.0
C687 C 0.36417 0.14624 0.42198 0.0
C688 C 0.39134 0.18203 0.39954 0.0
C689 C 0.41148 0.21279 0.44174 0.0
loop_
_geom_bond_atom_site_label_1
_geom_bond_atom_site_label_2
_geom_bond_distance
_geom_bond_site_symmetry_2
_ccdc_geom_bond_type
C0 O16 1.251 . S
C0 O18 1.254 1_554 S
N1 C2 1.333 . S
N1 C6 1.307 . S
N1 Zn7 2.020 . S
C2 N1 1.333 . S
C2 C3 1.379 . S
C2 H20 0.952 . S
C3 C2 1.379 . S
C3 C4 1.390 . S
C3 H30 0.949 . S
C4 C3 1.390 . S
C4 C5 1.357 . S
C5 C4 1.357 . S
C5 C6 1.370 . S
C5 H31 0.950 . S
C6 N1 1.307 . S
C6 C5 1.370 . S
C6 H24 0.948 . S
Zn7 N1 2.020 . S
Zn7 O16 2.039 . S
Zn7 O22 2.034 . S
Zn7 O26 2.025 . S
Zn7 O28 2.024 . S
C8 O27 1.246 1_554 S
C8 O28 1.249 . S
N9 C10 1.307 . S
N9 C11 1.333 . S
N9 Zn15 2.020 . S
C10 N9 1.307 . S
C10 C14 1.370 . S
C10 H21 0.948 . S
C11 N9 1.333 . S
C11 C12 1.379 . S
C11 H19 0.952 . S
C12 C11 1.379 . S
C12 C13 1.390 . S
C12 H32 0.949 . S
C13 C12 1.390 . S
C13 C14 1.357 . S
C14 C10 1.370 . S
C14 C13 1.357 . S
C14 H33 0.950 . S
Zn15 N9 2.020 . S
Zn15 O18 2.025 . S
Zn15 O23 2.024 . S
Zn15 O25 2.039 . S
Zn15 O27 2.034 . S
O16 C0 1.251 . S
O16 Zn7 2.039 . S
C17 O22 1.246 . S
C17 O23 1.249 1_554 S
O18 C0 1.254 1_556 S
O18 Zn15 2.025 . S
H19 C11 0.952 . S
H20 C2 0.952 . S
H21 C10 0.948 . S
O22 Zn7 2.034 . S
O22 C17 1.246 . S
O23 Zn15 2.024 . S
O23 C17 1.249 1_556 S
H24 C6 0.948 . S
O25 Zn15 2.039 . S
O25 C29 1.251 1_556 S
O26 Zn7 2.025 . S
O26 C29 1.254 . S
O27 C8 1.246 1_556 S
O27 Zn15 2.034 . S
O28 Zn7 2.024 . S
O28 C8 1.249 . S
C29 O25 1.251 1_554 S
C29 O26 1.254 . S
H30 C3 0.949 . S
H31 C5 0.950 . S
H32 C12 0.949 . S
H33 C14 0.950 . S
C34 O50 1.251 1_554 S
C34 O52 1.254 . S
N35 C36 1.333 . S
N35 C40 1.307 . S
N35 Zn41 2.020 . S
C36 N35 1.333 . S
C36 C37 1.379 . S
C36 H54 0.952 . S
C37 C36 1.379 . S
C37 C38 1.390 . S
C37 H64 0.949 . S
C38 C37 1.390 . S
C38 C39 1.357 . S
C39 C38 1.357 . S
C39 C40 1.370 . S
C39 H65 0.950 . S
C40 N35 1.307 . S
C40 C39 1.370 . S
C40 H58 0.948 . S
Zn41 N35 2.020 . S
Zn41 O50 2.039 . S
Zn41 O56 2.034 . S
Zn41 O60 2.025 . S
Zn41 O62 2.024 . S
C42 O61 1.246 . S
C42 O62 1.249 1_554 S
N43 C44 1.307 . S
N43 C45 1.333 . S
N43 Zn49 2.020 . S
C44 N43 1.307 . S
C44 C48 1.370 . S
C44 H55 0.948 . S
C45 N43 1.333 . S
C45 C46 1.379 . S
C45 H53 0.952 . S
C46 C45 1.379 . S
C46 C47 1.390 . S
C46 H66 0.949 . S
C47 C46 1.390 . S
C47 C48 1.357 . S
C48 C44 1.370 . S
C48 C47 1.357 . S
C48 H67 0.950 . S
Zn49 N43 2.020 . S
Zn49 O52 2.025 . S
Zn49 O57 2.024 . S
Zn49 O59 2.039 . S
Zn49 O61 2.034 . S
O50 C34 1.251 1_556 S
O50 Zn41 2.039 . S
C51 O56 1.246 1_554 S
C51 O57 1.249 . S
O52 C34 1.254 . S
O52 Zn49 2.025 . S
H53 C45 0.952 . S
H54 C36 0.952 . S
H55 C44 0.948 . S
O56 Zn41 2.034 . S
O56 C51 1.246 1_556 S
O57 Zn49 2.024 . S
O57 C51 1.249 . S
H58 C40 0.948 . S
O59 Zn49 2.039 . S
O59 C63 1.251 . S
O60 Zn41 2.025 . S
O60 C63 1.254 1_556 S
O61 C42 1.246 . S
O61 Zn49 2.034 . S
O62 Zn41 2.024 . S
O62 C42 1.249 1_556 S
C63 O59 1.251 . S
C63 O60 1.254 1_554 S
H64 C37 0.949 . S
H65 C39 0.950 . S
H66 C46 0.949 . S
H67 C48 0.950 . S
C68 O84 1.251 . S
C68 O86 1.254 1_554 S
N69 C70 1.333 . S
N69 C74 1.307 . S
N69 Zn75 2.020 . S
C70 N69 1.333 . S
C70 C71 1.379 . S
C70 H88 0.952 . S
C71 C70 1.379 . S
C71 C72 1.390 . S
C71 H98 0.949 . S
C72 C71 1.390 . S
C72 C73 1.357 . S
C73 C72 1.357 . S
C73 C74 1.370 . S
C73 H99 0.950 . S
C74 N69 1.307 . S
C74 C73 1.370 . S
C74 H92 0.948 . S
Zn75 N69 2.020 . S
Zn75 O84 2.039 . S
Zn75 O90 2.034 . S
Zn75 O94 2.025 . S
Zn75 O96 2.024 . S
C76 O95 1.246 1_554 S
C76 O96 1.249 . S
N77 C78 1.307 . S
N77 C79 1.333 . S
N77 Zn83 2.020 . S
C78 N77 1.307 . S
C78 C82 1.370 . S
C78 H89 0.948 . S
C79 N77 1.333 . S
C79 C80 1.379 . S
C79 H87 0.952 . S
C80 C79 1.379 . S
C80 C81 1.390 . S
C80 H100 0.949 . S
C81 C80 1.390 . S
C81 C82 1.357 . S
C82 C78 1.370 . S
C82 C81 1.357 . S
C82 H101 0.950 . S
Zn83 N77 2.020 . S
Zn83 O86 2.025 . S
Zn83 O91 2.024 . S
Zn83 O93 2.039 . S
Zn83 O95 2.034 . S
O84 C68 1.251 . S
O84 Zn75 2.039 . S
C85 O90 1.246 . S
C85 O91 1.249 1_554 S
O86 C68 1.254 1_556 S
O86 Zn83 2.025 . S
H87 C79 0.952 . S
H88 C70 0.952 . S
H89 C78 0.948 . S
O90 Zn75 2.034 . S
O90 C85 1.246 . S
O91 Zn83 2.024 . S
O91 C85 1.249 1_556 S
H92 C74 0.948 . S
O93 Zn83 2.039 . S
O93 C97 1.251 1_556 S
O94 Zn75 2.025 . S
O94 C97 1.254 . S
O95 C76 1.246 1_556 S
O95 Zn83 2.034 . S
O96 Zn75 2.024 . S
O96 C76 1.249 . S
C97 O93 1.251 1_554 S
C97 O94 1.254 . S
H98 C71 0.949 . S
H99 C73 0.950 . S
H100 C80 0.949 . S
H101 C82 0.950 . S
C102 O118 1.251 1_554 S
C102 O120 1.254 . S
N103 C104 1.333 . S
N103 C108 1.307 . S
N103 Zn109 2.020 . S
C104 N103 1.333 . S
C104 C105 1.379 . S
C104 H122 0.952 . S
C105 C104 1.379 . S
C105 C106 1.390 . S
C105 H132 0.949 . S
C106 C105 1.390 . S
C106 C107 1.357 . S
C107 C106 1.357 . S
C107 C108 1.370 . S
C107 H133 0.950 . S
C108 N103 1.307 . S
C108 C107 1.370 . S
C108 H126 0.948 . S
Zn109 N103 2.020 . S
Zn109 O118 2.039 . S
Zn109 O124 2.034 . S
Zn109 O128 2.025 . S
Zn109 O130 2.024 . S
C110 O129 1.246 . S
C110 O130 1.249 1_554 S
N111 C112 1.307 . S
N111 C113 1.333 . S
N111 Zn117 2.020 . S
C112 N111 1.307 . S
C112 C116 1.370 . S
C112 H123 0.948 . S
C113 N111 1.333 . S
C113 C114 1.379 . S
C113 H121 0.952 . S
C114 C113 1.379 . S
C114 C115 1.390 . S
C114 H134 0.949 . S
C115 C114 1.390 . S
C115 C116 1.357 . S
C116 C112 1.370 . S
C116 C115 1.357 . S
C116 H135 0.950 . S
Zn117 N111 2.020 . S
Zn117 O120 2.025 . S
Zn117 O125 2.024 . S
Zn117 O127 2.039 . S
Zn117 O129 2.034 . S
O118 C102 1.251 1_556 S
O118 Zn109 2.039 . S
C119 O124 1.246 1_554 S
C119 O125 1.249 . S
O120 C102 1.254 . S
O120 Zn117 2.025 . S
H121 C113 0.952 . S
H122 C104 0.952 . S
H123 C112 0.948 . S
O124 Zn109 2.034 . S
O124 C119 1.246 1_556 S
O125 Zn117 2.024 . S
O125 C119 1.249 . S
H126 C108 0.948 . S
O127 Zn117 2.039 . S
O127 C131 1.251 . S
O128 Zn109 2.025 . S
O128 C131 1.254 1_556 S
O129 C110 1.246 . S
O129 Zn117 2.034 . S
O130 Zn109 2.024 . S
O130 C110 1.249 1_556 S
C131 O127 1.251 . S
C131 O128 1.254 1_554 S
H132 C105 0.949 . S
H133 C107 0.950 . S
H134 C114 0.949 . S
H135 C116 0.950 . S
C136 O152 1.251 1_554 S
C136 O154 1.254 . S
N137 C138 1.333 . S
N137 C142 1.307 . S
N137 Zn143 2.020 . S
C138 N137 1.333 . S
C138 C139 1.379 . S
C138 H156 0.952 . S
C139 C138 1.379 . S
C139 C140 1.390 . S
C139 H166 0.949 . S
C140 C139 1.390 . S
C140 C141 1.357 . S
C141 C140 1.357 . S
C141 C142 1.370 . S
C141 H167 0.950 . S
C142 N137 1.307 . S
C142 C141 1.370 . S
C142 H160 0.948 . S
Zn143 N137 2.020 . S
Zn143 O152 2.039 . S
Zn143 O158 2.034 . S
Zn143 O162 2.025 . S
Zn143 O164 2.024 . S
C144 O163 1.246 . S
C144 O164 1.249 1_554 S
N145 C146 1.307 . S
N145 C147 1.333 . S
N145 Zn151 2.020 . S
C146 N145 1.307 . S
C146 C150 1.370 . S
C146 H157 0.948 . S
C147 N145 1.333 . S
C147 C148 1.379 . S
C147 H155 0.952 . S
C148 C147 1.379 . S
C148 C149 1.390 . S
C148 H168 0.949 . S
C149 C148 1.390 . S
C149 C150 1.357 . S
C150 C146 1.370 . S
C150 C149 1.357 . S
C150 H169 0.950 . S
Zn151 N145 2.020 . S
Zn151 O154 2.025 . S
Zn151 O159 2.024 . S
Zn151 O161 2.039 . S
Zn151 O163 2.034 . S
O152 C136 1.251 1_556 S
O152 Zn143 2.039 . S
C153 O158 1.246 1_554 S
C153 O159 1.249 . S
O154 C136 1.254 . S
O154 Zn151 2.025 . S
H155 C147 0.952 . S
H156 C138 0.952 . S
H157 C146 0.948 . S
O158 Zn143 2.034 . S
O158 C153 1.246 1_556 S
O159 Zn151 2.024 . S
O159 C153 1.249 . S
H160 C142 0.948 . S
O161 Zn151 2.039 . S
O161 C165 1.251 . S
O162 Zn143 2.025 . S
O162 C165 1.254 1_556 S
O163 C144 1.246 . S
O163 Zn151 2.034 . S
O164 Zn143 2.024 . S
O164 C144 1.249 1_556 S
C165 O161 1.251 . S
C165 O162 1.254 1_554 S
H166 C139 0.949 . S
H167 C141 0.950 . S
H168 C148 0.949 . S
H169 C150 0.950 . S
C170 O186 1.251 . S
C170 O188 1.254 1_554 S
N171 C172 1.333 . S
N171 C176 1.307 . S
N171 Zn177 2.020 . S
C172 N171 1.333 . S
C172 C173 1.379 . S
C172 H190 0.952 . S
C173 C172 1.379 . S
C173 C174 1.390 . S
C173 H200 0.949 . S
C174 C173 1.390 . S
C174 C175 1.357 . S
C175 C174 1.357 . S
C175 C176 1.370 . S
C175 H201 0.950 . S
C176 N171 1.307 . S
C176 C175 1.370 . S
C176 H194 0.948 . S
Zn177 N171 2.020 . S
Zn177 O186 2.039 . S
Zn177 O192 2.034 . S
Zn177 O196 2.025 . S
Zn177 O198 2.024 . S
C178 O197 1.246 1_554 S
C178 O198 1.249 . S
N179 C180 1.307 . S
N179 C181 1.333 . S
N179 Zn185 2.020 . S
C180 N179 1.307 . S
C180 C184 1.370 . S
C180 H191 0.948 . S
C181 N179 1.333 . S
C181 C182 1.379 . S
C181 H189 0.952 . S
C182 C181 1.379 . S
C182 C183 1.390 . S
C182 H202 0.949 . S
C183 C182 1.390 . S
C183 C184 1.357 . S
C184 C180 1.370 . S
C184 C183 1.357 . S
C184 H203 0.950 . S
Zn185 N179 2.020 . S
Zn185 O188 2.025 . S
Zn185 O193 2.024 . S
Zn185 O195 2.039 . S
Zn185 O197 2.034 . S
O186 C170 1.251 . S
O186 Zn177 2.039 . S
C187 O192 1.246 . S
C187 O193 1.249 1_554 S
O188 C170 1.254 1_556 S
O188 Zn185 2.025 . S
H189 C181 0.952 . S
H190 C172 0.952 . S
H191 C180 0.948 . S
O192 Zn177 2.034 . S
O192 C187 1.246 . S
O193 Zn185 2.024 . S
O193 C187 1.249 1_556 S
H194 C176 0.948 . S
O195 Zn185 2.039 . S
O195 C199 1.251 1_556 S
O196 Zn177 2.025 . S
O196 C199 1.254 . S
O197 C178 1.246 1_556 S
O197 Zn185 2.034 . S
O198 Zn177 2.024 . S
O198 C178 1.249 . S
C199 O195 1.251 1_554 S
C199 O196 1.254 . S
H200 C173 0.949 . S
H201 C175 0.950 . S
H202 C182 0.949 . S
H203 C184 0.950 . S
H204 C216 0.930 . S
H205 C218 0.930 . S
H206 C219 0.930 . S
H207 C223 0.959 . S
H208 C223 0.959 . S
H209 C223 0.961 . S
H210 C224 0.960 . S
H211 C224 0.961 . S
H212 C224 0.959 . S
H213 C227 0.929 . S
H214 C228 0.931 . S
H215 C230 0.930 . S
C216 H204 0.930 . S
C216 C217 1.399 1_556 S
C216 C221 1.399 1_556 S
C217 C216 1.399 1_554 S
C217 C218 1.376 . S
C218 H205 0.930 . S
C218 C217 1.376 . S
C218 C219 1.388 . S
C219 H206 0.930 . S
C219 C218 1.388 . S
C219 C220 1.390 . S
C220 C219 1.390 . S
C220 C221 1.394 . S
C220 C226 1.465 . S
C221 C216 1.399 1_554 S
C221 C220 1.394 . S
C221 C222 1.516 1_554 S
C222 C221 1.516 1_556 S
C222 C223 1.502 . S
C222 C224 1.561 . S
C222 C225 1.534 . S
C223 H207 0.959 . S
C223 H208 0.959 . S
C223 H209 0.961 . S
C223 C222 1.502 . S
C224 H210 0.960 . S
C224 H211 0.961 . S
C224 H212 0.959 . S
C224 C222 1.561 . S
C225 C222 1.534 . S
C225 C226 1.384 1_556 S
C225 C230 1.392 . S
C226 C220 1.465 . S
C226 C225 1.384 1_554 S
C226 C227 1.399 . S
C227 H213 0.929 . S
C227 C226 1.399 . S
C227 C228 1.385 . S
C228 H214 0.931 . S
C228 C227 1.385 . S
C228 C229 1.389 . S
C229 C228 1.389 . S
C229 C230 1.387 1_554 S
C230 H215 0.930 . S
C230 C225 1.392 . S
C230 C229 1.387 1_556 S
H231 C243 0.930 . S
H232 C245 0.930 . S
H233 C246 0.930 . S
H234 C250 0.959 . S
H235 C250 0.959 . S
H236 C250 0.961 1_455 S
H237 C251 0.960 1_455 S
H238 C251 0.961 . S
H239 C251 0.959 . S
H240 C254 0.929 . S
H241 C255 0.931 . S
H242 C257 0.930 . S
C243 H231 0.930 . S
C243 C244 1.399 1_556 S
C243 C248 1.399 1_556 S
C244 C243 1.399 1_554 S
C244 C245 1.376 . S
C245 H232 0.930 . S
C245 C244 1.376 . S
C245 C246 1.388 . S
C246 H233 0.930 . S
C246 C245 1.388 . S
C246 C247 1.390 . S
C247 C246 1.390 . S
C247 C248 1.394 . S
C247 C253 1.465 1_455 S
C248 C243 1.399 1_554 S
C248 C247 1.394 . S
C248 C249 1.516 1_454 S
C249 C248 1.516 1_656 S
C249 C250 1.502 . S
C249 C251 1.561 . S
C249 C252 1.526 1_556 S
C250 H234 0.959 . S
C250 H235 0.959 . S
C250 H236 0.961 1_655 S
C250 C249 1.502 . S
C251 H237 0.960 1_655 S
C251 H238 0.961 . S
C251 H239 0.959 . S
C251 C249 1.561 . S
C252 C249 1.526 1_554 S
C252 C253 1.396 . S
C252 C257 1.390 1_554 S
C253 C247 1.465 1_655 S
C253 C252 1.396 . S
C253 C254 1.399 . S
C254 H240 0.929 . S
C254 C253 1.399 . S
C254 C255 1.385 . S
C255 H241 0.931 . S
C255 C254 1.385 . S
C255 C256 1.389 . S
C256 C255 1.389 . S
C256 C257 1.387 1_554 S
C257 H242 0.930 . S
C257 C252 1.390 1_556 S
C257 C256 1.387 1_556 S
H258 C270 0.930 . S
H259 C272 0.930 . S
H260 C273 0.930 . S
H261 C277 0.959 . S
H262 C277 0.961 . S
H263 C277 0.958 1_545 S
H264 C278 0.979 . S
H265 C278 0.948 1_565 S
H266 C278 0.946 1_565 S
H267 C281 0.929 . S
H268 C282 0.931 . S
H269 C284 0.930 . S
C270 H258 0.930 . S
C270 C271 1.399 1_556 S
C270 C275 1.398 1_556 S
C271 C270 1.399 1_554 S
C271 C272 1.376 . S
C272 H259 0.930 . S
C272 C271 1.376 . S
C272 C273 1.388 . S
C273 H260 0.930 . S
C273 C272 1.388 . S
C273 C274 1.390 . S
C274 C273 1.390 . S
C274 C275 1.402 . S
C274 C280 1.465 1_545 S
C275 C270 1.398 1_554 S
C275 C274 1.402 . S
C275 C276 1.517 1_554 S
C276 C275 1.517 1_556 S
C276 C277 1.509 1_545 S
C276 C278 1.565 . S
C276 C279 1.517 1_545 S
C277 H261 0.959 . S
C277 H262 0.961 . S
C277 H263 0.958 1_565 S
C277 C276 1.509 1_565 S
C278 H264 0.979 . S
C278 H265 0.948 1_545 S
C278 H266 0.946 1_545 S
C278 C276 1.565 . S
C279 C276 1.517 1_565 S
C279 C280 1.396 1_556 S
C279 C284 1.390 . S
C280 C274 1.465 1_565 S
C280 C279 1.396 1_554 S
C280 C281 1.399 . S
C281 H267 0.929 . S
C281 C280 1.399 . S
C281 C282 1.385 . S
C282 H268 0.931 . S
C282 C281 1.385 . S
C282 C283 1.389 . S
C283 C282 1.389 . S
C283 C284 1.387 1_554 S
C284 H269 0.930 . S
C284 C279 1.390 . S
C284 C283 1.387 1_556 S
H285 C297 0.930 . S
H286 C299 0.930 . S
H287 C300 0.930 . S
H288 C304 0.959 . S
H289 C304 0.959 . S
H290 C304 0.961 . S
H291 C305 0.960 . S
H292 C305 0.961 . S
H293 C305 0.959 . S
H294 C308 0.929 . S
H295 C309 0.931 . S
H296 C311 0.930 . S
C297 H285 0.930 . S
C297 C298 1.399 1_556 S
C297 C302 1.399 1_556 S
C298 C297 1.399 1_554 S
C298 C299 1.376 . S
C299 H286 0.930 . S
C299 C298 1.376 . S
C299 C300 1.388 . S
C300 H287 0.930 . S
C300 C299 1.388 . S
C300 C301 1.390 . S
C301 C300 1.390 . S
C301 C302 1.394 . S
C301 C307 1.465 . S
C302 C297 1.399 1_554 S
C302 C301 1.394 . S
C302 C303 1.516 1_554 S
C303 C302 1.516 1_556 S
C303 C304 1.502 . S
C303 C305 1.561 . S
C303 C306 1.526 1_556 S
C304 H288 0.959 . S
C304 H289 0.959 . S
C304 H290 0.961 . S
C304 C303 1.502 . S
C305 H291 0.960 . S
C305 H292 0.961 . S
C305 H293 0.959 . S
C305 C303 1.561 . S
C306 C303 1.526 1_554 S
C306 C307 1.396 . S
C306 C311 1.390 1_554 S
C307 C301 1.465 . S
C307 C306 1.396 . S
C307 C308 1.399 . S
C308 H294 0.929 . S
C308 C307 1.399 . S
C308 C309 1.385 . S
C309 H295 0.931 . S
C309 C308 1.385 . S
C309 C310 1.389 . S
C310 C309 1.389 . S
C310 C311 1.387 1_554 S
C311 H296 0.930 . S
C311 C306 1.390 1_556 S
C311 C310 1.387 1_556 S
H312 C324 0.930 . S
H313 C326 0.930 . S
H314 C327 0.930 . S
H315 C331 0.959 . S
H316 C331 0.959 1_655 S
H317 C331 0.961 . S
H318 C332 0.960 . S
H319 C332 0.961 1_655 S
H320 C332 0.960 1_655 S
H321 C335 0.929 . S
H322 C336 0.931 . S
H323 C338 0.930 . S
C324 H312 0.930 . S
C324 C325 1.399 . S
C324 C329 1.399 . S
C325 C324 1.399 . S
C325 C326 1.376 1_554 S
C326 H313 0.930 . S
C326 C325 1.376 1_556 S
C326 C327 1.388 . S
C327 H314 0.930 . S
C327 C326 1.388 . S
C327 C328 1.390 1_556 S
C328 C327 1.390 1_554 S
C328 C329 1.394 . S
C328 C334 1.465 1_455 S
C329 C324 1.399 . S
C329 C328 1.394 . S
C329 C330 1.516 . S
C330 C329 1.516 . S
C330 C331 1.502 . S
C330 C332 1.561 . S
C330 C333 1.526 1_455 S
C331 H315 0.959 . S
C331 H316 0.959 1_455 S
C331 H317 0.961 . S
C331 C330 1.502 . S
C332 H318 0.960 . S
C332 H319 0.961 1_455 S
C332 H320 0.960 1_455 S
C332 C330 1.561 . S
C333 C330 1.526 1_655 S
C333 C334 1.396 . S
C333 C338 1.390 . S
C334 C328 1.465 1_655 S
C334 C333 1.396 . S
C334 C335 1.399 1_554 S
C335 H321 0.929 . S
C335 C334 1.399 1_556 S
C335 C336 1.385 . S
C336 H322 0.931 . S
C336 C335 1.385 . S
C336 C337 1.389 1_556 S
C337 C336 1.389 1_554 S
C337 C338 1.387 . S
C338 H323 0.930 . S
C338 C333 1.390 . S
C338 C337 1.387 . S
H339 C351 0.930 . S
H340 C353 0.930 . S
H341 C354 0.930 . S
H342 C358 0.959 . S
H343 C358 0.959 . S
H344 C358 0.961 1_565 S
H345 C359 0.960 1_565 S
H346 C359 0.961 . S
H347 C359 0.959 . S
H348 C362 0.929 . S
H349 C363 0.931 . S
H350 C365 0.930 . S
C351 H339 0.930 . S
C351 C352 1.399 . S
C351 C356 1.399 . S
C352 C351 1.399 . S
C352 C353 1.376 1_554 S
C353 H340 0.930 . S
C353 C352 1.376 1_556 S
C353 C354 1.388 . S
C354 H341 0.930 . S
C354 C353 1.388 . S
C354 C355 1.390 1_556 S
C355 C354 1.390 1_554 S
C355 C356 1.394 . S
C355 C361 1.465 1_565 S
C356 C351 1.399 . S
C356 C355 1.394 . S
C356 C357 1.516 1_565 S
C357 C356 1.516 1_545 S
C357 C358 1.502 . S
C357 C359 1.561 . S
C357 C360 1.526 . S
C358 H342 0.959 . S
C358 H343 0.959 . S
C358 H344 0.961 1_545 S
C358 C357 1.502 . S
C359 H345 0.960 1_545 S
C359 H346 0.961 . S
C359 H347 0.959 . S
C359 C357 1.561 . S
C360 C357 1.526 . S
C360 C361 1.403 . S
C360 C365 1.390 . S
C361 C355 1.465 1_545 S
C361 C360 1.403 . S
C361 C362 1.393 1_554 S
C362 H348 0.929 . S
C362 C361 1.393 1_556 S
C362 C363 1.385 . S
C363 H349 0.931 . S
C363 C362 1.385 . S
C363 C364 1.389 1_556 S
C364 C363 1.389 1_554 S
C364 C365 1.387 . S
C365 H350 0.930 . S
C365 C360 1.390 . S
C365 C364 1.387 . S
H366 C378 0.930 . S
H367 C380 0.930 . S
H368 C381 0.930 . S
H369 C385 0.959 . S
H370 C385 0.959 . S
H371 C385 0.961 . S
H372 C386 0.960 . S
H373 C386 0.961 . S
H374 C386 0.959 . S
H375 C389 0.929 . S
H376 C390 0.931 . S
H377 C392 0.930 . S
C378 H366 0.930 . S
C378 C379 1.399 . S
C378 C383 1.399 . S
C379 C378 1.399 . S
C379 C380 1.376 1_554 S
C380 H367 0.930 . S
C380 C379 1.376 1_556 S
C380 C381 1.388 . S
C381 H368 0.930 . S
C381 C380 1.388 . S
C381 C382 1.393 . S
C382 C381 1.393 . S
C382 C383 1.390 1_556 S
C382 C388 1.465 . S
C383 C378 1.399 . S
C383 C382 1.390 1_554 S
C383 C384 1.516 . S
C384 C383 1.516 . S
C384 C385 1.502 . S
C384 C386 1.561 . S
C384 C387 1.526 . S
C385 H369 0.959 . S
C385 H370 0.959 . S
C385 H371 0.961 . S
C385 C384 1.502 . S
C386 H372 0.960 . S
C386 H373 0.961 . S
C386 H374 0.959 . S
C386 C384 1.561 . S
C387 C384 1.526 . S
C387 C388 1.393 1_554 S
C387 C392 1.390 . S
C388 C382 1.465 . S
C388 C387 1.393 1_556 S
C388 C389 1.401 . S
C389 H375 0.929 . S
C389 C388 1.401 . S
C389 C390 1.385 . S
C390 H376 0.931 . S
C390 C389 1.385 . S
C390 C391 1.389 1_556 S
C391 C390 1.389 1_554 S
C391 C392 1.387 . S
C392 H377 0.930 . S
C392 C387 1.390 . S
C392 C391 1.387 . S
H393 C405 0.930 . S
H394 C407 0.930 . S
H395 C408 0.930 . S
H396 C412 0.959 . S
H397 C412 0.959 . S
H398 C412 0.961 . S
H399 C413 0.960 . S
H400 C413 0.961 . S
H401 C413 0.959 1_556 S
H402 C416 0.929 . S
H403 C417 0.931 . S
H404 C419 0.930 . S
C405 H393 0.930 . S
C405 C406 1.399 . S
C405 C410 1.399 . S
C406 C405 1.399 . S
C406 C407 1.376 1_554 S
C407 H394 0.930 . S
C407 C406 1.376 1_556 S
C407 C408 1.388 . S
C408 H395 0.930 . S
C408 C407 1.388 . S
C408 C409 1.390 1_556 S
C409 C408 1.390 1_554 S
C409 C410 1.394 . S
C409 C415 1.465 . S
C410 C405 1.399 . S
C410 C409 1.394 . S
C410 C411 1.516 . S
C411 C410 1.516 . S
C411 C412 1.502 . S
C411 C413 1.561 . S
C411 C414 1.526 . S
C412 H396 0.959 . S
C412 H397 0.959 . S
C412 H398 0.961 . S
C412 C411 1.502 . S
C413 H399 0.960 . S
C413 H400 0.961 . S
C413 H401 0.959 1_554 S
C413 C411 1.561 . S
C414 C411 1.526 . S
C414 C415 1.396 . S
C414 C419 1.390 . S
C415 C409 1.465 . S
C415 C414 1.396 . S
C415 C416 1.399 1_554 S
C416 H402 0.929 . S
C416 C415 1.399 1_556 S
C416 C417 1.385 . S
C417 H403 0.931 . S
C417 C416 1.385 . S
C417 C418 1.389 1_556 S
C418 C417 1.389 1_554 S
C418 C419 1.387 . S
C419 H404 0.930 . S
C419 C414 1.390 . S
C419 C418 1.387 . S
H420 C432 0.930 . S
H421 C434 0.930 . S
H422 C435 0.930 . S
H423 C439 0.959 . S
H424 C439 0.959 . S
H425 C439 0.961 . S
H426 C440 0.960 . S
H427 C440 0.961 . S
H428 C440 0.959 . S
H429 C443 0.929 . S
H430 C444 0.931 . S
H431 C446 0.930 . S
C432 H420 0.930 . S
C432 C433 1.399 . S
C432 C437 1.399 . S
C433 C432 1.399 . S
C433 C434 1.376 1_554 S
C434 H421 0.930 . S
C434 C433 1.376 1_556 S
C434 C435 1.388 . S
C435 H422 0.930 . S
C435 C434 1.388 . S
C435 C436 1.390 . S
C436 C435 1.390 . S
C436 C437 1.394 1_556 S
C436 C442 1.465 . S
C437 C432 1.399 . S
C437 C436 1.394 1_554 S
C437 C438 1.516 . S
C438 C437 1.516 . S
C438 C439 1.502 . S
C438 C440 1.561 . S
C438 C441 1.526 . S
C439 H423 0.959 . S
C439 H424 0.959 . S
C439 H425 0.961 . S
C439 C438 1.502 . S
C440 H426 0.960 . S
C440 H427 0.961 . S
C440 H428 0.959 . S
C440 C438 1.561 . S
C441 C438 1.526 . S
C441 C442 1.396 1_554 S
C441 C446 1.390 . S
C442 C436 1.465 . S
C442 C441 1.396 1_556 S
C442 C443 1.399 . S
C443 H429 0.929 . S
C443 C442 1.399 . S
C443 C444 1.385 . S
C444 H430 0.931 . S
C444 C443 1.385 . S
C444 C445 1.389 1_556 S
C445 C444 1.389 1_554 S
C445 C446 1.387 . S
C446 H431 0.930 . S
C446 C441 1.390 . S
C446 C445 1.387 . S
H447 C459 0.930 1_556 S
H448 C461 0.930 . S
H449 C462 0.930 . S
H450 C466 0.959 . S
H451 C466 0.959 . S
H452 C466 0.961 . S
H453 C467 0.960 . S
H454 C467 0.961 . S
H455 C467 0.959 . S
H456 C470 0.929 . S
H457 C471 0.931 . S
H458 C473 0.938 . S
C459 H447 0.930 1_554 S
C459 C460 1.399 . S
C459 C464 1.399 . S
C460 C459 1.399 . S
C460 C461 1.376 . S
C461 H448 0.930 . S
C461 C460 1.376 . S
C461 C462 1.388 . S
C462 H449 0.930 . S
C462 C461 1.388 . S
C462 C463 1.390 . S
C463 C462 1.390 . S
C463 C464 1.394 . S
C463 C469 1.465 . S
C464 C459 1.399 . S
C464 C463 1.394 . S
C464 C465 1.516 1_554 S
C465 C464 1.516 1_556 S
C465 C466 1.502 . S
C465 C467 1.561 . S
C465 C468 1.526 1_556 S
C466 H450 0.959 . S
C466 H451 0.959 . S
C466 H452 0.961 . S
C466 C465 1.502 . S
C467 H453 0.960 . S
C467 H454 0.961 . S
C467 H455 0.959 . S
C467 C465 1.561 . S
C468 C465 1.526 1_554 S
C468 C469 1.396 . S
C468 C473 1.388 1_554 S
C469 C463 1.465 . S
C469 C468 1.396 . S
C469 C470 1.399 . S
C470 H456 0.929 . S
C470 C469 1.399 . S
C470 C471 1.385 . S
C471 H457 0.931 . S
C471 C470 1.385 . S
C471 C472 1.389 . S
C472 C471 1.389 . S
C472 C473 1.380 1_554 S
C473 H458 0.938 . S
C473 C468 1.388 1_556 S
C473 C472 1.380 1_556 S
H474 C486 0.930 . S
H475 C488 0.930 . S
H476 C489 0.930 . S
H477 C493 0.959 . S
H478 C493 0.959 . S
H479 C493 0.961 . S
H480 C494 0.960 1_554 S
H481 C494 0.961 1_554 S
H482 C494 0.959 . S
H483 C497 0.929 . S
H484 C498 0.931 . S
H485 C500 0.930 . S
C486 H474 0.930 . S
C486 C487 1.399 . S
C486 C491 1.399 . S
C487 C486 1.399 . S
C487 C488 1.376 1_554 S
C488 H475 0.930 . S
C488 C487 1.376 1_556 S
C488 C489 1.388 . S
C489 H476 0.930 . S
C489 C488 1.388 . S
C489 C490 1.390 . S
C490 C489 1.390 . S
C490 C491 1.394 1_556 S
C490 C496 1.465 . S
C491 C486 1.399 . S
C491 C490 1.394 1_554 S
C491 C492 1.516 . S
C492 C491 1.516 . S
C492 C493 1.502 . S
C492 C494 1.561 1_554 S
C492 C495 1.526 . S
C493 H477 0.959 . S
C493 H478 0.959 . S
C493 H479 0.961 . S
C493 C492 1.502 . S
C494 H480 0.960 1_556 S
C494 H481 0.961 1_556 S
C494 H482 0.959 . S
C494 C492 1.561 1_556 S
C495 C492 1.526 . S
C495 C496 1.396 1_554 S
C495 C500 1.390 . S
C496 C490 1.465 . S
C496 C495 1.396 1_556 S
C496 C497 1.399 . S
C497 H483 0.929 . S
C497 C496 1.399 . S
C497 C498 1.385 . S
C498 H484 0.931 . S
C498 C497 1.385 . S
C498 C499 1.389 1_556 S
C499 C498 1.389 1_554 S
C499 C500 1.387 . S
C500 H485 0.930 . S
C500 C495 1.390 . S
C500 C499 1.387 . S
H501 C513 0.930 . S
H502 C515 0.930 . S
H503 C516 0.930 . S
H504 C520 0.959 . S
H505 C520 0.959 . S
H506 C520 0.961 . S
H507 C521 0.960 . S
H508 C521 0.961 . S
H509 C521 0.959 . S
H510 C524 0.929 . S
H511 C525 0.931 . S
H512 C527 0.930 . S
C513 H501 0.930 . S
C513 C514 1.399 1_556 S
C513 C518 1.399 1_556 S
C514 C513 1.399 1_554 S
C514 C515 1.376 . S
C515 H502 0.930 . S
C515 C514 1.376 . S
C515 C516 1.388 . S
C516 H503 0.930 . S
C516 C515 1.388 . S
C516 C517 1.390 . S
C517 C516 1.390 . S
C517 C518 1.394 . S
C517 C523 1.465 . S
C518 C513 1.399 1_554 S
C518 C517 1.394 . S
C518 C519 1.516 1_554 S
C519 C518 1.516 1_556 S
C519 C520 1.502 . S
C519 C521 1.561 . S
C519 C522 1.526 1_556 S
C520 H504 0.959 . S
C520 H505 0.959 . S
C520 H506 0.961 . S
C520 C519 1.502 . S
C521 H507 0.960 . S
C521 H508 0.961 . S
C521 H509 0.959 . S
C521 C519 1.561 . S
C522 C519 1.526 1_554 S
C522 C523 1.396 . S
C522 C527 1.390 1_554 S
C523 C517 1.465 . S
C523 C522 1.396 . S
C523 C524 1.399 . S
C524 H510 0.929 . S
C524 C523 1.399 . S
C524 C525 1.385 . S
C525 H511 0.931 . S
C525 C524 1.385 . S
C525 C526 1.389 . S
C526 C525 1.389 . S
C526 C527 1.387 1_554 S
C527 H512 0.930 . S
C527 C522 1.390 1_556 S
C527 C526 1.387 1_556 S
H528 C540 0.930 . S
H529 C542 0.930 . S
H530 C543 0.930 . S
H531 C547 0.959 . S
H532 C547 0.959 . S
H533 C547 0.961 . S
H534 C548 0.960 . S
H535 C548 0.961 . S
H536 C548 0.959 . S
H537 C551 0.929 . S
H538 C552 0.931 . S
H539 C554 0.930 . S
C540 H528 0.930 . S
C540 C541 1.399 . S
C540 C545 1.399 . S
C541 C540 1.399 . S
C541 C542 1.376 . S
C542 H529 0.930 . S
C542 C541 1.376 . S
C542 C543 1.388 . S
C543 H530 0.930 . S
C543 C542 1.388 . S
C543 C544 1.390 . S
C544 C543 1.390 . S
C544 C545 1.394 . S
C544 C550 1.465 . S
C545 C540 1.399 . S
C545 C544 1.394 . S
C545 C546 1.516 . S
C546 C545 1.516 . S
C546 C547 1.502 . S
C546 C548 1.561 . S
C546 C549 1.526 . S
C547 H531 0.959 . S
C547 H532 0.959 . S
C547 H533 0.961 . S
C547 C546 1.502 . S
C548 H534 0.960 . S
C548 H535 0.961 . S
C548 H536 0.959 . S
C548 C546 1.561 . S
C549 C546 1.526 . S
C549 C550 1.396 . S
C549 C554 1.390 . S
C550 C544 1.465 . S
C550 C549 1.396 . S
C550 C551 1.399 . S
C551 H537 0.929 . S
C551 C550 1.399 . S
C551 C552 1.385 . S
C552 H538 0.931 . S
C552 C551 1.385 . S
C552 C553 1.389 . S
C553 C552 1.389 . S
C553 C554 1.387 . S
C554 H539 0.930 . S
C554 C549 1.390 . S
C554 C553 1.387 . S
H555 C567 0.930 . S
H556 C569 0.930 . S
H557 C570 0.930 . S
H558 C574 0.959 . S
H559 C574 0.959 . S
H560 C574 0.961 . S
H561 C575 0.960 . S
H562 C575 0.961 . S
H563 C575 0.959 . S
H564 C578 0.929 . S
H565 C579 0.931 . S
H566 C581 0.930 . S
C567 H555 0.930 . S
C567 C568 1.399 . S
C567 C572 1.399 . S
C568 C567 1.399 . S
C568 C569 1.376 . S
C569 H556 0.930 . S
C569 C568 1.376 . S
C569 C570 1.388 . S
C570 H557 0.930 . S
C570 C569 1.388 . S
C570 C571 1.390 . S
C571 C570 1.390 . S
C571 C572 1.394 . S
C571 C577 1.465 . S
C572 C567 1.399 . S
C572 C571 1.394 . S
C572 C573 1.516 . S
C573 C572 1.516 . S
C573 C574 1.502 . S
C573 C575 1.561 . S
C573 C576 1.526 . S
C574 H558 0.959 . S
C574 H559 0.959 . S
C574 H560 0.961 . S
C574 C573 1.502 . S
C575 H561 0.960 . S
C575 H562 0.961 . S
C575 H563 0.959 . S
C575 C573 1.561 . S
C576 C573 1.526 . S
C576 C577 1.396 . S
C576 C581 1.390 . S
C577 C571 1.465 . S
C577 C576 1.396 . S
C577 C578 1.399 . S
C578 H564 0.929 . S
C578 C577 1.399 . S
C578 C579 1.385 . S
C579 H565 0.931 . S
C579 C578 1.385 . S
C579 C580 1.389 . S
C580 C579 1.389 . S
C580 C581 1.387 . S
C581 H566 0.930 . S
C581 C576 1.390 . S
C581 C580 1.387 . S
H582 C594 0.930 . S
H583 C596 0.930 . S
H584 C597 0.930 . S
H585 C601 0.959 . S
H586 C601 0.959 . S
H587 C601 0.961 . S
H588 C602 0.960 . S
H589 C602 0.961 . S
H590 C602 0.959 . S
H591 C605 0.929 . S
H592 C606 0.931 . S
H593 C608 0.930 . S
C594 H582 0.930 . S
C594 C595 1.399 . S
C594 C599 1.399 . S
C595 C594 1.399 . S
C595 C596 1.376 . S
C596 H583 0.930 . S
C596 C595 1.376 . S
C596 C597 1.388 . S
C597 H584 0.930 . S
C597 C596 1.388 . S
C597 C598 1.390 . S
C598 C597 1.390 . S
C598 C599 1.394 . S
C598 C604 1.465 . S
C599 C594 1.399 . S
C599 C598 1.394 . S
C599 C600 1.516 . S
C600 C599 1.516 . S
C600 C601 1.502 . S
C600 C602 1.561 . S
C600 C603 1.526 . S
C601 H585 0.959 . S
C601 H586 0.959 . S
C601 H587 0.961 . S
C601 C600 1.502 . S
C602 H588 0.960 . S
C602 H589 0.961 . S
C602 H590 0.959 . S
C602 C600 1.561 . S
C603 C600 1.526 . S
C603 C604 1.396 . S
C603 C608 1.390 . S
C604 C598 1.465 . S
C604 C603 1.396 . S
C604 C605 1.399 . S
C605 H591 0.929 . S
C605 C604 1.399 . S
C605 C606 1.385 . S
C606 H592 0.931 . S
C606 C605 1.385 . S
C606 C607 1.389 . S
C607 C606 1.389 . S
C607 C608 1.387 . S
C608 H593 0.930 . S
C608 C603 1.390 . S
C608 C607 1.387 . S
H609 C621 0.930 . S
H610 C623 0.930 . S
H611 C624 0.930 . S
H612 C628 0.959 . S
H613 C628 0.959 . S
H614 C628 0.961 . S
H615 C629 0.960 . S
H616 C629 0.961 . S
H617 C629 0.959 . S
H618 C632 0.929 . S
H619 C633 0.931 . S
H620 C635 0.930 . S
C621 H609 0.930 . S
C621 C622 1.399 . S
C621 C626 1.399 . S
C622 C621 1.399 . S
C622 C623 1.376 . S
C623 H610 0.930 . S
C623 C622 1.376 . S
C623 C624 1.388 . S
C624 H611 0.930 . S
C624 C623 1.388 . S
C624 C625 1.390 . S
C625 C624 1.390 . S
C625 C626 1.394 . S
C625 C631 1.465 . S
C626 C621 1.399 . S
C626 C625 1.394 . S
C626 C627 1.516 . S
C627 C626 1.516 . S
C627 C628 1.502 . S
C627 C629 1.561 . S
C627 C630 1.526 . S
C628 H612 0.959 . S
C628 H613 0.959 . S
C628 H614 0.961 . S
C628 C627 1.502 . S
C629 H615 0.960 . S
C629 H616 0.961 . S
C629 H617 0.959 . S
C629 C627 1.561 . S
C630 C627 1.526 . S
C630 C631 1.396 . S
C630 C635 1.390 . S
C631 C625 1.465 . S
C631 C630 1.396 . S
C631 C632 1.399 . S
C632 H618 0.929 . S
C632 C631 1.399 . S
C632 C633 1.385 . S
C633 H619 0.931 . S
C633 C632 1.385 . S
C633 C634 1.389 . S
C634 C633 1.389 . S
C634 C635 1.387 . S
C635 H620 0.930 . S
C635 C630 1.390 . S
C635 C634 1.387 . S
H636 C648 0.930 . S
H637 C650 0.930 . S
H638 C651 0.930 . S
H639 C655 0.959 . S
H640 C655 0.959 . S
H641 C655 0.961 . S
H642 C656 0.960 . S
H643 C656 0.961 . S
H644 C656 0.959 . S
H645 C659 0.929 . S
H646 C660 0.931 . S
H647 C662 0.930 . S
C648 H636 0.930 . S
C648 C649 1.399 . S
C648 C653 1.399 . S
C649 C648 1.399 . S
C649 C650 1.376 . S
C650 H637 0.930 . S
C650 C649 1.376 . S
C650 C651 1.388 . S
C651 H638 0.930 . S
C651 C650 1.388 . S
C651 C652 1.390 . S
C652 C651 1.390 . S
C652 C653 1.394 . S
C652 C658 1.465 . S
C653 C648 1.399 . S
C653 C652 1.394 . S
C653 C654 1.516 . S
C654 C653 1.516 . S
C654 C655 1.502 . S
C654 C656 1.561 . S
C654 C657 1.526 . S
C655 H639 0.959 . S
C655 H640 0.959 . S
C655 H641 0.961 . S
C655 C654 1.502 . S
C656 H642 0.960 . S
C656 H643 0.961 . S
C656 H644 0.959 . S
C656 C654 1.561 . S
C657 C654 1.526 . S
C657 C658 1.396 . S
C657 C662 1.390 . S
C658 C652 1.465 . S
C658 C657 1.396 . S
C658 C659 1.399 . S
C659 H645 0.929 . S
C659 C658 1.399 . S
C659 C660 1.385 . S
C660 H646 0.931 . S
C660 C659 1.385 . S
C660 C661 1.389 . S
C661 C660 1.389 . S
C661 C662 1.387 . S
C662 H647 0.930 . S
C662 C657 1.390 . S
C662 C661 1.387 . S
H663 C675 0.930 . S
H664 C677 0.930 . S
H665 C678 0.930 . S
H666 C682 0.959 . S
H667 C682 0.959 . S
H668 C682 0.961 . S
H669 C683 0.960 . S
H670 C683 0.961 . S
H671 C683 0.959 . S
H672 C686 0.929 . S
H673 C687 0.931 . S
H674 C689 0.930 . S
C675 H663 0.930 . S
C675 C676 1.399 . S
C675 C680 1.399 . S
C676 C675 1.399 . S
C676 C677 1.376 . S
C677 H664 0.930 . S
C677 C676 1.376 . S
C677 C678 1.388 . S
C678 H665 0.930 . S
C678 C677 1.388 . S
C678 C679 1.390 . S
C679 C678 1.390 . S
C679 C680 1.394 . S
C679 C685 1.465 . S
C680 C675 1.399 . S
C680 C679 1.394 . S
C680 C681 1.516 . S
C681 C680 1.516 . S
C681 C682 1.502 . S
C681 C683 1.561 . S
C681 C684 1.526 . S
C682 H666 0.959 . S
C682 H667 0.959 . S
C682 H668 0.961 . S
C682 C681 1.502 . S
C683 H669 0.960 . S
C683 H670 0.961 . S
C683 H671 0.959 . S
C683 C681 1.561 . S
C684 C681 1.526 . S
C684 C685 1.396 . S
C684 C689 1.390 . S
C685 C679 1.465 . S
C685 C684 1.396 . S
C685 C686 1.399 . S
C686 H672 0.929 . S
C686 C685 1.399 . S
C686 C687 1.385 . S
C687 H673 0.931 . S
C687 C686 1.385 . S
C687 C688 1.389 . S
C688 C687 1.389 . S
C688 C689 1.387 . S
C689 H674 0.930 . S
C689 C684 1.390 . S
C689 C688 1.387 . S
C217 C170 1.411 . S
C229 C8 1.387 . S
C244 C0 1.408 . S
C256 C34 1.399 . S
C271 C42 1.400 . S
C283 C76 1.384 . S
C298 C102 1.368 . S
C310 C68 1.378 . S
C325 C165 1.401 . S
C337 C110 1.372 . S
C352 C153 1.353 . S
C364 C178 1.363 . S
C379 C144 1.481 . S
C391 C17 1.476 . S
C406 C199 1.464 . S
C418 C63 1.453 . S
C433 C85 1.462 . S
C445 C29 1.459 . S
C460 C131 1.481 . S
C472 C51 1.471 . S
C487 C136 1.479 . S
C499 C97 1.482 . S
C514 C119 1.469 . S
C526 C187 1.477 . S
C541 C13 1.492 . S
C553 C4 1.490 . S
C568 C38 1.497 . S
C580 C47 1.493 . S
C595 C81 1.484 . S
C607 C72 1.506 . S
C622 C106 1.487 . S
C634 C115 1.511 . S
C649 C149 1.483 . S
C661 C140 1.497 . S
C676 C183 1.510 . S
C688 C174 1.487 . S
