# Generated by pormake.
# Topology umo, (4)-cn, num edge types: 1
# Building blocks:
#     Node 0, Type 0, BuildingBlock: KUFVIS_clean_sbu_0, # of connection points: 4
#     Node 1, Type 0, BuildingBlock: KUFVIS_clean_sbu_0, # of connection points: 4
#     Node 2, Type 0, BuildingBlock: KUFVIS_clean_sbu_0, # of connection points: 4
#     Node 3, Type 0, BuildingBlock: KUFVIS_clean_sbu_0, # of connection points: 4
#     Node 4, Type 0, BuildingBlock: KUFVIS_clean_sbu_0, # of connection points: 4
#     Node 5, Type 0, BuildingBlock: KUFVIS_clean_sbu_0, # of connection points: 4
#     Node 6, Type 0, BuildingBlock: KUFVIS_clean_sbu_0, # of connection points: 4
#     Node 7, Type 0, BuildingBlock: KUFVIS_clean_sbu_0, # of connection points: 4
#     Node 8, Type 0, BuildingBlock: KUFVIS_clean_sbu_0, # of connection points: 4
#     Node 9, Type 0, BuildingBlock: KUFVIS_clean_sbu_0, # of connection points: 4
#     Node 10, Type 0, BuildingBlock: KUFVIS_clean_sbu_0, # of connection points: 4
#     Node 11, Type 0, BuildingBlock: KUFVIS_clean_sbu_0, # of connection points: 4
#     Edge 12, Type (0, 0), BuildingBlock: XIVTED_clean_linker_0, # of connection points: 2
#     Edge 13, Type (0, 0), BuildingBlock: XIVTED_clean_linker_0, # of connection points: 2
#     Edge 14, Type (0, 0), BuildingBlock: XIVTED_clean_linker_0, # of connection points: 2
#     Edge 15, Type (0, 0), BuildingBlock: XIVTED_clean_linker_0, # of connection points: 2
#     Edge 16, Type (0, 0), BuildingBlock: XIVTED_clean_linker_0, # of connection points: 2
#     Edge 17, Type (0, 0), BuildingBlock: XIVTED_clean_linker_0, # of connection points: 2
#     Edge 18, Type (0, 0), BuildingBlock: XIVTED_clean_linker_0, # of connection points: 2
#     Edge 19, Type (0, 0), BuildingBlock: XIVTED_clean_linker_0, # of connection points: 2
#     Edge 20, Type (0, 0), BuildingBlock: XIVTED_clean_linker_0, # of connection points: 2
#     Edge 21, Type (0, 0), BuildingBlock: XIVTED_clean_linker_0, # of connection points: 2
#     Edge 22, Type (0, 0), BuildingBlock: XIVTED_clean_linker_0, # of connection points: 2
#     Edge 23, Type (0, 0), BuildingBlock: XIVTED_clean_linker_0, # of connection points: 2
#     Edge 24, Type (0, 0), BuildingBlock: XIVTED_clean_linker_0, # of connection points: 2
#     Edge 25, Type (0, 0), BuildingBlock: XIVTED_clean_linker_0, # of connection points: 2
#     Edge 26, Type (0, 0), BuildingBlock: XIVTED_clean_linker_0, # of connection points: 2
#     Edge 27, Type (0, 0), BuildingBlock: XIVTED_clean_linker_0, # of connection points: 2
#     Edge 28, Type (0, 0), BuildingBlock: XIVTED_clean_linker_0, # of connection points: 2
#     Edge 29, Type (0, 0), BuildingBlock: XIVTED_clean_linker_0, # of connection points: 2
#     Edge 30, Type (0, 0), BuildingBlock: XIVTED_clean_linker_0, # of connection points: 2
#     Edge 31, Type (0, 0), BuildingBlock: XIVTED_clean_linker_0, # of connection points: 2
#     Edge 32, Type (0, 0), BuildingBlock: XIVTED_clean_linker_0, # of connection points: 2
#     Edge 33, Type (0, 0), BuildingBlock: XIVTED_clean_linker_0, # of connection points: 2
#     Edge 34, Type (0, 0), BuildingBlock: XIVTED_clean_linker_0, # of connection points: 2
#     Edge 35, Type (0, 0), BuildingBlock: XIVTED_clean_linker_0, # of connection points: 2
# Relax obj value: 0.193
# Max RMSD: 0.246
# Mean RMSD: 0.246
data_MOF--net-umo--node1-KUFVIS_clean_sbu_0--edge1-XIVTED_clean_linker_0
_symmetry_space_group_name_H-M    P1
_symmetry_Int_Tables_number       1
_symmetry_cell_setting            triclinic
loop_
_symmetry_equiv_pos_as_xyz
'x, y, z'
_cell_length_a     46.826884
_cell_length_b     46.816866
_cell_length_c     39.228525
_cell_angle_alpha  89.991583
_cell_angle_beta   90.00485
_cell_angle_gamma 120.01327
loop_
_atom_site_label
_atom_site_type_symbol
_atom_site_fract_x
_atom_site_fract_y
_atom_site_fract_z
_atom_type_partial_charge
Mn0 Mn 0.17153 0.55227 0.38747 0.0
Mn1 Mn 0.11761 0.57861 0.40516 0.0
C2 C 0.19039 0.60764 0.39248 0.0
C3 C 0.19505 0.53506 0.34525 0.0
C4 C 0.1466 0.55467 0.45944 0.0
O5 O 0.12722 0.5111 0.3806 0.0
O6 O 0.09383 0.53186 0.39044 0.0
C7 C 0.09524 0.57579 0.33404 0.0
N8 N 0.10888 0.59336 0.36306 0.0
C9 C 0.11627 0.64317 0.33707 0.0
C10 C 0.1021 0.62557 0.30697 0.0
C11 C 0.09159 0.59174 0.30545 0.0
C12 C 0.11937 0.62597 0.36469 0.0
H13 H 0.08733 0.54984 0.33268 0.0
C14 C 0.09884 0.5082 0.38271 0.0
O15 O 0.19488 0.52704 0.37706 0.0
O16 O 0.18147 0.55256 0.3383 0.0
N17 N 0.13617 0.62338 0.41987 0.0
C18 C 0.14683 0.6361 0.45162 0.0
C19 C 0.15781 0.66959 0.45767 0.0
C20 C 0.15678 0.68938 0.43134 0.0
C21 C 0.14402 0.67529 0.39941 0.0
C22 C 0.13338 0.64176 0.39492 0.0
H23 H 0.14744 0.62092 0.47202 0.0
O24 O 0.21076 0.59652 0.39298 0.0
O25 O 0.15957 0.58626 0.38648 0.0
O26 O 0.16515 0.54866 0.44008 0.0
O27 O 0.12738 0.56483 0.44881 0.0
C28 C 0.14124 0.69313 0.37193 0.0
C29 C 0.12748 0.67711 0.34074 0.0
H30 H 0.09922 0.63778 0.28487 0.0
H31 H 0.08074 0.57801 0.28227 0.0
H32 H 0.16707 0.68012 0.48257 0.0
H33 H 0.1654 0.71523 0.43605 0.0
H34 H 0.14949 0.71916 0.37455 0.0
H35 H 0.12545 0.69108 0.3198 0.0
Mn36 Mn 0.60936 0.17391 0.55473 0.0
Mn37 Mn 0.52895 0.12034 0.57234 0.0
C38 C 0.5736 0.19343 0.56163 0.0
C39 C 0.64988 0.19768 0.51229 0.0
C40 C 0.58205 0.1477 0.62653 0.0
O41 O 0.60552 0.1295 0.54641 0.0
O42 O 0.55138 0.09643 0.5564 0.0
C43 C 0.50937 0.09995 0.50076 0.0
N44 N 0.50565 0.11304 0.5303 0.0
C45 C 0.46409 0.12224 0.50508 0.0
C46 C 0.46731 0.10865 0.47445 0.0
C47 C 0.49009 0.09751 0.47228 0.0
C48 C 0.48409 0.12418 0.53253 0.0
H49 H 0.52701 0.09156 0.49889 0.0
C50 C 0.57984 0.10124 0.54814 0.0
O51 O 0.65786 0.19677 0.54389 0.0
O52 O 0.61879 0.18478 0.50567 0.0
N53 N 0.50308 0.13888 0.58815 0.0
C54 C 0.5005 0.14799 0.62049 0.0
C55 C 0.47824 0.15911 0.62732 0.0
C56 C 0.45812 0.15972 0.60111 0.0
C57 C 0.45978 0.14829 0.56854 0.0
C58 C 0.48241 0.13745 0.5633 0.0
H59 H 0.51571 0.14728 0.6408 0.0
O60 O 0.60517 0.21344 0.56172 0.0
O61 O 0.56362 0.16265 0.55464 0.0
O62 O 0.60666 0.16635 0.6072 0.0
O63 O 0.55255 0.12892 0.61586 0.0
C64 C 0.43953 0.14676 0.54121 0.0
C65 C 0.44178 0.13386 0.50946 0.0
H66 H 0.45244 0.10666 0.45245 0.0
H67 H 0.49281 0.0871 0.44871 0.0
H68 H 0.47662 0.16722 0.65272 0.0
H69 H 0.44105 0.16841 0.60644 0.0
H70 H 0.42196 0.1552 0.54442 0.0
H71 H 0.42601 0.13272 0.48866 0.0
Mn72 Mn 0.43173 0.61349 0.72106 0.0
Mn73 Mn 0.40693 0.53322 0.73707 0.0
C74 C 0.3767 0.57634 0.72722 0.0
C75 C 0.44771 0.65491 0.6797 0.0
C76 C 0.43033 0.58506 0.79243 0.0
O77 O 0.47317 0.61129 0.71254 0.0
O78 O 0.45363 0.55734 0.72224 0.0
C79 C 0.41009 0.51574 0.6652 0.0
N80 N 0.39245 0.5108 0.69438 0.0
C81 C 0.34287 0.46879 0.66764 0.0
C82 C 0.36056 0.47328 0.63736 0.0
C83 C 0.3943 0.4969 0.63614 0.0
C84 C 0.35989 0.48841 0.69571 0.0
H85 H 0.43598 0.53401 0.66406 0.0
C86 C 0.47674 0.5862 0.71431 0.0
O87 O 0.45631 0.66223 0.71146 0.0
O88 O 0.43033 0.6239 0.67228 0.0
N89 N 0.36233 0.50581 0.75173 0.0
C90 C 0.34981 0.50203 0.78384 0.0
C91 C 0.31648 0.47884 0.78974 0.0
C92 C 0.2967 0.45901 0.76284 0.0
C93 C 0.31069 0.46192 0.73051 0.0
C94 C 0.34405 0.48546 0.7262 0.0
H95 H 0.36501 0.51701 0.80467 0.0
O96 O 0.38741 0.60775 0.72808 0.0
O97 O 0.3982 0.56735 0.71991 0.0
O98 O 0.43625 0.60989 0.77346 0.0
O99 O 0.42034 0.55586 0.78122 0.0
C100 C 0.293 0.44204 0.70255 0.0
C101 C 0.30905 0.44556 0.67109 0.0
H102 H 0.34849 0.45874 0.61491 0.0
H103 H 0.4081 0.50059 0.61283 0.0
H104 H 0.30607 0.47626 0.81494 0.0
H105 H 0.27099 0.4412 0.76746 0.0
H106 H 0.26711 0.42378 0.70503 0.0
H107 H 0.29522 0.43006 0.6498 0.0
Mn108 Mn 0.81908 0.43963 0.88908 0.0
Mn109 Mn 0.87371 0.41389 0.90538 0.0
C110 C 0.80062 0.38437 0.89418 0.0
C111 C 0.79489 0.45654 0.84728 0.0
C112 C 0.84496 0.43716 0.96062 0.0
O113 O 0.8631 0.48103 0.8818 0.0
O114 O 0.89692 0.46067 0.89078 0.0
C115 C 0.89499 0.41712 0.83375 0.0
N116 N 0.88184 0.3994 0.8628 0.0
C117 C 0.8738 0.34968 0.83598 0.0
C118 C 0.88746 0.36745 0.80583 0.0
C119 C 0.89805 0.40131 0.80472 0.0
C120 C 0.87125 0.36675 0.86404 0.0
H121 H 0.90294 0.4431 0.83269 0.0
C122 C 0.8916 0.48417 0.88338 0.0
O123 O 0.79528 0.46455 0.87912 0.0
O124 O 0.8086 0.43922 0.84007 0.0
N125 N 0.8558 0.36913 0.91986 0.0
C126 C 0.84641 0.35643 0.95183 0.0
C127 C 0.83567 0.32295 0.95759 0.0
C128 C 0.83578 0.30318 0.93072 0.0
C129 C 0.84748 0.31731 0.89856 0.0
C130 C 0.85788 0.35082 0.89438 0.0
H131 H 0.84657 0.37162 0.97264 0.0
O132 O 0.78009 0.39528 0.89489 0.0
O133 O 0.83131 0.40587 0.88772 0.0
O134 O 0.82611 0.44315 0.94166 0.0
O135 O 0.86429 0.42733 0.94941 0.0
C136 C 0.84962 0.29958 0.87061 0.0
C137 C 0.86266 0.31573 0.83929 0.0
H138 H 0.8899 0.35535 0.7834 0.0
H139 H 0.90851 0.41517 0.78151 0.0
H140 H 0.82734 0.31241 0.98267 0.0
H141 H 0.82739 0.27734 0.93522 0.0
H142 H 0.84152 0.27357 0.87298 0.0
H143 H 0.86427 0.30186 0.81801 0.0
Mn144 Mn 0.37797 0.8184 0.05228 0.0
Mn145 Mn 0.45885 0.87125 0.06854 0.0
C146 C 0.41327 0.79826 0.05852 0.0
C147 C 0.33674 0.79461 0.01056 0.0
C148 C 0.40666 0.84481 0.12364 0.0
O149 O 0.38228 0.86302 0.04395 0.0
O150 O 0.43661 0.89559 0.05335 0.0
C151 C 0.47723 0.89123 0.99666 0.0
N152 N 0.48129 0.87812 0.02601 0.0
C153 C 0.52191 0.86813 0.99972 0.0
C154 C 0.51832 0.88173 0.96928 0.0
C155 C 0.49584 0.89329 0.96774 0.0
C156 C 0.50257 0.86658 0.02764 0.0
H157 H 0.45981 0.89993 0.99528 0.0
C158 C 0.40818 0.89112 0.04554 0.0
O159 O 0.32933 0.79593 0.04228 0.0
O160 O 0.36769 0.80721 0.0034 0.0
N161 N 0.48457 0.85229 0.0836 0.0
C162 C 0.48763 0.84323 0.11581 0.0
C163 C 0.50968 0.83172 0.12203 0.0
C164 C 0.52913 0.83069 0.09533 0.0
C165 C 0.52703 0.84209 0.06288 0.0
C166 C 0.50463 0.85333 0.05827 0.0
H167 H 0.47293 0.84426 0.13648 0.0
O168 O 0.38165 0.77858 0.05918 0.0
O169 O 0.42353 0.82907 0.05137 0.0
O170 O 0.38162 0.82637 0.10471 0.0
O171 O 0.43608 0.8631 0.11252 0.0
C172 C 0.54662 0.84322 0.03509 0.0
C173 C 0.54396 0.8561 0.00348 0.0
H174 H 0.53268 0.88342 0.94694 0.0
H175 H 0.49284 0.9037 0.94431 0.0
H176 H 0.51166 0.82364 0.14732 0.0
H177 H 0.54604 0.82171 0.10018 0.0
H178 H 0.56398 0.83447 0.03781 0.0
H179 H 0.55922 0.85693 0.98232 0.0
Mn180 Mn 0.55776 0.37992 0.22456 0.0
Mn181 Mn 0.5832 0.45951 0.24478 0.0
C182 C 0.61282 0.4162 0.2324 0.0
C183 C 0.54212 0.34086 0.1807 0.0
C184 C 0.55703 0.40466 0.29708 0.0
O185 O 0.51691 0.38332 0.21646 0.0
O186 O 0.5372 0.43715 0.22774 0.0
C187 C 0.58374 0.48157 0.17395 0.0
N188 N 0.59994 0.4844 0.20371 0.0
C189 C 0.65102 0.52733 0.18038 0.0
C190 C 0.63484 0.52503 0.14954 0.0
C191 C 0.60106 0.50201 0.14631 0.0
C192 C 0.6325 0.50622 0.20697 0.0
H193 H 0.55783 0.46375 0.17127 0.0
C194 C 0.51392 0.40874 0.21872 0.0
O195 O 0.53288 0.33174 0.21202 0.0
O196 O 0.56006 0.3722 0.17521 0.0
N197 N 0.62721 0.48514 0.26178 0.0
C198 C 0.6383 0.48641 0.29418 0.0
C199 C 0.67147 0.50866 0.30201 0.0
C200 C 0.6926 0.53002 0.27672 0.0
C201 C 0.68013 0.52956 0.2441 0.0
C202 C 0.64683 0.50692 0.23786 0.0
H203 H 0.62208 0.4702 0.31377 0.0
O204 O 0.60175 0.38471 0.23162 0.0
O205 O 0.5917 0.42584 0.22588 0.0
O206 O 0.55202 0.3808 0.27707 0.0
O207 O 0.56741 0.43437 0.28738 0.0
C208 C 0.6993 0.55096 0.21767 0.0
C209 C 0.68479 0.54976 0.18578 0.0
H210 H 0.64811 0.54079 0.12819 0.0
H211 H 0.58843 0.49999 0.12256 0.0
H212 H 0.68072 0.5093 0.32744 0.0
H213 H 0.71819 0.54706 0.28281 0.0
H214 H 0.72518 0.56858 0.22165 0.0
H215 H 0.69976 0.56638 0.16567 0.0
Mn216 Mn 0.42949 0.81923 0.44799 0.0
Mn217 Mn 0.40255 0.87243 0.42902 0.0
C218 C 0.37424 0.79947 0.44065 0.0
C219 C 0.44611 0.79624 0.49138 0.0
C220 C 0.42869 0.84464 0.37572 0.0
O221 O 0.46996 0.86379 0.45584 0.0
O222 O 0.44883 0.8967 0.44526 0.0
C223 C 0.4028 0.89345 0.50023 0.0
N224 N 0.38619 0.87996 0.47069 0.0
C225 C 0.33509 0.87036 0.4954 0.0
C226 C 0.3517 0.88436 0.52602 0.0
C227 C 0.38569 0.89591 0.52844 0.0
C228 C 0.35342 0.86843 0.46821 0.0
H229 H 0.42888 0.90214 0.5023 0.0
C230 C 0.47251 0.89201 0.45378 0.0
O231 O 0.45516 0.7966 0.45993 0.0
O232 O 0.42785 0.80919 0.49725 0.0
N233 N 0.35822 0.8535 0.41286 0.0
C234 C 0.34676 0.84413 0.38048 0.0
C235 C 0.31333 0.83257 0.37339 0.0
C236 C 0.29232 0.83182 0.39937 0.0
C237 C 0.30517 0.84356 0.43195 0.0
C238 C 0.3387 0.85482 0.43746 0.0
H239 H 0.36289 0.84493 0.36036 0.0
O240 O 0.38586 0.77953 0.44126 0.0
O241 O 0.39495 0.83036 0.44727 0.0
O242 O 0.43451 0.82611 0.39541 0.0
O243 O 0.41795 0.86353 0.38592 0.0
C244 C 0.28618 0.84504 0.45901 0.0
C245 C 0.3011 0.85832 0.49076 0.0
H246 H 0.3386 0.88635 0.54781 0.0
H247 H 0.39866 0.90663 0.55202 0.0
H248 H 0.30378 0.82423 0.34799 0.0
H249 H 0.26654 0.82281 0.39384 0.0
H250 H 0.26013 0.8363 0.4556 0.0
H251 H 0.28628 0.85944 0.51135 0.0
Mn252 Mn 0.60725 0.4349 0.62042 0.0
Mn253 Mn 0.5265 0.40789 0.60476 0.0
C254 C 0.57106 0.37945 0.61619 0.0
C255 C 0.64881 0.45315 0.66186 0.0
C256 C 0.57783 0.43038 0.54888 0.0
O257 O 0.60413 0.47607 0.62679 0.0
O258 O 0.54988 0.45511 0.61788 0.0
C259 C 0.50963 0.41298 0.67638 0.0
N260 N 0.50475 0.39445 0.64789 0.0
C261 C 0.46422 0.34527 0.6765 0.0
C262 C 0.46866 0.36387 0.70608 0.0
C263 C 0.4915 0.39786 0.70602 0.0
C264 C 0.48313 0.36166 0.64781 0.0
H265 H 0.52733 0.43907 0.67654 0.0
C266 C 0.57865 0.47895 0.62485 0.0
O267 O 0.65605 0.46061 0.62985 0.0
O268 O 0.61787 0.43558 0.66942 0.0
N269 N 0.4997 0.3627 0.5917 0.0
C270 C 0.49548 0.34926 0.55999 0.0
C271 C 0.47288 0.31555 0.55531 0.0
C272 C 0.45401 0.29634 0.58299 0.0
C273 C 0.45721 0.31125 0.61484 0.0
C274 C 0.48015 0.34493 0.61793 0.0
H275 H 0.5097 0.36404 0.53858 0.0
O276 O 0.60257 0.39079 0.61554 0.0
O277 O 0.56145 0.40069 0.62234 0.0
O278 O 0.60303 0.43732 0.56773 0.0
O279 O 0.54867 0.42027 0.56031 0.0
C280 C 0.43809 0.29417 0.64346 0.0
C281 C 0.4417 0.31115 0.67432 0.0
H282 H 0.45466 0.35231 0.72896 0.0
H283 H 0.49515 0.41236 0.72877 0.0
H284 H 0.47001 0.30443 0.53045 0.0
H285 H 0.43664 0.27035 0.5793 0.0
H286 H 0.42033 0.26805 0.64193 0.0
H287 H 0.42676 0.29779 0.69611 0.0
Mn288 Mn 0.17026 0.60987 0.7822 0.0
Mn289 Mn 0.11546 0.52923 0.76724 0.0
C290 C 0.18863 0.57297 0.77811 0.0
C291 C 0.19449 0.65178 0.82318 0.0
C292 C 0.1445 0.58014 0.71098 0.0
O293 O 0.12634 0.60752 0.78886 0.0
O294 O 0.09233 0.55328 0.78043 0.0
C295 C 0.09387 0.51296 0.83903 0.0
N296 N 0.10714 0.50766 0.81048 0.0
C297 C 0.11514 0.46675 0.83914 0.0
C298 C 0.10137 0.47161 0.86879 0.0
C299 C 0.09074 0.49485 0.86873 0.0
C300 C 0.11779 0.48564 0.81039 0.0
H301 H 0.08587 0.53096 0.83919 0.0
C302 C 0.09777 0.58227 0.78722 0.0
O303 O 0.19408 0.65877 0.79113 0.0
O304 O 0.18076 0.62088 0.83107 0.0
N305 N 0.13316 0.50184 0.75416 0.0
C306 C 0.14214 0.49736 0.72244 0.0
C307 C 0.15275 0.47437 0.71778 0.0
C308 C 0.15287 0.45542 0.74548 0.0
C309 C 0.14144 0.45894 0.77737 0.0
C310 C 0.13119 0.48226 0.78044 0.0
H311 H 0.14178 0.51166 0.70101 0.0
O312 O 0.20919 0.6044 0.7771 0.0
O313 O 0.15794 0.56387 0.78448 0.0
O314 O 0.1632 0.60536 0.7296 0.0
O315 O 0.12519 0.55113 0.72264 0.0
C316 C 0.13925 0.43983 0.80605 0.0
C317 C 0.12623 0.44382 0.83696 0.0
H318 H 0.09884 0.45764 0.89172 0.0
H319 H 0.08019 0.49883 0.89154 0.0
H320 H 0.16081 0.47128 0.69289 0.0
H321 H 0.1611 0.43775 0.74181 0.0
H322 H 0.14722 0.42177 0.80452 0.0
H323 H 0.12453 0.42889 0.8588 0.0
Mn324 Mn 0.55977 0.17543 0.95024 0.0
Mn325 Mn 0.58764 0.12237 0.93468 0.0
C326 C 0.61517 0.19537 0.94416 0.0
C327 C 0.54254 0.19981 0.99156 0.0
C328 C 0.56201 0.14848 0.87915 0.0
O329 O 0.51944 0.13094 0.95894 0.0
O330 O 0.54095 0.09815 0.94961 0.0
C331 C 0.58565 0.10256 0.00669 0.0
N332 N 0.60299 0.11559 0.97741 0.0
C333 C 0.65346 0.12567 0.00412 0.0
C334 C 0.6361 0.11216 0.0345 0.0
C335 C 0.60205 0.10059 0.03579 0.0
C336 C 0.6358 0.1271 0.976 0.0
H337 H 0.55952 0.09387 0.00788 0.0
C338 C 0.51707 0.10277 0.95738 0.0
O339 O 0.53367 0.19806 0.95983 0.0
O340 O 0.56085 0.18722 0.99895 0.0
N341 N 0.63242 0.14128 0.91992 0.0
C342 C 0.64478 0.15053 0.88781 0.0
C343 C 0.67842 0.16219 0.88189 0.0
C344 C 0.69872 0.16317 0.90876 0.0
C345 C 0.68499 0.15166 0.9411 0.0
C346 C 0.6513 0.14029 0.94543 0.0
H347 H 0.62919 0.14955 0.86701 0.0
O348 O 0.60331 0.21511 0.943 0.0
O349 O 0.59456 0.16465 0.95157 0.0
O350 O 0.55531 0.16695 0.89789 0.0
O351 O 0.57326 0.13036 0.89047 0.0
C352 C 0.70331 0.15063 0.9691 0.0
C353 C 0.68757 0.13776 1.00063 0.0
H354 H 0.64866 0.11056 0.05699 0.0
H355 H 0.58851 0.09024 0.05918 0.0
H356 H 0.68867 0.1704 0.85668 0.0
H357 H 0.72467 0.17228 0.90414 0.0
H358 H 0.72946 0.15949 0.9666 0.0
H359 H 0.7019 0.13704 0.02195 0.0
Mn360 Mn 0.38043 0.55562 0.11682 0.0
Mn361 Mn 0.46125 0.58399 0.09996 0.0
C362 C 0.41576 0.6112 0.11209 0.0
C363 C 0.33927 0.53702 0.1587 0.0
C364 C 0.40911 0.56029 0.04486 0.0
O365 O 0.38459 0.51502 0.12323 0.0
O366 O 0.43883 0.5369 0.11343 0.0
C367 C 0.47938 0.5798 0.17132 0.0
N368 N 0.48355 0.59804 0.14276 0.0
C369 C 0.52388 0.64772 0.17077 0.0
C370 C 0.52018 0.62944 0.20041 0.0
C371 C 0.49779 0.59533 0.20069 0.0
C372 C 0.50472 0.63092 0.14235 0.0
H373 H 0.46204 0.55362 0.17175 0.0
C374 C 0.4104 0.51274 0.12089 0.0
O375 O 0.33179 0.52925 0.12679 0.0
O376 O 0.37024 0.55504 0.16594 0.0
N377 N 0.48719 0.62918 0.08652 0.0
C378 C 0.49069 0.64237 0.05477 0.0
C379 C 0.51276 0.67616 0.04976 0.0
C380 C 0.53185 0.69573 0.07714 0.0
C381 C 0.5294 0.68112 0.10902 0.0
C382 C 0.50697 0.64733 0.11244 0.0
H383 H 0.47629 0.62733 0.03358 0.0
O384 O 0.38415 0.5993 0.11181 0.0
O385 O 0.42602 0.59045 0.11813 0.0
O386 O 0.38408 0.55296 0.06412 0.0
O387 O 0.43853 0.571 0.05581 0.0
C388 C 0.54875 0.6986 0.13736 0.0
C389 C 0.5459 0.68194 0.16826 0.0
H390 H 0.53439 0.64132 0.22309 0.0
H391 H 0.49471 0.58107 0.22351 0.0
H392 H 0.51504 0.68707 0.02487 0.0
H393 H 0.5488 0.72179 0.07321 0.0
H394 H 0.56613 0.72481 0.13557 0.0
H395 H 0.561 0.69562 0.18983 0.0
Mn396 Mn 0.81907 0.38076 0.2835 0.0
Mn397 Mn 0.87422 0.46098 0.26696 0.0
C398 C 0.80112 0.41796 0.27858 0.0
C399 C 0.79474 0.33971 0.32537 0.0
C400 C 0.8447 0.40896 0.21184 0.0
O401 O 0.86289 0.3829 0.29039 0.0
O402 O 0.89714 0.43696 0.28103 0.0
C403 C 0.89621 0.47876 0.33846 0.0
N404 N 0.88288 0.48352 0.30965 0.0
C405 C 0.87537 0.52529 0.33703 0.0
C406 C 0.88921 0.52098 0.36693 0.0
C407 C 0.89963 0.49758 0.36764 0.0
C408 C 0.87244 0.5057 0.30881 0.0
H409 H 0.90404 0.46064 0.3392 0.0
C410 C 0.89153 0.40802 0.28842 0.0
O411 O 0.79488 0.33203 0.2935 0.0
O412 O 0.80881 0.37078 0.33257 0.0
N413 N 0.85661 0.48821 0.25297 0.0
C414 C 0.84727 0.49187 0.22111 0.0
C415 C 0.83678 0.51485 0.2157 0.0
C416 C 0.83708 0.53459 0.24282 0.0
C417 C 0.84877 0.53181 0.27485 0.0
C418 C 0.85892 0.50848 0.27867 0.0
H419 H 0.84727 0.47693 0.20012 0.0
O420 O 0.78035 0.38656 0.27802 0.0
O421 O 0.83177 0.42689 0.28485 0.0
O422 O 0.82584 0.38418 0.23088 0.0
O423 O 0.86424 0.43814 0.22288 0.0
C424 C 0.85127 0.55164 0.30299 0.0
C425 C 0.86444 0.54829 0.3341 0.0
H426 H 0.89196 0.5355 0.38948 0.0
H427 H 0.91024 0.49403 0.39065 0.0
H428 H 0.82848 0.51734 0.19071 0.0
H429 H 0.82891 0.55224 0.23859 0.0
H430 H 0.84339 0.56974 0.30089 0.0
H431 H 0.86635 0.56376 0.35552 0.0
H432 H 0.19686 0.65606 0.34923 0.0
H433 H 0.35027 0.7792 0.37786 0.0
H434 H 0.21524 0.63756 0.45221 0.0
H435 H 0.32146 0.78668 0.4802 0.0
H436 H 0.29282 0.74114 0.3637 0.0
H437 H 0.23311 0.71565 0.35897 0.0
C438 C 0.20758 0.66477 0.37421 0.0
C439 C 0.20319 0.64239 0.40012 0.0
C440 C 0.29862 0.75229 0.38878 0.0
C441 C 0.24473 0.70939 0.41107 0.0
C442 C 0.33144 0.7738 0.39688 0.0
C443 C 0.34015 0.78631 0.42996 0.0
C444 C 0.27475 0.74165 0.41463 0.0
C445 C 0.31532 0.77784 0.45423 0.0
C446 C 0.2282 0.69853 0.37971 0.0
C447 C 0.21811 0.65438 0.43179 0.0
N448 N 0.28366 0.75511 0.44637 0.0
N449 N 0.23843 0.68715 0.43635 0.0
H450 H 0.56936 0.2139 0.62418 0.0
H451 H 0.56485 0.35437 0.55356 0.0
H452 H 0.53291 0.20496 0.52166 0.0
H453 H 0.53215 0.32739 0.65723 0.0
H454 H 0.54433 0.29652 0.54001 0.0
H455 H 0.54736 0.24991 0.63827 0.0
C456 C 0.5556 0.21872 0.60503 0.0
C457 C 0.55234 0.2063 0.57197 0.0
C458 C 0.54028 0.3029 0.56539 0.0
C459 C 0.52882 0.24873 0.58718 0.0
C460 C 0.5521 0.33589 0.5731 0.0
C461 C 0.54957 0.34521 0.60633 0.0
C462 C 0.52799 0.27951 0.59171 0.0
C463 C 0.53393 0.3208 0.63118 0.0
C464 C 0.54288 0.23906 0.61306 0.0
C465 C 0.5353 0.21381 0.54759 0.0
N466 N 0.52446 0.28895 0.6236 0.0
N467 N 0.52483 0.23536 0.55544 0.0
H468 H 0.20737 0.56573 0.71578 0.0
H469 H 0.35086 0.57001 0.78955 0.0
H470 H 0.20069 0.53375 0.81986 0.0
H471 H 0.32553 0.53542 0.68621 0.0
H472 H 0.29254 0.54696 0.80267 0.0
H473 H 0.24426 0.54452 0.70306 0.0
C474 C 0.21279 0.55299 0.73559 0.0
C475 C 0.20087 0.55093 0.76871 0.0
C476 C 0.29944 0.54309 0.77747 0.0
C477 C 0.24453 0.52858 0.75505 0.0
C478 C 0.3327 0.5564 0.77 0.0
C479 C 0.34257 0.55408 0.73697 0.0
C480 C 0.27622 0.52943 0.75107 0.0
C481 C 0.31852 0.53716 0.7121 0.0
C482 C 0.23371 0.54077 0.72836 0.0
C483 C 0.20918 0.53523 0.7939 0.0
N484 N 0.2863 0.52615 0.71942 0.0
N485 N 0.23136 0.52538 0.78679 0.0
H486 H 0.79052 0.33429 0.85165 0.0
H487 H 0.66569 0.20735 0.98687 0.0
H488 H 0.77995 0.35684 0.95574 0.0
H489 H 0.6425 0.21613 0.8825 0.0
H490 H 0.72432 0.24587 0.97469 0.0
H491 H 0.75352 0.27532 0.86387 0.0
C492 C 0.78159 0.32657 0.87739 0.0
C493 C 0.78826 0.34993 0.90293 0.0
C494 C 0.70649 0.23802 0.95416 0.0
C495 C 0.74646 0.28356 0.91687 0.0
C496 C 0.67326 0.21623 0.96108 0.0
C497 C 0.64976 0.20863 0.93546 0.0
C498 C 0.71576 0.25217 0.92158 0.0
C499 C 0.66024 0.2214 0.90271 0.0
C500 C 0.76067 0.29314 0.88434 0.0
C501 C 0.77542 0.33922 0.93561 0.0
N502 N 0.69256 0.24279 0.89669 0.0
N503 N 0.75491 0.30672 0.94166 0.0
H504 H 0.41818 0.77789 0.1209 0.0
H505 H 0.42048 0.63609 0.04959 0.0
H506 H 0.4528 0.78582 0.01772 0.0
H507 H 0.45484 0.66352 0.15274 0.0
H508 H 0.44062 0.69388 0.03598 0.0
H509 H 0.4397 0.74135 0.13443 0.0
C510 C 0.43144 0.77273 0.10147 0.0
C511 C 0.43434 0.78503 0.0684 0.0
C512 C 0.44509 0.6876 0.06124 0.0
C513 C 0.45728 0.74202 0.083 0.0
C514 C 0.43347 0.65465 0.06899 0.0
C515 C 0.43664 0.6455 0.10208 0.0
C516 C 0.45788 0.71112 0.08742 0.0
C517 C 0.45258 0.67 0.12678 0.0
C518 C 0.44388 0.75208 0.10918 0.0
C519 C 0.45072 0.77707 0.04366 0.0
N520 N 0.46191 0.70181 0.11919 0.0
N521 N 0.46092 0.75526 0.05123 0.0
H522 H 0.78096 0.42512 0.21694 0.0
H523 H 0.63931 0.41998 0.29394 0.0
H524 H 0.79066 0.45771 0.3211 0.0
H525 H 0.66368 0.45828 0.19174 0.0
H526 H 0.69778 0.44266 0.30612 0.0
H527 H 0.74407 0.44668 0.20573 0.0
C528 C 0.77622 0.43808 0.23706 0.0
C529 C 0.78896 0.44019 0.26978 0.0
C530 C 0.69062 0.44741 0.28144 0.0
C531 C 0.74534 0.46293 0.25788 0.0
C532 C 0.65729 0.43429 0.27449 0.0
C533 C 0.64712 0.43783 0.24205 0.0
C534 C 0.7136 0.4621 0.25499 0.0
C535 C 0.67093 0.45562 0.21723 0.0
C536 C 0.75532 0.45051 0.23069 0.0
C537 C 0.78151 0.45618 0.29543 0.0
N538 N 0.70323 0.46642 0.22392 0.0
N539 N 0.7593 0.46617 0.2892 0.0
H540 H 0.19949 0.61303 0.67035 0.0
H541 H 0.09529 0.52312 0.50246 0.0
H542 H 0.09385 0.55037 0.6666 0.0
H543 H 0.2011 0.58411 0.50073 0.0
H544 H 0.09567 0.53173 0.56368 0.0
H545 H 0.20193 0.6046 0.6086 0.0
C546 C 0.17679 0.59834 0.65634 0.0
C547 C 0.14639 0.58257 0.67345 0.0
C548 C 0.11897 0.54294 0.55022 0.0
C549 C 0.14902 0.57195 0.60352 0.0
C550 C 0.11874 0.53761 0.51531 0.0
C551 C 0.14821 0.55249 0.49675 0.0
C552 C 0.14892 0.56384 0.56682 0.0
C553 C 0.17792 0.57164 0.5144 0.0
C554 C 0.17822 0.59308 0.6213 0.0
C555 C 0.11778 0.56306 0.65437 0.0
N556 N 0.17753 0.57709 0.54852 0.0
N557 N 0.11983 0.5582 0.62062 0.0
H558 H 0.6147 0.20243 0.66732 0.0
H559 H 0.53549 0.09604 0.83685 0.0
H560 H 0.55541 0.09641 0.67047 0.0
H561 H 0.58565 0.20227 0.8368 0.0
H562 H 0.54336 0.09661 0.77547 0.0
H563 H 0.60792 0.20399 0.72948 0.0
C564 C 0.60117 0.17949 0.68126 0.0
C565 C 0.58587 0.14921 0.66392 0.0
C566 C 0.55233 0.1199 0.7886 0.0
C567 C 0.5771 0.1508 0.73438 0.0
C568 C 0.54747 0.11951 0.82362 0.0
C569 C 0.55952 0.14911 0.84174 0.0
C570 C 0.56988 0.15016 0.7714 0.0
C571 C 0.5754 0.1789 0.82354 0.0
C572 C 0.59681 0.1804 0.71656 0.0
C573 C 0.56777 0.12024 0.68294 0.0
N574 N 0.58045 0.17872 0.7893 0.0
N575 N 0.5638 0.12177 0.71699 0.0
H576 H 0.37208 0.57866 0.00593 0.0
H577 H 0.41049 0.62007 0.83265 0.0
H578 H 0.44061 0.54281 0.99882 0.0
H579 H 0.45078 0.55511 0.83726 0.0
H580 H 0.40134 0.61394 0.89451 0.0
H581 H 0.3774 0.58882 0.94419 0.0
C582 C 0.38767 0.5723 0.99121 0.0
C583 C 0.40581 0.55974 0.00739 0.0
C584 C 0.41211 0.60096 0.88206 0.0
C585 C 0.41334 0.57268 0.93724 0.0
C586 C 0.41806 0.60513 0.84684 0.0
C587 C 0.43156 0.5882 0.82992 0.0
C588 C 0.41978 0.5797 0.90023 0.0
C589 C 0.44034 0.56862 0.84933 0.0
C590 C 0.39135 0.57882 0.95608 0.0
C591 C 0.42617 0.5525 0.98733 0.0
N592 N 0.43425 0.56488 0.8833 0.0
N593 N 0.4294 0.55911 0.95346 0.0
H594 H 0.896 0.4308 0.16844 0.0
H595 H 0.78984 0.41325 1.00119 0.0
H596 H 0.78995 0.38298 0.17073 0.0
H597 H 0.89589 0.46095 0.00488 0.0
H598 H 0.78795 0.40256 0.06293 0.0
H599 H 0.89508 0.43964 0.10742 0.0
C600 C 0.87241 0.42136 0.15575 0.0
C601 C 0.84301 0.40575 0.17444 0.0
C602 C 0.81161 0.41579 0.05025 0.0
C603 C 0.84165 0.41701 0.10458 0.0
C604 C 0.8127 0.42239 0.01521 0.0
C605 C 0.8431 0.43827 0.99809 0.0
C606 C 0.84113 0.42517 0.06799 0.0
C607 C 0.87196 0.44876 0.01716 0.0
C608 C 0.87185 0.42679 0.12096 0.0
C609 C 0.8131 0.39452 0.15697 0.0
N610 N 0.87024 0.44187 0.0509 0.0
N611 N 0.81316 0.40067 0.12295 0.0
H612 H 0.43199 0.89688 0.16637 0.0
H613 H 0.40472 0.78957 0.33523 0.0
H614 H 0.37687 0.79063 0.1655 0.0
H615 H 0.45543 0.89577 0.33169 0.0
H616 H 0.39596 0.78814 0.27316 0.0
H617 H 0.4397 0.8959 0.22761 0.0
C618 C 0.42076 0.8733 0.17938 0.0
C619 C 0.40339 0.84383 0.16103 0.0
C620 C 0.40945 0.81173 0.28595 0.0
C621 C 0.41323 0.84231 0.23121 0.0
C622 C 0.41496 0.81253 0.32119 0.0
C623 C 0.43116 0.84286 0.33841 0.0
C624 C 0.42026 0.84147 0.26808 0.0
C625 C 0.44304 0.8719 0.3193 0.0
C626 C 0.42551 0.87269 0.21432 0.0
C627 C 0.38984 0.8139 0.17896 0.0
N628 N 0.43721 0.87047 0.28532 0.0
N629 N 0.39532 0.81385 0.21312 0.0
H630 H 0.52221 0.42093 0.33953 0.0
H631 H 0.61262 0.41009 0.50872 0.0
H632 H 0.58724 0.38074 0.33861 0.0
H633 H 0.54684 0.44942 0.50398 0.0
H634 H 0.60505 0.3992 0.44693 0.0
H635 H 0.52934 0.42839 0.40099 0.0
C636 C 0.53723 0.41274 0.3526 0.0
C637 C 0.55369 0.3997 0.33421 0.0
C638 C 0.59262 0.41057 0.45943 0.0
C639 C 0.56343 0.40961 0.40454 0.0
C640 C 0.59738 0.41728 0.49451 0.0
C641 C 0.58051 0.4309 0.51135 0.0
C642 C 0.57088 0.41758 0.44134 0.0
C643 C 0.56036 0.43896 0.49197 0.0
C644 C 0.54174 0.41743 0.38764 0.0
C645 C 0.57355 0.39019 0.35214 0.0
N646 N 0.55601 0.43204 0.4582 0.0
N647 N 0.5782 0.39568 0.38638 0.0
H648 H 0.94924 0.43162 0.25425 0.0
H649 H 0.04115 0.47432 0.41697 0.0
H650 H 0.89857 0.37849 0.34495 0.0
H651 H 0.09084 0.47254 0.32523 0.0
H652 H 0.9888 0.43224 0.3927 0.0
H653 H 0.00103 0.43978 0.27798 0.0
C654 C 0.949 0.42082 0.27877 0.0
C655 C 0.92 0.40482 0.29801 0.0
C656 C 0.01126 0.4401 0.3783 0.0
C657 C 0.97892 0.41489 0.3257 0.0
C658 C 0.04104 0.46418 0.3921 0.0
C659 C 0.06995 0.47697 0.37275 0.0
C660 C 0.01041 0.42996 0.34445 0.0
C661 C 0.06883 0.46323 0.34074 0.0
C662 C 0.97845 0.42531 0.29225 0.0
C663 C 0.92066 0.39114 0.32955 0.0
N664 N 0.03924 0.44113 0.32702 0.0
N665 N 0.94998 0.39743 0.34301 0.0
H666 H 0.50816 0.89899 0.51105 0.0
H667 H 0.60625 0.09402 0.48937 0.0
H668 H 0.50591 0.95078 0.42113 0.0
H669 H 0.55633 0.04292 0.58123 0.0
H670 H 0.59434 0.04107 0.46427 0.0
H671 H 0.55067 0.95168 0.53536 0.0
C672 C 0.51757 0.9213 0.49597 0.0
C673 C 0.50338 0.92099 0.46443 0.0
C674 C 0.58718 0.04176 0.49039 0.0
C675 C 0.55177 0.9805 0.49156 0.0
C676 C 0.594 0.07181 0.50469 0.0
C677 C 0.58172 0.07239 0.53707 0.0
C678 C 0.5685 0.01255 0.50898 0.0
C679 C 0.56574 0.04314 0.55596 0.0
C680 C 0.54167 0.95119 0.50981 0.0
C681 C 0.51606 0.95034 0.44581 0.0
N682 N 0.55918 0.0142 0.54145 0.0
N683 N 0.53936 0.97912 0.45984 0.0
H684 H 0.50964 0.612 0.65508 0.0
H685 H 0.6088 0.51683 0.68045 0.0
H686 H 0.51351 0.56574 0.7486 0.0
H687 H 0.55346 0.51163 0.59054 0.0
H688 H 0.59924 0.56031 0.70305 0.0
H689 H 0.55142 0.6009 0.63056 0.0
C690 C 0.52038 0.60081 0.67086 0.0
C691 C 0.50805 0.58923 0.70357 0.0
C692 C 0.59035 0.55047 0.67782 0.0
C693 C 0.55546 0.57688 0.67612 0.0
C694 C 0.59579 0.52582 0.66495 0.0
C695 C 0.58132 0.51051 0.63399 0.0
C696 C 0.57083 0.55994 0.6592 0.0
C697 C 0.5645 0.52266 0.61481 0.0
C698 C 0.54404 0.59444 0.6569 0.0
C699 C 0.5223 0.57459 0.72307 0.0
N700 N 0.55932 0.54648 0.62794 0.0
N701 N 0.54504 0.56839 0.70887 0.0
H702 H 0.03947 0.55699 0.7538 0.0
H703 H 0.94947 0.51921 0.91706 0.0
H704 H 0.0912 0.61355 0.84251 0.0
H705 H 0.89872 0.51854 0.82518 0.0
H706 H 0.00151 0.56076 0.89174 0.0
H707 H 0.98792 0.54947 0.7775 0.0
C708 C 0.03998 0.56864 0.77785 0.0
C709 C 0.06923 0.58546 0.79659 0.0
C710 C 0.97889 0.55251 0.87752 0.0
C711 C 0.01059 0.57617 0.82426 0.0
C712 C 0.94928 0.52875 0.89194 0.0
C713 C 0.92016 0.5154 0.87288 0.0
C714 C 0.97934 0.56172 0.84338 0.0
C715 C 0.92089 0.52833 0.84049 0.0
C716 C 0.01067 0.56453 0.7913 0.0
C717 C 0.06891 0.60025 0.82751 0.0
N718 N 0.95031 0.55008 0.8262 0.0
N719 N 0.03974 0.59434 0.84102 0.0
H720 H 0.48115 0.09438 0.01478 0.0
H721 H 0.3828 0.90008 0.98689 0.0
H722 H 0.48355 0.04517 0.92289 0.0
H723 H 0.43115 0.9484 0.08039 0.0
H724 H 0.39508 0.95376 0.96346 0.0
H725 H 0.4382 0.04109 0.03758 0.0
C726 C 0.47167 0.07253 0.99897 0.0
C727 C 0.48599 0.07369 0.96729 0.0
C728 C 0.40182 0.9523 0.98955 0.0
C729 C 0.43717 0.01351 0.9927 0.0
C730 C 0.39478 0.92183 0.0029 0.0
C731 C 0.40651 0.92029 0.03528 0.0
C732 C 0.42017 0.98094 0.00909 0.0
C733 C 0.42216 0.94895 0.0551 0.0
C734 C 0.44734 0.04229 0.01194 0.0
C735 C 0.47326 0.04491 0.94769 0.0
N736 N 0.42895 0.97831 0.04151 0.0
N737 N 0.44975 0.01579 0.96089 0.0
H738 H 0.43759 0.4814 0.08763 0.0
H739 H 0.47891 0.43214 0.25148 0.0
H740 H 0.3806 0.47483 0.17659 0.0
H741 H 0.48028 0.3819 0.15998 0.0
H742 H 0.437 0.44192 0.22585 0.0
H743 H 0.44759 0.43906 0.11172 0.0
C744 C 0.42638 0.47021 0.11181 0.0
C745 C 0.40868 0.48169 0.13049 0.0
C746 C 0.44556 0.42774 0.21177 0.0
C747 C 0.42078 0.43431 0.15857 0.0
C748 C 0.46955 0.42233 0.22634 0.0
C749 C 0.48311 0.40662 0.20751 0.0
C750 C 0.43626 0.41854 0.17773 0.0
C751 C 0.47035 0.39426 0.17511 0.0
C752 C 0.43192 0.44598 0.12549 0.0
C753 C 0.39453 0.46657 0.16161 0.0
N754 N 0.44829 0.40143 0.1607 0.0
N755 N 0.40179 0.4443 0.1753 0.0
H756 H 0.18403 0.53329 0.27698 0.0
H757 H 0.34802 0.53416 0.2269 0.0
H758 H 0.24321 0.51794 0.35093 0.0
H759 H 0.27389 0.51941 0.15271 0.0
H760 H 0.3093 0.52628 0.27255 0.0
H761 H 0.21536 0.52631 0.23122 0.0
C762 C 0.20344 0.52809 0.28359 0.0
C763 C 0.21121 0.52646 0.31785 0.0
C764 C 0.30127 0.5243 0.24633 0.0
C765 C 0.24755 0.51887 0.26543 0.0
C766 C 0.3234 0.52887 0.22021 0.0
C767 C 0.31423 0.52769 0.18593 0.0
C768 C 0.26984 0.51911 0.23822 0.0
C769 C 0.28197 0.52054 0.17878 0.0
C770 C 0.22126 0.52401 0.2574 0.0
C771 C 0.23643 0.51943 0.32488 0.0
N772 N 0.26108 0.51703 0.20472 0.0
N773 N 0.25405 0.5164 0.29889 0.0
H774 H 0.80637 0.34816 0.39357 0.0
H775 H 0.63978 0.18772 0.44396 0.0
H776 H 0.74497 0.27508 0.31941 0.0
H777 H 0.71575 0.24429 0.51765 0.0
H778 H 0.67828 0.21843 0.39808 0.0
H779 H 0.77447 0.30999 0.43924 0.0
C780 C 0.78634 0.32388 0.38689 0.0
C781 C 0.77814 0.31486 0.35261 0.0
C782 C 0.68673 0.2239 0.42423 0.0
C783 C 0.74114 0.27112 0.40493 0.0
C784 C 0.66473 0.20644 0.45049 0.0
C785 C 0.67451 0.21365 0.48472 0.0
C786 C 0.71868 0.24926 0.43216 0.0
C787 C 0.70718 0.23797 0.49163 0.0
C788 C 0.76819 0.30207 0.41302 0.0
C789 C 0.75211 0.28303 0.34548 0.0
N790 N 0.72797 0.25526 0.46558 0.0
N791 N 0.73419 0.26248 0.37143 0.0
H792 H 0.47274 0.72177 0.68732 0.0
H793 H 0.44605 0.8081 0.55914 0.0
H794 H 0.44082 0.64556 0.61092 0.0
H795 H 0.46473 0.74896 0.48824 0.0
H796 H 0.45302 0.77837 0.6063 0.0
H797 H 0.48004 0.76138 0.6425 0.0
C798 C 0.46742 0.71342 0.66113 0.0
C799 C 0.45563 0.6802 0.65296 0.0
C800 C 0.45653 0.77236 0.58058 0.0
C801 C 0.46322 0.72514 0.60157 0.0
C802 C 0.45221 0.78917 0.55352 0.0
C803 C 0.45473 0.78094 0.51967 0.0
C804 C 0.46312 0.74676 0.57386 0.0
C805 C 0.46271 0.75617 0.51395 0.0
C806 C 0.47125 0.73595 0.63555 0.0
C807 C 0.44946 0.67082 0.6185 0.0
N808 N 0.46605 0.73955 0.54078 0.0
N809 N 0.4532 0.6931 0.59415 0.0
H810 H 0.80566 0.45858 0.77896 0.0
H811 H 0.64058 0.45625 0.73012 0.0
H812 H 0.74621 0.47292 0.85341 0.0
H813 H 0.71414 0.47062 0.65537 0.0
H814 H 0.67965 0.46443 0.77547 0.0
H815 H 0.7738 0.46508 0.73346 0.0
C816 C 0.78608 0.46347 0.78574 0.0
C817 C 0.77839 0.46494 0.82007 0.0
C818 C 0.68748 0.46625 0.7492 0.0
C819 C 0.74143 0.47198 0.76792 0.0
C820 C 0.66514 0.46149 0.72324 0.0
C821 C 0.67404 0.46249 0.68889 0.0
C822 C 0.71887 0.47146 0.74086 0.0
C823 C 0.70625 0.46961 0.6815 0.0
C824 C 0.76794 0.46726 0.75969 0.0
C825 C 0.75294 0.47157 0.8273 0.0
N826 N 0.72736 0.47333 0.7073 0.0
N827 N 0.73502 0.47434 0.80144 0.0
H828 H 0.27097 0.74826 0.01734 0.0
H829 H 0.24271 0.71683 0.81566 0.0
H830 H 0.34564 0.80355 0.94201 0.0
H831 H 0.18412 0.64441 0.89167 0.0
H832 H 0.27426 0.7557 0.86155 0.0
H833 H 0.23246 0.71679 0.97116 0.0
C834 C 0.27907 0.75413 0.99112 0.0
C835 C 0.31162 0.77828 0.9835 0.0
C836 C 0.25423 0.7314 0.86811 0.0
C837 C 0.26785 0.7426 0.93069 0.0
C838 C 0.23614 0.70931 0.84195 0.0
C839 C 0.21102 0.67726 0.84988 0.0
C840 C 0.24679 0.72145 0.90236 0.0
C841 C 0.20357 0.66877 0.88441 0.0
C842 C 0.25719 0.7361 0.96481 0.0
C843 C 0.32086 0.78486 0.94905 0.0
N844 N 0.22143 0.69063 0.90933 0.0
N845 N 0.29918 0.76706 0.92396 0.0
H846 H 0.54309 0.35351 0.11296 0.0
H847 H 0.51719 0.24138 0.98394 0.0
H848 H 0.52352 0.27494 0.18325 0.0
H849 H 0.5485 0.19655 0.06034 0.0
H850 H 0.50949 0.27334 0.0289 0.0
H851 H 0.53643 0.31717 0.06553 0.0
C852 C 0.53683 0.32834 0.11839 0.0
C853 C 0.53395 0.31727 0.15216 0.0
C854 C 0.5182 0.25663 0.03581 0.0
C855 C 0.52591 0.27513 0.09765 0.0
C856 C 0.52225 0.23813 0.01015 0.0
C857 C 0.53403 0.21669 0.0183 0.0
C858 C 0.52597 0.2536 0.06983 0.0
C859 C 0.53988 0.2132 0.05279 0.0
C860 C 0.53268 0.30743 0.09117 0.0
C861 C 0.52584 0.28444 0.15762 0.0
N862 N 0.53593 0.23153 0.0772 0.0
N863 N 0.52267 0.26469 0.13064 0.0
loop_
_geom_bond_atom_site_label_1
_geom_bond_atom_site_label_2
_geom_bond_distance
_geom_bond_site_symmetry_2
_ccdc_geom_bond_type
Mn0 O5 2.095 . S
Mn0 O15 2.162 . S
Mn0 O16 2.297 . S
Mn0 O24 2.385 . S
Mn0 O25 2.209 . S
Mn0 O26 2.094 . S
Mn1 O6 2.121 . S
Mn1 N8 2.257 . S
Mn1 N17 2.282 . S
Mn1 O25 2.215 . S
Mn1 O27 2.117 . S
C2 O24 1.234 . S
C2 O25 1.283 . S
C3 O15 1.281 . S
C3 O16 1.236 . S
C4 O26 1.240 . S
C4 O27 1.264 . S
O5 Mn0 2.095 . S
O5 C14 1.250 . S
O6 Mn1 2.121 . S
O6 C14 1.258 . S
C7 N8 1.326 . S
C7 C11 1.460 . S
C7 H13 0.929 . S
N8 Mn1 2.257 . S
N8 C7 1.326 . S
N8 C12 1.362 . S
C9 C10 1.258 . S
C9 C12 1.431 . S
C9 C29 1.449 . S
C10 C9 1.258 . S
C10 C11 1.477 . S
C10 H30 0.931 . S
C11 C7 1.460 . S
C11 C10 1.477 . S
C11 H31 0.930 . S
C12 N8 1.362 . S
C12 C9 1.431 . S
C12 C22 1.476 . S
H13 C7 0.929 . S
C14 O5 1.250 . S
C14 O6 1.258 . S
O15 Mn0 2.162 . S
O15 C3 1.281 . S
O16 Mn0 2.297 . S
O16 C3 1.236 . S
N17 Mn1 2.282 . S
N17 C18 1.328 . S
N17 C22 1.318 . S
C18 N17 1.328 . S
C18 C19 1.457 . S
C18 H23 0.929 . S
C19 C18 1.457 . S
C19 C20 1.291 . S
C19 H32 0.931 . S
C20 C19 1.291 . S
C20 C21 1.373 . S
C20 H33 0.929 . S
C21 C20 1.373 . S
C21 C22 1.396 . S
C21 C28 1.403 . S
C22 C12 1.476 . S
C22 N17 1.318 . S
C22 C21 1.396 . S
H23 C18 0.929 . S
O24 Mn0 2.385 . S
O24 C2 1.234 . S
O25 Mn0 2.209 . S
O25 Mn1 2.215 . S
O25 C2 1.283 . S
O26 Mn0 2.094 . S
O26 C4 1.240 . S
O27 Mn1 2.117 . S
O27 C4 1.264 . S
C28 C21 1.403 . S
C28 C29 1.399 . S
C28 H34 0.929 . S
C29 C9 1.449 . S
C29 C28 1.399 . S
C29 H35 0.930 . S
H30 C10 0.931 . S
H31 C11 0.930 . S
H32 C19 0.931 . S
H33 C20 0.929 . S
H34 C28 0.929 . S
H35 C29 0.930 . S
Mn36 O41 2.095 . S
Mn36 O51 2.162 . S
Mn36 O52 2.297 . S
Mn36 O60 2.385 . S
Mn36 O61 2.209 . S
Mn36 O62 2.094 . S
Mn37 O42 2.121 . S
Mn37 N44 2.257 . S
Mn37 N53 2.282 . S
Mn37 O61 2.215 . S
Mn37 O63 2.117 . S
C38 O60 1.234 . S
C38 O61 1.283 . S
C39 O51 1.281 . S
C39 O52 1.236 . S
C40 O62 1.240 . S
C40 O63 1.264 . S
O41 Mn36 2.095 . S
O41 C50 1.250 . S
O42 Mn37 2.121 . S
O42 C50 1.258 . S
C43 N44 1.326 . S
C43 C47 1.460 . S
C43 H49 0.929 . S
N44 Mn37 2.257 . S
N44 C43 1.326 . S
N44 C48 1.362 . S
C45 C46 1.258 . S
C45 C48 1.431 . S
C45 C65 1.449 . S
C46 C45 1.258 . S
C46 C47 1.477 . S
C46 H66 0.931 . S
C47 C43 1.460 . S
C47 C46 1.477 . S
C47 H67 0.930 . S
C48 N44 1.362 . S
C48 C45 1.431 . S
C48 C58 1.476 . S
H49 C43 0.929 . S
C50 O41 1.250 . S
C50 O42 1.258 . S
O51 Mn36 2.162 . S
O51 C39 1.281 . S
O52 Mn36 2.297 . S
O52 C39 1.236 . S
N53 Mn37 2.282 . S
N53 C54 1.328 . S
N53 C58 1.318 . S
C54 N53 1.328 . S
C54 C55 1.457 . S
C54 H59 0.929 . S
C55 C54 1.457 . S
C55 C56 1.291 . S
C55 H68 0.931 . S
C56 C55 1.291 . S
C56 C57 1.373 . S
C56 H69 0.929 . S
C57 C56 1.373 . S
C57 C58 1.396 . S
C57 C64 1.403 . S
C58 C48 1.476 . S
C58 N53 1.318 . S
C58 C57 1.396 . S
H59 C54 0.929 . S
O60 Mn36 2.385 . S
O60 C38 1.234 . S
O61 Mn36 2.209 . S
O61 Mn37 2.215 . S
O61 C38 1.283 . S
O62 Mn36 2.094 . S
O62 C40 1.240 . S
O63 Mn37 2.117 . S
O63 C40 1.264 . S
C64 C57 1.403 . S
C64 C65 1.399 . S
C64 H70 0.929 . S
C65 C45 1.449 . S
C65 C64 1.399 . S
C65 H71 0.930 . S
H66 C46 0.931 . S
H67 C47 0.930 . S
H68 C55 0.931 . S
H69 C56 0.929 . S
H70 C64 0.929 . S
H71 C65 0.930 . S
Mn72 O77 2.095 . S
Mn72 O87 2.162 . S
Mn72 O88 2.297 . S
Mn72 O96 2.385 . S
Mn72 O97 2.209 . S
Mn72 O98 2.094 . S
Mn73 O78 2.121 . S
Mn73 N80 2.257 . S
Mn73 N89 2.282 . S
Mn73 O97 2.215 . S
Mn73 O99 2.117 . S
C74 O96 1.234 . S
C74 O97 1.283 . S
C75 O87 1.281 . S
C75 O88 1.236 . S
C76 O98 1.240 . S
C76 O99 1.264 . S
O77 Mn72 2.095 . S
O77 C86 1.250 . S
O78 Mn73 2.121 . S
O78 C86 1.258 . S
C79 N80 1.326 . S
C79 C83 1.460 . S
C79 H85 0.929 . S
N80 Mn73 2.257 . S
N80 C79 1.326 . S
N80 C84 1.362 . S
C81 C82 1.258 . S
C81 C84 1.431 . S
C81 C101 1.449 . S
C82 C81 1.258 . S
C82 C83 1.477 . S
C82 H102 0.931 . S
C83 C79 1.460 . S
C83 C82 1.477 . S
C83 H103 0.930 . S
C84 N80 1.362 . S
C84 C81 1.431 . S
C84 C94 1.476 . S
H85 C79 0.929 . S
C86 O77 1.250 . S
C86 O78 1.258 . S
O87 Mn72 2.162 . S
O87 C75 1.281 . S
O88 Mn72 2.297 . S
O88 C75 1.236 . S
N89 Mn73 2.282 . S
N89 C90 1.328 . S
N89 C94 1.318 . S
C90 N89 1.328 . S
C90 C91 1.457 . S
C90 H95 0.929 . S
C91 C90 1.457 . S
C91 C92 1.291 . S
C91 H104 0.931 . S
C92 C91 1.291 . S
C92 C93 1.373 . S
C92 H105 0.929 . S
C93 C92 1.373 . S
C93 C94 1.396 . S
C93 C100 1.403 . S
C94 C84 1.476 . S
C94 N89 1.318 . S
C94 C93 1.396 . S
H95 C90 0.929 . S
O96 Mn72 2.385 . S
O96 C74 1.234 . S
O97 Mn72 2.209 . S
O97 Mn73 2.215 . S
O97 C74 1.283 . S
O98 Mn72 2.094 . S
O98 C76 1.240 . S
O99 Mn73 2.117 . S
O99 C76 1.264 . S
C100 C93 1.403 . S
C100 C101 1.399 . S
C100 H106 0.929 . S
C101 C81 1.449 . S
C101 C100 1.399 . S
C101 H107 0.930 . S
H102 C82 0.931 . S
H103 C83 0.930 . S
H104 C91 0.931 . S
H105 C92 0.929 . S
H106 C100 0.929 . S
H107 C101 0.930 . S
Mn108 O113 2.095 . S
Mn108 O123 2.162 . S
Mn108 O124 2.297 . S
Mn108 O132 2.385 . S
Mn108 O133 2.209 . S
Mn108 O134 2.094 . S
Mn109 O114 2.121 . S
Mn109 N116 2.257 . S
Mn109 N125 2.282 . S
Mn109 O133 2.215 . S
Mn109 O135 2.117 . S
C110 O132 1.234 . S
C110 O133 1.283 . S
C111 O123 1.281 . S
C111 O124 1.236 . S
C112 O134 1.240 . S
C112 O135 1.264 . S
O113 Mn108 2.095 . S
O113 C122 1.250 . S
O114 Mn109 2.121 . S
O114 C122 1.258 . S
C115 N116 1.326 . S
C115 C119 1.460 . S
C115 H121 0.929 . S
N116 Mn109 2.257 . S
N116 C115 1.326 . S
N116 C120 1.362 . S
C117 C118 1.258 . S
C117 C120 1.431 . S
C117 C137 1.449 . S
C118 C117 1.258 . S
C118 C119 1.477 . S
C118 H138 0.931 . S
C119 C115 1.460 . S
C119 C118 1.477 . S
C119 H139 0.930 . S
C120 N116 1.362 . S
C120 C117 1.431 . S
C120 C130 1.476 . S
H121 C115 0.929 . S
C122 O113 1.250 . S
C122 O114 1.258 . S
O123 Mn108 2.162 . S
O123 C111 1.281 . S
O124 Mn108 2.297 . S
O124 C111 1.236 . S
N125 Mn109 2.282 . S
N125 C126 1.328 . S
N125 C130 1.318 . S
C126 N125 1.328 . S
C126 C127 1.457 . S
C126 H131 0.929 . S
C127 C126 1.457 . S
C127 C128 1.291 . S
C127 H140 0.931 1_556 S
C128 C127 1.291 . S
C128 C129 1.373 . S
C128 H141 0.928 . S
C129 C128 1.373 . S
C129 C130 1.396 . S
C129 C136 1.403 . S
C130 C120 1.476 . S
C130 N125 1.318 . S
C130 C129 1.396 . S
H131 C126 0.929 . S
O132 Mn108 2.385 . S
O132 C110 1.234 . S
O133 Mn108 2.209 . S
O133 Mn109 2.215 . S
O133 C110 1.283 . S
O134 Mn108 2.094 . S
O134 C112 1.240 . S
O135 Mn109 2.117 . S
O135 C112 1.264 . S
C136 C129 1.403 . S
C136 C137 1.399 . S
C136 H142 0.929 . S
C137 C117 1.449 . S
C137 C136 1.399 . S
C137 H143 0.930 . S
H138 C118 0.931 . S
H139 C119 0.930 . S
H140 C127 0.931 1_554 S
H141 C128 0.928 . S
H142 C136 0.929 . S
H143 C137 0.930 . S
Mn144 O149 2.095 . S
Mn144 O159 2.162 . S
Mn144 O160 2.297 . S
Mn144 O168 2.385 . S
Mn144 O169 2.209 . S
Mn144 O170 2.094 . S
Mn145 O150 2.121 . S
Mn145 N152 2.257 . S
Mn145 N161 2.282 . S
Mn145 O169 2.215 . S
Mn145 O171 2.117 . S
C146 O168 1.234 . S
C146 O169 1.283 . S
C147 O159 1.281 . S
C147 O160 1.236 . S
C148 O170 1.240 . S
C148 O171 1.264 . S
O149 Mn144 2.095 . S
O149 C158 1.250 . S
O150 Mn145 2.121 . S
O150 C158 1.258 . S
C151 N152 1.326 . S
C151 C155 1.460 . S
C151 H157 0.929 . S
N152 Mn145 2.257 . S
N152 C151 1.326 . S
N152 C156 1.362 . S
C153 C154 1.258 . S
C153 C156 1.431 . S
C153 C173 1.449 . S
C154 C153 1.258 . S
C154 C155 1.477 . S
C154 H174 0.931 . S
C155 C151 1.460 . S
C155 C154 1.477 . S
C155 H175 0.930 . S
C156 N152 1.362 . S
C156 C153 1.431 . S
C156 C166 1.476 . S
H157 C151 0.929 . S
C158 O149 1.250 . S
C158 O150 1.258 . S
O159 Mn144 2.162 . S
O159 C147 1.281 . S
O160 Mn144 2.297 . S
O160 C147 1.236 . S
N161 Mn145 2.282 . S
N161 C162 1.328 . S
N161 C166 1.318 . S
C162 N161 1.328 . S
C162 C163 1.457 . S
C162 H167 0.929 . S
C163 C162 1.457 . S
C163 C164 1.291 . S
C163 H176 0.931 . S
C164 C163 1.291 . S
C164 C165 1.373 . S
C164 H177 0.929 . S
C165 C164 1.373 . S
C165 C166 1.396 . S
C165 C172 1.403 . S
C166 C156 1.476 . S
C166 N161 1.318 . S
C166 C165 1.396 . S
H167 C162 0.929 . S
O168 Mn144 2.385 . S
O168 C146 1.234 . S
O169 Mn144 2.209 . S
O169 Mn145 2.215 . S
O169 C146 1.283 . S
O170 Mn144 2.094 . S
O170 C148 1.240 . S
O171 Mn145 2.117 . S
O171 C148 1.264 . S
C172 C165 1.403 . S
C172 C173 1.399 . S
C172 H178 0.929 . S
C173 C153 1.449 . S
C173 C172 1.399 . S
C173 H179 0.930 . S
H174 C154 0.931 . S
H175 C155 0.930 . S
H176 C163 0.931 . S
H177 C164 0.929 . S
H178 C172 0.929 . S
H179 C173 0.930 . S
Mn180 O185 2.095 . S
Mn180 O195 2.162 . S
Mn180 O196 2.297 . S
Mn180 O204 2.385 . S
Mn180 O205 2.209 . S
Mn180 O206 2.094 . S
Mn181 O186 2.121 . S
Mn181 N188 2.257 . S
Mn181 N197 2.282 . S
Mn181 O205 2.215 . S
Mn181 O207 2.117 . S
C182 O204 1.234 . S
C182 O205 1.283 . S
C183 O195 1.281 . S
C183 O196 1.236 . S
C184 O206 1.240 . S
C184 O207 1.264 . S
O185 Mn180 2.095 . S
O185 C194 1.250 . S
O186 Mn181 2.121 . S
O186 C194 1.258 . S
C187 N188 1.326 . S
C187 C191 1.460 . S
C187 H193 0.929 . S
N188 Mn181 2.257 . S
N188 C187 1.326 . S
N188 C192 1.362 . S
C189 C190 1.258 . S
C189 C192 1.431 . S
C189 C209 1.449 . S
C190 C189 1.258 . S
C190 C191 1.477 . S
C190 H210 0.931 . S
C191 C187 1.460 . S
C191 C190 1.477 . S
C191 H211 0.930 . S
C192 N188 1.362 . S
C192 C189 1.431 . S
C192 C202 1.476 . S
H193 C187 0.929 . S
C194 O185 1.250 . S
C194 O186 1.258 . S
O195 Mn180 2.162 . S
O195 C183 1.281 . S
O196 Mn180 2.297 . S
O196 C183 1.236 . S
N197 Mn181 2.282 . S
N197 C198 1.328 . S
N197 C202 1.318 . S
C198 N197 1.328 . S
C198 C199 1.457 . S
C198 H203 0.929 . S
C199 C198 1.457 . S
C199 C200 1.291 . S
C199 H212 0.931 . S
C200 C199 1.291 . S
C200 C201 1.373 . S
C200 H213 0.929 . S
C201 C200 1.373 . S
C201 C202 1.396 . S
C201 C208 1.403 . S
C202 C192 1.476 . S
C202 N197 1.318 . S
C202 C201 1.396 . S
H203 C198 0.929 . S
O204 Mn180 2.385 . S
O204 C182 1.234 . S
O205 Mn180 2.209 . S
O205 Mn181 2.215 . S
O205 C182 1.283 . S
O206 Mn180 2.094 . S
O206 C184 1.240 . S
O207 Mn181 2.117 . S
O207 C184 1.264 . S
C208 C201 1.403 . S
C208 C209 1.399 . S
C208 H214 0.929 . S
C209 C189 1.449 . S
C209 C208 1.399 . S
C209 H215 0.930 . S
H210 C190 0.931 . S
H211 C191 0.930 . S
H212 C199 0.931 . S
H213 C200 0.929 . S
H214 C208 0.929 . S
H215 C209 0.930 . S
Mn216 O221 2.095 . S
Mn216 O231 2.162 . S
Mn216 O232 2.297 . S
Mn216 O240 2.385 . S
Mn216 O241 2.209 . S
Mn216 O242 2.094 . S
Mn217 O222 2.121 . S
Mn217 N224 2.257 . S
Mn217 N233 2.282 . S
Mn217 O241 2.215 . S
Mn217 O243 2.117 . S
C218 O240 1.234 . S
C218 O241 1.283 . S
C219 O231 1.281 . S
C219 O232 1.236 . S
C220 O242 1.240 . S
C220 O243 1.264 . S
O221 Mn216 2.095 . S
O221 C230 1.250 . S
O222 Mn217 2.121 . S
O222 C230 1.258 . S
C223 N224 1.326 . S
C223 C227 1.460 . S
C223 H229 0.929 . S
N224 Mn217 2.257 . S
N224 C223 1.326 . S
N224 C228 1.362 . S
C225 C226 1.258 . S
C225 C228 1.431 . S
C225 C245 1.449 . S
C226 C225 1.258 . S
C226 C227 1.477 . S
C226 H246 0.931 . S
C227 C223 1.460 . S
C227 C226 1.477 . S
C227 H247 0.930 . S
C228 N224 1.362 . S
C228 C225 1.431 . S
C228 C238 1.476 . S
H229 C223 0.929 . S
C230 O221 1.250 . S
C230 O222 1.258 . S
O231 Mn216 2.162 . S
O231 C219 1.281 . S
O232 Mn216 2.297 . S
O232 C219 1.236 . S
N233 Mn217 2.282 . S
N233 C234 1.328 . S
N233 C238 1.318 . S
C234 N233 1.328 . S
C234 C235 1.457 . S
C234 H239 0.929 . S
C235 C234 1.457 . S
C235 C236 1.291 . S
C235 H248 0.931 . S
C236 C235 1.291 . S
C236 C237 1.373 . S
C236 H249 0.929 . S
C237 C236 1.373 . S
C237 C238 1.396 . S
C237 C244 1.403 . S
C238 C228 1.476 . S
C238 N233 1.318 . S
C238 C237 1.396 . S
H239 C234 0.929 . S
O240 Mn216 2.385 . S
O240 C218 1.234 . S
O241 Mn216 2.209 . S
O241 Mn217 2.215 . S
O241 C218 1.283 . S
O242 Mn216 2.094 . S
O242 C220 1.240 . S
O243 Mn217 2.117 . S
O243 C220 1.264 . S
C244 C237 1.403 . S
C244 C245 1.399 . S
C244 H250 0.929 . S
C245 C225 1.449 . S
C245 C244 1.399 . S
C245 H251 0.930 . S
H246 C226 0.931 . S
H247 C227 0.930 . S
H248 C235 0.931 . S
H249 C236 0.929 . S
H250 C244 0.929 . S
H251 C245 0.930 . S
Mn252 O257 2.095 . S
Mn252 O267 2.162 . S
Mn252 O268 2.297 . S
Mn252 O276 2.385 . S
Mn252 O277 2.209 . S
Mn252 O278 2.094 . S
Mn253 O258 2.121 . S
Mn253 N260 2.257 . S
Mn253 N269 2.282 . S
Mn253 O277 2.215 . S
Mn253 O279 2.117 . S
C254 O276 1.234 . S
C254 O277 1.283 . S
C255 O267 1.281 . S
C255 O268 1.236 . S
C256 O278 1.240 . S
C256 O279 1.264 . S
O257 Mn252 2.095 . S
O257 C266 1.250 . S
O258 Mn253 2.121 . S
O258 C266 1.258 . S
C259 N260 1.326 . S
C259 C263 1.460 . S
C259 H265 0.929 . S
N260 Mn253 2.257 . S
N260 C259 1.326 . S
N260 C264 1.362 . S
C261 C262 1.258 . S
C261 C264 1.431 . S
C261 C281 1.449 . S
C262 C261 1.258 . S
C262 C263 1.477 . S
C262 H282 0.931 . S
C263 C259 1.460 . S
C263 C262 1.477 . S
C263 H283 0.930 . S
C264 N260 1.362 . S
C264 C261 1.431 . S
C264 C274 1.476 . S
H265 C259 0.929 . S
C266 O257 1.250 . S
C266 O258 1.258 . S
O267 Mn252 2.162 . S
O267 C255 1.281 . S
O268 Mn252 2.297 . S
O268 C255 1.236 . S
N269 Mn253 2.282 . S
N269 C270 1.328 . S
N269 C274 1.318 . S
C270 N269 1.328 . S
C270 C271 1.457 . S
C270 H275 0.929 . S
C271 C270 1.457 . S
C271 C272 1.291 . S
C271 H284 0.931 . S
C272 C271 1.291 . S
C272 C273 1.373 . S
C272 H285 0.929 . S
C273 C272 1.373 . S
C273 C274 1.396 . S
C273 C280 1.403 . S
C274 C264 1.476 . S
C274 N269 1.318 . S
C274 C273 1.396 . S
H275 C270 0.929 . S
O276 Mn252 2.385 . S
O276 C254 1.234 . S
O277 Mn252 2.209 . S
O277 Mn253 2.215 . S
O277 C254 1.283 . S
O278 Mn252 2.094 . S
O278 C256 1.240 . S
O279 Mn253 2.117 . S
O279 C256 1.264 . S
C280 C273 1.403 . S
C280 C281 1.399 . S
C280 H286 0.929 . S
C281 C261 1.449 . S
C281 C280 1.399 . S
C281 H287 0.930 . S
H282 C262 0.931 . S
H283 C263 0.930 . S
H284 C271 0.931 . S
H285 C272 0.929 . S
H286 C280 0.929 . S
H287 C281 0.930 . S
Mn288 O293 2.095 . S
Mn288 O303 2.162 . S
Mn288 O304 2.297 . S
Mn288 O312 2.385 . S
Mn288 O313 2.209 . S
Mn288 O314 2.094 . S
Mn289 O294 2.121 . S
Mn289 N296 2.257 . S
Mn289 N305 2.282 . S
Mn289 O313 2.215 . S
Mn289 O315 2.117 . S
C290 O312 1.234 . S
C290 O313 1.283 . S
C291 O303 1.281 . S
C291 O304 1.236 . S
C292 O314 1.240 . S
C292 O315 1.264 . S
O293 Mn288 2.095 . S
O293 C302 1.250 . S
O294 Mn289 2.121 . S
O294 C302 1.258 . S
C295 N296 1.326 . S
C295 C299 1.460 . S
C295 H301 0.929 . S
N296 Mn289 2.257 . S
N296 C295 1.326 . S
N296 C300 1.362 . S
C297 C298 1.258 . S
C297 C300 1.431 . S
C297 C317 1.449 . S
C298 C297 1.258 . S
C298 C299 1.477 . S
C298 H318 0.931 . S
C299 C295 1.460 . S
C299 C298 1.477 . S
C299 H319 0.930 . S
C300 N296 1.362 . S
C300 C297 1.431 . S
C300 C310 1.476 . S
H301 C295 0.929 . S
C302 O293 1.250 . S
C302 O294 1.258 . S
O303 Mn288 2.162 . S
O303 C291 1.281 . S
O304 Mn288 2.297 . S
O304 C291 1.236 . S
N305 Mn289 2.282 . S
N305 C306 1.328 . S
N305 C310 1.318 . S
C306 N305 1.328 . S
C306 C307 1.457 . S
C306 H311 0.929 . S
C307 C306 1.457 . S
C307 C308 1.291 . S
C307 H320 0.931 . S
C308 C307 1.291 . S
C308 C309 1.373 . S
C308 H321 0.929 . S
C309 C308 1.373 . S
C309 C310 1.396 . S
C309 C316 1.403 . S
C310 C300 1.476 . S
C310 N305 1.318 . S
C310 C309 1.396 . S
H311 C306 0.929 . S
O312 Mn288 2.385 . S
O312 C290 1.234 . S
O313 Mn288 2.209 . S
O313 Mn289 2.215 . S
O313 C290 1.283 . S
O314 Mn288 2.094 . S
O314 C292 1.240 . S
O315 Mn289 2.117 . S
O315 C292 1.264 . S
C316 C309 1.403 . S
C316 C317 1.399 . S
C316 H322 0.929 . S
C317 C297 1.449 . S
C317 C316 1.399 . S
C317 H323 0.930 . S
H318 C298 0.931 . S
H319 C299 0.930 . S
H320 C307 0.931 . S
H321 C308 0.929 . S
H322 C316 0.929 . S
H323 C317 0.930 . S
Mn324 O329 2.095 . S
Mn324 O339 2.162 . S
Mn324 O340 2.297 . S
Mn324 O348 2.385 . S
Mn324 O349 2.209 . S
Mn324 O350 2.094 . S
Mn325 O330 2.121 . S
Mn325 N332 2.257 . S
Mn325 N341 2.282 . S
Mn325 O349 2.215 . S
Mn325 O351 2.117 . S
C326 O348 1.234 . S
C326 O349 1.283 . S
C327 O339 1.281 . S
C327 O340 1.236 . S
C328 O350 1.240 . S
C328 O351 1.264 . S
O329 Mn324 2.095 . S
O329 C338 1.250 . S
O330 Mn325 2.121 . S
O330 C338 1.258 . S
C331 N332 1.326 . S
C331 C335 1.460 . S
C331 H337 0.929 . S
N332 Mn325 2.257 . S
N332 C331 1.326 . S
N332 C336 1.362 . S
C333 C334 1.258 . S
C333 C336 1.431 . S
C333 C353 1.449 . S
C334 C333 1.258 . S
C334 C335 1.477 . S
C334 H354 0.931 . S
C335 C331 1.460 . S
C335 C334 1.477 . S
C335 H355 0.930 . S
C336 N332 1.362 . S
C336 C333 1.431 . S
C336 C346 1.476 . S
H337 C331 0.929 . S
C338 O329 1.250 . S
C338 O330 1.258 . S
O339 Mn324 2.162 . S
O339 C327 1.281 . S
O340 Mn324 2.297 . S
O340 C327 1.236 . S
N341 Mn325 2.282 . S
N341 C342 1.328 . S
N341 C346 1.318 . S
C342 N341 1.328 . S
C342 C343 1.457 . S
C342 H347 0.929 . S
C343 C342 1.457 . S
C343 C344 1.291 . S
C343 H356 0.931 . S
C344 C343 1.291 . S
C344 C345 1.373 . S
C344 H357 0.929 . S
C345 C344 1.373 . S
C345 C346 1.396 . S
C345 C352 1.403 . S
C346 C336 1.476 . S
C346 N341 1.318 . S
C346 C345 1.396 . S
H347 C342 0.929 . S
O348 Mn324 2.385 . S
O348 C326 1.234 . S
O349 Mn324 2.209 . S
O349 Mn325 2.215 . S
O349 C326 1.283 . S
O350 Mn324 2.094 . S
O350 C328 1.240 . S
O351 Mn325 2.117 . S
O351 C328 1.264 . S
C352 C345 1.403 . S
C352 C353 1.399 . S
C352 H358 0.929 . S
C353 C333 1.449 . S
C353 C352 1.399 . S
C353 H359 0.930 . S
H354 C334 0.931 . S
H355 C335 0.930 . S
H356 C343 0.931 . S
H357 C344 0.929 . S
H358 C352 0.929 . S
H359 C353 0.930 . S
Mn360 O365 2.095 . S
Mn360 O375 2.162 . S
Mn360 O376 2.297 . S
Mn360 O384 2.385 . S
Mn360 O385 2.209 . S
Mn360 O386 2.094 . S
Mn361 O366 2.121 . S
Mn361 N368 2.257 . S
Mn361 N377 2.282 . S
Mn361 O385 2.215 . S
Mn361 O387 2.117 . S
C362 O384 1.234 . S
C362 O385 1.283 . S
C363 O375 1.281 . S
C363 O376 1.236 . S
C364 O386 1.240 . S
C364 O387 1.264 . S
O365 Mn360 2.095 . S
O365 C374 1.250 . S
O366 Mn361 2.121 . S
O366 C374 1.258 . S
C367 N368 1.326 . S
C367 C371 1.460 . S
C367 H373 0.929 . S
N368 Mn361 2.257 . S
N368 C367 1.326 . S
N368 C372 1.362 . S
C369 C370 1.258 . S
C369 C372 1.431 . S
C369 C389 1.449 . S
C370 C369 1.258 . S
C370 C371 1.477 . S
C370 H390 0.931 . S
C371 C367 1.460 . S
C371 C370 1.477 . S
C371 H391 0.930 . S
C372 N368 1.362 . S
C372 C369 1.431 . S
C372 C382 1.476 . S
H373 C367 0.929 . S
C374 O365 1.250 . S
C374 O366 1.258 . S
O375 Mn360 2.162 . S
O375 C363 1.281 . S
O376 Mn360 2.297 . S
O376 C363 1.236 . S
N377 Mn361 2.282 . S
N377 C378 1.328 . S
N377 C382 1.318 . S
C378 N377 1.328 . S
C378 C379 1.457 . S
C378 H383 0.929 . S
C379 C378 1.457 . S
C379 C380 1.291 . S
C379 H392 0.931 1_554 S
C380 C379 1.291 . S
C380 C381 1.373 . S
C380 H393 0.928 . S
C381 C380 1.373 . S
C381 C382 1.396 . S
C381 C388 1.403 . S
C382 C372 1.476 . S
C382 N377 1.318 . S
C382 C381 1.396 . S
H383 C378 0.929 . S
O384 Mn360 2.385 . S
O384 C362 1.234 . S
O385 Mn360 2.209 . S
O385 Mn361 2.215 . S
O385 C362 1.283 . S
O386 Mn360 2.094 . S
O386 C364 1.240 . S
O387 Mn361 2.117 . S
O387 C364 1.264 . S
C388 C381 1.403 . S
C388 C389 1.399 . S
C388 H394 0.929 . S
C389 C369 1.449 . S
C389 C388 1.399 . S
C389 H395 0.930 . S
H390 C370 0.931 . S
H391 C371 0.930 . S
H392 C379 0.931 1_556 S
H393 C380 0.928 . S
H394 C388 0.929 . S
H395 C389 0.930 . S
Mn396 O401 2.095 . S
Mn396 O411 2.162 . S
Mn396 O412 2.297 . S
Mn396 O420 2.385 . S
Mn396 O421 2.209 . S
Mn396 O422 2.094 . S
Mn397 O402 2.121 . S
Mn397 N404 2.257 . S
Mn397 N413 2.282 . S
Mn397 O421 2.215 . S
Mn397 O423 2.117 . S
C398 O420 1.234 . S
C398 O421 1.283 . S
C399 O411 1.281 . S
C399 O412 1.236 . S
C400 O422 1.240 . S
C400 O423 1.264 . S
O401 Mn396 2.095 . S
O401 C410 1.250 . S
O402 Mn397 2.121 . S
O402 C410 1.258 . S
C403 N404 1.326 . S
C403 C407 1.460 . S
C403 H409 0.929 . S
N404 Mn397 2.257 . S
N404 C403 1.326 . S
N404 C408 1.362 . S
C405 C406 1.258 . S
C405 C408 1.431 . S
C405 C425 1.449 . S
C406 C405 1.258 . S
C406 C407 1.477 . S
C406 H426 0.931 . S
C407 C403 1.460 . S
C407 C406 1.477 . S
C407 H427 0.930 . S
C408 N404 1.362 . S
C408 C405 1.431 . S
C408 C418 1.476 . S
H409 C403 0.929 . S
C410 O401 1.250 . S
C410 O402 1.258 . S
O411 Mn396 2.162 . S
O411 C399 1.281 . S
O412 Mn396 2.297 . S
O412 C399 1.236 . S
N413 Mn397 2.282 . S
N413 C414 1.328 . S
N413 C418 1.318 . S
C414 N413 1.328 . S
C414 C415 1.457 . S
C414 H419 0.929 . S
C415 C414 1.457 . S
C415 C416 1.291 . S
C415 H428 0.931 . S
C416 C415 1.291 . S
C416 C417 1.373 . S
C416 H429 0.929 . S
C417 C416 1.373 . S
C417 C418 1.396 . S
C417 C424 1.403 . S
C418 C408 1.476 . S
C418 N413 1.318 . S
C418 C417 1.396 . S
H419 C414 0.929 . S
O420 Mn396 2.385 . S
O420 C398 1.234 . S
O421 Mn396 2.209 . S
O421 Mn397 2.215 . S
O421 C398 1.283 . S
O422 Mn396 2.094 . S
O422 C400 1.240 . S
O423 Mn397 2.117 . S
O423 C400 1.264 . S
C424 C417 1.403 . S
C424 C425 1.399 . S
C424 H430 0.929 . S
C425 C405 1.449 . S
C425 C424 1.399 . S
C425 H431 0.930 . S
H426 C406 0.931 . S
H427 C407 0.930 . S
H428 C415 0.931 . S
H429 C416 0.929 . S
H430 C424 0.929 . S
H431 C425 0.930 . S
H432 C438 0.930 . S
H433 C442 0.930 . S
H434 C447 0.929 . S
H435 C445 0.929 . S
H436 C440 0.929 . S
H437 C446 0.929 . S
C438 H432 0.930 . S
C438 C439 1.367 . S
C438 C446 1.378 . S
C439 C438 1.367 . S
C439 C447 1.433 . S
C440 H436 0.929 . S
C440 C442 1.378 . S
C440 C444 1.350 . S
C441 C444 1.463 . S
C441 C446 1.350 . S
C441 N449 1.427 . S
C442 H433 0.930 . S
C442 C440 1.378 . S
C442 C443 1.367 . S
C443 C442 1.367 . S
C443 C445 1.433 . S
C444 C440 1.350 . S
C444 C441 1.463 . S
C444 N448 1.427 . S
C445 H435 0.929 . S
C445 C443 1.433 . S
C445 N448 1.384 . S
C446 H437 0.929 . S
C446 C438 1.378 . S
C446 C441 1.350 . S
C447 H434 0.929 . S
C447 C439 1.433 . S
C447 N449 1.384 . S
N448 C444 1.427 . S
N448 C445 1.384 . S
N449 C441 1.427 . S
N449 C447 1.384 . S
H450 C456 0.930 . S
H451 C460 0.930 . S
H452 C465 0.929 . S
H453 C463 0.929 . S
H454 C458 0.929 . S
H455 C464 0.929 . S
C456 H450 0.930 . S
C456 C457 1.367 . S
C456 C464 1.378 . S
C457 C456 1.367 . S
C457 C465 1.433 . S
C458 H454 0.929 . S
C458 C460 1.378 . S
C458 C462 1.350 . S
C459 C462 1.463 . S
C459 C464 1.350 . S
C459 N467 1.427 . S
C460 H451 0.930 . S
C460 C458 1.378 . S
C460 C461 1.367 . S
C461 C460 1.367 . S
C461 C463 1.433 . S
C462 C458 1.350 . S
C462 C459 1.463 . S
C462 N466 1.427 . S
C463 H453 0.929 . S
C463 C461 1.433 . S
C463 N466 1.384 . S
C464 H455 0.929 . S
C464 C456 1.378 . S
C464 C459 1.350 . S
C465 H452 0.929 . S
C465 C457 1.433 . S
C465 N467 1.384 . S
N466 C462 1.427 . S
N466 C463 1.384 . S
N467 C459 1.427 . S
N467 C465 1.384 . S
H468 C474 0.930 . S
H469 C478 0.930 . S
H470 C483 0.929 . S
H471 C481 0.929 . S
H472 C476 0.929 . S
H473 C482 0.929 . S
C474 H468 0.930 . S
C474 C475 1.367 . S
C474 C482 1.378 . S
C475 C474 1.367 . S
C475 C483 1.433 . S
C476 H472 0.929 . S
C476 C478 1.378 . S
C476 C480 1.350 . S
C477 C480 1.463 . S
C477 C482 1.350 . S
C477 N485 1.427 . S
C478 H469 0.930 . S
C478 C476 1.378 . S
C478 C479 1.367 . S
C479 C478 1.367 . S
C479 C481 1.433 . S
C480 C476 1.350 . S
C480 C477 1.463 . S
C480 N484 1.427 . S
C481 H471 0.929 . S
C481 C479 1.433 . S
C481 N484 1.384 . S
C482 H473 0.929 . S
C482 C474 1.378 . S
C482 C477 1.350 . S
C483 H470 0.929 . S
C483 C475 1.433 . S
C483 N485 1.384 . S
N484 C480 1.427 . S
N484 C481 1.384 . S
N485 C477 1.427 . S
N485 C483 1.384 . S
H486 C492 0.930 . S
H487 C496 0.930 . S
H488 C501 0.929 . S
H489 C499 0.929 . S
H490 C494 0.929 . S
H491 C500 0.929 . S
C492 H486 0.930 . S
C492 C493 1.367 . S
C492 C500 1.378 . S
C493 C492 1.367 . S
C493 C501 1.433 . S
C494 H490 0.929 . S
C494 C496 1.378 . S
C494 C498 1.350 . S
C495 C498 1.463 . S
C495 C500 1.350 . S
C495 N503 1.427 . S
C496 H487 0.930 . S
C496 C494 1.378 . S
C496 C497 1.367 . S
C497 C496 1.367 . S
C497 C499 1.433 . S
C498 C494 1.350 . S
C498 C495 1.463 . S
C498 N502 1.427 . S
C499 H489 0.929 . S
C499 C497 1.433 . S
C499 N502 1.384 . S
C500 H491 0.929 . S
C500 C492 1.378 . S
C500 C495 1.350 . S
C501 H488 0.929 . S
C501 C493 1.433 . S
C501 N503 1.384 . S
N502 C498 1.427 . S
N502 C499 1.384 . S
N503 C495 1.427 . S
N503 C501 1.384 . S
H504 C510 0.930 . S
H505 C514 0.930 . S
H506 C519 0.929 . S
H507 C517 0.929 . S
H508 C512 0.929 . S
H509 C518 0.929 . S
C510 H504 0.930 . S
C510 C511 1.367 . S
C510 C518 1.378 . S
C511 C510 1.367 . S
C511 C519 1.433 . S
C512 H508 0.929 . S
C512 C514 1.378 . S
C512 C516 1.350 . S
C513 C516 1.463 . S
C513 C518 1.350 . S
C513 N521 1.427 . S
C514 H505 0.930 . S
C514 C512 1.378 . S
C514 C515 1.367 . S
C515 C514 1.367 . S
C515 C517 1.433 . S
C516 C512 1.350 . S
C516 C513 1.463 . S
C516 N520 1.427 . S
C517 H507 0.929 . S
C517 C515 1.433 . S
C517 N520 1.384 . S
C518 H509 0.929 . S
C518 C510 1.378 . S
C518 C513 1.350 . S
C519 H506 0.929 . S
C519 C511 1.433 . S
C519 N521 1.384 . S
N520 C516 1.427 . S
N520 C517 1.384 . S
N521 C513 1.427 . S
N521 C519 1.384 . S
H522 C528 0.930 . S
H523 C532 0.930 . S
H524 C537 0.929 . S
H525 C535 0.929 . S
H526 C530 0.929 . S
H527 C536 0.929 . S
C528 H522 0.930 . S
C528 C529 1.367 . S
C528 C536 1.378 . S
C529 C528 1.367 . S
C529 C537 1.433 . S
C530 H526 0.929 . S
C530 C532 1.378 . S
C530 C534 1.350 . S
C531 C534 1.463 . S
C531 C536 1.350 . S
C531 N539 1.427 . S
C532 H523 0.930 . S
C532 C530 1.378 . S
C532 C533 1.367 . S
C533 C532 1.367 . S
C533 C535 1.433 . S
C534 C530 1.350 . S
C534 C531 1.463 . S
C534 N538 1.427 . S
C535 H525 0.929 . S
C535 C533 1.433 . S
C535 N538 1.384 . S
C536 H527 0.929 . S
C536 C528 1.378 . S
C536 C531 1.350 . S
C537 H524 0.929 . S
C537 C529 1.433 . S
C537 N539 1.384 . S
N538 C534 1.427 . S
N538 C535 1.384 . S
N539 C531 1.427 . S
N539 C537 1.384 . S
H540 C546 0.930 . S
H541 C550 0.930 . S
H542 C555 0.929 . S
H543 C553 0.929 . S
H544 C548 0.929 . S
H545 C554 0.929 . S
C546 H540 0.930 . S
C546 C547 1.367 . S
C546 C554 1.378 . S
C547 C546 1.367 . S
C547 C555 1.433 . S
C548 H544 0.929 . S
C548 C550 1.378 . S
C548 C552 1.350 . S
C549 C552 1.463 . S
C549 C554 1.350 . S
C549 N557 1.427 . S
C550 H541 0.930 . S
C550 C548 1.378 . S
C550 C551 1.367 . S
C551 C550 1.367 . S
C551 C553 1.433 . S
C552 C548 1.350 . S
C552 C549 1.463 . S
C552 N556 1.427 . S
C553 H543 0.929 . S
C553 C551 1.433 . S
C553 N556 1.384 . S
C554 H545 0.929 . S
C554 C546 1.378 . S
C554 C549 1.350 . S
C555 H542 0.929 . S
C555 C547 1.433 . S
C555 N557 1.384 . S
N556 C552 1.427 . S
N556 C553 1.384 . S
N557 C549 1.427 . S
N557 C555 1.384 . S
H558 C564 0.930 . S
H559 C568 0.930 . S
H560 C573 0.929 . S
H561 C571 0.929 . S
H562 C566 0.929 . S
H563 C572 0.929 . S
C564 H558 0.930 . S
C564 C565 1.367 . S
C564 C572 1.378 . S
C565 C564 1.367 . S
C565 C573 1.433 . S
C566 H562 0.929 . S
C566 C568 1.378 . S
C566 C570 1.350 . S
C567 C570 1.463 . S
C567 C572 1.350 . S
C567 N575 1.427 . S
C568 H559 0.930 . S
C568 C566 1.378 . S
C568 C569 1.367 . S
C569 C568 1.367 . S
C569 C571 1.433 . S
C570 C566 1.350 . S
C570 C567 1.463 . S
C570 N574 1.427 . S
C571 H561 0.929 . S
C571 C569 1.433 . S
C571 N574 1.384 . S
C572 H563 0.929 . S
C572 C564 1.378 . S
C572 C567 1.350 . S
C573 H560 0.929 . S
C573 C565 1.433 . S
C573 N575 1.384 . S
N574 C570 1.427 . S
N574 C571 1.384 . S
N575 C567 1.427 . S
N575 C573 1.384 . S
H576 C582 0.930 . S
H577 C586 0.930 . S
H578 C591 0.929 1_554 S
H579 C589 0.929 . S
H580 C584 0.929 . S
H581 C590 0.929 . S
C582 H576 0.930 . S
C582 C583 1.367 . S
C582 C590 1.378 . S
C583 C582 1.367 . S
C583 C591 1.433 . S
C584 H580 0.929 . S
C584 C586 1.378 . S
C584 C588 1.350 . S
C585 C588 1.463 . S
C585 C590 1.350 . S
C585 N593 1.427 . S
C586 H577 0.930 . S
C586 C584 1.378 . S
C586 C587 1.367 . S
C587 C586 1.367 . S
C587 C589 1.433 . S
C588 C584 1.350 . S
C588 C585 1.463 . S
C588 N592 1.427 . S
C589 H579 0.929 . S
C589 C587 1.433 . S
C589 N592 1.384 . S
C590 H581 0.929 . S
C590 C582 1.378 . S
C590 C585 1.350 . S
C591 H578 0.929 1_556 S
C591 C583 1.433 . S
C591 N593 1.384 . S
N592 C588 1.427 . S
N592 C589 1.384 . S
N593 C585 1.427 . S
N593 C591 1.384 . S
H594 C600 0.930 . S
H595 C604 0.930 . S
H596 C609 0.929 . S
H597 C607 0.929 . S
H598 C602 0.929 . S
H599 C608 0.929 . S
C600 H594 0.930 . S
C600 C601 1.367 . S
C600 C608 1.378 . S
C601 C600 1.367 . S
C601 C609 1.433 . S
C602 H598 0.929 . S
C602 C604 1.378 . S
C602 C606 1.350 . S
C603 C606 1.463 . S
C603 C608 1.350 . S
C603 N611 1.427 . S
C604 H595 0.930 . S
C604 C602 1.378 . S
C604 C605 1.367 . S
C605 C604 1.367 . S
C605 C607 1.433 . S
C606 C602 1.350 . S
C606 C603 1.463 . S
C606 N610 1.427 . S
C607 H597 0.929 . S
C607 C605 1.433 . S
C607 N610 1.384 . S
C608 H599 0.929 . S
C608 C600 1.378 . S
C608 C603 1.350 . S
C609 H596 0.929 . S
C609 C601 1.433 . S
C609 N611 1.384 . S
N610 C606 1.427 . S
N610 C607 1.384 . S
N611 C603 1.427 . S
N611 C609 1.384 . S
H612 C618 0.930 . S
H613 C622 0.930 . S
H614 C627 0.929 . S
H615 C625 0.929 . S
H616 C620 0.929 . S
H617 C626 0.929 . S
C618 H612 0.930 . S
C618 C619 1.367 . S
C618 C626 1.378 . S
C619 C618 1.367 . S
C619 C627 1.433 . S
C620 H616 0.929 . S
C620 C622 1.378 . S
C620 C624 1.350 . S
C621 C624 1.463 . S
C621 C626 1.350 . S
C621 N629 1.427 . S
C622 H613 0.930 . S
C622 C620 1.378 . S
C622 C623 1.367 . S
C623 C622 1.367 . S
C623 C625 1.433 . S
C624 C620 1.350 . S
C624 C621 1.463 . S
C624 N628 1.427 . S
C625 H615 0.929 . S
C625 C623 1.433 . S
C625 N628 1.384 . S
C626 H617 0.929 . S
C626 C618 1.378 . S
C626 C621 1.350 . S
C627 H614 0.929 . S
C627 C619 1.433 . S
C627 N629 1.384 . S
N628 C624 1.427 . S
N628 C625 1.384 . S
N629 C621 1.427 . S
N629 C627 1.384 . S
H630 C636 0.930 . S
H631 C640 0.930 . S
H632 C645 0.929 . S
H633 C643 0.929 . S
H634 C638 0.929 . S
H635 C644 0.929 . S
C636 H630 0.930 . S
C636 C637 1.367 . S
C636 C644 1.378 . S
C637 C636 1.367 . S
C637 C645 1.433 . S
C638 H634 0.929 . S
C638 C640 1.378 . S
C638 C642 1.350 . S
C639 C642 1.463 . S
C639 C644 1.350 . S
C639 N647 1.427 . S
C640 H631 0.930 . S
C640 C638 1.378 . S
C640 C641 1.367 . S
C641 C640 1.367 . S
C641 C643 1.433 . S
C642 C638 1.350 . S
C642 C639 1.463 . S
C642 N646 1.427 . S
C643 H633 0.929 . S
C643 C641 1.433 . S
C643 N646 1.384 . S
C644 H635 0.929 . S
C644 C636 1.378 . S
C644 C639 1.350 . S
C645 H632 0.929 . S
C645 C637 1.433 . S
C645 N647 1.384 . S
N646 C642 1.427 . S
N646 C643 1.384 . S
N647 C639 1.427 . S
N647 C645 1.384 . S
H648 C654 0.930 . S
H649 C658 0.930 . S
H650 C663 0.929 . S
H651 C661 0.929 . S
H652 C656 0.929 . S
H653 C662 0.929 . S
C654 H648 0.930 . S
C654 C655 1.367 . S
C654 C662 1.378 . S
C655 C654 1.367 . S
C655 C663 1.433 . S
C656 H652 0.929 . S
C656 C658 1.378 . S
C656 C660 1.350 . S
C657 C660 1.463 1_655 S
C657 C662 1.350 . S
C657 N665 1.427 . S
C658 H649 0.930 . S
C658 C656 1.378 . S
C658 C659 1.367 . S
C659 C658 1.367 . S
C659 C661 1.433 . S
C660 C656 1.350 . S
C660 C657 1.463 1_455 S
C660 N664 1.427 . S
C661 H651 0.929 . S
C661 C659 1.433 . S
C661 N664 1.384 . S
C662 H653 0.929 . S
C662 C654 1.378 . S
C662 C657 1.350 . S
C663 H650 0.929 . S
C663 C655 1.433 . S
C663 N665 1.384 . S
N664 C660 1.427 . S
N664 C661 1.384 . S
N665 C657 1.427 . S
N665 C663 1.384 . S
H666 C672 0.930 . S
H667 C676 0.930 . S
H668 C681 0.929 . S
H669 C679 0.929 . S
H670 C674 0.929 . S
H671 C680 0.929 . S
C672 H666 0.930 . S
C672 C673 1.367 . S
C672 C680 1.378 . S
C673 C672 1.367 . S
C673 C681 1.433 . S
C674 H670 0.929 . S
C674 C676 1.378 . S
C674 C678 1.350 . S
C675 C678 1.463 1_565 S
C675 C680 1.350 . S
C675 N683 1.427 . S
C676 H667 0.930 . S
C676 C674 1.378 . S
C676 C677 1.367 . S
C677 C676 1.367 . S
C677 C679 1.433 . S
C678 C674 1.350 . S
C678 C675 1.463 1_545 S
C678 N682 1.427 . S
C679 H669 0.929 . S
C679 C677 1.433 . S
C679 N682 1.384 . S
C680 H671 0.929 . S
C680 C672 1.378 . S
C680 C675 1.350 . S
C681 H668 0.929 . S
C681 C673 1.433 . S
C681 N683 1.384 . S
N682 C678 1.427 . S
N682 C679 1.384 . S
N683 C675 1.427 . S
N683 C681 1.384 . S
H684 C690 0.930 . S
H685 C694 0.930 . S
H686 C699 0.929 . S
H687 C697 0.929 . S
H688 C692 0.929 . S
H689 C698 0.929 . S
C690 H684 0.930 . S
C690 C691 1.367 . S
C690 C698 1.378 . S
C691 C690 1.367 . S
C691 C699 1.433 . S
C692 H688 0.929 . S
C692 C694 1.378 . S
C692 C696 1.350 . S
C693 C696 1.463 . S
C693 C698 1.350 . S
C693 N701 1.427 . S
C694 H685 0.930 . S
C694 C692 1.378 . S
C694 C695 1.367 . S
C695 C694 1.367 . S
C695 C697 1.433 . S
C696 C692 1.350 . S
C696 C693 1.463 . S
C696 N700 1.427 . S
C697 H687 0.929 . S
C697 C695 1.433 . S
C697 N700 1.384 . S
C698 H689 0.929 . S
C698 C690 1.378 . S
C698 C693 1.350 . S
C699 H686 0.929 . S
C699 C691 1.433 . S
C699 N701 1.384 . S
N700 C696 1.427 . S
N700 C697 1.384 . S
N701 C693 1.427 . S
N701 C699 1.384 . S
H702 C708 0.930 . S
H703 C712 0.930 . S
H704 C717 0.929 . S
H705 C715 0.929 . S
H706 C710 0.929 . S
H707 C716 0.929 . S
C708 H702 0.930 . S
C708 C709 1.367 . S
C708 C716 1.378 . S
C709 C708 1.367 . S
C709 C717 1.433 . S
C710 H706 0.929 . S
C710 C712 1.378 . S
C710 C714 1.350 . S
C711 C714 1.463 1_455 S
C711 C716 1.350 . S
C711 N719 1.427 . S
C712 H703 0.930 . S
C712 C710 1.378 . S
C712 C713 1.367 . S
C713 C712 1.367 . S
C713 C715 1.433 . S
C714 C710 1.350 . S
C714 C711 1.463 1_655 S
C714 N718 1.427 . S
C715 H705 0.929 . S
C715 C713 1.433 . S
C715 N718 1.384 . S
C716 H707 0.929 . S
C716 C708 1.378 . S
C716 C711 1.350 . S
C717 H704 0.929 . S
C717 C709 1.433 . S
C717 N719 1.384 . S
N718 C714 1.427 . S
N718 C715 1.384 . S
N719 C711 1.427 . S
N719 C717 1.384 . S
H720 C726 0.930 . S
H721 C730 0.930 . S
H722 C735 0.929 . S
H723 C733 0.929 . S
H724 C728 0.929 . S
H725 C734 0.929 . S
C726 H720 0.930 . S
C726 C727 1.367 . S
C726 C734 1.378 1_556 S
C727 C726 1.367 . S
C727 C735 1.433 . S
C728 H724 0.929 . S
C728 C730 1.378 1_556 S
C728 C732 1.350 1_556 S
C729 C732 1.463 1_546 S
C729 C734 1.350 1_556 S
C729 N737 1.427 . S
C730 H721 0.930 . S
C730 C728 1.378 1_554 S
C730 C731 1.367 . S
C731 C730 1.367 . S
C731 C733 1.433 . S
C732 C728 1.350 1_554 S
C732 C729 1.463 1_564 S
C732 N736 1.427 . S
C733 H723 0.929 . S
C733 C731 1.433 . S
C733 N736 1.384 . S
C734 H725 0.929 . S
C734 C726 1.378 1_554 S
C734 C729 1.350 1_554 S
C735 H722 0.929 . S
C735 C727 1.433 . S
C735 N737 1.384 . S
N736 C732 1.427 . S
N736 C733 1.384 . S
N737 C729 1.427 . S
N737 C735 1.384 . S
H738 C744 0.930 . S
H739 C748 0.930 . S
H740 C753 0.929 . S
H741 C751 0.929 . S
H742 C746 0.929 . S
H743 C752 0.929 . S
C744 H738 0.930 . S
C744 C745 1.367 . S
C744 C752 1.378 . S
C745 C744 1.367 . S
C745 C753 1.433 . S
C746 H742 0.929 . S
C746 C748 1.378 . S
C746 C750 1.350 . S
C747 C750 1.463 . S
C747 C752 1.350 . S
C747 N755 1.427 . S
C748 H739 0.930 . S
C748 C746 1.378 . S
C748 C749 1.367 . S
C749 C748 1.367 . S
C749 C751 1.433 . S
C750 C746 1.350 . S
C750 C747 1.463 . S
C750 N754 1.427 . S
C751 H741 0.929 . S
C751 C749 1.433 . S
C751 N754 1.384 . S
C752 H743 0.929 . S
C752 C744 1.378 . S
C752 C747 1.350 . S
C753 H740 0.929 . S
C753 C745 1.433 . S
C753 N755 1.384 . S
N754 C750 1.427 . S
N754 C751 1.384 . S
N755 C747 1.427 . S
N755 C753 1.384 . S
H756 C762 0.930 . S
H757 C766 0.930 . S
H758 C771 0.929 . S
H759 C769 0.929 . S
H760 C764 0.929 . S
H761 C770 0.929 . S
C762 H756 0.930 . S
C762 C763 1.367 . S
C762 C770 1.378 . S
C763 C762 1.367 . S
C763 C771 1.433 . S
C764 H760 0.929 . S
C764 C766 1.378 . S
C764 C768 1.350 . S
C765 C768 1.463 . S
C765 C770 1.350 . S
C765 N773 1.427 . S
C766 H757 0.930 . S
C766 C764 1.378 . S
C766 C767 1.367 . S
C767 C766 1.367 . S
C767 C769 1.433 . S
C768 C764 1.350 . S
C768 C765 1.463 . S
C768 N772 1.427 . S
C769 H759 0.929 . S
C769 C767 1.433 . S
C769 N772 1.384 . S
C770 H761 0.929 . S
C770 C762 1.378 . S
C770 C765 1.350 . S
C771 H758 0.929 . S
C771 C763 1.433 . S
C771 N773 1.384 . S
N772 C768 1.427 . S
N772 C769 1.384 . S
N773 C765 1.427 . S
N773 C771 1.384 . S
H774 C780 0.930 . S
H775 C784 0.930 . S
H776 C789 0.929 . S
H777 C787 0.929 . S
H778 C782 0.929 . S
H779 C788 0.929 . S
C780 H774 0.930 . S
C780 C781 1.367 . S
C780 C788 1.378 . S
C781 C780 1.367 . S
C781 C789 1.433 . S
C782 H778 0.929 . S
C782 C784 1.378 . S
C782 C786 1.350 . S
C783 C786 1.463 . S
C783 C788 1.350 . S
C783 N791 1.427 . S
C784 H775 0.930 . S
C784 C782 1.378 . S
C784 C785 1.367 . S
C785 C784 1.367 . S
C785 C787 1.433 . S
C786 C782 1.350 . S
C786 C783 1.463 . S
C786 N790 1.427 . S
C787 H777 0.929 . S
C787 C785 1.433 . S
C787 N790 1.384 . S
C788 H779 0.929 . S
C788 C780 1.378 . S
C788 C783 1.350 . S
C789 H776 0.929 . S
C789 C781 1.433 . S
C789 N791 1.384 . S
N790 C786 1.427 . S
N790 C787 1.384 . S
N791 C783 1.427 . S
N791 C789 1.384 . S
H792 C798 0.930 . S
H793 C802 0.930 . S
H794 C807 0.929 . S
H795 C805 0.929 . S
H796 C800 0.929 . S
H797 C806 0.929 . S
C798 H792 0.930 . S
C798 C799 1.367 . S
C798 C806 1.378 . S
C799 C798 1.367 . S
C799 C807 1.433 . S
C800 H796 0.929 . S
C800 C802 1.378 . S
C800 C804 1.350 . S
C801 C804 1.463 . S
C801 C806 1.350 . S
C801 N809 1.427 . S
C802 H793 0.930 . S
C802 C800 1.378 . S
C802 C803 1.367 . S
C803 C802 1.367 . S
C803 C805 1.433 . S
C804 C800 1.350 . S
C804 C801 1.463 . S
C804 N808 1.427 . S
C805 H795 0.929 . S
C805 C803 1.433 . S
C805 N808 1.384 . S
C806 H797 0.929 . S
C806 C798 1.378 . S
C806 C801 1.350 . S
C807 H794 0.929 . S
C807 C799 1.433 . S
C807 N809 1.384 . S
N808 C804 1.427 . S
N808 C805 1.384 . S
N809 C801 1.427 . S
N809 C807 1.384 . S
H810 C816 0.930 . S
H811 C820 0.930 . S
H812 C825 0.929 . S
H813 C823 0.929 . S
H814 C818 0.929 . S
H815 C824 0.929 . S
C816 H810 0.930 . S
C816 C817 1.367 . S
C816 C824 1.378 . S
C817 C816 1.367 . S
C817 C825 1.433 . S
C818 H814 0.929 . S
C818 C820 1.378 . S
C818 C822 1.350 . S
C819 C822 1.463 . S
C819 C824 1.350 . S
C819 N827 1.427 . S
C820 H811 0.930 . S
C820 C818 1.378 . S
C820 C821 1.367 . S
C821 C820 1.367 . S
C821 C823 1.433 . S
C822 C818 1.350 . S
C822 C819 1.463 . S
C822 N826 1.427 . S
C823 H813 0.929 . S
C823 C821 1.433 . S
C823 N826 1.384 . S
C824 H815 0.929 . S
C824 C816 1.378 . S
C824 C819 1.350 . S
C825 H812 0.929 . S
C825 C817 1.433 . S
C825 N827 1.384 . S
N826 C822 1.427 . S
N826 C823 1.384 . S
N827 C819 1.427 . S
N827 C825 1.384 . S
H828 C834 0.930 1_554 S
H829 C838 0.930 . S
H830 C843 0.929 . S
H831 C841 0.929 . S
H832 C836 0.929 . S
H833 C842 0.929 . S
C834 H828 0.930 1_556 S
C834 C835 1.367 . S
C834 C842 1.378 . S
C835 C834 1.367 . S
C835 C843 1.433 . S
C836 H832 0.929 . S
C836 C838 1.378 . S
C836 C840 1.350 . S
C837 C840 1.463 . S
C837 C842 1.350 . S
C837 N845 1.427 . S
C838 H829 0.930 . S
C838 C836 1.378 . S
C838 C839 1.367 . S
C839 C838 1.367 . S
C839 C841 1.433 . S
C840 C836 1.350 . S
C840 C837 1.463 . S
C840 N844 1.427 . S
C841 H831 0.929 . S
C841 C839 1.433 . S
C841 N844 1.384 . S
C842 H833 0.929 . S
C842 C834 1.378 . S
C842 C837 1.350 . S
C843 H830 0.929 . S
C843 C835 1.433 . S
C843 N845 1.384 . S
N844 C840 1.427 . S
N844 C841 1.384 . S
N845 C837 1.427 . S
N845 C843 1.384 . S
H846 C852 0.930 . S
H847 C856 0.930 . S
H848 C861 0.929 . S
H849 C859 0.929 . S
H850 C854 0.929 . S
H851 C860 0.929 . S
C852 H846 0.930 . S
C852 C853 1.367 . S
C852 C860 1.378 . S
C853 C852 1.367 . S
C853 C861 1.433 . S
C854 H850 0.929 . S
C854 C856 1.378 . S
C854 C858 1.350 . S
C855 C858 1.463 . S
C855 C860 1.350 . S
C855 N863 1.427 . S
C856 H847 0.930 . S
C856 C854 1.378 . S
C856 C857 1.367 . S
C857 C856 1.367 . S
C857 C859 1.433 . S
C858 C854 1.350 . S
C858 C855 1.463 . S
C858 N862 1.427 . S
C859 H849 0.929 . S
C859 C857 1.433 . S
C859 N862 1.384 . S
C860 H851 0.929 . S
C860 C852 1.378 . S
C860 C855 1.350 . S
C861 H848 0.929 . S
C861 C853 1.433 . S
C861 N863 1.384 . S
N862 C858 1.427 . S
N862 C859 1.384 . S
N863 C855 1.427 . S
N863 C861 1.384 . S
C439 C2 0.622 . S
C443 C218 0.597 . S
C457 C38 0.601 . S
C461 C254 0.613 . S
C475 C290 0.599 . S
C479 C74 0.617 . S
C493 C110 0.632 . S
C497 C326 0.619 . S
C511 C146 0.600 . S
C515 C362 0.616 . S
C529 C398 0.623 . S
C533 C182 0.597 . S
C547 C292 1.367 . S
C551 C4 1.371 . S
C565 C40 1.368 . S
C569 C328 1.371 . S
C583 C364 1.386 1_556 S
C587 C76 1.387 . S
C601 C400 1.377 . S
C605 C112 1.373 1_554 S
C619 C148 1.380 . S
C623 C220 1.376 . S
C637 C184 1.374 . S
C641 C256 1.370 . S
C655 C410 1.207 . S
C659 C14 1.203 . S
C673 C230 1.218 . S
C677 C50 1.214 . S
C691 C86 1.217 . S
C695 C266 1.218 . S
C709 C302 1.203 . S
C713 C122 1.208 . S
C727 C338 1.217 . S
C731 C158 1.211 . S
C745 C374 1.211 . S
C749 C194 1.205 . S
C763 C3 1.587 . S
C767 C363 1.588 . S
C781 C399 1.591 . S
C785 C39 1.585 . S
C799 C75 1.591 . S
C803 C219 1.585 . S
C817 C111 1.586 . S
C821 C255 1.588 . S
C835 C147 1.589 1_556 S
C839 C291 1.588 . S
C853 C183 1.585 . S
C857 C327 1.591 1_554 S
