# Generated by pormake.
# Topology kfi, (4)-cn, num edge types: 1
# Building blocks:
#     Node 0, Type 0, BuildingBlock: QUQFOY_clean_sbu_3, # of connection points: 4
#     Node 1, Type 0, BuildingBlock: QUQFOY_clean_sbu_3, # of connection points: 4
#     Node 2, Type 0, BuildingBlock: QUQFOY_clean_sbu_3, # of connection points: 4
#     Node 3, Type 0, BuildingBlock: QUQFOY_clean_sbu_3, # of connection points: 4
#     Node 4, Type 0, BuildingBlock: QUQFOY_clean_sbu_3, # of connection points: 4
#     Node 5, Type 0, BuildingBlock: QUQFOY_clean_sbu_3, # of connection points: 4
#     Node 6, Type 0, BuildingBlock: QUQFOY_clean_sbu_3, # of connection points: 4
#     Node 7, Type 0, BuildingBlock: QUQFOY_clean_sbu_3, # of connection points: 4
#     Node 8, Type 0, BuildingBlock: QUQFOY_clean_sbu_3, # of connection points: 4
#     Node 9, Type 0, BuildingBlock: QUQFOY_clean_sbu_3, # of connection points: 4
#     Node 10, Type 0, BuildingBlock: QUQFOY_clean_sbu_3, # of connection points: 4
#     Node 11, Type 0, BuildingBlock: QUQFOY_clean_sbu_3, # of connection points: 4
#     Node 12, Type 0, BuildingBlock: QUQFOY_clean_sbu_3, # of connection points: 4
#     Node 13, Type 0, BuildingBlock: QUQFOY_clean_sbu_3, # of connection points: 4
#     Node 14, Type 0, BuildingBlock: QUQFOY_clean_sbu_3, # of connection points: 4
#     Node 15, Type 0, BuildingBlock: QUQFOY_clean_sbu_3, # of connection points: 4
#     Node 16, Type 0, BuildingBlock: QUQFOY_clean_sbu_3, # of connection points: 4
#     Node 17, Type 0, BuildingBlock: QUQFOY_clean_sbu_3, # of connection points: 4
#     Node 18, Type 0, BuildingBlock: QUQFOY_clean_sbu_3, # of connection points: 4
#     Node 19, Type 0, BuildingBlock: QUQFOY_clean_sbu_3, # of connection points: 4
#     Node 20, Type 0, BuildingBlock: QUQFOY_clean_sbu_3, # of connection points: 4
#     Node 21, Type 0, BuildingBlock: QUQFOY_clean_sbu_3, # of connection points: 4
#     Node 22, Type 0, BuildingBlock: QUQFOY_clean_sbu_3, # of connection points: 4
#     Node 23, Type 0, BuildingBlock: QUQFOY_clean_sbu_3, # of connection points: 4
#     Node 24, Type 0, BuildingBlock: QUQFOY_clean_sbu_3, # of connection points: 4
#     Node 25, Type 0, BuildingBlock: QUQFOY_clean_sbu_3, # of connection points: 4
#     Node 26, Type 0, BuildingBlock: QUQFOY_clean_sbu_3, # of connection points: 4
#     Node 27, Type 0, BuildingBlock: QUQFOY_clean_sbu_3, # of connection points: 4
#     Node 28, Type 0, BuildingBlock: QUQFOY_clean_sbu_3, # of connection points: 4
#     Node 29, Type 0, BuildingBlock: QUQFOY_clean_sbu_3, # of connection points: 4
#     Node 30, Type 0, BuildingBlock: QUQFOY_clean_sbu_3, # of connection points: 4
#     Node 31, Type 0, BuildingBlock: QUQFOY_clean_sbu_3, # of connection points: 4
#     Node 32, Type 0, BuildingBlock: QUQFOY_clean_sbu_3, # of connection points: 4
#     Node 33, Type 0, BuildingBlock: QUQFOY_clean_sbu_3, # of connection points: 4
#     Node 34, Type 0, BuildingBlock: QUQFOY_clean_sbu_3, # of connection points: 4
#     Node 35, Type 0, BuildingBlock: QUQFOY_clean_sbu_3, # of connection points: 4
#     Node 36, Type 0, BuildingBlock: QUQFOY_clean_sbu_3, # of connection points: 4
#     Node 37, Type 0, BuildingBlock: QUQFOY_clean_sbu_3, # of connection points: 4
#     Node 38, Type 0, BuildingBlock: QUQFOY_clean_sbu_3, # of connection points: 4
#     Node 39, Type 0, BuildingBlock: QUQFOY_clean_sbu_3, # of connection points: 4
#     Node 40, Type 0, BuildingBlock: QUQFOY_clean_sbu_3, # of connection points: 4
#     Node 41, Type 0, BuildingBlock: QUQFOY_clean_sbu_3, # of connection points: 4
#     Node 42, Type 0, BuildingBlock: QUQFOY_clean_sbu_3, # of connection points: 4
#     Node 43, Type 0, BuildingBlock: QUQFOY_clean_sbu_3, # of connection points: 4
#     Node 44, Type 0, BuildingBlock: QUQFOY_clean_sbu_3, # of connection points: 4
#     Node 45, Type 0, BuildingBlock: QUQFOY_clean_sbu_3, # of connection points: 4
#     Node 46, Type 0, BuildingBlock: QUQFOY_clean_sbu_3, # of connection points: 4
#     Node 47, Type 0, BuildingBlock: QUQFOY_clean_sbu_3, # of connection points: 4
#     Node 48, Type 0, BuildingBlock: QUQFOY_clean_sbu_3, # of connection points: 4
#     Node 49, Type 0, BuildingBlock: QUQFOY_clean_sbu_3, # of connection points: 4
#     Node 50, Type 0, BuildingBlock: QUQFOY_clean_sbu_3, # of connection points: 4
#     Node 51, Type 0, BuildingBlock: QUQFOY_clean_sbu_3, # of connection points: 4
#     Node 52, Type 0, BuildingBlock: QUQFOY_clean_sbu_3, # of connection points: 4
#     Node 53, Type 0, BuildingBlock: QUQFOY_clean_sbu_3, # of connection points: 4
#     Node 54, Type 0, BuildingBlock: QUQFOY_clean_sbu_3, # of connection points: 4
#     Node 55, Type 0, BuildingBlock: QUQFOY_clean_sbu_3, # of connection points: 4
#     Node 56, Type 0, BuildingBlock: QUQFOY_clean_sbu_3, # of connection points: 4
#     Node 57, Type 0, BuildingBlock: QUQFOY_clean_sbu_3, # of connection points: 4
#     Node 58, Type 0, BuildingBlock: QUQFOY_clean_sbu_3, # of connection points: 4
#     Node 59, Type 0, BuildingBlock: QUQFOY_clean_sbu_3, # of connection points: 4
#     Node 60, Type 0, BuildingBlock: QUQFOY_clean_sbu_3, # of connection points: 4
#     Node 61, Type 0, BuildingBlock: QUQFOY_clean_sbu_3, # of connection points: 4
#     Node 62, Type 0, BuildingBlock: QUQFOY_clean_sbu_3, # of connection points: 4
#     Node 63, Type 0, BuildingBlock: QUQFOY_clean_sbu_3, # of connection points: 4
#     Node 64, Type 0, BuildingBlock: QUQFOY_clean_sbu_3, # of connection points: 4
#     Node 65, Type 0, BuildingBlock: QUQFOY_clean_sbu_3, # of connection points: 4
#     Node 66, Type 0, BuildingBlock: QUQFOY_clean_sbu_3, # of connection points: 4
#     Node 67, Type 0, BuildingBlock: QUQFOY_clean_sbu_3, # of connection points: 4
#     Node 68, Type 0, BuildingBlock: QUQFOY_clean_sbu_3, # of connection points: 4
#     Node 69, Type 0, BuildingBlock: QUQFOY_clean_sbu_3, # of connection points: 4
#     Node 70, Type 0, BuildingBlock: QUQFOY_clean_sbu_3, # of connection points: 4
#     Node 71, Type 0, BuildingBlock: QUQFOY_clean_sbu_3, # of connection points: 4
#     Node 72, Type 0, BuildingBlock: QUQFOY_clean_sbu_3, # of connection points: 4
#     Node 73, Type 0, BuildingBlock: QUQFOY_clean_sbu_3, # of connection points: 4
#     Node 74, Type 0, BuildingBlock: QUQFOY_clean_sbu_3, # of connection points: 4
#     Node 75, Type 0, BuildingBlock: QUQFOY_clean_sbu_3, # of connection points: 4
#     Node 76, Type 0, BuildingBlock: QUQFOY_clean_sbu_3, # of connection points: 4
#     Node 77, Type 0, BuildingBlock: QUQFOY_clean_sbu_3, # of connection points: 4
#     Node 78, Type 0, BuildingBlock: QUQFOY_clean_sbu_3, # of connection points: 4
#     Node 79, Type 0, BuildingBlock: QUQFOY_clean_sbu_3, # of connection points: 4
#     Node 80, Type 0, BuildingBlock: QUQFOY_clean_sbu_3, # of connection points: 4
#     Node 81, Type 0, BuildingBlock: QUQFOY_clean_sbu_3, # of connection points: 4
#     Node 82, Type 0, BuildingBlock: QUQFOY_clean_sbu_3, # of connection points: 4
#     Node 83, Type 0, BuildingBlock: QUQFOY_clean_sbu_3, # of connection points: 4
#     Node 84, Type 0, BuildingBlock: QUQFOY_clean_sbu_3, # of connection points: 4
#     Node 85, Type 0, BuildingBlock: QUQFOY_clean_sbu_3, # of connection points: 4
#     Node 86, Type 0, BuildingBlock: QUQFOY_clean_sbu_3, # of connection points: 4
#     Node 87, Type 0, BuildingBlock: QUQFOY_clean_sbu_3, # of connection points: 4
#     Node 88, Type 0, BuildingBlock: QUQFOY_clean_sbu_3, # of connection points: 4
#     Node 89, Type 0, BuildingBlock: QUQFOY_clean_sbu_3, # of connection points: 4
#     Node 90, Type 0, BuildingBlock: QUQFOY_clean_sbu_3, # of connection points: 4
#     Node 91, Type 0, BuildingBlock: QUQFOY_clean_sbu_3, # of connection points: 4
#     Node 92, Type 0, BuildingBlock: QUQFOY_clean_sbu_3, # of connection points: 4
#     Node 93, Type 0, BuildingBlock: QUQFOY_clean_sbu_3, # of connection points: 4
#     Node 94, Type 0, BuildingBlock: QUQFOY_clean_sbu_3, # of connection points: 4
#     Node 95, Type 0, BuildingBlock: QUQFOY_clean_sbu_3, # of connection points: 4
#     Edge 96, Type (0, 0), BuildingBlock: CIFDUS_clean_linker_0, # of connection points: 2
#     Edge 97, Type (0, 0), BuildingBlock: CIFDUS_clean_linker_0, # of connection points: 2
#     Edge 98, Type (0, 0), BuildingBlock: CIFDUS_clean_linker_0, # of connection points: 2
#     Edge 99, Type (0, 0), BuildingBlock: CIFDUS_clean_linker_0, # of connection points: 2
#     Edge 100, Type (0, 0), BuildingBlock: CIFDUS_clean_linker_0, # of connection points: 2
#     Edge 101, Type (0, 0), BuildingBlock: CIFDUS_clean_linker_0, # of connection points: 2
#     Edge 102, Type (0, 0), BuildingBlock: CIFDUS_clean_linker_0, # of connection points: 2
#     Edge 103, Type (0, 0), BuildingBlock: CIFDUS_clean_linker_0, # of connection points: 2
#     Edge 104, Type (0, 0), BuildingBlock: CIFDUS_clean_linker_0, # of connection points: 2
#     Edge 105, Type (0, 0), BuildingBlock: CIFDUS_clean_linker_0, # of connection points: 2
#     Edge 106, Type (0, 0), BuildingBlock: CIFDUS_clean_linker_0, # of connection points: 2
#     Edge 107, Type (0, 0), BuildingBlock: CIFDUS_clean_linker_0, # of connection points: 2
#     Edge 108, Type (0, 0), BuildingBlock: CIFDUS_clean_linker_0, # of connection points: 2
#     Edge 109, Type (0, 0), BuildingBlock: CIFDUS_clean_linker_0, # of connection points: 2
#     Edge 110, Type (0, 0), BuildingBlock: CIFDUS_clean_linker_0, # of connection points: 2
#     Edge 111, Type (0, 0), BuildingBlock: CIFDUS_clean_linker_0, # of connection points: 2
#     Edge 112, Type (0, 0), BuildingBlock: CIFDUS_clean_linker_0, # of connection points: 2
#     Edge 113, Type (0, 0), BuildingBlock: CIFDUS_clean_linker_0, # of connection points: 2
#     Edge 114, Type (0, 0), BuildingBlock: CIFDUS_clean_linker_0, # of connection points: 2
#     Edge 115, Type (0, 0), BuildingBlock: CIFDUS_clean_linker_0, # of connection points: 2
#     Edge 116, Type (0, 0), BuildingBlock: CIFDUS_clean_linker_0, # of connection points: 2
#     Edge 117, Type (0, 0), BuildingBlock: CIFDUS_clean_linker_0, # of connection points: 2
#     Edge 118, Type (0, 0), BuildingBlock: CIFDUS_clean_linker_0, # of connection points: 2
#     Edge 119, Type (0, 0), BuildingBlock: CIFDUS_clean_linker_0, # of connection points: 2
#     Edge 120, Type (0, 0), BuildingBlock: CIFDUS_clean_linker_0, # of connection points: 2
#     Edge 121, Type (0, 0), BuildingBlock: CIFDUS_clean_linker_0, # of connection points: 2
#     Edge 122, Type (0, 0), BuildingBlock: CIFDUS_clean_linker_0, # of connection points: 2
#     Edge 123, Type (0, 0), BuildingBlock: CIFDUS_clean_linker_0, # of connection points: 2
#     Edge 124, Type (0, 0), BuildingBlock: CIFDUS_clean_linker_0, # of connection points: 2
#     Edge 125, Type (0, 0), BuildingBlock: CIFDUS_clean_linker_0, # of connection points: 2
#     Edge 126, Type (0, 0), BuildingBlock: CIFDUS_clean_linker_0, # of connection points: 2
#     Edge 127, Type (0, 0), BuildingBlock: CIFDUS_clean_linker_0, # of connection points: 2
#     Edge 128, Type (0, 0), BuildingBlock: CIFDUS_clean_linker_0, # of connection points: 2
#     Edge 129, Type (0, 0), BuildingBlock: CIFDUS_clean_linker_0, # of connection points: 2
#     Edge 130, Type (0, 0), BuildingBlock: CIFDUS_clean_linker_0, # of connection points: 2
#     Edge 131, Type (0, 0), BuildingBlock: CIFDUS_clean_linker_0, # of connection points: 2
#     Edge 132, Type (0, 0), BuildingBlock: CIFDUS_clean_linker_0, # of connection points: 2
#     Edge 133, Type (0, 0), BuildingBlock: CIFDUS_clean_linker_0, # of connection points: 2
#     Edge 134, Type (0, 0), BuildingBlock: CIFDUS_clean_linker_0, # of connection points: 2
#     Edge 135, Type (0, 0), BuildingBlock: CIFDUS_clean_linker_0, # of connection points: 2
#     Edge 136, Type (0, 0), BuildingBlock: CIFDUS_clean_linker_0, # of connection points: 2
#     Edge 137, Type (0, 0), BuildingBlock: CIFDUS_clean_linker_0, # of connection points: 2
#     Edge 138, Type (0, 0), BuildingBlock: CIFDUS_clean_linker_0, # of connection points: 2
#     Edge 139, Type (0, 0), BuildingBlock: CIFDUS_clean_linker_0, # of connection points: 2
#     Edge 140, Type (0, 0), BuildingBlock: CIFDUS_clean_linker_0, # of connection points: 2
#     Edge 141, Type (0, 0), BuildingBlock: CIFDUS_clean_linker_0, # of connection points: 2
#     Edge 142, Type (0, 0), BuildingBlock: CIFDUS_clean_linker_0, # of connection points: 2
#     Edge 143, Type (0, 0), BuildingBlock: CIFDUS_clean_linker_0, # of connection points: 2
#     Edge 144, Type (0, 0), BuildingBlock: CIFDUS_clean_linker_0, # of connection points: 2
#     Edge 145, Type (0, 0), BuildingBlock: CIFDUS_clean_linker_0, # of connection points: 2
#     Edge 146, Type (0, 0), BuildingBlock: CIFDUS_clean_linker_0, # of connection points: 2
#     Edge 147, Type (0, 0), BuildingBlock: CIFDUS_clean_linker_0, # of connection points: 2
#     Edge 148, Type (0, 0), BuildingBlock: CIFDUS_clean_linker_0, # of connection points: 2
#     Edge 149, Type (0, 0), BuildingBlock: CIFDUS_clean_linker_0, # of connection points: 2
#     Edge 150, Type (0, 0), BuildingBlock: CIFDUS_clean_linker_0, # of connection points: 2
#     Edge 151, Type (0, 0), BuildingBlock: CIFDUS_clean_linker_0, # of connection points: 2
#     Edge 152, Type (0, 0), BuildingBlock: CIFDUS_clean_linker_0, # of connection points: 2
#     Edge 153, Type (0, 0), BuildingBlock: CIFDUS_clean_linker_0, # of connection points: 2
#     Edge 154, Type (0, 0), BuildingBlock: CIFDUS_clean_linker_0, # of connection points: 2
#     Edge 155, Type (0, 0), BuildingBlock: CIFDUS_clean_linker_0, # of connection points: 2
#     Edge 156, Type (0, 0), BuildingBlock: CIFDUS_clean_linker_0, # of connection points: 2
#     Edge 157, Type (0, 0), BuildingBlock: CIFDUS_clean_linker_0, # of connection points: 2
#     Edge 158, Type (0, 0), BuildingBlock: CIFDUS_clean_linker_0, # of connection points: 2
#     Edge 159, Type (0, 0), BuildingBlock: CIFDUS_clean_linker_0, # of connection points: 2
#     Edge 160, Type (0, 0), BuildingBlock: CIFDUS_clean_linker_0, # of connection points: 2
#     Edge 161, Type (0, 0), BuildingBlock: CIFDUS_clean_linker_0, # of connection points: 2
#     Edge 162, Type (0, 0), BuildingBlock: CIFDUS_clean_linker_0, # of connection points: 2
#     Edge 163, Type (0, 0), BuildingBlock: CIFDUS_clean_linker_0, # of connection points: 2
#     Edge 164, Type (0, 0), BuildingBlock: CIFDUS_clean_linker_0, # of connection points: 2
#     Edge 165, Type (0, 0), BuildingBlock: CIFDUS_clean_linker_0, # of connection points: 2
#     Edge 166, Type (0, 0), BuildingBlock: CIFDUS_clean_linker_0, # of connection points: 2
#     Edge 167, Type (0, 0), BuildingBlock: CIFDUS_clean_linker_0, # of connection points: 2
#     Edge 168, Type (0, 0), BuildingBlock: CIFDUS_clean_linker_0, # of connection points: 2
#     Edge 169, Type (0, 0), BuildingBlock: CIFDUS_clean_linker_0, # of connection points: 2
#     Edge 170, Type (0, 0), BuildingBlock: CIFDUS_clean_linker_0, # of connection points: 2
#     Edge 171, Type (0, 0), BuildingBlock: CIFDUS_clean_linker_0, # of connection points: 2
#     Edge 172, Type (0, 0), BuildingBlock: CIFDUS_clean_linker_0, # of connection points: 2
#     Edge 173, Type (0, 0), BuildingBlock: CIFDUS_clean_linker_0, # of connection points: 2
#     Edge 174, Type (0, 0), BuildingBlock: CIFDUS_clean_linker_0, # of connection points: 2
#     Edge 175, Type (0, 0), BuildingBlock: CIFDUS_clean_linker_0, # of connection points: 2
#     Edge 176, Type (0, 0), BuildingBlock: CIFDUS_clean_linker_0, # of connection points: 2
#     Edge 177, Type (0, 0), BuildingBlock: CIFDUS_clean_linker_0, # of connection points: 2
#     Edge 178, Type (0, 0), BuildingBlock: CIFDUS_clean_linker_0, # of connection points: 2
#     Edge 179, Type (0, 0), BuildingBlock: CIFDUS_clean_linker_0, # of connection points: 2
#     Edge 180, Type (0, 0), BuildingBlock: CIFDUS_clean_linker_0, # of connection points: 2
#     Edge 181, Type (0, 0), BuildingBlock: CIFDUS_clean_linker_0, # of connection points: 2
#     Edge 182, Type (0, 0), BuildingBlock: CIFDUS_clean_linker_0, # of connection points: 2
#     Edge 183, Type (0, 0), BuildingBlock: CIFDUS_clean_linker_0, # of connection points: 2
#     Edge 184, Type (0, 0), BuildingBlock: CIFDUS_clean_linker_0, # of connection points: 2
#     Edge 185, Type (0, 0), BuildingBlock: CIFDUS_clean_linker_0, # of connection points: 2
#     Edge 186, Type (0, 0), BuildingBlock: CIFDUS_clean_linker_0, # of connection points: 2
#     Edge 187, Type (0, 0), BuildingBlock: CIFDUS_clean_linker_0, # of connection points: 2
#     Edge 188, Type (0, 0), BuildingBlock: CIFDUS_clean_linker_0, # of connection points: 2
#     Edge 189, Type (0, 0), BuildingBlock: CIFDUS_clean_linker_0, # of connection points: 2
#     Edge 190, Type (0, 0), BuildingBlock: CIFDUS_clean_linker_0, # of connection points: 2
#     Edge 191, Type (0, 0), BuildingBlock: CIFDUS_clean_linker_0, # of connection points: 2
#     Edge 192, Type (0, 0), BuildingBlock: CIFDUS_clean_linker_0, # of connection points: 2
#     Edge 193, Type (0, 0), BuildingBlock: CIFDUS_clean_linker_0, # of connection points: 2
#     Edge 194, Type (0, 0), BuildingBlock: CIFDUS_clean_linker_0, # of connection points: 2
#     Edge 195, Type (0, 0), BuildingBlock: CIFDUS_clean_linker_0, # of connection points: 2
#     Edge 196, Type (0, 0), BuildingBlock: CIFDUS_clean_linker_0, # of connection points: 2
#     Edge 197, Type (0, 0), BuildingBlock: CIFDUS_clean_linker_0, # of connection points: 2
#     Edge 198, Type (0, 0), BuildingBlock: CIFDUS_clean_linker_0, # of connection points: 2
#     Edge 199, Type (0, 0), BuildingBlock: CIFDUS_clean_linker_0, # of connection points: 2
#     Edge 200, Type (0, 0), BuildingBlock: CIFDUS_clean_linker_0, # of connection points: 2
#     Edge 201, Type (0, 0), BuildingBlock: CIFDUS_clean_linker_0, # of connection points: 2
#     Edge 202, Type (0, 0), BuildingBlock: CIFDUS_clean_linker_0, # of connection points: 2
#     Edge 203, Type (0, 0), BuildingBlock: CIFDUS_clean_linker_0, # of connection points: 2
#     Edge 204, Type (0, 0), BuildingBlock: CIFDUS_clean_linker_0, # of connection points: 2
#     Edge 205, Type (0, 0), BuildingBlock: CIFDUS_clean_linker_0, # of connection points: 2
#     Edge 206, Type (0, 0), BuildingBlock: CIFDUS_clean_linker_0, # of connection points: 2
#     Edge 207, Type (0, 0), BuildingBlock: CIFDUS_clean_linker_0, # of connection points: 2
#     Edge 208, Type (0, 0), BuildingBlock: CIFDUS_clean_linker_0, # of connection points: 2
#     Edge 209, Type (0, 0), BuildingBlock: CIFDUS_clean_linker_0, # of connection points: 2
#     Edge 210, Type (0, 0), BuildingBlock: CIFDUS_clean_linker_0, # of connection points: 2
#     Edge 211, Type (0, 0), BuildingBlock: CIFDUS_clean_linker_0, # of connection points: 2
#     Edge 212, Type (0, 0), BuildingBlock: CIFDUS_clean_linker_0, # of connection points: 2
#     Edge 213, Type (0, 0), BuildingBlock: CIFDUS_clean_linker_0, # of connection points: 2
#     Edge 214, Type (0, 0), BuildingBlock: CIFDUS_clean_linker_0, # of connection points: 2
#     Edge 215, Type (0, 0), BuildingBlock: CIFDUS_clean_linker_0, # of connection points: 2
#     Edge 216, Type (0, 0), BuildingBlock: CIFDUS_clean_linker_0, # of connection points: 2
#     Edge 217, Type (0, 0), BuildingBlock: CIFDUS_clean_linker_0, # of connection points: 2
#     Edge 218, Type (0, 0), BuildingBlock: CIFDUS_clean_linker_0, # of connection points: 2
#     Edge 219, Type (0, 0), BuildingBlock: CIFDUS_clean_linker_0, # of connection points: 2
#     Edge 220, Type (0, 0), BuildingBlock: CIFDUS_clean_linker_0, # of connection points: 2
#     Edge 221, Type (0, 0), BuildingBlock: CIFDUS_clean_linker_0, # of connection points: 2
#     Edge 222, Type (0, 0), BuildingBlock: CIFDUS_clean_linker_0, # of connection points: 2
#     Edge 223, Type (0, 0), BuildingBlock: CIFDUS_clean_linker_0, # of connection points: 2
#     Edge 224, Type (0, 0), BuildingBlock: CIFDUS_clean_linker_0, # of connection points: 2
#     Edge 225, Type (0, 0), BuildingBlock: CIFDUS_clean_linker_0, # of connection points: 2
#     Edge 226, Type (0, 0), BuildingBlock: CIFDUS_clean_linker_0, # of connection points: 2
#     Edge 227, Type (0, 0), BuildingBlock: CIFDUS_clean_linker_0, # of connection points: 2
#     Edge 228, Type (0, 0), BuildingBlock: CIFDUS_clean_linker_0, # of connection points: 2
#     Edge 229, Type (0, 0), BuildingBlock: CIFDUS_clean_linker_0, # of connection points: 2
#     Edge 230, Type (0, 0), BuildingBlock: CIFDUS_clean_linker_0, # of connection points: 2
#     Edge 231, Type (0, 0), BuildingBlock: CIFDUS_clean_linker_0, # of connection points: 2
#     Edge 232, Type (0, 0), BuildingBlock: CIFDUS_clean_linker_0, # of connection points: 2
#     Edge 233, Type (0, 0), BuildingBlock: CIFDUS_clean_linker_0, # of connection points: 2
#     Edge 234, Type (0, 0), BuildingBlock: CIFDUS_clean_linker_0, # of connection points: 2
#     Edge 235, Type (0, 0), BuildingBlock: CIFDUS_clean_linker_0, # of connection points: 2
#     Edge 236, Type (0, 0), BuildingBlock: CIFDUS_clean_linker_0, # of connection points: 2
#     Edge 237, Type (0, 0), BuildingBlock: CIFDUS_clean_linker_0, # of connection points: 2
#     Edge 238, Type (0, 0), BuildingBlock: CIFDUS_clean_linker_0, # of connection points: 2
#     Edge 239, Type (0, 0), BuildingBlock: CIFDUS_clean_linker_0, # of connection points: 2
#     Edge 240, Type (0, 0), BuildingBlock: CIFDUS_clean_linker_0, # of connection points: 2
#     Edge 241, Type (0, 0), BuildingBlock: CIFDUS_clean_linker_0, # of connection points: 2
#     Edge 242, Type (0, 0), BuildingBlock: CIFDUS_clean_linker_0, # of connection points: 2
#     Edge 243, Type (0, 0), BuildingBlock: CIFDUS_clean_linker_0, # of connection points: 2
#     Edge 244, Type (0, 0), BuildingBlock: CIFDUS_clean_linker_0, # of connection points: 2
#     Edge 245, Type (0, 0), BuildingBlock: CIFDUS_clean_linker_0, # of connection points: 2
#     Edge 246, Type (0, 0), BuildingBlock: CIFDUS_clean_linker_0, # of connection points: 2
#     Edge 247, Type (0, 0), BuildingBlock: CIFDUS_clean_linker_0, # of connection points: 2
#     Edge 248, Type (0, 0), BuildingBlock: CIFDUS_clean_linker_0, # of connection points: 2
#     Edge 249, Type (0, 0), BuildingBlock: CIFDUS_clean_linker_0, # of connection points: 2
#     Edge 250, Type (0, 0), BuildingBlock: CIFDUS_clean_linker_0, # of connection points: 2
#     Edge 251, Type (0, 0), BuildingBlock: CIFDUS_clean_linker_0, # of connection points: 2
#     Edge 252, Type (0, 0), BuildingBlock: CIFDUS_clean_linker_0, # of connection points: 2
#     Edge 253, Type (0, 0), BuildingBlock: CIFDUS_clean_linker_0, # of connection points: 2
#     Edge 254, Type (0, 0), BuildingBlock: CIFDUS_clean_linker_0, # of connection points: 2
#     Edge 255, Type (0, 0), BuildingBlock: CIFDUS_clean_linker_0, # of connection points: 2
#     Edge 256, Type (0, 0), BuildingBlock: CIFDUS_clean_linker_0, # of connection points: 2
#     Edge 257, Type (0, 0), BuildingBlock: CIFDUS_clean_linker_0, # of connection points: 2
#     Edge 258, Type (0, 0), BuildingBlock: CIFDUS_clean_linker_0, # of connection points: 2
#     Edge 259, Type (0, 0), BuildingBlock: CIFDUS_clean_linker_0, # of connection points: 2
#     Edge 260, Type (0, 0), BuildingBlock: CIFDUS_clean_linker_0, # of connection points: 2
#     Edge 261, Type (0, 0), BuildingBlock: CIFDUS_clean_linker_0, # of connection points: 2
#     Edge 262, Type (0, 0), BuildingBlock: CIFDUS_clean_linker_0, # of connection points: 2
#     Edge 263, Type (0, 0), BuildingBlock: CIFDUS_clean_linker_0, # of connection points: 2
#     Edge 264, Type (0, 0), BuildingBlock: CIFDUS_clean_linker_0, # of connection points: 2
#     Edge 265, Type (0, 0), BuildingBlock: CIFDUS_clean_linker_0, # of connection points: 2
#     Edge 266, Type (0, 0), BuildingBlock: CIFDUS_clean_linker_0, # of connection points: 2
#     Edge 267, Type (0, 0), BuildingBlock: CIFDUS_clean_linker_0, # of connection points: 2
#     Edge 268, Type (0, 0), BuildingBlock: CIFDUS_clean_linker_0, # of connection points: 2
#     Edge 269, Type (0, 0), BuildingBlock: CIFDUS_clean_linker_0, # of connection points: 2
#     Edge 270, Type (0, 0), BuildingBlock: CIFDUS_clean_linker_0, # of connection points: 2
#     Edge 271, Type (0, 0), BuildingBlock: CIFDUS_clean_linker_0, # of connection points: 2
#     Edge 272, Type (0, 0), BuildingBlock: CIFDUS_clean_linker_0, # of connection points: 2
#     Edge 273, Type (0, 0), BuildingBlock: CIFDUS_clean_linker_0, # of connection points: 2
#     Edge 274, Type (0, 0), BuildingBlock: CIFDUS_clean_linker_0, # of connection points: 2
#     Edge 275, Type (0, 0), BuildingBlock: CIFDUS_clean_linker_0, # of connection points: 2
#     Edge 276, Type (0, 0), BuildingBlock: CIFDUS_clean_linker_0, # of connection points: 2
#     Edge 277, Type (0, 0), BuildingBlock: CIFDUS_clean_linker_0, # of connection points: 2
#     Edge 278, Type (0, 0), BuildingBlock: CIFDUS_clean_linker_0, # of connection points: 2
#     Edge 279, Type (0, 0), BuildingBlock: CIFDUS_clean_linker_0, # of connection points: 2
#     Edge 280, Type (0, 0), BuildingBlock: CIFDUS_clean_linker_0, # of connection points: 2
#     Edge 281, Type (0, 0), BuildingBlock: CIFDUS_clean_linker_0, # of connection points: 2
#     Edge 282, Type (0, 0), BuildingBlock: CIFDUS_clean_linker_0, # of connection points: 2
#     Edge 283, Type (0, 0), BuildingBlock: CIFDUS_clean_linker_0, # of connection points: 2
#     Edge 284, Type (0, 0), BuildingBlock: CIFDUS_clean_linker_0, # of connection points: 2
#     Edge 285, Type (0, 0), BuildingBlock: CIFDUS_clean_linker_0, # of connection points: 2
#     Edge 286, Type (0, 0), BuildingBlock: CIFDUS_clean_linker_0, # of connection points: 2
#     Edge 287, Type (0, 0), BuildingBlock: CIFDUS_clean_linker_0, # of connection points: 2
# Relax obj value: 0.152
# Max RMSD: 0.095
# Mean RMSD: 0.095
data_MOF--net-kfi--node1-QUQFOY_clean_sbu_3--edge1-CIFDUS_clean_linker_0
_symmetry_space_group_name_H-M    P1
_symmetry_Int_Tables_number       1
_symmetry_cell_setting            triclinic
loop_
_symmetry_equiv_pos_as_xyz
'x, y, z'
_cell_length_a     79.999104
_cell_length_b     80.051227
_cell_length_c     80.016023
_cell_angle_alpha  90.008012
_cell_angle_beta   90.082777
_cell_angle_gamma 89.954161
loop_
_atom_site_label
_atom_site_type_symbol
_atom_site_fract_x
_atom_site_fract_y
_atom_site_fract_z
_atom_type_partial_charge
C0 C 0.09726 0.16837 0.30449 0.0
O1 O 0.10037 0.17751 0.29192 0.0
Cd2 Cd 0.09173 0.20556 0.28826 0.0
O3 O 0.08764 0.17351 0.31613 0.0
Cd4 Cd 0.06952 0.19879 0.32056 0.0
C5 C 0.1041 0.22192 0.32639 0.0
O6 O 0.06235 0.2046 0.29161 0.0
O7 O 0.0574 0.22468 0.30865 0.0
O8 O 0.04674 0.18013 0.32743 0.0
C9 C 0.05624 0.21899 0.29392 0.0
O10 O 0.10589 0.2209 0.3106 0.0
C11 C 0.04156 0.18839 0.33994 0.0
O12 O 0.09211 0.21447 0.33373 0.0
O13 O 0.05025 0.20094 0.3443 0.0
C14 C 0.82741 0.09895 0.29435 0.0
O15 O 0.81838 0.10208 0.28167 0.0
Cd16 Cd 0.79047 0.09334 0.27696 0.0
O17 O 0.82233 0.08913 0.30583 0.0
Cd18 Cd 0.79736 0.07072 0.3099 0.0
C19 C 0.77352 0.1052 0.31495 0.0
O20 O 0.79169 0.06411 0.28086 0.0
O21 O 0.77192 0.05796 0.29782 0.0
O22 O 0.81544 0.04759 0.31752 0.0
C23 C 0.77739 0.05776 0.28297 0.0
O24 O 0.77467 0.1072 0.29919 0.0
C25 C 0.8074 0.04358 0.3306 0.0
O26 O 0.78104 0.09323 0.32228 0.0
O27 O 0.79521 0.05293 0.33464 0.0
C28 C 0.88206 0.81576 0.28319 0.0
O29 O 0.87847 0.80514 0.27198 0.0
Cd30 Cd 0.88702 0.77689 0.27222 0.0
O31 O 0.89242 0.81221 0.29482 0.0
Cd32 Cd 0.9119 0.78847 0.30169 0.0
C33 C 0.87791 0.76725 0.31371 0.0
O34 O 0.91648 0.77809 0.27364 0.0
O35 O 0.92286 0.76078 0.29309 0.0
O36 O 0.93404 0.80907 0.30313 0.0
C37 C 0.92245 0.764 0.27758 0.0
O38 O 0.87487 0.76612 0.29811 0.0
C39 C 0.9407 0.80359 0.31644 0.0
O40 O 0.89064 0.77519 0.31907 0.0
O41 O 0.9335 0.79132 0.3235 0.0
C42 C 0.1645 0.88939 0.30056 0.0
O43 O 0.17306 0.88464 0.28808 0.0
Cd44 Cd 0.20199 0.88982 0.28418 0.0
O45 O 0.17072 0.89915 0.31152 0.0
Cd46 Cd 0.1972 0.91567 0.31444 0.0
C47 C 0.21718 0.87997 0.32366 0.0
O48 O 0.20447 0.91922 0.28507 0.0
O49 O 0.22432 0.92426 0.30242 0.0
O50 O 0.18005 0.94022 0.31903 0.0
C51 C 0.21941 0.92389 0.28736 0.0
O52 O 0.21586 0.87667 0.30813 0.0
C53 C 0.18777 0.94522 0.33197 0.0
O54 O 0.21091 0.89326 0.32977 0.0
O55 O 0.1997 0.9361 0.33719 0.0
C56 C 0.10717 0.81245 0.69978 0.0
O57 O 0.11146 0.79961 0.70806 0.0
Cd58 Cd 0.09831 0.77324 0.70776 0.0
O59 O 0.09443 0.81217 0.69015 0.0
Cd60 Cd 0.07247 0.79067 0.6837 0.0
C61 C 0.10041 0.76425 0.66594 0.0
O62 O 0.06996 0.78118 0.71225 0.0
O63 O 0.05752 0.76547 0.69444 0.0
O64 O 0.05131 0.81267 0.6831 0.0
C65 C 0.06019 0.76909 0.70963 0.0
O66 O 0.10514 0.76067 0.6807 0.0
C67 C 0.04404 0.80735 0.67002 0.0
O68 O 0.08926 0.77533 0.66349 0.0
O69 O 0.05071 0.79494 0.66275 0.0
C70 C 0.1778 0.09455 0.68015 0.0
O71 O 0.18836 0.09819 0.69144 0.0
Cd72 Cd 0.21661 0.08913 0.69225 0.0
O73 O 0.1816 0.08459 0.66832 0.0
Cd74 Cd 0.20602 0.06647 0.66126 0.0
C75 C 0.23001 0.09981 0.65261 0.0
O76 O 0.2145 0.05968 0.68958 0.0
O77 O 0.23237 0.05312 0.67071 0.0
O78 O 0.18533 0.04506 0.65685 0.0
C79 C 0.22827 0.0528 0.686 0.0
O80 O 0.2307 0.10197 0.66837 0.0
C81 C 0.19166 0.03923 0.64354 0.0
O82 O 0.2211 0.08821 0.64633 0.0
O83 O 0.20434 0.04681 0.63775 0.0
C84 C 0.88983 0.17341 0.69892 0.0
O85 O 0.88739 0.18492 0.70954 0.0
Cd86 Cd 0.89549 0.21305 0.7053 0.0
O87 O 0.89893 0.17597 0.68609 0.0
Cd88 Cd 0.91776 0.19861 0.67548 0.0
C89 C 0.88275 0.21819 0.66396 0.0
O90 O 0.92479 0.21251 0.70148 0.0
O91 O 0.92894 0.22714 0.67937 0.0
O92 O 0.93979 0.17795 0.67498 0.0
C93 C 0.9301 0.22597 0.69513 0.0
O94 O 0.8809 0.22097 0.67954 0.0
C95 C 0.94539 0.18176 0.66065 0.0
O96 O 0.89514 0.2098 0.65852 0.0
O97 O 0.93756 0.19305 0.65265 0.0
C98 C 0.82436 0.89831 0.67421 0.0
O99 O 0.82083 0.91046 0.68359 0.0
Cd100 Cd 0.79513 0.91647 0.66839 0.0
O101 O 0.81491 0.89599 0.66172 0.0
Cd102 Cd 0.79204 0.91955 0.66175 0.0
C103 C 0.77704 0.89206 0.6433 0.0
O104 O 0.77902 0.92162 0.69105 0.0
O105 O 0.7618 0.9213 0.67052 0.0
O106 O 0.81153 0.94315 0.66589 0.0
C107 C 0.76403 0.92236 0.68618 0.0
O108 O 0.78199 0.88982 0.65819 0.0
C109 C 0.80529 0.95216 0.65443 0.0
O110 O 0.77974 0.90628 0.63695 0.0
O111 O 0.7935 0.94577 0.64592 0.0
C112 C 0.29258 0.10219 0.16643 0.0
O113 O 0.28157 0.10767 0.17645 0.0
Cd114 Cd 0.27918 0.0992 0.20487 0.0
O115 O 0.30257 0.09053 0.17072 0.0
Cd116 Cd 0.30633 0.07164 0.19511 0.0
C117 C 0.31985 0.10397 0.21849 0.0
O118 O 0.27715 0.06953 0.20293 0.0
O119 O 0.29459 0.05992 0.22103 0.0
O120 O 0.30933 0.0475 0.17687 0.0
C121 C 0.27951 0.06195 0.21661 0.0
O122 O 0.30477 0.10912 0.21884 0.0
C123 C 0.32298 0.04257 0.18334 0.0
O124 O 0.32382 0.09096 0.21031 0.0
O125 O 0.32921 0.05165 0.19477 0.0
C126 C 0.88587 0.29346 0.17208 0.0
O127 O 0.8834 0.28398 0.18454 0.0
Cd128 Cd 0.89541 0.28784 0.21128 0.0
O129 O 0.89653 0.3053 0.17285 0.0
Cd130 Cd 0.91801 0.31494 0.19359 0.0
C131 C 0.88718 0.32998 0.21739 0.0
O132 O 0.92462 0.28829 0.20634 0.0
O133 O 0.93221 0.30961 0.22071 0.0
O134 O 0.93838 0.31398 0.17124 0.0
C135 C 0.93233 0.29388 0.21895 0.0
O136 O 0.8844 0.31471 0.22088 0.0
C137 C 0.9452 0.32787 0.17467 0.0
O138 O 0.89861 0.33406 0.20711 0.0
O139 O 0.93855 0.33641 0.18629 0.0
C140 C 0.68994 0.88548 0.18475 0.0
O141 O 0.69861 0.88199 0.19759 0.0
Cd142 Cd 0.69595 0.8938 0.2245 0.0
O143 O 0.67857 0.89667 0.18534 0.0
Cd144 Cd 0.66898 0.91698 0.20746 0.0
C145 C 0.65428 0.88673 0.23273 0.0
O146 O 0.69645 0.92288 0.21879 0.0
O147 O 0.67633 0.93123 0.23428 0.0
O148 O 0.66747 0.93861 0.18615 0.0
C149 C 0.69193 0.93088 0.2316 0.0
O150 O 0.66955 0.88391 0.23626 0.0
C151 C 0.65359 0.9446 0.19094 0.0
O152 O 0.65035 0.89754 0.22173 0.0
O153 O 0.64628 0.937 0.20277 0.0
C154 C 0.09969 0.69064 0.16618 0.0
O155 O 0.1032 0.70292 0.17558 0.0
Cd156 Cd 0.09721 0.70301 0.20476 0.0
O157 O 0.09082 0.67855 0.17154 0.0
Cd158 Cd 0.07437 0.67137 0.19702 0.0
C159 C 0.1111 0.66332 0.21554 0.0
O160 O 0.06784 0.6992 0.20745 0.0
O161 O 0.06503 0.67906 0.22508 0.0
O162 O 0.04993 0.66699 0.17966 0.0
C163 C 0.06323 0.69444 0.22184 0.0
O164 O 0.113 0.67913 0.21582 0.0
C165 C 0.04591 0.65305 0.18607 0.0
O166 O 0.09819 0.65675 0.20892 0.0
O167 O 0.05578 0.64706 0.197 0.0
C168 C 0.29803 0.88758 0.81503 0.0
O169 O 0.28778 0.8839 0.80348 0.0
Cd170 Cd 0.28884 0.89338 0.77545 0.0
O171 O 0.30973 0.89812 0.81254 0.0
Cd172 Cd 0.31757 0.91737 0.78894 0.0
C173 C 0.33008 0.88476 0.76557 0.0
O174 O 0.28963 0.92286 0.77816 0.0
O175 O 0.30965 0.93015 0.76189 0.0
O176 O 0.31963 0.93999 0.809 0.0
C177 C 0.29409 0.93 0.76479 0.0
O178 O 0.31456 0.88169 0.76368 0.0
C179 C 0.33346 0.94562 0.80366 0.0
O180 O 0.33497 0.89677 0.77479 0.0
O181 O 0.34052 0.93737 0.79208 0.0
C182 C 0.11901 0.29036 0.81369 0.0
O183 O 0.12316 0.27987 0.80254 0.0
Cd184 Cd 0.10993 0.27687 0.7759 0.0
O185 O 0.10663 0.30014 0.81139 0.0
Cd186 Cd 0.08561 0.30516 0.78903 0.0
C187 C 0.1152 0.31674 0.76115 0.0
O188 O 0.08038 0.27637 0.78041 0.0
O189 O 0.07084 0.29553 0.76407 0.0
O190 O 0.06398 0.308 0.81015 0.0
C191 C 0.07173 0.28015 0.76767 0.0
O192 O 0.11875 0.30128 0.7599 0.0
C193 C 0.05816 0.32164 0.80453 0.0
O194 O 0.10426 0.32179 0.77155 0.0
O195 O 0.06582 0.32817 0.79227 0.0
C196 C 0.67273 0.09572 0.82502 0.0
O197 O 0.6845 0.08568 0.82189 0.0
Cd198 Cd 0.67145 0.07719 0.79581 0.0
O199 O 0.66034 0.09567 0.81514 0.0
Cd200 Cd 0.6637 0.07312 0.79174 0.0
C201 C 0.64747 0.10189 0.77627 0.0
O202 O 0.69381 0.07084 0.77996 0.0
O203 O 0.67362 0.07073 0.76223 0.0
O204 O 0.6667 0.04933 0.81082 0.0
C205 C 0.68923 0.06961 0.76488 0.0
O206 O 0.66198 0.10364 0.78239 0.0
C207 C 0.65516 0.04076 0.80413 0.0
O208 O 0.64065 0.0877 0.77779 0.0
O209 O 0.64711 0.04755 0.79223 0.0
C210 C 0.87813 0.68521 0.81063 0.0
O211 O 0.87367 0.69387 0.7981 0.0
Cd212 Cd 0.88585 0.69278 0.77114 0.0
O213 O 0.89035 0.67501 0.80964 0.0
Cd214 Cd 0.91171 0.66763 0.78798 0.0
C215 C 0.88316 0.65071 0.76175 0.0
O216 O 0.91465 0.69592 0.77755 0.0
O217 O 0.92693 0.67739 0.76264 0.0
O218 O 0.93155 0.6681 0.81099 0.0
C219 C 0.92404 0.69272 0.76531 0.0
O220 O 0.87877 0.66573 0.75879 0.0
C221 C 0.93944 0.65505 0.80667 0.0
O222 O 0.89436 0.64755 0.77264 0.0
O223 O 0.93389 0.64726 0.79399 0.0
C224 C 0.16233 0.28749 0.10693 0.0
O225 O 0.17206 0.27571 0.11123 0.0
Cd226 Cd 0.20059 0.2729 0.10341 0.0
O227 O 0.167 0.29842 0.09632 0.0
Cd228 Cd 0.19199 0.30301 0.07828 0.0
C229 C 0.21384 0.31293 0.11291 0.0
O230 O 0.20115 0.27432 0.07381 0.0
O231 O 0.21926 0.29332 0.06812 0.0
O232 O 0.17462 0.30675 0.0536 0.0
C233 C 0.2155 0.27794 0.06822 0.0
O234 O 0.21401 0.29732 0.11607 0.0
C235 C 0.18084 0.32075 0.0495 0.0
O236 O 0.20614 0.31864 0.10019 0.0
O237 O 0.19176 0.32688 0.05928 0.0
C238 C 0.17261 0.69444 0.88018 0.0
O239 O 0.18434 0.70424 0.87595 0.0
Cd240 Cd 0.21281 0.70174 0.88401 0.0
O241 O 0.17531 0.68241 0.89029 0.0
Cd242 Cd 0.19951 0.67254 0.90758 0.0
C243 C 0.22096 0.66059 0.87349 0.0
O244 O 0.2117 0.69968 0.91361 0.0
O245 O 0.22733 0.67871 0.91958 0.0
O246 O 0.18048 0.6703 0.93101 0.0
C247 C 0.22517 0.69438 0.91997 0.0
O248 O 0.22327 0.67614 0.87097 0.0
C249 C 0.18534 0.65594 0.93566 0.0
O250 O 0.21202 0.65554 0.88563 0.0
O251 O 0.19623 0.64878 0.9266 0.0
C252 C 0.29477 0.17017 0.88119 0.0
O253 O 0.28368 0.18067 0.87687 0.0
Cd254 Cd 0.28087 0.20864 0.88633 0.0
O255 O 0.30559 0.17379 0.89234 0.0
Cd256 Cd 0.31054 0.19823 0.91117 0.0
C257 C 0.32079 0.22285 0.87856 0.0
O258 O 0.28154 0.20623 0.91588 0.0
O259 O 0.29988 0.22423 0.92364 0.0
O260 O 0.31527 0.17971 0.93474 0.0
C261 C 0.28464 0.22 0.923 0.0
O262 O 0.30523 0.22342 0.87518 0.0
C263 C 0.32887 0.18652 0.9393 0.0
O264 O 0.32625 0.21393 0.89055 0.0
O265 O 0.33442 0.1982 0.93014 0.0
C266 C 0.83392 0.30648 0.88376 0.0
O267 O 0.82625 0.29364 0.87848 0.0
Cd268 Cd 0.79886 0.28538 0.88726 0.0
O269 O 0.82825 0.31504 0.89592 0.0
Cd270 Cd 0.80496 0.31252 0.91624 0.0
C271 C 0.77835 0.32354 0.88561 0.0
O272 O 0.79938 0.28239 0.91669 0.0
O273 O 0.78017 0.29854 0.92648 0.0
O274 O 0.82372 0.31386 0.94007 0.0
C275 C 0.78521 0.2838 0.92369 0.0
O276 O 0.78041 0.30872 0.88012 0.0
C277 C 0.81616 0.32583 0.94724 0.0
O278 O 0.7865 0.32878 0.89827 0.0
O279 O 0.80402 0.33241 0.93936 0.0
C280 C 0.66173 0.83332 0.89642 0.0
O281 O 0.67284 0.83295 0.90761 0.0
Cd282 Cd 0.66484 0.80492 0.91632 0.0
O283 O 0.65157 0.82122 0.89611 0.0
Cd284 Cd 0.65957 0.80063 0.92035 0.0
C285 C 0.64192 0.78073 0.89536 0.0
O286 O 0.69112 0.79485 0.91921 0.0
O287 O 0.67545 0.77346 0.92286 0.0
O288 O 0.66236 0.82122 0.94327 0.0
C289 C 0.69014 0.77932 0.9217 0.0
O290 O 0.65502 0.78861 0.89127 0.0
C291 C 0.6529 0.81334 0.95325 0.0
O292 O 0.63697 0.78244 0.91027 0.0
O293 O 0.6459 0.80026 0.94762 0.0
C294 C 0.82032 0.66355 0.09357 0.0
O295 O 0.82095 0.67576 0.08363 0.0
Cd296 Cd 0.79374 0.66866 0.07116 0.0
O297 O 0.80804 0.65375 0.09188 0.0
Cd298 Cd 0.79055 0.66341 0.06608 0.0
C299 C 0.769 0.64116 0.08474 0.0
O300 O 0.7804 0.69383 0.06902 0.0
O301 O 0.762 0.67554 0.06223 0.0
O302 O 0.81263 0.67086 0.04561 0.0
C303 C 0.76542 0.69077 0.06498 0.0
O304 O 0.77467 0.65421 0.0917 0.0
C305 C 0.80735 0.66082 0.03451 0.0
O306 O 0.77385 0.63823 0.07 0.0
O307 O 0.795 0.6517 0.03842 0.0
C308 C 0.29735 0.81217 0.10445 0.0
O309 O 0.2866 0.80175 0.10962 0.0
Cd310 Cd 0.28539 0.77372 0.1004 0.0
O311 O 0.30738 0.80848 0.0926 0.0
Cd312 Cd 0.31098 0.78463 0.07239 0.0
C313 C 0.32708 0.76174 0.10359 0.0
O314 O 0.28181 0.77641 0.07108 0.0
O315 O 0.29891 0.758 0.06176 0.0
O316 O 0.31128 0.8051 0.04987 0.0
C317 C 0.28388 0.76254 0.06386 0.0
O318 O 0.31205 0.76105 0.10881 0.0
C319 C 0.3237 0.79891 0.04219 0.0
O320 O 0.33073 0.77004 0.09054 0.0
O321 O 0.33074 0.78639 0.04895 0.0
C322 C 0.67384 0.16085 0.09337 0.0
O323 O 0.68567 0.16434 0.08354 0.0
Cd324 Cd 0.67235 0.19046 0.0755 0.0
O325 O 0.66135 0.17059 0.09339 0.0
Cd326 Cd 0.66443 0.19438 0.07114 0.0
C327 C 0.6478 0.20883 0.10046 0.0
O328 O 0.69431 0.20692 0.06954 0.0
O329 O 0.67367 0.22404 0.06787 0.0
O330 O 0.66859 0.17492 0.04788 0.0
C331 C 0.68937 0.22179 0.06744 0.0
O332 O 0.66244 0.20302 0.10208 0.0
C333 C 0.65717 0.18104 0.03872 0.0
O334 O 0.64106 0.20761 0.08617 0.0
O335 O 0.64855 0.19286 0.04494 0.0
C336 C 0.8872 0.82256 0.68609 0.0
O337 O 0.88271 0.81526 0.69944 0.0
Cd338 Cd 0.89057 0.78722 0.70636 0.0
O339 O 0.89826 0.81614 0.67661 0.0
Cd340 Cd 0.91776 0.79194 0.67695 0.0
C341 C 0.88408 0.76876 0.66757 0.0
O342 O 0.92015 0.78555 0.7067 0.0
O343 O 0.92766 0.76612 0.68961 0.0
O344 O 0.94175 0.81018 0.67423 0.0
C345 C 0.9261 0.77099 0.7046 0.0
O346 O 0.87993 0.77083 0.68281 0.0
C347 C 0.94789 0.80283 0.66158 0.0
O348 O 0.89717 0.7756 0.66163 0.0
O349 O 0.93943 0.79087 0.65542 0.0
C350 C 0.17141 0.88716 0.69278 0.0
O351 O 0.18243 0.88395 0.70377 0.0
Cd352 Cd 0.20923 0.89618 0.70653 0.0
O353 O 0.17372 0.89868 0.68201 0.0
Cd354 Cd 0.19603 0.91997 0.67676 0.0
C355 C 0.22324 0.88953 0.6663 0.0
O356 O 0.20364 0.92521 0.70553 0.0
O357 O 0.22116 0.93469 0.68771 0.0
O358 O 0.17489 0.94131 0.67196 0.0
C359 C 0.21694 0.93327 0.7029 0.0
O360 O 0.22436 0.88631 0.68186 0.0
C361 C 0.1811 0.94645 0.6583 0.0
O362 O 0.21327 0.90071 0.66093 0.0
O363 O 0.19385 0.93871 0.65287 0.0
C364 C 0.10224 0.154 0.69972 0.0
O365 O 0.10595 0.16527 0.71025 0.0
Cd366 Cd 0.09451 0.19235 0.71228 0.0
O367 O 0.0903 0.15603 0.68929 0.0
Cd368 Cd 0.06837 0.17814 0.68475 0.0
C369 C 0.09832 0.20412 0.6707 0.0
O370 O 0.0656 0.1869 0.71344 0.0
O371 O 0.05567 0.20432 0.69577 0.0
O372 O 0.04556 0.15803 0.68318 0.0
C373 C 0.05795 0.20047 0.71096 0.0
O374 O 0.10261 0.20577 0.68597 0.0
C375 C 0.03926 0.16401 0.66988 0.0
O376 O 0.08657 0.19425 0.66652 0.0
O377 O 0.04726 0.17579 0.66289 0.0
C378 C 0.81931 0.10618 0.69156 0.0
O379 O 0.80958 0.11073 0.70322 0.0
Cd380 Cd 0.78089 0.10391 0.70536 0.0
O381 O 0.81437 0.09598 0.68033 0.0
Cd382 Cd 0.78852 0.07886 0.67547 0.0
C383 C 0.76756 0.11381 0.66532 0.0
O384 O 0.78024 0.07436 0.70434 0.0
O385 O 0.7611 0.06953 0.68617 0.0
O386 O 0.80571 0.05413 0.6716 0.0
C387 C 0.76561 0.06918 0.70135 0.0
O388 O 0.76774 0.11689 0.68094 0.0
C389 C 0.79866 0.04939 0.6582 0.0
O390 O 0.77482 0.10091 0.65947 0.0
O391 O 0.78738 0.05889 0.65228 0.0
C392 C 0.89395 0.17027 0.28691 0.0
O393 O 0.89151 0.18069 0.2752 0.0
Cd394 Cd 0.90057 0.20873 0.2749 0.0
O395 O 0.90294 0.17403 0.29956 0.0
Cd396 Cd 0.92129 0.19808 0.30816 0.0
C397 C 0.88674 0.22131 0.31422 0.0
O398 O 0.92944 0.20569 0.28027 0.0
O399 O 0.93527 0.22428 0.29858 0.0
O400 O 0.94202 0.17694 0.31453 0.0
C401 C 0.93607 0.21963 0.28346 0.0
O402 O 0.88569 0.22167 0.29832 0.0
C403 C 0.94726 0.18365 0.32791 0.0
O404 O 0.89833 0.21315 0.32151 0.0
O405 O 0.93974 0.19678 0.33273 0.0
C406 C 0.81681 0.88734 0.30022 0.0
O407 O 0.80529 0.88381 0.28989 0.0
Cd408 Cd 0.77803 0.8952 0.28991 0.0
O409 O 0.81473 0.8987 0.31123 0.0
Cd410 Cd 0.79239 0.91992 0.31752 0.0
C411 C 0.76745 0.88932 0.33152 0.0
O412 O 0.78298 0.92434 0.28912 0.0
O413 O 0.76605 0.93345 0.30774 0.0
O414 O 0.81461 0.94047 0.31871 0.0
C415 C 0.76971 0.93224 0.29238 0.0
O416 O 0.76551 0.88569 0.31613 0.0
C417 C 0.8092 0.94799 0.33158 0.0
O418 O 0.77725 0.90105 0.33596 0.0
O419 O 0.79637 0.94181 0.33858 0.0
C420 C 0.09249 0.82552 0.29089 0.0
O421 O 0.09595 0.81586 0.27881 0.0
Cd422 Cd 0.08994 0.78707 0.2773 0.0
O423 O 0.08349 0.82054 0.3031 0.0
Cd424 Cd 0.06655 0.79462 0.30909 0.0
C425 C 0.10263 0.77477 0.31715 0.0
O426 O 0.06074 0.78613 0.2806 0.0
O427 O 0.05733 0.7669 0.29889 0.0
O428 O 0.042 0.81185 0.31343 0.0
C429 C 0.05614 0.77137 0.28375 0.0
O430 O 0.10458 0.77504 0.30134 0.0
C431 C 0.0369 0.80424 0.32637 0.0
O432 O 0.08989 0.78151 0.32394 0.0
O433 O 0.0464 0.79291 0.33219 0.0
C434 C 0.16554 0.09854 0.29544 0.0
O435 O 0.17649 0.10138 0.28433 0.0
Cd436 Cd 0.2045 0.09184 0.28448 0.0
O437 O 0.16853 0.08858 0.30755 0.0
Cd438 Cd 0.19182 0.06892 0.31532 0.0
C439 C 0.21549 0.10207 0.32534 0.0
O440 O 0.20191 0.0627 0.28754 0.0
O441 O 0.21872 0.05592 0.30729 0.0
O442 O 0.1711 0.04706 0.31791 0.0
C443 C 0.2156 0.05602 0.29177 0.0
O444 O 0.21668 0.10427 0.3096 0.0
C445 C 0.17706 0.04078 0.33122 0.0
O446 O 0.20659 0.09031 0.33133 0.0
O447 O 0.1892 0.04848 0.33798 0.0
C448 C 0.68454 0.8851 0.81591 0.0
O449 O 0.69588 0.87876 0.80684 0.0
Cd450 Cd 0.6988 0.88458 0.77777 0.0
O451 O 0.6748 0.89638 0.81027 0.0
Cd452 Cd 0.67243 0.91336 0.78431 0.0
C453 C 0.65815 0.87981 0.76384 0.0
O454 O 0.70175 0.91417 0.77617 0.0
O455 O 0.68417 0.92149 0.75714 0.0
O456 O 0.67039 0.93849 0.80116 0.0
C457 C 0.69928 0.91993 0.76163 0.0
O458 O 0.67315 0.87443 0.76416 0.0
C459 C 0.65721 0.94391 0.79413 0.0
O460 O 0.65424 0.89347 0.77094 0.0
O461 O 0.65083 0.93481 0.7828 0.0
C462 C 0.09182 0.69021 0.82408 0.0
O463 O 0.09369 0.70244 0.81415 0.0
Cd464 Cd 0.08325 0.70475 0.78645 0.0
O465 O 0.08202 0.67817 0.82039 0.0
Cd466 Cd 0.06199 0.67158 0.79718 0.0
C467 C 0.0958 0.66554 0.77282 0.0
O468 O 0.05435 0.69932 0.78793 0.0
O469 O 0.04901 0.6797 0.77046 0.0
O470 O 0.03903 0.66619 0.81616 0.0
C471 C 0.04837 0.69514 0.77387 0.0
O472 O 0.09714 0.68141 0.77247 0.0
C473 C 0.03504 0.6522 0.80978 0.0
O474 O 0.08442 0.65841 0.78138 0.0
O475 O 0.04456 0.64656 0.79839 0.0
C476 C 0.28662 0.09947 0.81313 0.0
O477 O 0.27677 0.10207 0.80096 0.0
Cd478 Cd 0.27857 0.08971 0.77422 0.0
O479 O 0.29825 0.08857 0.8121 0.0
Cd480 Cd 0.30699 0.06701 0.79102 0.0
C481 C 0.3203 0.09758 0.76546 0.0
O482 O 0.27944 0.06082 0.78037 0.0
O483 O 0.29933 0.05211 0.76476 0.0
O484 O 0.30844 0.04646 0.81333 0.0
C485 C 0.28375 0.05273 0.76754 0.0
O486 O 0.30485 0.10029 0.76264 0.0
C487 C 0.32236 0.04027 0.80888 0.0
O488 O 0.32488 0.08646 0.77588 0.0
O489 O 0.32968 0.04726 0.79666 0.0
C490 C 0.91087 0.31733 0.82277 0.0
O491 O 0.92402 0.30889 0.82081 0.0
Cd492 Cd 0.92822 0.31955 0.79256 0.0
O493 O 0.90721 0.32756 0.81127 0.0
Cd494 Cd 0.93056 0.32524 0.78837 0.0
C495 C 0.90197 0.33991 0.77146 0.0
O496 O 0.93444 0.29431 0.78124 0.0
O497 O 0.93169 0.31066 0.76024 0.0
O498 O 0.9552 0.32647 0.80713 0.0
C499 C 0.93412 0.29592 0.76557 0.0
O500 O 0.90051 0.3259 0.77868 0.0
C501 C 0.96287 0.33735 0.79852 0.0
O502 O 0.91601 0.34707 0.77263 0.0
O503 O 0.95527 0.34302 0.78579 0.0
C504 C 0.69616 0.09796 0.16638 0.0
O505 O 0.70812 0.10139 0.17623 0.0
Cd506 Cd 0.70878 0.09233 0.20463 0.0
O507 O 0.68483 0.08758 0.17057 0.0
Cd508 Cd 0.67896 0.06766 0.19377 0.0
C509 C 0.66773 0.10104 0.21641 0.0
O510 O 0.70718 0.06275 0.20413 0.0
O511 O 0.68718 0.05576 0.22071 0.0
O512 O 0.67762 0.04513 0.1736 0.0
C513 C 0.70275 0.05622 0.21786 0.0
O514 O 0.68335 0.10422 0.21692 0.0
C515 C 0.66392 0.03909 0.17881 0.0
O516 O 0.66216 0.0885 0.20832 0.0
O517 O 0.65658 0.04702 0.19046 0.0
C518 C 0.89416 0.66397 0.16077 0.0
O519 O 0.90646 0.6737 0.16232 0.0
Cd520 Cd 0.91314 0.66274 0.1902 0.0
O521 O 0.8921 0.65336 0.1723 0.0
Cd522 Cd 0.91657 0.65648 0.19395 0.0
C523 C 0.8899 0.63838 0.21067 0.0
O524 O 0.91837 0.68684 0.2043 0.0
O525 O 0.91928 0.66781 0.22315 0.0
O526 O 0.93955 0.65943 0.17351 0.0
C527 C 0.91997 0.68325 0.2196 0.0
O528 O 0.88708 0.65278 0.20472 0.0
C529 C 0.94889 0.64856 0.18031 0.0
O530 O 0.9044 0.63243 0.20848 0.0
O531 O 0.94295 0.6409 0.19286 0.0
C532 C 0.31439 0.88846 0.16501 0.0
O533 O 0.30202 0.89804 0.16708 0.0
Cd534 Cd 0.31369 0.90931 0.19285 0.0
O535 O 0.32635 0.88986 0.17529 0.0
Cd536 Cd 0.32077 0.91434 0.19619 0.0
C537 C 0.34025 0.88955 0.21447 0.0
O538 O 0.29068 0.91511 0.20823 0.0
O539 O 0.31091 0.91889 0.22548 0.0
O540 O 0.31537 0.93605 0.17512 0.0
C541 C 0.29524 0.91836 0.22302 0.0
O542 O 0.32601 0.88548 0.20886 0.0
C543 C 0.3267 0.9458 0.1804 0.0
O544 O 0.34536 0.90415 0.21121 0.0
O545 O 0.33555 0.94064 0.19254 0.0
C546 C 0.09529 0.28813 0.17857 0.0
O547 O 0.09829 0.27912 0.19128 0.0
Cd548 Cd 0.08767 0.28298 0.21859 0.0
O549 O 0.08503 0.30034 0.17939 0.0
Cd550 Cd 0.06554 0.31186 0.20114 0.0
C551 C 0.09791 0.32446 0.22507 0.0
O552 O 0.05856 0.28538 0.21367 0.0
O553 O 0.05096 0.30652 0.22815 0.0
O554 O 0.04382 0.31461 0.18003 0.0
C555 C 0.05113 0.29079 0.22648 0.0
O556 O 0.10015 0.30911 0.22864 0.0
C557 C 0.03955 0.32933 0.18413 0.0
O558 O 0.08661 0.32892 0.21478 0.0
O559 O 0.04802 0.33627 0.19562 0.0
C560 C 0.81311 0.7087 0.88085 0.0
O561 O 0.80223 0.71995 0.87815 0.0
Cd562 Cd 0.77421 0.71947 0.88813 0.0
O563 O 0.81024 0.69693 0.89119 0.0
Cd564 Cd 0.78775 0.68899 0.91118 0.0
C565 C 0.76514 0.67859 0.87725 0.0
O566 O 0.77525 0.71586 0.91746 0.0
O567 O 0.76009 0.69447 0.92323 0.0
O568 O 0.80679 0.68634 0.93475 0.0
C569 C 0.76169 0.71021 0.92336 0.0
O570 O 0.76313 0.69422 0.87494 0.0
C571 C 0.80255 0.67147 0.93834 0.0
O572 O 0.77403 0.67309 0.88928 0.0
O573 O 0.79207 0.66447 0.92866 0.0
C574 C 0.81541 0.29922 0.10353 0.0
O575 O 0.80482 0.28861 0.10868 0.0
Cd576 Cd 0.77671 0.28648 0.09995 0.0
O577 O 0.81172 0.30939 0.0918 0.0
Cd578 Cd 0.78709 0.31342 0.07264 0.0
C579 C 0.76435 0.3276 0.10495 0.0
O580 O 0.77877 0.28438 0.07047 0.0
O581 O 0.76012 0.30183 0.06235 0.0
O582 O 0.80619 0.31557 0.04908 0.0
C583 C 0.7646 0.28672 0.0639 0.0
O584 O 0.76361 0.3124 0.10962 0.0
C585 C 0.79948 0.32853 0.04284 0.0
O586 O 0.77266 0.33178 0.09207 0.0
O587 O 0.78735 0.33487 0.05086 0.0
C588 C 0.69172 0.82063 0.11064 0.0
O589 O 0.70295 0.81045 0.11536 0.0
Cd590 Cd 0.70684 0.78254 0.10608 0.0
O591 O 0.68172 0.81683 0.09879 0.0
Cd592 Cd 0.6788 0.79253 0.07919 0.0
C593 C 0.66641 0.76855 0.11151 0.0
O594 O 0.70805 0.78412 0.07655 0.0
O595 O 0.68999 0.76605 0.06831 0.0
O596 O 0.67527 0.81045 0.05473 0.0
C597 C 0.70523 0.77006 0.06987 0.0
O598 O 0.68174 0.76806 0.11587 0.0
C599 C 0.66168 0.8037 0.05002 0.0
O600 O 0.66173 0.77716 0.09898 0.0
O601 O 0.65578 0.7923 0.05932 0.0
C602 C 0.15755 0.67167 0.08844 0.0
O603 O 0.16042 0.68397 0.07898 0.0
Cd604 Cd 0.18622 0.6713 0.06903 0.0
O605 O 0.1674 0.65932 0.08741 0.0
Cd606 Cd 0.19015 0.66349 0.06431 0.0
C607 C 0.20654 0.64614 0.09196 0.0
O608 O 0.20255 0.69347 0.06307 0.0
O609 O 0.21968 0.67288 0.06101 0.0
O610 O 0.17076 0.66758 0.04087 0.0
C611 C 0.21744 0.68858 0.06092 0.0
O612 O 0.20039 0.66048 0.0946 0.0
C613 C 0.17664 0.65573 0.03212 0.0
O614 O 0.20461 0.63999 0.0775 0.0
O615 O 0.18833 0.64716 0.0386 0.0
C616 C 0.31568 0.16014 0.09028 0.0
O617 O 0.30429 0.16252 0.07961 0.0
Cd618 Cd 0.31578 0.18956 0.07192 0.0
O619 O 0.32729 0.17085 0.09093 0.0
Cd620 Cd 0.32283 0.19369 0.06802 0.0
C621 C 0.3391 0.20981 0.09648 0.0
O622 O 0.29208 0.20378 0.06654 0.0
O623 O 0.3111 0.22262 0.06516 0.0
O624 O 0.32037 0.17366 0.04489 0.0
C625 C 0.29564 0.21906 0.06483 0.0
O626 O 0.32486 0.2032 0.09848 0.0
C627 C 0.33151 0.18046 0.03592 0.0
O628 O 0.34564 0.20858 0.08213 0.0
O629 O 0.33899 0.19305 0.04208 0.0
C630 C 0.16831 0.31318 0.8971 0.0
O631 O 0.16418 0.31879 0.91124 0.0
Cd632 Cd 0.19461 0.32017 0.92021 0.0
O633 O 0.18374 0.3114 0.89464 0.0
Cd634 Cd 0.19731 0.3215 0.92222 0.0
C635 C 0.21357 0.34335 0.89759 0.0
O636 O 0.20807 0.2937 0.92697 0.0
O637 O 0.22667 0.31299 0.92854 0.0
O638 O 0.17433 0.31629 0.943 0.0
C639 C 0.22322 0.29753 0.92945 0.0
O640 O 0.21153 0.32797 0.89495 0.0
C641 C 0.17881 0.32784 0.95288 0.0
O642 O 0.20761 0.34895 0.91109 0.0
O643 O 0.19094 0.33687 0.94816 0.0
C644 C 0.6955 0.17246 0.88274 0.0
O645 O 0.70633 0.18276 0.87743 0.0
Cd646 Cd 0.70889 0.21112 0.88635 0.0
O647 O 0.68543 0.17639 0.89443 0.0
Cd648 Cd 0.68106 0.20066 0.91334 0.0
C649 C 0.66841 0.22489 0.881 0.0
O650 O 0.71024 0.20911 0.91603 0.0
O651 O 0.69211 0.22634 0.92586 0.0
O652 O 0.67718 0.18236 0.93738 0.0
C653 C 0.70734 0.22258 0.92379 0.0
O654 O 0.68366 0.22569 0.87647 0.0
C655 C 0.66351 0.18902 0.94199 0.0
O656 O 0.66411 0.21602 0.89346 0.0
O657 O 0.65767 0.20052 0.93275 0.0
C658 C 0.30355 0.82081 0.88638 0.0
O659 O 0.29133 0.81157 0.88229 0.0
Cd660 Cd 0.28768 0.78324 0.88955 0.0
O661 O 0.31463 0.81564 0.89668 0.0
Cd662 Cd 0.31789 0.78996 0.91475 0.0
C663 C 0.32743 0.76851 0.87998 0.0
O664 O 0.28866 0.78295 0.919 0.0
O665 O 0.30586 0.76296 0.92382 0.0
O666 O 0.32125 0.80716 0.93952 0.0
C667 C 0.29092 0.76821 0.9242 0.0
O668 O 0.31181 0.76937 0.87698 0.0
C669 C 0.33374 0.79926 0.94532 0.0
O670 O 0.33368 0.77544 0.8929 0.0
O671 O 0.33981 0.78781 0.93614 0.0
C672 C 0.60672 0.67527 0.79035 0.0
O673 O 0.61009 0.6872 0.78047 0.0
Cd674 Cd 0.5973 0.71379 0.77957 0.0
O675 O 0.59529 0.67676 0.80139 0.0
Cd676 Cd 0.57461 0.6994 0.80839 0.0
C677 C 0.60421 0.7276 0.81959 0.0
O678 O 0.56853 0.70628 0.77956 0.0
O679 O 0.55863 0.72381 0.79714 0.0
O680 O 0.55314 0.67842 0.81376 0.0
C681 C 0.55947 0.71891 0.78211 0.0
O682 O 0.60706 0.7294 0.80404 0.0
C683 C 0.548 0.68501 0.82724 0.0
O684 O 0.59368 0.71683 0.82465 0.0
O685 O 0.55602 0.69765 0.83249 0.0
C686 C 0.32002 0.60301 0.77657 0.0
O687 O 0.30966 0.60646 0.76504 0.0
Cd688 Cd 0.28144 0.59754 0.76363 0.0
O689 O 0.31623 0.59279 0.7882 0.0
Cd690 Cd 0.29226 0.57383 0.79471 0.0
C691 C 0.26905 0.60778 0.80394 0.0
O692 O 0.28314 0.56821 0.76636 0.0
O693 O 0.26577 0.56098 0.78543 0.0
O694 O 0.31225 0.55137 0.79831 0.0
C695 C 0.26933 0.56149 0.77001 0.0
O696 O 0.26857 0.61032 0.78822 0.0
C697 C 0.30612 0.5459 0.81187 0.0
O698 O 0.27726 0.59556 0.81006 0.0
O699 O 0.29407 0.55416 0.81811 0.0
C700 C 0.38019 0.33089 0.79196 0.0
O701 O 0.37702 0.32158 0.7795 0.0
Cd702 Cd 0.38546 0.29339 0.77578 0.0
O703 O 0.38998 0.32594 0.80355 0.0
Cd704 Cd 0.40799 0.3008 0.80817 0.0
C705 C 0.37325 0.27767 0.81404 0.0
O706 O 0.41483 0.29325 0.77947 0.0
O707 O 0.41947 0.27429 0.79788 0.0
O708 O 0.4322 0.31779 0.81488 0.0
C709 C 0.42041 0.27881 0.78274 0.0
O710 O 0.37128 0.27828 0.79824 0.0
C711 C 0.43561 0.3103 0.82846 0.0
O712 O 0.38525 0.28536 0.82113 0.0
O713 O 0.42541 0.2991 0.83319 0.0
C714 C 0.66236 0.39002 0.82979 0.0
O715 O 0.66239 0.40099 0.81847 0.0
Cd716 Cd 0.69012 0.41108 0.82676 0.0
O717 O 0.67456 0.39017 0.83986 0.0
Cd718 Cd 0.69399 0.41531 0.8327 0.0
C719 C 0.71422 0.39194 0.85153 0.0
O720 O 0.7031 0.41456 0.80176 0.0
O721 O 0.72237 0.41856 0.82003 0.0
O722 O 0.67274 0.43742 0.8284 0.0
C723 C 0.71839 0.41727 0.80472 0.0
O724 O 0.70758 0.38746 0.83787 0.0
C725 C 0.67921 0.44738 0.83892 0.0
O726 O 0.7109 0.40652 0.85667 0.0
O727 O 0.69191 0.44215 0.84688 0.0
C728 C 0.60507 0.30849 0.20306 0.0
O729 O 0.60924 0.2956 0.2113 0.0
Cd730 Cd 0.59538 0.26948 0.21028 0.0
O731 O 0.59227 0.30834 0.19353 0.0
Cd732 Cd 0.56965 0.28793 0.18673 0.0
C733 C 0.59638 0.26125 0.16801 0.0
O734 O 0.56695 0.27701 0.21473 0.0
O735 O 0.55435 0.2624 0.19614 0.0
O736 O 0.54968 0.31084 0.18837 0.0
C737 C 0.5573 0.26497 0.21149 0.0
O738 O 0.60118 0.25752 0.18273 0.0
C739 C 0.54231 0.30744 0.17474 0.0
O740 O 0.58553 0.27265 0.16567 0.0
O741 O 0.54817 0.29535 0.1663 0.0
C742 C 0.65489 0.5913 0.16906 0.0
O743 O 0.65146 0.57768 0.16192 0.0
Cd744 Cd 0.68199 0.56932 0.16181 0.0
O745 O 0.67014 0.59396 0.17197 0.0
Cd746 Cd 0.68452 0.56729 0.16054 0.0
C747 C 0.70319 0.59264 0.14158 0.0
O748 O 0.69441 0.56028 0.18826 0.0
O749 O 0.7134 0.55944 0.16935 0.0
O750 O 0.66175 0.54594 0.16359 0.0
C751 C 0.70957 0.55756 0.18462 0.0
O752 O 0.69948 0.59495 0.15672 0.0
C753 C 0.6659 0.53758 0.15079 0.0
O754 O 0.69742 0.57956 0.13492 0.0
O755 O 0.67778 0.54343 0.14212 0.0
C756 C 0.3894 0.66085 0.18961 0.0
O757 O 0.38644 0.66988 0.20232 0.0
Cd758 Cd 0.39633 0.69725 0.20705 0.0
O759 O 0.39997 0.66549 0.17861 0.0
Cd760 Cd 0.42031 0.68928 0.17546 0.0
C761 C 0.38668 0.71321 0.16757 0.0
O762 O 0.4255 0.69505 0.20468 0.0
O763 O 0.4321 0.71495 0.18803 0.0
O764 O 0.44229 0.66881 0.17181 0.0
C765 C 0.43194 0.70934 0.20284 0.0
O766 O 0.3844 0.71218 0.1833 0.0
C767 C 0.44978 0.67643 0.1601 0.0
O768 O 0.39883 0.70561 0.16057 0.0
O769 O 0.44264 0.68941 0.15433 0.0
C770 C 0.31731 0.38526 0.18669 0.0
O771 O 0.30701 0.38191 0.19827 0.0
Cd772 Cd 0.27961 0.3926 0.20128 0.0
O773 O 0.31377 0.39608 0.17551 0.0
Cd774 Cd 0.29007 0.41588 0.17032 0.0
C775 C 0.2646 0.38341 0.16181 0.0
O776 O 0.28355 0.42185 0.19922 0.0
O777 O 0.2647 0.42969 0.18187 0.0
O778 O 0.3102 0.43781 0.16461 0.0
C779 C 0.2698 0.42924 0.19687 0.0
O780 O 0.26439 0.38078 0.17752 0.0
C781 C 0.3033 0.44278 0.1512 0.0
O782 O 0.27347 0.39506 0.15562 0.0
O783 O 0.29064 0.43461 0.1462 0.0
C784 C 0.80644 0.58217 0.65419 0.0
O785 O 0.7949 0.57175 0.65669 0.0
Cd786 Cd 0.80598 0.5645 0.6841 0.0
O787 O 0.818 0.58277 0.66501 0.0
Cd788 Cd 0.81247 0.56044 0.68845 0.0
C789 C 0.83019 0.58808 0.70461 0.0
O790 O 0.78159 0.56118 0.6978 0.0
O791 O 0.79997 0.55886 0.71721 0.0
O792 O 0.80835 0.53625 0.6698 0.0
C793 C 0.78462 0.55943 0.71319 0.0
O794 O 0.81636 0.59083 0.69738 0.0
C795 C 0.81901 0.52702 0.67707 0.0
O796 O 0.83584 0.57332 0.70389 0.0
O797 O 0.82721 0.53359 0.68899 0.0
C798 C 0.38939 0.78387 0.67064 0.0
O799 O 0.38774 0.77307 0.68213 0.0
Cd800 Cd 0.39852 0.77609 0.70961 0.0
O801 O 0.39864 0.79668 0.67279 0.0
Cd802 Cd 0.41858 0.80761 0.69439 0.0
C803 C 0.38515 0.81661 0.71809 0.0
O804 O 0.42745 0.78115 0.70599 0.0
O805 O 0.4334 0.80247 0.72112 0.0
O806 O 0.43839 0.81031 0.67175 0.0
C807 C 0.43437 0.78681 0.71904 0.0
O808 O 0.38407 0.80087 0.72027 0.0
C809 C 0.44389 0.82457 0.67597 0.0
O810 O 0.39642 0.82287 0.70875 0.0
O811 O 0.4369 0.83154 0.68841 0.0
C812 C 0.17494 0.3904 0.6533 0.0
O813 O 0.18458 0.40281 0.65429 0.0
Cd814 Cd 0.17091 0.41289 0.67952 0.0
O815 O 0.16304 0.38977 0.6637 0.0
Cd816 Cd 0.16422 0.41624 0.68297 0.0
C817 C 0.14843 0.39081 0.70331 0.0
O818 O 0.19428 0.42243 0.69237 0.0
O819 O 0.1759 0.42189 0.71181 0.0
O820 O 0.16423 0.43851 0.66152 0.0
C821 C 0.19101 0.42432 0.70767 0.0
O822 O 0.16288 0.38812 0.6974 0.0
C823 C 0.15189 0.44622 0.66785 0.0
O824 O 0.14151 0.40445 0.69937 0.0
O825 O 0.14506 0.43958 0.6805 0.0
C826 C 0.60076 0.20039 0.67136 0.0
O827 O 0.60545 0.20904 0.6838 0.0
Cd828 Cd 0.59403 0.20876 0.711 0.0
O829 O 0.58832 0.19047 0.67247 0.0
Cd830 Cd 0.56749 0.18425 0.69519 0.0
C831 C 0.59633 0.16686 0.72042 0.0
O832 O 0.56505 0.21251 0.70595 0.0
O833 O 0.55532 0.19371 0.72225 0.0
O834 O 0.54466 0.18412 0.67492 0.0
C835 C 0.55726 0.20912 0.71922 0.0
O836 O 0.60097 0.18175 0.72356 0.0
C837 C 0.53812 0.17065 0.68016 0.0
O838 O 0.58501 0.16401 0.7096 0.0
O839 O 0.54578 0.16308 0.69181 0.0
C840 C 0.78861 0.39353 0.30972 0.0
O841 O 0.77733 0.39142 0.29874 0.0
Cd842 Cd 0.77882 0.40093 0.27085 0.0
O843 O 0.80121 0.40285 0.30678 0.0
Cd844 Cd 0.81002 0.42224 0.28366 0.0
C845 C 0.81926 0.38808 0.2614 0.0
O846 O 0.78276 0.43009 0.27314 0.0
O847 O 0.80297 0.43466 0.25618 0.0
O848 O 0.81299 0.44431 0.30408 0.0
C849 C 0.78753 0.43617 0.25938 0.0
O850 O 0.80347 0.38654 0.25989 0.0
C851 C 0.82667 0.44998 0.29841 0.0
O852 O 0.82559 0.39996 0.26989 0.0
O853 O 0.83348 0.44174 0.28666 0.0
C854 C 0.5925 0.81087 0.34252 0.0
O855 O 0.58254 0.79871 0.34127 0.0
Cd856 Cd 0.57304 0.80802 0.3139 0.0
O857 O 0.59186 0.82183 0.33113 0.0
Cd858 Cd 0.56844 0.81461 0.30935 0.0
C859 C 0.59516 0.8313 0.29086 0.0
O860 O 0.5684 0.78321 0.30133 0.0
O861 O 0.56512 0.80087 0.2814 0.0
O862 O 0.5449 0.81224 0.32902 0.0
C863 C 0.56579 0.78569 0.28595 0.0
O864 O 0.59845 0.81784 0.29852 0.0
C865 C 0.53596 0.82314 0.32174 0.0
O866 O 0.58042 0.83689 0.29213 0.0
O867 O 0.54239 0.83046 0.30923 0.0
C868 C 0.20134 0.60116 0.31027 0.0
O869 O 0.21148 0.60352 0.29832 0.0
Cd870 Cd 0.21089 0.59 0.27213 0.0
O871 O 0.19005 0.58992 0.30933 0.0
Cd872 Cd 0.18256 0.56748 0.28862 0.0
C873 C 0.16954 0.59708 0.26173 0.0
O874 O 0.21065 0.56134 0.27966 0.0
O875 O 0.19178 0.5518 0.26325 0.0
O876 O 0.17994 0.54757 0.31143 0.0
C877 C 0.20715 0.55262 0.267 0.0
O878 O 0.18498 0.60005 0.25923 0.0
C879 C 0.16636 0.54116 0.30628 0.0
O880 O 0.16497 0.58612 0.27229 0.0
O881 O 0.15976 0.54776 0.29343 0.0
C882 C 0.39112 0.1925 0.31439 0.0
O883 O 0.38973 0.20448 0.30408 0.0
Cd884 Cd 0.39938 0.20455 0.27608 0.0
O885 O 0.39971 0.17956 0.31073 0.0
Cd886 Cd 0.41804 0.17013 0.28714 0.0
C887 C 0.38265 0.16629 0.26447 0.0
O888 O 0.42792 0.19703 0.27776 0.0
O889 O 0.4315 0.17711 0.26021 0.0
O890 O 0.43978 0.16283 0.307 0.0
C891 C 0.43361 0.19238 0.26377 0.0
O892 O 0.38268 0.18219 0.26354 0.0
C893 C 0.44317 0.14873 0.30055 0.0
O894 O 0.39383 0.15851 0.27275 0.0
O895 O 0.434 0.14402 0.28845 0.0
C896 C 0.6741 0.78259 0.61022 0.0
O897 O 0.68592 0.77318 0.61512 0.0
Cd898 Cd 0.7136 0.77254 0.60453 0.0
O899 O 0.6763 0.79293 0.59827 0.0
Cd900 Cd 0.69985 0.79939 0.5786 0.0
C901 C 0.72585 0.81353 0.60894 0.0
O902 O 0.70903 0.77061 0.57521 0.0
O903 O 0.72542 0.78887 0.56453 0.0
O904 O 0.67911 0.80166 0.55641 0.0
C905 C 0.72197 0.77359 0.56669 0.0
O906 O 0.72756 0.79831 0.61325 0.0
C907 C 0.68482 0.81512 0.55029 0.0
O908 O 0.71582 0.8176 0.59726 0.0
O909 O 0.69709 0.82175 0.55788 0.0
C910 C 0.67172 0.1916 0.38205 0.0
O911 O 0.68304 0.20187 0.37786 0.0
Cd912 Cd 0.7112 0.20182 0.38707 0.0
O913 O 0.67454 0.1804 0.39308 0.0
Cd914 Cd 0.69853 0.17346 0.41224 0.0
C915 C 0.7215 0.16057 0.37944 0.0
O916 O 0.70922 0.20156 0.4166 0.0
O917 O 0.72587 0.18196 0.42417 0.0
O918 O 0.67931 0.17103 0.43566 0.0
C919 C 0.72293 0.19749 0.42335 0.0
O920 O 0.72325 0.176 0.37597 0.0
C921 C 0.68511 0.15724 0.44097 0.0
O922 O 0.71247 0.15592 0.39168 0.0
O923 O 0.69657 0.1505 0.43231 0.0
C924 C 0.79643 0.66908 0.38191 0.0
O925 O 0.78584 0.68063 0.37941 0.0
Cd926 Cd 0.78544 0.70719 0.39215 0.0
O927 O 0.80793 0.67072 0.39287 0.0
Cd928 Cd 0.81518 0.69239 0.41444 0.0
C929 C 0.82624 0.71906 0.38389 0.0
O930 O 0.78685 0.70057 0.42092 0.0
O931 O 0.80542 0.71773 0.42968 0.0
O932 O 0.81869 0.67005 0.43469 0.0
C933 C 0.79014 0.71358 0.42921 0.0
O934 O 0.81059 0.72077 0.38144 0.0
C935 C 0.83209 0.67572 0.44102 0.0
O936 O 0.83173 0.70893 0.39488 0.0
O937 O 0.83826 0.68865 0.43421 0.0
C938 C 0.31767 0.79601 0.39016 0.0
O939 O 0.30625 0.78547 0.38695 0.0
Cd940 Cd 0.27876 0.78533 0.39792 0.0
O941 O 0.31552 0.80726 0.40128 0.0
Cd942 Cd 0.2934 0.81444 0.42236 0.0
C943 C 0.26879 0.82707 0.3907 0.0
O944 O 0.28246 0.78673 0.42707 0.0
O945 O 0.26662 0.80652 0.43572 0.0
O946 O 0.31488 0.81492 0.44371 0.0
C947 C 0.26908 0.79094 0.43435 0.0
O948 O 0.26691 0.81154 0.38771 0.0
C949 C 0.31002 0.82835 0.45061 0.0
O950 O 0.27845 0.83208 0.40237 0.0
O951 O 0.298 0.83605 0.44361 0.0
C952 C 0.18581 0.32857 0.3907 0.0
O953 O 0.19666 0.31814 0.38569 0.0
Cd954 Cd 0.20022 0.29022 0.39433 0.0
O955 O 0.1756 0.32486 0.40239 0.0
Cd956 Cd 0.17263 0.29982 0.42137 0.0
C957 C 0.15985 0.27578 0.38924 0.0
O958 O 0.20205 0.2929 0.4237 0.0
O959 O 0.18553 0.27337 0.43142 0.0
O960 O 0.1695 0.31725 0.44618 0.0
C961 C 0.20041 0.27862 0.43018 0.0
O962 O 0.17514 0.27547 0.3848 0.0
C963 C 0.1571 0.30925 0.45199 0.0
O964 O 0.1552 0.28439 0.40178 0.0
O965 O 0.15114 0.29772 0.44287 0.0
C966 C 0.33391 0.17273 0.58653 0.0
O967 O 0.33234 0.18489 0.57662 0.0
Cd968 Cd 0.30636 0.17385 0.56519 0.0
O969 O 0.32341 0.161 0.58512 0.0
Cd970 Cd 0.30285 0.16773 0.56062 0.0
C971 C 0.28425 0.14667 0.5834 0.0
O972 O 0.29206 0.19812 0.56198 0.0
O973 O 0.27358 0.179 0.55877 0.0
O974 O 0.32307 0.17333 0.53792 0.0
C975 C 0.27684 0.19447 0.55994 0.0
O976 O 0.29001 0.16049 0.58853 0.0
C977 C 0.31695 0.16239 0.52818 0.0
O978 O 0.2876 0.14258 0.56851 0.0
O979 O 0.30485 0.15381 0.53376 0.0
C980 C 0.79786 0.31097 0.59426 0.0
O981 O 0.78709 0.29966 0.597 0.0
Cd982 Cd 0.78635 0.27254 0.58533 0.0
O983 O 0.8092 0.30892 0.58322 0.0
Cd984 Cd 0.81557 0.28658 0.56192 0.0
C985 C 0.82734 0.26119 0.59327 0.0
O986 O 0.78736 0.27709 0.55617 0.0
O987 O 0.80657 0.26015 0.5484 0.0
O988 O 0.81861 0.30706 0.53968 0.0
C989 C 0.79113 0.26365 0.5488 0.0
O990 O 0.81179 0.25946 0.5962 0.0
C991 C 0.83231 0.30124 0.53417 0.0
O992 O 0.83246 0.2709 0.58177 0.0
O993 O 0.83882 0.2893 0.54236 0.0
C994 C 0.17316 0.66232 0.588 0.0
O995 O 0.18346 0.6645 0.57629 0.0
Cd996 Cd 0.17291 0.69256 0.571 0.0
O997 O 0.16231 0.67362 0.5902 0.0
Cd998 Cd 0.16645 0.69739 0.56802 0.0
C999 C 0.15223 0.71309 0.59768 0.0
O1000 O 0.19774 0.70434 0.56478 0.0
O1001 O 0.18115 0.72527 0.5669 0.0
O1002 O 0.16464 0.67984 0.54271 0.0
C1003 C 0.19597 0.72 0.56481 0.0
O1004 O 0.16609 0.70552 0.59892 0.0
C1005 C 0.15345 0.68872 0.53577 0.0
O1006 O 0.14527 0.71299 0.58348 0.0
O1007 O 0.14806 0.70115 0.54401 0.0
C1008 C 0.38518 0.31417 0.19438 0.0
O1009 O 0.38133 0.30157 0.20319 0.0
Cd1010 Cd 0.3943 0.27505 0.20278 0.0
O1011 O 0.39744 0.31364 0.1842 0.0
Cd1012 Cd 0.41918 0.29205 0.17756 0.0
C1013 C 0.39116 0.26528 0.16106 0.0
O1014 O 0.42299 0.28211 0.20585 0.0
O1015 O 0.43345 0.26604 0.18719 0.0
O1016 O 0.44129 0.31295 0.17693 0.0
C1017 C 0.43183 0.26948 0.20255 0.0
O1018 O 0.38699 0.26199 0.17606 0.0
C1019 C 0.44748 0.30808 0.16316 0.0
O1020 O 0.40197 0.2765 0.15796 0.0
O1021 O 0.4397 0.29655 0.15554 0.0
C1022 C 0.6648 0.38715 0.1954 0.0
O1023 O 0.67533 0.38609 0.20724 0.0
Cd1024 Cd 0.70191 0.39898 0.20851 0.0
O1025 O 0.66734 0.39695 0.18308 0.0
Cd1026 Cd 0.68904 0.41796 0.17503 0.0
C1027 C 0.71577 0.38579 0.16964 0.0
O1028 O 0.69669 0.42743 0.2026 0.0
O1029 O 0.71435 0.43366 0.18348 0.0
O1030 O 0.66758 0.43842 0.16877 0.0
C1031 C 0.71011 0.43477 0.1987 0.0
O1032 O 0.71656 0.38517 0.18554 0.0
C1033 C 0.67346 0.44259 0.15464 0.0
O1034 O 0.70626 0.39625 0.16228 0.0
O1035 O 0.68603 0.43439 0.14944 0.0
C1036 C 0.60228 0.66926 0.20089 0.0
O1037 O 0.60596 0.6787 0.21311 0.0
Cd1038 Cd 0.59724 0.70693 0.21661 0.0
O1039 O 0.59182 0.67401 0.18981 0.0
Cd1040 Cd 0.57363 0.69893 0.18447 0.0
C1041 C 0.6092 0.72045 0.17733 0.0
O1042 O 0.56786 0.70803 0.21299 0.0
O1043 O 0.56288 0.72607 0.19373 0.0
O1044 O 0.5497 0.681 0.17867 0.0
C1045 C 0.5626 0.72247 0.20914 0.0
O1046 O 0.61116 0.72044 0.19314 0.0
C1047 C 0.54558 0.6882 0.16512 0.0
O1048 O 0.59687 0.71296 0.17053 0.0
O1049 O 0.55507 0.69988 0.16008 0.0
C1050 C 0.31394 0.59718 0.18775 0.0
O1051 O 0.30111 0.60039 0.19649 0.0
Cd1052 Cd 0.27458 0.58755 0.19409 0.0
O1053 O 0.3136 0.58578 0.1766 0.0
Cd1054 Cd 0.29243 0.56449 0.16751 0.0
C1055 C 0.26585 0.59319 0.15223 0.0
O1056 O 0.28112 0.55865 0.19495 0.0
O1057 O 0.26615 0.54939 0.17478 0.0
O1058 O 0.31485 0.54403 0.16695 0.0
C1059 C 0.26861 0.55018 0.1904 0.0
O1060 O 0.26233 0.59622 0.16745 0.0
C1061 C 0.31057 0.53743 0.15318 0.0
O1062 O 0.27732 0.58282 0.14847 0.0
O1063 O 0.29844 0.5442 0.14548 0.0
C1064 C 0.39158 0.66772 0.79472 0.0
O1065 O 0.38798 0.67914 0.78432 0.0
Cd1066 Cd 0.3994 0.70622 0.78365 0.0
O1067 O 0.403 0.66986 0.80568 0.0
Cd1068 Cd 0.42415 0.69243 0.81149 0.0
C1069 C 0.39361 0.71787 0.82502 0.0
O1070 O 0.42838 0.70048 0.78276 0.0
O1071 O 0.43756 0.7184 0.80036 0.0
O1072 O 0.4452 0.6706 0.81297 0.0
C1073 C 0.4364 0.71382 0.78525 0.0
O1074 O 0.38999 0.71937 0.80958 0.0
C1075 C 0.4527 0.67641 0.82568 0.0
O1076 O 0.40537 0.70822 0.82973 0.0
O1077 O 0.44618 0.68914 0.83257 0.0
C1078 C 0.30592 0.39426 0.78722 0.0
O1079 O 0.29433 0.38975 0.77736 0.0
Cd1080 Cd 0.26586 0.39737 0.77931 0.0
O1081 O 0.30312 0.4047 0.79896 0.0
Cd1082 Cd 0.27885 0.42268 0.80771 0.0
C1083 C 0.25819 0.38877 0.8211 0.0
O1084 O 0.26711 0.42687 0.78022 0.0
O1085 O 0.25058 0.43341 0.80021 0.0
O1086 O 0.29834 0.4458 0.80926 0.0
C1087 C 0.25318 0.43285 0.78461 0.0
O1088 O 0.2559 0.38545 0.80569 0.0
C1089 C 0.29286 0.45167 0.82294 0.0
O1090 O 0.26683 0.40135 0.82559 0.0
O1091 O 0.28127 0.44352 0.83008 0.0
C1092 C 0.58764 0.32476 0.82063 0.0
O1093 O 0.57594 0.32393 0.81007 0.0
Cd1094 Cd 0.56753 0.29621 0.8201 0.0
O1095 O 0.58861 0.31295 0.83109 0.0
Cd1096 Cd 0.56352 0.29252 0.82667 0.0
C1097 C 0.58989 0.27427 0.84402 0.0
O1098 O 0.56161 0.28251 0.79606 0.0
O1099 O 0.55869 0.26383 0.81509 0.0
O1100 O 0.54211 0.31451 0.82385 0.0
C1101 C 0.5587 0.2674 0.79963 0.0
O1102 O 0.59281 0.28032 0.82969 0.0
C1103 C 0.53229 0.30836 0.83465 0.0
O1104 O 0.57557 0.27701 0.85018 0.0
O1105 O 0.53722 0.29526 0.84216 0.0
C1106 C 0.67165 0.60151 0.79779 0.0
O1107 O 0.68213 0.60488 0.78638 0.0
Cd1108 Cd 0.71023 0.59557 0.78505 0.0
O1109 O 0.67519 0.59098 0.80923 0.0
Cd1110 Cd 0.69908 0.57169 0.81529 0.0
C1111 C 0.72188 0.60535 0.82555 0.0
O1112 O 0.70897 0.56614 0.78717 0.0
O1113 O 0.72635 0.56003 0.80671 0.0
O1114 O 0.68029 0.54816 0.81887 0.0
C1115 C 0.723 0.56005 0.79123 0.0
O1116 O 0.72289 0.6081 0.8099 0.0
C1117 C 0.68606 0.54382 0.83302 0.0
O1118 O 0.71343 0.59314 0.83121 0.0
O1119 O 0.69735 0.55304 0.83931 0.0
C1120 C 0.19588 0.39273 0.31802 0.0
O1121 O 0.20727 0.38943 0.30749 0.0
Cd1122 Cd 0.20594 0.39592 0.27856 0.0
O1123 O 0.1833 0.40162 0.31391 0.0
Cd1124 Cd 0.17458 0.41839 0.28896 0.0
C1125 C 0.16579 0.38223 0.26961 0.0
O1126 O 0.20181 0.42522 0.27725 0.0
O1127 O 0.18092 0.42903 0.26078 0.0
O1128 O 0.17129 0.44176 0.30776 0.0
C1129 C 0.19652 0.4303 0.26322 0.0
O1130 O 0.18158 0.38045 0.26842 0.0
C1131 C 0.15723 0.44651 0.30213 0.0
O1132 O 0.15946 0.39483 0.277 0.0
O1133 O 0.15059 0.43747 0.29087 0.0
C1134 C 0.5977 0.17887 0.31824 0.0
O1135 O 0.60049 0.19012 0.30741 0.0
Cd1136 Cd 0.58938 0.19095 0.28 0.0
O1137 O 0.58703 0.16735 0.31544 0.0
Cd1138 Cd 0.566 0.16105 0.29284 0.0
C1139 C 0.59775 0.15007 0.2678 0.0
O1140 O 0.56018 0.18934 0.28379 0.0
O1141 O 0.55245 0.1704 0.2665 0.0
O1142 O 0.54509 0.15896 0.3146 0.0
C1143 C 0.55287 0.18578 0.27023 0.0
O1144 O 0.60039 0.16574 0.26678 0.0
C1145 C 0.538 0.146 0.30887 0.0
O1146 O 0.58615 0.14433 0.27708 0.0
O1147 O 0.54474 0.13918 0.29621 0.0
C1148 C 0.78023 0.60537 0.30807 0.0
O1149 O 0.77021 0.60922 0.29637 0.0
Cd1150 Cd 0.76899 0.5968 0.26954 0.0
O1151 O 0.79054 0.59331 0.30639 0.0
Cd1152 Cd 0.79624 0.5717 0.28451 0.0
C1153 C 0.81019 0.60115 0.25765 0.0
O1154 O 0.76752 0.56781 0.27566 0.0
O1155 O 0.78567 0.55715 0.25913 0.0
O1156 O 0.79838 0.55066 0.3064 0.0
C1157 C 0.77039 0.55918 0.26276 0.0
O1158 O 0.79491 0.60513 0.25557 0.0
C1159 C 0.81194 0.54431 0.30115 0.0
O1160 O 0.81432 0.58987 0.26809 0.0
O1161 O 0.8186 0.5512 0.28851 0.0
C1162 C 0.38254 0.78455 0.3165 0.0
O1163 O 0.37983 0.77426 0.30473 0.0
Cd1164 Cd 0.39177 0.77504 0.27755 0.0
O1165 O 0.39321 0.79625 0.31478 0.0
Cd1166 Cd 0.41364 0.80481 0.29274 0.0
C1167 C 0.38248 0.81566 0.26647 0.0
O1168 O 0.42102 0.7774 0.28191 0.0
O1169 O 0.4284 0.79812 0.26658 0.0
O1170 O 0.4354 0.80787 0.31368 0.0
C1171 C 0.42861 0.78249 0.26901 0.0
O1172 O 0.38031 0.80005 0.26424 0.0
C1173 C 0.44011 0.82224 0.30891 0.0
O1174 O 0.39327 0.82101 0.2769 0.0
O1175 O 0.4317 0.82901 0.29725 0.0
C1176 C 0.17249 0.60154 0.66584 0.0
O1177 O 0.18498 0.60565 0.67472 0.0
Cd1178 Cd 0.18914 0.59587 0.70261 0.0
O1179 O 0.16235 0.59026 0.67065 0.0
Cd1180 Cd 0.16033 0.5696 0.69367 0.0
C1181 C 0.14922 0.60114 0.71879 0.0
O1182 O 0.18972 0.56626 0.70076 0.0
O1183 O 0.1722 0.55708 0.71899 0.0
O1184 O 0.15776 0.54758 0.67316 0.0
C1185 C 0.1873 0.55878 0.71451 0.0
O1186 O 0.16453 0.60551 0.71817 0.0
C1187 C 0.14463 0.5412 0.67936 0.0
O1188 O 0.14393 0.58863 0.7105 0.0
O1189 O 0.1383 0.54858 0.69191 0.0
C1190 C 0.38616 0.19217 0.66816 0.0
O1191 O 0.38178 0.20435 0.67731 0.0
Cd1192 Cd 0.38747 0.20537 0.70649 0.0
O1193 O 0.39569 0.18069 0.67378 0.0
Cd1194 Cd 0.41262 0.17497 0.69937 0.0
C1195 C 0.37663 0.16482 0.71814 0.0
O1196 O 0.41696 0.20353 0.70872 0.0
O1197 O 0.42219 0.18444 0.72694 0.0
O1198 O 0.43632 0.17285 0.68086 0.0
C1199 C 0.42231 0.19981 0.72315 0.0
O1200 O 0.37372 0.18048 0.71783 0.0
C1201 C 0.44242 0.1597 0.6873 0.0
O1202 O 0.38997 0.15882 0.71185 0.0
O1203 O 0.43402 0.15288 0.69893 0.0
C1204 C 0.78674 0.36839 0.67338 0.0
O1205 O 0.77798 0.36237 0.68515 0.0
Cd1206 Cd 0.77721 0.37117 0.71349 0.0
O1207 O 0.79633 0.38088 0.67588 0.0
Cd1208 Cd 0.80186 0.3995 0.70055 0.0
C1209 C 0.8187 0.36857 0.7242 0.0
O1210 O 0.77328 0.40054 0.71113 0.0
O1211 O 0.79194 0.41061 0.7276 0.0
O1212 O 0.80254 0.42423 0.68262 0.0
C1213 C 0.77659 0.40816 0.72457 0.0
O1214 O 0.80386 0.36326 0.72644 0.0
C1215 C 0.81632 0.42971 0.6883 0.0
O1216 O 0.82151 0.38089 0.71455 0.0
O1217 O 0.82372 0.42069 0.69906 0.0
C1218 C 0.59292 0.79128 0.66574 0.0
O1219 O 0.59375 0.77911 0.67588 0.0
Cd1220 Cd 0.58273 0.77798 0.70342 0.0
O1221 O 0.58381 0.80398 0.66898 0.0
Cd1222 Cd 0.5637 0.81234 0.69148 0.0
C1223 C 0.5978 0.81669 0.7159 0.0
O1224 O 0.55432 0.78541 0.70147 0.0
O1225 O 0.54994 0.8059 0.71819 0.0
O1226 O 0.54198 0.81828 0.67128 0.0
C1227 C 0.54852 0.7904 0.71532 0.0
O1228 O 0.59802 0.80078 0.71675 0.0
C1229 C 0.53798 0.8324 0.67734 0.0
O1230 O 0.58695 0.82436 0.70706 0.0
O1231 O 0.54702 0.8379 0.68921 0.0
C1232 C 0.31581 0.20476 0.37665 0.0
O1233 O 0.30444 0.21542 0.37364 0.0
Cd1234 Cd 0.27652 0.21395 0.38386 0.0
O1235 O 0.3132 0.1927 0.38673 0.0
Cd1236 Cd 0.29041 0.18357 0.40588 0.0
C1237 C 0.26622 0.17337 0.37301 0.0
O1238 O 0.27912 0.21078 0.41329 0.0
O1239 O 0.26384 0.18969 0.41993 0.0
O1240 O 0.31091 0.18076 0.42797 0.0
C1241 C 0.2661 0.20534 0.42044 0.0
O1242 O 0.26443 0.18903 0.37082 0.0
C1243 C 0.30656 0.16615 0.43231 0.0
O1244 O 0.27559 0.1677 0.38458 0.0
O1245 O 0.29522 0.15918 0.42364 0.0
C1246 C 0.32024 0.79321 0.6012 0.0
O1247 O 0.3099 0.78167 0.60458 0.0
Cd1248 Cd 0.28095 0.78252 0.59795 0.0
O1249 O 0.31594 0.80547 0.59195 0.0
Cd1250 Cd 0.29108 0.8137 0.57485 0.0
C1251 C 0.27229 0.82293 0.6111 0.0
O1252 O 0.27861 0.78661 0.56873 0.0
O1253 O 0.26241 0.80784 0.56561 0.0
O1254 O 0.309 0.81677 0.55068 0.0
C1255 C 0.2644 0.79218 0.56444 0.0
O1256 O 0.27099 0.80717 0.61301 0.0
C1257 C 0.30351 0.83102 0.54636 0.0
O1258 O 0.27966 0.8291 0.59842 0.0
O1259 O 0.29272 0.83773 0.55588 0.0
C1260 C 0.18153 0.30572 0.6021 0.0
O1261 O 0.19537 0.29883 0.60569 0.0
Cd1262 Cd 0.19982 0.26983 0.59985 0.0
O1263 O 0.17091 0.29834 0.59282 0.0
Cd1264 Cd 0.16862 0.27313 0.575 0.0
C1265 C 0.16072 0.25426 0.61133 0.0
O1266 O 0.19792 0.26569 0.5705 0.0
O1267 O 0.17972 0.24634 0.56582 0.0
O1268 O 0.16532 0.29252 0.55222 0.0
C1269 C 0.1949 0.25089 0.56565 0.0
O1270 O 0.17632 0.25626 0.61395 0.0
C1271 C 0.15256 0.28564 0.54578 0.0
O1272 O 0.15388 0.25958 0.59794 0.0
O1273 O 0.14669 0.27294 0.55332 0.0
C1274 C 0.66542 0.19287 0.59743 0.0
O1275 O 0.67609 0.20409 0.60087 0.0
Cd1276 Cd 0.70345 0.20613 0.58986 0.0
O1277 O 0.66839 0.18198 0.58617 0.0
Cd1278 Cd 0.69131 0.17723 0.56527 0.0
C1279 C 0.71662 0.16541 0.5967 0.0
O1280 O 0.69968 0.20601 0.56056 0.0
O1281 O 0.71738 0.18767 0.55224 0.0
O1282 O 0.67016 0.17544 0.54361 0.0
C1283 C 0.71325 0.20294 0.55308 0.0
O1284 O 0.71742 0.18097 0.6 0.0
C1285 C 0.67607 0.16249 0.53663 0.0
O1286 O 0.7074 0.16005 0.58486 0.0
O1287 O 0.68852 0.1556 0.54373 0.0
C1288 C 0.81233 0.66088 0.5948 0.0
O1289 O 0.79997 0.66987 0.59906 0.0
Cd1290 Cd 0.79663 0.69844 0.59141 0.0
O1291 O 0.82309 0.66617 0.58432 0.0
Cd1292 Cd 0.82637 0.691 0.56569 0.0
C1293 C 0.83657 0.71338 0.59956 0.0
O1294 O 0.79725 0.69925 0.56184 0.0
O1295 O 0.81549 0.71782 0.55534 0.0
O1296 O 0.8296 0.67268 0.54179 0.0
C1297 C 0.80023 0.71366 0.55604 0.0
O1298 O 0.82102 0.71281 0.60301 0.0
C1299 C 0.84268 0.67969 0.53618 0.0
O1300 O 0.84239 0.7058 0.58684 0.0
O1301 O 0.84881 0.69145 0.54492 0.0
C1302 C 0.67149 0.79482 0.3996 0.0
O1303 O 0.68083 0.78258 0.39579 0.0
Cd1304 Cd 0.7101 0.78246 0.40119 0.0
O1305 O 0.67693 0.80677 0.40863 0.0
Cd1306 Cd 0.7024 0.81337 0.42551 0.0
C1307 C 0.72045 0.82307 0.38916 0.0
O1308 O 0.71302 0.78534 0.4305 0.0
O1309 O 0.73059 0.80529 0.43455 0.0
O1310 O 0.68409 0.81543 0.44935 0.0
C1311 C 0.72748 0.78978 0.43523 0.0
O1312 O 0.72056 0.80733 0.38671 0.0
C1313 C 0.69035 0.82877 0.4552 0.0
O1314 O 0.71409 0.82929 0.40237 0.0
O1315 O 0.70171 0.83574 0.44657 0.0
C1316 C 0.18977 0.67261 0.37745 0.0
O1317 O 0.20001 0.68382 0.37289 0.0
Cd1318 Cd 0.20223 0.71109 0.38406 0.0
O1319 O 0.17975 0.67514 0.38958 0.0
Cd1320 Cd 0.1755 0.69827 0.41024 0.0
C1321 C 0.16128 0.72423 0.38022 0.0
O1322 O 0.20469 0.70584 0.41318 0.0
O1323 O 0.18754 0.72344 0.42392 0.0
O1324 O 0.17393 0.67705 0.43191 0.0
C1325 C 0.20256 0.71885 0.42185 0.0
O1326 O 0.17652 0.7254 0.37578 0.0
C1327 C 0.16128 0.68325 0.43918 0.0
O1328 O 0.15705 0.71461 0.39215 0.0
O1329 O 0.15456 0.6959 0.43231 0.0
C1330 C 0.79928 0.32271 0.37688 0.0
O1331 O 0.78869 0.31201 0.3719 0.0
Cd1332 Cd 0.78686 0.28406 0.3814 0.0
O1333 O 0.80942 0.31933 0.38873 0.0
Cd1334 Cd 0.81325 0.29543 0.40868 0.0
C1335 C 0.82807 0.27142 0.3775 0.0
O1336 O 0.78418 0.28695 0.41077 0.0
O1337 O 0.80173 0.26913 0.42045 0.0
O1338 O 0.81368 0.31585 0.43112 0.0
C1339 C 0.78659 0.27333 0.41838 0.0
O1340 O 0.81291 0.27064 0.37267 0.0
C1341 C 0.82646 0.30995 0.43846 0.0
O1342 O 0.83214 0.28017 0.39016 0.0
O1343 O 0.83373 0.29772 0.4314 0.0
H1344 H 0.1003 0.23449 0.35781 0.0
H1345 H 0.13529 0.23151 0.31687 0.0
H1346 H 0.1556 0.24771 0.33278 0.0
H1347 H 0.16348 0.26275 0.35819 0.0
H1348 H 0.12828 0.26686 0.39882 0.0
H1349 H 0.108 0.25024 0.38312 0.0
C1350 C 0.1124 0.23735 0.3524 0.0
C1351 C 0.11629 0.23175 0.3362 0.0
C1352 C 0.12397 0.2469 0.36153 0.0
C1353 C 0.13194 0.23571 0.3293 0.0
C1354 C 0.14359 0.24495 0.33839 0.0
C1355 C 0.15138 0.25999 0.36365 0.0
C1356 C 0.14743 0.26597 0.37968 0.0
C1357 C 0.13974 0.25062 0.3545 0.0
C1358 C 0.13163 0.26243 0.38648 0.0
C1359 C 0.12004 0.25289 0.37753 0.0
H1360 H 0.73397 0.16457 0.34825 0.0
H1361 H 0.72884 0.12826 0.38777 0.0
H1362 H 0.74458 0.10789 0.37133 0.0
H1363 H 0.7603 0.10062 0.34592 0.0
H1364 H 0.76431 0.13671 0.30604 0.0
H1365 H 0.7485 0.15694 0.32246 0.0
C1366 C 0.73629 0.1522 0.35327 0.0
C1367 C 0.73035 0.14797 0.36924 0.0
C1368 C 0.74517 0.14052 0.34371 0.0
C1369 C 0.73327 0.13182 0.37549 0.0
C1370 C 0.74231 0.12018 0.36612 0.0
C1371 C 0.75772 0.11292 0.34084 0.0
C1372 C 0.76356 0.11719 0.32484 0.0
C1373 C 0.74841 0.12443 0.35026 0.0
C1374 C 0.75994 0.1331 0.31832 0.0
C1375 C 0.75093 0.14469 0.32771 0.0
H1376 H 0.8197 0.73317 0.35394 0.0
H1377 H 0.85933 0.72581 0.38982 0.0
H1378 H 0.87876 0.74089 0.37164 0.0
H1379 H 0.88457 0.75559 0.34507 0.0
H1380 H 0.84497 0.7611 0.30879 0.0
H1381 H 0.82543 0.74739 0.32765 0.0
C1382 C 0.83256 0.73496 0.35786 0.0
C1383 C 0.83804 0.72845 0.37323 0.0
C1384 C 0.84368 0.74329 0.34724 0.0
C1385 C 0.85481 0.73068 0.37802 0.0
C1386 C 0.86591 0.73932 0.36764 0.0
C1387 C 0.87164 0.75386 0.34139 0.0
C1388 C 0.86622 0.75935 0.32558 0.0
C1389 C 0.8605 0.7456 0.35217 0.0
C1390 C 0.84947 0.7569 0.32085 0.0
C1391 C 0.83827 0.74909 0.33163 0.0
H1392 H 0.23123 0.88621 0.35408 0.0
H1393 H 0.22345 0.84714 0.31768 0.0
H1394 H 0.23858 0.82743 0.33532 0.0
H1395 H 0.25409 0.82128 0.36082 0.0
H1396 H 0.2631 0.86029 0.39697 0.0
H1397 H 0.24746 0.88008 0.37962 0.0
C1398 C 0.23279 0.87336 0.35007 0.0
C1399 C 0.22617 0.86813 0.33462 0.0
C1400 C 0.24176 0.86212 0.36017 0.0
C1401 C 0.22846 0.8515 0.32949 0.0
C1402 C 0.23709 0.84021 0.33957 0.0
C1403 C 0.25262 0.8341 0.36497 0.0
C1404 C 0.25968 0.83928 0.38021 0.0
C1405 C 0.24381 0.84539 0.35489 0.0
C1406 C 0.2578 0.85599 0.38527 0.0
C1407 C 0.24883 0.8673 0.37538 0.0
H1408 H 0.12466 0.73291 0.59772 0.0
H1409 H 0.16248 0.71222 0.63021 0.0
H1410 H 0.14964 0.726 0.65422 0.0
H1411 H 0.12774 0.74397 0.66596 0.0
H1412 H 0.09028 0.76516 0.63332 0.0
H1413 H 0.10293 0.75111 0.60941 0.0
C1414 C 0.13008 0.7314 0.61005 0.0
C1415 C 0.14449 0.72153 0.61217 0.0
C1416 C 0.12271 0.73944 0.62378 0.0
C1417 C 0.15141 0.71977 0.62823 0.0
C1418 C 0.14406 0.72763 0.64197 0.0
C1419 C 0.1223 0.74549 0.65363 0.0
C1420 C 0.10805 0.75559 0.65148 0.0
C1421 C 0.12971 0.73749 0.6399 0.0
C1422 C 0.10126 0.75749 0.63537 0.0
C1423 C 0.10847 0.74945 0.62167 0.0
H1424 H 0.27648 0.15178 0.61599 0.0
H1425 H 0.26834 0.11771 0.57496 0.0
H1426 H 0.2504 0.10047 0.59261 0.0
H1427 H 0.23715 0.09502 0.61971 0.0
H1428 H 0.24581 0.12887 0.66085 0.0
H1429 H 0.26336 0.14628 0.64307 0.0
C1430 C 0.2708 0.14057 0.61091 0.0
C1431 C 0.27374 0.13603 0.5942 0.0
C1432 C 0.26054 0.13071 0.62111 0.0
C1433 C 0.26631 0.12146 0.58781 0.0
C1434 C 0.25602 0.11162 0.59787 0.0
C1435 C 0.24279 0.10626 0.62477 0.0
C1436 C 0.24013 0.11064 0.64158 0.0
C1437 C 0.25304 0.11613 0.61454 0.0
C1438 C 0.24766 0.12517 0.64796 0.0
C1439 C 0.25771 0.13515 0.63781 0.0
H1440 H 0.82221 0.24908 0.62436 0.0
H1441 H 0.85995 0.25372 0.58617 0.0
H1442 H 0.88029 0.23982 0.60435 0.0
H1443 H 0.88752 0.22719 0.63155 0.0
H1444 H 0.85003 0.22452 0.67018 0.0
H1445 H 0.82938 0.23674 0.65134 0.0
C1446 C 0.83485 0.24693 0.61995 0.0
C1447 C 0.83956 0.25235 0.60393 0.0
C1448 C 0.84652 0.23932 0.63057 0.0
C1449 C 0.85604 0.24969 0.59848 0.0
C1450 C 0.86766 0.24173 0.60886 0.0
C1451 C 0.87479 0.22917 0.63575 0.0
C1452 C 0.87027 0.22495 0.65219 0.0
C1453 C 0.86307 0.23661 0.62498 0.0
C1454 C 0.85381 0.22776 0.65759 0.0
C1455 C 0.84199 0.23472 0.64683 0.0
H1456 H 0.77143 0.86018 0.65333 0.0
H1457 H 0.76148 0.89454 0.61295 0.0
H1458 H 0.7445 0.87339 0.59889 0.0
H1459 H 0.73205 0.84528 0.59833 0.0
H1460 H 0.74262 0.81085 0.63852 0.0
H1461 H 0.7597 0.83194 0.6524 0.0
C1462 C 0.76562 0.86303 0.64141 0.0
C1463 C 0.7677 0.87893 0.63422 0.0
C1464 C 0.75588 0.85084 0.63341 0.0
C1465 C 0.76011 0.88239 0.61875 0.0
C1466 C 0.75034 0.87032 0.61072 0.0
C1467 C 0.73803 0.84242 0.61016 0.0
C1468 C 0.73597 0.82653 0.61741 0.0
C1469 C 0.74804 0.85455 0.618 0.0
C1470 C 0.74398 0.82297 0.63265 0.0
C1471 C 0.75377 0.83502 0.64061 0.0
H1472 H 0.3192 0.13644 0.22834 0.0
H1473 H 0.35009 0.09222 0.22888 0.0
H1474 H 0.37209 0.10746 0.24353 0.0
H1475 H 0.38272 0.13344 0.25588 0.0
H1476 H 0.35239 0.17803 0.25404 0.0
H1477 H 0.33004 0.16256 0.2402 0.0
C1478 C 0.33071 0.13013 0.23175 0.0
C1479 C 0.33298 0.11323 0.22759 0.0
C1480 C 0.34344 0.13904 0.23989 0.0
C1481 C 0.34805 0.10525 0.2319 0.0
C1482 C 0.36064 0.11394 0.2403 0.0
C1483 C 0.3712 0.13975 0.25249 0.0
C1484 C 0.36922 0.15684 0.25602 0.0
C1485 C 0.35849 0.13085 0.2443 0.0
C1486 C 0.35427 0.16489 0.25141 0.0
C1487 C 0.34146 0.15605 0.24353 0.0
H1488 H 0.85587 0.32634 0.22931 0.0
H1489 H 0.89498 0.36282 0.22287 0.0
H1490 H 0.87761 0.38406 0.23646 0.0
H1491 H 0.85118 0.39215 0.25025 0.0
H1492 H 0.81167 0.35576 0.25482 0.0
H1493 H 0.82935 0.33457 0.24193 0.0
C1494 C 0.86062 0.33893 0.23093 0.0
C1495 C 0.87671 0.34299 0.22523 0.0
C1496 C 0.85049 0.35107 0.23842 0.0
C1497 C 0.88261 0.35941 0.22715 0.0
C1498 C 0.87271 0.37153 0.23496 0.0
C1499 C 0.84651 0.37956 0.24845 0.0
C1500 C 0.83019 0.37549 0.25353 0.0
C1501 C 0.85663 0.36749 0.24067 0.0
C1502 C 0.82417 0.3592 0.25095 0.0
C1503 C 0.83427 0.34707 0.24362 0.0
H1504 H 0.6582 0.86059 0.254 0.0
H1505 H 0.62052 0.89252 0.23218 0.0
H1506 H 0.5989 0.87828 0.24832 0.0
H1507 H 0.59076 0.85702 0.26901 0.0
H1508 H 0.62856 0.82487 0.29027 0.0
H1509 H 0.65006 0.83901 0.27398 0.0
C1510 C 0.64526 0.86445 0.25272 0.0
C1511 C 0.64103 0.87766 0.24192 0.0
C1512 C 0.6329 0.85621 0.26199 0.0
C1513 C 0.62416 0.88239 0.24038 0.0
C1514 C 0.61178 0.87428 0.24964 0.0
C1515 C 0.6037 0.85314 0.27009 0.0
C1516 C 0.60805 0.83997 0.28089 0.0
C1517 C 0.61602 0.86123 0.26056 0.0
C1518 C 0.62487 0.83498 0.28205 0.0
C1519 C 0.63718 0.84305 0.27275 0.0
H1520 H 0.10742 0.63173 0.22744 0.0
H1521 H 0.14384 0.6709 0.22072 0.0
H1522 H 0.1653 0.65349 0.23369 0.0
H1523 H 0.17356 0.62751 0.24754 0.0
H1524 H 0.13687 0.58893 0.25595 0.0
H1525 H 0.11567 0.60574 0.24167 0.0
C1526 C 0.12008 0.6364 0.22873 0.0
C1527 C 0.12406 0.65255 0.2231 0.0
C1528 C 0.13229 0.62646 0.23652 0.0
C1529 C 0.14046 0.65853 0.22502 0.0
C1530 C 0.15274 0.64858 0.2324 0.0
C1531 C 0.16095 0.62272 0.24615 0.0
C1532 C 0.15681 0.60698 0.25271 0.0
C1533 C 0.14877 0.63258 0.23828 0.0
C1534 C 0.14036 0.60104 0.25102 0.0
C1535 C 0.12824 0.61063 0.24285 0.0
H1536 H 0.32565 0.85323 0.75425 0.0
H1537 H 0.36233 0.89259 0.75743 0.0
H1538 H 0.38249 0.87523 0.74236 0.0
H1539 H 0.38967 0.84872 0.72831 0.0
H1540 H 0.35334 0.80893 0.72689 0.0
H1541 H 0.33303 0.82663 0.74117 0.0
C1542 C 0.33804 0.85803 0.75162 0.0
C1543 C 0.34246 0.87419 0.75686 0.0
C1544 C 0.34962 0.84791 0.74323 0.0
C1545 C 0.35864 0.88016 0.75355 0.0
C1546 C 0.37015 0.87026 0.74489 0.0
C1547 C 0.37727 0.844 0.73107 0.0
C1548 C 0.37296 0.8276 0.7265 0.0
C1549 C 0.36577 0.85412 0.73965 0.0
C1550 C 0.35695 0.82151 0.73034 0.0
C1551 C 0.34533 0.83162 0.73848 0.0
H1552 H 0.15845 0.35925 0.7108 0.0
H1553 H 0.11988 0.39549 0.72126 0.0
H1554 H 0.10648 0.37597 0.74045 0.0
H1555 H 0.10564 0.34859 0.7542 0.0
H1556 H 0.1437 0.31201 0.74305 0.0
H1557 H 0.15739 0.33171 0.72425 0.0
C1558 C 0.14711 0.36287 0.71728 0.0
C1559 C 0.14019 0.37879 0.71462 0.0
C1560 C 0.13939 0.35154 0.72821 0.0
C1561 C 0.12544 0.38328 0.72305 0.0
C1562 C 0.11779 0.37214 0.73406 0.0
C1563 C 0.11698 0.34496 0.74773 0.0
C1564 C 0.12366 0.32888 0.75008 0.0
C1565 C 0.12466 0.35625 0.73675 0.0
C1566 C 0.13827 0.3243 0.74145 0.0
C1567 C 0.14612 0.33556 0.7307 0.0
H1568 H 0.62267 0.16812 0.7418 0.0
H1569 H 0.58707 0.13393 0.71997 0.0
H1570 H 0.59935 0.11088 0.73579 0.0
H1571 H 0.62037 0.1004 0.75572 0.0
H1572 H 0.65632 0.13465 0.7768 0.0
H1573 H 0.64363 0.15772 0.76144 0.0
C1574 C 0.61757 0.15564 0.74048 0.0
C1575 C 0.60396 0.15279 0.72971 0.0
C1576 C 0.62472 0.14244 0.74953 0.0
C1577 C 0.59757 0.1365 0.72813 0.0
C1578 C 0.60456 0.1233 0.7372 0.0
C1579 C 0.62534 0.11293 0.75702 0.0
C1580 C 0.63923 0.11582 0.76741 0.0
C1581 C 0.61813 0.12613 0.74795 0.0
C1582 C 0.64565 0.13209 0.76886 0.0
C1583 C 0.63841 0.1453 0.76008 0.0
H1584 H 0.85762 0.65309 0.73949 0.0
H1585 H 0.89078 0.61727 0.76256 0.0
H1586 H 0.87771 0.59476 0.74656 0.0
H1587 H 0.85661 0.58521 0.7261 0.0
H1588 H 0.82329 0.62131 0.70371 0.0
H1589 H 0.83677 0.64371 0.7193 0.0
C1590 C 0.86204 0.64038 0.74106 0.0
C1591 C 0.87518 0.63692 0.75225 0.0
C1592 C 0.85445 0.62751 0.73188 0.0
C1593 C 0.88066 0.62032 0.75408 0.0
C1594 C 0.87321 0.60742 0.7449 0.0
C1595 C 0.85238 0.598 0.72458 0.0
C1596 C 0.83897 0.60157 0.71373 0.0
C1597 C 0.86008 0.61087 0.73376 0.0
C1598 C 0.83355 0.61819 0.71199 0.0
C1599 C 0.84125 0.63103 0.72091 0.0
H1600 H 0.22465 0.34439 0.10602 0.0
H1601 H 0.22318 0.3073 0.14515 0.0
H1602 H 0.23824 0.32609 0.16386 0.0
H1603 H 0.2522 0.35277 0.16898 0.0
H1604 H 0.25504 0.38944 0.12954 0.0
H1605 H 0.23905 0.37108 0.11107 0.0
C1606 C 0.22756 0.34047 0.11867 0.0
C1607 C 0.22277 0.32449 0.1242 0.0
C1608 C 0.23649 0.35122 0.12928 0.0
C1609 C 0.22678 0.31951 0.14056 0.0
C1610 C 0.23536 0.33025 0.15128 0.0
C1611 C 0.24925 0.3568 0.15637 0.0
C1612 C 0.25474 0.37247 0.15066 0.0
C1613 C 0.24033 0.3461 0.14575 0.0
C1614 C 0.25099 0.37741 0.13423 0.0
C1615 C 0.24182 0.36694 0.12366 0.0
H1616 H 0.23265 0.66609 0.84225 0.0
H1617 H 0.22759 0.62762 0.87968 0.0
H1618 H 0.24238 0.60788 0.86162 0.0
H1619 H 0.25715 0.60172 0.83526 0.0
H1620 H 0.26081 0.64005 0.79751 0.0
H1621 H 0.24622 0.65968 0.81567 0.0
C1622 C 0.23478 0.65338 0.84647 0.0
C1623 C 0.22913 0.64836 0.86231 0.0
C1624 C 0.24309 0.64208 0.83598 0.0
C1625 C 0.23179 0.63179 0.86751 0.0
C1626 C 0.2403 0.62051 0.85722 0.0
C1627 C 0.25478 0.61438 0.83106 0.0
C1628 C 0.26013 0.61945 0.81511 0.0
C1629 C 0.24609 0.62555 0.84146 0.0
C1630 C 0.25679 0.63583 0.80972 0.0
C1631 C 0.24847 0.64708 0.8201 0.0
H1632 H 0.37842 0.26488 0.84505 0.0
H1633 H 0.34165 0.26813 0.80565 0.0
H1634 H 0.32211 0.25164 0.82225 0.0
H1635 H 0.3155 0.23623 0.84785 0.0
H1636 H 0.35269 0.23182 0.88675 0.0
H1637 H 0.37206 0.24879 0.8704 0.0
C1638 C 0.3661 0.26203 0.84014 0.0
C1639 C 0.36146 0.26778 0.8242 0.0
C1640 C 0.35503 0.2523 0.84962 0.0
C1641 C 0.34554 0.26382 0.81789 0.0
C1642 C 0.33435 0.25441 0.82737 0.0
C1643 C 0.32783 0.23901 0.85277 0.0
C1644 C 0.33262 0.23283 0.86851 0.0
C1645 C 0.33897 0.24857 0.84323 0.0
C1646 C 0.34871 0.23638 0.87463 0.0
C1647 C 0.35978 0.24612 0.86532 0.0
H1648 H 0.72426 0.36102 0.84226 0.0
H1649 H 0.73074 0.39814 0.88085 0.0
H1650 H 0.75131 0.3803 0.89478 0.0
H1651 H 0.76775 0.35433 0.8957 0.0
H1652 H 0.76107 0.31742 0.85686 0.0
H1653 H 0.74033 0.33511 0.84331 0.0
C1654 C 0.7301 0.3652 0.85377 0.0
C1655 C 0.72597 0.38087 0.86051 0.0
C1656 C 0.74196 0.35497 0.86161 0.0
C1657 C 0.73368 0.3861 0.87541 0.0
C1658 C 0.74548 0.37594 0.88336 0.0
C1659 C 0.7618 0.35017 0.88424 0.0
C1660 C 0.76603 0.33457 0.87731 0.0
C1661 C 0.74979 0.36038 0.87651 0.0
C1662 C 0.7581 0.32935 0.8625 0.0
C1663 C 0.7462 0.33945 0.85472 0.0
H1664 H 0.5978 0.73092 0.85288 0.0
H1665 H 0.63056 0.74848 0.8138 0.0
H1666 H 0.64505 0.76638 0.83378 0.0
H1667 H 0.64843 0.77712 0.86227 0.0
H1668 H 0.61541 0.76006 0.9013 0.0
H1669 H 0.60101 0.74192 0.88138 0.0
C1670 C 0.60814 0.73861 0.84872 0.0
C1671 C 0.61308 0.7383 0.83184 0.0
C1672 C 0.61636 0.74901 0.86026 0.0
C1673 C 0.62645 0.74847 0.82669 0.0
C1674 C 0.63477 0.75871 0.83811 0.0
C1675 C 0.63808 0.76944 0.86643 0.0
C1676 C 0.63302 0.76994 0.88325 0.0
C1677 C 0.62981 0.7591 0.85491 0.0
C1678 C 0.61954 0.75994 0.88842 0.0
C1679 C 0.61132 0.74954 0.87704 0.0
H1680 H 0.75445 0.64609 0.11496 0.0
H1681 H 0.75595 0.61178 0.07337 0.0
H1682 H 0.73514 0.59411 0.08696 0.0
H1683 H 0.71675 0.58824 0.11079 0.0
H1684 H 0.71543 0.62249 0.15244 0.0
H1685 H 0.73582 0.64043 0.13859 0.0
C1686 C 0.75027 0.63472 0.10889 0.0
C1687 C 0.75679 0.63023 0.09321 0.0
C1688 C 0.73825 0.62466 0.11673 0.0
C1689 C 0.75116 0.6155 0.08546 0.0
C1690 C 0.73924 0.60541 0.0932 0.0
C1691 C 0.72082 0.5997 0.11677 0.0
C1692 C 0.71457 0.60404 0.1326 0.0
C1693 C 0.73269 0.60987 0.10883 0.0
C1694 C 0.72005 0.61887 0.14024 0.0
C1695 C 0.73174 0.62912 0.13236 0.0
H1696 H 0.32546 0.75101 0.13555 0.0
H1697 H 0.35855 0.75296 0.09307 0.0
H1698 H 0.38007 0.73802 0.10898 0.0
H1699 H 0.3893 0.72407 0.1351 0.0
H1700 H 0.35595 0.72348 0.17752 0.0
H1701 H 0.33481 0.7382 0.16148 0.0
C1702 C 0.33736 0.74814 0.12971 0.0
C1703 C 0.34034 0.75298 0.11311 0.0
C1704 C 0.34968 0.73979 0.13895 0.0
C1705 C 0.35593 0.74937 0.10585 0.0
C1706 C 0.36823 0.7408 0.11493 0.0
C1707 C 0.37741 0.72719 0.1408 0.0
C1708 C 0.37427 0.72262 0.1575 0.0
C1709 C 0.36522 0.73589 0.13151 0.0
C1710 C 0.35881 0.72687 0.16474 0.0
C1711 C 0.34664 0.73527 0.15556 0.0
H1712 H 0.62025 0.22898 0.09986 0.0
H1713 H 0.65647 0.20677 0.13318 0.0
H1714 H 0.64353 0.22069 0.15694 0.0
H1715 H 0.62248 0.23961 0.16825 0.0
H1716 H 0.58663 0.26276 0.13517 0.0
H1717 H 0.59889 0.24807 0.11136 0.0
C1718 C 0.62522 0.22712 0.11234 0.0
C1719 C 0.6393 0.21686 0.11474 0.0
C1720 C 0.61785 0.23539 0.12599 0.0
C1721 C 0.64569 0.21466 0.13097 0.0
C1722 C 0.63829 0.22261 0.14459 0.0
C1723 C 0.61728 0.24143 0.15585 0.0
C1724 C 0.60365 0.25228 0.15353 0.0
C1725 C 0.62446 0.23308 0.14223 0.0
C1726 C 0.59716 0.25452 0.13733 0.0
C1727 C 0.60414 0.2461 0.1237 0.0
H1728 H 0.89165 0.7558 0.63699 0.0
H1729 H 0.85232 0.75831 0.67384 0.0
H1730 H 0.83433 0.74135 0.65609 0.0
H1731 H 0.82959 0.72603 0.63016 0.0
H1732 H 0.86891 0.72274 0.5934 0.0
H1733 H 0.88709 0.73973 0.61114 0.0
C1734 C 0.87913 0.75266 0.64111 0.0
C1735 C 0.87334 0.75838 0.65669 0.0
C1736 C 0.86885 0.74275 0.6309 0.0
C1737 C 0.85713 0.75407 0.66192 0.0
C1738 C 0.8468 0.74438 0.65178 0.0
C1739 C 0.84214 0.72902 0.62599 0.0
C1740 C 0.84785 0.72318 0.61045 0.0
C1741 C 0.85252 0.73868 0.63625 0.0
C1742 C 0.8642 0.72705 0.60533 0.0
C1743 C 0.87459 0.7368 0.61544 0.0
H1744 H 0.23777 0.85942 0.67154 0.0
H1745 H 0.23094 0.89756 0.63402 0.0
H1746 H 0.24657 0.88076 0.61387 0.0
H1747 H 0.26117 0.85468 0.60662 0.0
H1748 H 0.2663 0.81594 0.64378 0.0
H1749 H 0.25242 0.83358 0.66441 0.0
C1750 C 0.23982 0.86413 0.659 0.0
C1751 C 0.23323 0.87971 0.65429 0.0
C1752 C 0.24847 0.85427 0.64741 0.0
C1753 C 0.23583 0.88556 0.63793 0.0
C1754 C 0.24478 0.87598 0.62641 0.0
C1755 C 0.25938 0.85019 0.61928 0.0
C1756 C 0.26475 0.83406 0.62369 0.0
C1757 C 0.25102 0.86024 0.63097 0.0
C1758 C 0.26219 0.8283 0.64007 0.0
C1759 C 0.25428 0.83837 0.65187 0.0
H1760 H 0.12801 0.21998 0.67406 0.0
H1761 H 0.08932 0.20914 0.63803 0.0
H1762 H 0.10491 0.2242 0.61651 0.0
H1763 H 0.1299 0.24003 0.60785 0.0
H1764 H 0.1689 0.24962 0.64397 0.0
H1765 H 0.15278 0.23549 0.66551 0.0
C1766 C 0.12292 0.22097 0.66153 0.0
C1767 C 0.10751 0.21348 0.65768 0.0
C1768 C 0.13203 0.2294 0.64921 0.0
C1769 C 0.10118 0.21476 0.64132 0.0
C1770 C 0.11008 0.22338 0.62901 0.0
C1771 C 0.13482 0.23908 0.62045 0.0
C1772 C 0.15058 0.24586 0.62427 0.0
C1773 C 0.12557 0.23069 0.6328 0.0
C1774 C 0.15684 0.24443 0.64064 0.0
C1775 C 0.14762 0.23638 0.653 0.0
H1776 H 0.75543 0.10748 0.63406 0.0
H1777 H 0.75986 0.14632 0.67125 0.0
H1778 H 0.74492 0.16569 0.65308 0.0
H1779 H 0.73025 0.17153 0.62702 0.0
H1780 H 0.72438 0.13266 0.5901 0.0
H1781 H 0.74022 0.11334 0.60781 0.0
C1782 C 0.75319 0.12021 0.63812 0.0
C1783 C 0.75878 0.12546 0.65397 0.0
C1784 C 0.7443 0.13124 0.62771 0.0
C1785 C 0.75564 0.14194 0.65915 0.0
C1786 C 0.74711 0.15304 0.64876 0.0
C1787 C 0.73248 0.15886 0.62277 0.0
C1788 C 0.72621 0.15358 0.60722 0.0
C1789 C 0.74134 0.14781 0.63308 0.0
C1790 C 0.72906 0.13704 0.60203 0.0
C1791 C 0.73813 0.126 0.61213 0.0
H1792 H 0.88942 0.23246 0.34636 0.0
H1793 H 0.85559 0.23057 0.30431 0.0
H1794 H 0.83449 0.2456 0.32029 0.0
H1795 H 0.82563 0.25941 0.34599 0.0
H1796 H 0.8596 0.26273 0.38779 0.0
H1797 H 0.88067 0.24706 0.3721 0.0
C1798 C 0.8774 0.23529 0.34074 0.0
C1799 C 0.87407 0.23036 0.32418 0.0
C1800 C 0.86537 0.24423 0.34992 0.0
C1801 C 0.85851 0.23428 0.317 0.0
C1802 C 0.84641 0.24285 0.32613 0.0
C1803 C 0.83762 0.25668 0.35171 0.0
C1804 C 0.841 0.26216 0.36806 0.0
C1805 C 0.84971 0.24791 0.34257 0.0
C1806 C 0.85669 0.25868 0.3752 0.0
C1807 C 0.86873 0.24969 0.36626 0.0
H1808 H 0.7526 0.85926 0.32726 0.0
H1809 H 0.76235 0.89705 0.36449 0.0
H1810 H 0.74788 0.88026 0.38553 0.0
H1811 H 0.73302 0.85443 0.39344 0.0
H1812 H 0.72479 0.81626 0.35621 0.0
H1813 H 0.73803 0.83368 0.33506 0.0
C1814 C 0.7515 0.8639 0.33995 0.0
C1815 C 0.75851 0.8794 0.34428 0.0
C1816 C 0.74343 0.8541 0.35199 0.0
C1817 C 0.7571 0.88513 0.36084 0.0
C1818 C 0.74881 0.87555 0.37286 0.0
C1819 C 0.73403 0.85001 0.38067 0.0
C1820 C 0.72793 0.83409 0.3764 0.0
C1821 C 0.74199 0.85996 0.3686 0.0
C1822 C 0.72947 0.82843 0.35984 0.0
C1823 C 0.73702 0.83838 0.34773 0.0
H1824 H 0.16473 0.73945 0.35022 0.0
H1825 H 0.12886 0.73051 0.38945 0.0
H1826 H 0.10766 0.74608 0.37378 0.0
H1827 H 0.09917 0.76172 0.3485 0.0
H1828 H 0.13505 0.76916 0.30895 0.0
H1829 H 0.15638 0.75476 0.32524 0.0
C1830 C 0.15231 0.74096 0.35543 0.0
C1831 C 0.14842 0.73386 0.37101 0.0
C1832 C 0.14016 0.74966 0.34627 0.0
C1833 C 0.13219 0.73582 0.37745 0.0
C1834 C 0.12006 0.74474 0.36852 0.0
C1835 C 0.1117 0.76027 0.34353 0.0
C1836 C 0.11551 0.76651 0.32754 0.0
C1837 C 0.12388 0.75165 0.35286 0.0
C1838 C 0.13175 0.7644 0.32118 0.0
C1839 C 0.14398 0.75618 0.33049 0.0
H1840 H 0.22668 0.1331 0.31819 0.0
H1841 H 0.22488 0.09657 0.3578 0.0
H1842 H 0.24103 0.11521 0.37593 0.0
H1843 H 0.25574 0.14192 0.3804 0.0
H1844 H 0.25596 0.17885 0.34111 0.0
H1845 H 0.24041 0.15994 0.32291 0.0
C1846 C 0.22984 0.12918 0.33078 0.0
C1847 C 0.22469 0.11345 0.33662 0.0
C1848 C 0.23888 0.14001 0.34116 0.0
C1849 C 0.22868 0.10865 0.35304 0.0
C1850 C 0.23796 0.11927 0.36338 0.0
C1851 C 0.25245 0.14576 0.36782 0.0
C1852 C 0.25707 0.16169 0.36205 0.0
C1853 C 0.24317 0.13496 0.35754 0.0
C1854 C 0.25252 0.16664 0.34583 0.0
C1855 C 0.24364 0.15584 0.33542 0.0
H1856 H 0.65919 0.84718 0.75473 0.0
H1857 H 0.62785 0.89107 0.75297 0.0
H1858 H 0.60648 0.8755 0.73774 0.0
H1859 H 0.59674 0.84943 0.72481 0.0
H1860 H 0.62764 0.80528 0.72767 0.0
H1861 H 0.64911 0.82095 0.74258 0.0
C1862 C 0.64769 0.85334 0.75099 0.0
C1863 C 0.64514 0.87025 0.75491 0.0
C1864 C 0.63537 0.84428 0.74244 0.0
C1865 C 0.6301 0.87803 0.75014 0.0
C1866 C 0.61789 0.86915 0.7414 0.0
C1867 C 0.60819 0.84327 0.72867 0.0
C1868 C 0.61062 0.82626 0.72509 0.0
C1869 C 0.6204 0.85228 0.73746 0.0
C1870 C 0.62544 0.81837 0.73032 0.0
C1871 C 0.63775 0.82732 0.73882 0.0
H1872 H 0.15351 0.63248 0.7308 0.0
H1873 H 0.11842 0.59156 0.72997 0.0
H1874 H 0.09897 0.60767 0.74713 0.0
H1875 H 0.09183 0.63355 0.7621 0.0
H1876 H 0.12653 0.67483 0.76167 0.0
H1877 H 0.14625 0.65837 0.7453 0.0
C1878 C 0.14164 0.62705 0.73443 0.0
C1879 C 0.13744 0.61084 0.72917 0.0
C1880 C 0.13044 0.63645 0.74405 0.0
C1881 C 0.12193 0.60405 0.73382 0.0
C1882 C 0.11082 0.61323 0.74366 0.0
C1883 C 0.10375 0.6389 0.75849 0.0
C1884 C 0.10773 0.65536 0.76312 0.0
C1885 C 0.11493 0.62946 0.74882 0.0
C1886 C 0.12313 0.6622 0.7582 0.0
C1887 C 0.13444 0.6528 0.74886 0.0
H1888 H 0.3154 0.12733 0.75018 0.0
H1889 H 0.35365 0.09096 0.76134 0.0
H1890 H 0.37443 0.1082 0.74702 0.0
H1891 H 0.38176 0.13395 0.73168 0.0
H1892 H 0.34346 0.17076 0.72209 0.0
H1893 H 0.32267 0.15296 0.73538 0.0
C1894 C 0.32826 0.12311 0.74942 0.0
C1895 C 0.33295 0.10785 0.75675 0.0
C1896 C 0.34015 0.13318 0.74145 0.0
C1897 C 0.34972 0.10268 0.75582 0.0
C1898 C 0.3616 0.11252 0.74761 0.0
C1899 C 0.36884 0.138 0.73243 0.0
C1900 C 0.36416 0.15363 0.72588 0.0
C1901 C 0.35696 0.12783 0.74042 0.0
C1902 C 0.34741 0.15882 0.7271 0.0
C1903 C 0.3355 0.14864 0.73467 0.0
H1904 H 0.87033 0.32796 0.7681 0.0
H1905 H 0.90237 0.36864 0.75314 0.0
H1906 H 0.8796 0.3808 0.73683 0.0
H1907 H 0.8506 0.37999 0.72696 0.0
H1908 H 0.81834 0.33961 0.74234 0.0
H1909 H 0.84124 0.3272 0.75828 0.0
C1910 C 0.87233 0.33949 0.76128 0.0
C1911 C 0.88803 0.34738 0.76185 0.0
C1912 C 0.85917 0.34645 0.75197 0.0
C1913 C 0.8904 0.36233 0.75295 0.0
C1914 C 0.8774 0.36928 0.74359 0.0
C1915 C 0.84857 0.36843 0.73372 0.0
C1916 C 0.83276 0.36074 0.7334 0.0
C1917 C 0.86173 0.36145 0.74301 0.0
C1918 C 0.83036 0.34582 0.74236 0.0
C1919 C 0.84345 0.33871 0.75149 0.0
H1920 H 0.63665 0.09369 0.2283 0.0
H1921 H 0.67284 0.1335 0.22471 0.0
H1922 H 0.65421 0.15213 0.23995 0.0
H1923 H 0.62799 0.15709 0.25459 0.0
H1924 H 0.59207 0.11723 0.25972 0.0
H1925 H 0.61029 0.09861 0.24364 0.0
C1926 C 0.64038 0.10647 0.23079 0.0
C1927 C 0.65608 0.11222 0.22534 0.0
C1928 C 0.62972 0.11707 0.23989 0.0
C1929 C 0.66086 0.12875 0.22882 0.0
C1930 C 0.65021 0.13943 0.23752 0.0
C1931 C 0.62408 0.14434 0.25215 0.0
C1932 C 0.60866 0.13858 0.25827 0.0
C1933 C 0.63467 0.1337 0.24316 0.0
C1934 C 0.6039 0.12197 0.25517 0.0
C1935 C 0.61429 0.11133 0.24595 0.0
H1936 H 0.85714 0.64649 0.21353 0.0
H1937 H 0.89346 0.60955 0.22863 0.0
H1938 H 0.87203 0.59479 0.24459 0.0
H1939 H 0.84302 0.59258 0.25447 0.0
H1940 H 0.80668 0.6293 0.23874 0.0
H1941 H 0.82811 0.64392 0.22281 0.0
C1942 C 0.86038 0.6352 0.2203 0.0
C1943 C 0.87688 0.62916 0.21994 0.0
C1944 C 0.848 0.62675 0.22936 0.0
C1945 C 0.88084 0.61446 0.22869 0.0
C1946 C 0.8686 0.60603 0.23785 0.0
C1947 C 0.83978 0.60379 0.24758 0.0
C1948 C 0.82326 0.60985 0.24787 0.0
C1949 C 0.85215 0.6121 0.23832 0.0
C1950 C 0.81928 0.62433 0.23875 0.0
C1951 C 0.83153 0.63273 0.22963 0.0
H1952 H 0.33377 0.85686 0.22019 0.0
H1953 H 0.36907 0.89596 0.23172 0.0
H1954 H 0.38501 0.87666 0.24927 0.0
H1955 H 0.38889 0.84865 0.2613 0.0
H1956 H 0.3539 0.80947 0.24898 0.0
H1957 H 0.33783 0.82889 0.23183 0.0
C1958 C 0.34496 0.86117 0.22653 0.0
C1959 C 0.35021 0.87781 0.22468 0.0
C1960 C 0.35408 0.85001 0.2365 0.0
C1961 C 0.36478 0.88318 0.23291 0.0
C1962 C 0.37387 0.87217 0.24298 0.0
C1963 C 0.37769 0.84439 0.25493 0.0
C1964 C 0.37258 0.82765 0.25647 0.0
C1965 C 0.36862 0.85556 0.24489 0.0
C1966 C 0.35814 0.82228 0.248 0.0
C1967 C 0.34893 0.83337 0.23818 0.0
H1968 H 0.13434 0.38647 0.2575 0.0
H1969 H 0.17279 0.34935 0.26486 0.0
H1970 H 0.15499 0.3281 0.25211 0.0
H1971 H 0.1287 0.32014 0.23855 0.0
H1972 H 0.09089 0.35754 0.22947 0.0
H1973 H 0.10826 0.37863 0.24315 0.0
C1974 C 0.13875 0.3737 0.25639 0.0
C1975 C 0.15478 0.36944 0.26218 0.0
C1976 C 0.12861 0.36163 0.24867 0.0
C1977 C 0.16048 0.35292 0.26045 0.0
C1978 C 0.15032 0.34077 0.25318 0.0
C1979 C 0.12424 0.33289 0.23961 0.0
C1980 C 0.10852 0.33726 0.23308 0.0
C1981 C 0.1344 0.34499 0.24719 0.0
C1982 C 0.10299 0.35388 0.23435 0.0
C1983 C 0.11288 0.36593 0.24221 0.0
H1984 H 0.75718 0.64612 0.88311 0.0
H1985 H 0.75513 0.68456 0.84532 0.0
H1986 H 0.74203 0.66508 0.82586 0.0
H1987 H 0.73098 0.6373 0.81965 0.0
H1988 H 0.73146 0.59917 0.85776 0.0
H1989 H 0.74537 0.61838 0.87707 0.0
C1990 C 0.75391 0.65019 0.87059 0.0
C1991 C 0.75716 0.66672 0.86563 0.0
C1992 C 0.7461 0.63901 0.85956 0.0
C1993 C 0.75269 0.67191 0.84945 0.0
C1994 C 0.74524 0.66078 0.83831 0.0
C1995 C 0.73421 0.63316 0.83216 0.0
C1996 C 0.73031 0.61683 0.83725 0.0
C1997 C 0.74187 0.64433 0.84324 0.0
C1998 C 0.73433 0.61171 0.85357 0.0
C1999 C 0.7423 0.62267 0.86459 0.0
H2000 H 0.75545 0.32591 0.13748 0.0
H2001 H 0.75358 0.35826 0.0944 0.0
H2002 H 0.73827 0.37922 0.11057 0.0
H2003 H 0.72504 0.3881 0.13695 0.0
H2004 H 0.72835 0.35607 0.18024 0.0
H2005 H 0.74351 0.33526 0.16399 0.0
C2006 C 0.75166 0.33754 0.13162 0.0
C2007 C 0.75551 0.34049 0.11475 0.0
C2008 C 0.74314 0.34959 0.14103 0.0
C2009 C 0.75076 0.35571 0.10739 0.0
C2010 C 0.74198 0.36767 0.11661 0.0
C2011 C 0.7291 0.37657 0.1428 0.0
C2012 C 0.7255 0.37361 0.15975 0.0
C2013 C 0.73804 0.36471 0.13344 0.0
C2014 C 0.731 0.35869 0.16723 0.0
C2015 C 0.73963 0.34675 0.15794 0.0
H2016 H 0.66994 0.75672 0.143 0.0
H2017 H 0.63469 0.75977 0.10223 0.0
H2018 H 0.61394 0.74472 0.11882 0.0
H2019 H 0.60573 0.73098 0.14511 0.0
H2020 H 0.64082 0.72924 0.18614 0.0
H2021 H 0.66169 0.74348 0.16921 0.0
C2022 C 0.65775 0.75402 0.1377 0.0
C2023 C 0.65389 0.75929 0.1214 0.0
C2024 C 0.64582 0.74563 0.14737 0.0
C2025 C 0.63796 0.75588 0.11478 0.0
C2026 C 0.6261 0.74725 0.12424 0.0
C2027 C 0.61797 0.73368 0.15031 0.0
C2028 C 0.62171 0.72905 0.16685 0.0
C2029 C 0.62988 0.74211 0.14058 0.0
C2030 C 0.63757 0.73275 0.17347 0.0
C2031 C 0.64955 0.74086 0.16379 0.0
H2032 H 0.24346 0.61842 0.15569 0.0
H2033 H 0.26628 0.58651 0.11866 0.0
H2034 H 0.24943 0.59962 0.09679 0.0
H2035 H 0.22824 0.62024 0.08819 0.0
H2036 H 0.20624 0.65262 0.12529 0.0
H2037 H 0.22267 0.6391 0.14715 0.0
C2038 C 0.24478 0.61431 0.14285 0.0
C2039 C 0.25611 0.60148 0.13885 0.0
C2040 C 0.23514 0.62193 0.13035 0.0
C2041 C 0.25769 0.5964 0.1221 0.0
C2042 C 0.24803 0.60385 0.10958 0.0
C2043 C 0.22697 0.62424 0.10108 0.0
C2044 C 0.216 0.63735 0.10514 0.0
C2045 C 0.23668 0.6166 0.11357 0.0
C2046 C 0.21462 0.64255 0.12185 0.0
C2047 C 0.22401 0.63485 0.13436 0.0
H2048 H 0.36614 0.23035 0.09476 0.0
H2049 H 0.33057 0.2093 0.12936 0.0
H2050 H 0.34366 0.22442 0.15237 0.0
H2051 H 0.3649 0.24385 0.16264 0.0
H2052 H 0.40007 0.26563 0.12806 0.0
H2053 H 0.3874 0.25003 0.10509 0.0
C2054 C 0.36132 0.22902 0.10735 0.0
C2055 C 0.34743 0.21871 0.11034 0.0
C2056 C 0.36878 0.23793 0.12052 0.0
C2057 C 0.34123 0.2172 0.12671 0.0
C2058 C 0.34871 0.22583 0.13988 0.0
C2059 C 0.36983 0.24518 0.15009 0.0
C2060 C 0.38342 0.25589 0.14711 0.0
C2061 C 0.36243 0.23628 0.13693 0.0
C2062 C 0.38958 0.25751 0.13073 0.0
C2063 C 0.38237 0.24857 0.11757 0.0
H2064 H 0.25122 0.39668 0.85342 0.0
H2065 H 0.24729 0.35681 0.81729 0.0
H2066 H 0.23344 0.33921 0.83794 0.0
H2067 H 0.22205 0.33529 0.86597 0.0
H2068 H 0.22471 0.37538 0.90192 0.0
H2069 H 0.23945 0.39281 0.88158 0.0
C2070 C 0.24743 0.3841 0.85012 0.0
C2071 C 0.25032 0.37804 0.83387 0.0
C2072 C 0.23919 0.37414 0.86196 0.0
C2073 C 0.24517 0.36178 0.8297 0.0
C2074 C 0.23726 0.35171 0.84149 0.0
C2075 C 0.22589 0.34783 0.86938 0.0
C2076 C 0.22235 0.35404 0.88542 0.0
C2077 C 0.23414 0.35779 0.85761 0.0
C2078 C 0.22727 0.37035 0.88962 0.0
C2079 C 0.23572 0.38029 0.87802 0.0
H2080 H 0.63602 0.2298 0.89 0.0
H2081 H 0.67189 0.24197 0.8516 0.0
H2082 H 0.65072 0.25825 0.83681 0.0
H2083 H 0.6221 0.26909 0.83481 0.0
H2084 H 0.58638 0.25735 0.87345 0.0
H2085 H 0.60749 0.24083 0.88813 0.0
C2086 C 0.63922 0.23596 0.87836 0.0
C2087 C 0.65553 0.23462 0.87191 0.0
C2088 C 0.62703 0.2454 0.86998 0.0
C2089 C 0.65946 0.24279 0.85687 0.0
C2090 C 0.64735 0.2521 0.84839 0.0
C2091 C 0.61892 0.26291 0.84644 0.0
C2092 C 0.60269 0.26443 0.85302 0.0
C2093 C 0.63112 0.25351 0.85485 0.0
C2094 C 0.59879 0.2564 0.86813 0.0
C2095 C 0.61084 0.24693 0.87652 0.0
H2096 H 0.35859 0.75537 0.88527 0.0
H2097 H 0.32051 0.76173 0.84749 0.0
H2098 H 0.33778 0.74703 0.82726 0.0
H2099 H 0.36337 0.73216 0.82023 0.0
H2100 H 0.40126 0.72433 0.85787 0.0
H2101 H 0.38439 0.73978 0.87821 0.0
C2102 C 0.35414 0.75358 0.87259 0.0
C2103 C 0.33829 0.75966 0.86791 0.0
C2104 C 0.36406 0.74483 0.861 0.0
C2105 C 0.33261 0.75711 0.85147 0.0
C2106 C 0.34249 0.74873 0.83986 0.0
C2107 C 0.36801 0.73387 0.83286 0.0
C2108 C 0.38359 0.72717 0.83749 0.0
C2109 C 0.35819 0.7425 0.84449 0.0
C2110 C 0.38929 0.72935 0.85398 0.0
C2111 C 0.37966 0.7382 0.86561 0.0
H2112 H 0.04776 0.25198 0.29459 0.0
H2113 H 0.05495 0.21031 0.26108 0.0
H2114 H 0.05185 0.2288 0.23709 0.0
H2115 H 0.0504 0.25709 0.22572 0.0
H2116 H 0.04403 0.29906 0.25896 0.0
H2117 H 0.04321 0.28013 0.28294 0.0
C2118 C 0.04841 0.24692 0.28204 0.0
C2119 C 0.05185 0.22984 0.27963 0.0
C2120 C 0.04686 0.25768 0.26825 0.0
C2121 C 0.0525 0.22344 0.26329 0.0
C2122 C 0.05075 0.234 0.24954 0.0
C2123 C 0.04858 0.26209 0.23819 0.0
C2124 C 0.04754 0.27945 0.24059 0.0
C2125 C 0.04844 0.25119 0.25189 0.0
C2126 C 0.04496 0.28573 0.25679 0.0
C2127 C 0.04459 0.27492 0.27051 0.0
H2128 H 0.7448 0.04818 0.28383 0.0
H2129 H 0.78478 0.06057 0.24985 0.0
H2130 H 0.76535 0.05963 0.22635 0.0
H2131 H 0.73657 0.05815 0.21588 0.0
H2132 H 0.69646 0.04634 0.2499 0.0
H2133 H 0.7164 0.04405 0.2729 0.0
C2134 C 0.7493 0.05045 0.27125 0.0
C2135 C 0.76615 0.05466 0.26863 0.0
C2136 C 0.73802 0.05013 0.25781 0.0
C2137 C 0.77183 0.05742 0.25224 0.0
C2138 C 0.76072 0.05694 0.23878 0.0
C2139 C 0.73221 0.05488 0.22828 0.0
C2140 C 0.71504 0.05265 0.23121 0.0
C2141 C 0.74371 0.05377 0.24149 0.0
C2142 C 0.70961 0.04825 0.24732 0.0
C2143 C 0.721 0.04697 0.2605 0.0
H2144 H 0.92224 0.71669 0.21483 0.0
H2145 H 0.92247 0.67901 0.2534 0.0
H2146 H 0.92476 0.70069 0.27481 0.0
H2147 H 0.92507 0.73044 0.2826 0.0
H2148 H 0.92403 0.76798 0.2439 0.0
H2149 H 0.92391 0.74624 0.22251 0.0
C2150 C 0.92286 0.7132 0.22792 0.0
C2151 C 0.92206 0.69628 0.23252 0.0
C2152 C 0.92406 0.72571 0.24014 0.0
C2153 C 0.92298 0.69197 0.24953 0.0
C2154 C 0.9243 0.70435 0.26178 0.0
C2155 C 0.92505 0.73385 0.26949 0.0
C2156 C 0.92449 0.75079 0.26484 0.0
C2157 C 0.92465 0.72128 0.25724 0.0
C2158 C 0.9244 0.75502 0.2478 0.0
C2159 C 0.92427 0.74261 0.23556 0.0
H2160 H 0.25319 0.92745 0.28906 0.0
H2161 H 0.21249 0.92193 0.25403 0.0
H2162 H 0.23234 0.92026 0.23094 0.0
H2163 H 0.26131 0.9188 0.22087 0.0
H2164 H 0.302 0.92388 0.25597 0.0
H2165 H 0.28211 0.92726 0.27884 0.0
C2166 C 0.24865 0.92606 0.27636 0.0
C2167 C 0.23138 0.92474 0.2733 0.0
C2168 C 0.26014 0.92487 0.26316 0.0
C2169 C 0.22572 0.92293 0.25675 0.0
C2170 C 0.23707 0.92192 0.24354 0.0
C2171 C 0.26582 0.92071 0.23351 0.0
C2172 C 0.28311 0.92097 0.23672 0.0
C2173 C 0.25431 0.9226 0.24662 0.0
C2174 C 0.28876 0.92355 0.25316 0.0
C2175 C 0.27739 0.92549 0.26626 0.0
H2176 H 0.0523 0.72865 0.77622 0.0
H2177 H 0.03902 0.68964 0.74144 0.0
H2178 H 0.0397 0.70967 0.7184 0.0
H2179 H 0.04735 0.73755 0.7078 0.0
H2180 H 0.06185 0.77599 0.74276 0.0
H2181 H 0.05728 0.75694 0.76604 0.0
C2182 C 0.04928 0.72456 0.76365 0.0
C2183 C 0.04585 0.70765 0.76052 0.0
C2184 C 0.05009 0.73603 0.75044 0.0
C2185 C 0.04185 0.70258 0.74416 0.0
C2186 C 0.0423 0.71402 0.73097 0.0
C2187 C 0.04925 0.74181 0.72053 0.0
C2188 C 0.05514 0.75807 0.72353 0.0
C2189 C 0.04692 0.73066 0.73389 0.0
C2190 C 0.05751 0.76345 0.7401 0.0
C2191 C 0.05491 0.75257 0.75343 0.0
H2192 H 0.28943 0.04513 0.73478 0.0
H2193 H 0.25004 0.05171 0.77102 0.0
H2194 H 0.22912 0.0503 0.7489 0.0
H2195 H 0.22228 0.05075 0.71915 0.0
H2196 H 0.26147 0.04516 0.68259 0.0
H2197 H 0.28217 0.04241 0.70495 0.0
C2198 C 0.27625 0.04593 0.73786 0.0
C2199 C 0.2713 0.04876 0.75448 0.0
C2200 C 0.26426 0.04547 0.72501 0.0
C2201 C 0.25418 0.04971 0.75829 0.0
C2202 C 0.2422 0.04895 0.74565 0.0
C2203 C 0.23532 0.0487 0.71606 0.0
C2204 C 0.24037 0.04843 0.69926 0.0
C2205 C 0.24714 0.04741 0.72894 0.0
C2206 C 0.25728 0.04554 0.69545 0.0
C2207 C 0.26913 0.04403 0.70822 0.0
H2208 H 0.93536 0.29565 0.73149 0.0
H2209 H 0.93589 0.26328 0.77465 0.0
H2210 H 0.93598 0.2388 0.75658 0.0
H2211 H 0.93403 0.22653 0.72868 0.0
H2212 H 0.93357 0.25854 0.68531 0.0
H2213 H 0.93557 0.28318 0.70328 0.0
C2214 C 0.93561 0.28323 0.73691 0.0
C2215 C 0.93545 0.28129 0.75438 0.0
C2216 C 0.93566 0.26914 0.72643 0.0
C2217 C 0.93592 0.26513 0.76124 0.0
C2218 C 0.93596 0.2511 0.75092 0.0
C2219 C 0.93453 0.23889 0.72314 0.0
C2220 C 0.93348 0.24071 0.70572 0.0
C2221 C 0.93556 0.25296 0.73352 0.0
C2222 C 0.93432 0.2568 0.69871 0.0
C2223 C 0.93538 0.2709 0.70898 0.0
H2224 H 0.69724 0.92429 0.72798 0.0
H2225 H 0.73259 0.91985 0.76855 0.0
H2226 H 0.75575 0.92105 0.74877 0.0
H2227 H 0.76591 0.92196 0.71996 0.0
H2228 H 0.7307 0.92535 0.67919 0.0
H2229 H 0.7075 0.92599 0.69906 0.0
C2230 C 0.71001 0.92373 0.73249 0.0
C2231 C 0.7132 0.92194 0.7497 0.0
C2232 C 0.72328 0.92414 0.72102 0.0
C2233 C 0.72981 0.92117 0.75536 0.0
C2234 C 0.74306 0.92184 0.74406 0.0
C2235 C 0.75317 0.92294 0.71541 0.0
C2236 C 0.75002 0.92356 0.69813 0.0
C2237 C 0.73993 0.92309 0.72687 0.0
C2238 C 0.73344 0.92481 0.69243 0.0
C2239 C 0.72018 0.92517 0.70379 0.0
H2240 H 0.21314 0.05926 0.25821 0.0
H2241 H 0.24785 0.04605 0.29739 0.0
H2242 H 0.27066 0.04516 0.2771 0.0
H2243 H 0.28112 0.05099 0.24878 0.0
H2244 H 0.24631 0.06522 0.21002 0.0
H2245 H 0.22314 0.06275 0.22961 0.0
C2246 C 0.22565 0.05597 0.2623 0.0
C2247 C 0.22884 0.05294 0.2793 0.0
C2248 C 0.23871 0.05581 0.25066 0.0
C2249 C 0.24509 0.04855 0.28437 0.0
C2250 C 0.25815 0.0481 0.27279 0.0
C2251 C 0.26845 0.05335 0.24458 0.0
C2252 C 0.26547 0.05848 0.22804 0.0
C2253 C 0.25518 0.05216 0.25599 0.0
C2254 C 0.24896 0.06141 0.22274 0.0
C2255 C 0.2357 0.06001 0.23393 0.0
H2256 H 0.93701 0.26059 0.21693 0.0
H2257 H 0.93877 0.30177 0.25165 0.0
H2258 H 0.94233 0.28224 0.27492 0.0
H2259 H 0.94126 0.25331 0.28556 0.0
H2260 H 0.93886 0.21239 0.25048 0.0
H2261 H 0.93948 0.23197 0.2272 0.0
C2262 C 0.93841 0.2653 0.22957 0.0
C2263 C 0.93735 0.28254 0.23262 0.0
C2264 C 0.94023 0.25403 0.24284 0.0
C2265 C 0.93944 0.28852 0.24901 0.0
C2266 C 0.9414 0.27735 0.26232 0.0
C2267 C 0.94121 0.24868 0.27282 0.0
C2268 C 0.93973 0.23144 0.26976 0.0
C2269 C 0.94127 0.26005 0.25943 0.0
C2270 C 0.93978 0.22562 0.25318 0.0
C2271 C 0.94009 0.2368 0.23984 0.0
H2272 H 0.73655 0.93973 0.29575 0.0
H2273 H 0.77528 0.93224 0.25897 0.0
H2274 H 0.75456 0.93319 0.23664 0.0
H2275 H 0.72535 0.93276 0.22787 0.0
H2276 H 0.68624 0.93928 0.26435 0.0
H2277 H 0.7072 0.94235 0.28646 0.0
C2278 C 0.74047 0.93861 0.28283 0.0
C2279 C 0.75739 0.93568 0.27903 0.0
C2280 C 0.72842 0.93884 0.27002 0.0
C2281 C 0.7623 0.93431 0.26223 0.0
C2282 C 0.75046 0.93482 0.24945 0.0
C2283 C 0.7214 0.93507 0.24063 0.0
C2284 C 0.70429 0.93553 0.24452 0.0
C2285 C 0.73346 0.93653 0.25324 0.0
C2286 C 0.69936 0.93877 0.26105 0.0
C2287 C 0.71134 0.94046 0.27371 0.0
H2288 H 0.05938 0.72794 0.21851 0.0
H2289 H 0.05722 0.68814 0.25482 0.0
H2290 H 0.05305 0.70849 0.27717 0.0
H2291 H 0.05266 0.73768 0.28664 0.0
H2292 H 0.05545 0.77742 0.25028 0.0
H2293 H 0.0565 0.75698 0.2277 0.0
C2294 C 0.05783 0.72371 0.23129 0.0
C2295 C 0.05883 0.70658 0.23503 0.0
C2296 C 0.05561 0.73547 0.24408 0.0
C2297 C 0.05663 0.70127 0.25162 0.0
C2298 C 0.05427 0.7129 0.26442 0.0
C2299 C 0.05325 0.74187 0.27376 0.0
C2300 C 0.05419 0.75903 0.27016 0.0
C2301 C 0.05413 0.73005 0.26084 0.0
C2302 C 0.05486 0.76427 0.25341 0.0
C2303 C 0.05551 0.75259 0.24048 0.0
H2304 H 0.25004 0.9411 0.70048 0.0
H2305 H 0.21085 0.93152 0.73624 0.0
H2306 H 0.23128 0.93132 0.75888 0.0
H2307 H 0.26044 0.93073 0.76807 0.0
H2308 H 0.2999 0.93944 0.73242 0.0
H2309 H 0.2792 0.94327 0.71023 0.0
C2310 C 0.24595 0.93927 0.71326 0.0
C2311 C 0.22898 0.93612 0.71665 0.0
C2312 C 0.25782 0.93883 0.72622 0.0
C2313 C 0.22386 0.93382 0.73328 0.0
C2314 C 0.23554 0.93365 0.74624 0.0
C2315 C 0.26452 0.93366 0.75548 0.0
C2316 C 0.28168 0.93456 0.75185 0.0
C2317 C 0.25259 0.93562 0.74278 0.0
C2318 C 0.28676 0.93856 0.73552 0.0
C2319 C 0.27492 0.94071 0.72282 0.0
H2320 H 0.0508 0.23362 0.70788 0.0
H2321 H 0.06361 0.19576 0.74413 0.0
H2322 H 0.06766 0.21717 0.76542 0.0
H2323 H 0.07071 0.2467 0.77284 0.0
H2324 H 0.05842 0.28467 0.73656 0.0
H2325 H 0.05094 0.26317 0.71624 0.0
C2326 C 0.05417 0.23004 0.72052 0.0
C2327 C 0.05714 0.21315 0.72435 0.0
C2328 C 0.0568 0.24244 0.73265 0.0
C2329 C 0.06141 0.2087 0.74081 0.0
C2330 C 0.0638 0.22093 0.75299 0.0
C2331 C 0.06623 0.25027 0.76055 0.0
C2332 C 0.06538 0.26723 0.75613 0.0
C2333 C 0.06207 0.23786 0.7489 0.0
C2334 C 0.05933 0.27168 0.74023 0.0
C2335 C 0.05507 0.25939 0.72859 0.0
H2336 H 0.723 0.06764 0.76735 0.0
H2337 H 0.68265 0.0673 0.73148 0.0
H2338 H 0.70278 0.06571 0.7086 0.0
H2339 H 0.73185 0.06613 0.69876 0.0
H2340 H 0.77212 0.06729 0.73469 0.0
H2341 H 0.75199 0.06664 0.75757 0.0
C2342 C 0.7186 0.06712 0.75453 0.0
C2343 C 0.70137 0.06771 0.75112 0.0
C2344 C 0.73022 0.06636 0.74145 0.0
C2345 C 0.69587 0.06695 0.73444 0.0
C2346 C 0.70736 0.06604 0.72135 0.0
C2347 C 0.73622 0.06604 0.71159 0.0
C2348 C 0.75344 0.06685 0.71502 0.0
C2349 C 0.72457 0.06597 0.7247 0.0
C2350 C 0.75892 0.06675 0.73172 0.0
C2351 C 0.74742 0.06642 0.74482 0.0
H2352 H 0.91939 0.72605 0.76864 0.0
H2353 H 0.93824 0.68886 0.73444 0.0
H2354 H 0.94199 0.71029 0.713 0.0
H2355 H 0.93747 0.73905 0.70325 0.0
H2356 H 0.91811 0.77606 0.73738 0.0
H2357 H 0.91718 0.75524 0.75966 0.0
C2358 C 0.92448 0.72265 0.75655 0.0
C2359 C 0.92832 0.70586 0.75306 0.0
C2360 C 0.92643 0.73498 0.74426 0.0
C2361 C 0.93509 0.70168 0.73741 0.0
C2362 C 0.93719 0.71392 0.72513 0.0
C2363 C 0.93322 0.74261 0.71562 0.0
C2364 C 0.92768 0.75904 0.7186 0.0
C2365 C 0.93252 0.73053 0.72831 0.0
C2366 C 0.92236 0.76349 0.73473 0.0
C2367 C 0.92177 0.75158 0.74746 0.0
H2368 H 0.24876 0.28237 0.06286 0.0
H2369 H 0.211 0.2442 0.06782 0.0
H2370 H 0.23246 0.22255 0.06627 0.0
H2371 H 0.26204 0.21454 0.06531 0.0
H2372 H 0.2999 0.2527 0.06121 0.0
H2373 H 0.27828 0.27428 0.06059 0.0
C2374 C 0.2452 0.26931 0.06343 0.0
C2375 C 0.22832 0.26491 0.06555 0.0
C2376 C 0.25763 0.25694 0.06281 0.0
C2377 C 0.22392 0.24793 0.06626 0.0
C2378 C 0.23619 0.23554 0.06541 0.0
C2379 C 0.26556 0.22757 0.06417 0.0
C2380 C 0.28255 0.23202 0.06341 0.0
C2381 C 0.25309 0.23991 0.06399 0.0
C2382 C 0.28691 0.24895 0.06189 0.0
C2383 C 0.27456 0.2613 0.06154 0.0
H2384 H 0.22358 0.72809 0.92169 0.0
H2385 H 0.25755 0.68663 0.92779 0.0
H2386 H 0.28088 0.70602 0.93131 0.0
H2387 H 0.29194 0.73468 0.92991 0.0
H2388 H 0.2578 0.77595 0.9232 0.0
H2389 H 0.23422 0.7567 0.92285 0.0
C2390 C 0.23606 0.72329 0.92396 0.0
C2391 C 0.23888 0.70597 0.92425 0.0
C2392 C 0.2494 0.73448 0.92578 0.0
C2393 C 0.25508 0.69993 0.92741 0.0
C2394 C 0.26843 0.71101 0.92938 0.0
C2395 C 0.27932 0.73947 0.9286 0.0
C2396 C 0.27665 0.7567 0.92636 0.0
C2397 C 0.2658 0.7283 0.92817 0.0
C2398 C 0.26022 0.76273 0.92479 0.0
C2399 C 0.24671 0.75173 0.92455 0.0
H2400 H 0.2196 0.26387 0.92787 0.0
H2401 H 0.25636 0.30252 0.93574 0.0
H2402 H 0.27859 0.2816 0.9361 0.0
H2403 H 0.28778 0.25269 0.93166 0.0
H2404 H 0.25108 0.21422 0.92259 0.0
H2405 H 0.22863 0.2347 0.9254 0.0
C2406 C 0.23245 0.26769 0.92987 0.0
C2407 C 0.23634 0.28472 0.93164 0.0
C2408 C 0.2452 0.25564 0.92975 0.0
C2409 C 0.25305 0.28949 0.93426 0.0
C2410 C 0.26577 0.27754 0.93443 0.0
C2411 C 0.27486 0.24874 0.93051 0.0
C2412 C 0.27111 0.232 0.92676 0.0
C2413 C 0.26203 0.26063 0.93181 0.0
C2414 C 0.25431 0.22707 0.92535 0.0
C2415 C 0.24146 0.23877 0.92692 0.0
H2416 H 0.74039 0.21965 0.91641 0.0
H2417 H 0.70446 0.25267 0.93943 0.0
H2418 H 0.72598 0.27397 0.94287 0.0
H2419 H 0.75423 0.28407 0.93718 0.0
H2420 H 0.79009 0.25155 0.91339 0.0
H2421 H 0.76939 0.22909 0.91263 0.0
C2422 C 0.73731 0.23144 0.92235 0.0
C2423 C 0.72081 0.23465 0.92749 0.0
C2424 C 0.7497 0.24373 0.92409 0.0
C2425 C 0.71704 0.24994 0.93524 0.0
C2426 C 0.72933 0.26214 0.9372 0.0
C2427 C 0.7576 0.27202 0.93198 0.0
C2428 C 0.77361 0.26954 0.92519 0.0
C2429 C 0.74559 0.2593 0.93133 0.0
C2430 C 0.77781 0.2538 0.91864 0.0
C2431 C 0.76597 0.24098 0.91814 0.0
H2432 H 0.69187 0.74622 0.9293 0.0
H2433 H 0.72236 0.78881 0.91655 0.0
H2434 H 0.74736 0.7714 0.91719 0.0
H2435 H 0.76042 0.74389 0.91995 0.0
H2436 H 0.7301 0.70114 0.93254 0.0
H2437 H 0.70525 0.71885 0.93362 0.0
C2438 C 0.704 0.75168 0.92672 0.0
C2439 C 0.70523 0.76874 0.92275 0.0
C2440 C 0.71837 0.7416 0.92712 0.0
C2441 C 0.72105 0.77569 0.91957 0.0
C2442 C 0.73537 0.76575 0.91994 0.0
C2443 C 0.74841 0.73847 0.92311 0.0
C2444 C 0.7471 0.72121 0.92604 0.0
C2445 C 0.73416 0.74867 0.92352 0.0
C2446 C 0.73144 0.71439 0.93017 0.0
C2447 C 0.71721 0.7245 0.93073 0.0
H2448 H 0.76936 0.72414 0.07026 0.0
H2449 H 0.73244 0.68699 0.05738 0.0
H2450 H 0.71078 0.70844 0.05665 0.0
H2451 H 0.70204 0.73748 0.06088 0.0
H2452 H 0.73877 0.77464 0.07426 0.0
H2453 H 0.76078 0.75349 0.07339 0.0
C2454 C 0.75659 0.72075 0.06723 0.0
C2455 C 0.75252 0.70397 0.06398 0.0
C2456 C 0.74414 0.73315 0.0669 0.0
C2457 C 0.73591 0.6998 0.06 0.0
C2458 C 0.7235 0.71206 0.05957 0.0
C2459 C 0.71488 0.741 0.06345 0.0
C2460 C 0.71873 0.7576 0.0677 0.0
C2461 C 0.72744 0.72874 0.06316 0.0
C2462 C 0.73545 0.76193 0.07099 0.0
C2463 C 0.74804 0.74984 0.07055 0.0
H2464 H 0.21623 0.72243 0.0625 0.0
H2465 H 0.25034 0.6812 0.05568 0.0
H2466 H 0.27389 0.70058 0.05465 0.0
H2467 H 0.28496 0.72913 0.05735 0.0
H2468 H 0.2508 0.77015 0.06511 0.0
H2469 H 0.22713 0.75099 0.06394 0.0
C2470 C 0.2288 0.71769 0.06067 0.0
C2471 C 0.23153 0.70041 0.05926 0.0
C2472 C 0.2423 0.72887 0.06028 0.0
C2473 C 0.2479 0.69446 0.05687 0.0
C2474 C 0.26138 0.70553 0.05628 0.0
C2475 C 0.27233 0.73389 0.05859 0.0
C2476 C 0.26965 0.75102 0.0614 0.0
C2477 C 0.25876 0.72275 0.0582 0.0
C2478 C 0.2532 0.757 0.06303 0.0
C2479 C 0.23965 0.74605 0.06239 0.0
H2480 H 0.72319 0.22001 0.06608 0.0
H2481 H 0.68213 0.25491 0.0634 0.0
H2482 H 0.70181 0.27808 0.0606 0.0
H2483 H 0.73074 0.28854 0.06048 0.0
H2484 H 0.77165 0.25353 0.064 0.0
H2485 H 0.75196 0.23028 0.06468 0.0
C2486 C 0.71853 0.23267 0.06481 0.0
C2487 C 0.70123 0.23574 0.06507 0.0
C2488 C 0.7299 0.24592 0.06332 0.0
C2489 C 0.6954 0.25222 0.06333 0.0
C2490 C 0.70665 0.26548 0.06171 0.0
C2491 C 0.73534 0.27581 0.06117 0.0
C2492 C 0.75262 0.27276 0.06226 0.0
C2493 C 0.72393 0.2625 0.06189 0.0
C2494 C 0.7584 0.2562 0.06322 0.0
C2495 C 0.74715 0.2429 0.06366 0.0
H2496 H 0.55024 0.75661 0.71416 0.0
H2497 H 0.54026 0.79765 0.74768 0.0
H2498 H 0.5407 0.77856 0.77149 0.0
H2499 H 0.54767 0.75089 0.78302 0.0
H2500 H 0.55877 0.71026 0.74933 0.0
H2501 H 0.55398 0.72847 0.72539 0.0
C2502 C 0.54786 0.76135 0.72663 0.0
C2503 C 0.5455 0.77855 0.72917 0.0
C2504 C 0.54852 0.75039 0.74029 0.0
C2505 C 0.54228 0.78447 0.7454 0.0
C2506 C 0.5426 0.77357 0.75904 0.0
C2507 C 0.54875 0.74596 0.77044 0.0
C2508 C 0.55383 0.72934 0.76795 0.0
C2509 C 0.5463 0.75661 0.75669 0.0
C2510 C 0.55508 0.72309 0.75158 0.0
C2511 C 0.55236 0.73349 0.73787 0.0
H2512 H 0.22046 0.56231 0.70852 0.0
H2513 H 0.18538 0.54771 0.74674 0.0
H2514 H 0.20809 0.54562 0.76705 0.0
H2515 H 0.23745 0.55063 0.77455 0.0
H2516 H 0.27238 0.56575 0.73636 0.0
H2517 H 0.25022 0.56474 0.71542 0.0
C2518 C 0.21781 0.55849 0.72124 0.0
C2519 C 0.20124 0.5554 0.72616 0.0
C2520 C 0.23089 0.55749 0.73289 0.0
C2521 C 0.19802 0.55028 0.74265 0.0
C2522 C 0.21099 0.54912 0.75429 0.0
C2523 C 0.24026 0.55349 0.7616 0.0
C2524 C 0.25648 0.55847 0.75707 0.0
C2525 C 0.22741 0.55311 0.74965 0.0
C2526 C 0.25996 0.562 0.74022 0.0
C2527 C 0.24729 0.56148 0.72823 0.0
H2528 H 0.42148 0.23339 0.71874 0.0
H2529 H 0.43018 0.19544 0.75609 0.0
H2530 H 0.4321 0.21689 0.7777 0.0
H2531 H 0.42866 0.2461 0.78632 0.0
H2532 H 0.41919 0.28395 0.74905 0.0
H2533 H 0.42046 0.26285 0.72705 0.0
C2534 C 0.42397 0.22982 0.73158 0.0
C2535 C 0.42546 0.21284 0.73584 0.0
C2536 C 0.42486 0.24219 0.74397 0.0
C2537 C 0.42885 0.20842 0.7525 0.0
C2538 C 0.42993 0.22068 0.76488 0.0
C2539 C 0.42708 0.24977 0.77336 0.0
C2540 C 0.42363 0.26653 0.76935 0.0
C2541 C 0.42755 0.23755 0.76081 0.0
C2542 C 0.42176 0.27111 0.75249 0.0
C2543 C 0.42242 0.25905 0.7399 0.0
H2544 H 0.71356 0.41193 0.77155 0.0
H2545 H 0.75166 0.42403 0.80782 0.0
H2546 H 0.77293 0.4234 0.78597 0.0
H2547 H 0.78093 0.41791 0.75685 0.0
H2548 H 0.74291 0.40493 0.7208 0.0
H2549 H 0.7214 0.40754 0.74225 0.0
C2550 C 0.7265 0.41455 0.77465 0.0
C2551 C 0.73103 0.41794 0.79129 0.0
C2552 C 0.7387 0.41397 0.76207 0.0
C2553 C 0.74785 0.42132 0.79511 0.0
C2554 C 0.76003 0.42095 0.78263 0.0
C2555 C 0.76792 0.4158 0.75366 0.0
C2556 C 0.76354 0.41115 0.73728 0.0
C2557 C 0.75563 0.41707 0.76611 0.0
C2558 C 0.74663 0.40845 0.73334 0.0
C2559 C 0.73431 0.40992 0.7456 0.0
H2560 H 0.55431 0.21918 0.27486 0.0
H2561 H 0.54346 0.18183 0.23751 0.0
H2562 H 0.54185 0.20353 0.21603 0.0
H2563 H 0.54683 0.23274 0.20744 0.0
H2564 H 0.55884 0.26957 0.24499 0.0
H2565 H 0.55652 0.24847 0.26681 0.0
C2566 C 0.55137 0.21578 0.26206 0.0
C2567 C 0.54925 0.19891 0.25774 0.0
C2568 C 0.5508 0.22824 0.24977 0.0
C2569 C 0.54526 0.19474 0.24114 0.0
C2570 C 0.5444 0.20714 0.22884 0.0
C2571 C 0.54863 0.23618 0.22043 0.0
C2572 C 0.5532 0.25264 0.22458 0.0
C2573 C 0.54764 0.22388 0.23293 0.0
C2574 C 0.5555 0.25693 0.24146 0.0
C2575 C 0.5542 0.24488 0.25395 0.0
H2576 H 0.77353 0.55077 0.22995 0.0
H2577 H 0.7369 0.56019 0.26835 0.0
H2578 H 0.7145 0.55874 0.24766 0.0
H2579 H 0.70563 0.55777 0.21833 0.0
H2580 H 0.74238 0.54976 0.17972 0.0
H2581 H 0.76437 0.54755 0.20081 0.0
C2582 C 0.76062 0.55222 0.23383 0.0
C2583 C 0.75689 0.55573 0.25062 0.0
C2584 C 0.74783 0.55179 0.22179 0.0
C2585 C 0.7401 0.55761 0.25546 0.0
C2586 C 0.72729 0.55682 0.24363 0.0
C2587 C 0.71841 0.5553 0.21454 0.0
C2588 C 0.72239 0.55408 0.19749 0.0
C2589 C 0.73104 0.55439 0.22671 0.0
C2590 C 0.73901 0.55087 0.19278 0.0
C2591 C 0.7516 0.54962 0.20482 0.0
H2592 H 0.44031 0.7423 0.20263 0.0
H2593 H 0.42936 0.70118 0.23575 0.0
H2594 H 0.42922 0.72013 0.2596 0.0
H2595 H 0.42897 0.74869 0.27051 0.0
H2596 H 0.4392 0.79 0.23743 0.0
H2597 H 0.44306 0.77064 0.21416 0.0
C2598 C 0.43815 0.73746 0.2151 0.0
C2599 C 0.43459 0.72041 0.21738 0.0
C2600 C 0.43781 0.74847 0.22875 0.0
C2601 C 0.43196 0.71429 0.23363 0.0
C2602 C 0.43183 0.72512 0.24728 0.0
C2603 C 0.43226 0.75345 0.25826 0.0
C2604 C 0.43353 0.77076 0.25564 0.0
C2605 C 0.43423 0.74229 0.24491 0.0
C2606 C 0.43801 0.77673 0.23975 0.0
C2607 C 0.44017 0.76567 0.22641 0.0
H2608 H 0.23653 0.43663 0.19587 0.0
H2609 H 0.2779 0.42961 0.22985 0.0
H2610 H 0.25891 0.43104 0.25362 0.0
H2611 H 0.23036 0.43124 0.26455 0.0
H2612 H 0.18877 0.43732 0.23067 0.0
H2613 H 0.20805 0.43948 0.20712 0.0
C2614 C 0.24142 0.4357 0.20849 0.0
C2615 C 0.25857 0.43281 0.21108 0.0
C2616 C 0.23037 0.4362 0.22212 0.0
C2617 C 0.26472 0.43168 0.22751 0.0
C2618 C 0.25387 0.43245 0.24112 0.0
C2619 C 0.22551 0.43324 0.25204 0.0
C2620 C 0.20816 0.43389 0.24934 0.0
C2621 C 0.23663 0.43422 0.23854 0.0
C2622 C 0.20208 0.43665 0.23308 0.0
C2623 C 0.21309 0.43785 0.21959 0.0
H2624 H 0.71973 0.56195 0.75758 0.0
H2625 H 0.7558 0.55189 0.79647 0.0
H2626 H 0.77807 0.55029 0.77564 0.0
H2627 H 0.78751 0.55341 0.74654 0.0
H2628 H 0.75128 0.56358 0.70782 0.0
H2629 H 0.72887 0.5635 0.72845 0.0
C2630 C 0.73244 0.55925 0.7615 0.0
C2631 C 0.73612 0.55717 0.77855 0.0
C2632 C 0.74518 0.55851 0.7495 0.0
C2633 C 0.75263 0.55359 0.78341 0.0
C2634 C 0.76539 0.55274 0.77152 0.0
C2635 C 0.7747 0.55555 0.74263 0.0
C2636 C 0.77109 0.55863 0.7257 0.0
C2637 C 0.76185 0.55547 0.75456 0.0
C2638 C 0.75442 0.56124 0.72078 0.0
C2639 C 0.74158 0.5612 0.73257 0.0
H2640 H 0.43725 0.7532 0.71771 0.0
H2641 H 0.44206 0.79501 0.7514 0.0
H2642 H 0.44528 0.77585 0.775 0.0
H2643 H 0.44317 0.74726 0.78637 0.0
H2644 H 0.43737 0.70577 0.75238 0.0
H2645 H 0.4383 0.72475 0.72862 0.0
C2646 C 0.43924 0.75814 0.73018 0.0
C2647 C 0.43915 0.77548 0.73284 0.0
C2648 C 0.44078 0.74709 0.74368 0.0
C2649 C 0.44196 0.78169 0.74904 0.0
C2650 C 0.44373 0.77074 0.76255 0.0
C2651 C 0.44244 0.74237 0.77375 0.0
C2652 C 0.43996 0.72517 0.77114 0.0
C2653 C 0.44263 0.75342 0.76008 0.0
C2654 C 0.43907 0.71899 0.75472 0.0
C2655 C 0.43957 0.72983 0.74111 0.0
H2656 H 0.25597 0.43323 0.75102 0.0
H2657 H 0.2196 0.436 0.79069 0.0
H2658 H 0.19691 0.43452 0.77019 0.0
H2659 H 0.18755 0.43001 0.74111 0.0
H2660 H 0.22432 0.42712 0.70175 0.0
H2661 H 0.24669 0.43108 0.72203 0.0
C2662 C 0.24307 0.4337 0.75518 0.0
C2663 C 0.23947 0.43453 0.77234 0.0
C2664 C 0.23016 0.43265 0.74339 0.0
C2665 C 0.22271 0.43532 0.77753 0.0
C2666 C 0.20973 0.43438 0.76583 0.0
C2667 C 0.20046 0.43038 0.73698 0.0
C2668 C 0.20427 0.42808 0.71998 0.0
C2669 C 0.21333 0.43264 0.74875 0.0
C2670 C 0.22103 0.42874 0.71478 0.0
C2671 C 0.23385 0.43101 0.72637 0.0
H2672 H 0.55819 0.27208 0.76609 0.0
H2673 H 0.55345 0.23395 0.80389 0.0
H2674 H 0.55091 0.21256 0.78223 0.0
H2675 H 0.55197 0.20453 0.75254 0.0
H2676 H 0.55766 0.24274 0.71494 0.0
H2677 H 0.55764 0.26428 0.73652 0.0
C2678 C 0.5565 0.25911 0.7696 0.0
C2679 C 0.55615 0.2546 0.78656 0.0
C2680 C 0.55519 0.24688 0.7571 0.0
C2681 C 0.55385 0.23774 0.79091 0.0
C2682 C 0.55239 0.2255 0.77853 0.0
C2683 C 0.55295 0.21758 0.74907 0.0
C2684 C 0.5549 0.22204 0.73218 0.0
C2685 C 0.55329 0.2299 0.76158 0.0
C2686 C 0.55623 0.239 0.72787 0.0
C2687 C 0.55627 0.25132 0.7402 0.0
H2688 H 0.75416 0.43981 0.26308 0.0
H2689 H 0.79339 0.44209 0.22619 0.0
H2690 H 0.77253 0.44429 0.20394 0.0
H2691 H 0.74323 0.4417 0.19487 0.0
H2692 H 0.70424 0.43824 0.23195 0.0
H2693 H 0.72493 0.44062 0.25423 0.0
C2694 C 0.75816 0.44103 0.25019 0.0
C2695 C 0.77526 0.44048 0.24626 0.0
C2696 C 0.74613 0.44196 0.23748 0.0
C2697 C 0.78027 0.44233 0.22953 0.0
C2698 C 0.76835 0.44353 0.2168 0.0
C2699 C 0.73924 0.4418 0.20782 0.0
C2700 C 0.72226 0.43952 0.21177 0.0
C2701 C 0.75125 0.44278 0.2206 0.0
C2702 C 0.71726 0.43978 0.22859 0.0
C2703 C 0.72908 0.44109 0.24135 0.0
H2704 H 0.55762 0.78759 0.25305 0.0
H2705 H 0.57051 0.75246 0.2919 0.0
H2706 H 0.56949 0.72955 0.27177 0.0
H2707 H 0.56647 0.71972 0.24283 0.0
H2708 H 0.55365 0.75493 0.204 0.0
H2709 H 0.55291 0.77751 0.22446 0.0
C2710 C 0.56013 0.77491 0.25713 0.0
C2711 C 0.56427 0.77176 0.27391 0.0
C2712 C 0.55952 0.76179 0.24549 0.0
C2713 C 0.56736 0.75524 0.27903 0.0
C2714 C 0.56678 0.74212 0.26753 0.0
C2715 C 0.56333 0.7323 0.23887 0.0
C2716 C 0.56025 0.73564 0.22189 0.0
C2717 C 0.56308 0.74528 0.25068 0.0
C2718 C 0.55616 0.75201 0.21698 0.0
C2719 C 0.55578 0.76496 0.22867 0.0
H2720 H 0.27204 0.54829 0.22383 0.0
H2721 H 0.2358 0.54225 0.18434 0.0
H2722 H 0.21338 0.54015 0.20502 0.0
H2723 H 0.20383 0.54396 0.23412 0.0
H2724 H 0.24041 0.551 0.27321 0.0
H2725 H 0.26294 0.54856 0.25291 0.0
C2726 C 0.25926 0.54625 0.21975 0.0
C2727 C 0.25553 0.54571 0.20261 0.0
C2728 C 0.24647 0.54537 0.23165 0.0
C2729 C 0.23897 0.54281 0.19749 0.0
C2730 C 0.22614 0.5417 0.2093 0.0
C2731 C 0.21674 0.54461 0.23822 0.0
C2732 C 0.22044 0.54793 0.25509 0.0
C2733 C 0.22968 0.54355 0.2264 0.0
C2734 C 0.23723 0.54867 0.26025 0.0
C2735 C 0.25013 0.54731 0.24866 0.0
H2736 H 0.43555 0.22592 0.26736 0.0
H2737 H 0.44103 0.18661 0.23086 0.0
H2738 H 0.4432 0.20738 0.20857 0.0
H2739 H 0.43989 0.23653 0.19919 0.0
H2740 H 0.43301 0.27547 0.23586 0.0
H2741 H 0.43522 0.25504 0.25834 0.0
C2742 C 0.43748 0.22188 0.25456 0.0
C2743 C 0.43786 0.20476 0.25074 0.0
C2744 C 0.43832 0.23384 0.24181 0.0
C2745 C 0.44054 0.19973 0.23412 0.0
C2746 C 0.44173 0.2116 0.22136 0.0
C2747 C 0.43921 0.24056 0.21211 0.0
C2748 C 0.43607 0.25743 0.21587 0.0
C2749 C 0.44008 0.22867 0.225 0.0
C2750 C 0.43522 0.2625 0.23266 0.0
C2751 C 0.43646 0.25083 0.24553 0.0
H2752 H 0.76708 0.70946 0.56179 0.0
H2753 H 0.8033 0.74615 0.54607 0.0
H2754 H 0.78179 0.76781 0.54648 0.0
H2755 H 0.75332 0.77679 0.55387 0.0
H2756 H 0.71746 0.74012 0.57043 0.0
H2757 H 0.73815 0.71801 0.56699 0.0
C2758 C 0.77023 0.72215 0.55824 0.0
C2759 C 0.7868 0.72621 0.55409 0.0
C2760 C 0.75788 0.7346 0.55877 0.0
C2761 C 0.79066 0.7427 0.54944 0.0
C2762 C 0.77837 0.75512 0.54971 0.0
C2763 C 0.74998 0.76394 0.55652 0.0
C2764 C 0.73394 0.76014 0.56258 0.0
C2765 C 0.76204 0.75129 0.55475 0.0
C2766 C 0.72977 0.74341 0.56589 0.0
C2767 C 0.7416 0.73075 0.56394 0.0
H2768 H 0.78837 0.24092 0.42879 0.0
H2769 H 0.75338 0.27956 0.41478 0.0
H2770 H 0.73036 0.25974 0.41664 0.0
H2771 H 0.72047 0.23104 0.41982 0.0
H2772 H 0.75531 0.19203 0.43307 0.0
H2773 H 0.77802 0.21242 0.43414 0.0
C2774 C 0.77568 0.24504 0.42635 0.0
C2775 C 0.77263 0.26165 0.42148 0.0
C2776 C 0.76248 0.2335 0.42722 0.0
C2777 C 0.7561 0.26681 0.41841 0.0
C2778 C 0.74291 0.25548 0.41946 0.0
C2779 C 0.73299 0.22701 0.42313 0.0
C2780 C 0.73622 0.21002 0.42618 0.0
C2781 C 0.74601 0.23873 0.42347 0.0
C2782 C 0.7525 0.20503 0.43057 0.0
C2783 C 0.76551 0.21668 0.43114 0.0
H2784 H 0.79303 0.74641 0.43782 0.0
H2785 H 0.75688 0.70706 0.43057 0.0
H2786 H 0.73411 0.72709 0.43356 0.0
H2787 H 0.72458 0.75607 0.4351 0.0
H2788 H 0.76058 0.79571 0.44135 0.0
H2789 H 0.78326 0.77527 0.44205 0.0
C2790 C 0.78017 0.74218 0.43719 0.0
C2791 C 0.77665 0.72532 0.43378 0.0
C2792 C 0.76711 0.75384 0.43856 0.0
C2793 C 0.75992 0.72002 0.43303 0.0
C2794 C 0.74688 0.73146 0.43469 0.0
C2795 C 0.73736 0.76024 0.43682 0.0
C2796 C 0.7409 0.77739 0.43793 0.0
C2797 C 0.75034 0.74846 0.43695 0.0
C2798 C 0.75753 0.78257 0.44032 0.0
C2799 C 0.77051 0.77089 0.44069 0.0
H2800 H 0.20181 0.75032 0.43492 0.0
H2801 H 0.23553 0.71129 0.41908 0.0
H2802 H 0.25934 0.72974 0.42347 0.0
H2803 H 0.27033 0.7576 0.42908 0.0
H2804 H 0.23683 0.79714 0.44404 0.0
H2805 H 0.21324 0.77777 0.44299 0.0
C2806 C 0.21438 0.74581 0.43264 0.0
C2807 C 0.21688 0.72955 0.42647 0.0
C2808 C 0.22805 0.75658 0.43496 0.0
C2809 C 0.23325 0.72382 0.42365 0.0
C2810 C 0.24689 0.73436 0.42616 0.0
C2811 C 0.2579 0.76195 0.43234 0.0
C2812 C 0.25531 0.77883 0.43642 0.0
C2813 C 0.2444 0.75087 0.43139 0.0
C2814 C 0.23916 0.78422 0.44075 0.0
C2815 C 0.22564 0.77317 0.44009 0.0
H2816 H 0.26764 0.23907 0.42243 0.0
H2817 H 0.23458 0.19736 0.4309 0.0
H2818 H 0.21151 0.21655 0.43656 0.0
H2819 H 0.20014 0.24512 0.4362 0.0
H2820 H 0.23326 0.28666 0.42701 0.0
H2821 H 0.25692 0.2676 0.42476 0.0
C2822 C 0.25543 0.23417 0.4257 0.0
C2823 C 0.25276 0.21683 0.426 0.0
C2824 C 0.24221 0.24525 0.42873 0.0
C2825 C 0.23693 0.21067 0.43045 0.0
C2826 C 0.22372 0.22164 0.43365 0.0
C2827 C 0.21258 0.25001 0.43397 0.0
C2828 C 0.2149 0.26725 0.43154 0.0
C2829 C 0.22611 0.23895 0.4324 0.0
C2830 C 0.2311 0.27342 0.42876 0.0
C2831 C 0.24465 0.26253 0.42743 0.0
H2832 H 0.22846 0.25636 0.56686 0.0
H2833 H 0.19173 0.21809 0.55709 0.0
H2834 H 0.21389 0.19741 0.55377 0.0
H2835 H 0.24358 0.18986 0.55504 0.0
H2836 H 0.28037 0.22801 0.5649 0.0
H2837 H 0.25832 0.24905 0.56671 0.0
C2838 C 0.22531 0.24352 0.56388 0.0
C2839 C 0.20846 0.23877 0.56234 0.0
C2840 C 0.23812 0.23164 0.56207 0.0
C2841 C 0.2046 0.22209 0.55841 0.0
C2842 C 0.21726 0.21023 0.55653 0.0
C2843 C 0.24678 0.20279 0.55749 0.0
C2844 C 0.26357 0.20734 0.55994 0.0
C2845 C 0.23404 0.21482 0.55856 0.0
C2846 C 0.26753 0.22417 0.56301 0.0
C2847 C 0.25492 0.23621 0.56407 0.0
H2848 H 0.75758 0.26752 0.55064 0.0
H2849 H 0.79572 0.23111 0.53926 0.0
H2850 H 0.77453 0.20916 0.53784 0.0
H2851 H 0.74562 0.19989 0.54289 0.0
H2852 H 0.70782 0.23642 0.55512 0.0
H2853 H 0.72842 0.25874 0.55299 0.0
C2854 C 0.76125 0.25482 0.54763 0.0
C2855 C 0.77822 0.25091 0.5453 0.0
C2856 C 0.74907 0.24225 0.54712 0.0
C2857 C 0.78274 0.23443 0.54123 0.0
C2858 C 0.77064 0.22186 0.54047 0.0
C2859 C 0.74185 0.21276 0.54486 0.0
C2860 C 0.72526 0.21646 0.54939 0.0
C2861 C 0.75383 0.22555 0.54387 0.0
C2862 C 0.72054 0.23321 0.55178 0.0
C2863 C 0.73232 0.24599 0.5506 0.0
H2864 H 0.26472 0.7583 0.56334 0.0
H2865 H 0.23159 0.80079 0.56043 0.0
H2866 H 0.20743 0.78218 0.55972 0.0
H2867 H 0.19563 0.75387 0.56167 0.0
H2868 H 0.22889 0.71147 0.56444 0.0
H2869 H 0.25303 0.73002 0.56345 0.0
C2870 C 0.25222 0.76349 0.56239 0.0
C2871 C 0.24996 0.78089 0.56208 0.0
C2872 C 0.23838 0.75274 0.5621 0.0
C2873 C 0.23369 0.78742 0.56075 0.0
C2874 C 0.21985 0.7768 0.5604 0.0
C2875 C 0.20816 0.7487 0.56198 0.0
C2876 C 0.21045 0.73134 0.56327 0.0
C2877 C 0.22203 0.75944 0.56137 0.0
C2878 C 0.22677 0.7248 0.56351 0.0
C2879 C 0.2406 0.7354 0.56296 0.0
H2880 H 0.02107 0.16222 0.33358 0.0
H2881 H 0.02353 0.20881 0.36058 0.0
H2882 H -0.0069 0.20942 0.36264 0.0
H2883 H 0.96628 0.20032 0.35066 0.0
H2884 H 0.9642 0.15476 0.32188 0.0
H2885 H -0.00613 0.14997 0.32693 0.0
C2886 C 0.01498 0.17224 0.34038 0.0
C2887 C 0.02449 0.18569 0.34646 0.0
C2888 C -0.00253 0.17285 0.34092 0.0
C2889 C 0.01647 0.1984 0.35556 0.0
C2890 C -0.00096 0.19884 0.35661 0.0
C2891 C 0.97219 0.18906 0.34597 0.0
C2892 C 0.96319 0.17816 0.33552 0.0
C2893 C 0.98943 0.1867 0.3484 0.0
C2894 C 0.97096 0.16352 0.32969 0.0
C2895 C 0.98795 0.1608 0.33251 0.0
H2896 H 0.79509 0.97061 0.35261 0.0
H2897 H 0.83748 0.96308 0.32015 0.0
H2898 H 0.84307 -0.007 0.3202 0.0
H2899 H 0.83203 0.02124 0.32412 0.0
H2900 H 0.78844 0.02888 0.35489 0.0
H2901 H 0.78748 -0.00092 0.36121 0.0
C2902 C 0.80587 0.97546 0.34599 0.0
C2903 C 0.81558 0.96472 0.33603 0.0
C2904 C 0.80864 -0.00723 0.34554 0.0
C2905 C 0.82962 0.97114 0.32768 0.0
C2906 C 0.83279 0.98827 0.32762 0.0
C2907 C 0.82261 0.01647 0.3326 0.0
C2908 C 0.81005 0.02716 0.33863 0.0
C2909 C 0.82176 -0.00075 0.33567 0.0
C2910 C 0.79812 0.02086 0.34986 0.0
C2911 C 0.79749 0.00378 0.35339 0.0
H2912 H 0.96183 0.7894 0.33914 0.0
H2913 H 0.95698 0.83137 0.30562 0.0
H2914 H 0.98664 0.83754 0.30878 0.0
H2915 H 0.01453 0.82767 0.31649 0.0
H2916 H 0.01982 0.78473 0.34864 0.0
H2917 H 0.98946 0.78259 0.35099 0.0
C2918 C 0.96717 0.80016 0.3329 0.0
C2919 C 0.9573 0.80968 0.32187 0.0
C2920 C 0.98439 0.80336 0.33438 0.0
C2921 C 0.96437 0.82367 0.31397 0.0
C2922 C 0.98136 0.82719 0.31573 0.0
C2923 C 0.00906 0.81812 0.32439 0.0
C2924 C 0.0194 0.80615 0.33206 0.0
C2925 C 0.99161 0.81661 0.3252 0.0
C2926 C 0.01214 0.79401 0.34246 0.0
C2927 C -0.00525 0.79269 0.34369 0.0
H2928 H 0.19426 0.02 0.35186 0.0
H2929 H 0.14991 0.02284 0.32122 0.0
H2930 H 0.14753 0.99247 0.32152 0.0
H2931 H 0.16149 0.9655 0.32525 0.0
H2932 H 0.20684 0.96261 0.35438 0.0
H2933 H 0.20524 0.99253 0.36013 0.0
C2934 C 0.18375 0.01401 0.34573 0.0
C2935 C 0.1725 0.02361 0.33621 0.0
C2936 C 0.18285 -0.00351 0.34538 0.0
C2937 C 0.15888 0.01569 0.32843 0.0
C2938 C 0.15758 -0.00169 0.32849 0.0
C2939 C 0.17081 0.97135 0.33319 0.0
C2940 C 0.18449 0.96196 0.33902 0.0
C2941 C 0.17005 0.98861 0.33607 0.0
C2942 C 0.19629 0.96961 0.34956 0.0
C2943 C 0.19543 0.98675 0.35279 0.0
H2944 H 0.02353 0.79455 0.64618 0.0
H2945 H 0.02644 0.83317 0.68373 0.0
H2946 H -0.00368 0.83755 0.68177 0.0
H2947 H 0.96896 0.82645 0.67369 0.0
H2948 H 0.96592 0.78647 0.63762 0.0
H2949 H -0.00374 0.78684 0.63444 0.0
C2950 C 0.01765 0.80425 0.6536 0.0
C2951 C 0.02715 0.81325 0.66536 0.0
C2952 C 0.00024 0.80628 0.65286 0.0
C2953 C 0.01938 0.8259 0.67475 0.0
C2954 C 0.00213 0.82835 0.67371 0.0
C2955 C 0.97489 0.8181 0.66481 0.0
C2956 C 0.96524 0.80618 0.65621 0.0
C2957 C 0.99236 0.81799 0.66348 0.0
C2958 C 0.97308 0.79563 0.64456 0.0
C2959 C 0.99045 0.79576 0.64281 0.0
H2960 H 0.1646 0.02132 0.65294 0.0
H2961 H 0.20784 0.01946 0.62083 0.0
H2962 H 0.20561 0.9891 0.61927 0.0
H2963 H 0.19597 0.96344 0.633 0.0
H2964 H 0.15432 0.9656 0.66717 0.0
H2965 H 0.15109 -0.00462 0.66168 0.0
C2966 C 0.17322 0.01432 0.64516 0.0
C2967 C 0.18669 0.02253 0.63748 0.0
C2968 C 0.17233 -0.00315 0.64498 0.0
C2969 C 0.19751 0.01339 0.62711 0.0
C2970 C 0.19634 -0.00401 0.62634 0.0
C2971 C 0.18585 0.97031 0.63884 0.0
C2972 C 0.17574 0.96247 0.65088 0.0
C2973 C 0.18451 0.98758 0.63616 0.0
C2974 C 0.1625 0.97145 0.65812 0.0
C2975 C 0.16069 0.9885 0.65504 0.0
H2976 H 0.96259 0.15552 0.67335 0.0
H2977 H 0.96518 0.19395 0.63565 0.0
H2978 H -0.00488 0.18897 0.63245 0.0
H2979 H 0.02106 0.17816 0.64488 0.0
H2980 H 0.01844 0.1409 0.68379 0.0
H2981 H 0.98804 0.14064 0.68168 0.0
C2982 C 0.96963 0.16249 0.6641 0.0
C2983 C 0.9618 0.17538 0.65508 0.0
C2984 C 0.9869 0.15991 0.66271 0.0
C2985 C 0.97096 0.18409 0.6429 0.0
C2986 C 0.98812 0.18132 0.64115 0.0
C2987 C 0.01387 0.16961 0.65255 0.0
C2988 C 0.02197 0.15991 0.66481 0.0
C2989 C -0.00365 0.16994 0.65168 0.0
C2990 C 0.01251 0.14871 0.67445 0.0
C2991 C -0.00491 0.14862 0.67333 0.0
H2992 H 0.82193 0.02696 0.6684 0.0
H2993 H 0.78189 0.03376 0.63284 0.0
H2994 H 0.78236 0.00396 0.62637 0.0
H2995 H 0.79083 0.97555 0.63442 0.0
H2996 H 0.82997 0.96881 0.671 0.0
H2997 H 0.83334 -0.00101 0.67324 0.0
C2998 C 0.81355 0.02199 0.65896 0.0
C2999 C 0.80167 0.03249 0.65137 0.0
C3000 C 0.81359 0.00479 0.65563 0.0
C3001 C 0.79105 0.02591 0.639 0.0
C3002 C 0.79125 0.00884 0.63535 0.0
C3003 C 0.80036 0.98067 0.64259 0.0
C3004 C 0.8099 0.96996 0.65277 0.0
C3005 C 0.80195 -0.00193 0.64414 0.0
C3006 C 0.82231 0.97679 0.66318 0.0
C3007 C 0.82421 -0.00594 0.66452 0.0
H3008 H 0.34851 0.96963 0.19066 0.0
H3009 H 0.30732 0.96107 0.15682 0.0
H3010 H 0.30463 0.99106 0.15217 0.0
H3011 H 0.31049 0.0195 0.16187 0.0
H3012 H 0.35068 0.02797 0.19692 0.0
H3013 H 0.35748 -0.00173 0.19663 0.0
C3014 C 0.3392 0.9743 0.18196 0.0
C3015 C 0.32787 0.9632 0.17442 0.0
C3016 C 0.33742 0.99157 0.1797 0.0
C3017 C 0.31605 0.96939 0.16298 0.0
C3018 C 0.31445 0.98655 0.16036 0.0
C3019 C 0.321 0.01491 0.16912 0.0
C3020 C 0.3298 0.02583 0.1797 0.0
C3021 C 0.32452 -0.00224 0.1693 0.0
C3022 C 0.34354 0.01977 0.18885 0.0
C3023 C 0.34739 0.00277 0.18876 0.0
H3024 H 0.96613 0.3525 0.1851 0.0
H3025 H 0.96217 0.3119 0.14982 0.0
H3026 H 0.99245 0.31149 0.14659 0.0
H3027 H 0.01964 0.31775 0.15925 0.0
H3028 H 0.02355 0.35708 0.19592 0.0
H3029 H -0.00616 0.36317 0.19283 0.0
C3030 C 0.97184 0.34396 0.17625 0.0
C3031 C 0.96199 0.33188 0.16814 0.0
C3032 C 0.98933 0.34333 0.17497 0.0
C3033 C 0.96953 0.3211 0.1565 0.0
C3034 C 0.98687 0.32077 0.15472 0.0
C3035 C 0.01409 0.32799 0.16618 0.0
C3036 C 0.02363 0.33658 0.17818 0.0
C3037 C -0.00311 0.33104 0.16477 0.0
C3038 C 0.0164 0.35007 0.1868 0.0
C3039 C -0.00064 0.3535 0.18513 0.0
H3040 H 0.66631 0.96306 0.16554 0.0
H3041 H 0.62867 0.96388 0.2041 0.0
H3042 H 0.62587 -0.00593 0.20102 0.0
H3043 H 0.63876 0.02042 0.19199 0.0
H3044 H 0.67749 0.01948 0.1545 0.0
H3045 H 0.67494 0.98924 0.15229 0.0
C3046 C 0.65714 0.96977 0.17293 0.0
C3047 C 0.64806 0.96132 0.18535 0.0
C3048 C 0.65598 0.9872 0.17147 0.0
C3049 C 0.63599 0.97012 0.1946 0.0
C3050 C 0.63447 0.98743 0.19294 0.0
C3051 C 0.64627 0.01366 0.18296 0.0
C3052 C 0.65862 0.02212 0.17377 0.0
C3053 C 0.64512 -0.00382 0.18212 0.0
C3054 C 0.6681 0.01323 0.16195 0.0
C3055 C 0.66671 -0.0041 0.16073 0.0
H3056 H 0.02337 0.66248 0.16257 0.0
H3057 H 0.03086 0.62744 0.20288 0.0
H3058 H 0.00109 0.62071 0.2027 0.0
H3059 H 0.97252 0.62867 0.19459 0.0
H3060 H 0.96512 0.66466 0.15509 0.0
H3061 H -0.00474 0.66691 0.15129 0.0
C3062 C 0.01857 0.65307 0.17105 0.0
C3063 C 0.02923 0.64574 0.18296 0.0
C3064 C 0.00139 0.6496 0.17119 0.0
C3065 C 0.02288 0.63339 0.19369 0.0
C3066 C 0.00583 0.62961 0.19368 0.0
C3067 C 0.97749 0.6367 0.18489 0.0
C3068 C 0.96661 0.64675 0.17539 0.0
C3069 C -0.00513 0.63824 0.18303 0.0
C3070 C 0.97323 0.65695 0.16273 0.0
C3071 C 0.99048 0.6583 0.16058 0.0
H3072 H 0.32086 0.9656 0.82793 0.0
H3073 H 0.35848 0.96392 0.78938 0.0
H3074 H 0.36116 -0.00574 0.79045 0.0
H3075 H 0.34798 0.02107 0.79751 0.0
H3076 H 0.30898 0.02254 0.8347 0.0
H3077 H 0.31196 0.99258 0.83926 0.0
C3078 C 0.33001 0.97183 0.82011 0.0
C3079 C 0.33909 0.9626 0.80825 0.0
C3080 C 0.33103 0.98931 0.82036 0.0
C3081 C 0.35114 0.97077 0.79845 0.0
C3082 C 0.35259 0.98816 0.79896 0.0
C3083 C 0.3405 0.01494 0.80699 0.0
C3084 C 0.32794 0.02391 0.8154 0.0
C3085 C 0.34185 -0.00242 0.80912 0.0
C3086 C 0.31853 0.01585 0.82783 0.0
C3087 C 0.32016 -0.00132 0.83039 0.0
H3088 H 0.03963 0.34622 0.79025 0.0
H3089 H 0.03939 0.31061 0.83074 0.0
H3090 H 0.00946 0.31499 0.8346 0.0
H3091 H 0.98286 0.32455 0.82278 0.0
H3092 H 0.98291 0.35866 0.78101 0.0
H3093 H 0.0134 0.35949 0.78155 0.0
C3094 C 0.03313 0.33977 0.80023 0.0
C3095 C 0.04163 0.32784 0.80995 0.0
C3096 C 0.01581 0.34188 0.80197 0.0
C3097 C 0.03307 0.3197 0.82293 0.0
C3098 C 0.01593 0.32212 0.82509 0.0
C3099 C 0.98952 0.33249 0.81406 0.0
C3100 C 0.98066 0.34122 0.80162 0.0
C3101 C 0.00705 0.33249 0.81409 0.0
C3102 C 0.98945 0.35163 0.79056 0.0
C3103 C 0.0069 0.35206 0.79081 0.0
H3104 H 0.63472 0.01837 0.78889 0.0
H3105 H 0.67113 0.02305 0.82848 0.0
H3106 H 0.67294 -0.00727 0.83071 0.0
H3107 H 0.66786 0.96533 0.81811 0.0
H3108 H 0.63244 0.96066 0.77764 0.0
H3109 H 0.62636 0.9905 0.77925 0.0
C3110 C 0.64274 0.01276 0.79828 0.0
C3111 C 0.65303 0.02292 0.80825 0.0
C3112 C 0.64408 -0.00469 0.79918 0.0
C3113 C 0.66324 0.01549 0.82049 0.0
C3114 C 0.66435 -0.00185 0.82172 0.0
C3115 C 0.65857 0.97078 0.80986 0.0
C3116 C 0.65089 0.9609 0.79754 0.0
C3117 C 0.65542 0.98798 0.8106 0.0
C3118 C 0.63868 0.96805 0.78712 0.0
C3119 C 0.63524 0.98513 0.78798 0.0
H3120 H 0.96193 0.63177 0.79623 0.0
H3121 H 0.95385 0.6694 0.834 0.0
H3122 H 0.98344 0.66878 0.84126 0.0
H3123 H 0.01199 0.66232 0.83245 0.0
H3124 H 0.02032 0.62606 0.79343 0.0
H3125 H 0.99032 0.62098 0.79148 0.0
C3126 C 0.96655 0.63947 0.80638 0.0
C3127 C 0.95581 0.65095 0.81423 0.0
C3128 C 0.98371 0.63945 0.81014 0.0
C3129 C 0.96193 0.66068 0.82753 0.0
C3130 C 0.97888 0.66038 0.83166 0.0
C3131 C 0.0073 0.65292 0.82388 0.0
C3132 C 0.01832 0.64495 0.81277 0.0
C3133 C 0.98999 0.65055 0.82237 0.0
C3134 C 0.01208 0.63257 0.80197 0.0
C3135 C -0.00511 0.62976 0.80074 0.0
H3136 H 0.15947 0.30936 0.02571 0.0
H3137 H 0.19485 0.34875 0.03597 0.0
H3138 H 0.19471 0.35672 0.00654 0.0
H3139 H 0.18874 0.34896 0.9775 0.0
H3140 H 0.15463 0.30849 0.96714 0.0
H3141 H 0.14978 0.30475 -0.003 0.0
C3142 C 0.16685 0.31994 0.02159 0.0
C3143 C 0.17745 0.32819 0.03293 0.0
C3144 C 0.16708 0.32415 0.00457 0.0
C3145 C 0.18674 0.34204 0.02745 0.0
C3146 C 0.18673 0.34656 0.01059 0.0
C3147 C 0.17991 0.33961 0.98175 0.0
C3148 C 0.17236 0.32877 0.97015 0.0
C3149 C 0.17759 0.33717 -0.00105 0.0
C3150 C 0.16078 0.31686 0.97583 0.0
C3151 C 0.15807 0.31464 -0.00708 0.0
H3152 H 0.16203 0.66833 0.95682 0.0
H3153 H 0.19863 0.629 0.95194 0.0
H3154 H 0.19682 0.62334 0.98185 0.0
H3155 H 0.18901 0.63332 0.0098 0.0
H3156 H 0.15347 0.67364 0.01464 0.0
H3157 H 0.15051 0.67496 0.98435 0.0
C3158 C 0.1693 0.65823 0.96222 0.0
C3159 C 0.18074 0.64938 0.95227 0.0
C3160 C 0.16858 0.65539 0.97949 0.0
C3161 C 0.18986 0.63614 0.95937 0.0
C3162 C 0.18893 0.63297 0.97651 0.0
C3163 C 0.18032 0.64212 0.00425 0.0
C3164 C 0.17179 0.65364 0.01442 0.0
C3165 C 0.17898 0.64311 0.98679 0.0
C3166 C 0.16039 0.66481 0.00707 0.0
C3167 C 0.15872 0.66562 0.98973 0.0
H3168 H 0.35211 0.19459 0.01292 0.0
H3169 H 0.31601 0.15506 0.01938 0.0
H3170 H 0.31455 0.15114 0.98921 0.0
H3171 H 0.3194 0.16258 0.96128 0.0
H3172 H 0.35446 0.203 0.95476 0.0
H3173 H 0.36076 0.20262 0.98461 0.0
C3174 C 0.34423 0.18485 0.00775 0.0
C3175 C 0.33387 0.17542 0.01833 0.0
C3176 C 0.34313 0.18293 0.99035 0.0
C3177 C 0.32391 0.16268 0.01147 0.0
C3178 C 0.32302 0.16045 -0.00579 0.0
C3179 C 0.32874 0.17102 0.96631 0.0
C3180 C 0.33613 0.18307 0.95592 0.0
C3181 C 0.33193 0.17107 0.98354 0.0
C3182 C 0.34842 0.19373 0.96255 0.0
C3183 C 0.35196 0.19361 0.97965 0.0
H3184 H 0.7988 0.34713 0.96721 0.0
H3185 H 0.84047 0.31284 0.96735 0.0
H3186 H 0.84072 0.31291 -0.00219 0.0
H3187 H 0.82575 0.31846 0.02394 0.0
H3188 H 0.78333 0.3518 0.02378 0.0
H3189 H 0.7869 0.35655 -0.00613 0.0
C3190 C 0.80823 0.34004 0.9739 0.0
C3191 C 0.81935 0.3297 0.96503 0.0
C3192 C 0.808 0.33974 0.99143 0.0
C3193 C 0.83161 0.32072 0.97387 0.0
C3194 C 0.83171 0.32067 0.99131 0.0
C3195 C 0.81751 0.32706 0.01743 0.0
C3196 C 0.80407 0.33446 0.02597 0.0
C3197 C 0.81941 0.32945 0.00018 0.0
C3198 C 0.79367 0.34578 0.01745 0.0
C3199 C 0.79565 0.34845 0.00032 0.0
H3200 H 0.67157 0.82725 0.02765 0.0
H3201 H 0.63538 0.78799 0.03508 0.0
H3202 H 0.62735 0.7895 0.00572 0.0
H3203 H 0.63396 0.79867 0.97724 0.0
H3204 H 0.67071 0.83737 0.96964 0.0
H3205 H 0.67489 0.83962 -0.00023 0.0
C3206 C 0.66168 0.81927 0.02292 0.0
C3207 C 0.65434 0.80729 0.03345 0.0
C3208 C 0.65732 0.81999 0.00594 0.0
C3209 C 0.64138 0.7972 0.0272 0.0
C3210 C 0.63681 0.798 0.01038 0.0
C3211 C 0.6426 0.80787 0.98219 0.0
C3212 C 0.65225 0.81758 0.97121 0.0
C3213 C 0.64521 0.80885 -0.00049 0.0
C3214 C 0.66324 0.8296 0.97782 0.0
C3215 C 0.66572 0.83084 -0.00495 0.0
H3216 H 0.79946 0.63981 0.00914 0.0
H3217 H 0.82865 0.68363 0.02074 0.0
H3218 H 0.83251 0.68911 0.99099 0.0
H3219 H 0.82295 0.68447 0.9622 0.0
H3220 H 0.79263 0.64134 0.95081 0.0
H3221 H 0.79418 0.63239 0.97989 0.0
C3222 C 0.80701 0.65034 0.00516 0.0
C3223 C 0.81342 0.66152 0.0171 0.0
C3224 C 0.80881 0.65365 0.98805 0.0
C3225 C 0.82341 0.67493 0.01179 0.0
C3226 C 0.82555 0.67813 -0.00524 0.0
C3227 C 0.81703 0.67288 0.96598 0.0
C3228 C 0.80734 0.66381 0.95445 0.0
C3229 C 0.81758 0.66805 0.98283 0.0
C3230 C 0.79997 0.64869 0.95949 0.0
C3231 C 0.80077 0.6436 0.97615 0.0
H3232 H 0.34636 0.78511 0.02085 0.0
H3233 H 0.3109 0.82555 0.02525 0.0
H3234 H 0.3135 0.83136 -0.00453 0.0
H3235 H 0.32198 0.82184 0.96768 0.0
H3236 H 0.3563 0.7805 0.96293 0.0
H3237 H 0.35835 0.77848 -0.00668 0.0
C3238 C 0.3395 0.79544 0.01537 0.0
C3239 C 0.3282 0.80466 0.0252 0.0
C3240 C 0.34074 0.79848 -0.00189 0.0
C3241 C 0.31952 0.8181 0.01793 0.0
C3242 C 0.32096 0.82142 0.00087 0.0
C3243 C 0.33025 0.81266 0.97327 0.0
C3244 C 0.33871 0.80113 0.96305 0.0
C3245 C 0.33095 0.81121 0.99074 0.0
C3246 C 0.34953 0.78945 0.9705 0.0
C3247 C 0.35061 0.78819 0.9879 0.0
H3248 H 0.67358 0.16553 0.96431 0.0
H3249 H 0.63711 0.20461 0.95693 0.0
H3250 H 0.62966 0.20348 0.98646 0.0
H3251 H 0.63718 0.195 0.01499 0.0
H3252 H 0.67448 0.1567 0.02239 0.0
H3253 H 0.67766 0.15371 0.99225 0.0
C3254 C 0.66372 0.17353 0.96907 0.0
C3255 C 0.65619 0.18539 0.95853 0.0
C3256 C 0.65978 0.1731 0.98614 0.0
C3257 C 0.64327 0.1955 0.96483 0.0
C3258 C 0.63904 0.19493 0.98175 0.0
C3259 C 0.64569 0.1857 0.01001 0.0
C3260 C 0.65584 0.17636 0.02091 0.0
C3261 C 0.64778 0.18433 0.99264 0.0
C3262 C 0.66668 0.16423 0.01426 0.0
C3263 C 0.66857 0.16255 -0.00298 0.0
H3264 H 0.47394 0.68992 0.84854 0.0
H3265 H 0.46998 0.65035 0.81212 0.0
H3266 H 0.50025 0.64695 0.81223 0.0
H3267 H 0.52759 0.65963 0.81771 0.0
H3268 H 0.53153 0.70026 0.85294 0.0
H3269 H 0.50164 0.69854 0.85856 0.0
C3270 C 0.47965 0.6802 0.84103 0.0
C3271 C 0.46977 0.67075 0.82998 0.0
C3272 C 0.49713 0.67868 0.84072 0.0
C3273 C 0.47733 0.65801 0.82052 0.0
C3274 C 0.49467 0.65612 0.82049 0.0
C3275 C 0.52201 0.66778 0.82699 0.0
C3276 C 0.53167 0.68037 0.83452 0.0
C3277 C 0.50471 0.66708 0.82976 0.0
C3278 C 0.52432 0.69063 0.84675 0.0
C3279 C 0.50718 0.68972 0.8499 0.0
H3280 H 0.29047 0.52784 0.83602 0.0
H3281 H 0.33171 0.52606 0.80133 0.0
H3282 H 0.33351 0.49586 0.80466 0.0
H3283 H 0.31929 0.4699 0.81234 0.0
H3284 H 0.2771 0.47149 0.84582 0.0
H3285 H 0.28 0.50175 0.84836 0.0
C3286 C 0.3002 0.52091 0.82961 0.0
C3287 C 0.31063 0.5291 0.81808 0.0
C3288 C 0.3008 0.50345 0.83114 0.0
C3289 C 0.32331 0.52 0.81004 0.0
C3290 C 0.3243 0.5027 0.81186 0.0
C3291 C 0.31102 0.47682 0.82056 0.0
C3292 C 0.29773 0.46857 0.82851 0.0
C3293 C 0.31246 0.49424 0.82157 0.0
C3294 C 0.28731 0.4776 0.83939 0.0
C3295 C 0.28889 0.49493 0.84076 0.0
H3296 H 0.50745 0.29565 0.85404 0.0
H3297 H 0.51839 0.33539 0.81927 0.0
H3298 H 0.4887 0.34183 0.81691 0.0
H3299 H 0.45976 0.33266 0.82053 0.0
H3300 H 0.44871 0.29203 0.85419 0.0
H3301 H 0.47825 0.28978 0.86151 0.0
C3302 C 0.50337 0.30598 0.84626 0.0
C3303 C 0.51506 0.31476 0.83654 0.0
C3304 C 0.48622 0.30936 0.84463 0.0
C3305 C 0.50961 0.32826 0.82669 0.0
C3306 C 0.49262 0.33192 0.82529 0.0
C3307 C 0.46375 0.3236 0.82981 0.0
C3308 C 0.45213 0.31227 0.8365 0.0
C3309 C 0.4808 0.32202 0.83355 0.0
C3310 C 0.45744 0.30078 0.84869 0.0
C3311 C 0.47436 0.2994 0.8528 0.0
H3312 H 0.69101 0.4712 0.85996 0.0
H3313 H 0.65561 0.46322 0.82 0.0
H3314 H 0.65214 0.49333 0.81678 0.0
H3315 H 0.66326 0.52143 0.82168 0.0
H3316 H 0.6997 0.52929 0.86074 0.0
H3317 H 0.69838 0.49977 0.86818 0.0
C3318 C 0.68224 0.47604 0.85082 0.0
C3319 C 0.67389 0.46502 0.83997 0.0
C3320 C 0.68064 0.49336 0.84873 0.0
C3321 C 0.66236 0.47145 0.82837 0.0
C3322 C 0.66043 0.48868 0.82645 0.0
C3323 C 0.6706 0.51678 0.8321 0.0
C3324 C 0.68186 0.52744 0.84037 0.0
C3325 C 0.67014 0.49971 0.836 0.0
C3326 C 0.69109 0.52129 0.85401 0.0
C3327 C 0.69042 0.50438 0.85822 0.0
H3328 H 0.46838 0.32943 0.17922 0.0
H3329 H 0.46523 0.29709 0.13617 0.0
H3330 H 0.49561 0.29707 0.13376 0.0
H3331 H 0.52258 0.3007 0.14792 0.0
H3332 H 0.52552 0.33152 0.1921 0.0
H3333 H 0.49582 0.33793 0.18981 0.0
C3334 C 0.4743 0.32281 0.16898 0.0
C3335 C 0.46461 0.31286 0.15822 0.0
C3336 C 0.4918 0.3223 0.16807 0.0
C3337 C 0.47243 0.30461 0.14483 0.0
C3338 C 0.48983 0.30448 0.14351 0.0
C3339 C 0.51683 0.3092 0.15677 0.0
C3340 C 0.52611 0.3152 0.17044 0.0
C3341 C 0.49962 0.3124 0.15571 0.0
C3342 C 0.51857 0.32646 0.18163 0.0
C3343 C 0.50155 0.33008 0.18038 0.0
H3344 H 0.6489 0.4637 0.16465 0.0
H3345 H 0.68649 0.45705 0.12658 0.0
H3346 H 0.68438 0.48654 0.11915 0.0
H3347 H 0.67689 0.51486 0.12812 0.0
H3348 H 0.64105 0.52165 0.16782 0.0
H3349 H 0.63716 0.49149 0.16968 0.0
C3350 C 0.65627 0.46858 0.15438 0.0
C3351 C 0.66819 0.45833 0.14651 0.0
C3352 C 0.65551 0.48568 0.15066 0.0
C3353 C 0.67741 0.46475 0.13303 0.0
C3354 C 0.67631 0.48165 0.12885 0.0
C3355 C 0.66784 0.50978 0.13683 0.0
C3356 C 0.65962 0.52043 0.14814 0.0
C3357 C 0.66618 0.4924 0.1383 0.0
C3358 C 0.64776 0.51368 0.15917 0.0
C3359 C 0.6456 0.49642 0.16031 0.0
H3360 H 0.52508 0.66172 0.17039 0.0
H3361 H 0.52917 0.70748 0.14223 0.0
H3362 H 0.49954 0.70596 0.13501 0.0
H3363 H 0.4717 0.69468 0.14153 0.0
H3364 H 0.46767 0.64935 0.17045 0.0
H3365 H 0.49802 0.64742 0.17211 0.0
C3366 C 0.51958 0.67113 0.16232 0.0
C3367 C 0.5292 0.68489 0.15718 0.0
C3368 C 0.50247 0.67035 0.15847 0.0
C3369 C 0.52199 0.69684 0.1465 0.0
C3370 C 0.50501 0.69604 0.14244 0.0
C3371 C 0.47746 0.68409 0.14772 0.0
C3372 C 0.46742 0.67241 0.1562 0.0
C3373 C 0.49497 0.6833 0.14906 0.0
C3374 C 0.4751 0.65867 0.16403 0.0
C3375 C 0.49248 0.6576 0.16509 0.0
H3376 H 0.32878 0.46317 0.16029 0.0
H3377 H 0.28779 0.45901 0.12542 0.0
H3378 H 0.28947 0.48886 0.11958 0.0
H3379 H 0.29787 0.51654 0.12966 0.0
H3380 H 0.33722 0.52073 0.16637 0.0
H3381 H 0.34122 0.49054 0.16584 0.0
C3382 C 0.32053 0.4687 0.15104 0.0
C3383 C 0.30784 0.45902 0.1437 0.0
C3384 C 0.32113 0.48597 0.14825 0.0
C3385 C 0.29748 0.46626 0.13148 0.0
C3386 C 0.29837 0.48337 0.1282 0.0
C3387 C 0.30772 0.51092 0.13711 0.0
C3388 C 0.3169 0.52077 0.1484 0.0
C3389 C 0.30942 0.49347 0.13732 0.0
C3390 C 0.32976 0.51335 0.15781 0.0
C3391 C 0.33199 0.49606 0.15759 0.0
H3392 H 0.83981 0.50416 0.69126 0.0
H3393 H 0.80022 0.50921 0.65489 0.0
H3394 H 0.79749 0.47891 0.65337 0.0
H3395 H 0.80337 0.45139 0.66556 0.0
H3396 H 0.84253 0.44638 0.70239 0.0
H3397 H 0.84856 0.47617 0.70031 0.0
C3398 C 0.83083 0.49862 0.68274 0.0
C3399 C 0.82003 0.50893 0.67345 0.0
C3400 C 0.82911 0.48118 0.68213 0.0
C3401 C 0.80859 0.50157 0.66232 0.0
C3402 C 0.80695 0.48422 0.66149 0.0
C3403 C 0.81345 0.45675 0.67288 0.0
C3404 C 0.82227 0.44674 0.68434 0.0
C3405 C 0.81668 0.47395 0.67184 0.0
C3406 C 0.83543 0.45383 0.69358 0.0
C3407 C 0.83885 0.4709 0.69247 0.0
H3408 H 0.51688 0.82388 0.65224 0.0
H3409 H 0.52175 0.85722 0.69432 0.0
H3410 H 0.4915 0.86109 0.69496 0.0
H3411 H 0.46399 0.84903 0.68838 0.0
H3412 H 0.45945 0.81399 0.64763 0.0
H3413 H 0.4891 0.81705 0.64143 0.0
C3414 C 0.51137 0.83245 0.66118 0.0
C3415 C 0.52146 0.8398 0.67355 0.0
C3416 C 0.49394 0.83404 0.66194 0.0
C3417 C 0.51422 0.85118 0.68481 0.0
C3418 C 0.49688 0.85327 0.6853 0.0
C3419 C 0.46936 0.84253 0.67777 0.0
C3420 C 0.45968 0.83091 0.66881 0.0
C3421 C 0.4866 0.84384 0.67468 0.0
C3422 C 0.46674 0.82275 0.65496 0.0
C3423 C 0.48373 0.82442 0.65144 0.0
H3424 H 0.15721 0.52212 0.65438 0.0
H3425 H 0.11928 0.52266 0.69269 0.0
H3426 H 0.11553 0.49258 0.6896 0.0
H3427 H 0.12743 0.46588 0.68056 0.0
H3428 H 0.1669 0.46526 0.64384 0.0
H3429 H 0.16537 0.49561 0.64148 0.0
C3430 C 0.1478 0.51574 0.66174 0.0
C3431 C 0.13887 0.5245 0.67407 0.0
C3432 C 0.14617 0.49837 0.66035 0.0
C3433 C 0.12651 0.51614 0.68329 0.0
C3434 C 0.12443 0.49891 0.6816 0.0
C3435 C 0.13539 0.47234 0.6717 0.0
C3436 C 0.14758 0.46341 0.66274 0.0
C3437 C 0.13488 0.48981 0.67088 0.0
C3438 C 0.15759 0.47189 0.65109 0.0
C3439 C 0.15679 0.48926 0.6498 0.0
H3440 H 0.46242 0.17201 0.663 0.0
H3441 H 0.46147 0.13618 0.70328 0.0
H3442 H 0.49191 0.1339 0.70222 0.0
H3443 H 0.51862 0.14646 0.69381 0.0
H3444 H 0.51931 0.18385 0.65495 0.0
H3445 H 0.48918 0.18093 0.65129 0.0
C3446 C 0.46883 0.16337 0.67127 0.0
C3447 C 0.45975 0.15458 0.68346 0.0
C3448 C 0.48633 0.1626 0.67101 0.0
C3449 C 0.46819 0.14323 0.69389 0.0
C3450 C 0.48562 0.14202 0.69338 0.0
C3451 C 0.51226 0.15364 0.68423 0.0
C3452 C 0.52112 0.16563 0.67493 0.0
C3453 C 0.49483 0.15232 0.6826 0.0
C3454 C 0.51273 0.17472 0.66245 0.0
C3455 C 0.49548 0.17311 0.6604 0.0
H3456 H 0.81422 0.47008 0.32263 0.0
H3457 H 0.85081 0.46868 0.28309 0.0
H3458 H 0.85205 0.49913 0.28295 0.0
H3459 H 0.83773 0.52556 0.28935 0.0
H3460 H 0.79967 0.52659 0.32752 0.0
H3461 H 0.8042 0.497 0.33308 0.0
C3462 C 0.82287 0.47642 0.31435 0.0
C3463 C 0.83203 0.46716 0.30255 0.0
C3464 C 0.82297 0.49392 0.31384 0.0
C3465 C 0.84343 0.47552 0.29214 0.0
C3466 C 0.84402 0.49296 0.29194 0.0
C3467 C 0.83077 0.51942 0.29921 0.0
C3468 C 0.81805 0.52813 0.30767 0.0
C3469 C 0.83305 0.50225 0.30198 0.0
C3470 C 0.80931 0.52009 0.3206 0.0
C3471 C 0.81185 0.50313 0.32375 0.0
H3472 H 0.51406 0.84534 0.30824 0.0
H3473 H 0.51775 0.80572 0.34466 0.0
H3474 H 0.48736 0.80432 0.34644 0.0
H3475 H 0.46026 0.8105 0.33354 0.0
H3476 H 0.45661 0.84925 0.29622 0.0
H3477 H 0.48638 0.85515 0.29925 0.0
C3478 C 0.50822 0.83668 0.31687 0.0
C3479 C 0.51812 0.82536 0.32598 0.0
C3480 C 0.49072 0.83567 0.31755 0.0
C3481 C 0.5104 0.81441 0.33732 0.0
C3482 C 0.49301 0.81355 0.3383 0.0
C3483 C 0.46588 0.82054 0.32639 0.0
C3484 C 0.45635 0.82913 0.31437 0.0
C3485 C 0.48309 0.82352 0.32784 0.0
C3486 C 0.46372 0.84231 0.30542 0.0
C3487 C 0.48079 0.8456 0.30705 0.0
H3488 H 0.16766 0.46702 0.32694 0.0
H3489 H 0.13273 0.46403 0.28592 0.0
H3490 H 0.1294 0.49434 0.2863 0.0
H3491 H 0.1417 0.52146 0.2937 0.0
H3492 H 0.17819 0.52421 0.3334 0.0
H3493 H 0.17531 0.49432 0.33839 0.0
C3494 C 0.15893 0.47295 0.31842 0.0
C3495 C 0.15084 0.46337 0.3061 0.0
C3496 C 0.15757 0.49041 0.31829 0.0
C3497 C 0.13929 0.47116 0.29538 0.0
C3498 C 0.13749 0.48852 0.29549 0.0
C3499 C 0.14862 0.51563 0.3038 0.0
C3500 C 0.16051 0.52493 0.31283 0.0
C3501 C 0.14738 0.4983 0.30618 0.0
C3502 C 0.16919 0.51725 0.32605 0.0
C3503 C 0.16762 0.50013 0.32886 0.0
H3504 H 0.51614 0.12477 0.29376 0.0
H3505 H 0.52146 0.15748 0.33631 0.0
H3506 H 0.49122 0.15803 0.33991 0.0
H3507 H 0.46372 0.15483 0.32681 0.0
H3508 H 0.45838 0.12353 0.28323 0.0
H3509 H 0.48803 0.11647 0.28447 0.0
C3510 C 0.51072 0.13154 0.30417 0.0
C3511 C 0.52098 0.14146 0.31445 0.0
C3512 C 0.49325 0.13231 0.3058 0.0
C3513 C 0.5138 0.14999 0.32802 0.0
C3514 C 0.49648 0.1504 0.33003 0.0
C3515 C 0.46894 0.14605 0.31789 0.0
C3516 C 0.459 0.14011 0.30467 0.0
C3517 C 0.4861 0.14249 0.31834 0.0
C3518 C 0.46582 0.12848 0.29341 0.0
C3519 C 0.48283 0.12453 0.29403 0.0
H3520 H 0.66571 0.81718 0.47522 0.0
H3521 H 0.70732 0.85142 0.47439 0.0
H3522 H 0.70699 0.85285 0.50488 0.0
H3523 H 0.69887 0.83958 0.53137 0.0
H3524 H 0.65848 0.80386 0.53183 0.0
H3525 H 0.65416 0.80802 0.50196 0.0
C3526 C 0.67441 0.82532 0.48168 0.0
C3527 C 0.68679 0.83384 0.4726 0.0
C3528 C 0.67455 0.82559 0.4992 0.0
C3529 C 0.69778 0.84458 0.48111 0.0
C3530 C 0.69769 0.84529 0.49857 0.0
C3531 C 0.68882 0.83306 0.52503 0.0
C3532 C 0.67929 0.82112 0.53371 0.0
C3533 C 0.68675 0.8351 0.50772 0.0
C3534 C 0.66618 0.81291 0.52538 0.0
C3535 C 0.66374 0.81524 0.50827 0.0
H3536 H 0.66011 0.16802 0.46116 0.0
H3537 H 0.70081 0.13269 0.45877 0.0
H3538 H 0.69914 0.1284 0.48891 0.0
H3539 H 0.6902 0.13927 0.51619 0.0
H3540 H 0.65034 0.17557 0.51849 0.0
H3541 H 0.64734 0.17455 0.4882 0.0
C3542 C 0.66832 0.15904 0.46717 0.0
C3543 C 0.68084 0.15103 0.45783 0.0
C3544 C 0.66758 0.15696 0.48456 0.0
C3545 C 0.69118 0.1392 0.46571 0.0
C3546 C 0.69031 0.1368 0.48299 0.0
C3547 C 0.68051 0.14657 0.51012 0.0
C3548 C 0.67082 0.15782 0.51953 0.0
C3549 C 0.67918 0.14631 0.49262 0.0
C3550 C 0.65817 0.16702 0.51151 0.0
C3551 C 0.6565 0.16652 0.49415 0.0
H3552 H 0.83234 0.65503 0.51538 0.0
H3553 H 0.8657 0.69728 0.51813 0.0
H3554 H 0.86837 0.69733 0.48775 0.0
H3555 H 0.85616 0.68945 0.4607 0.0
H3556 H 0.82136 0.64834 0.45819 0.0
H3557 H 0.82465 0.64352 0.48809 0.0
C3558 C 0.84057 0.66396 0.50937 0.0
C3559 C 0.84843 0.67642 0.51894 0.0
C3560 C 0.8416 0.66427 0.49188 0.0
C3561 C 0.85931 0.68769 0.51102 0.0
C3562 C 0.86076 0.6878 0.49362 0.0
C3563 C 0.8497 0.67911 0.46659 0.0
C3564 C 0.83818 0.66957 0.45734 0.0
C3565 C 0.85118 0.67678 0.48392 0.0
C3566 C 0.83007 0.65607 0.4651 0.0
C3567 C 0.83187 0.65335 0.48223 0.0
H3568 H 0.2965 0.85116 0.47189 0.0
H3569 H 0.33635 0.81504 0.46764 0.0
H3570 H 0.34023 0.8154 0.49785 0.0
H3571 H 0.32813 0.82116 0.52535 0.0
H3572 H 0.28726 0.85607 0.52974 0.0
H3573 H 0.2882 0.86129 0.49969 0.0
C3574 C 0.30639 0.84378 0.47752 0.0
C3575 C 0.31583 0.83276 0.46759 0.0
C3576 C 0.30817 0.84361 0.49499 0.0
C3577 C 0.32872 0.82342 0.47505 0.0
C3578 C 0.33089 0.82354 0.49235 0.0
C3579 C 0.31973 0.83026 0.5198 0.0
C3580 C 0.30736 0.83788 0.52966 0.0
C3581 C 0.32002 0.83282 0.50246 0.0
C3582 C 0.29677 0.84988 0.52238 0.0
C3583 C 0.29723 0.85278 0.50516 0.0
H3584 H 0.13633 0.28908 0.4697 0.0
H3585 H 0.16713 0.33311 0.47418 0.0
H3586 H 0.16574 0.33124 0.50457 0.0
H3587 H 0.16049 0.31404 0.52929 0.0
H3588 H 0.13122 0.26902 0.52483 0.0
H3589 H 0.12704 0.27448 0.49506 0.0
C3590 C 0.14233 0.29855 0.47732 0.0
C3591 C 0.15212 0.31102 0.4697 0.0
C3592 C 0.14199 0.29705 0.4948 0.0
C3593 C 0.1597 0.32327 0.47973 0.0
C3594 C 0.159 0.32215 0.49712 0.0
C3595 C 0.15288 0.30561 0.52188 0.0
C3596 C 0.14649 0.29095 0.52915 0.0
C3597 C 0.15094 0.30859 0.50473 0.0
C3598 C 0.13641 0.2803 0.51949 0.0
C3599 C 0.1341 0.28338 0.50244 0.0
H3600 H 0.30623 0.13998 0.50515 0.0
H3601 H 0.33875 0.18253 0.51141 0.0
H3602 H 0.34127 0.18522 0.48114 0.0
H3603 H 0.32968 0.179 0.45348 0.0
H3604 H 0.29578 0.13751 0.44739 0.0
H3605 H 0.29872 0.13061 0.47696 0.0
C3606 C 0.31418 0.1496 0.4999 0.0
C3607 C 0.32193 0.16131 0.51047 0.0
C3608 C 0.31519 0.15136 0.4825 0.0
C3609 C 0.33246 0.17351 0.50352 0.0
C3610 C 0.33384 0.1751 0.4862 0.0
C3611 C 0.32328 0.16818 0.45852 0.0
C3612 C 0.31219 0.15905 0.44838 0.0
C3613 C 0.32457 0.16464 0.47563 0.0
C3614 C 0.30422 0.14488 0.455 0.0
C3615 C 0.3058 0.141 0.47194 0.0
H3616 H 0.85007 0.29657 0.459 0.0
H3617 H 0.8122 0.33494 0.45668 0.0
H3618 H 0.81337 0.33818 0.48694 0.0
H3619 H 0.82072 0.32594 0.51402 0.0
H3620 H 0.85754 0.28658 0.51645 0.0
H3621 H 0.86153 0.28823 0.48627 0.0
C3622 C 0.84242 0.30597 0.46507 0.0
C3623 C 0.83075 0.31517 0.45566 0.0
C3624 C 0.8428 0.30744 0.48255 0.0
C3625 C 0.82109 0.32748 0.46366 0.0
C3626 C 0.82169 0.3293 0.481 0.0
C3627 C 0.82996 0.31805 0.50802 0.0
C3628 C 0.83848 0.30586 0.51739 0.0
C3629 C 0.83181 0.3187 0.4906 0.0
C3630 C 0.85063 0.29593 0.50949 0.0
C3631 C 0.85284 0.29678 0.49219 0.0
H3632 H 0.1649 0.66487 0.51453 0.0
H3633 H 0.13112 0.70685 0.51741 0.0
H3634 H 0.1279 0.70661 0.4871 0.0
H3635 H 0.13871 0.69786 0.45984 0.0
H3636 H 0.17378 0.65696 0.45697 0.0
H3637 H 0.17212 0.65314 0.48716 0.0
C3638 C 0.15654 0.67373 0.50856 0.0
C3639 C 0.14857 0.68609 0.51816 0.0
C3640 C 0.15509 0.67381 0.49109 0.0
C3641 C 0.1376 0.69734 0.51027 0.0
C3642 C 0.13578 0.69726 0.49292 0.0
C3643 C 0.14564 0.68781 0.46575 0.0
C3644 C 0.15662 0.67795 0.45623 0.0
C3645 C 0.14508 0.68606 0.48318 0.0
C3646 C 0.16539 0.66488 0.46405 0.0
C3647 C 0.16454 0.66274 0.48134 0.0
H3648 H 0.14561 0.10879 0.32121 0.0
H3649 H 0.1502 0.10966 0.26748 0.0
H3650 H 0.12746 0.12977 0.26555 0.0
H3651 H 0.10928 0.14992 0.27914 0.0
H3652 H 0.10509 0.15063 0.33285 0.0
H3653 H 0.1244 0.12689 0.3348 0.0
C3654 C 0.14132 0.1131 0.3091 0.0
C3655 C 0.1497 0.10795 0.29452 0.0
C3656 C 0.12847 0.12508 0.30808 0.0
C3657 C 0.14409 0.11364 0.27888 0.0
C3658 C 0.1311 0.12515 0.27776 0.0
C3659 C 0.11239 0.14473 0.29128 0.0
C3660 C 0.10604 0.15218 0.30583 0.0
C3661 C 0.12369 0.13143 0.29229 0.0
C3662 C 0.1099 0.14514 0.32146 0.0
C3663 C 0.12102 0.13164 0.32257 0.0
H3664 H 0.88383 0.15012 0.31258 0.0
H3665 H 0.88466 0.15406 0.25877 0.0
H3666 H 0.86598 0.13022 0.25642 0.0
H3667 H 0.84632 0.11119 0.26951 0.0
H3668 H 0.84389 0.10759 0.32321 0.0
H3669 H 0.86655 0.12805 0.32577 0.0
C3670 C 0.8802 0.14549 0.30036 0.0
C3671 C 0.88536 0.154 0.28588 0.0
C3672 C 0.86906 0.13195 0.29908 0.0
C3673 C 0.88061 0.14788 0.27011 0.0
C3674 C 0.86993 0.13425 0.26874 0.0
C3675 C 0.85094 0.11467 0.28178 0.0
C3676 C 0.84328 0.10817 0.29614 0.0
C3677 C 0.86357 0.12666 0.28313 0.0
C3678 C 0.84957 0.1125 0.31196 0.0
C3679 C 0.86243 0.1243 0.31342 0.0
H3680 H 0.87622 0.83674 0.30958 0.0
H3681 H 0.86708 0.83063 0.25672 0.0
H3682 H 0.84747 0.85384 0.25713 0.0
H3683 H 0.83024 0.87319 0.27297 0.0
H3684 H 0.83824 0.87944 0.32589 0.0
H3685 H 0.86116 0.85905 0.32498 0.0
C3686 C 0.8702 0.84075 0.29811 0.0
C3687 C 0.87289 0.83179 0.2832 0.0
C3688 C 0.85861 0.85398 0.29848 0.0
C3689 C 0.86503 0.83714 0.26842 0.0
C3690 C 0.85379 0.8504 0.26862 0.0
C3691 C 0.83715 0.87025 0.28428 0.0
C3692 C 0.83242 0.87753 0.29951 0.0
C3693 C 0.85004 0.85846 0.28367 0.0
C3694 C 0.84165 0.8739 0.31401 0.0
C3695 C 0.85467 0.86219 0.3135 0.0
H3696 H 0.10468 0.84253 0.31784 0.0
H3697 H 0.09915 0.84506 0.26426 0.0
H3698 H 0.11941 0.8677 0.26297 0.0
H3699 H 0.14239 0.88266 0.27625 0.0
H3700 H 0.14921 0.87983 0.32959 0.0
H3701 H 0.12462 0.86168 0.33191 0.0
C3702 C 0.10751 0.84846 0.306 0.0
C3703 C 0.10068 0.84201 0.29113 0.0
C3704 C 0.11963 0.86119 0.30528 0.0
C3705 C 0.10445 0.84971 0.27583 0.0
C3706 C 0.11609 0.8626 0.27506 0.0
C3707 C 0.13823 0.87837 0.28843 0.0
C3708 C 0.14767 0.88225 0.30268 0.0
C3709 C 0.12437 0.86779 0.28958 0.0
C3710 C 0.1421 0.87691 0.31844 0.0
C3711 C 0.12813 0.86644 0.31973 0.0
H3712 H 0.16009 0.86713 0.71723 0.0
H3713 H 0.14886 0.88328 0.66702 0.0
H3714 H 0.12642 0.86248 0.66522 0.0
H3715 H 0.11211 0.83761 0.67709 0.0
H3716 H 0.12505 0.82137 0.72692 0.0
H3717 H 0.14466 0.84436 0.7297 0.0
C3718 C 0.15268 0.86624 0.7059 0.0
C3719 C 0.15631 0.87654 0.6922 0.0
C3720 C 0.14016 0.85413 0.70486 0.0
C3721 C 0.14635 0.87542 0.67774 0.0
C3722 C 0.13359 0.86348 0.67668 0.0
C3723 C 0.11906 0.83931 0.68861 0.0
C3724 C 0.11732 0.8277 0.70169 0.0
C3725 C 0.13068 0.85244 0.69002 0.0
C3726 C 0.12638 0.83 0.71657 0.0
C3727 C 0.13758 0.84315 0.7182 0.0
H3728 H 0.1617 0.10458 0.70781 0.0
H3729 H 0.15636 0.10157 0.65428 0.0
H3730 H 0.13041 0.11786 0.65578 0.0
H3731 H 0.11146 0.1361 0.6722 0.0
H3732 H 0.11792 0.13921 0.72566 0.0
H3733 H 0.14101 0.11944 0.72436 0.0
C3734 C 0.15477 0.10735 0.69648 0.0
C3735 C 0.16106 0.10223 0.68094 0.0
C3736 C 0.14006 0.11673 0.69745 0.0
C3737 C 0.15179 0.10553 0.66638 0.0
C3738 C 0.137 0.11487 0.66724 0.0
C3739 C 0.11764 0.13204 0.68357 0.0
C3740 C 0.11317 0.13921 0.69898 0.0
C3741 C 0.13128 0.12097 0.68268 0.0
C3742 C 0.1213 0.13397 0.71364 0.0
C3743 C 0.13454 0.12273 0.71291 0.0
H3744 H 0.88082 0.15138 0.67448 0.0
H3745 H 0.87748 0.1603 0.72759 0.0
H3746 H 0.85695 0.13803 0.73026 0.0
H3747 H 0.83693 0.11935 0.71701 0.0
H3748 H 0.83883 0.11099 0.66381 0.0
H3749 H 0.86317 0.12944 0.66169 0.0
C3750 C 0.8759 0.14814 0.68669 0.0
C3751 C 0.88044 0.15765 0.70078 0.0
C3752 C 0.8637 0.13558 0.68808 0.0
C3753 C 0.87399 0.15333 0.71652 0.0
C3754 C 0.86222 0.14062 0.71806 0.0
C3755 C 0.84284 0.12134 0.70498 0.0
C3756 C 0.83593 0.11412 0.69055 0.0
C3757 C 0.85649 0.13219 0.70384 0.0
C3758 C 0.84389 0.11651 0.67509 0.0
C3759 C 0.85773 0.12715 0.67387 0.0
H3760 H 0.87426 0.8466 0.706 0.0
H3761 H 0.87987 0.83236 0.65434 0.0
H3762 H 0.86131 0.85514 0.6458 0.0
H3763 H 0.84155 0.87762 0.65338 0.0
H3764 H 0.83742 0.89272 0.70498 0.0
H3765 H 0.8574 0.87119 0.71318 0.0
C3766 C 0.87158 0.84866 0.69286 0.0
C3767 C 0.87824 0.83778 0.68083 0.0
C3768 C 0.86107 0.86184 0.68805 0.0
C3769 C 0.87489 0.84064 0.66382 0.0
C3770 C 0.8642 0.85358 0.65895 0.0
C3771 C 0.84519 0.87627 0.66638 0.0
C3772 C 0.8379 0.88657 0.67858 0.0
C3773 C 0.85691 0.86402 0.67099 0.0
C3774 C 0.84286 0.8849 0.69535 0.0
C3775 C 0.85423 0.87256 0.70007 0.0
H3776 H 0.28767 0.14492 0.10102 0.0
H3777 H 0.34119 0.14543 0.10747 0.0
H3778 H 0.33885 0.12541 0.13048 0.0
H3779 H 0.32127 0.11012 0.15056 0.0
H3780 H 0.26762 0.1126 0.14602 0.0
H3781 H 0.27024 0.12896 0.12036 0.0
C3782 C 0.29883 0.1404 0.10727 0.0
C3783 C 0.31457 0.14655 0.1026 0.0
C3784 C 0.29731 0.12953 0.1209 0.0
C3785 C 0.32894 0.14084 0.11093 0.0
C3786 C 0.3276 0.12944 0.12408 0.0
C3787 C 0.3102 0.11401 0.14372 0.0
C3788 C 0.29429 0.11019 0.15002 0.0
C3789 C 0.31181 0.12404 0.12944 0.0
C3790 C 0.27998 0.11548 0.14133 0.0
C3791 C 0.28148 0.12483 0.12671 0.0
H3792 H 0.87786 0.31647 0.14808 0.0
H3793 H 0.87017 0.26508 0.16255 0.0
H3794 H 0.84911 0.26186 0.14085 0.0
H3795 H 0.8305 0.27442 0.12041 0.0
H3796 H 0.83675 0.326 0.10619 0.0
H3797 H 0.86097 0.3283 0.12489 0.0
C3798 C 0.87179 0.3045 0.14623 0.0
C3799 C 0.87537 0.29111 0.15707 0.0
C3800 C 0.85935 0.30281 0.13389 0.0
C3801 C 0.86745 0.27565 0.15454 0.0
C3802 C 0.8554 0.27379 0.14213 0.0
C3803 C 0.83728 0.28614 0.12123 0.0
C3804 C 0.8317 0.3001 0.11219 0.0
C3805 C 0.85086 0.28742 0.13217 0.0
C3806 C 0.84079 0.31508 0.1131 0.0
C3807 C 0.85456 0.31642 0.12387 0.0
H3808 H 0.66847 0.87814 0.15899 0.0
H3809 H 0.71941 0.87183 0.17575 0.0
H3810 H 0.72501 0.853 0.15261 0.0
H3811 H 0.71475 0.83574 0.12992 0.0
H3812 H 0.66365 0.84034 0.11331 0.0
H3813 H 0.6589 0.86266 0.13377 0.0
C3814 C 0.68084 0.87285 0.15735 0.0
C3815 C 0.69342 0.87615 0.16921 0.0
C3816 C 0.68393 0.86165 0.14411 0.0
C3817 C 0.70943 0.86925 0.16696 0.0
C3818 C 0.71267 0.85849 0.15371 0.0
C3819 C 0.70261 0.84177 0.13059 0.0
C3820 C 0.68951 0.83622 0.12032 0.0
C3821 C 0.69989 0.85418 0.14258 0.0
C3822 C 0.67395 0.84436 0.12113 0.0
C3823 C 0.6712 0.85703 0.13292 0.0
H3824 H 0.14173 0.69904 0.10053 0.0
H3825 H 0.14365 0.64537 0.10497 0.0
H3826 H 0.1239 0.64641 0.12823 0.0
H3827 H 0.10842 0.66279 0.14907 0.0
H3828 H 0.1087 0.71659 0.14616 0.0
H3829 H 0.12508 0.71532 0.12043 0.0
C3830 C 0.13761 0.68756 0.10642 0.0
C3831 C 0.14415 0.67216 0.10109 0.0
C3832 C 0.12672 0.6883 0.12012 0.0
C3833 C 0.13883 0.65738 0.10892 0.0
C3834 C 0.12756 0.65797 0.12222 0.0
C3835 C 0.11179 0.6742 0.1426 0.0
C3836 C 0.10739 0.68975 0.14946 0.0
C3837 C 0.12175 0.67339 0.12819 0.0
C3838 C 0.11202 0.70448 0.14112 0.0
C3839 C 0.12141 0.70376 0.12644 0.0
H3840 H 0.32282 0.87832 0.83677 0.0
H3841 H 0.26939 0.87706 0.82929 0.0
H3842 H 0.26627 0.85828 0.85299 0.0
H3843 H 0.27887 0.83915 0.87289 0.0
H3844 H 0.33232 0.83841 0.87979 0.0
H3845 H 0.33529 0.86131 0.85962 0.0
C3846 C 0.3105 0.87421 0.84062 0.0
C3847 C 0.29637 0.87885 0.83119 0.0
C3848 C 0.30882 0.86295 0.85405 0.0
C3849 C 0.28046 0.87344 0.83623 0.0
C3850 C 0.27866 0.8627 0.84977 0.0
C3851 C 0.29117 0.84419 0.87021 0.0
C3852 C 0.30537 0.83694 0.87757 0.0
C3853 C 0.29278 0.85688 0.85832 0.0
C3854 C 0.32119 0.84378 0.87423 0.0
C3855 C 0.32289 0.85676 0.86259 0.0
H3856 H 0.17349 0.29354 0.87034 0.0
H3857 H 0.13587 0.3239 0.89415 0.0
H3858 H 0.11685 0.31907 0.87056 0.0
H3859 H 0.11169 0.30739 0.84241 0.0
H3860 H 0.14954 0.2765 0.81941 0.0
H3861 H 0.16766 0.28033 0.84353 0.0
C3862 C 0.16109 0.29904 0.87042 0.0
C3863 C 0.15612 0.3092 0.88384 0.0
C3864 C 0.1503 0.29616 0.85694 0.0
C3865 C 0.13995 0.31605 0.88391 0.0
C3866 C 0.12912 0.31334 0.87041 0.0
C3867 C 0.12386 0.30143 0.84272 0.0
C3868 C 0.12928 0.2918 0.82902 0.0
C3869 C 0.13427 0.3036 0.85674 0.0
C3870 C 0.14503 0.284 0.82973 0.0
C3871 C 0.15545 0.28621 0.84351 0.0
H3872 H 0.66714 0.15541 0.87582 0.0
H3873 H 0.72075 0.15329 0.87074 0.0
H3874 H 0.71842 0.12777 0.85412 0.0
H3875 H 0.70105 0.10778 0.8388 0.0
H3876 H 0.64734 0.11171 0.84114 0.0
H3877 H 0.64971 0.13469 0.86119 0.0
C3878 C 0.67829 0.14915 0.8713 0.0
C3879 C 0.69408 0.15611 0.87446 0.0
C3880 C 0.6768 0.13491 0.86117 0.0
C3881 C 0.70846 0.14812 0.86836 0.0
C3882 C 0.70713 0.13357 0.85887 0.0
C3883 C 0.68987 0.11349 0.84394 0.0
C3884 C 0.67405 0.1081 0.83858 0.0
C3885 C 0.69135 0.12709 0.85486 0.0
C3886 C 0.65965 0.11572 0.8451 0.0
C3887 C 0.66101 0.12886 0.85652 0.0
H3888 H 0.86329 0.71334 0.82133 0.0
H3889 H 0.87295 0.6623 0.83558 0.0
H3890 H 0.85516 0.66573 0.86031 0.0
H3891 H 0.83441 0.68247 0.87589 0.0
H3892 H 0.82511 0.73353 0.86105 0.0
H3893 H 0.84554 0.73095 0.8387 0.0
C3894 C 0.86159 0.70299 0.82991 0.0
C3895 C 0.86908 0.6875 0.82651 0.0
C3896 C 0.85145 0.70508 0.84398 0.0
C3897 C 0.86716 0.67431 0.83791 0.0
C3898 C 0.85698 0.67627 0.852 0.0
C3899 C 0.83713 0.69314 0.86801 0.0
C3900 C 0.82803 0.70809 0.86998 0.0
C3901 C 0.84872 0.69149 0.85492 0.0
C3902 C 0.83176 0.72182 0.85968 0.0
C3903 C 0.8434 0.72034 0.84684 0.0
H3904 H 0.14627 0.26389 0.12478 0.0
H3905 H 0.14251 0.31541 0.1094 0.0
H3906 H 0.11939 0.31972 0.12895 0.0
H3907 H 0.10316 0.30976 0.15334 0.0
H3908 H 0.10848 0.25846 0.16917 0.0
H3909 H 0.12795 0.25316 0.14646 0.0
C3910 C 0.14024 0.27602 0.1255 0.0
C3911 C 0.14629 0.28937 0.11589 0.0
C3912 C 0.12733 0.27849 0.13701 0.0
C3913 C 0.13814 0.30492 0.11674 0.0
C3914 C 0.12499 0.30743 0.12801 0.0
C3915 C 0.10834 0.29736 0.15157 0.0
C3916 C 0.10462 0.2846 0.16307 0.0
C3917 C 0.11991 0.29445 0.13866 0.0
C3918 C 0.11137 0.26857 0.16064 0.0
C3919 C 0.12251 0.2655 0.14766 0.0
H3920 H 0.14764 0.67146 0.87608 0.0
H3921 H 0.16016 0.72319 0.86738 0.0
H3922 H 0.13452 0.72701 0.85147 0.0
H3923 H 0.11063 0.71499 0.83712 0.0
H3924 H 0.09851 0.66291 0.84388 0.0
H3925 H 0.12159 0.66003 0.86381 0.0
C3926 C 0.14457 0.68362 0.87093 0.0
C3927 C 0.15591 0.69695 0.87268 0.0
C3928 C 0.12991 0.68567 0.8614 0.0
C3929 C 0.15179 0.71265 0.86598 0.0
C3930 C 0.1371 0.71488 0.8569 0.0
C3931 C 0.11283 0.70304 0.84313 0.0
C3932 C 0.10303 0.68913 0.83879 0.0
C3933 C 0.12639 0.70135 0.85407 0.0
C3934 C 0.10591 0.67382 0.84693 0.0
C3935 C 0.1192 0.67213 0.85823 0.0
H3936 H 0.26943 0.15515 0.865 0.0
H3937 H 0.32155 0.14899 0.8774 0.0
H3938 H 0.32324 0.12476 0.85872 0.0
H3939 H 0.31057 0.10768 0.83615 0.0
H3940 H 0.25859 0.11517 0.82359 0.0
H3941 H 0.25615 0.13641 0.84518 0.0
C3942 C 0.28114 0.1484 0.86377 0.0
C3943 C 0.29541 0.15401 0.8723 0.0
C3944 C 0.28206 0.13478 0.85289 0.0
C3945 C 0.3104 0.14495 0.87087 0.0
C3946 C 0.31139 0.13116 0.86013 0.0
C3947 C 0.29866 0.11374 0.8384 0.0
C3948 C 0.28485 0.11006 0.82813 0.0
C3949 C 0.2974 0.12629 0.85067 0.0
C3950 C 0.26947 0.11798 0.83116 0.0
C3951 C 0.26805 0.13013 0.8435 0.0
H3952 H 0.88798 0.33832 0.83669 0.0
H3953 H 0.90783 0.28828 0.83978 0.0
H3954 H 0.88616 0.28064 0.85976 0.0
H3955 H 0.86002 0.28745 0.87432 0.0
H3956 H 0.84118 0.33786 0.87316 0.0
H3957 H 0.86406 0.34621 0.85459 0.0
C3958 C 0.88766 0.32583 0.84196 0.0
C3959 C 0.89932 0.31382 0.83666 0.0
C3960 C 0.87532 0.32159 0.85369 0.0
C3961 C 0.89897 0.29774 0.84369 0.0
C3962 C 0.88653 0.29333 0.85504 0.0
C3963 C 0.86113 0.3003 0.87017 0.0
C3964 C 0.84898 0.31201 0.87486 0.0
C3965 C 0.87443 0.30503 0.85982 0.0
C3966 C 0.85051 0.32868 0.86966 0.0
C3967 C 0.8635 0.33342 0.85899 0.0
H3968 H 0.65558 0.87605 0.83074 0.0
H3969 H 0.70875 0.87946 0.83883 0.0
H3970 H 0.7058 0.86589 0.86605 0.0
H3971 H 0.68862 0.85049 0.88596 0.0
H3972 H 0.63604 0.84356 0.87631 0.0
H3973 H 0.63808 0.86123 0.85137 0.0
C3974 C 0.66642 0.87405 0.83866 0.0
C3975 C 0.68234 0.87874 0.83297 0.0
C3976 C 0.66471 0.86554 0.85391 0.0
C3977 C 0.6964 0.87589 0.84307 0.0
C3978 C 0.69471 0.86814 0.85857 0.0
C3979 C 0.67753 0.85314 0.87859 0.0
C3980 C 0.66219 0.84585 0.88295 0.0
C3981 C 0.679 0.86254 0.86392 0.0
C3982 C 0.64798 0.8491 0.87315 0.0
C3983 C 0.64917 0.85912 0.85889 0.0
H3984 H 0.84878 0.68139 0.0986 0.0
H3985 H 0.82054 0.63979 0.11801 0.0
H3986 H 0.84115 0.63592 0.14022 0.0
H3987 H 0.8668 0.64482 0.15457 0.0
H3988 H 0.89506 0.68639 0.13511 0.0
H3989 H 0.87487 0.68974 0.11244 0.0
C3990 C 0.84715 0.67145 0.10767 0.0
C3991 C 0.83311 0.66094 0.10669 0.0
C3992 C 0.85905 0.66929 0.1204 0.0
C3993 C 0.83123 0.64807 0.11849 0.0
C3994 C 0.843 0.64585 0.1312 0.0
C3995 C 0.86859 0.65456 0.14532 0.0
C3996 C 0.88239 0.66536 0.14656 0.0
C3997 C 0.85691 0.65645 0.13234 0.0
C3998 C 0.88454 0.67791 0.13446 0.0
C3999 C 0.87298 0.67985 0.1215 0.0
H4000 H 0.32515 0.82825 0.11527 0.0
H4001 H 0.27146 0.83209 0.11284 0.0
H4002 H 0.27219 0.85731 0.13005 0.0
H4003 H 0.2878 0.87662 0.14785 0.0
H4004 H 0.34123 0.87128 0.15278 0.0
H4005 H 0.34099 0.84836 0.13254 0.0
C4006 C 0.3137 0.83486 0.11828 0.0
C4007 C 0.29829 0.8285 0.1128 0.0
C4008 C 0.31417 0.84893 0.12878 0.0
C4009 C 0.28345 0.83686 0.11697 0.0
C4010 C 0.28386 0.85122 0.12683 0.0
C4011 C 0.29942 0.87058 0.14433 0.0
C4012 C 0.3145 0.87559 0.1518 0.0
C4013 C 0.2991 0.85711 0.13314 0.0
C4014 C 0.32944 0.86756 0.14725 0.0
C4015 C 0.32931 0.85447 0.13568 0.0
H4016 H 0.70198 0.14552 0.10423 0.0
H4017 H 0.64831 0.14501 0.10935 0.0
H4018 H 0.65046 0.1237 0.13116 0.0
H4019 H 0.66774 0.10718 0.15048 0.0
H4020 H 0.72147 0.10993 0.14715 0.0
H4021 H 0.7192 0.12826 0.12282 0.0
C4022 C 0.69075 0.14055 0.10995 0.0
C4023 C 0.67502 0.14679 0.10523 0.0
C4024 C 0.69212 0.12877 0.12285 0.0
C4025 C 0.66057 0.14041 0.11285 0.0
C4026 C 0.66179 0.12825 0.12531 0.0
C4027 C 0.67892 0.11156 0.14421 0.0
C4028 C 0.69474 0.10722 0.15052 0.0
C4029 C 0.67751 0.12261 0.13066 0.0
C4030 C 0.70916 0.11317 0.1425 0.0
C4031 C 0.70787 0.12366 0.12863 0.0
H4032 H 0.61328 0.65157 0.81424 0.0
H4033 H 0.62186 0.66397 0.76243 0.0
H4034 H 0.64093 0.64051 0.75967 0.0
H4035 H 0.65761 0.61876 0.77255 0.0
H4036 H 0.65076 0.60658 0.8246 0.0
H4037 H 0.62831 0.62734 0.82659 0.0
C4038 C 0.61914 0.64893 0.80232 0.0
C4039 C 0.6164 0.65966 0.78865 0.0
C4040 C 0.63045 0.63552 0.80086 0.0
C4041 C 0.62401 0.65609 0.77323 0.0
C4042 C 0.6349 0.64265 0.77161 0.0
C4043 C 0.65108 0.62046 0.7843 0.0
C4044 C 0.65602 0.61135 0.79846 0.0
C4045 C 0.6386 0.63264 0.78545 0.0
C4046 C 0.64722 0.61349 0.81351 0.0
C4047 C 0.63447 0.62546 0.81468 0.0
H4048 H 0.34038 0.60896 0.80343 0.0
H4049 H 0.3356 0.61757 0.75035 0.0
H4050 H 0.35908 0.63683 0.75115 0.0
H4051 H 0.37825 0.65395 0.76729 0.0
H4052 H 0.38302 0.64667 0.82046 0.0
H4053 H 0.36247 0.62392 0.81925 0.0
C4054 C 0.34473 0.61479 0.79201 0.0
C4055 C 0.33609 0.61207 0.7769 0.0
C4056 C 0.35809 0.6262 0.7926 0.0
C4057 C 0.34187 0.61967 0.76218 0.0
C4058 C 0.35529 0.6307 0.76261 0.0
C4059 C 0.37495 0.64723 0.7786 0.0
C4060 C 0.38184 0.65211 0.79397 0.0
C4061 C 0.36304 0.6345 0.77782 0.0
C4062 C 0.37778 0.64313 0.80848 0.0
C4063 C 0.36597 0.63022 0.8078 0.0
H4064 H 0.36539 0.34825 0.76722 0.0
H4065 H 0.37353 0.34875 0.8205 0.0
H4066 H 0.35259 0.37088 0.82359 0.0
H4067 H 0.32875 0.38662 0.81147 0.0
H4068 H 0.32 0.38419 0.75829 0.0
H4069 H 0.34446 0.36643 0.75481 0.0
C4070 C 0.3628 0.35339 0.77949 0.0
C4071 C 0.37074 0.34667 0.79363 0.0
C4072 C 0.35047 0.36566 0.7812 0.0
C4073 C 0.36751 0.35367 0.80941 0.0
C4074 C 0.35544 0.36623 0.8112 0.0
C4075 C 0.33249 0.38251 0.79911 0.0
C4076 C 0.32249 0.38647 0.78519 0.0
C4077 C 0.34634 0.37182 0.79724 0.0
C4078 C 0.32739 0.38108 0.76922 0.0
C4079 C 0.34136 0.37092 0.76721 0.0
H4080 H 0.61355 0.32948 0.84202 0.0
H4081 H 0.58902 0.35121 0.79912 0.0
H4082 H 0.60971 0.37363 0.79849 0.0
H4083 H 0.63519 0.38661 0.80965 0.0
H4084 H 0.65976 0.36472 0.85246 0.0
H4085 H 0.63855 0.34285 0.85362 0.0
C4086 C 0.61269 0.33915 0.83257 0.0
C4087 C 0.5998 0.33865 0.82061 0.0
C4088 C 0.62463 0.35196 0.83225 0.0
C4089 C 0.59884 0.35129 0.80846 0.0
C4090 C 0.61066 0.36411 0.80808 0.0
C4091 C 0.63586 0.3771 0.81928 0.0
C4092 C 0.64905 0.37728 0.83092 0.0
C4093 C 0.62367 0.36451 0.81984 0.0
C4094 C 0.64974 0.36487 0.84333 0.0
C4095 C 0.63763 0.35234 0.844 0.0
H4096 H 0.65681 0.36488 0.2194 0.0
H4097 H 0.64063 0.383 0.17119 0.0
H4098 H 0.61953 0.36088 0.16986 0.0
H4099 H 0.60752 0.33479 0.18138 0.0
H4100 H 0.62552 0.31637 0.22885 0.0
H4101 H 0.6441 0.34024 0.23141 0.0
C4102 C 0.64859 0.36417 0.20862 0.0
C4103 C 0.65044 0.3755 0.19534 0.0
C4104 C 0.63691 0.35123 0.20773 0.0
C4105 C 0.63954 0.3744 0.18158 0.0
C4106 C 0.62752 0.36171 0.18077 0.0
C4107 C 0.6154 0.33613 0.19234 0.0
C4108 C 0.61528 0.32374 0.20481 0.0
C4109 C 0.62638 0.34979 0.1936 0.0
C4110 C 0.62555 0.32561 0.21895 0.0
C4111 C 0.63615 0.33928 0.22047 0.0
H4112 H 0.59748 0.6447 0.17745 0.0
H4113 H 0.62894 0.6586 0.21915 0.0
H4114 H 0.64752 0.63536 0.21323 0.0
H4115 H 0.65624 0.61253 0.19499 0.0
H4116 H 0.62471 0.59732 0.15403 0.0
H4117 H 0.60474 0.61959 0.16089 0.0
C4118 C 0.60828 0.64251 0.18537 0.0
C4119 C 0.61187 0.65357 0.1986 0.0
C4120 C 0.61901 0.62899 0.18194 0.0
C4121 C 0.62585 0.65041 0.20883 0.0
C4122 C 0.63657 0.63713 0.20543 0.0
C4123 C 0.64494 0.61405 0.18763 0.0
C4124 C 0.64202 0.60355 0.1739 0.0
C4125 C 0.6335 0.62662 0.1918 0.0
C4126 C 0.62721 0.60536 0.16463 0.0
C4127 C 0.61584 0.61809 0.16853 0.0
H4128 H 0.36977 0.64594 0.21247 0.0
H4129 H 0.38545 0.64199 0.16105 0.0
H4130 H 0.36435 0.6203 0.15619 0.0
H4131 H 0.33919 0.60491 0.16595 0.0
H4132 H 0.32312 0.61102 0.21708 0.0
H4133 H 0.34662 0.62943 0.22262 0.0
C4134 C 0.36875 0.64025 0.20021 0.0
C4135 C 0.37901 0.64576 0.18709 0.0
C4136 C 0.35635 0.62828 0.19741 0.0
C4137 C 0.37766 0.63801 0.17137 0.0
C4138 C 0.36552 0.62569 0.16856 0.0
C4139 C 0.34103 0.61012 0.17833 0.0
C4140 C 0.32933 0.6068 0.19103 0.0
C4141 C 0.35444 0.6211 0.18137 0.0
C4142 C 0.3318 0.6136 0.20703 0.0
C4143 C 0.34526 0.6241 0.21024 0.0
H4144 H 0.37801 0.33771 0.17063 0.0
H4145 H 0.36925 0.3245 0.22219 0.0
H4146 H 0.34892 0.34693 0.22479 0.0
H4147 H 0.33143 0.36794 0.21178 0.0
H4148 H 0.33843 0.38083 0.15992 0.0
H4149 H 0.36185 0.36112 0.15812 0.0
C4150 C 0.37184 0.34 0.18248 0.0
C4151 C 0.37493 0.32936 0.19613 0.0
C4152 C 0.35977 0.35273 0.18379 0.0
C4153 C 0.36688 0.33238 0.21143 0.0
C4154 C 0.35526 0.3452 0.21295 0.0
C4155 C 0.33815 0.36659 0.20009 0.0
C4156 C 0.33303 0.37559 0.18594 0.0
C4157 C 0.35124 0.35507 0.19908 0.0
C4158 C 0.34209 0.37394 0.17099 0.0
C4159 C 0.35542 0.36262 0.16994 0.0
H4160 H 0.7883 0.63885 0.60316 0.0
H4161 H 0.84154 0.64676 0.60519 0.0
H4162 H 0.84476 0.62214 0.62312 0.0
H4163 H 0.83187 0.60011 0.64049 0.0
H4164 H 0.77872 0.59157 0.63703 0.0
H4165 H 0.77602 0.61457 0.61723 0.0
C4166 C 0.80062 0.635 0.60734 0.0
C4167 C 0.81464 0.64462 0.60309 0.0
C4168 C 0.80236 0.62081 0.61745 0.0
C4169 C 0.83059 0.63947 0.60834 0.0
C4170 C 0.8324 0.62548 0.61866 0.0
C4171 C 0.81976 0.60316 0.63519 0.0
C4172 C 0.80549 0.59433 0.64036 0.0
C4173 C 0.81831 0.61632 0.62365 0.0
C4174 C 0.78989 0.59822 0.63327 0.0
C4175 C 0.78831 0.61142 0.622 0.0
H4176 H 0.33501 0.76721 0.61694 0.0
H4177 H 0.34209 0.81932 0.60514 0.0
H4178 H 0.36595 0.82052 0.62426 0.0
H4179 H 0.38208 0.8077 0.64728 0.0
H4180 H 0.37378 0.75582 0.65953 0.0
H4181 H 0.35322 0.75361 0.63721 0.0
C4182 C 0.34192 0.77879 0.61834 0.0
C4183 C 0.33659 0.79322 0.60986 0.0
C4184 C 0.35531 0.77948 0.6296 0.0
C4185 C 0.34587 0.80803 0.61159 0.0
C4186 C 0.35945 0.80876 0.62261 0.0
C4187 C 0.37601 0.79584 0.64484 0.0
C4188 C 0.37925 0.78204 0.65526 0.0
C4189 C 0.36388 0.79471 0.63215 0.0
C4190 C 0.37133 0.76672 0.65189 0.0
C4191 C 0.35955 0.76543 0.63912 0.0
H4192 H 0.20272 0.3308 0.61034 0.0
H4193 H 0.15067 0.31684 0.61089 0.0
H4194 H 0.14376 0.3423 0.62629 0.0
H4195 H 0.1529 0.36756 0.64132 0.0
H4196 H 0.20471 0.3823 0.63922 0.0
H4197 H 0.21132 0.35761 0.62258 0.0
C4198 C 0.18986 0.33344 0.61372 0.0
C4199 C 0.17725 0.32194 0.60969 0.0
C4200 C 0.18595 0.3482 0.62233 0.0
C4201 C 0.16058 0.32556 0.61388 0.0
C4202 C 0.15664 0.34006 0.62274 0.0
C4203 C 0.16559 0.36542 0.63705 0.0
C4204 C 0.17832 0.37659 0.6416 0.0
C4205 C 0.16926 0.35132 0.62729 0.0
C4206 C 0.19469 0.37385 0.63585 0.0
C4207 C 0.1985 0.3597 0.62641 0.0
H4208 H 0.6519 0.21793 0.61521 0.0
H4209 H 0.64444 0.1661 0.60256 0.0
H4210 H 0.62189 0.16422 0.62323 0.0
H4211 H 0.6068 0.17664 0.64741 0.0
H4212 H 0.61602 0.22821 0.66024 0.0
H4213 H 0.63527 0.23088 0.63692 0.0
C4214 C 0.64524 0.20624 0.61682 0.0
C4215 C 0.65001 0.19212 0.60759 0.0
C4216 C 0.63266 0.20519 0.62888 0.0
C4217 C 0.64104 0.17716 0.60959 0.0
C4218 C 0.62822 0.17605 0.62147 0.0
C4219 C 0.61281 0.18851 0.64485 0.0
C4220 C 0.61019 0.20215 0.65564 0.0
C4221 C 0.62428 0.18988 0.63157 0.0
C4222 C 0.61804 0.21747 0.65225 0.0
C4223 C 0.62905 0.21902 0.63892 0.0
H4224 H 0.77335 0.33907 0.36328 0.0
H4225 H 0.82655 0.34264 0.37108 0.0
H4226 H 0.82775 0.36692 0.35238 0.0
H4227 H 0.814 0.38451 0.33085 0.0
H4228 H 0.76073 0.38 0.32327 0.0
H4229 H 0.7592 0.3589 0.34506 0.0
C4230 C 0.78518 0.34532 0.36106 0.0
C4231 C 0.79988 0.33896 0.36824 0.0
C4232 C 0.78576 0.35904 0.35027 0.0
C4233 C 0.81508 0.34731 0.36559 0.0
C4234 C 0.81577 0.36112 0.35484 0.0
C4235 C 0.80202 0.37919 0.33427 0.0
C4236 C 0.78755 0.3836 0.32524 0.0
C4237 C 0.80125 0.36674 0.34667 0.0
C4238 C 0.7721 0.37662 0.32983 0.0
C4239 C 0.77119 0.36453 0.34227 0.0
H4240 H 0.65505 0.82238 0.38884 0.0
H4241 H 0.65044 0.76893 0.3936 0.0
H4242 H 0.62409 0.7696 0.37811 0.0
H4243 H 0.6041 0.78492 0.36074 0.0
H4244 H 0.61025 0.83792 0.35332 0.0
H4245 H 0.63416 0.83799 0.37243 0.0
C4246 C 0.64807 0.81096 0.38675 0.0
C4247 C 0.65458 0.79564 0.39233 0.0
C4248 C 0.63331 0.81136 0.37723 0.0
C4249 C 0.64563 0.78085 0.38934 0.0
C4250 C 0.63061 0.78123 0.38048 0.0
C4251 C 0.61049 0.79653 0.36354 0.0
C4252 C 0.60545 0.81139 0.35566 0.0
C4253 C 0.62457 0.79634 0.37399 0.0
C4254 C 0.61395 0.82632 0.35923 0.0
C4255 C 0.62763 0.82635 0.37012 0.0
H4256 H 0.21545 0.65906 0.36073 0.0
H4257 H 0.16386 0.65037 0.37357 0.0
H4258 H 0.16327 0.6259 0.35506 0.0
H4259 H 0.17682 0.60895 0.33287 0.0
H4260 H 0.22839 0.61876 0.3203 0.0
H4261 H 0.22961 0.64072 0.34121 0.0
C4262 C 0.20409 0.65175 0.35959 0.0
C4263 C 0.18965 0.65665 0.36823 0.0
C4264 C 0.20384 0.63794 0.34892 0.0
C4265 C 0.17513 0.64686 0.36694 0.0
C4266 C 0.17478 0.63294 0.35632 0.0
C4267 C 0.18839 0.61571 0.33496 0.0
C4268 C 0.20241 0.61241 0.32487 0.0
C4269 C 0.18896 0.62862 0.3469 0.0
C4270 C 0.21733 0.62123 0.32771 0.0
C4271 C 0.21807 0.63381 0.33967 0.0
H4272 H 0.33915 0.18031 0.37187 0.0
H4273 H 0.32832 0.232 0.36077 0.0
H4274 H 0.35245 0.2333 0.34233 0.0
H4275 H 0.37433 0.21903 0.32685 0.0
H4276 H 0.38457 0.16693 0.33634 0.0
H4277 H 0.36324 0.16666 0.35823 0.0
C4278 C 0.34225 0.19193 0.36563 0.0
C4279 C 0.3318 0.20596 0.3675 0.0
C4280 C 0.35598 0.19251 0.3547 0.0
C4281 C 0.336 0.22094 0.35936 0.0
C4282 C 0.34982 0.22172 0.34882 0.0
C4283 C 0.3721 0.20764 0.33384 0.0
C4284 C 0.38085 0.19295 0.32976 0.0
C4285 C 0.35954 0.20744 0.34599 0.0
C4286 C 0.37796 0.1784 0.33916 0.0
C4287 C 0.36567 0.1782 0.3516 0.0
H4288 H 0.64943 0.80622 0.61308 0.0
H4289 H 0.66194 0.75533 0.62595 0.0
H4290 H 0.63638 0.75286 0.64214 0.0
H4291 H 0.61227 0.76581 0.65503 0.0
H4292 H 0.60011 0.81724 0.64432 0.0
H4293 H 0.62343 0.81869 0.62456 0.0
C4294 C 0.64641 0.79455 0.61926 0.0
C4295 C 0.65768 0.78106 0.61852 0.0
C4296 C 0.63177 0.7933 0.62896 0.0
C4297 C 0.65362 0.766 0.62656 0.0
C4298 C 0.63897 0.76454 0.63579 0.0
C4299 C 0.61452 0.77731 0.64824 0.0
C4300 C 0.60458 0.79145 0.65135 0.0
C4301 C 0.62822 0.77823 0.63744 0.0
C4302 C 0.6076 0.80616 0.64222 0.0
C4303 C 0.62102 0.80704 0.63102 0.0
H4304 H 0.61336 0.20525 0.33195 0.0
H4305 H 0.60519 0.15248 0.33896 0.0
H4306 H 0.62621 0.15208 0.36131 0.0
H4307 H 0.64954 0.16621 0.37615 0.0
H4308 H 0.65782 0.21882 0.36768 0.0
H4309 H 0.63404 0.21982 0.34874 0.0
C4310 C 0.61602 0.19368 0.3385 0.0
C4311 C 0.60796 0.17887 0.33363 0.0
C4312 C 0.62825 0.1935 0.351 0.0
C4313 C 0.61129 0.16405 0.34244 0.0
C4314 C 0.62338 0.1638 0.35514 0.0
C4315 C 0.64588 0.17794 0.37042 0.0
C4316 C 0.65556 0.19237 0.37312 0.0
C4317 C 0.63233 0.17836 0.35916 0.0
C4318 C 0.65072 0.20749 0.36561 0.0
C4319 C 0.63712 0.20808 0.35476 0.0
H4320 H 0.80532 0.6096 0.33099 0.0
H4321 H 0.75452 0.62401 0.31963 0.0
H4322 H 0.75464 0.64365 0.34278 0.0
H4323 H 0.76981 0.65867 0.36425 0.0
H4324 H 0.82095 0.64576 0.37556 0.0
H4325 H 0.81998 0.62338 0.35463 0.0
C4326 C 0.79423 0.61687 0.33378 0.0
C4327 C 0.78001 0.61552 0.32347 0.0
C4328 C 0.79447 0.62847 0.347 0.0
C4329 C 0.7657 0.62499 0.32721 0.0
C4330 C 0.76574 0.63623 0.34046 0.0
C4331 C 0.78074 0.6509 0.36226 0.0
C4332 C 0.79551 0.65404 0.37123 0.0
C4333 C 0.78018 0.63839 0.3501 0.0
C4334 C 0.80944 0.64363 0.36874 0.0
C4335 C 0.80892 0.6309 0.35672 0.0
H4336 H 0.37754 0.8083 0.34062 0.0
H4337 H 0.36456 0.75776 0.32683 0.0
H4338 H 0.34471 0.75636 0.34976 0.0
H4339 H 0.32897 0.77025 0.37166 0.0
H4340 H 0.34071 0.82102 0.3854 0.0
H4341 H 0.36334 0.82145 0.36477 0.0
C4342 C 0.37055 0.79691 0.34282 0.0
C4343 C 0.37236 0.78325 0.33186 0.0
C4344 C 0.35887 0.79625 0.35594 0.0
C4345 C 0.36325 0.76855 0.3349 0.0
C4346 C 0.35188 0.76771 0.34803 0.0
C4347 C 0.33657 0.78139 0.37029 0.0
C4348 C 0.333 0.79566 0.37986 0.0
C4349 C 0.34926 0.78163 0.35828 0.0
C4350 C 0.34317 0.80987 0.37814 0.0
C4351 C 0.35604 0.81015 0.36628 0.0
H4352 H 0.17018 0.3852 0.33921 0.0
H4353 H 0.22382 0.3823 0.33406 0.0
H4354 H 0.22549 0.36424 0.35846 0.0
H4355 H 0.21152 0.34581 0.37813 0.0
H4356 H 0.15789 0.34701 0.38292 0.0
H4357 H 0.15637 0.3695 0.36209 0.0
C4358 C 0.18224 0.38093 0.34371 0.0
C4359 C 0.19683 0.38482 0.33468 0.0
C4360 C 0.18309 0.37013 0.35757 0.0
C4361 C 0.21239 0.37924 0.34063 0.0
C4362 C 0.21337 0.36891 0.35458 0.0
C4363 C 0.19952 0.35125 0.37487 0.0
C4364 C 0.18482 0.34466 0.38178 0.0
C4365 C 0.19876 0.36372 0.36266 0.0
C4366 C 0.16937 0.35193 0.37771 0.0
C4367 C 0.16851 0.36465 0.36569 0.0
H4368 H 0.37773 0.16403 0.65132 0.0
H4369 H 0.37885 0.21774 0.64712 0.0
H4370 H 0.36456 0.21618 0.62016 0.0
H4371 H 0.34943 0.19981 0.59926 0.0
H4372 H 0.34561 0.14636 0.60477 0.0
H4373 H 0.36341 0.14747 0.62966 0.0
C4374 C 0.37508 0.17534 0.64433 0.0
C4375 C 0.3793 0.19097 0.65112 0.0
C4376 C 0.36628 0.17438 0.62916 0.0
C4377 C 0.37562 0.20558 0.64212 0.0
C4378 C 0.36746 0.20469 0.62674 0.0
C4379 C 0.35273 0.18837 0.60574 0.0
C4380 C 0.34626 0.17303 0.60022 0.0
C4381 C 0.36238 0.1892 0.62035 0.0
C4382 C 0.35045 0.15832 0.60884 0.0
C4383 C 0.36058 0.15896 0.62308 0.0
H4384 H 0.81106 0.36546 0.64944 0.0
H4385 H 0.7596 0.35339 0.66021 0.0
H4386 H 0.75793 0.33657 0.63496 0.0
H4387 H 0.77182 0.32251 0.61204 0.0
H4388 H 0.8237 0.33253 0.60152 0.0
H4389 H 0.82439 0.35321 0.62416 0.0
C4390 C 0.79943 0.35938 0.64604 0.0
C4391 C 0.78554 0.36046 0.65677 0.0
C4392 C 0.79866 0.34928 0.63163 0.0
C4393 C 0.77053 0.35252 0.65228 0.0
C4394 C 0.76955 0.34292 0.63783 0.0
C4395 C 0.78325 0.32937 0.61452 0.0
C4396 C 0.79775 0.3258 0.60531 0.0
C4397 C 0.78366 0.34076 0.62776 0.0
C4398 C 0.81237 0.33502 0.60848 0.0
C4399 C 0.8128 0.34674 0.62151 0.0
H4400 H 0.1952 0.6108 0.64279 0.0
H4401 H 0.14258 0.61258 0.65413 0.0
H4402 H 0.13775 0.63096 0.63011 0.0
H4403 H 0.14909 0.64849 0.60746 0.0
H4404 H 0.20147 0.64507 0.59514 0.0
H4405 H 0.2058 0.62514 0.61782 0.0
C4406 C 0.18266 0.61508 0.63983 0.0
C4407 C 0.16929 0.61062 0.65021 0.0
C4408 C 0.17997 0.62534 0.6259 0.0
C4409 C 0.15304 0.61594 0.64623 0.0
C4410 C 0.1503 0.62648 0.63258 0.0
C4411 C 0.16138 0.64316 0.60962 0.0
C4412 C 0.17497 0.64834 0.59982 0.0
C4413 C 0.16374 0.63155 0.62255 0.0
C4414 C 0.19081 0.64124 0.60254 0.0
C4415 C 0.19333 0.62993 0.61557 0.0
loop_
_geom_bond_atom_site_label_1
_geom_bond_atom_site_label_2
_geom_bond_distance
_geom_bond_site_symmetry_2
_ccdc_geom_bond_type
C0 O1 1.306 . S
C0 O3 1.160 . S
O1 C0 1.306 . S
O1 Cd2 2.228 . S
Cd2 O1 2.228 . S
Cd2 O6 2.273 . S
Cd2 O10 2.277 . S
O3 C0 1.160 . S
O3 Cd4 2.203 . S
Cd4 O3 2.203 . S
Cd4 O6 2.411 . S
Cd4 O7 2.333 . S
Cd4 O8 2.352 . S
Cd4 O12 2.277 . S
Cd4 O13 2.356 . S
C5 O10 1.209 . S
C5 O12 1.226 . S
O6 Cd2 2.273 . S
O6 Cd4 2.411 . S
O6 C9 1.320 . S
O7 Cd4 2.333 . S
O7 C9 1.214 . S
O8 Cd4 2.352 . S
O8 C11 1.258 . S
C9 O6 1.320 . S
C9 O7 1.214 . S
O10 Cd2 2.277 . S
O10 C5 1.209 . S
C11 O8 1.258 . S
C11 O13 1.282 . S
O12 Cd4 2.277 . S
O12 C5 1.226 . S
O13 Cd4 2.356 . S
O13 C11 1.282 . S
C14 O15 1.306 . S
C14 O17 1.160 . S
O15 C14 1.306 . S
O15 Cd16 2.228 . S
Cd16 O15 2.228 . S
Cd16 O20 2.273 . S
Cd16 O24 2.277 . S
O17 C14 1.160 . S
O17 Cd18 2.203 . S
Cd18 O17 2.203 . S
Cd18 O20 2.411 . S
Cd18 O21 2.333 . S
Cd18 O22 2.352 . S
Cd18 O26 2.277 . S
Cd18 O27 2.356 . S
C19 O24 1.209 . S
C19 O26 1.226 . S
O20 Cd16 2.273 . S
O20 Cd18 2.411 . S
O20 C23 1.320 . S
O21 Cd18 2.333 . S
O21 C23 1.214 . S
O22 Cd18 2.352 . S
O22 C25 1.258 . S
C23 O20 1.320 . S
C23 O21 1.214 . S
O24 Cd16 2.277 . S
O24 C19 1.209 . S
C25 O22 1.258 . S
C25 O27 1.282 . S
O26 Cd18 2.277 . S
O26 C19 1.226 . S
O27 Cd18 2.356 . S
O27 C25 1.282 . S
C28 O29 1.306 . S
C28 O31 1.160 . S
O29 C28 1.306 . S
O29 Cd30 2.228 . S
Cd30 O29 2.228 . S
Cd30 O34 2.273 . S
Cd30 O38 2.277 . S
O31 C28 1.160 . S
O31 Cd32 2.203 . S
Cd32 O31 2.203 . S
Cd32 O34 2.411 . S
Cd32 O35 2.333 . S
Cd32 O36 2.352 . S
Cd32 O40 2.277 . S
Cd32 O41 2.356 . S
C33 O38 1.209 . S
C33 O40 1.226 . S
O34 Cd30 2.273 . S
O34 Cd32 2.411 . S
O34 C37 1.320 . S
O35 Cd32 2.333 . S
O35 C37 1.214 . S
O36 Cd32 2.352 . S
O36 C39 1.258 . S
C37 O34 1.320 . S
C37 O35 1.214 . S
O38 Cd30 2.277 . S
O38 C33 1.209 . S
C39 O36 1.258 . S
C39 O41 1.282 . S
O40 Cd32 2.277 . S
O40 C33 1.226 . S
O41 Cd32 2.356 . S
O41 C39 1.282 . S
C42 O43 1.306 . S
C42 O45 1.160 . S
O43 C42 1.306 . S
O43 Cd44 2.228 . S
Cd44 O43 2.228 . S
Cd44 O48 2.273 . S
Cd44 O52 2.277 . S
O45 C42 1.160 . S
O45 Cd46 2.203 . S
Cd46 O45 2.203 . S
Cd46 O48 2.411 . S
Cd46 O49 2.333 . S
Cd46 O50 2.352 . S
Cd46 O54 2.277 . S
Cd46 O55 2.356 . S
C47 O52 1.209 . S
C47 O54 1.226 . S
O48 Cd44 2.273 . S
O48 Cd46 2.411 . S
O48 C51 1.320 . S
O49 Cd46 2.333 . S
O49 C51 1.214 . S
O50 Cd46 2.352 . S
O50 C53 1.258 . S
C51 O48 1.320 . S
C51 O49 1.214 . S
O52 Cd44 2.277 . S
O52 C47 1.209 . S
C53 O50 1.258 . S
C53 O55 1.282 . S
O54 Cd46 2.277 . S
O54 C47 1.226 . S
O55 Cd46 2.356 . S
O55 C53 1.282 . S
C56 O57 1.306 . S
C56 O59 1.160 . S
O57 C56 1.306 . S
O57 Cd58 2.228 . S
Cd58 O57 2.228 . S
Cd58 O62 2.273 . S
Cd58 O66 2.277 . S
O59 C56 1.160 . S
O59 Cd60 2.203 . S
Cd60 O59 2.203 . S
Cd60 O62 2.411 . S
Cd60 O63 2.333 . S
Cd60 O64 2.352 . S
Cd60 O68 2.277 . S
Cd60 O69 2.356 . S
C61 O66 1.209 . S
C61 O68 1.226 . S
O62 Cd58 2.273 . S
O62 Cd60 2.411 . S
O62 C65 1.320 . S
O63 Cd60 2.333 . S
O63 C65 1.214 . S
O64 Cd60 2.352 . S
O64 C67 1.258 . S
C65 O62 1.320 . S
C65 O63 1.214 . S
O66 Cd58 2.277 . S
O66 C61 1.209 . S
C67 O64 1.258 . S
C67 O69 1.282 . S
O68 Cd60 2.277 . S
O68 C61 1.226 . S
O69 Cd60 2.356 . S
O69 C67 1.282 . S
C70 O71 1.306 . S
C70 O73 1.160 . S
O71 C70 1.306 . S
O71 Cd72 2.228 . S
Cd72 O71 2.228 . S
Cd72 O76 2.273 . S
Cd72 O80 2.277 . S
O73 C70 1.160 . S
O73 Cd74 2.203 . S
Cd74 O73 2.203 . S
Cd74 O76 2.411 . S
Cd74 O77 2.333 . S
Cd74 O78 2.352 . S
Cd74 O82 2.277 . S
Cd74 O83 2.356 . S
C75 O80 1.209 . S
C75 O82 1.226 . S
O76 Cd72 2.273 . S
O76 Cd74 2.411 . S
O76 C79 1.320 . S
O77 Cd74 2.333 . S
O77 C79 1.214 . S
O78 Cd74 2.352 . S
O78 C81 1.258 . S
C79 O76 1.320 . S
C79 O77 1.214 . S
O80 Cd72 2.277 . S
O80 C75 1.209 . S
C81 O78 1.258 . S
C81 O83 1.282 . S
O82 Cd74 2.277 . S
O82 C75 1.226 . S
O83 Cd74 2.356 . S
O83 C81 1.282 . S
C84 O85 1.306 . S
C84 O87 1.160 . S
O85 C84 1.306 . S
O85 Cd86 2.228 . S
Cd86 O85 2.228 . S
Cd86 O90 2.273 . S
Cd86 O94 2.277 . S
O87 C84 1.160 . S
O87 Cd88 2.203 . S
Cd88 O87 2.203 . S
Cd88 O90 2.411 . S
Cd88 O91 2.333 . S
Cd88 O92 2.352 . S
Cd88 O96 2.277 . S
Cd88 O97 2.356 . S
C89 O94 1.209 . S
C89 O96 1.226 . S
O90 Cd86 2.273 . S
O90 Cd88 2.411 . S
O90 C93 1.320 . S
O91 Cd88 2.333 . S
O91 C93 1.214 . S
O92 Cd88 2.352 . S
O92 C95 1.258 . S
C93 O90 1.320 . S
C93 O91 1.214 . S
O94 Cd86 2.277 . S
O94 C89 1.209 . S
C95 O92 1.258 . S
C95 O97 1.282 . S
O96 Cd88 2.277 . S
O96 C89 1.226 . S
O97 Cd88 2.356 . S
O97 C95 1.282 . S
C98 O99 1.306 . S
C98 O101 1.160 . S
O99 C98 1.306 . S
O99 Cd100 2.228 . S
Cd100 O99 2.228 . S
Cd100 O104 2.273 . S
Cd100 O108 2.277 . S
O101 C98 1.160 . S
O101 Cd102 2.203 . S
Cd102 O101 2.203 . S
Cd102 O104 2.411 . S
Cd102 O105 2.333 . S
Cd102 O106 2.352 . S
Cd102 O110 2.277 . S
Cd102 O111 2.356 . S
C103 O108 1.209 . S
C103 O110 1.226 . S
O104 Cd100 2.273 . S
O104 Cd102 2.411 . S
O104 C107 1.320 . S
O105 Cd102 2.333 . S
O105 C107 1.214 . S
O106 Cd102 2.352 . S
O106 C109 1.258 . S
C107 O104 1.320 . S
C107 O105 1.214 . S
O108 Cd100 2.277 . S
O108 C103 1.209 . S
C109 O106 1.258 . S
C109 O111 1.282 . S
O110 Cd102 2.277 . S
O110 C103 1.226 . S
O111 Cd102 2.356 . S
O111 C109 1.282 . S
C112 O113 1.306 . S
C112 O115 1.160 . S
O113 C112 1.306 . S
O113 Cd114 2.228 . S
Cd114 O113 2.228 . S
Cd114 O118 2.273 . S
Cd114 O122 2.277 . S
O115 C112 1.160 . S
O115 Cd116 2.203 . S
Cd116 O115 2.203 . S
Cd116 O118 2.411 . S
Cd116 O119 2.333 . S
Cd116 O120 2.352 . S
Cd116 O124 2.277 . S
Cd116 O125 2.356 . S
C117 O122 1.209 . S
C117 O124 1.226 . S
O118 Cd114 2.273 . S
O118 Cd116 2.411 . S
O118 C121 1.320 . S
O119 Cd116 2.333 . S
O119 C121 1.214 . S
O120 Cd116 2.352 . S
O120 C123 1.258 . S
C121 O118 1.320 . S
C121 O119 1.214 . S
O122 Cd114 2.277 . S
O122 C117 1.209 . S
C123 O120 1.258 . S
C123 O125 1.282 . S
O124 Cd116 2.277 . S
O124 C117 1.226 . S
O125 Cd116 2.356 . S
O125 C123 1.282 . S
C126 O127 1.306 . S
C126 O129 1.160 . S
O127 C126 1.306 . S
O127 Cd128 2.228 . S
Cd128 O127 2.228 . S
Cd128 O132 2.273 . S
Cd128 O136 2.277 . S
O129 C126 1.160 . S
O129 Cd130 2.203 . S
Cd130 O129 2.203 . S
Cd130 O132 2.411 . S
Cd130 O133 2.333 . S
Cd130 O134 2.352 . S
Cd130 O138 2.277 . S
Cd130 O139 2.356 . S
C131 O136 1.209 . S
C131 O138 1.226 . S
O132 Cd128 2.273 . S
O132 Cd130 2.411 . S
O132 C135 1.320 . S
O133 Cd130 2.333 . S
O133 C135 1.214 . S
O134 Cd130 2.352 . S
O134 C137 1.258 . S
C135 O132 1.320 . S
C135 O133 1.214 . S
O136 Cd128 2.277 . S
O136 C131 1.209 . S
C137 O134 1.258 . S
C137 O139 1.282 . S
O138 Cd130 2.277 . S
O138 C131 1.226 . S
O139 Cd130 2.356 . S
O139 C137 1.282 . S
C140 O141 1.306 . S
C140 O143 1.160 . S
O141 C140 1.306 . S
O141 Cd142 2.228 . S
Cd142 O141 2.228 . S
Cd142 O146 2.273 . S
Cd142 O150 2.277 . S
O143 C140 1.160 . S
O143 Cd144 2.203 . S
Cd144 O143 2.203 . S
Cd144 O146 2.411 . S
Cd144 O147 2.333 . S
Cd144 O148 2.352 . S
Cd144 O152 2.277 . S
Cd144 O153 2.356 . S
C145 O150 1.209 . S
C145 O152 1.226 . S
O146 Cd142 2.273 . S
O146 Cd144 2.411 . S
O146 C149 1.320 . S
O147 Cd144 2.333 . S
O147 C149 1.214 . S
O148 Cd144 2.352 . S
O148 C151 1.258 . S
C149 O146 1.320 . S
C149 O147 1.214 . S
O150 Cd142 2.277 . S
O150 C145 1.209 . S
C151 O148 1.258 . S
C151 O153 1.282 . S
O152 Cd144 2.277 . S
O152 C145 1.226 . S
O153 Cd144 2.356 . S
O153 C151 1.282 . S
C154 O155 1.306 . S
C154 O157 1.160 . S
O155 C154 1.306 . S
O155 Cd156 2.228 . S
Cd156 O155 2.228 . S
Cd156 O160 2.273 . S
Cd156 O164 2.277 . S
O157 C154 1.160 . S
O157 Cd158 2.203 . S
Cd158 O157 2.203 . S
Cd158 O160 2.411 . S
Cd158 O161 2.333 . S
Cd158 O162 2.352 . S
Cd158 O166 2.277 . S
Cd158 O167 2.356 . S
C159 O164 1.209 . S
C159 O166 1.226 . S
O160 Cd156 2.273 . S
O160 Cd158 2.411 . S
O160 C163 1.320 . S
O161 Cd158 2.333 . S
O161 C163 1.214 . S
O162 Cd158 2.352 . S
O162 C165 1.258 . S
C163 O160 1.320 . S
C163 O161 1.214 . S
O164 Cd156 2.277 . S
O164 C159 1.209 . S
C165 O162 1.258 . S
C165 O167 1.282 . S
O166 Cd158 2.277 . S
O166 C159 1.226 . S
O167 Cd158 2.356 . S
O167 C165 1.282 . S
C168 O169 1.306 . S
C168 O171 1.160 . S
O169 C168 1.306 . S
O169 Cd170 2.228 . S
Cd170 O169 2.228 . S
Cd170 O174 2.273 . S
Cd170 O178 2.277 . S
O171 C168 1.160 . S
O171 Cd172 2.203 . S
Cd172 O171 2.203 . S
Cd172 O174 2.411 . S
Cd172 O175 2.333 . S
Cd172 O176 2.352 . S
Cd172 O180 2.277 . S
Cd172 O181 2.356 . S
C173 O178 1.209 . S
C173 O180 1.226 . S
O174 Cd170 2.273 . S
O174 Cd172 2.411 . S
O174 C177 1.320 . S
O175 Cd172 2.333 . S
O175 C177 1.214 . S
O176 Cd172 2.352 . S
O176 C179 1.258 . S
C177 O174 1.320 . S
C177 O175 1.214 . S
O178 Cd170 2.277 . S
O178 C173 1.209 . S
C179 O176 1.258 . S
C179 O181 1.282 . S
O180 Cd172 2.277 . S
O180 C173 1.226 . S
O181 Cd172 2.356 . S
O181 C179 1.282 . S
C182 O183 1.306 . S
C182 O185 1.160 . S
O183 C182 1.306 . S
O183 Cd184 2.228 . S
Cd184 O183 2.228 . S
Cd184 O188 2.273 . S
Cd184 O192 2.277 . S
O185 C182 1.160 . S
O185 Cd186 2.203 . S
Cd186 O185 2.203 . S
Cd186 O188 2.411 . S
Cd186 O189 2.333 . S
Cd186 O190 2.352 . S
Cd186 O194 2.277 . S
Cd186 O195 2.356 . S
C187 O192 1.209 . S
C187 O194 1.226 . S
O188 Cd184 2.273 . S
O188 Cd186 2.411 . S
O188 C191 1.320 . S
O189 Cd186 2.333 . S
O189 C191 1.214 . S
O190 Cd186 2.352 . S
O190 C193 1.258 . S
C191 O188 1.320 . S
C191 O189 1.214 . S
O192 Cd184 2.277 . S
O192 C187 1.209 . S
C193 O190 1.258 . S
C193 O195 1.282 . S
O194 Cd186 2.277 . S
O194 C187 1.226 . S
O195 Cd186 2.356 . S
O195 C193 1.282 . S
C196 O197 1.306 . S
C196 O199 1.160 . S
O197 C196 1.306 . S
O197 Cd198 2.228 . S
Cd198 O197 2.228 . S
Cd198 O202 2.273 . S
Cd198 O206 2.277 . S
O199 C196 1.160 . S
O199 Cd200 2.203 . S
Cd200 O199 2.203 . S
Cd200 O202 2.411 . S
Cd200 O203 2.333 . S
Cd200 O204 2.352 . S
Cd200 O208 2.277 . S
Cd200 O209 2.356 . S
C201 O206 1.209 . S
C201 O208 1.226 . S
O202 Cd198 2.273 . S
O202 Cd200 2.411 . S
O202 C205 1.320 . S
O203 Cd200 2.333 . S
O203 C205 1.214 . S
O204 Cd200 2.352 . S
O204 C207 1.258 . S
C205 O202 1.320 . S
C205 O203 1.214 . S
O206 Cd198 2.277 . S
O206 C201 1.209 . S
C207 O204 1.258 . S
C207 O209 1.282 . S
O208 Cd200 2.277 . S
O208 C201 1.226 . S
O209 Cd200 2.356 . S
O209 C207 1.282 . S
C210 O211 1.306 . S
C210 O213 1.160 . S
O211 C210 1.306 . S
O211 Cd212 2.228 . S
Cd212 O211 2.228 . S
Cd212 O216 2.273 . S
Cd212 O220 2.277 . S
O213 C210 1.160 . S
O213 Cd214 2.203 . S
Cd214 O213 2.203 . S
Cd214 O216 2.411 . S
Cd214 O217 2.333 . S
Cd214 O218 2.352 . S
Cd214 O222 2.277 . S
Cd214 O223 2.356 . S
C215 O220 1.209 . S
C215 O222 1.226 . S
O216 Cd212 2.273 . S
O216 Cd214 2.411 . S
O216 C219 1.320 . S
O217 Cd214 2.333 . S
O217 C219 1.214 . S
O218 Cd214 2.352 . S
O218 C221 1.258 . S
C219 O216 1.320 . S
C219 O217 1.214 . S
O220 Cd212 2.277 . S
O220 C215 1.209 . S
C221 O218 1.258 . S
C221 O223 1.282 . S
O222 Cd214 2.277 . S
O222 C215 1.226 . S
O223 Cd214 2.356 . S
O223 C221 1.282 . S
C224 O225 1.306 . S
C224 O227 1.160 . S
O225 C224 1.306 . S
O225 Cd226 2.228 . S
Cd226 O225 2.228 . S
Cd226 O230 2.273 . S
Cd226 O234 2.277 . S
O227 C224 1.160 . S
O227 Cd228 2.203 . S
Cd228 O227 2.203 . S
Cd228 O230 2.411 . S
Cd228 O231 2.333 . S
Cd228 O232 2.352 . S
Cd228 O236 2.277 . S
Cd228 O237 2.356 . S
C229 O234 1.209 . S
C229 O236 1.226 . S
O230 Cd226 2.273 . S
O230 Cd228 2.411 . S
O230 C233 1.320 . S
O231 Cd228 2.333 . S
O231 C233 1.214 . S
O232 Cd228 2.352 . S
O232 C235 1.258 . S
C233 O230 1.320 . S
C233 O231 1.214 . S
O234 Cd226 2.277 . S
O234 C229 1.209 . S
C235 O232 1.258 . S
C235 O237 1.282 . S
O236 Cd228 2.277 . S
O236 C229 1.226 . S
O237 Cd228 2.356 . S
O237 C235 1.282 . S
C238 O239 1.306 . S
C238 O241 1.160 . S
O239 C238 1.306 . S
O239 Cd240 2.228 . S
Cd240 O239 2.228 . S
Cd240 O244 2.273 . S
Cd240 O248 2.277 . S
O241 C238 1.160 . S
O241 Cd242 2.203 . S
Cd242 O241 2.203 . S
Cd242 O244 2.411 . S
Cd242 O245 2.333 . S
Cd242 O246 2.352 . S
Cd242 O250 2.277 . S
Cd242 O251 2.356 . S
C243 O248 1.209 . S
C243 O250 1.226 . S
O244 Cd240 2.273 . S
O244 Cd242 2.411 . S
O244 C247 1.320 . S
O245 Cd242 2.333 . S
O245 C247 1.214 . S
O246 Cd242 2.352 . S
O246 C249 1.258 . S
C247 O244 1.320 . S
C247 O245 1.214 . S
O248 Cd240 2.277 . S
O248 C243 1.209 . S
C249 O246 1.258 . S
C249 O251 1.282 . S
O250 Cd242 2.277 . S
O250 C243 1.226 . S
O251 Cd242 2.356 . S
O251 C249 1.282 . S
C252 O253 1.306 . S
C252 O255 1.160 . S
O253 C252 1.306 . S
O253 Cd254 2.228 . S
Cd254 O253 2.228 . S
Cd254 O258 2.273 . S
Cd254 O262 2.277 . S
O255 C252 1.160 . S
O255 Cd256 2.203 . S
Cd256 O255 2.203 . S
Cd256 O258 2.411 . S
Cd256 O259 2.333 . S
Cd256 O260 2.352 . S
Cd256 O264 2.277 . S
Cd256 O265 2.356 . S
C257 O262 1.209 . S
C257 O264 1.226 . S
O258 Cd254 2.273 . S
O258 Cd256 2.411 . S
O258 C261 1.320 . S
O259 Cd256 2.333 . S
O259 C261 1.214 . S
O260 Cd256 2.352 . S
O260 C263 1.258 . S
C261 O258 1.320 . S
C261 O259 1.214 . S
O262 Cd254 2.277 . S
O262 C257 1.209 . S
C263 O260 1.258 . S
C263 O265 1.282 . S
O264 Cd256 2.277 . S
O264 C257 1.226 . S
O265 Cd256 2.356 . S
O265 C263 1.282 . S
C266 O267 1.306 . S
C266 O269 1.160 . S
O267 C266 1.306 . S
O267 Cd268 2.228 . S
Cd268 O267 2.228 . S
Cd268 O272 2.273 . S
Cd268 O276 2.277 . S
O269 C266 1.160 . S
O269 Cd270 2.203 . S
Cd270 O269 2.203 . S
Cd270 O272 2.411 . S
Cd270 O273 2.333 . S
Cd270 O274 2.352 . S
Cd270 O278 2.277 . S
Cd270 O279 2.356 . S
C271 O276 1.209 . S
C271 O278 1.226 . S
O272 Cd268 2.273 . S
O272 Cd270 2.411 . S
O272 C275 1.320 . S
O273 Cd270 2.333 . S
O273 C275 1.214 . S
O274 Cd270 2.352 . S
O274 C277 1.258 . S
C275 O272 1.320 . S
C275 O273 1.214 . S
O276 Cd268 2.277 . S
O276 C271 1.209 . S
C277 O274 1.258 . S
C277 O279 1.282 . S
O278 Cd270 2.277 . S
O278 C271 1.226 . S
O279 Cd270 2.356 . S
O279 C277 1.282 . S
C280 O281 1.306 . S
C280 O283 1.160 . S
O281 C280 1.306 . S
O281 Cd282 2.228 . S
Cd282 O281 2.228 . S
Cd282 O286 2.273 . S
Cd282 O290 2.277 . S
O283 C280 1.160 . S
O283 Cd284 2.203 . S
Cd284 O283 2.203 . S
Cd284 O286 2.411 . S
Cd284 O287 2.333 . S
Cd284 O288 2.352 . S
Cd284 O292 2.277 . S
Cd284 O293 2.356 . S
C285 O290 1.209 . S
C285 O292 1.226 . S
O286 Cd282 2.273 . S
O286 Cd284 2.411 . S
O286 C289 1.320 . S
O287 Cd284 2.333 . S
O287 C289 1.214 . S
O288 Cd284 2.352 . S
O288 C291 1.258 . S
C289 O286 1.320 . S
C289 O287 1.214 . S
O290 Cd282 2.277 . S
O290 C285 1.209 . S
C291 O288 1.258 . S
C291 O293 1.282 . S
O292 Cd284 2.277 . S
O292 C285 1.226 . S
O293 Cd284 2.356 . S
O293 C291 1.282 . S
C294 O295 1.306 . S
C294 O297 1.160 . S
O295 C294 1.306 . S
O295 Cd296 2.228 . S
Cd296 O295 2.228 . S
Cd296 O300 2.273 . S
Cd296 O304 2.277 . S
O297 C294 1.160 . S
O297 Cd298 2.203 . S
Cd298 O297 2.203 . S
Cd298 O300 2.411 . S
Cd298 O301 2.333 . S
Cd298 O302 2.352 . S
Cd298 O306 2.277 . S
Cd298 O307 2.356 . S
C299 O304 1.209 . S
C299 O306 1.226 . S
O300 Cd296 2.273 . S
O300 Cd298 2.411 . S
O300 C303 1.320 . S
O301 Cd298 2.333 . S
O301 C303 1.214 . S
O302 Cd298 2.352 . S
O302 C305 1.258 . S
C303 O300 1.320 . S
C303 O301 1.214 . S
O304 Cd296 2.277 . S
O304 C299 1.209 . S
C305 O302 1.258 . S
C305 O307 1.282 . S
O306 Cd298 2.277 . S
O306 C299 1.226 . S
O307 Cd298 2.356 . S
O307 C305 1.282 . S
C308 O309 1.306 . S
C308 O311 1.160 . S
O309 C308 1.306 . S
O309 Cd310 2.228 . S
Cd310 O309 2.228 . S
Cd310 O314 2.273 . S
Cd310 O318 2.277 . S
O311 C308 1.160 . S
O311 Cd312 2.203 . S
Cd312 O311 2.203 . S
Cd312 O314 2.411 . S
Cd312 O315 2.333 . S
Cd312 O316 2.352 . S
Cd312 O320 2.277 . S
Cd312 O321 2.356 . S
C313 O318 1.209 . S
C313 O320 1.226 . S
O314 Cd310 2.273 . S
O314 Cd312 2.411 . S
O314 C317 1.320 . S
O315 Cd312 2.333 . S
O315 C317 1.214 . S
O316 Cd312 2.352 . S
O316 C319 1.258 . S
C317 O314 1.320 . S
C317 O315 1.214 . S
O318 Cd310 2.277 . S
O318 C313 1.209 . S
C319 O316 1.258 . S
C319 O321 1.282 . S
O320 Cd312 2.277 . S
O320 C313 1.226 . S
O321 Cd312 2.356 . S
O321 C319 1.282 . S
C322 O323 1.306 . S
C322 O325 1.160 . S
O323 C322 1.306 . S
O323 Cd324 2.228 . S
Cd324 O323 2.228 . S
Cd324 O328 2.273 . S
Cd324 O332 2.277 . S
O325 C322 1.160 . S
O325 Cd326 2.203 . S
Cd326 O325 2.203 . S
Cd326 O328 2.411 . S
Cd326 O329 2.333 . S
Cd326 O330 2.352 . S
Cd326 O334 2.277 . S
Cd326 O335 2.356 . S
C327 O332 1.209 . S
C327 O334 1.226 . S
O328 Cd324 2.273 . S
O328 Cd326 2.411 . S
O328 C331 1.320 . S
O329 Cd326 2.333 . S
O329 C331 1.214 . S
O330 Cd326 2.352 . S
O330 C333 1.258 . S
C331 O328 1.320 . S
C331 O329 1.214 . S
O332 Cd324 2.277 . S
O332 C327 1.209 . S
C333 O330 1.258 . S
C333 O335 1.282 . S
O334 Cd326 2.277 . S
O334 C327 1.226 . S
O335 Cd326 2.356 . S
O335 C333 1.282 . S
C336 O337 1.306 . S
C336 O339 1.160 . S
O337 C336 1.306 . S
O337 Cd338 2.228 . S
Cd338 O337 2.228 . S
Cd338 O342 2.273 . S
Cd338 O346 2.277 . S
O339 C336 1.160 . S
O339 Cd340 2.203 . S
Cd340 O339 2.203 . S
Cd340 O342 2.411 . S
Cd340 O343 2.333 . S
Cd340 O344 2.352 . S
Cd340 O348 2.277 . S
Cd340 O349 2.356 . S
C341 O346 1.209 . S
C341 O348 1.226 . S
O342 Cd338 2.273 . S
O342 Cd340 2.411 . S
O342 C345 1.320 . S
O343 Cd340 2.333 . S
O343 C345 1.214 . S
O344 Cd340 2.352 . S
O344 C347 1.258 . S
C345 O342 1.320 . S
C345 O343 1.214 . S
O346 Cd338 2.277 . S
O346 C341 1.209 . S
C347 O344 1.258 . S
C347 O349 1.282 . S
O348 Cd340 2.277 . S
O348 C341 1.226 . S
O349 Cd340 2.356 . S
O349 C347 1.282 . S
C350 O351 1.306 . S
C350 O353 1.160 . S
O351 C350 1.306 . S
O351 Cd352 2.228 . S
Cd352 O351 2.228 . S
Cd352 O356 2.273 . S
Cd352 O360 2.277 . S
O353 C350 1.160 . S
O353 Cd354 2.203 . S
Cd354 O353 2.203 . S
Cd354 O356 2.411 . S
Cd354 O357 2.333 . S
Cd354 O358 2.352 . S
Cd354 O362 2.277 . S
Cd354 O363 2.356 . S
C355 O360 1.209 . S
C355 O362 1.226 . S
O356 Cd352 2.273 . S
O356 Cd354 2.411 . S
O356 C359 1.320 . S
O357 Cd354 2.333 . S
O357 C359 1.214 . S
O358 Cd354 2.352 . S
O358 C361 1.258 . S
C359 O356 1.320 . S
C359 O357 1.214 . S
O360 Cd352 2.277 . S
O360 C355 1.209 . S
C361 O358 1.258 . S
C361 O363 1.282 . S
O362 Cd354 2.277 . S
O362 C355 1.226 . S
O363 Cd354 2.356 . S
O363 C361 1.282 . S
C364 O365 1.306 . S
C364 O367 1.160 . S
O365 C364 1.306 . S
O365 Cd366 2.228 . S
Cd366 O365 2.228 . S
Cd366 O370 2.273 . S
Cd366 O374 2.277 . S
O367 C364 1.160 . S
O367 Cd368 2.203 . S
Cd368 O367 2.203 . S
Cd368 O370 2.411 . S
Cd368 O371 2.333 . S
Cd368 O372 2.352 . S
Cd368 O376 2.277 . S
Cd368 O377 2.356 . S
C369 O374 1.209 . S
C369 O376 1.226 . S
O370 Cd366 2.273 . S
O370 Cd368 2.411 . S
O370 C373 1.320 . S
O371 Cd368 2.333 . S
O371 C373 1.214 . S
O372 Cd368 2.352 . S
O372 C375 1.258 . S
C373 O370 1.320 . S
C373 O371 1.214 . S
O374 Cd366 2.277 . S
O374 C369 1.209 . S
C375 O372 1.258 . S
C375 O377 1.282 . S
O376 Cd368 2.277 . S
O376 C369 1.226 . S
O377 Cd368 2.356 . S
O377 C375 1.282 . S
C378 O379 1.306 . S
C378 O381 1.160 . S
O379 C378 1.306 . S
O379 Cd380 2.228 . S
Cd380 O379 2.228 . S
Cd380 O384 2.273 . S
Cd380 O388 2.277 . S
O381 C378 1.160 . S
O381 Cd382 2.203 . S
Cd382 O381 2.203 . S
Cd382 O384 2.411 . S
Cd382 O385 2.333 . S
Cd382 O386 2.352 . S
Cd382 O390 2.277 . S
Cd382 O391 2.356 . S
C383 O388 1.209 . S
C383 O390 1.226 . S
O384 Cd380 2.273 . S
O384 Cd382 2.411 . S
O384 C387 1.320 . S
O385 Cd382 2.333 . S
O385 C387 1.214 . S
O386 Cd382 2.352 . S
O386 C389 1.258 . S
C387 O384 1.320 . S
C387 O385 1.214 . S
O388 Cd380 2.277 . S
O388 C383 1.209 . S
C389 O386 1.258 . S
C389 O391 1.282 . S
O390 Cd382 2.277 . S
O390 C383 1.226 . S
O391 Cd382 2.356 . S
O391 C389 1.282 . S
C392 O393 1.306 . S
C392 O395 1.160 . S
O393 C392 1.306 . S
O393 Cd394 2.228 . S
Cd394 O393 2.228 . S
Cd394 O398 2.273 . S
Cd394 O402 2.277 . S
O395 C392 1.160 . S
O395 Cd396 2.203 . S
Cd396 O395 2.203 . S
Cd396 O398 2.411 . S
Cd396 O399 2.333 . S
Cd396 O400 2.352 . S
Cd396 O404 2.277 . S
Cd396 O405 2.356 . S
C397 O402 1.209 . S
C397 O404 1.226 . S
O398 Cd394 2.273 . S
O398 Cd396 2.411 . S
O398 C401 1.320 . S
O399 Cd396 2.333 . S
O399 C401 1.214 . S
O400 Cd396 2.352 . S
O400 C403 1.258 . S
C401 O398 1.320 . S
C401 O399 1.214 . S
O402 Cd394 2.277 . S
O402 C397 1.209 . S
C403 O400 1.258 . S
C403 O405 1.282 . S
O404 Cd396 2.277 . S
O404 C397 1.226 . S
O405 Cd396 2.356 . S
O405 C403 1.282 . S
C406 O407 1.306 . S
C406 O409 1.160 . S
O407 C406 1.306 . S
O407 Cd408 2.228 . S
Cd408 O407 2.228 . S
Cd408 O412 2.273 . S
Cd408 O416 2.277 . S
O409 C406 1.160 . S
O409 Cd410 2.203 . S
Cd410 O409 2.203 . S
Cd410 O412 2.411 . S
Cd410 O413 2.333 . S
Cd410 O414 2.352 . S
Cd410 O418 2.277 . S
Cd410 O419 2.356 . S
C411 O416 1.209 . S
C411 O418 1.226 . S
O412 Cd408 2.273 . S
O412 Cd410 2.411 . S
O412 C415 1.320 . S
O413 Cd410 2.333 . S
O413 C415 1.214 . S
O414 Cd410 2.352 . S
O414 C417 1.258 . S
C415 O412 1.320 . S
C415 O413 1.214 . S
O416 Cd408 2.277 . S
O416 C411 1.209 . S
C417 O414 1.258 . S
C417 O419 1.282 . S
O418 Cd410 2.277 . S
O418 C411 1.226 . S
O419 Cd410 2.356 . S
O419 C417 1.282 . S
C420 O421 1.306 . S
C420 O423 1.160 . S
O421 C420 1.306 . S
O421 Cd422 2.228 . S
Cd422 O421 2.228 . S
Cd422 O426 2.273 . S
Cd422 O430 2.277 . S
O423 C420 1.160 . S
O423 Cd424 2.203 . S
Cd424 O423 2.203 . S
Cd424 O426 2.411 . S
Cd424 O427 2.333 . S
Cd424 O428 2.352 . S
Cd424 O432 2.277 . S
Cd424 O433 2.356 . S
C425 O430 1.209 . S
C425 O432 1.226 . S
O426 Cd422 2.273 . S
O426 Cd424 2.411 . S
O426 C429 1.320 . S
O427 Cd424 2.333 . S
O427 C429 1.214 . S
O428 Cd424 2.352 . S
O428 C431 1.258 . S
C429 O426 1.320 . S
C429 O427 1.214 . S
O430 Cd422 2.277 . S
O430 C425 1.209 . S
C431 O428 1.258 . S
C431 O433 1.282 . S
O432 Cd424 2.277 . S
O432 C425 1.226 . S
O433 Cd424 2.356 . S
O433 C431 1.282 . S
C434 O435 1.306 . S
C434 O437 1.160 . S
O435 C434 1.306 . S
O435 Cd436 2.228 . S
Cd436 O435 2.228 . S
Cd436 O440 2.273 . S
Cd436 O444 2.277 . S
O437 C434 1.160 . S
O437 Cd438 2.203 . S
Cd438 O437 2.203 . S
Cd438 O440 2.411 . S
Cd438 O441 2.333 . S
Cd438 O442 2.352 . S
Cd438 O446 2.277 . S
Cd438 O447 2.356 . S
C439 O444 1.209 . S
C439 O446 1.226 . S
O440 Cd436 2.273 . S
O440 Cd438 2.411 . S
O440 C443 1.320 . S
O441 Cd438 2.333 . S
O441 C443 1.214 . S
O442 Cd438 2.352 . S
O442 C445 1.258 . S
C443 O440 1.320 . S
C443 O441 1.214 . S
O444 Cd436 2.277 . S
O444 C439 1.209 . S
C445 O442 1.258 . S
C445 O447 1.282 . S
O446 Cd438 2.277 . S
O446 C439 1.226 . S
O447 Cd438 2.356 . S
O447 C445 1.282 . S
C448 O449 1.306 . S
C448 O451 1.160 . S
O449 C448 1.306 . S
O449 Cd450 2.228 . S
Cd450 O449 2.228 . S
Cd450 O454 2.273 . S
Cd450 O458 2.277 . S
O451 C448 1.160 . S
O451 Cd452 2.203 . S
Cd452 O451 2.203 . S
Cd452 O454 2.411 . S
Cd452 O455 2.333 . S
Cd452 O456 2.352 . S
Cd452 O460 2.277 . S
Cd452 O461 2.356 . S
C453 O458 1.209 . S
C453 O460 1.226 . S
O454 Cd450 2.273 . S
O454 Cd452 2.411 . S
O454 C457 1.320 . S
O455 Cd452 2.333 . S
O455 C457 1.214 . S
O456 Cd452 2.352 . S
O456 C459 1.258 . S
C457 O454 1.320 . S
C457 O455 1.214 . S
O458 Cd450 2.277 . S
O458 C453 1.209 . S
C459 O456 1.258 . S
C459 O461 1.282 . S
O460 Cd452 2.277 . S
O460 C453 1.226 . S
O461 Cd452 2.356 . S
O461 C459 1.282 . S
C462 O463 1.306 . S
C462 O465 1.160 . S
O463 C462 1.306 . S
O463 Cd464 2.228 . S
Cd464 O463 2.228 . S
Cd464 O468 2.273 . S
Cd464 O472 2.277 . S
O465 C462 1.160 . S
O465 Cd466 2.203 . S
Cd466 O465 2.203 . S
Cd466 O468 2.411 . S
Cd466 O469 2.333 . S
Cd466 O470 2.352 . S
Cd466 O474 2.277 . S
Cd466 O475 2.356 . S
C467 O472 1.209 . S
C467 O474 1.226 . S
O468 Cd464 2.273 . S
O468 Cd466 2.411 . S
O468 C471 1.320 . S
O469 Cd466 2.333 . S
O469 C471 1.214 . S
O470 Cd466 2.352 . S
O470 C473 1.258 . S
C471 O468 1.320 . S
C471 O469 1.214 . S
O472 Cd464 2.277 . S
O472 C467 1.209 . S
C473 O470 1.258 . S
C473 O475 1.282 . S
O474 Cd466 2.277 . S
O474 C467 1.226 . S
O475 Cd466 2.356 . S
O475 C473 1.282 . S
C476 O477 1.306 . S
C476 O479 1.160 . S
O477 C476 1.306 . S
O477 Cd478 2.228 . S
Cd478 O477 2.228 . S
Cd478 O482 2.273 . S
Cd478 O486 2.277 . S
O479 C476 1.160 . S
O479 Cd480 2.203 . S
Cd480 O479 2.203 . S
Cd480 O482 2.411 . S
Cd480 O483 2.333 . S
Cd480 O484 2.352 . S
Cd480 O488 2.277 . S
Cd480 O489 2.356 . S
C481 O486 1.209 . S
C481 O488 1.226 . S
O482 Cd478 2.273 . S
O482 Cd480 2.411 . S
O482 C485 1.320 . S
O483 Cd480 2.333 . S
O483 C485 1.214 . S
O484 Cd480 2.352 . S
O484 C487 1.258 . S
C485 O482 1.320 . S
C485 O483 1.214 . S
O486 Cd478 2.277 . S
O486 C481 1.209 . S
C487 O484 1.258 . S
C487 O489 1.282 . S
O488 Cd480 2.277 . S
O488 C481 1.226 . S
O489 Cd480 2.356 . S
O489 C487 1.282 . S
C490 O491 1.306 . S
C490 O493 1.160 . S
O491 C490 1.306 . S
O491 Cd492 2.228 . S
Cd492 O491 2.228 . S
Cd492 O496 2.273 . S
Cd492 O500 2.277 . S
O493 C490 1.160 . S
O493 Cd494 2.203 . S
Cd494 O493 2.203 . S
Cd494 O496 2.411 . S
Cd494 O497 2.333 . S
Cd494 O498 2.352 . S
Cd494 O502 2.277 . S
Cd494 O503 2.356 . S
C495 O500 1.209 . S
C495 O502 1.226 . S
O496 Cd492 2.273 . S
O496 Cd494 2.411 . S
O496 C499 1.320 . S
O497 Cd494 2.333 . S
O497 C499 1.214 . S
O498 Cd494 2.352 . S
O498 C501 1.258 . S
C499 O496 1.320 . S
C499 O497 1.214 . S
O500 Cd492 2.277 . S
O500 C495 1.209 . S
C501 O498 1.258 . S
C501 O503 1.282 . S
O502 Cd494 2.277 . S
O502 C495 1.226 . S
O503 Cd494 2.356 . S
O503 C501 1.282 . S
C504 O505 1.306 . S
C504 O507 1.160 . S
O505 C504 1.306 . S
O505 Cd506 2.228 . S
Cd506 O505 2.228 . S
Cd506 O510 2.273 . S
Cd506 O514 2.277 . S
O507 C504 1.160 . S
O507 Cd508 2.203 . S
Cd508 O507 2.203 . S
Cd508 O510 2.411 . S
Cd508 O511 2.333 . S
Cd508 O512 2.352 . S
Cd508 O516 2.277 . S
Cd508 O517 2.356 . S
C509 O514 1.209 . S
C509 O516 1.226 . S
O510 Cd506 2.273 . S
O510 Cd508 2.411 . S
O510 C513 1.320 . S
O511 Cd508 2.333 . S
O511 C513 1.214 . S
O512 Cd508 2.352 . S
O512 C515 1.258 . S
C513 O510 1.320 . S
C513 O511 1.214 . S
O514 Cd506 2.277 . S
O514 C509 1.209 . S
C515 O512 1.258 . S
C515 O517 1.282 . S
O516 Cd508 2.277 . S
O516 C509 1.226 . S
O517 Cd508 2.356 . S
O517 C515 1.282 . S
C518 O519 1.306 . S
C518 O521 1.160 . S
O519 C518 1.306 . S
O519 Cd520 2.228 . S
Cd520 O519 2.228 . S
Cd520 O524 2.273 . S
Cd520 O528 2.277 . S
O521 C518 1.160 . S
O521 Cd522 2.203 . S
Cd522 O521 2.203 . S
Cd522 O524 2.411 . S
Cd522 O525 2.333 . S
Cd522 O526 2.352 . S
Cd522 O530 2.277 . S
Cd522 O531 2.356 . S
C523 O528 1.209 . S
C523 O530 1.226 . S
O524 Cd520 2.273 . S
O524 Cd522 2.411 . S
O524 C527 1.320 . S
O525 Cd522 2.333 . S
O525 C527 1.214 . S
O526 Cd522 2.352 . S
O526 C529 1.258 . S
C527 O524 1.320 . S
C527 O525 1.214 . S
O528 Cd520 2.277 . S
O528 C523 1.209 . S
C529 O526 1.258 . S
C529 O531 1.282 . S
O530 Cd522 2.277 . S
O530 C523 1.226 . S
O531 Cd522 2.356 . S
O531 C529 1.282 . S
C532 O533 1.306 . S
C532 O535 1.160 . S
O533 C532 1.306 . S
O533 Cd534 2.228 . S
Cd534 O533 2.228 . S
Cd534 O538 2.273 . S
Cd534 O542 2.277 . S
O535 C532 1.160 . S
O535 Cd536 2.203 . S
Cd536 O535 2.203 . S
Cd536 O538 2.411 . S
Cd536 O539 2.333 . S
Cd536 O540 2.352 . S
Cd536 O544 2.277 . S
Cd536 O545 2.356 . S
C537 O542 1.209 . S
C537 O544 1.226 . S
O538 Cd534 2.273 . S
O538 Cd536 2.411 . S
O538 C541 1.320 . S
O539 Cd536 2.333 . S
O539 C541 1.214 . S
O540 Cd536 2.352 . S
O540 C543 1.258 . S
C541 O538 1.320 . S
C541 O539 1.214 . S
O542 Cd534 2.277 . S
O542 C537 1.209 . S
C543 O540 1.258 . S
C543 O545 1.282 . S
O544 Cd536 2.277 . S
O544 C537 1.226 . S
O545 Cd536 2.356 . S
O545 C543 1.282 . S
C546 O547 1.306 . S
C546 O549 1.160 . S
O547 C546 1.306 . S
O547 Cd548 2.228 . S
Cd548 O547 2.228 . S
Cd548 O552 2.273 . S
Cd548 O556 2.277 . S
O549 C546 1.160 . S
O549 Cd550 2.203 . S
Cd550 O549 2.203 . S
Cd550 O552 2.411 . S
Cd550 O553 2.333 . S
Cd550 O554 2.352 . S
Cd550 O558 2.277 . S
Cd550 O559 2.356 . S
C551 O556 1.209 . S
C551 O558 1.226 . S
O552 Cd548 2.273 . S
O552 Cd550 2.411 . S
O552 C555 1.320 . S
O553 Cd550 2.333 . S
O553 C555 1.214 . S
O554 Cd550 2.352 . S
O554 C557 1.258 . S
C555 O552 1.320 . S
C555 O553 1.214 . S
O556 Cd548 2.277 . S
O556 C551 1.209 . S
C557 O554 1.258 . S
C557 O559 1.282 . S
O558 Cd550 2.277 . S
O558 C551 1.226 . S
O559 Cd550 2.356 . S
O559 C557 1.282 . S
C560 O561 1.306 . S
C560 O563 1.160 . S
O561 C560 1.306 . S
O561 Cd562 2.228 . S
Cd562 O561 2.228 . S
Cd562 O566 2.273 . S
Cd562 O570 2.277 . S
O563 C560 1.160 . S
O563 Cd564 2.203 . S
Cd564 O563 2.203 . S
Cd564 O566 2.411 . S
Cd564 O567 2.333 . S
Cd564 O568 2.352 . S
Cd564 O572 2.277 . S
Cd564 O573 2.356 . S
C565 O570 1.209 . S
C565 O572 1.226 . S
O566 Cd562 2.273 . S
O566 Cd564 2.411 . S
O566 C569 1.320 . S
O567 Cd564 2.333 . S
O567 C569 1.214 . S
O568 Cd564 2.352 . S
O568 C571 1.258 . S
C569 O566 1.320 . S
C569 O567 1.214 . S
O570 Cd562 2.277 . S
O570 C565 1.209 . S
C571 O568 1.258 . S
C571 O573 1.282 . S
O572 Cd564 2.277 . S
O572 C565 1.226 . S
O573 Cd564 2.356 . S
O573 C571 1.282 . S
C574 O575 1.306 . S
C574 O577 1.160 . S
O575 C574 1.306 . S
O575 Cd576 2.228 . S
Cd576 O575 2.228 . S
Cd576 O580 2.273 . S
Cd576 O584 2.277 . S
O577 C574 1.160 . S
O577 Cd578 2.203 . S
Cd578 O577 2.203 . S
Cd578 O580 2.411 . S
Cd578 O581 2.333 . S
Cd578 O582 2.352 . S
Cd578 O586 2.277 . S
Cd578 O587 2.356 . S
C579 O584 1.209 . S
C579 O586 1.226 . S
O580 Cd576 2.273 . S
O580 Cd578 2.411 . S
O580 C583 1.320 . S
O581 Cd578 2.333 . S
O581 C583 1.214 . S
O582 Cd578 2.352 . S
O582 C585 1.258 . S
C583 O580 1.320 . S
C583 O581 1.214 . S
O584 Cd576 2.277 . S
O584 C579 1.209 . S
C585 O582 1.258 . S
C585 O587 1.282 . S
O586 Cd578 2.277 . S
O586 C579 1.226 . S
O587 Cd578 2.356 . S
O587 C585 1.282 . S
C588 O589 1.306 . S
C588 O591 1.160 . S
O589 C588 1.306 . S
O589 Cd590 2.228 . S
Cd590 O589 2.228 . S
Cd590 O594 2.273 . S
Cd590 O598 2.277 . S
O591 C588 1.160 . S
O591 Cd592 2.203 . S
Cd592 O591 2.203 . S
Cd592 O594 2.411 . S
Cd592 O595 2.333 . S
Cd592 O596 2.352 . S
Cd592 O600 2.277 . S
Cd592 O601 2.356 . S
C593 O598 1.209 . S
C593 O600 1.226 . S
O594 Cd590 2.273 . S
O594 Cd592 2.411 . S
O594 C597 1.320 . S
O595 Cd592 2.333 . S
O595 C597 1.214 . S
O596 Cd592 2.352 . S
O596 C599 1.258 . S
C597 O594 1.320 . S
C597 O595 1.214 . S
O598 Cd590 2.277 . S
O598 C593 1.209 . S
C599 O596 1.258 . S
C599 O601 1.282 . S
O600 Cd592 2.277 . S
O600 C593 1.226 . S
O601 Cd592 2.356 . S
O601 C599 1.282 . S
C602 O603 1.306 . S
C602 O605 1.160 . S
O603 C602 1.306 . S
O603 Cd604 2.228 . S
Cd604 O603 2.228 . S
Cd604 O608 2.273 . S
Cd604 O612 2.277 . S
O605 C602 1.160 . S
O605 Cd606 2.203 . S
Cd606 O605 2.203 . S
Cd606 O608 2.411 . S
Cd606 O609 2.333 . S
Cd606 O610 2.352 . S
Cd606 O614 2.277 . S
Cd606 O615 2.356 . S
C607 O612 1.209 . S
C607 O614 1.226 . S
O608 Cd604 2.273 . S
O608 Cd606 2.411 . S
O608 C611 1.320 . S
O609 Cd606 2.333 . S
O609 C611 1.214 . S
O610 Cd606 2.352 . S
O610 C613 1.258 . S
C611 O608 1.320 . S
C611 O609 1.214 . S
O612 Cd604 2.277 . S
O612 C607 1.209 . S
C613 O610 1.258 . S
C613 O615 1.282 . S
O614 Cd606 2.277 . S
O614 C607 1.226 . S
O615 Cd606 2.356 . S
O615 C613 1.282 . S
C616 O617 1.306 . S
C616 O619 1.160 . S
O617 C616 1.306 . S
O617 Cd618 2.228 . S
Cd618 O617 2.228 . S
Cd618 O622 2.273 . S
Cd618 O626 2.277 . S
O619 C616 1.160 . S
O619 Cd620 2.203 . S
Cd620 O619 2.203 . S
Cd620 O622 2.411 . S
Cd620 O623 2.333 . S
Cd620 O624 2.352 . S
Cd620 O628 2.277 . S
Cd620 O629 2.356 . S
C621 O626 1.209 . S
C621 O628 1.226 . S
O622 Cd618 2.273 . S
O622 Cd620 2.411 . S
O622 C625 1.320 . S
O623 Cd620 2.333 . S
O623 C625 1.214 . S
O624 Cd620 2.352 . S
O624 C627 1.258 . S
C625 O622 1.320 . S
C625 O623 1.214 . S
O626 Cd618 2.277 . S
O626 C621 1.209 . S
C627 O624 1.258 . S
C627 O629 1.282 . S
O628 Cd620 2.277 . S
O628 C621 1.226 . S
O629 Cd620 2.356 . S
O629 C627 1.282 . S
C630 O631 1.306 . S
C630 O633 1.160 . S
O631 C630 1.306 . S
O631 Cd632 2.228 . S
Cd632 O631 2.228 . S
Cd632 O636 2.273 . S
Cd632 O640 2.277 . S
O633 C630 1.160 . S
O633 Cd634 2.203 . S
Cd634 O633 2.203 . S
Cd634 O636 2.411 . S
Cd634 O637 2.333 . S
Cd634 O638 2.352 . S
Cd634 O642 2.277 . S
Cd634 O643 2.356 . S
C635 O640 1.209 . S
C635 O642 1.226 . S
O636 Cd632 2.273 . S
O636 Cd634 2.411 . S
O636 C639 1.320 . S
O637 Cd634 2.333 . S
O637 C639 1.214 . S
O638 Cd634 2.352 . S
O638 C641 1.258 . S
C639 O636 1.320 . S
C639 O637 1.214 . S
O640 Cd632 2.277 . S
O640 C635 1.209 . S
C641 O638 1.258 . S
C641 O643 1.282 . S
O642 Cd634 2.277 . S
O642 C635 1.226 . S
O643 Cd634 2.356 . S
O643 C641 1.282 . S
C644 O645 1.306 . S
C644 O647 1.160 . S
O645 C644 1.306 . S
O645 Cd646 2.228 . S
Cd646 O645 2.228 . S
Cd646 O650 2.273 . S
Cd646 O654 2.277 . S
O647 C644 1.160 . S
O647 Cd648 2.203 . S
Cd648 O647 2.203 . S
Cd648 O650 2.411 . S
Cd648 O651 2.333 . S
Cd648 O652 2.352 . S
Cd648 O656 2.277 . S
Cd648 O657 2.356 . S
C649 O654 1.209 . S
C649 O656 1.226 . S
O650 Cd646 2.273 . S
O650 Cd648 2.411 . S
O650 C653 1.320 . S
O651 Cd648 2.333 . S
O651 C653 1.214 . S
O652 Cd648 2.352 . S
O652 C655 1.258 . S
C653 O650 1.320 . S
C653 O651 1.214 . S
O654 Cd646 2.277 . S
O654 C649 1.209 . S
C655 O652 1.258 . S
C655 O657 1.282 . S
O656 Cd648 2.277 . S
O656 C649 1.226 . S
O657 Cd648 2.356 . S
O657 C655 1.282 . S
C658 O659 1.306 . S
C658 O661 1.160 . S
O659 C658 1.306 . S
O659 Cd660 2.228 . S
Cd660 O659 2.228 . S
Cd660 O664 2.273 . S
Cd660 O668 2.277 . S
O661 C658 1.160 . S
O661 Cd662 2.203 . S
Cd662 O661 2.203 . S
Cd662 O664 2.411 . S
Cd662 O665 2.333 . S
Cd662 O666 2.352 . S
Cd662 O670 2.277 . S
Cd662 O671 2.356 . S
C663 O668 1.209 . S
C663 O670 1.226 . S
O664 Cd660 2.273 . S
O664 Cd662 2.411 . S
O664 C667 1.320 . S
O665 Cd662 2.333 . S
O665 C667 1.214 . S
O666 Cd662 2.352 . S
O666 C669 1.258 . S
C667 O664 1.320 . S
C667 O665 1.214 . S
O668 Cd660 2.277 . S
O668 C663 1.209 . S
C669 O666 1.258 . S
C669 O671 1.282 . S
O670 Cd662 2.277 . S
O670 C663 1.226 . S
O671 Cd662 2.356 . S
O671 C669 1.282 . S
C672 O673 1.306 . S
C672 O675 1.160 . S
O673 C672 1.306 . S
O673 Cd674 2.228 . S
Cd674 O673 2.228 . S
Cd674 O678 2.273 . S
Cd674 O682 2.277 . S
O675 C672 1.160 . S
O675 Cd676 2.203 . S
Cd676 O675 2.203 . S
Cd676 O678 2.411 . S
Cd676 O679 2.333 . S
Cd676 O680 2.352 . S
Cd676 O684 2.277 . S
Cd676 O685 2.356 . S
C677 O682 1.209 . S
C677 O684 1.226 . S
O678 Cd674 2.273 . S
O678 Cd676 2.411 . S
O678 C681 1.320 . S
O679 Cd676 2.333 . S
O679 C681 1.214 . S
O680 Cd676 2.352 . S
O680 C683 1.258 . S
C681 O678 1.320 . S
C681 O679 1.214 . S
O682 Cd674 2.277 . S
O682 C677 1.209 . S
C683 O680 1.258 . S
C683 O685 1.282 . S
O684 Cd676 2.277 . S
O684 C677 1.226 . S
O685 Cd676 2.356 . S
O685 C683 1.282 . S
C686 O687 1.306 . S
C686 O689 1.160 . S
O687 C686 1.306 . S
O687 Cd688 2.228 . S
Cd688 O687 2.228 . S
Cd688 O692 2.273 . S
Cd688 O696 2.277 . S
O689 C686 1.160 . S
O689 Cd690 2.203 . S
Cd690 O689 2.203 . S
Cd690 O692 2.411 . S
Cd690 O693 2.333 . S
Cd690 O694 2.352 . S
Cd690 O698 2.277 . S
Cd690 O699 2.356 . S
C691 O696 1.209 . S
C691 O698 1.226 . S
O692 Cd688 2.273 . S
O692 Cd690 2.411 . S
O692 C695 1.320 . S
O693 Cd690 2.333 . S
O693 C695 1.214 . S
O694 Cd690 2.352 . S
O694 C697 1.258 . S
C695 O692 1.320 . S
C695 O693 1.214 . S
O696 Cd688 2.277 . S
O696 C691 1.209 . S
C697 O694 1.258 . S
C697 O699 1.282 . S
O698 Cd690 2.277 . S
O698 C691 1.226 . S
O699 Cd690 2.356 . S
O699 C697 1.282 . S
C700 O701 1.306 . S
C700 O703 1.160 . S
O701 C700 1.306 . S
O701 Cd702 2.228 . S
Cd702 O701 2.228 . S
Cd702 O706 2.273 . S
Cd702 O710 2.277 . S
O703 C700 1.160 . S
O703 Cd704 2.203 . S
Cd704 O703 2.203 . S
Cd704 O706 2.411 . S
Cd704 O707 2.333 . S
Cd704 O708 2.352 . S
Cd704 O712 2.277 . S
Cd704 O713 2.356 . S
C705 O710 1.209 . S
C705 O712 1.226 . S
O706 Cd702 2.273 . S
O706 Cd704 2.411 . S
O706 C709 1.320 . S
O707 Cd704 2.333 . S
O707 C709 1.214 . S
O708 Cd704 2.352 . S
O708 C711 1.258 . S
C709 O706 1.320 . S
C709 O707 1.214 . S
O710 Cd702 2.277 . S
O710 C705 1.209 . S
C711 O708 1.258 . S
C711 O713 1.282 . S
O712 Cd704 2.277 . S
O712 C705 1.226 . S
O713 Cd704 2.356 . S
O713 C711 1.282 . S
C714 O715 1.306 . S
C714 O717 1.160 . S
O715 C714 1.306 . S
O715 Cd716 2.228 . S
Cd716 O715 2.228 . S
Cd716 O720 2.273 . S
Cd716 O724 2.277 . S
O717 C714 1.160 . S
O717 Cd718 2.203 . S
Cd718 O717 2.203 . S
Cd718 O720 2.411 . S
Cd718 O721 2.333 . S
Cd718 O722 2.352 . S
Cd718 O726 2.277 . S
Cd718 O727 2.356 . S
C719 O724 1.209 . S
C719 O726 1.226 . S
O720 Cd716 2.273 . S
O720 Cd718 2.411 . S
O720 C723 1.320 . S
O721 Cd718 2.333 . S
O721 C723 1.214 . S
O722 Cd718 2.352 . S
O722 C725 1.258 . S
C723 O720 1.320 . S
C723 O721 1.214 . S
O724 Cd716 2.277 . S
O724 C719 1.209 . S
C725 O722 1.258 . S
C725 O727 1.282 . S
O726 Cd718 2.277 . S
O726 C719 1.226 . S
O727 Cd718 2.356 . S
O727 C725 1.282 . S
C728 O729 1.306 . S
C728 O731 1.160 . S
O729 C728 1.306 . S
O729 Cd730 2.228 . S
Cd730 O729 2.228 . S
Cd730 O734 2.273 . S
Cd730 O738 2.277 . S
O731 C728 1.160 . S
O731 Cd732 2.203 . S
Cd732 O731 2.203 . S
Cd732 O734 2.411 . S
Cd732 O735 2.333 . S
Cd732 O736 2.352 . S
Cd732 O740 2.277 . S
Cd732 O741 2.356 . S
C733 O738 1.209 . S
C733 O740 1.226 . S
O734 Cd730 2.273 . S
O734 Cd732 2.411 . S
O734 C737 1.320 . S
O735 Cd732 2.333 . S
O735 C737 1.214 . S
O736 Cd732 2.352 . S
O736 C739 1.258 . S
C737 O734 1.320 . S
C737 O735 1.214 . S
O738 Cd730 2.277 . S
O738 C733 1.209 . S
C739 O736 1.258 . S
C739 O741 1.282 . S
O740 Cd732 2.277 . S
O740 C733 1.226 . S
O741 Cd732 2.356 . S
O741 C739 1.282 . S
C742 O743 1.306 . S
C742 O745 1.160 . S
O743 C742 1.306 . S
O743 Cd744 2.228 . S
Cd744 O743 2.228 . S
Cd744 O748 2.273 . S
Cd744 O752 2.277 . S
O745 C742 1.160 . S
O745 Cd746 2.203 . S
Cd746 O745 2.203 . S
Cd746 O748 2.411 . S
Cd746 O749 2.333 . S
Cd746 O750 2.352 . S
Cd746 O754 2.277 . S
Cd746 O755 2.356 . S
C747 O752 1.209 . S
C747 O754 1.226 . S
O748 Cd744 2.273 . S
O748 Cd746 2.411 . S
O748 C751 1.320 . S
O749 Cd746 2.333 . S
O749 C751 1.214 . S
O750 Cd746 2.352 . S
O750 C753 1.258 . S
C751 O748 1.320 . S
C751 O749 1.214 . S
O752 Cd744 2.277 . S
O752 C747 1.209 . S
C753 O750 1.258 . S
C753 O755 1.282 . S
O754 Cd746 2.277 . S
O754 C747 1.226 . S
O755 Cd746 2.356 . S
O755 C753 1.282 . S
C756 O757 1.306 . S
C756 O759 1.160 . S
O757 C756 1.306 . S
O757 Cd758 2.228 . S
Cd758 O757 2.228 . S
Cd758 O762 2.273 . S
Cd758 O766 2.277 . S
O759 C756 1.160 . S
O759 Cd760 2.203 . S
Cd760 O759 2.203 . S
Cd760 O762 2.411 . S
Cd760 O763 2.333 . S
Cd760 O764 2.352 . S
Cd760 O768 2.277 . S
Cd760 O769 2.356 . S
C761 O766 1.209 . S
C761 O768 1.226 . S
O762 Cd758 2.273 . S
O762 Cd760 2.411 . S
O762 C765 1.320 . S
O763 Cd760 2.333 . S
O763 C765 1.214 . S
O764 Cd760 2.352 . S
O764 C767 1.258 . S
C765 O762 1.320 . S
C765 O763 1.214 . S
O766 Cd758 2.277 . S
O766 C761 1.209 . S
C767 O764 1.258 . S
C767 O769 1.282 . S
O768 Cd760 2.277 . S
O768 C761 1.226 . S
O769 Cd760 2.356 . S
O769 C767 1.282 . S
C770 O771 1.306 . S
C770 O773 1.160 . S
O771 C770 1.306 . S
O771 Cd772 2.228 . S
Cd772 O771 2.228 . S
Cd772 O776 2.273 . S
Cd772 O780 2.277 . S
O773 C770 1.160 . S
O773 Cd774 2.203 . S
Cd774 O773 2.203 . S
Cd774 O776 2.411 . S
Cd774 O777 2.333 . S
Cd774 O778 2.352 . S
Cd774 O782 2.277 . S
Cd774 O783 2.356 . S
C775 O780 1.209 . S
C775 O782 1.226 . S
O776 Cd772 2.273 . S
O776 Cd774 2.411 . S
O776 C779 1.320 . S
O777 Cd774 2.333 . S
O777 C779 1.214 . S
O778 Cd774 2.352 . S
O778 C781 1.258 . S
C779 O776 1.320 . S
C779 O777 1.214 . S
O780 Cd772 2.277 . S
O780 C775 1.209 . S
C781 O778 1.258 . S
C781 O783 1.282 . S
O782 Cd774 2.277 . S
O782 C775 1.226 . S
O783 Cd774 2.356 . S
O783 C781 1.282 . S
C784 O785 1.306 . S
C784 O787 1.160 . S
O785 C784 1.306 . S
O785 Cd786 2.228 . S
Cd786 O785 2.228 . S
Cd786 O790 2.273 . S
Cd786 O794 2.277 . S
O787 C784 1.160 . S
O787 Cd788 2.203 . S
Cd788 O787 2.203 . S
Cd788 O790 2.411 . S
Cd788 O791 2.333 . S
Cd788 O792 2.352 . S
Cd788 O796 2.277 . S
Cd788 O797 2.356 . S
C789 O794 1.209 . S
C789 O796 1.226 . S
O790 Cd786 2.273 . S
O790 Cd788 2.411 . S
O790 C793 1.320 . S
O791 Cd788 2.333 . S
O791 C793 1.214 . S
O792 Cd788 2.352 . S
O792 C795 1.258 . S
C793 O790 1.320 . S
C793 O791 1.214 . S
O794 Cd786 2.277 . S
O794 C789 1.209 . S
C795 O792 1.258 . S
C795 O797 1.282 . S
O796 Cd788 2.277 . S
O796 C789 1.226 . S
O797 Cd788 2.356 . S
O797 C795 1.282 . S
C798 O799 1.306 . S
C798 O801 1.160 . S
O799 C798 1.306 . S
O799 Cd800 2.228 . S
Cd800 O799 2.228 . S
Cd800 O804 2.273 . S
Cd800 O808 2.277 . S
O801 C798 1.160 . S
O801 Cd802 2.203 . S
Cd802 O801 2.203 . S
Cd802 O804 2.411 . S
Cd802 O805 2.333 . S
Cd802 O806 2.352 . S
Cd802 O810 2.277 . S
Cd802 O811 2.356 . S
C803 O808 1.209 . S
C803 O810 1.226 . S
O804 Cd800 2.273 . S
O804 Cd802 2.411 . S
O804 C807 1.320 . S
O805 Cd802 2.333 . S
O805 C807 1.214 . S
O806 Cd802 2.352 . S
O806 C809 1.258 . S
C807 O804 1.320 . S
C807 O805 1.214 . S
O808 Cd800 2.277 . S
O808 C803 1.209 . S
C809 O806 1.258 . S
C809 O811 1.282 . S
O810 Cd802 2.277 . S
O810 C803 1.226 . S
O811 Cd802 2.356 . S
O811 C809 1.282 . S
C812 O813 1.306 . S
C812 O815 1.160 . S
O813 C812 1.306 . S
O813 Cd814 2.228 . S
Cd814 O813 2.228 . S
Cd814 O818 2.273 . S
Cd814 O822 2.277 . S
O815 C812 1.160 . S
O815 Cd816 2.203 . S
Cd816 O815 2.203 . S
Cd816 O818 2.411 . S
Cd816 O819 2.333 . S
Cd816 O820 2.352 . S
Cd816 O824 2.277 . S
Cd816 O825 2.356 . S
C817 O822 1.209 . S
C817 O824 1.226 . S
O818 Cd814 2.273 . S
O818 Cd816 2.411 . S
O818 C821 1.320 . S
O819 Cd816 2.333 . S
O819 C821 1.214 . S
O820 Cd816 2.352 . S
O820 C823 1.258 . S
C821 O818 1.320 . S
C821 O819 1.214 . S
O822 Cd814 2.277 . S
O822 C817 1.209 . S
C823 O820 1.258 . S
C823 O825 1.282 . S
O824 Cd816 2.277 . S
O824 C817 1.226 . S
O825 Cd816 2.356 . S
O825 C823 1.282 . S
C826 O827 1.306 . S
C826 O829 1.160 . S
O827 C826 1.306 . S
O827 Cd828 2.228 . S
Cd828 O827 2.228 . S
Cd828 O832 2.273 . S
Cd828 O836 2.277 . S
O829 C826 1.160 . S
O829 Cd830 2.203 . S
Cd830 O829 2.203 . S
Cd830 O832 2.411 . S
Cd830 O833 2.333 . S
Cd830 O834 2.352 . S
Cd830 O838 2.277 . S
Cd830 O839 2.356 . S
C831 O836 1.209 . S
C831 O838 1.226 . S
O832 Cd828 2.273 . S
O832 Cd830 2.411 . S
O832 C835 1.320 . S
O833 Cd830 2.333 . S
O833 C835 1.214 . S
O834 Cd830 2.352 . S
O834 C837 1.258 . S
C835 O832 1.320 . S
C835 O833 1.214 . S
O836 Cd828 2.277 . S
O836 C831 1.209 . S
C837 O834 1.258 . S
C837 O839 1.282 . S
O838 Cd830 2.277 . S
O838 C831 1.226 . S
O839 Cd830 2.356 . S
O839 C837 1.282 . S
C840 O841 1.306 . S
C840 O843 1.160 . S
O841 C840 1.306 . S
O841 Cd842 2.228 . S
Cd842 O841 2.228 . S
Cd842 O846 2.273 . S
Cd842 O850 2.277 . S
O843 C840 1.160 . S
O843 Cd844 2.203 . S
Cd844 O843 2.203 . S
Cd844 O846 2.411 . S
Cd844 O847 2.333 . S
Cd844 O848 2.352 . S
Cd844 O852 2.277 . S
Cd844 O853 2.356 . S
C845 O850 1.209 . S
C845 O852 1.226 . S
O846 Cd842 2.273 . S
O846 Cd844 2.411 . S
O846 C849 1.320 . S
O847 Cd844 2.333 . S
O847 C849 1.214 . S
O848 Cd844 2.352 . S
O848 C851 1.258 . S
C849 O846 1.320 . S
C849 O847 1.214 . S
O850 Cd842 2.277 . S
O850 C845 1.209 . S
C851 O848 1.258 . S
C851 O853 1.282 . S
O852 Cd844 2.277 . S
O852 C845 1.226 . S
O853 Cd844 2.356 . S
O853 C851 1.282 . S
C854 O855 1.306 . S
C854 O857 1.160 . S
O855 C854 1.306 . S
O855 Cd856 2.228 . S
Cd856 O855 2.228 . S
Cd856 O860 2.273 . S
Cd856 O864 2.277 . S
O857 C854 1.160 . S
O857 Cd858 2.203 . S
Cd858 O857 2.203 . S
Cd858 O860 2.411 . S
Cd858 O861 2.333 . S
Cd858 O862 2.352 . S
Cd858 O866 2.277 . S
Cd858 O867 2.356 . S
C859 O864 1.209 . S
C859 O866 1.226 . S
O860 Cd856 2.273 . S
O860 Cd858 2.411 . S
O860 C863 1.320 . S
O861 Cd858 2.333 . S
O861 C863 1.214 . S
O862 Cd858 2.352 . S
O862 C865 1.258 . S
C863 O860 1.320 . S
C863 O861 1.214 . S
O864 Cd856 2.277 . S
O864 C859 1.209 . S
C865 O862 1.258 . S
C865 O867 1.282 . S
O866 Cd858 2.277 . S
O866 C859 1.226 . S
O867 Cd858 2.356 . S
O867 C865 1.282 . S
C868 O869 1.306 . S
C868 O871 1.160 . S
O869 C868 1.306 . S
O869 Cd870 2.228 . S
Cd870 O869 2.228 . S
Cd870 O874 2.273 . S
Cd870 O878 2.277 . S
O871 C868 1.160 . S
O871 Cd872 2.203 . S
Cd872 O871 2.203 . S
Cd872 O874 2.411 . S
Cd872 O875 2.333 . S
Cd872 O876 2.352 . S
Cd872 O880 2.277 . S
Cd872 O881 2.356 . S
C873 O878 1.209 . S
C873 O880 1.226 . S
O874 Cd870 2.273 . S
O874 Cd872 2.411 . S
O874 C877 1.320 . S
O875 Cd872 2.333 . S
O875 C877 1.214 . S
O876 Cd872 2.352 . S
O876 C879 1.258 . S
C877 O874 1.320 . S
C877 O875 1.214 . S
O878 Cd870 2.277 . S
O878 C873 1.209 . S
C879 O876 1.258 . S
C879 O881 1.282 . S
O880 Cd872 2.277 . S
O880 C873 1.226 . S
O881 Cd872 2.356 . S
O881 C879 1.282 . S
C882 O883 1.306 . S
C882 O885 1.160 . S
O883 C882 1.306 . S
O883 Cd884 2.228 . S
Cd884 O883 2.228 . S
Cd884 O888 2.273 . S
Cd884 O892 2.277 . S
O885 C882 1.160 . S
O885 Cd886 2.203 . S
Cd886 O885 2.203 . S
Cd886 O888 2.411 . S
Cd886 O889 2.333 . S
Cd886 O890 2.352 . S
Cd886 O894 2.277 . S
Cd886 O895 2.356 . S
C887 O892 1.209 . S
C887 O894 1.226 . S
O888 Cd884 2.273 . S
O888 Cd886 2.411 . S
O888 C891 1.320 . S
O889 Cd886 2.333 . S
O889 C891 1.214 . S
O890 Cd886 2.352 . S
O890 C893 1.258 . S
C891 O888 1.320 . S
C891 O889 1.214 . S
O892 Cd884 2.277 . S
O892 C887 1.209 . S
C893 O890 1.258 . S
C893 O895 1.282 . S
O894 Cd886 2.277 . S
O894 C887 1.226 . S
O895 Cd886 2.356 . S
O895 C893 1.282 . S
C896 O897 1.306 . S
C896 O899 1.160 . S
O897 C896 1.306 . S
O897 Cd898 2.228 . S
Cd898 O897 2.228 . S
Cd898 O902 2.273 . S
Cd898 O906 2.277 . S
O899 C896 1.160 . S
O899 Cd900 2.203 . S
Cd900 O899 2.203 . S
Cd900 O902 2.411 . S
Cd900 O903 2.333 . S
Cd900 O904 2.352 . S
Cd900 O908 2.277 . S
Cd900 O909 2.356 . S
C901 O906 1.209 . S
C901 O908 1.226 . S
O902 Cd898 2.273 . S
O902 Cd900 2.411 . S
O902 C905 1.320 . S
O903 Cd900 2.333 . S
O903 C905 1.214 . S
O904 Cd900 2.352 . S
O904 C907 1.258 . S
C905 O902 1.320 . S
C905 O903 1.214 . S
O906 Cd898 2.277 . S
O906 C901 1.209 . S
C907 O904 1.258 . S
C907 O909 1.282 . S
O908 Cd900 2.277 . S
O908 C901 1.226 . S
O909 Cd900 2.356 . S
O909 C907 1.282 . S
C910 O911 1.306 . S
C910 O913 1.160 . S
O911 C910 1.306 . S
O911 Cd912 2.228 . S
Cd912 O911 2.228 . S
Cd912 O916 2.273 . S
Cd912 O920 2.277 . S
O913 C910 1.160 . S
O913 Cd914 2.203 . S
Cd914 O913 2.203 . S
Cd914 O916 2.411 . S
Cd914 O917 2.333 . S
Cd914 O918 2.352 . S
Cd914 O922 2.277 . S
Cd914 O923 2.356 . S
C915 O920 1.209 . S
C915 O922 1.226 . S
O916 Cd912 2.273 . S
O916 Cd914 2.411 . S
O916 C919 1.320 . S
O917 Cd914 2.333 . S
O917 C919 1.214 . S
O918 Cd914 2.352 . S
O918 C921 1.258 . S
C919 O916 1.320 . S
C919 O917 1.214 . S
O920 Cd912 2.277 . S
O920 C915 1.209 . S
C921 O918 1.258 . S
C921 O923 1.282 . S
O922 Cd914 2.277 . S
O922 C915 1.226 . S
O923 Cd914 2.356 . S
O923 C921 1.282 . S
C924 O925 1.306 . S
C924 O927 1.160 . S
O925 C924 1.306 . S
O925 Cd926 2.228 . S
Cd926 O925 2.228 . S
Cd926 O930 2.273 . S
Cd926 O934 2.277 . S
O927 C924 1.160 . S
O927 Cd928 2.203 . S
Cd928 O927 2.203 . S
Cd928 O930 2.411 . S
Cd928 O931 2.333 . S
Cd928 O932 2.352 . S
Cd928 O936 2.277 . S
Cd928 O937 2.356 . S
C929 O934 1.209 . S
C929 O936 1.226 . S
O930 Cd926 2.273 . S
O930 Cd928 2.411 . S
O930 C933 1.320 . S
O931 Cd928 2.333 . S
O931 C933 1.214 . S
O932 Cd928 2.352 . S
O932 C935 1.258 . S
C933 O930 1.320 . S
C933 O931 1.214 . S
O934 Cd926 2.277 . S
O934 C929 1.209 . S
C935 O932 1.258 . S
C935 O937 1.282 . S
O936 Cd928 2.277 . S
O936 C929 1.226 . S
O937 Cd928 2.356 . S
O937 C935 1.282 . S
C938 O939 1.306 . S
C938 O941 1.160 . S
O939 C938 1.306 . S
O939 Cd940 2.228 . S
Cd940 O939 2.228 . S
Cd940 O944 2.273 . S
Cd940 O948 2.277 . S
O941 C938 1.160 . S
O941 Cd942 2.203 . S
Cd942 O941 2.203 . S
Cd942 O944 2.411 . S
Cd942 O945 2.333 . S
Cd942 O946 2.352 . S
Cd942 O950 2.277 . S
Cd942 O951 2.356 . S
C943 O948 1.209 . S
C943 O950 1.226 . S
O944 Cd940 2.273 . S
O944 Cd942 2.411 . S
O944 C947 1.320 . S
O945 Cd942 2.333 . S
O945 C947 1.214 . S
O946 Cd942 2.352 . S
O946 C949 1.258 . S
C947 O944 1.320 . S
C947 O945 1.214 . S
O948 Cd940 2.277 . S
O948 C943 1.209 . S
C949 O946 1.258 . S
C949 O951 1.282 . S
O950 Cd942 2.277 . S
O950 C943 1.226 . S
O951 Cd942 2.356 . S
O951 C949 1.282 . S
C952 O953 1.306 . S
C952 O955 1.160 . S
O953 C952 1.306 . S
O953 Cd954 2.228 . S
Cd954 O953 2.228 . S
Cd954 O958 2.273 . S
Cd954 O962 2.277 . S
O955 C952 1.160 . S
O955 Cd956 2.203 . S
Cd956 O955 2.203 . S
Cd956 O958 2.411 . S
Cd956 O959 2.333 . S
Cd956 O960 2.352 . S
Cd956 O964 2.277 . S
Cd956 O965 2.356 . S
C957 O962 1.209 . S
C957 O964 1.226 . S
O958 Cd954 2.273 . S
O958 Cd956 2.411 . S
O958 C961 1.320 . S
O959 Cd956 2.333 . S
O959 C961 1.214 . S
O960 Cd956 2.352 . S
O960 C963 1.258 . S
C961 O958 1.320 . S
C961 O959 1.214 . S
O962 Cd954 2.277 . S
O962 C957 1.209 . S
C963 O960 1.258 . S
C963 O965 1.282 . S
O964 Cd956 2.277 . S
O964 C957 1.226 . S
O965 Cd956 2.356 . S
O965 C963 1.282 . S
C966 O967 1.306 . S
C966 O969 1.160 . S
O967 C966 1.306 . S
O967 Cd968 2.228 . S
Cd968 O967 2.228 . S
Cd968 O972 2.273 . S
Cd968 O976 2.277 . S
O969 C966 1.160 . S
O969 Cd970 2.203 . S
Cd970 O969 2.203 . S
Cd970 O972 2.411 . S
Cd970 O973 2.333 . S
Cd970 O974 2.352 . S
Cd970 O978 2.277 . S
Cd970 O979 2.356 . S
C971 O976 1.209 . S
C971 O978 1.226 . S
O972 Cd968 2.273 . S
O972 Cd970 2.411 . S
O972 C975 1.320 . S
O973 Cd970 2.333 . S
O973 C975 1.214 . S
O974 Cd970 2.352 . S
O974 C977 1.258 . S
C975 O972 1.320 . S
C975 O973 1.214 . S
O976 Cd968 2.277 . S
O976 C971 1.209 . S
C977 O974 1.258 . S
C977 O979 1.282 . S
O978 Cd970 2.277 . S
O978 C971 1.226 . S
O979 Cd970 2.356 . S
O979 C977 1.282 . S
C980 O981 1.306 . S
C980 O983 1.160 . S
O981 C980 1.306 . S
O981 Cd982 2.228 . S
Cd982 O981 2.228 . S
Cd982 O986 2.273 . S
Cd982 O990 2.277 . S
O983 C980 1.160 . S
O983 Cd984 2.203 . S
Cd984 O983 2.203 . S
Cd984 O986 2.411 . S
Cd984 O987 2.333 . S
Cd984 O988 2.352 . S
Cd984 O992 2.277 . S
Cd984 O993 2.356 . S
C985 O990 1.209 . S
C985 O992 1.226 . S
O986 Cd982 2.273 . S
O986 Cd984 2.411 . S
O986 C989 1.320 . S
O987 Cd984 2.333 . S
O987 C989 1.214 . S
O988 Cd984 2.352 . S
O988 C991 1.258 . S
C989 O986 1.320 . S
C989 O987 1.214 . S
O990 Cd982 2.277 . S
O990 C985 1.209 . S
C991 O988 1.258 . S
C991 O993 1.282 . S
O992 Cd984 2.277 . S
O992 C985 1.226 . S
O993 Cd984 2.356 . S
O993 C991 1.282 . S
C994 O995 1.306 . S
C994 O997 1.160 . S
O995 C994 1.306 . S
O995 Cd996 2.228 . S
Cd996 O995 2.228 . S
Cd996 O1000 2.273 . S
Cd996 O1004 2.277 . S
O997 C994 1.160 . S
O997 Cd998 2.203 . S
Cd998 O997 2.203 . S
Cd998 O1000 2.411 . S
Cd998 O1001 2.333 . S
Cd998 O1002 2.352 . S
Cd998 O1006 2.277 . S
Cd998 O1007 2.356 . S
C999 O1004 1.209 . S
C999 O1006 1.226 . S
O1000 Cd996 2.273 . S
O1000 Cd998 2.411 . S
O1000 C1003 1.320 . S
O1001 Cd998 2.333 . S
O1001 C1003 1.214 . S
O1002 Cd998 2.352 . S
O1002 C1005 1.258 . S
C1003 O1000 1.320 . S
C1003 O1001 1.214 . S
O1004 Cd996 2.277 . S
O1004 C999 1.209 . S
C1005 O1002 1.258 . S
C1005 O1007 1.282 . S
O1006 Cd998 2.277 . S
O1006 C999 1.226 . S
O1007 Cd998 2.356 . S
O1007 C1005 1.282 . S
C1008 O1009 1.306 . S
C1008 O1011 1.160 . S
O1009 C1008 1.306 . S
O1009 Cd1010 2.228 . S
Cd1010 O1009 2.228 . S
Cd1010 O1014 2.273 . S
Cd1010 O1018 2.277 . S
O1011 C1008 1.160 . S
O1011 Cd1012 2.203 . S
Cd1012 O1011 2.203 . S
Cd1012 O1014 2.411 . S
Cd1012 O1015 2.333 . S
Cd1012 O1016 2.352 . S
Cd1012 O1020 2.277 . S
Cd1012 O1021 2.356 . S
C1013 O1018 1.209 . S
C1013 O1020 1.226 . S
O1014 Cd1010 2.273 . S
O1014 Cd1012 2.411 . S
O1014 C1017 1.320 . S
O1015 Cd1012 2.333 . S
O1015 C1017 1.214 . S
O1016 Cd1012 2.352 . S
O1016 C1019 1.258 . S
C1017 O1014 1.320 . S
C1017 O1015 1.214 . S
O1018 Cd1010 2.277 . S
O1018 C1013 1.209 . S
C1019 O1016 1.258 . S
C1019 O1021 1.282 . S
O1020 Cd1012 2.277 . S
O1020 C1013 1.226 . S
O1021 Cd1012 2.356 . S
O1021 C1019 1.282 . S
C1022 O1023 1.306 . S
C1022 O1025 1.160 . S
O1023 C1022 1.306 . S
O1023 Cd1024 2.228 . S
Cd1024 O1023 2.228 . S
Cd1024 O1028 2.273 . S
Cd1024 O1032 2.277 . S
O1025 C1022 1.160 . S
O1025 Cd1026 2.203 . S
Cd1026 O1025 2.203 . S
Cd1026 O1028 2.411 . S
Cd1026 O1029 2.333 . S
Cd1026 O1030 2.352 . S
Cd1026 O1034 2.277 . S
Cd1026 O1035 2.356 . S
C1027 O1032 1.209 . S
C1027 O1034 1.226 . S
O1028 Cd1024 2.273 . S
O1028 Cd1026 2.411 . S
O1028 C1031 1.320 . S
O1029 Cd1026 2.333 . S
O1029 C1031 1.214 . S
O1030 Cd1026 2.352 . S
O1030 C1033 1.258 . S
C1031 O1028 1.320 . S
C1031 O1029 1.214 . S
O1032 Cd1024 2.277 . S
O1032 C1027 1.209 . S
C1033 O1030 1.258 . S
C1033 O1035 1.282 . S
O1034 Cd1026 2.277 . S
O1034 C1027 1.226 . S
O1035 Cd1026 2.356 . S
O1035 C1033 1.282 . S
C1036 O1037 1.306 . S
C1036 O1039 1.160 . S
O1037 C1036 1.306 . S
O1037 Cd1038 2.228 . S
Cd1038 O1037 2.228 . S
Cd1038 O1042 2.273 . S
Cd1038 O1046 2.277 . S
O1039 C1036 1.160 . S
O1039 Cd1040 2.203 . S
Cd1040 O1039 2.203 . S
Cd1040 O1042 2.411 . S
Cd1040 O1043 2.333 . S
Cd1040 O1044 2.352 . S
Cd1040 O1048 2.277 . S
Cd1040 O1049 2.356 . S
C1041 O1046 1.209 . S
C1041 O1048 1.226 . S
O1042 Cd1038 2.273 . S
O1042 Cd1040 2.411 . S
O1042 C1045 1.320 . S
O1043 Cd1040 2.333 . S
O1043 C1045 1.214 . S
O1044 Cd1040 2.352 . S
O1044 C1047 1.258 . S
C1045 O1042 1.320 . S
C1045 O1043 1.214 . S
O1046 Cd1038 2.277 . S
O1046 C1041 1.209 . S
C1047 O1044 1.258 . S
C1047 O1049 1.282 . S
O1048 Cd1040 2.277 . S
O1048 C1041 1.226 . S
O1049 Cd1040 2.356 . S
O1049 C1047 1.282 . S
C1050 O1051 1.306 . S
C1050 O1053 1.160 . S
O1051 C1050 1.306 . S
O1051 Cd1052 2.228 . S
Cd1052 O1051 2.228 . S
Cd1052 O1056 2.273 . S
Cd1052 O1060 2.277 . S
O1053 C1050 1.160 . S
O1053 Cd1054 2.203 . S
Cd1054 O1053 2.203 . S
Cd1054 O1056 2.411 . S
Cd1054 O1057 2.333 . S
Cd1054 O1058 2.352 . S
Cd1054 O1062 2.277 . S
Cd1054 O1063 2.356 . S
C1055 O1060 1.209 . S
C1055 O1062 1.226 . S
O1056 Cd1052 2.273 . S
O1056 Cd1054 2.411 . S
O1056 C1059 1.320 . S
O1057 Cd1054 2.333 . S
O1057 C1059 1.214 . S
O1058 Cd1054 2.352 . S
O1058 C1061 1.258 . S
C1059 O1056 1.320 . S
C1059 O1057 1.214 . S
O1060 Cd1052 2.277 . S
O1060 C1055 1.209 . S
C1061 O1058 1.258 . S
C1061 O1063 1.282 . S
O1062 Cd1054 2.277 . S
O1062 C1055 1.226 . S
O1063 Cd1054 2.356 . S
O1063 C1061 1.282 . S
C1064 O1065 1.306 . S
C1064 O1067 1.160 . S
O1065 C1064 1.306 . S
O1065 Cd1066 2.228 . S
Cd1066 O1065 2.228 . S
Cd1066 O1070 2.273 . S
Cd1066 O1074 2.277 . S
O1067 C1064 1.160 . S
O1067 Cd1068 2.203 . S
Cd1068 O1067 2.203 . S
Cd1068 O1070 2.411 . S
Cd1068 O1071 2.333 . S
Cd1068 O1072 2.352 . S
Cd1068 O1076 2.277 . S
Cd1068 O1077 2.356 . S
C1069 O1074 1.209 . S
C1069 O1076 1.226 . S
O1070 Cd1066 2.273 . S
O1070 Cd1068 2.411 . S
O1070 C1073 1.320 . S
O1071 Cd1068 2.333 . S
O1071 C1073 1.214 . S
O1072 Cd1068 2.352 . S
O1072 C1075 1.258 . S
C1073 O1070 1.320 . S
C1073 O1071 1.214 . S
O1074 Cd1066 2.277 . S
O1074 C1069 1.209 . S
C1075 O1072 1.258 . S
C1075 O1077 1.282 . S
O1076 Cd1068 2.277 . S
O1076 C1069 1.226 . S
O1077 Cd1068 2.356 . S
O1077 C1075 1.282 . S
C1078 O1079 1.306 . S
C1078 O1081 1.160 . S
O1079 C1078 1.306 . S
O1079 Cd1080 2.228 . S
Cd1080 O1079 2.228 . S
Cd1080 O1084 2.273 . S
Cd1080 O1088 2.277 . S
O1081 C1078 1.160 . S
O1081 Cd1082 2.203 . S
Cd1082 O1081 2.203 . S
Cd1082 O1084 2.411 . S
Cd1082 O1085 2.333 . S
Cd1082 O1086 2.352 . S
Cd1082 O1090 2.277 . S
Cd1082 O1091 2.356 . S
C1083 O1088 1.209 . S
C1083 O1090 1.226 . S
O1084 Cd1080 2.273 . S
O1084 Cd1082 2.411 . S
O1084 C1087 1.320 . S
O1085 Cd1082 2.333 . S
O1085 C1087 1.214 . S
O1086 Cd1082 2.352 . S
O1086 C1089 1.258 . S
C1087 O1084 1.320 . S
C1087 O1085 1.214 . S
O1088 Cd1080 2.277 . S
O1088 C1083 1.209 . S
C1089 O1086 1.258 . S
C1089 O1091 1.282 . S
O1090 Cd1082 2.277 . S
O1090 C1083 1.226 . S
O1091 Cd1082 2.356 . S
O1091 C1089 1.282 . S
C1092 O1093 1.306 . S
C1092 O1095 1.160 . S
O1093 C1092 1.306 . S
O1093 Cd1094 2.228 . S
Cd1094 O1093 2.228 . S
Cd1094 O1098 2.273 . S
Cd1094 O1102 2.277 . S
O1095 C1092 1.160 . S
O1095 Cd1096 2.203 . S
Cd1096 O1095 2.203 . S
Cd1096 O1098 2.411 . S
Cd1096 O1099 2.333 . S
Cd1096 O1100 2.352 . S
Cd1096 O1104 2.277 . S
Cd1096 O1105 2.356 . S
C1097 O1102 1.209 . S
C1097 O1104 1.226 . S
O1098 Cd1094 2.273 . S
O1098 Cd1096 2.411 . S
O1098 C1101 1.320 . S
O1099 Cd1096 2.333 . S
O1099 C1101 1.214 . S
O1100 Cd1096 2.352 . S
O1100 C1103 1.258 . S
C1101 O1098 1.320 . S
C1101 O1099 1.214 . S
O1102 Cd1094 2.277 . S
O1102 C1097 1.209 . S
C1103 O1100 1.258 . S
C1103 O1105 1.282 . S
O1104 Cd1096 2.277 . S
O1104 C1097 1.226 . S
O1105 Cd1096 2.356 . S
O1105 C1103 1.282 . S
C1106 O1107 1.306 . S
C1106 O1109 1.160 . S
O1107 C1106 1.306 . S
O1107 Cd1108 2.228 . S
Cd1108 O1107 2.228 . S
Cd1108 O1112 2.273 . S
Cd1108 O1116 2.277 . S
O1109 C1106 1.160 . S
O1109 Cd1110 2.203 . S
Cd1110 O1109 2.203 . S
Cd1110 O1112 2.411 . S
Cd1110 O1113 2.333 . S
Cd1110 O1114 2.352 . S
Cd1110 O1118 2.277 . S
Cd1110 O1119 2.356 . S
C1111 O1116 1.209 . S
C1111 O1118 1.226 . S
O1112 Cd1108 2.273 . S
O1112 Cd1110 2.411 . S
O1112 C1115 1.320 . S
O1113 Cd1110 2.333 . S
O1113 C1115 1.214 . S
O1114 Cd1110 2.352 . S
O1114 C1117 1.258 . S
C1115 O1112 1.320 . S
C1115 O1113 1.214 . S
O1116 Cd1108 2.277 . S
O1116 C1111 1.209 . S
C1117 O1114 1.258 . S
C1117 O1119 1.282 . S
O1118 Cd1110 2.277 . S
O1118 C1111 1.226 . S
O1119 Cd1110 2.356 . S
O1119 C1117 1.282 . S
C1120 O1121 1.306 . S
C1120 O1123 1.160 . S
O1121 C1120 1.306 . S
O1121 Cd1122 2.228 . S
Cd1122 O1121 2.228 . S
Cd1122 O1126 2.273 . S
Cd1122 O1130 2.277 . S
O1123 C1120 1.160 . S
O1123 Cd1124 2.203 . S
Cd1124 O1123 2.203 . S
Cd1124 O1126 2.411 . S
Cd1124 O1127 2.333 . S
Cd1124 O1128 2.352 . S
Cd1124 O1132 2.277 . S
Cd1124 O1133 2.356 . S
C1125 O1130 1.209 . S
C1125 O1132 1.226 . S
O1126 Cd1122 2.273 . S
O1126 Cd1124 2.411 . S
O1126 C1129 1.320 . S
O1127 Cd1124 2.333 . S
O1127 C1129 1.214 . S
O1128 Cd1124 2.352 . S
O1128 C1131 1.258 . S
C1129 O1126 1.320 . S
C1129 O1127 1.214 . S
O1130 Cd1122 2.277 . S
O1130 C1125 1.209 . S
C1131 O1128 1.258 . S
C1131 O1133 1.282 . S
O1132 Cd1124 2.277 . S
O1132 C1125 1.226 . S
O1133 Cd1124 2.356 . S
O1133 C1131 1.282 . S
C1134 O1135 1.306 . S
C1134 O1137 1.160 . S
O1135 C1134 1.306 . S
O1135 Cd1136 2.228 . S
Cd1136 O1135 2.228 . S
Cd1136 O1140 2.273 . S
Cd1136 O1144 2.277 . S
O1137 C1134 1.160 . S
O1137 Cd1138 2.203 . S
Cd1138 O1137 2.203 . S
Cd1138 O1140 2.411 . S
Cd1138 O1141 2.333 . S
Cd1138 O1142 2.352 . S
Cd1138 O1146 2.277 . S
Cd1138 O1147 2.356 . S
C1139 O1144 1.209 . S
C1139 O1146 1.226 . S
O1140 Cd1136 2.273 . S
O1140 Cd1138 2.411 . S
O1140 C1143 1.320 . S
O1141 Cd1138 2.333 . S
O1141 C1143 1.214 . S
O1142 Cd1138 2.352 . S
O1142 C1145 1.258 . S
C1143 O1140 1.320 . S
C1143 O1141 1.214 . S
O1144 Cd1136 2.277 . S
O1144 C1139 1.209 . S
C1145 O1142 1.258 . S
C1145 O1147 1.282 . S
O1146 Cd1138 2.277 . S
O1146 C1139 1.226 . S
O1147 Cd1138 2.356 . S
O1147 C1145 1.282 . S
C1148 O1149 1.306 . S
C1148 O1151 1.160 . S
O1149 C1148 1.306 . S
O1149 Cd1150 2.228 . S
Cd1150 O1149 2.228 . S
Cd1150 O1154 2.273 . S
Cd1150 O1158 2.277 . S
O1151 C1148 1.160 . S
O1151 Cd1152 2.203 . S
Cd1152 O1151 2.203 . S
Cd1152 O1154 2.411 . S
Cd1152 O1155 2.333 . S
Cd1152 O1156 2.352 . S
Cd1152 O1160 2.277 . S
Cd1152 O1161 2.356 . S
C1153 O1158 1.209 . S
C1153 O1160 1.226 . S
O1154 Cd1150 2.273 . S
O1154 Cd1152 2.411 . S
O1154 C1157 1.320 . S
O1155 Cd1152 2.333 . S
O1155 C1157 1.214 . S
O1156 Cd1152 2.352 . S
O1156 C1159 1.258 . S
C1157 O1154 1.320 . S
C1157 O1155 1.214 . S
O1158 Cd1150 2.277 . S
O1158 C1153 1.209 . S
C1159 O1156 1.258 . S
C1159 O1161 1.282 . S
O1160 Cd1152 2.277 . S
O1160 C1153 1.226 . S
O1161 Cd1152 2.356 . S
O1161 C1159 1.282 . S
C1162 O1163 1.306 . S
C1162 O1165 1.160 . S
O1163 C1162 1.306 . S
O1163 Cd1164 2.228 . S
Cd1164 O1163 2.228 . S
Cd1164 O1168 2.273 . S
Cd1164 O1172 2.277 . S
O1165 C1162 1.160 . S
O1165 Cd1166 2.203 . S
Cd1166 O1165 2.203 . S
Cd1166 O1168 2.411 . S
Cd1166 O1169 2.333 . S
Cd1166 O1170 2.352 . S
Cd1166 O1174 2.277 . S
Cd1166 O1175 2.356 . S
C1167 O1172 1.209 . S
C1167 O1174 1.226 . S
O1168 Cd1164 2.273 . S
O1168 Cd1166 2.411 . S
O1168 C1171 1.320 . S
O1169 Cd1166 2.333 . S
O1169 C1171 1.214 . S
O1170 Cd1166 2.352 . S
O1170 C1173 1.258 . S
C1171 O1168 1.320 . S
C1171 O1169 1.214 . S
O1172 Cd1164 2.277 . S
O1172 C1167 1.209 . S
C1173 O1170 1.258 . S
C1173 O1175 1.282 . S
O1174 Cd1166 2.277 . S
O1174 C1167 1.226 . S
O1175 Cd1166 2.356 . S
O1175 C1173 1.282 . S
C1176 O1177 1.306 . S
C1176 O1179 1.160 . S
O1177 C1176 1.306 . S
O1177 Cd1178 2.228 . S
Cd1178 O1177 2.228 . S
Cd1178 O1182 2.273 . S
Cd1178 O1186 2.277 . S
O1179 C1176 1.160 . S
O1179 Cd1180 2.203 . S
Cd1180 O1179 2.203 . S
Cd1180 O1182 2.411 . S
Cd1180 O1183 2.333 . S
Cd1180 O1184 2.352 . S
Cd1180 O1188 2.277 . S
Cd1180 O1189 2.356 . S
C1181 O1186 1.209 . S
C1181 O1188 1.226 . S
O1182 Cd1178 2.273 . S
O1182 Cd1180 2.411 . S
O1182 C1185 1.320 . S
O1183 Cd1180 2.333 . S
O1183 C1185 1.214 . S
O1184 Cd1180 2.352 . S
O1184 C1187 1.258 . S
C1185 O1182 1.320 . S
C1185 O1183 1.214 . S
O1186 Cd1178 2.277 . S
O1186 C1181 1.209 . S
C1187 O1184 1.258 . S
C1187 O1189 1.282 . S
O1188 Cd1180 2.277 . S
O1188 C1181 1.226 . S
O1189 Cd1180 2.356 . S
O1189 C1187 1.282 . S
C1190 O1191 1.306 . S
C1190 O1193 1.160 . S
O1191 C1190 1.306 . S
O1191 Cd1192 2.228 . S
Cd1192 O1191 2.228 . S
Cd1192 O1196 2.273 . S
Cd1192 O1200 2.277 . S
O1193 C1190 1.160 . S
O1193 Cd1194 2.203 . S
Cd1194 O1193 2.203 . S
Cd1194 O1196 2.411 . S
Cd1194 O1197 2.333 . S
Cd1194 O1198 2.352 . S
Cd1194 O1202 2.277 . S
Cd1194 O1203 2.356 . S
C1195 O1200 1.209 . S
C1195 O1202 1.226 . S
O1196 Cd1192 2.273 . S
O1196 Cd1194 2.411 . S
O1196 C1199 1.320 . S
O1197 Cd1194 2.333 . S
O1197 C1199 1.214 . S
O1198 Cd1194 2.352 . S
O1198 C1201 1.258 . S
C1199 O1196 1.320 . S
C1199 O1197 1.214 . S
O1200 Cd1192 2.277 . S
O1200 C1195 1.209 . S
C1201 O1198 1.258 . S
C1201 O1203 1.282 . S
O1202 Cd1194 2.277 . S
O1202 C1195 1.226 . S
O1203 Cd1194 2.356 . S
O1203 C1201 1.282 . S
C1204 O1205 1.306 . S
C1204 O1207 1.160 . S
O1205 C1204 1.306 . S
O1205 Cd1206 2.228 . S
Cd1206 O1205 2.228 . S
Cd1206 O1210 2.273 . S
Cd1206 O1214 2.277 . S
O1207 C1204 1.160 . S
O1207 Cd1208 2.203 . S
Cd1208 O1207 2.203 . S
Cd1208 O1210 2.411 . S
Cd1208 O1211 2.333 . S
Cd1208 O1212 2.352 . S
Cd1208 O1216 2.277 . S
Cd1208 O1217 2.356 . S
C1209 O1214 1.209 . S
C1209 O1216 1.226 . S
O1210 Cd1206 2.273 . S
O1210 Cd1208 2.411 . S
O1210 C1213 1.320 . S
O1211 Cd1208 2.333 . S
O1211 C1213 1.214 . S
O1212 Cd1208 2.352 . S
O1212 C1215 1.258 . S
C1213 O1210 1.320 . S
C1213 O1211 1.214 . S
O1214 Cd1206 2.277 . S
O1214 C1209 1.209 . S
C1215 O1212 1.258 . S
C1215 O1217 1.282 . S
O1216 Cd1208 2.277 . S
O1216 C1209 1.226 . S
O1217 Cd1208 2.356 . S
O1217 C1215 1.282 . S
C1218 O1219 1.306 . S
C1218 O1221 1.160 . S
O1219 C1218 1.306 . S
O1219 Cd1220 2.228 . S
Cd1220 O1219 2.228 . S
Cd1220 O1224 2.273 . S
Cd1220 O1228 2.277 . S
O1221 C1218 1.160 . S
O1221 Cd1222 2.203 . S
Cd1222 O1221 2.203 . S
Cd1222 O1224 2.411 . S
Cd1222 O1225 2.333 . S
Cd1222 O1226 2.352 . S
Cd1222 O1230 2.277 . S
Cd1222 O1231 2.356 . S
C1223 O1228 1.209 . S
C1223 O1230 1.226 . S
O1224 Cd1220 2.273 . S
O1224 Cd1222 2.411 . S
O1224 C1227 1.320 . S
O1225 Cd1222 2.333 . S
O1225 C1227 1.214 . S
O1226 Cd1222 2.352 . S
O1226 C1229 1.258 . S
C1227 O1224 1.320 . S
C1227 O1225 1.214 . S
O1228 Cd1220 2.277 . S
O1228 C1223 1.209 . S
C1229 O1226 1.258 . S
C1229 O1231 1.282 . S
O1230 Cd1222 2.277 . S
O1230 C1223 1.226 . S
O1231 Cd1222 2.356 . S
O1231 C1229 1.282 . S
C1232 O1233 1.306 . S
C1232 O1235 1.160 . S
O1233 C1232 1.306 . S
O1233 Cd1234 2.228 . S
Cd1234 O1233 2.228 . S
Cd1234 O1238 2.273 . S
Cd1234 O1242 2.277 . S
O1235 C1232 1.160 . S
O1235 Cd1236 2.203 . S
Cd1236 O1235 2.203 . S
Cd1236 O1238 2.411 . S
Cd1236 O1239 2.333 . S
Cd1236 O1240 2.352 . S
Cd1236 O1244 2.277 . S
Cd1236 O1245 2.356 . S
C1237 O1242 1.209 . S
C1237 O1244 1.226 . S
O1238 Cd1234 2.273 . S
O1238 Cd1236 2.411 . S
O1238 C1241 1.320 . S
O1239 Cd1236 2.333 . S
O1239 C1241 1.214 . S
O1240 Cd1236 2.352 . S
O1240 C1243 1.258 . S
C1241 O1238 1.320 . S
C1241 O1239 1.214 . S
O1242 Cd1234 2.277 . S
O1242 C1237 1.209 . S
C1243 O1240 1.258 . S
C1243 O1245 1.282 . S
O1244 Cd1236 2.277 . S
O1244 C1237 1.226 . S
O1245 Cd1236 2.356 . S
O1245 C1243 1.282 . S
C1246 O1247 1.306 . S
C1246 O1249 1.160 . S
O1247 C1246 1.306 . S
O1247 Cd1248 2.228 . S
Cd1248 O1247 2.228 . S
Cd1248 O1252 2.273 . S
Cd1248 O1256 2.277 . S
O1249 C1246 1.160 . S
O1249 Cd1250 2.203 . S
Cd1250 O1249 2.203 . S
Cd1250 O1252 2.411 . S
Cd1250 O1253 2.333 . S
Cd1250 O1254 2.352 . S
Cd1250 O1258 2.277 . S
Cd1250 O1259 2.356 . S
C1251 O1256 1.209 . S
C1251 O1258 1.226 . S
O1252 Cd1248 2.273 . S
O1252 Cd1250 2.411 . S
O1252 C1255 1.320 . S
O1253 Cd1250 2.333 . S
O1253 C1255 1.214 . S
O1254 Cd1250 2.352 . S
O1254 C1257 1.258 . S
C1255 O1252 1.320 . S
C1255 O1253 1.214 . S
O1256 Cd1248 2.277 . S
O1256 C1251 1.209 . S
C1257 O1254 1.258 . S
C1257 O1259 1.282 . S
O1258 Cd1250 2.277 . S
O1258 C1251 1.226 . S
O1259 Cd1250 2.356 . S
O1259 C1257 1.282 . S
C1260 O1261 1.306 . S
C1260 O1263 1.160 . S
O1261 C1260 1.306 . S
O1261 Cd1262 2.228 . S
Cd1262 O1261 2.228 . S
Cd1262 O1266 2.273 . S
Cd1262 O1270 2.277 . S
O1263 C1260 1.160 . S
O1263 Cd1264 2.203 . S
Cd1264 O1263 2.203 . S
Cd1264 O1266 2.411 . S
Cd1264 O1267 2.333 . S
Cd1264 O1268 2.352 . S
Cd1264 O1272 2.277 . S
Cd1264 O1273 2.356 . S
C1265 O1270 1.209 . S
C1265 O1272 1.226 . S
O1266 Cd1262 2.273 . S
O1266 Cd1264 2.411 . S
O1266 C1269 1.320 . S
O1267 Cd1264 2.333 . S
O1267 C1269 1.214 . S
O1268 Cd1264 2.352 . S
O1268 C1271 1.258 . S
C1269 O1266 1.320 . S
C1269 O1267 1.214 . S
O1270 Cd1262 2.277 . S
O1270 C1265 1.209 . S
C1271 O1268 1.258 . S
C1271 O1273 1.282 . S
O1272 Cd1264 2.277 . S
O1272 C1265 1.226 . S
O1273 Cd1264 2.356 . S
O1273 C1271 1.282 . S
C1274 O1275 1.306 . S
C1274 O1277 1.160 . S
O1275 C1274 1.306 . S
O1275 Cd1276 2.228 . S
Cd1276 O1275 2.228 . S
Cd1276 O1280 2.273 . S
Cd1276 O1284 2.277 . S
O1277 C1274 1.160 . S
O1277 Cd1278 2.203 . S
Cd1278 O1277 2.203 . S
Cd1278 O1280 2.411 . S
Cd1278 O1281 2.333 . S
Cd1278 O1282 2.352 . S
Cd1278 O1286 2.277 . S
Cd1278 O1287 2.356 . S
C1279 O1284 1.209 . S
C1279 O1286 1.226 . S
O1280 Cd1276 2.273 . S
O1280 Cd1278 2.411 . S
O1280 C1283 1.320 . S
O1281 Cd1278 2.333 . S
O1281 C1283 1.214 . S
O1282 Cd1278 2.352 . S
O1282 C1285 1.258 . S
C1283 O1280 1.320 . S
C1283 O1281 1.214 . S
O1284 Cd1276 2.277 . S
O1284 C1279 1.209 . S
C1285 O1282 1.258 . S
C1285 O1287 1.282 . S
O1286 Cd1278 2.277 . S
O1286 C1279 1.226 . S
O1287 Cd1278 2.356 . S
O1287 C1285 1.282 . S
C1288 O1289 1.306 . S
C1288 O1291 1.160 . S
O1289 C1288 1.306 . S
O1289 Cd1290 2.228 . S
Cd1290 O1289 2.228 . S
Cd1290 O1294 2.273 . S
Cd1290 O1298 2.277 . S
O1291 C1288 1.160 . S
O1291 Cd1292 2.203 . S
Cd1292 O1291 2.203 . S
Cd1292 O1294 2.411 . S
Cd1292 O1295 2.333 . S
Cd1292 O1296 2.352 . S
Cd1292 O1300 2.277 . S
Cd1292 O1301 2.356 . S
C1293 O1298 1.209 . S
C1293 O1300 1.226 . S
O1294 Cd1290 2.273 . S
O1294 Cd1292 2.411 . S
O1294 C1297 1.320 . S
O1295 Cd1292 2.333 . S
O1295 C1297 1.214 . S
O1296 Cd1292 2.352 . S
O1296 C1299 1.258 . S
C1297 O1294 1.320 . S
C1297 O1295 1.214 . S
O1298 Cd1290 2.277 . S
O1298 C1293 1.209 . S
C1299 O1296 1.258 . S
C1299 O1301 1.282 . S
O1300 Cd1292 2.277 . S
O1300 C1293 1.226 . S
O1301 Cd1292 2.356 . S
O1301 C1299 1.282 . S
C1302 O1303 1.306 . S
C1302 O1305 1.160 . S
O1303 C1302 1.306 . S
O1303 Cd1304 2.228 . S
Cd1304 O1303 2.228 . S
Cd1304 O1308 2.273 . S
Cd1304 O1312 2.277 . S
O1305 C1302 1.160 . S
O1305 Cd1306 2.203 . S
Cd1306 O1305 2.203 . S
Cd1306 O1308 2.411 . S
Cd1306 O1309 2.333 . S
Cd1306 O1310 2.352 . S
Cd1306 O1314 2.277 . S
Cd1306 O1315 2.356 . S
C1307 O1312 1.209 . S
C1307 O1314 1.226 . S
O1308 Cd1304 2.273 . S
O1308 Cd1306 2.411 . S
O1308 C1311 1.320 . S
O1309 Cd1306 2.333 . S
O1309 C1311 1.214 . S
O1310 Cd1306 2.352 . S
O1310 C1313 1.258 . S
C1311 O1308 1.320 . S
C1311 O1309 1.214 . S
O1312 Cd1304 2.277 . S
O1312 C1307 1.209 . S
C1313 O1310 1.258 . S
C1313 O1315 1.282 . S
O1314 Cd1306 2.277 . S
O1314 C1307 1.226 . S
O1315 Cd1306 2.356 . S
O1315 C1313 1.282 . S
C1316 O1317 1.306 . S
C1316 O1319 1.160 . S
O1317 C1316 1.306 . S
O1317 Cd1318 2.228 . S
Cd1318 O1317 2.228 . S
Cd1318 O1322 2.273 . S
Cd1318 O1326 2.277 . S
O1319 C1316 1.160 . S
O1319 Cd1320 2.203 . S
Cd1320 O1319 2.203 . S
Cd1320 O1322 2.411 . S
Cd1320 O1323 2.333 . S
Cd1320 O1324 2.352 . S
Cd1320 O1328 2.277 . S
Cd1320 O1329 2.356 . S
C1321 O1326 1.209 . S
C1321 O1328 1.226 . S
O1322 Cd1318 2.273 . S
O1322 Cd1320 2.411 . S
O1322 C1325 1.320 . S
O1323 Cd1320 2.333 . S
O1323 C1325 1.214 . S
O1324 Cd1320 2.352 . S
O1324 C1327 1.258 . S
C1325 O1322 1.320 . S
C1325 O1323 1.214 . S
O1326 Cd1318 2.277 . S
O1326 C1321 1.209 . S
C1327 O1324 1.258 . S
C1327 O1329 1.282 . S
O1328 Cd1320 2.277 . S
O1328 C1321 1.226 . S
O1329 Cd1320 2.356 . S
O1329 C1327 1.282 . S
C1330 O1331 1.306 . S
C1330 O1333 1.160 . S
O1331 C1330 1.306 . S
O1331 Cd1332 2.228 . S
Cd1332 O1331 2.228 . S
Cd1332 O1336 2.273 . S
Cd1332 O1340 2.277 . S
O1333 C1330 1.160 . S
O1333 Cd1334 2.203 . S
Cd1334 O1333 2.203 . S
Cd1334 O1336 2.411 . S
Cd1334 O1337 2.333 . S
Cd1334 O1338 2.352 . S
Cd1334 O1342 2.277 . S
Cd1334 O1343 2.356 . S
C1335 O1340 1.209 . S
C1335 O1342 1.226 . S
O1336 Cd1332 2.273 . S
O1336 Cd1334 2.411 . S
O1336 C1339 1.320 . S
O1337 Cd1334 2.333 . S
O1337 C1339 1.214 . S
O1338 Cd1334 2.352 . S
O1338 C1341 1.258 . S
C1339 O1336 1.320 . S
C1339 O1337 1.214 . S
O1340 Cd1332 2.277 . S
O1340 C1335 1.209 . S
C1341 O1338 1.258 . S
C1341 O1343 1.282 . S
O1342 Cd1334 2.277 . S
O1342 C1335 1.226 . S
O1343 Cd1334 2.356 . S
O1343 C1341 1.282 . S
H1344 C1350 0.930 . S
H1345 C1353 0.930 . S
H1346 C1354 0.930 . S
H1347 C1355 0.930 . S
H1348 C1358 0.930 . S
H1349 C1359 0.930 . S
C1350 H1344 0.930 . S
C1350 C1351 1.355 . S
C1350 C1352 1.415 . S
C1351 C1350 1.355 . S
C1351 C1353 1.419 . S
C1352 C1350 1.415 . S
C1352 C1357 1.425 . S
C1352 C1359 1.409 . S
C1353 H1345 0.930 . S
C1353 C1351 1.419 . S
C1353 C1354 1.362 . S
C1354 H1346 0.930 . S
C1354 C1353 1.362 . S
C1354 C1357 1.409 . S
C1355 H1347 0.930 . S
C1355 C1356 1.355 . S
C1355 C1357 1.415 . S
C1356 C1355 1.355 . S
C1356 C1358 1.419 . S
C1357 C1352 1.425 . S
C1357 C1354 1.409 . S
C1357 C1355 1.415 . S
C1358 H1348 0.930 . S
C1358 C1356 1.419 . S
C1358 C1359 1.362 . S
C1359 H1349 0.930 . S
C1359 C1352 1.409 . S
C1359 C1358 1.362 . S
H1360 C1366 0.930 . S
H1361 C1369 0.930 . S
H1362 C1370 0.930 . S
H1363 C1371 0.930 . S
H1364 C1374 0.930 . S
H1365 C1375 0.930 . S
C1366 H1360 0.930 . S
C1366 C1367 1.355 . S
C1366 C1368 1.415 . S
C1367 C1366 1.355 . S
C1367 C1369 1.419 . S
C1368 C1366 1.415 . S
C1368 C1373 1.425 . S
C1368 C1375 1.409 . S
C1369 H1361 0.930 . S
C1369 C1367 1.419 . S
C1369 C1370 1.362 . S
C1370 H1362 0.930 . S
C1370 C1369 1.362 . S
C1370 C1373 1.409 . S
C1371 H1363 0.930 . S
C1371 C1372 1.355 . S
C1371 C1373 1.415 . S
C1372 C1371 1.355 . S
C1372 C1374 1.419 . S
C1373 C1368 1.425 . S
C1373 C1370 1.409 . S
C1373 C1371 1.415 . S
C1374 H1364 0.930 . S
C1374 C1372 1.419 . S
C1374 C1375 1.362 . S
C1375 H1365 0.930 . S
C1375 C1368 1.409 . S
C1375 C1374 1.362 . S
H1376 C1382 0.930 . S
H1377 C1385 0.930 . S
H1378 C1386 0.930 . S
H1379 C1387 0.930 . S
H1380 C1390 0.930 . S
H1381 C1391 0.930 . S
C1382 H1376 0.930 . S
C1382 C1383 1.355 . S
C1382 C1384 1.415 . S
C1383 C1382 1.355 . S
C1383 C1385 1.419 . S
C1384 C1382 1.415 . S
C1384 C1389 1.425 . S
C1384 C1391 1.409 . S
C1385 H1377 0.930 . S
C1385 C1383 1.419 . S
C1385 C1386 1.362 . S
C1386 H1378 0.930 . S
C1386 C1385 1.362 . S
C1386 C1389 1.409 . S
C1387 H1379 0.930 . S
C1387 C1388 1.355 . S
C1387 C1389 1.415 . S
C1388 C1387 1.355 . S
C1388 C1390 1.419 . S
C1389 C1384 1.425 . S
C1389 C1386 1.409 . S
C1389 C1387 1.415 . S
C1390 H1380 0.930 . S
C1390 C1388 1.419 . S
C1390 C1391 1.362 . S
C1391 H1381 0.930 . S
C1391 C1384 1.409 . S
C1391 C1390 1.362 . S
H1392 C1398 0.930 . S
H1393 C1401 0.930 . S
H1394 C1402 0.930 . S
H1395 C1403 0.930 . S
H1396 C1406 0.930 . S
H1397 C1407 0.930 . S
C1398 H1392 0.930 . S
C1398 C1399 1.355 . S
C1398 C1400 1.415 . S
C1399 C1398 1.355 . S
C1399 C1401 1.419 . S
C1400 C1398 1.415 . S
C1400 C1405 1.425 . S
C1400 C1407 1.409 . S
C1401 H1393 0.930 . S
C1401 C1399 1.419 . S
C1401 C1402 1.362 . S
C1402 H1394 0.930 . S
C1402 C1401 1.362 . S
C1402 C1405 1.409 . S
C1403 H1395 0.930 . S
C1403 C1404 1.355 . S
C1403 C1405 1.415 . S
C1404 C1403 1.355 . S
C1404 C1406 1.419 . S
C1405 C1400 1.425 . S
C1405 C1402 1.409 . S
C1405 C1403 1.415 . S
C1406 H1396 0.930 . S
C1406 C1404 1.419 . S
C1406 C1407 1.362 . S
C1407 H1397 0.930 . S
C1407 C1400 1.409 . S
C1407 C1406 1.362 . S
H1408 C1414 0.930 . S
H1409 C1417 0.930 . S
H1410 C1418 0.930 . S
H1411 C1419 0.930 . S
H1412 C1422 0.930 . S
H1413 C1423 0.930 . S
C1414 H1408 0.930 . S
C1414 C1415 1.355 . S
C1414 C1416 1.415 . S
C1415 C1414 1.355 . S
C1415 C1417 1.419 . S
C1416 C1414 1.415 . S
C1416 C1421 1.425 . S
C1416 C1423 1.409 . S
C1417 H1409 0.930 . S
C1417 C1415 1.419 . S
C1417 C1418 1.362 . S
C1418 H1410 0.930 . S
C1418 C1417 1.362 . S
C1418 C1421 1.409 . S
C1419 H1411 0.930 . S
C1419 C1420 1.355 . S
C1419 C1421 1.415 . S
C1420 C1419 1.355 . S
C1420 C1422 1.419 . S
C1421 C1416 1.425 . S
C1421 C1418 1.409 . S
C1421 C1419 1.415 . S
C1422 H1412 0.930 . S
C1422 C1420 1.419 . S
C1422 C1423 1.362 . S
C1423 H1413 0.930 . S
C1423 C1416 1.409 . S
C1423 C1422 1.362 . S
H1424 C1430 0.930 . S
H1425 C1433 0.930 . S
H1426 C1434 0.930 . S
H1427 C1435 0.930 . S
H1428 C1438 0.930 . S
H1429 C1439 0.930 . S
C1430 H1424 0.930 . S
C1430 C1431 1.355 . S
C1430 C1432 1.415 . S
C1431 C1430 1.355 . S
C1431 C1433 1.419 . S
C1432 C1430 1.415 . S
C1432 C1437 1.425 . S
C1432 C1439 1.409 . S
C1433 H1425 0.930 . S
C1433 C1431 1.419 . S
C1433 C1434 1.362 . S
C1434 H1426 0.930 . S
C1434 C1433 1.362 . S
C1434 C1437 1.409 . S
C1435 H1427 0.930 . S
C1435 C1436 1.355 . S
C1435 C1437 1.415 . S
C1436 C1435 1.355 . S
C1436 C1438 1.419 . S
C1437 C1432 1.425 . S
C1437 C1434 1.409 . S
C1437 C1435 1.415 . S
C1438 H1428 0.930 . S
C1438 C1436 1.419 . S
C1438 C1439 1.362 . S
C1439 H1429 0.930 . S
C1439 C1432 1.409 . S
C1439 C1438 1.362 . S
H1440 C1446 0.930 . S
H1441 C1449 0.930 . S
H1442 C1450 0.930 . S
H1443 C1451 0.930 . S
H1444 C1454 0.930 . S
H1445 C1455 0.930 . S
C1446 H1440 0.930 . S
C1446 C1447 1.355 . S
C1446 C1448 1.415 . S
C1447 C1446 1.355 . S
C1447 C1449 1.419 . S
C1448 C1446 1.415 . S
C1448 C1453 1.425 . S
C1448 C1455 1.409 . S
C1449 H1441 0.930 . S
C1449 C1447 1.419 . S
C1449 C1450 1.362 . S
C1450 H1442 0.930 . S
C1450 C1449 1.362 . S
C1450 C1453 1.409 . S
C1451 H1443 0.930 . S
C1451 C1452 1.355 . S
C1451 C1453 1.415 . S
C1452 C1451 1.355 . S
C1452 C1454 1.419 . S
C1453 C1448 1.425 . S
C1453 C1450 1.409 . S
C1453 C1451 1.415 . S
C1454 H1444 0.930 . S
C1454 C1452 1.419 . S
C1454 C1455 1.362 . S
C1455 H1445 0.930 . S
C1455 C1448 1.409 . S
C1455 C1454 1.362 . S
H1456 C1462 0.930 . S
H1457 C1465 0.930 . S
H1458 C1466 0.930 . S
H1459 C1467 0.930 . S
H1460 C1470 0.930 . S
H1461 C1471 0.930 . S
C1462 H1456 0.930 . S
C1462 C1463 1.355 . S
C1462 C1464 1.415 . S
C1463 C1462 1.355 . S
C1463 C1465 1.419 . S
C1464 C1462 1.415 . S
C1464 C1469 1.425 . S
C1464 C1471 1.409 . S
C1465 H1457 0.930 . S
C1465 C1463 1.419 . S
C1465 C1466 1.362 . S
C1466 H1458 0.930 . S
C1466 C1465 1.362 . S
C1466 C1469 1.409 . S
C1467 H1459 0.930 . S
C1467 C1468 1.355 . S
C1467 C1469 1.415 . S
C1468 C1467 1.355 . S
C1468 C1470 1.419 . S
C1469 C1464 1.425 . S
C1469 C1466 1.409 . S
C1469 C1467 1.415 . S
C1470 H1460 0.930 . S
C1470 C1468 1.419 . S
C1470 C1471 1.362 . S
C1471 H1461 0.930 . S
C1471 C1464 1.409 . S
C1471 C1470 1.362 . S
H1472 C1478 0.930 . S
H1473 C1481 0.930 . S
H1474 C1482 0.930 . S
H1475 C1483 0.930 . S
H1476 C1486 0.930 . S
H1477 C1487 0.930 . S
C1478 H1472 0.930 . S
C1478 C1479 1.355 . S
C1478 C1480 1.415 . S
C1479 C1478 1.355 . S
C1479 C1481 1.419 . S
C1480 C1478 1.415 . S
C1480 C1485 1.425 . S
C1480 C1487 1.409 . S
C1481 H1473 0.930 . S
C1481 C1479 1.419 . S
C1481 C1482 1.362 . S
C1482 H1474 0.930 . S
C1482 C1481 1.362 . S
C1482 C1485 1.409 . S
C1483 H1475 0.930 . S
C1483 C1484 1.355 . S
C1483 C1485 1.415 . S
C1484 C1483 1.355 . S
C1484 C1486 1.419 . S
C1485 C1480 1.425 . S
C1485 C1482 1.409 . S
C1485 C1483 1.415 . S
C1486 H1476 0.930 . S
C1486 C1484 1.419 . S
C1486 C1487 1.362 . S
C1487 H1477 0.930 . S
C1487 C1480 1.409 . S
C1487 C1486 1.362 . S
H1488 C1494 0.930 . S
H1489 C1497 0.930 . S
H1490 C1498 0.930 . S
H1491 C1499 0.930 . S
H1492 C1502 0.930 . S
H1493 C1503 0.930 . S
C1494 H1488 0.930 . S
C1494 C1495 1.355 . S
C1494 C1496 1.415 . S
C1495 C1494 1.355 . S
C1495 C1497 1.419 . S
C1496 C1494 1.415 . S
C1496 C1501 1.425 . S
C1496 C1503 1.409 . S
C1497 H1489 0.930 . S
C1497 C1495 1.419 . S
C1497 C1498 1.362 . S
C1498 H1490 0.930 . S
C1498 C1497 1.362 . S
C1498 C1501 1.409 . S
C1499 H1491 0.930 . S
C1499 C1500 1.355 . S
C1499 C1501 1.415 . S
C1500 C1499 1.355 . S
C1500 C1502 1.419 . S
C1501 C1496 1.425 . S
C1501 C1498 1.409 . S
C1501 C1499 1.415 . S
C1502 H1492 0.930 . S
C1502 C1500 1.419 . S
C1502 C1503 1.362 . S
C1503 H1493 0.930 . S
C1503 C1496 1.409 . S
C1503 C1502 1.362 . S
H1504 C1510 0.930 . S
H1505 C1513 0.930 . S
H1506 C1514 0.930 . S
H1507 C1515 0.930 . S
H1508 C1518 0.930 . S
H1509 C1519 0.930 . S
C1510 H1504 0.930 . S
C1510 C1511 1.355 . S
C1510 C1512 1.415 . S
C1511 C1510 1.355 . S
C1511 C1513 1.419 . S
C1512 C1510 1.415 . S
C1512 C1517 1.425 . S
C1512 C1519 1.409 . S
C1513 H1505 0.930 . S
C1513 C1511 1.419 . S
C1513 C1514 1.362 . S
C1514 H1506 0.930 . S
C1514 C1513 1.362 . S
C1514 C1517 1.409 . S
C1515 H1507 0.930 . S
C1515 C1516 1.355 . S
C1515 C1517 1.415 . S
C1516 C1515 1.355 . S
C1516 C1518 1.419 . S
C1517 C1512 1.425 . S
C1517 C1514 1.409 . S
C1517 C1515 1.415 . S
C1518 H1508 0.930 . S
C1518 C1516 1.419 . S
C1518 C1519 1.362 . S
C1519 H1509 0.930 . S
C1519 C1512 1.409 . S
C1519 C1518 1.362 . S
H1520 C1526 0.930 . S
H1521 C1529 0.930 . S
H1522 C1530 0.930 . S
H1523 C1531 0.930 . S
H1524 C1534 0.930 . S
H1525 C1535 0.930 . S
C1526 H1520 0.930 . S
C1526 C1527 1.355 . S
C1526 C1528 1.415 . S
C1527 C1526 1.355 . S
C1527 C1529 1.419 . S
C1528 C1526 1.415 . S
C1528 C1533 1.425 . S
C1528 C1535 1.409 . S
C1529 H1521 0.930 . S
C1529 C1527 1.419 . S
C1529 C1530 1.362 . S
C1530 H1522 0.930 . S
C1530 C1529 1.362 . S
C1530 C1533 1.409 . S
C1531 H1523 0.930 . S
C1531 C1532 1.355 . S
C1531 C1533 1.415 . S
C1532 C1531 1.355 . S
C1532 C1534 1.419 . S
C1533 C1528 1.425 . S
C1533 C1530 1.409 . S
C1533 C1531 1.415 . S
C1534 H1524 0.930 . S
C1534 C1532 1.419 . S
C1534 C1535 1.362 . S
C1535 H1525 0.930 . S
C1535 C1528 1.409 . S
C1535 C1534 1.362 . S
H1536 C1542 0.930 . S
H1537 C1545 0.930 . S
H1538 C1546 0.930 . S
H1539 C1547 0.930 . S
H1540 C1550 0.930 . S
H1541 C1551 0.930 . S
C1542 H1536 0.930 . S
C1542 C1543 1.355 . S
C1542 C1544 1.415 . S
C1543 C1542 1.355 . S
C1543 C1545 1.419 . S
C1544 C1542 1.415 . S
C1544 C1549 1.425 . S
C1544 C1551 1.409 . S
C1545 H1537 0.930 . S
C1545 C1543 1.419 . S
C1545 C1546 1.362 . S
C1546 H1538 0.930 . S
C1546 C1545 1.362 . S
C1546 C1549 1.409 . S
C1547 H1539 0.930 . S
C1547 C1548 1.355 . S
C1547 C1549 1.415 . S
C1548 C1547 1.355 . S
C1548 C1550 1.419 . S
C1549 C1544 1.425 . S
C1549 C1546 1.409 . S
C1549 C1547 1.415 . S
C1550 H1540 0.930 . S
C1550 C1548 1.419 . S
C1550 C1551 1.362 . S
C1551 H1541 0.930 . S
C1551 C1544 1.409 . S
C1551 C1550 1.362 . S
H1552 C1558 0.930 . S
H1553 C1561 0.930 . S
H1554 C1562 0.930 . S
H1555 C1563 0.930 . S
H1556 C1566 0.930 . S
H1557 C1567 0.930 . S
C1558 H1552 0.930 . S
C1558 C1559 1.355 . S
C1558 C1560 1.415 . S
C1559 C1558 1.355 . S
C1559 C1561 1.419 . S
C1560 C1558 1.415 . S
C1560 C1565 1.425 . S
C1560 C1567 1.409 . S
C1561 H1553 0.930 . S
C1561 C1559 1.419 . S
C1561 C1562 1.362 . S
C1562 H1554 0.930 . S
C1562 C1561 1.362 . S
C1562 C1565 1.409 . S
C1563 H1555 0.930 . S
C1563 C1564 1.355 . S
C1563 C1565 1.415 . S
C1564 C1563 1.355 . S
C1564 C1566 1.419 . S
C1565 C1560 1.425 . S
C1565 C1562 1.409 . S
C1565 C1563 1.415 . S
C1566 H1556 0.930 . S
C1566 C1564 1.419 . S
C1566 C1567 1.362 . S
C1567 H1557 0.930 . S
C1567 C1560 1.409 . S
C1567 C1566 1.362 . S
H1568 C1574 0.930 . S
H1569 C1577 0.930 . S
H1570 C1578 0.930 . S
H1571 C1579 0.930 . S
H1572 C1582 0.930 . S
H1573 C1583 0.930 . S
C1574 H1568 0.930 . S
C1574 C1575 1.355 . S
C1574 C1576 1.415 . S
C1575 C1574 1.355 . S
C1575 C1577 1.419 . S
C1576 C1574 1.415 . S
C1576 C1581 1.425 . S
C1576 C1583 1.409 . S
C1577 H1569 0.930 . S
C1577 C1575 1.419 . S
C1577 C1578 1.362 . S
C1578 H1570 0.930 . S
C1578 C1577 1.362 . S
C1578 C1581 1.409 . S
C1579 H1571 0.930 . S
C1579 C1580 1.355 . S
C1579 C1581 1.415 . S
C1580 C1579 1.355 . S
C1580 C1582 1.419 . S
C1581 C1576 1.425 . S
C1581 C1578 1.409 . S
C1581 C1579 1.415 . S
C1582 H1572 0.930 . S
C1582 C1580 1.419 . S
C1582 C1583 1.362 . S
C1583 H1573 0.930 . S
C1583 C1576 1.409 . S
C1583 C1582 1.362 . S
H1584 C1590 0.930 . S
H1585 C1593 0.930 . S
H1586 C1594 0.930 . S
H1587 C1595 0.930 . S
H1588 C1598 0.930 . S
H1589 C1599 0.930 . S
C1590 H1584 0.930 . S
C1590 C1591 1.355 . S
C1590 C1592 1.415 . S
C1591 C1590 1.355 . S
C1591 C1593 1.419 . S
C1592 C1590 1.415 . S
C1592 C1597 1.425 . S
C1592 C1599 1.409 . S
C1593 H1585 0.930 . S
C1593 C1591 1.419 . S
C1593 C1594 1.362 . S
C1594 H1586 0.930 . S
C1594 C1593 1.362 . S
C1594 C1597 1.409 . S
C1595 H1587 0.930 . S
C1595 C1596 1.355 . S
C1595 C1597 1.415 . S
C1596 C1595 1.355 . S
C1596 C1598 1.419 . S
C1597 C1592 1.425 . S
C1597 C1594 1.409 . S
C1597 C1595 1.415 . S
C1598 H1588 0.930 . S
C1598 C1596 1.419 . S
C1598 C1599 1.362 . S
C1599 H1589 0.930 . S
C1599 C1592 1.409 . S
C1599 C1598 1.362 . S
H1600 C1606 0.930 . S
H1601 C1609 0.930 . S
H1602 C1610 0.930 . S
H1603 C1611 0.930 . S
H1604 C1614 0.930 . S
H1605 C1615 0.930 . S
C1606 H1600 0.930 . S
C1606 C1607 1.355 . S
C1606 C1608 1.415 . S
C1607 C1606 1.355 . S
C1607 C1609 1.419 . S
C1608 C1606 1.415 . S
C1608 C1613 1.425 . S
C1608 C1615 1.409 . S
C1609 H1601 0.930 . S
C1609 C1607 1.419 . S
C1609 C1610 1.362 . S
C1610 H1602 0.930 . S
C1610 C1609 1.362 . S
C1610 C1613 1.409 . S
C1611 H1603 0.930 . S
C1611 C1612 1.355 . S
C1611 C1613 1.415 . S
C1612 C1611 1.355 . S
C1612 C1614 1.419 . S
C1613 C1608 1.425 . S
C1613 C1610 1.409 . S
C1613 C1611 1.415 . S
C1614 H1604 0.930 . S
C1614 C1612 1.419 . S
C1614 C1615 1.362 . S
C1615 H1605 0.930 . S
C1615 C1608 1.409 . S
C1615 C1614 1.362 . S
H1616 C1622 0.930 . S
H1617 C1625 0.930 . S
H1618 C1626 0.930 . S
H1619 C1627 0.930 . S
H1620 C1630 0.930 . S
H1621 C1631 0.930 . S
C1622 H1616 0.930 . S
C1622 C1623 1.355 . S
C1622 C1624 1.415 . S
C1623 C1622 1.355 . S
C1623 C1625 1.419 . S
C1624 C1622 1.415 . S
C1624 C1629 1.425 . S
C1624 C1631 1.409 . S
C1625 H1617 0.930 . S
C1625 C1623 1.419 . S
C1625 C1626 1.362 . S
C1626 H1618 0.930 . S
C1626 C1625 1.362 . S
C1626 C1629 1.409 . S
C1627 H1619 0.930 . S
C1627 C1628 1.355 . S
C1627 C1629 1.415 . S
C1628 C1627 1.355 . S
C1628 C1630 1.419 . S
C1629 C1624 1.425 . S
C1629 C1626 1.409 . S
C1629 C1627 1.415 . S
C1630 H1620 0.930 . S
C1630 C1628 1.419 . S
C1630 C1631 1.362 . S
C1631 H1621 0.930 . S
C1631 C1624 1.409 . S
C1631 C1630 1.362 . S
H1632 C1638 0.930 . S
H1633 C1641 0.930 . S
H1634 C1642 0.930 . S
H1635 C1643 0.930 . S
H1636 C1646 0.930 . S
H1637 C1647 0.930 . S
C1638 H1632 0.930 . S
C1638 C1639 1.355 . S
C1638 C1640 1.415 . S
C1639 C1638 1.355 . S
C1639 C1641 1.419 . S
C1640 C1638 1.415 . S
C1640 C1645 1.425 . S
C1640 C1647 1.409 . S
C1641 H1633 0.930 . S
C1641 C1639 1.419 . S
C1641 C1642 1.362 . S
C1642 H1634 0.930 . S
C1642 C1641 1.362 . S
C1642 C1645 1.409 . S
C1643 H1635 0.930 . S
C1643 C1644 1.355 . S
C1643 C1645 1.415 . S
C1644 C1643 1.355 . S
C1644 C1646 1.419 . S
C1645 C1640 1.425 . S
C1645 C1642 1.409 . S
C1645 C1643 1.415 . S
C1646 H1636 0.930 . S
C1646 C1644 1.419 . S
C1646 C1647 1.362 . S
C1647 H1637 0.930 . S
C1647 C1640 1.409 . S
C1647 C1646 1.362 . S
H1648 C1654 0.930 . S
H1649 C1657 0.930 . S
H1650 C1658 0.930 . S
H1651 C1659 0.930 . S
H1652 C1662 0.930 . S
H1653 C1663 0.930 . S
C1654 H1648 0.930 . S
C1654 C1655 1.355 . S
C1654 C1656 1.415 . S
C1655 C1654 1.355 . S
C1655 C1657 1.419 . S
C1656 C1654 1.415 . S
C1656 C1661 1.425 . S
C1656 C1663 1.409 . S
C1657 H1649 0.930 . S
C1657 C1655 1.419 . S
C1657 C1658 1.362 . S
C1658 H1650 0.930 . S
C1658 C1657 1.362 . S
C1658 C1661 1.409 . S
C1659 H1651 0.930 . S
C1659 C1660 1.355 . S
C1659 C1661 1.415 . S
C1660 C1659 1.355 . S
C1660 C1662 1.419 . S
C1661 C1656 1.425 . S
C1661 C1658 1.409 . S
C1661 C1659 1.415 . S
C1662 H1652 0.930 . S
C1662 C1660 1.419 . S
C1662 C1663 1.362 . S
C1663 H1653 0.930 . S
C1663 C1656 1.409 . S
C1663 C1662 1.362 . S
H1664 C1670 0.930 . S
H1665 C1673 0.930 . S
H1666 C1674 0.930 . S
H1667 C1675 0.930 . S
H1668 C1678 0.930 . S
H1669 C1679 0.930 . S
C1670 H1664 0.930 . S
C1670 C1671 1.355 . S
C1670 C1672 1.415 . S
C1671 C1670 1.355 . S
C1671 C1673 1.419 . S
C1672 C1670 1.415 . S
C1672 C1677 1.425 . S
C1672 C1679 1.409 . S
C1673 H1665 0.930 . S
C1673 C1671 1.419 . S
C1673 C1674 1.362 . S
C1674 H1666 0.930 . S
C1674 C1673 1.362 . S
C1674 C1677 1.409 . S
C1675 H1667 0.930 . S
C1675 C1676 1.355 . S
C1675 C1677 1.415 . S
C1676 C1675 1.355 . S
C1676 C1678 1.419 . S
C1677 C1672 1.425 . S
C1677 C1674 1.409 . S
C1677 C1675 1.415 . S
C1678 H1668 0.930 . S
C1678 C1676 1.419 . S
C1678 C1679 1.362 . S
C1679 H1669 0.930 . S
C1679 C1672 1.409 . S
C1679 C1678 1.362 . S
H1680 C1686 0.930 . S
H1681 C1689 0.930 . S
H1682 C1690 0.930 . S
H1683 C1691 0.930 . S
H1684 C1694 0.930 . S
H1685 C1695 0.930 . S
C1686 H1680 0.930 . S
C1686 C1687 1.355 . S
C1686 C1688 1.415 . S
C1687 C1686 1.355 . S
C1687 C1689 1.419 . S
C1688 C1686 1.415 . S
C1688 C1693 1.425 . S
C1688 C1695 1.409 . S
C1689 H1681 0.930 . S
C1689 C1687 1.419 . S
C1689 C1690 1.362 . S
C1690 H1682 0.930 . S
C1690 C1689 1.362 . S
C1690 C1693 1.409 . S
C1691 H1683 0.930 . S
C1691 C1692 1.355 . S
C1691 C1693 1.415 . S
C1692 C1691 1.355 . S
C1692 C1694 1.419 . S
C1693 C1688 1.425 . S
C1693 C1690 1.409 . S
C1693 C1691 1.415 . S
C1694 H1684 0.930 . S
C1694 C1692 1.419 . S
C1694 C1695 1.362 . S
C1695 H1685 0.930 . S
C1695 C1688 1.409 . S
C1695 C1694 1.362 . S
H1696 C1702 0.930 . S
H1697 C1705 0.930 . S
H1698 C1706 0.930 . S
H1699 C1707 0.930 . S
H1700 C1710 0.930 . S
H1701 C1711 0.930 . S
C1702 H1696 0.930 . S
C1702 C1703 1.355 . S
C1702 C1704 1.415 . S
C1703 C1702 1.355 . S
C1703 C1705 1.419 . S
C1704 C1702 1.415 . S
C1704 C1709 1.425 . S
C1704 C1711 1.409 . S
C1705 H1697 0.930 . S
C1705 C1703 1.419 . S
C1705 C1706 1.362 . S
C1706 H1698 0.930 . S
C1706 C1705 1.362 . S
C1706 C1709 1.409 . S
C1707 H1699 0.930 . S
C1707 C1708 1.355 . S
C1707 C1709 1.415 . S
C1708 C1707 1.355 . S
C1708 C1710 1.419 . S
C1709 C1704 1.425 . S
C1709 C1706 1.409 . S
C1709 C1707 1.415 . S
C1710 H1700 0.930 . S
C1710 C1708 1.419 . S
C1710 C1711 1.362 . S
C1711 H1701 0.930 . S
C1711 C1704 1.409 . S
C1711 C1710 1.362 . S
H1712 C1718 0.930 . S
H1713 C1721 0.930 . S
H1714 C1722 0.930 . S
H1715 C1723 0.930 . S
H1716 C1726 0.930 . S
H1717 C1727 0.930 . S
C1718 H1712 0.930 . S
C1718 C1719 1.355 . S
C1718 C1720 1.415 . S
C1719 C1718 1.355 . S
C1719 C1721 1.419 . S
C1720 C1718 1.415 . S
C1720 C1725 1.425 . S
C1720 C1727 1.409 . S
C1721 H1713 0.930 . S
C1721 C1719 1.419 . S
C1721 C1722 1.362 . S
C1722 H1714 0.930 . S
C1722 C1721 1.362 . S
C1722 C1725 1.409 . S
C1723 H1715 0.930 . S
C1723 C1724 1.355 . S
C1723 C1725 1.415 . S
C1724 C1723 1.355 . S
C1724 C1726 1.419 . S
C1725 C1720 1.425 . S
C1725 C1722 1.409 . S
C1725 C1723 1.415 . S
C1726 H1716 0.930 . S
C1726 C1724 1.419 . S
C1726 C1727 1.362 . S
C1727 H1717 0.930 . S
C1727 C1720 1.409 . S
C1727 C1726 1.362 . S
H1728 C1734 0.930 . S
H1729 C1737 0.930 . S
H1730 C1738 0.930 . S
H1731 C1739 0.930 . S
H1732 C1742 0.930 . S
H1733 C1743 0.930 . S
C1734 H1728 0.930 . S
C1734 C1735 1.355 . S
C1734 C1736 1.415 . S
C1735 C1734 1.355 . S
C1735 C1737 1.419 . S
C1736 C1734 1.415 . S
C1736 C1741 1.425 . S
C1736 C1743 1.409 . S
C1737 H1729 0.930 . S
C1737 C1735 1.419 . S
C1737 C1738 1.362 . S
C1738 H1730 0.930 . S
C1738 C1737 1.362 . S
C1738 C1741 1.409 . S
C1739 H1731 0.930 . S
C1739 C1740 1.355 . S
C1739 C1741 1.415 . S
C1740 C1739 1.355 . S
C1740 C1742 1.419 . S
C1741 C1736 1.425 . S
C1741 C1738 1.409 . S
C1741 C1739 1.415 . S
C1742 H1732 0.930 . S
C1742 C1740 1.419 . S
C1742 C1743 1.362 . S
C1743 H1733 0.930 . S
C1743 C1736 1.409 . S
C1743 C1742 1.362 . S
H1744 C1750 0.930 . S
H1745 C1753 0.930 . S
H1746 C1754 0.930 . S
H1747 C1755 0.930 . S
H1748 C1758 0.930 . S
H1749 C1759 0.930 . S
C1750 H1744 0.930 . S
C1750 C1751 1.355 . S
C1750 C1752 1.415 . S
C1751 C1750 1.355 . S
C1751 C1753 1.419 . S
C1752 C1750 1.415 . S
C1752 C1757 1.425 . S
C1752 C1759 1.409 . S
C1753 H1745 0.930 . S
C1753 C1751 1.419 . S
C1753 C1754 1.362 . S
C1754 H1746 0.930 . S
C1754 C1753 1.362 . S
C1754 C1757 1.409 . S
C1755 H1747 0.930 . S
C1755 C1756 1.355 . S
C1755 C1757 1.415 . S
C1756 C1755 1.355 . S
C1756 C1758 1.419 . S
C1757 C1752 1.425 . S
C1757 C1754 1.409 . S
C1757 C1755 1.415 . S
C1758 H1748 0.930 . S
C1758 C1756 1.419 . S
C1758 C1759 1.362 . S
C1759 H1749 0.930 . S
C1759 C1752 1.409 . S
C1759 C1758 1.362 . S
H1760 C1766 0.930 . S
H1761 C1769 0.930 . S
H1762 C1770 0.930 . S
H1763 C1771 0.930 . S
H1764 C1774 0.930 . S
H1765 C1775 0.930 . S
C1766 H1760 0.930 . S
C1766 C1767 1.355 . S
C1766 C1768 1.415 . S
C1767 C1766 1.355 . S
C1767 C1769 1.419 . S
C1768 C1766 1.415 . S
C1768 C1773 1.425 . S
C1768 C1775 1.409 . S
C1769 H1761 0.930 . S
C1769 C1767 1.419 . S
C1769 C1770 1.362 . S
C1770 H1762 0.930 . S
C1770 C1769 1.362 . S
C1770 C1773 1.409 . S
C1771 H1763 0.930 . S
C1771 C1772 1.355 . S
C1771 C1773 1.415 . S
C1772 C1771 1.355 . S
C1772 C1774 1.419 . S
C1773 C1768 1.425 . S
C1773 C1770 1.409 . S
C1773 C1771 1.415 . S
C1774 H1764 0.930 . S
C1774 C1772 1.419 . S
C1774 C1775 1.362 . S
C1775 H1765 0.930 . S
C1775 C1768 1.409 . S
C1775 C1774 1.362 . S
H1776 C1782 0.930 . S
H1777 C1785 0.930 . S
H1778 C1786 0.930 . S
H1779 C1787 0.930 . S
H1780 C1790 0.930 . S
H1781 C1791 0.930 . S
C1782 H1776 0.930 . S
C1782 C1783 1.355 . S
C1782 C1784 1.415 . S
C1783 C1782 1.355 . S
C1783 C1785 1.419 . S
C1784 C1782 1.415 . S
C1784 C1789 1.425 . S
C1784 C1791 1.409 . S
C1785 H1777 0.930 . S
C1785 C1783 1.419 . S
C1785 C1786 1.362 . S
C1786 H1778 0.930 . S
C1786 C1785 1.362 . S
C1786 C1789 1.409 . S
C1787 H1779 0.930 . S
C1787 C1788 1.355 . S
C1787 C1789 1.415 . S
C1788 C1787 1.355 . S
C1788 C1790 1.419 . S
C1789 C1784 1.425 . S
C1789 C1786 1.409 . S
C1789 C1787 1.415 . S
C1790 H1780 0.930 . S
C1790 C1788 1.419 . S
C1790 C1791 1.362 . S
C1791 H1781 0.930 . S
C1791 C1784 1.409 . S
C1791 C1790 1.362 . S
H1792 C1798 0.930 . S
H1793 C1801 0.930 . S
H1794 C1802 0.930 . S
H1795 C1803 0.930 . S
H1796 C1806 0.930 . S
H1797 C1807 0.930 . S
C1798 H1792 0.930 . S
C1798 C1799 1.355 . S
C1798 C1800 1.415 . S
C1799 C1798 1.355 . S
C1799 C1801 1.419 . S
C1800 C1798 1.415 . S
C1800 C1805 1.425 . S
C1800 C1807 1.409 . S
C1801 H1793 0.930 . S
C1801 C1799 1.419 . S
C1801 C1802 1.362 . S
C1802 H1794 0.930 . S
C1802 C1801 1.362 . S
C1802 C1805 1.409 . S
C1803 H1795 0.930 . S
C1803 C1804 1.355 . S
C1803 C1805 1.415 . S
C1804 C1803 1.355 . S
C1804 C1806 1.419 . S
C1805 C1800 1.425 . S
C1805 C1802 1.409 . S
C1805 C1803 1.415 . S
C1806 H1796 0.930 . S
C1806 C1804 1.419 . S
C1806 C1807 1.362 . S
C1807 H1797 0.930 . S
C1807 C1800 1.409 . S
C1807 C1806 1.362 . S
H1808 C1814 0.930 . S
H1809 C1817 0.930 . S
H1810 C1818 0.930 . S
H1811 C1819 0.930 . S
H1812 C1822 0.930 . S
H1813 C1823 0.930 . S
C1814 H1808 0.930 . S
C1814 C1815 1.355 . S
C1814 C1816 1.415 . S
C1815 C1814 1.355 . S
C1815 C1817 1.419 . S
C1816 C1814 1.415 . S
C1816 C1821 1.425 . S
C1816 C1823 1.409 . S
C1817 H1809 0.930 . S
C1817 C1815 1.419 . S
C1817 C1818 1.362 . S
C1818 H1810 0.930 . S
C1818 C1817 1.362 . S
C1818 C1821 1.409 . S
C1819 H1811 0.930 . S
C1819 C1820 1.355 . S
C1819 C1821 1.415 . S
C1820 C1819 1.355 . S
C1820 C1822 1.419 . S
C1821 C1816 1.425 . S
C1821 C1818 1.409 . S
C1821 C1819 1.415 . S
C1822 H1812 0.930 . S
C1822 C1820 1.419 . S
C1822 C1823 1.362 . S
C1823 H1813 0.930 . S
C1823 C1816 1.409 . S
C1823 C1822 1.362 . S
H1824 C1830 0.930 . S
H1825 C1833 0.930 . S
H1826 C1834 0.930 . S
H1827 C1835 0.930 . S
H1828 C1838 0.930 . S
H1829 C1839 0.930 . S
C1830 H1824 0.930 . S
C1830 C1831 1.355 . S
C1830 C1832 1.415 . S
C1831 C1830 1.355 . S
C1831 C1833 1.419 . S
C1832 C1830 1.415 . S
C1832 C1837 1.425 . S
C1832 C1839 1.409 . S
C1833 H1825 0.930 . S
C1833 C1831 1.419 . S
C1833 C1834 1.362 . S
C1834 H1826 0.930 . S
C1834 C1833 1.362 . S
C1834 C1837 1.409 . S
C1835 H1827 0.930 . S
C1835 C1836 1.355 . S
C1835 C1837 1.415 . S
C1836 C1835 1.355 . S
C1836 C1838 1.419 . S
C1837 C1832 1.425 . S
C1837 C1834 1.409 . S
C1837 C1835 1.415 . S
C1838 H1828 0.930 . S
C1838 C1836 1.419 . S
C1838 C1839 1.362 . S
C1839 H1829 0.930 . S
C1839 C1832 1.409 . S
C1839 C1838 1.362 . S
H1840 C1846 0.930 . S
H1841 C1849 0.930 . S
H1842 C1850 0.930 . S
H1843 C1851 0.930 . S
H1844 C1854 0.930 . S
H1845 C1855 0.930 . S
C1846 H1840 0.930 . S
C1846 C1847 1.355 . S
C1846 C1848 1.415 . S
C1847 C1846 1.355 . S
C1847 C1849 1.419 . S
C1848 C1846 1.415 . S
C1848 C1853 1.425 . S
C1848 C1855 1.409 . S
C1849 H1841 0.930 . S
C1849 C1847 1.419 . S
C1849 C1850 1.362 . S
C1850 H1842 0.930 . S
C1850 C1849 1.362 . S
C1850 C1853 1.409 . S
C1851 H1843 0.930 . S
C1851 C1852 1.355 . S
C1851 C1853 1.415 . S
C1852 C1851 1.355 . S
C1852 C1854 1.419 . S
C1853 C1848 1.425 . S
C1853 C1850 1.409 . S
C1853 C1851 1.415 . S
C1854 H1844 0.930 . S
C1854 C1852 1.419 . S
C1854 C1855 1.362 . S
C1855 H1845 0.930 . S
C1855 C1848 1.409 . S
C1855 C1854 1.362 . S
H1856 C1862 0.930 . S
H1857 C1865 0.930 . S
H1858 C1866 0.930 . S
H1859 C1867 0.930 . S
H1860 C1870 0.930 . S
H1861 C1871 0.930 . S
C1862 H1856 0.930 . S
C1862 C1863 1.355 . S
C1862 C1864 1.415 . S
C1863 C1862 1.355 . S
C1863 C1865 1.419 . S
C1864 C1862 1.415 . S
C1864 C1869 1.425 . S
C1864 C1871 1.409 . S
C1865 H1857 0.930 . S
C1865 C1863 1.419 . S
C1865 C1866 1.362 . S
C1866 H1858 0.930 . S
C1866 C1865 1.362 . S
C1866 C1869 1.409 . S
C1867 H1859 0.930 . S
C1867 C1868 1.355 . S
C1867 C1869 1.415 . S
C1868 C1867 1.355 . S
C1868 C1870 1.419 . S
C1869 C1864 1.425 . S
C1869 C1866 1.409 . S
C1869 C1867 1.415 . S
C1870 H1860 0.930 . S
C1870 C1868 1.419 . S
C1870 C1871 1.362 . S
C1871 H1861 0.930 . S
C1871 C1864 1.409 . S
C1871 C1870 1.362 . S
H1872 C1878 0.930 . S
H1873 C1881 0.930 . S
H1874 C1882 0.930 . S
H1875 C1883 0.930 . S
H1876 C1886 0.930 . S
H1877 C1887 0.930 . S
C1878 H1872 0.930 . S
C1878 C1879 1.355 . S
C1878 C1880 1.415 . S
C1879 C1878 1.355 . S
C1879 C1881 1.419 . S
C1880 C1878 1.415 . S
C1880 C1885 1.425 . S
C1880 C1887 1.409 . S
C1881 H1873 0.930 . S
C1881 C1879 1.419 . S
C1881 C1882 1.362 . S
C1882 H1874 0.930 . S
C1882 C1881 1.362 . S
C1882 C1885 1.409 . S
C1883 H1875 0.930 . S
C1883 C1884 1.355 . S
C1883 C1885 1.415 . S
C1884 C1883 1.355 . S
C1884 C1886 1.419 . S
C1885 C1880 1.425 . S
C1885 C1882 1.409 . S
C1885 C1883 1.415 . S
C1886 H1876 0.930 . S
C1886 C1884 1.419 . S
C1886 C1887 1.362 . S
C1887 H1877 0.930 . S
C1887 C1880 1.409 . S
C1887 C1886 1.362 . S
H1888 C1894 0.930 . S
H1889 C1897 0.930 . S
H1890 C1898 0.930 . S
H1891 C1899 0.930 . S
H1892 C1902 0.930 . S
H1893 C1903 0.930 . S
C1894 H1888 0.930 . S
C1894 C1895 1.355 . S
C1894 C1896 1.415 . S
C1895 C1894 1.355 . S
C1895 C1897 1.419 . S
C1896 C1894 1.415 . S
C1896 C1901 1.425 . S
C1896 C1903 1.409 . S
C1897 H1889 0.930 . S
C1897 C1895 1.419 . S
C1897 C1898 1.362 . S
C1898 H1890 0.930 . S
C1898 C1897 1.362 . S
C1898 C1901 1.409 . S
C1899 H1891 0.930 . S
C1899 C1900 1.355 . S
C1899 C1901 1.415 . S
C1900 C1899 1.355 . S
C1900 C1902 1.419 . S
C1901 C1896 1.425 . S
C1901 C1898 1.409 . S
C1901 C1899 1.415 . S
C1902 H1892 0.930 . S
C1902 C1900 1.419 . S
C1902 C1903 1.362 . S
C1903 H1893 0.930 . S
C1903 C1896 1.409 . S
C1903 C1902 1.362 . S
H1904 C1910 0.930 . S
H1905 C1913 0.930 . S
H1906 C1914 0.930 . S
H1907 C1915 0.930 . S
H1908 C1918 0.930 . S
H1909 C1919 0.930 . S
C1910 H1904 0.930 . S
C1910 C1911 1.355 . S
C1910 C1912 1.415 . S
C1911 C1910 1.355 . S
C1911 C1913 1.419 . S
C1912 C1910 1.415 . S
C1912 C1917 1.425 . S
C1912 C1919 1.409 . S
C1913 H1905 0.930 . S
C1913 C1911 1.419 . S
C1913 C1914 1.362 . S
C1914 H1906 0.930 . S
C1914 C1913 1.362 . S
C1914 C1917 1.409 . S
C1915 H1907 0.930 . S
C1915 C1916 1.355 . S
C1915 C1917 1.415 . S
C1916 C1915 1.355 . S
C1916 C1918 1.419 . S
C1917 C1912 1.425 . S
C1917 C1914 1.409 . S
C1917 C1915 1.415 . S
C1918 H1908 0.930 . S
C1918 C1916 1.419 . S
C1918 C1919 1.362 . S
C1919 H1909 0.930 . S
C1919 C1912 1.409 . S
C1919 C1918 1.362 . S
H1920 C1926 0.930 . S
H1921 C1929 0.930 . S
H1922 C1930 0.930 . S
H1923 C1931 0.930 . S
H1924 C1934 0.930 . S
H1925 C1935 0.930 . S
C1926 H1920 0.930 . S
C1926 C1927 1.355 . S
C1926 C1928 1.415 . S
C1927 C1926 1.355 . S
C1927 C1929 1.419 . S
C1928 C1926 1.415 . S
C1928 C1933 1.425 . S
C1928 C1935 1.409 . S
C1929 H1921 0.930 . S
C1929 C1927 1.419 . S
C1929 C1930 1.362 . S
C1930 H1922 0.930 . S
C1930 C1929 1.362 . S
C1930 C1933 1.409 . S
C1931 H1923 0.930 . S
C1931 C1932 1.355 . S
C1931 C1933 1.415 . S
C1932 C1931 1.355 . S
C1932 C1934 1.419 . S
C1933 C1928 1.425 . S
C1933 C1930 1.409 . S
C1933 C1931 1.415 . S
C1934 H1924 0.930 . S
C1934 C1932 1.419 . S
C1934 C1935 1.362 . S
C1935 H1925 0.930 . S
C1935 C1928 1.409 . S
C1935 C1934 1.362 . S
H1936 C1942 0.930 . S
H1937 C1945 0.930 . S
H1938 C1946 0.930 . S
H1939 C1947 0.930 . S
H1940 C1950 0.930 . S
H1941 C1951 0.930 . S
C1942 H1936 0.930 . S
C1942 C1943 1.355 . S
C1942 C1944 1.415 . S
C1943 C1942 1.355 . S
C1943 C1945 1.419 . S
C1944 C1942 1.415 . S
C1944 C1949 1.425 . S
C1944 C1951 1.409 . S
C1945 H1937 0.930 . S
C1945 C1943 1.419 . S
C1945 C1946 1.362 . S
C1946 H1938 0.930 . S
C1946 C1945 1.362 . S
C1946 C1949 1.409 . S
C1947 H1939 0.930 . S
C1947 C1948 1.355 . S
C1947 C1949 1.415 . S
C1948 C1947 1.355 . S
C1948 C1950 1.419 . S
C1949 C1944 1.425 . S
C1949 C1946 1.409 . S
C1949 C1947 1.415 . S
C1950 H1940 0.930 . S
C1950 C1948 1.419 . S
C1950 C1951 1.362 . S
C1951 H1941 0.930 . S
C1951 C1944 1.409 . S
C1951 C1950 1.362 . S
H1952 C1958 0.930 . S
H1953 C1961 0.930 . S
H1954 C1962 0.930 . S
H1955 C1963 0.930 . S
H1956 C1966 0.930 . S
H1957 C1967 0.930 . S
C1958 H1952 0.930 . S
C1958 C1959 1.355 . S
C1958 C1960 1.415 . S
C1959 C1958 1.355 . S
C1959 C1961 1.419 . S
C1960 C1958 1.415 . S
C1960 C1965 1.425 . S
C1960 C1967 1.409 . S
C1961 H1953 0.930 . S
C1961 C1959 1.419 . S
C1961 C1962 1.362 . S
C1962 H1954 0.930 . S
C1962 C1961 1.362 . S
C1962 C1965 1.409 . S
C1963 H1955 0.930 . S
C1963 C1964 1.355 . S
C1963 C1965 1.415 . S
C1964 C1963 1.355 . S
C1964 C1966 1.419 . S
C1965 C1960 1.425 . S
C1965 C1962 1.409 . S
C1965 C1963 1.415 . S
C1966 H1956 0.930 . S
C1966 C1964 1.419 . S
C1966 C1967 1.362 . S
C1967 H1957 0.930 . S
C1967 C1960 1.409 . S
C1967 C1966 1.362 . S
H1968 C1974 0.930 . S
H1969 C1977 0.930 . S
H1970 C1978 0.930 . S
H1971 C1979 0.930 . S
H1972 C1982 0.930 . S
H1973 C1983 0.930 . S
C1974 H1968 0.930 . S
C1974 C1975 1.355 . S
C1974 C1976 1.415 . S
C1975 C1974 1.355 . S
C1975 C1977 1.419 . S
C1976 C1974 1.415 . S
C1976 C1981 1.425 . S
C1976 C1983 1.409 . S
C1977 H1969 0.930 . S
C1977 C1975 1.419 . S
C1977 C1978 1.362 . S
C1978 H1970 0.930 . S
C1978 C1977 1.362 . S
C1978 C1981 1.409 . S
C1979 H1971 0.930 . S
C1979 C1980 1.355 . S
C1979 C1981 1.415 . S
C1980 C1979 1.355 . S
C1980 C1982 1.419 . S
C1981 C1976 1.425 . S
C1981 C1978 1.409 . S
C1981 C1979 1.415 . S
C1982 H1972 0.930 . S
C1982 C1980 1.419 . S
C1982 C1983 1.362 . S
C1983 H1973 0.930 . S
C1983 C1976 1.409 . S
C1983 C1982 1.362 . S
H1984 C1990 0.930 . S
H1985 C1993 0.930 . S
H1986 C1994 0.930 . S
H1987 C1995 0.930 . S
H1988 C1998 0.930 . S
H1989 C1999 0.930 . S
C1990 H1984 0.930 . S
C1990 C1991 1.355 . S
C1990 C1992 1.415 . S
C1991 C1990 1.355 . S
C1991 C1993 1.419 . S
C1992 C1990 1.415 . S
C1992 C1997 1.425 . S
C1992 C1999 1.409 . S
C1993 H1985 0.930 . S
C1993 C1991 1.419 . S
C1993 C1994 1.362 . S
C1994 H1986 0.930 . S
C1994 C1993 1.362 . S
C1994 C1997 1.409 . S
C1995 H1987 0.930 . S
C1995 C1996 1.355 . S
C1995 C1997 1.415 . S
C1996 C1995 1.355 . S
C1996 C1998 1.419 . S
C1997 C1992 1.425 . S
C1997 C1994 1.409 . S
C1997 C1995 1.415 . S
C1998 H1988 0.930 . S
C1998 C1996 1.419 . S
C1998 C1999 1.362 . S
C1999 H1989 0.930 . S
C1999 C1992 1.409 . S
C1999 C1998 1.362 . S
H2000 C2006 0.930 . S
H2001 C2009 0.930 . S
H2002 C2010 0.930 . S
H2003 C2011 0.930 . S
H2004 C2014 0.930 . S
H2005 C2015 0.930 . S
C2006 H2000 0.930 . S
C2006 C2007 1.355 . S
C2006 C2008 1.415 . S
C2007 C2006 1.355 . S
C2007 C2009 1.419 . S
C2008 C2006 1.415 . S
C2008 C2013 1.425 . S
C2008 C2015 1.409 . S
C2009 H2001 0.930 . S
C2009 C2007 1.419 . S
C2009 C2010 1.362 . S
C2010 H2002 0.930 . S
C2010 C2009 1.362 . S
C2010 C2013 1.409 . S
C2011 H2003 0.930 . S
C2011 C2012 1.355 . S
C2011 C2013 1.415 . S
C2012 C2011 1.355 . S
C2012 C2014 1.419 . S
C2013 C2008 1.425 . S
C2013 C2010 1.409 . S
C2013 C2011 1.415 . S
C2014 H2004 0.930 . S
C2014 C2012 1.419 . S
C2014 C2015 1.362 . S
C2015 H2005 0.930 . S
C2015 C2008 1.409 . S
C2015 C2014 1.362 . S
H2016 C2022 0.930 . S
H2017 C2025 0.930 . S
H2018 C2026 0.930 . S
H2019 C2027 0.930 . S
H2020 C2030 0.930 . S
H2021 C2031 0.930 . S
C2022 H2016 0.930 . S
C2022 C2023 1.355 . S
C2022 C2024 1.415 . S
C2023 C2022 1.355 . S
C2023 C2025 1.419 . S
C2024 C2022 1.415 . S
C2024 C2029 1.425 . S
C2024 C2031 1.409 . S
C2025 H2017 0.930 . S
C2025 C2023 1.419 . S
C2025 C2026 1.362 . S
C2026 H2018 0.930 . S
C2026 C2025 1.362 . S
C2026 C2029 1.409 . S
C2027 H2019 0.930 . S
C2027 C2028 1.355 . S
C2027 C2029 1.415 . S
C2028 C2027 1.355 . S
C2028 C2030 1.419 . S
C2029 C2024 1.425 . S
C2029 C2026 1.409 . S
C2029 C2027 1.415 . S
C2030 H2020 0.930 . S
C2030 C2028 1.419 . S
C2030 C2031 1.362 . S
C2031 H2021 0.930 . S
C2031 C2024 1.409 . S
C2031 C2030 1.362 . S
H2032 C2038 0.930 . S
H2033 C2041 0.930 . S
H2034 C2042 0.930 . S
H2035 C2043 0.930 . S
H2036 C2046 0.930 . S
H2037 C2047 0.930 . S
C2038 H2032 0.930 . S
C2038 C2039 1.355 . S
C2038 C2040 1.415 . S
C2039 C2038 1.355 . S
C2039 C2041 1.419 . S
C2040 C2038 1.415 . S
C2040 C2045 1.425 . S
C2040 C2047 1.409 . S
C2041 H2033 0.930 . S
C2041 C2039 1.419 . S
C2041 C2042 1.362 . S
C2042 H2034 0.930 . S
C2042 C2041 1.362 . S
C2042 C2045 1.409 . S
C2043 H2035 0.930 . S
C2043 C2044 1.355 . S
C2043 C2045 1.415 . S
C2044 C2043 1.355 . S
C2044 C2046 1.419 . S
C2045 C2040 1.425 . S
C2045 C2042 1.409 . S
C2045 C2043 1.415 . S
C2046 H2036 0.930 . S
C2046 C2044 1.419 . S
C2046 C2047 1.362 . S
C2047 H2037 0.930 . S
C2047 C2040 1.409 . S
C2047 C2046 1.362 . S
H2048 C2054 0.930 . S
H2049 C2057 0.930 . S
H2050 C2058 0.930 . S
H2051 C2059 0.930 . S
H2052 C2062 0.930 . S
H2053 C2063 0.930 . S
C2054 H2048 0.930 . S
C2054 C2055 1.355 . S
C2054 C2056 1.415 . S
C2055 C2054 1.355 . S
C2055 C2057 1.419 . S
C2056 C2054 1.415 . S
C2056 C2061 1.425 . S
C2056 C2063 1.409 . S
C2057 H2049 0.930 . S
C2057 C2055 1.419 . S
C2057 C2058 1.362 . S
C2058 H2050 0.930 . S
C2058 C2057 1.362 . S
C2058 C2061 1.409 . S
C2059 H2051 0.930 . S
C2059 C2060 1.355 . S
C2059 C2061 1.415 . S
C2060 C2059 1.355 . S
C2060 C2062 1.419 . S
C2061 C2056 1.425 . S
C2061 C2058 1.409 . S
C2061 C2059 1.415 . S
C2062 H2052 0.930 . S
C2062 C2060 1.419 . S
C2062 C2063 1.362 . S
C2063 H2053 0.930 . S
C2063 C2056 1.409 . S
C2063 C2062 1.362 . S
H2064 C2070 0.930 . S
H2065 C2073 0.930 . S
H2066 C2074 0.930 . S
H2067 C2075 0.930 . S
H2068 C2078 0.930 . S
H2069 C2079 0.930 . S
C2070 H2064 0.930 . S
C2070 C2071 1.355 . S
C2070 C2072 1.415 . S
C2071 C2070 1.355 . S
C2071 C2073 1.419 . S
C2072 C2070 1.415 . S
C2072 C2077 1.425 . S
C2072 C2079 1.409 . S
C2073 H2065 0.930 . S
C2073 C2071 1.419 . S
C2073 C2074 1.362 . S
C2074 H2066 0.930 . S
C2074 C2073 1.362 . S
C2074 C2077 1.409 . S
C2075 H2067 0.930 . S
C2075 C2076 1.355 . S
C2075 C2077 1.415 . S
C2076 C2075 1.355 . S
C2076 C2078 1.419 . S
C2077 C2072 1.425 . S
C2077 C2074 1.409 . S
C2077 C2075 1.415 . S
C2078 H2068 0.930 . S
C2078 C2076 1.419 . S
C2078 C2079 1.362 . S
C2079 H2069 0.930 . S
C2079 C2072 1.409 . S
C2079 C2078 1.362 . S
H2080 C2086 0.930 . S
H2081 C2089 0.930 . S
H2082 C2090 0.930 . S
H2083 C2091 0.930 . S
H2084 C2094 0.930 . S
H2085 C2095 0.930 . S
C2086 H2080 0.930 . S
C2086 C2087 1.355 . S
C2086 C2088 1.415 . S
C2087 C2086 1.355 . S
C2087 C2089 1.419 . S
C2088 C2086 1.415 . S
C2088 C2093 1.425 . S
C2088 C2095 1.409 . S
C2089 H2081 0.930 . S
C2089 C2087 1.419 . S
C2089 C2090 1.362 . S
C2090 H2082 0.930 . S
C2090 C2089 1.362 . S
C2090 C2093 1.409 . S
C2091 H2083 0.930 . S
C2091 C2092 1.355 . S
C2091 C2093 1.415 . S
C2092 C2091 1.355 . S
C2092 C2094 1.419 . S
C2093 C2088 1.425 . S
C2093 C2090 1.409 . S
C2093 C2091 1.415 . S
C2094 H2084 0.930 . S
C2094 C2092 1.419 . S
C2094 C2095 1.362 . S
C2095 H2085 0.930 . S
C2095 C2088 1.409 . S
C2095 C2094 1.362 . S
H2096 C2102 0.930 . S
H2097 C2105 0.930 . S
H2098 C2106 0.930 . S
H2099 C2107 0.930 . S
H2100 C2110 0.930 . S
H2101 C2111 0.930 . S
C2102 H2096 0.930 . S
C2102 C2103 1.355 . S
C2102 C2104 1.415 . S
C2103 C2102 1.355 . S
C2103 C2105 1.419 . S
C2104 C2102 1.415 . S
C2104 C2109 1.425 . S
C2104 C2111 1.409 . S
C2105 H2097 0.930 . S
C2105 C2103 1.419 . S
C2105 C2106 1.362 . S
C2106 H2098 0.930 . S
C2106 C2105 1.362 . S
C2106 C2109 1.409 . S
C2107 H2099 0.930 . S
C2107 C2108 1.355 . S
C2107 C2109 1.415 . S
C2108 C2107 1.355 . S
C2108 C2110 1.419 . S
C2109 C2104 1.425 . S
C2109 C2106 1.409 . S
C2109 C2107 1.415 . S
C2110 H2100 0.930 . S
C2110 C2108 1.419 . S
C2110 C2111 1.362 . S
C2111 H2101 0.930 . S
C2111 C2104 1.409 . S
C2111 C2110 1.362 . S
H2112 C2118 0.930 . S
H2113 C2121 0.930 . S
H2114 C2122 0.930 . S
H2115 C2123 0.930 . S
H2116 C2126 0.930 . S
H2117 C2127 0.930 . S
C2118 H2112 0.930 . S
C2118 C2119 1.355 . S
C2118 C2120 1.415 . S
C2119 C2118 1.355 . S
C2119 C2121 1.419 . S
C2120 C2118 1.415 . S
C2120 C2125 1.425 . S
C2120 C2127 1.409 . S
C2121 H2113 0.930 . S
C2121 C2119 1.419 . S
C2121 C2122 1.362 . S
C2122 H2114 0.930 . S
C2122 C2121 1.362 . S
C2122 C2125 1.409 . S
C2123 H2115 0.930 . S
C2123 C2124 1.355 . S
C2123 C2125 1.415 . S
C2124 C2123 1.355 . S
C2124 C2126 1.419 . S
C2125 C2120 1.425 . S
C2125 C2122 1.409 . S
C2125 C2123 1.415 . S
C2126 H2116 0.930 . S
C2126 C2124 1.419 . S
C2126 C2127 1.362 . S
C2127 H2117 0.930 . S
C2127 C2120 1.409 . S
C2127 C2126 1.362 . S
H2128 C2134 0.930 . S
H2129 C2137 0.930 . S
H2130 C2138 0.930 . S
H2131 C2139 0.930 . S
H2132 C2142 0.930 . S
H2133 C2143 0.930 . S
C2134 H2128 0.930 . S
C2134 C2135 1.355 . S
C2134 C2136 1.415 . S
C2135 C2134 1.355 . S
C2135 C2137 1.419 . S
C2136 C2134 1.415 . S
C2136 C2141 1.425 . S
C2136 C2143 1.409 . S
C2137 H2129 0.930 . S
C2137 C2135 1.419 . S
C2137 C2138 1.362 . S
C2138 H2130 0.930 . S
C2138 C2137 1.362 . S
C2138 C2141 1.409 . S
C2139 H2131 0.930 . S
C2139 C2140 1.355 . S
C2139 C2141 1.415 . S
C2140 C2139 1.355 . S
C2140 C2142 1.419 . S
C2141 C2136 1.425 . S
C2141 C2138 1.409 . S
C2141 C2139 1.415 . S
C2142 H2132 0.930 . S
C2142 C2140 1.419 . S
C2142 C2143 1.362 . S
C2143 H2133 0.930 . S
C2143 C2136 1.409 . S
C2143 C2142 1.362 . S
H2144 C2150 0.930 . S
H2145 C2153 0.930 . S
H2146 C2154 0.930 . S
H2147 C2155 0.930 . S
H2148 C2158 0.930 . S
H2149 C2159 0.930 . S
C2150 H2144 0.930 . S
C2150 C2151 1.355 . S
C2150 C2152 1.415 . S
C2151 C2150 1.355 . S
C2151 C2153 1.419 . S
C2152 C2150 1.415 . S
C2152 C2157 1.425 . S
C2152 C2159 1.409 . S
C2153 H2145 0.930 . S
C2153 C2151 1.419 . S
C2153 C2154 1.362 . S
C2154 H2146 0.930 . S
C2154 C2153 1.362 . S
C2154 C2157 1.409 . S
C2155 H2147 0.930 . S
C2155 C2156 1.355 . S
C2155 C2157 1.415 . S
C2156 C2155 1.355 . S
C2156 C2158 1.419 . S
C2157 C2152 1.425 . S
C2157 C2154 1.409 . S
C2157 C2155 1.415 . S
C2158 H2148 0.930 . S
C2158 C2156 1.419 . S
C2158 C2159 1.362 . S
C2159 H2149 0.930 . S
C2159 C2152 1.409 . S
C2159 C2158 1.362 . S
H2160 C2166 0.930 . S
H2161 C2169 0.930 . S
H2162 C2170 0.930 . S
H2163 C2171 0.930 . S
H2164 C2174 0.930 . S
H2165 C2175 0.930 . S
C2166 H2160 0.930 . S
C2166 C2167 1.355 . S
C2166 C2168 1.415 . S
C2167 C2166 1.355 . S
C2167 C2169 1.419 . S
C2168 C2166 1.415 . S
C2168 C2173 1.425 . S
C2168 C2175 1.409 . S
C2169 H2161 0.930 . S
C2169 C2167 1.419 . S
C2169 C2170 1.362 . S
C2170 H2162 0.930 . S
C2170 C2169 1.362 . S
C2170 C2173 1.409 . S
C2171 H2163 0.930 . S
C2171 C2172 1.355 . S
C2171 C2173 1.415 . S
C2172 C2171 1.355 . S
C2172 C2174 1.419 . S
C2173 C2168 1.425 . S
C2173 C2170 1.409 . S
C2173 C2171 1.415 . S
C2174 H2164 0.930 . S
C2174 C2172 1.419 . S
C2174 C2175 1.362 . S
C2175 H2165 0.930 . S
C2175 C2168 1.409 . S
C2175 C2174 1.362 . S
H2176 C2182 0.930 . S
H2177 C2185 0.930 . S
H2178 C2186 0.930 . S
H2179 C2187 0.930 . S
H2180 C2190 0.930 . S
H2181 C2191 0.930 . S
C2182 H2176 0.930 . S
C2182 C2183 1.355 . S
C2182 C2184 1.415 . S
C2183 C2182 1.355 . S
C2183 C2185 1.419 . S
C2184 C2182 1.415 . S
C2184 C2189 1.425 . S
C2184 C2191 1.409 . S
C2185 H2177 0.930 . S
C2185 C2183 1.419 . S
C2185 C2186 1.362 . S
C2186 H2178 0.930 . S
C2186 C2185 1.362 . S
C2186 C2189 1.409 . S
C2187 H2179 0.930 . S
C2187 C2188 1.355 . S
C2187 C2189 1.415 . S
C2188 C2187 1.355 . S
C2188 C2190 1.419 . S
C2189 C2184 1.425 . S
C2189 C2186 1.409 . S
C2189 C2187 1.415 . S
C2190 H2180 0.930 . S
C2190 C2188 1.419 . S
C2190 C2191 1.362 . S
C2191 H2181 0.930 . S
C2191 C2184 1.409 . S
C2191 C2190 1.362 . S
H2192 C2198 0.930 . S
H2193 C2201 0.930 . S
H2194 C2202 0.930 . S
H2195 C2203 0.930 . S
H2196 C2206 0.930 . S
H2197 C2207 0.930 . S
C2198 H2192 0.930 . S
C2198 C2199 1.355 . S
C2198 C2200 1.415 . S
C2199 C2198 1.355 . S
C2199 C2201 1.419 . S
C2200 C2198 1.415 . S
C2200 C2205 1.425 . S
C2200 C2207 1.409 . S
C2201 H2193 0.930 . S
C2201 C2199 1.419 . S
C2201 C2202 1.362 . S
C2202 H2194 0.930 . S
C2202 C2201 1.362 . S
C2202 C2205 1.409 . S
C2203 H2195 0.930 . S
C2203 C2204 1.355 . S
C2203 C2205 1.415 . S
C2204 C2203 1.355 . S
C2204 C2206 1.419 . S
C2205 C2200 1.425 . S
C2205 C2202 1.409 . S
C2205 C2203 1.415 . S
C2206 H2196 0.930 . S
C2206 C2204 1.419 . S
C2206 C2207 1.362 . S
C2207 H2197 0.930 . S
C2207 C2200 1.409 . S
C2207 C2206 1.362 . S
H2208 C2214 0.930 . S
H2209 C2217 0.930 . S
H2210 C2218 0.930 . S
H2211 C2219 0.930 . S
H2212 C2222 0.930 . S
H2213 C2223 0.930 . S
C2214 H2208 0.930 . S
C2214 C2215 1.355 . S
C2214 C2216 1.415 . S
C2215 C2214 1.355 . S
C2215 C2217 1.419 . S
C2216 C2214 1.415 . S
C2216 C2221 1.425 . S
C2216 C2223 1.409 . S
C2217 H2209 0.930 . S
C2217 C2215 1.419 . S
C2217 C2218 1.362 . S
C2218 H2210 0.930 . S
C2218 C2217 1.362 . S
C2218 C2221 1.409 . S
C2219 H2211 0.930 . S
C2219 C2220 1.355 . S
C2219 C2221 1.415 . S
C2220 C2219 1.355 . S
C2220 C2222 1.419 . S
C2221 C2216 1.425 . S
C2221 C2218 1.409 . S
C2221 C2219 1.415 . S
C2222 H2212 0.930 . S
C2222 C2220 1.419 . S
C2222 C2223 1.362 . S
C2223 H2213 0.930 . S
C2223 C2216 1.409 . S
C2223 C2222 1.362 . S
H2224 C2230 0.930 . S
H2225 C2233 0.930 . S
H2226 C2234 0.930 . S
H2227 C2235 0.930 . S
H2228 C2238 0.930 . S
H2229 C2239 0.930 . S
C2230 H2224 0.930 . S
C2230 C2231 1.355 . S
C2230 C2232 1.415 . S
C2231 C2230 1.355 . S
C2231 C2233 1.419 . S
C2232 C2230 1.415 . S
C2232 C2237 1.425 . S
C2232 C2239 1.409 . S
C2233 H2225 0.930 . S
C2233 C2231 1.419 . S
C2233 C2234 1.362 . S
C2234 H2226 0.930 . S
C2234 C2233 1.362 . S
C2234 C2237 1.409 . S
C2235 H2227 0.930 . S
C2235 C2236 1.355 . S
C2235 C2237 1.415 . S
C2236 C2235 1.355 . S
C2236 C2238 1.419 . S
C2237 C2232 1.425 . S
C2237 C2234 1.409 . S
C2237 C2235 1.415 . S
C2238 H2228 0.930 . S
C2238 C2236 1.419 . S
C2238 C2239 1.362 . S
C2239 H2229 0.930 . S
C2239 C2232 1.409 . S
C2239 C2238 1.362 . S
H2240 C2246 0.930 . S
H2241 C2249 0.930 . S
H2242 C2250 0.930 . S
H2243 C2251 0.930 . S
H2244 C2254 0.930 . S
H2245 C2255 0.930 . S
C2246 H2240 0.930 . S
C2246 C2247 1.355 . S
C2246 C2248 1.415 . S
C2247 C2246 1.355 . S
C2247 C2249 1.419 . S
C2248 C2246 1.415 . S
C2248 C2253 1.425 . S
C2248 C2255 1.409 . S
C2249 H2241 0.930 . S
C2249 C2247 1.419 . S
C2249 C2250 1.362 . S
C2250 H2242 0.930 . S
C2250 C2249 1.362 . S
C2250 C2253 1.409 . S
C2251 H2243 0.930 . S
C2251 C2252 1.355 . S
C2251 C2253 1.415 . S
C2252 C2251 1.355 . S
C2252 C2254 1.419 . S
C2253 C2248 1.425 . S
C2253 C2250 1.409 . S
C2253 C2251 1.415 . S
C2254 H2244 0.930 . S
C2254 C2252 1.419 . S
C2254 C2255 1.362 . S
C2255 H2245 0.930 . S
C2255 C2248 1.409 . S
C2255 C2254 1.362 . S
H2256 C2262 0.930 . S
H2257 C2265 0.930 . S
H2258 C2266 0.930 . S
H2259 C2267 0.930 . S
H2260 C2270 0.930 . S
H2261 C2271 0.930 . S
C2262 H2256 0.930 . S
C2262 C2263 1.355 . S
C2262 C2264 1.415 . S
C2263 C2262 1.355 . S
C2263 C2265 1.419 . S
C2264 C2262 1.415 . S
C2264 C2269 1.425 . S
C2264 C2271 1.409 . S
C2265 H2257 0.930 . S
C2265 C2263 1.419 . S
C2265 C2266 1.362 . S
C2266 H2258 0.930 . S
C2266 C2265 1.362 . S
C2266 C2269 1.409 . S
C2267 H2259 0.930 . S
C2267 C2268 1.355 . S
C2267 C2269 1.415 . S
C2268 C2267 1.355 . S
C2268 C2270 1.419 . S
C2269 C2264 1.425 . S
C2269 C2266 1.409 . S
C2269 C2267 1.415 . S
C2270 H2260 0.930 . S
C2270 C2268 1.419 . S
C2270 C2271 1.362 . S
C2271 H2261 0.930 . S
C2271 C2264 1.409 . S
C2271 C2270 1.362 . S
H2272 C2278 0.930 . S
H2273 C2281 0.930 . S
H2274 C2282 0.930 . S
H2275 C2283 0.930 . S
H2276 C2286 0.930 . S
H2277 C2287 0.930 . S
C2278 H2272 0.930 . S
C2278 C2279 1.355 . S
C2278 C2280 1.415 . S
C2279 C2278 1.355 . S
C2279 C2281 1.419 . S
C2280 C2278 1.415 . S
C2280 C2285 1.425 . S
C2280 C2287 1.409 . S
C2281 H2273 0.930 . S
C2281 C2279 1.419 . S
C2281 C2282 1.362 . S
C2282 H2274 0.930 . S
C2282 C2281 1.362 . S
C2282 C2285 1.409 . S
C2283 H2275 0.930 . S
C2283 C2284 1.355 . S
C2283 C2285 1.415 . S
C2284 C2283 1.355 . S
C2284 C2286 1.419 . S
C2285 C2280 1.425 . S
C2285 C2282 1.409 . S
C2285 C2283 1.415 . S
C2286 H2276 0.930 . S
C2286 C2284 1.419 . S
C2286 C2287 1.362 . S
C2287 H2277 0.930 . S
C2287 C2280 1.409 . S
C2287 C2286 1.362 . S
H2288 C2294 0.930 . S
H2289 C2297 0.930 . S
H2290 C2298 0.930 . S
H2291 C2299 0.930 . S
H2292 C2302 0.930 . S
H2293 C2303 0.930 . S
C2294 H2288 0.930 . S
C2294 C2295 1.355 . S
C2294 C2296 1.415 . S
C2295 C2294 1.355 . S
C2295 C2297 1.419 . S
C2296 C2294 1.415 . S
C2296 C2301 1.425 . S
C2296 C2303 1.409 . S
C2297 H2289 0.930 . S
C2297 C2295 1.419 . S
C2297 C2298 1.362 . S
C2298 H2290 0.930 . S
C2298 C2297 1.362 . S
C2298 C2301 1.409 . S
C2299 H2291 0.930 . S
C2299 C2300 1.355 . S
C2299 C2301 1.415 . S
C2300 C2299 1.355 . S
C2300 C2302 1.419 . S
C2301 C2296 1.425 . S
C2301 C2298 1.409 . S
C2301 C2299 1.415 . S
C2302 H2292 0.930 . S
C2302 C2300 1.419 . S
C2302 C2303 1.362 . S
C2303 H2293 0.930 . S
C2303 C2296 1.409 . S
C2303 C2302 1.362 . S
H2304 C2310 0.930 . S
H2305 C2313 0.930 . S
H2306 C2314 0.930 . S
H2307 C2315 0.930 . S
H2308 C2318 0.930 . S
H2309 C2319 0.930 . S
C2310 H2304 0.930 . S
C2310 C2311 1.355 . S
C2310 C2312 1.415 . S
C2311 C2310 1.355 . S
C2311 C2313 1.419 . S
C2312 C2310 1.415 . S
C2312 C2317 1.425 . S
C2312 C2319 1.409 . S
C2313 H2305 0.930 . S
C2313 C2311 1.419 . S
C2313 C2314 1.362 . S
C2314 H2306 0.930 . S
C2314 C2313 1.362 . S
C2314 C2317 1.409 . S
C2315 H2307 0.930 . S
C2315 C2316 1.355 . S
C2315 C2317 1.415 . S
C2316 C2315 1.355 . S
C2316 C2318 1.419 . S
C2317 C2312 1.425 . S
C2317 C2314 1.409 . S
C2317 C2315 1.415 . S
C2318 H2308 0.930 . S
C2318 C2316 1.419 . S
C2318 C2319 1.362 . S
C2319 H2309 0.930 . S
C2319 C2312 1.409 . S
C2319 C2318 1.362 . S
H2320 C2326 0.930 . S
H2321 C2329 0.930 . S
H2322 C2330 0.930 . S
H2323 C2331 0.930 . S
H2324 C2334 0.930 . S
H2325 C2335 0.930 . S
C2326 H2320 0.930 . S
C2326 C2327 1.355 . S
C2326 C2328 1.415 . S
C2327 C2326 1.355 . S
C2327 C2329 1.419 . S
C2328 C2326 1.415 . S
C2328 C2333 1.425 . S
C2328 C2335 1.409 . S
C2329 H2321 0.930 . S
C2329 C2327 1.419 . S
C2329 C2330 1.362 . S
C2330 H2322 0.930 . S
C2330 C2329 1.362 . S
C2330 C2333 1.409 . S
C2331 H2323 0.930 . S
C2331 C2332 1.355 . S
C2331 C2333 1.415 . S
C2332 C2331 1.355 . S
C2332 C2334 1.419 . S
C2333 C2328 1.425 . S
C2333 C2330 1.409 . S
C2333 C2331 1.415 . S
C2334 H2324 0.930 . S
C2334 C2332 1.419 . S
C2334 C2335 1.362 . S
C2335 H2325 0.930 . S
C2335 C2328 1.409 . S
C2335 C2334 1.362 . S
H2336 C2342 0.930 . S
H2337 C2345 0.930 . S
H2338 C2346 0.930 . S
H2339 C2347 0.930 . S
H2340 C2350 0.930 . S
H2341 C2351 0.930 . S
C2342 H2336 0.930 . S
C2342 C2343 1.355 . S
C2342 C2344 1.415 . S
C2343 C2342 1.355 . S
C2343 C2345 1.419 . S
C2344 C2342 1.415 . S
C2344 C2349 1.425 . S
C2344 C2351 1.409 . S
C2345 H2337 0.930 . S
C2345 C2343 1.419 . S
C2345 C2346 1.362 . S
C2346 H2338 0.930 . S
C2346 C2345 1.362 . S
C2346 C2349 1.409 . S
C2347 H2339 0.930 . S
C2347 C2348 1.355 . S
C2347 C2349 1.415 . S
C2348 C2347 1.355 . S
C2348 C2350 1.419 . S
C2349 C2344 1.425 . S
C2349 C2346 1.409 . S
C2349 C2347 1.415 . S
C2350 H2340 0.930 . S
C2350 C2348 1.419 . S
C2350 C2351 1.362 . S
C2351 H2341 0.930 . S
C2351 C2344 1.409 . S
C2351 C2350 1.362 . S
H2352 C2358 0.930 . S
H2353 C2361 0.930 . S
H2354 C2362 0.930 . S
H2355 C2363 0.930 . S
H2356 C2366 0.930 . S
H2357 C2367 0.930 . S
C2358 H2352 0.930 . S
C2358 C2359 1.355 . S
C2358 C2360 1.415 . S
C2359 C2358 1.355 . S
C2359 C2361 1.419 . S
C2360 C2358 1.415 . S
C2360 C2365 1.425 . S
C2360 C2367 1.409 . S
C2361 H2353 0.930 . S
C2361 C2359 1.419 . S
C2361 C2362 1.362 . S
C2362 H2354 0.930 . S
C2362 C2361 1.362 . S
C2362 C2365 1.409 . S
C2363 H2355 0.930 . S
C2363 C2364 1.355 . S
C2363 C2365 1.415 . S
C2364 C2363 1.355 . S
C2364 C2366 1.419 . S
C2365 C2360 1.425 . S
C2365 C2362 1.409 . S
C2365 C2363 1.415 . S
C2366 H2356 0.930 . S
C2366 C2364 1.419 . S
C2366 C2367 1.362 . S
C2367 H2357 0.930 . S
C2367 C2360 1.409 . S
C2367 C2366 1.362 . S
H2368 C2374 0.930 . S
H2369 C2377 0.930 . S
H2370 C2378 0.930 . S
H2371 C2379 0.930 . S
H2372 C2382 0.930 . S
H2373 C2383 0.930 . S
C2374 H2368 0.930 . S
C2374 C2375 1.355 . S
C2374 C2376 1.415 . S
C2375 C2374 1.355 . S
C2375 C2377 1.419 . S
C2376 C2374 1.415 . S
C2376 C2381 1.425 . S
C2376 C2383 1.409 . S
C2377 H2369 0.930 . S
C2377 C2375 1.419 . S
C2377 C2378 1.362 . S
C2378 H2370 0.930 . S
C2378 C2377 1.362 . S
C2378 C2381 1.409 . S
C2379 H2371 0.930 . S
C2379 C2380 1.355 . S
C2379 C2381 1.415 . S
C2380 C2379 1.355 . S
C2380 C2382 1.419 . S
C2381 C2376 1.425 . S
C2381 C2378 1.409 . S
C2381 C2379 1.415 . S
C2382 H2372 0.930 . S
C2382 C2380 1.419 . S
C2382 C2383 1.362 . S
C2383 H2373 0.930 . S
C2383 C2376 1.409 . S
C2383 C2382 1.362 . S
H2384 C2390 0.930 . S
H2385 C2393 0.930 . S
H2386 C2394 0.930 . S
H2387 C2395 0.930 . S
H2388 C2398 0.930 . S
H2389 C2399 0.930 . S
C2390 H2384 0.930 . S
C2390 C2391 1.355 . S
C2390 C2392 1.415 . S
C2391 C2390 1.355 . S
C2391 C2393 1.419 . S
C2392 C2390 1.415 . S
C2392 C2397 1.425 . S
C2392 C2399 1.409 . S
C2393 H2385 0.930 . S
C2393 C2391 1.419 . S
C2393 C2394 1.362 . S
C2394 H2386 0.930 . S
C2394 C2393 1.362 . S
C2394 C2397 1.409 . S
C2395 H2387 0.930 . S
C2395 C2396 1.355 . S
C2395 C2397 1.415 . S
C2396 C2395 1.355 . S
C2396 C2398 1.419 . S
C2397 C2392 1.425 . S
C2397 C2394 1.409 . S
C2397 C2395 1.415 . S
C2398 H2388 0.930 . S
C2398 C2396 1.419 . S
C2398 C2399 1.362 . S
C2399 H2389 0.930 . S
C2399 C2392 1.409 . S
C2399 C2398 1.362 . S
H2400 C2406 0.930 . S
H2401 C2409 0.930 . S
H2402 C2410 0.930 . S
H2403 C2411 0.930 . S
H2404 C2414 0.930 . S
H2405 C2415 0.930 . S
C2406 H2400 0.930 . S
C2406 C2407 1.355 . S
C2406 C2408 1.415 . S
C2407 C2406 1.355 . S
C2407 C2409 1.419 . S
C2408 C2406 1.415 . S
C2408 C2413 1.425 . S
C2408 C2415 1.409 . S
C2409 H2401 0.930 . S
C2409 C2407 1.419 . S
C2409 C2410 1.362 . S
C2410 H2402 0.930 . S
C2410 C2409 1.362 . S
C2410 C2413 1.409 . S
C2411 H2403 0.930 . S
C2411 C2412 1.355 . S
C2411 C2413 1.415 . S
C2412 C2411 1.355 . S
C2412 C2414 1.419 . S
C2413 C2408 1.425 . S
C2413 C2410 1.409 . S
C2413 C2411 1.415 . S
C2414 H2404 0.930 . S
C2414 C2412 1.419 . S
C2414 C2415 1.362 . S
C2415 H2405 0.930 . S
C2415 C2408 1.409 . S
C2415 C2414 1.362 . S
H2416 C2422 0.930 . S
H2417 C2425 0.930 . S
H2418 C2426 0.930 . S
H2419 C2427 0.930 . S
H2420 C2430 0.930 . S
H2421 C2431 0.930 . S
C2422 H2416 0.930 . S
C2422 C2423 1.355 . S
C2422 C2424 1.415 . S
C2423 C2422 1.355 . S
C2423 C2425 1.419 . S
C2424 C2422 1.415 . S
C2424 C2429 1.425 . S
C2424 C2431 1.409 . S
C2425 H2417 0.930 . S
C2425 C2423 1.419 . S
C2425 C2426 1.362 . S
C2426 H2418 0.930 . S
C2426 C2425 1.362 . S
C2426 C2429 1.409 . S
C2427 H2419 0.930 . S
C2427 C2428 1.355 . S
C2427 C2429 1.415 . S
C2428 C2427 1.355 . S
C2428 C2430 1.419 . S
C2429 C2424 1.425 . S
C2429 C2426 1.409 . S
C2429 C2427 1.415 . S
C2430 H2420 0.930 . S
C2430 C2428 1.419 . S
C2430 C2431 1.362 . S
C2431 H2421 0.930 . S
C2431 C2424 1.409 . S
C2431 C2430 1.362 . S
H2432 C2438 0.930 . S
H2433 C2441 0.930 . S
H2434 C2442 0.930 . S
H2435 C2443 0.930 . S
H2436 C2446 0.930 . S
H2437 C2447 0.930 . S
C2438 H2432 0.930 . S
C2438 C2439 1.355 . S
C2438 C2440 1.415 . S
C2439 C2438 1.355 . S
C2439 C2441 1.419 . S
C2440 C2438 1.415 . S
C2440 C2445 1.425 . S
C2440 C2447 1.409 . S
C2441 H2433 0.930 . S
C2441 C2439 1.419 . S
C2441 C2442 1.362 . S
C2442 H2434 0.930 . S
C2442 C2441 1.362 . S
C2442 C2445 1.409 . S
C2443 H2435 0.930 . S
C2443 C2444 1.355 . S
C2443 C2445 1.415 . S
C2444 C2443 1.355 . S
C2444 C2446 1.419 . S
C2445 C2440 1.425 . S
C2445 C2442 1.409 . S
C2445 C2443 1.415 . S
C2446 H2436 0.930 . S
C2446 C2444 1.419 . S
C2446 C2447 1.362 . S
C2447 H2437 0.930 . S
C2447 C2440 1.409 . S
C2447 C2446 1.362 . S
H2448 C2454 0.930 . S
H2449 C2457 0.930 . S
H2450 C2458 0.930 . S
H2451 C2459 0.930 . S
H2452 C2462 0.930 . S
H2453 C2463 0.930 . S
C2454 H2448 0.930 . S
C2454 C2455 1.355 . S
C2454 C2456 1.415 . S
C2455 C2454 1.355 . S
C2455 C2457 1.419 . S
C2456 C2454 1.415 . S
C2456 C2461 1.425 . S
C2456 C2463 1.409 . S
C2457 H2449 0.930 . S
C2457 C2455 1.419 . S
C2457 C2458 1.362 . S
C2458 H2450 0.930 . S
C2458 C2457 1.362 . S
C2458 C2461 1.409 . S
C2459 H2451 0.930 . S
C2459 C2460 1.355 . S
C2459 C2461 1.415 . S
C2460 C2459 1.355 . S
C2460 C2462 1.419 . S
C2461 C2456 1.425 . S
C2461 C2458 1.409 . S
C2461 C2459 1.415 . S
C2462 H2452 0.930 . S
C2462 C2460 1.419 . S
C2462 C2463 1.362 . S
C2463 H2453 0.930 . S
C2463 C2456 1.409 . S
C2463 C2462 1.362 . S
H2464 C2470 0.930 . S
H2465 C2473 0.930 . S
H2466 C2474 0.930 . S
H2467 C2475 0.930 . S
H2468 C2478 0.930 . S
H2469 C2479 0.930 . S
C2470 H2464 0.930 . S
C2470 C2471 1.355 . S
C2470 C2472 1.415 . S
C2471 C2470 1.355 . S
C2471 C2473 1.419 . S
C2472 C2470 1.415 . S
C2472 C2477 1.425 . S
C2472 C2479 1.409 . S
C2473 H2465 0.930 . S
C2473 C2471 1.419 . S
C2473 C2474 1.362 . S
C2474 H2466 0.930 . S
C2474 C2473 1.362 . S
C2474 C2477 1.409 . S
C2475 H2467 0.930 . S
C2475 C2476 1.355 . S
C2475 C2477 1.415 . S
C2476 C2475 1.355 . S
C2476 C2478 1.419 . S
C2477 C2472 1.425 . S
C2477 C2474 1.409 . S
C2477 C2475 1.415 . S
C2478 H2468 0.930 . S
C2478 C2476 1.419 . S
C2478 C2479 1.362 . S
C2479 H2469 0.930 . S
C2479 C2472 1.409 . S
C2479 C2478 1.362 . S
H2480 C2486 0.930 . S
H2481 C2489 0.930 . S
H2482 C2490 0.930 . S
H2483 C2491 0.930 . S
H2484 C2494 0.930 . S
H2485 C2495 0.930 . S
C2486 H2480 0.930 . S
C2486 C2487 1.355 . S
C2486 C2488 1.415 . S
C2487 C2486 1.355 . S
C2487 C2489 1.419 . S
C2488 C2486 1.415 . S
C2488 C2493 1.425 . S
C2488 C2495 1.409 . S
C2489 H2481 0.930 . S
C2489 C2487 1.419 . S
C2489 C2490 1.362 . S
C2490 H2482 0.930 . S
C2490 C2489 1.362 . S
C2490 C2493 1.409 . S
C2491 H2483 0.930 . S
C2491 C2492 1.355 . S
C2491 C2493 1.415 . S
C2492 C2491 1.355 . S
C2492 C2494 1.419 . S
C2493 C2488 1.425 . S
C2493 C2490 1.409 . S
C2493 C2491 1.415 . S
C2494 H2484 0.930 . S
C2494 C2492 1.419 . S
C2494 C2495 1.362 . S
C2495 H2485 0.930 . S
C2495 C2488 1.409 . S
C2495 C2494 1.362 . S
H2496 C2502 0.930 . S
H2497 C2505 0.930 . S
H2498 C2506 0.930 . S
H2499 C2507 0.930 . S
H2500 C2510 0.930 . S
H2501 C2511 0.930 . S
C2502 H2496 0.930 . S
C2502 C2503 1.355 . S
C2502 C2504 1.415 . S
C2503 C2502 1.355 . S
C2503 C2505 1.419 . S
C2504 C2502 1.415 . S
C2504 C2509 1.425 . S
C2504 C2511 1.409 . S
C2505 H2497 0.930 . S
C2505 C2503 1.419 . S
C2505 C2506 1.362 . S
C2506 H2498 0.930 . S
C2506 C2505 1.362 . S
C2506 C2509 1.409 . S
C2507 H2499 0.930 . S
C2507 C2508 1.355 . S
C2507 C2509 1.415 . S
C2508 C2507 1.355 . S
C2508 C2510 1.419 . S
C2509 C2504 1.425 . S
C2509 C2506 1.409 . S
C2509 C2507 1.415 . S
C2510 H2500 0.930 . S
C2510 C2508 1.419 . S
C2510 C2511 1.362 . S
C2511 H2501 0.930 . S
C2511 C2504 1.409 . S
C2511 C2510 1.362 . S
H2512 C2518 0.930 . S
H2513 C2521 0.930 . S
H2514 C2522 0.930 . S
H2515 C2523 0.930 . S
H2516 C2526 0.930 . S
H2517 C2527 0.930 . S
C2518 H2512 0.930 . S
C2518 C2519 1.355 . S
C2518 C2520 1.415 . S
C2519 C2518 1.355 . S
C2519 C2521 1.419 . S
C2520 C2518 1.415 . S
C2520 C2525 1.425 . S
C2520 C2527 1.409 . S
C2521 H2513 0.930 . S
C2521 C2519 1.419 . S
C2521 C2522 1.362 . S
C2522 H2514 0.930 . S
C2522 C2521 1.362 . S
C2522 C2525 1.409 . S
C2523 H2515 0.930 . S
C2523 C2524 1.355 . S
C2523 C2525 1.415 . S
C2524 C2523 1.355 . S
C2524 C2526 1.419 . S
C2525 C2520 1.425 . S
C2525 C2522 1.409 . S
C2525 C2523 1.415 . S
C2526 H2516 0.930 . S
C2526 C2524 1.419 . S
C2526 C2527 1.362 . S
C2527 H2517 0.930 . S
C2527 C2520 1.409 . S
C2527 C2526 1.362 . S
H2528 C2534 0.930 . S
H2529 C2537 0.930 . S
H2530 C2538 0.930 . S
H2531 C2539 0.930 . S
H2532 C2542 0.930 . S
H2533 C2543 0.930 . S
C2534 H2528 0.930 . S
C2534 C2535 1.355 . S
C2534 C2536 1.415 . S
C2535 C2534 1.355 . S
C2535 C2537 1.419 . S
C2536 C2534 1.415 . S
C2536 C2541 1.425 . S
C2536 C2543 1.409 . S
C2537 H2529 0.930 . S
C2537 C2535 1.419 . S
C2537 C2538 1.362 . S
C2538 H2530 0.930 . S
C2538 C2537 1.362 . S
C2538 C2541 1.409 . S
C2539 H2531 0.930 . S
C2539 C2540 1.355 . S
C2539 C2541 1.415 . S
C2540 C2539 1.355 . S
C2540 C2542 1.419 . S
C2541 C2536 1.425 . S
C2541 C2538 1.409 . S
C2541 C2539 1.415 . S
C2542 H2532 0.930 . S
C2542 C2540 1.419 . S
C2542 C2543 1.362 . S
C2543 H2533 0.930 . S
C2543 C2536 1.409 . S
C2543 C2542 1.362 . S
H2544 C2550 0.930 . S
H2545 C2553 0.930 . S
H2546 C2554 0.930 . S
H2547 C2555 0.930 . S
H2548 C2558 0.930 . S
H2549 C2559 0.930 . S
C2550 H2544 0.930 . S
C2550 C2551 1.355 . S
C2550 C2552 1.415 . S
C2551 C2550 1.355 . S
C2551 C2553 1.419 . S
C2552 C2550 1.415 . S
C2552 C2557 1.425 . S
C2552 C2559 1.409 . S
C2553 H2545 0.930 . S
C2553 C2551 1.419 . S
C2553 C2554 1.362 . S
C2554 H2546 0.930 . S
C2554 C2553 1.362 . S
C2554 C2557 1.409 . S
C2555 H2547 0.930 . S
C2555 C2556 1.355 . S
C2555 C2557 1.415 . S
C2556 C2555 1.355 . S
C2556 C2558 1.419 . S
C2557 C2552 1.425 . S
C2557 C2554 1.409 . S
C2557 C2555 1.415 . S
C2558 H2548 0.930 . S
C2558 C2556 1.419 . S
C2558 C2559 1.362 . S
C2559 H2549 0.930 . S
C2559 C2552 1.409 . S
C2559 C2558 1.362 . S
H2560 C2566 0.930 . S
H2561 C2569 0.930 . S
H2562 C2570 0.930 . S
H2563 C2571 0.930 . S
H2564 C2574 0.930 . S
H2565 C2575 0.930 . S
C2566 H2560 0.930 . S
C2566 C2567 1.355 . S
C2566 C2568 1.415 . S
C2567 C2566 1.355 . S
C2567 C2569 1.419 . S
C2568 C2566 1.415 . S
C2568 C2573 1.425 . S
C2568 C2575 1.409 . S
C2569 H2561 0.930 . S
C2569 C2567 1.419 . S
C2569 C2570 1.362 . S
C2570 H2562 0.930 . S
C2570 C2569 1.362 . S
C2570 C2573 1.409 . S
C2571 H2563 0.930 . S
C2571 C2572 1.355 . S
C2571 C2573 1.415 . S
C2572 C2571 1.355 . S
C2572 C2574 1.419 . S
C2573 C2568 1.425 . S
C2573 C2570 1.409 . S
C2573 C2571 1.415 . S
C2574 H2564 0.930 . S
C2574 C2572 1.419 . S
C2574 C2575 1.362 . S
C2575 H2565 0.930 . S
C2575 C2568 1.409 . S
C2575 C2574 1.362 . S
H2576 C2582 0.930 . S
H2577 C2585 0.930 . S
H2578 C2586 0.930 . S
H2579 C2587 0.930 . S
H2580 C2590 0.930 . S
H2581 C2591 0.930 . S
C2582 H2576 0.930 . S
C2582 C2583 1.355 . S
C2582 C2584 1.415 . S
C2583 C2582 1.355 . S
C2583 C2585 1.419 . S
C2584 C2582 1.415 . S
C2584 C2589 1.425 . S
C2584 C2591 1.409 . S
C2585 H2577 0.930 . S
C2585 C2583 1.419 . S
C2585 C2586 1.362 . S
C2586 H2578 0.930 . S
C2586 C2585 1.362 . S
C2586 C2589 1.409 . S
C2587 H2579 0.930 . S
C2587 C2588 1.355 . S
C2587 C2589 1.415 . S
C2588 C2587 1.355 . S
C2588 C2590 1.419 . S
C2589 C2584 1.425 . S
C2589 C2586 1.409 . S
C2589 C2587 1.415 . S
C2590 H2580 0.930 . S
C2590 C2588 1.419 . S
C2590 C2591 1.362 . S
C2591 H2581 0.930 . S
C2591 C2584 1.409 . S
C2591 C2590 1.362 . S
H2592 C2598 0.930 . S
H2593 C2601 0.930 . S
H2594 C2602 0.930 . S
H2595 C2603 0.930 . S
H2596 C2606 0.930 . S
H2597 C2607 0.930 . S
C2598 H2592 0.930 . S
C2598 C2599 1.355 . S
C2598 C2600 1.415 . S
C2599 C2598 1.355 . S
C2599 C2601 1.419 . S
C2600 C2598 1.415 . S
C2600 C2605 1.425 . S
C2600 C2607 1.409 . S
C2601 H2593 0.930 . S
C2601 C2599 1.419 . S
C2601 C2602 1.362 . S
C2602 H2594 0.930 . S
C2602 C2601 1.362 . S
C2602 C2605 1.409 . S
C2603 H2595 0.930 . S
C2603 C2604 1.355 . S
C2603 C2605 1.415 . S
C2604 C2603 1.355 . S
C2604 C2606 1.419 . S
C2605 C2600 1.425 . S
C2605 C2602 1.409 . S
C2605 C2603 1.415 . S
C2606 H2596 0.930 . S
C2606 C2604 1.419 . S
C2606 C2607 1.362 . S
C2607 H2597 0.930 . S
C2607 C2600 1.409 . S
C2607 C2606 1.362 . S
H2608 C2614 0.930 . S
H2609 C2617 0.930 . S
H2610 C2618 0.930 . S
H2611 C2619 0.930 . S
H2612 C2622 0.930 . S
H2613 C2623 0.930 . S
C2614 H2608 0.930 . S
C2614 C2615 1.355 . S
C2614 C2616 1.415 . S
C2615 C2614 1.355 . S
C2615 C2617 1.419 . S
C2616 C2614 1.415 . S
C2616 C2621 1.425 . S
C2616 C2623 1.409 . S
C2617 H2609 0.930 . S
C2617 C2615 1.419 . S
C2617 C2618 1.362 . S
C2618 H2610 0.930 . S
C2618 C2617 1.362 . S
C2618 C2621 1.409 . S
C2619 H2611 0.930 . S
C2619 C2620 1.355 . S
C2619 C2621 1.415 . S
C2620 C2619 1.355 . S
C2620 C2622 1.419 . S
C2621 C2616 1.425 . S
C2621 C2618 1.409 . S
C2621 C2619 1.415 . S
C2622 H2612 0.930 . S
C2622 C2620 1.419 . S
C2622 C2623 1.362 . S
C2623 H2613 0.930 . S
C2623 C2616 1.409 . S
C2623 C2622 1.362 . S
H2624 C2630 0.930 . S
H2625 C2633 0.930 . S
H2626 C2634 0.930 . S
H2627 C2635 0.930 . S
H2628 C2638 0.930 . S
H2629 C2639 0.930 . S
C2630 H2624 0.930 . S
C2630 C2631 1.355 . S
C2630 C2632 1.415 . S
C2631 C2630 1.355 . S
C2631 C2633 1.419 . S
C2632 C2630 1.415 . S
C2632 C2637 1.425 . S
C2632 C2639 1.409 . S
C2633 H2625 0.930 . S
C2633 C2631 1.419 . S
C2633 C2634 1.362 . S
C2634 H2626 0.930 . S
C2634 C2633 1.362 . S
C2634 C2637 1.409 . S
C2635 H2627 0.930 . S
C2635 C2636 1.355 . S
C2635 C2637 1.415 . S
C2636 C2635 1.355 . S
C2636 C2638 1.419 . S
C2637 C2632 1.425 . S
C2637 C2634 1.409 . S
C2637 C2635 1.415 . S
C2638 H2628 0.930 . S
C2638 C2636 1.419 . S
C2638 C2639 1.362 . S
C2639 H2629 0.930 . S
C2639 C2632 1.409 . S
C2639 C2638 1.362 . S
H2640 C2646 0.930 . S
H2641 C2649 0.930 . S
H2642 C2650 0.930 . S
H2643 C2651 0.930 . S
H2644 C2654 0.930 . S
H2645 C2655 0.930 . S
C2646 H2640 0.930 . S
C2646 C2647 1.355 . S
C2646 C2648 1.415 . S
C2647 C2646 1.355 . S
C2647 C2649 1.419 . S
C2648 C2646 1.415 . S
C2648 C2653 1.425 . S
C2648 C2655 1.409 . S
C2649 H2641 0.930 . S
C2649 C2647 1.419 . S
C2649 C2650 1.362 . S
C2650 H2642 0.930 . S
C2650 C2649 1.362 . S
C2650 C2653 1.409 . S
C2651 H2643 0.930 . S
C2651 C2652 1.355 . S
C2651 C2653 1.415 . S
C2652 C2651 1.355 . S
C2652 C2654 1.419 . S
C2653 C2648 1.425 . S
C2653 C2650 1.409 . S
C2653 C2651 1.415 . S
C2654 H2644 0.930 . S
C2654 C2652 1.419 . S
C2654 C2655 1.362 . S
C2655 H2645 0.930 . S
C2655 C2648 1.409 . S
C2655 C2654 1.362 . S
H2656 C2662 0.930 . S
H2657 C2665 0.930 . S
H2658 C2666 0.930 . S
H2659 C2667 0.930 . S
H2660 C2670 0.930 . S
H2661 C2671 0.930 . S
C2662 H2656 0.930 . S
C2662 C2663 1.355 . S
C2662 C2664 1.415 . S
C2663 C2662 1.355 . S
C2663 C2665 1.419 . S
C2664 C2662 1.415 . S
C2664 C2669 1.425 . S
C2664 C2671 1.409 . S
C2665 H2657 0.930 . S
C2665 C2663 1.419 . S
C2665 C2666 1.362 . S
C2666 H2658 0.930 . S
C2666 C2665 1.362 . S
C2666 C2669 1.409 . S
C2667 H2659 0.930 . S
C2667 C2668 1.355 . S
C2667 C2669 1.415 . S
C2668 C2667 1.355 . S
C2668 C2670 1.419 . S
C2669 C2664 1.425 . S
C2669 C2666 1.409 . S
C2669 C2667 1.415 . S
C2670 H2660 0.930 . S
C2670 C2668 1.419 . S
C2670 C2671 1.362 . S
C2671 H2661 0.930 . S
C2671 C2664 1.409 . S
C2671 C2670 1.362 . S
H2672 C2678 0.930 . S
H2673 C2681 0.930 . S
H2674 C2682 0.930 . S
H2675 C2683 0.930 . S
H2676 C2686 0.930 . S
H2677 C2687 0.930 . S
C2678 H2672 0.930 . S
C2678 C2679 1.355 . S
C2678 C2680 1.415 . S
C2679 C2678 1.355 . S
C2679 C2681 1.419 . S
C2680 C2678 1.415 . S
C2680 C2685 1.425 . S
C2680 C2687 1.409 . S
C2681 H2673 0.930 . S
C2681 C2679 1.419 . S
C2681 C2682 1.362 . S
C2682 H2674 0.930 . S
C2682 C2681 1.362 . S
C2682 C2685 1.409 . S
C2683 H2675 0.930 . S
C2683 C2684 1.355 . S
C2683 C2685 1.415 . S
C2684 C2683 1.355 . S
C2684 C2686 1.419 . S
C2685 C2680 1.425 . S
C2685 C2682 1.409 . S
C2685 C2683 1.415 . S
C2686 H2676 0.930 . S
C2686 C2684 1.419 . S
C2686 C2687 1.362 . S
C2687 H2677 0.930 . S
C2687 C2680 1.409 . S
C2687 C2686 1.362 . S
H2688 C2694 0.930 . S
H2689 C2697 0.930 . S
H2690 C2698 0.930 . S
H2691 C2699 0.930 . S
H2692 C2702 0.930 . S
H2693 C2703 0.930 . S
C2694 H2688 0.930 . S
C2694 C2695 1.355 . S
C2694 C2696 1.415 . S
C2695 C2694 1.355 . S
C2695 C2697 1.419 . S
C2696 C2694 1.415 . S
C2696 C2701 1.425 . S
C2696 C2703 1.409 . S
C2697 H2689 0.930 . S
C2697 C2695 1.419 . S
C2697 C2698 1.362 . S
C2698 H2690 0.930 . S
C2698 C2697 1.362 . S
C2698 C2701 1.409 . S
C2699 H2691 0.930 . S
C2699 C2700 1.355 . S
C2699 C2701 1.415 . S
C2700 C2699 1.355 . S
C2700 C2702 1.419 . S
C2701 C2696 1.425 . S
C2701 C2698 1.409 . S
C2701 C2699 1.415 . S
C2702 H2692 0.930 . S
C2702 C2700 1.419 . S
C2702 C2703 1.362 . S
C2703 H2693 0.930 . S
C2703 C2696 1.409 . S
C2703 C2702 1.362 . S
H2704 C2710 0.930 . S
H2705 C2713 0.930 . S
H2706 C2714 0.930 . S
H2707 C2715 0.930 . S
H2708 C2718 0.930 . S
H2709 C2719 0.930 . S
C2710 H2704 0.930 . S
C2710 C2711 1.355 . S
C2710 C2712 1.415 . S
C2711 C2710 1.355 . S
C2711 C2713 1.419 . S
C2712 C2710 1.415 . S
C2712 C2717 1.425 . S
C2712 C2719 1.409 . S
C2713 H2705 0.930 . S
C2713 C2711 1.419 . S
C2713 C2714 1.362 . S
C2714 H2706 0.930 . S
C2714 C2713 1.362 . S
C2714 C2717 1.409 . S
C2715 H2707 0.930 . S
C2715 C2716 1.355 . S
C2715 C2717 1.415 . S
C2716 C2715 1.355 . S
C2716 C2718 1.419 . S
C2717 C2712 1.425 . S
C2717 C2714 1.409 . S
C2717 C2715 1.415 . S
C2718 H2708 0.930 . S
C2718 C2716 1.419 . S
C2718 C2719 1.362 . S
C2719 H2709 0.930 . S
C2719 C2712 1.409 . S
C2719 C2718 1.362 . S
H2720 C2726 0.930 . S
H2721 C2729 0.930 . S
H2722 C2730 0.930 . S
H2723 C2731 0.930 . S
H2724 C2734 0.930 . S
H2725 C2735 0.930 . S
C2726 H2720 0.930 . S
C2726 C2727 1.355 . S
C2726 C2728 1.415 . S
C2727 C2726 1.355 . S
C2727 C2729 1.419 . S
C2728 C2726 1.415 . S
C2728 C2733 1.425 . S
C2728 C2735 1.409 . S
C2729 H2721 0.930 . S
C2729 C2727 1.419 . S
C2729 C2730 1.362 . S
C2730 H2722 0.930 . S
C2730 C2729 1.362 . S
C2730 C2733 1.409 . S
C2731 H2723 0.930 . S
C2731 C2732 1.355 . S
C2731 C2733 1.415 . S
C2732 C2731 1.355 . S
C2732 C2734 1.419 . S
C2733 C2728 1.425 . S
C2733 C2730 1.409 . S
C2733 C2731 1.415 . S
C2734 H2724 0.930 . S
C2734 C2732 1.419 . S
C2734 C2735 1.362 . S
C2735 H2725 0.930 . S
C2735 C2728 1.409 . S
C2735 C2734 1.362 . S
H2736 C2742 0.930 . S
H2737 C2745 0.930 . S
H2738 C2746 0.930 . S
H2739 C2747 0.930 . S
H2740 C2750 0.930 . S
H2741 C2751 0.930 . S
C2742 H2736 0.930 . S
C2742 C2743 1.355 . S
C2742 C2744 1.415 . S
C2743 C2742 1.355 . S
C2743 C2745 1.419 . S
C2744 C2742 1.415 . S
C2744 C2749 1.425 . S
C2744 C2751 1.409 . S
C2745 H2737 0.930 . S
C2745 C2743 1.419 . S
C2745 C2746 1.362 . S
C2746 H2738 0.930 . S
C2746 C2745 1.362 . S
C2746 C2749 1.409 . S
C2747 H2739 0.930 . S
C2747 C2748 1.355 . S
C2747 C2749 1.415 . S
C2748 C2747 1.355 . S
C2748 C2750 1.419 . S
C2749 C2744 1.425 . S
C2749 C2746 1.409 . S
C2749 C2747 1.415 . S
C2750 H2740 0.930 . S
C2750 C2748 1.419 . S
C2750 C2751 1.362 . S
C2751 H2741 0.930 . S
C2751 C2744 1.409 . S
C2751 C2750 1.362 . S
H2752 C2758 0.930 . S
H2753 C2761 0.930 . S
H2754 C2762 0.930 . S
H2755 C2763 0.930 . S
H2756 C2766 0.930 . S
H2757 C2767 0.930 . S
C2758 H2752 0.930 . S
C2758 C2759 1.355 . S
C2758 C2760 1.415 . S
C2759 C2758 1.355 . S
C2759 C2761 1.419 . S
C2760 C2758 1.415 . S
C2760 C2765 1.425 . S
C2760 C2767 1.409 . S
C2761 H2753 0.930 . S
C2761 C2759 1.419 . S
C2761 C2762 1.362 . S
C2762 H2754 0.930 . S
C2762 C2761 1.362 . S
C2762 C2765 1.409 . S
C2763 H2755 0.930 . S
C2763 C2764 1.355 . S
C2763 C2765 1.415 . S
C2764 C2763 1.355 . S
C2764 C2766 1.419 . S
C2765 C2760 1.425 . S
C2765 C2762 1.409 . S
C2765 C2763 1.415 . S
C2766 H2756 0.930 . S
C2766 C2764 1.419 . S
C2766 C2767 1.362 . S
C2767 H2757 0.930 . S
C2767 C2760 1.409 . S
C2767 C2766 1.362 . S
H2768 C2774 0.930 . S
H2769 C2777 0.930 . S
H2770 C2778 0.930 . S
H2771 C2779 0.930 . S
H2772 C2782 0.930 . S
H2773 C2783 0.930 . S
C2774 H2768 0.930 . S
C2774 C2775 1.355 . S
C2774 C2776 1.415 . S
C2775 C2774 1.355 . S
C2775 C2777 1.419 . S
C2776 C2774 1.415 . S
C2776 C2781 1.425 . S
C2776 C2783 1.409 . S
C2777 H2769 0.930 . S
C2777 C2775 1.419 . S
C2777 C2778 1.362 . S
C2778 H2770 0.930 . S
C2778 C2777 1.362 . S
C2778 C2781 1.409 . S
C2779 H2771 0.930 . S
C2779 C2780 1.355 . S
C2779 C2781 1.415 . S
C2780 C2779 1.355 . S
C2780 C2782 1.419 . S
C2781 C2776 1.425 . S
C2781 C2778 1.409 . S
C2781 C2779 1.415 . S
C2782 H2772 0.930 . S
C2782 C2780 1.419 . S
C2782 C2783 1.362 . S
C2783 H2773 0.930 . S
C2783 C2776 1.409 . S
C2783 C2782 1.362 . S
H2784 C2790 0.930 . S
H2785 C2793 0.930 . S
H2786 C2794 0.930 . S
H2787 C2795 0.930 . S
H2788 C2798 0.930 . S
H2789 C2799 0.930 . S
C2790 H2784 0.930 . S
C2790 C2791 1.355 . S
C2790 C2792 1.415 . S
C2791 C2790 1.355 . S
C2791 C2793 1.419 . S
C2792 C2790 1.415 . S
C2792 C2797 1.425 . S
C2792 C2799 1.409 . S
C2793 H2785 0.930 . S
C2793 C2791 1.419 . S
C2793 C2794 1.362 . S
C2794 H2786 0.930 . S
C2794 C2793 1.362 . S
C2794 C2797 1.409 . S
C2795 H2787 0.930 . S
C2795 C2796 1.355 . S
C2795 C2797 1.415 . S
C2796 C2795 1.355 . S
C2796 C2798 1.419 . S
C2797 C2792 1.425 . S
C2797 C2794 1.409 . S
C2797 C2795 1.415 . S
C2798 H2788 0.930 . S
C2798 C2796 1.419 . S
C2798 C2799 1.362 . S
C2799 H2789 0.930 . S
C2799 C2792 1.409 . S
C2799 C2798 1.362 . S
H2800 C2806 0.930 . S
H2801 C2809 0.930 . S
H2802 C2810 0.930 . S
H2803 C2811 0.930 . S
H2804 C2814 0.930 . S
H2805 C2815 0.930 . S
C2806 H2800 0.930 . S
C2806 C2807 1.355 . S
C2806 C2808 1.415 . S
C2807 C2806 1.355 . S
C2807 C2809 1.419 . S
C2808 C2806 1.415 . S
C2808 C2813 1.425 . S
C2808 C2815 1.409 . S
C2809 H2801 0.930 . S
C2809 C2807 1.419 . S
C2809 C2810 1.362 . S
C2810 H2802 0.930 . S
C2810 C2809 1.362 . S
C2810 C2813 1.409 . S
C2811 H2803 0.930 . S
C2811 C2812 1.355 . S
C2811 C2813 1.415 . S
C2812 C2811 1.355 . S
C2812 C2814 1.419 . S
C2813 C2808 1.425 . S
C2813 C2810 1.409 . S
C2813 C2811 1.415 . S
C2814 H2804 0.930 . S
C2814 C2812 1.419 . S
C2814 C2815 1.362 . S
C2815 H2805 0.930 . S
C2815 C2808 1.409 . S
C2815 C2814 1.362 . S
H2816 C2822 0.930 . S
H2817 C2825 0.930 . S
H2818 C2826 0.930 . S
H2819 C2827 0.930 . S
H2820 C2830 0.930 . S
H2821 C2831 0.930 . S
C2822 H2816 0.930 . S
C2822 C2823 1.355 . S
C2822 C2824 1.415 . S
C2823 C2822 1.355 . S
C2823 C2825 1.419 . S
C2824 C2822 1.415 . S
C2824 C2829 1.425 . S
C2824 C2831 1.409 . S
C2825 H2817 0.930 . S
C2825 C2823 1.419 . S
C2825 C2826 1.362 . S
C2826 H2818 0.930 . S
C2826 C2825 1.362 . S
C2826 C2829 1.409 . S
C2827 H2819 0.930 . S
C2827 C2828 1.355 . S
C2827 C2829 1.415 . S
C2828 C2827 1.355 . S
C2828 C2830 1.419 . S
C2829 C2824 1.425 . S
C2829 C2826 1.409 . S
C2829 C2827 1.415 . S
C2830 H2820 0.930 . S
C2830 C2828 1.419 . S
C2830 C2831 1.362 . S
C2831 H2821 0.930 . S
C2831 C2824 1.409 . S
C2831 C2830 1.362 . S
H2832 C2838 0.930 . S
H2833 C2841 0.930 . S
H2834 C2842 0.930 . S
H2835 C2843 0.930 . S
H2836 C2846 0.930 . S
H2837 C2847 0.930 . S
C2838 H2832 0.930 . S
C2838 C2839 1.355 . S
C2838 C2840 1.415 . S
C2839 C2838 1.355 . S
C2839 C2841 1.419 . S
C2840 C2838 1.415 . S
C2840 C2845 1.425 . S
C2840 C2847 1.409 . S
C2841 H2833 0.930 . S
C2841 C2839 1.419 . S
C2841 C2842 1.362 . S
C2842 H2834 0.930 . S
C2842 C2841 1.362 . S
C2842 C2845 1.409 . S
C2843 H2835 0.930 . S
C2843 C2844 1.355 . S
C2843 C2845 1.415 . S
C2844 C2843 1.355 . S
C2844 C2846 1.419 . S
C2845 C2840 1.425 . S
C2845 C2842 1.409 . S
C2845 C2843 1.415 . S
C2846 H2836 0.930 . S
C2846 C2844 1.419 . S
C2846 C2847 1.362 . S
C2847 H2837 0.930 . S
C2847 C2840 1.409 . S
C2847 C2846 1.362 . S
H2848 C2854 0.930 . S
H2849 C2857 0.930 . S
H2850 C2858 0.930 . S
H2851 C2859 0.930 . S
H2852 C2862 0.930 . S
H2853 C2863 0.930 . S
C2854 H2848 0.930 . S
C2854 C2855 1.355 . S
C2854 C2856 1.415 . S
C2855 C2854 1.355 . S
C2855 C2857 1.419 . S
C2856 C2854 1.415 . S
C2856 C2861 1.425 . S
C2856 C2863 1.409 . S
C2857 H2849 0.930 . S
C2857 C2855 1.419 . S
C2857 C2858 1.362 . S
C2858 H2850 0.930 . S
C2858 C2857 1.362 . S
C2858 C2861 1.409 . S
C2859 H2851 0.930 . S
C2859 C2860 1.355 . S
C2859 C2861 1.415 . S
C2860 C2859 1.355 . S
C2860 C2862 1.419 . S
C2861 C2856 1.425 . S
C2861 C2858 1.409 . S
C2861 C2859 1.415 . S
C2862 H2852 0.930 . S
C2862 C2860 1.419 . S
C2862 C2863 1.362 . S
C2863 H2853 0.930 . S
C2863 C2856 1.409 . S
C2863 C2862 1.362 . S
H2864 C2870 0.930 . S
H2865 C2873 0.930 . S
H2866 C2874 0.930 . S
H2867 C2875 0.930 . S
H2868 C2878 0.930 . S
H2869 C2879 0.930 . S
C2870 H2864 0.930 . S
C2870 C2871 1.355 . S
C2870 C2872 1.415 . S
C2871 C2870 1.355 . S
C2871 C2873 1.419 . S
C2872 C2870 1.415 . S
C2872 C2877 1.425 . S
C2872 C2879 1.409 . S
C2873 H2865 0.930 . S
C2873 C2871 1.419 . S
C2873 C2874 1.362 . S
C2874 H2866 0.930 . S
C2874 C2873 1.362 . S
C2874 C2877 1.409 . S
C2875 H2867 0.930 . S
C2875 C2876 1.355 . S
C2875 C2877 1.415 . S
C2876 C2875 1.355 . S
C2876 C2878 1.419 . S
C2877 C2872 1.425 . S
C2877 C2874 1.409 . S
C2877 C2875 1.415 . S
C2878 H2868 0.930 . S
C2878 C2876 1.419 . S
C2878 C2879 1.362 . S
C2879 H2869 0.930 . S
C2879 C2872 1.409 . S
C2879 C2878 1.362 . S
H2880 C2886 0.930 . S
H2881 C2889 0.930 . S
H2882 C2890 0.930 . S
H2883 C2891 0.930 . S
H2884 C2894 0.930 . S
H2885 C2895 0.930 . S
C2886 H2880 0.930 . S
C2886 C2887 1.355 . S
C2886 C2888 1.415 . S
C2887 C2886 1.355 . S
C2887 C2889 1.419 . S
C2888 C2886 1.415 . S
C2888 C2893 1.425 1_455 S
C2888 C2895 1.409 1_455 S
C2889 H2881 0.930 . S
C2889 C2887 1.419 . S
C2889 C2890 1.362 . S
C2890 H2882 0.930 . S
C2890 C2889 1.362 . S
C2890 C2893 1.409 1_455 S
C2891 H2883 0.930 . S
C2891 C2892 1.355 . S
C2891 C2893 1.415 . S
C2892 C2891 1.355 . S
C2892 C2894 1.419 . S
C2893 C2888 1.425 1_655 S
C2893 C2890 1.409 1_655 S
C2893 C2891 1.415 . S
C2894 H2884 0.930 . S
C2894 C2892 1.419 . S
C2894 C2895 1.362 . S
C2895 H2885 0.930 . S
C2895 C2888 1.409 1_655 S
C2895 C2894 1.362 . S
H2896 C2902 0.930 . S
H2897 C2905 0.930 . S
H2898 C2906 0.930 . S
H2899 C2907 0.930 . S
H2900 C2910 0.930 . S
H2901 C2911 0.930 . S
C2902 H2896 0.930 . S
C2902 C2903 1.355 . S
C2902 C2904 1.415 . S
C2903 C2902 1.355 . S
C2903 C2905 1.419 . S
C2904 C2902 1.415 . S
C2904 C2909 1.425 1_565 S
C2904 C2911 1.409 1_565 S
C2905 H2897 0.930 . S
C2905 C2903 1.419 . S
C2905 C2906 1.362 . S
C2906 H2898 0.930 . S
C2906 C2905 1.362 . S
C2906 C2909 1.409 1_565 S
C2907 H2899 0.930 . S
C2907 C2908 1.355 . S
C2907 C2909 1.415 . S
C2908 C2907 1.355 . S
C2908 C2910 1.419 . S
C2909 C2904 1.425 1_545 S
C2909 C2906 1.409 1_545 S
C2909 C2907 1.415 . S
C2910 H2900 0.930 . S
C2910 C2908 1.419 . S
C2910 C2911 1.362 . S
C2911 H2901 0.930 . S
C2911 C2904 1.409 1_545 S
C2911 C2910 1.362 . S
H2912 C2918 0.930 . S
H2913 C2921 0.930 . S
H2914 C2922 0.930 . S
H2915 C2923 0.930 . S
H2916 C2926 0.930 . S
H2917 C2927 0.930 . S
C2918 H2912 0.930 . S
C2918 C2919 1.355 . S
C2918 C2920 1.415 . S
C2919 C2918 1.355 . S
C2919 C2921 1.419 . S
C2920 C2918 1.415 . S
C2920 C2925 1.425 1_655 S
C2920 C2927 1.409 1_655 S
C2921 H2913 0.930 . S
C2921 C2919 1.419 . S
C2921 C2922 1.362 . S
C2922 H2914 0.930 . S
C2922 C2921 1.362 . S
C2922 C2925 1.409 1_655 S
C2923 H2915 0.930 . S
C2923 C2924 1.355 . S
C2923 C2925 1.415 . S
C2924 C2923 1.355 . S
C2924 C2926 1.419 . S
C2925 C2920 1.425 1_455 S
C2925 C2922 1.409 1_455 S
C2925 C2923 1.415 . S
C2926 H2916 0.930 . S
C2926 C2924 1.419 . S
C2926 C2927 1.362 . S
C2927 H2917 0.930 . S
C2927 C2920 1.409 1_455 S
C2927 C2926 1.362 . S
H2928 C2934 0.930 . S
H2929 C2937 0.930 . S
H2930 C2938 0.930 . S
H2931 C2939 0.930 . S
H2932 C2942 0.930 . S
H2933 C2943 0.930 . S
C2934 H2928 0.930 . S
C2934 C2935 1.355 . S
C2934 C2936 1.415 . S
C2935 C2934 1.355 . S
C2935 C2937 1.419 . S
C2936 C2934 1.415 . S
C2936 C2941 1.425 1_545 S
C2936 C2943 1.409 1_545 S
C2937 H2929 0.930 . S
C2937 C2935 1.419 . S
C2937 C2938 1.362 . S
C2938 H2930 0.930 . S
C2938 C2937 1.362 . S
C2938 C2941 1.409 1_545 S
C2939 H2931 0.930 . S
C2939 C2940 1.355 . S
C2939 C2941 1.415 . S
C2940 C2939 1.355 . S
C2940 C2942 1.419 . S
C2941 C2936 1.425 1_565 S
C2941 C2938 1.409 1_565 S
C2941 C2939 1.415 . S
C2942 H2932 0.930 . S
C2942 C2940 1.419 . S
C2942 C2943 1.362 . S
C2943 H2933 0.930 . S
C2943 C2936 1.409 1_565 S
C2943 C2942 1.362 . S
H2944 C2950 0.930 . S
H2945 C2953 0.930 . S
H2946 C2954 0.930 . S
H2947 C2955 0.930 . S
H2948 C2958 0.930 . S
H2949 C2959 0.930 . S
C2950 H2944 0.930 . S
C2950 C2951 1.355 . S
C2950 C2952 1.415 . S
C2951 C2950 1.355 . S
C2951 C2953 1.419 . S
C2952 C2950 1.415 . S
C2952 C2957 1.425 1_455 S
C2952 C2959 1.409 1_455 S
C2953 H2945 0.930 . S
C2953 C2951 1.419 . S
C2953 C2954 1.362 . S
C2954 H2946 0.930 . S
C2954 C2953 1.362 . S
C2954 C2957 1.409 1_455 S
C2955 H2947 0.930 . S
C2955 C2956 1.355 . S
C2955 C2957 1.415 . S
C2956 C2955 1.355 . S
C2956 C2958 1.419 . S
C2957 C2952 1.425 1_655 S
C2957 C2954 1.409 1_655 S
C2957 C2955 1.415 . S
C2958 H2948 0.930 . S
C2958 C2956 1.419 . S
C2958 C2959 1.362 . S
C2959 H2949 0.930 . S
C2959 C2952 1.409 1_655 S
C2959 C2958 1.362 . S
H2960 C2966 0.930 . S
H2961 C2969 0.930 . S
H2962 C2970 0.930 . S
H2963 C2971 0.930 . S
H2964 C2974 0.930 . S
H2965 C2975 0.930 . S
C2966 H2960 0.930 . S
C2966 C2967 1.355 . S
C2966 C2968 1.415 . S
C2967 C2966 1.355 . S
C2967 C2969 1.419 . S
C2968 C2966 1.415 . S
C2968 C2973 1.425 1_545 S
C2968 C2975 1.409 1_545 S
C2969 H2961 0.930 . S
C2969 C2967 1.419 . S
C2969 C2970 1.362 . S
C2970 H2962 0.930 . S
C2970 C2969 1.362 . S
C2970 C2973 1.409 1_545 S
C2971 H2963 0.930 . S
C2971 C2972 1.355 . S
C2971 C2973 1.415 . S
C2972 C2971 1.355 . S
C2972 C2974 1.419 . S
C2973 C2968 1.425 1_565 S
C2973 C2970 1.409 1_565 S
C2973 C2971 1.415 . S
C2974 H2964 0.930 . S
C2974 C2972 1.419 . S
C2974 C2975 1.362 . S
C2975 H2965 0.930 . S
C2975 C2968 1.409 1_565 S
C2975 C2974 1.362 . S
H2976 C2982 0.930 . S
H2977 C2985 0.930 . S
H2978 C2986 0.930 . S
H2979 C2987 0.930 . S
H2980 C2990 0.930 . S
H2981 C2991 0.930 . S
C2982 H2976 0.930 . S
C2982 C2983 1.355 . S
C2982 C2984 1.415 . S
C2983 C2982 1.355 . S
C2983 C2985 1.419 . S
C2984 C2982 1.415 . S
C2984 C2989 1.425 1_655 S
C2984 C2991 1.409 1_655 S
C2985 H2977 0.930 . S
C2985 C2983 1.419 . S
C2985 C2986 1.362 . S
C2986 H2978 0.930 . S
C2986 C2985 1.362 . S
C2986 C2989 1.409 1_655 S
C2987 H2979 0.930 . S
C2987 C2988 1.355 . S
C2987 C2989 1.415 . S
C2988 C2987 1.355 . S
C2988 C2990 1.419 . S
C2989 C2984 1.425 1_455 S
C2989 C2986 1.409 1_455 S
C2989 C2987 1.415 . S
C2990 H2980 0.930 . S
C2990 C2988 1.419 . S
C2990 C2991 1.362 . S
C2991 H2981 0.930 . S
C2991 C2984 1.409 1_455 S
C2991 C2990 1.362 . S
H2992 C2998 0.930 . S
H2993 C3001 0.930 . S
H2994 C3002 0.930 . S
H2995 C3003 0.930 . S
H2996 C3006 0.930 . S
H2997 C3007 0.930 . S
C2998 H2992 0.930 . S
C2998 C2999 1.355 . S
C2998 C3000 1.415 . S
C2999 C2998 1.355 . S
C2999 C3001 1.419 . S
C3000 C2998 1.415 . S
C3000 C3005 1.425 1_545 S
C3000 C3007 1.409 1_545 S
C3001 H2993 0.930 . S
C3001 C2999 1.419 . S
C3001 C3002 1.362 . S
C3002 H2994 0.930 . S
C3002 C3001 1.362 . S
C3002 C3005 1.409 1_545 S
C3003 H2995 0.930 . S
C3003 C3004 1.355 . S
C3003 C3005 1.415 . S
C3004 C3003 1.355 . S
C3004 C3006 1.419 . S
C3005 C3000 1.425 1_565 S
C3005 C3002 1.409 1_565 S
C3005 C3003 1.415 . S
C3006 H2996 0.930 . S
C3006 C3004 1.419 . S
C3006 C3007 1.362 . S
C3007 H2997 0.930 . S
C3007 C3000 1.409 1_565 S
C3007 C3006 1.362 . S
H3008 C3014 0.930 . S
H3009 C3017 0.930 . S
H3010 C3018 0.930 . S
H3011 C3019 0.930 . S
H3012 C3022 0.930 . S
H3013 C3023 0.930 . S
C3014 H3008 0.930 . S
C3014 C3015 1.355 . S
C3014 C3016 1.415 . S
C3015 C3014 1.355 . S
C3015 C3017 1.419 . S
C3016 C3014 1.415 . S
C3016 C3021 1.425 1_565 S
C3016 C3023 1.409 1_565 S
C3017 H3009 0.930 . S
C3017 C3015 1.419 . S
C3017 C3018 1.362 . S
C3018 H3010 0.930 . S
C3018 C3017 1.362 . S
C3018 C3021 1.409 1_565 S
C3019 H3011 0.930 . S
C3019 C3020 1.355 . S
C3019 C3021 1.415 . S
C3020 C3019 1.355 . S
C3020 C3022 1.419 . S
C3021 C3016 1.425 1_545 S
C3021 C3018 1.409 1_545 S
C3021 C3019 1.415 . S
C3022 H3012 0.930 . S
C3022 C3020 1.419 . S
C3022 C3023 1.362 . S
C3023 H3013 0.930 . S
C3023 C3016 1.409 1_545 S
C3023 C3022 1.362 . S
H3024 C3030 0.930 . S
H3025 C3033 0.930 . S
H3026 C3034 0.930 . S
H3027 C3035 0.930 . S
H3028 C3038 0.930 . S
H3029 C3039 0.930 . S
C3030 H3024 0.930 . S
C3030 C3031 1.355 . S
C3030 C3032 1.415 . S
C3031 C3030 1.355 . S
C3031 C3033 1.419 . S
C3032 C3030 1.415 . S
C3032 C3037 1.425 1_655 S
C3032 C3039 1.409 1_655 S
C3033 H3025 0.930 . S
C3033 C3031 1.419 . S
C3033 C3034 1.362 . S
C3034 H3026 0.930 . S
C3034 C3033 1.362 . S
C3034 C3037 1.409 1_655 S
C3035 H3027 0.930 . S
C3035 C3036 1.355 . S
C3035 C3037 1.415 . S
C3036 C3035 1.355 . S
C3036 C3038 1.419 . S
C3037 C3032 1.425 1_455 S
C3037 C3034 1.409 1_455 S
C3037 C3035 1.415 . S
C3038 H3028 0.930 . S
C3038 C3036 1.419 . S
C3038 C3039 1.362 . S
C3039 H3029 0.930 . S
C3039 C3032 1.409 1_455 S
C3039 C3038 1.362 . S
H3040 C3046 0.930 . S
H3041 C3049 0.930 . S
H3042 C3050 0.930 . S
H3043 C3051 0.930 . S
H3044 C3054 0.930 . S
H3045 C3055 0.930 . S
C3046 H3040 0.930 . S
C3046 C3047 1.355 . S
C3046 C3048 1.415 . S
C3047 C3046 1.355 . S
C3047 C3049 1.419 . S
C3048 C3046 1.415 . S
C3048 C3053 1.425 1_565 S
C3048 C3055 1.409 1_565 S
C3049 H3041 0.930 . S
C3049 C3047 1.419 . S
C3049 C3050 1.362 . S
C3050 H3042 0.930 . S
C3050 C3049 1.362 . S
C3050 C3053 1.409 1_565 S
C3051 H3043 0.930 . S
C3051 C3052 1.355 . S
C3051 C3053 1.415 . S
C3052 C3051 1.355 . S
C3052 C3054 1.419 . S
C3053 C3048 1.425 1_545 S
C3053 C3050 1.409 1_545 S
C3053 C3051 1.415 . S
C3054 H3044 0.930 . S
C3054 C3052 1.419 . S
C3054 C3055 1.362 . S
C3055 H3045 0.930 . S
C3055 C3048 1.409 1_545 S
C3055 C3054 1.362 . S
H3056 C3062 0.930 . S
H3057 C3065 0.930 . S
H3058 C3066 0.930 . S
H3059 C3067 0.930 . S
H3060 C3070 0.930 . S
H3061 C3071 0.930 . S
C3062 H3056 0.930 . S
C3062 C3063 1.355 . S
C3062 C3064 1.415 . S
C3063 C3062 1.355 . S
C3063 C3065 1.419 . S
C3064 C3062 1.415 . S
C3064 C3069 1.425 1_455 S
C3064 C3071 1.409 1_455 S
C3065 H3057 0.930 . S
C3065 C3063 1.419 . S
C3065 C3066 1.362 . S
C3066 H3058 0.930 . S
C3066 C3065 1.362 . S
C3066 C3069 1.409 1_455 S
C3067 H3059 0.930 . S
C3067 C3068 1.355 . S
C3067 C3069 1.415 . S
C3068 C3067 1.355 . S
C3068 C3070 1.419 . S
C3069 C3064 1.425 1_655 S
C3069 C3066 1.409 1_655 S
C3069 C3067 1.415 . S
C3070 H3060 0.930 . S
C3070 C3068 1.419 . S
C3070 C3071 1.362 . S
C3071 H3061 0.930 . S
C3071 C3064 1.409 1_655 S
C3071 C3070 1.362 . S
H3072 C3078 0.930 . S
H3073 C3081 0.930 . S
H3074 C3082 0.930 . S
H3075 C3083 0.930 . S
H3076 C3086 0.930 . S
H3077 C3087 0.930 . S
C3078 H3072 0.930 . S
C3078 C3079 1.355 . S
C3078 C3080 1.415 . S
C3079 C3078 1.355 . S
C3079 C3081 1.419 . S
C3080 C3078 1.415 . S
C3080 C3085 1.425 1_565 S
C3080 C3087 1.409 1_565 S
C3081 H3073 0.930 . S
C3081 C3079 1.419 . S
C3081 C3082 1.362 . S
C3082 H3074 0.930 . S
C3082 C3081 1.362 . S
C3082 C3085 1.409 1_565 S
C3083 H3075 0.930 . S
C3083 C3084 1.355 . S
C3083 C3085 1.415 . S
C3084 C3083 1.355 . S
C3084 C3086 1.419 . S
C3085 C3080 1.425 1_545 S
C3085 C3082 1.409 1_545 S
C3085 C3083 1.415 . S
C3086 H3076 0.930 . S
C3086 C3084 1.419 . S
C3086 C3087 1.362 . S
C3087 H3077 0.930 . S
C3087 C3080 1.409 1_545 S
C3087 C3086 1.362 . S
H3088 C3094 0.930 . S
H3089 C3097 0.930 . S
H3090 C3098 0.930 . S
H3091 C3099 0.930 . S
H3092 C3102 0.930 . S
H3093 C3103 0.930 . S
C3094 H3088 0.930 . S
C3094 C3095 1.355 . S
C3094 C3096 1.415 . S
C3095 C3094 1.355 . S
C3095 C3097 1.419 . S
C3096 C3094 1.415 . S
C3096 C3101 1.425 1_455 S
C3096 C3103 1.409 1_455 S
C3097 H3089 0.930 . S
C3097 C3095 1.419 . S
C3097 C3098 1.362 . S
C3098 H3090 0.930 . S
C3098 C3097 1.362 . S
C3098 C3101 1.409 1_455 S
C3099 H3091 0.930 . S
C3099 C3100 1.355 . S
C3099 C3101 1.415 . S
C3100 C3099 1.355 . S
C3100 C3102 1.419 . S
C3101 C3096 1.425 1_655 S
C3101 C3098 1.409 1_655 S
C3101 C3099 1.415 . S
C3102 H3092 0.930 . S
C3102 C3100 1.419 . S
C3102 C3103 1.362 . S
C3103 H3093 0.930 . S
C3103 C3096 1.409 1_655 S
C3103 C3102 1.362 . S
H3104 C3110 0.930 . S
H3105 C3113 0.930 . S
H3106 C3114 0.930 . S
H3107 C3115 0.930 . S
H3108 C3118 0.930 . S
H3109 C3119 0.930 . S
C3110 H3104 0.930 . S
C3110 C3111 1.355 . S
C3110 C3112 1.415 . S
C3111 C3110 1.355 . S
C3111 C3113 1.419 . S
C3112 C3110 1.415 . S
C3112 C3117 1.425 1_545 S
C3112 C3119 1.409 1_545 S
C3113 H3105 0.930 . S
C3113 C3111 1.419 . S
C3113 C3114 1.362 . S
C3114 H3106 0.930 . S
C3114 C3113 1.362 . S
C3114 C3117 1.409 1_545 S
C3115 H3107 0.930 . S
C3115 C3116 1.355 . S
C3115 C3117 1.415 . S
C3116 C3115 1.355 . S
C3116 C3118 1.419 . S
C3117 C3112 1.425 1_565 S
C3117 C3114 1.409 1_565 S
C3117 C3115 1.415 . S
C3118 H3108 0.930 . S
C3118 C3116 1.419 . S
C3118 C3119 1.362 . S
C3119 H3109 0.930 . S
C3119 C3112 1.409 1_565 S
C3119 C3118 1.362 . S
H3120 C3126 0.930 . S
H3121 C3129 0.930 . S
H3122 C3130 0.930 . S
H3123 C3131 0.930 . S
H3124 C3134 0.930 . S
H3125 C3135 0.930 . S
C3126 H3120 0.930 . S
C3126 C3127 1.355 . S
C3126 C3128 1.415 . S
C3127 C3126 1.355 . S
C3127 C3129 1.419 . S
C3128 C3126 1.415 . S
C3128 C3133 1.425 1_655 S
C3128 C3135 1.409 1_655 S
C3129 H3121 0.930 . S
C3129 C3127 1.419 . S
C3129 C3130 1.362 . S
C3130 H3122 0.930 . S
C3130 C3129 1.362 . S
C3130 C3133 1.409 1_655 S
C3131 H3123 0.930 . S
C3131 C3132 1.355 . S
C3131 C3133 1.415 . S
C3132 C3131 1.355 . S
C3132 C3134 1.419 . S
C3133 C3128 1.425 1_455 S
C3133 C3130 1.409 1_455 S
C3133 C3131 1.415 . S
C3134 H3124 0.930 . S
C3134 C3132 1.419 . S
C3134 C3135 1.362 . S
C3135 H3125 0.930 . S
C3135 C3128 1.409 1_455 S
C3135 C3134 1.362 . S
H3136 C3142 0.930 . S
H3137 C3145 0.930 . S
H3138 C3146 0.930 . S
H3139 C3147 0.930 . S
H3140 C3150 0.930 . S
H3141 C3151 0.930 . S
C3142 H3136 0.930 . S
C3142 C3143 1.355 . S
C3142 C3144 1.415 . S
C3143 C3142 1.355 . S
C3143 C3145 1.419 . S
C3144 C3142 1.415 . S
C3144 C3149 1.425 1_554 S
C3144 C3151 1.409 1_554 S
C3145 H3137 0.930 . S
C3145 C3143 1.419 . S
C3145 C3146 1.362 . S
C3146 H3138 0.930 . S
C3146 C3145 1.362 . S
C3146 C3149 1.409 1_554 S
C3147 H3139 0.930 . S
C3147 C3148 1.355 . S
C3147 C3149 1.415 . S
C3148 C3147 1.355 . S
C3148 C3150 1.419 . S
C3149 C3144 1.425 1_556 S
C3149 C3146 1.409 1_556 S
C3149 C3147 1.415 . S
C3150 H3140 0.930 . S
C3150 C3148 1.419 . S
C3150 C3151 1.362 . S
C3151 H3141 0.930 . S
C3151 C3144 1.409 1_556 S
C3151 C3150 1.362 . S
H3152 C3158 0.930 . S
H3153 C3161 0.930 . S
H3154 C3162 0.930 . S
H3155 C3163 0.930 . S
H3156 C3166 0.930 . S
H3157 C3167 0.930 . S
C3158 H3152 0.930 . S
C3158 C3159 1.355 . S
C3158 C3160 1.415 . S
C3159 C3158 1.355 . S
C3159 C3161 1.419 . S
C3160 C3158 1.415 . S
C3160 C3165 1.425 1_556 S
C3160 C3167 1.409 1_556 S
C3161 H3153 0.930 . S
C3161 C3159 1.419 . S
C3161 C3162 1.362 . S
C3162 H3154 0.930 . S
C3162 C3161 1.362 . S
C3162 C3165 1.409 1_556 S
C3163 H3155 0.930 . S
C3163 C3164 1.355 . S
C3163 C3165 1.415 . S
C3164 C3163 1.355 . S
C3164 C3166 1.419 . S
C3165 C3160 1.425 1_554 S
C3165 C3162 1.409 1_554 S
C3165 C3163 1.415 . S
C3166 H3156 0.930 . S
C3166 C3164 1.419 . S
C3166 C3167 1.362 . S
C3167 H3157 0.930 . S
C3167 C3160 1.409 1_554 S
C3167 C3166 1.362 . S
H3168 C3174 0.930 . S
H3169 C3177 0.930 . S
H3170 C3178 0.930 . S
H3171 C3179 0.930 . S
H3172 C3182 0.930 . S
H3173 C3183 0.930 . S
C3174 H3168 0.930 . S
C3174 C3175 1.355 . S
C3174 C3176 1.415 . S
C3175 C3174 1.355 . S
C3175 C3177 1.419 . S
C3176 C3174 1.415 . S
C3176 C3181 1.425 1_554 S
C3176 C3183 1.409 1_554 S
C3177 H3169 0.930 . S
C3177 C3175 1.419 . S
C3177 C3178 1.362 . S
C3178 H3170 0.930 . S
C3178 C3177 1.362 . S
C3178 C3181 1.409 1_554 S
C3179 H3171 0.930 . S
C3179 C3180 1.355 . S
C3179 C3181 1.415 . S
C3180 C3179 1.355 . S
C3180 C3182 1.419 . S
C3181 C3176 1.425 1_556 S
C3181 C3178 1.409 1_556 S
C3181 C3179 1.415 . S
C3182 H3172 0.930 . S
C3182 C3180 1.419 . S
C3182 C3183 1.362 . S
C3183 H3173 0.930 . S
C3183 C3176 1.409 1_556 S
C3183 C3182 1.362 . S
H3184 C3190 0.930 . S
H3185 C3193 0.930 . S
H3186 C3194 0.930 . S
H3187 C3195 0.930 . S
H3188 C3198 0.930 . S
H3189 C3199 0.930 . S
C3190 H3184 0.930 . S
C3190 C3191 1.355 . S
C3190 C3192 1.415 . S
C3191 C3190 1.355 . S
C3191 C3193 1.419 . S
C3192 C3190 1.415 . S
C3192 C3197 1.425 1_556 S
C3192 C3199 1.409 1_556 S
C3193 H3185 0.930 . S
C3193 C3191 1.419 . S
C3193 C3194 1.362 . S
C3194 H3186 0.930 . S
C3194 C3193 1.362 . S
C3194 C3197 1.409 1_556 S
C3195 H3187 0.930 . S
C3195 C3196 1.355 . S
C3195 C3197 1.415 . S
C3196 C3195 1.355 . S
C3196 C3198 1.419 . S
C3197 C3192 1.425 1_554 S
C3197 C3194 1.409 1_554 S
C3197 C3195 1.415 . S
C3198 H3188 0.930 . S
C3198 C3196 1.419 . S
C3198 C3199 1.362 . S
C3199 H3189 0.930 . S
C3199 C3192 1.409 1_554 S
C3199 C3198 1.362 . S
H3200 C3206 0.930 . S
H3201 C3209 0.930 . S
H3202 C3210 0.930 . S
H3203 C3211 0.930 . S
H3204 C3214 0.930 . S
H3205 C3215 0.930 . S
C3206 H3200 0.930 . S
C3206 C3207 1.355 . S
C3206 C3208 1.415 . S
C3207 C3206 1.355 . S
C3207 C3209 1.419 . S
C3208 C3206 1.415 . S
C3208 C3213 1.425 1_554 S
C3208 C3215 1.409 1_554 S
C3209 H3201 0.930 . S
C3209 C3207 1.419 . S
C3209 C3210 1.362 . S
C3210 H3202 0.930 . S
C3210 C3209 1.362 . S
C3210 C3213 1.409 1_554 S
C3211 H3203 0.930 . S
C3211 C3212 1.355 . S
C3211 C3213 1.415 . S
C3212 C3211 1.355 . S
C3212 C3214 1.419 . S
C3213 C3208 1.425 1_556 S
C3213 C3210 1.409 1_556 S
C3213 C3211 1.415 . S
C3214 H3204 0.930 . S
C3214 C3212 1.419 . S
C3214 C3215 1.362 . S
C3215 H3205 0.930 . S
C3215 C3208 1.409 1_556 S
C3215 C3214 1.362 . S
H3216 C3222 0.930 . S
H3217 C3225 0.930 . S
H3218 C3226 0.930 . S
H3219 C3227 0.930 . S
H3220 C3230 0.930 . S
H3221 C3231 0.930 . S
C3222 H3216 0.930 . S
C3222 C3223 1.355 . S
C3222 C3224 1.415 . S
C3223 C3222 1.355 . S
C3223 C3225 1.419 . S
C3224 C3222 1.415 . S
C3224 C3229 1.425 1_554 S
C3224 C3231 1.409 1_554 S
C3225 H3217 0.930 . S
C3225 C3223 1.419 . S
C3225 C3226 1.362 . S
C3226 H3218 0.930 . S
C3226 C3225 1.362 . S
C3226 C3229 1.409 1_554 S
C3227 H3219 0.930 . S
C3227 C3228 1.355 . S
C3227 C3229 1.415 . S
C3228 C3227 1.355 . S
C3228 C3230 1.419 . S
C3229 C3224 1.425 1_556 S
C3229 C3226 1.409 1_556 S
C3229 C3227 1.415 . S
C3230 H3220 0.930 . S
C3230 C3228 1.419 . S
C3230 C3231 1.362 . S
C3231 H3221 0.930 . S
C3231 C3224 1.409 1_556 S
C3231 C3230 1.362 . S
H3232 C3238 0.930 . S
H3233 C3241 0.930 . S
H3234 C3242 0.930 . S
H3235 C3243 0.930 . S
H3236 C3246 0.930 . S
H3237 C3247 0.930 . S
C3238 H3232 0.930 . S
C3238 C3239 1.355 . S
C3238 C3240 1.415 . S
C3239 C3238 1.355 . S
C3239 C3241 1.419 . S
C3240 C3238 1.415 . S
C3240 C3245 1.425 1_554 S
C3240 C3247 1.409 1_554 S
C3241 H3233 0.930 . S
C3241 C3239 1.419 . S
C3241 C3242 1.362 . S
C3242 H3234 0.930 . S
C3242 C3241 1.362 . S
C3242 C3245 1.409 1_554 S
C3243 H3235 0.930 . S
C3243 C3244 1.355 . S
C3243 C3245 1.415 . S
C3244 C3243 1.355 . S
C3244 C3246 1.419 . S
C3245 C3240 1.425 1_556 S
C3245 C3242 1.409 1_556 S
C3245 C3243 1.415 . S
C3246 H3236 0.930 . S
C3246 C3244 1.419 . S
C3246 C3247 1.362 . S
C3247 H3237 0.930 . S
C3247 C3240 1.409 1_556 S
C3247 C3246 1.362 . S
H3248 C3254 0.930 . S
H3249 C3257 0.930 . S
H3250 C3258 0.930 . S
H3251 C3259 0.930 . S
H3252 C3262 0.930 . S
H3253 C3263 0.930 . S
C3254 H3248 0.930 . S
C3254 C3255 1.355 . S
C3254 C3256 1.415 . S
C3255 C3254 1.355 . S
C3255 C3257 1.419 . S
C3256 C3254 1.415 . S
C3256 C3261 1.425 1_556 S
C3256 C3263 1.409 1_556 S
C3257 H3249 0.930 . S
C3257 C3255 1.419 . S
C3257 C3258 1.362 . S
C3258 H3250 0.930 . S
C3258 C3257 1.362 . S
C3258 C3261 1.409 1_556 S
C3259 H3251 0.930 . S
C3259 C3260 1.355 . S
C3259 C3261 1.415 . S
C3260 C3259 1.355 . S
C3260 C3262 1.419 . S
C3261 C3256 1.425 1_554 S
C3261 C3258 1.409 1_554 S
C3261 C3259 1.415 . S
C3262 H3252 0.930 . S
C3262 C3260 1.419 . S
C3262 C3263 1.362 . S
C3263 H3253 0.930 . S
C3263 C3256 1.409 1_554 S
C3263 C3262 1.362 . S
H3264 C3270 0.930 . S
H3265 C3273 0.930 . S
H3266 C3274 0.930 . S
H3267 C3275 0.930 . S
H3268 C3278 0.930 . S
H3269 C3279 0.930 . S
C3270 H3264 0.930 . S
C3270 C3271 1.355 . S
C3270 C3272 1.415 . S
C3271 C3270 1.355 . S
C3271 C3273 1.419 . S
C3272 C3270 1.415 . S
C3272 C3277 1.425 . S
C3272 C3279 1.409 . S
C3273 H3265 0.930 . S
C3273 C3271 1.419 . S
C3273 C3274 1.362 . S
C3274 H3266 0.930 . S
C3274 C3273 1.362 . S
C3274 C3277 1.409 . S
C3275 H3267 0.930 . S
C3275 C3276 1.355 . S
C3275 C3277 1.415 . S
C3276 C3275 1.355 . S
C3276 C3278 1.419 . S
C3277 C3272 1.425 . S
C3277 C3274 1.409 . S
C3277 C3275 1.415 . S
C3278 H3268 0.930 . S
C3278 C3276 1.419 . S
C3278 C3279 1.362 . S
C3279 H3269 0.930 . S
C3279 C3272 1.409 . S
C3279 C3278 1.362 . S
H3280 C3286 0.930 . S
H3281 C3289 0.930 . S
H3282 C3290 0.930 . S
H3283 C3291 0.930 . S
H3284 C3294 0.930 . S
H3285 C3295 0.930 . S
C3286 H3280 0.930 . S
C3286 C3287 1.355 . S
C3286 C3288 1.415 . S
C3287 C3286 1.355 . S
C3287 C3289 1.419 . S
C3288 C3286 1.415 . S
C3288 C3293 1.425 . S
C3288 C3295 1.409 . S
C3289 H3281 0.930 . S
C3289 C3287 1.419 . S
C3289 C3290 1.362 . S
C3290 H3282 0.930 . S
C3290 C3289 1.362 . S
C3290 C3293 1.409 . S
C3291 H3283 0.930 . S
C3291 C3292 1.355 . S
C3291 C3293 1.415 . S
C3292 C3291 1.355 . S
C3292 C3294 1.419 . S
C3293 C3288 1.425 . S
C3293 C3290 1.409 . S
C3293 C3291 1.415 . S
C3294 H3284 0.930 . S
C3294 C3292 1.419 . S
C3294 C3295 1.362 . S
C3295 H3285 0.930 . S
C3295 C3288 1.409 . S
C3295 C3294 1.362 . S
H3296 C3302 0.930 . S
H3297 C3305 0.930 . S
H3298 C3306 0.930 . S
H3299 C3307 0.930 . S
H3300 C3310 0.930 . S
H3301 C3311 0.930 . S
C3302 H3296 0.930 . S
C3302 C3303 1.355 . S
C3302 C3304 1.415 . S
C3303 C3302 1.355 . S
C3303 C3305 1.419 . S
C3304 C3302 1.415 . S
C3304 C3309 1.425 . S
C3304 C3311 1.409 . S
C3305 H3297 0.930 . S
C3305 C3303 1.419 . S
C3305 C3306 1.362 . S
C3306 H3298 0.930 . S
C3306 C3305 1.362 . S
C3306 C3309 1.409 . S
C3307 H3299 0.930 . S
C3307 C3308 1.355 . S
C3307 C3309 1.415 . S
C3308 C3307 1.355 . S
C3308 C3310 1.419 . S
C3309 C3304 1.425 . S
C3309 C3306 1.409 . S
C3309 C3307 1.415 . S
C3310 H3300 0.930 . S
C3310 C3308 1.419 . S
C3310 C3311 1.362 . S
C3311 H3301 0.930 . S
C3311 C3304 1.409 . S
C3311 C3310 1.362 . S
H3312 C3318 0.930 . S
H3313 C3321 0.930 . S
H3314 C3322 0.930 . S
H3315 C3323 0.930 . S
H3316 C3326 0.930 . S
H3317 C3327 0.930 . S
C3318 H3312 0.930 . S
C3318 C3319 1.355 . S
C3318 C3320 1.415 . S
C3319 C3318 1.355 . S
C3319 C3321 1.419 . S
C3320 C3318 1.415 . S
C3320 C3325 1.425 . S
C3320 C3327 1.409 . S
C3321 H3313 0.930 . S
C3321 C3319 1.419 . S
C3321 C3322 1.362 . S
C3322 H3314 0.930 . S
C3322 C3321 1.362 . S
C3322 C3325 1.409 . S
C3323 H3315 0.930 . S
C3323 C3324 1.355 . S
C3323 C3325 1.415 . S
C3324 C3323 1.355 . S
C3324 C3326 1.419 . S
C3325 C3320 1.425 . S
C3325 C3322 1.409 . S
C3325 C3323 1.415 . S
C3326 H3316 0.930 . S
C3326 C3324 1.419 . S
C3326 C3327 1.362 . S
C3327 H3317 0.930 . S
C3327 C3320 1.409 . S
C3327 C3326 1.362 . S
H3328 C3334 0.930 . S
H3329 C3337 0.930 . S
H3330 C3338 0.930 . S
H3331 C3339 0.930 . S
H3332 C3342 0.930 . S
H3333 C3343 0.930 . S
C3334 H3328 0.930 . S
C3334 C3335 1.355 . S
C3334 C3336 1.415 . S
C3335 C3334 1.355 . S
C3335 C3337 1.419 . S
C3336 C3334 1.415 . S
C3336 C3341 1.425 . S
C3336 C3343 1.409 . S
C3337 H3329 0.930 . S
C3337 C3335 1.419 . S
C3337 C3338 1.362 . S
C3338 H3330 0.930 . S
C3338 C3337 1.362 . S
C3338 C3341 1.409 . S
C3339 H3331 0.930 . S
C3339 C3340 1.355 . S
C3339 C3341 1.415 . S
C3340 C3339 1.355 . S
C3340 C3342 1.419 . S
C3341 C3336 1.425 . S
C3341 C3338 1.409 . S
C3341 C3339 1.415 . S
C3342 H3332 0.930 . S
C3342 C3340 1.419 . S
C3342 C3343 1.362 . S
C3343 H3333 0.930 . S
C3343 C3336 1.409 . S
C3343 C3342 1.362 . S
H3344 C3350 0.930 . S
H3345 C3353 0.930 . S
H3346 C3354 0.930 . S
H3347 C3355 0.930 . S
H3348 C3358 0.930 . S
H3349 C3359 0.930 . S
C3350 H3344 0.930 . S
C3350 C3351 1.355 . S
C3350 C3352 1.415 . S
C3351 C3350 1.355 . S
C3351 C3353 1.419 . S
C3352 C3350 1.415 . S
C3352 C3357 1.425 . S
C3352 C3359 1.409 . S
C3353 H3345 0.930 . S
C3353 C3351 1.419 . S
C3353 C3354 1.362 . S
C3354 H3346 0.930 . S
C3354 C3353 1.362 . S
C3354 C3357 1.409 . S
C3355 H3347 0.930 . S
C3355 C3356 1.355 . S
C3355 C3357 1.415 . S
C3356 C3355 1.355 . S
C3356 C3358 1.419 . S
C3357 C3352 1.425 . S
C3357 C3354 1.409 . S
C3357 C3355 1.415 . S
C3358 H3348 0.930 . S
C3358 C3356 1.419 . S
C3358 C3359 1.362 . S
C3359 H3349 0.930 . S
C3359 C3352 1.409 . S
C3359 C3358 1.362 . S
H3360 C3366 0.930 . S
H3361 C3369 0.930 . S
H3362 C3370 0.930 . S
H3363 C3371 0.930 . S
H3364 C3374 0.930 . S
H3365 C3375 0.930 . S
C3366 H3360 0.930 . S
C3366 C3367 1.355 . S
C3366 C3368 1.415 . S
C3367 C3366 1.355 . S
C3367 C3369 1.419 . S
C3368 C3366 1.415 . S
C3368 C3373 1.425 . S
C3368 C3375 1.409 . S
C3369 H3361 0.930 . S
C3369 C3367 1.419 . S
C3369 C3370 1.362 . S
C3370 H3362 0.930 . S
C3370 C3369 1.362 . S
C3370 C3373 1.409 . S
C3371 H3363 0.930 . S
C3371 C3372 1.355 . S
C3371 C3373 1.415 . S
C3372 C3371 1.355 . S
C3372 C3374 1.419 . S
C3373 C3368 1.425 . S
C3373 C3370 1.409 . S
C3373 C3371 1.415 . S
C3374 H3364 0.930 . S
C3374 C3372 1.419 . S
C3374 C3375 1.362 . S
C3375 H3365 0.930 . S
C3375 C3368 1.409 . S
C3375 C3374 1.362 . S
H3376 C3382 0.930 . S
H3377 C3385 0.930 . S
H3378 C3386 0.930 . S
H3379 C3387 0.930 . S
H3380 C3390 0.930 . S
H3381 C3391 0.930 . S
C3382 H3376 0.930 . S
C3382 C3383 1.355 . S
C3382 C3384 1.415 . S
C3383 C3382 1.355 . S
C3383 C3385 1.419 . S
C3384 C3382 1.415 . S
C3384 C3389 1.425 . S
C3384 C3391 1.409 . S
C3385 H3377 0.930 . S
C3385 C3383 1.419 . S
C3385 C3386 1.362 . S
C3386 H3378 0.930 . S
C3386 C3385 1.362 . S
C3386 C3389 1.409 . S
C3387 H3379 0.930 . S
C3387 C3388 1.355 . S
C3387 C3389 1.415 . S
C3388 C3387 1.355 . S
C3388 C3390 1.419 . S
C3389 C3384 1.425 . S
C3389 C3386 1.409 . S
C3389 C3387 1.415 . S
C3390 H3380 0.930 . S
C3390 C3388 1.419 . S
C3390 C3391 1.362 . S
C3391 H3381 0.930 . S
C3391 C3384 1.409 . S
C3391 C3390 1.362 . S
H3392 C3398 0.930 . S
H3393 C3401 0.930 . S
H3394 C3402 0.930 . S
H3395 C3403 0.930 . S
H3396 C3406 0.930 . S
H3397 C3407 0.930 . S
C3398 H3392 0.930 . S
C3398 C3399 1.355 . S
C3398 C3400 1.415 . S
C3399 C3398 1.355 . S
C3399 C3401 1.419 . S
C3400 C3398 1.415 . S
C3400 C3405 1.425 . S
C3400 C3407 1.409 . S
C3401 H3393 0.930 . S
C3401 C3399 1.419 . S
C3401 C3402 1.362 . S
C3402 H3394 0.930 . S
C3402 C3401 1.362 . S
C3402 C3405 1.409 . S
C3403 H3395 0.930 . S
C3403 C3404 1.355 . S
C3403 C3405 1.415 . S
C3404 C3403 1.355 . S
C3404 C3406 1.419 . S
C3405 C3400 1.425 . S
C3405 C3402 1.409 . S
C3405 C3403 1.415 . S
C3406 H3396 0.930 . S
C3406 C3404 1.419 . S
C3406 C3407 1.362 . S
C3407 H3397 0.930 . S
C3407 C3400 1.409 . S
C3407 C3406 1.362 . S
H3408 C3414 0.930 . S
H3409 C3417 0.930 . S
H3410 C3418 0.930 . S
H3411 C3419 0.930 . S
H3412 C3422 0.930 . S
H3413 C3423 0.930 . S
C3414 H3408 0.930 . S
C3414 C3415 1.355 . S
C3414 C3416 1.415 . S
C3415 C3414 1.355 . S
C3415 C3417 1.419 . S
C3416 C3414 1.415 . S
C3416 C3421 1.425 . S
C3416 C3423 1.409 . S
C3417 H3409 0.930 . S
C3417 C3415 1.419 . S
C3417 C3418 1.362 . S
C3418 H3410 0.930 . S
C3418 C3417 1.362 . S
C3418 C3421 1.409 . S
C3419 H3411 0.930 . S
C3419 C3420 1.355 . S
C3419 C3421 1.415 . S
C3420 C3419 1.355 . S
C3420 C3422 1.419 . S
C3421 C3416 1.425 . S
C3421 C3418 1.409 . S
C3421 C3419 1.415 . S
C3422 H3412 0.930 . S
C3422 C3420 1.419 . S
C3422 C3423 1.362 . S
C3423 H3413 0.930 . S
C3423 C3416 1.409 . S
C3423 C3422 1.362 . S
H3424 C3430 0.930 . S
H3425 C3433 0.930 . S
H3426 C3434 0.930 . S
H3427 C3435 0.930 . S
H3428 C3438 0.930 . S
H3429 C3439 0.930 . S
C3430 H3424 0.930 . S
C3430 C3431 1.355 . S
C3430 C3432 1.415 . S
C3431 C3430 1.355 . S
C3431 C3433 1.419 . S
C3432 C3430 1.415 . S
C3432 C3437 1.425 . S
C3432 C3439 1.409 . S
C3433 H3425 0.930 . S
C3433 C3431 1.419 . S
C3433 C3434 1.362 . S
C3434 H3426 0.930 . S
C3434 C3433 1.362 . S
C3434 C3437 1.409 . S
C3435 H3427 0.930 . S
C3435 C3436 1.355 . S
C3435 C3437 1.415 . S
C3436 C3435 1.355 . S
C3436 C3438 1.419 . S
C3437 C3432 1.425 . S
C3437 C3434 1.409 . S
C3437 C3435 1.415 . S
C3438 H3428 0.930 . S
C3438 C3436 1.419 . S
C3438 C3439 1.362 . S
C3439 H3429 0.930 . S
C3439 C3432 1.409 . S
C3439 C3438 1.362 . S
H3440 C3446 0.930 . S
H3441 C3449 0.930 . S
H3442 C3450 0.930 . S
H3443 C3451 0.930 . S
H3444 C3454 0.930 . S
H3445 C3455 0.930 . S
C3446 H3440 0.930 . S
C3446 C3447 1.355 . S
C3446 C3448 1.415 . S
C3447 C3446 1.355 . S
C3447 C3449 1.419 . S
C3448 C3446 1.415 . S
C3448 C3453 1.425 . S
C3448 C3455 1.409 . S
C3449 H3441 0.930 . S
C3449 C3447 1.419 . S
C3449 C3450 1.362 . S
C3450 H3442 0.930 . S
C3450 C3449 1.362 . S
C3450 C3453 1.409 . S
C3451 H3443 0.930 . S
C3451 C3452 1.355 . S
C3451 C3453 1.415 . S
C3452 C3451 1.355 . S
C3452 C3454 1.419 . S
C3453 C3448 1.425 . S
C3453 C3450 1.409 . S
C3453 C3451 1.415 . S
C3454 H3444 0.930 . S
C3454 C3452 1.419 . S
C3454 C3455 1.362 . S
C3455 H3445 0.930 . S
C3455 C3448 1.409 . S
C3455 C3454 1.362 . S
H3456 C3462 0.930 . S
H3457 C3465 0.930 . S
H3458 C3466 0.930 . S
H3459 C3467 0.930 . S
H3460 C3470 0.930 . S
H3461 C3471 0.930 . S
C3462 H3456 0.930 . S
C3462 C3463 1.355 . S
C3462 C3464 1.415 . S
C3463 C3462 1.355 . S
C3463 C3465 1.419 . S
C3464 C3462 1.415 . S
C3464 C3469 1.425 . S
C3464 C3471 1.409 . S
C3465 H3457 0.930 . S
C3465 C3463 1.419 . S
C3465 C3466 1.362 . S
C3466 H3458 0.930 . S
C3466 C3465 1.362 . S
C3466 C3469 1.409 . S
C3467 H3459 0.930 . S
C3467 C3468 1.355 . S
C3467 C3469 1.415 . S
C3468 C3467 1.355 . S
C3468 C3470 1.419 . S
C3469 C3464 1.425 . S
C3469 C3466 1.409 . S
C3469 C3467 1.415 . S
C3470 H3460 0.930 . S
C3470 C3468 1.419 . S
C3470 C3471 1.362 . S
C3471 H3461 0.930 . S
C3471 C3464 1.409 . S
C3471 C3470 1.362 . S
H3472 C3478 0.930 . S
H3473 C3481 0.930 . S
H3474 C3482 0.930 . S
H3475 C3483 0.930 . S
H3476 C3486 0.930 . S
H3477 C3487 0.930 . S
C3478 H3472 0.930 . S
C3478 C3479 1.355 . S
C3478 C3480 1.415 . S
C3479 C3478 1.355 . S
C3479 C3481 1.419 . S
C3480 C3478 1.415 . S
C3480 C3485 1.425 . S
C3480 C3487 1.409 . S
C3481 H3473 0.930 . S
C3481 C3479 1.419 . S
C3481 C3482 1.362 . S
C3482 H3474 0.930 . S
C3482 C3481 1.362 . S
C3482 C3485 1.409 . S
C3483 H3475 0.930 . S
C3483 C3484 1.355 . S
C3483 C3485 1.415 . S
C3484 C3483 1.355 . S
C3484 C3486 1.419 . S
C3485 C3480 1.425 . S
C3485 C3482 1.409 . S
C3485 C3483 1.415 . S
C3486 H3476 0.930 . S
C3486 C3484 1.419 . S
C3486 C3487 1.362 . S
C3487 H3477 0.930 . S
C3487 C3480 1.409 . S
C3487 C3486 1.362 . S
H3488 C3494 0.930 . S
H3489 C3497 0.930 . S
H3490 C3498 0.930 . S
H3491 C3499 0.930 . S
H3492 C3502 0.930 . S
H3493 C3503 0.930 . S
C3494 H3488 0.930 . S
C3494 C3495 1.355 . S
C3494 C3496 1.415 . S
C3495 C3494 1.355 . S
C3495 C3497 1.419 . S
C3496 C3494 1.415 . S
C3496 C3501 1.425 . S
C3496 C3503 1.409 . S
C3497 H3489 0.930 . S
C3497 C3495 1.419 . S
C3497 C3498 1.362 . S
C3498 H3490 0.930 . S
C3498 C3497 1.362 . S
C3498 C3501 1.409 . S
C3499 H3491 0.930 . S
C3499 C3500 1.355 . S
C3499 C3501 1.415 . S
C3500 C3499 1.355 . S
C3500 C3502 1.419 . S
C3501 C3496 1.425 . S
C3501 C3498 1.409 . S
C3501 C3499 1.415 . S
C3502 H3492 0.930 . S
C3502 C3500 1.419 . S
C3502 C3503 1.362 . S
C3503 H3493 0.930 . S
C3503 C3496 1.409 . S
C3503 C3502 1.362 . S
H3504 C3510 0.930 . S
H3505 C3513 0.930 . S
H3506 C3514 0.930 . S
H3507 C3515 0.930 . S
H3508 C3518 0.930 . S
H3509 C3519 0.930 . S
C3510 H3504 0.930 . S
C3510 C3511 1.355 . S
C3510 C3512 1.415 . S
C3511 C3510 1.355 . S
C3511 C3513 1.419 . S
C3512 C3510 1.415 . S
C3512 C3517 1.425 . S
C3512 C3519 1.409 . S
C3513 H3505 0.930 . S
C3513 C3511 1.419 . S
C3513 C3514 1.362 . S
C3514 H3506 0.930 . S
C3514 C3513 1.362 . S
C3514 C3517 1.409 . S
C3515 H3507 0.930 . S
C3515 C3516 1.355 . S
C3515 C3517 1.415 . S
C3516 C3515 1.355 . S
C3516 C3518 1.419 . S
C3517 C3512 1.425 . S
C3517 C3514 1.409 . S
C3517 C3515 1.415 . S
C3518 H3508 0.930 . S
C3518 C3516 1.419 . S
C3518 C3519 1.362 . S
C3519 H3509 0.930 . S
C3519 C3512 1.409 . S
C3519 C3518 1.362 . S
H3520 C3526 0.930 . S
H3521 C3529 0.930 . S
H3522 C3530 0.930 . S
H3523 C3531 0.930 . S
H3524 C3534 0.930 . S
H3525 C3535 0.930 . S
C3526 H3520 0.930 . S
C3526 C3527 1.355 . S
C3526 C3528 1.415 . S
C3527 C3526 1.355 . S
C3527 C3529 1.419 . S
C3528 C3526 1.415 . S
C3528 C3533 1.425 . S
C3528 C3535 1.409 . S
C3529 H3521 0.930 . S
C3529 C3527 1.419 . S
C3529 C3530 1.362 . S
C3530 H3522 0.930 . S
C3530 C3529 1.362 . S
C3530 C3533 1.409 . S
C3531 H3523 0.930 . S
C3531 C3532 1.355 . S
C3531 C3533 1.415 . S
C3532 C3531 1.355 . S
C3532 C3534 1.419 . S
C3533 C3528 1.425 . S
C3533 C3530 1.409 . S
C3533 C3531 1.415 . S
C3534 H3524 0.930 . S
C3534 C3532 1.419 . S
C3534 C3535 1.362 . S
C3535 H3525 0.930 . S
C3535 C3528 1.409 . S
C3535 C3534 1.362 . S
H3536 C3542 0.930 . S
H3537 C3545 0.930 . S
H3538 C3546 0.930 . S
H3539 C3547 0.930 . S
H3540 C3550 0.930 . S
H3541 C3551 0.930 . S
C3542 H3536 0.930 . S
C3542 C3543 1.355 . S
C3542 C3544 1.415 . S
C3543 C3542 1.355 . S
C3543 C3545 1.419 . S
C3544 C3542 1.415 . S
C3544 C3549 1.425 . S
C3544 C3551 1.409 . S
C3545 H3537 0.930 . S
C3545 C3543 1.419 . S
C3545 C3546 1.362 . S
C3546 H3538 0.930 . S
C3546 C3545 1.362 . S
C3546 C3549 1.409 . S
C3547 H3539 0.930 . S
C3547 C3548 1.355 . S
C3547 C3549 1.415 . S
C3548 C3547 1.355 . S
C3548 C3550 1.419 . S
C3549 C3544 1.425 . S
C3549 C3546 1.409 . S
C3549 C3547 1.415 . S
C3550 H3540 0.930 . S
C3550 C3548 1.419 . S
C3550 C3551 1.362 . S
C3551 H3541 0.930 . S
C3551 C3544 1.409 . S
C3551 C3550 1.362 . S
H3552 C3558 0.930 . S
H3553 C3561 0.930 . S
H3554 C3562 0.930 . S
H3555 C3563 0.930 . S
H3556 C3566 0.930 . S
H3557 C3567 0.930 . S
C3558 H3552 0.930 . S
C3558 C3559 1.355 . S
C3558 C3560 1.415 . S
C3559 C3558 1.355 . S
C3559 C3561 1.419 . S
C3560 C3558 1.415 . S
C3560 C3565 1.425 . S
C3560 C3567 1.409 . S
C3561 H3553 0.930 . S
C3561 C3559 1.419 . S
C3561 C3562 1.362 . S
C3562 H3554 0.930 . S
C3562 C3561 1.362 . S
C3562 C3565 1.409 . S
C3563 H3555 0.930 . S
C3563 C3564 1.355 . S
C3563 C3565 1.415 . S
C3564 C3563 1.355 . S
C3564 C3566 1.419 . S
C3565 C3560 1.425 . S
C3565 C3562 1.409 . S
C3565 C3563 1.415 . S
C3566 H3556 0.930 . S
C3566 C3564 1.419 . S
C3566 C3567 1.362 . S
C3567 H3557 0.930 . S
C3567 C3560 1.409 . S
C3567 C3566 1.362 . S
H3568 C3574 0.930 . S
H3569 C3577 0.930 . S
H3570 C3578 0.930 . S
H3571 C3579 0.930 . S
H3572 C3582 0.930 . S
H3573 C3583 0.930 . S
C3574 H3568 0.930 . S
C3574 C3575 1.355 . S
C3574 C3576 1.415 . S
C3575 C3574 1.355 . S
C3575 C3577 1.419 . S
C3576 C3574 1.415 . S
C3576 C3581 1.425 . S
C3576 C3583 1.409 . S
C3577 H3569 0.930 . S
C3577 C3575 1.419 . S
C3577 C3578 1.362 . S
C3578 H3570 0.930 . S
C3578 C3577 1.362 . S
C3578 C3581 1.409 . S
C3579 H3571 0.930 . S
C3579 C3580 1.355 . S
C3579 C3581 1.415 . S
C3580 C3579 1.355 . S
C3580 C3582 1.419 . S
C3581 C3576 1.425 . S
C3581 C3578 1.409 . S
C3581 C3579 1.415 . S
C3582 H3572 0.930 . S
C3582 C3580 1.419 . S
C3582 C3583 1.362 . S
C3583 H3573 0.930 . S
C3583 C3576 1.409 . S
C3583 C3582 1.362 . S
H3584 C3590 0.930 . S
H3585 C3593 0.930 . S
H3586 C3594 0.930 . S
H3587 C3595 0.930 . S
H3588 C3598 0.930 . S
H3589 C3599 0.930 . S
C3590 H3584 0.930 . S
C3590 C3591 1.355 . S
C3590 C3592 1.415 . S
C3591 C3590 1.355 . S
C3591 C3593 1.419 . S
C3592 C3590 1.415 . S
C3592 C3597 1.425 . S
C3592 C3599 1.409 . S
C3593 H3585 0.930 . S
C3593 C3591 1.419 . S
C3593 C3594 1.362 . S
C3594 H3586 0.930 . S
C3594 C3593 1.362 . S
C3594 C3597 1.409 . S
C3595 H3587 0.930 . S
C3595 C3596 1.355 . S
C3595 C3597 1.415 . S
C3596 C3595 1.355 . S
C3596 C3598 1.419 . S
C3597 C3592 1.425 . S
C3597 C3594 1.409 . S
C3597 C3595 1.415 . S
C3598 H3588 0.930 . S
C3598 C3596 1.419 . S
C3598 C3599 1.362 . S
C3599 H3589 0.930 . S
C3599 C3592 1.409 . S
C3599 C3598 1.362 . S
H3600 C3606 0.930 . S
H3601 C3609 0.930 . S
H3602 C3610 0.930 . S
H3603 C3611 0.930 . S
H3604 C3614 0.930 . S
H3605 C3615 0.930 . S
C3606 H3600 0.930 . S
C3606 C3607 1.355 . S
C3606 C3608 1.415 . S
C3607 C3606 1.355 . S
C3607 C3609 1.419 . S
C3608 C3606 1.415 . S
C3608 C3613 1.425 . S
C3608 C3615 1.409 . S
C3609 H3601 0.930 . S
C3609 C3607 1.419 . S
C3609 C3610 1.362 . S
C3610 H3602 0.930 . S
C3610 C3609 1.362 . S
C3610 C3613 1.409 . S
C3611 H3603 0.930 . S
C3611 C3612 1.355 . S
C3611 C3613 1.415 . S
C3612 C3611 1.355 . S
C3612 C3614 1.419 . S
C3613 C3608 1.425 . S
C3613 C3610 1.409 . S
C3613 C3611 1.415 . S
C3614 H3604 0.930 . S
C3614 C3612 1.419 . S
C3614 C3615 1.362 . S
C3615 H3605 0.930 . S
C3615 C3608 1.409 . S
C3615 C3614 1.362 . S
H3616 C3622 0.930 . S
H3617 C3625 0.930 . S
H3618 C3626 0.930 . S
H3619 C3627 0.930 . S
H3620 C3630 0.930 . S
H3621 C3631 0.930 . S
C3622 H3616 0.930 . S
C3622 C3623 1.355 . S
C3622 C3624 1.415 . S
C3623 C3622 1.355 . S
C3623 C3625 1.419 . S
C3624 C3622 1.415 . S
C3624 C3629 1.425 . S
C3624 C3631 1.409 . S
C3625 H3617 0.930 . S
C3625 C3623 1.419 . S
C3625 C3626 1.362 . S
C3626 H3618 0.930 . S
C3626 C3625 1.362 . S
C3626 C3629 1.409 . S
C3627 H3619 0.930 . S
C3627 C3628 1.355 . S
C3627 C3629 1.415 . S
C3628 C3627 1.355 . S
C3628 C3630 1.419 . S
C3629 C3624 1.425 . S
C3629 C3626 1.409 . S
C3629 C3627 1.415 . S
C3630 H3620 0.930 . S
C3630 C3628 1.419 . S
C3630 C3631 1.362 . S
C3631 H3621 0.930 . S
C3631 C3624 1.409 . S
C3631 C3630 1.362 . S
H3632 C3638 0.930 . S
H3633 C3641 0.930 . S
H3634 C3642 0.930 . S
H3635 C3643 0.930 . S
H3636 C3646 0.930 . S
H3637 C3647 0.930 . S
C3638 H3632 0.930 . S
C3638 C3639 1.355 . S
C3638 C3640 1.415 . S
C3639 C3638 1.355 . S
C3639 C3641 1.419 . S
C3640 C3638 1.415 . S
C3640 C3645 1.425 . S
C3640 C3647 1.409 . S
C3641 H3633 0.930 . S
C3641 C3639 1.419 . S
C3641 C3642 1.362 . S
C3642 H3634 0.930 . S
C3642 C3641 1.362 . S
C3642 C3645 1.409 . S
C3643 H3635 0.930 . S
C3643 C3644 1.355 . S
C3643 C3645 1.415 . S
C3644 C3643 1.355 . S
C3644 C3646 1.419 . S
C3645 C3640 1.425 . S
C3645 C3642 1.409 . S
C3645 C3643 1.415 . S
C3646 H3636 0.930 . S
C3646 C3644 1.419 . S
C3646 C3647 1.362 . S
C3647 H3637 0.930 . S
C3647 C3640 1.409 . S
C3647 C3646 1.362 . S
H3648 C3654 0.930 . S
H3649 C3657 0.930 . S
H3650 C3658 0.930 . S
H3651 C3659 0.930 . S
H3652 C3662 0.930 . S
H3653 C3663 0.930 . S
C3654 H3648 0.930 . S
C3654 C3655 1.355 . S
C3654 C3656 1.415 . S
C3655 C3654 1.355 . S
C3655 C3657 1.419 . S
C3656 C3654 1.415 . S
C3656 C3661 1.425 . S
C3656 C3663 1.409 . S
C3657 H3649 0.930 . S
C3657 C3655 1.419 . S
C3657 C3658 1.362 . S
C3658 H3650 0.930 . S
C3658 C3657 1.362 . S
C3658 C3661 1.409 . S
C3659 H3651 0.930 . S
C3659 C3660 1.355 . S
C3659 C3661 1.415 . S
C3660 C3659 1.355 . S
C3660 C3662 1.419 . S
C3661 C3656 1.425 . S
C3661 C3658 1.409 . S
C3661 C3659 1.415 . S
C3662 H3652 0.930 . S
C3662 C3660 1.419 . S
C3662 C3663 1.362 . S
C3663 H3653 0.930 . S
C3663 C3656 1.409 . S
C3663 C3662 1.362 . S
H3664 C3670 0.930 . S
H3665 C3673 0.930 . S
H3666 C3674 0.930 . S
H3667 C3675 0.930 . S
H3668 C3678 0.930 . S
H3669 C3679 0.930 . S
C3670 H3664 0.930 . S
C3670 C3671 1.355 . S
C3670 C3672 1.415 . S
C3671 C3670 1.355 . S
C3671 C3673 1.419 . S
C3672 C3670 1.415 . S
C3672 C3677 1.425 . S
C3672 C3679 1.409 . S
C3673 H3665 0.930 . S
C3673 C3671 1.419 . S
C3673 C3674 1.362 . S
C3674 H3666 0.930 . S
C3674 C3673 1.362 . S
C3674 C3677 1.409 . S
C3675 H3667 0.930 . S
C3675 C3676 1.355 . S
C3675 C3677 1.415 . S
C3676 C3675 1.355 . S
C3676 C3678 1.419 . S
C3677 C3672 1.425 . S
C3677 C3674 1.409 . S
C3677 C3675 1.415 . S
C3678 H3668 0.930 . S
C3678 C3676 1.419 . S
C3678 C3679 1.362 . S
C3679 H3669 0.930 . S
C3679 C3672 1.409 . S
C3679 C3678 1.362 . S
H3680 C3686 0.930 . S
H3681 C3689 0.930 . S
H3682 C3690 0.930 . S
H3683 C3691 0.930 . S
H3684 C3694 0.930 . S
H3685 C3695 0.930 . S
C3686 H3680 0.930 . S
C3686 C3687 1.355 . S
C3686 C3688 1.415 . S
C3687 C3686 1.355 . S
C3687 C3689 1.419 . S
C3688 C3686 1.415 . S
C3688 C3693 1.425 . S
C3688 C3695 1.409 . S
C3689 H3681 0.930 . S
C3689 C3687 1.419 . S
C3689 C3690 1.362 . S
C3690 H3682 0.930 . S
C3690 C3689 1.362 . S
C3690 C3693 1.409 . S
C3691 H3683 0.930 . S
C3691 C3692 1.355 . S
C3691 C3693 1.415 . S
C3692 C3691 1.355 . S
C3692 C3694 1.419 . S
C3693 C3688 1.425 . S
C3693 C3690 1.409 . S
C3693 C3691 1.415 . S
C3694 H3684 0.930 . S
C3694 C3692 1.419 . S
C3694 C3695 1.362 . S
C3695 H3685 0.930 . S
C3695 C3688 1.409 . S
C3695 C3694 1.362 . S
H3696 C3702 0.930 . S
H3697 C3705 0.930 . S
H3698 C3706 0.930 . S
H3699 C3707 0.930 . S
H3700 C3710 0.930 . S
H3701 C3711 0.930 . S
C3702 H3696 0.930 . S
C3702 C3703 1.355 . S
C3702 C3704 1.415 . S
C3703 C3702 1.355 . S
C3703 C3705 1.419 . S
C3704 C3702 1.415 . S
C3704 C3709 1.425 . S
C3704 C3711 1.409 . S
C3705 H3697 0.930 . S
C3705 C3703 1.419 . S
C3705 C3706 1.362 . S
C3706 H3698 0.930 . S
C3706 C3705 1.362 . S
C3706 C3709 1.409 . S
C3707 H3699 0.930 . S
C3707 C3708 1.355 . S
C3707 C3709 1.415 . S
C3708 C3707 1.355 . S
C3708 C3710 1.419 . S
C3709 C3704 1.425 . S
C3709 C3706 1.409 . S
C3709 C3707 1.415 . S
C3710 H3700 0.930 . S
C3710 C3708 1.419 . S
C3710 C3711 1.362 . S
C3711 H3701 0.930 . S
C3711 C3704 1.409 . S
C3711 C3710 1.362 . S
H3712 C3718 0.930 . S
H3713 C3721 0.930 . S
H3714 C3722 0.930 . S
H3715 C3723 0.930 . S
H3716 C3726 0.930 . S
H3717 C3727 0.930 . S
C3718 H3712 0.930 . S
C3718 C3719 1.355 . S
C3718 C3720 1.415 . S
C3719 C3718 1.355 . S
C3719 C3721 1.419 . S
C3720 C3718 1.415 . S
C3720 C3725 1.425 . S
C3720 C3727 1.409 . S
C3721 H3713 0.930 . S
C3721 C3719 1.419 . S
C3721 C3722 1.362 . S
C3722 H3714 0.930 . S
C3722 C3721 1.362 . S
C3722 C3725 1.409 . S
C3723 H3715 0.930 . S
C3723 C3724 1.355 . S
C3723 C3725 1.415 . S
C3724 C3723 1.355 . S
C3724 C3726 1.419 . S
C3725 C3720 1.425 . S
C3725 C3722 1.409 . S
C3725 C3723 1.415 . S
C3726 H3716 0.930 . S
C3726 C3724 1.419 . S
C3726 C3727 1.362 . S
C3727 H3717 0.930 . S
C3727 C3720 1.409 . S
C3727 C3726 1.362 . S
H3728 C3734 0.930 . S
H3729 C3737 0.930 . S
H3730 C3738 0.930 . S
H3731 C3739 0.930 . S
H3732 C3742 0.930 . S
H3733 C3743 0.930 . S
C3734 H3728 0.930 . S
C3734 C3735 1.355 . S
C3734 C3736 1.415 . S
C3735 C3734 1.355 . S
C3735 C3737 1.419 . S
C3736 C3734 1.415 . S
C3736 C3741 1.425 . S
C3736 C3743 1.409 . S
C3737 H3729 0.930 . S
C3737 C3735 1.419 . S
C3737 C3738 1.362 . S
C3738 H3730 0.930 . S
C3738 C3737 1.362 . S
C3738 C3741 1.409 . S
C3739 H3731 0.930 . S
C3739 C3740 1.355 . S
C3739 C3741 1.415 . S
C3740 C3739 1.355 . S
C3740 C3742 1.419 . S
C3741 C3736 1.425 . S
C3741 C3738 1.409 . S
C3741 C3739 1.415 . S
C3742 H3732 0.930 . S
C3742 C3740 1.419 . S
C3742 C3743 1.362 . S
C3743 H3733 0.930 . S
C3743 C3736 1.409 . S
C3743 C3742 1.362 . S
H3744 C3750 0.930 . S
H3745 C3753 0.930 . S
H3746 C3754 0.930 . S
H3747 C3755 0.930 . S
H3748 C3758 0.930 . S
H3749 C3759 0.930 . S
C3750 H3744 0.930 . S
C3750 C3751 1.355 . S
C3750 C3752 1.415 . S
C3751 C3750 1.355 . S
C3751 C3753 1.419 . S
C3752 C3750 1.415 . S
C3752 C3757 1.425 . S
C3752 C3759 1.409 . S
C3753 H3745 0.930 . S
C3753 C3751 1.419 . S
C3753 C3754 1.362 . S
C3754 H3746 0.930 . S
C3754 C3753 1.362 . S
C3754 C3757 1.409 . S
C3755 H3747 0.930 . S
C3755 C3756 1.355 . S
C3755 C3757 1.415 . S
C3756 C3755 1.355 . S
C3756 C3758 1.419 . S
C3757 C3752 1.425 . S
C3757 C3754 1.409 . S
C3757 C3755 1.415 . S
C3758 H3748 0.930 . S
C3758 C3756 1.419 . S
C3758 C3759 1.362 . S
C3759 H3749 0.930 . S
C3759 C3752 1.409 . S
C3759 C3758 1.362 . S
H3760 C3766 0.930 . S
H3761 C3769 0.930 . S
H3762 C3770 0.930 . S
H3763 C3771 0.930 . S
H3764 C3774 0.930 . S
H3765 C3775 0.930 . S
C3766 H3760 0.930 . S
C3766 C3767 1.355 . S
C3766 C3768 1.415 . S
C3767 C3766 1.355 . S
C3767 C3769 1.419 . S
C3768 C3766 1.415 . S
C3768 C3773 1.425 . S
C3768 C3775 1.409 . S
C3769 H3761 0.930 . S
C3769 C3767 1.419 . S
C3769 C3770 1.362 . S
C3770 H3762 0.930 . S
C3770 C3769 1.362 . S
C3770 C3773 1.409 . S
C3771 H3763 0.930 . S
C3771 C3772 1.355 . S
C3771 C3773 1.415 . S
C3772 C3771 1.355 . S
C3772 C3774 1.419 . S
C3773 C3768 1.425 . S
C3773 C3770 1.409 . S
C3773 C3771 1.415 . S
C3774 H3764 0.930 . S
C3774 C3772 1.419 . S
C3774 C3775 1.362 . S
C3775 H3765 0.930 . S
C3775 C3768 1.409 . S
C3775 C3774 1.362 . S
H3776 C3782 0.930 . S
H3777 C3785 0.930 . S
H3778 C3786 0.930 . S
H3779 C3787 0.930 . S
H3780 C3790 0.930 . S
H3781 C3791 0.930 . S
C3782 H3776 0.930 . S
C3782 C3783 1.355 . S
C3782 C3784 1.415 . S
C3783 C3782 1.355 . S
C3783 C3785 1.419 . S
C3784 C3782 1.415 . S
C3784 C3789 1.425 . S
C3784 C3791 1.409 . S
C3785 H3777 0.930 . S
C3785 C3783 1.419 . S
C3785 C3786 1.362 . S
C3786 H3778 0.930 . S
C3786 C3785 1.362 . S
C3786 C3789 1.409 . S
C3787 H3779 0.930 . S
C3787 C3788 1.355 . S
C3787 C3789 1.415 . S
C3788 C3787 1.355 . S
C3788 C3790 1.419 . S
C3789 C3784 1.425 . S
C3789 C3786 1.409 . S
C3789 C3787 1.415 . S
C3790 H3780 0.930 . S
C3790 C3788 1.419 . S
C3790 C3791 1.362 . S
C3791 H3781 0.930 . S
C3791 C3784 1.409 . S
C3791 C3790 1.362 . S
H3792 C3798 0.930 . S
H3793 C3801 0.930 . S
H3794 C3802 0.930 . S
H3795 C3803 0.930 . S
H3796 C3806 0.930 . S
H3797 C3807 0.930 . S
C3798 H3792 0.930 . S
C3798 C3799 1.355 . S
C3798 C3800 1.415 . S
C3799 C3798 1.355 . S
C3799 C3801 1.419 . S
C3800 C3798 1.415 . S
C3800 C3805 1.425 . S
C3800 C3807 1.409 . S
C3801 H3793 0.930 . S
C3801 C3799 1.419 . S
C3801 C3802 1.362 . S
C3802 H3794 0.930 . S
C3802 C3801 1.362 . S
C3802 C3805 1.409 . S
C3803 H3795 0.930 . S
C3803 C3804 1.355 . S
C3803 C3805 1.415 . S
C3804 C3803 1.355 . S
C3804 C3806 1.419 . S
C3805 C3800 1.425 . S
C3805 C3802 1.409 . S
C3805 C3803 1.415 . S
C3806 H3796 0.930 . S
C3806 C3804 1.419 . S
C3806 C3807 1.362 . S
C3807 H3797 0.930 . S
C3807 C3800 1.409 . S
C3807 C3806 1.362 . S
H3808 C3814 0.930 . S
H3809 C3817 0.930 . S
H3810 C3818 0.930 . S
H3811 C3819 0.930 . S
H3812 C3822 0.930 . S
H3813 C3823 0.930 . S
C3814 H3808 0.930 . S
C3814 C3815 1.355 . S
C3814 C3816 1.415 . S
C3815 C3814 1.355 . S
C3815 C3817 1.419 . S
C3816 C3814 1.415 . S
C3816 C3821 1.425 . S
C3816 C3823 1.409 . S
C3817 H3809 0.930 . S
C3817 C3815 1.419 . S
C3817 C3818 1.362 . S
C3818 H3810 0.930 . S
C3818 C3817 1.362 . S
C3818 C3821 1.409 . S
C3819 H3811 0.930 . S
C3819 C3820 1.355 . S
C3819 C3821 1.415 . S
C3820 C3819 1.355 . S
C3820 C3822 1.419 . S
C3821 C3816 1.425 . S
C3821 C3818 1.409 . S
C3821 C3819 1.415 . S
C3822 H3812 0.930 . S
C3822 C3820 1.419 . S
C3822 C3823 1.362 . S
C3823 H3813 0.930 . S
C3823 C3816 1.409 . S
C3823 C3822 1.362 . S
H3824 C3830 0.930 . S
H3825 C3833 0.930 . S
H3826 C3834 0.930 . S
H3827 C3835 0.930 . S
H3828 C3838 0.930 . S
H3829 C3839 0.930 . S
C3830 H3824 0.930 . S
C3830 C3831 1.355 . S
C3830 C3832 1.415 . S
C3831 C3830 1.355 . S
C3831 C3833 1.419 . S
C3832 C3830 1.415 . S
C3832 C3837 1.425 . S
C3832 C3839 1.409 . S
C3833 H3825 0.930 . S
C3833 C3831 1.419 . S
C3833 C3834 1.362 . S
C3834 H3826 0.930 . S
C3834 C3833 1.362 . S
C3834 C3837 1.409 . S
C3835 H3827 0.930 . S
C3835 C3836 1.355 . S
C3835 C3837 1.415 . S
C3836 C3835 1.355 . S
C3836 C3838 1.419 . S
C3837 C3832 1.425 . S
C3837 C3834 1.409 . S
C3837 C3835 1.415 . S
C3838 H3828 0.930 . S
C3838 C3836 1.419 . S
C3838 C3839 1.362 . S
C3839 H3829 0.930 . S
C3839 C3832 1.409 . S
C3839 C3838 1.362 . S
H3840 C3846 0.930 . S
H3841 C3849 0.930 . S
H3842 C3850 0.930 . S
H3843 C3851 0.930 . S
H3844 C3854 0.930 . S
H3845 C3855 0.930 . S
C3846 H3840 0.930 . S
C3846 C3847 1.355 . S
C3846 C3848 1.415 . S
C3847 C3846 1.355 . S
C3847 C3849 1.419 . S
C3848 C3846 1.415 . S
C3848 C3853 1.425 . S
C3848 C3855 1.409 . S
C3849 H3841 0.930 . S
C3849 C3847 1.419 . S
C3849 C3850 1.362 . S
C3850 H3842 0.930 . S
C3850 C3849 1.362 . S
C3850 C3853 1.409 . S
C3851 H3843 0.930 . S
C3851 C3852 1.355 . S
C3851 C3853 1.415 . S
C3852 C3851 1.355 . S
C3852 C3854 1.419 . S
C3853 C3848 1.425 . S
C3853 C3850 1.409 . S
C3853 C3851 1.415 . S
C3854 H3844 0.930 . S
C3854 C3852 1.419 . S
C3854 C3855 1.362 . S
C3855 H3845 0.930 . S
C3855 C3848 1.409 . S
C3855 C3854 1.362 . S
H3856 C3862 0.930 . S
H3857 C3865 0.930 . S
H3858 C3866 0.930 . S
H3859 C3867 0.930 . S
H3860 C3870 0.930 . S
H3861 C3871 0.930 . S
C3862 H3856 0.930 . S
C3862 C3863 1.355 . S
C3862 C3864 1.415 . S
C3863 C3862 1.355 . S
C3863 C3865 1.419 . S
C3864 C3862 1.415 . S
C3864 C3869 1.425 . S
C3864 C3871 1.409 . S
C3865 H3857 0.930 . S
C3865 C3863 1.419 . S
C3865 C3866 1.362 . S
C3866 H3858 0.930 . S
C3866 C3865 1.362 . S
C3866 C3869 1.409 . S
C3867 H3859 0.930 . S
C3867 C3868 1.355 . S
C3867 C3869 1.415 . S
C3868 C3867 1.355 . S
C3868 C3870 1.419 . S
C3869 C3864 1.425 . S
C3869 C3866 1.409 . S
C3869 C3867 1.415 . S
C3870 H3860 0.930 . S
C3870 C3868 1.419 . S
C3870 C3871 1.362 . S
C3871 H3861 0.930 . S
C3871 C3864 1.409 . S
C3871 C3870 1.362 . S
H3872 C3878 0.930 . S
H3873 C3881 0.930 . S
H3874 C3882 0.930 . S
H3875 C3883 0.930 . S
H3876 C3886 0.930 . S
H3877 C3887 0.930 . S
C3878 H3872 0.930 . S
C3878 C3879 1.355 . S
C3878 C3880 1.415 . S
C3879 C3878 1.355 . S
C3879 C3881 1.419 . S
C3880 C3878 1.415 . S
C3880 C3885 1.425 . S
C3880 C3887 1.409 . S
C3881 H3873 0.930 . S
C3881 C3879 1.419 . S
C3881 C3882 1.362 . S
C3882 H3874 0.930 . S
C3882 C3881 1.362 . S
C3882 C3885 1.409 . S
C3883 H3875 0.930 . S
C3883 C3884 1.355 . S
C3883 C3885 1.415 . S
C3884 C3883 1.355 . S
C3884 C3886 1.419 . S
C3885 C3880 1.425 . S
C3885 C3882 1.409 . S
C3885 C3883 1.415 . S
C3886 H3876 0.930 . S
C3886 C3884 1.419 . S
C3886 C3887 1.362 . S
C3887 H3877 0.930 . S
C3887 C3880 1.409 . S
C3887 C3886 1.362 . S
H3888 C3894 0.930 . S
H3889 C3897 0.930 . S
H3890 C3898 0.930 . S
H3891 C3899 0.930 . S
H3892 C3902 0.930 . S
H3893 C3903 0.930 . S
C3894 H3888 0.930 . S
C3894 C3895 1.355 . S
C3894 C3896 1.415 . S
C3895 C3894 1.355 . S
C3895 C3897 1.419 . S
C3896 C3894 1.415 . S
C3896 C3901 1.425 . S
C3896 C3903 1.409 . S
C3897 H3889 0.930 . S
C3897 C3895 1.419 . S
C3897 C3898 1.362 . S
C3898 H3890 0.930 . S
C3898 C3897 1.362 . S
C3898 C3901 1.409 . S
C3899 H3891 0.930 . S
C3899 C3900 1.355 . S
C3899 C3901 1.415 . S
C3900 C3899 1.355 . S
C3900 C3902 1.419 . S
C3901 C3896 1.425 . S
C3901 C3898 1.409 . S
C3901 C3899 1.415 . S
C3902 H3892 0.930 . S
C3902 C3900 1.419 . S
C3902 C3903 1.362 . S
C3903 H3893 0.930 . S
C3903 C3896 1.409 . S
C3903 C3902 1.362 . S
H3904 C3910 0.930 . S
H3905 C3913 0.930 . S
H3906 C3914 0.930 . S
H3907 C3915 0.930 . S
H3908 C3918 0.930 . S
H3909 C3919 0.930 . S
C3910 H3904 0.930 . S
C3910 C3911 1.355 . S
C3910 C3912 1.415 . S
C3911 C3910 1.355 . S
C3911 C3913 1.419 . S
C3912 C3910 1.415 . S
C3912 C3917 1.425 . S
C3912 C3919 1.409 . S
C3913 H3905 0.930 . S
C3913 C3911 1.419 . S
C3913 C3914 1.362 . S
C3914 H3906 0.930 . S
C3914 C3913 1.362 . S
C3914 C3917 1.409 . S
C3915 H3907 0.930 . S
C3915 C3916 1.355 . S
C3915 C3917 1.415 . S
C3916 C3915 1.355 . S
C3916 C3918 1.419 . S
C3917 C3912 1.425 . S
C3917 C3914 1.409 . S
C3917 C3915 1.415 . S
C3918 H3908 0.930 . S
C3918 C3916 1.419 . S
C3918 C3919 1.362 . S
C3919 H3909 0.930 . S
C3919 C3912 1.409 . S
C3919 C3918 1.362 . S
H3920 C3926 0.930 . S
H3921 C3929 0.930 . S
H3922 C3930 0.930 . S
H3923 C3931 0.930 . S
H3924 C3934 0.930 . S
H3925 C3935 0.930 . S
C3926 H3920 0.930 . S
C3926 C3927 1.355 . S
C3926 C3928 1.415 . S
C3927 C3926 1.355 . S
C3927 C3929 1.419 . S
C3928 C3926 1.415 . S
C3928 C3933 1.425 . S
C3928 C3935 1.409 . S
C3929 H3921 0.930 . S
C3929 C3927 1.419 . S
C3929 C3930 1.362 . S
C3930 H3922 0.930 . S
C3930 C3929 1.362 . S
C3930 C3933 1.409 . S
C3931 H3923 0.930 . S
C3931 C3932 1.355 . S
C3931 C3933 1.415 . S
C3932 C3931 1.355 . S
C3932 C3934 1.419 . S
C3933 C3928 1.425 . S
C3933 C3930 1.409 . S
C3933 C3931 1.415 . S
C3934 H3924 0.930 . S
C3934 C3932 1.419 . S
C3934 C3935 1.362 . S
C3935 H3925 0.930 . S
C3935 C3928 1.409 . S
C3935 C3934 1.362 . S
H3936 C3942 0.930 . S
H3937 C3945 0.930 . S
H3938 C3946 0.930 . S
H3939 C3947 0.930 . S
H3940 C3950 0.930 . S
H3941 C3951 0.930 . S
C3942 H3936 0.930 . S
C3942 C3943 1.355 . S
C3942 C3944 1.415 . S
C3943 C3942 1.355 . S
C3943 C3945 1.419 . S
C3944 C3942 1.415 . S
C3944 C3949 1.425 . S
C3944 C3951 1.409 . S
C3945 H3937 0.930 . S
C3945 C3943 1.419 . S
C3945 C3946 1.362 . S
C3946 H3938 0.930 . S
C3946 C3945 1.362 . S
C3946 C3949 1.409 . S
C3947 H3939 0.930 . S
C3947 C3948 1.355 . S
C3947 C3949 1.415 . S
C3948 C3947 1.355 . S
C3948 C3950 1.419 . S
C3949 C3944 1.425 . S
C3949 C3946 1.409 . S
C3949 C3947 1.415 . S
C3950 H3940 0.930 . S
C3950 C3948 1.419 . S
C3950 C3951 1.362 . S
C3951 H3941 0.930 . S
C3951 C3944 1.409 . S
C3951 C3950 1.362 . S
H3952 C3958 0.930 . S
H3953 C3961 0.930 . S
H3954 C3962 0.930 . S
H3955 C3963 0.930 . S
H3956 C3966 0.930 . S
H3957 C3967 0.930 . S
C3958 H3952 0.930 . S
C3958 C3959 1.355 . S
C3958 C3960 1.415 . S
C3959 C3958 1.355 . S
C3959 C3961 1.419 . S
C3960 C3958 1.415 . S
C3960 C3965 1.425 . S
C3960 C3967 1.409 . S
C3961 H3953 0.930 . S
C3961 C3959 1.419 . S
C3961 C3962 1.362 . S
C3962 H3954 0.930 . S
C3962 C3961 1.362 . S
C3962 C3965 1.409 . S
C3963 H3955 0.930 . S
C3963 C3964 1.355 . S
C3963 C3965 1.415 . S
C3964 C3963 1.355 . S
C3964 C3966 1.419 . S
C3965 C3960 1.425 . S
C3965 C3962 1.409 . S
C3965 C3963 1.415 . S
C3966 H3956 0.930 . S
C3966 C3964 1.419 . S
C3966 C3967 1.362 . S
C3967 H3957 0.930 . S
C3967 C3960 1.409 . S
C3967 C3966 1.362 . S
H3968 C3974 0.930 . S
H3969 C3977 0.930 . S
H3970 C3978 0.930 . S
H3971 C3979 0.930 . S
H3972 C3982 0.930 . S
H3973 C3983 0.930 . S
C3974 H3968 0.930 . S
C3974 C3975 1.355 . S
C3974 C3976 1.415 . S
C3975 C3974 1.355 . S
C3975 C3977 1.419 . S
C3976 C3974 1.415 . S
C3976 C3981 1.425 . S
C3976 C3983 1.409 . S
C3977 H3969 0.930 . S
C3977 C3975 1.419 . S
C3977 C3978 1.362 . S
C3978 H3970 0.930 . S
C3978 C3977 1.362 . S
C3978 C3981 1.409 . S
C3979 H3971 0.930 . S
C3979 C3980 1.355 . S
C3979 C3981 1.415 . S
C3980 C3979 1.355 . S
C3980 C3982 1.419 . S
C3981 C3976 1.425 . S
C3981 C3978 1.409 . S
C3981 C3979 1.415 . S
C3982 H3972 0.930 . S
C3982 C3980 1.419 . S
C3982 C3983 1.362 . S
C3983 H3973 0.930 . S
C3983 C3976 1.409 . S
C3983 C3982 1.362 . S
H3984 C3990 0.930 . S
H3985 C3993 0.930 . S
H3986 C3994 0.930 . S
H3987 C3995 0.930 . S
H3988 C3998 0.930 . S
H3989 C3999 0.930 . S
C3990 H3984 0.930 . S
C3990 C3991 1.355 . S
C3990 C3992 1.415 . S
C3991 C3990 1.355 . S
C3991 C3993 1.419 . S
C3992 C3990 1.415 . S
C3992 C3997 1.425 . S
C3992 C3999 1.409 . S
C3993 H3985 0.930 . S
C3993 C3991 1.419 . S
C3993 C3994 1.362 . S
C3994 H3986 0.930 . S
C3994 C3993 1.362 . S
C3994 C3997 1.409 . S
C3995 H3987 0.930 . S
C3995 C3996 1.355 . S
C3995 C3997 1.415 . S
C3996 C3995 1.355 . S
C3996 C3998 1.419 . S
C3997 C3992 1.425 . S
C3997 C3994 1.409 . S
C3997 C3995 1.415 . S
C3998 H3988 0.930 . S
C3998 C3996 1.419 . S
C3998 C3999 1.362 . S
C3999 H3989 0.930 . S
C3999 C3992 1.409 . S
C3999 C3998 1.362 . S
H4000 C4006 0.930 . S
H4001 C4009 0.930 . S
H4002 C4010 0.930 . S
H4003 C4011 0.930 . S
H4004 C4014 0.930 . S
H4005 C4015 0.930 . S
C4006 H4000 0.930 . S
C4006 C4007 1.355 . S
C4006 C4008 1.415 . S
C4007 C4006 1.355 . S
C4007 C4009 1.419 . S
C4008 C4006 1.415 . S
C4008 C4013 1.425 . S
C4008 C4015 1.409 . S
C4009 H4001 0.930 . S
C4009 C4007 1.419 . S
C4009 C4010 1.362 . S
C4010 H4002 0.930 . S
C4010 C4009 1.362 . S
C4010 C4013 1.409 . S
C4011 H4003 0.930 . S
C4011 C4012 1.355 . S
C4011 C4013 1.415 . S
C4012 C4011 1.355 . S
C4012 C4014 1.419 . S
C4013 C4008 1.425 . S
C4013 C4010 1.409 . S
C4013 C4011 1.415 . S
C4014 H4004 0.930 . S
C4014 C4012 1.419 . S
C4014 C4015 1.362 . S
C4015 H4005 0.930 . S
C4015 C4008 1.409 . S
C4015 C4014 1.362 . S
H4016 C4022 0.930 . S
H4017 C4025 0.930 . S
H4018 C4026 0.930 . S
H4019 C4027 0.930 . S
H4020 C4030 0.930 . S
H4021 C4031 0.930 . S
C4022 H4016 0.930 . S
C4022 C4023 1.355 . S
C4022 C4024 1.415 . S
C4023 C4022 1.355 . S
C4023 C4025 1.419 . S
C4024 C4022 1.415 . S
C4024 C4029 1.425 . S
C4024 C4031 1.409 . S
C4025 H4017 0.930 . S
C4025 C4023 1.419 . S
C4025 C4026 1.362 . S
C4026 H4018 0.930 . S
C4026 C4025 1.362 . S
C4026 C4029 1.409 . S
C4027 H4019 0.930 . S
C4027 C4028 1.355 . S
C4027 C4029 1.415 . S
C4028 C4027 1.355 . S
C4028 C4030 1.419 . S
C4029 C4024 1.425 . S
C4029 C4026 1.409 . S
C4029 C4027 1.415 . S
C4030 H4020 0.930 . S
C4030 C4028 1.419 . S
C4030 C4031 1.362 . S
C4031 H4021 0.930 . S
C4031 C4024 1.409 . S
C4031 C4030 1.362 . S
H4032 C4038 0.930 . S
H4033 C4041 0.930 . S
H4034 C4042 0.930 . S
H4035 C4043 0.930 . S
H4036 C4046 0.930 . S
H4037 C4047 0.930 . S
C4038 H4032 0.930 . S
C4038 C4039 1.355 . S
C4038 C4040 1.415 . S
C4039 C4038 1.355 . S
C4039 C4041 1.419 . S
C4040 C4038 1.415 . S
C4040 C4045 1.425 . S
C4040 C4047 1.409 . S
C4041 H4033 0.930 . S
C4041 C4039 1.419 . S
C4041 C4042 1.362 . S
C4042 H4034 0.930 . S
C4042 C4041 1.362 . S
C4042 C4045 1.409 . S
C4043 H4035 0.930 . S
C4043 C4044 1.355 . S
C4043 C4045 1.415 . S
C4044 C4043 1.355 . S
C4044 C4046 1.419 . S
C4045 C4040 1.425 . S
C4045 C4042 1.409 . S
C4045 C4043 1.415 . S
C4046 H4036 0.930 . S
C4046 C4044 1.419 . S
C4046 C4047 1.362 . S
C4047 H4037 0.930 . S
C4047 C4040 1.409 . S
C4047 C4046 1.362 . S
H4048 C4054 0.930 . S
H4049 C4057 0.930 . S
H4050 C4058 0.930 . S
H4051 C4059 0.930 . S
H4052 C4062 0.930 . S
H4053 C4063 0.930 . S
C4054 H4048 0.930 . S
C4054 C4055 1.355 . S
C4054 C4056 1.415 . S
C4055 C4054 1.355 . S
C4055 C4057 1.419 . S
C4056 C4054 1.415 . S
C4056 C4061 1.425 . S
C4056 C4063 1.409 . S
C4057 H4049 0.930 . S
C4057 C4055 1.419 . S
C4057 C4058 1.362 . S
C4058 H4050 0.930 . S
C4058 C4057 1.362 . S
C4058 C4061 1.409 . S
C4059 H4051 0.930 . S
C4059 C4060 1.355 . S
C4059 C4061 1.415 . S
C4060 C4059 1.355 . S
C4060 C4062 1.419 . S
C4061 C4056 1.425 . S
C4061 C4058 1.409 . S
C4061 C4059 1.415 . S
C4062 H4052 0.930 . S
C4062 C4060 1.419 . S
C4062 C4063 1.362 . S
C4063 H4053 0.930 . S
C4063 C4056 1.409 . S
C4063 C4062 1.362 . S
H4064 C4070 0.930 . S
H4065 C4073 0.930 . S
H4066 C4074 0.930 . S
H4067 C4075 0.930 . S
H4068 C4078 0.930 . S
H4069 C4079 0.930 . S
C4070 H4064 0.930 . S
C4070 C4071 1.355 . S
C4070 C4072 1.415 . S
C4071 C4070 1.355 . S
C4071 C4073 1.419 . S
C4072 C4070 1.415 . S
C4072 C4077 1.425 . S
C4072 C4079 1.409 . S
C4073 H4065 0.930 . S
C4073 C4071 1.419 . S
C4073 C4074 1.362 . S
C4074 H4066 0.930 . S
C4074 C4073 1.362 . S
C4074 C4077 1.409 . S
C4075 H4067 0.930 . S
C4075 C4076 1.355 . S
C4075 C4077 1.415 . S
C4076 C4075 1.355 . S
C4076 C4078 1.419 . S
C4077 C4072 1.425 . S
C4077 C4074 1.409 . S
C4077 C4075 1.415 . S
C4078 H4068 0.930 . S
C4078 C4076 1.419 . S
C4078 C4079 1.362 . S
C4079 H4069 0.930 . S
C4079 C4072 1.409 . S
C4079 C4078 1.362 . S
H4080 C4086 0.930 . S
H4081 C4089 0.930 . S
H4082 C4090 0.930 . S
H4083 C4091 0.930 . S
H4084 C4094 0.930 . S
H4085 C4095 0.930 . S
C4086 H4080 0.930 . S
C4086 C4087 1.355 . S
C4086 C4088 1.415 . S
C4087 C4086 1.355 . S
C4087 C4089 1.419 . S
C4088 C4086 1.415 . S
C4088 C4093 1.425 . S
C4088 C4095 1.409 . S
C4089 H4081 0.930 . S
C4089 C4087 1.419 . S
C4089 C4090 1.362 . S
C4090 H4082 0.930 . S
C4090 C4089 1.362 . S
C4090 C4093 1.409 . S
C4091 H4083 0.930 . S
C4091 C4092 1.355 . S
C4091 C4093 1.415 . S
C4092 C4091 1.355 . S
C4092 C4094 1.419 . S
C4093 C4088 1.425 . S
C4093 C4090 1.409 . S
C4093 C4091 1.415 . S
C4094 H4084 0.930 . S
C4094 C4092 1.419 . S
C4094 C4095 1.362 . S
C4095 H4085 0.930 . S
C4095 C4088 1.409 . S
C4095 C4094 1.362 . S
H4096 C4102 0.930 . S
H4097 C4105 0.930 . S
H4098 C4106 0.930 . S
H4099 C4107 0.930 . S
H4100 C4110 0.930 . S
H4101 C4111 0.930 . S
C4102 H4096 0.930 . S
C4102 C4103 1.355 . S
C4102 C4104 1.415 . S
C4103 C4102 1.355 . S
C4103 C4105 1.419 . S
C4104 C4102 1.415 . S
C4104 C4109 1.425 . S
C4104 C4111 1.409 . S
C4105 H4097 0.930 . S
C4105 C4103 1.419 . S
C4105 C4106 1.362 . S
C4106 H4098 0.930 . S
C4106 C4105 1.362 . S
C4106 C4109 1.409 . S
C4107 H4099 0.930 . S
C4107 C4108 1.355 . S
C4107 C4109 1.415 . S
C4108 C4107 1.355 . S
C4108 C4110 1.419 . S
C4109 C4104 1.425 . S
C4109 C4106 1.409 . S
C4109 C4107 1.415 . S
C4110 H4100 0.930 . S
C4110 C4108 1.419 . S
C4110 C4111 1.362 . S
C4111 H4101 0.930 . S
C4111 C4104 1.409 . S
C4111 C4110 1.362 . S
H4112 C4118 0.930 . S
H4113 C4121 0.930 . S
H4114 C4122 0.930 . S
H4115 C4123 0.930 . S
H4116 C4126 0.930 . S
H4117 C4127 0.930 . S
C4118 H4112 0.930 . S
C4118 C4119 1.355 . S
C4118 C4120 1.415 . S
C4119 C4118 1.355 . S
C4119 C4121 1.419 . S
C4120 C4118 1.415 . S
C4120 C4125 1.425 . S
C4120 C4127 1.409 . S
C4121 H4113 0.930 . S
C4121 C4119 1.419 . S
C4121 C4122 1.362 . S
C4122 H4114 0.930 . S
C4122 C4121 1.362 . S
C4122 C4125 1.409 . S
C4123 H4115 0.930 . S
C4123 C4124 1.355 . S
C4123 C4125 1.415 . S
C4124 C4123 1.355 . S
C4124 C4126 1.419 . S
C4125 C4120 1.425 . S
C4125 C4122 1.409 . S
C4125 C4123 1.415 . S
C4126 H4116 0.930 . S
C4126 C4124 1.419 . S
C4126 C4127 1.362 . S
C4127 H4117 0.930 . S
C4127 C4120 1.409 . S
C4127 C4126 1.362 . S
H4128 C4134 0.930 . S
H4129 C4137 0.930 . S
H4130 C4138 0.930 . S
H4131 C4139 0.930 . S
H4132 C4142 0.930 . S
H4133 C4143 0.930 . S
C4134 H4128 0.930 . S
C4134 C4135 1.355 . S
C4134 C4136 1.415 . S
C4135 C4134 1.355 . S
C4135 C4137 1.419 . S
C4136 C4134 1.415 . S
C4136 C4141 1.425 . S
C4136 C4143 1.409 . S
C4137 H4129 0.930 . S
C4137 C4135 1.419 . S
C4137 C4138 1.362 . S
C4138 H4130 0.930 . S
C4138 C4137 1.362 . S
C4138 C4141 1.409 . S
C4139 H4131 0.930 . S
C4139 C4140 1.355 . S
C4139 C4141 1.415 . S
C4140 C4139 1.355 . S
C4140 C4142 1.419 . S
C4141 C4136 1.425 . S
C4141 C4138 1.409 . S
C4141 C4139 1.415 . S
C4142 H4132 0.930 . S
C4142 C4140 1.419 . S
C4142 C4143 1.362 . S
C4143 H4133 0.930 . S
C4143 C4136 1.409 . S
C4143 C4142 1.362 . S
H4144 C4150 0.930 . S
H4145 C4153 0.930 . S
H4146 C4154 0.930 . S
H4147 C4155 0.930 . S
H4148 C4158 0.930 . S
H4149 C4159 0.930 . S
C4150 H4144 0.930 . S
C4150 C4151 1.355 . S
C4150 C4152 1.415 . S
C4151 C4150 1.355 . S
C4151 C4153 1.419 . S
C4152 C4150 1.415 . S
C4152 C4157 1.425 . S
C4152 C4159 1.409 . S
C4153 H4145 0.930 . S
C4153 C4151 1.419 . S
C4153 C4154 1.362 . S
C4154 H4146 0.930 . S
C4154 C4153 1.362 . S
C4154 C4157 1.409 . S
C4155 H4147 0.930 . S
C4155 C4156 1.355 . S
C4155 C4157 1.415 . S
C4156 C4155 1.355 . S
C4156 C4158 1.419 . S
C4157 C4152 1.425 . S
C4157 C4154 1.409 . S
C4157 C4155 1.415 . S
C4158 H4148 0.930 . S
C4158 C4156 1.419 . S
C4158 C4159 1.362 . S
C4159 H4149 0.930 . S
C4159 C4152 1.409 . S
C4159 C4158 1.362 . S
H4160 C4166 0.930 . S
H4161 C4169 0.930 . S
H4162 C4170 0.930 . S
H4163 C4171 0.930 . S
H4164 C4174 0.930 . S
H4165 C4175 0.930 . S
C4166 H4160 0.930 . S
C4166 C4167 1.355 . S
C4166 C4168 1.415 . S
C4167 C4166 1.355 . S
C4167 C4169 1.419 . S
C4168 C4166 1.415 . S
C4168 C4173 1.425 . S
C4168 C4175 1.409 . S
C4169 H4161 0.930 . S
C4169 C4167 1.419 . S
C4169 C4170 1.362 . S
C4170 H4162 0.930 . S
C4170 C4169 1.362 . S
C4170 C4173 1.409 . S
C4171 H4163 0.930 . S
C4171 C4172 1.355 . S
C4171 C4173 1.415 . S
C4172 C4171 1.355 . S
C4172 C4174 1.419 . S
C4173 C4168 1.425 . S
C4173 C4170 1.409 . S
C4173 C4171 1.415 . S
C4174 H4164 0.930 . S
C4174 C4172 1.419 . S
C4174 C4175 1.362 . S
C4175 H4165 0.930 . S
C4175 C4168 1.409 . S
C4175 C4174 1.362 . S
H4176 C4182 0.930 . S
H4177 C4185 0.930 . S
H4178 C4186 0.930 . S
H4179 C4187 0.930 . S
H4180 C4190 0.930 . S
H4181 C4191 0.930 . S
C4182 H4176 0.930 . S
C4182 C4183 1.355 . S
C4182 C4184 1.415 . S
C4183 C4182 1.355 . S
C4183 C4185 1.419 . S
C4184 C4182 1.415 . S
C4184 C4189 1.425 . S
C4184 C4191 1.409 . S
C4185 H4177 0.930 . S
C4185 C4183 1.419 . S
C4185 C4186 1.362 . S
C4186 H4178 0.930 . S
C4186 C4185 1.362 . S
C4186 C4189 1.409 . S
C4187 H4179 0.930 . S
C4187 C4188 1.355 . S
C4187 C4189 1.415 . S
C4188 C4187 1.355 . S
C4188 C4190 1.419 . S
C4189 C4184 1.425 . S
C4189 C4186 1.409 . S
C4189 C4187 1.415 . S
C4190 H4180 0.930 . S
C4190 C4188 1.419 . S
C4190 C4191 1.362 . S
C4191 H4181 0.930 . S
C4191 C4184 1.409 . S
C4191 C4190 1.362 . S
H4192 C4198 0.930 . S
H4193 C4201 0.930 . S
H4194 C4202 0.930 . S
H4195 C4203 0.930 . S
H4196 C4206 0.930 . S
H4197 C4207 0.930 . S
C4198 H4192 0.930 . S
C4198 C4199 1.355 . S
C4198 C4200 1.415 . S
C4199 C4198 1.355 . S
C4199 C4201 1.419 . S
C4200 C4198 1.415 . S
C4200 C4205 1.425 . S
C4200 C4207 1.409 . S
C4201 H4193 0.930 . S
C4201 C4199 1.419 . S
C4201 C4202 1.362 . S
C4202 H4194 0.930 . S
C4202 C4201 1.362 . S
C4202 C4205 1.409 . S
C4203 H4195 0.930 . S
C4203 C4204 1.355 . S
C4203 C4205 1.415 . S
C4204 C4203 1.355 . S
C4204 C4206 1.419 . S
C4205 C4200 1.425 . S
C4205 C4202 1.409 . S
C4205 C4203 1.415 . S
C4206 H4196 0.930 . S
C4206 C4204 1.419 . S
C4206 C4207 1.362 . S
C4207 H4197 0.930 . S
C4207 C4200 1.409 . S
C4207 C4206 1.362 . S
H4208 C4214 0.930 . S
H4209 C4217 0.930 . S
H4210 C4218 0.930 . S
H4211 C4219 0.930 . S
H4212 C4222 0.930 . S
H4213 C4223 0.930 . S
C4214 H4208 0.930 . S
C4214 C4215 1.355 . S
C4214 C4216 1.415 . S
C4215 C4214 1.355 . S
C4215 C4217 1.419 . S
C4216 C4214 1.415 . S
C4216 C4221 1.425 . S
C4216 C4223 1.409 . S
C4217 H4209 0.930 . S
C4217 C4215 1.419 . S
C4217 C4218 1.362 . S
C4218 H4210 0.930 . S
C4218 C4217 1.362 . S
C4218 C4221 1.409 . S
C4219 H4211 0.930 . S
C4219 C4220 1.355 . S
C4219 C4221 1.415 . S
C4220 C4219 1.355 . S
C4220 C4222 1.419 . S
C4221 C4216 1.425 . S
C4221 C4218 1.409 . S
C4221 C4219 1.415 . S
C4222 H4212 0.930 . S
C4222 C4220 1.419 . S
C4222 C4223 1.362 . S
C4223 H4213 0.930 . S
C4223 C4216 1.409 . S
C4223 C4222 1.362 . S
H4224 C4230 0.930 . S
H4225 C4233 0.930 . S
H4226 C4234 0.930 . S
H4227 C4235 0.930 . S
H4228 C4238 0.930 . S
H4229 C4239 0.930 . S
C4230 H4224 0.930 . S
C4230 C4231 1.355 . S
C4230 C4232 1.415 . S
C4231 C4230 1.355 . S
C4231 C4233 1.419 . S
C4232 C4230 1.415 . S
C4232 C4237 1.425 . S
C4232 C4239 1.409 . S
C4233 H4225 0.930 . S
C4233 C4231 1.419 . S
C4233 C4234 1.362 . S
C4234 H4226 0.930 . S
C4234 C4233 1.362 . S
C4234 C4237 1.409 . S
C4235 H4227 0.930 . S
C4235 C4236 1.355 . S
C4235 C4237 1.415 . S
C4236 C4235 1.355 . S
C4236 C4238 1.419 . S
C4237 C4232 1.425 . S
C4237 C4234 1.409 . S
C4237 C4235 1.415 . S
C4238 H4228 0.930 . S
C4238 C4236 1.419 . S
C4238 C4239 1.362 . S
C4239 H4229 0.930 . S
C4239 C4232 1.409 . S
C4239 C4238 1.362 . S
H4240 C4246 0.930 . S
H4241 C4249 0.930 . S
H4242 C4250 0.930 . S
H4243 C4251 0.930 . S
H4244 C4254 0.930 . S
H4245 C4255 0.930 . S
C4246 H4240 0.930 . S
C4246 C4247 1.355 . S
C4246 C4248 1.415 . S
C4247 C4246 1.355 . S
C4247 C4249 1.419 . S
C4248 C4246 1.415 . S
C4248 C4253 1.425 . S
C4248 C4255 1.409 . S
C4249 H4241 0.930 . S
C4249 C4247 1.419 . S
C4249 C4250 1.362 . S
C4250 H4242 0.930 . S
C4250 C4249 1.362 . S
C4250 C4253 1.409 . S
C4251 H4243 0.930 . S
C4251 C4252 1.355 . S
C4251 C4253 1.415 . S
C4252 C4251 1.355 . S
C4252 C4254 1.419 . S
C4253 C4248 1.425 . S
C4253 C4250 1.409 . S
C4253 C4251 1.415 . S
C4254 H4244 0.930 . S
C4254 C4252 1.419 . S
C4254 C4255 1.362 . S
C4255 H4245 0.930 . S
C4255 C4248 1.409 . S
C4255 C4254 1.362 . S
H4256 C4262 0.930 . S
H4257 C4265 0.930 . S
H4258 C4266 0.930 . S
H4259 C4267 0.930 . S
H4260 C4270 0.930 . S
H4261 C4271 0.930 . S
C4262 H4256 0.930 . S
C4262 C4263 1.355 . S
C4262 C4264 1.415 . S
C4263 C4262 1.355 . S
C4263 C4265 1.419 . S
C4264 C4262 1.415 . S
C4264 C4269 1.425 . S
C4264 C4271 1.409 . S
C4265 H4257 0.930 . S
C4265 C4263 1.419 . S
C4265 C4266 1.362 . S
C4266 H4258 0.930 . S
C4266 C4265 1.362 . S
C4266 C4269 1.409 . S
C4267 H4259 0.930 . S
C4267 C4268 1.355 . S
C4267 C4269 1.415 . S
C4268 C4267 1.355 . S
C4268 C4270 1.419 . S
C4269 C4264 1.425 . S
C4269 C4266 1.409 . S
C4269 C4267 1.415 . S
C4270 H4260 0.930 . S
C4270 C4268 1.419 . S
C4270 C4271 1.362 . S
C4271 H4261 0.930 . S
C4271 C4264 1.409 . S
C4271 C4270 1.362 . S
H4272 C4278 0.930 . S
H4273 C4281 0.930 . S
H4274 C4282 0.930 . S
H4275 C4283 0.930 . S
H4276 C4286 0.930 . S
H4277 C4287 0.930 . S
C4278 H4272 0.930 . S
C4278 C4279 1.355 . S
C4278 C4280 1.415 . S
C4279 C4278 1.355 . S
C4279 C4281 1.419 . S
C4280 C4278 1.415 . S
C4280 C4285 1.425 . S
C4280 C4287 1.409 . S
C4281 H4273 0.930 . S
C4281 C4279 1.419 . S
C4281 C4282 1.362 . S
C4282 H4274 0.930 . S
C4282 C4281 1.362 . S
C4282 C4285 1.409 . S
C4283 H4275 0.930 . S
C4283 C4284 1.355 . S
C4283 C4285 1.415 . S
C4284 C4283 1.355 . S
C4284 C4286 1.419 . S
C4285 C4280 1.425 . S
C4285 C4282 1.409 . S
C4285 C4283 1.415 . S
C4286 H4276 0.930 . S
C4286 C4284 1.419 . S
C4286 C4287 1.362 . S
C4287 H4277 0.930 . S
C4287 C4280 1.409 . S
C4287 C4286 1.362 . S
H4288 C4294 0.930 . S
H4289 C4297 0.930 . S
H4290 C4298 0.930 . S
H4291 C4299 0.930 . S
H4292 C4302 0.930 . S
H4293 C4303 0.930 . S
C4294 H4288 0.930 . S
C4294 C4295 1.355 . S
C4294 C4296 1.415 . S
C4295 C4294 1.355 . S
C4295 C4297 1.419 . S
C4296 C4294 1.415 . S
C4296 C4301 1.425 . S
C4296 C4303 1.409 . S
C4297 H4289 0.930 . S
C4297 C4295 1.419 . S
C4297 C4298 1.362 . S
C4298 H4290 0.930 . S
C4298 C4297 1.362 . S
C4298 C4301 1.409 . S
C4299 H4291 0.930 . S
C4299 C4300 1.355 . S
C4299 C4301 1.415 . S
C4300 C4299 1.355 . S
C4300 C4302 1.419 . S
C4301 C4296 1.425 . S
C4301 C4298 1.409 . S
C4301 C4299 1.415 . S
C4302 H4292 0.930 . S
C4302 C4300 1.419 . S
C4302 C4303 1.362 . S
C4303 H4293 0.930 . S
C4303 C4296 1.409 . S
C4303 C4302 1.362 . S
H4304 C4310 0.930 . S
H4305 C4313 0.930 . S
H4306 C4314 0.930 . S
H4307 C4315 0.930 . S
H4308 C4318 0.930 . S
H4309 C4319 0.930 . S
C4310 H4304 0.930 . S
C4310 C4311 1.355 . S
C4310 C4312 1.415 . S
C4311 C4310 1.355 . S
C4311 C4313 1.419 . S
C4312 C4310 1.415 . S
C4312 C4317 1.425 . S
C4312 C4319 1.409 . S
C4313 H4305 0.930 . S
C4313 C4311 1.419 . S
C4313 C4314 1.362 . S
C4314 H4306 0.930 . S
C4314 C4313 1.362 . S
C4314 C4317 1.409 . S
C4315 H4307 0.930 . S
C4315 C4316 1.355 . S
C4315 C4317 1.415 . S
C4316 C4315 1.355 . S
C4316 C4318 1.419 . S
C4317 C4312 1.425 . S
C4317 C4314 1.409 . S
C4317 C4315 1.415 . S
C4318 H4308 0.930 . S
C4318 C4316 1.419 . S
C4318 C4319 1.362 . S
C4319 H4309 0.930 . S
C4319 C4312 1.409 . S
C4319 C4318 1.362 . S
H4320 C4326 0.930 . S
H4321 C4329 0.930 . S
H4322 C4330 0.930 . S
H4323 C4331 0.930 . S
H4324 C4334 0.930 . S
H4325 C4335 0.930 . S
C4326 H4320 0.930 . S
C4326 C4327 1.355 . S
C4326 C4328 1.415 . S
C4327 C4326 1.355 . S
C4327 C4329 1.419 . S
C4328 C4326 1.415 . S
C4328 C4333 1.425 . S
C4328 C4335 1.409 . S
C4329 H4321 0.930 . S
C4329 C4327 1.419 . S
C4329 C4330 1.362 . S
C4330 H4322 0.930 . S
C4330 C4329 1.362 . S
C4330 C4333 1.409 . S
C4331 H4323 0.930 . S
C4331 C4332 1.355 . S
C4331 C4333 1.415 . S
C4332 C4331 1.355 . S
C4332 C4334 1.419 . S
C4333 C4328 1.425 . S
C4333 C4330 1.409 . S
C4333 C4331 1.415 . S
C4334 H4324 0.930 . S
C4334 C4332 1.419 . S
C4334 C4335 1.362 . S
C4335 H4325 0.930 . S
C4335 C4328 1.409 . S
C4335 C4334 1.362 . S
H4336 C4342 0.930 . S
H4337 C4345 0.930 . S
H4338 C4346 0.930 . S
H4339 C4347 0.930 . S
H4340 C4350 0.930 . S
H4341 C4351 0.930 . S
C4342 H4336 0.930 . S
C4342 C4343 1.355 . S
C4342 C4344 1.415 . S
C4343 C4342 1.355 . S
C4343 C4345 1.419 . S
C4344 C4342 1.415 . S
C4344 C4349 1.425 . S
C4344 C4351 1.409 . S
C4345 H4337 0.930 . S
C4345 C4343 1.419 . S
C4345 C4346 1.362 . S
C4346 H4338 0.930 . S
C4346 C4345 1.362 . S
C4346 C4349 1.409 . S
C4347 H4339 0.930 . S
C4347 C4348 1.355 . S
C4347 C4349 1.415 . S
C4348 C4347 1.355 . S
C4348 C4350 1.419 . S
C4349 C4344 1.425 . S
C4349 C4346 1.409 . S
C4349 C4347 1.415 . S
C4350 H4340 0.930 . S
C4350 C4348 1.419 . S
C4350 C4351 1.362 . S
C4351 H4341 0.930 . S
C4351 C4344 1.409 . S
C4351 C4350 1.362 . S
H4352 C4358 0.930 . S
H4353 C4361 0.930 . S
H4354 C4362 0.930 . S
H4355 C4363 0.930 . S
H4356 C4366 0.930 . S
H4357 C4367 0.930 . S
C4358 H4352 0.930 . S
C4358 C4359 1.355 . S
C4358 C4360 1.415 . S
C4359 C4358 1.355 . S
C4359 C4361 1.419 . S
C4360 C4358 1.415 . S
C4360 C4365 1.425 . S
C4360 C4367 1.409 . S
C4361 H4353 0.930 . S
C4361 C4359 1.419 . S
C4361 C4362 1.362 . S
C4362 H4354 0.930 . S
C4362 C4361 1.362 . S
C4362 C4365 1.409 . S
C4363 H4355 0.930 . S
C4363 C4364 1.355 . S
C4363 C4365 1.415 . S
C4364 C4363 1.355 . S
C4364 C4366 1.419 . S
C4365 C4360 1.425 . S
C4365 C4362 1.409 . S
C4365 C4363 1.415 . S
C4366 H4356 0.930 . S
C4366 C4364 1.419 . S
C4366 C4367 1.362 . S
C4367 H4357 0.930 . S
C4367 C4360 1.409 . S
C4367 C4366 1.362 . S
H4368 C4374 0.930 . S
H4369 C4377 0.930 . S
H4370 C4378 0.930 . S
H4371 C4379 0.930 . S
H4372 C4382 0.930 . S
H4373 C4383 0.930 . S
C4374 H4368 0.930 . S
C4374 C4375 1.355 . S
C4374 C4376 1.415 . S
C4375 C4374 1.355 . S
C4375 C4377 1.419 . S
C4376 C4374 1.415 . S
C4376 C4381 1.425 . S
C4376 C4383 1.409 . S
C4377 H4369 0.930 . S
C4377 C4375 1.419 . S
C4377 C4378 1.362 . S
C4378 H4370 0.930 . S
C4378 C4377 1.362 . S
C4378 C4381 1.409 . S
C4379 H4371 0.930 . S
C4379 C4380 1.355 . S
C4379 C4381 1.415 . S
C4380 C4379 1.355 . S
C4380 C4382 1.419 . S
C4381 C4376 1.425 . S
C4381 C4378 1.409 . S
C4381 C4379 1.415 . S
C4382 H4372 0.930 . S
C4382 C4380 1.419 . S
C4382 C4383 1.362 . S
C4383 H4373 0.930 . S
C4383 C4376 1.409 . S
C4383 C4382 1.362 . S
H4384 C4390 0.930 . S
H4385 C4393 0.930 . S
H4386 C4394 0.930 . S
H4387 C4395 0.930 . S
H4388 C4398 0.930 . S
H4389 C4399 0.930 . S
C4390 H4384 0.930 . S
C4390 C4391 1.355 . S
C4390 C4392 1.415 . S
C4391 C4390 1.355 . S
C4391 C4393 1.419 . S
C4392 C4390 1.415 . S
C4392 C4397 1.425 . S
C4392 C4399 1.409 . S
C4393 H4385 0.930 . S
C4393 C4391 1.419 . S
C4393 C4394 1.362 . S
C4394 H4386 0.930 . S
C4394 C4393 1.362 . S
C4394 C4397 1.409 . S
C4395 H4387 0.930 . S
C4395 C4396 1.355 . S
C4395 C4397 1.415 . S
C4396 C4395 1.355 . S
C4396 C4398 1.419 . S
C4397 C4392 1.425 . S
C4397 C4394 1.409 . S
C4397 C4395 1.415 . S
C4398 H4388 0.930 . S
C4398 C4396 1.419 . S
C4398 C4399 1.362 . S
C4399 H4389 0.930 . S
C4399 C4392 1.409 . S
C4399 C4398 1.362 . S
H4400 C4406 0.930 . S
H4401 C4409 0.930 . S
H4402 C4410 0.930 . S
H4403 C4411 0.930 . S
H4404 C4414 0.930 . S
H4405 C4415 0.930 . S
C4406 H4400 0.930 . S
C4406 C4407 1.355 . S
C4406 C4408 1.415 . S
C4407 C4406 1.355 . S
C4407 C4409 1.419 . S
C4408 C4406 1.415 . S
C4408 C4413 1.425 . S
C4408 C4415 1.409 . S
C4409 H4401 0.930 . S
C4409 C4407 1.419 . S
C4409 C4410 1.362 . S
C4410 H4402 0.930 . S
C4410 C4409 1.362 . S
C4410 C4413 1.409 . S
C4411 H4403 0.930 . S
C4411 C4412 1.355 . S
C4411 C4413 1.415 . S
C4412 C4411 1.355 . S
C4412 C4414 1.419 . S
C4413 C4408 1.425 . S
C4413 C4410 1.409 . S
C4413 C4411 1.415 . S
C4414 H4404 0.930 . S
C4414 C4412 1.419 . S
C4414 C4415 1.362 . S
C4415 H4405 0.930 . S
C4415 C4408 1.409 . S
C4415 C4414 1.362 . S
C1351 C5 1.621 . S
C1356 C957 1.627 . S
C1367 C915 1.629 . S
C1372 C19 1.621 . S
C1383 C929 1.642 . S
C1388 C33 1.631 . S
C1399 C47 1.622 . S
C1404 C943 1.629 . S
C1415 C999 1.622 . S
C1420 C61 1.631 . S
C1431 C971 1.644 . S
C1436 C75 1.635 . S
C1447 C985 1.646 . S
C1452 C89 1.644 . S
C1463 C103 1.631 . S
C1468 C901 1.623 . S
C1479 C117 1.629 . S
C1484 C887 1.622 . S
C1495 C131 1.638 . S
C1500 C845 1.627 . S
C1511 C145 1.635 . S
C1516 C859 1.625 . S
C1527 C159 1.638 . S
C1532 C873 1.646 . S
C1543 C173 1.639 . S
C1548 C803 1.628 . S
C1559 C817 1.635 . S
C1564 C187 1.625 . S
C1575 C831 1.645 . S
C1580 C201 1.636 . S
C1591 C215 1.634 . S
C1596 C789 1.624 . S
C1607 C229 1.621 . S
C1612 C775 1.625 . S
C1623 C243 1.646 . S
C1628 C691 1.641 . S
C1639 C705 1.642 . S
C1644 C257 1.646 . S
C1655 C719 1.630 . S
C1660 C271 1.622 . S
C1671 C677 1.632 . S
C1676 C285 1.643 . S
C1687 C299 1.631 . S
C1692 C747 1.622 . S
C1703 C313 1.646 . S
C1708 C761 1.642 . S
C1719 C327 1.631 . S
C1724 C733 1.642 . S
C1735 C341 1.643 . S
C1740 C1293 1.646 . S
C1751 C355 1.636 . S
C1756 C1251 1.625 . S
C1767 C369 1.640 . S
C1772 C1265 1.630 . S
C1783 C383 1.640 . S
C1788 C1279 1.646 . S
C1799 C397 1.638 . S
C1804 C1335 1.646 . S
C1815 C411 1.629 . S
C1820 C1307 1.622 . S
C1831 C1321 1.644 . S
C1836 C425 1.635 . S
C1847 C439 1.646 . S
C1852 C1237 1.640 . S
C1863 C453 1.630 . S
C1868 C1223 1.622 . S
C1879 C1181 1.640 . S
C1884 C467 1.629 . S
C1895 C481 1.639 . S
C1900 C1195 1.628 . S
C1911 C495 1.627 . S
C1916 C1209 1.621 . S
C1927 C509 1.631 . S
C1932 C1139 1.641 . S
C1943 C523 1.633 . S
C1948 C1153 1.623 . S
C1959 C537 1.646 . S
C1964 C1167 1.639 . S
C1975 C1125 1.635 . S
C1980 C551 1.644 . S
C1991 C565 1.646 . S
C1996 C1111 1.643 . S
C2007 C579 1.621 . S
C2012 C1027 1.623 . S
C2023 C593 1.634 . S
C2028 C1041 1.624 . S
C2039 C1055 1.621 . S
C2044 C607 1.623 . S
C2055 C621 1.639 . S
C2060 C1013 1.646 . S
C2071 C1083 1.622 . S
C2076 C635 1.630 . S
C2087 C649 1.627 . S
C2092 C1097 1.638 . S
C2103 C663 1.632 . S
C2108 C1069 1.643 . S
C2119 C9 1.516 . S
C2124 C555 1.500 . S
C2135 C23 1.512 . S
C2140 C513 1.504 . S
C2151 C527 1.499 . S
C2156 C37 1.517 . S
C2167 C51 1.513 . S
C2172 C541 1.502 . S
C2183 C471 1.503 . S
C2188 C65 1.513 . S
C2199 C485 1.510 . S
C2204 C79 1.505 . S
C2215 C499 1.519 . S
C2220 C93 1.497 . S
C2231 C457 1.517 . S
C2236 C107 1.499 . S
C2247 C443 1.504 . S
C2252 C121 1.512 . S
C2263 C135 1.507 . S
C2268 C401 1.509 . S
C2279 C415 1.518 . S
C2284 C149 1.498 . S
C2295 C163 1.512 . S
C2300 C429 1.504 . S
C2311 C359 1.518 . S
C2316 C177 1.498 . S
C2327 C373 1.514 . S
C2332 C191 1.502 . S
C2343 C205 1.499 . S
C2348 C387 1.517 . S
C2359 C219 1.513 . S
C2364 C345 1.503 . S
C2375 C233 1.517 . S
C2380 C625 1.499 . S
C2391 C247 1.502 . S
C2396 C667 1.514 . S
C2407 C639 1.501 . S
C2412 C261 1.515 . S
C2423 C653 1.501 . S
C2428 C275 1.515 . S
C2439 C289 1.518 . S
C2444 C569 1.498 . S
C2455 C303 1.498 . S
C2460 C597 1.517 . S
C2471 C611 1.497 . S
C2476 C317 1.519 . S
C2487 C331 1.497 . S
C2492 C583 1.519 . S
C2503 C1227 1.502 . S
C2508 C681 1.514 . S
C2519 C1185 1.498 . S
C2524 C695 1.518 . S
C2535 C1199 1.497 . S
C2540 C709 1.519 . S
C2551 C723 1.499 . S
C2556 C1213 1.517 . S
C2567 C1143 1.502 . S
C2572 C737 1.514 . S
C2583 C1157 1.511 . S
C2588 C751 1.505 . S
C2599 C765 1.510 . S
C2604 C1171 1.506 . S
C2615 C779 1.512 . S
C2620 C1129 1.504 . S
C2631 C1115 1.503 . S
C2636 C793 1.513 . S
C2647 C807 1.500 . S
C2652 C1073 1.516 . S
C2663 C1087 1.501 . S
C2668 C821 1.515 . S
C2679 C1101 1.501 . S
C2684 C835 1.515 . S
C2695 C849 1.506 . S
C2700 C1031 1.510 . S
C2711 C863 1.517 . S
C2716 C1045 1.499 . S
C2727 C1059 1.498 . S
C2732 C877 1.518 . S
C2743 C891 1.499 . S
C2748 C1017 1.517 . S
C2759 C1297 1.507 . S
C2764 C905 1.509 . S
C2775 C1339 1.518 . S
C2780 C919 1.498 . S
C2791 C933 1.511 . S
C2796 C1311 1.505 . S
C2807 C1325 1.515 . S
C2812 C947 1.501 . S
C2823 C1241 1.498 . S
C2828 C961 1.518 . S
C2839 C1269 1.503 . S
C2844 C975 1.513 . S
C2855 C989 1.501 . S
C2860 C1283 1.514 . S
C2871 C1255 1.499 . S
C2876 C1003 1.517 . S
C2887 C11 1.249 . S
C2892 C403 1.294 . S
C2903 C417 1.276 . S
C2908 C25 1.267 . S
C2919 C39 1.296 . S
C2924 C431 1.248 . S
C2935 C445 1.244 . S
C2940 C53 1.300 . S
C2951 C67 1.301 . S
C2956 C347 1.242 . S
C2967 C81 1.284 . S
C2972 C361 1.259 . S
C2983 C95 1.247 . S
C2988 C375 1.297 . S
C2999 C389 1.296 . S
C3004 C109 1.247 . S
C3015 C543 1.286 . S
C3020 C123 1.258 . S
C3031 C137 1.297 . S
C3036 C557 1.247 . S
C3047 C151 1.286 . S
C3052 C515 1.258 . S
C3063 C165 1.280 . S
C3068 C529 1.264 . S
C3079 C179 1.244 . S
C3084 C487 1.300 . S
C3095 C193 1.299 . S
C3100 C501 1.245 . S
C3111 C207 1.254 . S
C3116 C459 1.289 . S
C3127 C221 1.262 . S
C3132 C473 1.282 . S
C3143 C235 1.255 . S
C3148 C641 1.288 . S
C3159 C249 1.273 . S
C3164 C613 1.271 . S
C3175 C627 1.291 . S
C3180 C263 1.253 . S
C3191 C277 1.265 . S
C3196 C585 1.279 . S
C3207 C599 1.271 . S
C3212 C291 1.273 . S
C3223 C305 1.299 . S
C3228 C571 1.245 . S
C3239 C319 1.298 . S
C3244 C669 1.245 . S
C3255 C655 1.246 . S
C3260 C333 1.297 . S
C3271 C1075 1.284 . S
C3276 C683 1.259 . S
C3287 C697 1.261 . S
C3292 C1089 1.283 . S
C3303 C1103 1.243 . S
C3308 C711 1.300 . S
C3319 C725 1.253 . S
C3324 C1117 1.291 . S
C3335 C1019 1.266 . S
C3340 C739 1.277 . S
C3351 C1033 1.268 . S
C3356 C753 1.276 . S
C3367 C1047 1.265 . S
C3372 C767 1.279 . S
C3383 C781 1.249 . S
C3388 C1061 1.295 . S
C3399 C795 1.298 . S
C3404 C1215 1.245 . S
C3415 C1229 1.257 . S
C3420 C809 1.287 . S
C3431 C1187 1.293 . S
C3436 C823 1.251 . S
C3447 C1201 1.243 . S
C3452 C837 1.300 . S
C3463 C851 1.242 . S
C3468 C1159 1.301 . S
C3479 C865 1.296 . S
C3484 C1173 1.248 . S
C3495 C1131 1.257 . S
C3500 C879 1.287 . S
C3511 C1145 1.255 . S
C3516 C893 1.288 . S
C3527 C1313 1.258 . S
C3532 C907 1.286 . S
C3543 C921 1.245 . S
C3548 C1285 1.299 . S
C3559 C1299 1.284 . S
C3564 C935 1.260 . S
C3575 C949 1.291 . S
C3580 C1257 1.253 . S
C3591 C963 1.294 . S
C3596 C1271 1.250 . S
C3607 C977 1.287 . S
C3612 C1243 1.257 . S
C3623 C1341 1.297 . S
C3628 C991 1.246 . S
C3639 C1005 1.255 . S
C3644 C1327 1.289 . S
C3655 C434 1.269 . S
C3660 C0 1.290 . S
C3671 C392 1.312 . S
C3676 C14 1.246 . S
C3687 C28 1.245 . S
C3692 C406 1.314 . S
C3703 C420 1.314 . S
C3708 C42 1.245 . S
C3719 C350 1.264 . S
C3724 C56 1.295 . S
C3735 C70 1.253 . S
C3740 C364 1.306 . S
C3751 C84 1.313 . S
C3756 C378 1.245 . S
C3767 C336 1.246 . S
C3772 C98 1.312 . S
C3783 C616 1.245 . S
C3788 C112 1.313 . S
C3799 C126 1.301 . S
C3804 C574 1.258 . S
C3815 C140 1.247 . S
C3820 C588 1.311 . S
C3831 C602 1.246 . S
C3836 C154 1.312 . S
C3847 C168 1.308 . S
C3852 C658 1.250 . S
C3863 C630 1.306 . S
C3868 C182 1.253 . S
C3879 C644 1.312 . S
C3884 C196 1.246 . S
C3895 C210 1.314 . S
C3900 C560 1.244 . S
C3911 C224 1.249 . S
C3916 C546 1.309 . S
C3927 C238 1.247 . S
C3932 C462 1.311 . S
C3943 C252 1.294 . S
C3948 C476 1.266 . S
C3959 C490 1.256 . S
C3964 C266 1.303 . S
C3975 C448 1.314 . S
C3980 C280 1.245 . S
C3991 C294 1.252 . S
C3996 C518 1.307 . S
C4007 C308 1.301 . S
C4012 C532 1.258 . S
C4023 C322 1.258 . S
C4028 C504 1.301 . S
C4039 C672 1.273 . S
C4044 C1106 1.286 . S
C4055 C686 1.295 . S
C4060 C1064 1.264 . S
C4071 C700 1.294 . S
C4076 C1078 1.266 . S
C4087 C1092 1.311 . S
C4092 C714 1.247 . S
C4103 C1022 1.245 . S
C4108 C728 1.314 . S
C4119 C1036 1.253 . S
C4124 C742 1.306 . S
C4135 C756 1.245 . S
C4140 C1050 1.314 . S
C4151 C1008 1.308 . S
C4156 C770 1.251 . S
C4167 C1288 1.245 . S
C4172 C784 1.314 . S
C4183 C1246 1.278 . S
C4188 C798 1.281 . S
C4199 C1260 1.299 . S
C4204 C812 1.260 . S
C4215 C1274 1.266 . S
C4220 C826 1.293 . S
C4231 C1330 1.263 . S
C4236 C840 1.297 . S
C4247 C1302 1.308 . S
C4252 C854 1.250 . S
C4263 C1316 1.293 . S
C4268 C868 1.267 . S
C4279 C1232 1.310 . S
C4284 C882 1.249 . S
C4295 C896 1.251 . S
C4300 C1218 1.308 . S
C4311 C1134 1.270 . S
C4316 C910 1.289 . S
C4327 C1148 1.291 . S
C4332 C924 1.268 . S
C4343 C1162 1.293 . S
C4348 C938 1.266 . S
C4359 C1120 1.312 . S
C4364 C952 1.246 . S
C4375 C1190 1.312 . S
C4380 C966 1.246 . S
C4391 C1204 1.260 . S
C4396 C980 1.299 . S
C4407 C1176 1.245 . S
C4412 C994 1.313 . S
