# Generated by pormake.
# Topology smd, (6)-cn, num edge types: 1
# Building blocks:
#     Node 0, Type 0, BuildingBlock: KUMJIN_clean_sbu_1, # of connection points: 6
#     Node 1, Type 0, BuildingBlock: KUMJIN_clean_sbu_1, # of connection points: 6
#     Node 2, Type 0, BuildingBlock: KUMJIN_clean_sbu_1, # of connection points: 6
#     Node 3, Type 0, BuildingBlock: KUMJIN_clean_sbu_1, # of connection points: 6
#     Node 4, Type 0, BuildingBlock: KUMJIN_clean_sbu_1, # of connection points: 6
#     Node 5, Type 0, BuildingBlock: KUMJIN_clean_sbu_1, # of connection points: 6
#     Node 6, Type 0, BuildingBlock: KUMJIN_clean_sbu_1, # of connection points: 6
#     Node 7, Type 0, BuildingBlock: KUMJIN_clean_sbu_1, # of connection points: 6
#     Node 8, Type 0, BuildingBlock: KUMJIN_clean_sbu_1, # of connection points: 6
#     Node 9, Type 0, BuildingBlock: KUMJIN_clean_sbu_1, # of connection points: 6
#     Node 10, Type 0, BuildingBlock: KUMJIN_clean_sbu_1, # of connection points: 6
#     Node 11, Type 0, BuildingBlock: KUMJIN_clean_sbu_1, # of connection points: 6
#     Node 12, Type 0, BuildingBlock: KUMJIN_clean_sbu_1, # of connection points: 6
#     Node 13, Type 0, BuildingBlock: KUMJIN_clean_sbu_1, # of connection points: 6
#     Node 14, Type 0, BuildingBlock: KUMJIN_clean_sbu_1, # of connection points: 6
#     Node 15, Type 0, BuildingBlock: KUMJIN_clean_sbu_1, # of connection points: 6
#     Node 16, Type 0, BuildingBlock: KUMJIN_clean_sbu_1, # of connection points: 6
#     Node 17, Type 0, BuildingBlock: KUMJIN_clean_sbu_1, # of connection points: 6
#     Edge 18, Type (0, 0), BuildingBlock: CIFDUS_clean_linker_0, # of connection points: 2
#     Edge 19, Type (0, 0), BuildingBlock: CIFDUS_clean_linker_0, # of connection points: 2
#     Edge 20, Type (0, 0), BuildingBlock: CIFDUS_clean_linker_0, # of connection points: 2
#     Edge 21, Type (0, 0), BuildingBlock: CIFDUS_clean_linker_0, # of connection points: 2
#     Edge 22, Type (0, 0), BuildingBlock: CIFDUS_clean_linker_0, # of connection points: 2
#     Edge 23, Type (0, 0), BuildingBlock: CIFDUS_clean_linker_0, # of connection points: 2
#     Edge 24, Type (0, 0), BuildingBlock: CIFDUS_clean_linker_0, # of connection points: 2
#     Edge 25, Type (0, 0), BuildingBlock: CIFDUS_clean_linker_0, # of connection points: 2
#     Edge 26, Type (0, 0), BuildingBlock: CIFDUS_clean_linker_0, # of connection points: 2
#     Edge 27, Type (0, 0), BuildingBlock: CIFDUS_clean_linker_0, # of connection points: 2
#     Edge 28, Type (0, 0), BuildingBlock: CIFDUS_clean_linker_0, # of connection points: 2
#     Edge 29, Type (0, 0), BuildingBlock: CIFDUS_clean_linker_0, # of connection points: 2
#     Edge 30, Type (0, 0), BuildingBlock: CIFDUS_clean_linker_0, # of connection points: 2
#     Edge 31, Type (0, 0), BuildingBlock: CIFDUS_clean_linker_0, # of connection points: 2
#     Edge 32, Type (0, 0), BuildingBlock: CIFDUS_clean_linker_0, # of connection points: 2
#     Edge 33, Type (0, 0), BuildingBlock: CIFDUS_clean_linker_0, # of connection points: 2
#     Edge 34, Type (0, 0), BuildingBlock: CIFDUS_clean_linker_0, # of connection points: 2
#     Edge 35, Type (0, 0), BuildingBlock: CIFDUS_clean_linker_0, # of connection points: 2
#     Edge 36, Type (0, 0), BuildingBlock: CIFDUS_clean_linker_0, # of connection points: 2
#     Edge 37, Type (0, 0), BuildingBlock: CIFDUS_clean_linker_0, # of connection points: 2
#     Edge 38, Type (0, 0), BuildingBlock: CIFDUS_clean_linker_0, # of connection points: 2
#     Edge 39, Type (0, 0), BuildingBlock: CIFDUS_clean_linker_0, # of connection points: 2
#     Edge 40, Type (0, 0), BuildingBlock: CIFDUS_clean_linker_0, # of connection points: 2
#     Edge 41, Type (0, 0), BuildingBlock: CIFDUS_clean_linker_0, # of connection points: 2
#     Edge 42, Type (0, 0), BuildingBlock: CIFDUS_clean_linker_0, # of connection points: 2
#     Edge 43, Type (0, 0), BuildingBlock: CIFDUS_clean_linker_0, # of connection points: 2
#     Edge 44, Type (0, 0), BuildingBlock: CIFDUS_clean_linker_0, # of connection points: 2
#     Edge 45, Type (0, 0), BuildingBlock: CIFDUS_clean_linker_0, # of connection points: 2
#     Edge 46, Type (0, 0), BuildingBlock: CIFDUS_clean_linker_0, # of connection points: 2
#     Edge 47, Type (0, 0), BuildingBlock: CIFDUS_clean_linker_0, # of connection points: 2
#     Edge 48, Type (0, 0), BuildingBlock: CIFDUS_clean_linker_0, # of connection points: 2
#     Edge 49, Type (0, 0), BuildingBlock: CIFDUS_clean_linker_0, # of connection points: 2
#     Edge 50, Type (0, 0), BuildingBlock: CIFDUS_clean_linker_0, # of connection points: 2
#     Edge 51, Type (0, 0), BuildingBlock: CIFDUS_clean_linker_0, # of connection points: 2
#     Edge 52, Type (0, 0), BuildingBlock: CIFDUS_clean_linker_0, # of connection points: 2
#     Edge 53, Type (0, 0), BuildingBlock: CIFDUS_clean_linker_0, # of connection points: 2
#     Edge 54, Type (0, 0), BuildingBlock: CIFDUS_clean_linker_0, # of connection points: 2
#     Edge 55, Type (0, 0), BuildingBlock: CIFDUS_clean_linker_0, # of connection points: 2
#     Edge 56, Type (0, 0), BuildingBlock: CIFDUS_clean_linker_0, # of connection points: 2
#     Edge 57, Type (0, 0), BuildingBlock: CIFDUS_clean_linker_0, # of connection points: 2
#     Edge 58, Type (0, 0), BuildingBlock: CIFDUS_clean_linker_0, # of connection points: 2
#     Edge 59, Type (0, 0), BuildingBlock: CIFDUS_clean_linker_0, # of connection points: 2
#     Edge 60, Type (0, 0), BuildingBlock: CIFDUS_clean_linker_0, # of connection points: 2
#     Edge 61, Type (0, 0), BuildingBlock: CIFDUS_clean_linker_0, # of connection points: 2
#     Edge 62, Type (0, 0), BuildingBlock: CIFDUS_clean_linker_0, # of connection points: 2
#     Edge 63, Type (0, 0), BuildingBlock: CIFDUS_clean_linker_0, # of connection points: 2
#     Edge 64, Type (0, 0), BuildingBlock: CIFDUS_clean_linker_0, # of connection points: 2
#     Edge 65, Type (0, 0), BuildingBlock: CIFDUS_clean_linker_0, # of connection points: 2
#     Edge 66, Type (0, 0), BuildingBlock: CIFDUS_clean_linker_0, # of connection points: 2
#     Edge 67, Type (0, 0), BuildingBlock: CIFDUS_clean_linker_0, # of connection points: 2
#     Edge 68, Type (0, 0), BuildingBlock: CIFDUS_clean_linker_0, # of connection points: 2
#     Edge 69, Type (0, 0), BuildingBlock: CIFDUS_clean_linker_0, # of connection points: 2
#     Edge 70, Type (0, 0), BuildingBlock: CIFDUS_clean_linker_0, # of connection points: 2
#     Edge 71, Type (0, 0), BuildingBlock: CIFDUS_clean_linker_0, # of connection points: 2
# Relax obj value: 0.199
# Max RMSD: 0.313
# Mean RMSD: 0.313
data_MOF--net-smd--node1-KUMJIN_clean_sbu_1--edge1-CIFDUS_clean_linker_0
_symmetry_space_group_name_H-M    P1
_symmetry_Int_Tables_number       1
_symmetry_cell_setting            triclinic
loop_
_symmetry_equiv_pos_as_xyz
'x, y, z'
_cell_length_a     57.339311
_cell_length_b     57.157171
_cell_length_c     22.708147
_cell_angle_alpha  90.001233
_cell_angle_beta   90.090955
_cell_angle_gamma 119.9303
loop_
_atom_site_label
_atom_site_type_symbol
_atom_site_fract_x
_atom_site_fract_y
_atom_site_fract_z
_atom_type_partial_charge
Eu0 Eu 0.04658 0.25437 0.59113 0.0
C1 C 0.94932 0.228 0.44953 0.0
N2 N 0.96002 0.21159 0.45545 0.0
C3 C 0.9162 0.17357 0.47151 0.0
C4 C 0.92155 0.21785 0.45772 0.0
C5 C 0.94372 0.18445 0.46176 0.0
C6 C 0.9051 0.19041 0.47042 0.0
C7 C 0.9555 0.27229 0.42735 0.0
C8 C 0.96624 0.25503 0.43481 0.0
C9 C 0.92796 0.26236 0.43736 0.0
C10 C 0.91105 0.23525 0.45241 0.0
Eu11 Eu 1.00702 0.23226 0.44419 0.0
N12 N 0.99299 0.26422 0.42642 0.0
C13 C 0.97265 0.2988 0.40858 0.0
C14 C 1.009 0.28908 0.40265 0.0
C15 C 0.99937 0.30702 0.39484 0.0
H16 H 0.9519 0.17113 0.459 0.0
H17 H 1.01238 0.32695 0.37696 0.0
H18 H 0.09612 0.31947 0.58557 0.0
H19 H 0.05084 0.16305 0.64214 0.0
H20 H 0.02869 0.29465 0.38686 0.0
H21 H 0.96525 0.31272 0.40213 0.0
H22 H 0.0297 0.18869 0.60664 0.0
H23 H 0.90353 0.15216 0.47922 0.0
H24 H 0.91934 0.27529 0.43272 0.0
H25 H 0.88978 0.22784 0.45894 0.0
H26 H 0.1436 0.34635 0.61638 0.0
H27 H 0.88371 0.1819 0.47773 0.0
H28 H 0.09822 0.18719 0.67563 0.0
N29 N 0.09296 0.28183 0.60809 0.0
C30 C 0.1054 0.26884 0.63068 0.0
C31 C 0.13309 0.32459 0.6205 0.0
C32 C 0.13217 0.28355 0.65091 0.0
C33 C 0.10636 0.30925 0.60199 0.0
C34 C 0.14592 0.31173 0.64589 0.0
N35 N 0.06523 0.22696 0.61512 0.0
C36 C 0.05052 0.19947 0.61931 0.0
C37 C 0.10378 0.22683 0.65706 0.0
C38 C 0.09121 0.24072 0.63445 0.0
C39 C 0.08916 0.19858 0.65893 0.0
C40 C 0.06243 0.18486 0.63998 0.0
H41 H 0.16653 0.32373 0.66096 0.0
H42 H 0.16489 0.28073 0.6916 0.0
H43 H 0.14013 0.23118 0.69613 0.0
O44 O 1.02238 0.24081 0.67211 0.0
O45 O 0.06631 0.23825 0.53078 0.0
O46 O 0.0463 0.22922 0.43845 0.0
O47 O 0.06122 0.27757 0.67185 0.0
O48 O 1.00428 0.21523 0.59119 0.0
O49 O 1.00172 0.19722 0.50037 0.0
O50 O 1.00496 0.23843 0.34969 0.0
O51 O 0.98964 0.24342 0.52848 0.0
O52 O 0.02865 0.27821 0.55658 0.0
O53 O 0.98894 0.19805 0.38405 0.0
O54 O 0.04901 0.26853 0.43236 0.0
O55 O 0.05793 0.28925 0.52327 0.0
C56 C 0.06545 0.2316 0.47547 0.0
C57 C 0.03311 0.27133 0.75331 0.0
C58 C 1.02308 0.26801 0.85817 0.0
C59 C 1.0244 0.29324 0.85561 0.0
C60 C 0.03526 0.29682 0.75178 0.0
C61 C 0.03032 0.30746 0.80252 0.0
C62 C 0.027 0.25702 0.80636 0.0
C63 C 0.99288 0.1944 0.55452 0.0
C64 C 0.04082 0.26065 0.70311 0.0
C65 C 0.14437 0.26975 0.67548 0.0
C66 C 0.13033 0.2415 0.67786 0.0
C67 C 1.00266 0.26623 0.55866 0.0
C68 C 1.0056 0.20587 0.28617 0.0
C69 C 1.018 0.212 0.1824 0.0
C70 C 1.02231 0.18993 0.18524 0.0
C71 C 1.0104 0.18404 0.2885 0.0
C72 C 1.00978 0.21999 0.23305 0.0
C73 C 1.01873 0.17619 0.23823 0.0
C74 C 0.06207 0.29019 0.46528 0.0
C75 C 0.99438 0.21291 0.33707 0.0
H76 H 1.02112 0.30206 0.89469 0.0
H77 H 0.04156 0.30876 0.71198 0.0
H78 H 0.03176 0.32706 0.80106 0.0
H79 H 0.02677 0.23793 0.80785 0.0
H80 H 0.02864 0.18347 0.14658 0.0
H81 H 1.00734 0.17274 0.3288 0.0
H82 H 1.00587 0.23668 0.23062 0.0
H83 H 1.02218 0.15924 0.24021 0.0
Eu84 Eu 0.7903 0.80038 0.58328 0.0
C85 C 0.81296 0.72486 0.43428 0.0
N86 N 0.82844 0.75153 0.44693 0.0
C87 C 0.86417 0.74446 0.47928 0.0
C88 C 0.82224 0.70668 0.44613 0.0
C89 C 0.85452 0.76172 0.46367 0.0
C90 C 0.84776 0.71669 0.47136 0.0
C91 C 0.77186 0.68852 0.39295 0.0
C92 C 0.78788 0.7159 0.40916 0.0
C93 C 0.78068 0.67016 0.40609 0.0
C94 C 0.80576 0.6792 0.43294 0.0
Eu95 Eu 0.80831 0.77862 0.4354 0.0
N96 N 0.7798 0.73413 0.39776 0.0
C97 C 0.74782 0.68052 0.36251 0.0
C98 C 0.75736 0.7267 0.36406 0.0
C99 C 0.74085 0.69984 0.3469 0.0
H100 H 0.86797 0.7831 0.4637 0.0
H101 H 0.72282 0.69409 0.32138 0.0
H102 H 0.72508 0.78332 0.57964 0.0
H103 H 0.87815 0.89236 0.66214 0.0
H104 H 0.752 0.7414 0.35033 0.0
H105 H 0.735 0.65971 0.34911 0.0
H106 H 0.85356 0.84616 0.62164 0.0
H107 H 0.8845 0.75262 0.49561 0.0
H108 H 0.76846 0.64901 0.3947 0.0
H109 H 0.81244 0.66489 0.44228 0.0
H110 H 0.69713 0.80328 0.60687 0.0
H111 H 0.85541 0.70333 0.48249 0.0
H112 H 0.8536 0.91649 0.68601 0.0
N113 N 0.76213 0.8188 0.6 0.0
C114 C 0.77424 0.84402 0.62346 0.0
C115 C 0.7188 0.81506 0.6112 0.0
C116 C 0.75892 0.85582 0.64159 0.0
C117 C 0.73474 0.80401 0.59487 0.0
C118 C 0.73093 0.84106 0.63477 0.0
N119 N 0.81588 0.84491 0.61878 0.0
C120 C 0.84279 0.85677 0.63053 0.0
C121 C 0.815 0.88363 0.65753 0.0
C122 C 0.8019 0.85758 0.63241 0.0
C123 C 0.84281 0.89643 0.66709 0.0
C124 C 0.85674 0.88287 0.65376 0.0
H125 H 0.71846 0.84938 0.64845 0.0
H126 H 0.7604 0.89101 0.68134 0.0
H127 H 0.80955 0.91568 0.69364 0.0
O128 O 0.80199 0.79898 0.67488 0.0
O129 O 0.81723 0.8355 0.52428 0.0
O130 O 0.80272 0.81687 0.43305 0.0
O131 O 0.76032 0.7756 0.64749 0.0
O132 O 0.82984 0.79751 0.58296 0.0
O133 O 0.84281 0.81087 0.48861 0.0
O134 O 0.80377 0.78069 0.33984 0.0
O135 O 0.80401 0.75288 0.51878 0.0
O136 O 0.77019 0.75637 0.55924 0.0
O137 O 0.84378 0.79675 0.37928 0.0
O138 O 0.76396 0.76286 0.44875 0.0
O139 O 0.76048 0.79411 0.50503 0.0
C140 C 0.81104 0.83774 0.46987 0.0
C141 C 0.76817 0.78978 0.74685 0.0
C142 C 0.77352 0.79666 0.85283 0.0
C143 C 0.74858 0.79564 0.85573 0.0
C144 C 0.74335 0.78912 0.75041 0.0
C145 C 0.73371 0.79211 0.80458 0.0
C146 C 0.7833 0.79384 0.79825 0.0
C147 C 0.8489 0.80698 0.54203 0.0
C148 C 0.77713 0.78344 0.69146 0.0
C149 C 0.77187 0.88166 0.6671 0.0
C150 C 0.79987 0.89571 0.67411 0.0
C151 C 0.78409 0.74403 0.55716 0.0
C152 C 0.84219 0.80031 0.27319 0.0
C153 C 0.8385 0.8021 0.16647 0.0
C154 C 0.86646 0.81235 0.16214 0.0
C155 C 0.87007 0.81157 0.26777 0.0
C156 C 0.8265 0.7961 0.2226 0.0
C157 C 0.88212 0.81736 0.21255 0.0
C158 C 0.75205 0.7767 0.46029 0.0
C159 C 0.82962 0.79236 0.33151 0.0
H160 H 0.74075 0.79781 0.8975 0.0
H161 H 0.731 0.78564 0.71177 0.0
H162 H 0.7145 0.79136 0.807 0.0
H163 H 0.80225 0.79393 0.79611 0.0
H164 H 0.87637 0.81636 0.11981 0.0
H165 H 0.88252 0.81573 0.30628 0.0
H166 H 0.80507 0.78834 0.22716 0.0
H167 H 0.90362 0.82556 0.20879 0.0
Eu168 Eu 0.24455 0.99771 0.59065 0.0
C169 C 0.31236 0.09864 0.45138 0.0
N170 N 0.28511 0.08664 0.45552 0.0
C171 C 0.28838 0.12963 0.4701 0.0
C172 C 0.32874 0.1267 0.45936 0.0
C173 C 0.27297 0.10182 0.46107 0.0
C174 C 0.31639 0.14206 0.47044 0.0
C175 C 0.35207 0.09459 0.43567 0.0
C176 C 0.32389 0.08263 0.4405 0.0
C177 C 0.36845 0.12251 0.44439 0.0
C178 C 0.35682 0.13851 0.45631 0.0
Eu179 Eu 0.26084 0.03916 0.44787 0.0
N180 N 0.30755 0.05542 0.4345 0.0
C181 C 0.36291 0.07814 0.42152 0.0
C182 C 0.31793 0.04007 0.41425 0.0
C183 C 0.34571 0.0509 0.40917 0.0
H184 H 0.25134 0.09242 0.45879 0.0
H185 H 0.35378 0.03834 0.39445 0.0
H186 H 0.2549 0.94536 0.57217 0.0
H187 H 0.15062 0.99828 0.63804 0.0
H188 H 0.30504 0.01999 0.39885 0.0
H189 H 0.38441 0.08639 0.4178 0.0
H190 H 0.19737 0.01825 0.60902 0.0
H191 H 0.27863 0.14148 0.47651 0.0
H192 H 0.39014 0.13201 0.4416 0.0
H193 H 0.36972 0.16005 0.46254 0.0
H194 H 0.23172 0.89708 0.59857 0.0
H195 H 0.32829 0.1636 0.47806 0.0
H196 H 0.12444 0.94984 0.66269 0.0
N197 N 0.22196 0.95056 0.59655 0.0
C198 C 0.19649 0.939 0.61798 0.0
C199 C 0.22157 0.9086 0.60394 0.0
C200 C 0.18286 0.91169 0.63514 0.0
C201 C 0.23444 0.93581 0.58805 0.0
C202 C 0.19591 0.89665 0.62877 0.0
N203 N 0.19812 0.98133 0.609 0.0
C204 C 0.18645 0.99699 0.61566 0.0
C205 C 0.15728 0.94258 0.64367 0.0
C206 C 0.18406 0.95458 0.62323 0.0
C207 C 0.14503 0.95839 0.64767 0.0
C208 C 0.15971 0.9857 0.63367 0.0
H209 H 0.18629 0.87575 0.64257 0.0
H210 H 0.14612 0.87938 0.67255 0.0
H211 H 0.12333 0.90601 0.67757 0.0
O212 O 0.24182 1.00614 0.6837 0.0
O213 O 0.21684 0.97339 0.51596 0.0
O214 O 0.21541 1.00644 0.46115 0.0
O215 O 0.25971 0.98208 0.65901 0.0
O216 O 0.24671 0.0399 0.59513 0.0
O217 O 0.23129 0.04365 0.50478 0.0
O218 O 0.26614 0.03455 0.35424 0.0
O219 O 0.28854 0.05907 0.53107 0.0
O220 O 0.28872 0.0233 0.57199 0.0
O221 O 0.24717 0.05726 0.3817 0.0
O222 O 0.25704 0.99791 0.43573 0.0
O223 O 0.27111 0.99011 0.52466 0.0
C224 C 0.2043 0.9809 0.47907 0.0
C225 C 0.2705 1.00219 0.75374 0.0
C226 C 0.27441 1.01072 0.85934 0.0
C227 C 0.30114 1.01603 0.85726 0.0
C228 C 0.29708 1.00722 0.75237 0.0
C229 C 0.31239 1.01439 0.80397 0.0
C230 C 0.2594 1.00421 0.80704 0.0
C231 C 0.23779 0.05213 0.55905 0.0
C232 C 0.25288 0.99235 0.702 0.0
C233 C 0.15673 0.90022 0.65813 0.0
C234 C 0.14375 0.9154 0.66105 0.0
C235 C 0.29967 0.04938 0.56756 0.0
C236 C 0.23568 0.03661 0.28775 0.0
C237 C 0.22992 0.02806 0.18211 0.0
C238 C 0.20236 0.01944 0.18825 0.0
C239 C 0.20812 0.02763 0.29337 0.0
C240 C 0.2463 0.03627 0.23257 0.0
C241 C 0.19156 0.01902 0.24365 0.0
C242 C 0.26745 0.98601 0.4669 0.0
C243 C 0.25431 0.04781 0.33755 0.0
H244 H 0.31315 0.02079 0.89699 0.0
H245 H 0.30598 1.00558 0.71165 0.0
H246 H 0.3329 0.01831 0.80281 0.0
H247 H 0.2388 1.0002 0.80783 0.0
H248 H 0.18919 1.01345 0.15027 0.0
H249 H 0.1995 0.02758 0.33581 0.0
H250 H 0.2675 0.04262 0.22918 0.0
H251 H 0.17036 1.01239 0.2479 0.0
Eu252 Eu 0.04532 0.80424 0.58751 0.0
C253 C 0.94752 0.7727 0.41223 0.0
N254 N 0.95998 0.75877 0.42904 0.0
C255 C 0.91876 0.71679 0.41782 0.0
C256 C 0.92 0.75888 0.39702 0.0
C257 C 0.94618 0.73118 0.431 0.0
C258 C 0.90568 0.73066 0.4002 0.0
C259 C 0.95061 0.81518 0.38339 0.0
C260 C 0.96284 0.80064 0.40416 0.0
C261 C 0.923 0.80153 0.37136 0.0
C262 C 0.90788 0.77346 0.37659 0.0
Eu263 Eu 1.00714 0.78489 0.43593 0.0
N264 N 0.98988 0.8134 0.41343 0.0
C265 C 0.9667 0.84289 0.37264 0.0
C266 C 1.00594 0.83996 0.39873 0.0
C267 C 0.99453 0.85527 0.37977 0.0
H268 H 0.95642 0.71999 0.43934 0.0
H269 H 1.00724 0.87645 0.36947 0.0
H270 H 0.10162 0.86305 0.56548 0.0
H271 H 0.0393 0.71543 0.69476 0.0
H272 H 0.02753 0.84934 0.40171 0.0
H273 H 0.95794 0.85468 0.35679 0.0
H274 H 1.0231 0.74648 0.6661 0.0
H275 H 0.90796 0.69495 0.41898 0.0
H276 H 0.91344 0.81254 0.35612 0.0
H277 H 0.88686 0.76315 0.36385 0.0
H278 H 0.14922 0.87919 0.54027 0.0
H279 H 0.88472 0.71932 0.38733 0.0
H280 H 0.08473 0.7251 0.66598 0.0
N281 N 0.09199 0.82238 0.57554 0.0
C282 C 0.10196 0.80573 0.5868 0.0
C283 C 0.13607 0.85834 0.55241 0.0
C284 C 0.12942 0.81444 0.57782 0.0
C285 C 0.10896 0.849 0.56452 0.0
C286 C 0.14626 0.84079 0.55785 0.0
N287 N 0.05845 0.77278 0.61833 0.0
C288 C 0.04254 0.7504 0.65105 0.0
C289 C 0.09474 0.76291 0.6238 0.0
C290 C 0.08465 0.78011 0.60847 0.0
C291 C 0.07766 0.73869 0.6526 0.0
C292 C 0.0518 0.73293 0.66816 0.0
H293 H 0.16735 0.84812 0.54908 0.0
H294 H 0.16013 0.80298 0.58244 0.0
H295 H 0.12985 0.75794 0.62359 0.0
O296 O 0.05276 0.80472 0.68188 0.0
O297 O 0.06309 0.7932 0.50573 0.0
O298 O 0.02576 0.76001 0.46127 0.0
O299 O 0.05699 0.84051 0.64004 0.0
O300 O 1.00517 0.76565 0.5958 0.0
O301 O 0.9931 0.74802 0.50091 0.0
O302 O 0.03182 0.7938 0.35518 0.0
O303 O 1.00051 0.81201 0.49929 0.0
O304 O 1.0011 0.79581 0.5898 0.0
O305 O 0.98869 0.76843 0.35151 0.0
O306 O 0.05011 0.82206 0.43669 0.0
O307 O 0.05254 0.83963 0.52838 0.0
C308 C 0.05174 0.77223 0.4693 0.0
C309 C 0.04547 0.83435 0.7423 0.0
C310 C 0.03143 0.82517 0.84524 0.0
C311 C 0.02659 0.84689 0.84493 0.0
C312 C 0.04054 0.8561 0.74307 0.0
C313 C 0.03113 0.86225 0.79408 0.0
C314 C 0.04092 0.81892 0.79399 0.0
C315 C 0.99134 0.74533 0.55959 0.0
C316 C 0.0574 0.82919 0.68962 0.0
C317 C 0.13914 0.79674 0.5896 0.0
C318 C 0.12186 0.77105 0.61276 0.0
C319 C 0.98934 0.80392 0.55108 0.0
C320 C 1.01219 0.76452 0.27119 0.0
C321 C 1.01869 0.76314 0.16537 0.0
C322 C 1.00586 0.73485 0.16812 0.0
C323 C 0.99923 0.73621 0.27303 0.0
C324 C 1.02222 0.77793 0.21733 0.0
C325 C 0.99635 0.72151 0.22175 0.0
C326 C 0.06141 0.84257 0.47396 0.0
C327 C 1.01085 0.77989 0.3217 0.0
H328 H 1.01931 0.85196 0.88416 0.0
H329 H 0.04425 0.86862 0.70449 0.0
H330 H 0.02749 0.87909 0.79429 0.0
H331 H 0.04489 0.80225 0.79464 0.0
H332 H 1.0029 0.72308 0.12855 0.0
H333 H 0.99089 0.72546 0.31386 0.0
H334 H 0.03114 0.7997 0.21517 0.0
H335 H 0.98634 0.6997 0.22343 0.0
Eu336 Eu 0.23986 0.2517 0.57497 0.0
C337 C 0.27605 0.18844 0.39193 0.0
N338 N 0.29044 0.21358 0.41513 0.0
C339 C 0.33133 0.21225 0.40468 0.0
C340 C 0.28907 0.1745 0.37225 0.0
C341 C 0.31758 0.22529 0.42356 0.0
C342 C 0.31709 0.18699 0.37777 0.0
C343 C 0.23274 0.14963 0.3681 0.0
C344 C 0.24817 0.17635 0.38922 0.0
C345 C 0.24568 0.13585 0.34767 0.0
C346 C 0.27378 0.1484 0.34891 0.0
Eu347 Eu 0.26657 0.23644 0.43242 0.0
N348 N 0.23615 0.19037 0.40845 0.0
C349 C 0.20471 0.13748 0.36787 0.0
C350 C 0.20874 0.17854 0.40724 0.0
C351 C 0.19269 0.15201 0.38762 0.0
H352 H 0.32883 0.24533 0.44201 0.0
H353 H 0.17099 0.14284 0.38736 0.0
H354 H 0.17634 0.23977 0.56319 0.0
H355 H 0.33221 0.34681 0.62618 0.0
H356 H 0.1987 0.189 0.42091 0.0
H357 H 0.19219 0.11696 0.35236 0.0
H358 H 0.30452 0.29799 0.61285 0.0
H359 H 0.35293 0.22187 0.41007 0.0
H360 H 0.23413 0.11541 0.33098 0.0
H361 H 0.28345 0.13741 0.33346 0.0
H362 H 0.15316 0.26579 0.54769 0.0
H363 H 0.32783 0.17698 0.36279 0.0
H364 H 0.31184 0.37584 0.61535 0.0
N365 N 0.21517 0.2745 0.56942 0.0
C366 C 0.22946 0.30176 0.57627 0.0
C367 C 0.17467 0.27619 0.55501 0.0
C368 C 0.21684 0.31741 0.57027 0.0
C369 C 0.18792 0.26151 0.56276 0.0
C370 C 0.18929 0.3043 0.55762 0.0
N371 N 0.26883 0.29865 0.59172 0.0
C372 C 0.29535 0.31007 0.60655 0.0
C373 C 0.27209 0.3424 0.59598 0.0
C374 C 0.25691 0.31414 0.58853 0.0
C375 C 0.29952 0.35422 0.60907 0.0
C376 C 0.31112 0.33794 0.61494 0.0
H377 H 0.17904 0.31567 0.55103 0.0
H378 H 0.22261 0.35784 0.57249 0.0
H379 H 0.27092 0.37971 0.59542 0.0
O380 O 0.24734 0.25555 0.67088 0.0
O381 O 0.25161 0.28203 0.49457 0.0
O382 O 0.28638 0.2774 0.47219 0.0
O383 O 0.20633 0.23371 0.63579 0.0
O384 O 0.27697 0.24799 0.5919 0.0
O385 O 0.30012 0.25797 0.50372 0.0
O386 O 0.25769 0.24381 0.34124 0.0
O387 O 0.2607 0.20559 0.50109 0.0
O388 O 0.22894 0.20658 0.56192 0.0
O389 O 0.2984 0.25452 0.36799 0.0
O390 O 0.22736 0.24027 0.42574 0.0
O391 O 0.20702 0.22358 0.51384 0.0
C392 C 0.27421 0.29104 0.46477 0.0
C393 C 0.21012 0.23565 0.74169 0.0
C394 C 0.21542 0.23749 0.8484 0.0
C395 C 0.18725 0.22284 0.85432 0.0
C396 C 0.18207 0.2207 0.74869 0.0
C397 C 0.17075 0.21451 0.80469 0.0
C398 C 0.22677 0.24396 0.7917 0.0
C399 C 0.2993 0.25548 0.56225 0.0
C400 C 0.22163 0.24186 0.6821 0.0
C401 C 0.23202 0.34554 0.57694 0.0
C402 C 0.25952 0.35798 0.59004 0.0
C403 C 0.24245 0.19476 0.54224 0.0
C404 C 0.29373 0.26414 0.26725 0.0
C405 C 0.28833 0.26479 0.1608 0.0
C406 C 0.31639 0.28162 0.15553 0.0
C407 C 0.32162 0.28107 0.26076 0.0
C408 C 0.27707 0.25632 0.21729 0.0
C409 C 0.3328 0.2899 0.20526 0.0
C410 C 0.20591 0.23151 0.46056 0.0
C411 C 0.28274 0.25348 0.32584 0.0
H412 H 0.17793 0.21805 0.89739 0.0
H413 H 0.16885 0.2136 0.7108 0.0
H414 H 0.14909 0.20318 0.80964 0.0
H415 H 0.24845 0.25505 0.78653 0.0
H416 H 0.32586 0.28799 0.11283 0.0
H417 H 0.3349 0.28738 0.29864 0.0
H418 H 0.25553 0.24338 0.22241 0.0
H419 H 0.35433 0.30281 0.20067 0.0
Eu420 Eu 0.79349 0.99659 0.58102 0.0
C421 C 0.85406 0.09397 0.40053 0.0
N422 N 0.82873 0.08181 0.42277 0.0
C423 C 0.8278 0.12314 0.41596 0.0
C424 C 0.8671 0.12136 0.38389 0.0
C425 C 0.81555 0.09588 0.43126 0.0
C426 C 0.85355 0.13585 0.39145 0.0
C427 C 0.89369 0.09151 0.37317 0.0
C428 C 0.86707 0.07901 0.39475 0.0
C429 C 0.90661 0.11873 0.35607 0.0
C430 C 0.89319 0.13346 0.36049 0.0
Eu431 Eu 0.80769 0.03485 0.43399 0.0
N432 N 0.85378 0.05238 0.40998 0.0
C433 C 0.90644 0.07619 0.36824 0.0
C434 C 0.86589 0.03718 0.40258 0.0
C435 C 0.89243 0.0489 0.38284 0.0
H436 H 0.79518 0.08587 0.44774 0.0
H437 H 0.90189 0.0367 0.37778 0.0
H438 H 0.79878 0.9413 0.56205 0.0
H439 H 0.70629 1.0021 0.66185 0.0
H440 H 0.85541 1.01592 0.40997 0.0
H441 H 0.92689 0.0851 0.35215 0.0
H442 H 0.75429 1.01801 0.64684 0.0
H443 H 0.81719 0.13419 0.42202 0.0
H444 H 0.92694 0.12854 0.33895 0.0
H445 H 0.90341 0.15441 0.34682 0.0
H446 H 0.76897 0.89279 0.5415 0.0
H447 H 0.86284 0.15689 0.37881 0.0
H448 H 0.67279 0.95507 0.63769 0.0
N449 N 0.76672 0.94938 0.5711 0.0
C450 C 0.7398 0.93868 0.57962 0.0
C451 C 0.76047 0.9055 0.5515 0.0
C452 C 0.72202 0.91084 0.57182 0.0
C453 C 0.77732 0.93307 0.56147 0.0
C454 C 0.73264 0.89436 0.55604 0.0
N455 N 0.74787 0.98275 0.602 0.0
C456 C 0.73978 0.99864 0.62974 0.0
C457 C 0.70244 0.94514 0.6061 0.0
C458 C 0.73012 0.95586 0.595 0.0
C459 C 0.69372 0.96241 0.62772 0.0
C460 C 0.71258 0.98912 0.64102 0.0
H461 H 0.7196 0.87293 0.54869 0.0
H462 H 0.68033 0.87902 0.57428 0.0
H463 H 0.66327 0.90881 0.60553 0.0
O464 O 0.78919 0.99922 0.67565 0.0
O465 O 0.76622 0.97478 0.49799 0.0
O466 O 0.76464 1.01 0.46113 0.0
O467 O 0.80909 0.9783 0.64252 0.0
O468 O 0.79695 0.03786 0.59052 0.0
O469 O 0.78156 0.04275 0.50063 0.0
O470 O 0.80809 0.02517 0.33909 0.0
O471 O 0.83684 0.06174 0.50442 0.0
O472 O 0.83831 0.0311 0.56834 0.0
O473 O 0.78688 0.04562 0.37025 0.0
O474 O 0.80775 0.99324 0.43271 0.0
O475 O 0.82401 0.99395 0.52459 0.0
C476 C 0.7542 0.98406 0.46317 0.0
C477 C 0.82041 0.99685 0.73913 0.0
C478 C 0.82586 1.00615 0.84466 0.0
C479 C 0.85254 1.01137 0.84047 0.0
C480 C 0.84712 1.00243 0.73555 0.0
C481 C 0.86312 1.00983 0.78613 0.0
C482 C 0.81019 0.99939 0.79319 0.0
C483 C 0.78573 0.04845 0.55773 0.0
C484 C 0.80186 0.9864 0.68891 0.0
C485 C 0.69433 0.90037 0.58013 0.0
C486 C 0.68459 0.91742 0.59759 0.0
C487 C 0.84935 0.05572 0.54471 0.0
C488 C 0.78178 0.03518 0.26784 0.0
C489 C 0.78263 0.03151 0.16133 0.0
C490 C 0.75883 0.03282 0.15754 0.0
C491 C 0.75792 0.03633 0.26337 0.0
C492 C 0.79406 0.03275 0.21676 0.0
C493 C 0.74658 0.0352 0.20837 0.0
C494 C 0.81764 0.98312 0.47216 0.0
C495 C 0.79367 0.03623 0.32567 0.0
H496 H 0.86514 1.01611 0.87919 0.0
H497 H 0.85547 1.00068 0.69413 0.0
H498 H 0.88363 1.01383 0.78346 0.0
H499 H 0.78974 0.9957 0.79491 0.0
H500 H 0.74984 0.03227 0.11519 0.0
H501 H 0.74796 0.03799 0.30233 0.0
H502 H 0.8123 0.03153 0.22017 0.0
H503 H 0.72826 0.0362 0.20513 0.0
Eu504 Eu 0.71268 0.58627 0.92485 0.0
C505 C 0.61472 0.56054 0.77779 0.0
N506 N 0.62607 0.54488 0.78597 0.0
C507 C 0.58277 0.5061 0.80148 0.0
C508 C 0.58673 0.54959 0.78379 0.0
C509 C 0.61045 0.5177 0.79292 0.0
C510 C 0.57087 0.5222 0.79779 0.0
C511 C 0.61963 0.60375 0.75013 0.0
C512 C 0.6311 0.58741 0.76162 0.0
C513 C 0.59181 0.59303 0.75747 0.0
C514 C 0.57543 0.5661 0.77451 0.0
Eu515 Eu 0.67309 0.56658 0.77867 0.0
N516 N 0.65799 0.59717 0.75479 0.0
C517 C 0.63632 0.63011 0.72992 0.0
C518 C 0.6739 0.62211 0.73104 0.0
C519 C 0.66349 0.63916 0.7194 0.0
H520 H 0.61933 0.50494 0.79213 0.0
H521 H 0.67634 0.65907 0.70126 0.0
H522 H 0.76439 0.65048 0.91287 0.0
H523 H 0.71246 0.49554 0.99864 0.0
H524 H 0.69429 0.6286 0.71875 0.0
H525 H 0.62825 0.64327 0.72032 0.0
H526 H 0.69227 0.52287 0.96701 0.0
H527 H 0.57061 0.4847 0.81012 0.0
H528 H 0.5826 0.60517 0.74886 0.0
H529 H 0.55395 0.55806 0.77897 0.0
H530 H 0.81352 0.67475 0.92225 0.0
H531 H 0.54936 0.51315 0.80395 0.0
H532 H 0.76198 0.51628 1.00348 0.0
N533 N 0.7601 0.61155 0.92628 0.0
C534 C 0.77263 0.59758 0.942 0.0
C535 C 0.80231 0.65302 0.92701 0.0
C536 C 0.80074 0.61101 0.95043 0.0
C537 C 0.77439 0.639 0.92019 0.0
C538 C 0.81553 0.639 0.94238 0.0
N539 N 0.72995 0.55785 0.94919 0.0
C540 C 0.71387 0.53178 0.96719 0.0
C541 C 0.76952 0.55546 0.97379 0.0
C542 C 0.75716 0.57009 0.95423 0.0
C543 C 0.75321 0.52818 0.98842 0.0
C544 C 0.72525 0.51637 0.98566 0.0
H545 H 0.83706 0.65012 0.94964 0.0
H546 H 0.8346 0.60643 0.97657 0.0
H547 H 0.80745 0.55774 0.99498 0.0
O548 O 0.68872 0.57786 1.00587 0.0
O549 O 0.71802 0.55784 0.86381 0.0
O550 O 0.71695 0.57465 0.77477 0.0
O551 O 0.73168 0.6062 1.00671 0.0
O552 O 0.6693 0.54919 0.92749 0.0
O553 O 0.66636 0.53121 0.83645 0.0
O554 O 0.66834 0.56854 0.68391 0.0
O555 O 0.65562 0.57839 0.86118 0.0
O556 O 0.69548 0.61114 0.89201 0.0
O557 O 0.66285 0.53112 0.72398 0.0
O558 O 0.71408 0.604 0.76609 0.0
O559 O 0.72497 0.62269 0.85934 0.0
C560 C 0.72829 0.56537 0.81132 0.0
C561 C 0.70722 0.60766 0.08875 0.0
C562 C 0.7016 0.6068 0.19517 0.0
C563 C 0.70987 0.63449 0.19387 0.0
C564 C 0.7163 0.6354 0.08829 0.0
C565 C 0.7169 0.64858 0.14054 0.0
C566 C 0.69942 0.59342 0.14181 0.0
C567 C 0.65773 0.5284 0.89086 0.0
C568 C 0.70978 0.59369 0.03743 0.0
C569 C 0.8131 0.59636 0.96904 0.0
C570 C 0.79759 0.56864 0.98002 0.0
C571 C 0.66953 0.60026 0.89393 0.0
C572 C 0.65785 0.53141 0.61738 0.0
C573 C 0.66111 0.53611 0.51056 0.0
C574 C 0.65031 0.50804 0.50553 0.0
C575 C 0.64717 0.50347 0.61152 0.0
C576 C 0.66472 0.54764 0.56679 0.0
C577 C 0.64336 0.49188 0.55576 0.0
C578 C 0.72781 0.62489 0.80079 0.0
C579 C 0.66325 0.54386 0.676 0.0
H580 H 0.71195 0.64553 0.23412 0.0
H581 H 0.72357 0.64695 0.04807 0.0
H582 H 0.72381 0.67 0.14006 0.0
H583 H 0.69277 0.57202 0.14165 0.0
H584 H 0.64697 0.49853 0.46272 0.0
H585 H 0.6419 0.49061 0.64998 0.0
H586 H 0.67359 0.56933 0.57117 0.0
H587 H 0.63507 0.4703 0.55146 0.0
Eu588 Eu 0.4651 0.14343 0.91609 0.0
C589 C 0.47519 0.05647 0.78897 0.0
N590 N 0.49205 0.08357 0.79264 0.0
C591 C 0.52842 0.07653 0.82021 0.0
C592 C 0.48419 0.0383 0.80371 0.0
C593 C 0.51881 0.09357 0.80249 0.0
C594 C 0.51092 0.04873 0.82169 0.0
C595 C 0.43202 0.01897 0.75924 0.0
C596 C 0.44925 0.04694 0.76775 0.0
C597 C 0.44058 1.00079 0.77595 0.0
C598 C 0.46654 1.01043 0.79843 0.0
Eu599 Eu 0.47287 0.11108 0.77365 0.0
N600 N 0.44148 0.06501 0.75204 0.0
C601 C 0.40704 1.01009 0.73227 0.0
C602 C 0.41783 0.05645 0.72205 0.0
C603 C 0.40014 0.02896 0.71266 0.0
H604 H 0.53294 0.11446 0.79449 0.0
H605 H 0.38127 0.02237 0.68986 0.0
H606 H 0.39953 0.11994 0.93534 0.0
H607 H 0.55148 0.2418 0.96611 0.0
H608 H 0.41239 0.07074 0.705 0.0
H609 H 0.39336 0.98881 0.72457 0.0
H610 H 0.52813 0.19367 0.93677 0.0
H611 H 0.54947 0.08479 0.83093 0.0
H612 H 0.42748 0.97924 0.77027 0.0
H613 H 0.47308 0.99619 0.80988 0.0
H614 H 0.3697 0.13723 0.96786 0.0
H615 H 0.51857 0.03549 0.83393 0.0
H616 H 0.52496 0.26391 0.9899 0.0
N617 N 0.43489 0.15847 0.93862 0.0
C618 C 0.4462 0.18502 0.95327 0.0
C619 C 0.39114 0.15086 0.96378 0.0
C620 C 0.4302 0.1953 0.97567 0.0
C621 C 0.40794 0.14121 0.94475 0.0
C622 C 0.40232 0.17802 0.97942 0.0
N623 N 0.4893 0.18981 0.93762 0.0
C624 C 0.51659 0.2036 0.94488 0.0
C625 C 0.48657 0.22811 0.97239 0.0
C626 C 0.47418 0.2012 0.95226 0.0
C627 C 0.51472 0.24311 0.9751 0.0
C628 C 0.52978 0.2307 0.9619 0.0
H629 H 0.38933 0.18529 0.99572 0.0
H630 H 0.4306 0.23029 0.01355 0.0
H631 H 0.47976 0.25918 1.009 0.0
O632 O 0.47091 0.12006 0.98563 0.0
O633 O 0.49284 0.17312 0.84871 0.0
O634 O 0.47144 0.15161 0.7651 0.0
O635 O 0.46263 0.15183 1.0085 0.0
O636 O 0.50399 0.14004 0.91014 0.0
O637 O 0.51256 0.14372 0.81127 0.0
O638 O 0.46159 0.10892 0.68115 0.0
O639 O 0.46396 0.08773 0.86318 0.0
O640 O 0.435 0.09968 0.90124 0.0
O641 O 0.50148 0.11694 0.70427 0.0
O642 O 0.43 0.10008 0.78913 0.0
O643 O 0.43142 0.13453 0.8439 0.0
C644 C 0.48328 0.1741 0.79721 0.0
C645 C 0.44924 0.11702 0.07652 0.0
C646 C 0.4447 0.10728 0.1815 0.0
C647 C 0.41673 0.09074 0.17375 0.0
C648 C 0.42128 0.10164 0.06988 0.0
C649 C 0.40514 0.08804 0.11818 0.0
C650 C 0.46082 0.12 0.13214 0.0
C651 C 0.52062 0.14441 0.86577 0.0
C652 C 0.4666 0.13282 0.02795 0.0
C653 C 0.44257 0.22209 0.99586 0.0
C654 C 0.47059 0.2386 0.99307 0.0
C655 C 0.44316 0.08203 0.89769 0.0
C656 C 0.49637 0.13522 0.61496 0.0
C657 C 0.49441 0.1466 0.5128 0.0
C658 C 0.51822 0.17134 0.52062 0.0
C659 C 0.51986 0.16031 0.62298 0.0
C660 C 0.48349 0.12869 0.5601 0.0
C661 C 0.5307 0.17826 0.57579 0.0
C662 C 0.42032 0.11579 0.80155 0.0
C663 C 0.48529 0.11502 0.66197 0.0
H664 H 0.40379 0.08025 0.21071 0.0
H665 H 0.412 0.1006 0.02778 0.0
H666 H 0.38356 0.07582 0.1128 0.0
H667 H 0.48231 0.13339 0.13723 0.0
H668 H 0.52698 0.18529 0.48422 0.0
H669 H 0.52995 0.16589 0.66529 0.0
H670 H 0.46534 0.10934 0.55375 0.0
H671 H 0.54894 0.19747 0.58183 0.0
Eu672 Eu 0.90696 0.33456 0.91711 0.0
C673 C 0.985 0.4319 0.77509 0.0
N674 N 0.95828 0.42081 0.78587 0.0
C675 C 0.96514 0.46373 0.81776 0.0
C676 C 1.00311 0.4592 0.78872 0.0
C677 C 0.94807 0.43699 0.8006 0.0
C678 C 0.99291 0.47478 0.81286 0.0
C679 C 1.02127 0.42756 0.73257 0.0
C680 C 0.99396 0.41603 0.74856 0.0
C681 C 0.03961 0.45447 0.7478 0.0
C682 C 0.03057 0.4702 0.77627 0.0
Eu683 Eu 0.93061 0.37414 0.76627 0.0
N684 N 0.97575 0.3899 0.73517 0.0
C685 C 0.02915 0.41207 0.69964 0.0
C686 C 0.9831 0.37546 0.69946 0.0
C687 C 1.00984 0.38627 0.6814 0.0
H688 H 0.9269 0.42964 0.79666 0.0
H689 H 1.01549 0.375 0.65225 0.0
H690 H 0.92124 0.28377 0.92267 0.0
H691 H 0.81469 0.33412 0.97623 0.0
H692 H 0.96821 0.35592 0.68289 0.0
H693 H 0.0498 0.42032 0.68578 0.0
H694 H 0.86235 0.35451 0.94773 0.0
H695 H 0.95685 0.47611 0.83219 0.0
H696 H 0.06072 0.4635 0.73648 0.0
H697 H 0.0448 0.49109 0.78668 0.0
H698 H 0.89741 0.23497 0.94074 0.0
H699 H 1.00612 0.49575 0.82451 0.0
H700 H 0.7869 0.28463 0.9875 0.0
N701 N 0.88576 0.28707 0.9258 0.0
C702 C 0.85905 0.27437 0.93926 0.0
C703 C 0.88631 0.2457 0.93942 0.0
C704 C 0.84499 0.24661 0.95315 0.0
C705 C 0.89962 0.27332 0.92748 0.0
C706 C 0.85892 0.2323 0.95238 0.0
N707 N 0.86085 0.31681 0.93689 0.0
C708 C 0.85014 0.33285 0.95006 0.0
C709 C 0.81926 0.27727 0.96386 0.0
C710 C 0.84635 0.28964 0.94537 0.0
C711 C 0.80763 0.29343 0.97334 0.0
C712 C 0.82323 0.32137 0.96696 0.0
H713 H 0.84896 0.2111 0.96387 0.0
H714 H 0.80702 0.21312 0.9825 0.0
H715 H 0.78421 0.23961 0.98934 0.0
O716 O 0.9203 0.35923 0.99771 0.0
O717 O 0.87514 0.32874 0.8507 0.0
O718 O 0.89455 0.32955 0.76327 0.0
O719 O 0.90435 0.31615 1.00207 0.0
O720 O 0.91119 0.37741 0.91347 0.0
O721 O 0.89899 0.37806 0.81797 0.0
O722 O 0.93621 0.37811 0.67108 0.0
O723 O 0.95702 0.39149 0.85103 0.0
O724 O 0.95125 0.35399 0.89911 0.0
O725 O 0.90929 0.38916 0.71244 0.0
O726 O 0.93421 0.33686 0.7603 0.0
O727 O 0.9278 0.31754 0.8539 0.0
C728 C 0.87354 0.31788 0.79924 0.0
C729 C 0.93147 0.34127 0.0811 0.0
C730 C 0.94005 0.34923 0.18619 0.0
C731 C 0.95987 0.34165 0.18178 0.0
C732 C 0.95101 0.3334 0.07724 0.0
C733 C 0.96531 0.33384 0.12749 0.0
C734 C 0.92611 0.34913 0.13528 0.0
C735 C 0.90228 0.38735 0.87203 0.0
C736 C 0.91404 0.33847 0.03143 0.0
C737 C 0.81793 0.23426 0.97054 0.0
C738 C 0.80499 0.24943 0.97501 0.0
C739 C 0.96552 0.37996 0.8896 0.0
C740 C 0.9002 0.37419 0.6127 0.0
C741 C 0.8928 0.35981 0.50997 0.0
C742 C 0.86752 0.35806 0.51173 0.0
C743 C 0.87467 0.37199 0.61388 0.0
C744 C 0.90898 0.36764 0.56065 0.0
C745 C 0.85843 0.36384 0.56368 0.0
C746 C 0.93467 0.31933 0.79697 0.0
C747 C 0.91884 0.38605 0.66292 0.0
H748 H 0.97116 0.34178 0.22019 0.0
H749 H 0.95505 0.32685 0.03563 0.0
H750 H 0.98054 0.32797 0.12444 0.0
H751 H 0.9101 0.35397 0.13813 0.0
H752 H 0.85487 0.35226 0.47285 0.0
H753 H 0.86747 0.37714 0.65309 0.0
H754 H 0.92885 0.36976 0.55864 0.0
H755 H 0.83893 0.3625 0.56474 0.0
Eu756 Eu 0.71374 0.136 0.91782 0.0
C757 C 0.61718 0.1063 0.74893 0.0
N758 N 0.63039 0.09305 0.7654 0.0
C759 C 0.58893 0.05078 0.76326 0.0
C760 C 0.58915 0.09204 0.73903 0.0
C761 C 0.61681 0.06555 0.77062 0.0
C762 C 0.57504 0.06405 0.74745 0.0
C763 C 0.61901 0.14768 0.71568 0.0
C764 C 0.63198 0.13388 0.73684 0.0
C765 C 0.59104 0.1336 0.70752 0.0
C766 C 0.57624 0.10584 0.71843 0.0
Eu767 Eu 0.67783 0.11981 0.76729 0.0
N768 N 0.65917 0.14701 0.74345 0.0
C769 C 0.63468 0.17509 0.70145 0.0
C770 C 0.67469 0.1733 0.72636 0.0
C771 C 0.66265 0.1879 0.70648 0.0
H772 H 0.62732 0.05454 0.77771 0.0
H773 H 0.67496 0.20888 0.69406 0.0
H774 H 0.77208 0.19097 0.88622 0.0
H775 H 0.69784 0.04241 0.02116 0.0
H776 H 0.69635 0.18297 0.72809 0.0
H777 H 0.62541 0.18636 0.68523 0.0
H778 H 0.68659 0.07755 0.99564 0.0
H779 H 0.5783 0.02903 0.76775 0.0
H780 H 0.58073 0.14385 0.69122 0.0
H781 H 0.55484 0.09509 0.70934 0.0
H782 H 0.8188 0.20316 0.86323 0.0
H783 H 0.55354 0.05238 0.73982 0.0
H784 H 0.74285 0.04917 0.99713 0.0
N785 N 0.75957 0.1501 0.9044 0.0
C786 C 0.76765 0.13221 0.91909 0.0
C787 C 0.80464 0.18306 0.87856 0.0
C788 C 0.79472 0.13891 0.91206 0.0
C789 C 0.77791 0.17584 0.88894 0.0
C790 C 0.81312 0.16447 0.88997 0.0
N791 N 0.72297 0.10183 0.94928 0.0
C792 C 0.7054 0.07972 0.9809 0.0
C793 C 0.75656 0.08828 0.9571 0.0
C794 C 0.74868 0.10714 0.94083 0.0
C795 C 0.73759 0.06418 0.98389 0.0
C796 C 0.71211 0.0602 0.99717 0.0
H797 H 0.834 0.17026 0.88289 0.0
H798 H 0.82296 0.12437 0.92006 0.0
H799 H 0.78963 0.0801 0.96003 0.0
O800 O 0.7206 0.13626 0.01224 0.0
O801 O 0.73281 0.12729 0.83427 0.0
O802 O 0.69607 0.09425 0.78906 0.0
O803 O 0.7284 0.1731 0.96895 0.0
O804 O 0.67175 0.0999 0.92354 0.0
O805 O 0.66662 0.08258 0.83008 0.0
O806 O 0.70194 0.12958 0.68595 0.0
O807 O 0.67053 0.14668 0.8298 0.0
O808 O 0.66998 0.12914 0.91944 0.0
O809 O 0.65881 0.10276 0.68372 0.0
O810 O 0.72049 0.15876 0.77005 0.0
O811 O 0.72056 0.17231 0.86463 0.0
C812 C 0.72198 0.10651 0.79721 0.0
C813 C 0.71527 0.16776 0.06982 0.0
C814 C 0.70188 0.16063 0.17298 0.0
C815 C 0.69745 0.18261 0.1707 0.0
C816 C 0.71047 0.1896 0.06804 0.0
C817 C 0.7015 0.19685 0.11824 0.0
C818 C 0.71062 0.15316 0.12248 0.0
C819 C 0.66115 0.07918 0.88769 0.0
C820 C 0.72713 0.16138 0.01902 0.0
C821 C 0.80234 0.11974 0.92593 0.0
C822 C 0.78331 0.09448 0.94833 0.0
C823 C 0.65923 0.13869 0.88143 0.0
C824 C 0.68264 0.10065 0.60201 0.0
C825 C 0.69004 0.10119 0.49615 0.0
C826 C 0.68009 0.07314 0.49809 0.0
C827 C 0.67173 0.07258 0.60265 0.0
C828 C 0.69152 0.11478 0.54887 0.0
C829 C 0.67065 0.05896 0.55084 0.0
C830 C 0.73051 0.1778 0.81121 0.0
C831 C 0.68079 0.11509 0.65332 0.0
H832 H 0.69067 0.1886 0.2094 0.0
H833 H 0.71402 0.20134 0.02825 0.0
H834 H 0.69796 0.21375 0.11666 0.0
H835 H 0.71451 0.13645 0.12483 0.0
H836 H 0.67922 0.06202 0.45878 0.0
H837 H 0.66376 0.06119 0.64293 0.0
H838 H 0.69809 0.13616 0.54832 0.0
H839 H 0.66251 0.03732 0.55158 0.0
Eu840 Eu 0.90929 0.58949 0.91408 0.0
C841 C 0.93853 0.51891 0.74434 0.0
N842 N 0.95163 0.54553 0.75927 0.0
C843 C 0.99425 0.54775 0.74772 0.0
C844 C 0.95305 0.50578 0.72995 0.0
C845 C 0.97911 0.56021 0.75937 0.0
C846 C 0.98119 0.52044 0.73286 0.0
C847 C 0.89681 0.47847 0.71737 0.0
C848 C 0.91067 0.50544 0.73744 0.0
C849 C 0.91117 0.4651 0.70526 0.0
C850 C 0.93922 0.47888 0.71044 0.0
Eu851 Eu 0.92434 0.56539 0.76903 0.0
N852 N 0.89735 0.51923 0.74634 0.0
C853 C 0.86908 0.46617 0.70698 0.0
C854 C 0.87072 0.50798 0.73196 0.0
C855 C 0.85604 0.48109 0.71373 0.0
H856 H 0.98957 0.5818 0.76594 0.0
H857 H 0.83481 0.47206 0.70381 0.0
H858 H 0.85385 0.59187 0.88203 0.0
H859 H 1.00636 0.67167 0.99287 0.0
H860 H 0.86076 0.51973 0.73498 0.0
H861 H 0.85776 0.44548 0.69171 0.0
H862 H 0.97061 0.62448 0.98045 0.0
H863 H 1.01602 0.55945 0.74817 0.0
H864 H 0.90088 0.44442 0.68965 0.0
H865 H 0.95012 0.46867 0.6981 0.0
H866 H 0.84117 0.62534 0.85061 0.0
H867 H 0.99304 0.5111 0.72175 0.0
H868 H 0.99864 0.70862 0.96065 0.0
N869 N 0.89509 0.62065 0.89212 0.0
C870 C 0.91347 0.6472 0.89953 0.0
C871 C 0.86169 0.63182 0.86348 0.0
C872 C 0.90689 0.66727 0.88603 0.0
C873 C 0.86906 0.61276 0.8789 0.0
C874 C 0.88077 0.65926 0.86655 0.0
N875 N 0.94446 0.63412 0.93365 0.0
C876 C 0.96776 0.64018 0.96217 0.0
C877 C 0.95838 0.68149 0.92854 0.0
C878 C 0.93897 0.65412 0.92008 0.0
C879 C 0.98324 0.68782 0.95317 0.0
C880 C 0.98774 0.66704 0.97108 0.0
H881 H 0.8749 0.67405 0.85549 0.0
H882 H 0.92192 0.71032 0.88207 0.0
H883 H 0.96706 0.72268 0.91859 0.0
O884 O 0.91175 0.59919 1.00761 0.0
O885 O 0.91872 0.61443 0.82541 0.0
O886 O 0.95198 0.60796 0.79642 0.0
O887 O 0.87309 0.57253 0.96792 0.0
O888 O 0.94385 0.58181 0.92743 0.0
O889 O 0.96173 0.58792 0.83391 0.0
O890 O 0.91551 0.58365 0.69303 0.0
O891 O 0.8973 0.53233 0.83211 0.0
O892 O 0.91376 0.55091 0.92156 0.0
O893 O 0.9381 0.56292 0.68162 0.0
O894 O 0.88512 0.5687 0.77149 0.0
O895 O 0.87272 0.55763 0.86722 0.0
C896 C 0.94135 0.62337 0.79549 0.0
C897 C 0.87892 0.56521 0.06847 0.0
C898 C 0.8842 0.56029 0.1738 0.0
C899 C 0.86262 0.53353 0.1706 0.0
C900 C 0.8578 0.53833 0.06619 0.0
C901 C 0.84984 0.52261 0.11705 0.0
C902 C 0.89232 0.57585 0.12202 0.0
C903 C 0.96428 0.58774 0.89261 0.0
C904 C 0.88621 0.58298 0.01664 0.0
C905 C 0.92649 0.69455 0.89256 0.0
C906 C 0.95218 0.70161 0.91354 0.0
C907 C 0.90483 0.53004 0.885 0.0
C908 C 0.94187 0.59236 0.60585 0.0
C909 C 0.94388 0.59823 0.4997 0.0
C910 C 0.9702 0.62011 0.50497 0.0
C911 C 0.96879 0.61283 0.61028 0.0
C912 C 0.92956 0.58503 0.55057 0.0
C913 C 0.9826 0.62731 0.56021 0.0
C914 C 0.86649 0.56023 0.81322 0.0
C915 C 0.92727 0.57543 0.65601 0.0
H916 H 0.85514 0.52105 0.20955 0.0
H917 H 0.84715 0.52954 0.02547 0.0
H918 H 0.83332 0.50202 0.11521 0.0
H919 H 0.909 0.5964 0.12311 0.0
H920 H 0.9816 0.63065 0.46622 0.0
H921 H 0.97926 0.61697 0.65188 0.0
H922 H 0.90916 0.56817 0.54684 0.0
H923 H 1.00328 0.64342 0.56388 0.0
Eu924 Eu 0.45946 0.32851 0.91815 0.0
C925 C 0.51784 0.42876 0.73751 0.0
N926 N 0.49273 0.41615 0.76114 0.0
C927 C 0.48986 0.45634 0.75061 0.0
C928 C 0.52952 0.45558 0.7173 0.0
C929 C 0.47885 0.42959 0.76913 0.0
C930 C 0.51509 0.46924 0.72369 0.0
C931 C 0.55843 0.42788 0.711 0.0
C932 C 0.53203 0.41488 0.73388 0.0
C933 C 0.56979 0.45435 0.68946 0.0
C934 C 0.55522 0.46798 0.69173 0.0
Eu935 Eu 0.4739 0.36948 0.77688 0.0
N936 N 0.52026 0.38894 0.75366 0.0
C937 C 0.57257 0.41382 0.70977 0.0
C938 C 0.53388 0.37503 0.75119 0.0
C939 C 0.56025 0.38731 0.7301 0.0
H940 H 0.4587 0.41929 0.78683 0.0
H941 H 0.57094 0.37617 0.72892 0.0
H942 H 0.46661 0.27453 0.8931 0.0
H943 H 0.36895 0.33162 0.98534 0.0
H944 H 0.52485 0.35451 0.76502 0.0
H945 H 0.59293 0.42318 0.69288 0.0
H946 H 0.41697 0.35 0.96772 0.0
H947 H 0.47861 0.46679 0.75588 0.0
H948 H 0.58989 0.46449 0.67107 0.0
H949 H 0.56435 0.48846 0.67519 0.0
H950 H 0.4377 0.22641 0.86759 0.0
H951 H 0.52337 0.48985 0.7085 0.0
H952 H 0.33739 0.28297 0.9701 0.0
N953 N 0.43392 0.28148 0.90454 0.0
C954 C 0.40694 0.26998 0.91368 0.0
C955 C 0.42876 0.23851 0.87963 0.0
C956 C 0.38975 0.24206 0.90488 0.0
C957 C 0.4451 0.26592 0.89224 0.0
C958 C 0.40094 0.22648 0.886 0.0
N959 N 0.41319 0.31356 0.93521 0.0
C960 C 0.40363 0.32944 0.95669 0.0
C961 C 0.36856 0.27459 0.94179 0.0
C962 C 0.39638 0.28633 0.93037 0.0
C963 C 0.35859 0.29122 0.96072 0.0
C964 C 0.37628 0.31872 0.96873 0.0
H965 H 0.38839 0.20505 0.87782 0.0
H966 H 0.34858 0.20914 0.90837 0.0
H967 H 0.3301 0.2375 0.94172 0.0
O968 O 0.45216 0.33013 0.01159 0.0
O969 O 0.43128 0.31022 0.83544 0.0
O970 O 0.43049 0.3467 0.80076 0.0
O971 O 0.47325 0.30964 0.98252 0.0
O972 O 0.46752 0.37067 0.93094 0.0
O973 O 0.45143 0.38092 0.84889 0.0
O974 O 0.47085 0.35255 0.68849 0.0
O975 O 0.50614 0.39424 0.84314 0.0
O976 O 0.50494 0.36288 0.90954 0.0
O977 O 0.45986 0.38328 0.70285 0.0
O978 O 0.47433 0.32784 0.77259 0.0
O979 O 0.48967 0.32497 0.86354 0.0
C980 C 0.41939 0.32067 0.80365 0.0
C981 C 0.48312 0.32948 0.07789 0.0
C982 C 0.48795 0.33918 0.18327 0.0
C983 C 0.51595 0.35 0.17768 0.0
C984 C 0.51106 0.34071 0.07286 0.0
C985 C 0.52736 0.35094 0.12273 0.0
C986 C 0.47181 0.32926 0.13263 0.0
C987 C 0.45692 0.38384 0.90646 0.0
C988 C 0.46498 0.31774 0.02737 0.0
C989 C 0.36204 0.23058 0.91479 0.0
C990 C 0.35152 0.24674 0.93369 0.0
C991 C 0.51727 0.38745 0.88501 0.0
C992 C 0.44521 0.35881 0.61344 0.0
C993 C 0.44106 0.35213 0.50721 0.0
C994 C 0.41423 0.34639 0.5106 0.0
C995 C 0.41862 0.35361 0.61616 0.0
C996 C 0.45626 0.35792 0.55913 0.0
C997 C 0.40315 0.34722 0.56483 0.0
C998 C 0.48419 0.31654 0.80924 0.0
C999 C 0.46311 0.36829 0.66463 0.0
H1000 H 0.52904 0.35736 0.21576 0.0
H1001 H 0.52022 0.34145 0.03072 0.0
H1002 H 0.5489 0.35937 0.11894 0.0
H1003 H 0.45028 0.32136 0.13539 0.0
H1004 H 0.40207 0.342 0.4712 0.0
H1005 H 0.40994 0.35471 0.65768 0.0
H1006 H 0.477 0.3624 0.55717 0.0
H1007 H 0.3826 0.34313 0.56699 0.0
Eu1008 Eu 0.37802 0.9247 0.25434 0.0
C1009 C 0.28073 0.89041 0.09759 0.0
N1010 N 0.29216 0.87503 0.10936 0.0
C1011 C 0.24864 0.83629 0.12358 0.0
C1012 C 0.25267 0.87948 0.10168 0.0
C1013 C 0.27648 0.84795 0.11803 0.0
C1014 C 0.23674 0.85229 0.11699 0.0
C1015 C 0.28582 0.93323 0.06587 0.0
C1016 C 0.29722 0.91714 0.08096 0.0
C1017 C 0.25794 0.92264 0.07147 0.0
C1018 C 0.24142 0.89586 0.08964 0.0
Eu1019 Eu 0.33965 0.89727 0.10742 0.0
N1020 N 0.32425 0.92702 0.07728 0.0
C1021 C 0.30267 0.95915 0.04367 0.0
C1022 C 0.34005 0.95094 0.04949 0.0
C1023 C 0.32977 0.96771 0.03376 0.0
H1024 H 0.28548 0.83533 0.12084 0.0
H1025 H 0.34257 0.98691 0.01265 0.0
H1026 H 0.43187 0.98585 0.23588 0.0
H1027 H 0.37229 0.82894 0.31846 0.0
H1028 H 0.36018 0.95656 0.03665 0.0
H1029 H 0.29471 0.97211 0.03118 0.0
H1030 H 0.35434 0.85722 0.28575 0.0
H1031 H 0.23636 0.81494 0.13255 0.0
H1032 H 0.24888 0.93481 0.0607 0.0
H1033 H 0.2199 0.88782 0.09285 0.0
H1034 H 0.47999 1.00953 0.26319 0.0
H1035 H 0.21521 0.84332 0.12218 0.0
H1036 H 0.42066 0.84923 0.34127 0.0
N1037 N 0.42492 0.94751 0.26474 0.0
C1038 C 0.43548 0.93296 0.28819 0.0
C1039 C 0.46772 0.988 0.27023 0.0
C1040 C 0.4628 0.94572 0.3047 0.0
C1041 C 0.44059 0.9745 0.25417 0.0
C1042 C 0.47872 0.97366 0.29679 0.0
N1043 N 0.3923 0.89351 0.28116 0.0
C1044 C 0.3756 0.86657 0.29106 0.0
C1045 C 0.42987 0.88965 0.31773 0.0
C1046 C 0.41894 0.90521 0.2954 0.0
C1047 C 0.41298 0.86185 0.32456 0.0
C1048 C 0.38572 0.85031 0.31147 0.0
H1049 H 0.49961 0.98429 0.31042 0.0
H1050 H 0.49437 0.93978 0.34138 0.0
H1051 H 0.46577 0.89066 0.35131 0.0
O1052 O 0.36639 0.91671 0.34817 0.0
O1053 O 0.40415 0.92096 0.18421 0.0
O1054 O 0.37241 0.88562 0.12948 0.0
O1055 O 0.39264 0.95779 0.31662 0.0
O1056 O 0.33505 0.88573 0.2578 0.0
O1057 O 0.33339 0.86465 0.17146 0.0
O1058 O 0.34729 0.90328 0.01244 0.0
O1059 O 0.31855 0.90851 0.18286 0.0
O1060 O 0.35449 0.94399 0.22446 0.0
O1061 O 0.32339 0.86254 0.04838 0.0
O1062 O 0.38044 0.93535 0.09759 0.0
O1063 O 0.38678 0.95815 0.18524 0.0
C1064 C 0.39762 0.90082 0.14801 0.0
C1065 C 0.38339 0.95348 0.42058 0.0
C1066 C 0.37905 0.94782 0.52713 0.0
C1067 C 0.39148 0.97604 0.53337 0.0
C1068 C 0.39539 0.98154 0.42789 0.0
C1069 C 0.3993 0.99268 0.484 0.0
C1070 C 0.37485 0.93664 0.4702 0.0
C1071 C 0.32333 0.86393 0.22344 0.0
C1072 C 0.38105 0.94223 0.36131 0.0
C1073 C 0.47343 0.9303 0.32824 0.0
C1074 C 0.45714 0.90231 0.33381 0.0
C1075 C 0.32857 0.92962 0.21878 0.0
C1076 C 0.32925 0.86593 0.94254 0.0
C1077 C 0.33337 0.87182 0.83606 0.0
C1078 C 0.31934 0.84358 0.82929 0.0
C1079 C 0.31532 0.83781 0.93486 0.0
C1080 C 0.33841 0.88285 0.89308 0.0
C1081 C 0.31051 0.82676 0.87846 0.0
C1082 C 0.39136 0.95793 0.12799 0.0
C1083 C 0.33313 0.87749 1.00186 0.0
H1084 H 0.39564 0.9854 0.57646 0.0
H1085 H 0.40202 0.99495 0.39024 0.0
H1086 H 0.40882 1.01435 0.48929 0.0
H1087 H 0.36521 0.91496 0.46442 0.0
H1088 H 0.3147 0.83445 0.78595 0.0
H1089 H 0.30794 0.82435 0.97238 0.0
H1090 H 0.34934 0.90458 0.89895 0.0
H1091 H 0.2996 0.80506 0.8728 0.0
Eu1092 Eu 0.11893 0.46271 0.25863 0.0
C1093 C 0.15643 0.4027 0.10135 0.0
N1094 N 0.17072 0.42968 0.11235 0.0
C1095 C 0.2111 0.42745 0.12295 0.0
C1096 C 0.16889 0.38681 0.10387 0.0
C1097 C 0.19796 0.44239 0.11904 0.0
C1098 C 0.19638 0.39945 0.11687 0.0
C1099 C 0.11416 0.36319 0.07421 0.0
C1100 C 0.12918 0.39094 0.08772 0.0
C1101 C 0.12641 0.34722 0.07772 0.0
C1102 C 0.15365 0.35897 0.09293 0.0
Eu1103 Eu 0.14621 0.45278 0.11138 0.0
N1104 N 0.1175 0.40668 0.08677 0.0
C1105 C 0.08743 0.35246 0.05616 0.0
C1106 C 0.09197 0.39647 0.0658 0.0
C1107 C 0.07636 0.3692 0.05139 0.0
H1108 H 0.20961 0.46411 0.12169 0.0
H1109 H 0.05607 0.3613 0.03494 0.0
H1110 H 0.05526 0.44973 0.25386 0.0
H1111 H 0.21177 0.55924 0.30031 0.0
H1112 H 0.08396 0.40934 0.05671 0.0
H1113 H 0.07556 0.33165 0.04295 0.0
H1114 H 0.18574 0.51322 0.26362 0.0
H1115 H 0.23259 0.43756 0.13043 0.0
H1116 H 0.11504 0.3258 0.06817 0.0
H1117 H 0.16289 0.34644 0.09499 0.0
H1118 H 0.02912 0.47022 0.29164 0.0
H1119 H 0.20651 0.38784 0.12088 0.0
H1120 H 0.18862 0.58177 0.34376 0.0
N1121 N 0.09296 0.48278 0.28002 0.0
C1122 C 0.10639 0.50763 0.30502 0.0
C1123 C 0.05082 0.48096 0.2956 0.0
C1124 C 0.09225 0.51981 0.32822 0.0
C1125 C 0.06568 0.46959 0.27354 0.0
C1126 C 0.06412 0.50593 0.32413 0.0
N1127 N 0.14752 0.5089 0.28326 0.0
C1128 C 0.17498 0.52233 0.28129 0.0
C1129 C 0.14878 0.54759 0.32924 0.0
C1130 C 0.1344 0.52119 0.30613 0.0
C1131 C 0.17689 0.56137 0.32692 0.0
C1132 C 0.19001 0.54874 0.30244 0.0
H1133 H 0.05254 0.51456 0.34178 0.0
H1134 H 0.09605 0.55508 0.3728 0.0
H1135 H 0.14552 0.57941 0.373 0.0
O1136 O 0.12969 0.45965 0.35012 0.0
O1137 O 0.12219 0.49382 0.19205 0.0
O1138 O 0.15547 0.49683 0.13009 0.0
O1139 O 0.08803 0.43964 0.32293 0.0
O1140 O 0.15868 0.46033 0.26139 0.0
O1141 O 0.17907 0.4795 0.17455 0.0
O1142 O 0.1392 0.45083 0.01537 0.0
O1143 O 0.13645 0.42099 0.18701 0.0
O1144 O 0.10016 0.42045 0.22478 0.0
O1145 O 0.17999 0.47254 0.05171 0.0
O1146 O 0.10808 0.45527 0.10058 0.0
O1147 O 0.08554 0.43996 0.18873 0.0
C1148 C 0.14072 0.50681 0.15207 0.0
C1149 C 0.09685 0.45342 0.42242 0.0
C1150 C 0.10404 0.46196 0.52766 0.0
C1151 C 0.07927 0.46121 0.53206 0.0
C1152 C 0.07215 0.45294 0.42753 0.0
C1153 C 0.06355 0.45696 0.48202 0.0
C1154 C 0.11284 0.45821 0.4727 0.0
C1155 C 0.18023 0.47057 0.22684 0.0
C1156 C 0.10464 0.44599 0.36681 0.0
C1157 C 0.10656 0.54548 0.35414 0.0
C1158 C 0.13473 0.55942 0.35403 0.0
C1159 C 0.11494 0.40922 0.22108 0.0
C1160 C 0.17684 0.47114 0.94594 0.0
C1161 C 0.1719 0.47066 0.83923 0.0
C1162 C 0.19957 0.47958 0.8336 0.0
C1163 C 0.20446 0.48076 0.93919 0.0
C1164 C 0.16066 0.46643 0.89599 0.0
C1165 C 0.21571 0.48484 0.88329 0.0
C1166 C 0.08564 0.44435 0.13122 0.0
C1167 C 0.16496 0.46431 1.00497 0.0
H1168 H 0.07217 0.46407 0.57416 0.0
H1169 H 0.05908 0.44876 0.38989 0.0
H1170 H 0.04444 0.45636 0.4856 0.0
H1171 H 0.13164 0.45806 0.46952 0.0
H1172 H 0.20882 0.48222 0.79077 0.0
H1173 H 0.21727 0.48466 0.97722 0.0
H1174 H 0.13945 0.45958 0.90149 0.0
H1175 H 0.23696 0.49178 0.87846 0.0
Eu1176 Eu 0.577 0.66829 0.25403 0.0
C1177 C 0.65131 0.76184 0.10984 0.0
N1178 N 0.62484 0.75281 0.12037 0.0
C1179 C 0.63503 0.79689 0.15135 0.0
C1180 C 0.67092 0.7887 0.12273 0.0
C1181 C 0.61638 0.77039 0.13554 0.0
C1182 C 0.66249 0.80606 0.14542 0.0
C1183 C 0.68574 0.75287 0.07374 0.0
C1184 C 0.65854 0.74384 0.08711 0.0
C1185 C 0.70553 0.77948 0.08765 0.0
C1186 C 0.69814 0.79732 0.11237 0.0
Eu1187 Eu 0.59445 0.70664 0.10304 0.0
N1188 N 0.63887 0.71807 0.07481 0.0
C1189 C 0.69209 0.73526 0.0445 0.0
C1190 C 0.64475 0.70186 0.04133 0.0
C1191 C 0.67142 0.70998 0.02667 0.0
H1192 H 0.5953 0.76396 0.13472 0.0
H1193 H 0.67597 0.69697 1.00052 0.0
H1194 H 0.58881 0.61591 0.23804 0.0
H1195 H 0.48688 0.66863 0.3298 0.0
H1196 H 0.62893 0.683 0.02409 0.0
H1197 H 0.71267 0.7415 0.03275 0.0
H1198 H 0.53327 0.68865 0.29382 0.0
H1199 H 0.6282 0.81042 0.16643 0.0
H1200 H 0.72655 0.78664 0.07827 0.0
H1201 H 0.71355 0.81787 0.12218 0.0
H1202 H 0.56545 0.5674 0.25721 0.0
H1203 H 0.67693 0.82678 0.15658 0.0
H1204 H 0.45979 0.61934 0.3454 0.0
N1205 N 0.55501 0.62061 0.25877 0.0
C1206 C 0.52955 0.6084 0.28068 0.0
C1207 C 0.55497 0.57859 0.26306 0.0
C1208 C 0.51584 0.58064 0.2945 0.0
C1209 C 0.56792 0.60616 0.25061 0.0
C1210 C 0.52892 0.56582 0.28555 0.0
N1211 N 0.53181 0.65093 0.28272 0.0
C1212 C 0.5214 0.66706 0.29759 0.0
C1213 C 0.49132 0.61179 0.31572 0.0
C1214 C 0.51759 0.62391 0.29256 0.0
C1215 C 0.47997 0.62799 0.3278 0.0
C1216 C 0.49516 0.65579 0.31896 0.0
H1217 H 0.51932 0.54465 0.2971 0.0
H1218 H 0.47916 0.54745 0.33006 0.0
H1219 H 0.45752 0.57463 0.34607 0.0
O1220 O 0.5812 0.68421 0.34577 0.0
O1221 O 0.54121 0.65647 0.19312 0.0
O1222 O 0.55813 0.66202 0.09956 0.0
O1223 O 0.59091 0.65297 0.32391 0.0
O1224 O 0.57917 0.71058 0.25353 0.0
O1225 O 0.56312 0.70795 0.16062 0.0
O1226 O 0.60094 0.71485 1.00893 0.0
O1227 O 0.62013 0.72693 0.18819 0.0
O1228 O 0.62039 0.69121 0.2261 0.0
O1229 O 0.57155 0.72136 0.05377 0.0
O1230 O 0.59205 0.66621 0.09239 0.0
O1231 O 0.59959 0.65532 0.18629 0.0
C1232 C 0.53857 0.64821 0.13841 0.0
C1233 C 0.60133 0.66899 0.42271 0.0
C1234 C 0.60244 0.6753 0.52925 0.0
C1235 C 0.62138 0.66657 0.53387 0.0
C1236 C 0.62037 0.66048 0.42855 0.0
C1237 C 0.63027 0.65927 0.48383 0.0
C1238 C 0.59258 0.67664 0.47317 0.0
C1239 C 0.56869 0.71937 0.21269 0.0
C1240 C 0.58954 0.66812 0.36449 0.0
C1241 C 0.48986 0.56866 0.31843 0.0
C1242 C 0.4775 0.5841 0.32789 0.0
C1243 C 0.63208 0.7173 0.2221 0.0
C1244 C 0.56476 0.71131 0.95093 0.0
C1245 C 0.55815 0.69779 0.84742 0.0
C1246 C 0.53415 0.69867 0.84696 0.0
C1247 C 0.54053 0.71187 0.94956 0.0
C1248 C 0.57332 0.7039 0.89957 0.0
C1249 C 0.5253 0.70542 0.89795 0.0
C1250 C 0.59916 0.65269 0.1278 0.0
C1251 C 0.58239 0.72141 1.00337 0.0
H1252 H 0.62956 0.66563 0.57627 0.0
H1253 H 0.62745 0.65446 0.39041 0.0
H1254 H 0.64482 0.65255 0.48794 0.0
H1255 H 0.5776 0.68285 0.46897 0.0
H1256 H 0.5222 0.69398 0.80714 0.0
H1257 H 0.53362 0.71786 0.988 0.0
H1258 H 0.59216 0.70375 0.89936 0.0
H1259 H 0.50676 0.70606 0.89724 0.0
Eu1260 Eu 0.37898 0.47195 0.25034 0.0
C1261 C 0.28391 0.4356 0.05791 0.0
N1262 N 0.29527 0.42199 0.08224 0.0
C1263 C 0.25534 0.37975 0.06352 0.0
C1264 C 0.25782 0.42155 0.03362 0.0
C1265 C 0.28135 0.39451 0.08647 0.0
C1266 C 0.24372 0.3933 0.03595 0.0
C1267 C 0.28634 0.47823 0.03534 0.0
C1268 C 0.2983 0.46371 0.05795 0.0
C1269 C 0.26068 0.46428 1.00967 0.0
C1270 C 0.24659 0.43604 1.0081 0.0
Eu1271 Eu 0.34144 0.4479 0.10206 0.0
N1272 N 0.32367 0.47677 0.08089 0.0
C1273 C 0.30054 0.50639 0.03872 0.0
C1274 C 0.33759 0.50432 0.08372 0.0
C1275 C 0.32618 0.51946 0.06349 0.0
H1276 H 0.29074 0.38382 0.10501 0.0
H1277 H 0.33738 0.54127 0.06635 0.0
H1278 H 0.43642 0.52982 0.22577 0.0
H1279 H 0.36878 0.37949 0.34885 0.0
H1280 H 0.35741 0.5152 0.10117 0.0
H1281 H 0.29191 0.51823 0.02235 0.0
H1282 H 0.35491 0.41287 0.32621 0.0
H1283 H 0.2445 0.35793 0.06597 0.0
H1284 H 0.25157 0.47519 0.99095 0.0
H1285 H 0.22668 0.4256 0.98859 0.0
H1286 H 0.48343 0.54418 0.1994 0.0
H1287 H 0.22366 0.38179 0.01753 0.0
H1288 H 0.41413 0.38844 0.32101 0.0
N1289 N 0.42574 0.48915 0.24062 0.0
C1290 C 0.43488 0.47167 0.251 0.0
C1291 C 0.46999 0.52367 0.21357 0.0
C1292 C 0.46199 0.47938 0.24069 0.0
C1293 C 0.44319 0.51536 0.22664 0.0
C1294 C 0.47941 0.50552 0.2201 0.0
N1295 N 0.39051 0.43891 0.27875 0.0
C1296 C 0.37398 0.41624 0.31013 0.0
C1297 C 0.42582 0.42758 0.2835 0.0
C1298 C 0.4167 0.44578 0.27018 0.0
C1299 C 0.40787 0.40288 0.30955 0.0
C1300 C 0.38213 0.39761 0.32472 0.0
H1301 H 0.50028 0.51208 0.21052 0.0
H1302 H 0.49152 0.46631 0.24304 0.0
H1303 H 0.46002 0.42115 0.28195 0.0
O1304 O 0.37438 0.46807 0.3461 0.0
O1305 O 0.4007 0.46603 0.16825 0.0
O1306 O 0.36535 0.42921 0.13323 0.0
O1307 O 0.39823 0.50794 0.30608 0.0
O1308 O 0.33811 0.43439 0.26025 0.0
O1309 O 0.32971 0.41304 0.17001 0.0
O1310 O 0.34973 0.45744 1.00696 0.0
O1311 O 0.31362 0.44972 0.17017 0.0
O1312 O 0.34375 0.48115 0.23606 0.0
O1313 O 0.33365 0.41632 0.03947 0.0
O1314 O 0.38315 0.48952 0.10002 0.0
O1315 O 0.38156 0.50445 0.19153 0.0
C1316 C 0.3912 0.44436 0.13467 0.0
C1317 C 0.3945 0.50647 0.41276 0.0
C1318 C 0.38881 0.50263 0.51928 0.0
C1319 C 0.40468 0.53086 0.52399 0.0
C1320 C 0.40964 0.53461 0.41831 0.0
C1321 C 0.41505 0.5467 0.47368 0.0
C1322 C 0.38405 0.49052 0.46339 0.0
C1323 C 0.32575 0.41254 0.22782 0.0
C1324 C 0.38888 0.49398 0.35412 0.0
C1325 C 0.47076 0.46079 0.25086 0.0
C1326 C 0.45278 0.43502 0.27265 0.0
C1327 C 0.31922 0.46741 0.21232 0.0
C1328 C 0.33874 0.42131 0.93458 0.0
C1329 C 0.34684 0.42777 0.82907 0.0
C1330 C 0.33314 0.39961 0.82139 0.0
C1331 C 0.32513 0.39321 0.92591 0.0
C1332 C 0.34971 0.43858 0.886 0.0
C1333 C 0.3224 0.38249 0.86962 0.0
C1334 C 0.39341 0.50917 0.14034 0.0
C1335 C 0.34041 0.43207 0.99416 0.0
H1336 H 0.40851 0.54078 0.56641 0.0
H1337 H 0.41679 0.54724 0.3797 0.0
H1338 H 0.4269 0.56845 0.47753 0.0
H1339 H 0.3722 0.46874 0.45937 0.0
H1340 H 0.33097 0.39081 0.77805 0.0
H1341 H 0.31633 0.37944 0.96259 0.0
H1342 H 0.36002 0.46028 0.89226 0.0
H1343 H 0.31188 0.36082 0.86336 0.0
Eu1344 Eu 0.57211 0.92008 0.2473 0.0
C1345 C 0.60962 0.85441 0.08064 0.0
N1346 N 0.62254 0.88077 0.09796 0.0
C1347 C 0.66522 0.88271 0.09117 0.0
C1348 C 0.62433 0.84134 0.06743 0.0
C1349 C 0.65001 0.89517 0.10178 0.0
C1350 C 0.65236 0.85573 0.07379 0.0
C1351 C 0.5685 0.81461 0.04784 0.0
C1352 C 0.58194 0.84126 0.06991 0.0
C1353 C 0.58302 0.8013 0.03702 0.0
C1354 C 0.61089 0.81483 0.04553 0.0
Eu1355 Eu 0.59531 0.90086 0.10309 0.0
N1356 N 0.5685 0.85507 0.07707 0.0
C1357 C 0.5411 0.80259 0.03401 0.0
C1358 C 0.54236 0.84423 0.05888 0.0
C1359 C 0.52805 0.81758 0.03894 0.0
H1360 H 0.66045 0.91664 0.11012 0.0
H1361 H 0.50715 0.80883 0.02616 0.0
H1362 H 0.51222 0.91509 0.22818 0.0
H1363 H 0.66871 1.00905 0.30699 0.0
H1364 H 0.53248 0.85607 0.06029 0.0
H1365 H 0.53011 0.78213 0.01723 0.0
H1366 H 0.63698 0.96087 0.29611 0.0
H1367 H 0.68694 0.89422 0.09426 0.0
H1368 H 0.57307 0.7809 0.0197 0.0
H1369 H 0.62198 0.80473 0.03392 0.0
H1370 H 0.49387 0.94512 0.20647 0.0
H1371 H 0.66435 0.84646 0.06342 0.0
H1372 H 0.65398 0.04207 0.28781 0.0
N1373 N 0.55246 0.94713 0.23495 0.0
C1374 C 0.56889 0.97409 0.24245 0.0
C1375 C 0.51505 0.95356 0.21598 0.0
C1376 C 0.55904 0.99203 0.23401 0.0
C1377 C 0.52557 0.93659 0.22651 0.0
C1378 C 0.53198 0.98147 0.21872 0.0
N1379 N 0.60483 0.96595 0.26452 0.0
C1380 C 0.63037 0.97473 0.28427 0.0
C1381 C 0.61321 1.01175 0.26483 0.0
C1382 C 0.59578 0.98378 0.2574 0.0
C1383 C 0.63989 0.02085 0.28152 0.0
C1384 C 0.64837 1.00224 0.29204 0.0
H1385 H 0.52381 0.99464 0.21053 0.0
H1386 H 0.56929 0.03395 0.23386 0.0
H1387 H 0.61635 0.05113 0.26083 0.0
O1388 O 0.57462 0.92926 0.34128 0.0
O1389 O 0.58346 0.94774 0.16304 0.0
O1390 O 0.61858 0.94493 0.1259 0.0
O1391 O 0.53656 0.89996 0.3029 0.0
O1392 O 0.60749 0.91482 0.26314 0.0
O1393 O 0.63015 0.92032 0.17539 0.0
O1394 O 0.5864 0.91591 0.0212 0.0
O1395 O 0.56619 0.8665 0.16174 0.0
O1396 O 0.57781 0.88243 0.25473 0.0
O1397 O 0.61429 0.90086 0.02064 0.0
O1398 O 0.55657 0.90485 0.09954 0.0
O1399 O 0.53795 0.89001 0.19021 0.0
C1400 C 0.60517 0.95785 0.12893 0.0
C1401 C 0.54375 0.89403 0.40375 0.0
C1402 C 0.55195 0.88907 0.50731 0.0
C1403 C 0.5295 0.86297 0.50714 0.0
C1404 C 0.52147 0.8677 0.40442 0.0
C1405 C 0.51451 0.8523 0.4558 0.0
C1406 C 0.55916 0.9045 0.45542 0.0
C1407 C 0.6292 0.91951 0.23439 0.0
C1408 C 0.54957 0.91136 0.35126 0.0
C1409 C 0.57647 0.01984 0.24045 0.0
C1410 C 0.60341 0.02964 0.25584 0.0
C1411 C 0.57182 0.86304 0.21564 0.0
C1412 C 0.61538 0.92583 0.93704 0.0
C1413 C 0.6138 0.93246 0.83098 0.0
C1414 C 0.6417 0.95078 0.83218 0.0
C1415 C 0.64329 0.94323 0.93666 0.0
C1416 C 0.60081 0.92028 0.88423 0.0
C1417 C 0.65632 0.95572 0.8844 0.0
C1418 C 0.53546 0.89539 0.13532 0.0
C1419 C 0.6016 0.90992 0.98939 0.0
H1420 H 0.5237 0.85075 0.54669 0.0
H1421 H 0.5091 0.8591 0.36559 0.0
H1422 H 0.49725 0.83212 0.45598 0.0
H1423 H 0.57623 0.92487 0.45588 0.0
H1424 H 0.6524 0.96123 0.79274 0.0
H1425 H 0.65502 0.947 0.97658 0.0
H1426 H 0.57956 0.90536 0.88446 0.0
H1427 H 0.67783 0.96946 0.88447 0.0
Eu1428 Eu 0.12612 0.66622 0.24916 0.0
C1429 C 0.18186 0.76087 0.05969 0.0
N1430 N 0.15705 0.74945 0.08448 0.0
C1431 C 0.15603 0.79054 0.07344 0.0
C1432 C 0.19436 0.78758 0.03861 0.0
C1433 C 0.14426 0.76387 0.09307 0.0
C1434 C 0.18089 0.80223 0.04484 0.0
C1435 C 0.22133 0.75792 0.03348 0.0
C1436 C 0.195 0.74595 0.05647 0.0
C1437 C 0.23356 0.78431 1.01104 0.0
C1438 C 0.21992 0.7989 0.01265 0.0
Eu1439 Eu 0.1363 0.70296 0.10094 0.0
N1440 N 0.18231 0.72007 0.07686 0.0
C1441 C 0.23458 0.74298 0.03328 0.0
C1442 C 0.1951 0.70533 0.07561 0.0
C1443 C 0.22144 0.71663 0.05469 0.0
H1444 H 0.12442 0.7544 0.11241 0.0
H1445 H 0.23145 0.70482 0.05433 0.0
H1446 H 0.13678 0.61354 0.24 0.0
H1447 H 0.03602 0.66629 0.33035 0.0
H1448 H 0.18543 0.68485 0.08983 0.0
H1449 H 0.25489 0.75154 0.01643 0.0
H1450 H 0.0842 0.68548 0.31079 0.0
H1451 H 0.14562 0.80181 0.07897 0.0
H1452 H 0.25363 0.79366 0.99254 0.0
H1453 H 0.22971 0.81931 0.99552 0.0
H1454 H 0.11003 0.56395 0.23343 0.0
H1455 H 0.18971 0.82272 0.0286 0.0
H1456 H 1.0052 0.61726 0.31737 0.0
N1457 N 0.10268 0.61855 0.2494 0.0
C1458 C 0.07586 0.60621 0.26093 0.0
C1459 C 0.10011 0.57559 0.24041 0.0
C1460 C 0.05986 0.57785 0.25938 0.0
C1461 C 0.11515 0.6037 0.24308 0.0
C1462 C 0.07224 0.56263 0.24705 0.0
N1463 N 0.08043 0.6494 0.27601 0.0
C1464 C 0.0708 0.66489 0.29933 0.0
C1465 C 0.0368 0.60966 0.28853 0.0
C1466 C 0.06442 0.62203 0.27466 0.0
C1467 C 0.02629 0.62598 0.30625 0.0
C1468 C 0.04354 0.65367 0.31303 0.0
H1469 H 0.06054 0.54086 0.244 0.0
H1470 H 1.01958 0.54382 0.26963 0.0
H1471 H 0.99941 0.57163 0.29562 0.0
O1472 O 0.1255 0.67256 0.34517 0.0
O1473 O 0.09426 0.64359 0.17351 0.0
O1474 O 0.09362 0.67874 0.13058 0.0
O1475 O 0.14577 0.65196 0.30868 0.0
O1476 O 0.1283 0.70695 0.25753 0.0
O1477 O 0.1113 0.7114 0.16906 0.0
O1478 O 0.1341 0.68968 1.0094 0.0
O1479 O 0.16662 0.73083 0.16904 0.0
O1480 O 0.17017 0.70043 0.22952 0.0
O1481 O 0.1148 0.71238 0.03488 0.0
O1482 O 0.13381 0.66071 0.09923 0.0
O1483 O 0.15284 0.65983 0.18663 0.0
C1484 C 0.08275 0.65281 0.13671 0.0
C1485 C 0.14549 0.65445 0.41409 0.0
C1486 C 0.14902 0.66183 0.51966 0.0
C1487 C 0.15507 0.64103 0.52664 0.0
C1488 C 0.15203 0.634 0.4215 0.0
C1489 C 0.15672 0.6273 0.47757 0.0
C1490 C 0.14423 0.66854 0.46331 0.0
C1491 C 0.11604 0.71691 0.22609 0.0
C1492 C 0.13844 0.65963 0.35542 0.0
C1493 C 0.03219 0.56559 0.27087 0.0
C1494 C 1.0207 0.58143 0.28561 0.0
C1495 C 0.18001 0.72526 0.20812 0.0
C1496 C 0.13029 0.71757 0.93671 0.0
C1497 C 0.13501 0.71764 0.83008 0.0
C1498 C 0.14131 0.7448 0.82888 0.0
C1499 C 0.1367 0.74469 0.93448 0.0
C1500 C 0.12983 0.70427 0.88458 0.0
C1501 C 0.14244 0.75825 0.88089 0.0
C1502 C 0.14392 0.64945 0.13455 0.0
C1503 C 0.12144 0.70202 0.99164 0.0
H1504 H 0.15884 0.6357 0.56999 0.0
H1505 H 0.1531 0.62295 0.38394 0.0
H1506 H 0.16154 0.61137 0.48299 0.0
H1507 H 0.13916 0.68434 0.45807 0.0
H1508 H 0.1448 0.75558 0.7877 0.0
H1509 H 0.13658 0.75526 0.97366 0.0
H1510 H 0.12505 0.68339 0.88663 0.0
H1511 H 0.14712 0.77908 0.87951 0.0
H1512 H 0.08897 0.39689 0.32795 0.0
H1513 H 0.12767 0.36862 0.20853 0.0
H1514 H 0.11596 0.33003 0.27381 0.0
H1515 H 0.09273 0.30315 0.36412 0.0
H1516 H 0.06099 0.3365 0.48997 0.0
H1517 H 0.07311 0.37498 0.42466 0.0
C1518 C 0.0957 0.38298 0.3166 0.0
C1519 C 0.10941 0.3862 0.2626 0.0
C1520 C 0.09032 0.36174 0.35638 0.0
C1521 C 0.11714 0.36701 0.24912 0.0
C1522 C 0.11046 0.34486 0.28682 0.0
C1523 C 0.0892 0.31925 0.37813 0.0
C1524 C 0.07601 0.31676 0.43267 0.0
C1525 C 0.09691 0.3419 0.3406 0.0
C1526 C 0.07151 0.33789 0.44937 0.0
C1527 C 0.0781 0.35978 0.41138 0.0
H1528 H 0.69637 0.75715 0.46465 0.0
H1529 H 0.7642 0.79194 0.347 0.0
H1530 H 0.73416 0.777 0.26202 0.0
H1531 H 0.68792 0.74914 0.21974 0.0
H1532 H 0.62065 0.72504 0.33505 0.0
H1533 H 0.65021 0.73959 0.42093 0.0
C1534 C 0.70462 0.76239 0.42058 0.0
C1535 C 0.73286 0.77547 0.41295 0.0
C1536 C 0.68696 0.75453 0.37079 0.0
C1537 C 0.74274 0.78183 0.35484 0.0
C1538 C 0.72546 0.77304 0.30574 0.0
C1539 C 0.67973 0.7476 0.26347 0.0
C1540 C 0.65146 0.73388 0.27085 0.0
C1541 C 0.69743 0.75859 0.31288 0.0
C1542 C 0.64175 0.73301 0.32813 0.0
C1543 C 0.65894 0.74217 0.37747 0.0
H1544 H 0.25192 0.96246 0.35723 0.0
H1545 H 0.30874 0.97658 0.49648 0.0
H1546 H 0.33203 0.96025 0.43257 0.0
H1547 H 0.33834 0.94526 0.33433 0.0
H1548 H 0.28011 0.92784 0.19731 0.0
H1549 H 0.25547 0.94234 0.26237 0.0
C1550 C 0.2691 0.96148 0.37423 0.0
C1551 C 0.27839 0.97086 0.4324 0.0
C1552 C 0.2824 0.95183 0.33696 0.0
C1553 C 0.30077 0.96934 0.45282 0.0
C1554 C 0.31432 0.96023 0.41578 0.0
C1555 C 0.32012 0.94424 0.31875 0.0
C1556 C 0.31142 0.9355 0.26018 0.0
C1557 C 0.30565 0.95192 0.35739 0.0
C1558 C 0.28746 0.9343 0.24159 0.0
C1559 C 0.27336 0.94271 0.27906 0.0
H1560 H 0.35436 0.0878 0.56427 0.0
H1561 H 0.28737 0.04919 0.68278 0.0
H1562 H 0.31752 0.06784 0.76753 0.0
H1563 H 0.36432 0.09084 0.80897 0.0
H1564 H 0.4307 0.13355 0.6898 0.0
H1565 H 0.40006 0.11811 0.60606 0.0
C1566 C 0.34626 0.08394 0.60852 0.0
C1567 C 0.31838 0.06624 0.61673 0.0
C1568 C 0.36395 0.09549 0.65775 0.0
C1569 C 0.30863 0.06179 0.67486 0.0
C1570 C 0.32599 0.07268 0.72362 0.0
C1571 C 0.37198 0.09792 0.76505 0.0
C1572 C 0.4001 0.11427 0.75682 0.0
C1573 C 0.3539 0.08896 0.71596 0.0
C1574 C 0.40933 0.12188 0.69853 0.0
C1575 C 0.39172 0.11263 0.65 0.0
H1576 H 0.98431 0.33456 0.75542 0.0
H1577 H 0.90578 0.26453 0.76931 0.0
H1578 H 0.91847 0.24086 0.69614 0.0
H1579 H 0.95202 0.24172 0.62029 0.0
H1580 H 0.02674 0.3169 0.59905 0.0
H1581 H 1.01525 0.33649 0.67972 0.0
C1582 C 0.96987 0.31409 0.74258 0.0
C1583 C 0.94417 0.30155 0.76874 0.0
C1584 C 0.97648 0.30158 0.69673 0.0
C1585 C 0.92601 0.27472 0.75161 0.0
C1586 C 0.93313 0.26134 0.70846 0.0
C1587 C 0.96553 0.26254 0.63254 0.0
C1588 C 0.99072 0.27738 0.60297 0.0
C1589 C 0.95822 0.27482 0.67908 0.0
C1590 C 1.00748 0.30448 0.62026 0.0
C1591 C 1.00084 0.31607 0.66667 0.0
H1592 H 0.75503 0.73101 0.66135 0.0
H1593 H 0.79808 0.70437 0.55069 0.0
H1594 H 0.786 0.66622 0.61686 0.0
H1595 H 0.76132 0.63915 0.70517 0.0
H1596 H 0.7245 0.67022 0.82323 0.0
H1597 H 0.73719 0.7087 0.7572 0.0
C1598 C 0.76269 0.71764 0.65214 0.0
C1599 C 0.77781 0.72122 0.60005 0.0
C1600 C 0.75697 0.69655 0.69276 0.0
C1601 C 0.78648 0.70251 0.58947 0.0
C1602 C 0.7796 0.68061 0.62782 0.0
C1603 C 0.75687 0.65483 0.71754 0.0
C1604 C 0.74222 0.65179 0.77003 0.0
C1605 C 0.76475 0.67732 0.67961 0.0
C1606 C 0.7363 0.67221 0.7844 0.0
C1607 C 0.7432 0.69405 0.74591 0.0
H1608 H 1.00387 0.70641 0.58739 0.0
H1609 H 0.94059 0.72534 0.60574 0.0
H1610 H 0.91861 0.68968 0.68032 0.0
H1611 H 0.91921 0.65437 0.74741 0.0
H1612 H 0.98882 0.64415 0.73926 0.0
H1613 H 1.00592 0.67428 0.65595 0.0
C1614 C 0.985 0.70245 0.60689 0.0
C1615 C 0.97387 0.71853 0.58968 0.0
C1616 C 0.97367 0.68341 0.65351 0.0
C1617 C 0.94953 0.71312 0.61672 0.0
C1618 C 0.93713 0.69289 0.6604 0.0
C1619 C 0.93825 0.65896 0.72785 0.0
C1620 C 0.95199 0.64571 0.74938 0.0
C1621 C 0.94935 0.67822 0.68066 0.0
C1622 C 0.97705 0.65294 0.72355 0.0
C1623 C 0.98718 0.67059 0.67561 0.0
H1624 H 0.30442 0.25997 0.6824 0.0
H1625 H 0.35211 0.27356 0.52597 0.0
H1626 H 0.39286 0.2915 0.587 0.0
H1627 H 0.41576 0.30727 0.68549 0.0
H1628 H 0.36737 0.29822 0.83754 0.0
H1629 H 0.32651 0.27494 0.77826 0.0
C1630 C 0.32362 0.26665 0.66105 0.0
C1631 C 0.3247 0.26502 0.59878 0.0
C1632 C 0.34716 0.27818 0.69626 0.0
C1633 C 0.35018 0.27417 0.57324 0.0
C1634 C 0.37366 0.28468 0.6084 0.0
C1635 C 0.39621 0.29979 0.70567 0.0
C1636 C 0.39471 0.30366 0.76701 0.0
C1637 C 0.37254 0.28736 0.67 0.0
C1638 C 0.3692 0.29445 0.79172 0.0
C1639 C 0.34576 0.2815 0.75728 0.0
H1640 H 0.70687 0.07819 0.69276 0.0
H1641 H 0.77529 0.11947 0.80707 0.0
H1642 H 0.80127 0.10626 0.74399 0.0
H1643 H 0.80417 0.08135 0.65606 0.0
H1644 H 0.73725 0.04501 0.53532 0.0
H1645 H 0.71149 0.05761 0.60027 0.0
C1646 C 0.72755 0.08464 0.70371 0.0
C1647 C 0.73872 0.09966 0.75622 0.0
C1648 C 0.7429 0.07801 0.66496 0.0
C1649 C 0.76574 0.10768 0.76851 0.0
C1650 C 0.78075 0.1002 0.73171 0.0
C1651 C 0.78423 0.07702 0.6428 0.0
C1652 C 0.77294 0.06237 0.58985 0.0
C1653 C 0.76956 0.08529 0.67968 0.0
C1654 C 0.74691 0.05677 0.57441 0.0
C1655 C 0.73197 0.06391 0.61199 0.0
H1656 H 0.68697 0.94852 0.22291 0.0
H1657 H 0.62306 0.90078 0.34579 0.0
H1658 H 0.65442 0.91596 0.42626 0.0
H1659 H 0.69981 0.94616 0.46676 0.0
H1660 H 0.7657 0.98402 0.34631 0.0
H1661 H 0.73478 0.97003 0.26238 0.0
C1662 C 0.67993 0.94074 0.26674 0.0
C1663 C 0.6519 0.92399 0.27669 0.0
C1664 C 0.69872 0.9485 0.31487 0.0
C1665 C 0.64401 0.91426 0.33509 0.0
C1666 C 0.66208 0.92294 0.38229 0.0
C1667 C 0.70753 0.95079 0.42217 0.0
C1668 C 0.73537 0.96779 0.4135 0.0
C1669 C 0.68945 0.9406 0.37337 0.0
C1670 C 0.74451 0.97295 0.35482 0.0
C1671 C 0.72664 0.9643 0.30643 0.0
H1672 H 0.03926 0.75033 0.35794 0.0
H1673 H 0.10186 0.7779 0.48822 0.0
H1674 H 0.12794 0.76511 0.42438 0.0
H1675 H 0.13222 0.74412 0.33187 0.0
H1676 H 0.07119 0.72018 0.19768 0.0
H1677 H 0.04619 0.73447 0.26079 0.0
C1678 C 0.05878 0.754 0.37207 0.0
C1679 C 0.06839 0.76532 0.42862 0.0
C1680 C 0.0742 0.7474 0.33363 0.0
C1681 C 0.0938 0.76955 0.44561 0.0
C1682 C 0.10878 0.76213 0.40873 0.0
C1683 C 0.11367 0.74252 0.31579 0.0
C1684 C 0.10378 0.731 0.25941 0.0
C1685 C 0.09916 0.7509 0.35262 0.0
C1686 C 0.07963 0.72915 0.24005 0.0
C1687 C 0.06501 0.73703 0.27674 0.0
H1688 H 0.33257 0.36885 0.24577 0.0
H1689 H 0.28051 0.40005 0.29081 0.0
H1690 H 0.25813 0.36468 0.36552 0.0
H1691 H 0.25596 0.32645 0.42571 0.0
H1692 H 0.31631 0.30405 0.39202 0.0
H1693 H 0.33234 0.33361 0.30783 0.0
C1694 C 0.31579 0.36743 0.2707 0.0
C1695 C 0.30784 0.38682 0.26098 0.0
C1696 C 0.30453 0.34841 0.31737 0.0
C1697 C 0.28669 0.38509 0.29585 0.0
C1698 C 0.27411 0.36501 0.3395 0.0
C1699 C 0.27247 0.32788 0.39974 0.0
C1700 C 0.28378 0.31153 0.41483 0.0
C1701 C 0.28327 0.34682 0.35207 0.0
C1702 C 0.30593 0.31489 0.38101 0.0
C1703 C 0.3155 0.33219 0.33243 0.0
H1704 H 0.97013 0.37871 1.00991 0.0
H1705 H 1.01633 0.41904 0.85663 0.0
H1706 H 0.05651 0.44409 0.9176 0.0
H1707 H 0.07928 0.45266 0.0143 0.0
H1708 H 0.03313 0.41171 0.16874 0.0
H1709 H 0.99217 0.38999 0.10864 0.0
C1710 C 0.98887 0.39288 0.98988 0.0
C1711 C 0.98982 0.39668 0.92811 0.0
C1712 C 1.01204 0.40732 0.02594 0.0
C1713 C 1.01455 0.41578 0.9035 0.0
C1714 C 0.03771 0.43002 0.93867 0.0
C1715 C 0.06027 0.43908 0.03529 0.0
C1716 C 0.0597 0.43385 0.09665 0.0
C1717 C 0.03679 0.42576 0.99993 0.0
C1718 C 0.03457 0.41624 0.12214 0.0
C1719 C 1.01108 0.40339 0.0874 0.0
H1720 H 0.61586 0.581 0.93493 0.0
H1721 H 0.69809 0.64425 0.96186 0.0
H1722 H 0.68473 0.66167 0.04381 0.0
H1723 H 0.65005 0.66181 0.1066 0.0
H1724 H 0.56703 0.60399 0.07405 0.0
H1725 H 0.58003 0.58187 0.99866 0.0
C1726 C 0.63084 0.59858 0.95863 0.0
C1727 C 0.6583 0.6106 0.94175 0.0
C1728 C 0.62284 0.60966 1.00613 0.0
C1729 C 0.67697 0.63376 0.97344 0.0
C1730 C 0.66936 0.64403 0.02093 0.0
C1731 C 0.63479 0.64395 0.08412 0.0
C1732 C 0.60749 0.63456 0.09706 0.0
C1733 C 0.64243 0.63232 0.03794 0.0
C1734 C 0.58818 0.61167 0.06591 0.0
C1735 C 0.59567 0.59913 0.022 0.0
H1736 H 0.46082 0.046 0.93326 0.0
H1737 H 0.39772 0.06501 0.96143 0.0
H1738 H 0.3807 0.03396 0.04368 0.0
H1739 H 0.38192 0.99975 0.10736 0.0
H1740 H 0.43723 0.97199 0.06609 0.0
H1741 H 0.45914 1.00777 0.99196 0.0
C1742 C 0.44329 0.04326 0.95718 0.0
C1743 C 0.43154 0.0592 0.94211 0.0
C1744 C 0.43226 0.02376 1.0035 0.0
C1745 C 0.40823 0.05433 0.97308 0.0
C1746 C 0.3982 0.03628 0.02037 0.0
C1747 C 0.39917 1.00193 0.08311 0.0
C1748 C 0.40825 0.98347 0.09368 0.0
C1749 C 0.4101 0.021 0.03657 0.0
C1750 C 0.43011 0.98618 0.06004 0.0
C1751 C 0.44243 1.00647 0.01683 0.0
H1752 H 0.62575 0.06239 0.98074 0.0
H1753 H 0.66733 0.03526 0.86642 0.0
H1754 H 0.65592 0.99735 0.93261 0.0
H1755 H 0.63531 0.9719 0.02583 0.0
H1756 H 0.58987 0.99655 0.13392 0.0
H1757 H 0.60123 0.03456 0.06827 0.0
C1758 C 0.63138 0.04751 0.96883 0.0
C1759 C 0.64716 0.05178 0.91736 0.0
C1760 C 0.6241 0.02502 1.00675 0.0
C1761 C 0.65457 0.03237 0.90403 0.0
C1762 C 0.64813 1.01056 0.94247 0.0
C1763 C 0.62757 0.98532 0.03475 0.0
C1764 C 0.61182 0.98103 0.08627 0.0
C1765 C 0.63319 1.00673 0.99445 0.0
C1766 C 0.60217 0.99904 0.09604 0.0
C1767 C 0.60857 0.02088 0.0578 0.0
H1768 H 0.07699 0.65969 0.01881 0.0
H1769 H 0.03608 0.60494 0.1612 0.0
H1770 H 0.99702 0.57881 0.09694 0.0
H1771 H 0.97335 0.57319 1.00154 0.0
H1772 H 1.01519 0.62717 0.85765 0.0
H1773 H 0.0554 0.65133 0.92007 0.0
C1774 C 0.0598 0.64196 0.03581 0.0
C1775 C 0.05983 0.63471 0.09568 0.0
C1776 C 0.0376 0.62663 0.99765 0.0
C1777 C 0.03703 0.61122 0.11597 0.0
C1778 C 1.01457 0.59624 0.07891 0.0
C1779 C 0.99148 0.58982 0.98307 0.0
C1780 C 0.99098 0.59809 0.9241 0.0
C1781 C 1.0145 0.60389 0.01977 0.0
C1782 C 1.0148 0.6199 0.9019 0.0
C1783 C 0.03775 0.63401 0.93816 0.0
H1784 H 0.42649 0.42492 0.13969 0.0
H1785 H 0.39244 0.45678 0.01753 0.0
H1786 H 0.40697 0.43993 0.93414 0.0
H1787 H 0.42835 0.41328 0.89526 0.0
H1788 H 0.4704 0.39112 0.02225 0.0
H1789 H 0.45476 0.40721 0.10141 0.0
C1790 C 0.4228 0.42882 0.09488 0.0
C1791 C 0.40712 0.44112 0.0854 0.0
C1792 C 0.43288 0.42053 0.04672 0.0
C1793 C 0.40293 0.44597 0.02651 0.0
C1794 C 0.41174 0.43666 0.9785 0.0
C1795 C 0.43456 0.41242 0.93992 0.0
C1796 C 0.45019 0.39987 0.95081 0.0
C1797 C 0.42641 0.42327 0.98774 0.0
C1798 C 0.45801 0.39975 1.01026 0.0
C1799 C 0.44905 0.40912 0.05689 0.0
H1800 H 0.11435 0.2627 0.41693 0.0
H1801 H 0.06646 0.18631 0.50359 0.0
H1802 H 0.10465 0.17852 0.50338 0.0
H1803 H 0.15305 0.19482 0.4864 0.0
H1804 H 0.20164 0.27074 0.39858 0.0
H1805 H 0.16223 0.27678 0.38954 0.0
C1806 C 0.1119 0.24379 0.4333 0.0
C1807 C 0.08679 0.22462 0.45841 0.0
C1808 C 0.13439 0.23932 0.43286 0.0
C1809 C 0.0849 0.20101 0.48228 0.0
C1810 C 0.10698 0.19664 0.48264 0.0
C1811 C 0.15491 0.21233 0.46358 0.0
C1812 C 0.18063 0.23215 0.44266 0.0
C1813 C 0.132 0.21578 0.45896 0.0
C1814 C 0.18233 0.25484 0.41411 0.0
C1815 C 0.15968 0.25845 0.40957 0.0
H1816 H 0.78688 0.934 0.40925 0.0
H1817 H 0.8589 0.97809 0.51374 0.0
H1818 H 0.86308 0.93799 0.52235 0.0
H1819 H 0.84511 0.88935 0.50768 0.0
H1820 H 0.77503 0.84417 0.39907 0.0
H1821 H 0.77142 0.88498 0.38479 0.0
C1822 C 0.80409 0.93516 0.43185 0.0
C1823 C 0.82269 0.95972 0.46049 0.0
C1824 C 0.80659 0.9114 0.43684 0.0
C1825 C 0.8443 0.95999 0.49093 0.0
C1826 C 0.84664 0.9368 0.4964 0.0
C1827 C 0.8293 0.88842 0.47979 0.0
C1828 C 0.8106 0.86339 0.45396 0.0
C1829 C 0.82769 0.91222 0.47076 0.0
C1830 C 0.79012 0.86298 0.4187 0.0
C1831 C 0.78797 0.88647 0.41077 0.0
H1832 H 0.07938 0.89625 0.50218 0.0
H1833 H 0.10338 0.84535 0.41181 0.0
H1834 H 0.14928 0.88343 0.40278 0.0
H1835 H 0.18418 0.93045 0.43009 0.0
H1836 H 0.15892 0.98348 0.50434 0.0
H1837 H 0.11255 0.94575 0.51093 0.0
C1838 C 0.09447 0.89364 0.47917 0.0
C1839 C 0.08764 0.8676 0.45804 0.0
C1840 C 0.12095 0.91611 0.47217 0.0
C1841 C 0.10767 0.86494 0.42801 0.0
C1842 C 0.13415 0.88679 0.42327 0.0
C1843 C 0.16836 0.93402 0.44576 0.0
C1844 C 0.17533 0.96006 0.46688 0.0
C1845 C 0.14125 0.91237 0.44639 0.0
C1846 C 0.1544 0.96393 0.48763 0.0
C1847 C 0.12777 0.94219 0.49162 0.0
H1848 H 0.27261 0.17556 0.59632 0.0
H1849 H 0.19499 0.14902 0.51781 0.0
H1850 H 0.18596 0.10235 0.51759 0.0
H1851 H 0.20178 0.06926 0.53215 0.0
H1852 H 0.27732 0.09487 0.62028 0.0
H1853 H 0.28496 0.14101 0.62682 0.0
C1854 C 0.25328 0.15942 0.58123 0.0
C1855 C 0.23437 0.16603 0.55747 0.0
C1856 C 0.24776 0.1322 0.58342 0.0
C1857 C 0.20976 0.14474 0.53691 0.0
C1858 C 0.20465 0.11793 0.53657 0.0
C1859 C 0.21953 0.08474 0.55446 0.0
C1860 C 0.23891 0.07828 0.57582 0.0
C1861 C 0.22367 0.11141 0.5587 0.0
C1862 C 0.26184 0.09886 0.60425 0.0
C1863 C 0.26635 0.12547 0.60742 0.0
H1864 H 0.86964 0.1059 0.59738 0.0
H1865 H 0.89458 0.05454 0.51317 0.0
H1866 H 0.94095 0.09222 0.50851 0.0
H1867 H 0.97446 0.14109 0.52289 0.0
H1868 H 0.95082 0.19098 0.61856 0.0
H1869 H 0.90481 0.15283 0.6265 0.0
C1870 C 0.88539 0.10268 0.57985 0.0
C1871 C 0.87834 0.077 0.556 0.0
C1872 C 0.91259 0.12439 0.57979 0.0
C1873 C 0.89917 0.0737 0.5324 0.0
C1874 C 0.92583 0.09542 0.52956 0.0
C1875 C 0.95946 0.14346 0.54691 0.0
C1876 C 0.96651 0.16926 0.57009 0.0
C1877 C 0.93283 0.12103 0.55239 0.0
C1878 C 0.94645 0.1716 0.60092 0.0
C1879 C 0.91988 0.14969 0.60495 0.0
H1880 H 0.97066 0.83642 0.50647 0.0
H1881 H 0.94795 0.77011 0.62582 0.0
H1882 H 0.90359 0.7662 0.63908 0.0
H1883 H 0.86934 0.77997 0.61117 0.0
H1884 H 0.89386 0.84681 0.49154 0.0
H1885 H 0.93849 0.85195 0.48432 0.0
C1886 C 0.95607 0.82103 0.53541 0.0
C1887 C 0.96294 0.80329 0.56418 0.0
C1888 C 0.93048 0.81905 0.54315 0.0
C1889 C 0.94359 0.78402 0.60261 0.0
C1890 C 0.91802 0.78179 0.61024 0.0
C1891 C 0.88471 0.7963 0.58528 0.0
C1892 C 0.87774 0.81321 0.55252 0.0
C1893 C 0.91097 0.79907 0.58039 0.0
C1894 C 0.89819 0.8336 0.51782 0.0
C1895 C 0.9239 0.83646 0.51314 0.0
H1896 H 0.84675 0.58794 0.74593 0.0
H1897 H 0.82194 0.52047 0.86384 0.0
H1898 H 0.77754 0.51575 0.87239 0.0
H1899 H 0.74597 0.53197 0.85231 0.0
H1900 H 0.76952 0.60004 0.73764 0.0
H1901 H 0.81334 0.60305 0.72147 0.0
C1902 C 0.8313 0.57157 0.77161 0.0
C1903 C 0.83793 0.55424 0.80335 0.0
C1904 C 0.8054 0.56927 0.7778 0.0
C1905 C 0.81764 0.53388 0.83821 0.0
C1906 C 0.79213 0.53128 0.84365 0.0
C1907 C 0.76061 0.54744 0.82354 0.0
C1908 C 0.7542 0.56579 0.79654 0.0
C1909 C 0.78587 0.54911 0.81472 0.0
C1910 C 0.77356 0.58545 0.75883 0.0
C1911 C 0.7988 0.58724 0.74975 0.0
H1912 H 0.45339 0.26737 0.74647 0.0
H1913 H 0.52807 0.31399 0.84072 0.0
H1914 H 0.53442 0.27505 0.84481 0.0
H1915 H 0.51787 0.22671 0.82908 0.0
H1916 H 0.44382 0.17861 0.73478 0.0
H1917 H 0.43852 0.21847 0.72264 0.0
C1918 C 0.47166 0.2694 0.76547 0.0
C1919 C 0.49045 0.29437 0.79248 0.0
C1920 C 0.47525 0.24622 0.76849 0.0
C1921 C 0.51337 0.29563 0.81885 0.0
C1922 C 0.51694 0.27308 0.82185 0.0
C1923 C 0.50067 0.22485 0.80515 0.0
C1924 C 0.48143 0.19922 0.7826 0.0
C1925 C 0.49781 0.24808 0.79812 0.0
C1926 C 0.45934 0.19779 0.75185 0.0
C1927 C 0.45622 0.22078 0.74515 0.0
H1928 H 0.77847 0.19652 0.74614 0.0
H1929 H 0.7357 0.22366 0.85725 0.0
H1930 H 0.77489 0.26872 0.86075 0.0
H1931 H 0.82228 0.30053 0.83786 0.0
H1932 H 0.86715 0.27479 0.73058 0.0
H1933 H 0.82673 0.23001 0.71931 0.0
C1934 C 0.77743 0.21251 0.76946 0.0
C1935 C 0.75345 0.20635 0.8004 0.0
C1936 C 0.80081 0.2389 0.7727 0.0
C1937 C 0.75333 0.22747 0.83222 0.0
C1938 C 0.77598 0.25342 0.8347 0.0
C1939 C 0.82333 0.28523 0.81168 0.0
C1940 C 0.84814 0.2914 0.78532 0.0
C1941 C 0.79999 0.25935 0.80604 0.0
C1942 C 0.84856 0.27106 0.75108 0.0
C1943 C 0.82532 0.24523 0.74496 0.0
H1944 H 0.8719 0.47922 0.84198 0.0
H1945 H 0.93884 0.52247 0.95989 0.0
H1946 H 0.94244 0.48161 0.9726 0.0
H1947 H 0.92858 0.43373 0.9433 0.0
H1948 H 0.86243 0.39258 0.82174 0.0
H1949 H 0.85666 0.4319 0.81763 0.0
C1950 C 0.88723 0.4798 0.87086 0.0
C1951 C 0.90505 0.50426 0.89984 0.0
C1952 C 0.88935 0.45622 0.87736 0.0
C1953 C 0.92455 0.50412 0.93746 0.0
C1954 C 0.92672 0.48063 0.94442 0.0
C1955 C 0.91229 0.43302 0.91764 0.0
C1956 C 0.89569 0.40959 0.88352 0.0
C1957 C 0.90938 0.45648 0.91409 0.0
C1958 C 0.87535 0.40983 0.84901 0.0
C1959 C 0.87216 0.43257 0.84613 0.0
H1960 H 0.53541 0.43779 0.93336 0.0
H1961 H 0.56363 0.38656 0.86247 0.0
H1962 H 0.60946 0.42528 0.85703 0.0
H1963 H 0.64139 0.47495 0.86578 0.0
H1964 H 0.6143 0.52493 0.94866 0.0
H1965 H 0.56888 0.48583 0.95766 0.0
C1966 C 0.55179 0.43481 0.91906 0.0
C1967 C 0.54584 0.40881 0.89938 0.0
C1968 C 0.57854 0.45723 0.91806 0.0
C1969 C 0.56741 0.40589 0.87916 0.0
C1970 C 0.59372 0.42824 0.87554 0.0
C1971 C 0.62574 0.47716 0.8873 0.0
C1972 C 0.63162 0.50317 0.90673 0.0
C1973 C 0.59955 0.45417 0.89396 0.0
C1974 C 0.61079 0.50536 0.9342 0.0
C1975 C 0.5846 0.48291 0.93887 0.0
H1976 H 0.64201 0.17184 0.83449 0.0
H1977 H 0.61728 0.10599 0.9563 0.0
H1978 H 0.57356 0.1037 0.96826 0.0
H1979 H 0.54047 0.1185 0.9382 0.0
H1980 H 0.56533 0.18198 0.80962 0.0
H1981 H 0.6101 0.18699 0.80637 0.0
C1982 C 0.6271 0.15688 0.86362 0.0
C1983 C 0.6333 0.13898 0.89397 0.0
C1984 C 0.60164 0.1553 0.86925 0.0
C1985 C 0.61355 0.12021 0.93246 0.0
C1986 C 0.58831 0.1188 0.93906 0.0
C1987 C 0.55595 0.134 0.91088 0.0
C1988 C 0.54931 0.15034 0.87516 0.0
C1989 C 0.58188 0.13609 0.90724 0.0
C1990 C 0.56963 0.16947 0.83837 0.0
C1991 C 0.59535 0.17217 0.83602 0.0
H1992 H 0.48293 0.8608 0.1682 0.0
H1993 H 0.53157 0.93349 0.06914 0.0
H1994 H 0.49335 0.94138 0.06217 0.0
H1995 H 0.44696 0.93004 0.09342 0.0
H1996 H 0.39705 0.85489 0.18295 0.0
H1997 H 0.43461 0.84591 0.18576 0.0
C1998 C 0.48498 0.87796 0.14353 0.0
C1999 C 0.51039 0.89645 0.119 0.0
C2000 C 0.46262 0.88226 0.13914 0.0
C2001 C 0.51241 0.91864 0.0876 0.0
C2002 C 0.49051 0.92334 0.08424 0.0
C2003 C 0.44404 0.91127 0.1119 0.0
C2004 C 0.41886 0.89303 0.13767 0.0
C2005 C 0.46563 0.90565 0.11101 0.0
C2006 C 0.41585 0.86912 0.16225 0.0
C2007 C 0.43748 0.86403 0.164 0.0
H2008 H 0.18099 0.63283 0.15428 0.0
H2009 H 0.10131 0.60482 0.08554 0.0
H2010 H 0.09327 0.55848 0.08273 0.0
H2011 H 0.1073 0.5248 0.10973 0.0
H2012 H 0.18851 0.55341 0.16872 0.0
H2013 H 0.19735 0.60003 0.16645 0.0
C2014 C 0.16214 0.61671 0.13701 0.0
C2015 C 0.14182 0.62263 0.11991 0.0
C2016 C 0.15773 0.58989 0.1349 0.0
C2017 C 0.1175 0.60123 0.09806 0.0
C2018 C 0.11277 0.57453 0.09709 0.0
C2019 C 0.12718 0.54131 0.12051 0.0
C2020 C 0.14728 0.53537 0.13927 0.0
C2021 C 0.13249 0.56844 0.11672 0.0
C2022 C 0.17275 0.55717 0.15368 0.0
C2023 C 0.17778 0.58395 0.15254 0.0
H2024 H 0.48793 0.62943 0.18369 0.0
H2025 H 0.52988 0.60828 0.05675 0.0
H2026 H 0.48932 0.56387 0.04267 0.0
H2027 H 0.44135 0.52915 0.07165 0.0
H2028 H 0.39968 0.55468 0.19071 0.0
H2029 H 0.43986 0.59841 0.20161 0.0
C2030 C 0.48827 0.61532 0.15228 0.0
C2031 C 0.51258 0.62249 0.1222 0.0
C2032 C 0.46439 0.59011 0.14266 0.0
C2033 C 0.51195 0.60362 0.08128 0.0
C2034 C 0.4885 0.57804 0.07309 0.0
C2035 C 0.44069 0.54456 0.0982 0.0
C2036 C 0.41679 0.53786 0.13035 0.0
C2037 C 0.46442 0.57076 0.1039 0.0
C2038 C 0.41723 0.55855 0.1653 0.0
C2039 C 0.44049 0.58384 0.17205 0.0
H2040 H 0.59615 0.7674 0.28012 0.0
H2041 H 0.52938 0.72473 0.16053 0.0
H2042 H 0.52449 0.76436 0.15124 0.0
H2043 H 0.54004 0.8121 0.1715 0.0
H2044 H 0.6059 0.85618 0.2914 0.0
H2045 H 0.60993 0.81571 0.30641 0.0
C2046 C 0.57992 0.76645 0.25375 0.0
C2047 C 0.563 0.74245 0.22151 0.0
C2048 C 0.57715 0.78996 0.24791 0.0
C2049 C 0.54268 0.74242 0.18625 0.0
C2050 C 0.53992 0.76532 0.18044 0.0
C2051 C 0.55516 0.81289 0.20143 0.0
C2052 C 0.57253 0.83748 0.23036 0.0
C2053 C 0.55724 0.78937 0.2101 0.0
C2054 C 0.59191 0.8377 0.26904 0.0
C2055 C 0.59431 0.81442 0.27739 0.0
H2056 H 0.30596 0.81006 0.20253 0.0
H2057 H 0.27945 0.8623 0.27608 0.0
H2058 H 0.23312 0.82432 0.28007 0.0
H2059 H 0.19886 0.77681 0.25227 0.0
H2060 H 0.22618 0.72378 0.18772 0.0
H2061 H 0.27278 0.76114 0.18922 0.0
C2062 C 0.2902 0.81301 0.22109 0.0
C2063 C 0.29658 0.83936 0.23915 0.0
C2064 C 0.26336 0.79081 0.22356 0.0
C2065 C 0.27558 0.84248 0.26273 0.0
C2066 C 0.24885 0.82067 0.26434 0.0
C2067 C 0.21509 0.77324 0.24007 0.0
C2068 C 0.20872 0.74716 0.21999 0.0
C2069 C 0.2423 0.79483 0.24347 0.0
C2070 C 0.23021 0.74329 0.20377 0.0
C2071 C 0.257 0.76481 0.20451 0.0
H2072 H 0.26796 0.43404 0.25481 0.0
H2073 H 0.32072 0.51552 0.19682 0.0
H2074 H 0.28303 0.52434 0.19781 0.0
H2075 H 0.2339 0.50784 0.20846 0.0
H2076 H 0.18212 0.42794 0.27668 0.0
H2077 H 0.22035 0.42 0.28097 0.0
C2078 C 0.27143 0.45402 0.24428 0.0
C2079 C 0.2975 0.47418 0.22609 0.0
C2080 C 0.24967 0.45934 0.24743 0.0
C2081 C 0.30121 0.49972 0.21157 0.0
C2082 C 0.2795 0.50474 0.21195 0.0
C2083 C 0.23112 0.48897 0.22598 0.0
C2084 C 0.20486 0.46856 0.24248 0.0
C2085 C 0.25349 0.48462 0.229 0.0
C2086 C 0.20189 0.44421 0.26462 0.0
C2087 C 0.22384 0.43954 0.26644 0.0
H2088 H 0.99507 0.19044 0.07733 0.0
H2089 H 0.04922 0.26578 0.1626 0.0
H2090 H 0.05601 0.28959 0.06974 0.0
H2091 H 0.04621 0.28942 0.96396 0.0
H2092 H 0.99097 0.2141 0.87931 0.0
H2093 H 0.98501 0.19002 0.97186 0.0
C2094 C 1.00835 0.21213 0.07522 0.0
C2095 C 1.02167 0.22642 0.12631 0.0
C2096 C 1.01181 0.2258 0.02182 0.0
C2097 C 0.03863 0.25447 0.12367 0.0
C2098 C 0.0425 0.26812 0.07053 0.0
C2099 C 0.03257 0.2678 0.96598 0.0
C2100 C 1.01887 0.25361 0.91494 0.0
C2101 C 0.02907 0.25408 0.01939 0.0
C2102 C 1.00182 0.22548 0.91792 0.0
C2103 C 0.99832 0.2117 0.97083 0.0
H2104 H 0.85355 0.83204 0.06617 0.0
H2105 H 0.78622 0.76214 0.14491 0.0
H2106 H 0.76001 0.75486 0.05544 0.0
H2107 H 0.7566 0.76766 0.95347 0.0
H2108 H 0.82563 0.83451 0.87228 0.0
H2109 H 0.85134 0.84286 0.96352 0.0
C2110 C 0.83336 0.81483 0.0637 0.0
C2111 C 0.82209 0.79766 0.11249 0.0
C2112 C 0.81879 0.81003 1.01137 0.0
C2113 C 0.79543 0.77605 0.10865 0.0
C2114 C 0.78045 0.77166 0.05719 0.0
C2115 C 0.77727 0.78405 0.95607 0.0
C2116 C 0.78926 0.80066 0.9069 0.0
C2117 C 0.79198 0.78845 1.00821 0.0
C2118 C 0.81613 0.82154 0.90989 0.0
C2119 C 0.83073 0.82637 0.96196 0.0
H2120 H 0.20703 0.99275 0.09088 0.0
H2121 H 0.27978 0.06558 0.14099 0.0
H2122 H 0.29986 0.06631 0.0463 0.0
H2123 H 0.29672 0.0468 0.94868 0.0
H2124 H 0.22358 0.97485 0.89731 0.0
H2125 H 0.20326 0.9742 0.99198 0.0
C2126 C 0.2271 1.00907 0.08088 0.0
C2127 C 0.2418 0.02895 0.12344 0.0
C2128 C 0.23839 1.0098 0.02574 0.0
C2129 C 0.26806 0.04963 0.1098 0.0
C2130 C 0.27955 0.05026 0.05534 0.0
C2131 C 0.27642 0.03086 0.95841 0.0
C2132 C 0.2618 1.01086 0.91616 0.0
C2133 C 0.26491 0.03044 0.01305 0.0
C2134 C 0.23525 0.99066 0.92887 0.0
C2135 C 0.22365 0.99013 0.98316 0.0
H2136 H 0.06641 0.83172 0.93276 0.0
H2137 H 0.98356 0.78364 0.87928 0.0
H2138 H 0.97223 0.76042 0.97449 0.0
H2139 H 0.98582 0.75384 0.07268 0.0
H2140 H 0.06801 0.80337 0.12946 0.0
H2141 H 0.08 0.82559 0.03283 0.0
C2142 C 0.04605 0.81571 0.94181 0.0
C2143 C 0.02584 0.80894 0.89928 0.0
C2144 C 0.0397 0.80261 0.99679 0.0
C2145 C 0.99939 0.78871 0.91137 0.0
C2146 C 0.99295 0.77551 0.96564 0.0
C2147 C 1.00638 0.76939 0.06358 0.0
C2148 C 0.02611 0.77685 0.10752 0.0
C2149 C 1.01291 0.78228 1.00861 0.0
C2150 C 0.05257 0.79735 0.09599 0.0
C2151 C 0.0594 0.80995 0.04082 0.0
H2152 H 0.29417 0.29369 0.06142 0.0
H2153 H 0.24412 0.21509 0.13898 0.0
H2154 H 0.21757 0.19969 0.04866 0.0
H2155 H 0.20934 0.20821 0.94703 0.0
H2156 H 0.26038 0.28637 0.86887 0.0
H2157 H 0.28697 0.30171 0.95924 0.0
C2158 C 0.27772 0.27305 0.05849 0.0
C2159 C 0.27128 0.25561 0.10705 0.0
C2160 C 0.26307 0.26407 1.00599 0.0
C2161 C 0.24935 0.22914 0.10275 0.0
C2162 C 0.23433 0.22019 0.05086 0.0
C2163 C 0.22616 0.22867 0.94995 0.0
C2164 C 0.23269 0.24621 0.9016 0.0
C2165 C 0.2411 0.23746 1.00219 0.0
C2166 C 0.255 0.27242 0.90538 0.0
C2167 C 0.27005 0.28129 0.95718 0.0
H2168 H 0.75811 0.99708 0.07115 0.0
H2169 H 0.83578 0.05986 0.1311 0.0
H2170 H 0.85612 0.05752 0.03824 0.0
H2171 H 0.8511 0.03946 0.93828 0.0
H2172 H 0.77363 0.97433 0.88181 0.0
H2173 H 0.75374 0.97682 0.97412 0.0
C2174 C 0.77947 1.01031 0.06368 0.0
C2175 C 0.79537 0.02887 0.10724 0.0
C2176 C 0.79095 1.00885 1.01051 0.0
C2177 C 0.82315 0.04543 0.09796 0.0
C2178 C 0.83473 0.04421 0.04485 0.0
C2179 C 0.82999 0.02541 0.94634 0.0
C2180 C 0.81399 1.007 0.90235 0.0
C2181 C 0.81873 0.02621 1.00054 0.0
C2182 C 0.78647 0.98933 0.91376 0.0
C2183 C 0.77503 0.99045 0.96698 0.0
H2184 H 0.67806 0.61233 0.29457 0.0
H2185 H 0.71511 0.56855 0.22382 0.0
H2186 H 0.70627 0.54337 0.31518 0.0
H2187 H 0.6877 0.53334 0.41476 0.0
H2188 H 0.65168 0.57766 0.48713 0.0
H2189 H 0.6617 0.60401 0.39649 0.0
C2190 C 0.68452 0.59754 0.29932 0.0
C2191 C 0.69683 0.59213 0.25185 0.0
C2192 C 0.67987 0.58343 0.35252 0.0
C2193 C 0.70488 0.57268 0.25885 0.0
C2194 C 0.70011 0.55841 0.31137 0.0
C2195 C 0.68187 0.54863 0.41052 0.0
C2196 C 0.6686 0.55324 0.45715 0.0
C2197 C 0.68743 0.56347 0.35826 0.0
C2198 C 0.66191 0.5737 0.45179 0.0
C2199 C 0.66747 0.58866 0.39988 0.0
H2200 H 0.51471 0.13808 0.41369 0.0
H2201 H 0.44469 0.13759 0.48373 0.0
H2202 H 0.42317 0.12563 0.38645 0.0
H2203 H 0.42424 0.11511 0.28265 0.0
H2204 H 0.49324 0.11276 0.21392 0.0
H2205 H 0.5151 0.12577 0.31 0.0
C2206 C 0.4947 0.13524 0.40737 0.0
C2207 C 0.4813 0.13895 0.45485 0.0
C2208 C 0.48215 0.12749 0.3522 0.0
C2209 C 0.45526 0.1349 0.44721 0.0
C2210 C 0.44293 0.12788 0.39201 0.0
C2211 C 0.44381 0.11687 0.28885 0.0
C2212 C 0.45702 0.11291 0.24105 0.0
C2213 C 0.45612 0.12398 0.34434 0.0
C2214 C 0.4827 0.11596 0.24974 0.0
C2215 C 0.4952 0.1233 0.30472 0.0
H2216 H 0.9346 0.32395 0.29086 0.0
H2217 H 0.92828 0.38905 0.2106 0.0
H2218 H 0.91243 0.39754 0.30343 0.0
H2219 H 0.89987 0.38612 0.40734 0.0
H2220 H 0.90843 0.32275 0.48895 0.0
H2221 H 0.92416 0.31417 0.39534 0.0
C2222 C 0.93026 0.34033 0.29392 0.0
C2223 C 0.93262 0.35581 0.24384 0.0
C2224 C 0.92145 0.34534 0.34755 0.0
C2225 C 0.92635 0.37661 0.24833 0.0
C2226 C 0.91736 0.38156 0.30141 0.0
C2227 C 0.90521 0.37042 0.40441 0.0
C2228 C 0.90286 0.35491 0.4543 0.0
C2229 C 0.91467 0.36592 0.35116 0.0
C2230 C 0.91013 0.33488 0.45079 0.0
C2231 C 0.91909 0.32997 0.39757 0.0
H2232 H 0.72786 0.17989 0.27644 0.0
H2233 H 0.66627 0.10778 0.19223 0.0
H2234 H 0.65731 0.08335 0.28543 0.0
H2235 H 0.66556 0.08246 0.39002 0.0
H2236 H 0.72978 0.15343 0.4735 0.0
H2237 H 0.73866 0.17827 0.38124 0.0
C2238 C 0.71254 0.15873 0.27876 0.0
C2239 C 0.69753 0.1456 0.22826 0.0
C2240 C 0.70781 0.14457 0.33194 0.0
C2241 C 0.67798 0.11819 0.23088 0.0
C2242 C 0.67283 0.10421 0.2839 0.0
C2243 C 0.68198 0.10315 0.38807 0.0
C2244 C 0.69693 0.11591 0.43903 0.0
C2245 C 0.6875 0.11716 0.33465 0.0
C2246 C 0.71759 0.14307 0.43542 0.0
C2247 C 0.72284 0.15731 0.38252 0.0
H2248 H 0.89255 0.53453 0.26563 0.0
H2249 H 0.90626 0.61299 0.21189 0.0
H2250 H 0.92735 0.63186 0.30626 0.0
H2251 H 0.93999 0.62576 0.40641 0.0
H2252 H 0.92181 0.54638 0.46282 0.0
H2253 H 0.90315 0.52797 0.36595 0.0
C2254 C 0.89962 0.55565 0.27458 0.0
C2255 C 0.89762 0.57211 0.23115 0.0
C2256 C 0.91059 0.56619 0.32995 0.0
C2257 C 0.90786 0.59972 0.24359 0.0
C2258 C 0.91968 0.61057 0.298 0.0
C2259 C 0.93198 0.60447 0.39716 0.0
C2260 C 0.9322 0.58742 0.44128 0.0
C2261 C 0.92092 0.59394 0.3417 0.0
C2262 C 0.92159 0.55981 0.42941 0.0
C2263 C 0.91108 0.54931 0.37406 0.0
H2264 H 0.50851 0.37543 0.27381 0.0
H2265 H 0.439 0.29955 0.22447 0.0
H2266 H 0.41817 0.29748 0.31893 0.0
H2267 H 0.42003 0.31639 0.41692 0.0
H2268 H 0.49049 0.39079 0.46844 0.0
H2269 H 0.51106 0.39351 0.37277 0.0
C2270 C 0.48901 0.35818 0.28387 0.0
C2271 C 0.47545 0.33778 0.24157 0.0
C2272 C 0.47739 0.35661 0.3391 0.0
C2273 C 0.44983 0.31592 0.25536 0.0
C2274 C 0.43794 0.31452 0.30975 0.0
C2275 C 0.43981 0.33327 0.40697 0.0
C2276 C 0.45365 0.35336 0.44952 0.0
C2277 C 0.45156 0.3347 0.35199 0.0
C2278 C 0.47949 0.37491 0.43653 0.0
C2279 C 0.49121 0.37659 0.38175 0.0
H2280 H 0.35826 0.95431 0.62923 0.0
H2281 H 0.3822 0.90191 0.54438 0.0
H2282 H 0.37048 0.87414 0.63277 0.0
H2283 H 0.35464 0.86545 0.73475 0.0
H2284 H 0.33144 0.91831 0.81982 0.0
H2285 H 0.34339 0.94623 0.73158 0.0
C2286 C 0.36131 0.93706 0.63017 0.0
C2287 C 0.37118 0.93033 0.58013 0.0
C2288 C 0.35521 0.92157 0.68151 0.0
C2289 C 0.37428 0.90742 0.58184 0.0
C2290 C 0.36787 0.89166 0.6326 0.0
C2291 C 0.35195 0.88293 0.73382 0.0
C2292 C 0.34195 0.88961 0.78363 0.0
C2293 C 0.35842 0.89863 0.6827 0.0
C2294 C 0.33929 0.91278 0.78228 0.0
C2295 C 0.34588 0.92863 0.73167 0.0
H2296 H 0.18651 0.49881 0.73668 0.0
H2297 H 0.11905 0.43131 0.82147 0.0
H2298 H 0.09209 0.42299 0.73264 0.0
H2299 H 0.08828 0.43401 0.6293 0.0
H2300 H 0.15671 0.49935 0.54344 0.0
H2301 H 0.1834 0.50838 0.63346 0.0
C2302 C 0.16609 0.48192 0.73567 0.0
C2303 C 0.15502 0.46568 0.78585 0.0
C2304 C 0.15104 0.47661 0.68392 0.0
C2305 C 0.12812 0.44446 0.78397 0.0
C2306 C 0.11272 0.43947 0.73293 0.0
C2307 C 0.10893 0.45037 0.63091 0.0
C2308 C 0.12049 0.46634 0.58075 0.0
C2309 C 0.12405 0.45534 0.68259 0.0
C2310 C 0.14751 0.48692 0.58191 0.0
C2311 C 0.16265 0.49215 0.6333 0.0
H2312 H 0.57047 0.72439 0.74343 0.0
H2313 H 0.56566 0.65505 0.8301 0.0
H2314 H 0.57728 0.64119 0.73785 0.0
H2315 H 0.58857 0.64847 0.63325 0.0
H2316 H 0.59565 0.71894 0.54676 0.0
H2317 H 0.58306 0.7325 0.6382 0.0
C2318 C 0.57214 0.70632 0.74188 0.0
C2319 C 0.56724 0.69068 0.793 0.0
C2320 C 0.57909 0.69861 0.68897 0.0
C2321 C 0.56957 0.66742 0.79116 0.0
C2322 C 0.57609 0.65944 0.73854 0.0
C2323 C 0.58753 0.6669 0.63446 0.0
C2324 C 0.59313 0.68273 0.58336 0.0
C2325 C 0.58084 0.67482 0.68725 0.0
C2326 C 0.59115 0.70625 0.58533 0.0
C2327 C 0.58418 0.71413 0.63769 0.0
H2328 H 0.32201 0.42354 0.72512 0.0
H2329 H 0.397 0.47169 0.81738 0.0
H2330 H 0.4167 0.49897 0.72899 0.0
H2331 H 0.41301 0.5079 0.6249 0.0
H2332 H 0.33782 0.45997 0.53295 0.0
H2333 H 0.31799 0.43309 0.62156 0.0
C2334 C 0.34268 0.43999 0.72573 0.0
C2335 C 0.35813 0.44556 0.77732 0.0
C2336 C 0.35389 0.45531 0.67482 0.0
C2337 C 0.38471 0.4672 0.77814 0.0
C2338 C 0.39601 0.48263 0.7276 0.0
C2339 C 0.3922 0.49177 0.62446 0.0
C2340 C 0.37692 0.48597 0.57256 0.0
C2341 C 0.38084 0.47671 0.67564 0.0
C2342 C 0.35012 0.46463 0.57221 0.0
C2343 C 0.3387 0.44941 0.62292 0.0
H2344 H 0.63194 0.9288 0.72189 0.0
H2345 H 0.56106 0.91889 0.81137 0.0
H2346 H 0.5358 0.90447 0.71947 0.0
H2347 H 0.53366 0.89436 0.6134 0.0
H2348 H 0.60536 0.90785 0.52304 0.0
H2349 H 0.63053 0.92189 0.61538 0.0
C2350 C 0.61117 0.92417 0.72147 0.0
C2351 C 0.59861 0.92501 0.77413 0.0
C2352 C 0.59689 0.91668 0.6681 0.0
C2353 C 0.57132 0.91804 0.77216 0.0
C2354 C 0.55684 0.91 0.71939 0.0
C2355 C 0.5549 0.90064 0.61416 0.0
C2356 C 0.5677 0.89998 0.56196 0.0
C2357 C 0.5694 0.90916 0.66718 0.0
C2358 C 0.5952 0.90834 0.56285 0.0
C2359 C 0.60959 0.91632 0.61562 0.0
H2360 H 0.11589 0.64114 0.61266 0.0
H2361 H 0.18 0.71533 0.54155 0.0
H2362 H 0.18157 0.73922 0.63236 0.0
H2363 H 0.1665 0.7381 0.73318 0.0
H2364 H 0.09969 0.66469 0.80175 0.0
H2365 H 0.09792 0.64106 0.71105 0.0
C2366 C 0.13003 0.66258 0.61727 0.0
C2367 C 0.148 0.67658 0.5715 0.0
C2368 C 0.13062 0.67609 0.66911 0.0
C2369 C 0.16605 0.70434 0.57676 0.0
C2370 C 0.16702 0.71789 0.62856 0.0
C2371 C 0.15117 0.71708 0.72809 0.0
C2372 C 0.13342 0.70324 0.77456 0.0
C2373 C 0.14964 0.70385 0.67523 0.0
C2374 C 0.11408 0.67577 0.76736 0.0
C2375 C 0.11283 0.66227 0.71525 0.0
loop_
_geom_bond_atom_site_label_1
_geom_bond_atom_site_label_2
_geom_bond_distance
_geom_bond_site_symmetry_2
_ccdc_geom_bond_type
Eu0 N29 2.600 . S
Eu0 N35 2.562 . S
Eu0 O44 2.462 . S
Eu0 O45 2.373 . S
Eu0 O47 2.432 . S
Eu0 O48 2.291 1_455 S
Eu0 O52 2.335 1_455 S
Eu0 O55 2.372 . S
Eu0 C64 2.787 . S
C1 N2 1.365 . S
C1 C4 1.405 . S
C1 C8 1.448 . S
N2 C1 1.365 . S
N2 C5 1.319 . S
N2 Eu11 2.600 . S
C3 C5 1.397 . S
C3 C6 1.367 . S
C3 H23 0.931 . S
C4 C1 1.405 . S
C4 C6 1.403 . S
C4 C10 1.439 . S
C5 N2 1.319 . S
C5 C3 1.397 . S
C5 H16 0.930 . S
C6 C3 1.367 . S
C6 C4 1.403 . S
C6 H27 0.929 . S
C7 C8 1.430 . S
C7 C9 1.387 . S
C7 C13 1.404 . S
C8 C1 1.448 . S
C8 C7 1.430 . S
C8 N12 1.351 . S
C9 C7 1.387 . S
C9 C10 1.374 . S
C9 H24 0.931 . S
C10 C4 1.439 . S
C10 C9 1.374 . S
C10 H25 0.931 . S
Eu11 N2 2.600 . S
Eu11 N12 2.562 . S
Eu11 O46 2.335 1_655 S
Eu11 O49 2.372 . S
Eu11 O50 2.462 . S
Eu11 O51 2.373 . S
Eu11 O53 2.432 . S
Eu11 O54 2.291 1_655 S
Eu11 C75 2.787 . S
N12 C8 1.351 . S
N12 Eu11 2.562 . S
N12 C14 1.325 . S
C13 C7 1.404 . S
C13 C15 1.366 . S
C13 H21 0.930 . S
C14 N12 1.325 . S
C14 C15 1.416 . S
C14 H20 0.929 . S
C15 C13 1.366 . S
C15 C14 1.416 . S
C15 H17 0.930 . S
H16 C5 0.930 . S
H17 C15 0.930 . S
H18 C33 0.930 . S
H19 C40 0.930 . S
H20 C14 0.929 . S
H21 C13 0.930 . S
H22 C36 0.929 . S
H23 C3 0.931 . S
H24 C9 0.931 . S
H25 C10 0.931 . S
H26 C31 0.931 . S
H27 C6 0.929 . S
H28 C39 0.930 . S
N29 Eu0 2.600 . S
N29 C30 1.365 . S
N29 C33 1.319 . S
C30 N29 1.365 . S
C30 C32 1.405 . S
C30 C38 1.448 . S
C31 H26 0.931 . S
C31 C33 1.397 . S
C31 C34 1.367 . S
C32 C30 1.405 . S
C32 C34 1.403 . S
C32 C65 1.439 . S
C33 H18 0.930 . S
C33 N29 1.319 . S
C33 C31 1.397 . S
C34 C31 1.367 . S
C34 C32 1.403 . S
C34 H41 0.929 . S
N35 Eu0 2.562 . S
N35 C36 1.325 . S
N35 C38 1.351 . S
C36 H22 0.929 . S
C36 N35 1.325 . S
C36 C40 1.416 . S
C37 C38 1.430 . S
C37 C39 1.404 . S
C37 C66 1.387 . S
C38 C30 1.448 . S
C38 N35 1.351 . S
C38 C37 1.430 . S
C39 H28 0.930 . S
C39 C37 1.404 . S
C39 C40 1.366 . S
C40 H19 0.930 . S
C40 C36 1.416 . S
C40 C39 1.366 . S
H41 C34 0.929 . S
H42 C65 0.931 . S
H43 C66 0.931 . S
O44 Eu0 2.462 . S
O44 C64 1.252 . S
O45 Eu0 2.373 . S
O45 C56 1.249 . S
O46 Eu11 2.335 1_455 S
O46 C56 1.264 . S
O47 Eu0 2.432 . S
O47 C64 1.268 . S
O48 Eu0 2.291 1_655 S
O48 C63 1.255 . S
O49 Eu11 2.372 . S
O49 C63 1.257 . S
O50 Eu11 2.462 . S
O50 C75 1.252 . S
O51 Eu11 2.373 . S
O51 C67 1.249 . S
O52 Eu0 2.335 1_655 S
O52 C67 1.264 . S
O53 Eu11 2.432 . S
O53 C75 1.268 . S
O54 Eu11 2.291 1_455 S
O54 C74 1.255 . S
O55 Eu0 2.372 . S
O55 C74 1.257 . S
C56 O45 1.249 . S
C56 O46 1.264 . S
C57 C60 1.382 . S
C57 C62 1.390 1_455 S
C57 C64 1.506 . S
C58 C59 1.398 1_655 S
C58 C62 1.392 . S
C59 C58 1.398 1_455 S
C59 C61 1.372 . S
C59 H76 0.931 . S
C60 C57 1.382 . S
C60 C61 1.390 . S
C60 H77 0.931 . S
C61 C59 1.372 . S
C61 C60 1.390 . S
C61 H78 0.929 . S
C62 C57 1.390 1_655 S
C62 C58 1.392 . S
C62 H79 0.930 . S
C63 O48 1.255 . S
C63 O49 1.257 . S
C64 Eu0 2.787 . S
C64 O44 1.252 . S
C64 O47 1.268 . S
C64 C57 1.506 . S
C65 C32 1.439 . S
C65 H42 0.931 . S
C65 C66 1.374 . S
C66 C37 1.387 . S
C66 H43 0.931 . S
C66 C65 1.374 . S
C67 O51 1.249 . S
C67 O52 1.264 . S
C68 C71 1.382 . S
C68 C72 1.390 1_655 S
C68 C75 1.506 . S
C69 C70 1.398 1_455 S
C69 C72 1.392 . S
C70 C69 1.398 1_655 S
C70 C73 1.372 . S
C70 H80 0.931 . S
C71 C68 1.382 . S
C71 C73 1.390 . S
C71 H81 0.931 . S
C72 C68 1.390 1_455 S
C72 C69 1.392 . S
C72 H82 0.930 . S
C73 C70 1.372 . S
C73 C71 1.390 . S
C73 H83 0.929 . S
C74 O54 1.255 . S
C74 O55 1.257 . S
C75 Eu11 2.787 . S
C75 O50 1.252 . S
C75 O53 1.268 . S
C75 C68 1.506 . S
H76 C59 0.931 . S
H77 C60 0.931 . S
H78 C61 0.929 . S
H79 C62 0.930 . S
H80 C70 0.931 . S
H81 C71 0.931 . S
H82 C72 0.930 . S
H83 C73 0.929 . S
Eu84 N113 2.600 . S
Eu84 N119 2.562 . S
Eu84 O128 2.462 . S
Eu84 O129 2.373 . S
Eu84 O131 2.432 . S
Eu84 O132 2.291 . S
Eu84 O136 2.335 . S
Eu84 O139 2.372 . S
Eu84 C148 2.787 . S
C85 N86 1.365 . S
C85 C88 1.405 . S
C85 C92 1.448 . S
N86 C85 1.365 . S
N86 C89 1.319 . S
N86 Eu95 2.600 . S
C87 C89 1.397 . S
C87 C90 1.367 . S
C87 H107 0.931 . S
C88 C85 1.405 . S
C88 C90 1.403 . S
C88 C94 1.439 . S
C89 N86 1.319 . S
C89 C87 1.397 . S
C89 H100 0.930 . S
C90 C87 1.367 . S
C90 C88 1.403 . S
C90 H111 0.929 . S
C91 C92 1.430 . S
C91 C93 1.387 . S
C91 C97 1.404 . S
C92 C85 1.448 . S
C92 C91 1.430 . S
C92 N96 1.351 . S
C93 C91 1.387 . S
C93 C94 1.374 . S
C93 H108 0.931 . S
C94 C88 1.439 . S
C94 C93 1.374 . S
C94 H109 0.931 . S
Eu95 N86 2.600 . S
Eu95 N96 2.562 . S
Eu95 O130 2.335 . S
Eu95 O133 2.372 . S
Eu95 O134 2.462 . S
Eu95 O135 2.373 . S
Eu95 O137 2.432 . S
Eu95 O138 2.291 . S
Eu95 C159 2.787 . S
N96 C92 1.351 . S
N96 Eu95 2.562 . S
N96 C98 1.325 . S
C97 C91 1.404 . S
C97 C99 1.366 . S
C97 H105 0.930 . S
C98 N96 1.325 . S
C98 C99 1.416 . S
C98 H104 0.929 . S
C99 C97 1.366 . S
C99 C98 1.416 . S
C99 H101 0.930 . S
H100 C89 0.930 . S
H101 C99 0.930 . S
H102 C117 0.930 . S
H103 C124 0.930 . S
H104 C98 0.929 . S
H105 C97 0.930 . S
H106 C120 0.929 . S
H107 C87 0.931 . S
H108 C93 0.931 . S
H109 C94 0.931 . S
H110 C115 0.931 . S
H111 C90 0.929 . S
H112 C123 0.930 . S
N113 Eu84 2.600 . S
N113 C114 1.365 . S
N113 C117 1.319 . S
C114 N113 1.365 . S
C114 C116 1.405 . S
C114 C122 1.448 . S
C115 H110 0.931 . S
C115 C117 1.397 . S
C115 C118 1.367 . S
C116 C114 1.405 . S
C116 C118 1.403 . S
C116 C149 1.439 . S
C117 H102 0.930 . S
C117 N113 1.319 . S
C117 C115 1.397 . S
C118 C115 1.367 . S
C118 C116 1.403 . S
C118 H125 0.929 . S
N119 Eu84 2.562 . S
N119 C120 1.325 . S
N119 C122 1.351 . S
C120 H106 0.929 . S
C120 N119 1.325 . S
C120 C124 1.416 . S
C121 C122 1.430 . S
C121 C123 1.404 . S
C121 C150 1.387 . S
C122 C114 1.448 . S
C122 N119 1.351 . S
C122 C121 1.430 . S
C123 H112 0.930 . S
C123 C121 1.404 . S
C123 C124 1.366 . S
C124 H103 0.930 . S
C124 C120 1.416 . S
C124 C123 1.366 . S
H125 C118 0.929 . S
H126 C149 0.931 . S
H127 C150 0.931 . S
O128 Eu84 2.462 . S
O128 C148 1.252 . S
O129 Eu84 2.373 . S
O129 C140 1.249 . S
O130 Eu95 2.335 . S
O130 C140 1.264 . S
O131 Eu84 2.432 . S
O131 C148 1.268 . S
O132 Eu84 2.291 . S
O132 C147 1.255 . S
O133 Eu95 2.372 . S
O133 C147 1.257 . S
O134 Eu95 2.462 . S
O134 C159 1.252 . S
O135 Eu95 2.373 . S
O135 C151 1.249 . S
O136 Eu84 2.335 . S
O136 C151 1.264 . S
O137 Eu95 2.432 . S
O137 C159 1.268 . S
O138 Eu95 2.291 . S
O138 C158 1.255 . S
O139 Eu84 2.372 . S
O139 C158 1.257 . S
C140 O129 1.249 . S
C140 O130 1.264 . S
C141 C144 1.382 . S
C141 C146 1.390 . S
C141 C148 1.506 . S
C142 C143 1.398 . S
C142 C146 1.392 . S
C143 C142 1.398 . S
C143 C145 1.372 . S
C143 H160 0.931 . S
C144 C141 1.382 . S
C144 C145 1.390 . S
C144 H161 0.931 . S
C145 C143 1.372 . S
C145 C144 1.390 . S
C145 H162 0.929 . S
C146 C141 1.390 . S
C146 C142 1.392 . S
C146 H163 0.930 . S
C147 O132 1.255 . S
C147 O133 1.257 . S
C148 Eu84 2.787 . S
C148 O128 1.252 . S
C148 O131 1.268 . S
C148 C141 1.506 . S
C149 C116 1.439 . S
C149 H126 0.931 . S
C149 C150 1.374 . S
C150 C121 1.387 . S
C150 H127 0.931 . S
C150 C149 1.374 . S
C151 O135 1.249 . S
C151 O136 1.264 . S
C152 C155 1.382 . S
C152 C156 1.390 . S
C152 C159 1.506 . S
C153 C154 1.398 . S
C153 C156 1.392 . S
C154 C153 1.398 . S
C154 C157 1.372 . S
C154 H164 0.931 . S
C155 C152 1.382 . S
C155 C157 1.390 . S
C155 H165 0.931 . S
C156 C152 1.390 . S
C156 C153 1.392 . S
C156 H166 0.930 . S
C157 C154 1.372 . S
C157 C155 1.390 . S
C157 H167 0.929 . S
C158 O138 1.255 . S
C158 O139 1.257 . S
C159 Eu95 2.787 . S
C159 O134 1.252 . S
C159 O137 1.268 . S
C159 C152 1.506 . S
H160 C143 0.931 . S
H161 C144 0.931 . S
H162 C145 0.929 . S
H163 C146 0.930 . S
H164 C154 0.931 . S
H165 C155 0.931 . S
H166 C156 0.930 . S
H167 C157 0.929 . S
Eu168 N197 2.600 . S
Eu168 N203 2.562 . S
Eu168 O212 2.462 . S
Eu168 O213 2.373 . S
Eu168 O215 2.432 . S
Eu168 O216 2.291 1_565 S
Eu168 O220 2.335 1_565 S
Eu168 O223 2.372 . S
Eu168 C232 2.787 . S
C169 N170 1.365 . S
C169 C172 1.405 . S
C169 C176 1.448 . S
N170 C169 1.365 . S
N170 C173 1.319 . S
N170 Eu179 2.600 . S
C171 C173 1.397 . S
C171 C174 1.367 . S
C171 H191 0.931 . S
C172 C169 1.405 . S
C172 C174 1.403 . S
C172 C178 1.439 . S
C173 N170 1.319 . S
C173 C171 1.397 . S
C173 H184 0.930 . S
C174 C171 1.367 . S
C174 C172 1.403 . S
C174 H195 0.929 . S
C175 C176 1.430 . S
C175 C177 1.387 . S
C175 C181 1.404 . S
C176 C169 1.448 . S
C176 C175 1.430 . S
C176 N180 1.351 . S
C177 C175 1.387 . S
C177 C178 1.374 . S
C177 H192 0.931 . S
C178 C172 1.439 . S
C178 C177 1.374 . S
C178 H193 0.931 . S
Eu179 N170 2.600 . S
Eu179 N180 2.562 . S
Eu179 O214 2.335 1_545 S
Eu179 O217 2.372 . S
Eu179 O218 2.462 . S
Eu179 O219 2.373 . S
Eu179 O221 2.432 . S
Eu179 O222 2.291 1_545 S
Eu179 C243 2.787 . S
N180 C176 1.351 . S
N180 Eu179 2.562 . S
N180 C182 1.325 . S
C181 C175 1.404 . S
C181 C183 1.366 . S
C181 H189 0.930 . S
C182 N180 1.325 . S
C182 C183 1.416 . S
C182 H188 0.929 . S
C183 C181 1.366 . S
C183 C182 1.416 . S
C183 H185 0.930 . S
H184 C173 0.930 . S
H185 C183 0.930 . S
H186 C201 0.930 . S
H187 C208 0.930 . S
H188 C182 0.929 . S
H189 C181 0.930 . S
H190 C204 0.929 . S
H191 C171 0.931 . S
H192 C177 0.931 . S
H193 C178 0.931 . S
H194 C199 0.931 . S
H195 C174 0.929 . S
H196 C207 0.930 . S
N197 Eu168 2.600 . S
N197 C198 1.365 . S
N197 C201 1.319 . S
C198 N197 1.365 . S
C198 C200 1.405 . S
C198 C206 1.448 . S
C199 H194 0.931 . S
C199 C201 1.397 . S
C199 C202 1.367 . S
C200 C198 1.405 . S
C200 C202 1.403 . S
C200 C233 1.439 . S
C201 H186 0.930 . S
C201 N197 1.319 . S
C201 C199 1.397 . S
C202 C199 1.367 . S
C202 C200 1.403 . S
C202 H209 0.929 . S
N203 Eu168 2.562 . S
N203 C204 1.325 . S
N203 C206 1.351 . S
C204 H190 0.929 . S
C204 N203 1.325 . S
C204 C208 1.416 . S
C205 C206 1.430 . S
C205 C207 1.404 . S
C205 C234 1.387 . S
C206 C198 1.448 . S
C206 N203 1.351 . S
C206 C205 1.430 . S
C207 H196 0.930 . S
C207 C205 1.404 . S
C207 C208 1.366 . S
C208 H187 0.930 . S
C208 C204 1.416 . S
C208 C207 1.366 . S
H209 C202 0.929 . S
H210 C233 0.931 . S
H211 C234 0.931 . S
O212 Eu168 2.462 . S
O212 C232 1.252 . S
O213 Eu168 2.373 . S
O213 C224 1.249 . S
O214 Eu179 2.335 1_565 S
O214 C224 1.264 . S
O215 Eu168 2.432 . S
O215 C232 1.268 . S
O216 Eu168 2.291 1_545 S
O216 C231 1.255 . S
O217 Eu179 2.372 . S
O217 C231 1.257 . S
O218 Eu179 2.462 . S
O218 C243 1.252 . S
O219 Eu179 2.373 . S
O219 C235 1.249 . S
O220 Eu168 2.335 1_545 S
O220 C235 1.264 . S
O221 Eu179 2.432 . S
O221 C243 1.268 . S
O222 Eu179 2.291 1_565 S
O222 C242 1.255 . S
O223 Eu168 2.372 . S
O223 C242 1.257 . S
C224 O213 1.249 . S
C224 O214 1.264 . S
C225 C228 1.382 . S
C225 C230 1.390 1_565 S
C225 C232 1.506 . S
C226 C227 1.398 1_545 S
C226 C230 1.392 . S
C227 C226 1.398 1_565 S
C227 C229 1.372 . S
C227 H244 0.931 . S
C228 C225 1.382 . S
C228 C229 1.390 . S
C228 H245 0.931 . S
C229 C227 1.372 . S
C229 C228 1.390 . S
C229 H246 0.929 . S
C230 C225 1.390 1_545 S
C230 C226 1.392 . S
C230 H247 0.930 . S
C231 O216 1.255 . S
C231 O217 1.257 . S
C232 Eu168 2.787 . S
C232 O212 1.252 . S
C232 O215 1.268 . S
C232 C225 1.506 . S
C233 C200 1.439 . S
C233 H210 0.931 . S
C233 C234 1.374 . S
C234 C205 1.387 . S
C234 H211 0.931 . S
C234 C233 1.374 . S
C235 O219 1.249 . S
C235 O220 1.264 . S
C236 C239 1.382 . S
C236 C240 1.390 1_545 S
C236 C243 1.506 . S
C237 C238 1.398 1_565 S
C237 C240 1.392 . S
C238 C237 1.398 1_545 S
C238 C241 1.372 . S
C238 H248 0.931 . S
C239 C236 1.382 . S
C239 C241 1.390 . S
C239 H249 0.931 . S
C240 C236 1.390 1_565 S
C240 C237 1.392 . S
C240 H250 0.930 . S
C241 C238 1.372 . S
C241 C239 1.390 . S
C241 H251 0.929 . S
C242 O222 1.255 . S
C242 O223 1.257 . S
C243 Eu179 2.787 . S
C243 O218 1.252 . S
C243 O221 1.268 . S
C243 C236 1.506 . S
H244 C227 0.931 . S
H245 C228 0.931 . S
H246 C229 0.929 . S
H247 C230 0.930 . S
H248 C238 0.931 . S
H249 C239 0.931 . S
H250 C240 0.930 . S
H251 C241 0.929 . S
Eu252 N281 2.600 . S
Eu252 N287 2.562 . S
Eu252 O296 2.462 . S
Eu252 O297 2.373 . S
Eu252 O299 2.432 . S
Eu252 O300 2.291 1_455 S
Eu252 O304 2.335 1_455 S
Eu252 O307 2.372 . S
Eu252 C316 2.787 . S
C253 N254 1.365 . S
C253 C256 1.405 . S
C253 C260 1.448 . S
N254 C253 1.365 . S
N254 C257 1.319 . S
N254 Eu263 2.600 . S
C255 C257 1.397 . S
C255 C258 1.367 . S
C255 H275 0.931 . S
C256 C253 1.405 . S
C256 C258 1.403 . S
C256 C262 1.439 . S
C257 N254 1.319 . S
C257 C255 1.397 . S
C257 H268 0.930 . S
C258 C255 1.367 . S
C258 C256 1.403 . S
C258 H279 0.929 . S
C259 C260 1.430 . S
C259 C261 1.387 . S
C259 C265 1.404 . S
C260 C253 1.448 . S
C260 C259 1.430 . S
C260 N264 1.351 . S
C261 C259 1.387 . S
C261 C262 1.374 . S
C261 H276 0.931 . S
C262 C256 1.439 . S
C262 C261 1.374 . S
C262 H277 0.931 . S
Eu263 N254 2.600 . S
Eu263 N264 2.562 . S
Eu263 O298 2.335 1_655 S
Eu263 O301 2.372 . S
Eu263 O302 2.462 . S
Eu263 O303 2.373 . S
Eu263 O305 2.432 . S
Eu263 O306 2.291 1_655 S
Eu263 C327 2.787 . S
N264 C260 1.351 . S
N264 Eu263 2.562 . S
N264 C266 1.325 . S
C265 C259 1.404 . S
C265 C267 1.366 . S
C265 H273 0.930 . S
C266 N264 1.325 . S
C266 C267 1.416 . S
C266 H272 0.929 . S
C267 C265 1.366 . S
C267 C266 1.416 . S
C267 H269 0.930 . S
H268 C257 0.930 . S
H269 C267 0.930 . S
H270 C285 0.930 . S
H271 C292 0.930 . S
H272 C266 0.929 . S
H273 C265 0.930 . S
H274 C288 0.929 . S
H275 C255 0.931 . S
H276 C261 0.931 . S
H277 C262 0.931 . S
H278 C283 0.931 . S
H279 C258 0.929 . S
H280 C291 0.930 . S
N281 Eu252 2.600 . S
N281 C282 1.365 . S
N281 C285 1.319 . S
C282 N281 1.365 . S
C282 C284 1.405 . S
C282 C290 1.448 . S
C283 H278 0.931 . S
C283 C285 1.397 . S
C283 C286 1.367 . S
C284 C282 1.405 . S
C284 C286 1.403 . S
C284 C317 1.439 . S
C285 H270 0.930 . S
C285 N281 1.319 . S
C285 C283 1.397 . S
C286 C283 1.367 . S
C286 C284 1.403 . S
C286 H293 0.929 . S
N287 Eu252 2.562 . S
N287 C288 1.325 . S
N287 C290 1.351 . S
C288 H274 0.929 . S
C288 N287 1.325 . S
C288 C292 1.416 . S
C289 C290 1.430 . S
C289 C291 1.404 . S
C289 C318 1.387 . S
C290 C282 1.448 . S
C290 N287 1.351 . S
C290 C289 1.430 . S
C291 H280 0.930 . S
C291 C289 1.404 . S
C291 C292 1.366 . S
C292 H271 0.930 . S
C292 C288 1.416 . S
C292 C291 1.366 . S
H293 C286 0.929 . S
H294 C317 0.931 . S
H295 C318 0.931 . S
O296 Eu252 2.462 . S
O296 C316 1.252 . S
O297 Eu252 2.373 . S
O297 C308 1.249 . S
O298 Eu263 2.335 1_455 S
O298 C308 1.264 . S
O299 Eu252 2.432 . S
O299 C316 1.268 . S
O300 Eu252 2.291 1_655 S
O300 C315 1.255 . S
O301 Eu263 2.372 . S
O301 C315 1.257 . S
O302 Eu263 2.462 . S
O302 C327 1.252 . S
O303 Eu263 2.373 . S
O303 C319 1.249 . S
O304 Eu252 2.335 1_655 S
O304 C319 1.264 . S
O305 Eu263 2.432 . S
O305 C327 1.268 . S
O306 Eu263 2.291 1_455 S
O306 C326 1.255 . S
O307 Eu252 2.372 . S
O307 C326 1.257 . S
C308 O297 1.249 . S
C308 O298 1.264 . S
C309 C312 1.382 . S
C309 C314 1.390 1_455 S
C309 C316 1.506 . S
C310 C311 1.398 1_655 S
C310 C314 1.392 . S
C311 C310 1.398 1_455 S
C311 C313 1.372 . S
C311 H328 0.931 . S
C312 C309 1.382 . S
C312 C313 1.390 . S
C312 H329 0.931 . S
C313 C311 1.372 . S
C313 C312 1.390 . S
C313 H330 0.929 . S
C314 C309 1.390 1_655 S
C314 C310 1.392 . S
C314 H331 0.930 . S
C315 O300 1.255 . S
C315 O301 1.257 . S
C316 Eu252 2.787 . S
C316 O296 1.252 . S
C316 O299 1.268 . S
C316 C309 1.506 . S
C317 C284 1.439 . S
C317 H294 0.931 . S
C317 C318 1.374 . S
C318 C289 1.387 . S
C318 H295 0.931 . S
C318 C317 1.374 . S
C319 O303 1.249 . S
C319 O304 1.264 . S
C320 C323 1.382 . S
C320 C324 1.390 1_655 S
C320 C327 1.506 . S
C321 C322 1.398 1_455 S
C321 C324 1.392 . S
C322 C321 1.398 1_655 S
C322 C325 1.372 . S
C322 H332 0.931 . S
C323 C320 1.382 . S
C323 C325 1.390 . S
C323 H333 0.931 . S
C324 C320 1.390 1_455 S
C324 C321 1.392 . S
C324 H334 0.930 . S
C325 C322 1.372 . S
C325 C323 1.390 . S
C325 H335 0.929 . S
C326 O306 1.255 . S
C326 O307 1.257 . S
C327 Eu263 2.787 . S
C327 O302 1.252 . S
C327 O305 1.268 . S
C327 C320 1.506 . S
H328 C311 0.931 . S
H329 C312 0.931 . S
H330 C313 0.929 . S
H331 C314 0.930 . S
H332 C322 0.931 . S
H333 C323 0.931 . S
H334 C324 0.930 . S
H335 C325 0.929 . S
Eu336 N365 2.600 . S
Eu336 N371 2.562 . S
Eu336 O380 2.462 . S
Eu336 O381 2.373 . S
Eu336 O383 2.432 . S
Eu336 O384 2.291 . S
Eu336 O388 2.335 . S
Eu336 O391 2.372 . S
Eu336 C400 2.787 . S
C337 N338 1.365 . S
C337 C340 1.405 . S
C337 C344 1.448 . S
N338 C337 1.365 . S
N338 C341 1.319 . S
N338 Eu347 2.600 . S
C339 C341 1.397 . S
C339 C342 1.367 . S
C339 H359 0.931 . S
C340 C337 1.405 . S
C340 C342 1.403 . S
C340 C346 1.439 . S
C341 N338 1.319 . S
C341 C339 1.397 . S
C341 H352 0.930 . S
C342 C339 1.367 . S
C342 C340 1.403 . S
C342 H363 0.929 . S
C343 C344 1.430 . S
C343 C345 1.387 . S
C343 C349 1.404 . S
C344 C337 1.448 . S
C344 C343 1.430 . S
C344 N348 1.351 . S
C345 C343 1.387 . S
C345 C346 1.374 . S
C345 H360 0.931 . S
C346 C340 1.439 . S
C346 C345 1.374 . S
C346 H361 0.931 . S
Eu347 N338 2.600 . S
Eu347 N348 2.562 . S
Eu347 O382 2.335 . S
Eu347 O385 2.372 . S
Eu347 O386 2.462 . S
Eu347 O387 2.373 . S
Eu347 O389 2.432 . S
Eu347 O390 2.291 . S
Eu347 C411 2.787 . S
N348 C344 1.351 . S
N348 Eu347 2.562 . S
N348 C350 1.325 . S
C349 C343 1.404 . S
C349 C351 1.366 . S
C349 H357 0.930 . S
C350 N348 1.325 . S
C350 C351 1.416 . S
C350 H356 0.929 . S
C351 C349 1.366 . S
C351 C350 1.416 . S
C351 H353 0.930 . S
H352 C341 0.930 . S
H353 C351 0.930 . S
H354 C369 0.930 . S
H355 C376 0.930 . S
H356 C350 0.929 . S
H357 C349 0.930 . S
H358 C372 0.929 . S
H359 C339 0.931 . S
H360 C345 0.931 . S
H361 C346 0.931 . S
H362 C367 0.931 . S
H363 C342 0.929 . S
H364 C375 0.930 . S
N365 Eu336 2.600 . S
N365 C366 1.365 . S
N365 C369 1.319 . S
C366 N365 1.365 . S
C366 C368 1.405 . S
C366 C374 1.448 . S
C367 H362 0.931 . S
C367 C369 1.397 . S
C367 C370 1.367 . S
C368 C366 1.405 . S
C368 C370 1.403 . S
C368 C401 1.439 . S
C369 H354 0.930 . S
C369 N365 1.319 . S
C369 C367 1.397 . S
C370 C367 1.367 . S
C370 C368 1.403 . S
C370 H377 0.929 . S
N371 Eu336 2.562 . S
N371 C372 1.325 . S
N371 C374 1.351 . S
C372 H358 0.929 . S
C372 N371 1.325 . S
C372 C376 1.416 . S
C373 C374 1.430 . S
C373 C375 1.404 . S
C373 C402 1.387 . S
C374 C366 1.448 . S
C374 N371 1.351 . S
C374 C373 1.430 . S
C375 H364 0.930 . S
C375 C373 1.404 . S
C375 C376 1.366 . S
C376 H355 0.930 . S
C376 C372 1.416 . S
C376 C375 1.366 . S
H377 C370 0.929 . S
H378 C401 0.931 . S
H379 C402 0.931 . S
O380 Eu336 2.462 . S
O380 C400 1.252 . S
O381 Eu336 2.373 . S
O381 C392 1.249 . S
O382 Eu347 2.335 . S
O382 C392 1.264 . S
O383 Eu336 2.432 . S
O383 C400 1.268 . S
O384 Eu336 2.291 . S
O384 C399 1.255 . S
O385 Eu347 2.372 . S
O385 C399 1.257 . S
O386 Eu347 2.462 . S
O386 C411 1.252 . S
O387 Eu347 2.373 . S
O387 C403 1.249 . S
O388 Eu336 2.335 . S
O388 C403 1.264 . S
O389 Eu347 2.432 . S
O389 C411 1.268 . S
O390 Eu347 2.291 . S
O390 C410 1.255 . S
O391 Eu336 2.372 . S
O391 C410 1.257 . S
C392 O381 1.249 . S
C392 O382 1.264 . S
C393 C396 1.382 . S
C393 C398 1.390 . S
C393 C400 1.506 . S
C394 C395 1.398 . S
C394 C398 1.392 . S
C395 C394 1.398 . S
C395 C397 1.372 . S
C395 H412 0.931 . S
C396 C393 1.382 . S
C396 C397 1.390 . S
C396 H413 0.931 . S
C397 C395 1.372 . S
C397 C396 1.390 . S
C397 H414 0.929 . S
C398 C393 1.390 . S
C398 C394 1.392 . S
C398 H415 0.930 . S
C399 O384 1.255 . S
C399 O385 1.257 . S
C400 Eu336 2.787 . S
C400 O380 1.252 . S
C400 O383 1.268 . S
C400 C393 1.506 . S
C401 C368 1.439 . S
C401 H378 0.931 . S
C401 C402 1.374 . S
C402 C373 1.387 . S
C402 H379 0.931 . S
C402 C401 1.374 . S
C403 O387 1.249 . S
C403 O388 1.264 . S
C404 C407 1.382 . S
C404 C408 1.390 . S
C404 C411 1.506 . S
C405 C406 1.398 . S
C405 C408 1.392 . S
C406 C405 1.398 . S
C406 C409 1.372 . S
C406 H416 0.931 . S
C407 C404 1.382 . S
C407 C409 1.390 . S
C407 H417 0.931 . S
C408 C404 1.390 . S
C408 C405 1.392 . S
C408 H418 0.930 . S
C409 C406 1.372 . S
C409 C407 1.390 . S
C409 H419 0.929 . S
C410 O390 1.255 . S
C410 O391 1.257 . S
C411 Eu347 2.787 . S
C411 O386 1.252 . S
C411 O389 1.268 . S
C411 C404 1.506 . S
H412 C395 0.931 . S
H413 C396 0.931 . S
H414 C397 0.929 . S
H415 C398 0.930 . S
H416 C406 0.931 . S
H417 C407 0.931 . S
H418 C408 0.930 . S
H419 C409 0.929 . S
Eu420 N449 2.600 . S
Eu420 N455 2.562 . S
Eu420 O464 2.462 . S
Eu420 O465 2.373 . S
Eu420 O467 2.432 . S
Eu420 O468 2.291 1_565 S
Eu420 O472 2.335 1_565 S
Eu420 O475 2.372 . S
Eu420 C484 2.787 . S
C421 N422 1.365 . S
C421 C424 1.405 . S
C421 C428 1.448 . S
N422 C421 1.365 . S
N422 C425 1.319 . S
N422 Eu431 2.600 . S
C423 C425 1.397 . S
C423 C426 1.367 . S
C423 H443 0.931 . S
C424 C421 1.405 . S
C424 C426 1.403 . S
C424 C430 1.439 . S
C425 N422 1.319 . S
C425 C423 1.397 . S
C425 H436 0.930 . S
C426 C423 1.367 . S
C426 C424 1.403 . S
C426 H447 0.929 . S
C427 C428 1.430 . S
C427 C429 1.387 . S
C427 C433 1.404 . S
C428 C421 1.448 . S
C428 C427 1.430 . S
C428 N432 1.351 . S
C429 C427 1.387 . S
C429 C430 1.374 . S
C429 H444 0.931 . S
C430 C424 1.439 . S
C430 C429 1.374 . S
C430 H445 0.931 . S
Eu431 N422 2.600 . S
Eu431 N432 2.562 . S
Eu431 O466 2.335 1_545 S
Eu431 O469 2.372 . S
Eu431 O470 2.462 . S
Eu431 O471 2.373 . S
Eu431 O473 2.432 . S
Eu431 O474 2.291 1_545 S
Eu431 C495 2.787 . S
N432 C428 1.351 . S
N432 Eu431 2.562 . S
N432 C434 1.325 . S
C433 C427 1.404 . S
C433 C435 1.366 . S
C433 H441 0.930 . S
C434 N432 1.325 . S
C434 C435 1.416 . S
C434 H440 0.929 . S
C435 C433 1.366 . S
C435 C434 1.416 . S
C435 H437 0.930 . S
H436 C425 0.930 . S
H437 C435 0.930 . S
H438 C453 0.930 . S
H439 C460 0.930 . S
H440 C434 0.929 . S
H441 C433 0.930 . S
H442 C456 0.929 . S
H443 C423 0.931 . S
H444 C429 0.931 . S
H445 C430 0.931 . S
H446 C451 0.931 . S
H447 C426 0.929 . S
H448 C459 0.930 . S
N449 Eu420 2.600 . S
N449 C450 1.365 . S
N449 C453 1.319 . S
C450 N449 1.365 . S
C450 C452 1.405 . S
C450 C458 1.448 . S
C451 H446 0.931 . S
C451 C453 1.397 . S
C451 C454 1.367 . S
C452 C450 1.405 . S
C452 C454 1.403 . S
C452 C485 1.439 . S
C453 H438 0.930 . S
C453 N449 1.319 . S
C453 C451 1.397 . S
C454 C451 1.367 . S
C454 C452 1.403 . S
C454 H461 0.929 . S
N455 Eu420 2.562 . S
N455 C456 1.325 . S
N455 C458 1.351 . S
C456 H442 0.929 . S
C456 N455 1.325 . S
C456 C460 1.416 . S
C457 C458 1.430 . S
C457 C459 1.404 . S
C457 C486 1.387 . S
C458 C450 1.448 . S
C458 N455 1.351 . S
C458 C457 1.430 . S
C459 H448 0.930 . S
C459 C457 1.404 . S
C459 C460 1.366 . S
C460 H439 0.930 . S
C460 C456 1.416 . S
C460 C459 1.366 . S
H461 C454 0.929 . S
H462 C485 0.931 . S
H463 C486 0.931 . S
O464 Eu420 2.462 . S
O464 C484 1.252 . S
O465 Eu420 2.373 . S
O465 C476 1.249 . S
O466 Eu431 2.335 1_565 S
O466 C476 1.264 . S
O467 Eu420 2.432 . S
O467 C484 1.268 . S
O468 Eu420 2.291 1_545 S
O468 C483 1.255 . S
O469 Eu431 2.372 . S
O469 C483 1.257 . S
O470 Eu431 2.462 . S
O470 C495 1.252 . S
O471 Eu431 2.373 . S
O471 C487 1.249 . S
O472 Eu420 2.335 1_545 S
O472 C487 1.264 . S
O473 Eu431 2.432 . S
O473 C495 1.268 . S
O474 Eu431 2.291 1_565 S
O474 C494 1.255 . S
O475 Eu420 2.372 . S
O475 C494 1.257 . S
C476 O465 1.249 . S
C476 O466 1.264 . S
C477 C480 1.382 . S
C477 C482 1.390 1_565 S
C477 C484 1.506 . S
C478 C479 1.398 1_545 S
C478 C482 1.392 . S
C479 C478 1.398 1_565 S
C479 C481 1.372 . S
C479 H496 0.931 . S
C480 C477 1.382 . S
C480 C481 1.390 . S
C480 H497 0.931 . S
C481 C479 1.372 . S
C481 C480 1.390 . S
C481 H498 0.929 . S
C482 C477 1.390 1_545 S
C482 C478 1.392 . S
C482 H499 0.930 . S
C483 O468 1.255 . S
C483 O469 1.257 . S
C484 Eu420 2.787 . S
C484 O464 1.252 . S
C484 O467 1.268 . S
C484 C477 1.506 . S
C485 C452 1.439 . S
C485 H462 0.931 . S
C485 C486 1.374 . S
C486 C457 1.387 . S
C486 H463 0.931 . S
C486 C485 1.374 . S
C487 O471 1.249 . S
C487 O472 1.264 . S
C488 C491 1.382 . S
C488 C492 1.390 1_545 S
C488 C495 1.506 . S
C489 C490 1.398 1_565 S
C489 C492 1.392 . S
C490 C489 1.398 1_545 S
C490 C493 1.372 . S
C490 H500 0.931 . S
C491 C488 1.382 . S
C491 C493 1.390 . S
C491 H501 0.931 . S
C492 C488 1.390 1_565 S
C492 C489 1.392 . S
C492 H502 0.930 . S
C493 C490 1.372 . S
C493 C491 1.390 . S
C493 H503 0.929 . S
C494 O474 1.255 . S
C494 O475 1.257 . S
C495 Eu431 2.787 . S
C495 O470 1.252 . S
C495 O473 1.268 . S
C495 C488 1.506 . S
H496 C479 0.931 . S
H497 C480 0.931 . S
H498 C481 0.929 . S
H499 C482 0.930 . S
H500 C490 0.931 . S
H501 C491 0.931 . S
H502 C492 0.930 . S
H503 C493 0.929 . S
Eu504 N533 2.600 . S
Eu504 N539 2.562 . S
Eu504 O548 2.462 1_556 S
Eu504 O549 2.373 . S
Eu504 O551 2.432 1_556 S
Eu504 O552 2.291 . S
Eu504 O556 2.335 . S
Eu504 O559 2.372 . S
Eu504 C568 2.787 1_556 S
C505 N506 1.365 . S
C505 C508 1.405 . S
C505 C512 1.448 . S
N506 C505 1.365 . S
N506 C509 1.319 . S
N506 Eu515 2.600 . S
C507 C509 1.397 . S
C507 C510 1.367 . S
C507 H527 0.931 . S
C508 C505 1.405 . S
C508 C510 1.403 . S
C508 C514 1.439 . S
C509 N506 1.319 . S
C509 C507 1.397 . S
C509 H520 0.930 . S
C510 C507 1.367 . S
C510 C508 1.403 . S
C510 H531 0.929 . S
C511 C512 1.430 . S
C511 C513 1.387 . S
C511 C517 1.404 . S
C512 C505 1.448 . S
C512 C511 1.430 . S
C512 N516 1.351 . S
C513 C511 1.387 . S
C513 C514 1.374 . S
C513 H528 0.931 . S
C514 C508 1.439 . S
C514 C513 1.374 . S
C514 H529 0.931 . S
Eu515 N506 2.600 . S
Eu515 N516 2.562 . S
Eu515 O550 2.335 . S
Eu515 O553 2.372 . S
Eu515 O554 2.462 . S
Eu515 O555 2.373 . S
Eu515 O557 2.432 . S
Eu515 O558 2.291 . S
Eu515 C579 2.787 . S
N516 C512 1.351 . S
N516 Eu515 2.562 . S
N516 C518 1.325 . S
C517 C511 1.404 . S
C517 C519 1.366 . S
C517 H525 0.930 . S
C518 N516 1.325 . S
C518 C519 1.416 . S
C518 H524 0.929 . S
C519 C517 1.366 . S
C519 C518 1.416 . S
C519 H521 0.930 . S
H520 C509 0.930 . S
H521 C519 0.930 . S
H522 C537 0.930 . S
H523 C544 0.930 . S
H524 C518 0.929 . S
H525 C517 0.930 . S
H526 C540 0.929 . S
H527 C507 0.931 . S
H528 C513 0.931 . S
H529 C514 0.931 . S
H530 C535 0.931 . S
H531 C510 0.929 . S
H532 C543 0.930 . S
N533 Eu504 2.600 . S
N533 C534 1.365 . S
N533 C537 1.319 . S
C534 N533 1.365 . S
C534 C536 1.405 . S
C534 C542 1.448 . S
C535 H530 0.931 . S
C535 C537 1.397 . S
C535 C538 1.367 . S
C536 C534 1.405 . S
C536 C538 1.403 . S
C536 C569 1.439 . S
C537 H522 0.930 . S
C537 N533 1.319 . S
C537 C535 1.397 . S
C538 C535 1.367 . S
C538 C536 1.403 . S
C538 H545 0.929 . S
N539 Eu504 2.562 . S
N539 C540 1.325 . S
N539 C542 1.351 . S
C540 H526 0.929 . S
C540 N539 1.325 . S
C540 C544 1.416 . S
C541 C542 1.430 . S
C541 C543 1.404 . S
C541 C570 1.387 . S
C542 C534 1.448 . S
C542 N539 1.351 . S
C542 C541 1.430 . S
C543 H532 0.930 . S
C543 C541 1.404 . S
C543 C544 1.366 . S
C544 H523 0.930 . S
C544 C540 1.416 . S
C544 C543 1.366 . S
H545 C538 0.929 . S
H546 C569 0.931 . S
H547 C570 0.931 . S
O548 Eu504 2.462 1_554 S
O548 C568 1.252 . S
O549 Eu504 2.373 . S
O549 C560 1.249 . S
O550 Eu515 2.335 . S
O550 C560 1.264 . S
O551 Eu504 2.432 1_554 S
O551 C568 1.268 . S
O552 Eu504 2.291 . S
O552 C567 1.255 . S
O553 Eu515 2.372 . S
O553 C567 1.257 . S
O554 Eu515 2.462 . S
O554 C579 1.252 . S
O555 Eu515 2.373 . S
O555 C571 1.249 . S
O556 Eu504 2.335 . S
O556 C571 1.264 . S
O557 Eu515 2.432 . S
O557 C579 1.268 . S
O558 Eu515 2.291 . S
O558 C578 1.255 . S
O559 Eu504 2.372 . S
O559 C578 1.257 . S
C560 O549 1.249 . S
C560 O550 1.264 . S
C561 C564 1.382 . S
C561 C566 1.390 . S
C561 C568 1.506 . S
C562 C563 1.398 . S
C562 C566 1.392 . S
C563 C562 1.398 . S
C563 C565 1.372 . S
C563 H580 0.931 . S
C564 C561 1.382 . S
C564 C565 1.390 . S
C564 H581 0.931 . S
C565 C563 1.372 . S
C565 C564 1.390 . S
C565 H582 0.929 . S
C566 C561 1.390 . S
C566 C562 1.392 . S
C566 H583 0.930 . S
C567 O552 1.255 . S
C567 O553 1.257 . S
C568 Eu504 2.787 1_554 S
C568 O548 1.252 . S
C568 O551 1.268 . S
C568 C561 1.506 . S
C569 C536 1.439 . S
C569 H546 0.931 . S
C569 C570 1.374 . S
C570 C541 1.387 . S
C570 H547 0.931 . S
C570 C569 1.374 . S
C571 O555 1.249 . S
C571 O556 1.264 . S
C572 C575 1.382 . S
C572 C576 1.390 . S
C572 C579 1.506 . S
C573 C574 1.398 . S
C573 C576 1.392 . S
C574 C573 1.398 . S
C574 C577 1.372 . S
C574 H584 0.931 . S
C575 C572 1.382 . S
C575 C577 1.390 . S
C575 H585 0.931 . S
C576 C572 1.390 . S
C576 C573 1.392 . S
C576 H586 0.930 . S
C577 C574 1.372 . S
C577 C575 1.390 . S
C577 H587 0.929 . S
C578 O558 1.255 . S
C578 O559 1.257 . S
C579 Eu515 2.787 . S
C579 O554 1.252 . S
C579 O557 1.268 . S
C579 C572 1.506 . S
H580 C563 0.931 . S
H581 C564 0.931 . S
H582 C565 0.929 . S
H583 C566 0.930 . S
H584 C574 0.931 . S
H585 C575 0.931 . S
H586 C576 0.930 . S
H587 C577 0.929 . S
Eu588 N617 2.600 . S
Eu588 N623 2.562 . S
Eu588 O632 2.462 1_556 S
Eu588 O633 2.373 . S
Eu588 O635 2.432 1_556 S
Eu588 O636 2.291 . S
Eu588 O640 2.335 . S
Eu588 O643 2.372 . S
Eu588 C652 2.787 1_556 S
C589 N590 1.365 . S
C589 C592 1.405 . S
C589 C596 1.448 . S
N590 C589 1.365 . S
N590 C593 1.319 . S
N590 Eu599 2.600 . S
C591 C593 1.397 . S
C591 C594 1.367 . S
C591 H611 0.931 . S
C592 C589 1.405 . S
C592 C594 1.403 . S
C592 C598 1.439 . S
C593 N590 1.319 . S
C593 C591 1.397 . S
C593 H604 0.930 . S
C594 C591 1.367 . S
C594 C592 1.403 . S
C594 H615 0.929 . S
C595 C596 1.430 . S
C595 C597 1.399 . S
C595 C601 1.404 . S
C596 C589 1.448 . S
C596 C595 1.430 . S
C596 N600 1.351 . S
C597 C595 1.399 . S
C597 C598 1.374 . S
C597 H612 0.920 1_545 S
C598 C592 1.439 . S
C598 C597 1.374 . S
C598 H613 0.931 . S
Eu599 N590 2.600 . S
Eu599 N600 2.562 . S
Eu599 O634 2.335 . S
Eu599 O637 2.372 . S
Eu599 O638 2.462 . S
Eu599 O639 2.373 . S
Eu599 O641 2.432 . S
Eu599 O642 2.291 . S
Eu599 C663 2.787 . S
N600 C596 1.351 . S
N600 Eu599 2.562 . S
N600 C602 1.325 . S
C601 C595 1.404 . S
C601 C603 1.366 . S
C601 H609 0.930 1_545 S
C602 N600 1.325 . S
C602 C603 1.416 . S
C602 H608 0.929 . S
C603 C601 1.366 . S
C603 C602 1.416 . S
C603 H605 0.930 . S
H604 C593 0.930 . S
H605 C603 0.930 . S
H606 C621 0.930 . S
H607 C628 0.930 . S
H608 C602 0.929 . S
H609 C601 0.930 1_565 S
H610 C624 0.929 . S
H611 C591 0.931 . S
H612 C597 0.920 1_565 S
H613 C598 0.931 . S
H614 C619 0.931 . S
H615 C594 0.929 . S
H616 C627 0.930 . S
N617 Eu588 2.600 . S
N617 C618 1.365 . S
N617 C621 1.319 . S
C618 N617 1.365 . S
C618 C620 1.405 . S
C618 C626 1.448 . S
C619 H614 0.931 . S
C619 C621 1.397 . S
C619 C622 1.367 . S
C620 C618 1.405 . S
C620 C622 1.403 . S
C620 C653 1.439 . S
C621 H606 0.930 . S
C621 N617 1.319 . S
C621 C619 1.397 . S
C622 C619 1.367 . S
C622 C620 1.403 . S
C622 H629 0.929 . S
N623 Eu588 2.562 . S
N623 C624 1.325 . S
N623 C626 1.351 . S
C624 H610 0.929 . S
C624 N623 1.325 . S
C624 C628 1.416 . S
C625 C626 1.430 . S
C625 C627 1.404 . S
C625 C654 1.387 . S
C626 C618 1.448 . S
C626 N623 1.351 . S
C626 C625 1.430 . S
C627 H616 0.930 . S
C627 C625 1.404 . S
C627 C628 1.366 . S
C628 H607 0.930 . S
C628 C624 1.416 . S
C628 C627 1.366 . S
H629 C622 0.929 . S
H630 C653 0.931 . S
H631 C654 0.931 . S
O632 Eu588 2.462 1_554 S
O632 C652 1.252 . S
O633 Eu588 2.373 . S
O633 C644 1.249 . S
O634 Eu599 2.335 . S
O634 C644 1.264 . S
O635 Eu588 2.432 1_554 S
O635 C652 1.268 . S
O636 Eu588 2.291 . S
O636 C651 1.255 . S
O637 Eu599 2.372 . S
O637 C651 1.257 . S
O638 Eu599 2.462 . S
O638 C663 1.252 . S
O639 Eu599 2.373 . S
O639 C655 1.249 . S
O640 Eu588 2.335 . S
O640 C655 1.264 . S
O641 Eu599 2.432 . S
O641 C663 1.268 . S
O642 Eu599 2.291 . S
O642 C662 1.255 . S
O643 Eu588 2.372 . S
O643 C662 1.257 . S
C644 O633 1.249 . S
C644 O634 1.264 . S
C645 C648 1.382 . S
C645 C650 1.390 . S
C645 C652 1.506 . S
C646 C647 1.398 . S
C646 C650 1.392 . S
C647 C646 1.398 . S
C647 C649 1.372 . S
C647 H664 0.931 . S
C648 C645 1.382 . S
C648 C649 1.390 . S
C648 H665 0.931 . S
C649 C647 1.372 . S
C649 C648 1.390 . S
C649 H666 0.929 . S
C650 C645 1.390 . S
C650 C646 1.392 . S
C650 H667 0.930 . S
C651 O636 1.255 . S
C651 O637 1.257 . S
C652 Eu588 2.787 1_554 S
C652 O632 1.252 . S
C652 O635 1.268 . S
C652 C645 1.506 . S
C653 C620 1.439 . S
C653 H630 0.931 . S
C653 C654 1.374 . S
C654 C625 1.387 . S
C654 H631 0.931 . S
C654 C653 1.374 . S
C655 O639 1.249 . S
C655 O640 1.264 . S
C656 C659 1.382 . S
C656 C660 1.390 . S
C656 C663 1.506 . S
C657 C658 1.398 . S
C657 C660 1.392 . S
C658 C657 1.398 . S
C658 C661 1.372 . S
C658 H668 0.931 . S
C659 C656 1.382 . S
C659 C661 1.390 . S
C659 H669 0.931 . S
C660 C656 1.390 . S
C660 C657 1.392 . S
C660 H670 0.930 . S
C661 C658 1.372 . S
C661 C659 1.390 . S
C661 H671 0.929 . S
C662 O642 1.255 . S
C662 O643 1.257 . S
C663 Eu599 2.787 . S
C663 O638 1.252 . S
C663 O641 1.268 . S
C663 C656 1.506 . S
H664 C647 0.931 . S
H665 C648 0.931 . S
H666 C649 0.929 . S
H667 C650 0.930 . S
H668 C658 0.931 . S
H669 C659 0.931 . S
H670 C660 0.930 . S
H671 C661 0.929 . S
Eu672 N701 2.600 . S
Eu672 N707 2.562 . S
Eu672 O716 2.462 1_556 S
Eu672 O717 2.373 . S
Eu672 O719 2.432 1_556 S
Eu672 O720 2.291 . S
Eu672 O724 2.335 . S
Eu672 O727 2.372 . S
Eu672 C736 2.787 1_556 S
C673 N674 1.365 . S
C673 C676 1.405 . S
C673 C680 1.448 . S
N674 C673 1.365 . S
N674 C677 1.319 . S
N674 Eu683 2.600 . S
C675 C677 1.397 . S
C675 C678 1.367 . S
C675 H695 0.931 . S
C676 C673 1.405 . S
C676 C678 1.403 . S
C676 C682 1.439 . S
C677 N674 1.319 . S
C677 C675 1.397 . S
C677 H688 0.930 . S
C678 C675 1.367 . S
C678 C676 1.403 . S
C678 H699 0.929 . S
C679 C680 1.430 . S
C679 C681 1.387 1_655 S
C679 C685 1.404 . S
C680 C673 1.448 . S
C680 C679 1.430 . S
C680 N684 1.351 . S
C681 C679 1.387 1_455 S
C681 C682 1.362 1_455 S
C681 H696 0.944 . S
C682 C676 1.439 . S
C682 C681 1.362 1_655 S
C682 H697 0.931 . S
Eu683 N674 2.600 . S
Eu683 N684 2.562 . S
Eu683 O718 2.335 . S
Eu683 O721 2.372 . S
Eu683 O722 2.462 . S
Eu683 O723 2.373 . S
Eu683 O725 2.432 . S
Eu683 O726 2.291 . S
Eu683 C747 2.787 . S
N684 C680 1.351 . S
N684 Eu683 2.562 . S
N684 C686 1.325 . S
C685 C679 1.404 . S
C685 C687 1.366 . S
C685 H693 0.930 1_655 S
C686 N684 1.325 . S
C686 C687 1.416 . S
C686 H692 0.929 . S
C687 C685 1.366 . S
C687 C686 1.416 . S
C687 H689 0.930 . S
H688 C677 0.930 . S
H689 C687 0.930 . S
H690 C705 0.930 . S
H691 C712 0.930 . S
H692 C686 0.929 . S
H693 C685 0.930 1_455 S
H694 C708 0.929 . S
H695 C675 0.931 . S
H696 C681 0.944 . S
H697 C682 0.931 . S
H698 C703 0.931 . S
H699 C678 0.929 . S
H700 C711 0.930 . S
N701 Eu672 2.600 . S
N701 C702 1.365 . S
N701 C705 1.319 . S
C702 N701 1.365 . S
C702 C704 1.405 . S
C702 C710 1.448 . S
C703 H698 0.931 . S
C703 C705 1.397 . S
C703 C706 1.367 . S
C704 C702 1.405 . S
C704 C706 1.403 . S
C704 C737 1.439 . S
C705 H690 0.930 . S
C705 N701 1.319 . S
C705 C703 1.397 . S
C706 C703 1.367 . S
C706 C704 1.403 . S
C706 H713 0.929 . S
N707 Eu672 2.562 . S
N707 C708 1.325 . S
N707 C710 1.351 . S
C708 H694 0.929 . S
C708 N707 1.325 . S
C708 C712 1.416 . S
C709 C710 1.430 . S
C709 C711 1.404 . S
C709 C738 1.387 . S
C710 C702 1.448 . S
C710 N707 1.351 . S
C710 C709 1.430 . S
C711 H700 0.930 . S
C711 C709 1.404 . S
C711 C712 1.366 . S
C712 H691 0.930 . S
C712 C708 1.416 . S
C712 C711 1.366 . S
H713 C706 0.929 . S
H714 C737 0.931 . S
H715 C738 0.931 . S
O716 Eu672 2.462 1_554 S
O716 C736 1.252 . S
O717 Eu672 2.373 . S
O717 C728 1.249 . S
O718 Eu683 2.335 . S
O718 C728 1.264 . S
O719 Eu672 2.432 1_554 S
O719 C736 1.268 . S
O720 Eu672 2.291 . S
O720 C735 1.255 . S
O721 Eu683 2.372 . S
O721 C735 1.257 . S
O722 Eu683 2.462 . S
O722 C747 1.252 . S
O723 Eu683 2.373 . S
O723 C739 1.249 . S
O724 Eu672 2.335 . S
O724 C739 1.264 . S
O725 Eu683 2.432 . S
O725 C747 1.268 . S
O726 Eu683 2.291 . S
O726 C746 1.255 . S
O727 Eu672 2.372 . S
O727 C746 1.257 . S
C728 O717 1.249 . S
C728 O718 1.264 . S
C729 C732 1.382 . S
C729 C734 1.390 . S
C729 C736 1.506 . S
C730 C731 1.398 . S
C730 C734 1.392 . S
C731 C730 1.398 . S
C731 C733 1.372 . S
C731 H748 0.931 . S
C732 C729 1.382 . S
C732 C733 1.390 . S
C732 H749 0.931 . S
C733 C731 1.372 . S
C733 C732 1.390 . S
C733 H750 0.929 . S
C734 C729 1.390 . S
C734 C730 1.392 . S
C734 H751 0.930 . S
C735 O720 1.255 . S
C735 O721 1.257 . S
C736 Eu672 2.787 1_554 S
C736 O716 1.252 . S
C736 O719 1.268 . S
C736 C729 1.506 . S
C737 C704 1.439 . S
C737 H714 0.931 . S
C737 C738 1.374 . S
C738 C709 1.387 . S
C738 H715 0.931 . S
C738 C737 1.374 . S
C739 O723 1.249 . S
C739 O724 1.264 . S
C740 C743 1.382 . S
C740 C744 1.390 . S
C740 C747 1.506 . S
C741 C742 1.398 . S
C741 C744 1.392 . S
C742 C741 1.398 . S
C742 C745 1.372 . S
C742 H752 0.931 . S
C743 C740 1.382 . S
C743 C745 1.390 . S
C743 H753 0.931 . S
C744 C740 1.390 . S
C744 C741 1.392 . S
C744 H754 0.930 . S
C745 C742 1.372 . S
C745 C743 1.390 . S
C745 H755 0.929 . S
C746 O726 1.255 . S
C746 O727 1.257 . S
C747 Eu683 2.787 . S
C747 O722 1.252 . S
C747 O725 1.268 . S
C747 C740 1.506 . S
H748 C731 0.931 . S
H749 C732 0.931 . S
H750 C733 0.929 . S
H751 C734 0.930 . S
H752 C742 0.931 . S
H753 C743 0.931 . S
H754 C744 0.930 . S
H755 C745 0.929 . S
Eu756 N785 2.600 . S
Eu756 N791 2.562 . S
Eu756 O800 2.462 1_556 S
Eu756 O801 2.373 . S
Eu756 O803 2.432 . S
Eu756 O804 2.291 . S
Eu756 O808 2.335 . S
Eu756 O811 2.372 . S
Eu756 C820 2.787 1_556 S
C757 N758 1.365 . S
C757 C760 1.405 . S
C757 C764 1.448 . S
N758 C757 1.365 . S
N758 C761 1.319 . S
N758 Eu767 2.600 . S
C759 C761 1.397 . S
C759 C762 1.367 . S
C759 H779 0.931 . S
C760 C757 1.405 . S
C760 C762 1.403 . S
C760 C766 1.439 . S
C761 N758 1.319 . S
C761 C759 1.397 . S
C761 H772 0.930 . S
C762 C759 1.367 . S
C762 C760 1.403 . S
C762 H783 0.929 . S
C763 C764 1.430 . S
C763 C765 1.387 . S
C763 C769 1.404 . S
C764 C757 1.448 . S
C764 C763 1.430 . S
C764 N768 1.351 . S
C765 C763 1.387 . S
C765 C766 1.374 . S
C765 H780 0.931 . S
C766 C760 1.439 . S
C766 C765 1.374 . S
C766 H781 0.931 . S
Eu767 N758 2.600 . S
Eu767 N768 2.562 . S
Eu767 O802 2.335 . S
Eu767 O805 2.372 . S
Eu767 O806 2.462 . S
Eu767 O807 2.373 . S
Eu767 O809 2.432 . S
Eu767 O810 2.291 . S
Eu767 C831 2.787 . S
N768 C764 1.351 . S
N768 Eu767 2.562 . S
N768 C770 1.325 . S
C769 C763 1.404 . S
C769 C771 1.366 . S
C769 H777 0.930 . S
C770 N768 1.325 . S
C770 C771 1.416 . S
C770 H776 0.929 . S
C771 C769 1.366 . S
C771 C770 1.416 . S
C771 H773 0.930 . S
H772 C761 0.930 . S
H773 C771 0.930 . S
H774 C789 0.930 . S
H775 C796 0.930 . S
H776 C770 0.929 . S
H777 C769 0.930 . S
H778 C792 0.929 . S
H779 C759 0.931 . S
H780 C765 0.931 . S
H781 C766 0.931 . S
H782 C787 0.931 . S
H783 C762 0.929 . S
H784 C795 0.930 . S
N785 Eu756 2.600 . S
N785 C786 1.365 . S
N785 C789 1.319 . S
C786 N785 1.365 . S
C786 C788 1.405 . S
C786 C794 1.448 . S
C787 H782 0.931 . S
C787 C789 1.397 . S
C787 C790 1.367 . S
C788 C786 1.405 . S
C788 C790 1.403 . S
C788 C821 1.439 . S
C789 H774 0.930 . S
C789 N785 1.319 . S
C789 C787 1.397 . S
C790 C787 1.367 . S
C790 C788 1.403 . S
C790 H797 0.929 . S
N791 Eu756 2.562 . S
N791 C792 1.325 . S
N791 C794 1.351 . S
C792 H778 0.929 . S
C792 N791 1.325 . S
C792 C796 1.416 . S
C793 C794 1.430 . S
C793 C795 1.404 . S
C793 C822 1.387 . S
C794 C786 1.448 . S
C794 N791 1.351 . S
C794 C793 1.430 . S
C795 H784 0.930 . S
C795 C793 1.404 . S
C795 C796 1.366 . S
C796 H775 0.930 . S
C796 C792 1.416 . S
C796 C795 1.366 . S
H797 C790 0.929 . S
H798 C821 0.931 . S
H799 C822 0.931 . S
O800 Eu756 2.462 1_554 S
O800 C820 1.252 . S
O801 Eu756 2.373 . S
O801 C812 1.249 . S
O802 Eu767 2.335 . S
O802 C812 1.264 . S
O803 Eu756 2.432 . S
O803 C820 1.268 1_556 S
O804 Eu756 2.291 . S
O804 C819 1.255 . S
O805 Eu767 2.372 . S
O805 C819 1.257 . S
O806 Eu767 2.462 . S
O806 C831 1.252 . S
O807 Eu767 2.373 . S
O807 C823 1.249 . S
O808 Eu756 2.335 . S
O808 C823 1.264 . S
O809 Eu767 2.432 . S
O809 C831 1.268 . S
O810 Eu767 2.291 . S
O810 C830 1.255 . S
O811 Eu756 2.372 . S
O811 C830 1.257 . S
C812 O801 1.249 . S
C812 O802 1.264 . S
C813 C816 1.382 . S
C813 C818 1.390 . S
C813 C820 1.506 . S
C814 C815 1.398 . S
C814 C818 1.392 . S
C815 C814 1.398 . S
C815 C817 1.372 . S
C815 H832 0.931 . S
C816 C813 1.382 . S
C816 C817 1.390 . S
C816 H833 0.931 . S
C817 C815 1.372 . S
C817 C816 1.390 . S
C817 H834 0.929 . S
C818 C813 1.390 . S
C818 C814 1.392 . S
C818 H835 0.930 . S
C819 O804 1.255 . S
C819 O805 1.257 . S
C820 Eu756 2.787 1_554 S
C820 O800 1.252 . S
C820 O803 1.268 1_554 S
C820 C813 1.506 . S
C821 C788 1.439 . S
C821 H798 0.931 . S
C821 C822 1.374 . S
C822 C793 1.387 . S
C822 H799 0.931 . S
C822 C821 1.374 . S
C823 O807 1.249 . S
C823 O808 1.264 . S
C824 C827 1.382 . S
C824 C828 1.390 . S
C824 C831 1.506 . S
C825 C826 1.398 . S
C825 C828 1.392 . S
C826 C825 1.398 . S
C826 C829 1.372 . S
C826 H836 0.931 . S
C827 C824 1.382 . S
C827 C829 1.390 . S
C827 H837 0.931 . S
C828 C824 1.390 . S
C828 C825 1.392 . S
C828 H838 0.930 . S
C829 C826 1.372 . S
C829 C827 1.390 . S
C829 H839 0.929 . S
C830 O810 1.255 . S
C830 O811 1.257 . S
C831 Eu767 2.787 . S
C831 O806 1.252 . S
C831 O809 1.268 . S
C831 C824 1.506 . S
H832 C815 0.931 . S
H833 C816 0.931 . S
H834 C817 0.929 . S
H835 C818 0.930 . S
H836 C826 0.931 . S
H837 C827 0.931 . S
H838 C828 0.930 . S
H839 C829 0.929 . S
Eu840 N869 2.600 . S
Eu840 N875 2.562 . S
Eu840 O884 2.462 1_556 S
Eu840 O885 2.373 . S
Eu840 O887 2.432 . S
Eu840 O888 2.291 . S
Eu840 O892 2.335 . S
Eu840 O895 2.372 . S
Eu840 C904 2.787 1_556 S
C841 N842 1.365 . S
C841 C844 1.405 . S
C841 C848 1.448 . S
N842 C841 1.365 . S
N842 C845 1.319 . S
N842 Eu851 2.600 . S
C843 C845 1.397 . S
C843 C846 1.367 . S
C843 H863 0.931 . S
C844 C841 1.405 . S
C844 C846 1.403 . S
C844 C850 1.439 . S
C845 N842 1.319 . S
C845 C843 1.397 . S
C845 H856 0.930 . S
C846 C843 1.367 . S
C846 C844 1.403 . S
C846 H867 0.929 . S
C847 C848 1.430 . S
C847 C849 1.387 . S
C847 C853 1.404 . S
C848 C841 1.448 . S
C848 C847 1.430 . S
C848 N852 1.351 . S
C849 C847 1.387 . S
C849 C850 1.374 . S
C849 H864 0.931 . S
C850 C844 1.439 . S
C850 C849 1.374 . S
C850 H865 0.931 . S
Eu851 N842 2.600 . S
Eu851 N852 2.562 . S
Eu851 O886 2.335 . S
Eu851 O889 2.372 . S
Eu851 O890 2.462 . S
Eu851 O891 2.373 . S
Eu851 O893 2.432 . S
Eu851 O894 2.291 . S
Eu851 C915 2.787 . S
N852 C848 1.351 . S
N852 Eu851 2.562 . S
N852 C854 1.325 . S
C853 C847 1.404 . S
C853 C855 1.366 . S
C853 H861 0.930 . S
C854 N852 1.325 . S
C854 C855 1.416 . S
C854 H860 0.929 . S
C855 C853 1.366 . S
C855 C854 1.416 . S
C855 H857 0.930 . S
H856 C845 0.930 . S
H857 C855 0.930 . S
H858 C873 0.930 . S
H859 C880 0.930 . S
H860 C854 0.929 . S
H861 C853 0.930 . S
H862 C876 0.929 . S
H863 C843 0.931 . S
H864 C849 0.931 . S
H865 C850 0.931 . S
H866 C871 0.931 . S
H867 C846 0.929 . S
H868 C879 0.930 . S
N869 Eu840 2.600 . S
N869 C870 1.365 . S
N869 C873 1.319 . S
C870 N869 1.365 . S
C870 C872 1.405 . S
C870 C878 1.448 . S
C871 H866 0.931 . S
C871 C873 1.397 . S
C871 C874 1.367 . S
C872 C870 1.405 . S
C872 C874 1.403 . S
C872 C905 1.439 . S
C873 H858 0.930 . S
C873 N869 1.319 . S
C873 C871 1.397 . S
C874 C871 1.367 . S
C874 C872 1.403 . S
C874 H881 0.929 . S
N875 Eu840 2.562 . S
N875 C876 1.325 . S
N875 C878 1.351 . S
C876 H862 0.929 . S
C876 N875 1.325 . S
C876 C880 1.416 . S
C877 C878 1.430 . S
C877 C879 1.404 . S
C877 C906 1.387 . S
C878 C870 1.448 . S
C878 N875 1.351 . S
C878 C877 1.430 . S
C879 H868 0.930 . S
C879 C877 1.404 . S
C879 C880 1.366 . S
C880 H859 0.930 . S
C880 C876 1.416 . S
C880 C879 1.366 . S
H881 C874 0.929 . S
H882 C905 0.931 . S
H883 C906 0.931 . S
O884 Eu840 2.462 1_554 S
O884 C904 1.252 . S
O885 Eu840 2.373 . S
O885 C896 1.249 . S
O886 Eu851 2.335 . S
O886 C896 1.264 . S
O887 Eu840 2.432 . S
O887 C904 1.268 1_556 S
O888 Eu840 2.291 . S
O888 C903 1.255 . S
O889 Eu851 2.372 . S
O889 C903 1.257 . S
O890 Eu851 2.462 . S
O890 C915 1.252 . S
O891 Eu851 2.373 . S
O891 C907 1.249 . S
O892 Eu840 2.335 . S
O892 C907 1.264 . S
O893 Eu851 2.432 . S
O893 C915 1.268 . S
O894 Eu851 2.291 . S
O894 C914 1.255 . S
O895 Eu840 2.372 . S
O895 C914 1.257 . S
C896 O885 1.249 . S
C896 O886 1.264 . S
C897 C900 1.382 . S
C897 C902 1.390 . S
C897 C904 1.506 . S
C898 C899 1.398 . S
C898 C902 1.392 . S
C899 C898 1.398 . S
C899 C901 1.372 . S
C899 H916 0.931 . S
C900 C897 1.382 . S
C900 C901 1.390 . S
C900 H917 0.931 . S
C901 C899 1.372 . S
C901 C900 1.390 . S
C901 H918 0.929 . S
C902 C897 1.390 . S
C902 C898 1.392 . S
C902 H919 0.930 . S
C903 O888 1.255 . S
C903 O889 1.257 . S
C904 Eu840 2.787 1_554 S
C904 O884 1.252 . S
C904 O887 1.268 1_554 S
C904 C897 1.506 . S
C905 C872 1.439 . S
C905 H882 0.931 . S
C905 C906 1.374 . S
C906 C877 1.387 . S
C906 H883 0.931 . S
C906 C905 1.374 . S
C907 O891 1.249 . S
C907 O892 1.264 . S
C908 C911 1.382 . S
C908 C912 1.390 . S
C908 C915 1.506 . S
C909 C910 1.398 . S
C909 C912 1.392 . S
C910 C909 1.398 . S
C910 C913 1.372 . S
C910 H920 0.931 . S
C911 C908 1.382 . S
C911 C913 1.390 . S
C911 H921 0.931 . S
C912 C908 1.390 . S
C912 C909 1.392 . S
C912 H922 0.930 . S
C913 C910 1.372 . S
C913 C911 1.390 . S
C913 H923 0.929 . S
C914 O894 1.255 . S
C914 O895 1.257 . S
C915 Eu851 2.787 . S
C915 O890 1.252 . S
C915 O893 1.268 . S
C915 C908 1.506 . S
H916 C899 0.931 . S
H917 C900 0.931 . S
H918 C901 0.929 . S
H919 C902 0.930 . S
H920 C910 0.931 . S
H921 C911 0.931 . S
H922 C912 0.930 . S
H923 C913 0.929 . S
Eu924 N953 2.600 . S
Eu924 N959 2.562 . S
Eu924 O968 2.462 1_556 S
Eu924 O969 2.373 . S
Eu924 O971 2.432 . S
Eu924 O972 2.291 . S
Eu924 O976 2.335 . S
Eu924 O979 2.372 . S
Eu924 C988 2.787 1_556 S
C925 N926 1.365 . S
C925 C928 1.405 . S
C925 C932 1.448 . S
N926 C925 1.365 . S
N926 C929 1.319 . S
N926 Eu935 2.600 . S
C927 C929 1.397 . S
C927 C930 1.367 . S
C927 H947 0.931 . S
C928 C925 1.405 . S
C928 C930 1.403 . S
C928 C934 1.439 . S
C929 N926 1.319 . S
C929 C927 1.397 . S
C929 H940 0.930 . S
C930 C927 1.367 . S
C930 C928 1.403 . S
C930 H951 0.929 . S
C931 C932 1.430 . S
C931 C933 1.387 . S
C931 C937 1.404 . S
C932 C925 1.448 . S
C932 C931 1.430 . S
C932 N936 1.351 . S
C933 C931 1.387 . S
C933 C934 1.374 . S
C933 H948 0.931 . S
C934 C928 1.439 . S
C934 C933 1.374 . S
C934 H949 0.931 . S
Eu935 N926 2.600 . S
Eu935 N936 2.562 . S
Eu935 O970 2.335 . S
Eu935 O973 2.372 . S
Eu935 O974 2.462 . S
Eu935 O975 2.373 . S
Eu935 O977 2.432 . S
Eu935 O978 2.291 . S
Eu935 C999 2.787 . S
N936 C932 1.351 . S
N936 Eu935 2.562 . S
N936 C938 1.325 . S
C937 C931 1.404 . S
C937 C939 1.366 . S
C937 H945 0.930 . S
C938 N936 1.325 . S
C938 C939 1.416 . S
C938 H944 0.929 . S
C939 C937 1.366 . S
C939 C938 1.416 . S
C939 H941 0.930 . S
H940 C929 0.930 . S
H941 C939 0.930 . S
H942 C957 0.930 . S
H943 C964 0.930 . S
H944 C938 0.929 . S
H945 C937 0.930 . S
H946 C960 0.929 . S
H947 C927 0.931 . S
H948 C933 0.931 . S
H949 C934 0.931 . S
H950 C955 0.931 . S
H951 C930 0.929 . S
H952 C963 0.930 . S
N953 Eu924 2.600 . S
N953 C954 1.365 . S
N953 C957 1.319 . S
C954 N953 1.365 . S
C954 C956 1.405 . S
C954 C962 1.448 . S
C955 H950 0.931 . S
C955 C957 1.397 . S
C955 C958 1.367 . S
C956 C954 1.405 . S
C956 C958 1.403 . S
C956 C989 1.439 . S
C957 H942 0.930 . S
C957 N953 1.319 . S
C957 C955 1.397 . S
C958 C955 1.367 . S
C958 C956 1.403 . S
C958 H965 0.929 . S
N959 Eu924 2.562 . S
N959 C960 1.325 . S
N959 C962 1.351 . S
C960 H946 0.929 . S
C960 N959 1.325 . S
C960 C964 1.416 . S
C961 C962 1.430 . S
C961 C963 1.404 . S
C961 C990 1.387 . S
C962 C954 1.448 . S
C962 N959 1.351 . S
C962 C961 1.430 . S
C963 H952 0.930 . S
C963 C961 1.404 . S
C963 C964 1.366 . S
C964 H943 0.930 . S
C964 C960 1.416 . S
C964 C963 1.366 . S
H965 C958 0.929 . S
H966 C989 0.931 . S
H967 C990 0.931 . S
O968 Eu924 2.462 1_554 S
O968 C988 1.252 . S
O969 Eu924 2.373 . S
O969 C980 1.249 . S
O970 Eu935 2.335 . S
O970 C980 1.264 . S
O971 Eu924 2.432 . S
O971 C988 1.268 1_556 S
O972 Eu924 2.291 . S
O972 C987 1.255 . S
O973 Eu935 2.372 . S
O973 C987 1.257 . S
O974 Eu935 2.462 . S
O974 C999 1.252 . S
O975 Eu935 2.373 . S
O975 C991 1.249 . S
O976 Eu924 2.335 . S
O976 C991 1.264 . S
O977 Eu935 2.432 . S
O977 C999 1.268 . S
O978 Eu935 2.291 . S
O978 C998 1.255 . S
O979 Eu924 2.372 . S
O979 C998 1.257 . S
C980 O969 1.249 . S
C980 O970 1.264 . S
C981 C984 1.382 . S
C981 C986 1.390 . S
C981 C988 1.506 . S
C982 C983 1.398 . S
C982 C986 1.392 . S
C983 C982 1.398 . S
C983 C985 1.372 . S
C983 H1000 0.931 . S
C984 C981 1.382 . S
C984 C985 1.390 . S
C984 H1001 0.931 . S
C985 C983 1.372 . S
C985 C984 1.390 . S
C985 H1002 0.929 . S
C986 C981 1.390 . S
C986 C982 1.392 . S
C986 H1003 0.930 . S
C987 O972 1.255 . S
C987 O973 1.257 . S
C988 Eu924 2.787 1_554 S
C988 O968 1.252 . S
C988 O971 1.268 1_554 S
C988 C981 1.506 . S
C989 C956 1.439 . S
C989 H966 0.931 . S
C989 C990 1.374 . S
C990 C961 1.387 . S
C990 H967 0.931 . S
C990 C989 1.374 . S
C991 O975 1.249 . S
C991 O976 1.264 . S
C992 C995 1.382 . S
C992 C996 1.390 . S
C992 C999 1.506 . S
C993 C994 1.398 . S
C993 C996 1.392 . S
C994 C993 1.398 . S
C994 C997 1.372 . S
C994 H1004 0.931 . S
C995 C992 1.382 . S
C995 C997 1.390 . S
C995 H1005 0.931 . S
C996 C992 1.390 . S
C996 C993 1.392 . S
C996 H1006 0.930 . S
C997 C994 1.372 . S
C997 C995 1.390 . S
C997 H1007 0.929 . S
C998 O978 1.255 . S
C998 O979 1.257 . S
C999 Eu935 2.787 . S
C999 O974 1.252 . S
C999 O977 1.268 . S
C999 C992 1.506 . S
H1000 C983 0.931 . S
H1001 C984 0.931 . S
H1002 C985 0.929 . S
H1003 C986 0.930 . S
H1004 C994 0.931 . S
H1005 C995 0.931 . S
H1006 C996 0.930 . S
H1007 C997 0.929 . S
Eu1008 N1037 2.600 . S
Eu1008 N1043 2.562 . S
Eu1008 O1052 2.462 . S
Eu1008 O1053 2.373 . S
Eu1008 O1055 2.432 . S
Eu1008 O1056 2.291 . S
Eu1008 O1060 2.335 . S
Eu1008 O1063 2.372 . S
Eu1008 C1072 2.787 . S
C1009 N1010 1.365 . S
C1009 C1012 1.405 . S
C1009 C1016 1.448 . S
N1010 C1009 1.365 . S
N1010 C1013 1.319 . S
N1010 Eu1019 2.600 . S
C1011 C1013 1.397 . S
C1011 C1014 1.367 . S
C1011 H1031 0.931 . S
C1012 C1009 1.405 . S
C1012 C1014 1.403 . S
C1012 C1018 1.439 . S
C1013 N1010 1.319 . S
C1013 C1011 1.397 . S
C1013 H1024 0.930 . S
C1014 C1011 1.367 . S
C1014 C1012 1.403 . S
C1014 H1035 0.929 . S
C1015 C1016 1.430 . S
C1015 C1017 1.387 . S
C1015 C1021 1.404 . S
C1016 C1009 1.448 . S
C1016 C1015 1.430 . S
C1016 N1020 1.351 . S
C1017 C1015 1.387 . S
C1017 C1018 1.374 . S
C1017 H1032 0.931 . S
C1018 C1012 1.439 . S
C1018 C1017 1.374 . S
C1018 H1033 0.931 . S
Eu1019 N1010 2.600 . S
Eu1019 N1020 2.562 . S
Eu1019 O1054 2.335 . S
Eu1019 O1057 2.372 . S
Eu1019 O1058 2.462 1_554 S
Eu1019 O1059 2.373 . S
Eu1019 O1061 2.432 . S
Eu1019 O1062 2.291 . S
Eu1019 C1083 2.787 1_554 S
N1020 C1016 1.351 . S
N1020 Eu1019 2.562 . S
N1020 C1022 1.325 . S
C1021 C1015 1.404 . S
C1021 C1023 1.366 . S
C1021 H1029 0.930 . S
C1022 N1020 1.325 . S
C1022 C1023 1.416 . S
C1022 H1028 0.929 . S
C1023 C1021 1.366 . S
C1023 C1022 1.416 . S
C1023 H1025 0.930 . S
H1024 C1013 0.930 . S
H1025 C1023 0.930 . S
H1026 C1041 0.930 . S
H1027 C1048 0.930 . S
H1028 C1022 0.929 . S
H1029 C1021 0.930 . S
H1030 C1044 0.929 . S
H1031 C1011 0.931 . S
H1032 C1017 0.931 . S
H1033 C1018 0.931 . S
H1034 C1039 0.931 . S
H1035 C1014 0.929 . S
H1036 C1047 0.930 . S
N1037 Eu1008 2.600 . S
N1037 C1038 1.365 . S
N1037 C1041 1.319 . S
C1038 N1037 1.365 . S
C1038 C1040 1.405 . S
C1038 C1046 1.448 . S
C1039 H1034 0.931 . S
C1039 C1041 1.397 . S
C1039 C1042 1.367 . S
C1040 C1038 1.405 . S
C1040 C1042 1.403 . S
C1040 C1073 1.439 . S
C1041 H1026 0.930 . S
C1041 N1037 1.319 . S
C1041 C1039 1.397 . S
C1042 C1039 1.367 . S
C1042 C1040 1.403 . S
C1042 H1049 0.929 . S
N1043 Eu1008 2.562 . S
N1043 C1044 1.325 . S
N1043 C1046 1.351 . S
C1044 H1030 0.929 . S
C1044 N1043 1.325 . S
C1044 C1048 1.416 . S
C1045 C1046 1.430 . S
C1045 C1047 1.404 . S
C1045 C1074 1.387 . S
C1046 C1038 1.448 . S
C1046 N1043 1.351 . S
C1046 C1045 1.430 . S
C1047 H1036 0.930 . S
C1047 C1045 1.404 . S
C1047 C1048 1.366 . S
C1048 H1027 0.930 . S
C1048 C1044 1.416 . S
C1048 C1047 1.366 . S
H1049 C1042 0.929 . S
H1050 C1073 0.931 . S
H1051 C1074 0.931 . S
O1052 Eu1008 2.462 . S
O1052 C1072 1.252 . S
O1053 Eu1008 2.373 . S
O1053 C1064 1.249 . S
O1054 Eu1019 2.335 . S
O1054 C1064 1.264 . S
O1055 Eu1008 2.432 . S
O1055 C1072 1.268 . S
O1056 Eu1008 2.291 . S
O1056 C1071 1.255 . S
O1057 Eu1019 2.372 . S
O1057 C1071 1.257 . S
O1058 Eu1019 2.462 1_556 S
O1058 C1083 1.252 . S
O1059 Eu1019 2.373 . S
O1059 C1075 1.249 . S
O1060 Eu1008 2.335 . S
O1060 C1075 1.264 . S
O1061 Eu1019 2.432 . S
O1061 C1083 1.268 1_554 S
O1062 Eu1019 2.291 . S
O1062 C1082 1.255 . S
O1063 Eu1008 2.372 . S
O1063 C1082 1.257 . S
C1064 O1053 1.249 . S
C1064 O1054 1.264 . S
C1065 C1068 1.382 . S
C1065 C1070 1.390 . S
C1065 C1072 1.506 . S
C1066 C1067 1.398 . S
C1066 C1070 1.392 . S
C1067 C1066 1.398 . S
C1067 C1069 1.372 . S
C1067 H1084 0.931 . S
C1068 C1065 1.382 . S
C1068 C1069 1.390 . S
C1068 H1085 0.931 . S
C1069 C1067 1.372 . S
C1069 C1068 1.390 . S
C1069 H1086 0.929 . S
C1070 C1065 1.390 . S
C1070 C1066 1.392 . S
C1070 H1087 0.930 . S
C1071 O1056 1.255 . S
C1071 O1057 1.257 . S
C1072 Eu1008 2.787 . S
C1072 O1052 1.252 . S
C1072 O1055 1.268 . S
C1072 C1065 1.506 . S
C1073 C1040 1.439 . S
C1073 H1050 0.931 . S
C1073 C1074 1.374 . S
C1074 C1045 1.387 . S
C1074 H1051 0.931 . S
C1074 C1073 1.374 . S
C1075 O1059 1.249 . S
C1075 O1060 1.264 . S
C1076 C1079 1.382 . S
C1076 C1080 1.390 . S
C1076 C1083 1.506 . S
C1077 C1078 1.398 . S
C1077 C1080 1.392 . S
C1078 C1077 1.398 . S
C1078 C1081 1.372 . S
C1078 H1088 0.931 . S
C1079 C1076 1.382 . S
C1079 C1081 1.390 . S
C1079 H1089 0.931 . S
C1080 C1076 1.390 . S
C1080 C1077 1.392 . S
C1080 H1090 0.930 . S
C1081 C1078 1.372 . S
C1081 C1079 1.390 . S
C1081 H1091 0.929 . S
C1082 O1062 1.255 . S
C1082 O1063 1.257 . S
C1083 Eu1019 2.787 1_556 S
C1083 O1058 1.252 . S
C1083 O1061 1.268 1_556 S
C1083 C1076 1.506 . S
H1084 C1067 0.931 . S
H1085 C1068 0.931 . S
H1086 C1069 0.929 . S
H1087 C1070 0.930 . S
H1088 C1078 0.931 . S
H1089 C1079 0.931 . S
H1090 C1080 0.930 . S
H1091 C1081 0.929 . S
Eu1092 N1121 2.600 . S
Eu1092 N1127 2.562 . S
Eu1092 O1136 2.462 . S
Eu1092 O1137 2.373 . S
Eu1092 O1139 2.432 . S
Eu1092 O1140 2.291 . S
Eu1092 O1144 2.335 . S
Eu1092 O1147 2.372 . S
Eu1092 C1156 2.787 . S
C1093 N1094 1.365 . S
C1093 C1096 1.405 . S
C1093 C1100 1.448 . S
N1094 C1093 1.365 . S
N1094 C1097 1.319 . S
N1094 Eu1103 2.600 . S
C1095 C1097 1.397 . S
C1095 C1098 1.367 . S
C1095 H1115 0.931 . S
C1096 C1093 1.405 . S
C1096 C1098 1.403 . S
C1096 C1102 1.439 . S
C1097 N1094 1.319 . S
C1097 C1095 1.397 . S
C1097 H1108 0.930 . S
C1098 C1095 1.367 . S
C1098 C1096 1.403 . S
C1098 H1119 0.929 . S
C1099 C1100 1.430 . S
C1099 C1101 1.387 . S
C1099 C1105 1.404 . S
C1100 C1093 1.448 . S
C1100 C1099 1.430 . S
C1100 N1104 1.351 . S
C1101 C1099 1.387 . S
C1101 C1102 1.374 . S
C1101 H1116 0.931 . S
C1102 C1096 1.439 . S
C1102 C1101 1.374 . S
C1102 H1117 0.931 . S
Eu1103 N1094 2.600 . S
Eu1103 N1104 2.562 . S
Eu1103 O1138 2.335 . S
Eu1103 O1141 2.372 . S
Eu1103 O1142 2.462 1_554 S
Eu1103 O1143 2.373 . S
Eu1103 O1145 2.432 . S
Eu1103 O1146 2.291 . S
Eu1103 C1167 2.787 1_554 S
N1104 C1100 1.351 . S
N1104 Eu1103 2.562 . S
N1104 C1106 1.325 . S
C1105 C1099 1.404 . S
C1105 C1107 1.366 . S
C1105 H1113 0.930 . S
C1106 N1104 1.325 . S
C1106 C1107 1.416 . S
C1106 H1112 0.929 . S
C1107 C1105 1.366 . S
C1107 C1106 1.416 . S
C1107 H1109 0.930 . S
H1108 C1097 0.930 . S
H1109 C1107 0.930 . S
H1110 C1125 0.930 . S
H1111 C1132 0.930 . S
H1112 C1106 0.929 . S
H1113 C1105 0.930 . S
H1114 C1128 0.929 . S
H1115 C1095 0.931 . S
H1116 C1101 0.931 . S
H1117 C1102 0.931 . S
H1118 C1123 0.931 . S
H1119 C1098 0.929 . S
H1120 C1131 0.930 . S
N1121 Eu1092 2.600 . S
N1121 C1122 1.365 . S
N1121 C1125 1.319 . S
C1122 N1121 1.365 . S
C1122 C1124 1.405 . S
C1122 C1130 1.448 . S
C1123 H1118 0.931 . S
C1123 C1125 1.397 . S
C1123 C1126 1.367 . S
C1124 C1122 1.405 . S
C1124 C1126 1.403 . S
C1124 C1157 1.439 . S
C1125 H1110 0.930 . S
C1125 N1121 1.319 . S
C1125 C1123 1.397 . S
C1126 C1123 1.367 . S
C1126 C1124 1.403 . S
C1126 H1133 0.929 . S
N1127 Eu1092 2.562 . S
N1127 C1128 1.325 . S
N1127 C1130 1.351 . S
C1128 H1114 0.929 . S
C1128 N1127 1.325 . S
C1128 C1132 1.416 . S
C1129 C1130 1.430 . S
C1129 C1131 1.404 . S
C1129 C1158 1.387 . S
C1130 C1122 1.448 . S
C1130 N1127 1.351 . S
C1130 C1129 1.430 . S
C1131 H1120 0.930 . S
C1131 C1129 1.404 . S
C1131 C1132 1.366 . S
C1132 H1111 0.930 . S
C1132 C1128 1.416 . S
C1132 C1131 1.366 . S
H1133 C1126 0.929 . S
H1134 C1157 0.931 . S
H1135 C1158 0.931 . S
O1136 Eu1092 2.462 . S
O1136 C1156 1.252 . S
O1137 Eu1092 2.373 . S
O1137 C1148 1.249 . S
O1138 Eu1103 2.335 . S
O1138 C1148 1.264 . S
O1139 Eu1092 2.432 . S
O1139 C1156 1.268 . S
O1140 Eu1092 2.291 . S
O1140 C1155 1.255 . S
O1141 Eu1103 2.372 . S
O1141 C1155 1.257 . S
O1142 Eu1103 2.462 1_556 S
O1142 C1167 1.252 . S
O1143 Eu1103 2.373 . S
O1143 C1159 1.249 . S
O1144 Eu1092 2.335 . S
O1144 C1159 1.264 . S
O1145 Eu1103 2.432 . S
O1145 C1167 1.268 1_554 S
O1146 Eu1103 2.291 . S
O1146 C1166 1.255 . S
O1147 Eu1092 2.372 . S
O1147 C1166 1.257 . S
C1148 O1137 1.249 . S
C1148 O1138 1.264 . S
C1149 C1152 1.382 . S
C1149 C1154 1.390 . S
C1149 C1156 1.506 . S
C1150 C1151 1.398 . S
C1150 C1154 1.392 . S
C1151 C1150 1.398 . S
C1151 C1153 1.372 . S
C1151 H1168 0.931 . S
C1152 C1149 1.382 . S
C1152 C1153 1.390 . S
C1152 H1169 0.931 . S
C1153 C1151 1.372 . S
C1153 C1152 1.390 . S
C1153 H1170 0.929 . S
C1154 C1149 1.390 . S
C1154 C1150 1.392 . S
C1154 H1171 0.930 . S
C1155 O1140 1.255 . S
C1155 O1141 1.257 . S
C1156 Eu1092 2.787 . S
C1156 O1136 1.252 . S
C1156 O1139 1.268 . S
C1156 C1149 1.506 . S
C1157 C1124 1.439 . S
C1157 H1134 0.931 . S
C1157 C1158 1.374 . S
C1158 C1129 1.387 . S
C1158 H1135 0.931 . S
C1158 C1157 1.374 . S
C1159 O1143 1.249 . S
C1159 O1144 1.264 . S
C1160 C1163 1.382 . S
C1160 C1164 1.390 . S
C1160 C1167 1.506 . S
C1161 C1162 1.398 . S
C1161 C1164 1.392 . S
C1162 C1161 1.398 . S
C1162 C1165 1.372 . S
C1162 H1172 0.931 . S
C1163 C1160 1.382 . S
C1163 C1165 1.390 . S
C1163 H1173 0.931 . S
C1164 C1160 1.390 . S
C1164 C1161 1.392 . S
C1164 H1174 0.930 . S
C1165 C1162 1.372 . S
C1165 C1163 1.390 . S
C1165 H1175 0.929 . S
C1166 O1146 1.255 . S
C1166 O1147 1.257 . S
C1167 Eu1103 2.787 1_556 S
C1167 O1142 1.252 . S
C1167 O1145 1.268 1_556 S
C1167 C1160 1.506 . S
H1168 C1151 0.931 . S
H1169 C1152 0.931 . S
H1170 C1153 0.929 . S
H1171 C1154 0.930 . S
H1172 C1162 0.931 . S
H1173 C1163 0.931 . S
H1174 C1164 0.930 . S
H1175 C1165 0.929 . S
Eu1176 N1205 2.600 . S
Eu1176 N1211 2.562 . S
Eu1176 O1220 2.462 . S
Eu1176 O1221 2.373 . S
Eu1176 O1223 2.432 . S
Eu1176 O1224 2.291 . S
Eu1176 O1228 2.335 . S
Eu1176 O1231 2.372 . S
Eu1176 C1240 2.787 . S
C1177 N1178 1.365 . S
C1177 C1180 1.405 . S
C1177 C1184 1.448 . S
N1178 C1177 1.365 . S
N1178 C1181 1.319 . S
N1178 Eu1187 2.600 . S
C1179 C1181 1.397 . S
C1179 C1182 1.367 . S
C1179 H1199 0.931 . S
C1180 C1177 1.405 . S
C1180 C1182 1.403 . S
C1180 C1186 1.439 . S
C1181 N1178 1.319 . S
C1181 C1179 1.397 . S
C1181 H1192 0.930 . S
C1182 C1179 1.367 . S
C1182 C1180 1.403 . S
C1182 H1203 0.929 . S
C1183 C1184 1.430 . S
C1183 C1185 1.387 . S
C1183 C1189 1.404 . S
C1184 C1177 1.448 . S
C1184 C1183 1.430 . S
C1184 N1188 1.351 . S
C1185 C1183 1.387 . S
C1185 C1186 1.374 . S
C1185 H1200 0.931 . S
C1186 C1180 1.439 . S
C1186 C1185 1.374 . S
C1186 H1201 0.931 . S
Eu1187 N1178 2.600 . S
Eu1187 N1188 2.562 . S
Eu1187 O1222 2.335 . S
Eu1187 O1225 2.372 . S
Eu1187 O1226 2.462 1_554 S
Eu1187 O1227 2.373 . S
Eu1187 O1229 2.432 . S
Eu1187 O1230 2.291 . S
Eu1187 C1251 2.787 1_554 S
N1188 C1184 1.351 . S
N1188 Eu1187 2.562 . S
N1188 C1190 1.325 . S
C1189 C1183 1.404 . S
C1189 C1191 1.366 . S
C1189 H1197 0.930 . S
C1190 N1188 1.325 . S
C1190 C1191 1.416 . S
C1190 H1196 0.929 . S
C1191 C1189 1.366 . S
C1191 C1190 1.416 . S
C1191 H1193 0.930 . S
H1192 C1181 0.930 . S
H1193 C1191 0.930 . S
H1194 C1209 0.930 . S
H1195 C1216 0.930 . S
H1196 C1190 0.929 . S
H1197 C1189 0.930 . S
H1198 C1212 0.929 . S
H1199 C1179 0.931 . S
H1200 C1185 0.931 . S
H1201 C1186 0.931 . S
H1202 C1207 0.931 . S
H1203 C1182 0.929 . S
H1204 C1215 0.930 . S
N1205 Eu1176 2.600 . S
N1205 C1206 1.365 . S
N1205 C1209 1.319 . S
C1206 N1205 1.365 . S
C1206 C1208 1.405 . S
C1206 C1214 1.448 . S
C1207 H1202 0.931 . S
C1207 C1209 1.397 . S
C1207 C1210 1.367 . S
C1208 C1206 1.405 . S
C1208 C1210 1.403 . S
C1208 C1241 1.439 . S
C1209 H1194 0.930 . S
C1209 N1205 1.319 . S
C1209 C1207 1.397 . S
C1210 C1207 1.367 . S
C1210 C1208 1.403 . S
C1210 H1217 0.929 . S
N1211 Eu1176 2.562 . S
N1211 C1212 1.325 . S
N1211 C1214 1.351 . S
C1212 H1198 0.929 . S
C1212 N1211 1.325 . S
C1212 C1216 1.416 . S
C1213 C1214 1.430 . S
C1213 C1215 1.404 . S
C1213 C1242 1.387 . S
C1214 C1206 1.448 . S
C1214 N1211 1.351 . S
C1214 C1213 1.430 . S
C1215 H1204 0.930 . S
C1215 C1213 1.404 . S
C1215 C1216 1.366 . S
C1216 H1195 0.930 . S
C1216 C1212 1.416 . S
C1216 C1215 1.366 . S
H1217 C1210 0.929 . S
H1218 C1241 0.931 . S
H1219 C1242 0.931 . S
O1220 Eu1176 2.462 . S
O1220 C1240 1.252 . S
O1221 Eu1176 2.373 . S
O1221 C1232 1.249 . S
O1222 Eu1187 2.335 . S
O1222 C1232 1.264 . S
O1223 Eu1176 2.432 . S
O1223 C1240 1.268 . S
O1224 Eu1176 2.291 . S
O1224 C1239 1.255 . S
O1225 Eu1187 2.372 . S
O1225 C1239 1.257 . S
O1226 Eu1187 2.462 1_556 S
O1226 C1251 1.252 . S
O1227 Eu1187 2.373 . S
O1227 C1243 1.249 . S
O1228 Eu1176 2.335 . S
O1228 C1243 1.264 . S
O1229 Eu1187 2.432 . S
O1229 C1251 1.268 1_554 S
O1230 Eu1187 2.291 . S
O1230 C1250 1.255 . S
O1231 Eu1176 2.372 . S
O1231 C1250 1.257 . S
C1232 O1221 1.249 . S
C1232 O1222 1.264 . S
C1233 C1236 1.382 . S
C1233 C1238 1.390 . S
C1233 C1240 1.506 . S
C1234 C1235 1.398 . S
C1234 C1238 1.392 . S
C1235 C1234 1.398 . S
C1235 C1237 1.372 . S
C1235 H1252 0.931 . S
C1236 C1233 1.382 . S
C1236 C1237 1.390 . S
C1236 H1253 0.931 . S
C1237 C1235 1.372 . S
C1237 C1236 1.390 . S
C1237 H1254 0.929 . S
C1238 C1233 1.390 . S
C1238 C1234 1.392 . S
C1238 H1255 0.930 . S
C1239 O1224 1.255 . S
C1239 O1225 1.257 . S
C1240 Eu1176 2.787 . S
C1240 O1220 1.252 . S
C1240 O1223 1.268 . S
C1240 C1233 1.506 . S
C1241 C1208 1.439 . S
C1241 H1218 0.931 . S
C1241 C1242 1.374 . S
C1242 C1213 1.387 . S
C1242 H1219 0.931 . S
C1242 C1241 1.374 . S
C1243 O1227 1.249 . S
C1243 O1228 1.264 . S
C1244 C1247 1.382 . S
C1244 C1248 1.390 . S
C1244 C1251 1.506 . S
C1245 C1246 1.398 . S
C1245 C1248 1.392 . S
C1246 C1245 1.398 . S
C1246 C1249 1.372 . S
C1246 H1256 0.931 . S
C1247 C1244 1.382 . S
C1247 C1249 1.390 . S
C1247 H1257 0.931 . S
C1248 C1244 1.390 . S
C1248 C1245 1.392 . S
C1248 H1258 0.930 . S
C1249 C1246 1.372 . S
C1249 C1247 1.390 . S
C1249 H1259 0.929 . S
C1250 O1230 1.255 . S
C1250 O1231 1.257 . S
C1251 Eu1187 2.787 1_556 S
C1251 O1226 1.252 . S
C1251 O1229 1.268 1_556 S
C1251 C1244 1.506 . S
H1252 C1235 0.931 . S
H1253 C1236 0.931 . S
H1254 C1237 0.929 . S
H1255 C1238 0.930 . S
H1256 C1246 0.931 . S
H1257 C1247 0.931 . S
H1258 C1248 0.930 . S
H1259 C1249 0.929 . S
Eu1260 N1289 2.600 . S
Eu1260 N1295 2.562 . S
Eu1260 O1304 2.462 . S
Eu1260 O1305 2.373 . S
Eu1260 O1307 2.432 . S
Eu1260 O1308 2.291 . S
Eu1260 O1312 2.335 . S
Eu1260 O1315 2.372 . S
Eu1260 C1324 2.787 . S
C1261 N1262 1.365 . S
C1261 C1264 1.405 . S
C1261 C1268 1.448 . S
N1262 C1261 1.365 . S
N1262 C1265 1.319 . S
N1262 Eu1271 2.600 . S
C1263 C1265 1.397 . S
C1263 C1266 1.367 . S
C1263 H1283 0.931 . S
C1264 C1261 1.405 . S
C1264 C1266 1.403 . S
C1264 C1270 1.439 . S
C1265 N1262 1.319 . S
C1265 C1263 1.397 . S
C1265 H1276 0.930 . S
C1266 C1263 1.367 . S
C1266 C1264 1.403 . S
C1266 H1287 0.929 . S
C1267 C1268 1.430 . S
C1267 C1269 1.387 . S
C1267 C1273 1.404 . S
C1268 C1261 1.448 . S
C1268 C1267 1.430 . S
C1268 N1272 1.351 . S
C1269 C1267 1.387 . S
C1269 C1270 1.374 . S
C1269 H1284 0.931 . S
C1270 C1264 1.439 . S
C1270 C1269 1.374 . S
C1270 H1285 0.931 . S
Eu1271 N1262 2.600 . S
Eu1271 N1272 2.562 . S
Eu1271 O1306 2.335 . S
Eu1271 O1309 2.372 . S
Eu1271 O1310 2.462 1_554 S
Eu1271 O1311 2.373 . S
Eu1271 O1313 2.432 1_554 S
Eu1271 O1314 2.291 . S
Eu1271 C1335 2.787 1_554 S
N1272 C1268 1.351 . S
N1272 Eu1271 2.562 . S
N1272 C1274 1.325 . S
C1273 C1267 1.404 . S
C1273 C1275 1.366 . S
C1273 H1281 0.930 . S
C1274 N1272 1.325 . S
C1274 C1275 1.416 . S
C1274 H1280 0.929 . S
C1275 C1273 1.366 . S
C1275 C1274 1.416 . S
C1275 H1277 0.930 . S
H1276 C1265 0.930 . S
H1277 C1275 0.930 . S
H1278 C1293 0.930 . S
H1279 C1300 0.930 . S
H1280 C1274 0.929 . S
H1281 C1273 0.930 . S
H1282 C1296 0.929 . S
H1283 C1263 0.931 . S
H1284 C1269 0.931 . S
H1285 C1270 0.931 . S
H1286 C1291 0.931 . S
H1287 C1266 0.929 . S
H1288 C1299 0.930 . S
N1289 Eu1260 2.600 . S
N1289 C1290 1.365 . S
N1289 C1293 1.319 . S
C1290 N1289 1.365 . S
C1290 C1292 1.405 . S
C1290 C1298 1.448 . S
C1291 H1286 0.931 . S
C1291 C1293 1.397 . S
C1291 C1294 1.367 . S
C1292 C1290 1.405 . S
C1292 C1294 1.403 . S
C1292 C1325 1.439 . S
C1293 H1278 0.930 . S
C1293 N1289 1.319 . S
C1293 C1291 1.397 . S
C1294 C1291 1.367 . S
C1294 C1292 1.403 . S
C1294 H1301 0.929 . S
N1295 Eu1260 2.562 . S
N1295 C1296 1.325 . S
N1295 C1298 1.351 . S
C1296 H1282 0.929 . S
C1296 N1295 1.325 . S
C1296 C1300 1.416 . S
C1297 C1298 1.430 . S
C1297 C1299 1.404 . S
C1297 C1326 1.387 . S
C1298 C1290 1.448 . S
C1298 N1295 1.351 . S
C1298 C1297 1.430 . S
C1299 H1288 0.930 . S
C1299 C1297 1.404 . S
C1299 C1300 1.366 . S
C1300 H1279 0.930 . S
C1300 C1296 1.416 . S
C1300 C1299 1.366 . S
H1301 C1294 0.929 . S
H1302 C1325 0.931 . S
H1303 C1326 0.931 . S
O1304 Eu1260 2.462 . S
O1304 C1324 1.252 . S
O1305 Eu1260 2.373 . S
O1305 C1316 1.249 . S
O1306 Eu1271 2.335 . S
O1306 C1316 1.264 . S
O1307 Eu1260 2.432 . S
O1307 C1324 1.268 . S
O1308 Eu1260 2.291 . S
O1308 C1323 1.255 . S
O1309 Eu1271 2.372 . S
O1309 C1323 1.257 . S
O1310 Eu1271 2.462 1_556 S
O1310 C1335 1.252 . S
O1311 Eu1271 2.373 . S
O1311 C1327 1.249 . S
O1312 Eu1260 2.335 . S
O1312 C1327 1.264 . S
O1313 Eu1271 2.432 1_556 S
O1313 C1335 1.268 . S
O1314 Eu1271 2.291 . S
O1314 C1334 1.255 . S
O1315 Eu1260 2.372 . S
O1315 C1334 1.257 . S
C1316 O1305 1.249 . S
C1316 O1306 1.264 . S
C1317 C1320 1.382 . S
C1317 C1322 1.390 . S
C1317 C1324 1.506 . S
C1318 C1319 1.398 . S
C1318 C1322 1.392 . S
C1319 C1318 1.398 . S
C1319 C1321 1.372 . S
C1319 H1336 0.931 . S
C1320 C1317 1.382 . S
C1320 C1321 1.390 . S
C1320 H1337 0.931 . S
C1321 C1319 1.372 . S
C1321 C1320 1.390 . S
C1321 H1338 0.929 . S
C1322 C1317 1.390 . S
C1322 C1318 1.392 . S
C1322 H1339 0.930 . S
C1323 O1308 1.255 . S
C1323 O1309 1.257 . S
C1324 Eu1260 2.787 . S
C1324 O1304 1.252 . S
C1324 O1307 1.268 . S
C1324 C1317 1.506 . S
C1325 C1292 1.439 . S
C1325 H1302 0.931 . S
C1325 C1326 1.374 . S
C1326 C1297 1.387 . S
C1326 H1303 0.931 . S
C1326 C1325 1.374 . S
C1327 O1311 1.249 . S
C1327 O1312 1.264 . S
C1328 C1331 1.382 . S
C1328 C1332 1.390 . S
C1328 C1335 1.506 . S
C1329 C1330 1.398 . S
C1329 C1332 1.392 . S
C1330 C1329 1.398 . S
C1330 C1333 1.372 . S
C1330 H1340 0.931 . S
C1331 C1328 1.382 . S
C1331 C1333 1.390 . S
C1331 H1341 0.931 . S
C1332 C1328 1.390 . S
C1332 C1329 1.392 . S
C1332 H1342 0.930 . S
C1333 C1330 1.372 . S
C1333 C1331 1.390 . S
C1333 H1343 0.929 . S
C1334 O1314 1.255 . S
C1334 O1315 1.257 . S
C1335 Eu1271 2.787 1_556 S
C1335 O1310 1.252 . S
C1335 O1313 1.268 . S
C1335 C1328 1.506 . S
H1336 C1319 0.931 . S
H1337 C1320 0.931 . S
H1338 C1321 0.929 . S
H1339 C1322 0.930 . S
H1340 C1330 0.931 . S
H1341 C1331 0.931 . S
H1342 C1332 0.930 . S
H1343 C1333 0.929 . S
Eu1344 N1373 2.600 . S
Eu1344 N1379 2.562 . S
Eu1344 O1388 2.462 . S
Eu1344 O1389 2.373 . S
Eu1344 O1391 2.432 . S
Eu1344 O1392 2.291 . S
Eu1344 O1396 2.335 . S
Eu1344 O1399 2.372 . S
Eu1344 C1408 2.787 . S
C1345 N1346 1.365 . S
C1345 C1348 1.405 . S
C1345 C1352 1.448 . S
N1346 C1345 1.365 . S
N1346 C1349 1.319 . S
N1346 Eu1355 2.600 . S
C1347 C1349 1.397 . S
C1347 C1350 1.367 . S
C1347 H1367 0.931 . S
C1348 C1345 1.405 . S
C1348 C1350 1.403 . S
C1348 C1354 1.439 . S
C1349 N1346 1.319 . S
C1349 C1347 1.397 . S
C1349 H1360 0.930 . S
C1350 C1347 1.367 . S
C1350 C1348 1.403 . S
C1350 H1371 0.929 . S
C1351 C1352 1.430 . S
C1351 C1353 1.387 . S
C1351 C1357 1.404 . S
C1352 C1345 1.448 . S
C1352 C1351 1.430 . S
C1352 N1356 1.351 . S
C1353 C1351 1.387 . S
C1353 C1354 1.374 . S
C1353 H1368 0.931 . S
C1354 C1348 1.439 . S
C1354 C1353 1.374 . S
C1354 H1369 0.931 . S
Eu1355 N1346 2.600 . S
Eu1355 N1356 2.562 . S
Eu1355 O1390 2.335 . S
Eu1355 O1393 2.372 . S
Eu1355 O1394 2.462 1_554 S
Eu1355 O1395 2.373 . S
Eu1355 O1397 2.432 1_554 S
Eu1355 O1398 2.291 . S
Eu1355 C1419 2.787 1_554 S
N1356 C1352 1.351 . S
N1356 Eu1355 2.562 . S
N1356 C1358 1.325 . S
C1357 C1351 1.404 . S
C1357 C1359 1.366 . S
C1357 H1365 0.930 . S
C1358 N1356 1.325 . S
C1358 C1359 1.416 . S
C1358 H1364 0.929 . S
C1359 C1357 1.366 . S
C1359 C1358 1.416 . S
C1359 H1361 0.930 . S
H1360 C1349 0.930 . S
H1361 C1359 0.930 . S
H1362 C1377 0.930 . S
H1363 C1384 0.930 . S
H1364 C1358 0.929 . S
H1365 C1357 0.930 . S
H1366 C1380 0.929 . S
H1367 C1347 0.931 . S
H1368 C1353 0.931 . S
H1369 C1354 0.931 . S
H1370 C1375 0.931 . S
H1371 C1350 0.929 . S
H1372 C1383 0.930 1_545 S
N1373 Eu1344 2.600 . S
N1373 C1374 1.365 . S
N1373 C1377 1.319 . S
C1374 N1373 1.365 . S
C1374 C1376 1.405 . S
C1374 C1382 1.448 . S
C1375 H1370 0.931 . S
C1375 C1377 1.397 . S
C1375 C1378 1.367 . S
C1376 C1374 1.405 . S
C1376 C1378 1.403 . S
C1376 C1409 1.439 . S
C1377 H1362 0.930 . S
C1377 N1373 1.319 . S
C1377 C1375 1.397 . S
C1378 C1375 1.367 . S
C1378 C1376 1.403 . S
C1378 H1385 0.929 . S
N1379 Eu1344 2.562 . S
N1379 C1380 1.325 . S
N1379 C1382 1.351 . S
C1380 H1366 0.929 . S
C1380 N1379 1.325 . S
C1380 C1384 1.416 . S
C1381 C1382 1.430 . S
C1381 C1383 1.404 . S
C1381 C1410 1.369 1_565 S
C1382 C1374 1.448 . S
C1382 N1379 1.351 . S
C1382 C1381 1.430 . S
C1383 H1372 0.930 1_565 S
C1383 C1381 1.404 . S
C1383 C1384 1.366 . S
C1384 H1363 0.930 . S
C1384 C1380 1.416 . S
C1384 C1383 1.366 . S
H1385 C1378 0.929 . S
H1386 C1409 0.931 . S
H1387 C1410 0.948 . S
O1388 Eu1344 2.462 . S
O1388 C1408 1.252 . S
O1389 Eu1344 2.373 . S
O1389 C1400 1.249 . S
O1390 Eu1355 2.335 . S
O1390 C1400 1.264 . S
O1391 Eu1344 2.432 . S
O1391 C1408 1.268 . S
O1392 Eu1344 2.291 . S
O1392 C1407 1.255 . S
O1393 Eu1355 2.372 . S
O1393 C1407 1.257 . S
O1394 Eu1355 2.462 1_556 S
O1394 C1419 1.252 . S
O1395 Eu1355 2.373 . S
O1395 C1411 1.249 . S
O1396 Eu1344 2.335 . S
O1396 C1411 1.264 . S
O1397 Eu1355 2.432 1_556 S
O1397 C1419 1.268 . S
O1398 Eu1355 2.291 . S
O1398 C1418 1.255 . S
O1399 Eu1344 2.372 . S
O1399 C1418 1.257 . S
C1400 O1389 1.249 . S
C1400 O1390 1.264 . S
C1401 C1404 1.382 . S
C1401 C1406 1.390 . S
C1401 C1408 1.506 . S
C1402 C1403 1.398 . S
C1402 C1406 1.392 . S
C1403 C1402 1.398 . S
C1403 C1405 1.372 . S
C1403 H1420 0.931 . S
C1404 C1401 1.382 . S
C1404 C1405 1.390 . S
C1404 H1421 0.931 . S
C1405 C1403 1.372 . S
C1405 C1404 1.390 . S
C1405 H1422 0.929 . S
C1406 C1401 1.390 . S
C1406 C1402 1.392 . S
C1406 H1423 0.930 . S
C1407 O1392 1.255 . S
C1407 O1393 1.257 . S
C1408 Eu1344 2.787 . S
C1408 O1388 1.252 . S
C1408 O1391 1.268 . S
C1408 C1401 1.506 . S
C1409 C1376 1.439 . S
C1409 H1386 0.931 . S
C1409 C1410 1.376 1_565 S
C1410 C1381 1.369 1_545 S
C1410 H1387 0.948 . S
C1410 C1409 1.376 1_545 S
C1411 O1395 1.249 . S
C1411 O1396 1.264 . S
C1412 C1415 1.382 . S
C1412 C1416 1.390 . S
C1412 C1419 1.506 . S
C1413 C1414 1.398 . S
C1413 C1416 1.392 . S
C1414 C1413 1.398 . S
C1414 C1417 1.372 . S
C1414 H1424 0.931 . S
C1415 C1412 1.382 . S
C1415 C1417 1.390 . S
C1415 H1425 0.931 . S
C1416 C1412 1.390 . S
C1416 C1413 1.392 . S
C1416 H1426 0.930 . S
C1417 C1414 1.372 . S
C1417 C1415 1.390 . S
C1417 H1427 0.929 . S
C1418 O1398 1.255 . S
C1418 O1399 1.257 . S
C1419 Eu1355 2.787 1_556 S
C1419 O1394 1.252 . S
C1419 O1397 1.268 . S
C1419 C1412 1.506 . S
H1420 C1403 0.931 . S
H1421 C1404 0.931 . S
H1422 C1405 0.929 . S
H1423 C1406 0.930 . S
H1424 C1414 0.931 . S
H1425 C1415 0.931 . S
H1426 C1416 0.930 . S
H1427 C1417 0.929 . S
Eu1428 N1457 2.600 . S
Eu1428 N1463 2.562 . S
Eu1428 O1472 2.462 . S
Eu1428 O1473 2.373 . S
Eu1428 O1475 2.432 . S
Eu1428 O1476 2.291 . S
Eu1428 O1480 2.335 . S
Eu1428 O1483 2.372 . S
Eu1428 C1492 2.787 . S
C1429 N1430 1.365 . S
C1429 C1432 1.405 . S
C1429 C1436 1.448 . S
N1430 C1429 1.365 . S
N1430 C1433 1.319 . S
N1430 Eu1439 2.600 . S
C1431 C1433 1.397 . S
C1431 C1434 1.367 . S
C1431 H1451 0.931 . S
C1432 C1429 1.405 . S
C1432 C1434 1.403 . S
C1432 C1438 1.439 . S
C1433 N1430 1.319 . S
C1433 C1431 1.397 . S
C1433 H1444 0.930 . S
C1434 C1431 1.367 . S
C1434 C1432 1.403 . S
C1434 H1455 0.929 . S
C1435 C1436 1.430 . S
C1435 C1437 1.387 . S
C1435 C1441 1.404 . S
C1436 C1429 1.448 . S
C1436 C1435 1.430 . S
C1436 N1440 1.351 . S
C1437 C1435 1.387 . S
C1437 C1438 1.374 . S
C1437 H1452 0.931 . S
C1438 C1432 1.439 . S
C1438 C1437 1.374 . S
C1438 H1453 0.931 . S
Eu1439 N1430 2.600 . S
Eu1439 N1440 2.562 . S
Eu1439 O1474 2.335 . S
Eu1439 O1477 2.372 . S
Eu1439 O1478 2.462 1_554 S
Eu1439 O1479 2.373 . S
Eu1439 O1481 2.432 1_554 S
Eu1439 O1482 2.291 . S
Eu1439 C1503 2.787 1_554 S
N1440 C1436 1.351 . S
N1440 Eu1439 2.562 . S
N1440 C1442 1.325 . S
C1441 C1435 1.404 . S
C1441 C1443 1.366 . S
C1441 H1449 0.930 . S
C1442 N1440 1.325 . S
C1442 C1443 1.416 . S
C1442 H1448 0.929 . S
C1443 C1441 1.366 . S
C1443 C1442 1.416 . S
C1443 H1445 0.930 . S
H1444 C1433 0.930 . S
H1445 C1443 0.930 . S
H1446 C1461 0.930 . S
H1447 C1468 0.930 . S
H1448 C1442 0.929 . S
H1449 C1441 0.930 . S
H1450 C1464 0.929 . S
H1451 C1431 0.931 . S
H1452 C1437 0.931 . S
H1453 C1438 0.931 . S
H1454 C1459 0.931 . S
H1455 C1434 0.929 . S
H1456 C1467 0.930 1_655 S
N1457 Eu1428 2.600 . S
N1457 C1458 1.365 . S
N1457 C1461 1.319 . S
C1458 N1457 1.365 . S
C1458 C1460 1.405 . S
C1458 C1466 1.448 . S
C1459 H1454 0.931 . S
C1459 C1461 1.397 . S
C1459 C1462 1.367 . S
C1460 C1458 1.405 . S
C1460 C1462 1.403 . S
C1460 C1493 1.439 . S
C1461 H1446 0.930 . S
C1461 N1457 1.319 . S
C1461 C1459 1.397 . S
C1462 C1459 1.367 . S
C1462 C1460 1.403 . S
C1462 H1469 0.929 . S
N1463 Eu1428 2.562 . S
N1463 C1464 1.325 . S
N1463 C1466 1.351 . S
C1464 H1450 0.929 . S
C1464 N1463 1.325 . S
C1464 C1468 1.416 . S
C1465 C1466 1.430 . S
C1465 C1467 1.404 . S
C1465 C1494 1.387 . S
C1466 C1458 1.448 . S
C1466 N1463 1.351 . S
C1466 C1465 1.430 . S
C1467 H1456 0.930 1_455 S
C1467 C1465 1.404 . S
C1467 C1468 1.366 . S
C1468 H1447 0.930 . S
C1468 C1464 1.416 . S
C1468 C1467 1.366 . S
H1469 C1462 0.929 . S
H1470 C1493 0.931 . S
H1471 C1494 0.923 1_655 S
O1472 Eu1428 2.462 . S
O1472 C1492 1.252 . S
O1473 Eu1428 2.373 . S
O1473 C1484 1.249 . S
O1474 Eu1439 2.335 . S
O1474 C1484 1.264 . S
O1475 Eu1428 2.432 . S
O1475 C1492 1.268 . S
O1476 Eu1428 2.291 . S
O1476 C1491 1.255 . S
O1477 Eu1439 2.372 . S
O1477 C1491 1.257 . S
O1478 Eu1439 2.462 1_556 S
O1478 C1503 1.252 . S
O1479 Eu1439 2.373 . S
O1479 C1495 1.249 . S
O1480 Eu1428 2.335 . S
O1480 C1495 1.264 . S
O1481 Eu1439 2.432 1_556 S
O1481 C1503 1.268 . S
O1482 Eu1439 2.291 . S
O1482 C1502 1.255 . S
O1483 Eu1428 2.372 . S
O1483 C1502 1.257 . S
C1484 O1473 1.249 . S
C1484 O1474 1.264 . S
C1485 C1488 1.382 . S
C1485 C1490 1.390 . S
C1485 C1492 1.506 . S
C1486 C1487 1.398 . S
C1486 C1490 1.392 . S
C1487 C1486 1.398 . S
C1487 C1489 1.372 . S
C1487 H1504 0.931 . S
C1488 C1485 1.382 . S
C1488 C1489 1.390 . S
C1488 H1505 0.931 . S
C1489 C1487 1.372 . S
C1489 C1488 1.390 . S
C1489 H1506 0.929 . S
C1490 C1485 1.390 . S
C1490 C1486 1.392 . S
C1490 H1507 0.930 . S
C1491 O1476 1.255 . S
C1491 O1477 1.257 . S
C1492 Eu1428 2.787 . S
C1492 O1472 1.252 . S
C1492 O1475 1.268 . S
C1492 C1485 1.506 . S
C1493 C1460 1.439 . S
C1493 H1470 0.931 . S
C1493 C1494 1.381 . S
C1494 C1465 1.387 . S
C1494 H1471 0.923 1_455 S
C1494 C1493 1.381 . S
C1495 O1479 1.249 . S
C1495 O1480 1.264 . S
C1496 C1499 1.382 . S
C1496 C1500 1.390 . S
C1496 C1503 1.506 . S
C1497 C1498 1.398 . S
C1497 C1500 1.392 . S
C1498 C1497 1.398 . S
C1498 C1501 1.372 . S
C1498 H1508 0.931 . S
C1499 C1496 1.382 . S
C1499 C1501 1.390 . S
C1499 H1509 0.931 . S
C1500 C1496 1.390 . S
C1500 C1497 1.392 . S
C1500 H1510 0.930 . S
C1501 C1498 1.372 . S
C1501 C1499 1.390 . S
C1501 H1511 0.929 . S
C1502 O1482 1.255 . S
C1502 O1483 1.257 . S
C1503 Eu1439 2.787 1_556 S
C1503 O1478 1.252 . S
C1503 O1481 1.268 . S
C1503 C1496 1.506 . S
H1504 C1487 0.931 . S
H1505 C1488 0.931 . S
H1506 C1489 0.929 . S
H1507 C1490 0.930 . S
H1508 C1498 0.931 . S
H1509 C1499 0.931 . S
H1510 C1500 0.930 . S
H1511 C1501 0.929 . S
H1512 C1518 0.930 . S
H1513 C1521 0.930 . S
H1514 C1522 0.930 . S
H1515 C1523 0.930 . S
H1516 C1526 0.930 . S
H1517 C1527 0.930 . S
C1518 H1512 0.930 . S
C1518 C1519 1.355 . S
C1518 C1520 1.415 . S
C1519 C1518 1.355 . S
C1519 C1521 1.419 . S
C1520 C1518 1.415 . S
C1520 C1525 1.425 . S
C1520 C1527 1.409 . S
C1521 H1513 0.930 . S
C1521 C1519 1.419 . S
C1521 C1522 1.362 . S
C1522 H1514 0.930 . S
C1522 C1521 1.362 . S
C1522 C1525 1.409 . S
C1523 H1515 0.930 . S
C1523 C1524 1.355 . S
C1523 C1525 1.415 . S
C1524 C1523 1.355 . S
C1524 C1526 1.419 . S
C1525 C1520 1.425 . S
C1525 C1522 1.409 . S
C1525 C1523 1.415 . S
C1526 H1516 0.930 . S
C1526 C1524 1.419 . S
C1526 C1527 1.362 . S
C1527 H1517 0.930 . S
C1527 C1520 1.409 . S
C1527 C1526 1.362 . S
H1528 C1534 0.930 . S
H1529 C1537 0.930 . S
H1530 C1538 0.930 . S
H1531 C1539 0.930 . S
H1532 C1542 0.930 . S
H1533 C1543 0.930 . S
C1534 H1528 0.930 . S
C1534 C1535 1.355 . S
C1534 C1536 1.415 . S
C1535 C1534 1.355 . S
C1535 C1537 1.419 . S
C1536 C1534 1.415 . S
C1536 C1541 1.425 . S
C1536 C1543 1.409 . S
C1537 H1529 0.930 . S
C1537 C1535 1.419 . S
C1537 C1538 1.362 . S
C1538 H1530 0.930 . S
C1538 C1537 1.362 . S
C1538 C1541 1.409 . S
C1539 H1531 0.930 . S
C1539 C1540 1.355 . S
C1539 C1541 1.415 . S
C1540 C1539 1.355 . S
C1540 C1542 1.419 . S
C1541 C1536 1.425 . S
C1541 C1538 1.409 . S
C1541 C1539 1.415 . S
C1542 H1532 0.930 . S
C1542 C1540 1.419 . S
C1542 C1543 1.362 . S
C1543 H1533 0.930 . S
C1543 C1536 1.409 . S
C1543 C1542 1.362 . S
H1544 C1550 0.930 . S
H1545 C1553 0.930 . S
H1546 C1554 0.930 . S
H1547 C1555 0.930 . S
H1548 C1558 0.930 . S
H1549 C1559 0.930 . S
C1550 H1544 0.930 . S
C1550 C1551 1.355 . S
C1550 C1552 1.415 . S
C1551 C1550 1.355 . S
C1551 C1553 1.419 . S
C1552 C1550 1.415 . S
C1552 C1557 1.425 . S
C1552 C1559 1.409 . S
C1553 H1545 0.930 . S
C1553 C1551 1.419 . S
C1553 C1554 1.362 . S
C1554 H1546 0.930 . S
C1554 C1553 1.362 . S
C1554 C1557 1.409 . S
C1555 H1547 0.930 . S
C1555 C1556 1.355 . S
C1555 C1557 1.415 . S
C1556 C1555 1.355 . S
C1556 C1558 1.419 . S
C1557 C1552 1.425 . S
C1557 C1554 1.409 . S
C1557 C1555 1.415 . S
C1558 H1548 0.930 . S
C1558 C1556 1.419 . S
C1558 C1559 1.362 . S
C1559 H1549 0.930 . S
C1559 C1552 1.409 . S
C1559 C1558 1.362 . S
H1560 C1566 0.930 . S
H1561 C1569 0.930 . S
H1562 C1570 0.930 . S
H1563 C1571 0.930 . S
H1564 C1574 0.930 . S
H1565 C1575 0.930 . S
C1566 H1560 0.930 . S
C1566 C1567 1.355 . S
C1566 C1568 1.415 . S
C1567 C1566 1.355 . S
C1567 C1569 1.419 . S
C1568 C1566 1.415 . S
C1568 C1573 1.425 . S
C1568 C1575 1.409 . S
C1569 H1561 0.930 . S
C1569 C1567 1.419 . S
C1569 C1570 1.362 . S
C1570 H1562 0.930 . S
C1570 C1569 1.362 . S
C1570 C1573 1.409 . S
C1571 H1563 0.930 . S
C1571 C1572 1.355 . S
C1571 C1573 1.415 . S
C1572 C1571 1.355 . S
C1572 C1574 1.419 . S
C1573 C1568 1.425 . S
C1573 C1570 1.409 . S
C1573 C1571 1.415 . S
C1574 H1564 0.930 . S
C1574 C1572 1.419 . S
C1574 C1575 1.362 . S
C1575 H1565 0.930 . S
C1575 C1568 1.409 . S
C1575 C1574 1.362 . S
H1576 C1582 0.930 . S
H1577 C1585 0.930 . S
H1578 C1586 0.930 . S
H1579 C1587 0.930 . S
H1580 C1590 0.930 . S
H1581 C1591 0.930 . S
C1582 H1576 0.930 . S
C1582 C1583 1.355 . S
C1582 C1584 1.415 . S
C1583 C1582 1.355 . S
C1583 C1585 1.419 . S
C1584 C1582 1.415 . S
C1584 C1589 1.425 . S
C1584 C1591 1.409 . S
C1585 H1577 0.930 . S
C1585 C1583 1.419 . S
C1585 C1586 1.362 . S
C1586 H1578 0.930 . S
C1586 C1585 1.362 . S
C1586 C1589 1.409 . S
C1587 H1579 0.930 . S
C1587 C1588 1.355 . S
C1587 C1589 1.415 . S
C1588 C1587 1.355 . S
C1588 C1590 1.419 . S
C1589 C1584 1.425 . S
C1589 C1586 1.409 . S
C1589 C1587 1.415 . S
C1590 H1580 0.930 . S
C1590 C1588 1.419 . S
C1590 C1591 1.362 . S
C1591 H1581 0.930 . S
C1591 C1584 1.409 . S
C1591 C1590 1.362 . S
H1592 C1598 0.930 . S
H1593 C1601 0.930 . S
H1594 C1602 0.930 . S
H1595 C1603 0.930 . S
H1596 C1606 0.930 . S
H1597 C1607 0.930 . S
C1598 H1592 0.930 . S
C1598 C1599 1.355 . S
C1598 C1600 1.415 . S
C1599 C1598 1.355 . S
C1599 C1601 1.419 . S
C1600 C1598 1.415 . S
C1600 C1605 1.425 . S
C1600 C1607 1.409 . S
C1601 H1593 0.930 . S
C1601 C1599 1.419 . S
C1601 C1602 1.362 . S
C1602 H1594 0.930 . S
C1602 C1601 1.362 . S
C1602 C1605 1.409 . S
C1603 H1595 0.930 . S
C1603 C1604 1.355 . S
C1603 C1605 1.415 . S
C1604 C1603 1.355 . S
C1604 C1606 1.419 . S
C1605 C1600 1.425 . S
C1605 C1602 1.409 . S
C1605 C1603 1.415 . S
C1606 H1596 0.930 . S
C1606 C1604 1.419 . S
C1606 C1607 1.362 . S
C1607 H1597 0.930 . S
C1607 C1600 1.409 . S
C1607 C1606 1.362 . S
H1608 C1614 0.930 . S
H1609 C1617 0.930 . S
H1610 C1618 0.930 . S
H1611 C1619 0.930 . S
H1612 C1622 0.930 . S
H1613 C1623 0.930 . S
C1614 H1608 0.930 . S
C1614 C1615 1.355 . S
C1614 C1616 1.415 . S
C1615 C1614 1.355 . S
C1615 C1617 1.419 . S
C1616 C1614 1.415 . S
C1616 C1621 1.425 . S
C1616 C1623 1.409 . S
C1617 H1609 0.930 . S
C1617 C1615 1.419 . S
C1617 C1618 1.362 . S
C1618 H1610 0.930 . S
C1618 C1617 1.362 . S
C1618 C1621 1.409 . S
C1619 H1611 0.930 . S
C1619 C1620 1.355 . S
C1619 C1621 1.415 . S
C1620 C1619 1.355 . S
C1620 C1622 1.419 . S
C1621 C1616 1.425 . S
C1621 C1618 1.409 . S
C1621 C1619 1.415 . S
C1622 H1612 0.930 . S
C1622 C1620 1.419 . S
C1622 C1623 1.362 . S
C1623 H1613 0.930 . S
C1623 C1616 1.409 . S
C1623 C1622 1.362 . S
H1624 C1630 0.930 . S
H1625 C1633 0.930 . S
H1626 C1634 0.930 . S
H1627 C1635 0.930 . S
H1628 C1638 0.930 . S
H1629 C1639 0.930 . S
C1630 H1624 0.930 . S
C1630 C1631 1.355 . S
C1630 C1632 1.415 . S
C1631 C1630 1.355 . S
C1631 C1633 1.419 . S
C1632 C1630 1.415 . S
C1632 C1637 1.425 . S
C1632 C1639 1.409 . S
C1633 H1625 0.930 . S
C1633 C1631 1.419 . S
C1633 C1634 1.362 . S
C1634 H1626 0.930 . S
C1634 C1633 1.362 . S
C1634 C1637 1.409 . S
C1635 H1627 0.930 . S
C1635 C1636 1.355 . S
C1635 C1637 1.415 . S
C1636 C1635 1.355 . S
C1636 C1638 1.419 . S
C1637 C1632 1.425 . S
C1637 C1634 1.409 . S
C1637 C1635 1.415 . S
C1638 H1628 0.930 . S
C1638 C1636 1.419 . S
C1638 C1639 1.362 . S
C1639 H1629 0.930 . S
C1639 C1632 1.409 . S
C1639 C1638 1.362 . S
H1640 C1646 0.930 . S
H1641 C1649 0.930 . S
H1642 C1650 0.930 . S
H1643 C1651 0.930 . S
H1644 C1654 0.930 . S
H1645 C1655 0.930 . S
C1646 H1640 0.930 . S
C1646 C1647 1.355 . S
C1646 C1648 1.415 . S
C1647 C1646 1.355 . S
C1647 C1649 1.419 . S
C1648 C1646 1.415 . S
C1648 C1653 1.425 . S
C1648 C1655 1.409 . S
C1649 H1641 0.930 . S
C1649 C1647 1.419 . S
C1649 C1650 1.362 . S
C1650 H1642 0.930 . S
C1650 C1649 1.362 . S
C1650 C1653 1.409 . S
C1651 H1643 0.930 . S
C1651 C1652 1.355 . S
C1651 C1653 1.415 . S
C1652 C1651 1.355 . S
C1652 C1654 1.419 . S
C1653 C1648 1.425 . S
C1653 C1650 1.409 . S
C1653 C1651 1.415 . S
C1654 H1644 0.930 . S
C1654 C1652 1.419 . S
C1654 C1655 1.362 . S
C1655 H1645 0.930 . S
C1655 C1648 1.409 . S
C1655 C1654 1.362 . S
H1656 C1662 0.930 . S
H1657 C1665 0.930 . S
H1658 C1666 0.930 . S
H1659 C1667 0.930 . S
H1660 C1670 0.930 . S
H1661 C1671 0.930 . S
C1662 H1656 0.930 . S
C1662 C1663 1.355 . S
C1662 C1664 1.415 . S
C1663 C1662 1.355 . S
C1663 C1665 1.419 . S
C1664 C1662 1.415 . S
C1664 C1669 1.425 . S
C1664 C1671 1.409 . S
C1665 H1657 0.930 . S
C1665 C1663 1.419 . S
C1665 C1666 1.362 . S
C1666 H1658 0.930 . S
C1666 C1665 1.362 . S
C1666 C1669 1.409 . S
C1667 H1659 0.930 . S
C1667 C1668 1.355 . S
C1667 C1669 1.415 . S
C1668 C1667 1.355 . S
C1668 C1670 1.419 . S
C1669 C1664 1.425 . S
C1669 C1666 1.409 . S
C1669 C1667 1.415 . S
C1670 H1660 0.930 . S
C1670 C1668 1.419 . S
C1670 C1671 1.362 . S
C1671 H1661 0.930 . S
C1671 C1664 1.409 . S
C1671 C1670 1.362 . S
H1672 C1678 0.930 . S
H1673 C1681 0.930 . S
H1674 C1682 0.930 . S
H1675 C1683 0.930 . S
H1676 C1686 0.930 . S
H1677 C1687 0.930 . S
C1678 H1672 0.930 . S
C1678 C1679 1.355 . S
C1678 C1680 1.415 . S
C1679 C1678 1.355 . S
C1679 C1681 1.419 . S
C1680 C1678 1.415 . S
C1680 C1685 1.425 . S
C1680 C1687 1.409 . S
C1681 H1673 0.930 . S
C1681 C1679 1.419 . S
C1681 C1682 1.362 . S
C1682 H1674 0.930 . S
C1682 C1681 1.362 . S
C1682 C1685 1.409 . S
C1683 H1675 0.930 . S
C1683 C1684 1.355 . S
C1683 C1685 1.415 . S
C1684 C1683 1.355 . S
C1684 C1686 1.419 . S
C1685 C1680 1.425 . S
C1685 C1682 1.409 . S
C1685 C1683 1.415 . S
C1686 H1676 0.930 . S
C1686 C1684 1.419 . S
C1686 C1687 1.362 . S
C1687 H1677 0.930 . S
C1687 C1680 1.409 . S
C1687 C1686 1.362 . S
H1688 C1694 0.930 . S
H1689 C1697 0.930 . S
H1690 C1698 0.930 . S
H1691 C1699 0.930 . S
H1692 C1702 0.930 . S
H1693 C1703 0.930 . S
C1694 H1688 0.930 . S
C1694 C1695 1.355 . S
C1694 C1696 1.415 . S
C1695 C1694 1.355 . S
C1695 C1697 1.419 . S
C1696 C1694 1.415 . S
C1696 C1701 1.425 . S
C1696 C1703 1.409 . S
C1697 H1689 0.930 . S
C1697 C1695 1.419 . S
C1697 C1698 1.362 . S
C1698 H1690 0.930 . S
C1698 C1697 1.362 . S
C1698 C1701 1.409 . S
C1699 H1691 0.930 . S
C1699 C1700 1.355 . S
C1699 C1701 1.415 . S
C1700 C1699 1.355 . S
C1700 C1702 1.419 . S
C1701 C1696 1.425 . S
C1701 C1698 1.409 . S
C1701 C1699 1.415 . S
C1702 H1692 0.930 . S
C1702 C1700 1.419 . S
C1702 C1703 1.362 . S
C1703 H1693 0.930 . S
C1703 C1696 1.409 . S
C1703 C1702 1.362 . S
H1704 C1710 0.927 1_554 S
H1705 C1713 0.930 . S
H1706 C1714 0.930 . S
H1707 C1715 0.930 . S
H1708 C1718 0.930 . S
H1709 C1719 0.930 . S
C1710 H1704 0.927 1_556 S
C1710 C1711 1.355 . S
C1710 C1712 1.415 1_556 S
C1711 C1710 1.355 . S
C1711 C1713 1.419 . S
C1712 C1710 1.415 1_554 S
C1712 C1717 1.425 1_654 S
C1712 C1719 1.409 . S
C1713 H1705 0.930 . S
C1713 C1711 1.419 . S
C1713 C1714 1.362 1_655 S
C1714 H1706 0.930 . S
C1714 C1713 1.362 1_455 S
C1714 C1717 1.409 . S
C1715 H1707 0.930 . S
C1715 C1716 1.355 . S
C1715 C1717 1.415 1_554 S
C1716 C1715 1.355 . S
C1716 C1718 1.419 . S
C1717 C1712 1.425 1_456 S
C1717 C1714 1.409 . S
C1717 C1715 1.415 1_556 S
C1718 H1708 0.930 . S
C1718 C1716 1.419 . S
C1718 C1719 1.362 1_455 S
C1719 H1709 0.930 . S
C1719 C1712 1.409 . S
C1719 C1718 1.362 1_655 S
H1720 C1726 0.930 . S
H1721 C1729 0.930 . S
H1722 C1730 0.930 . S
H1723 C1731 0.930 . S
H1724 C1734 0.930 . S
H1725 C1735 0.930 1_556 S
C1726 H1720 0.930 . S
C1726 C1727 1.355 . S
C1726 C1728 1.415 . S
C1727 C1726 1.355 . S
C1727 C1729 1.419 . S
C1728 C1726 1.415 . S
C1728 C1733 1.425 1_556 S
C1728 C1735 1.409 1_556 S
C1729 H1721 0.930 . S
C1729 C1727 1.419 . S
C1729 C1730 1.362 1_556 S
C1730 H1722 0.930 . S
C1730 C1729 1.362 1_554 S
C1730 C1733 1.409 . S
C1731 H1723 0.930 . S
C1731 C1732 1.355 . S
C1731 C1733 1.415 . S
C1732 C1731 1.355 . S
C1732 C1734 1.419 . S
C1733 C1728 1.425 1_554 S
C1733 C1730 1.409 . S
C1733 C1731 1.415 . S
C1734 H1724 0.930 . S
C1734 C1732 1.419 . S
C1734 C1735 1.362 . S
C1735 H1725 0.930 1_554 S
C1735 C1728 1.409 1_554 S
C1735 C1734 1.362 . S
H1736 C1742 0.930 . S
H1737 C1745 0.930 . S
H1738 C1746 0.930 . S
H1739 C1747 0.930 . S
H1740 C1750 0.930 . S
H1741 C1751 0.930 1_556 S
C1742 H1736 0.930 . S
C1742 C1743 1.355 . S
C1742 C1744 1.391 1_545 S
C1743 C1742 1.355 . S
C1743 C1745 1.419 . S
C1744 C1742 1.391 1_565 S
C1744 C1749 1.393 1_566 S
C1744 C1751 1.456 1_556 S
C1745 H1737 0.930 . S
C1745 C1743 1.419 . S
C1745 C1746 1.362 1_556 S
C1746 H1738 0.930 . S
C1746 C1745 1.362 1_554 S
C1746 C1749 1.429 . S
C1747 H1739 0.930 . S
C1747 C1748 1.355 . S
C1747 C1749 1.404 1_565 S
C1748 C1747 1.355 . S
C1748 C1750 1.419 . S
C1749 C1744 1.393 1_544 S
C1749 C1746 1.429 . S
C1749 C1747 1.404 1_545 S
C1750 H1740 0.930 . S
C1750 C1748 1.419 . S
C1750 C1751 1.362 . S
C1751 H1741 0.930 1_554 S
C1751 C1744 1.456 1_554 S
C1751 C1750 1.362 . S
H1752 C1758 0.930 . S
H1753 C1761 0.930 . S
H1754 C1762 0.930 . S
H1755 C1763 0.930 . S
H1756 C1766 0.930 . S
H1757 C1767 0.930 . S
C1758 H1752 0.930 . S
C1758 C1759 1.355 . S
C1758 C1760 1.413 1_556 S
C1759 C1758 1.355 . S
C1759 C1761 1.419 . S
C1760 C1758 1.413 1_554 S
C1760 C1765 1.425 1_544 S
C1760 C1767 1.412 . S
C1761 H1753 0.930 . S
C1761 C1759 1.419 . S
C1761 C1762 1.362 1_545 S
C1762 H1754 0.930 . S
C1762 C1761 1.362 1_565 S
C1762 C1765 1.409 . S
C1763 H1755 0.930 . S
C1763 C1764 1.355 . S
C1763 C1765 1.415 1_554 S
C1764 C1763 1.355 . S
C1764 C1766 1.419 . S
C1765 C1760 1.425 1_566 S
C1765 C1762 1.409 . S
C1765 C1763 1.415 1_556 S
C1766 H1756 0.930 . S
C1766 C1764 1.419 . S
C1766 C1767 1.362 1_565 S
C1767 H1757 0.930 . S
C1767 C1760 1.412 . S
C1767 C1766 1.362 1_545 S
H1768 C1774 0.923 1_556 S
H1769 C1777 0.930 . S
H1770 C1778 0.930 . S
H1771 C1779 0.930 . S
H1772 C1782 0.930 . S
H1773 C1783 0.930 . S
C1774 H1768 0.923 1_554 S
C1774 C1775 1.355 . S
C1774 C1776 1.415 1_554 S
C1775 C1774 1.355 . S
C1775 C1777 1.419 . S
C1776 C1774 1.415 1_556 S
C1776 C1781 1.425 1_456 S
C1776 C1783 1.409 . S
C1777 H1769 0.930 . S
C1777 C1775 1.419 . S
C1777 C1778 1.362 1_455 S
C1778 H1770 0.930 . S
C1778 C1777 1.362 1_655 S
C1778 C1781 1.409 . S
C1779 H1771 0.930 . S
C1779 C1780 1.355 . S
C1779 C1781 1.415 1_556 S
C1780 C1779 1.355 . S
C1780 C1782 1.419 . S
C1781 C1776 1.425 1_654 S
C1781 C1778 1.409 . S
C1781 C1779 1.415 1_554 S
C1782 H1772 0.930 . S
C1782 C1780 1.419 . S
C1782 C1783 1.362 1_655 S
C1783 H1773 0.930 . S
C1783 C1776 1.409 . S
C1783 C1782 1.362 1_455 S
H1784 C1790 0.930 . S
H1785 C1793 0.930 . S
H1786 C1794 0.930 . S
H1787 C1795 0.930 . S
H1788 C1798 0.930 . S
H1789 C1799 0.930 . S
C1790 H1784 0.930 . S
C1790 C1791 1.355 . S
C1790 C1792 1.415 . S
C1791 C1790 1.355 . S
C1791 C1793 1.419 . S
C1792 C1790 1.415 . S
C1792 C1797 1.425 1_554 S
C1792 C1799 1.409 . S
C1793 H1785 0.930 . S
C1793 C1791 1.419 . S
C1793 C1794 1.362 1_554 S
C1794 H1786 0.930 . S
C1794 C1793 1.362 1_556 S
C1794 C1797 1.409 . S
C1795 H1787 0.930 . S
C1795 C1796 1.355 . S
C1795 C1797 1.415 . S
C1796 C1795 1.355 . S
C1796 C1798 1.419 . S
C1797 C1792 1.425 1_556 S
C1797 C1794 1.409 . S
C1797 C1795 1.415 . S
C1798 H1788 0.930 . S
C1798 C1796 1.419 . S
C1798 C1799 1.362 1_556 S
C1799 H1789 0.930 . S
C1799 C1792 1.409 . S
C1799 C1798 1.362 1_554 S
H1800 C1806 0.930 . S
H1801 C1809 0.930 . S
H1802 C1810 0.930 . S
H1803 C1811 0.930 . S
H1804 C1814 0.930 . S
H1805 C1815 0.930 . S
C1806 H1800 0.930 . S
C1806 C1807 1.355 . S
C1806 C1808 1.415 . S
C1807 C1806 1.355 . S
C1807 C1809 1.419 . S
C1808 C1806 1.415 . S
C1808 C1813 1.425 . S
C1808 C1815 1.409 . S
C1809 H1801 0.930 . S
C1809 C1807 1.419 . S
C1809 C1810 1.362 . S
C1810 H1802 0.930 . S
C1810 C1809 1.362 . S
C1810 C1813 1.409 . S
C1811 H1803 0.930 . S
C1811 C1812 1.355 . S
C1811 C1813 1.415 . S
C1812 C1811 1.355 . S
C1812 C1814 1.419 . S
C1813 C1808 1.425 . S
C1813 C1810 1.409 . S
C1813 C1811 1.415 . S
C1814 H1804 0.930 . S
C1814 C1812 1.419 . S
C1814 C1815 1.362 . S
C1815 H1805 0.930 . S
C1815 C1808 1.409 . S
C1815 C1814 1.362 . S
H1816 C1822 0.930 . S
H1817 C1825 0.930 . S
H1818 C1826 0.930 . S
H1819 C1827 0.930 . S
H1820 C1830 0.930 . S
H1821 C1831 0.930 . S
C1822 H1816 0.930 . S
C1822 C1823 1.355 . S
C1822 C1824 1.415 . S
C1823 C1822 1.355 . S
C1823 C1825 1.419 . S
C1824 C1822 1.415 . S
C1824 C1829 1.425 . S
C1824 C1831 1.409 . S
C1825 H1817 0.930 . S
C1825 C1823 1.419 . S
C1825 C1826 1.362 . S
C1826 H1818 0.930 . S
C1826 C1825 1.362 . S
C1826 C1829 1.409 . S
C1827 H1819 0.930 . S
C1827 C1828 1.355 . S
C1827 C1829 1.415 . S
C1828 C1827 1.355 . S
C1828 C1830 1.419 . S
C1829 C1824 1.425 . S
C1829 C1826 1.409 . S
C1829 C1827 1.415 . S
C1830 H1820 0.930 . S
C1830 C1828 1.419 . S
C1830 C1831 1.362 . S
C1831 H1821 0.930 . S
C1831 C1824 1.409 . S
C1831 C1830 1.362 . S
H1832 C1838 0.930 . S
H1833 C1841 0.930 . S
H1834 C1842 0.930 . S
H1835 C1843 0.930 . S
H1836 C1846 0.930 . S
H1837 C1847 0.930 . S
C1838 H1832 0.930 . S
C1838 C1839 1.355 . S
C1838 C1840 1.415 . S
C1839 C1838 1.355 . S
C1839 C1841 1.419 . S
C1840 C1838 1.415 . S
C1840 C1845 1.425 . S
C1840 C1847 1.409 . S
C1841 H1833 0.930 . S
C1841 C1839 1.419 . S
C1841 C1842 1.362 . S
C1842 H1834 0.930 . S
C1842 C1841 1.362 . S
C1842 C1845 1.409 . S
C1843 H1835 0.930 . S
C1843 C1844 1.355 . S
C1843 C1845 1.415 . S
C1844 C1843 1.355 . S
C1844 C1846 1.419 . S
C1845 C1840 1.425 . S
C1845 C1842 1.409 . S
C1845 C1843 1.415 . S
C1846 H1836 0.930 . S
C1846 C1844 1.419 . S
C1846 C1847 1.362 . S
C1847 H1837 0.930 . S
C1847 C1840 1.409 . S
C1847 C1846 1.362 . S
H1848 C1854 0.930 . S
H1849 C1857 0.930 . S
H1850 C1858 0.930 . S
H1851 C1859 0.930 . S
H1852 C1862 0.930 . S
H1853 C1863 0.930 . S
C1854 H1848 0.930 . S
C1854 C1855 1.355 . S
C1854 C1856 1.415 . S
C1855 C1854 1.355 . S
C1855 C1857 1.419 . S
C1856 C1854 1.415 . S
C1856 C1861 1.425 . S
C1856 C1863 1.409 . S
C1857 H1849 0.930 . S
C1857 C1855 1.419 . S
C1857 C1858 1.362 . S
C1858 H1850 0.930 . S
C1858 C1857 1.362 . S
C1858 C1861 1.409 . S
C1859 H1851 0.930 . S
C1859 C1860 1.355 . S
C1859 C1861 1.415 . S
C1860 C1859 1.355 . S
C1860 C1862 1.419 . S
C1861 C1856 1.425 . S
C1861 C1858 1.409 . S
C1861 C1859 1.415 . S
C1862 H1852 0.930 . S
C1862 C1860 1.419 . S
C1862 C1863 1.362 . S
C1863 H1853 0.930 . S
C1863 C1856 1.409 . S
C1863 C1862 1.362 . S
H1864 C1870 0.930 . S
H1865 C1873 0.930 . S
H1866 C1874 0.930 . S
H1867 C1875 0.930 . S
H1868 C1878 0.930 . S
H1869 C1879 0.930 . S
C1870 H1864 0.930 . S
C1870 C1871 1.355 . S
C1870 C1872 1.415 . S
C1871 C1870 1.355 . S
C1871 C1873 1.419 . S
C1872 C1870 1.415 . S
C1872 C1877 1.425 . S
C1872 C1879 1.409 . S
C1873 H1865 0.930 . S
C1873 C1871 1.419 . S
C1873 C1874 1.362 . S
C1874 H1866 0.930 . S
C1874 C1873 1.362 . S
C1874 C1877 1.409 . S
C1875 H1867 0.930 . S
C1875 C1876 1.355 . S
C1875 C1877 1.415 . S
C1876 C1875 1.355 . S
C1876 C1878 1.419 . S
C1877 C1872 1.425 . S
C1877 C1874 1.409 . S
C1877 C1875 1.415 . S
C1878 H1868 0.930 . S
C1878 C1876 1.419 . S
C1878 C1879 1.362 . S
C1879 H1869 0.930 . S
C1879 C1872 1.409 . S
C1879 C1878 1.362 . S
H1880 C1886 0.930 . S
H1881 C1889 0.930 . S
H1882 C1890 0.930 . S
H1883 C1891 0.930 . S
H1884 C1894 0.930 . S
H1885 C1895 0.930 . S
C1886 H1880 0.930 . S
C1886 C1887 1.355 . S
C1886 C1888 1.415 . S
C1887 C1886 1.355 . S
C1887 C1889 1.419 . S
C1888 C1886 1.415 . S
C1888 C1893 1.425 . S
C1888 C1895 1.409 . S
C1889 H1881 0.930 . S
C1889 C1887 1.419 . S
C1889 C1890 1.362 . S
C1890 H1882 0.930 . S
C1890 C1889 1.362 . S
C1890 C1893 1.409 . S
C1891 H1883 0.930 . S
C1891 C1892 1.355 . S
C1891 C1893 1.415 . S
C1892 C1891 1.355 . S
C1892 C1894 1.419 . S
C1893 C1888 1.425 . S
C1893 C1890 1.409 . S
C1893 C1891 1.415 . S
C1894 H1884 0.930 . S
C1894 C1892 1.419 . S
C1894 C1895 1.362 . S
C1895 H1885 0.930 . S
C1895 C1888 1.409 . S
C1895 C1894 1.362 . S
H1896 C1902 0.930 . S
H1897 C1905 0.930 . S
H1898 C1906 0.930 . S
H1899 C1907 0.930 . S
H1900 C1910 0.930 . S
H1901 C1911 0.930 . S
C1902 H1896 0.930 . S
C1902 C1903 1.355 . S
C1902 C1904 1.415 . S
C1903 C1902 1.355 . S
C1903 C1905 1.419 . S
C1904 C1902 1.415 . S
C1904 C1909 1.425 . S
C1904 C1911 1.409 . S
C1905 H1897 0.930 . S
C1905 C1903 1.419 . S
C1905 C1906 1.362 . S
C1906 H1898 0.930 . S
C1906 C1905 1.362 . S
C1906 C1909 1.409 . S
C1907 H1899 0.930 . S
C1907 C1908 1.355 . S
C1907 C1909 1.415 . S
C1908 C1907 1.355 . S
C1908 C1910 1.419 . S
C1909 C1904 1.425 . S
C1909 C1906 1.409 . S
C1909 C1907 1.415 . S
C1910 H1900 0.930 . S
C1910 C1908 1.419 . S
C1910 C1911 1.362 . S
C1911 H1901 0.930 . S
C1911 C1904 1.409 . S
C1911 C1910 1.362 . S
H1912 C1918 0.930 . S
H1913 C1921 0.930 . S
H1914 C1922 0.930 . S
H1915 C1923 0.930 . S
H1916 C1926 0.930 . S
H1917 C1927 0.930 . S
C1918 H1912 0.930 . S
C1918 C1919 1.355 . S
C1918 C1920 1.415 . S
C1919 C1918 1.355 . S
C1919 C1921 1.419 . S
C1920 C1918 1.415 . S
C1920 C1925 1.425 . S
C1920 C1927 1.409 . S
C1921 H1913 0.930 . S
C1921 C1919 1.419 . S
C1921 C1922 1.362 . S
C1922 H1914 0.930 . S
C1922 C1921 1.362 . S
C1922 C1925 1.409 . S
C1923 H1915 0.930 . S
C1923 C1924 1.355 . S
C1923 C1925 1.415 . S
C1924 C1923 1.355 . S
C1924 C1926 1.419 . S
C1925 C1920 1.425 . S
C1925 C1922 1.409 . S
C1925 C1923 1.415 . S
C1926 H1916 0.930 . S
C1926 C1924 1.419 . S
C1926 C1927 1.362 . S
C1927 H1917 0.930 . S
C1927 C1920 1.409 . S
C1927 C1926 1.362 . S
H1928 C1934 0.930 . S
H1929 C1937 0.930 . S
H1930 C1938 0.930 . S
H1931 C1939 0.930 . S
H1932 C1942 0.930 . S
H1933 C1943 0.930 . S
C1934 H1928 0.930 . S
C1934 C1935 1.355 . S
C1934 C1936 1.415 . S
C1935 C1934 1.355 . S
C1935 C1937 1.419 . S
C1936 C1934 1.415 . S
C1936 C1941 1.425 . S
C1936 C1943 1.409 . S
C1937 H1929 0.930 . S
C1937 C1935 1.419 . S
C1937 C1938 1.362 . S
C1938 H1930 0.930 . S
C1938 C1937 1.362 . S
C1938 C1941 1.409 . S
C1939 H1931 0.930 . S
C1939 C1940 1.355 . S
C1939 C1941 1.415 . S
C1940 C1939 1.355 . S
C1940 C1942 1.419 . S
C1941 C1936 1.425 . S
C1941 C1938 1.409 . S
C1941 C1939 1.415 . S
C1942 H1932 0.930 . S
C1942 C1940 1.419 . S
C1942 C1943 1.362 . S
C1943 H1933 0.930 . S
C1943 C1936 1.409 . S
C1943 C1942 1.362 . S
H1944 C1950 0.930 . S
H1945 C1953 0.930 . S
H1946 C1954 0.930 . S
H1947 C1955 0.930 . S
H1948 C1958 0.930 . S
H1949 C1959 0.930 . S
C1950 H1944 0.930 . S
C1950 C1951 1.355 . S
C1950 C1952 1.415 . S
C1951 C1950 1.355 . S
C1951 C1953 1.419 . S
C1952 C1950 1.415 . S
C1952 C1957 1.425 . S
C1952 C1959 1.409 . S
C1953 H1945 0.930 . S
C1953 C1951 1.419 . S
C1953 C1954 1.362 . S
C1954 H1946 0.930 . S
C1954 C1953 1.362 . S
C1954 C1957 1.409 . S
C1955 H1947 0.930 . S
C1955 C1956 1.355 . S
C1955 C1957 1.415 . S
C1956 C1955 1.355 . S
C1956 C1958 1.419 . S
C1957 C1952 1.425 . S
C1957 C1954 1.409 . S
C1957 C1955 1.415 . S
C1958 H1948 0.930 . S
C1958 C1956 1.419 . S
C1958 C1959 1.362 . S
C1959 H1949 0.930 . S
C1959 C1952 1.409 . S
C1959 C1958 1.362 . S
H1960 C1966 0.930 . S
H1961 C1969 0.930 . S
H1962 C1970 0.930 . S
H1963 C1971 0.930 . S
H1964 C1974 0.930 . S
H1965 C1975 0.930 . S
C1966 H1960 0.930 . S
C1966 C1967 1.355 . S
C1966 C1968 1.415 . S
C1967 C1966 1.355 . S
C1967 C1969 1.419 . S
C1968 C1966 1.415 . S
C1968 C1973 1.425 . S
C1968 C1975 1.409 . S
C1969 H1961 0.930 . S
C1969 C1967 1.419 . S
C1969 C1970 1.362 . S
C1970 H1962 0.930 . S
C1970 C1969 1.362 . S
C1970 C1973 1.409 . S
C1971 H1963 0.930 . S
C1971 C1972 1.355 . S
C1971 C1973 1.415 . S
C1972 C1971 1.355 . S
C1972 C1974 1.419 . S
C1973 C1968 1.425 . S
C1973 C1970 1.409 . S
C1973 C1971 1.415 . S
C1974 H1964 0.930 . S
C1974 C1972 1.419 . S
C1974 C1975 1.362 . S
C1975 H1965 0.930 . S
C1975 C1968 1.409 . S
C1975 C1974 1.362 . S
H1976 C1982 0.930 . S
H1977 C1985 0.930 . S
H1978 C1986 0.930 . S
H1979 C1987 0.930 . S
H1980 C1990 0.930 . S
H1981 C1991 0.930 . S
C1982 H1976 0.930 . S
C1982 C1983 1.355 . S
C1982 C1984 1.415 . S
C1983 C1982 1.355 . S
C1983 C1985 1.419 . S
C1984 C1982 1.415 . S
C1984 C1989 1.425 . S
C1984 C1991 1.409 . S
C1985 H1977 0.930 . S
C1985 C1983 1.419 . S
C1985 C1986 1.362 . S
C1986 H1978 0.930 . S
C1986 C1985 1.362 . S
C1986 C1989 1.409 . S
C1987 H1979 0.930 . S
C1987 C1988 1.355 . S
C1987 C1989 1.415 . S
C1988 C1987 1.355 . S
C1988 C1990 1.419 . S
C1989 C1984 1.425 . S
C1989 C1986 1.409 . S
C1989 C1987 1.415 . S
C1990 H1980 0.930 . S
C1990 C1988 1.419 . S
C1990 C1991 1.362 . S
C1991 H1981 0.930 . S
C1991 C1984 1.409 . S
C1991 C1990 1.362 . S
H1992 C1998 0.930 . S
H1993 C2001 0.930 . S
H1994 C2002 0.930 . S
H1995 C2003 0.930 . S
H1996 C2006 0.930 . S
H1997 C2007 0.930 . S
C1998 H1992 0.930 . S
C1998 C1999 1.355 . S
C1998 C2000 1.415 . S
C1999 C1998 1.355 . S
C1999 C2001 1.419 . S
C2000 C1998 1.415 . S
C2000 C2005 1.425 . S
C2000 C2007 1.409 . S
C2001 H1993 0.930 . S
C2001 C1999 1.419 . S
C2001 C2002 1.362 . S
C2002 H1994 0.930 . S
C2002 C2001 1.362 . S
C2002 C2005 1.409 . S
C2003 H1995 0.930 . S
C2003 C2004 1.355 . S
C2003 C2005 1.415 . S
C2004 C2003 1.355 . S
C2004 C2006 1.419 . S
C2005 C2000 1.425 . S
C2005 C2002 1.409 . S
C2005 C2003 1.415 . S
C2006 H1996 0.930 . S
C2006 C2004 1.419 . S
C2006 C2007 1.362 . S
C2007 H1997 0.930 . S
C2007 C2000 1.409 . S
C2007 C2006 1.362 . S
H2008 C2014 0.930 . S
H2009 C2017 0.930 . S
H2010 C2018 0.930 . S
H2011 C2019 0.930 . S
H2012 C2022 0.930 . S
H2013 C2023 0.930 . S
C2014 H2008 0.930 . S
C2014 C2015 1.355 . S
C2014 C2016 1.415 . S
C2015 C2014 1.355 . S
C2015 C2017 1.419 . S
C2016 C2014 1.415 . S
C2016 C2021 1.425 . S
C2016 C2023 1.409 . S
C2017 H2009 0.930 . S
C2017 C2015 1.419 . S
C2017 C2018 1.362 . S
C2018 H2010 0.930 . S
C2018 C2017 1.362 . S
C2018 C2021 1.409 . S
C2019 H2011 0.930 . S
C2019 C2020 1.355 . S
C2019 C2021 1.415 . S
C2020 C2019 1.355 . S
C2020 C2022 1.419 . S
C2021 C2016 1.425 . S
C2021 C2018 1.409 . S
C2021 C2019 1.415 . S
C2022 H2012 0.930 . S
C2022 C2020 1.419 . S
C2022 C2023 1.362 . S
C2023 H2013 0.930 . S
C2023 C2016 1.409 . S
C2023 C2022 1.362 . S
H2024 C2030 0.930 . S
H2025 C2033 0.930 . S
H2026 C2034 0.930 . S
H2027 C2035 0.930 . S
H2028 C2038 0.930 . S
H2029 C2039 0.930 . S
C2030 H2024 0.930 . S
C2030 C2031 1.355 . S
C2030 C2032 1.415 . S
C2031 C2030 1.355 . S
C2031 C2033 1.419 . S
C2032 C2030 1.415 . S
C2032 C2037 1.425 . S
C2032 C2039 1.409 . S
C2033 H2025 0.930 . S
C2033 C2031 1.419 . S
C2033 C2034 1.362 . S
C2034 H2026 0.930 . S
C2034 C2033 1.362 . S
C2034 C2037 1.409 . S
C2035 H2027 0.930 . S
C2035 C2036 1.355 . S
C2035 C2037 1.415 . S
C2036 C2035 1.355 . S
C2036 C2038 1.419 . S
C2037 C2032 1.425 . S
C2037 C2034 1.409 . S
C2037 C2035 1.415 . S
C2038 H2028 0.930 . S
C2038 C2036 1.419 . S
C2038 C2039 1.362 . S
C2039 H2029 0.930 . S
C2039 C2032 1.409 . S
C2039 C2038 1.362 . S
H2040 C2046 0.930 . S
H2041 C2049 0.930 . S
H2042 C2050 0.930 . S
H2043 C2051 0.930 . S
H2044 C2054 0.930 . S
H2045 C2055 0.930 . S
C2046 H2040 0.930 . S
C2046 C2047 1.355 . S
C2046 C2048 1.415 . S
C2047 C2046 1.355 . S
C2047 C2049 1.419 . S
C2048 C2046 1.415 . S
C2048 C2053 1.425 . S
C2048 C2055 1.409 . S
C2049 H2041 0.930 . S
C2049 C2047 1.419 . S
C2049 C2050 1.362 . S
C2050 H2042 0.930 . S
C2050 C2049 1.362 . S
C2050 C2053 1.409 . S
C2051 H2043 0.930 . S
C2051 C2052 1.355 . S
C2051 C2053 1.415 . S
C2052 C2051 1.355 . S
C2052 C2054 1.419 . S
C2053 C2048 1.425 . S
C2053 C2050 1.409 . S
C2053 C2051 1.415 . S
C2054 H2044 0.930 . S
C2054 C2052 1.419 . S
C2054 C2055 1.362 . S
C2055 H2045 0.930 . S
C2055 C2048 1.409 . S
C2055 C2054 1.362 . S
H2056 C2062 0.930 . S
H2057 C2065 0.930 . S
H2058 C2066 0.930 . S
H2059 C2067 0.930 . S
H2060 C2070 0.930 . S
H2061 C2071 0.930 . S
C2062 H2056 0.930 . S
C2062 C2063 1.355 . S
C2062 C2064 1.415 . S
C2063 C2062 1.355 . S
C2063 C2065 1.419 . S
C2064 C2062 1.415 . S
C2064 C2069 1.425 . S
C2064 C2071 1.409 . S
C2065 H2057 0.930 . S
C2065 C2063 1.419 . S
C2065 C2066 1.362 . S
C2066 H2058 0.930 . S
C2066 C2065 1.362 . S
C2066 C2069 1.409 . S
C2067 H2059 0.930 . S
C2067 C2068 1.355 . S
C2067 C2069 1.415 . S
C2068 C2067 1.355 . S
C2068 C2070 1.419 . S
C2069 C2064 1.425 . S
C2069 C2066 1.409 . S
C2069 C2067 1.415 . S
C2070 H2060 0.930 . S
C2070 C2068 1.419 . S
C2070 C2071 1.362 . S
C2071 H2061 0.930 . S
C2071 C2064 1.409 . S
C2071 C2070 1.362 . S
H2072 C2078 0.930 . S
H2073 C2081 0.930 . S
H2074 C2082 0.930 . S
H2075 C2083 0.930 . S
H2076 C2086 0.930 . S
H2077 C2087 0.930 . S
C2078 H2072 0.930 . S
C2078 C2079 1.355 . S
C2078 C2080 1.415 . S
C2079 C2078 1.355 . S
C2079 C2081 1.419 . S
C2080 C2078 1.415 . S
C2080 C2085 1.425 . S
C2080 C2087 1.409 . S
C2081 H2073 0.930 . S
C2081 C2079 1.419 . S
C2081 C2082 1.362 . S
C2082 H2074 0.930 . S
C2082 C2081 1.362 . S
C2082 C2085 1.409 . S
C2083 H2075 0.930 . S
C2083 C2084 1.355 . S
C2083 C2085 1.415 . S
C2084 C2083 1.355 . S
C2084 C2086 1.419 . S
C2085 C2080 1.425 . S
C2085 C2082 1.409 . S
C2085 C2083 1.415 . S
C2086 H2076 0.930 . S
C2086 C2084 1.419 . S
C2086 C2087 1.362 . S
C2087 H2077 0.930 . S
C2087 C2080 1.409 . S
C2087 C2086 1.362 . S
H2088 C2094 0.930 . S
H2089 C2097 0.930 . S
H2090 C2098 0.930 1_556 S
H2091 C2099 0.930 . S
H2092 C2102 0.930 . S
H2093 C2103 0.930 1_554 S
C2094 H2088 0.930 . S
C2094 C2095 1.355 1_655 S
C2094 C2096 1.415 . S
C2095 C2094 1.355 1_455 S
C2095 C2097 1.419 . S
C2096 C2094 1.415 . S
C2096 C2101 1.425 1_654 S
C2096 C2103 1.409 1_554 S
C2097 H2089 0.930 . S
C2097 C2095 1.419 . S
C2097 C2098 1.362 . S
C2098 H2090 0.930 1_554 S
C2098 C2097 1.362 . S
C2098 C2101 1.409 1_554 S
C2099 H2091 0.930 . S
C2099 C2100 1.355 1_455 S
C2099 C2101 1.415 . S
C2100 C2099 1.355 1_655 S
C2100 C2102 1.419 . S
C2101 C2096 1.425 1_456 S
C2101 C2098 1.409 1_556 S
C2101 C2099 1.415 . S
C2102 H2092 0.930 . S
C2102 C2100 1.419 . S
C2102 C2103 1.362 . S
C2103 H2093 0.930 1_556 S
C2103 C2096 1.409 1_556 S
C2103 C2102 1.362 . S
H2104 C2110 0.930 . S
H2105 C2113 0.930 . S
H2106 C2114 0.930 . S
H2107 C2115 0.930 . S
H2108 C2118 0.930 . S
H2109 C2119 0.930 1_554 S
C2110 H2104 0.930 . S
C2110 C2111 1.355 . S
C2110 C2112 1.415 . S
C2111 C2110 1.355 . S
C2111 C2113 1.419 . S
C2112 C2110 1.415 . S
C2112 C2117 1.425 1_554 S
C2112 C2119 1.409 1_554 S
C2113 H2105 0.930 . S
C2113 C2111 1.419 . S
C2113 C2114 1.362 . S
C2114 H2106 0.930 . S
C2114 C2113 1.362 . S
C2114 C2117 1.409 1_554 S
C2115 H2107 0.930 . S
C2115 C2116 1.355 . S
C2115 C2117 1.415 . S
C2116 C2115 1.355 . S
C2116 C2118 1.419 . S
C2117 C2112 1.425 1_556 S
C2117 C2114 1.409 1_556 S
C2117 C2115 1.415 . S
C2118 H2108 0.930 . S
C2118 C2116 1.419 . S
C2118 C2119 1.362 . S
C2119 H2109 0.930 1_556 S
C2119 C2112 1.409 1_556 S
C2119 C2118 1.362 . S
H2120 C2126 0.930 . S
H2121 C2129 0.930 . S
H2122 C2130 0.930 . S
H2123 C2131 0.930 . S
H2124 C2134 0.930 . S
H2125 C2135 0.930 . S
C2126 H2120 0.930 . S
C2126 C2127 1.355 . S
C2126 C2128 1.415 . S
C2127 C2126 1.355 . S
C2127 C2129 1.419 1_565 S
C2128 C2126 1.415 . S
C2128 C2133 1.425 1_565 S
C2128 C2135 1.409 1_554 S
C2129 H2121 0.930 . S
C2129 C2127 1.419 1_545 S
C2129 C2130 1.362 . S
C2130 H2122 0.930 . S
C2130 C2129 1.362 . S
C2130 C2133 1.409 . S
C2131 H2123 0.930 . S
C2131 C2132 1.355 . S
C2131 C2133 1.415 1_556 S
C2132 C2131 1.355 . S
C2132 C2134 1.419 1_545 S
C2133 C2128 1.425 1_545 S
C2133 C2130 1.409 . S
C2133 C2131 1.415 1_554 S
C2134 H2124 0.930 . S
C2134 C2132 1.419 1_565 S
C2134 C2135 1.362 . S
C2135 H2125 0.930 . S
C2135 C2128 1.409 1_556 S
C2135 C2134 1.362 . S
H2136 C2142 0.930 . S
H2137 C2145 0.930 . S
H2138 C2146 0.930 1_554 S
H2139 C2147 0.930 . S
H2140 C2150 0.930 . S
H2141 C2151 0.930 1_556 S
C2142 H2136 0.930 . S
C2142 C2143 1.355 1_455 S
C2142 C2144 1.415 . S
C2143 C2142 1.355 1_655 S
C2143 C2145 1.419 . S
C2144 C2142 1.415 . S
C2144 C2149 1.425 1_456 S
C2144 C2151 1.409 1_556 S
C2145 H2137 0.930 . S
C2145 C2143 1.419 . S
C2145 C2146 1.362 . S
C2146 H2138 0.930 1_556 S
C2146 C2145 1.362 . S
C2146 C2149 1.409 1_556 S
C2147 H2139 0.930 . S
C2147 C2148 1.355 1_655 S
C2147 C2149 1.415 . S
C2148 C2147 1.355 1_455 S
C2148 C2150 1.419 . S
C2149 C2144 1.425 1_654 S
C2149 C2146 1.409 1_554 S
C2149 C2147 1.415 . S
C2150 H2140 0.930 . S
C2150 C2148 1.419 . S
C2150 C2151 1.362 . S
C2151 H2141 0.930 1_554 S
C2151 C2144 1.409 1_554 S
C2151 C2150 1.362 . S
H2152 C2158 0.930 . S
H2153 C2161 0.930 . S
H2154 C2162 0.930 . S
H2155 C2163 0.930 . S
H2156 C2166 0.930 . S
H2157 C2167 0.930 . S
C2158 H2152 0.930 . S
C2158 C2159 1.355 . S
C2158 C2160 1.415 . S
C2159 C2158 1.355 . S
C2159 C2161 1.419 . S
C2160 C2158 1.415 . S
C2160 C2165 1.425 1_554 S
C2160 C2167 1.409 1_554 S
C2161 H2153 0.930 . S
C2161 C2159 1.419 . S
C2161 C2162 1.362 . S
C2162 H2154 0.930 . S
C2162 C2161 1.362 . S
C2162 C2165 1.409 1_554 S
C2163 H2155 0.930 . S
C2163 C2164 1.355 . S
C2163 C2165 1.415 . S
C2164 C2163 1.355 . S
C2164 C2166 1.419 . S
C2165 C2160 1.425 1_556 S
C2165 C2162 1.409 1_556 S
C2165 C2163 1.415 . S
C2166 H2156 0.930 . S
C2166 C2164 1.419 . S
C2166 C2167 1.362 . S
C2167 H2157 0.930 . S
C2167 C2160 1.409 1_556 S
C2167 C2166 1.362 . S
H2168 C2174 0.930 . S
H2169 C2177 0.930 . S
H2170 C2178 0.930 . S
H2171 C2179 0.930 . S
H2172 C2182 0.930 . S
H2173 C2183 0.930 . S
C2174 H2168 0.930 . S
C2174 C2175 1.355 . S
C2174 C2176 1.415 1_554 S
C2175 C2174 1.355 . S
C2175 C2177 1.419 1_565 S
C2176 C2174 1.415 1_556 S
C2176 C2181 1.425 1_565 S
C2176 C2183 1.409 . S
C2177 H2169 0.930 . S
C2177 C2175 1.419 1_545 S
C2177 C2178 1.362 . S
C2178 H2170 0.930 . S
C2178 C2177 1.362 . S
C2178 C2181 1.409 1_554 S
C2179 H2171 0.930 . S
C2179 C2180 1.355 . S
C2179 C2181 1.415 . S
C2180 C2179 1.355 . S
C2180 C2182 1.419 1_545 S
C2181 C2176 1.425 1_545 S
C2181 C2178 1.409 1_556 S
C2181 C2179 1.415 . S
C2182 H2172 0.930 . S
C2182 C2180 1.419 1_565 S
C2182 C2183 1.362 . S
C2183 H2173 0.930 . S
C2183 C2176 1.409 . S
C2183 C2182 1.362 . S
H2184 C2190 0.930 . S
H2185 C2193 0.930 . S
H2186 C2194 0.930 . S
H2187 C2195 0.930 . S
H2188 C2198 0.930 . S
H2189 C2199 0.930 . S
C2190 H2184 0.930 . S
C2190 C2191 1.355 . S
C2190 C2192 1.415 . S
C2191 C2190 1.355 . S
C2191 C2193 1.419 . S
C2192 C2190 1.415 . S
C2192 C2197 1.425 . S
C2192 C2199 1.409 . S
C2193 H2185 0.930 . S
C2193 C2191 1.419 . S
C2193 C2194 1.362 . S
C2194 H2186 0.930 . S
C2194 C2193 1.362 . S
C2194 C2197 1.409 . S
C2195 H2187 0.930 . S
C2195 C2196 1.355 . S
C2195 C2197 1.415 . S
C2196 C2195 1.355 . S
C2196 C2198 1.419 . S
C2197 C2192 1.425 . S
C2197 C2194 1.409 . S
C2197 C2195 1.415 . S
C2198 H2188 0.930 . S
C2198 C2196 1.419 . S
C2198 C2199 1.362 . S
C2199 H2189 0.930 . S
C2199 C2192 1.409 . S
C2199 C2198 1.362 . S
H2200 C2206 0.930 . S
H2201 C2209 0.930 . S
H2202 C2210 0.930 . S
H2203 C2211 0.930 . S
H2204 C2214 0.930 . S
H2205 C2215 0.930 . S
C2206 H2200 0.930 . S
C2206 C2207 1.355 . S
C2206 C2208 1.415 . S
C2207 C2206 1.355 . S
C2207 C2209 1.419 . S
C2208 C2206 1.415 . S
C2208 C2213 1.425 . S
C2208 C2215 1.409 . S
C2209 H2201 0.930 . S
C2209 C2207 1.419 . S
C2209 C2210 1.362 . S
C2210 H2202 0.930 . S
C2210 C2209 1.362 . S
C2210 C2213 1.409 . S
C2211 H2203 0.930 . S
C2211 C2212 1.355 . S
C2211 C2213 1.415 . S
C2212 C2211 1.355 . S
C2212 C2214 1.419 . S
C2213 C2208 1.425 . S
C2213 C2210 1.409 . S
C2213 C2211 1.415 . S
C2214 H2204 0.930 . S
C2214 C2212 1.419 . S
C2214 C2215 1.362 . S
C2215 H2205 0.930 . S
C2215 C2208 1.409 . S
C2215 C2214 1.362 . S
H2216 C2222 0.930 . S
H2217 C2225 0.930 . S
H2218 C2226 0.930 . S
H2219 C2227 0.930 . S
H2220 C2230 0.930 . S
H2221 C2231 0.930 . S
C2222 H2216 0.930 . S
C2222 C2223 1.355 . S
C2222 C2224 1.415 . S
C2223 C2222 1.355 . S
C2223 C2225 1.419 . S
C2224 C2222 1.415 . S
C2224 C2229 1.425 . S
C2224 C2231 1.409 . S
C2225 H2217 0.930 . S
C2225 C2223 1.419 . S
C2225 C2226 1.362 . S
C2226 H2218 0.930 . S
C2226 C2225 1.362 . S
C2226 C2229 1.409 . S
C2227 H2219 0.930 . S
C2227 C2228 1.355 . S
C2227 C2229 1.415 . S
C2228 C2227 1.355 . S
C2228 C2230 1.419 . S
C2229 C2224 1.425 . S
C2229 C2226 1.409 . S
C2229 C2227 1.415 . S
C2230 H2220 0.930 . S
C2230 C2228 1.419 . S
C2230 C2231 1.362 . S
C2231 H2221 0.930 . S
C2231 C2224 1.409 . S
C2231 C2230 1.362 . S
H2232 C2238 0.930 . S
H2233 C2241 0.930 . S
H2234 C2242 0.930 . S
H2235 C2243 0.930 . S
H2236 C2246 0.930 . S
H2237 C2247 0.930 . S
C2238 H2232 0.930 . S
C2238 C2239 1.355 . S
C2238 C2240 1.415 . S
C2239 C2238 1.355 . S
C2239 C2241 1.419 . S
C2240 C2238 1.415 . S
C2240 C2245 1.425 . S
C2240 C2247 1.409 . S
C2241 H2233 0.930 . S
C2241 C2239 1.419 . S
C2241 C2242 1.362 . S
C2242 H2234 0.930 . S
C2242 C2241 1.362 . S
C2242 C2245 1.409 . S
C2243 H2235 0.930 . S
C2243 C2244 1.355 . S
C2243 C2245 1.415 . S
C2244 C2243 1.355 . S
C2244 C2246 1.419 . S
C2245 C2240 1.425 . S
C2245 C2242 1.409 . S
C2245 C2243 1.415 . S
C2246 H2236 0.930 . S
C2246 C2244 1.419 . S
C2246 C2247 1.362 . S
C2247 H2237 0.930 . S
C2247 C2240 1.409 . S
C2247 C2246 1.362 . S
H2248 C2254 0.930 . S
H2249 C2257 0.930 . S
H2250 C2258 0.930 . S
H2251 C2259 0.930 . S
H2252 C2262 0.930 . S
H2253 C2263 0.930 . S
C2254 H2248 0.930 . S
C2254 C2255 1.355 . S
C2254 C2256 1.415 . S
C2255 C2254 1.355 . S
C2255 C2257 1.419 . S
C2256 C2254 1.415 . S
C2256 C2261 1.425 . S
C2256 C2263 1.409 . S
C2257 H2249 0.930 . S
C2257 C2255 1.419 . S
C2257 C2258 1.362 . S
C2258 H2250 0.930 . S
C2258 C2257 1.362 . S
C2258 C2261 1.409 . S
C2259 H2251 0.930 . S
C2259 C2260 1.355 . S
C2259 C2261 1.415 . S
C2260 C2259 1.355 . S
C2260 C2262 1.419 . S
C2261 C2256 1.425 . S
C2261 C2258 1.409 . S
C2261 C2259 1.415 . S
C2262 H2252 0.930 . S
C2262 C2260 1.419 . S
C2262 C2263 1.362 . S
C2263 H2253 0.930 . S
C2263 C2256 1.409 . S
C2263 C2262 1.362 . S
H2264 C2270 0.930 . S
H2265 C2273 0.930 . S
H2266 C2274 0.930 . S
H2267 C2275 0.930 . S
H2268 C2278 0.930 . S
H2269 C2279 0.930 . S
C2270 H2264 0.930 . S
C2270 C2271 1.355 . S
C2270 C2272 1.415 . S
C2271 C2270 1.355 . S
C2271 C2273 1.419 . S
C2272 C2270 1.415 . S
C2272 C2277 1.425 . S
C2272 C2279 1.409 . S
C2273 H2265 0.930 . S
C2273 C2271 1.419 . S
C2273 C2274 1.362 . S
C2274 H2266 0.930 . S
C2274 C2273 1.362 . S
C2274 C2277 1.409 . S
C2275 H2267 0.930 . S
C2275 C2276 1.355 . S
C2275 C2277 1.415 . S
C2276 C2275 1.355 . S
C2276 C2278 1.419 . S
C2277 C2272 1.425 . S
C2277 C2274 1.409 . S
C2277 C2275 1.415 . S
C2278 H2268 0.930 . S
C2278 C2276 1.419 . S
C2278 C2279 1.362 . S
C2279 H2269 0.930 . S
C2279 C2272 1.409 . S
C2279 C2278 1.362 . S
H2280 C2286 0.930 . S
H2281 C2289 0.930 . S
H2282 C2290 0.930 . S
H2283 C2291 0.930 . S
H2284 C2294 0.930 . S
H2285 C2295 0.930 . S
C2286 H2280 0.930 . S
C2286 C2287 1.355 . S
C2286 C2288 1.415 . S
C2287 C2286 1.355 . S
C2287 C2289 1.419 . S
C2288 C2286 1.415 . S
C2288 C2293 1.425 . S
C2288 C2295 1.409 . S
C2289 H2281 0.930 . S
C2289 C2287 1.419 . S
C2289 C2290 1.362 . S
C2290 H2282 0.930 . S
C2290 C2289 1.362 . S
C2290 C2293 1.409 . S
C2291 H2283 0.930 . S
C2291 C2292 1.355 . S
C2291 C2293 1.415 . S
C2292 C2291 1.355 . S
C2292 C2294 1.419 . S
C2293 C2288 1.425 . S
C2293 C2290 1.409 . S
C2293 C2291 1.415 . S
C2294 H2284 0.930 . S
C2294 C2292 1.419 . S
C2294 C2295 1.362 . S
C2295 H2285 0.930 . S
C2295 C2288 1.409 . S
C2295 C2294 1.362 . S
H2296 C2302 0.930 . S
H2297 C2305 0.930 . S
H2298 C2306 0.930 . S
H2299 C2307 0.930 . S
H2300 C2310 0.930 . S
H2301 C2311 0.930 . S
C2302 H2296 0.930 . S
C2302 C2303 1.355 . S
C2302 C2304 1.415 . S
C2303 C2302 1.355 . S
C2303 C2305 1.419 . S
C2304 C2302 1.415 . S
C2304 C2309 1.425 . S
C2304 C2311 1.409 . S
C2305 H2297 0.930 . S
C2305 C2303 1.419 . S
C2305 C2306 1.362 . S
C2306 H2298 0.930 . S
C2306 C2305 1.362 . S
C2306 C2309 1.409 . S
C2307 H2299 0.930 . S
C2307 C2308 1.355 . S
C2307 C2309 1.415 . S
C2308 C2307 1.355 . S
C2308 C2310 1.419 . S
C2309 C2304 1.425 . S
C2309 C2306 1.409 . S
C2309 C2307 1.415 . S
C2310 H2300 0.930 . S
C2310 C2308 1.419 . S
C2310 C2311 1.362 . S
C2311 H2301 0.930 . S
C2311 C2304 1.409 . S
C2311 C2310 1.362 . S
H2312 C2318 0.930 . S
H2313 C2321 0.930 . S
H2314 C2322 0.930 . S
H2315 C2323 0.930 . S
H2316 C2326 0.930 . S
H2317 C2327 0.930 . S
C2318 H2312 0.930 . S
C2318 C2319 1.355 . S
C2318 C2320 1.415 . S
C2319 C2318 1.355 . S
C2319 C2321 1.419 . S
C2320 C2318 1.415 . S
C2320 C2325 1.425 . S
C2320 C2327 1.409 . S
C2321 H2313 0.930 . S
C2321 C2319 1.419 . S
C2321 C2322 1.362 . S
C2322 H2314 0.930 . S
C2322 C2321 1.362 . S
C2322 C2325 1.409 . S
C2323 H2315 0.930 . S
C2323 C2324 1.355 . S
C2323 C2325 1.415 . S
C2324 C2323 1.355 . S
C2324 C2326 1.419 . S
C2325 C2320 1.425 . S
C2325 C2322 1.409 . S
C2325 C2323 1.415 . S
C2326 H2316 0.930 . S
C2326 C2324 1.419 . S
C2326 C2327 1.362 . S
C2327 H2317 0.930 . S
C2327 C2320 1.409 . S
C2327 C2326 1.362 . S
H2328 C2334 0.930 . S
H2329 C2337 0.930 . S
H2330 C2338 0.930 . S
H2331 C2339 0.930 . S
H2332 C2342 0.930 . S
H2333 C2343 0.930 . S
C2334 H2328 0.930 . S
C2334 C2335 1.355 . S
C2334 C2336 1.415 . S
C2335 C2334 1.355 . S
C2335 C2337 1.419 . S
C2336 C2334 1.415 . S
C2336 C2341 1.425 . S
C2336 C2343 1.409 . S
C2337 H2329 0.930 . S
C2337 C2335 1.419 . S
C2337 C2338 1.362 . S
C2338 H2330 0.930 . S
C2338 C2337 1.362 . S
C2338 C2341 1.409 . S
C2339 H2331 0.930 . S
C2339 C2340 1.355 . S
C2339 C2341 1.415 . S
C2340 C2339 1.355 . S
C2340 C2342 1.419 . S
C2341 C2336 1.425 . S
C2341 C2338 1.409 . S
C2341 C2339 1.415 . S
C2342 H2332 0.930 . S
C2342 C2340 1.419 . S
C2342 C2343 1.362 . S
C2343 H2333 0.930 . S
C2343 C2336 1.409 . S
C2343 C2342 1.362 . S
H2344 C2350 0.930 . S
H2345 C2353 0.930 . S
H2346 C2354 0.930 . S
H2347 C2355 0.930 . S
H2348 C2358 0.930 . S
H2349 C2359 0.930 . S
C2350 H2344 0.930 . S
C2350 C2351 1.355 . S
C2350 C2352 1.415 . S
C2351 C2350 1.355 . S
C2351 C2353 1.419 . S
C2352 C2350 1.415 . S
C2352 C2357 1.425 . S
C2352 C2359 1.409 . S
C2353 H2345 0.930 . S
C2353 C2351 1.419 . S
C2353 C2354 1.362 . S
C2354 H2346 0.930 . S
C2354 C2353 1.362 . S
C2354 C2357 1.409 . S
C2355 H2347 0.930 . S
C2355 C2356 1.355 . S
C2355 C2357 1.415 . S
C2356 C2355 1.355 . S
C2356 C2358 1.419 . S
C2357 C2352 1.425 . S
C2357 C2354 1.409 . S
C2357 C2355 1.415 . S
C2358 H2348 0.930 . S
C2358 C2356 1.419 . S
C2358 C2359 1.362 . S
C2359 H2349 0.930 . S
C2359 C2352 1.409 . S
C2359 C2358 1.362 . S
H2360 C2366 0.930 . S
H2361 C2369 0.930 . S
H2362 C2370 0.930 . S
H2363 C2371 0.930 . S
H2364 C2374 0.930 . S
H2365 C2375 0.930 . S
C2366 H2360 0.930 . S
C2366 C2367 1.355 . S
C2366 C2368 1.415 . S
C2367 C2366 1.355 . S
C2367 C2369 1.419 . S
C2368 C2366 1.415 . S
C2368 C2373 1.425 . S
C2368 C2375 1.409 . S
C2369 H2361 0.930 . S
C2369 C2367 1.419 . S
C2369 C2370 1.362 . S
C2370 H2362 0.930 . S
C2370 C2369 1.362 . S
C2370 C2373 1.409 . S
C2371 H2363 0.930 . S
C2371 C2372 1.355 . S
C2371 C2373 1.415 . S
C2372 C2371 1.355 . S
C2372 C2374 1.419 . S
C2373 C2368 1.425 . S
C2373 C2370 1.409 . S
C2373 C2371 1.415 . S
C2374 H2364 0.930 . S
C2374 C2372 1.419 . S
C2374 C2375 1.362 . S
C2375 H2365 0.930 . S
C2375 C2368 1.409 . S
C2375 C2374 1.362 . S
C1519 C1159 1.961 . S
C1524 C74 1.990 . S
C1535 C158 1.994 . S
C1540 C1243 1.956 . S
C1551 C242 2.011 . S
C1556 C1075 1.997 . S
C1567 C235 1.958 . S
C1572 C662 2.009 . S
C1583 C746 2.016 . S
C1588 C67 1.972 . S
C1599 C151 1.961 . S
C1604 C578 1.990 . S
C1615 C315 2.014 . S
C1620 C896 1.966 . S
C1631 C399 2.012 . S
C1636 C980 1.995 . S
C1647 C812 1.994 . S
C1652 C483 1.996 . S
C1663 C1407 1.998 . S
C1668 C476 1.954 . S
C1679 C308 1.998 . S
C1684 C1491 2.002 . S
C1695 C1323 2.017 . S
C1700 C392 1.974 . S
C1711 C739 1.998 . S
C1716 C1166 2.004 . S
C1727 C571 1.971 . S
C1732 C1250 2.016 . S
C1743 C655 1.972 . S
C1748 C1082 2.016 . S
C1759 C819 1.990 . S
C1764 C1400 1.984 . S
C1775 C1484 1.994 . S
C1780 C903 2.014 . S
C1791 C1316 1.958 . S
C1796 C987 1.992 . S
C1807 C56 1.745 . S
C1812 C410 1.759 . S
C1823 C494 1.736 . S
C1828 C140 1.727 . S
C1839 C326 1.720 . S
C1844 C224 1.780 . S
C1855 C403 1.754 . S
C1860 C231 1.753 . S
C1871 C487 1.737 . S
C1876 C63 1.762 . S
C1887 C319 1.752 . S
C1892 C147 1.704 . S
C1903 C914 1.690 . S
C1908 C560 1.776 . S
C1919 C998 1.705 . S
C1924 C644 1.750 . S
C1935 C830 1.701 . S
C1940 C728 1.754 . S
C1951 C907 1.745 . S
C1956 C735 1.711 . S
C1967 C991 1.779 . S
C1972 C567 1.723 . S
C1983 C823 1.768 . S
C1988 C651 1.692 . S
C1999 C1418 1.762 . S
C2004 C1064 1.726 . S
C2015 C1502 1.704 . S
C2020 C1148 1.786 . S
C2031 C1232 1.770 . S
C2036 C1334 1.691 . S
C2047 C1239 1.759 . S
C2052 C1411 1.724 . S
C2063 C1071 1.701 . S
C2068 C1495 1.786 . S
C2079 C1327 1.780 . S
C2084 C1155 1.722 . S
C2095 C69 1.287 . S
C2100 C58 1.287 . S
C2111 C153 1.288 . S
C2116 C142 1.288 . S
C2127 C237 1.168 . S
C2132 C226 1.168 . S
C2143 C310 1.275 . S
C2148 C321 1.275 . S
C2159 C405 1.267 . S
C2164 C394 1.267 . S
C2175 C489 1.170 . S
C2180 C478 1.170 . S
C2191 C562 1.212 . S
C2196 C573 1.212 . S
C2207 C657 1.282 . S
C2212 C646 1.282 . S
C2223 C730 1.288 . S
C2228 C741 1.288 . S
C2239 C814 1.274 . S
C2244 C825 1.274 . S
C2255 C898 1.138 . S
C2260 C909 1.138 . S
C2271 C982 1.134 . S
C2276 C993 1.134 . S
C2287 C1066 1.258 . S
C2292 C1077 1.258 . S
C2303 C1161 1.288 . S
C2308 C1150 1.288 . S
C2319 C1245 1.251 . S
C2324 C1234 1.251 . S
C2335 C1329 1.224 . S
C2340 C1318 1.224 . S
C2351 C1413 1.288 . S
C2356 C1402 1.288 . S
C2367 C1486 1.201 . S
C2372 C1497 1.201 . S
