# Generated by pormake.
# Topology mon, (4)-cn, num edge types: 1
# Building blocks:
#     Node 0, Type 0, BuildingBlock: AZAVOO_clean_sbu_0, # of connection points: 4
#     Node 1, Type 0, BuildingBlock: AZAVOO_clean_sbu_0, # of connection points: 4
#     Node 2, Type 0, BuildingBlock: AZAVOO_clean_sbu_0, # of connection points: 4
#     Node 3, Type 0, BuildingBlock: AZAVOO_clean_sbu_0, # of connection points: 4
#     Node 4, Type 0, BuildingBlock: AZAVOO_clean_sbu_0, # of connection points: 4
#     Node 5, Type 0, BuildingBlock: AZAVOO_clean_sbu_0, # of connection points: 4
#     Node 6, Type 0, BuildingBlock: AZAVOO_clean_sbu_0, # of connection points: 4
#     Node 7, Type 0, BuildingBlock: AZAVOO_clean_sbu_0, # of connection points: 4
#     Node 8, Type 0, BuildingBlock: AZAVOO_clean_sbu_0, # of connection points: 4
#     Node 9, Type 0, BuildingBlock: AZAVOO_clean_sbu_0, # of connection points: 4
#     Node 10, Type 0, BuildingBlock: AZAVOO_clean_sbu_0, # of connection points: 4
#     Node 11, Type 0, BuildingBlock: AZAVOO_clean_sbu_0, # of connection points: 4
#     Node 12, Type 0, BuildingBlock: AZAVOO_clean_sbu_0, # of connection points: 4
#     Node 13, Type 0, BuildingBlock: AZAVOO_clean_sbu_0, # of connection points: 4
#     Node 14, Type 0, BuildingBlock: AZAVOO_clean_sbu_0, # of connection points: 4
#     Node 15, Type 0, BuildingBlock: AZAVOO_clean_sbu_0, # of connection points: 4
#     Edge 16, Type (0, 0), BuildingBlock: KIFKEQ_clean_linker_1, # of connection points: 2
#     Edge 17, Type (0, 0), BuildingBlock: KIFKEQ_clean_linker_1, # of connection points: 2
#     Edge 18, Type (0, 0), BuildingBlock: KIFKEQ_clean_linker_1, # of connection points: 2
#     Edge 19, Type (0, 0), BuildingBlock: KIFKEQ_clean_linker_1, # of connection points: 2
#     Edge 20, Type (0, 0), BuildingBlock: KIFKEQ_clean_linker_1, # of connection points: 2
#     Edge 21, Type (0, 0), BuildingBlock: KIFKEQ_clean_linker_1, # of connection points: 2
#     Edge 22, Type (0, 0), BuildingBlock: KIFKEQ_clean_linker_1, # of connection points: 2
#     Edge 23, Type (0, 0), BuildingBlock: KIFKEQ_clean_linker_1, # of connection points: 2
#     Edge 24, Type (0, 0), BuildingBlock: KIFKEQ_clean_linker_1, # of connection points: 2
#     Edge 25, Type (0, 0), BuildingBlock: KIFKEQ_clean_linker_1, # of connection points: 2
#     Edge 26, Type (0, 0), BuildingBlock: KIFKEQ_clean_linker_1, # of connection points: 2
#     Edge 27, Type (0, 0), BuildingBlock: KIFKEQ_clean_linker_1, # of connection points: 2
#     Edge 28, Type (0, 0), BuildingBlock: KIFKEQ_clean_linker_1, # of connection points: 2
#     Edge 29, Type (0, 0), BuildingBlock: KIFKEQ_clean_linker_1, # of connection points: 2
#     Edge 30, Type (0, 0), BuildingBlock: KIFKEQ_clean_linker_1, # of connection points: 2
#     Edge 31, Type (0, 0), BuildingBlock: KIFKEQ_clean_linker_1, # of connection points: 2
#     Edge 32, Type (0, 0), BuildingBlock: KIFKEQ_clean_linker_1, # of connection points: 2
#     Edge 33, Type (0, 0), BuildingBlock: KIFKEQ_clean_linker_1, # of connection points: 2
#     Edge 34, Type (0, 0), BuildingBlock: KIFKEQ_clean_linker_1, # of connection points: 2
#     Edge 35, Type (0, 0), BuildingBlock: KIFKEQ_clean_linker_1, # of connection points: 2
#     Edge 36, Type (0, 0), BuildingBlock: KIFKEQ_clean_linker_1, # of connection points: 2
#     Edge 37, Type (0, 0), BuildingBlock: KIFKEQ_clean_linker_1, # of connection points: 2
#     Edge 38, Type (0, 0), BuildingBlock: KIFKEQ_clean_linker_1, # of connection points: 2
#     Edge 39, Type (0, 0), BuildingBlock: KIFKEQ_clean_linker_1, # of connection points: 2
#     Edge 40, Type (0, 0), BuildingBlock: KIFKEQ_clean_linker_1, # of connection points: 2
#     Edge 41, Type (0, 0), BuildingBlock: KIFKEQ_clean_linker_1, # of connection points: 2
#     Edge 42, Type (0, 0), BuildingBlock: KIFKEQ_clean_linker_1, # of connection points: 2
#     Edge 43, Type (0, 0), BuildingBlock: KIFKEQ_clean_linker_1, # of connection points: 2
#     Edge 44, Type (0, 0), BuildingBlock: KIFKEQ_clean_linker_1, # of connection points: 2
#     Edge 45, Type (0, 0), BuildingBlock: KIFKEQ_clean_linker_1, # of connection points: 2
#     Edge 46, Type (0, 0), BuildingBlock: KIFKEQ_clean_linker_1, # of connection points: 2
#     Edge 47, Type (0, 0), BuildingBlock: KIFKEQ_clean_linker_1, # of connection points: 2
# Relax obj value: 0.178
# Max RMSD: 0.148
# Mean RMSD: 0.148
data_MOF--net-mon--node1-AZAVOO_clean_sbu_0--edge1-KIFKEQ_clean_linker_1
_symmetry_space_group_name_H-M    P1
_symmetry_Int_Tables_number       1
_symmetry_cell_setting            triclinic
loop_
_symmetry_equiv_pos_as_xyz
'x, y, z'
_cell_length_a     34.259675
_cell_length_b     34.369788
_cell_length_c     85.280362
_cell_angle_alpha  90.021835
_cell_angle_beta   89.987837
_cell_angle_gamma 89.952198
loop_
_atom_site_label
_atom_site_type_symbol
_atom_site_fract_x
_atom_site_fract_y
_atom_site_fract_z
_atom_type_partial_charge
Mg0 Mg 0.04667 0.03016 0.57481 0.0
O1 O 0.10058 0.00079 0.58521 0.0
O2 O 0.15337 0.03255 0.57652 0.0
Mg3 Mg 0.13334 0.07998 0.5597 0.0
C4 C 0.13745 0.00585 0.5847 0.0
C5 C 0.97372 0.00804 0.59519 0.0
O6 O 0.96184 0.04268 0.59075 0.0
O7 O 0.05385 0.08147 0.59148 0.0
O8 O 0.10499 0.11137 0.58055 0.0
O9 O 0.04972 0.99037 0.55458 0.0
O10 O 0.07917 0.0476 0.55539 0.0
C11 C 0.07827 0.1095 0.591 0.0
C12 C 0.07291 0.01535 0.5481 0.0
O13 O 0.00777 -0.00334 0.59148 0.0
Mg14 Mg 0.25646 0.74656 0.8249 0.0
O15 O 0.2846 0.79974 0.8363 0.0
O16 O 0.25518 0.85295 0.82699 0.0
Mg17 Mg 0.2081 0.83378 0.80976 0.0
C18 C 0.28061 0.83664 0.83572 0.0
C19 C 0.27632 0.67374 0.84586 0.0
O20 O 0.24068 0.66322 0.84209 0.0
O21 O 0.20362 0.75283 0.84084 0.0
O22 O 0.17481 0.80469 0.83005 0.0
O23 O 0.29812 0.7506 0.80524 0.0
O24 O 0.24055 0.77976 0.80544 0.0
C25 C 0.17566 0.77738 0.84023 0.0
C26 C 0.27346 0.77376 0.79853 0.0
O27 O 0.28887 0.70685 0.84161 0.0
Mg28 Mg 0.54911 0.95075 0.07525 0.0
O29 O 0.49605 0.9803 0.08635 0.0
O30 O 0.4425 0.95082 0.07712 0.0
Mg31 Mg 0.46112 0.90517 0.05925 0.0
C32 C 0.45908 0.97609 0.08582 0.0
C33 C 0.58892 0.01648 0.09357 0.0
O34 O 0.5625 0.0355 0.08545 0.0
O35 O 0.54024 0.89773 0.09078 0.0
O36 O 0.48848 0.87009 0.07937 0.0
O37 O 0.54757 0.99295 0.05573 0.0
O38 O 0.51605 0.93684 0.05556 0.0
C39 C 0.51529 0.87027 0.0898 0.0
C40 C 0.52362 0.96948 0.04879 0.0
O41 O 0.58987 0.97958 0.09273 0.0
Mg42 Mg 0.32769 0.24481 0.32405 0.0
O43 O 0.29908 0.19253 0.33596 0.0
O44 O 0.33017 0.13903 0.3276 0.0
Mg45 Mg 0.37578 0.15678 0.30954 0.0
C46 C 0.30421 0.15574 0.33596 0.0
C47 C 0.28691 0.31811 0.33484 0.0
O48 O 0.29406 0.3243 0.3199 0.0
O49 O 0.3813 0.23916 0.33957 0.0
O50 O 0.41054 0.18725 0.32901 0.0
O51 O 0.28523 0.24009 0.30465 0.0
O52 O 0.34245 0.21025 0.30495 0.0
C53 C 0.40969 0.21514 0.33893 0.0
C54 C 0.30946 0.21616 0.2981 0.0
O55 O 0.2982 0.28634 0.34096 0.0
Mg56 Mg 0.03924 0.95696 0.41091 0.0
O57 O 0.09142 0.98473 0.39854 0.0
O58 O 0.14525 0.95322 0.40636 0.0
Mg59 Mg 0.12783 0.90751 0.42439 0.0
C60 C 0.12827 0.97932 0.3982 0.0
C61 C 0.97484 0.01268 0.40032 0.0
O62 O 0.97705 0.01949 0.41544 0.0
O63 O 0.04315 0.90365 0.39521 0.0
O64 O 0.09575 0.87387 0.40502 0.0
O65 O 0.04641 -0.00104 0.43031 0.0
O66 O 0.07491 0.94127 0.42969 0.0
C67 C 0.06712 0.8752 0.39542 0.0
C68 C 0.0702 0.97426 0.43661 0.0
O69 O -0.00275 0.98727 0.39427 0.0
Mg70 Mg 0.33689 0.74386 0.6608 0.0
O71 O 0.3078 0.79591 0.64893 0.0
O72 O 0.33818 0.84979 0.65726 0.0
Mg73 Mg 0.38428 0.83256 0.67521 0.0
C74 C 0.31248 0.83274 0.6489 0.0
C75 C 0.28294 0.67849 0.65028 0.0
O76 O 0.27832 0.6794 0.66556 0.0
O77 O 0.39008 0.75027 0.64496 0.0
O78 O 0.4184 0.80282 0.65538 0.0
O79 O 0.29486 0.74895 0.68039 0.0
O80 O 0.35199 0.77867 0.67994 0.0
C81 C 0.41782 0.77506 0.64541 0.0
C82 C 0.31914 0.77278 0.6869 0.0
O83 O 0.30677 0.70209 0.64394 0.0
Mg84 Mg 0.54807 0.0323 0.90952 0.0
O85 O 0.49337 0.00385 0.89939 0.0
O86 O 0.44108 0.03354 0.90951 0.0
Mg87 Mg 0.46243 0.08132 0.92593 0.0
C88 C 0.45645 0.0078 0.90065 0.0
C89 C 0.61866 0.01097 0.88749 0.0
O90 O 0.63016 0.04634 0.89106 0.0
O91 O 0.53992 0.08412 0.89328 0.0
O92 O 0.48903 0.11327 0.90476 0.0
O93 O 0.54626 0.99176 0.92955 0.0
O94 O 0.51711 0.04921 0.92946 0.0
C95 C 0.51522 0.1119 0.89408 0.0
C96 C 0.52383 0.0167 0.93649 0.0
O97 O 0.58566 -0.00095 0.89227 0.0
Mg98 Mg 0.2586 0.24037 0.15957 0.0
O99 O 0.28809 0.18691 0.14894 0.0
O100 O 0.25495 0.13429 0.15678 0.0
Mg101 Mg 0.2067 0.15395 0.1734 0.0
C102 C 0.28246 0.15023 0.14903 0.0
C103 C 0.28062 0.31241 0.13876 0.0
O104 O 0.24443 0.32256 0.14181 0.0
O105 O 0.20805 0.2348 0.14244 0.0
O106 O 0.17642 0.18383 0.15259 0.0
O107 O 0.29734 0.23592 0.18006 0.0
O108 O 0.23961 0.20731 0.17856 0.0
C109 C 0.17942 0.21104 0.14244 0.0
C110 C 0.27161 0.21292 0.18618 0.0
O111 O 0.29322 0.27972 0.14351 0.0
Mg112 Mg 0.84199 0.24602 0.15603 0.0
O113 O 0.8116 0.29898 0.14546 0.0
O114 O 0.83928 0.35247 0.15533 0.0
Mg115 Mg 0.88732 0.33362 0.1722 0.0
C116 C 0.81425 0.33592 0.14648 0.0
C117 C 0.80251 0.17346 0.1442 0.0
O118 O 0.81472 0.16432 0.15834 0.0
O119 O 0.89413 0.2557 0.14006 0.0
O120 O 0.92148 0.30753 0.15145 0.0
O121 O 0.80059 0.24688 0.17584 0.0
O122 O 0.85703 0.27809 0.17586 0.0
C123 C 0.92126 0.28106 0.1409 0.0
C124 C 0.82453 0.27035 0.18279 0.0
O125 O 0.81129 0.20666 0.13868 0.0
Mg126 Mg 0.75962 0.74124 0.65879 0.0
O127 O 0.78897 0.68739 0.64839 0.0
O128 O 0.75755 0.63488 0.65741 0.0
Mg129 Mg 0.71077 0.65504 0.6746 0.0
C130 C 0.78397 0.65065 0.649 0.0
C131 C 0.78049 0.81344 0.6379 0.0
O132 O 0.74576 0.82509 0.64245 0.0
O133 O 0.70736 0.73345 0.64255 0.0
O134 O 0.67795 0.68282 0.65399 0.0
O135 O 0.80023 0.73908 0.67884 0.0
O136 O 0.74295 0.70946 0.67847 0.0
C137 C 0.67922 0.70918 0.64343 0.0
C138 C 0.77536 0.71629 0.68562 0.0
O139 O 0.79234 0.77973 0.64172 0.0
Mg140 Mg 0.75202 0.24672 0.32115 0.0
O141 O 0.78193 0.29856 0.33279 0.0
O142 O 0.75786 0.35313 0.32225 0.0
Mg143 Mg 0.71 0.33607 0.30498 0.0
C144 C 0.78095 0.33555 0.33162 0.0
C145 C 0.80022 0.17883 0.33288 0.0
O146 O 0.80268 0.17636 0.31754 0.0
O147 O 0.69867 0.25679 0.33629 0.0
O148 O 0.67363 0.31023 0.32524 0.0
O149 O 0.79545 0.24825 0.30195 0.0
O150 O 0.73938 0.28007 0.30135 0.0
C151 C 0.67237 0.28304 0.33548 0.0
C152 C 0.77235 0.27219 0.29481 0.0
O153 O 0.77951 0.2057 0.33888 0.0
Mg154 Mg 0.83354 0.74284 0.82507 0.0
O155 O 0.80459 0.68917 0.83577 0.0
O156 O 0.83377 0.63635 0.82595 0.0
Mg157 Mg 0.88126 0.65621 0.80904 0.0
C158 C 0.80829 0.65229 0.83479 0.0
C159 C 0.81229 0.81641 0.84479 0.0
O160 O 0.84548 0.82868 0.83887 0.0
O161 O 0.8861 0.73486 0.84104 0.0
O162 O 0.91463 0.68356 0.82969 0.0
O163 O 0.79225 0.74068 0.80522 0.0
O164 O 0.84949 0.71089 0.80532 0.0
C165 C 0.91389 0.71015 0.84018 0.0
C166 C 0.81687 0.71775 0.79833 0.0
O167 O 0.80148 0.78164 0.84224 0.0
Mg168 Mg 0.54252 0.52926 0.07402 0.0
O169 O 0.59763 0.50085 0.08382 0.0
O170 O 0.64943 0.5303 0.07325 0.0
Mg171 Mg 0.62738 0.57763 0.05677 0.0
C172 C 0.63447 0.50478 0.0823 0.0
C173 C 0.47138 0.50789 0.09516 0.0
O174 O 0.45844 0.54123 0.0897 0.0
O175 O 0.5516 0.58136 0.08998 0.0
O176 O 0.60191 0.61023 0.07801 0.0
O177 O 0.54313 0.4883 0.05409 0.0
O178 O 0.57246 0.54561 0.05382 0.0
C179 C 0.57624 0.60908 0.0889 0.0
C180 C 0.56523 0.51307 0.0469 0.0
O181 O 0.50577 0.49696 0.09176 0.0
Mg182 Mg 0.04708 0.44772 0.57496 0.0
O183 O 0.9942 0.47803 0.58583 0.0
O184 O 0.94052 0.44769 0.57719 0.0
Mg185 Mg 0.95882 0.40042 0.55993 0.0
C186 C 0.95721 0.47372 0.58548 0.0
C187 C 0.11304 0.50066 0.58558 0.0
O188 O 0.11434 0.50273 0.57021 0.0
O189 O 0.03891 0.39587 0.59128 0.0
O190 O 0.9868 0.36746 0.58046 0.0
O191 O 0.04402 0.48818 0.55483 0.0
O192 O 0.01374 0.43146 0.55554 0.0
C193 C 0.01384 0.36841 0.59078 0.0
C194 C 0.02058 0.46358 0.54828 0.0
O195 O 0.08776 0.47873 0.59198 0.0
Mg196 Mg 0.54047 0.45251 0.90682 0.0
O197 O 0.59497 0.48176 0.89684 0.0
O198 O 0.64739 0.45306 0.90728 0.0
Mg199 Mg 0.62646 0.40538 0.92382 0.0
C200 C 0.6319 0.47839 0.89828 0.0
C201 C 0.46763 0.47472 0.88677 0.0
O202 O 0.45438 0.44223 0.89288 0.0
O203 O 0.54997 0.40033 0.89084 0.0
O204 O 0.60086 0.3723 0.90275 0.0
O205 O 0.54089 0.49346 0.92676 0.0
O206 O 0.57109 0.43656 0.92693 0.0
C207 C 0.57499 0.37289 0.89194 0.0
C208 C 0.56352 0.469 0.93387 0.0
O209 O 0.5028 0.48462 0.88927 0.0
Mg210 Mg 0.03951 0.53371 0.40937 0.0
O211 O 0.98752 0.50285 0.39817 0.0
O212 O 0.93296 0.5257 0.40928 0.0
Mg213 Mg 0.95005 0.5732 0.42664 0.0
C214 C 0.95047 0.50316 0.39969 0.0
C215 C 0.11329 0.49762 0.39677 0.0
O216 O 0.12095 0.50502 0.41158 0.0
O217 O 0.02722 0.58698 0.39454 0.0
O218 O 0.97406 0.61069 0.40638 0.0
O219 O 0.04068 0.49018 0.42851 0.0
O220 O 0.00708 0.54507 0.42949 0.0
C221 C 0.00057 0.61276 0.39584 0.0
C222 C 0.01639 0.51245 0.43591 0.0
O223 O 0.08029 0.5076 0.39128 0.0
H224 H 0.01545 0.12687 0.60983 0.0
H225 H 0.12824 0.17011 0.59537 0.0
H226 H -0.00138 0.1913 0.61975 0.0
H227 H 0.11104 0.23421 0.60449 0.0
H228 H 0.07529 0.35074 0.61029 0.0
H229 H 0.09134 0.2863 0.62037 0.0
H230 H 0.98034 0.24331 0.60356 0.0
H231 H 0.96383 0.30742 0.59426 0.0
C232 C 0.03708 0.14978 0.60916 0.0
C233 C 0.07256 0.14382 0.60124 0.0
C234 C 0.02737 0.1868 0.61478 0.0
C235 C 0.05281 0.21844 0.6124 0.0
C236 C 0.09041 0.21091 0.6065 0.0
C237 C 0.10019 0.17398 0.60103 0.0
C238 C 0.05379 0.3278 0.60927 0.0
C239 C 0.01896 0.33379 0.6009 0.0
C240 C 0.06304 0.29077 0.615 0.0
C241 C 0.03783 0.25913 0.61228 0.0
C242 C 0.00077 0.26663 0.60585 0.0
C243 C 0.99142 0.30356 0.60028 0.0
H244 H 0.976 0.66102 0.84297 0.0
H245 H 0.9321 0.77163 0.85947 0.0
H246 H 0.04072 0.67827 0.85165 0.0
H247 H -0.00282 0.78845 0.86883 0.0
H248 H 0.11338 0.82605 0.84363 0.0
H249 H 0.04884 0.80813 0.85231 0.0
H250 H 0.09283 0.69691 0.86814 0.0
H251 H 0.15774 0.71447 0.85879 0.0
C252 C 0.97988 0.68855 0.84896 0.0
C253 C 0.9492 0.71559 0.84994 0.0
C254 C 0.01716 0.69834 0.85416 0.0
C255 C 0.02456 0.73534 0.86054 0.0
C256 C 0.9927 0.76017 0.86353 0.0
C257 C 0.95532 0.75044 0.85822 0.0
C258 C 0.10964 0.79812 0.84932 0.0
C259 C 0.14039 0.77109 0.84994 0.0
C260 C 0.07247 0.78794 0.85452 0.0
C261 C 0.06524 0.75053 0.86053 0.0
C262 C 0.09718 0.72554 0.86314 0.0
C263 C 0.13445 0.73568 0.85783 0.0
H264 H 0.62695 0.66959 0.09213 0.0
H265 H 0.51524 0.62758 0.10846 0.0
H266 H 0.61104 0.7341 0.10132 0.0
H267 H 0.49969 0.69244 0.11825 0.0
H268 H 0.46506 0.80924 0.09271 0.0
H269 H 0.4813 0.74449 0.10149 0.0
H270 H 0.59291 0.78588 0.11826 0.0
H271 H 0.57702 0.851 0.10887 0.0
C272 C 0.59948 0.67382 0.09819 0.0
C273 C 0.57171 0.64385 0.09898 0.0
C274 C 0.59047 0.71094 0.10368 0.0
C275 C 0.5535 0.71884 0.11012 0.0
C276 C 0.52799 0.68753 0.11294 0.0
C277 C 0.53697 0.6503 0.10737 0.0
C278 C 0.49269 0.80488 0.09863 0.0
C279 C 0.52039 0.83492 0.0995 0.0
C280 C 0.50189 0.76762 0.1039 0.0
C281 C 0.53896 0.75962 0.1102 0.0
C282 C 0.56451 0.79088 0.11306 0.0
C283 C 0.55535 0.82825 0.1077 0.0
H284 H 0.65428 0.22522 0.35648 0.0
H285 H 0.60924 0.33155 0.33632 0.0
H286 H 0.58943 0.20976 0.36642 0.0
H287 H 0.54471 0.31558 0.34572 0.0
H288 H 0.42832 0.28077 0.35571 0.0
H289 H 0.49377 0.30016 0.36377 0.0
H290 H 0.53735 0.18678 0.35044 0.0
H291 H 0.47229 0.16719 0.34294 0.0
C292 C 0.63084 0.24579 0.35449 0.0
C293 C 0.63664 0.27893 0.34511 0.0
C294 C 0.59363 0.23687 0.36018 0.0
C295 C 0.56159 0.2608 0.3565 0.0
C296 C 0.56853 0.29633 0.34881 0.0
C297 C 0.60567 0.30534 0.34322 0.0
C298 C 0.45165 0.25954 0.35505 0.0
C299 C 0.44542 0.2229 0.34816 0.0
C300 C 0.48921 0.27073 0.35962 0.0
C301 C 0.52107 0.2455 0.35731 0.0
C302 C 0.5137 0.20715 0.35237 0.0
C303 C 0.47627 0.19597 0.34787 0.0
H304 H 0.11494 0.81306 0.39039 0.0
H305 H 0.00033 0.85757 0.37908 0.0
H306 H 0.09514 0.74884 0.38212 0.0
H307 H 0.98069 0.79297 0.37026 0.0
H308 H 0.95104 0.67505 0.39606 0.0
H309 H 0.96615 0.74029 0.38749 0.0
H310 H 0.07178 0.69846 0.36543 0.0
H311 H 0.05723 0.63287 0.37454 0.0
C312 C 0.08585 0.80941 0.38563 0.0
C313 C 0.05876 0.8401 0.38595 0.0
C314 C 0.07455 0.77247 0.38068 0.0
C315 C 0.03591 0.76543 0.37589 0.0
C316 C 0.01038 0.79726 0.37427 0.0
C317 C 0.02169 0.83433 0.37928 0.0
C318 C 0.97699 0.67943 0.38902 0.0
C319 C 0.00369 0.64899 0.38653 0.0
C320 C 0.9855 0.717 0.38392 0.0
C321 C 0.0208 0.72489 0.37613 0.0
C322 C 0.04486 0.6935 0.37178 0.0
C323 C 0.03645 0.65586 0.37699 0.0
H324 H 0.47992 0.82386 0.64209 0.0
H325 H 0.43539 0.71294 0.6263 0.0
H326 H 0.54401 0.8068 0.63268 0.0
H327 H 0.49984 0.69631 0.61614 0.0
H328 H 0.61804 0.65942 0.63986 0.0
H329 H 0.55302 0.67669 0.6316 0.0
H330 H 0.59504 0.78862 0.61577 0.0
H331 H 0.66043 0.77173 0.62479 0.0
C332 C 0.48351 0.79624 0.63613 0.0
C333 C 0.4529 0.7691 0.63554 0.0
C334 C 0.52042 0.78658 0.63049 0.0
C335 C 0.52756 0.7496 0.62402 0.0
C336 C 0.49563 0.72458 0.62149 0.0
C337 C 0.45862 0.73416 0.62727 0.0
C338 C 0.61375 0.68737 0.63425 0.0
C339 C 0.64405 0.71484 0.63361 0.0
C340 C 0.57629 0.69719 0.62928 0.0
C341 C 0.56834 0.73466 0.62347 0.0
C342 C 0.59991 0.75997 0.62068 0.0
C343 C 0.63748 0.75021 0.62578 0.0
H344 H 0.62619 0.31263 0.88896 0.0
H345 H 0.51376 0.35302 0.87272 0.0
H346 H 0.6105 0.24749 0.88053 0.0
H347 H 0.49845 0.2875 0.86364 0.0
H348 H 0.46464 0.17241 0.89038 0.0
H349 H 0.48054 0.23651 0.88081 0.0
H350 H 0.59236 0.19427 0.86452 0.0
H351 H 0.57682 0.12984 0.87474 0.0
C352 C 0.5986 0.30788 0.88306 0.0
C353 C 0.57058 0.33766 0.88212 0.0
C354 C 0.5897 0.27037 0.87801 0.0
C355 C 0.5526 0.26185 0.87184 0.0
C356 C 0.52683 0.29287 0.86879 0.0
C357 C 0.53569 0.3305 0.87394 0.0
C358 C 0.49225 0.17642 0.8844 0.0
C359 C 0.52009 0.14641 0.88389 0.0
C360 C 0.50126 0.2133 0.87868 0.0
C361 C 0.5383 0.22098 0.87228 0.0
C362 C 0.56399 0.18958 0.8698 0.0
C363 C 0.55502 0.15259 0.87561 0.0
H364 H 0.11741 0.16327 0.13711 0.0
H365 H 0.16479 0.27522 0.12413 0.0
H366 H 0.05414 0.18282 0.12755 0.0
H367 H 0.1012 0.2945 0.11389 0.0
H368 H 0.98382 0.32987 0.13898 0.0
H369 H 0.04844 0.31271 0.13014 0.0
H370 H 0.00388 0.20512 0.11091 0.0
H371 H 0.93889 0.22177 0.12042 0.0
C372 C 0.11465 0.19165 0.13169 0.0
C373 C 0.1457 0.21829 0.132 0.0
C374 C 0.07823 0.20279 0.12598 0.0
C375 C 0.07212 0.24082 0.12038 0.0
C376 C 0.10465 0.26541 0.11857 0.0
C377 C 0.14117 0.2543 0.12439 0.0
C378 C 0.98745 0.30299 0.1325 0.0
C379 C 0.95653 0.27642 0.13103 0.0
C380 C 0.02468 0.29328 0.12721 0.0
C381 C 0.03175 0.25684 0.12024 0.0
C382 C -0.00035 0.23288 0.11669 0.0
C383 C 0.96233 0.24249 0.12211 0.0
H384 H 0.06867 0.04252 0.45272 0.0
H385 H 0.11351 0.92509 0.45489 0.0
H386 H 0.0855 0.05218 0.48005 0.0
H387 H 0.13133 0.93511 0.48231 0.0
H388 H 0.0701 0.94778 0.53158 0.0
H389 H 0.0859 0.93869 0.50412 0.0
H390 H 0.13085 0.05604 0.50188 0.0
H391 H 0.1141 0.06547 0.52946 0.0
C392 C 0.08319 0.01913 0.45892 0.0
C393 C 0.08888 0.98274 0.4518 0.0
C394 C 0.09325 0.0248 0.47458 0.0
C395 C 0.10922 0.99418 0.48342 0.0
C396 C 0.11845 0.95901 0.47584 0.0
C397 C 0.10834 0.95332 0.46014 0.0
C398 C 0.08413 0.97139 0.52534 0.0
C399 C 0.09005 0.00761 0.53256 0.0
C400 C 0.09364 0.96604 0.50961 0.0
C401 C 0.10924 -0.00317 0.50076 0.0
C402 C 0.11834 0.03198 0.50836 0.0
C403 C 0.10883 0.03733 0.52415 0.0
H404 H 0.34205 0.77051 0.78253 0.0
H405 H 0.22431 0.81507 0.77948 0.0
H406 H 0.35247 0.78592 0.7551 0.0
H407 H 0.23507 0.83138 0.75196 0.0
H408 H 0.25039 0.77009 0.70278 0.0
H409 H 0.23985 0.78586 0.73017 0.0
H410 H 0.35714 0.83141 0.7333 0.0
H411 H 0.36802 0.81475 0.7058 0.0
C412 C 0.31872 0.78458 0.7761 0.0
C413 C 0.2821 0.7908 0.78305 0.0
C414 C 0.32483 0.79383 0.76038 0.0
C415 C 0.29441 0.80947 0.75129 0.0
C416 C 0.25886 0.81883 0.75862 0.0
C417 C 0.25275 0.80959 0.77439 0.0
C418 C 0.27366 0.7843 0.70919 0.0
C419 C 0.31031 0.79039 0.70226 0.0
C420 C 0.26748 0.79374 0.72489 0.0
C421 C 0.29786 0.80944 0.73397 0.0
C422 C 0.3334 0.81879 0.72664 0.0
C423 C 0.33957 0.80936 0.71089 0.0
H424 H 0.53031 0.03791 0.033 0.0
H425 H 0.48112 0.92251 0.02933 0.0
H426 H 0.51608 0.04941 0.00551 0.0
H427 H 0.46609 0.93438 0.00176 0.0
H428 H 0.52698 0.94838 0.95251 0.0
H429 H 0.51253 0.93814 0.98006 0.0
H430 H 0.47013 0.05625 0.98374 0.0
H431 H 0.48534 0.06678 0.95608 0.0
C432 C 0.51551 0.01535 0.02642 0.0
C433 C 0.50755 0.97903 0.03322 0.0
C434 C 0.50698 0.02209 0.01067 0.0
C435 C 0.49036 0.99261 0.00141 0.0
C436 C 0.47942 0.95743 0.00857 0.0
C437 C 0.48791 0.95069 0.02436 0.0
C438 C 0.51383 0.97195 0.95909 0.0
C439 C 0.50799 0.0086 0.95222 0.0
C440 C 0.50515 0.96595 0.97487 0.0
C441 C 0.49051 -0.00347 0.98411 0.0
C442 C 0.48184 0.03232 0.97693 0.0
C443 C 0.49045 0.03829 0.9611 0.0
H444 H 0.21877 0.17489 0.20472 0.0
H445 H 0.33895 0.21273 0.20298 0.0
H446 H 0.2264 0.15913 0.23249 0.0
H447 H 0.34633 0.19781 0.23059 0.0
H448 H 0.35699 0.17058 0.27999 0.0
H449 H 0.34682 0.15296 0.2526 0.0
H450 H 0.23211 0.20525 0.25413 0.0
H451 H 0.24184 0.22192 0.2815 0.0
C452 C 0.24704 0.17894 0.21016 0.0
C453 C 0.27805 0.19578 0.2018 0.0
C454 C 0.25136 0.17003 0.22606 0.0
C455 C 0.28678 0.1777 0.23378 0.0
C456 C 0.31872 0.19124 0.22501 0.0
C457 C 0.31438 0.20021 0.20918 0.0
C458 C 0.32918 0.17729 0.2746 0.0
C459 C 0.30051 0.19835 0.28278 0.0
C460 C 0.32341 0.16728 0.2589 0.0
C461 C 0.28894 0.17824 0.25113 0.0
C462 C 0.25892 0.19612 0.25977 0.0
C463 C 0.26466 0.20606 0.27545 0.0
H464 H 0.87314 0.31004 0.20255 0.0
H465 H 0.75552 0.26586 0.19845 0.0
H466 H 0.8613 0.3253 0.23012 0.0
H467 H 0.74393 0.28054 0.22592 0.0
H468 H 0.72584 0.31392 0.27492 0.0
H469 H 0.73869 0.32816 0.24736 0.0
H470 H 0.85424 0.27902 0.25199 0.0
H471 H 0.8417 0.26539 0.27948 0.0
C472 C 0.84452 0.3044 0.20743 0.0
C473 C 0.81545 0.28615 0.19844 0.0
C474 C 0.8378 0.31304 0.22321 0.0
C475 C 0.80184 0.30378 0.23021 0.0
C476 C 0.77184 0.28838 0.22085 0.0
C477 C 0.7786 0.27959 0.20513 0.0
C478 C 0.75435 0.30714 0.27015 0.0
C479 C 0.78254 0.2879 0.27926 0.0
C480 C 0.76163 0.3152 0.25437 0.0
C481 C 0.79726 0.30428 0.24748 0.0
C482 C 0.82659 0.28807 0.25697 0.0
C483 C 0.81927 0.27991 0.27271 0.0
H484 H 0.84317 0.72058 0.7021 0.0
H485 H 0.72506 0.67702 0.70483 0.0
H486 H 0.85235 0.70681 0.72976 0.0
H487 H 0.73455 0.66249 0.7326 0.0
H488 H 0.7491 0.72352 0.78185 0.0
H489 H 0.73938 0.70895 0.75427 0.0
H490 H 0.85586 0.66102 0.75163 0.0
H491 H 0.86593 0.6764 0.77928 0.0
C492 C 0.81948 0.70712 0.70853 0.0
C493 C 0.78317 0.70057 0.70139 0.0
C494 C 0.82487 0.69886 0.72437 0.0
C495 C 0.79401 0.68392 0.73341 0.0
C496 C 0.75867 0.67447 0.72596 0.0
C497 C 0.7533 0.68267 0.71006 0.0
C498 C 0.77236 0.70912 0.77549 0.0
C499 C 0.80853 0.7018 0.78264 0.0
C500 C 0.76666 0.7004 0.75969 0.0
C501 C 0.79703 0.68419 0.75073 0.0
C502 C 0.83213 0.67399 0.75821 0.0
C503 C 0.83783 0.68269 0.77404 0.0
H504 H 0.55685 0.53671 0.95021 0.0
H505 H 0.60383 0.42023 0.95336 0.0
H506 H 0.57067 0.54694 0.97783 0.0
H507 H 0.61843 0.4308 0.98104 0.0
H508 H 0.60385 0.56257 0.02718 0.0
H509 H 0.61753 0.55227 -0.0006 0.0
H510 H 0.57241 0.43522 0.00293 0.0
H511 H 0.55948 0.4452 0.03064 0.0
C512 C 0.57102 0.51361 0.95671 0.0
C513 C 0.57862 0.47744 0.94969 0.0
C514 C 0.5793 0.51961 0.97253 0.0
C515 C 0.59533 0.48952 0.98164 0.0
C516 C 0.60562 0.45432 0.97433 0.0
C517 C 0.59737 0.44834 0.95848 0.0
C518 C 0.59779 0.53433 0.0221 0.0
C519 C 0.58 0.50489 0.031 0.0
C520 C 0.60551 0.5285 0.00619 0.0
C521 C 0.59565 0.49311 -0.00105 0.0
C522 C 0.58067 0.46272 0.00817 0.0
C523 C 0.57289 0.46857 0.02404 0.0
H524 H 0.98346 0.41253 0.52874 0.0
H525 H 0.02146 0.53205 0.53235 0.0
H526 H 0.96823 0.4226 0.50103 0.0
H527 H 0.0067 0.54194 0.50479 0.0
H528 H 0.97224 0.55679 0.45575 0.0
H529 H 0.95869 0.54385 0.48333 0.0
H530 H 0.01484 0.43172 0.47916 0.0
H531 H 0.02779 0.4443 0.45159 0.0
C532 C 0.98767 0.44116 0.52372 0.0
C533 C 0.00424 0.47135 0.53261 0.0
C534 C 0.97908 0.44686 0.50787 0.0
C535 C 0.98662 0.48292 0.50072 0.0
C536 C 0.00023 0.5139 0.50997 0.0
C537 C 0.00904 0.50815 0.52575 0.0
C538 C 0.98077 0.52896 0.46061 0.0
C539 C 0.00166 0.50181 0.45158 0.0
C540 C 0.97309 0.52163 0.47641 0.0
C541 C 0.9861 0.487 0.48344 0.0
C542 C 0.00417 0.45857 0.47407 0.0
C543 C 0.01192 0.46593 0.45829 0.0
H544 H 0.333 0.89628 0.63201 0.0
H545 H 0.23496 0.82298 0.6435 0.0
H546 H 0.29117 0.93662 0.61571 0.0
H547 H 0.19202 0.86497 0.62829 0.0
H548 H 0.12865 0.92818 0.58948 0.0
H549 H 0.17175 0.88498 0.60407 0.0
H550 H 0.24432 0.98355 0.61636 0.0
H551 H 0.20283 0.02565 0.60068 0.0
C552 C 0.30226 0.88918 0.63115 0.0
C553 C 0.28706 0.85669 0.63895 0.0
C554 C 0.2781 0.91248 0.62193 0.0
C555 C 0.23788 0.90452 0.62072 0.0
C556 C 0.22284 0.87178 0.62861 0.0
C557 C 0.24732 0.84779 0.63744 0.0
C558 C 0.15398 0.94034 0.5953 0.0
C559 C 0.16268 0.98003 0.59395 0.0
C560 C 0.17859 0.91571 0.60377 0.0
C561 C 0.21179 0.93054 0.61147 0.0
C562 C 0.2198 0.97064 0.61029 0.0
C563 C 0.19585 -0.00504 0.60143 0.0
H564 H 0.34167 0.81359 0.85425 0.0
H565 H 0.2779 0.91568 0.83924 0.0
H566 H 0.38397 0.85451 0.87025 0.0
H567 H 0.32055 0.95641 0.85508 0.0
H568 H 0.37684 0.01054 0.89851 0.0
H569 H 0.33439 0.96853 0.88311 0.0
H570 H 0.4349 0.9049 0.86639 0.0
H571 H 0.47752 0.94655 0.88193 0.0
C572 C 0.33666 0.84471 0.85433 0.0
C573 C 0.30635 0.86134 0.84546 0.0
C574 C 0.36105 0.86813 0.86344 0.0
C575 C 0.35552 0.90861 0.86391 0.0
C576 C 0.3252 0.92523 0.85508 0.0
C577 C 0.30091 0.90188 0.84593 0.0
C578 C 0.38996 0.98756 0.89159 0.0
C579 C 0.43062 0.98197 0.89145 0.0
C580 C 0.36561 0.96364 0.88271 0.0
C581 C 0.38136 0.93353 0.87353 0.0
C582 C 0.42193 0.92766 0.87348 0.0
C583 C 0.44633 0.95168 0.88232 0.0
H584 H 0.46955 0.05299 0.09193 0.0
H585 H 0.39333 0.95605 0.10151 0.0
H586 H 0.42667 0.09583 0.10679 0.0
H587 H 0.35201 -0.00231 0.1175 0.0
H588 H 0.26293 0.08626 0.13218 0.0
H589 H 0.30579 0.04513 0.11665 0.0
H590 H 0.40467 0.11534 0.13082 0.0
H591 H 0.36081 0.15815 0.14524 0.0
C592 C 0.44386 0.04084 0.09748 0.0
C593 C 0.43444 0.00145 0.09554 0.0
C594 C 0.41935 0.06526 0.10612 0.0
C595 C 0.38552 0.05049 0.11339 0.0
C596 C 0.377 0.0106 0.11175 0.0
C597 C 0.40085 0.98653 0.10271 0.0
C598 C 0.29385 0.09281 0.13187 0.0
C599 C 0.30869 0.12524 0.13983 0.0
C600 C 0.31861 0.06905 0.12309 0.0
C601 C 0.35903 0.07648 0.1225 0.0
C602 C 0.37374 0.10896 0.13066 0.0
C603 C 0.34872 0.13341 0.13904 0.0
H604 H 0.1185 0.05682 0.39339 0.0
H605 H 0.19255 0.95973 0.38135 0.0
H606 H 0.16141 0.10056 0.37905 0.0
H607 H 0.23392 0.00252 0.3659 0.0
H608 H 0.32383 0.09082 0.35224 0.0
H609 H 0.28103 0.04916 0.36755 0.0
H610 H 0.18275 0.12242 0.35525 0.0
H611 H 0.22656 0.16558 0.34105 0.0
C612 C 0.14364 0.04482 0.38737 0.0
C613 C 0.15245 0.00508 0.38848 0.0
C614 C 0.1682 0.06981 0.37906 0.0
C615 C 0.20149 0.05534 0.3713 0.0
C616 C 0.20935 0.01514 0.37206 0.0
C617 C 0.18544 0.99042 0.38077 0.0
C618 C 0.29309 0.09802 0.35298 0.0
C619 C 0.27839 0.13132 0.34556 0.0
C620 C 0.26836 0.07394 0.3616 0.0
C621 C 0.22809 0.08195 0.36258 0.0
C622 C 0.21357 0.11551 0.35508 0.0
C623 C 0.23858 0.14021 0.34685 0.0
H624 H 0.94991 -0.004 0.37061 0.0
H625 H 0.93743 0.07983 0.40803 0.0
H626 H 0.90453 0.03345 0.35458 0.0
H627 H 0.8937 0.11826 0.39183 0.0
H628 H 0.7917 0.1648 0.36428 0.0
H629 H 0.83116 0.12186 0.38063 0.0
H630 H 0.90134 0.09157 0.34025 0.0
H631 H 0.86078 0.13283 0.32389 0.0
C632 C 0.93765 0.02257 0.37536 0.0
C633 C 0.94725 0.03502 0.39055 0.0
C634 C 0.91178 0.04418 0.36616 0.0
C635 C 0.89545 0.07903 0.37186 0.0
C636 C 0.90504 0.09126 0.38712 0.0
C637 C 0.93041 0.06936 0.39639 0.0
C638 C 0.81541 0.1487 0.35892 0.0
C639 C 0.82317 0.15217 0.34282 0.0
C640 C 0.83821 0.12426 0.36829 0.0
C641 C 0.86962 0.10327 0.3618 0.0
C642 C 0.87702 0.10663 0.34564 0.0
C643 C 0.85389 0.13056 0.33625 0.0
H644 H 0.59347 0.09474 0.09843 0.0
H645 H 0.65466 0.98702 0.10744 0.0
H646 H 0.6469 0.13099 0.11026 0.0
H647 H 0.70856 0.02344 0.11898 0.0
H648 H 0.77643 0.10211 0.15349 0.0
H649 H 0.72495 0.06326 0.14159 0.0
H650 H 0.71431 0.14756 0.10426 0.0
H651 H 0.76527 0.18693 0.11634 0.0
C652 C 0.61829 0.07878 0.10297 0.0
C653 C 0.61986 0.03801 0.10196 0.0
C654 C 0.64908 0.09959 0.10961 0.0
C655 C 0.6822 0.08013 0.11538 0.0
C656 C 0.68336 0.03928 0.11473 0.0
C657 C 0.65248 0.01841 0.1081 0.0
C658 C 0.76338 0.11222 0.14266 0.0
C659 C 0.77474 0.14777 0.13592 0.0
C660 C 0.73394 0.08984 0.13582 0.0
C661 C 0.71524 0.10254 0.12208 0.0
C662 C 0.72763 0.13738 0.11502 0.0
C663 C 0.75709 0.15976 0.12186 0.0
H664 H 0.73391 0.80782 0.84823 0.0
H665 H 0.82814 0.88822 0.85716 0.0
H666 H 0.68719 0.85545 0.85747 0.0
H667 H 0.78142 0.93552 0.8674 0.0
H668 H 0.68494 0.02643 0.87061 0.0
H669 H 0.732 0.97945 0.86034 0.0
H670 H 0.66266 0.88555 0.87943 0.0
H671 H 0.61498 0.93211 0.88872 0.0
C672 C 0.74474 0.83546 0.85251 0.0
C673 C 0.78475 0.84422 0.85202 0.0
C674 C 0.71788 0.86286 0.85788 0.0
C675 C 0.73034 0.89952 0.86326 0.0
C676 C 0.77057 0.90795 0.86309 0.0
C677 C 0.79745 0.88069 0.85739 0.0
C678 C 0.67967 -0.00432 0.87239 0.0
C679 C 0.64613 0.98297 0.88034 0.0
C680 C 0.70683 0.96872 0.86667 0.0
C681 C 0.70134 0.92852 0.86905 0.0
C682 C 0.66764 0.91606 0.87702 0.0
C683 C 0.64023 0.94287 0.88243 0.0
H684 H 0.76399 0.88242 0.62322 0.0
H685 H 0.85953 0.8075 0.6367 0.0
H686 H 0.81051 0.9297 0.61285 0.0
H687 H 0.90583 0.85524 0.6273 0.0
H688 H 0.98012 0.92926 0.59591 0.0
H689 H 0.93259 0.88249 0.60511 0.0
H690 H 0.85719 0.97656 0.62002 0.0
H691 H 0.90425 0.02355 0.60985 0.0
C692 C 0.79491 0.87609 0.62396 0.0
C693 C 0.80807 0.84114 0.63065 0.0
C694 C 0.82164 0.90335 0.61819 0.0
C695 C 0.8621 0.89648 0.61924 0.0
C696 C 0.87502 0.86135 0.62593 0.0
C697 C 0.84837 0.83391 0.6314 0.0
C698 C 0.95354 0.94003 0.60126 0.0
C699 C 0.946 0.98013 0.60222 0.0
C700 C 0.92621 0.91312 0.60661 0.0
C701 C 0.89091 0.92555 0.6134 0.0
C702 C 0.88368 0.9658 0.61461 0.0
C703 C 0.91082 0.9928 0.60895 0.0
H704 H 0.75307 0.31215 0.1282 0.0
H705 H 0.81498 0.41511 0.14342 0.0
H706 H 0.7096 0.35259 0.11249 0.0
H707 H 0.77119 0.45536 0.12784 0.0
H708 H 0.71404 0.50847 0.08431 0.0
H709 H 0.7572 0.46713 0.0997 0.0
H710 H 0.65775 0.40237 0.1166 0.0
H711 H 0.6144 0.44338 0.10108 0.0
C712 C 0.7574 0.34336 0.12823 0.0
C713 C 0.78757 0.36038 0.13706 0.0
C714 C 0.73234 0.3665 0.1193 0.0
C715 C 0.73708 0.40707 0.11894 0.0
C716 C 0.76717 0.4241 0.12776 0.0
C717 C 0.79209 0.40102 0.13675 0.0
C718 C 0.7013 0.48538 0.09126 0.0
C719 C 0.66072 0.47929 0.09147 0.0
C720 C 0.72605 0.46186 0.10015 0.0
C721 C 0.71079 0.43164 0.10937 0.0
C722 C 0.67031 0.42525 0.10948 0.0
C723 C 0.6455 0.4489 0.10065 0.0
H724 H 0.81067 0.31631 0.36023 0.0
H725 H 0.81052 0.4074 0.3253 0.0
H726 H 0.85297 0.35606 0.37696 0.0
H727 H 0.85363 0.4465 0.3419 0.0
H728 H 0.96865 0.47479 0.37074 0.0
H729 H 0.9283 0.43297 0.35405 0.0
H730 H 0.83953 0.42973 0.38991 0.0
H731 H 0.87922 0.47236 0.40649 0.0
C732 C 0.81994 0.34463 0.35609 0.0
C733 C 0.80728 0.35889 0.34151 0.0
C734 C 0.84394 0.36729 0.36566 0.0
C735 C 0.85637 0.40408 0.36062 0.0
C736 C 0.84441 0.41807 0.34594 0.0
C737 C 0.81969 0.39583 0.33652 0.0
C738 C 0.94059 0.46503 0.37507 0.0
C739 C 0.92694 0.47685 0.38986 0.0
C740 C 0.91758 0.44131 0.36552 0.0
C741 C 0.88107 0.42833 0.3708 0.0
C742 C 0.86775 0.43938 0.38569 0.0
C743 C 0.89032 0.46383 0.3951 0.0
H744 H 0.96713 0.55123 0.5904 0.0
H745 H 0.89237 0.45446 0.60192 0.0
H746 H 0.92485 0.59482 0.60519 0.0
H747 H 0.85174 0.49693 0.61783 0.0
H748 H 0.76344 0.58563 0.63304 0.0
H749 H 0.80518 0.54398 0.61723 0.0
H750 H 0.90468 0.61575 0.62925 0.0
H751 H 0.86182 0.65902 0.64393 0.0
C752 C 0.94189 0.5393 0.59635 0.0
C753 C 0.93273 0.4997 0.595 0.0
C754 C 0.91774 0.56416 0.60495 0.0
C755 C 0.88456 0.54966 0.61278 0.0
C756 C 0.87622 0.50962 0.61166 0.0
C757 C 0.89969 0.48508 0.60266 0.0
C758 C 0.79425 0.59241 0.63219 0.0
C759 C 0.80954 0.62539 0.63963 0.0
C760 C 0.81838 0.56836 0.62325 0.0
C761 C 0.85865 0.57606 0.62198 0.0
C762 C 0.87382 0.60912 0.62961 0.0
C763 C 0.84938 0.63384 0.63815 0.0
H764 H 0.74642 0.67444 0.85309 0.0
H765 H 0.81107 0.57313 0.83778 0.0
H766 H 0.70376 0.63278 0.86863 0.0
H767 H 0.76812 0.53169 0.85319 0.0
H768 H 0.71155 0.47635 0.89633 0.0
H769 H 0.75391 0.51897 0.88119 0.0
H770 H 0.65319 0.58195 0.86432 0.0
H771 H 0.61061 0.53964 0.87961 0.0
C772 C 0.75154 0.64334 0.85301 0.0
C773 C 0.78222 0.62715 0.8442 0.0
C774 C 0.72695 0.6195 0.86185 0.0
C775 C 0.73267 0.57903 0.86212 0.0
C776 C 0.76332 0.56284 0.85334 0.0
C777 C 0.78778 0.58661 0.84444 0.0
C778 C 0.69835 0.4993 0.88943 0.0
C779 C 0.65764 0.50451 0.88917 0.0
C780 C 0.72265 0.52357 0.88069 0.0
C781 C 0.70682 0.55369 0.87155 0.0
C782 C 0.6662 0.55918 0.87138 0.0
C783 C 0.64183 0.53478 0.88007 0.0
H784 H 0.47817 0.55261 0.88343 0.0
H785 H 0.39525 0.46074 0.87438 0.0
H786 H 0.43138 0.60044 0.87448 0.0
H787 H 0.34878 0.5086 0.86438 0.0
H788 H 0.25964 0.60699 0.8621 0.0
H789 H 0.30591 0.55847 0.87175 0.0
H790 H 0.40124 0.62644 0.85289 0.0
H791 H 0.35543 0.67554 0.84425 0.0
C792 C 0.45017 0.54253 0.87916 0.0
C793 C 0.44044 0.50287 0.87956 0.0
C794 C 0.42323 0.57004 0.87395 0.0
C795 C 0.3861 0.5586 0.86863 0.0
C796 C 0.37674 0.51869 0.86866 0.0
C797 C 0.40352 0.49115 0.87421 0.0
C798 C 0.29056 0.61162 0.86023 0.0
C799 C 0.30391 0.64521 0.85257 0.0
C800 C 0.31711 0.58363 0.86559 0.0
C801 C 0.35751 0.58833 0.86312 0.0
C802 C 0.37058 0.62203 0.85538 0.0
C803 C 0.34421 0.65027 0.85035 0.0
H804 H 0.13059 0.49316 0.61674 0.0
H805 H 0.15542 0.56297 0.57584 0.0
H806 H 0.17414 0.53393 0.63228 0.0
H807 H 0.19725 0.60481 0.59142 0.0
H808 H 0.2959 0.6554 0.61999 0.0
H809 H 0.25714 0.6099 0.60452 0.0
H810 H 0.17766 0.59599 0.64354 0.0
H811 H 0.21743 0.63977 0.65913 0.0
C812 C 0.14519 0.51736 0.61111 0.0
C813 C 0.13961 0.52486 0.59509 0.0
C814 C 0.16999 0.54091 0.62002 0.0
C815 C 0.18924 0.57286 0.61315 0.0
C816 C 0.18362 0.58012 0.59708 0.0
C817 C 0.15934 0.55625 0.58815 0.0
C818 C 0.27021 0.64244 0.62524 0.0
C819 C 0.25972 0.6511 0.64076 0.0
C820 C 0.24783 0.6165 0.61636 0.0
C821 C 0.21413 0.59918 0.62275 0.0
C822 C 0.20378 0.60803 0.6383 0.0
C823 C 0.22646 0.63343 0.64722 0.0
H824 H 0.18384 0.46865 0.4059 0.0
H825 H 0.106 0.47529 0.36609 0.0
H826 H 0.22805 0.42751 0.39086 0.0
H827 H 0.15012 0.43366 0.35112 0.0
H828 H 0.2556 0.38651 0.32454 0.0
H829 H 0.21587 0.43258 0.33931 0.0
H830 H 0.22678 0.3605 0.38057 0.0
H831 H 0.26695 0.31458 0.36587 0.0
C832 C 0.17624 0.46152 0.39391 0.0
C833 C 0.14131 0.4751 0.38721 0.0
C834 C 0.20148 0.43775 0.38534 0.0
C835 C 0.19243 0.42715 0.36986 0.0
C836 C 0.15804 0.44161 0.36299 0.0
C837 C 0.1327 0.46531 0.37159 0.0
C838 C 0.24973 0.38056 0.33679 0.0
C839 C 0.26434 0.34682 0.34403 0.0
C840 C 0.22679 0.40688 0.34521 0.0
C841 C 0.21812 0.4001 0.36107 0.0
C842 C 0.23332 0.36673 0.3684 0.0
C843 C 0.25616 0.34032 0.35996 0.0
H844 H 0.48116 0.42991 0.09873 0.0
H845 H 0.40027 0.52333 0.10848 0.0
H846 H 0.43452 0.38309 0.1086 0.0
H847 H 0.35399 0.47644 0.11929 0.0
H848 H 0.26391 0.37879 0.1223 0.0
H849 H 0.31016 0.42662 0.11217 0.0
H850 H 0.40566 0.35877 0.13102 0.0
H851 H 0.3598 0.31036 0.14024 0.0
C852 C 0.45366 0.44055 0.10332 0.0
C853 C 0.44442 0.48035 0.10286 0.0
C854 C 0.42685 0.41363 0.10906 0.0
C855 C 0.39033 0.42582 0.1148 0.0
C856 C 0.38149 0.46584 0.1147 0.0
C857 C 0.40815 0.4928 0.10867 0.0
C858 C 0.29484 0.37405 0.12409 0.0
C859 C 0.30823 0.34068 0.13192 0.0
C860 C 0.32138 0.40164 0.11845 0.0
C861 C 0.36179 0.3967 0.12076 0.0
C862 C 0.37493 0.36329 0.12868 0.0
C863 C 0.34854 0.33548 0.13404 0.0
loop_
_geom_bond_atom_site_label_1
_geom_bond_atom_site_label_2
_geom_bond_distance
_geom_bond_site_symmetry_2
_ccdc_geom_bond_type
Mg0 O1 2.028 . S
Mg0 O7 1.986 . S
Mg0 O9 2.120 . S
Mg0 O10 2.251 . S
Mg0 O13 2.010 . S
O1 Mg0 2.028 . S
O1 C4 1.250 . S
O2 Mg3 2.028 . S
O2 C4 1.248 . S
Mg3 O2 2.028 . S
Mg3 O8 2.032 . S
Mg3 O10 2.079 . S
C4 O1 1.250 . S
C4 O2 1.248 . S
C5 O6 1.264 . S
C5 O13 1.249 1_665 S
O6 C5 1.264 . S
O7 Mg0 1.986 . S
O7 C11 1.246 . S
O8 Mg3 2.032 . S
O8 C11 1.259 . S
O9 Mg0 2.120 . S
O9 C12 1.258 . S
O10 Mg0 2.251 . S
O10 Mg3 2.079 . S
O10 C12 1.273 . S
C11 O7 1.246 . S
C11 O8 1.259 . S
C12 O9 1.258 . S
C12 O10 1.273 . S
O13 Mg0 2.010 . S
O13 C5 1.249 1_445 S
Mg14 O15 2.028 . S
Mg14 O21 1.986 . S
Mg14 O23 2.114 . S
Mg14 O24 2.251 . S
Mg14 O27 2.010 . S
O15 Mg14 2.028 . S
O15 C18 1.250 . S
O16 Mg17 2.028 . S
O16 C18 1.248 . S
Mg17 O16 2.028 . S
Mg17 O22 2.032 . S
Mg17 O24 2.079 . S
C18 O15 1.250 . S
C18 O16 1.248 . S
C19 O20 1.264 . S
C19 O27 1.249 . S
O20 C19 1.264 . S
O21 Mg14 1.986 . S
O21 C25 1.246 . S
O22 Mg17 2.032 . S
O22 C25 1.259 . S
O23 Mg14 2.114 . S
O23 C26 1.252 . S
O24 Mg14 2.251 . S
O24 Mg17 2.079 . S
O24 C26 1.273 . S
C25 O21 1.246 . S
C25 O22 1.259 . S
C26 O23 1.252 . S
C26 O24 1.273 . S
O27 Mg14 2.010 . S
O27 C19 1.249 . S
Mg28 O29 2.028 . S
Mg28 O35 1.986 . S
Mg28 O37 2.120 . S
Mg28 O38 2.251 . S
Mg28 O41 2.010 . S
O29 Mg28 2.028 . S
O29 C32 1.250 . S
O30 Mg31 2.028 . S
O30 C32 1.248 . S
Mg31 O30 2.028 . S
Mg31 O36 2.032 . S
Mg31 O38 2.079 . S
C32 O29 1.250 . S
C32 O30 1.248 . S
C33 O34 1.264 . S
C33 O41 1.249 1_545 S
O34 C33 1.264 . S
O35 Mg28 1.986 . S
O35 C39 1.246 . S
O36 Mg31 2.032 . S
O36 C39 1.259 . S
O37 Mg28 2.120 . S
O37 C40 1.258 . S
O38 Mg28 2.251 . S
O38 Mg31 2.079 . S
O38 C40 1.273 . S
C39 O35 1.246 . S
C39 O36 1.259 . S
C40 O37 1.258 . S
C40 O38 1.273 . S
O41 Mg28 2.010 . S
O41 C33 1.249 1_565 S
Mg42 O43 2.028 . S
Mg42 O49 1.986 . S
Mg42 O51 2.114 . S
Mg42 O52 2.251 . S
Mg42 O55 2.010 . S
O43 Mg42 2.028 . S
O43 C46 1.250 . S
O44 Mg45 2.028 . S
O44 C46 1.248 . S
Mg45 O44 2.028 . S
Mg45 O50 2.032 . S
Mg45 O52 2.079 . S
C46 O43 1.250 . S
C46 O44 1.248 . S
C47 O48 1.264 . S
C47 O55 1.249 . S
O48 C47 1.264 . S
O49 Mg42 1.986 . S
O49 C53 1.246 . S
O50 Mg45 2.032 . S
O50 C53 1.259 . S
O51 Mg42 2.114 . S
O51 C54 1.252 . S
O52 Mg42 2.251 . S
O52 Mg45 2.079 . S
O52 C54 1.273 . S
C53 O49 1.246 . S
C53 O50 1.259 . S
C54 O51 1.252 . S
C54 O52 1.273 . S
O55 Mg42 2.010 . S
O55 C47 1.249 . S
Mg56 O57 2.028 . S
Mg56 O63 1.986 . S
Mg56 O65 2.120 . S
Mg56 O66 2.251 . S
Mg56 O69 2.010 . S
O57 Mg56 2.028 . S
O57 C60 1.250 . S
O58 Mg59 2.028 . S
O58 C60 1.248 . S
Mg59 O58 2.028 . S
Mg59 O64 2.032 . S
Mg59 O66 2.079 . S
C60 O57 1.250 . S
C60 O58 1.248 . S
C61 O62 1.264 . S
C61 O69 1.249 1_645 S
O62 C61 1.264 . S
O63 Mg56 1.986 . S
O63 C67 1.246 . S
O64 Mg59 2.032 . S
O64 C67 1.259 . S
O65 Mg56 2.120 . S
O65 C68 1.258 . S
O66 Mg56 2.251 . S
O66 Mg59 2.079 . S
O66 C68 1.273 . S
C67 O63 1.246 . S
C67 O64 1.259 . S
C68 O65 1.258 . S
C68 O66 1.273 . S
O69 Mg56 2.010 . S
O69 C61 1.249 1_465 S
Mg70 O71 2.028 . S
Mg70 O77 1.986 . S
Mg70 O79 2.114 . S
Mg70 O80 2.251 . S
Mg70 O83 2.010 . S
O71 Mg70 2.028 . S
O71 C74 1.250 . S
O72 Mg73 2.028 . S
O72 C74 1.248 . S
Mg73 O72 2.028 . S
Mg73 O78 2.032 . S
Mg73 O80 2.079 . S
C74 O71 1.250 . S
C74 O72 1.248 . S
C75 O76 1.264 . S
C75 O83 1.249 . S
O76 C75 1.264 . S
O77 Mg70 1.986 . S
O77 C81 1.246 . S
O78 Mg73 2.032 . S
O78 C81 1.259 . S
O79 Mg70 2.114 . S
O79 C82 1.252 . S
O80 Mg70 2.251 . S
O80 Mg73 2.079 . S
O80 C82 1.273 . S
C81 O77 1.246 . S
C81 O78 1.259 . S
C82 O79 1.252 . S
C82 O80 1.273 . S
O83 Mg70 2.010 . S
O83 C75 1.249 . S
Mg84 O85 2.028 . S
Mg84 O91 1.986 . S
Mg84 O93 2.120 . S
Mg84 O94 2.251 . S
Mg84 O97 2.010 . S
O85 Mg84 2.028 . S
O85 C88 1.250 . S
O86 Mg87 2.028 . S
O86 C88 1.248 . S
Mg87 O86 2.028 . S
Mg87 O92 2.032 . S
Mg87 O94 2.079 . S
C88 O85 1.250 . S
C88 O86 1.248 . S
C89 O90 1.264 . S
C89 O97 1.249 1_565 S
O90 C89 1.264 . S
O91 Mg84 1.986 . S
O91 C95 1.246 . S
O92 Mg87 2.032 . S
O92 C95 1.259 . S
O93 Mg84 2.120 . S
O93 C96 1.258 . S
O94 Mg84 2.251 . S
O94 Mg87 2.079 . S
O94 C96 1.273 . S
C95 O91 1.246 . S
C95 O92 1.259 . S
C96 O93 1.258 . S
C96 O94 1.273 . S
O97 Mg84 2.010 . S
O97 C89 1.249 1_545 S
Mg98 O99 2.028 . S
Mg98 O105 1.986 . S
Mg98 O107 2.114 . S
Mg98 O108 2.251 . S
Mg98 O111 2.010 . S
O99 Mg98 2.028 . S
O99 C102 1.250 . S
O100 Mg101 2.028 . S
O100 C102 1.248 . S
Mg101 O100 2.028 . S
Mg101 O106 2.032 . S
Mg101 O108 2.079 . S
C102 O99 1.250 . S
C102 O100 1.248 . S
C103 O104 1.264 . S
C103 O111 1.249 . S
O104 C103 1.264 . S
O105 Mg98 1.986 . S
O105 C109 1.246 . S
O106 Mg101 2.032 . S
O106 C109 1.259 . S
O107 Mg98 2.114 . S
O107 C110 1.252 . S
O108 Mg98 2.251 . S
O108 Mg101 2.079 . S
O108 C110 1.273 . S
C109 O105 1.246 . S
C109 O106 1.259 . S
C110 O107 1.252 . S
C110 O108 1.273 . S
O111 Mg98 2.010 . S
O111 C103 1.249 . S
Mg112 O113 2.028 . S
Mg112 O119 1.986 . S
Mg112 O121 2.114 . S
Mg112 O122 2.251 . S
Mg112 O125 2.010 . S
O113 Mg112 2.028 . S
O113 C116 1.250 . S
O114 Mg115 2.028 . S
O114 C116 1.248 . S
Mg115 O114 2.028 . S
Mg115 O120 2.032 . S
Mg115 O122 2.079 . S
C116 O113 1.250 . S
C116 O114 1.248 . S
C117 O118 1.264 . S
C117 O125 1.249 . S
O118 C117 1.264 . S
O119 Mg112 1.986 . S
O119 C123 1.246 . S
O120 Mg115 2.032 . S
O120 C123 1.259 . S
O121 Mg112 2.114 . S
O121 C124 1.252 . S
O122 Mg112 2.251 . S
O122 Mg115 2.079 . S
O122 C124 1.273 . S
C123 O119 1.246 . S
C123 O120 1.259 . S
C124 O121 1.252 . S
C124 O122 1.273 . S
O125 Mg112 2.010 . S
O125 C117 1.249 . S
Mg126 O127 2.028 . S
Mg126 O133 1.986 . S
Mg126 O135 2.114 . S
Mg126 O136 2.251 . S
Mg126 O139 2.010 . S
O127 Mg126 2.028 . S
O127 C130 1.250 . S
O128 Mg129 2.028 . S
O128 C130 1.248 . S
Mg129 O128 2.028 . S
Mg129 O134 2.032 . S
Mg129 O136 2.079 . S
C130 O127 1.250 . S
C130 O128 1.248 . S
C131 O132 1.264 . S
C131 O139 1.249 . S
O132 C131 1.264 . S
O133 Mg126 1.986 . S
O133 C137 1.246 . S
O134 Mg129 2.032 . S
O134 C137 1.259 . S
O135 Mg126 2.114 . S
O135 C138 1.252 . S
O136 Mg126 2.251 . S
O136 Mg129 2.079 . S
O136 C138 1.273 . S
C137 O133 1.246 . S
C137 O134 1.259 . S
C138 O135 1.252 . S
C138 O136 1.273 . S
O139 Mg126 2.010 . S
O139 C131 1.249 . S
Mg140 O141 2.028 . S
Mg140 O147 1.986 . S
Mg140 O149 2.114 . S
Mg140 O150 2.251 . S
Mg140 O153 2.010 . S
O141 Mg140 2.028 . S
O141 C144 1.250 . S
O142 Mg143 2.028 . S
O142 C144 1.248 . S
Mg143 O142 2.028 . S
Mg143 O148 2.032 . S
Mg143 O150 2.079 . S
C144 O141 1.250 . S
C144 O142 1.248 . S
C145 O146 1.264 . S
C145 O153 1.249 . S
O146 C145 1.264 . S
O147 Mg140 1.986 . S
O147 C151 1.246 . S
O148 Mg143 2.032 . S
O148 C151 1.259 . S
O149 Mg140 2.114 . S
O149 C152 1.252 . S
O150 Mg140 2.251 . S
O150 Mg143 2.079 . S
O150 C152 1.273 . S
C151 O147 1.246 . S
C151 O148 1.259 . S
C152 O149 1.252 . S
C152 O150 1.273 . S
O153 Mg140 2.010 . S
O153 C145 1.249 . S
Mg154 O155 2.028 . S
Mg154 O161 1.986 . S
Mg154 O163 2.114 . S
Mg154 O164 2.251 . S
Mg154 O167 2.010 . S
O155 Mg154 2.028 . S
O155 C158 1.250 . S
O156 Mg157 2.028 . S
O156 C158 1.248 . S
Mg157 O156 2.028 . S
Mg157 O162 2.032 . S
Mg157 O164 2.079 . S
C158 O155 1.250 . S
C158 O156 1.248 . S
C159 O160 1.264 . S
C159 O167 1.249 . S
O160 C159 1.264 . S
O161 Mg154 1.986 . S
O161 C165 1.246 . S
O162 Mg157 2.032 . S
O162 C165 1.259 . S
O163 Mg154 2.114 . S
O163 C166 1.252 . S
O164 Mg154 2.251 . S
O164 Mg157 2.079 . S
O164 C166 1.273 . S
C165 O161 1.246 . S
C165 O162 1.259 . S
C166 O163 1.252 . S
C166 O164 1.273 . S
O167 Mg154 2.010 . S
O167 C159 1.249 . S
Mg168 O169 2.028 . S
Mg168 O175 1.986 . S
Mg168 O177 2.114 . S
Mg168 O178 2.251 . S
Mg168 O181 2.010 . S
O169 Mg168 2.028 . S
O169 C172 1.250 . S
O170 Mg171 2.028 . S
O170 C172 1.248 . S
Mg171 O170 2.028 . S
Mg171 O176 2.032 . S
Mg171 O178 2.079 . S
C172 O169 1.250 . S
C172 O170 1.248 . S
C173 O174 1.264 . S
C173 O181 1.249 . S
O174 C173 1.264 . S
O175 Mg168 1.986 . S
O175 C179 1.246 . S
O176 Mg171 2.032 . S
O176 C179 1.259 . S
O177 Mg168 2.114 . S
O177 C180 1.252 . S
O178 Mg168 2.251 . S
O178 Mg171 2.079 . S
O178 C180 1.273 . S
C179 O175 1.246 . S
C179 O176 1.259 . S
C180 O177 1.252 . S
C180 O178 1.273 . S
O181 Mg168 2.010 . S
O181 C173 1.249 . S
Mg182 O183 2.028 . S
Mg182 O189 1.986 . S
Mg182 O191 2.114 . S
Mg182 O192 2.251 . S
Mg182 O195 2.010 . S
O183 Mg182 2.028 . S
O183 C186 1.250 1_455 S
O184 Mg185 2.028 . S
O184 C186 1.248 . S
Mg185 O184 2.028 . S
Mg185 O190 2.032 . S
Mg185 O192 2.079 1_655 S
C186 O183 1.250 1_655 S
C186 O184 1.248 . S
C187 O188 1.264 . S
C187 O195 1.249 . S
O188 C187 1.264 . S
O189 Mg182 1.986 . S
O189 C193 1.246 . S
O190 Mg185 2.032 . S
O190 C193 1.259 1_655 S
O191 Mg182 2.114 . S
O191 C194 1.252 . S
O192 Mg182 2.251 . S
O192 Mg185 2.079 1_455 S
O192 C194 1.273 . S
C193 O189 1.246 . S
C193 O190 1.259 1_455 S
C194 O191 1.252 . S
C194 O192 1.273 . S
O195 Mg182 2.010 . S
O195 C187 1.249 . S
Mg196 O197 2.028 . S
Mg196 O203 1.986 . S
Mg196 O205 2.114 . S
Mg196 O206 2.251 . S
Mg196 O209 2.010 . S
O197 Mg196 2.028 . S
O197 C200 1.250 . S
O198 Mg199 2.028 . S
O198 C200 1.248 . S
Mg199 O198 2.028 . S
Mg199 O204 2.032 . S
Mg199 O206 2.079 . S
C200 O197 1.250 . S
C200 O198 1.248 . S
C201 O202 1.264 . S
C201 O209 1.249 . S
O202 C201 1.264 . S
O203 Mg196 1.986 . S
O203 C207 1.246 . S
O204 Mg199 2.032 . S
O204 C207 1.259 . S
O205 Mg196 2.114 . S
O205 C208 1.252 . S
O206 Mg196 2.251 . S
O206 Mg199 2.079 . S
O206 C208 1.273 . S
C207 O203 1.246 . S
C207 O204 1.259 . S
C208 O205 1.252 . S
C208 O206 1.273 . S
O209 Mg196 2.010 . S
O209 C201 1.249 . S
Mg210 O211 2.028 . S
Mg210 O217 1.986 . S
Mg210 O219 2.114 . S
Mg210 O220 2.251 . S
Mg210 O223 2.010 . S
O211 Mg210 2.028 . S
O211 C214 1.250 1_455 S
O212 Mg213 2.028 . S
O212 C214 1.248 . S
Mg213 O212 2.028 . S
Mg213 O218 2.032 . S
Mg213 O220 2.079 1_655 S
C214 O211 1.250 1_655 S
C214 O212 1.248 . S
C215 O216 1.264 . S
C215 O223 1.249 . S
O216 C215 1.264 . S
O217 Mg210 1.986 . S
O217 C221 1.246 . S
O218 Mg213 2.032 . S
O218 C221 1.259 1_655 S
O219 Mg210 2.114 . S
O219 C222 1.252 . S
O220 Mg210 2.251 . S
O220 Mg213 2.079 1_455 S
O220 C222 1.273 . S
C221 O217 1.246 . S
C221 O218 1.259 1_455 S
C222 O219 1.252 . S
C222 O220 1.273 . S
O223 Mg210 2.010 . S
O223 C215 1.249 . S
H224 C232 0.950 . S
H225 C237 0.950 . S
H226 C234 0.950 1_655 S
H227 C236 0.950 . S
H228 C238 0.950 . S
H229 C240 0.950 . S
H230 C242 0.950 1_655 S
H231 C243 0.950 . S
C232 H224 0.950 . S
C232 C233 1.386 . S
C232 C234 1.391 . S
C233 C232 1.386 . S
C233 C237 1.393 . S
C234 H226 0.950 1_455 S
C234 C232 1.391 . S
C234 C235 1.400 . S
C235 C234 1.400 . S
C235 C236 1.398 . S
C235 C241 1.491 . S
C236 H227 0.950 . S
C236 C235 1.398 . S
C236 C237 1.391 . S
C237 H225 0.950 . S
C237 C233 1.393 . S
C237 C236 1.391 . S
C238 H228 0.950 . S
C238 C239 1.386 . S
C238 C240 1.391 . S
C239 C238 1.386 . S
C239 C243 1.393 1_455 S
C240 H229 0.950 . S
C240 C238 1.391 . S
C240 C241 1.400 . S
C241 C235 1.491 . S
C241 C240 1.400 . S
C241 C242 1.398 . S
C242 H230 0.950 1_455 S
C242 C241 1.398 . S
C242 C243 1.391 1_455 S
C243 H231 0.950 . S
C243 C239 1.393 1_655 S
C243 C242 1.391 1_655 S
H244 C252 0.950 . S
H245 C257 0.950 . S
H246 C254 0.950 . S
H247 C256 0.950 . S
H248 C258 0.950 . S
H249 C260 0.950 . S
H250 C262 0.950 . S
H251 C263 0.950 . S
C252 H244 0.950 . S
C252 C253 1.386 . S
C252 C254 1.391 1_655 S
C253 C252 1.386 . S
C253 C257 1.393 . S
C254 H246 0.950 . S
C254 C252 1.391 1_455 S
C254 C255 1.400 . S
C255 C254 1.400 . S
C255 C256 1.398 . S
C255 C261 1.491 . S
C256 H247 0.950 . S
C256 C255 1.398 . S
C256 C257 1.391 1_455 S
C257 H245 0.950 . S
C257 C253 1.393 . S
C257 C256 1.391 1_655 S
C258 H248 0.950 . S
C258 C259 1.386 . S
C258 C260 1.391 . S
C259 C258 1.386 . S
C259 C263 1.393 . S
C260 H249 0.950 . S
C260 C258 1.391 . S
C260 C261 1.400 . S
C261 C255 1.491 . S
C261 C260 1.400 . S
C261 C262 1.398 . S
C262 H250 0.950 . S
C262 C261 1.398 . S
C262 C263 1.391 . S
C263 H251 0.950 . S
C263 C259 1.393 . S
C263 C262 1.391 . S
H264 C272 0.950 . S
H265 C277 0.950 . S
H266 C274 0.950 . S
H267 C276 0.950 . S
H268 C278 0.950 . S
H269 C280 0.950 . S
H270 C282 0.950 . S
H271 C283 0.950 . S
C272 H264 0.950 . S
C272 C273 1.386 . S
C272 C274 1.391 . S
C273 C272 1.386 . S
C273 C277 1.393 . S
C274 H266 0.950 . S
C274 C272 1.391 . S
C274 C275 1.400 . S
C275 C274 1.400 . S
C275 C276 1.398 . S
C275 C281 1.491 . S
C276 H267 0.950 . S
C276 C275 1.398 . S
C276 C277 1.391 . S
C277 H265 0.950 . S
C277 C273 1.393 . S
C277 C276 1.391 . S
C278 H268 0.950 . S
C278 C279 1.386 . S
C278 C280 1.391 . S
C279 C278 1.386 . S
C279 C283 1.393 . S
C280 H269 0.950 . S
C280 C278 1.391 . S
C280 C281 1.400 . S
C281 C275 1.491 . S
C281 C280 1.400 . S
C281 C282 1.398 . S
C282 H270 0.950 . S
C282 C281 1.398 . S
C282 C283 1.391 . S
C283 H271 0.950 . S
C283 C279 1.393 . S
C283 C282 1.391 . S
H284 C292 0.950 . S
H285 C297 0.950 . S
H286 C294 0.950 . S
H287 C296 0.950 . S
H288 C298 0.950 . S
H289 C300 0.950 . S
H290 C302 0.950 . S
H291 C303 0.950 . S
C292 H284 0.950 . S
C292 C293 1.386 . S
C292 C294 1.391 . S
C293 C292 1.386 . S
C293 C297 1.393 . S
C294 H286 0.950 . S
C294 C292 1.391 . S
C294 C295 1.400 . S
C295 C294 1.400 . S
C295 C296 1.398 . S
C295 C301 1.491 . S
C296 H287 0.950 . S
C296 C295 1.398 . S
C296 C297 1.391 . S
C297 H285 0.950 . S
C297 C293 1.393 . S
C297 C296 1.391 . S
C298 H288 0.950 . S
C298 C299 1.386 . S
C298 C300 1.391 . S
C299 C298 1.386 . S
C299 C303 1.393 . S
C300 H289 0.950 . S
C300 C298 1.391 . S
C300 C301 1.400 . S
C301 C295 1.491 . S
C301 C300 1.400 . S
C301 C302 1.398 . S
C302 H290 0.950 . S
C302 C301 1.398 . S
C302 C303 1.391 . S
C303 H291 0.950 . S
C303 C299 1.393 . S
C303 C302 1.391 . S
H304 C312 0.950 . S
H305 C317 0.950 . S
H306 C314 0.950 . S
H307 C316 0.950 . S
H308 C318 0.950 . S
H309 C320 0.950 . S
H310 C322 0.950 . S
H311 C323 0.950 . S
C312 H304 0.950 . S
C312 C313 1.386 . S
C312 C314 1.391 . S
C313 C312 1.386 . S
C313 C317 1.393 . S
C314 H306 0.950 . S
C314 C312 1.391 . S
C314 C315 1.400 . S
C315 C314 1.400 . S
C315 C316 1.398 . S
C315 C321 1.491 . S
C316 H307 0.950 . S
C316 C315 1.398 . S
C316 C317 1.391 . S
C317 H305 0.950 . S
C317 C313 1.393 . S
C317 C316 1.391 . S
C318 H308 0.950 . S
C318 C319 1.386 . S
C318 C320 1.391 . S
C319 C318 1.386 . S
C319 C323 1.393 . S
C320 H309 0.950 . S
C320 C318 1.391 . S
C320 C321 1.400 . S
C321 C315 1.491 . S
C321 C320 1.400 . S
C321 C322 1.398 . S
C322 H310 0.950 . S
C322 C321 1.398 . S
C322 C323 1.391 . S
C323 H311 0.950 . S
C323 C319 1.393 . S
C323 C322 1.391 . S
H324 C332 0.950 . S
H325 C337 0.950 . S
H326 C334 0.950 . S
H327 C336 0.950 . S
H328 C338 0.950 . S
H329 C340 0.950 . S
H330 C342 0.950 . S
H331 C343 0.950 . S
C332 H324 0.950 . S
C332 C333 1.386 . S
C332 C334 1.391 . S
C333 C332 1.386 . S
C333 C337 1.393 . S
C334 H326 0.950 . S
C334 C332 1.391 . S
C334 C335 1.400 . S
C335 C334 1.400 . S
C335 C336 1.398 . S
C335 C341 1.491 . S
C336 H327 0.950 . S
C336 C335 1.398 . S
C336 C337 1.391 . S
C337 H325 0.950 . S
C337 C333 1.393 . S
C337 C336 1.391 . S
C338 H328 0.950 . S
C338 C339 1.386 . S
C338 C340 1.391 . S
C339 C338 1.386 . S
C339 C343 1.393 . S
C340 H329 0.950 . S
C340 C338 1.391 . S
C340 C341 1.400 . S
C341 C335 1.491 . S
C341 C340 1.400 . S
C341 C342 1.398 . S
C342 H330 0.950 . S
C342 C341 1.398 . S
C342 C343 1.391 . S
C343 H331 0.950 . S
C343 C339 1.393 . S
C343 C342 1.391 . S
H344 C352 0.950 . S
H345 C357 0.950 . S
H346 C354 0.950 . S
H347 C356 0.950 . S
H348 C358 0.950 . S
H349 C360 0.950 . S
H350 C362 0.950 . S
H351 C363 0.950 . S
C352 H344 0.950 . S
C352 C353 1.386 . S
C352 C354 1.391 . S
C353 C352 1.386 . S
C353 C357 1.393 . S
C354 H346 0.950 . S
C354 C352 1.391 . S
C354 C355 1.400 . S
C355 C354 1.400 . S
C355 C356 1.398 . S
C355 C361 1.491 . S
C356 H347 0.950 . S
C356 C355 1.398 . S
C356 C357 1.391 . S
C357 H345 0.950 . S
C357 C353 1.393 . S
C357 C356 1.391 . S
C358 H348 0.950 . S
C358 C359 1.386 . S
C358 C360 1.391 . S
C359 C358 1.386 . S
C359 C363 1.393 . S
C360 H349 0.950 . S
C360 C358 1.391 . S
C360 C361 1.400 . S
C361 C355 1.491 . S
C361 C360 1.400 . S
C361 C362 1.398 . S
C362 H350 0.950 . S
C362 C361 1.398 . S
C362 C363 1.391 . S
C363 H351 0.950 . S
C363 C359 1.393 . S
C363 C362 1.391 . S
H364 C372 0.950 . S
H365 C377 0.950 . S
H366 C374 0.950 . S
H367 C376 0.950 . S
H368 C378 0.950 . S
H369 C380 0.950 . S
H370 C382 0.942 1_455 S
H371 C383 0.950 . S
C372 H364 0.950 . S
C372 C373 1.386 . S
C372 C374 1.391 . S
C373 C372 1.386 . S
C373 C377 1.393 . S
C374 H366 0.950 . S
C374 C372 1.391 . S
C374 C375 1.400 . S
C375 C374 1.400 . S
C375 C376 1.398 . S
C375 C381 1.491 . S
C376 H367 0.950 . S
C376 C375 1.398 . S
C376 C377 1.391 . S
C377 H365 0.950 . S
C377 C373 1.393 . S
C377 C376 1.391 . S
C378 H368 0.950 . S
C378 C379 1.386 . S
C378 C380 1.391 1_655 S
C379 C378 1.386 . S
C379 C383 1.393 . S
C380 H369 0.950 . S
C380 C378 1.391 1_455 S
C380 C381 1.400 . S
C381 C375 1.491 . S
C381 C380 1.400 . S
C381 C382 1.382 1_455 S
C382 H370 0.942 1_655 S
C382 C381 1.382 1_655 S
C382 C383 1.415 . S
C383 H371 0.950 . S
C383 C379 1.393 . S
C383 C382 1.415 . S
H384 C392 0.950 . S
H385 C397 0.950 . S
H386 C394 0.953 . S
H387 C396 0.950 . S
H388 C398 0.950 . S
H389 C400 0.953 . S
H390 C402 0.950 . S
H391 C403 0.950 . S
C392 H384 0.950 . S
C392 C393 1.386 . S
C392 C394 1.389 1_565 S
C393 C392 1.386 . S
C393 C397 1.393 . S
C394 H386 0.953 . S
C394 C392 1.389 1_545 S
C394 C395 1.399 1_545 S
C395 C394 1.399 1_565 S
C395 C396 1.398 . S
C395 C401 1.491 1_565 S
C396 H387 0.950 . S
C396 C395 1.398 . S
C396 C397 1.391 . S
C397 H385 0.950 . S
C397 C393 1.393 . S
C397 C396 1.391 . S
C398 H388 0.950 . S
C398 C399 1.386 . S
C398 C400 1.389 1_545 S
C399 C398 1.386 . S
C399 C403 1.393 . S
C400 H389 0.953 . S
C400 C398 1.389 1_565 S
C400 C401 1.399 1_565 S
C401 C395 1.491 1_545 S
C401 C400 1.399 1_545 S
C401 C402 1.398 . S
C402 H390 0.950 . S
C402 C401 1.398 . S
C402 C403 1.391 . S
C403 H391 0.950 . S
C403 C399 1.393 . S
C403 C402 1.391 . S
H404 C412 0.950 . S
H405 C417 0.950 . S
H406 C414 0.950 . S
H407 C416 0.950 . S
H408 C418 0.950 . S
H409 C420 0.950 . S
H410 C422 0.950 . S
H411 C423 0.950 . S
C412 H404 0.950 . S
C412 C413 1.386 . S
C412 C414 1.391 . S
C413 C412 1.386 . S
C413 C417 1.393 . S
C414 H406 0.950 . S
C414 C412 1.391 . S
C414 C415 1.400 . S
C415 C414 1.400 . S
C415 C416 1.398 . S
C415 C421 1.491 . S
C416 H407 0.950 . S
C416 C415 1.398 . S
C416 C417 1.391 . S
C417 H405 0.950 . S
C417 C413 1.393 . S
C417 C416 1.391 . S
C418 H408 0.950 . S
C418 C419 1.386 . S
C418 C420 1.391 . S
C419 C418 1.386 . S
C419 C423 1.393 . S
C420 H409 0.950 . S
C420 C418 1.391 . S
C420 C421 1.400 . S
C421 C415 1.491 . S
C421 C420 1.400 . S
C421 C422 1.398 . S
C422 H410 0.950 . S
C422 C421 1.398 . S
C422 C423 1.391 . S
C423 H411 0.950 . S
C423 C419 1.393 . S
C423 C422 1.391 . S
H424 C432 0.950 . S
H425 C437 0.950 . S
H426 C434 0.951 . S
H427 C436 0.950 . S
H428 C438 0.950 . S
H429 C440 0.951 . S
H430 C442 0.950 . S
H431 C443 0.950 . S
C432 H424 0.950 . S
C432 C433 1.386 . S
C432 C434 1.390 1_565 S
C433 C432 1.386 . S
C433 C437 1.393 . S
C434 H426 0.951 . S
C434 C432 1.390 1_545 S
C434 C435 1.400 1_545 S
C435 C434 1.400 1_565 S
C435 C436 1.398 . S
C435 C441 1.491 1_564 S
C436 H427 0.950 . S
C436 C435 1.398 . S
C436 C437 1.391 . S
C437 H425 0.950 . S
C437 C433 1.393 . S
C437 C436 1.391 . S
C438 H428 0.950 . S
C438 C439 1.386 . S
C438 C440 1.390 1_545 S
C439 C438 1.386 . S
C439 C443 1.393 . S
C440 H429 0.951 . S
C440 C438 1.390 1_565 S
C440 C441 1.400 1_565 S
C441 C435 1.491 1_546 S
C441 C440 1.400 1_545 S
C441 C442 1.398 . S
C442 H430 0.950 . S
C442 C441 1.398 . S
C442 C443 1.391 . S
C443 H431 0.950 . S
C443 C439 1.393 . S
C443 C442 1.391 . S
H444 C452 0.950 . S
H445 C457 0.950 . S
H446 C454 0.950 . S
H447 C456 0.950 . S
H448 C458 0.950 . S
H449 C460 0.950 . S
H450 C462 0.950 . S
H451 C463 0.950 . S
C452 H444 0.950 . S
C452 C453 1.386 . S
C452 C454 1.391 . S
C453 C452 1.386 . S
C453 C457 1.393 . S
C454 H446 0.950 . S
C454 C452 1.391 . S
C454 C455 1.400 . S
C455 C454 1.400 . S
C455 C456 1.398 . S
C455 C461 1.491 . S
C456 H447 0.950 . S
C456 C455 1.398 . S
C456 C457 1.391 . S
C457 H445 0.950 . S
C457 C453 1.393 . S
C457 C456 1.391 . S
C458 H448 0.950 . S
C458 C459 1.386 . S
C458 C460 1.391 . S
C459 C458 1.386 . S
C459 C463 1.393 . S
C460 H449 0.950 . S
C460 C458 1.391 . S
C460 C461 1.400 . S
C461 C455 1.491 . S
C461 C460 1.400 . S
C461 C462 1.398 . S
C462 H450 0.950 . S
C462 C461 1.398 . S
C462 C463 1.391 . S
C463 H451 0.950 . S
C463 C459 1.393 . S
C463 C462 1.391 . S
H464 C472 0.950 . S
H465 C477 0.950 . S
H466 C474 0.950 . S
H467 C476 0.950 . S
H468 C478 0.950 . S
H469 C480 0.950 . S
H470 C482 0.950 . S
H471 C483 0.950 . S
C472 H464 0.950 . S
C472 C473 1.386 . S
C472 C474 1.391 . S
C473 C472 1.386 . S
C473 C477 1.393 . S
C474 H466 0.950 . S
C474 C472 1.391 . S
C474 C475 1.400 . S
C475 C474 1.400 . S
C475 C476 1.398 . S
C475 C481 1.491 . S
C476 H467 0.950 . S
C476 C475 1.398 . S
C476 C477 1.391 . S
C477 H465 0.950 . S
C477 C473 1.393 . S
C477 C476 1.391 . S
C478 H468 0.950 . S
C478 C479 1.386 . S
C478 C480 1.391 . S
C479 C478 1.386 . S
C479 C483 1.393 . S
C480 H469 0.950 . S
C480 C478 1.391 . S
C480 C481 1.400 . S
C481 C475 1.491 . S
C481 C480 1.400 . S
C481 C482 1.398 . S
C482 H470 0.950 . S
C482 C481 1.398 . S
C482 C483 1.391 . S
C483 H471 0.950 . S
C483 C479 1.393 . S
C483 C482 1.391 . S
H484 C492 0.950 . S
H485 C497 0.950 . S
H486 C494 0.950 . S
H487 C496 0.950 . S
H488 C498 0.950 . S
H489 C500 0.950 . S
H490 C502 0.950 . S
H491 C503 0.950 . S
C492 H484 0.950 . S
C492 C493 1.386 . S
C492 C494 1.391 . S
C493 C492 1.386 . S
C493 C497 1.393 . S
C494 H486 0.950 . S
C494 C492 1.391 . S
C494 C495 1.400 . S
C495 C494 1.400 . S
C495 C496 1.398 . S
C495 C501 1.491 . S
C496 H487 0.950 . S
C496 C495 1.398 . S
C496 C497 1.391 . S
C497 H485 0.950 . S
C497 C493 1.393 . S
C497 C496 1.391 . S
C498 H488 0.950 . S
C498 C499 1.386 . S
C498 C500 1.391 . S
C499 C498 1.386 . S
C499 C503 1.393 . S
C500 H489 0.950 . S
C500 C498 1.391 . S
C500 C501 1.400 . S
C501 C495 1.491 . S
C501 C500 1.400 . S
C501 C502 1.398 . S
C502 H490 0.950 . S
C502 C501 1.398 . S
C502 C503 1.391 . S
C503 H491 0.950 . S
C503 C499 1.393 . S
C503 C502 1.391 . S
H504 C512 0.950 . S
H505 C517 0.950 . S
H506 C514 0.950 . S
H507 C516 0.950 . S
H508 C518 0.950 . S
H509 C520 0.950 . S
H510 C522 0.950 . S
H511 C523 0.950 . S
C512 H504 0.950 . S
C512 C513 1.386 . S
C512 C514 1.391 . S
C513 C512 1.386 . S
C513 C517 1.393 . S
C514 H506 0.950 . S
C514 C512 1.391 . S
C514 C515 1.400 . S
C515 C514 1.400 . S
C515 C516 1.398 . S
C515 C521 1.491 1_556 S
C516 H507 0.950 . S
C516 C515 1.398 . S
C516 C517 1.391 . S
C517 H505 0.950 . S
C517 C513 1.393 . S
C517 C516 1.391 . S
C518 H508 0.950 . S
C518 C519 1.386 . S
C518 C520 1.391 . S
C519 C518 1.386 . S
C519 C523 1.393 . S
C520 H509 0.950 . S
C520 C518 1.391 . S
C520 C521 1.400 . S
C521 C515 1.491 1_554 S
C521 C520 1.400 . S
C521 C522 1.398 . S
C522 H510 0.950 . S
C522 C521 1.398 . S
C522 C523 1.391 . S
C523 H511 0.950 . S
C523 C519 1.393 . S
C523 C522 1.391 . S
H524 C532 0.950 . S
H525 C537 0.950 . S
H526 C534 0.950 . S
H527 C536 0.950 . S
H528 C538 0.950 . S
H529 C540 0.950 . S
H530 C542 0.950 . S
H531 C543 0.950 . S
C532 H524 0.950 . S
C532 C533 1.386 . S
C532 C534 1.391 . S
C533 C532 1.386 . S
C533 C537 1.393 1_455 S
C534 H526 0.950 . S
C534 C532 1.391 . S
C534 C535 1.400 . S
C535 C534 1.400 . S
C535 C536 1.398 1_455 S
C535 C541 1.491 . S
C536 H527 0.950 . S
C536 C535 1.398 1_655 S
C536 C537 1.391 . S
C537 H525 0.950 . S
C537 C533 1.393 1_655 S
C537 C536 1.391 . S
C538 H528 0.950 . S
C538 C539 1.386 1_655 S
C538 C540 1.391 . S
C539 C538 1.386 1_455 S
C539 C543 1.393 . S
C540 H529 0.950 . S
C540 C538 1.391 . S
C540 C541 1.400 1_655 S
C541 C535 1.491 . S
C541 C540 1.400 1_455 S
C541 C542 1.398 . S
C542 H530 0.950 . S
C542 C541 1.398 . S
C542 C543 1.391 . S
C543 H531 0.950 . S
C543 C539 1.393 . S
C543 C542 1.391 . S
H544 C552 0.950 . S
H545 C557 0.950 . S
H546 C554 0.950 . S
H547 C556 0.950 . S
H548 C558 0.950 . S
H549 C560 0.950 . S
H550 C562 0.950 . S
H551 C563 0.950 . S
C552 H544 0.950 . S
C552 C553 1.386 . S
C552 C554 1.391 . S
C553 C552 1.386 . S
C553 C557 1.393 . S
C554 H546 0.950 . S
C554 C552 1.391 . S
C554 C555 1.400 . S
C555 C554 1.400 . S
C555 C556 1.398 . S
C555 C561 1.491 . S
C556 H547 0.950 . S
C556 C555 1.398 . S
C556 C557 1.391 . S
C557 H545 0.950 . S
C557 C553 1.393 . S
C557 C556 1.391 . S
C558 H548 0.950 . S
C558 C559 1.386 . S
C558 C560 1.391 . S
C559 C558 1.386 . S
C559 C563 1.393 1_565 S
C560 H549 0.950 . S
C560 C558 1.391 . S
C560 C561 1.400 . S
C561 C555 1.491 . S
C561 C560 1.400 . S
C561 C562 1.398 . S
C562 H550 0.950 . S
C562 C561 1.398 . S
C562 C563 1.391 1_565 S
C563 H551 0.950 . S
C563 C559 1.393 1_545 S
C563 C562 1.391 1_545 S
H564 C572 0.950 . S
H565 C577 0.950 . S
H566 C574 0.950 . S
H567 C576 0.950 . S
H568 C578 0.950 . S
H569 C580 0.950 . S
H570 C582 0.950 . S
H571 C583 0.950 . S
C572 H564 0.950 . S
C572 C573 1.386 . S
C572 C574 1.391 . S
C573 C572 1.386 . S
C573 C577 1.393 . S
C574 H566 0.950 . S
C574 C572 1.391 . S
C574 C575 1.400 . S
C575 C574 1.400 . S
C575 C576 1.398 . S
C575 C581 1.491 . S
C576 H567 0.950 . S
C576 C575 1.398 . S
C576 C577 1.391 . S
C577 H565 0.950 . S
C577 C573 1.393 . S
C577 C576 1.391 . S
C578 H568 0.950 . S
C578 C579 1.386 1_545 S
C578 C580 1.391 1_545 S
C579 C578 1.386 1_565 S
C579 C583 1.393 . S
C580 H569 0.950 . S
C580 C578 1.391 1_565 S
C580 C581 1.400 . S
C581 C575 1.491 . S
C581 C580 1.400 . S
C581 C582 1.398 . S
C582 H570 0.950 . S
C582 C581 1.398 . S
C582 C583 1.391 . S
C583 H571 0.950 . S
C583 C579 1.393 . S
C583 C582 1.391 . S
H584 C592 0.950 . S
H585 C597 0.950 . S
H586 C594 0.950 . S
H587 C596 0.950 . S
H588 C598 0.950 . S
H589 C600 0.950 . S
H590 C602 0.950 . S
H591 C603 0.950 . S
C592 H584 0.950 . S
C592 C593 1.386 . S
C592 C594 1.391 . S
C593 C592 1.386 . S
C593 C597 1.393 1_545 S
C594 H586 0.950 . S
C594 C592 1.391 . S
C594 C595 1.400 . S
C595 C594 1.400 . S
C595 C596 1.398 . S
C595 C601 1.491 . S
C596 H587 0.950 . S
C596 C595 1.398 . S
C596 C597 1.391 1_545 S
C597 H585 0.950 . S
C597 C593 1.393 1_565 S
C597 C596 1.391 1_565 S
C598 H588 0.950 . S
C598 C599 1.386 . S
C598 C600 1.391 . S
C599 C598 1.386 . S
C599 C603 1.393 . S
C600 H589 0.950 . S
C600 C598 1.391 . S
C600 C601 1.400 . S
C601 C595 1.491 . S
C601 C600 1.400 . S
C601 C602 1.398 . S
C602 H590 0.950 . S
C602 C601 1.398 . S
C602 C603 1.391 . S
C603 H591 0.950 . S
C603 C599 1.393 . S
C603 C602 1.391 . S
H604 C612 0.950 . S
H605 C617 0.950 . S
H606 C614 0.950 . S
H607 C616 0.950 . S
H608 C618 0.950 . S
H609 C620 0.950 . S
H610 C622 0.950 . S
H611 C623 0.950 . S
C612 H604 0.950 . S
C612 C613 1.386 . S
C612 C614 1.391 . S
C613 C612 1.386 . S
C613 C617 1.393 1_545 S
C614 H606 0.950 . S
C614 C612 1.391 . S
C614 C615 1.400 . S
C615 C614 1.400 . S
C615 C616 1.398 . S
C615 C621 1.491 . S
C616 H607 0.950 . S
C616 C615 1.398 . S
C616 C617 1.391 1_545 S
C617 H605 0.950 . S
C617 C613 1.393 1_565 S
C617 C616 1.391 1_565 S
C618 H608 0.950 . S
C618 C619 1.386 . S
C618 C620 1.391 . S
C619 C618 1.386 . S
C619 C623 1.393 . S
C620 H609 0.950 . S
C620 C618 1.391 . S
C620 C621 1.400 . S
C621 C615 1.491 . S
C621 C620 1.400 . S
C621 C622 1.398 . S
C622 H610 0.950 . S
C622 C621 1.398 . S
C622 C623 1.391 . S
C623 H611 0.950 . S
C623 C619 1.393 . S
C623 C622 1.391 . S
H624 C632 0.950 . S
H625 C637 0.950 . S
H626 C634 0.950 . S
H627 C636 0.950 . S
H628 C638 0.950 . S
H629 C640 0.950 . S
H630 C642 0.950 . S
H631 C643 0.950 . S
C632 H624 0.950 . S
C632 C633 1.386 . S
C632 C634 1.391 . S
C633 C632 1.386 . S
C633 C637 1.393 . S
C634 H626 0.950 . S
C634 C632 1.391 . S
C634 C635 1.400 . S
C635 C634 1.400 . S
C635 C636 1.398 . S
C635 C641 1.491 . S
C636 H627 0.950 . S
C636 C635 1.398 . S
C636 C637 1.391 . S
C637 H625 0.950 . S
C637 C633 1.393 . S
C637 C636 1.391 . S
C638 H628 0.950 . S
C638 C639 1.386 . S
C638 C640 1.391 . S
C639 C638 1.386 . S
C639 C643 1.393 . S
C640 H629 0.950 . S
C640 C638 1.391 . S
C640 C641 1.400 . S
C641 C635 1.491 . S
C641 C640 1.400 . S
C641 C642 1.398 . S
C642 H630 0.950 . S
C642 C641 1.398 . S
C642 C643 1.391 . S
C643 H631 0.950 . S
C643 C639 1.393 . S
C643 C642 1.391 . S
H644 C652 0.950 . S
H645 C657 0.950 . S
H646 C654 0.950 . S
H647 C656 0.950 . S
H648 C658 0.950 . S
H649 C660 0.950 . S
H650 C662 0.950 . S
H651 C663 0.950 . S
C652 H644 0.950 . S
C652 C653 1.386 . S
C652 C654 1.391 . S
C653 C652 1.386 . S
C653 C657 1.393 . S
C654 H646 0.950 . S
C654 C652 1.391 . S
C654 C655 1.400 . S
C655 C654 1.400 . S
C655 C656 1.398 . S
C655 C661 1.491 . S
C656 H647 0.950 . S
C656 C655 1.398 . S
C656 C657 1.391 . S
C657 H645 0.950 . S
C657 C653 1.393 . S
C657 C656 1.391 . S
C658 H648 0.950 . S
C658 C659 1.386 . S
C658 C660 1.391 . S
C659 C658 1.386 . S
C659 C663 1.393 . S
C660 H649 0.950 . S
C660 C658 1.391 . S
C660 C661 1.400 . S
C661 C655 1.491 . S
C661 C660 1.400 . S
C661 C662 1.398 . S
C662 H650 0.950 . S
C662 C661 1.398 . S
C662 C663 1.391 . S
C663 H651 0.950 . S
C663 C659 1.393 . S
C663 C662 1.391 . S
H664 C672 0.950 . S
H665 C677 0.950 . S
H666 C674 0.950 . S
H667 C676 0.950 . S
H668 C678 0.950 1_545 S
H669 C680 0.950 . S
H670 C682 0.950 . S
H671 C683 0.950 . S
C672 H664 0.950 . S
C672 C673 1.386 . S
C672 C674 1.391 . S
C673 C672 1.386 . S
C673 C677 1.393 . S
C674 H666 0.950 . S
C674 C672 1.391 . S
C674 C675 1.400 . S
C675 C674 1.400 . S
C675 C676 1.398 . S
C675 C681 1.491 . S
C676 H667 0.950 . S
C676 C675 1.398 . S
C676 C677 1.391 . S
C677 H665 0.950 . S
C677 C673 1.393 . S
C677 C676 1.391 . S
C678 H668 0.950 1_565 S
C678 C679 1.386 . S
C678 C680 1.391 . S
C679 C678 1.386 . S
C679 C683 1.393 . S
C680 H669 0.950 . S
C680 C678 1.391 . S
C680 C681 1.400 . S
C681 C675 1.491 . S
C681 C680 1.400 . S
C681 C682 1.398 . S
C682 H670 0.950 . S
C682 C681 1.398 . S
C682 C683 1.391 . S
C683 H671 0.950 . S
C683 C679 1.393 . S
C683 C682 1.391 . S
H684 C692 0.950 . S
H685 C697 0.950 . S
H686 C694 0.950 . S
H687 C696 0.950 . S
H688 C698 0.950 1_455 S
H689 C700 0.950 . S
H690 C702 0.950 . S
H691 C703 0.950 1_545 S
C692 H684 0.950 . S
C692 C693 1.386 . S
C692 C694 1.391 . S
C693 C692 1.386 . S
C693 C697 1.393 . S
C694 H686 0.950 . S
C694 C692 1.391 . S
C694 C695 1.400 . S
C695 C694 1.400 . S
C695 C696 1.398 . S
C695 C701 1.491 . S
C696 H687 0.950 . S
C696 C695 1.398 . S
C696 C697 1.391 . S
C697 H685 0.950 . S
C697 C693 1.393 . S
C697 C696 1.391 . S
C698 H688 0.950 1_655 S
C698 C699 1.386 . S
C698 C700 1.391 . S
C699 C698 1.386 . S
C699 C703 1.393 . S
C700 H689 0.950 . S
C700 C698 1.391 . S
C700 C701 1.400 . S
C701 C695 1.491 . S
C701 C700 1.400 . S
C701 C702 1.398 . S
C702 H690 0.950 . S
C702 C701 1.398 . S
C702 C703 1.391 . S
C703 H691 0.950 1_565 S
C703 C699 1.393 . S
C703 C702 1.391 . S
H704 C712 0.950 . S
H705 C717 0.950 . S
H706 C714 0.950 . S
H707 C716 0.950 . S
H708 C718 0.950 . S
H709 C720 0.950 . S
H710 C722 0.950 . S
H711 C723 0.950 . S
C712 H704 0.950 . S
C712 C713 1.386 . S
C712 C714 1.391 . S
C713 C712 1.386 . S
C713 C717 1.393 . S
C714 H706 0.950 . S
C714 C712 1.391 . S
C714 C715 1.400 . S
C715 C714 1.400 . S
C715 C716 1.398 . S
C715 C721 1.491 . S
C716 H707 0.950 . S
C716 C715 1.398 . S
C716 C717 1.391 . S
C717 H705 0.950 . S
C717 C713 1.393 . S
C717 C716 1.391 . S
C718 H708 0.950 . S
C718 C719 1.386 . S
C718 C720 1.391 . S
C719 C718 1.386 . S
C719 C723 1.393 . S
C720 H709 0.950 . S
C720 C718 1.391 . S
C720 C721 1.400 . S
C721 C715 1.491 . S
C721 C720 1.400 . S
C721 C722 1.398 . S
C722 H710 0.950 . S
C722 C721 1.398 . S
C722 C723 1.391 . S
C723 H711 0.950 . S
C723 C719 1.393 . S
C723 C722 1.391 . S
H724 C732 0.950 . S
H725 C737 0.950 . S
H726 C734 0.950 . S
H727 C736 0.950 . S
H728 C738 0.950 . S
H729 C740 0.950 . S
H730 C742 0.950 . S
H731 C743 0.950 . S
C732 H724 0.950 . S
C732 C733 1.386 . S
C732 C734 1.391 . S
C733 C732 1.386 . S
C733 C737 1.393 . S
C734 H726 0.950 . S
C734 C732 1.391 . S
C734 C735 1.400 . S
C735 C734 1.400 . S
C735 C736 1.398 . S
C735 C741 1.491 . S
C736 H727 0.950 . S
C736 C735 1.398 . S
C736 C737 1.391 . S
C737 H725 0.950 . S
C737 C733 1.393 . S
C737 C736 1.391 . S
C738 H728 0.950 . S
C738 C739 1.386 . S
C738 C740 1.391 . S
C739 C738 1.386 . S
C739 C743 1.393 . S
C740 H729 0.950 . S
C740 C738 1.391 . S
C740 C741 1.400 . S
C741 C735 1.491 . S
C741 C740 1.400 . S
C741 C742 1.398 . S
C742 H730 0.950 . S
C742 C741 1.398 . S
C742 C743 1.391 . S
C743 H731 0.950 . S
C743 C739 1.393 . S
C743 C742 1.391 . S
H744 C752 0.950 . S
H745 C757 0.950 . S
H746 C754 0.950 . S
H747 C756 0.950 . S
H748 C758 0.950 . S
H749 C760 0.950 . S
H750 C762 0.950 . S
H751 C763 0.950 . S
C752 H744 0.950 . S
C752 C753 1.386 . S
C752 C754 1.391 . S
C753 C752 1.386 . S
C753 C757 1.393 . S
C754 H746 0.950 . S
C754 C752 1.391 . S
C754 C755 1.400 . S
C755 C754 1.400 . S
C755 C756 1.398 . S
C755 C761 1.491 . S
C756 H747 0.950 . S
C756 C755 1.398 . S
C756 C757 1.391 . S
C757 H745 0.950 . S
C757 C753 1.393 . S
C757 C756 1.391 . S
C758 H748 0.950 . S
C758 C759 1.386 . S
C758 C760 1.391 . S
C759 C758 1.386 . S
C759 C763 1.393 . S
C760 H749 0.950 . S
C760 C758 1.391 . S
C760 C761 1.400 . S
C761 C755 1.491 . S
C761 C760 1.400 . S
C761 C762 1.398 . S
C762 H750 0.950 . S
C762 C761 1.398 . S
C762 C763 1.391 . S
C763 H751 0.950 . S
C763 C759 1.393 . S
C763 C762 1.391 . S
H764 C772 0.950 . S
H765 C777 0.950 . S
H766 C774 0.950 . S
H767 C776 0.950 . S
H768 C778 0.950 . S
H769 C780 0.950 . S
H770 C782 0.950 . S
H771 C783 0.950 . S
C772 H764 0.950 . S
C772 C773 1.386 . S
C772 C774 1.391 . S
C773 C772 1.386 . S
C773 C777 1.393 . S
C774 H766 0.950 . S
C774 C772 1.391 . S
C774 C775 1.400 . S
C775 C774 1.400 . S
C775 C776 1.398 . S
C775 C781 1.491 . S
C776 H767 0.950 . S
C776 C775 1.398 . S
C776 C777 1.391 . S
C777 H765 0.950 . S
C777 C773 1.393 . S
C777 C776 1.391 . S
C778 H768 0.950 . S
C778 C779 1.386 . S
C778 C780 1.391 . S
C779 C778 1.386 . S
C779 C783 1.393 . S
C780 H769 0.950 . S
C780 C778 1.391 . S
C780 C781 1.400 . S
C781 C775 1.491 . S
C781 C780 1.400 . S
C781 C782 1.398 . S
C782 H770 0.950 . S
C782 C781 1.398 . S
C782 C783 1.391 . S
C783 H771 0.950 . S
C783 C779 1.393 . S
C783 C782 1.391 . S
H784 C792 0.950 . S
H785 C797 0.950 . S
H786 C794 0.950 . S
H787 C796 0.950 . S
H788 C798 0.950 . S
H789 C800 0.950 . S
H790 C802 0.950 . S
H791 C803 0.950 . S
C792 H784 0.950 . S
C792 C793 1.386 . S
C792 C794 1.391 . S
C793 C792 1.386 . S
C793 C797 1.393 . S
C794 H786 0.950 . S
C794 C792 1.391 . S
C794 C795 1.400 . S
C795 C794 1.400 . S
C795 C796 1.398 . S
C795 C801 1.491 . S
C796 H787 0.950 . S
C796 C795 1.398 . S
C796 C797 1.391 . S
C797 H785 0.950 . S
C797 C793 1.393 . S
C797 C796 1.391 . S
C798 H788 0.950 . S
C798 C799 1.386 . S
C798 C800 1.391 . S
C799 C798 1.386 . S
C799 C803 1.393 . S
C800 H789 0.950 . S
C800 C798 1.391 . S
C800 C801 1.400 . S
C801 C795 1.491 . S
C801 C800 1.400 . S
C801 C802 1.398 . S
C802 H790 0.950 . S
C802 C801 1.398 . S
C802 C803 1.391 . S
C803 H791 0.950 . S
C803 C799 1.393 . S
C803 C802 1.391 . S
H804 C812 0.950 . S
H805 C817 0.950 . S
H806 C814 0.950 . S
H807 C816 0.950 . S
H808 C818 0.950 . S
H809 C820 0.950 . S
H810 C822 0.950 . S
H811 C823 0.950 . S
C812 H804 0.950 . S
C812 C813 1.386 . S
C812 C814 1.391 . S
C813 C812 1.386 . S
C813 C817 1.393 . S
C814 H806 0.950 . S
C814 C812 1.391 . S
C814 C815 1.400 . S
C815 C814 1.400 . S
C815 C816 1.398 . S
C815 C821 1.491 . S
C816 H807 0.950 . S
C816 C815 1.398 . S
C816 C817 1.391 . S
C817 H805 0.950 . S
C817 C813 1.393 . S
C817 C816 1.391 . S
C818 H808 0.950 . S
C818 C819 1.386 . S
C818 C820 1.391 . S
C819 C818 1.386 . S
C819 C823 1.393 . S
C820 H809 0.950 . S
C820 C818 1.391 . S
C820 C821 1.400 . S
C821 C815 1.491 . S
C821 C820 1.400 . S
C821 C822 1.398 . S
C822 H810 0.950 . S
C822 C821 1.398 . S
C822 C823 1.391 . S
C823 H811 0.950 . S
C823 C819 1.393 . S
C823 C822 1.391 . S
H824 C832 0.950 . S
H825 C837 0.950 . S
H826 C834 0.950 . S
H827 C836 0.950 . S
H828 C838 0.950 . S
H829 C840 0.950 . S
H830 C842 0.950 . S
H831 C843 0.950 . S
C832 H824 0.950 . S
C832 C833 1.386 . S
C832 C834 1.391 . S
C833 C832 1.386 . S
C833 C837 1.393 . S
C834 H826 0.950 . S
C834 C832 1.391 . S
C834 C835 1.400 . S
C835 C834 1.400 . S
C835 C836 1.398 . S
C835 C841 1.491 . S
C836 H827 0.950 . S
C836 C835 1.398 . S
C836 C837 1.391 . S
C837 H825 0.950 . S
C837 C833 1.393 . S
C837 C836 1.391 . S
C838 H828 0.950 . S
C838 C839 1.386 . S
C838 C840 1.391 . S
C839 C838 1.386 . S
C839 C843 1.393 . S
C840 H829 0.950 . S
C840 C838 1.391 . S
C840 C841 1.400 . S
C841 C835 1.491 . S
C841 C840 1.400 . S
C841 C842 1.398 . S
C842 H830 0.950 . S
C842 C841 1.398 . S
C842 C843 1.391 . S
C843 H831 0.950 . S
C843 C839 1.393 . S
C843 C842 1.391 . S
H844 C852 0.950 . S
H845 C857 0.950 . S
H846 C854 0.950 . S
H847 C856 0.950 . S
H848 C858 0.950 . S
H849 C860 0.950 . S
H850 C862 0.950 . S
H851 C863 0.950 . S
C852 H844 0.950 . S
C852 C853 1.386 . S
C852 C854 1.391 . S
C853 C852 1.386 . S
C853 C857 1.393 . S
C854 H846 0.950 . S
C854 C852 1.391 . S
C854 C855 1.400 . S
C855 C854 1.400 . S
C855 C856 1.398 . S
C855 C861 1.491 . S
C856 H847 0.950 . S
C856 C855 1.398 . S
C856 C857 1.391 . S
C857 H845 0.950 . S
C857 C853 1.393 . S
C857 C856 1.391 . S
C858 H848 0.950 . S
C858 C859 1.386 . S
C858 C860 1.391 . S
C859 C858 1.386 . S
C859 C863 1.393 . S
C860 H849 0.950 . S
C860 C858 1.391 . S
C860 C861 1.400 . S
C861 C855 1.491 . S
C861 C860 1.400 . S
C861 C862 1.398 . S
C862 H850 0.950 . S
C862 C861 1.398 . S
C862 C863 1.391 . S
C863 H851 0.950 . S
C863 C859 1.393 . S
C863 C862 1.391 . S
C233 C11 1.060 . S
C239 C193 1.036 . S
C253 C165 1.049 . S
C259 C25 1.056 . S
C273 C179 1.035 . S
C279 C39 1.060 . S
C293 C151 1.048 . S
C299 C53 1.038 . S
C313 C67 1.037 . S
C319 C221 1.051 . S
C333 C81 1.049 . S
C339 C137 1.056 . S
C353 C207 1.039 . S
C359 C95 1.061 . S
C373 C109 1.040 . S
C379 C123 1.061 . S
C393 C68 1.621 . S
C399 C12 1.622 . S
C413 C26 1.618 . S
C419 C82 1.623 . S
C433 C40 1.621 . S
C439 C96 1.622 . S
C453 C110 1.624 . S
C459 C54 1.618 . S
C473 C124 1.624 . S
C479 C152 1.618 . S
C493 C138 1.619 . S
C499 C166 1.624 . S
C513 C208 1.622 . S
C519 C180 1.621 . S
C533 C194 1.622 . S
C539 C222 1.620 . S
C553 C74 1.246 . S
C559 C4 1.246 1_565 S
C573 C18 1.234 . S
C579 C88 1.230 1_565 S
C593 C32 1.230 1_545 S
C599 C102 1.232 . S
C613 C60 1.230 1_545 S
C619 C46 1.232 . S
C633 C61 1.132 . S
C639 C145 1.172 . S
C653 C33 1.128 . S
C659 C117 1.170 . S
C673 C159 1.156 . S
C679 C89 1.170 . S
C693 C131 1.128 . S
C699 C5 1.126 . S
C713 C116 1.234 . S
C719 C172 1.230 . S
C733 C144 1.244 . S
C739 C214 1.239 . S
C753 C186 1.230 . S
C759 C130 1.231 . S
C773 C158 1.232 . S
C779 C200 1.237 . S
C793 C201 1.160 . S
C799 C19 1.168 . S
C813 C187 1.130 . S
C819 C75 1.171 . S
C833 C215 1.171 . S
C839 C47 1.154 . S
C853 C173 1.160 . S
C859 C103 1.168 . S
