# Generated by pormake.
# Topology zfs, (5)-cn, num edge types: 1
# Building blocks:
#     Node 0, Type 0, BuildingBlock: XOMCOT_clean_sbu_1, # of connection points: 5
#     Node 1, Type 0, BuildingBlock: XOMCOT_clean_sbu_1, # of connection points: 5
#     Node 2, Type 0, BuildingBlock: XOMCOT_clean_sbu_1, # of connection points: 5
#     Node 3, Type 0, BuildingBlock: XOMCOT_clean_sbu_1, # of connection points: 5
#     Node 4, Type 0, BuildingBlock: XOMCOT_clean_sbu_1, # of connection points: 5
#     Node 5, Type 0, BuildingBlock: XOMCOT_clean_sbu_1, # of connection points: 5
#     Node 6, Type 0, BuildingBlock: XOMCOT_clean_sbu_1, # of connection points: 5
#     Node 7, Type 0, BuildingBlock: XOMCOT_clean_sbu_1, # of connection points: 5
#     Edge 8, Type (0, 0), BuildingBlock: KIFKEQ_clean_linker_1, # of connection points: 2
#     Edge 9, Type (0, 0), BuildingBlock: KIFKEQ_clean_linker_1, # of connection points: 2
#     Edge 10, Type (0, 0), BuildingBlock: KIFKEQ_clean_linker_1, # of connection points: 2
#     Edge 11, Type (0, 0), BuildingBlock: KIFKEQ_clean_linker_1, # of connection points: 2
#     Edge 12, Type (0, 0), BuildingBlock: KIFKEQ_clean_linker_1, # of connection points: 2
#     Edge 13, Type (0, 0), BuildingBlock: KIFKEQ_clean_linker_1, # of connection points: 2
#     Edge 14, Type (0, 0), BuildingBlock: KIFKEQ_clean_linker_1, # of connection points: 2
#     Edge 15, Type (0, 0), BuildingBlock: KIFKEQ_clean_linker_1, # of connection points: 2
#     Edge 16, Type (0, 0), BuildingBlock: KIFKEQ_clean_linker_1, # of connection points: 2
#     Edge 17, Type (0, 0), BuildingBlock: KIFKEQ_clean_linker_1, # of connection points: 2
#     Edge 18, Type (0, 0), BuildingBlock: KIFKEQ_clean_linker_1, # of connection points: 2
#     Edge 19, Type (0, 0), BuildingBlock: KIFKEQ_clean_linker_1, # of connection points: 2
#     Edge 20, Type (0, 0), BuildingBlock: KIFKEQ_clean_linker_1, # of connection points: 2
#     Edge 21, Type (0, 0), BuildingBlock: KIFKEQ_clean_linker_1, # of connection points: 2
#     Edge 22, Type (0, 0), BuildingBlock: KIFKEQ_clean_linker_1, # of connection points: 2
#     Edge 23, Type (0, 0), BuildingBlock: KIFKEQ_clean_linker_1, # of connection points: 2
#     Edge 24, Type (0, 0), BuildingBlock: KIFKEQ_clean_linker_1, # of connection points: 2
#     Edge 25, Type (0, 0), BuildingBlock: KIFKEQ_clean_linker_1, # of connection points: 2
#     Edge 26, Type (0, 0), BuildingBlock: KIFKEQ_clean_linker_1, # of connection points: 2
#     Edge 27, Type (0, 0), BuildingBlock: KIFKEQ_clean_linker_1, # of connection points: 2
# Relax obj value: 0.145
# Max RMSD: 0.154
# Mean RMSD: 0.154
data_MOF--net-zfs--node1-XOMCOT_clean_sbu_1--edge1-KIFKEQ_clean_linker_1
_symmetry_space_group_name_H-M    P1
_symmetry_Int_Tables_number       1
_symmetry_cell_setting            triclinic
loop_
_symmetry_equiv_pos_as_xyz
'x, y, z'
_cell_length_a     34.896134
_cell_length_b     35.025131
_cell_length_c     41.066238
_cell_angle_alpha  89.955518
_cell_angle_beta   90.098783
_cell_angle_gamma 89.975495
loop_
_atom_site_label
_atom_site_type_symbol
_atom_site_fract_x
_atom_site_fract_y
_atom_site_fract_z
_atom_type_partial_charge
C0 C 0.11841 0.27247 0.23256 0.0
C1 C 0.14318 0.26665 0.25814 0.0
N2 N 0.13089 0.23613 0.27519 0.0
N3 N 0.09059 0.24582 0.23354 0.0
C4 C 0.09903 0.22397 0.25961 0.0
H5 H 0.12035 0.2948 0.21443 0.0
Co6 Co 0.05012 0.24199 0.2044 0.0
C7 C 0.98732 0.22255 0.25223 0.0
O8 O 0.96811 0.25332 0.2443 0.0
N9 N 1.00946 0.23827 0.17374 0.0
C10 C 0.9578 0.24887 0.14287 0.0
C11 C 0.97473 0.2555 0.17258 0.0
C12 C 0.01274 0.22177 0.14413 0.0
N13 N 0.98196 0.22772 0.12493 0.0
O14 O 0.07084 0.19375 0.18894 0.0
H15 H 0.96366 0.27515 0.19039 0.0
H16 H 0.03856 0.20843 0.13543 0.0
O17 O 0.01909 0.21489 0.23806 0.0
C18 C 0.09946 0.20069 0.17041 0.0
O19 O 0.10918 0.23658 0.166 0.0
N20 N 0.03406 0.29121 0.21715 0.0
C21 C 0.02622 0.36917 0.22971 0.0
C22 C 0.02521 0.34258 0.25526 0.0
C23 C 0.03027 0.30368 0.24854 0.0
C24 C 0.03555 0.3169 0.19221 0.0
C25 C 0.0313 0.35588 0.19788 0.0
H26 H 0.03264 0.28381 0.2686 0.0
H27 H 0.0415 0.30716 0.16774 0.0
H28 H 0.08174 0.20002 0.26732 0.0
H29 H 0.16841 0.28346 0.26353 0.0
H30 H 0.93095 0.26087 0.13449 0.0
H31 H 0.02255 0.35196 0.28028 0.0
H32 H 0.03287 0.37559 0.17757 0.0
C33 C 0.74891 0.10797 0.47867 0.0
C34 C 0.75598 0.13328 0.50353 0.0
N35 N 0.78784 0.12178 0.51936 0.0
N36 N 0.77603 0.0806 0.47905 0.0
C37 C 0.79954 0.08991 0.50383 0.0
H38 H 0.72535 0.10914 0.46154 0.0
Co39 Co 0.77943 0.04036 0.45016 0.0
C40 C 0.79696 0.9766 0.49523 0.0
O41 O 0.76793 0.95776 0.48266 0.0
N42 N 0.78358 1.00158 0.41935 0.0
C43 C 0.80577 0.95756 0.38509 0.0
C44 C 0.80502 0.96951 0.4171 0.0
C45 C 0.77278 1.00891 0.38851 0.0
N46 N 0.78529 0.98257 0.36724 0.0
O47 O 0.82751 0.06032 0.43408 0.0
H48 H 0.82219 0.95747 0.43644 0.0
H49 H 0.75885 0.03523 0.38137 0.0
O50 O 0.80612 1.00931 0.48368 0.0
C51 C 0.82144 0.08756 0.41404 0.0
O52 O 0.78585 0.09856 0.40927 0.0
N53 N 0.72994 0.0231 0.46422 0.0
C54 C 0.65372 1.00989 0.48246 0.0
C55 C 0.68198 0.0162 0.5061 0.0
C56 C 0.71995 0.02262 0.4965 0.0
C57 C 0.70228 0.01755 0.4411 0.0
C58 C 0.66436 1.01001 0.44968 0.0
H59 H 0.74109 0.02861 0.51507 0.0
H60 H 0.70857 0.0208 0.41569 0.0
H61 H 0.82502 0.07386 0.51005 0.0
H62 H 0.73859 0.15778 0.50978 0.0
H63 H 0.82208 0.93384 0.37548 0.0
H64 H 0.67466 0.01689 0.53172 0.0
H65 H 0.64307 1.00646 0.43069 0.0
C66 C 0.9078 0.74492 0.73114 0.0
C67 C 0.88321 0.75137 0.75663 0.0
N68 N 0.89554 0.78236 0.7731 0.0
N69 N 0.93549 0.77167 0.73147 0.0
C70 C 0.92727 0.79414 0.75716 0.0
H71 H 0.90568 0.72222 0.71338 0.0
Co72 Co 0.97499 0.7751 0.70153 0.0
C73 C 0.03837 0.79919 0.74777 0.0
O74 O 0.05887 0.7687 0.74155 0.0
N75 N 0.01441 0.77837 0.67 0.0
C76 C 0.06458 0.7666 0.63785 0.0
C77 C 0.04954 0.76197 0.66858 0.0
C78 C 1.00923 0.79285 0.6398 0.0
N79 N 0.03903 0.78616 0.6199 0.0
O80 O 0.95298 0.82236 0.68511 0.0
H81 H 0.06206 0.74424 0.68723 0.0
H82 H 0.9827 0.80499 0.63122 0.0
O83 O 1.00621 0.80442 0.73336 0.0
C84 C 0.92349 0.81563 0.66752 0.0
O85 O 0.91269 0.77991 0.66408 0.0
N86 N 0.99278 0.72686 0.71574 0.0
C87 C 1.00507 0.6499 0.73175 0.0
C88 C 1.0051 0.67836 0.75594 0.0
C89 C 0.99794 0.71649 0.74754 0.0
C90 C 0.99187 0.69959 0.69208 0.0
C91 C 0.99831 0.66121 0.69943 0.0
H92 H 0.9954 0.73747 0.7667 0.0
H93 H 0.98474 0.70752 0.66734 0.0
H94 H 0.94455 0.81837 0.76419 0.0
H95 H 0.85803 0.73465 0.76226 0.0
H96 H 0.09097 0.75431 0.62881 0.0
H97 H 1.00981 0.67131 0.78129 0.0
H98 H 0.99629 0.64048 0.67997 0.0
C99 C 0.26246 0.90701 0.96753 0.0
C100 C 0.25572 0.88043 0.99157 0.0
N101 N 0.23029 0.8953 0.0128 0.0
N102 N 0.24152 0.93845 0.97367 0.0
C103 C 0.22216 0.93048 0.0012 0.0
H104 H 0.28118 0.90363 0.94676 0.0
Co105 Co 0.23938 0.98156 0.94793 0.0
C106 C 0.22498 0.04323 0.99605 0.0
O107 O 0.25318 0.06274 0.98291 0.0
N108 N 0.23607 0.02433 0.92036 0.0
C109 C 0.20515 0.0675 0.8902 0.0
C110 C 0.20849 0.05155 0.92067 0.0
C111 C 0.24873 0.02443 0.88929 0.0
N112 N 0.23044 0.05017 0.87052 0.0
O113 O 0.18968 0.96584 0.93202 0.0
H114 H 0.18809 0.05584 0.94007 0.0
H115 H 0.266 1.00187 0.87904 0.0
O116 O 0.21563 0.01075 0.98415 0.0
C117 C 0.193 0.94747 0.90533 0.0
O118 O 0.22752 0.94054 0.89409 0.0
N119 N 0.29015 0.99408 0.9616 0.0
C120 C 0.36826 1.00115 0.97771 0.0
C121 C 0.33989 1.00145 0.00199 0.0
C122 C 0.3012 0.99694 0.99351 0.0
C123 C 0.31751 0.99217 0.93798 0.0
C124 C 0.35638 0.9962 0.94535 0.0
H125 H 0.28032 0.99463 0.01279 0.0
H126 H 0.30974 0.98511 0.91341 0.0
H127 H 0.20264 0.95028 0.01261 0.0
H128 H 0.26823 0.85222 0.99289 0.0
H129 H 0.18286 0.08691 0.88224 0.0
H130 H 0.34742 1.00447 0.02744 0.0
H131 H 0.37702 0.99358 0.92582 0.0
C132 C 0.12326 0.75191 0.26617 0.0
C133 C 0.14608 0.75737 0.23932 0.0
N134 N 0.13129 0.78644 0.22189 0.0
N135 N 0.09446 0.7776 0.2657 0.0
C136 C 0.10013 0.7983 0.23843 0.0
H137 H 0.12709 0.73034 0.28476 0.0
Co138 Co 0.05616 0.78087 0.29682 0.0
C139 C 0.9904 0.80255 0.25192 0.0
O140 O 0.97066 0.77204 0.25963 0.0
N141 N 0.01804 0.7838 0.32954 0.0
C142 C 0.96984 0.77053 0.3634 0.0
C143 C 0.98328 0.76685 0.33206 0.0
C144 C 0.02466 0.79759 0.35977 0.0
N145 N 0.99608 0.78993 0.3807 0.0
O146 O 0.07757 0.82891 0.31196 0.0
H147 H 0.97022 0.74895 0.31385 0.0
H148 H 0.05155 0.80963 0.36755 0.0
O149 O 0.02299 0.80877 0.2653 0.0
C150 C 0.10783 0.82313 0.32886 0.0
O151 O 0.11985 0.78777 0.33212 0.0
N152 N 0.03901 0.73207 0.28399 0.0
C153 C 0.02719 0.65461 0.27013 0.0
C154 C 0.02538 0.68234 0.24535 0.0
C155 C 0.03237 0.72077 0.25265 0.0
C156 C 0.0418 0.7055 0.30815 0.0
C157 C 0.03565 0.66687 0.30188 0.0
H158 H 0.03348 0.74126 0.23298 0.0
H159 H 0.05013 0.71424 0.33241 0.0
H160 H 0.08198 0.82175 0.23087 0.0
H161 H 0.17103 0.74075 0.23271 0.0
H162 H 0.94425 0.75747 0.37325 0.0
H163 H 0.01935 0.6745 0.22038 0.0
H164 H 0.03914 0.64672 0.32166 0.0
C165 C 0.27691 0.11263 0.52251 0.0
C166 C 0.27165 0.13743 0.49691 0.0
N167 N 0.24043 0.12618 0.48007 0.0
N168 N 0.2493 0.08577 0.52161 0.0
C169 C 0.22736 0.0949 0.49574 0.0
H170 H 0.2994 0.11393 0.54064 0.0
Co171 Co 0.24323 0.04605 0.55092 0.0
C172 C 0.22555 0.98213 0.5062 0.0
O173 O 0.25296 0.96229 0.52025 0.0
N174 N 0.23605 1.00785 0.58192 0.0
C175 C 0.20553 0.96793 0.61529 0.0
C176 C 0.21041 0.97889 0.58331 0.0
C177 C 0.24541 0.01435 0.61328 0.0
N178 N 0.228 0.99016 0.63384 0.0
O179 O 0.19523 0.06764 0.56515 0.0
H180 H 0.19257 0.96947 0.56338 0.0
H181 H 0.26104 0.03936 0.62128 0.0
O182 O 0.21721 0.01546 0.51682 0.0
C183 C 0.20066 0.09592 0.58417 0.0
O184 O 0.23596 0.10758 0.58925 0.0
N185 N 0.29265 0.02694 0.53875 0.0
C186 C 0.36933 0.01205 0.52308 0.0
C187 C 0.34219 0.01839 0.4985 0.0
C188 C 0.30398 0.02565 0.50682 0.0
C189 C 0.31911 0.02102 0.5628 0.0
C190 C 0.35726 0.0127 0.5555 0.0
H191 H 0.2838 0.03182 0.48752 0.0
H192 H 0.31167 0.02466 0.58796 0.0
H193 H 0.20258 0.07855 0.4883 0.0
H194 H 0.28924 0.16204 0.4914 0.0
H195 H 0.18449 0.94792 0.62444 0.0
H196 H 0.35061 0.01859 0.47313 0.0
H197 H 0.37765 1.00903 0.57519 0.0
C198 C 0.91198 0.27502 0.76232 0.0
C199 C 0.88996 0.27071 0.7348 0.0
N200 N 0.90103 0.23843 0.71962 0.0
N201 N 0.93692 0.24572 0.76431 0.0
C202 C 0.92943 0.22377 0.73816 0.0
H203 H 0.91006 0.29801 0.77981 0.0
Co204 Co 0.97211 0.23786 0.79729 0.0
C205 C 0.04211 0.21925 0.75899 0.0
O206 O 0.06106 0.24525 0.77555 0.0
N207 N 1.00571 0.22915 0.83188 0.0
C208 C 0.04286 0.19972 0.86824 0.0
C209 C 0.0361 0.20553 0.83559 0.0
C210 C 0.99387 0.23599 0.86256 0.0
N211 N 0.01584 0.21858 0.88511 0.0
O212 O 0.94867 0.18968 0.808 0.0
H213 H 0.04991 0.18963 0.81645 0.0
H214 H 0.96753 0.25092 0.86803 0.0
O215 O 1.00691 0.21282 0.76579 0.0
C216 C 0.91749 0.19371 0.82383 0.0
O217 O 0.90317 0.2282 0.82702 0.0
N218 N 0.99279 0.28722 0.78884 0.0
C219 C 1.0055 0.36514 0.77766 0.0
C220 C 1.0094 0.33858 0.75234 0.0
C221 C 1.00213 0.29983 0.75827 0.0
C222 C 0.98955 0.31284 0.8137 0.0
C223 C 0.99603 0.35171 0.80873 0.0
H224 H 1.00186 0.28038 0.73787 0.0
H225 H 0.97937 0.30384 0.83718 0.0
H226 H 0.94395 0.19709 0.73328 0.0
H227 H 0.8678 0.29005 0.72651 0.0
H228 H 0.06364 0.18018 0.87855 0.0
H229 H 0.01566 0.34795 0.72778 0.0
H230 H 0.99227 0.37132 0.82886 0.0
C231 C 0.76612 0.90032 0.02821 0.0
C232 C 0.7715 0.87506 0.003 0.0
N233 N 0.7917 0.89294 0.9796 0.0
N234 N 0.78295 0.93376 0.02067 0.0
C235 C 0.79832 0.92846 0.99093 0.0
H236 H 0.75122 0.89467 0.05078 0.0
Co237 Co 0.78451 0.97499 0.04831 0.0
C238 C 0.79997 0.04187 0.00542 0.0
O239 O 0.77372 0.06106 0.0215 0.0
N240 N 0.78671 0.0156 0.078 0.0
C241 C 0.81528 0.0562 0.11198 0.0
C242 C 0.81486 0.04194 0.08081 0.0
C243 C 0.7709 0.01424 0.10793 0.0
N244 N 0.78792 0.03817 0.12915 0.0
O245 O 0.83491 0.95971 0.06303 0.0
H246 H 0.837 0.04694 0.06295 0.0
H247 H 0.75182 0.99181 0.11564 0.0
O248 O 0.80715 1.00725 0.0135 0.0
C249 C 0.83301 0.94113 0.08974 0.0
O250 O 0.79914 0.93342 0.10197 0.0
N251 N 0.73335 0.98691 0.03592 0.0
C252 C 0.65466 0.99305 0.02266 0.0
C253 C 0.68195 1.00254 0.99891 0.0
C254 C 0.72114 0.99815 0.00569 0.0
C255 C 0.70702 0.97582 0.05853 0.0
C256 C 0.66776 0.97922 0.05269 0.0
H257 H 0.74127 1.00237 0.98612 0.0
H258 H 0.71634 0.96224 0.0807 0.0
H259 H 0.81496 0.94971 0.97813 0.0
H260 H 0.76132 0.8459 0.00193 0.0
H261 H 0.8367 0.0752 0.122 0.0
H262 H 0.67304 0.01166 0.97486 0.0
H263 H 0.64781 0.97048 0.07144 0.0
H264 H 0.99603 0.59856 0.30896 0.0
H265 H 0.04881 0.61566 0.2149 0.0
H266 H 0.99564 0.53016 0.29979 0.0
H267 H 0.04515 0.54769 0.20451 0.0
H268 H 0.07701 0.42285 0.20959 0.0
H269 H 0.07526 0.49133 0.21905 0.0
H270 H 0.96931 0.4782 0.27249 0.0
H271 H 0.97253 0.40912 0.26426 0.0
C272 C 1.0073 0.58788 0.28618 0.0
C273 C 0.02291 0.61298 0.2629 0.0
C274 C 1.00649 0.54847 0.28068 0.0
C275 C 0.02067 0.53298 0.25148 0.0
C276 C 0.03479 0.55824 0.22765 0.0
C277 C 0.0362 0.59757 0.23337 0.0
C278 C 0.05337 0.43472 0.22335 0.0
C279 C 0.02483 0.4108 0.23611 0.0
C280 C 0.05212 0.47408 0.22859 0.0
C281 C 0.02188 0.49074 0.24625 0.0
C282 C 0.99333 0.46658 0.25912 0.0
C283 C 0.995 0.42699 0.25434 0.0
H284 H 0.61113 0.0606 0.51704 0.0
H285 H 0.60382 0.95279 0.46666 0.0
H286 H 0.54167 0.05934 0.52618 0.0
H287 H 0.53441 0.951 0.47667 0.0
H288 H 0.41844 0.95514 0.54145 0.0
H289 H 0.48804 0.95224 0.53249 0.0
H290 H 0.48298 0.05915 0.48043 0.0
H291 H 0.4134 0.06151 0.48853 0.0
C292 C 0.59472 0.03631 0.50853 0.0
C293 C 0.6127 1.0067 0.4913 0.0
C294 C 0.55508 0.03573 0.51353 0.0
C295 C 0.53287 1.00514 0.502 0.0
C296 C 0.55102 0.97483 0.48583 0.0
C297 C 0.59056 0.97585 0.48014 0.0
C298 C 0.43224 0.97769 0.52773 0.0
C299 C 0.41067 1.00841 0.51546 0.0
C300 C 0.47189 0.97604 0.52264 0.0
C301 C 0.49069 1.0056 0.50597 0.0
C302 C 0.46907 0.03614 0.49351 0.0
C303 C 0.42936 0.03733 0.4979 0.0
H304 H 0.03902 0.59293 0.69561 0.0
H305 H 0.98069 0.61232 0.78691 0.0
H306 H 0.03983 0.52482 0.70655 0.0
H307 H 0.98454 0.54475 0.79911 0.0
H308 H 0.95379 0.41938 0.7951 0.0
H309 H 0.95591 0.4876 0.78465 0.0
H310 H 0.06507 0.47384 0.73627 0.0
H311 H 0.06171 0.40493 0.74559 0.0
C312 C 0.0266 0.58284 0.71817 0.0
C313 C 1.00938 0.6085 0.74013 0.0
C314 C 0.02763 0.5436 0.72471 0.0
C315 C 1.01197 0.52884 0.75365 0.0
C316 C 0.99614 0.55469 0.7762 0.0
C317 C 0.99458 0.59382 0.76944 0.0
C318 C 0.97834 0.43101 0.78239 0.0
C319 C 1.00771 0.40687 0.77135 0.0
C320 C 0.97974 0.47028 0.77653 0.0
C321 C 1.01088 0.48671 0.75987 0.0
C322 C 0.04035 0.4624 0.74881 0.0
C323 C 0.0386 0.42289 0.75426 0.0
H324 H 0.42597 0.03536 0.94268 0.0
H325 H 0.40586 0.97163 0.03116 0.0
H326 H 0.4945 0.03361 0.9531 0.0
H327 H 0.47414 0.97226 0.04276 0.0
H328 H 0.5998 0.93959 0.03565 0.0
H329 H 0.53122 0.94338 0.02555 0.0
H330 H 0.5458 0.05631 0.98483 0.0
H331 H 0.61485 0.05174 0.99409 0.0
C332 C 0.43604 0.02117 0.96451 0.0
C333 C 0.41005 1.00333 0.98587 0.0
C334 C 0.47551 0.02064 0.97074 0.0
C335 C 0.49024 1.00257 0.99871 0.0
C336 C 0.46414 0.98582 0.02061 0.0
C337 C 0.4247 0.98603 0.01422 0.0
C338 C 0.58832 0.9653 0.02466 0.0
C339 C 0.61278 0.99544 0.01581 0.0
C340 C 0.54885 0.9676 0.019 0.0
C341 C 0.53256 1.00031 0.0046 0.0
C342 C 0.55716 0.03043 0.99558 0.0
C343 C 0.59679 0.02791 0.00094 0.0
H344 H 0.16719 0.1212 0.4582 0.0
H345 H 0.27787 0.16994 0.4358 0.0
H346 H 0.14127 0.14791 0.4081 0.0
H347 H 0.25159 0.19717 0.38591 0.0
H348 H 0.17649 0.27263 0.3188 0.0
H349 H 0.20361 0.24637 0.36869 0.0
H350 H 0.14982 0.13796 0.34836 0.0
H351 H 0.12319 0.16387 0.2982 0.0
C352 C 0.1861 0.13737 0.44256 0.0
C353 C 0.22473 0.1432 0.45102 0.0
C354 C 0.17118 0.15272 0.41387 0.0
C355 C 0.19447 0.17445 0.39308 0.0
C356 C 0.2329 0.18083 0.40168 0.0
C357 C 0.2479 0.16529 0.43031 0.0
C358 C 0.1708 0.24307 0.32467 0.0
C359 C 0.14753 0.22043 0.30442 0.0
C360 C 0.18629 0.22808 0.35332 0.0
C361 C 0.17867 0.1902 0.36243 0.0
C362 C 0.15565 0.16746 0.34217 0.0
C363 C 0.14034 0.18237 0.31344 0.0
H364 H 0.83181 0.08717 0.56516 0.0
H365 H 0.7832 0.19602 0.53751 0.0
H366 H 0.86031 0.11646 0.61313 0.0
H367 H 0.81146 0.22519 0.58577 0.0
H368 H 0.82965 0.2492 0.69518 0.0
H369 H 0.80307 0.22165 0.64563 0.0
H370 H 0.91028 0.1638 0.62759 0.0
H371 H 0.93707 0.19163 0.67698 0.0
C372 C 0.82755 0.11742 0.56907 0.0
C373 C 0.80522 0.13925 0.54745 0.0
C374 C 0.84385 0.13417 0.5966 0.0
C375 C 0.83807 0.17308 0.60317 0.0
C376 C 0.81594 0.195 0.58152 0.0
C377 C 0.79973 0.17827 0.55392 0.0
C378 C 0.84773 0.23099 0.68048 0.0
C379 C 0.88547 0.22255 0.69012 0.0
C380 C 0.83248 0.2152 0.65211 0.0
C381 C 0.85461 0.19056 0.63281 0.0
C382 C 0.8924 0.18228 0.64227 0.0
C383 C 0.9077 0.19816 0.6706 0.0
H384 H 0.81249 0.8199 0.96837 0.0
H385 H 0.80083 0.93022 0.92256 0.0
H386 H 0.83684 0.79335 0.91766 0.0
H387 H 0.8242 0.90364 0.87144 0.0
H388 H 0.90705 0.85386 0.79717 0.0
H389 H 0.88143 0.8803 0.84713 0.0
H390 H 0.81841 0.77597 0.864 0.0
H391 H 0.84595 0.74853 0.81521 0.0
C392 C 0.81464 0.8383 0.94726 0.0
C393 C 0.80486 0.87709 0.94936 0.0
C394 C 0.8285 0.82313 0.91817 0.0
C395 C 0.83247 0.84635 0.89042 0.0
C396 C 0.82216 0.8851 0.89247 0.0
C397 C 0.80869 0.90033 0.9217 0.0
C398 C 0.88813 0.83627 0.81161 0.0
C399 C 0.87891 0.79882 0.80203 0.0
C400 C 0.87294 0.85172 0.84013 0.0
C401 C 0.84785 0.83028 0.85964 0.0
C402 C 0.8381 0.79311 0.84982 0.0
C403 C 0.85356 0.77752 0.82148 0.0
H404 H 0.16658 0.91638 0.04653 0.0
H405 H 0.25918 0.83421 0.04579 0.0
H406 H 0.14342 0.8898 0.09705 0.0
H407 H 0.23416 0.80578 0.09531 0.0
H408 H 0.20508 0.79266 0.20323 0.0
H409 H 0.22887 0.81803 0.15177 0.0
H410 H 0.11219 0.83673 0.11974 0.0
H411 H 0.08882 0.81265 0.17172 0.0
C412 C 0.18209 0.89261 0.05695 0.0
C413 C 0.21518 0.87787 0.04196 0.0
C414 C 0.16832 0.87688 0.08584 0.0
C415 C 0.18685 0.84558 0.10036 0.0
C416 C 0.21947 0.83027 0.0851 0.0
C417 C 0.23355 0.84631 0.05635 0.0
C418 C 0.18467 0.80212 0.18505 0.0
C419 C 0.1452 0.80096 0.19142 0.0
C420 C 0.19821 0.81648 0.15551 0.0
C421 C 0.17248 0.82948 0.13153 0.0
C422 C 0.13289 0.82773 0.13785 0.0
C423 C 0.11943 0.81388 0.16758 0.0
H424 H 0.94337 0.26848 0.07913 0.0
H425 H 0.01697 0.17038 0.09231 0.0
H426 H 0.9488 0.26178 0.0204 0.0
H427 H 0.02281 0.16408 0.03338 0.0
H428 H 0.06773 0.2076 0.93307 0.0
H429 H 0.05523 0.20443 0.99149 0.0
H430 H 0.93422 0.21951 0.97327 0.0
H431 H 0.9466 0.22219 0.91499 0.0
C432 C 0.95997 0.24494 0.06958 0.0
C433 C 0.98013 0.22025 0.09048 0.0
C434 C 0.96316 0.24118 0.03586 0.0
C435 C 0.98663 0.21271 0.02237 0.0
C436 C 1.00512 0.18674 0.04317 0.0
C437 C 1.00175 0.19036 0.07688 0.0
C438 C 0.03847 0.20982 0.94156 0.0
C439 C 1.00831 0.21575 0.91946 0.0
C440 C 0.03127 0.20788 0.97494 0.0
C441 C 0.99374 0.21183 0.98687 0.0
C442 C 0.96348 0.21693 0.96476 0.0
C443 C 0.97065 0.21874 0.93139 0.0
H444 H 0.72519 0.02061 0.16425 0.0
H445 H 0.84595 0.04565 0.17284 0.0
H446 H 0.72325 1.00335 0.22173 0.0
H447 H 0.84371 0.03018 0.23055 0.0
H448 H 0.838 0.95979 0.32275 0.0
H449 H 0.83727 0.97391 0.26451 0.0
H450 H 0.72751 0.02971 0.27528 0.0
H451 H 0.72752 0.01397 0.33294 0.0
C452 C 0.75114 0.02306 0.1786 0.0
C453 C 0.78564 0.03449 0.164 0.0
C454 C 0.75004 0.0133 0.21152 0.0
C455 C 0.78345 0.01498 0.23063 0.0
C456 C 0.81765 0.02786 0.21633 0.0
C457 C 0.81876 0.0375 0.18337 0.0
C458 C 0.81336 0.97423 0.31248 0.0
C459 C 0.78294 0.98603 0.33241 0.0
C460 C 0.8132 0.98289 0.27925 0.0
C461 C 0.7826 1.00348 0.26537 0.0
C462 C 0.75146 0.01374 0.28512 0.0
C463 C 0.75158 1.00498 0.3182 0.0
H464 H 1.0109 0.84633 0.58674 0.0
H465 H 0.0637 0.73582 0.57479 0.0
H466 H 0.9996 0.8499 0.52788 0.0
H467 H 0.05225 0.73923 0.51607 0.0
H468 H 0.97414 0.73767 0.42529 0.0
H469 H 0.98744 0.73934 0.48375 0.0
H470 H 0.03896 0.85068 0.47313 0.0
H471 H 0.0258 0.84886 0.41445 0.0
C472 C 0.02064 0.82317 0.57137 0.0
C473 C 0.03821 0.79086 0.58516 0.0
C474 C 0.0142 0.8252 0.53784 0.0
C475 C 0.02467 0.79463 0.51766 0.0
C476 C 0.04356 0.76297 0.53126 0.0
C477 C 0.05053 0.76122 0.56472 0.0
C478 C 0.98756 0.7628 0.43556 0.0
C479 C 0.99883 0.79323 0.41549 0.0
C480 C 0.99563 0.76353 0.46885 0.0
C481 C 0.0146 0.79494 0.48271 0.0
C482 C 0.02436 0.82614 0.46294 0.0
C483 C 0.01683 0.82512 0.42952 0.0
H484 H 0.17196 0.02723 0.66498 0.0
H485 H 0.27891 0.96829 0.67878 0.0
H486 H 0.17176 0.04603 0.72237 0.0
H487 H 0.27839 0.98496 0.73664 0.0
H488 H 0.28972 0.05157 0.82916 0.0
H489 H 0.28781 0.0376 0.77088 0.0
H490 H 0.16463 0.02486 0.77636 0.0
H491 H 0.16692 0.04093 0.83408 0.0
C492 C 0.19484 0.01753 0.6808 0.0
C493 C 0.22517 0.996 0.66813 0.0
C494 C 0.19488 0.02822 0.71356 0.0
C495 C 0.22522 0.01727 0.73422 0.0
C496 C 0.25499 0.99466 0.72139 0.0
C497 C 0.25513 0.98452 0.68852 0.0
C498 C 0.26232 0.04669 0.81746 0.0
C499 C 0.22849 0.04784 0.83572 0.0
C500 C 0.26113 0.03809 0.7843 0.0
C501 C 0.22608 0.02953 0.76889 0.0
C502 C 0.19207 0.03181 0.78717 0.0
C503 C 0.19327 0.04116 0.8202 0.0
H504 H 0.16573 0.20884 0.13754 0.0
H505 H 0.07643 0.12647 0.1563 0.0
H506 H 0.19449 0.16651 0.09854 0.0
H507 H 0.10679 0.08227 0.11751 0.0
H508 H 0.14898 0.0395 0.01397 0.0
H509 H 0.11854 0.07256 0.05994 0.0
H510 H 0.22994 0.11146 0.09204 0.0
H511 H 0.25937 0.08079 0.04538 0.0
C512 C 0.15253 0.18119 0.13379 0.0
C513 C 0.11869 0.17116 0.15017 0.0
C514 C 0.16939 0.15653 0.11144 0.0
C515 C 0.15341 0.1205 0.10485 0.0
C516 C 0.11987 0.10984 0.12177 0.0
C517 C 0.10269 0.13494 0.14429 0.0
C518 C 0.16676 0.05498 0.03111 0.0
C519 C 0.20639 0.05835 0.02577 0.0
C520 C 0.14941 0.07374 0.05757 0.0
C521 C 0.17156 0.09559 0.07948 0.0
C522 C 0.2116 0.09625 0.07518 0.0
C523 C 0.22863 0.07844 0.04848 0.0
H524 H 0.95765 0.25085 0.30754 0.0
H525 H 0.98528 0.14418 0.2607 0.0
H526 H 0.9246 0.21678 0.35065 0.0
H527 H 0.95051 0.10951 0.30379 0.0
H528 H 0.89482 0.06148 0.40024 0.0
H529 H 0.94217 0.092 0.36403 0.0
H530 H 0.86333 0.18517 0.34764 0.0
H531 H 0.81727 0.15559 0.38346 0.0
C532 C 0.95689 0.21993 0.30666 0.0
C533 C 0.97345 0.20019 0.28049 0.0
C534 C 0.93782 0.20037 0.33135 0.0
C535 C 0.93399 0.16043 0.33032 0.0
C536 C 0.95289 0.14028 0.30532 0.0
C537 C 0.97269 0.16006 0.28062 0.0
C538 C 0.88808 0.08878 0.38922 0.0
C539 C 0.85233 0.10619 0.39489 0.0
C540 C 0.91499 0.10605 0.36828 0.0
C541 C 0.90674 0.14125 0.35311 0.0
C542 C 0.87114 0.15852 0.35931 0.0
C543 C 0.84448 0.14134 0.3798 0.0
H544 H 0.76339 0.93898 0.54474 0.0
H545 H 0.87364 0.97864 0.51173 0.0
H546 H 0.79351 0.90702 0.59054 0.0
H547 H 0.90471 0.94437 0.55694 0.0
H548 H 0.94729 0.88948 0.65329 0.0
H549 H 0.91714 0.93423 0.61472 0.0
H550 H 0.82845 0.85105 0.59558 0.0
H551 H 0.8571 0.80805 0.63433 0.0
C552 C 0.79426 0.94068 0.54729 0.0
C553 C 0.81625 0.96067 0.52437 0.0
C554 C 0.81166 0.92216 0.5735 0.0
C555 C 0.85179 0.92204 0.57713 0.0
C556 C 0.87377 0.94377 0.55505 0.0
C557 C 0.85607 0.96323 0.52903 0.0
C558 C 0.92091 0.88131 0.64124 0.0
C559 C 0.90455 0.84522 0.64706 0.0
C560 C 0.90385 0.90674 0.61888 0.0
C561 C 0.87006 0.89656 0.60205 0.0
C562 C 0.85379 0.86061 0.60846 0.0
C563 C 0.87055 0.83559 0.63066 0.0
H564 H 0.03227 0.87744 0.75097 0.0
H565 H 0.07459 0.77939 0.80359 0.0
H566 H 0.06154 0.91975 0.79197 0.0
H567 H 0.10251 0.82125 0.84474 0.0
H568 H 0.13029 0.90613 0.92471 0.0
H569 H 0.08414 0.87382 0.88862 0.0
H570 H 0.136 0.92824 0.80532 0.0
H571 H 0.18254 0.95922 0.8411 0.0
C572 C 0.04708 0.86498 0.77161 0.0
C573 C 0.05154 0.8252 0.77395 0.0
C574 C 0.06379 0.8891 0.79501 0.0
C575 C 0.08412 0.87375 0.82165 0.0
C576 C 0.08668 0.83391 0.82475 0.0
C577 C 0.07098 0.80997 0.80101 0.0
C578 C 0.13094 0.91197 0.89881 0.0
C579 C 0.15978 0.93516 0.88562 0.0
C580 C 0.10476 0.89339 0.87816 0.0
C581 C 0.1065 0.89854 0.84415 0.0
C582 C 0.13366 0.92401 0.83138 0.0
C583 C 0.16032 0.94169 0.85185 0.0
H584 H 0.1752 0.81776 0.36089 0.0
H585 H 0.08098 0.89546 0.34467 0.0
H586 H 0.20191 0.86035 0.40081 0.0
H587 H 0.1092 0.94003 0.38428 0.0
H588 H 0.14943 0.98238 0.48825 0.0
H589 H 0.12074 0.94888 0.44161 0.0
H590 H 0.23408 0.91671 0.40915 0.0
H591 H 0.26181 0.94761 0.45652 0.0
C592 C 0.16049 0.84449 0.36536 0.0
C593 C 0.12587 0.85308 0.34945 0.0
C594 C 0.17614 0.86933 0.38825 0.0
C595 C 0.15811 0.90413 0.39583 0.0
C596 C 0.12384 0.91341 0.3793 0.0
C597 C 0.10787 0.88812 0.3563 0.0
C598 C 0.16796 0.96825 0.47088 0.0
C599 C 0.2077 0.9668 0.47626 0.0
C600 C 0.15163 0.94925 0.44404 0.0
C601 C 0.17492 0.92916 0.4218 0.0
C602 C 0.21494 0.93047 0.42623 0.0
C603 C 0.23099 0.94843 0.45332 0.0
H604 H 0.13748 0.06195 0.61203 0.0
H605 H 0.19491 0.17013 0.60049 0.0
H606 H 0.09542 0.09045 0.65348 0.0
H607 H 0.15271 0.19872 0.64068 0.0
H608 H 0.11784 0.22172 0.74388 0.0
H609 H 0.15081 0.19116 0.6991 0.0
H610 H 0.04479 0.13922 0.66773 0.0
H611 H 1.01139 0.16972 0.71349 0.0
C612 C 0.14023 0.09206 0.61757 0.0
C613 C 0.16953 0.11384 0.60321 0.0
C614 C 0.1163 0.10836 0.64137 0.0
C615 C 0.12125 0.14669 0.65096 0.0
C616 C 0.14876 0.16888 0.63463 0.0
C617 C 0.17274 0.15261 0.61133 0.0
C618 C 0.10134 0.20379 0.72758 0.0
C619 C 0.06183 0.19849 0.73224 0.0
C620 C 0.12029 0.18639 0.70166 0.0
C621 C 0.10037 0.16326 0.67936 0.0
C622 C 0.06098 0.1569 0.68443 0.0
C623 C 0.04186 0.17443 0.7106 0.0
H624 H 0.84257 0.18329 0.83732 0.0
H625 H 0.95435 0.13538 0.85604 0.0
H626 H 0.81496 0.14222 0.87892 0.0
H627 H 0.92679 0.09455 0.89869 0.0
H628 H 0.85254 0.01088 0.96248 0.0
H629 H 0.88135 0.04196 0.91478 0.0
H630 H 0.81998 0.14562 0.93754 0.0
H631 H 0.79112 0.11488 0.98425 0.0
C632 C 0.86111 0.16333 0.84995 0.0
C633 C 0.90056 0.16252 0.84343 0.0
C634 C 0.84538 0.14004 0.87405 0.0
C635 C 0.86877 0.11567 0.89273 0.0
C636 C 0.90794 0.11293 0.88475 0.0
C637 C 0.92371 0.13615 0.86023 0.0
C638 C 0.84526 0.0403 0.95722 0.0
C639 C 0.8192 0.06022 0.97712 0.0
C640 C 0.86185 0.05812 0.92995 0.0
C641 C 0.85251 0.09612 0.92196 0.0
C642 C 0.82712 0.11605 0.94236 0.0
C643 C 0.81071 0.09841 0.96942 0.0
H644 H 0.94954 0.77957 0.19942 0.0
H645 H 0.99894 0.88016 0.24321 0.0
H646 H 0.92099 0.81861 0.15668 0.0
H647 H 0.96918 0.91978 0.20046 0.0
H648 H 0.84887 0.96146 0.15156 0.0
H649 H 0.89577 0.93219 0.18822 0.0
H650 H 0.93868 0.86411 0.10865 0.0
H651 H 0.89207 0.89434 0.07172 0.0
C652 C 0.9545 0.8101 0.19978 0.0
C653 C 0.97618 0.82686 0.22486 0.0
C654 C 0.93844 0.83242 0.17507 0.0
C655 C 0.94293 0.87224 0.17511 0.0
C656 C 0.96534 0.8891 0.19979 0.0
C657 C 0.98234 0.86651 0.2242 0.0
C658 C 0.86932 0.94126 0.1417 0.0
C659 C 0.86719 0.9303 0.10884 0.0
C660 C 0.89618 0.92454 0.16266 0.0
C661 C 0.92082 0.89575 0.15136 0.0
C662 C 0.92003 0.88624 0.11801 0.0
C663 C 0.89363 0.90366 0.09683 0.0
loop_
_geom_bond_atom_site_label_1
_geom_bond_atom_site_label_2
_geom_bond_distance
_geom_bond_site_symmetry_2
_ccdc_geom_bond_type
C0 C1 1.351 . S
C0 N3 1.368 . S
C0 H5 0.931 . S
C1 C0 1.351 . S
C1 N2 1.373 . S
C1 H29 0.930 . S
N2 C1 1.373 . S
N2 C4 1.340 . S
N3 C0 1.368 . S
N3 C4 1.321 . S
N3 Co6 2.135 . S
C4 N2 1.340 . S
C4 N3 1.321 . S
C4 H28 0.930 . S
H5 C0 0.931 . S
Co6 N3 2.135 . S
Co6 N9 2.121 . S
Co6 O14 2.055 . S
Co6 O17 2.039 . S
Co6 N20 2.140 . S
C7 O8 1.227 . S
C7 O17 1.265 . S
O8 C7 1.227 . S
N9 Co6 2.121 . S
N9 C11 1.375 . S
N9 C12 1.313 . S
C10 C11 1.338 1_655 S
C10 N13 1.377 1_655 S
C10 H30 0.930 . S
C11 N9 1.375 . S
C11 C10 1.338 1_455 S
C11 H15 0.931 1_455 S
C12 N9 1.313 . S
C12 N13 1.344 . S
C12 H16 0.930 . S
N13 C10 1.377 1_455 S
N13 C12 1.344 . S
O14 Co6 2.055 . S
O14 C18 1.253 . S
H15 C11 0.931 1_655 S
H16 C12 0.930 . S
O17 Co6 2.039 . S
O17 C7 1.265 . S
C18 O14 1.253 . S
C18 O19 1.227 . S
O19 C18 1.227 . S
N20 Co6 2.140 . S
N20 C23 1.346 . S
N20 C24 1.345 . S
C21 C22 1.387 . S
C21 C25 1.391 . S
C22 C21 1.387 . S
C22 C23 1.369 . S
C22 H31 0.929 . S
C23 N20 1.346 . S
C23 C22 1.369 . S
C23 H26 0.928 . S
C24 N20 1.345 . S
C24 C25 1.371 . S
C24 H27 0.931 . S
C25 C21 1.391 . S
C25 C24 1.371 . S
C25 H32 0.930 . S
H26 C23 0.928 . S
H27 C24 0.931 . S
H28 C4 0.930 . S
H29 C1 0.930 . S
H30 C10 0.930 . S
H31 C22 0.929 . S
H32 C25 0.930 . S
C33 C34 1.351 . S
C33 N36 1.368 . S
C33 H38 0.931 . S
C34 C33 1.351 . S
C34 N35 1.373 . S
C34 H62 0.930 . S
N35 C34 1.373 . S
N35 C37 1.340 . S
N36 C33 1.368 . S
N36 C37 1.321 . S
N36 Co39 2.135 . S
C37 N35 1.340 . S
C37 N36 1.321 . S
C37 H61 0.930 . S
H38 C33 0.931 . S
Co39 N36 2.135 . S
Co39 N42 2.121 . S
Co39 O47 2.055 . S
Co39 O50 2.039 . S
Co39 N53 2.140 . S
C40 O41 1.227 . S
C40 O50 1.265 . S
O41 C40 1.227 . S
N42 Co39 2.121 . S
N42 C44 1.375 . S
N42 C45 1.313 . S
C43 C44 1.338 1_565 S
C43 N46 1.377 1_565 S
C43 H63 0.930 . S
C44 N42 1.375 . S
C44 C43 1.338 1_545 S
C44 H48 0.931 1_545 S
C45 N42 1.313 . S
C45 N46 1.344 . S
C45 H49 0.930 . S
N46 C43 1.377 1_545 S
N46 C45 1.344 . S
O47 Co39 2.055 . S
O47 C51 1.253 . S
H48 C44 0.931 1_565 S
H49 C45 0.930 . S
O50 Co39 2.039 . S
O50 C40 1.265 . S
C51 O47 1.253 . S
C51 O52 1.227 . S
O52 C51 1.227 . S
N53 Co39 2.140 . S
N53 C56 1.346 . S
N53 C57 1.345 . S
C54 C55 1.387 . S
C54 C58 1.391 . S
C55 C54 1.387 . S
C55 C56 1.369 . S
C55 H64 0.929 . S
C56 N53 1.346 . S
C56 C55 1.369 . S
C56 H59 0.928 . S
C57 N53 1.345 . S
C57 C58 1.371 . S
C57 H60 0.931 . S
C58 C54 1.391 . S
C58 C57 1.371 . S
C58 H65 0.930 . S
H59 C56 0.928 . S
H60 C57 0.931 . S
H61 C37 0.930 . S
H62 C34 0.930 . S
H63 C43 0.930 . S
H64 C55 0.929 . S
H65 C58 0.930 . S
C66 C67 1.351 . S
C66 N69 1.368 . S
C66 H71 0.931 . S
C67 C66 1.351 . S
C67 N68 1.373 . S
C67 H95 0.930 . S
N68 C67 1.373 . S
N68 C70 1.340 . S
N69 C66 1.368 . S
N69 C70 1.321 . S
N69 Co72 2.135 . S
C70 N68 1.340 . S
C70 N69 1.321 . S
C70 H94 0.930 . S
H71 C66 0.931 . S
Co72 N69 2.135 . S
Co72 N75 2.121 . S
Co72 O80 2.055 . S
Co72 O83 2.039 . S
Co72 N86 2.140 . S
C73 O74 1.227 . S
C73 O83 1.265 . S
O74 C73 1.227 . S
N75 Co72 2.121 . S
N75 C77 1.375 . S
N75 C78 1.313 . S
C76 C77 1.338 1_455 S
C76 N79 1.377 1_455 S
C76 H96 0.930 . S
C77 N75 1.375 . S
C77 C76 1.338 1_655 S
C77 H81 0.931 1_655 S
C78 N75 1.313 . S
C78 N79 1.344 . S
C78 H82 0.930 . S
N79 C76 1.377 1_655 S
N79 C78 1.344 . S
O80 Co72 2.055 . S
O80 C84 1.253 . S
H81 C77 0.931 1_455 S
H82 C78 0.930 . S
O83 Co72 2.039 . S
O83 C73 1.265 . S
C84 O80 1.253 . S
C84 O85 1.227 . S
O85 C84 1.227 . S
N86 Co72 2.140 . S
N86 C89 1.346 . S
N86 C90 1.345 . S
C87 C88 1.387 . S
C87 C91 1.391 . S
C88 C87 1.387 . S
C88 C89 1.369 . S
C88 H97 0.929 . S
C89 N86 1.346 . S
C89 C88 1.369 . S
C89 H92 0.928 . S
C90 N86 1.345 . S
C90 C91 1.371 . S
C90 H93 0.931 . S
C91 C87 1.391 . S
C91 C90 1.371 . S
C91 H98 0.930 . S
H92 C89 0.928 . S
H93 C90 0.931 . S
H94 C70 0.930 . S
H95 C67 0.930 . S
H96 C76 0.930 . S
H97 C88 0.929 . S
H98 C91 0.930 . S
C99 C100 1.351 1_556 S
C99 N102 1.368 . S
C99 H104 0.931 . S
C100 C99 1.351 1_554 S
C100 N101 1.373 . S
C100 H128 0.930 . S
N101 C100 1.373 . S
N101 C103 1.340 . S
N102 C99 1.368 . S
N102 C103 1.321 1_556 S
N102 Co105 2.135 . S
C103 N101 1.340 . S
C103 N102 1.321 1_554 S
C103 H127 0.930 . S
H104 C99 0.931 . S
Co105 N102 2.135 . S
Co105 N108 2.121 . S
Co105 O113 2.055 . S
Co105 O116 2.039 . S
Co105 N119 2.140 . S
C106 O107 1.236 . S
C106 O116 1.265 . S
O107 C106 1.236 . S
N108 Co105 2.121 . S
N108 C110 1.375 . S
N108 C111 1.313 . S
C109 C110 1.338 1_545 S
C109 N112 1.377 1_545 S
C109 H129 0.930 . S
C110 N108 1.375 . S
C110 C109 1.338 1_565 S
C110 H114 0.931 1_565 S
C111 N108 1.313 . S
C111 N112 1.344 . S
C111 H115 0.930 . S
N112 C109 1.377 1_565 S
N112 C111 1.344 . S
O113 Co105 2.055 . S
O113 C117 1.253 . S
H114 C110 0.931 1_545 S
H115 C111 0.930 . S
O116 Co105 2.039 . S
O116 C106 1.265 . S
C117 O113 1.253 . S
C117 O118 1.227 . S
O118 C117 1.227 . S
N119 Co105 2.140 . S
N119 C122 1.346 . S
N119 C123 1.345 . S
C120 C121 1.387 . S
C120 C124 1.391 . S
C121 C120 1.387 . S
C121 C122 1.369 . S
C121 H130 0.929 1_556 S
C122 N119 1.346 . S
C122 C121 1.369 . S
C122 H125 0.928 1_556 S
C123 N119 1.345 . S
C123 C124 1.371 . S
C123 H126 0.931 . S
C124 C120 1.391 . S
C124 C123 1.371 . S
C124 H131 0.930 . S
H125 C122 0.928 1_554 S
H126 C123 0.931 . S
H127 C103 0.930 . S
H128 C100 0.930 . S
H129 C109 0.930 . S
H130 C121 0.929 1_554 S
H131 C124 0.930 . S
C132 C133 1.351 . S
C132 N135 1.368 . S
C132 H137 0.931 . S
C133 C132 1.351 . S
C133 N134 1.373 . S
C133 H161 0.930 . S
N134 C133 1.373 . S
N134 C136 1.340 . S
N135 C132 1.368 . S
N135 C136 1.321 . S
N135 Co138 2.135 . S
C136 N134 1.340 . S
C136 N135 1.321 . S
C136 H160 0.930 . S
H137 C132 0.931 . S
Co138 N135 2.135 . S
Co138 N141 2.121 . S
Co138 O146 2.055 . S
Co138 O149 2.039 . S
Co138 N152 2.140 . S
C139 O140 1.227 . S
C139 O149 1.265 . S
O140 C139 1.227 . S
N141 Co138 2.121 . S
N141 C143 1.375 . S
N141 C144 1.313 . S
C142 C143 1.338 1_655 S
C142 N145 1.377 1_655 S
C142 H162 0.930 . S
C143 N141 1.375 . S
C143 C142 1.338 1_455 S
C143 H147 0.931 1_455 S
C144 N141 1.313 . S
C144 N145 1.344 . S
C144 H148 0.930 . S
N145 C142 1.377 1_455 S
N145 C144 1.344 . S
O146 Co138 2.055 . S
O146 C150 1.253 . S
H147 C143 0.931 1_655 S
H148 C144 0.930 . S
O149 Co138 2.039 . S
O149 C139 1.265 . S
C150 O146 1.253 . S
C150 O151 1.227 . S
O151 C150 1.227 . S
N152 Co138 2.140 . S
N152 C155 1.346 . S
N152 C156 1.345 . S
C153 C154 1.387 . S
C153 C157 1.391 . S
C154 C153 1.387 . S
C154 C155 1.369 . S
C154 H163 0.929 . S
C155 N152 1.346 . S
C155 C154 1.369 . S
C155 H158 0.928 . S
C156 N152 1.345 . S
C156 C157 1.371 . S
C156 H159 0.931 . S
C157 C153 1.391 . S
C157 C156 1.371 . S
C157 H164 0.930 . S
H158 C155 0.928 . S
H159 C156 0.931 . S
H160 C136 0.930 . S
H161 C133 0.930 . S
H162 C142 0.930 . S
H163 C154 0.929 . S
H164 C157 0.930 . S
C165 C166 1.351 . S
C165 N168 1.368 . S
C165 H170 0.931 . S
C166 C165 1.351 . S
C166 N167 1.373 . S
C166 H194 0.930 . S
N167 C166 1.373 . S
N167 C169 1.340 . S
N168 C165 1.368 . S
N168 C169 1.321 . S
N168 Co171 2.135 . S
C169 N167 1.340 . S
C169 N168 1.321 . S
C169 H193 0.930 . S
H170 C165 0.931 . S
Co171 N168 2.135 . S
Co171 N174 2.121 . S
Co171 O179 2.055 . S
Co171 O182 2.039 . S
Co171 N185 2.140 . S
C172 O173 1.227 . S
C172 O182 1.265 . S
O173 C172 1.227 . S
N174 Co171 2.121 . S
N174 C176 1.375 . S
N174 C177 1.313 . S
C175 C176 1.338 1_565 S
C175 N178 1.377 1_565 S
C175 H195 0.930 . S
C176 N174 1.375 . S
C176 C175 1.338 1_545 S
C176 H180 0.931 1_545 S
C177 N174 1.313 . S
C177 N178 1.344 . S
C177 H181 0.930 . S
N178 C175 1.377 1_545 S
N178 C177 1.344 . S
O179 Co171 2.055 . S
O179 C183 1.253 . S
H180 C176 0.931 1_565 S
H181 C177 0.930 . S
O182 Co171 2.039 . S
O182 C172 1.265 . S
C183 O179 1.253 . S
C183 O184 1.227 . S
O184 C183 1.227 . S
N185 Co171 2.140 . S
N185 C188 1.346 . S
N185 C189 1.345 . S
C186 C187 1.387 . S
C186 C190 1.391 . S
C187 C186 1.387 . S
C187 C188 1.369 . S
C187 H196 0.929 . S
C188 N185 1.346 . S
C188 C187 1.369 . S
C188 H191 0.928 . S
C189 N185 1.345 . S
C189 C190 1.371 . S
C189 H192 0.931 . S
C190 C186 1.391 . S
C190 C189 1.371 . S
C190 H197 0.930 . S
H191 C188 0.928 . S
H192 C189 0.931 . S
H193 C169 0.930 . S
H194 C166 0.930 . S
H195 C175 0.930 . S
H196 C187 0.929 . S
H197 C190 0.930 . S
C198 C199 1.351 . S
C198 N201 1.368 . S
C198 H203 0.931 . S
C199 C198 1.351 . S
C199 N200 1.373 . S
C199 H227 0.930 . S
N200 C199 1.373 . S
N200 C202 1.340 . S
N201 C198 1.368 . S
N201 C202 1.321 . S
N201 Co204 2.135 . S
C202 N200 1.340 . S
C202 N201 1.321 . S
C202 H226 0.930 . S
H203 C198 0.931 . S
Co204 N201 2.135 . S
Co204 N207 2.121 . S
Co204 O212 2.055 . S
Co204 O215 2.039 . S
Co204 N218 2.140 . S
C205 O206 1.227 . S
C205 O215 1.265 . S
O206 C205 1.227 . S
N207 Co204 2.121 . S
N207 C209 1.375 . S
N207 C210 1.313 . S
C208 C209 1.338 1_455 S
C208 N211 1.377 1_455 S
C208 H228 0.930 . S
C209 N207 1.375 . S
C209 C208 1.338 1_655 S
C209 H213 0.931 1_655 S
C210 N207 1.313 . S
C210 N211 1.344 . S
C210 H214 0.930 . S
N211 C208 1.377 1_655 S
N211 C210 1.344 . S
O212 Co204 2.055 . S
O212 C216 1.253 . S
H213 C209 0.931 1_455 S
H214 C210 0.930 . S
O215 Co204 2.039 . S
O215 C205 1.265 . S
C216 O212 1.253 . S
C216 O217 1.227 . S
O217 C216 1.227 . S
N218 Co204 2.140 . S
N218 C221 1.346 . S
N218 C222 1.345 . S
C219 C220 1.387 . S
C219 C223 1.391 . S
C220 C219 1.387 . S
C220 C221 1.369 . S
C220 H229 0.929 . S
C221 N218 1.346 . S
C221 C220 1.369 . S
C221 H224 0.928 . S
C222 N218 1.345 . S
C222 C223 1.371 . S
C222 H225 0.931 . S
C223 C219 1.391 . S
C223 C222 1.371 . S
C223 H230 0.930 . S
H224 C221 0.928 . S
H225 C222 0.931 . S
H226 C202 0.930 . S
H227 C199 0.930 . S
H228 C208 0.930 . S
H229 C220 0.929 . S
H230 C223 0.930 . S
C231 C232 1.351 1_554 S
C231 N234 1.368 . S
C231 H236 0.931 . S
C232 C231 1.351 1_556 S
C232 N233 1.373 . S
C232 H260 0.930 . S
N233 C232 1.373 . S
N233 C235 1.340 . S
N234 C231 1.368 . S
N234 C235 1.321 1_554 S
N234 Co237 2.135 . S
C235 N233 1.340 . S
C235 N234 1.321 1_556 S
C235 H259 0.930 . S
H236 C231 0.931 . S
Co237 N234 2.135 . S
Co237 N240 2.121 . S
Co237 O245 2.055 . S
Co237 O248 2.039 . S
Co237 N251 2.140 . S
C238 O239 1.236 . S
C238 O248 1.265 . S
O239 C238 1.236 . S
N240 Co237 2.121 . S
N240 C242 1.375 . S
N240 C243 1.313 . S
C241 C242 1.338 1_545 S
C241 N244 1.377 1_545 S
C241 H261 0.930 . S
C242 N240 1.375 . S
C242 C241 1.338 1_565 S
C242 H246 0.931 1_565 S
C243 N240 1.313 . S
C243 N244 1.344 . S
C243 H247 0.930 . S
N244 C241 1.377 1_565 S
N244 C243 1.344 . S
O245 Co237 2.055 . S
O245 C249 1.253 . S
H246 C242 0.931 1_545 S
H247 C243 0.930 . S
O248 Co237 2.039 . S
O248 C238 1.265 . S
C249 O245 1.253 . S
C249 O250 1.227 . S
O250 C249 1.227 . S
N251 Co237 2.140 . S
N251 C254 1.346 . S
N251 C255 1.345 . S
C252 C253 1.387 . S
C252 C256 1.391 . S
C253 C252 1.387 . S
C253 C254 1.369 . S
C253 H262 0.929 1_554 S
C254 N251 1.346 . S
C254 C253 1.369 . S
C254 H257 0.928 1_554 S
C255 N251 1.345 . S
C255 C256 1.371 . S
C255 H258 0.931 . S
C256 C252 1.391 . S
C256 C255 1.371 . S
C256 H263 0.930 . S
H257 C254 0.928 1_556 S
H258 C255 0.931 . S
H259 C235 0.930 . S
H260 C232 0.930 . S
H261 C241 0.930 . S
H262 C253 0.929 1_556 S
H263 C256 0.930 . S
H264 C272 0.950 . S
H265 C277 0.950 . S
H266 C274 0.950 . S
H267 C276 0.950 . S
H268 C278 0.950 . S
H269 C280 0.950 . S
H270 C282 0.950 . S
H271 C283 0.950 . S
C272 H264 0.950 . S
C272 C273 1.386 . S
C272 C274 1.391 . S
C273 C272 1.386 . S
C273 C277 1.393 . S
C274 H266 0.950 . S
C274 C272 1.391 . S
C274 C275 1.400 . S
C275 C274 1.400 . S
C275 C276 1.398 . S
C275 C281 1.491 . S
C276 H267 0.950 . S
C276 C275 1.398 . S
C276 C277 1.391 . S
C277 H265 0.950 . S
C277 C273 1.393 . S
C277 C276 1.391 . S
C278 H268 0.950 . S
C278 C279 1.386 . S
C278 C280 1.391 . S
C279 C278 1.386 . S
C279 C283 1.393 . S
C280 H269 0.950 . S
C280 C278 1.391 . S
C280 C281 1.400 . S
C281 C275 1.491 . S
C281 C280 1.400 . S
C281 C282 1.398 . S
C282 H270 0.950 . S
C282 C281 1.398 . S
C282 C283 1.391 . S
C283 H271 0.950 . S
C283 C279 1.393 . S
C283 C282 1.391 . S
H284 C292 0.950 . S
H285 C297 0.950 . S
H286 C294 0.950 . S
H287 C296 0.950 . S
H288 C298 0.950 . S
H289 C300 0.950 . S
H290 C302 0.950 . S
H291 C303 0.950 . S
C292 H284 0.950 . S
C292 C293 1.386 . S
C292 C294 1.391 . S
C293 C292 1.386 . S
C293 C297 1.393 . S
C294 H286 0.950 . S
C294 C292 1.391 . S
C294 C295 1.400 . S
C295 C294 1.400 . S
C295 C296 1.398 . S
C295 C301 1.491 . S
C296 H287 0.950 . S
C296 C295 1.398 . S
C296 C297 1.391 . S
C297 H285 0.950 . S
C297 C293 1.393 . S
C297 C296 1.391 . S
C298 H288 0.950 . S
C298 C299 1.386 . S
C298 C300 1.391 . S
C299 C298 1.386 . S
C299 C303 1.393 . S
C300 H289 0.950 . S
C300 C298 1.391 . S
C300 C301 1.400 . S
C301 C295 1.491 . S
C301 C300 1.400 . S
C301 C302 1.398 . S
C302 H290 0.950 . S
C302 C301 1.398 . S
C302 C303 1.391 . S
C303 H291 0.950 . S
C303 C299 1.393 . S
C303 C302 1.391 . S
H304 C312 0.950 . S
H305 C317 0.950 . S
H306 C314 0.950 . S
H307 C316 0.950 . S
H308 C318 0.950 . S
H309 C320 0.950 . S
H310 C322 0.950 . S
H311 C323 0.950 . S
C312 H304 0.950 . S
C312 C313 1.386 . S
C312 C314 1.391 . S
C313 C312 1.386 . S
C313 C317 1.393 . S
C314 H306 0.950 . S
C314 C312 1.391 . S
C314 C315 1.400 . S
C315 C314 1.400 . S
C315 C316 1.398 . S
C315 C321 1.491 . S
C316 H307 0.950 . S
C316 C315 1.398 . S
C316 C317 1.391 . S
C317 H305 0.950 . S
C317 C313 1.393 . S
C317 C316 1.391 . S
C318 H308 0.950 . S
C318 C319 1.386 . S
C318 C320 1.391 . S
C319 C318 1.386 . S
C319 C323 1.393 . S
C320 H309 0.950 . S
C320 C318 1.391 . S
C320 C321 1.400 . S
C321 C315 1.491 . S
C321 C320 1.400 . S
C321 C322 1.398 . S
C322 H310 0.950 . S
C322 C321 1.398 . S
C322 C323 1.391 . S
C323 H311 0.950 . S
C323 C319 1.393 . S
C323 C322 1.391 . S
H324 C332 0.950 . S
H325 C337 0.950 1_554 S
H326 C334 0.950 . S
H327 C336 0.950 . S
H328 C338 0.950 . S
H329 C340 0.950 . S
H330 C342 0.950 . S
H331 C343 0.950 1_556 S
C332 H324 0.950 . S
C332 C333 1.386 . S
C332 C334 1.391 . S
C333 C332 1.386 . S
C333 C337 1.393 . S
C334 H326 0.950 . S
C334 C332 1.391 . S
C334 C335 1.400 . S
C335 C334 1.400 . S
C335 C336 1.398 1_556 S
C335 C341 1.491 1_556 S
C336 H327 0.950 . S
C336 C335 1.398 1_554 S
C336 C337 1.391 1_554 S
C337 H325 0.950 1_556 S
C337 C333 1.393 . S
C337 C336 1.391 1_556 S
C338 H328 0.950 . S
C338 C339 1.386 . S
C338 C340 1.391 . S
C339 C338 1.386 . S
C339 C343 1.393 . S
C340 H329 0.950 . S
C340 C338 1.391 . S
C340 C341 1.400 . S
C341 C335 1.491 1_554 S
C341 C340 1.400 . S
C341 C342 1.398 1_554 S
C342 H330 0.950 . S
C342 C341 1.398 1_556 S
C342 C343 1.391 1_556 S
C343 H331 0.950 1_554 S
C343 C339 1.393 . S
C343 C342 1.391 1_554 S
H344 C352 0.950 . S
H345 C357 0.950 . S
H346 C354 0.950 . S
H347 C356 0.950 . S
H348 C358 0.950 . S
H349 C360 0.950 . S
H350 C362 0.950 . S
H351 C363 0.950 . S
C352 H344 0.950 . S
C352 C353 1.386 . S
C352 C354 1.391 . S
C353 C352 1.386 . S
C353 C357 1.393 . S
C354 H346 0.950 . S
C354 C352 1.391 . S
C354 C355 1.400 . S
C355 C354 1.400 . S
C355 C356 1.398 . S
C355 C361 1.491 . S
C356 H347 0.950 . S
C356 C355 1.398 . S
C356 C357 1.391 . S
C357 H345 0.950 . S
C357 C353 1.393 . S
C357 C356 1.391 . S
C358 H348 0.950 . S
C358 C359 1.386 . S
C358 C360 1.391 . S
C359 C358 1.386 . S
C359 C363 1.393 . S
C360 H349 0.950 . S
C360 C358 1.391 . S
C360 C361 1.400 . S
C361 C355 1.491 . S
C361 C360 1.400 . S
C361 C362 1.398 . S
C362 H350 0.950 . S
C362 C361 1.398 . S
C362 C363 1.391 . S
C363 H351 0.950 . S
C363 C359 1.393 . S
C363 C362 1.391 . S
H364 C372 0.950 . S
H365 C377 0.950 . S
H366 C374 0.950 . S
H367 C376 0.950 . S
H368 C378 0.950 . S
H369 C380 0.950 . S
H370 C382 0.950 . S
H371 C383 0.950 . S
C372 H364 0.950 . S
C372 C373 1.386 . S
C372 C374 1.391 . S
C373 C372 1.386 . S
C373 C377 1.393 . S
C374 H366 0.950 . S
C374 C372 1.391 . S
C374 C375 1.400 . S
C375 C374 1.400 . S
C375 C376 1.398 . S
C375 C381 1.491 . S
C376 H367 0.950 . S
C376 C375 1.398 . S
C376 C377 1.391 . S
C377 H365 0.950 . S
C377 C373 1.393 . S
C377 C376 1.391 . S
C378 H368 0.950 . S
C378 C379 1.386 . S
C378 C380 1.391 . S
C379 C378 1.386 . S
C379 C383 1.393 . S
C380 H369 0.950 . S
C380 C378 1.391 . S
C380 C381 1.400 . S
C381 C375 1.491 . S
C381 C380 1.400 . S
C381 C382 1.398 . S
C382 H370 0.950 . S
C382 C381 1.398 . S
C382 C383 1.391 . S
C383 H371 0.950 . S
C383 C379 1.393 . S
C383 C382 1.391 . S
H384 C392 0.950 . S
H385 C397 0.950 . S
H386 C394 0.950 . S
H387 C396 0.950 . S
H388 C398 0.950 . S
H389 C400 0.950 . S
H390 C402 0.950 . S
H391 C403 0.950 . S
C392 H384 0.950 . S
C392 C393 1.386 . S
C392 C394 1.391 . S
C393 C392 1.386 . S
C393 C397 1.393 . S
C394 H386 0.950 . S
C394 C392 1.391 . S
C394 C395 1.400 . S
C395 C394 1.400 . S
C395 C396 1.398 . S
C395 C401 1.491 . S
C396 H387 0.950 . S
C396 C395 1.398 . S
C396 C397 1.391 . S
C397 H385 0.950 . S
C397 C393 1.393 . S
C397 C396 1.391 . S
C398 H388 0.950 . S
C398 C399 1.386 . S
C398 C400 1.391 . S
C399 C398 1.386 . S
C399 C403 1.393 . S
C400 H389 0.950 . S
C400 C398 1.391 . S
C400 C401 1.400 . S
C401 C395 1.491 . S
C401 C400 1.400 . S
C401 C402 1.398 . S
C402 H390 0.950 . S
C402 C401 1.398 . S
C402 C403 1.391 . S
C403 H391 0.950 . S
C403 C399 1.393 . S
C403 C402 1.391 . S
H404 C412 0.950 . S
H405 C417 0.950 . S
H406 C414 0.950 . S
H407 C416 0.950 . S
H408 C418 0.950 . S
H409 C420 0.950 . S
H410 C422 0.950 . S
H411 C423 0.950 . S
C412 H404 0.950 . S
C412 C413 1.386 . S
C412 C414 1.391 . S
C413 C412 1.386 . S
C413 C417 1.393 . S
C414 H406 0.950 . S
C414 C412 1.391 . S
C414 C415 1.400 . S
C415 C414 1.400 . S
C415 C416 1.398 . S
C415 C421 1.491 . S
C416 H407 0.950 . S
C416 C415 1.398 . S
C416 C417 1.391 . S
C417 H405 0.950 . S
C417 C413 1.393 . S
C417 C416 1.391 . S
C418 H408 0.950 . S
C418 C419 1.386 . S
C418 C420 1.391 . S
C419 C418 1.386 . S
C419 C423 1.393 . S
C420 H409 0.950 . S
C420 C418 1.391 . S
C420 C421 1.400 . S
C421 C415 1.491 . S
C421 C420 1.400 . S
C421 C422 1.398 . S
C422 H410 0.950 . S
C422 C421 1.398 . S
C422 C423 1.391 . S
C423 H411 0.950 . S
C423 C419 1.393 . S
C423 C422 1.391 . S
H424 C432 0.950 . S
H425 C437 0.950 . S
H426 C434 0.950 . S
H427 C436 0.950 . S
H428 C438 0.950 . S
H429 C440 0.950 . S
H430 C442 0.950 . S
H431 C443 0.950 . S
C432 H424 0.950 . S
C432 C433 1.386 1_655 S
C432 C434 1.391 . S
C433 C432 1.386 1_455 S
C433 C437 1.393 . S
C434 H426 0.950 . S
C434 C432 1.391 . S
C434 C435 1.400 1_655 S
C435 C434 1.400 1_455 S
C435 C436 1.398 . S
C435 C441 1.491 1_454 S
C436 H427 0.950 . S
C436 C435 1.398 . S
C436 C437 1.391 . S
C437 H425 0.950 . S
C437 C433 1.393 . S
C437 C436 1.391 . S
C438 H428 0.950 . S
C438 C439 1.386 1_455 S
C438 C440 1.391 . S
C439 C438 1.386 1_655 S
C439 C443 1.393 . S
C440 H429 0.950 . S
C440 C438 1.391 . S
C440 C441 1.400 1_455 S
C441 C435 1.491 1_656 S
C441 C440 1.400 1_655 S
C441 C442 1.398 . S
C442 H430 0.950 . S
C442 C441 1.398 . S
C442 C443 1.391 . S
C443 H431 0.950 . S
C443 C439 1.393 . S
C443 C442 1.391 . S
H444 C452 0.950 . S
H445 C457 0.950 . S
H446 C454 0.950 . S
H447 C456 0.950 . S
H448 C458 0.950 . S
H449 C460 0.950 . S
H450 C462 0.950 . S
H451 C463 0.950 . S
C452 H444 0.950 . S
C452 C453 1.386 . S
C452 C454 1.391 . S
C453 C452 1.386 . S
C453 C457 1.393 1_565 S
C454 H446 0.950 . S
C454 C452 1.391 . S
C454 C455 1.400 . S
C455 C454 1.400 . S
C455 C456 1.398 1_565 S
C455 C461 1.491 1_565 S
C456 H447 0.950 . S
C456 C455 1.398 1_545 S
C456 C457 1.391 . S
C457 H445 0.950 . S
C457 C453 1.393 1_545 S
C457 C456 1.391 . S
C458 H448 0.950 . S
C458 C459 1.386 . S
C458 C460 1.391 . S
C459 C458 1.386 . S
C459 C463 1.393 1_545 S
C460 H449 0.950 . S
C460 C458 1.391 . S
C460 C461 1.400 . S
C461 C455 1.491 1_545 S
C461 C460 1.400 . S
C461 C462 1.398 1_545 S
C462 H450 0.950 . S
C462 C461 1.398 1_565 S
C462 C463 1.391 . S
C463 H451 0.950 . S
C463 C459 1.393 1_565 S
C463 C462 1.391 . S
H464 C472 0.950 . S
H465 C477 0.950 . S
H466 C474 0.950 . S
H467 C476 0.950 1_455 S
H468 C478 0.950 . S
H469 C480 0.950 . S
H470 C482 0.950 1_655 S
H471 C483 0.950 . S
C472 H464 0.950 . S
C472 C473 1.386 . S
C472 C474 1.391 . S
C473 C472 1.386 . S
C473 C477 1.393 . S
C474 H466 0.950 . S
C474 C472 1.391 . S
C474 C475 1.400 . S
C475 C474 1.400 . S
C475 C476 1.398 . S
C475 C481 1.491 1_655 S
C476 H467 0.950 1_655 S
C476 C475 1.398 . S
C476 C477 1.391 . S
C477 H465 0.950 . S
C477 C473 1.393 . S
C477 C476 1.391 . S
C478 H468 0.950 . S
C478 C479 1.386 . S
C478 C480 1.391 . S
C479 C478 1.386 . S
C479 C483 1.393 . S
C480 H469 0.950 . S
C480 C478 1.391 . S
C480 C481 1.400 . S
C481 C475 1.491 1_455 S
C481 C480 1.400 . S
C481 C482 1.398 . S
C482 H470 0.950 1_455 S
C482 C481 1.398 . S
C482 C483 1.391 . S
C483 H471 0.950 . S
C483 C479 1.393 . S
C483 C482 1.391 . S
H484 C492 0.950 . S
H485 C497 0.950 . S
H486 C494 0.947 1_565 S
H487 C496 0.950 . S
H488 C498 0.950 . S
H489 C500 0.947 1_545 S
H490 C502 0.950 . S
H491 C503 0.950 . S
C492 H484 0.950 . S
C492 C493 1.386 . S
C492 C494 1.391 . S
C493 C492 1.386 . S
C493 C497 1.393 . S
C494 H486 0.947 1_545 S
C494 C492 1.391 . S
C494 C495 1.400 . S
C495 C494 1.400 . S
C495 C496 1.398 . S
C495 C501 1.491 1_545 S
C496 H487 0.950 . S
C496 C495 1.398 . S
C496 C497 1.391 . S
C497 H485 0.950 . S
C497 C493 1.393 . S
C497 C496 1.391 . S
C498 H488 0.950 . S
C498 C499 1.386 . S
C498 C500 1.391 . S
C499 C498 1.386 . S
C499 C503 1.393 . S
C500 H489 0.947 1_565 S
C500 C498 1.391 . S
C500 C501 1.400 . S
C501 C495 1.491 1_565 S
C501 C500 1.400 . S
C501 C502 1.398 . S
C502 H490 0.950 . S
C502 C501 1.398 . S
C502 C503 1.391 . S
C503 H491 0.950 . S
C503 C499 1.393 . S
C503 C502 1.391 . S
H504 C512 0.950 . S
H505 C517 0.950 . S
H506 C514 0.950 . S
H507 C516 0.950 . S
H508 C518 0.950 . S
H509 C520 0.950 . S
H510 C522 0.950 . S
H511 C523 0.950 . S
C512 H504 0.950 . S
C512 C513 1.386 . S
C512 C514 1.391 . S
C513 C512 1.386 . S
C513 C517 1.393 . S
C514 H506 0.950 . S
C514 C512 1.391 . S
C514 C515 1.400 . S
C515 C514 1.400 . S
C515 C516 1.398 . S
C515 C521 1.491 . S
C516 H507 0.950 . S
C516 C515 1.398 . S
C516 C517 1.391 . S
C517 H505 0.950 . S
C517 C513 1.393 . S
C517 C516 1.391 . S
C518 H508 0.950 . S
C518 C519 1.386 . S
C518 C520 1.391 . S
C519 C518 1.386 . S
C519 C523 1.393 . S
C520 H509 0.950 . S
C520 C518 1.391 . S
C520 C521 1.400 . S
C521 C515 1.491 . S
C521 C520 1.400 . S
C521 C522 1.398 . S
C522 H510 0.950 . S
C522 C521 1.398 . S
C522 C523 1.391 . S
C523 H511 0.950 . S
C523 C519 1.393 . S
C523 C522 1.391 . S
H524 C532 0.950 . S
H525 C537 0.950 . S
H526 C534 0.950 . S
H527 C536 0.950 . S
H528 C538 0.950 . S
H529 C540 0.950 . S
H530 C542 0.950 . S
H531 C543 0.950 . S
C532 H524 0.950 . S
C532 C533 1.386 . S
C532 C534 1.391 . S
C533 C532 1.386 . S
C533 C537 1.393 . S
C534 H526 0.950 . S
C534 C532 1.391 . S
C534 C535 1.400 . S
C535 C534 1.400 . S
C535 C536 1.398 . S
C535 C541 1.491 . S
C536 H527 0.950 . S
C536 C535 1.398 . S
C536 C537 1.391 . S
C537 H525 0.950 . S
C537 C533 1.393 . S
C537 C536 1.391 . S
C538 H528 0.950 . S
C538 C539 1.386 . S
C538 C540 1.391 . S
C539 C538 1.386 . S
C539 C543 1.393 . S
C540 H529 0.950 . S
C540 C538 1.391 . S
C540 C541 1.400 . S
C541 C535 1.491 . S
C541 C540 1.400 . S
C541 C542 1.398 . S
C542 H530 0.950 . S
C542 C541 1.398 . S
C542 C543 1.391 . S
C543 H531 0.950 . S
C543 C539 1.393 . S
C543 C542 1.391 . S
H544 C552 0.950 . S
H545 C557 0.950 . S
H546 C554 0.950 . S
H547 C556 0.950 . S
H548 C558 0.950 . S
H549 C560 0.950 . S
H550 C562 0.950 . S
H551 C563 0.950 . S
C552 H544 0.950 . S
C552 C553 1.386 . S
C552 C554 1.391 . S
C553 C552 1.386 . S
C553 C557 1.393 . S
C554 H546 0.950 . S
C554 C552 1.391 . S
C554 C555 1.400 . S
C555 C554 1.400 . S
C555 C556 1.398 . S
C555 C561 1.491 . S
C556 H547 0.950 . S
C556 C555 1.398 . S
C556 C557 1.391 . S
C557 H545 0.950 . S
C557 C553 1.393 . S
C557 C556 1.391 . S
C558 H548 0.950 . S
C558 C559 1.386 . S
C558 C560 1.391 . S
C559 C558 1.386 . S
C559 C563 1.393 . S
C560 H549 0.950 . S
C560 C558 1.391 . S
C560 C561 1.400 . S
C561 C555 1.491 . S
C561 C560 1.400 . S
C561 C562 1.398 . S
C562 H550 0.950 . S
C562 C561 1.398 . S
C562 C563 1.391 . S
C563 H551 0.950 . S
C563 C559 1.393 . S
C563 C562 1.391 . S
H564 C572 0.950 . S
H565 C577 0.950 . S
H566 C574 0.950 . S
H567 C576 0.950 . S
H568 C578 0.950 . S
H569 C580 0.950 . S
H570 C582 0.950 . S
H571 C583 0.950 . S
C572 H564 0.950 . S
C572 C573 1.386 . S
C572 C574 1.391 . S
C573 C572 1.386 . S
C573 C577 1.393 . S
C574 H566 0.950 . S
C574 C572 1.391 . S
C574 C575 1.400 . S
C575 C574 1.400 . S
C575 C576 1.398 . S
C575 C581 1.491 . S
C576 H567 0.950 . S
C576 C575 1.398 . S
C576 C577 1.391 . S
C577 H565 0.950 . S
C577 C573 1.393 . S
C577 C576 1.391 . S
C578 H568 0.950 . S
C578 C579 1.386 . S
C578 C580 1.391 . S
C579 C578 1.386 . S
C579 C583 1.393 . S
C580 H569 0.950 . S
C580 C578 1.391 . S
C580 C581 1.400 . S
C581 C575 1.491 . S
C581 C580 1.400 . S
C581 C582 1.398 . S
C582 H570 0.950 . S
C582 C581 1.398 . S
C582 C583 1.391 . S
C583 H571 0.950 . S
C583 C579 1.393 . S
C583 C582 1.391 . S
H584 C592 0.950 . S
H585 C597 0.950 . S
H586 C594 0.950 . S
H587 C596 0.950 . S
H588 C598 0.950 . S
H589 C600 0.950 . S
H590 C602 0.950 . S
H591 C603 0.950 . S
C592 H584 0.950 . S
C592 C593 1.386 . S
C592 C594 1.391 . S
C593 C592 1.386 . S
C593 C597 1.393 . S
C594 H586 0.950 . S
C594 C592 1.391 . S
C594 C595 1.400 . S
C595 C594 1.400 . S
C595 C596 1.398 . S
C595 C601 1.491 . S
C596 H587 0.950 . S
C596 C595 1.398 . S
C596 C597 1.391 . S
C597 H585 0.950 . S
C597 C593 1.393 . S
C597 C596 1.391 . S
C598 H588 0.950 . S
C598 C599 1.386 . S
C598 C600 1.391 . S
C599 C598 1.386 . S
C599 C603 1.393 . S
C600 H589 0.950 . S
C600 C598 1.391 . S
C600 C601 1.400 . S
C601 C595 1.491 . S
C601 C600 1.400 . S
C601 C602 1.398 . S
C602 H590 0.950 . S
C602 C601 1.398 . S
C602 C603 1.391 . S
C603 H591 0.950 . S
C603 C599 1.393 . S
C603 C602 1.391 . S
H604 C612 0.950 . S
H605 C617 0.950 . S
H606 C614 0.950 . S
H607 C616 0.950 . S
H608 C618 0.950 1_655 S
H609 C620 0.950 . S
H610 C622 0.950 . S
H611 C623 0.950 . S
C612 H604 0.950 . S
C612 C613 1.386 . S
C612 C614 1.391 . S
C613 C612 1.386 . S
C613 C617 1.393 . S
C614 H606 0.950 . S
C614 C612 1.391 . S
C614 C615 1.400 . S
C615 C614 1.400 . S
C615 C616 1.398 . S
C615 C621 1.491 . S
C616 H607 0.950 . S
C616 C615 1.398 . S
C616 C617 1.391 . S
C617 H605 0.950 . S
C617 C613 1.393 . S
C617 C616 1.391 . S
C618 H608 0.950 1_455 S
C618 C619 1.386 . S
C618 C620 1.391 . S
C619 C618 1.386 . S
C619 C623 1.393 . S
C620 H609 0.950 . S
C620 C618 1.391 . S
C620 C621 1.400 . S
C621 C615 1.491 . S
C621 C620 1.400 . S
C621 C622 1.398 . S
C622 H610 0.950 . S
C622 C621 1.398 . S
C622 C623 1.391 . S
C623 H611 0.950 . S
C623 C619 1.393 . S
C623 C622 1.391 . S
H624 C632 0.950 . S
H625 C637 0.950 . S
H626 C634 0.950 . S
H627 C636 0.950 . S
H628 C638 0.950 1_554 S
H629 C640 0.950 . S
H630 C642 0.950 . S
H631 C643 0.950 . S
C632 H624 0.950 . S
C632 C633 1.386 . S
C632 C634 1.391 . S
C633 C632 1.386 . S
C633 C637 1.393 . S
C634 H626 0.950 . S
C634 C632 1.391 . S
C634 C635 1.400 . S
C635 C634 1.400 . S
C635 C636 1.398 . S
C635 C641 1.491 . S
C636 H627 0.950 . S
C636 C635 1.398 . S
C636 C637 1.391 . S
C637 H625 0.950 . S
C637 C633 1.393 . S
C637 C636 1.391 . S
C638 H628 0.950 1_556 S
C638 C639 1.386 . S
C638 C640 1.391 . S
C639 C638 1.386 . S
C639 C643 1.393 . S
C640 H629 0.950 . S
C640 C638 1.391 . S
C640 C641 1.400 . S
C641 C635 1.491 . S
C641 C640 1.400 . S
C641 C642 1.398 . S
C642 H630 0.950 . S
C642 C641 1.398 . S
C642 C643 1.391 . S
C643 H631 0.950 . S
C643 C639 1.393 . S
C643 C642 1.391 . S
H644 C652 0.950 . S
H645 C657 0.950 . S
H646 C654 0.950 . S
H647 C656 0.950 . S
H648 C658 0.950 . S
H649 C660 0.950 . S
H650 C662 0.950 . S
H651 C663 0.950 . S
C652 H644 0.950 . S
C652 C653 1.386 . S
C652 C654 1.391 . S
C653 C652 1.386 . S
C653 C657 1.393 . S
C654 H646 0.950 . S
C654 C652 1.391 . S
C654 C655 1.400 . S
C655 C654 1.400 . S
C655 C656 1.398 . S
C655 C661 1.491 . S
C656 H647 0.950 . S
C656 C655 1.398 . S
C656 C657 1.391 . S
C657 H645 0.950 . S
C657 C653 1.393 . S
C657 C656 1.391 . S
C658 H648 0.950 . S
C658 C659 1.386 . S
C658 C660 1.391 . S
C659 C658 1.386 . S
C659 C663 1.393 . S
C660 H649 0.950 . S
C660 C658 1.391 . S
C660 C661 1.400 . S
C661 C655 1.491 . S
C661 C660 1.400 . S
C661 C662 1.398 . S
C662 H650 0.950 . S
C662 C661 1.398 . S
C662 C663 1.391 . S
C663 H651 0.950 . S
C663 C659 1.393 . S
C663 C662 1.391 . S
C273 C153 1.280 . S
C279 C21 1.283 . S
C293 C54 1.292 . S
C299 C186 1.294 . S
C313 C87 1.280 . S
C319 C219 1.282 . S
C333 C120 1.280 . S
C339 C252 1.286 . S
C353 N167 0.671 . S
C359 N2 0.673 . S
C373 N35 0.689 . S
C379 N200 0.686 . S
C393 N233 0.697 . S
C399 N68 0.695 . S
C413 N101 0.681 . S
C419 N134 0.679 . S
C433 N13 1.023 . S
C439 N211 1.021 . S
C453 N244 1.020 . S
C459 N46 1.023 . S
C473 N79 1.020 . S
C479 N145 1.019 . S
C493 N178 1.020 . S
C499 N112 1.019 . S
C513 C18 1.997 . S
C519 C106 2.000 1_544 S
C533 C7 2.001 1_655 S
C539 C51 2.001 . S
C553 C40 2.001 1_565 S
C559 C84 1.999 . S
C573 C73 1.995 1_455 S
C579 C117 2.004 . S
C593 C150 1.997 . S
C599 C172 2.000 1_565 S
C613 C183 2.004 . S
C619 C205 1.998 1_455 S
C633 C216 1.992 . S
C639 C238 1.994 1_546 S
C653 C139 2.000 1_655 S
C659 C249 1.996 . S
