# Generated by pormake.
# Topology umy, (4)-cn, num edge types: 1
# Building blocks:
#     Node 0, Type 0, BuildingBlock: AZAVOO_clean_sbu_0, # of connection points: 4
#     Node 1, Type 0, BuildingBlock: AZAVOO_clean_sbu_0, # of connection points: 4
#     Node 2, Type 0, BuildingBlock: AZAVOO_clean_sbu_0, # of connection points: 4
#     Node 3, Type 0, BuildingBlock: AZAVOO_clean_sbu_0, # of connection points: 4
#     Node 4, Type 0, BuildingBlock: AZAVOO_clean_sbu_0, # of connection points: 4
#     Node 5, Type 0, BuildingBlock: AZAVOO_clean_sbu_0, # of connection points: 4
#     Node 6, Type 0, BuildingBlock: AZAVOO_clean_sbu_0, # of connection points: 4
#     Node 7, Type 0, BuildingBlock: AZAVOO_clean_sbu_0, # of connection points: 4
#     Node 8, Type 0, BuildingBlock: AZAVOO_clean_sbu_0, # of connection points: 4
#     Node 9, Type 0, BuildingBlock: AZAVOO_clean_sbu_0, # of connection points: 4
#     Node 10, Type 0, BuildingBlock: AZAVOO_clean_sbu_0, # of connection points: 4
#     Node 11, Type 0, BuildingBlock: AZAVOO_clean_sbu_0, # of connection points: 4
#     Edge 12, Type (0, 0), BuildingBlock: TEMPAE_clean_linker_10, # of connection points: 2
#     Edge 13, Type (0, 0), BuildingBlock: TEMPAE_clean_linker_10, # of connection points: 2
#     Edge 14, Type (0, 0), BuildingBlock: TEMPAE_clean_linker_10, # of connection points: 2
#     Edge 15, Type (0, 0), BuildingBlock: TEMPAE_clean_linker_10, # of connection points: 2
#     Edge 16, Type (0, 0), BuildingBlock: TEMPAE_clean_linker_10, # of connection points: 2
#     Edge 17, Type (0, 0), BuildingBlock: TEMPAE_clean_linker_10, # of connection points: 2
#     Edge 18, Type (0, 0), BuildingBlock: TEMPAE_clean_linker_10, # of connection points: 2
#     Edge 19, Type (0, 0), BuildingBlock: TEMPAE_clean_linker_10, # of connection points: 2
#     Edge 20, Type (0, 0), BuildingBlock: TEMPAE_clean_linker_10, # of connection points: 2
#     Edge 21, Type (0, 0), BuildingBlock: TEMPAE_clean_linker_10, # of connection points: 2
#     Edge 22, Type (0, 0), BuildingBlock: TEMPAE_clean_linker_10, # of connection points: 2
#     Edge 23, Type (0, 0), BuildingBlock: TEMPAE_clean_linker_10, # of connection points: 2
#     Edge 24, Type (0, 0), BuildingBlock: TEMPAE_clean_linker_10, # of connection points: 2
#     Edge 25, Type (0, 0), BuildingBlock: TEMPAE_clean_linker_10, # of connection points: 2
#     Edge 26, Type (0, 0), BuildingBlock: TEMPAE_clean_linker_10, # of connection points: 2
#     Edge 27, Type (0, 0), BuildingBlock: TEMPAE_clean_linker_10, # of connection points: 2
#     Edge 28, Type (0, 0), BuildingBlock: TEMPAE_clean_linker_10, # of connection points: 2
#     Edge 29, Type (0, 0), BuildingBlock: TEMPAE_clean_linker_10, # of connection points: 2
#     Edge 30, Type (0, 0), BuildingBlock: TEMPAE_clean_linker_10, # of connection points: 2
#     Edge 31, Type (0, 0), BuildingBlock: TEMPAE_clean_linker_10, # of connection points: 2
#     Edge 32, Type (0, 0), BuildingBlock: TEMPAE_clean_linker_10, # of connection points: 2
#     Edge 33, Type (0, 0), BuildingBlock: TEMPAE_clean_linker_10, # of connection points: 2
#     Edge 34, Type (0, 0), BuildingBlock: TEMPAE_clean_linker_10, # of connection points: 2
#     Edge 35, Type (0, 0), BuildingBlock: TEMPAE_clean_linker_10, # of connection points: 2
# Relax obj value: 0.136
# Max RMSD: 0.150
# Mean RMSD: 0.150
data_MOF--net-umy--node1-AZAVOO_clean_sbu_0--edge1-TEMPAE_clean_linker_10
_symmetry_space_group_name_H-M    P1
_symmetry_Int_Tables_number       1
_symmetry_cell_setting            triclinic
loop_
_symmetry_equiv_pos_as_xyz
'x, y, z'
_cell_length_a     41.258837
_cell_length_b     41.221394
_cell_length_c     45.908944
_cell_angle_alpha  90.111568
_cell_angle_beta   89.96135
_cell_angle_gamma 120.12238
loop_
_atom_site_label
_atom_site_type_symbol
_atom_site_fract_x
_atom_site_fract_y
_atom_site_fract_z
_atom_type_partial_charge
Mg0 Mg 0.11643 0.35147 0.09257 0.0
O1 O 0.14663 0.36195 0.13562 0.0
O2 O 0.20734 0.40344 0.13087 0.0
Mg3 Mg 0.21639 0.41625 0.0816 0.0
C4 C 0.17907 0.38195 0.1466 0.0
C5 C 0.03552 0.29283 0.11409 0.0
O6 O 0.03699 0.27356 0.0918 0.0
O7 O 0.12218 0.40917 0.09556 0.0
O8 O 0.18282 0.44689 0.08468 0.0
O9 O 0.12724 0.30474 0.0818 0.0
O10 O 0.16462 0.36398 0.06968 0.0
C11 C 0.15018 0.44163 0.09036 0.0
C12 C 0.15788 0.32996 0.06951 0.0
O13 O 0.06282 0.32553 0.11889 0.0
Mg14 Mg 0.74207 0.12919 0.26124 0.0
O15 O 0.76036 0.15825 0.30507 0.0
O16 O 0.78409 0.21978 0.29995 0.0
Mg17 Mg 0.78415 0.23003 0.25052 0.0
C18 C 0.77437 0.191 0.31593 0.0
C19 C 0.71044 0.04588 0.27668 0.0
O20 O 0.72817 0.0481 0.25232 0.0
O21 O 0.69261 0.13874 0.26146 0.0
O22 O 0.71957 0.19987 0.25076 0.0
O23 O 0.79821 0.13551 0.25376 0.0
O24 O 0.78211 0.17677 0.23975 0.0
C25 C 0.69055 0.1679 0.25559 0.0
C26 C 0.80736 0.16723 0.24144 0.0
O27 O 0.70966 0.07458 0.2857 0.0
Mg28 Mg 0.61268 0.75027 0.41545 0.0
O29 O 0.60251 0.76796 0.45974 0.0
O30 O 0.55965 0.78553 0.4564 0.0
Mg31 Mg 0.54481 0.78195 0.40763 0.0
C32 C 0.58206 0.7794 0.47145 0.0
C33 C 0.67609 0.73471 0.43111 0.0
O34 O 0.69058 0.75682 0.40845 0.0
O35 O 0.55635 0.69646 0.41857 0.0
O36 O 0.51685 0.71769 0.40964 0.0
O37 O 0.65759 0.80863 0.40587 0.0
O38 O 0.59797 0.78569 0.39453 0.0
C39 C 0.52337 0.69089 0.4142 0.0
C40 C 0.63163 0.8138 0.3949 0.0
O41 O 0.64285 0.72483 0.43883 0.0
Mg42 Mg 0.87927 0.64321 0.57155 0.0
O43 O 0.84633 0.63322 0.61307 0.0
O44 O 0.78555 0.59336 0.60634 0.0
Mg45 Mg 0.77959 0.58035 0.55704 0.0
C46 C 0.81315 0.61423 0.62291 0.0
C47 C 0.95614 0.7024 0.59895 0.0
O48 O 0.95499 0.72356 0.57808 0.0
O49 O 0.87178 0.58483 0.57571 0.0
O50 O 0.81147 0.54848 0.56316 0.0
O51 O 0.8703 0.69074 0.55976 0.0
O52 O 0.83284 0.6318 0.54665 0.0
C53 C 0.84334 0.55272 0.57026 0.0
C54 C 0.84003 0.66596 0.54675 0.0
O55 O 0.93056 0.66825 0.60051 0.0
Mg56 Mg 0.23041 0.85773 0.76638 0.0
O57 O 0.20811 0.82775 0.80938 0.0
O58 O 0.18373 0.76621 0.80334 0.0
Mg59 Mg 0.18625 0.75678 0.75404 0.0
C60 C 0.1928 0.79464 0.81965 0.0
C61 C 0.26382 0.94134 0.78223 0.0
O62 O 0.24857 0.9401 0.75683 0.0
O63 O 0.27858 0.84604 0.76904 0.0
O64 O 0.25043 0.7852 0.75685 0.0
O65 O 0.17551 0.85321 0.75564 0.0
O66 O 0.19141 0.81129 0.74323 0.0
C67 C 0.27977 0.81639 0.76303 0.0
C68 C 0.16678 0.82169 0.74308 0.0
O69 O 0.26231 0.91181 0.79194 0.0
Mg70 Mg 0.36794 0.242 0.91635 0.0
O71 O 0.3769 0.22525 0.96135 0.0
O72 O 0.41634 0.2033 0.96035 0.0
Mg73 Mg 0.43335 0.20677 0.91232 0.0
C74 C 0.39494 0.21195 0.97426 0.0
C75 C 0.30545 0.25837 0.93642 0.0
O76 O 0.28661 0.23288 0.91645 0.0
O77 O 0.42505 0.29479 0.91813 0.0
O78 O 0.46356 0.27127 0.91528 0.0
O79 O 0.32204 0.1838 0.9079 0.0
O80 O 0.38144 0.20467 0.89673 0.0
C81 C 0.45784 0.29894 0.91723 0.0
C82 C 0.34738 0.17725 0.89745 0.0
O83 O 0.34008 0.26991 0.93987 0.0
Mg84 Mg 0.61619 0.86402 0.74576 0.0
O85 O 0.60679 0.83523 0.70187 0.0
O86 O 0.57115 0.77336 0.70707 0.0
Mg87 Mg 0.56108 0.76262 0.75643 0.0
C88 C 0.58924 0.80234 0.69106 0.0
C89 C 0.66554 0.94789 0.73037 0.0
O90 O 0.68173 0.9462 0.75451 0.0
O91 O 0.55592 0.85136 0.74549 0.0
O92 O 0.52439 0.79007 0.75624 0.0
O93 O 0.66756 0.86014 0.75349 0.0
O94 O 0.61054 0.81724 0.76711 0.0
C95 C 0.52551 0.82117 0.75144 0.0
C96 C 0.64565 0.82805 0.76561 0.0
O97 O 0.63648 0.91859 0.72144 0.0
Mg98 Mg 0.76127 0.62741 0.90046 0.0
O99 O 0.7784 0.61904 0.85538 0.0
O100 O 0.79785 0.57757 0.85581 0.0
Mg101 Mg 0.79325 0.55946 0.90367 0.0
C102 C 0.79064 0.60017 0.8422 0.0
C103 C 0.74464 0.69098 0.88299 0.0
O104 O 0.76853 0.70883 0.90414 0.0
O105 O 0.7076 0.57122 0.8974 0.0
O106 O 0.72893 0.53086 0.90012 0.0
O107 O 0.81974 0.67178 0.91062 0.0
O108 O 0.79644 0.61158 0.92032 0.0
C109 C 0.70216 0.53789 0.89797 0.0
C110 C 0.82449 0.6453 0.92114 0.0
O111 O 0.73494 0.65709 0.87764 0.0
Mg112 Mg 0.10786 0.73561 0.09242 0.0
O113 O 0.13844 0.7556 0.04967 0.0
O114 O 0.19966 0.77802 0.0547 0.0
Mg115 Mg 0.20831 0.77472 0.10409 0.0
C116 C 0.17109 0.76959 0.03883 0.0
C117 C 0.02986 0.71528 0.06656 0.0
O118 O 0.03204 0.73885 0.08682 0.0
O119 O 0.11558 0.68481 0.09054 0.0
O120 O 0.17651 0.71029 0.10138 0.0
O121 O 0.11662 0.79265 0.10161 0.0
O122 O 0.15554 0.77346 0.11534 0.0
C123 C 0.14435 0.68186 0.09594 0.0
C124 C 0.14776 0.79999 0.11404 0.0
O125 O 0.05522 0.70653 0.06497 0.0
Mg126 Mg 0.35278 0.12005 0.24546 0.0
O127 O 0.3611 0.15112 0.20285 0.0
O128 O 0.39844 0.21252 0.20988 0.0
Mg129 Mg 0.41055 0.22085 0.25912 0.0
C130 C 0.37907 0.18453 0.19315 0.0
C131 C 0.29865 0.03828 0.22813 0.0
O132 O 0.28359 0.0414 0.25244 0.0
O133 O 0.41264 0.13113 0.24251 0.0
O134 O 0.44543 0.1918 0.25526 0.0
O135 O 0.30284 0.12536 0.2565 0.0
O136 O 0.36098 0.16633 0.26914 0.0
C137 C 0.44355 0.16074 0.24871 0.0
C138 C 0.32612 0.15662 0.26919 0.0
O139 O 0.3292 0.06608 0.21946 0.0
Mg140 Mg 0.22528 0.35649 0.42217 0.0
O141 O 0.20705 0.36656 0.37838 0.0
O142 O 0.18783 0.4081 0.38157 0.0
Mg143 Mg 0.19081 0.42203 0.43063 0.0
C144 C 0.19497 0.38632 0.36656 0.0
C145 C 0.24136 0.29446 0.40074 0.0
O146 O 0.21731 0.27573 0.42155 0.0
O147 O 0.27796 0.41375 0.4193 0.0
O148 O 0.25515 0.45193 0.4285 0.0
O149 O 0.16737 0.31034 0.43186 0.0
O150 O 0.18922 0.36971 0.44379 0.0
C151 C 0.28255 0.44638 0.42379 0.0
C152 C 0.1617 0.33573 0.44347 0.0
O153 O 0.25197 0.32886 0.39702 0.0
Mg154 Mg 0.85716 0.24378 0.5896 0.0
O155 O 0.8269 0.22536 0.54633 0.0
O156 O 0.76668 0.20803 0.5513 0.0
Mg157 Mg 0.75822 0.21291 0.60049 0.0
C158 C 0.79455 0.21383 0.53547 0.0
C159 C 0.93636 0.26135 0.56969 0.0
O160 O 0.93217 0.2402 0.59237 0.0
O161 O 0.85473 0.29735 0.58682 0.0
O162 O 0.79449 0.27726 0.59699 0.0
O163 O 0.84404 0.18565 0.59914 0.0
O164 O 0.80804 0.2088 0.61209 0.0
C165 C 0.82784 0.30359 0.5915 0.0
C166 C 0.81346 0.18064 0.61118 0.0
O167 O 0.91109 0.26929 0.56384 0.0
C168 C 0.16425 0.63768 0.11398 0.0
C169 C 0.14066 0.64438 0.09617 0.0
C170 C 0.16233 0.6028 0.11386 0.0
C171 C 0.13684 0.57425 0.09492 0.0
C172 C 0.11246 0.5806 0.07722 0.0
C173 C 0.11436 0.61555 0.07833 0.0
C174 C 0.18823 0.59682 0.1335 0.0
C175 C 0.08549 0.55104 0.05633 0.0
C176 C 0.16749 0.50532 0.07278 0.0
C177 C 0.14493 0.47447 0.09054 0.0
C178 C 0.16392 0.53734 0.07313 0.0
C179 C 0.13782 0.53889 0.09225 0.0
C180 C 0.11456 0.50761 0.10997 0.0
C181 C 0.11809 0.47549 0.10863 0.0
C182 C 0.18867 0.56983 0.05346 0.0
C183 C 0.087 0.50862 0.13106 0.0
H184 H 0.18427 0.65979 0.1281 0.0
H185 H 0.09618 0.62076 0.06448 0.0
H186 H 0.17204 0.57079 0.14641 0.0
H187 H 0.20869 0.59333 0.12014 0.0
H188 H 0.20399 0.62066 0.14874 0.0
H189 H 0.06695 0.55958 0.04535 0.0
H190 H 0.10143 0.54559 0.03944 0.0
H191 H 0.06779 0.52425 0.06795 0.0
H192 H 0.18793 0.50437 0.05848 0.0
H193 H 0.10072 0.45166 0.12244 0.0
H194 H 0.20839 0.59434 0.06679 0.0
H195 H 0.17145 0.57838 0.04058 0.0
H196 H 0.20525 0.56292 0.03818 0.0
H197 H 0.10238 0.53045 0.14786 0.0
H198 H 0.06961 0.48129 0.14216 0.0
H199 H 0.06819 0.51633 0.11958 0.0
C200 C 0.62321 0.13735 0.27008 0.0
C201 C 0.65331 0.16456 0.25377 0.0
C202 C 0.58794 0.13461 0.26899 0.0
C203 C 0.58256 0.15905 0.25061 0.0
C204 C 0.61259 0.18583 0.23347 0.0
C205 C 0.64777 0.18858 0.23555 0.0
C206 C 0.55678 0.10635 0.28812 0.0
C207 C 0.6077 0.21188 0.21319 0.0
C208 C 0.48333 0.13463 0.23121 0.0
C209 C 0.4785 0.15924 0.24936 0.0
C210 C 0.51715 0.1342 0.23131 0.0
C211 C 0.54621 0.15824 0.25057 0.0
C212 C 0.54103 0.18243 0.26943 0.0
C213 C 0.50741 0.18296 0.26833 0.0
C214 C 0.52211 0.10867 0.21044 0.0
C215 C 0.57106 0.20789 0.29071 0.0
H216 H 0.6275 0.11884 0.28427 0.0
H217 H 0.67089 0.20933 0.22264 0.0
H218 H 0.54815 0.12114 0.30378 0.0
H219 H 0.53187 0.08775 0.27473 0.0
H220 H 0.56525 0.08872 0.30058 0.0
H221 H 0.63306 0.22915 0.19978 0.0
H222 H 0.58355 0.19551 0.19843 0.0
H223 H 0.6015 0.23097 0.22599 0.0
H224 H 0.46103 0.11641 0.21644 0.0
H225 H 0.50356 0.2017 0.28266 0.0
H226 H 0.5288 0.08956 0.22262 0.0
H227 H 0.54607 0.12562 0.19569 0.0
H228 H 0.49669 0.09153 0.19702 0.0
H229 H 0.57925 0.19125 0.30469 0.0
H230 H 0.56178 0.22353 0.30494 0.0
H231 H 0.59646 0.22847 0.27871 0.0
C232 C 0.46007 0.6432 0.39678 0.0
C233 C 0.49129 0.65226 0.41428 0.0
C234 C 0.42829 0.60738 0.39761 0.0
C235 C 0.42736 0.58028 0.417 0.0
C236 C 0.45918 0.58893 0.43421 0.0
C237 C 0.49107 0.62482 0.43238 0.0
C238 C 0.39522 0.59897 0.37843 0.0
C239 C 0.45889 0.56096 0.45553 0.0
C240 C 0.329 0.51028 0.44112 0.0
C241 C 0.32073 0.47918 0.42364 0.0
C242 C 0.36439 0.54265 0.44026 0.0
C243 C 0.39185 0.54426 0.42089 0.0
C244 C 0.38401 0.51258 0.40368 0.0
C245 C 0.34855 0.48013 0.40554 0.0
C246 C 0.37194 0.57556 0.45942 0.0
C247 C 0.41237 0.51359 0.38237 0.0
H248 H 0.46044 0.66427 0.38245 0.0
H249 H 0.51521 0.63188 0.44598 0.0
H250 H 0.38582 0.57243 0.36627 0.0
H251 H 0.3714 0.59521 0.39211 0.0
H252 H 0.40186 0.62177 0.36254 0.0
H253 H 0.48686 0.57088 0.46551 0.0
H254 H 0.43849 0.55588 0.47318 0.0
H255 H 0.44971 0.53368 0.44462 0.0
H256 H 0.30764 0.50937 0.45544 0.0
H257 H 0.34211 0.45608 0.39196 0.0
H258 H 0.37513 0.59913 0.44572 0.0
H259 H 0.39853 0.5856 0.47159 0.0
H260 H 0.349 0.56843 0.4753 0.0
H261 H 0.41697 0.53382 0.36471 0.0
H262 H 0.40311 0.4857 0.37241 0.0
H263 H 0.43973 0.52344 0.39328 0.0
C264 C 0.82418 0.48769 0.55499 0.0
C265 C 0.84674 0.51889 0.5725 0.0
C266 C 0.82498 0.45432 0.55791 0.0
C267 C 0.84827 0.45184 0.57935 0.0
C268 C 0.87179 0.48354 0.59667 0.0
C269 C 0.87106 0.51695 0.59279 0.0
C270 C 0.80009 0.42137 0.53858 0.0
C271 C 0.89645 0.48166 0.62009 0.0
C272 C 0.81236 0.35264 0.60556 0.0
C273 C 0.83518 0.34246 0.59007 0.0
C274 C 0.81764 0.38887 0.60337 0.0
C275 C 0.84588 0.41523 0.58471 0.0
C276 C 0.8696 0.40542 0.56953 0.0
C277 C 0.8642 0.36917 0.57263 0.0
C278 C 0.79226 0.39856 0.62036 0.0
C279 C 0.89953 0.4326 0.54903 0.0
H280 H 0.80569 0.48932 0.53903 0.0
H281 H 0.88839 0.54106 0.60643 0.0
H282 H 0.81669 0.41022 0.52798 0.0
H283 H 0.77815 0.39845 0.55192 0.0
H284 H 0.78613 0.42893 0.52137 0.0
H285 H 0.91494 0.50944 0.63029 0.0
H286 H 0.87869 0.46179 0.6373 0.0
H287 H 0.91415 0.47088 0.61097 0.0
H288 H 0.7902 0.33219 0.61936 0.0
H289 H 0.88183 0.36132 0.56056 0.0
H290 H 0.774 0.40302 0.60512 0.0
H291 H 0.80911 0.42507 0.63264 0.0
H292 H 0.77414 0.37612 0.63595 0.0
H293 H 0.88617 0.43833 0.53029 0.0
H294 H 0.91741 0.42162 0.54055 0.0
H295 H 0.91767 0.45974 0.56014 0.0
C296 C 0.46198 0.79743 0.77251 0.0
C297 C 0.49038 0.82216 0.75365 0.0
C298 C 0.42839 0.7979 0.77509 0.0
C299 C 0.42275 0.82304 0.75783 0.0
C300 C 0.45132 0.84807 0.73871 0.0
C301 C 0.48508 0.84767 0.73714 0.0
C302 C 0.39888 0.77137 0.79619 0.0
C303 C 0.44586 0.8746 0.71945 0.0
C304 C 0.32163 0.79455 0.7431 0.0
C305 C 0.3164 0.81831 0.76196 0.0
C306 C 0.35638 0.7964 0.74111 0.0
C307 C 0.38632 0.82199 0.75898 0.0
C308 C 0.38115 0.84583 0.7783 0.0
C309 C 0.34629 0.84406 0.77927 0.0
C310 C 0.36109 0.77108 0.71982 0.0
C311 C 0.41222 0.87277 0.79819 0.0
H312 H 0.46622 0.77799 0.78557 0.0
H313 H 0.50699 0.86669 0.72246 0.0
H314 H 0.39083 0.78723 0.81124 0.0
H315 H 0.3733 0.75123 0.78411 0.0
H316 H 0.40861 0.75524 0.80929 0.0
H317 H 0.47097 0.8925 0.70598 0.0
H318 H 0.42161 0.85838 0.70474 0.0
H319 H 0.43938 0.89301 0.73291 0.0
H320 H 0.29866 0.77491 0.72944 0.0
H321 H 0.34221 0.86233 0.79397 0.0
H322 H 0.36787 0.75184 0.73171 0.0
H323 H 0.38483 0.78806 0.70489 0.0
H324 H 0.33548 0.75398 0.70657 0.0
H325 H 0.42124 0.85708 0.81248 0.0
H326 H 0.40353 0.88917 0.8121 0.0
H327 H 0.43694 0.89259 0.78517 0.0
C328 C 0.49095 0.36394 0.89768 0.0
C329 C 0.49054 0.33701 0.91646 0.0
C330 C 0.52376 0.39868 0.89378 0.0
C331 C 0.5563 0.40692 0.90986 0.0
C332 C 0.55525 0.38047 0.93005 0.0
C333 C 0.52254 0.34548 0.93268 0.0
C334 C 0.52417 0.42567 0.87139 0.0
C335 C 0.58899 0.38871 0.9483 0.0
C336 C 0.65425 0.47362 0.88241 0.0
C337 C 0.66353 0.50613 0.89832 0.0
C338 C 0.61856 0.44176 0.88475 0.0
C339 C 0.5922 0.44207 0.90437 0.0
C340 C 0.60125 0.47516 0.92006 0.0
C341 C 0.63672 0.50711 0.91645 0.0
C342 C 0.6095 0.40741 0.8669 0.0
C343 C 0.57434 0.4762 0.94183 0.0
H344 H 0.46621 0.35705 0.88491 0.0
H345 H 0.522 0.32456 0.94728 0.0
H346 H 0.53468 0.45383 0.88116 0.0
H347 H 0.54359 0.42882 0.85346 0.0
H348 H 0.49596 0.416 0.86199 0.0
H349 H 0.58229 0.3669 0.96513 0.0
H350 H 0.61147 0.39022 0.93411 0.0
H351 H 0.60026 0.41631 0.95928 0.0
H352 H 0.67506 0.47308 0.86829 0.0
H353 H 0.64419 0.53223 0.92898 0.0
H354 H 0.58222 0.39681 0.85562 0.0
H355 H 0.60692 0.38476 0.88141 0.0
H356 H 0.6314 0.41317 0.85035 0.0
H357 H 0.54658 0.46641 0.93165 0.0
H358 H 0.58471 0.50476 0.95089 0.0
H359 H 0.57011 0.45684 0.96008 0.0
C360 C 0.17723 0.28355 0.05471 0.0
C361 C 0.18323 0.32016 0.05398 0.0
C362 C 0.19866 0.27326 0.03728 0.0
C363 C 0.22627 0.30013 0.01846 0.0
C364 C 0.23327 0.33741 0.0184 0.0
C365 C 0.21183 0.34701 0.03628 0.0
C366 C 0.19092 0.23339 0.03829 0.0
C367 C 0.26228 0.3668 0.99849 0.0
C368 C 0.30095 0.28387 0.98467 0.0
C369 C 0.28573 0.2701 0.95701 0.0
C370 C 0.28153 0.29297 0.00517 0.0
C371 C 0.24646 0.28893 0.99759 0.0
C372 C 0.23112 0.27534 0.9696 0.0
C373 C 0.2508 0.26573 0.94974 0.0
C374 C 0.29845 0.30671 0.03497 0.0
C375 C 0.19403 0.27121 0.96057 0.0
H376 H 0.15526 0.26271 0.06841 0.0
H377 H 0.21659 0.37534 0.03547 0.0
H378 H 0.17896 0.21933 0.01718 0.0
H379 H 0.21738 0.23305 0.04164 0.0
H380 H 0.17097 0.21688 0.05591 0.0
H381 H 0.26551 0.39493 0.00207 0.0
H382 H 0.28987 0.36886 0.00184 0.0
H383 H 0.25415 0.35856 0.97545 0.0
H384 H 0.32771 0.28675 0.99056 0.0
H385 H 0.23895 0.25503 0.9284 0.0
H386 H 0.27846 0.28881 0.05206 0.0
H387 H 0.30396 0.33567 0.03849 0.0
H388 H 0.32513 0.30659 0.03787 0.0
H389 H 0.17161 0.25187 0.97563 0.0
H390 H 0.18602 0.26028 0.93801 0.0
H391 H 0.19544 0.29877 0.96196 0.0
C392 C 0.85095 0.22052 0.20976 0.0
C393 C 0.84436 0.19018 0.22753 0.0
C394 C 0.88356 0.23915 0.19287 0.0
C395 C 0.91034 0.22732 0.19399 0.0
C396 C 0.90485 0.19808 0.21311 0.0
C397 C 0.87179 0.17971 0.22959 0.0
C398 C 0.88841 0.27021 0.17272 0.0
C399 C 0.93312 0.18513 0.21523 0.0
C400 C 0.97005 0.24367 0.1267 0.0
C401 C 0.00343 0.27612 0.13443 0.0
C402 C 0.93955 0.22748 0.14596 0.0
C403 C 0.94277 0.24389 0.17373 0.0
C404 C 0.97657 0.27639 0.1818 0.0
C405 C 0.00642 0.29228 0.16196 0.0
C406 C 0.90378 0.19298 0.13651 0.0
C407 C 0.98119 0.29435 0.21136 0.0
H408 H 0.82988 0.22877 0.20802 0.0
H409 H 0.86695 0.15639 0.24339 0.0
H410 H 0.91615 0.29564 0.17622 0.0
H411 H 0.88746 0.2613 0.14976 0.0
H412 H 0.8663 0.27774 0.17589 0.0
H413 H 0.92648 0.16464 0.23313 0.0
H414 H 0.93375 0.17173 0.19442 0.0
H415 H 0.96163 0.20942 0.21883 0.0
H416 H 0.96759 0.23109 0.10547 0.0
H417 H 0.03231 0.31718 0.16819 0.0
H418 H 0.88024 0.19874 0.137 0.0
H419 H 0.89674 0.16961 0.15186 0.0
H420 H 0.90585 0.18368 0.1142 0.0
H421 H 0.96063 0.30399 0.21396 0.0
H422 H 0.00981 0.3187 0.21466 0.0
H423 H 0.97542 0.2735 0.22876 0.0
C424 C 0.61285 0.85332 0.36649 0.0
C425 C 0.6405 0.85003 0.38177 0.0
C426 C 0.62184 0.88587 0.35073 0.0
C427 C 0.65934 0.91579 0.35032 0.0
C428 C 0.68701 0.91337 0.36684 0.0
C429 C 0.67726 0.88045 0.38235 0.0
C430 C 0.59157 0.88749 0.33342 0.0
C431 C 0.72726 0.94491 0.36711 0.0
C432 C 0.69435 0.97951 0.28442 0.0
C433 C 0.69477 0.0117 0.2948 0.0
C434 C 0.68214 0.94782 0.30213 0.0
C435 C 0.67025 0.94845 0.33095 0.0
C436 C 0.66979 0.98053 0.34138 0.0
C437 C 0.68197 0.01177 0.32313 0.0
C438 C 0.68272 0.91394 0.29018 0.0
C439 C 0.65732 0.98217 0.37201 0.0
H440 H 0.58438 0.82992 0.36588 0.0
H441 H 0.69872 0.87814 0.39422 0.0
H442 H 0.59148 0.91383 0.33821 0.0
H443 H 0.59727 0.88747 0.3098 0.0
H444 H 0.56327 0.86334 0.3381 0.0
H445 H 0.74468 0.93986 0.38286 0.0
H446 H 0.73954 0.94813 0.34506 0.0
H447 H 0.72874 0.97181 0.37272 0.0
H448 H 0.70406 0.97921 0.26253 0.0
H449 H 0.68226 0.03659 0.33135 0.0
H450 H 0.65451 0.88867 0.29209 0.0
H451 H 0.70234 0.90869 0.30311 0.0
H452 H 0.69149 0.91748 0.26697 0.0
H453 H 0.62877 0.95814 0.37593 0.0
H454 H 0.65717 0.00862 0.37637 0.0
H455 H 0.67633 0.97988 0.3879 0.0
C456 C 0.73372 0.73025 0.43825 0.0
C457 C 0.69917 0.72403 0.44879 0.0
C458 C 0.75649 0.7214 0.45517 0.0
C459 C 0.74458 0.70637 0.48342 0.0
C460 C 0.70986 0.70026 0.49428 0.0
C461 C 0.68743 0.70895 0.47675 0.0
C462 C 0.79317 0.72786 0.44273 0.0
C463 C 0.69641 0.68455 0.5244 0.0
C464 C 0.78556 0.64966 0.51436 0.0
C465 C 0.81439 0.67606 0.53219 0.0
C466 C 0.76233 0.65905 0.49871 0.0
C467 C 0.76786 0.69569 0.50111 0.0
C468 C 0.7963 0.72227 0.51961 0.0
C469 C 0.81942 0.71218 0.53486 0.0
C470 C 0.73247 0.63001 0.47904 0.0
C471 C 0.80269 0.76151 0.52289 0.0
H472 H 0.74293 0.7419 0.41666 0.0
H473 H 0.66091 0.70441 0.48515 0.0
H474 H 0.81669 0.74698 0.45712 0.0
H475 H 0.79309 0.70092 0.44172 0.0
H476 H 0.79853 0.74013 0.42052 0.0
H477 H 0.66938 0.68281 0.53 0.0
H478 H 0.69278 0.65606 0.52595 0.0
H479 H 0.71765 0.70232 0.54087 0.0
H480 H 0.78166 0.62175 0.51199 0.0
H481 H 0.84162 0.73267 0.54865 0.0
H482 H 0.73809 0.63988 0.45614 0.0
H483 H 0.70461 0.62596 0.48496 0.0
H484 H 0.73116 0.60246 0.48025 0.0
H485 H 0.81121 0.77626 0.50166 0.0
H486 H 0.82469 0.77822 0.53925 0.0
H487 H 0.77629 0.76043 0.52948 0.0
C488 C 0.01896 0.75183 0.61678 0.0
C489 C 0.98509 0.71867 0.62187 0.0
C490 C 0.04656 0.76748 0.63849 0.0
C491 C 0.03972 0.7499 0.66609 0.0
C492 C 0.00516 0.71691 0.67158 0.0
C493 C 0.9784 0.70144 0.64928 0.0
C494 C 0.08331 0.80245 0.63172 0.0
C495 C -0.00345 0.69781 0.7009 0.0
C496 C 0.12633 0.77016 0.70883 0.0
C497 C 0.13136 0.79994 0.72676 0.0
C498 C 0.09587 0.75279 0.68966 0.0
C499 C 0.06955 0.7652 0.68865 0.0
C500 C 0.07325 0.79378 0.70786 0.0
C501 C 0.10431 0.81102 0.72661 0.0
C502 C 0.09299 0.72249 0.66943 0.0
C503 C 0.04527 0.80719 0.70777 0.0
H504 H 0.02415 0.76521 0.59564 0.0
H505 H 0.95196 0.67608 0.65346 0.0
H506 H 0.08844 0.82499 0.64745 0.0
H507 H 0.10668 0.79661 0.63404 0.0
H508 H 0.084 0.81293 0.60932 0.0
H509 H 0.96726 0.67409 0.70231 0.0
H510 H 0.01585 0.68695 0.7051 0.0
H511 H 0.0011 0.71823 0.71844 0.0
H512 H 0.14712 0.76145 0.70875 0.0
H513 H 0.10797 0.83392 0.74049 0.0
H514 H 0.09644 0.73236 0.64656 0.0
H515 H 0.0649 0.69705 0.67119 0.0
H516 H 0.11455 0.7146 0.67412 0.0
H517 H 0.04752 0.82194 0.68702 0.0
H518 H 0.04987 0.82668 0.72611 0.0
H519 H 0.01629 0.78301 0.70914 0.0
C520 C 0.29057 0.97518 0.82923 0.0
C521 C 0.27971 0.97567 0.80033 0.0
C522 C 0.30322 0.00682 0.84724 0.0
C523 C 0.3052 0.03969 0.83601 0.0
C524 C 0.29516 0.04065 0.80666 0.0
C525 C 0.28247 0.00859 0.7892 0.0
C526 C 0.3137 0.00481 0.87842 0.0
C527 C 0.29716 0.07533 0.79385 0.0
C528 C 0.3 0.11095 0.88513 0.0
C529 C 0.33737 0.14018 0.88518 0.0
C530 C 0.28937 0.07734 0.8702 0.0
C531 C 0.31679 0.07295 0.85498 0.0
C532 C 0.35483 0.10162 0.85615 0.0
C533 C 0.36468 0.13492 0.87124 0.0
C534 C 0.24853 0.04724 0.86961 0.0
C535 C 0.38488 0.09788 0.8403 0.0
H536 H 0.28847 0.94981 0.83803 0.0
H537 H 0.27427 0.00923 0.76688 0.0
H538 H 0.34259 0.02788 0.88297 0.0
H539 H 0.29469 0.00854 0.8934 0.0
H540 H 0.31203 0.97766 0.88346 0.0
H541 H 0.28946 0.07185 0.7704 0.0
H542 H 0.27795 0.08212 0.80584 0.0
H543 H 0.3259 0.09968 0.79625 0.0
H544 H 0.27877 0.11475 0.89593 0.0
H545 H 0.39363 0.15736 0.87117 0.0
H546 H 0.24528 0.01977 0.87583 0.0
H547 H 0.23743 0.0443 0.84715 0.0
H548 H 0.23124 0.05366 0.88449 0.0
H549 H 0.38312 0.07084 0.84577 0.0
H550 H 0.41348 0.12109 0.84563 0.0
H551 H 0.38057 0.09793 0.81645 0.0
C552 C 0.73271 0.74379 0.87373 0.0
C553 C 0.73101 0.71068 0.86421 0.0
C554 C 0.71972 0.76259 0.85602 0.0
C555 C 0.70536 0.74823 0.82796 0.0
C556 C 0.70445 0.7153 0.81796 0.0
C557 C 0.71695 0.6967 0.83633 0.0
C558 C 0.72068 0.7974 0.86756 0.0
C559 C 0.68996 0.69953 0.78798 0.0
C560 C 0.637 0.77475 0.79659 0.0
C561 C 0.66036 0.80537 0.77885 0.0
C562 C 0.65118 0.75541 0.81217 0.0
C563 C 0.68959 0.7667 0.80972 0.0
C564 C 0.71303 0.79656 0.7909 0.0
C565 C 0.69816 0.81575 0.77579 0.0
C566 C 0.62533 0.72382 0.83215 0.0
C567 C 0.754 0.8089 0.78738 0.0
H568 H 0.74361 0.75468 0.89524 0.0
H569 H 0.71608 0.67137 0.8287 0.0
H570 H 0.7369 0.82129 0.85259 0.0
H571 H 0.69178 0.79276 0.86861 0.0
H572 H 0.73338 0.80531 0.88961 0.0
H573 H 0.6937 0.67529 0.78274 0.0
H574 H 0.65971 0.69029 0.7865 0.0
H575 H 0.70464 0.72152 0.77123 0.0
H576 H 0.60778 0.76664 0.79918 0.0
H577 H 0.71632 0.83933 0.76205 0.0
H578 H 0.63499 0.73126 0.85502 0.0
H579 H 0.62601 0.69794 0.82672 0.0
H580 H 0.59588 0.71763 0.83076 0.0
H581 H 0.76891 0.82064 0.80825 0.0
H582 H 0.76766 0.83052 0.77017 0.0
H583 H 0.75734 0.78452 0.78186 0.0
C584 C 0.86028 0.62572 0.9533 0.0
C585 C 0.85919 0.65377 0.93681 0.0
C586 C 0.88985 0.63444 0.97264 0.0
C587 C 0.91924 0.67205 0.97525 0.0
C588 C 0.91965 0.70004 0.95715 0.0
C589 C 0.88946 0.6906 0.93823 0.0
C590 C 0.88835 0.60381 0.9916 0.0
C591 C 0.95095 0.74033 0.95891 0.0
C592 C 0.96793 0.70378 0.04846 0.0
C593 C 0.00083 0.7026 0.04369 0.0
C594 C 0.94102 0.69355 0.02639 0.0
C595 C 0.94757 0.6826 0.99874 0.0
C596 C 0.98085 0.68151 0.99375 0.0
C597 C 0.00694 0.69117 0.0164 0.0
C598 C 0.90559 0.69457 0.03265 0.0
C599 C -0.01086 0.67069 0.96441 0.0
H600 H 0.83703 0.59715 0.95232 0.0
H601 H 0.88891 0.71237 0.92541 0.0
H602 H 0.91533 0.60406 0.99066 0.0
H603 H 0.8838 0.60886 0.0146 0.0
H604 H 0.86545 0.57554 0.98507 0.0
H605 H 0.94951 0.75765 0.94099 0.0
H606 H 0.9493 0.75266 0.97998 0.0
H607 H 0.9786 0.74195 0.9581 0.0
H608 H 0.96315 0.7126 0.06951 0.0
H609 H 0.03263 0.69072 0.01248 0.0
H610 H 0.88074 0.66654 0.02861 0.0
H611 H 0.90355 0.71464 0.01776 0.0
H612 H 0.90445 0.70298 0.05546 0.0
H613 H 0.96687 0.64188 0.95856 0.0
H614 H 0.01661 0.67181 0.96399 0.0
H615 H -0.01078 0.68979 0.94738 0.0
C616 C 0.29119 0.00294 0.18184 0.0
C617 C 0.27895 0.00388 0.21019 0.0
C618 C 0.27155 0.97105 0.16415 0.0
C619 C 0.23912 0.93934 0.1752 0.0
C620 C 0.22691 0.93998 0.20391 0.0
C621 C 0.2469 0.97228 0.22102 0.0
C622 C 0.28529 0.97139 0.1336 0.0
C623 C 0.19261 0.90655 0.21655 0.0
C624 C 0.16522 0.86631 0.12514 0.0
C625 C 0.17323 0.83711 0.12708 0.0
C626 C 0.18731 0.90037 0.13986 0.0
C627 C 0.21797 0.90519 0.15698 0.0
C628 C 0.22695 0.87631 0.15818 0.0
C629 C 0.20449 0.84265 0.1432 0.0
C630 C 0.17707 0.9307 0.13791 0.0
C631 C 0.25938 0.88037 0.17624 0.0
H632 H 0.31583 0.02733 0.17326 0.0
H633 H 0.23731 0.97277 0.24292 0.0
H634 H 0.29148 0.94829 0.1309 0.0
H635 H 0.26311 0.96651 0.11764 0.0
H636 H 0.31094 -0.00167 0.12827 0.0
H637 H 0.18699 0.91151 0.23931 0.0
H638 H 0.16768 0.89976 0.20306 0.0
H639 H 0.19619 0.88162 0.21622 0.0
H640 H 0.14116 0.86226 0.11267 0.0
H641 H 0.21083 0.8202 0.14494 0.0
H642 H 0.2019 0.95772 0.13156 0.0
H643 H 0.1678 0.93489 0.15958 0.0
H644 H 0.15425 0.92372 0.12195 0.0
H645 H 0.28545 0.90661 0.17046 0.0
H646 H 0.2642 0.85637 0.17327 0.0
H647 H 0.25381 0.88231 0.19964 0.0
C648 C 0.33843 0.20908 0.30271 0.0
C649 C 0.31335 0.17964 0.28465 0.0
C650 C 0.32626 0.22866 0.32028 0.0
C651 C 0.28815 0.21883 0.31956 0.0
C652 C 0.26295 0.19022 0.30048 0.0
C653 C 0.27583 0.17073 0.28334 0.0
C654 C 0.35393 0.25886 0.34049 0.0
C655 C 0.22223 0.1795 0.29882 0.0
C656 C 0.25061 0.24088 0.38759 0.0
C657 C 0.25328 0.27504 0.38006 0.0
C658 C 0.26145 0.22202 0.3679 0.0
C659 C 0.27454 0.23741 0.33989 0.0
C660 C 0.27647 0.27147 0.33194 0.0
C661 C 0.26617 0.2901 0.35225 0.0
C662 C 0.25953 0.186 0.37727 0.0
C663 C 0.28964 0.28836 0.30209 0.0
H664 H 0.36744 0.21602 0.30398 0.0
H665 H 0.25636 0.14807 0.26936 0.0
H666 H 0.35412 0.28552 0.33672 0.0
H667 H 0.34537 0.25058 0.36344 0.0
H668 H 0.38289 0.26405 0.33761 0.0
H669 H 0.20706 0.15889 0.28117 0.0
H670 H 0.20823 0.16709 0.31983 0.0
H671 H 0.21976 0.20475 0.29508 0.0
H672 H 0.24058 0.22917 0.40904 0.0
H673 H 0.2677 0.31624 0.34618 0.0
H674 H 0.28798 0.18942 0.37669 0.0
H675 H 0.24178 0.16304 0.36193 0.0
H676 H 0.24801 0.17742 0.3996 0.0
H677 H 0.31948 0.29653 0.29915 0.0
H678 H 0.28685 0.31352 0.29864 0.0
H679 H 0.27335 0.26736 0.28499 0.0
C680 C 0.0954 0.28919 0.45659 0.0
C681 C 0.1258 0.32597 0.45768 0.0
C682 C 0.06292 0.27871 0.47301 0.0
C683 C 0.06108 0.30559 0.49112 0.0
C684 C 0.09106 0.34309 0.49139 0.0
C685 C 0.12299 0.35286 0.47456 0.0
C686 C 0.03119 0.23858 0.47185 0.0
C687 C 0.09018 0.37251 0.5105 0.0
C688 C 0.96782 0.28667 0.52186 0.0
C689 C 0.96861 0.27345 0.54986 0.0
C690 C -0.0025 0.29678 0.50232 0.0
C691 C 0.0289 0.29409 0.51116 0.0
C692 C 0.03 0.28106 0.53946 0.0
C693 C -0.00031 0.27065 0.55842 0.0
C694 C -0.00482 0.31013 0.47219 0.0
C695 C 0.06326 0.27824 0.54976 0.0
H696 H 0.09735 0.26832 0.44349 0.0
H697 H 0.14639 0.38133 0.47558 0.0
H698 H 0.02854 0.22496 0.49323 0.0
H699 H 0.00426 0.23763 0.46756 0.0
H700 H 0.03556 0.22202 0.45478 0.0
H701 H 0.11476 0.40088 0.50685 0.0
H702 H 0.06428 0.37365 0.50643 0.0
H703 H 0.08984 0.365 0.53374 0.0
H704 H 0.94368 0.28855 0.515 0.0
H705 H 0.00045 0.26049 0.58003 0.0
H706 H -0.00191 0.29225 0.45551 0.0
H707 H 0.01859 0.33919 0.46888 0.0
H708 H 0.96832 0.30961 0.46846 0.0
H709 H 0.06752 0.25912 0.53529 0.0
H710 H 0.0598 0.26773 0.57246 0.0
H711 H 0.08905 0.30618 0.54862 0.0
C712 C 0.7562 0.14111 0.64096 0.0
C713 C 0.78662 0.14447 0.62481 0.0
C714 C 0.73321 0.10856 0.657 0.0
C715 C 0.74086 0.07872 0.65684 0.0
C716 C 0.77044 0.08126 0.63951 0.0
C717 C 0.79301 0.11415 0.62371 0.0
C718 C 0.70183 0.1068 0.67515 0.0
C719 C 0.77927 0.04987 0.63863 0.0
C720 C 0.71474 0.01477 0.72247 0.0
C721 C 0.68291 0.9823 0.71241 0.0
C722 C 0.73331 0.04666 0.70481 0.0
C723 C 0.71976 0.046 0.67635 0.0
C724 C 0.68706 0.01369 0.66633 0.0
C725 C 0.66895 0.98221 0.68451 0.0
C726 C 0.768 0.08074 0.71634 0.0
C727 C 0.67181 0.01201 0.63612 0.0
H728 H 0.75109 0.16443 0.64196 0.0
H729 H 0.81637 0.1165 0.61119 0.0
H730 H 0.67525 0.08036 0.67076 0.0
H731 H 0.70835 0.10692 0.6986 0.0
H732 H 0.69744 0.13084 0.67087 0.0
H733 H 0.80136 0.05506 0.62242 0.0
H734 H 0.78894 0.04666 0.66042 0.0
H735 H 0.75372 0.02292 0.63325 0.0
H736 H 0.7256 0.01511 0.74403 0.0
H737 H 0.64435 0.95721 0.67655 0.0
H738 H 0.76481 0.10585 0.71479 0.0
H739 H 0.79258 0.08622 0.70288 0.0
H740 H 0.77394 0.07728 0.73936 0.0
H741 H 0.66726 0.03606 0.63266 0.0
H742 H 0.64497 0.98558 0.63222 0.0
H743 H 0.69249 0.01422 0.61964 0.0
C744 C 0.18152 0.40855 0.31946 0.0
C745 C 0.19157 0.38517 0.33429 0.0
C746 C 0.18023 0.40868 0.28885 0.0
C747 C 0.18919 0.38488 0.27271 0.0
C748 C 0.19917 0.36112 0.28754 0.0
C749 C 0.20018 0.36151 0.31805 0.0
C750 C 0.16934 0.43431 0.27374 0.0
C751 C 0.20881 0.33523 0.27117 0.0
C752 C 0.15144 0.35769 0.19578 0.0
C753 C 0.18277 0.3817 0.17879 0.0
C754 C 0.15319 0.35854 0.22628 0.0
C755 C 0.18712 0.38394 0.24031 0.0
C756 C 0.21904 0.40792 0.22341 0.0
C757 C 0.2165 0.40652 0.19283 0.0
C758 C 0.11855 0.33236 0.24348 0.0
C759 C 0.25576 0.43529 0.23766 0.0
H760 H 0.17497 0.42702 0.33174 0.0
H761 H 0.20805 0.34332 0.32917 0.0
H762 H 0.19209 0.45348 0.25883 0.0
H763 H 0.14395 0.41754 0.26026 0.0
H764 H 0.1636 0.45142 0.28939 0.0
H765 H 0.21684 0.31912 0.28597 0.0
H766 H 0.18446 0.3151 0.2579 0.0
H767 H 0.23234 0.35161 0.25594 0.0
H768 H 0.12518 0.33834 0.18527 0.0
H769 H 0.24082 0.42526 0.17996 0.0
H770 H 0.11073 0.34877 0.25813 0.0
H771 H 0.12434 0.3139 0.25743 0.0
H772 H 0.09424 0.31448 0.22923 0.0
H773 H 0.25187 0.45489 0.25184 0.0
H774 H 0.27802 0.45189 0.22147 0.0
H775 H 0.26545 0.42001 0.25178 0.0
C776 C 0.75676 0.20108 0.48951 0.0
C777 C 0.79031 0.20914 0.50335 0.0
C778 C 0.75355 0.19857 0.45898 0.0
C779 C 0.78456 0.20415 0.44192 0.0
C780 C 0.81836 0.21199 0.45575 0.0
C781 C 0.82082 0.21438 0.48621 0.0
C782 C 0.71704 0.19013 0.44495 0.0
C783 C 0.85203 0.21793 0.43838 0.0
C784 C 0.76781 0.16332 0.36558 0.0
C785 C 0.77779 0.19496 0.34815 0.0
C786 C 0.76955 0.1659 0.39606 0.0
C787 C 0.78158 0.20097 0.4096 0.0
C788 C 0.79174 0.23307 0.39224 0.0
C789 C 0.78978 0.2297 0.36172 0.0
C790 C 0.75865 0.13104 0.41376 0.0
C791 C 0.80474 0.27096 0.40595 0.0
H792 H 0.7331 0.19715 0.50248 0.0
H793 H 0.84692 0.22061 0.49657 0.0
H794 H 0.72186 0.21306 0.42978 0.0
H795 H 0.70565 0.16399 0.4319 0.0
H796 H 0.69566 0.18681 0.46124 0.0
H797 H 0.87642 0.22429 0.45246 0.0
H798 H 0.84476 0.19246 0.42537 0.0
H799 H 0.86047 0.2414 0.42284 0.0
H800 H 0.75847 0.13629 0.35544 0.0
H801 H 0.79741 0.25428 0.34851 0.0
H802 H 0.73576 0.12589 0.42909 0.0
H803 H 0.78285 0.13502 0.42703 0.0
H804 H 0.7492 0.10574 0.3999 0.0
H805 H 0.78293 0.2694 0.42098 0.0
H806 H 0.81099 0.29304 0.38946 0.0
H807 H 0.83034 0.27947 0.41909 0.0
C808 C 0.56636 0.76344 0.64538 0.0
C809 C 0.58878 0.79833 0.65887 0.0
C810 C 0.56464 0.76002 0.61487 0.0
C811 C 0.58594 0.79221 0.59743 0.0
C812 C 0.60884 0.82741 0.61088 0.0
C813 C 0.60997 0.83005 0.64136 0.0
C814 C 0.53989 0.722 0.60127 0.0
C815 C 0.63215 0.86236 0.59306 0.0
C816 C 0.60964 0.77919 0.51996 0.0
C817 C 0.58353 0.78395 0.50361 0.0
C818 C 0.61062 0.7817 0.55044 0.0
C819 C 0.58483 0.7891 0.56509 0.0
C820 C 0.55852 0.79414 0.54882 0.0
C821 C 0.55823 0.79158 0.51827 0.0
C822 C 0.63927 0.77639 0.56697 0.0
C823 C 0.53058 0.80205 0.56372 0.0
H824 H 0.54978 0.73879 0.65866 0.0
H825 H 0.62744 0.85717 0.65144 0.0
H826 H 0.51886 0.72304 0.58685 0.0
H827 H 0.55696 0.71409 0.5875 0.0
H828 H 0.52493 0.69976 0.61784 0.0
H829 H 0.64837 0.88765 0.60688 0.0
H830 H 0.65204 0.85862 0.57915 0.0
H831 H 0.61381 0.86738 0.57834 0.0
H832 H 0.62938 0.77332 0.50894 0.0
H833 H 0.53786 0.79515 0.50591 0.0
H834 H 0.62498 0.75278 0.58252 0.0
H835 H 0.65756 0.80192 0.57991 0.0
H836 H 0.65718 0.77055 0.55231 0.0
H837 H 0.51316 0.77904 0.57907 0.0
H838 H 0.51178 0.80501 0.54798 0.0
H839 H 0.54552 0.82824 0.5767 0.0
C840 C 0.83831 0.6385 0.67266 0.0
C841 C 0.80782 0.61448 0.65488 0.0
C842 C 0.8354 0.63688 0.70309 0.0
C843 C 0.80111 0.61069 0.71623 0.0
C844 C 0.76988 0.58706 0.69852 0.0
C845 C 0.77359 0.58924 0.66802 0.0
C846 C 0.86934 0.66268 0.72117 0.0
C847 C 0.73282 0.55887 0.71182 0.0
C848 C 0.80534 0.58143 0.79401 0.0
C849 C 0.79447 0.60343 0.81001 0.0
C850 C 0.80733 0.5833 0.76346 0.0
C851 C 0.79826 0.60776 0.74853 0.0
C852 C 0.78744 0.63015 0.76451 0.0
C853 C 0.78571 0.62775 0.795 0.0
C854 C 0.81911 0.55906 0.74711 0.0
C855 C 0.77771 0.65669 0.74942 0.0
H856 H 0.86491 0.65825 0.66282 0.0
H857 H 0.74993 0.57053 0.65454 0.0
H858 H 0.86256 0.67972 0.73601 0.0
H859 H 0.87754 0.6459 0.73495 0.0
H860 H 0.89376 0.68194 0.70754 0.0
H861 H 0.7109 0.54347 0.69508 0.0
H862 H 0.73636 0.53824 0.72488 0.0
H863 H 0.7229 0.57316 0.72684 0.0
H864 H 0.81204 0.56248 0.80534 0.0
H865 H 0.77721 0.64488 0.80704 0.0
H866 H 0.84479 0.57697 0.73427 0.0
H867 H 0.79688 0.54071 0.73148 0.0
H868 H 0.82475 0.54117 0.7619 0.0
H869 H 0.80226 0.67791 0.73695 0.0
H870 H 0.76895 0.67152 0.76499 0.0
H871 H 0.75468 0.64108 0.73359 0.0
C872 C 0.17793 0.75556 0.86498 0.0
C873 C 0.18763 0.78988 0.85168 0.0
C874 C 0.17547 0.7518 0.89546 0.0
C875 C 0.18266 0.78302 0.91301 0.0
C876 C 0.19189 0.81753 0.89972 0.0
C877 C 0.19432 0.82055 0.86929 0.0
C878 C 0.16554 0.71454 0.9089 0.0
C879 C 0.19939 0.85137 0.91766 0.0
C880 C 0.1433 0.766 0.98971 0.0
C881 C 0.17487 0.77425 0.00671 0.0
C882 C 0.14542 0.76851 0.95927 0.0
C883 C 0.17998 0.77957 0.9453 0.0
C884 C 0.21203 0.7881 0.96222 0.0
C885 C 0.20912 0.7854 0.99275 0.0
C886 C 0.11061 0.75933 0.94207 0.0
C887 C 0.24935 0.79994 0.94803 0.0
H888 H 0.17288 0.73176 0.85163 0.0
H889 H 0.20173 0.8472 0.8593 0.0
H890 H 0.18837 0.71803 0.92365 0.0
H891 H 0.13982 0.70407 0.9223 0.0
H892 H 0.16081 0.693 0.89225 0.0
H893 H 0.20621 0.87618 0.90395 0.0
H894 H 0.17449 0.84476 0.93114 0.0
H895 H 0.22308 0.85888 0.93279 0.0
H896 H 0.11662 0.75735 1.00017 0.0
H897 H 0.2336 0.79165 0.00562 0.0
H898 H 0.10426 0.73648 0.92629 0.0
H899 H 0.11538 0.78419 0.92932 0.0
H900 H 0.08573 0.7505 0.95624 0.0
H901 H 0.24658 0.77792 0.93261 0.0
H902 H 0.27147 0.80512 0.9642 0.0
H903 H 0.25855 0.82592 0.93523 0.0
C904 C 0.40435 0.22488 0.14857 0.0
C905 C 0.37914 0.19025 0.16123 0.0
C906 C 0.40672 0.22937 0.11816 0.0
C907 C 0.38319 0.19858 0.10003 0.0
C908 C 0.35697 0.16392 0.11269 0.0
C909 C 0.35531 0.16016 0.14308 0.0
C910 C 0.43502 0.26679 0.10541 0.0
C911 C 0.33115 0.13052 0.0941 0.0
C912 C 0.36737 0.21647 0.02165 0.0
C913 C 0.39164 0.20781 0.00641 0.0
C914 C 0.36452 0.21382 0.0521 0.0
C915 C 0.38646 0.20227 0.06778 0.0
C916 C 0.41099 0.19347 0.05262 0.0
C917 C 0.41325 0.19628 0.02211 0.0
C918 C 0.33791 0.2233 0.06744 0.0
C919 C 0.43489 0.1811 0.06865 0.0
H920 H 0.42294 0.24826 0.16236 0.0
H921 H 0.33556 0.13332 0.15259 0.0
H922 H 0.45568 0.26353 0.09211 0.0
H923 H 0.42088 0.27716 0.0907 0.0
H924 H 0.45034 0.28829 0.12247 0.0
H925 H 0.31146 0.10591 0.10736 0.0
H926 H 0.31462 0.13796 0.07933 0.0
H927 H 0.34789 0.1223 0.08023 0.0
H928 H 0.35053 0.22544 0.00981 0.0
H929 H 0.43217 0.18967 0.0106 0.0
H930 H 0.35337 0.24591 0.08366 0.0
H931 H 0.31649 0.19844 0.07951 0.0
H932 H 0.32337 0.23259 0.05209 0.0
H933 H 0.45303 0.20284 0.0847 0.0
H934 H 0.45296 0.17584 0.05371 0.0
H935 H 0.41675 0.15502 0.08099 0.0
loop_
_geom_bond_atom_site_label_1
_geom_bond_atom_site_label_2
_geom_bond_distance
_geom_bond_site_symmetry_2
_ccdc_geom_bond_type
Mg0 O1 2.028 . S
Mg0 O7 1.986 . S
Mg0 O9 2.114 . S
Mg0 O10 2.251 . S
Mg0 O13 2.010 . S
O1 Mg0 2.028 . S
O1 C4 1.250 . S
O2 Mg3 2.028 . S
O2 C4 1.248 . S
Mg3 O2 2.028 . S
Mg3 O8 2.032 . S
Mg3 O10 2.079 . S
C4 O1 1.250 . S
C4 O2 1.248 . S
C5 O6 1.264 . S
C5 O13 1.249 1_655 S
O6 C5 1.264 . S
O7 Mg0 1.986 . S
O7 C11 1.246 . S
O8 Mg3 2.032 . S
O8 C11 1.259 . S
O9 Mg0 2.114 . S
O9 C12 1.252 . S
O10 Mg0 2.251 . S
O10 Mg3 2.079 . S
O10 C12 1.273 . S
C11 O7 1.246 . S
C11 O8 1.259 . S
C12 O9 1.252 . S
C12 O10 1.273 . S
O13 Mg0 2.010 . S
O13 C5 1.249 1_455 S
Mg14 O15 2.028 . S
Mg14 O21 1.986 . S
Mg14 O23 2.114 . S
Mg14 O24 2.251 . S
Mg14 O27 2.010 . S
O15 Mg14 2.028 . S
O15 C18 1.250 . S
O16 Mg17 2.028 . S
O16 C18 1.248 . S
Mg17 O16 2.028 . S
Mg17 O22 2.032 . S
Mg17 O24 2.079 . S
C18 O15 1.250 . S
C18 O16 1.248 . S
C19 O20 1.264 . S
C19 O27 1.249 1_565 S
O20 C19 1.264 . S
O21 Mg14 1.986 . S
O21 C25 1.246 . S
O22 Mg17 2.032 . S
O22 C25 1.259 . S
O23 Mg14 2.114 . S
O23 C26 1.252 . S
O24 Mg14 2.251 . S
O24 Mg17 2.079 . S
O24 C26 1.273 . S
C25 O21 1.246 . S
C25 O22 1.259 . S
C26 O23 1.252 . S
C26 O24 1.273 . S
O27 Mg14 2.010 . S
O27 C19 1.249 1_545 S
Mg28 O29 2.028 . S
Mg28 O35 1.986 . S
Mg28 O37 2.114 . S
Mg28 O38 2.251 . S
Mg28 O41 2.010 . S
O29 Mg28 2.028 . S
O29 C32 1.250 . S
O30 Mg31 2.028 . S
O30 C32 1.248 . S
Mg31 O30 2.028 . S
Mg31 O36 2.032 . S
Mg31 O38 2.079 . S
C32 O29 1.250 . S
C32 O30 1.248 . S
C33 O34 1.264 . S
C33 O41 1.249 . S
O34 C33 1.264 . S
O35 Mg28 1.986 . S
O35 C39 1.246 . S
O36 Mg31 2.032 . S
O36 C39 1.259 . S
O37 Mg28 2.114 . S
O37 C40 1.252 . S
O38 Mg28 2.251 . S
O38 Mg31 2.079 . S
O38 C40 1.273 . S
C39 O35 1.246 . S
C39 O36 1.259 . S
C40 O37 1.252 . S
C40 O38 1.273 . S
O41 Mg28 2.010 . S
O41 C33 1.249 . S
Mg42 O43 2.028 . S
Mg42 O49 1.986 . S
Mg42 O51 2.114 . S
Mg42 O52 2.251 . S
Mg42 O55 2.010 . S
O43 Mg42 2.028 . S
O43 C46 1.250 . S
O44 Mg45 2.028 . S
O44 C46 1.248 . S
Mg45 O44 2.028 . S
Mg45 O50 2.032 . S
Mg45 O52 2.079 . S
C46 O43 1.250 . S
C46 O44 1.248 . S
C47 O48 1.264 . S
C47 O55 1.249 1_455 S
O48 C47 1.264 . S
O49 Mg42 1.986 . S
O49 C53 1.246 . S
O50 Mg45 2.032 . S
O50 C53 1.259 . S
O51 Mg42 2.114 . S
O51 C54 1.252 . S
O52 Mg42 2.251 . S
O52 Mg45 2.079 . S
O52 C54 1.273 . S
C53 O49 1.246 . S
C53 O50 1.259 . S
C54 O51 1.252 . S
C54 O52 1.273 . S
O55 Mg42 2.010 . S
O55 C47 1.249 1_655 S
Mg56 O57 2.028 . S
Mg56 O63 1.986 . S
Mg56 O65 2.114 . S
Mg56 O66 2.251 . S
Mg56 O69 2.010 . S
O57 Mg56 2.028 . S
O57 C60 1.250 . S
O58 Mg59 2.028 . S
O58 C60 1.248 . S
Mg59 O58 2.028 . S
Mg59 O64 2.032 . S
Mg59 O66 2.079 . S
C60 O57 1.250 . S
C60 O58 1.248 . S
C61 O62 1.264 . S
C61 O69 1.249 1_545 S
O62 C61 1.264 . S
O63 Mg56 1.986 . S
O63 C67 1.246 . S
O64 Mg59 2.032 . S
O64 C67 1.259 . S
O65 Mg56 2.114 . S
O65 C68 1.252 . S
O66 Mg56 2.251 . S
O66 Mg59 2.079 . S
O66 C68 1.273 . S
C67 O63 1.246 . S
C67 O64 1.259 . S
C68 O65 1.252 . S
C68 O66 1.273 . S
O69 Mg56 2.010 . S
O69 C61 1.249 1_565 S
Mg70 O71 2.028 . S
Mg70 O77 1.986 . S
Mg70 O79 2.114 . S
Mg70 O80 2.251 . S
Mg70 O83 2.010 . S
O71 Mg70 2.028 . S
O71 C74 1.250 . S
O72 Mg73 2.028 . S
O72 C74 1.248 . S
Mg73 O72 2.028 . S
Mg73 O78 2.032 . S
Mg73 O80 2.079 . S
C74 O71 1.250 . S
C74 O72 1.248 . S
C75 O76 1.264 . S
C75 O83 1.249 . S
O76 C75 1.264 . S
O77 Mg70 1.986 . S
O77 C81 1.246 . S
O78 Mg73 2.032 . S
O78 C81 1.259 . S
O79 Mg70 2.114 . S
O79 C82 1.252 . S
O80 Mg70 2.251 . S
O80 Mg73 2.079 . S
O80 C82 1.273 . S
C81 O77 1.246 . S
C81 O78 1.259 . S
C82 O79 1.252 . S
C82 O80 1.273 . S
O83 Mg70 2.010 . S
O83 C75 1.249 . S
Mg84 O85 2.028 . S
Mg84 O91 1.986 . S
Mg84 O93 2.114 . S
Mg84 O94 2.251 . S
Mg84 O97 2.010 . S
O85 Mg84 2.028 . S
O85 C88 1.250 . S
O86 Mg87 2.028 . S
O86 C88 1.248 . S
Mg87 O86 2.028 . S
Mg87 O92 2.032 . S
Mg87 O94 2.079 . S
C88 O85 1.250 . S
C88 O86 1.248 . S
C89 O90 1.264 . S
C89 O97 1.249 1_545 S
O90 C89 1.264 . S
O91 Mg84 1.986 . S
O91 C95 1.246 . S
O92 Mg87 2.032 . S
O92 C95 1.259 . S
O93 Mg84 2.114 . S
O93 C96 1.252 . S
O94 Mg84 2.251 . S
O94 Mg87 2.079 . S
O94 C96 1.273 . S
C95 O91 1.246 . S
C95 O92 1.259 . S
C96 O93 1.252 . S
C96 O94 1.273 . S
O97 Mg84 2.010 . S
O97 C89 1.249 1_565 S
Mg98 O99 2.028 . S
Mg98 O105 1.986 . S
Mg98 O107 2.114 . S
Mg98 O108 2.251 . S
Mg98 O111 2.010 . S
O99 Mg98 2.028 . S
O99 C102 1.250 . S
O100 Mg101 2.028 . S
O100 C102 1.248 . S
Mg101 O100 2.028 . S
Mg101 O106 2.032 . S
Mg101 O108 2.079 . S
C102 O99 1.250 . S
C102 O100 1.248 . S
C103 O104 1.264 . S
C103 O111 1.249 . S
O104 C103 1.264 . S
O105 Mg98 1.986 . S
O105 C109 1.246 . S
O106 Mg101 2.032 . S
O106 C109 1.259 . S
O107 Mg98 2.114 . S
O107 C110 1.252 . S
O108 Mg98 2.251 . S
O108 Mg101 2.079 . S
O108 C110 1.273 . S
C109 O105 1.246 . S
C109 O106 1.259 . S
C110 O107 1.252 . S
C110 O108 1.273 . S
O111 Mg98 2.010 . S
O111 C103 1.249 . S
Mg112 O113 2.028 . S
Mg112 O119 1.986 . S
Mg112 O121 2.114 . S
Mg112 O122 2.251 . S
Mg112 O125 2.010 . S
O113 Mg112 2.028 . S
O113 C116 1.250 . S
O114 Mg115 2.028 . S
O114 C116 1.248 . S
Mg115 O114 2.028 . S
Mg115 O120 2.032 . S
Mg115 O122 2.079 . S
C116 O113 1.250 . S
C116 O114 1.248 . S
C117 O118 1.264 . S
C117 O125 1.249 1_655 S
O118 C117 1.264 . S
O119 Mg112 1.986 . S
O119 C123 1.246 . S
O120 Mg115 2.032 . S
O120 C123 1.259 . S
O121 Mg112 2.114 . S
O121 C124 1.252 . S
O122 Mg112 2.251 . S
O122 Mg115 2.079 . S
O122 C124 1.273 . S
C123 O119 1.246 . S
C123 O120 1.259 . S
C124 O121 1.252 . S
C124 O122 1.273 . S
O125 Mg112 2.010 . S
O125 C117 1.249 1_455 S
Mg126 O127 2.028 . S
Mg126 O133 1.986 . S
Mg126 O135 2.114 . S
Mg126 O136 2.251 . S
Mg126 O139 2.010 . S
O127 Mg126 2.028 . S
O127 C130 1.250 . S
O128 Mg129 2.028 . S
O128 C130 1.248 . S
Mg129 O128 2.028 . S
Mg129 O134 2.032 . S
Mg129 O136 2.079 . S
C130 O127 1.250 . S
C130 O128 1.248 . S
C131 O132 1.264 . S
C131 O139 1.249 1_565 S
O132 C131 1.264 . S
O133 Mg126 1.986 . S
O133 C137 1.246 . S
O134 Mg129 2.032 . S
O134 C137 1.259 . S
O135 Mg126 2.114 . S
O135 C138 1.252 . S
O136 Mg126 2.251 . S
O136 Mg129 2.079 . S
O136 C138 1.273 . S
C137 O133 1.246 . S
C137 O134 1.259 . S
C138 O135 1.252 . S
C138 O136 1.273 . S
O139 Mg126 2.010 . S
O139 C131 1.249 1_545 S
Mg140 O141 2.028 . S
Mg140 O147 1.986 . S
Mg140 O149 2.114 . S
Mg140 O150 2.251 . S
Mg140 O153 2.010 . S
O141 Mg140 2.028 . S
O141 C144 1.250 . S
O142 Mg143 2.028 . S
O142 C144 1.248 . S
Mg143 O142 2.028 . S
Mg143 O148 2.032 . S
Mg143 O150 2.079 . S
C144 O141 1.250 . S
C144 O142 1.248 . S
C145 O146 1.264 . S
C145 O153 1.249 . S
O146 C145 1.264 . S
O147 Mg140 1.986 . S
O147 C151 1.246 . S
O148 Mg143 2.032 . S
O148 C151 1.259 . S
O149 Mg140 2.114 . S
O149 C152 1.252 . S
O150 Mg140 2.251 . S
O150 Mg143 2.079 . S
O150 C152 1.273 . S
C151 O147 1.246 . S
C151 O148 1.259 . S
C152 O149 1.252 . S
C152 O150 1.273 . S
O153 Mg140 2.010 . S
O153 C145 1.249 . S
Mg154 O155 2.028 . S
Mg154 O161 1.986 . S
Mg154 O163 2.114 . S
Mg154 O164 2.251 . S
Mg154 O167 2.010 . S
O155 Mg154 2.028 . S
O155 C158 1.250 . S
O156 Mg157 2.028 . S
O156 C158 1.248 . S
Mg157 O156 2.028 . S
Mg157 O162 2.032 . S
Mg157 O164 2.079 . S
C158 O155 1.250 . S
C158 O156 1.248 . S
C159 O160 1.264 . S
C159 O167 1.249 1_455 S
O160 C159 1.264 . S
O161 Mg154 1.986 . S
O161 C165 1.246 . S
O162 Mg157 2.032 . S
O162 C165 1.259 . S
O163 Mg154 2.114 . S
O163 C166 1.252 . S
O164 Mg154 2.251 . S
O164 Mg157 2.079 . S
O164 C166 1.273 . S
C165 O161 1.246 . S
C165 O162 1.259 . S
C166 O163 1.252 . S
C166 O164 1.273 . S
O167 Mg154 2.010 . S
O167 C159 1.249 1_655 S
C168 C169 1.391 . S
C168 C170 1.394 . S
C168 H184 0.931 . S
C169 C168 1.391 . S
C169 C173 1.376 . S
C170 C168 1.394 . S
C170 C171 1.369 . S
C170 C174 1.531 . S
C171 C170 1.369 . S
C171 C172 1.410 . S
C171 C179 1.503 . S
C172 C171 1.410 . S
C172 C173 1.392 . S
C172 C175 1.511 . S
C173 C169 1.376 . S
C173 C172 1.392 . S
C173 H185 0.929 . S
C174 C170 1.531 . S
C174 H186 0.960 . S
C174 H187 0.962 . S
C174 H188 0.960 . S
C175 C172 1.511 . S
C175 H189 0.961 . S
C175 H190 0.961 . S
C175 H191 0.961 . S
C176 C177 1.370 . S
C176 C178 1.363 . S
C176 H192 0.931 . S
C177 C176 1.370 . S
C177 C181 1.408 . S
C178 C176 1.363 . S
C178 C179 1.370 . S
C178 C182 1.524 . S
C179 C171 1.503 . S
C179 C178 1.370 . S
C179 C180 1.403 . S
C180 C179 1.403 . S
C180 C181 1.404 . S
C180 C183 1.539 . S
C181 C177 1.408 . S
C181 C180 1.404 . S
C181 H193 0.930 . S
C182 C178 1.524 . S
C182 H194 0.956 . S
C182 H195 0.961 . S
C182 H196 0.961 . S
C183 C180 1.539 . S
C183 H197 0.958 . S
C183 H198 0.961 . S
C183 H199 0.960 . S
H184 C168 0.931 . S
H185 C173 0.929 . S
H186 C174 0.960 . S
H187 C174 0.962 . S
H188 C174 0.960 . S
H189 C175 0.961 . S
H190 C175 0.961 . S
H191 C175 0.961 . S
H192 C176 0.931 . S
H193 C181 0.930 . S
H194 C182 0.956 . S
H195 C182 0.961 . S
H196 C182 0.961 . S
H197 C183 0.958 . S
H198 C183 0.961 . S
H199 C183 0.960 . S
C200 C201 1.391 . S
C200 C202 1.394 . S
C200 H216 0.931 . S
C201 C200 1.391 . S
C201 C205 1.376 . S
C202 C200 1.394 . S
C202 C203 1.369 . S
C202 C206 1.531 . S
C203 C202 1.369 . S
C203 C204 1.410 . S
C203 C211 1.503 . S
C204 C203 1.410 . S
C204 C205 1.392 . S
C204 C207 1.511 . S
C205 C201 1.376 . S
C205 C204 1.392 . S
C205 H217 0.929 . S
C206 C202 1.531 . S
C206 H218 0.960 . S
C206 H219 0.962 . S
C206 H220 0.960 . S
C207 C204 1.511 . S
C207 H221 0.961 . S
C207 H222 0.961 . S
C207 H223 0.961 . S
C208 C209 1.370 . S
C208 C210 1.363 . S
C208 H224 0.931 . S
C209 C208 1.370 . S
C209 C213 1.408 . S
C210 C208 1.363 . S
C210 C211 1.370 . S
C210 C214 1.524 . S
C211 C203 1.503 . S
C211 C210 1.370 . S
C211 C212 1.403 . S
C212 C211 1.403 . S
C212 C213 1.404 . S
C212 C215 1.539 . S
C213 C209 1.408 . S
C213 C212 1.404 . S
C213 H225 0.930 . S
C214 C210 1.524 . S
C214 H226 0.956 . S
C214 H227 0.961 . S
C214 H228 0.961 . S
C215 C212 1.539 . S
C215 H229 0.958 . S
C215 H230 0.961 . S
C215 H231 0.960 . S
H216 C200 0.931 . S
H217 C205 0.929 . S
H218 C206 0.960 . S
H219 C206 0.962 . S
H220 C206 0.960 . S
H221 C207 0.961 . S
H222 C207 0.961 . S
H223 C207 0.961 . S
H224 C208 0.931 . S
H225 C213 0.930 . S
H226 C214 0.956 . S
H227 C214 0.961 . S
H228 C214 0.961 . S
H229 C215 0.958 . S
H230 C215 0.961 . S
H231 C215 0.960 . S
C232 C233 1.391 . S
C232 C234 1.394 . S
C232 H248 0.931 . S
C233 C232 1.391 . S
C233 C237 1.376 . S
C234 C232 1.394 . S
C234 C235 1.369 . S
C234 C238 1.531 . S
C235 C234 1.369 . S
C235 C236 1.410 . S
C235 C243 1.503 . S
C236 C235 1.410 . S
C236 C237 1.392 . S
C236 C239 1.511 . S
C237 C233 1.376 . S
C237 C236 1.392 . S
C237 H249 0.929 . S
C238 C234 1.531 . S
C238 H250 0.960 . S
C238 H251 0.962 . S
C238 H252 0.960 . S
C239 C236 1.511 . S
C239 H253 0.961 . S
C239 H254 0.961 . S
C239 H255 0.961 . S
C240 C241 1.370 . S
C240 C242 1.363 . S
C240 H256 0.931 . S
C241 C240 1.370 . S
C241 C245 1.408 . S
C242 C240 1.363 . S
C242 C243 1.370 . S
C242 C246 1.524 . S
C243 C235 1.503 . S
C243 C242 1.370 . S
C243 C244 1.403 . S
C244 C243 1.403 . S
C244 C245 1.404 . S
C244 C247 1.539 . S
C245 C241 1.408 . S
C245 C244 1.404 . S
C245 H257 0.930 . S
C246 C242 1.524 . S
C246 H258 0.956 . S
C246 H259 0.961 . S
C246 H260 0.961 . S
C247 C244 1.539 . S
C247 H261 0.958 . S
C247 H262 0.961 . S
C247 H263 0.960 . S
H248 C232 0.931 . S
H249 C237 0.929 . S
H250 C238 0.960 . S
H251 C238 0.962 . S
H252 C238 0.960 . S
H253 C239 0.961 . S
H254 C239 0.961 . S
H255 C239 0.961 . S
H256 C240 0.931 . S
H257 C245 0.930 . S
H258 C246 0.956 . S
H259 C246 0.961 . S
H260 C246 0.961 . S
H261 C247 0.958 . S
H262 C247 0.961 . S
H263 C247 0.960 . S
C264 C265 1.391 . S
C264 C266 1.394 . S
C264 H280 0.931 . S
C265 C264 1.391 . S
C265 C269 1.376 . S
C266 C264 1.394 . S
C266 C267 1.369 . S
C266 C270 1.531 . S
C267 C266 1.369 . S
C267 C268 1.410 . S
C267 C275 1.503 . S
C268 C267 1.410 . S
C268 C269 1.392 . S
C268 C271 1.511 . S
C269 C265 1.376 . S
C269 C268 1.392 . S
C269 H281 0.929 . S
C270 C266 1.531 . S
C270 H282 0.960 . S
C270 H283 0.962 . S
C270 H284 0.960 . S
C271 C268 1.511 . S
C271 H285 0.961 . S
C271 H286 0.961 . S
C271 H287 0.961 . S
C272 C273 1.370 . S
C272 C274 1.363 . S
C272 H288 0.931 . S
C273 C272 1.370 . S
C273 C277 1.408 . S
C274 C272 1.363 . S
C274 C275 1.370 . S
C274 C278 1.524 . S
C275 C267 1.503 . S
C275 C274 1.370 . S
C275 C276 1.403 . S
C276 C275 1.403 . S
C276 C277 1.404 . S
C276 C279 1.539 . S
C277 C273 1.408 . S
C277 C276 1.404 . S
C277 H289 0.930 . S
C278 C274 1.524 . S
C278 H290 0.956 . S
C278 H291 0.961 . S
C278 H292 0.961 . S
C279 C276 1.539 . S
C279 H293 0.958 . S
C279 H294 0.961 1_655 S
C279 H295 0.960 . S
H280 C264 0.931 . S
H281 C269 0.929 . S
H282 C270 0.960 . S
H283 C270 0.962 . S
H284 C270 0.960 . S
H285 C271 0.961 . S
H286 C271 0.961 . S
H287 C271 0.961 . S
H288 C272 0.931 . S
H289 C277 0.930 . S
H290 C278 0.956 . S
H291 C278 0.961 . S
H292 C278 0.961 . S
H293 C279 0.958 . S
H294 C279 0.961 1_455 S
H295 C279 0.960 . S
C296 C297 1.391 . S
C296 C298 1.394 . S
C296 H312 0.931 . S
C297 C296 1.391 . S
C297 C301 1.376 . S
C298 C296 1.394 . S
C298 C299 1.369 . S
C298 C302 1.531 . S
C299 C298 1.369 . S
C299 C300 1.410 . S
C299 C307 1.503 . S
C300 C299 1.410 . S
C300 C301 1.392 . S
C300 C303 1.511 . S
C301 C297 1.376 . S
C301 C300 1.392 . S
C301 H313 0.929 . S
C302 C298 1.531 . S
C302 H314 0.960 . S
C302 H315 0.962 . S
C302 H316 0.960 . S
C303 C300 1.511 . S
C303 H317 0.961 . S
C303 H318 0.961 . S
C303 H319 0.961 . S
C304 C305 1.370 . S
C304 C306 1.363 . S
C304 H320 0.931 . S
C305 C304 1.370 . S
C305 C309 1.408 . S
C306 C304 1.363 . S
C306 C307 1.370 . S
C306 C310 1.524 . S
C307 C299 1.503 . S
C307 C306 1.370 . S
C307 C308 1.403 . S
C308 C307 1.403 . S
C308 C309 1.404 . S
C308 C311 1.539 . S
C309 C305 1.408 . S
C309 C308 1.404 . S
C309 H321 0.930 . S
C310 C306 1.524 . S
C310 H322 0.956 . S
C310 H323 0.961 . S
C310 H324 0.961 . S
C311 C308 1.539 . S
C311 H325 0.958 . S
C311 H326 0.961 . S
C311 H327 0.960 . S
H312 C296 0.931 . S
H313 C301 0.929 . S
H314 C302 0.960 . S
H315 C302 0.962 . S
H316 C302 0.960 . S
H317 C303 0.961 . S
H318 C303 0.961 . S
H319 C303 0.961 . S
H320 C304 0.931 . S
H321 C309 0.930 . S
H322 C310 0.956 . S
H323 C310 0.961 . S
H324 C310 0.961 . S
H325 C311 0.958 . S
H326 C311 0.961 . S
H327 C311 0.960 . S
C328 C329 1.391 . S
C328 C330 1.394 . S
C328 H344 0.931 . S
C329 C328 1.391 . S
C329 C333 1.376 . S
C330 C328 1.394 . S
C330 C331 1.369 . S
C330 C334 1.531 . S
C331 C330 1.369 . S
C331 C332 1.410 . S
C331 C339 1.503 . S
C332 C331 1.410 . S
C332 C333 1.392 . S
C332 C335 1.511 . S
C333 C329 1.376 . S
C333 C332 1.392 . S
C333 H345 0.929 . S
C334 C330 1.531 . S
C334 H346 0.960 . S
C334 H347 0.962 . S
C334 H348 0.960 . S
C335 C332 1.511 . S
C335 H349 0.961 . S
C335 H350 0.961 . S
C335 H351 0.961 . S
C336 C337 1.370 . S
C336 C338 1.363 . S
C336 H352 0.931 . S
C337 C336 1.370 . S
C337 C341 1.408 . S
C338 C336 1.363 . S
C338 C339 1.370 . S
C338 C342 1.524 . S
C339 C331 1.503 . S
C339 C338 1.370 . S
C339 C340 1.403 . S
C340 C339 1.403 . S
C340 C341 1.404 . S
C340 C343 1.539 . S
C341 C337 1.408 . S
C341 C340 1.404 . S
C341 H353 0.930 . S
C342 C338 1.524 . S
C342 H354 0.956 . S
C342 H355 0.961 . S
C342 H356 0.961 . S
C343 C340 1.539 . S
C343 H357 0.958 . S
C343 H358 0.961 . S
C343 H359 0.960 . S
H344 C328 0.931 . S
H345 C333 0.929 . S
H346 C334 0.960 . S
H347 C334 0.962 . S
H348 C334 0.960 . S
H349 C335 0.961 . S
H350 C335 0.961 . S
H351 C335 0.961 . S
H352 C336 0.931 . S
H353 C341 0.930 . S
H354 C342 0.956 . S
H355 C342 0.961 . S
H356 C342 0.961 . S
H357 C343 0.958 . S
H358 C343 0.961 . S
H359 C343 0.960 . S
C360 C361 1.391 . S
C360 C362 1.394 . S
C360 H376 0.931 . S
C361 C360 1.391 . S
C361 C365 1.376 . S
C362 C360 1.394 . S
C362 C363 1.369 . S
C362 C366 1.531 . S
C363 C362 1.369 . S
C363 C364 1.410 . S
C363 C371 1.503 . S
C364 C363 1.410 . S
C364 C365 1.392 . S
C364 C367 1.511 1_554 S
C365 C361 1.376 . S
C365 C364 1.392 . S
C365 H377 0.929 . S
C366 C362 1.531 . S
C366 H378 0.960 . S
C366 H379 0.962 . S
C366 H380 0.960 . S
C367 C364 1.511 1_556 S
C367 H381 0.961 . S
C367 H382 0.961 . S
C367 H383 0.961 . S
C368 C369 1.370 . S
C368 C370 1.363 1_556 S
C368 H384 0.931 . S
C369 C368 1.370 . S
C369 C373 1.408 . S
C370 C368 1.363 1_554 S
C370 C371 1.370 . S
C370 C374 1.524 . S
C371 C363 1.503 . S
C371 C370 1.370 . S
C371 C372 1.403 . S
C372 C371 1.403 . S
C372 C373 1.404 1_554 S
C372 C375 1.539 . S
C373 C369 1.408 . S
C373 C372 1.404 1_556 S
C373 H385 0.930 . S
C374 C370 1.524 . S
C374 H386 0.956 . S
C374 H387 0.961 . S
C374 H388 0.964 . S
C375 C372 1.539 . S
C375 H389 0.958 . S
C375 H390 0.961 . S
C375 H391 0.960 . S
H376 C360 0.931 . S
H377 C365 0.929 . S
H378 C366 0.960 . S
H379 C366 0.962 . S
H380 C366 0.960 . S
H381 C367 0.961 . S
H382 C367 0.961 . S
H383 C367 0.961 . S
H384 C368 0.931 . S
H385 C373 0.930 . S
H386 C374 0.956 . S
H387 C374 0.961 . S
H388 C374 0.964 . S
H389 C375 0.958 . S
H390 C375 0.961 . S
H391 C375 0.960 . S
C392 C393 1.391 . S
C392 C394 1.394 . S
C392 H408 0.931 . S
C393 C392 1.391 . S
C393 C397 1.376 . S
C394 C392 1.394 . S
C394 C395 1.369 . S
C394 C398 1.531 . S
C395 C394 1.369 . S
C395 C396 1.410 . S
C395 C403 1.503 . S
C396 C395 1.410 . S
C396 C397 1.392 . S
C396 C399 1.511 . S
C397 C393 1.376 . S
C397 C396 1.392 . S
C397 H409 0.929 . S
C398 C394 1.531 . S
C398 H410 0.960 . S
C398 H411 0.962 . S
C398 H412 0.960 . S
C399 C396 1.511 . S
C399 H413 0.961 . S
C399 H414 0.961 . S
C399 H415 0.961 . S
C400 C401 1.370 . S
C400 C402 1.363 . S
C400 H416 0.931 . S
C401 C400 1.370 . S
C401 C405 1.408 . S
C402 C400 1.363 . S
C402 C403 1.370 . S
C402 C406 1.524 . S
C403 C395 1.503 . S
C403 C402 1.370 . S
C403 C404 1.403 . S
C404 C403 1.403 . S
C404 C405 1.404 . S
C404 C407 1.539 . S
C405 C401 1.408 . S
C405 C404 1.404 . S
C405 H417 0.930 1_655 S
C406 C402 1.524 . S
C406 H418 0.956 . S
C406 H419 0.961 . S
C406 H420 0.961 . S
C407 C404 1.539 . S
C407 H421 0.958 . S
C407 H422 0.961 . S
C407 H423 0.960 . S
H408 C392 0.931 . S
H409 C397 0.929 . S
H410 C398 0.960 . S
H411 C398 0.962 . S
H412 C398 0.960 . S
H413 C399 0.961 . S
H414 C399 0.961 . S
H415 C399 0.961 . S
H416 C400 0.931 . S
H417 C405 0.930 1_455 S
H418 C406 0.956 . S
H419 C406 0.961 . S
H420 C406 0.961 . S
H421 C407 0.958 . S
H422 C407 0.961 . S
H423 C407 0.960 . S
C424 C425 1.391 . S
C424 C426 1.394 . S
C424 H440 0.931 . S
C425 C424 1.391 . S
C425 C429 1.376 . S
C426 C424 1.394 . S
C426 C427 1.369 . S
C426 C430 1.531 . S
C427 C426 1.369 . S
C427 C428 1.410 . S
C427 C435 1.503 . S
C428 C427 1.410 . S
C428 C429 1.392 . S
C428 C431 1.511 . S
C429 C425 1.376 . S
C429 C428 1.392 . S
C429 H441 0.929 . S
C430 C426 1.531 . S
C430 H442 0.960 . S
C430 H443 0.962 . S
C430 H444 0.960 . S
C431 C428 1.511 . S
C431 H445 0.961 . S
C431 H446 0.961 . S
C431 H447 0.961 . S
C432 C433 1.370 . S
C432 C434 1.363 . S
C432 H448 0.931 . S
C433 C432 1.370 . S
C433 C437 1.408 . S
C434 C432 1.363 . S
C434 C435 1.370 . S
C434 C438 1.524 . S
C435 C427 1.503 . S
C435 C434 1.370 . S
C435 C436 1.403 . S
C436 C435 1.403 . S
C436 C437 1.404 . S
C436 C439 1.539 . S
C437 C433 1.408 . S
C437 C436 1.404 . S
C437 H449 0.930 . S
C438 C434 1.524 . S
C438 H450 0.956 . S
C438 H451 0.961 . S
C438 H452 0.961 . S
C439 C436 1.539 . S
C439 H453 0.958 . S
C439 H454 0.961 . S
C439 H455 0.960 . S
H440 C424 0.931 . S
H441 C429 0.929 . S
H442 C430 0.960 . S
H443 C430 0.962 . S
H444 C430 0.960 . S
H445 C431 0.961 . S
H446 C431 0.961 . S
H447 C431 0.961 . S
H448 C432 0.931 . S
H449 C437 0.930 . S
H450 C438 0.956 . S
H451 C438 0.961 . S
H452 C438 0.961 . S
H453 C439 0.958 . S
H454 C439 0.961 . S
H455 C439 0.960 . S
C456 C457 1.391 . S
C456 C458 1.394 . S
C456 H472 0.931 . S
C457 C456 1.391 . S
C457 C461 1.376 . S
C458 C456 1.394 . S
C458 C459 1.369 . S
C458 C462 1.531 . S
C459 C458 1.369 . S
C459 C460 1.410 . S
C459 C467 1.503 . S
C460 C459 1.410 . S
C460 C461 1.392 . S
C460 C463 1.511 . S
C461 C457 1.376 . S
C461 C460 1.392 . S
C461 H473 0.929 . S
C462 C458 1.531 . S
C462 H474 0.960 . S
C462 H475 0.962 . S
C462 H476 0.960 . S
C463 C460 1.511 . S
C463 H477 0.961 . S
C463 H478 0.961 . S
C463 H479 0.961 . S
C464 C465 1.370 . S
C464 C466 1.363 . S
C464 H480 0.931 . S
C465 C464 1.370 . S
C465 C469 1.408 . S
C466 C464 1.363 . S
C466 C467 1.370 . S
C466 C470 1.524 . S
C467 C459 1.503 . S
C467 C466 1.370 . S
C467 C468 1.403 . S
C468 C467 1.403 . S
C468 C469 1.404 . S
C468 C471 1.539 . S
C469 C465 1.408 . S
C469 C468 1.404 . S
C469 H481 0.930 . S
C470 C466 1.524 . S
C470 H482 0.956 . S
C470 H483 0.961 . S
C470 H484 0.961 . S
C471 C468 1.539 . S
C471 H485 0.958 . S
C471 H486 0.961 . S
C471 H487 0.960 . S
H472 C456 0.931 . S
H473 C461 0.929 . S
H474 C462 0.960 . S
H475 C462 0.962 . S
H476 C462 0.960 . S
H477 C463 0.961 . S
H478 C463 0.961 . S
H479 C463 0.961 . S
H480 C464 0.931 . S
H481 C469 0.930 . S
H482 C470 0.956 . S
H483 C470 0.961 . S
H484 C470 0.961 . S
H485 C471 0.958 . S
H486 C471 0.961 . S
H487 C471 0.960 . S
C488 C489 1.391 . S
C488 C490 1.394 . S
C488 H504 0.931 . S
C489 C488 1.391 . S
C489 C493 1.376 . S
C490 C488 1.394 . S
C490 C491 1.369 . S
C490 C494 1.531 . S
C491 C490 1.369 . S
C491 C492 1.410 . S
C491 C499 1.503 . S
C492 C491 1.410 . S
C492 C493 1.392 . S
C492 C495 1.511 . S
C493 C489 1.376 . S
C493 C492 1.392 . S
C493 H505 0.929 1_455 S
C494 C490 1.531 . S
C494 H506 0.960 . S
C494 H507 0.962 . S
C494 H508 0.960 . S
C495 C492 1.511 . S
C495 H509 0.961 . S
C495 H510 0.961 . S
C495 H511 0.961 . S
C496 C497 1.370 . S
C496 C498 1.363 . S
C496 H512 0.931 . S
C497 C496 1.370 . S
C497 C501 1.408 . S
C498 C496 1.363 . S
C498 C499 1.370 . S
C498 C502 1.524 . S
C499 C491 1.503 . S
C499 C498 1.370 . S
C499 C500 1.403 . S
C500 C499 1.403 . S
C500 C501 1.404 . S
C500 C503 1.539 . S
C501 C497 1.408 . S
C501 C500 1.404 . S
C501 H513 0.930 . S
C502 C498 1.524 . S
C502 H514 0.956 . S
C502 H515 0.961 . S
C502 H516 0.961 . S
C503 C500 1.539 . S
C503 H517 0.958 . S
C503 H518 0.961 . S
C503 H519 0.960 . S
H504 C488 0.931 . S
H505 C493 0.929 1_655 S
H506 C494 0.960 . S
H507 C494 0.962 . S
H508 C494 0.960 . S
H509 C495 0.961 . S
H510 C495 0.961 . S
H511 C495 0.961 . S
H512 C496 0.931 . S
H513 C501 0.930 . S
H514 C502 0.956 . S
H515 C502 0.961 . S
H516 C502 0.961 . S
H517 C503 0.958 . S
H518 C503 0.961 . S
H519 C503 0.960 . S
C520 C521 1.391 . S
C520 C522 1.394 . S
C520 H536 0.931 1_545 S
C521 C520 1.391 . S
C521 C525 1.376 . S
C522 C520 1.394 . S
C522 C523 1.369 . S
C522 C526 1.531 . S
C523 C522 1.369 . S
C523 C524 1.410 . S
C523 C531 1.503 . S
C524 C523 1.410 . S
C524 C525 1.392 . S
C524 C527 1.511 . S
C525 C521 1.376 . S
C525 C524 1.392 . S
C525 H537 0.929 . S
C526 C522 1.531 . S
C526 H538 0.960 . S
C526 H539 0.962 . S
C526 H540 0.960 . S
C527 C524 1.511 . S
C527 H541 0.961 . S
C527 H542 0.961 . S
C527 H543 0.961 . S
C528 C529 1.370 . S
C528 C530 1.363 . S
C528 H544 0.931 . S
C529 C528 1.370 . S
C529 C533 1.408 . S
C530 C528 1.363 . S
C530 C531 1.370 . S
C530 C534 1.524 . S
C531 C523 1.503 . S
C531 C530 1.370 . S
C531 C532 1.403 . S
C532 C531 1.403 . S
C532 C533 1.404 . S
C532 C535 1.539 . S
C533 C529 1.408 . S
C533 C532 1.404 . S
C533 H545 0.930 . S
C534 C530 1.524 . S
C534 H546 0.956 . S
C534 H547 0.961 . S
C534 H548 0.961 . S
C535 C532 1.539 . S
C535 H549 0.958 . S
C535 H550 0.961 . S
C535 H551 0.960 . S
H536 C520 0.931 1_565 S
H537 C525 0.929 . S
H538 C526 0.960 . S
H539 C526 0.962 . S
H540 C526 0.960 . S
H541 C527 0.961 . S
H542 C527 0.961 . S
H543 C527 0.961 . S
H544 C528 0.931 . S
H545 C533 0.930 . S
H546 C534 0.956 . S
H547 C534 0.961 . S
H548 C534 0.961 . S
H549 C535 0.958 . S
H550 C535 0.961 . S
H551 C535 0.960 . S
C552 C553 1.391 . S
C552 C554 1.394 . S
C552 H568 0.931 . S
C553 C552 1.391 . S
C553 C557 1.376 . S
C554 C552 1.394 . S
C554 C555 1.369 . S
C554 C558 1.531 . S
C555 C554 1.369 . S
C555 C556 1.410 . S
C555 C563 1.503 . S
C556 C555 1.410 . S
C556 C557 1.392 . S
C556 C559 1.511 . S
C557 C553 1.376 . S
C557 C556 1.392 . S
C557 H569 0.929 . S
C558 C554 1.531 . S
C558 H570 0.960 . S
C558 H571 0.962 . S
C558 H572 0.960 . S
C559 C556 1.511 . S
C559 H573 0.961 . S
C559 H574 0.961 . S
C559 H575 0.961 . S
C560 C561 1.370 . S
C560 C562 1.363 . S
C560 H576 0.931 . S
C561 C560 1.370 . S
C561 C565 1.408 . S
C562 C560 1.363 . S
C562 C563 1.370 . S
C562 C566 1.524 . S
C563 C555 1.503 . S
C563 C562 1.370 . S
C563 C564 1.403 . S
C564 C563 1.403 . S
C564 C565 1.404 . S
C564 C567 1.539 . S
C565 C561 1.408 . S
C565 C564 1.404 . S
C565 H577 0.930 . S
C566 C562 1.524 . S
C566 H578 0.956 . S
C566 H579 0.961 . S
C566 H580 0.961 . S
C567 C564 1.539 . S
C567 H581 0.958 . S
C567 H582 0.961 . S
C567 H583 0.960 . S
H568 C552 0.931 . S
H569 C557 0.929 . S
H570 C558 0.960 . S
H571 C558 0.962 . S
H572 C558 0.960 . S
H573 C559 0.961 . S
H574 C559 0.961 . S
H575 C559 0.961 . S
H576 C560 0.931 . S
H577 C565 0.930 . S
H578 C566 0.956 . S
H579 C566 0.961 . S
H580 C566 0.961 . S
H581 C567 0.958 . S
H582 C567 0.961 . S
H583 C567 0.960 . S
C584 C585 1.391 . S
C584 C586 1.394 . S
C584 H600 0.931 . S
C585 C584 1.391 . S
C585 C589 1.376 . S
C586 C584 1.394 . S
C586 C587 1.369 . S
C586 C590 1.531 . S
C587 C586 1.369 . S
C587 C588 1.410 . S
C587 C595 1.503 . S
C588 C587 1.410 . S
C588 C589 1.392 . S
C588 C591 1.511 1_556 S
C589 C585 1.376 . S
C589 C588 1.392 . S
C589 H601 0.929 . S
C590 C586 1.531 . S
C590 H602 0.960 . S
C590 H603 0.962 . S
C590 H604 0.960 . S
C591 C588 1.511 1_554 S
C591 H605 0.961 . S
C591 H606 0.961 . S
C591 H607 0.961 . S
C592 C593 1.370 . S
C592 C594 1.366 . S
C592 H608 0.931 . S
C593 C592 1.370 . S
C593 C597 1.408 1_554 S
C594 C592 1.366 . S
C594 C595 1.367 1_554 S
C594 C598 1.524 . S
C595 C587 1.503 . S
C595 C594 1.367 1_556 S
C595 C596 1.403 . S
C596 C595 1.403 . S
C596 C597 1.404 . S
C596 C599 1.539 . S
C597 C593 1.408 1_556 S
C597 C596 1.404 . S
C597 H609 0.930 1_655 S
C598 C594 1.524 . S
C598 H610 0.956 1_554 S
C598 H611 0.961 . S
C598 H612 0.961 . S
C599 C596 1.539 . S
C599 H613 0.958 . S
C599 H614 0.961 . S
C599 H615 0.960 . S
H600 C584 0.931 . S
H601 C589 0.929 . S
H602 C590 0.960 . S
H603 C590 0.962 . S
H604 C590 0.960 . S
H605 C591 0.961 . S
H606 C591 0.961 . S
H607 C591 0.961 . S
H608 C592 0.931 . S
H609 C597 0.930 1_455 S
H610 C598 0.956 1_556 S
H611 C598 0.961 . S
H612 C598 0.961 . S
H613 C599 0.958 . S
H614 C599 0.961 . S
H615 C599 0.960 . S
C616 C617 1.391 . S
C616 C618 1.394 . S
C616 H632 0.931 1_565 S
C617 C616 1.391 . S
C617 C621 1.376 . S
C618 C616 1.394 . S
C618 C619 1.369 . S
C618 C622 1.531 . S
C619 C618 1.369 . S
C619 C620 1.410 . S
C619 C627 1.503 . S
C620 C619 1.410 . S
C620 C621 1.392 . S
C620 C623 1.511 . S
C621 C617 1.376 . S
C621 C620 1.392 . S
C621 H633 0.929 . S
C622 C618 1.531 . S
C622 H634 0.960 . S
C622 H635 0.962 . S
C622 H636 0.960 . S
C623 C620 1.511 . S
C623 H637 0.961 . S
C623 H638 0.961 . S
C623 H639 0.961 . S
C624 C625 1.370 . S
C624 C626 1.363 . S
C624 H640 0.931 . S
C625 C624 1.370 . S
C625 C629 1.408 . S
C626 C624 1.363 . S
C626 C627 1.370 . S
C626 C630 1.524 . S
C627 C619 1.503 . S
C627 C626 1.370 . S
C627 C628 1.403 . S
C628 C627 1.403 . S
C628 C629 1.404 . S
C628 C631 1.539 . S
C629 C625 1.408 . S
C629 C628 1.404 . S
C629 H641 0.930 . S
C630 C626 1.524 . S
C630 H642 0.956 . S
C630 H643 0.961 . S
C630 H644 0.961 . S
C631 C628 1.539 . S
C631 H645 0.958 . S
C631 H646 0.961 . S
C631 H647 0.960 . S
H632 C616 0.931 1_545 S
H633 C621 0.929 . S
H634 C622 0.960 . S
H635 C622 0.962 . S
H636 C622 0.960 . S
H637 C623 0.961 . S
H638 C623 0.961 . S
H639 C623 0.961 . S
H640 C624 0.931 . S
H641 C629 0.930 . S
H642 C630 0.956 . S
H643 C630 0.961 . S
H644 C630 0.961 . S
H645 C631 0.958 . S
H646 C631 0.961 . S
H647 C631 0.960 . S
C648 C649 1.391 . S
C648 C650 1.394 . S
C648 H664 0.931 . S
C649 C648 1.391 . S
C649 C653 1.376 . S
C650 C648 1.394 . S
C650 C651 1.369 . S
C650 C654 1.531 . S
C651 C650 1.369 . S
C651 C652 1.410 . S
C651 C659 1.503 . S
C652 C651 1.410 . S
C652 C653 1.392 . S
C652 C655 1.511 . S
C653 C649 1.376 . S
C653 C652 1.392 . S
C653 H665 0.929 . S
C654 C650 1.531 . S
C654 H666 0.960 . S
C654 H667 0.962 . S
C654 H668 0.960 . S
C655 C652 1.511 . S
C655 H669 0.961 . S
C655 H670 0.961 . S
C655 H671 0.961 . S
C656 C657 1.370 . S
C656 C658 1.363 . S
C656 H672 0.931 . S
C657 C656 1.370 . S
C657 C661 1.408 . S
C658 C656 1.363 . S
C658 C659 1.370 . S
C658 C662 1.524 . S
C659 C651 1.503 . S
C659 C658 1.370 . S
C659 C660 1.403 . S
C660 C659 1.403 . S
C660 C661 1.404 . S
C660 C663 1.539 . S
C661 C657 1.408 . S
C661 C660 1.404 . S
C661 H673 0.930 . S
C662 C658 1.524 . S
C662 H674 0.956 . S
C662 H675 0.961 . S
C662 H676 0.961 . S
C663 C660 1.539 . S
C663 H677 0.958 . S
C663 H678 0.961 . S
C663 H679 0.960 . S
H664 C648 0.931 . S
H665 C653 0.929 . S
H666 C654 0.960 . S
H667 C654 0.962 . S
H668 C654 0.960 . S
H669 C655 0.961 . S
H670 C655 0.961 . S
H671 C655 0.961 . S
H672 C656 0.931 . S
H673 C661 0.930 . S
H674 C662 0.956 . S
H675 C662 0.961 . S
H676 C662 0.961 . S
H677 C663 0.958 . S
H678 C663 0.961 . S
H679 C663 0.960 . S
C680 C681 1.391 . S
C680 C682 1.394 . S
C680 H696 0.931 . S
C681 C680 1.391 . S
C681 C685 1.376 . S
C682 C680 1.394 . S
C682 C683 1.369 . S
C682 C686 1.531 . S
C683 C682 1.369 . S
C683 C684 1.410 . S
C683 C691 1.503 . S
C684 C683 1.410 . S
C684 C685 1.392 . S
C684 C687 1.511 . S
C685 C681 1.376 . S
C685 C684 1.392 . S
C685 H697 0.929 . S
C686 C682 1.531 . S
C686 H698 0.960 . S
C686 H699 0.962 . S
C686 H700 0.960 . S
C687 C684 1.511 . S
C687 H701 0.961 . S
C687 H702 0.961 . S
C687 H703 0.961 . S
C688 C689 1.370 . S
C688 C690 1.363 . S
C688 H704 0.931 . S
C689 C688 1.370 . S
C689 C693 1.408 . S
C690 C688 1.363 . S
C690 C691 1.370 . S
C690 C694 1.524 . S
C691 C683 1.503 . S
C691 C690 1.370 . S
C691 C692 1.403 . S
C692 C691 1.403 . S
C692 C693 1.404 . S
C692 C695 1.539 . S
C693 C689 1.408 . S
C693 C692 1.404 . S
C693 H705 0.930 . S
C694 C690 1.524 . S
C694 H706 0.956 . S
C694 H707 0.961 . S
C694 H708 0.961 . S
C695 C692 1.539 . S
C695 H709 0.958 . S
C695 H710 0.961 . S
C695 H711 0.960 . S
H696 C680 0.931 . S
H697 C685 0.929 . S
H698 C686 0.960 . S
H699 C686 0.962 . S
H700 C686 0.960 . S
H701 C687 0.961 . S
H702 C687 0.961 . S
H703 C687 0.961 . S
H704 C688 0.931 . S
H705 C693 0.930 . S
H706 C694 0.956 . S
H707 C694 0.961 . S
H708 C694 0.961 . S
H709 C695 0.958 . S
H710 C695 0.961 . S
H711 C695 0.960 . S
C712 C713 1.391 . S
C712 C714 1.394 . S
C712 H728 0.931 . S
C713 C712 1.391 . S
C713 C717 1.376 . S
C714 C712 1.394 . S
C714 C715 1.369 . S
C714 C718 1.531 . S
C715 C714 1.369 . S
C715 C716 1.410 . S
C715 C723 1.503 . S
C716 C715 1.410 . S
C716 C717 1.392 . S
C716 C719 1.511 . S
C717 C713 1.376 . S
C717 C716 1.392 . S
C717 H729 0.929 . S
C718 C714 1.531 . S
C718 H730 0.960 . S
C718 H731 0.962 . S
C718 H732 0.960 . S
C719 C716 1.511 . S
C719 H733 0.961 . S
C719 H734 0.961 . S
C719 H735 0.961 . S
C720 C721 1.370 . S
C720 C722 1.363 . S
C720 H736 0.931 . S
C721 C720 1.370 . S
C721 C725 1.408 . S
C722 C720 1.363 . S
C722 C723 1.370 . S
C722 C726 1.524 . S
C723 C715 1.503 . S
C723 C722 1.370 . S
C723 C724 1.403 . S
C724 C723 1.403 . S
C724 C725 1.404 . S
C724 C727 1.539 . S
C725 C721 1.408 . S
C725 C724 1.404 . S
C725 H737 0.930 . S
C726 C722 1.524 . S
C726 H738 0.956 . S
C726 H739 0.961 . S
C726 H740 0.961 . S
C727 C724 1.539 . S
C727 H741 0.958 . S
C727 H742 0.961 . S
C727 H743 0.960 . S
H728 C712 0.931 . S
H729 C717 0.929 . S
H730 C718 0.960 . S
H731 C718 0.962 . S
H732 C718 0.960 . S
H733 C719 0.961 . S
H734 C719 0.961 . S
H735 C719 0.961 . S
H736 C720 0.931 . S
H737 C725 0.930 . S
H738 C726 0.956 . S
H739 C726 0.961 . S
H740 C726 0.961 . S
H741 C727 0.958 . S
H742 C727 0.961 . S
H743 C727 0.960 . S
C744 C745 1.391 . S
C744 C746 1.394 . S
C744 H760 0.931 . S
C745 C744 1.391 . S
C745 C749 1.376 . S
C746 C744 1.394 . S
C746 C747 1.369 . S
C746 C750 1.531 . S
C747 C746 1.369 . S
C747 C748 1.410 . S
C747 C755 1.503 . S
C748 C747 1.410 . S
C748 C749 1.392 . S
C748 C751 1.511 . S
C749 C745 1.376 . S
C749 C748 1.392 . S
C749 H761 0.929 . S
C750 C746 1.531 . S
C750 H762 0.960 . S
C750 H763 0.962 . S
C750 H764 0.960 . S
C751 C748 1.511 . S
C751 H765 0.961 . S
C751 H766 0.961 . S
C751 H767 0.961 . S
C752 C753 1.370 . S
C752 C754 1.363 . S
C752 H768 0.931 . S
C753 C752 1.370 . S
C753 C757 1.408 . S
C754 C752 1.363 . S
C754 C755 1.370 . S
C754 C758 1.524 . S
C755 C747 1.503 . S
C755 C754 1.370 . S
C755 C756 1.403 . S
C756 C755 1.403 . S
C756 C757 1.404 . S
C756 C759 1.539 . S
C757 C753 1.408 . S
C757 C756 1.404 . S
C757 H769 0.930 . S
C758 C754 1.524 . S
C758 H770 0.956 . S
C758 H771 0.961 . S
C758 H772 0.961 . S
C759 C756 1.539 . S
C759 H773 0.958 . S
C759 H774 0.961 . S
C759 H775 0.960 . S
H760 C744 0.931 . S
H761 C749 0.929 . S
H762 C750 0.960 . S
H763 C750 0.962 . S
H764 C750 0.960 . S
H765 C751 0.961 . S
H766 C751 0.961 . S
H767 C751 0.961 . S
H768 C752 0.931 . S
H769 C757 0.930 . S
H770 C758 0.956 . S
H771 C758 0.961 . S
H772 C758 0.961 . S
H773 C759 0.958 . S
H774 C759 0.961 . S
H775 C759 0.960 . S
C776 C777 1.391 . S
C776 C778 1.394 . S
C776 H792 0.931 . S
C777 C776 1.391 . S
C777 C781 1.376 . S
C778 C776 1.394 . S
C778 C779 1.369 . S
C778 C782 1.531 . S
C779 C778 1.369 . S
C779 C780 1.410 . S
C779 C787 1.503 . S
C780 C779 1.410 . S
C780 C781 1.392 . S
C780 C783 1.511 . S
C781 C777 1.376 . S
C781 C780 1.392 . S
C781 H793 0.929 . S
C782 C778 1.531 . S
C782 H794 0.960 . S
C782 H795 0.962 . S
C782 H796 0.960 . S
C783 C780 1.511 . S
C783 H797 0.961 . S
C783 H798 0.961 . S
C783 H799 0.961 . S
C784 C785 1.370 . S
C784 C786 1.363 . S
C784 H800 0.931 . S
C785 C784 1.370 . S
C785 C789 1.408 . S
C786 C784 1.363 . S
C786 C787 1.370 . S
C786 C790 1.524 . S
C787 C779 1.503 . S
C787 C786 1.370 . S
C787 C788 1.403 . S
C788 C787 1.403 . S
C788 C789 1.404 . S
C788 C791 1.539 . S
C789 C785 1.408 . S
C789 C788 1.404 . S
C789 H801 0.930 . S
C790 C786 1.524 . S
C790 H802 0.956 . S
C790 H803 0.961 . S
C790 H804 0.961 . S
C791 C788 1.539 . S
C791 H805 0.958 . S
C791 H806 0.961 . S
C791 H807 0.960 . S
H792 C776 0.931 . S
H793 C781 0.929 . S
H794 C782 0.960 . S
H795 C782 0.962 . S
H796 C782 0.960 . S
H797 C783 0.961 . S
H798 C783 0.961 . S
H799 C783 0.961 . S
H800 C784 0.931 . S
H801 C789 0.930 . S
H802 C790 0.956 . S
H803 C790 0.961 . S
H804 C790 0.961 . S
H805 C791 0.958 . S
H806 C791 0.961 . S
H807 C791 0.960 . S
C808 C809 1.391 . S
C808 C810 1.394 . S
C808 H824 0.931 . S
C809 C808 1.391 . S
C809 C813 1.376 . S
C810 C808 1.394 . S
C810 C811 1.369 . S
C810 C814 1.531 . S
C811 C810 1.369 . S
C811 C812 1.410 . S
C811 C819 1.503 . S
C812 C811 1.410 . S
C812 C813 1.392 . S
C812 C815 1.511 . S
C813 C809 1.376 . S
C813 C812 1.392 . S
C813 H825 0.929 . S
C814 C810 1.531 . S
C814 H826 0.960 . S
C814 H827 0.962 . S
C814 H828 0.960 . S
C815 C812 1.511 . S
C815 H829 0.961 . S
C815 H830 0.961 . S
C815 H831 0.961 . S
C816 C817 1.370 . S
C816 C818 1.363 . S
C816 H832 0.931 . S
C817 C816 1.370 . S
C817 C821 1.408 . S
C818 C816 1.363 . S
C818 C819 1.370 . S
C818 C822 1.524 . S
C819 C811 1.503 . S
C819 C818 1.370 . S
C819 C820 1.403 . S
C820 C819 1.403 . S
C820 C821 1.404 . S
C820 C823 1.539 . S
C821 C817 1.408 . S
C821 C820 1.404 . S
C821 H833 0.930 . S
C822 C818 1.524 . S
C822 H834 0.956 . S
C822 H835 0.961 . S
C822 H836 0.961 . S
C823 C820 1.539 . S
C823 H837 0.958 . S
C823 H838 0.961 . S
C823 H839 0.960 . S
H824 C808 0.931 . S
H825 C813 0.929 . S
H826 C814 0.960 . S
H827 C814 0.962 . S
H828 C814 0.960 . S
H829 C815 0.961 . S
H830 C815 0.961 . S
H831 C815 0.961 . S
H832 C816 0.931 . S
H833 C821 0.930 . S
H834 C822 0.956 . S
H835 C822 0.961 . S
H836 C822 0.961 . S
H837 C823 0.958 . S
H838 C823 0.961 . S
H839 C823 0.960 . S
C840 C841 1.391 . S
C840 C842 1.394 . S
C840 H856 0.931 . S
C841 C840 1.391 . S
C841 C845 1.376 . S
C842 C840 1.394 . S
C842 C843 1.369 . S
C842 C846 1.531 . S
C843 C842 1.369 . S
C843 C844 1.410 . S
C843 C851 1.503 . S
C844 C843 1.410 . S
C844 C845 1.392 . S
C844 C847 1.511 . S
C845 C841 1.376 . S
C845 C844 1.392 . S
C845 H857 0.929 . S
C846 C842 1.531 . S
C846 H858 0.960 . S
C846 H859 0.962 . S
C846 H860 0.960 . S
C847 C844 1.511 . S
C847 H861 0.961 . S
C847 H862 0.961 . S
C847 H863 0.961 . S
C848 C849 1.370 . S
C848 C850 1.363 . S
C848 H864 0.931 . S
C849 C848 1.370 . S
C849 C853 1.408 . S
C850 C848 1.363 . S
C850 C851 1.370 . S
C850 C854 1.524 . S
C851 C843 1.503 . S
C851 C850 1.370 . S
C851 C852 1.403 . S
C852 C851 1.403 . S
C852 C853 1.404 . S
C852 C855 1.539 . S
C853 C849 1.408 . S
C853 C852 1.404 . S
C853 H865 0.930 . S
C854 C850 1.524 . S
C854 H866 0.956 . S
C854 H867 0.961 . S
C854 H868 0.961 . S
C855 C852 1.539 . S
C855 H869 0.958 . S
C855 H870 0.961 . S
C855 H871 0.960 . S
H856 C840 0.931 . S
H857 C845 0.929 . S
H858 C846 0.960 . S
H859 C846 0.962 . S
H860 C846 0.960 . S
H861 C847 0.961 . S
H862 C847 0.961 . S
H863 C847 0.961 . S
H864 C848 0.931 . S
H865 C853 0.930 . S
H866 C854 0.956 . S
H867 C854 0.961 . S
H868 C854 0.961 . S
H869 C855 0.958 . S
H870 C855 0.961 . S
H871 C855 0.960 . S
C872 C873 1.391 . S
C872 C874 1.394 . S
C872 H888 0.931 . S
C873 C872 1.391 . S
C873 C877 1.376 . S
C874 C872 1.394 . S
C874 C875 1.369 . S
C874 C878 1.531 . S
C875 C874 1.369 . S
C875 C876 1.410 . S
C875 C883 1.503 . S
C876 C875 1.410 . S
C876 C877 1.392 . S
C876 C879 1.511 . S
C877 C873 1.376 . S
C877 C876 1.392 . S
C877 H889 0.929 . S
C878 C874 1.531 . S
C878 H890 0.960 . S
C878 H891 0.962 . S
C878 H892 0.960 . S
C879 C876 1.511 . S
C879 H893 0.961 . S
C879 H894 0.961 . S
C879 H895 0.961 . S
C880 C881 1.370 . S
C880 C882 1.363 . S
C880 H896 0.931 . S
C881 C880 1.370 . S
C881 C885 1.408 . S
C882 C880 1.363 . S
C882 C883 1.370 . S
C882 C886 1.524 . S
C883 C875 1.503 . S
C883 C882 1.370 . S
C883 C884 1.403 . S
C884 C883 1.403 . S
C884 C885 1.404 . S
C884 C887 1.539 . S
C885 C881 1.408 . S
C885 C884 1.404 . S
C885 H897 0.930 1_556 S
C886 C882 1.524 . S
C886 H898 0.956 . S
C886 H899 0.961 . S
C886 H900 0.961 . S
C887 C884 1.539 . S
C887 H901 0.958 . S
C887 H902 0.961 . S
C887 H903 0.960 . S
H888 C872 0.931 . S
H889 C877 0.929 . S
H890 C878 0.960 . S
H891 C878 0.962 . S
H892 C878 0.960 . S
H893 C879 0.961 . S
H894 C879 0.961 . S
H895 C879 0.961 . S
H896 C880 0.931 . S
H897 C885 0.930 1_554 S
H898 C886 0.956 . S
H899 C886 0.961 . S
H900 C886 0.961 . S
H901 C887 0.958 . S
H902 C887 0.961 . S
H903 C887 0.960 . S
C904 C905 1.391 . S
C904 C906 1.394 . S
C904 H920 0.931 . S
C905 C904 1.391 . S
C905 C909 1.376 . S
C906 C904 1.394 . S
C906 C907 1.369 . S
C906 C910 1.531 . S
C907 C906 1.369 . S
C907 C908 1.410 . S
C907 C915 1.503 . S
C908 C907 1.410 . S
C908 C909 1.392 . S
C908 C911 1.511 . S
C909 C905 1.376 . S
C909 C908 1.392 . S
C909 H921 0.929 . S
C910 C906 1.531 . S
C910 H922 0.960 . S
C910 H923 0.962 . S
C910 H924 0.960 . S
C911 C908 1.511 . S
C911 H925 0.961 . S
C911 H926 0.961 . S
C911 H927 0.961 . S
C912 C913 1.370 . S
C912 C914 1.363 . S
C912 H928 0.931 . S
C913 C912 1.370 . S
C913 C917 1.408 . S
C914 C912 1.363 . S
C914 C915 1.370 . S
C914 C918 1.524 . S
C915 C907 1.503 . S
C915 C914 1.370 . S
C915 C916 1.403 . S
C916 C915 1.403 . S
C916 C917 1.404 . S
C916 C919 1.539 . S
C917 C913 1.408 . S
C917 C916 1.404 . S
C917 H929 0.930 . S
C918 C914 1.524 . S
C918 H930 0.956 . S
C918 H931 0.961 . S
C918 H932 0.961 . S
C919 C916 1.539 . S
C919 H933 0.958 . S
C919 H934 0.961 . S
C919 H935 0.960 . S
H920 C904 0.931 . S
H921 C909 0.929 . S
H922 C910 0.960 . S
H923 C910 0.962 . S
H924 C910 0.960 . S
H925 C911 0.961 . S
H926 C911 0.961 . S
H927 C911 0.961 . S
H928 C912 0.931 . S
H929 C917 0.930 . S
H930 C918 0.956 . S
H931 C918 0.961 . S
H932 C918 0.961 . S
H933 C919 0.958 . S
H934 C919 0.961 . S
H935 C919 0.960 . S
C169 C123 1.355 . S
C177 C11 1.349 . S
C201 C25 1.320 . S
C209 C137 1.336 . S
C233 C39 1.360 . S
C241 C151 1.352 . S
C265 C53 1.360 . S
C273 C165 1.352 . S
C297 C95 1.353 . S
C305 C67 1.347 . S
C329 C81 1.345 . S
C337 C109 1.348 . S
C361 C12 1.372 . S
C369 C75 1.263 . S
C393 C26 1.356 . S
C401 C5 1.279 . S
C425 C40 1.353 . S
C433 C19 1.278 . S
C457 C33 1.212 . S
C465 C54 1.376 . S
C489 C47 1.228 . S
C497 C68 1.376 . S
C521 C61 1.285 . S
C529 C82 1.365 . S
C553 C103 1.228 . S
C561 C96 1.376 . S
C585 C110 1.367 . S
C593 C117 1.269 . S
C617 C131 1.279 . S
C625 C124 1.365 . S
C649 C138 1.361 . S
C657 C145 1.276 . S
C681 C152 1.376 . S
C689 C159 1.256 . S
C713 C166 1.358 . S
C721 C89 1.258 . S
C745 C144 1.227 . S
C753 C4 1.247 . S
C777 C158 1.269 . S
C785 C18 1.245 . S
C809 C88 1.223 . S
C817 C32 1.250 . S
C841 C46 1.225 . S
C849 C102 1.258 . S
C873 C60 1.270 . S
C881 C116 1.243 1_556 S
C905 C130 1.226 . S
C913 C74 1.248 1_554 S
