# Generated by pormake.
# Topology wjh, (4)-cn, num edge types: 1
# Building blocks:
#     Node 0, Type 0, BuildingBlock: KUFVIS_clean_sbu_0, # of connection points: 4
#     Node 1, Type 0, BuildingBlock: KUFVIS_clean_sbu_0, # of connection points: 4
#     Node 2, Type 0, BuildingBlock: KUFVIS_clean_sbu_0, # of connection points: 4
#     Node 3, Type 0, BuildingBlock: KUFVIS_clean_sbu_0, # of connection points: 4
#     Node 4, Type 0, BuildingBlock: KUFVIS_clean_sbu_0, # of connection points: 4
#     Node 5, Type 0, BuildingBlock: KUFVIS_clean_sbu_0, # of connection points: 4
#     Node 6, Type 0, BuildingBlock: KUFVIS_clean_sbu_0, # of connection points: 4
#     Node 7, Type 0, BuildingBlock: KUFVIS_clean_sbu_0, # of connection points: 4
#     Node 8, Type 0, BuildingBlock: KUFVIS_clean_sbu_0, # of connection points: 4
#     Node 9, Type 0, BuildingBlock: KUFVIS_clean_sbu_0, # of connection points: 4
#     Node 10, Type 0, BuildingBlock: KUFVIS_clean_sbu_0, # of connection points: 4
#     Node 11, Type 0, BuildingBlock: KUFVIS_clean_sbu_0, # of connection points: 4
#     Edge 12, Type (0, 0), BuildingBlock: CIFDUS_clean_linker_0, # of connection points: 2
#     Edge 13, Type (0, 0), BuildingBlock: CIFDUS_clean_linker_0, # of connection points: 2
#     Edge 14, Type (0, 0), BuildingBlock: CIFDUS_clean_linker_0, # of connection points: 2
#     Edge 15, Type (0, 0), BuildingBlock: CIFDUS_clean_linker_0, # of connection points: 2
#     Edge 16, Type (0, 0), BuildingBlock: CIFDUS_clean_linker_0, # of connection points: 2
#     Edge 17, Type (0, 0), BuildingBlock: CIFDUS_clean_linker_0, # of connection points: 2
#     Edge 18, Type (0, 0), BuildingBlock: CIFDUS_clean_linker_0, # of connection points: 2
#     Edge 19, Type (0, 0), BuildingBlock: CIFDUS_clean_linker_0, # of connection points: 2
#     Edge 20, Type (0, 0), BuildingBlock: CIFDUS_clean_linker_0, # of connection points: 2
#     Edge 21, Type (0, 0), BuildingBlock: CIFDUS_clean_linker_0, # of connection points: 2
#     Edge 22, Type (0, 0), BuildingBlock: CIFDUS_clean_linker_0, # of connection points: 2
#     Edge 23, Type (0, 0), BuildingBlock: CIFDUS_clean_linker_0, # of connection points: 2
#     Edge 24, Type (0, 0), BuildingBlock: CIFDUS_clean_linker_0, # of connection points: 2
#     Edge 25, Type (0, 0), BuildingBlock: CIFDUS_clean_linker_0, # of connection points: 2
#     Edge 26, Type (0, 0), BuildingBlock: CIFDUS_clean_linker_0, # of connection points: 2
#     Edge 27, Type (0, 0), BuildingBlock: CIFDUS_clean_linker_0, # of connection points: 2
#     Edge 28, Type (0, 0), BuildingBlock: CIFDUS_clean_linker_0, # of connection points: 2
#     Edge 29, Type (0, 0), BuildingBlock: CIFDUS_clean_linker_0, # of connection points: 2
#     Edge 30, Type (0, 0), BuildingBlock: CIFDUS_clean_linker_0, # of connection points: 2
#     Edge 31, Type (0, 0), BuildingBlock: CIFDUS_clean_linker_0, # of connection points: 2
#     Edge 32, Type (0, 0), BuildingBlock: CIFDUS_clean_linker_0, # of connection points: 2
#     Edge 33, Type (0, 0), BuildingBlock: CIFDUS_clean_linker_0, # of connection points: 2
#     Edge 34, Type (0, 0), BuildingBlock: CIFDUS_clean_linker_0, # of connection points: 2
#     Edge 35, Type (0, 0), BuildingBlock: CIFDUS_clean_linker_0, # of connection points: 2
# Relax obj value: 0.090
# Max RMSD: 0.110
# Mean RMSD: 0.110
data_MOF--net-wjh--node1-KUFVIS_clean_sbu_0--edge1-CIFDUS_clean_linker_0
_symmetry_space_group_name_H-M    P1
_symmetry_Int_Tables_number       1
_symmetry_cell_setting            triclinic
loop_
_symmetry_equiv_pos_as_xyz
'x, y, z'
_cell_length_a     54.129829
_cell_length_b     54.160584
_cell_length_c     22.797162
_cell_angle_alpha  90.178118
_cell_angle_beta   89.817211
_cell_angle_gamma 120.02387
loop_
_atom_site_label
_atom_site_type_symbol
_atom_site_fract_x
_atom_site_fract_y
_atom_site_fract_z
_atom_type_partial_charge
Mn0 Mn 0.53263 0.15437 0.06403 0.0
Mn1 Mn 0.56163 0.11148 0.05053 0.0
C2 C 0.55368 0.14646 0.14425 0.0
C3 C 0.53654 0.19956 0.06619 0.0
C4 C 0.49772 0.08949 0.05346 0.0
O5 O 0.53854 0.15399 0.97561 0.0
O6 O 0.56173 0.12882 0.97444 0.0
C7 C 0.62159 0.15295 0.0191 0.0
N8 N 0.60237 0.13099 0.05276 0.0
C9 C 0.63979 0.12724 0.10133 0.0
C10 C 0.65994 0.14932 0.06593 0.0
C11 C 0.6508 0.16239 0.02497 0.0
C12 C 0.61095 0.11846 0.09282 0.0
H13 H 0.61462 0.16334 0.98877 0.0
C14 C 0.55251 0.14382 0.94963 0.0
O15 O 0.51215 0.1765 0.05819 0.0
O16 O 0.55883 0.19655 0.06801 0.0
N17 N 0.56334 0.09373 0.12152 0.0
C18 C 0.54163 0.07558 0.15714 0.0
C19 C 0.54718 0.06196 0.20321 0.0
C20 C 0.57513 0.06747 0.21277 0.0
C21 C 0.59722 0.08643 0.17575 0.0
C22 C 0.59021 0.09881 0.12963 0.0
H23 H 0.52024 0.07138 0.15007 0.0
O24 O 0.534 0.15325 0.15057 0.0
O25 O 0.55978 0.14295 0.09069 0.0
O26 O 0.49845 0.11314 0.06152 0.0
O27 O 0.51993 0.08736 0.04741 0.0
C28 C 0.62597 0.09397 0.18346 0.0
C29 C 0.64726 0.1144 0.14633 0.0
H30 H 0.68252 0.15691 0.07084 0.0
H31 H 0.66625 0.17982 -0.00172 0.0
H32 H 0.52989 0.04714 0.23101 0.0
H33 H 0.5794 0.0572 0.24887 0.0
H34 H 0.63204 0.08469 0.21866 0.0
H35 H 0.66939 0.12064 0.15374 0.0
Mn36 Mn 0.38613 0.52688 0.23424 0.0
Mn37 Mn 0.45792 0.55508 0.22968 0.0
C38 C 0.4115 0.53875 0.32141 0.0
C39 C 0.34572 0.53222 0.23937 0.0
C40 C 0.41562 0.49217 0.21143 0.0
O41 O 0.39556 0.54015 0.14932 0.0
O42 O 0.44345 0.56041 0.15359 0.0
C43 C 0.47772 0.61652 0.21422 0.0
N44 N 0.47905 0.59524 0.24298 0.0
C45 C 0.5213 0.62889 0.29504 0.0
C46 C 0.52062 0.65121 0.26542 0.0
C47 C 0.49857 0.645 0.22528 0.0
C48 C 0.4999 0.60099 0.28237 0.0
H49 H 0.46097 0.61173 0.18294 0.0
C50 C 0.42039 0.55426 0.12645 0.0
O51 O 0.34384 0.50846 0.22205 0.0
O52 O 0.37113 0.55329 0.2494 0.0
N53 N 0.47553 0.55213 0.29972 0.0
C54 C 0.47065 0.52844 0.32983 0.0
C55 C 0.48908 0.53105 0.37571 0.0
C56 C 0.51251 0.55791 0.38947 0.0
C57 C 0.51707 0.582 0.35778 0.0
C58 C 0.49786 0.5781 0.31294 0.0
H59 H 0.45298 0.50774 0.31855 0.0
O60 O 0.38471 0.5196 0.3189 0.0
O61 O 0.42366 0.55053 0.27147 0.0
O62 O 0.39257 0.49291 0.2175 0.0
O63 O 0.44031 0.51405 0.21499 0.0
C64 C 0.53965 0.60979 0.36941 0.0
C65 C 0.54186 0.63322 0.33784 0.0
H66 H 0.53664 0.6732 0.27384 0.0
H67 H 0.49778 0.66212 0.20262 0.0
H68 H 0.48546 0.51237 0.39987 0.0
H69 H 0.52678 0.55983 0.42461 0.0
H70 H 0.55504 0.61346 0.40347 0.0
H71 H 0.55885 0.65455 0.34824 0.0
Mn72 Mn 0.86912 0.37569 0.39169 0.0
Mn73 Mn 0.90223 0.44661 0.37113 0.0
C74 C 0.88505 0.40597 0.47277 0.0
C75 C 0.82532 0.33371 0.40686 0.0
C76 C 0.93033 0.41069 0.34976 0.0
O77 O 0.86008 0.37959 0.30584 0.0
O78 O 0.87667 0.42689 0.30435 0.0
C79 C 0.85161 0.45377 0.38072 0.0
N80 N 0.87837 0.46091 0.39852 0.0
C81 C 0.87936 0.49486 0.46813 0.0
C82 C 0.8519 0.48806 0.45023 0.0
C83 C 0.83791 0.46731 0.40653 0.0
C84 C 0.89174 0.48035 0.44142 0.0
H85 H 0.84079 0.4378 0.34721 0.0
C86 C 0.86314 0.40212 0.28104 0.0
O87 O 0.84756 0.33263 0.38856 0.0
O88 O 0.82833 0.35876 0.41325 0.0
N89 N 0.92792 0.46923 0.432 0.0
C90 C 0.95477 0.47408 0.44271 0.0
C91 C 0.97218 0.49513 0.48339 0.0
C92 C 0.96204 0.51135 0.51188 0.0
C93 C 0.93456 0.50638 0.49942 0.0
C94 C 0.91831 0.48533 0.45797 0.0
H95 H 0.96303 0.46226 0.41994 0.0
O96 O 0.87938 0.3798 0.47654 0.0
O97 O 0.881 0.4134 0.42123 0.0
O98 O 0.91034 0.38702 0.36981 0.0
O99 O 0.9284 0.43319 0.34421 0.0
C100 C 0.92268 0.52149 0.52646 0.0
C101 C 0.89497 0.51552 0.51129 0.0
H102 H 0.84135 0.4986 0.46976 0.0
H103 H 0.81667 0.46184 0.39266 0.0
H104 H 0.99344 0.49898 0.49244 0.0
H105 H 0.9755 0.52752 0.54335 0.0
H106 H 0.93461 0.53765 0.5592 0.0
H107 H 0.88597 0.52712 0.53269 0.0
Mn108 Mn 0.49146 0.86274 0.5543 0.0
Mn109 Mn 0.45419 0.89647 0.53625 0.0
C110 C 0.47845 0.87931 0.63639 0.0
C111 C 0.48981 0.81912 0.56723 0.0
C112 C 0.51779 0.92339 0.51086 0.0
O113 O 0.47772 0.85402 0.46878 0.0
O114 O 0.44653 0.87004 0.46999 0.0
C115 C 0.39608 0.84687 0.55057 0.0
N116 N 0.4165 0.87362 0.5668 0.0
C117 C 0.3855 0.87617 0.63939 0.0
C118 C 0.36405 0.84871 0.62323 0.0
C119 C 0.36943 0.83395 0.57881 0.0
C120 C 0.41177 0.88775 0.61032 0.0
H121 H 0.40017 0.83548 0.51645 0.0
C122 C 0.45785 0.85688 0.44526 0.0
O123 O 0.51288 0.8414 0.5484 0.0
O124 O 0.46771 0.82193 0.57556 0.0
N125 N 0.45914 0.92308 0.59681 0.0
C126 C 0.48173 0.94982 0.60555 0.0
C127 C 0.47939 0.968 0.64641 0.0
C128 C 0.45372 0.95872 0.67715 0.0
C129 C 0.43061 0.9313 0.66682 0.0
C130 C 0.43408 0.91427 0.62502 0.0
H131 H 0.50129 0.95743 0.5811 0.0
O132 O 0.4985 0.87293 0.63932 0.0
O133 O 0.46641 0.8752 0.58541 0.0
O134 O 0.52143 0.90365 0.53211 0.0
O135 O 0.4934 0.92164 0.50586 0.0
C136 C 0.40425 0.92022 0.69627 0.0
C137 C 0.38182 0.89254 0.68305 0.0
H138 H 0.3434 0.83875 0.64463 0.0
H139 H 0.35302 0.81271 0.56624 0.0
H140 H 0.49726 0.9892 0.65388 0.0
H141 H 0.45201 0.97278 0.70875 0.0
H142 H 0.40107 0.93275 0.72937 0.0
H143 H 0.36173 0.88416 0.70628 0.0
Mn144 Mn 0.64294 0.49593 0.72357 0.0
Mn145 Mn 0.57072 0.46638 0.72358 0.0
C146 C 0.61695 0.47769 0.80872 0.0
C147 C 0.68572 0.49502 0.7231 0.0
C148 C 0.61176 0.52978 0.71481 0.0
O149 O 0.63294 0.48476 0.63746 0.0
O150 O 0.58501 0.46521 0.64474 0.0
C151 C 0.55222 0.40628 0.6935 0.0
N152 N 0.55064 0.42573 0.72893 0.0
C153 C 0.51251 0.38861 0.78522 0.0
C154 C 0.51332 0.3682 0.74852 0.0
C155 C 0.5334 0.37708 0.70273 0.0
C156 C 0.53153 0.41742 0.77343 0.0
H157 H 0.56785 0.41299 0.65882 0.0
C158 C 0.6077 0.47142 0.61578 0.0
O159 O 0.68485 0.51778 0.70942 0.0
O160 O 0.66135 0.47196 0.73155 0.0
N161 N 0.55418 0.46553 0.79831 0.0
C162 C 0.55913 0.48761 0.83443 0.0
C163 C 0.54265 0.48223 0.88548 0.0
C164 C 0.52123 0.45425 0.89875 0.0
C165 C 0.5166 0.43186 0.86097 0.0
C166 C 0.53356 0.43855 0.81051 0.0
H167 H 0.57553 0.50911 0.82428 0.0
O168 O 0.64323 0.49838 0.81089 0.0
O169 O 0.60581 0.46964 0.75702 0.0
O170 O 0.63483 0.52902 0.71537 0.0
O171 O 0.5872 0.50776 0.718 0.0
C172 C 0.49646 0.40308 0.87233 0.0
C173 C 0.49437 0.38147 0.83442 0.0
H174 H 0.49907 0.34564 0.75589 0.0
H175 H 0.53444 0.36144 0.67478 0.0
H176 H 0.54634 0.49962 0.91437 0.0
H177 H 0.50867 0.45013 0.93836 0.0
H178 H 0.48298 0.39727 0.91094 0.0
H179 H 0.47935 0.35937 0.84452 0.0
Mn180 Mn 0.15248 0.63937 0.89355 0.0
Mn181 Mn 0.11713 0.56697 0.8966 0.0
C182 C 0.14494 0.61607 0.98261 0.0
C183 C 0.19431 0.68417 0.89301 0.0
C184 C 0.0876 0.60164 0.88365 0.0
O185 O 0.15589 0.62957 0.80841 0.0
O186 O 0.13218 0.58172 0.81718 0.0
C187 C 0.16474 0.55635 0.87055 0.0
N188 N 0.14187 0.55152 0.90391 0.0
C189 C 0.14189 0.51236 0.9535 0.0
C190 C 0.16526 0.51666 0.91914 0.0
C191 C 0.17693 0.53896 0.87797 0.0
C192 C 0.1309 0.53056 0.94458 0.0
H193 H 0.17344 0.57321 0.83835 0.0
C194 C 0.14636 0.60454 0.78723 0.0
O195 O 0.16995 0.68114 0.87701 0.0
O196 O 0.19477 0.66093 0.90404 0.0
N197 N 0.10129 0.54859 0.96961 0.0
C198 C 0.0812 0.54973 0.00359 0.0
C199 C 0.06865 0.53033 0.04991 0.0
C200 C 0.07674 0.50979 0.06051 0.0
C201 C 0.09749 0.50901 0.02479 0.0
C202 C 0.10933 0.52901 0.97953 0.0
H203 H 0.07466 0.56514 -0.00507 0.0
O204 O 0.14841 0.64148 0.97899 0.0
O205 O 0.14505 0.60388 0.93301 0.0
O206 O 0.10978 0.62633 0.88211 0.0
O207 O 0.08841 0.57873 0.88938 0.0
C208 C 0.10719 0.48944 0.03269 0.0
C209 C 0.12938 0.49111 -0.00297 0.0
H210 H 0.17465 0.50323 0.92454 0.0
H211 H 0.19509 0.54254 0.8516 0.0
H212 H 0.05242 0.53093 0.07661 0.0
H213 H 0.06697 0.49483 0.09626 0.0
H214 H 0.09827 0.47354 0.06702 0.0
H215 H 0.1372 0.47648 0.00456 0.0
Mn216 Mn 0.8621 0.48626 0.8558 0.0
Mn217 Mn 0.89694 0.44918 0.86148 0.0
C218 C 0.88027 0.47817 0.77111 0.0
C219 C 0.81787 0.48386 0.84617 0.0
C220 C 0.92417 0.51195 0.89425 0.0
O221 O 0.85306 0.46913 0.93838 0.0
O222 O 0.87285 0.44127 0.93222 0.0
C223 C 0.8457 0.39207 0.84852 0.0
N224 N 0.87212 0.41215 0.82965 0.0
C225 C 0.86987 0.38263 0.74838 0.0
C226 C 0.84273 0.36155 0.76717 0.0
C227 C 0.83057 0.36634 0.81738 0.0
C228 C 0.8838 0.40796 0.78084 0.0
H229 H 0.83619 0.39576 0.88681 0.0
C230 C 0.85821 0.4503 0.95937 0.0
O231 O 0.83972 0.50642 0.86802 0.0
O232 O 0.82149 0.46269 0.83276 0.0
N233 N 0.92139 0.45407 0.79636 0.0
C234 C 0.94862 0.47563 0.78686 0.0
C235 C 0.96452 0.47353 0.74025 0.0
C236 C 0.95248 0.44907 0.70456 0.0
C237 C 0.9248 0.42674 0.71642 0.0
C238 C 0.91018 0.42987 0.76407 0.0
H239 H 0.95819 0.49427 0.81469 0.0
O240 O 0.87278 0.49741 0.77211 0.0
O241 O 0.8755 0.46332 0.81863 0.0
O242 O 0.90314 0.51552 0.88114 0.0
O243 O 0.9235 0.48796 0.89171 0.0
C244 C 0.91124 0.40142 0.68313 0.0
C245 C 0.88365 0.3795 0.69873 0.0
H246 H 0.83102 0.34165 0.74337 0.0
H247 H 0.80957 0.35023 0.832 0.0
H248 H 0.98599 0.49071 0.73186 0.0
H249 H 0.96469 0.44763 0.66833 0.0
H250 H 0.92181 0.3986 0.64543 0.0
H251 H 0.87337 0.36019 0.67262 0.0
Mn252 Mn 0.37882 0.8658 0.01871 0.0
Mn253 Mn 0.45055 0.89916 0.02912 0.0
C254 C 0.40651 0.88425 0.93553 0.0
C255 C 0.33681 0.82161 0.0065 0.0
C256 C 0.41551 0.92702 0.0621 0.0
O257 O 0.38558 0.85577 0.10155 0.0
O258 O 0.43307 0.8737 0.09737 0.0
C259 C 0.45591 0.84783 0.01217 0.0
N260 N 0.46283 0.87468 -0.00437 0.0
C261 C 0.49122 0.87376 0.91511 0.0
C262 C 0.48456 0.84617 0.93153 0.0
C263 C 0.46676 0.83313 0.98018 0.0
C264 C 0.47954 0.88723 0.94832 0.0
H265 H 0.44205 0.83764 0.04925 0.0
C266 C 0.40897 0.8595 0.12322 0.0
O267 O 0.33591 0.8434 0.02827 0.0
O268 O 0.36175 0.82538 -0.00588 0.0
N269 N 0.47117 0.92474 0.96641 0.0
C270 C 0.47697 0.95209 0.95873 0.0
C271 C 0.49562 0.96872 0.9137 0.0
C272 C 0.50854 0.95727 0.87773 0.0
C273 C 0.50298 0.9294 0.88766 0.0
C274 C 0.48454 0.91402 0.93376 0.0
H275 H 0.46753 0.96122 0.98682 0.0
O276 O 0.37988 0.87725 0.93494 0.0
O277 O 0.41558 0.87897 0.9838 0.0
O278 O 0.39097 0.90682 0.04561 0.0
O279 O 0.43841 0.92549 0.06136 0.0
C280 C 0.51506 0.91632 0.85373 0.0
C281 C 0.50894 0.8884 0.86707 0.0
H282 H 0.49295 0.83479 0.90705 0.0
H283 H 0.46141 0.81179 -0.00704 0.0
H284 H 0.50004 0.99032 0.90678 0.0
H285 H 0.52272 0.97006 0.84272 0.0
H286 H 0.52903 0.92752 0.81719 0.0
H287 H 0.51821 0.87849 0.84044 0.0
Mn288 Mn 0.52622 0.37673 0.19129 0.0
Mn289 Mn 0.55959 0.44897 0.20502 0.0
C290 C 0.54686 0.4054 0.11025 0.0
C291 C 0.52564 0.3331 0.18633 0.0
C292 C 0.49525 0.41027 0.21003 0.0
O293 O 0.53481 0.383 0.27917 0.0
O294 O 0.56061 0.43136 0.27987 0.0
C295 C 0.61938 0.46391 0.22772 0.0
N296 N 0.60014 0.46804 0.19748 0.0
C297 C 0.63759 0.50786 0.1454 0.0
C298 C 0.65784 0.50459 0.17745 0.0
C299 C 0.64868 0.48234 0.21838 0.0
C300 C 0.60869 0.48913 0.15731 0.0
H301 H 0.61234 0.44637 0.25777 0.0
C302 C 0.55068 0.40699 0.30456 0.0
O303 O 0.50292 0.33439 0.19876 0.0
O304 O 0.54925 0.35728 0.18156 0.0
N305 N 0.56049 0.46857 0.13474 0.0
C306 C 0.53839 0.4657 0.10134 0.0
C307 C 0.54389 0.48442 0.05426 0.0
C308 C 0.57202 0.50587 0.04207 0.0
C309 C 0.59443 0.50829 0.07688 0.0
C310 C 0.58762 0.48922 0.12358 0.0
H311 H 0.51677 0.44931 0.11072 0.0
O312 O 0.52579 0.37949 0.10449 0.0
O313 O 0.55446 0.41459 0.16356 0.0
O314 O 0.4942 0.38666 0.1997 0.0
O315 O 0.51842 0.43388 0.21425 0.0
C316 C 0.62334 0.52829 0.06597 0.0
C317 C 0.64491 0.52809 0.10024 0.0
H318 H 0.68045 0.51852 0.16978 0.0
H319 H 0.66417 0.47926 0.2423 0.0
H320 H 0.52647 0.48242 0.02762 0.0
H321 H 0.57621 0.52016 0.0055 0.0
H322 H 0.62925 0.54338 0.03028 0.0
H323 H 0.66708 0.54297 0.09024 0.0
Mn324 Mn 0.15819 0.52193 0.35945 0.0
Mn325 Mn 0.11863 0.55469 0.35775 0.0
C326 C 0.14906 0.53663 0.27077 0.0
C327 C 0.20164 0.52205 0.35926 0.0
C328 C 0.09304 0.4908 0.37009 0.0
O329 O 0.16068 0.53455 0.44488 0.0
O330 O 0.13435 0.556 0.43675 0.0
C331 C 0.1636 0.61416 0.38341 0.0
N332 N 0.14113 0.59514 0.35048 0.0
C333 C 0.13791 0.63279 0.30175 0.0
C334 C 0.16081 0.65284 0.3357 0.0
C335 C 0.17391 0.64349 0.37622 0.0
C336 C 0.12884 0.60394 0.3104 0.0
H337 H 0.17338 0.60695 0.41509 0.0
C338 C 0.14966 0.54867 0.46639 0.0
O339 O 0.17794 0.49981 0.37541 0.0
O340 O 0.20052 0.54498 0.3486 0.0
N341 N 0.10178 0.556 0.28527 0.0
C342 C 0.08235 0.53411 0.25169 0.0
C343 C 0.06854 0.53977 0.20612 0.0
C344 C 0.07467 0.56786 0.19587 0.0
C345 C 0.09472 0.59008 0.23122 0.0
C346 C 0.10789 0.58311 0.27575 0.0
H347 H 0.07724 0.51252 0.26019 0.0
O348 O 0.15444 0.51591 0.27404 0.0
O349 O 0.14826 0.54835 0.32052 0.0
O350 O 0.11623 0.49012 0.37083 0.0
O351 O 0.09203 0.51363 0.36503 0.0
C352 C 0.10245 0.6189 0.22369 0.0
C353 C 0.12406 0.64026 0.25892 0.0
H354 H 0.16875 0.67546 0.3305 0.0
H355 H 0.19172 0.65884 0.40226 0.0
H356 H 0.05282 0.52239 0.17978 0.0
H357 H 0.06392 0.57213 0.1607 0.0
H358 H 0.09247 0.62495 0.18992 0.0
H359 H 0.13038 0.6624 0.25164 0.0
Mn360 Mn 0.64748 0.15051 0.53148 0.0
Mn361 Mn 0.575 0.11378 0.52585 0.0
C362 C 0.62386 0.1474 0.44543 0.0
C363 C 0.69194 0.19245 0.53569 0.0
C364 C 0.61075 0.08527 0.52817 0.0
O365 O 0.63689 0.15034 0.61767 0.0
O366 O 0.58909 0.12437 0.60647 0.0
C367 C 0.5629 0.15861 0.56764 0.0
N368 N 0.5592 0.13842 0.52737 0.0
C369 C 0.52397 0.14461 0.47561 0.0
C370 C 0.52721 0.16527 0.51689 0.0
C371 C 0.54687 0.1724 0.56291 0.0
C372 C 0.54039 0.13146 0.48281 0.0
H373 H 0.57793 0.16413 0.60311 0.0
C374 C 0.61138 0.13854 0.63793 0.0
O375 O 0.68931 0.16774 0.54683 0.0
O376 O 0.66847 0.19299 0.52837 0.0
N377 N 0.55812 0.10265 0.44993 0.0
C378 C 0.56039 0.08518 0.41001 0.0
C379 C 0.54342 0.07712 0.35947 0.0
C380 C 0.52431 0.08716 0.35029 0.0
C381 C 0.52244 0.10528 0.39193 0.0
C382 C 0.53972 0.11234 0.44184 0.0
H383 H 0.57509 0.07756 0.41675 0.0
O384 O 0.64927 0.15062 0.44427 0.0
O385 O 0.61202 0.14421 0.49649 0.0
O386 O 0.63505 0.10764 0.53459 0.0
O387 O 0.58756 0.08564 0.52327 0.0
C388 C 0.5049 0.11742 0.38495 0.0
C389 C 0.50569 0.1371 0.42674 0.0
H390 H 0.51501 0.17608 0.51322 0.0
H391 H 0.54962 0.18846 0.5947 0.0
H392 H 0.54501 0.06304 0.32806 0.0
H393 H 0.51149 0.08113 0.3108 0.0
H394 H 0.49129 0.11236 0.34683 0.0
H395 H 0.49263 0.14682 0.42016 0.0
Mn396 Mn 0.50419 0.64661 0.69981 0.0
Mn397 Mn 0.47214 0.57441 0.70125 0.0
C398 C 0.49206 0.62176 0.61195 0.0
C399 C 0.50312 0.68922 0.69596 0.0
C400 C 0.53535 0.61369 0.72185 0.0
O401 O 0.48977 0.63702 0.78417 0.0
O402 O 0.46766 0.58904 0.77804 0.0
C403 C 0.4115 0.55823 0.71633 0.0
N404 N 0.43207 0.55573 0.68699 0.0
C405 C 0.39696 0.51524 0.63247 0.0
C406 C 0.37534 0.51721 0.66248 0.0
C407 C 0.38265 0.53897 0.70417 0.0
C408 C 0.42528 0.53518 0.6461 0.0
H409 H 0.41711 0.57467 0.74899 0.0
C410 C 0.47473 0.61213 0.80615 0.0
O411 O 0.52533 0.68854 0.71512 0.0
O412 O 0.48075 0.66486 0.68395 0.0
N413 N 0.4742 0.55665 0.63031 0.0
C414 C 0.49758 0.56006 0.60069 0.0
C415 C 0.49402 0.54175 0.55365 0.0
C416 C 0.46653 0.51984 0.53841 0.0
C417 C 0.4428 0.51668 0.56984 0.0
C418 C 0.44766 0.53581 0.61567 0.0
H419 H 0.51874 0.57651 0.61313 0.0
O420 O 0.51221 0.64816 0.61503 0.0
O421 O 0.4793 0.60984 0.66126 0.0
O422 O 0.53602 0.63742 0.71715 0.0
O423 O 0.5128 0.5896 0.7166 0.0
C424 C 0.41449 0.49558 0.55701 0.0
C425 C 0.39158 0.49476 0.58853 0.0
H426 H 0.35308 0.50237 0.65331 0.0
H427 H 0.36609 0.54072 0.72724 0.0
H428 H 0.51243 0.54426 0.52978 0.0
H429 H 0.46387 0.50564 0.50241 0.0
H430 H 0.41006 0.48031 0.52211 0.0
H431 H 0.36989 0.4789 0.57731 0.0
H432 H 0.54496 0.15391 0.25856 0.0
H433 H 0.60933 0.15968 0.14189 0.0
H434 H 0.63606 0.15476 0.22349 0.0
H435 H 0.63712 0.14524 0.33088 0.0
H436 H 0.59086 0.17186 0.44285 0.0
H437 H 0.56161 0.1709 0.36013 0.0
C438 C 0.56467 0.15375 0.25083 0.0
C439 C 0.57252 0.15046 0.19397 0.0
C440 C 0.58266 0.15736 0.29778 0.0
C441 C 0.60006 0.15502 0.18488 0.0
C442 C 0.616 0.15409 0.23172 0.0
C443 C 0.6205 0.15062 0.33713 0.0
C444 C 0.6123 0.15382 0.39361 0.0
C445 C 0.60649 0.15373 0.28879 0.0
C446 C 0.59388 0.16482 0.40045 0.0
C447 C 0.57781 0.16502 0.35323 0.0
H448 H 0.4577 0.59054 0.34711 0.0
H449 H 0.38729 0.51779 0.42767 0.0
H450 H 0.40222 0.54105 0.52271 0.0
H451 H 0.43846 0.57993 0.58417 0.0
H452 H 0.51836 0.64098 0.50663 0.0
H453 H 0.49789 0.62483 0.40937 0.0
C454 C 0.44766 0.57806 0.38541 0.0
C455 C 0.42321 0.55123 0.37962 0.0
C456 C 0.4586 0.58918 0.44098 0.0
C457 C 0.40718 0.53785 0.43037 0.0
C458 C 0.41581 0.55087 0.48513 0.0
C459 C 0.45242 0.58767 0.54669 0.0
C460 C 0.48063 0.6097 0.55353 0.0
C461 C 0.44218 0.5758 0.49128 0.0
C462 C 0.49696 0.62286 0.50309 0.0
C463 C 0.48548 0.6135 0.44732 0.0
H464 H 0.84323 0.43448 0.70627 0.0
H465 H 0.9298 0.50411 0.7092 0.0
H466 H 0.94031 0.4864 0.61886 0.0
H467 H 0.92454 0.4488 0.54199 0.0
H468 H 0.83498 0.38805 0.52537 0.0
H469 H 0.8256 0.40357 0.61942 0.0
C470 C 0.8643 0.44578 0.6865 0.0
C471 C 0.88631 0.46936 0.71512 0.0
C472 C 0.86937 0.43699 0.63235 0.0
C473 C 0.91306 0.48507 0.68842 0.0
C474 C 0.91889 0.4752 0.63653 0.0
C475 C 0.90286 0.44023 0.55715 0.0
C476 C 0.88035 0.41833 0.52582 0.0
C477 C 0.89726 0.45092 0.60846 0.0
C478 C 0.85251 0.40554 0.54845 0.0
C479 C 0.84713 0.41434 0.602 0.0
H480 H 0.48054 0.9216 0.70565 0.0
H481 H 0.44332 0.83062 0.69062 0.0
H482 H 0.41968 0.82412 0.78553 0.0
H483 H 0.40936 0.84457 0.87208 0.0
H484 H 0.43438 0.93347 0.87287 0.0
H485 H 0.46259 0.94107 0.7834 0.0
C486 C 0.46612 0.90039 0.72174 0.0
C487 C 0.4626 0.87658 0.69039 0.0
C488 C 0.45065 0.89664 0.77366 0.0
C489 C 0.44559 0.84917 0.7137 0.0
C490 C 0.43215 0.84545 0.76776 0.0
C491 C 0.42093 0.86553 0.85211 0.0
C492 C 0.42166 0.8889 0.88008 0.0
C493 C 0.43449 0.86904 0.79798 0.0
C494 C 0.43503 0.91563 0.85294 0.0
C495 C 0.45064 0.9198 0.80141 0.0
H496 H 0.53438 0.39261 -0.00509 0.0
H497 H 0.60381 0.4436 0.10941 0.0
H498 H 0.63094 0.47606 0.02902 0.0
H499 H 0.63132 0.49034 0.92418 0.0
H500 H 0.57954 0.42093 0.80909 0.0
H501 H 0.54859 0.39318 0.89057 0.0
C502 C 0.55526 0.41109 0.00244 0.0
C503 C 0.5651 0.4201 0.05957 0.0
C504 C 0.57286 0.42573 0.95494 0.0
C505 C 0.59377 0.4409 0.06751 0.0
C506 C 0.60969 0.45832 0.02111 0.0
C507 C 0.613 0.46933 0.91694 0.0
C508 C 0.60367 0.45944 0.85995 0.0
C509 C 0.59855 0.45164 0.96454 0.0
C510 C 0.58307 0.43068 0.85178 0.0
C511 C 0.56621 0.41451 0.89843 0.0
H512 H 0.15896 0.59001 0.2459 0.0
H513 H 0.15138 0.51504 0.16426 0.0
H514 H 0.15865 0.53771 0.06869 0.0
H515 H 0.15925 0.57567 0.00732 0.0
H516 H 0.14539 0.6392 0.08907 0.0
H517 H 0.15465 0.62537 0.18455 0.0
C518 C 0.15558 0.57726 0.20737 0.0
C519 C 0.15139 0.54971 0.21273 0.0
C520 C 0.15508 0.58814 0.15205 0.0
C521 C 0.15268 0.53563 0.16176 0.0
C522 C 0.15645 0.5483 0.10684 0.0
C523 C 0.155 0.58436 0.04593 0.0
C524 C 0.14846 0.60617 0.04065 0.0
C525 C 0.1557 0.57359 0.10124 0.0
C526 C 0.14853 0.62099 0.09158 0.0
C527 C 0.15342 0.61295 0.14645 0.0
H528 H 0.56775 0.32447 0.14183 0.0
H529 H 0.47899 0.27974 0.19255 0.0
H530 H 0.474 0.23507 0.15599 0.0
H531 H 0.4946 0.2085 0.10872 0.0
H532 H 0.58364 0.25269 0.0607 0.0
H533 H 0.5886 0.29767 0.09597 0.0
C534 C 0.54739 0.3049 0.14553 0.0
C535 C 0.52382 0.30556 0.17028 0.0
C536 C 0.54457 0.27918 0.12389 0.0
C537 C 0.49755 0.27995 0.1741 0.0
C538 C 0.49461 0.25435 0.1528 0.0
C539 C 0.51499 0.22805 0.10517 0.0
C540 C 0.53863 0.22726 0.08132 0.0
C541 C 0.51788 0.25373 0.12708 0.0
C542 C 0.56504 0.25272 0.07833 0.0
C543 C 0.56793 0.27844 0.09887 0.0
H544 H 0.29457 0.49023 0.28025 0.0
H545 H 0.34051 0.57966 0.23692 0.0
H546 H 0.30066 0.58485 0.27271 0.0
H547 H 0.25285 0.56405 0.31726 0.0
H548 H 0.20788 0.47506 0.36512 0.0
H549 H 0.24737 0.46979 0.32796 0.0
C550 C 0.29563 0.51074 0.27784 0.0
C551 C 0.32026 0.53443 0.25496 0.0
C552 C 0.27301 0.51378 0.30043 0.0
C553 C 0.32166 0.56104 0.25367 0.0
C554 C 0.29896 0.56406 0.27451 0.0
C555 C 0.25181 0.54358 0.32026 0.0
C556 C 0.22736 0.52002 0.34424 0.0
C557 C 0.27461 0.54063 0.29848 0.0
C558 C 0.22643 0.49363 0.34735 0.0
C559 C 0.24895 0.49052 0.32562 0.0
H560 H 0.70191 0.2433 0.49283 0.0
H561 H 0.74501 0.19764 0.54167 0.0
H562 H 0.78992 0.23634 0.50247 0.0
H563 H 0.81689 0.2831 0.45182 0.0
H564 H 0.77289 0.32807 0.40456 0.0
H565 H 0.72843 0.28952 0.44428 0.0
C566 C 0.72117 0.24191 0.49574 0.0
C567 C 0.72003 0.2176 0.52059 0.0
C568 C 0.74675 0.26394 0.47211 0.0
C569 C 0.74525 0.21618 0.52328 0.0
C570 C 0.77093 0.23821 0.50033 0.0
C571 C 0.79743 0.28415 0.44945 0.0
C572 C 0.79813 0.30827 0.42458 0.0
C573 C 0.77188 0.26206 0.47383 0.0
C574 C 0.77289 0.30967 0.42306 0.0
C575 C 0.74747 0.2877 0.44613 0.0
H576 H 0.53249 0.81255 0.61372 0.0
H577 H 0.44418 0.76576 0.56152 0.0
H578 H 0.44 0.72168 0.59941 0.0
H579 H 0.46117 0.69645 0.6484 0.0
H580 H 0.54897 0.74323 0.70458 0.0
H581 H 0.55344 0.78727 0.66548 0.0
C582 C 0.51251 0.79259 0.60988 0.0
C583 C 0.4888 0.79228 0.58404 0.0
C584 C 0.51 0.76741 0.63357 0.0
C585 C 0.4628 0.76644 0.58072 0.0
C586 C 0.46034 0.74127 0.60273 0.0
C587 C 0.48121 0.71632 0.65274 0.0
C588 C 0.50465 0.71648 0.67962 0.0
C589 C 0.4837 0.74154 0.62976 0.0
C590 C 0.53049 0.74246 0.68451 0.0
C591 C 0.53315 0.76766 0.66169 0.0
H592 H 0.69388 0.4533 0.76959 0.0
H593 H 0.73937 0.54108 0.71323 0.0
H594 H 0.78387 0.5463 0.75119 0.0
H595 H 0.81008 0.52609 0.80182 0.0
H596 H 0.76488 0.43781 0.85388 0.0
H597 H 0.72013 0.43281 0.81761 0.0
C598 C 0.71358 0.47347 0.76486 0.0
C599 C 0.7132 0.4967 0.7383 0.0
C600 C 0.73914 0.47643 0.78728 0.0
C601 C 0.73898 0.52274 0.7331 0.0
C602 C 0.76446 0.52585 0.75527 0.0
C603 C 0.7903 0.50596 0.80611 0.0
C604 C 0.79062 0.48249 0.83146 0.0
C605 C 0.76478 0.50295 0.78313 0.0
C606 C 0.76504 0.45626 0.83518 0.0
C607 C 0.7395 0.45333 0.81402 0.0
H608 H 0.24571 0.69569 0.93632 0.0
H609 H 0.19848 0.73666 0.88393 0.0
H610 H 0.23724 0.78259 0.91873 0.0
H611 H 0.28491 0.81132 0.96522 0.0
H612 H 0.33195 0.76971 0.01425 0.0
H613 H 0.29283 0.72395 0.98094 0.0
C614 C 0.24396 0.71468 0.93186 0.0
C615 C 0.2192 0.71264 0.90715 0.0
C616 C 0.26619 0.74095 0.95251 0.0
C617 C 0.21734 0.73756 0.90227 0.0
C618 C 0.23944 0.76385 0.92264 0.0
C619 C 0.28628 0.79211 0.96944 0.0
C620 C 0.31114 0.79383 -0.00708 0.0
C621 C 0.2639 0.7658 0.94843 0.0
C622 C 0.31296 0.7689 -0.00323 0.0
C623 C 0.29067 0.74273 0.97737 0.0
H624 H 0.55998 0.1232 0.68597 0.0
H625 H 0.65013 0.1669 0.72647 0.0
H626 H 0.63958 0.17728 0.82519 0.0
H627 H 0.60443 0.17146 0.90017 0.0
H628 H 0.51468 0.12576 0.85993 0.0
H629 H 0.52565 0.12027 0.75794 0.0
C630 C 0.57756 0.13498 0.71603 0.0
C631 C 0.60591 0.14386 0.69895 0.0
C632 C 0.57141 0.14118 0.77169 0.0
C633 C 0.62816 0.15943 0.7387 0.0
C634 C 0.62214 0.16559 0.79481 0.0
C635 C 0.58735 0.16059 0.86888 0.0
C636 C 0.55883 0.14879 0.88707 0.0
C637 C 0.59383 0.15632 0.81172 0.0
C638 C 0.53677 0.13533 0.84623 0.0
C639 C 0.54305 0.13175 0.7885 0.0
H640 H 0.42571 0.57015 0.85305 0.0
H641 H 0.50396 0.6466 0.89845 0.0
H642 H 0.49285 0.63623 0.00284 0.0
H643 H 0.46347 0.60269 0.08 0.0
H644 H 0.38422 0.52727 0.0349 0.0
H645 H 0.39303 0.54011 0.93088 0.0
C646 C 0.44009 0.58481 0.88579 0.0
C647 C 0.46578 0.60896 0.86822 0.0
C648 C 0.4335 0.57874 0.94543 0.0
C649 C 0.48407 0.62793 0.91098 0.0
C650 C 0.47781 0.62188 0.97057 0.0
C651 C 0.4479 0.58926 0.04752 0.0
C652 C 0.42339 0.56387 0.06492 0.0
C653 C 0.45299 0.59693 0.98816 0.0
C654 C 0.40324 0.54688 0.02248 0.0
C655 C 0.40835 0.55415 0.96309 0.0
H656 H 0.85295 0.40209 0.008 0.0
H657 H 0.84438 0.47542 0.04823 0.0
H658 H 0.84048 0.4638 0.15258 0.0
H659 H 0.84713 0.43741 0.23235 0.0
H660 H 0.8574 0.3651 0.19276 0.0
H661 H 0.85246 0.37142 0.08791 0.0
C662 C 0.84976 0.41531 0.03947 0.0
C663 C 0.84954 0.43997 0.02034 0.0
C664 C 0.84806 0.40879 0.09947 0.0
C665 C 0.84479 0.45646 0.06163 0.0
C666 C 0.84274 0.44992 0.12139 0.0
C667 C 0.84773 0.42265 0.20086 0.0
C668 C 0.85311 0.40108 0.22021 0.0
C669 C 0.84551 0.42683 0.14083 0.0
C670 C 0.85332 0.38186 0.17904 0.0
C671 C 0.85076 0.38566 0.11907 0.0
H672 H 0.40725 0.84331 0.39529 0.0
H673 H 0.48875 0.85059 0.35687 0.0
H674 H 0.47854 0.84773 0.25176 0.0
H675 H 0.45 0.85111 0.17179 0.0
H676 H 0.36936 0.8458 0.21073 0.0
H677 H 0.37555 0.83954 0.31477 0.0
C678 C 0.42257 0.84369 0.36396 0.0
C679 C 0.44897 0.84766 0.38386 0.0
C680 C 0.41685 0.84277 0.30374 0.0
C681 C 0.46833 0.8476 0.34281 0.0
C682 C 0.46259 0.84624 0.28266 0.0
C683 C 0.43352 0.84813 0.20288 0.0
C684 C 0.40949 0.84953 0.18356 0.0
C685 C 0.43748 0.84508 0.26272 0.0
C686 C 0.38811 0.84501 0.2243 0.0
C687 C 0.39173 0.8416 0.28389 0.0
H688 H 0.55788 0.43028 0.57044 0.0
H689 H 0.6469 0.48508 0.52664 0.0
H690 H 0.63746 0.46518 0.4271 0.0
H691 H 0.603 0.43572 0.35182 0.0
H692 H 0.51422 0.382 0.39598 0.0
H693 H 0.5249 0.39693 0.4988 0.0
C694 C 0.57546 0.43789 0.53962 0.0
C695 C 0.60307 0.4596 0.55576 0.0
C696 C 0.56997 0.42613 0.48344 0.0
C697 C 0.62545 0.46873 0.5151 0.0
C698 C 0.62007 0.45725 0.45846 0.0
C699 C 0.58611 0.42684 0.38413 0.0
C700 C 0.55785 0.40806 0.3667 0.0
C701 C 0.59231 0.43636 0.44207 0.0
C702 C 0.53614 0.39627 0.40885 0.0
C703 C 0.5422 0.40519 0.46719 0.0
H704 H 0.15308 0.59623 0.51304 0.0
H705 H 0.15598 0.52058 0.55977 0.0
H706 H 0.15676 0.53229 0.66399 0.0
H707 H 0.15242 0.56182 0.74077 0.0
H708 H 0.15185 0.63868 0.69394 0.0
H709 H 0.15462 0.62879 0.58987 0.0
C710 C 0.15428 0.58246 0.54594 0.0
C711 C 0.15418 0.55737 0.52878 0.0
C712 C 0.15496 0.58948 0.60538 0.0
C713 C 0.15605 0.53996 0.5719 0.0
C714 C 0.15633 0.54659 0.63139 0.0
C715 C 0.15325 0.57663 0.7079 0.0
C716 C 0.1516 0.60082 0.72496 0.0
C717 C 0.15515 0.57095 0.64851 0.0
C718 C 0.15306 0.61995 0.68188 0.0
C719 C 0.15451 0.61421 0.62247 0.0
H720 H 0.47195 0.05313 0.14331 0.0
H721 H 0.46429 0.06418 0.95872 0.0
H722 H 0.43147 0.01285 0.94774 0.0
H723 H 0.41413 0.96436 0.98651 0.0
H724 H 0.42847 0.95355 0.16785 0.0
H725 H 0.44944 1.00485 0.18479 0.0
C726 C 0.46238 0.04434 0.10111 0.0
C727 C 0.4704 0.06233 0.05189 0.0
C728 C 0.44513 0.01462 0.09459 0.0
C729 C 0.45797 0.05077 -0.00263 0.0
C730 C 0.43958 0.02135 -0.00902 0.0
C731 C 0.42074 0.9732 0.03021 0.0
C732 C 0.41933 0.9553 0.07623 0.0
C733 C 0.43424 1.00293 0.03865 0.0
C734 C 0.4289 0.96695 0.13221 0.0
C735 C 0.44113 0.9963 0.14167 0.0
H736 H 0.46405 0.41722 0.1262 0.0
H737 H 0.46983 0.40919 0.31271 0.0
H738 H 0.43808 0.42849 0.32981 0.0
H739 H 0.41799 0.45728 0.29218 0.0
H740 H 0.41601 0.46927 0.10615 0.0
H741 H 0.43604 0.43822 0.08781 0.0
C742 C 0.45727 0.41857 0.17034 0.0
C743 C 0.4689 0.41154 0.21819 0.0
C744 C 0.43991 0.43077 0.17976 0.0
C745 C 0.46066 0.414 0.27532 0.0
C746 C 0.44279 0.42536 0.28506 0.0
C747 C 0.42068 0.4519 0.24763 0.0
C748 C 0.41521 0.46515 0.2005 0.0
C749 C 0.4335 0.43516 0.23776 0.0
C750 C 0.41948 0.45875 0.14295 0.0
C751 C 0.43138 0.44138 0.13258 0.0
H752 H 0.05776 0.46476 0.27969 0.0
H753 H 0.06542 0.45937 0.46636 0.0
H754 H 0.01369 0.42735 0.47439 0.0
H755 H 0.96598 0.40991 0.43084 0.0
H756 H 0.95891 0.42232 0.24654 0.0
H757 H 1.01042 0.44246 0.23434 0.0
C758 C 0.04811 0.4559 0.32181 0.0
C759 C 0.06521 0.46428 0.37237 0.0
C760 C 0.0183 0.43913 0.32632 0.0
C761 C 0.05265 0.45275 0.4268 0.0
C762 C 0.02304 0.43482 0.4314 0.0
C763 C 0.97569 0.41595 0.3877 0.0
C764 C 0.95881 0.41428 0.33936 0.0
C765 C 1.00554 0.42906 0.38187 0.0
C766 C 0.97155 0.42305 0.28397 0.0
C767 C 1.00099 0.43479 0.2772 0.0
H768 H 0.56041 0.9576 0.58442 0.0
H769 H 0.52962 0.95191 0.40807 0.0
H770 H 0.56323 1.00267 0.393 0.0
H771 H 0.59393 0.04955 0.43635 0.0
H772 H 0.61914 0.05677 0.61719 0.0
H773 H 0.59648 1.00468 0.62398 0.0
C774 C 0.56195 0.96738 0.54209 0.0
C775 C 0.54288 0.95122 0.49712 0.0
C776 C 0.58024 0.99693 0.535 0.0
C777 C 0.54432 0.96405 0.44293 0.0
C778 C 0.56339 0.99305 0.43453 0.0
C779 C 0.59506 0.0397 0.47674 0.0
C780 C 0.60792 0.05679 0.52629 0.0
C781 C 0.58038 0.00989 0.48115 0.0
C782 C 0.60964 0.04396 0.5783 0.0
C783 C 0.59626 0.01418 0.58236 0.0
H784 H 0.60563 0.55999 0.80159 0.0
H785 H 0.61664 0.55856 0.61482 0.0
H786 H 0.59944 0.59225 0.60116 0.0
H787 H 0.57075 0.61224 0.64092 0.0
H788 H 0.55593 0.60986 0.82692 0.0
H789 H 0.58571 0.5883 0.8431 0.0
C790 C 0.60537 0.56809 0.75827 0.0
C791 C 0.6124 0.55708 0.70923 0.0
C792 C 0.59439 0.58651 0.75081 0.0
C793 C 0.61168 0.5672 0.6531 0.0
C794 C 0.60151 0.58615 0.64532 0.0
C795 C 0.5753 0.60826 0.6851 0.0
C796 C 0.56156 0.61279 0.7328 0.0
C797 C 0.59132 0.59465 0.69357 0.0
C798 C 0.56682 0.60697 0.78984 0.0
C799 C 0.58348 0.59426 0.79892 0.0
H800 H 0.05016 0.58812 0.97214 0.0
H801 H 0.06029 0.60512 0.78676 0.0
H802 H 1.00838 0.5828 0.77575 0.0
H803 H 0.9604 0.54993 0.81597 0.0
H804 H 0.95117 0.52774 -0.00093 0.0
H805 H 1.00223 0.5604 0.01451 0.0
C806 C 0.04097 0.58756 0.92967 0.0
C807 C 0.05885 0.59817 0.8803 0.0
C808 C 1.01117 0.57329 0.92342 0.0
C809 C 0.04687 0.59748 0.82545 0.0
C810 C 0.01719 0.58434 0.81911 0.0
C811 C 0.96952 0.55323 0.85959 0.0
C812 C 0.9522 0.53699 0.90668 0.0
C813 C 0.99912 0.57097 0.86732 0.0
C814 C 0.96415 0.54049 0.96265 0.0
C815 C 0.99334 0.55894 0.97125 0.0
loop_
_geom_bond_atom_site_label_1
_geom_bond_atom_site_label_2
_geom_bond_distance
_geom_bond_site_symmetry_2
_ccdc_geom_bond_type
Mn0 O5 2.095 1_554 S
Mn0 O15 2.162 . S
Mn0 O16 2.297 . S
Mn0 O24 2.385 . S
Mn0 O25 2.209 . S
Mn0 O26 2.094 . S
Mn1 O6 2.121 1_554 S
Mn1 N8 2.257 . S
Mn1 N17 2.282 . S
Mn1 O25 2.215 . S
Mn1 O27 2.117 . S
C2 O24 1.234 . S
C2 O25 1.283 . S
C3 O15 1.281 . S
C3 O16 1.236 . S
C4 O26 1.240 . S
C4 O27 1.264 . S
O5 Mn0 2.095 1_556 S
O5 C14 1.250 . S
O6 Mn1 2.121 1_556 S
O6 C14 1.258 . S
C7 N8 1.326 . S
C7 C11 1.460 . S
C7 H13 0.929 . S
N8 Mn1 2.257 . S
N8 C7 1.326 . S
N8 C12 1.362 . S
C9 C10 1.258 . S
C9 C12 1.431 . S
C9 C29 1.449 . S
C10 C9 1.258 . S
C10 C11 1.477 . S
C10 H30 0.931 . S
C11 C7 1.460 . S
C11 C10 1.477 . S
C11 H31 0.930 . S
C12 N8 1.362 . S
C12 C9 1.431 . S
C12 C22 1.476 . S
H13 C7 0.929 . S
C14 O5 1.250 . S
C14 O6 1.258 . S
O15 Mn0 2.162 . S
O15 C3 1.281 . S
O16 Mn0 2.297 . S
O16 C3 1.236 . S
N17 Mn1 2.282 . S
N17 C18 1.328 . S
N17 C22 1.318 . S
C18 N17 1.328 . S
C18 C19 1.457 . S
C18 H23 0.929 . S
C19 C18 1.457 . S
C19 C20 1.291 . S
C19 H32 0.931 . S
C20 C19 1.291 . S
C20 C21 1.373 . S
C20 H33 0.929 . S
C21 C20 1.373 . S
C21 C22 1.396 . S
C21 C28 1.403 . S
C22 C12 1.476 . S
C22 N17 1.318 . S
C22 C21 1.396 . S
H23 C18 0.929 . S
O24 Mn0 2.385 . S
O24 C2 1.234 . S
O25 Mn0 2.209 . S
O25 Mn1 2.215 . S
O25 C2 1.283 . S
O26 Mn0 2.094 . S
O26 C4 1.240 . S
O27 Mn1 2.117 . S
O27 C4 1.264 . S
C28 C21 1.403 . S
C28 C29 1.399 . S
C28 H34 0.929 . S
C29 C9 1.449 . S
C29 C28 1.399 . S
C29 H35 0.930 . S
H30 C10 0.931 . S
H31 C11 0.930 . S
H32 C19 0.931 . S
H33 C20 0.929 . S
H34 C28 0.929 . S
H35 C29 0.930 . S
Mn36 O41 2.095 . S
Mn36 O51 2.162 . S
Mn36 O52 2.297 . S
Mn36 O60 2.385 . S
Mn36 O61 2.209 . S
Mn36 O62 2.094 . S
Mn37 O42 2.121 . S
Mn37 N44 2.257 . S
Mn37 N53 2.282 . S
Mn37 O61 2.215 . S
Mn37 O63 2.117 . S
C38 O60 1.234 . S
C38 O61 1.283 . S
C39 O51 1.281 . S
C39 O52 1.236 . S
C40 O62 1.240 . S
C40 O63 1.264 . S
O41 Mn36 2.095 . S
O41 C50 1.250 . S
O42 Mn37 2.121 . S
O42 C50 1.258 . S
C43 N44 1.326 . S
C43 C47 1.460 . S
C43 H49 0.929 . S
N44 Mn37 2.257 . S
N44 C43 1.326 . S
N44 C48 1.362 . S
C45 C46 1.258 . S
C45 C48 1.431 . S
C45 C65 1.449 . S
C46 C45 1.258 . S
C46 C47 1.477 . S
C46 H66 0.931 . S
C47 C43 1.460 . S
C47 C46 1.477 . S
C47 H67 0.930 . S
C48 N44 1.362 . S
C48 C45 1.431 . S
C48 C58 1.476 . S
H49 C43 0.929 . S
C50 O41 1.250 . S
C50 O42 1.258 . S
O51 Mn36 2.162 . S
O51 C39 1.281 . S
O52 Mn36 2.297 . S
O52 C39 1.236 . S
N53 Mn37 2.282 . S
N53 C54 1.328 . S
N53 C58 1.318 . S
C54 N53 1.328 . S
C54 C55 1.457 . S
C54 H59 0.929 . S
C55 C54 1.457 . S
C55 C56 1.291 . S
C55 H68 0.931 . S
C56 C55 1.291 . S
C56 C57 1.373 . S
C56 H69 0.929 . S
C57 C56 1.373 . S
C57 C58 1.396 . S
C57 C64 1.403 . S
C58 C48 1.476 . S
C58 N53 1.318 . S
C58 C57 1.396 . S
H59 C54 0.929 . S
O60 Mn36 2.385 . S
O60 C38 1.234 . S
O61 Mn36 2.209 . S
O61 Mn37 2.215 . S
O61 C38 1.283 . S
O62 Mn36 2.094 . S
O62 C40 1.240 . S
O63 Mn37 2.117 . S
O63 C40 1.264 . S
C64 C57 1.403 . S
C64 C65 1.399 . S
C64 H70 0.929 . S
C65 C45 1.449 . S
C65 C64 1.399 . S
C65 H71 0.930 . S
H66 C46 0.931 . S
H67 C47 0.930 . S
H68 C55 0.931 . S
H69 C56 0.929 . S
H70 C64 0.929 . S
H71 C65 0.930 . S
Mn72 O77 2.095 . S
Mn72 O87 2.162 . S
Mn72 O88 2.297 . S
Mn72 O96 2.385 . S
Mn72 O97 2.209 . S
Mn72 O98 2.094 . S
Mn73 O78 2.121 . S
Mn73 N80 2.257 . S
Mn73 N89 2.282 . S
Mn73 O97 2.215 . S
Mn73 O99 2.117 . S
C74 O96 1.234 . S
C74 O97 1.283 . S
C75 O87 1.281 . S
C75 O88 1.236 . S
C76 O98 1.240 . S
C76 O99 1.264 . S
O77 Mn72 2.095 . S
O77 C86 1.250 . S
O78 Mn73 2.121 . S
O78 C86 1.258 . S
C79 N80 1.326 . S
C79 C83 1.460 . S
C79 H85 0.929 . S
N80 Mn73 2.257 . S
N80 C79 1.326 . S
N80 C84 1.362 . S
C81 C82 1.258 . S
C81 C84 1.431 . S
C81 C101 1.449 . S
C82 C81 1.258 . S
C82 C83 1.477 . S
C82 H102 0.931 . S
C83 C79 1.460 . S
C83 C82 1.477 . S
C83 H103 0.930 . S
C84 N80 1.362 . S
C84 C81 1.431 . S
C84 C94 1.476 . S
H85 C79 0.929 . S
C86 O77 1.250 . S
C86 O78 1.258 . S
O87 Mn72 2.162 . S
O87 C75 1.281 . S
O88 Mn72 2.297 . S
O88 C75 1.236 . S
N89 Mn73 2.282 . S
N89 C90 1.328 . S
N89 C94 1.318 . S
C90 N89 1.328 . S
C90 C91 1.457 . S
C90 H95 0.929 . S
C91 C90 1.457 . S
C91 C92 1.291 . S
C91 H104 0.931 . S
C92 C91 1.291 . S
C92 C93 1.373 . S
C92 H105 0.929 . S
C93 C92 1.373 . S
C93 C94 1.396 . S
C93 C100 1.403 . S
C94 C84 1.476 . S
C94 N89 1.318 . S
C94 C93 1.396 . S
H95 C90 0.929 . S
O96 Mn72 2.385 . S
O96 C74 1.234 . S
O97 Mn72 2.209 . S
O97 Mn73 2.215 . S
O97 C74 1.283 . S
O98 Mn72 2.094 . S
O98 C76 1.240 . S
O99 Mn73 2.117 . S
O99 C76 1.264 . S
C100 C93 1.403 . S
C100 C101 1.399 . S
C100 H106 0.929 . S
C101 C81 1.449 . S
C101 C100 1.399 . S
C101 H107 0.930 . S
H102 C82 0.931 . S
H103 C83 0.930 . S
H104 C91 0.931 . S
H105 C92 0.929 . S
H106 C100 0.929 . S
H107 C101 0.930 . S
Mn108 O113 2.095 . S
Mn108 O123 2.162 . S
Mn108 O124 2.297 . S
Mn108 O132 2.385 . S
Mn108 O133 2.209 . S
Mn108 O134 2.094 . S
Mn109 O114 2.121 . S
Mn109 N116 2.257 . S
Mn109 N125 2.282 . S
Mn109 O133 2.215 . S
Mn109 O135 2.117 . S
C110 O132 1.234 . S
C110 O133 1.283 . S
C111 O123 1.281 . S
C111 O124 1.236 . S
C112 O134 1.240 . S
C112 O135 1.264 . S
O113 Mn108 2.095 . S
O113 C122 1.250 . S
O114 Mn109 2.121 . S
O114 C122 1.258 . S
C115 N116 1.326 . S
C115 C119 1.460 . S
C115 H121 0.929 . S
N116 Mn109 2.257 . S
N116 C115 1.326 . S
N116 C120 1.362 . S
C117 C118 1.258 . S
C117 C120 1.431 . S
C117 C137 1.449 . S
C118 C117 1.258 . S
C118 C119 1.477 . S
C118 H138 0.931 . S
C119 C115 1.460 . S
C119 C118 1.477 . S
C119 H139 0.930 . S
C120 N116 1.362 . S
C120 C117 1.431 . S
C120 C130 1.476 . S
H121 C115 0.929 . S
C122 O113 1.250 . S
C122 O114 1.258 . S
O123 Mn108 2.162 . S
O123 C111 1.281 . S
O124 Mn108 2.297 . S
O124 C111 1.236 . S
N125 Mn109 2.282 . S
N125 C126 1.328 . S
N125 C130 1.318 . S
C126 N125 1.328 . S
C126 C127 1.457 . S
C126 H131 0.929 . S
C127 C126 1.457 . S
C127 C128 1.291 . S
C127 H140 0.931 . S
C128 C127 1.291 . S
C128 C129 1.373 . S
C128 H141 0.929 . S
C129 C128 1.373 . S
C129 C130 1.396 . S
C129 C136 1.403 . S
C130 C120 1.476 . S
C130 N125 1.318 . S
C130 C129 1.396 . S
H131 C126 0.929 . S
O132 Mn108 2.385 . S
O132 C110 1.234 . S
O133 Mn108 2.209 . S
O133 Mn109 2.215 . S
O133 C110 1.283 . S
O134 Mn108 2.094 . S
O134 C112 1.240 . S
O135 Mn109 2.117 . S
O135 C112 1.264 . S
C136 C129 1.403 . S
C136 C137 1.399 . S
C136 H142 0.929 . S
C137 C117 1.449 . S
C137 C136 1.399 . S
C137 H143 0.930 . S
H138 C118 0.931 . S
H139 C119 0.930 . S
H140 C127 0.931 . S
H141 C128 0.929 . S
H142 C136 0.929 . S
H143 C137 0.930 . S
Mn144 O149 2.095 . S
Mn144 O159 2.162 . S
Mn144 O160 2.297 . S
Mn144 O168 2.385 . S
Mn144 O169 2.209 . S
Mn144 O170 2.094 . S
Mn145 O150 2.121 . S
Mn145 N152 2.257 . S
Mn145 N161 2.282 . S
Mn145 O169 2.215 . S
Mn145 O171 2.117 . S
C146 O168 1.234 . S
C146 O169 1.283 . S
C147 O159 1.281 . S
C147 O160 1.236 . S
C148 O170 1.240 . S
C148 O171 1.264 . S
O149 Mn144 2.095 . S
O149 C158 1.250 . S
O150 Mn145 2.121 . S
O150 C158 1.258 . S
C151 N152 1.326 . S
C151 C155 1.460 . S
C151 H157 0.929 . S
N152 Mn145 2.257 . S
N152 C151 1.326 . S
N152 C156 1.362 . S
C153 C154 1.258 . S
C153 C156 1.431 . S
C153 C173 1.449 . S
C154 C153 1.258 . S
C154 C155 1.477 . S
C154 H174 0.931 . S
C155 C151 1.460 . S
C155 C154 1.477 . S
C155 H175 0.930 . S
C156 N152 1.362 . S
C156 C153 1.431 . S
C156 C166 1.476 . S
H157 C151 0.929 . S
C158 O149 1.250 . S
C158 O150 1.258 . S
O159 Mn144 2.162 . S
O159 C147 1.281 . S
O160 Mn144 2.297 . S
O160 C147 1.236 . S
N161 Mn145 2.282 . S
N161 C162 1.328 . S
N161 C166 1.318 . S
C162 N161 1.328 . S
C162 C163 1.457 . S
C162 H167 0.929 . S
C163 C162 1.457 . S
C163 C164 1.291 . S
C163 H176 0.931 . S
C164 C163 1.291 . S
C164 C165 1.373 . S
C164 H177 0.929 . S
C165 C164 1.373 . S
C165 C166 1.396 . S
C165 C172 1.403 . S
C166 C156 1.476 . S
C166 N161 1.318 . S
C166 C165 1.396 . S
H167 C162 0.929 . S
O168 Mn144 2.385 . S
O168 C146 1.234 . S
O169 Mn144 2.209 . S
O169 Mn145 2.215 . S
O169 C146 1.283 . S
O170 Mn144 2.094 . S
O170 C148 1.240 . S
O171 Mn145 2.117 . S
O171 C148 1.264 . S
C172 C165 1.403 . S
C172 C173 1.399 . S
C172 H178 0.929 . S
C173 C153 1.449 . S
C173 C172 1.399 . S
C173 H179 0.930 . S
H174 C154 0.931 . S
H175 C155 0.930 . S
H176 C163 0.931 . S
H177 C164 0.929 . S
H178 C172 0.929 . S
H179 C173 0.930 . S
Mn180 O185 2.095 . S
Mn180 O195 2.162 . S
Mn180 O196 2.297 . S
Mn180 O204 2.385 1_556 S
Mn180 O205 2.209 . S
Mn180 O206 2.094 . S
Mn181 O186 2.121 . S
Mn181 N188 2.257 . S
Mn181 N197 2.282 . S
Mn181 O205 2.215 . S
Mn181 O207 2.117 . S
C182 O204 1.234 1_556 S
C182 O205 1.283 . S
C183 O195 1.281 . S
C183 O196 1.236 . S
C184 O206 1.240 . S
C184 O207 1.264 . S
O185 Mn180 2.095 . S
O185 C194 1.250 . S
O186 Mn181 2.121 . S
O186 C194 1.258 . S
C187 N188 1.326 . S
C187 C191 1.460 . S
C187 H193 0.929 . S
N188 Mn181 2.257 . S
N188 C187 1.326 . S
N188 C192 1.362 . S
C189 C190 1.258 . S
C189 C192 1.431 . S
C189 C209 1.449 1_556 S
C190 C189 1.258 . S
C190 C191 1.477 . S
C190 H210 0.931 . S
C191 C187 1.460 . S
C191 C190 1.477 . S
C191 H211 0.930 . S
C192 N188 1.362 . S
C192 C189 1.431 . S
C192 C202 1.476 . S
H193 C187 0.929 . S
C194 O185 1.250 . S
C194 O186 1.258 . S
O195 Mn180 2.162 . S
O195 C183 1.281 . S
O196 Mn180 2.297 . S
O196 C183 1.236 . S
N197 Mn181 2.282 . S
N197 C198 1.328 1_556 S
N197 C202 1.318 . S
C198 N197 1.328 1_554 S
C198 C199 1.457 . S
C198 H203 0.929 1_554 S
C199 C198 1.457 . S
C199 C200 1.291 . S
C199 H212 0.931 . S
C200 C199 1.291 . S
C200 C201 1.373 . S
C200 H213 0.929 . S
C201 C200 1.373 . S
C201 C202 1.396 1_554 S
C201 C208 1.403 . S
C202 C192 1.476 . S
C202 N197 1.318 . S
C202 C201 1.396 1_556 S
H203 C198 0.929 1_556 S
O204 Mn180 2.385 1_554 S
O204 C182 1.234 1_554 S
O205 Mn180 2.209 . S
O205 Mn181 2.215 . S
O205 C182 1.283 . S
O206 Mn180 2.094 . S
O206 C184 1.240 . S
O207 Mn181 2.117 . S
O207 C184 1.264 . S
C208 C201 1.403 . S
C208 C209 1.399 . S
C208 H214 0.929 . S
C209 C189 1.449 1_554 S
C209 C208 1.399 . S
C209 H215 0.930 . S
H210 C190 0.931 . S
H211 C191 0.930 . S
H212 C199 0.931 . S
H213 C200 0.929 . S
H214 C208 0.929 . S
H215 C209 0.930 . S
Mn216 O221 2.095 . S
Mn216 O231 2.162 . S
Mn216 O232 2.297 . S
Mn216 O240 2.385 . S
Mn216 O241 2.209 . S
Mn216 O242 2.094 . S
Mn217 O222 2.121 . S
Mn217 N224 2.257 . S
Mn217 N233 2.282 . S
Mn217 O241 2.215 . S
Mn217 O243 2.117 . S
C218 O240 1.234 . S
C218 O241 1.283 . S
C219 O231 1.281 . S
C219 O232 1.236 . S
C220 O242 1.240 . S
C220 O243 1.264 . S
O221 Mn216 2.095 . S
O221 C230 1.250 . S
O222 Mn217 2.121 . S
O222 C230 1.258 . S
C223 N224 1.326 . S
C223 C227 1.460 . S
C223 H229 0.929 . S
N224 Mn217 2.257 . S
N224 C223 1.326 . S
N224 C228 1.362 . S
C225 C226 1.258 . S
C225 C228 1.431 . S
C225 C245 1.449 . S
C226 C225 1.258 . S
C226 C227 1.477 . S
C226 H246 0.931 . S
C227 C223 1.460 . S
C227 C226 1.477 . S
C227 H247 0.930 . S
C228 N224 1.362 . S
C228 C225 1.431 . S
C228 C238 1.476 . S
H229 C223 0.929 . S
C230 O221 1.250 . S
C230 O222 1.258 . S
O231 Mn216 2.162 . S
O231 C219 1.281 . S
O232 Mn216 2.297 . S
O232 C219 1.236 . S
N233 Mn217 2.282 . S
N233 C234 1.328 . S
N233 C238 1.318 . S
C234 N233 1.328 . S
C234 C235 1.457 . S
C234 H239 0.929 . S
C235 C234 1.457 . S
C235 C236 1.291 . S
C235 H248 0.931 . S
C236 C235 1.291 . S
C236 C237 1.373 . S
C236 H249 0.929 . S
C237 C236 1.373 . S
C237 C238 1.396 . S
C237 C244 1.403 . S
C238 C228 1.476 . S
C238 N233 1.318 . S
C238 C237 1.396 . S
H239 C234 0.929 . S
O240 Mn216 2.385 . S
O240 C218 1.234 . S
O241 Mn216 2.209 . S
O241 Mn217 2.215 . S
O241 C218 1.283 . S
O242 Mn216 2.094 . S
O242 C220 1.240 . S
O243 Mn217 2.117 . S
O243 C220 1.264 . S
C244 C237 1.403 . S
C244 C245 1.399 . S
C244 H250 0.929 . S
C245 C225 1.449 . S
C245 C244 1.399 . S
C245 H251 0.930 . S
H246 C226 0.931 . S
H247 C227 0.930 . S
H248 C235 0.931 . S
H249 C236 0.929 . S
H250 C244 0.929 . S
H251 C245 0.930 . S
Mn252 O257 2.095 . S
Mn252 O267 2.162 . S
Mn252 O268 2.297 . S
Mn252 O276 2.385 1_554 S
Mn252 O277 2.209 1_554 S
Mn252 O278 2.094 . S
Mn253 O258 2.121 . S
Mn253 N260 2.257 . S
Mn253 N269 2.282 1_554 S
Mn253 O277 2.215 1_554 S
Mn253 O279 2.117 . S
C254 O276 1.234 . S
C254 O277 1.283 . S
C255 O267 1.281 . S
C255 O268 1.236 . S
C256 O278 1.240 . S
C256 O279 1.264 . S
O257 Mn252 2.095 . S
O257 C266 1.250 . S
O258 Mn253 2.121 . S
O258 C266 1.258 . S
C259 N260 1.326 . S
C259 C263 1.460 . S
C259 H265 0.929 . S
N260 Mn253 2.257 . S
N260 C259 1.326 . S
N260 C264 1.362 1_554 S
C261 C262 1.258 . S
C261 C264 1.431 . S
C261 C281 1.449 . S
C262 C261 1.258 . S
C262 C263 1.477 1_556 S
C262 H282 0.931 . S
C263 C259 1.460 . S
C263 C262 1.477 1_554 S
C263 H283 0.930 . S
C264 N260 1.362 1_556 S
C264 C261 1.431 . S
C264 C274 1.476 . S
H265 C259 0.929 . S
C266 O257 1.250 . S
C266 O258 1.258 . S
O267 Mn252 2.162 . S
O267 C255 1.281 . S
O268 Mn252 2.297 . S
O268 C255 1.236 . S
N269 Mn253 2.282 1_556 S
N269 C270 1.328 . S
N269 C274 1.318 . S
C270 N269 1.328 . S
C270 C271 1.457 . S
C270 H275 0.929 . S
C271 C270 1.457 . S
C271 C272 1.291 . S
C271 H284 0.931 . S
C272 C271 1.291 . S
C272 C273 1.373 . S
C272 H285 0.929 . S
C273 C272 1.373 . S
C273 C274 1.396 . S
C273 C280 1.403 . S
C274 C264 1.476 . S
C274 N269 1.318 . S
C274 C273 1.396 . S
H275 C270 0.929 . S
O276 Mn252 2.385 1_556 S
O276 C254 1.234 . S
O277 Mn252 2.209 1_556 S
O277 Mn253 2.215 1_556 S
O277 C254 1.283 . S
O278 Mn252 2.094 . S
O278 C256 1.240 . S
O279 Mn253 2.117 . S
O279 C256 1.264 . S
C280 C273 1.403 . S
C280 C281 1.399 . S
C280 H286 0.929 . S
C281 C261 1.449 . S
C281 C280 1.399 . S
C281 H287 0.930 . S
H282 C262 0.931 . S
H283 C263 0.930 . S
H284 C271 0.931 . S
H285 C272 0.929 . S
H286 C280 0.929 . S
H287 C281 0.930 . S
Mn288 O293 2.095 . S
Mn288 O303 2.162 . S
Mn288 O304 2.297 . S
Mn288 O312 2.385 . S
Mn288 O313 2.209 . S
Mn288 O314 2.094 . S
Mn289 O294 2.121 . S
Mn289 N296 2.257 . S
Mn289 N305 2.282 . S
Mn289 O313 2.215 . S
Mn289 O315 2.117 . S
C290 O312 1.234 . S
C290 O313 1.283 . S
C291 O303 1.281 . S
C291 O304 1.236 . S
C292 O314 1.240 . S
C292 O315 1.264 . S
O293 Mn288 2.095 . S
O293 C302 1.250 . S
O294 Mn289 2.121 . S
O294 C302 1.258 . S
C295 N296 1.326 . S
C295 C299 1.460 . S
C295 H301 0.929 . S
N296 Mn289 2.257 . S
N296 C295 1.326 . S
N296 C300 1.362 . S
C297 C298 1.258 . S
C297 C300 1.431 . S
C297 C317 1.449 . S
C298 C297 1.258 . S
C298 C299 1.477 . S
C298 H318 0.931 . S
C299 C295 1.460 . S
C299 C298 1.477 . S
C299 H319 0.930 . S
C300 N296 1.362 . S
C300 C297 1.431 . S
C300 C310 1.476 . S
H301 C295 0.929 . S
C302 O293 1.250 . S
C302 O294 1.258 . S
O303 Mn288 2.162 . S
O303 C291 1.281 . S
O304 Mn288 2.297 . S
O304 C291 1.236 . S
N305 Mn289 2.282 . S
N305 C306 1.328 . S
N305 C310 1.318 . S
C306 N305 1.328 . S
C306 C307 1.457 . S
C306 H311 0.929 . S
C307 C306 1.457 . S
C307 C308 1.291 . S
C307 H320 0.931 . S
C308 C307 1.291 . S
C308 C309 1.373 . S
C308 H321 0.929 1_554 S
C309 C308 1.373 . S
C309 C310 1.396 . S
C309 C316 1.403 . S
C310 C300 1.476 . S
C310 N305 1.318 . S
C310 C309 1.396 . S
H311 C306 0.929 . S
O312 Mn288 2.385 . S
O312 C290 1.234 . S
O313 Mn288 2.209 . S
O313 Mn289 2.215 . S
O313 C290 1.283 . S
O314 Mn288 2.094 . S
O314 C292 1.240 . S
O315 Mn289 2.117 . S
O315 C292 1.264 . S
C316 C309 1.403 . S
C316 C317 1.399 . S
C316 H322 0.929 1_554 S
C317 C297 1.449 . S
C317 C316 1.399 . S
C317 H323 0.930 . S
H318 C298 0.931 . S
H319 C299 0.930 . S
H320 C307 0.931 . S
H321 C308 0.929 1_556 S
H322 C316 0.929 1_556 S
H323 C317 0.930 . S
Mn324 O329 2.095 . S
Mn324 O339 2.162 . S
Mn324 O340 2.297 . S
Mn324 O348 2.385 . S
Mn324 O349 2.209 . S
Mn324 O350 2.094 . S
Mn325 O330 2.121 . S
Mn325 N332 2.257 . S
Mn325 N341 2.282 . S
Mn325 O349 2.215 . S
Mn325 O351 2.117 . S
C326 O348 1.234 . S
C326 O349 1.283 . S
C327 O339 1.281 . S
C327 O340 1.236 . S
C328 O350 1.240 . S
C328 O351 1.264 . S
O329 Mn324 2.095 . S
O329 C338 1.250 . S
O330 Mn325 2.121 . S
O330 C338 1.258 . S
C331 N332 1.326 . S
C331 C335 1.460 . S
C331 H337 0.929 . S
N332 Mn325 2.257 . S
N332 C331 1.326 . S
N332 C336 1.362 . S
C333 C334 1.258 . S
C333 C336 1.431 . S
C333 C353 1.449 . S
C334 C333 1.258 . S
C334 C335 1.477 . S
C334 H354 0.931 . S
C335 C331 1.460 . S
C335 C334 1.477 . S
C335 H355 0.930 . S
C336 N332 1.362 . S
C336 C333 1.431 . S
C336 C346 1.476 . S
H337 C331 0.929 . S
C338 O329 1.250 . S
C338 O330 1.258 . S
O339 Mn324 2.162 . S
O339 C327 1.281 . S
O340 Mn324 2.297 . S
O340 C327 1.236 . S
N341 Mn325 2.282 . S
N341 C342 1.328 . S
N341 C346 1.318 . S
C342 N341 1.328 . S
C342 C343 1.457 . S
C342 H347 0.929 . S
C343 C342 1.457 . S
C343 C344 1.291 . S
C343 H356 0.931 . S
C344 C343 1.291 . S
C344 C345 1.373 . S
C344 H357 0.929 . S
C345 C344 1.373 . S
C345 C346 1.396 . S
C345 C352 1.403 . S
C346 C336 1.476 . S
C346 N341 1.318 . S
C346 C345 1.396 . S
H347 C342 0.929 . S
O348 Mn324 2.385 . S
O348 C326 1.234 . S
O349 Mn324 2.209 . S
O349 Mn325 2.215 . S
O349 C326 1.283 . S
O350 Mn324 2.094 . S
O350 C328 1.240 . S
O351 Mn325 2.117 . S
O351 C328 1.264 . S
C352 C345 1.403 . S
C352 C353 1.399 . S
C352 H358 0.929 . S
C353 C333 1.449 . S
C353 C352 1.399 . S
C353 H359 0.930 . S
H354 C334 0.931 . S
H355 C335 0.930 . S
H356 C343 0.931 . S
H357 C344 0.929 . S
H358 C352 0.929 . S
H359 C353 0.930 . S
Mn360 O365 2.095 . S
Mn360 O375 2.162 . S
Mn360 O376 2.297 . S
Mn360 O384 2.385 . S
Mn360 O385 2.209 . S
Mn360 O386 2.094 . S
Mn361 O366 2.121 . S
Mn361 N368 2.257 . S
Mn361 N377 2.282 . S
Mn361 O385 2.215 . S
Mn361 O387 2.117 . S
C362 O384 1.234 . S
C362 O385 1.283 . S
C363 O375 1.281 . S
C363 O376 1.236 . S
C364 O386 1.240 . S
C364 O387 1.264 . S
O365 Mn360 2.095 . S
O365 C374 1.250 . S
O366 Mn361 2.121 . S
O366 C374 1.258 . S
C367 N368 1.326 . S
C367 C371 1.460 . S
C367 H373 0.929 . S
N368 Mn361 2.257 . S
N368 C367 1.326 . S
N368 C372 1.362 . S
C369 C370 1.258 . S
C369 C372 1.431 . S
C369 C389 1.449 . S
C370 C369 1.258 . S
C370 C371 1.477 . S
C370 H390 0.931 . S
C371 C367 1.460 . S
C371 C370 1.477 . S
C371 H391 0.930 . S
C372 N368 1.362 . S
C372 C369 1.431 . S
C372 C382 1.476 . S
H373 C367 0.929 . S
C374 O365 1.250 . S
C374 O366 1.258 . S
O375 Mn360 2.162 . S
O375 C363 1.281 . S
O376 Mn360 2.297 . S
O376 C363 1.236 . S
N377 Mn361 2.282 . S
N377 C378 1.328 . S
N377 C382 1.318 . S
C378 N377 1.328 . S
C378 C379 1.457 . S
C378 H383 0.929 . S
C379 C378 1.457 . S
C379 C380 1.291 . S
C379 H392 0.931 . S
C380 C379 1.291 . S
C380 C381 1.373 . S
C380 H393 0.929 . S
C381 C380 1.373 . S
C381 C382 1.396 . S
C381 C388 1.403 . S
C382 C372 1.476 . S
C382 N377 1.318 . S
C382 C381 1.396 . S
H383 C378 0.929 . S
O384 Mn360 2.385 . S
O384 C362 1.234 . S
O385 Mn360 2.209 . S
O385 Mn361 2.215 . S
O385 C362 1.283 . S
O386 Mn360 2.094 . S
O386 C364 1.240 . S
O387 Mn361 2.117 . S
O387 C364 1.264 . S
C388 C381 1.403 . S
C388 C389 1.399 . S
C388 H394 0.929 . S
C389 C369 1.449 . S
C389 C388 1.399 . S
C389 H395 0.930 . S
H390 C370 0.931 . S
H391 C371 0.930 . S
H392 C379 0.931 . S
H393 C380 0.929 . S
H394 C388 0.929 . S
H395 C389 0.930 . S
Mn396 O401 2.095 . S
Mn396 O411 2.162 . S
Mn396 O412 2.297 . S
Mn396 O420 2.385 . S
Mn396 O421 2.209 . S
Mn396 O422 2.094 . S
Mn397 O402 2.121 . S
Mn397 N404 2.257 . S
Mn397 N413 2.282 . S
Mn397 O421 2.215 . S
Mn397 O423 2.117 . S
C398 O420 1.234 . S
C398 O421 1.283 . S
C399 O411 1.281 . S
C399 O412 1.236 . S
C400 O422 1.240 . S
C400 O423 1.264 . S
O401 Mn396 2.095 . S
O401 C410 1.250 . S
O402 Mn397 2.121 . S
O402 C410 1.258 . S
C403 N404 1.326 . S
C403 C407 1.460 . S
C403 H409 0.929 . S
N404 Mn397 2.257 . S
N404 C403 1.326 . S
N404 C408 1.362 . S
C405 C406 1.258 . S
C405 C408 1.431 . S
C405 C425 1.449 . S
C406 C405 1.258 . S
C406 C407 1.477 . S
C406 H426 0.931 . S
C407 C403 1.460 . S
C407 C406 1.477 . S
C407 H427 0.930 . S
C408 N404 1.362 . S
C408 C405 1.431 . S
C408 C418 1.476 . S
H409 C403 0.929 . S
C410 O401 1.250 . S
C410 O402 1.258 . S
O411 Mn396 2.162 . S
O411 C399 1.281 . S
O412 Mn396 2.297 . S
O412 C399 1.236 . S
N413 Mn397 2.282 . S
N413 C414 1.328 . S
N413 C418 1.318 . S
C414 N413 1.328 . S
C414 C415 1.457 . S
C414 H419 0.929 . S
C415 C414 1.457 . S
C415 C416 1.291 . S
C415 H428 0.931 . S
C416 C415 1.291 . S
C416 C417 1.373 . S
C416 H429 0.929 . S
C417 C416 1.373 . S
C417 C418 1.396 . S
C417 C424 1.403 . S
C418 C408 1.476 . S
C418 N413 1.318 . S
C418 C417 1.396 . S
H419 C414 0.929 . S
O420 Mn396 2.385 . S
O420 C398 1.234 . S
O421 Mn396 2.209 . S
O421 Mn397 2.215 . S
O421 C398 1.283 . S
O422 Mn396 2.094 . S
O422 C400 1.240 . S
O423 Mn397 2.117 . S
O423 C400 1.264 . S
C424 C417 1.403 . S
C424 C425 1.399 . S
C424 H430 0.929 . S
C425 C405 1.449 . S
C425 C424 1.399 . S
C425 H431 0.930 . S
H426 C406 0.931 . S
H427 C407 0.930 . S
H428 C415 0.931 . S
H429 C416 0.929 . S
H430 C424 0.929 . S
H431 C425 0.930 . S
H432 C438 0.930 . S
H433 C441 0.930 . S
H434 C442 0.930 . S
H435 C443 0.930 . S
H436 C446 0.930 . S
H437 C447 0.930 . S
C438 H432 0.930 . S
C438 C439 1.355 . S
C438 C440 1.415 . S
C439 C438 1.355 . S
C439 C441 1.419 . S
C440 C438 1.415 . S
C440 C445 1.425 . S
C440 C447 1.409 . S
C441 H433 0.930 . S
C441 C439 1.419 . S
C441 C442 1.362 . S
C442 H434 0.930 . S
C442 C441 1.362 . S
C442 C445 1.409 . S
C443 H435 0.930 . S
C443 C444 1.355 . S
C443 C445 1.415 . S
C444 C443 1.355 . S
C444 C446 1.419 . S
C445 C440 1.425 . S
C445 C442 1.409 . S
C445 C443 1.415 . S
C446 H436 0.930 . S
C446 C444 1.419 . S
C446 C447 1.362 . S
C447 H437 0.930 . S
C447 C440 1.409 . S
C447 C446 1.362 . S
H448 C454 0.930 . S
H449 C457 0.930 . S
H450 C458 0.930 . S
H451 C459 0.930 . S
H452 C462 0.930 . S
H453 C463 0.930 . S
C454 H448 0.930 . S
C454 C455 1.355 . S
C454 C456 1.415 . S
C455 C454 1.355 . S
C455 C457 1.419 . S
C456 C454 1.415 . S
C456 C461 1.425 . S
C456 C463 1.409 . S
C457 H449 0.930 . S
C457 C455 1.419 . S
C457 C458 1.362 . S
C458 H450 0.930 . S
C458 C457 1.362 . S
C458 C461 1.409 . S
C459 H451 0.930 . S
C459 C460 1.355 . S
C459 C461 1.415 . S
C460 C459 1.355 . S
C460 C462 1.419 . S
C461 C456 1.425 . S
C461 C458 1.409 . S
C461 C459 1.415 . S
C462 H452 0.930 . S
C462 C460 1.419 . S
C462 C463 1.362 . S
C463 H453 0.930 . S
C463 C456 1.409 . S
C463 C462 1.362 . S
H464 C470 0.930 . S
H465 C473 0.930 . S
H466 C474 0.930 . S
H467 C475 0.930 . S
H468 C478 0.930 . S
H469 C479 0.930 . S
C470 H464 0.930 . S
C470 C471 1.355 . S
C470 C472 1.415 . S
C471 C470 1.355 . S
C471 C473 1.419 . S
C472 C470 1.415 . S
C472 C477 1.425 . S
C472 C479 1.409 . S
C473 H465 0.930 . S
C473 C471 1.419 . S
C473 C474 1.362 . S
C474 H466 0.930 . S
C474 C473 1.362 . S
C474 C477 1.409 . S
C475 H467 0.930 . S
C475 C476 1.355 . S
C475 C477 1.415 . S
C476 C475 1.355 . S
C476 C478 1.419 . S
C477 C472 1.425 . S
C477 C474 1.409 . S
C477 C475 1.415 . S
C478 H468 0.930 . S
C478 C476 1.419 . S
C478 C479 1.362 . S
C479 H469 0.930 . S
C479 C472 1.409 . S
C479 C478 1.362 . S
H480 C486 0.930 . S
H481 C489 0.930 . S
H482 C490 0.930 . S
H483 C491 0.930 . S
H484 C494 0.930 . S
H485 C495 0.930 . S
C486 H480 0.930 . S
C486 C487 1.355 . S
C486 C488 1.415 . S
C487 C486 1.355 . S
C487 C489 1.419 . S
C488 C486 1.415 . S
C488 C493 1.425 . S
C488 C495 1.409 . S
C489 H481 0.930 . S
C489 C487 1.419 . S
C489 C490 1.362 . S
C490 H482 0.930 . S
C490 C489 1.362 . S
C490 C493 1.409 . S
C491 H483 0.930 . S
C491 C492 1.355 . S
C491 C493 1.415 . S
C492 C491 1.355 . S
C492 C494 1.419 . S
C493 C488 1.425 . S
C493 C490 1.409 . S
C493 C491 1.415 . S
C494 H484 0.930 . S
C494 C492 1.419 . S
C494 C495 1.362 . S
C495 H485 0.930 . S
C495 C488 1.409 . S
C495 C494 1.362 . S
H496 C502 0.930 . S
H497 C505 0.930 . S
H498 C506 0.930 . S
H499 C507 0.930 . S
H500 C510 0.930 . S
H501 C511 0.930 . S
C502 H496 0.930 . S
C502 C503 1.355 . S
C502 C504 1.415 1_554 S
C503 C502 1.355 . S
C503 C505 1.419 . S
C504 C502 1.415 1_556 S
C504 C509 1.425 . S
C504 C511 1.409 . S
C505 H497 0.930 . S
C505 C503 1.419 . S
C505 C506 1.362 . S
C506 H498 0.930 . S
C506 C505 1.362 . S
C506 C509 1.409 1_554 S
C507 H499 0.930 . S
C507 C508 1.355 . S
C507 C509 1.415 . S
C508 C507 1.355 . S
C508 C510 1.419 . S
C509 C504 1.425 . S
C509 C506 1.409 1_556 S
C509 C507 1.415 . S
C510 H500 0.930 . S
C510 C508 1.419 . S
C510 C511 1.362 . S
C511 H501 0.930 . S
C511 C504 1.409 . S
C511 C510 1.362 . S
H512 C518 0.930 . S
H513 C521 0.930 . S
H514 C522 0.930 . S
H515 C523 0.930 . S
H516 C526 0.930 . S
H517 C527 0.930 . S
C518 H512 0.930 . S
C518 C519 1.355 . S
C518 C520 1.415 . S
C519 C518 1.355 . S
C519 C521 1.419 . S
C520 C518 1.415 . S
C520 C525 1.425 . S
C520 C527 1.409 . S
C521 H513 0.930 . S
C521 C519 1.419 . S
C521 C522 1.362 . S
C522 H514 0.930 . S
C522 C521 1.362 . S
C522 C525 1.409 . S
C523 H515 0.930 . S
C523 C524 1.355 . S
C523 C525 1.415 . S
C524 C523 1.355 . S
C524 C526 1.419 . S
C525 C520 1.425 . S
C525 C522 1.409 . S
C525 C523 1.415 . S
C526 H516 0.930 . S
C526 C524 1.419 . S
C526 C527 1.362 . S
C527 H517 0.930 . S
C527 C520 1.409 . S
C527 C526 1.362 . S
H528 C534 0.930 . S
H529 C537 0.930 . S
H530 C538 0.930 . S
H531 C539 0.930 . S
H532 C542 0.930 . S
H533 C543 0.930 . S
C534 H528 0.930 . S
C534 C535 1.355 . S
C534 C536 1.415 . S
C535 C534 1.355 . S
C535 C537 1.419 . S
C536 C534 1.415 . S
C536 C541 1.425 . S
C536 C543 1.409 . S
C537 H529 0.930 . S
C537 C535 1.419 . S
C537 C538 1.362 . S
C538 H530 0.930 . S
C538 C537 1.362 . S
C538 C541 1.409 . S
C539 H531 0.930 . S
C539 C540 1.355 . S
C539 C541 1.415 . S
C540 C539 1.355 . S
C540 C542 1.419 . S
C541 C536 1.425 . S
C541 C538 1.409 . S
C541 C539 1.415 . S
C542 H532 0.930 . S
C542 C540 1.419 . S
C542 C543 1.362 . S
C543 H533 0.930 . S
C543 C536 1.409 . S
C543 C542 1.362 . S
H544 C550 0.930 . S
H545 C553 0.930 . S
H546 C554 0.930 . S
H547 C555 0.930 . S
H548 C558 0.930 . S
H549 C559 0.930 . S
C550 H544 0.930 . S
C550 C551 1.355 . S
C550 C552 1.415 . S
C551 C550 1.355 . S
C551 C553 1.419 . S
C552 C550 1.415 . S
C552 C557 1.425 . S
C552 C559 1.409 . S
C553 H545 0.930 . S
C553 C551 1.419 . S
C553 C554 1.362 . S
C554 H546 0.930 . S
C554 C553 1.362 . S
C554 C557 1.409 . S
C555 H547 0.930 . S
C555 C556 1.355 . S
C555 C557 1.415 . S
C556 C555 1.355 . S
C556 C558 1.419 . S
C557 C552 1.425 . S
C557 C554 1.409 . S
C557 C555 1.415 . S
C558 H548 0.930 . S
C558 C556 1.419 . S
C558 C559 1.362 . S
C559 H549 0.930 . S
C559 C552 1.409 . S
C559 C558 1.362 . S
H560 C566 0.930 . S
H561 C569 0.930 . S
H562 C570 0.930 . S
H563 C571 0.930 . S
H564 C574 0.930 . S
H565 C575 0.930 . S
C566 H560 0.930 . S
C566 C567 1.355 . S
C566 C568 1.415 . S
C567 C566 1.355 . S
C567 C569 1.419 . S
C568 C566 1.415 . S
C568 C573 1.425 . S
C568 C575 1.409 . S
C569 H561 0.930 . S
C569 C567 1.419 . S
C569 C570 1.362 . S
C570 H562 0.930 . S
C570 C569 1.362 . S
C570 C573 1.409 . S
C571 H563 0.930 . S
C571 C572 1.355 . S
C571 C573 1.415 . S
C572 C571 1.355 . S
C572 C574 1.419 . S
C573 C568 1.425 . S
C573 C570 1.409 . S
C573 C571 1.415 . S
C574 H564 0.930 . S
C574 C572 1.419 . S
C574 C575 1.362 . S
C575 H565 0.930 . S
C575 C568 1.409 . S
C575 C574 1.362 . S
H576 C582 0.930 . S
H577 C585 0.930 . S
H578 C586 0.930 . S
H579 C587 0.930 . S
H580 C590 0.930 . S
H581 C591 0.930 . S
C582 H576 0.930 . S
C582 C583 1.355 . S
C582 C584 1.415 . S
C583 C582 1.355 . S
C583 C585 1.419 . S
C584 C582 1.415 . S
C584 C589 1.425 . S
C584 C591 1.409 . S
C585 H577 0.930 . S
C585 C583 1.419 . S
C585 C586 1.362 . S
C586 H578 0.930 . S
C586 C585 1.362 . S
C586 C589 1.409 . S
C587 H579 0.930 . S
C587 C588 1.355 . S
C587 C589 1.415 . S
C588 C587 1.355 . S
C588 C590 1.419 . S
C589 C584 1.425 . S
C589 C586 1.409 . S
C589 C587 1.415 . S
C590 H580 0.930 . S
C590 C588 1.419 . S
C590 C591 1.362 . S
C591 H581 0.930 . S
C591 C584 1.409 . S
C591 C590 1.362 . S
H592 C598 0.930 . S
H593 C601 0.930 . S
H594 C602 0.930 . S
H595 C603 0.930 . S
H596 C606 0.930 . S
H597 C607 0.930 . S
C598 H592 0.930 . S
C598 C599 1.355 . S
C598 C600 1.415 . S
C599 C598 1.355 . S
C599 C601 1.419 . S
C600 C598 1.415 . S
C600 C605 1.425 . S
C600 C607 1.409 . S
C601 H593 0.930 . S
C601 C599 1.419 . S
C601 C602 1.362 . S
C602 H594 0.930 . S
C602 C601 1.362 . S
C602 C605 1.409 . S
C603 H595 0.930 . S
C603 C604 1.355 . S
C603 C605 1.415 . S
C604 C603 1.355 . S
C604 C606 1.419 . S
C605 C600 1.425 . S
C605 C602 1.409 . S
C605 C603 1.415 . S
C606 H596 0.930 . S
C606 C604 1.419 . S
C606 C607 1.362 . S
C607 H597 0.930 . S
C607 C600 1.409 . S
C607 C606 1.362 . S
H608 C614 0.930 . S
H609 C617 0.930 . S
H610 C618 0.930 . S
H611 C619 0.930 . S
H612 C622 0.930 . S
H613 C623 0.930 . S
C614 H608 0.930 . S
C614 C615 1.355 . S
C614 C616 1.415 . S
C615 C614 1.355 . S
C615 C617 1.419 . S
C616 C614 1.415 . S
C616 C621 1.425 . S
C616 C623 1.409 . S
C617 H609 0.930 . S
C617 C615 1.419 . S
C617 C618 1.362 . S
C618 H610 0.930 . S
C618 C617 1.362 . S
C618 C621 1.409 . S
C619 H611 0.930 . S
C619 C620 1.355 1_556 S
C619 C621 1.415 . S
C620 C619 1.355 1_554 S
C620 C622 1.419 . S
C621 C616 1.425 . S
C621 C618 1.409 . S
C621 C619 1.415 . S
C622 H612 0.930 . S
C622 C620 1.419 . S
C622 C623 1.362 1_554 S
C623 H613 0.930 . S
C623 C616 1.409 . S
C623 C622 1.362 1_556 S
H624 C630 0.930 . S
H625 C633 0.930 . S
H626 C634 0.930 . S
H627 C635 0.930 . S
H628 C638 0.930 . S
H629 C639 0.930 . S
C630 H624 0.930 . S
C630 C631 1.355 . S
C630 C632 1.415 . S
C631 C630 1.355 . S
C631 C633 1.419 . S
C632 C630 1.415 . S
C632 C637 1.425 . S
C632 C639 1.409 . S
C633 H625 0.930 . S
C633 C631 1.419 . S
C633 C634 1.362 . S
C634 H626 0.930 . S
C634 C633 1.362 . S
C634 C637 1.409 . S
C635 H627 0.930 . S
C635 C636 1.355 . S
C635 C637 1.415 . S
C636 C635 1.355 . S
C636 C638 1.419 . S
C637 C632 1.425 . S
C637 C634 1.409 . S
C637 C635 1.415 . S
C638 H628 0.930 . S
C638 C636 1.419 . S
C638 C639 1.362 . S
C639 H629 0.930 . S
C639 C632 1.409 . S
C639 C638 1.362 . S
H640 C646 0.930 . S
H641 C649 0.930 . S
H642 C650 0.930 1_554 S
H643 C651 0.930 . S
H644 C654 0.930 . S
H645 C655 0.930 . S
C646 H640 0.930 . S
C646 C647 1.355 . S
C646 C648 1.415 . S
C647 C646 1.355 . S
C647 C649 1.419 . S
C648 C646 1.415 . S
C648 C653 1.425 . S
C648 C655 1.409 . S
C649 H641 0.930 . S
C649 C647 1.419 . S
C649 C650 1.362 . S
C650 H642 0.930 1_556 S
C650 C649 1.362 . S
C650 C653 1.409 . S
C651 H643 0.930 . S
C651 C652 1.355 . S
C651 C653 1.415 1_554 S
C652 C651 1.355 . S
C652 C654 1.419 . S
C653 C648 1.425 . S
C653 C650 1.409 . S
C653 C651 1.415 1_556 S
C654 H644 0.930 . S
C654 C652 1.419 . S
C654 C655 1.362 1_554 S
C655 H645 0.930 . S
C655 C648 1.409 . S
C655 C654 1.362 1_556 S
H656 C662 0.930 . S
H657 C665 0.930 . S
H658 C666 0.930 . S
H659 C667 0.930 . S
H660 C670 0.930 . S
H661 C671 0.930 . S
C662 H656 0.930 . S
C662 C663 1.355 . S
C662 C664 1.415 . S
C663 C662 1.355 . S
C663 C665 1.419 . S
C664 C662 1.415 . S
C664 C669 1.425 . S
C664 C671 1.409 . S
C665 H657 0.930 . S
C665 C663 1.419 . S
C665 C666 1.362 . S
C666 H658 0.930 . S
C666 C665 1.362 . S
C666 C669 1.409 . S
C667 H659 0.930 . S
C667 C668 1.355 . S
C667 C669 1.415 . S
C668 C667 1.355 . S
C668 C670 1.419 . S
C669 C664 1.425 . S
C669 C666 1.409 . S
C669 C667 1.415 . S
C670 H660 0.930 . S
C670 C668 1.419 . S
C670 C671 1.362 . S
C671 H661 0.930 . S
C671 C664 1.409 . S
C671 C670 1.362 . S
H672 C678 0.930 . S
H673 C681 0.930 . S
H674 C682 0.930 . S
H675 C683 0.930 . S
H676 C686 0.930 . S
H677 C687 0.930 . S
C678 H672 0.930 . S
C678 C679 1.355 . S
C678 C680 1.415 . S
C679 C678 1.355 . S
C679 C681 1.419 . S
C680 C678 1.415 . S
C680 C685 1.425 . S
C680 C687 1.409 . S
C681 H673 0.930 . S
C681 C679 1.419 . S
C681 C682 1.362 . S
C682 H674 0.930 . S
C682 C681 1.362 . S
C682 C685 1.409 . S
C683 H675 0.930 . S
C683 C684 1.355 . S
C683 C685 1.415 . S
C684 C683 1.355 . S
C684 C686 1.419 . S
C685 C680 1.425 . S
C685 C682 1.409 . S
C685 C683 1.415 . S
C686 H676 0.930 . S
C686 C684 1.419 . S
C686 C687 1.362 . S
C687 H677 0.930 . S
C687 C680 1.409 . S
C687 C686 1.362 . S
H688 C694 0.930 . S
H689 C697 0.930 . S
H690 C698 0.930 . S
H691 C699 0.930 . S
H692 C702 0.930 . S
H693 C703 0.930 . S
C694 H688 0.930 . S
C694 C695 1.355 . S
C694 C696 1.415 . S
C695 C694 1.355 . S
C695 C697 1.419 . S
C696 C694 1.415 . S
C696 C701 1.425 . S
C696 C703 1.409 . S
C697 H689 0.930 . S
C697 C695 1.419 . S
C697 C698 1.362 . S
C698 H690 0.930 . S
C698 C697 1.362 . S
C698 C701 1.409 . S
C699 H691 0.930 . S
C699 C700 1.355 . S
C699 C701 1.415 . S
C700 C699 1.355 . S
C700 C702 1.419 . S
C701 C696 1.425 . S
C701 C698 1.409 . S
C701 C699 1.415 . S
C702 H692 0.930 . S
C702 C700 1.419 . S
C702 C703 1.362 . S
C703 H693 0.930 . S
C703 C696 1.409 . S
C703 C702 1.362 . S
H704 C710 0.930 . S
H705 C713 0.930 . S
H706 C714 0.930 . S
H707 C715 0.930 . S
H708 C718 0.930 . S
H709 C719 0.930 . S
C710 H704 0.930 . S
C710 C711 1.355 . S
C710 C712 1.415 . S
C711 C710 1.355 . S
C711 C713 1.419 . S
C712 C710 1.415 . S
C712 C717 1.425 . S
C712 C719 1.409 . S
C713 H705 0.930 . S
C713 C711 1.419 . S
C713 C714 1.362 . S
C714 H706 0.930 . S
C714 C713 1.362 . S
C714 C717 1.409 . S
C715 H707 0.930 . S
C715 C716 1.355 . S
C715 C717 1.415 . S
C716 C715 1.355 . S
C716 C718 1.419 . S
C717 C712 1.425 . S
C717 C714 1.409 . S
C717 C715 1.415 . S
C718 H708 0.930 . S
C718 C716 1.419 . S
C718 C719 1.362 . S
C719 H709 0.930 . S
C719 C712 1.409 . S
C719 C718 1.362 . S
H720 C726 0.930 . S
H721 C729 0.930 . S
H722 C730 0.930 . S
H723 C731 0.930 1_556 S
H724 C734 0.930 . S
H725 C735 0.930 . S
C726 H720 0.930 . S
C726 C727 1.355 . S
C726 C728 1.415 . S
C727 C726 1.355 . S
C727 C729 1.419 1_554 S
C728 C726 1.415 . S
C728 C733 1.425 1_545 S
C728 C735 1.409 1_545 S
C729 H721 0.930 . S
C729 C727 1.419 1_556 S
C729 C730 1.362 . S
C730 H722 0.930 . S
C730 C729 1.362 . S
C730 C733 1.409 1_546 S
C731 H723 0.930 1_554 S
C731 C732 1.355 . S
C731 C733 1.415 . S
C732 C731 1.355 . S
C732 C734 1.419 . S
C733 C728 1.425 1_565 S
C733 C730 1.409 1_564 S
C733 C731 1.415 . S
C734 H724 0.930 . S
C734 C732 1.419 . S
C734 C735 1.362 . S
C735 H725 0.930 . S
C735 C728 1.409 1_565 S
C735 C734 1.362 . S
H736 C742 0.930 . S
H737 C745 0.930 . S
H738 C746 0.930 . S
H739 C747 0.930 . S
H740 C750 0.930 . S
H741 C751 0.930 . S
C742 H736 0.930 . S
C742 C743 1.355 . S
C742 C744 1.415 . S
C743 C742 1.355 . S
C743 C745 1.419 . S
C744 C742 1.415 . S
C744 C749 1.425 . S
C744 C751 1.409 . S
C745 H737 0.930 . S
C745 C743 1.419 . S
C745 C746 1.362 . S
C746 H738 0.930 . S
C746 C745 1.362 . S
C746 C749 1.409 . S
C747 H739 0.930 . S
C747 C748 1.355 . S
C747 C749 1.415 . S
C748 C747 1.355 . S
C748 C750 1.419 . S
C749 C744 1.425 . S
C749 C746 1.409 . S
C749 C747 1.415 . S
C750 H740 0.930 . S
C750 C748 1.419 . S
C750 C751 1.362 . S
C751 H741 0.930 . S
C751 C744 1.409 . S
C751 C750 1.362 . S
H752 C758 0.930 . S
H753 C761 0.930 . S
H754 C762 0.930 . S
H755 C763 0.930 . S
H756 C766 0.930 . S
H757 C767 0.930 . S
C758 H752 0.930 . S
C758 C759 1.355 . S
C758 C760 1.415 . S
C759 C758 1.355 . S
C759 C761 1.419 . S
C760 C758 1.415 . S
C760 C765 1.425 1_455 S
C760 C767 1.409 1_455 S
C761 H753 0.930 . S
C761 C759 1.419 . S
C761 C762 1.362 . S
C762 H754 0.930 . S
C762 C761 1.362 . S
C762 C765 1.409 1_455 S
C763 H755 0.930 . S
C763 C764 1.355 . S
C763 C765 1.415 . S
C764 C763 1.355 . S
C764 C766 1.419 . S
C765 C760 1.425 1_655 S
C765 C762 1.409 1_655 S
C765 C763 1.415 . S
C766 H756 0.930 . S
C766 C764 1.419 . S
C766 C767 1.362 . S
C767 H757 0.930 . S
C767 C760 1.409 1_655 S
C767 C766 1.362 . S
H768 C774 0.930 . S
H769 C777 0.930 . S
H770 C778 0.930 . S
H771 C779 0.930 . S
H772 C782 0.930 . S
H773 C783 0.930 . S
C774 H768 0.930 . S
C774 C775 1.355 . S
C774 C776 1.415 . S
C775 C774 1.355 . S
C775 C777 1.419 . S
C776 C774 1.415 . S
C776 C781 1.425 1_565 S
C776 C783 1.409 1_565 S
C777 H769 0.930 . S
C777 C775 1.419 . S
C777 C778 1.362 . S
C778 H770 0.930 . S
C778 C777 1.362 . S
C778 C781 1.409 1_565 S
C779 H771 0.930 . S
C779 C780 1.355 . S
C779 C781 1.415 . S
C780 C779 1.355 . S
C780 C782 1.419 . S
C781 C776 1.425 1_545 S
C781 C778 1.409 1_545 S
C781 C779 1.415 . S
C782 H772 0.930 . S
C782 C780 1.419 . S
C782 C783 1.362 . S
C783 H773 0.930 . S
C783 C776 1.409 1_545 S
C783 C782 1.362 . S
H784 C790 0.930 . S
H785 C793 0.930 . S
H786 C794 0.930 . S
H787 C795 0.930 . S
H788 C798 0.930 . S
H789 C799 0.930 . S
C790 H784 0.930 . S
C790 C791 1.355 . S
C790 C792 1.415 . S
C791 C790 1.355 . S
C791 C793 1.419 . S
C792 C790 1.415 . S
C792 C797 1.425 . S
C792 C799 1.409 . S
C793 H785 0.930 . S
C793 C791 1.419 . S
C793 C794 1.362 . S
C794 H786 0.930 . S
C794 C793 1.362 . S
C794 C797 1.409 . S
C795 H787 0.930 . S
C795 C796 1.355 . S
C795 C797 1.415 . S
C796 C795 1.355 . S
C796 C798 1.419 . S
C797 C792 1.425 . S
C797 C794 1.409 . S
C797 C795 1.415 . S
C798 H788 0.930 . S
C798 C796 1.419 . S
C798 C799 1.362 . S
C799 H789 0.930 . S
C799 C792 1.409 . S
C799 C798 1.362 . S
H800 C806 0.930 . S
H801 C809 0.930 . S
H802 C810 0.930 . S
H803 C811 0.930 . S
H804 C814 0.930 . S
H805 C815 0.930 . S
C806 H800 0.930 . S
C806 C807 1.355 . S
C806 C808 1.415 . S
C807 C806 1.355 . S
C807 C809 1.419 . S
C808 C806 1.415 . S
C808 C813 1.425 1_455 S
C808 C815 1.409 1_455 S
C809 H801 0.930 . S
C809 C807 1.419 . S
C809 C810 1.362 . S
C810 H802 0.930 . S
C810 C809 1.362 . S
C810 C813 1.409 1_455 S
C811 H803 0.930 . S
C811 C812 1.355 . S
C811 C813 1.415 . S
C812 C811 1.355 . S
C812 C814 1.419 . S
C813 C808 1.425 1_655 S
C813 C810 1.409 1_655 S
C813 C811 1.415 . S
C814 H804 0.930 . S
C814 C812 1.419 . S
C814 C815 1.362 . S
C815 H805 0.930 . S
C815 C808 1.409 1_655 S
C815 C814 1.362 . S
C439 C2 1.259 . S
C444 C362 1.265 . S
C455 C38 1.223 . S
C460 C398 1.224 . S
C471 C218 1.231 . S
C476 C74 1.251 . S
C487 C110 1.251 . S
C492 C254 1.231 . S
C503 C290 1.264 . S
C508 C146 1.261 . S
C519 C326 1.221 . S
C524 C182 1.233 1_554 S
C535 C291 1.315 . S
C540 C3 1.307 . S
C551 C39 1.332 . S
C556 C327 1.342 . S
C567 C363 1.335 . S
C572 C75 1.321 . S
C583 C111 1.343 . S
C588 C399 1.343 . S
C599 C147 1.334 . S
C604 C219 1.320 . S
C615 C183 1.328 . S
C620 C255 1.314 . S
C631 C374 1.437 . S
C636 C14 1.439 . S
C647 C410 1.485 . S
C652 C50 1.494 . S
C663 C230 1.501 1_554 S
C668 C86 1.429 . S
C679 C122 1.439 . S
C684 C266 1.506 . S
C695 C158 1.454 . S
C700 C302 1.426 . S
C711 C338 1.454 . S
C716 C194 1.508 . S
C727 C4 1.325 . S
C732 C256 1.348 . S
C743 C292 1.357 . S
C748 C40 1.314 . S
C759 C328 1.362 . S
C764 C76 1.304 . S
C775 C112 1.344 . S
C780 C364 1.330 . S
C791 C148 1.329 . S
C796 C400 1.345 . S
C807 C184 1.362 . S
C812 C220 1.303 . S
