# Generated by pormake.
# Topology uov, (4)-cn, num edge types: 1
# Building blocks:
#     Node 0, Type 0, BuildingBlock: QUQFOY_clean_sbu_3, # of connection points: 4
#     Node 1, Type 0, BuildingBlock: QUQFOY_clean_sbu_3, # of connection points: 4
#     Node 2, Type 0, BuildingBlock: QUQFOY_clean_sbu_3, # of connection points: 4
#     Node 3, Type 0, BuildingBlock: QUQFOY_clean_sbu_3, # of connection points: 4
#     Node 4, Type 0, BuildingBlock: QUQFOY_clean_sbu_3, # of connection points: 4
#     Node 5, Type 0, BuildingBlock: QUQFOY_clean_sbu_3, # of connection points: 4
#     Node 6, Type 0, BuildingBlock: QUQFOY_clean_sbu_3, # of connection points: 4
#     Node 7, Type 0, BuildingBlock: QUQFOY_clean_sbu_3, # of connection points: 4
#     Edge 8, Type (0, 0), BuildingBlock: XUDNAN_clean_linker_2, # of connection points: 2
#     Edge 9, Type (0, 0), BuildingBlock: XUDNAN_clean_linker_2, # of connection points: 2
#     Edge 10, Type (0, 0), BuildingBlock: XUDNAN_clean_linker_2, # of connection points: 2
#     Edge 11, Type (0, 0), BuildingBlock: XUDNAN_clean_linker_2, # of connection points: 2
#     Edge 12, Type (0, 0), BuildingBlock: XUDNAN_clean_linker_2, # of connection points: 2
#     Edge 13, Type (0, 0), BuildingBlock: XUDNAN_clean_linker_2, # of connection points: 2
#     Edge 14, Type (0, 0), BuildingBlock: XUDNAN_clean_linker_2, # of connection points: 2
#     Edge 15, Type (0, 0), BuildingBlock: XUDNAN_clean_linker_2, # of connection points: 2
#     Edge 16, Type (0, 0), BuildingBlock: XUDNAN_clean_linker_2, # of connection points: 2
#     Edge 17, Type (0, 0), BuildingBlock: XUDNAN_clean_linker_2, # of connection points: 2
#     Edge 18, Type (0, 0), BuildingBlock: XUDNAN_clean_linker_2, # of connection points: 2
#     Edge 19, Type (0, 0), BuildingBlock: XUDNAN_clean_linker_2, # of connection points: 2
#     Edge 20, Type (0, 0), BuildingBlock: XUDNAN_clean_linker_2, # of connection points: 2
#     Edge 21, Type (0, 0), BuildingBlock: XUDNAN_clean_linker_2, # of connection points: 2
#     Edge 22, Type (0, 0), BuildingBlock: XUDNAN_clean_linker_2, # of connection points: 2
#     Edge 23, Type (0, 0), BuildingBlock: XUDNAN_clean_linker_2, # of connection points: 2
# Relax obj value: 0.139
# Max RMSD: 0.153
# Mean RMSD: 0.146
data_MOF--net-uov--node1-QUQFOY_clean_sbu_3--edge1-XUDNAN_clean_linker_2
_symmetry_space_group_name_H-M    P1
_symmetry_Int_Tables_number       1
_symmetry_cell_setting            triclinic
loop_
_symmetry_equiv_pos_as_xyz
'x, y, z'
_cell_length_a     31.88912
_cell_length_b     31.772234
_cell_length_c     43.483754
_cell_angle_alpha  89.820731
_cell_angle_beta   90.031022
_cell_angle_gamma 87.836439
loop_
_atom_site_label
_atom_site_type_symbol
_atom_site_fract_x
_atom_site_fract_y
_atom_site_fract_z
_atom_type_partial_charge
C0 C 0.92387 0.19847 0.57157 0.0
O1 O 0.92861 0.16585 0.58837 0.0
Cd2 Cd -0.0063 0.1465 0.6139 0.0
O3 O 0.95256 0.2251 0.56943 0.0
Cd4 Cd 0.02152 0.24196 0.59038 0.0
C5 C 0.06279 0.1573 0.55267 0.0
O6 O 0.01421 0.20826 0.6389 0.0
O7 O 0.07656 0.22874 0.62953 0.0
O8 O -0.00074 0.3131 0.60267 0.0
C9 C 0.05214 0.20958 0.64738 0.0
O10 O 0.04512 0.13409 0.57246 0.0
C11 C 0.02178 0.33012 0.58239 0.0
O12 O 0.05758 0.19723 0.55295 0.0
O13 O 0.04538 0.30601 0.56611 0.0
C14 C 0.20191 0.84735 0.35633 0.0
O15 O 0.17261 0.87072 0.36753 0.0
Cd16 Cd 0.17385 0.92094 0.40777 0.0
O17 O 0.23939 0.84922 0.36637 0.0
Cd18 Cd 0.27251 0.8917 0.40753 0.0
C19 C 0.21317 0.85426 0.46436 0.0
O20 O 0.23467 0.9598 0.40107 0.0
O21 O 0.26693 0.94922 0.44394 0.0
O22 O 0.33585 0.90674 0.3784 0.0
C23 C 0.24522 0.97407 0.427 0.0
O24 O 0.18434 0.87926 0.45406 0.0
C25 C 0.36067 0.89403 0.39961 0.0
O26 O 0.24823 0.84894 0.45061 0.0
O27 O 0.34439 0.87703 0.42297 0.0
C28 C 0.01437 0.77782 0.60748 0.0
O29 O -0.00386 0.80708 0.6229 0.0
Cd30 Cd 0.92158 0.80876 0.63284 0.0
O31 O -0.00592 0.74661 0.59805 0.0
Cd32 Cd 0.92508 0.71501 0.59908 0.0
C33 C 0.88464 0.79823 0.55828 0.0
O34 O 0.90695 0.73935 0.64915 0.0
O35 O 0.85719 0.70825 0.62568 0.0
O36 O 0.95651 0.64669 0.61065 0.0
C37 C 0.86945 0.72759 0.64935 0.0
O38 O 0.88893 0.82074 0.58225 0.0
C39 C 0.94678 0.63019 0.5852 0.0
O40 O 0.89662 0.75955 0.55801 0.0
O41 O 0.92597 0.65304 0.56614 0.0
C42 C 0.76576 0.07456 0.29716 0.0
O43 O 0.79937 0.05762 0.3078 0.0
Cd44 Cd 0.80966 0.03306 0.35867 0.0
O45 O 0.73233 0.07618 0.31324 0.0
Cd46 Cd 0.71488 0.04598 0.36478 0.0
C47 C 0.77009 0.11648 0.40154 0.0
O48 O 0.76002 -0.01893 0.36981 0.0
O49 O 0.73847 0.01102 0.41153 0.0
O50 O 0.65057 0.01203 0.34838 0.0
C51 C 0.75585 0.97918 0.39877 0.0
O52 O 0.80151 0.09335 0.39319 0.0
C53 C 0.62881 0.02757 0.37031 0.0
O54 O 0.7332 0.10855 0.39276 0.0
O55 O 0.64606 0.05421 0.38736 0.0
C56 C 0.87612 0.19973 0.11139 0.0
O57 O 0.90354 0.17371 0.10065 0.0
Cd58 Cd 0.94878 0.18176 0.05731 0.0
O59 O 0.871 0.23641 0.09973 0.0
Cd60 Cd 0.90404 0.27521 0.05706 0.0
C61 C 0.87128 0.20795 0.00423 0.0
O62 O 0.97723 0.24883 0.05893 0.0
O63 O 0.95601 0.27792 0.01669 0.0
O64 O 0.91128 0.33941 0.08641 0.0
C65 C -0.01421 0.26022 0.03173 0.0
O66 O 0.90233 0.18447 0.01302 0.0
C67 C 0.89324 0.36304 0.06641 0.0
O68 O 0.8606 0.24163 0.01854 0.0
O69 O 0.87732 0.34514 0.04332 0.0
C70 C 0.17361 0.93635 0.88752 0.0
O71 O 0.14208 0.94314 0.87008 0.0
Cd72 Cd 0.13447 0.00706 0.84039 0.0
O73 O 0.20421 0.9609 0.88763 0.0
Cd74 Cd 0.23468 0.02209 0.86257 0.0
C75 C 0.15785 0.08027 0.89747 0.0
O76 O 0.20014 0.00963 0.81545 0.0
O77 O 0.23495 0.06615 0.81527 0.0
O78 O 0.29323 0.97303 0.86648 0.0
C79 C 0.20958 0.04288 0.80144 0.0
O80 O 0.13198 0.06363 0.87912 0.0
C81 C 0.31958 -0.00016 0.87449 0.0
O82 O 0.19677 0.06961 0.89718 0.0
O83 O 0.30697 0.03827 0.87575 0.0
C84 C 0.0824 0.75376 0.16799 0.0
O85 O 0.06408 0.78893 0.16214 0.0
Cd86 Cd 0.03853 0.80724 0.1125 0.0
O87 O 0.08287 0.72427 0.14827 0.0
Cd88 Cd 0.04496 0.71785 0.09837 0.0
C89 C 0.11511 0.77187 0.06213 0.0
O90 O -0.01886 0.76595 0.09737 0.0
O91 O 0.01195 0.75078 0.05446 0.0
O92 O 0.00819 0.65531 0.11455 0.0
C93 C 0.97981 0.76586 0.06817 0.0
O94 O 0.09467 0.8028 0.07422 0.0
C95 C 0.01769 0.63472 0.09042 0.0
O96 O 0.10635 0.73421 0.06876 0.0
O97 O 0.0425 0.65142 0.07159 0.0
C98 C 0.76642 0.01053 0.86481 0.0
O99 O 0.79589 -0.00815 0.84989 0.0
Cd100 Cd 0.79768 0.91883 0.83601 0.0
O101 O 0.73418 -0.00907 0.87317 0.0
Cd102 Cd 0.70454 0.92034 0.8699 0.0
C103 C 0.78831 0.8799 0.90996 0.0
O104 O 0.72844 0.90788 0.81856 0.0
O105 O 0.69782 0.85552 0.83898 0.0
O106 O 0.63736 0.9582 0.86651 0.0
C107 C 0.71657 0.87054 0.81598 0.0
O108 O 0.81013 0.88411 0.88565 0.0
C109 C 0.61927 0.93474 0.88571 0.0
O110 O 0.74986 0.89216 0.91075 0.0
O111 O 0.64118 0.90479 0.89774 0.0
H112 H 0.95845 0.56596 0.62588 0.0
H113 H 0.96444 0.59644 0.52874 0.0
H114 H -0.00996 0.52342 0.51765 0.0
H115 H 0.04894 0.49496 0.62986 0.0
H116 H 0.02459 0.45915 0.656 0.0
H117 H 0.0093 0.51431 0.65635 0.0
H118 H 0.93163 0.49602 0.64753 0.0
H119 H 0.94662 0.44085 0.64749 0.0
H120 H 0.91833 0.46366 0.61524 0.0
H121 H 0.01664 0.44738 0.5178 0.0
H122 H 0.03192 0.37157 0.52798 0.0
H123 H 0.00272 0.39083 0.62442 0.0
C124 C 0.96537 0.55725 0.6023 0.0
C125 C 0.95996 0.58657 0.57814 0.0
C126 C 0.96846 0.57413 0.54749 0.0
C127 C -0.01673 0.53296 0.54105 0.0
C128 C -0.01135 0.50479 0.5655 0.0
C129 C 0.9792 0.51624 0.59543 0.0
C130 C -0.0153 0.47944 0.61731 0.0
C131 C 0.01893 0.48746 0.64129 0.0
C132 C 0.94283 0.4694 0.63279 0.0
C133 C -0.00135 0.44537 0.59503 0.0
C134 C 0.0016 0.46071 0.56535 0.0
C135 C 0.01428 0.43497 0.54091 0.0
C136 C 0.02311 0.39214 0.54691 0.0
C137 C 0.01829 0.3757 0.57692 0.0
C138 C 0.00646 0.40275 0.60125 0.0
H139 H 0.56679 -0.00281 0.33307 0.0
H140 H 0.60168 0.01648 0.42834 0.0
H141 H 0.54032 0.97787 0.44539 0.0
H142 H 0.45462 0.01433 0.34679 0.0
H143 H 0.43971 0.97611 0.31866 0.0
H144 H 0.4876 0.00365 0.31385 0.0
H145 H 0.52897 0.93204 0.31019 0.0
H146 H 0.48126 0.9043 0.31564 0.0
H147 H 0.52524 0.89431 0.34103 0.0
H148 H 0.47899 0.93364 0.4523 0.0
H149 H 0.41073 0.90027 0.44966 0.0
H150 H 0.40982 0.9157 0.35038 0.0
C151 C 0.56112 -0.0065 0.35747 0.0
C152 C 0.58885 0.00962 0.37944 0.0
C153 C 0.58053 0.00462 0.41118 0.0
C154 C 0.54609 -0.01767 0.42109 0.0
C155 C 0.5198 0.96602 0.39896 0.0
C156 C 0.52597 0.9724 0.36785 0.0
C157 C 0.49079 0.95428 0.34917 0.0
C158 C 0.46675 -0.01083 0.33106 0.0
C159 C 0.50759 0.91914 0.32774 0.0
C160 C 0.46414 0.9367 0.37471 0.0
C161 C 0.48223 0.94288 0.40313 0.0
C162 C 0.46421 0.9289 0.43024 0.0
C163 C 0.4256 0.90964 0.42845 0.0
C164 C 0.405 0.9055 0.39982 0.0
C165 C 0.42497 0.91841 0.37254 0.0
H166 H 0.91809 0.4112 0.11483 0.0
H167 H 0.88078 0.41795 0.01885 0.0
H168 H 0.90567 0.49023 0.01568 0.0
H169 H 0.89137 0.52596 0.13217 0.0
H170 H 0.9354 0.52891 0.15797 0.0
H171 H 0.90883 0.48015 0.15389 0.0
H172 H 0.97975 0.44232 0.14034 0.0
H173 H 0.00639 0.49101 0.1435 0.0
H174 H 0.00993 0.46109 0.10839 0.0
H175 H 0.94736 0.55418 0.01976 0.0
H176 H -0.00982 0.61425 0.03391 0.0
H177 H -0.00462 0.57006 0.12836 0.0
C178 C 0.91376 0.42849 0.09349 0.0
C179 C 0.89761 0.40901 0.06707 0.0
C180 C 0.89279 0.43237 0.03943 0.0
C181 C 0.90706 0.47337 0.03734 0.0
C182 C 0.92502 0.49081 0.06331 0.0
C183 C 0.92712 0.4698 0.09117 0.0
C184 C 0.94953 0.49519 0.11517 0.0
C185 C 0.91948 0.50834 0.14135 0.0
C186 C -0.01129 0.47094 0.12756 0.0
C187 C 0.96137 0.53278 0.09601 0.0
C188 C 0.94715 0.52936 0.0661 0.0
C189 C 0.95766 0.55789 0.04328 0.0
C190 C -0.01758 0.59152 0.05143 0.0
C191 C -0.00426 0.5966 0.08218 0.0
C192 C -0.01494 0.56694 0.10477 0.0
H193 H 0.39184 0.04212 0.86578 0.0
H194 H 0.34346 0.92604 0.90165 0.0
H195 H 0.41545 0.90047 0.91433 0.0
H196 H 0.47745 -0.00626 0.8281 0.0
H197 H 0.51332 0.03512 0.83527 0.0
H198 H 0.45782 0.0472 0.83338 0.0
H199 H 0.46026 0.08062 0.88764 0.0
H200 H 0.51588 0.06855 0.8897 0.0
H201 H 0.48161 0.05011 0.91939 0.0
H202 H 0.49192 0.88557 0.92015 0.0
H203 H 0.56883 0.87924 0.91424 0.0
H204 H 0.56804 0.00298 0.87152 0.0
C205 C 0.39653 0.01174 0.87689 0.0
C206 C 0.36243 -0.0139 0.88306 0.0
C207 C 0.36945 0.94604 0.89682 0.0
C208 C 0.41009 0.93142 0.90431 0.0
C209 C 0.44325 0.95713 0.89757 0.0
C210 C 0.43705 -0.00374 0.88391 0.0
C211 C 0.4784 0.01546 0.87595 0.0
C212 C 0.48194 0.02331 0.84111 0.0
C213 C 0.48438 0.05609 0.89427 0.0
C214 C 0.50864 0.98052 0.88656 0.0
C215 C 0.48773 0.94764 0.89962 0.0
C216 C 0.50876 0.9112 0.91018 0.0
C217 C 0.55239 0.90791 0.90674 0.0
C218 C 0.57422 0.94057 0.89236 0.0
C219 C 0.55209 0.97756 0.88263 0.0
H220 H 0.22082 -0.01864 0.48648 0.0
H221 H 0.21425 0.04565 0.3984 0.0
H222 H 0.1691 0.10241 0.42167 0.0
H223 H 0.11467 -2e-05 0.50492 0.0
H224 H 0.12357 0.00579 0.5456 0.0
H225 H 0.15921 0.97341 0.52297 0.0
H226 H 0.22159 0.01694 0.5413 0.0
H227 H 0.18621 0.04932 0.56422 0.0
H228 H 0.21948 0.07332 0.5362 0.0
H229 H 0.12383 0.15134 0.45508 0.0
H230 H 0.078 0.18561 0.49439 0.0
H231 H 0.11013 0.08464 0.55854 0.0
C232 C 0.21076 0.00791 0.47224 0.0
C233 C 0.22163 0.00985 0.44085 0.0
C234 C 0.20658 0.04414 0.42263 0.0
C235 C 0.18103 0.07637 0.43565 0.0
C236 C 0.1704 0.07318 0.46668 0.0
C237 C 0.18455 0.03957 0.48461 0.0
C238 C 0.16592 0.04135 0.51654 0.0
C239 C 0.13926 0.00286 0.52286 0.0
C240 C 0.20036 0.0455 0.541 0.0
C241 C 0.13894 0.08127 0.51387 0.0
C242 C 0.14238 0.0996 0.48514 0.0
C243 C 0.1208 0.13718 0.4776 0.0
C244 C 0.09494 0.1564 0.50002 0.0
C245 C 0.09038 0.13747 0.52929 0.0
C246 C 0.11267 0.09947 0.53619 0.0
H247 H 0.17302 0.78207 0.47304 0.0
H248 H 0.23115 0.88383 0.52065 0.0
H249 H 0.19669 0.86327 0.56899 0.0
H250 H 0.07992 0.79705 0.50085 0.0
H251 H 0.06491 0.74324 0.50533 0.0
H252 H 0.10429 0.75584 0.47781 0.0
H253 H 0.15706 0.70249 0.5033 0.0
H254 H 0.1174 0.68899 0.53081 0.0
H255 H 0.16766 0.70594 0.54393 0.0
H256 H 0.14117 0.84628 0.6061 0.0
H257 H 0.07342 0.83038 0.63018 0.0
H258 H 0.05268 0.73709 0.55976 0.0
C259 C 0.18049 0.798 0.49422 0.0
C260 C 0.20551 0.83348 0.49372 0.0
C261 C 0.21309 0.85561 0.52114 0.0
C262 C 0.19354 0.84419 0.54861 0.0
C263 C 0.16695 0.81033 0.54817 0.0
C264 C 0.16124 0.78677 0.5218 0.0
C265 C 0.12597 0.75667 0.52583 0.0
C266 C 0.09179 0.76369 0.50101 0.0
C267 C 0.14306 0.7108 0.52599 0.0
C268 C 0.1103 0.76964 0.55735 0.0
C269 C 0.13486 0.79992 0.57022 0.0
C270 C 0.1226 0.82145 0.59687 0.0
C271 C 0.08393 0.81246 0.61029 0.0
C272 C 0.05805 0.78221 0.59701 0.0
C273 C 0.0723 0.75958 0.5709 0.0
H274 H 0.76683 0.97851 0.46079 0.0
H275 H 0.78984 0.90319 0.379 0.0
H276 H 0.82382 0.84704 0.41115 0.0
H277 H 0.86419 0.95287 0.49728 0.0
H278 H 0.8422 0.95243 0.53545 0.0
H279 H 0.81817 -0.0147 0.50607 0.0
H280 H 0.74716 0.95009 0.51511 0.0
H281 H 0.77096 0.91709 0.54454 0.0
H282 H 0.74465 0.89361 0.51254 0.0
H283 H 0.85549 0.7995 0.45281 0.0
H284 H 0.88488 0.76582 0.49982 0.0
H285 H 0.84244 0.8745 0.55328 0.0
C286 C 0.77871 0.95011 0.44957 0.0
C287 C 0.77557 0.94501 0.41743 0.0
C288 C 0.79194 0.9076 0.40363 0.0
C289 C 0.81117 0.8756 0.4217 0.0
C290 C 0.81387 0.88179 0.45338 0.0
C291 C 0.79824 0.91825 0.46711 0.0
C292 C 0.80627 0.9181 0.50137 0.0
C293 C 0.83439 0.95431 0.51057 0.0
C294 C 0.76479 0.91981 0.51944 0.0
C295 C 0.82902 0.87581 0.50488 0.0
C296 C 0.83286 0.85513 0.47704 0.0
C297 C 0.85268 0.81544 0.47472 0.0
C298 C 0.86919 0.79655 0.50155 0.0
C299 C 0.86607 0.81759 0.53022 0.0
C300 C 0.84556 0.85767 0.53173 0.0
H301 H 0.83581 0.16754 0.40843 0.0
H302 H 0.71973 0.13153 0.4509 0.0
H303 H 0.74114 0.16422 0.49953 0.0
H304 H 0.89938 0.14217 0.46372 0.0
H305 H 0.93431 0.18541 0.46175 0.0
H306 H 0.90526 0.17117 0.42835 0.0
H307 H 0.87292 0.24695 0.42399 0.0
H308 H 0.90263 0.26187 0.45727 0.0
H309 H 0.84646 0.2706 0.45662 0.0
H310 H 0.78447 0.17768 0.54565 0.0
H311 H 0.84165 0.18285 0.58387 0.0
H312 H 0.92655 0.21845 0.51151 0.0
C313 C 0.81404 0.16872 0.42755 0.0
C314 C 0.77619 0.14736 0.42608 0.0
C315 C 0.74859 0.14843 0.45153 0.0
C316 C 0.76058 0.16683 0.47927 0.0
C317 C 0.79952 0.18527 0.48071 0.0
C318 C 0.82516 0.1879 0.45512 0.0
C319 C 0.86744 0.20467 0.46349 0.0
C320 C 0.90367 0.174 0.45377 0.0
C321 C 0.87265 0.24865 0.44952 0.0
C322 C 0.86312 0.207 0.49807 0.0
C323 C 0.82356 0.19618 0.50763 0.0
C324 C 0.81486 0.18823 0.53855 0.0
C325 C 0.84746 0.19092 0.56007 0.0
C326 C 0.88788 0.20215 0.55054 0.0
C327 C 0.89532 0.21156 0.5194 0.0
H328 H 0.83995 0.05032 0.8705 0.0
H329 H 0.70629 0.06626 0.88721 0.0
H330 H 0.71859 0.13086 0.91673 0.0
H331 H 0.86907 0.06873 0.9418 0.0
H332 H 0.91629 0.09608 0.93345 0.0
H333 H 0.89663 0.05966 0.90608 0.0
H334 H 0.89426 0.11793 0.86419 0.0
H335 H 0.9144 0.15458 0.8916 0.0
H336 H 0.86609 0.16716 0.87145 0.0
H337 H 0.7462 0.18434 0.95278 0.0
H338 H 0.78677 0.21904 -0.00651 0.0
H339 H 0.90207 0.16532 0.9551 0.0
C340 C 0.81308 0.06848 0.87913 0.0
C341 C 0.77217 0.05357 0.87634 0.0
C342 C 0.7379 0.07736 0.8889 0.0
C343 C 0.74458 0.11423 0.90556 0.0
C344 C 0.78565 0.12689 0.90935 0.0
C345 C 0.81935 0.10481 0.89624 0.0
C346 C 0.86071 0.12003 0.90808 0.0
C347 C 0.88716 0.08399 0.92327 0.0
C348 C 0.8853 0.1412 0.88229 0.0
C349 C 0.845 0.15196 0.93144 0.0
C350 C 0.80173 0.15672 0.93112 0.0
C351 C 0.78012 0.18161 0.95278 0.0
C352 C 0.80331 0.20114 0.97581 0.0
C353 C 0.84735 0.19457 0.9773 0.0
C354 C 0.86836 0.17085 0.9543 0.0
H355 H 0.08508 0.12826 0.89452 0.0
H356 H 0.19449 0.10211 0.95183 0.0
H357 H 0.16507 0.1504 -0.00851 0.0
H358 H 0.07205 0.24007 0.91468 0.0
H359 H 0.01559 0.2389 0.91377 0.0
H360 H 0.04657 0.20422 0.88931 0.0
H361 H 0.00972 0.13976 0.91222 0.0
H362 H 0.97863 0.17435 0.93649 0.0
H363 H 0.00991 0.13181 0.9533 0.0
H364 H 0.11934 0.19496 0.0273 0.0
H365 H 0.06319 0.23613 0.05459 0.0
H366 H -0.01274 0.23671 0.97181 0.0
C367 C 0.10307 0.133 0.91527 0.0
C368 C 0.14196 0.1114 0.92018 0.0
C369 C 0.16467 0.11856 0.94757 0.0
C370 C 0.14821 0.14585 0.97022 0.0
C371 C 0.10945 0.16626 0.96482 0.0
C372 C 0.08747 0.16058 0.93781 0.0
C373 C 0.0461 0.18539 0.93781 0.0
C374 C 0.04504 0.21916 0.91238 0.0
C375 C 0.00893 0.15607 0.9348 0.0
C376 C 0.0477 0.20505 0.96937 0.0
C377 C 0.08436 0.19363 -0.01529 0.0
C378 C 0.09096 0.20496 0.01528 0.0
C379 C 0.05902 0.22825 0.03057 0.0
C380 C 0.02145 0.24031 0.01507 0.0
C381 C 0.01619 0.22908 -0.01604 0.0
H382 H 0.16286 0.83988 0.05258 0.0
H383 H 0.12358 0.72441 0.01049 0.0
H384 H 0.14587 0.75026 0.95982 0.0
H385 H 0.12537 0.90605 0.00166 0.0
H386 H 0.16715 0.94267 0.00033 0.0
H387 H 0.15991 0.91137 0.03417 0.0
H388 H 0.23635 0.88128 0.03082 0.0
H389 H 0.24447 0.91354 -0.00269 0.0
H390 H 0.25499 0.85746 -0.00443 0.0
H391 H 0.15046 0.79675 0.91385 0.0
H392 H 0.15198 0.85541 0.87618 0.0
H393 H 0.1952 0.93815 0.94751 0.0
C394 C 0.16121 0.81919 0.0329 0.0
C395 C 0.14172 0.78024 0.03533 0.0
C396 C 0.13908 0.75412 0.00915 0.0
C397 C 0.15145 0.76866 0.98022 0.0
C398 C 0.16771 0.80867 0.97817 0.0
C399 C 0.17433 0.8329 0.00401 0.0
C400 C 0.18811 0.87642 -0.00467 0.0
C401 C 0.15834 0.91111 0.00865 0.0
C402 C 0.2337 0.88252 0.00535 0.0
C403 C 0.18462 0.87409 0.96072 0.0
C404 C 0.17307 0.83469 0.95117 0.0
C405 C 0.16131 0.82714 0.92081 0.0
C406 C 0.16176 0.86061 0.89968 0.0
C407 C 0.17444 0.90071 0.90906 0.0
C408 C 0.18666 0.90726 0.93974 0.0
H409 H 0.86699 0.84352 0.9148 0.0
H410 H 0.75611 0.87707 0.96861 0.0
H411 H 0.79257 0.85148 0.0157 0.0
H412 H 0.89585 0.74835 0.95635 0.0
H413 H 0.95128 0.75655 0.95293 0.0
H414 H 0.91568 0.77662 0.92377 0.0
H415 H 0.94347 0.85154 0.93152 0.0
H416 H 0.97892 0.83175 0.96085 0.0
H417 H 0.94217 0.87462 0.96935 0.0
H418 H 0.84332 0.82429 0.05748 0.0
H419 H 0.90231 0.7948 0.08914 0.0
H420 H 0.97774 0.77929 0.00661 0.0
C421 C 0.85015 0.84534 0.93641 0.0
C422 C 0.80871 0.86236 0.938 0.0
C423 C 0.78787 0.86402 0.9668 0.0
C424 C 0.80835 0.84968 -0.00631 0.0
C425 C 0.84948 0.8336 -0.00871 0.0
C426 C 0.86993 0.8311 0.96329 0.0
C427 C 0.91404 0.81274 0.96664 0.0
C428 C 0.91951 0.77109 0.94888 0.0
C429 C 0.94655 0.84457 0.9565 0.0
C430 C 0.91541 0.8055 0.00094 0.0
C431 C 0.87806 0.81774 0.01494 0.0
C432 C 0.87263 0.81441 0.04671 0.0
C433 C 0.90625 0.79779 0.0645 0.0
C434 C 0.94448 0.78469 0.05032 0.0
C435 C 0.94886 0.78883 0.01818 0.0
H436 H 0.12814 0.21229 0.67688 0.0
H437 H 0.01408 0.1421 0.6722 0.0
H438 H 0.04456 0.08951 0.7083 0.0
H439 H 0.20135 0.12436 0.68247 0.0
H440 H 0.23481 0.14863 0.71016 0.0
H441 H 0.20474 0.18086 0.68333 0.0
H442 H 0.17061 0.22294 0.72838 0.0
H443 H 0.20106 0.19128 0.7553 0.0
H444 H 0.14471 0.19508 0.75868 0.0
H445 H 0.08817 0.0427 0.74224 0.0
H446 H 0.13776 0.01016 0.77946 0.0
H447 H 0.22188 0.11298 0.76577 0.0
C448 C 0.10957 0.18595 0.68363 0.0
C449 C 0.06894 0.18102 0.67154 0.0
C450 C 0.04532 0.14645 0.68111 0.0
C451 C 0.06244 0.11625 0.70144 0.0
C452 C 0.1029 0.12149 0.7124 0.0
C453 C 0.12586 0.15589 0.70445 0.0
C454 C 0.1678 0.15493 0.72089 0.0
C455 C 0.20433 0.15202 0.69783 0.0
C456 C 0.17123 0.19333 0.74208 0.0
C457 C 0.16476 0.11452 0.7392 0.0
C458 C 0.12735 0.09543 0.73347 0.0
C459 C 0.11743 0.0575 0.7472 0.0
C460 C 0.14592 0.03919 0.76822 0.0
C461 C 0.1835 0.05926 0.77573 0.0
C462 C 0.19333 0.09702 0.76055 0.0
H463 H 0.05377 0.77848 0.22347 0.0
H464 H 0.16181 0.72066 0.17789 0.0
H465 H 0.204 0.72882 0.22536 0.0
H466 H 0.10242 0.85557 0.25855 0.0
H467 H 0.07319 0.8554 0.29401 0.0
H468 H 0.04984 0.83661 0.25938 0.0
H469 H 0.03635 0.76491 0.2855 0.0
H470 H 0.05915 0.78373 0.32058 0.0
H471 H 0.07927 0.73552 0.30341 0.0
H472 H 0.23698 0.75727 0.27421 0.0
H473 H 0.25581 0.79791 0.32049 0.0
H474 H 0.12437 0.83371 0.33357 0.0
C475 C 0.08588 0.76606 0.22397 0.0
C476 C 0.10469 0.74879 0.1974 0.0
C477 C 0.14686 0.73338 0.19839 0.0
C478 C 0.17098 0.73802 0.22517 0.0
C479 C 0.15192 0.75708 0.25076 0.0
C480 C 0.10992 0.76982 0.25052 0.0
C481 C 0.09748 0.79297 0.27954 0.0
C482 C 0.07973 0.83776 0.27242 0.0
C483 C 0.06622 0.76776 0.29838 0.0
C484 C 0.13954 0.79384 0.29536 0.0
C485 C 0.1706 0.77252 0.27884 0.0
C486 C 0.21269 0.77309 0.28772 0.0
C487 C 0.22314 0.79638 0.31395 0.0
C488 C 0.19159 0.819 0.33068 0.0
C489 C 0.14931 0.81663 0.32149 0.0
H490 H 0.87657 0.79543 0.68638 0.0
H491 H 0.79587 0.69208 0.66645 0.0
H492 H 0.74665 0.71729 0.7072 0.0
H493 H 0.86208 0.79853 0.76782 0.0
H494 H 0.86185 0.85521 0.76959 0.0
H495 H 0.89079 0.82781 0.73975 0.0
H496 H 0.85 0.87184 0.6984 0.0
H497 H 0.82084 0.8993 0.72811 0.0
H498 H 0.79344 0.87251 0.69813 0.0
H499 H 0.70822 0.75302 0.75213 0.0
H500 H 0.6814 0.79894 0.7944 0.0
H501 H 0.78527 0.88116 0.78048 0.0
C502 C 0.8487 0.77787 0.69072 0.0
C503 C 0.84009 0.74159 0.67365 0.0
C504 C 0.80295 0.71991 0.6795 0.0
C505 C 0.77494 0.73395 0.70255 0.0
C506 C 0.78438 0.77005 0.71897 0.0
C507 C 0.82018 0.79191 0.71302 0.0
C508 C 0.82262 0.8306 0.7329 0.0
C509 C 0.86164 0.82784 0.75375 0.0
C510 C 0.82165 0.87094 0.7132 0.0
C511 C 0.78277 0.82703 0.75125 0.0
C512 C 0.76126 0.79172 0.74323 0.0
C513 C 0.72454 0.78102 0.75832 0.0
C514 C 0.70959 0.80714 0.78224 0.0
C515 C 0.73102 0.84373 0.79029 0.0
C516 C 0.76783 0.85379 0.77441 0.0
H517 H 0.81755 0.0521 0.25034 0.0
H518 H 0.71932 0.14338 0.27584 0.0
H519 H 0.73304 0.18406 0.22831 0.0
H520 H 0.88828 0.12193 0.22456 0.0
H521 H 0.90817 0.09018 0.19313 0.0
H522 H 0.88625 0.06534 0.22632 0.0
H523 H 0.83328 0.02733 0.19182 0.0
H524 H 0.85554 0.0515 0.15835 0.0
H525 H 0.80006 0.05773 0.1658 0.0
H526 H 0.76531 0.21943 0.18144 0.0
H527 H 0.8085 0.2428 0.13768 0.0
H528 H 0.88422 0.12665 0.14413 0.0
C529 C 0.79815 0.08009 0.24556 0.0
C530 C 0.76741 0.0947 0.26663 0.0
C531 C 0.74274 0.13149 0.25972 0.0
C532 C 0.75048 0.15483 0.2329 0.0
C533 C 0.7824 0.14037 0.21318 0.0
C534 C 0.80522 0.10333 0.21899 0.0
C535 C 0.83948 0.09555 0.19553 0.0
C536 C 0.8831 0.09314 0.21081 0.0
C537 C 0.8316 0.05567 0.17676 0.0
C538 C 0.83353 0.13474 0.17612 0.0
C539 C 0.80038 0.16022 0.18639 0.0
C540 C 0.79086 0.19934 0.17292 0.0
C541 C 0.81571 0.21245 0.14821 0.0
C542 C 0.84968 0.1865 0.13739 0.0
C543 C 0.85832 0.14715 0.15159 0.0
loop_
_geom_bond_atom_site_label_1
_geom_bond_atom_site_label_2
_geom_bond_distance
_geom_bond_site_symmetry_2
_ccdc_geom_bond_type
C0 O1 1.306 . S
C0 O3 1.160 . S
O1 C0 1.306 . S
O1 Cd2 2.228 . S
Cd2 O1 2.228 . S
Cd2 O6 2.273 . S
Cd2 O10 2.277 . S
O3 C0 1.160 . S
O3 Cd4 2.203 . S
Cd4 O3 2.203 . S
Cd4 O6 2.411 . S
Cd4 O7 2.333 . S
Cd4 O8 2.352 . S
Cd4 O12 2.277 . S
Cd4 O13 2.356 . S
C5 O10 1.209 . S
C5 O12 1.226 . S
O6 Cd2 2.273 . S
O6 Cd4 2.411 . S
O6 C9 1.320 . S
O7 Cd4 2.333 . S
O7 C9 1.214 . S
O8 Cd4 2.352 . S
O8 C11 1.258 . S
C9 O6 1.320 . S
C9 O7 1.214 . S
O10 Cd2 2.277 . S
O10 C5 1.209 . S
C11 O8 1.258 . S
C11 O13 1.282 . S
O12 Cd4 2.277 . S
O12 C5 1.226 . S
O13 Cd4 2.356 . S
O13 C11 1.282 . S
C14 O15 1.306 . S
C14 O17 1.160 . S
O15 C14 1.306 . S
O15 Cd16 2.228 . S
Cd16 O15 2.228 . S
Cd16 O20 2.273 . S
Cd16 O24 2.277 . S
O17 C14 1.160 . S
O17 Cd18 2.203 . S
Cd18 O17 2.203 . S
Cd18 O20 2.411 . S
Cd18 O21 2.333 . S
Cd18 O22 2.352 . S
Cd18 O26 2.277 . S
Cd18 O27 2.356 . S
C19 O24 1.209 . S
C19 O26 1.226 . S
O20 Cd16 2.273 . S
O20 Cd18 2.411 . S
O20 C23 1.320 . S
O21 Cd18 2.333 . S
O21 C23 1.214 . S
O22 Cd18 2.352 . S
O22 C25 1.258 . S
C23 O20 1.320 . S
C23 O21 1.214 . S
O24 Cd16 2.277 . S
O24 C19 1.209 . S
C25 O22 1.258 . S
C25 O27 1.282 . S
O26 Cd18 2.277 . S
O26 C19 1.226 . S
O27 Cd18 2.356 . S
O27 C25 1.282 . S
C28 O29 1.306 . S
C28 O31 1.160 . S
O29 C28 1.306 . S
O29 Cd30 2.228 . S
Cd30 O29 2.228 . S
Cd30 O34 2.273 . S
Cd30 O38 2.277 . S
O31 C28 1.160 . S
O31 Cd32 2.203 . S
Cd32 O31 2.203 . S
Cd32 O34 2.411 . S
Cd32 O35 2.333 . S
Cd32 O36 2.352 . S
Cd32 O40 2.277 . S
Cd32 O41 2.356 . S
C33 O38 1.209 . S
C33 O40 1.226 . S
O34 Cd30 2.273 . S
O34 Cd32 2.411 . S
O34 C37 1.320 . S
O35 Cd32 2.333 . S
O35 C37 1.214 . S
O36 Cd32 2.352 . S
O36 C39 1.258 . S
C37 O34 1.320 . S
C37 O35 1.214 . S
O38 Cd30 2.277 . S
O38 C33 1.209 . S
C39 O36 1.258 . S
C39 O41 1.282 . S
O40 Cd32 2.277 . S
O40 C33 1.226 . S
O41 Cd32 2.356 . S
O41 C39 1.282 . S
C42 O43 1.306 . S
C42 O45 1.160 . S
O43 C42 1.306 . S
O43 Cd44 2.228 . S
Cd44 O43 2.228 . S
Cd44 O48 2.273 . S
Cd44 O52 2.277 . S
O45 C42 1.160 . S
O45 Cd46 2.203 . S
Cd46 O45 2.203 . S
Cd46 O48 2.411 . S
Cd46 O49 2.333 . S
Cd46 O50 2.352 . S
Cd46 O54 2.277 . S
Cd46 O55 2.356 . S
C47 O52 1.209 . S
C47 O54 1.226 . S
O48 Cd44 2.273 . S
O48 Cd46 2.411 . S
O48 C51 1.320 . S
O49 Cd46 2.333 . S
O49 C51 1.214 . S
O50 Cd46 2.352 . S
O50 C53 1.258 . S
C51 O48 1.320 . S
C51 O49 1.214 . S
O52 Cd44 2.277 . S
O52 C47 1.209 . S
C53 O50 1.258 . S
C53 O55 1.282 . S
O54 Cd46 2.277 . S
O54 C47 1.226 . S
O55 Cd46 2.356 . S
O55 C53 1.282 . S
C56 O57 1.306 . S
C56 O59 1.160 . S
O57 C56 1.306 . S
O57 Cd58 2.228 . S
Cd58 O57 2.228 . S
Cd58 O62 2.273 . S
Cd58 O66 2.277 . S
O59 C56 1.160 . S
O59 Cd60 2.203 . S
Cd60 O59 2.203 . S
Cd60 O62 2.411 . S
Cd60 O63 2.333 . S
Cd60 O64 2.352 . S
Cd60 O68 2.277 . S
Cd60 O69 2.356 . S
C61 O66 1.209 . S
C61 O68 1.226 . S
O62 Cd58 2.273 . S
O62 Cd60 2.411 . S
O62 C65 1.320 . S
O63 Cd60 2.333 . S
O63 C65 1.214 . S
O64 Cd60 2.352 . S
O64 C67 1.258 . S
C65 O62 1.320 . S
C65 O63 1.214 . S
O66 Cd58 2.277 . S
O66 C61 1.209 . S
C67 O64 1.258 . S
C67 O69 1.282 . S
O68 Cd60 2.277 . S
O68 C61 1.226 . S
O69 Cd60 2.356 . S
O69 C67 1.282 . S
C70 O71 1.306 . S
C70 O73 1.160 . S
O71 C70 1.306 . S
O71 Cd72 2.228 . S
Cd72 O71 2.228 . S
Cd72 O76 2.273 . S
Cd72 O80 2.277 . S
O73 C70 1.160 . S
O73 Cd74 2.203 . S
Cd74 O73 2.203 . S
Cd74 O76 2.411 . S
Cd74 O77 2.333 . S
Cd74 O78 2.352 . S
Cd74 O82 2.277 . S
Cd74 O83 2.356 . S
C75 O80 1.209 . S
C75 O82 1.226 . S
O76 Cd72 2.273 . S
O76 Cd74 2.411 . S
O76 C79 1.320 . S
O77 Cd74 2.333 . S
O77 C79 1.214 . S
O78 Cd74 2.352 . S
O78 C81 1.258 . S
C79 O76 1.320 . S
C79 O77 1.214 . S
O80 Cd72 2.277 . S
O80 C75 1.209 . S
C81 O78 1.258 . S
C81 O83 1.282 . S
O82 Cd74 2.277 . S
O82 C75 1.226 . S
O83 Cd74 2.356 . S
O83 C81 1.282 . S
C84 O85 1.306 . S
C84 O87 1.160 . S
O85 C84 1.306 . S
O85 Cd86 2.228 . S
Cd86 O85 2.228 . S
Cd86 O90 2.273 . S
Cd86 O94 2.277 . S
O87 C84 1.160 . S
O87 Cd88 2.203 . S
Cd88 O87 2.203 . S
Cd88 O90 2.411 . S
Cd88 O91 2.333 . S
Cd88 O92 2.352 . S
Cd88 O96 2.277 . S
Cd88 O97 2.356 . S
C89 O94 1.209 . S
C89 O96 1.226 . S
O90 Cd86 2.273 . S
O90 Cd88 2.411 . S
O90 C93 1.320 . S
O91 Cd88 2.333 . S
O91 C93 1.214 . S
O92 Cd88 2.352 . S
O92 C95 1.258 . S
C93 O90 1.320 . S
C93 O91 1.214 . S
O94 Cd86 2.277 . S
O94 C89 1.209 . S
C95 O92 1.258 . S
C95 O97 1.282 . S
O96 Cd88 2.277 . S
O96 C89 1.226 . S
O97 Cd88 2.356 . S
O97 C95 1.282 . S
C98 O99 1.306 . S
C98 O101 1.160 . S
O99 C98 1.306 . S
O99 Cd100 2.228 . S
Cd100 O99 2.228 . S
Cd100 O104 2.273 . S
Cd100 O108 2.277 . S
O101 C98 1.160 . S
O101 Cd102 2.203 . S
Cd102 O101 2.203 . S
Cd102 O104 2.411 . S
Cd102 O105 2.333 . S
Cd102 O106 2.352 . S
Cd102 O110 2.277 . S
Cd102 O111 2.356 . S
C103 O108 1.209 . S
C103 O110 1.226 . S
O104 Cd100 2.273 . S
O104 Cd102 2.411 . S
O104 C107 1.320 . S
O105 Cd102 2.333 . S
O105 C107 1.214 . S
O106 Cd102 2.352 . S
O106 C109 1.258 . S
C107 O104 1.320 . S
C107 O105 1.214 . S
O108 Cd100 2.277 . S
O108 C103 1.209 . S
C109 O106 1.258 . S
C109 O111 1.282 . S
O110 Cd102 2.277 . S
O110 C103 1.226 . S
O111 Cd102 2.356 . S
O111 C109 1.282 . S
H112 C124 0.930 . S
H113 C126 0.930 . S
H114 C127 0.930 . S
H115 C131 0.959 . S
H116 C131 0.959 . S
H117 C131 0.961 . S
H118 C132 0.960 . S
H119 C132 0.961 . S
H120 C132 0.959 . S
H121 C135 0.929 . S
H122 C136 0.931 . S
H123 C138 0.930 . S
C124 H112 0.930 . S
C124 C125 1.399 . S
C124 C129 1.399 . S
C125 C124 1.399 . S
C125 C126 1.376 . S
C126 H113 0.930 . S
C126 C125 1.376 . S
C126 C127 1.388 . S
C127 H114 0.930 . S
C127 C126 1.388 . S
C127 C128 1.390 . S
C128 C127 1.390 . S
C128 C129 1.394 . S
C128 C134 1.465 1_655 S
C129 C124 1.399 . S
C129 C128 1.394 . S
C129 C130 1.516 . S
C130 C129 1.516 . S
C130 C131 1.502 1_655 S
C130 C132 1.561 . S
C130 C133 1.526 1_655 S
C131 H115 0.959 . S
C131 H116 0.959 . S
C131 H117 0.961 . S
C131 C130 1.502 1_455 S
C132 H118 0.960 . S
C132 H119 0.961 . S
C132 H120 0.959 . S
C132 C130 1.561 . S
C133 C130 1.526 1_455 S
C133 C134 1.396 . S
C133 C138 1.390 . S
C134 C128 1.465 1_455 S
C134 C133 1.396 . S
C134 C135 1.399 . S
C135 H121 0.929 . S
C135 C134 1.399 . S
C135 C136 1.385 . S
C136 H122 0.931 . S
C136 C135 1.385 . S
C136 C137 1.389 . S
C137 C136 1.389 . S
C137 C138 1.387 . S
C138 H123 0.930 . S
C138 C133 1.390 . S
C138 C137 1.387 . S
H139 C151 0.930 . S
H140 C153 0.930 . S
H141 C154 0.930 . S
H142 C158 0.959 . S
H143 C158 0.959 . S
H144 C158 0.961 . S
H145 C159 0.960 . S
H146 C159 0.961 . S
H147 C159 0.959 . S
H148 C162 0.929 . S
H149 C163 0.931 . S
H150 C165 0.930 . S
C151 H139 0.930 . S
C151 C152 1.399 . S
C151 C156 1.399 . S
C152 C151 1.399 . S
C152 C153 1.376 . S
C153 H140 0.930 . S
C153 C152 1.376 . S
C153 C154 1.388 . S
C154 H141 0.930 . S
C154 C153 1.388 . S
C154 C155 1.390 . S
C155 C154 1.390 . S
C155 C156 1.394 . S
C155 C161 1.450 1_545 S
C156 C151 1.399 . S
C156 C155 1.394 . S
C156 C157 1.516 1_545 S
C157 C156 1.516 1_565 S
C157 C158 1.502 . S
C157 C159 1.561 . S
C157 C160 1.526 . S
C158 H142 0.959 . S
C158 H143 0.959 . S
C158 H144 0.961 . S
C158 C157 1.502 . S
C159 H145 0.960 . S
C159 H146 0.961 . S
C159 H147 0.959 . S
C159 C157 1.561 . S
C160 C157 1.526 . S
C160 C161 1.416 . S
C160 C165 1.390 . S
C161 C155 1.450 1_565 S
C161 C160 1.416 . S
C161 C162 1.397 1_565 S
C162 H148 0.929 . S
C162 C161 1.397 1_545 S
C162 C163 1.385 1_545 S
C163 H149 0.931 . S
C163 C162 1.385 1_565 S
C163 C164 1.389 . S
C164 C163 1.389 . S
C164 C165 1.387 . S
C165 H150 0.930 . S
C165 C160 1.390 . S
C165 C164 1.387 . S
H166 C178 0.930 . S
H167 C180 0.930 . S
H168 C181 0.930 . S
H169 C185 0.959 . S
H170 C185 0.959 . S
H171 C185 0.961 . S
H172 C186 0.960 . S
H173 C186 0.961 . S
H174 C186 0.959 . S
H175 C189 0.929 1_655 S
H176 C190 0.931 . S
H177 C192 0.930 . S
C178 H166 0.930 . S
C178 C179 1.399 . S
C178 C183 1.399 . S
C179 C178 1.399 . S
C179 C180 1.376 . S
C180 H167 0.930 . S
C180 C179 1.376 . S
C180 C181 1.388 . S
C181 H168 0.930 . S
C181 C180 1.388 . S
C181 C182 1.390 . S
C182 C181 1.390 . S
C182 C183 1.394 . S
C182 C188 1.465 1_655 S
C183 C178 1.399 . S
C183 C182 1.394 . S
C183 C184 1.516 1_655 S
C184 C183 1.516 1_455 S
C184 C185 1.502 . S
C184 C186 1.561 . S
C184 C187 1.526 . S
C185 H169 0.959 . S
C185 H170 0.959 . S
C185 H171 0.961 . S
C185 C184 1.502 . S
C186 H172 0.960 . S
C186 H173 0.961 . S
C186 H174 0.959 . S
C186 C184 1.561 . S
C187 C184 1.526 . S
C187 C188 1.396 . S
C187 C192 1.390 . S
C188 C182 1.465 1_455 S
C188 C187 1.396 . S
C188 C189 1.399 . S
C189 H175 0.929 1_455 S
C189 C188 1.399 . S
C189 C190 1.385 . S
C190 H176 0.931 . S
C190 C189 1.385 . S
C190 C191 1.389 . S
C191 C190 1.389 . S
C191 C192 1.387 . S
C192 H177 0.930 . S
C192 C187 1.390 . S
C192 C191 1.387 . S
H193 C205 0.930 . S
H194 C207 0.930 . S
H195 C208 0.930 1_565 S
H196 C212 0.959 . S
H197 C212 0.959 . S
H198 C212 0.961 . S
H199 C213 0.960 . S
H200 C213 0.961 . S
H201 C213 0.959 . S
H202 C216 0.929 . S
H203 C217 0.931 . S
H204 C219 0.930 . S
C205 H193 0.930 . S
C205 C206 1.399 . S
C205 C210 1.399 . S
C206 C205 1.399 . S
C206 C207 1.376 . S
C207 H194 0.930 . S
C207 C206 1.376 . S
C207 C208 1.388 . S
C208 H195 0.930 1_545 S
C208 C207 1.388 . S
C208 C209 1.390 . S
C209 C208 1.390 . S
C209 C210 1.394 . S
C209 C215 1.465 1_545 S
C210 C205 1.399 . S
C210 C209 1.394 . S
C210 C211 1.516 . S
C211 C210 1.516 . S
C211 C212 1.502 . S
C211 C213 1.561 1_545 S
C211 C214 1.526 1_545 S
C212 H196 0.959 . S
C212 H197 0.959 . S
C212 H198 0.961 . S
C212 C211 1.502 . S
C213 H199 0.960 . S
C213 H200 0.961 . S
C213 H201 0.959 . S
C213 C211 1.561 1_565 S
C214 C211 1.526 1_565 S
C214 C215 1.396 . S
C214 C219 1.390 . S
C215 C209 1.465 1_565 S
C215 C214 1.396 . S
C215 C216 1.399 . S
C216 H202 0.929 . S
C216 C215 1.399 . S
C216 C217 1.385 . S
C217 H203 0.931 . S
C217 C216 1.385 . S
C217 C218 1.389 . S
C218 C217 1.389 . S
C218 C219 1.387 . S
C219 H204 0.930 . S
C219 C214 1.390 . S
C219 C218 1.387 . S
H220 C232 0.930 1_565 S
H221 C234 0.930 . S
H222 C235 0.930 . S
H223 C239 0.959 . S
H224 C239 0.959 . S
H225 C239 0.961 . S
H226 C240 0.960 . S
H227 C240 0.961 . S
H228 C240 0.959 . S
H229 C243 0.929 . S
H230 C244 0.931 . S
H231 C246 0.930 . S
C232 H220 0.930 1_545 S
C232 C233 1.399 . S
C232 C237 1.399 . S
C233 C232 1.399 . S
C233 C234 1.376 . S
C234 H221 0.930 . S
C234 C233 1.376 . S
C234 C235 1.388 . S
C235 H222 0.930 . S
C235 C234 1.388 . S
C235 C236 1.390 . S
C236 C235 1.390 . S
C236 C237 1.394 . S
C236 C242 1.465 . S
C237 C232 1.399 . S
C237 C236 1.394 . S
C237 C238 1.516 . S
C238 C237 1.516 . S
C238 C239 1.502 . S
C238 C240 1.561 . S
C238 C241 1.526 . S
C239 H223 0.959 . S
C239 H224 0.959 . S
C239 H225 0.961 . S
C239 C238 1.502 . S
C240 H226 0.960 . S
C240 H227 0.961 . S
C240 H228 0.959 . S
C240 C238 1.561 . S
C241 C238 1.526 . S
C241 C242 1.396 . S
C241 C246 1.390 . S
C242 C236 1.465 . S
C242 C241 1.396 . S
C242 C243 1.399 . S
C243 H229 0.929 . S
C243 C242 1.399 . S
C243 C244 1.385 . S
C244 H230 0.931 . S
C244 C243 1.385 . S
C244 C245 1.389 . S
C245 C244 1.389 . S
C245 C246 1.387 . S
C246 H231 0.930 . S
C246 C241 1.390 . S
C246 C245 1.387 . S
H247 C259 0.930 . S
H248 C261 0.930 . S
H249 C262 0.930 . S
H250 C266 0.959 . S
H251 C266 0.959 . S
H252 C266 0.961 . S
H253 C267 0.960 . S
H254 C267 0.961 . S
H255 C267 0.959 . S
H256 C270 0.929 . S
H257 C271 0.931 . S
H258 C273 0.942 . S
C259 H247 0.930 . S
C259 C260 1.399 . S
C259 C264 1.399 . S
C260 C259 1.399 . S
C260 C261 1.376 . S
C261 H248 0.930 . S
C261 C260 1.376 . S
C261 C262 1.388 . S
C262 H249 0.930 . S
C262 C261 1.388 . S
C262 C263 1.390 . S
C263 C262 1.390 . S
C263 C264 1.394 . S
C263 C269 1.465 . S
C264 C259 1.399 . S
C264 C263 1.394 . S
C264 C265 1.516 . S
C265 C264 1.516 . S
C265 C266 1.502 . S
C265 C267 1.561 . S
C265 C268 1.526 . S
C266 H250 0.959 . S
C266 H251 0.959 . S
C266 H252 0.961 . S
C266 C265 1.502 . S
C267 H253 0.960 . S
C267 H254 0.961 . S
C267 H255 0.959 . S
C267 C265 1.561 . S
C268 C265 1.526 . S
C268 C269 1.396 . S
C268 C273 1.390 . S
C269 C263 1.465 . S
C269 C268 1.396 . S
C269 C270 1.399 . S
C270 H256 0.929 . S
C270 C269 1.399 . S
C270 C271 1.385 . S
C271 H257 0.931 . S
C271 C270 1.385 . S
C271 C272 1.389 . S
C272 C271 1.389 . S
C272 C273 1.387 . S
C273 H258 0.942 . S
C273 C268 1.390 . S
C273 C272 1.387 . S
H274 C286 0.930 . S
H275 C288 0.930 1_545 S
H276 C289 0.930 . S
H277 C293 0.959 . S
H278 C293 0.959 . S
H279 C293 0.961 . S
H280 C294 0.960 . S
H281 C294 0.961 . S
H282 C294 0.959 . S
H283 C297 0.929 . S
H284 C298 0.931 . S
H285 C300 0.930 . S
C286 H274 0.930 . S
C286 C287 1.399 . S
C286 C291 1.399 . S
C287 C286 1.399 . S
C287 C288 1.376 . S
C288 H275 0.930 1_565 S
C288 C287 1.376 . S
C288 C289 1.388 . S
C289 H276 0.930 . S
C289 C288 1.388 . S
C289 C290 1.390 . S
C290 C289 1.390 . S
C290 C291 1.394 . S
C290 C296 1.465 . S
C291 C286 1.399 . S
C291 C290 1.394 . S
C291 C292 1.516 . S
C292 C291 1.516 . S
C292 C293 1.502 . S
C292 C294 1.561 . S
C292 C295 1.526 . S
C293 H277 0.959 . S
C293 H278 0.959 . S
C293 H279 0.961 . S
C293 C292 1.502 . S
C294 H280 0.960 . S
C294 H281 0.961 . S
C294 H282 0.959 . S
C294 C292 1.561 . S
C295 C292 1.526 . S
C295 C296 1.396 . S
C295 C300 1.390 . S
C296 C290 1.465 . S
C296 C295 1.396 . S
C296 C297 1.399 . S
C297 H283 0.929 . S
C297 C296 1.399 . S
C297 C298 1.385 . S
C298 H284 0.931 . S
C298 C297 1.385 . S
C298 C299 1.389 . S
C299 C298 1.389 . S
C299 C300 1.387 . S
C300 H285 0.930 . S
C300 C295 1.390 . S
C300 C299 1.387 . S
H301 C313 0.930 . S
H302 C315 0.930 . S
H303 C316 0.930 . S
H304 C320 0.959 . S
H305 C320 0.959 . S
H306 C320 0.961 . S
H307 C321 0.960 . S
H308 C321 0.961 . S
H309 C321 0.959 . S
H310 C324 0.929 . S
H311 C325 0.931 . S
H312 C327 0.930 . S
C313 H301 0.930 . S
C313 C314 1.399 . S
C313 C318 1.399 . S
C314 C313 1.399 . S
C314 C315 1.376 . S
C315 H302 0.930 . S
C315 C314 1.376 . S
C315 C316 1.388 . S
C316 H303 0.930 . S
C316 C315 1.388 . S
C316 C317 1.390 . S
C317 C316 1.390 . S
C317 C318 1.394 . S
C317 C323 1.465 . S
C318 C313 1.399 . S
C318 C317 1.394 . S
C318 C319 1.516 . S
C319 C318 1.516 . S
C319 C320 1.502 . S
C319 C321 1.561 . S
C319 C322 1.526 . S
C320 H304 0.959 . S
C320 H305 0.959 . S
C320 H306 0.961 . S
C320 C319 1.502 . S
C321 H307 0.960 . S
C321 H308 0.961 . S
C321 H309 0.959 . S
C321 C319 1.561 . S
C322 C319 1.526 . S
C322 C323 1.396 . S
C322 C327 1.390 . S
C323 C317 1.465 . S
C323 C322 1.396 . S
C323 C324 1.399 . S
C324 H310 0.929 . S
C324 C323 1.399 . S
C324 C325 1.385 . S
C325 H311 0.931 . S
C325 C324 1.385 . S
C325 C326 1.389 . S
C326 C325 1.389 . S
C326 C327 1.387 . S
C327 H312 0.930 . S
C327 C322 1.390 . S
C327 C326 1.387 . S
H328 C340 0.930 . S
H329 C342 0.930 1_565 S
H330 C343 0.930 . S
H331 C347 0.959 . S
H332 C347 0.959 . S
H333 C347 0.961 . S
H334 C348 0.960 . S
H335 C348 0.961 . S
H336 C348 0.959 . S
H337 C351 0.929 . S
H338 C352 0.931 . S
H339 C354 0.930 1_556 S
C340 H328 0.930 . S
C340 C341 1.399 . S
C340 C345 1.399 . S
C341 C340 1.399 . S
C341 C342 1.376 . S
C342 H329 0.930 1_545 S
C342 C341 1.376 . S
C342 C343 1.388 1_556 S
C343 H330 0.930 . S
C343 C342 1.388 1_554 S
C343 C344 1.393 . S
C344 C343 1.393 . S
C344 C345 1.383 1_554 S
C344 C350 1.471 . S
C345 C340 1.399 . S
C345 C344 1.383 1_556 S
C345 C346 1.516 . S
C346 C345 1.516 . S
C346 C347 1.502 . S
C346 C348 1.561 . S
C346 C349 1.557 . S
C347 H331 0.959 . S
C347 H332 0.959 . S
C347 H333 0.961 . S
C347 C346 1.502 . S
C348 H334 0.960 . S
C348 H335 0.961 . S
C348 H336 0.959 . S
C348 C346 1.561 . S
C349 C346 1.557 . S
C349 C350 1.376 1_556 S
C349 C354 1.378 1_556 S
C350 C344 1.471 . S
C350 C349 1.376 1_554 S
C350 C351 1.399 . S
C351 H337 0.929 . S
C351 C350 1.399 . S
C351 C352 1.385 . S
C352 H338 0.931 . S
C352 C351 1.385 . S
C352 C353 1.389 . S
C353 C352 1.389 . S
C353 C354 1.387 . S
C354 H339 0.930 1_554 S
C354 C349 1.378 1_554 S
C354 C353 1.387 . S
H355 C367 0.930 . S
H356 C369 0.934 . S
H357 C370 0.930 . S
H358 C374 0.959 . S
H359 C374 0.959 . S
H360 C374 0.961 . S
H361 C375 0.960 . S
H362 C375 0.961 . S
H363 C375 0.959 . S
H364 C378 0.929 . S
H365 C379 0.931 . S
H366 C381 0.930 1_655 S
C367 H355 0.930 . S
C367 C368 1.399 . S
C367 C372 1.399 . S
C368 C367 1.399 . S
C368 C369 1.376 . S
C369 H356 0.934 . S
C369 C368 1.376 . S
C369 C370 1.388 1_556 S
C370 H357 0.930 . S
C370 C369 1.388 1_554 S
C370 C371 1.390 . S
C371 C370 1.390 . S
C371 C372 1.394 1_554 S
C371 C377 1.465 . S
C372 C367 1.399 . S
C372 C371 1.394 1_556 S
C372 C373 1.516 . S
C373 C372 1.516 . S
C373 C374 1.502 . S
C373 C375 1.561 . S
C373 C376 1.526 1_556 S
C374 H358 0.959 . S
C374 H359 0.959 . S
C374 H360 0.961 . S
C374 C373 1.502 . S
C375 H361 0.960 . S
C375 H362 0.961 . S
C375 H363 0.959 . S
C375 C373 1.561 . S
C376 C373 1.526 1_554 S
C376 C377 1.396 . S
C376 C381 1.390 . S
C377 C371 1.465 . S
C377 C376 1.396 . S
C377 C378 1.399 . S
C378 H364 0.929 . S
C378 C377 1.399 . S
C378 C379 1.385 . S
C379 H365 0.931 . S
C379 C378 1.385 . S
C379 C380 1.389 . S
C380 C379 1.389 . S
C380 C381 1.387 . S
C381 H366 0.930 1_455 S
C381 C376 1.390 . S
C381 C380 1.387 . S
H382 C394 0.930 . S
H383 C396 0.930 . S
H384 C397 0.930 . S
H385 C401 0.959 . S
H386 C401 0.959 . S
H387 C401 0.961 . S
H388 C402 0.960 . S
H389 C402 0.961 . S
H390 C402 0.959 . S
H391 C405 0.929 . S
H392 C406 0.931 . S
H393 C408 0.930 1_545 S
C394 H382 0.930 . S
C394 C395 1.399 . S
C394 C399 1.399 . S
C395 C394 1.399 . S
C395 C396 1.376 . S
C396 H383 0.930 . S
C396 C395 1.376 . S
C396 C397 1.388 1_554 S
C397 H384 0.930 . S
C397 C396 1.388 1_556 S
C397 C398 1.390 . S
C398 C397 1.390 . S
C398 C399 1.394 1_556 S
C398 C404 1.465 . S
C399 C394 1.399 . S
C399 C398 1.394 1_554 S
C399 C400 1.516 . S
C400 C399 1.516 . S
C400 C401 1.502 . S
C400 C402 1.561 . S
C400 C403 1.526 1_554 S
C401 H385 0.959 . S
C401 H386 0.959 . S
C401 H387 0.961 . S
C401 C400 1.502 . S
C402 H388 0.960 . S
C402 H389 0.961 . S
C402 H390 0.959 . S
C402 C400 1.561 . S
C403 C400 1.526 1_556 S
C403 C404 1.396 . S
C403 C408 1.390 . S
C404 C398 1.465 . S
C404 C403 1.396 . S
C404 C405 1.399 . S
C405 H391 0.929 . S
C405 C404 1.399 . S
C405 C406 1.385 . S
C406 H392 0.931 . S
C406 C405 1.385 . S
C406 C407 1.389 . S
C407 C406 1.389 . S
C407 C408 1.387 . S
C408 H393 0.930 1_565 S
C408 C403 1.390 . S
C408 C407 1.387 . S
H409 C421 0.930 . S
H410 C423 0.930 . S
H411 C424 0.930 . S
H412 C428 0.959 . S
H413 C428 0.959 . S
H414 C428 0.961 . S
H415 C429 0.960 . S
H416 C429 0.961 . S
H417 C429 0.959 . S
H418 C432 0.929 . S
H419 C433 0.941 . S
H420 C435 0.930 . S
C421 H409 0.930 . S
C421 C422 1.399 . S
C421 C426 1.399 . S
C422 C421 1.399 . S
C422 C423 1.376 . S
C423 H410 0.930 . S
C423 C422 1.376 . S
C423 C424 1.388 . S
C424 H411 0.930 . S
C424 C423 1.388 . S
C424 C425 1.390 . S
C425 C424 1.390 . S
C425 C426 1.394 . S
C425 C431 1.465 1_556 S
C426 C421 1.399 . S
C426 C425 1.394 . S
C426 C427 1.516 1_556 S
C427 C426 1.516 1_554 S
C427 C428 1.502 . S
C427 C429 1.561 1_554 S
C427 C430 1.526 . S
C428 H412 0.959 . S
C428 H413 0.959 . S
C428 H414 0.961 . S
C428 C427 1.502 . S
C429 H415 0.960 . S
C429 H416 0.961 . S
C429 H417 0.959 . S
C429 C427 1.561 1_556 S
C430 C427 1.526 . S
C430 C431 1.396 . S
C430 C435 1.390 . S
C431 C425 1.465 1_554 S
C431 C430 1.396 . S
C431 C432 1.399 . S
C432 H418 0.929 . S
C432 C431 1.399 . S
C432 C433 1.377 1_655 S
C433 H419 0.941 . S
C433 C432 1.377 1_455 S
C433 C434 1.388 1_455 S
C434 C433 1.388 1_655 S
C434 C435 1.387 . S
C435 H420 0.930 . S
C435 C430 1.390 . S
C435 C434 1.387 . S
H436 C448 0.930 . S
H437 C450 0.930 . S
H438 C451 0.930 . S
H439 C455 0.959 . S
H440 C455 0.959 . S
H441 C455 0.961 . S
H442 C456 0.960 . S
H443 C456 0.961 . S
H444 C456 0.959 . S
H445 C459 0.929 . S
H446 C460 0.931 . S
H447 C462 0.930 . S
C448 H436 0.930 . S
C448 C449 1.399 . S
C448 C453 1.399 . S
C449 C448 1.399 . S
C449 C450 1.376 . S
C450 H437 0.930 . S
C450 C449 1.376 . S
C450 C451 1.388 . S
C451 H438 0.930 . S
C451 C450 1.388 . S
C451 C452 1.390 . S
C452 C451 1.390 . S
C452 C453 1.394 . S
C452 C458 1.465 . S
C453 C448 1.399 . S
C453 C452 1.394 . S
C453 C454 1.516 . S
C454 C453 1.516 . S
C454 C455 1.502 . S
C454 C456 1.561 . S
C454 C457 1.526 . S
C455 H439 0.959 . S
C455 H440 0.959 . S
C455 H441 0.961 . S
C455 C454 1.502 . S
C456 H442 0.960 . S
C456 H443 0.961 . S
C456 H444 0.959 . S
C456 C454 1.561 . S
C457 C454 1.526 . S
C457 C458 1.396 . S
C457 C462 1.390 . S
C458 C452 1.465 . S
C458 C457 1.396 . S
C458 C459 1.399 . S
C459 H445 0.929 . S
C459 C458 1.399 . S
C459 C460 1.385 . S
C460 H446 0.931 . S
C460 C459 1.385 . S
C460 C461 1.389 . S
C461 C460 1.389 . S
C461 C462 1.387 . S
C462 H447 0.930 . S
C462 C457 1.390 . S
C462 C461 1.387 . S
H463 C475 0.930 . S
H464 C477 0.930 . S
H465 C478 0.930 . S
H466 C482 0.959 . S
H467 C482 0.959 . S
H468 C482 0.961 . S
H469 C483 0.960 . S
H470 C483 0.961 . S
H471 C483 0.959 . S
H472 C486 0.929 . S
H473 C487 0.931 . S
H474 C489 0.930 . S
C475 H463 0.930 . S
C475 C476 1.399 . S
C475 C480 1.399 . S
C476 C475 1.399 . S
C476 C477 1.376 . S
C477 H464 0.930 . S
C477 C476 1.376 . S
C477 C478 1.388 . S
C478 H465 0.930 . S
C478 C477 1.388 . S
C478 C479 1.390 . S
C479 C478 1.390 . S
C479 C480 1.394 . S
C479 C485 1.465 . S
C480 C475 1.399 . S
C480 C479 1.394 . S
C480 C481 1.516 . S
C481 C480 1.516 . S
C481 C482 1.502 . S
C481 C483 1.561 . S
C481 C484 1.526 . S
C482 H466 0.959 . S
C482 H467 0.959 . S
C482 H468 0.961 . S
C482 C481 1.502 . S
C483 H469 0.960 . S
C483 H470 0.961 . S
C483 H471 0.959 . S
C483 C481 1.561 . S
C484 C481 1.526 . S
C484 C485 1.396 . S
C484 C489 1.390 . S
C485 C479 1.465 . S
C485 C484 1.396 . S
C485 C486 1.399 . S
C486 H472 0.929 . S
C486 C485 1.399 . S
C486 C487 1.385 . S
C487 H473 0.931 . S
C487 C486 1.385 . S
C487 C488 1.389 . S
C488 C487 1.389 . S
C488 C489 1.387 . S
C489 H474 0.930 . S
C489 C484 1.390 . S
C489 C488 1.387 . S
H490 C502 0.930 . S
H491 C504 0.930 . S
H492 C505 0.930 . S
H493 C509 0.959 . S
H494 C509 0.959 . S
H495 C509 0.961 . S
H496 C510 0.960 . S
H497 C510 0.961 . S
H498 C510 0.959 . S
H499 C513 0.929 . S
H500 C514 0.931 . S
H501 C516 0.930 . S
C502 H490 0.930 . S
C502 C503 1.399 . S
C502 C507 1.399 . S
C503 C502 1.399 . S
C503 C504 1.376 . S
C504 H491 0.930 . S
C504 C503 1.376 . S
C504 C505 1.388 . S
C505 H492 0.930 . S
C505 C504 1.388 . S
C505 C506 1.390 . S
C506 C505 1.390 . S
C506 C507 1.394 . S
C506 C512 1.465 . S
C507 C502 1.399 . S
C507 C506 1.394 . S
C507 C508 1.516 . S
C508 C507 1.516 . S
C508 C509 1.502 . S
C508 C510 1.561 . S
C508 C511 1.526 . S
C509 H493 0.959 . S
C509 H494 0.959 . S
C509 H495 0.961 . S
C509 C508 1.502 . S
C510 H496 0.960 . S
C510 H497 0.961 . S
C510 H498 0.959 . S
C510 C508 1.561 . S
C511 C508 1.526 . S
C511 C512 1.396 . S
C511 C516 1.390 . S
C512 C506 1.465 . S
C512 C511 1.396 . S
C512 C513 1.399 . S
C513 H499 0.929 . S
C513 C512 1.399 . S
C513 C514 1.385 . S
C514 H500 0.931 . S
C514 C513 1.385 . S
C514 C515 1.389 . S
C515 C514 1.389 . S
C515 C516 1.387 . S
C516 H501 0.930 . S
C516 C511 1.390 . S
C516 C515 1.387 . S
H517 C529 0.930 . S
H518 C531 0.930 . S
H519 C532 0.930 . S
H520 C536 0.959 . S
H521 C536 0.959 . S
H522 C536 0.961 . S
H523 C537 0.960 . S
H524 C537 0.961 . S
H525 C537 0.959 . S
H526 C540 0.929 . S
H527 C541 0.931 . S
H528 C543 0.930 . S
C529 H517 0.930 . S
C529 C530 1.399 . S
C529 C534 1.399 . S
C530 C529 1.399 . S
C530 C531 1.376 . S
C531 H518 0.930 . S
C531 C530 1.376 . S
C531 C532 1.388 . S
C532 H519 0.930 . S
C532 C531 1.388 . S
C532 C533 1.390 . S
C533 C532 1.390 . S
C533 C534 1.394 . S
C533 C539 1.465 . S
C534 C529 1.399 . S
C534 C533 1.394 . S
C534 C535 1.516 . S
C535 C534 1.516 . S
C535 C536 1.502 . S
C535 C537 1.561 . S
C535 C538 1.526 . S
C536 H520 0.959 . S
C536 H521 0.959 . S
C536 H522 0.961 . S
C536 C535 1.502 . S
C537 H523 0.960 . S
C537 H524 0.961 . S
C537 H525 0.959 . S
C537 C535 1.561 . S
C538 C535 1.526 . S
C538 C539 1.396 . S
C538 C543 1.390 . S
C539 C533 1.465 . S
C539 C538 1.396 . S
C539 C540 1.399 . S
C540 H526 0.929 . S
C540 C539 1.399 . S
C540 C541 1.385 . S
C541 H527 0.931 . S
C541 C540 1.385 . S
C541 C542 1.389 . S
C542 C541 1.389 . S
C542 C543 1.387 . S
C543 H528 0.930 . S
C543 C538 1.390 . S
C543 C542 1.387 . S
C125 C39 1.443 . S
C137 C11 1.429 . S
C152 C53 1.519 . S
C164 C25 1.480 . S
C179 C67 1.510 . S
C191 C95 1.485 . S
C206 C81 1.423 . S
C218 C109 1.453 . S
C233 C23 1.103 1_545 S
C245 C5 1.105 . S
C260 C19 1.156 . S
C272 C28 1.165 1_455 S
C287 C51 1.119 1_565 S
C299 C33 1.043 . S
C314 C47 1.100 . S
C326 C0 1.146 1_655 S
C341 C98 1.147 1_545 S
C353 C61 1.109 . S
C368 C75 1.074 . S
C380 C65 1.118 1_455 S
C395 C89 1.161 . S
C407 C70 1.166 1_565 S
C422 C103 1.040 . S
C434 C93 1.105 1_655 S
C449 C9 1.684 . S
C461 C79 1.679 . S
C476 C84 1.644 . S
C488 C14 1.678 . S
C503 C37 1.672 . S
C515 C107 1.687 . S
C530 C42 1.667 . S
C542 C56 1.680 . S
