# Generated by pormake.
# Topology sxa, (6)-cn, num edge types: 1
# Building blocks:
#     Node 0, Type 0, BuildingBlock: PAMTUU_clean_sbu_0, # of connection points: 6
#     Node 1, Type 0, BuildingBlock: PAMTUU_clean_sbu_0, # of connection points: 6
#     Node 2, Type 0, BuildingBlock: PAMTUU_clean_sbu_0, # of connection points: 6
#     Node 3, Type 0, BuildingBlock: PAMTUU_clean_sbu_0, # of connection points: 6
#     Edge 4, Type (0, 0), BuildingBlock: ZUJKAS_clean_linker_0, # of connection points: 2
#     Edge 5, Type (0, 0), BuildingBlock: ZUJKAS_clean_linker_0, # of connection points: 2
#     Edge 6, Type (0, 0), BuildingBlock: ZUJKAS_clean_linker_0, # of connection points: 2
#     Edge 7, Type (0, 0), BuildingBlock: ZUJKAS_clean_linker_0, # of connection points: 2
#     Edge 8, Type (0, 0), BuildingBlock: ZUJKAS_clean_linker_0, # of connection points: 2
#     Edge 9, Type (0, 0), BuildingBlock: ZUJKAS_clean_linker_0, # of connection points: 2
#     Edge 10, Type (0, 0), BuildingBlock: ZUJKAS_clean_linker_0, # of connection points: 2
#     Edge 11, Type (0, 0), BuildingBlock: ZUJKAS_clean_linker_0, # of connection points: 2
#     Edge 12, Type (0, 0), BuildingBlock: ZUJKAS_clean_linker_0, # of connection points: 2
#     Edge 13, Type (0, 0), BuildingBlock: ZUJKAS_clean_linker_0, # of connection points: 2
#     Edge 14, Type (0, 0), BuildingBlock: ZUJKAS_clean_linker_0, # of connection points: 2
#     Edge 15, Type (0, 0), BuildingBlock: ZUJKAS_clean_linker_0, # of connection points: 2
# Relax obj value: 0.170
# Max RMSD: 0.258
# Mean RMSD: 0.258
data_MOF--net-sxa--node1-PAMTUU_clean_sbu_0--edge1-ZUJKAS_clean_linker_0
_symmetry_space_group_name_H-M    P1
_symmetry_Int_Tables_number       1
_symmetry_cell_setting            triclinic
loop_
_symmetry_equiv_pos_as_xyz
'x, y, z'
_cell_length_a     43.775813
_cell_length_b     35.560697
_cell_length_c     19.963565
_cell_angle_alpha  93.837605
_cell_angle_beta   60.459901
_cell_angle_gamma 99.925126
loop_
_atom_site_label
_atom_site_type_symbol
_atom_site_fract_x
_atom_site_fract_y
_atom_site_fract_z
_atom_type_partial_charge
Tb0 Tb 0.07698 0.78203 0.10418 0.0
Tb1 Tb 0.08651 0.79185 0.2576 0.0
C2 C 0.07246 0.71145 0.19172 0.0
C3 C 0.05321 0.80478 0.9627 0.0
C4 C 1.01507 0.84821 0.92662 0.0
C5 C 0.03402 0.82102 0.8749 0.0
C6 C 0.05283 0.79933 0.89306 0.0
C7 C 0.03604 0.83321 1.01249 0.0
C8 C 1.01705 0.85465 0.9948 0.0
C9 C 0.07012 0.78009 0.98569 0.0
O10 O 0.02751 0.79872 0.19643 0.0
O11 O 0.02937 0.7791 0.30198 0.0
O12 O 0.07306 0.84599 0.23952 0.0
O13 O 0.09826 0.84083 0.10916 0.0
O14 O 0.08249 0.76888 0.35689 0.0
O15 O 0.10678 0.82716 0.32037 0.0
O16 O 0.1377 0.80617 0.15598 0.0
O17 O 0.12798 0.76519 0.07308 0.0
O18 O 0.05694 0.7272 0.16198 0.0
O19 O 0.09232 0.73255 0.21742 0.0
C20 C 1.01163 0.78868 0.26997 0.0
O21 O 0.09858 0.79677 0.98754 0.0
O22 O 0.04858 0.7592 0.04745 0.0
C23 C 0.08636 0.86155 0.17062 0.0
C24 C 0.12971 0.7957 0.38321 0.0
C25 C 0.18362 0.78951 0.42078 0.0
C26 C 0.17029 0.82399 0.43043 0.0
C27 C 0.14371 0.82695 0.41215 0.0
C28 C 0.14326 0.7613 0.3722 0.0
C29 C 0.16987 0.75827 0.39074 0.0
C30 C 0.1004 0.7997 0.36775 0.0
C31 C 0.1497 0.78559 0.09414 0.0
H32 H 0.03353 0.81579 0.82135 0.0
H33 H 0.0663 0.77771 0.85373 0.0
H34 H 0.03632 0.83791 0.0664 0.0
H35 H 1.00246 0.87486 0.03656 0.0
H36 H 0.18052 0.84896 0.45182 0.0
H37 H 0.13386 0.85383 0.42114 0.0
H38 H 0.13307 0.73661 0.35006 0.0
H39 H 0.17909 0.73112 0.38305 0.0
Tb40 Tb 0.57173 0.27383 0.11082 0.0
Tb41 Tb 0.58481 0.29079 0.25866 0.0
C42 C 0.56733 0.20981 0.2053 0.0
C43 C 0.5286 0.23436 0.99951 0.0
C44 C 0.46597 0.19839 1.00037 0.0
C45 C 0.49694 0.21039 0.93043 0.0
C46 C 0.52807 0.22832 0.93008 0.0
C47 C 0.49823 0.22132 0.06907 0.0
C48 C 0.46717 0.20353 0.06955 0.0
C49 C 0.56023 0.25521 1.00045 0.0
O50 O 0.52091 0.28714 0.20381 0.0
O51 O 0.52714 0.28079 0.31096 0.0
O52 O 0.57255 0.34343 0.23047 0.0
O53 O 0.59566 0.33285 0.10132 0.0
O54 O 0.58198 0.26899 0.35782 0.0
O55 O 0.6061 0.327 0.31831 0.0
O56 O 0.63558 0.30639 0.15786 0.0
O57 O 0.62653 0.2662 0.07266 0.0
O58 O 0.54697 0.2261 0.19032 0.0
O59 O 0.59168 0.23186 0.21682 0.0
C60 C 0.50753 0.2843 0.27916 0.0
O61 O 0.55651 0.28852 0.03276 0.0
O62 O 0.57569 0.23524 0.02384 0.0
C63 C 0.58513 0.3561 0.15935 0.0
C64 C 0.63065 0.2955 0.37875 0.0
C65 C 0.68555 0.29002 0.41376 0.0
C66 C 0.69137 0.31562 0.35616 0.0
C67 C 0.66439 0.31823 0.33866 0.0
C68 C 0.6249 0.26971 0.43572 0.0
C69 C 0.65195 0.26687 0.45278 0.0
C70 C 0.60062 0.29999 0.36586 0.0
C71 C 0.64782 0.28778 0.09356 0.0
H72 H 0.49691 0.20653 0.87619 0.0
H73 H 0.55145 0.23809 0.87591 0.0
H74 H 0.49829 0.22581 0.12324 0.0
H75 H 0.44369 0.19532 0.1245 0.0
H76 H 0.71688 0.33369 0.32427 0.0
H77 H 0.66992 0.33846 0.29436 0.0
H78 H 0.59914 0.25211 0.46823 0.0
H79 H 0.64612 0.24723 0.49825 0.0
Tb80 Tb 0.0537 0.2671 0.79119 0.0
Tb81 Tb 0.06444 0.27491 0.94314 0.0
C82 C 0.05406 0.19617 0.87485 0.0
C83 C 1.00856 0.26682 0.67042 0.0
C84 C 0.95408 0.27321 0.63471 0.0
C85 C 0.94783 0.24759 0.69266 0.0
C86 C 0.97459 0.24454 0.71052 0.0
C87 C 1.01472 0.29275 0.61329 0.0
C88 C 0.98786 0.29604 0.59589 0.0
C89 C 0.03844 0.26143 0.68307 0.0
O90 O 1.00306 0.25203 0.89361 0.0
O91 O 1.01346 0.29231 0.97644 0.0
O92 O 0.08422 0.33032 0.88775 0.0
O93 O 0.04826 0.32608 0.83389 0.0
O94 O 0.04267 0.26069 0.06004 0.0
O95 O 0.09437 0.29508 0.9979 0.0
O96 O 0.11336 0.25816 0.84899 0.0
O97 O 0.11094 0.27924 0.74516 0.0
O98 O 0.06696 0.21226 0.80655 0.0
O99 O 0.04272 0.21645 0.93697 0.0
C100 C 0.9914 0.27223 0.95596 0.0
O101 O 0.05681 0.29177 0.69401 0.0
O102 O 0.03283 0.23324 0.72827 0.0
C103 C 0.06844 0.34665 0.85943 0.0
C104 C 0.08763 0.24867 0.08338 0.0
C105 C 0.12823 0.20317 0.10664 0.0
C106 C 0.12157 0.23818 0.1443 0.0
C107 C 0.10145 0.2608 0.13257 0.0
C108 C 0.09237 0.21275 0.04933 0.0
C109 C 0.11239 0.19009 0.06115 0.0
C110 C 0.07203 0.27506 0.06037 0.0
C111 C 0.12891 0.26883 0.77584 0.0
H112 H 0.92215 0.2298 0.72449 0.0
H113 H 0.96875 0.22425 0.755 0.0
H114 H 0.04066 0.31001 0.58081 0.0
H115 H 0.99398 0.31572 0.55023 0.0
H116 H 0.13384 0.24932 0.17876 0.0
H117 H 0.09822 0.28856 0.15875 0.0
H118 H 0.08199 0.20299 1.01078 0.0
H119 H 0.11682 0.16313 0.03195 0.0
Tb120 Tb 0.55453 0.76912 0.79017 0.0
Tb121 Tb 0.57154 0.79012 0.93202 0.0
C122 C 0.55437 0.70652 0.89498 0.0
C123 C 0.50706 0.75972 0.67233 0.0
C124 C 0.4525 0.76523 0.63642 0.0
C125 C 0.46596 0.73083 0.62688 0.0
C126 C 0.49286 0.7282 0.64439 0.0
C127 C 0.49328 0.79397 0.68355 0.0
C128 C 0.46635 0.79667 0.66583 0.0
C129 C 0.53704 0.75629 0.68589 0.0
O130 O 0.50438 0.75696 0.89445 0.0
O131 O 0.51643 0.79824 0.9749 0.0
O132 O 0.59519 0.83527 0.84662 0.0
O133 O 0.54847 0.82876 0.82726 0.0
O134 O 0.58933 0.77803 1.00725 0.0
O135 O 0.57154 0.8317 1.01163 0.0
O136 O 0.62053 0.77346 0.83848 0.0
O137 O 0.61246 0.77853 0.73358 0.0
O138 O 0.56601 0.71725 0.82305 0.0
O139 O 0.5459 0.73141 0.95021 0.0
C140 C 0.49382 0.77681 0.9573 0.0
O141 O 0.55655 0.78762 0.68981 0.0
O142 O 0.53081 0.73095 0.73716 0.0
C143 C 0.5737 0.85127 0.83492 0.0
C144 C 0.62235 0.83335 0.02311 0.0
C145 C 0.69002 0.86749 0.99852 0.0
C146 C 0.6625 0.856 0.07321 0.0
C147 C 0.62883 0.83889 0.08537 0.0
C148 C 0.64937 0.84598 0.94908 0.0
C149 C 0.68289 0.86293 0.93688 0.0
C150 C 0.58831 0.81273 0.03329 0.0
C151 C 0.6329 0.77524 0.76344 0.0
H152 H 0.45565 0.70572 0.60599 0.0
H153 H 0.50288 0.70142 0.63532 0.0
H154 H 0.50361 0.81884 0.70503 0.0
H155 H 0.45702 0.82376 0.67347 0.0
H156 H 0.66741 0.85884 0.12159 0.0
H157 H 0.60822 0.82915 0.14279 0.0
H158 H 0.64475 0.84193 0.90032 0.0
H159 H 0.70345 0.87186 0.87891 0.0
H160 H 1.01274 0.38701 0.92092 0.0
H161 H 1.01297 0.45079 0.97711 0.0
H162 H 0.12618 0.46206 0.88769 0.0
H163 H 0.12597 0.39894 0.83188 0.0
H164 H 0.03373 0.46709 0.08958 0.0
H165 H 0.11657 0.56758 0.84128 0.0
H166 H 0.097 0.51997 0.8314 0.0
H167 H 0.13728 0.5275 0.83741 0.0
C168 C 0.03783 0.40391 0.91042 0.0
C169 C 0.06941 0.38827 0.8712 0.0
C170 C 0.03791 0.44012 0.94336 0.0
C171 C 0.06965 0.46142 0.93642 0.0
C172 C 0.10148 0.44669 0.89282 0.0
H173 H 0.12823 0.67127 0.1309 0.0
H174 H 0.12799 0.60729 0.07557 0.0
C175 C 0.10134 0.41057 0.86071 0.0
C176 C 0.06932 0.49679 0.98125 0.0
H177 H 0.10714 0.59069 0.96398 0.0
C178 C 0.0495 0.49421 0.06206 0.0
C179 C 0.09034 0.53209 0.94558 0.0
C180 C 0.11125 0.53715 0.85913 0.0
C181 C 0.05054 0.52569 0.10801 0.0
C182 C 0.07156 0.56099 0.07234 0.0
C183 C 0.09137 0.56357 0.99153 0.0
C184 C 0.07124 0.59639 0.11713 0.0
C185 C 0.02964 0.52061 0.19446 0.0
C186 C 0.03938 0.61102 0.16106 0.0
C187 C 0.03952 0.64725 0.19276 0.0
C188 C 0.0715 0.66976 0.18146 0.0
C189 C 0.10312 0.65421 0.14206 0.0
C190 C 0.10303 0.61788 0.10959 0.0
H191 H 0.02449 0.4902 0.21225 0.0
H192 H 0.04381 0.53791 0.22223 0.0
H193 H 1.00353 0.53005 0.21617 0.0
H194 H 1.01463 0.59552 0.16664 0.0
H195 H 1.01486 0.65882 0.22167 0.0
H196 H 0.62941 0.39577 0.02577 0.0
H197 H 0.62324 0.45568 0.98466 0.0
H198 H 0.53319 0.466 0.20894 0.0
H199 H 0.53956 0.40569 0.25101 0.0
H200 H 0.56441 0.46705 0.9768 0.0
H201 H 0.59076 0.57383 0.16581 0.0
H202 H 0.60276 0.52674 0.15338 0.0
H203 H 0.55739 0.53331 0.21535 0.0
C204 C 0.60869 0.41113 0.06707 0.0
C205 C 0.58496 0.39595 0.14177 0.0
C206 C 0.60512 0.44537 0.04326 0.0
C207 C 0.57776 0.46546 0.09344 0.0
C208 C 0.55485 0.45133 0.16938 0.0
H209 H 0.51067 0.67033 0.033 0.0
H210 H 0.51499 0.61029 0.07754 0.0
C211 C 0.55855 0.41692 0.19355 0.0
C212 C 0.57215 0.49957 0.06373 0.0
H213 H 0.57104 0.59548 0.0864 0.0
C214 C 0.56591 0.49517 1.00072 0.0
C215 C 0.57406 0.53624 0.09485 0.0
C216 C 0.5819 0.54308 0.16065 0.0
C217 C 0.56112 0.52624 0.96865 0.0
C218 C 0.56329 0.56301 0.99938 0.0
C219 C 0.5694 0.56735 0.06262 0.0
C220 C 0.55863 0.59736 0.9683 0.0
C221 C 0.55298 0.51917 0.90329 0.0
C222 C 0.58112 0.60986 0.89111 0.0
C223 C 0.57836 0.64423 0.86496 0.0
C224 C 0.55345 0.66691 0.91597 0.0
C225 C 0.53023 0.65357 0.99224 0.0
C226 C 0.53275 0.61927 1.01798 0.0
H227 H 0.54253 0.48862 0.90089 0.0
H228 H 0.53324 0.53672 0.90869 0.0
H229 H 0.57778 0.52702 0.84797 0.0
H230 H 0.60176 0.5939 0.85186 0.0
H231 H 0.59697 0.65403 0.80629 0.0
H232 H 0.51512 0.88767 0.91158 0.0
H233 H 0.51348 0.94993 0.97419 0.0
H234 H 0.62762 0.96717 0.8739 0.0
H235 H 0.62935 0.9058 0.81119 0.0
H236 H 0.53638 0.96727 0.08213 0.0
H237 H 0.61199 0.0712 0.83804 0.0
H238 H 0.59417 1.02296 0.82689 0.0
H239 H 0.63529 0.03275 0.82952 0.0
C240 C 0.5399 0.90549 0.90053 0.0
C241 C 0.5724 0.89203 0.85574 0.0
C242 C 0.53895 0.94086 0.93704 0.0
C243 C 0.57049 0.96351 0.92842 0.0
C244 C 0.603 0.95081 0.88041 0.0
H245 H 0.62561 0.173 0.13017 0.0
H246 H 0.62701 0.1105 0.06846 0.0
C247 C 0.60394 0.91561 0.84447 0.0
C248 C 0.56957 0.99851 0.97468 0.0
H249 H 0.60404 0.09346 0.96027 0.0
C250 C 0.55089 0.99494 0.05544 0.0
C251 C 0.58892 0.03458 0.9401 0.0
C252 C 0.60845 0.04077 0.85389 0.0
C253 C 0.55148 1.02617 0.10231 0.0
C254 C 0.57086 0.06222 0.06771 0.0
C255 C 0.58953 0.06579 0.98696 0.0
C256 C 0.57001 0.09722 0.11391 0.0
C257 C 0.53189 1.02002 0.18853 0.0
C258 C 0.53757 0.11016 0.16151 0.0
C259 C 0.53677 0.14549 0.19692 0.0
C260 C 0.56837 0.16893 0.18563 0.0
C261 C 0.60078 0.15523 0.14138 0.0
C262 C 0.6016 0.11974 0.10534 0.0
H263 H 0.52816 0.98957 0.20449 0.0
H264 H 0.54625 0.03771 0.21549 0.0
H265 H 0.50514 1.02827 0.21282 0.0
H266 H 0.51292 0.09389 0.16796 0.0
H267 H 0.51144 0.15554 0.22973 0.0
H268 H 0.13898 0.9103 0.0615 0.0
H269 H 0.13305 0.96818 1.01255 0.0
H270 H 0.02438 0.95956 0.1958 0.0
H271 H 0.03046 0.90141 0.24564 0.0
H272 H 0.08448 0.96658 0.96013 0.0
H273 H 0.06315 0.07455 0.18704 0.0
H274 H 0.08186 0.03233 0.18233 0.0
H275 H 0.0348 1.02908 0.21996 0.0
C276 C 0.11423 0.92158 0.09314 0.0
C277 C 0.08534 0.90171 0.15805 0.0
C278 C 0.11077 0.95446 0.06463 0.0
C279 C 0.07829 0.96828 0.10022 0.0
C280 C 0.04989 0.9498 0.16794 0.0
H281 H 1.00103 0.14676 0.9815 0.0
H282 H 1.00681 0.08867 0.03013 0.0
C283 C 0.05343 0.91677 0.19689 0.0
C284 C 0.07358 0.9996 0.06177 0.0
H285 H 0.05549 0.09072 0.0837 0.0
C286 C 0.07825 0.99379 0.98707 0.0
C287 C 0.0654 0.03505 0.09686 0.0
C288 C 0.06128 0.04344 0.17571 0.0
C289 C 0.07455 1.02224 0.94702 0.0
C290 C 0.06641 0.05769 0.98208 0.0
C291 C 0.06172 0.0635 0.05679 0.0
C292 C 0.0618 0.08903 0.94354 0.0
C293 C 0.07864 1.01387 0.86821 0.0
C294 C 0.0904 0.10779 0.87645 0.0
C295 C 0.08696 0.14094 0.84769 0.0
C296 C 0.05493 0.1558 0.88604 0.0
C297 C 0.02585 0.13558 0.95014 0.0
C298 C 0.02922 0.10261 0.97851 0.0
H299 H 0.077 0.98279 0.85661 0.0
H300 H 0.05786 1.02476 0.86192 0.0
H301 H 0.10498 1.0285 0.82394 0.0
H302 H 0.11598 0.09819 0.84909 0.0
H303 H 0.11008 0.15659 0.79967 0.0
H304 H 0.4458 0.7325 0.51428 0.0
H305 H 0.40036 0.73683 0.47919 0.0
H306 H 0.35054 0.80924 0.67235 0.0
H307 H 0.39576 0.80479 0.70843 0.0
H308 H 0.32709 0.71548 0.56131 0.0
H309 H 0.36145 0.87101 0.49453 0.0
H310 H 0.39049 0.84463 0.50556 0.0
H311 H 0.35264 0.8589 0.589 0.0
C312 C 0.42508 0.74915 0.54993 0.0
C313 C 0.42468 0.76827 0.61452 0.0
C314 C 0.39913 0.75175 0.52937 0.0
C315 C 0.37216 0.77379 0.57228 0.0
C316 C 0.37145 0.79273 0.63708 0.0
H317 H 0.19013 0.82182 0.54343 0.0
H318 H 0.23557 0.8174 0.57845 0.0
C319 C 0.39742 0.79013 0.65775 0.0
C320 C 0.34456 0.77625 0.54983 0.0
H321 H 0.30894 0.83892 0.49592 0.0
C322 C 0.32325 0.74248 0.5467 0.0
C323 C 0.33939 0.81143 0.53067 0.0
C324 C 0.36238 0.84856 0.52932 0.0
C325 C 0.29664 0.74297 0.52653 0.0
C326 C 0.29147 0.77815 0.50741 0.0
C327 C 0.31278 0.81192 0.51052 0.0
C328 C 0.26384 0.78062 0.48506 0.0
C329 C 0.27367 0.70585 0.52782 0.0
C330 C 0.26457 0.76177 0.42015 0.0
C331 C 0.2386 0.76442 0.39953 0.0
C332 C 0.21132 0.78624 0.44291 0.0
C333 C 0.21087 0.80522 0.50767 0.0
C334 C 0.23682 0.80256 0.52818 0.0
H335 H 0.27466 0.68336 0.56244 0.0
H336 H 0.24555 0.70976 0.55175 0.0
H337 H 0.28336 0.69557 0.46811 0.0
H338 H 0.28552 0.74533 0.38475 0.0
H339 H 0.24028 0.74986 0.34875 0.0
H340 H 0.16853 0.28159 0.61995 0.0
H341 H 0.23239 0.28293 0.53758 0.0
H342 H 0.2417 0.2585 0.73485 0.0
H343 H 0.17752 0.25624 0.81777 0.0
H344 H 0.2872 0.32986 0.54091 0.0
H345 H 0.29447 0.18007 0.58543 0.0
H346 H 0.25284 0.19635 0.61538 0.0
H347 H 0.2743 0.20571 0.67322 0.0
C348 C 0.18402 0.27619 0.64602 0.0
C349 C 0.16772 0.26863 0.72568 0.0
C350 C 0.22063 0.27703 0.59867 0.0
C351 C 0.2419 0.2703 0.62961 0.0
C352 C 0.22579 0.2629 0.70917 0.0
H353 H 0.46951 0.27682 0.43658 0.0
H354 H 0.40551 0.27436 0.52033 0.0
C355 C 0.18906 0.26183 0.75666 0.0
C356 C 0.28103 0.27236 0.57871 0.0
H357 H 0.3495 0.22156 0.51722 0.0
C358 C 0.30077 0.30609 0.53551 0.0
C359 C 0.29882 0.24137 0.57153 0.0
C360 C 0.27902 0.20369 0.61325 0.0
C361 C 0.33775 0.30989 0.48635 0.0
C362 C 0.3555 0.27896 0.47941 0.0
C363 C 0.33585 0.24527 0.52269 0.0
C364 C 0.3945 0.28105 0.42783 0.0
C365 C 0.35765 0.34725 0.44337 0.0
C366 C 0.40965 0.28539 0.34772 0.0
C367 C 0.44634 0.28678 0.2994 0.0
C368 C 0.46867 0.28379 0.33024 0.0
C369 C 0.45329 0.27937 0.41061 0.0
C370 C 0.41663 0.27787 0.45874 0.0
H371 H 0.34183 0.37081 0.46849 0.0
H372 H 0.38327 0.35529 0.44356 0.0
H373 H 0.36363 0.34417 0.3826 0.0
H374 H 0.39301 0.28724 0.32243 0.0
H375 H 0.45711 0.28991 0.23786 0.0
H376 H 0.90623 0.21453 0.62558 0.0
H377 H 0.86141 0.21798 0.58788 0.0
H378 H 0.89281 0.34005 0.55783 0.0
H379 H 0.93763 0.3369 0.59574 0.0
H380 H 0.80368 0.25533 0.65084 0.0
H381 H 0.89782 0.31045 0.35335 0.0
H382 H 0.91228 0.29155 0.41282 0.0
H383 H 0.90232 0.33939 0.42612 0.0
C384 C 0.90351 0.24222 0.61158 0.0
C385 C 0.92591 0.27542 0.61345 0.0
C386 C 0.87789 0.24411 0.58956 0.0
C387 C 0.87401 0.27918 0.5684 0.0
C388 C 0.8958 0.31247 0.5717 0.0
H389 H 0.73337 0.34901 0.42232 0.0
H390 H 0.77842 0.34588 0.45958 0.0
C391 C 0.92148 0.31061 0.59359 0.0
C392 C 0.84684 0.28088 0.54417 0.0
H393 H 0.83644 0.30872 0.39658 0.0
C394 C 0.81091 0.26684 0.59507 0.0
C395 C 0.85607 0.29595 0.47141 0.0
C396 C 0.89424 0.30987 0.4124 0.0
C397 C 0.78406 0.2681 0.57602 0.0
C398 C 0.79328 0.28315 0.50324 0.0
C399 C 0.82921 0.29722 0.45236 0.0
C400 C 0.7661 0.28468 0.47895 0.0
C401 C 0.74589 0.25416 0.63502 0.0
C402 C 0.74445 0.25128 0.47564 0.0
C403 C 0.71865 0.25294 0.454 0.0
C404 C 0.71395 0.28806 0.43443 0.0
C405 C 0.73628 0.32137 0.43616 0.0
C406 C 0.76202 0.31967 0.45792 0.0
H407 H 0.7423 0.25365 0.69409 0.0
H408 H 0.72783 0.27242 0.63451 0.0
H409 H 0.73784 0.22461 0.62138 0.0
H410 H 0.74761 0.22376 0.48939 0.0
H411 H 0.7026 0.22656 0.4519 0.0
H412 H 0.97117 0.77624 0.42582 0.0
H413 H 0.90713 0.77391 0.50625 0.0
H414 H 0.89909 0.79758 0.307 0.0
H415 H 0.96358 0.80075 0.22578 0.0
H416 H 0.85953 0.8394 0.43176 0.0
H417 H 0.83095 0.6873 0.52003 0.0
H418 H 0.8634 0.71525 0.54082 0.0
H419 H 0.87329 0.70869 0.44236 0.0
C420 C 0.95591 0.78093 0.39875 0.0
C421 C 0.97266 0.7884 0.31897 0.0
C422 C 0.91914 0.77932 0.44496 0.0
C423 C 0.89807 0.78467 0.41257 0.0
C424 C 0.91473 0.79301 0.33326 0.0
H425 H 0.66959 0.78123 0.60556 0.0
H426 H 0.73351 0.78368 0.51977 0.0
C427 C 0.95164 0.7948 0.28687 0.0
C428 C 0.85878 0.78211 0.46187 0.0
H429 H 0.78382 0.72342 0.58912 0.0
C430 C 0.84295 0.81393 0.46565 0.0
C431 C 0.83705 0.74886 0.50621 0.0
C432 C 0.85195 0.71295 0.50172 0.0
C433 C 0.80624 0.81375 0.51395 0.0
C434 C 0.78467 0.7807 0.55902 0.0
C435 C 0.80041 0.7488 0.55483 0.0
C436 C 0.7457 0.77872 0.61112 0.0
C437 C 0.79095 0.84927 0.5179 0.0
C438 C 0.73111 0.77418 0.69099 0.0
C439 C 0.6945 0.77267 0.74038 0.0
C440 C 0.6716 0.77532 0.71084 0.0
C441 C 0.68631 0.77919 0.63055 0.0
C442 C 0.72294 0.78084 0.5813 0.0
H443 H 0.81199 0.87473 0.49352 0.0
H444 H 0.77665 0.84507 0.48433 0.0
H445 H 0.77162 0.85504 0.57832 0.0
H446 H 0.74816 0.77231 0.71526 0.0
H447 H 0.68425 0.76972 0.80177 0.0
H448 H 0.46047 0.83903 1.00993 0.0
H449 H 0.39887 0.84065 0.0416 0.0
H450 H 0.38048 0.71784 0.02989 0.0
H451 H 0.44161 0.71622 0.99832 0.0
H452 H 0.37977 0.81056 0.92812 0.0
H453 H 0.28654 0.74036 0.21392 0.0
H454 H 0.33142 0.7627 0.18757 0.0
H455 H 0.32338 0.71631 0.15238 0.0
C456 C 0.44266 0.81239 1.018 0.0
C457 C 0.45548 0.7775 1.00209 0.0
C458 C 0.40767 0.81332 0.03529 0.0
C459 C 0.38519 0.77933 0.03817 0.0
C460 C 0.39717 0.7443 0.02919 0.0
H461 H 0.18188 0.72223 0.04614 0.0
H462 H 0.24267 0.719 1.01892 0.0
C463 C 0.43207 0.7434 1.01118 0.0
C464 C 0.35175 0.78045 0.03759 0.0
H465 H 0.26249 0.74804 0.13295 0.0
C466 C 0.35404 0.79725 0.97325 0.0
C467 C 0.31848 0.76232 0.09572 0.0
C468 C 0.31458 0.74463 0.16669 0.0
C469 C 0.32383 0.79621 0.96529 0.0
C470 C 0.29053 0.77825 0.02359 0.0
C471 C 0.28824 0.7613 0.0878 0.0
C472 C 0.25714 0.78012 0.02337 0.0
C473 C 0.32778 0.81385 0.89423 0.0
C474 C 0.24587 0.81554 0.03208 0.0
C475 C 0.21148 0.81734 0.04764 0.0
C476 C 0.18786 0.78377 0.05448 0.0
C477 C 0.19992 0.74847 0.03979 0.0
C478 C 0.23439 0.74662 0.02502 0.0
H479 H 0.35579 0.81774 0.8468 0.0
H480 H 0.3107 0.79597 0.87373 0.0
H481 H 0.31936 0.84236 0.90821 0.0
H482 H 0.26278 0.84162 0.03228 0.0
H483 H 0.20253 0.84484 0.05956 0.0
H484 H 0.13827 0.18947 0.22751 0.0
H485 H 0.19193 0.17174 0.21811 0.0
H486 H 0.23443 0.15659 0.97375 0.0
H487 H 0.18119 0.17408 0.9825 0.0
H488 H 0.25388 0.10501 0.04621 0.0
H489 H 0.27836 0.25789 0.11509 0.0
H490 H 0.2379 0.23013 0.18597 0.0
H491 H 0.24353 0.23916 0.09273 0.0
C492 C 0.15871 0.18144 0.17218 0.0
C493 C 0.15578 0.18372 0.10559 0.0
C494 C 0.18923 0.17124 0.16695 0.0
C495 C 0.21729 0.16359 0.095 0.0
C496 C 0.21301 0.16239 0.02978 0.0
H497 H 0.43976 0.22543 0.91763 0.0
H498 H 0.37941 0.21006 0.93737 0.0
C499 C 0.18249 0.17236 0.03498 0.0
C500 C 0.25296 0.16301 0.08489 0.0
H501 H 0.323 0.22164 0.08632 0.0
C502 C 0.26896 0.13028 0.05573 0.0
C503 C 0.27265 0.19639 0.09604 0.0
C504 C 0.25748 0.23303 0.12357 0.0
C505 C 0.30444 0.13024 0.03675 0.0
C506 C 0.32401 0.1637 0.04761 0.0
C507 C 0.30777 0.19608 0.07805 0.0
C508 C 0.36187 0.16682 0.02563 0.0
C509 C 0.32116 0.09506 1.00285 0.0
C510 C 0.37218 0.14667 0.06714 0.0
C511 C 0.40685 0.15518 0.05552 0.0
C512 C 0.43156 0.18418 1.00268 0.0
C513 C 0.42159 0.20265 0.95807 0.0
C514 C 0.38703 0.19407 0.96959 0.0
H515 H 0.30444 0.07395 0.9859 0.0
H516 H 0.3478 0.10284 0.95159 0.0
H517 H 0.32482 0.08126 0.04608 0.0
H518 H 0.35297 0.12587 0.11129 0.0
H519 H 0.4139 0.14014 0.09007 0.0
H520 H 0.68391 0.22786 0.03164 0.0
H521 H 0.74526 0.22725 1.00329 0.0
H522 H 0.75877 0.34874 0.03719 0.0
H523 H 0.69784 0.34948 0.0657 0.0
H524 H 0.81831 0.27762 0.89936 0.0
H525 H 0.76156 0.2917 0.21658 0.0
H526 H 0.73423 0.27552 0.17265 0.0
H527 H 0.75184 0.32526 0.16885 0.0
C528 C 0.70059 0.25458 0.02949 0.0
C529 C 0.68639 0.28867 0.05106 0.0
C530 C 0.73539 0.25418 1.01406 0.0
C531 C 0.75597 0.28787 1.01982 0.0
C532 C 0.74299 0.32248 0.03342 0.0
H533 H 0.95983 0.33577 1.01084 0.0
H534 H 0.89982 0.34121 0.03562 0.0
C535 C 0.70836 0.32287 0.04916 0.0
C536 C 0.78904 0.28643 0.02126 0.0
H537 H 0.82371 0.2933 0.14279 0.0
C538 C 0.81958 0.28101 0.95238 0.0
C539 C 0.79032 0.29097 0.09088 0.0
C540 C 0.75774 0.29593 0.1667 0.0
C541 C 0.85173 0.28024 0.95123 0.0
C542 C 0.85295 0.28454 1.02091 0.0
C543 C 0.82248 0.29024 0.08969 0.0
C544 C 0.88539 0.28086 0.0231 0.0
C545 C 0.88423 0.27477 0.87566 0.0
C546 C 0.89581 0.24493 1.01275 0.0
C547 C 0.92963 0.24182 0.99897 0.0
C548 C 0.95339 0.27459 0.99584 0.0
C549 C 0.94174 0.31014 1.01388 0.0
C550 C 0.90773 0.31328 0.02728 0.0
H551 H 0.88062 0.2792 0.82557 0.0
H552 H 0.90795 0.29475 0.8698 0.0
H553 H 0.88961 0.24524 0.87396 0.0
H554 H 0.87864 0.21964 1.01022 0.0
H555 H 0.93817 0.21412 0.98517 0.0
H556 H 1.00031 0.9216 0.96007 0.0
H557 H 0.95032 0.94619 0.96451 0.0
H558 H 0.92366 0.8413 0.86995 0.0
H559 H 0.97222 0.81586 0.86806 0.0
H560 H 0.9206 0.92385 0.81499 0.0
H561 H 0.84492 0.883 0.12738 0.0
H562 H 0.88987 0.9085 0.0848 0.0
H563 H 0.88184 0.85958 0.06144 0.0
C564 C 0.98404 0.90392 0.9394 0.0
C565 C 0.99005 0.86652 0.9146 0.0
C566 C 0.95576 0.91818 0.94142 0.0
C567 C 0.93346 0.8954 0.91779 0.0
C568 C 0.94086 0.85929 0.88793 0.0
H569 H 0.75073 0.84539 0.88486 0.0
H570 H 0.81085 0.86385 0.86455 0.0
C571 C 0.96881 0.84489 0.88654 0.0
C572 C 0.89976 0.90645 0.93278 0.0
H573 H 0.8121 0.89393 0.06888 0.0
C574 C 0.89692 0.91832 0.87087 0.0
C575 C 0.86915 0.89953 1.00596 0.0
C576 C 0.87125 0.88694 0.0741 0.0
C577 C 0.86365 0.92125 0.87929 0.0
C578 C 0.83258 0.91077 0.95073 0.0
C579 C 0.83586 0.90177 1.01404 0.0
C580 C 0.79662 0.90357 0.95844 0.0
C581 C 0.8621 0.93439 0.81091 0.0
C582 C 0.76828 0.91895 1.01935 0.0
C583 C 0.73357 0.9079 0.03188 0.0
C584 C 0.72676 0.88136 0.98355 0.0
C585 C 0.75526 0.86653 0.92201 0.0
C586 C 0.78975 0.8773 0.90997 0.0
H587 H 0.88619 0.95517 0.77445 0.0
H588 H 0.86135 0.90949 0.77483 0.0
H589 H 0.83818 0.94786 0.82894 0.0
H590 H 0.77293 0.93888 0.05808 0.0
H591 H 0.71206 0.91982 0.07962 0.0
loop_
_geom_bond_atom_site_label_1
_geom_bond_atom_site_label_2
_geom_bond_distance
_geom_bond_site_symmetry_2
_ccdc_geom_bond_type
Tb0 C9 2.764 . S
Tb0 O10 2.325 1_455 S
Tb0 O13 2.303 . S
Tb0 O17 2.322 . S
Tb0 O18 2.349 . S
Tb0 O21 2.415 . S
Tb0 O22 2.399 . S
Tb1 O11 2.322 . S
Tb1 O12 2.349 . S
Tb1 O14 2.415 . S
Tb1 O15 2.399 . S
Tb1 O16 2.325 . S
Tb1 O19 2.303 . S
Tb1 C30 2.764 . S
C2 O18 1.261 . S
C2 O19 1.257 . S
C3 C6 1.358 1_554 S
C3 C7 1.332 . S
C3 C9 1.504 1_655 S
C4 C5 1.373 . S
C4 C8 1.308 1_556 S
C5 C4 1.373 . S
C5 C6 1.429 . S
C5 H32 0.932 . S
C6 C3 1.358 1_556 S
C6 C5 1.429 . S
C6 H33 0.930 . S
C7 C3 1.332 . S
C7 C8 1.394 . S
C7 H34 0.932 . S
C8 C4 1.308 1_554 S
C8 C7 1.394 . S
C8 H35 0.929 . S
C9 Tb0 2.764 . S
C9 C3 1.504 1_455 S
C9 O21 1.239 . S
C9 O22 1.263 . S
O10 Tb0 2.325 1_655 S
O10 C20 1.236 . S
O11 Tb1 2.322 . S
O11 C20 1.257 1_455 S
O12 Tb1 2.349 . S
O12 C23 1.261 . S
O13 Tb0 2.303 . S
O13 C23 1.257 . S
O14 Tb1 2.415 . S
O14 C30 1.239 . S
O15 Tb1 2.399 . S
O15 C30 1.263 . S
O16 Tb1 2.325 . S
O16 C31 1.236 . S
O17 Tb0 2.322 . S
O17 C31 1.257 . S
O18 Tb0 2.349 . S
O18 C2 1.261 . S
O19 Tb1 2.303 . S
O19 C2 1.257 . S
C20 O10 1.236 . S
C20 O11 1.257 1_655 S
O21 Tb0 2.415 . S
O21 C9 1.239 . S
O22 Tb0 2.399 . S
O22 C9 1.263 . S
C23 O12 1.261 . S
C23 O13 1.257 . S
C24 C27 1.358 . S
C24 C28 1.332 . S
C24 C30 1.504 . S
C25 C26 1.373 . S
C25 C29 1.308 . S
C26 C25 1.373 . S
C26 C27 1.429 . S
C26 H36 0.932 . S
C27 C24 1.358 . S
C27 C26 1.429 . S
C27 H37 0.930 . S
C28 C24 1.332 . S
C28 C29 1.394 . S
C28 H38 0.932 . S
C29 C25 1.308 . S
C29 C28 1.394 . S
C29 H39 0.929 . S
C30 Tb1 2.764 . S
C30 O14 1.239 . S
C30 O15 1.263 . S
C30 C24 1.504 . S
C31 O16 1.236 . S
C31 O17 1.257 . S
H32 C5 0.932 . S
H33 C6 0.930 . S
H34 C7 0.932 . S
H35 C8 0.929 . S
H36 C26 0.932 . S
H37 C27 0.930 . S
H38 C28 0.932 . S
H39 C29 0.929 . S
Tb40 C49 2.764 . S
Tb40 O50 2.325 . S
Tb40 O53 2.303 . S
Tb40 O57 2.322 . S
Tb40 O58 2.349 . S
Tb40 O61 2.415 . S
Tb40 O62 2.399 . S
Tb41 O51 2.322 . S
Tb41 O52 2.349 . S
Tb41 O54 2.415 . S
Tb41 O55 2.399 . S
Tb41 O56 2.325 . S
Tb41 O59 2.303 . S
Tb41 C70 2.764 . S
C42 O58 1.261 . S
C42 O59 1.257 . S
C43 C46 1.358 1_554 S
C43 C47 1.332 . S
C43 C49 1.504 . S
C44 C45 1.373 . S
C44 C48 1.308 1_556 S
C45 C44 1.373 . S
C45 C46 1.429 . S
C45 H72 0.932 . S
C46 C43 1.358 1_556 S
C46 C45 1.429 . S
C46 H73 0.930 . S
C47 C43 1.332 . S
C47 C48 1.394 . S
C47 H74 0.932 . S
C48 C44 1.308 1_554 S
C48 C47 1.394 . S
C48 H75 0.929 . S
C49 Tb40 2.764 . S
C49 C43 1.504 . S
C49 O61 1.239 . S
C49 O62 1.263 . S
O50 Tb40 2.325 . S
O50 C60 1.236 . S
O51 Tb41 2.322 . S
O51 C60 1.257 . S
O52 Tb41 2.349 . S
O52 C63 1.261 . S
O53 Tb40 2.303 . S
O53 C63 1.257 . S
O54 Tb41 2.415 . S
O54 C70 1.239 . S
O55 Tb41 2.399 . S
O55 C70 1.263 . S
O56 Tb41 2.325 . S
O56 C71 1.236 . S
O57 Tb40 2.322 . S
O57 C71 1.257 . S
O58 Tb40 2.349 . S
O58 C42 1.261 . S
O59 Tb41 2.303 . S
O59 C42 1.257 . S
C60 O50 1.236 . S
C60 O51 1.257 . S
O61 Tb40 2.415 . S
O61 C49 1.239 . S
O62 Tb40 2.399 . S
O62 C49 1.263 . S
C63 O52 1.261 . S
C63 O53 1.257 . S
C64 C67 1.358 . S
C64 C68 1.332 . S
C64 C70 1.504 . S
C65 C66 1.373 . S
C65 C69 1.308 . S
C66 C65 1.373 . S
C66 C67 1.429 . S
C66 H76 0.932 . S
C67 C64 1.358 . S
C67 C66 1.429 . S
C67 H77 0.930 . S
C68 C64 1.332 . S
C68 C69 1.394 . S
C68 H78 0.932 . S
C69 C65 1.308 . S
C69 C68 1.394 . S
C69 H79 0.929 . S
C70 Tb41 2.764 . S
C70 O54 1.239 . S
C70 O55 1.263 . S
C70 C64 1.504 . S
C71 O56 1.236 . S
C71 O57 1.257 . S
H72 C45 0.932 . S
H73 C46 0.930 . S
H74 C47 0.932 . S
H75 C48 0.929 . S
H76 C66 0.932 . S
H77 C67 0.930 . S
H78 C68 0.932 . S
H79 C69 0.929 . S
Tb80 C89 2.764 1_455 S
Tb80 O90 2.325 1_455 S
Tb80 O93 2.303 . S
Tb80 O97 2.322 . S
Tb80 O98 2.349 . S
Tb80 O101 2.415 . S
Tb80 O102 2.399 . S
Tb81 O91 2.322 1_455 S
Tb81 O92 2.349 . S
Tb81 O94 2.415 . S
Tb81 O95 2.399 . S
Tb81 O96 2.325 . S
Tb81 O99 2.303 . S
Tb81 C110 2.764 . S
C82 O98 1.261 . S
C82 O99 1.257 . S
C83 C86 1.358 . S
C83 C87 1.332 . S
C83 C89 1.504 . S
C84 C85 1.373 . S
C84 C88 1.308 . S
C85 C84 1.373 . S
C85 C86 1.429 . S
C85 H112 0.932 . S
C86 C83 1.358 . S
C86 C85 1.429 . S
C86 H113 0.930 . S
C87 C83 1.332 . S
C87 C88 1.394 . S
C87 H114 0.932 . S
C88 C84 1.308 . S
C88 C87 1.394 . S
C88 H115 0.929 . S
C89 Tb80 2.764 1_655 S
C89 C83 1.504 . S
C89 O101 1.239 1_655 S
C89 O102 1.263 1_655 S
O90 Tb80 2.325 1_655 S
O90 C100 1.236 . S
O91 Tb81 2.322 1_655 S
O91 C100 1.257 . S
O92 Tb81 2.349 . S
O92 C103 1.261 . S
O93 Tb80 2.303 . S
O93 C103 1.257 . S
O94 Tb81 2.415 . S
O94 C110 1.239 . S
O95 Tb81 2.399 . S
O95 C110 1.263 . S
O96 Tb81 2.325 . S
O96 C111 1.236 . S
O97 Tb80 2.322 . S
O97 C111 1.257 . S
O98 Tb80 2.349 . S
O98 C82 1.261 . S
O99 Tb81 2.303 . S
O99 C82 1.257 . S
C100 O90 1.236 . S
C100 O91 1.257 . S
O101 Tb80 2.415 . S
O101 C89 1.239 1_455 S
O102 Tb80 2.399 . S
O102 C89 1.263 1_455 S
C103 O92 1.261 . S
C103 O93 1.257 . S
C104 C107 1.358 1_556 S
C104 C108 1.332 . S
C104 C110 1.504 . S
C105 C106 1.373 . S
C105 C109 1.308 1_554 S
C106 C105 1.373 . S
C106 C107 1.429 . S
C106 H116 0.932 . S
C107 C104 1.358 1_554 S
C107 C106 1.429 . S
C107 H117 0.930 . S
C108 C104 1.332 . S
C108 C109 1.394 . S
C108 H118 0.932 . S
C109 C105 1.308 1_556 S
C109 C108 1.394 . S
C109 H119 0.929 . S
C110 Tb81 2.764 . S
C110 O94 1.239 . S
C110 O95 1.263 . S
C110 C104 1.504 . S
C111 O96 1.236 . S
C111 O97 1.257 . S
H112 C85 0.932 . S
H113 C86 0.930 . S
H114 C87 0.932 . S
H115 C88 0.929 . S
H116 C106 0.932 . S
H117 C107 0.930 . S
H118 C108 0.932 . S
H119 C109 0.929 . S
Tb120 C129 2.764 . S
Tb120 O130 2.325 . S
Tb120 O133 2.303 . S
Tb120 O137 2.322 . S
Tb120 O138 2.349 . S
Tb120 O141 2.415 . S
Tb120 O142 2.399 . S
Tb121 O131 2.322 . S
Tb121 O132 2.349 . S
Tb121 O134 2.415 . S
Tb121 O135 2.399 . S
Tb121 O136 2.325 . S
Tb121 O139 2.303 . S
Tb121 C150 2.764 . S
C122 O138 1.261 . S
C122 O139 1.257 . S
C123 C126 1.358 . S
C123 C127 1.332 . S
C123 C129 1.504 . S
C124 C125 1.373 . S
C124 C128 1.308 . S
C125 C124 1.373 . S
C125 C126 1.429 . S
C125 H152 0.932 . S
C126 C123 1.358 . S
C126 C125 1.429 . S
C126 H153 0.930 . S
C127 C123 1.332 . S
C127 C128 1.394 . S
C127 H154 0.932 . S
C128 C124 1.308 . S
C128 C127 1.394 . S
C128 H155 0.929 . S
C129 Tb120 2.764 . S
C129 C123 1.504 . S
C129 O141 1.239 . S
C129 O142 1.263 . S
O130 Tb120 2.325 . S
O130 C140 1.236 . S
O131 Tb121 2.322 . S
O131 C140 1.257 . S
O132 Tb121 2.349 . S
O132 C143 1.261 . S
O133 Tb120 2.303 . S
O133 C143 1.257 . S
O134 Tb121 2.415 . S
O134 C150 1.239 . S
O135 Tb121 2.399 . S
O135 C150 1.263 . S
O136 Tb121 2.325 . S
O136 C151 1.236 . S
O137 Tb120 2.322 . S
O137 C151 1.257 . S
O138 Tb120 2.349 . S
O138 C122 1.261 . S
O139 Tb121 2.303 . S
O139 C122 1.257 . S
C140 O130 1.236 . S
C140 O131 1.257 . S
O141 Tb120 2.415 . S
O141 C129 1.239 . S
O142 Tb120 2.399 . S
O142 C129 1.263 . S
C143 O132 1.261 . S
C143 O133 1.257 . S
C144 C147 1.358 1_556 S
C144 C148 1.332 . S
C144 C150 1.504 . S
C145 C146 1.373 . S
C145 C149 1.308 1_554 S
C146 C145 1.373 . S
C146 C147 1.429 . S
C146 H156 0.932 . S
C147 C144 1.358 1_554 S
C147 C146 1.429 . S
C147 H157 0.930 . S
C148 C144 1.332 . S
C148 C149 1.394 . S
C148 H158 0.932 . S
C149 C145 1.308 1_556 S
C149 C148 1.394 . S
C149 H159 0.929 . S
C150 Tb121 2.764 . S
C150 O134 1.239 . S
C150 O135 1.263 . S
C150 C144 1.504 . S
C151 O136 1.236 . S
C151 O137 1.257 . S
H152 C125 0.932 . S
H153 C126 0.930 . S
H154 C127 0.932 . S
H155 C128 0.929 . S
H156 C146 0.932 . S
H157 C147 0.930 . S
H158 C148 0.932 . S
H159 C149 0.929 . S
H160 C168 0.929 1_655 S
H161 C170 0.914 1_654 S
H162 C172 0.930 . S
H163 C175 0.929 . S
H164 C178 0.930 . S
H165 C180 0.960 . S
H166 C180 0.960 . S
H167 C180 0.960 . S
C168 H160 0.929 1_455 S
C168 C169 1.377 . S
C168 C170 1.384 . S
C169 C168 1.377 . S
C169 C175 1.390 . S
C170 H161 0.914 1_456 S
C170 C168 1.384 . S
C170 C171 1.372 . S
C171 C170 1.372 . S
C171 C172 1.400 . S
C171 C176 1.490 . S
C172 H162 0.930 . S
C172 C171 1.400 . S
C172 C175 1.386 . S
H173 C189 0.930 . S
H174 C190 0.931 . S
C175 H163 0.929 . S
C175 C169 1.390 . S
C175 C172 1.386 . S
C176 C171 1.490 . S
C176 C178 1.395 1_556 S
C176 C179 1.403 . S
H177 C183 0.930 . S
C178 H164 0.930 . S
C178 C176 1.395 1_554 S
C178 C181 1.403 . S
C179 C176 1.403 . S
C179 C180 1.524 . S
C179 C183 1.400 . S
C180 H165 0.960 . S
C180 H166 0.960 . S
C180 H167 0.960 . S
C180 C179 1.524 . S
C181 C178 1.403 . S
C181 C182 1.392 . S
C181 C185 1.495 . S
C182 C181 1.392 . S
C182 C183 1.385 1_554 S
C182 C184 1.478 . S
C183 H177 0.930 . S
C183 C179 1.400 . S
C183 C182 1.385 1_556 S
C184 C182 1.478 . S
C184 C186 1.381 . S
C184 C190 1.383 . S
C185 C181 1.495 . S
C185 H191 0.959 . S
C185 H192 0.961 . S
C185 H193 0.960 . S
C186 C184 1.381 . S
C186 C187 1.394 . S
C186 H194 0.930 . S
C187 C186 1.394 . S
C187 C188 1.383 . S
C187 H195 0.929 . S
C188 C187 1.383 . S
C188 C189 1.377 . S
C189 H173 0.930 . S
C189 C188 1.377 . S
C189 C190 1.379 . S
C190 H174 0.931 . S
C190 C184 1.383 . S
C190 C189 1.379 . S
H191 C185 0.959 . S
H192 C185 0.961 . S
H193 C185 0.960 . S
H194 C186 0.930 . S
H195 C187 0.929 . S
H196 C204 0.929 . S
H197 C206 0.930 1_556 S
H198 C208 0.930 . S
H199 C211 0.929 . S
H200 C214 0.930 . S
H201 C216 0.960 . S
H202 C216 0.960 . S
H203 C216 0.960 . S
C204 H196 0.929 . S
C204 C205 1.377 . S
C204 C206 1.384 . S
C205 C204 1.377 . S
C205 C211 1.390 . S
C206 H197 0.930 1_554 S
C206 C204 1.384 . S
C206 C207 1.372 . S
C207 C206 1.372 . S
C207 C208 1.400 . S
C207 C212 1.490 . S
C208 H198 0.930 . S
C208 C207 1.400 . S
C208 C211 1.386 . S
H209 C225 0.930 . S
H210 C226 0.931 1_554 S
C211 H199 0.929 . S
C211 C205 1.390 . S
C211 C208 1.386 . S
C212 C207 1.490 . S
C212 C214 1.395 1_554 S
C212 C215 1.403 . S
H213 C219 0.930 . S
C214 H200 0.930 . S
C214 C212 1.395 1_556 S
C214 C217 1.403 . S
C215 C212 1.403 . S
C215 C216 1.524 . S
C215 C219 1.400 . S
C216 H201 0.960 . S
C216 H202 0.960 . S
C216 H203 0.960 . S
C216 C215 1.524 . S
C217 C214 1.403 . S
C217 C218 1.392 . S
C217 C221 1.495 . S
C218 C217 1.392 . S
C218 C219 1.385 1_556 S
C218 C220 1.478 . S
C219 H213 0.930 . S
C219 C215 1.400 . S
C219 C218 1.385 1_554 S
C220 C218 1.478 . S
C220 C222 1.381 . S
C220 C226 1.383 . S
C221 C217 1.495 . S
C221 H227 0.959 . S
C221 H228 0.961 . S
C221 H229 0.960 . S
C222 C220 1.381 . S
C222 C223 1.394 . S
C222 H230 0.930 . S
C223 C222 1.394 . S
C223 C224 1.383 . S
C223 H231 0.929 . S
C224 C223 1.383 . S
C224 C225 1.377 . S
C225 H209 0.930 . S
C225 C224 1.377 . S
C225 C226 1.379 . S
C226 H210 0.931 1_556 S
C226 C220 1.383 . S
C226 C225 1.379 . S
H227 C221 0.959 . S
H228 C221 0.961 . S
H229 C221 0.960 . S
H230 C222 0.930 . S
H231 C223 0.929 . S
H232 C240 0.929 . S
H233 C242 0.930 . S
H234 C244 0.930 . S
H235 C247 0.929 . S
H236 C250 0.930 . S
H237 C252 0.960 1_545 S
H238 C252 0.960 . S
H239 C252 0.960 . S
C240 H232 0.929 . S
C240 C241 1.377 . S
C240 C242 1.384 . S
C241 C240 1.377 . S
C241 C247 1.390 . S
C242 H233 0.930 . S
C242 C240 1.384 . S
C242 C243 1.372 . S
C243 C242 1.372 . S
C243 C244 1.400 . S
C243 C248 1.490 . S
C244 H234 0.930 . S
C244 C243 1.400 . S
C244 C247 1.386 . S
H245 C261 0.930 . S
H246 C262 0.931 . S
C247 H235 0.929 . S
C247 C241 1.390 . S
C247 C244 1.386 . S
C248 C243 1.490 . S
C248 C250 1.395 1_556 S
C248 C251 1.403 . S
H249 C255 0.930 . S
C250 H236 0.930 . S
C250 C248 1.395 1_554 S
C250 C253 1.403 1_565 S
C251 C248 1.403 . S
C251 C252 1.524 . S
C251 C255 1.400 1_565 S
C252 H237 0.960 1_565 S
C252 H238 0.960 . S
C252 H239 0.960 . S
C252 C251 1.524 . S
C253 C250 1.403 1_545 S
C253 C254 1.392 . S
C253 C257 1.495 . S
C254 C253 1.392 . S
C254 C255 1.385 1_554 S
C254 C256 1.478 . S
C255 H249 0.930 . S
C255 C251 1.400 1_545 S
C255 C254 1.385 1_556 S
C256 C254 1.478 . S
C256 C258 1.381 . S
C256 C262 1.383 . S
C257 C253 1.495 . S
C257 H263 0.959 1_545 S
C257 H264 0.961 . S
C257 H265 0.960 . S
C258 C256 1.381 . S
C258 C259 1.394 . S
C258 H266 0.930 . S
C259 C258 1.394 . S
C259 C260 1.383 . S
C259 H267 0.929 . S
C260 C259 1.383 . S
C260 C261 1.377 . S
C261 H245 0.930 . S
C261 C260 1.377 . S
C261 C262 1.379 . S
C262 H246 0.931 . S
C262 C256 1.383 . S
C262 C261 1.379 . S
H263 C257 0.959 1_565 S
H264 C257 0.961 . S
H265 C257 0.960 . S
H266 C258 0.930 . S
H267 C259 0.929 . S
H268 C276 0.929 . S
H269 C278 0.930 . S
H270 C280 0.930 . S
H271 C283 0.929 . S
H272 C286 0.930 . S
H273 C288 0.960 1_645 S
H274 C288 0.960 . S
H275 C288 0.960 1_655 S
C276 H268 0.929 . S
C276 C277 1.377 . S
C276 C278 1.384 . S
C277 C276 1.377 . S
C277 C283 1.390 . S
C278 H269 0.930 . S
C278 C276 1.384 . S
C278 C279 1.372 . S
C279 C278 1.372 . S
C279 C280 1.400 . S
C279 C284 1.490 . S
C280 H270 0.930 . S
C280 C279 1.400 . S
C280 C283 1.386 . S
H281 C297 0.930 . S
H282 C298 0.931 . S
C283 H271 0.929 . S
C283 C277 1.390 . S
C283 C280 1.386 . S
C284 C279 1.490 . S
C284 C286 1.395 1_554 S
C284 C287 1.403 . S
H285 C291 0.930 . S
C286 H272 0.930 . S
C286 C284 1.395 1_556 S
C286 C289 1.403 1_565 S
C287 C284 1.403 . S
C287 C288 1.524 . S
C287 C291 1.400 1_565 S
C288 H273 0.960 1_465 S
C288 H274 0.960 . S
C288 H275 0.960 1_455 S
C288 C287 1.524 . S
C289 C286 1.403 1_545 S
C289 C290 1.392 . S
C289 C293 1.495 . S
C290 C289 1.392 . S
C290 C291 1.385 1_556 S
C290 C292 1.478 . S
C291 H285 0.930 . S
C291 C287 1.400 1_545 S
C291 C290 1.385 1_554 S
C292 C290 1.478 . S
C292 C294 1.381 . S
C292 C298 1.383 . S
C293 C289 1.495 . S
C293 H299 0.959 1_545 S
C293 H300 0.961 . S
C293 H301 0.960 . S
C294 C292 1.381 . S
C294 C295 1.394 . S
C294 H302 0.930 . S
C295 C294 1.394 . S
C295 C296 1.383 . S
C295 H303 0.929 . S
C296 C295 1.383 . S
C296 C297 1.377 . S
C297 H281 0.930 . S
C297 C296 1.377 . S
C297 C298 1.379 . S
C298 H282 0.931 . S
C298 C292 1.383 . S
C298 C297 1.379 . S
H299 C293 0.959 1_565 S
H300 C293 0.961 . S
H301 C293 0.960 . S
H302 C294 0.930 . S
H303 C295 0.929 . S
H304 C312 0.929 . S
H305 C314 0.930 . S
H306 C316 0.930 . S
H307 C319 0.929 . S
H308 C322 0.930 . S
H309 C324 0.960 . S
H310 C324 0.960 . S
H311 C324 0.960 . S
C312 H304 0.929 . S
C312 C313 1.377 . S
C312 C314 1.384 . S
C313 C312 1.377 . S
C313 C319 1.390 . S
C314 H305 0.930 . S
C314 C312 1.384 . S
C314 C315 1.372 . S
C315 C314 1.372 . S
C315 C316 1.400 . S
C315 C320 1.490 . S
C316 H306 0.930 . S
C316 C315 1.400 . S
C316 C319 1.386 . S
H317 C333 0.930 . S
H318 C334 0.931 . S
C319 H307 0.929 . S
C319 C313 1.390 . S
C319 C316 1.386 . S
C320 C315 1.490 . S
C320 C322 1.395 . S
C320 C323 1.403 . S
H321 C327 0.930 . S
C322 H308 0.930 . S
C322 C320 1.395 . S
C322 C325 1.403 . S
C323 C320 1.403 . S
C323 C324 1.524 . S
C323 C327 1.400 . S
C324 H309 0.960 . S
C324 H310 0.960 . S
C324 H311 0.960 . S
C324 C323 1.524 . S
C325 C322 1.403 . S
C325 C326 1.392 . S
C325 C329 1.495 . S
C326 C325 1.392 . S
C326 C327 1.385 . S
C326 C328 1.478 . S
C327 H321 0.930 . S
C327 C323 1.400 . S
C327 C326 1.385 . S
C328 C326 1.478 . S
C328 C330 1.381 . S
C328 C334 1.383 . S
C329 C325 1.495 . S
C329 H335 0.959 . S
C329 H336 0.961 . S
C329 H337 0.960 . S
C330 C328 1.381 . S
C330 C331 1.394 . S
C330 H338 0.930 . S
C331 C330 1.394 . S
C331 C332 1.383 . S
C331 H339 0.929 . S
C332 C331 1.383 . S
C332 C333 1.377 . S
C333 H317 0.930 . S
C333 C332 1.377 . S
C333 C334 1.379 . S
C334 H318 0.931 . S
C334 C328 1.383 . S
C334 C333 1.379 . S
H335 C329 0.959 . S
H336 C329 0.961 . S
H337 C329 0.960 . S
H338 C330 0.930 . S
H339 C331 0.929 . S
H340 C348 0.929 . S
H341 C350 0.930 . S
H342 C352 0.930 . S
H343 C355 0.929 . S
H344 C358 0.930 . S
H345 C360 0.960 . S
H346 C360 0.960 . S
H347 C360 0.960 . S
C348 H340 0.929 . S
C348 C349 1.377 . S
C348 C350 1.384 . S
C349 C348 1.377 . S
C349 C355 1.390 . S
C350 H341 0.930 . S
C350 C348 1.384 . S
C350 C351 1.372 . S
C351 C350 1.372 . S
C351 C352 1.400 . S
C351 C356 1.490 . S
C352 H342 0.930 . S
C352 C351 1.400 . S
C352 C355 1.386 . S
H353 C369 0.930 . S
H354 C370 0.931 . S
C355 H343 0.929 . S
C355 C349 1.390 . S
C355 C352 1.386 . S
C356 C351 1.490 . S
C356 C358 1.395 . S
C356 C359 1.403 . S
H357 C363 0.930 . S
C358 H344 0.930 . S
C358 C356 1.395 . S
C358 C361 1.403 . S
C359 C356 1.403 . S
C359 C360 1.524 . S
C359 C363 1.400 . S
C360 H345 0.960 . S
C360 H346 0.960 . S
C360 H347 0.960 . S
C360 C359 1.524 . S
C361 C358 1.403 . S
C361 C362 1.392 . S
C361 C365 1.495 . S
C362 C361 1.392 . S
C362 C363 1.385 . S
C362 C364 1.478 . S
C363 H357 0.930 . S
C363 C359 1.400 . S
C363 C362 1.385 . S
C364 C362 1.478 . S
C364 C366 1.381 . S
C364 C370 1.383 . S
C365 C361 1.495 . S
C365 H371 0.959 . S
C365 H372 0.961 . S
C365 H373 0.960 . S
C366 C364 1.381 . S
C366 C367 1.394 . S
C366 H374 0.930 . S
C367 C366 1.394 . S
C367 C368 1.383 . S
C367 H375 0.929 . S
C368 C367 1.383 . S
C368 C369 1.377 . S
C369 H353 0.930 . S
C369 C368 1.377 . S
C369 C370 1.379 . S
C370 H354 0.931 . S
C370 C364 1.383 . S
C370 C369 1.379 . S
H371 C365 0.959 . S
H372 C365 0.961 . S
H373 C365 0.960 . S
H374 C366 0.930 . S
H375 C367 0.929 . S
H376 C384 0.929 . S
H377 C386 0.930 . S
H378 C388 0.930 . S
H379 C391 0.929 . S
H380 C394 0.930 . S
H381 C396 0.960 . S
H382 C396 0.960 . S
H383 C396 0.960 . S
C384 H376 0.929 . S
C384 C385 1.377 . S
C384 C386 1.384 . S
C385 C384 1.377 . S
C385 C391 1.390 . S
C386 H377 0.930 . S
C386 C384 1.384 . S
C386 C387 1.372 . S
C387 C386 1.372 . S
C387 C388 1.400 . S
C387 C392 1.490 . S
C388 H378 0.930 . S
C388 C387 1.400 . S
C388 C391 1.386 . S
H389 C405 0.930 . S
H390 C406 0.931 . S
C391 H379 0.929 . S
C391 C385 1.390 . S
C391 C388 1.386 . S
C392 C387 1.490 . S
C392 C394 1.395 . S
C392 C395 1.403 . S
H393 C399 0.930 . S
C394 H380 0.930 . S
C394 C392 1.395 . S
C394 C397 1.403 . S
C395 C392 1.403 . S
C395 C396 1.524 . S
C395 C399 1.400 . S
C396 H381 0.960 . S
C396 H382 0.960 . S
C396 H383 0.960 . S
C396 C395 1.524 . S
C397 C394 1.403 . S
C397 C398 1.392 . S
C397 C401 1.495 . S
C398 C397 1.392 . S
C398 C399 1.385 . S
C398 C400 1.478 . S
C399 H393 0.930 . S
C399 C395 1.400 . S
C399 C398 1.385 . S
C400 C398 1.478 . S
C400 C402 1.381 . S
C400 C406 1.383 . S
C401 C397 1.495 . S
C401 H407 0.959 . S
C401 H408 0.961 . S
C401 H409 0.960 . S
C402 C400 1.381 . S
C402 C403 1.394 . S
C402 H410 0.930 . S
C403 C402 1.394 . S
C403 C404 1.383 . S
C403 H411 0.929 . S
C404 C403 1.383 . S
C404 C405 1.377 . S
C405 H389 0.930 . S
C405 C404 1.377 . S
C405 C406 1.379 . S
C406 H390 0.931 . S
C406 C400 1.383 . S
C406 C405 1.379 . S
H407 C401 0.959 . S
H408 C401 0.961 . S
H409 C401 0.960 . S
H410 C402 0.930 . S
H411 C403 0.929 . S
H412 C420 0.929 . S
H413 C422 0.930 . S
H414 C424 0.930 . S
H415 C427 0.929 . S
H416 C430 0.930 . S
H417 C432 0.960 . S
H418 C432 0.960 . S
H419 C432 0.960 . S
C420 H412 0.929 . S
C420 C421 1.377 . S
C420 C422 1.384 . S
C421 C420 1.377 . S
C421 C427 1.390 . S
C422 H413 0.930 . S
C422 C420 1.384 . S
C422 C423 1.372 . S
C423 C422 1.372 . S
C423 C424 1.400 . S
C423 C428 1.490 . S
C424 H414 0.930 . S
C424 C423 1.400 . S
C424 C427 1.386 . S
H425 C441 0.930 . S
H426 C442 0.931 . S
C427 H415 0.929 . S
C427 C421 1.390 . S
C427 C424 1.386 . S
C428 C423 1.490 . S
C428 C430 1.395 . S
C428 C431 1.403 . S
H429 C435 0.930 . S
C430 H416 0.930 . S
C430 C428 1.395 . S
C430 C433 1.403 . S
C431 C428 1.403 . S
C431 C432 1.524 . S
C431 C435 1.400 . S
C432 H417 0.960 . S
C432 H418 0.960 . S
C432 H419 0.960 . S
C432 C431 1.524 . S
C433 C430 1.403 . S
C433 C434 1.392 . S
C433 C437 1.495 . S
C434 C433 1.392 . S
C434 C435 1.385 . S
C434 C436 1.478 . S
C435 H429 0.930 . S
C435 C431 1.400 . S
C435 C434 1.385 . S
C436 C434 1.478 . S
C436 C438 1.381 . S
C436 C442 1.383 . S
C437 C433 1.495 . S
C437 H443 0.959 . S
C437 H444 0.961 . S
C437 H445 0.960 . S
C438 C436 1.381 . S
C438 C439 1.394 . S
C438 H446 0.930 . S
C439 C438 1.394 . S
C439 C440 1.383 . S
C439 H447 0.929 . S
C440 C439 1.383 . S
C440 C441 1.377 . S
C441 H425 0.930 . S
C441 C440 1.377 . S
C441 C442 1.379 . S
C442 H426 0.931 . S
C442 C436 1.383 . S
C442 C441 1.379 . S
H443 C437 0.959 . S
H444 C437 0.961 . S
H445 C437 0.960 . S
H446 C438 0.930 . S
H447 C439 0.929 . S
H448 C456 0.929 . S
H449 C458 0.930 . S
H450 C460 0.930 . S
H451 C463 0.929 . S
H452 C466 0.930 . S
H453 C468 0.960 1_554 S
H454 C468 0.960 1_554 S
H455 C468 0.960 . S
C456 H448 0.929 . S
C456 C457 1.377 1_554 S
C456 C458 1.384 . S
C457 C456 1.377 1_556 S
C457 C463 1.390 . S
C458 H449 0.930 . S
C458 C456 1.384 . S
C458 C459 1.372 1_554 S
C459 C458 1.372 1_556 S
C459 C460 1.400 . S
C459 C464 1.490 . S
C460 H450 0.930 . S
C460 C459 1.400 . S
C460 C463 1.386 . S
H461 C477 0.930 . S
H462 C478 0.931 . S
C463 H451 0.929 . S
C463 C457 1.390 . S
C463 C460 1.386 . S
C464 C459 1.490 . S
C464 C466 1.395 . S
C464 C467 1.403 . S
H465 C471 0.930 . S
C466 H452 0.930 . S
C466 C464 1.395 . S
C466 C469 1.403 1_556 S
C467 C464 1.403 . S
C467 C468 1.524 . S
C467 C471 1.400 1_556 S
C468 H453 0.960 1_556 S
C468 H454 0.960 1_556 S
C468 H455 0.960 . S
C468 C467 1.524 . S
C469 C466 1.403 1_554 S
C469 C470 1.392 . S
C469 C473 1.495 . S
C470 C469 1.392 . S
C470 C471 1.385 . S
C470 C472 1.478 . S
C471 H465 0.930 . S
C471 C467 1.400 1_554 S
C471 C470 1.385 . S
C472 C470 1.478 . S
C472 C474 1.381 . S
C472 C478 1.383 1_554 S
C473 C469 1.495 . S
C473 H479 0.959 . S
C473 H480 0.961 1_554 S
C473 H481 0.960 . S
C474 C472 1.381 . S
C474 C475 1.394 . S
C474 H482 0.930 . S
C475 C474 1.394 . S
C475 C476 1.383 . S
C475 H483 0.929 . S
C476 C475 1.383 . S
C476 C477 1.377 1_554 S
C477 H461 0.930 . S
C477 C476 1.377 1_556 S
C477 C478 1.379 . S
C478 H462 0.931 . S
C478 C472 1.383 1_556 S
C478 C477 1.379 . S
H479 C473 0.959 . S
H480 C473 0.961 1_556 S
H481 C473 0.960 . S
H482 C474 0.930 . S
H483 C475 0.929 . S
H484 C492 0.929 . S
H485 C494 0.930 . S
H486 C496 0.930 . S
H487 C499 0.929 . S
H488 C502 0.930 . S
H489 C504 0.960 . S
H490 C504 0.960 1_554 S
H491 C504 0.960 . S
C492 H484 0.929 . S
C492 C493 1.377 . S
C492 C494 1.384 . S
C493 C492 1.377 . S
C493 C499 1.390 1_554 S
C494 H485 0.930 . S
C494 C492 1.384 . S
C494 C495 1.372 . S
C495 C494 1.372 . S
C495 C496 1.400 1_554 S
C495 C500 1.490 . S
C496 H486 0.930 . S
C496 C495 1.400 1_556 S
C496 C499 1.386 . S
H497 C513 0.930 . S
H498 C514 0.931 . S
C499 H487 0.929 . S
C499 C493 1.390 1_556 S
C499 C496 1.386 . S
C500 C495 1.490 . S
C500 C502 1.395 . S
C500 C503 1.403 1_554 S
H501 C507 0.930 . S
C502 H488 0.930 . S
C502 C500 1.395 . S
C502 C505 1.403 . S
C503 C500 1.403 1_556 S
C503 C504 1.524 . S
C503 C507 1.400 . S
C504 H489 0.960 . S
C504 H490 0.960 1_556 S
C504 H491 0.960 . S
C504 C503 1.524 . S
C505 C502 1.403 . S
C505 C506 1.392 1_554 S
C505 C509 1.495 . S
C506 C505 1.392 1_556 S
C506 C507 1.385 . S
C506 C508 1.478 . S
C507 H501 0.930 . S
C507 C503 1.400 . S
C507 C506 1.385 . S
C508 C506 1.478 . S
C508 C510 1.381 1_556 S
C508 C514 1.383 . S
C509 C505 1.495 . S
C509 H515 0.959 . S
C509 H516 0.961 1_554 S
C509 H517 0.960 . S
C510 C508 1.381 1_554 S
C510 C511 1.394 . S
C510 H518 0.930 . S
C511 C510 1.394 . S
C511 C512 1.383 1_554 S
C511 H519 0.929 . S
C512 C511 1.383 1_556 S
C512 C513 1.377 . S
C513 H497 0.930 . S
C513 C512 1.377 . S
C513 C514 1.379 . S
C514 H498 0.931 . S
C514 C508 1.383 . S
C514 C513 1.379 . S
H515 C509 0.959 . S
H516 C509 0.961 1_556 S
H517 C509 0.960 . S
H518 C510 0.930 . S
H519 C511 0.929 . S
H520 C528 0.929 . S
H521 C530 0.930 . S
H522 C532 0.930 . S
H523 C535 0.929 1_556 S
H524 C538 0.930 . S
H525 C540 0.960 . S
H526 C540 0.960 . S
H527 C540 0.960 . S
C528 H520 0.929 . S
C528 C529 1.377 . S
C528 C530 1.384 . S
C529 C528 1.377 . S
C529 C535 1.390 . S
C530 H521 0.930 . S
C530 C528 1.384 . S
C530 C531 1.372 . S
C531 C530 1.372 . S
C531 C532 1.400 1_554 S
C531 C536 1.490 . S
C532 H522 0.930 . S
C532 C531 1.400 1_556 S
C532 C535 1.386 1_556 S
H533 C549 0.930 . S
H534 C550 0.931 . S
C535 H523 0.929 1_554 S
C535 C529 1.390 . S
C535 C532 1.386 1_554 S
C536 C531 1.490 . S
C536 C538 1.395 1_554 S
C536 C539 1.403 . S
H537 C543 0.930 . S
C538 H524 0.930 . S
C538 C536 1.395 1_556 S
C538 C541 1.403 . S
C539 C536 1.403 . S
C539 C540 1.524 . S
C539 C543 1.400 . S
C540 H525 0.960 . S
C540 H526 0.960 . S
C540 H527 0.960 . S
C540 C539 1.524 . S
C541 C538 1.403 . S
C541 C542 1.392 . S
C541 C545 1.495 . S
C542 C541 1.392 . S
C542 C543 1.385 1_556 S
C542 C544 1.478 . S
C543 H537 0.930 . S
C543 C539 1.400 . S
C543 C542 1.385 1_554 S
C544 C542 1.478 . S
C544 C546 1.381 1_556 S
C544 C550 1.383 . S
C545 C541 1.495 . S
C545 H551 0.959 . S
C545 H552 0.961 . S
C545 H553 0.960 . S
C546 C544 1.381 1_554 S
C546 C547 1.394 . S
C546 H554 0.930 . S
C547 C546 1.394 . S
C547 C548 1.383 1_554 S
C547 H555 0.929 . S
C548 C547 1.383 1_556 S
C548 C549 1.377 . S
C549 H533 0.930 . S
C549 C548 1.377 . S
C549 C550 1.379 . S
C550 H534 0.931 . S
C550 C544 1.383 . S
C550 C549 1.379 . S
H551 C545 0.959 . S
H552 C545 0.961 . S
H553 C545 0.960 . S
H554 C546 0.930 . S
H555 C547 0.929 . S
H556 C564 0.929 . S
H557 C566 0.930 . S
H558 C568 0.930 . S
H559 C571 0.929 1_554 S
H560 C574 0.930 . S
H561 C576 0.960 . S
H562 C576 0.960 . S
H563 C576 0.960 . S
C564 H556 0.929 . S
C564 C565 1.377 . S
C564 C566 1.384 . S
C565 C564 1.377 . S
C565 C571 1.390 . S
C566 H557 0.930 . S
C566 C564 1.384 . S
C566 C567 1.372 . S
C567 C566 1.372 . S
C567 C568 1.400 1_556 S
C567 C572 1.490 . S
C568 H558 0.930 . S
C568 C567 1.400 1_554 S
C568 C571 1.386 1_554 S
H569 C585 0.930 . S
H570 C586 0.931 . S
C571 H559 0.929 1_556 S
C571 C565 1.390 . S
C571 C568 1.386 1_556 S
C572 C567 1.490 . S
C572 C574 1.395 . S
C572 C575 1.403 1_556 S
H573 C579 0.930 . S
C574 H560 0.930 . S
C574 C572 1.395 . S
C574 C577 1.403 . S
C575 C572 1.403 1_554 S
C575 C576 1.524 . S
C575 C579 1.400 . S
C576 H561 0.960 . S
C576 H562 0.960 . S
C576 H563 0.960 . S
C576 C575 1.524 . S
C577 C574 1.403 . S
C577 C578 1.401 . S
C577 C581 1.495 . S
C578 C577 1.401 . S
C578 C579 1.370 1_556 S
C578 C580 1.483 1_556 S
C579 H573 0.930 . S
C579 C575 1.400 . S
C579 C578 1.370 1_554 S
C580 C578 1.483 1_554 S
C580 C582 1.381 1_554 S
C580 C586 1.383 . S
C581 C577 1.495 . S
C581 H587 0.959 . S
C581 H588 0.961 . S
C581 H589 0.960 . S
C582 C580 1.381 1_556 S
C582 C583 1.394 1_556 S
C582 H590 0.930 . S
C583 C582 1.394 1_554 S
C583 C584 1.383 . S
C583 H591 0.929 1_554 S
C584 C583 1.383 . S
C584 C585 1.377 . S
C585 H569 0.930 . S
C585 C584 1.377 . S
C585 C586 1.379 . S
C586 H570 0.931 . S
C586 C580 1.383 . S
C586 C585 1.379 . S
H587 C581 0.959 . S
H588 C581 0.961 . S
H589 C581 0.960 . S
H590 C582 0.930 . S
H591 C583 0.929 1_556 S
C169 C103 1.890 . S
C188 C2 1.913 . S
C205 C63 2.472 . S
C224 C122 2.470 . S
C241 C143 1.892 . S
C260 C42 1.899 . S
C277 C23 2.474 . S
C296 C82 2.474 . S
C313 C124 1.583 . S
C332 C25 1.579 . S
C349 C111 1.586 . S
C368 C60 1.587 . S
C385 C84 1.583 . S
C404 C65 1.582 . S
C421 C20 1.585 . S
C440 C151 1.577 . S
C457 C140 1.683 . S
C476 C31 1.674 . S
C493 C105 0.494 . S
C512 C44 0.469 . S
C529 C71 1.675 . S
C548 C100 1.666 . S
C565 C4 0.477 . S
C584 C145 0.394 . S
