# Generated by pormake.
# Topology twf-e, (6)-cn, num edge types: 1
# Building blocks:
#     Node 0, Type 0, BuildingBlock: CIFDUS_clean_sbu_1, # of connection points: 6
#     Node 1, Type 0, BuildingBlock: CIFDUS_clean_sbu_1, # of connection points: 6
#     Node 2, Type 0, BuildingBlock: CIFDUS_clean_sbu_1, # of connection points: 6
#     Node 3, Type 0, BuildingBlock: CIFDUS_clean_sbu_1, # of connection points: 6
#     Node 4, Type 0, BuildingBlock: CIFDUS_clean_sbu_1, # of connection points: 6
#     Node 5, Type 0, BuildingBlock: CIFDUS_clean_sbu_1, # of connection points: 6
#     Node 6, Type 0, BuildingBlock: CIFDUS_clean_sbu_1, # of connection points: 6
#     Node 7, Type 0, BuildingBlock: CIFDUS_clean_sbu_1, # of connection points: 6
#     Node 8, Type 0, BuildingBlock: CIFDUS_clean_sbu_1, # of connection points: 6
#     Node 9, Type 0, BuildingBlock: CIFDUS_clean_sbu_1, # of connection points: 6
#     Node 10, Type 0, BuildingBlock: CIFDUS_clean_sbu_1, # of connection points: 6
#     Node 11, Type 0, BuildingBlock: CIFDUS_clean_sbu_1, # of connection points: 6
#     Node 12, Type 0, BuildingBlock: CIFDUS_clean_sbu_1, # of connection points: 6
#     Node 13, Type 0, BuildingBlock: CIFDUS_clean_sbu_1, # of connection points: 6
#     Node 14, Type 0, BuildingBlock: CIFDUS_clean_sbu_1, # of connection points: 6
#     Node 15, Type 0, BuildingBlock: CIFDUS_clean_sbu_1, # of connection points: 6
#     Node 16, Type 0, BuildingBlock: CIFDUS_clean_sbu_1, # of connection points: 6
#     Node 17, Type 0, BuildingBlock: CIFDUS_clean_sbu_1, # of connection points: 6
#     Node 18, Type 0, BuildingBlock: CIFDUS_clean_sbu_1, # of connection points: 6
#     Node 19, Type 0, BuildingBlock: CIFDUS_clean_sbu_1, # of connection points: 6
#     Node 20, Type 0, BuildingBlock: CIFDUS_clean_sbu_1, # of connection points: 6
#     Node 21, Type 0, BuildingBlock: CIFDUS_clean_sbu_1, # of connection points: 6
#     Node 22, Type 0, BuildingBlock: CIFDUS_clean_sbu_1, # of connection points: 6
#     Node 23, Type 0, BuildingBlock: CIFDUS_clean_sbu_1, # of connection points: 6
#     Node 24, Type 0, BuildingBlock: CIFDUS_clean_sbu_1, # of connection points: 6
#     Node 25, Type 0, BuildingBlock: CIFDUS_clean_sbu_1, # of connection points: 6
#     Node 26, Type 0, BuildingBlock: CIFDUS_clean_sbu_1, # of connection points: 6
#     Node 27, Type 0, BuildingBlock: CIFDUS_clean_sbu_1, # of connection points: 6
#     Node 28, Type 0, BuildingBlock: CIFDUS_clean_sbu_1, # of connection points: 6
#     Node 29, Type 0, BuildingBlock: CIFDUS_clean_sbu_1, # of connection points: 6
#     Node 30, Type 0, BuildingBlock: CIFDUS_clean_sbu_1, # of connection points: 6
#     Node 31, Type 0, BuildingBlock: CIFDUS_clean_sbu_1, # of connection points: 6
#     Node 32, Type 0, BuildingBlock: CIFDUS_clean_sbu_1, # of connection points: 6
#     Node 33, Type 0, BuildingBlock: CIFDUS_clean_sbu_1, # of connection points: 6
#     Node 34, Type 0, BuildingBlock: CIFDUS_clean_sbu_1, # of connection points: 6
#     Node 35, Type 0, BuildingBlock: CIFDUS_clean_sbu_1, # of connection points: 6
#     Node 36, Type 0, BuildingBlock: CIFDUS_clean_sbu_1, # of connection points: 6
#     Node 37, Type 0, BuildingBlock: CIFDUS_clean_sbu_1, # of connection points: 6
#     Node 38, Type 0, BuildingBlock: CIFDUS_clean_sbu_1, # of connection points: 6
#     Node 39, Type 0, BuildingBlock: CIFDUS_clean_sbu_1, # of connection points: 6
#     Node 40, Type 0, BuildingBlock: CIFDUS_clean_sbu_1, # of connection points: 6
#     Node 41, Type 0, BuildingBlock: CIFDUS_clean_sbu_1, # of connection points: 6
#     Node 42, Type 0, BuildingBlock: CIFDUS_clean_sbu_1, # of connection points: 6
#     Node 43, Type 0, BuildingBlock: CIFDUS_clean_sbu_1, # of connection points: 6
#     Node 44, Type 0, BuildingBlock: CIFDUS_clean_sbu_1, # of connection points: 6
#     Node 45, Type 0, BuildingBlock: CIFDUS_clean_sbu_1, # of connection points: 6
#     Node 46, Type 0, BuildingBlock: CIFDUS_clean_sbu_1, # of connection points: 6
#     Node 47, Type 0, BuildingBlock: CIFDUS_clean_sbu_1, # of connection points: 6
#     Edge 48, Type (0, 0), None
#     Edge 49, Type (0, 0), None
#     Edge 50, Type (0, 0), None
#     Edge 51, Type (0, 0), None
#     Edge 52, Type (0, 0), None
#     Edge 53, Type (0, 0), None
#     Edge 54, Type (0, 0), None
#     Edge 55, Type (0, 0), None
#     Edge 56, Type (0, 0), None
#     Edge 57, Type (0, 0), None
#     Edge 58, Type (0, 0), None
#     Edge 59, Type (0, 0), None
#     Edge 60, Type (0, 0), None
#     Edge 61, Type (0, 0), None
#     Edge 62, Type (0, 0), None
#     Edge 63, Type (0, 0), None
#     Edge 64, Type (0, 0), None
#     Edge 65, Type (0, 0), None
#     Edge 66, Type (0, 0), None
#     Edge 67, Type (0, 0), None
#     Edge 68, Type (0, 0), None
#     Edge 69, Type (0, 0), None
#     Edge 70, Type (0, 0), None
#     Edge 71, Type (0, 0), None
#     Edge 72, Type (0, 0), None
#     Edge 73, Type (0, 0), None
#     Edge 74, Type (0, 0), None
#     Edge 75, Type (0, 0), None
#     Edge 76, Type (0, 0), None
#     Edge 77, Type (0, 0), None
#     Edge 78, Type (0, 0), None
#     Edge 79, Type (0, 0), None
#     Edge 80, Type (0, 0), None
#     Edge 81, Type (0, 0), None
#     Edge 82, Type (0, 0), None
#     Edge 83, Type (0, 0), None
#     Edge 84, Type (0, 0), None
#     Edge 85, Type (0, 0), None
#     Edge 86, Type (0, 0), None
#     Edge 87, Type (0, 0), None
#     Edge 88, Type (0, 0), None
#     Edge 89, Type (0, 0), None
#     Edge 90, Type (0, 0), None
#     Edge 91, Type (0, 0), None
#     Edge 92, Type (0, 0), None
#     Edge 93, Type (0, 0), None
#     Edge 94, Type (0, 0), None
#     Edge 95, Type (0, 0), None
#     Edge 96, Type (0, 0), None
#     Edge 97, Type (0, 0), None
#     Edge 98, Type (0, 0), None
#     Edge 99, Type (0, 0), None
#     Edge 100, Type (0, 0), None
#     Edge 101, Type (0, 0), None
#     Edge 102, Type (0, 0), None
#     Edge 103, Type (0, 0), None
#     Edge 104, Type (0, 0), None
#     Edge 105, Type (0, 0), None
#     Edge 106, Type (0, 0), None
#     Edge 107, Type (0, 0), None
#     Edge 108, Type (0, 0), None
#     Edge 109, Type (0, 0), None
#     Edge 110, Type (0, 0), None
#     Edge 111, Type (0, 0), None
#     Edge 112, Type (0, 0), None
#     Edge 113, Type (0, 0), None
#     Edge 114, Type (0, 0), None
#     Edge 115, Type (0, 0), None
#     Edge 116, Type (0, 0), None
#     Edge 117, Type (0, 0), None
#     Edge 118, Type (0, 0), None
#     Edge 119, Type (0, 0), None
#     Edge 120, Type (0, 0), None
#     Edge 121, Type (0, 0), None
#     Edge 122, Type (0, 0), None
#     Edge 123, Type (0, 0), None
#     Edge 124, Type (0, 0), None
#     Edge 125, Type (0, 0), None
#     Edge 126, Type (0, 0), None
#     Edge 127, Type (0, 0), None
#     Edge 128, Type (0, 0), None
#     Edge 129, Type (0, 0), None
#     Edge 130, Type (0, 0), None
#     Edge 131, Type (0, 0), None
#     Edge 132, Type (0, 0), None
#     Edge 133, Type (0, 0), None
#     Edge 134, Type (0, 0), None
#     Edge 135, Type (0, 0), None
#     Edge 136, Type (0, 0), None
#     Edge 137, Type (0, 0), None
#     Edge 138, Type (0, 0), None
#     Edge 139, Type (0, 0), None
#     Edge 140, Type (0, 0), None
#     Edge 141, Type (0, 0), None
#     Edge 142, Type (0, 0), None
#     Edge 143, Type (0, 0), None
#     Edge 144, Type (0, 0), None
#     Edge 145, Type (0, 0), None
#     Edge 146, Type (0, 0), None
#     Edge 147, Type (0, 0), None
#     Edge 148, Type (0, 0), None
#     Edge 149, Type (0, 0), None
#     Edge 150, Type (0, 0), None
#     Edge 151, Type (0, 0), None
#     Edge 152, Type (0, 0), None
#     Edge 153, Type (0, 0), None
#     Edge 154, Type (0, 0), None
#     Edge 155, Type (0, 0), None
#     Edge 156, Type (0, 0), None
#     Edge 157, Type (0, 0), None
#     Edge 158, Type (0, 0), None
#     Edge 159, Type (0, 0), None
#     Edge 160, Type (0, 0), None
#     Edge 161, Type (0, 0), None
#     Edge 162, Type (0, 0), None
#     Edge 163, Type (0, 0), None
#     Edge 164, Type (0, 0), None
#     Edge 165, Type (0, 0), None
#     Edge 166, Type (0, 0), None
#     Edge 167, Type (0, 0), None
#     Edge 168, Type (0, 0), None
#     Edge 169, Type (0, 0), None
#     Edge 170, Type (0, 0), None
#     Edge 171, Type (0, 0), None
#     Edge 172, Type (0, 0), None
#     Edge 173, Type (0, 0), None
#     Edge 174, Type (0, 0), None
#     Edge 175, Type (0, 0), None
#     Edge 176, Type (0, 0), None
#     Edge 177, Type (0, 0), None
#     Edge 178, Type (0, 0), None
#     Edge 179, Type (0, 0), None
#     Edge 180, Type (0, 0), None
#     Edge 181, Type (0, 0), None
#     Edge 182, Type (0, 0), None
#     Edge 183, Type (0, 0), None
#     Edge 184, Type (0, 0), None
#     Edge 185, Type (0, 0), None
#     Edge 186, Type (0, 0), None
#     Edge 187, Type (0, 0), None
#     Edge 188, Type (0, 0), None
#     Edge 189, Type (0, 0), None
#     Edge 190, Type (0, 0), None
#     Edge 191, Type (0, 0), None
# Relax obj value: 0.446
# Max RMSD: 0.158
# Mean RMSD: 0.158
data_MOF--net-twf-e--node1-CIFDUS_clean_sbu_1--edge1-none
_symmetry_space_group_name_H-M    P1
_symmetry_Int_Tables_number       1
_symmetry_cell_setting            triclinic
loop_
_symmetry_equiv_pos_as_xyz
'x, y, z'
_cell_length_a     27.646715
_cell_length_b     27.649334
_cell_length_c     27.650619
_cell_angle_alpha  89.883677
_cell_angle_beta   89.87444
_cell_angle_gamma 90.12909
loop_
_atom_site_label
_atom_site_type_symbol
_atom_site_fract_x
_atom_site_fract_y
_atom_site_fract_z
_atom_type_partial_charge
O0 O 0.01333 0.1638 0.45026 0.0
Mn1 Mn 1.00358 0.19083 0.37705 0.0
O2 O 0.94152 0.16544 0.48814 0.0
Mn3 Mn 0.90626 0.1681 0.43139 0.0
O4 O 0.98724 0.22397 0.30688 0.0
O5 O 0.07391 0.22895 0.37957 0.0
Mn6 Mn 0.08446 0.2035 0.31728 0.0
O7 O 0.02974 0.12742 0.34699 0.0
O8 O 0.05592 0.23781 0.26789 0.0
O9 O 0.96932 0.24899 0.40541 0.0
O10 O 0.8902 0.22786 0.41091 0.0
O11 O 0.13929 0.23065 0.33015 0.0
O12 O 0.09552 0.13765 0.30978 0.0
C13 C 0.91885 0.11413 0.37738 0.0
C14 C 0.98671 0.15917 0.48906 0.0
C15 C 0.01095 0.24347 0.27088 0.0
C16 C 0.11921 0.24453 0.36995 0.0
C17 C 0.07335 0.11486 0.34215 0.0
C18 C 0.92403 0.25887 0.40847 0.0
O19 O 0.93878 0.15637 0.37697 0.0
O20 O 0.88686 0.10901 0.4109 0.0
O21 O 0.85947 0.0241 0.44282 0.0
Mn22 Mn 0.83205 0.01783 0.37087 0.0
O23 O 0.83759 0.95358 0.47582 0.0
Mn24 Mn 0.84324 0.91991 0.41838 0.0
O25 O 0.79907 1.00601 0.30022 0.0
O26 O 0.79622 0.08669 0.3795 0.0
Mn27 Mn 0.81675 0.10317 0.31709 0.0
O28 O 0.89617 0.04448 0.34095 0.0
O29 O 0.77986 0.07693 0.26815 0.0
O30 O 0.77164 0.98532 0.39845 0.0
O31 O 0.78617 0.90613 0.39069 0.0
O32 O 0.79029 0.15643 0.33849 0.0
O33 O 0.8825 0.11195 0.30557 0.0
C34 C 0.90737 0.93414 0.37992 0.0
C35 C 0.85398 0.99594 0.48008 0.0
C36 C 0.7775 0.03152 0.26694 0.0
C37 C 0.77909 0.13178 0.37676 0.0
C38 C 0.90909 0.08785 0.33343 0.0
C39 C 0.75752 0.94128 0.39591 0.0
O40 O 0.8662 0.95258 0.36682 0.0
O41 O 0.90481 0.90122 0.41293 0.0
O42 O 1.00909 0.86955 0.46484 0.0
Mn43 Mn 0.01689 0.85365 0.38867 0.0
O44 O 0.08386 0.8701 0.49715 0.0
Mn45 Mn 0.11614 0.8773 0.43929 0.0
O46 O 0.03126 0.82712 0.31429 0.0
O47 O 0.94966 0.81301 0.39187 0.0
Mn48 Mn 0.93877 0.83867 0.33077 0.0
O49 O 0.98603 0.92049 0.37286 0.0
O50 O 0.96249 0.79687 0.28656 0.0
O51 O 0.0561 0.79538 0.40732 0.0
O52 O 0.13452 0.82062 0.41363 0.0
O53 O 0.88041 0.82452 0.34844 0.0
O54 O 0.94143 0.90318 0.31301 0.0
C55 C 0.09439 0.93405 0.39087 0.0
C56 C 0.03847 0.87008 0.50189 0.0
C57 C 1.00772 0.79836 0.28472 0.0
C58 C 0.90261 0.80387 0.38414 0.0
C59 C 0.94898 0.93031 0.34823 0.0
C60 C 0.10208 0.78869 0.40728 0.0
O61 O 0.07909 0.89041 0.38837 0.0
O62 O 0.12792 0.93977 0.42238 0.0
O63 O 0.15679 0.01722 0.4598 0.0
Mn64 Mn 0.17547 0.03012 0.38556 0.0
O65 O 0.15304 0.08844 0.49919 0.0
Mn66 Mn 0.15238 0.12661 0.44395 0.0
O67 O 0.20454 0.04921 0.31483 0.0
O68 O 0.21214 0.95977 0.3838 0.0
Mn69 Mn 0.182 0.95249 0.32367 0.0
O70 O 0.10832 1.00798 0.36006 0.0
O71 O 0.21961 0.98024 0.27703 0.0
O72 O 0.23469 0.06458 0.41037 0.0
O73 O 0.21188 0.14302 0.42312 0.0
O74 O 0.2016 0.89442 0.33532 0.0
O75 O 0.11569 0.94797 0.31433 0.0
C76 C 0.10071 0.11361 0.3867 0.0
C77 C 0.15473 0.04265 0.49934 0.0
C78 C 0.2264 0.025 0.28095 0.0
C79 C 0.22206 0.91349 0.37267 0.0
C80 C 0.09422 0.96605 0.34968 0.0
C81 C 0.24278 0.11032 0.414 0.0
O82 O 0.14176 0.09308 0.39067 0.0
O83 O 0.09445 0.14656 0.41867 0.0
O84 O 0.04674 0.86052 0.58992 0.0
Mn85 Mn 0.03276 0.82985 0.66112 0.0
O86 O 0.97599 0.88043 0.55719 0.0
Mn87 Mn 0.94833 0.88898 0.61637 0.0
O88 O 0.01907 0.79354 0.7281 0.0
O89 O 0.09447 0.78406 0.64711 0.0
Mn90 Mn 0.11993 0.80843 0.70442 0.0
O91 O 0.06637 0.88477 0.70007 0.0
O92 O 0.09186 0.78381 0.76067 0.0
O93 O 0.98864 0.78342 0.62663 0.0
O94 O 0.92013 0.82849 0.61702 0.0
O95 O 0.16535 0.76989 0.68444 0.0
O96 O 0.14244 0.87158 0.70099 0.0
C97 C 0.97087 0.91672 0.67744 0.0
C98 C 0.01973 0.8701 0.55249 0.0
C99 C 0.04648 0.77814 0.76281 0.0
C100 C 0.13681 0.76095 0.64853 0.0
C101 C 0.10867 0.90169 0.69863 0.0
C102 C 0.94397 0.78905 0.6152 0.0
O103 O 0.97295 0.87059 0.67442 0.0
O104 O 0.98806 0.93858 0.64069 0.0
O105 O 0.16932 0.03958 0.58677 0.0
Mn106 Mn 0.1981 0.01858 0.65652 0.0
O107 O 0.15139 0.97287 0.54578 0.0
Mn108 Mn 0.15143 0.93466 0.59937 0.0
O109 O 0.2324 1.00227 0.7244 0.0
O110 O 0.24091 0.08261 0.65127 0.0
Mn111 Mn 0.2117 0.10515 0.70699 0.0
O112 O 0.13998 0.04591 0.69528 0.0
O113 O 0.23489 0.07397 0.76178 0.0
O114 O 0.24941 0.97798 0.62078 0.0
O115 O 0.21034 0.90667 0.60436 0.0
O116 O 0.24951 0.1532 0.6907 0.0
O117 O 0.1474 0.12267 0.69979 0.0
C118 C 0.11558 0.94368 0.66748 0.0
C119 C 0.15756 0.01764 0.54702 0.0
C120 C 0.24472 0.02921 0.76101 0.0
C121 C 0.26246 0.12538 0.65539 0.0
C122 C 0.12021 0.08682 0.6935 0.0
C123 C 0.24823 0.93281 0.60837 0.0
O124 O 0.15966 0.95656 0.65987 0.0
O125 O 0.09217 0.93585 0.62843 0.0
O126 O 0.98858 0.15827 0.5779 0.0
Mn127 Mn 0.01376 0.18009 0.64855 0.0
O128 O 0.05008 0.12813 0.53548 0.0
Mn129 Mn 0.08966 0.12096 0.58792 0.0
O130 O 0.03523 0.21367 0.71532 0.0
O131 O 0.9534 0.22767 0.6481 0.0
Mn132 Mn 0.93083 0.19675 0.70301 0.0
O133 O 0.98376 0.12396 0.68892 0.0
O134 O 0.96507 0.21945 0.75569 0.0
O135 O 0.06056 0.22519 0.612 0.0
O136 O 0.12511 0.17615 0.59113 0.0
O137 O 0.88334 0.23553 0.69012 0.0
O138 O 0.90822 0.13386 0.69691 0.0
C139 C 0.07959 0.09212 0.66026 0.0
C140 C 1.00917 0.14756 0.53701 0.0
C141 C 1.00968 0.22954 0.75167 0.0
C142 C 0.91172 0.25021 0.65577 0.0
C143 C 0.94228 0.10529 0.6888 0.0
C144 C 0.10502 0.21714 0.59837 0.0
O145 O 0.07039 0.13569 0.64784 0.0
O146 O 0.0849 0.06444 0.62343 0.0
O147 O 0.85236 0.98921 0.56777 0.0
Mn148 Mn 0.84405 1.00062 0.64426 0.0
O149 O 0.88889 0.05182 0.53214 0.0
Mn150 Mn 0.89675 0.08488 0.58838 0.0
O151 O 0.82114 0.01159 0.72069 0.0
O152 O 0.79795 0.94164 0.64472 0.0
Mn153 Mn 0.82879 0.91763 0.69978 0.0
O154 O 0.90389 0.96085 0.65484 0.0
O155 O 0.78915 0.94132 0.74648 0.0
O156 O 0.79478 0.05112 0.62694 0.0
O157 O 0.84036 0.11682 0.60137 0.0
O158 O 0.81894 0.86696 0.66107 0.0
O159 O 0.89407 0.91524 0.71725 0.0
C160 C 0.93387 0.06635 0.65433 0.0
C161 C 0.86621 0.01267 0.52953 0.0
C162 C 0.79257 0.98684 0.75028 0.0
C163 C 0.79618 0.89591 0.6325 0.0
C164 C 0.92201 0.93519 0.68768 0.0
C165 C 0.80102 0.09595 0.61468 0.0
O166 O 0.88922 0.05724 0.6462 0.0
O167 O 0.95701 0.07627 0.61541 0.0
O168 O 0.43919 0.04673 0.16853 0.0
Mn169 Mn 0.36798 0.03274 0.19921 0.0
O170 O 0.47193 0.97597 0.14865 0.0
Mn171 Mn 0.41274 0.94831 0.14008 0.0
O172 O 0.301 0.01906 0.23554 0.0
O173 O 0.382 0.09445 0.24501 0.0
Mn174 Mn 0.32468 0.11991 0.22066 0.0
O175 O 0.32901 0.06634 0.14431 0.0
O176 O 0.26843 0.09184 0.24532 0.0
O177 O 0.40247 0.98865 0.24563 0.0
O178 O 0.41206 0.92012 0.20057 0.0
O179 O 0.34469 0.16533 0.2592 0.0
O180 O 0.3281 0.1424 0.15751 0.0
C181 C 0.35167 0.97083 0.11233 0.0
C182 C 0.47662 0.01972 0.15897 0.0
C183 C 0.26629 0.04647 0.25097 0.0
C184 C 0.3806 0.13679 0.26812 0.0
C185 C 0.33045 0.10862 0.1274 0.0
C186 C 0.41388 0.94398 0.24001 0.0
O187 O 0.35468 0.97293 0.15846 0.0
O188 O 0.38843 0.988 0.09047 0.0
O189 O 0.98929 0.46128 0.17681 0.0
Mn190 Mn 1.00071 0.38478 0.18512 0.0
O191 O 0.05195 0.49693 0.14036 0.0
Mn192 Mn 0.08503 0.4407 0.1325 0.0
O193 O 0.01169 0.30835 0.20801 0.0
O194 O 0.94171 0.38429 0.23118 0.0
Mn195 Mn 0.91772 0.32923 0.20033 0.0
O196 O 0.96094 0.37421 0.12527 0.0
O197 O 0.94141 0.28252 0.23995 0.0
O198 O 0.05119 0.4021 0.23441 0.0
O199 O 0.11693 0.42766 0.18888 0.0
O200 O 0.86703 0.3679 0.21021 0.0
O201 O 0.91529 0.31182 0.13504 0.0
C202 C 0.06644 0.37467 0.09532 0.0
C203 C 0.01276 0.49952 0.163 0.0
C204 C 0.98693 0.27875 0.23656 0.0
C205 C 0.89598 0.3965 0.23296 0.0
C206 C 0.93524 0.3414 0.10711 0.0
C207 C 0.09604 0.41433 0.22819 0.0
O208 O 0.05735 0.38289 0.13995 0.0
O209 O 0.07636 0.41364 0.07227 0.0
O210 O 0.56429 1.00906 0.15951 0.0
Mn211 Mn 0.64048 0.01684 0.17541 0.0
O212 O 0.532 0.08382 0.15901 0.0
Mn213 Mn 0.58987 0.11608 0.15176 0.0
O214 O 0.71488 0.03118 0.20194 0.0
O215 O 0.63724 0.94963 0.21604 0.0
Mn216 Mn 0.69835 0.93873 0.19038 0.0
O217 O 0.65627 0.98597 0.10857 0.0
O218 O 0.74256 0.96241 0.2322 0.0
O219 O 0.62184 0.05608 0.23368 0.0
O220 O 0.61558 0.13448 0.20842 0.0
O221 O 0.68063 0.88037 0.20446 0.0
O222 O 0.7161 0.9415 0.12587 0.0
C223 C 0.63827 0.09429 0.095 0.0
C224 C 0.52725 0.03844 0.159 0.0
C225 C 0.74444 1.00763 0.23071 0.0
C226 C 0.64494 0.90258 0.22513 0.0
C227 C 0.68083 0.94887 0.09876 0.0
C228 C 0.62192 0.10206 0.24036 0.0
O229 O 0.64081 0.07903 0.13864 0.0
O230 O 0.60675 0.1278 0.08928 0.0
O231 O 0.04458 0.68815 0.13305 0.0
Mn232 Mn 0.01793 0.65819 0.19712 0.0
O233 O 0.112 0.72351 0.14666 0.0
Mn234 Mn 0.10328 0.71198 0.21242 0.0
O235 O 0.98542 0.63059 0.25751 0.0
O236 O 0.95267 0.66222 0.16299 0.0
Mn237 Mn 0.91998 0.61067 0.18592 0.0
O238 O 0.02418 0.58624 0.1697 0.0
O239 O 0.90623 0.63835 0.24299 0.0
O240 O 1.0061 0.72882 0.23011 0.0
O241 O 0.07704 0.76091 0.24933 0.0
O242 O 0.9013 0.61613 0.12435 0.0
O243 O 0.95365 0.55322 0.19157 0.0
C244 C 0.1319 0.65229 0.25005 0.0
C245 C 0.08797 0.69554 0.12011 0.0
C246 C 0.94139 0.63313 0.27164 0.0
C247 C 0.93423 0.64914 0.12181 0.0
C248 C 0.99602 0.54897 0.17519 0.0
C249 C 0.03162 0.76211 0.25168 0.0
O250 O 0.0868 0.64956 0.23294 0.0
O251 O 0.15656 0.69057 0.23885 0.0
O252 O 0.45124 0.98852 0.87077 0.0
Mn253 Mn 0.38059 0.0137 0.84899 0.0
O254 O 0.49369 0.04999 0.90095 0.0
Mn255 Mn 0.44128 0.08961 0.9081 0.0
O256 O 0.31381 0.03522 0.81545 0.0
O257 O 0.38098 0.95334 0.80141 0.0
Mn258 Mn 0.32604 0.93083 0.83235 0.0
O259 O 0.34023 0.98373 0.90515 0.0
O260 O 0.27337 0.9651 0.80968 0.0
O261 O 0.41713 0.06047 0.80387 0.0
O262 O 0.43805 0.12502 0.85289 0.0
O263 O 0.33885 0.88334 0.79354 0.0
O264 O 0.33213 0.9082 0.89522 0.0
C265 C 0.36882 0.07956 0.93693 0.0
C266 C 0.49214 1.00908 0.88151 0.0
C267 C 0.27742 1.00971 0.7996 0.0
C268 C 0.37326 0.91167 0.77887 0.0
C269 C 0.34032 0.94225 0.9238 0.0
C270 C 0.43076 0.10493 0.81191 0.0
O271 O 0.38136 0.07034 0.8934 0.0
O272 O 0.40568 0.08485 0.96457 0.0
O273 O 0.03964 0.44239 0.85979 0.0
Mn274 Mn 0.01859 0.37262 0.83103 0.0
O275 O 0.97296 0.48339 0.8778 0.0
Mn276 Mn 0.93468 0.42983 0.8777 0.0
O277 O 1.00225 0.30473 0.79673 0.0
O278 O 0.08262 0.37782 0.78823 0.0
Mn279 Mn 0.10518 0.32211 0.81742 0.0
O280 O 0.04589 0.33384 0.88913 0.0
O281 O 0.07395 0.26734 0.79422 0.0
O282 O 0.97803 0.40836 0.77972 0.0
O283 O 0.90672 0.42484 0.81878 0.0
O284 O 0.15323 0.33843 0.77961 0.0
O285 O 0.12267 0.3293 0.88172 0.0
C286 C 0.94366 0.36157 0.9135 0.0
C287 C 0.01773 0.48215 0.87157 0.0
C288 C 0.02919 0.26812 0.7844 0.0
C289 C 0.12539 0.37372 0.76667 0.0
C290 C 0.08681 0.33559 0.9089 0.0
C291 C 0.93287 0.42079 0.7809 0.0
O292 O 0.95655 0.36933 0.86945 0.0
O293 O 0.93586 0.40065 0.93688 0.0
O294 O 0.5789 0.01323 0.86529 0.0
Mn295 Mn 0.65211 1.00348 0.83824 0.0
O296 O 0.54101 0.94143 0.86364 0.0
Mn297 Mn 0.59777 0.90618 0.86098 0.0
O298 O 0.72228 0.98715 0.8051 0.0
O299 O 0.64957 0.07381 0.80012 0.0
Mn300 Mn 0.71187 0.08437 0.82555 0.0
O301 O 0.68218 0.02967 0.90164 0.0
O302 O 0.76126 0.05583 0.79123 0.0
O303 O 0.62374 0.96921 0.7801 0.0
O304 O 0.61825 0.8901 0.80122 0.0
O305 O 0.69899 0.13919 0.79842 0.0
O306 O 0.71938 0.09544 0.8914 0.0
C307 C 0.65179 0.91877 0.91494 0.0
C308 C 0.54009 0.98662 0.86991 0.0
C309 C 0.75827 0.01086 0.78558 0.0
C310 C 0.65919 0.1191 0.78453 0.0
C311 C 0.68702 0.07327 0.91419 0.0
C312 C 0.62069 0.92392 0.77021 0.0
O313 O 0.65221 0.9387 0.87271 0.0
O314 O 0.61826 0.88678 0.92006 0.0
O315 O 0.01733 0.56937 0.87241 0.0
Mn316 Mn 0.03022 0.6436 0.85366 0.0
O317 O 0.08855 0.52999 0.87594 0.0
Mn318 Mn 0.12671 0.58526 0.87673 0.0
O319 O 0.04927 0.7143 0.82453 0.0
O320 O 0.95985 0.64533 0.81702 0.0
Mn321 Mn 0.95256 0.70546 0.84718 0.0
O322 O 1.00808 0.6692 0.92076 0.0
O323 O 0.98028 0.7521 0.80955 0.0
O324 O 0.06469 0.61873 0.79446 0.0
O325 O 0.14316 0.60615 0.81728 0.0
O326 O 0.89448 0.69376 0.82762 0.0
O327 O 0.9481 0.71481 0.91348 0.0
C328 C 0.11349 0.64239 0.92854 0.0
C329 C 0.04276 0.52983 0.87438 0.0
C330 C 0.02504 0.74818 0.8027 0.0
C331 C 0.91356 0.65642 0.80713 0.0
C332 C 0.96612 0.6794 0.9349 0.0
C333 C 0.11045 0.61519 0.78637 0.0
O334 O 0.09322 0.6386 0.88733 0.0
O335 O 0.14641 0.61039 0.9348 0.0
O336 O 0.15832 0.45112 0.04054 0.0
Mn337 Mn 0.1801 0.38047 0.01535 0.0
O338 O 0.12823 0.49358 0.97905 0.0
Mn339 Mn 0.12102 0.44115 0.93946 0.0
O340 O 0.21364 0.31369 0.99383 0.0
O341 O 0.22767 0.38088 0.07571 0.0
Mn342 Mn 0.19676 0.32594 0.09824 0.0
O343 O 0.1239 0.34013 0.0453 0.0
O344 O 0.21944 0.27329 0.06396 0.0
O345 O 0.22524 0.41701 0.96857 0.0
O346 O 0.17623 0.43791 0.90402 0.0
O347 O 0.23556 0.33881 0.14572 0.0
O348 O 0.13387 0.33197 0.12085 0.0
C349 C 0.09212 0.36884 0.94951 0.0
C350 C 0.14763 0.49203 0.01997 0.0
C351 C 0.22951 0.27733 0.01935 0.0
C352 C 0.25022 0.3732 0.11737 0.0
C353 C 0.1053 0.34014 0.08681 0.0
C354 C 0.21721 0.43064 0.92412 0.0
O355 O 0.1357 0.38123 0.95872 0.0
O356 O 0.06447 0.40568 0.9442 0.0
O357 O 0.16389 0.57877 0.01584 0.0
Mn358 Mn 0.1909 0.65198 0.02558 0.0
O359 O 0.16553 0.54088 0.08763 0.0
Mn360 Mn 0.16821 0.59764 0.12289 0.0
O361 O 0.22401 0.72218 0.04191 0.0
O362 O 0.22899 0.64945 0.95524 0.0
Mn363 Mn 0.20357 0.71174 0.9447 0.0
O364 O 0.12743 0.68198 0.99947 0.0
O365 O 0.23788 0.76114 0.97323 0.0
O366 O 0.24909 0.62366 0.05981 0.0
O367 O 0.22798 0.61815 0.13893 0.0
O368 O 0.23071 0.69886 0.88987 0.0
O369 O 0.13772 0.71923 0.93362 0.0
C370 C 0.11426 0.6516 0.11037 0.0
C371 C 0.15926 0.53996 0.04244 0.0
C372 C 0.24352 0.75817 0.0182 0.0
C373 C 0.24459 0.65906 0.90996 0.0
C374 C 0.11488 0.68696 0.95588 0.0
C375 C 0.25899 0.6206 0.1051 0.0
O376 O 0.15648 0.65206 0.09039 0.0
O377 O 0.10912 0.61809 0.14235 0.0
O378 O 0.44234 0.16921 0.98947 0.0
Mn379 Mn 0.37258 0.19799 0.01047 0.0
O380 O 0.48332 0.15127 0.05617 0.0
Mn381 Mn 0.42972 0.15134 0.09438 0.0
O382 O 0.30469 0.23229 0.02677 0.0
O383 O 0.37783 0.24077 0.94644 0.0
Mn384 Mn 0.3221 0.21158 0.92387 0.0
O385 O 0.3338 0.13986 0.98317 0.0
O386 O 0.26732 0.23481 0.95507 0.0
O387 O 0.40832 0.2493 0.05105 0.0
O388 O 0.42476 0.21025 0.12236 0.0
O389 O 0.33845 0.24938 0.87583 0.0
O390 O 0.32925 0.14727 0.90637 0.0
C391 C 0.36159 0.11551 0.08539 0.0
C392 C 0.48209 0.15745 0.0114 0.0
C393 C 0.26809 0.24462 0.99983 0.0
C394 C 0.37375 0.26232 0.90367 0.0
C395 C 0.33552 0.12012 0.94224 0.0
C396 C 0.42075 0.24813 0.09621 0.0
O397 O 0.36921 0.15959 0.0725 0.0
O398 O 0.40064 0.09209 0.09319 0.0
O399 O 0.8606 0.43912 0.98243 0.0
Mn400 Mn 0.82994 0.3679 0.99638 0.0
O401 O 0.88053 0.47185 0.05318 0.0
Mn402 Mn 0.88908 0.41266 0.08081 0.0
O403 O 0.79361 0.3009 1.01004 0.0
O404 O 0.78414 0.38192 0.93467 0.0
Mn405 Mn 0.80847 0.32458 0.90921 0.0
O406 O 0.88488 0.32898 0.96278 0.0
O407 O 0.7838 0.26834 0.93726 0.0
O408 O 0.7835 0.40237 0.04051 0.0
O409 O 0.82859 0.41201 0.10901 0.0
O410 O 0.76993 0.34458 0.8638 0.0
O411 O 0.87162 0.32795 0.88669 0.0
C412 C 0.91683 0.35165 0.05823 0.0
C413 C 0.87019 0.47655 1.00944 0.0
C414 C 0.77817 0.2662 0.98264 0.0
C415 C 0.76103 0.38051 0.89233 0.0
C416 C 0.90173 0.33034 0.92046 0.0
C417 C 0.78913 0.41381 0.08517 0.0
O418 O 0.87068 0.3546 0.05618 0.0
O419 O 0.93876 0.3884 0.04113 0.0
O420 O 0.58632 0.85937 1.00494 0.0
Mn421 Mn 0.65828 0.83196 0.01122 0.0
O422 O 0.55328 0.83748 0.07544 0.0
Mn423 Mn 0.61073 0.84316 0.10912 0.0
O424 O 0.72893 0.79898 0.02306 0.0
O425 O 0.64967 0.79613 0.94236 0.0
Mn426 Mn 0.71209 0.81665 0.92589 0.0
O427 O 0.68821 0.89607 0.98458 0.0
O428 O 0.76103 0.77976 0.95214 0.0
O429 O 0.63069 0.77155 0.04372 0.0
O430 O 0.63842 0.7861 0.12291 0.0
O431 O 0.6907 0.79016 0.87263 0.0
O432 O 0.7236 0.88239 0.9171 0.0
C433 C 0.64917 0.90725 0.09494 0.0
C434 C 0.54904 0.85387 0.03308 0.0
C435 C 0.76223 0.77741 0.99755 0.0
C436 C 0.65241 0.779 0.89727 0.0
C437 C 0.69574 0.90899 0.94121 0.0
C438 C 0.63322 0.75744 0.08776 0.0
O439 O 0.66231 0.8661 0.07647 0.0
O440 O 0.61612 0.90471 0.12783 0.0
O441 O 0.86965 0.56422 0.0201 0.0
Mn442 Mn 0.85376 0.6404 0.01229 0.0
O443 O 0.87022 0.53189 0.94534 0.0
Mn444 Mn 0.87741 0.58975 0.91306 0.0
O445 O 0.82723 0.71479 0.99792 0.0
O446 O 0.81313 0.63721 0.07952 0.0
Mn447 Mn 0.83878 0.69833 0.0904 0.0
O448 O 0.92061 0.65622 0.04315 0.0
O449 O 0.79699 0.74253 0.06668 0.0
O450 O 0.79548 0.62174 0.97309 0.0
O451 O 0.82072 0.6154 0.89468 0.0
O452 O 0.8246 0.68067 0.14875 0.0
O453 O 0.90331 0.71607 0.08777 0.0
C454 C 0.93412 0.63821 0.93473 0.0
C455 C 0.87018 0.52716 0.99072 0.0
C456 C 0.79847 0.74436 0.02145 0.0
C457 C 0.80398 0.64495 0.12655 0.0
C458 C 0.93043 0.68084 0.08022 0.0
C459 C 0.78879 0.62178 0.92711 0.0
O460 O 0.8905 0.64069 0.95009 0.0
O461 O 0.93987 0.60669 0.90122 0.0
O462 O 0.46133 0.85231 0.03983 0.0
Mn463 Mn 0.38482 0.84399 0.02841 0.0
O464 O 0.49699 0.88872 0.97717 0.0
Mn465 Mn 0.44073 0.8966 0.94412 0.0
O466 O 0.30839 0.82106 0.01745 0.0
O467 O 0.38433 0.79793 0.0874 0.0
Mn468 Mn 0.32929 0.82876 0.11145 0.0
O469 O 0.37423 0.90385 0.06817 0.0
O470 O 0.28259 0.78911 0.08773 0.0
O471 O 0.40216 0.79469 0.97794 0.0
O472 O 0.42771 0.84021 0.91221 0.0
O473 O 0.36805 0.81891 0.16208 0.0
O474 O 0.31184 0.89404 0.11385 0.0
C475 C 0.37482 0.93379 0.96269 0.0
C476 C 0.49958 0.8661 0.01635 0.0
C477 C 0.2788 0.7925 0.04221 0.0
C478 C 0.39661 0.79616 0.1331 0.0
C479 C 0.3414 0.92197 0.09387 0.0
C480 C 0.4144 0.80089 0.9331 0.0
O481 O 0.38291 0.88913 0.97178 0.0
O482 O 0.41376 0.95688 0.95274 0.0
O483 O 0.66906 0.10822 0.02105 0.0
Mn484 Mn 0.64358 0.17537 0.99893 0.0
O485 O 0.71482 0.11559 0.08104 0.0
Mn486 Mn 0.70547 0.18189 0.07658 0.0
O487 O 0.61879 0.23459 0.96448 0.0
O488 O 0.63848 0.14168 0.93597 0.0
Mn489 Mn 0.5852 0.15229 0.90244 0.0
O490 O 0.56933 0.1567 0.01183 0.0
O491 O 0.60604 0.21177 0.88603 0.0
O492 O 0.71433 0.20443 0.97987 0.0
O493 O 0.75211 0.21952 0.04885 0.0
O494 O 0.61048 0.09435 0.8825 0.0
O495 O 0.52994 0.15295 0.94061 0.0
C496 C 0.65644 0.22193 0.11557 0.0
C497 C 0.67945 0.09412 0.06297 0.0
C498 C 0.61517 0.24267 0.91873 0.0
C499 C 0.64245 0.10062 0.91545 0.0
C500 C 0.52979 0.15463 0.98639 0.0
C501 C 0.7482 0.22631 1.0041 0.0
O502 O 0.64534 0.21203 0.06929 0.0
O503 O 0.69377 0.20146 0.13466 0.0
O504 O 0.51343 0.66374 0.95025 0.0
Mn505 Mn 0.50364 0.69077 0.87705 0.0
O506 O 0.44163 0.6654 0.98816 0.0
Mn507 Mn 0.40634 0.66807 0.93143 0.0
O508 O 0.48727 0.7239 0.80688 0.0
O509 O 0.57397 0.7289 0.87954 0.0
Mn510 Mn 0.5845 0.70346 0.81725 0.0
O511 O 0.52983 0.62737 0.84699 0.0
O512 O 0.55593 0.73774 0.76786 0.0
O513 O 0.4694 0.74893 0.90541 0.0
O514 O 0.39026 0.72783 0.91096 0.0
O515 O 0.63932 0.73064 0.83009 0.0
O516 O 0.5956 0.6376 0.80978 0.0
C517 C 0.4189 0.61408 0.87744 0.0
C518 C 0.48682 0.65911 0.98907 0.0
C519 C 0.51096 0.7434 0.77086 0.0
C520 C 0.61925 0.74451 0.8699 0.0
C521 C 0.57344 0.61482 0.84216 0.0
C522 C 0.4241 0.75882 0.90837 0.0
O523 O 0.43884 0.65631 0.877 0.0
O524 O 0.38692 0.60898 0.91096 0.0
O525 O 0.35946 0.52403 0.94288 0.0
Mn526 Mn 0.33206 0.51777 0.87093 0.0
O527 O 0.33763 0.45349 0.9759 0.0
Mn528 Mn 0.34325 0.4198 0.91845 0.0
O529 O 0.2991 0.50595 0.80027 0.0
O530 O 0.29624 0.58663 0.87956 0.0
Mn531 Mn 0.31678 0.60312 0.81716 0.0
O532 O 0.3962 0.54441 0.84104 0.0
O533 O 0.27989 0.57688 0.76821 0.0
O534 O 0.27165 0.48527 0.8985 0.0
O535 O 0.28616 0.40605 0.8908 0.0
O536 O 0.29033 0.65638 0.83857 0.0
O537 O 0.38253 0.61188 0.80563 0.0
C538 C 0.40736 0.43407 0.87993 0.0
C539 C 0.35398 0.49587 0.98015 0.0
C540 C 0.27754 0.53147 0.76699 0.0
C541 C 0.27912 0.63172 0.87683 0.0
C542 C 0.40913 0.58778 0.8335 0.0
C543 C 0.25753 0.44124 0.8959 0.0
O544 O 0.36617 0.45251 0.8669 0.0
O545 O 0.40483 0.40114 0.91293 0.0
O546 O 0.50902 0.36951 0.96477 0.0
Mn547 Mn 0.51683 0.3536 0.8886 0.0
O548 O 0.58379 0.36994 0.99708 0.0
Mn549 Mn 0.6161 0.37715 0.93924 0.0
O550 O 0.53121 0.32707 0.81422 0.0
O551 O 0.44958 0.313 0.89177 0.0
Mn552 Mn 0.43869 0.33865 0.83067 0.0
O553 O 0.48602 0.42046 0.87276 0.0
O554 O 0.46244 0.29686 0.78646 0.0
O555 O 0.55598 0.29532 0.90725 0.0
O556 O 0.63443 0.32048 0.91352 0.0
O557 O 0.38033 0.32446 0.84832 0.0
O558 O 0.44134 0.40318 0.81296 0.0
C559 C 0.59439 0.43394 0.89084 0.0
C560 C 0.5384 0.36999 1.00181 0.0
C561 C 0.50767 0.29832 0.78464 0.0
C562 C 0.40254 0.30383 0.88402 0.0
C563 C 0.44893 0.43029 0.84819 0.0
C564 C 0.60196 0.28861 0.90703 0.0
O565 O 0.57906 0.39032 0.88833 0.0
O566 O 0.62793 0.43962 0.92235 0.0
O567 O 0.65686 0.51709 0.95979 0.0
Mn568 Mn 0.6755 0.53001 0.88556 0.0
O569 O 0.65313 0.5883 0.9992 0.0
Mn570 Mn 0.6525 0.62651 0.94398 0.0
O571 O 0.70453 0.54913 0.81483 0.0
O572 O 0.71216 0.45966 0.88376 0.0
Mn573 Mn 0.68203 0.45239 0.82363 0.0
O574 O 0.60834 0.50789 0.86008 0.0
O575 O 0.71964 0.48018 0.77702 0.0
O576 O 0.73474 0.56442 0.91035 0.0
O577 O 0.71201 0.64288 0.92312 0.0
O578 O 0.70165 0.39431 0.83527 0.0
O579 O 0.61572 0.4479 0.81432 0.0
C580 C 0.6008 0.61359 0.88671 0.0
C581 C 0.65482 0.54252 0.99934 0.0
C582 C 0.72642 0.52494 0.78095 0.0
C583 C 0.72211 0.4134 0.87263 0.0
C584 C 0.59424 0.46597 0.84967 0.0
C585 C 0.74285 0.61017 0.91382 0.0
O586 O 0.6418 0.59296 0.89073 0.0
O587 O 0.5946 0.64656 0.91867 0.0
O588 O 0.54668 0.36041 0.08984 0.0
Mn589 Mn 0.53272 0.32978 0.16106 0.0
O590 O 0.47593 0.38036 0.05712 0.0
Mn591 Mn 0.44826 0.38886 0.1163 0.0
O592 O 0.51904 0.2935 0.22806 0.0
O593 O 0.59443 0.284 0.14706 0.0
Mn594 Mn 0.6199 0.30834 0.20438 0.0
O595 O 0.56634 0.38473 0.19996 0.0
O596 O 0.59183 0.28372 0.26063 0.0
O597 O 0.48864 0.2833 0.12661 0.0
O598 O 0.42012 0.32834 0.11691 0.0
O599 O 0.6653 0.26978 0.18438 0.0
O600 O 0.64241 0.37148 0.20098 0.0
C601 C 0.47084 0.41661 0.1774 0.0
C602 C 0.51967 0.37001 0.05242 0.0
C603 C 0.54644 0.2781 0.26277 0.0
C604 C 0.63676 0.26088 0.14846 0.0
C605 C 0.60865 0.40161 0.19856 0.0
C606 C 0.44399 0.2889 0.11515 0.0
O607 O 0.47289 0.37048 0.17436 0.0
O608 O 0.48802 0.43845 0.14063 0.0
O609 O 0.66937 0.53945 0.08677 0.0
Mn610 Mn 0.69815 0.51848 0.15652 0.0
O611 O 0.65164 0.47271 0.04575 0.0
Mn612 Mn 0.65161 0.43451 0.09935 0.0
O613 O 0.73245 0.50219 0.22441 0.0
O614 O 0.74095 0.5825 0.15127 0.0
Mn615 Mn 0.71174 0.60506 0.20698 0.0
O616 O 0.64001 0.54579 0.19525 0.0
O617 O 0.73494 0.5739 0.26177 0.0
O618 O 0.7495 0.47789 0.1208 0.0
O619 O 0.7105 0.40651 0.10444 0.0
O620 O 0.74955 0.65312 0.19066 0.0
O621 O 0.64744 0.62257 0.1998 0.0
C622 C 0.61563 0.44356 0.16738 0.0
C623 C 0.65768 0.5175 0.04701 0.0
C624 C 0.74477 0.52915 0.26101 0.0
C625 C 0.7625 0.62527 0.15536 0.0
C626 C 0.62025 0.58672 0.19349 0.0
C627 C 0.74837 0.43269 0.10849 0.0
O628 O 0.65973 0.45644 0.15986 0.0
O629 O 0.5923 0.43569 0.12829 0.0
O630 O 0.48866 0.65815 0.0779 0.0
Mn631 Mn 0.51381 0.68 0.14854 0.0
O632 O 0.55022 0.62812 0.03547 0.0
Mn633 Mn 0.58976 0.62093 0.08794 0.0
O634 O 0.53522 0.71362 0.21531 0.0
O635 O 0.45347 0.72757 0.14804 0.0
Mn636 Mn 0.43081 0.6967 0.20294 0.0
O637 O 0.4838 0.62388 0.18891 0.0
O638 O 0.46501 0.71946 0.25561 0.0
O639 O 0.56059 0.72511 0.112 0.0
O640 O 0.6252 0.67613 0.09118 0.0
O641 O 0.38333 0.73547 0.18992 0.0
O642 O 0.40825 0.6338 0.19688 0.0
C643 C 0.57964 0.59203 0.16025 0.0
C644 C 0.50928 0.6475 0.037 0.0
C645 C 0.50964 0.72953 0.25163 0.0
C646 C 0.41179 0.75014 0.15563 0.0
C647 C 0.44231 0.60522 0.1888 0.0
C648 C 0.60507 0.7171 0.09841 0.0
O649 O 0.57046 0.63562 0.14786 0.0
O650 O 0.58496 0.56438 0.1234 0.0
O651 O 0.35237 0.48914 0.06782 0.0
Mn652 Mn 0.34405 0.50055 0.14431 0.0
O653 O 0.38886 0.55177 0.03219 0.0
Mn654 Mn 0.39675 0.58482 0.08844 0.0
O655 O 0.32115 0.51155 0.22074 0.0
O656 O 0.29793 0.44156 0.14473 0.0
Mn657 Mn 0.32878 0.41766 0.19983 0.0
O658 O 0.40388 0.46076 0.15484 0.0
O659 O 0.28916 0.44131 0.24656 0.0
O660 O 0.2948 0.55106 0.12702 0.0
O661 O 0.34037 0.61676 0.10145 0.0
O662 O 0.31888 0.36685 0.16136 0.0
O663 O 0.39407 0.41519 0.21728 0.0
C664 C 0.4339 0.56625 0.15436 0.0
C665 C 0.3662 0.51261 0.02959 0.0
C666 C 0.29258 0.48683 0.25036 0.0
C667 C 0.29619 0.39577 0.13271 0.0
C668 C 0.42201 0.43511 0.18768 0.0
C669 C 0.30106 0.59591 0.11484 0.0
O670 O 0.38924 0.55716 0.14625 0.0
O671 O 0.45703 0.57617 0.11543 0.0
O672 O 0.93926 0.54668 0.66863 0.0
Mn673 Mn 0.86803 0.53272 0.69928 0.0
O674 O 0.97198 0.47593 0.6487 0.0
Mn675 Mn 0.9128 0.44826 0.64018 0.0
O676 O 0.80102 0.51904 0.73558 0.0
O677 O 0.88203 0.59443 0.74506 0.0
Mn678 Mn 0.8247 0.61989 0.72075 0.0
O679 O 0.8291 0.56632 0.64435 0.0
O680 O 0.76846 0.59181 0.7454 0.0
O681 O 0.90249 0.48866 0.74573 0.0
O682 O 0.91217 0.42013 0.7007 0.0
O683 O 0.84473 0.66529 0.7593 0.0
O684 O 0.8281 0.64238 0.6576 0.0
C685 C 0.8517 0.47082 0.61243 0.0
C686 C 0.97668 0.51967 0.65905 0.0
C687 C 0.76632 0.54643 0.75101 0.0
C688 C 0.88065 0.63675 0.76819 0.0
C689 C 0.83051 0.60862 0.62747 0.0
C690 C 0.91394 0.44401 0.74013 0.0
O691 O 0.85473 0.47289 0.65856 0.0
O692 O 0.88848 0.48798 0.59059 0.0
O693 O 0.48924 0.96122 0.67679 0.0
Mn694 Mn 0.50065 0.88473 0.6851 0.0
O695 O 0.55192 0.99687 0.64039 0.0
Mn696 Mn 0.58497 0.94064 0.63249 0.0
O697 O 0.51166 0.80829 0.708 0.0
O698 O 0.44164 0.8843 0.73119 0.0
Mn699 Mn 0.41775 0.82918 0.70033 0.0
O700 O 0.46086 0.8742 0.62527 0.0
O701 O 0.4414 0.78244 0.73993 0.0
O702 O 0.55114 0.90202 0.73437 0.0
O703 O 0.61689 0.92756 0.68885 0.0
O704 O 0.36692 0.86761 0.71026 0.0
O705 O 0.41526 0.81178 0.63503 0.0
C706 C 0.56636 0.87463 0.59528 0.0
C707 C 0.51272 0.99946 0.66299 0.0
C708 C 0.48692 0.77867 0.73655 0.0
C709 C 0.39584 0.89629 0.73293 0.0
C710 C 0.43517 0.84139 0.60711 0.0
C711 C 0.59601 0.91416 0.72814 0.0
O712 O 0.55727 0.88284 0.63992 0.0
O713 O 0.57626 0.91362 0.57224 0.0
O714 O 0.06435 0.509 0.65955 0.0
Mn715 Mn 0.14054 0.51679 0.67546 0.0
O716 O 0.03205 0.58377 0.65915 0.0
Mn717 Mn 0.08992 0.61605 0.65191 0.0
O718 O 0.21494 0.53113 0.70198 0.0
O719 O 0.13733 0.44956 0.71606 0.0
Mn720 Mn 0.19843 0.43865 0.6904 0.0
O721 O 0.15635 0.48596 0.6086 0.0
O722 O 0.24264 0.46235 0.73221 0.0
O723 O 0.1219 0.55597 0.73374 0.0
O724 O 0.11568 0.6344 0.70857 0.0
O725 O 0.18072 0.38029 0.7045 0.0
O726 O 0.21614 0.44143 0.62588 0.0
C727 C 0.1383 0.59431 0.59511 0.0
C728 C 0.02731 0.53839 0.65909 0.0
C729 C 0.2445 0.50758 0.73074 0.0
C730 C 0.14504 0.40252 0.72517 0.0
C731 C 0.18086 0.44883 0.59879 0.0
C732 C 0.12216 0.60195 0.74044 0.0
O733 O 0.14084 0.57901 0.63874 0.0
O734 O 0.10679 0.62784 0.58943 0.0
O735 O 0.54452 0.18805 0.633 0.0
Mn736 Mn 0.51788 0.15813 0.69709 0.0
O737 O 0.61193 0.22345 0.64662 0.0
Mn738 Mn 0.60323 0.21191 0.71237 0.0
O739 O 0.48538 0.13054 0.75748 0.0
O740 O 0.45261 0.16214 0.66299 0.0
Mn741 Mn 0.41989 0.11058 0.68587 0.0
O742 O 0.52413 0.08618 0.66968 0.0
O743 O 0.40615 0.13824 0.74297 0.0
O744 O 0.50605 0.22877 0.73005 0.0
O745 O 0.57699 0.26085 0.74928 0.0
O746 O 0.40125 0.11612 0.62429 0.0
O747 O 0.45357 0.05315 0.6915 0.0
C748 C 0.63185 0.15223 0.75001 0.0
C749 C 0.58792 0.19547 0.62006 0.0
C750 C 0.44135 0.13314 0.7716 0.0
C751 C 0.43418 0.14912 0.62179 0.0
C752 C 0.49597 0.04891 0.67517 0.0
C753 C 0.53157 0.26206 0.75162 0.0
O754 O 0.58674 0.1495 0.7329 0.0
O755 O 0.65651 0.1905 0.7388 0.0
O756 O 0.95125 0.4886 0.37089 0.0
Mn757 Mn 0.8806 0.51376 0.34908 0.0
O758 O 0.9937 0.55011 0.40099 0.0
Mn759 Mn 0.94128 0.58971 0.40816 0.0
O760 O 0.81382 0.53522 0.3155 0.0
O761 O 0.88105 0.45342 0.30151 0.0
Mn762 Mn 0.82612 0.43081 0.33239 0.0
O763 O 0.84024 0.48377 0.40522 0.0
O764 O 0.77346 0.46505 0.30968 0.0
O765 O 0.91714 0.56052 0.30396 0.0
O766 O 0.93803 0.6251 0.35294 0.0
O767 O 0.83907 0.38333 0.2936 0.0
O768 O 0.83218 0.40823 0.39528 0.0
C769 C 0.86883 0.57961 0.43702 0.0
C770 C 0.99216 0.50919 0.38159 0.0
C771 C 0.77747 0.50966 0.29962 0.0
C772 C 0.87341 0.41175 0.27894 0.0
C773 C 0.84032 0.44228 0.42387 0.0
C774 C 0.93075 0.60498 0.31197 0.0
O775 O 0.88135 0.5704 0.39348 0.0
O776 O 0.9057 0.58491 0.46464 0.0
O777 O 0.53953 0.94239 0.35973 0.0
Mn778 Mn 0.5185 0.87263 0.33096 0.0
O779 O 0.47282 0.98342 0.37757 0.0
Mn780 Mn 0.43455 0.92986 0.37753 0.0
O781 O 0.50218 0.80473 0.29667 0.0
O782 O 0.58253 0.87784 0.28818 0.0
Mn783 Mn 0.6051 0.82214 0.31736 0.0
O784 O 0.5458 0.83388 0.38908 0.0
O785 O 0.57389 0.76736 0.29416 0.0
O786 O 0.47794 0.90836 0.27963 0.0
O787 O 0.40659 0.92478 0.31863 0.0
O788 O 0.65315 0.83847 0.27955 0.0
O789 O 0.62258 0.82931 0.38166 0.0
C790 C 0.44356 0.86167 0.41345 0.0
C791 C 0.5176 0.98216 0.37145 0.0
C792 C 0.52913 0.76812 0.28435 0.0
C793 C 0.62529 0.87376 0.26662 0.0
C794 C 0.58672 0.83561 0.40884 0.0
C795 C 0.43275 0.92068 0.28076 0.0
O796 O 0.45645 0.86935 0.36939 0.0
O797 O 0.43571 0.90077 0.43676 0.0
O798 O 0.07891 0.51333 0.36535 0.0
Mn799 Mn 0.15211 0.50356 0.3383 0.0
O800 O 0.041 0.44154 0.36368 0.0
Mn801 Mn 0.09773 0.40626 0.361 0.0
O802 O 0.22228 0.48719 0.30516 0.0
O803 O 0.14962 0.57388 0.30017 0.0
Mn804 Mn 0.21192 0.58442 0.3256 0.0
O805 O 0.18218 0.52975 0.40169 0.0
O806 O 0.2613 0.55584 0.2913 0.0
O807 O 0.12374 0.46931 0.28015 0.0
O808 O 0.11821 0.39018 0.30123 0.0
O809 O 0.19907 0.63923 0.29843 0.0
O810 O 0.21939 0.59552 0.39145 0.0
C811 C 0.15174 0.41881 0.41498 0.0
C812 C 0.04009 0.48673 0.36997 0.0
C813 C 0.25829 0.51087 0.28565 0.0
C814 C 0.15925 0.61915 0.28456 0.0
C815 C 0.18701 0.57336 0.41424 0.0
C816 C 0.12079 0.42402 0.27025 0.0
O817 O 0.15217 0.43876 0.37276 0.0
O818 O 0.11821 0.38683 0.42007 0.0
O819 O 0.51721 0.06939 0.37234 0.0
Mn820 Mn 0.53012 0.14361 0.35363 0.0
O821 O 0.58843 0.02999 0.37584 0.0
Mn822 Mn 0.62662 0.08524 0.3766 0.0
O823 O 0.54919 0.2143 0.32454 0.0
O824 O 0.45976 0.14536 0.31699 0.0
Mn825 Mn 0.45246 0.20549 0.34714 0.0
O826 O 0.508 0.16918 0.42073 0.0
O827 O 0.48021 0.25211 0.30951 0.0
O828 O 0.56454 0.11877 0.29441 0.0
O829 O 0.64303 0.10617 0.31714 0.0
O830 O 0.39437 0.19379 0.32757 0.0
O831 O 0.44803 0.21482 0.41345 0.0
C832 C 0.61348 0.14239 0.42843 0.0
C833 C 0.54264 0.02984 0.37429 0.0
C834 C 0.52497 0.24818 0.30268 0.0
C835 C 0.41347 0.15647 0.30708 0.0
C836 C 0.46604 0.17941 0.43487 0.0
C837 C 0.6103 0.11538 0.28629 0.0
O838 O 0.59312 0.13855 0.38728 0.0
O839 O 0.64644 0.1104 0.43464 0.0
O840 O 0.65821 0.95114 0.54045 0.0
Mn841 Mn 0.68003 0.8805 0.51528 0.0
O842 O 0.62822 0.9936 0.47891 0.0
Mn843 Mn 0.621 0.94115 0.43935 0.0
O844 O 0.71361 0.81371 0.49383 0.0
O845 O 0.72758 0.88095 0.57563 0.0
Mn846 Mn 0.69673 0.82603 0.59825 0.0
O847 O 0.62384 0.84015 0.54525 0.0
O848 O 0.71946 0.77338 0.564 0.0
O849 O 0.72517 0.91703 0.46852 0.0
O850 O 0.67621 0.93788 0.40393 0.0
O851 O 0.73552 0.83902 0.64572 0.0
O852 O 0.63382 0.83202 0.62082 0.0
C853 C 0.59205 0.86886 0.44945 0.0
C854 C 0.64759 0.99204 0.51985 0.0
C855 C 0.72951 0.77739 0.51938 0.0
C856 C 0.75017 0.87335 0.61729 0.0
C857 C 0.60525 0.84015 0.58676 0.0
C858 C 0.71717 0.93063 0.42406 0.0
O859 O 0.63565 0.88122 0.45864 0.0
O860 O 0.56442 0.90571 0.44413 0.0
O861 O 0.66385 0.07878 0.51573 0.0
Mn862 Mn 0.69086 0.15199 0.5255 0.0
O863 O 0.66553 0.04088 0.58751 0.0
Mn864 Mn 0.66821 0.09761 0.6228 0.0
O865 O 0.72397 0.22219 0.54187 0.0
O866 O 0.72896 0.1495 0.45517 0.0
Mn867 Mn 0.70354 0.21179 0.44465 0.0
O868 O 0.6274 0.18199 0.49938 0.0
O869 O 0.73783 0.26119 0.47322 0.0
O870 O 0.74905 0.12367 0.55972 0.0
O871 O 0.72798 0.11812 0.63885 0.0
O872 O 0.73072 0.19894 0.38983 0.0
O873 O 0.63769 0.21924 0.43353 0.0
C874 C 0.61423 0.15155 0.61031 0.0
C875 C 0.65922 0.03997 0.54232 0.0
C876 C 0.74347 0.2582 0.51819 0.0
C877 C 0.74458 0.15913 0.4099 0.0
C878 C 0.61486 0.18696 0.45578 0.0
C879 C 0.75896 0.12071 0.605 0.0
O880 O 0.65644 0.15204 0.59031 0.0
O881 O 0.60912 0.11803 0.64229 0.0
O882 O 0.94236 0.66927 0.4896 0.0
Mn883 Mn 0.8726 0.69806 0.51057 0.0
O884 O 0.98336 0.65152 0.55633 0.0
Mn885 Mn 0.92975 0.65153 0.59453 0.0
O886 O 0.8047 0.73236 0.52684 0.0
O887 O 0.87786 0.74082 0.44654 0.0
Mn888 Mn 0.82214 0.71164 0.42395 0.0
O889 O 0.83384 0.63992 0.48328 0.0
O890 O 0.76736 0.73487 0.45513 0.0
O891 O 0.90833 0.7494 0.55115 0.0
O892 O 0.92469 0.71043 0.62251 0.0
O893 O 0.83852 0.74943 0.37591 0.0
O894 O 0.82927 0.64733 0.40648 0.0
C895 C 0.86169 0.61558 0.58551 0.0
C896 C 0.98212 0.65758 0.51155 0.0
C897 C 0.76811 0.74468 0.49989 0.0
C898 C 0.8738 0.76237 0.40378 0.0
C899 C 0.83554 0.62017 0.44235 0.0
C900 C 0.92065 0.74829 0.59634 0.0
O901 O 0.86923 0.65967 0.57262 0.0
O902 O 0.90078 0.59224 0.59337 0.0
O903 O 0.36051 0.93919 0.48247 0.0
Mn904 Mn 0.32987 0.86795 0.49641 0.0
O905 O 0.38049 0.97191 0.55322 0.0
Mn906 Mn 0.38898 0.91272 0.58086 0.0
O907 O 0.29358 0.80094 0.51006 0.0
O908 O 0.2841 0.88196 0.43469 0.0
Mn909 Mn 0.30839 0.82461 0.40922 0.0
O910 O 0.38484 0.82907 0.4628 0.0
O911 O 0.28373 0.76838 0.43729 0.0
O912 O 0.2834 0.9024 0.54049 0.0
O913 O 0.32845 0.91213 0.60899 0.0
O914 O 0.26984 0.84464 0.36383 0.0
O915 O 0.37154 0.82796 0.38671 0.0
C916 C 0.41673 0.85168 0.55825 0.0
C917 C 0.37013 0.97661 0.50948 0.0
C918 C 0.27814 0.76623 0.48267 0.0
C919 C 0.26097 0.88057 0.39236 0.0
C920 C 0.40167 0.8304 0.42047 0.0
C921 C 0.289 0.91387 0.58513 0.0
O922 O 0.37059 0.85466 0.55622 0.0
O923 O 0.43865 0.88845 0.54116 0.0
O924 O 0.08627 0.35937 0.505 0.0
Mn925 Mn 0.15823 0.33198 0.51126 0.0
O926 O 0.05323 0.33751 0.57551 0.0
Mn927 Mn 0.11067 0.34316 0.6092 0.0
O928 O 0.2289 0.29902 0.52309 0.0
O929 O 0.14962 0.29616 0.4424 0.0
Mn930 Mn 0.21204 0.31669 0.42593 0.0
O931 O 0.18813 0.3961 0.48464 0.0
O932 O 0.26099 0.2798 0.45217 0.0
O933 O 0.13065 0.27157 0.54375 0.0
O934 O 0.13834 0.28609 0.62297 0.0
O935 O 0.19064 0.29022 0.37266 0.0
O936 O 0.22355 0.38243 0.41716 0.0
C937 C 0.14916 0.40724 0.595 0.0
C938 C 0.04899 0.35389 0.53314 0.0
C939 C 0.26219 0.27746 0.49758 0.0
C940 C 0.15236 0.27903 0.39731 0.0
C941 C 0.19568 0.40903 0.44127 0.0
C942 C 0.13325 0.25745 0.58777 0.0
O943 O 0.16225 0.36608 0.57653 0.0
O944 O 0.11613 0.40473 0.6279 0.0
O945 O 0.36962 0.06428 0.52014 0.0
Mn946 Mn 0.35372 0.14047 0.51233 0.0
O947 O 0.37008 0.03195 0.44538 0.0
Mn948 Mn 0.37727 0.0898 0.41307 0.0
O949 O 0.32719 0.21484 0.49795 0.0
O950 O 0.31313 0.1373 0.57957 0.0
Mn951 Mn 0.33878 0.19842 0.59046 0.0
O952 O 0.4206 0.15632 0.54313 0.0
O953 O 0.297 0.24263 0.56671 0.0
O954 O 0.29543 0.1218 0.47318 0.0
O955 O 0.32059 0.1155 0.39475 0.0
O956 O 0.32458 0.18078 0.64881 0.0
O957 O 0.40333 0.21611 0.58782 0.0
C958 C 0.43403 0.13823 0.4347 0.0
C959 C 0.37011 0.02723 0.49076 0.0
C960 C 0.29845 0.24443 0.52148 0.0
C961 C 0.30395 0.14507 0.6266 0.0
C962 C 0.43042 0.18087 0.58024 0.0
C963 C 0.28872 0.12202 0.42721 0.0
O964 O 0.39042 0.14072 0.4501 0.0
O965 O 0.43973 0.10671 0.40118 0.0
O966 O 0.96129 0.35232 0.53989 0.0
Mn967 Mn 0.88479 0.34401 0.52848 0.0
O968 O 0.99695 0.38872 0.47723 0.0
Mn969 Mn 0.94069 0.39663 0.4442 0.0
O970 O 0.80835 0.32109 0.51749 0.0
O971 O 0.88435 0.29792 0.58746 0.0
Mn972 Mn 0.82925 0.32876 0.61142 0.0
O973 O 0.87424 0.40385 0.56826 0.0
O974 O 0.78252 0.28913 0.58774 0.0
O975 O 0.90209 0.29473 0.47799 0.0
O976 O 0.92765 0.34025 0.41226 0.0
O977 O 0.86779 0.31888 0.66219 0.0
O978 O 0.81182 0.39405 0.61387 0.0
C979 C 0.87479 0.43383 0.46279 0.0
C980 C 0.99954 0.3661 0.51641 0.0
C981 C 0.77875 0.29253 0.54222 0.0
C982 C 0.89642 0.29619 0.63323 0.0
C983 C 0.84141 0.42198 0.59394 0.0
C984 C 0.91426 0.30096 0.43313 0.0
O985 O 0.88287 0.38917 0.47187 0.0
O986 O 0.91375 0.45692 0.45285 0.0
O987 O 0.16906 0.60825 0.52115 0.0
Mn988 Mn 0.1436 0.67541 0.49905 0.0
O989 O 0.21484 0.61563 0.58113 0.0
Mn990 Mn 0.20552 0.68193 0.57669 0.0
O991 O 0.11882 0.73465 0.46464 0.0
O992 O 0.13843 0.64172 0.43609 0.0
Mn993 Mn 0.08519 0.65241 0.40255 0.0
O994 O 0.06935 0.65677 0.51196 0.0
O995 O 0.10607 0.71191 0.38618 0.0
O996 O 0.21434 0.70443 0.47995 0.0
O997 O 0.25214 0.71956 0.54891 0.0
O998 O 0.11049 0.5945 0.3825 0.0
O999 O 0.02995 0.65305 0.44075 0.0
C1000 C 0.1565 0.722 0.61566 0.0
C1001 C 0.17947 0.59416 0.56307 0.0
C1002 C 0.11537 0.74275 0.41889 0.0
C1003 C 0.14245 0.60071 0.41548 0.0
C1004 C 0.02981 0.65472 0.48654 0.0
C1005 C 0.24821 0.72633 0.50415 0.0
O1006 O 0.14539 0.71206 0.56939 0.0
O1007 O 0.19384 0.70153 0.63476 0.0
loop_
_geom_bond_atom_site_label_1
_geom_bond_atom_site_label_2
_geom_bond_distance
_geom_bond_site_symmetry_2
_ccdc_geom_bond_type
O0 Mn1 2.163 . S
O0 C14 1.244 1_455 S
Mn1 O0 2.163 . S
Mn1 O4 2.160 1_455 S
Mn1 O5 2.221 . S
Mn1 O7 2.163 . S
Mn1 O9 2.160 1_455 S
Mn1 O19 2.221 1_455 S
O2 Mn3 2.087 . S
O2 C14 1.256 . S
Mn3 O2 2.087 . S
Mn3 O10 2.089 . S
Mn3 O19 2.290 . S
Mn3 O20 2.251 . S
O4 Mn1 2.160 1_655 S
O4 C15 1.239 1_655 S
O5 Mn1 2.221 . S
O5 Mn6 2.290 . S
O5 C16 1.278 . S
Mn6 O5 2.290 . S
Mn6 O8 2.089 . S
Mn6 O11 2.251 . S
Mn6 O12 2.087 . S
O7 Mn1 2.163 . S
O7 C17 1.244 . S
O8 Mn6 2.089 . S
O8 C15 1.256 . S
O9 Mn1 2.160 1_655 S
O9 C18 1.239 . S
O10 Mn3 2.089 . S
O10 C18 1.256 . S
O11 Mn6 2.251 . S
O11 C16 1.241 . S
O12 Mn6 2.087 . S
O12 C17 1.256 . S
C13 O19 1.278 . S
C13 O20 1.241 . S
C14 O0 1.244 1_655 S
C14 O2 1.256 . S
C15 O4 1.239 1_455 S
C15 O8 1.256 . S
C16 O5 1.278 . S
C16 O11 1.241 . S
C17 O7 1.244 . S
C17 O12 1.256 . S
C18 O9 1.239 . S
C18 O10 1.256 . S
O19 Mn1 2.221 1_655 S
O19 Mn3 2.290 . S
O19 C13 1.278 . S
O20 Mn3 2.251 . S
O20 C13 1.241 . S
O21 Mn22 2.163 . S
O21 C35 1.244 1_545 S
Mn22 O21 2.163 . S
Mn22 O25 2.160 1_545 S
Mn22 O26 2.221 . S
Mn22 O28 2.163 . S
Mn22 O30 2.160 1_545 S
Mn22 O40 2.221 1_545 S
O23 Mn24 2.087 . S
O23 C35 1.256 . S
Mn24 O23 2.087 . S
Mn24 O31 2.089 . S
Mn24 O40 2.290 . S
Mn24 O41 2.251 . S
O25 Mn22 2.160 1_565 S
O25 C36 1.239 1_565 S
O26 Mn22 2.221 . S
O26 Mn27 2.290 . S
O26 C37 1.278 . S
Mn27 O26 2.290 . S
Mn27 O29 2.089 . S
Mn27 O32 2.251 . S
Mn27 O33 2.087 . S
O28 Mn22 2.163 . S
O28 C38 1.244 . S
O29 Mn27 2.089 . S
O29 C36 1.256 . S
O30 Mn22 2.160 1_565 S
O30 C39 1.239 . S
O31 Mn24 2.089 . S
O31 C39 1.256 . S
O32 Mn27 2.251 . S
O32 C37 1.241 . S
O33 Mn27 2.087 . S
O33 C38 1.256 . S
C34 O40 1.278 . S
C34 O41 1.241 . S
C35 O21 1.244 1_565 S
C35 O23 1.256 . S
C36 O25 1.239 1_545 S
C36 O29 1.256 . S
C37 O26 1.278 . S
C37 O32 1.241 . S
C38 O28 1.244 . S
C38 O33 1.256 . S
C39 O30 1.239 . S
C39 O31 1.256 . S
O40 Mn22 2.221 1_565 S
O40 Mn24 2.290 . S
O40 C34 1.278 . S
O41 Mn24 2.251 . S
O41 C34 1.241 . S
O42 Mn43 2.163 1_655 S
O42 C56 1.244 1_655 S
Mn43 O42 2.163 1_455 S
Mn43 O46 2.160 . S
Mn43 O47 2.221 1_455 S
Mn43 O49 2.163 1_455 S
Mn43 O51 2.160 . S
Mn43 O61 2.221 . S
O44 Mn45 2.087 . S
O44 C56 1.256 . S
Mn45 O44 2.087 . S
Mn45 O52 2.089 . S
Mn45 O61 2.290 . S
Mn45 O62 2.251 . S
O46 Mn43 2.160 . S
O46 C57 1.239 1_455 S
O47 Mn43 2.221 1_655 S
O47 Mn48 2.290 . S
O47 C58 1.278 . S
Mn48 O47 2.290 . S
Mn48 O50 2.089 . S
Mn48 O53 2.251 . S
Mn48 O54 2.087 . S
O49 Mn43 2.163 1_655 S
O49 C59 1.244 . S
O50 Mn48 2.089 . S
O50 C57 1.256 . S
O51 Mn43 2.160 . S
O51 C60 1.239 . S
O52 Mn45 2.089 . S
O52 C60 1.256 . S
O53 Mn48 2.251 . S
O53 C58 1.241 . S
O54 Mn48 2.087 . S
O54 C59 1.256 . S
C55 O61 1.278 . S
C55 O62 1.241 . S
C56 O42 1.244 1_455 S
C56 O44 1.256 . S
C57 O46 1.239 1_655 S
C57 O50 1.256 . S
C58 O47 1.278 . S
C58 O53 1.241 . S
C59 O49 1.244 . S
C59 O54 1.256 . S
C60 O51 1.239 . S
C60 O52 1.256 . S
O61 Mn43 2.221 . S
O61 Mn45 2.290 . S
O61 C55 1.278 . S
O62 Mn45 2.251 . S
O62 C55 1.241 . S
O63 Mn64 2.163 1_565 S
O63 C77 1.244 1_565 S
Mn64 O63 2.163 1_545 S
Mn64 O67 2.160 . S
Mn64 O68 2.221 1_545 S
Mn64 O70 2.163 1_545 S
Mn64 O72 2.160 . S
Mn64 O82 2.221 . S
O65 Mn66 2.087 . S
O65 C77 1.256 . S
Mn66 O65 2.087 . S
Mn66 O73 2.089 . S
Mn66 O82 2.290 . S
Mn66 O83 2.251 . S
O67 Mn64 2.160 . S
O67 C78 1.239 1_545 S
O68 Mn64 2.221 1_565 S
O68 Mn69 2.290 . S
O68 C79 1.278 . S
Mn69 O68 2.290 . S
Mn69 O71 2.089 . S
Mn69 O74 2.251 . S
Mn69 O75 2.087 . S
O70 Mn64 2.163 1_565 S
O70 C80 1.244 . S
O71 Mn69 2.089 . S
O71 C78 1.256 . S
O72 Mn64 2.160 . S
O72 C81 1.239 . S
O73 Mn66 2.089 . S
O73 C81 1.256 . S
O74 Mn69 2.251 . S
O74 C79 1.241 . S
O75 Mn69 2.087 . S
O75 C80 1.256 . S
C76 O82 1.278 . S
C76 O83 1.241 . S
C77 O63 1.244 1_545 S
C77 O65 1.256 . S
C78 O67 1.239 1_565 S
C78 O71 1.256 . S
C79 O68 1.278 . S
C79 O74 1.241 . S
C80 O70 1.244 . S
C80 O75 1.256 . S
C81 O72 1.239 . S
C81 O73 1.256 . S
O82 Mn64 2.221 . S
O82 Mn66 2.290 . S
O82 C76 1.278 . S
O83 Mn66 2.251 . S
O83 C76 1.241 . S
O84 Mn85 2.163 . S
O84 C98 1.244 1_455 S
Mn85 O84 2.163 . S
Mn85 O88 2.160 1_455 S
Mn85 O89 2.221 . S
Mn85 O91 2.163 . S
Mn85 O93 2.160 1_455 S
Mn85 O103 2.221 1_455 S
O86 Mn87 2.087 . S
O86 C98 1.256 . S
Mn87 O86 2.087 . S
Mn87 O94 2.089 . S
Mn87 O103 2.290 . S
Mn87 O104 2.251 . S
O88 Mn85 2.160 1_655 S
O88 C99 1.239 1_655 S
O89 Mn85 2.221 . S
O89 Mn90 2.290 . S
O89 C100 1.278 . S
Mn90 O89 2.290 . S
Mn90 O92 2.089 . S
Mn90 O95 2.251 . S
Mn90 O96 2.087 . S
O91 Mn85 2.163 . S
O91 C101 1.244 . S
O92 Mn90 2.089 . S
O92 C99 1.256 . S
O93 Mn85 2.160 1_655 S
O93 C102 1.239 . S
O94 Mn87 2.089 . S
O94 C102 1.256 . S
O95 Mn90 2.251 . S
O95 C100 1.241 . S
O96 Mn90 2.087 . S
O96 C101 1.256 . S
C97 O103 1.278 . S
C97 O104 1.241 . S
C98 O84 1.244 1_655 S
C98 O86 1.256 . S
C99 O88 1.239 1_455 S
C99 O92 1.256 . S
C100 O89 1.278 . S
C100 O95 1.241 . S
C101 O91 1.244 . S
C101 O96 1.256 . S
C102 O93 1.239 . S
C102 O94 1.256 . S
O103 Mn85 2.221 1_655 S
O103 Mn87 2.290 . S
O103 C97 1.278 . S
O104 Mn87 2.251 . S
O104 C97 1.241 . S
O105 Mn106 2.163 . S
O105 C119 1.244 1_545 S
Mn106 O105 2.163 . S
Mn106 O109 2.160 1_545 S
Mn106 O110 2.221 . S
Mn106 O112 2.163 . S
Mn106 O114 2.160 1_545 S
Mn106 O124 2.221 1_545 S
O107 Mn108 2.087 . S
O107 C119 1.256 . S
Mn108 O107 2.087 . S
Mn108 O115 2.089 . S
Mn108 O124 2.290 . S
Mn108 O125 2.251 . S
O109 Mn106 2.160 1_565 S
O109 C120 1.239 1_565 S
O110 Mn106 2.221 . S
O110 Mn111 2.290 . S
O110 C121 1.278 . S
Mn111 O110 2.290 . S
Mn111 O113 2.089 . S
Mn111 O116 2.251 . S
Mn111 O117 2.087 . S
O112 Mn106 2.163 . S
O112 C122 1.244 . S
O113 Mn111 2.089 . S
O113 C120 1.256 . S
O114 Mn106 2.160 1_565 S
O114 C123 1.239 . S
O115 Mn108 2.089 . S
O115 C123 1.256 . S
O116 Mn111 2.251 . S
O116 C121 1.241 . S
O117 Mn111 2.087 . S
O117 C122 1.256 . S
C118 O124 1.278 . S
C118 O125 1.241 . S
C119 O105 1.244 1_565 S
C119 O107 1.256 . S
C120 O109 1.239 1_545 S
C120 O113 1.256 . S
C121 O110 1.278 . S
C121 O116 1.241 . S
C122 O112 1.244 . S
C122 O117 1.256 . S
C123 O114 1.239 . S
C123 O115 1.256 . S
O124 Mn106 2.221 1_565 S
O124 Mn108 2.290 . S
O124 C118 1.278 . S
O125 Mn108 2.251 . S
O125 C118 1.241 . S
O126 Mn127 2.163 1_655 S
O126 C140 1.244 1_655 S
Mn127 O126 2.163 1_455 S
Mn127 O130 2.160 . S
Mn127 O131 2.221 1_455 S
Mn127 O133 2.163 1_455 S
Mn127 O135 2.160 . S
Mn127 O145 2.221 . S
O128 Mn129 2.087 . S
O128 C140 1.256 . S
Mn129 O128 2.087 . S
Mn129 O136 2.089 . S
Mn129 O145 2.290 . S
Mn129 O146 2.251 . S
O130 Mn127 2.160 . S
O130 C141 1.239 1_455 S
O131 Mn127 2.221 1_655 S
O131 Mn132 2.290 . S
O131 C142 1.278 . S
Mn132 O131 2.290 . S
Mn132 O134 2.089 . S
Mn132 O137 2.251 . S
Mn132 O138 2.087 . S
O133 Mn127 2.163 1_655 S
O133 C143 1.244 . S
O134 Mn132 2.089 . S
O134 C141 1.256 . S
O135 Mn127 2.160 . S
O135 C144 1.239 . S
O136 Mn129 2.089 . S
O136 C144 1.256 . S
O137 Mn132 2.251 . S
O137 C142 1.241 . S
O138 Mn132 2.087 . S
O138 C143 1.256 . S
C139 O145 1.278 . S
C139 O146 1.241 . S
C140 O126 1.244 1_455 S
C140 O128 1.256 . S
C141 O130 1.239 1_655 S
C141 O134 1.256 . S
C142 O131 1.278 . S
C142 O137 1.241 . S
C143 O133 1.244 . S
C143 O138 1.256 . S
C144 O135 1.239 . S
C144 O136 1.256 . S
O145 Mn127 2.221 . S
O145 Mn129 2.290 . S
O145 C139 1.278 . S
O146 Mn129 2.251 . S
O146 C139 1.241 . S
O147 Mn148 2.163 1_565 S
O147 C161 1.244 1_565 S
Mn148 O147 2.163 1_545 S
Mn148 O151 2.160 . S
Mn148 O152 2.221 1_545 S
Mn148 O154 2.163 1_545 S
Mn148 O156 2.160 . S
Mn148 O166 2.221 . S
O149 Mn150 2.087 . S
O149 C161 1.256 . S
Mn150 O149 2.087 . S
Mn150 O157 2.089 . S
Mn150 O166 2.290 . S
Mn150 O167 2.251 . S
O151 Mn148 2.160 . S
O151 C162 1.239 1_545 S
O152 Mn148 2.221 1_565 S
O152 Mn153 2.290 . S
O152 C163 1.278 . S
Mn153 O152 2.290 . S
Mn153 O155 2.089 . S
Mn153 O158 2.251 . S
Mn153 O159 2.087 . S
O154 Mn148 2.163 1_565 S
O154 C164 1.244 . S
O155 Mn153 2.089 . S
O155 C162 1.256 . S
O156 Mn148 2.160 . S
O156 C165 1.239 . S
O157 Mn150 2.089 . S
O157 C165 1.256 . S
O158 Mn153 2.251 . S
O158 C163 1.241 . S
O159 Mn153 2.087 . S
O159 C164 1.256 . S
C160 O166 1.278 . S
C160 O167 1.241 . S
C161 O147 1.244 1_545 S
C161 O149 1.256 . S
C162 O151 1.239 1_565 S
C162 O155 1.256 . S
C163 O152 1.278 . S
C163 O158 1.241 . S
C164 O154 1.244 . S
C164 O159 1.256 . S
C165 O156 1.239 . S
C165 O157 1.256 . S
O166 Mn148 2.221 . S
O166 Mn150 2.290 . S
O166 C160 1.278 . S
O167 Mn150 2.251 . S
O167 C160 1.241 . S
O168 Mn169 2.163 . S
O168 C182 1.244 1_545 S
Mn169 O168 2.163 . S
Mn169 O172 2.160 1_545 S
Mn169 O173 2.221 . S
Mn169 O175 2.163 . S
Mn169 O177 2.160 1_545 S
Mn169 O187 2.221 1_545 S
O170 Mn171 2.087 . S
O170 C182 1.256 . S
Mn171 O170 2.087 . S
Mn171 O178 2.089 . S
Mn171 O187 2.290 . S
Mn171 O188 2.251 . S
O172 Mn169 2.160 1_565 S
O172 C183 1.239 1_565 S
O173 Mn169 2.221 . S
O173 Mn174 2.290 . S
O173 C184 1.278 . S
Mn174 O173 2.290 . S
Mn174 O176 2.089 . S
Mn174 O179 2.251 . S
Mn174 O180 2.087 . S
O175 Mn169 2.163 . S
O175 C185 1.244 . S
O176 Mn174 2.089 . S
O176 C183 1.256 . S
O177 Mn169 2.160 1_565 S
O177 C186 1.239 . S
O178 Mn171 2.089 . S
O178 C186 1.256 . S
O179 Mn174 2.251 . S
O179 C184 1.241 . S
O180 Mn174 2.087 . S
O180 C185 1.256 . S
C181 O187 1.278 . S
C181 O188 1.241 . S
C182 O168 1.244 1_565 S
C182 O170 1.256 . S
C183 O172 1.239 1_545 S
C183 O176 1.256 . S
C184 O173 1.278 . S
C184 O179 1.241 . S
C185 O175 1.244 . S
C185 O180 1.256 . S
C186 O177 1.239 . S
C186 O178 1.256 . S
O187 Mn169 2.221 1_565 S
O187 Mn171 2.290 . S
O187 C181 1.278 . S
O188 Mn171 2.251 . S
O188 C181 1.241 . S
O189 Mn190 2.163 1_655 S
O189 C203 1.244 1_655 S
Mn190 O189 2.163 1_455 S
Mn190 O193 2.160 . S
Mn190 O194 2.221 1_455 S
Mn190 O196 2.163 1_455 S
Mn190 O198 2.160 . S
Mn190 O208 2.221 . S
O191 Mn192 2.087 . S
O191 C203 1.256 . S
Mn192 O191 2.087 . S
Mn192 O199 2.089 . S
Mn192 O208 2.290 . S
Mn192 O209 2.251 . S
O193 Mn190 2.160 . S
O193 C204 1.239 1_455 S
O194 Mn190 2.221 1_655 S
O194 Mn195 2.290 . S
O194 C205 1.278 . S
Mn195 O194 2.290 . S
Mn195 O197 2.089 . S
Mn195 O200 2.251 . S
Mn195 O201 2.087 . S
O196 Mn190 2.163 1_655 S
O196 C206 1.244 . S
O197 Mn195 2.089 . S
O197 C204 1.256 . S
O198 Mn190 2.160 . S
O198 C207 1.239 . S
O199 Mn192 2.089 . S
O199 C207 1.256 . S
O200 Mn195 2.251 . S
O200 C205 1.241 . S
O201 Mn195 2.087 . S
O201 C206 1.256 . S
C202 O208 1.278 . S
C202 O209 1.241 . S
C203 O189 1.244 1_455 S
C203 O191 1.256 . S
C204 O193 1.239 1_655 S
C204 O197 1.256 . S
C205 O194 1.278 . S
C205 O200 1.241 . S
C206 O196 1.244 . S
C206 O201 1.256 . S
C207 O198 1.239 . S
C207 O199 1.256 . S
O208 Mn190 2.221 . S
O208 Mn192 2.290 . S
O208 C202 1.278 . S
O209 Mn192 2.251 . S
O209 C202 1.241 . S
O210 Mn211 2.163 1_565 S
O210 C224 1.244 1_565 S
Mn211 O210 2.163 1_545 S
Mn211 O214 2.160 . S
Mn211 O215 2.221 1_545 S
Mn211 O217 2.163 1_545 S
Mn211 O219 2.160 . S
Mn211 O229 2.221 . S
O212 Mn213 2.087 . S
O212 C224 1.256 . S
Mn213 O212 2.087 . S
Mn213 O220 2.089 . S
Mn213 O229 2.290 . S
Mn213 O230 2.251 . S
O214 Mn211 2.160 . S
O214 C225 1.239 1_545 S
O215 Mn211 2.221 1_565 S
O215 Mn216 2.290 . S
O215 C226 1.278 . S
Mn216 O215 2.290 . S
Mn216 O218 2.089 . S
Mn216 O221 2.251 . S
Mn216 O222 2.087 . S
O217 Mn211 2.163 1_565 S
O217 C227 1.244 . S
O218 Mn216 2.089 . S
O218 C225 1.256 . S
O219 Mn211 2.160 . S
O219 C228 1.239 . S
O220 Mn213 2.089 . S
O220 C228 1.256 . S
O221 Mn216 2.251 . S
O221 C226 1.241 . S
O222 Mn216 2.087 . S
O222 C227 1.256 . S
C223 O229 1.278 . S
C223 O230 1.241 . S
C224 O210 1.244 1_545 S
C224 O212 1.256 . S
C225 O214 1.239 1_565 S
C225 O218 1.256 . S
C226 O215 1.278 . S
C226 O221 1.241 . S
C227 O217 1.244 . S
C227 O222 1.256 . S
C228 O219 1.239 . S
C228 O220 1.256 . S
O229 Mn211 2.221 . S
O229 Mn213 2.290 . S
O229 C223 1.278 . S
O230 Mn213 2.251 . S
O230 C223 1.241 . S
O231 Mn232 2.163 . S
O231 C245 1.244 . S
Mn232 O231 2.163 . S
Mn232 O235 2.160 1_455 S
Mn232 O236 2.221 1_455 S
Mn232 O238 2.163 . S
Mn232 O240 2.160 1_455 S
Mn232 O250 2.221 . S
O233 Mn234 2.087 . S
O233 C245 1.256 . S
Mn234 O233 2.087 . S
Mn234 O241 2.089 . S
Mn234 O250 2.290 . S
Mn234 O251 2.251 . S
O235 Mn232 2.160 1_655 S
O235 C246 1.239 . S
O236 Mn232 2.221 1_655 S
O236 Mn237 2.290 . S
O236 C247 1.278 . S
Mn237 O236 2.290 . S
Mn237 O239 2.089 . S
Mn237 O242 2.251 . S
Mn237 O243 2.087 . S
O238 Mn232 2.163 . S
O238 C248 1.244 1_455 S
O239 Mn237 2.089 . S
O239 C246 1.256 . S
O240 Mn232 2.160 1_655 S
O240 C249 1.239 1_655 S
O241 Mn234 2.089 . S
O241 C249 1.256 . S
O242 Mn237 2.251 . S
O242 C247 1.241 . S
O243 Mn237 2.087 . S
O243 C248 1.256 . S
C244 O250 1.278 . S
C244 O251 1.241 . S
C245 O231 1.244 . S
C245 O233 1.256 . S
C246 O235 1.239 . S
C246 O239 1.256 . S
C247 O236 1.278 . S
C247 O242 1.241 . S
C248 O238 1.244 1_655 S
C248 O243 1.256 . S
C249 O240 1.239 1_455 S
C249 O241 1.256 . S
O250 Mn232 2.221 . S
O250 Mn234 2.290 . S
O250 C244 1.278 . S
O251 Mn234 2.251 . S
O251 C244 1.241 . S
O252 Mn253 2.163 1_565 S
O252 C266 1.244 1_565 S
Mn253 O252 2.163 1_545 S
Mn253 O256 2.160 . S
Mn253 O257 2.221 1_545 S
Mn253 O259 2.163 1_545 S
Mn253 O261 2.160 . S
Mn253 O271 2.221 . S
O254 Mn255 2.087 . S
O254 C266 1.256 . S
Mn255 O254 2.087 . S
Mn255 O262 2.089 . S
Mn255 O271 2.290 . S
Mn255 O272 2.251 . S
O256 Mn253 2.160 . S
O256 C267 1.239 1_545 S
O257 Mn253 2.221 1_565 S
O257 Mn258 2.290 . S
O257 C268 1.278 . S
Mn258 O257 2.290 . S
Mn258 O260 2.089 . S
Mn258 O263 2.251 . S
Mn258 O264 2.087 . S
O259 Mn253 2.163 1_565 S
O259 C269 1.244 . S
O260 Mn258 2.089 . S
O260 C267 1.256 . S
O261 Mn253 2.160 . S
O261 C270 1.239 . S
O262 Mn255 2.089 . S
O262 C270 1.256 . S
O263 Mn258 2.251 . S
O263 C268 1.241 . S
O264 Mn258 2.087 . S
O264 C269 1.256 . S
C265 O271 1.278 . S
C265 O272 1.241 . S
C266 O252 1.244 1_545 S
C266 O254 1.256 . S
C267 O256 1.239 1_565 S
C267 O260 1.256 . S
C268 O257 1.278 . S
C268 O263 1.241 . S
C269 O259 1.244 . S
C269 O264 1.256 . S
C270 O261 1.239 . S
C270 O262 1.256 . S
O271 Mn253 2.221 . S
O271 Mn255 2.290 . S
O271 C265 1.278 . S
O272 Mn255 2.251 . S
O272 C265 1.241 . S
O273 Mn274 2.163 . S
O273 C287 1.244 1_455 S
Mn274 O273 2.163 . S
Mn274 O277 2.160 1_455 S
Mn274 O278 2.221 . S
Mn274 O280 2.163 . S
Mn274 O282 2.160 1_455 S
Mn274 O292 2.221 1_455 S
O275 Mn276 2.087 . S
O275 C287 1.256 . S
Mn276 O275 2.087 . S
Mn276 O283 2.089 . S
Mn276 O292 2.290 . S
Mn276 O293 2.251 . S
O277 Mn274 2.160 1_655 S
O277 C288 1.239 1_655 S
O278 Mn274 2.221 . S
O278 Mn279 2.290 . S
O278 C289 1.278 . S
Mn279 O278 2.290 . S
Mn279 O281 2.089 . S
Mn279 O284 2.251 . S
Mn279 O285 2.087 . S
O280 Mn274 2.163 . S
O280 C290 1.244 . S
O281 Mn279 2.089 . S
O281 C288 1.256 . S
O282 Mn274 2.160 1_655 S
O282 C291 1.239 . S
O283 Mn276 2.089 . S
O283 C291 1.256 . S
O284 Mn279 2.251 . S
O284 C289 1.241 . S
O285 Mn279 2.087 . S
O285 C290 1.256 . S
C286 O292 1.278 . S
C286 O293 1.241 . S
C287 O273 1.244 1_655 S
C287 O275 1.256 . S
C288 O277 1.239 1_455 S
C288 O281 1.256 . S
C289 O278 1.278 . S
C289 O284 1.241 . S
C290 O280 1.244 . S
C290 O285 1.256 . S
C291 O282 1.239 . S
C291 O283 1.256 . S
O292 Mn274 2.221 1_655 S
O292 Mn276 2.290 . S
O292 C286 1.278 . S
O293 Mn276 2.251 . S
O293 C286 1.241 . S
O294 Mn295 2.163 . S
O294 C308 1.244 1_545 S
Mn295 O294 2.163 . S
Mn295 O298 2.160 1_545 S
Mn295 O299 2.221 . S
Mn295 O301 2.163 . S
Mn295 O303 2.160 1_545 S
Mn295 O313 2.221 1_545 S
O296 Mn297 2.087 . S
O296 C308 1.256 . S
Mn297 O296 2.087 . S
Mn297 O304 2.089 . S
Mn297 O313 2.290 . S
Mn297 O314 2.251 . S
O298 Mn295 2.160 1_565 S
O298 C309 1.239 1_565 S
O299 Mn295 2.221 . S
O299 Mn300 2.290 . S
O299 C310 1.278 . S
Mn300 O299 2.290 . S
Mn300 O302 2.089 . S
Mn300 O305 2.251 . S
Mn300 O306 2.087 . S
O301 Mn295 2.163 . S
O301 C311 1.244 . S
O302 Mn300 2.089 . S
O302 C309 1.256 . S
O303 Mn295 2.160 1_565 S
O303 C312 1.239 . S
O304 Mn297 2.089 . S
O304 C312 1.256 . S
O305 Mn300 2.251 . S
O305 C310 1.241 . S
O306 Mn300 2.087 . S
O306 C311 1.256 . S
C307 O313 1.278 . S
C307 O314 1.241 . S
C308 O294 1.244 1_565 S
C308 O296 1.256 . S
C309 O298 1.239 1_545 S
C309 O302 1.256 . S
C310 O299 1.278 . S
C310 O305 1.241 . S
C311 O301 1.244 . S
C311 O306 1.256 . S
C312 O303 1.239 . S
C312 O304 1.256 . S
O313 Mn295 2.221 1_565 S
O313 Mn297 2.290 . S
O313 C307 1.278 . S
O314 Mn297 2.251 . S
O314 C307 1.241 . S
O315 Mn316 2.163 1_655 S
O315 C329 1.244 1_655 S
Mn316 O315 2.163 1_455 S
Mn316 O319 2.160 . S
Mn316 O320 2.221 1_455 S
Mn316 O322 2.163 1_455 S
Mn316 O324 2.160 . S
Mn316 O334 2.221 . S
O317 Mn318 2.087 . S
O317 C329 1.256 . S
Mn318 O317 2.087 . S
Mn318 O325 2.089 . S
Mn318 O334 2.290 . S
Mn318 O335 2.251 . S
O319 Mn316 2.160 . S
O319 C330 1.239 1_455 S
O320 Mn316 2.221 1_655 S
O320 Mn321 2.290 . S
O320 C331 1.278 . S
Mn321 O320 2.290 . S
Mn321 O323 2.089 . S
Mn321 O326 2.251 . S
Mn321 O327 2.087 . S
O322 Mn316 2.163 1_655 S
O322 C332 1.244 . S
O323 Mn321 2.089 . S
O323 C330 1.256 . S
O324 Mn316 2.160 . S
O324 C333 1.239 . S
O325 Mn318 2.089 . S
O325 C333 1.256 . S
O326 Mn321 2.251 . S
O326 C331 1.241 . S
O327 Mn321 2.087 . S
O327 C332 1.256 . S
C328 O334 1.278 . S
C328 O335 1.241 . S
C329 O315 1.244 1_455 S
C329 O317 1.256 . S
C330 O319 1.239 1_655 S
C330 O323 1.256 . S
C331 O320 1.278 . S
C331 O326 1.241 . S
C332 O322 1.244 . S
C332 O327 1.256 . S
C333 O324 1.239 . S
C333 O325 1.256 . S
O334 Mn316 2.221 . S
O334 Mn318 2.290 . S
O334 C328 1.278 . S
O335 Mn318 2.251 . S
O335 C328 1.241 . S
O336 Mn337 2.163 . S
O336 C350 1.244 1_554 S
Mn337 O336 2.163 . S
Mn337 O340 2.160 1_554 S
Mn337 O341 2.221 . S
Mn337 O343 2.163 . S
Mn337 O345 2.160 1_554 S
Mn337 O355 2.221 1_554 S
O338 Mn339 2.087 . S
O338 C350 1.256 . S
Mn339 O338 2.087 . S
Mn339 O346 2.089 . S
Mn339 O355 2.290 . S
Mn339 O356 2.251 . S
O340 Mn337 2.160 1_556 S
O340 C351 1.239 1_556 S
O341 Mn337 2.221 . S
O341 Mn342 2.290 . S
O341 C352 1.278 . S
Mn342 O341 2.290 . S
Mn342 O344 2.089 . S
Mn342 O347 2.251 . S
Mn342 O348 2.087 . S
O343 Mn337 2.163 . S
O343 C353 1.244 . S
O344 Mn342 2.089 . S
O344 C351 1.256 . S
O345 Mn337 2.160 1_556 S
O345 C354 1.239 . S
O346 Mn339 2.089 . S
O346 C354 1.256 . S
O347 Mn342 2.251 . S
O347 C352 1.241 . S
O348 Mn342 2.087 . S
O348 C353 1.256 . S
C349 O355 1.278 . S
C349 O356 1.241 . S
C350 O336 1.244 1_556 S
C350 O338 1.256 . S
C351 O340 1.239 1_554 S
C351 O344 1.256 . S
C352 O341 1.278 . S
C352 O347 1.241 . S
C353 O343 1.244 . S
C353 O348 1.256 . S
C354 O345 1.239 . S
C354 O346 1.256 . S
O355 Mn337 2.221 1_556 S
O355 Mn339 2.290 . S
O355 C349 1.278 . S
O356 Mn339 2.251 . S
O356 C349 1.241 . S
O357 Mn358 2.163 1_556 S
O357 C371 1.244 1_556 S
Mn358 O357 2.163 1_554 S
Mn358 O361 2.160 . S
Mn358 O362 2.221 1_554 S
Mn358 O364 2.163 1_554 S
Mn358 O366 2.160 . S
Mn358 O376 2.221 . S
O359 Mn360 2.087 . S
O359 C371 1.256 . S
Mn360 O359 2.087 . S
Mn360 O367 2.089 . S
Mn360 O376 2.290 . S
Mn360 O377 2.251 . S
O361 Mn358 2.160 . S
O361 C372 1.239 1_554 S
O362 Mn358 2.221 1_556 S
O362 Mn363 2.290 . S
O362 C373 1.278 . S
Mn363 O362 2.290 . S
Mn363 O365 2.089 . S
Mn363 O368 2.251 . S
Mn363 O369 2.087 . S
O364 Mn358 2.163 1_556 S
O364 C374 1.244 . S
O365 Mn363 2.089 . S
O365 C372 1.256 . S
O366 Mn358 2.160 . S
O366 C375 1.239 . S
O367 Mn360 2.089 . S
O367 C375 1.256 . S
O368 Mn363 2.251 . S
O368 C373 1.241 . S
O369 Mn363 2.087 . S
O369 C374 1.256 . S
C370 O376 1.278 . S
C370 O377 1.241 . S
C371 O357 1.244 1_554 S
C371 O359 1.256 . S
C372 O361 1.239 1_556 S
C372 O365 1.256 . S
C373 O362 1.278 . S
C373 O368 1.241 . S
C374 O364 1.244 . S
C374 O369 1.256 . S
C375 O366 1.239 . S
C375 O367 1.256 . S
O376 Mn358 2.221 . S
O376 Mn360 2.290 . S
O376 C370 1.278 . S
O377 Mn360 2.251 . S
O377 C370 1.241 . S
O378 Mn379 2.163 1_556 S
O378 C392 1.244 1_556 S
Mn379 O378 2.163 1_554 S
Mn379 O382 2.160 . S
Mn379 O383 2.221 1_554 S
Mn379 O385 2.163 1_554 S
Mn379 O387 2.160 . S
Mn379 O397 2.221 . S
O380 Mn381 2.087 . S
O380 C392 1.256 . S
Mn381 O380 2.087 . S
Mn381 O388 2.089 . S
Mn381 O397 2.290 . S
Mn381 O398 2.251 . S
O382 Mn379 2.160 . S
O382 C393 1.239 1_554 S
O383 Mn379 2.221 1_556 S
O383 Mn384 2.290 . S
O383 C394 1.278 . S
Mn384 O383 2.290 . S
Mn384 O386 2.089 . S
Mn384 O389 2.251 . S
Mn384 O390 2.087 . S
O385 Mn379 2.163 1_556 S
O385 C395 1.244 . S
O386 Mn384 2.089 . S
O386 C393 1.256 . S
O387 Mn379 2.160 . S
O387 C396 1.239 . S
O388 Mn381 2.089 . S
O388 C396 1.256 . S
O389 Mn384 2.251 . S
O389 C394 1.241 . S
O390 Mn384 2.087 . S
O390 C395 1.256 . S
C391 O397 1.278 . S
C391 O398 1.241 . S
C392 O378 1.244 1_554 S
C392 O380 1.256 . S
C393 O382 1.239 1_556 S
C393 O386 1.256 . S
C394 O383 1.278 . S
C394 O389 1.241 . S
C395 O385 1.244 . S
C395 O390 1.256 . S
C396 O387 1.239 . S
C396 O388 1.256 . S
O397 Mn379 2.221 . S
O397 Mn381 2.290 . S
O397 C391 1.278 . S
O398 Mn381 2.251 . S
O398 C391 1.241 . S
O399 Mn400 2.163 1_556 S
O399 C413 1.244 1_556 S
Mn400 O399 2.163 1_554 S
Mn400 O403 2.160 . S
Mn400 O404 2.221 1_554 S
Mn400 O406 2.163 1_554 S
Mn400 O408 2.160 . S
Mn400 O418 2.221 . S
O401 Mn402 2.087 . S
O401 C413 1.256 . S
Mn402 O401 2.087 . S
Mn402 O409 2.089 . S
Mn402 O418 2.290 . S
Mn402 O419 2.251 . S
O403 Mn400 2.160 . S
O403 C414 1.239 1_554 S
O404 Mn400 2.221 1_556 S
O404 Mn405 2.290 . S
O404 C415 1.278 . S
Mn405 O404 2.290 . S
Mn405 O407 2.089 . S
Mn405 O410 2.251 . S
Mn405 O411 2.087 . S
O406 Mn400 2.163 1_556 S
O406 C416 1.244 . S
O407 Mn405 2.089 . S
O407 C414 1.256 . S
O408 Mn400 2.160 . S
O408 C417 1.239 . S
O409 Mn402 2.089 . S
O409 C417 1.256 . S
O410 Mn405 2.251 . S
O410 C415 1.241 . S
O411 Mn405 2.087 . S
O411 C416 1.256 . S
C412 O418 1.278 . S
C412 O419 1.241 . S
C413 O399 1.244 1_554 S
C413 O401 1.256 . S
C414 O403 1.239 1_556 S
C414 O407 1.256 . S
C415 O404 1.278 . S
C415 O410 1.241 . S
C416 O406 1.244 . S
C416 O411 1.256 . S
C417 O408 1.239 . S
C417 O409 1.256 . S
O418 Mn400 2.221 . S
O418 Mn402 2.290 . S
O418 C412 1.278 . S
O419 Mn402 2.251 . S
O419 C412 1.241 . S
O420 Mn421 2.163 1_556 S
O420 C434 1.244 1_556 S
Mn421 O420 2.163 1_554 S
Mn421 O424 2.160 . S
Mn421 O425 2.221 1_554 S
Mn421 O427 2.163 1_554 S
Mn421 O429 2.160 . S
Mn421 O439 2.221 . S
O422 Mn423 2.087 . S
O422 C434 1.256 . S
Mn423 O422 2.087 . S
Mn423 O430 2.089 . S
Mn423 O439 2.290 . S
Mn423 O440 2.251 . S
O424 Mn421 2.160 . S
O424 C435 1.239 1_554 S
O425 Mn421 2.221 1_556 S
O425 Mn426 2.290 . S
O425 C436 1.278 . S
Mn426 O425 2.290 . S
Mn426 O428 2.089 . S
Mn426 O431 2.251 . S
Mn426 O432 2.087 . S
O427 Mn421 2.163 1_556 S
O427 C437 1.244 . S
O428 Mn426 2.089 . S
O428 C435 1.256 . S
O429 Mn421 2.160 . S
O429 C438 1.239 . S
O430 Mn423 2.089 . S
O430 C438 1.256 . S
O431 Mn426 2.251 . S
O431 C436 1.241 . S
O432 Mn426 2.087 . S
O432 C437 1.256 . S
C433 O439 1.278 . S
C433 O440 1.241 . S
C434 O420 1.244 1_554 S
C434 O422 1.256 . S
C435 O424 1.239 1_556 S
C435 O428 1.256 . S
C436 O425 1.278 . S
C436 O431 1.241 . S
C437 O427 1.244 . S
C437 O432 1.256 . S
C438 O429 1.239 . S
C438 O430 1.256 . S
O439 Mn421 2.221 . S
O439 Mn423 2.290 . S
O439 C433 1.278 . S
O440 Mn423 2.251 . S
O440 C433 1.241 . S
O441 Mn442 2.163 . S
O441 C455 1.244 1_554 S
Mn442 O441 2.163 . S
Mn442 O445 2.160 1_554 S
Mn442 O446 2.221 . S
Mn442 O448 2.163 . S
Mn442 O450 2.160 1_554 S
Mn442 O460 2.221 1_554 S
O443 Mn444 2.087 . S
O443 C455 1.256 . S
Mn444 O443 2.087 . S
Mn444 O451 2.089 . S
Mn444 O460 2.290 . S
Mn444 O461 2.251 . S
O445 Mn442 2.160 1_556 S
O445 C456 1.239 1_556 S
O446 Mn442 2.221 . S
O446 Mn447 2.290 . S
O446 C457 1.278 . S
Mn447 O446 2.290 . S
Mn447 O449 2.089 . S
Mn447 O452 2.251 . S
Mn447 O453 2.087 . S
O448 Mn442 2.163 . S
O448 C458 1.244 . S
O449 Mn447 2.089 . S
O449 C456 1.256 . S
O450 Mn442 2.160 1_556 S
O450 C459 1.239 . S
O451 Mn444 2.089 . S
O451 C459 1.256 . S
O452 Mn447 2.251 . S
O452 C457 1.241 . S
O453 Mn447 2.087 . S
O453 C458 1.256 . S
C454 O460 1.278 . S
C454 O461 1.241 . S
C455 O441 1.244 1_556 S
C455 O443 1.256 . S
C456 O445 1.239 1_554 S
C456 O449 1.256 . S
C457 O446 1.278 . S
C457 O452 1.241 . S
C458 O448 1.244 . S
C458 O453 1.256 . S
C459 O450 1.239 . S
C459 O451 1.256 . S
O460 Mn442 2.221 1_556 S
O460 Mn444 2.290 . S
O460 C454 1.278 . S
O461 Mn444 2.251 . S
O461 C454 1.241 . S
O462 Mn463 2.163 . S
O462 C476 1.244 1_554 S
Mn463 O462 2.163 . S
Mn463 O466 2.160 1_554 S
Mn463 O467 2.221 . S
Mn463 O469 2.163 . S
Mn463 O471 2.160 1_554 S
Mn463 O481 2.221 1_554 S
O464 Mn465 2.087 . S
O464 C476 1.256 . S
Mn465 O464 2.087 . S
Mn465 O472 2.089 . S
Mn465 O481 2.290 . S
Mn465 O482 2.251 . S
O466 Mn463 2.160 1_556 S
O466 C477 1.239 1_556 S
O467 Mn463 2.221 . S
O467 Mn468 2.290 . S
O467 C478 1.278 . S
Mn468 O467 2.290 . S
Mn468 O470 2.089 . S
Mn468 O473 2.251 . S
Mn468 O474 2.087 . S
O469 Mn463 2.163 . S
O469 C479 1.244 . S
O470 Mn468 2.089 . S
O470 C477 1.256 . S
O471 Mn463 2.160 1_556 S
O471 C480 1.239 . S
O472 Mn465 2.089 . S
O472 C480 1.256 . S
O473 Mn468 2.251 . S
O473 C478 1.241 . S
O474 Mn468 2.087 . S
O474 C479 1.256 . S
C475 O481 1.278 . S
C475 O482 1.241 . S
C476 O462 1.244 1_556 S
C476 O464 1.256 . S
C477 O466 1.239 1_554 S
C477 O470 1.256 . S
C478 O467 1.278 . S
C478 O473 1.241 . S
C479 O469 1.244 . S
C479 O474 1.256 . S
C480 O471 1.239 . S
C480 O472 1.256 . S
O481 Mn463 2.221 1_556 S
O481 Mn465 2.290 . S
O481 C475 1.278 . S
O482 Mn465 2.251 . S
O482 C475 1.241 . S
O483 Mn484 2.163 . S
O483 C497 1.244 . S
Mn484 O483 2.163 . S
Mn484 O487 2.160 1_554 S
Mn484 O488 2.221 1_554 S
Mn484 O490 2.163 . S
Mn484 O492 2.160 1_554 S
Mn484 O502 2.221 . S
O485 Mn486 2.087 . S
O485 C497 1.256 . S
Mn486 O485 2.087 . S
Mn486 O493 2.089 . S
Mn486 O502 2.290 . S
Mn486 O503 2.251 . S
O487 Mn484 2.160 1_556 S
O487 C498 1.239 . S
O488 Mn484 2.221 1_556 S
O488 Mn489 2.290 . S
O488 C499 1.278 . S
Mn489 O488 2.290 . S
Mn489 O491 2.089 . S
Mn489 O494 2.251 . S
Mn489 O495 2.087 . S
O490 Mn484 2.163 . S
O490 C500 1.244 1_554 S
O491 Mn489 2.089 . S
O491 C498 1.256 . S
O492 Mn484 2.160 1_556 S
O492 C501 1.239 1_556 S
O493 Mn486 2.089 . S
O493 C501 1.256 . S
O494 Mn489 2.251 . S
O494 C499 1.241 . S
O495 Mn489 2.087 . S
O495 C500 1.256 . S
C496 O502 1.278 . S
C496 O503 1.241 . S
C497 O483 1.244 . S
C497 O485 1.256 . S
C498 O487 1.239 . S
C498 O491 1.256 . S
C499 O488 1.278 . S
C499 O494 1.241 . S
C500 O490 1.244 1_556 S
C500 O495 1.256 . S
C501 O492 1.239 1_554 S
C501 O493 1.256 . S
O502 Mn484 2.221 . S
O502 Mn486 2.290 . S
O502 C496 1.278 . S
O503 Mn486 2.251 . S
O503 C496 1.241 . S
O504 Mn505 2.163 . S
O504 C518 1.244 . S
Mn505 O504 2.163 . S
Mn505 O508 2.160 . S
Mn505 O509 2.221 . S
Mn505 O511 2.163 . S
Mn505 O513 2.160 . S
Mn505 O523 2.221 . S
O506 Mn507 2.087 . S
O506 C518 1.256 . S
Mn507 O506 2.087 . S
Mn507 O514 2.089 . S
Mn507 O523 2.290 . S
Mn507 O524 2.251 . S
O508 Mn505 2.160 . S
O508 C519 1.239 . S
O509 Mn505 2.221 . S
O509 Mn510 2.290 . S
O509 C520 1.278 . S
Mn510 O509 2.290 . S
Mn510 O512 2.089 . S
Mn510 O515 2.251 . S
Mn510 O516 2.087 . S
O511 Mn505 2.163 . S
O511 C521 1.244 . S
O512 Mn510 2.089 . S
O512 C519 1.256 . S
O513 Mn505 2.160 . S
O513 C522 1.239 . S
O514 Mn507 2.089 . S
O514 C522 1.256 . S
O515 Mn510 2.251 . S
O515 C520 1.241 . S
O516 Mn510 2.087 . S
O516 C521 1.256 . S
C517 O523 1.278 . S
C517 O524 1.241 . S
C518 O504 1.244 . S
C518 O506 1.256 . S
C519 O508 1.239 . S
C519 O512 1.256 . S
C520 O509 1.278 . S
C520 O515 1.241 . S
C521 O511 1.244 . S
C521 O516 1.256 . S
C522 O513 1.239 . S
C522 O514 1.256 . S
O523 Mn505 2.221 . S
O523 Mn507 2.290 . S
O523 C517 1.278 . S
O524 Mn507 2.251 . S
O524 C517 1.241 . S
O525 Mn526 2.163 . S
O525 C539 1.244 . S
Mn526 O525 2.163 . S
Mn526 O529 2.160 . S
Mn526 O530 2.221 . S
Mn526 O532 2.163 . S
Mn526 O534 2.160 . S
Mn526 O544 2.221 . S
O527 Mn528 2.087 . S
O527 C539 1.256 . S
Mn528 O527 2.087 . S
Mn528 O535 2.089 . S
Mn528 O544 2.290 . S
Mn528 O545 2.251 . S
O529 Mn526 2.160 . S
O529 C540 1.239 . S
O530 Mn526 2.221 . S
O530 Mn531 2.290 . S
O530 C541 1.278 . S
Mn531 O530 2.290 . S
Mn531 O533 2.089 . S
Mn531 O536 2.251 . S
Mn531 O537 2.087 . S
O532 Mn526 2.163 . S
O532 C542 1.244 . S
O533 Mn531 2.089 . S
O533 C540 1.256 . S
O534 Mn526 2.160 . S
O534 C543 1.239 . S
O535 Mn528 2.089 . S
O535 C543 1.256 . S
O536 Mn531 2.251 . S
O536 C541 1.241 . S
O537 Mn531 2.087 . S
O537 C542 1.256 . S
C538 O544 1.278 . S
C538 O545 1.241 . S
C539 O525 1.244 . S
C539 O527 1.256 . S
C540 O529 1.239 . S
C540 O533 1.256 . S
C541 O530 1.278 . S
C541 O536 1.241 . S
C542 O532 1.244 . S
C542 O537 1.256 . S
C543 O534 1.239 . S
C543 O535 1.256 . S
O544 Mn526 2.221 . S
O544 Mn528 2.290 . S
O544 C538 1.278 . S
O545 Mn528 2.251 . S
O545 C538 1.241 . S
O546 Mn547 2.163 . S
O546 C560 1.244 . S
Mn547 O546 2.163 . S
Mn547 O550 2.160 . S
Mn547 O551 2.221 . S
Mn547 O553 2.163 . S
Mn547 O555 2.160 . S
Mn547 O565 2.221 . S
O548 Mn549 2.087 . S
O548 C560 1.256 . S
Mn549 O548 2.087 . S
Mn549 O556 2.089 . S
Mn549 O565 2.290 . S
Mn549 O566 2.251 . S
O550 Mn547 2.160 . S
O550 C561 1.239 . S
O551 Mn547 2.221 . S
O551 Mn552 2.290 . S
O551 C562 1.278 . S
Mn552 O551 2.290 . S
Mn552 O554 2.089 . S
Mn552 O557 2.251 . S
Mn552 O558 2.087 . S
O553 Mn547 2.163 . S
O553 C563 1.244 . S
O554 Mn552 2.089 . S
O554 C561 1.256 . S
O555 Mn547 2.160 . S
O555 C564 1.239 . S
O556 Mn549 2.089 . S
O556 C564 1.256 . S
O557 Mn552 2.251 . S
O557 C562 1.241 . S
O558 Mn552 2.087 . S
O558 C563 1.256 . S
C559 O565 1.278 . S
C559 O566 1.241 . S
C560 O546 1.244 . S
C560 O548 1.256 . S
C561 O550 1.239 . S
C561 O554 1.256 . S
C562 O551 1.278 . S
C562 O557 1.241 . S
C563 O553 1.244 . S
C563 O558 1.256 . S
C564 O555 1.239 . S
C564 O556 1.256 . S
O565 Mn547 2.221 . S
O565 Mn549 2.290 . S
O565 C559 1.278 . S
O566 Mn549 2.251 . S
O566 C559 1.241 . S
O567 Mn568 2.163 . S
O567 C581 1.244 . S
Mn568 O567 2.163 . S
Mn568 O571 2.160 . S
Mn568 O572 2.221 . S
Mn568 O574 2.163 . S
Mn568 O576 2.160 . S
Mn568 O586 2.221 . S
O569 Mn570 2.087 . S
O569 C581 1.256 . S
Mn570 O569 2.087 . S
Mn570 O577 2.089 . S
Mn570 O586 2.290 . S
Mn570 O587 2.251 . S
O571 Mn568 2.160 . S
O571 C582 1.239 . S
O572 Mn568 2.221 . S
O572 Mn573 2.290 . S
O572 C583 1.278 . S
Mn573 O572 2.290 . S
Mn573 O575 2.089 . S
Mn573 O578 2.251 . S
Mn573 O579 2.087 . S
O574 Mn568 2.163 . S
O574 C584 1.244 . S
O575 Mn573 2.089 . S
O575 C582 1.256 . S
O576 Mn568 2.160 . S
O576 C585 1.239 . S
O577 Mn570 2.089 . S
O577 C585 1.256 . S
O578 Mn573 2.251 . S
O578 C583 1.241 . S
O579 Mn573 2.087 . S
O579 C584 1.256 . S
C580 O586 1.278 . S
C580 O587 1.241 . S
C581 O567 1.244 . S
C581 O569 1.256 . S
C582 O571 1.239 . S
C582 O575 1.256 . S
C583 O572 1.278 . S
C583 O578 1.241 . S
C584 O574 1.244 . S
C584 O579 1.256 . S
C585 O576 1.239 . S
C585 O577 1.256 . S
O586 Mn568 2.221 . S
O586 Mn570 2.290 . S
O586 C580 1.278 . S
O587 Mn570 2.251 . S
O587 C580 1.241 . S
O588 Mn589 2.163 . S
O588 C602 1.244 . S
Mn589 O588 2.163 . S
Mn589 O592 2.160 . S
Mn589 O593 2.221 . S
Mn589 O595 2.163 . S
Mn589 O597 2.160 . S
Mn589 O607 2.221 . S
O590 Mn591 2.087 . S
O590 C602 1.256 . S
Mn591 O590 2.087 . S
Mn591 O598 2.089 . S
Mn591 O607 2.290 . S
Mn591 O608 2.251 . S
O592 Mn589 2.160 . S
O592 C603 1.239 . S
O593 Mn589 2.221 . S
O593 Mn594 2.290 . S
O593 C604 1.278 . S
Mn594 O593 2.290 . S
Mn594 O596 2.089 . S
Mn594 O599 2.251 . S
Mn594 O600 2.087 . S
O595 Mn589 2.163 . S
O595 C605 1.244 . S
O596 Mn594 2.089 . S
O596 C603 1.256 . S
O597 Mn589 2.160 . S
O597 C606 1.239 . S
O598 Mn591 2.089 . S
O598 C606 1.256 . S
O599 Mn594 2.251 . S
O599 C604 1.241 . S
O600 Mn594 2.087 . S
O600 C605 1.256 . S
C601 O607 1.278 . S
C601 O608 1.241 . S
C602 O588 1.244 . S
C602 O590 1.256 . S
C603 O592 1.239 . S
C603 O596 1.256 . S
C604 O593 1.278 . S
C604 O599 1.241 . S
C605 O595 1.244 . S
C605 O600 1.256 . S
C606 O597 1.239 . S
C606 O598 1.256 . S
O607 Mn589 2.221 . S
O607 Mn591 2.290 . S
O607 C601 1.278 . S
O608 Mn591 2.251 . S
O608 C601 1.241 . S
O609 Mn610 2.163 . S
O609 C623 1.244 . S
Mn610 O609 2.163 . S
Mn610 O613 2.160 . S
Mn610 O614 2.221 . S
Mn610 O616 2.163 . S
Mn610 O618 2.160 . S
Mn610 O628 2.221 . S
O611 Mn612 2.087 . S
O611 C623 1.256 . S
Mn612 O611 2.087 . S
Mn612 O619 2.089 . S
Mn612 O628 2.290 . S
Mn612 O629 2.251 . S
O613 Mn610 2.160 . S
O613 C624 1.239 . S
O614 Mn610 2.221 . S
O614 Mn615 2.290 . S
O614 C625 1.278 . S
Mn615 O614 2.290 . S
Mn615 O617 2.089 . S
Mn615 O620 2.251 . S
Mn615 O621 2.087 . S
O616 Mn610 2.163 . S
O616 C626 1.244 . S
O617 Mn615 2.089 . S
O617 C624 1.256 . S
O618 Mn610 2.160 . S
O618 C627 1.239 . S
O619 Mn612 2.089 . S
O619 C627 1.256 . S
O620 Mn615 2.251 . S
O620 C625 1.241 . S
O621 Mn615 2.087 . S
O621 C626 1.256 . S
C622 O628 1.278 . S
C622 O629 1.241 . S
C623 O609 1.244 . S
C623 O611 1.256 . S
C624 O613 1.239 . S
C624 O617 1.256 . S
C625 O614 1.278 . S
C625 O620 1.241 . S
C626 O616 1.244 . S
C626 O621 1.256 . S
C627 O618 1.239 . S
C627 O619 1.256 . S
O628 Mn610 2.221 . S
O628 Mn612 2.290 . S
O628 C622 1.278 . S
O629 Mn612 2.251 . S
O629 C622 1.241 . S
O630 Mn631 2.163 . S
O630 C644 1.244 . S
Mn631 O630 2.163 . S
Mn631 O634 2.160 . S
Mn631 O635 2.221 . S
Mn631 O637 2.163 . S
Mn631 O639 2.160 . S
Mn631 O649 2.221 . S
O632 Mn633 2.087 . S
O632 C644 1.256 . S
Mn633 O632 2.087 . S
Mn633 O640 2.089 . S
Mn633 O649 2.290 . S
Mn633 O650 2.251 . S
O634 Mn631 2.160 . S
O634 C645 1.239 . S
O635 Mn631 2.221 . S
O635 Mn636 2.290 . S
O635 C646 1.278 . S
Mn636 O635 2.290 . S
Mn636 O638 2.089 . S
Mn636 O641 2.251 . S
Mn636 O642 2.087 . S
O637 Mn631 2.163 . S
O637 C647 1.244 . S
O638 Mn636 2.089 . S
O638 C645 1.256 . S
O639 Mn631 2.160 . S
O639 C648 1.239 . S
O640 Mn633 2.089 . S
O640 C648 1.256 . S
O641 Mn636 2.251 . S
O641 C646 1.241 . S
O642 Mn636 2.087 . S
O642 C647 1.256 . S
C643 O649 1.278 . S
C643 O650 1.241 . S
C644 O630 1.244 . S
C644 O632 1.256 . S
C645 O634 1.239 . S
C645 O638 1.256 . S
C646 O635 1.278 . S
C646 O641 1.241 . S
C647 O637 1.244 . S
C647 O642 1.256 . S
C648 O639 1.239 . S
C648 O640 1.256 . S
O649 Mn631 2.221 . S
O649 Mn633 2.290 . S
O649 C643 1.278 . S
O650 Mn633 2.251 . S
O650 C643 1.241 . S
O651 Mn652 2.163 . S
O651 C665 1.244 . S
Mn652 O651 2.163 . S
Mn652 O655 2.160 . S
Mn652 O656 2.221 . S
Mn652 O658 2.163 . S
Mn652 O660 2.160 . S
Mn652 O670 2.221 . S
O653 Mn654 2.087 . S
O653 C665 1.256 . S
Mn654 O653 2.087 . S
Mn654 O661 2.089 . S
Mn654 O670 2.290 . S
Mn654 O671 2.251 . S
O655 Mn652 2.160 . S
O655 C666 1.239 . S
O656 Mn652 2.221 . S
O656 Mn657 2.290 . S
O656 C667 1.278 . S
Mn657 O656 2.290 . S
Mn657 O659 2.089 . S
Mn657 O662 2.251 . S
Mn657 O663 2.087 . S
O658 Mn652 2.163 . S
O658 C668 1.244 . S
O659 Mn657 2.089 . S
O659 C666 1.256 . S
O660 Mn652 2.160 . S
O660 C669 1.239 . S
O661 Mn654 2.089 . S
O661 C669 1.256 . S
O662 Mn657 2.251 . S
O662 C667 1.241 . S
O663 Mn657 2.087 . S
O663 C668 1.256 . S
C664 O670 1.278 . S
C664 O671 1.241 . S
C665 O651 1.244 . S
C665 O653 1.256 . S
C666 O655 1.239 . S
C666 O659 1.256 . S
C667 O656 1.278 . S
C667 O662 1.241 . S
C668 O658 1.244 . S
C668 O663 1.256 . S
C669 O660 1.239 . S
C669 O661 1.256 . S
O670 Mn652 2.221 . S
O670 Mn654 2.290 . S
O670 C664 1.278 . S
O671 Mn654 2.251 . S
O671 C664 1.241 . S
O672 Mn673 2.163 . S
O672 C686 1.244 . S
Mn673 O672 2.163 . S
Mn673 O676 2.160 . S
Mn673 O677 2.221 . S
Mn673 O679 2.163 . S
Mn673 O681 2.160 . S
Mn673 O691 2.221 . S
O674 Mn675 2.087 . S
O674 C686 1.256 . S
Mn675 O674 2.087 . S
Mn675 O682 2.089 . S
Mn675 O691 2.290 . S
Mn675 O692 2.251 . S
O676 Mn673 2.160 . S
O676 C687 1.239 . S
O677 Mn673 2.221 . S
O677 Mn678 2.290 . S
O677 C688 1.278 . S
Mn678 O677 2.290 . S
Mn678 O680 2.089 . S
Mn678 O683 2.251 . S
Mn678 O684 2.087 . S
O679 Mn673 2.163 . S
O679 C689 1.244 . S
O680 Mn678 2.089 . S
O680 C687 1.256 . S
O681 Mn673 2.160 . S
O681 C690 1.239 . S
O682 Mn675 2.089 . S
O682 C690 1.256 . S
O683 Mn678 2.251 . S
O683 C688 1.241 . S
O684 Mn678 2.087 . S
O684 C689 1.256 . S
C685 O691 1.278 . S
C685 O692 1.241 . S
C686 O672 1.244 . S
C686 O674 1.256 . S
C687 O676 1.239 . S
C687 O680 1.256 . S
C688 O677 1.278 . S
C688 O683 1.241 . S
C689 O679 1.244 . S
C689 O684 1.256 . S
C690 O681 1.239 . S
C690 O682 1.256 . S
O691 Mn673 2.221 . S
O691 Mn675 2.290 . S
O691 C685 1.278 . S
O692 Mn675 2.251 . S
O692 C685 1.241 . S
O693 Mn694 2.163 . S
O693 C707 1.244 . S
Mn694 O693 2.163 . S
Mn694 O697 2.160 . S
Mn694 O698 2.221 . S
Mn694 O700 2.163 . S
Mn694 O702 2.160 . S
Mn694 O712 2.221 . S
O695 Mn696 2.087 . S
O695 C707 1.256 . S
Mn696 O695 2.087 . S
Mn696 O703 2.089 . S
Mn696 O712 2.290 . S
Mn696 O713 2.251 . S
O697 Mn694 2.160 . S
O697 C708 1.239 . S
O698 Mn694 2.221 . S
O698 Mn699 2.290 . S
O698 C709 1.278 . S
Mn699 O698 2.290 . S
Mn699 O701 2.089 . S
Mn699 O704 2.251 . S
Mn699 O705 2.087 . S
O700 Mn694 2.163 . S
O700 C710 1.244 . S
O701 Mn699 2.089 . S
O701 C708 1.256 . S
O702 Mn694 2.160 . S
O702 C711 1.239 . S
O703 Mn696 2.089 . S
O703 C711 1.256 . S
O704 Mn699 2.251 . S
O704 C709 1.241 . S
O705 Mn699 2.087 . S
O705 C710 1.256 . S
C706 O712 1.278 . S
C706 O713 1.241 . S
C707 O693 1.244 . S
C707 O695 1.256 . S
C708 O697 1.239 . S
C708 O701 1.256 . S
C709 O698 1.278 . S
C709 O704 1.241 . S
C710 O700 1.244 . S
C710 O705 1.256 . S
C711 O702 1.239 . S
C711 O703 1.256 . S
O712 Mn694 2.221 . S
O712 Mn696 2.290 . S
O712 C706 1.278 . S
O713 Mn696 2.251 . S
O713 C706 1.241 . S
O714 Mn715 2.163 . S
O714 C728 1.244 . S
Mn715 O714 2.163 . S
Mn715 O718 2.160 . S
Mn715 O719 2.221 . S
Mn715 O721 2.163 . S
Mn715 O723 2.160 . S
Mn715 O733 2.221 . S
O716 Mn717 2.087 . S
O716 C728 1.256 . S
Mn717 O716 2.087 . S
Mn717 O724 2.089 . S
Mn717 O733 2.290 . S
Mn717 O734 2.251 . S
O718 Mn715 2.160 . S
O718 C729 1.239 . S
O719 Mn715 2.221 . S
O719 Mn720 2.290 . S
O719 C730 1.278 . S
Mn720 O719 2.290 . S
Mn720 O722 2.089 . S
Mn720 O725 2.251 . S
Mn720 O726 2.087 . S
O721 Mn715 2.163 . S
O721 C731 1.244 . S
O722 Mn720 2.089 . S
O722 C729 1.256 . S
O723 Mn715 2.160 . S
O723 C732 1.239 . S
O724 Mn717 2.089 . S
O724 C732 1.256 . S
O725 Mn720 2.251 . S
O725 C730 1.241 . S
O726 Mn720 2.087 . S
O726 C731 1.256 . S
C727 O733 1.278 . S
C727 O734 1.241 . S
C728 O714 1.244 . S
C728 O716 1.256 . S
C729 O718 1.239 . S
C729 O722 1.256 . S
C730 O719 1.278 . S
C730 O725 1.241 . S
C731 O721 1.244 . S
C731 O726 1.256 . S
C732 O723 1.239 . S
C732 O724 1.256 . S
O733 Mn715 2.221 . S
O733 Mn717 2.290 . S
O733 C727 1.278 . S
O734 Mn717 2.251 . S
O734 C727 1.241 . S
O735 Mn736 2.163 . S
O735 C749 1.244 . S
Mn736 O735 2.163 . S
Mn736 O739 2.160 . S
Mn736 O740 2.221 . S
Mn736 O742 2.163 . S
Mn736 O744 2.160 . S
Mn736 O754 2.221 . S
O737 Mn738 2.087 . S
O737 C749 1.256 . S
Mn738 O737 2.087 . S
Mn738 O745 2.089 . S
Mn738 O754 2.290 . S
Mn738 O755 2.251 . S
O739 Mn736 2.160 . S
O739 C750 1.239 . S
O740 Mn736 2.221 . S
O740 Mn741 2.290 . S
O740 C751 1.278 . S
Mn741 O740 2.290 . S
Mn741 O743 2.089 . S
Mn741 O746 2.251 . S
Mn741 O747 2.087 . S
O742 Mn736 2.163 . S
O742 C752 1.244 . S
O743 Mn741 2.089 . S
O743 C750 1.256 . S
O744 Mn736 2.160 . S
O744 C753 1.239 . S
O745 Mn738 2.089 . S
O745 C753 1.256 . S
O746 Mn741 2.251 . S
O746 C751 1.241 . S
O747 Mn741 2.087 . S
O747 C752 1.256 . S
C748 O754 1.278 . S
C748 O755 1.241 . S
C749 O735 1.244 . S
C749 O737 1.256 . S
C750 O739 1.239 . S
C750 O743 1.256 . S
C751 O740 1.278 . S
C751 O746 1.241 . S
C752 O742 1.244 . S
C752 O747 1.256 . S
C753 O744 1.239 . S
C753 O745 1.256 . S
O754 Mn736 2.221 . S
O754 Mn738 2.290 . S
O754 C748 1.278 . S
O755 Mn738 2.251 . S
O755 C748 1.241 . S
O756 Mn757 2.163 . S
O756 C770 1.244 . S
Mn757 O756 2.163 . S
Mn757 O760 2.160 . S
Mn757 O761 2.221 . S
Mn757 O763 2.163 . S
Mn757 O765 2.160 . S
Mn757 O775 2.221 . S
O758 Mn759 2.087 . S
O758 C770 1.256 . S
Mn759 O758 2.087 . S
Mn759 O766 2.089 . S
Mn759 O775 2.290 . S
Mn759 O776 2.251 . S
O760 Mn757 2.160 . S
O760 C771 1.239 . S
O761 Mn757 2.221 . S
O761 Mn762 2.290 . S
O761 C772 1.278 . S
Mn762 O761 2.290 . S
Mn762 O764 2.089 . S
Mn762 O767 2.251 . S
Mn762 O768 2.087 . S
O763 Mn757 2.163 . S
O763 C773 1.244 . S
O764 Mn762 2.089 . S
O764 C771 1.256 . S
O765 Mn757 2.160 . S
O765 C774 1.239 . S
O766 Mn759 2.089 . S
O766 C774 1.256 . S
O767 Mn762 2.251 . S
O767 C772 1.241 . S
O768 Mn762 2.087 . S
O768 C773 1.256 . S
C769 O775 1.278 . S
C769 O776 1.241 . S
C770 O756 1.244 . S
C770 O758 1.256 . S
C771 O760 1.239 . S
C771 O764 1.256 . S
C772 O761 1.278 . S
C772 O767 1.241 . S
C773 O763 1.244 . S
C773 O768 1.256 . S
C774 O765 1.239 . S
C774 O766 1.256 . S
O775 Mn757 2.221 . S
O775 Mn759 2.290 . S
O775 C769 1.278 . S
O776 Mn759 2.251 . S
O776 C769 1.241 . S
O777 Mn778 2.163 . S
O777 C791 1.244 . S
Mn778 O777 2.163 . S
Mn778 O781 2.160 . S
Mn778 O782 2.221 . S
Mn778 O784 2.163 . S
Mn778 O786 2.160 . S
Mn778 O796 2.221 . S
O779 Mn780 2.087 . S
O779 C791 1.256 . S
Mn780 O779 2.087 . S
Mn780 O787 2.089 . S
Mn780 O796 2.290 . S
Mn780 O797 2.251 . S
O781 Mn778 2.160 . S
O781 C792 1.239 . S
O782 Mn778 2.221 . S
O782 Mn783 2.290 . S
O782 C793 1.278 . S
Mn783 O782 2.290 . S
Mn783 O785 2.089 . S
Mn783 O788 2.251 . S
Mn783 O789 2.087 . S
O784 Mn778 2.163 . S
O784 C794 1.244 . S
O785 Mn783 2.089 . S
O785 C792 1.256 . S
O786 Mn778 2.160 . S
O786 C795 1.239 . S
O787 Mn780 2.089 . S
O787 C795 1.256 . S
O788 Mn783 2.251 . S
O788 C793 1.241 . S
O789 Mn783 2.087 . S
O789 C794 1.256 . S
C790 O796 1.278 . S
C790 O797 1.241 . S
C791 O777 1.244 . S
C791 O779 1.256 . S
C792 O781 1.239 . S
C792 O785 1.256 . S
C793 O782 1.278 . S
C793 O788 1.241 . S
C794 O784 1.244 . S
C794 O789 1.256 . S
C795 O786 1.239 . S
C795 O787 1.256 . S
O796 Mn778 2.221 . S
O796 Mn780 2.290 . S
O796 C790 1.278 . S
O797 Mn780 2.251 . S
O797 C790 1.241 . S
O798 Mn799 2.163 . S
O798 C812 1.244 . S
Mn799 O798 2.163 . S
Mn799 O802 2.160 . S
Mn799 O803 2.221 . S
Mn799 O805 2.163 . S
Mn799 O807 2.160 . S
Mn799 O817 2.221 . S
O800 Mn801 2.087 . S
O800 C812 1.256 . S
Mn801 O800 2.087 . S
Mn801 O808 2.089 . S
Mn801 O817 2.290 . S
Mn801 O818 2.251 . S
O802 Mn799 2.160 . S
O802 C813 1.239 . S
O803 Mn799 2.221 . S
O803 Mn804 2.290 . S
O803 C814 1.278 . S
Mn804 O803 2.290 . S
Mn804 O806 2.089 . S
Mn804 O809 2.251 . S
Mn804 O810 2.087 . S
O805 Mn799 2.163 . S
O805 C815 1.244 . S
O806 Mn804 2.089 . S
O806 C813 1.256 . S
O807 Mn799 2.160 . S
O807 C816 1.239 . S
O808 Mn801 2.089 . S
O808 C816 1.256 . S
O809 Mn804 2.251 . S
O809 C814 1.241 . S
O810 Mn804 2.087 . S
O810 C815 1.256 . S
C811 O817 1.278 . S
C811 O818 1.241 . S
C812 O798 1.244 . S
C812 O800 1.256 . S
C813 O802 1.239 . S
C813 O806 1.256 . S
C814 O803 1.278 . S
C814 O809 1.241 . S
C815 O805 1.244 . S
C815 O810 1.256 . S
C816 O807 1.239 . S
C816 O808 1.256 . S
O817 Mn799 2.221 . S
O817 Mn801 2.290 . S
O817 C811 1.278 . S
O818 Mn801 2.251 . S
O818 C811 1.241 . S
O819 Mn820 2.163 . S
O819 C833 1.244 . S
Mn820 O819 2.163 . S
Mn820 O823 2.160 . S
Mn820 O824 2.221 . S
Mn820 O826 2.163 . S
Mn820 O828 2.160 . S
Mn820 O838 2.221 . S
O821 Mn822 2.087 . S
O821 C833 1.256 . S
Mn822 O821 2.087 . S
Mn822 O829 2.089 . S
Mn822 O838 2.290 . S
Mn822 O839 2.251 . S
O823 Mn820 2.160 . S
O823 C834 1.239 . S
O824 Mn820 2.221 . S
O824 Mn825 2.290 . S
O824 C835 1.278 . S
Mn825 O824 2.290 . S
Mn825 O827 2.089 . S
Mn825 O830 2.251 . S
Mn825 O831 2.087 . S
O826 Mn820 2.163 . S
O826 C836 1.244 . S
O827 Mn825 2.089 . S
O827 C834 1.256 . S
O828 Mn820 2.160 . S
O828 C837 1.239 . S
O829 Mn822 2.089 . S
O829 C837 1.256 . S
O830 Mn825 2.251 . S
O830 C835 1.241 . S
O831 Mn825 2.087 . S
O831 C836 1.256 . S
C832 O838 1.278 . S
C832 O839 1.241 . S
C833 O819 1.244 . S
C833 O821 1.256 . S
C834 O823 1.239 . S
C834 O827 1.256 . S
C835 O824 1.278 . S
C835 O830 1.241 . S
C836 O826 1.244 . S
C836 O831 1.256 . S
C837 O828 1.239 . S
C837 O829 1.256 . S
O838 Mn820 2.221 . S
O838 Mn822 2.290 . S
O838 C832 1.278 . S
O839 Mn822 2.251 . S
O839 C832 1.241 . S
O840 Mn841 2.163 . S
O840 C854 1.244 . S
Mn841 O840 2.163 . S
Mn841 O844 2.160 . S
Mn841 O845 2.221 . S
Mn841 O847 2.163 . S
Mn841 O849 2.160 . S
Mn841 O859 2.221 . S
O842 Mn843 2.087 . S
O842 C854 1.256 . S
Mn843 O842 2.087 . S
Mn843 O850 2.089 . S
Mn843 O859 2.290 . S
Mn843 O860 2.251 . S
O844 Mn841 2.160 . S
O844 C855 1.239 . S
O845 Mn841 2.221 . S
O845 Mn846 2.290 . S
O845 C856 1.278 . S
Mn846 O845 2.290 . S
Mn846 O848 2.089 . S
Mn846 O851 2.251 . S
Mn846 O852 2.087 . S
O847 Mn841 2.163 . S
O847 C857 1.244 . S
O848 Mn846 2.089 . S
O848 C855 1.256 . S
O849 Mn841 2.160 . S
O849 C858 1.239 . S
O850 Mn843 2.089 . S
O850 C858 1.256 . S
O851 Mn846 2.251 . S
O851 C856 1.241 . S
O852 Mn846 2.087 . S
O852 C857 1.256 . S
C853 O859 1.278 . S
C853 O860 1.241 . S
C854 O840 1.244 . S
C854 O842 1.256 . S
C855 O844 1.239 . S
C855 O848 1.256 . S
C856 O845 1.278 . S
C856 O851 1.241 . S
C857 O847 1.244 . S
C857 O852 1.256 . S
C858 O849 1.239 . S
C858 O850 1.256 . S
O859 Mn841 2.221 . S
O859 Mn843 2.290 . S
O859 C853 1.278 . S
O860 Mn843 2.251 . S
O860 C853 1.241 . S
O861 Mn862 2.163 . S
O861 C875 1.244 . S
Mn862 O861 2.163 . S
Mn862 O865 2.160 . S
Mn862 O866 2.221 . S
Mn862 O868 2.163 . S
Mn862 O870 2.160 . S
Mn862 O880 2.221 . S
O863 Mn864 2.087 . S
O863 C875 1.256 . S
Mn864 O863 2.087 . S
Mn864 O871 2.089 . S
Mn864 O880 2.290 . S
Mn864 O881 2.251 . S
O865 Mn862 2.160 . S
O865 C876 1.239 . S
O866 Mn862 2.221 . S
O866 Mn867 2.290 . S
O866 C877 1.278 . S
Mn867 O866 2.290 . S
Mn867 O869 2.089 . S
Mn867 O872 2.251 . S
Mn867 O873 2.087 . S
O868 Mn862 2.163 . S
O868 C878 1.244 . S
O869 Mn867 2.089 . S
O869 C876 1.256 . S
O870 Mn862 2.160 . S
O870 C879 1.239 . S
O871 Mn864 2.089 . S
O871 C879 1.256 . S
O872 Mn867 2.251 . S
O872 C877 1.241 . S
O873 Mn867 2.087 . S
O873 C878 1.256 . S
C874 O880 1.278 . S
C874 O881 1.241 . S
C875 O861 1.244 . S
C875 O863 1.256 . S
C876 O865 1.239 . S
C876 O869 1.256 . S
C877 O866 1.278 . S
C877 O872 1.241 . S
C878 O868 1.244 . S
C878 O873 1.256 . S
C879 O870 1.239 . S
C879 O871 1.256 . S
O880 Mn862 2.221 . S
O880 Mn864 2.290 . S
O880 C874 1.278 . S
O881 Mn864 2.251 . S
O881 C874 1.241 . S
O882 Mn883 2.163 . S
O882 C896 1.244 . S
Mn883 O882 2.163 . S
Mn883 O886 2.160 . S
Mn883 O887 2.221 . S
Mn883 O889 2.163 . S
Mn883 O891 2.160 . S
Mn883 O901 2.221 . S
O884 Mn885 2.087 . S
O884 C896 1.256 . S
Mn885 O884 2.087 . S
Mn885 O892 2.089 . S
Mn885 O901 2.290 . S
Mn885 O902 2.251 . S
O886 Mn883 2.160 . S
O886 C897 1.239 . S
O887 Mn883 2.221 . S
O887 Mn888 2.290 . S
O887 C898 1.278 . S
Mn888 O887 2.290 . S
Mn888 O890 2.089 . S
Mn888 O893 2.251 . S
Mn888 O894 2.087 . S
O889 Mn883 2.163 . S
O889 C899 1.244 . S
O890 Mn888 2.089 . S
O890 C897 1.256 . S
O891 Mn883 2.160 . S
O891 C900 1.239 . S
O892 Mn885 2.089 . S
O892 C900 1.256 . S
O893 Mn888 2.251 . S
O893 C898 1.241 . S
O894 Mn888 2.087 . S
O894 C899 1.256 . S
C895 O901 1.278 . S
C895 O902 1.241 . S
C896 O882 1.244 . S
C896 O884 1.256 . S
C897 O886 1.239 . S
C897 O890 1.256 . S
C898 O887 1.278 . S
C898 O893 1.241 . S
C899 O889 1.244 . S
C899 O894 1.256 . S
C900 O891 1.239 . S
C900 O892 1.256 . S
O901 Mn883 2.221 . S
O901 Mn885 2.290 . S
O901 C895 1.278 . S
O902 Mn885 2.251 . S
O902 C895 1.241 . S
O903 Mn904 2.163 . S
O903 C917 1.244 . S
Mn904 O903 2.163 . S
Mn904 O907 2.160 . S
Mn904 O908 2.221 . S
Mn904 O910 2.163 . S
Mn904 O912 2.160 . S
Mn904 O922 2.221 . S
O905 Mn906 2.087 . S
O905 C917 1.256 . S
Mn906 O905 2.087 . S
Mn906 O913 2.089 . S
Mn906 O922 2.290 . S
Mn906 O923 2.251 . S
O907 Mn904 2.160 . S
O907 C918 1.239 . S
O908 Mn904 2.221 . S
O908 Mn909 2.290 . S
O908 C919 1.278 . S
Mn909 O908 2.290 . S
Mn909 O911 2.089 . S
Mn909 O914 2.251 . S
Mn909 O915 2.087 . S
O910 Mn904 2.163 . S
O910 C920 1.244 . S
O911 Mn909 2.089 . S
O911 C918 1.256 . S
O912 Mn904 2.160 . S
O912 C921 1.239 . S
O913 Mn906 2.089 . S
O913 C921 1.256 . S
O914 Mn909 2.251 . S
O914 C919 1.241 . S
O915 Mn909 2.087 . S
O915 C920 1.256 . S
C916 O922 1.278 . S
C916 O923 1.241 . S
C917 O903 1.244 . S
C917 O905 1.256 . S
C918 O907 1.239 . S
C918 O911 1.256 . S
C919 O908 1.278 . S
C919 O914 1.241 . S
C920 O910 1.244 . S
C920 O915 1.256 . S
C921 O912 1.239 . S
C921 O913 1.256 . S
O922 Mn904 2.221 . S
O922 Mn906 2.290 . S
O922 C916 1.278 . S
O923 Mn906 2.251 . S
O923 C916 1.241 . S
O924 Mn925 2.163 . S
O924 C938 1.244 . S
Mn925 O924 2.163 . S
Mn925 O928 2.160 . S
Mn925 O929 2.221 . S
Mn925 O931 2.163 . S
Mn925 O933 2.160 . S
Mn925 O943 2.221 . S
O926 Mn927 2.087 . S
O926 C938 1.256 . S
Mn927 O926 2.087 . S
Mn927 O934 2.089 . S
Mn927 O943 2.290 . S
Mn927 O944 2.251 . S
O928 Mn925 2.160 . S
O928 C939 1.239 . S
O929 Mn925 2.221 . S
O929 Mn930 2.290 . S
O929 C940 1.278 . S
Mn930 O929 2.290 . S
Mn930 O932 2.089 . S
Mn930 O935 2.251 . S
Mn930 O936 2.087 . S
O931 Mn925 2.163 . S
O931 C941 1.244 . S
O932 Mn930 2.089 . S
O932 C939 1.256 . S
O933 Mn925 2.160 . S
O933 C942 1.239 . S
O934 Mn927 2.089 . S
O934 C942 1.256 . S
O935 Mn930 2.251 . S
O935 C940 1.241 . S
O936 Mn930 2.087 . S
O936 C941 1.256 . S
C937 O943 1.278 . S
C937 O944 1.241 . S
C938 O924 1.244 . S
C938 O926 1.256 . S
C939 O928 1.239 . S
C939 O932 1.256 . S
C940 O929 1.278 . S
C940 O935 1.241 . S
C941 O931 1.244 . S
C941 O936 1.256 . S
C942 O933 1.239 . S
C942 O934 1.256 . S
O943 Mn925 2.221 . S
O943 Mn927 2.290 . S
O943 C937 1.278 . S
O944 Mn927 2.251 . S
O944 C937 1.241 . S
O945 Mn946 2.163 . S
O945 C959 1.244 . S
Mn946 O945 2.163 . S
Mn946 O949 2.160 . S
Mn946 O950 2.221 . S
Mn946 O952 2.163 . S
Mn946 O954 2.160 . S
Mn946 O964 2.221 . S
O947 Mn948 2.087 . S
O947 C959 1.256 . S
Mn948 O947 2.087 . S
Mn948 O955 2.089 . S
Mn948 O964 2.290 . S
Mn948 O965 2.251 . S
O949 Mn946 2.160 . S
O949 C960 1.239 . S
O950 Mn946 2.221 . S
O950 Mn951 2.290 . S
O950 C961 1.278 . S
Mn951 O950 2.290 . S
Mn951 O953 2.089 . S
Mn951 O956 2.251 . S
Mn951 O957 2.087 . S
O952 Mn946 2.163 . S
O952 C962 1.244 . S
O953 Mn951 2.089 . S
O953 C960 1.256 . S
O954 Mn946 2.160 . S
O954 C963 1.239 . S
O955 Mn948 2.089 . S
O955 C963 1.256 . S
O956 Mn951 2.251 . S
O956 C961 1.241 . S
O957 Mn951 2.087 . S
O957 C962 1.256 . S
C958 O964 1.278 . S
C958 O965 1.241 . S
C959 O945 1.244 . S
C959 O947 1.256 . S
C960 O949 1.239 . S
C960 O953 1.256 . S
C961 O950 1.278 . S
C961 O956 1.241 . S
C962 O952 1.244 . S
C962 O957 1.256 . S
C963 O954 1.239 . S
C963 O955 1.256 . S
O964 Mn946 2.221 . S
O964 Mn948 2.290 . S
O964 C958 1.278 . S
O965 Mn948 2.251 . S
O965 C958 1.241 . S
O966 Mn967 2.163 . S
O966 C980 1.244 . S
Mn967 O966 2.163 . S
Mn967 O970 2.160 . S
Mn967 O971 2.221 . S
Mn967 O973 2.163 . S
Mn967 O975 2.160 . S
Mn967 O985 2.221 . S
O968 Mn969 2.087 . S
O968 C980 1.256 . S
Mn969 O968 2.087 . S
Mn969 O976 2.089 . S
Mn969 O985 2.290 . S
Mn969 O986 2.251 . S
O970 Mn967 2.160 . S
O970 C981 1.239 . S
O971 Mn967 2.221 . S
O971 Mn972 2.290 . S
O971 C982 1.278 . S
Mn972 O971 2.290 . S
Mn972 O974 2.089 . S
Mn972 O977 2.251 . S
Mn972 O978 2.087 . S
O973 Mn967 2.163 . S
O973 C983 1.244 . S
O974 Mn972 2.089 . S
O974 C981 1.256 . S
O975 Mn967 2.160 . S
O975 C984 1.239 . S
O976 Mn969 2.089 . S
O976 C984 1.256 . S
O977 Mn972 2.251 . S
O977 C982 1.241 . S
O978 Mn972 2.087 . S
O978 C983 1.256 . S
C979 O985 1.278 . S
C979 O986 1.241 . S
C980 O966 1.244 . S
C980 O968 1.256 . S
C981 O970 1.239 . S
C981 O974 1.256 . S
C982 O971 1.278 . S
C982 O977 1.241 . S
C983 O973 1.244 . S
C983 O978 1.256 . S
C984 O975 1.239 . S
C984 O976 1.256 . S
O985 Mn967 2.221 . S
O985 Mn969 2.290 . S
O985 C979 1.278 . S
O986 Mn969 2.251 . S
O986 C979 1.241 . S
O987 Mn988 2.163 . S
O987 C1001 1.244 . S
Mn988 O987 2.163 . S
Mn988 O991 2.160 . S
Mn988 O992 2.221 . S
Mn988 O994 2.163 . S
Mn988 O996 2.160 . S
Mn988 O1006 2.221 . S
O989 Mn990 2.087 . S
O989 C1001 1.256 . S
Mn990 O989 2.087 . S
Mn990 O997 2.089 . S
Mn990 O1006 2.290 . S
Mn990 O1007 2.251 . S
O991 Mn988 2.160 . S
O991 C1002 1.239 . S
O992 Mn988 2.221 . S
O992 Mn993 2.290 . S
O992 C1003 1.278 . S
Mn993 O992 2.290 . S
Mn993 O995 2.089 . S
Mn993 O998 2.251 . S
Mn993 O999 2.087 . S
O994 Mn988 2.163 . S
O994 C1004 1.244 . S
O995 Mn993 2.089 . S
O995 C1002 1.256 . S
O996 Mn988 2.160 . S
O996 C1005 1.239 . S
O997 Mn990 2.089 . S
O997 C1005 1.256 . S
O998 Mn993 2.251 . S
O998 C1003 1.241 . S
O999 Mn993 2.087 . S
O999 C1004 1.256 . S
C1000 O1006 1.278 . S
C1000 O1007 1.241 . S
C1001 O987 1.244 . S
C1001 O989 1.256 . S
C1002 O991 1.239 . S
C1002 O995 1.256 . S
C1003 O992 1.278 . S
C1003 O998 1.241 . S
C1004 O994 1.244 . S
C1004 O999 1.256 . S
C1005 O996 1.239 . S
C1005 O997 1.256 . S
O1006 Mn988 2.221 . S
O1006 Mn990 2.290 . S
O1006 C1000 1.278 . S
O1007 Mn990 2.251 . S
O1007 C1000 1.241 . S
C140 C14 2.078 1_455 S
C161 C35 2.078 1_545 S
C98 C56 2.078 1_655 S
C119 C77 2.078 1_565 S
C224 C182 2.078 1_545 S
C248 C203 2.078 1_655 S
C308 C266 2.078 1_565 S
C329 C287 2.078 1_455 S
C371 C350 2.078 1_554 S
C500 C392 2.078 1_556 S
C455 C413 2.078 1_556 S
C434 C476 2.078 1_554 S
C518 C644 2.078 1_556 S
C539 C665 2.078 1_556 S
C560 C602 2.078 1_556 S
C581 C623 2.078 1_556 S
C686 C728 2.078 1_655 S
C707 C752 2.078 1_565 S
C770 C812 2.078 1_655 S
C833 C791 2.078 1_545 S
C854 C875 2.078 1_565 S
C1004 C896 2.078 1_455 S
C917 C959 2.078 1_565 S
C938 C980 2.078 1_455 S
C15 C204 1.883 1_455 S
C36 C225 1.884 1_545 S
C57 C249 1.884 1_655 S
C183 C78 1.883 1_545 S
C330 C99 1.884 1_655 S
C267 C120 1.884 1_565 S
C288 C141 1.884 1_455 S
C162 C309 1.884 1_565 S
C393 C351 1.883 1_556 S
C477 C372 1.884 1_554 S
C414 C501 1.884 1_556 S
C456 C435 1.884 1_554 S
C519 C708 1.883 . S
C729 C540 1.884 . S
C753 C561 1.884 . S
C582 C687 1.883 . S
C834 C603 1.884 . S
C624 C771 1.884 . S
C645 C792 1.884 . S
C666 C813 1.884 . S
C855 C897 1.883 . S
C981 C876 1.884 . S
C1005 C918 1.884 . S
C939 C960 1.884 . S
C17 C76 1.195 . S
C13 C38 1.195 . S
C59 C34 1.195 . S
C80 C55 1.195 . S
C118 C101 1.195 . S
C139 C122 1.195 . S
C143 C160 1.195 . S
C97 C164 1.195 . S
C185 C391 1.195 . S
C206 C412 1.195 . S
C227 C433 1.195 . S
C245 C370 1.195 . S
C269 C475 1.195 . S
C349 C290 1.195 . S
C499 C311 1.195 . S
C332 C454 1.195 . S
C353 C202 1.195 . S
C374 C328 1.195 . S
C395 C265 1.195 . S
C286 C416 1.195 . S
C307 C437 1.195 . S
C247 C458 1.195 . S
C181 C479 1.195 . S
C497 C223 1.195 . S
C521 C580 1.195 . S
C542 C517 1.195 . S
C538 C563 1.195 . S
C559 C584 1.194 . S
C605 C622 1.194 . S
C643 C626 1.195 . S
C664 C647 1.195 . S
C668 C601 1.195 . S
C689 C895 1.195 . S
C916 C710 1.194 . S
C937 C731 1.195 . S
C749 C874 1.195 . S
C979 C773 1.195 . S
C794 C853 1.195 . S
C815 C1003 1.194 . S
C836 C958 1.195 . S
C706 C857 1.195 . S
C832 C878 1.195 . S
C769 C899 1.194 . S
C920 C790 1.195 . S
C811 C941 1.195 . S
C962 C751 1.194 . S
C983 C685 1.195 . S
C727 C1001 1.195 . S
C16 C940 0.928 . S
C877 C37 0.928 . S
C58 C898 0.928 . S
C79 C919 0.928 . S
C100 C1000 0.927 . S
C121 C961 0.928 . S
C142 C982 0.927 . S
C163 C856 0.928 . S
C184 C835 0.928 . S
C205 C772 0.928 . S
C226 C793 0.927 . S
C244 C814 0.928 . S
C268 C709 0.928 . S
C289 C730 0.928 . S
C310 C748 0.927 . S
C331 C688 0.928 . S
C352 C667 0.928 . S
C373 C541 0.927 . S
C394 C562 0.928 . S
C415 C583 0.928 . S
C436 C520 0.928 . S
C457 C625 0.927 . S
C478 C646 0.928 . S
C496 C604 0.928 . S
C102 C900 0.604 . S
C123 C921 0.604 . S
C144 C942 0.604 . S
C165 C879 0.604 . S
C18 C984 0.604 . S
C39 C858 0.604 . S
C60 C1002 0.604 . S
C963 C81 0.604 . S
C312 C711 0.604 . S
C333 C732 0.604 . S
C270 C750 0.604 . S
C291 C690 0.604 . S
C228 C837 0.604 . S
C246 C774 0.604 . S
C186 C795 0.604 . S
C207 C816 0.604 . S
C459 C585 0.604 . S
C417 C627 0.604 . S
C438 C648 0.604 . S
C375 C669 0.604 . S
C396 C606 0.604 . S
C354 C543 0.604 . S
C498 C564 0.604 . S
C480 C522 0.604 . S
