# Generated by pormake.
# Topology crb, (4)-cn, num edge types: 1
# Building blocks:
#     Node 0, Type 0, BuildingBlock: QUQFOY_clean_sbu_1, # of connection points: 4
#     Node 1, Type 0, BuildingBlock: QUQFOY_clean_sbu_1, # of connection points: 4
#     Node 2, Type 0, BuildingBlock: QUQFOY_clean_sbu_1, # of connection points: 4
#     Node 3, Type 0, BuildingBlock: QUQFOY_clean_sbu_1, # of connection points: 4
#     Node 4, Type 0, BuildingBlock: QUQFOY_clean_sbu_1, # of connection points: 4
#     Node 5, Type 0, BuildingBlock: QUQFOY_clean_sbu_1, # of connection points: 4
#     Node 6, Type 0, BuildingBlock: QUQFOY_clean_sbu_1, # of connection points: 4
#     Node 7, Type 0, BuildingBlock: QUQFOY_clean_sbu_1, # of connection points: 4
#     Edge 8, Type (0, 0), BuildingBlock: ZUJKAS_clean_linker_0, # of connection points: 2
#     Edge 9, Type (0, 0), BuildingBlock: ZUJKAS_clean_linker_0, # of connection points: 2
#     Edge 10, Type (0, 0), BuildingBlock: ZUJKAS_clean_linker_0, # of connection points: 2
#     Edge 11, Type (0, 0), BuildingBlock: ZUJKAS_clean_linker_0, # of connection points: 2
#     Edge 12, Type (0, 0), BuildingBlock: ZUJKAS_clean_linker_0, # of connection points: 2
#     Edge 13, Type (0, 0), BuildingBlock: ZUJKAS_clean_linker_0, # of connection points: 2
#     Edge 14, Type (0, 0), BuildingBlock: ZUJKAS_clean_linker_0, # of connection points: 2
#     Edge 15, Type (0, 0), BuildingBlock: ZUJKAS_clean_linker_0, # of connection points: 2
#     Edge 16, Type (0, 0), BuildingBlock: ZUJKAS_clean_linker_0, # of connection points: 2
#     Edge 17, Type (0, 0), BuildingBlock: ZUJKAS_clean_linker_0, # of connection points: 2
#     Edge 18, Type (0, 0), BuildingBlock: ZUJKAS_clean_linker_0, # of connection points: 2
#     Edge 19, Type (0, 0), BuildingBlock: ZUJKAS_clean_linker_0, # of connection points: 2
#     Edge 20, Type (0, 0), BuildingBlock: ZUJKAS_clean_linker_0, # of connection points: 2
#     Edge 21, Type (0, 0), BuildingBlock: ZUJKAS_clean_linker_0, # of connection points: 2
#     Edge 22, Type (0, 0), BuildingBlock: ZUJKAS_clean_linker_0, # of connection points: 2
#     Edge 23, Type (0, 0), BuildingBlock: ZUJKAS_clean_linker_0, # of connection points: 2
# Relax obj value: 0.155
# Max RMSD: 0.216
# Mean RMSD: 0.216
data_MOF--net-crb--node1-QUQFOY_clean_sbu_1--edge1-ZUJKAS_clean_linker_0
_symmetry_space_group_name_H-M    P1
_symmetry_Int_Tables_number       1
_symmetry_cell_setting            triclinic
loop_
_symmetry_equiv_pos_as_xyz
'x, y, z'
_cell_length_a     52.365993
_cell_length_b     65.028409
_cell_length_c     29.912453
_cell_angle_alpha  90.002453
_cell_angle_beta   89.956518
_cell_angle_gamma 89.977447
loop_
_atom_site_label
_atom_site_type_symbol
_atom_site_fract_x
_atom_site_fract_y
_atom_site_fract_z
_atom_type_partial_charge
O0 O 0.29952 0.31177 0.08857 0.0
Cd1 Cd 0.31435 0.32832 0.14106 0.0
Cd2 Cd 0.30891 0.36017 0.0765 0.0
O3 O 0.29198 0.33673 0.04036 0.0
O4 O 0.31702 0.30673 0.18783 0.0
O5 O 0.29188 0.33378 0.19488 0.0
C6 C 0.30043 0.31669 0.21098 0.0
C7 C 0.28986 0.39261 0.07968 0.0
C8 C 0.29103 0.31782 0.05106 0.0
C9 C 0.3618 0.35068 0.10987 0.0
O10 O 0.34819 0.36047 0.0819 0.0
O11 O 0.35165 0.33807 0.137 0.0
O12 O 0.30048 0.38591 0.04363 0.0
O13 O 0.28919 0.3805 0.11392 0.0
O14 O 0.70185 0.31592 0.12817 0.0
Cd15 Cd 0.68403 0.33023 0.07529 0.0
Cd16 Cd 0.688 0.36363 0.13758 0.0
O17 O 0.70476 0.34132 0.17695 0.0
O18 O 0.68134 0.30688 0.03273 0.0
O19 O 0.70373 0.33475 0.01777 0.0
C20 C 0.69597 0.31675 0.0057 0.0
C21 C 0.7072 0.39577 0.12944 0.0
C22 C 0.70851 0.32264 0.16627 0.0
C23 C 0.6356 0.35209 0.10557 0.0
O24 O 0.6489 0.36349 0.13097 0.0
O25 O 0.64614 0.33854 0.08115 0.0
O26 O 0.69605 0.39049 0.16613 0.0
O27 O 0.70826 0.3824 0.09751 0.0
O28 O 0.69386 0.692 0.08899 0.0
Cd29 Cd 0.67929 0.67579 0.14223 0.0
Cd30 Cd 0.68737 0.64303 0.07978 0.0
O31 O 0.70347 0.66662 0.04296 0.0
O32 O 0.67503 0.69801 0.1872 0.0
O33 O 0.70158 0.67201 0.19683 0.0
C34 C 0.69202 0.68906 0.21137 0.0
C35 C 0.70797 0.61124 0.08383 0.0
C36 C 0.70329 0.68569 0.05236 0.0
C37 C 0.6337 0.65081 0.11208 0.0
O38 O 0.64813 0.64126 0.08495 0.0
O39 O 0.64276 0.66431 0.13832 0.0
O40 O 0.69713 0.61743 0.04758 0.0
O41 O 0.70798 0.62354 0.11778 0.0
O42 O 0.3021 0.68961 0.12524 0.0
Cd43 Cd 0.31675 0.67408 0.07117 0.0
Cd44 Cd 0.30823 0.64078 0.13151 0.0
O45 O 0.29082 0.66371 0.16866 0.0
O46 O 0.32146 0.69698 0.028 0.0
O47 O 0.29485 0.67129 0.01581 0.0
C48 C 0.30461 0.68851 0.00277 0.0
C49 C 0.28844 0.60887 0.12264 0.0
C50 C 0.29168 0.68291 0.1607 0.0
C51 C 0.36221 0.6492 0.10168 0.0
O52 O 0.34765 0.6396 0.12852 0.0
O53 O 0.3532 0.66255 0.07503 0.0
O54 O 0.29832 0.61434 0.16027 0.0
O55 O 0.28884 0.62199 0.09017 0.0
O56 O 0.79958 0.8145 0.5891 0.0
Cd57 Cd 0.81495 0.83036 0.6421 0.0
Cd58 Cd 0.8086 0.86315 0.5792 0.0
O59 O 0.79164 0.83996 0.54235 0.0
O60 O 0.81849 0.80798 0.68688 0.0
O61 O 0.79311 0.83467 0.69719 0.0
C62 C 0.80204 0.81736 0.71146 0.0
C63 C 0.78904 0.89538 0.58334 0.0
C64 C 0.79075 0.82095 0.55215 0.0
C65 C 0.86183 0.85368 0.61128 0.0
O66 O 0.8479 0.86377 0.5843 0.0
O67 O 0.85204 0.84053 0.63761 0.0
O68 O 0.79984 0.88903 0.54716 0.0
O69 O 0.78857 0.88305 0.61722 0.0
O70 O 0.19866 0.81456 0.62491 0.0
Cd71 Cd 0.18188 0.82912 0.57149 0.0
Cd72 Cd 0.1885 0.86322 0.63326 0.0
O73 O 0.20597 0.8405 0.67075 0.0
O74 O 0.17771 0.80543 0.53014 0.0
O75 O 0.20195 0.83214 0.51395 0.0
C76 C 0.19315 0.81431 0.50287 0.0
C77 C 0.20733 0.89573 0.62883 0.0
C78 C 0.20745 0.82145 0.66149 0.0
C79 C 0.13512 0.85273 0.60263 0.0
O80 O 0.14918 0.86341 0.62828 0.0
O81 O 0.14474 0.83913 0.57722 0.0
O82 O 0.19666 0.8893 0.66505 0.0
O83 O 0.20809 0.88334 0.59507 0.0
O84 O 0.19229 0.19125 0.58746 0.0
Cd85 Cd 0.17922 0.17413 0.64084 0.0
Cd86 Cd 0.18445 0.14326 0.57522 0.0
O87 O 0.20056 0.16677 0.53847 0.0
O88 O 0.17584 0.19579 0.68729 0.0
O89 O 0.20279 0.16987 0.69368 0.0
C90 C 0.19335 0.18663 0.70989 0.0
C91 C 0.20478 0.11158 0.58289 0.0
C92 C 0.20075 0.18564 0.54956 0.0
C93 C 0.13212 0.15064 0.61185 0.0
O94 O 0.14526 0.14226 0.58115 0.0
O95 O 0.14257 0.16264 0.63989 0.0
O96 O 0.19409 0.11693 0.54584 0.0
O97 O 0.20488 0.12472 0.61535 0.0
O98 O 0.80127 0.19129 0.62622 0.0
Cd99 Cd 0.81367 0.17338 0.57354 0.0
Cd100 Cd 0.80577 0.14309 0.63824 0.0
O101 O 0.78821 0.16688 0.67206 0.0
O102 O 0.81914 0.19428 0.52605 0.0
O103 O 0.78974 0.17004 0.52091 0.0
C104 C 0.80082 0.18596 0.50394 0.0
C105 C 0.78596 0.11127 0.62934 0.0
C106 C 0.79029 0.18582 0.66219 0.0
C107 C 0.85916 0.14934 0.60635 0.0
O108 O 0.84515 0.14206 0.63719 0.0
O109 O 0.84957 0.1606 0.57603 0.0
O110 O 0.79511 0.11697 0.6674 0.0
O111 O 0.78703 0.12417 0.59648 0.0
H112 H 0.27993 0.41858 0.01036 0.0
H113 H 0.27116 0.45545 0.01421 0.0
H114 H 0.27152 0.45248 0.15823 0.0
H115 H 0.27957 0.41537 0.15464 0.0
H116 H 0.23462 0.4794 0.12524 0.0
H117 H 0.32901 0.49413 0.04672 0.0
H118 H 0.30823 0.47838 0.01357 0.0
H119 H 0.31969 0.46905 0.06651 0.0
C120 C 0.27776 0.42571 0.04288 0.0
C121 C 0.28076 0.41413 0.08223 0.0
C122 C 0.27288 0.4468 0.04501 0.0
C123 C 0.27137 0.4568 0.08648 0.0
C124 C 0.2728 0.44509 0.12585 0.0
H125 H 0.28057 0.57977 0.18681 0.0
H126 H 0.27189 0.54325 0.17573 0.0
C127 C 0.27739 0.42389 0.12376 0.0
C128 C 0.27011 0.47959 0.08878 0.0
H129 H 0.30305 0.52302 0.06062 0.0
C130 C 0.24953 0.48896 0.111 0.0
C131 C 0.28965 0.49204 0.07035 0.0
C132 C 0.31302 0.48293 0.04832 0.0
C133 C 0.24795 0.51047 0.11514 0.0
C134 C 0.26756 0.52285 0.09689 0.0
C135 C 0.28789 0.51349 0.07413 0.0
C136 C 0.26863 0.54541 0.10379 0.0
C137 C 0.22535 0.5198 0.13893 0.0
C138 C 0.26949 0.55882 0.06702 0.0
C139 C 0.27447 0.57978 0.07324 0.0
C140 C 0.27906 0.58759 0.11632 0.0
C141 C 0.27713 0.57425 0.15319 0.0
C142 C 0.27198 0.55337 0.14696 0.0
H143 H 0.20888 0.50904 0.13993 0.0
H144 H 0.2308 0.52342 0.1739 0.0
H145 H 0.21926 0.53431 0.12252 0.0
H146 H 0.26716 0.55294 0.03338 0.0
H147 H 0.27593 0.58963 0.04415 0.0
H148 H 0.38992 0.38045 0.06756 0.0
H149 H 0.43644 0.38414 0.06689 0.0
H150 H 0.44349 0.33055 0.15098 0.0
H151 H 0.39714 0.32711 0.15299 0.0
H152 H 0.47457 0.36087 0.17816 0.0
H153 H 0.48518 0.34912 0.99518 0.0
H154 H 0.46478 0.37023 0.01005 0.0
H155 H 0.45556 0.34439 0.02422 0.0
C156 C 0.40139 0.36947 0.08594 0.0
C157 C 0.38984 0.35342 0.11012 0.0
C158 C 0.42797 0.37154 0.08531 0.0
C159 C 0.44344 0.35739 0.10819 0.0
C160 C 0.43191 0.3416 0.13297 0.0
H161 H 0.60077 0.3258 0.06903 0.0
H162 H 0.55432 0.32875 0.07019 0.0
C163 C 0.4054 0.33965 0.13403 0.0
C164 C 0.47166 0.35883 0.1065 0.0
H165 H 0.52267 0.3571 0.03549 0.0
C166 C 0.48512 0.36011 0.14697 0.0
C167 C 0.48534 0.3576 0.06576 0.0
C168 C 0.47203 0.35506 0.02135 0.0
C169 C 0.5119 0.35989 0.14794 0.0
C170 C 0.52558 0.35896 0.10717 0.0
C171 C 0.51212 0.35798 0.06666 0.0
C172 C 0.55382 0.35771 0.10587 0.0
C173 C 0.5252 0.35982 0.1927 0.0
C174 C 0.56899 0.37317 0.12501 0.0
C175 C 0.5956 0.3714 0.1249 0.0
C176 C 0.60749 0.35431 0.10494 0.0
C177 C 0.59223 0.33915 0.08471 0.0
C178 C 0.56567 0.34083 0.08529 0.0
H179 H 0.51212 0.35517 0.22016 0.0
H180 H 0.54183 0.34923 0.19252 0.0
H181 H 0.53221 0.37555 0.20018 0.0
H182 H 0.56027 0.38659 0.14007 0.0
H183 H 0.60683 0.38345 0.14031 0.0
H184 H 0.7103 0.42595 0.19252 0.0
H185 H 0.71959 0.46234 0.18064 0.0
H186 H 0.7344 0.45047 0.04122 0.0
H187 H 0.72495 0.41391 0.05269 0.0
H188 H 0.76298 0.48471 0.14221 0.0
H189 H 0.67301 0.4914 0.04409 0.0
H190 H 0.67981 0.46947 0.07907 0.0
H191 H 0.69537 0.47215 0.02589 0.0
C192 C 0.7159 0.43098 0.15942 0.0
C193 C 0.71658 0.41707 0.1234 0.0
C194 C 0.72129 0.45178 0.15277 0.0
C195 C 0.72735 0.4591 0.10999 0.0
C196 C 0.72948 0.44511 0.07442 0.0
H197 H 0.71894 0.58518 0.01519 0.0
H198 H 0.72879 0.54855 0.01994 0.0
C199 C 0.72415 0.42424 0.08106 0.0
C200 C 0.72906 0.48155 0.10219 0.0
H201 H 0.69667 0.52152 0.055 0.0
C202 C 0.74865 0.49281 0.12282 0.0
C203 C 0.71026 0.49201 0.07704 0.0
C204 C 0.68828 0.48075 0.05544 0.0
C205 C 0.74991 0.51434 0.11896 0.0
C206 C 0.73073 0.52485 0.09469 0.0
C207 C 0.71144 0.51348 0.07343 0.0
C208 C 0.72931 0.54764 0.09225 0.0
C209 C 0.77183 0.52557 0.14067 0.0
C210 C 0.72697 0.5595 0.13134 0.0
C211 C 0.7216 0.58056 0.12871 0.0
C212 C 0.71802 0.59002 0.08693 0.0
C213 C 0.72147 0.57832 0.04789 0.0
C214 C 0.72711 0.55736 0.05054 0.0
H215 H 0.7887 0.51538 0.1448 0.0
H216 H 0.77758 0.53924 0.12084 0.0
H217 H 0.7659 0.53082 0.17442 0.0
H218 H 0.72797 0.5523 0.16393 0.0
H219 H 0.71885 0.58914 0.15937 0.0
H220 H 0.39939 0.67147 0.06016 0.0
H221 H 0.44531 0.66571 0.06194 0.0
H222 H 0.43421 0.61197 0.14424 0.0
H223 H 0.38802 0.61799 0.14376 0.0
H224 H 0.47136 0.63544 0.17649 0.0
H225 H 0.48807 0.62462 0.99586 0.0
H226 H 0.47165 0.64835 0.006 0.0
H227 H 0.45645 0.62431 0.0199 0.0
C228 C 0.40663 0.6583 0.07836 0.0
C229 C 0.39001 0.64515 0.10172 0.0
C230 C 0.43292 0.65493 0.07902 0.0
C231 C 0.44317 0.63813 0.10232 0.0
C232 C 0.42667 0.62493 0.12569 0.0
H233 H 0.60826 0.61892 0.07203 0.0
H234 H 0.56221 0.61236 0.07256 0.0
C235 C 0.40031 0.6284 0.12542 0.0
C236 C 0.47122 0.63528 0.10443 0.0
H237 H 0.52479 0.63495 0.03948 0.0
C238 C 0.48304 0.63497 0.14653 0.0
C239 C 0.48647 0.63418 0.06542 0.0
C240 C 0.47495 0.63264 0.01931 0.0
C241 C 0.50972 0.63486 0.1506 0.0
C242 C 0.52494 0.63567 0.11153 0.0
C243 C 0.51313 0.6347 0.06947 0.0
C244 C 0.55295 0.63882 0.11339 0.0
C245 C 0.52126 0.63402 0.19678 0.0
C246 C 0.56301 0.65596 0.13582 0.0
C247 C 0.58925 0.65963 0.13592 0.0
C248 C 0.60597 0.64646 0.11284 0.0
C249 C 0.59588 0.62937 0.0901 0.0
C250 C 0.56959 0.62558 0.09042 0.0
H251 H 0.5083 0.62612 0.22068 0.0
H252 H 0.53993 0.62592 0.19665 0.0
H253 H 0.52424 0.64992 0.20918 0.0
H254 H 0.5505 0.66677 0.15256 0.0
H255 H 0.59634 0.67305 0.15338 0.0
H256 H 0.77679 0.91724 0.65868 0.0
H257 H 0.76751 0.95408 0.66346 0.0
H258 H 0.77019 0.95854 0.51964 0.0
H259 H 0.78011 0.92193 0.51471 0.0
H260 H 0.80137 0.98561 0.55847 0.0
H261 H 0.70653 0.99053 0.6398 0.0
H262 H 0.72876 0.97505 0.67062 0.0
H263 H 0.71862 0.96695 0.61591 0.0
C264 C 0.77482 0.92599 0.62806 0.0
C265 C 0.77933 0.91671 0.58634 0.0
C266 C 0.76936 0.94703 0.63081 0.0
C267 C 0.7679 0.95907 0.59187 0.0
C268 C 0.77116 0.94957 0.55012 0.0
H269 H 0.77151 0.09252 0.55124 0.0
H270 H 0.76314 0.05581 0.53979 0.0
C271 C 0.77685 0.92863 0.54737 0.0
C272 C 0.76611 0.98184 0.59466 0.0
H273 H 0.73146 0.02153 0.63875 0.0
C274 C 0.78586 0.99346 0.57543 0.0
C275 C 0.74596 0.99207 0.61705 0.0
C276 C 0.72364 0.98052 0.63665 0.0
C277 C 0.78647 0.01495 0.57911 0.0
C278 C 0.76658 0.02516 0.60215 0.0
C279 C 0.7466 0.01363 0.62091 0.0
C280 C 0.76737 0.04769 0.60954 0.0
C281 C 0.80894 0.02648 0.55981 0.0
C282 C 0.77132 0.05536 0.65276 0.0
C283 C 0.77604 0.07628 0.65943 0.0
C284 C 0.7768 0.08993 0.62295 0.0
C285 C 0.77119 0.0824 0.58 0.0
C286 C 0.7665 0.06143 0.57336 0.0
H287 H 0.82495 0.01603 0.55084 0.0
H288 H 0.80284 0.03465 0.52905 0.0
H289 H 0.81609 0.03812 0.58389 0.0
H290 H 0.772 0.04501 0.68112 0.0
H291 H 0.78012 0.08158 0.693 0.0
H292 H 0.10799 0.88447 0.63994 0.0
H293 H 0.06157 0.88896 0.64079 0.0
H294 H 0.05265 0.83226 0.56758 0.0
H295 H 0.09889 0.82798 0.56535 0.0
H296 H 0.02214 0.86196 0.53512 0.0
H297 H 0.01251 0.85785 0.71988 0.0
H298 H 0.03323 0.87793 0.70039 0.0
H299 H 0.04181 0.85147 0.69136 0.0
C300 C 0.09612 0.87297 0.62403 0.0
C301 C 0.10712 0.85581 0.60281 0.0
C302 C 0.0696 0.87551 0.62474 0.0
C303 C 0.05364 0.86076 0.60494 0.0
C304 C 0.06461 0.84381 0.58316 0.0
H305 H 0.89775 0.82985 0.65216 0.0
H306 H 0.94401 0.83383 0.64987 0.0
C307 C 0.09107 0.84137 0.58199 0.0
C308 C 0.02546 0.86272 0.60683 0.0
H309 H 0.97487 0.86406 0.67878 0.0
C310 C 0.01177 0.86252 0.5665 0.0
C311 C 0.01203 0.86326 0.64787 0.0
C312 C 0.02558 0.86246 0.69237 0.0
C313 C 0.98498 0.86236 0.56604 0.0
C314 C 0.97154 0.86302 0.60708 0.0
C315 C 0.98524 0.8637 0.64738 0.0
C316 C 0.94334 0.86135 0.60918 0.0
C317 C 0.97141 0.86056 0.5217 0.0
C318 C 0.92755 0.87568 0.58757 0.0
C319 C 0.901 0.87331 0.58833 0.0
C320 C 0.88982 0.85674 0.61138 0.0
C321 C 0.90571 0.84278 0.63408 0.0
C322 C 0.93218 0.84505 0.63287 0.0
H323 H 0.98441 0.85516 0.49477 0.0
H324 H 0.95505 0.84975 0.52401 0.0
H325 H 0.96394 0.87587 0.51186 0.0
H326 H 0.93573 0.88866 0.56999 0.0
H327 H 0.88927 0.88444 0.57092 0.0
H328 H 0.2095 0.08176 0.51924 0.0
H329 H 0.21872 0.04533 0.5309 0.0
H330 H 0.2309 0.05665 0.67127 0.0
H331 H 0.22151 0.09322 0.66003 0.0
H332 H 0.26131 0.02266 0.57149 0.0
H333 H 0.16942 0.01591 0.66412 0.0
H334 H 0.177 0.03793 0.62989 0.0
H335 H 0.1914 0.03507 0.68398 0.0
C336 C 0.21455 0.0766 0.55252 0.0
C337 C 0.21446 0.09035 0.58884 0.0
C338 C 0.21989 0.05577 0.55905 0.0
C339 C 0.22514 0.04828 0.602 0.0
C340 C 0.2266 0.06213 0.63792 0.0
H341 H 0.21623 0.92236 0.69731 0.0
H342 H 0.2253 0.9591 0.69224 0.0
C343 C 0.22132 0.08302 0.63141 0.0
C344 C 0.22663 0.0258 0.60956 0.0
H345 H 0.19341 0.9858 0.65487 0.0
C346 C 0.24662 0.01455 0.59001 0.0
C347 C 0.20735 0.01532 0.63355 0.0
C348 C 0.18493 0.02657 0.65388 0.0
C349 C 0.24785 0.99302 0.59395 0.0
C350 C 0.22824 0.9825 0.61717 0.0
C351 C 0.2085 0.99385 0.63724 0.0
C352 C 0.22698 0.95971 0.61996 0.0
C353 C 0.2702 0.98179 0.57353 0.0
C354 C 0.22547 0.94766 0.58103 0.0
C355 C 0.22052 0.92654 0.58386 0.0
C356 C 0.21655 0.91719 0.62565 0.0
C357 C 0.21907 0.92912 0.66459 0.0
C358 C 0.22427 0.95014 0.66176 0.0
H359 H 0.28706 0.99204 0.56998 0.0
H360 H 0.27572 0.96824 0.59395 0.0
H361 H 0.26486 0.97635 0.53965 0.0
H362 H 0.22687 0.95474 0.54835 0.0
H363 H 0.2185 0.91778 0.55327 0.0
H364 H 0.88782 0.13029 0.67102 0.0
H365 H 0.93447 0.1274 0.67389 0.0
H366 H 0.94006 0.15689 0.54517 0.0
H367 H 0.89369 0.16009 0.54211 0.0
H368 H 0.97112 0.10926 0.61388 0.0
H369 H 0.98225 0.19386 0.62971 0.0
H370 H 0.95204 0.18104 0.63791 0.0
H371 H 0.96365 0.18592 0.58234 0.0
C372 C 0.89897 0.13601 0.64315 0.0
C373 C 0.88705 0.14567 0.60661 0.0
C374 C 0.92558 0.13431 0.64484 0.0
C375 C 0.94062 0.14226 0.61009 0.0
C376 C 0.92875 0.15101 0.57268 0.0
H377 H 0.10188 0.1297 0.5525 0.0
H378 H 0.05541 0.12596 0.5547 0.0
C379 C 0.90223 0.15278 0.571 0.0
C380 C 0.96877 0.14232 0.61364 0.0
H381 H 0.02003 0.17458 0.6173 0.0
C382 C 0.98188 0.1235 0.61486 0.0
C383 C 0.98263 0.16095 0.61559 0.0
C384 C 0.96946 0.1816 0.61675 0.0
C385 C 0.00867 0.12286 0.61686 0.0
C386 C 0.02255 0.14152 0.61705 0.0
C387 C 0.00935 0.16029 0.61682 0.0
C388 C 0.0508 0.14213 0.61744 0.0
C389 C 0.02186 0.10226 0.61925 0.0
C390 C 0.06356 0.15264 0.65172 0.0
C391 C 0.09002 0.15502 0.65032 0.0
C392 C 0.10427 0.14696 0.61448 0.0
C393 C 0.09149 0.13603 0.58064 0.0
C394 C 0.06495 0.13374 0.582 0.0
H395 H 0.0087 0.09 0.63102 0.0
H396 H 0.0287 0.09795 0.5854 0.0
H397 H 0.03862 0.10286 0.64193 0.0
H398 H 0.05296 0.1593 0.67928 0.0
H399 H 0.09924 0.16345 0.67704 0.0
H400 H 0.20652 0.22687 0.56455 0.0
H401 H 0.22164 0.25301 0.51215 0.0
H402 H 0.23229 0.20644 0.41123 0.0
H403 H 0.21704 0.18014 0.46326 0.0
H404 H 0.26924 0.25502 0.4675 0.0
H405 H 0.1881 0.25064 0.34876 0.0
H406 H 0.18657 0.24018 0.40464 0.0
H407 H 0.2025 0.2262 0.36091 0.0
C408 C 0.21201 0.22214 0.53118 0.0
C409 C 0.21045 0.20139 0.51804 0.0
C410 C 0.22066 0.23713 0.50133 0.0
C411 C 0.22769 0.23169 0.45769 0.0
C412 C 0.22648 0.21099 0.44456 0.0
H413 H 0.3208 0.28501 0.25821 0.0
H414 H 0.30257 0.26758 0.32286 0.0
C415 C 0.21791 0.19596 0.47443 0.0
C416 C 0.23689 0.24757 0.42613 0.0
H417 H 0.22521 0.2686 0.32365 0.0
C418 C 0.25949 0.25818 0.43625 0.0
C419 C 0.22386 0.25192 0.38585 0.0
C420 C 0.19877 0.2418 0.37446 0.0
C421 C 0.27009 0.27231 0.40602 0.0
C422 C 0.25787 0.27571 0.36455 0.0
C423 C 0.23461 0.26587 0.35541 0.0
C424 C 0.26999 0.28789 0.32853 0.0
C425 C 0.29447 0.28325 0.41844 0.0
C426 C 0.25768 0.30512 0.31019 0.0
C427 C 0.26811 0.3152 0.27303 0.0
C428 C 0.29077 0.30794 0.25334 0.0
C429 C 0.30331 0.29099 0.27258 0.0
C430 C 0.29302 0.28108 0.30976 0.0
H431 H 0.29707 0.28387 0.45528 0.0
H432 H 0.31094 0.27479 0.40403 0.0
H433 H 0.29471 0.29917 0.40502 0.0
H434 H 0.23977 0.3105 0.32407 0.0
H435 H 0.25796 0.32815 0.25878 0.0
H436 H 0.70961 0.32602 0.25732 0.0
H437 H 0.726 0.30089 0.31091 0.0
H438 H 0.75005 0.26178 0.20217 0.0
H439 H 0.73264 0.2864 0.14854 0.0
H440 H 0.72775 0.23964 0.26354 0.0
H441 H 0.79784 0.29032 0.34694 0.0
H442 H 0.76621 0.30075 0.34992 0.0
H443 H 0.78158 0.29777 0.29638 0.0
C444 C 0.71862 0.31216 0.24487 0.0
C445 C 0.71996 0.30822 0.19875 0.0
C446 C 0.7281 0.29784 0.27552 0.0
C447 C 0.73972 0.2796 0.2606 0.0
C448 C 0.74123 0.27575 0.21451 0.0
H449 H 0.82992 0.20605 0.44321 0.0
H450 H 0.81529 0.22631 0.37946 0.0
C451 C 0.73133 0.28986 0.18389 0.0
C452 C 0.74962 0.26423 0.29297 0.0
H453 H 0.78807 0.25883 0.38412 0.0
C454 C 0.74114 0.24378 0.28968 0.0
C455 C 0.76742 0.26952 0.32659 0.0
C456 C 0.779 0.29073 0.3299 0.0
C457 C 0.74963 0.22857 0.31952 0.0
C458 C 0.76636 0.23414 0.35463 0.0
C459 C 0.77509 0.25453 0.35746 0.0
C460 C 0.77523 0.21927 0.38902 0.0
C461 C 0.74097 0.20669 0.31241 0.0
C462 C 0.7577 0.20799 0.4149 0.0
C463 C 0.76616 0.1959 0.45068 0.0
C464 C 0.79218 0.19543 0.46188 0.0
C465 C 0.80974 0.2062 0.43525 0.0
C466 C 0.80138 0.21783 0.39894 0.0
H467 H 0.73586 0.20386 0.27689 0.0
H468 H 0.75597 0.19552 0.32234 0.0
H469 H 0.72367 0.20378 0.33287 0.0
H470 H 0.73739 0.20924 0.40881 0.0
H471 H 0.75224 0.18795 0.47116 0.0
H472 H 0.77277 0.82826 0.46755 0.0
H473 H 0.75576 0.80311 0.41446 0.0
H474 H 0.76739 0.75467 0.51072 0.0
H475 H 0.78421 0.7796 0.56413 0.0
H476 H 0.7815 0.76744 0.38096 0.0
H477 H 0.692 0.74786 0.47167 0.0
H478 H 0.71031 0.77071 0.4838 0.0
H479 H 0.72091 0.74612 0.50384 0.0
C480 C 0.77156 0.81228 0.47757 0.0
C481 C 0.7798 0.80598 0.52016 0.0
C482 C 0.7619 0.79794 0.44717 0.0
C483 C 0.76011 0.7771 0.45891 0.0
C484 C 0.76826 0.77074 0.50131 0.0
H485 H 0.73366 0.67882 0.26253 0.0
H486 H 0.75086 0.69814 0.32631 0.0
C487 C 0.77798 0.78503 0.53169 0.0
C488 C 0.75031 0.76194 0.42629 0.0
H489 H 0.70108 0.7288 0.40626 0.0
C490 C 0.76399 0.7589 0.3865 0.0
C491 C 0.72743 0.75093 0.43374 0.0
C492 C 0.71163 0.75411 0.47538 0.0
C493 C 0.75523 0.74525 0.3536 0.0
C494 C 0.73235 0.73421 0.36104 0.0
C495 C 0.71879 0.73712 0.40101 0.0
C496 C 0.72098 0.72114 0.32584 0.0
C497 C 0.77003 0.74325 0.31049 0.0
C498 C 0.69808 0.72729 0.3057 0.0
C499 C 0.68825 0.71635 0.26953 0.0
C500 C 0.70107 0.69894 0.25294 0.0
C501 C 0.7234 0.69219 0.27451 0.0
C502 C 0.73331 0.70326 0.31073 0.0
H503 H 0.78478 0.75542 0.30698 0.0
H504 H 0.77974 0.72809 0.30966 0.0
H505 H 0.75697 0.74407 0.28131 0.0
H506 H 0.68825 0.74101 0.31701 0.0
H507 H 0.67091 0.72187 0.25386 0.0
H508 H 0.22712 0.82753 0.43894 0.0
H509 H 0.24243 0.80817 0.37372 0.0
H510 H 0.19349 0.75746 0.40975 0.0
H511 H 0.1778 0.77669 0.47385 0.0
H512 H 0.26777 0.77161 0.37495 0.0
H513 H 0.17853 0.76271 0.27815 0.0
H514 H 0.18156 0.78098 0.32327 0.0
H515 H 0.17467 0.75438 0.33488 0.0
C516 C 0.21934 0.81239 0.43246 0.0
C517 C 0.20121 0.80367 0.46149 0.0
C518 C 0.22812 0.80135 0.39528 0.0
C519 C 0.21877 0.78151 0.38646 0.0
C520 C 0.20047 0.77294 0.41514 0.0
H521 H 0.26317 0.67489 0.23574 0.0
H522 H 0.24565 0.69992 0.28891 0.0
C523 C 0.19167 0.78393 0.45206 0.0
C524 C 0.22943 0.76897 0.3495 0.0
H525 H 0.21235 0.73885 0.26084 0.0
C526 C 0.25572 0.76472 0.34957 0.0
C527 C 0.21367 0.75997 0.3164 0.0
C528 C 0.18559 0.76492 0.31284 0.0
C529 C 0.26648 0.75106 0.3185 0.0
C530 C 0.25053 0.74147 0.28671 0.0
C531 C 0.22441 0.7461 0.28575 0.0
C532 C 0.26073 0.72647 0.25428 0.0
C533 C 0.29469 0.74644 0.32051 0.0
C534 C 0.27475 0.73324 0.21726 0.0
C535 C 0.28465 0.71906 0.18679 0.0
C536 C 0.28078 0.69782 0.19294 0.0
C537 C 0.26657 0.69111 0.2301 0.0
C538 C 0.25652 0.70536 0.26042 0.0
H539 H 0.304 0.75358 0.35004 0.0
H540 H 0.29785 0.72956 0.32163 0.0
H541 H 0.30409 0.75236 0.28983 0.0
H542 H 0.27806 0.74951 0.212 0.0
H543 H 0.29551 0.72479 0.15858 0.0
H544 H 0.22461 0.82942 0.74639 0.0
H545 H 0.242 0.80476 0.80028 0.0
H546 H 0.23312 0.7559 0.70411 0.0
H547 H 0.21593 0.78032 0.64999 0.0
H548 H 0.21687 0.76864 0.83304 0.0
H549 H 0.30811 0.75055 0.74635 0.0
H550 H 0.28932 0.77306 0.73333 0.0
H551 H 0.27981 0.74828 0.71273 0.0
C552 C 0.22654 0.81347 0.73656 0.0
C553 C 0.21892 0.80688 0.69382 0.0
C554 C 0.23642 0.79941 0.76741 0.0
C555 C 0.23905 0.77858 0.75594 0.0
C556 C 0.2316 0.77197 0.71333 0.0
H557 H 0.26357 0.67908 0.94946 0.0
H558 H 0.24718 0.69928 0.8863 0.0
C559 C 0.22166 0.78597 0.68253 0.0
C560 C 0.24882 0.76365 0.78906 0.0
H561 H 0.29821 0.73083 0.81059 0.0
C562 C 0.23462 0.76032 0.82817 0.0
C563 C 0.27201 0.75291 0.78248 0.0
C564 C 0.28837 0.75643 0.74166 0.0
C565 C 0.24306 0.74656 0.86112 0.0
C566 C 0.26616 0.73571 0.85443 0.0
C567 C 0.28034 0.739 0.81525 0.0
C568 C 0.27699 0.72228 0.88952 0.0
C569 C 0.22762 0.74418 0.90343 0.0
C570 C 0.29958 0.72817 0.91102 0.0
C571 C 0.30895 0.71672 0.94684 0.0
C572 C 0.29598 0.69906 0.96171 0.0
C573 C 0.27394 0.69264 0.93883 0.0
C574 C 0.26449 0.7042 0.90297 0.0
H575 H 0.21281 0.75632 0.90676 0.0
H576 H 0.2179 0.72902 0.90313 0.0
H577 H 0.24022 0.74472 0.93325 0.0
H578 H 0.30954 0.74203 0.90099 0.0
H579 H 0.32607 0.72202 0.96355 0.0
H580 H 0.28423 0.27663 0.06492 0.0
H581 H 0.26897 0.25099 0.01159 0.0
H582 H 0.25903 0.29833 0.91222 0.0
H583 H 0.27447 0.32416 0.96519 0.0
H584 H 0.22188 0.24911 0.9662 0.0
H585 H 0.3037 0.2548 0.8489 0.0
H586 H 0.30477 0.26494 0.90508 0.0
H587 H 0.28891 0.27905 0.8615 0.0
C588 C 0.27881 0.28164 0.03173 0.0
C589 C 0.28072 0.30247 0.01925 0.0
C590 C 0.27009 0.26694 0.00134 0.0
C591 C 0.26329 0.27273 0.95783 0.0
C592 C 0.26467 0.29352 0.94544 0.0
H593 H 0.17208 0.21819 0.75636 0.0
H594 H 0.18962 0.23615 0.82083 0.0
C595 C 0.27334 0.30827 0.97585 0.0
C596 C 0.25437 0.25706 0.92554 0.0
H597 H 0.26711 0.23651 0.82296 0.0
C598 C 0.23187 0.24619 0.93506 0.0
C599 C 0.26774 0.25301 0.88541 0.0
C600 C 0.29276 0.2634 0.87468 0.0
C601 C 0.22174 0.23204 0.90445 0.0
C602 C 0.23432 0.22888 0.86317 0.0
C603 C 0.25744 0.23905 0.85456 0.0
C604 C 0.22278 0.21651 0.82692 0.0
C605 C 0.19751 0.22074 0.91633 0.0
C606 C 0.2357 0.19951 0.80879 0.0
C607 C 0.22569 0.18914 0.77168 0.0
C608 C 0.20283 0.19586 0.75186 0.0
C609 C 0.18973 0.21261 0.77082 0.0
C610 C 0.19963 0.22284 0.80791 0.0
H611 H 0.19468 0.21999 0.95311 0.0
H612 H 0.18096 0.22901 0.90174 0.0
H613 H 0.19768 0.20484 0.90274 0.0
H614 H 0.25372 0.19451 0.82286 0.0
H615 H 0.23625 0.17635 0.75767 0.0
H616 H 0.72981 0.33156 0.94313 0.0
H617 H 0.745 0.3138 0.87563 0.0
H618 H 0.69631 0.26221 0.90633 0.0
H619 H 0.68084 0.27979 0.97274 0.0
H620 H 0.77033 0.27689 0.87266 0.0
H621 H 0.68099 0.27095 0.77536 0.0
H622 H 0.68437 0.2883 0.82212 0.0
H623 H 0.6768 0.2616 0.83127 0.0
C624 C 0.72208 0.31657 0.93502 0.0
C625 C 0.7041 0.3071 0.96323 0.0
C626 C 0.73078 0.30645 0.89654 0.0
C627 C 0.72144 0.28684 0.88555 0.0
C628 C 0.70329 0.27754 0.91344 0.0
H629 H 0.76124 0.18023 0.73741 0.0
H630 H 0.7451 0.20671 0.78835 0.0
C631 C 0.69461 0.28759 0.95169 0.0
C632 C 0.73193 0.27517 0.84716 0.0
H633 H 0.71397 0.24625 0.75719 0.0
C634 C 0.75812 0.27054 0.84685 0.0
C635 C 0.71596 0.26692 0.81346 0.0
C636 C 0.68802 0.27238 0.81026 0.0
C637 C 0.76848 0.25695 0.81519 0.0
C638 C 0.75221 0.24786 0.78319 0.0
C639 C 0.72627 0.25313 0.78222 0.0
C640 C 0.76164 0.2321 0.75175 0.0
C641 C 0.7965 0.25167 0.81714 0.0
C642 C 0.77606 0.23775 0.71428 0.0
C643 C 0.78521 0.22271 0.685 0.0
C644 C 0.78017 0.20174 0.69287 0.0
C645 C 0.76554 0.1962 0.73044 0.0
C646 C 0.75626 0.21129 0.75951 0.0
H647 H 0.80624 0.259 0.84601 0.0
H648 H 0.79897 0.23474 0.81948 0.0
H649 H 0.80599 0.25683 0.7859 0.0
H650 H 0.78027 0.25379 0.70779 0.0
H651 H 0.79641 0.22752 0.65641 0.0
H652 H 0.72183 0.67866 0.96799 0.0
H653 H 0.7385 0.70406 0.91508 0.0
H654 H 0.72499 0.75237 0.01093 0.0
H655 H 0.70843 0.72719 0.06414 0.0
H656 H 0.71192 0.73973 0.88137 0.0
H657 H 0.8009 0.75972 0.97314 0.0
H658 H 0.78298 0.73657 0.98445 0.0
H659 H 0.77175 0.7609 0.00488 0.0
C660 C 0.72252 0.69466 0.97794 0.0
C661 C 0.71385 0.70086 0.02036 0.0
C662 C 0.73199 0.70914 0.94765 0.0
C663 C 0.73317 0.73002 0.95935 0.0
C664 C 0.72455 0.73628 0.00156 0.0
H665 H 0.76068 0.82821 0.76283 0.0
H666 H 0.7432 0.80919 0.82688 0.0
C667 C 0.715 0.72185 0.03182 0.0
C668 C 0.74294 0.74528 0.92692 0.0
H669 H 0.79223 0.77841 0.90718 0.0
C670 C 0.72938 0.7483 0.88704 0.0
C671 C 0.76577 0.75633 0.93456 0.0
C672 C 0.78138 0.75319 0.97638 0.0
C673 C 0.73824 0.76194 0.85418 0.0
C674 C 0.76112 0.77296 0.86173 0.0
C675 C 0.77453 0.77011 0.90185 0.0
C676 C 0.77269 0.78587 0.82644 0.0
C677 C 0.7236 0.76393 0.81096 0.0
C678 C 0.79546 0.77942 0.80622 0.0
C679 C 0.80542 0.79017 0.76987 0.0
C680 C 0.79289 0.8077 0.75321 0.0
C681 C 0.77072 0.81475 0.77489 0.0
C682 C 0.76065 0.80386 0.81126 0.0
H683 H 0.70864 0.75191 0.80757 0.0
H684 H 0.71417 0.7792 0.80976 0.0
H685 H 0.73673 0.76284 0.78189 0.0
H686 H 0.80506 0.76561 0.81758 0.0
H687 H 0.82263 0.78442 0.75412 0.0
loop_
_geom_bond_atom_site_label_1
_geom_bond_atom_site_label_2
_geom_bond_distance
_geom_bond_site_symmetry_2
_ccdc_geom_bond_type
O0 Cd1 2.223 . S
O0 C8 1.315 . S
Cd1 O0 2.223 . S
Cd1 O4 2.297 . S
Cd1 O5 2.439 . S
Cd1 O11 2.240 . S
Cd2 O3 2.240 . S
Cd2 O10 2.223 . S
Cd2 O12 2.297 . S
Cd2 O13 2.439 . S
O3 Cd2 2.240 . S
O3 C8 1.279 . S
O4 Cd1 2.297 . S
O4 C6 1.247 . S
O5 Cd1 2.439 . S
O5 C6 1.208 . S
C6 O4 1.247 . S
C6 O5 1.208 . S
C7 O12 1.247 . S
C7 O13 1.208 . S
C8 O0 1.315 . S
C8 O3 1.279 . S
C9 O10 1.315 . S
C9 O11 1.279 . S
O10 Cd2 2.223 . S
O10 C9 1.315 . S
O11 Cd1 2.240 . S
O11 C9 1.279 . S
O12 Cd2 2.297 . S
O12 C7 1.247 . S
O13 Cd2 2.439 . S
O13 C7 1.208 . S
O14 Cd15 2.223 . S
O14 C22 1.315 . S
Cd15 O14 2.223 . S
Cd15 O18 2.297 1_554 S
Cd15 O19 2.439 1_554 S
Cd15 O25 2.240 . S
Cd16 O17 2.240 . S
Cd16 O24 2.223 . S
Cd16 O26 2.297 . S
Cd16 O27 2.439 . S
O17 Cd16 2.240 . S
O17 C22 1.279 . S
O18 Cd15 2.297 1_556 S
O18 C20 1.247 . S
O19 Cd15 2.439 1_556 S
O19 C20 1.208 . S
C20 O18 1.247 . S
C20 O19 1.208 . S
C21 O26 1.247 . S
C21 O27 1.208 . S
C22 O14 1.315 . S
C22 O17 1.279 . S
C23 O24 1.315 . S
C23 O25 1.279 . S
O24 Cd16 2.223 . S
O24 C23 1.315 . S
O25 Cd15 2.240 . S
O25 C23 1.279 . S
O26 Cd16 2.297 . S
O26 C21 1.247 . S
O27 Cd16 2.439 . S
O27 C21 1.208 . S
O28 Cd29 2.223 . S
O28 C36 1.315 . S
Cd29 O28 2.223 . S
Cd29 O32 2.297 . S
Cd29 O33 2.439 . S
Cd29 O39 2.240 . S
Cd30 O31 2.240 . S
Cd30 O38 2.223 . S
Cd30 O40 2.297 . S
Cd30 O41 2.439 . S
O31 Cd30 2.240 . S
O31 C36 1.279 . S
O32 Cd29 2.297 . S
O32 C34 1.247 . S
O33 Cd29 2.439 . S
O33 C34 1.208 . S
C34 O32 1.247 . S
C34 O33 1.208 . S
C35 O40 1.247 . S
C35 O41 1.208 . S
C36 O28 1.315 . S
C36 O31 1.279 . S
C37 O38 1.315 . S
C37 O39 1.279 . S
O38 Cd30 2.223 . S
O38 C37 1.315 . S
O39 Cd29 2.240 . S
O39 C37 1.279 . S
O40 Cd30 2.297 . S
O40 C35 1.247 . S
O41 Cd30 2.439 . S
O41 C35 1.208 . S
O42 Cd43 2.223 . S
O42 C50 1.315 . S
Cd43 O42 2.223 . S
Cd43 O46 2.297 1_554 S
Cd43 O47 2.439 1_554 S
Cd43 O53 2.240 . S
Cd44 O45 2.240 . S
Cd44 O52 2.223 . S
Cd44 O54 2.297 . S
Cd44 O55 2.439 . S
O45 Cd44 2.240 . S
O45 C50 1.279 . S
O46 Cd43 2.297 1_556 S
O46 C48 1.247 . S
O47 Cd43 2.439 1_556 S
O47 C48 1.208 . S
C48 O46 1.247 . S
C48 O47 1.208 . S
C49 O54 1.247 . S
C49 O55 1.208 . S
C50 O42 1.315 . S
C50 O45 1.279 . S
C51 O52 1.315 . S
C51 O53 1.279 . S
O52 Cd44 2.223 . S
O52 C51 1.315 . S
O53 Cd43 2.240 . S
O53 C51 1.279 . S
O54 Cd44 2.297 . S
O54 C49 1.247 . S
O55 Cd44 2.439 . S
O55 C49 1.208 . S
O56 Cd57 2.223 . S
O56 C64 1.315 . S
Cd57 O56 2.223 . S
Cd57 O60 2.297 . S
Cd57 O61 2.439 . S
Cd57 O67 2.240 . S
Cd58 O59 2.240 . S
Cd58 O66 2.223 . S
Cd58 O68 2.297 . S
Cd58 O69 2.439 . S
O59 Cd58 2.240 . S
O59 C64 1.279 . S
O60 Cd57 2.297 . S
O60 C62 1.247 . S
O61 Cd57 2.439 . S
O61 C62 1.208 . S
C62 O60 1.247 . S
C62 O61 1.208 . S
C63 O68 1.247 . S
C63 O69 1.208 . S
C64 O56 1.315 . S
C64 O59 1.279 . S
C65 O66 1.315 . S
C65 O67 1.279 . S
O66 Cd58 2.223 . S
O66 C65 1.315 . S
O67 Cd57 2.240 . S
O67 C65 1.279 . S
O68 Cd58 2.297 . S
O68 C63 1.247 . S
O69 Cd58 2.439 . S
O69 C63 1.208 . S
O70 Cd71 2.223 . S
O70 C78 1.315 . S
Cd71 O70 2.223 . S
Cd71 O74 2.297 . S
Cd71 O75 2.439 . S
Cd71 O81 2.240 . S
Cd72 O73 2.240 . S
Cd72 O80 2.223 . S
Cd72 O82 2.297 . S
Cd72 O83 2.439 . S
O73 Cd72 2.240 . S
O73 C78 1.279 . S
O74 Cd71 2.297 . S
O74 C76 1.247 . S
O75 Cd71 2.439 . S
O75 C76 1.208 . S
C76 O74 1.247 . S
C76 O75 1.208 . S
C77 O82 1.247 . S
C77 O83 1.208 . S
C78 O70 1.315 . S
C78 O73 1.279 . S
C79 O80 1.315 . S
C79 O81 1.279 . S
O80 Cd72 2.223 . S
O80 C79 1.315 . S
O81 Cd71 2.240 . S
O81 C79 1.279 . S
O82 Cd72 2.297 . S
O82 C77 1.247 . S
O83 Cd72 2.439 . S
O83 C77 1.208 . S
O84 Cd85 2.223 . S
O84 C92 1.315 . S
Cd85 O84 2.223 . S
Cd85 O88 2.297 . S
Cd85 O89 2.439 . S
Cd85 O95 2.240 . S
Cd86 O87 2.240 . S
Cd86 O94 2.223 . S
Cd86 O96 2.297 . S
Cd86 O97 2.439 . S
O87 Cd86 2.240 . S
O87 C92 1.279 . S
O88 Cd85 2.297 . S
O88 C90 1.247 . S
O89 Cd85 2.439 . S
O89 C90 1.208 . S
C90 O88 1.247 . S
C90 O89 1.208 . S
C91 O96 1.247 . S
C91 O97 1.208 . S
C92 O84 1.315 . S
C92 O87 1.279 . S
C93 O94 1.315 . S
C93 O95 1.279 . S
O94 Cd86 2.223 . S
O94 C93 1.315 . S
O95 Cd85 2.240 . S
O95 C93 1.279 . S
O96 Cd86 2.297 . S
O96 C91 1.247 . S
O97 Cd86 2.439 . S
O97 C91 1.208 . S
O98 Cd99 2.223 . S
O98 C106 1.315 . S
Cd99 O98 2.223 . S
Cd99 O102 2.297 . S
Cd99 O103 2.439 . S
Cd99 O109 2.240 . S
Cd100 O101 2.240 . S
Cd100 O108 2.223 . S
Cd100 O110 2.297 . S
Cd100 O111 2.439 . S
O101 Cd100 2.240 . S
O101 C106 1.279 . S
O102 Cd99 2.297 . S
O102 C104 1.247 . S
O103 Cd99 2.439 . S
O103 C104 1.208 . S
C104 O102 1.247 . S
C104 O103 1.208 . S
C105 O110 1.247 . S
C105 O111 1.208 . S
C106 O98 1.315 . S
C106 O101 1.279 . S
C107 O108 1.315 . S
C107 O109 1.279 . S
O108 Cd100 2.223 . S
O108 C107 1.315 . S
O109 Cd99 2.240 . S
O109 C107 1.279 . S
O110 Cd100 2.297 . S
O110 C105 1.247 . S
O111 Cd100 2.439 . S
O111 C105 1.208 . S
H112 C120 0.929 . S
H113 C122 0.930 . S
H114 C124 0.930 . S
H115 C127 0.929 . S
H116 C130 0.930 . S
H117 C132 0.960 . S
H118 C132 0.960 . S
H119 C132 0.960 . S
C120 H112 0.929 . S
C120 C121 1.377 . S
C120 C122 1.384 . S
C121 C120 1.377 . S
C121 C127 1.390 . S
C122 H113 0.930 . S
C122 C120 1.384 . S
C122 C123 1.372 . S
C123 C122 1.372 . S
C123 C124 1.400 . S
C123 C128 1.490 . S
C124 H114 0.930 . S
C124 C123 1.400 . S
C124 C127 1.386 . S
H125 C141 0.930 . S
H126 C142 0.931 . S
C127 H115 0.929 . S
C127 C121 1.390 . S
C127 C124 1.386 . S
C128 C123 1.490 . S
C128 C130 1.395 . S
C128 C131 1.403 . S
H129 C135 0.930 . S
C130 H116 0.930 . S
C130 C128 1.395 . S
C130 C133 1.403 . S
C131 C128 1.403 . S
C131 C132 1.524 . S
C131 C135 1.400 . S
C132 H117 0.960 . S
C132 H118 0.960 . S
C132 H119 0.960 . S
C132 C131 1.524 . S
C133 C130 1.403 . S
C133 C134 1.392 . S
C133 C137 1.495 . S
C134 C133 1.392 . S
C134 C135 1.385 . S
C134 C136 1.478 . S
C135 H129 0.930 . S
C135 C131 1.400 . S
C135 C134 1.385 . S
C136 C134 1.478 . S
C136 C138 1.381 . S
C136 C142 1.383 . S
C137 C133 1.495 . S
C137 H143 0.959 . S
C137 H144 0.961 . S
C137 H145 0.960 . S
C138 C136 1.381 . S
C138 C139 1.394 . S
C138 H146 0.930 . S
C139 C138 1.394 . S
C139 C140 1.383 . S
C139 H147 0.929 . S
C140 C139 1.383 . S
C140 C141 1.377 . S
C141 H125 0.930 . S
C141 C140 1.377 . S
C141 C142 1.379 . S
C142 H126 0.931 . S
C142 C136 1.383 . S
C142 C141 1.379 . S
H143 C137 0.959 . S
H144 C137 0.961 . S
H145 C137 0.960 . S
H146 C138 0.930 . S
H147 C139 0.929 . S
H148 C156 0.929 . S
H149 C158 0.930 . S
H150 C160 0.930 . S
H151 C163 0.929 . S
H152 C166 0.930 . S
H153 C168 0.960 . S
H154 C168 0.960 . S
H155 C168 0.960 . S
C156 H148 0.929 . S
C156 C157 1.377 . S
C156 C158 1.384 . S
C157 C156 1.377 . S
C157 C163 1.390 . S
C158 H149 0.930 . S
C158 C156 1.384 . S
C158 C159 1.372 . S
C159 C158 1.372 . S
C159 C160 1.400 . S
C159 C164 1.490 . S
C160 H150 0.930 . S
C160 C159 1.400 . S
C160 C163 1.386 . S
H161 C177 0.930 . S
H162 C178 0.931 . S
C163 H151 0.929 . S
C163 C157 1.390 . S
C163 C160 1.386 . S
C164 C159 1.490 . S
C164 C166 1.395 . S
C164 C167 1.403 . S
H165 C171 0.930 . S
C166 H152 0.930 . S
C166 C164 1.395 . S
C166 C169 1.403 . S
C167 C164 1.403 . S
C167 C168 1.524 . S
C167 C171 1.400 . S
C168 H153 0.960 . S
C168 H154 0.960 . S
C168 H155 0.960 . S
C168 C167 1.524 . S
C169 C166 1.403 . S
C169 C170 1.392 . S
C169 C173 1.495 . S
C170 C169 1.392 . S
C170 C171 1.385 . S
C170 C172 1.478 . S
C171 H165 0.930 . S
C171 C167 1.400 . S
C171 C170 1.385 . S
C172 C170 1.478 . S
C172 C174 1.381 . S
C172 C178 1.383 . S
C173 C169 1.495 . S
C173 H179 0.959 . S
C173 H180 0.961 . S
C173 H181 0.960 . S
C174 C172 1.381 . S
C174 C175 1.394 . S
C174 H182 0.930 . S
C175 C174 1.394 . S
C175 C176 1.383 . S
C175 H183 0.929 . S
C176 C175 1.383 . S
C176 C177 1.377 . S
C177 H161 0.930 . S
C177 C176 1.377 . S
C177 C178 1.379 . S
C178 H162 0.931 . S
C178 C172 1.383 . S
C178 C177 1.379 . S
H179 C173 0.959 . S
H180 C173 0.961 . S
H181 C173 0.960 . S
H182 C174 0.930 . S
H183 C175 0.929 . S
H184 C192 0.929 . S
H185 C194 0.930 . S
H186 C196 0.930 . S
H187 C199 0.951 . S
H188 C202 0.930 . S
H189 C204 0.960 . S
H190 C204 0.960 . S
H191 C204 0.960 . S
C192 H184 0.929 . S
C192 C193 1.377 . S
C192 C194 1.384 . S
C193 C192 1.377 . S
C193 C199 1.390 . S
C194 H185 0.930 . S
C194 C192 1.384 . S
C194 C195 1.372 . S
C195 C194 1.372 . S
C195 C196 1.400 . S
C195 C200 1.490 . S
C196 H186 0.930 . S
C196 C195 1.400 . S
C196 C199 1.386 . S
H197 C213 0.930 . S
H198 C214 0.931 . S
C199 H187 0.951 . S
C199 C193 1.390 . S
C199 C196 1.386 . S
C200 C195 1.490 . S
C200 C202 1.395 . S
C200 C203 1.403 . S
H201 C207 0.930 . S
C202 H188 0.930 . S
C202 C200 1.395 . S
C202 C205 1.403 . S
C203 C200 1.403 . S
C203 C204 1.524 . S
C203 C207 1.400 . S
C204 H189 0.960 . S
C204 H190 0.960 . S
C204 H191 0.960 . S
C204 C203 1.524 . S
C205 C202 1.403 . S
C205 C206 1.392 . S
C205 C209 1.495 . S
C206 C205 1.392 . S
C206 C207 1.385 . S
C206 C208 1.478 . S
C207 H201 0.930 . S
C207 C203 1.400 . S
C207 C206 1.385 . S
C208 C206 1.478 . S
C208 C210 1.381 . S
C208 C214 1.383 . S
C209 C205 1.495 . S
C209 H215 0.959 . S
C209 H216 0.961 . S
C209 H217 0.960 . S
C210 C208 1.381 . S
C210 C211 1.394 . S
C210 H218 0.930 . S
C211 C210 1.394 . S
C211 C212 1.383 . S
C211 H219 0.929 . S
C212 C211 1.383 . S
C212 C213 1.377 . S
C213 H197 0.930 . S
C213 C212 1.377 . S
C213 C214 1.379 . S
C214 H198 0.931 . S
C214 C208 1.383 . S
C214 C213 1.379 . S
H215 C209 0.959 . S
H216 C209 0.961 . S
H217 C209 0.960 . S
H218 C210 0.930 . S
H219 C211 0.929 . S
H220 C228 0.929 . S
H221 C230 0.930 . S
H222 C232 0.930 . S
H223 C235 0.929 . S
H224 C238 0.930 . S
H225 C240 0.960 . S
H226 C240 0.960 . S
H227 C240 0.960 . S
C228 H220 0.929 . S
C228 C229 1.377 . S
C228 C230 1.384 . S
C229 C228 1.377 . S
C229 C235 1.390 . S
C230 H221 0.930 . S
C230 C228 1.384 . S
C230 C231 1.372 . S
C231 C230 1.372 . S
C231 C232 1.400 . S
C231 C236 1.490 . S
C232 H222 0.930 . S
C232 C231 1.400 . S
C232 C235 1.386 . S
H233 C249 0.930 . S
H234 C250 0.931 . S
C235 H223 0.929 . S
C235 C229 1.390 . S
C235 C232 1.386 . S
C236 C231 1.490 . S
C236 C238 1.395 . S
C236 C239 1.403 . S
H237 C243 0.930 . S
C238 H224 0.930 . S
C238 C236 1.395 . S
C238 C241 1.403 . S
C239 C236 1.403 . S
C239 C240 1.524 . S
C239 C243 1.400 . S
C240 H225 0.960 . S
C240 H226 0.960 . S
C240 H227 0.960 . S
C240 C239 1.524 . S
C241 C238 1.403 . S
C241 C242 1.392 . S
C241 C245 1.495 . S
C242 C241 1.392 . S
C242 C243 1.385 . S
C242 C244 1.478 . S
C243 H237 0.930 . S
C243 C239 1.400 . S
C243 C242 1.385 . S
C244 C242 1.478 . S
C244 C246 1.381 . S
C244 C250 1.383 . S
C245 C241 1.495 . S
C245 H251 0.959 . S
C245 H252 0.961 . S
C245 H253 0.960 . S
C246 C244 1.381 . S
C246 C247 1.394 . S
C246 H254 0.930 . S
C247 C246 1.394 . S
C247 C248 1.383 . S
C247 H255 0.929 . S
C248 C247 1.383 . S
C248 C249 1.377 . S
C249 H233 0.930 . S
C249 C248 1.377 . S
C249 C250 1.379 . S
C250 H234 0.931 . S
C250 C244 1.383 . S
C250 C249 1.379 . S
H251 C245 0.959 . S
H252 C245 0.961 . S
H253 C245 0.960 . S
H254 C246 0.930 . S
H255 C247 0.929 . S
H256 C264 0.929 . S
H257 C266 0.930 . S
H258 C268 0.930 . S
H259 C271 0.929 . S
H260 C274 0.930 . S
H261 C276 0.961 . S
H262 C276 0.960 . S
H263 C276 0.960 . S
C264 H256 0.929 . S
C264 C265 1.377 . S
C264 C266 1.384 . S
C265 C264 1.377 . S
C265 C271 1.390 . S
C266 H257 0.930 . S
C266 C264 1.384 . S
C266 C267 1.372 . S
C267 C266 1.372 . S
C267 C268 1.400 . S
C267 C272 1.490 . S
C268 H258 0.930 . S
C268 C267 1.400 . S
C268 C271 1.386 . S
H269 C285 0.930 . S
H270 C286 0.931 . S
C271 H259 0.929 . S
C271 C265 1.390 . S
C271 C268 1.386 . S
C272 C267 1.490 . S
C272 C274 1.395 . S
C272 C275 1.403 . S
H273 C279 0.930 . S
C274 H260 0.930 . S
C274 C272 1.395 . S
C274 C277 1.403 1_565 S
C275 C272 1.403 . S
C275 C276 1.524 . S
C275 C279 1.400 1_565 S
C276 H261 0.961 . S
C276 H262 0.960 . S
C276 H263 0.960 . S
C276 C275 1.524 . S
C277 C274 1.403 1_545 S
C277 C278 1.392 . S
C277 C281 1.495 . S
C278 C277 1.392 . S
C278 C279 1.385 . S
C278 C280 1.478 . S
C279 H273 0.930 . S
C279 C275 1.400 1_545 S
C279 C278 1.385 . S
C280 C278 1.478 . S
C280 C282 1.381 . S
C280 C286 1.383 . S
C281 C277 1.495 . S
C281 H287 0.997 . S
C281 H288 0.961 . S
C281 H289 0.960 . S
C282 C280 1.381 . S
C282 C283 1.394 . S
C282 H290 0.930 . S
C283 C282 1.394 . S
C283 C284 1.383 . S
C283 H291 0.929 . S
C284 C283 1.383 . S
C284 C285 1.377 . S
C285 H269 0.930 . S
C285 C284 1.377 . S
C285 C286 1.379 . S
C286 H270 0.931 . S
C286 C280 1.383 . S
C286 C285 1.379 . S
H287 C281 0.997 . S
H288 C281 0.961 . S
H289 C281 0.960 . S
H290 C282 0.930 . S
H291 C283 0.929 . S
H292 C300 0.929 . S
H293 C302 0.930 . S
H294 C304 0.930 . S
H295 C307 0.929 . S
H296 C310 0.930 . S
H297 C312 0.960 . S
H298 C312 0.960 . S
H299 C312 0.960 . S
C300 H292 0.929 . S
C300 C301 1.377 . S
C300 C302 1.384 . S
C301 C300 1.377 . S
C301 C307 1.390 . S
C302 H293 0.930 . S
C302 C300 1.384 . S
C302 C303 1.372 . S
C303 C302 1.372 . S
C303 C304 1.400 . S
C303 C308 1.490 . S
C304 H294 0.930 . S
C304 C303 1.400 . S
C304 C307 1.386 . S
H305 C321 0.930 . S
H306 C322 0.931 . S
C307 H295 0.929 . S
C307 C301 1.390 . S
C307 C304 1.386 . S
C308 C303 1.490 . S
C308 C310 1.395 . S
C308 C311 1.403 . S
H309 C315 0.930 . S
C310 H296 0.930 . S
C310 C308 1.395 . S
C310 C313 1.403 1_455 S
C311 C308 1.403 . S
C311 C312 1.524 . S
C311 C315 1.400 1_455 S
C312 H297 0.960 . S
C312 H298 0.960 . S
C312 H299 0.960 . S
C312 C311 1.524 . S
C313 C310 1.403 1_655 S
C313 C314 1.392 . S
C313 C317 1.495 . S
C314 C313 1.392 . S
C314 C315 1.385 . S
C314 C316 1.478 . S
C315 H309 0.930 . S
C315 C311 1.400 1_655 S
C315 C314 1.385 . S
C316 C314 1.478 . S
C316 C318 1.381 . S
C316 C322 1.383 . S
C317 C313 1.495 . S
C317 H323 0.959 . S
C317 H324 0.961 . S
C317 H325 0.960 . S
C318 C316 1.381 . S
C318 C319 1.394 . S
C318 H326 0.930 . S
C319 C318 1.394 . S
C319 C320 1.383 . S
C319 H327 0.929 . S
C320 C319 1.383 . S
C320 C321 1.377 . S
C321 H305 0.930 . S
C321 C320 1.377 . S
C321 C322 1.379 . S
C322 H306 0.931 . S
C322 C316 1.383 . S
C322 C321 1.379 . S
H323 C317 0.959 . S
H324 C317 0.961 . S
H325 C317 0.960 . S
H326 C318 0.930 . S
H327 C319 0.929 . S
H328 C336 0.929 . S
H329 C338 0.930 . S
H330 C340 0.930 . S
H331 C343 0.929 . S
H332 C346 0.930 . S
H333 C348 0.953 1_565 S
H334 C348 0.960 . S
H335 C348 0.960 . S
C336 H328 0.929 . S
C336 C337 1.377 . S
C336 C338 1.384 . S
C337 C336 1.377 . S
C337 C343 1.390 . S
C338 H329 0.930 . S
C338 C336 1.384 . S
C338 C339 1.372 . S
C339 C338 1.372 . S
C339 C340 1.400 . S
C339 C344 1.490 . S
C340 H330 0.930 . S
C340 C339 1.400 . S
C340 C343 1.386 . S
H341 C357 0.930 . S
H342 C358 0.931 . S
C343 H331 0.929 . S
C343 C337 1.390 . S
C343 C340 1.386 . S
C344 C339 1.490 . S
C344 C346 1.395 . S
C344 C347 1.403 . S
H345 C351 0.930 . S
C346 H332 0.930 . S
C346 C344 1.395 . S
C346 C349 1.403 1_545 S
C347 C344 1.403 . S
C347 C348 1.524 . S
C347 C351 1.400 1_545 S
C348 H333 0.953 1_545 S
C348 H334 0.960 . S
C348 H335 0.960 . S
C348 C347 1.524 . S
C349 C346 1.403 1_565 S
C349 C350 1.392 . S
C349 C353 1.495 . S
C350 C349 1.392 . S
C350 C351 1.385 . S
C350 C352 1.478 . S
C351 H345 0.930 . S
C351 C347 1.400 1_565 S
C351 C350 1.385 . S
C352 C350 1.478 . S
C352 C354 1.381 . S
C352 C358 1.383 . S
C353 C349 1.495 . S
C353 H359 0.932 1_565 S
C353 H360 0.961 . S
C353 H361 0.960 . S
C354 C352 1.381 . S
C354 C355 1.394 . S
C354 H362 0.930 . S
C355 C354 1.394 . S
C355 C356 1.383 . S
C355 H363 0.929 . S
C356 C355 1.383 . S
C356 C357 1.377 . S
C357 H341 0.930 . S
C357 C356 1.377 . S
C357 C358 1.379 . S
C358 H342 0.931 . S
C358 C352 1.383 . S
C358 C357 1.379 . S
H359 C353 0.932 1_545 S
H360 C353 0.961 . S
H361 C353 0.960 . S
H362 C354 0.930 . S
H363 C355 0.929 . S
H364 C372 0.929 . S
H365 C374 0.930 . S
H366 C376 0.930 . S
H367 C379 0.929 . S
H368 C382 0.930 . S
H369 C384 0.960 . S
H370 C384 0.960 . S
H371 C384 0.960 . S
C372 H364 0.929 . S
C372 C373 1.377 . S
C372 C374 1.384 . S
C373 C372 1.377 . S
C373 C379 1.390 . S
C374 H365 0.930 . S
C374 C372 1.384 . S
C374 C375 1.372 . S
C375 C374 1.372 . S
C375 C376 1.400 . S
C375 C380 1.490 . S
C376 H366 0.930 . S
C376 C375 1.400 . S
C376 C379 1.386 . S
H377 C393 0.930 . S
H378 C394 0.931 . S
C379 H367 0.929 . S
C379 C373 1.390 . S
C379 C376 1.386 . S
C380 C375 1.490 . S
C380 C382 1.395 . S
C380 C383 1.403 . S
H381 C387 0.930 . S
C382 H368 0.930 . S
C382 C380 1.395 . S
C382 C385 1.403 1_655 S
C383 C380 1.403 . S
C383 C384 1.524 . S
C383 C387 1.400 1_655 S
C384 H369 0.960 . S
C384 H370 0.960 . S
C384 H371 0.960 . S
C384 C383 1.524 . S
C385 C382 1.403 1_455 S
C385 C386 1.392 . S
C385 C389 1.495 . S
C386 C385 1.392 . S
C386 C387 1.385 . S
C386 C388 1.478 . S
C387 H381 0.930 . S
C387 C383 1.400 1_455 S
C387 C386 1.385 . S
C388 C386 1.478 . S
C388 C390 1.381 . S
C388 C394 1.383 . S
C389 C385 1.495 . S
C389 H395 0.959 . S
C389 H396 0.961 . S
C389 H397 0.960 . S
C390 C388 1.381 . S
C390 C391 1.394 . S
C390 H398 0.930 . S
C391 C390 1.394 . S
C391 C392 1.383 . S
C391 H399 0.929 . S
C392 C391 1.383 . S
C392 C393 1.377 . S
C393 H377 0.930 . S
C393 C392 1.377 . S
C393 C394 1.379 . S
C394 H378 0.931 . S
C394 C388 1.383 . S
C394 C393 1.379 . S
H395 C389 0.959 . S
H396 C389 0.961 . S
H397 C389 0.960 . S
H398 C390 0.930 . S
H399 C391 0.929 . S
H400 C408 0.929 . S
H401 C410 0.930 . S
H402 C412 0.930 . S
H403 C415 0.929 . S
H404 C418 0.930 . S
H405 C420 0.960 . S
H406 C420 0.960 . S
H407 C420 0.960 . S
C408 H400 0.929 . S
C408 C409 1.377 . S
C408 C410 1.384 . S
C409 C408 1.377 . S
C409 C415 1.390 . S
C410 H401 0.930 . S
C410 C408 1.384 . S
C410 C411 1.372 . S
C411 C410 1.372 . S
C411 C412 1.400 . S
C411 C416 1.490 . S
C412 H402 0.930 . S
C412 C411 1.400 . S
C412 C415 1.386 . S
H413 C429 0.930 . S
H414 C430 0.931 . S
C415 H403 0.929 . S
C415 C409 1.390 . S
C415 C412 1.386 . S
C416 C411 1.490 . S
C416 C418 1.395 . S
C416 C419 1.403 . S
H417 C423 0.930 . S
C418 H404 0.930 . S
C418 C416 1.395 . S
C418 C421 1.403 . S
C419 C416 1.403 . S
C419 C420 1.524 . S
C419 C423 1.400 . S
C420 H405 0.960 . S
C420 H406 0.960 . S
C420 H407 0.960 . S
C420 C419 1.524 . S
C421 C418 1.403 . S
C421 C422 1.392 . S
C421 C425 1.495 . S
C422 C421 1.392 . S
C422 C423 1.385 . S
C422 C424 1.478 . S
C423 H417 0.930 . S
C423 C419 1.400 . S
C423 C422 1.385 . S
C424 C422 1.478 . S
C424 C426 1.381 . S
C424 C430 1.383 . S
C425 C421 1.495 . S
C425 H431 0.959 . S
C425 H432 0.961 . S
C425 H433 0.960 . S
C426 C424 1.381 . S
C426 C427 1.394 . S
C426 H434 0.930 . S
C427 C426 1.394 . S
C427 C428 1.383 . S
C427 H435 0.929 . S
C428 C427 1.383 . S
C428 C429 1.377 . S
C429 H413 0.930 . S
C429 C428 1.377 . S
C429 C430 1.379 . S
C430 H414 0.931 . S
C430 C424 1.383 . S
C430 C429 1.379 . S
H431 C425 0.959 . S
H432 C425 0.961 . S
H433 C425 0.960 . S
H434 C426 0.930 . S
H435 C427 0.929 . S
H436 C444 0.929 . S
H437 C446 0.930 . S
H438 C448 0.930 . S
H439 C451 0.929 . S
H440 C454 0.930 . S
H441 C456 0.960 . S
H442 C456 0.960 . S
H443 C456 0.960 . S
C444 H436 0.929 . S
C444 C445 1.377 . S
C444 C446 1.384 . S
C445 C444 1.377 . S
C445 C451 1.390 . S
C446 H437 0.930 . S
C446 C444 1.384 . S
C446 C447 1.372 . S
C447 C446 1.372 . S
C447 C448 1.400 . S
C447 C452 1.490 . S
C448 H438 0.930 . S
C448 C447 1.400 . S
C448 C451 1.386 . S
H449 C465 0.930 . S
H450 C466 0.931 . S
C451 H439 0.929 . S
C451 C445 1.390 . S
C451 C448 1.386 . S
C452 C447 1.490 . S
C452 C454 1.395 . S
C452 C455 1.403 . S
H453 C459 0.930 . S
C454 H440 0.930 . S
C454 C452 1.395 . S
C454 C457 1.403 . S
C455 C452 1.403 . S
C455 C456 1.524 . S
C455 C459 1.400 . S
C456 H441 0.960 . S
C456 H442 0.960 . S
C456 H443 0.960 . S
C456 C455 1.524 . S
C457 C454 1.403 . S
C457 C458 1.392 . S
C457 C461 1.495 . S
C458 C457 1.392 . S
C458 C459 1.385 . S
C458 C460 1.478 . S
C459 H453 0.930 . S
C459 C455 1.400 . S
C459 C458 1.385 . S
C460 C458 1.478 . S
C460 C462 1.381 . S
C460 C466 1.383 . S
C461 C457 1.495 . S
C461 H467 0.959 . S
C461 H468 0.961 . S
C461 H469 0.960 . S
C462 C460 1.381 . S
C462 C463 1.394 . S
C462 H470 0.930 . S
C463 C462 1.394 . S
C463 C464 1.383 . S
C463 H471 0.929 . S
C464 C463 1.383 . S
C464 C465 1.377 . S
C465 H449 0.930 . S
C465 C464 1.377 . S
C465 C466 1.379 . S
C466 H450 0.931 . S
C466 C460 1.383 . S
C466 C465 1.379 . S
H467 C461 0.959 . S
H468 C461 0.961 . S
H469 C461 0.960 . S
H470 C462 0.930 . S
H471 C463 0.929 . S
H472 C480 0.929 . S
H473 C482 0.930 . S
H474 C484 0.930 . S
H475 C487 0.929 . S
H476 C490 0.930 . S
H477 C492 0.960 . S
H478 C492 0.960 . S
H479 C492 0.960 . S
C480 H472 0.929 . S
C480 C481 1.377 . S
C480 C482 1.384 . S
C481 C480 1.377 . S
C481 C487 1.390 . S
C482 H473 0.930 . S
C482 C480 1.384 . S
C482 C483 1.372 . S
C483 C482 1.372 . S
C483 C484 1.400 . S
C483 C488 1.490 . S
C484 H474 0.930 . S
C484 C483 1.400 . S
C484 C487 1.386 . S
H485 C501 0.930 . S
H486 C502 0.931 . S
C487 H475 0.929 . S
C487 C481 1.390 . S
C487 C484 1.386 . S
C488 C483 1.490 . S
C488 C490 1.395 . S
C488 C491 1.403 . S
H489 C495 0.930 . S
C490 H476 0.930 . S
C490 C488 1.395 . S
C490 C493 1.403 . S
C491 C488 1.403 . S
C491 C492 1.524 . S
C491 C495 1.400 . S
C492 H477 0.960 . S
C492 H478 0.960 . S
C492 H479 0.960 . S
C492 C491 1.524 . S
C493 C490 1.403 . S
C493 C494 1.392 . S
C493 C497 1.495 . S
C494 C493 1.392 . S
C494 C495 1.385 . S
C494 C496 1.478 . S
C495 H489 0.930 . S
C495 C491 1.400 . S
C495 C494 1.385 . S
C496 C494 1.478 . S
C496 C498 1.381 . S
C496 C502 1.383 . S
C497 C493 1.495 . S
C497 H503 0.959 . S
C497 H504 0.961 . S
C497 H505 0.960 . S
C498 C496 1.381 . S
C498 C499 1.394 . S
C498 H506 0.930 . S
C499 C498 1.394 . S
C499 C500 1.383 . S
C499 H507 0.929 . S
C500 C499 1.383 . S
C500 C501 1.377 . S
C501 H485 0.930 . S
C501 C500 1.377 . S
C501 C502 1.379 . S
C502 H486 0.931 . S
C502 C496 1.383 . S
C502 C501 1.379 . S
H503 C497 0.959 . S
H504 C497 0.961 . S
H505 C497 0.960 . S
H506 C498 0.930 . S
H507 C499 0.929 . S
H508 C516 0.929 . S
H509 C518 0.930 . S
H510 C520 0.930 . S
H511 C523 0.929 . S
H512 C526 0.930 . S
H513 C528 0.960 . S
H514 C528 0.960 . S
H515 C528 0.960 . S
C516 H508 0.929 . S
C516 C517 1.377 . S
C516 C518 1.384 . S
C517 C516 1.377 . S
C517 C523 1.390 . S
C518 H509 0.930 . S
C518 C516 1.384 . S
C518 C519 1.372 . S
C519 C518 1.372 . S
C519 C520 1.400 . S
C519 C524 1.490 . S
C520 H510 0.930 . S
C520 C519 1.400 . S
C520 C523 1.386 . S
H521 C537 0.930 . S
H522 C538 0.931 . S
C523 H511 0.929 . S
C523 C517 1.390 . S
C523 C520 1.386 . S
C524 C519 1.490 . S
C524 C526 1.395 . S
C524 C527 1.403 . S
H525 C531 0.930 . S
C526 H512 0.930 . S
C526 C524 1.395 . S
C526 C529 1.403 . S
C527 C524 1.403 . S
C527 C528 1.524 . S
C527 C531 1.400 . S
C528 H513 0.960 . S
C528 H514 0.960 . S
C528 H515 0.960 . S
C528 C527 1.524 . S
C529 C526 1.403 . S
C529 C530 1.392 . S
C529 C533 1.495 . S
C530 C529 1.392 . S
C530 C531 1.385 . S
C530 C532 1.478 . S
C531 H525 0.930 . S
C531 C527 1.400 . S
C531 C530 1.385 . S
C532 C530 1.478 . S
C532 C534 1.381 . S
C532 C538 1.383 . S
C533 C529 1.495 . S
C533 H539 0.959 . S
C533 H540 0.961 . S
C533 H541 0.960 . S
C534 C532 1.381 . S
C534 C535 1.394 . S
C534 H542 0.930 . S
C535 C534 1.394 . S
C535 C536 1.383 . S
C535 H543 0.929 . S
C536 C535 1.383 . S
C536 C537 1.377 . S
C537 H521 0.930 . S
C537 C536 1.377 . S
C537 C538 1.379 . S
C538 H522 0.931 . S
C538 C532 1.383 . S
C538 C537 1.379 . S
H539 C533 0.959 . S
H540 C533 0.961 . S
H541 C533 0.960 . S
H542 C534 0.930 . S
H543 C535 0.929 . S
H544 C552 0.929 . S
H545 C554 0.930 . S
H546 C556 0.930 . S
H547 C559 0.929 . S
H548 C562 0.930 . S
H549 C564 0.960 . S
H550 C564 0.960 . S
H551 C564 0.960 . S
C552 H544 0.929 . S
C552 C553 1.377 . S
C552 C554 1.384 . S
C553 C552 1.377 . S
C553 C559 1.390 . S
C554 H545 0.930 . S
C554 C552 1.384 . S
C554 C555 1.372 . S
C555 C554 1.372 . S
C555 C556 1.400 . S
C555 C560 1.490 . S
C556 H546 0.930 . S
C556 C555 1.400 . S
C556 C559 1.386 . S
H557 C573 0.930 . S
H558 C574 0.931 . S
C559 H547 0.929 . S
C559 C553 1.390 . S
C559 C556 1.386 . S
C560 C555 1.490 . S
C560 C562 1.395 . S
C560 C563 1.403 . S
H561 C567 0.930 . S
C562 H548 0.930 . S
C562 C560 1.395 . S
C562 C565 1.403 . S
C563 C560 1.403 . S
C563 C564 1.524 . S
C563 C567 1.400 . S
C564 H549 0.960 . S
C564 H550 0.960 . S
C564 H551 0.960 . S
C564 C563 1.524 . S
C565 C562 1.403 . S
C565 C566 1.392 . S
C565 C569 1.495 . S
C566 C565 1.392 . S
C566 C567 1.385 . S
C566 C568 1.478 . S
C567 H561 0.930 . S
C567 C563 1.400 . S
C567 C566 1.385 . S
C568 C566 1.478 . S
C568 C570 1.381 . S
C568 C574 1.383 . S
C569 C565 1.495 . S
C569 H575 0.959 . S
C569 H576 0.961 . S
C569 H577 0.960 . S
C570 C568 1.381 . S
C570 C571 1.394 . S
C570 H578 0.930 . S
C571 C570 1.394 . S
C571 C572 1.383 . S
C571 H579 0.929 . S
C572 C571 1.383 . S
C572 C573 1.377 . S
C573 H557 0.930 . S
C573 C572 1.377 . S
C573 C574 1.379 . S
C574 H558 0.931 . S
C574 C568 1.383 . S
C574 C573 1.379 . S
H575 C569 0.959 . S
H576 C569 0.961 . S
H577 C569 0.960 . S
H578 C570 0.930 . S
H579 C571 0.929 . S
H580 C588 0.929 . S
H581 C590 0.930 . S
H582 C592 0.930 . S
H583 C595 0.929 . S
H584 C598 0.930 . S
H585 C600 0.960 . S
H586 C600 0.960 . S
H587 C600 0.960 . S
C588 H580 0.929 . S
C588 C589 1.377 . S
C588 C590 1.384 . S
C589 C588 1.377 . S
C589 C595 1.390 . S
C590 H581 0.930 . S
C590 C588 1.384 . S
C590 C591 1.372 1_554 S
C591 C590 1.372 1_556 S
C591 C592 1.400 . S
C591 C596 1.490 . S
C592 H582 0.930 . S
C592 C591 1.400 . S
C592 C595 1.386 1_556 S
H593 C609 0.930 . S
H594 C610 0.931 . S
C595 H583 0.929 . S
C595 C589 1.390 . S
C595 C592 1.386 1_554 S
C596 C591 1.490 . S
C596 C598 1.395 . S
C596 C599 1.403 . S
H597 C603 0.930 . S
C598 H584 0.930 . S
C598 C596 1.395 . S
C598 C601 1.403 . S
C599 C596 1.403 . S
C599 C600 1.524 . S
C599 C603 1.400 . S
C600 H585 0.960 . S
C600 H586 0.960 . S
C600 H587 0.960 . S
C600 C599 1.524 . S
C601 C598 1.403 . S
C601 C602 1.392 . S
C601 C605 1.495 . S
C602 C601 1.392 . S
C602 C603 1.385 . S
C602 C604 1.478 . S
C603 H597 0.930 . S
C603 C599 1.400 . S
C603 C602 1.385 . S
C604 C602 1.478 . S
C604 C606 1.381 . S
C604 C610 1.383 . S
C605 C601 1.495 . S
C605 H611 0.959 . S
C605 H612 0.961 . S
C605 H613 0.960 . S
C606 C604 1.381 . S
C606 C607 1.394 . S
C606 H614 0.930 . S
C607 C606 1.394 . S
C607 C608 1.383 . S
C607 H615 0.929 . S
C608 C607 1.383 . S
C608 C609 1.377 . S
C609 H593 0.930 . S
C609 C608 1.377 . S
C609 C610 1.379 . S
C610 H594 0.931 . S
C610 C604 1.383 . S
C610 C609 1.379 . S
H611 C605 0.959 . S
H612 C605 0.961 . S
H613 C605 0.960 . S
H614 C606 0.930 . S
H615 C607 0.929 . S
H616 C624 0.929 . S
H617 C626 0.930 . S
H618 C628 0.930 . S
H619 C631 0.929 . S
H620 C634 0.930 . S
H621 C636 0.960 . S
H622 C636 0.960 . S
H623 C636 0.960 . S
C624 H616 0.929 . S
C624 C625 1.377 . S
C624 C626 1.384 . S
C625 C624 1.377 . S
C625 C631 1.390 . S
C626 H617 0.930 . S
C626 C624 1.384 . S
C626 C627 1.372 . S
C627 C626 1.372 . S
C627 C628 1.400 . S
C627 C632 1.490 . S
C628 H618 0.930 . S
C628 C627 1.400 . S
C628 C631 1.386 . S
H629 C645 0.930 . S
H630 C646 0.931 . S
C631 H619 0.929 . S
C631 C625 1.390 . S
C631 C628 1.386 . S
C632 C627 1.490 . S
C632 C634 1.395 . S
C632 C635 1.403 . S
H633 C639 0.930 . S
C634 H620 0.930 . S
C634 C632 1.395 . S
C634 C637 1.403 . S
C635 C632 1.403 . S
C635 C636 1.524 . S
C635 C639 1.400 . S
C636 H621 0.960 . S
C636 H622 0.960 . S
C636 H623 0.960 . S
C636 C635 1.524 . S
C637 C634 1.403 . S
C637 C638 1.392 . S
C637 C641 1.495 . S
C638 C637 1.392 . S
C638 C639 1.385 . S
C638 C640 1.478 . S
C639 H633 0.930 . S
C639 C635 1.400 . S
C639 C638 1.385 . S
C640 C638 1.478 . S
C640 C642 1.381 . S
C640 C646 1.383 . S
C641 C637 1.495 . S
C641 H647 0.959 . S
C641 H648 0.961 . S
C641 H649 0.960 . S
C642 C640 1.381 . S
C642 C643 1.394 . S
C642 H650 0.930 . S
C643 C642 1.394 . S
C643 C644 1.383 . S
C643 H651 0.929 . S
C644 C643 1.383 . S
C644 C645 1.377 . S
C645 H629 0.930 . S
C645 C644 1.377 . S
C645 C646 1.379 . S
C646 H630 0.931 . S
C646 C640 1.383 . S
C646 C645 1.379 . S
H647 C641 0.959 . S
H648 C641 0.961 . S
H649 C641 0.960 . S
H650 C642 0.930 . S
H651 C643 0.929 . S
H652 C660 0.929 . S
H653 C662 0.930 . S
H654 C664 0.930 . S
H655 C667 0.929 . S
H656 C670 0.930 . S
H657 C672 0.960 . S
H658 C672 0.960 . S
H659 C672 0.960 . S
C660 H652 0.929 . S
C660 C661 1.377 . S
C660 C662 1.384 1_554 S
C661 C660 1.377 . S
C661 C667 1.390 . S
C662 H653 0.930 . S
C662 C660 1.384 1_556 S
C662 C663 1.372 . S
C663 C662 1.372 . S
C663 C664 1.400 1_556 S
C663 C668 1.490 . S
C664 H654 0.930 . S
C664 C663 1.400 1_554 S
C664 C667 1.386 . S
H665 C681 0.930 . S
H666 C682 0.931 . S
C667 H655 0.929 . S
C667 C661 1.390 . S
C667 C664 1.386 . S
C668 C663 1.490 . S
C668 C670 1.395 . S
C668 C671 1.403 . S
H669 C675 0.930 . S
C670 H656 0.930 . S
C670 C668 1.395 . S
C670 C673 1.403 . S
C671 C668 1.403 . S
C671 C672 1.524 . S
C671 C675 1.400 . S
C672 H657 0.960 . S
C672 H658 0.960 . S
C672 H659 0.960 . S
C672 C671 1.524 . S
C673 C670 1.403 . S
C673 C674 1.392 . S
C673 C677 1.495 . S
C674 C673 1.392 . S
C674 C675 1.385 . S
C674 C676 1.478 . S
C675 H669 0.930 . S
C675 C671 1.400 . S
C675 C674 1.385 . S
C676 C674 1.478 . S
C676 C678 1.381 . S
C676 C682 1.383 . S
C677 C673 1.495 . S
C677 H683 0.959 . S
C677 H684 0.961 . S
C677 H685 0.960 . S
C678 C676 1.381 . S
C678 C679 1.394 . S
C678 H686 0.930 . S
C679 C678 1.394 . S
C679 C680 1.383 . S
C679 H687 0.929 . S
C680 C679 1.383 . S
C680 C681 1.377 . S
C681 H665 0.930 . S
C681 C680 1.377 . S
C681 C682 1.379 . S
C682 H666 0.931 . S
C682 C676 1.383 . S
C682 C681 1.379 . S
H683 C677 0.959 . S
H684 C677 0.961 . S
H685 C677 0.960 . S
H686 C678 0.930 . S
H687 C679 0.929 . S
C121 C7 1.490 . S
C140 C49 1.467 . S
C157 C9 1.574 . S
C176 C23 1.575 . S
C193 C21 1.492 . S
C212 C35 1.512 . S
C229 C51 1.578 . S
C248 C37 1.567 . S
C265 C63 1.502 . S
C284 C105 1.515 . S
C301 C79 1.574 . S
C320 C65 1.575 . S
C337 C91 1.493 . S
C356 C77 1.515 . S
C373 C107 1.579 . S
C392 C93 1.562 . S
C409 C92 1.546 . S
C428 C6 1.503 . S
C445 C22 1.545 . S
C464 C104 1.505 . S
C481 C64 1.541 . S
C500 C34 1.461 . S
C517 C76 1.476 . S
C536 C50 1.535 . S
C553 C78 1.544 . S
C572 C48 1.501 . S
C589 C8 1.541 . S
C608 C90 1.452 . S
C625 C20 1.480 . S
C644 C106 1.544 . S
C661 C36 1.545 . S
C680 C62 1.505 . S
