# Generated by pormake.
# Topology umh, (4)-cn, num edge types: 1
# Building blocks:
#     Node 0, Type 0, BuildingBlock: MUDLON_clean_sbu_0, # of connection points: 4
#     Node 1, Type 0, BuildingBlock: MUDLON_clean_sbu_0, # of connection points: 4
#     Node 2, Type 0, BuildingBlock: MUDLON_clean_sbu_0, # of connection points: 4
#     Node 3, Type 0, BuildingBlock: MUDLON_clean_sbu_0, # of connection points: 4
#     Node 4, Type 0, BuildingBlock: MUDLON_clean_sbu_0, # of connection points: 4
#     Node 5, Type 0, BuildingBlock: MUDLON_clean_sbu_0, # of connection points: 4
#     Node 6, Type 0, BuildingBlock: MUDLON_clean_sbu_0, # of connection points: 4
#     Node 7, Type 0, BuildingBlock: MUDLON_clean_sbu_0, # of connection points: 4
#     Node 8, Type 0, BuildingBlock: MUDLON_clean_sbu_0, # of connection points: 4
#     Node 9, Type 0, BuildingBlock: MUDLON_clean_sbu_0, # of connection points: 4
#     Node 10, Type 0, BuildingBlock: MUDLON_clean_sbu_0, # of connection points: 4
#     Node 11, Type 0, BuildingBlock: MUDLON_clean_sbu_0, # of connection points: 4
#     Node 12, Type 0, BuildingBlock: MUDLON_clean_sbu_0, # of connection points: 4
#     Node 13, Type 0, BuildingBlock: MUDLON_clean_sbu_0, # of connection points: 4
#     Node 14, Type 0, BuildingBlock: MUDLON_clean_sbu_0, # of connection points: 4
#     Node 15, Type 0, BuildingBlock: MUDLON_clean_sbu_0, # of connection points: 4
#     Edge 16, Type (0, 0), BuildingBlock: KIFKEQ_clean_linker_1, # of connection points: 2
#     Edge 17, Type (0, 0), BuildingBlock: KIFKEQ_clean_linker_1, # of connection points: 2
#     Edge 18, Type (0, 0), BuildingBlock: KIFKEQ_clean_linker_1, # of connection points: 2
#     Edge 19, Type (0, 0), BuildingBlock: KIFKEQ_clean_linker_1, # of connection points: 2
#     Edge 20, Type (0, 0), BuildingBlock: KIFKEQ_clean_linker_1, # of connection points: 2
#     Edge 21, Type (0, 0), BuildingBlock: KIFKEQ_clean_linker_1, # of connection points: 2
#     Edge 22, Type (0, 0), BuildingBlock: KIFKEQ_clean_linker_1, # of connection points: 2
#     Edge 23, Type (0, 0), BuildingBlock: KIFKEQ_clean_linker_1, # of connection points: 2
#     Edge 24, Type (0, 0), BuildingBlock: KIFKEQ_clean_linker_1, # of connection points: 2
#     Edge 25, Type (0, 0), BuildingBlock: KIFKEQ_clean_linker_1, # of connection points: 2
#     Edge 26, Type (0, 0), BuildingBlock: KIFKEQ_clean_linker_1, # of connection points: 2
#     Edge 27, Type (0, 0), BuildingBlock: KIFKEQ_clean_linker_1, # of connection points: 2
#     Edge 28, Type (0, 0), BuildingBlock: KIFKEQ_clean_linker_1, # of connection points: 2
#     Edge 29, Type (0, 0), BuildingBlock: KIFKEQ_clean_linker_1, # of connection points: 2
#     Edge 30, Type (0, 0), BuildingBlock: KIFKEQ_clean_linker_1, # of connection points: 2
#     Edge 31, Type (0, 0), BuildingBlock: KIFKEQ_clean_linker_1, # of connection points: 2
#     Edge 32, Type (0, 0), BuildingBlock: KIFKEQ_clean_linker_1, # of connection points: 2
#     Edge 33, Type (0, 0), BuildingBlock: KIFKEQ_clean_linker_1, # of connection points: 2
#     Edge 34, Type (0, 0), BuildingBlock: KIFKEQ_clean_linker_1, # of connection points: 2
#     Edge 35, Type (0, 0), BuildingBlock: KIFKEQ_clean_linker_1, # of connection points: 2
#     Edge 36, Type (0, 0), BuildingBlock: KIFKEQ_clean_linker_1, # of connection points: 2
#     Edge 37, Type (0, 0), BuildingBlock: KIFKEQ_clean_linker_1, # of connection points: 2
#     Edge 38, Type (0, 0), BuildingBlock: KIFKEQ_clean_linker_1, # of connection points: 2
#     Edge 39, Type (0, 0), BuildingBlock: KIFKEQ_clean_linker_1, # of connection points: 2
#     Edge 40, Type (0, 0), BuildingBlock: KIFKEQ_clean_linker_1, # of connection points: 2
#     Edge 41, Type (0, 0), BuildingBlock: KIFKEQ_clean_linker_1, # of connection points: 2
#     Edge 42, Type (0, 0), BuildingBlock: KIFKEQ_clean_linker_1, # of connection points: 2
#     Edge 43, Type (0, 0), BuildingBlock: KIFKEQ_clean_linker_1, # of connection points: 2
#     Edge 44, Type (0, 0), BuildingBlock: KIFKEQ_clean_linker_1, # of connection points: 2
#     Edge 45, Type (0, 0), BuildingBlock: KIFKEQ_clean_linker_1, # of connection points: 2
#     Edge 46, Type (0, 0), BuildingBlock: KIFKEQ_clean_linker_1, # of connection points: 2
#     Edge 47, Type (0, 0), BuildingBlock: KIFKEQ_clean_linker_1, # of connection points: 2
# Relax obj value: 0.037
# Max RMSD: 0.081
# Mean RMSD: 0.081
data_MOF--net-umh--node1-MUDLON_clean_sbu_0--edge1-KIFKEQ_clean_linker_1
_symmetry_space_group_name_H-M    P1
_symmetry_Int_Tables_number       1
_symmetry_cell_setting            triclinic
loop_
_symmetry_equiv_pos_as_xyz
'x, y, z'
_cell_length_a     43.005099
_cell_length_b     43.037069
_cell_length_c     55.736863
_cell_angle_alpha  89.967619
_cell_angle_beta   90.118642
_cell_angle_gamma 89.901313
loop_
_atom_site_label
_atom_site_type_symbol
_atom_site_fract_x
_atom_site_fract_y
_atom_site_fract_z
_atom_type_partial_charge
Mg0 Mg 0.35264 0.091 0.17782 0.0
C1 C 0.36402 0.11371 0.12828 0.0
O2 O 0.37289 0.13705 0.14184 0.0
C3 C 0.32647 0.05392 0.2178 0.0
O4 O 0.35484 0.06014 0.22513 0.0
C5 C 0.42446 0.08455 0.18202 0.0
O6 O 0.42537 0.10807 0.16702 0.0
O7 O 0.39831 0.07509 0.1897 0.0
O8 O 0.35288 0.08961 0.13844 0.0
O9 O 0.33931 0.1386 0.18705 0.0
C10 C 0.31554 0.14327 0.2002 0.0
O11 O 0.30231 0.11948 0.21074 0.0
O12 O 0.31887 0.06155 0.19646 0.0
Mg13 Mg 0.38774 0.3621 0.67647 0.0
C14 C 0.41203 0.37109 0.62444 0.0
O15 O 0.43527 0.38546 0.63497 0.0
C16 C 0.41004 0.33545 0.7211 0.0
O17 O 0.39573 0.36143 0.72677 0.0
C18 C 0.40425 0.43179 0.67474 0.0
O19 O 0.38957 0.43117 0.65405 0.0
O20 O 0.40462 0.4075 0.68774 0.0
O21 O 0.39143 0.35802 0.63732 0.0
O22 O 0.34007 0.35068 0.68603 0.0
C23 C 0.32237 0.33972 0.66982 0.0
O24 O 0.33144 0.34114 0.64737 0.0
O25 O 0.4127 0.32865 0.69893 0.0
Mg26 Mg 0.15514 0.393 0.16944 0.0
C27 C 0.13561 0.37968 0.1201 0.0
O28 O 0.11466 0.36645 0.13385 0.0
C29 C 0.18114 0.41938 0.21317 0.0
O30 O 0.15338 0.40916 0.21902 0.0
C31 C 0.10581 0.43761 0.16544 0.0
O32 O 0.12809 0.44612 0.15075 0.0
O33 O 0.10975 0.41302 0.17778 0.0
O34 O 0.15793 0.39421 0.13013 0.0
O35 O 0.16557 0.34522 0.17923 0.0
C36 C 0.18908 0.33554 0.16753 0.0
O37 O 0.20114 0.35375 0.15109 0.0
O38 O 0.18923 0.41796 0.19121 0.0
Mg39 Mg 0.10502 0.14616 0.67394 0.0
C40 C 0.1258 0.13379 0.62429 0.0
O41 O 0.14718 0.12032 0.63761 0.0
C42 C 0.06283 0.17219 0.7121 0.0
O43 O 0.06284 0.14267 0.71809 0.0
C44 C 0.08357 0.07904 0.67057 0.0
O45 O 0.08774 0.08481 0.64769 0.0
O46 O 0.09086 0.09979 0.68585 0.0
O47 O 0.10349 0.14789 0.63469 0.0
O48 O 0.15221 0.16065 0.6825 0.0
C49 C 0.15717 0.17947 0.6997 0.0
O50 O 0.13473 0.18503 0.71505 0.0
O51 O 0.07618 0.18026 0.69268 0.0
Mg52 Mg 0.35907 0.39331 0.39525 0.0
C53 C 0.38147 0.38863 0.44451 0.0
O54 O 0.4025 0.37496 0.43107 0.0
C55 C 0.3325 0.40966 0.34927 0.0
O56 O 0.35541 0.39011 0.34522 0.0
C57 C 0.41063 0.43153 0.37605 0.0
O58 O 0.38623 0.44949 0.37288 0.0
O59 O 0.40658 0.40434 0.38444 0.0
O60 O 0.35785 0.40069 0.43419 0.0
O61 O 0.34351 0.34581 0.39027 0.0
C62 C 0.31493 0.3434 0.3959 0.0
O63 O 0.30055 0.36812 0.40419 0.0
O64 O 0.32753 0.41805 0.37087 0.0
Mg65 Mg 0.09889 0.34808 0.88976 0.0
C66 C 0.11047 0.36614 0.93942 0.0
O67 O 0.12437 0.38723 0.92619 0.0
C68 C 0.06452 0.32476 0.84666 0.0
O69 O 0.07191 0.35313 0.84013 0.0
C70 C 0.05518 0.39921 0.88119 0.0
O71 O 0.0374 0.37475 0.88436 0.0
O72 O 0.08455 0.39564 0.88176 0.0
O73 O 0.0956 0.34451 0.92881 0.0
O74 O 0.14718 0.33541 0.88284 0.0
C75 C 0.15354 0.31505 0.86701 0.0
O76 O 0.13162 0.3062 0.85211 0.0
O77 O 0.07108 0.316 0.86795 0.0
Mg78 Mg 0.14706 0.09601 0.3934 0.0
C79 C 0.13239 0.10865 0.44358 0.0
O80 O 0.11117 0.12355 0.43104 0.0
C81 C 0.16948 0.07261 0.34787 0.0
O82 O 0.14664 0.0919 0.34287 0.0
C83 C 0.08751 0.06412 0.39938 0.0
O84 O 0.10587 0.05169 0.41564 0.0
O85 O 0.09836 0.08528 0.38582 0.0
O86 O 0.15288 0.09293 0.43236 0.0
O87 O 0.16373 0.14251 0.38556 0.0
C88 C 0.19305 0.14367 0.38869 0.0
O89 O 0.2076 0.11814 0.39521 0.0
O90 O 0.17549 0.06708 0.36986 0.0
Mg91 Mg 0.39552 0.14743 0.89747 0.0
C92 C 0.40022 0.12442 0.94861 0.0
O93 O 0.39991 0.09812 0.93673 0.0
C94 C 0.41329 0.17781 0.8534 0.0
O95 O 0.40008 0.15137 0.84752 0.0
C96 C 0.40819 0.07685 0.88439 0.0
O97 O 0.38103 0.06962 0.89356 0.0
O98 O 0.41704 0.10503 0.88399 0.0
O99 O 0.40061 0.14981 0.93681 0.0
O100 O 0.34683 0.15542 0.88891 0.0
C101 C 0.33174 0.17126 0.90425 0.0
O102 O 0.34466 0.17686 0.92517 0.0
O103 O 0.41672 0.18392 0.87564 0.0
Mg104 Mg 0.6478 0.90137 0.89671 0.0
C105 C 0.6266 0.90057 0.94746 0.0
O106 O 0.60084 0.89526 0.93545 0.0
C107 C 0.67334 0.92466 0.85165 0.0
O108 O 0.64694 0.91123 0.84588 0.0
C109 C 0.59891 0.94576 0.88623 0.0
O110 O 0.6237 0.96224 0.89149 0.0
O111 O 0.60127 0.9163 0.88632 0.0
O112 O 0.65146 0.90598 0.93576 0.0
O113 O 0.66099 0.85364 0.88975 0.0
C114 C 0.68855 0.84911 0.89738 0.0
O115 O 0.70294 0.87214 0.90816 0.0
O116 O 0.68061 0.92634 0.8738 0.0
Mg117 Mg 0.60467 0.63924 0.39111 0.0
C118 C 0.65105 0.68676 0.38135 0.0
O119 O 0.62538 0.70199 0.38637 0.0
C120 C 0.59061 0.57034 0.39456 0.0
O121 O 0.59756 0.57561 0.41715 0.0
C122 C 0.57646 0.66331 0.34725 0.0
O123 O 0.59288 0.63897 0.34071 0.0
O124 O 0.57429 0.66925 0.36959 0.0
O125 O 0.6504 0.65715 0.38163 0.0
O126 O 0.60058 0.64034 0.4305 0.0
C127 C 0.62385 0.64896 0.44304 0.0
O128 O 0.6486 0.65963 0.43207 0.0
O129 O 0.59415 0.59212 0.37938 0.0
Mg130 Mg 0.84822 0.59619 0.89795 0.0
C131 C 0.83141 0.60892 0.95038 0.0
O132 O 0.81233 0.6287 0.94008 0.0
C133 C 0.82534 0.56979 0.85302 0.0
O134 O 0.85075 0.58507 0.84747 0.0
C135 C 0.91739 0.58081 0.90082 0.0
O136 O 0.91311 0.58783 0.92351 0.0
O137 O 0.89512 0.58483 0.88609 0.0
O138 O 0.84738 0.59069 0.93724 0.0
O139 O 0.83211 0.64314 0.89006 0.0
C140 C 0.80271 0.64506 0.88745 0.0
O141 O 0.7861 0.61958 0.88921 0.0
O142 O 0.81796 0.56771 0.87511 0.0
Mg143 Mg 0.8966 0.8567 0.39098 0.0
C144 C 0.8491 0.81035 0.38696 0.0
O145 O 0.87325 0.79709 0.39724 0.0
C146 C 0.90501 0.92669 0.39375 0.0
O147 O 0.8897 0.92264 0.41388 0.0
C148 C 0.93209 0.83342 0.34899 0.0
O149 O 0.92445 0.86173 0.34239 0.0
O150 O 0.92601 0.82488 0.37038 0.0
O151 O 0.85096 0.83899 0.38138 0.0
O152 O 0.89922 0.85559 0.43044 0.0
C153 C 0.87345 0.85856 0.44151 0.0
O154 O 0.8477 0.86071 0.42891 0.0
O155 O 0.90863 0.90365 0.37976 0.0
Mg156 Mg 0.64937 0.5966 0.67197 0.0
C157 C 0.64176 0.61739 0.62248 0.0
O158 O 0.63127 0.64008 0.63602 0.0
C159 C 0.6738 0.57491 0.7176 0.0
O160 O 0.64988 0.59284 0.72251 0.0
C161 C 0.59665 0.55731 0.68666 0.0
O162 O 0.62066 0.53845 0.6879 0.0
O163 O 0.60129 0.58554 0.6809 0.0
O164 O 0.65252 0.59314 0.63275 0.0
O165 O 0.66522 0.64337 0.67995 0.0
C166 C 0.69418 0.64588 0.67566 0.0
O167 O 0.70913 0.62141 0.66751 0.0
O168 O 0.67995 0.56951 0.69562 0.0
Mg169 Mg 0.89506 0.64939 0.17675 0.0
C170 C 0.84143 0.67649 0.20483 0.0
O171 O 0.86461 0.6873 0.21766 0.0
C172 C 0.94606 0.60643 0.17863 0.0
O173 O 0.95666 0.63277 0.16996 0.0
C174 C 0.93377 0.67856 0.21552 0.0
O175 O 0.93298 0.64938 0.22243 0.0
O176 O 0.92164 0.68574 0.19535 0.0
O177 O 0.8471 0.65673 0.1884 0.0
O178 O 0.89278 0.65132 0.13738 0.0
C179 C 0.86972 0.6366 0.12856 0.0
O180 O 0.85015 0.62324 0.14339 0.0
O181 O 0.91749 0.60501 0.18443 0.0
Mg182 Mg 0.85342 0.89921 0.67249 0.0
C183 C 0.85477 0.8789 0.62161 0.0
O184 O 0.86009 0.85321 0.63367 0.0
C185 C 0.82715 0.91828 0.71801 0.0
O186 O 0.85054 0.8996 0.72289 0.0
C187 C 0.90473 0.93895 0.69042 0.0
O188 O 0.88005 0.95643 0.69373 0.0
O189 O 0.90107 0.91164 0.68211 0.0
O190 O 0.84994 0.90397 0.63324 0.0
O191 O 0.83835 0.85207 0.68035 0.0
C192 C 0.80925 0.84949 0.67655 0.0
O193 O 0.79391 0.87402 0.66891 0.0
O194 O 0.82198 0.92514 0.69609 0.0
Mg195 Mg 0.60082 0.85238 0.17699 0.0
C196 C 0.6531 0.81008 0.17564 0.0
O197 O 0.63302 0.79932 0.15992 0.0
C198 C 0.5882 0.92203 0.17447 0.0
O199 O 0.59939 0.91798 0.15281 0.0
C200 C 0.57449 0.82564 0.22017 0.0
O201 O 0.58969 0.85062 0.22694 0.0
O202 O 0.57249 0.81999 0.19777 0.0
O203 O 0.64687 0.83539 0.18645 0.0
O204 O 0.59821 0.85144 0.13758 0.0
C205 C 0.62233 0.86177 0.12694 0.0
O206 O 0.64619 0.87045 0.14008 0.0
O207 O 0.58811 0.89917 0.18897 0.0
H208 H 0.40402 0.07411 0.97823 0.0
H209 H 0.38813 0.17322 0.97911 0.0
H210 H 0.39495 0.07177 1.02121 0.0
H211 H 0.37818 0.1708 1.02222 0.0
H212 H 0.39273 0.15972 0.10308 0.0
H213 H 0.40222 0.16266 0.06022 0.0
H214 H 0.35454 0.07528 0.05034 0.0
H215 H 0.34586 0.07189 0.0936 0.0
C216 C 0.39862 0.09548 0.98761 0.0
C217 C 0.39688 0.1239 0.97516 0.0
C218 C 0.39309 0.09407 1.0123 0.0
C219 C 0.38551 0.12101 1.0253 0.0
C220 C 0.38425 0.14957 1.01291 0.0
C221 C 0.38993 0.151 0.98815 0.0
C222 C 0.38415 0.14111 0.09182 0.0
C223 C 0.36854 0.1155 0.10187 0.0
C224 C 0.38947 0.14292 0.06711 0.0
C225 C 0.3792 0.11926 0.05166 0.0
C226 C 0.36325 0.09375 0.06168 0.0
C227 C 0.35806 0.09186 0.08649 0.0
H228 H 0.33847 0.40276 0.47963 0.0
H229 H 0.43367 0.3735 0.46946 0.0
H230 H 0.3456 0.399 0.52326 0.0
H231 H 0.4406 0.36956 0.51259 0.0
H232 H 0.45198 0.39588 0.59141 0.0
H233 H 0.44381 0.4022 0.54838 0.0
H234 H 0.35409 0.35803 0.55438 0.0
H235 H 0.36212 0.35188 0.59752 0.0
C236 C 0.36091 0.39575 0.48666 0.0
C237 C 0.38546 0.38843 0.47102 0.0
C238 C 0.36494 0.39336 0.51163 0.0
C239 C 0.3937 0.38395 0.52144 0.0
C240 C 0.41828 0.3772 0.50573 0.0
C241 C 0.41419 0.37932 0.48092 0.0
C242 C 0.43057 0.38734 0.58358 0.0
C243 C 0.40781 0.37321 0.59798 0.0
C244 C 0.42588 0.39096 0.55887 0.0
C245 C 0.39824 0.3807 0.54789 0.0
C246 C 0.37547 0.36655 0.56228 0.0
C247 C 0.38024 0.36274 0.58699 0.0
H248 H 0.13567 0.41285 0.96598 0.0
H249 H 0.09227 0.32287 0.973 0.0
H250 H 0.14206 0.41571 1.0092 0.0
H251 H 0.09949 0.32532 1.01649 0.0
H252 H 0.08737 0.3551 0.09471 0.0
H253 H 0.08126 0.35146 0.05148 0.0
H254 H 0.17103 0.39465 0.04191 0.0
H255 H 0.17672 0.39913 0.08542 0.0
C256 C 0.12758 0.39354 0.97675 0.0
C257 C 0.1134 0.36761 0.96596 0.0
C258 C 0.13151 0.3951 1.00162 0.0
C259 C 0.12152 0.37069 1.01647 0.0
C260 C 0.10718 0.34475 1.00568 0.0
C261 C 0.1031 0.34325 0.98073 0.0
C262 C 0.10588 0.36384 0.08343 0.0
C263 C 0.13255 0.3775 0.09359 0.0
C264 C 0.10244 0.36152 0.05856 0.0
C265 C 0.12564 0.37265 0.04306 0.0
C266 C 0.15245 0.38619 0.05323 0.0
C267 C 0.15583 0.38865 0.0782 0.0
H268 H 0.1598 0.09209 0.5986 0.0
H269 H 0.09448 0.1676 0.59012 0.0
H270 H 0.16134 0.08504 0.55541 0.0
H271 H 0.09715 0.16171 0.54664 0.0
H272 H 0.08335 0.12454 0.47162 0.0
H273 H 0.08179 0.13018 0.51491 0.0
H274 H 0.17903 0.10482 0.51897 0.0
H275 H 0.17997 0.09767 0.47549 0.0
C276 C 0.146 0.10748 0.58745 0.0
C277 C 0.12695 0.1304 0.59782 0.0
C278 C 0.14706 0.10356 0.56257 0.0
C279 C 0.12943 0.12277 0.54728 0.0
C280 C 0.11062 0.146 0.55773 0.0
C281 C 0.1092 0.14958 0.58269 0.0
C282 C 0.10439 0.12002 0.48176 0.0
C283 C 0.13181 0.11067 0.47012 0.0
C284 C 0.10358 0.12355 0.50666 0.0
C285 C 0.13034 0.11832 0.52066 0.0
C286 C 0.15779 0.10869 0.50895 0.0
C287 C 0.15844 0.10467 0.48398 0.0
H288 H 0.6661 0.89308 0.10135 0.0
H289 H 0.5804 0.84209 0.09279 0.0
H290 H 0.66719 0.90364 0.05862 0.0
H291 H 0.5821 0.85158 0.04958 0.0
H292 H 0.57652 0.9 0.9773 0.0
H293 H 0.57558 0.89065 1.02032 0.0
H294 H 0.67576 0.88208 1.02056 0.0
H295 H 0.67665 0.89271 0.97755 0.0
C296 C 0.6476 0.88377 0.09028 0.0
C297 C 0.62312 0.86672 0.10056 0.0
C298 C 0.64835 0.8897 0.06563 0.0
C299 C 0.62478 0.8785 0.05043 0.0
C300 C 0.60042 0.86109 0.06069 0.0
C301 C 0.59952 0.8554 0.08548 0.0
C302 C 0.5984 0.89638 0.98657 0.0
C303 C 0.62668 0.89717 0.97397 0.0
C304 C 0.59783 0.89067 1.01127 0.0
C305 C 0.62554 0.88526 1.02408 0.0
C306 C 0.65392 0.88651 1.01147 0.0
C307 C 0.65449 0.89256 0.98675 0.0
H308 H 0.64281 0.57166 0.58773 0.0
H309 H 0.63667 0.67105 0.59732 0.0
H310 H 0.63711 0.57874 0.5441 0.0
H311 H 0.63134 0.67799 0.55421 0.0
H312 H 0.66131 0.67856 0.47496 0.0
H313 H 0.66614 0.6695 0.51798 0.0
H314 H 0.59429 0.59979 0.51413 0.0
H315 H 0.58915 0.60911 0.4708 0.0
C316 C 0.6405 0.59494 0.58055 0.0
C317 C 0.64024 0.62078 0.59599 0.0
C318 C 0.63697 0.59898 0.55565 0.0
C319 C 0.63374 0.62894 0.54577 0.0
C320 C 0.63396 0.65465 0.56124 0.0
C321 C 0.63695 0.65062 0.58599 0.0
C322 C 0.64635 0.66144 0.48326 0.0
C323 C 0.6247 0.64471 0.46947 0.0
C324 C 0.64913 0.65626 0.50792 0.0
C325 C 0.63069 0.63385 0.51942 0.0
C326 C 0.609 0.61702 0.5057 0.0
C327 C 0.60582 0.6226 0.48098 0.0
H328 H 0.88076 0.58621 0.97659 0.0
H329 H 0.79437 0.63666 0.98372 0.0
H330 H 0.89099 0.59359 1.01952 0.0
H331 H 0.80453 0.64384 1.02639 0.0
H332 H 0.81674 0.61866 0.10588 0.0
H333 H 0.80804 0.61081 0.06319 0.0
H334 H 0.90249 0.63866 0.04859 0.0
H335 H 0.91133 0.64671 0.09172 0.0
C336 C 0.8638 0.59855 0.98733 0.0
C337 C 0.83665 0.61071 0.97672 0.0
C338 C 0.86984 0.60306 1.01185 0.0
C339 C 0.84863 0.61939 1.02635 0.0
C340 C 0.82125 0.63099 1.01578 0.0
C341 C 0.81544 0.62687 0.99129 0.0
C342 C 0.83572 0.62325 0.09364 0.0
C343 C 0.86475 0.63341 0.10227 0.0
C344 C 0.83065 0.61882 0.06912 0.0
C345 C 0.85455 0.62408 0.05247 0.0
C346 C 0.88368 0.63418 0.06101 0.0
C347 C 0.88867 0.63904 0.08566 0.0
H348 H 0.91861 0.87841 0.47309 0.0
H349 H 0.824 0.84522 0.4698 0.0
H350 H 0.91337 0.88559 0.5167 0.0
H351 H 0.81909 0.85182 0.51309 0.0
H352 H 0.84128 0.82971 0.59321 0.0
H353 H 0.84656 0.82543 0.54978 0.0
H354 H 0.87723 0.92071 0.54623 0.0
H355 H 0.87129 0.9253 0.59003 0.0
C356 C 0.89687 0.87238 0.48168 0.0
C357 C 0.87177 0.86112 0.46803 0.0
C358 C 0.89378 0.87679 0.50655 0.0
C359 C 0.86578 0.86937 0.51823 0.0
C360 C 0.84094 0.85769 0.50458 0.0
C361 C 0.8438 0.8539 0.47979 0.0
C362 C 0.84889 0.84988 0.58319 0.0
C363 C 0.85573 0.8779 0.59503 0.0
C364 C 0.85191 0.84739 0.55832 0.0
C365 C 0.86246 0.87266 0.54466 0.0
C366 C 0.86927 0.9008 0.55639 0.0
C367 C 0.86557 0.90352 0.58136 0.0
H368 H 0.22812 0.30291 0.13903 0.0
H369 H 0.18715 0.30242 0.20969 0.0
H370 H 0.25955 0.25804 0.14949 0.0
H371 H 0.21962 0.25778 0.22062 0.0
H372 H 0.2594 0.15744 0.22017 0.0
H373 H 0.22819 0.20377 0.21356 0.0
H374 H 0.30345 0.24457 0.17313 0.0
H375 H 0.33426 0.19757 0.17893 0.0
C376 C 0.22583 0.29313 0.15686 0.0
C377 C 0.20519 0.30619 0.17355 0.0
C378 C 0.24417 0.26759 0.16297 0.0
C379 C 0.24267 0.25459 0.18608 0.0
C380 C 0.22133 0.26713 0.20263 0.0
C381 C 0.20266 0.29263 0.19639 0.0
C382 C 0.26951 0.17644 0.21012 0.0
C383 C 0.29922 0.17361 0.19979 0.0
C384 C 0.25157 0.20313 0.20641 0.0
C385 C 0.26301 0.22775 0.19244 0.0
C386 C 0.29354 0.2257 0.18342 0.0
C387 C 0.31138 0.19888 0.18696 0.0
H388 H 0.2803 0.3133 0.63951 0.0
H389 H 0.30472 0.31974 0.7146 0.0
H390 H 0.24205 0.27359 0.64889 0.0
H391 H 0.26652 0.27953 0.72394 0.0
H392 H 0.17115 0.22744 0.73008 0.0
H393 H 0.21038 0.2676 0.72427 0.0
H394 H 0.24425 0.21915 0.6617 0.0
H395 H 0.2048 0.17927 0.66722 0.0
C396 C 0.2773 0.30649 0.65807 0.0
C397 C 0.29574 0.31959 0.67627 0.0
C398 C 0.25559 0.28345 0.66342 0.0
C399 C 0.25173 0.27291 0.68709 0.0
C400 C 0.269 0.28711 0.70551 0.0
C401 C 0.29082 0.31022 0.70016 0.0
C402 C 0.18731 0.22504 0.71532 0.0
C403 C 0.1846 0.20027 0.69896 0.0
C404 C 0.2098 0.24811 0.712 0.0
C405 C 0.23001 0.24691 0.69225 0.0
C406 C 0.22849 0.22116 0.67675 0.0
C407 C 0.20608 0.1981 0.68007 0.0
H408 H 0.33472 0.28871 0.37545 0.0
H409 H 0.25531 0.33182 0.40931 0.0
H410 H 0.30487 0.24083 0.37043 0.0
H411 H 0.22596 0.28407 0.4049 0.0
H412 H 0.17127 0.20204 0.3774 0.0
H413 H 0.20099 0.25043 0.37637 0.0
H414 H 0.2845 0.19969 0.39482 0.0
H415 H 0.25521 0.15162 0.39517 0.0
C416 C 0.31099 0.28794 0.38189 0.0
C417 C 0.29747 0.31403 0.39285 0.0
C418 C 0.29388 0.26051 0.37907 0.0
C419 C 0.26294 0.25859 0.38721 0.0
C420 C 0.24948 0.28483 0.39801 0.0
C421 C 0.26648 0.31217 0.40075 0.0
C422 C 0.19602 0.20125 0.38099 0.0
C423 C 0.21078 0.17301 0.3865 0.0
C424 C 0.21305 0.22897 0.38054 0.0
C425 C 0.24516 0.229 0.38563 0.0
C426 C 0.25995 0.20057 0.39049 0.0
C427 C 0.24301 0.17296 0.39089 0.0
H428 H 0.29105 0.20051 0.93389 0.0
H429 H 0.30915 0.1825 0.85896 0.0
H430 H 0.24952 0.23617 0.92285 0.0
H431 H 0.2679 0.21892 0.84783 0.0
H432 H 0.17011 0.26435 0.84041 0.0
H433 H 0.21245 0.22817 0.84835 0.0
H434 H 0.24507 0.28735 0.90568 0.0
H435 H 0.20217 0.32314 0.89821 0.0
C436 C 0.28597 0.20397 0.91503 0.0
C437 C 0.30345 0.18874 0.89731 0.0
C438 C 0.2624 0.22474 0.90868 0.0
C439 C 0.25581 0.23097 0.88444 0.0
C440 C 0.27236 0.21466 0.86667 0.0
C441 C 0.29592 0.19369 0.87305 0.0
C442 C 0.18657 0.26993 0.85449 0.0
C443 C 0.18252 0.29651 0.86886 0.0
C444 C 0.21091 0.24914 0.85901 0.0
C445 C 0.23182 0.25451 0.87796 0.0
C446 C 0.22886 0.28208 0.89136 0.0
C447 C 0.20447 0.3028 0.8869 0.0
H448 H 0.74366 0.83166 0.91711 0.0
H449 H 0.67092 0.79915 0.86984 0.0
H450 H 0.77157 0.78318 0.91186 0.0
H451 H 0.69953 0.7506 0.86392 0.0
H452 H 0.82853 0.70332 0.88464 0.0
H453 H 0.80108 0.75307 0.88412 0.0
H454 H 0.71311 0.70466 0.8855 0.0
H455 H 0.74035 0.65531 0.88516 0.0
C456 C 0.73371 0.81421 0.90541 0.0
C457 C 0.70497 0.81921 0.89396 0.0
C458 C 0.74993 0.78646 0.90221 0.0
C459 C 0.73799 0.763 0.88732 0.0
C460 C 0.70928 0.76805 0.87571 0.0
C461 C 0.69288 0.79586 0.87906 0.0
C462 C 0.80334 0.70337 0.88454 0.0
C463 C 0.78667 0.67537 0.88513 0.0
C464 C 0.78758 0.73186 0.88439 0.0
C465 C 0.75483 0.73291 0.88498 0.0
C466 C 0.73827 0.70482 0.88476 0.0
C467 C 0.75398 0.67644 0.88475 0.0
H468 H 0.65844 0.74948 0.38181 0.0
H469 H 0.70976 0.66385 0.37293 0.0
H470 H 0.70645 0.77876 0.38017 0.0
H471 H 0.7581 0.69346 0.37041 0.0
H472 H 0.83735 0.75169 0.40245 0.0
H473 H 0.79023 0.72156 0.3976 0.0
H474 H 0.74906 0.79649 0.35669 0.0
H475 H 0.79625 0.82729 0.36232 0.0
C476 C 0.67998 0.73688 0.37914 0.0
C477 C 0.68029 0.70425 0.37779 0.0
C478 C 0.70757 0.75379 0.37797 0.0
C479 C 0.73625 0.73854 0.37528 0.0
C480 C 0.73646 0.70593 0.37292 0.0
C481 C 0.70877 0.68895 0.37422 0.0
C482 C 0.81834 0.76178 0.39231 0.0
C483 C 0.82048 0.79202 0.3829 0.0
C484 C 0.79134 0.7443 0.38932 0.0
C485 C 0.76578 0.75647 0.37668 0.0
C486 C 0.76815 0.78653 0.3668 0.0
C487 C 0.7952 0.80417 0.36995 0.0
H488 H 0.83257 0.79337 0.69202 0.0
H489 H 0.74808 0.83818 0.66794 0.0
H490 H 0.80461 0.74409 0.69525 0.0
H491 H 0.72059 0.78918 0.67048 0.0
H492 H 0.67191 0.70131 0.69315 0.0
H493 H 0.70015 0.75033 0.69687 0.0
H494 H 0.78265 0.70631 0.66851 0.0
H495 H 0.75489 0.65746 0.66548 0.0
C496 C 0.80808 0.79272 0.68746 0.0
C497 C 0.79263 0.81965 0.6796 0.0
C498 C 0.79207 0.76449 0.68921 0.0
C499 C 0.76032 0.76263 0.68308 0.0
C500 C 0.74485 0.78978 0.67572 0.0
C501 C 0.76077 0.81789 0.67405 0.0
C502 C 0.69613 0.70212 0.68789 0.0
C503 C 0.71106 0.67554 0.6789 0.0
C504 C 0.71231 0.73021 0.68993 0.0
C505 C 0.7437 0.73231 0.68293 0.0
C506 C 0.75869 0.7055 0.67442 0.0
C507 C 0.74261 0.67749 0.67248 0.0
H508 H 0.7867 0.65921 0.18339 0.0
H509 H 0.82783 0.73131 0.22695 0.0
H510 H 0.7399 0.69067 0.17877 0.0
H511 H 0.78204 0.76342 0.22126 0.0
H512 H 0.68687 0.8095 0.21744 0.0
H513 H 0.72964 0.77451 0.22788 0.0
H514 H 0.7252 0.73433 0.15681 0.0
H515 H 0.68171 0.76804 0.14706 0.0
C516 C 0.78563 0.68164 0.19216 0.0
C517 C 0.81109 0.6928 0.20536 0.0
C518 C 0.75894 0.69991 0.18928 0.0
C519 C 0.75732 0.73002 0.19916 0.0
C520 C 0.78218 0.74038 0.21348 0.0
C521 C 0.80861 0.72191 0.21669 0.0
C522 C 0.69527 0.79327 0.20408 0.0
C523 C 0.68099 0.79146 0.18146 0.0
C524 C 0.71978 0.77316 0.21003 0.0
C525 C 0.73081 0.75118 0.19331 0.0
C526 C 0.71687 0.75016 0.17047 0.0
C527 C 0.69214 0.76981 0.16472 0.0
H528 H 0.21961 0.03268 0.35053 0.0
H529 H 0.16534 0.08707 0.30048 0.0
H530 H 0.25554 0.01899 0.31826 0.0
H531 H 0.2016 0.07484 0.26881 0.0
H532 H 0.26383 0.04425 0.21084 0.0
H533 H 0.22388 0.04024 0.24173 0.0
H534 H 0.29511 0.0431 0.29655 0.0
H535 H 0.33471 0.04541 0.26585 0.0
C536 C 0.21521 0.04152 0.33264 0.0
C537 C 0.18973 0.06118 0.32819 0.0
C538 C 0.23592 0.03386 0.31412 0.0
C539 C 0.23179 0.04596 0.29079 0.0
C540 C 0.20549 0.06456 0.28629 0.0
C541 C 0.18472 0.07189 0.30465 0.0
C542 C 0.27093 0.04322 0.22948 0.0
C543 C 0.30247 0.04558 0.23582 0.0
C544 C 0.248 0.04124 0.24726 0.0
C545 C 0.25605 0.04199 0.27181 0.0
C546 C 0.28778 0.04222 0.27798 0.0
C547 C 0.31064 0.04379 0.26024 0.0
H548 H 0.43576 0.27693 0.71706 0.0
H549 H 0.40404 0.34397 0.76925 0.0
H550 H 0.44409 0.23915 0.74924 0.0
H551 H 0.41107 0.30621 0.80101 0.0
H552 H 0.43662 0.23728 0.85782 0.0
H553 H 0.44351 0.2756 0.82581 0.0
H554 H 0.41218 0.20807 0.77375 0.0
H555 H 0.40655 0.1699 0.80529 0.0
C556 C 0.43084 0.28372 0.73538 0.0
C557 C 0.41893 0.31339 0.74048 0.0
C558 C 0.43539 0.26199 0.75385 0.0
C559 C 0.42794 0.26939 0.77783 0.0
C560 C 0.41746 0.29961 0.78294 0.0
C561 C 0.41314 0.32129 0.76457 0.0
C562 C 0.43172 0.23056 0.83947 0.0
C563 C 0.42077 0.20059 0.83421 0.0
C564 C 0.43546 0.25257 0.8211 0.0
C565 C 0.42819 0.24513 0.79707 0.0
C566 C 0.41848 0.21471 0.79185 0.0
C567 C 0.41494 0.19279 0.8101 0.0
H568 H 0.16987 0.42216 0.26119 0.0
H569 H 0.24319 0.4344 0.2092 0.0
H570 H 0.20732 0.42636 0.29355 0.0
H571 H 0.28084 0.43987 0.24184 0.0
H572 H 0.33991 0.39568 0.3021 0.0
H573 H 0.30433 0.40506 0.26923 0.0
H574 H 0.24317 0.45528 0.31697 0.0
H575 H 0.27873 0.44481 0.3504 0.0
C576 C 0.19395 0.42644 0.25663 0.0
C577 C 0.20355 0.42747 0.23252 0.0
C578 C 0.2155 0.42913 0.27531 0.0
C579 C 0.2473 0.43312 0.27045 0.0
C580 C 0.25664 0.43615 0.24631 0.0
C581 C 0.23503 0.43326 0.22755 0.0
C582 C 0.31904 0.40901 0.30566 0.0
C583 C 0.31205 0.41917 0.32903 0.0
C584 C 0.29868 0.41469 0.28662 0.0
C585 C 0.27068 0.43089 0.29029 0.0
C586 C 0.26429 0.44232 0.31349 0.0
C587 C 0.28474 0.4365 0.33266 0.0
H588 H 0.07362 0.23492 0.71105 0.0
H589 H 0.03241 0.16285 0.75451 0.0
H590 H 0.06755 0.27161 0.7439 0.0
H591 H 0.02555 0.19979 0.78722 0.0
H592 H 0.06591 0.26107 0.84881 0.0
H593 H 0.05905 0.2249 0.81558 0.0
H594 H 0.03393 0.30129 0.76901 0.0
H595 H 0.04167 0.33745 0.80208 0.0
C596 C 0.0625 0.22708 0.72739 0.0
C597 C 0.05374 0.19585 0.73017 0.0
C598 C 0.05892 0.24819 0.74628 0.0
C599 C 0.04631 0.23866 0.7684 0.0
C600 C 0.03591 0.20783 0.77066 0.0
C601 C 0.03962 0.18669 0.7518 0.0
C602 C 0.05829 0.27005 0.83162 0.0
C603 C 0.05464 0.30217 0.82805 0.0
C604 C 0.05428 0.24929 0.81251 0.0
C605 C 0.0463 0.26016 0.78944 0.0
C606 C 0.04075 0.29212 0.78634 0.0
C607 C 0.04497 0.31286 0.80538 0.0
H608 H 0.73372 0.94527 0.85594 0.0
H609 H 0.66313 0.9232 0.80345 0.0
H610 H 0.77157 0.95198 0.82369 0.0
H611 H 0.70086 0.92876 0.77151 0.0
H612 H 0.77132 0.94975 0.71502 0.0
H613 H 0.73458 0.95968 0.74765 0.0
H614 H 0.79859 0.91747 0.79794 0.0
H615 H 0.83529 0.90862 0.76579 0.0
C616 C 0.72617 0.94224 0.83755 0.0
C617 C 0.69547 0.93332 0.83235 0.0
C618 C 0.74791 0.94586 0.81902 0.0
C619 C 0.73947 0.94054 0.7949 0.0
C620 C 0.70829 0.93338 0.78974 0.0
C621 C 0.68662 0.9299 0.80818 0.0
C622 C 0.7777 0.94316 0.73313 0.0
C623 C 0.80612 0.92811 0.73771 0.0
C624 C 0.75657 0.94865 0.75184 0.0
C625 C 0.76341 0.93917 0.77551 0.0
C626 C 0.79252 0.92551 0.78012 0.0
C627 C 0.81355 0.92013 0.76153 0.0
H628 H 0.58017 0.65663 0.29879 0.0
H629 H 0.54902 0.72071 0.35332 0.0
H630 H 0.57196 0.69581 0.26827 0.0
H631 H 0.53938 0.7599 0.32241 0.0
H632 H 0.57819 0.83192 0.26865 0.0
H633 H 0.57085 0.79245 0.29899 0.0
H634 H 0.54012 0.72792 0.24449 0.0
H635 H 0.54888 0.76748 0.21373 0.0
C636 C 0.57084 0.67892 0.30424 0.0
C637 C 0.56572 0.68563 0.32862 0.0
C638 C 0.56582 0.70144 0.28659 0.0
C639 C 0.55529 0.73133 0.29273 0.0
C640 C 0.54816 0.73738 0.31699 0.0
C641 C 0.55342 0.71483 0.33474 0.0
C642 C 0.56947 0.80946 0.26306 0.0
C643 C 0.56457 0.80279 0.23864 0.0
C644 C 0.56494 0.78677 0.28062 0.0
C645 C 0.55512 0.7567 0.27434 0.0
C646 C 0.54832 0.75059 0.25002 0.0
C647 C 0.55309 0.77335 0.23235 0.0
H648 H 0.83638 0.57112 0.80498 0.0
H649 H 0.76547 0.54738 0.85656 0.0
H650 H 0.79931 0.565 0.77259 0.0
H651 H 0.72828 0.53997 0.8238 0.0
H652 H 0.66442 0.58259 0.76545 0.0
H653 H 0.7007 0.57367 0.79797 0.0
H654 H 0.76664 0.53449 0.74793 0.0
H655 H 0.73033 0.54462 0.71495 0.0
C656 C 0.81298 0.56388 0.80941 0.0
C657 C 0.80383 0.5602 0.83347 0.0
C658 C 0.79166 0.56008 0.79069 0.0
C659 C 0.76054 0.5523 0.79543 0.0
C660 C 0.75188 0.5466 0.81944 0.0
C661 C 0.77326 0.55057 0.83826 0.0
C662 C 0.6865 0.57172 0.76131 0.0
C663 C 0.69458 0.56472 0.73747 0.0
C664 C 0.70731 0.56629 0.78013 0.0
C665 C 0.73685 0.5535 0.77573 0.0
C666 C 0.74432 0.54488 0.752 0.0
C667 C 0.72343 0.55047 0.73307 0.0
H668 H 0.93177 0.76971 0.3516 0.0
H669 H 0.95322 0.84577 0.3039 0.0
H670 H 0.93811 0.73321 0.31853 0.0
H671 H 0.96039 0.80928 0.27098 0.0
H672 H 0.92132 0.7411 0.21384 0.0
H673 H 0.92703 0.77852 0.24633 0.0
H674 H 0.97135 0.70828 0.29009 0.0
H675 H 0.96487 0.67069 0.25781 0.0
C676 C 0.93866 0.77857 0.33422 0.0
C677 C 0.94173 0.81069 0.33038 0.0
C678 C 0.94236 0.75761 0.31518 0.0
C679 C 0.9494 0.76826 0.29189 0.0
C680 C 0.95429 0.80026 0.28848 0.0
C681 C 0.95042 0.82118 0.30745 0.0
C682 C 0.93287 0.73381 0.2302 0.0
C683 C 0.94242 0.70282 0.23325 0.0
C684 C 0.93622 0.75532 0.24889 0.0
C685 C 0.94938 0.74641 0.27105 0.0
C686 C 0.96052 0.71584 0.27353 0.0
C687 C 0.95703 0.69433 0.2549 0.0
H688 H 0.4844 0.09669 0.16817 0.0
H689 H 0.42869 0.02974 0.2066 0.0
H690 H 0.52915 0.06194 0.17094 0.0
H691 H 0.47282 0.99467 0.20857 0.0
H692 H 0.55803 0.93733 0.21626 0.0
H693 H 0.52303 0.98122 0.22282 0.0
H694 H 0.54337 0.01518 0.15156 0.0
H695 H 0.57897 0.97223 0.14543 0.0
C696 C 0.48177 0.07474 0.17745 0.0
C697 C 0.45282 0.06587 0.18687 0.0
C698 C 0.50739 0.05469 0.17891 0.0
C699 C 0.5046 0.02522 0.18968 0.0
C700 C 0.47609 0.01722 0.20034 0.0
C701 C 0.45059 0.03733 0.19905 0.0
C702 C 0.55551 0.95455 0.20221 0.0
C703 C 0.57102 0.95102 0.1802 0.0
C704 C 0.53525 0.97962 0.2059 0.0
C705 C 0.52994 0.00163 0.18761 0.0
C706 C 0.54698 0.999 0.16619 0.0
C707 C 0.56732 0.97411 0.16258 0.0
H708 H 0.58084 0.5018 0.70618 0.0
H709 H 0.54077 0.58377 0.67366 0.0
H710 H 0.53017 0.47722 0.70661 0.0
H711 H 0.48943 0.55908 0.67438 0.0
H712 H 0.42195 0.48014 0.64583 0.0
H713 H 0.46524 0.51564 0.65244 0.0
H714 H 0.47839 0.47769 0.72351 0.0
H715 H 0.43559 0.44173 0.71673 0.0
C716 C 0.56106 0.51481 0.69947 0.0
C717 C 0.5649 0.54465 0.68971 0.0
C718 C 0.53186 0.50078 0.69991 0.0
C719 C 0.50565 0.51615 0.69053 0.0
C720 C 0.50921 0.54654 0.68158 0.0
C721 C 0.53855 0.56074 0.6813 0.0
C722 C 0.43359 0.47985 0.66308 0.0
C723 C 0.42565 0.45771 0.68059 0.0
C724 C 0.45838 0.50032 0.66691 0.0
C725 C 0.47565 0.49914 0.68836 0.0
C726 C 0.46601 0.47873 0.70658 0.0
C727 C 0.44136 0.45821 0.70273 0.0
H728 H 0.08773 0.48314 0.13508 0.0
H729 H 0.06106 0.43775 0.20108 0.0
H730 H 0.04676 0.52116 0.14051 0.0
H731 H 0.01947 0.47658 0.20656 0.0
H732 H 0.93178 0.54474 0.18718 0.0
H733 H 0.96787 0.50026 0.18538 0.0
H734 H 0.04403 0.56327 0.17265 0.0
H735 H 0.00866 0.60708 0.1743 0.0
C736 C 0.07295 0.48111 0.15072 0.0
C737 C 0.07802 0.45772 0.16788 0.0
C738 C 0.04946 0.50298 0.15382 0.0
C739 C 0.03035 0.50216 0.17418 0.0
C740 C 0.034 0.47773 0.19073 0.0
C741 C 0.05776 0.45561 0.18762 0.0
C742 C 0.95631 0.54898 0.1843 0.0
C743 C 0.96728 0.57938 0.18047 0.0
C744 C 0.97689 0.52359 0.18334 0.0
C745 C 0.0086 0.52836 0.17845 0.0
C746 C 0.01961 0.55886 0.17594 0.0
C747 C 0.99927 0.58399 0.17692 0.0
H748 H 0.91926 0.9924 0.71375 0.0
H749 H 0.96081 0.91719 0.6737 0.0
H750 H 0.96814 0.02039 0.71291 0.0
H751 H 0.01033 0.94517 0.67322 0.0
H752 H 0.0652 0.03075 0.64228 0.0
H753 H 0.02678 0.9913 0.6516 0.0
H754 H 0.02212 0.02469 0.72459 0.0
H755 H 0.06022 0.06485 0.71507 0.0
C756 C 0.93907 0.98152 0.70518 0.0
C757 C 0.93602 0.95277 0.69347 0.0
C758 C 0.96727 0.99749 0.7049 0.0
C759 C 0.99318 0.98517 0.69284 0.0
C760 C 0.9907 0.95548 0.68241 0.0
C761 C 0.9624 0.93937 0.68279 0.0
C762 C 0.05648 0.02935 0.66047 0.0
C763 C 0.06539 0.05134 0.67781 0.0
C764 C 0.03456 0.00649 0.66587 0.0
C765 C 0.02102 0.00503 0.68877 0.0
C766 C 0.03171 0.02553 0.70665 0.0
C767 C 0.05368 0.04844 0.70123 0.0
H768 H 0.57234 0.52277 0.42384 0.0
H769 H 0.56768 0.5544 0.35032 0.0
H770 H 0.53357 0.48327 0.41514 0.0
H771 H 0.52935 0.5143 0.34148 0.0
H772 H 0.42612 0.48426 0.35217 0.0
H773 H 0.47538 0.51158 0.3531 0.0
H774 H 0.51611 0.43667 0.39424 0.0
H775 H 0.46619 0.40936 0.39362 0.0
C776 C 0.56369 0.52078 0.40564 0.0
C777 C 0.57268 0.54219 0.38791 0.0
C778 C 0.54154 0.49793 0.40061 0.0
C779 C 0.52793 0.49591 0.37769 0.0
C780 C 0.5389 0.51563 0.35945 0.0
C781 C 0.56101 0.53853 0.36449 0.0
C782 C 0.4457 0.47329 0.36106 0.0
C783 C 0.44213 0.44481 0.37306 0.0
C784 C 0.47411 0.48887 0.36142 0.0
C785 C 0.49974 0.47644 0.37387 0.0
C786 C 0.49672 0.44704 0.38472 0.0
C787 C 0.4682 0.4313 0.38423 0.0
H788 H 0.07957 0.45627 0.89274 0.0
H789 H 0.99748 0.4118 0.86431 0.0
H790 H 0.05167 0.50612 0.89369 0.0
H791 H 0.96991 0.46113 0.8651 0.0
H792 H 0.92899 0.55428 0.8571 0.0
H793 H 0.9678 0.51466 0.84804 0.0
H794 H 0.00642 0.52468 0.91915 0.0
H795 H 0.96775 0.56446 0.92827 0.0
C796 C 0.05585 0.45729 0.88622 0.0
C797 C 0.0406 0.43016 0.8786 0.0
C798 C 0.03986 0.48573 0.88687 0.0
C799 C 0.0086 0.48755 0.87945 0.0
C800 C 0.99406 0.46065 0.87065 0.0
C801 C 0.00979 0.4323 0.87037 0.0
C802 C 0.9462 0.54864 0.87064 0.0
C803 C 0.94488 0.56217 0.89358 0.0
C804 C 0.96838 0.52584 0.86544 0.0
C805 C 0.98986 0.51623 0.883 0.0
C806 C 0.99026 0.53165 0.90522 0.0
C807 C 0.96795 0.55435 0.91048 0.0
H808 H 0.9454 0.93979 0.3571 0.0
H809 H 0.90767 0.97801 0.42258 0.0
H810 H 0.98478 0.98048 0.35653 0.0
H811 H 0.94685 0.01885 0.42179 0.0
H812 H 0.05274 0.03758 0.43407 0.0
H813 H 0.00297 0.01162 0.42988 0.0
H814 H 0.99965 0.03724 0.35497 0.0
H815 H 0.05004 0.06364 0.35928 0.0
C816 C 0.94492 0.95735 0.37101 0.0
C817 C 0.92377 0.95523 0.39017 0.0
C818 C 0.96743 0.9808 0.37059 0.0
C819 C 0.96924 0.00256 0.38934 0.0
C820 C 0.94635 0.00206 0.40731 0.0
C821 C 0.92383 0.97869 0.40771 0.0
C822 C 0.04121 0.03815 0.41677 0.0
C823 C 0.05536 0.05242 0.39696 0.0
C824 C 0.0125 0.02349 0.41441 0.0
C825 C 0.99731 0.02239 0.39209 0.0
C826 C 0.01088 0.03767 0.37238 0.0
C827 C 0.03957 0.05286 0.37486 0.0
H828 H 0.58957 0.00777 0.88154 0.0
H829 H 0.54056 0.92021 0.88049 0.0
H830 H 0.54095 0.03537 0.87678 0.0
H831 H 0.49124 0.94822 0.87514 0.0
H832 H 0.41244 0.0176 0.90222 0.0
H833 H 0.45703 0.98251 0.89869 0.0
H834 H 0.50005 0.04617 0.84887 0.0
H835 H 0.45619 0.08153 0.8531 0.0
C836 C 0.56839 0.99432 0.87999 0.0
C837 C 0.56898 0.96175 0.88148 0.0
C838 C 0.54041 0.01021 0.87701 0.0
C839 C 0.51212 0.99405 0.87535 0.0
C840 C 0.51263 0.96136 0.87645 0.0
C841 C 0.54085 0.94534 0.87939 0.0
C842 C 0.43111 0.02367 0.89009 0.0
C843 C 0.43113 0.05251 0.87825 0.0
C844 C 0.45665 0.00355 0.88803 0.0
C845 C 0.48245 0.01186 0.87391 0.0
C846 C 0.48099 0.03946 0.86043 0.0
C847 C 0.45577 0.05965 0.86273 0.0
loop_
_geom_bond_atom_site_label_1
_geom_bond_atom_site_label_2
_geom_bond_distance
_geom_bond_site_symmetry_2
_ccdc_geom_bond_type
Mg0 O7 2.141 . S
Mg0 O8 2.048 . S
Mg0 O9 2.048 . S
Mg0 O12 2.141 . S
C1 O2 1.313 . S
C1 O8 1.195 . S
O2 C1 1.313 . S
C3 O4 1.245 . S
C3 O12 1.289 . S
O4 C3 1.245 . S
C5 O6 1.245 . S
C5 O7 1.289 . S
O6 C5 1.245 . S
O7 Mg0 2.141 . S
O7 C5 1.289 . S
O8 Mg0 2.048 . S
O8 C1 1.195 . S
O9 Mg0 2.048 . S
O9 C10 1.195 . S
C10 O9 1.195 . S
C10 O11 1.313 . S
O11 C10 1.313 . S
O12 Mg0 2.141 . S
O12 C3 1.289 . S
Mg13 O20 2.141 . S
Mg13 O21 2.048 . S
Mg13 O22 2.048 . S
Mg13 O25 2.141 . S
C14 O15 1.313 . S
C14 O21 1.195 . S
O15 C14 1.313 . S
C16 O17 1.245 . S
C16 O25 1.289 . S
O17 C16 1.245 . S
C18 O19 1.245 . S
C18 O20 1.289 . S
O19 C18 1.245 . S
O20 Mg13 2.141 . S
O20 C18 1.289 . S
O21 Mg13 2.048 . S
O21 C14 1.195 . S
O22 Mg13 2.048 . S
O22 C23 1.195 . S
C23 O22 1.195 . S
C23 O24 1.313 . S
O24 C23 1.313 . S
O25 Mg13 2.141 . S
O25 C16 1.289 . S
Mg26 O33 2.141 . S
Mg26 O34 2.048 . S
Mg26 O35 2.048 . S
Mg26 O38 2.141 . S
C27 O28 1.313 . S
C27 O34 1.195 . S
O28 C27 1.313 . S
C29 O30 1.245 . S
C29 O38 1.289 . S
O30 C29 1.245 . S
C31 O32 1.245 . S
C31 O33 1.289 . S
O32 C31 1.245 . S
O33 Mg26 2.141 . S
O33 C31 1.289 . S
O34 Mg26 2.048 . S
O34 C27 1.195 . S
O35 Mg26 2.048 . S
O35 C36 1.195 . S
C36 O35 1.195 . S
C36 O37 1.313 . S
O37 C36 1.313 . S
O38 Mg26 2.141 . S
O38 C29 1.289 . S
Mg39 O46 2.141 . S
Mg39 O47 2.048 . S
Mg39 O48 2.048 . S
Mg39 O51 2.141 . S
C40 O41 1.313 . S
C40 O47 1.195 . S
O41 C40 1.313 . S
C42 O43 1.245 . S
C42 O51 1.289 . S
O43 C42 1.245 . S
C44 O45 1.245 . S
C44 O46 1.289 . S
O45 C44 1.245 . S
O46 Mg39 2.141 . S
O46 C44 1.289 . S
O47 Mg39 2.048 . S
O47 C40 1.195 . S
O48 Mg39 2.048 . S
O48 C49 1.195 . S
C49 O48 1.195 . S
C49 O50 1.313 . S
O50 C49 1.313 . S
O51 Mg39 2.141 . S
O51 C42 1.289 . S
Mg52 O59 2.141 . S
Mg52 O60 2.048 . S
Mg52 O61 2.048 . S
Mg52 O64 2.141 . S
C53 O54 1.313 . S
C53 O60 1.195 . S
O54 C53 1.313 . S
C55 O56 1.245 . S
C55 O64 1.289 . S
O56 C55 1.245 . S
C57 O58 1.245 . S
C57 O59 1.289 . S
O58 C57 1.245 . S
O59 Mg52 2.141 . S
O59 C57 1.289 . S
O60 Mg52 2.048 . S
O60 C53 1.195 . S
O61 Mg52 2.048 . S
O61 C62 1.195 . S
C62 O61 1.195 . S
C62 O63 1.313 . S
O63 C62 1.313 . S
O64 Mg52 2.141 . S
O64 C55 1.289 . S
Mg65 O72 2.141 . S
Mg65 O73 2.048 . S
Mg65 O74 2.048 . S
Mg65 O77 2.141 . S
C66 O67 1.313 . S
C66 O73 1.195 . S
O67 C66 1.313 . S
C68 O69 1.245 . S
C68 O77 1.289 . S
O69 C68 1.245 . S
C70 O71 1.245 . S
C70 O72 1.289 . S
O71 C70 1.245 . S
O72 Mg65 2.141 . S
O72 C70 1.289 . S
O73 Mg65 2.048 . S
O73 C66 1.195 . S
O74 Mg65 2.048 . S
O74 C75 1.195 . S
C75 O74 1.195 . S
C75 O76 1.313 . S
O76 C75 1.313 . S
O77 Mg65 2.141 . S
O77 C68 1.289 . S
Mg78 O85 2.141 . S
Mg78 O86 2.048 . S
Mg78 O87 2.048 . S
Mg78 O90 2.141 . S
C79 O80 1.313 . S
C79 O86 1.195 . S
O80 C79 1.313 . S
C81 O82 1.245 . S
C81 O90 1.289 . S
O82 C81 1.245 . S
C83 O84 1.245 . S
C83 O85 1.289 . S
O84 C83 1.245 . S
O85 Mg78 2.141 . S
O85 C83 1.289 . S
O86 Mg78 2.048 . S
O86 C79 1.195 . S
O87 Mg78 2.048 . S
O87 C88 1.195 . S
C88 O87 1.195 . S
C88 O89 1.313 . S
O89 C88 1.313 . S
O90 Mg78 2.141 . S
O90 C81 1.289 . S
Mg91 O98 2.141 . S
Mg91 O99 2.048 . S
Mg91 O100 2.048 . S
Mg91 O103 2.141 . S
C92 O93 1.313 . S
C92 O99 1.195 . S
O93 C92 1.313 . S
C94 O95 1.245 . S
C94 O103 1.289 . S
O95 C94 1.245 . S
C96 O97 1.245 . S
C96 O98 1.289 . S
O97 C96 1.245 . S
O98 Mg91 2.141 . S
O98 C96 1.289 . S
O99 Mg91 2.048 . S
O99 C92 1.195 . S
O100 Mg91 2.048 . S
O100 C101 1.195 . S
C101 O100 1.195 . S
C101 O102 1.313 . S
O102 C101 1.313 . S
O103 Mg91 2.141 . S
O103 C94 1.289 . S
Mg104 O111 2.141 . S
Mg104 O112 2.048 . S
Mg104 O113 2.048 . S
Mg104 O116 2.141 . S
C105 O106 1.313 . S
C105 O112 1.195 . S
O106 C105 1.313 . S
C107 O108 1.245 . S
C107 O116 1.289 . S
O108 C107 1.245 . S
C109 O110 1.245 . S
C109 O111 1.289 . S
O110 C109 1.245 . S
O111 Mg104 2.141 . S
O111 C109 1.289 . S
O112 Mg104 2.048 . S
O112 C105 1.195 . S
O113 Mg104 2.048 . S
O113 C114 1.195 . S
C114 O113 1.195 . S
C114 O115 1.313 . S
O115 C114 1.313 . S
O116 Mg104 2.141 . S
O116 C107 1.289 . S
Mg117 O124 2.141 . S
Mg117 O125 2.048 . S
Mg117 O126 2.048 . S
Mg117 O129 2.141 . S
C118 O119 1.313 . S
C118 O125 1.195 . S
O119 C118 1.313 . S
C120 O121 1.245 . S
C120 O129 1.289 . S
O121 C120 1.245 . S
C122 O123 1.245 . S
C122 O124 1.289 . S
O123 C122 1.245 . S
O124 Mg117 2.141 . S
O124 C122 1.289 . S
O125 Mg117 2.048 . S
O125 C118 1.195 . S
O126 Mg117 2.048 . S
O126 C127 1.195 . S
C127 O126 1.195 . S
C127 O128 1.313 . S
O128 C127 1.313 . S
O129 Mg117 2.141 . S
O129 C120 1.289 . S
Mg130 O137 2.141 . S
Mg130 O138 2.048 . S
Mg130 O139 2.048 . S
Mg130 O142 2.141 . S
C131 O132 1.313 . S
C131 O138 1.195 . S
O132 C131 1.313 . S
C133 O134 1.245 . S
C133 O142 1.289 . S
O134 C133 1.245 . S
C135 O136 1.245 . S
C135 O137 1.289 . S
O136 C135 1.245 . S
O137 Mg130 2.141 . S
O137 C135 1.289 . S
O138 Mg130 2.048 . S
O138 C131 1.195 . S
O139 Mg130 2.048 . S
O139 C140 1.195 . S
C140 O139 1.195 . S
C140 O141 1.313 . S
O141 C140 1.313 . S
O142 Mg130 2.141 . S
O142 C133 1.289 . S
Mg143 O150 2.141 . S
Mg143 O151 2.048 . S
Mg143 O152 2.048 . S
Mg143 O155 2.141 . S
C144 O145 1.313 . S
C144 O151 1.195 . S
O145 C144 1.313 . S
C146 O147 1.245 . S
C146 O155 1.289 . S
O147 C146 1.245 . S
C148 O149 1.245 . S
C148 O150 1.289 . S
O149 C148 1.245 . S
O150 Mg143 2.141 . S
O150 C148 1.289 . S
O151 Mg143 2.048 . S
O151 C144 1.195 . S
O152 Mg143 2.048 . S
O152 C153 1.195 . S
C153 O152 1.195 . S
C153 O154 1.313 . S
O154 C153 1.313 . S
O155 Mg143 2.141 . S
O155 C146 1.289 . S
Mg156 O163 2.141 . S
Mg156 O164 2.048 . S
Mg156 O165 2.048 . S
Mg156 O168 2.141 . S
C157 O158 1.313 . S
C157 O164 1.195 . S
O158 C157 1.313 . S
C159 O160 1.245 . S
C159 O168 1.289 . S
O160 C159 1.245 . S
C161 O162 1.245 . S
C161 O163 1.289 . S
O162 C161 1.245 . S
O163 Mg156 2.141 . S
O163 C161 1.289 . S
O164 Mg156 2.048 . S
O164 C157 1.195 . S
O165 Mg156 2.048 . S
O165 C166 1.195 . S
C166 O165 1.195 . S
C166 O167 1.313 . S
O167 C166 1.313 . S
O168 Mg156 2.141 . S
O168 C159 1.289 . S
Mg169 O176 2.141 . S
Mg169 O177 2.048 . S
Mg169 O178 2.048 . S
Mg169 O181 2.141 . S
C170 O171 1.313 . S
C170 O177 1.195 . S
O171 C170 1.313 . S
C172 O173 1.245 . S
C172 O181 1.289 . S
O173 C172 1.245 . S
C174 O175 1.245 . S
C174 O176 1.289 . S
O175 C174 1.245 . S
O176 Mg169 2.141 . S
O176 C174 1.289 . S
O177 Mg169 2.048 . S
O177 C170 1.195 . S
O178 Mg169 2.048 . S
O178 C179 1.195 . S
C179 O178 1.195 . S
C179 O180 1.313 . S
O180 C179 1.313 . S
O181 Mg169 2.141 . S
O181 C172 1.289 . S
Mg182 O189 2.141 . S
Mg182 O190 2.048 . S
Mg182 O191 2.048 . S
Mg182 O194 2.141 . S
C183 O184 1.313 . S
C183 O190 1.195 . S
O184 C183 1.313 . S
C185 O186 1.245 . S
C185 O194 1.289 . S
O186 C185 1.245 . S
C187 O188 1.245 . S
C187 O189 1.289 . S
O188 C187 1.245 . S
O189 Mg182 2.141 . S
O189 C187 1.289 . S
O190 Mg182 2.048 . S
O190 C183 1.195 . S
O191 Mg182 2.048 . S
O191 C192 1.195 . S
C192 O191 1.195 . S
C192 O193 1.313 . S
O193 C192 1.313 . S
O194 Mg182 2.141 . S
O194 C185 1.289 . S
Mg195 O202 2.141 . S
Mg195 O203 2.048 . S
Mg195 O204 2.048 . S
Mg195 O207 2.141 . S
C196 O197 1.313 . S
C196 O203 1.195 . S
O197 C196 1.313 . S
C198 O199 1.245 . S
C198 O207 1.289 . S
O199 C198 1.245 . S
C200 O201 1.245 . S
C200 O202 1.289 . S
O201 C200 1.245 . S
O202 Mg195 2.141 . S
O202 C200 1.289 . S
O203 Mg195 2.048 . S
O203 C196 1.195 . S
O204 Mg195 2.048 . S
O204 C205 1.195 . S
C205 O204 1.195 . S
C205 O206 1.313 . S
O206 C205 1.313 . S
O207 Mg195 2.141 . S
O207 C198 1.289 . S
H208 C216 0.950 . S
H209 C221 0.950 . S
H210 C218 0.950 . S
H211 C220 0.950 . S
H212 C222 0.950 . S
H213 C224 0.950 . S
H214 C226 0.950 . S
H215 C227 0.950 . S
C216 H208 0.950 . S
C216 C217 1.386 . S
C216 C218 1.391 . S
C217 C216 1.386 . S
C217 C221 1.393 . S
C218 H210 0.950 . S
C218 C216 1.391 . S
C218 C219 1.400 . S
C219 C218 1.400 . S
C219 C220 1.398 . S
C219 C225 1.491 1_556 S
C220 H211 0.950 . S
C220 C219 1.398 . S
C220 C221 1.391 . S
C221 H209 0.950 . S
C221 C217 1.393 . S
C221 C220 1.391 . S
C222 H212 0.950 . S
C222 C223 1.386 . S
C222 C224 1.391 . S
C223 C222 1.386 . S
C223 C227 1.393 . S
C224 H213 0.950 . S
C224 C222 1.391 . S
C224 C225 1.400 . S
C225 C219 1.491 1_554 S
C225 C224 1.400 . S
C225 C226 1.398 . S
C226 H214 0.950 . S
C226 C225 1.398 . S
C226 C227 1.391 . S
C227 H215 0.950 . S
C227 C223 1.393 . S
C227 C226 1.391 . S
H228 C236 0.950 . S
H229 C241 0.950 . S
H230 C238 0.950 . S
H231 C240 0.950 . S
H232 C242 0.950 . S
H233 C244 0.950 . S
H234 C246 0.950 . S
H235 C247 0.950 . S
C236 H228 0.950 . S
C236 C237 1.386 . S
C236 C238 1.391 . S
C237 C236 1.386 . S
C237 C241 1.393 . S
C238 H230 0.950 . S
C238 C236 1.391 . S
C238 C239 1.400 . S
C239 C238 1.400 . S
C239 C240 1.398 . S
C239 C245 1.491 . S
C240 H231 0.950 . S
C240 C239 1.398 . S
C240 C241 1.391 . S
C241 H229 0.950 . S
C241 C237 1.393 . S
C241 C240 1.391 . S
C242 H232 0.950 . S
C242 C243 1.386 . S
C242 C244 1.391 . S
C243 C242 1.386 . S
C243 C247 1.393 . S
C244 H233 0.950 . S
C244 C242 1.391 . S
C244 C245 1.400 . S
C245 C239 1.491 . S
C245 C244 1.400 . S
C245 C246 1.398 . S
C246 H234 0.950 . S
C246 C245 1.398 . S
C246 C247 1.391 . S
C247 H235 0.950 . S
C247 C243 1.393 . S
C247 C246 1.391 . S
H248 C256 0.950 . S
H249 C261 0.950 . S
H250 C258 0.950 . S
H251 C260 0.950 1_554 S
H252 C262 0.950 . S
H253 C264 0.950 . S
H254 C266 0.950 1_556 S
H255 C267 0.950 . S
C256 H248 0.950 . S
C256 C257 1.386 . S
C256 C258 1.391 . S
C257 C256 1.386 . S
C257 C261 1.393 . S
C258 H250 0.950 . S
C258 C256 1.391 . S
C258 C259 1.400 . S
C259 C258 1.400 . S
C259 C260 1.398 . S
C259 C265 1.491 1_556 S
C260 H251 0.950 1_556 S
C260 C259 1.398 . S
C260 C261 1.391 . S
C261 H249 0.950 . S
C261 C257 1.393 . S
C261 C260 1.391 . S
C262 H252 0.950 . S
C262 C263 1.386 . S
C262 C264 1.391 . S
C263 C262 1.386 . S
C263 C267 1.393 . S
C264 H253 0.950 . S
C264 C262 1.391 . S
C264 C265 1.400 . S
C265 C259 1.491 1_554 S
C265 C264 1.400 . S
C265 C266 1.398 . S
C266 H254 0.950 1_554 S
C266 C265 1.398 . S
C266 C267 1.391 . S
C267 H255 0.950 . S
C267 C263 1.393 . S
C267 C266 1.391 . S
H268 C276 0.950 . S
H269 C281 0.950 . S
H270 C278 0.950 . S
H271 C280 0.950 . S
H272 C282 0.950 . S
H273 C284 0.950 . S
H274 C286 0.950 . S
H275 C287 0.950 . S
C276 H268 0.950 . S
C276 C277 1.386 . S
C276 C278 1.391 . S
C277 C276 1.386 . S
C277 C281 1.393 . S
C278 H270 0.950 . S
C278 C276 1.391 . S
C278 C279 1.400 . S
C279 C278 1.400 . S
C279 C280 1.398 . S
C279 C285 1.491 . S
C280 H271 0.950 . S
C280 C279 1.398 . S
C280 C281 1.391 . S
C281 H269 0.950 . S
C281 C277 1.393 . S
C281 C280 1.391 . S
C282 H272 0.950 . S
C282 C283 1.386 . S
C282 C284 1.391 . S
C283 C282 1.386 . S
C283 C287 1.393 . S
C284 H273 0.950 . S
C284 C282 1.391 . S
C284 C285 1.400 . S
C285 C279 1.491 . S
C285 C284 1.400 . S
C285 C286 1.398 . S
C286 H274 0.950 . S
C286 C285 1.398 . S
C286 C287 1.391 . S
C287 H275 0.950 . S
C287 C283 1.393 . S
C287 C286 1.391 . S
H288 C296 0.950 . S
H289 C301 0.950 . S
H290 C298 0.950 . S
H291 C300 0.950 . S
H292 C302 0.950 . S
H293 C304 0.950 . S
H294 C306 0.950 . S
H295 C307 0.950 . S
C296 H288 0.950 . S
C296 C297 1.386 . S
C296 C298 1.391 . S
C297 C296 1.386 . S
C297 C301 1.393 . S
C298 H290 0.950 . S
C298 C296 1.391 . S
C298 C299 1.400 . S
C299 C298 1.400 . S
C299 C300 1.398 . S
C299 C305 1.491 1_554 S
C300 H291 0.950 . S
C300 C299 1.398 . S
C300 C301 1.391 . S
C301 H289 0.950 . S
C301 C297 1.393 . S
C301 C300 1.391 . S
C302 H292 0.950 . S
C302 C303 1.386 . S
C302 C304 1.391 . S
C303 C302 1.386 . S
C303 C307 1.393 . S
C304 H293 0.950 . S
C304 C302 1.391 . S
C304 C305 1.400 . S
C305 C299 1.491 1_556 S
C305 C304 1.400 . S
C305 C306 1.398 . S
C306 H294 0.950 . S
C306 C305 1.398 . S
C306 C307 1.391 . S
C307 H295 0.950 . S
C307 C303 1.393 . S
C307 C306 1.391 . S
H308 C316 0.950 . S
H309 C321 0.950 . S
H310 C318 0.950 . S
H311 C320 0.950 . S
H312 C322 0.950 . S
H313 C324 0.950 . S
H314 C326 0.950 . S
H315 C327 0.950 . S
C316 H308 0.950 . S
C316 C317 1.386 . S
C316 C318 1.391 . S
C317 C316 1.386 . S
C317 C321 1.393 . S
C318 H310 0.950 . S
C318 C316 1.391 . S
C318 C319 1.400 . S
C319 C318 1.400 . S
C319 C320 1.398 . S
C319 C325 1.491 . S
C320 H311 0.950 . S
C320 C319 1.398 . S
C320 C321 1.391 . S
C321 H309 0.950 . S
C321 C317 1.393 . S
C321 C320 1.391 . S
C322 H312 0.950 . S
C322 C323 1.386 . S
C322 C324 1.391 . S
C323 C322 1.386 . S
C323 C327 1.393 . S
C324 H313 0.950 . S
C324 C322 1.391 . S
C324 C325 1.400 . S
C325 C319 1.491 . S
C325 C324 1.400 . S
C325 C326 1.398 . S
C326 H314 0.950 . S
C326 C325 1.398 . S
C326 C327 1.391 . S
C327 H315 0.950 . S
C327 C323 1.393 . S
C327 C326 1.391 . S
H328 C336 0.950 . S
H329 C341 0.950 . S
H330 C338 0.950 . S
H331 C340 0.950 1_554 S
H332 C342 0.950 . S
H333 C344 0.950 . S
H334 C346 0.950 1_556 S
H335 C347 0.950 . S
C336 H328 0.950 . S
C336 C337 1.386 . S
C336 C338 1.391 . S
C337 C336 1.386 . S
C337 C341 1.393 . S
C338 H330 0.950 . S
C338 C336 1.391 . S
C338 C339 1.400 . S
C339 C338 1.400 . S
C339 C340 1.398 . S
C339 C345 1.491 1_556 S
C340 H331 0.950 1_556 S
C340 C339 1.398 . S
C340 C341 1.391 . S
C341 H329 0.950 . S
C341 C337 1.393 . S
C341 C340 1.391 . S
C342 H332 0.950 . S
C342 C343 1.386 . S
C342 C344 1.391 . S
C343 C342 1.386 . S
C343 C347 1.393 . S
C344 H333 0.950 . S
C344 C342 1.391 . S
C344 C345 1.400 . S
C345 C339 1.491 1_554 S
C345 C344 1.400 . S
C345 C346 1.398 . S
C346 H334 0.950 1_554 S
C346 C345 1.398 . S
C346 C347 1.391 . S
C347 H335 0.950 . S
C347 C343 1.393 . S
C347 C346 1.391 . S
H348 C356 0.950 . S
H349 C361 0.950 . S
H350 C358 0.950 . S
H351 C360 0.950 . S
H352 C362 0.950 . S
H353 C364 0.950 . S
H354 C366 0.950 . S
H355 C367 0.950 . S
C356 H348 0.950 . S
C356 C357 1.386 . S
C356 C358 1.391 . S
C357 C356 1.386 . S
C357 C361 1.393 . S
C358 H350 0.950 . S
C358 C356 1.391 . S
C358 C359 1.400 . S
C359 C358 1.400 . S
C359 C360 1.398 . S
C359 C365 1.491 . S
C360 H351 0.950 . S
C360 C359 1.398 . S
C360 C361 1.391 . S
C361 H349 0.950 . S
C361 C357 1.393 . S
C361 C360 1.391 . S
C362 H352 0.950 . S
C362 C363 1.386 . S
C362 C364 1.391 . S
C363 C362 1.386 . S
C363 C367 1.393 . S
C364 H353 0.950 . S
C364 C362 1.391 . S
C364 C365 1.400 . S
C365 C359 1.491 . S
C365 C364 1.400 . S
C365 C366 1.398 . S
C366 H354 0.950 . S
C366 C365 1.398 . S
C366 C367 1.391 . S
C367 H355 0.950 . S
C367 C363 1.393 . S
C367 C366 1.391 . S
H368 C376 0.950 . S
H369 C381 0.950 . S
H370 C378 0.950 . S
H371 C380 0.950 . S
H372 C382 0.950 . S
H373 C384 0.950 . S
H374 C386 0.950 . S
H375 C387 0.950 . S
C376 H368 0.950 . S
C376 C377 1.386 . S
C376 C378 1.391 . S
C377 C376 1.386 . S
C377 C381 1.393 . S
C378 H370 0.950 . S
C378 C376 1.391 . S
C378 C379 1.400 . S
C379 C378 1.400 . S
C379 C380 1.398 . S
C379 C385 1.491 . S
C380 H371 0.950 . S
C380 C379 1.398 . S
C380 C381 1.391 . S
C381 H369 0.950 . S
C381 C377 1.393 . S
C381 C380 1.391 . S
C382 H372 0.950 . S
C382 C383 1.386 . S
C382 C384 1.391 . S
C383 C382 1.386 . S
C383 C387 1.393 . S
C384 H373 0.950 . S
C384 C382 1.391 . S
C384 C385 1.400 . S
C385 C379 1.491 . S
C385 C384 1.400 . S
C385 C386 1.398 . S
C386 H374 0.950 . S
C386 C385 1.398 . S
C386 C387 1.391 . S
C387 H375 0.950 . S
C387 C383 1.393 . S
C387 C386 1.391 . S
H388 C396 0.950 . S
H389 C401 0.950 . S
H390 C398 0.950 . S
H391 C400 0.950 . S
H392 C402 0.950 . S
H393 C404 0.950 . S
H394 C406 0.950 . S
H395 C407 0.950 . S
C396 H388 0.950 . S
C396 C397 1.386 . S
C396 C398 1.391 . S
C397 C396 1.386 . S
C397 C401 1.393 . S
C398 H390 0.950 . S
C398 C396 1.391 . S
C398 C399 1.400 . S
C399 C398 1.400 . S
C399 C400 1.398 . S
C399 C405 1.491 . S
C400 H391 0.950 . S
C400 C399 1.398 . S
C400 C401 1.391 . S
C401 H389 0.950 . S
C401 C397 1.393 . S
C401 C400 1.391 . S
C402 H392 0.950 . S
C402 C403 1.386 . S
C402 C404 1.391 . S
C403 C402 1.386 . S
C403 C407 1.393 . S
C404 H393 0.950 . S
C404 C402 1.391 . S
C404 C405 1.400 . S
C405 C399 1.491 . S
C405 C404 1.400 . S
C405 C406 1.398 . S
C406 H394 0.950 . S
C406 C405 1.398 . S
C406 C407 1.391 . S
C407 H395 0.950 . S
C407 C403 1.393 . S
C407 C406 1.391 . S
H408 C416 0.950 . S
H409 C421 0.950 . S
H410 C418 0.950 . S
H411 C420 0.950 . S
H412 C422 0.950 . S
H413 C424 0.950 . S
H414 C426 0.950 . S
H415 C427 0.950 . S
C416 H408 0.950 . S
C416 C417 1.386 . S
C416 C418 1.391 . S
C417 C416 1.386 . S
C417 C421 1.393 . S
C418 H410 0.950 . S
C418 C416 1.391 . S
C418 C419 1.400 . S
C419 C418 1.400 . S
C419 C420 1.398 . S
C419 C425 1.491 . S
C420 H411 0.950 . S
C420 C419 1.398 . S
C420 C421 1.391 . S
C421 H409 0.950 . S
C421 C417 1.393 . S
C421 C420 1.391 . S
C422 H412 0.950 . S
C422 C423 1.386 . S
C422 C424 1.391 . S
C423 C422 1.386 . S
C423 C427 1.393 . S
C424 H413 0.950 . S
C424 C422 1.391 . S
C424 C425 1.400 . S
C425 C419 1.491 . S
C425 C424 1.400 . S
C425 C426 1.398 . S
C426 H414 0.950 . S
C426 C425 1.398 . S
C426 C427 1.391 . S
C427 H415 0.950 . S
C427 C423 1.393 . S
C427 C426 1.391 . S
H428 C436 0.950 . S
H429 C441 0.950 . S
H430 C438 0.950 . S
H431 C440 0.950 . S
H432 C442 0.950 . S
H433 C444 0.950 . S
H434 C446 0.950 . S
H435 C447 0.950 . S
C436 H428 0.950 . S
C436 C437 1.386 . S
C436 C438 1.391 . S
C437 C436 1.386 . S
C437 C441 1.393 . S
C438 H430 0.950 . S
C438 C436 1.391 . S
C438 C439 1.400 . S
C439 C438 1.400 . S
C439 C440 1.398 . S
C439 C445 1.491 . S
C440 H431 0.950 . S
C440 C439 1.398 . S
C440 C441 1.391 . S
C441 H429 0.950 . S
C441 C437 1.393 . S
C441 C440 1.391 . S
C442 H432 0.950 . S
C442 C443 1.386 . S
C442 C444 1.391 . S
C443 C442 1.386 . S
C443 C447 1.393 . S
C444 H433 0.950 . S
C444 C442 1.391 . S
C444 C445 1.400 . S
C445 C439 1.491 . S
C445 C444 1.400 . S
C445 C446 1.398 . S
C446 H434 0.950 . S
C446 C445 1.398 . S
C446 C447 1.391 . S
C447 H435 0.950 . S
C447 C443 1.393 . S
C447 C446 1.391 . S
H448 C456 0.950 . S
H449 C461 0.950 . S
H450 C458 0.950 . S
H451 C460 0.950 . S
H452 C462 0.950 . S
H453 C464 0.950 . S
H454 C466 0.950 . S
H455 C467 0.950 . S
C456 H448 0.950 . S
C456 C457 1.386 . S
C456 C458 1.391 . S
C457 C456 1.386 . S
C457 C461 1.393 . S
C458 H450 0.950 . S
C458 C456 1.391 . S
C458 C459 1.400 . S
C459 C458 1.400 . S
C459 C460 1.398 . S
C459 C465 1.491 . S
C460 H451 0.950 . S
C460 C459 1.398 . S
C460 C461 1.391 . S
C461 H449 0.950 . S
C461 C457 1.393 . S
C461 C460 1.391 . S
C462 H452 0.950 . S
C462 C463 1.386 . S
C462 C464 1.391 . S
C463 C462 1.386 . S
C463 C467 1.393 . S
C464 H453 0.950 . S
C464 C462 1.391 . S
C464 C465 1.400 . S
C465 C459 1.491 . S
C465 C464 1.400 . S
C465 C466 1.398 . S
C466 H454 0.950 . S
C466 C465 1.398 . S
C466 C467 1.391 . S
C467 H455 0.950 . S
C467 C463 1.393 . S
C467 C466 1.391 . S
H468 C476 0.950 . S
H469 C481 0.950 . S
H470 C478 0.950 . S
H471 C480 0.950 . S
H472 C482 0.950 . S
H473 C484 0.950 . S
H474 C486 0.950 . S
H475 C487 0.950 . S
C476 H468 0.950 . S
C476 C477 1.386 . S
C476 C478 1.391 . S
C477 C476 1.386 . S
C477 C481 1.393 . S
C478 H470 0.950 . S
C478 C476 1.391 . S
C478 C479 1.400 . S
C479 C478 1.400 . S
C479 C480 1.398 . S
C479 C485 1.491 . S
C480 H471 0.950 . S
C480 C479 1.398 . S
C480 C481 1.391 . S
C481 H469 0.950 . S
C481 C477 1.393 . S
C481 C480 1.391 . S
C482 H472 0.950 . S
C482 C483 1.386 . S
C482 C484 1.391 . S
C483 C482 1.386 . S
C483 C487 1.393 . S
C484 H473 0.950 . S
C484 C482 1.391 . S
C484 C485 1.400 . S
C485 C479 1.491 . S
C485 C484 1.400 . S
C485 C486 1.398 . S
C486 H474 0.950 . S
C486 C485 1.398 . S
C486 C487 1.391 . S
C487 H475 0.950 . S
C487 C483 1.393 . S
C487 C486 1.391 . S
H488 C496 0.950 . S
H489 C501 0.950 . S
H490 C498 0.950 . S
H491 C500 0.950 . S
H492 C502 0.950 . S
H493 C504 0.950 . S
H494 C506 0.950 . S
H495 C507 0.950 . S
C496 H488 0.950 . S
C496 C497 1.386 . S
C496 C498 1.391 . S
C497 C496 1.386 . S
C497 C501 1.393 . S
C498 H490 0.950 . S
C498 C496 1.391 . S
C498 C499 1.400 . S
C499 C498 1.400 . S
C499 C500 1.398 . S
C499 C505 1.491 . S
C500 H491 0.950 . S
C500 C499 1.398 . S
C500 C501 1.391 . S
C501 H489 0.950 . S
C501 C497 1.393 . S
C501 C500 1.391 . S
C502 H492 0.950 . S
C502 C503 1.386 . S
C502 C504 1.391 . S
C503 C502 1.386 . S
C503 C507 1.393 . S
C504 H493 0.950 . S
C504 C502 1.391 . S
C504 C505 1.400 . S
C505 C499 1.491 . S
C505 C504 1.400 . S
C505 C506 1.398 . S
C506 H494 0.950 . S
C506 C505 1.398 . S
C506 C507 1.391 . S
C507 H495 0.950 . S
C507 C503 1.393 . S
C507 C506 1.391 . S
H508 C516 0.950 . S
H509 C521 0.950 . S
H510 C518 0.950 . S
H511 C520 0.950 . S
H512 C522 0.950 . S
H513 C524 0.950 . S
H514 C526 0.950 . S
H515 C527 0.950 . S
C516 H508 0.950 . S
C516 C517 1.386 . S
C516 C518 1.391 . S
C517 C516 1.386 . S
C517 C521 1.393 . S
C518 H510 0.950 . S
C518 C516 1.391 . S
C518 C519 1.400 . S
C519 C518 1.400 . S
C519 C520 1.398 . S
C519 C525 1.491 . S
C520 H511 0.950 . S
C520 C519 1.398 . S
C520 C521 1.391 . S
C521 H509 0.950 . S
C521 C517 1.393 . S
C521 C520 1.391 . S
C522 H512 0.950 . S
C522 C523 1.386 . S
C522 C524 1.391 . S
C523 C522 1.386 . S
C523 C527 1.393 . S
C524 H513 0.950 . S
C524 C522 1.391 . S
C524 C525 1.400 . S
C525 C519 1.491 . S
C525 C524 1.400 . S
C525 C526 1.398 . S
C526 H514 0.950 . S
C526 C525 1.398 . S
C526 C527 1.391 . S
C527 H515 0.950 . S
C527 C523 1.393 . S
C527 C526 1.391 . S
H528 C536 0.950 . S
H529 C541 0.950 . S
H530 C538 0.950 . S
H531 C540 0.950 . S
H532 C542 0.950 . S
H533 C544 0.950 . S
H534 C546 0.950 . S
H535 C547 0.950 . S
C536 H528 0.950 . S
C536 C537 1.386 . S
C536 C538 1.391 . S
C537 C536 1.386 . S
C537 C541 1.393 . S
C538 H530 0.950 . S
C538 C536 1.391 . S
C538 C539 1.400 . S
C539 C538 1.400 . S
C539 C540 1.398 . S
C539 C545 1.491 . S
C540 H531 0.950 . S
C540 C539 1.398 . S
C540 C541 1.391 . S
C541 H529 0.950 . S
C541 C537 1.393 . S
C541 C540 1.391 . S
C542 H532 0.950 . S
C542 C543 1.386 . S
C542 C544 1.391 . S
C543 C542 1.386 . S
C543 C547 1.393 . S
C544 H533 0.950 . S
C544 C542 1.391 . S
C544 C545 1.400 . S
C545 C539 1.491 . S
C545 C544 1.400 . S
C545 C546 1.398 . S
C546 H534 0.950 . S
C546 C545 1.398 . S
C546 C547 1.391 . S
C547 H535 0.950 . S
C547 C543 1.393 . S
C547 C546 1.391 . S
H548 C556 0.950 . S
H549 C561 0.950 . S
H550 C558 0.950 . S
H551 C560 0.950 . S
H552 C562 0.950 . S
H553 C564 0.950 . S
H554 C566 0.950 . S
H555 C567 0.950 . S
C556 H548 0.950 . S
C556 C557 1.386 . S
C556 C558 1.391 . S
C557 C556 1.386 . S
C557 C561 1.393 . S
C558 H550 0.950 . S
C558 C556 1.391 . S
C558 C559 1.400 . S
C559 C558 1.400 . S
C559 C560 1.398 . S
C559 C565 1.491 . S
C560 H551 0.950 . S
C560 C559 1.398 . S
C560 C561 1.391 . S
C561 H549 0.950 . S
C561 C557 1.393 . S
C561 C560 1.391 . S
C562 H552 0.950 . S
C562 C563 1.386 . S
C562 C564 1.391 . S
C563 C562 1.386 . S
C563 C567 1.393 . S
C564 H553 0.950 . S
C564 C562 1.391 . S
C564 C565 1.400 . S
C565 C559 1.491 . S
C565 C564 1.400 . S
C565 C566 1.398 . S
C566 H554 0.950 . S
C566 C565 1.398 . S
C566 C567 1.391 . S
C567 H555 0.950 . S
C567 C563 1.393 . S
C567 C566 1.391 . S
H568 C576 0.950 . S
H569 C581 0.950 . S
H570 C578 0.950 . S
H571 C580 0.950 . S
H572 C582 0.950 . S
H573 C584 0.950 . S
H574 C586 0.950 . S
H575 C587 0.950 . S
C576 H568 0.950 . S
C576 C577 1.386 . S
C576 C578 1.391 . S
C577 C576 1.386 . S
C577 C581 1.393 . S
C578 H570 0.950 . S
C578 C576 1.391 . S
C578 C579 1.400 . S
C579 C578 1.400 . S
C579 C580 1.398 . S
C579 C585 1.491 . S
C580 H571 0.950 . S
C580 C579 1.398 . S
C580 C581 1.391 . S
C581 H569 0.950 . S
C581 C577 1.393 . S
C581 C580 1.391 . S
C582 H572 0.950 . S
C582 C583 1.386 . S
C582 C584 1.391 . S
C583 C582 1.386 . S
C583 C587 1.393 . S
C584 H573 0.950 . S
C584 C582 1.391 . S
C584 C585 1.400 . S
C585 C579 1.491 . S
C585 C584 1.400 . S
C585 C586 1.398 . S
C586 H574 0.950 . S
C586 C585 1.398 . S
C586 C587 1.391 . S
C587 H575 0.950 . S
C587 C583 1.393 . S
C587 C586 1.391 . S
H588 C596 0.950 . S
H589 C601 0.950 . S
H590 C598 0.950 . S
H591 C600 0.950 . S
H592 C602 0.950 . S
H593 C604 0.950 . S
H594 C606 0.950 . S
H595 C607 0.950 . S
C596 H588 0.950 . S
C596 C597 1.386 . S
C596 C598 1.391 . S
C597 C596 1.386 . S
C597 C601 1.393 . S
C598 H590 0.950 . S
C598 C596 1.391 . S
C598 C599 1.400 . S
C599 C598 1.400 . S
C599 C600 1.398 . S
C599 C605 1.491 . S
C600 H591 0.950 . S
C600 C599 1.398 . S
C600 C601 1.391 . S
C601 H589 0.950 . S
C601 C597 1.393 . S
C601 C600 1.391 . S
C602 H592 0.950 . S
C602 C603 1.386 . S
C602 C604 1.391 . S
C603 C602 1.386 . S
C603 C607 1.393 . S
C604 H593 0.950 . S
C604 C602 1.391 . S
C604 C605 1.400 . S
C605 C599 1.491 . S
C605 C604 1.400 . S
C605 C606 1.398 . S
C606 H594 0.950 . S
C606 C605 1.398 . S
C606 C607 1.391 . S
C607 H595 0.950 . S
C607 C603 1.393 . S
C607 C606 1.391 . S
H608 C616 0.950 . S
H609 C621 0.950 . S
H610 C618 0.950 . S
H611 C620 0.950 . S
H612 C622 0.950 . S
H613 C624 0.950 . S
H614 C626 0.950 . S
H615 C627 0.950 . S
C616 H608 0.950 . S
C616 C617 1.386 . S
C616 C618 1.391 . S
C617 C616 1.386 . S
C617 C621 1.393 . S
C618 H610 0.950 . S
C618 C616 1.391 . S
C618 C619 1.400 . S
C619 C618 1.400 . S
C619 C620 1.398 . S
C619 C625 1.491 . S
C620 H611 0.950 . S
C620 C619 1.398 . S
C620 C621 1.391 . S
C621 H609 0.950 . S
C621 C617 1.393 . S
C621 C620 1.391 . S
C622 H612 0.950 . S
C622 C623 1.386 . S
C622 C624 1.391 . S
C623 C622 1.386 . S
C623 C627 1.393 . S
C624 H613 0.950 . S
C624 C622 1.391 . S
C624 C625 1.400 . S
C625 C619 1.491 . S
C625 C624 1.400 . S
C625 C626 1.398 . S
C626 H614 0.950 . S
C626 C625 1.398 . S
C626 C627 1.391 . S
C627 H615 0.950 . S
C627 C623 1.393 . S
C627 C626 1.391 . S
H628 C636 0.950 . S
H629 C641 0.950 . S
H630 C638 0.950 . S
H631 C640 0.950 . S
H632 C642 0.950 . S
H633 C644 0.950 . S
H634 C646 0.950 . S
H635 C647 0.950 . S
C636 H628 0.950 . S
C636 C637 1.386 . S
C636 C638 1.391 . S
C637 C636 1.386 . S
C637 C641 1.393 . S
C638 H630 0.950 . S
C638 C636 1.391 . S
C638 C639 1.400 . S
C639 C638 1.400 . S
C639 C640 1.398 . S
C639 C645 1.491 . S
C640 H631 0.950 . S
C640 C639 1.398 . S
C640 C641 1.391 . S
C641 H629 0.950 . S
C641 C637 1.393 . S
C641 C640 1.391 . S
C642 H632 0.950 . S
C642 C643 1.386 . S
C642 C644 1.391 . S
C643 C642 1.386 . S
C643 C647 1.393 . S
C644 H633 0.950 . S
C644 C642 1.391 . S
C644 C645 1.400 . S
C645 C639 1.491 . S
C645 C644 1.400 . S
C645 C646 1.398 . S
C646 H634 0.950 . S
C646 C645 1.398 . S
C646 C647 1.391 . S
C647 H635 0.950 . S
C647 C643 1.393 . S
C647 C646 1.391 . S
H648 C656 0.950 . S
H649 C661 0.950 . S
H650 C658 0.950 . S
H651 C660 0.950 . S
H652 C662 0.950 . S
H653 C664 0.950 . S
H654 C666 0.950 . S
H655 C667 0.950 . S
C656 H648 0.950 . S
C656 C657 1.386 . S
C656 C658 1.391 . S
C657 C656 1.386 . S
C657 C661 1.393 . S
C658 H650 0.950 . S
C658 C656 1.391 . S
C658 C659 1.400 . S
C659 C658 1.400 . S
C659 C660 1.398 . S
C659 C665 1.491 . S
C660 H651 0.950 . S
C660 C659 1.398 . S
C660 C661 1.391 . S
C661 H649 0.950 . S
C661 C657 1.393 . S
C661 C660 1.391 . S
C662 H652 0.950 . S
C662 C663 1.386 . S
C662 C664 1.391 . S
C663 C662 1.386 . S
C663 C667 1.393 . S
C664 H653 0.950 . S
C664 C662 1.391 . S
C664 C665 1.400 . S
C665 C659 1.491 . S
C665 C664 1.400 . S
C665 C666 1.398 . S
C666 H654 0.950 . S
C666 C665 1.398 . S
C666 C667 1.391 . S
C667 H655 0.950 . S
C667 C663 1.393 . S
C667 C666 1.391 . S
H668 C676 0.950 . S
H669 C681 0.950 . S
H670 C678 0.950 . S
H671 C680 0.950 . S
H672 C682 0.950 . S
H673 C684 0.950 . S
H674 C686 0.950 . S
H675 C687 0.950 . S
C676 H668 0.950 . S
C676 C677 1.386 . S
C676 C678 1.391 . S
C677 C676 1.386 . S
C677 C681 1.393 . S
C678 H670 0.950 . S
C678 C676 1.391 . S
C678 C679 1.400 . S
C679 C678 1.400 . S
C679 C680 1.398 . S
C679 C685 1.491 . S
C680 H671 0.950 . S
C680 C679 1.398 . S
C680 C681 1.391 . S
C681 H669 0.950 . S
C681 C677 1.393 . S
C681 C680 1.391 . S
C682 H672 0.950 . S
C682 C683 1.386 . S
C682 C684 1.391 . S
C683 C682 1.386 . S
C683 C687 1.393 . S
C684 H673 0.950 . S
C684 C682 1.391 . S
C684 C685 1.400 . S
C685 C679 1.491 . S
C685 C684 1.400 . S
C685 C686 1.398 . S
C686 H674 0.950 . S
C686 C685 1.398 . S
C686 C687 1.391 . S
C687 H675 0.950 . S
C687 C683 1.393 . S
C687 C686 1.391 . S
H688 C696 0.950 1_545 S
H689 C701 0.950 . S
H690 C698 0.950 . S
H691 C700 0.950 . S
H692 C702 0.950 . S
H693 C704 0.950 . S
H694 C706 0.950 . S
H695 C707 0.950 . S
C696 H688 0.950 1_565 S
C696 C697 1.386 . S
C696 C698 1.391 . S
C697 C696 1.386 . S
C697 C701 1.393 . S
C698 H690 0.950 . S
C698 C696 1.391 . S
C698 C699 1.400 . S
C699 C698 1.400 . S
C699 C700 1.398 . S
C699 C705 1.491 . S
C700 H691 0.950 . S
C700 C699 1.398 . S
C700 C701 1.391 . S
C701 H689 0.950 . S
C701 C697 1.393 . S
C701 C700 1.391 . S
C702 H692 0.950 . S
C702 C703 1.386 . S
C702 C704 1.391 . S
C703 C702 1.386 . S
C703 C707 1.393 . S
C704 H693 0.950 . S
C704 C702 1.391 . S
C704 C705 1.400 . S
C705 C699 1.491 . S
C705 C704 1.400 . S
C705 C706 1.398 . S
C706 H694 0.950 . S
C706 C705 1.398 . S
C706 C707 1.391 . S
C707 H695 0.950 . S
C707 C703 1.393 . S
C707 C706 1.391 . S
H708 C716 0.950 . S
H709 C721 0.950 . S
H710 C718 0.950 . S
H711 C720 0.950 . S
H712 C722 0.950 . S
H713 C724 0.950 . S
H714 C726 0.950 . S
H715 C727 0.950 . S
C716 H708 0.950 . S
C716 C717 1.386 . S
C716 C718 1.391 . S
C717 C716 1.386 . S
C717 C721 1.393 . S
C718 H710 0.950 . S
C718 C716 1.391 . S
C718 C719 1.400 . S
C719 C718 1.400 . S
C719 C720 1.398 . S
C719 C725 1.491 . S
C720 H711 0.950 . S
C720 C719 1.398 . S
C720 C721 1.391 . S
C721 H709 0.950 . S
C721 C717 1.393 . S
C721 C720 1.391 . S
C722 H712 0.950 . S
C722 C723 1.386 . S
C722 C724 1.391 . S
C723 C722 1.386 . S
C723 C727 1.393 . S
C724 H713 0.950 . S
C724 C722 1.391 . S
C724 C725 1.400 . S
C725 C719 1.491 . S
C725 C724 1.400 . S
C725 C726 1.398 . S
C726 H714 0.950 . S
C726 C725 1.398 . S
C726 C727 1.391 . S
C727 H715 0.950 . S
C727 C723 1.393 . S
C727 C726 1.391 . S
H728 C736 0.950 . S
H729 C741 0.950 . S
H730 C738 0.950 . S
H731 C740 0.950 . S
H732 C742 0.950 . S
H733 C744 0.950 . S
H734 C746 0.950 . S
H735 C747 0.950 . S
C736 H728 0.950 . S
C736 C737 1.386 . S
C736 C738 1.391 . S
C737 C736 1.386 . S
C737 C741 1.393 . S
C738 H730 0.950 . S
C738 C736 1.391 . S
C738 C739 1.400 . S
C739 C738 1.400 . S
C739 C740 1.398 . S
C739 C745 1.491 . S
C740 H731 0.950 . S
C740 C739 1.398 . S
C740 C741 1.391 . S
C741 H729 0.950 . S
C741 C737 1.393 . S
C741 C740 1.391 . S
C742 H732 0.950 . S
C742 C743 1.386 . S
C742 C744 1.391 . S
C743 C742 1.386 . S
C743 C747 1.393 . S
C744 H733 0.950 . S
C744 C742 1.391 . S
C744 C745 1.400 . S
C745 C739 1.491 . S
C745 C744 1.400 . S
C745 C746 1.398 . S
C746 H734 0.950 . S
C746 C745 1.398 . S
C746 C747 1.391 . S
C747 H735 0.950 . S
C747 C743 1.393 . S
C747 C746 1.391 . S
H748 C756 0.950 . S
H749 C761 0.950 1_565 S
H750 C758 0.950 . S
H751 C760 0.950 . S
H752 C762 0.950 1_455 S
H753 C764 0.950 . S
H754 C766 0.950 . S
H755 C767 0.950 . S
C756 H748 0.950 . S
C756 C757 1.386 . S
C756 C758 1.391 . S
C757 C756 1.386 . S
C757 C761 1.393 . S
C758 H750 0.950 . S
C758 C756 1.391 . S
C758 C759 1.400 . S
C759 C758 1.400 . S
C759 C760 1.398 . S
C759 C765 1.491 . S
C760 H751 0.950 . S
C760 C759 1.398 . S
C760 C761 1.391 . S
C761 H749 0.950 1_545 S
C761 C757 1.393 . S
C761 C760 1.391 . S
C762 H752 0.950 1_655 S
C762 C763 1.386 . S
C762 C764 1.391 . S
C763 C762 1.386 . S
C763 C767 1.393 . S
C764 H753 0.950 . S
C764 C762 1.391 . S
C764 C765 1.400 . S
C765 C759 1.491 . S
C765 C764 1.400 . S
C765 C766 1.398 . S
C766 H754 0.950 . S
C766 C765 1.398 . S
C766 C767 1.391 . S
C767 H755 0.950 . S
C767 C763 1.393 . S
C767 C766 1.391 . S
H768 C776 0.950 . S
H769 C781 0.950 . S
H770 C778 0.950 . S
H771 C780 0.950 . S
H772 C782 0.950 . S
H773 C784 0.950 . S
H774 C786 0.950 . S
H775 C787 0.950 . S
C776 H768 0.950 . S
C776 C777 1.386 . S
C776 C778 1.391 . S
C777 C776 1.386 . S
C777 C781 1.393 . S
C778 H770 0.950 . S
C778 C776 1.391 . S
C778 C779 1.400 . S
C779 C778 1.400 . S
C779 C780 1.398 . S
C779 C785 1.491 . S
C780 H771 0.950 . S
C780 C779 1.398 . S
C780 C781 1.391 . S
C781 H769 0.950 . S
C781 C777 1.393 . S
C781 C780 1.391 . S
C782 H772 0.950 . S
C782 C783 1.386 . S
C782 C784 1.391 . S
C783 C782 1.386 . S
C783 C787 1.393 . S
C784 H773 0.950 . S
C784 C782 1.391 . S
C784 C785 1.400 . S
C785 C779 1.491 . S
C785 C784 1.400 . S
C785 C786 1.398 . S
C786 H774 0.950 . S
C786 C785 1.398 . S
C786 C787 1.391 . S
C787 H775 0.950 . S
C787 C783 1.393 . S
C787 C786 1.391 . S
H788 C796 0.950 . S
H789 C801 0.950 1_455 S
H790 C798 0.950 . S
H791 C800 0.950 . S
H792 C802 0.950 . S
H793 C804 0.950 . S
H794 C806 0.950 . S
H795 C807 0.950 . S
C796 H788 0.950 . S
C796 C797 1.386 . S
C796 C798 1.391 . S
C797 C796 1.386 . S
C797 C801 1.393 . S
C798 H790 0.950 . S
C798 C796 1.391 . S
C798 C799 1.400 . S
C799 C798 1.400 . S
C799 C800 1.398 . S
C799 C805 1.491 . S
C800 H791 0.950 . S
C800 C799 1.398 . S
C800 C801 1.391 . S
C801 H789 0.950 1_655 S
C801 C797 1.393 . S
C801 C800 1.391 . S
C802 H792 0.950 . S
C802 C803 1.386 . S
C802 C804 1.391 . S
C803 C802 1.386 . S
C803 C807 1.393 . S
C804 H793 0.950 . S
C804 C802 1.391 . S
C804 C805 1.400 . S
C805 C799 1.491 . S
C805 C804 1.400 . S
C805 C806 1.398 . S
C806 H794 0.950 . S
C806 C805 1.398 . S
C806 C807 1.391 . S
C807 H795 0.950 . S
C807 C803 1.393 . S
C807 C806 1.391 . S
H808 C816 0.950 . S
H809 C821 0.950 1_655 S
H810 C818 0.950 . S
H811 C820 0.950 . S
H812 C822 0.950 1_545 S
H813 C824 0.950 . S
H814 C826 0.950 . S
H815 C827 0.950 . S
C816 H808 0.950 . S
C816 C817 1.386 . S
C816 C818 1.391 . S
C817 C816 1.386 . S
C817 C821 1.393 . S
C818 H810 0.950 . S
C818 C816 1.391 . S
C818 C819 1.400 . S
C819 C818 1.400 . S
C819 C820 1.398 . S
C819 C825 1.491 . S
C820 H811 0.950 . S
C820 C819 1.398 . S
C820 C821 1.391 . S
C821 H809 0.950 1_455 S
C821 C817 1.393 . S
C821 C820 1.391 . S
C822 H812 0.950 1_565 S
C822 C823 1.386 . S
C822 C824 1.391 . S
C823 C822 1.386 . S
C823 C827 1.393 . S
C824 H813 0.950 . S
C824 C822 1.391 . S
C824 C825 1.400 . S
C825 C819 1.491 . S
C825 C824 1.400 . S
C825 C826 1.398 . S
C826 H814 0.950 . S
C826 C825 1.398 . S
C826 C827 1.391 . S
C827 H815 0.950 . S
C827 C823 1.393 . S
C827 C826 1.391 . S
H828 C836 0.950 . S
H829 C841 0.950 1_565 S
H830 C838 0.950 . S
H831 C840 0.950 . S
H832 C842 0.950 . S
H833 C844 0.950 . S
H834 C846 0.950 . S
H835 C847 0.950 . S
C836 H828 0.950 . S
C836 C837 1.386 . S
C836 C838 1.391 . S
C837 C836 1.386 . S
C837 C841 1.393 . S
C838 H830 0.950 . S
C838 C836 1.391 . S
C838 C839 1.400 . S
C839 C838 1.400 . S
C839 C840 1.398 . S
C839 C845 1.491 . S
C840 H831 0.950 . S
C840 C839 1.398 . S
C840 C841 1.391 . S
C841 H829 0.950 1_545 S
C841 C837 1.393 . S
C841 C840 1.391 . S
C842 H832 0.950 . S
C842 C843 1.386 . S
C842 C844 1.391 . S
C843 C842 1.386 . S
C843 C847 1.393 . S
C844 H833 0.950 . S
C844 C842 1.391 . S
C844 C845 1.400 . S
C845 C839 1.491 . S
C845 C844 1.400 . S
C845 C846 1.398 . S
C846 H834 0.950 . S
C846 C845 1.398 . S
C846 C847 1.391 . S
C847 H835 0.950 . S
C847 C843 1.393 . S
C847 C846 1.391 . S
C217 C92 1.588 . S
C223 C1 1.585 . S
C237 C53 1.573 . S
C243 C14 1.570 . S
C257 C66 1.582 . S
C263 C27 1.577 . S
C277 C40 1.578 . S
C283 C79 1.573 . S
C297 C205 1.571 . S
C303 C105 1.603 . S
C317 C157 1.596 . S
C323 C127 1.579 . S
C337 C131 1.596 . S
C343 C179 1.584 . S
C357 C153 1.579 . S
C363 C183 1.596 . S
C377 C36 1.518 . S
C383 C10 1.517 . S
C397 C23 1.518 . S
C403 C49 1.518 . S
C417 C62 1.495 . S
C423 C88 1.496 . S
C437 C101 1.515 . S
C443 C75 1.514 . S
C457 C114 1.553 . S
C463 C140 1.553 . S
C477 C118 1.511 . S
C483 C144 1.512 . S
C497 C192 1.558 . S
C503 C166 1.554 . S
C517 C170 1.503 . S
C523 C196 1.502 . S
C537 C81 1.576 . S
C543 C3 1.567 . S
C557 C16 1.573 . S
C563 C94 1.567 . S
C577 C29 1.576 . S
C583 C55 1.581 . S
C597 C42 1.571 . S
C603 C68 1.568 . S
C617 C107 1.589 . S
C623 C185 1.590 . S
C637 C122 1.581 . S
C643 C200 1.570 . S
C657 C133 1.585 . S
C663 C159 1.585 . S
C677 C148 1.569 . S
C683 C174 1.571 . S
C697 C5 1.636 1_565 S
C703 C198 1.630 . S
C717 C161 1.675 . S
C723 C18 1.639 . S
C737 C31 1.643 . S
C743 C172 1.623 1_455 S
C757 C187 1.675 1_545 S
C763 C44 1.638 1_655 S
C777 C120 1.642 . S
C783 C57 1.624 . S
C797 C70 1.627 1_655 S
C803 C135 1.674 . S
C817 C146 1.626 1_455 S
C823 C83 1.640 1_565 S
C837 C109 1.675 1_545 S
C843 C96 1.640 . S
