# Generated by pormake.
# Topology unm, (4)-cn, num edge types: 1
# Building blocks:
#     Node 0, Type 0, BuildingBlock: TATPOV_clean_sbu_0, # of connection points: 4
#     Node 1, Type 0, BuildingBlock: TATPOV_clean_sbu_0, # of connection points: 4
#     Node 2, Type 0, BuildingBlock: TATPOV_clean_sbu_0, # of connection points: 4
#     Node 3, Type 0, BuildingBlock: TATPOV_clean_sbu_0, # of connection points: 4
#     Node 4, Type 0, BuildingBlock: TATPOV_clean_sbu_0, # of connection points: 4
#     Node 5, Type 0, BuildingBlock: TATPOV_clean_sbu_0, # of connection points: 4
#     Node 6, Type 0, BuildingBlock: TATPOV_clean_sbu_0, # of connection points: 4
#     Node 7, Type 0, BuildingBlock: TATPOV_clean_sbu_0, # of connection points: 4
#     Edge 8, Type (0, 0), BuildingBlock: FUNLAD_clean_linker_1, # of connection points: 2
#     Edge 9, Type (0, 0), BuildingBlock: FUNLAD_clean_linker_1, # of connection points: 2
#     Edge 10, Type (0, 0), BuildingBlock: FUNLAD_clean_linker_1, # of connection points: 2
#     Edge 11, Type (0, 0), BuildingBlock: FUNLAD_clean_linker_1, # of connection points: 2
#     Edge 12, Type (0, 0), BuildingBlock: FUNLAD_clean_linker_1, # of connection points: 2
#     Edge 13, Type (0, 0), BuildingBlock: FUNLAD_clean_linker_1, # of connection points: 2
#     Edge 14, Type (0, 0), BuildingBlock: FUNLAD_clean_linker_1, # of connection points: 2
#     Edge 15, Type (0, 0), BuildingBlock: FUNLAD_clean_linker_1, # of connection points: 2
#     Edge 16, Type (0, 0), BuildingBlock: FUNLAD_clean_linker_1, # of connection points: 2
#     Edge 17, Type (0, 0), BuildingBlock: FUNLAD_clean_linker_1, # of connection points: 2
#     Edge 18, Type (0, 0), BuildingBlock: FUNLAD_clean_linker_1, # of connection points: 2
#     Edge 19, Type (0, 0), BuildingBlock: FUNLAD_clean_linker_1, # of connection points: 2
#     Edge 20, Type (0, 0), BuildingBlock: FUNLAD_clean_linker_1, # of connection points: 2
#     Edge 21, Type (0, 0), BuildingBlock: FUNLAD_clean_linker_1, # of connection points: 2
#     Edge 22, Type (0, 0), BuildingBlock: FUNLAD_clean_linker_1, # of connection points: 2
#     Edge 23, Type (0, 0), BuildingBlock: FUNLAD_clean_linker_1, # of connection points: 2
# Relax obj value: 0.131
# Max RMSD: 0.140
# Mean RMSD: 0.140
data_MOF--net-unm--node1-TATPOV_clean_sbu_0--edge1-FUNLAD_clean_linker_1
_symmetry_space_group_name_H-M    P1
_symmetry_Int_Tables_number       1
_symmetry_cell_setting            triclinic
loop_
_symmetry_equiv_pos_as_xyz
'x, y, z'
_cell_length_a     26.698947
_cell_length_b     26.74886
_cell_length_c     43.844339
_cell_angle_alpha  89.994326
_cell_angle_beta   89.904897
_cell_angle_gamma 90.053662
loop_
_atom_site_label
_atom_site_type_symbol
_atom_site_fract_x
_atom_site_fract_y
_atom_site_fract_z
_atom_type_partial_charge
Zn0 Zn 0.88882 0.22215 0.13853 0.0
Zn1 Zn 0.97042 0.20834 0.17449 0.0
O2 O 0.91018 0.19841 0.20478 0.0
O3 O 0.84466 0.21102 0.17518 0.0
O4 O 0.03511 0.20024 0.19918 0.0
O5 O 0.90988 0.16579 0.111 0.0
O6 O 0.97987 0.15984 0.13743 0.0
C7 C 0.86274 0.20213 0.20132 0.0
C8 C 0.95107 0.30886 0.14309 0.0
O9 O 0.97541 0.28094 0.1612 0.0
O10 O 0.91272 0.29256 0.12932 0.0
C11 C 0.05148 0.2354 0.21608 0.0
O12 O 0.02448 0.27608 0.21944 0.0
C13 C 0.9529 0.14705 0.11464 0.0
Zn14 Zn 0.28135 0.4398 0.63665 0.0
Zn15 Zn 0.28278 0.52192 0.67413 0.0
O16 O 0.29756 0.46329 0.70407 0.0
O17 O 0.29419 0.39704 0.67413 0.0
O18 O 0.2801 0.58576 0.69984 0.0
O19 O 0.33665 0.47001 0.6108 0.0
O20 O 0.33339 0.53789 0.63928 0.0
C21 C 0.29902 0.41589 0.70051 0.0
C22 C 0.18741 0.49126 0.63969 0.0
O23 O 0.21097 0.51805 0.65884 0.0
O24 O 0.20917 0.45573 0.62592 0.0
C25 C 0.26494 0.62538 0.68659 0.0
O26 O 0.25441 0.62367 0.65737 0.0
C27 C 0.35075 0.51437 0.61623 0.0
Zn28 Zn 0.10379 0.76861 0.11757 0.0
Zn29 Zn 0.02182 0.77249 0.15568 0.0
O30 O 0.08093 0.78375 0.18545 0.0
O31 O 0.14696 0.77624 0.15544 0.0
O32 O 0.95814 0.77402 0.18153 0.0
O33 O 0.07691 0.82757 0.09362 0.0
O34 O 0.00825 0.82414 0.12157 0.0
C35 C 0.12834 0.78204 0.18183 0.0
C36 C 0.04626 0.67809 0.11889 0.0
O37 O 0.0217 0.70182 0.13911 0.0
O38 O 0.08217 0.69871 0.10481 0.0
C39 C 0.94345 0.73609 0.19667 0.0
O40 O 0.9712 0.69555 0.19703 0.0
C41 C 0.03276 0.84233 0.09917 0.0
Zn42 Zn 0.71691 0.59121 0.62911 0.0
Zn43 Zn 0.7247 0.50975 0.66558 0.0
O44 O 0.71794 0.56828 0.6967 0.0
O45 O 0.71692 0.63469 0.66692 0.0
O46 O 0.73262 0.44688 0.69119 0.0
O47 O 0.65291 0.56357 0.61123 0.0
O48 O 0.6663 0.49304 0.636 0.0
C49 C 0.71748 0.61572 0.69341 0.0
C50 C 0.80947 0.53861 0.62187 0.0
O51 O 0.79162 0.51295 0.64378 0.0
O52 O 0.78393 0.57313 0.60975 0.0
C53 C 0.76825 0.44436 0.71037 0.0
O54 O 0.79741 0.48335 0.71431 0.0
C55 C 0.64159 0.51847 0.61654 0.0
Zn56 Zn 0.39263 0.27389 0.41558 0.0
Zn57 Zn 0.46786 0.27899 0.37318 0.0
O58 O 0.40432 0.2949 0.34712 0.0
O59 O 0.34483 0.29524 0.38224 0.0
O60 O 0.52869 0.27826 0.34477 0.0
O61 O 0.42754 0.3243 0.44218 0.0
O62 O 0.48892 0.32711 0.40852 0.0
C63 C 0.35829 0.29973 0.35467 0.0
C64 C 0.44198 0.18032 0.40528 0.0
O65 O 0.46672 0.20649 0.3863 0.0
O66 O 0.4081 0.19999 0.42154 0.0
C67 C 0.527 0.25843 0.3184 0.0
O68 O 0.48401 0.24197 0.30793 0.0
C69 C 0.46994 0.34074 0.43397 0.0
Zn70 Zn 0.2287 0.93282 0.91214 0.0
Zn71 Zn 0.22016 0.00886 0.87078 0.0
O72 O 0.20905 0.94365 0.84504 0.0
O73 O 0.21068 0.88329 0.87938 0.0
O74 O 0.21636 0.06672 0.8401 0.0
O75 O 0.17528 0.96452 0.93822 0.0
O76 O 0.16993 0.0272 0.90567 0.0
C77 C 0.20638 0.89724 0.85195 0.0
C78 C 0.3197 0.98869 0.90334 0.0
O79 O 0.29237 0.01334 0.88504 0.0
O80 O 0.302 0.95181 0.91798 0.0
C81 C 0.24046 0.10721 0.8447 0.0
O82 O 0.26588 0.11258 0.87012 0.0
C83 C 0.15654 0.00613 0.93056 0.0
Zn84 Zn 0.59473 0.72261 0.39966 0.0
Zn85 Zn 0.52897 0.70271 0.35404 0.0
O86 O 0.59736 0.6887 0.33299 0.0
O87 O 0.64987 0.69809 0.37143 0.0
O88 O 0.47564 0.69486 0.32124 0.0
O89 O 0.55591 0.67668 0.42728 0.0
O90 O 0.50668 0.65472 0.38915 0.0
C91 C 0.6419 0.68822 0.3436 0.0
C92 C 0.54116 0.8087 0.38137 0.0
O93 O 0.52087 0.77711 0.3636 0.0
O94 O 0.57554 0.79546 0.39947 0.0
C95 C 0.43198 0.71157 0.32702 0.0
O96 O 0.42252 0.72979 0.35426 0.0
C97 C 0.51981 0.65103 0.41705 0.0
Zn98 Zn 0.78622 0.09183 0.89881 0.0
Zn99 Zn 0.80114 0.009 0.86358 0.0
O100 O 0.8081 0.0691 0.83319 0.0
O101 O 0.79481 0.13546 0.8619 0.0
O102 O 0.80517 0.94575 0.83744 0.0
O103 O 0.84572 0.07126 0.92412 0.0
O104 O 0.855 1.00159 0.89765 0.0
C105 C 0.80357 0.11643 0.83599 0.0
C106 C 0.70175 0.02637 0.89781 0.0
O107 O 0.73027 1.00146 0.88027 0.0
O108 O 0.71652 0.06713 0.90943 0.0
C109 C 0.78496 0.9459 0.81114 0.0
O110 O 0.76584 0.98761 0.80057 0.0
C111 C 0.86778 0.03004 0.91975 0.0
H112 H 0.94499 0.09696 0.07524 0.0
C113 C 0.97223 0.11391 0.09038 0.0
H114 H 0.04872 0.12885 0.09772 0.0
H115 H 0.15155 0.96587 0.01791 0.0
H116 H 0.17671 0.94163 0.06865 0.0
H117 H 0.13769 0.97987 0.11398 0.0
H118 H 0.07441 0.04412 0.10868 0.0
C119 C 0.02109 0.11099 0.08315 0.0
C120 C 0.03929 0.08373 0.05536 0.0
C121 C 0.0745 0.04449 0.05869 0.0
C122 C 0.09513 0.02063 0.03247 0.0
C123 C 0.13296 0.9841 0.03677 0.0
C124 C 0.14812 0.96993 0.06589 0.0
C125 C 0.12623 0.99151 0.0914 0.0
C126 C 0.08999 0.02846 0.08799 0.0
H127 H 0.1217 0.0732 0.9511 0.0
C128 C 0.12372 0.03271 0.95248 0.0
H129 H 0.10368 0.96783 0.97636 0.0
H130 H 0.97925 0.16314 0.03949 0.0
H131 H 0.94814 0.18244 0.98911 0.0
H132 H 0.9726 0.13136 0.94471 0.0
H133 H 0.02938 0.06143 0.95047 0.0
C134 C 0.10088 0.00824 0.97557 0.0
C135 C 0.07844 0.03396 1.00275 0.0
C136 C 0.04107 0.0713 0.99952 0.0
C137 C 0.02352 0.09798 0.0256 0.0
C138 C 0.99105 0.13916 0.02102 0.0
C139 C 0.97332 0.15112 0.99208 0.0
C140 C 0.98741 0.12264 0.96706 0.0
C141 C 0.02056 0.08294 0.97063 0.0
H142 H 0.3866 0.58137 0.59627 0.0
C143 C 0.38243 0.54116 0.59373 0.0
H144 H 0.39649 0.47831 0.56598 0.0
H145 H 0.39762 0.59848 0.44244 0.0
H146 H 0.32431 0.54637 0.4371 0.0
H147 H 0.2955 0.49308 0.47952 0.0
H148 H 0.33929 0.49263 0.52772 0.0
C149 C 0.40163 0.51834 0.56888 0.0
C150 C 0.42292 0.54702 0.54252 0.0
C151 C 0.39856 0.54475 0.51374 0.0
C152 C 0.41654 0.5738 0.4887 0.0
C153 C 0.38809 0.57467 0.46145 0.0
C154 C 0.34525 0.54545 0.45822 0.0
C155 C 0.32895 0.51558 0.48212 0.0
C156 C 0.35476 0.51549 0.50968 0.0
H157 H 0.4835 0.58017 0.43142 0.0
C158 C 0.49233 0.61814 0.43835 0.0
H159 H 0.48895 0.67357 0.47203 0.0
H160 H 0.48002 0.55884 0.59391 0.0
H161 H 0.55337 0.6112 0.59931 0.0
H162 H 0.58804 0.65669 0.55522 0.0
H163 H 0.5483 0.65202 0.50591 0.0
C164 C 0.48031 0.63491 0.46643 0.0
C165 C 0.46091 0.60271 0.49183 0.0
C166 C 0.48585 0.60408 0.52049 0.0
C167 C 0.46654 0.57683 0.54586 0.0
C168 C 0.49206 0.57967 0.57409 0.0
C169 C 0.53467 0.60919 0.57746 0.0
C170 C 0.55415 0.63484 0.55266 0.0
C171 C 0.53051 0.63214 0.52446 0.0
H172 H 0.96602 0.87511 0.07767 0.0
C173 C 0.00671 0.87477 0.077 0.0
H174 H 0.07166 0.89753 0.05392 0.0
H175 H 0.98667 0.92342 0.92208 0.0
H176 H 0.059 0.86996 0.91488 0.0
H177 H 0.10544 0.8369 0.95904 0.0
H178 H 0.08102 0.85811 1.01045 0.0
C179 C 0.03109 0.89883 0.0544 0.0
C180 C 0.00421 0.92096 0.0276 0.0
C181 C 0.01794 0.90627 0.99754 0.0
C182 C 0.98985 0.92352 0.97201 0.0
C183 C 0.00582 0.91025 0.94226 0.0
C184 C 0.04733 0.87966 0.93779 0.0
C185 C 0.07352 0.86114 0.96264 0.0
C186 C 0.05907 0.87389 0.99217 0.0
H187 H 0.9219 0.04408 0.95636 0.0
C188 C 0.90585 0.01487 0.94227 0.0
H189 H 0.89834 0.9371 0.93613 0.0
H190 H 0.9764 0.96871 0.08027 0.0
H191 H 0.90021 0.01621 0.0882 0.0
H192 H 0.84299 0.03358 0.0454 0.0
H193 H 0.86182 0.00408 0.99457 0.0
C194 C 0.91476 0.96699 0.94961 0.0
C195 C 0.94652 0.9532 0.97646 0.0
C196 C 0.93291 0.96807 1.00651 0.0
C197 C 0.96351 0.9544 0.03176 0.0
C198 C 0.95214 0.97435 0.06085 0.0
C199 C 0.90892 0.0023 0.06562 0.0
C200 C 0.87689 0.01233 0.04151 0.0
C201 C 0.88855 0.99559 1.01228 0.0
H202 H 0.53926 0.37738 0.45038 0.0
C203 C 0.50001 0.37087 0.45565 0.0
H204 H 0.44248 0.37783 0.4884 0.0
H205 H 0.57391 0.37455 0.60615 0.0
H206 H 0.52643 0.29753 0.61066 0.0
H207 H 0.47361 0.26778 0.56827 0.0
H208 H 0.46756 0.31486 0.52129 0.0
C209 C 0.48146 0.38541 0.4829 0.0
C210 C 0.51415 0.4039 0.50818 0.0
C211 C 0.51766 0.37555 0.53553 0.0
C212 C 0.54889 0.39212 0.55982 0.0
C213 C 0.5512 0.36335 0.5869 0.0
C214 C 0.52412 0.31909 0.58981 0.0
C215 C 0.49432 0.3024 0.56597 0.0
C216 C 0.49105 0.33002 0.53911 0.0
H217 H 0.56978 0.51711 0.59213 0.0
C218 C 0.6025 0.49515 0.59764 0.0
H219 H 0.64454 0.431 0.58636 0.0
H220 H 0.51159 0.47062 0.46078 0.0
H221 H 0.56394 0.5441 0.45485 0.0
H222 H 0.62294 0.56922 0.49516 0.0
H223 H 0.63042 0.52096 0.54158 0.0
C224 C 0.61104 0.45289 0.58198 0.0
C225 C 0.57707 0.43669 0.55677 0.0
C226 C 0.57406 0.46482 0.5293 0.0
C227 C 0.54157 0.44913 0.50536 0.0
C228 C 0.53736 0.47941 0.47901 0.0
C229 C 0.56672 0.52207 0.47545 0.0
C230 C 0.60001 0.53618 0.49814 0.0
C231 C 0.60365 0.50822 0.52483 0.0
H232 H 0.12488 0.19936 0.22489 0.0
C233 C 0.10198 0.23184 0.23007 0.0
H234 H 0.09809 0.30142 0.25249 0.0
H235 H 0.28945 0.19589 0.32576 0.0
H236 H 0.23295 0.12812 0.33885 0.0
H237 H 0.14765 0.12471 0.31746 0.0
H238 H 0.11859 0.18834 0.28256 0.0
C239 C 0.12049 0.26826 0.24815 0.0
C240 C 0.17279 0.26806 0.26058 0.0
C241 C 0.18877 0.2309 0.28161 0.0
C242 C 0.23743 0.23384 0.29489 0.0
C243 C 0.2527 0.19587 0.31538 0.0
C244 C 0.22066 0.15676 0.3231 0.0
C245 C 0.17268 0.15477 0.31099 0.0
C246 C 0.15662 0.19142 0.29067 0.0
H247 H 0.28444 0.32535 0.3391 0.0
C248 C 0.31837 0.30637 0.33172 0.0
H249 H 0.34916 0.25766 0.29879 0.0
H250 H 0.15631 0.34377 0.21971 0.0
H251 H 0.21255 0.41234 0.2079 0.0
H252 H 0.29519 0.41882 0.23268 0.0
H253 H 0.32227 0.35639 0.26937 0.0
C254 C 0.31748 0.28079 0.30533 0.0
C255 C 0.2693 0.27496 0.28832 0.0
C256 C 0.25378 0.3116 0.26707 0.0
C257 C 0.20576 0.30803 0.25305 0.0
C258 C 0.19184 0.34498 0.23152 0.0
C259 C 0.22389 0.38446 0.2244 0.0
C260 C 0.27044 0.38809 0.23833 0.0
C261 C 0.28546 0.35214 0.25939 0.0
H262 H 0.24325 0.70466 0.6902 0.0
C263 C 0.25636 0.67275 0.70331 0.0
H264 H 0.2763 0.64677 0.74712 0.0
H265 H 0.3178 0.86377 0.80005 0.0
H266 H 0.40285 0.83516 0.79194 0.0
H267 H 0.41974 0.75683 0.7641 0.0
H268 H 0.35154 0.70644 0.7443 0.0
C269 C 0.26214 0.67771 0.73361 0.0
C270 C 0.25149 0.72625 0.74932 0.0
C271 C 0.29165 0.75565 0.76054 0.0
C272 C 0.28186 0.80121 0.77632 0.0
C273 C 0.3229 0.8292 0.78764 0.0
C274 C 0.37199 0.81318 0.78318 0.0
C275 C 0.3815 0.76905 0.76753 0.0
C276 C 0.34199 0.74046 0.75631 0.0
H277 H 0.19146 0.82075 0.83605 0.0
C278 C 0.20295 0.85774 0.82844 0.0
H279 H 0.23747 0.89841 0.79299 0.0
H280 H 0.1654 0.67842 0.73189 0.0
H281 H 0.08042 0.70851 0.73841 0.0
H282 H 0.06377 0.78923 0.76365 0.0
H283 H 0.1321 0.84015 0.78288 0.0
C284 C 0.22193 0.86273 0.80018 0.0
C285 C 0.23179 0.81741 0.78101 0.0
C286 C 0.19165 0.78872 0.76904 0.0
C287 C 0.20142 0.74284 0.75356 0.0
C288 C 0.16035 0.71414 0.74303 0.0
C289 C 0.11132 0.73087 0.74675 0.0
C290 C 0.10193 0.77625 0.76104 0.0
C291 C 0.14146 0.80498 0.77211 0.0
H292 H 0.72172 0.67409 0.33473 0.0
C293 C 0.686 0.68109 0.32363 0.0
H294 H 0.65074 0.69896 0.28187 0.0
H295 H 0.88994 0.77079 0.26895 0.0
H296 H 0.86767 0.83369 0.3062 0.0
H297 H 0.78299 0.83595 0.32871 0.0
H298 H 0.72065 0.77429 0.31473 0.0
C299 C 0.6857 0.69104 0.29355 0.0
C300 C 0.73372 0.69487 0.276 0.0
C301 C 0.76875 0.73329 0.28284 0.0
C302 C 0.81649 0.73409 0.26826 0.0
C303 C 0.85216 0.77009 0.27778 0.0
C304 C 0.84004 0.80622 0.29943 0.0
C305 C 0.79247 0.80734 0.31222 0.0
C306 C 0.75714 0.77141 0.30415 0.0
H307 H 0.87173 0.77069 0.21066 0.0
C308 C 0.89466 0.73732 0.21279 0.0
H309 H 0.90011 0.6646 0.23108 0.0
H310 H 0.67446 0.61818 0.25633 0.0
H311 H 0.69442 0.55816 0.21661 0.0
H312 H 0.77494 0.56231 0.18911 0.0
H313 H 0.83621 0.62627 0.20115 0.0
C314 C 0.87797 0.69859 0.22967 0.0
C315 C 0.8279 0.69866 0.24512 0.0
C316 C 0.79192 0.6616 0.23735 0.0
C317 C 0.74501 0.65958 0.2529 0.0
C318 C 0.7104 0.62159 0.24507 0.0
C319 C 0.72137 0.58693 0.22232 0.0
C320 C 0.76675 0.58925 0.20685 0.0
C321 C 0.80168 0.62609 0.2141 0.0
H322 H 0.80454 0.40096 0.74688 0.0
C323 C 0.77773 0.39853 0.7283 0.0
H324 H 0.72841 0.35146 0.70399 0.0
H325 H 0.88242 0.20274 0.78494 0.0
H326 H 0.94837 0.23326 0.75158 0.0
H327 H 0.9307 0.29733 0.71256 0.0
H328 H 0.8472 0.33195 0.70704 0.0
C329 C 0.75571 0.35436 0.72226 0.0
C330 C 0.76502 0.3096 0.74188 0.0
C331 C 0.81359 0.28821 0.74398 0.0
C332 C 0.8234 0.24987 0.76576 0.0
C333 C 0.87273 0.23109 0.7684 0.0
C334 C 0.91092 0.24831 0.7494 0.0
C335 C 0.901 0.28448 0.72748 0.0
C336 C 0.85299 0.30431 0.72469 0.0
H337 H 0.80755 0.13236 0.78623 0.0
C338 C 0.80383 0.14922 0.80867 0.0
H339 H 0.78931 0.21513 0.83362 0.0
H340 H 0.66638 0.33788 0.74125 0.0
H341 H 0.59933 0.30285 0.77187 0.0
H342 H 0.61581 0.23454 0.80828 0.0
H343 H 0.69959 0.20097 0.81438 0.0
C344 C 0.79501 0.1987 0.81121 0.0
C345 C 0.78426 0.23189 0.78469 0.0
C346 C 0.73491 0.25042 0.7808 0.0
C347 C 0.72527 0.28933 0.75946 0.0
C348 C 0.67582 0.30799 0.75682 0.0
C349 C 0.63692 0.28826 0.7743 0.0
C350 C 0.64621 0.24985 0.79483 0.0
C351 C 0.69452 0.23107 0.79818 0.0
H352 H 0.56786 0.24364 0.27555 0.0
C353 C 0.57273 0.25204 0.29962 0.0
H354 H 0.62502 0.25847 0.33562 0.0
H355 H 0.77665 0.12519 0.25468 0.0
H356 H 0.74563 0.06164 0.28945 0.0
H357 H 0.67761 0.08048 0.32577 0.0
H358 H 0.6399 0.16307 0.32755 0.0
C359 C 0.61932 0.25288 0.31133 0.0
C360 C 0.664 0.24301 0.29162 0.0
C361 C 0.68683 0.19511 0.29151 0.0
C362 C 0.72659 0.18435 0.27072 0.0
C363 C 0.74699 0.13557 0.27025 0.0
C364 C 0.72945 0.09872 0.29005 0.0
C365 C 0.69112 0.10933 0.31052 0.0
C366 C 0.66982 0.15685 0.3113 0.0
H367 H 0.84453 0.19953 0.25091 0.0
C368 C 0.82856 0.20176 0.22817 0.0
H369 H 0.76344 0.21358 0.20196 0.0
H370 H 0.63299 0.3402 0.28862 0.0
H371 H 0.66593 0.40478 0.25524 0.0
H372 H 0.73517 0.38661 0.21962 0.0
H373 H 0.77198 0.30383 0.21715 0.0
C374 C 0.77887 0.2095 0.22475 0.0
C375 C 0.744 0.22182 0.25039 0.0
C376 C 0.72303 0.27055 0.25182 0.0
C377 C 0.68309 0.28112 0.27239 0.0
C378 C 0.66301 0.33008 0.27321 0.0
C379 C 0.68168 0.36753 0.25426 0.0
C380 C 0.72065 0.3573 0.2342 0.0
C381 C 0.74126 0.30952 0.23291 0.0
H382 H 0.3054 0.39911 0.75 0.0
C383 C 0.3012 0.38247 0.72754 0.0
H384 H 0.28946 0.31578 0.70266 0.0
H385 H 0.35698 0.16111 0.80195 0.0
H386 H 0.43183 0.16299 0.77052 0.0
H387 H 0.44243 0.22684 0.73041 0.0
H388 H 0.37823 0.28933 0.72149 0.0
C389 C 0.29335 0.33276 0.72505 0.0
C390 C 0.28929 0.29847 0.75188 0.0
C391 C 0.32722 0.26238 0.75705 0.0
C392 C 0.32126 0.22574 0.78037 0.0
C393 C 0.35971 0.19001 0.78475 0.0
C394 C 0.40284 0.19059 0.76683 0.0
C395 C 0.40878 0.22651 0.74422 0.0
C396 C 0.37157 0.26206 0.73928 0.0
H397 H 0.21911 0.14206 0.80066 0.0
C398 C 0.24187 0.1468 0.82098 0.0
H399 H 0.29652 0.19107 0.84305 0.0
H400 H 0.20801 0.36059 0.74751 0.0
H401 H 0.13426 0.35988 0.77977 0.0
H402 H 0.12548 0.29836 0.82135 0.0
H403 H 0.1902 0.23663 0.83065 0.0
C404 C 0.27206 0.18707 0.82342 0.0
C405 C 0.27722 0.22492 0.79851 0.0
C406 C 0.23963 0.26155 0.79376 0.0
C407 C 0.2454 0.298 0.77025 0.0
C408 C 0.20631 0.33285 0.76541 0.0
C409 C 0.16362 0.33277 0.78372 0.0
C410 C 0.15863 0.29807 0.8071 0.0
C411 C 0.19603 0.26277 0.81215 0.0
H412 H 0.40372 0.70128 0.27996 0.0
C413 C 0.39372 0.71428 0.30265 0.0
H414 H 0.33863 0.74905 0.32994 0.0
H415 H 0.22529 0.85995 0.22417 0.0
H416 H 0.26145 0.92922 0.25225 0.0
H417 H 0.32092 0.91423 0.29425 0.0
H418 H 0.34472 0.82999 0.30839 0.0
C419 C 0.34816 0.7345 0.30753 0.0
C420 C 0.31145 0.74294 0.28234 0.0
C421 C 0.29743 0.79255 0.27453 0.0
C422 C 0.26301 0.80129 0.25029 0.0
C423 C 0.25076 0.85119 0.24256 0.0
C424 C 0.27136 0.89132 0.25843 0.0
C425 C 0.30484 0.88288 0.28208 0.0
C426 C 0.31803 0.83423 0.29005 0.0
H427 H 0.14538 0.78931 0.23117 0.0
C428 C 0.16165 0.78217 0.20886 0.0
H429 H 0.22608 0.75916 0.18462 0.0
H430 H 0.32396 0.64309 0.29419 0.0
H431 H 0.287 0.57404 0.2664 0.0
H432 H 0.22964 0.58932 0.22337 0.0
H433 H 0.20846 0.67382 0.20808 0.0
C434 C 0.21026 0.76905 0.20666 0.0
C435 C 0.2425 0.76047 0.23392 0.0
C436 C 0.2555 0.71086 0.24221 0.0
C437 C 0.28945 0.70204 0.26665 0.0
C438 C 0.29983 0.65205 0.27519 0.0
C439 C 0.27852 0.61199 0.25958 0.0
C440 C 0.24618 0.62059 0.23537 0.0
C441 C 0.23452 0.66932 0.22676 0.0
H442 H 0.72574 0.63208 0.74286 0.0
C443 C 0.72283 0.6489 0.72038 0.0
H444 H 0.72838 0.71515 0.69448 0.0
H445 H 0.69793 0.82704 0.82672 0.0
H446 H 0.61654 0.78671 0.82943 0.0
H447 H 0.59272 0.72173 0.79225 0.0
H448 H 0.65017 0.69635 0.75226 0.0
C449 C 0.729 0.6987 0.71715 0.0
C450 C 0.74485 0.73245 0.74253 0.0
C451 C 0.7109 0.74658 0.76591 0.0
C452 C 0.72441 0.78465 0.78716 0.0
C453 C 0.68955 0.79849 0.81 0.0
C454 C 0.64271 0.77568 0.8118 0.0
C455 C 0.62932 0.73904 0.79087 0.0
C456 C 0.66275 0.72468 0.76807 0.0
H457 H 0.77114 0.90455 0.76858 0.0
C458 C 0.78042 0.89998 0.79255 0.0
H459 H 0.7886 0.848 0.82853 0.0
H460 H 0.82094 0.71059 0.70283 0.0
H461 H 0.90287 0.74978 0.70093 0.0
H462 H 0.92584 0.8159 0.73757 0.0
H463 H 0.8669 0.84333 0.77633 0.0
C464 C 0.78267 0.85355 0.80426 0.0
C465 C 0.77139 0.80919 0.78467 0.0
C466 C 0.8063 0.7932 0.76234 0.0
C467 C 0.79303 0.75493 0.74127 0.0
C468 C 0.82875 0.73987 0.71918 0.0
C469 C 0.87602 0.76189 0.71792 0.0
C470 C 0.88896 0.79912 0.73855 0.0
C471 C 0.8547 0.81468 0.76057 0.0
H472 H 0.04537 0.60995 0.09049 0.0
C473 C 0.03314 0.626 0.11203 0.0
H474 H 0.9961 0.61409 0.15391 0.0
H475 H 0.86141 0.43212 0.12362 0.0
H476 H 0.80018 0.49686 0.13372 0.0
H477 H 0.82609 0.58493 0.13923 0.0
H478 H 0.91341 0.60861 0.13527 0.0
C479 C 0.00821 0.5979 0.13238 0.0
C480 C 0.99309 0.54557 0.12591 0.0
C481 C 0.94155 0.53271 0.12718 0.0
C482 C 0.92648 0.48219 0.12321 0.0
C483 C 0.87499 0.47001 0.12597 0.0
C484 C 0.83936 0.50683 0.13178 0.0
C485 C 0.85394 0.55639 0.13494 0.0
C486 C 0.90432 0.56941 0.13269 0.0
H487 H 0.99551 0.37499 0.15501 0.0
C488 C 0.9672 0.36093 0.13938 0.0
H489 H 0.91925 0.37816 0.10257 0.0
H490 H 0.09596 0.55534 0.1261 0.0
H491 H 0.15615 0.4919 0.11192 0.0
H492 H 0.12843 0.40705 0.09765 0.0
H493 H 0.04021 0.38493 0.09868 0.0
C494 C 0.94813 0.39138 0.11803 0.0
C495 C 0.96291 0.44493 0.11727 0.0
C496 C 0.014 0.45841 0.1138 0.0
C497 C 0.02949 0.50829 0.11959 0.0
C498 C 0.08149 0.5191 0.11974 0.0
C499 C 0.11663 0.48278 0.11198 0.0
C500 C 0.10107 0.43496 0.10412 0.0
C501 C 0.05041 0.42267 0.10504 0.0
H502 H 0.87283 0.5445 0.58956 0.0
C503 C 0.86116 0.52996 0.61161 0.0
H504 H 0.88291 0.49368 0.65217 0.0
H505 H 0.07843 0.38658 0.61495 0.0
H506 H 0.02275 0.31648 0.62373 0.0
H507 H 0.93197 0.32951 0.63056 0.0
H508 H 0.89646 0.41284 0.62894 0.0
C509 C 0.89466 0.50812 0.6301 0.0
C510 C 0.94792 0.50074 0.62138 0.0
C511 C 0.96776 0.45156 0.62115 0.0
C512 C 0.0199 0.44395 0.61658 0.0
C513 C 0.03904 0.3946 0.61789 0.0
C514 C 0.00747 0.35393 0.62291 0.0
C515 C 0.95638 0.36126 0.62679 0.0
C516 C 0.93654 0.40937 0.62591 0.0
H517 H 0.11539 0.52627 0.65074 0.0
C518 C 0.13383 0.50078 0.635 0.0
H519 H 0.1248 0.45245 0.5973 0.0
H520 H 0.92397 0.60112 0.62323 0.0
H521 H 0.97844 0.67004 0.61003 0.0
H522 H 0.06635 0.65521 0.59515 0.0
H523 H 0.1005 0.57107 0.59453 0.0
C524 C 0.10707 0.47858 0.6129 0.0
C525 C 0.05184 0.48552 0.61167 0.0
C526 C 0.0313 0.53422 0.60918 0.0
C527 C 0.97972 0.54225 0.61543 0.0
C528 C 0.96183 0.59211 0.61655 0.0
C529 C 0.99295 0.63227 0.60935 0.0
C530 C 0.04248 0.62397 0.60114 0.0
C531 C 0.06168 0.5756 0.60109 0.0
H532 H 0.439 0.10712 0.42845 0.0
C533 C 0.45299 0.12677 0.40847 0.0
H534 H 0.49334 0.12168 0.36715 0.0
H535 H 0.6241 0.9349 0.39773 0.0
H536 H 0.68663 0.99997 0.3922 0.0
H537 H 0.66176 0.08831 0.38684 0.0
H538 H 0.57429 0.11199 0.38653 0.0
C539 C 0.47919 0.10204 0.38709 0.0
C540 C 0.49345 0.04878 0.39095 0.0
C541 C 0.54493 0.03581 0.39179 0.0
C542 C 0.55929 0.98508 0.39562 0.0
C543 C 0.61097 0.97295 0.39544 0.0
C544 C 0.64735 0.00994 0.39223 0.0
C545 C 0.63335 0.05965 0.38917 0.0
C546 C 0.58287 0.07268 0.38895 0.0
H547 H 0.5003 0.87229 0.36158 0.0
C548 C 0.52451 0.86098 0.38027 0.0
H549 H 0.56233 0.88375 0.4202 0.0
H550 H 0.39153 0.05929 0.38487 0.0
H551 H 0.32898 0.99498 0.39302 0.0
H552 H 0.35389 0.90889 0.40628 0.0
H553 H 0.44153 0.88641 0.41045 0.0
C554 C 0.53761 0.89443 0.40164 0.0
C555 C 0.52215 0.9476 0.39915 0.0
C556 C 0.47065 0.96077 0.39913 0.0
C557 C 0.45626 0.01111 0.39374 0.0
C558 C 0.40463 0.02232 0.3908 0.0
C559 C 0.36827 0.98562 0.39513 0.0
C560 C 0.38229 0.93712 0.40243 0.0
C561 C 0.43279 0.92463 0.40448 0.0
H562 H 0.38499 0.03656 0.89456 0.0
C563 C 0.37276 0.00254 0.90597 0.0
H564 H 0.39557 0.93916 0.93125 0.0
H565 H 0.59351 0.03523 0.85672 0.0
H566 H 0.55021 0.00994 0.81078 0.0
H567 H 0.46693 0.97012 0.81353 0.0
H568 H 0.42593 0.95709 0.86224 0.0
C569 C 0.40684 0.97309 0.91945 0.0
C570 C 0.46088 0.98643 0.91834 0.0
C571 C 0.48585 0.9901 0.88982 0.0
C572 C 0.53534 0.00939 0.88842 0.0
C573 C 0.55731 0.01765 0.85938 0.0
C574 C 0.53262 0.00378 0.83272 0.0
C575 C 0.48565 0.98165 0.83426 0.0
C576 C 0.46235 0.97481 0.86238 0.0
H577 H 0.64076 0.9713 0.89455 0.0
C578 C 0.6504 0.00836 0.90291 0.0
H579 H 0.62331 0.07471 0.92327 0.0
H580 H 0.42449 0.98162 0.97667 0.0
H581 H 0.4699 1.00148 0.02303 0.0
H582 H 0.55792 0.02945 0.02089 0.0
H583 H 0.60092 0.03826 0.97238 0.0
C584 C 0.61441 0.0377 0.9146 0.0
C585 C 0.56144 0.02062 0.91578 0.0
C586 C 0.53718 0.015 0.94436 0.0
C587 C 0.48669 0.99813 0.94563 0.0
C588 C 0.46295 0.99384 0.97442 0.0
C589 C 0.48858 0.00512 1.0012 0.0
C590 C 0.53813 0.0209 1.0 0.0
C591 C 0.56235 0.02584 0.97199 0.0
loop_
_geom_bond_atom_site_label_1
_geom_bond_atom_site_label_2
_geom_bond_distance
_geom_bond_site_symmetry_2
_ccdc_geom_bond_type
Zn0 O3 2.031 . S
Zn0 O5 2.049 . S
Zn0 O10 2.067 . S
Zn1 O2 1.962 . S
Zn1 O4 1.986 . S
Zn1 O6 1.996 . S
Zn1 O9 1.943 . S
O2 Zn1 1.962 . S
O2 C7 1.254 . S
O3 Zn0 2.031 . S
O3 C7 1.269 . S
O4 Zn1 1.986 . S
O4 C11 1.262 . S
O5 Zn0 2.049 . S
O5 C13 1.260 . S
O6 Zn1 1.996 . S
O6 C13 1.257 . S
C7 O2 1.254 . S
C7 O3 1.269 . S
C8 O9 1.249 . S
C8 O10 1.270 . S
O9 Zn1 1.943 . S
O9 C8 1.249 . S
O10 Zn0 2.067 . S
O10 C8 1.270 . S
C11 O4 1.262 . S
C11 O12 1.232 . S
O12 C11 1.232 . S
C13 O5 1.260 . S
C13 O6 1.257 . S
Zn14 O17 2.031 . S
Zn14 O19 2.049 . S
Zn14 O24 2.067 . S
Zn15 O16 1.962 . S
Zn15 O18 1.986 . S
Zn15 O20 1.996 . S
Zn15 O23 1.943 . S
O16 Zn15 1.962 . S
O16 C21 1.254 . S
O17 Zn14 2.031 . S
O17 C21 1.269 . S
O18 Zn15 1.986 . S
O18 C25 1.262 . S
O19 Zn14 2.049 . S
O19 C27 1.260 . S
O20 Zn15 1.996 . S
O20 C27 1.257 . S
C21 O16 1.254 . S
C21 O17 1.269 . S
C22 O23 1.249 . S
C22 O24 1.270 . S
O23 Zn15 1.943 . S
O23 C22 1.249 . S
O24 Zn14 2.067 . S
O24 C22 1.270 . S
C25 O18 1.262 . S
C25 O26 1.232 . S
O26 C25 1.232 . S
C27 O19 1.260 . S
C27 O20 1.257 . S
Zn28 O31 2.031 . S
Zn28 O33 2.049 . S
Zn28 O38 2.067 . S
Zn29 O30 1.962 . S
Zn29 O32 1.986 . S
Zn29 O34 1.996 . S
Zn29 O37 1.943 . S
O30 Zn29 1.962 . S
O30 C35 1.254 . S
O31 Zn28 2.031 . S
O31 C35 1.269 . S
O32 Zn29 1.986 . S
O32 C39 1.262 . S
O33 Zn28 2.049 . S
O33 C41 1.260 . S
O34 Zn29 1.996 . S
O34 C41 1.257 . S
C35 O30 1.254 . S
C35 O31 1.269 . S
C36 O37 1.249 . S
C36 O38 1.270 . S
O37 Zn29 1.943 . S
O37 C36 1.249 . S
O38 Zn28 2.067 . S
O38 C36 1.270 . S
C39 O32 1.262 . S
C39 O40 1.232 . S
O40 C39 1.232 . S
C41 O33 1.260 . S
C41 O34 1.257 . S
Zn42 O45 2.031 . S
Zn42 O47 2.049 . S
Zn42 O52 2.067 . S
Zn43 O44 1.962 . S
Zn43 O46 1.986 . S
Zn43 O48 1.996 . S
Zn43 O51 1.943 . S
O44 Zn43 1.962 . S
O44 C49 1.254 . S
O45 Zn42 2.031 . S
O45 C49 1.269 . S
O46 Zn43 1.986 . S
O46 C53 1.262 . S
O47 Zn42 2.049 . S
O47 C55 1.260 . S
O48 Zn43 1.996 . S
O48 C55 1.257 . S
C49 O44 1.254 . S
C49 O45 1.269 . S
C50 O51 1.249 . S
C50 O52 1.270 . S
O51 Zn43 1.943 . S
O51 C50 1.249 . S
O52 Zn42 2.067 . S
O52 C50 1.270 . S
C53 O46 1.262 . S
C53 O54 1.232 . S
O54 C53 1.232 . S
C55 O47 1.260 . S
C55 O48 1.257 . S
Zn56 O59 2.031 . S
Zn56 O61 2.049 . S
Zn56 O66 2.067 . S
Zn57 O58 1.962 . S
Zn57 O60 1.986 . S
Zn57 O62 1.996 . S
Zn57 O65 1.943 . S
O58 Zn57 1.962 . S
O58 C63 1.254 . S
O59 Zn56 2.031 . S
O59 C63 1.269 . S
O60 Zn57 1.986 . S
O60 C67 1.262 . S
O61 Zn56 2.049 . S
O61 C69 1.260 . S
O62 Zn57 1.996 . S
O62 C69 1.257 . S
C63 O58 1.254 . S
C63 O59 1.269 . S
C64 O65 1.249 . S
C64 O66 1.270 . S
O65 Zn57 1.943 . S
O65 C64 1.249 . S
O66 Zn56 2.067 . S
O66 C64 1.270 . S
C67 O60 1.262 . S
C67 O68 1.232 . S
O68 C67 1.232 . S
C69 O61 1.260 . S
C69 O62 1.257 . S
Zn70 O73 2.031 . S
Zn70 O75 2.049 . S
Zn70 O80 2.067 . S
Zn71 O72 1.962 . S
Zn71 O74 1.986 . S
Zn71 O76 1.996 . S
Zn71 O79 1.943 . S
O72 Zn71 1.962 . S
O72 C77 1.254 . S
O73 Zn70 2.031 . S
O73 C77 1.269 . S
O74 Zn71 1.986 . S
O74 C81 1.262 . S
O75 Zn70 2.049 . S
O75 C83 1.260 . S
O76 Zn71 1.996 . S
O76 C83 1.257 . S
C77 O72 1.254 . S
C77 O73 1.269 . S
C78 O79 1.249 . S
C78 O80 1.270 . S
O79 Zn71 1.943 . S
O79 C78 1.249 . S
O80 Zn70 2.067 . S
O80 C78 1.270 . S
C81 O74 1.262 . S
C81 O82 1.232 . S
O82 C81 1.232 . S
C83 O75 1.260 . S
C83 O76 1.257 . S
Zn84 O87 2.031 . S
Zn84 O89 2.049 . S
Zn84 O94 2.067 . S
Zn85 O86 1.962 . S
Zn85 O88 1.986 . S
Zn85 O90 1.996 . S
Zn85 O93 1.943 . S
O86 Zn85 1.962 . S
O86 C91 1.254 . S
O87 Zn84 2.031 . S
O87 C91 1.269 . S
O88 Zn85 1.986 . S
O88 C95 1.262 . S
O89 Zn84 2.049 . S
O89 C97 1.260 . S
O90 Zn85 1.996 . S
O90 C97 1.257 . S
C91 O86 1.254 . S
C91 O87 1.269 . S
C92 O93 1.249 . S
C92 O94 1.270 . S
O93 Zn85 1.943 . S
O93 C92 1.249 . S
O94 Zn84 2.067 . S
O94 C92 1.270 . S
C95 O88 1.262 . S
C95 O96 1.232 . S
O96 C95 1.232 . S
C97 O89 1.260 . S
C97 O90 1.257 . S
Zn98 O101 2.031 . S
Zn98 O103 2.049 . S
Zn98 O108 2.067 . S
Zn99 O100 1.962 . S
Zn99 O102 1.986 . S
Zn99 O104 1.996 . S
Zn99 O107 1.943 . S
O100 Zn99 1.962 . S
O100 C105 1.254 . S
O101 Zn98 2.031 . S
O101 C105 1.269 . S
O102 Zn99 1.986 . S
O102 C109 1.262 . S
O103 Zn98 2.049 . S
O103 C111 1.260 . S
O104 Zn99 1.996 . S
O104 C111 1.257 . S
C105 O100 1.254 . S
C105 O101 1.269 . S
C106 O107 1.249 . S
C106 O108 1.270 . S
O107 Zn99 1.943 . S
O107 C106 1.249 . S
O108 Zn98 2.067 . S
O108 C106 1.270 . S
C109 O102 1.262 . S
C109 O110 1.232 . S
O110 C109 1.232 . S
C111 O103 1.260 . S
C111 O104 1.257 . S
H112 C113 0.951 . S
C113 H112 0.951 . S
C113 C119 1.265 . S
H114 C119 0.950 . S
H115 C123 0.949 . S
H116 C124 0.950 . S
H117 C125 0.951 . S
H118 C126 0.951 . S
C119 C113 1.265 . S
C119 H114 0.950 . S
C119 C120 1.478 . S
C120 C119 1.478 . S
C120 C121 1.397 . S
C120 C137 1.394 . S
C121 C120 1.397 . S
C121 C122 1.438 1_554 S
C121 C126 1.429 . S
C122 C121 1.438 1_556 S
C122 C123 1.428 . S
C122 C135 1.394 . S
C123 H115 0.949 . S
C123 C122 1.428 . S
C123 C124 1.345 1_556 S
C124 H116 0.950 . S
C124 C123 1.345 1_554 S
C124 C125 1.424 . S
C125 H117 0.951 . S
C125 C124 1.424 . S
C125 C126 1.347 . S
C126 H118 0.951 . S
C126 C121 1.429 . S
C126 C125 1.347 . S
H127 C128 0.951 . S
C128 H127 0.951 . S
C128 C134 1.265 . S
H129 C134 0.950 . S
H130 C138 0.949 . S
H131 C139 0.950 . S
H132 C140 0.951 . S
H133 C141 0.951 . S
C134 C128 1.265 . S
C134 H129 0.950 . S
C134 C135 1.478 . S
C135 C122 1.394 . S
C135 C134 1.478 . S
C135 C136 1.397 . S
C136 C135 1.397 . S
C136 C137 1.438 1_556 S
C136 C141 1.429 . S
C137 C120 1.394 . S
C137 C136 1.438 1_554 S
C137 C138 1.428 . S
C138 H130 0.949 . S
C138 C137 1.428 . S
C138 C139 1.345 1_554 S
C139 H131 0.950 . S
C139 C138 1.345 1_556 S
C139 C140 1.424 . S
C140 H132 0.951 . S
C140 C139 1.424 . S
C140 C141 1.347 . S
C141 H133 0.951 . S
C141 C136 1.429 . S
C141 C140 1.347 . S
H142 C143 0.951 . S
C143 H142 0.951 . S
C143 C149 1.265 . S
H144 C149 0.950 . S
H145 C153 0.949 . S
H146 C154 0.950 . S
H147 C155 0.951 . S
H148 C156 0.951 . S
C149 C143 1.265 . S
C149 H144 0.950 . S
C149 C150 1.478 . S
C150 C149 1.478 . S
C150 C151 1.397 . S
C150 C167 1.394 . S
C151 C150 1.397 . S
C151 C152 1.438 . S
C151 C156 1.429 . S
C152 C151 1.438 . S
C152 C153 1.428 . S
C152 C165 1.394 . S
C153 H145 0.949 . S
C153 C152 1.428 . S
C153 C154 1.345 . S
C154 H146 0.950 . S
C154 C153 1.345 . S
C154 C155 1.424 . S
C155 H147 0.951 . S
C155 C154 1.424 . S
C155 C156 1.347 . S
C156 H148 0.951 . S
C156 C151 1.429 . S
C156 C155 1.347 . S
H157 C158 0.951 . S
C158 H157 0.951 . S
C158 C164 1.265 . S
H159 C164 0.950 . S
H160 C168 0.949 . S
H161 C169 0.950 . S
H162 C170 0.951 . S
H163 C171 0.951 . S
C164 C158 1.265 . S
C164 H159 0.950 . S
C164 C165 1.478 . S
C165 C152 1.394 . S
C165 C164 1.478 . S
C165 C166 1.397 . S
C166 C165 1.397 . S
C166 C167 1.438 . S
C166 C171 1.429 . S
C167 C150 1.394 . S
C167 C166 1.438 . S
C167 C168 1.428 . S
C168 H160 0.949 . S
C168 C167 1.428 . S
C168 C169 1.345 . S
C169 H161 0.950 . S
C169 C168 1.345 . S
C169 C170 1.424 . S
C170 H162 0.951 . S
C170 C169 1.424 . S
C170 C171 1.347 . S
C171 H163 0.951 . S
C171 C166 1.429 . S
C171 C170 1.347 . S
H172 C173 0.951 . S
C173 H172 0.951 . S
C173 C179 1.265 . S
H174 C179 0.950 . S
H175 C183 0.949 . S
H176 C184 0.950 . S
H177 C185 0.951 . S
H178 C186 0.951 1_554 S
C179 C173 1.265 . S
C179 H174 0.950 . S
C179 C180 1.478 . S
C180 C179 1.478 . S
C180 C181 1.392 1_554 S
C180 C197 1.394 . S
C181 C180 1.392 1_556 S
C181 C182 1.442 . S
C181 C186 1.429 . S
C182 C181 1.442 . S
C182 C183 1.428 . S
C182 C195 1.394 . S
C183 H175 0.949 . S
C183 C182 1.428 . S
C183 C184 1.345 . S
C184 H176 0.950 . S
C184 C183 1.345 . S
C184 C185 1.424 . S
C185 H177 0.951 . S
C185 C184 1.424 . S
C185 C186 1.347 . S
C186 H178 0.951 1_556 S
C186 C181 1.429 . S
C186 C185 1.347 . S
H187 C188 0.951 . S
C188 H187 0.951 . S
C188 C194 1.265 . S
H189 C194 0.950 . S
H190 C198 0.949 . S
H191 C199 0.950 . S
H192 C200 0.951 . S
H193 C201 0.951 1_556 S
C194 C188 1.265 . S
C194 H189 0.950 . S
C194 C195 1.478 . S
C195 C182 1.394 . S
C195 C194 1.478 . S
C195 C196 1.392 1_556 S
C196 C195 1.392 1_554 S
C196 C197 1.442 . S
C196 C201 1.429 . S
C197 C180 1.394 . S
C197 C196 1.442 . S
C197 C198 1.428 . S
C198 H190 0.949 . S
C198 C197 1.428 . S
C198 C199 1.345 . S
C199 H191 0.950 . S
C199 C198 1.345 . S
C199 C200 1.424 . S
C200 H192 0.951 . S
C200 C199 1.424 . S
C200 C201 1.347 . S
C201 H193 0.951 1_554 S
C201 C196 1.429 . S
C201 C200 1.347 . S
H202 C203 0.951 . S
C203 H202 0.951 . S
C203 C209 1.265 . S
H204 C209 0.950 . S
H205 C213 0.949 . S
H206 C214 0.950 . S
H207 C215 0.951 . S
H208 C216 0.951 . S
C209 C203 1.265 . S
C209 H204 0.950 . S
C209 C210 1.478 . S
C210 C209 1.478 . S
C210 C211 1.397 . S
C210 C227 1.394 . S
C211 C210 1.397 . S
C211 C212 1.438 . S
C211 C216 1.429 . S
C212 C211 1.438 . S
C212 C213 1.428 . S
C212 C225 1.394 . S
C213 H205 0.949 . S
C213 C212 1.428 . S
C213 C214 1.345 . S
C214 H206 0.950 . S
C214 C213 1.345 . S
C214 C215 1.424 . S
C215 H207 0.951 . S
C215 C214 1.424 . S
C215 C216 1.347 . S
C216 H208 0.951 . S
C216 C211 1.429 . S
C216 C215 1.347 . S
H217 C218 0.951 . S
C218 H217 0.951 . S
C218 C224 1.265 . S
H219 C224 0.950 . S
H220 C228 0.949 . S
H221 C229 0.950 . S
H222 C230 0.951 . S
H223 C231 0.951 . S
C224 C218 1.265 . S
C224 H219 0.950 . S
C224 C225 1.478 . S
C225 C212 1.394 . S
C225 C224 1.478 . S
C225 C226 1.397 . S
C226 C225 1.397 . S
C226 C227 1.438 . S
C226 C231 1.429 . S
C227 C210 1.394 . S
C227 C226 1.438 . S
C227 C228 1.428 . S
C228 H220 0.949 . S
C228 C227 1.428 . S
C228 C229 1.345 . S
C229 H221 0.950 . S
C229 C228 1.345 . S
C229 C230 1.424 . S
C230 H222 0.951 . S
C230 C229 1.424 . S
C230 C231 1.347 . S
C231 H223 0.951 . S
C231 C226 1.429 . S
C231 C230 1.347 . S
H232 C233 0.951 . S
C233 H232 0.951 . S
C233 C239 1.265 . S
H234 C239 0.950 . S
H235 C243 0.949 . S
H236 C244 0.950 . S
H237 C245 0.951 . S
H238 C246 0.951 . S
C239 C233 1.265 . S
C239 H234 0.950 . S
C239 C240 1.478 . S
C240 C239 1.478 . S
C240 C241 1.397 . S
C240 C257 1.394 . S
C241 C240 1.397 . S
C241 C242 1.438 . S
C241 C246 1.429 . S
C242 C241 1.438 . S
C242 C243 1.428 . S
C242 C255 1.394 . S
C243 H235 0.949 . S
C243 C242 1.428 . S
C243 C244 1.345 . S
C244 H236 0.950 . S
C244 C243 1.345 . S
C244 C245 1.424 . S
C245 H237 0.951 . S
C245 C244 1.424 . S
C245 C246 1.347 . S
C246 H238 0.951 . S
C246 C241 1.429 . S
C246 C245 1.347 . S
H247 C248 0.951 . S
C248 H247 0.951 . S
C248 C254 1.265 . S
H249 C254 0.950 . S
H250 C258 0.949 . S
H251 C259 0.950 . S
H252 C260 0.951 . S
H253 C261 0.951 . S
C254 C248 1.265 . S
C254 H249 0.950 . S
C254 C255 1.478 . S
C255 C242 1.394 . S
C255 C254 1.478 . S
C255 C256 1.397 . S
C256 C255 1.397 . S
C256 C257 1.438 . S
C256 C261 1.429 . S
C257 C240 1.394 . S
C257 C256 1.438 . S
C257 C258 1.428 . S
C258 H250 0.949 . S
C258 C257 1.428 . S
C258 C259 1.345 . S
C259 H251 0.950 . S
C259 C258 1.345 . S
C259 C260 1.424 . S
C260 H252 0.951 . S
C260 C259 1.424 . S
C260 C261 1.347 . S
C261 H253 0.951 . S
C261 C256 1.429 . S
C261 C260 1.347 . S
H262 C263 0.951 . S
C263 H262 0.951 . S
C263 C269 1.265 . S
H264 C269 0.950 . S
H265 C273 0.949 . S
H266 C274 0.950 . S
H267 C275 0.951 . S
H268 C276 0.951 . S
C269 C263 1.265 . S
C269 H264 0.950 . S
C269 C270 1.478 . S
C270 C269 1.478 . S
C270 C271 1.397 . S
C270 C287 1.394 . S
C271 C270 1.397 . S
C271 C272 1.438 . S
C271 C276 1.429 . S
C272 C271 1.438 . S
C272 C273 1.428 . S
C272 C285 1.394 . S
C273 H265 0.949 . S
C273 C272 1.428 . S
C273 C274 1.345 . S
C274 H266 0.950 . S
C274 C273 1.345 . S
C274 C275 1.424 . S
C275 H267 0.951 . S
C275 C274 1.424 . S
C275 C276 1.347 . S
C276 H268 0.951 . S
C276 C271 1.429 . S
C276 C275 1.347 . S
H277 C278 0.951 . S
C278 H277 0.951 . S
C278 C284 1.265 . S
H279 C284 0.950 . S
H280 C288 0.949 . S
H281 C289 0.950 . S
H282 C290 0.951 . S
H283 C291 0.951 . S
C284 C278 1.265 . S
C284 H279 0.950 . S
C284 C285 1.478 . S
C285 C272 1.394 . S
C285 C284 1.478 . S
C285 C286 1.397 . S
C286 C285 1.397 . S
C286 C287 1.438 . S
C286 C291 1.429 . S
C287 C270 1.394 . S
C287 C286 1.438 . S
C287 C288 1.428 . S
C288 H280 0.949 . S
C288 C287 1.428 . S
C288 C289 1.345 . S
C289 H281 0.950 . S
C289 C288 1.345 . S
C289 C290 1.424 . S
C290 H282 0.951 . S
C290 C289 1.424 . S
C290 C291 1.347 . S
C291 H283 0.951 . S
C291 C286 1.429 . S
C291 C290 1.347 . S
H292 C293 0.951 . S
C293 H292 0.951 . S
C293 C299 1.265 . S
H294 C299 0.950 . S
H295 C303 0.949 . S
H296 C304 0.950 . S
H297 C305 0.951 . S
H298 C306 0.951 . S
C299 C293 1.265 . S
C299 H294 0.950 . S
C299 C300 1.478 . S
C300 C299 1.478 . S
C300 C301 1.397 . S
C300 C317 1.394 . S
C301 C300 1.397 . S
C301 C302 1.438 . S
C301 C306 1.429 . S
C302 C301 1.438 . S
C302 C303 1.428 . S
C302 C315 1.394 . S
C303 H295 0.949 . S
C303 C302 1.428 . S
C303 C304 1.345 . S
C304 H296 0.950 . S
C304 C303 1.345 . S
C304 C305 1.424 . S
C305 H297 0.951 . S
C305 C304 1.424 . S
C305 C306 1.347 . S
C306 H298 0.951 . S
C306 C301 1.429 . S
C306 C305 1.347 . S
H307 C308 0.951 . S
C308 H307 0.951 . S
C308 C314 1.265 . S
H309 C314 0.950 . S
H310 C318 0.949 . S
H311 C319 0.950 . S
H312 C320 0.951 . S
H313 C321 0.951 . S
C314 C308 1.265 . S
C314 H309 0.950 . S
C314 C315 1.478 . S
C315 C302 1.394 . S
C315 C314 1.478 . S
C315 C316 1.397 . S
C316 C315 1.397 . S
C316 C317 1.438 . S
C316 C321 1.429 . S
C317 C300 1.394 . S
C317 C316 1.438 . S
C317 C318 1.428 . S
C318 H310 0.949 . S
C318 C317 1.428 . S
C318 C319 1.345 . S
C319 H311 0.950 . S
C319 C318 1.345 . S
C319 C320 1.424 . S
C320 H312 0.951 . S
C320 C319 1.424 . S
C320 C321 1.347 . S
C321 H313 0.951 . S
C321 C316 1.429 . S
C321 C320 1.347 . S
H322 C323 0.951 . S
C323 H322 0.951 . S
C323 C329 1.265 . S
H324 C329 0.950 . S
H325 C333 0.949 . S
H326 C334 0.950 . S
H327 C335 0.951 . S
H328 C336 0.951 . S
C329 C323 1.265 . S
C329 H324 0.950 . S
C329 C330 1.478 . S
C330 C329 1.478 . S
C330 C331 1.397 . S
C330 C347 1.394 . S
C331 C330 1.397 . S
C331 C332 1.438 . S
C331 C336 1.429 . S
C332 C331 1.438 . S
C332 C333 1.428 . S
C332 C345 1.394 . S
C333 H325 0.949 . S
C333 C332 1.428 . S
C333 C334 1.345 . S
C334 H326 0.950 . S
C334 C333 1.345 . S
C334 C335 1.424 . S
C335 H327 0.951 . S
C335 C334 1.424 . S
C335 C336 1.347 . S
C336 H328 0.951 . S
C336 C331 1.429 . S
C336 C335 1.347 . S
H337 C338 0.951 . S
C338 H337 0.951 . S
C338 C344 1.265 . S
H339 C344 0.950 . S
H340 C348 0.949 . S
H341 C349 0.950 . S
H342 C350 0.951 . S
H343 C351 0.951 . S
C344 C338 1.265 . S
C344 H339 0.950 . S
C344 C345 1.478 . S
C345 C332 1.394 . S
C345 C344 1.478 . S
C345 C346 1.397 . S
C346 C345 1.397 . S
C346 C347 1.438 . S
C346 C351 1.429 . S
C347 C330 1.394 . S
C347 C346 1.438 . S
C347 C348 1.428 . S
C348 H340 0.949 . S
C348 C347 1.428 . S
C348 C349 1.345 . S
C349 H341 0.950 . S
C349 C348 1.345 . S
C349 C350 1.424 . S
C350 H342 0.951 . S
C350 C349 1.424 . S
C350 C351 1.347 . S
C351 H343 0.951 . S
C351 C346 1.429 . S
C351 C350 1.347 . S
H352 C353 0.951 . S
C353 H352 0.951 . S
C353 C359 1.265 . S
H354 C359 0.950 . S
H355 C363 0.949 . S
H356 C364 0.950 . S
H357 C365 0.951 . S
H358 C366 0.951 . S
C359 C353 1.265 . S
C359 H354 0.950 . S
C359 C360 1.478 . S
C360 C359 1.478 . S
C360 C361 1.397 . S
C360 C377 1.394 . S
C361 C360 1.397 . S
C361 C362 1.438 . S
C361 C366 1.429 . S
C362 C361 1.438 . S
C362 C363 1.428 . S
C362 C375 1.394 . S
C363 H355 0.949 . S
C363 C362 1.428 . S
C363 C364 1.345 . S
C364 H356 0.950 . S
C364 C363 1.345 . S
C364 C365 1.424 . S
C365 H357 0.951 . S
C365 C364 1.424 . S
C365 C366 1.347 . S
C366 H358 0.951 . S
C366 C361 1.429 . S
C366 C365 1.347 . S
H367 C368 0.951 . S
C368 H367 0.951 . S
C368 C374 1.265 . S
H369 C374 0.950 . S
H370 C378 0.949 . S
H371 C379 0.950 . S
H372 C380 0.951 . S
H373 C381 0.951 . S
C374 C368 1.265 . S
C374 H369 0.950 . S
C374 C375 1.478 . S
C375 C362 1.394 . S
C375 C374 1.478 . S
C375 C376 1.397 . S
C376 C375 1.397 . S
C376 C377 1.438 . S
C376 C381 1.429 . S
C377 C360 1.394 . S
C377 C376 1.438 . S
C377 C378 1.428 . S
C378 H370 0.949 . S
C378 C377 1.428 . S
C378 C379 1.345 . S
C379 H371 0.950 . S
C379 C378 1.345 . S
C379 C380 1.424 . S
C380 H372 0.951 . S
C380 C379 1.424 . S
C380 C381 1.347 . S
C381 H373 0.951 . S
C381 C376 1.429 . S
C381 C380 1.347 . S
H382 C383 0.951 . S
C383 H382 0.951 . S
C383 C389 1.265 . S
H384 C389 0.950 . S
H385 C393 0.949 . S
H386 C394 0.950 . S
H387 C395 0.951 . S
H388 C396 0.951 . S
C389 C383 1.265 . S
C389 H384 0.950 . S
C389 C390 1.478 . S
C390 C389 1.478 . S
C390 C391 1.397 . S
C390 C407 1.394 . S
C391 C390 1.397 . S
C391 C392 1.438 . S
C391 C396 1.429 . S
C392 C391 1.438 . S
C392 C393 1.428 . S
C392 C405 1.394 . S
C393 H385 0.949 . S
C393 C392 1.428 . S
C393 C394 1.345 . S
C394 H386 0.950 . S
C394 C393 1.345 . S
C394 C395 1.424 . S
C395 H387 0.951 . S
C395 C394 1.424 . S
C395 C396 1.347 . S
C396 H388 0.951 . S
C396 C391 1.429 . S
C396 C395 1.347 . S
H397 C398 0.951 . S
C398 H397 0.951 . S
C398 C404 1.265 . S
H399 C404 0.950 . S
H400 C408 0.949 . S
H401 C409 0.950 . S
H402 C410 0.951 . S
H403 C411 0.951 . S
C404 C398 1.265 . S
C404 H399 0.950 . S
C404 C405 1.478 . S
C405 C392 1.394 . S
C405 C404 1.478 . S
C405 C406 1.397 . S
C406 C405 1.397 . S
C406 C407 1.438 . S
C406 C411 1.429 . S
C407 C390 1.394 . S
C407 C406 1.438 . S
C407 C408 1.428 . S
C408 H400 0.949 . S
C408 C407 1.428 . S
C408 C409 1.345 . S
C409 H401 0.950 . S
C409 C408 1.345 . S
C409 C410 1.424 . S
C410 H402 0.951 . S
C410 C409 1.424 . S
C410 C411 1.347 . S
C411 H403 0.951 . S
C411 C406 1.429 . S
C411 C410 1.347 . S
H412 C413 0.951 . S
C413 H412 0.951 . S
C413 C419 1.265 . S
H414 C419 0.950 . S
H415 C423 0.949 . S
H416 C424 0.950 . S
H417 C425 0.951 . S
H418 C426 0.951 . S
C419 C413 1.265 . S
C419 H414 0.950 . S
C419 C420 1.478 . S
C420 C419 1.478 . S
C420 C421 1.397 . S
C420 C437 1.394 . S
C421 C420 1.397 . S
C421 C422 1.438 . S
C421 C426 1.429 . S
C422 C421 1.438 . S
C422 C423 1.428 . S
C422 C435 1.394 . S
C423 H415 0.949 . S
C423 C422 1.428 . S
C423 C424 1.345 . S
C424 H416 0.950 . S
C424 C423 1.345 . S
C424 C425 1.424 . S
C425 H417 0.951 . S
C425 C424 1.424 . S
C425 C426 1.347 . S
C426 H418 0.951 . S
C426 C421 1.429 . S
C426 C425 1.347 . S
H427 C428 0.951 . S
C428 H427 0.951 . S
C428 C434 1.265 . S
H429 C434 0.950 . S
H430 C438 0.949 . S
H431 C439 0.950 . S
H432 C440 0.951 . S
H433 C441 0.951 . S
C434 C428 1.265 . S
C434 H429 0.950 . S
C434 C435 1.478 . S
C435 C422 1.394 . S
C435 C434 1.478 . S
C435 C436 1.397 . S
C436 C435 1.397 . S
C436 C437 1.438 . S
C436 C441 1.429 . S
C437 C420 1.394 . S
C437 C436 1.438 . S
C437 C438 1.428 . S
C438 H430 0.949 . S
C438 C437 1.428 . S
C438 C439 1.345 . S
C439 H431 0.950 . S
C439 C438 1.345 . S
C439 C440 1.424 . S
C440 H432 0.951 . S
C440 C439 1.424 . S
C440 C441 1.347 . S
C441 H433 0.951 . S
C441 C436 1.429 . S
C441 C440 1.347 . S
H442 C443 0.951 . S
C443 H442 0.951 . S
C443 C449 1.265 . S
H444 C449 0.950 . S
H445 C453 0.949 . S
H446 C454 0.950 . S
H447 C455 0.951 . S
H448 C456 0.951 . S
C449 C443 1.265 . S
C449 H444 0.950 . S
C449 C450 1.478 . S
C450 C449 1.478 . S
C450 C451 1.397 . S
C450 C467 1.394 . S
C451 C450 1.397 . S
C451 C452 1.438 . S
C451 C456 1.429 . S
C452 C451 1.438 . S
C452 C453 1.428 . S
C452 C465 1.394 . S
C453 H445 0.949 . S
C453 C452 1.428 . S
C453 C454 1.345 . S
C454 H446 0.950 . S
C454 C453 1.345 . S
C454 C455 1.424 . S
C455 H447 0.951 . S
C455 C454 1.424 . S
C455 C456 1.347 . S
C456 H448 0.951 . S
C456 C451 1.429 . S
C456 C455 1.347 . S
H457 C458 0.951 . S
C458 H457 0.951 . S
C458 C464 1.265 . S
H459 C464 0.950 . S
H460 C468 0.949 . S
H461 C469 0.950 . S
H462 C470 0.951 . S
H463 C471 0.951 . S
C464 C458 1.265 . S
C464 H459 0.950 . S
C464 C465 1.478 . S
C465 C452 1.394 . S
C465 C464 1.478 . S
C465 C466 1.397 . S
C466 C465 1.397 . S
C466 C467 1.438 . S
C466 C471 1.429 . S
C467 C450 1.394 . S
C467 C466 1.438 . S
C467 C468 1.428 . S
C468 H460 0.949 . S
C468 C467 1.428 . S
C468 C469 1.345 . S
C469 H461 0.950 . S
C469 C468 1.345 . S
C469 C470 1.424 . S
C470 H462 0.951 . S
C470 C469 1.424 . S
C470 C471 1.347 . S
C471 H463 0.951 . S
C471 C466 1.429 . S
C471 C470 1.347 . S
H472 C473 0.951 . S
C473 H472 0.951 . S
C473 C479 1.265 . S
H474 C479 0.950 . S
H475 C483 0.949 1_455 S
H476 C484 0.950 . S
H477 C485 0.951 . S
H478 C486 0.951 . S
C479 C473 1.265 . S
C479 H474 0.950 . S
C479 C480 1.478 . S
C480 C479 1.478 . S
C480 C481 1.397 . S
C480 C497 1.394 1_655 S
C481 C480 1.397 . S
C481 C482 1.438 . S
C481 C486 1.429 . S
C482 C481 1.438 . S
C482 C483 1.428 . S
C482 C495 1.394 1_655 S
C483 H475 0.949 1_655 S
C483 C482 1.428 . S
C483 C484 1.345 . S
C484 H476 0.950 . S
C484 C483 1.345 . S
C484 C485 1.424 . S
C485 H477 0.951 . S
C485 C484 1.424 . S
C485 C486 1.347 . S
C486 H478 0.951 . S
C486 C481 1.429 . S
C486 C485 1.347 . S
H487 C488 0.951 . S
C488 H487 0.951 . S
C488 C494 1.265 . S
H489 C494 0.950 . S
H490 C498 0.949 1_655 S
H491 C499 0.950 . S
H492 C500 0.951 . S
H493 C501 0.951 . S
C494 C488 1.265 . S
C494 H489 0.950 . S
C494 C495 1.478 . S
C495 C482 1.394 1_455 S
C495 C494 1.478 . S
C495 C496 1.397 . S
C496 C495 1.397 . S
C496 C497 1.438 . S
C496 C501 1.429 . S
C497 C480 1.394 1_455 S
C497 C496 1.438 . S
C497 C498 1.428 . S
C498 H490 0.949 1_455 S
C498 C497 1.428 . S
C498 C499 1.345 . S
C499 H491 0.950 . S
C499 C498 1.345 . S
C499 C500 1.424 . S
C500 H492 0.951 . S
C500 C499 1.424 . S
C500 C501 1.347 . S
C501 H493 0.951 . S
C501 C496 1.429 . S
C501 C500 1.347 . S
H502 C503 0.951 . S
C503 H502 0.951 . S
C503 C509 1.265 . S
H504 C509 0.950 . S
H505 C513 0.949 . S
H506 C514 0.950 . S
H507 C515 0.954 . S
H508 C516 0.951 . S
C509 C503 1.265 . S
C509 H504 0.950 . S
C509 C510 1.478 . S
C510 C509 1.478 . S
C510 C511 1.397 . S
C510 C527 1.394 . S
C511 C510 1.397 . S
C511 C512 1.438 1_655 S
C511 C516 1.429 . S
C512 C511 1.438 1_455 S
C512 C513 1.428 . S
C512 C525 1.394 . S
C513 H505 0.949 . S
C513 C512 1.428 . S
C513 C514 1.345 . S
C514 H506 0.950 . S
C514 C513 1.345 . S
C514 C515 1.413 1_455 S
C515 H507 0.954 . S
C515 C514 1.413 1_655 S
C515 C516 1.355 . S
C516 H508 0.951 . S
C516 C511 1.429 . S
C516 C515 1.355 . S
H517 C518 0.951 . S
C518 H517 0.951 . S
C518 C524 1.265 . S
H519 C524 0.950 . S
H520 C528 0.949 . S
H521 C529 0.950 . S
H522 C530 0.954 . S
H523 C531 0.951 . S
C524 C518 1.265 . S
C524 H519 0.950 . S
C524 C525 1.478 . S
C525 C512 1.394 . S
C525 C524 1.478 . S
C525 C526 1.397 . S
C526 C525 1.397 . S
C526 C527 1.438 1_455 S
C526 C531 1.429 . S
C527 C510 1.394 . S
C527 C526 1.438 1_655 S
C527 C528 1.428 . S
C528 H520 0.949 . S
C528 C527 1.428 . S
C528 C529 1.345 . S
C529 H521 0.950 . S
C529 C528 1.345 . S
C529 C530 1.413 1_655 S
C530 H522 0.954 . S
C530 C529 1.413 1_455 S
C530 C531 1.355 . S
C531 H523 0.951 . S
C531 C526 1.429 . S
C531 C530 1.355 . S
H532 C533 0.951 . S
C533 H532 0.951 . S
C533 C539 1.265 . S
H534 C539 0.950 . S
H535 C543 0.949 . S
H536 C544 0.950 . S
H537 C545 0.951 . S
H538 C546 0.951 . S
C539 C533 1.265 . S
C539 H534 0.950 . S
C539 C540 1.478 . S
C540 C539 1.478 . S
C540 C541 1.397 . S
C540 C557 1.394 . S
C541 C540 1.397 . S
C541 C542 1.438 1_545 S
C541 C546 1.429 . S
C542 C541 1.438 1_565 S
C542 C543 1.428 . S
C542 C555 1.394 . S
C543 H535 0.949 . S
C543 C542 1.428 . S
C543 C544 1.345 . S
C544 H536 0.950 . S
C544 C543 1.345 . S
C544 C545 1.424 . S
C545 H537 0.951 . S
C545 C544 1.424 . S
C545 C546 1.347 1_565 S
C546 H538 0.951 . S
C546 C541 1.429 . S
C546 C545 1.347 1_545 S
H547 C548 0.951 . S
C548 H547 0.951 . S
C548 C554 1.265 . S
H549 C554 0.950 . S
H550 C558 0.949 . S
H551 C559 0.950 . S
H552 C560 0.951 . S
H553 C561 0.951 . S
C554 C548 1.265 . S
C554 H549 0.950 . S
C554 C555 1.478 . S
C555 C542 1.394 . S
C555 C554 1.478 . S
C555 C556 1.397 . S
C556 C555 1.397 . S
C556 C557 1.438 1_565 S
C556 C561 1.429 . S
C557 C540 1.394 . S
C557 C556 1.438 1_545 S
C557 C558 1.428 . S
C558 H550 0.949 . S
C558 C557 1.428 . S
C558 C559 1.345 . S
C559 H551 0.950 . S
C559 C558 1.345 . S
C559 C560 1.424 . S
C560 H552 0.951 . S
C560 C559 1.424 . S
C560 C561 1.347 1_545 S
C561 H553 0.951 . S
C561 C556 1.429 . S
C561 C560 1.347 1_565 S
H562 C563 0.951 . S
C563 H562 0.951 . S
C563 C569 1.265 . S
H564 C569 0.950 . S
H565 C573 0.949 . S
H566 C574 0.950 . S
H567 C575 0.951 . S
H568 C576 0.951 . S
C569 C563 1.265 . S
C569 H564 0.950 . S
C569 C570 1.478 . S
C570 C569 1.478 . S
C570 C571 1.397 1_545 S
C570 C587 1.394 . S
C571 C570 1.397 1_565 S
C571 C572 1.438 . S
C571 C576 1.429 . S
C572 C571 1.438 . S
C572 C573 1.428 . S
C572 C585 1.394 . S
C573 H565 0.949 . S
C573 C572 1.428 . S
C573 C574 1.345 . S
C574 H566 0.950 . S
C574 C573 1.345 . S
C574 C575 1.424 . S
C575 H567 0.951 . S
C575 C574 1.424 . S
C575 C576 1.347 . S
C576 H568 0.951 . S
C576 C571 1.429 . S
C576 C575 1.347 . S
H577 C578 0.951 . S
C578 H577 0.951 . S
C578 C584 1.265 . S
H579 C584 0.950 . S
H580 C588 0.949 . S
H581 C589 0.950 . S
H582 C590 0.951 . S
H583 C591 0.951 . S
C584 C578 1.265 . S
C584 H579 0.950 . S
C584 C585 1.478 . S
C585 C572 1.394 . S
C585 C584 1.478 . S
C585 C586 1.397 1_565 S
C586 C585 1.397 1_545 S
C586 C587 1.438 . S
C586 C591 1.429 . S
C587 C570 1.394 . S
C587 C586 1.438 . S
C587 C588 1.428 . S
C588 H580 0.949 . S
C588 C587 1.428 . S
C588 C589 1.345 . S
C589 H581 0.950 . S
C589 C588 1.345 . S
C589 C590 1.424 . S
C590 H582 0.951 . S
C590 C589 1.424 . S
C590 C591 1.347 . S
C591 H583 0.951 . S
C591 C586 1.429 . S
C591 C590 1.347 . S
C113 C13 1.244 . S
C128 C83 1.296 . S
C143 C27 1.298 . S
C158 C97 1.245 . S
C173 C41 1.353 . S
C188 C111 1.299 . S
C203 C69 1.357 . S
C218 C55 1.314 . S
C233 C11 1.457 . S
C248 C63 1.403 . S
C263 C25 1.432 . S
C278 C77 1.374 1_565 S
C293 C91 1.405 . S
C308 C39 1.457 . S
C323 C53 1.424 . S
C338 C105 1.388 1_545 S
C353 C67 1.425 . S
C368 C7 1.418 1_655 S
C383 C21 1.453 . S
C398 C81 1.445 . S
C413 C95 1.447 . S
C428 C35 1.454 1_455 S
C443 C49 1.385 . S
C458 C109 1.425 . S
C473 C36 0.750 . S
C488 C8 0.765 . S
C503 C50 0.773 . S
C518 C22 0.745 . S
C533 C64 0.759 . S
C548 C92 0.754 . S
C563 C78 0.857 . S
C578 C106 0.860 . S
