# Generated by pormake.
# Topology usf, (4)-cn, num edge types: 1
# Building blocks:
#     Node 0, Type 0, BuildingBlock: NAWXER_clean_sbu_0, # of connection points: 4
#     Node 1, Type 0, BuildingBlock: NAWXER_clean_sbu_0, # of connection points: 4
#     Node 2, Type 0, BuildingBlock: NAWXER_clean_sbu_0, # of connection points: 4
#     Node 3, Type 0, BuildingBlock: NAWXER_clean_sbu_0, # of connection points: 4
#     Node 4, Type 0, BuildingBlock: NAWXER_clean_sbu_0, # of connection points: 4
#     Node 5, Type 0, BuildingBlock: NAWXER_clean_sbu_0, # of connection points: 4
#     Node 6, Type 0, BuildingBlock: NAWXER_clean_sbu_0, # of connection points: 4
#     Node 7, Type 0, BuildingBlock: NAWXER_clean_sbu_0, # of connection points: 4
#     Node 8, Type 0, BuildingBlock: NAWXER_clean_sbu_0, # of connection points: 4
#     Node 9, Type 0, BuildingBlock: NAWXER_clean_sbu_0, # of connection points: 4
#     Node 10, Type 0, BuildingBlock: NAWXER_clean_sbu_0, # of connection points: 4
#     Node 11, Type 0, BuildingBlock: NAWXER_clean_sbu_0, # of connection points: 4
#     Node 12, Type 0, BuildingBlock: NAWXER_clean_sbu_0, # of connection points: 4
#     Node 13, Type 0, BuildingBlock: NAWXER_clean_sbu_0, # of connection points: 4
#     Node 14, Type 0, BuildingBlock: NAWXER_clean_sbu_0, # of connection points: 4
#     Node 15, Type 0, BuildingBlock: NAWXER_clean_sbu_0, # of connection points: 4
#     Node 16, Type 0, BuildingBlock: NAWXER_clean_sbu_0, # of connection points: 4
#     Node 17, Type 0, BuildingBlock: NAWXER_clean_sbu_0, # of connection points: 4
#     Edge 18, Type (0, 0), BuildingBlock: XUDNAN_clean_linker_2, # of connection points: 2
#     Edge 19, Type (0, 0), BuildingBlock: XUDNAN_clean_linker_2, # of connection points: 2
#     Edge 20, Type (0, 0), BuildingBlock: XUDNAN_clean_linker_2, # of connection points: 2
#     Edge 21, Type (0, 0), BuildingBlock: XUDNAN_clean_linker_2, # of connection points: 2
#     Edge 22, Type (0, 0), BuildingBlock: XUDNAN_clean_linker_2, # of connection points: 2
#     Edge 23, Type (0, 0), BuildingBlock: XUDNAN_clean_linker_2, # of connection points: 2
#     Edge 24, Type (0, 0), BuildingBlock: XUDNAN_clean_linker_2, # of connection points: 2
#     Edge 25, Type (0, 0), BuildingBlock: XUDNAN_clean_linker_2, # of connection points: 2
#     Edge 26, Type (0, 0), BuildingBlock: XUDNAN_clean_linker_2, # of connection points: 2
#     Edge 27, Type (0, 0), BuildingBlock: XUDNAN_clean_linker_2, # of connection points: 2
#     Edge 28, Type (0, 0), BuildingBlock: XUDNAN_clean_linker_2, # of connection points: 2
#     Edge 29, Type (0, 0), BuildingBlock: XUDNAN_clean_linker_2, # of connection points: 2
#     Edge 30, Type (0, 0), BuildingBlock: XUDNAN_clean_linker_2, # of connection points: 2
#     Edge 31, Type (0, 0), BuildingBlock: XUDNAN_clean_linker_2, # of connection points: 2
#     Edge 32, Type (0, 0), BuildingBlock: XUDNAN_clean_linker_2, # of connection points: 2
#     Edge 33, Type (0, 0), BuildingBlock: XUDNAN_clean_linker_2, # of connection points: 2
#     Edge 34, Type (0, 0), BuildingBlock: XUDNAN_clean_linker_2, # of connection points: 2
#     Edge 35, Type (0, 0), BuildingBlock: XUDNAN_clean_linker_2, # of connection points: 2
#     Edge 36, Type (0, 0), BuildingBlock: XUDNAN_clean_linker_2, # of connection points: 2
#     Edge 37, Type (0, 0), BuildingBlock: XUDNAN_clean_linker_2, # of connection points: 2
#     Edge 38, Type (0, 0), BuildingBlock: XUDNAN_clean_linker_2, # of connection points: 2
#     Edge 39, Type (0, 0), BuildingBlock: XUDNAN_clean_linker_2, # of connection points: 2
#     Edge 40, Type (0, 0), BuildingBlock: XUDNAN_clean_linker_2, # of connection points: 2
#     Edge 41, Type (0, 0), BuildingBlock: XUDNAN_clean_linker_2, # of connection points: 2
#     Edge 42, Type (0, 0), BuildingBlock: XUDNAN_clean_linker_2, # of connection points: 2
#     Edge 43, Type (0, 0), BuildingBlock: XUDNAN_clean_linker_2, # of connection points: 2
#     Edge 44, Type (0, 0), BuildingBlock: XUDNAN_clean_linker_2, # of connection points: 2
#     Edge 45, Type (0, 0), BuildingBlock: XUDNAN_clean_linker_2, # of connection points: 2
#     Edge 46, Type (0, 0), BuildingBlock: XUDNAN_clean_linker_2, # of connection points: 2
#     Edge 47, Type (0, 0), BuildingBlock: XUDNAN_clean_linker_2, # of connection points: 2
#     Edge 48, Type (0, 0), BuildingBlock: XUDNAN_clean_linker_2, # of connection points: 2
#     Edge 49, Type (0, 0), BuildingBlock: XUDNAN_clean_linker_2, # of connection points: 2
#     Edge 50, Type (0, 0), BuildingBlock: XUDNAN_clean_linker_2, # of connection points: 2
#     Edge 51, Type (0, 0), BuildingBlock: XUDNAN_clean_linker_2, # of connection points: 2
#     Edge 52, Type (0, 0), BuildingBlock: XUDNAN_clean_linker_2, # of connection points: 2
#     Edge 53, Type (0, 0), BuildingBlock: XUDNAN_clean_linker_2, # of connection points: 2
# Relax obj value: 0.054
# Max RMSD: 0.096
# Mean RMSD: 0.096
data_MOF--net-usf--node1-NAWXER_clean_sbu_0--edge1-XUDNAN_clean_linker_2
_symmetry_space_group_name_H-M    P1
_symmetry_Int_Tables_number       1
_symmetry_cell_setting            triclinic
loop_
_symmetry_equiv_pos_as_xyz
'x, y, z'
_cell_length_a     47.847185
_cell_length_b     47.897399
_cell_length_c     28.490255
_cell_angle_alpha  90.117789
_cell_angle_beta   90.075017
_cell_angle_gamma 120.11947
loop_
_atom_site_label
_atom_site_type_symbol
_atom_site_fract_x
_atom_site_fract_y
_atom_site_fract_z
_atom_type_partial_charge
C0 C 0.9944 0.52059 0.92217 0.0
C1 C 0.99065 0.4865 0.08325 0.0
O2 O 0.02259 0.53498 0.94106 0.0
Zn3 Zn 0.04298 0.53687 0.00967 0.0
O4 O 0.96998 0.50181 0.94662 0.0
Zn5 Zn 0.99275 0.50471 1.00335 0.0
O6 O 1.00563 0.55133 0.02976 0.0
O7 O 0.05869 0.58116 0.03103 0.0
O8 O 0.96789 0.47718 0.05353 0.0
O9 O 1.01943 0.50825 0.07165 0.0
O10 O 0.07384 0.52329 0.99401 0.0
O11 O 0.023 0.48532 0.98337 0.0
C12 C 0.03121 0.57827 0.03875 0.0
C13 C 0.05325 0.49475 0.98115 0.0
C14 C 0.50934 0.48006 0.13002 0.0
C15 C 0.47102 0.45879 0.96685 0.0
O16 O 0.48186 0.47463 0.11557 0.0
Zn17 Zn 0.48829 0.47034 0.0489 0.0
O18 O 0.53038 0.48208 0.10037 0.0
Zn19 Zn 0.53545 0.47853 0.02679 0.0
O20 O 0.56764 0.52314 0.00714 0.0
O21 O 0.52114 0.51808 0.02853 0.0
O22 O 0.50022 0.46539 0.973 0.0
O23 O 0.45451 0.45919 1.00167 0.0
O24 O 0.49333 0.42868 0.0471 0.0
O25 O 0.54236 0.44129 0.02423 0.0
C26 C 0.54982 0.53566 0.0129 0.0
C27 C 0.51406 0.42007 0.03742 0.0
C28 C 0.52257 0.05783 0.05612 0.0
C29 C 0.5557 0.06418 0.89144 0.0
O30 O 0.51972 0.03127 0.04101 0.0
Zn31 Zn 0.5277 1.01283 0.97602 0.0
O32 O 0.53051 0.08115 0.02788 0.0
Zn33 Zn 0.53483 0.05977 0.97221 0.0
O34 O 0.48539 0.02237 0.95491 0.0
O35 O 0.48634 0.97708 0.95977 0.0
O36 O 0.55115 0.08449 0.91391 0.0
O37 O 0.54793 0.03704 0.91064 0.0
O38 O 0.56062 1.00328 0.99616 0.0
O39 O 0.57573 0.05509 0.99608 0.0
C40 C 0.47072 0.99145 0.95124 0.0
C41 C 0.58212 0.03245 1.00407 0.0
C42 C 0.59765 0.09354 0.55982 0.0
C43 C 0.55585 0.07811 0.39659 0.0
O44 O 0.60956 0.11527 0.52817 0.0
Zn45 Zn 0.58006 0.08859 0.4772 0.0
O46 O 0.574 0.06548 0.54998 0.0
Zn47 Zn 0.54245 0.03893 0.4933 0.0
O48 O 0.55376 1.00463 0.48383 0.0
O49 O 0.59418 0.05347 0.4688 0.0
O50 O 0.54083 0.05381 0.42385 0.0
O51 O 0.58039 0.10356 0.41223 0.0
O52 O 0.53731 0.08355 0.50658 0.0
O53 O 0.50128 0.03249 0.52017 0.0
C54 C 0.58317 0.02306 0.47207 0.0
C55 C 0.50972 0.06232 0.52231 0.0
C56 C 0.99376 0.49526 0.58316 0.0
C57 C 0.98511 0.45942 0.42205 0.0
O58 O 0.97244 0.49007 0.55247 0.0
Zn59 Zn 0.9897 0.47626 0.50321 0.0
O60 O 1.0173 0.49075 0.57258 0.0
Zn61 Zn 0.03241 0.47494 0.51093 0.0
O62 O 0.0741 0.51138 0.49768 0.0
O63 O 0.03382 0.52025 0.48388 0.0
O64 O 1.01096 0.46289 0.44126 0.0
O65 O 0.96534 0.46369 0.44625 0.0
O66 O 0.98311 0.4312 0.52951 0.0
O67 O 0.03137 0.43617 0.53196 0.0
C68 C 0.06424 0.53008 0.48348 0.0
C69 C 1.00117 0.4192 0.53877 0.0
C70 C 0.53193 0.50591 0.47254 0.0
C71 C 0.49153 0.48807 0.63338 0.0
O72 O 0.53426 0.48759 0.50261 0.0
Zn73 Zn 0.51605 0.49878 0.55567 0.0
O74 O 0.5224 0.52535 0.48553 0.0
Zn75 Zn 0.50565 0.53725 0.54731 0.0
O76 O 0.54039 0.58112 0.56498 0.0
O77 O 0.55349 0.54405 0.58017 0.0
O78 O 0.49094 0.51166 0.61303 0.0
O79 O 0.50448 0.47376 0.6128 0.0
O80 O 0.46891 0.4851 0.52949 0.0
O81 O 0.46341 0.52809 0.52316 0.0
C82 C 0.56033 0.57351 0.58163 0.0
C83 C 0.45172 0.49771 0.51838 0.0
C84 C 0.70226 0.83457 0.43902 0.0
C85 C 0.7122 0.8677 0.27474 0.0
O86 O 0.72652 0.86284 0.43195 0.0
Zn87 Zn 0.74647 0.89623 0.37451 0.0
O88 O 0.68257 0.81999 0.40561 0.0
Zn89 Zn 0.70411 0.85278 0.35799 0.0
O90 O 0.74971 0.85306 0.35037 0.0
O91 O 0.78911 0.90163 0.37048 0.0
O92 O 0.68851 0.84315 0.29344 0.0
O93 O 0.73432 0.88913 0.3011 0.0
O94 O 0.74273 0.93282 0.39311 0.0
O95 O 0.69478 0.89075 0.37958 0.0
C96 C 0.78003 0.87326 0.35556 0.0
C97 C 0.71226 0.92039 0.3921 0.0
C98 C 0.22797 0.86013 0.29735 0.0
C99 C 0.17927 0.74733 0.34628 0.0
O100 O 0.24233 0.84396 0.30074 0.0
Zn101 Zn 0.20422 0.80306 0.3192 0.0
O102 O 0.19748 0.84622 0.30428 0.0
Zn103 Zn 0.15823 0.79992 0.32154 0.0
O104 O 0.14287 0.8103 0.37737 0.0
O105 O 0.19077 0.81437 0.38606 0.0
O106 O 0.15866 0.75686 0.34183 0.0
O107 O 0.20879 0.76651 0.3363 0.0
O108 O 0.17663 0.78667 0.25553 0.0
O109 O 0.13142 0.78769 0.26614 0.0
C110 C 0.16699 0.81633 0.40311 0.0
C111 C 0.14951 0.78213 0.23992 0.0
C112 C 0.19219 0.41843 0.37489 0.0
C113 C 0.21994 0.40478 0.21362 0.0
O114 O 0.18831 0.39044 0.36642 0.0
Zn115 Zn 0.19347 0.36423 0.30918 0.0
O116 O 0.20066 0.43918 0.34216 0.0
Zn117 Zn 0.20422 0.41242 0.29332 0.0
O118 O 0.15503 0.37576 0.28231 0.0
O119 O 0.14942 0.32835 0.29933 0.0
O120 O 0.21942 0.4292 0.23013 0.0
O121 O 0.21108 0.37995 0.2397 0.0
O122 O 0.22668 0.35709 0.33622 0.0
O123 O 0.24317 0.40849 0.32324 0.0
C124 C 0.13706 0.34502 0.2855 0.0
C125 C 0.24866 0.38667 0.33908 0.0
C126 C 0.21039 0.32872 0.77096 0.0
C127 C 0.15481 0.38403 0.82712 0.0
O128 O 0.18105 0.31804 0.78167 0.0
Zn129 Zn 0.18272 0.35747 0.79739 0.0
O130 O 0.23026 0.35927 0.77329 0.0
Zn131 Zn 0.22616 0.40147 0.7912 0.0
O132 O 0.25497 0.42056 0.8449 0.0
O133 O 0.21153 0.37361 0.86032 0.0
O134 O 0.18459 0.40412 0.81775 0.0
O135 O 0.14351 0.35412 0.8194 0.0
O136 O 0.18852 0.38118 0.73147 0.0
O137 O 0.23631 0.42536 0.73197 0.0
C138 C 0.238 0.39823 0.87385 0.0
C139 C 0.20998 0.40672 0.71083 0.0
C140 C 0.6885 0.86535 0.81941 0.0
C141 C 0.63638 0.75442 0.88168 0.0
O142 O 0.70738 0.85412 0.82656 0.0
Zn143 Zn 0.70682 0.81257 0.85336 0.0
O144 O 0.65896 0.84881 0.83147 0.0
Zn145 Zn 0.66078 0.8104 0.8529 0.0
O146 O 0.68617 0.82577 0.91767 0.0
O147 O 0.73349 0.82884 0.90977 0.0
O148 O 0.62271 0.77077 0.87245 0.0
O149 O 0.66694 0.76722 0.87565 0.0
O150 O 0.72193 0.80086 0.79742 0.0
O151 O 0.67347 0.79552 0.7892 0.0
C152 C 0.71333 0.83191 0.93513 0.0
C153 C 0.69714 0.79342 0.77221 0.0
C154 C 0.15851 0.80873 0.90602 0.0
C155 C 0.18291 0.84381 0.74423 0.0
O156 O 0.15981 0.79306 0.87089 0.0
Zn157 Zn 0.17328 0.82705 0.82582 0.0
O158 O 0.16619 0.83841 0.90121 0.0
Zn159 Zn 0.1822 0.87372 0.84538 0.0
O160 O 0.14708 0.88356 0.8443 0.0
O161 O 0.13201 0.83373 0.82243 0.0
O162 O 0.18534 0.86644 0.77118 0.0
O163 O 0.17756 0.81725 0.76184 0.0
O164 O 0.22178 0.85952 0.8465 0.0
O165 O 0.22691 0.90652 0.86423 0.0
C166 C 0.12503 0.85595 0.82991 0.0
C167 C 0.23954 0.88875 0.86034 0.0
C168 C 0.29806 0.11617 0.71046 0.0
C169 C 0.31428 0.15582 0.54864 0.0
O170 O 0.32268 0.14433 0.70486 0.0
Zn171 Zn 0.34597 0.1792 0.65103 0.0
O172 O 0.27954 0.10155 0.67583 0.0
Zn173 Zn 0.30391 0.13491 0.62926 0.0
O174 O 0.3486 0.13459 0.62584 0.0
O175 O 0.38786 0.18198 0.65027 0.0
O176 O 0.29104 0.12917 0.56336 0.0
O177 O 0.33525 0.17561 0.57794 0.0
O178 O 0.34051 0.21537 0.67225 0.0
O179 O 0.29485 0.17207 0.65202 0.0
C180 C 0.37863 0.15369 0.63465 0.0
C181 C 0.30994 0.2011 0.66766 0.0
C182 C 0.80351 0.16994 0.77527 0.0
C183 C 0.7827 0.14634 0.60908 0.0
O184 O 0.78089 0.16837 0.75007 0.0
Zn185 Zn 0.79113 0.15397 0.69331 0.0
O186 O 0.82305 0.16173 0.75764 0.0
Zn187 Zn 0.82992 0.14593 0.68954 0.0
O188 O 0.87329 0.17886 0.67539 0.0
O189 O 0.83801 0.19573 0.67482 0.0
O190 O 0.80649 0.14322 0.62314 0.0
O191 O 0.7661 0.15143 0.63898 0.0
O192 O 0.7778 0.10399 0.70664 0.0
O193 O 0.82332 0.1036 0.69835 0.0
C194 C 0.86707 0.20144 0.66909 0.0
C195 C 0.79327 0.0885 0.70661 0.0
C196 C 0.8972 0.76305 0.73491 0.0
C197 C 0.78147 0.70336 0.69316 0.0
O198 O 0.87904 0.77497 0.72736 0.0
Zn199 Zn 0.84024 0.73451 0.71171 0.0
O200 O 0.88555 0.73248 0.73008 0.0
Zn201 Zn 0.83958 0.68989 0.71211 0.0
O202 O 0.84899 0.67407 0.65517 0.0
O203 O 0.85535 0.72279 0.64744 0.0
O204 O 0.79347 0.68504 0.69923 0.0
O205 O 0.79974 0.73376 0.69582 0.0
O206 O 0.83155 0.71077 0.77916 0.0
O207 O 0.83099 0.66474 0.7683 0.0
C208 C 0.85735 0.69905 0.63049 0.0
C209 C 0.82886 0.68459 0.79564 0.0
C210 C 0.90066 0.70353 0.29651 0.0
C211 C 0.86629 0.69558 0.13404 0.0
O212 O 0.92087 0.72786 0.27217 0.0
Zn213 Zn 0.92605 0.74387 0.20026 0.0
O214 O 0.87616 0.68056 0.27647 0.0
Zn215 Zn 0.88415 0.69942 0.21489 0.0
O216 O 0.9247 0.69591 0.19015 0.0
O217 O 0.96538 0.74523 0.17932 0.0
O218 O 0.85235 0.67598 0.16748 0.0
O219 O 0.89332 0.72159 0.14153 0.0
O220 O 0.92674 0.78422 0.20835 0.0
O221 O 0.87994 0.74178 0.22696 0.0
C222 C 0.95405 0.71492 0.17768 0.0
C223 C 0.89807 0.77252 0.22362 0.0
C224 C 0.39777 0.1871 0.1018 0.0
C225 C 0.33387 0.07755 0.16406 0.0
O226 O 0.40711 0.16701 0.11033 0.0
Zn227 Zn 0.36559 0.13107 0.12861 0.0
O228 O 0.36775 0.17827 0.10674 0.0
Zn229 Zn 0.32374 0.13534 0.12788 0.0
O230 O 0.30994 0.15 0.18083 0.0
O231 O 0.35543 0.14942 0.19274 0.0
O232 O 0.31738 0.09146 0.15668 0.0
O233 O 0.36318 0.09119 0.15097 0.0
O234 O 0.33907 0.117 0.06323 0.0
O235 O 0.29602 0.12176 0.07376 0.0
C236 C 0.3332 0.15478 0.2076 0.0
C237 C 0.31265 0.11429 0.04751 0.0
C238 C 0.84494 0.21956 0.10883 0.0
C239 C 0.81993 0.19362 0.2743 0.0
O240 O 0.85101 0.19777 0.12325 0.0
Zn241 Zn 0.84873 0.17295 0.18747 0.0
O242 O 0.83615 0.23375 0.13809 0.0
Zn243 Zn 0.83524 0.20945 0.19256 0.0
O244 O 0.8848 0.2263 0.20575 0.0
O245 O 0.89422 0.1859 0.19972 0.0
O246 O 0.81854 0.2154 0.25079 0.0
O247 O 0.8309 0.17683 0.255 0.0
O248 O 0.8159 0.1287 0.16792 0.0
O249 O 0.79814 0.16315 0.17115 0.0
C250 C 0.90459 0.21569 0.20753 0.0
C251 C 0.79308 0.13483 0.16206 0.0
H252 H 0.0306 0.48054 0.35309 0.0
H253 H 0.9272 0.42651 0.37675 0.0
H254 H 0.91771 0.42223 0.29104 0.0
H255 H 0.02736 0.52796 0.26416 0.0
H256 H 0.05991 0.52992 0.22982 0.0
H257 H 0.05893 0.52389 0.29222 0.0
H258 H 0.06149 0.47165 0.27923 0.0
H259 H 0.0627 0.47762 0.21665 0.0
H260 H 0.03202 0.44021 0.24183 0.0
H261 H 0.9193 0.42812 0.20391 0.0
H262 H 0.93148 0.44579 0.12158 0.0
H263 H 0.03397 0.49864 0.1547 0.0
C264 C 1.00603 0.46691 0.34007 0.0
C265 C 0.97959 0.45333 0.37126 0.0
C266 C 0.94772 0.43677 0.35323 0.0
C267 C 0.94213 0.43415 0.30469 0.0
C268 C 0.9687 0.4485 0.27478 0.0
C269 C 1.00003 0.46464 0.29173 0.0
C270 C 0.02412 0.4811 0.25247 0.0
C271 C 0.04371 0.51789 0.26014 0.0
C272 C 0.0464 0.46678 0.24724 0.0
C273 C 1.00138 0.47232 0.21098 0.0
C274 C 0.96958 0.45302 0.2245 0.0
C275 C 0.94412 0.44294 0.19278 0.0
C276 C 0.95131 0.45316 0.14607 0.0
C277 C 0.98369 0.47361 0.13163 0.0
C278 C 1.00899 0.4829 0.16454 0.0
H279 H 0.50061 0.51668 0.40164 0.0
H280 H 0.56923 0.48459 0.42913 0.0
H281 H 0.57158 0.47548 0.34377 0.0
H282 H 0.45616 0.45762 0.31408 0.0
H283 H 0.44809 0.48412 0.27911 0.0
H284 H 0.45368 0.49025 0.34156 0.0
H285 H 0.4995 0.54914 0.32824 0.0
H286 H 0.49398 0.54331 0.26571 0.0
H287 H 0.53322 0.55688 0.29135 0.0
H288 H 0.56668 0.47075 0.25555 0.0
H289 H 0.5527 0.46712 0.17159 0.0
H290 H 0.48389 0.49844 0.20277 0.0
C291 C 0.51659 0.50826 0.38968 0.0
C292 C 0.53529 0.50191 0.4218 0.0
C293 C 0.55504 0.48991 0.40497 0.0
C294 C 0.55648 0.48469 0.35666 0.0
C295 C 0.53753 0.49104 0.326 0.0
C296 C 0.51774 0.50227 0.34194 0.0
C297 C 0.49842 0.50552 0.30225 0.0
C298 C 0.46193 0.48303 0.30971 0.0
C299 C 0.5068 0.54081 0.29656 0.0
C300 C 0.5106 0.49456 0.26116 0.0
C301 C 0.53339 0.48665 0.27561 0.0
C302 C 0.54878 0.47673 0.24392 0.0
C303 C 0.54071 0.47484 0.19627 0.0
C304 C 0.51713 0.48241 0.18068 0.0
C305 C 0.50178 0.49223 0.21371 0.0
H306 H 0.56703 0.10307 0.11655 0.0
H307 H 0.47127 0.01871 0.1104 0.0
H308 H 0.46779 0.01893 0.19698 0.0
H309 H 0.59294 0.0767 0.21266 0.0
H310 H 0.61714 0.11575 0.23969 0.0
H311 H 0.61033 0.11268 0.17729 0.0
H312 H 0.58742 0.15128 0.18264 0.0
H313 H 0.59429 0.15473 0.24516 0.0
H314 H 0.55454 0.14207 0.22221 0.0
H315 H 0.47623 0.02489 0.28295 0.0
H316 H 0.49625 0.03466 0.36411 0.0
H317 H 0.58824 0.11424 0.3175 0.0
C318 C 0.54493 0.08544 0.13357 0.0
C319 C 0.51893 0.06139 0.10695 0.0
C320 C 0.49105 0.03767 0.13025 0.0
C321 C 0.48892 0.03764 0.17936 0.0
C322 C 0.51514 0.06122 0.20478 0.0
C323 C 0.5427 0.08469 0.18287 0.0
C324 C 0.56862 0.10505 0.21889 0.0
C325 C 0.59905 0.10236 0.21171 0.0
C326 C 0.57668 0.14038 0.21711 0.0
C327 C 0.55149 0.08898 0.26435 0.0
C328 C 0.52053 0.06403 0.25511 0.0
C329 C 0.50031 0.04452 0.29065 0.0
C330 C 0.51204 0.05026 0.33677 0.0
C331 C 0.54387 0.07527 0.34749 0.0
C332 C 0.56369 0.09522 0.31066 0.0
H333 H 0.03736 0.51347 0.65573 0.0
H334 H 0.94209 0.49733 0.62009 0.0
H335 H 0.93406 0.50771 0.70235 0.0
H336 H 1.01697 0.47448 0.7635 0.0
H337 H 0.05402 0.50236 0.79301 0.0
H338 H 0.05374 0.49709 0.73046 0.0
H339 H 0.07741 0.55855 0.71867 0.0
H340 H 0.0778 0.56402 0.78134 0.0
H341 H 0.05698 0.57799 0.74387 0.0
H342 H 0.93339 0.51253 0.78974 0.0
H343 H 0.94161 0.51449 0.87571 0.0
H344 H 0.0383 0.5306 0.85402 0.0
C345 C 1.01504 0.51269 0.66503 0.0
C346 C 0.99036 0.50458 0.63144 0.0
C347 C 0.96142 0.50362 0.64513 0.0
C348 C 0.95662 0.50951 0.69179 0.0
C349 C 0.98117 0.51682 0.7242 0.0
C350 C 1.00999 0.51885 0.71136 0.0
C351 C 0.03181 0.5255 0.75348 0.0
C352 C 0.03957 0.49823 0.76051 0.0
C353 C 0.06284 0.55848 0.74906 0.0
C354 C 1.01032 0.52581 0.79219 0.0
C355 C 0.98124 0.52086 0.77456 0.0
C356 C 0.95633 0.51718 0.80393 0.0
C357 C 0.96115 0.51823 0.85261 0.0
C358 C 0.99075 0.52325 0.87129 0.0
C359 C 1.01578 0.52767 0.8406 0.0
H360 H 0.50362 0.45358 0.69894 0.0
H361 H 0.44813 0.50127 0.67523 0.0
H362 H 0.42796 0.48925 0.75656 0.0
H363 H 0.44611 0.39079 0.78326 0.0
H364 H 0.47887 0.39395 0.81855 0.0
H365 H 0.484 0.40072 0.75613 0.0
H366 H 0.5344 0.45703 0.77078 0.0
H367 H 0.52955 0.4503 0.83294 0.0
H368 H 0.53088 0.48554 0.80814 0.0
H369 H 0.41952 0.47851 0.84329 0.0
H370 H 0.42769 0.47413 0.92831 0.0
H371 H 0.48899 0.43418 0.89526 0.0
C372 C 0.4865 0.46065 0.71049 0.0
C373 C 0.4773 0.47816 0.68072 0.0
C374 C 0.45551 0.48779 0.69747 0.0
C375 C 0.44368 0.48083 0.74352 0.0
C376 C 0.45377 0.46414 0.77243 0.0
C377 C 0.47473 0.45419 0.75653 0.0
C378 C 0.48519 0.44042 0.79604 0.0
C379 C 0.47279 0.40432 0.78801 0.0
C380 C 0.52218 0.45947 0.80234 0.0
C381 C 0.46809 0.44556 0.83695 0.0
C382 C 0.44936 0.45846 0.8226 0.0
C383 C 0.43361 0.46783 0.85489 0.0
C384 C 0.4382 0.46512 0.90309 0.0
C385 C 0.45882 0.45371 0.91817 0.0
C386 C 0.47283 0.44271 0.8846 0.0
H387 H 0.55409 0.1042 0.82261 0.0
H388 H 0.59164 0.0405 0.85341 0.0
H389 H 0.61588 0.05031 0.7746 0.0
H390 H 0.53035 0.07658 0.70699 0.0
H391 H 0.54028 0.11534 0.6833 0.0
H392 H 0.52991 0.10684 0.74425 0.0
H393 H 0.5842 0.15775 0.76667 0.0
H394 H 0.59478 0.16576 0.70549 0.0
H395 H 0.62162 0.16179 0.74585 0.0
H396 H 0.63086 0.06169 0.69051 0.0
H397 H 0.63063 0.0696 0.60489 0.0
H398 H 0.58443 0.12646 0.62624 0.0
C399 C 0.56801 0.09291 0.813 0.0
C400 C 0.57118 0.07176 0.84439 0.0
C401 C 0.58886 0.05677 0.83006 0.0
C402 C 0.60299 0.06242 0.78544 0.0
C403 C 0.5992 0.08308 0.75511 0.0
C404 C 0.58193 0.09792 0.76804 0.0
C405 C 0.57847 0.11607 0.72679 0.0
C406 C 0.54263 0.1029 0.71463 0.0
C407 C 0.59581 0.15251 0.73681 0.0
C408 C 0.59563 0.10828 0.68846 0.0
C409 C 0.60796 0.08973 0.70592 0.0
C410 C 0.62203 0.07685 0.67663 0.0
C411 C 0.62215 0.08174 0.62806 0.0
C412 C 0.60853 0.09952 0.60916 0.0
C413 C 0.59611 0.11385 0.63994 0.0
H414 H 0.74358 0.82921 0.70845 0.0
H415 H 0.64784 0.74586 0.72221 0.0
H416 H 0.64111 0.74352 0.63595 0.0
H417 H 0.72173 0.86666 0.62719 0.0
H418 H 0.75851 0.8845 0.59345 0.0
H419 H 0.75929 0.87541 0.65446 0.0
H420 H 0.78473 0.84027 0.63379 0.0
H421 H 0.78464 0.8497 0.57258 0.0
H422 H 0.7652 0.80819 0.59126 0.0
H423 H 0.64223 0.75418 0.54947 0.0
H424 H 0.65031 0.77806 0.47028 0.0
H425 H 0.74401 0.85668 0.51387 0.0
C426 C 0.72198 0.80947 0.69296 0.0
C427 C 0.69665 0.78701 0.72157 0.0
C428 C 0.66781 0.7627 0.70056 0.0
C429 C 0.66377 0.76128 0.65167 0.0
C430 C 0.68874 0.78449 0.62433 0.0
C431 C 0.71734 0.80813 0.64423 0.0
C432 C 0.73839 0.83297 0.60807 0.0
C433 C 0.74484 0.86687 0.62161 0.0
C434 C 0.77012 0.83276 0.60101 0.0
C435 C 0.71686 0.82008 0.5651 0.0
C436 C 0.68861 0.79177 0.57494 0.0
C437 C 0.66442 0.77617 0.54123 0.0
C438 C 0.66918 0.78997 0.49638 0.0
C439 C 0.69773 0.8193 0.4858 0.0
C440 C 0.7219 0.83425 0.52071 0.0
H441 H 0.19917 0.81355 0.67683 0.0
H442 H 0.16499 0.88131 0.69596 0.0
H443 H 0.15792 0.88246 0.61024 0.0
H444 H 0.24414 0.85039 0.56804 0.0
H445 H 0.23438 0.81195 0.54295 0.0
H446 H 0.23786 0.81753 0.60568 0.0
H447 H 0.18012 0.76848 0.6154 0.0
H448 H 0.17632 0.76297 0.55273 0.0
H449 H 0.14684 0.76809 0.58506 0.0
H450 H 0.14868 0.87129 0.52356 0.0
H451 H 0.14549 0.85466 0.44036 0.0
H452 H 0.19021 0.79821 0.47706 0.0
C453 C 0.19064 0.82896 0.66284 0.0
C454 C 0.1826 0.84733 0.69287 0.0
C455 C 0.17156 0.86727 0.67344 0.0
C456 C 0.16728 0.86794 0.62486 0.0
C457 C 0.17481 0.84905 0.59622 0.0
C458 C 0.18695 0.8305 0.61435 0.0
C459 C 0.19338 0.81263 0.57586 0.0
C460 C 0.22959 0.82381 0.57297 0.0
C461 C 0.17294 0.77587 0.58269 0.0
C462 C 0.18226 0.82344 0.53343 0.0
C463 C 0.17128 0.84416 0.54595 0.0
C464 C 0.15778 0.85558 0.51316 0.0
C465 C 0.15586 0.84589 0.46619 0.0
C466 C 0.16794 0.82554 0.45259 0.0
C467 C 0.18133 0.81427 0.48662 0.0
H468 H 0.24138 0.44322 0.43744 0.0
H469 H 0.13893 0.40791 0.42339 0.0
H470 H 0.13391 0.40764 0.50995 0.0
H471 H 0.23579 0.3947 0.52791 0.0
H472 H 0.27176 0.42332 0.55902 0.0
H473 H 0.26876 0.42727 0.49675 0.0
H474 H 0.27966 0.4857 0.50803 0.0
H475 H 0.28349 0.48198 0.57036 0.0
H476 H 0.25512 0.49314 0.54834 0.0
H477 H 0.13823 0.40177 0.5961 0.0
H478 H 0.15188 0.39418 0.67684 0.0
H479 H 0.25221 0.43446 0.63676 0.0
C480 C 0.21829 0.43709 0.45279 0.0
C481 C 0.19069 0.42677 0.42413 0.0
C482 C 0.16043 0.41701 0.44498 0.0
C483 C 0.1574 0.41659 0.49404 0.0
C484 C 0.18491 0.42597 0.52157 0.0
C485 C 0.21492 0.43653 0.50174 0.0
C486 C 0.23994 0.442 0.539 0.0
C487 C 0.25492 0.42054 0.53012 0.0
C488 C 0.2661 0.47784 0.54159 0.0
C489 C 0.21906 0.43165 0.58273 0.0
C490 C 0.18745 0.42272 0.5718 0.0
C491 C 0.16301 0.40943 0.60527 0.0
C492 C 0.17097 0.40505 0.65098 0.0
C493 C 0.20314 0.41412 0.66315 0.0
C494 C 0.22758 0.42807 0.62867 0.0
H495 H 0.66801 0.83338 0.20455 0.0
H496 H 0.76864 0.90537 0.22847 0.0
H497 H 0.78008 0.90399 0.14459 0.0
H498 H 0.681 0.7867 0.12043 0.0
H499 H 0.64702 0.77872 0.0838 0.0
H500 H 0.64609 0.78595 0.14567 0.0
H501 H 0.63505 0.83258 0.1278 0.0
H502 H 0.63554 0.82523 0.06585 0.0
H503 H 0.66204 0.86488 0.08961 0.0
H504 H 0.78192 0.89104 0.05925 0.0
H505 H 0.7719 0.87284 0.97621 0.0
H506 H 0.66979 0.81264 0.00642 0.0
C507 C 0.69232 0.8492 0.19199 0.0
C508 C 0.71736 0.8695 0.22323 0.0
C509 C 0.74891 0.88978 0.20532 0.0
C510 C 0.75577 0.88905 0.15768 0.0
C511 C 0.73075 0.8683 0.12801 0.0
C512 C 0.69951 0.84924 0.14421 0.0
C513 C 0.67701 0.82939 0.10469 0.0
C514 C 0.6619 0.79304 0.11424 0.0
C515 C 0.65087 0.83858 0.0965 0.0
C516 C 0.70057 0.83994 0.06408 0.0
C517 C 0.73154 0.8621 0.07834 0.0
C518 C 0.75767 0.87406 0.04747 0.0
C519 C 0.75185 0.86349 1.00053 0.0
C520 C 0.72011 0.84169 0.98495 0.0
C521 C 0.69427 0.82975 0.01729 0.0
H522 H 0.13568 0.82723 0.98058 0.0
H523 H 0.1612 0.7561 0.93688 0.0
H524 H 0.15204 0.73465 0.01765 0.0
H525 H 0.17443 0.84707 0.08507 0.0
H526 H 0.14439 0.85117 0.11761 0.0
H527 H 0.14731 0.85699 0.0552 0.0
H528 H 0.08701 0.81334 0.04626 0.0
H529 H 0.08377 0.80691 0.10885 0.0
H530 H 0.07279 0.77348 0.06944 0.0
H531 H 0.15155 0.72898 0.10457 0.0
H532 H 0.15633 0.73729 0.19058 0.0
H533 H 0.12643 0.80859 0.17777 0.0
C534 C 0.13859 0.80665 0.98782 0.0
C535 C 0.14928 0.79338 0.95265 0.0
C536 C 0.15289 0.76652 0.96332 0.0
C537 C 0.14763 0.75411 0.00904 0.0
C538 C 0.13796 0.76832 0.0433 0.0
C539 C 0.13283 0.7936 0.03302 0.0
C540 C 0.12502 0.80629 0.07683 0.0
C541 C 0.14924 0.8425 0.08409 0.0
C542 C 0.09007 0.7996 0.07524 0.0
C543 C 0.12893 0.78584 0.11378 0.0
C544 C 0.13593 0.76373 0.09366 0.0
C545 C 0.14503 0.74538 0.12074 0.0
C546 C 0.1478 0.75031 0.16944 0.0
C547 C 0.14106 0.77304 0.19045 0.0
C548 C 0.13056 0.79025 0.16247 0.0
H549 H 0.23576 0.43968 0.93725 0.0
H550 H 0.25517 0.36097 0.92345 0.0
H551 H 0.25854 0.35845 0.00991 0.0
H552 H 0.28547 0.4778 0.04555 0.0
H553 H 0.25581 0.4865 0.06954 0.0
H554 H 0.26061 0.48598 0.00684 0.0
H555 H 0.19977 0.44392 0.9983 0.0
H556 H 0.19481 0.44415 0.06085 0.0
H557 H 0.18304 0.4067 0.03073 0.0
H558 H 0.25325 0.3599 0.09647 0.0
H559 H 0.23996 0.36499 0.17828 0.0
H560 H 0.22236 0.44219 0.13784 0.0
C561 C 0.2421 0.42293 0.95263 0.0
C562 C 0.24639 0.40123 0.92403 0.0
C563 C 0.2528 0.37833 0.945 0.0
C564 C 0.25463 0.37671 0.99398 0.0
C565 C 0.24956 0.39792 0.02145 0.0
C566 C 0.24352 0.4207 1.00164 0.0
C567 C 0.23543 0.43813 0.03917 0.0
C568 C 0.26086 0.47425 0.04034 0.0
C569 C 0.20124 0.4329 0.03182 0.0
C570 C 0.23723 0.42113 0.08305 0.0
C571 C 0.24572 0.39825 0.07188 0.0
C572 C 0.24704 0.37804 0.10573 0.0
C573 C 0.23929 0.38104 0.15216 0.0
C574 C 0.23026 0.40409 0.16466 0.0
C575 C 0.22967 0.4247 0.12958 0.0
H576 H 0.35094 0.12027 0.97286 0.0
H577 H 0.25142 0.08662 0.01132 0.0
H578 H 0.23512 0.07418 0.92803 0.0
H579 H 0.35069 0.16211 0.8756 0.0
H580 H 0.3769 0.15362 0.84053 0.0
H581 H 0.3795 0.15365 0.90342 0.0
H582 H 0.36987 0.09532 0.9011 0.0
H583 H 0.3671 0.09509 0.83797 0.0
H584 H 0.33461 0.06398 0.87176 0.0
H585 H 0.23059 0.07067 0.83954 0.0
H586 H 0.23938 0.08223 0.7543 0.0
H587 H 0.34213 0.12117 0.77446 0.0
C588 C 0.32559 0.10938 0.96389 0.0
C589 C 0.30237 0.10401 0.99851 0.0
C590 C 0.26956 0.09074 0.98528 0.0
C591 C 0.26005 0.08338 0.93812 0.0
C592 C 0.28366 0.08958 0.90459 0.0
C593 C 0.31581 0.10246 0.91694 0.0
C594 C 0.3371 0.11099 0.87401 0.0
C595 C 0.36252 0.14723 0.87337 0.0
C596 C 0.3531 0.09009 0.87104 0.0
C597 C 0.31214 0.1022 0.83561 0.0
C598 C 0.2813 0.08892 0.85374 0.0
C599 C 0.25458 0.08064 0.82491 0.0
C600 C 0.2597 0.08711 0.77657 0.0
C601 C 0.29136 0.1024 0.75809 0.0
C602 C 0.31764 0.10918 0.78783 0.0
H603 H 0.84038 0.16504 0.84501 0.0
H604 H 0.77767 0.204 0.81494 0.0
H605 H 0.78706 0.22699 0.89493 0.0
H606 H 0.81284 0.14094 0.96132 0.0
H607 H 0.85186 0.15045 0.9839 0.0
H608 H 0.84213 0.13951 0.92316 0.0
H609 H 0.89305 0.19297 0.89869 0.0
H610 H 0.90264 0.20426 0.95949 0.0
H611 H 0.89823 0.23088 0.9194 0.0
H612 H 0.80184 0.24421 0.97923 0.0
H613 H 0.81564 0.24866 0.06355 0.0
H614 H 0.86773 0.19751 0.03859 0.0
C615 C 0.82883 0.17863 0.85511 0.0
C616 C 0.80842 0.18285 0.82367 0.0
C617 C 0.79337 0.20039 0.83848 0.0
C618 C 0.79876 0.21378 0.88371 0.0
C619 C 0.81917 0.20933 0.91378 0.0
C620 C 0.83367 0.19187 0.90026 0.0
C621 C 0.85254 0.18848 0.94033 0.0
C622 C 0.83903 0.15273 0.95292 0.0
C623 C 0.88877 0.20515 0.92877 0.0
C624 C 0.84597 0.20633 0.9787 0.0
C625 C 0.82714 0.21867 0.96254 0.0
C626 C 0.8168 0.23486 0.99222 0.0
C627 C 0.82494 0.23747 0.04004 0.0
C628 C 0.84287 0.22355 0.05768 0.0
C629 C 0.85424 0.20866 0.02617 0.0
H630 H 0.87913 0.73712 0.06072 0.0
H631 H 0.82324 0.63597 0.09881 0.0
H632 H 0.8046 0.62199 0.01666 0.0
H633 H 0.82027 0.7353 0.97553 0.0
H634 H 0.85142 0.76345 0.93682 0.0
H635 H 0.85872 0.76549 0.99914 0.0
H636 H 0.9095 0.76049 0.98442 0.0
H637 H 0.90229 0.7583 0.92217 0.0
H638 H 0.90566 0.72669 0.9511 0.0
H639 H 0.79747 0.61863 0.92844 0.0
H640 H 0.79829 0.6269 0.84243 0.0
H641 H 0.85532 0.73041 0.86374 0.0
C642 C 0.86262 0.71207 0.0519 0.0
C643 C 0.85266 0.68761 0.08607 0.0
C644 C 0.83102 0.65512 0.07321 0.0
C645 C 0.82037 0.64694 0.02663 0.0
C646 C 0.83111 0.6716 0.99359 0.0
C647 C 0.85132 0.70357 0.00583 0.0
C648 C 0.85979 0.72544 0.9636 0.0
C649 C 0.84676 0.7488 0.96911 0.0
C650 C 0.89648 0.7438 0.95482 0.0
C651 C 0.84185 0.70073 0.9255 0.0
C652 C 0.82558 0.66977 0.94336 0.0
C653 C 0.80953 0.6428 0.91417 0.0
C654 C 0.81019 0.64768 0.86548 0.0
C655 C 0.82634 0.67926 0.84676 0.0
C656 C 0.84204 0.70603 0.87729 0.0
H657 H 0.28675 0.12158 0.27258 0.0
H658 H 0.38093 0.20649 0.25366 0.0
H659 H 0.38327 0.21882 0.33859 0.0
H660 H 0.25681 0.15245 0.36749 0.0
H661 H 0.23803 0.11459 0.3985 0.0
H662 H 0.2416 0.11506 0.33549 0.0
H663 H 0.27141 0.08255 0.34166 0.0
H664 H 0.26796 0.08201 0.40459 0.0
H665 H 0.30711 0.09783 0.37777 0.0
H666 H 0.37664 0.2203 0.42493 0.0
H667 H 0.36445 0.20892 0.50872 0.0
H668 H 0.27596 0.12029 0.47353 0.0
C669 C 0.30738 0.14323 0.28636 0.0
C670 C 0.33335 0.16369 0.25693 0.0
C671 C 0.36068 0.191 0.27592 0.0
C672 C 0.36212 0.19815 0.32391 0.0
C673 C 0.33627 0.17733 0.35231 0.0
C674 C 0.30954 0.15022 0.33441 0.0
C675 C 0.28682 0.12991 0.37332 0.0
C676 C 0.25386 0.1279 0.36839 0.0
C677 C 0.28312 0.09609 0.37439 0.0
C678 C 0.3051 0.14969 0.41595 0.0
C679 C 0.33324 0.1772 0.40281 0.0
C680 C 0.35462 0.19893 0.43567 0.0
C681 C 0.34741 0.19217 0.4833 0.0
C682 C 0.31921 0.16364 0.49791 0.0
C683 C 0.29759 0.14235 0.46359 0.0
H684 H 0.83416 0.16184 0.3414 0.0
H685 H 0.77904 0.20998 0.31767 0.0
H686 H 0.7584 0.19736 0.39896 0.0
H687 H 0.7763 0.09797 0.41828 0.0
H688 H 0.8074 0.09939 0.45567 0.0
H689 H 0.81556 0.10968 0.39446 0.0
H690 H 0.86466 0.16528 0.417 0.0
H691 H 0.8568 0.15498 0.47811 0.0
H692 H 0.85892 0.19137 0.45663 0.0
H693 H 0.745 0.18072 0.48353 0.0
H694 H 0.74503 0.16737 0.56717 0.0
H695 H 0.81064 0.132 0.53607 0.0
C696 C 0.81749 0.16946 0.35314 0.0
C697 C 0.80803 0.18672 0.32317 0.0
C698 C 0.78663 0.19676 0.34009 0.0
C699 C 0.77459 0.18947 0.38605 0.0
C700 C 0.78432 0.1723 0.41467 0.0
C701 C 0.80558 0.16275 0.39901 0.0
C702 C 0.81428 0.14686 0.43778 0.0
C703 C 0.80269 0.11137 0.42582 0.0
C704 C 0.85082 0.16576 0.44798 0.0
C705 C 0.79509 0.14953 0.47798 0.0
C706 C 0.77744 0.16366 0.46372 0.0
C707 C 0.75862 0.16951 0.49505 0.0
C708 C 0.75868 0.16171 0.54249 0.0
C709 C 0.77784 0.14864 0.55822 0.0
C710 C 0.7956 0.1418 0.52516 0.0
H711 H 0.83445 0.6556 0.55758 0.0
H712 H 0.91201 0.75033 0.59845 0.0
H713 H 0.93582 0.75808 0.51933 0.0
H714 H 0.88105 0.63438 0.47484 0.0
H715 H 0.84817 0.61586 0.43336 0.0
H716 H 0.83988 0.61533 0.49516 0.0
H717 H 0.80555 0.64227 0.4784 0.0
H718 H 0.81362 0.64273 0.41669 0.0
H719 H 0.82331 0.67976 0.44649 0.0
H720 H 0.94912 0.75745 0.43553 0.0
H721 H 0.94812 0.75133 0.34969 0.0
H722 H 0.86004 0.6583 0.36049 0.0
C723 C 0.85683 0.67758 0.54992 0.0
C724 C 0.87177 0.70226 0.5839 0.0
C725 C 0.90043 0.73118 0.57266 0.0
C726 C 0.91421 0.73567 0.52803 0.0
C727 C 0.89876 0.71114 0.49492 0.0
C728 C 0.87051 0.68279 0.50501 0.0
C729 C 0.85677 0.6621 0.46135 0.0
C730 C 0.85646 0.63001 0.4665 0.0
C731 C 0.82282 0.6564 0.45008 0.0
C732 C 0.88129 0.68361 0.42508 0.0
C733 C 0.90569 0.7114 0.44551 0.0
C734 C 0.93031 0.73568 0.4191 0.0
C735 C 0.92952 0.73195 0.37029 0.0
C736 C 0.90401 0.70434 0.34824 0.0
C737 C 0.88004 0.67954 0.37627 0.0
H738 H 0.11474 0.50841 0.95673 0.0
H739 H 1.01462 0.43105 0.95973 0.0
H740 H 0.02995 0.39465 0.92139 0.0
H741 H 0.13323 0.49003 0.84424 0.0
H742 H 0.17361 0.4993 0.85925 0.0
H743 H 0.15546 0.51924 0.88955 0.0
H744 H 0.1654 0.4998 0.96941 0.0
H745 H 0.18385 0.48003 0.93937 0.0
H746 H 0.15037 0.45736 0.97843 0.0
H747 H 0.05524 0.36696 0.88051 0.0
H748 H 0.08955 0.34922 0.84111 0.0
H749 H 0.17342 0.44425 0.86332 0.0
C750 C 0.09613 0.48371 0.94987 0.0
C751 C 0.06346 0.47263 0.96136 0.0
C752 C 0.0398 0.44018 0.95131 0.0
C753 C 0.04825 0.41925 0.92951 0.0
C754 C 0.08048 0.43103 0.91794 0.0
C755 C 0.10414 0.4624 0.92794 0.0
C756 C 0.13689 0.469 0.91068 0.0
C757 C 0.15059 0.49599 0.87373 0.0
C758 C 0.16052 0.47702 0.95193 0.0
C759 C 0.12776 0.43658 0.88895 0.0
C760 C 0.09512 0.41503 0.89378 0.0
C761 C 0.08088 0.38358 0.87659 0.0
C762 C 0.10057 0.37375 0.85418 0.0
C763 C 0.13416 0.39534 0.84892 0.0
C764 C 0.1478 0.42723 0.86643 0.0
H765 H 0.65516 0.70882 0.88876 0.0
H766 H 0.57602 0.72556 0.92066 0.0
H767 H 0.54693 0.6724 0.95936 0.0
H768 H 0.60472 0.62306 0.86325 0.0
H769 H 0.63273 0.61257 0.88871 0.0
H770 H 0.64742 0.65192 0.86336 0.0
H771 H 0.676 0.67843 0.94172 0.0
H772 H 0.66115 0.63917 0.96749 0.0
H773 H 0.65279 0.66808 0.99514 0.0
H774 H 0.5276 0.61931 0.99731 0.0
H775 H 0.51571 0.56635 0.02594 0.0
H776 H 0.60612 0.58143 0.9674 0.0
C777 C 0.63163 0.70124 0.9037 0.0
C778 C 0.61789 0.72147 0.90178 0.0
C779 C 0.58698 0.71053 0.9215 0.0
C780 C 0.57035 0.68043 0.94377 0.0
C781 C 0.58478 0.66136 0.94564 0.0
C782 C 0.61448 0.67103 0.92561 0.0
C783 C 0.62411 0.64541 0.9318 0.0
C784 C 0.62743 0.63247 0.88393 0.0
C785 C 0.65537 0.65857 0.96077 0.0
C786 C 0.59522 0.6199 0.95884 0.0
C787 C 0.57306 0.62992 0.96661 0.0
C788 C 0.54462 0.6111 0.99114 0.0
C789 C 0.53819 0.58093 0.00739 0.0
C790 C 0.55989 0.56938 0.9989 0.0
C791 C 0.58906 0.58945 0.97464 0.0
H792 H 0.28861 0.95049 0.888 0.0
H793 H 0.26907 0.85301 0.86004 0.0
H794 H 0.32498 0.86939 0.87988 0.0
H795 H 0.37034 0.99141 0.84049 0.0
H796 H 0.38666 0.02269 0.8846 0.0
H797 H 0.34464 1.00398 0.86841 0.0
H798 H 0.32826 0.98898 0.95516 0.0
H799 H 0.37022 1.00763 0.97168 0.0
H800 H 0.34272 0.96612 0.98678 0.0
H801 H 0.38167 0.89439 0.90334 0.0
H802 H 0.43812 0.92786 0.92797 0.0
H803 H 0.42476 1.01088 0.94065 0.0
C804 C 0.29617 0.93267 0.88602 0.0
C805 C 0.27409 0.90034 0.87231 0.0
C806 C 0.28515 0.87787 0.87024 0.0
C807 C 0.31703 0.88691 0.88153 0.0
C808 C 0.33804 0.91867 0.89485 0.0
C809 C 0.32835 0.94138 0.89711 0.0
C810 C 0.35653 0.97396 0.91255 0.0
C811 C 0.36504 0.99952 0.87422 0.0
C812 C 0.34897 0.9848 0.95933 0.0
C813 C 0.38329 0.96572 0.91849 0.0
C814 C 0.37173 0.93357 0.90816 0.0
C815 C 0.39111 0.91965 0.91143 0.0
C816 C 0.42327 0.93897 0.92561 0.0
C817 C 0.43618 0.97214 0.93632 0.0
C818 C 0.41577 0.98568 0.93256 0.0
H819 H 0.44416 0.0439 0.52019 0.0
H820 H 0.53604 0.10976 0.58559 0.0
H821 H 0.51174 0.13789 0.62533 0.0
H822 H 0.4222 0.10211 0.49617 0.0
H823 H 0.37976 0.07715 0.50874 0.0
H824 H 0.40278 0.05889 0.48967 0.0
H825 H 0.38546 0.02294 0.56388 0.0
H826 H 0.36208 0.04088 0.58295 0.0
H827 H 0.39248 0.0415 0.62107 0.0
H828 H 0.4802 0.16301 0.65102 0.0
H829 H 0.44131 0.18168 0.66522 0.0
H830 H 0.36884 0.10029 0.58467 0.0
C831 C 0.45873 0.06359 0.54401 0.0
C832 C 0.49197 0.0745 0.55023 0.0
C833 C 0.51054 0.10094 0.58062 0.0
C834 C 0.49696 0.11712 0.60337 0.0
C835 C 0.46454 0.10666 0.59554 0.0
C836 C 0.44543 0.08036 0.56705 0.0
C837 C 0.41172 0.07578 0.56268 0.0
C838 C 0.40366 0.07866 0.51126 0.0
C839 C 0.38644 0.04334 0.58392 0.0
C840 C 0.41538 0.104 0.59204 0.0
C841 C 0.44604 0.12135 0.6108 0.0
C842 C 0.45589 0.14938 0.63713 0.0
C843 C 0.43371 0.15992 0.64482 0.0
C844 C 0.402 0.14244 0.62637 0.0
C845 C 0.3928 0.11403 0.59976 0.0
H846 H 0.86019 0.25229 0.64008 0.0
H847 H 0.93188 0.22316 0.66051 0.0
H848 H 0.97411 0.27574 0.62972 0.0
H849 H 0.8916 0.29352 0.53191 0.0
H850 H 0.8827 0.32513 0.54455 0.0
H851 H 0.85833 0.2857 0.56984 0.0
H852 H 0.87006 0.31099 0.65317 0.0
H853 H 0.89432 0.35052 0.62811 0.0
H854 H 0.91133 0.33631 0.67203 0.0
H855 H 1.00843 0.33134 0.59526 0.0
H856 H 0.03219 0.38579 0.56063 0.0
H857 H 0.93778 0.37802 0.56194 0.0
C858 C 0.88481 0.25704 0.63853 0.0
C859 C 0.89272 0.2336 0.65293 0.0
C860 C 0.92521 0.24072 0.6498 0.0
C861 C 0.94938 0.27053 0.63233 0.0
C862 C 0.94068 0.29294 0.618 0.0
C863 C 0.90918 0.28657 0.62099 0.0
C864 C 0.90606 0.31448 0.60243 0.0
C865 C 0.88333 0.30407 0.55964 0.0
C866 C 0.89478 0.32893 0.64126 0.0
C867 C 0.94071 0.33757 0.58851 0.0
C868 C 0.96033 0.32473 0.5978 0.0
C869 C 0.99329 0.34164 0.58788 0.0
C870 C 1.00656 0.37255 0.56815 0.0
C871 C 0.98689 0.38622 0.55847 0.0
C872 C 0.95351 0.3683 0.56877 0.0
H873 H 0.74635 0.70719 0.61859 0.0
H874 H 0.73713 0.6637 0.75509 0.0
H875 H 0.678 0.63161 0.74479 0.0
H876 H 0.66672 0.7063 0.62105 0.0
H877 H 0.65934 0.69622 0.55962 0.0
H878 H 0.70021 0.72018 0.58105 0.0
H879 H 0.71407 0.67868 0.54538 0.0
H880 H 0.67323 0.65457 0.5245 0.0
H881 H 0.69047 0.63682 0.562 0.0
H882 H 0.62209 0.59934 0.71686 0.0
H883 H 0.57169 0.56744 0.67197 0.0
H884 H 0.61458 0.62985 0.55174 0.0
C885 C 0.73159 0.69168 0.64677 0.0
C886 C 0.74605 0.6883 0.68814 0.0
C887 C 0.72634 0.6669 0.72358 0.0
C888 C 0.69276 0.64864 0.71803 0.0
C889 C 0.67914 0.65181 0.67657 0.0
C890 C 0.69778 0.67278 0.64143 0.0
C891 C 0.6771 0.66879 0.59844 0.0
C892 C 0.67578 0.69973 0.58946 0.0
C893 C 0.68946 0.65913 0.55503 0.0
C894 C 0.64435 0.64141 0.61429 0.0
C895 C 0.64619 0.63256 0.65989 0.0
C896 C 0.62014 0.60645 0.68153 0.0
C897 C 0.59161 0.58846 0.65578 0.0
C898 C 0.5891 0.5966 0.6089 0.0
C899 C 0.61562 0.62378 0.58804 0.0
H900 H 0.93241 0.65206 0.15585 0.0
H901 H 1.01929 0.74634 0.1563 0.0
H902 H 0.04998 0.72204 0.12223 0.0
H903 H 0.9697 0.6052 0.18499 0.0
H904 H 0.94326 0.57232 0.1469 0.0
H905 H 0.92934 0.59733 0.17326 0.0
H906 H 0.91532 0.6098 0.0908 0.0
H907 H 0.9293 0.58494 0.06417 0.0
H908 H 0.94618 0.62639 0.04631 0.0
H909 H 0.07056 0.68588 0.08613 0.0
H910 H 0.07811 0.6425 0.05131 0.0
H911 H 0.97646 0.57399 0.07374 0.0
C912 C 0.95796 0.66771 0.14931 0.0
C913 C 0.97346 0.70108 0.1591 0.0
C914 C 1.00689 0.72065 0.14925 0.0
C915 C 0.0245 0.70706 0.12988 0.0
C916 C 1.00822 0.67398 0.12027 0.0
C917 C 0.97564 0.65471 0.12969 0.0
C918 C 0.96313 0.62014 0.115 0.0
C919 C 0.95063 0.59742 0.15758 0.0
C920 C 0.93695 0.60973 0.0768 0.0
C921 C 0.99368 0.62274 0.09564 0.0
C922 C 1.01962 0.65381 0.09907 0.0
C923 C 0.05032 0.6615 0.08332 0.0
C924 C 0.05441 0.63675 0.06361 0.0
C925 C 0.02786 0.60487 0.05951 0.0
C926 C 0.99727 0.59809 0.07591 0.0
H927 H 0.38555 0.23641 0.08755 0.0
H928 H 0.46317 0.21444 0.08519 0.0
H929 H 0.50198 0.27137 0.06504 0.0
H930 H 0.41397 0.29319 0.99126 0.0
H931 H 0.40127 0.31893 0.01869 0.0
H932 H 0.3799 0.27625 0.03055 0.0
H933 H 0.38944 0.28807 0.11981 0.0
H934 H 0.41083 0.33074 0.10821 0.0
H935 H 0.43006 0.31303 0.14148 0.0
H936 H 0.53277 0.33261 0.04702 0.0
H937 H 0.55161 0.39081 0.03501 0.0
H938 H 0.4529 0.37043 0.05054 0.0
C939 C 0.41064 0.24336 0.08241 0.0
C940 C 0.42122 0.22082 0.08782 0.0
C941 C 0.45441 0.2312 0.08113 0.0
C942 C 0.47665 0.26352 0.06963 0.0
C943 C 0.46535 0.28517 0.06493 0.0
C944 C 0.43304 0.27535 0.07114 0.0
C945 C 0.42687 0.30318 0.06579 0.0
C946 C 0.40416 0.29754 0.02409 0.0
C947 C 0.41352 0.3091 0.11155 0.0
C948 C 0.46075 0.33034 0.056 0.0
C949 C 0.48276 0.31972 0.05527 0.0
C950 C 0.51563 0.34108 0.04742 0.0
C951 C 0.52615 0.37408 0.04056 0.0
C952 C 0.50385 0.38532 0.04197 0.0
C953 C 0.47076 0.36286 0.04941 0.0
H954 H 0.7462 0.14739 0.1355 0.0
H955 H 0.7686 0.0701 0.13823 0.0
H956 H 0.71643 0.03418 0.09757 0.0
H957 H 0.66092 0.10004 0.15423 0.0
H958 H 0.65266 0.12446 0.11488 0.0
H959 H 0.69043 0.14209 0.1462 0.0
H960 H 0.72103 0.16093 0.0669 0.0
H961 H 0.68322 0.14279 0.03558 0.0
H962 H 0.713 0.13158 0.02145 0.0
H963 H 0.66027 1.00723 0.05554 0.0
H964 H 0.60825 0.99291 0.01672 0.0
H965 H 0.62712 0.09037 0.0405 0.0
C966 C 0.74028 0.12281 0.12825 0.0
C967 C 0.76149 0.1115 0.14057 0.0
C968 C 0.75264 0.07925 0.12948 0.0
C969 C 0.72311 0.05876 0.10632 0.0
C970 C 0.70302 0.07109 0.09427 0.0
C971 C 0.71151 0.1025 0.10496 0.0
C972 C 0.68695 0.11097 0.08726 0.0
C973 C 0.67185 0.11989 0.12809 0.0
C974 C 0.70195 0.13816 0.05062 0.0
C975 C 0.66283 0.07931 0.06504 0.0
C976 C 0.67219 0.0564 0.06937 0.0
C977 C 0.65293 0.02513 0.05191 0.0
C978 C 0.62344 0.01722 0.02989 0.0
C979 C 0.61368 0.04058 0.02522 0.0
C980 C 0.63391 0.07198 0.04293 0.0
H981 H 0.57072 0.96104 0.44785 0.0
H982 H 0.64821 0.05844 0.47848 0.0
H983 H 0.68832 0.0422 0.46246 0.0
H984 H 0.61071 0.91947 0.49803 0.0
H985 H 0.59644 0.88885 0.45299 0.0
H986 H 0.57289 0.9073 0.46866 0.0
H987 H 0.57313 0.92346 0.38194 0.0
H988 H 0.59679 0.90519 0.36606 0.0
H989 H 0.61114 0.9469 0.35207 0.0
H990 H 0.72062 0.01723 0.44159 0.0
H991 H 0.7438 0.98387 0.41745 0.0
H992 H 0.64713 0.90169 0.39858 0.0
C993 C 0.59611 0.97876 0.45159 0.0
C994 C 0.60616 1.01111 0.46431 0.0
C995 C 0.63971 0.03362 0.46842 0.0
C996 C 0.66283 0.02464 0.45952 0.0
C997 C 0.65231 0.99295 0.44636 0.0
C998 C 0.61986 0.97021 0.4424 0.0
C999 C 0.61568 0.93797 0.42637 0.0
C1000 C 0.59787 0.91185 0.46375 0.0
C1001 C 0.59814 0.92779 0.37878 0.0
C1002 C 0.6508 0.9464 0.4219 0.0
C1003 C 0.67136 0.97829 0.4338 0.0
C1004 C 0.70481 0.99215 0.4323 0.0
C1005 C 0.71776 0.97293 0.41843 0.0
C1006 C 0.69742 0.94007 0.40603 0.0
C1007 C 0.66339 0.9267 0.40779 0.0
H1008 H 0.05082 0.57533 0.44835 0.0
H1009 H 0.13012 0.55799 0.47578 0.0
H1010 H 0.16836 0.61121 0.44197 0.0
H1011 H 0.07994 0.61539 0.33809 0.0
H1012 H 0.06632 0.64381 0.34819 0.0
H1013 H 0.04529 0.60445 0.37477 0.0
H1014 H 0.05343 0.63074 0.45703 0.0
H1015 H 0.07429 0.67017 0.4307 0.0
H1016 H 0.09363 0.65989 0.47637 0.0
H1017 H 0.198 0.66669 0.40445 0.0
H1018 H 0.2165 0.72029 0.36898 0.0
H1019 H 0.11744 0.70047 0.36665 0.0
C1020 C 0.07623 0.5827 0.44745 0.0
C1021 C 0.08744 0.56245 0.46481 0.0
C1022 C 0.12092 0.57308 0.46279 0.0
C1023 C 0.14284 0.60325 0.44355 0.0
C1024 C 0.13091 0.6225 0.42647 0.0
C1025 C 0.09839 0.61266 0.42841 0.0
C1026 C 0.09169 0.63784 0.40795 0.0
C1027 C 0.0695 0.62457 0.36468 0.0
C1028 C 0.07743 0.6504 0.44524 0.0
C1029 C 0.12553 0.66349 0.39436 0.0
C1030 C 0.14786 0.65422 0.40509 0.0
C1031 C 0.1807 0.67418 0.39589 0.0
C1032 C 0.19098 0.70455 0.37564 0.0
C1033 C 0.16847 0.71463 0.36499 0.0
C1034 C 0.13533 0.69357 0.37428 0.0
H1035 H 0.29717 0.44846 0.35654 0.0
H1036 H 0.26826 0.34829 0.38324 0.0
H1037 H 0.31616 0.36627 0.43437 0.0
H1038 H 0.38331 0.4796 0.3534 0.0
H1039 H 0.39278 0.51688 0.3822 0.0
H1040 H 0.35678 0.49591 0.34688 0.0
H1041 H 0.32213 0.4947 0.41799 0.0
H1042 H 0.35819 0.51563 0.45325 0.0
H1043 H 0.32517 0.47751 0.47266 0.0
H1044 H 0.36621 0.39509 0.48366 0.0
H1045 H 0.417 0.43232 0.524 0.0
H1046 H 0.41335 0.51416 0.4658 0.0
C1047 C 0.30103 0.43018 0.37258 0.0
C1048 C 0.27898 0.39686 0.36557 0.0
C1049 C 0.28488 0.37389 0.38774 0.0
C1050 C 0.31192 0.38389 0.41705 0.0
C1051 C 0.33272 0.41691 0.42385 0.0
C1052 C 0.32773 0.43971 0.40198 0.0
C1053 C 0.35362 0.47371 0.41531 0.0
C1054 C 0.37275 0.49263 0.37186 0.0
C1055 C 0.33889 0.49143 0.44133 0.0
C1056 C 0.37424 0.46654 0.4479 0.0
C1057 C 0.36157 0.43359 0.45248 0.0
C1058 C 0.37637 0.42089 0.48024 0.0
C1059 C 0.40526 0.44234 0.50306 0.0
C1060 C 0.41925 0.47625 0.49808 0.0
C1061 C 0.40315 0.48845 0.47067 0.0
H1062 H 0.83634 0.75528 0.24952 0.0
H1063 H 0.93303 0.83812 0.23764 0.0
H1064 H 0.91389 0.87282 0.27256 0.0
H1065 H 0.79375 0.79761 0.22049 0.0
H1066 H 0.76139 0.77461 0.26112 0.0
H1067 H 0.78289 0.75673 0.23471 0.0
H1068 H 0.79612 0.74399 0.31748 0.0
H1069 H 0.77499 0.76218 0.34414 0.0
H1070 H 0.81653 0.77625 0.35951 0.0
H1071 H 0.88423 0.89811 0.3116 0.0
H1072 H 0.84558 0.9127 0.34507 0.0
H1073 H 0.76844 0.81323 0.32979 0.0
C1074 C 0.85351 0.78076 0.25393 0.0
C1075 C 0.88623 0.79396 0.24084 0.0
C1076 C 0.90782 0.82746 0.24719 0.0
C1077 C 0.89721 0.84734 0.26723 0.0
C1078 C 0.8649 0.8334 0.28046 0.0
C1079 C 0.84331 0.80094 0.27355 0.0
C1080 C 0.80978 0.79193 0.29021 0.0
C1081 C 0.78553 0.77949 0.24919 0.0
C1082 C 0.79872 0.76712 0.33021 0.0
C1083 C 0.81587 0.82436 0.30776 0.0
C1084 C 0.84784 0.84797 0.30216 0.0
C1085 C 0.85912 0.87982 0.31601 0.0
C1086 C 0.83702 0.88784 0.33522 0.0
C1087 C 0.80396 0.86414 0.34012 0.0
C1088 C 0.79352 0.83195 0.32659 0.0
H1089 H 0.34291 0.02454 0.15895 0.0
H1090 H 0.29135 0.06382 0.23406 0.0
H1091 H 0.2636 0.01449 0.28121 0.0
H1092 H 0.27651 0.94505 0.15047 0.0
H1093 H 0.29935 0.92484 0.15874 0.0
H1094 H 0.31851 0.96474 0.13396 0.0
H1095 H 0.36243 0.98504 0.19879 0.0
H1096 H 0.34336 0.94514 0.22384 0.0
H1097 H 0.35052 0.9792 0.25962 0.0
H1098 H 0.23796 0.96082 0.31526 0.0
H1099 H 0.21408 0.90336 0.33444 0.0
H1100 H 0.28063 0.89579 0.23897 0.0
C1101 C 0.32617 0.02279 0.18589 0.0
C1102 C 0.31921 0.04795 0.19284 0.0
C1103 C 0.29681 0.04473 0.22785 0.0
C1104 C 0.28108 0.01689 0.25511 0.0
C1105 C 0.28786 0.99228 0.24697 0.0
C1106 C 0.30974 0.99469 0.21331 0.0
C1107 C 0.31033 0.96327 0.20983 0.0
C1108 C 0.30059 0.94861 0.16031 0.0
C1109 C 0.34365 0.96848 0.22386 0.0
C1110 C 0.28479 0.9428 0.24591 0.0
C1111 C 0.27259 0.96041 0.26711 0.0
C1112 C 0.24752 0.94681 0.29942 0.0
C1113 C 0.23403 0.91411 0.30992 0.0
C1114 C 0.2456 0.89523 0.28837 0.0
C1115 C 0.27176 0.90988 0.25656 0.0
H1116 H 0.09097 0.27978 0.2765 0.0
H1117 H 0.10405 0.3762 0.26688 0.0
H1118 H 0.04691 0.35304 0.24598 0.0
H1119 H 0.03539 0.24604 0.17835 0.0
H1120 H 1.01051 0.20725 0.20532 0.0
H1121 H 0.05274 0.2309 0.22033 0.0
H1122 H 0.03791 0.22827 0.30821 0.0
H1123 H 0.99564 0.20456 0.29348 0.0
H1124 H 1.01035 0.24153 0.32635 0.0
H1125 H 0.98938 0.32097 0.22685 0.0
H1126 H 0.93308 0.28093 0.20924 0.0
H1127 H 0.95458 0.20365 0.22902 0.0
C1128 C 0.08174 0.29596 0.27009 0.0
C1129 C 0.1022 0.32991 0.27338 0.0
C1130 C 0.08912 0.35019 0.26452 0.0
C1131 C 0.05658 0.33727 0.25263 0.0
C1132 C 0.03718 0.30392 0.24949 0.0
C1133 C 0.04905 0.28339 0.25782 0.0
C1134 C 0.02249 0.24837 0.25149 0.0
C1135 C 0.03079 0.23219 0.21149 0.0
C1136 C 1.01623 0.22958 0.29763 0.0
C1137 C 0.994 0.25265 0.23844 0.0
C1138 C 1.0033 0.285 0.23771 0.0
C1139 C 0.98174 0.29553 0.22724 0.0
C1140 C 0.94968 0.27245 0.21734 0.0
C1141 C 0.93918 0.23899 0.21772 0.0
C1142 C 0.96181 0.22899 0.22826 0.0
H1143 H 0.3314 0.26486 0.69497 0.0
H1144 H 0.24463 0.17187 0.6725 0.0
H1145 H 0.21124 0.19482 0.69642 0.0
H1146 H 0.30249 0.28787 0.79717 0.0
H1147 H 0.32063 0.32979 0.78119 0.0
H1148 H 0.33875 0.30657 0.76226 0.0
H1149 H 0.33576 0.32152 0.67587 0.0
H1150 H 0.31767 0.34483 0.69455 0.0
H1151 H 0.29746 0.31313 0.65167 0.0
H1152 H 0.1866 0.22598 0.72359 0.0
H1153 H 0.17138 0.26516 0.75061 0.0
H1154 H 0.27266 0.33988 0.75494 0.0
C1155 C 0.30539 0.24941 0.69507 0.0
C1156 C 0.29079 0.21646 0.68171 0.0
C1157 C 0.2566 0.19714 0.68229 0.0
C1158 C 0.23727 0.20992 0.69597 0.0
C1159 C 0.25226 0.24225 0.70889 0.0
C1160 C 0.28545 0.26194 0.70844 0.0
C1161 C 0.29485 0.29605 0.72375 0.0
C1162 C 0.31539 0.30562 0.76877 0.0
C1163 C 0.31247 0.32031 0.68409 0.0
C1164 C 0.26172 0.29216 0.73293 0.0
C1165 C 0.23767 0.26078 0.72419 0.0
C1166 C 0.20515 0.25069 0.73044 0.0
C1167 C 0.19678 0.27322 0.74594 0.0
C1168 C 0.22074 0.30572 0.75494 0.0
C1169 C 0.25374 0.31528 0.74823 0.0
H1170 H 0.7413 0.05006 0.76448 0.0
H1171 H 0.8083 0.04717 0.66476 0.0
H1172 H 0.78396 0.98877 0.67738 0.0
H1173 H 0.74536 0.99641 0.84563 0.0
H1174 H 0.70343 0.97647 0.86253 0.0
H1175 H 0.72302 0.01745 0.8418 0.0
H1176 H 0.67913 1.00099 0.77757 0.0
H1177 H 0.65939 0.95988 0.79812 0.0
H1178 H 0.67137 0.96868 0.73753 0.0
H1179 H 0.75632 0.93272 0.70355 0.0
H1180 H 0.72829 0.8812 0.74568 0.0
H1181 H 0.67867 0.91773 0.83152 0.0
C1182 C 0.75029 0.03688 0.74473 0.0
C1183 C 0.77655 0.05308 0.71333 0.0
C1184 C 0.78825 0.03527 0.68894 0.0
C1185 C 0.77445 1.00203 0.69566 0.0
C1186 C 0.74903 0.9868 0.72724 0.0
C1187 C 0.73704 1.00346 0.75168 0.0
C1188 C 0.71136 0.98129 0.78655 0.0
C1189 C 0.72141 0.99365 0.83712 0.0
C1190 C 0.67835 0.97749 0.77419 0.0
C1191 C 0.71145 0.9499 0.77844 0.0
C1192 C 0.73314 0.95381 0.74347 0.0
C1193 C 0.73911 0.92926 0.73075 0.0
C1194 C 0.72312 0.90009 0.75504 0.0
C1195 C 0.70131 0.89547 0.79182 0.0
C1196 C 0.69483 0.92048 0.80308 0.0
H1197 H 0.07278 0.79773 0.8067 0.0
H1198 H 0.10143 0.8982 0.82967 0.0
H1199 H 0.04607 0.88586 0.80832 0.0
H1200 H 0.02322 0.78464 0.70706 0.0
H1201 H 0.99363 0.74396 0.72316 0.0
H1202 H 0.03498 0.76077 0.74174 0.0
H1203 H 1.01655 0.74832 0.82848 0.0
H1204 H 0.97511 0.73127 0.81012 0.0
H1205 H 0.99192 0.7634 0.85291 0.0
H1206 H 0.98685 0.86176 0.78136 0.0
H1207 H 0.93011 0.82842 0.75446 0.0
H1208 H 0.9419 0.74433 0.75015 0.0
C1209 C 0.06753 0.81725 0.80757 0.0
C1210 C 0.09159 0.84901 0.8199 0.0
C1211 C 0.08345 0.87367 0.82052 0.0
C1212 C 0.05206 0.86687 0.80832 0.0
C1213 C 0.02907 0.83528 0.7958 0.0
C1214 C 0.03651 0.81089 0.79568 0.0
C1215 C 1.00788 0.77898 0.78066 0.0
C1216 C 1.01539 0.76636 0.73547 0.0
C1217 C 0.99724 0.75403 0.82042 0.0
C1218 C 0.98304 0.78911 0.7719 0.0
C1219 C 0.99555 0.82163 0.78076 0.0
C1220 C 0.97688 0.83627 0.77452 0.0
C1221 C 0.94466 0.81714 0.75912 0.0
C1222 C 0.9314 0.7837 0.75014 0.0
C1223 C 0.95111 0.76977 0.75668 0.0
loop_
_geom_bond_atom_site_label_1
_geom_bond_atom_site_label_2
_geom_bond_distance
_geom_bond_site_symmetry_2
_ccdc_geom_bond_type
C0 O2 1.247 1_655 S
C0 O4 1.258 . S
C1 O8 1.247 1_455 S
C1 O9 1.258 . S
O2 C0 1.247 1_455 S
O2 Zn3 2.025 1_556 S
Zn3 O2 2.025 1_554 S
Zn3 O7 2.027 1_455 S
Zn3 O9 2.039 . S
Zn3 O10 2.027 1_554 S
O4 C0 1.258 . S
O4 Zn5 2.015 1_556 S
Zn5 O4 2.015 1_554 S
Zn5 O6 2.031 . S
Zn5 O8 2.048 . S
Zn5 O11 2.014 1_654 S
O6 Zn5 2.031 . S
O6 C12 1.247 . S
O7 Zn3 2.027 1_655 S
O7 C12 1.266 . S
O8 C1 1.247 1_655 S
O8 Zn5 2.048 . S
O9 C1 1.258 . S
O9 Zn3 2.039 . S
O10 Zn3 2.027 1_556 S
O10 C13 1.247 . S
O11 Zn5 2.014 1_456 S
O11 C13 1.274 . S
C12 O6 1.247 . S
C12 O7 1.266 . S
C13 O10 1.247 . S
C13 O11 1.274 . S
C14 O16 1.247 . S
C14 O18 1.258 . S
C15 O22 1.247 . S
C15 O23 1.258 . S
O16 C14 1.247 . S
O16 Zn17 2.048 . S
Zn17 O16 2.048 . S
Zn17 O21 2.032 1_554 S
Zn17 O23 2.015 1_554 S
Zn17 O24 2.031 . S
O18 C14 1.258 . S
O18 Zn19 2.038 . S
Zn19 O18 2.038 . S
Zn19 O20 2.027 1_554 S
Zn19 O22 2.025 1_554 S
Zn19 O25 2.036 . S
O20 Zn19 2.027 1_556 S
O20 C26 1.247 . S
O21 Zn17 2.032 1_556 S
O21 C26 1.258 . S
O22 C15 1.247 . S
O22 Zn19 2.025 1_556 S
O23 C15 1.258 . S
O23 Zn17 2.015 1_556 S
O24 Zn17 2.031 . S
O24 C27 1.247 . S
O25 Zn19 2.036 . S
O25 C27 1.258 . S
C26 O20 1.247 . S
C26 O21 1.258 . S
C27 O24 1.247 . S
C27 O25 1.258 . S
C28 O30 1.247 . S
C28 O32 1.258 1_565 S
C29 O36 1.247 . S
C29 O37 1.258 1_545 S
O30 C28 1.247 . S
O30 Zn31 2.047 . S
Zn31 O30 2.047 . S
Zn31 O35 2.032 1_554 S
Zn31 O37 2.016 1_554 S
Zn31 O38 2.031 1_565 S
O32 C28 1.258 1_545 S
O32 Zn33 2.038 . S
Zn33 O32 2.038 . S
Zn33 O34 2.029 1_554 S
Zn33 O36 2.025 1_554 S
Zn33 O39 2.036 . S
O34 Zn33 2.029 1_556 S
O34 C40 1.237 1_545 S
O35 Zn31 2.032 1_556 S
O35 C40 1.258 . S
O36 C29 1.247 . S
O36 Zn33 2.025 1_556 S
O37 C29 1.258 1_565 S
O37 Zn31 2.016 1_556 S
O38 Zn31 2.031 1_545 S
O38 C41 1.247 . S
O39 Zn33 2.036 . S
O39 C41 1.258 . S
C40 O34 1.237 1_565 S
C40 O35 1.258 . S
C41 O38 1.247 . S
C41 O39 1.258 . S
C42 O44 1.247 1_565 S
C42 O46 1.258 . S
C43 O50 1.247 1_545 S
C43 O51 1.258 . S
O44 C42 1.247 1_545 S
O44 Zn45 2.028 . S
Zn45 O44 2.028 . S
Zn45 O49 2.049 . S
Zn45 O51 2.035 . S
Zn45 O52 2.028 . S
O46 C42 1.258 . S
O46 Zn47 2.035 . S
Zn47 O46 2.035 . S
Zn47 O48 2.028 . S
Zn47 O50 2.028 . S
Zn47 O53 2.035 1_565 S
O48 Zn47 2.028 . S
O48 C54 1.247 . S
O49 Zn45 2.049 . S
O49 C54 1.246 1_545 S
O50 C43 1.247 1_565 S
O50 Zn47 2.028 . S
O51 C43 1.258 . S
O51 Zn45 2.035 . S
O52 Zn45 2.028 . S
O52 C55 1.247 . S
O53 Zn47 2.035 1_545 S
O53 C55 1.258 . S
C54 O48 1.247 . S
C54 O49 1.246 1_565 S
C55 O52 1.247 . S
C55 O53 1.258 . S
C56 O58 1.247 1_455 S
C56 O60 1.258 . S
C57 O64 1.247 1_655 S
C57 O65 1.258 . S
O58 C56 1.247 1_655 S
O58 Zn59 2.028 . S
Zn59 O58 2.028 . S
Zn59 O63 2.032 1_655 S
Zn59 O65 2.035 . S
Zn59 O66 2.028 . S
O60 C56 1.258 . S
O60 Zn61 2.035 . S
Zn61 O60 2.035 . S
Zn61 O62 2.028 . S
Zn61 O64 2.028 . S
Zn61 O67 2.034 1_455 S
O62 Zn61 2.028 . S
O62 C68 1.247 . S
O63 Zn59 2.032 1_455 S
O63 C68 1.275 . S
O64 C57 1.247 1_455 S
O64 Zn61 2.028 . S
O65 C57 1.258 . S
O65 Zn59 2.035 . S
O66 Zn59 2.028 . S
O66 C69 1.247 . S
O67 Zn61 2.034 1_655 S
O67 C69 1.267 . S
C68 O62 1.247 . S
C68 O63 1.275 . S
C69 O66 1.247 . S
C69 O67 1.267 . S
C70 O72 1.247 . S
C70 O74 1.258 . S
C71 O78 1.247 . S
C71 O79 1.258 . S
O72 C70 1.247 . S
O72 Zn73 2.028 . S
Zn73 O72 2.028 . S
Zn73 O77 2.035 . S
Zn73 O79 2.035 . S
Zn73 O80 2.028 . S
O74 C70 1.258 . S
O74 Zn75 2.035 . S
Zn75 O74 2.035 . S
Zn75 O76 2.028 . S
Zn75 O78 2.028 . S
Zn75 O81 2.035 . S
O76 Zn75 2.028 . S
O76 C82 1.247 . S
O77 Zn73 2.035 . S
O77 C82 1.258 . S
O78 C71 1.247 . S
O78 Zn75 2.028 . S
O79 C71 1.258 . S
O79 Zn73 2.035 . S
O80 Zn73 2.028 . S
O80 C83 1.247 . S
O81 Zn75 2.035 . S
O81 C83 1.258 . S
C82 O76 1.247 . S
C82 O77 1.258 . S
C83 O80 1.247 . S
C83 O81 1.258 . S
C84 O86 1.247 . S
C84 O88 1.258 . S
C85 O92 1.247 . S
C85 O93 1.258 . S
O86 C84 1.247 . S
O86 Zn87 2.028 . S
Zn87 O86 2.028 . S
Zn87 O91 2.035 . S
Zn87 O93 2.035 . S
Zn87 O94 2.028 . S
O88 C84 1.258 . S
O88 Zn89 2.035 . S
Zn89 O88 2.035 . S
Zn89 O90 2.028 . S
Zn89 O92 2.028 . S
Zn89 O95 2.035 . S
O90 Zn89 2.028 . S
O90 C96 1.247 . S
O91 Zn87 2.035 . S
O91 C96 1.258 . S
O92 C85 1.247 . S
O92 Zn89 2.028 . S
O93 C85 1.258 . S
O93 Zn87 2.035 . S
O94 Zn87 2.028 . S
O94 C97 1.247 . S
O95 Zn89 2.035 . S
O95 C97 1.258 . S
C96 O90 1.247 . S
C96 O91 1.258 . S
C97 O94 1.247 . S
C97 O95 1.258 . S
C98 O100 1.247 . S
C98 O102 1.258 . S
C99 O106 1.247 . S
C99 O107 1.258 . S
O100 C98 1.247 . S
O100 Zn101 2.028 . S
Zn101 O100 2.028 . S
Zn101 O105 2.035 . S
Zn101 O107 2.035 . S
Zn101 O108 2.028 . S
O102 C98 1.258 . S
O102 Zn103 2.035 . S
Zn103 O102 2.035 . S
Zn103 O104 2.028 . S
Zn103 O106 2.028 . S
Zn103 O109 2.035 . S
O104 Zn103 2.028 . S
O104 C110 1.247 . S
O105 Zn101 2.035 . S
O105 C110 1.258 . S
O106 C99 1.247 . S
O106 Zn103 2.028 . S
O107 C99 1.258 . S
O107 Zn101 2.035 . S
O108 Zn101 2.028 . S
O108 C111 1.247 . S
O109 Zn103 2.035 . S
O109 C111 1.258 . S
C110 O104 1.247 . S
C110 O105 1.258 . S
C111 O108 1.247 . S
C111 O109 1.258 . S
C112 O114 1.247 . S
C112 O116 1.258 . S
C113 O120 1.247 . S
C113 O121 1.258 . S
O114 C112 1.247 . S
O114 Zn115 2.028 . S
Zn115 O114 2.028 . S
Zn115 O119 2.035 . S
Zn115 O121 2.035 . S
Zn115 O122 2.028 . S
O116 C112 1.258 . S
O116 Zn117 2.035 . S
Zn117 O116 2.035 . S
Zn117 O118 2.028 . S
Zn117 O120 2.028 . S
Zn117 O123 2.035 . S
O118 Zn117 2.028 . S
O118 C124 1.247 . S
O119 Zn115 2.035 . S
O119 C124 1.258 . S
O120 C113 1.247 . S
O120 Zn117 2.028 . S
O121 C113 1.258 . S
O121 Zn115 2.035 . S
O122 Zn115 2.028 . S
O122 C125 1.247 . S
O123 Zn117 2.035 . S
O123 C125 1.258 . S
C124 O118 1.247 . S
C124 O119 1.258 . S
C125 O122 1.247 . S
C125 O123 1.258 . S
C126 O128 1.247 . S
C126 O130 1.258 . S
C127 O134 1.247 . S
C127 O135 1.258 . S
O128 C126 1.247 . S
O128 Zn129 2.028 . S
Zn129 O128 2.028 . S
Zn129 O133 2.035 . S
Zn129 O135 2.035 . S
Zn129 O136 2.028 . S
O130 C126 1.258 . S
O130 Zn131 2.035 . S
Zn131 O130 2.035 . S
Zn131 O132 2.028 . S
Zn131 O134 2.028 . S
Zn131 O137 2.035 . S
O132 Zn131 2.028 . S
O132 C138 1.247 . S
O133 Zn129 2.035 . S
O133 C138 1.258 . S
O134 C127 1.247 . S
O134 Zn131 2.028 . S
O135 C127 1.258 . S
O135 Zn129 2.035 . S
O136 Zn129 2.028 . S
O136 C139 1.247 . S
O137 Zn131 2.035 . S
O137 C139 1.258 . S
C138 O132 1.247 . S
C138 O133 1.258 . S
C139 O136 1.247 . S
C139 O137 1.258 . S
C140 O142 1.247 . S
C140 O144 1.258 . S
C141 O148 1.247 . S
C141 O149 1.258 . S
O142 C140 1.247 . S
O142 Zn143 2.028 . S
Zn143 O142 2.028 . S
Zn143 O147 2.035 . S
Zn143 O149 2.035 . S
Zn143 O150 2.028 . S
O144 C140 1.258 . S
O144 Zn145 2.035 . S
Zn145 O144 2.035 . S
Zn145 O146 2.028 . S
Zn145 O148 2.028 . S
Zn145 O151 2.035 . S
O146 Zn145 2.028 . S
O146 C152 1.247 . S
O147 Zn143 2.035 . S
O147 C152 1.258 . S
O148 C141 1.247 . S
O148 Zn145 2.028 . S
O149 C141 1.258 . S
O149 Zn143 2.035 . S
O150 Zn143 2.028 . S
O150 C153 1.247 . S
O151 Zn145 2.035 . S
O151 C153 1.258 . S
C152 O146 1.247 . S
C152 O147 1.258 . S
C153 O150 1.247 . S
C153 O151 1.258 . S
C154 O156 1.247 . S
C154 O158 1.258 . S
C155 O162 1.247 . S
C155 O163 1.258 . S
O156 C154 1.247 . S
O156 Zn157 2.028 . S
Zn157 O156 2.028 . S
Zn157 O161 2.035 . S
Zn157 O163 2.035 . S
Zn157 O164 2.028 . S
O158 C154 1.258 . S
O158 Zn159 2.035 . S
Zn159 O158 2.035 . S
Zn159 O160 2.028 . S
Zn159 O162 2.028 . S
Zn159 O165 2.035 . S
O160 Zn159 2.028 . S
O160 C166 1.247 . S
O161 Zn157 2.035 . S
O161 C166 1.258 . S
O162 C155 1.247 . S
O162 Zn159 2.028 . S
O163 C155 1.258 . S
O163 Zn157 2.035 . S
O164 Zn157 2.028 . S
O164 C167 1.247 . S
O165 Zn159 2.035 . S
O165 C167 1.258 . S
C166 O160 1.247 . S
C166 O161 1.258 . S
C167 O164 1.247 . S
C167 O165 1.258 . S
C168 O170 1.247 . S
C168 O172 1.258 . S
C169 O176 1.247 . S
C169 O177 1.258 . S
O170 C168 1.247 . S
O170 Zn171 2.028 . S
Zn171 O170 2.028 . S
Zn171 O175 2.035 . S
Zn171 O177 2.035 . S
Zn171 O178 2.028 . S
O172 C168 1.258 . S
O172 Zn173 2.035 . S
Zn173 O172 2.035 . S
Zn173 O174 2.028 . S
Zn173 O176 2.028 . S
Zn173 O179 2.035 . S
O174 Zn173 2.028 . S
O174 C180 1.247 . S
O175 Zn171 2.035 . S
O175 C180 1.258 . S
O176 C169 1.247 . S
O176 Zn173 2.028 . S
O177 C169 1.258 . S
O177 Zn171 2.035 . S
O178 Zn171 2.028 . S
O178 C181 1.247 . S
O179 Zn173 2.035 . S
O179 C181 1.258 . S
C180 O174 1.247 . S
C180 O175 1.258 . S
C181 O178 1.247 . S
C181 O179 1.258 . S
C182 O184 1.247 . S
C182 O186 1.258 . S
C183 O190 1.247 . S
C183 O191 1.258 . S
O184 C182 1.247 . S
O184 Zn185 2.028 . S
Zn185 O184 2.028 . S
Zn185 O189 2.035 . S
Zn185 O191 2.035 . S
Zn185 O192 2.028 . S
O186 C182 1.258 . S
O186 Zn187 2.035 . S
Zn187 O186 2.035 . S
Zn187 O188 2.028 . S
Zn187 O190 2.028 . S
Zn187 O193 2.035 . S
O188 Zn187 2.028 . S
O188 C194 1.247 . S
O189 Zn185 2.035 . S
O189 C194 1.258 . S
O190 C183 1.247 . S
O190 Zn187 2.028 . S
O191 C183 1.258 . S
O191 Zn185 2.035 . S
O192 Zn185 2.028 . S
O192 C195 1.247 . S
O193 Zn187 2.035 . S
O193 C195 1.258 . S
C194 O188 1.247 . S
C194 O189 1.258 . S
C195 O192 1.247 . S
C195 O193 1.258 . S
C196 O198 1.247 . S
C196 O200 1.258 . S
C197 O204 1.247 . S
C197 O205 1.258 . S
O198 C196 1.247 . S
O198 Zn199 2.028 . S
Zn199 O198 2.028 . S
Zn199 O203 2.035 . S
Zn199 O205 2.035 . S
Zn199 O206 2.028 . S
O200 C196 1.258 . S
O200 Zn201 2.035 . S
Zn201 O200 2.035 . S
Zn201 O202 2.028 . S
Zn201 O204 2.028 . S
Zn201 O207 2.035 . S
O202 Zn201 2.028 . S
O202 C208 1.247 . S
O203 Zn199 2.035 . S
O203 C208 1.258 . S
O204 C197 1.247 . S
O204 Zn201 2.028 . S
O205 C197 1.258 . S
O205 Zn199 2.035 . S
O206 Zn199 2.028 . S
O206 C209 1.247 . S
O207 Zn201 2.035 . S
O207 C209 1.258 . S
C208 O202 1.247 . S
C208 O203 1.258 . S
C209 O206 1.247 . S
C209 O207 1.258 . S
C210 O212 1.247 . S
C210 O214 1.258 . S
C211 O218 1.247 . S
C211 O219 1.258 . S
O212 C210 1.247 . S
O212 Zn213 2.028 . S
Zn213 O212 2.028 . S
Zn213 O217 2.035 . S
Zn213 O219 2.035 . S
Zn213 O220 2.028 . S
O214 C210 1.258 . S
O214 Zn215 2.035 . S
Zn215 O214 2.035 . S
Zn215 O216 2.028 . S
Zn215 O218 2.028 . S
Zn215 O221 2.035 . S
O216 Zn215 2.028 . S
O216 C222 1.247 . S
O217 Zn213 2.035 . S
O217 C222 1.258 . S
O218 C211 1.247 . S
O218 Zn215 2.028 . S
O219 C211 1.258 . S
O219 Zn213 2.035 . S
O220 Zn213 2.028 . S
O220 C223 1.247 . S
O221 Zn215 2.035 . S
O221 C223 1.258 . S
C222 O216 1.247 . S
C222 O217 1.258 . S
C223 O220 1.247 . S
C223 O221 1.258 . S
C224 O226 1.247 . S
C224 O228 1.258 . S
C225 O232 1.247 . S
C225 O233 1.258 . S
O226 C224 1.247 . S
O226 Zn227 2.028 . S
Zn227 O226 2.028 . S
Zn227 O231 2.035 . S
Zn227 O233 2.035 . S
Zn227 O234 2.028 . S
O228 C224 1.258 . S
O228 Zn229 2.035 . S
Zn229 O228 2.035 . S
Zn229 O230 2.028 . S
Zn229 O232 2.028 . S
Zn229 O235 2.035 . S
O230 Zn229 2.028 . S
O230 C236 1.247 . S
O231 Zn227 2.035 . S
O231 C236 1.258 . S
O232 C225 1.247 . S
O232 Zn229 2.028 . S
O233 C225 1.258 . S
O233 Zn227 2.035 . S
O234 Zn227 2.028 . S
O234 C237 1.247 . S
O235 Zn229 2.035 . S
O235 C237 1.258 . S
C236 O230 1.247 . S
C236 O231 1.258 . S
C237 O234 1.247 . S
C237 O235 1.258 . S
C238 O240 1.247 . S
C238 O242 1.258 . S
C239 O246 1.247 . S
C239 O247 1.258 . S
O240 C238 1.247 . S
O240 Zn241 2.028 . S
Zn241 O240 2.028 . S
Zn241 O245 2.035 . S
Zn241 O247 2.035 . S
Zn241 O248 2.028 . S
O242 C238 1.258 . S
O242 Zn243 2.035 . S
Zn243 O242 2.035 . S
Zn243 O244 2.028 . S
Zn243 O246 2.028 . S
Zn243 O249 2.035 . S
O244 Zn243 2.028 . S
O244 C250 1.247 . S
O245 Zn241 2.035 . S
O245 C250 1.258 . S
O246 C239 1.247 . S
O246 Zn243 2.028 . S
O247 C239 1.258 . S
O247 Zn241 2.035 . S
O248 Zn241 2.028 . S
O248 C251 1.247 . S
O249 Zn243 2.035 . S
O249 C251 1.258 . S
C250 O244 1.247 . S
C250 O245 1.258 . S
C251 O248 1.247 . S
C251 O249 1.258 . S
H252 C264 0.927 1_455 S
H253 C266 0.930 . S
H254 C267 0.930 . S
H255 C271 0.959 . S
H256 C271 0.959 . S
H257 C271 0.961 . S
H258 C272 0.960 . S
H259 C272 0.961 . S
H260 C272 0.959 . S
H261 C275 0.929 . S
H262 C276 0.931 . S
H263 C278 0.930 . S
C264 H252 0.927 1_655 S
C264 C265 1.399 . S
C264 C269 1.399 . S
C265 C264 1.399 . S
C265 C266 1.376 . S
C266 H253 0.930 . S
C266 C265 1.376 . S
C266 C267 1.388 . S
C267 H254 0.930 . S
C267 C266 1.388 . S
C267 C268 1.390 . S
C268 C267 1.390 . S
C268 C269 1.394 . S
C268 C274 1.465 . S
C269 C264 1.399 . S
C269 C268 1.394 . S
C269 C270 1.516 . S
C270 C269 1.516 . S
C270 C271 1.502 1_655 S
C270 C272 1.561 . S
C270 C273 1.522 . S
C271 H255 0.959 . S
C271 H256 0.959 . S
C271 H257 0.961 . S
C271 C270 1.502 1_455 S
C272 H258 0.960 . S
C272 H259 0.961 . S
C272 H260 0.959 . S
C272 C270 1.561 . S
C273 C270 1.522 . S
C273 C274 1.403 . S
C273 C278 1.387 1_655 S
C274 C268 1.465 . S
C274 C273 1.403 . S
C274 C275 1.399 . S
C275 H261 0.929 . S
C275 C274 1.399 . S
C275 C276 1.390 . S
C276 H262 0.931 . S
C276 C275 1.390 . S
C276 C277 1.377 1_655 S
C277 C276 1.377 1_455 S
C277 C278 1.387 . S
C278 H263 0.930 . S
C278 C273 1.387 1_455 S
C278 C277 1.387 . S
H279 C291 0.930 . S
H280 C293 0.930 . S
H281 C294 0.930 . S
H282 C298 0.959 . S
H283 C298 0.959 . S
H284 C298 0.961 . S
H285 C299 0.960 . S
H286 C299 0.961 . S
H287 C299 0.959 . S
H288 C302 0.929 . S
H289 C303 0.931 . S
H290 C305 0.930 . S
C291 H279 0.930 . S
C291 C292 1.399 . S
C291 C296 1.399 . S
C292 C291 1.399 . S
C292 C293 1.376 . S
C293 H280 0.930 . S
C293 C292 1.376 . S
C293 C294 1.388 . S
C294 H281 0.930 . S
C294 C293 1.388 . S
C294 C295 1.390 . S
C295 C294 1.390 . S
C295 C296 1.394 . S
C295 C301 1.465 . S
C296 C291 1.399 . S
C296 C295 1.394 . S
C296 C297 1.516 . S
C297 C296 1.516 . S
C297 C298 1.502 . S
C297 C299 1.561 . S
C297 C300 1.526 . S
C298 H282 0.959 . S
C298 H283 0.959 . S
C298 H284 0.961 . S
C298 C297 1.502 . S
C299 H285 0.960 . S
C299 H286 0.961 . S
C299 H287 0.959 . S
C299 C297 1.561 . S
C300 C297 1.526 . S
C300 C301 1.396 . S
C300 C305 1.390 . S
C301 C295 1.465 . S
C301 C300 1.396 . S
C301 C302 1.399 . S
C302 H288 0.929 . S
C302 C301 1.399 . S
C302 C303 1.385 . S
C303 H289 0.931 . S
C303 C302 1.385 . S
C303 C304 1.389 . S
C304 C303 1.389 . S
C304 C305 1.387 . S
C305 H290 0.930 . S
C305 C300 1.390 . S
C305 C304 1.387 . S
H306 C318 0.930 . S
H307 C320 0.930 . S
H308 C321 0.930 . S
H309 C325 0.959 . S
H310 C325 0.959 . S
H311 C325 0.961 . S
H312 C326 0.960 . S
H313 C326 0.961 . S
H314 C326 0.959 . S
H315 C329 0.929 . S
H316 C330 0.931 . S
H317 C332 0.930 . S
C318 H306 0.930 . S
C318 C319 1.399 1_545 S
C318 C323 1.399 . S
C319 C318 1.399 1_565 S
C319 C320 1.376 . S
C320 H307 0.930 . S
C320 C319 1.376 . S
C320 C321 1.388 . S
C321 H308 0.930 . S
C321 C320 1.388 . S
C321 C322 1.390 . S
C322 C321 1.390 . S
C322 C323 1.394 1_565 S
C322 C328 1.465 . S
C323 C318 1.399 . S
C323 C322 1.394 1_545 S
C323 C324 1.516 . S
C324 C323 1.516 . S
C324 C325 1.502 . S
C324 C326 1.561 . S
C324 C327 1.526 . S
C325 H309 0.959 . S
C325 H310 0.959 . S
C325 H311 0.961 . S
C325 C324 1.502 . S
C326 H312 0.960 . S
C326 H313 0.961 . S
C326 H314 0.959 . S
C326 C324 1.561 . S
C327 C324 1.526 . S
C327 C328 1.396 1_545 S
C327 C332 1.390 . S
C328 C322 1.465 . S
C328 C327 1.396 1_565 S
C328 C329 1.399 . S
C329 H315 0.929 . S
C329 C328 1.399 . S
C329 C330 1.385 . S
C330 H316 0.931 . S
C330 C329 1.385 . S
C330 C331 1.389 1_565 S
C331 C330 1.389 1_545 S
C331 C332 1.387 . S
C332 H317 0.930 . S
C332 C327 1.390 . S
C332 C331 1.387 . S
H333 C345 0.930 . S
H334 C347 0.930 . S
H335 C348 0.930 . S
H336 C352 0.959 . S
H337 C352 0.959 . S
H338 C352 0.961 . S
H339 C353 0.960 . S
H340 C353 0.961 . S
H341 C353 0.959 . S
H342 C356 0.929 . S
H343 C357 0.931 . S
H344 C359 0.930 . S
C345 H333 0.930 . S
C345 C346 1.393 . S
C345 C350 1.399 . S
C346 C345 1.393 . S
C346 C347 1.382 1_455 S
C347 H334 0.930 . S
C347 C346 1.382 1_655 S
C347 C348 1.388 . S
C348 H335 0.930 . S
C348 C347 1.388 . S
C348 C349 1.390 . S
C349 C348 1.390 . S
C349 C350 1.394 1_655 S
C349 C355 1.465 . S
C350 C345 1.399 . S
C350 C349 1.394 1_455 S
C350 C351 1.516 . S
C351 C350 1.516 . S
C351 C352 1.502 . S
C351 C353 1.561 1_455 S
C351 C354 1.526 . S
C352 H336 0.959 . S
C352 H337 0.959 . S
C352 H338 0.961 . S
C352 C351 1.502 . S
C353 H339 0.960 . S
C353 H340 0.961 . S
C353 H341 0.959 . S
C353 C351 1.561 1_655 S
C354 C351 1.526 . S
C354 C355 1.396 1_455 S
C354 C359 1.390 . S
C355 C349 1.465 . S
C355 C354 1.396 1_655 S
C355 C356 1.399 . S
C356 H342 0.929 . S
C356 C355 1.399 . S
C356 C357 1.385 . S
C357 H343 0.931 . S
C357 C356 1.385 . S
C357 C358 1.389 . S
C358 C357 1.389 . S
C358 C359 1.387 1_655 S
C359 H344 0.930 . S
C359 C354 1.390 . S
C359 C358 1.387 1_455 S
H360 C372 0.930 . S
H361 C374 0.930 . S
H362 C375 0.930 . S
H363 C379 0.959 . S
H364 C379 0.959 . S
H365 C379 0.961 . S
H366 C380 0.960 . S
H367 C380 0.961 . S
H368 C380 0.959 . S
H369 C383 0.929 . S
H370 C384 0.931 . S
H371 C386 0.930 . S
C372 H360 0.930 . S
C372 C373 1.399 . S
C372 C377 1.399 . S
C373 C372 1.399 . S
C373 C374 1.376 . S
C374 H361 0.930 . S
C374 C373 1.376 . S
C374 C375 1.388 . S
C375 H362 0.930 . S
C375 C374 1.388 . S
C375 C376 1.390 . S
C376 C375 1.390 . S
C376 C377 1.394 . S
C376 C382 1.465 . S
C377 C372 1.399 . S
C377 C376 1.394 . S
C377 C378 1.516 . S
C378 C377 1.516 . S
C378 C379 1.502 . S
C378 C380 1.561 . S
C378 C381 1.526 . S
C379 H363 0.959 . S
C379 H364 0.959 . S
C379 H365 0.961 . S
C379 C378 1.502 . S
C380 H366 0.960 . S
C380 H367 0.961 . S
C380 H368 0.959 . S
C380 C378 1.561 . S
C381 C378 1.526 . S
C381 C382 1.396 . S
C381 C386 1.390 . S
C382 C376 1.465 . S
C382 C381 1.396 . S
C382 C383 1.399 . S
C383 H369 0.929 . S
C383 C382 1.399 . S
C383 C384 1.385 . S
C384 H370 0.931 . S
C384 C383 1.385 . S
C384 C385 1.389 . S
C385 C384 1.389 . S
C385 C386 1.387 . S
C386 H371 0.930 . S
C386 C381 1.390 . S
C386 C385 1.387 . S
H387 C399 0.930 . S
H388 C401 0.930 . S
H389 C402 0.930 . S
H390 C406 0.959 . S
H391 C406 0.959 . S
H392 C406 0.961 . S
H393 C407 0.960 . S
H394 C407 0.961 . S
H395 C407 0.959 . S
H396 C410 0.929 . S
H397 C411 0.931 . S
H398 C413 0.930 . S
C399 H387 0.930 . S
C399 C400 1.399 . S
C399 C404 1.399 . S
C400 C399 1.399 . S
C400 C401 1.376 1_545 S
C401 H388 0.930 . S
C401 C400 1.376 1_565 S
C401 C402 1.388 . S
C402 H389 0.930 . S
C402 C401 1.388 . S
C402 C403 1.390 . S
C403 C402 1.390 . S
C403 C404 1.394 1_565 S
C403 C409 1.465 . S
C404 C399 1.399 . S
C404 C403 1.394 1_545 S
C404 C405 1.516 . S
C405 C404 1.516 . S
C405 C406 1.502 . S
C405 C407 1.561 . S
C405 C408 1.526 . S
C406 H390 0.959 . S
C406 H391 0.959 . S
C406 H392 0.961 . S
C406 C405 1.502 . S
C407 H393 0.960 . S
C407 H394 0.961 . S
C407 H395 0.959 . S
C407 C405 1.561 . S
C408 C405 1.526 . S
C408 C409 1.396 1_545 S
C408 C413 1.390 . S
C409 C403 1.465 . S
C409 C408 1.396 1_565 S
C409 C410 1.399 . S
C410 H396 0.929 . S
C410 C409 1.399 . S
C410 C411 1.385 . S
C411 H397 0.931 . S
C411 C410 1.385 . S
C411 C412 1.389 . S
C412 C411 1.389 . S
C412 C413 1.387 1_565 S
C413 H398 0.930 . S
C413 C408 1.390 . S
C413 C412 1.387 1_545 S
H414 C426 0.930 . S
H415 C428 0.930 . S
H416 C429 0.930 . S
H417 C433 0.959 . S
H418 C433 0.959 . S
H419 C433 0.961 . S
H420 C434 0.960 . S
H421 C434 0.961 . S
H422 C434 0.959 . S
H423 C437 0.929 . S
H424 C438 0.931 . S
H425 C440 0.930 . S
C426 H414 0.930 . S
C426 C427 1.399 . S
C426 C431 1.399 . S
C427 C426 1.399 . S
C427 C428 1.376 . S
C428 H415 0.930 . S
C428 C427 1.376 . S
C428 C429 1.388 . S
C429 H416 0.930 . S
C429 C428 1.388 . S
C429 C430 1.390 . S
C430 C429 1.390 . S
C430 C431 1.394 . S
C430 C436 1.465 . S
C431 C426 1.399 . S
C431 C430 1.394 . S
C431 C432 1.516 . S
C432 C431 1.516 . S
C432 C433 1.502 . S
C432 C434 1.561 . S
C432 C435 1.526 . S
C433 H417 0.959 . S
C433 H418 0.959 . S
C433 H419 0.961 . S
C433 C432 1.502 . S
C434 H420 0.960 . S
C434 H421 0.961 . S
C434 H422 0.959 . S
C434 C432 1.561 . S
C435 C432 1.526 . S
C435 C436 1.396 . S
C435 C440 1.390 . S
C436 C430 1.465 . S
C436 C435 1.396 . S
C436 C437 1.399 . S
C437 H423 0.929 . S
C437 C436 1.399 . S
C437 C438 1.385 . S
C438 H424 0.931 . S
C438 C437 1.385 . S
C438 C439 1.389 . S
C439 C438 1.389 . S
C439 C440 1.387 . S
C440 H425 0.930 . S
C440 C435 1.390 . S
C440 C439 1.387 . S
H441 C453 0.930 . S
H442 C455 0.930 . S
H443 C456 0.930 . S
H444 C460 0.959 . S
H445 C460 0.959 . S
H446 C460 0.961 . S
H447 C461 0.960 . S
H448 C461 0.961 . S
H449 C461 0.959 . S
H450 C464 0.929 . S
H451 C465 0.931 . S
H452 C467 0.930 . S
C453 H441 0.930 . S
C453 C454 1.399 . S
C453 C458 1.399 . S
C454 C453 1.399 . S
C454 C455 1.376 . S
C455 H442 0.930 . S
C455 C454 1.376 . S
C455 C456 1.388 . S
C456 H443 0.930 . S
C456 C455 1.388 . S
C456 C457 1.390 . S
C457 C456 1.390 . S
C457 C458 1.394 . S
C457 C463 1.465 . S
C458 C453 1.399 . S
C458 C457 1.394 . S
C458 C459 1.516 . S
C459 C458 1.516 . S
C459 C460 1.502 . S
C459 C461 1.561 . S
C459 C462 1.526 . S
C460 H444 0.959 . S
C460 H445 0.959 . S
C460 H446 0.961 . S
C460 C459 1.502 . S
C461 H447 0.960 . S
C461 H448 0.961 . S
C461 H449 0.959 . S
C461 C459 1.561 . S
C462 C459 1.526 . S
C462 C463 1.396 . S
C462 C467 1.390 . S
C463 C457 1.465 . S
C463 C462 1.396 . S
C463 C464 1.399 . S
C464 H450 0.929 . S
C464 C463 1.399 . S
C464 C465 1.385 . S
C465 H451 0.931 . S
C465 C464 1.385 . S
C465 C466 1.389 . S
C466 C465 1.389 . S
C466 C467 1.387 . S
C467 H452 0.930 . S
C467 C462 1.390 . S
C467 C466 1.387 . S
H468 C480 0.930 . S
H469 C482 0.930 . S
H470 C483 0.930 . S
H471 C487 0.959 . S
H472 C487 0.959 . S
H473 C487 0.961 . S
H474 C488 0.960 . S
H475 C488 0.961 . S
H476 C488 0.959 . S
H477 C491 0.929 . S
H478 C492 0.931 . S
H479 C494 0.930 . S
C480 H468 0.930 . S
C480 C481 1.399 . S
C480 C485 1.399 . S
C481 C480 1.399 . S
C481 C482 1.376 . S
C482 H469 0.930 . S
C482 C481 1.376 . S
C482 C483 1.388 . S
C483 H470 0.930 . S
C483 C482 1.388 . S
C483 C484 1.390 . S
C484 C483 1.390 . S
C484 C485 1.394 . S
C484 C490 1.465 . S
C485 C480 1.399 . S
C485 C484 1.394 . S
C485 C486 1.516 . S
C486 C485 1.516 . S
C486 C487 1.502 . S
C486 C488 1.561 . S
C486 C489 1.526 . S
C487 H471 0.959 . S
C487 H472 0.959 . S
C487 H473 0.961 . S
C487 C486 1.502 . S
C488 H474 0.960 . S
C488 H475 0.961 . S
C488 H476 0.959 . S
C488 C486 1.561 . S
C489 C486 1.526 . S
C489 C490 1.396 . S
C489 C494 1.390 . S
C490 C484 1.465 . S
C490 C489 1.396 . S
C490 C491 1.399 . S
C491 H477 0.929 . S
C491 C490 1.399 . S
C491 C492 1.385 . S
C492 H478 0.931 . S
C492 C491 1.385 . S
C492 C493 1.389 . S
C493 C492 1.389 . S
C493 C494 1.387 . S
C494 H479 0.930 . S
C494 C489 1.390 . S
C494 C493 1.387 . S
H495 C507 0.930 . S
H496 C509 0.930 . S
H497 C510 0.930 . S
H498 C514 0.959 . S
H499 C514 0.959 . S
H500 C514 0.961 . S
H501 C515 0.960 . S
H502 C515 0.961 . S
H503 C515 0.959 . S
H504 C518 0.929 . S
H505 C519 0.931 . S
H506 C521 0.930 . S
C507 H495 0.930 . S
C507 C508 1.399 . S
C507 C512 1.399 . S
C508 C507 1.399 . S
C508 C509 1.376 . S
C509 H496 0.930 . S
C509 C508 1.376 . S
C509 C510 1.388 . S
C510 H497 0.930 . S
C510 C509 1.388 . S
C510 C511 1.390 . S
C511 C510 1.390 . S
C511 C512 1.394 . S
C511 C517 1.465 . S
C512 C507 1.399 . S
C512 C511 1.394 . S
C512 C513 1.516 . S
C513 C512 1.516 . S
C513 C514 1.502 . S
C513 C515 1.561 . S
C513 C516 1.526 . S
C514 H498 0.959 . S
C514 H499 0.959 . S
C514 H500 0.961 . S
C514 C513 1.502 . S
C515 H501 0.960 . S
C515 H502 0.961 . S
C515 H503 0.959 . S
C515 C513 1.561 . S
C516 C513 1.526 . S
C516 C517 1.396 . S
C516 C521 1.390 1_554 S
C517 C511 1.465 . S
C517 C516 1.396 . S
C517 C518 1.399 . S
C518 H504 0.929 . S
C518 C517 1.399 . S
C518 C519 1.385 1_554 S
C519 H505 0.931 . S
C519 C518 1.385 1_556 S
C519 C520 1.389 . S
C520 C519 1.389 . S
C520 C521 1.387 . S
C521 H506 0.930 . S
C521 C516 1.390 1_556 S
C521 C520 1.387 . S
H522 C534 0.930 . S
H523 C536 0.930 . S
H524 C537 0.930 . S
H525 C541 0.959 . S
H526 C541 0.959 . S
H527 C541 0.961 . S
H528 C542 0.960 . S
H529 C542 0.961 . S
H530 C542 0.959 . S
H531 C545 0.929 . S
H532 C546 0.931 . S
H533 C548 0.930 . S
C534 H522 0.930 . S
C534 C535 1.399 . S
C534 C539 1.399 1_556 S
C535 C534 1.399 . S
C535 C536 1.376 . S
C536 H523 0.930 . S
C536 C535 1.376 . S
C536 C537 1.388 1_556 S
C537 H524 0.930 . S
C537 C536 1.388 1_554 S
C537 C538 1.390 . S
C538 C537 1.390 . S
C538 C539 1.394 . S
C538 C544 1.465 . S
C539 C534 1.399 1_554 S
C539 C538 1.394 . S
C539 C540 1.516 . S
C540 C539 1.516 . S
C540 C541 1.502 . S
C540 C542 1.561 . S
C540 C543 1.526 . S
C541 H525 0.959 . S
C541 H526 0.959 . S
C541 H527 0.961 . S
C541 C540 1.502 . S
C542 H528 0.960 . S
C542 H529 0.961 . S
C542 H530 0.959 . S
C542 C540 1.561 . S
C543 C540 1.526 . S
C543 C544 1.396 . S
C543 C548 1.390 . S
C544 C538 1.465 . S
C544 C543 1.396 . S
C544 C545 1.399 . S
C545 H531 0.929 . S
C545 C544 1.399 . S
C545 C546 1.385 . S
C546 H532 0.931 . S
C546 C545 1.385 . S
C546 C547 1.389 . S
C547 C546 1.389 . S
C547 C548 1.387 . S
C548 H533 0.930 . S
C548 C543 1.390 . S
C548 C547 1.387 . S
H549 C561 0.930 . S
H550 C563 0.930 . S
H551 C564 0.930 . S
H552 C568 0.959 . S
H553 C568 0.959 . S
H554 C568 0.961 . S
H555 C569 0.960 . S
H556 C569 0.961 . S
H557 C569 0.959 . S
H558 C572 0.929 . S
H559 C573 0.931 . S
H560 C575 0.930 . S
C561 H549 0.930 . S
C561 C562 1.399 . S
C561 C566 1.399 1_556 S
C562 C561 1.399 . S
C562 C563 1.376 . S
C563 H550 0.930 . S
C563 C562 1.376 . S
C563 C564 1.388 1_556 S
C564 H551 0.930 . S
C564 C563 1.388 1_554 S
C564 C565 1.390 . S
C565 C564 1.390 . S
C565 C566 1.394 . S
C565 C571 1.465 . S
C566 C561 1.399 1_554 S
C566 C565 1.394 . S
C566 C567 1.516 . S
C567 C566 1.516 . S
C567 C568 1.502 . S
C567 C569 1.561 . S
C567 C570 1.526 . S
C568 H552 0.959 . S
C568 H553 0.959 . S
C568 H554 0.961 . S
C568 C567 1.502 . S
C569 H555 0.960 . S
C569 H556 0.961 . S
C569 H557 0.959 . S
C569 C567 1.561 . S
C570 C567 1.526 . S
C570 C571 1.396 . S
C570 C575 1.390 . S
C571 C565 1.465 . S
C571 C570 1.396 . S
C571 C572 1.399 . S
C572 H558 0.929 . S
C572 C571 1.399 . S
C572 C573 1.385 . S
C573 H559 0.931 . S
C573 C572 1.385 . S
C573 C574 1.389 . S
C574 C573 1.389 . S
C574 C575 1.387 . S
C575 H560 0.930 . S
C575 C570 1.390 . S
C575 C574 1.387 . S
H576 C588 0.930 . S
H577 C590 0.930 . S
H578 C591 0.930 . S
H579 C595 0.959 . S
H580 C595 0.959 . S
H581 C595 0.961 . S
H582 C596 0.960 . S
H583 C596 0.961 . S
H584 C596 0.959 . S
H585 C599 0.929 . S
H586 C600 0.931 . S
H587 C602 0.930 . S
C588 H576 0.930 . S
C588 C589 1.399 . S
C588 C593 1.399 1_554 S
C589 C588 1.399 . S
C589 C590 1.376 . S
C590 H577 0.930 . S
C590 C589 1.376 . S
C590 C591 1.388 1_554 S
C591 H578 0.930 . S
C591 C590 1.388 1_556 S
C591 C592 1.390 . S
C592 C591 1.390 . S
C592 C593 1.394 . S
C592 C598 1.465 . S
C593 C588 1.399 1_556 S
C593 C592 1.394 . S
C593 C594 1.516 . S
C594 C593 1.516 . S
C594 C595 1.502 . S
C594 C596 1.561 . S
C594 C597 1.526 . S
C595 H579 0.959 . S
C595 H580 0.959 . S
C595 H581 0.961 . S
C595 C594 1.502 . S
C596 H582 0.960 . S
C596 H583 0.961 . S
C596 H584 0.959 . S
C596 C594 1.561 . S
C597 C594 1.526 . S
C597 C598 1.396 . S
C597 C602 1.390 . S
C598 C592 1.465 . S
C598 C597 1.396 . S
C598 C599 1.399 . S
C599 H585 0.929 . S
C599 C598 1.399 . S
C599 C600 1.385 . S
C600 H586 0.931 . S
C600 C599 1.385 . S
C600 C601 1.389 . S
C601 C600 1.389 . S
C601 C602 1.387 . S
C602 H587 0.930 . S
C602 C597 1.390 . S
C602 C601 1.387 . S
H603 C615 0.930 . S
H604 C617 0.930 . S
H605 C618 0.930 . S
H606 C622 0.959 . S
H607 C622 0.959 . S
H608 C622 0.961 . S
H609 C623 0.960 . S
H610 C623 0.961 . S
H611 C623 0.959 . S
H612 C626 0.929 . S
H613 C627 0.931 . S
H614 C629 0.930 . S
C615 H603 0.930 . S
C615 C616 1.399 . S
C615 C620 1.399 . S
C616 C615 1.399 . S
C616 C617 1.376 . S
C617 H604 0.930 . S
C617 C616 1.376 . S
C617 C618 1.388 . S
C618 H605 0.930 . S
C618 C617 1.388 . S
C618 C619 1.390 . S
C619 C618 1.390 . S
C619 C620 1.394 . S
C619 C625 1.465 . S
C620 C615 1.399 . S
C620 C619 1.394 . S
C620 C621 1.516 . S
C621 C620 1.516 . S
C621 C622 1.502 . S
C621 C623 1.561 . S
C621 C624 1.526 . S
C622 H606 0.959 . S
C622 H607 0.959 . S
C622 H608 0.961 . S
C622 C621 1.502 . S
C623 H609 0.960 . S
C623 H610 0.961 . S
C623 H611 0.959 . S
C623 C621 1.561 . S
C624 C621 1.526 . S
C624 C625 1.396 . S
C624 C629 1.390 1_556 S
C625 C619 1.465 . S
C625 C624 1.396 . S
C625 C626 1.399 . S
C626 H612 0.929 . S
C626 C625 1.399 . S
C626 C627 1.385 1_556 S
C627 H613 0.931 . S
C627 C626 1.385 1_554 S
C627 C628 1.389 . S
C628 C627 1.389 . S
C628 C629 1.387 . S
C629 H614 0.930 . S
C629 C624 1.390 1_554 S
C629 C628 1.387 . S
H630 C642 0.930 . S
H631 C644 0.930 . S
H632 C645 0.930 . S
H633 C649 0.959 . S
H634 C649 0.959 . S
H635 C649 0.961 . S
H636 C650 0.960 . S
H637 C650 0.961 . S
H638 C650 0.959 . S
H639 C653 0.929 . S
H640 C654 0.931 . S
H641 C656 0.930 . S
C642 H630 0.930 . S
C642 C643 1.399 . S
C642 C647 1.399 1_554 S
C643 C642 1.399 . S
C643 C644 1.376 . S
C644 H631 0.930 . S
C644 C643 1.376 . S
C644 C645 1.388 1_554 S
C645 H632 0.930 . S
C645 C644 1.388 1_556 S
C645 C646 1.390 . S
C646 C645 1.390 . S
C646 C647 1.394 . S
C646 C652 1.465 . S
C647 C642 1.399 1_556 S
C647 C646 1.394 . S
C647 C648 1.516 . S
C648 C647 1.516 . S
C648 C649 1.502 . S
C648 C650 1.561 . S
C648 C651 1.526 . S
C649 H633 0.959 . S
C649 H634 0.959 . S
C649 H635 0.961 . S
C649 C648 1.502 . S
C650 H636 0.960 . S
C650 H637 0.961 . S
C650 H638 0.959 . S
C650 C648 1.561 . S
C651 C648 1.526 . S
C651 C652 1.396 . S
C651 C656 1.390 . S
C652 C646 1.465 . S
C652 C651 1.396 . S
C652 C653 1.399 . S
C653 H639 0.929 . S
C653 C652 1.399 . S
C653 C654 1.385 . S
C654 H640 0.931 . S
C654 C653 1.385 . S
C654 C655 1.389 . S
C655 C654 1.389 . S
C655 C656 1.387 . S
C656 H641 0.930 . S
C656 C651 1.390 . S
C656 C655 1.387 . S
H657 C669 0.930 . S
H658 C671 0.930 . S
H659 C672 0.930 . S
H660 C676 0.959 . S
H661 C676 0.959 . S
H662 C676 0.961 . S
H663 C677 0.960 . S
H664 C677 0.961 . S
H665 C677 0.959 . S
H666 C680 0.929 . S
H667 C681 0.931 . S
H668 C683 0.930 . S
C669 H657 0.930 . S
C669 C670 1.399 . S
C669 C674 1.399 . S
C670 C669 1.399 . S
C670 C671 1.376 . S
C671 H658 0.930 . S
C671 C670 1.376 . S
C671 C672 1.388 . S
C672 H659 0.930 . S
C672 C671 1.388 . S
C672 C673 1.390 . S
C673 C672 1.390 . S
C673 C674 1.394 . S
C673 C679 1.465 . S
C674 C669 1.399 . S
C674 C673 1.394 . S
C674 C675 1.516 . S
C675 C674 1.516 . S
C675 C676 1.502 . S
C675 C677 1.561 . S
C675 C678 1.526 . S
C676 H660 0.959 . S
C676 H661 0.959 . S
C676 H662 0.961 . S
C676 C675 1.502 . S
C677 H663 0.960 . S
C677 H664 0.961 . S
C677 H665 0.959 . S
C677 C675 1.561 . S
C678 C675 1.526 . S
C678 C679 1.396 . S
C678 C683 1.390 . S
C679 C673 1.465 . S
C679 C678 1.396 . S
C679 C680 1.399 . S
C680 H666 0.929 . S
C680 C679 1.399 . S
C680 C681 1.385 . S
C681 H667 0.931 . S
C681 C680 1.385 . S
C681 C682 1.389 . S
C682 C681 1.389 . S
C682 C683 1.387 . S
C683 H668 0.930 . S
C683 C678 1.390 . S
C683 C682 1.387 . S
H684 C696 0.930 . S
H685 C698 0.930 . S
H686 C699 0.930 . S
H687 C703 0.959 . S
H688 C703 0.959 . S
H689 C703 0.961 . S
H690 C704 0.960 . S
H691 C704 0.961 . S
H692 C704 0.959 . S
H693 C707 0.929 . S
H694 C708 0.931 . S
H695 C710 0.930 . S
C696 H684 0.930 . S
C696 C697 1.399 . S
C696 C701 1.399 . S
C697 C696 1.399 . S
C697 C698 1.376 . S
C698 H685 0.930 . S
C698 C697 1.376 . S
C698 C699 1.388 . S
C699 H686 0.930 . S
C699 C698 1.388 . S
C699 C700 1.390 . S
C700 C699 1.390 . S
C700 C701 1.394 . S
C700 C706 1.465 . S
C701 C696 1.399 . S
C701 C700 1.394 . S
C701 C702 1.516 . S
C702 C701 1.516 . S
C702 C703 1.502 . S
C702 C704 1.561 . S
C702 C705 1.526 . S
C703 H687 0.959 . S
C703 H688 0.959 . S
C703 H689 0.961 . S
C703 C702 1.502 . S
C704 H690 0.960 . S
C704 H691 0.961 . S
C704 H692 0.959 . S
C704 C702 1.561 . S
C705 C702 1.526 . S
C705 C706 1.396 . S
C705 C710 1.390 . S
C706 C700 1.465 . S
C706 C705 1.396 . S
C706 C707 1.399 . S
C707 H693 0.929 . S
C707 C706 1.399 . S
C707 C708 1.385 . S
C708 H694 0.931 . S
C708 C707 1.385 . S
C708 C709 1.389 . S
C709 C708 1.389 . S
C709 C710 1.387 . S
C710 H695 0.930 . S
C710 C705 1.390 . S
C710 C709 1.387 . S
H711 C723 0.930 . S
H712 C725 0.930 . S
H713 C726 0.930 . S
H714 C730 0.959 . S
H715 C730 0.959 . S
H716 C730 0.961 . S
H717 C731 0.960 . S
H718 C731 0.961 . S
H719 C731 0.959 . S
H720 C734 0.929 . S
H721 C735 0.931 . S
H722 C737 0.930 . S
C723 H711 0.930 . S
C723 C724 1.399 . S
C723 C728 1.399 . S
C724 C723 1.399 . S
C724 C725 1.376 . S
C725 H712 0.930 . S
C725 C724 1.376 . S
C725 C726 1.388 . S
C726 H713 0.930 . S
C726 C725 1.388 . S
C726 C727 1.390 . S
C727 C726 1.390 . S
C727 C728 1.394 . S
C727 C733 1.465 . S
C728 C723 1.399 . S
C728 C727 1.394 . S
C728 C729 1.516 . S
C729 C728 1.516 . S
C729 C730 1.502 . S
C729 C731 1.561 . S
C729 C732 1.526 . S
C730 H714 0.959 . S
C730 H715 0.959 . S
C730 H716 0.961 . S
C730 C729 1.502 . S
C731 H717 0.960 . S
C731 H718 0.961 . S
C731 H719 0.959 . S
C731 C729 1.561 . S
C732 C729 1.526 . S
C732 C733 1.396 . S
C732 C737 1.390 . S
C733 C727 1.465 . S
C733 C732 1.396 . S
C733 C734 1.399 . S
C734 H720 0.929 . S
C734 C733 1.399 . S
C734 C735 1.385 . S
C735 H721 0.931 . S
C735 C734 1.385 . S
C735 C736 1.389 . S
C736 C735 1.389 . S
C736 C737 1.387 . S
C737 H722 0.930 . S
C737 C732 1.390 . S
C737 C736 1.387 . S
H738 C750 0.930 . S
H739 C752 0.930 . S
H740 C753 0.930 . S
H741 C757 0.959 . S
H742 C757 0.959 . S
H743 C757 0.961 . S
H744 C758 0.960 . S
H745 C758 0.961 . S
H746 C758 0.959 . S
H747 C761 0.929 . S
H748 C762 0.931 . S
H749 C764 0.930 . S
C750 H738 0.930 . S
C750 C751 1.399 . S
C750 C755 1.399 . S
C751 C750 1.399 . S
C751 C752 1.376 . S
C752 H739 0.930 . S
C752 C751 1.376 . S
C752 C753 1.388 . S
C753 H740 0.930 . S
C753 C752 1.388 . S
C753 C754 1.390 . S
C754 C753 1.390 . S
C754 C755 1.394 . S
C754 C760 1.465 . S
C755 C750 1.399 . S
C755 C754 1.394 . S
C755 C756 1.516 . S
C756 C755 1.516 . S
C756 C757 1.502 . S
C756 C758 1.561 . S
C756 C759 1.526 . S
C757 H741 0.959 . S
C757 H742 0.959 . S
C757 H743 0.961 . S
C757 C756 1.502 . S
C758 H744 0.960 . S
C758 H745 0.961 . S
C758 H746 0.959 . S
C758 C756 1.561 . S
C759 C756 1.526 . S
C759 C760 1.396 . S
C759 C764 1.390 . S
C760 C754 1.465 . S
C760 C759 1.396 . S
C760 C761 1.399 . S
C761 H747 0.929 . S
C761 C760 1.399 . S
C761 C762 1.385 . S
C762 H748 0.931 . S
C762 C761 1.385 . S
C762 C763 1.389 . S
C763 C762 1.389 . S
C763 C764 1.387 . S
C764 H749 0.930 . S
C764 C759 1.390 . S
C764 C763 1.387 . S
H765 C777 0.930 . S
H766 C779 0.930 . S
H767 C780 0.930 . S
H768 C784 0.959 . S
H769 C784 0.959 1_554 S
H770 C784 0.961 . S
H771 C785 0.960 . S
H772 C785 0.961 . S
H773 C785 0.959 . S
H774 C788 0.929 . S
H775 C789 0.931 . S
H776 C791 0.930 1_554 S
C777 H765 0.930 . S
C777 C778 1.399 . S
C777 C782 1.399 . S
C778 C777 1.399 . S
C778 C779 1.376 . S
C779 H766 0.930 . S
C779 C778 1.376 . S
C779 C780 1.388 . S
C780 H767 0.930 . S
C780 C779 1.388 . S
C780 C781 1.390 . S
C781 C780 1.390 . S
C781 C782 1.394 . S
C781 C787 1.465 . S
C782 C777 1.399 . S
C782 C781 1.394 . S
C782 C783 1.516 . S
C783 C782 1.516 . S
C783 C784 1.502 . S
C783 C785 1.561 1_556 S
C783 C786 1.526 . S
C784 H768 0.959 . S
C784 H769 0.959 1_556 S
C784 H770 0.961 . S
C784 C783 1.502 . S
C785 H771 0.960 . S
C785 H772 0.961 . S
C785 H773 0.959 . S
C785 C783 1.561 1_554 S
C786 C783 1.526 . S
C786 C787 1.396 . S
C786 C791 1.390 . S
C787 C781 1.465 . S
C787 C786 1.396 . S
C787 C788 1.399 . S
C788 H774 0.929 . S
C788 C787 1.399 . S
C788 C789 1.385 . S
C789 H775 0.931 . S
C789 C788 1.385 . S
C789 C790 1.389 . S
C790 C789 1.389 . S
C790 C791 1.387 . S
C791 H776 0.930 1_556 S
C791 C786 1.390 . S
C791 C790 1.387 . S
H792 C804 0.930 . S
H793 C806 0.930 . S
H794 C807 0.930 . S
H795 C811 0.959 . S
H796 C811 0.959 . S
H797 C811 0.961 . S
H798 C812 0.960 . S
H799 C812 0.961 . S
H800 C812 0.959 . S
H801 C815 0.929 . S
H802 C816 0.931 . S
H803 C818 0.930 . S
C804 H792 0.930 . S
C804 C805 1.399 . S
C804 C809 1.399 . S
C805 C804 1.399 . S
C805 C806 1.376 . S
C806 H793 0.930 . S
C806 C805 1.376 . S
C806 C807 1.388 . S
C807 H794 0.930 . S
C807 C806 1.388 . S
C807 C808 1.390 . S
C808 C807 1.390 . S
C808 C809 1.394 . S
C808 C814 1.465 . S
C809 C804 1.399 . S
C809 C808 1.394 . S
C809 C810 1.516 . S
C810 C809 1.516 . S
C810 C811 1.502 . S
C810 C812 1.561 1_556 S
C810 C813 1.526 . S
C811 H795 0.959 . S
C811 H796 0.959 . S
C811 H797 0.961 . S
C811 C810 1.502 . S
C812 H798 0.960 . S
C812 H799 0.961 . S
C812 H800 0.959 . S
C812 C810 1.561 1_554 S
C813 C810 1.526 . S
C813 C814 1.396 . S
C813 C818 1.390 . S
C814 C808 1.465 . S
C814 C813 1.396 . S
C814 C815 1.399 . S
C815 H801 0.929 . S
C815 C814 1.399 . S
C815 C816 1.385 . S
C816 H802 0.931 . S
C816 C815 1.385 . S
C816 C817 1.389 . S
C817 C816 1.389 . S
C817 C818 1.387 . S
C818 H803 0.930 . S
C818 C813 1.390 . S
C818 C817 1.387 . S
H819 C831 0.930 . S
H820 C833 0.930 . S
H821 C834 0.930 . S
H822 C838 0.959 . S
H823 C838 0.959 . S
H824 C838 0.961 . S
H825 C839 0.960 . S
H826 C839 0.961 . S
H827 C839 0.959 . S
H828 C842 0.929 . S
H829 C843 0.931 . S
H830 C845 0.930 . S
C831 H819 0.930 . S
C831 C832 1.399 . S
C831 C836 1.399 . S
C832 C831 1.399 . S
C832 C833 1.376 . S
C833 H820 0.930 . S
C833 C832 1.376 . S
C833 C834 1.388 . S
C834 H821 0.930 . S
C834 C833 1.388 . S
C834 C835 1.390 . S
C835 C834 1.390 . S
C835 C836 1.394 . S
C835 C841 1.465 . S
C836 C831 1.399 . S
C836 C835 1.394 . S
C836 C837 1.516 . S
C837 C836 1.516 . S
C837 C838 1.502 . S
C837 C839 1.561 . S
C837 C840 1.526 . S
C838 H822 0.959 . S
C838 H823 0.959 . S
C838 H824 0.961 . S
C838 C837 1.502 . S
C839 H825 0.960 . S
C839 H826 0.961 . S
C839 H827 0.959 . S
C839 C837 1.561 . S
C840 C837 1.526 . S
C840 C841 1.396 . S
C840 C845 1.390 . S
C841 C835 1.465 . S
C841 C840 1.396 . S
C841 C842 1.399 . S
C842 H828 0.929 . S
C842 C841 1.399 . S
C842 C843 1.385 . S
C843 H829 0.931 . S
C843 C842 1.385 . S
C843 C844 1.389 . S
C844 C843 1.389 . S
C844 C845 1.387 . S
C845 H830 0.930 . S
C845 C840 1.390 . S
C845 C844 1.387 . S
H846 C858 0.930 . S
H847 C860 0.930 . S
H848 C861 0.930 . S
H849 C865 0.959 . S
H850 C865 0.959 . S
H851 C865 0.961 . S
H852 C866 0.960 . S
H853 C866 0.961 . S
H854 C866 0.959 . S
H855 C869 0.929 . S
H856 C870 0.931 . S
H857 C872 0.930 . S
C858 H846 0.930 . S
C858 C859 1.399 . S
C858 C863 1.399 . S
C859 C858 1.399 . S
C859 C860 1.376 . S
C860 H847 0.930 . S
C860 C859 1.376 . S
C860 C861 1.388 . S
C861 H848 0.930 . S
C861 C860 1.388 . S
C861 C862 1.390 . S
C862 C861 1.390 . S
C862 C863 1.394 . S
C862 C868 1.465 . S
C863 C858 1.399 . S
C863 C862 1.394 . S
C863 C864 1.516 . S
C864 C863 1.516 . S
C864 C865 1.502 . S
C864 C866 1.561 . S
C864 C867 1.526 . S
C865 H849 0.959 . S
C865 H850 0.959 . S
C865 H851 0.961 . S
C865 C864 1.502 . S
C866 H852 0.960 . S
C866 H853 0.961 . S
C866 H854 0.959 . S
C866 C864 1.561 . S
C867 C864 1.526 . S
C867 C868 1.396 . S
C867 C872 1.390 . S
C868 C862 1.465 . S
C868 C867 1.396 . S
C868 C869 1.399 . S
C869 H855 0.929 . S
C869 C868 1.399 . S
C869 C870 1.385 . S
C870 H856 0.931 . S
C870 C869 1.385 . S
C870 C871 1.389 . S
C871 C870 1.389 . S
C871 C872 1.387 . S
C872 H857 0.930 . S
C872 C867 1.390 . S
C872 C871 1.387 . S
H873 C885 0.930 . S
H874 C887 0.930 . S
H875 C888 0.930 . S
H876 C892 0.959 . S
H877 C892 0.959 . S
H878 C892 0.961 . S
H879 C893 0.960 . S
H880 C893 0.961 . S
H881 C893 0.959 . S
H882 C896 0.929 . S
H883 C897 0.931 . S
H884 C899 0.930 . S
C885 H873 0.930 . S
C885 C886 1.399 . S
C885 C890 1.399 . S
C886 C885 1.399 . S
C886 C887 1.376 . S
C887 H874 0.930 . S
C887 C886 1.376 . S
C887 C888 1.388 . S
C888 H875 0.930 . S
C888 C887 1.388 . S
C888 C889 1.390 . S
C889 C888 1.390 . S
C889 C890 1.394 . S
C889 C895 1.465 . S
C890 C885 1.399 . S
C890 C889 1.394 . S
C890 C891 1.516 . S
C891 C890 1.516 . S
C891 C892 1.502 . S
C891 C893 1.561 . S
C891 C894 1.526 . S
C892 H876 0.959 . S
C892 H877 0.959 . S
C892 H878 0.961 . S
C892 C891 1.502 . S
C893 H879 0.960 . S
C893 H880 0.961 . S
C893 H881 0.959 . S
C893 C891 1.561 . S
C894 C891 1.526 . S
C894 C895 1.396 . S
C894 C899 1.390 . S
C895 C889 1.465 . S
C895 C894 1.396 . S
C895 C896 1.399 . S
C896 H882 0.929 . S
C896 C895 1.399 . S
C896 C897 1.385 . S
C897 H883 0.931 . S
C897 C896 1.385 . S
C897 C898 1.389 . S
C898 C897 1.389 . S
C898 C899 1.387 . S
C899 H884 0.930 . S
C899 C894 1.390 . S
C899 C898 1.387 . S
H900 C912 0.930 . S
H901 C914 0.930 . S
H902 C915 0.930 . S
H903 C919 0.955 1_554 S
H904 C919 0.968 . S
H905 C919 0.962 . S
H906 C920 0.960 . S
H907 C920 0.961 1_556 S
H908 C920 0.959 . S
H909 C923 0.929 . S
H910 C924 0.931 . S
H911 C926 0.930 1_556 S
C912 H900 0.930 . S
C912 C913 1.399 . S
C912 C917 1.399 . S
C913 C912 1.399 . S
C913 C914 1.376 . S
C914 H901 0.930 . S
C914 C913 1.376 . S
C914 C915 1.388 . S
C915 H902 0.930 . S
C915 C914 1.388 . S
C915 C916 1.390 . S
C916 C915 1.390 . S
C916 C917 1.394 . S
C916 C922 1.465 . S
C917 C912 1.399 . S
C917 C916 1.394 . S
C917 C918 1.516 . S
C918 C917 1.516 . S
C918 C919 1.496 1_554 S
C918 C920 1.561 . S
C918 C921 1.526 . S
C919 H903 0.955 1_556 S
C919 H904 0.968 . S
C919 H905 0.962 . S
C919 C918 1.496 1_556 S
C920 H906 0.960 . S
C920 H907 0.961 1_554 S
C920 H908 0.959 . S
C920 C918 1.561 . S
C921 C918 1.526 . S
C921 C922 1.396 . S
C921 C926 1.390 . S
C922 C916 1.465 . S
C922 C921 1.396 . S
C922 C923 1.399 . S
C923 H909 0.929 . S
C923 C922 1.399 . S
C923 C924 1.385 . S
C924 H910 0.931 . S
C924 C923 1.385 . S
C924 C925 1.389 . S
C925 C924 1.389 . S
C925 C926 1.387 . S
C926 H911 0.930 1_554 S
C926 C921 1.390 . S
C926 C925 1.387 . S
H927 C939 0.930 . S
H928 C941 0.930 . S
H929 C942 0.930 . S
H930 C946 0.959 . S
H931 C946 0.959 . S
H932 C946 0.961 . S
H933 C947 0.960 . S
H934 C947 0.961 . S
H935 C947 0.959 . S
H936 C950 0.929 1_556 S
H937 C951 0.931 1_556 S
H938 C953 0.930 . S
C939 H927 0.930 . S
C939 C940 1.399 . S
C939 C944 1.399 . S
C940 C939 1.399 . S
C940 C941 1.376 . S
C941 H928 0.930 . S
C941 C940 1.376 . S
C941 C942 1.388 . S
C942 H929 0.930 . S
C942 C941 1.388 . S
C942 C943 1.390 . S
C943 C942 1.390 . S
C943 C944 1.394 . S
C943 C949 1.465 . S
C944 C939 1.399 . S
C944 C943 1.394 . S
C944 C945 1.516 . S
C945 C944 1.516 . S
C945 C946 1.502 . S
C945 C947 1.561 . S
C945 C948 1.526 . S
C946 H930 0.959 . S
C946 H931 0.959 . S
C946 H932 0.961 . S
C946 C945 1.502 . S
C947 H933 0.960 . S
C947 H934 0.961 . S
C947 H935 0.959 . S
C947 C945 1.561 . S
C948 C945 1.526 . S
C948 C949 1.396 . S
C948 C953 1.390 . S
C949 C943 1.465 . S
C949 C948 1.396 . S
C949 C950 1.399 . S
C950 H936 0.929 1_554 S
C950 C949 1.399 . S
C950 C951 1.385 . S
C951 H937 0.931 1_554 S
C951 C950 1.385 . S
C951 C952 1.389 . S
C952 C951 1.389 . S
C952 C953 1.387 . S
C953 H938 0.930 . S
C953 C948 1.390 . S
C953 C952 1.387 . S
H954 C966 0.930 . S
H955 C968 0.930 . S
H956 C969 0.930 . S
H957 C973 0.959 . S
H958 C973 0.959 . S
H959 C973 0.961 . S
H960 C974 0.960 . S
H961 C974 0.961 . S
H962 C974 0.959 . S
H963 C977 0.929 . S
H964 C978 0.931 1_556 S
H965 C980 0.930 . S
C966 H954 0.930 . S
C966 C967 1.399 . S
C966 C971 1.399 . S
C967 C966 1.399 . S
C967 C968 1.376 . S
C968 H955 0.930 . S
C968 C967 1.376 . S
C968 C969 1.388 . S
C969 H956 0.930 . S
C969 C968 1.388 . S
C969 C970 1.390 . S
C970 C969 1.390 . S
C970 C971 1.394 . S
C970 C976 1.465 . S
C971 C966 1.399 . S
C971 C970 1.394 . S
C971 C972 1.516 . S
C972 C971 1.516 . S
C972 C973 1.502 . S
C972 C974 1.561 . S
C972 C975 1.526 . S
C973 H957 0.959 . S
C973 H958 0.959 . S
C973 H959 0.961 . S
C973 C972 1.502 . S
C974 H960 0.960 . S
C974 H961 0.961 . S
C974 H962 0.959 . S
C974 C972 1.561 . S
C975 C972 1.526 . S
C975 C976 1.396 . S
C975 C980 1.390 . S
C976 C970 1.465 . S
C976 C975 1.396 . S
C976 C977 1.399 . S
C977 H963 0.929 . S
C977 C976 1.399 . S
C977 C978 1.385 . S
C978 H964 0.931 1_554 S
C978 C977 1.385 . S
C978 C979 1.389 . S
C979 C978 1.389 . S
C979 C980 1.387 . S
C980 H965 0.930 . S
C980 C975 1.390 . S
C980 C979 1.387 . S
H981 C993 0.930 . S
H982 C995 0.930 . S
H983 C996 0.930 . S
H984 C1000 0.959 . S
H985 C1000 0.959 . S
H986 C1000 0.961 . S
H987 C1001 0.960 . S
H988 C1001 0.961 . S
H989 C1001 0.959 . S
H990 C1004 0.929 . S
H991 C1005 0.931 . S
H992 C1007 0.930 . S
C993 H981 0.930 . S
C993 C994 1.399 . S
C993 C998 1.399 . S
C994 C993 1.399 . S
C994 C995 1.376 . S
C995 H982 0.930 . S
C995 C994 1.376 . S
C995 C996 1.388 . S
C996 H983 0.930 . S
C996 C995 1.388 . S
C996 C997 1.390 . S
C997 C996 1.390 . S
C997 C998 1.394 . S
C997 C1003 1.465 . S
C998 C993 1.399 . S
C998 C997 1.394 . S
C998 C999 1.516 . S
C999 C998 1.516 . S
C999 C1000 1.502 . S
C999 C1001 1.561 . S
C999 C1002 1.526 . S
C1000 H984 0.959 . S
C1000 H985 0.959 . S
C1000 H986 0.961 . S
C1000 C999 1.502 . S
C1001 H987 0.960 . S
C1001 H988 0.961 . S
C1001 H989 0.959 . S
C1001 C999 1.561 . S
C1002 C999 1.526 . S
C1002 C1003 1.396 . S
C1002 C1007 1.390 . S
C1003 C997 1.465 . S
C1003 C1002 1.396 . S
C1003 C1004 1.399 . S
C1004 H990 0.929 . S
C1004 C1003 1.399 . S
C1004 C1005 1.385 . S
C1005 H991 0.931 . S
C1005 C1004 1.385 . S
C1005 C1006 1.389 . S
C1006 C1005 1.389 . S
C1006 C1007 1.387 . S
C1007 H992 0.930 . S
C1007 C1002 1.390 . S
C1007 C1006 1.387 . S
H1008 C1020 0.930 . S
H1009 C1022 0.930 . S
H1010 C1023 0.930 . S
H1011 C1027 0.959 . S
H1012 C1027 0.959 . S
H1013 C1027 0.961 . S
H1014 C1028 0.960 . S
H1015 C1028 0.961 . S
H1016 C1028 0.959 . S
H1017 C1031 0.929 . S
H1018 C1032 0.931 . S
H1019 C1034 0.930 . S
C1020 H1008 0.930 . S
C1020 C1021 1.399 . S
C1020 C1025 1.399 . S
C1021 C1020 1.399 . S
C1021 C1022 1.376 . S
C1022 H1009 0.930 . S
C1022 C1021 1.376 . S
C1022 C1023 1.388 . S
C1023 H1010 0.930 . S
C1023 C1022 1.388 . S
C1023 C1024 1.390 . S
C1024 C1023 1.390 . S
C1024 C1025 1.394 . S
C1024 C1030 1.465 . S
C1025 C1020 1.399 . S
C1025 C1024 1.394 . S
C1025 C1026 1.516 . S
C1026 C1025 1.516 . S
C1026 C1027 1.502 . S
C1026 C1028 1.561 . S
C1026 C1029 1.526 . S
C1027 H1011 0.959 . S
C1027 H1012 0.959 . S
C1027 H1013 0.961 . S
C1027 C1026 1.502 . S
C1028 H1014 0.960 . S
C1028 H1015 0.961 . S
C1028 H1016 0.959 . S
C1028 C1026 1.561 . S
C1029 C1026 1.526 . S
C1029 C1030 1.396 . S
C1029 C1034 1.390 . S
C1030 C1024 1.465 . S
C1030 C1029 1.396 . S
C1030 C1031 1.399 . S
C1031 H1017 0.929 . S
C1031 C1030 1.399 . S
C1031 C1032 1.385 . S
C1032 H1018 0.931 . S
C1032 C1031 1.385 . S
C1032 C1033 1.389 . S
C1033 C1032 1.389 . S
C1033 C1034 1.387 . S
C1034 H1019 0.930 . S
C1034 C1029 1.390 . S
C1034 C1033 1.387 . S
H1035 C1047 0.930 . S
H1036 C1049 0.930 . S
H1037 C1050 0.930 . S
H1038 C1054 0.959 . S
H1039 C1054 0.959 . S
H1040 C1054 0.961 . S
H1041 C1055 0.960 . S
H1042 C1055 0.961 . S
H1043 C1055 0.959 . S
H1044 C1058 0.929 . S
H1045 C1059 0.931 . S
H1046 C1061 0.930 . S
C1047 H1035 0.930 . S
C1047 C1048 1.399 . S
C1047 C1052 1.399 . S
C1048 C1047 1.399 . S
C1048 C1049 1.376 . S
C1049 H1036 0.930 . S
C1049 C1048 1.376 . S
C1049 C1050 1.388 . S
C1050 H1037 0.930 . S
C1050 C1049 1.388 . S
C1050 C1051 1.390 . S
C1051 C1050 1.390 . S
C1051 C1052 1.394 . S
C1051 C1057 1.465 . S
C1052 C1047 1.399 . S
C1052 C1051 1.394 . S
C1052 C1053 1.516 . S
C1053 C1052 1.516 . S
C1053 C1054 1.502 . S
C1053 C1055 1.561 . S
C1053 C1056 1.526 . S
C1054 H1038 0.959 . S
C1054 H1039 0.959 . S
C1054 H1040 0.961 . S
C1054 C1053 1.502 . S
C1055 H1041 0.960 . S
C1055 H1042 0.961 . S
C1055 H1043 0.959 . S
C1055 C1053 1.561 . S
C1056 C1053 1.526 . S
C1056 C1057 1.396 . S
C1056 C1061 1.390 . S
C1057 C1051 1.465 . S
C1057 C1056 1.396 . S
C1057 C1058 1.399 . S
C1058 H1044 0.929 . S
C1058 C1057 1.399 . S
C1058 C1059 1.385 . S
C1059 H1045 0.931 . S
C1059 C1058 1.385 . S
C1059 C1060 1.389 . S
C1060 C1059 1.389 . S
C1060 C1061 1.387 . S
C1061 H1046 0.930 . S
C1061 C1056 1.390 . S
C1061 C1060 1.387 . S
H1062 C1074 0.930 . S
H1063 C1076 0.930 . S
H1064 C1077 0.930 . S
H1065 C1081 0.959 . S
H1066 C1081 0.959 . S
H1067 C1081 0.961 . S
H1068 C1082 0.960 . S
H1069 C1082 0.961 . S
H1070 C1082 0.959 . S
H1071 C1085 0.929 . S
H1072 C1086 0.931 . S
H1073 C1088 0.930 . S
C1074 H1062 0.930 . S
C1074 C1075 1.399 . S
C1074 C1079 1.399 . S
C1075 C1074 1.399 . S
C1075 C1076 1.376 . S
C1076 H1063 0.930 . S
C1076 C1075 1.376 . S
C1076 C1077 1.388 . S
C1077 H1064 0.930 . S
C1077 C1076 1.388 . S
C1077 C1078 1.390 . S
C1078 C1077 1.390 . S
C1078 C1079 1.394 . S
C1078 C1084 1.465 . S
C1079 C1074 1.399 . S
C1079 C1078 1.394 . S
C1079 C1080 1.516 . S
C1080 C1079 1.516 . S
C1080 C1081 1.502 . S
C1080 C1082 1.561 . S
C1080 C1083 1.526 . S
C1081 H1065 0.959 . S
C1081 H1066 0.959 . S
C1081 H1067 0.961 . S
C1081 C1080 1.502 . S
C1082 H1068 0.960 . S
C1082 H1069 0.961 . S
C1082 H1070 0.959 . S
C1082 C1080 1.561 . S
C1083 C1080 1.526 . S
C1083 C1084 1.396 . S
C1083 C1088 1.390 . S
C1084 C1078 1.465 . S
C1084 C1083 1.396 . S
C1084 C1085 1.399 . S
C1085 H1071 0.929 . S
C1085 C1084 1.399 . S
C1085 C1086 1.385 . S
C1086 H1072 0.931 . S
C1086 C1085 1.385 . S
C1086 C1087 1.389 . S
C1087 C1086 1.389 . S
C1087 C1088 1.387 . S
C1088 H1073 0.930 . S
C1088 C1083 1.390 . S
C1088 C1087 1.387 . S
H1089 C1101 0.930 . S
H1090 C1103 0.930 . S
H1091 C1104 0.930 . S
H1092 C1108 0.959 . S
H1093 C1108 0.959 . S
H1094 C1108 0.961 . S
H1095 C1109 0.960 . S
H1096 C1109 0.961 . S
H1097 C1109 0.959 . S
H1098 C1112 0.929 . S
H1099 C1113 0.931 . S
H1100 C1115 0.930 . S
C1101 H1089 0.930 . S
C1101 C1102 1.399 . S
C1101 C1106 1.399 . S
C1102 C1101 1.399 . S
C1102 C1103 1.376 . S
C1103 H1090 0.930 . S
C1103 C1102 1.376 . S
C1103 C1104 1.388 . S
C1104 H1091 0.930 . S
C1104 C1103 1.388 . S
C1104 C1105 1.390 . S
C1105 C1104 1.390 . S
C1105 C1106 1.394 . S
C1105 C1111 1.465 1_545 S
C1106 C1101 1.399 . S
C1106 C1105 1.394 . S
C1106 C1107 1.516 1_545 S
C1107 C1106 1.516 1_565 S
C1107 C1108 1.502 . S
C1107 C1109 1.561 . S
C1107 C1110 1.526 . S
C1108 H1092 0.959 . S
C1108 H1093 0.959 . S
C1108 H1094 0.961 . S
C1108 C1107 1.502 . S
C1109 H1095 0.960 . S
C1109 H1096 0.961 . S
C1109 H1097 0.959 . S
C1109 C1107 1.561 . S
C1110 C1107 1.526 . S
C1110 C1111 1.396 . S
C1110 C1115 1.390 . S
C1111 C1105 1.465 1_565 S
C1111 C1110 1.396 . S
C1111 C1112 1.399 . S
C1112 H1098 0.929 . S
C1112 C1111 1.399 . S
C1112 C1113 1.385 . S
C1113 H1099 0.931 . S
C1113 C1112 1.385 . S
C1113 C1114 1.389 . S
C1114 C1113 1.389 . S
C1114 C1115 1.387 . S
C1115 H1100 0.930 . S
C1115 C1110 1.390 . S
C1115 C1114 1.387 . S
H1116 C1128 0.930 . S
H1117 C1130 0.930 . S
H1118 C1131 0.930 . S
H1119 C1135 0.959 . S
H1120 C1135 0.959 . S
H1121 C1135 0.961 . S
H1122 C1136 0.960 . S
H1123 C1136 0.961 . S
H1124 C1136 0.959 . S
H1125 C1139 0.929 . S
H1126 C1140 0.931 . S
H1127 C1142 0.930 . S
C1128 H1116 0.930 . S
C1128 C1129 1.399 . S
C1128 C1133 1.399 . S
C1129 C1128 1.399 . S
C1129 C1130 1.376 . S
C1130 H1117 0.930 . S
C1130 C1129 1.376 . S
C1130 C1131 1.388 . S
C1131 H1118 0.930 . S
C1131 C1130 1.388 . S
C1131 C1132 1.390 . S
C1132 C1131 1.390 . S
C1132 C1133 1.394 . S
C1132 C1138 1.465 1_455 S
C1133 C1128 1.399 . S
C1133 C1132 1.394 . S
C1133 C1134 1.516 . S
C1134 C1133 1.516 . S
C1134 C1135 1.502 . S
C1134 C1136 1.561 . S
C1134 C1137 1.526 1_455 S
C1135 H1119 0.959 . S
C1135 H1120 0.959 . S
C1135 H1121 0.961 . S
C1135 C1134 1.502 . S
C1136 H1122 0.960 . S
C1136 H1123 0.961 . S
C1136 H1124 0.959 . S
C1136 C1134 1.561 . S
C1137 C1134 1.526 1_655 S
C1137 C1138 1.396 . S
C1137 C1142 1.390 . S
C1138 C1132 1.465 1_655 S
C1138 C1137 1.396 . S
C1138 C1139 1.399 . S
C1139 H1125 0.929 . S
C1139 C1138 1.399 . S
C1139 C1140 1.385 . S
C1140 H1126 0.931 . S
C1140 C1139 1.385 . S
C1140 C1141 1.389 . S
C1141 C1140 1.389 . S
C1141 C1142 1.387 . S
C1142 H1127 0.930 . S
C1142 C1137 1.390 . S
C1142 C1141 1.387 . S
H1143 C1155 0.930 . S
H1144 C1157 0.930 . S
H1145 C1158 0.930 . S
H1146 C1162 0.959 . S
H1147 C1162 0.959 . S
H1148 C1162 0.961 . S
H1149 C1163 0.960 . S
H1150 C1163 0.961 . S
H1151 C1163 0.959 . S
H1152 C1166 0.929 . S
H1153 C1167 0.931 . S
H1154 C1169 0.930 . S
C1155 H1143 0.930 . S
C1155 C1156 1.399 . S
C1155 C1160 1.399 . S
C1156 C1155 1.399 . S
C1156 C1157 1.376 . S
C1157 H1144 0.930 . S
C1157 C1156 1.376 . S
C1157 C1158 1.388 . S
C1158 H1145 0.930 . S
C1158 C1157 1.388 . S
C1158 C1159 1.390 . S
C1159 C1158 1.390 . S
C1159 C1160 1.394 . S
C1159 C1165 1.465 . S
C1160 C1155 1.399 . S
C1160 C1159 1.394 . S
C1160 C1161 1.516 . S
C1161 C1160 1.516 . S
C1161 C1162 1.502 . S
C1161 C1163 1.561 . S
C1161 C1164 1.526 . S
C1162 H1146 0.959 . S
C1162 H1147 0.959 . S
C1162 H1148 0.961 . S
C1162 C1161 1.502 . S
C1163 H1149 0.960 . S
C1163 H1150 0.961 . S
C1163 H1151 0.959 . S
C1163 C1161 1.561 . S
C1164 C1161 1.526 . S
C1164 C1165 1.396 . S
C1164 C1169 1.390 . S
C1165 C1159 1.465 . S
C1165 C1164 1.396 . S
C1165 C1166 1.399 . S
C1166 H1152 0.929 . S
C1166 C1165 1.399 . S
C1166 C1167 1.385 . S
C1167 H1153 0.931 . S
C1167 C1166 1.385 . S
C1167 C1168 1.389 . S
C1168 C1167 1.389 . S
C1168 C1169 1.387 . S
C1169 H1154 0.930 . S
C1169 C1164 1.390 . S
C1169 C1168 1.387 . S
H1170 C1182 0.930 . S
H1171 C1184 0.930 . S
H1172 C1185 0.930 . S
H1173 C1189 0.959 . S
H1174 C1189 0.959 . S
H1175 C1189 0.961 . S
H1176 C1190 0.960 . S
H1177 C1190 0.961 . S
H1178 C1190 0.959 . S
H1179 C1193 0.929 . S
H1180 C1194 0.931 . S
H1181 C1196 0.930 . S
C1182 H1170 0.930 . S
C1182 C1183 1.399 . S
C1182 C1187 1.399 . S
C1183 C1182 1.399 . S
C1183 C1184 1.376 . S
C1184 H1171 0.930 . S
C1184 C1183 1.376 . S
C1184 C1185 1.388 . S
C1185 H1172 0.930 . S
C1185 C1184 1.388 . S
C1185 C1186 1.390 . S
C1186 C1185 1.390 . S
C1186 C1187 1.394 . S
C1186 C1192 1.465 1_545 S
C1187 C1182 1.399 . S
C1187 C1186 1.394 . S
C1187 C1188 1.516 1_545 S
C1188 C1187 1.516 1_565 S
C1188 C1189 1.502 . S
C1188 C1190 1.561 . S
C1188 C1191 1.526 . S
C1189 H1173 0.959 . S
C1189 H1174 0.959 . S
C1189 H1175 0.961 . S
C1189 C1188 1.502 . S
C1190 H1176 0.960 . S
C1190 H1177 0.961 . S
C1190 H1178 0.959 . S
C1190 C1188 1.561 . S
C1191 C1188 1.526 . S
C1191 C1192 1.396 . S
C1191 C1196 1.390 . S
C1192 C1186 1.465 1_565 S
C1192 C1191 1.396 . S
C1192 C1193 1.399 . S
C1193 H1179 0.929 . S
C1193 C1192 1.399 . S
C1193 C1194 1.385 . S
C1194 H1180 0.931 . S
C1194 C1193 1.385 . S
C1194 C1195 1.389 . S
C1195 C1194 1.389 . S
C1195 C1196 1.387 . S
C1196 H1181 0.930 . S
C1196 C1191 1.390 . S
C1196 C1195 1.387 . S
H1197 C1209 0.930 . S
H1198 C1211 0.930 . S
H1199 C1212 0.930 . S
H1200 C1216 0.959 . S
H1201 C1216 0.959 . S
H1202 C1216 0.961 . S
H1203 C1217 0.960 . S
H1204 C1217 0.961 . S
H1205 C1217 0.959 . S
H1206 C1220 0.929 . S
H1207 C1221 0.931 . S
H1208 C1223 0.930 . S
C1209 H1197 0.930 . S
C1209 C1210 1.399 . S
C1209 C1214 1.399 . S
C1210 C1209 1.399 . S
C1210 C1211 1.376 . S
C1211 H1198 0.930 . S
C1211 C1210 1.376 . S
C1211 C1212 1.388 . S
C1212 H1199 0.930 . S
C1212 C1211 1.388 . S
C1212 C1213 1.390 . S
C1213 C1212 1.390 . S
C1213 C1214 1.394 . S
C1213 C1219 1.465 1_455 S
C1214 C1209 1.399 . S
C1214 C1213 1.394 . S
C1214 C1215 1.516 . S
C1215 C1214 1.516 . S
C1215 C1216 1.502 . S
C1215 C1217 1.561 . S
C1215 C1218 1.526 1_455 S
C1216 H1200 0.959 . S
C1216 H1201 0.959 . S
C1216 H1202 0.961 . S
C1216 C1215 1.502 . S
C1217 H1203 0.960 . S
C1217 H1204 0.961 . S
C1217 H1205 0.959 . S
C1217 C1215 1.561 . S
C1218 C1215 1.526 1_655 S
C1218 C1219 1.396 . S
C1218 C1223 1.390 . S
C1219 C1213 1.465 1_655 S
C1219 C1218 1.396 . S
C1219 C1220 1.399 . S
C1220 H1206 0.929 . S
C1220 C1219 1.399 . S
C1220 C1221 1.385 . S
C1221 H1207 0.931 . S
C1221 C1220 1.385 . S
C1221 C1222 1.389 . S
C1222 C1221 1.389 . S
C1222 C1223 1.387 . S
C1223 H1208 0.930 . S
C1223 C1218 1.390 . S
C1223 C1222 1.387 . S
C265 C57 1.218 . S
C277 C1 1.216 . S
C292 C70 1.220 . S
C304 C14 1.214 . S
C319 C28 1.218 . S
C331 C43 1.214 . S
C346 C56 1.216 . S
C358 C0 1.218 . S
C373 C71 1.215 . S
C385 C15 1.216 . S
C400 C29 1.215 . S
C412 C42 1.220 . S
C427 C153 1.215 . S
C439 C84 1.218 . S
C454 C155 1.212 . S
C466 C110 1.220 . S
C481 C112 1.219 . S
C493 C139 1.213 . S
C508 C85 1.218 . S
C520 C152 1.217 . S
C535 C154 1.215 . S
C547 C111 1.216 . S
C562 C138 1.219 . S
C574 C113 1.213 . S
C589 C237 1.217 . S
C601 C168 1.216 . S
C616 C182 1.215 . S
C628 C238 1.218 . S
C643 C211 1.216 . S
C655 C209 1.216 . S
C670 C236 1.220 . S
C682 C169 1.213 . S
C697 C239 1.215 . S
C709 C183 1.216 . S
C724 C208 1.219 . S
C736 C210 1.213 . S
C751 C13 1.523 . S
C763 C127 1.516 . S
C778 C141 1.522 . S
C790 C26 1.515 . S
C805 C167 1.520 . S
C817 C40 1.516 . S
C832 C55 1.518 . S
C844 C180 1.518 . S
C859 C194 1.515 . S
C871 C69 1.524 . S
C886 C197 1.518 . S
C898 C82 1.518 . S
C913 C222 1.524 . S
C925 C12 1.516 . S
C940 C224 1.515 . S
C952 C27 1.524 . S
C967 C251 1.517 . S
C979 C41 1.523 . S
C994 C54 1.524 . S
C1006 C97 1.514 . S
C1021 C68 1.514 . S
C1033 C99 1.524 . S
C1048 C125 1.513 . S
C1060 C83 1.523 . S
C1075 C223 1.513 . S
C1087 C96 1.524 . S
C1102 C225 1.513 . S
C1114 C98 1.525 . S
C1129 C124 1.525 . S
C1141 C250 1.513 . S
C1156 C181 1.522 . S
C1168 C126 1.518 . S
C1183 C195 1.516 . S
C1195 C140 1.523 . S
C1210 C166 1.524 . S
C1222 C196 1.514 . S
