# Generated by pormake.
# Topology whz, (6)-cn, num edge types: 1
# Building blocks:
#     Node 0, Type 0, BuildingBlock: OJICUG_clean_sbu_0, # of connection points: 6
#     Node 1, Type 0, BuildingBlock: OJICUG_clean_sbu_0, # of connection points: 6
#     Node 2, Type 0, BuildingBlock: OJICUG_clean_sbu_0, # of connection points: 6
#     Node 3, Type 0, BuildingBlock: OJICUG_clean_sbu_0, # of connection points: 6
#     Node 4, Type 0, BuildingBlock: OJICUG_clean_sbu_0, # of connection points: 6
#     Node 5, Type 0, BuildingBlock: OJICUG_clean_sbu_0, # of connection points: 6
#     Node 6, Type 0, BuildingBlock: OJICUG_clean_sbu_0, # of connection points: 6
#     Node 7, Type 0, BuildingBlock: OJICUG_clean_sbu_0, # of connection points: 6
#     Node 8, Type 0, BuildingBlock: OJICUG_clean_sbu_0, # of connection points: 6
#     Node 9, Type 0, BuildingBlock: OJICUG_clean_sbu_0, # of connection points: 6
#     Node 10, Type 0, BuildingBlock: OJICUG_clean_sbu_0, # of connection points: 6
#     Node 11, Type 0, BuildingBlock: OJICUG_clean_sbu_0, # of connection points: 6
#     Node 12, Type 0, BuildingBlock: OJICUG_clean_sbu_0, # of connection points: 6
#     Node 13, Type 0, BuildingBlock: OJICUG_clean_sbu_0, # of connection points: 6
#     Node 14, Type 0, BuildingBlock: OJICUG_clean_sbu_0, # of connection points: 6
#     Node 15, Type 0, BuildingBlock: OJICUG_clean_sbu_0, # of connection points: 6
#     Edge 16, Type (0, 0), BuildingBlock: CIFDUS_clean_linker_0, # of connection points: 2
#     Edge 17, Type (0, 0), BuildingBlock: CIFDUS_clean_linker_0, # of connection points: 2
#     Edge 18, Type (0, 0), BuildingBlock: CIFDUS_clean_linker_0, # of connection points: 2
#     Edge 19, Type (0, 0), BuildingBlock: CIFDUS_clean_linker_0, # of connection points: 2
#     Edge 20, Type (0, 0), BuildingBlock: CIFDUS_clean_linker_0, # of connection points: 2
#     Edge 21, Type (0, 0), BuildingBlock: CIFDUS_clean_linker_0, # of connection points: 2
#     Edge 22, Type (0, 0), BuildingBlock: CIFDUS_clean_linker_0, # of connection points: 2
#     Edge 23, Type (0, 0), BuildingBlock: CIFDUS_clean_linker_0, # of connection points: 2
#     Edge 24, Type (0, 0), BuildingBlock: CIFDUS_clean_linker_0, # of connection points: 2
#     Edge 25, Type (0, 0), BuildingBlock: CIFDUS_clean_linker_0, # of connection points: 2
#     Edge 26, Type (0, 0), BuildingBlock: CIFDUS_clean_linker_0, # of connection points: 2
#     Edge 27, Type (0, 0), BuildingBlock: CIFDUS_clean_linker_0, # of connection points: 2
#     Edge 28, Type (0, 0), BuildingBlock: CIFDUS_clean_linker_0, # of connection points: 2
#     Edge 29, Type (0, 0), BuildingBlock: CIFDUS_clean_linker_0, # of connection points: 2
#     Edge 30, Type (0, 0), BuildingBlock: CIFDUS_clean_linker_0, # of connection points: 2
#     Edge 31, Type (0, 0), BuildingBlock: CIFDUS_clean_linker_0, # of connection points: 2
#     Edge 32, Type (0, 0), BuildingBlock: CIFDUS_clean_linker_0, # of connection points: 2
#     Edge 33, Type (0, 0), BuildingBlock: CIFDUS_clean_linker_0, # of connection points: 2
#     Edge 34, Type (0, 0), BuildingBlock: CIFDUS_clean_linker_0, # of connection points: 2
#     Edge 35, Type (0, 0), BuildingBlock: CIFDUS_clean_linker_0, # of connection points: 2
#     Edge 36, Type (0, 0), BuildingBlock: CIFDUS_clean_linker_0, # of connection points: 2
#     Edge 37, Type (0, 0), BuildingBlock: CIFDUS_clean_linker_0, # of connection points: 2
#     Edge 38, Type (0, 0), BuildingBlock: CIFDUS_clean_linker_0, # of connection points: 2
#     Edge 39, Type (0, 0), BuildingBlock: CIFDUS_clean_linker_0, # of connection points: 2
#     Edge 40, Type (0, 0), BuildingBlock: CIFDUS_clean_linker_0, # of connection points: 2
#     Edge 41, Type (0, 0), BuildingBlock: CIFDUS_clean_linker_0, # of connection points: 2
#     Edge 42, Type (0, 0), BuildingBlock: CIFDUS_clean_linker_0, # of connection points: 2
#     Edge 43, Type (0, 0), BuildingBlock: CIFDUS_clean_linker_0, # of connection points: 2
#     Edge 44, Type (0, 0), BuildingBlock: CIFDUS_clean_linker_0, # of connection points: 2
#     Edge 45, Type (0, 0), BuildingBlock: CIFDUS_clean_linker_0, # of connection points: 2
#     Edge 46, Type (0, 0), BuildingBlock: CIFDUS_clean_linker_0, # of connection points: 2
#     Edge 47, Type (0, 0), BuildingBlock: CIFDUS_clean_linker_0, # of connection points: 2
#     Edge 48, Type (0, 0), BuildingBlock: CIFDUS_clean_linker_0, # of connection points: 2
#     Edge 49, Type (0, 0), BuildingBlock: CIFDUS_clean_linker_0, # of connection points: 2
#     Edge 50, Type (0, 0), BuildingBlock: CIFDUS_clean_linker_0, # of connection points: 2
#     Edge 51, Type (0, 0), BuildingBlock: CIFDUS_clean_linker_0, # of connection points: 2
#     Edge 52, Type (0, 0), BuildingBlock: CIFDUS_clean_linker_0, # of connection points: 2
#     Edge 53, Type (0, 0), BuildingBlock: CIFDUS_clean_linker_0, # of connection points: 2
#     Edge 54, Type (0, 0), BuildingBlock: CIFDUS_clean_linker_0, # of connection points: 2
#     Edge 55, Type (0, 0), BuildingBlock: CIFDUS_clean_linker_0, # of connection points: 2
#     Edge 56, Type (0, 0), BuildingBlock: CIFDUS_clean_linker_0, # of connection points: 2
#     Edge 57, Type (0, 0), BuildingBlock: CIFDUS_clean_linker_0, # of connection points: 2
#     Edge 58, Type (0, 0), BuildingBlock: CIFDUS_clean_linker_0, # of connection points: 2
#     Edge 59, Type (0, 0), BuildingBlock: CIFDUS_clean_linker_0, # of connection points: 2
#     Edge 60, Type (0, 0), BuildingBlock: CIFDUS_clean_linker_0, # of connection points: 2
#     Edge 61, Type (0, 0), BuildingBlock: CIFDUS_clean_linker_0, # of connection points: 2
#     Edge 62, Type (0, 0), BuildingBlock: CIFDUS_clean_linker_0, # of connection points: 2
#     Edge 63, Type (0, 0), BuildingBlock: CIFDUS_clean_linker_0, # of connection points: 2
# Relax obj value: 0.452
# Max RMSD: 0.271
# Mean RMSD: 0.271
data_MOF--net-whz--node1-OJICUG_clean_sbu_0--edge1-CIFDUS_clean_linker_0
_symmetry_space_group_name_H-M    P1
_symmetry_Int_Tables_number       1
_symmetry_cell_setting            triclinic
loop_
_symmetry_equiv_pos_as_xyz
'x, y, z'
_cell_length_a     30.12024
_cell_length_b     30.16784
_cell_length_c     47.960236
_cell_angle_alpha  89.757556
_cell_angle_beta   89.735357
_cell_angle_gamma 90.034211
loop_
_atom_site_label
_atom_site_type_symbol
_atom_site_fract_x
_atom_site_fract_y
_atom_site_fract_z
_atom_type_partial_charge
Sc0 Sc 0.35373 0.2012 0.13902 0.0
Sc1 Sc 0.24927 0.18856 0.11022 0.0
Sc2 Sc 0.33146 0.1082 0.097 0.0
O3 O 0.31152 0.16576 0.11529 0.0
C4 C 0.41026 0.17674 0.08535 0.0
C5 C 0.30088 0.27729 0.10601 0.0
C6 C 0.26783 0.14529 0.04978 0.0
C7 C 0.2684 0.21364 0.17467 0.0
C8 C 0.37857 0.10157 0.15617 0.0
C9 C 0.23652 0.08676 0.12369 0.0
O10 O 0.39994 0.20134 0.10574 0.0
O11 O 0.27232 0.25131 0.0956 0.0
O12 O 0.3017 0.12359 0.05752 0.0
O13 O 0.30933 0.20427 0.17348 0.0
O14 O 0.36179 0.08409 0.13466 0.0
O15 O 0.22442 0.12701 0.12501 0.0
O16 O 0.38147 0.14332 0.1591 0.0
O17 O 0.24358 0.21306 0.15314 0.0
O18 O 0.27217 0.07379 0.11175 0.0
O19 O 0.32958 0.26449 0.12372 0.0
O20 O 0.39195 0.13935 0.08056 0.0
O21 O 0.24474 0.16823 0.06673 0.0
Sc22 Sc 0.54515 0.60397 0.3978 0.0
Sc23 Sc 0.55353 0.49686 0.37256 0.0
Sc24 Sc 0.62927 0.57721 0.34927 0.0
O25 O 0.57605 0.55935 0.37309 0.0
C26 C 0.56053 0.65645 0.34156 0.0
C27 C 0.46315 0.54777 0.37479 0.0
C28 C 0.58005 0.5121 0.30825 0.0
C29 C 0.54223 0.52183 0.43713 0.0
C30 C 0.64751 0.62611 0.40695 0.0
C31 C 0.65701 0.48227 0.3728 0.0
O32 O 0.53741 0.64621 0.36277 0.0
O33 O 0.48704 0.51768 0.36394 0.0
O34 O 0.60235 0.54757 0.31175 0.0
O35 O 0.54928 0.56305 0.43412 0.0
O36 O 0.66142 0.60495 0.38571 0.0
O37 O 0.61831 0.47216 0.38132 0.0
O38 O 0.60655 0.63433 0.41089 0.0
O39 O 0.53992 0.49527 0.41667 0.0
O40 O 0.66549 0.51699 0.35857 0.0
O41 O 0.47925 0.57881 0.38948 0.0
O42 O 0.59819 0.63918 0.3361 0.0
O43 O 0.56376 0.49009 0.3285 0.0
Sc44 Sc 0.15427 0.87696 0.59757 0.0
Sc45 Sc 0.22944 0.79703 0.62078 0.0
Sc46 Sc 0.11995 0.78921 0.64029 0.0
O47 O 0.16805 0.82119 0.61917 0.0
C48 C 0.09642 0.8883 0.65248 0.0
C49 C 0.24583 0.8992 0.62768 0.0
C50 C 0.1935 0.78253 0.68362 0.0
C51 C 0.22467 0.83302 0.5571 0.0
C52 C 0.07778 0.80795 0.58226 0.0
C53 C 0.17956 0.70849 0.61913 0.0
O54 O 0.12382 0.90462 0.63497 0.0
O55 O 0.25367 0.85937 0.63485 0.0
O56 O 0.15431 0.79579 0.6787 0.0
O57 O 0.18828 0.85431 0.55992 0.0
O58 O 0.0866 0.78141 0.60208 0.0
O59 O 0.20775 0.73325 0.60694 0.0
O60 O 0.09299 0.84756 0.58085 0.0
O61 O 0.24373 0.8141 0.57766 0.0
O62 O 0.14912 0.7242 0.63463 0.0
O63 O 0.21408 0.91011 0.61155 0.0
O64 O 0.08306 0.84853 0.65048 0.0
O65 O 0.22226 0.77666 0.66431 0.0
Sc66 Sc 0.85234 0.40639 0.85435 0.0
Sc67 Sc 0.92296 0.48971 0.87773 0.0
Sc68 Sc 0.94627 0.3807 0.89361 0.0
O69 O 0.90711 0.42577 0.87509 0.0
C70 C 0.85068 0.34781 0.9092 0.0
C71 C 0.81996 0.49392 0.88544 0.0
C72 C 0.94905 0.45271 0.93899 0.0
C73 C 0.88761 0.48122 0.81415 0.0
C74 C 0.92613 0.33749 0.83611 0.0
C75 C 0.01647 0.44889 0.86876 0.0
O76 O 0.83029 0.37327 0.89229 0.0
O77 O 0.8583 0.50496 0.89404 0.0
O78 O 0.94142 0.41238 0.93326 0.0
O79 O 0.8717 0.44214 0.81667 0.0
O80 O 0.95365 0.34925 0.85457 0.0
O81 O 0.98782 0.47725 0.86116 0.0
O82 O 0.88515 0.34804 0.83699 0.0
O83 O 0.90202 0.50301 0.83506 0.0
O84 O 0.00693 0.41592 0.88422 0.0
O85 O 0.81367 0.46258 0.86822 0.0
O86 O 0.89151 0.33855 0.90597 0.0
O87 O 0.94778 0.48348 0.92056 0.0
Sc88 Sc 0.67289 0.88084 0.92214 0.0
Sc89 Sc 0.75362 0.80096 0.90533 0.0
Sc90 Sc 0.64608 0.78607 0.88251 0.0
O91 O 0.69065 0.82267 0.90353 0.0
C92 C 0.59258 0.81534 0.93637 0.0
C93 C 0.73994 0.84173 0.96636 0.0
C94 C 0.7026 0.7122 0.91503 0.0
C95 C 0.76442 0.90224 0.89103 0.0
C96 C 0.62284 0.88572 0.86388 0.0
C97 C 0.72791 0.77287 0.84332 0.0
O98 O 0.61179 0.85266 0.9396 0.0
O99 O 0.76209 0.82228 0.94747 0.0
O100 O 0.67083 0.72356 0.89904 0.0
O101 O 0.7317 0.9149 0.90603 0.0
O102 O 0.61831 0.84383 0.86226 0.0
O103 O 0.75523 0.77538 0.86332 0.0
O104 O 0.64131 0.90439 0.88452 0.0
O105 O 0.77561 0.86198 0.88836 0.0
O106 O 0.68681 0.78011 0.84642 0.0
O107 O 0.70448 0.8631 0.9612 0.0
O108 O 0.60227 0.78859 0.917 0.0
O109 O 0.73356 0.7385 0.92185 0.0
Sc110 Sc 0.34446 0.40292 0.66431 0.0
Sc111 Sc 0.42395 0.48608 0.65228 0.0
Sc112 Sc 0.44086 0.38145 0.62515 0.0
O113 O 0.40282 0.4235 0.64741 0.0
C114 C 0.41431 0.32576 0.67815 0.0
C115 C 0.37993 0.4665 0.71227 0.0
C116 C 0.51455 0.43876 0.65666 0.0
C117 C 0.32219 0.49805 0.63848 0.0
C118 C 0.34399 0.35384 0.6054 0.0
C119 C 0.45161 0.46551 0.5889 0.0
O120 O 0.37491 0.34142 0.67997 0.0
O121 O 0.40169 0.49017 0.69499 0.0
O122 O 0.50271 0.40949 0.63923 0.0
O123 O 0.30968 0.46244 0.65065 0.0
O124 O 0.38569 0.34776 0.60596 0.0
O125 O 0.45019 0.4906 0.61018 0.0
O126 O 0.32367 0.37484 0.62459 0.0
O127 O 0.3625 0.51006 0.63654 0.0
O128 O 0.44224 0.42453 0.58999 0.0
O129 O 0.35893 0.43176 0.70488 0.0
O130 O 0.44215 0.33811 0.65979 0.0
O131 O 0.48697 0.46514 0.66782 0.0
Sc132 Sc 0.83598 0.18324 0.37214 0.0
Sc133 Sc 0.73206 0.15588 0.39678 0.0
Sc134 Sc 0.82446 0.09557 0.41935 0.0
O135 O 0.79744 0.14451 0.39628 0.0
C136 C 0.87991 0.08923 0.36336 0.0
C137 C 0.75892 0.17306 0.33183 0.0
C138 C 0.73698 0.0521 0.39312 0.0
C139 C 0.76583 0.25198 0.39666 0.0
C140 C 0.88562 0.18056 0.4292 0.0
C141 C 0.75043 0.12781 0.46118 0.0
O142 O 0.88186 0.13113 0.36099 0.0
O143 O 0.73101 0.17572 0.35205 0.0
O144 O 0.77152 0.04929 0.40842 0.0
O145 O 0.79587 0.24204 0.37901 0.0
O146 O 0.87849 0.13924 0.43355 0.0
O147 O 0.72433 0.1397 0.44152 0.0
O148 O 0.87156 0.20116 0.40795 0.0
O149 O 0.74244 0.22284 0.40895 0.0
O150 O 0.78988 0.11495 0.45643 0.0
O151 O 0.79989 0.16647 0.33579 0.0
O152 O 0.85899 0.07057 0.38323 0.0
O153 O 0.72049 0.08875 0.38497 0.0
Sc154 Sc 0.06292 0.60941 0.12137 0.0
Sc155 Sc 0.07566 0.50282 0.14598 0.0
Sc156 Sc 0.14978 0.58575 0.16655 0.0
O157 O 0.0961 0.56574 0.14488 0.0
C158 C 0.16246 0.63455 0.1095 0.0
C159 C 0.06197 0.5304 0.08113 0.0
C160 C 0.17933 0.49194 0.14314 0.0
C161 C 0.98383 0.54812 0.14406 0.0
C162 C 0.07843 0.66126 0.1763 0.0
C163 C 0.10489 0.52168 0.20991 0.0
O164 O 0.12195 0.64643 0.10994 0.0
O165 O 0.05777 0.50294 0.10144 0.0
O166 O 0.18647 0.52563 0.15833 0.0
O167 O -0.00113 0.57849 0.12816 0.0
O168 O 0.11871 0.64852 0.17798 0.0
O169 O 0.08976 0.49652 0.19072 0.0
O170 O 0.05195 0.64749 0.15775 0.0
O171 O 0.00918 0.52142 0.15694 0.0
O172 O 0.12405 0.55842 0.20467 0.0
O173 O 0.07225 0.57079 0.08476 0.0
O174 O 0.17898 0.61081 0.1287 0.0
O175 O 0.14096 0.48105 0.13457 0.0
Sc176 Sc 0.85303 0.68664 0.64575 0.0
Sc177 Sc 0.74483 0.6906 0.6217 0.0
Sc178 Sc 0.81269 0.60066 0.60281 0.0
O179 O 0.80353 0.65911 0.62326 0.0
C180 C 0.89848 0.65868 0.58871 0.0
C181 C 0.80764 0.77257 0.61882 0.0
C182 C 0.75004 0.65118 0.55951 0.0
C183 C 0.77353 0.70591 0.68532 0.0
C184 C 0.86536 0.58403 0.66005 0.0
C185 C 0.71828 0.59021 0.63253 0.0
O186 O 0.89429 0.68343 0.60991 0.0
O187 O 0.77484 0.75176 0.60864 0.0
O188 O 0.78072 0.62316 0.56444 0.0
O189 O 0.81315 0.6924 0.68241 0.0
O190 O 0.84284 0.57006 0.63946 0.0
O191 O 0.71201 0.63163 0.63527 0.0
O192 O 0.87573 0.62457 0.66259 0.0
O193 O 0.74706 0.71034 0.66491 0.0
O194 O 0.75114 0.57379 0.61927 0.0
O195 O 0.83634 0.75389 0.63423 0.0
O196 O 0.87486 0.62427 0.58437 0.0
O197 O 0.73384 0.6756 0.5785 0.0
Sc198 Sc 0.04489 0.10251 0.88724 0.0
Sc199 Sc 0.05704 -0.00464 0.86198 0.0
Sc200 Sc 0.1384 0.07617 0.84651 0.0
O201 O 0.08041 0.05773 0.86529 0.0
C202 C 0.07129 0.15412 0.83235 0.0
C203 C 0.96674 0.04657 0.85985 0.0
C204 C 0.09725 0.01248 0.80014 0.0
C205 C 0.03368 0.02016 0.92625 0.0
C206 C 0.14376 0.12908 0.90369 0.0
C207 C 0.16052 0.98007 0.87048 0.0
O208 O 0.04398 0.14394 0.85155 0.0
O209 O 0.99173 0.01663 0.84978 0.0
O210 O 0.12067 0.04579 0.8072 0.0
O211 O 0.04198 0.06132 0.92362 0.0
O212 O 0.16264 0.10626 0.88477 0.0
O213 O 0.12019 0.96874 0.87412 0.0
O214 O 0.10207 0.13472 0.90449 0.0
O215 O 0.03594 -0.00685 0.90579 0.0
O216 O 0.17222 0.01663 0.85938 0.0
O217 O 0.98152 0.0775 0.87496 0.0
O218 O 0.11 0.13742 0.83028 0.0
O219 O 0.07417 0.99041 0.81778 0.0
Sc220 Sc 0.67082 0.39557 0.10305 0.0
Sc221 Sc 0.74359 0.31055 0.12228 0.0
Sc222 Sc 0.63555 0.30811 0.14585 0.0
O223 O 0.68347 0.33873 0.12378 0.0
C224 C 0.61474 0.41 0.15787 0.0
C225 C 0.76537 0.411 0.1324 0.0
C226 C 0.71186 0.29296 0.18636 0.0
C227 C 0.73515 0.35007 0.05978 0.0
C228 C 0.58992 0.33103 0.08894 0.0
C229 C 0.687 0.22685 0.11815 0.0
O230 O 0.64034 0.42466 0.13894 0.0
O231 O 0.77231 0.37016 0.13747 0.0
O232 O 0.67387 0.30993 0.18276 0.0
O233 O 0.70105 0.37284 0.06555 0.0
O234 O 0.5972 0.30507 0.10927 0.0
O235 O 0.71572 0.25125 0.10638 0.0
O236 O 0.6086 0.36891 0.08607 0.0
O237 O 0.75681 0.32917 0.07852 0.0
O238 O 0.66008 0.24174 0.13641 0.0
O239 O 0.73285 0.42513 0.11773 0.0
O240 O 0.60481 0.36911 0.15994 0.0
O241 O 0.73873 0.28581 0.16602 0.0
Sc242 Sc 0.34954 0.92368 0.34941 0.0
Sc243 Sc 0.43361 -0.00339 0.3704 0.0
Sc244 Sc 0.43843 0.88711 0.39168 0.0
O245 O 0.40711 0.93557 0.37027 0.0
C246 C 0.33614 0.86831 0.40625 0.0
C247 C 0.33242 0.01359 0.38271 0.0
C248 C 0.4563 0.9648 0.43218 0.0
C249 C 0.39318 -0.00553 0.30871 0.0
C250 C 0.41091 0.84098 0.3349 0.0
C251 C 0.51884 0.93973 0.36228 0.0
O252 O 0.32105 0.8895 0.3853 0.0
O253 O 0.37319 0.0219 0.38693 0.0
O254 O 0.44439 0.92497 0.4288 0.0
O255 O 0.37059 0.95905 0.31173 0.0
O256 O 0.4355 0.84615 0.35603 0.0
O257 O 0.49521 0.97231 0.35437 0.0
O258 O 0.37593 0.86359 0.33032 0.0
O259 O 0.41421 0.01185 0.32868 0.0
O260 O 0.50395 0.90868 0.37785 0.0
O261 O 0.31887 0.98259 0.36682 0.0
O262 O 0.37747 0.86161 0.4096 0.0
O263 O 0.45783 -0.00735 0.41235 0.0
Sc264 Sc 0.15356 0.38782 0.41158 0.0
Sc265 Sc 0.23659 0.30971 0.39576 0.0
Sc266 Sc 0.12999 0.29451 0.36999 0.0
O267 O 0.1735 0.33104 0.39244 0.0
C268 C 0.07951 0.31547 0.42631 0.0
C269 C 0.22088 0.34998 0.45732 0.0
C270 C 0.18733 0.21875 0.39914 0.0
C271 C 0.24707 0.41312 0.38431 0.0
C272 C 0.09915 0.39223 0.35443 0.0
C273 C 0.2129 0.28778 0.33127 0.0
O274 O 0.09625 0.35386 0.43022 0.0
O275 O 0.24255 0.32668 0.43982 0.0
O276 O 0.15685 0.2319 0.38296 0.0
O277 O 0.21053 0.42462 0.39574 0.0
O278 O 0.09656 0.3505 0.35235 0.0
O279 O 0.23933 0.28923 0.35204 0.0
O280 O 0.11942 0.41096 0.37439 0.0
O281 O 0.26019 0.37318 0.38261 0.0
O282 O 0.17143 0.29421 0.33376 0.0
O283 O 0.1873 0.37288 0.45021 0.0
O284 O 0.08811 0.29153 0.40532 0.0
O285 O 0.21661 0.24471 0.40881 0.0
Sc286 Sc 0.85658 0.92585 0.17303 0.0
Sc287 Sc 0.92509 0.00777 0.14396 0.0
Sc288 Sc 0.93657 0.89894 0.1222 0.0
O289 O 0.90606 0.94424 0.1464 0.0
C290 C 0.92699 0.84885 0.17969 0.0
C291 C 0.90608 -0.00446 0.20994 0.0
C292 C 0.01735 0.95977 0.14099 0.0
C293 C 0.82165 0.0174 0.1484 0.0
C294 C 0.83436 0.87284 0.1181 0.0
C295 C 0.93586 0.97743 0.07966 0.0
O296 O 0.88907 0.86478 0.18561 0.0
O297 O 0.91711 0.01811 0.18845 0.0
O298 O 0.00131 0.92694 0.12798 0.0
O299 O 0.81808 0.98455 0.16492 0.0
O300 O 0.87517 0.86582 0.1128 0.0
O301 O 0.93694 0.0059 0.09922 0.0
O302 O 0.82139 0.89566 0.13884 0.0
O303 O 0.85778 0.02804 0.13623 0.0
O304 O 0.92938 0.93642 0.08427 0.0
O305 O 0.88775 0.95758 0.20821 0.0
O306 O 0.94877 0.85957 0.15805 0.0
O307 O -0.0066 0.99048 0.15126 0.0
Sc308 Sc 0.34951 0.6864 0.87229 0.0
Sc309 Sc 0.24279 0.65597 0.88901 0.0
Sc310 Sc 0.33023 0.59481 0.91518 0.0
O311 O 0.3076 0.6461 0.89246 0.0
C312 C 0.38504 0.5902 0.85936 0.0
C313 C 0.27672 0.68129 0.8276 0.0
C314 C 0.24537 0.55432 0.8854 0.0
C315 C 0.2752 0.75242 0.89603 0.0
C316 C 0.39817 0.67267 0.92869 0.0
C317 C 0.2542 0.62847 0.95329 0.0
O318 O 0.39295 0.63175 0.86058 0.0
O319 O 0.24639 0.67965 0.84617 0.0
O320 O 0.27438 0.55221 0.90463 0.0
O321 O 0.3097 0.74517 0.88115 0.0
O322 O 0.38881 0.63138 0.92945 0.0
O323 O 0.23055 0.635 0.93165 0.0
O324 O 0.38281 0.69855 0.91027 0.0
O325 O 0.24943 0.72165 0.90418 0.0
O326 O 0.29523 0.61821 0.95176 0.0
O327 O 0.31748 0.67696 0.8333 0.0
O328 O 0.36198 0.5703 0.87788 0.0
O329 O 0.23508 0.59052 0.87354 0.0
Sc330 Sc 0.5366 0.07914 0.62999 0.0
Sc331 Sc 0.56867 0.9737 0.64825 0.0
Sc332 Sc 0.63486 0.06337 0.6673 0.0
O333 O 0.5799 0.03885 0.64898 0.0
C334 C 0.6289 0.11831 0.61056 0.0
C335 C 0.53633 0.00252 0.58775 0.0
C336 C 0.67006 0.97858 0.63459 0.0
C337 C 0.47332 0.007 0.65901 0.0
C338 C 0.5571 0.13083 0.68461 0.0
C339 C 0.61018 0.98703 0.7093 0.0
O340 O 0.58716 0.12294 0.61333 0.0
O341 O 0.53995 0.97391 0.60711 0.0
O342 O 0.677 0.00961 0.65205 0.0
O343 O 0.47998 0.0403 0.64315 0.0
O344 O 0.59829 0.12035 0.68454 0.0
O345 O 0.59555 0.96403 0.68918 0.0
O346 O 0.52968 0.11551 0.66719 0.0
O347 O 0.5045 0.9816 0.66691 0.0
O348 O 0.62166 0.02757 0.7063 0.0
O349 O 0.54096 0.0437 0.59191 0.0
O350 O 0.65189 0.09675 0.62829 0.0
O351 O 0.63158 0.96406 0.62897 0.0
H352 H 0.3142 0.22614 0.2227 0.0
H353 H 0.18187 0.23344 0.18863 0.0
H354 H 0.15346 0.25834 0.23383 0.0
H355 H 0.16628 0.27751 0.28295 0.0
H356 H 0.29905 0.27016 0.31646 0.0
H357 H 0.32715 0.2461 0.27122 0.0
C358 C 0.27904 0.23299 0.22501 0.0
C359 C 0.25021 0.22767 0.20215 0.0
C360 C 0.26304 0.24753 0.25092 0.0
C361 C 0.20485 0.23707 0.20577 0.0
C362 C 0.1886 0.2514 0.23162 0.0
C363 C 0.20145 0.27089 0.28042 0.0
C364 C 0.23045 0.27569 0.30327 0.0
C365 C 0.21743 0.25677 0.25433 0.0
C366 C 0.27588 0.26685 0.29939 0.0
C367 C 0.292 0.25294 0.2735 0.0
H368 H 0.48055 0.4191 0.54436 0.0
H369 H 0.46096 0.55275 0.57394 0.0
H370 H 0.49093 0.58207 0.53013 0.0
H371 H 0.52041 0.56946 0.48311 0.0
H372 H 0.53934 0.43543 0.4539 0.0
H373 H 0.51242 0.40652 0.49838 0.0
C374 C 0.48252 0.45468 0.54123 0.0
C375 C 0.46812 0.48371 0.56224 0.0
C376 C 0.50004 0.4712 0.51625 0.0
C377 C 0.47163 0.5297 0.558 0.0
C378 C 0.48887 0.54647 0.53302 0.0
C379 C 0.51925 0.53392 0.48658 0.0
C380 C 0.53166 0.50465 0.46518 0.0
C381 C 0.50305 0.51748 0.51201 0.0
C382 C 0.52974 0.45869 0.46998 0.0
C383 C 0.51421 0.44211 0.49535 0.0
H384 H 0.26306 0.7322 0.70068 0.0
H385 H 0.14722 0.80139 0.73121 0.0
H386 H 0.16106 0.77343 0.77816 0.0
H387 H 0.206 0.72945 0.81055 0.0
H388 H 0.32254 0.66149 0.78022 0.0
H389 H 0.30797 0.68833 0.73301 0.0
C390 C 0.24107 0.74157 0.71763 0.0
C391 C 0.20426 0.76893 0.71242 0.0
C392 C 0.24894 0.72508 0.74452 0.0
C393 C 0.17584 0.78034 0.73462 0.0
C394 C 0.18359 0.76425 0.76147 0.0
C395 C 0.22781 0.72001 0.79352 0.0
C396 C 0.26509 0.69338 0.79876 0.0
C397 C 0.21983 0.73634 0.7666 0.0
C398 C 0.29357 0.68199 0.77663 0.0
C399 C 0.2854 0.69745 0.74969 0.0
H400 H 0.00705 0.51686 0.95463 0.0
H401 H 0.92705 0.40982 0.98728 0.0
H402 H 0.95741 0.42187 0.03385 0.0
H403 H 0.00636 0.46343 0.0655 0.0
H404 H 0.0874 0.56946 0.03231 0.0
H405 H 0.05778 0.55656 0.98583 0.0
C406 C -0.00415 0.49659 0.97203 0.0
C407 C 0.96439 0.46293 0.96757 0.0
C408 C 0.01426 0.50298 0.99862 0.0
C409 C 0.95101 0.43619 0.9902 0.0
C410 C 0.96854 0.44289 0.01681 0.0
C411 C 0.01813 0.48315 0.04801 0.0
C412 C 0.04912 0.5173 0.05247 0.0
C413 C 0.00041 0.47603 0.02127 0.0
C414 C 0.06353 0.54296 0.02955 0.0
C415 C 0.04641 0.53581 1.00294 0.0
H416 H 0.67988 0.76813 0.7958 0.0
H417 H 0.81223 0.74861 0.82802 0.0
H418 H 0.83775 0.72535 0.78195 0.0
H419 H 0.8223 0.71035 0.73281 0.0
H420 H 0.68974 0.73024 0.70095 0.0
H421 H 0.66451 0.7534 0.74694 0.0
C422 C 0.71435 0.75879 0.79286 0.0
C423 C 0.74404 0.75999 0.81539 0.0
C424 C 0.72874 0.74538 0.76647 0.0
C425 C 0.78864 0.748 0.81105 0.0
C426 C 0.80325 0.7346 0.78474 0.0
C427 C 0.78783 0.71955 0.7359 0.0
C428 C 0.75799 0.71849 0.71343 0.0
C429 C 0.77352 0.73305 0.76235 0.0
C430 C 0.71348 0.73075 0.71784 0.0
C431 C 0.69898 0.74404 0.74413 0.0
H432 H 0.7525 0.21601 0.20296 0.0
H433 H 0.69034 0.33456 0.23437 0.0
H434 H 0.69415 0.30567 0.28189 0.0
H435 H 0.71503 0.24666 0.31492 0.0
H436 H 0.77927 0.12897 0.28424 0.0
H437 H 0.77361 0.15663 0.23628 0.0
C438 C 0.74069 0.2358 0.2203 0.0
C439 C 0.72178 0.27768 0.21514 0.0
C440 C 0.7421 0.2185 0.24772 0.0
C441 C 0.70548 0.30243 0.2378 0.0
C442 C 0.70723 0.28575 0.26499 0.0
C443 C 0.72659 0.2266 0.29762 0.0
C444 C 0.74637 0.18531 0.303 0.0
C445 C 0.72492 0.2436 0.27021 0.0
C446 C 0.76293 0.16042 0.2805 0.0
C447 C 0.76027 0.17651 0.25312 0.0
H448 H 0.9598 0.9257 0.03531 0.0
H449 H 0.94107 0.0622 0.05955 0.0
H450 H 0.97075 0.08693 0.01474 0.0
H451 H 0.0044 0.07031 0.96954 0.0
H452 H 0.02329 0.93423 0.94464 0.0
H453 H 0.99158 0.90898 0.98903 0.0
C454 C 0.96156 0.96088 0.03069 0.0
C455 C 0.94809 0.99199 0.05094 0.0
C456 C 0.97939 0.97501 1.00493 0.0
C457 C 0.95112 0.03743 0.0445 0.0
C458 C 0.96833 0.05166 0.01888 0.0
C459 C 0.002 0.03505 0.9738 0.0
C460 C 0.01679 0.00426 0.95376 0.0
C461 C 0.98321 0.02079 0.99915 0.0
C462 C 0.01254 0.95874 0.95966 0.0
C463 C -0.00579 0.94427 0.98502 0.0
H464 H 0.47327 0.9124 0.47689 0.0
H465 H 0.47218 0.04919 0.44973 0.0
H466 H 0.49853 0.07251 0.49531 0.0
H467 H 0.52131 0.05425 0.54255 0.0
H468 H 0.52233 0.91759 0.57002 0.0
H469 H 0.49684 0.89403 0.52422 0.0
C470 C 0.47856 0.94734 0.48096 0.0
C471 C 0.47069 0.979 0.46 0.0
C472 C 0.49392 0.96053 0.50709 0.0
C473 C 0.47805 0.02412 0.46552 0.0
C474 C 0.49315 0.03752 0.49154 0.0
C475 C 0.51616 0.01925 0.53858 0.0
C476 C 0.52357 0.98776 0.5597 0.0
C477 C 0.50123 0.00598 0.51241 0.0
C478 C 0.5168 0.94255 0.55412 0.0
C479 C 0.50212 0.92904 0.52799 0.0
H480 H 0.2206 0.09511 0.92523 0.0
H481 H 0.12281 0.19748 0.93822 0.0
H482 H 0.15388 0.21331 0.98397 0.0
H483 H 0.2038 0.19303 0.02241 0.0
H484 H 0.30097 0.08979 0.00975 0.0
H485 H 0.27528 0.07965 0.96213 0.0
C486 C 0.20685 0.12168 0.93775 0.0
C487 C 0.16928 0.14492 0.92823 0.0
C488 C 0.22425 0.12999 0.96449 0.0
C489 C 0.1516 0.17889 0.94499 0.0
C490 C 0.16919 0.18784 0.9713 0.0
C491 C 0.21962 0.16851 0.00921 0.0
C492 C 0.25399 0.14193 0.02 0.0
C493 C 0.20462 0.16266 0.98166 0.0
C494 C 0.27428 0.11067 1.00228 0.0
C495 C 0.25961 0.10477 0.97491 0.0
H496 H 0.61438 0.54266 0.25853 0.0
H497 H 0.53285 0.43856 0.29393 0.0
H498 H 0.53139 0.40087 0.24939 0.0
H499 H 0.56016 0.39246 0.20205 0.0
H500 H 0.64198 0.49567 0.16611 0.0
H501 H 0.63534 0.53875 0.20879 0.0
C502 C 0.59579 0.51208 0.25642 0.0
C503 C 0.5746 0.49325 0.27987 0.0
C504 C 0.59511 0.4901 0.23057 0.0
C505 C 0.5502 0.45374 0.27651 0.0
C506 C 0.54921 0.43198 0.25095 0.0
C507 C 0.57585 0.42475 0.20327 0.0
C508 C 0.60207 0.44027 0.18095 0.0
C509 C 0.57262 0.44914 0.22807 0.0
C510 C 0.62174 0.48254 0.18295 0.0
C511 C 0.61826 0.5072 0.20749 0.0
H512 H 0.19713 0.86657 0.5061 0.0
H513 H 0.30457 0.79488 0.54509 0.0
H514 H 0.34586 0.79542 0.50155 0.0
H515 H 0.3548 0.82058 0.45334 0.0
H516 H 0.24865 0.8925 0.41343 0.0
H517 H 0.20378 0.88656 0.4559 0.0
C518 C 0.2294 0.85076 0.50505 0.0
C519 C 0.24754 0.83114 0.52927 0.0
C520 C 0.2535 0.85105 0.4796 0.0
C521 C 0.28946 0.81057 0.52714 0.0
C522 C 0.31334 0.81078 0.5021 0.0
C523 C 0.32157 0.83439 0.45364 0.0
C524 C 0.30551 0.85712 0.42998 0.0
C525 C 0.2961 0.83151 0.47832 0.0
C526 C 0.26214 0.87461 0.43109 0.0
C527 C 0.23647 0.87157 0.45555 0.0
H528 H 0.90971 0.60409 0.70775 0.0
H529 H 0.8379 0.49749 0.66862 0.0
H530 H 0.83954 0.45528 0.71237 0.0
H531 H 0.85626 0.45131 0.76321 0.0
H532 H 0.92572 0.5607 0.80131 0.0
H533 H 0.92944 0.5988 0.75676 0.0
C534 C 0.89492 0.57132 0.70846 0.0
C535 C 0.87368 0.55428 0.68462 0.0
C536 C 0.89482 0.5478 0.73388 0.0
C537 C 0.85478 0.51161 0.68639 0.0
C538 C 0.85533 0.48754 0.71158 0.0
C539 C 0.87236 0.48339 0.76177 0.0
C540 C 0.89025 0.50299 0.78601 0.0
C541 C 0.87434 0.50575 0.73572 0.0
C542 C 0.91117 0.54462 0.78339 0.0
C543 C 0.91353 0.56659 0.75776 0.0
H544 H 0.84526 0.81187 0.07759 0.0
H545 H 0.75265 0.90976 0.10775 0.0
H546 H 0.71238 0.90675 0.06359 0.0
H547 H 0.71041 0.8841 0.01386 0.0
H548 H 0.80678 0.78871 0.98445 0.0
H549 H 0.83866 0.78368 0.03055 0.0
C550 C 0.81566 0.83187 0.0748 0.0
C551 C 0.80241 0.86135 0.09584 0.0
C552 C 0.79391 0.83139 0.04907 0.0
C553 C 0.76362 0.88661 0.09195 0.0
C554 C 0.74092 0.8854 0.06651 0.0
C555 C 0.73815 0.86201 0.01761 0.0
C556 C 0.75661 0.83766 0.99538 0.0
C557 C 0.75693 0.85929 0.04446 0.0
C558 C 0.79226 0.8087 1.00083 0.0
C559 C 0.81052 0.80547 0.02733 0.0
H560 H 0.34871 0.51348 0.83969 0.0
H561 H 0.44537 0.61434 0.81919 0.0
H562 H 0.45341 0.58364 0.77242 0.0
H563 H 0.42868 0.53234 0.73619 0.0
H564 H 0.33031 0.43268 0.75584 0.0
H565 H 0.32734 0.45885 0.80403 0.0
C566 C 0.37237 0.52817 0.82526 0.0
C567 C 0.39656 0.56623 0.83317 0.0
C568 C 0.37596 0.51103 0.79802 0.0
C569 C 0.42644 0.58507 0.81386 0.0
C570 C 0.43083 0.56767 0.78698 0.0
C571 C 0.40661 0.51608 0.75095 0.0
C572 C 0.37939 0.48072 0.74209 0.0
C573 C 0.40494 0.5314 0.77862 0.0
C574 C 0.35148 0.46002 0.76183 0.0
C575 C 0.34979 0.47499 0.78947 0.0
H576 H 0.67357 0.16282 0.48415 0.0
H577 H 0.79251 0.09075 0.50577 0.0
H578 H 0.76808 0.0858 0.55397 0.0
H579 H 0.71117 0.09732 0.58991 0.0
H580 H 0.59187 0.16911 0.5691 0.0
H581 H 0.61859 0.17925 0.52139 0.0
C582 C 0.69422 0.14618 0.4994 0.0
C583 C 0.73479 0.12696 0.49091 0.0
C584 C 0.68006 0.14348 0.52757 0.0
C585 C 0.7611 0.10589 0.5113 0.0
C586 C 0.74719 0.10298 0.53909 0.0
C587 C 0.69134 0.11608 0.57519 0.0
C588 C 0.64944 0.13234 0.58341 0.0
C589 C 0.70655 0.1212 0.54747 0.0
C590 C 0.62428 0.15615 0.56365 0.0
C591 C 0.63941 0.16174 0.53615 0.0
H592 H 0.1303 0.47282 0.33716 0.0
H593 H 0.03821 0.3693 0.31507 0.0
H594 H 0.02983 0.40152 0.26866 0.0
H595 H 0.05546 0.45389 0.23246 0.0
H596 H 0.14842 0.55681 0.25457 0.0
H597 H 0.14949 0.53005 0.3025 0.0
C598 C 0.10735 0.45805 0.32252 0.0
C599 C 0.08512 0.41852 0.32968 0.0
C600 C 0.10355 0.4761 0.29548 0.0
C601 C 0.05591 0.39964 0.31018 0.0
C602 C 0.05134 0.41786 0.28348 0.0
C603 C 0.07571 0.47069 0.24778 0.0
C604 C 0.10225 0.50699 0.23961 0.0
C605 C 0.07625 0.45514 0.27555 0.0
C606 C 0.12778 0.52863 0.26001 0.0
C607 C 0.12847 0.51336 0.28756 0.0
H608 H 0.77672 0.61139 0.51016 0.0
H609 H 0.67871 0.70092 0.54426 0.0
H610 H 0.64223 0.70542 0.49944 0.0
H611 H 0.63364 0.67977 0.45164 0.0
H612 H 0.73009 0.59018 0.41638 0.0
H613 H 0.77184 0.59102 0.46002 0.0
C614 C 0.74758 0.6321 0.50775 0.0
C615 C 0.73047 0.65527 0.53097 0.0
C616 C 0.72633 0.63485 0.48152 0.0
C617 C 0.69281 0.68232 0.52711 0.0
C618 C 0.67171 0.68506 0.50133 0.0
C619 C 0.66425 0.66102 0.45321 0.0
C620 C 0.67835 0.6348 0.43062 0.0
C621 C 0.68764 0.66092 0.47854 0.0
C622 C 0.71835 0.61096 0.43323 0.0
C623 C 0.74208 0.611 0.45838 0.0
H624 H 0.0455 0.94967 0.77447 0.0
H625 H 0.15174 0.04247 0.75813 0.0
H626 H 0.1576 0.01589 0.71032 0.0
H627 H 0.13659 0.96243 0.67386 0.0
H628 H 0.03075 0.8693 0.69035 0.0
H629 H 0.02048 0.90032 0.73681 0.0
C630 C 0.06979 0.96435 0.76045 0.0
C631 C 0.09836 -0.00209 0.77029 0.0
C632 C 0.07308 0.94887 0.73274 0.0
C633 C 0.1293 0.01657 0.75147 0.0
C634 C 0.13275 0.00134 0.72397 0.0
C635 C 0.11056 0.94954 0.68732 0.0
C636 C 0.08454 0.91339 0.67834 0.0
C637 C 0.10526 0.96706 0.71444 0.0
C638 C 0.05137 0.89701 0.69647 0.0
C639 C 0.04559 0.91459 0.72323 0.0
H640 H 0.80431 0.30378 0.03512 0.0
H641 H 0.69771 0.39492 0.01647 0.0
H642 H 0.72041 0.39761 0.96802 0.0
H643 H 0.77316 0.37896 0.93116 0.0
H644 H 0.88105 0.28923 0.94877 0.0
H645 H 0.85464 0.28063 0.99671 0.0
C646 C 0.78595 0.32406 0.02045 0.0
C647 C 0.74954 0.34938 0.02988 0.0
C648 C 0.79921 0.32567 0.99212 0.0
C649 C 0.72606 0.37518 0.01025 0.0
C650 C 0.73892 0.37677 0.9823 0.0
C651 C 0.79041 0.35667 0.94521 0.0
C652 C 0.82913 0.33489 0.93613 0.0
C653 C 0.77573 0.35266 0.97302 0.0
C654 C 0.85111 0.3065 0.95499 0.0
C655 C 0.83622 0.30178 0.98259 0.0
H656 H 0.40918 0.12676 0.20698 0.0
H657 H 0.36677 0.01137 0.16132 0.0
H658 H 0.36745 0.96743 0.20423 0.0
H659 H 0.37479 0.96314 0.25584 0.0
H660 H 0.41646 0.08023 0.30026 0.0
H661 H 0.42069 0.12164 0.25698 0.0
C662 C 0.40078 0.09182 0.20619 0.0
C663 C 0.38781 0.07271 0.18079 0.0
C664 C 0.40028 0.06693 0.231 0.0
C665 C 0.37706 0.02721 0.18045 0.0
C666 C 0.37702 0.00203 0.2051 0.0
C667 C 0.38476 -0.00232 0.25599 0.0
C668 C 0.39506 0.01832 0.28147 0.0
C669 C 0.38751 0.02179 0.23069 0.0
C670 C 0.40838 0.06313 0.28113 0.0
C671 C 0.4109 0.08708 0.2563 0.0
H672 H 0.2671 0.38874 0.58413 0.0
H673 H 0.3688 0.29185 0.56697 0.0
H674 H 0.33905 0.28079 0.52027 0.0
H675 H 0.28789 0.30286 0.48269 0.0
H676 H 0.18702 0.4009 0.49959 0.0
H677 H 0.21266 0.40705 0.54753 0.0
C678 C 0.28214 0.36441 0.57044 0.0
C679 C 0.32021 0.34113 0.5793 0.0
C680 C 0.26543 0.35888 0.54317 0.0
C681 C 0.33952 0.31029 0.5609 0.0
C682 C 0.32265 0.30409 0.53403 0.0
C683 C 0.27128 0.32543 0.49684 0.0
C684 C 0.23566 0.3516 0.48713 0.0
C685 C 0.28629 0.32899 0.52464 0.0
C686 C 0.2146 0.38038 0.50613 0.0
C687 C 0.22924 0.38397 0.53372 0.0
H688 H 0.88896 0.9592 0.26151 0.0
H689 H 0.93779 0.07831 0.22146 0.0
H690 H 0.94049 0.11557 0.26625 0.0
H691 H 0.92123 0.11746 0.31577 0.0
H692 H 0.87077 -0.00058 0.35615 0.0
H693 H 0.87776 0.95867 0.31251 0.0
C694 C 0.90067 -0.00686 0.26257 0.0
C695 C 0.91244 0.01594 0.23788 0.0
C696 C 0.90197 0.01476 0.28855 0.0
C697 C 0.92803 0.05983 0.2399 0.0
C698 C 0.92964 0.08133 0.2656 0.0
C699 C 0.91263 0.08255 0.3153 0.0
C700 C 0.89496 0.06189 0.33931 0.0
C701 C 0.9156 0.05953 0.28994 0.0
C702 C 0.88435 0.01645 0.3381 0.0
C703 C 0.88794 -0.00688 0.31302 0.0
H704 H 0.13038 0.65402 0.05832 0.0
H705 H 0.25266 0.6273 0.10177 0.0
H706 H 0.29254 0.62387 0.05722 0.0
H707 H 0.29134 0.62307 1.00557 0.0
H708 H 0.16695 0.64616 0.9633 0.0
H709 H 0.12949 0.65569 1.0077 0.0
C710 C 0.16596 0.64848 0.05821 0.0
C711 C 0.18847 0.6413 0.08345 0.0
C712 C 0.18828 0.64491 0.03259 0.0
C713 C 0.23449 0.63326 0.08268 0.0
C714 C 0.25726 0.6309 0.05718 0.0
C715 C 0.25607 0.6302 1.00607 0.0
C716 C 0.23221 0.63359 0.98093 0.0
C717 C 0.23427 0.63561 0.03193 0.0
C718 C 0.18644 0.64313 0.98214 0.0
C719 C 0.16481 0.6488 1.0076 0.0
H720 H 0.61396 0.02243 0.76271 0.0
H721 H 0.61235 0.89849 0.71779 0.0
H722 H 0.61092 0.85747 0.76117 0.0
H723 H 0.6113 0.85532 0.81149 0.0
H724 H 0.61718 0.97684 0.8584 0.0
H725 H 0.61473 0.01983 0.81488 0.0
C726 C 0.6136 0.9865 0.76249 0.0
C727 C 0.613 0.96388 0.73678 0.0
C728 C 0.6128 0.96242 0.78792 0.0
C729 C 0.61239 0.91715 0.73704 0.0
C730 C 0.61148 0.89339 0.76193 0.0
C731 C 0.61119 0.89124 0.81243 0.0
C732 C 0.61386 0.91263 0.83837 0.0
C733 C 0.61141 0.91557 0.78744 0.0
C734 C 0.61467 0.95933 0.8388 0.0
C735 C 0.61368 0.98397 0.81386 0.0
H736 H 0.41039 0.25758 0.06297 0.0
H737 H 0.48796 0.13797 0.06814 0.0
H738 H 0.55558 0.18042 0.05811 0.0
H739 H 0.59216 0.25213 0.06442 0.0
H740 H 0.5142 0.37138 0.07018 0.0
H741 H 0.44728 0.32953 0.05825 0.0
C742 C 0.442 0.24068 0.06059 0.0
C743 C 0.44476 0.19509 0.06685 0.0
C744 C 0.48071 0.26585 0.05736 0.0
C745 C 0.48529 0.17304 0.06351 0.0
C746 C 0.52394 0.19752 0.05821 0.0
C747 C 0.56072 0.26917 0.06168 0.0
C748 C 0.55751 0.31437 0.06872 0.0
C749 C 0.5222 0.24415 0.05753 0.0
C750 C 0.51721 0.33661 0.06494 0.0
C751 C 0.47891 0.31243 0.05862 0.0
H752 H 0.47714 0.65744 0.32319 0.0
H753 H 0.59988 0.73068 0.31941 0.0
H754 H 0.55937 0.79724 0.3048 0.0
H755 H 0.48886 0.83732 0.30867 0.0
H756 H 0.36687 0.76537 0.32105 0.0
H757 H 0.40641 0.69523 0.31517 0.0
C758 C 0.49506 0.68767 0.31809 0.0
C759 C 0.54102 0.68997 0.32302 0.0
C760 C 0.47127 0.72601 0.31141 0.0
C761 C 0.56442 0.72857 0.31597 0.0
C762 C 0.54115 0.76661 0.30789 0.0
C763 C 0.47073 0.8062 0.30845 0.0
C764 C 0.42544 0.806 0.31584 0.0
C765 C 0.49443 0.76634 0.30771 0.0
C766 C 0.40176 0.76607 0.31545 0.0
C767 C 0.42463 0.726 0.3127 0.0
H768 H 0.89661 0.73717 0.56359 0.0
H769 H 0.97288 0.61683 0.56907 0.0
H770 H 0.03982 0.65721 0.55473 0.0
H771 H 0.07795 0.72856 0.55799 0.0
H772 H 0.00232 0.84925 0.56403 0.0
H773 H 0.93393 0.80803 0.55507 0.0
C774 C 0.92761 0.71957 0.56023 0.0
C775 C 0.9305 0.67454 0.56781 0.0
C776 C 0.96625 0.74379 0.55459 0.0
C777 C 0.97021 0.65152 0.56339 0.0
C778 C 0.00851 0.67485 0.55562 0.0
C779 C 0.04659 0.74598 0.55591 0.0
C780 C 0.04457 0.79141 0.56249 0.0
C781 C 0.00738 0.7214 0.55369 0.0
C782 C 0.00443 0.81422 0.55931 0.0
C783 C 0.96528 0.79041 0.55472 0.0
H784 H 0.00678 0.33774 0.81248 0.0
H785 H 0.88371 0.26485 0.81477 0.0
H786 H 0.92298 0.19733 0.80125 0.0
H787 H 0.99281 0.15721 0.80707 0.0
H788 H 0.1155 0.22908 0.81586 0.0
H789 H 0.07699 0.29864 0.8057 0.0
C790 C 0.98844 0.30733 0.80885 0.0
C791 C 0.94299 0.30536 0.81572 0.0
C792 C 0.0118 0.26823 0.80367 0.0
C793 C 0.9189 0.2667 0.81013 0.0
C794 C 0.94152 0.22802 0.80277 0.0
C795 C 0.0113 0.18804 0.80541 0.0
C796 C 0.05629 0.1888 0.8131 0.0
C797 C 0.98819 0.22784 0.80224 0.0
C798 C 0.08066 0.22812 0.81037 0.0
C799 C 0.05843 0.26788 0.80499 0.0
H800 H 0.58251 0.73696 0.96163 0.0
H801 H 0.51719 0.86206 0.948 0.0
H802 H 0.4448 0.82606 0.95327 0.0
H803 H 0.40337 0.75717 0.94614 0.0
H804 H 0.47052 0.6312 0.95157 0.0
H805 H 0.5387 0.6688 0.96579 0.0
C806 C 0.5523 0.75657 0.96125 0.0
C807 C 0.55473 0.80172 0.95381 0.0
C808 C 0.51119 0.73495 0.96188 0.0
C809 C 0.51592 0.82725 0.95361 0.0
C810 C 0.47457 0.80642 0.95607 0.0
C811 C 0.43263 0.73787 0.9513 0.0
C812 C 0.43263 0.6917 0.94685 0.0
C813 C 0.47213 0.75992 0.95775 0.0
C814 C 0.47002 0.6668 0.9544 0.0
C815 C 0.50907 0.68839 0.96229 0.0
H816 H 0.49479 0.31902 0.70104 0.0
H817 H 0.36917 0.25129 0.69524 0.0
H818 H 0.40528 0.18125 0.70772 0.0
H819 H 0.47426 0.13846 0.70518 0.0
H820 H 0.60039 0.20598 0.70159 0.0
H821 H 0.56298 0.27687 0.70916 0.0
C822 C 0.47512 0.28909 0.70356 0.0
C823 C 0.42975 0.28971 0.6965 0.0
C824 C 0.49667 0.24881 0.70862 0.0
C825 C 0.40417 0.25137 0.70034 0.0
C826 C 0.42501 0.2113 0.70712 0.0
C827 C 0.49367 0.16861 0.70714 0.0
C828 C 0.53979 0.16743 0.70186 0.0
C829 C 0.47158 0.2093 0.70905 0.0
C830 C 0.56486 0.20618 0.70521 0.0
C831 C 0.54332 0.24677 0.7091 0.0
H832 H -0.00199 0.34011 0.44576 0.0
H833 H 0.09903 0.23995 0.45297 0.0
H834 H 0.04318 0.18383 0.4632 0.0
H835 H 0.9661 0.16137 0.45265 0.0
H836 H 0.86502 0.26198 0.44753 0.0
H837 H 0.91993 0.31972 0.45513 0.0
C838 C 0.00787 0.30668 0.45142 0.0
C839 C 0.05198 0.29359 0.44763 0.0
C840 C 0.97537 0.27426 0.45685 0.0
C841 C 0.06475 0.25034 0.45529 0.0
C842 C 0.03278 0.21802 0.46076 0.0
C843 C 0.95582 0.19563 0.45491 0.0
C844 C 0.91231 0.20779 0.44823 0.0
C845 C 0.9878 0.22898 0.45897 0.0
C846 C 0.89898 0.25219 0.45175 0.0
C847 C 0.93039 0.28536 0.45585 0.0
H848 H -0.0018 0.66513 0.2002 0.0
H849 H 0.12057 0.73787 0.19082 0.0
H850 H 0.0817 0.80705 0.20129 0.0
H851 H 0.01084 0.84629 0.19725 0.0
H852 H 0.88782 0.77343 0.19955 0.0
H853 H 0.92851 0.70472 0.2087 0.0
C854 C 0.01653 0.69603 0.20164 0.0
C855 C 0.06161 0.69713 0.19394 0.0
C856 C -0.00656 0.73559 0.20587 0.0
C857 C 0.08568 0.73664 0.19638 0.0
C858 C 0.06331 0.77617 0.20202 0.0
C859 C 0.993 0.81554 0.20101 0.0
C860 C 0.94684 0.81413 0.19701 0.0
C861 C 0.01679 0.77618 0.20442 0.0
C862 C 0.92347 0.77484 0.20232 0.0
C863 C 0.94682 0.73558 0.20717 0.0
H864 H 0.3219 0.34323 0.14182 0.0
H865 H 0.25997 0.31828 0.06243 0.0
H866 H 0.22083 0.38882 0.06524 0.0
H867 H 0.19157 0.44761 0.09518 0.0
H868 H 0.25061 0.47113 0.17549 0.0
H869 H 0.30376 0.41114 0.16742 0.0
C870 C 0.30124 0.35401 0.12461 0.0
C871 C 0.29278 0.32512 0.10233 0.0
C872 C 0.2773 0.39366 0.12697 0.0
C873 C 0.26628 0.33969 0.08006 0.0
C874 C 0.24355 0.37979 0.08178 0.0
C875 C 0.21666 0.44004 0.11065 0.0
C876 C 0.2166 0.46257 0.13617 0.0
C877 C 0.24659 0.4054 0.10598 0.0
C878 C 0.24984 0.45362 0.15583 0.0
C879 C 0.2801 0.41932 0.15124 0.0
H880 H 0.27218 0.49062 0.40838 0.0
H881 H 0.29089 0.40976 0.33536 0.0
H882 H 0.35636 0.45266 0.32221 0.0
H883 H 0.41608 0.50165 0.33685 0.0
H884 H 0.40121 0.57929 0.41163 0.0
H885 H 0.32614 0.55034 0.4183 0.0
C886 C 0.2898 0.4836 0.38912 0.0
C887 C 0.27746 0.44688 0.37304 0.0
C888 C 0.32854 0.50737 0.38225 0.0
C889 C 0.3004 0.43768 0.34818 0.0
C890 C 0.33788 0.46205 0.34071 0.0
C891 C 0.39597 0.51312 0.35421 0.0
C892 C 0.41452 0.54159 0.37408 0.0
C893 C 0.35359 0.49522 0.35843 0.0
C894 C 0.38782 0.557 0.39615 0.0
C895 C 0.34499 0.54014 0.40013 0.0
H896 H 0.23261 0.66164 0.5844 0.0
H897 H 0.14708 0.64722 0.65631 0.0
H898 H 0.1789 0.57446 0.66605 0.0
H899 H 0.24177 0.52265 0.65963 0.0
H900 H 0.32998 0.54104 0.58945 0.0
H901 H 0.28619 0.60392 0.57337 0.0
C902 C 0.22014 0.64213 0.60181 0.0
C903 C 0.18846 0.66032 0.61999 0.0
C904 C 0.23965 0.60114 0.60788 0.0
C905 C 0.17189 0.63423 0.64211 0.0
C906 C 0.19035 0.5927 0.64787 0.0
C907 C 0.25043 0.53972 0.64041 0.0
C908 C 0.28933 0.52805 0.626 0.0
C909 C 0.22591 0.57693 0.63177 0.0
C910 C 0.30048 0.55018 0.6011 0.0
C911 C 0.27553 0.58611 0.59191 0.0
H912 H 0.08813 0.42542 0.89928 0.0
H913 H 0.04946 0.49279 0.82363 0.0
H914 H 0.12449 0.52222 0.81817 0.0
H915 H 0.19438 0.54144 0.84019 0.0
H916 H 0.22984 0.48212 0.91903 0.0
H917 H 0.1637 0.43527 0.91738 0.0
C918 C 0.09653 0.44554 0.88121 0.0
C919 C 0.06332 0.45786 0.86221 0.0
C920 C 0.1391 0.46397 0.87892 0.0
C921 C 0.07445 0.48374 0.83881 0.0
C922 C 0.11726 0.5005 0.83568 0.0
C923 C 0.18819 0.51747 0.8567 0.0
C924 C 0.21598 0.51623 0.88014 0.0
C925 C 0.14895 0.49284 0.85644 0.0
C926 C 0.20852 0.48414 0.90094 0.0
C927 C 0.17043 0.45771 0.90016 0.0
H928 H 0.67717 0.64154 0.88425 0.0
H929 H 0.74643 0.67729 0.95943 0.0
H930 H 0.78427 0.6059 0.95967 0.0
H931 H 0.81067 0.54285 0.93224 0.0
H932 H 0.74439 0.5088 0.8557 0.0
H933 H 0.69198 0.56953 0.86246 0.0
C934 C 0.69909 0.63294 0.90132 0.0
C935 C 0.71 0.66496 0.92134 0.0
C936 C 0.72222 0.59261 0.90064 0.0
C937 C 0.73821 0.65334 0.94348 0.0
C938 C 0.76017 0.61271 0.94349 0.0
C939 C 0.78408 0.54814 0.9174 0.0
C940 C 0.78214 0.52241 0.89313 0.0
C941 C 0.75468 0.58357 0.92113 0.0
C942 C 0.74691 0.52865 0.8744 0.0
C943 C 0.71703 0.5635 0.87818 0.0
H944 H 0.70034 0.50397 0.6197 0.0
H945 H 0.66345 0.60955 0.67576 0.0
H946 H 0.60228 0.5653 0.69386 0.0
H947 H 0.5521 0.50325 0.68783 0.0
H948 H 0.58446 0.39995 0.6291 0.0
H949 H 0.65552 0.43553 0.61913 0.0
C950 C 0.67932 0.51691 0.63618 0.0
C951 C 0.68551 0.56042 0.64573 0.0
C952 C 0.64339 0.49165 0.64613 0.0
C953 C 0.6585 0.5766 0.66742 0.0
C954 C 0.62366 0.55124 0.67796 0.0
C955 C 0.57509 0.48779 0.67336 0.0
C956 C 0.56224 0.4499 0.65852 0.0
C957 C 0.61465 0.50961 0.66657 0.0
C958 C 0.59307 0.42968 0.64045 0.0
C959 C 0.63358 0.45027 0.63448 0.0
H960 H 0.78561 0.32193 0.36277 0.0
H961 H 0.71833 0.28704 0.43954 0.0
H962 H 0.68465 0.36029 0.44139 0.0
H963 H 0.66433 0.42835 0.41714 0.0
H964 H 0.72792 0.46265 0.33926 0.0
H965 H 0.77401 0.39595 0.34223 0.0
C966 C 0.76441 0.33073 0.38023 0.0
C967 C 0.75354 0.2988 0.4006 0.0
C968 C 0.74424 0.3726 0.38083 0.0
C969 C 0.72638 0.31076 0.42326 0.0
C970 C 0.70712 0.35262 0.42436 0.0
C971 C 0.68897 0.42163 0.40112 0.0
C972 C 0.69223 0.44955 0.37775 0.0
C973 C 0.7142 0.38289 0.4026 0.0
C974 C 0.72478 0.44131 0.35738 0.0
C975 C 0.75081 0.40303 0.35897 0.0
H976 H 0.79345 0.48877 0.10891 0.0
H977 H 0.81252 0.40271 0.17994 0.0
H978 H 0.87889 0.44363 0.19293 0.0
H979 H 0.93785 0.49495 0.17961 0.0
H980 H 0.92158 0.57918 0.10741 0.0
H981 H 0.84753 0.54881 0.09985 0.0
C982 C 0.81152 0.47985 0.12762 0.0
C983 C 0.79875 0.44231 0.14311 0.0
C984 C 0.85052 0.50286 0.13461 0.0
C985 C 0.82232 0.43104 0.16737 0.0
C986 C 0.86028 0.45438 0.17482 0.0
C987 C 0.91778 0.50737 0.16255 0.0
C988 C 0.93566 0.5385 0.14378 0.0
C989 C 0.87579 0.48896 0.15787 0.0
C990 C 0.90884 0.55488 0.12209 0.0
C991 C 0.86653 0.5373 0.1176 0.0
H992 H 0.76911 0.82466 0.57975 0.0
H993 H 0.84055 0.83006 0.65738 0.0
H994 H 0.81073 0.90368 0.66655 0.0
H995 H 0.74856 0.95555 0.65857 0.0
H996 H 0.67426 0.94682 0.58216 0.0
H997 H 0.72144 0.88643 0.56618 0.0
C998 C 0.77945 0.84271 0.59815 0.0
C999 C 0.80565 0.82145 0.61826 0.0
C1000 C 0.76081 0.88423 0.60382 0.0
C1001 C 0.81981 0.84547 0.6417 0.0
C1002 C 0.80232 0.88746 0.64715 0.0
C1003 C 0.744 0.94156 0.63798 0.0
C1004 C 0.7074 0.95448 0.62188 0.0
C1005 C 0.77031 0.90564 0.62933 0.0
C1006 C 0.70177 0.93648 0.59514 0.0
C1007 C 0.72861 0.90187 0.58602 0.0
H1008 H 0.78503 0.98741 0.90552 0.0
H1009 H 0.80419 0.88941 0.8413 0.0
H1010 H 0.86354 0.93334 0.82064 0.0
H1011 H 0.92031 0.98965 0.82745 0.0
H1012 H 0.90395 0.0865 0.89267 0.0
H1013 H 0.83261 0.05423 0.90543 0.0
C1014 C 0.80143 0.97646 0.88659 0.0
C1015 C 0.79163 0.93463 0.87558 0.0
C1016 C 0.83642 0.00147 0.87506 0.0
C1017 C 0.81241 0.92096 0.85072 0.0
C1018 C 0.84625 0.94607 0.83879 0.0
C1019 C 0.90051 0.00459 0.84387 0.0
C1020 C 0.91826 0.03913 0.85977 0.0
C1021 C 0.86029 0.98493 0.85181 0.0
C1022 C 0.89158 0.0591 0.88042 0.0
C1023 C 0.85084 0.04041 0.88798 0.0
H1024 H 0.79532 0.05787 0.10106 0.0
H1025 H 0.76151 0.04125 0.18792 0.0
H1026 H 0.70576 0.09983 0.18425 0.0
H1027 H 0.6784 0.16483 0.15863 0.0
H1028 H 0.7142 0.18244 0.07211 0.0
H1029 H 0.75572 0.11305 0.0729 0.0
C1030 C 0.77505 0.06661 0.11898 0.0
C1031 C 0.783 0.04641 0.14483 0.0
C1032 C 0.74324 0.1002 0.11671 0.0
C1033 C 0.75608 0.05692 0.16785 0.0
C1034 C 0.72428 0.09038 0.16578 0.0
C1035 C 0.69358 0.15241 0.13964 0.0
C1036 C 0.69417 0.17891 0.11552 0.0
C1037 C 0.71901 0.11354 0.14061 0.0
C1038 C 0.71392 0.16262 0.09102 0.0
C1039 C 0.73809 0.12329 0.09155 0.0
H1040 H 0.58442 0.91656 0.39794 0.0
H1041 H 0.5608 0.97426 0.31692 0.0
H1042 H 0.63502 0.00662 0.31677 0.0
H1043 H 0.69683 0.03385 0.34471 0.0
H1044 H 0.71802 0.98201 0.42741 0.0
H1045 H 0.65527 0.93117 0.42177 0.0
C1046 C 0.59631 0.93459 0.37976 0.0
C1047 C 0.56707 0.94381 0.35769 0.0
C1048 C 0.63824 0.95498 0.38047 0.0
C1049 C 0.58268 0.96729 0.33427 0.0
C1050 C 0.62495 0.98607 0.33429 0.0
C1051 C 0.68855 0.01028 0.36109 0.0
C1052 C 0.7111 0.0121 0.38661 0.0
C1053 C 0.65161 0.98261 0.35806 0.0
C1054 C 0.70085 0.98119 0.40762 0.0
C1055 C 0.66469 0.9525 0.40449 0.0
H1056 H 0.24241 0.17731 0.43522 0.0
H1057 H 0.14919 0.15193 0.36907 0.0
H1058 H 0.18177 0.07905 0.36163 0.0
H1059 H 0.24815 0.03202 0.36597 0.0
H1060 H 0.34415 0.06105 0.42994 0.0
H1061 H 0.29901 0.12261 0.44622 0.0
C1062 C 0.2284 0.15534 0.4197 0.0
C1063 C 0.19482 0.17067 0.40197 0.0
C1064 C 0.24856 0.11446 0.41464 0.0
C1065 C 0.17586 0.14132 0.38262 0.0
C1066 C 0.19474 0.09973 0.37813 0.0
C1067 C 0.25852 0.05114 0.38391 0.0
C1068 C 0.30007 0.04326 0.39606 0.0
C1069 C 0.23303 0.08739 0.3927 0.0
C1070 C 0.31288 0.06761 0.41963 0.0
C1071 C 0.28706 0.1027 0.42905 0.0
H1072 H 0.06674 0.00908 0.17616 0.0
H1073 H 0.07667 0.92413 0.10425 0.0
H1074 H 0.1523 0.94967 0.09561 0.0
H1075 H 0.20848 0.00813 0.10265 0.0
H1076 H 0.19611 0.09492 0.17344 0.0
H1077 H 0.12938 0.05604 0.18877 0.0
C1078 C 0.08588 -0.00459 0.15901 0.0
C1079 C 0.06585 0.96588 0.14045 0.0
C1080 C 0.12891 0.01088 0.1538 0.0
C1081 C 0.09124 0.94745 0.11869 0.0
C1082 C 0.13445 0.96221 0.1136 0.0
C1083 C 0.19197 0.01726 0.12194 0.0
C1084 C 0.20621 0.05466 0.13661 0.0
C1085 C 0.15268 -0.0043 0.13013 0.0
C1086 C 0.18492 0.0665 0.16163 0.0
C1087 C 0.14673 0.04448 0.17033 0.0
H1088 H 0.15793 0.91971 0.91199 0.0
H1089 H 0.23986 0.96694 0.84414 0.0
H1090 H 0.28871 0.90268 0.84931 0.0
H1091 H 0.29988 0.82727 0.86789 0.0
H1092 H 0.21638 0.78041 0.9353 0.0
H1093 H 0.17702 0.85076 0.93591 0.0
C1094 C 0.18698 0.91629 0.8987 0.0
C1095 C 0.19489 0.94725 0.87738 0.0
C1096 C 0.21443 0.8792 0.90158 0.0
C1097 C 0.23305 0.9432 0.86062 0.0
C1098 C 0.26081 0.90637 0.86346 0.0
C1099 C 0.27393 0.83292 0.88322 0.0
C1100 C 0.26029 0.7983 0.901 0.0
C1101 C 0.25069 0.87324 0.88311 0.0
C1102 C 0.22686 0.80624 0.92094 0.0
C1103 C 0.20422 0.84642 0.9213 0.0
H1104 H 0.30286 0.89318 0.67077 0.0
H1105 H 0.26072 0.98137 0.60489 0.0
H1106 H 0.3248 0.02905 0.61344 0.0
H1107 H 0.39912 0.03693 0.6332 0.0
H1108 H 0.44377 0.94466 0.69624 0.0
H1109 H 0.37175 0.90775 0.69559 0.0
C1110 C 0.3073 0.9232 0.65853 0.0
C1111 C 0.27793 0.93308 0.63668 0.0
C1112 C 0.34482 0.94947 0.66291 0.0
C1113 C 0.28327 0.97273 0.62158 0.0
C1114 C 0.32001 -0.00013 0.62637 0.0
C1115 C 0.39282 0.00946 0.64733 0.0
C1116 C 0.42714 -0.00721 0.66421 0.0
C1117 C 0.35205 0.98729 0.64602 0.0
C1118 C 0.41817 0.95756 0.68265 0.0
C1119 C 0.37708 0.93634 0.68222 0.0
loop_
_geom_bond_atom_site_label_1
_geom_bond_atom_site_label_2
_geom_bond_distance
_geom_bond_site_symmetry_2
_ccdc_geom_bond_type
Sc0 O3 2.025 . S
Sc0 O10 2.105 . S
Sc0 O13 2.105 . S
Sc0 O16 2.105 . S
Sc0 O19 2.105 . S
Sc1 O3 2.025 . S
Sc1 O11 2.105 . S
Sc1 O15 2.105 . S
Sc1 O17 2.105 . S
Sc1 O21 2.105 . S
Sc2 O3 2.025 . S
Sc2 O12 2.105 . S
Sc2 O14 2.105 . S
Sc2 O18 2.105 . S
Sc2 O20 2.105 . S
O3 Sc0 2.025 . S
O3 Sc1 2.025 . S
O3 Sc2 2.025 . S
C4 O10 1.268 . S
C4 O20 1.268 . S
C5 O11 1.268 . S
C5 O19 1.268 . S
C6 O12 1.268 . S
C6 O21 1.268 . S
C7 O13 1.268 . S
C7 O17 1.268 . S
C8 O14 1.268 . S
C8 O16 1.268 . S
C9 O15 1.268 . S
C9 O18 1.268 . S
O10 Sc0 2.105 . S
O10 C4 1.268 . S
O11 Sc1 2.105 . S
O11 C5 1.268 . S
O12 Sc2 2.105 . S
O12 C6 1.268 . S
O13 Sc0 2.105 . S
O13 C7 1.268 . S
O14 Sc2 2.105 . S
O14 C8 1.268 . S
O15 Sc1 2.105 . S
O15 C9 1.268 . S
O16 Sc0 2.105 . S
O16 C8 1.268 . S
O17 Sc1 2.105 . S
O17 C7 1.268 . S
O18 Sc2 2.105 . S
O18 C9 1.268 . S
O19 Sc0 2.105 . S
O19 C5 1.268 . S
O20 Sc2 2.105 . S
O20 C4 1.268 . S
O21 Sc1 2.105 . S
O21 C6 1.268 . S
Sc22 O25 2.025 . S
Sc22 O32 2.105 . S
Sc22 O35 2.105 . S
Sc22 O38 2.105 . S
Sc22 O41 2.105 . S
Sc23 O25 2.025 . S
Sc23 O33 2.105 . S
Sc23 O37 2.105 . S
Sc23 O39 2.105 . S
Sc23 O43 2.105 . S
Sc24 O25 2.025 . S
Sc24 O34 2.105 . S
Sc24 O36 2.105 . S
Sc24 O40 2.105 . S
Sc24 O42 2.105 . S
O25 Sc22 2.025 . S
O25 Sc23 2.025 . S
O25 Sc24 2.025 . S
C26 O32 1.268 . S
C26 O42 1.268 . S
C27 O33 1.268 . S
C27 O41 1.268 . S
C28 O34 1.268 . S
C28 O43 1.268 . S
C29 O35 1.268 . S
C29 O39 1.268 . S
C30 O36 1.268 . S
C30 O38 1.268 . S
C31 O37 1.268 . S
C31 O40 1.268 . S
O32 Sc22 2.105 . S
O32 C26 1.268 . S
O33 Sc23 2.105 . S
O33 C27 1.268 . S
O34 Sc24 2.105 . S
O34 C28 1.268 . S
O35 Sc22 2.105 . S
O35 C29 1.268 . S
O36 Sc24 2.105 . S
O36 C30 1.268 . S
O37 Sc23 2.105 . S
O37 C31 1.268 . S
O38 Sc22 2.105 . S
O38 C30 1.268 . S
O39 Sc23 2.105 . S
O39 C29 1.268 . S
O40 Sc24 2.105 . S
O40 C31 1.268 . S
O41 Sc22 2.105 . S
O41 C27 1.268 . S
O42 Sc24 2.105 . S
O42 C26 1.268 . S
O43 Sc23 2.105 . S
O43 C28 1.268 . S
Sc44 O47 2.025 . S
Sc44 O54 2.105 . S
Sc44 O57 2.105 . S
Sc44 O60 2.105 . S
Sc44 O63 2.105 . S
Sc45 O47 2.025 . S
Sc45 O55 2.105 . S
Sc45 O59 2.105 . S
Sc45 O61 2.105 . S
Sc45 O65 2.105 . S
Sc46 O47 2.025 . S
Sc46 O56 2.105 . S
Sc46 O58 2.105 . S
Sc46 O62 2.105 . S
Sc46 O64 2.105 . S
O47 Sc44 2.025 . S
O47 Sc45 2.025 . S
O47 Sc46 2.025 . S
C48 O54 1.268 . S
C48 O64 1.268 . S
C49 O55 1.268 . S
C49 O63 1.268 . S
C50 O56 1.268 . S
C50 O65 1.268 . S
C51 O57 1.268 . S
C51 O61 1.268 . S
C52 O58 1.268 . S
C52 O60 1.268 . S
C53 O59 1.268 . S
C53 O62 1.268 . S
O54 Sc44 2.105 . S
O54 C48 1.268 . S
O55 Sc45 2.105 . S
O55 C49 1.268 . S
O56 Sc46 2.105 . S
O56 C50 1.268 . S
O57 Sc44 2.105 . S
O57 C51 1.268 . S
O58 Sc46 2.105 . S
O58 C52 1.268 . S
O59 Sc45 2.105 . S
O59 C53 1.268 . S
O60 Sc44 2.105 . S
O60 C52 1.268 . S
O61 Sc45 2.105 . S
O61 C51 1.268 . S
O62 Sc46 2.105 . S
O62 C53 1.268 . S
O63 Sc44 2.105 . S
O63 C49 1.268 . S
O64 Sc46 2.105 . S
O64 C48 1.268 . S
O65 Sc45 2.105 . S
O65 C50 1.268 . S
Sc66 O69 2.025 . S
Sc66 O76 2.105 . S
Sc66 O79 2.105 . S
Sc66 O82 2.105 . S
Sc66 O85 2.105 . S
Sc67 O69 2.025 . S
Sc67 O77 2.105 . S
Sc67 O81 2.105 . S
Sc67 O83 2.105 . S
Sc67 O87 2.105 . S
Sc68 O69 2.025 . S
Sc68 O78 2.105 . S
Sc68 O80 2.105 . S
Sc68 O84 2.105 1_655 S
Sc68 O86 2.105 . S
O69 Sc66 2.025 . S
O69 Sc67 2.025 . S
O69 Sc68 2.025 . S
C70 O76 1.268 . S
C70 O86 1.268 . S
C71 O77 1.268 . S
C71 O85 1.268 . S
C72 O78 1.268 . S
C72 O87 1.268 . S
C73 O79 1.268 . S
C73 O83 1.268 . S
C74 O80 1.268 . S
C74 O82 1.268 . S
C75 O81 1.268 1_455 S
C75 O84 1.268 . S
O76 Sc66 2.105 . S
O76 C70 1.268 . S
O77 Sc67 2.105 . S
O77 C71 1.268 . S
O78 Sc68 2.105 . S
O78 C72 1.268 . S
O79 Sc66 2.105 . S
O79 C73 1.268 . S
O80 Sc68 2.105 . S
O80 C74 1.268 . S
O81 Sc67 2.105 . S
O81 C75 1.268 1_655 S
O82 Sc66 2.105 . S
O82 C74 1.268 . S
O83 Sc67 2.105 . S
O83 C73 1.268 . S
O84 Sc68 2.105 1_455 S
O84 C75 1.268 . S
O85 Sc66 2.105 . S
O85 C71 1.268 . S
O86 Sc68 2.105 . S
O86 C70 1.268 . S
O87 Sc67 2.105 . S
O87 C72 1.268 . S
Sc88 O91 2.025 . S
Sc88 O98 2.105 . S
Sc88 O101 2.105 . S
Sc88 O104 2.105 . S
Sc88 O107 2.105 . S
Sc89 O91 2.025 . S
Sc89 O99 2.105 . S
Sc89 O103 2.105 . S
Sc89 O105 2.105 . S
Sc89 O109 2.105 . S
Sc90 O91 2.025 . S
Sc90 O100 2.105 . S
Sc90 O102 2.105 . S
Sc90 O106 2.105 . S
Sc90 O108 2.105 . S
O91 Sc88 2.025 . S
O91 Sc89 2.025 . S
O91 Sc90 2.025 . S
C92 O98 1.268 . S
C92 O108 1.268 . S
C93 O99 1.268 . S
C93 O107 1.268 . S
C94 O100 1.268 . S
C94 O109 1.268 . S
C95 O101 1.268 . S
C95 O105 1.268 . S
C96 O102 1.268 . S
C96 O104 1.268 . S
C97 O103 1.268 . S
C97 O106 1.268 . S
O98 Sc88 2.105 . S
O98 C92 1.268 . S
O99 Sc89 2.105 . S
O99 C93 1.268 . S
O100 Sc90 2.105 . S
O100 C94 1.268 . S
O101 Sc88 2.105 . S
O101 C95 1.268 . S
O102 Sc90 2.105 . S
O102 C96 1.268 . S
O103 Sc89 2.105 . S
O103 C97 1.268 . S
O104 Sc88 2.105 . S
O104 C96 1.268 . S
O105 Sc89 2.105 . S
O105 C95 1.268 . S
O106 Sc90 2.105 . S
O106 C97 1.268 . S
O107 Sc88 2.105 . S
O107 C93 1.268 . S
O108 Sc90 2.105 . S
O108 C92 1.268 . S
O109 Sc89 2.105 . S
O109 C94 1.268 . S
Sc110 O113 2.025 . S
Sc110 O120 2.105 . S
Sc110 O123 2.105 . S
Sc110 O126 2.105 . S
Sc110 O129 2.105 . S
Sc111 O113 2.025 . S
Sc111 O121 2.105 . S
Sc111 O125 2.105 . S
Sc111 O127 2.105 . S
Sc111 O131 2.105 . S
Sc112 O113 2.025 . S
Sc112 O122 2.105 . S
Sc112 O124 2.105 . S
Sc112 O128 2.105 . S
Sc112 O130 2.105 . S
O113 Sc110 2.025 . S
O113 Sc111 2.025 . S
O113 Sc112 2.025 . S
C114 O120 1.268 . S
C114 O130 1.268 . S
C115 O121 1.268 . S
C115 O129 1.268 . S
C116 O122 1.268 . S
C116 O131 1.268 . S
C117 O123 1.268 . S
C117 O127 1.268 . S
C118 O124 1.268 . S
C118 O126 1.268 . S
C119 O125 1.268 . S
C119 O128 1.268 . S
O120 Sc110 2.105 . S
O120 C114 1.268 . S
O121 Sc111 2.105 . S
O121 C115 1.268 . S
O122 Sc112 2.105 . S
O122 C116 1.268 . S
O123 Sc110 2.105 . S
O123 C117 1.268 . S
O124 Sc112 2.105 . S
O124 C118 1.268 . S
O125 Sc111 2.105 . S
O125 C119 1.268 . S
O126 Sc110 2.105 . S
O126 C118 1.268 . S
O127 Sc111 2.105 . S
O127 C117 1.268 . S
O128 Sc112 2.105 . S
O128 C119 1.268 . S
O129 Sc110 2.105 . S
O129 C115 1.268 . S
O130 Sc112 2.105 . S
O130 C114 1.268 . S
O131 Sc111 2.105 . S
O131 C116 1.268 . S
Sc132 O135 2.025 . S
Sc132 O142 2.105 . S
Sc132 O145 2.105 . S
Sc132 O148 2.105 . S
Sc132 O151 2.105 . S
Sc133 O135 2.025 . S
Sc133 O143 2.105 . S
Sc133 O147 2.105 . S
Sc133 O149 2.105 . S
Sc133 O153 2.105 . S
Sc134 O135 2.025 . S
Sc134 O144 2.105 . S
Sc134 O146 2.105 . S
Sc134 O150 2.105 . S
Sc134 O152 2.105 . S
O135 Sc132 2.025 . S
O135 Sc133 2.025 . S
O135 Sc134 2.025 . S
C136 O142 1.268 . S
C136 O152 1.268 . S
C137 O143 1.268 . S
C137 O151 1.268 . S
C138 O144 1.268 . S
C138 O153 1.268 . S
C139 O145 1.268 . S
C139 O149 1.268 . S
C140 O146 1.268 . S
C140 O148 1.268 . S
C141 O147 1.268 . S
C141 O150 1.268 . S
O142 Sc132 2.105 . S
O142 C136 1.268 . S
O143 Sc133 2.105 . S
O143 C137 1.268 . S
O144 Sc134 2.105 . S
O144 C138 1.268 . S
O145 Sc132 2.105 . S
O145 C139 1.268 . S
O146 Sc134 2.105 . S
O146 C140 1.268 . S
O147 Sc133 2.105 . S
O147 C141 1.268 . S
O148 Sc132 2.105 . S
O148 C140 1.268 . S
O149 Sc133 2.105 . S
O149 C139 1.268 . S
O150 Sc134 2.105 . S
O150 C141 1.268 . S
O151 Sc132 2.105 . S
O151 C137 1.268 . S
O152 Sc134 2.105 . S
O152 C136 1.268 . S
O153 Sc133 2.105 . S
O153 C138 1.268 . S
Sc154 O157 2.025 . S
Sc154 O164 2.105 . S
Sc154 O167 2.105 1_455 S
Sc154 O170 2.105 . S
Sc154 O173 2.105 . S
Sc155 O157 2.025 . S
Sc155 O165 2.105 . S
Sc155 O169 2.105 . S
Sc155 O171 2.105 . S
Sc155 O175 2.105 . S
Sc156 O157 2.025 . S
Sc156 O166 2.105 . S
Sc156 O168 2.105 . S
Sc156 O172 2.105 . S
Sc156 O174 2.105 . S
O157 Sc154 2.025 . S
O157 Sc155 2.025 . S
O157 Sc156 2.025 . S
C158 O164 1.268 . S
C158 O174 1.268 . S
C159 O165 1.268 . S
C159 O173 1.268 . S
C160 O166 1.268 . S
C160 O175 1.268 . S
C161 O167 1.268 . S
C161 O171 1.268 1_655 S
C162 O168 1.268 . S
C162 O170 1.268 . S
C163 O169 1.268 . S
C163 O172 1.268 . S
O164 Sc154 2.105 . S
O164 C158 1.268 . S
O165 Sc155 2.105 . S
O165 C159 1.268 . S
O166 Sc156 2.105 . S
O166 C160 1.268 . S
O167 Sc154 2.105 1_655 S
O167 C161 1.268 . S
O168 Sc156 2.105 . S
O168 C162 1.268 . S
O169 Sc155 2.105 . S
O169 C163 1.268 . S
O170 Sc154 2.105 . S
O170 C162 1.268 . S
O171 Sc155 2.105 . S
O171 C161 1.268 1_455 S
O172 Sc156 2.105 . S
O172 C163 1.268 . S
O173 Sc154 2.105 . S
O173 C159 1.268 . S
O174 Sc156 2.105 . S
O174 C158 1.268 . S
O175 Sc155 2.105 . S
O175 C160 1.268 . S
Sc176 O179 2.025 . S
Sc176 O186 2.105 . S
Sc176 O189 2.105 . S
Sc176 O192 2.105 . S
Sc176 O195 2.105 . S
Sc177 O179 2.025 . S
Sc177 O187 2.105 . S
Sc177 O191 2.105 . S
Sc177 O193 2.105 . S
Sc177 O197 2.105 . S
Sc178 O179 2.025 . S
Sc178 O188 2.105 . S
Sc178 O190 2.105 . S
Sc178 O194 2.105 . S
Sc178 O196 2.105 . S
O179 Sc176 2.025 . S
O179 Sc177 2.025 . S
O179 Sc178 2.025 . S
C180 O186 1.268 . S
C180 O196 1.268 . S
C181 O187 1.268 . S
C181 O195 1.268 . S
C182 O188 1.268 . S
C182 O197 1.268 . S
C183 O189 1.268 . S
C183 O193 1.268 . S
C184 O190 1.268 . S
C184 O192 1.268 . S
C185 O191 1.268 . S
C185 O194 1.268 . S
O186 Sc176 2.105 . S
O186 C180 1.268 . S
O187 Sc177 2.105 . S
O187 C181 1.268 . S
O188 Sc178 2.105 . S
O188 C182 1.268 . S
O189 Sc176 2.105 . S
O189 C183 1.268 . S
O190 Sc178 2.105 . S
O190 C184 1.268 . S
O191 Sc177 2.105 . S
O191 C185 1.268 . S
O192 Sc176 2.105 . S
O192 C184 1.268 . S
O193 Sc177 2.105 . S
O193 C183 1.268 . S
O194 Sc178 2.105 . S
O194 C185 1.268 . S
O195 Sc176 2.105 . S
O195 C181 1.268 . S
O196 Sc178 2.105 . S
O196 C180 1.268 . S
O197 Sc177 2.105 . S
O197 C182 1.268 . S
Sc198 O201 2.025 . S
Sc198 O208 2.105 . S
Sc198 O211 2.105 . S
Sc198 O214 2.105 . S
Sc198 O217 2.105 1_455 S
Sc199 O201 2.025 . S
Sc199 O209 2.105 . S
Sc199 O213 2.105 1_545 S
Sc199 O215 2.105 1_545 S
Sc199 O219 2.105 . S
Sc200 O201 2.025 . S
Sc200 O210 2.105 . S
Sc200 O212 2.105 . S
Sc200 O216 2.105 . S
Sc200 O218 2.105 . S
O201 Sc198 2.025 . S
O201 Sc199 2.025 . S
O201 Sc200 2.025 . S
C202 O208 1.268 . S
C202 O218 1.268 . S
C203 O209 1.268 1_655 S
C203 O217 1.268 . S
C204 O210 1.268 . S
C204 O219 1.268 . S
C205 O211 1.268 . S
C205 O215 1.268 1_545 S
C206 O212 1.268 . S
C206 O214 1.268 . S
C207 O213 1.268 1_545 S
C207 O216 1.268 . S
O208 Sc198 2.105 . S
O208 C202 1.268 . S
O209 Sc199 2.105 . S
O209 C203 1.268 1_455 S
O210 Sc200 2.105 . S
O210 C204 1.268 . S
O211 Sc198 2.105 . S
O211 C205 1.268 . S
O212 Sc200 2.105 . S
O212 C206 1.268 . S
O213 Sc199 2.105 1_565 S
O213 C207 1.268 1_565 S
O214 Sc198 2.105 . S
O214 C206 1.268 . S
O215 Sc199 2.105 1_565 S
O215 C205 1.268 1_565 S
O216 Sc200 2.105 . S
O216 C207 1.268 . S
O217 Sc198 2.105 1_655 S
O217 C203 1.268 . S
O218 Sc200 2.105 . S
O218 C202 1.268 . S
O219 Sc199 2.105 . S
O219 C204 1.268 . S
Sc220 O223 2.025 . S
Sc220 O230 2.105 . S
Sc220 O233 2.105 . S
Sc220 O236 2.105 . S
Sc220 O239 2.105 . S
Sc221 O223 2.025 . S
Sc221 O231 2.105 . S
Sc221 O235 2.105 . S
Sc221 O237 2.105 . S
Sc221 O241 2.105 . S
Sc222 O223 2.025 . S
Sc222 O232 2.105 . S
Sc222 O234 2.105 . S
Sc222 O238 2.105 . S
Sc222 O240 2.105 . S
O223 Sc220 2.025 . S
O223 Sc221 2.025 . S
O223 Sc222 2.025 . S
C224 O230 1.268 . S
C224 O240 1.268 . S
C225 O231 1.268 . S
C225 O239 1.268 . S
C226 O232 1.268 . S
C226 O241 1.268 . S
C227 O233 1.268 . S
C227 O237 1.268 . S
C228 O234 1.268 . S
C228 O236 1.268 . S
C229 O235 1.268 . S
C229 O238 1.268 . S
O230 Sc220 2.105 . S
O230 C224 1.268 . S
O231 Sc221 2.105 . S
O231 C225 1.268 . S
O232 Sc222 2.105 . S
O232 C226 1.268 . S
O233 Sc220 2.105 . S
O233 C227 1.268 . S
O234 Sc222 2.105 . S
O234 C228 1.268 . S
O235 Sc221 2.105 . S
O235 C229 1.268 . S
O236 Sc220 2.105 . S
O236 C228 1.268 . S
O237 Sc221 2.105 . S
O237 C227 1.268 . S
O238 Sc222 2.105 . S
O238 C229 1.268 . S
O239 Sc220 2.105 . S
O239 C225 1.268 . S
O240 Sc222 2.105 . S
O240 C224 1.268 . S
O241 Sc221 2.105 . S
O241 C226 1.268 . S
Sc242 O245 2.025 . S
Sc242 O252 2.105 . S
Sc242 O255 2.105 . S
Sc242 O258 2.105 . S
Sc242 O261 2.105 . S
Sc243 O245 2.025 . S
Sc243 O253 2.105 1_565 S
Sc243 O257 2.105 . S
Sc243 O259 2.105 . S
Sc243 O263 2.105 1_565 S
Sc244 O245 2.025 . S
Sc244 O254 2.105 . S
Sc244 O256 2.105 . S
Sc244 O260 2.105 . S
Sc244 O262 2.105 . S
O245 Sc242 2.025 . S
O245 Sc243 2.025 . S
O245 Sc244 2.025 . S
C246 O252 1.268 . S
C246 O262 1.268 . S
C247 O253 1.268 1_565 S
C247 O261 1.268 . S
C248 O254 1.268 . S
C248 O263 1.268 1_565 S
C249 O255 1.268 . S
C249 O259 1.268 . S
C250 O256 1.268 . S
C250 O258 1.268 . S
C251 O257 1.268 . S
C251 O260 1.268 . S
O252 Sc242 2.105 . S
O252 C246 1.268 . S
O253 Sc243 2.105 1_545 S
O253 C247 1.268 1_545 S
O254 Sc244 2.105 . S
O254 C248 1.268 . S
O255 Sc242 2.105 . S
O255 C249 1.268 . S
O256 Sc244 2.105 . S
O256 C250 1.268 . S
O257 Sc243 2.105 . S
O257 C251 1.268 . S
O258 Sc242 2.105 . S
O258 C250 1.268 . S
O259 Sc243 2.105 . S
O259 C249 1.268 . S
O260 Sc244 2.105 . S
O260 C251 1.268 . S
O261 Sc242 2.105 . S
O261 C247 1.268 . S
O262 Sc244 2.105 . S
O262 C246 1.268 . S
O263 Sc243 2.105 1_545 S
O263 C248 1.268 1_545 S
Sc264 O267 2.025 . S
Sc264 O274 2.105 . S
Sc264 O277 2.105 . S
Sc264 O280 2.105 . S
Sc264 O283 2.105 . S
Sc265 O267 2.025 . S
Sc265 O275 2.105 . S
Sc265 O279 2.105 . S
Sc265 O281 2.105 . S
Sc265 O285 2.105 . S
Sc266 O267 2.025 . S
Sc266 O276 2.105 . S
Sc266 O278 2.105 . S
Sc266 O282 2.105 . S
Sc266 O284 2.105 . S
O267 Sc264 2.025 . S
O267 Sc265 2.025 . S
O267 Sc266 2.025 . S
C268 O274 1.268 . S
C268 O284 1.268 . S
C269 O275 1.268 . S
C269 O283 1.268 . S
C270 O276 1.268 . S
C270 O285 1.268 . S
C271 O277 1.268 . S
C271 O281 1.268 . S
C272 O278 1.268 . S
C272 O280 1.268 . S
C273 O279 1.268 . S
C273 O282 1.268 . S
O274 Sc264 2.105 . S
O274 C268 1.268 . S
O275 Sc265 2.105 . S
O275 C269 1.268 . S
O276 Sc266 2.105 . S
O276 C270 1.268 . S
O277 Sc264 2.105 . S
O277 C271 1.268 . S
O278 Sc266 2.105 . S
O278 C272 1.268 . S
O279 Sc265 2.105 . S
O279 C273 1.268 . S
O280 Sc264 2.105 . S
O280 C272 1.268 . S
O281 Sc265 2.105 . S
O281 C271 1.268 . S
O282 Sc266 2.105 . S
O282 C273 1.268 . S
O283 Sc264 2.105 . S
O283 C269 1.268 . S
O284 Sc266 2.105 . S
O284 C268 1.268 . S
O285 Sc265 2.105 . S
O285 C270 1.268 . S
Sc286 O289 2.025 . S
Sc286 O296 2.105 . S
Sc286 O299 2.105 . S
Sc286 O302 2.105 . S
Sc286 O305 2.105 . S
Sc287 O289 2.025 . S
Sc287 O297 2.105 . S
Sc287 O301 2.105 1_565 S
Sc287 O303 2.105 1_565 S
Sc287 O307 2.105 . S
Sc288 O289 2.025 . S
Sc288 O298 2.105 1_655 S
Sc288 O300 2.105 . S
Sc288 O304 2.105 . S
Sc288 O306 2.105 . S
O289 Sc286 2.025 . S
O289 Sc287 2.025 . S
O289 Sc288 2.025 . S
C290 O296 1.268 . S
C290 O306 1.268 . S
C291 O297 1.268 . S
C291 O305 1.268 . S
C292 O298 1.268 . S
C292 O307 1.268 1_455 S
C293 O299 1.268 . S
C293 O303 1.268 1_565 S
C294 O300 1.268 . S
C294 O302 1.268 . S
C295 O301 1.268 1_565 S
C295 O304 1.268 . S
O296 Sc286 2.105 . S
O296 C290 1.268 . S
O297 Sc287 2.105 . S
O297 C291 1.268 . S
O298 Sc288 2.105 1_455 S
O298 C292 1.268 . S
O299 Sc286 2.105 . S
O299 C293 1.268 . S
O300 Sc288 2.105 . S
O300 C294 1.268 . S
O301 Sc287 2.105 1_545 S
O301 C295 1.268 1_545 S
O302 Sc286 2.105 . S
O302 C294 1.268 . S
O303 Sc287 2.105 1_545 S
O303 C293 1.268 1_545 S
O304 Sc288 2.105 . S
O304 C295 1.268 . S
O305 Sc286 2.105 . S
O305 C291 1.268 . S
O306 Sc288 2.105 . S
O306 C290 1.268 . S
O307 Sc287 2.105 . S
O307 C292 1.268 1_655 S
Sc308 O311 2.025 . S
Sc308 O318 2.105 . S
Sc308 O321 2.105 . S
Sc308 O324 2.105 . S
Sc308 O327 2.105 . S
Sc309 O311 2.025 . S
Sc309 O319 2.105 . S
Sc309 O323 2.105 . S
Sc309 O325 2.105 . S
Sc309 O329 2.105 . S
Sc310 O311 2.025 . S
Sc310 O320 2.105 . S
Sc310 O322 2.105 . S
Sc310 O326 2.105 . S
Sc310 O328 2.105 . S
O311 Sc308 2.025 . S
O311 Sc309 2.025 . S
O311 Sc310 2.025 . S
C312 O318 1.268 . S
C312 O328 1.268 . S
C313 O319 1.268 . S
C313 O327 1.268 . S
C314 O320 1.268 . S
C314 O329 1.268 . S
C315 O321 1.268 . S
C315 O325 1.268 . S
C316 O322 1.268 . S
C316 O324 1.268 . S
C317 O323 1.268 . S
C317 O326 1.268 . S
O318 Sc308 2.105 . S
O318 C312 1.268 . S
O319 Sc309 2.105 . S
O319 C313 1.268 . S
O320 Sc310 2.105 . S
O320 C314 1.268 . S
O321 Sc308 2.105 . S
O321 C315 1.268 . S
O322 Sc310 2.105 . S
O322 C316 1.268 . S
O323 Sc309 2.105 . S
O323 C317 1.268 . S
O324 Sc308 2.105 . S
O324 C316 1.268 . S
O325 Sc309 2.105 . S
O325 C315 1.268 . S
O326 Sc310 2.105 . S
O326 C317 1.268 . S
O327 Sc308 2.105 . S
O327 C313 1.268 . S
O328 Sc310 2.105 . S
O328 C312 1.268 . S
O329 Sc309 2.105 . S
O329 C314 1.268 . S
Sc330 O333 2.025 . S
Sc330 O340 2.105 . S
Sc330 O343 2.105 . S
Sc330 O346 2.105 . S
Sc330 O349 2.105 . S
Sc331 O333 2.025 . S
Sc331 O341 2.105 1_545 S
Sc331 O345 2.105 . S
Sc331 O347 2.105 . S
Sc331 O351 2.105 1_545 S
Sc332 O333 2.025 . S
Sc332 O342 2.105 . S
Sc332 O344 2.105 . S
Sc332 O348 2.105 . S
Sc332 O350 2.105 . S
O333 Sc330 2.025 . S
O333 Sc331 2.025 . S
O333 Sc332 2.025 . S
C334 O340 1.268 . S
C334 O350 1.268 . S
C335 O341 1.268 1_545 S
C335 O349 1.268 . S
C336 O342 1.268 . S
C336 O351 1.268 1_545 S
C337 O343 1.268 . S
C337 O347 1.268 . S
C338 O344 1.268 . S
C338 O346 1.268 . S
C339 O345 1.268 . S
C339 O348 1.268 . S
O340 Sc330 2.105 . S
O340 C334 1.268 . S
O341 Sc331 2.105 1_565 S
O341 C335 1.268 1_565 S
O342 Sc332 2.105 . S
O342 C336 1.268 . S
O343 Sc330 2.105 . S
O343 C337 1.268 . S
O344 Sc332 2.105 . S
O344 C338 1.268 . S
O345 Sc331 2.105 . S
O345 C339 1.268 . S
O346 Sc330 2.105 . S
O346 C338 1.268 . S
O347 Sc331 2.105 . S
O347 C337 1.268 . S
O348 Sc332 2.105 . S
O348 C339 1.268 . S
O349 Sc330 2.105 . S
O349 C335 1.268 . S
O350 Sc332 2.105 . S
O350 C334 1.268 . S
O351 Sc331 2.105 1_565 S
O351 C336 1.268 1_565 S
H352 C358 0.930 . S
H353 C361 0.930 . S
H354 C362 0.930 . S
H355 C363 0.930 . S
H356 C366 0.930 . S
H357 C367 0.930 . S
C358 H352 0.930 . S
C358 C359 1.355 . S
C358 C360 1.415 . S
C359 C358 1.355 . S
C359 C361 1.419 . S
C360 C358 1.415 . S
C360 C365 1.425 . S
C360 C367 1.409 . S
C361 H353 0.930 . S
C361 C359 1.419 . S
C361 C362 1.362 . S
C362 H354 0.930 . S
C362 C361 1.362 . S
C362 C365 1.409 . S
C363 H355 0.930 . S
C363 C364 1.355 . S
C363 C365 1.415 . S
C364 C363 1.355 . S
C364 C366 1.419 . S
C365 C360 1.425 . S
C365 C362 1.409 . S
C365 C363 1.415 . S
C366 H356 0.930 . S
C366 C364 1.419 . S
C366 C367 1.362 . S
C367 H357 0.930 . S
C367 C360 1.409 . S
C367 C366 1.362 . S
H368 C374 0.930 . S
H369 C377 0.930 . S
H370 C378 0.930 . S
H371 C379 0.930 . S
H372 C382 0.930 . S
H373 C383 0.930 . S
C374 H368 0.930 . S
C374 C375 1.355 . S
C374 C376 1.415 . S
C375 C374 1.355 . S
C375 C377 1.419 . S
C376 C374 1.415 . S
C376 C381 1.425 . S
C376 C383 1.409 . S
C377 H369 0.930 . S
C377 C375 1.419 . S
C377 C378 1.362 . S
C378 H370 0.930 . S
C378 C377 1.362 . S
C378 C381 1.409 . S
C379 H371 0.930 . S
C379 C380 1.355 . S
C379 C381 1.415 . S
C380 C379 1.355 . S
C380 C382 1.419 . S
C381 C376 1.425 . S
C381 C378 1.409 . S
C381 C379 1.415 . S
C382 H372 0.930 . S
C382 C380 1.419 . S
C382 C383 1.362 . S
C383 H373 0.930 . S
C383 C376 1.409 . S
C383 C382 1.362 . S
H384 C390 0.930 . S
H385 C393 0.930 . S
H386 C394 0.930 . S
H387 C395 0.930 . S
H388 C398 0.930 . S
H389 C399 0.930 . S
C390 H384 0.930 . S
C390 C391 1.355 . S
C390 C392 1.415 . S
C391 C390 1.355 . S
C391 C393 1.419 . S
C392 C390 1.415 . S
C392 C397 1.425 . S
C392 C399 1.409 . S
C393 H385 0.930 . S
C393 C391 1.419 . S
C393 C394 1.362 . S
C394 H386 0.930 . S
C394 C393 1.362 . S
C394 C397 1.409 . S
C395 H387 0.930 . S
C395 C396 1.355 . S
C395 C397 1.415 . S
C396 C395 1.355 . S
C396 C398 1.419 . S
C397 C392 1.425 . S
C397 C394 1.409 . S
C397 C395 1.415 . S
C398 H388 0.930 . S
C398 C396 1.419 . S
C398 C399 1.362 . S
C399 H389 0.930 . S
C399 C392 1.409 . S
C399 C398 1.362 . S
H400 C406 0.930 . S
H401 C409 0.930 . S
H402 C410 0.908 1_554 S
H403 C411 0.930 . S
H404 C414 0.930 . S
H405 C415 0.908 1_556 S
C406 H400 0.930 . S
C406 C407 1.355 . S
C406 C408 1.415 1_655 S
C407 C406 1.355 . S
C407 C409 1.419 . S
C408 C406 1.415 1_455 S
C408 C413 1.425 1_456 S
C408 C415 1.396 1_556 S
C409 H401 0.930 . S
C409 C407 1.419 . S
C409 C410 1.398 . S
C410 H402 0.908 1_556 S
C410 C409 1.398 . S
C410 C413 1.396 1_556 S
C411 H403 0.930 . S
C411 C412 1.355 . S
C411 C413 1.415 1_455 S
C412 C411 1.355 . S
C412 C414 1.419 . S
C413 C408 1.425 1_654 S
C413 C410 1.396 1_554 S
C413 C411 1.415 1_655 S
C414 H404 0.930 . S
C414 C412 1.419 . S
C414 C415 1.398 . S
C415 H405 0.908 1_554 S
C415 C408 1.396 1_554 S
C415 C414 1.398 . S
H416 C422 0.930 . S
H417 C425 0.930 . S
H418 C426 0.930 . S
H419 C427 0.930 . S
H420 C430 0.930 . S
H421 C431 0.930 . S
C422 H416 0.930 . S
C422 C423 1.355 . S
C422 C424 1.415 . S
C423 C422 1.355 . S
C423 C425 1.419 . S
C424 C422 1.415 . S
C424 C429 1.425 . S
C424 C431 1.409 . S
C425 H417 0.930 . S
C425 C423 1.419 . S
C425 C426 1.362 . S
C426 H418 0.930 . S
C426 C425 1.362 . S
C426 C429 1.409 . S
C427 H419 0.930 . S
C427 C428 1.355 . S
C427 C429 1.415 . S
C428 C427 1.355 . S
C428 C430 1.419 . S
C429 C424 1.425 . S
C429 C426 1.409 . S
C429 C427 1.415 . S
C430 H420 0.930 . S
C430 C428 1.419 . S
C430 C431 1.362 . S
C431 H421 0.930 . S
C431 C424 1.409 . S
C431 C430 1.362 . S
H432 C438 0.930 . S
H433 C441 0.930 . S
H434 C442 0.930 . S
H435 C443 0.930 . S
H436 C446 0.930 . S
H437 C447 0.930 . S
C438 H432 0.930 . S
C438 C439 1.355 . S
C438 C440 1.415 . S
C439 C438 1.355 . S
C439 C441 1.419 . S
C440 C438 1.415 . S
C440 C445 1.425 . S
C440 C447 1.409 . S
C441 H433 0.930 . S
C441 C439 1.419 . S
C441 C442 1.362 . S
C442 H434 0.930 . S
C442 C441 1.362 . S
C442 C445 1.409 . S
C443 H435 0.930 . S
C443 C444 1.355 . S
C443 C445 1.415 . S
C444 C443 1.355 . S
C444 C446 1.419 . S
C445 C440 1.425 . S
C445 C442 1.409 . S
C445 C443 1.415 . S
C446 H436 0.930 . S
C446 C444 1.419 . S
C446 C447 1.362 . S
C447 H437 0.930 . S
C447 C440 1.409 . S
C447 C446 1.362 . S
H448 C454 0.930 1_455 S
H449 C457 0.930 . S
H450 C458 0.930 . S
H451 C459 0.930 1_655 S
H452 C462 0.930 . S
H453 C463 0.930 . S
C454 H448 0.930 1_655 S
C454 C455 1.355 1_545 S
C454 C456 1.415 1_655 S
C455 C454 1.355 1_565 S
C455 C457 1.419 . S
C456 C454 1.415 1_455 S
C456 C461 1.425 1_444 S
C456 C463 1.409 . S
C457 H449 0.930 . S
C457 C455 1.419 . S
C457 C458 1.362 1_554 S
C458 H450 0.930 . S
C458 C457 1.362 1_556 S
C458 C461 1.409 . S
C459 H451 0.930 1_455 S
C459 C460 1.355 1_565 S
C459 C461 1.415 1_455 S
C460 C459 1.355 1_545 S
C460 C462 1.419 . S
C461 C456 1.425 1_666 S
C461 C458 1.409 . S
C461 C459 1.415 1_655 S
C462 H452 0.930 . S
C462 C460 1.419 . S
C462 C463 1.362 1_556 S
C463 H453 0.930 . S
C463 C456 1.409 . S
C463 C462 1.362 1_554 S
H464 C470 0.930 . S
H465 C473 0.930 . S
H466 C474 0.930 . S
H467 C475 0.930 . S
H468 C478 0.930 . S
H469 C479 0.930 . S
C470 H464 0.930 . S
C470 C471 1.355 . S
C470 C472 1.415 . S
C471 C470 1.355 . S
C471 C473 1.419 1_565 S
C472 C470 1.415 . S
C472 C477 1.425 1_565 S
C472 C479 1.409 . S
C473 H465 0.930 . S
C473 C471 1.419 1_545 S
C473 C474 1.362 . S
C474 H466 0.930 . S
C474 C473 1.362 . S
C474 C477 1.409 . S
C475 H467 0.930 . S
C475 C476 1.355 . S
C475 C477 1.415 . S
C476 C475 1.355 . S
C476 C478 1.419 1_545 S
C477 C472 1.425 1_545 S
C477 C474 1.409 . S
C477 C475 1.415 . S
C478 H468 0.930 . S
C478 C476 1.419 1_565 S
C478 C479 1.362 . S
C479 H469 0.930 . S
C479 C472 1.409 . S
C479 C478 1.362 . S
H480 C486 0.930 . S
H481 C489 0.930 . S
H482 C490 0.930 1_554 S
H483 C491 0.930 . S
H484 C494 0.930 . S
H485 C495 0.930 . S
C486 H480 0.930 . S
C486 C487 1.355 . S
C486 C488 1.415 . S
C487 C486 1.355 . S
C487 C489 1.419 . S
C488 C486 1.415 . S
C488 C493 1.425 1_556 S
C488 C495 1.409 . S
C489 H481 0.930 . S
C489 C487 1.419 . S
C489 C490 1.362 . S
C490 H482 0.930 1_556 S
C490 C489 1.362 . S
C490 C493 1.409 1_556 S
C491 H483 0.930 . S
C491 C492 1.355 . S
C491 C493 1.415 . S
C492 C491 1.355 . S
C492 C494 1.419 . S
C493 C488 1.425 1_554 S
C493 C490 1.409 1_554 S
C493 C491 1.415 . S
C494 H484 0.930 . S
C494 C492 1.419 . S
C494 C495 1.362 1_554 S
C495 H485 0.930 . S
C495 C488 1.409 . S
C495 C494 1.362 1_556 S
H496 C502 0.930 . S
H497 C505 0.930 . S
H498 C506 0.930 . S
H499 C507 0.930 . S
H500 C510 0.930 . S
H501 C511 0.930 . S
C502 H496 0.930 . S
C502 C503 1.355 . S
C502 C504 1.415 . S
C503 C502 1.355 . S
C503 C505 1.419 . S
C504 C502 1.415 . S
C504 C509 1.425 . S
C504 C511 1.409 . S
C505 H497 0.930 . S
C505 C503 1.419 . S
C505 C506 1.362 . S
C506 H498 0.930 . S
C506 C505 1.362 . S
C506 C509 1.409 . S
C507 H499 0.930 . S
C507 C508 1.355 . S
C507 C509 1.415 . S
C508 C507 1.355 . S
C508 C510 1.419 . S
C509 C504 1.425 . S
C509 C506 1.409 . S
C509 C507 1.415 . S
C510 H500 0.930 . S
C510 C508 1.419 . S
C510 C511 1.362 . S
C511 H501 0.930 . S
C511 C504 1.409 . S
C511 C510 1.362 . S
H512 C518 0.930 . S
H513 C521 0.930 . S
H514 C522 0.930 . S
H515 C523 0.930 . S
H516 C526 0.930 . S
H517 C527 0.930 . S
C518 H512 0.930 . S
C518 C519 1.355 . S
C518 C520 1.415 . S
C519 C518 1.355 . S
C519 C521 1.419 . S
C520 C518 1.415 . S
C520 C525 1.425 . S
C520 C527 1.409 . S
C521 H513 0.930 . S
C521 C519 1.419 . S
C521 C522 1.362 . S
C522 H514 0.930 . S
C522 C521 1.362 . S
C522 C525 1.409 . S
C523 H515 0.930 . S
C523 C524 1.355 . S
C523 C525 1.415 . S
C524 C523 1.355 . S
C524 C526 1.419 . S
C525 C520 1.425 . S
C525 C522 1.409 . S
C525 C523 1.415 . S
C526 H516 0.930 . S
C526 C524 1.419 . S
C526 C527 1.362 . S
C527 H517 0.930 . S
C527 C520 1.409 . S
C527 C526 1.362 . S
H528 C534 0.930 . S
H529 C537 0.930 . S
H530 C538 0.930 . S
H531 C539 0.930 . S
H532 C542 0.930 . S
H533 C543 0.930 . S
C534 H528 0.930 . S
C534 C535 1.355 . S
C534 C536 1.415 . S
C535 C534 1.355 . S
C535 C537 1.419 . S
C536 C534 1.415 . S
C536 C541 1.425 . S
C536 C543 1.409 . S
C537 H529 0.930 . S
C537 C535 1.419 . S
C537 C538 1.362 . S
C538 H530 0.930 . S
C538 C537 1.362 . S
C538 C541 1.409 . S
C539 H531 0.930 . S
C539 C540 1.355 . S
C539 C541 1.415 . S
C540 C539 1.355 . S
C540 C542 1.419 . S
C541 C536 1.425 . S
C541 C538 1.409 . S
C541 C539 1.415 . S
C542 H532 0.930 . S
C542 C540 1.419 . S
C542 C543 1.362 . S
C543 H533 0.930 . S
C543 C536 1.409 . S
C543 C542 1.362 . S
H544 C550 0.930 . S
H545 C553 0.930 . S
H546 C554 0.930 . S
H547 C555 0.930 . S
H548 C558 0.930 . S
H549 C559 0.930 . S
C550 H544 0.930 . S
C550 C551 1.355 . S
C550 C552 1.415 . S
C551 C550 1.355 . S
C551 C553 1.419 . S
C552 C550 1.415 . S
C552 C557 1.425 . S
C552 C559 1.409 1_554 S
C553 H545 0.930 . S
C553 C551 1.419 . S
C553 C554 1.362 . S
C554 H546 0.930 . S
C554 C553 1.362 . S
C554 C557 1.409 . S
C555 H547 0.930 . S
C555 C556 1.355 . S
C555 C557 1.415 1_556 S
C556 C555 1.355 . S
C556 C558 1.419 . S
C557 C552 1.425 . S
C557 C554 1.409 . S
C557 C555 1.415 1_554 S
C558 H548 0.930 . S
C558 C556 1.419 . S
C558 C559 1.362 . S
C559 H549 0.930 . S
C559 C552 1.409 1_556 S
C559 C558 1.362 . S
H560 C566 0.930 . S
H561 C569 0.930 . S
H562 C570 0.930 . S
H563 C571 0.930 . S
H564 C574 0.930 . S
H565 C575 0.930 . S
C566 H560 0.930 . S
C566 C567 1.355 . S
C566 C568 1.415 . S
C567 C566 1.355 . S
C567 C569 1.419 . S
C568 C566 1.415 . S
C568 C573 1.425 . S
C568 C575 1.409 . S
C569 H561 0.930 . S
C569 C567 1.419 . S
C569 C570 1.362 . S
C570 H562 0.930 . S
C570 C569 1.362 . S
C570 C573 1.409 . S
C571 H563 0.930 . S
C571 C572 1.355 . S
C571 C573 1.415 . S
C572 C571 1.355 . S
C572 C574 1.419 . S
C573 C568 1.425 . S
C573 C570 1.409 . S
C573 C571 1.415 . S
C574 H564 0.930 . S
C574 C572 1.419 . S
C574 C575 1.362 . S
C575 H565 0.930 . S
C575 C568 1.409 . S
C575 C574 1.362 . S
H576 C582 0.930 . S
H577 C585 0.930 . S
H578 C586 0.930 . S
H579 C587 0.930 . S
H580 C590 0.930 . S
H581 C591 0.930 . S
C582 H576 0.930 . S
C582 C583 1.355 . S
C582 C584 1.415 . S
C583 C582 1.355 . S
C583 C585 1.419 . S
C584 C582 1.415 . S
C584 C589 1.425 . S
C584 C591 1.409 . S
C585 H577 0.930 . S
C585 C583 1.419 . S
C585 C586 1.362 . S
C586 H578 0.930 . S
C586 C585 1.362 . S
C586 C589 1.409 . S
C587 H579 0.930 . S
C587 C588 1.355 . S
C587 C589 1.415 . S
C588 C587 1.355 . S
C588 C590 1.419 . S
C589 C584 1.425 . S
C589 C586 1.409 . S
C589 C587 1.415 . S
C590 H580 0.930 . S
C590 C588 1.419 . S
C590 C591 1.362 . S
C591 H581 0.930 . S
C591 C584 1.409 . S
C591 C590 1.362 . S
H592 C598 0.930 . S
H593 C601 0.930 . S
H594 C602 0.930 . S
H595 C603 0.930 . S
H596 C606 0.930 . S
H597 C607 0.930 . S
C598 H592 0.930 . S
C598 C599 1.355 . S
C598 C600 1.415 . S
C599 C598 1.355 . S
C599 C601 1.419 . S
C600 C598 1.415 . S
C600 C605 1.425 . S
C600 C607 1.409 . S
C601 H593 0.930 . S
C601 C599 1.419 . S
C601 C602 1.362 . S
C602 H594 0.930 . S
C602 C601 1.362 . S
C602 C605 1.409 . S
C603 H595 0.930 . S
C603 C604 1.355 . S
C603 C605 1.415 . S
C604 C603 1.355 . S
C604 C606 1.419 . S
C605 C600 1.425 . S
C605 C602 1.409 . S
C605 C603 1.415 . S
C606 H596 0.930 . S
C606 C604 1.419 . S
C606 C607 1.362 . S
C607 H597 0.930 . S
C607 C600 1.409 . S
C607 C606 1.362 . S
H608 C614 0.930 . S
H609 C617 0.930 . S
H610 C618 0.930 . S
H611 C619 0.930 . S
H612 C622 0.930 . S
H613 C623 0.930 . S
C614 H608 0.930 . S
C614 C615 1.355 . S
C614 C616 1.415 . S
C615 C614 1.355 . S
C615 C617 1.419 . S
C616 C614 1.415 . S
C616 C621 1.425 . S
C616 C623 1.409 . S
C617 H609 0.930 . S
C617 C615 1.419 . S
C617 C618 1.362 . S
C618 H610 0.930 . S
C618 C617 1.362 . S
C618 C621 1.409 . S
C619 H611 0.930 . S
C619 C620 1.355 . S
C619 C621 1.415 . S
C620 C619 1.355 . S
C620 C622 1.419 . S
C621 C616 1.425 . S
C621 C618 1.409 . S
C621 C619 1.415 . S
C622 H612 0.930 . S
C622 C620 1.419 . S
C622 C623 1.362 . S
C623 H613 0.930 . S
C623 C616 1.409 . S
C623 C622 1.362 . S
H624 C630 0.930 . S
H625 C633 0.930 . S
H626 C634 0.930 . S
H627 C635 0.930 . S
H628 C638 0.930 . S
H629 C639 0.930 . S
C630 H624 0.930 . S
C630 C631 1.355 1_565 S
C630 C632 1.415 . S
C631 C630 1.355 1_545 S
C631 C633 1.419 . S
C632 C630 1.415 . S
C632 C637 1.425 . S
C632 C639 1.409 . S
C633 H625 0.930 . S
C633 C631 1.419 . S
C633 C634 1.362 . S
C634 H626 0.930 . S
C634 C633 1.362 . S
C634 C637 1.409 1_545 S
C635 H627 0.930 . S
C635 C636 1.355 . S
C635 C637 1.415 . S
C636 C635 1.355 . S
C636 C638 1.419 . S
C637 C632 1.425 . S
C637 C634 1.409 1_565 S
C637 C635 1.415 . S
C638 H628 0.930 . S
C638 C636 1.419 . S
C638 C639 1.362 . S
C639 H629 0.930 . S
C639 C632 1.409 . S
C639 C638 1.362 . S
H640 C646 0.930 . S
H641 C649 0.930 . S
H642 C650 0.930 . S
H643 C651 0.930 . S
H644 C654 0.930 . S
H645 C655 0.930 1_554 S
C646 H640 0.930 . S
C646 C647 1.355 . S
C646 C648 1.415 . S
C647 C646 1.355 . S
C647 C649 1.419 . S
C648 C646 1.415 . S
C648 C653 1.425 1_554 S
C648 C655 1.409 1_554 S
C649 H641 0.930 . S
C649 C647 1.419 . S
C649 C650 1.362 1_554 S
C650 H642 0.930 . S
C650 C649 1.362 1_556 S
C650 C653 1.409 . S
C651 H643 0.930 . S
C651 C652 1.355 . S
C651 C653 1.415 . S
C652 C651 1.355 . S
C652 C654 1.419 . S
C653 C648 1.425 1_556 S
C653 C650 1.409 . S
C653 C651 1.415 . S
C654 H644 0.930 . S
C654 C652 1.419 . S
C654 C655 1.362 . S
C655 H645 0.930 1_556 S
C655 C648 1.409 1_556 S
C655 C654 1.362 . S
H656 C662 0.930 . S
H657 C665 0.930 . S
H658 C666 0.930 . S
H659 C667 0.930 . S
H660 C670 0.930 . S
H661 C671 0.930 . S
C662 H656 0.930 . S
C662 C663 1.355 . S
C662 C664 1.415 . S
C663 C662 1.355 . S
C663 C665 1.419 . S
C664 C662 1.415 . S
C664 C669 1.425 . S
C664 C671 1.409 . S
C665 H657 0.930 . S
C665 C663 1.419 . S
C665 C666 1.362 . S
C666 H658 0.930 . S
C666 C665 1.362 . S
C666 C669 1.409 . S
C667 H659 0.930 . S
C667 C668 1.355 . S
C667 C669 1.415 1_565 S
C668 C667 1.355 . S
C668 C670 1.419 . S
C669 C664 1.425 . S
C669 C666 1.409 . S
C669 C667 1.415 1_545 S
C670 H660 0.930 . S
C670 C668 1.419 . S
C670 C671 1.362 1_565 S
C671 H661 0.930 . S
C671 C664 1.409 . S
C671 C670 1.362 1_545 S
H672 C678 0.930 . S
H673 C681 0.930 . S
H674 C682 0.930 . S
H675 C683 0.930 . S
H676 C686 0.930 . S
H677 C687 0.930 . S
C678 H672 0.930 . S
C678 C679 1.355 . S
C678 C680 1.415 . S
C679 C678 1.355 . S
C679 C681 1.419 . S
C680 C678 1.415 . S
C680 C685 1.425 . S
C680 C687 1.409 . S
C681 H673 0.930 . S
C681 C679 1.419 . S
C681 C682 1.362 . S
C682 H674 0.930 . S
C682 C681 1.362 . S
C682 C685 1.409 . S
C683 H675 0.930 . S
C683 C684 1.355 . S
C683 C685 1.415 . S
C684 C683 1.355 . S
C684 C686 1.419 . S
C685 C680 1.425 . S
C685 C682 1.409 . S
C685 C683 1.415 . S
C686 H676 0.930 . S
C686 C684 1.419 . S
C686 C687 1.362 . S
C687 H677 0.930 . S
C687 C680 1.409 . S
C687 C686 1.362 . S
H688 C694 0.930 . S
H689 C697 0.930 . S
H690 C698 0.930 . S
H691 C699 0.930 . S
H692 C702 0.930 . S
H693 C703 0.930 . S
C694 H688 0.930 . S
C694 C695 1.355 . S
C694 C696 1.415 1_565 S
C695 C694 1.355 . S
C695 C697 1.419 1_565 S
C696 C694 1.415 1_545 S
C696 C701 1.425 . S
C696 C703 1.409 1_545 S
C697 H689 0.930 . S
C697 C695 1.419 1_545 S
C697 C698 1.362 . S
C698 H690 0.930 . S
C698 C697 1.362 . S
C698 C701 1.409 . S
C699 H691 0.930 . S
C699 C700 1.355 . S
C699 C701 1.415 . S
C700 C699 1.355 . S
C700 C702 1.419 . S
C701 C696 1.425 . S
C701 C698 1.409 . S
C701 C699 1.415 . S
C702 H692 0.930 . S
C702 C700 1.419 . S
C702 C703 1.362 1_545 S
C703 H693 0.930 . S
C703 C696 1.409 1_565 S
C703 C702 1.362 1_565 S
H704 C710 0.930 . S
H705 C713 0.930 . S
H706 C714 0.930 . S
H707 C715 0.930 . S
H708 C718 0.930 . S
H709 C719 0.930 . S
C710 H704 0.930 . S
C710 C711 1.355 . S
C710 C712 1.415 . S
C711 C710 1.355 . S
C711 C713 1.419 . S
C712 C710 1.415 . S
C712 C717 1.425 . S
C712 C719 1.409 1_554 S
C713 H705 0.930 . S
C713 C711 1.419 . S
C713 C714 1.362 . S
C714 H706 0.930 . S
C714 C713 1.362 . S
C714 C717 1.409 . S
C715 H707 0.930 . S
C715 C716 1.355 . S
C715 C717 1.415 1_556 S
C716 C715 1.355 . S
C716 C718 1.419 . S
C717 C712 1.425 . S
C717 C714 1.409 . S
C717 C715 1.415 1_554 S
C718 H708 0.930 . S
C718 C716 1.419 . S
C718 C719 1.362 . S
C719 H709 0.930 . S
C719 C712 1.409 1_556 S
C719 C718 1.362 . S
H720 C726 0.930 . S
H721 C729 0.930 . S
H722 C730 0.930 . S
H723 C731 0.930 . S
H724 C734 0.930 . S
H725 C735 0.929 . S
C726 H720 0.930 . S
C726 C727 1.355 . S
C726 C728 1.415 1_545 S
C727 C726 1.355 . S
C727 C729 1.419 1_545 S
C728 C726 1.415 1_565 S
C728 C733 1.425 . S
C728 C735 1.409 1_565 S
C729 H721 0.930 . S
C729 C727 1.419 1_565 S
C729 C730 1.362 . S
C730 H722 0.930 . S
C730 C729 1.362 . S
C730 C733 1.409 . S
C731 H723 0.930 . S
C731 C732 1.355 . S
C731 C733 1.415 . S
C732 C731 1.355 . S
C732 C734 1.419 . S
C733 C728 1.425 . S
C733 C730 1.409 . S
C733 C731 1.415 . S
C734 H724 0.930 . S
C734 C732 1.419 . S
C734 C735 1.363 1_565 S
C735 H725 0.929 . S
C735 C728 1.409 1_545 S
C735 C734 1.363 1_545 S
H736 C742 0.930 . S
H737 C745 0.930 . S
H738 C746 0.930 . S
H739 C747 0.930 . S
H740 C750 0.930 . S
H741 C751 0.930 . S
C742 H736 0.930 . S
C742 C743 1.355 . S
C742 C744 1.415 . S
C743 C742 1.355 . S
C743 C745 1.419 . S
C744 C742 1.415 . S
C744 C749 1.425 . S
C744 C751 1.409 . S
C745 H737 0.930 . S
C745 C743 1.419 . S
C745 C746 1.362 . S
C746 H738 0.930 . S
C746 C745 1.362 . S
C746 C749 1.409 . S
C747 H739 0.930 . S
C747 C748 1.355 . S
C747 C749 1.415 . S
C748 C747 1.355 . S
C748 C750 1.419 . S
C749 C744 1.425 . S
C749 C746 1.409 . S
C749 C747 1.415 . S
C750 H740 0.930 . S
C750 C748 1.419 . S
C750 C751 1.362 . S
C751 H741 0.930 . S
C751 C744 1.409 . S
C751 C750 1.362 . S
H752 C758 0.930 . S
H753 C761 0.930 . S
H754 C762 0.930 . S
H755 C763 0.930 . S
H756 C766 0.930 . S
H757 C767 0.930 . S
C758 H752 0.930 . S
C758 C759 1.355 . S
C758 C760 1.415 . S
C759 C758 1.355 . S
C759 C761 1.419 . S
C760 C758 1.415 . S
C760 C765 1.425 . S
C760 C767 1.409 . S
C761 H753 0.930 . S
C761 C759 1.419 . S
C761 C762 1.362 . S
C762 H754 0.930 . S
C762 C761 1.362 . S
C762 C765 1.409 . S
C763 H755 0.930 . S
C763 C764 1.355 . S
C763 C765 1.415 . S
C764 C763 1.355 . S
C764 C766 1.419 . S
C765 C760 1.425 . S
C765 C762 1.409 . S
C765 C763 1.415 . S
C766 H756 0.930 . S
C766 C764 1.419 . S
C766 C767 1.362 . S
C767 H757 0.930 . S
C767 C760 1.409 . S
C767 C766 1.362 . S
H768 C774 0.930 . S
H769 C777 0.930 . S
H770 C778 0.930 1_455 S
H771 C779 0.930 . S
H772 C782 0.930 . S
H773 C783 0.930 1_655 S
C774 H768 0.930 . S
C774 C775 1.355 . S
C774 C776 1.415 . S
C775 C774 1.355 . S
C775 C777 1.419 . S
C776 C774 1.415 . S
C776 C781 1.425 1_655 S
C776 C783 1.409 1_655 S
C777 H769 0.930 . S
C777 C775 1.419 . S
C777 C778 1.362 . S
C778 H770 0.930 1_655 S
C778 C777 1.362 . S
C778 C781 1.409 1_655 S
C779 H771 0.930 . S
C779 C780 1.355 . S
C779 C781 1.415 . S
C780 C779 1.355 . S
C780 C782 1.419 . S
C781 C776 1.425 1_455 S
C781 C778 1.409 1_455 S
C781 C779 1.415 . S
C782 H772 0.930 . S
C782 C780 1.419 . S
C782 C783 1.362 . S
C783 H773 0.930 1_455 S
C783 C776 1.409 1_455 S
C783 C782 1.362 . S
H784 C790 0.930 . S
H785 C793 0.930 . S
H786 C794 0.930 . S
H787 C795 0.930 . S
H788 C798 0.930 . S
H789 C799 0.930 . S
C790 H784 0.930 . S
C790 C791 1.355 . S
C790 C792 1.415 1_655 S
C791 C790 1.355 . S
C791 C793 1.419 . S
C792 C790 1.415 1_455 S
C792 C797 1.425 1_455 S
C792 C799 1.409 . S
C793 H785 0.930 . S
C793 C791 1.419 . S
C793 C794 1.362 . S
C794 H786 0.930 . S
C794 C793 1.362 . S
C794 C797 1.409 . S
C795 H787 0.930 . S
C795 C796 1.355 . S
C795 C797 1.415 1_455 S
C796 C795 1.355 . S
C796 C798 1.419 . S
C797 C792 1.425 1_655 S
C797 C794 1.409 . S
C797 C795 1.415 1_655 S
C798 H788 0.930 . S
C798 C796 1.419 . S
C798 C799 1.362 . S
C799 H789 0.930 . S
C799 C792 1.409 . S
C799 C798 1.362 . S
H800 C806 0.930 . S
H801 C809 0.930 . S
H802 C810 0.930 . S
H803 C811 0.930 . S
H804 C814 0.930 . S
H805 C815 0.930 . S
C806 H800 0.930 . S
C806 C807 1.355 . S
C806 C808 1.415 . S
C807 C806 1.355 . S
C807 C809 1.419 . S
C808 C806 1.415 . S
C808 C813 1.425 . S
C808 C815 1.409 . S
C809 H801 0.930 . S
C809 C807 1.419 . S
C809 C810 1.362 . S
C810 H802 0.930 . S
C810 C809 1.362 . S
C810 C813 1.409 . S
C811 H803 0.930 . S
C811 C812 1.355 . S
C811 C813 1.415 . S
C812 C811 1.355 . S
C812 C814 1.419 . S
C813 C808 1.425 . S
C813 C810 1.409 . S
C813 C811 1.415 . S
C814 H804 0.930 . S
C814 C812 1.419 . S
C814 C815 1.362 . S
C815 H805 0.930 . S
C815 C808 1.409 . S
C815 C814 1.362 . S
H816 C822 0.930 . S
H817 C825 0.930 . S
H818 C826 0.930 . S
H819 C827 0.930 . S
H820 C830 0.930 . S
H821 C831 0.930 . S
C822 H816 0.930 . S
C822 C823 1.355 . S
C822 C824 1.415 . S
C823 C822 1.355 . S
C823 C825 1.419 . S
C824 C822 1.415 . S
C824 C829 1.425 . S
C824 C831 1.409 . S
C825 H817 0.930 . S
C825 C823 1.419 . S
C825 C826 1.362 . S
C826 H818 0.930 . S
C826 C825 1.362 . S
C826 C829 1.409 . S
C827 H819 0.930 . S
C827 C828 1.355 . S
C827 C829 1.415 . S
C828 C827 1.355 . S
C828 C830 1.419 . S
C829 C824 1.425 . S
C829 C826 1.409 . S
C829 C827 1.415 . S
C830 H820 0.930 . S
C830 C828 1.419 . S
C830 C831 1.362 . S
C831 H821 0.930 . S
C831 C824 1.409 . S
C831 C830 1.362 . S
H832 C838 0.930 1_655 S
H833 C841 0.930 . S
H834 C842 0.930 . S
H835 C843 0.930 1_455 S
H836 C846 0.930 . S
H837 C847 0.930 . S
C838 H832 0.930 1_455 S
C838 C839 1.355 . S
C838 C840 1.415 1_455 S
C839 C838 1.355 . S
C839 C841 1.419 . S
C840 C838 1.415 1_655 S
C840 C845 1.425 1_655 S
C840 C847 1.409 . S
C841 H833 0.930 . S
C841 C839 1.419 . S
C841 C842 1.362 . S
C842 H834 0.930 . S
C842 C841 1.362 . S
C842 C845 1.409 . S
C843 H835 0.930 1_655 S
C843 C844 1.355 . S
C843 C845 1.415 1_655 S
C844 C843 1.355 . S
C844 C846 1.419 . S
C845 C840 1.425 1_455 S
C845 C842 1.409 . S
C845 C843 1.415 1_455 S
C846 H836 0.930 . S
C846 C844 1.419 . S
C846 C847 1.362 . S
C847 H837 0.930 . S
C847 C840 1.409 . S
C847 C846 1.362 . S
H848 C854 0.930 . S
H849 C857 0.930 . S
H850 C858 0.930 . S
H851 C859 0.930 . S
H852 C862 0.930 . S
H853 C863 0.930 . S
C854 H848 0.930 . S
C854 C855 1.355 . S
C854 C856 1.415 1_455 S
C855 C854 1.355 . S
C855 C857 1.419 . S
C856 C854 1.415 1_655 S
C856 C861 1.425 1_655 S
C856 C863 1.409 . S
C857 H849 0.930 . S
C857 C855 1.419 . S
C857 C858 1.362 . S
C858 H850 0.930 . S
C858 C857 1.362 . S
C858 C861 1.409 . S
C859 H851 0.930 . S
C859 C860 1.355 . S
C859 C861 1.415 1_655 S
C860 C859 1.355 . S
C860 C862 1.419 . S
C861 C856 1.425 1_455 S
C861 C858 1.409 . S
C861 C859 1.415 1_455 S
C862 H852 0.930 . S
C862 C860 1.419 . S
C862 C863 1.362 . S
C863 H853 0.930 . S
C863 C856 1.409 . S
C863 C862 1.362 . S
H864 C870 0.930 . S
H865 C873 0.930 . S
H866 C874 0.930 . S
H867 C875 0.930 . S
H868 C878 0.930 . S
H869 C879 0.930 . S
C870 H864 0.930 . S
C870 C871 1.355 . S
C870 C872 1.415 . S
C871 C870 1.355 . S
C871 C873 1.419 . S
C872 C870 1.415 . S
C872 C877 1.425 . S
C872 C879 1.409 . S
C873 H865 0.930 . S
C873 C871 1.419 . S
C873 C874 1.362 . S
C874 H866 0.930 . S
C874 C873 1.362 . S
C874 C877 1.409 . S
C875 H867 0.930 . S
C875 C876 1.355 . S
C875 C877 1.415 . S
C876 C875 1.355 . S
C876 C878 1.419 . S
C877 C872 1.425 . S
C877 C874 1.409 . S
C877 C875 1.415 . S
C878 H868 0.930 . S
C878 C876 1.419 . S
C878 C879 1.362 . S
C879 H869 0.930 . S
C879 C872 1.409 . S
C879 C878 1.362 . S
H880 C886 0.930 . S
H881 C889 0.930 . S
H882 C890 0.930 . S
H883 C891 0.930 . S
H884 C894 0.930 . S
H885 C895 0.930 . S
C886 H880 0.930 . S
C886 C887 1.355 . S
C886 C888 1.415 . S
C887 C886 1.355 . S
C887 C889 1.419 . S
C888 C886 1.415 . S
C888 C893 1.425 . S
C888 C895 1.409 . S
C889 H881 0.930 . S
C889 C887 1.419 . S
C889 C890 1.362 . S
C890 H882 0.930 . S
C890 C889 1.362 . S
C890 C893 1.409 . S
C891 H883 0.930 . S
C891 C892 1.355 . S
C891 C893 1.415 . S
C892 C891 1.355 . S
C892 C894 1.419 . S
C893 C888 1.425 . S
C893 C890 1.409 . S
C893 C891 1.415 . S
C894 H884 0.930 . S
C894 C892 1.419 . S
C894 C895 1.362 . S
C895 H885 0.930 . S
C895 C888 1.409 . S
C895 C894 1.362 . S
H896 C902 0.930 . S
H897 C905 0.930 . S
H898 C906 0.930 . S
H899 C907 0.930 . S
H900 C910 0.930 . S
H901 C911 0.930 . S
C902 H896 0.930 . S
C902 C903 1.355 . S
C902 C904 1.415 . S
C903 C902 1.355 . S
C903 C905 1.419 . S
C904 C902 1.415 . S
C904 C909 1.425 . S
C904 C911 1.409 . S
C905 H897 0.930 . S
C905 C903 1.419 . S
C905 C906 1.362 . S
C906 H898 0.930 . S
C906 C905 1.362 . S
C906 C909 1.409 . S
C907 H899 0.930 . S
C907 C908 1.355 . S
C907 C909 1.415 . S
C908 C907 1.355 . S
C908 C910 1.419 . S
C909 C904 1.425 . S
C909 C906 1.409 . S
C909 C907 1.415 . S
C910 H900 0.930 . S
C910 C908 1.419 . S
C910 C911 1.362 . S
C911 H901 0.930 . S
C911 C904 1.409 . S
C911 C910 1.362 . S
H912 C918 0.930 . S
H913 C921 0.930 . S
H914 C922 0.930 . S
H915 C923 0.930 . S
H916 C926 0.930 . S
H917 C927 0.930 . S
C918 H912 0.930 . S
C918 C919 1.355 . S
C918 C920 1.415 . S
C919 C918 1.355 . S
C919 C921 1.419 . S
C920 C918 1.415 . S
C920 C925 1.425 . S
C920 C927 1.409 . S
C921 H913 0.930 . S
C921 C919 1.419 . S
C921 C922 1.362 . S
C922 H914 0.930 . S
C922 C921 1.362 . S
C922 C925 1.409 . S
C923 H915 0.930 . S
C923 C924 1.355 . S
C923 C925 1.415 . S
C924 C923 1.355 . S
C924 C926 1.419 . S
C925 C920 1.425 . S
C925 C922 1.409 . S
C925 C923 1.415 . S
C926 H916 0.930 . S
C926 C924 1.419 . S
C926 C927 1.362 . S
C927 H917 0.930 . S
C927 C920 1.409 . S
C927 C926 1.362 . S
H928 C934 0.930 . S
H929 C937 0.930 . S
H930 C938 0.930 . S
H931 C939 0.930 . S
H932 C942 0.930 . S
H933 C943 0.930 . S
C934 H928 0.930 . S
C934 C935 1.355 . S
C934 C936 1.415 . S
C935 C934 1.355 . S
C935 C937 1.419 . S
C936 C934 1.415 . S
C936 C941 1.425 . S
C936 C943 1.409 . S
C937 H929 0.930 . S
C937 C935 1.419 . S
C937 C938 1.362 . S
C938 H930 0.930 . S
C938 C937 1.362 . S
C938 C941 1.409 . S
C939 H931 0.930 . S
C939 C940 1.355 . S
C939 C941 1.415 . S
C940 C939 1.355 . S
C940 C942 1.419 . S
C941 C936 1.425 . S
C941 C938 1.409 . S
C941 C939 1.415 . S
C942 H932 0.930 . S
C942 C940 1.419 . S
C942 C943 1.362 . S
C943 H933 0.930 . S
C943 C936 1.409 . S
C943 C942 1.362 . S
H944 C950 0.930 . S
H945 C953 0.930 . S
H946 C954 0.930 . S
H947 C955 0.930 . S
H948 C958 0.930 . S
H949 C959 0.930 . S
C950 H944 0.930 . S
C950 C951 1.355 . S
C950 C952 1.415 . S
C951 C950 1.355 . S
C951 C953 1.419 . S
C952 C950 1.415 . S
C952 C957 1.425 . S
C952 C959 1.409 . S
C953 H945 0.930 . S
C953 C951 1.419 . S
C953 C954 1.362 . S
C954 H946 0.930 . S
C954 C953 1.362 . S
C954 C957 1.409 . S
C955 H947 0.930 . S
C955 C956 1.355 . S
C955 C957 1.415 . S
C956 C955 1.355 . S
C956 C958 1.419 . S
C957 C952 1.425 . S
C957 C954 1.409 . S
C957 C955 1.415 . S
C958 H948 0.930 . S
C958 C956 1.419 . S
C958 C959 1.362 . S
C959 H949 0.930 . S
C959 C952 1.409 . S
C959 C958 1.362 . S
H960 C966 0.930 . S
H961 C969 0.930 . S
H962 C970 0.930 . S
H963 C971 0.930 . S
H964 C974 0.930 . S
H965 C975 0.930 . S
C966 H960 0.930 . S
C966 C967 1.355 . S
C966 C968 1.415 . S
C967 C966 1.355 . S
C967 C969 1.419 . S
C968 C966 1.415 . S
C968 C973 1.425 . S
C968 C975 1.409 . S
C969 H961 0.930 . S
C969 C967 1.419 . S
C969 C970 1.362 . S
C970 H962 0.930 . S
C970 C969 1.362 . S
C970 C973 1.409 . S
C971 H963 0.930 . S
C971 C972 1.355 . S
C971 C973 1.415 . S
C972 C971 1.355 . S
C972 C974 1.419 . S
C973 C968 1.425 . S
C973 C970 1.409 . S
C973 C971 1.415 . S
C974 H964 0.930 . S
C974 C972 1.419 . S
C974 C975 1.362 . S
C975 H965 0.930 . S
C975 C968 1.409 . S
C975 C974 1.362 . S
H976 C982 0.930 . S
H977 C985 0.930 . S
H978 C986 0.930 . S
H979 C987 0.930 . S
H980 C990 0.930 . S
H981 C991 0.930 . S
C982 H976 0.930 . S
C982 C983 1.355 . S
C982 C984 1.415 . S
C983 C982 1.355 . S
C983 C985 1.419 . S
C984 C982 1.415 . S
C984 C989 1.425 . S
C984 C991 1.409 . S
C985 H977 0.930 . S
C985 C983 1.419 . S
C985 C986 1.362 . S
C986 H978 0.930 . S
C986 C985 1.362 . S
C986 C989 1.409 . S
C987 H979 0.930 . S
C987 C988 1.355 . S
C987 C989 1.415 . S
C988 C987 1.355 . S
C988 C990 1.419 . S
C989 C984 1.425 . S
C989 C986 1.409 . S
C989 C987 1.415 . S
C990 H980 0.930 . S
C990 C988 1.419 . S
C990 C991 1.362 . S
C991 H981 0.930 . S
C991 C984 1.409 . S
C991 C990 1.362 . S
H992 C998 0.930 . S
H993 C1001 0.930 . S
H994 C1002 0.930 . S
H995 C1003 0.930 . S
H996 C1006 0.930 . S
H997 C1007 0.930 . S
C998 H992 0.930 . S
C998 C999 1.355 . S
C998 C1000 1.415 . S
C999 C998 1.355 . S
C999 C1001 1.419 . S
C1000 C998 1.415 . S
C1000 C1005 1.425 . S
C1000 C1007 1.409 . S
C1001 H993 0.930 . S
C1001 C999 1.419 . S
C1001 C1002 1.362 . S
C1002 H994 0.930 . S
C1002 C1001 1.362 . S
C1002 C1005 1.409 . S
C1003 H995 0.930 . S
C1003 C1004 1.355 . S
C1003 C1005 1.415 . S
C1004 C1003 1.355 . S
C1004 C1006 1.419 . S
C1005 C1000 1.425 . S
C1005 C1002 1.409 . S
C1005 C1003 1.415 . S
C1006 H996 0.930 . S
C1006 C1004 1.419 . S
C1006 C1007 1.362 . S
C1007 H997 0.930 . S
C1007 C1000 1.409 . S
C1007 C1006 1.362 . S
H1008 C1014 0.930 . S
H1009 C1017 0.930 . S
H1010 C1018 0.930 . S
H1011 C1019 0.930 . S
H1012 C1022 0.930 . S
H1013 C1023 0.930 . S
C1014 H1008 0.930 . S
C1014 C1015 1.355 . S
C1014 C1016 1.415 . S
C1015 C1014 1.355 . S
C1015 C1017 1.419 1_565 S
C1016 C1014 1.415 . S
C1016 C1021 1.425 1_565 S
C1016 C1023 1.409 . S
C1017 H1009 0.930 . S
C1017 C1015 1.419 1_545 S
C1017 C1018 1.362 . S
C1018 H1010 0.930 . S
C1018 C1017 1.362 . S
C1018 C1021 1.409 . S
C1019 H1011 0.930 . S
C1019 C1020 1.355 . S
C1019 C1021 1.415 . S
C1020 C1019 1.355 . S
C1020 C1022 1.419 1_545 S
C1021 C1016 1.425 1_545 S
C1021 C1018 1.409 . S
C1021 C1019 1.415 . S
C1022 H1012 0.930 . S
C1022 C1020 1.419 1_565 S
C1022 C1023 1.362 . S
C1023 H1013 0.930 . S
C1023 C1016 1.409 . S
C1023 C1022 1.362 . S
H1024 C1030 0.930 . S
H1025 C1033 0.930 . S
H1026 C1034 0.930 . S
H1027 C1035 0.930 . S
H1028 C1038 0.930 . S
H1029 C1039 0.930 . S
C1030 H1024 0.930 . S
C1030 C1031 1.355 . S
C1030 C1032 1.415 . S
C1031 C1030 1.355 . S
C1031 C1033 1.419 . S
C1032 C1030 1.415 . S
C1032 C1037 1.425 . S
C1032 C1039 1.409 . S
C1033 H1025 0.930 . S
C1033 C1031 1.419 . S
C1033 C1034 1.362 . S
C1034 H1026 0.930 . S
C1034 C1033 1.362 . S
C1034 C1037 1.409 . S
C1035 H1027 0.930 . S
C1035 C1036 1.355 . S
C1035 C1037 1.415 . S
C1036 C1035 1.355 . S
C1036 C1038 1.419 . S
C1037 C1032 1.425 . S
C1037 C1034 1.409 . S
C1037 C1035 1.415 . S
C1038 H1028 0.930 . S
C1038 C1036 1.419 . S
C1038 C1039 1.362 . S
C1039 H1029 0.930 . S
C1039 C1032 1.409 . S
C1039 C1038 1.362 . S
H1040 C1046 0.930 1_545 S
H1041 C1049 0.930 . S
H1042 C1050 0.930 . S
H1043 C1051 0.923 1_565 S
H1044 C1054 0.930 . S
H1045 C1055 0.930 . S
C1046 H1040 0.930 1_565 S
C1046 C1047 1.355 . S
C1046 C1048 1.415 1_565 S
C1047 C1046 1.355 . S
C1047 C1049 1.419 . S
C1048 C1046 1.415 1_545 S
C1048 C1053 1.425 1_545 S
C1048 C1055 1.409 . S
C1049 H1041 0.930 . S
C1049 C1047 1.419 . S
C1049 C1050 1.362 . S
C1050 H1042 0.930 . S
C1050 C1049 1.362 . S
C1050 C1053 1.409 . S
C1051 H1043 0.923 1_545 S
C1051 C1052 1.366 . S
C1051 C1053 1.410 1_545 S
C1052 C1051 1.366 . S
C1052 C1054 1.419 . S
C1053 C1048 1.425 1_565 S
C1053 C1050 1.409 . S
C1053 C1051 1.410 1_565 S
C1054 H1044 0.930 . S
C1054 C1052 1.419 . S
C1054 C1055 1.362 . S
C1055 H1045 0.930 . S
C1055 C1048 1.409 . S
C1055 C1054 1.362 . S
H1056 C1062 0.930 . S
H1057 C1065 0.930 . S
H1058 C1066 0.930 . S
H1059 C1067 0.930 . S
H1060 C1070 0.930 . S
H1061 C1071 0.930 . S
C1062 H1056 0.930 . S
C1062 C1063 1.355 . S
C1062 C1064 1.415 . S
C1063 C1062 1.355 . S
C1063 C1065 1.419 . S
C1064 C1062 1.415 . S
C1064 C1069 1.425 . S
C1064 C1071 1.409 . S
C1065 H1057 0.930 . S
C1065 C1063 1.419 . S
C1065 C1066 1.362 . S
C1066 H1058 0.930 . S
C1066 C1065 1.362 . S
C1066 C1069 1.409 . S
C1067 H1059 0.930 . S
C1067 C1068 1.355 . S
C1067 C1069 1.415 . S
C1068 C1067 1.355 . S
C1068 C1070 1.419 . S
C1069 C1064 1.425 . S
C1069 C1066 1.409 . S
C1069 C1067 1.415 . S
C1070 H1060 0.930 . S
C1070 C1068 1.419 . S
C1070 C1071 1.362 . S
C1071 H1061 0.930 . S
C1071 C1064 1.409 . S
C1071 C1070 1.362 . S
H1072 C1078 0.930 1_545 S
H1073 C1081 0.930 . S
H1074 C1082 0.930 . S
H1075 C1083 0.929 1_565 S
H1076 C1086 0.930 . S
H1077 C1087 0.930 . S
C1078 H1072 0.930 1_565 S
C1078 C1079 1.355 . S
C1078 C1080 1.415 1_565 S
C1079 C1078 1.355 . S
C1079 C1081 1.419 . S
C1080 C1078 1.415 1_545 S
C1080 C1085 1.425 1_545 S
C1080 C1087 1.409 . S
C1081 H1073 0.930 . S
C1081 C1079 1.419 . S
C1081 C1082 1.362 . S
C1082 H1074 0.930 . S
C1082 C1081 1.362 . S
C1082 C1085 1.409 . S
C1083 H1075 0.929 1_545 S
C1083 C1084 1.356 . S
C1083 C1085 1.414 1_545 S
C1084 C1083 1.356 . S
C1084 C1086 1.419 . S
C1085 C1080 1.425 1_565 S
C1085 C1082 1.409 . S
C1085 C1083 1.414 1_565 S
C1086 H1076 0.930 . S
C1086 C1084 1.419 . S
C1086 C1087 1.362 . S
C1087 H1077 0.930 . S
C1087 C1080 1.409 . S
C1087 C1086 1.362 . S
H1088 C1094 0.930 . S
H1089 C1097 0.930 . S
H1090 C1098 0.930 . S
H1091 C1099 0.930 . S
H1092 C1102 0.930 . S
H1093 C1103 0.930 . S
C1094 H1088 0.930 . S
C1094 C1095 1.355 . S
C1094 C1096 1.415 . S
C1095 C1094 1.355 . S
C1095 C1097 1.419 . S
C1096 C1094 1.415 . S
C1096 C1101 1.425 . S
C1096 C1103 1.409 . S
C1097 H1089 0.930 . S
C1097 C1095 1.419 . S
C1097 C1098 1.362 . S
C1098 H1090 0.930 . S
C1098 C1097 1.362 . S
C1098 C1101 1.409 . S
C1099 H1091 0.930 . S
C1099 C1100 1.355 . S
C1099 C1101 1.415 . S
C1100 C1099 1.355 . S
C1100 C1102 1.419 . S
C1101 C1096 1.425 . S
C1101 C1098 1.409 . S
C1101 C1099 1.415 . S
C1102 H1092 0.930 . S
C1102 C1100 1.419 . S
C1102 C1103 1.362 . S
C1103 H1093 0.930 . S
C1103 C1096 1.409 . S
C1103 C1102 1.362 . S
H1104 C1110 0.930 . S
H1105 C1113 0.930 . S
H1106 C1114 0.930 . S
H1107 C1115 0.930 . S
H1108 C1118 0.930 1_565 S
H1109 C1119 0.930 . S
C1110 H1104 0.930 . S
C1110 C1111 1.355 . S
C1110 C1112 1.415 . S
C1111 C1110 1.355 . S
C1111 C1113 1.419 1_565 S
C1112 C1110 1.415 . S
C1112 C1117 1.425 1_565 S
C1112 C1119 1.409 . S
C1113 H1105 0.930 . S
C1113 C1111 1.419 1_545 S
C1113 C1114 1.362 . S
C1114 H1106 0.930 . S
C1114 C1113 1.362 . S
C1114 C1117 1.409 . S
C1115 H1107 0.930 . S
C1115 C1116 1.355 . S
C1115 C1117 1.415 . S
C1116 C1115 1.355 . S
C1116 C1118 1.419 . S
C1117 C1112 1.425 1_545 S
C1117 C1114 1.409 . S
C1117 C1115 1.415 . S
C1118 H1108 0.930 1_545 S
C1118 C1116 1.419 . S
C1118 C1119 1.362 1_545 S
C1119 H1109 0.930 . S
C1119 C1112 1.409 . S
C1119 C1118 1.362 1_565 S
C359 C7 1.290 . S
C364 C273 1.290 . S
C375 C119 1.218 . S
C380 C29 1.218 . S
C391 C50 1.263 . S
C396 C313 1.263 . S
C407 C72 1.250 . S
C412 C159 1.250 . S
C423 C97 1.321 . S
C428 C183 1.321 . S
C439 C226 1.235 . S
C444 C137 1.235 . S
C455 C295 1.318 . S
C460 C205 1.318 . S
C471 C248 1.323 . S
C476 C335 1.323 . S
C487 C206 1.629 . S
C492 C6 1.595 . S
C503 C28 1.563 . S
C508 C224 1.627 . S
C519 C51 1.517 . S
C524 C246 1.643 . S
C535 C184 1.627 . S
C540 C73 1.562 . S
C551 C294 1.632 . S
C556 C93 1.536 . S
C567 C312 1.645 . S
C572 C115 1.529 . S
C583 C141 1.529 . S
C588 C334 1.645 . S
C599 C272 1.638 . S
C604 C163 1.578 . S
C615 C182 1.539 . S
C620 C30 1.631 . S
C631 C204 1.556 . S
C636 C48 1.643 . S
C647 C227 1.591 . S
C652 C70 1.633 . S
C663 C8 1.629 . S
C668 C249 1.551 . S
C679 C118 1.644 . S
C684 C269 1.518 . S
C695 C291 1.523 . S
C700 C136 1.645 . S
C711 C158 1.642 . S
C716 C317 1.516 . S
C727 C339 1.531 . S
C732 C96 1.634 . S
C743 C4 0.804 . S
C748 C228 0.877 . S
C759 C26 0.867 . S
C764 C250 0.824 . S
C775 C180 0.864 . S
C780 C52 0.717 . S
C791 C74 0.824 . S
C796 C202 0.867 . S
C807 C92 0.865 . S
C812 C316 0.827 . S
C823 C114 0.874 . S
C828 C338 0.809 . S
C839 C268 0.801 . S
C844 C140 0.715 . S
C855 C162 0.815 . S
C860 C290 0.872 . S
C871 C5 1.553 . S
C876 C160 1.556 . S
C887 C271 1.578 . S
C892 C27 1.517 . S
C903 C53 1.543 . S
C908 C117 1.562 . S
C919 C75 1.526 . S
C924 C314 1.575 . S
C935 C94 1.476 . S
C940 C71 1.606 . S
C951 C185 1.560 . S
C956 C116 1.545 . S
C967 C139 1.549 . S
C972 C31 1.559 . S
C983 C225 1.556 . S
C988 C161 1.552 . S
C999 C181 1.474 . S
C1004 C336 1.605 1_565 S
C1015 C95 1.609 . S
C1020 C203 1.470 . S
C1031 C293 1.557 1_545 S
C1036 C229 1.552 . S
C1047 C251 1.554 . S
C1052 C138 1.556 . S
C1063 C270 1.468 . S
C1068 C247 1.609 1_545 S
C1079 C292 1.538 . S
C1084 C9 1.565 . S
C1095 C207 1.604 1_565 S
C1100 C315 1.479 . S
C1111 C49 1.618 . S
C1116 C337 1.455 . S
