# Generated by pormake.
# Topology mmt, (4)-cn, num edge types: 1
# Building blocks:
#     Node 0, Type 0, BuildingBlock: NAHDIM_clean_sbu_0, # of connection points: 4
#     Node 1, Type 0, BuildingBlock: NAHDIM_clean_sbu_0, # of connection points: 4
#     Node 2, Type 0, BuildingBlock: NAHDIM_clean_sbu_0, # of connection points: 4
#     Node 3, Type 0, BuildingBlock: NAHDIM_clean_sbu_0, # of connection points: 4
#     Node 4, Type 0, BuildingBlock: NAHDIM_clean_sbu_0, # of connection points: 4
#     Node 5, Type 0, BuildingBlock: NAHDIM_clean_sbu_0, # of connection points: 4
#     Node 6, Type 0, BuildingBlock: NAHDIM_clean_sbu_0, # of connection points: 4
#     Node 7, Type 0, BuildingBlock: NAHDIM_clean_sbu_0, # of connection points: 4
#     Edge 8, Type (0, 0), BuildingBlock: XUDNAN_clean_linker_2, # of connection points: 2
#     Edge 9, Type (0, 0), BuildingBlock: XUDNAN_clean_linker_2, # of connection points: 2
#     Edge 10, Type (0, 0), BuildingBlock: XUDNAN_clean_linker_2, # of connection points: 2
#     Edge 11, Type (0, 0), BuildingBlock: XUDNAN_clean_linker_2, # of connection points: 2
#     Edge 12, Type (0, 0), BuildingBlock: XUDNAN_clean_linker_2, # of connection points: 2
#     Edge 13, Type (0, 0), BuildingBlock: XUDNAN_clean_linker_2, # of connection points: 2
#     Edge 14, Type (0, 0), BuildingBlock: XUDNAN_clean_linker_2, # of connection points: 2
#     Edge 15, Type (0, 0), BuildingBlock: XUDNAN_clean_linker_2, # of connection points: 2
#     Edge 16, Type (0, 0), BuildingBlock: XUDNAN_clean_linker_2, # of connection points: 2
#     Edge 17, Type (0, 0), BuildingBlock: XUDNAN_clean_linker_2, # of connection points: 2
#     Edge 18, Type (0, 0), BuildingBlock: XUDNAN_clean_linker_2, # of connection points: 2
#     Edge 19, Type (0, 0), BuildingBlock: XUDNAN_clean_linker_2, # of connection points: 2
#     Edge 20, Type (0, 0), BuildingBlock: XUDNAN_clean_linker_2, # of connection points: 2
#     Edge 21, Type (0, 0), BuildingBlock: XUDNAN_clean_linker_2, # of connection points: 2
#     Edge 22, Type (0, 0), BuildingBlock: XUDNAN_clean_linker_2, # of connection points: 2
#     Edge 23, Type (0, 0), BuildingBlock: XUDNAN_clean_linker_2, # of connection points: 2
# Relax obj value: 0.079
# Max RMSD: 0.130
# Mean RMSD: 0.130
data_MOF--net-mmt--node1-NAHDIM_clean_sbu_0--edge1-XUDNAN_clean_linker_2
_symmetry_space_group_name_H-M    P1
_symmetry_Int_Tables_number       1
_symmetry_cell_setting            triclinic
loop_
_symmetry_equiv_pos_as_xyz
'x, y, z'
_cell_length_a     22.073415
_cell_length_b     37.633374
_cell_length_c     44.288433
_cell_angle_alpha  89.947541
_cell_angle_beta   90.100253
_cell_angle_gamma 89.964591
loop_
_atom_site_label
_atom_site_type_symbol
_atom_site_fract_x
_atom_site_fract_y
_atom_site_fract_z
_atom_type_partial_charge
C0 C 0.13606 0.5251 0.41399 0.0
O1 O 0.10277 0.55102 0.40298 0.0
O2 O 0.23963 0.58806 0.36993 0.0
Zn3 Zn 0.20703 0.53926 0.36104 0.0
O4 O 0.13569 0.53977 0.3326 0.0
C5 C 0.30245 0.5255 0.31973 0.0
O6 O 0.28926 0.5583 0.31198 0.0
O7 O 0.18324 0.51542 0.3998 0.0
C8 C 0.12906 0.5611 0.31056 0.0
O9 O 0.16915 0.58636 0.30621 0.0
C10 C 0.20896 0.61652 0.37203 0.0
O11 O 0.14992 0.61551 0.36836 0.0
O12 O 0.27324 0.51102 0.34116 0.0
C13 C 0.39015 0.94943 0.40208 0.0
O14 O 0.34733 0.92792 0.41156 0.0
O15 O 0.32472 0.88039 0.35529 0.0
Zn16 Zn 0.34935 0.92918 0.34176 0.0
O17 O 0.40485 0.92396 0.30617 0.0
C18 C 0.25096 0.9524 0.30495 0.0
O19 O 0.27283 0.92734 0.28744 0.0
O20 O 0.39747 0.95406 0.37392 0.0
C21 C 0.41986 0.95146 0.29135 0.0
O22 O 0.39646 0.98229 0.29893 0.0
C23 C 0.36578 0.85936 0.36457 0.0
O24 O 0.422 0.87073 0.36586 0.0
O25 O 0.27616 0.95817 0.33028 0.0
C26 C 0.63189 0.479 0.08865 0.0
O27 O 0.58849 0.46572 0.10548 0.0
O28 O 0.73051 0.40587 0.13381 0.0
Zn29 Zn 0.70799 0.45743 0.13882 0.0
O30 O 0.63775 0.46185 0.16764 0.0
C31 C 0.80305 0.47171 0.18041 0.0
O32 O 0.78316 0.44158 0.19162 0.0
O33 O 0.68611 0.47859 0.0984 0.0
C34 C 0.62677 0.4386 0.18776 0.0
O35 O 0.66128 0.41024 0.1896 0.0
C36 C 0.69136 0.38409 0.12384 0.0
O37 O 0.63743 0.39593 0.11632 0.0
O38 O 0.77829 0.4841 0.15672 0.0
C39 C 0.92129 0.05425 0.09518 0.0
O40 O 0.94926 0.07785 0.11202 0.0
O41 O 0.81227 0.1102 0.1385 0.0
Zn42 Zn 0.84061 0.05995 0.14381 0.0
O43 O 0.90786 0.0542 0.17396 0.0
C44 C 0.76781 -0.00101 0.16275 0.0
O45 O 0.81635 0.97995 0.15703 0.0
O46 O 0.87086 0.04184 0.10408 0.0
C47 C 0.90827 0.06536 0.20101 0.0
O48 O 0.86236 0.08416 0.21104 0.0
C49 C 0.84028 0.13908 0.14343 0.0
O50 O 0.89608 0.13824 0.15377 0.0
O51 O 0.76882 0.03228 0.1581 0.0
C52 C 0.95894 0.43764 0.60338 0.0
O53 O 0.97359 0.4101 0.62013 0.0
O54 O 0.83324 0.39406 0.64135 0.0
Zn55 Zn 0.87203 0.44137 0.64922 0.0
O56 O 0.93505 0.43642 0.68205 0.0
C57 C 0.75284 0.47294 0.65714 0.0
O58 O 0.73467 0.44604 0.64055 0.0
O59 O 0.91428 0.45682 0.61128 0.0
C60 C 0.9288 0.45042 0.70798 0.0
O61 O 0.87877 0.46779 0.71425 0.0
C62 C 0.80918 0.37571 0.6622 0.0
O63 O 0.80981 0.38783 0.69002 0.0
O64 O 0.80907 0.47688 0.66232 0.0
C65 C 0.60445 0.0535 0.57489 0.0
O66 O 0.64602 0.07841 0.57632 0.0
O67 O 0.61838 0.11713 0.63355 0.0
Zn68 Zn 0.59135 0.06661 0.63927 0.0
O69 O 0.51216 0.06401 0.6614 0.0
C70 C 0.64732 0.03748 0.69201 0.0
O71 O 0.60142 0.05381 0.70474 0.0
O72 O 0.57756 0.04389 0.59887 0.0
C73 C 0.49354 0.03256 0.66613 0.0
O74 O 0.52517 0.0058 0.65542 0.0
C75 C 0.62415 0.13869 0.65542 0.0
O76 O 0.61055 0.12811 0.68285 0.0
O77 O 0.65403 0.03952 0.66353 0.0
C78 C 0.46568 0.55593 0.89324 0.0
O79 O 0.48639 0.5794 0.87386 0.0
O80 O 0.33261 0.60266 0.85621 0.0
Zn81 Zn 0.3724 0.55535 0.8496 0.0
O82 O 0.43474 0.55981 0.81651 0.0
C83 C 0.25365 0.5231 0.84201 0.0
O84 O 0.23527 0.55005 0.85845 0.0
O85 O 0.41519 0.54091 0.88791 0.0
C86 C 0.42817 0.54571 0.79063 0.0
O87 O 0.37812 0.52829 0.78448 0.0
C88 C 0.30767 0.61948 0.83463 0.0
O89 O 0.30851 0.60573 0.80737 0.0
O90 O 0.30991 0.51929 0.83691 0.0
C91 C 0.03504 0.94673 0.90156 0.0
O92 O 0.99364 0.9236 0.89332 0.0
O93 O 0.11046 0.8773 0.85176 0.0
Zn94 Zn 0.08408 0.92767 0.84433 0.0
O95 O 0.00176 0.92959 0.82504 0.0
C96 C 0.19339 0.9412 0.80922 0.0
O97 O 0.20977 0.90937 0.81826 0.0
O98 O 0.07935 0.95285 0.88406 0.0
C99 C 0.99482 0.93423 0.79682 0.0
O100 O 0.04279 0.93577 0.77936 0.0
C101 C 0.11161 0.85361 0.83136 0.0
O102 O 0.09397 0.86176 0.80386 0.0
O103 O 0.14306 0.95394 0.81788 0.0
H104 H 0.36505 0.54727 0.26983 0.0
H105 H 0.34718 0.45906 0.33245 0.0
H106 H 0.42685 0.42641 0.30476 0.0
H107 H 0.38907 0.49431 0.20311 0.0
H108 H 0.4429 0.52492 0.18704 0.0
H109 H 0.38412 0.54105 0.21164 0.0
H110 H 0.4651 0.56989 0.24628 0.0
H111 H 0.52409 0.55392 0.22176 0.0
H112 H 0.52546 0.54285 0.26137 0.0
H113 H 0.51001 0.40404 0.27067 0.0
H114 H 0.59019 0.39361 0.23286 0.0
H115 H 0.55192 0.49645 0.19251 0.0
C116 C 0.37779 0.52109 0.27778 0.0
C117 C 0.34998 0.50573 0.30334 0.0
C118 C 0.36788 0.47134 0.3129 0.0
C119 C 0.41303 0.4526 0.29732 0.0
C120 C 0.4395 0.46856 0.27219 0.0
C121 C 0.42244 0.502 0.26246 0.0
C122 C 0.45804 0.51335 0.23494 0.0
C123 C 0.41602 0.51871 0.20756 0.0
C124 C 0.49539 0.54699 0.2415 0.0
C125 C 0.49832 0.48121 0.23086 0.0
C126 C 0.48688 0.45562 0.2525 0.0
C127 C 0.51921 0.42384 0.25354 0.0
C128 C 0.56466 0.41818 0.23197 0.0
C129 C 0.5773 0.44419 0.2097 0.0
C130 C 0.54327 0.47597 0.20915 0.0
H131 H -0.002 0.01739 0.18938 0.0
H132 H 0.93121 0.08872 0.25877 0.0
H133 H 0.01306 0.06849 0.29304 0.0
H134 H 0.03408 0.94583 0.23847 0.0
H135 H 0.10063 0.93271 0.21775 0.0
H136 H 0.03876 0.95416 0.19845 0.0
H137 H 0.11184 0.00276 0.17866 0.0
H138 H 0.17403 0.98138 0.19779 0.0
H139 H 0.15743 0.02747 0.20513 0.0
H140 H 0.10203 0.03924 0.31988 0.0
H141 H 0.1893 0.00324 0.33712 0.0
H142 H 0.19452 0.95057 0.24999 0.0
C143 C 0.00075 0.02909 0.21168 0.0
C144 C 0.95835 0.05479 0.22136 0.0
C145 C 0.96328 0.06905 0.25085 0.0
C146 C 0.00961 0.05773 0.27045 0.0
C147 C 0.0503 0.03208 0.2602 0.0
C148 C 0.04616 0.01795 0.23149 0.0
C149 C 0.0941 0.98996 0.22611 0.0
C150 C 0.06514 0.95351 0.21984 0.0
C151 C 0.13689 0.00108 0.20041 0.0
C152 C 0.12604 0.99044 0.25631 0.0
C153 C 0.1004 0.01496 0.27568 0.0
C154 C 0.12244 0.01999 0.30488 0.0
C155 C 0.17199 -0.00059 0.31446 0.0
C156 C 0.19866 0.97403 0.29493 0.0
C157 C 0.17513 0.96964 0.26551 0.0
H158 H 0.86219 0.45288 0.23232 0.0
H159 H 0.8547 0.53505 0.16351 0.0
H160 H 0.93553 0.56808 0.1901 0.0
H161 H 0.88681 0.51081 0.29551 0.0
H162 H 0.93772 0.48057 0.31437 0.0
H163 H 0.87927 0.46357 0.28992 0.0
H164 H 0.96001 0.42995 0.2585 0.0
H165 H 0.01864 0.44668 0.28294 0.0
H166 H 0.02296 0.45419 0.2428 0.0
H167 H 0.01849 0.59164 0.22414 0.0
H168 H 0.09774 0.60329 0.2624 0.0
H169 H 0.04873 0.5058 0.30882 0.0
C170 C 0.87745 0.47781 0.22277 0.0
C171 C 0.85212 0.49138 0.19583 0.0
C172 C 0.87348 0.52412 0.18413 0.0
C173 C 0.91928 0.5431 0.1991 0.0
C174 C 0.94305 0.529 0.22571 0.0
C175 C 0.92289 0.49707 0.23739 0.0
C176 C 0.95615 0.48745 0.26614 0.0
C177 C 0.91236 0.4855 0.29307 0.0
C178 C 0.99154 0.4525 0.26235 0.0
C179 C -0.00164 0.51892 0.26881 0.0
C180 C 0.9902 0.54263 0.24532 0.0
C181 C 0.02512 0.57332 0.24271 0.0
C182 C 0.06998 0.57971 0.26455 0.0
C183 C 0.07933 0.55554 0.28866 0.0
C184 C 0.0425 0.52497 0.29082 0.0
H185 H 0.66491 0.03291 0.18102 0.0
H186 H 0.74963 0.92885 0.17771 0.0
H187 H 0.66318 0.90364 0.20603 0.0
H188 H 0.61541 0.02735 0.25481 0.0
H189 H 0.5453 0.05089 0.24868 0.0
H190 H 0.60933 0.05952 0.22475 0.0
H191 H 0.54473 0.0446 0.1775 0.0
H192 H 0.48024 0.03601 0.20132 0.0
H193 H 0.50617 0.00245 0.17536 0.0
H194 H 0.57212 0.89128 0.23891 0.0
H195 H 0.48565 0.89295 0.27423 0.0
H196 H 0.46249 0.00552 0.25605 0.0
C197 C 0.6649 0.00465 0.18567 0.0
C198 C 0.71397 0.9828 0.17705 0.0
C199 C 0.7124 0.94607 0.18398 0.0
C200 C 0.66343 0.93151 0.19998 0.0
C201 C 0.6164 0.95403 0.20868 0.0
C202 C 0.61671 0.9898 0.20163 0.0
C203 C 0.56339 0.00897 0.21553 0.0
C204 C 0.58466 0.0384 0.23723 0.0
C205 C 0.52113 0.02388 0.19096 0.0
C206 C 0.53391 0.97864 0.23235 0.0
C207 C 0.56453 0.94704 0.22779 0.0
C208 C 0.54738 0.91578 0.24234 0.0
C209 C 0.49824 0.91701 0.26238 0.0
C210 C 0.46728 0.94938 0.26788 0.0
C211 C 0.48493 0.98033 0.25221 0.0
H212 H 0.44009 0.50536 0.73961 0.0
H213 H 0.53156 0.58578 0.79304 0.0
H214 H 0.62064 0.58158 0.75961 0.0
H215 H 0.56408 0.45098 0.73062 0.0
H216 H 0.54678 0.43731 0.69257 0.0
H217 H 0.48675 0.45077 0.71743 0.0
H218 H 0.45211 0.49816 0.67855 0.0
H219 H 0.51215 0.48476 0.65347 0.0
H220 H 0.50572 0.53054 0.66496 0.0
H221 H 0.7037 0.56353 0.72458 0.0
H222 H 0.77542 0.53201 0.69138 0.0
H223 H 0.63013 0.46301 0.66093 0.0
C224 C 0.47819 0.52279 0.74381 0.0
C225 C 0.47875 0.54607 0.76881 0.0
C226 C 0.53007 0.56784 0.77394 0.0
C227 C 0.58076 0.56576 0.755 0.0
C228 C 0.57932 0.5419 0.73097 0.0
C229 C 0.52928 0.52087 0.72525 0.0
C230 C 0.54147 0.49486 0.6999 0.0
C231 C 0.53437 0.45621 0.7108 0.0
C232 C 0.50042 0.50256 0.6726 0.0
C233 C 0.60692 0.50364 0.69301 0.0
C234 C 0.62759 0.53125 0.71082 0.0
C235 C 0.68779 0.54229 0.71015 0.0
C236 C 0.72822 0.52416 0.69125 0.0
C237 C 0.70834 0.49515 0.67344 0.0
C238 C 0.64655 0.48542 0.67389 0.0
H239 H 0.76246 0.01545 0.67767 0.0
H240 H 0.6282 0.01336 0.74917 0.0
H241 H 0.69984 0.98111 0.78199 0.0
H242 H 0.8311 0.92801 0.69378 0.0
H243 H 0.9067 0.94339 0.68576 0.0
H244 H 0.8428 0.96301 0.66659 0.0
H245 H 0.87596 0.02541 0.68498 0.0
H246 H 0.93989 0.00602 0.70412 0.0
H247 H 0.88687 0.03306 0.72481 0.0
H248 H 0.78731 0.95297 0.80823 0.0
H249 H 0.8869 0.93316 0.82707 0.0
H250 H 0.9655 0.95421 0.739 0.0
C251 C 0.74787 0.00765 0.70005 0.0
C252 C 0.68975 0.01675 0.71085 0.0
C253 C 0.67259 0.0067 0.74045 0.0
C254 C 0.7128 0.98818 0.75921 0.0
C255 C 0.77002 0.97996 0.74805 0.0
C256 C 0.7877 0.98941 0.71921 0.0
C257 C 0.85337 0.97976 0.71364 0.0
C258 C 0.85878 0.95188 0.68845 0.0
C259 C 0.89124 0.01304 0.70648 0.0
C260 C 0.87009 0.96416 0.74408 0.0
C261 C 0.82108 0.96409 0.76343 0.0
C262 C 0.82594 0.95255 0.79322 0.0
C263 C 0.88274 0.94137 0.80371 0.0
C264 C 0.934 0.94207 0.7845 0.0
C265 C 0.92711 0.95303 0.75416 0.0
H266 H 0.13086 0.53271 0.83818 0.0
H267 H 0.27663 0.46426 0.80752 0.0
H268 H 0.20513 0.43289 0.77402 0.0
H269 H 0.00682 0.46497 0.83353 0.0
H270 H 0.95319 0.49758 0.82022 0.0
H271 H 0.01342 0.51061 0.84542 0.0
H272 H 0.04768 0.55846 0.80695 0.0
H273 H 0.98806 0.54544 0.78159 0.0
H274 H 0.06556 0.54537 0.76884 0.0
H275 H 0.12201 0.4149 0.73876 0.0
H276 H 0.03269 0.41069 0.70531 0.0
H277 H 0.94089 0.49053 0.75915 0.0
C278 C 0.14742 0.51042 0.82513 0.0
C279 C 0.20929 0.50083 0.8256 0.0
C280 C 0.22936 0.47199 0.80766 0.0
C281 C 0.18905 0.45394 0.78859 0.0
C282 C 0.12874 0.46486 0.7879 0.0
C283 C 0.10782 0.4922 0.80592 0.0
C284 C 0.04235 0.501 0.79887 0.0
C285 C 0.00153 0.49306 0.82614 0.0
C286 C 0.03557 0.53986 0.78844 0.0
C287 C 0.03044 0.47528 0.7733 0.0
C288 C 0.08058 0.45435 0.76755 0.0
C289 C 0.08205 0.43063 0.74341 0.0
C290 C 0.0312 0.42853 0.72447 0.0
C291 C 0.97969 0.45011 0.72973 0.0
C292 C 0.97915 0.47326 0.75482 0.0
H293 H 0.29226 0.91735 0.77807 0.0
H294 H 0.18149 0.01109 0.79287 0.0
H295 H 0.24536 0.04485 0.7572 0.0
H296 H 0.43521 0.96227 0.7722 0.0
H297 H 0.46327 0.93335 0.74298 0.0
H298 H 0.40921 0.91694 0.77 0.0
H299 H 0.33769 0.89828 0.72629 0.0
H300 H 0.39142 0.91478 0.69914 0.0
H301 H 0.31452 0.93091 0.69876 0.0
H302 H 0.32306 0.06865 0.72061 0.0
H303 H 0.40726 0.08007 0.68505 0.0
H304 H 0.46356 0.96992 0.69315 0.0
C305 C 0.28153 0.94502 0.77394 0.0
C306 C 0.23209 0.96164 0.78833 0.0
C307 C 0.21923 0.99782 0.78209 0.0
C308 C 0.25522 0.01722 0.76189 0.0
C309 C 0.3035 -5e-05 0.74798 0.0
C310 C 0.31654 0.96464 0.75368 0.0
C311 C 0.37046 0.95215 0.73555 0.0
C312 C 0.42261 0.9405 0.75643 0.0
C313 C 0.35241 0.92227 0.71364 0.0
C314 C 0.38584 0.98598 0.71881 0.0
C315 C 0.34697 0.01333 0.72636 0.0
C316 C 0.35356 0.04738 0.71437 0.0
C317 C 0.40142 0.05361 0.69423 0.0
C318 C 0.44153 0.02582 0.68618 0.0
C319 C 0.43316 0.9916 0.69854 0.0
H320 H 0.04009 0.54081 0.45102 0.0
H321 H 0.19309 0.46908 0.44143 0.0
H322 H 0.16436 0.43917 0.48887 0.0
H323 H 0.04964 0.55023 0.53174 0.0
H324 H 0.96871 0.5513 0.53703 0.0
H325 H 0.00114 0.56709 0.50222 0.0
H326 H 0.93352 0.52337 0.47207 0.0
H327 H 0.90088 0.50745 0.50678 0.0
H328 H 0.9358 0.47664 0.48098 0.0
H329 H 0.11891 0.41679 0.53694 0.0
H330 H 0.06016 0.40361 0.58289 0.0
H331 H 0.93706 0.49019 0.56151 0.0
C332 C 0.06759 0.51882 0.45887 0.0
C333 C 0.11885 0.50728 0.44248 0.0
C334 C 0.15364 0.47842 0.45358 0.0
C335 C 0.1377 0.46124 0.4805 0.0
C336 C 0.08693 0.47327 0.49607 0.0
C337 C 0.05241 0.50141 0.48572 0.0
C338 C 7e-05 0.5091 0.50682 0.0
C339 C 0.00523 0.54666 0.52025 0.0
C340 C 0.93896 0.50381 0.4907 0.0
C341 C 0.01055 0.48085 0.53062 0.0
C342 C 0.06086 0.46046 0.52395 0.0
C343 C 0.07947 0.43258 0.54245 0.0
C344 C 0.04574 0.42531 0.56849 0.0
C345 C 0.99403 0.44588 0.57584 0.0
C346 C 0.97642 0.47403 0.55658 0.0
H347 H 0.38729 0.94597 0.464 0.0
H348 H 0.48551 0.99337 0.38923 0.0
H349 H 0.55423 0.02293 0.42527 0.0
H350 H 0.39462 0.02117 0.51278 0.0
H351 H 0.40412 0.99519 0.54668 0.0
H352 H 0.36396 0.97685 0.51491 0.0
H353 H 0.43703 0.92288 0.51454 0.0
H354 H 0.4776 0.94118 0.54625 0.0
H355 H 0.51754 0.93032 0.51201 0.0
H356 H 0.61092 0.04851 0.46949 0.0
H357 H 0.64933 0.06951 0.51878 0.0
H358 H 0.51416 0.00516 0.56437 0.0
C359 C 0.42332 0.96248 0.45517 0.0
C360 C 0.43097 0.96733 0.42378 0.0
C361 C 0.47866 0.98925 0.41319 0.0
C362 C 0.51809 0.0061 0.43347 0.0
C363 C 0.50932 0.00071 0.46425 0.0
C364 C 0.46307 0.9795 0.47507 0.0
C365 C 0.46255 0.9788 0.50924 0.0
C366 C 0.40277 0.99391 0.52162 0.0
C367 C 0.4744 0.94105 0.52121 0.0
C368 C 0.51533 0.00322 0.51592 0.0
C369 C 0.54195 0.01544 0.48969 0.0
C370 C 0.59062 0.03901 0.4902 0.0
C371 C 0.61215 0.05076 0.5183 0.0
C372 C 0.58486 0.03897 0.54544 0.0
C373 C 0.53628 0.01456 0.54407 0.0
H374 H 0.52566 0.47325 0.0568 0.0
H375 H 0.7068 0.51786 0.05216 0.0
H376 H 0.68376 0.54229 0.00168 0.0
H377 H 0.51662 0.44752 0.9787 0.0
H378 H 0.43735 0.4583 0.97516 0.0
H379 H 0.46768 0.44478 0.01116 0.0
H380 H 0.42709 0.50269 0.03547 0.0
H381 H 0.39658 0.51638 -0.00045 0.0
H382 H 0.44822 0.54503 0.01959 0.0
H383 H 0.64073 0.56258 0.9522 0.0
H384 H 0.58161 0.57605 0.9063 0.0
H385 H 0.4293 0.51681 0.94248 0.0
C386 C 0.56044 0.48826 0.04523 0.0
C387 C 0.61798 0.49377 0.05847 0.0
C388 C 0.66241 0.5133 0.04246 0.0
C389 C 0.64975 0.52731 0.01379 0.0
C390 C 0.59262 0.52135 0.00139 0.0
C391 C 0.54876 0.50217 0.0165 0.0
C392 C 0.49131 0.49914 -0.00209 0.0
C393 C 0.47745 0.46012 0.99028 0.0
C394 C 0.43764 0.51688 0.0141 0.0
C395 C 0.50964 0.5198 0.97003 0.0
C396 C 0.56818 0.53246 0.97257 0.0
C397 C 0.59492 0.55272 0.9499 0.0
C398 C 0.5609 0.56026 0.92394 0.0
C399 C 0.50089 0.54742 0.92076 0.0
C400 C 0.47516 0.52684 0.94415 0.0
H401 H 0.94264 0.94246 0.94267 0.0
H402 H 0.11468 0.99472 0.92575 0.0
H403 H 0.10442 0.02769 0.97362 0.0
H404 H 0.86749 0.01783 0.97461 0.0
H405 H 0.82662 0.9922 0.00229 0.0
H406 H 0.84798 0.97221 0.96695 0.0
H407 H 0.9036 0.92179 0.99574 0.0
H408 H 0.8823 0.9416 0.03118 0.0
H409 H 0.96097 0.93296 0.02315 0.0
H410 H 0.07505 0.05535 0.02295 0.0
H411 H 0.02878 0.07567 0.07056 0.0
H412 H 0.87578 0.00543 0.05511 0.0
C413 C 0.9783 0.96073 0.94904 0.0
C414 C 0.02949 0.96599 0.93048 0.0
C415 C 0.07503 0.99025 0.93962 0.0
C416 C 0.06965 0.0091 0.96676 0.0
C417 C 0.01848 0.00338 0.98446 0.0
C418 C 0.97363 0.97978 0.97601 0.0
C419 C 0.92295 0.97877 -0.00102 0.0
C420 C 0.86271 0.99099 0.98486 0.0
C421 C 0.91715 0.94157 0.0131 0.0
C422 C 0.9463 0.00552 0.02165 0.0
C423 C 0.00147 0.01939 0.01286 0.0
C424 C 0.03188 0.04466 0.0301 0.0
C425 C 0.00519 0.05605 0.0571 0.0
C426 C 0.94866 0.04215 0.06656 0.0
C427 C 0.91901 0.01656 0.04851 0.0
H428 H 0.1639 0.68392 0.36406 0.0
H429 H 0.32598 0.62614 0.39034 0.0
H430 H 0.38136 0.6827 0.39529 0.0
H431 H 0.23765 0.74654 0.31841 0.0
H432 H 0.18954 0.78336 0.32851 0.0
H433 H 0.1606 0.73871 0.33011 0.0
H434 H 0.13141 0.74774 0.38624 0.0
H435 H 0.16019 0.79251 0.3848 0.0
H436 H 0.18831 0.76194 0.41287 0.0
H437 H 0.42116 0.74474 0.39399 0.0
H438 H 0.44326 0.80821 0.38552 0.0
H439 H 0.25583 0.82578 0.35947 0.0
C440 C 0.21071 0.68322 0.3714 0.0
C441 C 0.24054 0.65064 0.37696 0.0
C442 C 0.30217 0.65079 0.38598 0.0
C443 C 0.33398 0.68279 0.38897 0.0
C444 C 0.30355 0.7144 0.38287 0.0
C445 C 0.24331 0.71493 0.3743 0.0
C446 C 0.2225 0.75236 0.36711 0.0
C447 C 0.20135 0.7554 0.33408 0.0
C448 C 0.17265 0.76434 0.38907 0.0
C449 C 0.28079 0.77264 0.37239 0.0
C450 C 0.32679 0.75029 0.38179 0.0
C451 C 0.3854 0.7626 0.38691 0.0
C452 C 0.39752 0.79869 0.38199 0.0
C453 C 0.3513 0.82199 0.37188 0.0
C454 C 0.29205 0.80873 0.36742 0.0
H455 H 0.88327 0.20701 0.15281 0.0
H456 H 0.72669 0.14838 0.12031 0.0
H457 H 0.67354 0.20464 0.11034 0.0
H458 H 0.80013 0.27542 0.1905 0.0
H459 H 0.85199 0.31044 0.18041 0.0
H460 H 0.87903 0.2655 0.18421 0.0
H461 H 0.92194 0.26797 0.12981 0.0
H462 H 0.89493 0.31293 0.12584 0.0
H463 H 0.87239 0.27954 0.09893 0.0
H464 H 0.63617 0.26662 0.10471 0.0
H465 H 0.61625 0.33107 0.10459 0.0
H466 H 0.79639 0.35005 0.14078 0.0
C467 C 0.83793 0.20601 0.14349 0.0
C468 C 0.80927 0.17322 0.13733 0.0
C469 C 0.74973 0.17311 0.12523 0.0
C470 C 0.71908 0.20494 0.11942 0.0
C471 C 0.7485 0.23674 0.12577 0.0
C472 C 0.80651 0.23762 0.13755 0.0
C473 C 0.8271 0.27553 0.14284 0.0
C474 C 0.84032 0.28209 0.17649 0.0
C475 C 0.88237 0.28451 0.12318 0.0
C476 C 0.77134 0.29567 0.13247 0.0
C477 C 0.72672 0.27274 0.12257 0.0
C478 C 0.67079 0.28491 0.1123 0.0
C479 C 0.65993 0.32158 0.11232 0.0
C480 C 0.70474 0.34563 0.12262 0.0
C481 C 0.76129 0.33238 0.13264 0.0
H482 H 0.64847 0.19032 0.6975 0.0
H483 H 0.65626 0.16833 0.60132 0.0
H484 H 0.70169 0.22728 0.59256 0.0
H485 H 0.61206 0.28443 0.69079 0.0
H486 H 0.6582 0.29678 0.72271 0.0
H487 H 0.62377 0.25342 0.7213 0.0
H488 H 0.72923 0.22421 0.72836 0.0
H489 H 0.76399 0.26745 0.72969 0.0
H490 H 0.78951 0.2351 0.70253 0.0
H491 H 0.74985 0.28738 0.59437 0.0
H492 H 0.79645 0.34515 0.60654 0.0
H493 H 0.75725 0.3282 0.70155 0.0
C494 C 0.65921 0.19799 0.67456 0.0
C495 C 0.64873 0.1747 0.65009 0.0
C496 C 0.66379 0.18572 0.62043 0.0
C497 C 0.6896 0.21916 0.61521 0.0
C498 C 0.69989 0.24131 0.63985 0.0
C499 C 0.68501 0.23129 0.66893 0.0
C500 C 0.70215 0.25979 0.6915 0.0
C501 C 0.64568 0.27447 0.70751 0.0
C502 C 0.74901 0.24579 0.71436 0.0
C503 C 0.72967 0.28721 0.67059 0.0
C504 C 0.7277 0.27606 0.64089 0.0
C505 C 0.7514 0.2965 0.61752 0.0
C506 C 0.77787 0.32926 0.62469 0.0
C507 C 0.78049 0.34124 0.655 0.0
C508 C 0.75581 0.31987 0.67817 0.0
H509 H 0.25364 0.66383 0.79328 0.0
H510 H 0.29339 0.65299 0.88894 0.0
H511 H 0.24371 0.71055 0.89863 0.0
H512 H 0.28125 0.75704 0.78867 0.0
H513 H 0.22085 0.76544 0.76217 0.0
H514 H 0.25757 0.72272 0.76285 0.0
H515 H 0.15366 0.69204 0.77064 0.0
H516 H 0.1166 0.73471 0.77005 0.0
H517 H 0.10636 0.70534 0.8018 0.0
H518 H 0.19261 0.76981 0.89787 0.0
H519 H 0.14452 0.82747 0.88662 0.0
H520 H 0.13758 0.79985 0.79147 0.0
C521 C 0.25167 0.67345 0.81629 0.0
C522 C 0.27739 0.65387 0.84036 0.0
C523 C 0.27405 0.6675 0.87012 0.0
C524 C 0.24581 0.70014 0.87588 0.0
C525 C 0.22107 0.71879 0.85166 0.0
C526 C 0.2237 0.70601 0.82245 0.0
C527 C 0.19486 0.73177 0.80039 0.0
C528 C 0.24142 0.74503 0.77716 0.0
C529 C 0.13958 0.71495 0.78481 0.0
C530 C 0.17607 0.76116 0.82175 0.0
C531 C 0.19143 0.75305 0.85122 0.0
C532 C 0.18009 0.77641 0.87491 0.0
C533 C 0.15278 0.80911 0.86826 0.0
C534 C 0.13714 0.81817 0.83817 0.0
C535 C 0.14855 0.79363 0.81472 0.0
loop_
_geom_bond_atom_site_label_1
_geom_bond_atom_site_label_2
_geom_bond_distance
_geom_bond_site_symmetry_2
_ccdc_geom_bond_type
C0 O1 1.160 . S
C0 O7 1.185 . S
O1 C0 1.160 . S
O2 Zn3 1.899 . S
O2 C10 1.284 . S
Zn3 O2 1.899 . S
Zn3 O4 2.032 . S
Zn3 O7 2.086 . S
Zn3 O12 1.977 . S
O4 Zn3 2.032 . S
O4 C8 1.278 . S
C5 O6 1.203 . S
C5 O12 1.267 . S
O6 C5 1.203 . S
O7 C0 1.185 . S
O7 Zn3 2.086 . S
C8 O4 1.278 . S
C8 O9 1.211 . S
O9 C8 1.211 . S
C10 O2 1.284 . S
C10 O11 1.273 . S
O11 C10 1.273 . S
O12 Zn3 1.977 . S
O12 C5 1.267 . S
C13 O14 1.160 . S
C13 O20 1.185 . S
O14 C13 1.160 . S
O15 Zn16 1.899 . S
O15 C23 1.284 . S
Zn16 O15 1.899 . S
Zn16 O17 2.032 . S
Zn16 O20 2.086 . S
Zn16 O25 1.977 . S
O17 Zn16 2.032 . S
O17 C21 1.278 . S
C18 O19 1.203 . S
C18 O25 1.267 . S
O19 C18 1.203 . S
O20 C13 1.185 . S
O20 Zn16 2.086 . S
C21 O17 1.278 . S
C21 O22 1.211 . S
O22 C21 1.211 . S
C23 O15 1.284 . S
C23 O24 1.273 . S
O24 C23 1.273 . S
O25 Zn16 1.977 . S
O25 C18 1.267 . S
C26 O27 1.160 . S
C26 O33 1.185 . S
O27 C26 1.160 . S
O28 Zn29 1.899 . S
O28 C36 1.284 . S
Zn29 O28 1.899 . S
Zn29 O30 2.032 . S
Zn29 O33 2.086 . S
Zn29 O38 1.977 . S
O30 Zn29 2.032 . S
O30 C34 1.278 . S
C31 O32 1.203 . S
C31 O38 1.267 . S
O32 C31 1.203 . S
O33 C26 1.185 . S
O33 Zn29 2.086 . S
C34 O30 1.278 . S
C34 O35 1.211 . S
O35 C34 1.211 . S
C36 O28 1.284 . S
C36 O37 1.273 . S
O37 C36 1.273 . S
O38 Zn29 1.977 . S
O38 C31 1.267 . S
C39 O40 1.160 . S
C39 O46 1.185 . S
O40 C39 1.160 . S
O41 Zn42 1.899 . S
O41 C49 1.284 . S
Zn42 O41 1.899 . S
Zn42 O43 2.032 . S
Zn42 O46 2.086 . S
Zn42 O51 1.977 . S
O43 Zn42 2.032 . S
O43 C47 1.278 . S
C44 O45 1.203 . S
C44 O51 1.267 . S
O45 C44 1.203 . S
O46 C39 1.185 . S
O46 Zn42 2.086 . S
C47 O43 1.278 . S
C47 O48 1.211 . S
O48 C47 1.211 . S
C49 O41 1.284 . S
C49 O50 1.273 . S
O50 C49 1.273 . S
O51 Zn42 1.977 . S
O51 C44 1.267 . S
C52 O53 1.160 . S
C52 O59 1.185 . S
O53 C52 1.160 . S
O54 Zn55 1.899 . S
O54 C62 1.284 . S
Zn55 O54 1.899 . S
Zn55 O56 2.032 . S
Zn55 O59 2.086 . S
Zn55 O64 1.977 . S
O56 Zn55 2.032 . S
O56 C60 1.278 . S
C57 O58 1.203 . S
C57 O64 1.267 . S
O58 C57 1.203 . S
O59 C52 1.185 . S
O59 Zn55 2.086 . S
C60 O56 1.278 . S
C60 O61 1.211 . S
O61 C60 1.211 . S
C62 O54 1.284 . S
C62 O63 1.273 . S
O63 C62 1.273 . S
O64 Zn55 1.977 . S
O64 C57 1.267 . S
C65 O66 1.160 . S
C65 O72 1.185 . S
O66 C65 1.160 . S
O67 Zn68 1.899 . S
O67 C75 1.284 . S
Zn68 O67 1.899 . S
Zn68 O69 2.032 . S
Zn68 O72 2.086 . S
Zn68 O77 1.977 . S
O69 Zn68 2.032 . S
O69 C73 1.278 . S
C70 O71 1.203 . S
C70 O77 1.267 . S
O71 C70 1.203 . S
O72 C65 1.185 . S
O72 Zn68 2.086 . S
C73 O69 1.278 . S
C73 O74 1.211 . S
O74 C73 1.211 . S
C75 O67 1.284 . S
C75 O76 1.273 . S
O76 C75 1.273 . S
O77 Zn68 1.977 . S
O77 C70 1.267 . S
C78 O79 1.160 . S
C78 O85 1.185 . S
O79 C78 1.160 . S
O80 Zn81 1.899 . S
O80 C88 1.284 . S
Zn81 O80 1.899 . S
Zn81 O82 2.032 . S
Zn81 O85 2.086 . S
Zn81 O90 1.977 . S
O82 Zn81 2.032 . S
O82 C86 1.278 . S
C83 O84 1.203 . S
C83 O90 1.267 . S
O84 C83 1.203 . S
O85 C78 1.185 . S
O85 Zn81 2.086 . S
C86 O82 1.278 . S
C86 O87 1.211 . S
O87 C86 1.211 . S
C88 O80 1.284 . S
C88 O89 1.273 . S
O89 C88 1.273 . S
O90 Zn81 1.977 . S
O90 C83 1.267 . S
C91 O92 1.160 . S
C91 O98 1.185 . S
O92 C91 1.160 . S
O93 Zn94 1.899 . S
O93 C101 1.284 . S
Zn94 O93 1.899 . S
Zn94 O95 2.032 . S
Zn94 O98 2.086 . S
Zn94 O103 1.977 . S
O95 Zn94 2.032 . S
O95 C99 1.278 . S
C96 O97 1.203 . S
C96 O103 1.267 . S
O97 C96 1.203 . S
O98 C91 1.185 . S
O98 Zn94 2.086 . S
C99 O95 1.278 . S
C99 O100 1.211 . S
O100 C99 1.211 . S
C101 O93 1.284 . S
C101 O102 1.273 . S
O102 C101 1.273 . S
O103 Zn94 1.977 . S
O103 C96 1.267 . S
H104 C116 0.930 . S
H105 C118 0.930 . S
H106 C119 0.930 . S
H107 C123 0.959 . S
H108 C123 0.959 . S
H109 C123 0.961 . S
H110 C124 0.960 . S
H111 C124 0.961 . S
H112 C124 0.959 . S
H113 C127 0.929 . S
H114 C128 0.931 . S
H115 C130 0.930 . S
C116 H104 0.930 . S
C116 C117 1.399 . S
C116 C121 1.399 . S
C117 C116 1.399 . S
C117 C118 1.376 . S
C118 H105 0.930 . S
C118 C117 1.376 . S
C118 C119 1.388 . S
C119 H106 0.930 . S
C119 C118 1.388 . S
C119 C120 1.390 . S
C120 C119 1.390 . S
C120 C121 1.394 . S
C120 C126 1.465 . S
C121 C116 1.399 . S
C121 C120 1.394 . S
C121 C122 1.516 . S
C122 C121 1.516 . S
C122 C123 1.502 . S
C122 C124 1.561 . S
C122 C125 1.526 . S
C123 H107 0.959 . S
C123 H108 0.959 . S
C123 H109 0.961 . S
C123 C122 1.502 . S
C124 H110 0.960 . S
C124 H111 0.961 . S
C124 H112 0.959 . S
C124 C122 1.561 . S
C125 C122 1.526 . S
C125 C126 1.396 . S
C125 C130 1.390 . S
C126 C120 1.465 . S
C126 C125 1.396 . S
C126 C127 1.399 . S
C127 H113 0.929 . S
C127 C126 1.399 . S
C127 C128 1.385 . S
C128 H114 0.931 . S
C128 C127 1.385 . S
C128 C129 1.389 . S
C129 C128 1.389 . S
C129 C130 1.387 . S
C130 H115 0.930 . S
C130 C125 1.390 . S
C130 C129 1.387 . S
H131 C143 0.930 1_565 S
H132 C145 0.930 1_655 S
H133 C146 0.930 . S
H134 C150 0.959 . S
H135 C150 0.959 . S
H136 C150 0.961 . S
H137 C151 0.960 . S
H138 C151 0.961 . S
H139 C151 0.959 . S
H140 C154 0.929 . S
H141 C155 0.931 . S
H142 C157 0.930 . S
C143 H131 0.930 1_545 S
C143 C144 1.399 1_455 S
C143 C148 1.399 . S
C144 C143 1.399 1_655 S
C144 C145 1.376 1_655 S
C145 H132 0.930 1_455 S
C145 C144 1.376 1_455 S
C145 C146 1.388 . S
C146 H133 0.930 . S
C146 C145 1.388 . S
C146 C147 1.390 . S
C147 C146 1.390 . S
C147 C148 1.394 . S
C147 C153 1.465 . S
C148 C143 1.399 . S
C148 C147 1.394 . S
C148 C149 1.516 1_545 S
C149 C148 1.516 1_565 S
C149 C150 1.502 . S
C149 C151 1.561 . S
C149 C152 1.526 . S
C150 H134 0.959 . S
C150 H135 0.959 . S
C150 H136 0.961 . S
C150 C149 1.502 . S
C151 H137 0.960 . S
C151 H138 0.961 . S
C151 H139 0.959 . S
C151 C149 1.561 . S
C152 C149 1.526 . S
C152 C153 1.396 1_565 S
C152 C157 1.390 . S
C153 C147 1.465 . S
C153 C152 1.396 1_545 S
C153 C154 1.399 . S
C154 H140 0.929 . S
C154 C153 1.399 . S
C154 C155 1.385 . S
C155 H141 0.931 . S
C155 C154 1.385 . S
C155 C156 1.389 1_545 S
C156 C155 1.389 1_565 S
C156 C157 1.387 . S
C157 H142 0.930 . S
C157 C152 1.390 . S
C157 C156 1.387 . S
H158 C170 0.930 . S
H159 C172 0.930 . S
H160 C173 0.930 . S
H161 C177 0.959 . S
H162 C177 0.959 . S
H163 C177 0.961 . S
H164 C178 0.960 . S
H165 C178 0.961 . S
H166 C178 0.959 . S
H167 C181 0.929 . S
H168 C182 0.931 1_455 S
H169 C184 0.930 . S
C170 H158 0.930 . S
C170 C171 1.399 . S
C170 C175 1.399 . S
C171 C170 1.399 . S
C171 C172 1.376 . S
C172 H159 0.930 . S
C172 C171 1.376 . S
C172 C173 1.388 . S
C173 H160 0.930 . S
C173 C172 1.388 . S
C173 C174 1.390 . S
C174 C173 1.390 . S
C174 C175 1.394 . S
C174 C180 1.465 . S
C175 C170 1.399 . S
C175 C174 1.394 . S
C175 C176 1.516 . S
C176 C175 1.516 . S
C176 C177 1.502 . S
C176 C178 1.561 . S
C176 C179 1.526 . S
C177 H161 0.959 . S
C177 H162 0.959 . S
C177 H163 0.961 . S
C177 C176 1.502 . S
C178 H164 0.960 . S
C178 H165 0.961 . S
C178 H166 0.959 . S
C178 C176 1.561 . S
C179 C176 1.526 . S
C179 C180 1.396 . S
C179 C184 1.390 . S
C180 C174 1.465 . S
C180 C179 1.396 . S
C180 C181 1.399 . S
C181 H167 0.929 . S
C181 C180 1.399 . S
C181 C182 1.385 . S
C182 H168 0.931 1_655 S
C182 C181 1.385 . S
C182 C183 1.389 1_655 S
C183 C182 1.389 1_455 S
C183 C184 1.387 1_455 S
C184 H169 0.930 . S
C184 C179 1.390 . S
C184 C183 1.387 1_655 S
H185 C197 0.930 . S
H186 C199 0.930 . S
H187 C200 0.930 . S
H188 C204 0.959 . S
H189 C204 0.959 . S
H190 C204 0.961 . S
H191 C205 0.960 . S
H192 C205 0.961 . S
H193 C205 0.959 . S
H194 C208 0.929 . S
H195 C209 0.931 . S
H196 C211 0.930 . S
C197 H185 0.930 . S
C197 C198 1.399 1_565 S
C197 C202 1.399 . S
C198 C197 1.399 1_545 S
C198 C199 1.376 . S
C199 H186 0.930 . S
C199 C198 1.376 . S
C199 C200 1.388 . S
C200 H187 0.930 . S
C200 C199 1.388 . S
C200 C201 1.390 . S
C201 C200 1.390 . S
C201 C202 1.394 1_545 S
C201 C207 1.465 1_545 S
C202 C197 1.399 . S
C202 C201 1.394 1_565 S
C202 C203 1.516 . S
C203 C202 1.516 . S
C203 C204 1.502 . S
C203 C205 1.561 . S
C203 C206 1.526 . S
C204 H188 0.959 . S
C204 H189 0.959 . S
C204 H190 0.961 . S
C204 C203 1.502 . S
C205 H191 0.960 . S
C205 H192 0.961 . S
C205 H193 0.959 . S
C205 C203 1.561 . S
C206 C203 1.526 . S
C206 C207 1.396 . S
C206 C211 1.390 . S
C207 C201 1.465 1_565 S
C207 C206 1.396 . S
C207 C208 1.399 1_565 S
C208 H194 0.929 . S
C208 C207 1.399 1_545 S
C208 C209 1.385 1_545 S
C209 H195 0.931 . S
C209 C208 1.385 1_565 S
C209 C210 1.389 . S
C210 C209 1.389 . S
C210 C211 1.387 . S
C211 H196 0.930 . S
C211 C206 1.390 . S
C211 C210 1.387 . S
H212 C224 0.930 . S
H213 C226 0.930 . S
H214 C227 0.930 . S
H215 C231 0.959 . S
H216 C231 0.959 . S
H217 C231 0.961 . S
H218 C232 0.960 . S
H219 C232 0.961 . S
H220 C232 0.959 . S
H221 C235 0.929 . S
H222 C236 0.931 . S
H223 C238 0.930 . S
C224 H212 0.930 . S
C224 C225 1.399 . S
C224 C229 1.399 . S
C225 C224 1.399 . S
C225 C226 1.376 . S
C226 H213 0.930 . S
C226 C225 1.376 . S
C226 C227 1.388 . S
C227 H214 0.930 . S
C227 C226 1.388 . S
C227 C228 1.390 . S
C228 C227 1.390 . S
C228 C229 1.394 . S
C228 C234 1.465 . S
C229 C224 1.399 . S
C229 C228 1.394 . S
C229 C230 1.516 . S
C230 C229 1.516 . S
C230 C231 1.502 . S
C230 C232 1.561 . S
C230 C233 1.526 . S
C231 H215 0.959 . S
C231 H216 0.959 . S
C231 H217 0.961 . S
C231 C230 1.502 . S
C232 H218 0.960 . S
C232 H219 0.961 . S
C232 H220 0.959 . S
C232 C230 1.561 . S
C233 C230 1.526 . S
C233 C234 1.396 . S
C233 C238 1.390 . S
C234 C228 1.465 . S
C234 C233 1.396 . S
C234 C235 1.399 . S
C235 H221 0.929 . S
C235 C234 1.399 . S
C235 C236 1.385 . S
C236 H222 0.931 . S
C236 C235 1.385 . S
C236 C237 1.389 . S
C237 C236 1.389 . S
C237 C238 1.387 . S
C238 H223 0.930 . S
C238 C233 1.390 . S
C238 C237 1.387 . S
H239 C251 0.927 1_565 S
H240 C253 0.930 . S
H241 C254 0.930 . S
H242 C258 0.959 . S
H243 C258 0.959 . S
H244 C258 0.961 . S
H245 C259 0.960 . S
H246 C259 0.961 1_455 S
H247 C259 0.959 1_545 S
H248 C262 0.942 . S
H249 C263 0.931 . S
H250 C265 0.930 1_455 S
C251 H239 0.927 1_545 S
C251 C252 1.403 . S
C251 C256 1.398 1_545 S
C252 C251 1.403 . S
C252 C253 1.376 . S
C253 H240 0.930 . S
C253 C252 1.376 . S
C253 C254 1.388 . S
C254 H241 0.930 . S
C254 C253 1.388 . S
C254 C255 1.390 . S
C255 C254 1.390 . S
C255 C256 1.394 1_545 S
C255 C261 1.465 1_545 S
C256 C251 1.398 1_565 S
C256 C255 1.394 1_565 S
C256 C257 1.516 . S
C257 C256 1.516 . S
C257 C258 1.502 . S
C257 C259 1.561 . S
C257 C260 1.526 . S
C258 H242 0.959 . S
C258 H243 0.959 . S
C258 H244 0.961 . S
C258 C257 1.502 . S
C259 H245 0.960 . S
C259 H246 0.961 1_655 S
C259 H247 0.959 1_565 S
C259 C257 1.561 . S
C260 C257 1.526 . S
C260 C261 1.396 . S
C260 C265 1.390 . S
C261 C255 1.465 1_565 S
C261 C260 1.396 . S
C261 C262 1.396 1_565 S
C262 H248 0.942 . S
C262 C261 1.396 1_545 S
C262 C263 1.376 1_545 S
C263 H249 0.931 . S
C263 C262 1.376 1_565 S
C263 C264 1.389 1_655 S
C264 C263 1.389 1_455 S
C264 C265 1.387 1_455 S
C265 H250 0.930 1_655 S
C265 C260 1.390 . S
C265 C264 1.387 1_655 S
H266 C278 0.930 . S
H267 C280 0.930 . S
H268 C281 0.930 . S
H269 C285 0.959 . S
H270 C285 0.959 1_655 S
H271 C285 0.961 . S
H272 C286 0.960 . S
H273 C286 0.961 . S
H274 C286 0.959 . S
H275 C289 0.929 . S
H276 C290 0.931 . S
H277 C292 0.930 . S
C278 H266 0.930 . S
C278 C279 1.399 . S
C278 C283 1.399 . S
C279 C278 1.399 . S
C279 C280 1.376 . S
C280 H267 0.930 . S
C280 C279 1.376 . S
C280 C281 1.388 . S
C281 H268 0.930 . S
C281 C280 1.388 . S
C281 C282 1.390 . S
C282 C281 1.390 . S
C282 C283 1.394 . S
C282 C288 1.465 . S
C283 C278 1.399 . S
C283 C282 1.394 . S
C283 C284 1.516 . S
C284 C283 1.516 . S
C284 C285 1.502 . S
C284 C286 1.561 . S
C284 C287 1.526 . S
C285 H269 0.959 . S
C285 H270 0.959 1_455 S
C285 H271 0.961 . S
C285 C284 1.502 . S
C286 H272 0.960 . S
C286 H273 0.961 . S
C286 H274 0.959 . S
C286 C284 1.561 . S
C287 C284 1.526 . S
C287 C288 1.396 . S
C287 C292 1.390 1_455 S
C288 C282 1.465 . S
C288 C287 1.396 . S
C288 C289 1.399 . S
C289 H275 0.929 . S
C289 C288 1.399 . S
C289 C290 1.385 . S
C290 H276 0.931 . S
C290 C289 1.385 . S
C290 C291 1.389 1_455 S
C291 C290 1.389 1_655 S
C291 C292 1.387 . S
C292 H277 0.930 . S
C292 C287 1.390 1_655 S
C292 C291 1.387 . S
H293 C305 0.930 . S
H294 C307 0.930 . S
H295 C308 0.930 . S
H296 C312 0.959 1_545 S
H297 C312 0.959 . S
H298 C312 0.961 . S
H299 C313 0.960 . S
H300 C313 0.961 . S
H301 C313 0.959 . S
H302 C316 0.929 . S
H303 C317 0.931 . S
H304 C319 0.930 . S
C305 H293 0.930 . S
C305 C306 1.399 . S
C305 C310 1.399 . S
C306 C305 1.399 . S
C306 C307 1.376 1_565 S
C307 H294 0.930 . S
C307 C306 1.376 1_545 S
C307 C308 1.388 . S
C308 H295 0.930 . S
C308 C307 1.388 . S
C308 C309 1.390 . S
C309 C308 1.390 . S
C309 C310 1.394 1_545 S
C309 C315 1.465 . S
C310 C305 1.399 . S
C310 C309 1.394 1_565 S
C310 C311 1.516 . S
C311 C310 1.516 . S
C311 C312 1.502 . S
C311 C313 1.561 . S
C311 C314 1.526 1_565 S
C312 H296 0.959 1_565 S
C312 H297 0.959 . S
C312 H298 0.961 . S
C312 C311 1.502 . S
C313 H299 0.960 . S
C313 H300 0.961 . S
C313 H301 0.959 . S
C313 C311 1.561 . S
C314 C311 1.526 1_545 S
C314 C315 1.396 . S
C314 C319 1.390 . S
C315 C309 1.465 . S
C315 C314 1.396 . S
C315 C316 1.399 . S
C316 H302 0.929 . S
C316 C315 1.399 . S
C316 C317 1.385 . S
C317 H303 0.931 . S
C317 C316 1.385 . S
C317 C318 1.389 . S
C318 C317 1.389 . S
C318 C319 1.387 . S
C319 H304 0.930 . S
C319 C314 1.390 . S
C319 C318 1.387 . S
H320 C332 0.930 . S
H321 C334 0.930 . S
H322 C335 0.930 . S
H323 C339 0.959 1_455 S
H324 C339 0.959 . S
H325 C339 0.961 1_455 S
H326 C340 0.960 . S
H327 C340 0.961 . S
H328 C340 0.959 . S
H329 C343 0.929 1_455 S
H330 C344 0.931 . S
H331 C346 0.930 . S
C332 H320 0.930 . S
C332 C333 1.399 . S
C332 C337 1.399 . S
C333 C332 1.399 . S
C333 C334 1.376 . S
C334 H321 0.930 . S
C334 C333 1.376 . S
C334 C335 1.388 . S
C335 H322 0.930 . S
C335 C334 1.388 . S
C335 C336 1.390 . S
C336 C335 1.390 . S
C336 C337 1.394 . S
C336 C342 1.465 1_455 S
C337 C332 1.399 . S
C337 C336 1.394 . S
C337 C338 1.516 1_455 S
C338 C337 1.516 1_655 S
C338 C339 1.502 . S
C338 C340 1.561 . S
C338 C341 1.526 . S
C339 H323 0.959 1_655 S
C339 H324 0.959 . S
C339 H325 0.961 1_655 S
C339 C338 1.502 . S
C340 H326 0.960 . S
C340 H327 0.961 . S
C340 H328 0.959 . S
C340 C338 1.561 . S
C341 C338 1.526 . S
C341 C342 1.396 . S
C341 C346 1.390 . S
C342 C336 1.465 1_655 S
C342 C341 1.396 . S
C342 C343 1.399 . S
C343 H329 0.929 1_655 S
C343 C342 1.399 . S
C343 C344 1.385 . S
C344 H330 0.931 . S
C344 C343 1.385 . S
C344 C345 1.389 . S
C345 C344 1.389 . S
C345 C346 1.387 . S
C346 H331 0.930 . S
C346 C341 1.390 . S
C346 C345 1.387 . S
H347 C359 0.930 . S
H348 C361 0.930 . S
H349 C362 0.930 . S
H350 C366 0.959 . S
H351 C366 0.959 . S
H352 C366 0.961 . S
H353 C367 0.960 . S
H354 C367 0.961 . S
H355 C367 0.959 . S
H356 C370 0.929 . S
H357 C371 0.931 . S
H358 C373 0.930 1_565 S
C359 H347 0.930 . S
C359 C360 1.399 . S
C359 C364 1.399 . S
C360 C359 1.399 . S
C360 C361 1.376 1_565 S
C361 H348 0.930 . S
C361 C360 1.376 1_545 S
C361 C362 1.388 . S
C362 H349 0.930 . S
C362 C361 1.388 . S
C362 C363 1.390 . S
C363 C362 1.390 . S
C363 C364 1.394 1_545 S
C363 C369 1.465 . S
C364 C359 1.399 . S
C364 C363 1.394 1_565 S
C364 C365 1.516 . S
C365 C364 1.516 . S
C365 C366 1.502 . S
C365 C367 1.561 . S
C365 C368 1.526 . S
C366 H350 0.959 . S
C366 H351 0.959 . S
C366 H352 0.961 . S
C366 C365 1.502 . S
C367 H353 0.960 . S
C367 H354 0.961 . S
C367 H355 0.959 . S
C367 C365 1.561 . S
C368 C365 1.526 . S
C368 C369 1.396 1_565 S
C368 C373 1.390 1_565 S
C369 C363 1.465 . S
C369 C368 1.396 1_545 S
C369 C370 1.399 . S
C370 H356 0.929 . S
C370 C369 1.399 . S
C370 C371 1.385 . S
C371 H357 0.931 . S
C371 C370 1.385 . S
C371 C372 1.389 . S
C372 C371 1.389 . S
C372 C373 1.387 . S
C373 H358 0.930 1_545 S
C373 C368 1.390 1_545 S
C373 C372 1.387 . S
H374 C386 0.930 . S
H375 C388 0.930 . S
H376 C389 0.930 . S
H377 C393 0.959 . S
H378 C393 0.959 . S
H379 C393 0.961 . S
H380 C394 0.960 . S
H381 C394 0.961 . S
H382 C394 0.959 . S
H383 C397 0.929 1_554 S
H384 C398 0.931 . S
H385 C400 0.930 . S
C386 H374 0.930 . S
C386 C387 1.399 . S
C386 C391 1.399 . S
C387 C386 1.399 . S
C387 C388 1.376 . S
C388 H375 0.930 . S
C388 C387 1.376 . S
C388 C389 1.388 . S
C389 H376 0.930 . S
C389 C388 1.388 . S
C389 C390 1.390 . S
C390 C389 1.390 . S
C390 C391 1.394 . S
C390 C396 1.465 1_554 S
C391 C386 1.399 . S
C391 C390 1.394 . S
C391 C392 1.516 1_554 S
C392 C391 1.516 1_556 S
C392 C393 1.502 . S
C392 C394 1.561 . S
C392 C395 1.526 . S
C393 H377 0.959 . S
C393 H378 0.959 . S
C393 H379 0.961 . S
C393 C392 1.502 . S
C394 H380 0.960 . S
C394 H381 0.961 . S
C394 H382 0.959 . S
C394 C392 1.561 . S
C395 C392 1.526 . S
C395 C396 1.396 . S
C395 C400 1.390 . S
C396 C390 1.465 1_556 S
C396 C395 1.396 . S
C396 C397 1.399 . S
C397 H383 0.929 1_556 S
C397 C396 1.399 . S
C397 C398 1.385 . S
C398 H384 0.931 . S
C398 C397 1.385 . S
C398 C399 1.389 . S
C399 C398 1.389 . S
C399 C400 1.387 . S
C400 H385 0.930 . S
C400 C395 1.390 . S
C400 C399 1.387 . S
H401 C413 0.930 1_655 S
H402 C415 0.930 1_545 S
H403 C416 0.930 . S
H404 C420 0.959 1_545 S
H405 C420 0.959 . S
H406 C420 0.961 . S
H407 C421 0.960 1_556 S
H408 C421 0.961 . S
H409 C421 0.959 . S
H410 C424 0.929 . S
H411 C425 0.931 . S
H412 C427 0.930 1_565 S
C413 H401 0.930 1_455 S
C413 C414 1.399 . S
C413 C418 1.399 . S
C414 C413 1.399 . S
C414 C415 1.376 . S
C415 H402 0.930 1_565 S
C415 C414 1.376 . S
C415 C416 1.388 1_565 S
C416 H403 0.930 . S
C416 C415 1.388 1_545 S
C416 C417 1.390 . S
C417 C416 1.390 . S
C417 C418 1.394 1_545 S
C417 C423 1.465 1_556 S
C418 C413 1.399 . S
C418 C417 1.394 1_565 S
C418 C419 1.516 1_455 S
C419 C418 1.516 1_655 S
C419 C420 1.502 . S
C419 C421 1.561 1_556 S
C419 C422 1.526 1_556 S
C420 H404 0.959 1_565 S
C420 H405 0.959 . S
C420 H406 0.961 . S
C420 C419 1.502 . S
C421 H407 0.960 1_554 S
C421 H408 0.961 . S
C421 H409 0.959 . S
C421 C419 1.561 1_554 S
C422 C419 1.526 1_554 S
C422 C423 1.396 1_665 S
C422 C427 1.390 1_565 S
C423 C417 1.465 1_554 S
C423 C422 1.396 1_445 S
C423 C424 1.399 . S
C424 H410 0.929 . S
C424 C423 1.399 . S
C424 C425 1.385 1_455 S
C425 H411 0.931 . S
C425 C424 1.385 1_655 S
C425 C426 1.389 . S
C426 C425 1.389 . S
C426 C427 1.387 . S
C427 H412 0.930 1_545 S
C427 C422 1.390 1_545 S
C427 C426 1.387 . S
H428 C440 0.930 . S
H429 C442 0.930 . S
H430 C443 0.930 . S
H431 C447 0.959 . S
H432 C447 0.959 . S
H433 C447 0.961 . S
H434 C448 0.960 . S
H435 C448 0.961 . S
H436 C448 0.959 . S
H437 C451 0.929 . S
H438 C452 0.931 . S
H439 C454 0.930 . S
C440 H428 0.930 . S
C440 C441 1.399 . S
C440 C445 1.399 . S
C441 C440 1.399 . S
C441 C442 1.376 . S
C442 H429 0.930 . S
C442 C441 1.376 . S
C442 C443 1.388 . S
C443 H430 0.930 . S
C443 C442 1.388 . S
C443 C444 1.390 . S
C444 C443 1.390 . S
C444 C445 1.394 . S
C444 C450 1.465 . S
C445 C440 1.399 . S
C445 C444 1.394 . S
C445 C446 1.516 . S
C446 C445 1.516 . S
C446 C447 1.502 . S
C446 C448 1.561 . S
C446 C449 1.526 . S
C447 H431 0.959 . S
C447 H432 0.959 . S
C447 H433 0.961 . S
C447 C446 1.502 . S
C448 H434 0.960 . S
C448 H435 0.961 . S
C448 H436 0.959 . S
C448 C446 1.561 . S
C449 C446 1.526 . S
C449 C450 1.396 . S
C449 C454 1.390 . S
C450 C444 1.465 . S
C450 C449 1.396 . S
C450 C451 1.399 . S
C451 H437 0.929 . S
C451 C450 1.399 . S
C451 C452 1.385 . S
C452 H438 0.931 . S
C452 C451 1.385 . S
C452 C453 1.389 . S
C453 C452 1.389 . S
C453 C454 1.387 . S
C454 H439 0.930 . S
C454 C449 1.390 . S
C454 C453 1.387 . S
H455 C467 0.930 . S
H456 C469 0.930 . S
H457 C470 0.930 . S
H458 C474 0.959 . S
H459 C474 0.959 . S
H460 C474 0.961 . S
H461 C475 0.960 . S
H462 C475 0.961 . S
H463 C475 0.959 . S
H464 C478 0.929 . S
H465 C479 0.931 . S
H466 C481 0.930 . S
C467 H455 0.930 . S
C467 C468 1.399 . S
C467 C472 1.399 . S
C468 C467 1.399 . S
C468 C469 1.376 . S
C469 H456 0.930 . S
C469 C468 1.376 . S
C469 C470 1.388 . S
C470 H457 0.930 . S
C470 C469 1.388 . S
C470 C471 1.390 . S
C471 C470 1.390 . S
C471 C472 1.394 . S
C471 C477 1.465 . S
C472 C467 1.399 . S
C472 C471 1.394 . S
C472 C473 1.516 . S
C473 C472 1.516 . S
C473 C474 1.502 . S
C473 C475 1.561 . S
C473 C476 1.526 . S
C474 H458 0.959 . S
C474 H459 0.959 . S
C474 H460 0.961 . S
C474 C473 1.502 . S
C475 H461 0.960 . S
C475 H462 0.961 . S
C475 H463 0.959 . S
C475 C473 1.561 . S
C476 C473 1.526 . S
C476 C477 1.396 . S
C476 C481 1.390 . S
C477 C471 1.465 . S
C477 C476 1.396 . S
C477 C478 1.399 . S
C478 H464 0.929 . S
C478 C477 1.399 . S
C478 C479 1.385 . S
C479 H465 0.931 . S
C479 C478 1.385 . S
C479 C480 1.389 . S
C480 C479 1.389 . S
C480 C481 1.387 . S
C481 H466 0.930 . S
C481 C476 1.390 . S
C481 C480 1.387 . S
H482 C494 0.930 . S
H483 C496 0.930 . S
H484 C497 0.930 . S
H485 C501 0.959 . S
H486 C501 0.959 . S
H487 C501 0.961 . S
H488 C502 0.960 . S
H489 C502 0.961 . S
H490 C502 0.959 . S
H491 C505 0.929 . S
H492 C506 0.931 . S
H493 C508 0.930 . S
C494 H482 0.930 . S
C494 C495 1.399 . S
C494 C499 1.399 . S
C495 C494 1.399 . S
C495 C496 1.376 . S
C496 H483 0.930 . S
C496 C495 1.376 . S
C496 C497 1.388 . S
C497 H484 0.930 . S
C497 C496 1.388 . S
C497 C498 1.390 . S
C498 C497 1.390 . S
C498 C499 1.394 . S
C498 C504 1.465 . S
C499 C494 1.399 . S
C499 C498 1.394 . S
C499 C500 1.516 . S
C500 C499 1.516 . S
C500 C501 1.502 . S
C500 C502 1.561 . S
C500 C503 1.526 . S
C501 H485 0.959 . S
C501 H486 0.959 . S
C501 H487 0.961 . S
C501 C500 1.502 . S
C502 H488 0.960 . S
C502 H489 0.961 . S
C502 H490 0.959 . S
C502 C500 1.561 . S
C503 C500 1.526 . S
C503 C504 1.396 . S
C503 C508 1.390 . S
C504 C498 1.465 . S
C504 C503 1.396 . S
C504 C505 1.399 . S
C505 H491 0.929 . S
C505 C504 1.399 . S
C505 C506 1.385 . S
C506 H492 0.931 . S
C506 C505 1.385 . S
C506 C507 1.389 . S
C507 C506 1.389 . S
C507 C508 1.387 . S
C508 H493 0.930 . S
C508 C503 1.390 . S
C508 C507 1.387 . S
H509 C521 0.930 . S
H510 C523 0.930 . S
H511 C524 0.930 . S
H512 C528 0.959 . S
H513 C528 0.959 . S
H514 C528 0.961 . S
H515 C529 0.960 . S
H516 C529 0.961 . S
H517 C529 0.959 . S
H518 C532 0.929 . S
H519 C533 0.931 . S
H520 C535 0.930 . S
C521 H509 0.930 . S
C521 C522 1.399 . S
C521 C526 1.399 . S
C522 C521 1.399 . S
C522 C523 1.376 . S
C523 H510 0.930 . S
C523 C522 1.376 . S
C523 C524 1.388 . S
C524 H511 0.930 . S
C524 C523 1.388 . S
C524 C525 1.390 . S
C525 C524 1.390 . S
C525 C526 1.394 . S
C525 C531 1.465 . S
C526 C521 1.399 . S
C526 C525 1.394 . S
C526 C527 1.516 . S
C527 C526 1.516 . S
C527 C528 1.502 . S
C527 C529 1.561 . S
C527 C530 1.526 . S
C528 H512 0.959 . S
C528 H513 0.959 . S
C528 H514 0.961 . S
C528 C527 1.502 . S
C529 H515 0.960 . S
C529 H516 0.961 . S
C529 H517 0.959 . S
C529 C527 1.561 . S
C530 C527 1.526 . S
C530 C531 1.396 . S
C530 C535 1.390 . S
C531 C525 1.465 . S
C531 C530 1.396 . S
C531 C532 1.399 . S
C532 H518 0.929 . S
C532 C531 1.399 . S
C532 C533 1.385 . S
C533 H519 0.931 . S
C533 C532 1.385 . S
C533 C534 1.389 . S
C534 C533 1.389 . S
C534 C535 1.387 . S
C535 H520 0.930 . S
C535 C530 1.390 . S
C535 C534 1.387 . S
C117 C5 1.172 . S
C129 C34 1.117 . S
C144 C47 1.177 . S
C156 C18 1.186 . S
C171 C31 1.190 . S
C183 C8 1.147 . S
C198 C44 1.102 . S
C210 C21 1.163 . S
C225 C86 1.185 . S
C237 C57 1.155 . S
C252 C70 1.093 . S
C264 C99 1.162 . S
C279 C83 1.130 . S
C291 C60 1.192 . S
C306 C96 1.131 . S
C318 C73 1.192 . S
C333 C0 1.516 . S
C345 C52 1.459 . S
C360 C13 1.492 . S
C372 C65 1.478 . S
C387 C26 1.499 . S
C399 C78 1.472 . S
C414 C91 1.501 . S
C426 C39 1.470 . S
C441 C10 1.507 . S
C453 C23 1.506 . S
C468 C49 1.503 . S
C480 C36 1.503 . S
C495 C75 1.518 . S
C507 C62 1.522 . S
C522 C88 1.516 . S
C534 C101 1.521 . S
