# Generated by pormake.
# Topology zfr, (5)-cn, num edge types: 1
# Building blocks:
#     Node 0, Type 0, BuildingBlock: XOMCOT_clean_sbu_1, # of connection points: 5
#     Node 1, Type 0, BuildingBlock: XOMCOT_clean_sbu_1, # of connection points: 5
#     Node 2, Type 0, BuildingBlock: XOMCOT_clean_sbu_1, # of connection points: 5
#     Node 3, Type 0, BuildingBlock: XOMCOT_clean_sbu_1, # of connection points: 5
#     Node 4, Type 0, BuildingBlock: XOMCOT_clean_sbu_1, # of connection points: 5
#     Node 5, Type 0, BuildingBlock: XOMCOT_clean_sbu_1, # of connection points: 5
#     Node 6, Type 0, BuildingBlock: XOMCOT_clean_sbu_1, # of connection points: 5
#     Node 7, Type 0, BuildingBlock: XOMCOT_clean_sbu_1, # of connection points: 5
#     Edge 8, Type (0, 0), BuildingBlock: EZIPEK_clean_linker_0, # of connection points: 2
#     Edge 9, Type (0, 0), BuildingBlock: EZIPEK_clean_linker_0, # of connection points: 2
#     Edge 10, Type (0, 0), BuildingBlock: EZIPEK_clean_linker_0, # of connection points: 2
#     Edge 11, Type (0, 0), BuildingBlock: EZIPEK_clean_linker_0, # of connection points: 2
#     Edge 12, Type (0, 0), BuildingBlock: EZIPEK_clean_linker_0, # of connection points: 2
#     Edge 13, Type (0, 0), BuildingBlock: EZIPEK_clean_linker_0, # of connection points: 2
#     Edge 14, Type (0, 0), BuildingBlock: EZIPEK_clean_linker_0, # of connection points: 2
#     Edge 15, Type (0, 0), BuildingBlock: EZIPEK_clean_linker_0, # of connection points: 2
#     Edge 16, Type (0, 0), BuildingBlock: EZIPEK_clean_linker_0, # of connection points: 2
#     Edge 17, Type (0, 0), BuildingBlock: EZIPEK_clean_linker_0, # of connection points: 2
#     Edge 18, Type (0, 0), BuildingBlock: EZIPEK_clean_linker_0, # of connection points: 2
#     Edge 19, Type (0, 0), BuildingBlock: EZIPEK_clean_linker_0, # of connection points: 2
#     Edge 20, Type (0, 0), BuildingBlock: EZIPEK_clean_linker_0, # of connection points: 2
#     Edge 21, Type (0, 0), BuildingBlock: EZIPEK_clean_linker_0, # of connection points: 2
#     Edge 22, Type (0, 0), BuildingBlock: EZIPEK_clean_linker_0, # of connection points: 2
#     Edge 23, Type (0, 0), BuildingBlock: EZIPEK_clean_linker_0, # of connection points: 2
#     Edge 24, Type (0, 0), BuildingBlock: EZIPEK_clean_linker_0, # of connection points: 2
#     Edge 25, Type (0, 0), BuildingBlock: EZIPEK_clean_linker_0, # of connection points: 2
#     Edge 26, Type (0, 0), BuildingBlock: EZIPEK_clean_linker_0, # of connection points: 2
#     Edge 27, Type (0, 0), BuildingBlock: EZIPEK_clean_linker_0, # of connection points: 2
# Relax obj value: 0.198
# Max RMSD: 0.181
# Mean RMSD: 0.181
data_MOF--net-zfr--node1-XOMCOT_clean_sbu_1--edge1-EZIPEK_clean_linker_0
_symmetry_space_group_name_H-M    P1
_symmetry_Int_Tables_number       1
_symmetry_cell_setting            triclinic
loop_
_symmetry_equiv_pos_as_xyz
'x, y, z'
_cell_length_a     38.581817
_cell_length_b     38.567045
_cell_length_c     13.223011
_cell_angle_alpha  90.030035
_cell_angle_beta   89.704207
_cell_angle_gamma 89.972873
loop_
_atom_site_label
_atom_site_type_symbol
_atom_site_fract_x
_atom_site_fract_y
_atom_site_fract_z
_atom_type_partial_charge
C0 C 0.17843 0.32851 0.09124 0.0
C1 C 0.18264 0.33047 0.98763 0.0
N2 N 0.15159 0.32454 0.94528 0.0
N3 N 0.14499 0.32118 0.11276 0.0
C4 C 0.12931 0.31948 0.02205 0.0
H5 H 0.19841 0.33209 0.14731 0.0
Co6 Co 0.1256 0.31562 0.24009 0.0
C7 C 0.05008 0.30483 0.19749 0.0
O8 O 0.04234 0.32555 0.27338 0.0
N9 N 0.10714 0.30962 0.37093 0.0
C10 C 0.08504 0.28362 0.50749 0.0
C11 C 0.08574 0.28409 0.40339 0.0
C12 C 0.11966 0.32367 0.45701 0.0
N13 N 0.10647 0.30857 0.54023 0.0
O14 O 0.14258 0.26867 0.24566 0.0
H15 H 0.07367 0.26504 0.35503 0.0
H16 H 0.14059 0.34212 0.46013 0.0
O17 O 0.08204 0.29954 0.17723 0.0
C18 C 0.17046 0.26759 0.29708 0.0
O19 O 0.18343 0.2968 0.33118 0.0
N20 N 0.11264 0.36278 0.2379 0.0
C21 C 0.10659 0.43487 0.2487 0.0
C22 C 0.08427 0.41557 0.1868 0.0
C23 C 0.08795 0.37932 0.18163 0.0
C24 C 0.13605 0.38172 0.29115 0.0
C25 C 0.13281 0.41745 0.30067 0.0
H26 H 0.07181 0.36506 0.12987 0.0
H27 H 0.15819 0.36902 0.32426 0.0
H28 H 0.102 0.31524 0.01111 0.0
H29 H 0.20648 0.33542 0.94661 0.0
H30 H 0.07205 0.26483 0.5552 0.0
H31 H 0.06471 0.42844 0.14191 0.0
H32 H 0.1515 0.43161 0.34551 0.0
C33 C 0.67725 0.15512 0.41181 0.0
C34 C 0.67689 0.15929 0.30809 0.0
N35 N 0.69704 0.13442 0.26728 0.0
N36 N 0.69725 0.12755 0.43516 0.0
C37 C 0.7095 0.11603 0.34533 0.0
H38 H 0.66234 0.1699 0.46629 0.0
Co39 Co 0.70211 0.10697 0.56222 0.0
C40 C 0.70324 0.03286 0.49402 0.0
O41 O 0.67706 0.02641 0.55497 0.0
N42 N 0.70828 0.08752 0.69207 0.0
C43 C 0.72207 0.05652 0.82882 0.0
C44 C 0.72024 0.05645 0.72464 0.0
C45 C 0.70499 0.10643 0.77777 0.0
N46 N 0.71236 0.08806 0.86121 0.0
O47 O 0.74947 0.12245 0.56721 0.0
H48 H 0.72849 0.03527 0.67707 0.0
H49 H 0.69704 0.13333 0.77939 0.0
O50 O 0.71589 0.06349 0.49424 0.0
C51 C 0.74931 0.15301 0.60405 0.0
O52 O 0.71918 0.16784 0.6215 0.0
N53 N 0.65382 0.09486 0.56066 0.0
C54 C 0.58125 0.0905 0.55465 0.0
C55 C 0.60137 0.08048 0.47097 0.0
C56 C 0.63762 0.08258 0.47582 0.0
C57 C 0.6342 0.10483 0.64195 0.0
C58 C 0.59823 0.1017 0.64187 0.0
H59 H 0.65259 0.07556 0.40971 0.0
H60 H 0.64572 0.11731 0.70589 0.0
H61 H 0.72572 0.09341 0.3358 0.0
H62 H 0.66161 0.17775 0.26573 0.0
H63 H 0.73027 0.03537 0.8769 0.0
H64 H 0.58914 0.07211 0.40156 0.0
H65 H 0.58356 0.11027 0.70738 0.0
C66 C 0.82902 0.68413 0.57321 0.0
C67 C 0.82384 0.68376 0.47 0.0
N68 N 0.85037 0.70079 0.42621 0.0
N69 N 0.85879 0.70109 0.59388 0.0
C70 C 0.87041 0.71197 0.50262 0.0
H71 H 0.81269 0.67173 0.62909 0.0
Co72 Co 0.88031 0.70523 0.72041 0.0
C73 C 0.95791 0.71031 0.64407 0.0
O74 O 0.97441 0.69635 0.72065 0.0
N75 N 0.89992 0.70965 0.84862 0.0
C76 C 0.92709 0.72703 0.98801 0.0
C77 C 0.92791 0.72687 0.88345 0.0
C78 C 0.88205 0.70073 0.93287 0.0
N79 N 0.89802 0.71068 0.01825 0.0
O80 O 0.87056 0.75414 0.72259 0.0
H81 H 0.94624 0.74083 0.83685 0.0
H82 H 0.85669 0.68887 0.93207 0.0
O83 O 0.92482 0.71333 0.64709 0.0
C84 C 0.84151 0.75813 0.76765 0.0
O85 O 0.82342 0.73024 0.78955 0.0
N86 N 0.88656 0.65655 0.72603 0.0
C87 C 0.8856 0.5848 0.75698 0.0
C88 C 0.91386 0.60075 0.70912 0.0
C89 C 0.91422 0.63674 0.69654 0.0
C90 C 0.8587 0.64118 0.77139 0.0
C91 C 0.85796 0.60556 0.78959 0.0
H92 H 0.93695 0.64792 0.66381 0.0
H93 H 0.83685 0.65685 0.7947 0.0
H94 H 0.8938 0.72689 0.49114 0.0
H95 H 0.80328 0.67061 0.42993 0.0
H96 H 0.94516 0.73999 0.03768 0.0
H97 H 0.93577 0.58551 0.68319 0.0
H98 H 0.83569 0.59422 0.82725 0.0
C99 C 0.33712 0.82682 0.7803 0.0
C100 C 0.33761 0.8228 0.67663 0.0
N101 N 0.32025 0.84957 0.63616 0.0
N102 N 0.31962 0.85609 0.80479 0.0
C103 C 0.30881 0.86862 0.71472 0.0
H104 H 0.34976 0.80992 0.83376 0.0
Co105 Co 0.31548 0.87742 0.93321 0.0
C106 C 0.30361 0.95413 0.86425 0.0
O107 O 0.3146 0.97032 0.94527 0.0
N108 N 0.31102 0.89762 0.06051 0.0
C109 C 0.28746 0.92206 0.19712 0.0
C110 C 0.28764 0.92129 0.09296 0.0
C111 C 0.32406 0.88381 0.14606 0.0
N112 N 0.30985 0.89786 0.22996 0.0
O113 O 0.26731 0.86436 0.94352 0.0
H114 H 0.26935 0.93459 0.045 0.0
H115 H 0.34133 0.86171 0.14707 0.0
O116 O 0.30363 0.92097 0.86154 0.0
C117 C 0.2627 0.83242 0.96546 0.0
O118 O 0.28838 0.81064 0.95011 0.0
N119 N 0.36356 0.88696 0.93277 0.0
C120 C 0.43542 0.89037 0.95282 0.0
C121 C 0.41657 0.91961 0.9236 0.0
C122 C 0.38058 0.91742 0.91434 0.0
C123 C 0.38174 0.8586 0.9641 0.0
C124 C 0.41773 0.85955 0.97336 0.0
H125 H 0.36712 0.9405 0.89359 0.0
H126 H 0.368 0.83513 0.98389 0.0
H127 H 0.29362 0.89191 0.70529 0.0
H128 H 0.35104 0.80287 0.63411 0.0
H129 H 0.26988 0.93669 0.2449 0.0
H130 H 0.4296 0.94397 0.90862 0.0
H131 H 0.43158 0.83665 0.99798 0.0
C132 C 0.17143 0.69204 0.37938 0.0
C133 C 0.17563 0.68953 0.48281 0.0
N134 N 0.14542 0.69851 0.5268 0.0
N135 N 0.13877 0.70247 0.35945 0.0
C136 C 0.12368 0.70613 0.45114 0.0
H137 H 0.19055 0.68561 0.32229 0.0
Co138 Co 0.11836 0.70523 0.23288 0.0
C139 C 0.04308 0.71646 0.2851 0.0
O140 O 0.03393 0.69488 0.21302 0.0
N141 N 0.09875 0.70828 0.10303 0.0
C142 C 0.07652 0.73291 0.96517 0.0
C143 C 0.07694 0.73316 0.06926 0.0
C144 C 0.11154 0.69366 0.01756 0.0
N145 N 0.09838 0.70806 0.93342 0.0
O146 O 0.13451 0.75223 0.21748 0.0
H147 H 0.06487 0.75268 0.11641 0.0
H148 H 0.13307 0.67586 0.01537 0.0
O149 O 0.07539 0.7219 0.29775 0.0
C150 C 0.16243 0.75217 0.16537 0.0
O151 O 0.17575 0.72223 0.13806 0.0
N152 N 0.10621 0.65795 0.24529 0.0
C153 C 0.10656 0.58514 0.27319 0.0
C154 C 0.08122 0.60662 0.31942 0.0
C155 C 0.08252 0.64282 0.30834 0.0
C156 C 0.1293 0.6377 0.19469 0.0
C157 C 0.12863 0.60176 0.20288 0.0
H158 H 0.06535 0.65828 0.35434 0.0
H159 H 0.14981 0.64958 0.15124 0.0
H160 H 0.09683 0.71266 0.46374 0.0
H161 H 0.19863 0.68119 0.52252 0.0
H162 H 0.06366 0.75145 0.91665 0.0
H163 H 0.06017 0.59662 0.36425 0.0
H164 H 0.14629 0.58755 0.15468 0.0
C165 C 0.335 0.16121 0.68958 0.0
C166 C 0.32921 0.16069 0.79241 0.0
N167 N 0.30144 0.14052 0.81049 0.0
N168 N 0.31131 0.14088 0.64377 0.0
C169 C 0.29049 0.12969 0.71929 0.0
H170 H 0.35657 0.17357 0.65155 0.0
Co171 Co 0.31265 0.12515 0.51047 0.0
C172 C 0.2996 0.04862 0.53088 0.0
O173 O 0.32121 0.04266 0.45607 0.0
N174 N 0.31382 0.10954 0.37253 0.0
C175 C 0.33188 0.09239 0.22047 0.0
C176 C 0.34063 0.09569 0.31989 0.0
C177 C 0.28864 0.1132 0.30174 0.0
N178 N 0.29907 0.10343 0.20801 0.0
O179 O 0.26657 0.1423 0.4897 0.0
H180 H 0.36532 0.08795 0.3503 0.0
H181 H 0.26312 0.12241 0.31949 0.0
O182 O 0.29463 0.08007 0.55774 0.0
C183 C 0.26609 0.17503 0.47558 0.0
O184 O 0.29429 0.19289 0.49508 0.0
N185 N 0.35926 0.11211 0.5296 0.0
C186 C 0.43076 0.10237 0.54451 0.0
C187 C 0.40772 0.08149 0.60018 0.0
C188 C 0.37187 0.0868 0.59171 0.0
C189 C 0.38144 0.13416 0.48127 0.0
C190 C 0.41714 0.12901 0.48471 0.0
H191 H 0.35453 0.0711 0.63661 0.0
H192 H 0.37108 0.15523 0.43663 0.0
H193 H 0.26935 0.11177 0.70901 0.0
H194 H 0.34533 0.17237 0.84989 0.0
H195 H 0.34888 0.08318 0.16081 0.0
H196 H 0.4174 0.0614 0.64979 0.0
H197 H 0.43408 0.14611 0.44226 0.0
C198 C 0.82033 0.33529 0.96699 0.0
C199 C 0.81523 0.33418 0.07039 0.0
N200 N 0.84011 0.31402 0.11064 0.0
N201 N 0.8483 0.31589 0.94249 0.0
C202 C 0.85884 0.30222 0.03136 0.0
H203 H 0.8059 0.35084 0.91373 0.0
Co204 Co 0.87008 0.31275 0.81476 0.0
C205 C 0.94402 0.3184 0.90113 0.0
O206 O 0.95056 0.34778 0.85475 0.0
N207 N 0.89054 0.30827 0.68539 0.0
C208 C 0.92299 0.30613 0.54534 0.0
C209 C 0.92341 0.30877 0.6496 0.0
C210 C 0.87089 0.30445 0.60166 0.0
N211 N 0.88978 0.30352 0.51597 0.0
O212 O 0.8592 0.26351 0.80577 0.0
H213 H 0.94626 0.31207 0.69466 0.0
H214 H 0.84304 0.30542 0.60253 0.0
O215 O 0.91507 0.3027 0.88633 0.0
C216 C 0.82807 0.25214 0.81033 0.0
O217 O 0.80406 0.271 0.85451 0.0
N218 N 0.87782 0.36226 0.8144 0.0
C219 C 0.88226 0.43489 0.80425 0.0
C220 C 0.88695 0.41752 0.89608 0.0
C221 C 0.88485 0.38129 0.8992 0.0
C222 C 0.87126 0.37943 0.72598 0.0
C223 C 0.87476 0.41529 0.71825 0.0
H224 H 0.88743 0.36893 0.9708 0.0
H225 H 0.86185 0.36598 0.66071 0.0
H226 H 0.88124 0.2856 0.03919 0.0
H227 H 0.79653 0.34915 0.11337 0.0
H228 H 0.94511 0.30764 0.49482 0.0
H229 H 0.89176 0.43186 0.96505 0.0
H230 H 0.86993 0.42781 0.64633 0.0
C231 C 0.69074 0.82717 0.18691 0.0
C232 C 0.68993 0.82278 0.29032 0.0
N233 N 0.69934 0.85294 0.33259 0.0
N234 N 0.7005 0.86003 0.1643 0.0
C235 C 0.70613 0.87471 0.25573 0.0
H236 H 0.68541 0.80716 0.13194 0.0
Co237 Co 0.70456 0.88087 0.03487 0.0
C238 C 0.71133 0.95908 0.11307 0.0
O239 O 0.70769 0.97889 0.03305 0.0
N240 N 0.7088 0.90026 0.90779 0.0
C241 C 0.7291 0.92611 0.76957 0.0
C242 C 0.72951 0.92598 0.87382 0.0
C243 C 0.69663 0.88482 0.82377 0.0
N244 N 0.70878 0.8998 0.73887 0.0
O245 O 0.75453 0.87335 0.03172 0.0
H246 H 0.74629 0.94149 0.92081 0.0
H247 H 0.68103 0.8615 0.82471 0.0
O248 O 0.70986 0.92601 0.10458 0.0
C249 C 0.76886 0.84344 0.03384 0.0
O250 O 0.75458 0.81878 0.08791 0.0
N251 N 0.6559 0.88655 0.02814 0.0
C252 C 0.58435 0.89064 1.00187 0.0
C253 C 0.60049 0.85852 0.01481 0.0
C254 C 0.63643 0.85703 0.02531 0.0
C255 C 0.64059 0.91786 0.00919 0.0
C256 C 0.60472 0.92056 0.99756 0.0
H257 H 0.64876 0.83202 0.02689 0.0
H258 H 0.65599 0.94089 1.00056 0.0
H259 H 0.71557 0.90068 0.26739 0.0
H260 H 0.68298 0.79949 0.33128 0.0
H261 H 0.74472 0.94223 0.72023 0.0
H262 H 0.5855 0.83478 0.014 0.0
H263 H 0.59303 0.94566 0.98386 0.0
C264 C 0.2483 0.20967 0.32448 0.0
C265 C 0.23848 0.19175 0.41427 0.0
C266 C 0.1786 0.21198 0.39243 0.0
C267 C 0.19017 0.23517 0.3164 0.0
N268 N 0.2344 0.25398 0.20064 0.0
N269 N 0.1943 0.17558 0.53493 0.0
C270 C 0.2245 0.23297 0.27882 0.0
C271 C 0.20341 0.19215 0.44743 0.0
N272 N 0.28013 0.20372 0.28166 0.0
N273 N 0.14397 0.20926 0.41231 0.0
H274 H 0.21173 0.16087 0.57701 0.0
H275 H 0.17016 0.17825 0.56955 0.0
H276 H 0.12558 0.22311 0.37139 0.0
H277 H 0.13335 0.19105 0.46159 0.0
H278 H 0.28792 0.21366 0.21204 0.0
H279 H 0.29778 0.18587 0.3105 0.0
H280 H 0.25997 0.25752 0.17751 0.0
H281 H 0.21659 0.26871 0.15997 0.0
C282 C 0.79513 0.23425 0.65534 0.0
C283 C 0.81637 0.22469 0.73871 0.0
C284 C 0.80446 0.1631 0.70364 0.0
C285 C 0.78105 0.17346 0.62684 0.0
N286 N 0.76656 0.2157 0.50158 0.0
N287 N 0.84784 0.18047 0.82792 0.0
C288 C 0.78099 0.20805 0.59301 0.0
C289 C 0.82365 0.18911 0.75714 0.0
N290 N 0.78642 0.26815 0.6391 0.0
N291 N 0.80724 0.12879 0.7274 0.0
H292 H 0.86142 0.19909 0.86901 0.0
H293 H 0.85599 0.15526 0.84236 0.0
H294 H 0.79441 0.10953 0.68698 0.0
H295 H 0.82206 0.11917 0.78651 0.0
H296 H 0.76784 0.27584 0.58681 0.0
H297 H 0.79565 0.28863 0.68256 0.0
H298 H 0.76839 0.24001 0.46761 0.0
H299 H 0.75615 0.19642 0.45522 0.0
C300 C 0.7917 0.79748 0.78833 0.0
C301 C 0.82752 0.79216 0.80292 0.0
C302 C 0.82614 0.8335 0.94496 0.0
C303 C 0.7894 0.83181 0.94436 0.0
N304 N 0.73663 0.81247 0.86442 0.0
N305 N 0.88086 0.81067 0.87943 0.0
C306 C 0.772 0.81457 0.86424 0.0
C307 C 0.84556 0.81252 0.87522 0.0
N308 N 0.77667 0.78527 0.70205 0.0
N309 N 0.84209 0.85445 0.01382 0.0
H310 H 0.89552 0.79746 0.82551 0.0
H311 H 0.89583 0.82219 0.93525 0.0
H312 H 0.8281 0.86971 0.0649 0.0
H313 H 0.86871 0.85838 0.01728 0.0
H314 H 0.75117 0.79059 0.68173 0.0
H315 H 0.79119 0.77291 0.64567 0.0
H316 H 0.72266 0.79704 0.81451 0.0
H317 H 0.7211 0.82453 0.91875 0.0
C318 C 0.21577 0.78702 0.18211 0.0
C319 C 0.18236 0.78399 0.14061 0.0
C320 C 0.19866 0.82252 1.00034 0.0
C321 C 0.23368 0.8211 0.03317 0.0
N322 N 0.27536 0.80542 0.16156 0.0
N323 N 0.13823 0.8076 0.03428 0.0
C324 C 0.24201 0.80486 0.12709 0.0
C325 C 0.17253 0.80491 0.05768 0.0
N326 N 0.22185 0.77295 0.27528 0.0
N327 N 0.19092 0.83827 0.9107 0.0
H328 H 0.11914 0.7952 0.07705 0.0
H329 H 0.12845 0.82401 0.97892 0.0
H330 H 0.20935 0.85145 0.86749 0.0
H331 H 0.16676 0.837 0.87637 0.0
H332 H 0.24478 0.77576 0.31541 0.0
H333 H 0.20228 0.76073 0.31687 0.0
H334 H 0.28436 0.79082 0.22204 0.0
H335 H 0.29463 0.82059 0.12879 0.0
C336 C 0.10655 0.3414 0.69974 0.0
C337 C 0.11893 0.31325 0.64138 0.0
C338 C 0.15393 0.29298 0.78321 0.0
C339 C 0.14303 0.32218 0.83998 0.0
N340 N 0.11348 0.37687 0.85022 0.0
N341 N 0.15922 0.26635 0.61779 0.0
C342 C 0.12061 0.34726 0.79737 0.0
C343 C 0.14413 0.29023 0.6803 0.0
N344 N 0.08079 0.36188 0.66205 0.0
N345 N 0.17214 0.26709 0.82926 0.0
H346 H 0.15264 0.26414 0.54174 0.0
H347 H 0.18017 0.25095 0.63867 0.0
H348 H 0.17927 0.26811 0.90513 0.0
H349 H 0.17773 0.24345 0.79478 0.0
H350 H 0.0681 0.38095 0.70388 0.0
H351 H 0.07049 0.35812 0.59003 0.0
H352 H 0.09954 0.39764 0.82092 0.0
H353 H 0.124 0.38178 0.92136 0.0
C354 C 0.67308 0.10504 0.11722 0.0
C355 C 0.69991 0.12465 0.16263 0.0
C356 C 0.73604 0.11757 0.01121 0.0
C357 C 0.70852 0.09965 0.96398 0.0
N358 N 0.64962 0.07968 0.96394 0.0
N359 N 0.75516 0.15287 0.15298 0.0
C360 C 0.67663 0.09434 0.01485 0.0
C361 C 0.73095 0.13189 0.10936 0.0
N362 N 0.64486 0.0956 0.17358 0.0
N363 N 0.76716 0.12005 0.96225 0.0
H364 H 0.75174 0.16343 0.22506 0.0
H365 H 0.77736 0.16167 0.11618 0.0
H366 H 0.77111 0.10932 0.8908 0.0
H367 H 0.78944 0.13051 0.99401 0.0
H368 H 0.62616 0.0781 0.14911 0.0
H369 H 0.6412 0.10366 0.24806 0.0
H370 H 0.62448 0.07824 0.99251 0.0
H371 H 0.65193 0.07084 0.88961 0.0
C372 C 0.88354 0.67499 0.16769 0.0
C373 C 0.88425 0.70782 0.11966 0.0
C374 C 0.85717 0.7346 0.26929 0.0
C375 C 0.85911 0.70239 0.32012 0.0
N376 N 0.87538 0.64218 0.32292 0.0
N377 N 0.87031 0.7685 0.11878 0.0
C378 C 0.87209 0.67245 0.27009 0.0
C379 C 0.87061 0.73759 0.16903 0.0
N380 N 0.89447 0.64643 0.11521 0.0
N381 N 0.84161 0.76194 0.31723 0.0
H382 H 0.87771 0.7706 0.04327 0.0
H383 H 0.86329 0.79211 0.15082 0.0
H384 H 0.83108 0.75983 0.38984 0.0
H385 H 0.83737 0.78609 0.28472 0.0
H386 H 0.8915 0.62107 0.14045 0.0
H387 H 0.90537 0.64798 0.04303 0.0
H388 H 0.88736 0.61998 0.29494 0.0
H389 H 0.86831 0.63977 0.39872 0.0
C390 C 0.28417 0.86734 0.37733 0.0
C391 C 0.31276 0.88459 0.33153 0.0
C392 C 0.34765 0.8748 0.48354 0.0
C393 C 0.31841 0.85945 0.53129 0.0
N394 N 0.25868 0.84244 0.52956 0.0
N395 N 0.3703 0.9078 0.34097 0.0
C396 C 0.28659 0.85614 0.4796 0.0
C397 C 0.34433 0.88872 0.38427 0.0
N398 N 0.25524 0.86066 0.32148 0.0
N399 N 0.37836 0.87653 0.53431 0.0
H400 H 0.36812 0.91879 0.26922 0.0
H401 H 0.39302 0.91483 0.37761 0.0
H402 H 0.38088 0.86923 0.60977 0.0
H403 H 0.40173 0.88399 0.50138 0.0
H404 H 0.23441 0.84587 0.34674 0.0
H405 H 0.25293 0.86781 0.2459 0.0
H406 H 0.23354 0.84242 0.50155 0.0
H407 H 0.26048 0.83222 0.60239 0.0
C408 C 0.09701 0.67936 0.76707 0.0
C409 C 0.1119 0.7041 0.83256 0.0
C410 C 0.15018 0.72436 0.69666 0.0
C411 C 0.13647 0.69851 0.63242 0.0
N412 N 0.1016 0.64757 0.6089 0.0
N413 N 0.15681 0.74546 0.86796 0.0
C414 C 0.11122 0.67481 0.66855 0.0
C415 C 0.13987 0.72515 0.79977 0.0
N416 N 0.06886 0.66085 0.79905 0.0
N417 N 0.17161 0.74922 0.65762 0.0
H418 H 0.14961 0.74644 0.94382 0.0
H419 H 0.17957 0.75888 0.85149 0.0
H420 H 0.17931 0.74952 0.58193 0.0
H421 H 0.17956 0.77098 0.69796 0.0
H422 H 0.05441 0.64479 0.75209 0.0
H423 H 0.05865 0.66336 0.87196 0.0
H424 H 0.08529 0.6277 0.63296 0.0
H425 H 0.11244 0.64331 0.53749 0.0
C426 C 0.29151 0.08187 0.03602 0.0
C427 C 0.28256 0.10666 0.10989 0.0
C428 C 0.27438 0.15007 0.97749 0.0
C429 C 0.29076 0.12747 0.90768 0.0
N430 N 0.31556 0.07141 0.86956 0.0
N431 N 0.24452 0.15515 0.13799 0.0
C432 C 0.29848 0.09275 0.93551 0.0
C433 C 0.26783 0.13841 0.07777 0.0
N434 N 0.29435 0.04811 0.06493 0.0
N435 N 0.26594 0.18292 0.94822 0.0
H436 H 0.23435 0.1437 0.20268 0.0
H437 H 0.23101 0.1772 0.1156 0.0
H438 H 0.26877 0.19134 0.87362 0.0
H439 H 0.25786 0.2021 0.99862 0.0
H440 H 0.29858 0.02789 0.01462 0.0
H441 H 0.28899 0.04044 0.13919 0.0
H442 H 0.32512 0.04711 0.88926 0.0
H443 H 0.32265 0.07892 0.7968 0.0
C444 C 0.87456 0.3392 0.36769 0.0
C445 C 0.87643 0.30628 0.41456 0.0
C446 C 0.84904 0.2796 0.2663 0.0
C447 C 0.85025 0.31197 0.21565 0.0
N448 N 0.86831 0.37186 0.21262 0.0
N449 N 0.86705 0.24486 0.41073 0.0
C450 C 0.86371 0.34173 0.26533 0.0
C451 C 0.86395 0.27635 0.36446 0.0
N452 N 0.88257 0.36818 0.42221 0.0
N453 N 0.83281 0.25232 0.22074 0.0
H454 H 0.87745 0.24219 0.48302 0.0
H455 H 0.86121 0.22134 0.37627 0.0
H456 H 0.82151 0.25443 0.14945 0.0
H457 H 0.8283 0.22856 0.25556 0.0
H458 H 0.87787 0.39332 0.39715 0.0
H459 H 0.89156 0.36709 0.49633 0.0
H460 H 0.88165 0.3932 0.24077 0.0
H461 H 0.86176 0.37464 0.13686 0.0
C462 C 0.67069 0.87167 0.49029 0.0
C463 C 0.70114 0.86131 0.43828 0.0
C464 C 0.73579 0.87203 0.58951 0.0
C465 C 0.70602 0.88596 0.63813 0.0
N466 N 0.64561 0.90094 0.63638 0.0
N467 N 0.76266 0.85257 0.43285 0.0
C468 C 0.67341 0.88581 0.58943 0.0
C469 C 0.73373 0.86171 0.48658 0.0
N470 N 0.63937 0.86858 0.44339 0.0
N471 N 0.76554 0.86737 0.64346 0.0
H472 H 0.76146 0.8432 0.35889 0.0
H473 H 0.78783 0.85581 0.45912 0.0
H474 H 0.76734 0.87326 0.72016 0.0
H475 H 0.78747 0.85489 0.61533 0.0
H476 H 0.61564 0.87276 0.47902 0.0
H477 H 0.637 0.85998 0.36897 0.0
H478 H 0.62155 0.90448 0.6028 0.0
H479 H 0.64725 0.91232 0.70776 0.0
C480 C 0.02808 0.28488 0.02343 0.0
C481 C 0.0217 0.29433 0.12571 0.0
C482 C 0.96236 0.3099 0.08381 0.0
C483 C 0.96945 0.30564 0.9787 0.0
N484 N 0.00961 0.28805 0.84801 0.0
N485 N 0.97778 0.29434 0.25475 0.0
C486 C 1.0024 0.29232 0.94843 0.0
C487 C 0.98715 0.29977 0.15627 0.0
N488 N 0.0569 0.26595 0.9999 0.0
N489 N 0.93365 0.32715 0.11565 0.0
H490 H 0.9952 0.2845 0.30769 0.0
H491 H 0.95209 0.29515 0.27971 0.0
H492 H 0.91564 0.33688 0.06591 0.0
H493 H 0.93025 0.3352 0.19024 0.0
H494 H 0.06218 0.25614 0.92814 0.0
H495 H 0.07336 0.25627 0.05541 0.0
H496 H 0.03434 0.28302 0.81973 0.0
H497 H 0.99093 0.29124 0.79222 0.0
C498 C 0.68696 0.9666 0.28996 0.0
C499 C 0.71249 0.97532 0.21619 0.0
C500 C 0.73957 0.01486 0.34005 0.0
C501 C 0.71223 0.00782 0.40969 0.0
N502 N 0.67357 0.96296 0.46787 0.0
N503 N 0.7636 0.00785 0.17051 0.0
C504 C 0.69001 0.97943 0.38996 0.0
C505 C 0.73909 0.99942 0.24136 0.0
N506 N 0.65866 0.94739 0.26398 0.0
N507 N 0.76749 0.03362 0.37197 0.0
H508 H 0.7658 0.99515 0.10113 0.0
H509 H 0.78093 0.02833 0.17808 0.0
H510 H 0.77052 0.04093 0.44735 0.0
H511 H 0.78947 0.03839 0.32836 0.0
H512 H 0.63734 0.94389 0.31159 0.0
H513 H 0.65474 0.93787 0.19165 0.0
H514 H 0.6573 0.9418 0.45774 0.0
H515 H 0.68049 0.96693 0.54313 0.0
C516 C 0.02735 0.74374 0.45685 0.0
C517 C 0.01742 0.72576 0.36759 0.0
C518 C 0.96647 0.70291 0.45449 0.0
C519 C 0.97736 0.71783 0.54763 0.0
N520 N 0.01778 0.75438 0.63674 0.0
N521 N 0.96729 0.70851 0.2732 0.0
C522 C 0.00765 0.7391 0.5484 0.0
C523 C 0.98379 0.71169 0.36368 0.0
N524 N 0.05348 0.76756 0.45119 0.0
N525 N 0.9416 0.67788 0.45186 0.0
H526 H 0.97752 0.71876 0.20641 0.0
H527 H 0.94153 0.70073 0.26805 0.0
H528 H 0.92779 0.66966 0.51477 0.0
H529 H 0.9372 0.66302 0.38733 0.0
H530 H 0.06147 0.78303 0.51109 0.0
H531 H 0.06474 0.77467 0.3824 0.0
H532 H 0.04164 0.7664 0.64688 0.0
H533 H 0.00253 0.75418 0.70206 0.0
C534 C 0.31395 0.96739 0.67834 0.0
C535 C 0.29606 0.97462 0.77053 0.0
C536 C 0.26847 0.02498 0.68779 0.0
C537 C 0.28975 0.01941 0.60138 0.0
N538 N 0.31276 0.97365 0.49707 0.0
N539 N 0.25239 0.00769 0.85924 0.0
C540 C 0.30625 0.98694 0.59088 0.0
C541 C 0.2718 1.00255 0.77376 0.0
N542 N 0.34028 0.94381 0.67439 0.0
N543 N 0.24328 0.04979 0.68346 0.0
H544 H 0.25217 0.99017 0.91931 0.0
H545 H 0.23696 0.02935 0.87225 0.0
H546 H 0.2379 0.06309 0.61663 0.0
H547 H 0.22579 0.05523 0.74138 0.0
H548 H 0.35653 0.94136 0.61154 0.0
H549 H 0.34799 0.92896 0.7356 0.0
H550 H 0.32258 0.94877 0.48617 0.0
H551 H 0.30319 0.98516 0.4315 0.0
C552 C 0.07972 0.49024 0.31543 0.0
C553 C 0.10533 0.47347 0.25512 0.0
C554 C 0.13849 0.52742 0.25107 0.0
C555 C 0.1096 0.54595 0.29024 0.0
N556 N 0.0699 0.53809 0.42921 0.0
N557 N 0.15802 0.47769 0.15636 0.0
C558 C 0.0841 0.52587 0.34158 0.0
C559 C 0.13438 0.49258 0.2202 0.0
N560 N 0.05172 0.47213 0.35022 0.0
N561 N 0.17092 0.54129 0.25788 0.0
H562 H 0.15548 0.45239 0.12935 0.0
H563 H 0.1781 0.49178 0.12294 0.0
H564 H 0.17535 0.56473 0.29523 0.0
H565 H 0.19332 0.52752 0.23912 0.0
H566 H 0.03066 0.4841 0.38555 0.0
H567 H 0.04839 0.44567 0.33731 0.0
H568 H 0.05297 0.52375 0.47433 0.0
H569 H 0.08044 0.55954 0.46611 0.0
C570 C 0.52618 0.12524 0.56658 0.0
C571 C 0.5426 0.09279 0.54922 0.0
C572 C 0.48549 0.06653 0.52044 0.0
C573 C 0.46919 0.09792 0.55135 0.0
N574 N 0.47499 0.15418 0.62989 0.0
N575 N 0.5371 0.03081 0.52897 0.0
C576 C 0.48985 0.12639 0.58237 0.0
C577 C 0.52204 0.06286 0.53164 0.0
N578 N 0.54499 0.15525 0.56392 0.0
N579 N 0.46649 0.0408 0.47642 0.0
H580 H 0.56362 0.02696 0.539 0.0
H581 H 0.52284 0.00789 0.52644 0.0
H582 H 0.43991 0.04281 0.46389 0.0
H583 H 0.47769 0.01892 0.4435 0.0
H584 H 0.53355 0.17973 0.56709 0.0
H585 H 0.5714 0.15586 0.54685 0.0
H586 H 0.48948 0.17415 0.66189 0.0
H587 H 0.44862 0.15535 0.64736 0.0
C588 C 0.91147 0.52941 0.82599 0.0
C589 C 0.88467 0.54645 0.77187 0.0
C590 C 0.85352 0.49138 0.75946 0.0
C591 C 0.88279 0.47353 0.79818 0.0
N592 N 0.94282 0.47573 0.84962 0.0
N593 N 0.83405 0.5413 0.66569 0.0
C594 C 0.91273 0.49257 0.82647 0.0
C595 C 0.85673 0.52678 0.73246 0.0
N596 N 0.935 0.54821 0.87997 0.0
N597 N 0.8223 0.47494 0.75142 0.0
H598 H 0.8365 0.56665 0.63915 0.0
H599 H 0.81519 0.52693 0.62818 0.0
H600 H 0.81832 0.4495 0.77556 0.0
H601 H 0.79957 0.48787 0.73176 0.0
H602 H 0.95304 0.53679 0.92801 0.0
H603 H 0.93407 0.57517 0.8854 0.0
H604 H 0.96617 0.48868 0.86118 0.0
H605 H 0.94534 0.44883 0.84707 0.0
C606 C 0.53193 0.88697 0.89084 0.0
C607 C 0.54625 0.89259 0.98819 0.0
C608 C 0.48795 0.89705 0.06226 0.0
C609 C 0.47362 0.89219 0.96455 0.0
N610 N 0.48085 0.88671 0.78406 0.0
N611 N 0.53917 0.90746 0.1641 0.0
C612 C 0.49533 0.88844 0.87819 0.0
C613 C 0.52459 0.89899 0.07326 0.0
N614 N 0.55341 0.87944 0.81109 0.0
N615 N 0.46643 0.89912 0.14467 0.0
H616 H 0.56589 0.908 0.17571 0.0
H617 H 0.52515 0.91611 0.22659 0.0
H618 H 0.43948 0.8996 0.13912 0.0
H619 H 0.47496 0.89857 0.21915 0.0
H620 H 0.54482 0.87112 0.74072 0.0
H621 H 0.58038 0.87977 0.81642 0.0
H622 H 0.49498 0.88785 0.71695 0.0
H623 H 0.45415 0.88617 0.77221 0.0
loop_
_geom_bond_atom_site_label_1
_geom_bond_atom_site_label_2
_geom_bond_distance
_geom_bond_site_symmetry_2
_ccdc_geom_bond_type
C0 C1 1.351 1_554 S
C0 N3 1.368 . S
C0 H5 0.931 . S
C1 C0 1.351 1_556 S
C1 N2 1.373 . S
C1 H29 0.930 . S
N2 C1 1.373 . S
N2 C4 1.340 . S
N3 C0 1.368 . S
N3 C4 1.321 1_554 S
N3 Co6 2.135 . S
C4 N2 1.340 . S
C4 N3 1.321 1_556 S
C4 H28 0.930 . S
H5 C0 0.931 . S
Co6 N3 2.135 . S
Co6 N9 2.121 . S
Co6 O14 2.055 . S
Co6 O17 2.039 . S
Co6 N20 2.140 . S
C7 O8 1.227 . S
C7 O17 1.265 . S
O8 C7 1.227 . S
N9 Co6 2.121 . S
N9 C11 1.375 . S
N9 C12 1.313 . S
C10 C11 1.338 . S
C10 N13 1.377 . S
C10 H30 0.930 . S
C11 N9 1.375 . S
C11 C10 1.338 . S
C11 H15 0.931 . S
C12 N9 1.313 . S
C12 N13 1.344 . S
C12 H16 0.930 . S
N13 C10 1.377 . S
N13 C12 1.344 . S
O14 Co6 2.055 . S
O14 C18 1.253 . S
H15 C11 0.931 . S
H16 C12 0.930 . S
O17 Co6 2.039 . S
O17 C7 1.265 . S
C18 O14 1.253 . S
C18 O19 1.227 . S
O19 C18 1.227 . S
N20 Co6 2.140 . S
N20 C23 1.346 . S
N20 C24 1.345 . S
C21 C22 1.387 . S
C21 C25 1.391 . S
C22 C21 1.387 . S
C22 C23 1.369 . S
C22 H31 0.929 . S
C23 N20 1.346 . S
C23 C22 1.369 . S
C23 H26 0.928 . S
C24 N20 1.345 . S
C24 C25 1.371 . S
C24 H27 0.931 . S
C25 C21 1.391 . S
C25 C24 1.371 . S
C25 H32 0.930 . S
H26 C23 0.928 . S
H27 C24 0.931 . S
H28 C4 0.930 . S
H29 C1 0.930 . S
H30 C10 0.930 . S
H31 C22 0.929 . S
H32 C25 0.930 . S
C33 C34 1.351 . S
C33 N36 1.368 . S
C33 H38 0.931 . S
C34 C33 1.351 . S
C34 N35 1.373 . S
C34 H62 0.930 . S
N35 C34 1.373 . S
N35 C37 1.340 . S
N36 C33 1.368 . S
N36 C37 1.321 . S
N36 Co39 2.135 . S
C37 N35 1.340 . S
C37 N36 1.321 . S
C37 H61 0.930 . S
H38 C33 0.931 . S
Co39 N36 2.135 . S
Co39 N42 2.121 . S
Co39 O47 2.055 . S
Co39 O50 2.039 . S
Co39 N53 2.140 . S
C40 O41 1.227 . S
C40 O50 1.265 . S
O41 C40 1.227 . S
N42 Co39 2.121 . S
N42 C44 1.375 . S
N42 C45 1.313 . S
C43 C44 1.338 . S
C43 N46 1.377 . S
C43 H63 0.930 . S
C44 N42 1.375 . S
C44 C43 1.338 . S
C44 H48 0.931 . S
C45 N42 1.313 . S
C45 N46 1.344 . S
C45 H49 0.930 . S
N46 C43 1.377 . S
N46 C45 1.344 . S
O47 Co39 2.055 . S
O47 C51 1.253 . S
H48 C44 0.931 . S
H49 C45 0.930 . S
O50 Co39 2.039 . S
O50 C40 1.265 . S
C51 O47 1.253 . S
C51 O52 1.227 . S
O52 C51 1.227 . S
N53 Co39 2.140 . S
N53 C56 1.346 . S
N53 C57 1.345 . S
C54 C55 1.387 . S
C54 C58 1.391 . S
C55 C54 1.387 . S
C55 C56 1.369 . S
C55 H64 0.929 . S
C56 N53 1.346 . S
C56 C55 1.369 . S
C56 H59 0.928 . S
C57 N53 1.345 . S
C57 C58 1.371 . S
C57 H60 0.931 . S
C58 C54 1.391 . S
C58 C57 1.371 . S
C58 H65 0.930 . S
H59 C56 0.928 . S
H60 C57 0.931 . S
H61 C37 0.930 . S
H62 C34 0.930 . S
H63 C43 0.930 . S
H64 C55 0.929 . S
H65 C58 0.930 . S
C66 C67 1.351 . S
C66 N69 1.368 . S
C66 H71 0.931 . S
C67 C66 1.351 . S
C67 N68 1.373 . S
C67 H95 0.930 . S
N68 C67 1.373 . S
N68 C70 1.340 . S
N69 C66 1.368 . S
N69 C70 1.321 . S
N69 Co72 2.135 . S
C70 N68 1.340 . S
C70 N69 1.321 . S
C70 H94 0.930 . S
H71 C66 0.931 . S
Co72 N69 2.135 . S
Co72 N75 2.121 . S
Co72 O80 2.055 . S
Co72 O83 2.039 . S
Co72 N86 2.140 . S
C73 O74 1.227 . S
C73 O83 1.265 . S
O74 C73 1.227 . S
N75 Co72 2.121 . S
N75 C77 1.375 . S
N75 C78 1.313 . S
C76 C77 1.338 . S
C76 N79 1.377 1_556 S
C76 H96 0.930 1_556 S
C77 N75 1.375 . S
C77 C76 1.338 . S
C77 H81 0.931 . S
C78 N75 1.313 . S
C78 N79 1.344 1_556 S
C78 H82 0.930 . S
N79 C76 1.377 1_554 S
N79 C78 1.344 1_554 S
O80 Co72 2.055 . S
O80 C84 1.253 . S
H81 C77 0.931 . S
H82 C78 0.930 . S
O83 Co72 2.039 . S
O83 C73 1.265 . S
C84 O80 1.253 . S
C84 O85 1.227 . S
O85 C84 1.227 . S
N86 Co72 2.140 . S
N86 C89 1.346 . S
N86 C90 1.345 . S
C87 C88 1.387 . S
C87 C91 1.391 . S
C88 C87 1.387 . S
C88 C89 1.369 . S
C88 H97 0.929 . S
C89 N86 1.346 . S
C89 C88 1.369 . S
C89 H92 0.928 . S
C90 N86 1.345 . S
C90 C91 1.371 . S
C90 H93 0.931 . S
C91 C87 1.391 . S
C91 C90 1.371 . S
C91 H98 0.930 . S
H92 C89 0.928 . S
H93 C90 0.931 . S
H94 C70 0.930 . S
H95 C67 0.930 . S
H96 C76 0.930 1_554 S
H97 C88 0.929 . S
H98 C91 0.930 . S
C99 C100 1.351 . S
C99 N102 1.368 . S
C99 H104 0.931 . S
C100 C99 1.351 . S
C100 N101 1.373 . S
C100 H128 0.930 . S
N101 C100 1.373 . S
N101 C103 1.340 . S
N102 C99 1.368 . S
N102 C103 1.321 . S
N102 Co105 2.135 . S
C103 N101 1.340 . S
C103 N102 1.321 . S
C103 H127 0.930 . S
H104 C99 0.931 . S
Co105 N102 2.135 . S
Co105 N108 2.121 1_556 S
Co105 O113 2.055 . S
Co105 O116 2.039 . S
Co105 N119 2.140 . S
C106 O107 1.227 . S
C106 O116 1.265 . S
O107 C106 1.227 . S
N108 Co105 2.121 1_554 S
N108 C110 1.375 . S
N108 C111 1.313 . S
C109 C110 1.338 . S
C109 N112 1.377 . S
C109 H129 0.930 . S
C110 N108 1.375 . S
C110 C109 1.338 . S
C110 H114 0.931 . S
C111 N108 1.313 . S
C111 N112 1.344 . S
C111 H115 0.930 . S
N112 C109 1.377 . S
N112 C111 1.344 . S
O113 Co105 2.055 . S
O113 C117 1.253 1_556 S
H114 C110 0.931 . S
H115 C111 0.930 . S
O116 Co105 2.039 . S
O116 C106 1.265 . S
C117 O113 1.253 1_554 S
C117 O118 1.227 . S
O118 C117 1.227 . S
N119 Co105 2.140 . S
N119 C122 1.346 . S
N119 C123 1.345 1_556 S
C120 C121 1.387 . S
C120 C124 1.391 1_556 S
C121 C120 1.387 . S
C121 C122 1.369 . S
C121 H130 0.929 . S
C122 N119 1.346 . S
C122 C121 1.369 . S
C122 H125 0.928 . S
C123 N119 1.345 1_554 S
C123 C124 1.371 . S
C123 H126 0.931 . S
C124 C120 1.391 1_554 S
C124 C123 1.371 . S
C124 H131 0.930 . S
H125 C122 0.928 . S
H126 C123 0.931 . S
H127 C103 0.930 . S
H128 C100 0.930 . S
H129 C109 0.930 . S
H130 C121 0.929 . S
H131 C124 0.930 . S
C132 C133 1.351 . S
C132 N135 1.368 . S
C132 H137 0.931 . S
C133 C132 1.351 . S
C133 N134 1.373 . S
C133 H161 0.930 . S
N134 C133 1.373 . S
N134 C136 1.340 . S
N135 C132 1.368 . S
N135 C136 1.321 . S
N135 Co138 2.135 . S
C136 N134 1.340 . S
C136 N135 1.321 . S
C136 H160 0.930 . S
H137 C132 0.931 . S
Co138 N135 2.135 . S
Co138 N141 2.121 . S
Co138 O146 2.055 . S
Co138 O149 2.039 . S
Co138 N152 2.140 . S
C139 O140 1.227 . S
C139 O149 1.265 . S
O140 C139 1.227 . S
N141 Co138 2.121 . S
N141 C143 1.375 . S
N141 C144 1.313 . S
C142 C143 1.338 . S
C142 N145 1.377 1_554 S
C142 H162 0.930 1_554 S
C143 N141 1.375 . S
C143 C142 1.338 . S
C143 H147 0.931 . S
C144 N141 1.313 . S
C144 N145 1.344 1_554 S
C144 H148 0.930 . S
N145 C142 1.377 1_556 S
N145 C144 1.344 1_556 S
O146 Co138 2.055 . S
O146 C150 1.253 . S
H147 C143 0.931 . S
H148 C144 0.930 . S
O149 Co138 2.039 . S
O149 C139 1.265 . S
C150 O146 1.253 . S
C150 O151 1.227 . S
O151 C150 1.227 . S
N152 Co138 2.140 . S
N152 C155 1.346 . S
N152 C156 1.345 . S
C153 C154 1.387 . S
C153 C157 1.391 . S
C154 C153 1.387 . S
C154 C155 1.369 . S
C154 H163 0.929 . S
C155 N152 1.346 . S
C155 C154 1.369 . S
C155 H158 0.928 . S
C156 N152 1.345 . S
C156 C157 1.371 . S
C156 H159 0.931 . S
C157 C153 1.391 . S
C157 C156 1.371 . S
C157 H164 0.930 . S
H158 C155 0.928 . S
H159 C156 0.931 . S
H160 C136 0.930 . S
H161 C133 0.930 . S
H162 C142 0.930 1_556 S
H163 C154 0.929 . S
H164 C157 0.930 . S
C165 C166 1.351 . S
C165 N168 1.368 . S
C165 H170 0.931 . S
C166 C165 1.351 . S
C166 N167 1.373 . S
C166 H194 0.930 . S
N167 C166 1.373 . S
N167 C169 1.340 . S
N168 C165 1.368 . S
N168 C169 1.321 . S
N168 Co171 2.135 . S
C169 N167 1.340 . S
C169 N168 1.321 . S
C169 H193 0.930 . S
H170 C165 0.931 . S
Co171 N168 2.135 . S
Co171 N174 2.121 . S
Co171 O179 2.055 . S
Co171 O182 2.039 . S
Co171 N185 2.140 . S
C172 O173 1.227 . S
C172 O182 1.265 . S
O173 C172 1.227 . S
N174 Co171 2.121 . S
N174 C176 1.375 . S
N174 C177 1.313 . S
C175 C176 1.338 . S
C175 N178 1.377 . S
C175 H195 0.930 . S
C176 N174 1.375 . S
C176 C175 1.338 . S
C176 H180 0.931 . S
C177 N174 1.313 . S
C177 N178 1.344 . S
C177 H181 0.930 . S
N178 C175 1.377 . S
N178 C177 1.344 . S
O179 Co171 2.055 . S
O179 C183 1.253 . S
H180 C176 0.931 . S
H181 C177 0.930 . S
O182 Co171 2.039 . S
O182 C172 1.265 . S
C183 O179 1.253 . S
C183 O184 1.227 . S
O184 C183 1.227 . S
N185 Co171 2.140 . S
N185 C188 1.346 . S
N185 C189 1.345 . S
C186 C187 1.387 . S
C186 C190 1.391 . S
C187 C186 1.387 . S
C187 C188 1.369 . S
C187 H196 0.929 . S
C188 N185 1.346 . S
C188 C187 1.369 . S
C188 H191 0.928 . S
C189 N185 1.345 . S
C189 C190 1.371 . S
C189 H192 0.931 . S
C190 C186 1.391 . S
C190 C189 1.371 . S
C190 H197 0.930 . S
H191 C188 0.928 . S
H192 C189 0.931 . S
H193 C169 0.930 . S
H194 C166 0.930 . S
H195 C175 0.930 . S
H196 C187 0.929 . S
H197 C190 0.930 . S
C198 C199 1.351 1_556 S
C198 N201 1.368 . S
C198 H203 0.931 . S
C199 C198 1.351 1_554 S
C199 N200 1.373 . S
C199 H227 0.930 . S
N200 C199 1.373 . S
N200 C202 1.340 . S
N201 C198 1.368 . S
N201 C202 1.321 1_556 S
N201 Co204 2.135 . S
C202 N200 1.340 . S
C202 N201 1.321 1_554 S
C202 H226 0.930 . S
H203 C198 0.931 . S
Co204 N201 2.135 . S
Co204 N207 2.121 . S
Co204 O212 2.055 . S
Co204 O215 2.039 . S
Co204 N218 2.140 . S
C205 O206 1.227 . S
C205 O215 1.265 . S
O206 C205 1.227 . S
N207 Co204 2.121 . S
N207 C209 1.375 . S
N207 C210 1.313 . S
C208 C209 1.338 . S
C208 N211 1.377 . S
C208 H228 0.930 . S
C209 N207 1.375 . S
C209 C208 1.338 . S
C209 H213 0.931 . S
C210 N207 1.313 . S
C210 N211 1.344 . S
C210 H214 0.930 . S
N211 C208 1.377 . S
N211 C210 1.344 . S
O212 Co204 2.055 . S
O212 C216 1.253 . S
H213 C209 0.931 . S
H214 C210 0.930 . S
O215 Co204 2.039 . S
O215 C205 1.265 . S
C216 O212 1.253 . S
C216 O217 1.227 . S
O217 C216 1.227 . S
N218 Co204 2.140 . S
N218 C221 1.346 . S
N218 C222 1.345 . S
C219 C220 1.387 . S
C219 C223 1.391 . S
C220 C219 1.387 . S
C220 C221 1.369 . S
C220 H229 0.929 . S
C221 N218 1.346 . S
C221 C220 1.369 . S
C221 H224 0.928 . S
C222 N218 1.345 . S
C222 C223 1.371 . S
C222 H225 0.931 . S
C223 C219 1.391 . S
C223 C222 1.371 . S
C223 H230 0.930 . S
H224 C221 0.928 . S
H225 C222 0.931 . S
H226 C202 0.930 . S
H227 C199 0.930 . S
H228 C208 0.930 . S
H229 C220 0.929 . S
H230 C223 0.930 . S
C231 C232 1.351 . S
C231 N234 1.368 . S
C231 H236 0.931 . S
C232 C231 1.351 . S
C232 N233 1.373 . S
C232 H260 0.930 . S
N233 C232 1.373 . S
N233 C235 1.340 . S
N234 C231 1.368 . S
N234 C235 1.321 . S
N234 Co237 2.135 . S
C235 N233 1.340 . S
C235 N234 1.321 . S
C235 H259 0.930 . S
H236 C231 0.931 . S
Co237 N234 2.135 . S
Co237 N240 2.121 1_554 S
Co237 O245 2.055 . S
Co237 O248 2.039 . S
Co237 N251 2.140 . S
C238 O239 1.227 . S
C238 O248 1.265 . S
O239 C238 1.227 . S
N240 Co237 2.121 1_556 S
N240 C242 1.375 . S
N240 C243 1.313 . S
C241 C242 1.338 . S
C241 N244 1.377 . S
C241 H261 0.930 . S
C242 N240 1.375 . S
C242 C241 1.338 . S
C242 H246 0.931 . S
C243 N240 1.313 . S
C243 N244 1.344 . S
C243 H247 0.930 . S
N244 C241 1.377 . S
N244 C243 1.344 . S
O245 Co237 2.055 . S
O245 C249 1.253 1_554 S
H246 C242 0.931 . S
H247 C243 0.930 . S
O248 Co237 2.039 . S
O248 C238 1.265 . S
C249 O245 1.253 1_556 S
C249 O250 1.227 . S
O250 C249 1.227 . S
N251 Co237 2.140 . S
N251 C254 1.346 . S
N251 C255 1.345 1_554 S
C252 C253 1.387 . S
C252 C256 1.391 1_554 S
C253 C252 1.387 . S
C253 C254 1.369 . S
C253 H262 0.929 . S
C254 N251 1.346 . S
C254 C253 1.369 . S
C254 H257 0.928 . S
C255 N251 1.345 1_556 S
C255 C256 1.371 . S
C255 H258 0.931 . S
C256 C252 1.391 1_556 S
C256 C255 1.371 . S
C256 H263 0.930 . S
H257 C254 0.928 . S
H258 C255 0.931 . S
H259 C235 0.930 . S
H260 C232 0.930 . S
H261 C241 0.930 . S
H262 C253 0.929 . S
H263 C256 0.930 . S
C264 C265 1.363 . S
C264 C270 1.379 . S
C264 N272 1.356 . S
C265 C264 1.363 . S
C265 C271 1.363 . S
C266 C267 1.363 . S
C266 C271 1.379 . S
C266 N273 1.356 . S
C267 C266 1.363 . S
C267 C270 1.363 . S
N268 C270 1.356 . S
N268 H280 0.984 . S
N268 H281 0.985 . S
N269 C271 1.356 . S
N269 H274 0.984 . S
N269 H275 0.985 . S
C270 C264 1.379 . S
C270 C267 1.363 . S
C270 N268 1.356 . S
C271 C265 1.363 . S
C271 C266 1.379 . S
C271 N269 1.356 . S
N272 C264 1.356 . S
N272 H278 0.984 . S
N272 H279 0.984 . S
N273 C266 1.356 . S
N273 H276 0.984 . S
N273 H277 0.985 . S
H274 N269 0.984 . S
H275 N269 0.985 . S
H276 N273 0.984 . S
H277 N273 0.985 . S
H278 N272 0.984 . S
H279 N272 0.984 . S
H280 N268 0.984 . S
H281 N268 0.985 . S
C282 C283 1.363 . S
C282 C288 1.379 . S
C282 N290 1.356 . S
C283 C282 1.363 . S
C283 C289 1.363 . S
C284 C285 1.363 . S
C284 C289 1.379 . S
C284 N291 1.356 . S
C285 C284 1.363 . S
C285 C288 1.363 . S
N286 C288 1.356 . S
N286 H298 0.984 . S
N286 H299 0.985 . S
N287 C289 1.356 . S
N287 H292 0.984 . S
N287 H293 0.985 . S
C288 C282 1.379 . S
C288 C285 1.363 . S
C288 N286 1.356 . S
C289 C283 1.363 . S
C289 C284 1.379 . S
C289 N287 1.356 . S
N290 C282 1.356 . S
N290 H296 0.984 . S
N290 H297 0.984 . S
N291 C284 1.356 . S
N291 H294 0.984 . S
N291 H295 0.985 . S
H292 N287 0.984 . S
H293 N287 0.985 . S
H294 N291 0.984 . S
H295 N291 0.985 . S
H296 N290 0.984 . S
H297 N290 0.984 . S
H298 N286 0.984 . S
H299 N286 0.985 . S
C300 C301 1.363 . S
C300 C306 1.379 . S
C300 N308 1.356 . S
C301 C300 1.363 . S
C301 C307 1.363 . S
C302 C303 1.363 . S
C302 C307 1.379 . S
C302 N309 1.356 . S
C303 C302 1.363 . S
C303 C306 1.363 . S
N304 C306 1.356 . S
N304 H316 0.984 . S
N304 H317 0.985 . S
N305 C307 1.356 . S
N305 H310 0.984 . S
N305 H311 0.985 . S
C306 C300 1.379 . S
C306 C303 1.363 . S
C306 N304 1.356 . S
C307 C301 1.363 . S
C307 C302 1.379 . S
C307 N305 1.356 . S
N308 C300 1.356 . S
N308 H314 0.984 . S
N308 H315 0.984 . S
N309 C302 1.356 . S
N309 H312 0.984 1_556 S
N309 H313 0.985 . S
H310 N305 0.984 . S
H311 N305 0.985 . S
H312 N309 0.984 1_554 S
H313 N309 0.985 . S
H314 N308 0.984 . S
H315 N308 0.984 . S
H316 N304 0.984 . S
H317 N304 0.985 . S
C318 C319 1.363 . S
C318 C324 1.379 . S
C318 N326 1.356 . S
C319 C318 1.363 . S
C319 C325 1.363 . S
C320 C321 1.363 . S
C320 C325 1.379 . S
C320 N327 1.356 1_554 S
C321 C320 1.363 . S
C321 C324 1.363 . S
N322 C324 1.356 . S
N322 H334 0.984 . S
N322 H335 0.985 . S
N323 C325 1.356 . S
N323 H328 0.984 . S
N323 H329 0.985 . S
C324 C318 1.379 . S
C324 C321 1.363 . S
C324 N322 1.356 . S
C325 C319 1.363 . S
C325 C320 1.379 . S
C325 N323 1.356 . S
N326 C318 1.356 . S
N326 H332 0.984 . S
N326 H333 0.984 . S
N327 C320 1.356 1_556 S
N327 H330 0.984 . S
N327 H331 0.985 . S
H328 N323 0.984 . S
H329 N323 0.985 . S
H330 N327 0.984 . S
H331 N327 0.985 . S
H332 N326 0.984 . S
H333 N326 0.984 . S
H334 N322 0.984 . S
H335 N322 0.985 . S
C336 C337 1.363 . S
C336 C342 1.379 . S
C336 N344 1.356 . S
C337 C336 1.363 . S
C337 C343 1.363 . S
C338 C339 1.363 . S
C338 C343 1.379 . S
C338 N345 1.356 . S
C339 C338 1.363 . S
C339 C342 1.363 . S
N340 C342 1.356 . S
N340 H352 0.984 . S
N340 H353 0.985 . S
N341 C343 1.356 . S
N341 H346 0.984 . S
N341 H347 0.985 . S
C342 C336 1.379 . S
C342 C339 1.363 . S
C342 N340 1.356 . S
C343 C337 1.363 . S
C343 C338 1.379 . S
C343 N341 1.356 . S
N344 C336 1.356 . S
N344 H350 0.984 . S
N344 H351 0.984 . S
N345 C338 1.356 . S
N345 H348 0.984 . S
N345 H349 0.985 . S
H346 N341 0.984 . S
H347 N341 0.985 . S
H348 N345 0.984 . S
H349 N345 0.985 . S
H350 N344 0.984 . S
H351 N344 0.984 . S
H352 N340 0.984 . S
H353 N340 0.985 . S
C354 C355 1.363 1_556 S
C354 C360 1.379 . S
C354 N362 1.358 . S
C355 C354 1.363 1_554 S
C355 C361 1.363 . S
C356 C357 1.363 . S
C356 C361 1.379 1_556 S
C356 N363 1.356 . S
C357 C356 1.363 . S
C357 C360 1.363 . S
N358 C360 1.356 . S
N358 H370 0.984 . S
N358 H371 0.985 . S
N359 C361 1.356 . S
N359 H364 0.984 . S
N359 H365 0.985 . S
C360 C354 1.379 . S
C360 C357 1.363 . S
C360 N358 1.356 . S
C361 C355 1.363 . S
C361 C356 1.379 1_554 S
C361 N359 1.356 . S
N362 C354 1.358 . S
N362 H368 0.987 . S
N362 H369 0.981 1_556 S
N363 C356 1.356 . S
N363 H366 0.984 . S
N363 H367 0.985 . S
H364 N359 0.984 . S
H365 N359 0.985 . S
H366 N363 0.984 . S
H367 N363 0.985 . S
H368 N362 0.987 . S
H369 N362 0.981 1_554 S
H370 N358 0.984 . S
H371 N358 0.985 . S
C372 C373 1.363 . S
C372 C378 1.379 . S
C372 N380 1.356 . S
C373 C372 1.363 . S
C373 C379 1.363 . S
C374 C375 1.363 . S
C374 C379 1.379 . S
C374 N381 1.356 . S
C375 C374 1.363 . S
C375 C378 1.363 . S
N376 C378 1.356 . S
N376 H388 0.984 . S
N376 H389 0.985 . S
N377 C379 1.356 . S
N377 H382 0.984 . S
N377 H383 0.985 . S
C378 C372 1.379 . S
C378 C375 1.363 . S
C378 N376 1.356 . S
C379 C373 1.363 . S
C379 C374 1.379 . S
C379 N377 1.356 . S
N380 C372 1.356 . S
N380 H386 0.984 . S
N380 H387 0.984 1_554 S
N381 C374 1.356 . S
N381 H384 0.984 . S
N381 H385 0.985 . S
H382 N377 0.984 . S
H383 N377 0.985 . S
H384 N381 0.984 . S
H385 N381 0.985 . S
H386 N380 0.984 . S
H387 N380 0.984 1_556 S
H388 N376 0.984 . S
H389 N376 0.985 . S
C390 C391 1.363 . S
C390 C396 1.379 . S
C390 N398 1.356 . S
C391 C390 1.363 . S
C391 C397 1.363 . S
C392 C393 1.363 . S
C392 C397 1.379 . S
C392 N399 1.356 . S
C393 C392 1.363 . S
C393 C396 1.363 . S
N394 C396 1.356 . S
N394 H406 0.984 . S
N394 H407 0.985 . S
N395 C397 1.356 . S
N395 H400 0.984 . S
N395 H401 0.985 . S
C396 C390 1.379 . S
C396 C393 1.363 . S
C396 N394 1.356 . S
C397 C391 1.363 . S
C397 C392 1.379 . S
C397 N395 1.356 . S
N398 C390 1.356 . S
N398 H404 0.984 . S
N398 H405 0.984 . S
N399 C392 1.356 . S
N399 H402 0.984 . S
N399 H403 0.985 . S
H400 N395 0.984 . S
H401 N395 0.985 . S
H402 N399 0.984 . S
H403 N399 0.985 . S
H404 N398 0.984 . S
H405 N398 0.984 . S
H406 N394 0.984 . S
H407 N394 0.985 . S
C408 C409 1.363 . S
C408 C414 1.379 . S
C408 N416 1.356 . S
C409 C408 1.363 . S
C409 C415 1.363 . S
C410 C411 1.363 . S
C410 C415 1.379 . S
C410 N417 1.356 . S
C411 C410 1.363 . S
C411 C414 1.363 . S
N412 C414 1.356 . S
N412 H424 0.984 . S
N412 H425 0.985 . S
N413 C415 1.356 . S
N413 H418 0.984 . S
N413 H419 0.985 . S
C414 C408 1.379 . S
C414 C411 1.363 . S
C414 N412 1.356 . S
C415 C409 1.363 . S
C415 C410 1.379 . S
C415 N413 1.356 . S
N416 C408 1.356 . S
N416 H422 0.984 . S
N416 H423 0.984 1_556 S
N417 C410 1.356 . S
N417 H420 0.984 . S
N417 H421 0.985 . S
H418 N413 0.984 . S
H419 N413 0.985 . S
H420 N417 0.984 . S
H421 N417 0.985 . S
H422 N416 0.984 . S
H423 N416 0.984 1_554 S
H424 N412 0.984 . S
H425 N412 0.985 . S
C426 C427 1.363 . S
C426 C432 1.379 1_554 S
C426 N434 1.356 . S
C427 C426 1.363 . S
C427 C433 1.363 . S
C428 C429 1.363 1_554 S
C428 C433 1.379 . S
C428 N435 1.356 1_554 S
C429 C428 1.363 1_556 S
C429 C432 1.363 . S
N430 C432 1.356 . S
N430 H442 0.984 . S
N430 H443 0.985 . S
N431 C433 1.356 . S
N431 H436 0.984 . S
N431 H437 0.985 . S
C432 C426 1.379 1_556 S
C432 C429 1.363 . S
C432 N430 1.356 . S
C433 C427 1.363 . S
C433 C428 1.379 . S
C433 N431 1.356 . S
N434 C426 1.356 . S
N434 H440 0.984 . S
N434 H441 0.984 . S
N435 C428 1.356 1_556 S
N435 H438 0.984 . S
N435 H439 0.985 1_556 S
H436 N431 0.984 . S
H437 N431 0.985 . S
H438 N435 0.984 . S
H439 N435 0.985 1_554 S
H440 N434 0.984 . S
H441 N434 0.984 . S
H442 N430 0.984 . S
H443 N430 0.985 . S
C444 C445 1.363 . S
C444 C450 1.379 . S
C444 N452 1.356 . S
C445 C444 1.363 . S
C445 C451 1.363 . S
C446 C447 1.363 . S
C446 C451 1.379 . S
C446 N453 1.356 . S
C447 C446 1.363 . S
C447 C450 1.363 . S
N448 C450 1.356 . S
N448 H460 0.984 . S
N448 H461 0.985 . S
N449 C451 1.356 . S
N449 H454 0.984 . S
N449 H455 0.985 . S
C450 C444 1.379 . S
C450 C447 1.363 . S
C450 N448 1.356 . S
C451 C445 1.363 . S
C451 C446 1.379 . S
C451 N449 1.356 . S
N452 C444 1.356 . S
N452 H458 0.984 . S
N452 H459 0.984 . S
N453 C446 1.356 . S
N453 H456 0.984 . S
N453 H457 0.985 . S
H454 N449 0.984 . S
H455 N449 0.985 . S
H456 N453 0.984 . S
H457 N453 0.985 . S
H458 N452 0.984 . S
H459 N452 0.984 . S
H460 N448 0.984 . S
H461 N448 0.985 . S
C462 C463 1.363 . S
C462 C468 1.379 . S
C462 N470 1.356 . S
C463 C462 1.363 . S
C463 C469 1.363 . S
C464 C465 1.363 . S
C464 C469 1.379 . S
C464 N471 1.356 . S
C465 C464 1.363 . S
C465 C468 1.363 . S
N466 C468 1.356 . S
N466 H478 0.984 . S
N466 H479 0.985 . S
N467 C469 1.356 . S
N467 H472 0.984 . S
N467 H473 0.985 . S
C468 C462 1.379 . S
C468 C465 1.363 . S
C468 N466 1.356 . S
C469 C463 1.363 . S
C469 C464 1.379 . S
C469 N467 1.356 . S
N470 C462 1.356 . S
N470 H476 0.984 . S
N470 H477 0.984 . S
N471 C464 1.356 . S
N471 H474 0.984 . S
N471 H475 0.985 . S
H472 N467 0.984 . S
H473 N467 0.985 . S
H474 N471 0.984 . S
H475 N471 0.985 . S
H476 N470 0.984 . S
H477 N470 0.984 . S
H478 N466 0.984 . S
H479 N466 0.985 . S
C480 C481 1.366 . S
C480 C486 1.362 1_454 S
C480 N488 1.357 . S
C481 C480 1.366 . S
C481 C487 1.377 . S
C482 C483 1.366 . S
C482 C487 1.362 1_656 S
C482 N489 1.357 . S
C483 C482 1.366 . S
C483 C486 1.377 . S
N484 C486 1.361 . S
N484 H496 0.984 1_655 S
N484 H497 0.985 . S
N485 C487 1.361 . S
N485 H490 0.984 . S
N485 H491 0.985 1_455 S
C486 C480 1.362 1_656 S
C486 C483 1.377 . S
C486 N484 1.361 . S
C487 C481 1.377 . S
C487 C482 1.362 1_454 S
C487 N485 1.361 . S
N488 C480 1.357 . S
N488 H494 0.984 1_554 S
N488 H495 0.984 . S
N489 C482 1.357 . S
N489 H492 0.984 . S
N489 H493 0.985 1_556 S
H490 N485 0.984 . S
H491 N485 0.985 1_655 S
H492 N489 0.984 . S
H493 N489 0.985 1_554 S
H494 N488 0.984 1_556 S
H495 N488 0.984 . S
H496 N484 0.984 1_455 S
H497 N484 0.985 . S
C498 C499 1.363 . S
C498 C504 1.384 . S
C498 N506 1.356 . S
C499 C498 1.363 . S
C499 C505 1.357 1_565 S
C500 C501 1.363 . S
C500 C505 1.384 . S
C500 N507 1.356 . S
C501 C500 1.363 . S
C501 C504 1.357 1_545 S
N502 C504 1.355 1_545 S
N502 H514 0.984 1_545 S
N502 H515 0.985 . S
N503 C505 1.355 1_565 S
N503 H508 0.984 . S
N503 H509 0.985 1_565 S
C504 C498 1.384 . S
C504 C501 1.357 1_565 S
C504 N502 1.355 1_565 S
C505 C499 1.357 1_545 S
C505 C500 1.384 . S
C505 N503 1.355 1_545 S
N506 C498 1.356 . S
N506 H512 0.984 . S
N506 H513 0.984 . S
N507 C500 1.356 . S
N507 H510 0.984 . S
N507 H511 0.985 . S
H508 N503 0.984 . S
H509 N503 0.985 1_545 S
H510 N507 0.984 . S
H511 N507 0.985 . S
H512 N506 0.984 . S
H513 N506 0.984 . S
H514 N502 0.984 1_565 S
H515 N502 0.985 . S
C516 C517 1.363 . S
C516 C522 1.365 1_455 S
C516 N524 1.356 . S
C517 C516 1.363 . S
C517 C523 1.377 . S
C518 C519 1.363 . S
C518 C523 1.365 1_655 S
C518 N525 1.356 . S
C519 C518 1.363 . S
C519 C522 1.377 . S
N520 C522 1.361 . S
N520 H532 0.984 1_655 S
N520 H533 0.985 . S
N521 C523 1.361 . S
N521 H526 0.984 . S
N521 H527 0.985 1_455 S
C522 C516 1.365 1_655 S
C522 C519 1.377 . S
C522 N520 1.361 . S
C523 C517 1.377 . S
C523 C518 1.365 1_455 S
C523 N521 1.361 . S
N524 C516 1.356 . S
N524 H530 0.984 . S
N524 H531 0.984 . S
N525 C518 1.356 . S
N525 H528 0.984 . S
N525 H529 0.985 . S
H526 N521 0.984 . S
H527 N521 0.985 1_655 S
H528 N525 0.984 . S
H529 N525 0.985 . S
H530 N524 0.984 . S
H531 N524 0.984 . S
H532 N520 0.984 1_455 S
H533 N520 0.985 . S
C534 C535 1.363 . S
C534 C540 1.377 1_565 S
C534 N542 1.356 . S
C535 C534 1.363 . S
C535 C541 1.365 . S
C536 C537 1.363 . S
C536 C541 1.377 1_545 S
C536 N543 1.356 . S
C537 C536 1.363 . S
C537 C540 1.365 . S
N538 C540 1.357 . S
N538 H550 0.984 1_545 S
N538 H551 0.985 . S
N539 C541 1.357 . S
N539 H544 0.984 . S
N539 H545 0.985 1_565 S
C540 C534 1.377 1_545 S
C540 C537 1.365 . S
C540 N538 1.357 . S
C541 C535 1.365 . S
C541 C536 1.377 1_565 S
C541 N539 1.357 . S
N542 C534 1.356 . S
N542 H548 0.984 . S
N542 H549 0.984 . S
N543 C536 1.356 . S
N543 H546 0.984 . S
N543 H547 0.985 . S
H544 N539 0.984 . S
H545 N539 0.985 1_545 S
H546 N543 0.984 . S
H547 N543 0.985 . S
H548 N542 0.984 . S
H549 N542 0.984 . S
H550 N538 0.984 1_565 S
H551 N538 0.985 . S
C552 C553 1.363 . S
C552 C558 1.379 . S
C552 N560 1.356 . S
C553 C552 1.363 . S
C553 C559 1.363 . S
C554 C555 1.363 . S
C554 C559 1.379 . S
C554 N561 1.356 . S
C555 C554 1.363 . S
C555 C558 1.363 . S
N556 C558 1.356 . S
N556 H568 0.984 . S
N556 H569 0.985 . S
N557 C559 1.356 . S
N557 H562 0.984 . S
N557 H563 0.985 . S
C558 C552 1.379 . S
C558 C555 1.363 . S
C558 N556 1.356 . S
C559 C553 1.363 . S
C559 C554 1.379 . S
C559 N557 1.356 . S
N560 C552 1.356 . S
N560 H566 0.984 . S
N560 H567 0.984 . S
N561 C554 1.356 . S
N561 H564 0.984 . S
N561 H565 0.985 . S
H562 N557 0.984 . S
H563 N557 0.985 . S
H564 N561 0.984 . S
H565 N561 0.985 . S
H566 N560 0.984 . S
H567 N560 0.984 . S
H568 N556 0.984 . S
H569 N556 0.985 . S
C570 C571 1.363 . S
C570 C576 1.379 . S
C570 N578 1.356 . S
C571 C570 1.363 . S
C571 C577 1.363 . S
C572 C573 1.363 . S
C572 C577 1.379 . S
C572 N579 1.356 . S
C573 C572 1.363 . S
C573 C576 1.363 . S
N574 C576 1.356 . S
N574 H586 0.984 . S
N574 H587 0.985 . S
N575 C577 1.356 . S
N575 H580 0.984 . S
N575 H581 0.985 . S
C576 C570 1.379 . S
C576 C573 1.363 . S
C576 N574 1.356 . S
C577 C571 1.363 . S
C577 C572 1.379 . S
C577 N575 1.356 . S
N578 C570 1.356 . S
N578 H584 0.984 . S
N578 H585 0.984 . S
N579 C572 1.356 . S
N579 H582 0.984 . S
N579 H583 0.985 . S
H580 N575 0.984 . S
H581 N575 0.985 . S
H582 N579 0.984 . S
H583 N579 0.985 . S
H584 N578 0.984 . S
H585 N578 0.984 . S
H586 N574 0.984 . S
H587 N574 0.985 . S
C588 C589 1.363 . S
C588 C594 1.379 . S
C588 N596 1.356 . S
C589 C588 1.363 . S
C589 C595 1.363 . S
C590 C591 1.363 . S
C590 C595 1.379 . S
C590 N597 1.356 . S
C591 C590 1.363 . S
C591 C594 1.363 . S
N592 C594 1.356 . S
N592 H604 0.984 . S
N592 H605 0.985 . S
N593 C595 1.356 . S
N593 H598 0.984 . S
N593 H599 0.985 . S
C594 C588 1.379 . S
C594 C591 1.363 . S
C594 N592 1.356 . S
C595 C589 1.363 . S
C595 C590 1.379 . S
C595 N593 1.356 . S
N596 C588 1.356 . S
N596 H602 0.984 . S
N596 H603 0.984 . S
N597 C590 1.356 . S
N597 H600 0.984 . S
N597 H601 0.985 . S
H598 N593 0.984 . S
H599 N593 0.985 . S
H600 N597 0.984 . S
H601 N597 0.985 . S
H602 N596 0.984 . S
H603 N596 0.984 . S
H604 N592 0.984 . S
H605 N592 0.985 . S
C606 C607 1.363 1_556 S
C606 C612 1.379 . S
C606 N614 1.356 . S
C607 C606 1.363 1_554 S
C607 C613 1.363 . S
C608 C609 1.363 1_554 S
C608 C613 1.379 . S
C608 N615 1.356 . S
C609 C608 1.363 1_556 S
C609 C612 1.363 . S
N610 C612 1.356 . S
N610 H622 0.984 . S
N610 H623 0.985 . S
N611 C613 1.356 . S
N611 H616 0.984 . S
N611 H617 0.985 . S
C612 C606 1.379 . S
C612 C609 1.363 . S
C612 N610 1.356 . S
C613 C607 1.363 . S
C613 C608 1.379 . S
C613 N611 1.356 . S
N614 C606 1.356 . S
N614 H620 0.984 . S
N614 H621 0.984 . S
N615 C608 1.356 . S
N615 H618 0.984 . S
N615 H619 0.985 . S
H616 N611 0.984 . S
H617 N611 0.985 . S
H618 N615 0.984 . S
H619 N615 0.985 . S
H620 N614 0.984 . S
H621 N614 0.984 . S
H622 N610 0.984 . S
H623 N610 0.985 . S
C265 C183 1.359 . S
C267 C18 1.359 . S
C283 C216 1.359 . S
C285 C51 1.359 . S
C301 C84 1.359 . S
C303 C249 1.359 . S
C319 C150 1.359 . S
C321 C117 1.359 . S
C337 N13 1.322 . S
C339 N2 1.322 . S
C355 N35 1.322 . S
C357 N46 1.322 . S
C373 N79 1.322 . S
C375 N68 1.322 . S
C391 N112 1.322 . S
C393 N101 1.322 . S
C409 N145 1.322 . S
C411 N134 1.322 . S
C427 N178 1.322 . S
C429 N167 1.322 . S
C445 N211 1.322 . S
C447 N200 1.322 . S
C463 N233 1.322 . S
C465 N244 1.322 . S
C481 C7 1.486 . S
C483 C205 1.486 . S
C499 C238 1.486 . S
C501 C40 1.486 . S
C517 C139 1.486 . S
C519 C73 1.486 . S
C535 C106 1.486 . S
C537 C172 1.486 . S
C553 C21 1.569 . S
C555 C153 1.569 . S
C571 C54 1.569 . S
C573 C186 1.569 . S
C589 C87 1.569 . S
C591 C219 1.569 . S
C607 C252 1.569 . S
C609 C120 1.569 . S
