# Generated by pormake.
# Topology bcu-j, (5)-cn, num edge types: 1
# Building blocks:
#     Node 0, Type 0, BuildingBlock: XOMCOT_clean_sbu_0, # of connection points: 5
#     Node 1, Type 0, BuildingBlock: XOMCOT_clean_sbu_0, # of connection points: 5
#     Node 2, Type 0, BuildingBlock: XOMCOT_clean_sbu_0, # of connection points: 5
#     Node 3, Type 0, BuildingBlock: XOMCOT_clean_sbu_0, # of connection points: 5
#     Node 4, Type 0, BuildingBlock: XOMCOT_clean_sbu_0, # of connection points: 5
#     Node 5, Type 0, BuildingBlock: XOMCOT_clean_sbu_0, # of connection points: 5
#     Node 6, Type 0, BuildingBlock: XOMCOT_clean_sbu_0, # of connection points: 5
#     Node 7, Type 0, BuildingBlock: XOMCOT_clean_sbu_0, # of connection points: 5
#     Node 8, Type 0, BuildingBlock: XOMCOT_clean_sbu_0, # of connection points: 5
#     Node 9, Type 0, BuildingBlock: XOMCOT_clean_sbu_0, # of connection points: 5
#     Node 10, Type 0, BuildingBlock: XOMCOT_clean_sbu_0, # of connection points: 5
#     Node 11, Type 0, BuildingBlock: XOMCOT_clean_sbu_0, # of connection points: 5
#     Node 12, Type 0, BuildingBlock: XOMCOT_clean_sbu_0, # of connection points: 5
#     Node 13, Type 0, BuildingBlock: XOMCOT_clean_sbu_0, # of connection points: 5
#     Node 14, Type 0, BuildingBlock: XOMCOT_clean_sbu_0, # of connection points: 5
#     Node 15, Type 0, BuildingBlock: XOMCOT_clean_sbu_0, # of connection points: 5
#     Edge 16, Type (0, 0), BuildingBlock: UVAHIK_clean_linker_0, # of connection points: 2
#     Edge 17, Type (0, 0), BuildingBlock: UVAHIK_clean_linker_0, # of connection points: 2
#     Edge 18, Type (0, 0), BuildingBlock: UVAHIK_clean_linker_0, # of connection points: 2
#     Edge 19, Type (0, 0), BuildingBlock: UVAHIK_clean_linker_0, # of connection points: 2
#     Edge 20, Type (0, 0), BuildingBlock: UVAHIK_clean_linker_0, # of connection points: 2
#     Edge 21, Type (0, 0), BuildingBlock: UVAHIK_clean_linker_0, # of connection points: 2
#     Edge 22, Type (0, 0), BuildingBlock: UVAHIK_clean_linker_0, # of connection points: 2
#     Edge 23, Type (0, 0), BuildingBlock: UVAHIK_clean_linker_0, # of connection points: 2
#     Edge 24, Type (0, 0), BuildingBlock: UVAHIK_clean_linker_0, # of connection points: 2
#     Edge 25, Type (0, 0), BuildingBlock: UVAHIK_clean_linker_0, # of connection points: 2
#     Edge 26, Type (0, 0), BuildingBlock: UVAHIK_clean_linker_0, # of connection points: 2
#     Edge 27, Type (0, 0), BuildingBlock: UVAHIK_clean_linker_0, # of connection points: 2
#     Edge 28, Type (0, 0), BuildingBlock: UVAHIK_clean_linker_0, # of connection points: 2
#     Edge 29, Type (0, 0), BuildingBlock: UVAHIK_clean_linker_0, # of connection points: 2
#     Edge 30, Type (0, 0), BuildingBlock: UVAHIK_clean_linker_0, # of connection points: 2
#     Edge 31, Type (0, 0), BuildingBlock: UVAHIK_clean_linker_0, # of connection points: 2
#     Edge 32, Type (0, 0), BuildingBlock: UVAHIK_clean_linker_0, # of connection points: 2
#     Edge 33, Type (0, 0), BuildingBlock: UVAHIK_clean_linker_0, # of connection points: 2
#     Edge 34, Type (0, 0), BuildingBlock: UVAHIK_clean_linker_0, # of connection points: 2
#     Edge 35, Type (0, 0), BuildingBlock: UVAHIK_clean_linker_0, # of connection points: 2
#     Edge 36, Type (0, 0), BuildingBlock: UVAHIK_clean_linker_0, # of connection points: 2
#     Edge 37, Type (0, 0), BuildingBlock: UVAHIK_clean_linker_0, # of connection points: 2
#     Edge 38, Type (0, 0), BuildingBlock: UVAHIK_clean_linker_0, # of connection points: 2
#     Edge 39, Type (0, 0), BuildingBlock: UVAHIK_clean_linker_0, # of connection points: 2
#     Edge 40, Type (0, 0), BuildingBlock: UVAHIK_clean_linker_0, # of connection points: 2
#     Edge 41, Type (0, 0), BuildingBlock: UVAHIK_clean_linker_0, # of connection points: 2
#     Edge 42, Type (0, 0), BuildingBlock: UVAHIK_clean_linker_0, # of connection points: 2
#     Edge 43, Type (0, 0), BuildingBlock: UVAHIK_clean_linker_0, # of connection points: 2
#     Edge 44, Type (0, 0), BuildingBlock: UVAHIK_clean_linker_0, # of connection points: 2
#     Edge 45, Type (0, 0), BuildingBlock: UVAHIK_clean_linker_0, # of connection points: 2
#     Edge 46, Type (0, 0), BuildingBlock: UVAHIK_clean_linker_0, # of connection points: 2
#     Edge 47, Type (0, 0), BuildingBlock: UVAHIK_clean_linker_0, # of connection points: 2
#     Edge 48, Type (0, 0), BuildingBlock: UVAHIK_clean_linker_0, # of connection points: 2
#     Edge 49, Type (0, 0), BuildingBlock: UVAHIK_clean_linker_0, # of connection points: 2
#     Edge 50, Type (0, 0), BuildingBlock: UVAHIK_clean_linker_0, # of connection points: 2
#     Edge 51, Type (0, 0), BuildingBlock: UVAHIK_clean_linker_0, # of connection points: 2
#     Edge 52, Type (0, 0), BuildingBlock: UVAHIK_clean_linker_0, # of connection points: 2
#     Edge 53, Type (0, 0), BuildingBlock: UVAHIK_clean_linker_0, # of connection points: 2
#     Edge 54, Type (0, 0), BuildingBlock: UVAHIK_clean_linker_0, # of connection points: 2
#     Edge 55, Type (0, 0), BuildingBlock: UVAHIK_clean_linker_0, # of connection points: 2
# Relax obj value: 0.621
# Max RMSD: 0.316
# Mean RMSD: 0.315
data_MOF--net-bcu-j--node1-XOMCOT_clean_sbu_0--edge1-UVAHIK_clean_linker_0
_symmetry_space_group_name_H-M    P1
_symmetry_Int_Tables_number       1
_symmetry_cell_setting            triclinic
loop_
_symmetry_equiv_pos_as_xyz
'x, y, z'
_cell_length_a     51.986552
_cell_length_b     51.998202
_cell_length_c     61.161461
_cell_angle_alpha  89.889646
_cell_angle_beta   90.137251
_cell_angle_gamma 90.102676
loop_
_atom_site_label
_atom_site_type_symbol
_atom_site_fract_x
_atom_site_fract_y
_atom_site_fract_z
_atom_type_partial_charge
Co0 Co 0.99054 0.14639 0.63165 0.0
C1 C 0.04419 0.12746 0.63243 0.0
C2 C 0.0329 0.14089 0.60062 0.0
C3 C 0.0576 0.13133 0.59937 0.0
N4 N 0.02459 0.13841 0.62134 0.0
N5 N 0.06458 0.12308 0.61945 0.0
H6 H 0.04338 0.12168 0.64939 0.0
H7 H 0.02154 0.1485 0.58727 0.0
C8 C 0.00104 0.19812 0.62175 0.0
O9 O 0.99021 0.18948 0.60376 0.0
N10 N 0.95622 0.15395 0.6419 0.0
C11 C 0.93839 0.13626 0.64751 0.0
C12 C 0.91817 0.14843 0.65752 0.0
C13 C 0.94652 0.17668 0.64852 0.0
N14 N 0.92338 0.17379 0.65818 0.0
C15 C 0.98615 0.09218 0.62436 0.0
C16 C 0.96293 0.09857 0.58391 0.0
C17 C 0.97285 0.07438 0.58966 0.0
C18 C 0.9834 0.07102 0.61061 0.0
C19 C 0.96592 0.11917 0.59821 0.0
N20 N 0.97825 0.11589 0.61762 0.0
H21 H 0.99636 0.08984 0.63962 0.0
H22 H 0.96034 0.13829 0.59309 0.0
H23 H 0.94056 0.1157 0.64578 0.0
H24 H 0.95694 0.19468 0.64802 0.0
O25 O 0.99751 0.1299 0.66049 0.0
O26 O 0.00613 0.16928 0.65505 0.0
O27 O 0.00277 0.18274 0.63829 0.0
C28 C 0.00655 0.15034 0.66864 0.0
H29 H 0.0694 0.1303 0.58485 0.0
H30 H 0.90163 0.1392 0.66489 0.0
H31 H 0.95497 0.10215 0.56781 0.0
H32 H 0.99104 0.0526 0.61574 0.0
Co33 Co 0.35595 0.9905 0.64042 0.0
C34 C 0.36806 0.04571 0.6344 0.0
C35 C 0.3484 0.02973 0.60668 0.0
C36 C 0.35374 0.05524 0.60241 0.0
N37 N 0.3574 0.02386 0.62672 0.0
N38 N 0.36598 0.06518 0.61996 0.0
H39 H 0.37791 0.04734 0.6499 0.0
H40 H 0.33891 0.01628 0.59585 0.0
C41 C 0.30259 0.99637 0.64168 0.0
O42 O 0.30685 0.98448 0.62309 0.0
N43 N 0.35477 0.95699 0.65386 0.0
C44 C 0.37528 0.94369 0.66122 0.0
C45 C 0.36669 0.92203 0.67193 0.0
C46 C 0.33404 0.94312 0.65982 0.0
N47 N 0.34079 0.92175 0.67096 0.0
C48 C 0.40589 0.98984 0.62103 0.0
C49 C 0.39131 0.9573 0.58736 0.0
C50 C 0.41527 0.9697 0.58638 0.0
C51 C 0.42287 0.98544 0.60387 0.0
C52 C 0.37492 0.96223 0.60487 0.0
N53 N 0.38213 0.97878 0.62094 0.0
H54 H 0.41115 0.00349 0.63356 0.0
H55 H 0.35578 0.95402 0.60503 0.0
H56 H 0.39506 0.94993 0.65975 0.0
H57 H 0.31439 0.94924 0.65742 0.0
O58 O 0.3801 0.00146 0.66398 0.0
O59 O 0.33978 0.00643 0.66742 0.0
O60 O 0.32199 0.00081 0.65433 0.0
C61 C 0.36218 0.00931 0.67617 0.0
H62 H 0.34899 0.06566 0.58761 0.0
H63 H 0.37847 0.90817 0.68057 0.0
H64 H 0.38482 0.94488 0.57426 0.0
H65 H 0.44098 0.99576 0.60358 0.0
Co66 Co 0.51367 0.3561 0.63689 0.0
C67 C 0.46179 0.37811 0.63133 0.0
C68 C 0.47149 0.35259 0.60515 0.0
C69 C 0.44628 0.3602 0.60259 0.0
N70 N 0.48103 0.36363 0.62331 0.0
N71 N 0.44014 0.37611 0.61922 0.0
H72 H 0.46343 0.38961 0.64594 0.0
H73 H 0.4818 0.33919 0.59493 0.0
C74 C 0.50118 0.30378 0.63282 0.0
O75 O 0.51494 0.3085 0.61525 0.0
N76 N 0.54638 0.34876 0.65043 0.0
C77 C 0.56289 0.36642 0.65837 0.0
C78 C 0.58251 0.35393 0.6691 0.0
C79 C 0.55623 0.32581 0.65625 0.0
N80 N 0.57824 0.32835 0.6679 0.0
C81 C 0.52123 0.40811 0.62306 0.0
C82 C 0.55058 0.39448 0.58718 0.0
C83 C 0.54088 0.4196 0.58861 0.0
C84 C 0.52703 0.42663 0.60734 0.0
C85 C 0.54426 0.37653 0.60327 0.0
N86 N 0.52906 0.38334 0.62035 0.0
H87 H 0.50873 0.41323 0.63643 0.0
H88 H 0.54996 0.35666 0.60137 0.0
H89 H 0.56017 0.38701 0.65736 0.0
H90 H 0.54706 0.30767 0.65274 0.0
O91 O 0.50517 0.37769 0.66282 0.0
O92 O 0.49472 0.33827 0.66169 0.0
O93 O 0.49876 0.32189 0.64708 0.0
C94 C 0.49422 0.35935 0.67271 0.0
H95 H 0.43326 0.35361 0.58996 0.0
H96 H 0.59777 0.36314 0.67827 0.0
H97 H 0.56157 0.38834 0.5731 0.0
H98 H 0.51883 0.44566 0.60899 0.0
Co99 Co 0.14721 0.51384 0.62792 0.0
C100 C 0.12769 0.46137 0.61922 0.0
C101 C 0.15208 0.47506 0.59346 0.0
C102 C 0.1442 0.45038 0.58847 0.0
N103 N 0.14177 0.4818 0.61278 0.0
N104 N 0.12905 0.44186 0.60484 0.0
H105 H 0.11634 0.46065 0.63396 0.0
H106 H 0.16464 0.48717 0.5838 0.0
C107 C 0.19993 0.50126 0.63046 0.0
O108 O 0.19881 0.51477 0.6123 0.0
N109 N 0.15256 0.54605 0.64275 0.0
C110 C 0.13419 0.56176 0.65055 0.0
C111 C 0.14588 0.58216 0.66097 0.0
C112 C 0.17507 0.55716 0.64822 0.0
N113 N 0.1716 0.57918 0.65946 0.0
C114 C 0.09757 0.5234 0.60947 0.0
C115 C 0.1169 0.55099 0.57435 0.0
C116 C 0.09116 0.54281 0.57396 0.0
C117 C 0.08127 0.52984 0.59225 0.0
C118 C 0.13255 0.54425 0.59202 0.0
N119 N 0.12294 0.52991 0.60874 0.0
H120 H 0.09016 0.51148 0.62247 0.0
H121 H 0.15285 0.54884 0.59169 0.0
H122 H 0.11372 0.55829 0.64921 0.0
H123 H 0.19365 0.5488 0.64503 0.0
O124 O 0.12152 0.50414 0.65067 0.0
O125 O 0.16074 0.49427 0.65438 0.0
O126 O 0.17927 0.49846 0.64188 0.0
C127 C 0.13795 0.4929 0.66254 0.0
H128 H 0.14965 0.43938 0.57421 0.0
H129 H 0.13621 0.59762 0.66944 0.0
H130 H 0.12522 0.56113 0.56058 0.0
H131 H 0.06169 0.52272 0.59249 0.0
Co132 Co 0.9876 0.3554 0.86426 0.0
C133 C 0.04198 0.36854 0.87303 0.0
C134 C 0.02514 0.3474 0.89953 0.0
C135 C 0.05024 0.35342 0.905 0.0
N136 N 0.02008 0.35692 0.87949 0.0
N137 N 0.06069 0.36651 0.88816 0.0
H138 H 0.0442 0.37912 0.85796 0.0
H139 H 0.01141 0.33714 0.90957 0.0
C140 C 0.99533 0.30233 0.86199 0.0
O141 O 0.98105 0.30527 0.87951 0.0
N142 N 0.95493 0.35427 0.84919 0.0
C143 C 0.93924 0.37453 0.84582 0.0
C144 C 0.91988 0.36734 0.83175 0.0
C145 C 0.94486 0.335 0.83718 0.0
N146 N 0.92352 0.34252 0.8263 0.0
C147 C 0.983 0.40558 0.88292 0.0
C148 C 0.95602 0.38845 0.91914 0.0
C149 C 0.96601 0.41355 0.91896 0.0
C150 C 0.9787 0.42235 0.90017 0.0
C151 C 0.96054 0.37231 0.90134 0.0
N152 N 0.97455 0.38079 0.884 0.0
H153 H 0.99469 0.41214 0.86948 0.0
H154 H 0.95444 0.35242 0.902 0.0
H155 H 0.94236 0.39368 0.85215 0.0
H156 H 0.95386 0.31645 0.83509 0.0
O157 O -0.00021 0.38051 0.84202 0.0
O158 O 0.00542 0.34062 0.83737 0.0
O159 O -0.00029 0.3223 0.85 0.0
C160 C 0.00894 0.36344 0.82965 0.0
H161 H 0.06001 0.34858 0.9201 0.0
H162 H 0.90499 0.37972 0.82524 0.0
H163 H 0.9461 0.38097 0.93335 0.0
H164 H 0.9872 0.44137 0.89949 0.0
Co165 Co 0.15458 0.99721 0.85717 0.0
C166 C 0.13989 0.05169 0.86233 0.0
C167 C 0.16539 0.03922 0.88786 0.0
C168 C 0.15932 0.06476 0.8913 0.0
N169 N 0.15317 0.03116 0.86968 0.0
N170 N 0.14347 0.07246 0.87507 0.0
H171 H 0.12729 0.05153 0.84827 0.0
H172 H 0.17777 0.02734 0.89788 0.0
C173 C 0.2081 0.0033 0.8514 0.0
O174 O 0.20691 0.98991 0.86963 0.0
N175 N 0.15547 0.96308 0.84473 0.0
C176 C 0.1349 0.94752 0.8422 0.0
C177 C 0.14225 0.92597 0.83085 0.0
C178 C 0.17508 0.95077 0.83489 0.0
N179 N 0.1675 0.92809 0.82625 0.0
C180 C 0.10538 0.99456 0.87782 0.0
C181 C 0.12251 0.96556 0.913 0.0
C182 C 0.09719 0.97485 0.9129 0.0
C183 C 0.08856 0.98908 0.89483 0.0
C184 C 0.1387 0.97128 0.89545 0.0
N185 N 0.13005 0.9858 0.87843 0.0
H186 H 0.09885 0.00681 0.86469 0.0
H187 H 0.15852 0.96497 0.89573 0.0
H188 H 0.11558 0.95196 0.84746 0.0
H189 H 0.1941 0.95877 0.83285 0.0
O190 O 0.12849 0.00641 0.83464 0.0
O191 O 0.16809 0.01272 0.82882 0.0
O192 O 0.18702 0.00795 0.84094 0.0
C193 C 0.145 0.0149 0.82135 0.0
H194 H 0.16619 0.07677 0.90452 0.0
H195 H 0.12981 0.91038 0.82574 0.0
H196 H 0.12987 0.95459 0.92672 0.0
H197 H 0.06937 0.99717 0.89438 0.0
Co198 Co 0.51907 0.15145 0.86776 0.0
C199 C 0.46661 0.13006 0.86916 0.0
C200 C 0.47129 0.16122 0.89175 0.0
C201 C 0.44575 0.15394 0.89151 0.0
N202 N 0.48423 0.14635 0.87758 0.0
N203 N 0.44285 0.1345 0.87709 0.0
H204 H 0.47092 0.11562 0.85704 0.0
H205 H 0.47957 0.17704 0.90082 0.0
C206 C 0.51184 0.20455 0.86677 0.0
O207 O 0.52442 0.2004 0.8851 0.0
N208 N 0.55416 0.15634 0.85776 0.0
C209 C 0.57343 0.13899 0.85877 0.0
C210 C 0.59423 0.14826 0.84729 0.0
C211 C 0.56358 0.17586 0.84559 0.0
N212 N 0.58794 0.17144 0.83903 0.0
C213 C 0.52315 0.10021 0.88464 0.0
C214 C 0.54312 0.11607 0.92443 0.0
C215 C 0.53435 0.09066 0.92217 0.0
C216 C 0.52525 0.08255 0.90168 0.0
C217 C 0.54061 0.13315 0.90694 0.0
N218 N 0.53003 0.12523 0.88774 0.0
H219 H 0.51426 0.09411 0.86956 0.0
H220 H 0.54559 0.1532 0.90909 0.0
H221 H 0.57222 0.12024 0.86635 0.0
H222 H 0.5524 0.19218 0.84023 0.0
O223 O 0.5136 0.12802 0.84255 0.0
O224 O 0.50465 0.16762 0.84001 0.0
O225 O 0.50793 0.18525 0.85395 0.0
C226 C 0.50443 0.14552 0.83051 0.0
H227 H 0.43036 0.16314 0.90043 0.0
H228 H 0.61218 0.13828 0.84454 0.0
H229 H 0.55053 0.12305 0.93989 0.0
H230 H 0.51785 0.06329 0.89924 0.0
Co231 Co 0.35123 0.51449 0.86264 0.0
C232 C 0.37631 0.46332 0.86573 0.0
C233 C 0.35534 0.47331 0.8947 0.0
C234 C 0.366 0.44935 0.89764 0.0
N235 N 0.36174 0.48196 0.8747 0.0
N236 N 0.37905 0.4431 0.87937 0.0
H237 H 0.385 0.4645 0.84972 0.0
H238 H 0.34363 0.4837 0.90628 0.0
C239 C 0.29955 0.50267 0.87133 0.0
O240 O 0.30663 0.516 0.88856 0.0
N241 N 0.34026 0.54742 0.85159 0.0
C242 C 0.33039 0.56638 0.86395 0.0
C243 C 0.32295 0.58627 0.8505 0.0
C244 C 0.33895 0.55607 0.83082 0.0
N245 N 0.32837 0.57972 0.8297 0.0
C246 C 0.40444 0.52874 0.86807 0.0
C247 C 0.39716 0.5412 0.91163 0.0
C248 C 0.42224 0.53706 0.90397 0.0
C249 C 0.42583 0.5322 0.8816 0.0
C250 C 0.3764 0.53763 0.89757 0.0
N251 N 0.38026 0.53028 0.87653 0.0
H252 H 0.40749 0.52284 0.85138 0.0
H253 H 0.35707 0.53809 0.90404 0.0
H254 H 0.32803 0.56546 0.88149 0.0
H255 H 0.34436 0.54496 0.81665 0.0
O256 O 0.36894 0.50684 0.83448 0.0
O257 O 0.33031 0.49522 0.83974 0.0
O258 O 0.316 0.4995 0.85581 0.0
C259 C 0.3497 0.49515 0.82666 0.0
H260 H 0.36387 0.43725 0.91195 0.0
H261 H 0.31362 0.60387 0.85556 0.0
H262 H 0.39336 0.54461 0.92878 0.0
H263 H 0.4449 0.52923 0.87499 0.0
Co264 Co 0.01024 0.85369 0.35602 0.0
C265 C 0.9566 0.87178 0.35996 0.0
C266 C 0.96947 0.85228 0.38893 0.0
C267 C 0.9448 0.8611 0.39238 0.0
N268 N 0.97674 0.85896 0.36859 0.0
N269 N 0.93681 0.87322 0.37407 0.0
H270 H 0.95663 0.88087 0.34406 0.0
H271 H 0.9815 0.84227 0.4006 0.0
C272 C 0.00276 0.8003 0.36252 0.0
O273 O 0.01412 0.80736 0.38077 0.0
N274 N 0.04392 0.84902 0.34358 0.0
C275 C 0.05863 0.86794 0.33525 0.0
C276 C 0.07994 0.85721 0.32574 0.0
C277 C 0.05654 0.82703 0.3392 0.0
N278 N 0.07864 0.83138 0.32807 0.0
C279 C 0.01418 0.90755 0.36551 0.0
C280 C 0.03781 0.89909 0.40552 0.0
C281 C 0.0278 0.92353 0.40076 0.0
C282 C 0.01708 0.92797 0.38001 0.0
C283 C 0.03474 0.87926 0.39044 0.0
N284 N 0.02219 0.88352 0.37127 0.0
H285 H 0.0039 0.91077 0.35042 0.0
H286 H 0.04048 0.85991 0.39475 0.0
H287 H 0.05359 0.88811 0.33512 0.0
H288 H 0.04917 0.80826 0.34334 0.0
O289 O 0.00019 0.87226 0.32874 0.0
O290 O 0.99396 0.83214 0.33199 0.0
O291 O 0.99935 0.81738 0.34743 0.0
C292 C 0.99162 0.85216 0.31974 0.0
H293 H 0.93369 0.85893 0.40721 0.0
H294 H 0.09431 0.86772 0.3166 0.0
H295 H 0.04594 0.89471 0.42141 0.0
H296 H 0.00946 0.94664 0.37559 0.0
Co297 Co 0.64125 0.00803 0.3547 0.0
C298 C 0.62466 0.95371 0.3578 0.0
C299 C 0.64178 0.96711 0.38765 0.0
C300 C 0.63327 0.94221 0.39078 0.0
N301 N 0.63633 0.97421 0.36697 0.0
N302 N 0.62268 0.93391 0.37191 0.0
H303 H 0.6165 0.9535 0.34155 0.0
H304 H 0.65058 0.97945 0.39976 0.0
C305 C 0.69441 0.00043 0.36004 0.0
O306 O 0.68755 0.01151 0.37843 0.0
N307 N 0.64569 0.04201 0.34253 0.0
C308 C 0.62642 0.05745 0.33577 0.0
C309 C 0.63677 0.07831 0.3251 0.0
C310 C 0.66751 0.05375 0.33604 0.0
N311 N 0.66257 0.0759 0.32528 0.0
C312 C 0.58844 0.00895 0.36747 0.0
C313 C 0.59778 0.03847 0.40429 0.0
C314 C 0.57405 0.02577 0.40214 0.0
C315 C 0.56907 0.01183 0.38296 0.0
C316 C 0.61667 0.03495 0.38845 0.0
N317 N 0.61204 0.01965 0.37088 0.0
H318 H 0.58514 0.99637 0.35371 0.0
H319 H 0.63568 0.04294 0.39091 0.0
H320 H 0.60616 0.05311 0.33737 0.0
H321 H 0.68648 0.04547 0.33756 0.0
O322 O 0.62152 0.99878 0.32785 0.0
O323 O 0.66176 0.99239 0.32983 0.0
O324 O 0.67712 0.99723 0.3451 0.0
C325 C 0.64125 0.99054 0.31809 0.0
H326 H 0.63443 0.93122 0.40579 0.0
H327 H 0.62614 0.09335 0.31683 0.0
H328 H 0.60228 0.04967 0.41872 0.0
H329 H 0.55119 0.00142 0.38075 0.0
Co330 Co 0.48415 0.6428 0.35561 0.0
C331 C 0.53881 0.62859 0.36108 0.0
C332 C 0.52508 0.65216 0.38735 0.0
C333 C 0.55025 0.64552 0.39165 0.0
N334 N 0.51803 0.64152 0.36821 0.0
N335 N 0.55876 0.63079 0.37505 0.0
H336 H 0.53915 0.6169 0.34649 0.0
H337 H 0.51258 0.66344 0.39768 0.0
C338 C 0.488 0.6965 0.35535 0.0
O339 O 0.47537 0.69145 0.37346 0.0
N340 N 0.44984 0.64388 0.34324 0.0
C341 C 0.4331 0.62408 0.34205 0.0
C342 C 0.41163 0.63187 0.33065 0.0
C343 C 0.43835 0.66337 0.33244 0.0
N344 N 0.41499 0.65658 0.32457 0.0
C345 C 0.48435 0.59146 0.37253 0.0
C346 C 0.45911 0.60489 0.41066 0.0
C347 C 0.47108 0.58077 0.40927 0.0
C348 C 0.48287 0.57374 0.38957 0.0
C349 C 0.461 0.62204 0.39317 0.0
N350 N 0.47418 0.61543 0.37485 0.0
H351 H 0.49538 0.58652 0.35823 0.0
H352 H 0.4535 0.64134 0.39476 0.0
H353 H 0.43647 0.60495 0.34835 0.0
H354 H 0.4474 0.6817 0.32928 0.0
O355 O 0.49441 0.62009 0.33094 0.0
O356 O 0.49889 0.66056 0.32873 0.0
O357 O 0.49326 0.6776 0.34248 0.0
C358 C 0.50192 0.63867 0.31925 0.0
H359 H 0.56133 0.65088 0.40594 0.0
H360 H 0.39516 0.61999 0.32669 0.0
H361 H 0.44964 0.61096 0.42553 0.0
H362 H 0.49273 0.55552 0.3879 0.0
Co363 Co 0.85151 0.4849 0.36283 0.0
C364 C 0.87368 0.53742 0.36533 0.0
C365 C 0.85779 0.5248 0.39589 0.0
C366 C 0.86837 0.54887 0.39877 0.0
N367 N 0.86111 0.51772 0.37494 0.0
N368 N 0.87826 0.55673 0.37951 0.0
H369 H 0.88024 0.53743 0.34859 0.0
H370 H 0.84874 0.51304 0.40829 0.0
C371 C 0.79993 0.49887 0.37125 0.0
O372 O 0.80686 0.48784 0.38969 0.0
N373 N 0.84208 0.45178 0.35104 0.0
C374 C 0.85848 0.4334 0.34432 0.0
C375 C 0.84453 0.4136 0.33522 0.0
C376 C 0.81842 0.44293 0.34601 0.0
N377 N 0.81935 0.41968 0.33623 0.0
C378 C 0.90498 0.47735 0.37135 0.0
C379 C 0.89623 0.45294 0.41092 0.0
C380 C 0.92082 0.46278 0.40638 0.0
C381 C 0.9254 0.47376 0.38578 0.0
C382 C 0.87632 0.45693 0.39598 0.0
N383 N 0.88075 0.47002 0.3771 0.0
H384 H 0.9083 0.48823 0.35658 0.0
H385 H 0.85684 0.45165 0.40031 0.0
H386 H 0.87921 0.43467 0.3452 0.0
H387 H 0.80096 0.45382 0.34819 0.0
O388 O 0.86962 0.49256 0.33481 0.0
O389 O 0.83065 0.50309 0.33936 0.0
O390 O 0.8163 0.49966 0.35541 0.0
C391 C 0.85014 0.50324 0.32641 0.0
H392 H 0.8688 0.5597 0.41386 0.0
H393 H 0.85241 0.39649 0.32777 0.0
H394 H 0.89198 0.44411 0.42656 0.0
H395 H 0.94396 0.48193 0.38168 0.0
Co396 Co 0.01228 0.64061 0.14084 0.0
C397 C 0.95874 0.62365 0.13259 0.0
C398 C 0.97575 0.64123 0.10433 0.0
C399 C 0.95109 0.63354 0.09908 0.0
N400 N 0.98043 0.63503 0.12535 0.0
N401 N 0.94048 0.62265 0.11696 0.0
H402 H 0.95639 0.61547 0.1487 0.0
H403 H 0.98943 0.65044 0.09355 0.0
C404 C 0.00144 0.69321 0.13682 0.0
O405 O 0.01503 0.68811 0.11926 0.0
N406 N 0.04428 0.64577 0.15606 0.0
C407 C 0.05845 0.62706 0.16532 0.0
C408 C 0.07906 0.63811 0.1758 0.0
C409 C 0.05649 0.66793 0.16078 0.0
N410 N 0.07784 0.66387 0.17304 0.0
C411 C 0.01886 0.58845 0.12737 0.0
C412 C 0.05003 0.60113 0.09228 0.0
C413 C 0.03991 0.57615 0.09384 0.0
C414 C 0.02509 0.56961 0.11217 0.0
C415 C 0.04343 0.61939 0.10797 0.0
N416 N 0.02738 0.61303 0.12466 0.0
H417 H 0.00559 0.58365 0.14029 0.0
H418 H 0.04963 0.63914 0.10603 0.0
H419 H 0.05363 0.60682 0.1651 0.0
H420 H 0.04954 0.68658 0.15579 0.0
O421 O 0.00074 0.61867 0.16564 0.0
O422 O 0.99277 0.65857 0.16528 0.0
O423 O 0.99833 0.6751 0.15104 0.0
C424 C 0.99034 0.63712 0.17567 0.0
H425 H 0.94168 0.63582 0.08339 0.0
H426 H 0.093 0.62791 0.18568 0.0
H427 H 0.06159 0.60688 0.07839 0.0
H428 H 0.01647 0.55073 0.11381 0.0
Co429 Co 0.8479 0.00351 0.13138 0.0
C430 C 0.86299 0.94886 0.12861 0.0
C431 C 0.84054 0.96079 0.1009 0.0
C432 C 0.8472 0.93532 0.09823 0.0
N433 N 0.85044 0.96915 0.11996 0.0
N434 N 0.8612 0.92792 0.11575 0.0
H435 H 0.87391 0.94946 0.14366 0.0
H436 H 0.8295 0.97249 0.08967 0.0
C437 C 0.79399 0.00057 0.12709 0.0
O438 O 0.80091 0.01289 0.10926 0.0
N439 N 0.84575 0.0382 0.14281 0.0
C440 C 0.86558 0.05483 0.14495 0.0
C441 C 0.85764 0.07575 0.15681 0.0
C442 C 0.82601 0.04933 0.1535 0.0
N443 N 0.8328 0.07221 0.16223 0.0
C444 C 0.90119 0.00254 0.11951 0.0
C445 C 0.89345 0.02909 0.08076 0.0
C446 C 0.91742 0.01762 0.0848 0.0
C447 C 0.92144 0.00494 0.10478 0.0
C448 C 0.87371 0.02622 0.09596 0.0
N449 N 0.87768 0.01265 0.11468 0.0
H450 H 0.90404 0.99122 0.13412 0.0
H451 H 0.85476 0.0337 0.09237 0.0
H452 H 0.88502 0.0515 0.13945 0.0
H453 H 0.80766 0.04016 0.15637 0.0
O454 O 0.86719 0.99386 0.15834 0.0
O455 O 0.82664 0.98966 0.15665 0.0
O456 O 0.81149 0.99521 0.14139 0.0
C457 C 0.8471 0.98689 0.16831 0.0
H458 H 0.84209 0.92319 0.08452 0.0
H459 H 0.86956 0.09172 0.16198 0.0
H460 H 0.88966 0.0392 0.0656 0.0
H461 H 0.93949 0.99544 0.10837 0.0
Co462 Co 0.47933 0.84885 0.13315 0.0
C463 C 0.53218 0.86907 0.1272 0.0
C464 C 0.51738 0.85131 0.09812 0.0
C465 C 0.5416 0.86082 0.09375 0.0
N466 N 0.5116 0.85642 0.11909 0.0
N467 N 0.55083 0.87187 0.11211 0.0
H468 H 0.53329 0.87693 0.14351 0.0
H469 H 0.50468 0.84174 0.0867 0.0
C470 C 0.49 0.79639 0.12554 0.0
O471 O 0.47805 0.80341 0.10754 0.0
N472 N 0.44686 0.84162 0.14695 0.0
C473 C 0.43175 0.85896 0.15695 0.0
C474 C 0.4117 0.84618 0.16683 0.0
C475 C 0.43574 0.81862 0.15062 0.0
N476 N 0.41431 0.82076 0.16297 0.0
C477 C 0.47323 0.90229 0.12347 0.0
C478 C 0.44401 0.89319 0.08635 0.0
C479 C 0.45463 0.91771 0.0897 0.0
C480 C 0.4683 0.92247 0.10908 0.0
C481 C 0.44936 0.87354 0.10123 0.0
N482 N 0.46461 0.87814 0.11888 0.0
H483 H 0.48581 0.90569 0.13723 0.0
H484 H 0.44308 0.85412 0.0978 0.0
H485 H 0.43571 0.87935 0.15788 0.0
H486 H 0.44362 0.80062 0.14503 0.0
O487 O 0.48986 0.86766 0.16012 0.0
O488 O 0.49829 0.82804 0.15627 0.0
O489 O 0.49288 0.81319 0.14088 0.0
C490 C 0.50006 0.848 0.16861 0.0
H491 H 0.55162 0.85969 0.07829 0.0
H492 H 0.39735 0.85486 0.17725 0.0
H493 H 0.4332 0.88881 0.07166 0.0
H494 H 0.47717 0.94099 0.11214 0.0
Co495 Co 0.64417 0.48311 0.12863 0.0
C496 C 0.61724 0.533 0.12412 0.0
C497 C 0.64103 0.52462 0.09641 0.0
C498 C 0.62956 0.54822 0.09317 0.0
N499 N 0.63334 0.51521 0.11585 0.0
N500 N 0.61481 0.55344 0.11071 0.0
H501 H 0.60723 0.53115 0.13951 0.0
H502 H 0.65421 0.51506 0.08546 0.0
C503 C 0.69573 0.49662 0.12386 0.0
O504 O 0.69038 0.48329 0.10618 0.0
N505 N 0.65532 0.45071 0.14063 0.0
C506 C 0.6661 0.43155 0.12908 0.0
C507 C 0.67294 0.41208 0.14323 0.0
C508 C 0.65552 0.44263 0.16159 0.0
N509 N 0.66622 0.41912 0.16364 0.0
C510 C 0.59271 0.46507 0.11983 0.0
C511 C 0.60404 0.45521 0.07641 0.0
C512 C 0.57823 0.45696 0.08286 0.0
C513 C 0.57267 0.46048 0.10511 0.0
C514 C 0.62342 0.45988 0.09163 0.0
N515 N 0.61748 0.466 0.11261 0.0
H516 H 0.588 0.46977 0.13651 0.0
H517 H 0.64318 0.46116 0.08623 0.0
H518 H 0.66937 0.432 0.11163 0.0
H519 H 0.64913 0.45405 0.17527 0.0
O520 O 0.62317 0.48985 0.15515 0.0
O521 O 0.66152 0.50341 0.15307 0.0
O522 O 0.67781 0.49952 0.13819 0.0
C523 C 0.64065 0.5028 0.16441 0.0
H524 H 0.63233 0.56082 0.07926 0.0
H525 H 0.68262 0.39441 0.13889 0.0
H526 H 0.60926 0.45283 0.0594 0.0
H527 H 0.55298 0.46158 0.11077 0.0
C528 C 0.04628 0.16096 0.68955 0.0
C529 C 0.02167 0.14981 0.68892 0.0
C530 C 0.06373 0.15395 0.70599 0.0
C531 C 0.06926 0.12014 0.7592 0.0
H532 H 0.13029 0.08846 0.73471 0.0
C533 C 0.11161 0.03042 0.7958 0.0
C534 C 0.13736 0.03114 0.80269 0.0
C535 C 0.10186 0.04958 0.78226 0.0
C536 C 0.11366 0.09771 0.74186 0.0
H537 H 0.99517 0.12431 0.70547 0.0
H538 H 0.02504 0.11287 0.73459 0.0
H539 H 0.104 0.11722 0.71203 0.0
H540 H 0.17362 0.05147 0.79971 0.0
H541 H 0.15644 0.08503 0.77521 0.0
H542 H 0.07793 0.09933 0.78851 0.0
C543 C 0.03111 0.12683 0.72247 0.0
C544 C 0.09868 0.11423 0.72896 0.0
C545 C 0.01397 0.13336 0.70584 0.0
C546 C 0.15374 0.05038 0.79444 0.0
C547 C 0.14392 0.06963 0.78064 0.0
C548 C 0.08413 0.10364 0.772 0.0
C549 C 0.0565 0.13621 0.72224 0.0
C550 C 0.07571 0.12466 0.73726 0.0
C551 C 0.11765 0.06983 0.77519 0.0
C552 C 0.10578 0.09142 0.76313 0.0
H553 H 0.05274 0.17333 0.67637 0.0
H554 H 0.08318 0.16144 0.70545 0.0
H555 H 0.05186 0.12818 0.76609 0.0
H556 H 0.09858 0.01577 0.80184 0.0
H557 H 0.08164 0.04907 0.77789 0.0
C558 C 0.35406 0.04612 0.7015 0.0
C559 C 0.36753 0.02353 0.6964 0.0
C560 C 0.36302 0.06235 0.71817 0.0
C561 C 0.40639 0.06449 0.76608 0.0
H562 H 0.42426 0.13357 0.74725 0.0
C563 C 0.49279 0.11508 0.80121 0.0
C564 C 0.4888 0.13899 0.81121 0.0
C565 C 0.4741 0.10456 0.78757 0.0
C566 C 0.41895 0.11452 0.75287 0.0
H567 H 0.39983 -0.00062 0.70511 0.0
H568 H 0.4149 0.027 0.73456 0.0
H569 H 0.3957 0.10699 0.72452 0.0
H570 H 0.46301 0.17156 0.81361 0.0
H571 H 0.43024 0.15317 0.78904 0.0
H572 H 0.43061 0.0714 0.79378 0.0
C573 C 0.3976 0.03242 0.72578 0.0
C574 C 0.40256 0.09937 0.73996 0.0
C575 C 0.38903 0.01661 0.70891 0.0
C576 C 0.46669 0.15323 0.80584 0.0
C577 C 0.44787 0.14264 0.79201 0.0
C578 C 0.42272 0.07953 0.77887 0.0
C579 C 0.38515 0.05579 0.73022 0.0
C580 C 0.39702 0.07383 0.74605 0.0
C581 C 0.45103 0.11773 0.78357 0.0
C582 C 0.43001 0.10424 0.77192 0.0
H583 H 0.33765 0.05198 0.69175 0.0
H584 H 0.35312 0.08028 0.72126 0.0
H585 H 0.40212 0.04503 0.77131 0.0
H586 H 0.50966 0.10371 0.80508 0.0
H587 H 0.47719 0.08553 0.78088 0.0
C588 C 0.36203 0.49007 0.78794 0.0
C589 C 0.35199 0.47918 0.80704 0.0
C590 C 0.37212 0.47439 0.77159 0.0
C591 C 0.38442 0.40574 0.75526 0.0
H592 H 0.4471 0.43648 0.73304 0.0
C593 C 0.45174 0.3571 0.69126 0.0
C594 C 0.47784 0.36404 0.69178 0.0
C595 C 0.43442 0.36813 0.70604 0.0
C596 C 0.4299 0.42733 0.73932 0.0
H597 H 0.34319 0.44362 0.82381 0.0
H598 H 0.36203 0.41608 0.79585 0.0
H599 H 0.41873 0.46174 0.75536 0.0
H600 H 0.50685 0.38595 0.70896 0.0
H601 H 0.47724 0.40363 0.73579 0.0
H602 H 0.39671 0.37077 0.73992 0.0
C603 C 0.36135 0.4366 0.7929 0.0
C604 C 0.41315 0.44213 0.75177 0.0
C605 C 0.35047 0.45235 0.80895 0.0
C606 C 0.48678 0.38031 0.70835 0.0
C607 C 0.46969 0.39075 0.72344 0.0
C608 C 0.40147 0.39073 0.74293 0.0
C609 C 0.37345 0.44752 0.77448 0.0
C610 C 0.39014 0.43165 0.75996 0.0
C611 C 0.44308 0.38592 0.72178 0.0
C612 C 0.42459 0.40132 0.73499 0.0
H613 H 0.36346 0.51077 0.78623 0.0
H614 H 0.38033 0.48351 0.75728 0.0
H615 H 0.36683 0.397 0.76113 0.0
H616 H 0.44439 0.34496 0.67828 0.0
H617 H 0.41411 0.36402 0.70416 0.0
C618 C 0.03396 0.39576 0.80891 0.0
C619 C 0.02607 0.37006 0.81129 0.0
C620 C 0.05163 0.40269 0.79293 0.0
C621 C 0.07273 0.38872 0.73917 0.0
H622 H 0.12826 0.43556 0.75426 0.0
C623 C 0.1041 0.47107 0.68423 0.0
C624 C 0.13037 0.47557 0.68054 0.0
C625 C 0.09618 0.45268 0.69935 0.0
C626 C 0.11324 0.42209 0.74977 0.0
H627 H 0.0303 0.3314 0.79866 0.0
H628 H 0.06076 0.34395 0.7696 0.0
H629 H 0.10571 0.41203 0.78314 0.0
H630 H 0.16904 0.46466 0.69 0.0
H631 H 0.15498 0.43293 0.71747 0.0
H632 H 0.07905 0.40018 0.70593 0.0
C633 C 0.05343 0.35848 0.7806 0.0
C634 C 0.1003 0.40872 0.76626 0.0
C635 C 0.03598 0.35137 0.79705 0.0
C636 C 0.14866 0.46168 0.69269 0.0
C637 C 0.14066 0.44347 0.70823 0.0
C638 C 0.08548 0.40233 0.7227 0.0
C639 C 0.06162 0.3842 0.77866 0.0
C640 C 0.07926 0.39275 0.76116 0.0
C641 C 0.11431 0.43857 0.7114 0.0
C642 C 0.10513 0.41992 0.72796 0.0
H643 H 0.02681 0.41062 0.81968 0.0
H644 H 0.05721 0.42271 0.79151 0.0
H645 H 0.05652 0.37662 0.73485 0.0
H646 H 0.08952 0.48135 0.67505 0.0
H647 H 0.07575 0.44969 0.70181 0.0
C648 C 0.98393 0.86692 0.28196 0.0
C649 C 0.97504 0.85376 0.30042 0.0
C650 C 0.96654 0.87642 0.26656 0.0
C651 C 0.89675 0.88121 0.25143 0.0
H652 H 0.91859 0.94973 0.23466 0.0
C653 C 0.84438 0.94514 0.18746 0.0
C654 C 0.84874 0.97173 0.18842 0.0
C655 C 0.85517 0.92889 0.20327 0.0
C656 C 0.9118 0.93087 0.23951 0.0
H657 H 0.94147 0.83865 0.31689 0.0
H658 H 0.91079 0.85631 0.29057 0.0
H659 H 0.94727 0.92291 0.25545 0.0
H660 H 0.86499 0.0027 0.20748 0.0
H661 H 0.88182 0.97476 0.23616 0.0
H662 H 0.86066 0.88996 0.23604 0.0
C663 C 0.93115 0.85863 0.28741 0.0
C664 C 0.92866 0.9151 0.25101 0.0
C665 C 0.9487 0.84841 0.30248 0.0
C666 C 0.86134 0.9822 0.20656 0.0
C667 C 0.87137 0.9661 0.22272 0.0
C668 C 0.87963 0.89722 0.24003 0.0
C669 C 0.93984 0.87391 0.26988 0.0
C670 C 0.92157 0.88995 0.25696 0.0
C671 C 0.87001 0.93916 0.22046 0.0
C672 C 0.88699 0.9223 0.23392 0.0
H673 H 0.00421 0.87132 0.28019 0.0
H674 H 0.974 0.88725 0.25283 0.0
H675 H 0.8906 0.86195 0.25575 0.0
H676 H 0.83501 0.93671 0.17333 0.0
H677 H 0.85369 0.90831 0.2009 0.0
C678 C 0.64495 0.94869 0.29908 0.0
C679 C 0.63886 0.97495 0.29827 0.0
C680 C 0.63433 0.93174 0.28374 0.0
C681 C 0.57606 0.92977 0.24931 0.0
H682 H 0.60173 0.86323 0.23118 0.0
C683 C 0.50762 0.86208 0.20656 0.0
C684 C 0.51698 0.85024 0.18768 0.0
C685 C 0.52465 0.87228 0.22192 0.0
C686 C 0.59432 0.88181 0.23604 0.0
H687 H 0.61959 0.00473 0.27984 0.0
H688 H 0.60294 0.97571 0.25195 0.0
H689 H 0.63018 0.8929 0.25076 0.0
H690 H 0.55113 0.83815 0.17043 0.0
H691 H 0.5811 0.85715 0.19668 0.0
H692 H 0.54077 0.91959 0.23401 0.0
C693 C 0.61464 0.96776 0.26497 0.0
C694 C 0.61059 0.89876 0.24738 0.0
C695 C 0.62453 0.98451 0.28068 0.0
C696 C 0.54357 0.8469 0.18513 0.0
C697 C 0.56071 0.85787 0.20017 0.0
C698 C 0.56003 0.91309 0.23788 0.0
C699 C 0.61794 0.94099 0.26714 0.0
C700 C 0.60164 0.92303 0.2541 0.0
C701 C 0.55138 0.87186 0.21818 0.0
C702 C 0.56877 0.88878 0.2312 0.0
H703 H 0.65567 0.94093 0.3128 0.0
H704 H 0.6373 0.9113 0.286 0.0
H705 H 0.5681 0.94792 0.25467 0.0
H706 H 0.48713 0.8649 0.20873 0.0
H707 H 0.51675 0.88203 0.23601 0.0
C708 C 0.51006 0.61289 0.2861 0.0
C709 C 0.51609 0.63448 0.29879 0.0
C710 C 0.52609 0.60541 0.26907 0.0
C711 C 0.59325 0.60458 0.25419 0.0
H712 H 0.56593 0.57452 0.20098 0.0
C713 C 0.64724 0.54338 0.18587 0.0
C714 C 0.63479 0.51955 0.18313 0.0
C715 C 0.63659 0.56211 0.19966 0.0
C716 C 0.57389 0.5831 0.21565 0.0
H717 H 0.54318 0.66567 0.3035 0.0
H718 H 0.57183 0.6522 0.27363 0.0
H719 H 0.53832 0.60135 0.22366 0.0
H720 H 0.60294 0.49579 0.19385 0.0
H721 H 0.58461 0.52823 0.21783 0.0
H722 H 0.6286 0.58515 0.24643 0.0
C723 C 0.55443 0.64133 0.27677 0.0
C724 C 0.55813 0.59842 0.22861 0.0
C725 C 0.53797 0.64916 0.29365 0.0
C726 C 0.61288 0.51401 0.19563 0.0
C727 C 0.60229 0.5326 0.20922 0.0
C728 C 0.60914 0.58924 0.24109 0.0
C729 C 0.54882 0.61909 0.26457 0.0
C730 C 0.56727 0.6084 0.24849 0.0
C731 C 0.61343 0.55711 0.21069 0.0
C732 C 0.59917 0.57755 0.22222 0.0
H733 H 0.4934 0.60117 0.28992 0.0
H734 H 0.5214 0.588 0.2602 0.0
H735 H 0.60077 0.61191 0.26949 0.0
H736 H 0.66399 0.5482 0.17618 0.0
H737 H 0.64549 0.58092 0.20064 0.0
C738 C 0.84056 0.54332 0.30546 0.0
C739 C 0.85214 0.51895 0.30651 0.0
C740 C 0.84789 0.56089 0.28922 0.0
C741 C 0.88281 0.5667 0.23672 0.0
H742 H 0.91275 0.62883 0.2611 0.0
C743 C 0.97486 0.60918 0.20554 0.0
C744 C 0.97269 0.63244 0.19404 0.0
C745 C 0.95506 0.6008 0.21905 0.0
C746 C 0.90389 0.61193 0.25397 0.0
H747 H 0.87895 0.4931 0.29091 0.0
H748 H 0.89103 0.5232 0.26218 0.0
H749 H 0.88408 0.60216 0.28358 0.0
H750 H 0.94891 0.66607 0.18865 0.0
H751 H 0.91399 0.65134 0.21292 0.0
H752 H 0.90416 0.57543 0.20773 0.0
C753 C 0.87647 0.52895 0.27382 0.0
C754 C 0.88747 0.5967 0.26675 0.0
C755 C 0.8696 0.5117 0.29026 0.0
C756 C 0.95113 0.64819 0.19757 0.0
C757 C 0.93115 0.63974 0.21126 0.0
C758 C 0.89917 0.58185 0.22403 0.0
C759 C 0.8664 0.55403 0.27355 0.0
C760 C 0.87775 0.57334 0.25853 0.0
C761 C 0.93271 0.61555 0.22141 0.0
C762 C 0.91063 0.60396 0.23287 0.0
H763 H 0.82735 0.54943 0.31809 0.0
H764 H 0.83987 0.5801 0.28937 0.0
H765 H 0.87539 0.54894 0.22992 0.0
H766 H 0.99128 0.59669 0.20311 0.0
H767 H 0.95667 0.58217 0.22692 0.0
C768 C 0.0012 0.9557 0.42068 0.0
C769 C 0.02474 0.94272 0.41842 0.0
C770 C 0.99635 0.97062 0.43908 0.0
C771 C 0.01491 0.97534 0.49653 0.0
H772 H 0.97681 0.03935 0.49428 0.0
C773 C -0.00023 0.04154 0.57083 0.0
C774 C 0.9761 0.0544 0.57267 0.0
C775 C 0.00496 0.02628 0.55268 0.0
C776 C 0.98712 0.02129 0.49516 0.0
H777 H 0.06219 0.93637 0.43313 0.0
H778 H 0.05368 0.96264 0.46543 0.0
H779 H 0.98948 0.01844 0.46035 0.0
H780 H 0.93868 0.05992 0.55769 0.0
H781 H 0.94776 0.03309 0.52587 0.0
H782 H 0.01257 0.97825 0.53137 0.0
C783 C 0.03889 0.96088 0.45302 0.0
C784 C 0.99451 0.00942 0.47575 0.0
C785 C 0.04378 0.94594 0.43453 0.0
C786 C 0.95719 0.05049 0.55657 0.0
C787 C 0.96242 0.03524 0.53835 0.0
C788 C 0.00754 0.98724 0.51596 0.0
C789 C 0.01488 0.97286 0.45568 0.0
C790 C 0.00842 0.9863 0.47624 0.0
C791 C 0.98662 0.0236 0.53596 0.0
C792 C 0.9935 0.01029 0.51545 0.0
H793 H 0.98587 0.9532 0.40884 0.0
H794 H 0.97755 0.97934 0.44079 0.0
H795 H 0.0252 0.95727 0.49741 0.0
H796 H 0.01497 0.04451 0.58271 0.0
H797 H 0.02387 0.01775 0.55118 0.0
C798 C 0.52956 0.023 0.41798 0.0
C799 C 0.55637 0.0235 0.42102 0.0
C800 C 0.51328 0.01659 0.43531 0.0
C801 C 0.51437 0.98041 0.48692 0.0
H802 H 0.45014 0.01539 0.49877 0.0
C803 C 0.45778 0.96857 0.56716 0.0
C804 C 0.4308 0.96918 0.56612 0.0
C805 C 0.47241 0.9725 0.54834 0.0
C806 C 0.46782 0.00515 0.49544 0.0
H807 H 0.58702 0.01848 0.44484 0.0
H808 H 0.55864 0.00812 0.47507 0.0
H809 H 0.47693 0.02972 0.4684 0.0
H810 H 0.39797 0.97321 0.54438 0.0
H811 H 0.42353 0.97942 0.51148 0.0
H812 H 0.50541 0.956 0.51407 0.0
C813 C 0.55023 0.01225 0.45923 0.0
C814 C 0.48318 0.01343 0.4781 0.0
C815 C 0.56646 0.01864 0.44196 0.0
C816 C 0.41873 0.97237 0.5457 0.0
C817 C 0.43335 0.9763 0.5269 0.0
C818 C 0.49902 0.97213 0.50424 0.0
C819 C 0.52356 0.0105 0.45595 0.0
C820 C 0.50675 0.00134 0.47385 0.0
C821 C 0.46031 0.97712 0.52813 0.0
C822 C 0.47572 0.98457 0.5088 0.0
H823 H 0.52123 0.02683 0.40206 0.0
H824 H 0.49277 0.01539 0.43232 0.0
H825 H 0.5322 0.97036 0.48373 0.0
H826 H 0.46759 0.96594 0.58265 0.0
H827 H 0.49316 0.97313 0.54982 0.0
C828 C 0.54367 0.46373 0.57199 0.0
C829 C 0.54125 0.43698 0.56938 0.0
C830 C 0.53875 0.48029 0.55446 0.0
C831 C 0.52871 0.48276 0.49443 0.0
H832 H 0.48222 0.53858 0.50849 0.0
C833 C 0.47396 0.53762 0.42751 0.0
C834 C 0.47472 0.56457 0.42899 0.0
C835 C 0.48183 0.52243 0.44513 0.0
C836 C 0.49536 0.52322 0.50434 0.0
H837 H 0.53302 0.40665 0.54602 0.0
H838 H 0.52473 0.4354 0.51558 0.0
H839 H 0.50004 0.51218 0.5378 0.0
H840 H 0.48345 0.59669 0.4504 0.0
H841 H 0.49681 0.57019 0.48118 0.0
H842 H 0.52375 0.49361 0.46094 0.0
C843 C 0.53062 0.44363 0.53106 0.0
C844 C 0.50571 0.5082 0.52112 0.0
C845 C 0.53549 0.42711 0.54855 0.0
C846 C 0.48221 0.57598 0.44884 0.0
C847 C 0.49001 0.5608 0.46646 0.0
C848 C 0.51833 0.49774 0.47765 0.0
C849 C 0.53138 0.4704 0.53401 0.0
C850 C 0.52233 0.48769 0.51633 0.0
C851 C 0.49055 0.5339 0.46458 0.0
C852 C 0.50139 0.51798 0.48243 0.0
H853 H 0.54841 0.47188 0.58778 0.0
H854 H 0.53996 0.50085 0.55708 0.0
H855 H 0.54169 0.46726 0.49025 0.0
H856 H 0.46798 0.52828 0.41252 0.0
H857 H 0.48155 0.5017 0.44341 0.0
C858 C 0.93173 0.47613 0.44438 0.0
C859 C 0.93992 0.46647 0.42411 0.0
C860 C 0.94956 0.48521 0.45954 0.0
C861 C 0.01767 0.48548 0.47534 0.0
H862 H 0.00056 0.55197 0.50009 0.0
C863 C 0.08721 0.53568 0.53376 0.0
C864 C 0.0759 0.54353 0.55351 0.0
C865 C 0.0719 0.52995 0.51566 0.0
C866 C 0.00557 0.53339 0.49336 0.0
H867 H 0.97328 0.45699 0.40453 0.0
H868 H 0.00458 0.47297 0.43117 0.0
H869 H 0.97115 0.53165 0.47422 0.0
H870 H 0.04003 0.55397 0.56911 0.0
H871 H 0.01323 0.54357 0.53764 0.0
H872 H 0.05179 0.48689 0.49484 0.0
C873 C 0.98431 0.47357 0.4352 0.0
C874 C 0.98871 0.52171 0.47864 0.0
C875 C 0.96643 0.46449 0.41996 0.0
C876 C 0.04922 0.54767 0.55418 0.0
C877 C 0.0339 0.54186 0.53609 0.0
C878 C 0.0345 0.49712 0.49013 0.0
C879 C 0.97595 0.48484 0.45479 0.0
C880 C 0.99441 0.49747 0.46975 0.0
C881 C 0.04501 0.5319 0.51696 0.0
C882 C 0.02847 0.52105 0.49951 0.0
H883 H 0.91147 0.47826 0.44802 0.0
H884 H 0.94263 0.49333 0.47473 0.0
H885 H 0.02246 0.46674 0.46881 0.0
H886 H 0.10769 0.53213 0.53273 0.0
H887 H 0.08102 0.5228 0.50098 0.0
C888 C 0.96464 0.45598 0.93811 0.0
C889 C 0.96728 0.42912 0.93914 0.0
C890 C 0.97227 0.47125 0.95569 0.0
C891 C 0.99022 0.47119 0.01392 0.0
H892 H 0.03625 0.52631 0.99641 0.0
C893 C 0.04285 0.5318 0.07808 0.0
C894 C 0.04051 0.55847 0.07494 0.0
C895 C 0.03715 0.51484 0.06107 0.0
C896 C 0.02335 0.51108 0.00156 0.0
H897 H 0.97813 0.3971 0.96001 0.0
H898 H 0.99098 0.42378 0.99084 0.0
H899 H 0.01569 0.49974 0.9686 0.0
H900 H 0.03197 0.58831 0.05116 0.0
H901 H 0.02216 0.55886 0.02161 0.0
H902 H 0.99749 0.48279 0.04687 0.0
C903 C 0.9831 0.433 0.97641 0.0
C904 C 0.01148 0.49598 0.98565 0.0
C905 C 0.97558 0.41772 0.95879 0.0
C906 C 0.03433 0.56788 0.05403 0.0
C907 C 0.02859 0.55095 0.03708 0.0
C908 C 0.00199 0.4864 0.02986 0.0
C909 C 0.98252 0.45991 0.97465 0.0
C910 C 0.99462 0.47606 0.99167 0.0
C911 C 0.02899 0.52426 0.04066 0.0
C912 C 0.01853 0.50664 0.02383 0.0
H913 H 0.95795 0.46524 0.92327 0.0
H914 H 0.9711 0.49197 0.95414 0.0
H915 H 0.97727 0.45597 0.01898 0.0
H916 H 0.04788 0.52406 0.09398 0.0
H917 H 0.03818 0.49434 0.06415 0.0
C918 C 0.05409 0.96726 0.92967 0.0
C919 C 0.08045 0.97236 0.93229 0.0
C920 C 0.03729 0.97017 0.9472 0.0
C921 C 0.03239 0.97793 0.00688 0.0
H922 H 0.97342 0.02002 0.99168 0.0
C923 C 0.96333 0.01833 0.07214 0.0
C924 C 0.93699 0.01597 0.06732 0.0
C925 C 0.98173 0.01372 0.05601 0.0
C926 C 0.98964 0.00806 0.99616 0.0
H927 H 0.11019 0.98274 0.9556 0.0
H928 H 0.08076 0.98764 0.98635 0.0
H929 H 0.00359 0.00735 0.96336 0.0
H930 H 0.90928 0.00707 0.04184 0.0
H931 H 0.94123 0.99914 0.01381 0.0
H932 H 0.01824 0.97851 0.03972 0.0
C933 C 0.07314 0.98138 0.97074 0.0
C934 C 0.00687 0.00074 0.97994 0.0
C935 C 0.08998 0.97849 0.95316 0.0
C936 C 0.9294 0.0096 0.04596 0.0
C937 C 0.94774 0.00496 0.02989 0.0
C938 C 0.01503 0.98516 0.02315 0.0
C939 C 0.04655 0.97819 0.96768 0.0
C940 C 0.02829 0.98544 0.98509 0.0
C941 C 0.9741 0.00664 0.03479 0.0
C942 C 0.99338 0.00016 0.0179 0.0
H943 H 0.04632 0.9621 0.91382 0.0
H944 H 0.01691 0.96704 0.94455 0.0
H945 H 0.04876 0.96611 0.01126 0.0
H946 H 0.96971 0.0234 0.08845 0.0
H947 H 0.00192 0.01554 0.06017 0.0
C948 C 0.53419 0.04706 0.93982 0.0
C949 C 0.53095 0.07381 0.94154 0.0
C950 C 0.52597 0.03081 0.95659 0.0
C951 C 0.5067 0.02781 0.01428 0.0
H952 H 0.46239 0.97234 0.99458 0.0
C953 C 0.4538 0.96314 0.07576 0.0
C954 C 0.45577 0.93665 0.07163 0.0
C955 C 0.46023 0.981 0.05957 0.0
C956 C 0.47485 0.98762 0.00034 0.0
H957 H 0.51789 0.10451 0.96283 0.0
H958 H 0.50418 0.07613 0.99224 0.0
H959 H 0.48267 0.00057 0.96782 0.0
H960 H 0.46499 0.90813 0.047 0.0
H961 H 0.47613 0.93908 0.01893 0.0
H962 H 0.49935 0.01458 0.04679 0.0
C963 C 0.513 0.06779 0.97788 0.0
C964 C 0.48653 0.0037 0.98503 0.0
C965 C 0.52102 0.08404 0.96105 0.0
C966 C 0.46279 0.92839 0.05061 0.0
C967 C 0.46928 0.94619 0.0345 0.0
C968 C 0.49517 0.01158 0.02963 0.0
C969 C 0.51459 0.04102 0.97547 0.0
C970 C 0.5027 0.02381 0.99185 0.0
C971 C 0.46883 0.97267 0.03899 0.0
C972 C 0.47925 0.9912 0.02281 0.0
H973 H 0.54219 0.03863 0.92516 0.0
H974 H 0.52785 0.01021 0.95455 0.0
H975 H 0.51914 0.04317 0.01994 0.0
H976 H 0.44823 0.97003 0.09177 0.0
H977 H 0.45919 0.00131 0.06337 0.0
C978 C 0.44476 0.54761 0.93918 0.0
C979 C 0.44339 0.53299 0.9199 0.0
C980 C 0.46053 0.53978 0.95646 0.0
C981 C 0.51367 0.49651 0.97223 0.0
H982 H 0.47777 0.49339 0.02772 0.0
C983 C 0.55858 0.44591 0.04652 0.0
C984 C 0.55796 0.46016 0.06602 0.0
C985 C 0.54309 0.45297 0.02881 0.0
C986 C 0.48812 0.49428 0.01239 0.0
H987 H 0.45884 0.49962 0.90316 0.0
H988 H 0.48663 0.48638 0.93306 0.0
H989 H 0.45661 0.51244 0.99602 0.0
H990 H 0.53969 0.49219 0.08254 0.0
H991 H 0.51274 0.50431 0.05186 0.0
H992 H 0.54529 0.47859 0.98864 0.0
C993 C 0.47552 0.50385 0.93484 0.0
C994 C 0.47607 0.50532 0.99428 0.0
C995 C 0.45967 0.51158 0.91762 0.0
C996 C 0.54033 0.48049 0.06792 0.0
C997 C 0.52492 0.48755 0.05024 0.0
C998 C 0.52579 0.48557 0.99039 0.0
C999 C 0.47533 0.5173 0.9547 0.0
C1000 C 0.48875 0.50662 0.97405 0.0
C1001 C 0.52674 0.47441 0.03027 0.0
C1002 C 0.51317 0.4844 0.01068 0.0
H1003 H 0.43273 0.5644 0.9413 0.0
H1004 H 0.46045 0.55079 0.97147 0.0
H1005 H 0.52391 0.49735 0.95685 0.0
H1006 H 0.5718 0.42999 0.04468 0.0
H1007 H 0.5445 0.44214 0.01375 0.0
C1008 C 0.90108 0.18609 0.69196 0.0
C1009 C 0.91054 0.19272 0.67124 0.0
C1010 C 0.89261 0.20509 0.70627 0.0
C1011 C 0.90424 0.27386 0.71655 0.0
H1012 H 0.86024 0.25996 0.76634 0.0
C1013 C 0.90259 0.34141 0.7901 0.0
C1014 C 0.91078 0.32858 0.80913 0.0
C1015 C 0.89395 0.32747 0.77204 0.0
C1016 C 0.87232 0.2642 0.75237 0.0
H1017 H 0.91658 0.22392 0.64842 0.0
H1018 H 0.90066 0.25726 0.67302 0.0
H1019 H 0.85949 0.23093 0.73497 0.0
H1020 H 0.91452 0.29145 0.82485 0.0
H1021 H 0.89919 0.26699 0.79325 0.0
H1022 H 0.91726 0.30691 0.73412 0.0
C1023 C 0.90066 0.23749 0.67861 0.0
C1024 C 0.87207 0.24753 0.73447 0.0
C1025 C 0.90964 0.21847 0.66445 0.0
C1026 C 0.90852 0.30171 0.81029 0.0
C1027 C 0.89952 0.28779 0.79232 0.0
C1028 C 0.90409 0.29073 0.73422 0.0
C1029 C 0.89303 0.23116 0.70005 0.0
C1030 C 0.88887 0.25155 0.71674 0.0
C1031 C 0.89299 0.30052 0.77281 0.0
C1032 C 0.88888 0.28552 0.75262 0.0
H1033 H 0.90185 0.16639 0.69769 0.0
H1034 H 0.88735 0.19935 0.72269 0.0
H1035 H 0.91775 0.27753 0.70347 0.0
H1036 H 0.90432 0.36209 0.78869 0.0
H1037 H 0.88902 0.33767 0.75715 0.0
C1038 C 0.29945 0.89916 0.67501 0.0
C1039 C 0.32368 0.90578 0.68342 0.0
C1040 C 0.28089 0.88802 0.68854 0.0
C1041 C 0.26915 0.86571 0.74633 0.0
H1042 H 0.20547 0.90311 0.73786 0.0
C1043 C 0.20909 0.91032 0.81437 0.0
C1044 C 0.1823 0.91201 0.81191 0.0
C1045 C 0.22397 0.89818 0.79849 0.0
C1046 C 0.22281 0.89193 0.74029 0.0
H1047 H 0.34823 0.90448 0.71201 0.0
H1048 H 0.3158 0.88626 0.73588 0.0
H1049 H 0.23667 0.90191 0.70873 0.0
H1050 H 0.14988 0.90078 0.79165 0.0
H1051 H 0.17593 0.87977 0.7638 0.0
H1052 H 0.2558 0.85789 0.77885 0.0
C1053 C 0.31105 0.88876 0.71876 0.0
C1054 C 0.24081 0.89114 0.72348 0.0
C1055 C 0.32972 0.89938 0.70511 0.0
C1056 C 0.17048 0.89974 0.79404 0.0
C1057 C 0.18537 0.88779 0.77805 0.0
C1058 C 0.25124 0.86687 0.76332 0.0
C1059 C 0.28603 0.88395 0.7109 0.0
C1060 C 0.26472 0.879 0.72659 0.0
C1061 C 0.21231 0.88769 0.77976 0.0
C1062 C 0.22837 0.88088 0.7607 0.0
H1063 H 0.29456 0.9036 0.6582 0.0
H1064 H 0.26209 0.88389 0.68173 0.0
H1065 H 0.28704 0.85558 0.74912 0.0
H1066 H 0.21863 0.91929 0.82815 0.0
H1067 H 0.24472 0.89859 0.80015 0.0
C1068 C 0.61794 0.17438 0.8078 0.0
C1069 C 0.60202 0.18641 0.82325 0.0
C1070 C 0.6278 0.18833 0.79013 0.0
C1071 C 0.62159 0.21598 0.7468 0.0
H1072 H 0.6344 0.28942 0.74819 0.0
C1073 C 0.57909 0.28534 0.68525 0.0
C1074 C 0.59158 0.30856 0.68001 0.0
C1075 C 0.59033 0.26788 0.69968 0.0
C1076 C 0.63151 0.26882 0.74737 0.0
H1077 H 0.58607 0.22285 0.83354 0.0
H1078 H 0.60269 0.24707 0.80263 0.0
H1079 H 0.63822 0.26433 0.7817 0.0
H1080 H 0.62689 0.33031 0.68442 0.0
H1081 H 0.64625 0.29993 0.71007 0.0
H1082 H 0.61383 0.22066 0.71265 0.0
C1083 C 0.60775 0.22695 0.80407 0.0
C1084 C 0.63343 0.25449 0.76664 0.0
C1085 C 0.5979 0.21301 0.82166 0.0
C1086 C 0.6164 0.31298 0.68849 0.0
C1087 C 0.62759 0.29552 0.70309 0.0
C1088 C 0.61974 0.23029 0.72753 0.0
C1089 C 0.622 0.21457 0.78766 0.0
C1090 C 0.62714 0.22818 0.76676 0.0
C1091 C 0.61431 0.27315 0.70932 0.0
C1092 C 0.62332 0.25707 0.72786 0.0
H1093 H 0.62146 0.1539 0.80856 0.0
H1094 H 0.63895 0.17833 0.77788 0.0
H1095 H 0.61658 0.19577 0.74627 0.0
H1096 H 0.55995 0.28114 0.67931 0.0
H1097 H 0.57936 0.25102 0.70437 0.0
C1098 C 0.21674 0.59345 0.66277 0.0
C1099 C 0.19135 0.59353 0.67063 0.0
C1100 C 0.23686 0.60276 0.67568 0.0
C1101 C 0.25274 0.63582 0.72808 0.0
H1102 H 0.30184 0.58023 0.73403 0.0
C1103 C 0.2972 0.6065 0.80958 0.0
C1104 C 0.32046 0.59285 0.8101 0.0
C1105 C 0.2872 0.61539 0.78977 0.0
C1106 C 0.28892 0.59642 0.73234 0.0
H1107 H 0.16692 0.60562 0.69738 0.0
H1108 H 0.20193 0.62168 0.71994 0.0
H1109 H 0.27305 0.58099 0.70298 0.0
H1110 H 0.3528 0.58007 0.79075 0.0
H1111 H 0.33566 0.59608 0.7561 0.0
H1112 H 0.26798 0.65056 0.75811 0.0
C1113 C 0.20635 0.6146 0.70374 0.0
C1114 C 0.27229 0.59683 0.71444 0.0
C1115 C 0.18622 0.6053 0.69081 0.0
C1116 C 0.33456 0.59009 0.7907 0.0
C1117 C 0.32472 0.59925 0.77089 0.0
C1118 C 0.26955 0.63552 0.74597 0.0
C1119 C 0.23198 0.61237 0.69672 0.0
C1120 C 0.25328 0.61588 0.71261 0.0
C1121 C 0.30039 0.61102 0.77006 0.0
C1122 C 0.28703 0.61514 0.74881 0.0
H1123 H 0.2212 0.5851 0.64703 0.0
H1124 H 0.25639 0.60122 0.66968 0.0
H1125 H 0.23853 0.65096 0.7269 0.0
H1126 H 0.28582 0.60877 0.82424 0.0
H1127 H 0.26828 0.62404 0.78982 0.0
C1128 C 0.11665 0.67582 0.19442 0.0
C1129 C 0.0934 0.68286 0.18414 0.0
C1130 C 0.12909 0.69274 0.20869 0.0
C1131 C 0.12893 0.75972 0.22975 0.0
H1132 H 0.12977 0.72704 0.2868 0.0
C1133 C 0.08634 0.78696 0.31495 0.0
C1134 C 0.09457 0.81264 0.3171 0.0
C1135 C 0.09889 0.77022 0.30079 0.0
C1136 C 0.13019 0.73641 0.27097 0.0
H1137 H 0.0667 0.71453 0.17927 0.0
H1138 H 0.08841 0.74378 0.20373 0.0
H1139 H 0.12898 0.70058 0.25397 0.0
H1140 H 0.12497 0.83943 0.30808 0.0
H1141 H 0.14617 0.81039 0.28277 0.0
H1142 H 0.12784 0.79553 0.24677 0.0
C1143 C 0.09699 0.72511 0.20086 0.0
C1144 C 0.12993 0.72128 0.25215 0.0
C1145 C 0.08439 0.70815 0.18682 0.0
C1146 C 0.11731 0.82022 0.30631 0.0
C1147 C 0.12971 0.8035 0.29192 0.0
C1148 C 0.12931 0.77486 0.24857 0.0
C1149 C 0.11881 0.71721 0.21265 0.0
C1150 C 0.1277 0.73282 0.23143 0.0
C1151 C 0.11995 0.7787 0.28836 0.0
C1152 C 0.12833 0.76329 0.26934 0.0
H1153 H 0.12472 0.65686 0.19224 0.0
H1154 H 0.14608 0.68629 0.21738 0.0
H1155 H 0.12754 0.76907 0.21394 0.0
H1156 H 0.06923 0.77998 0.32301 0.0
H1157 H 0.09077 0.75124 0.29831 0.0
C1158 C 0.79133 0.08778 0.17635 0.0
C1159 C 0.81824 0.0867 0.17789 0.0
C1160 C 0.77688 0.0984 0.19329 0.0
C1161 C 0.77965 0.10052 0.25148 0.0
H1162 H 0.71678 0.14008 0.24657 0.0
C1163 C 0.70579 0.09416 0.31965 0.0
C1164 C 0.68058 0.0901 0.31221 0.0
C1165 C 0.72444 0.10416 0.30558 0.0
C1166 C 0.73427 0.12896 0.24825 0.0
H1167 H 0.85125 0.09709 0.19777 0.0
H1168 H 0.82594 0.11529 0.22751 0.0
H1169 H 0.74656 0.13847 0.21574 0.0
H1170 H 0.65467 0.09444 0.2847 0.0
H1171 H 0.68711 0.11066 0.25989 0.0
H1172 H 0.76672 0.08893 0.28296 0.0
C1173 C 0.81609 0.10813 0.21312 0.0
C1174 C 0.75135 0.12823 0.23064 0.0
C1175 C 0.83054 0.09781 0.19606 0.0
C1176 C 0.67393 0.09762 0.2909 0.0
C1177 C 0.69262 0.10709 0.2767 0.0
C1178 C 0.76241 0.10083 0.26888 0.0
C1179 C 0.78912 0.10781 0.21216 0.0
C1180 C 0.77376 0.1133 0.23189 0.0
C1181 C 0.71836 0.10964 0.2836 0.0
C1182 C 0.73899 0.11424 0.2672 0.0
H1183 H 0.78145 0.07955 0.16242 0.0
H1184 H 0.75608 0.09769 0.19224 0.0
H1185 H 0.79668 0.08862 0.25278 0.0
H1186 H 0.7112 0.08879 0.33615 0.0
H1187 H 0.74387 0.1065 0.31167 0.0
C1188 C 0.38295 0.65935 0.29463 0.0
C1189 C 0.39908 0.67149 0.30999 0.0
C1190 C 0.37087 0.67365 0.2782 0.0
C1191 C 0.37165 0.70371 0.23597 0.0
H1192 H 0.35848 0.7768 0.24082 0.0
C1193 C 0.41198 0.77612 0.17677 0.0
C1194 C 0.40035 0.80023 0.17357 0.0
C1195 C 0.40055 0.75774 0.1902 0.0
C1196 C 0.36138 0.7563 0.23902 0.0
H1197 H 0.41284 0.70845 0.32149 0.0
H1198 H 0.39286 0.73317 0.29249 0.0
H1199 H 0.35677 0.7499 0.27334 0.0
H1200 H 0.36617 0.82275 0.18027 0.0
H1201 H 0.34636 0.79065 0.20409 0.0
H1202 H 0.37704 0.71027 0.20176 0.0
C1203 C 0.38922 0.71267 0.29312 0.0
C1204 C 0.36073 0.74091 0.25775 0.0
C1205 C 0.40112 0.69842 0.30959 0.0
C1206 C 0.37599 0.80467 0.18282 0.0
C1207 C 0.36456 0.78624 0.19638 0.0
C1208 C 0.37204 0.71904 0.21722 0.0
C1209 C 0.37475 0.70036 0.27671 0.0
C1210 C 0.36749 0.71478 0.25663 0.0
C1211 C 0.37718 0.76293 0.20082 0.0
C1212 C 0.36857 0.74576 0.21878 0.0
H1213 H 0.38079 0.63867 0.29445 0.0
H1214 H 0.3595 0.66361 0.26604 0.0
H1215 H 0.37688 0.68366 0.23438 0.0
H1216 H 0.43075 0.77188 0.17014 0.0
H1217 H 0.41106 0.74019 0.19348 0.0
C1218 C 0.65784 0.41045 0.20266 0.0
C1219 C 0.67277 0.40649 0.18385 0.0
C1220 C 0.66652 0.402 0.22307 0.0
C1221 C 0.71865 0.365 0.25124 0.0
H1222 H 0.71764 0.42303 0.2909 0.0
C1223 C 0.80258 0.39257 0.30631 0.0
C1224 C 0.7983 0.40682 0.32545 0.0
C1225 C 0.78192 0.38408 0.29362 0.0
C1226 C 0.71763 0.40625 0.28044 0.0
H1227 H 0.70755 0.3889 0.17145 0.0
H1228 H 0.72293 0.37457 0.20694 0.0
H1229 H 0.68973 0.42306 0.25924 0.0
H1230 H 0.769 0.42089 0.34753 0.0
H1231 H 0.73281 0.40605 0.32534 0.0
H1232 H 0.74785 0.34901 0.27194 0.0
C1233 C 0.70432 0.38384 0.20601 0.0
C1234 C 0.70154 0.40626 0.26218 0.0
C1235 C 0.69555 0.39216 0.18561 0.0
C1236 C 0.77289 0.4105 0.33258 0.0
C1237 C 0.75219 0.40194 0.31992 0.0
C1238 C 0.7348 0.36499 0.26955 0.0
C1239 C 0.6904 0.38956 0.22508 0.0
C1240 C 0.70269 0.3862 0.24684 0.0
C1241 C 0.7565 0.38958 0.29983 0.0
C1242 C 0.73527 0.38617 0.2838 0.0
H1243 H 0.6399 0.42094 0.2017 0.0
H1244 H 0.6551 0.40626 0.2374 0.0
H1245 H 0.71961 0.34902 0.23994 0.0
H1246 H 0.82186 0.38948 0.30025 0.0
H1247 H 0.786 0.3749 0.27814 0.0
C1248 C 0.27201 0.02381 0.66334 0.0
C1249 C 0.2765 0.006 0.64652 0.0
C1250 C 0.24765 0.03501 0.66574 0.0
C1251 C 0.17941 0.02902 0.64666 0.0
H1252 H 0.17816 0.10313 0.65357 0.0
C1253 C 0.09992 0.09313 0.61128 0.0
C1254 C 0.08803 0.11038 0.62566 0.0
C1255 C 0.12191 0.07972 0.61775 0.0
C1256 C 0.17823 0.08239 0.65192 0.0
H1257 H 0.25877 0.98508 0.61976 0.0
H1258 H 0.21699 0.00471 0.62359 0.0
H1259 H 0.21848 0.07979 0.65901 0.0
H1260 H 0.09001 0.12766 0.65784 0.0
H1261 H 0.12911 0.10461 0.66896 0.0
H1262 H 0.13951 0.03194 0.63821 0.0
C1263 C 0.23186 0.00992 0.63521 0.0
C1264 C 0.20125 0.06897 0.65516 0.0
C1265 C 0.25601 0.99879 0.63285 0.0
C1266 C 0.0988 0.11435 0.6465 0.0
C1267 C 0.12112 0.10129 0.65283 0.0
C1268 C 0.15659 0.04246 0.64308 0.0
C1269 C 0.2274 0.02851 0.65141 0.0
C1270 C 0.20228 0.04219 0.6519 0.0
C1271 C 0.13266 0.08365 0.63857 0.0
C1272 C 0.15597 0.06931 0.64512 0.0
H1273 H 0.28746 0.02973 0.67413 0.0
H1274 H 0.2448 0.04907 0.67853 0.0
H1275 H 0.17932 0.00834 0.64458 0.0
H1276 H 0.09185 0.08956 0.59523 0.0
H1277 H 0.13063 0.06635 0.60641 0.0
C1278 C 0.37734 0.10206 0.64345 0.0
C1279 C 0.37599 0.0908 0.6226 0.0
C1280 C 0.38831 0.12638 0.64624 0.0
C1281 C 0.40886 0.18457 0.61528 0.0
H1282 H 0.4536 0.19569 0.66527 0.0
C1283 C 0.48606 0.26268 0.6165 0.0
C1284 C 0.48669 0.2794 0.63452 0.0
C1285 C 0.47081 0.24066 0.61685 0.0
C1286 C 0.44089 0.19293 0.65141 0.0
H1287 H 0.38496 0.09617 0.58835 0.0
H1288 H 0.40458 0.13833 0.59316 0.0
H1289 H 0.4297 0.15534 0.66207 0.0
H1290 H 0.4724 0.28569 0.66736 0.0
H1291 H 0.44597 0.24645 0.66812 0.0
H1292 H 0.421 0.22172 0.60421 0.0
C1293 C 0.39663 0.12874 0.60735 0.0
C1294 C 0.42713 0.16988 0.64956 0.0
C1295 C 0.38544 0.10452 0.60455 0.0
C1296 C 0.47229 0.27316 0.65324 0.0
C1297 C 0.45721 0.25078 0.65369 0.0
C1298 C 0.42282 0.20741 0.61702 0.0
C1299 C 0.39834 0.13993 0.62826 0.0
C1300 C 0.4113 0.16523 0.63125 0.0
C1301 C 0.45602 0.23463 0.6353 0.0
C1302 C 0.43929 0.2116 0.63489 0.0
H1303 H 0.36985 0.09205 0.65761 0.0
H1304 H 0.38887 0.13457 0.6625 0.0
H1305 H 0.39637 0.18197 0.60126 0.0
H1306 H 0.49691 0.26685 0.60181 0.0
H1307 H 0.47051 0.22832 0.60259 0.0
C1308 C 0.39617 0.38886 0.60786 0.0
C1309 C 0.41531 0.38711 0.62409 0.0
C1310 C 0.37216 0.39947 0.61263 0.0
C1311 C 0.34125 0.44556 0.64836 0.0
H1312 H 0.27784 0.41356 0.62866 0.0
C1313 C 0.24763 0.49978 0.62989 0.0
C1314 C 0.22429 0.48896 0.63683 0.0
C1315 C 0.27071 0.48674 0.63322 0.0
C1316 C 0.29536 0.42251 0.63455 0.0
H1317 H 0.4235 0.39461 0.65842 0.0
H1318 H 0.38204 0.41381 0.66636 0.0
H1319 H 0.31872 0.3909 0.62416 0.0
H1320 H 0.20663 0.45656 0.65336 0.0
H1321 H 0.24724 0.43323 0.65867 0.0
H1322 H 0.31802 0.47765 0.65785 0.0
C1323 C 0.38577 0.40698 0.64995 0.0
C1324 C 0.31872 0.40969 0.63178 0.0
C1325 C 0.40966 0.39609 0.64528 0.0
C1326 C 0.22445 0.46531 0.64795 0.0
C1327 C 0.24757 0.45196 0.65088 0.0
C1328 C 0.31795 0.45854 0.65082 0.0
C1329 C 0.36683 0.40879 0.63367 0.0
C1330 C 0.3419 0.42129 0.63833 0.0
C1331 C 0.27082 0.46242 0.64321 0.0
C1332 C 0.29487 0.4473 0.64362 0.0
H1333 H 0.39979 0.38245 0.59135 0.0
H1334 H 0.35795 0.40096 0.59971 0.0
H1335 H 0.35888 0.45495 0.65346 0.0
H1336 H 0.24799 0.51805 0.62135 0.0
H1337 H 0.28834 0.49512 0.627 0.0
C1338 C 0.10881 0.40322 0.58881 0.0
C1339 C 0.11732 0.41692 0.60719 0.0
C1340 C 0.09663 0.3794 0.59128 0.0
C1341 C 0.06295 0.33898 0.63251 0.0
H1342 H 0.07406 0.28533 0.58965 0.0
C1343 C 0.02481 0.23382 0.64084 0.0
C1344 C 0.01301 0.22392 0.62194 0.0
C1345 C 0.03759 0.25756 0.64015 0.0
C1346 C 0.0707 0.3002 0.6017 0.0
H1347 H 0.12062 0.41607 0.64253 0.0
H1348 H 0.09994 0.37436 0.64686 0.0
H1349 H 0.09695 0.32603 0.58616 0.0
H1350 H 0.00482 0.23142 0.58767 0.0
H1351 H 0.02717 0.27247 0.58653 0.0
H1352 H 0.0369 0.31275 0.64815 0.0
C1353 C 0.10192 0.38225 0.63055 0.0
C1354 C 0.08371 0.32357 0.59965 0.0
C1355 C 0.11384 0.40615 0.62808 0.0
C1356 C 0.01378 0.23842 0.60253 0.0
C1357 C 0.02671 0.26188 0.6018 0.0
C1358 C 0.05013 0.31545 0.63467 0.0
C1359 C 0.09299 0.36863 0.6122 0.0
C1360 C 0.07979 0.34339 0.61487 0.0
C1361 C 0.03901 0.27156 0.6205 0.0
C1362 C 0.05364 0.29597 0.61912 0.0
H1363 H 0.11101 0.41122 0.57256 0.0
H1364 H 0.08963 0.36968 0.5768 0.0
H1365 H 0.05918 0.35391 0.64439 0.0
H1366 H 0.02453 0.2231 0.65604 0.0
H1367 H 0.04697 0.26462 0.6548 0.0
C1368 C 0.25854 0.49091 0.88977 0.0
C1369 C 0.27424 0.48969 0.87114 0.0
C1370 C 0.23537 0.47747 0.8906 0.0
C1371 C 0.20085 0.42284 0.86535 0.0
H1372 H 0.14291 0.45172 0.89668 0.0
C1373 C 0.09843 0.37864 0.86618 0.0
C1374 C 0.08602 0.37745 0.88655 0.0
C1375 C 0.12198 0.39128 0.86401 0.0
C1376 C 0.15903 0.44334 0.88806 0.0
H1377 H 0.27766 0.47385 0.83852 0.0
H1378 H 0.23661 0.4508 0.83972 0.0
H1379 H 0.18187 0.47719 0.89199 0.0
H1380 H 0.08865 0.38802 0.92068 0.0
H1381 H 0.12994 0.41044 0.9169 0.0
H1382 H 0.17751 0.38917 0.86107 0.0
C1383 C 0.24257 0.46177 0.85388 0.0
C1384 C 0.18137 0.45789 0.88536 0.0
C1385 C 0.26598 0.47512 0.85312 0.0
C1386 C 0.09793 0.38855 0.90486 0.0
C1387 C 0.12136 0.40153 0.90264 0.0
C1388 C 0.17833 0.40839 0.86784 0.0
C1389 C 0.22708 0.46264 0.87274 0.0
C1390 C 0.2027 0.44773 0.87422 0.0
C1391 C 0.13343 0.40325 0.88213 0.0
C1392 C 0.15734 0.41842 0.87943 0.0
H1393 H 0.26437 0.50182 0.90402 0.0
H1394 H 0.22427 0.47824 0.90555 0.0
H1395 H 0.21699 0.41425 0.85695 0.0
H1396 H 0.08972 0.37002 0.85185 0.0
H1397 H 0.13082 0.39242 0.84801 0.0
C1398 C 0.12772 0.10678 0.85063 0.0
C1399 C 0.13202 0.09735 0.87187 0.0
C1400 C 0.11516 0.13021 0.84735 0.0
C1401 C 0.0936 0.18924 0.87681 0.0
H1402 H 0.04519 0.19454 0.82861 0.0
C1403 C 0.00918 0.25939 0.87558 0.0
C1404 C 0.00979 0.27811 0.85897 0.0
C1405 C 0.0253 0.23806 0.87473 0.0
C1406 C 0.05889 0.19336 0.84194 0.0
H1407 H 0.12673 0.10496 0.9063 0.0
H1408 H 0.10406 0.14543 0.90075 0.0
H1409 H 0.07169 0.15598 0.83242 0.0
H1410 H 0.0269 0.28843 0.82784 0.0
H1411 H 0.05473 0.25024 0.82608 0.0
H1412 H 0.07952 0.22604 0.88693 0.0
C1413 C 0.111 0.13524 0.88653 0.0
C1414 C 0.07418 0.17137 0.84414 0.0
C1415 C 0.12392 0.11198 0.88979 0.0
C1416 C 0.02601 0.27433 0.84087 0.0
C1417 C 0.04191 0.25259 0.83986 0.0
C1418 C 0.07802 0.21095 0.8748 0.0
C1419 C 0.10629 0.14462 0.86525 0.0
C1420 C 0.09146 0.16883 0.86184 0.0
C1421 C 0.04207 0.2347 0.85709 0.0
C1422 C 0.06033 0.21301 0.85754 0.0
H1423 H 0.13411 0.09601 0.83652 0.0
H1424 H 0.11241 0.13698 0.83075 0.0
H1425 H 0.1071 0.18838 0.89029 0.0
H1426 H 0.99694 0.26162 0.88975 0.0
H1427 H 0.02499 0.22434 0.88809 0.0
C1428 C 0.39741 0.12251 0.8836 0.0
C1429 C 0.41916 0.12257 0.87 0.0
C1430 C 0.37452 0.11089 0.87675 0.0
C1431 C 0.34993 0.0607 0.84055 0.0
H1432 H 0.28389 0.09212 0.8527 0.0
C1433 C 0.2559 0.00449 0.85251 0.0
C1434 C 0.23273 0.01512 0.84491 0.0
C1435 C 0.27903 0.01777 0.84996 0.0
C1436 C 0.30216 0.08327 0.84884 0.0
H1437 H 0.43342 0.11113 0.83807 0.0
H1438 H 0.39369 0.09041 0.82644 0.0
H1439 H 0.32343 0.11616 0.85978 0.0
H1440 H 0.21566 0.04732 0.82768 0.0
H1441 H 0.25627 0.07086 0.82348 0.0
H1442 H 0.32863 0.02748 0.83031 0.0
C1443 C 0.39449 0.09918 0.84248 0.0
C1444 C 0.32479 0.09691 0.85315 0.0
C1445 C 0.41733 0.11095 0.84926 0.0
C1446 C 0.23329 0.03865 0.8336 0.0
C1447 C 0.25645 0.05217 0.83134 0.0
C1448 C 0.32729 0.04696 0.83645 0.0
C1449 C 0.37287 0.09896 0.85618 0.0
C1450 C 0.3489 0.08556 0.84949 0.0
C1451 C 0.27943 0.04213 0.84001 0.0
C1452 C 0.3032 0.05791 0.84099 0.0
H1453 H 0.39818 0.13103 0.89971 0.0
H1454 H 0.35827 0.11069 0.8878 0.0
H1455 H 0.36824 0.05143 0.83763 0.0
H1456 H 0.25601 0.98633 0.86123 0.0
H1457 H 0.29637 0.00963 0.85696 0.0
C1458 C 0.39378 0.40925 0.85394 0.0
C1459 C 0.39247 0.41943 0.8752 0.0
C1460 C 0.40583 0.38563 0.85017 0.0
C1461 C 0.42659 0.32686 0.87982 0.0
H1462 H 0.47 0.31522 0.82929 0.0
C1463 C 0.50309 0.24937 0.87858 0.0
C1464 C 0.49994 0.22995 0.86284 0.0
C1465 C 0.48936 0.27223 0.877 0.0
C1466 C 0.45763 0.31819 0.84328 0.0
H1467 H 0.40369 0.41349 0.90893 0.0
H1468 H 0.42515 0.37274 0.90241 0.0
H1469 H 0.44696 0.35615 0.83297 0.0
H1470 H 0.48101 0.21992 0.83237 0.0
H1471 H 0.45716 0.26066 0.82942 0.0
H1472 H 0.43821 0.28947 0.8906 0.0
C1473 C 0.41617 0.38245 0.8887 0.0
C1474 C 0.44443 0.34153 0.84542 0.0
C1475 C 0.40396 0.40587 0.89247 0.0
C1476 C 0.48379 0.23453 0.84475 0.0
C1477 C 0.47019 0.25774 0.84304 0.0
C1478 C 0.43996 0.30381 0.87781 0.0
C1479 C 0.41695 0.37181 0.86757 0.0
C1480 C 0.42922 0.34634 0.86401 0.0
C1481 C 0.4724 0.27639 0.85953 0.0
C1482 C 0.45597 0.29949 0.85978 0.0
H1483 H 0.3849 0.4192 0.84033 0.0
H1484 H 0.40591 0.37794 0.83373 0.0
H1485 H 0.41447 0.32956 0.89401 0.0
H1486 H 0.51549 0.24661 0.89265 0.0
H1487 H 0.49151 0.2865 0.88978 0.0
C1488 C 0.90064 0.89925 0.38772 0.0
C1489 C 0.91282 0.88633 0.3705 0.0
C1490 C 0.87796 0.91296 0.384 0.0
C1491 C 0.82188 0.91713 0.34831 0.0
H1492 H 0.8162 0.98626 0.37144 0.0
C1493 C 0.72851 0.97702 0.33879 0.0
C1494 C 0.72084 0.99039 0.35763 0.0
C1495 C 0.75308 0.96606 0.33762 0.0
C1496 C 0.81736 0.9669 0.36501 0.0
H1497 H 0.91054 0.87703 0.33602 0.0
H1498 H 0.87057 0.90073 0.32957 0.0
H1499 H 0.85653 0.96287 0.37535 0.0
H1500 H 0.73311 0.00319 0.38977 0.0
H1501 H 0.77528 0.98379 0.38795 0.0
H1502 H 0.78241 0.92068 0.33875 0.0
C1503 C 0.87873 0.9004 0.34588 0.0
C1504 C 0.84049 0.95356 0.36723 0.0
C1505 C 0.90163 0.887 0.34954 0.0
C1506 C 0.73838 0.99308 0.37498 0.0
C1507 C 0.76275 0.98209 0.37386 0.0
C1508 C 0.79858 0.93037 0.34632 0.0
C1509 C 0.86683 0.91371 0.36304 0.0
C1510 C 0.84284 0.9284 0.35924 0.0
C1511 C 0.7704 0.96825 0.35528 0.0
C1512 C 0.79589 0.95525 0.35504 0.0
H1513 H 0.90897 0.89923 0.40396 0.0
H1514 H 0.86902 0.92286 0.39756 0.0
H1515 H 0.82319 0.8977 0.34207 0.0
H1516 H 0.71543 0.97466 0.32513 0.0
H1517 H 0.75845 0.95576 0.32296 0.0
C1518 C 0.6111 0.89829 0.34717 0.0
C1519 C 0.60975 0.90991 0.36787 0.0
C1520 C 0.59738 0.87572 0.3428 0.0
C1521 C 0.53985 0.84108 0.35897 0.0
H1522 H 0.57331 0.77952 0.33754 0.0
C1523 C 0.49316 0.74204 0.36695 0.0
C1524 C 0.49841 0.72263 0.35167 0.0
C1525 C 0.50524 0.7659 0.36551 0.0
C1526 C 0.56349 0.79667 0.34304 0.0
H1527 H 0.59308 0.90718 0.40019 0.0
H1528 H 0.5687 0.86788 0.39247 0.0
H1529 H 0.59816 0.81913 0.34193 0.0
H1530 H 0.51958 0.71347 0.32221 0.0
H1531 H 0.54031 0.75565 0.31931 0.0
H1532 H 0.50516 0.81908 0.35989 0.0
C1533 C 0.58053 0.87618 0.37971 0.0
C1534 C 0.57781 0.81928 0.34569 0.0
C1535 C 0.59462 0.89846 0.38419 0.0
C1536 C 0.51518 0.72803 0.33427 0.0
C1537 C 0.52722 0.75212 0.33273 0.0
C1538 C 0.52546 0.81868 0.35598 0.0
C1539 C 0.58168 0.8647 0.35895 0.0
C1540 C 0.56623 0.84145 0.35422 0.0
C1541 C 0.52273 0.7712 0.3486 0.0
C1542 C 0.53723 0.79594 0.3486 0.0
H1543 H 0.62276 0.90671 0.33437 0.0
H1544 H 0.59854 0.86723 0.32668 0.0
H1545 H 0.5304 0.85811 0.36519 0.0
H1546 H 0.48036 0.73857 0.3806 0.0
H1547 H 0.50158 0.77981 0.37828 0.0
C1548 C 0.75834 0.51232 0.38773 0.0
C1549 C 0.77431 0.51088 0.36929 0.0
C1550 C 0.7345 0.52442 0.38648 0.0
C1551 C 0.69774 0.57166 0.35399 0.0
H1552 H 0.64089 0.54524 0.38838 0.0
C1553 C 0.59432 0.61409 0.35254 0.0
C1554 C 0.58329 0.61828 0.3732 0.0
C1555 C 0.61756 0.60083 0.35064 0.0
C1556 C 0.65665 0.55288 0.37878 0.0
H1557 H 0.77765 0.52069 0.33493 0.0
H1558 H 0.73555 0.54145 0.3326 0.0
H1559 H 0.681 0.5212 0.3868 0.0
H1560 H 0.58786 0.61198 0.408 0.0
H1561 H 0.62843 0.58866 0.4047 0.0
H1562 H 0.673 0.60326 0.34585 0.0
C1563 C 0.74174 0.53356 0.34814 0.0
C1564 C 0.67965 0.53917 0.37789 0.0
C1565 C 0.76578 0.52155 0.34944 0.0
C1566 C 0.59605 0.60921 0.39192 0.0
C1567 C 0.61909 0.59567 0.39001 0.0
C1568 C 0.67456 0.58525 0.35469 0.0
C1569 C 0.72586 0.53521 0.3667 0.0
C1570 C 0.70067 0.54864 0.36585 0.0
C1571 C 0.62997 0.59122 0.36935 0.0
C1572 C 0.654 0.5762 0.36743 0.0
H1573 H 0.7644 0.50446 0.40332 0.0
H1574 H 0.72309 0.52578 0.40122 0.0
H1575 H 0.7136 0.57965 0.34474 0.0
H1576 H 0.58494 0.62109 0.33787 0.0
H1577 H 0.62553 0.5976 0.33453 0.0
C1578 C 0.89067 0.59181 0.35428 0.0
C1579 C 0.89187 0.58031 0.3751 0.0
C1580 C 0.90403 0.61464 0.35 0.0
C1581 C 0.95889 0.65314 0.36908 0.0
H1582 H 0.92339 0.7111 0.3429 0.0
C1583 C 0.99655 0.75607 0.37734 0.0
C1584 C 0.99296 0.77372 0.3602 0.0
C1585 C 0.98595 0.73148 0.37623 0.0
C1586 C 0.93377 0.69497 0.34982 0.0
H1587 H 0.90824 0.58346 0.40758 0.0
H1588 H 0.93158 0.62327 0.40013 0.0
H1589 H 0.90126 0.66982 0.34649 0.0
H1590 H 0.97596 0.77915 0.32811 0.0
H1591 H 0.95766 0.73582 0.326 0.0
H1592 H 0.99133 0.67809 0.37254 0.0
C1593 C 0.92033 0.61463 0.38713 0.0
C1594 C 0.92105 0.67136 0.35194 0.0
C1595 C 0.90676 0.59201 0.39148 0.0
C1596 C 0.97903 0.76599 0.3416 0.0
C1597 C 0.96842 0.74123 0.34046 0.0
C1598 C 0.97167 0.67661 0.36679 0.0
C1599 C 0.9191 0.62618 0.36637 0.0
C1600 C 0.9333 0.65041 0.36207 0.0
C1601 C 0.97157 0.72377 0.35788 0.0
C1602 C 0.95906 0.69801 0.35766 0.0
H1603 H 0.87917 0.58331 0.3414 0.0
H1604 H 0.9028 0.6231 0.33383 0.0
H1605 H 0.96895 0.63715 0.37658 0.0
H1606 H 0.00711 0.76138 0.39194 0.0
H1607 H 0.9884 0.71878 0.39013 0.0
C1608 C 0.90239 0.61177 0.13918 0.0
C1609 C 0.91537 0.61126 0.11903 0.0
C1610 C 0.87858 0.59958 0.14156 0.0
C1611 C 0.84052 0.54703 0.11892 0.0
H1612 H 0.78159 0.58113 0.14459 0.0
C1613 C 0.73903 0.50673 0.10896 0.0
C1614 C 0.72126 0.5089 0.12611 0.0
C1615 C 0.76293 0.51873 0.1102 0.0
C1616 C 0.79798 0.57117 0.13776 0.0
H1617 H 0.91354 0.59781 0.08558 0.0
H1618 H 0.87194 0.57635 0.08974 0.0
H1619 H 0.82288 0.60367 0.14246 0.0
H1620 H 0.71472 0.52527 0.15819 0.0
H1621 H 0.75704 0.54601 0.16059 0.0
H1622 H 0.81603 0.51449 0.11437 0.0
C1623 C 0.88024 0.5862 0.10368 0.0
C1624 C 0.82155 0.58413 0.13644 0.0
C1625 C 0.90389 0.59865 0.10122 0.0
C1626 C 0.72804 0.52324 0.14471 0.0
C1627 C 0.75219 0.53523 0.14602 0.0
C1628 C 0.81713 0.53401 0.12046 0.0
C1629 C 0.86746 0.58639 0.12391 0.0
C1630 C 0.84287 0.57233 0.12659 0.0
C1631 C 0.7699 0.53308 0.12872 0.0
C1632 C 0.79539 0.5461 0.12942 0.0
H1633 H 0.91069 0.62158 0.15312 0.0
H1634 H 0.86916 0.59996 0.15734 0.0
H1635 H 0.85682 0.53731 0.11168 0.0
H1636 H 0.73441 0.496 0.0943 0.0
H1637 H 0.77576 0.51713 0.09635 0.0
C1638 C 0.98679 0.73422 0.11995 0.0
C1639 C 0.98722 0.71776 0.1382 0.0
C1640 C 0.97147 0.75616 0.11985 0.0
C1641 C 0.94133 0.80488 0.15244 0.0
H1642 H 0.89464 0.8114 0.10316 0.0
C1643 C 0.8758 0.89395 0.14117 0.0
C1644 C 0.87273 0.9032 0.11972 0.0
C1645 C 0.88768 0.87028 0.14509 0.0
C1646 C 0.90774 0.81008 0.1169 0.0
H1647 H 0.97266 0.71198 0.17105 0.0
H1648 H 0.94618 0.75116 0.17104 0.0
H1649 H 0.92009 0.77244 0.1075 0.0
H1650 H 0.87988 0.89508 0.08559 0.0
H1651 H 0.9012 0.85419 0.0923 0.0
H1652 H 0.93002 0.843 0.16132 0.0
C1653 C 0.95759 0.74663 0.15676 0.0
C1654 C 0.92215 0.78767 0.11945 0.0
C1655 C 0.9727 0.72429 0.15675 0.0
C1656 C 0.88165 0.88825 0.10225 0.0
C1657 C 0.89379 0.86475 0.10616 0.0
C1658 C 0.92716 0.82755 0.14972 0.0
C1659 C 0.95649 0.7624 0.13809 0.0
C1660 C 0.93937 0.78504 0.13702 0.0
C1661 C 0.897 0.85542 0.12763 0.0
C1662 C 0.91053 0.83061 0.13166 0.0
H1663 H 0.99773 0.72984 0.10538 0.0
H1664 H 0.97117 0.7682 0.10537 0.0
H1665 H 0.95462 0.8033 0.16604 0.0
H1666 H 0.86881 0.90493 0.15494 0.0
H1667 H 0.8894 0.86359 0.16181 0.0
C1668 C 0.75005 0.99406 0.11171 0.0
C1669 C 0.76757 0.99017 0.12893 0.0
C1670 C 0.72626 0.98169 0.11166 0.0
C1671 C 0.67756 0.94978 0.14492 0.0
H1672 H 0.66224 0.91322 0.0912 0.0
C1673 C 0.58765 0.88455 0.13536 0.0
C1674 C 0.57514 0.88474 0.11496 0.0
C1675 C 0.61125 0.89708 0.13813 0.0
C1676 C 0.66597 0.9236 0.10621 0.0
H1677 H 0.77327 0.97129 0.16023 0.0
H1678 H 0.73119 0.94984 0.16025 0.0
H1679 H 0.70253 0.9367 0.09468 0.0
H1680 H 0.57718 0.89874 0.08165 0.0
H1681 H 0.61796 0.92108 0.08649 0.0
H1682 H 0.64066 0.93724 0.15627 0.0
C1683 C 0.73615 0.9624 0.14674 0.0
C1684 C 0.68913 0.93695 0.10822 0.0
C1685 C 0.7602 0.97464 0.1467 0.0
C1686 C 0.58659 0.89789 0.09744 0.0
C1687 C 0.61002 0.91064 0.10025 0.0
C1688 C 0.65415 0.93663 0.14282 0.0
C1689 C 0.71929 0.9653 0.12891 0.0
C1690 C 0.69506 0.95038 0.12749 0.0
C1691 C 0.62276 0.91029 0.12059 0.0
C1692 C 0.64797 0.92357 0.12333 0.0
H1693 H 0.755 0.00603 0.09782 0.0
H1694 H 0.71343 0.98459 0.09789 0.0
H1695 H 0.68166 0.96007 0.15992 0.0
H1696 H 0.5794 0.87432 0.14909 0.0
H1697 H 0.62064 0.89606 0.15393 0.0
C1698 C 0.59788 0.586 0.13623 0.0
C1699 C 0.60029 0.57643 0.11483 0.0
C1700 C 0.58415 0.6086 0.14019 0.0
C1701 C 0.53362 0.64962 0.11742 0.0
H1702 H 0.5665 0.70525 0.14916 0.0
C1703 C 0.49874 0.7533 0.10957 0.0
C1704 C 0.50024 0.76998 0.12755 0.0
C1705 C 0.50905 0.72863 0.11072 0.0
C1706 C 0.55679 0.68976 0.14066 0.0
H1707 H 0.58993 0.58264 0.08094 0.0
H1708 H 0.56567 0.62204 0.08785 0.0
H1709 H 0.58806 0.66368 0.14621 0.0
H1710 H 0.51337 0.7737 0.16107 0.0
H1711 H 0.53111 0.73017 0.16326 0.0
H1712 H 0.50236 0.67541 0.11183 0.0
C1713 C 0.57447 0.61208 0.10152 0.0
C1714 C 0.5692 0.66601 0.13891 0.0
C1715 C 0.5885 0.58971 0.09753 0.0
C1716 C 0.51199 0.76129 0.14691 0.0
C1717 C 0.52224 0.73642 0.14812 0.0
C1718 C 0.52109 0.6732 0.11939 0.0
C1719 C 0.57226 0.62179 0.12287 0.0
C1720 C 0.55801 0.64596 0.12679 0.0
C1721 C 0.52097 0.71983 0.12997 0.0
C1722 C 0.53283 0.69382 0.13049 0.0
H1723 H 0.607 0.57626 0.14985 0.0
H1724 H 0.58267 0.61566 0.15679 0.0
H1725 H 0.52438 0.6343 0.10833 0.0
H1726 H 0.48996 0.7594 0.09434 0.0
H1727 H 0.5082 0.71669 0.09625 0.0
loop_
_geom_bond_atom_site_label_1
_geom_bond_atom_site_label_2
_geom_bond_distance
_geom_bond_site_symmetry_2
_ccdc_geom_bond_type
Co0 N4 2.148 . S
Co0 N10 2.128 1_455 S
Co0 N20 2.194 1_455 S
Co0 O25 2.353 . S
Co0 O26 2.155 . S
Co0 O27 2.096 . S
C1 N4 1.301 . S
C1 N5 1.328 . S
C1 H6 0.930 . S
C2 C3 1.333 . S
C2 N4 1.317 . S
C2 H7 0.930 . S
C3 C2 1.333 . S
C3 N5 1.350 . S
C3 H29 0.931 . S
N4 Co0 2.148 . S
N4 C1 1.301 . S
N4 C2 1.317 . S
N5 C1 1.328 . S
N5 C3 1.350 . S
H6 C1 0.930 . S
H7 C2 0.930 . S
C8 O9 1.224 . S
C8 O27 1.247 . S
O9 C8 1.224 . S
N10 Co0 2.128 1_655 S
N10 C11 1.355 . S
N10 C13 1.311 . S
C11 N10 1.355 . S
C11 C12 1.363 . S
C11 H23 0.929 . S
C12 C11 1.363 . S
C12 N14 1.375 . S
C12 H30 0.931 . S
C13 N10 1.311 . S
C13 N14 1.347 . S
C13 H24 0.929 . S
N14 C12 1.375 . S
N14 C13 1.347 . S
C15 C18 1.365 . S
C15 N20 1.328 . S
C15 H21 0.929 . S
C16 C17 1.362 . S
C16 C19 1.378 . S
C16 H31 0.929 . S
C17 C16 1.362 . S
C17 C18 1.366 . S
C18 C15 1.365 . S
C18 C17 1.366 . S
C18 H32 0.930 . S
C19 C16 1.378 . S
C19 N20 1.315 . S
C19 H22 0.930 . S
N20 Co0 2.194 1_655 S
N20 C15 1.328 . S
N20 C19 1.315 . S
H21 C15 0.929 . S
H22 C19 0.930 . S
H23 C11 0.929 . S
H24 C13 0.929 . S
O25 Co0 2.353 . S
O25 C28 1.252 . S
O26 Co0 2.155 . S
O26 C28 1.240 . S
O27 Co0 2.096 . S
O27 C8 1.247 . S
C28 O25 1.252 . S
C28 O26 1.240 . S
H29 C3 0.931 . S
H30 C12 0.931 . S
H31 C16 0.929 . S
H32 C18 0.930 . S
Co33 N37 2.148 . S
Co33 N43 2.128 1_545 S
Co33 N53 2.194 1_545 S
Co33 O58 2.352 . S
Co33 O59 2.155 . S
Co33 O60 2.096 . S
C34 N37 1.301 . S
C34 N38 1.328 . S
C34 H39 0.930 . S
C35 C36 1.333 . S
C35 N37 1.317 . S
C35 H40 0.930 . S
C36 C35 1.333 . S
C36 N38 1.350 . S
C36 H62 0.931 . S
N37 Co33 2.148 . S
N37 C34 1.301 . S
N37 C35 1.317 . S
N38 C34 1.328 . S
N38 C36 1.350 . S
H39 C34 0.930 . S
H40 C35 0.930 . S
C41 O42 1.224 . S
C41 O60 1.247 . S
O42 C41 1.224 . S
N43 Co33 2.128 1_565 S
N43 C44 1.355 . S
N43 C46 1.311 . S
C44 N43 1.355 . S
C44 C45 1.363 . S
C44 H56 0.929 . S
C45 C44 1.363 . S
C45 N47 1.375 . S
C45 H63 0.931 . S
C46 N43 1.311 . S
C46 N47 1.347 . S
C46 H57 0.929 . S
N47 C45 1.375 . S
N47 C46 1.347 . S
C48 C51 1.365 . S
C48 N53 1.328 . S
C48 H54 0.929 . S
C49 C50 1.362 . S
C49 C52 1.378 . S
C49 H64 0.929 . S
C50 C49 1.362 . S
C50 C51 1.366 . S
C51 C48 1.365 . S
C51 C50 1.366 . S
C51 H65 0.930 . S
C52 C49 1.378 . S
C52 N53 1.315 . S
C52 H55 0.930 . S
N53 Co33 2.194 1_565 S
N53 C48 1.328 . S
N53 C52 1.315 . S
H54 C48 0.929 . S
H55 C52 0.930 . S
H56 C44 0.929 . S
H57 C46 0.929 . S
O58 Co33 2.352 . S
O58 C61 1.248 . S
O59 Co33 2.155 . S
O59 C61 1.240 . S
O60 Co33 2.096 . S
O60 C41 1.247 . S
C61 O58 1.248 . S
C61 O59 1.240 . S
H62 C36 0.931 . S
H63 C45 0.931 . S
H64 C49 0.929 . S
H65 C51 0.930 . S
Co66 N70 2.148 . S
Co66 N76 2.128 . S
Co66 N86 2.194 . S
Co66 O91 2.351 . S
Co66 O92 2.155 . S
Co66 O93 2.096 . S
C67 N70 1.301 . S
C67 N71 1.328 . S
C67 H72 0.930 . S
C68 C69 1.333 . S
C68 N70 1.317 . S
C68 H73 0.930 . S
C69 C68 1.333 . S
C69 N71 1.350 . S
C69 H95 0.931 . S
N70 Co66 2.148 . S
N70 C67 1.301 . S
N70 C68 1.317 . S
N71 C67 1.328 . S
N71 C69 1.350 . S
H72 C67 0.930 . S
H73 C68 0.930 . S
C74 O75 1.224 . S
C74 O93 1.247 . S
O75 C74 1.224 . S
N76 Co66 2.128 . S
N76 C77 1.355 . S
N76 C79 1.311 . S
C77 N76 1.355 . S
C77 C78 1.363 . S
C77 H89 0.929 . S
C78 C77 1.363 . S
C78 N80 1.375 . S
C78 H96 0.931 . S
C79 N76 1.311 . S
C79 N80 1.347 . S
C79 H90 0.929 . S
N80 C78 1.375 . S
N80 C79 1.347 . S
C81 C84 1.365 . S
C81 N86 1.328 . S
C81 H87 0.929 . S
C82 C83 1.362 . S
C82 C85 1.378 . S
C82 H97 0.929 . S
C83 C82 1.362 . S
C83 C84 1.366 . S
C84 C81 1.365 . S
C84 C83 1.366 . S
C84 H98 0.930 . S
C85 C82 1.378 . S
C85 N86 1.315 . S
C85 H88 0.930 . S
N86 Co66 2.194 . S
N86 C81 1.328 . S
N86 C85 1.315 . S
H87 C81 0.929 . S
H88 C85 0.930 . S
H89 C77 0.929 . S
H90 C79 0.929 . S
O91 Co66 2.351 . S
O91 C94 1.244 . S
O92 Co66 2.155 . S
O92 C94 1.240 . S
O93 Co66 2.096 . S
O93 C74 1.247 . S
C94 O91 1.244 . S
C94 O92 1.240 . S
H95 C69 0.931 . S
H96 C78 0.931 . S
H97 C82 0.929 . S
H98 C84 0.930 . S
Co99 N103 2.148 . S
Co99 N109 2.128 . S
Co99 N119 2.194 . S
Co99 O124 2.351 . S
Co99 O125 2.155 . S
Co99 O126 2.096 . S
C100 N103 1.301 . S
C100 N104 1.328 . S
C100 H105 0.930 . S
C101 C102 1.333 . S
C101 N103 1.317 . S
C101 H106 0.930 . S
C102 C101 1.333 . S
C102 N104 1.350 . S
C102 H128 0.931 . S
N103 Co99 2.148 . S
N103 C100 1.301 . S
N103 C101 1.317 . S
N104 C100 1.328 . S
N104 C102 1.350 . S
H105 C100 0.930 . S
H106 C101 0.930 . S
C107 O108 1.224 . S
C107 O126 1.247 . S
O108 C107 1.224 . S
N109 Co99 2.128 . S
N109 C110 1.355 . S
N109 C112 1.311 . S
C110 N109 1.355 . S
C110 C111 1.363 . S
C110 H122 0.929 . S
C111 C110 1.363 . S
C111 N113 1.375 . S
C111 H129 0.931 . S
C112 N109 1.311 . S
C112 N113 1.347 . S
C112 H123 0.929 . S
N113 C111 1.375 . S
N113 C112 1.347 . S
C114 C117 1.365 . S
C114 N119 1.328 . S
C114 H120 0.929 . S
C115 C116 1.362 . S
C115 C118 1.378 . S
C115 H130 0.929 . S
C116 C115 1.362 . S
C116 C117 1.366 . S
C117 C114 1.365 . S
C117 C116 1.366 . S
C117 H131 0.930 . S
C118 C115 1.378 . S
C118 N119 1.315 . S
C118 H121 0.930 . S
N119 Co99 2.194 . S
N119 C114 1.328 . S
N119 C118 1.315 . S
H120 C114 0.929 . S
H121 C118 0.930 . S
H122 C110 0.929 . S
H123 C112 0.929 . S
O124 Co99 2.351 . S
O124 C127 1.244 . S
O125 Co99 2.155 . S
O125 C127 1.240 . S
O126 Co99 2.096 . S
O126 C107 1.247 . S
C127 O124 1.244 . S
C127 O125 1.240 . S
H128 C102 0.931 . S
H129 C111 0.931 . S
H130 C115 0.929 . S
H131 C117 0.930 . S
Co132 N136 2.148 . S
Co132 N142 2.128 1_455 S
Co132 N152 2.194 1_455 S
Co132 O157 2.352 . S
Co132 O158 2.155 . S
Co132 O159 2.096 . S
C133 N136 1.301 . S
C133 N137 1.328 . S
C133 H138 0.930 . S
C134 C135 1.333 . S
C134 N136 1.317 . S
C134 H139 0.930 . S
C135 C134 1.333 . S
C135 N137 1.350 . S
C135 H161 0.931 . S
N136 Co132 2.148 . S
N136 C133 1.301 . S
N136 C134 1.317 . S
N137 C133 1.328 . S
N137 C135 1.350 . S
H138 C133 0.930 . S
H139 C134 0.930 . S
C140 O141 1.224 . S
C140 O159 1.247 . S
O141 C140 1.224 . S
N142 Co132 2.128 1_655 S
N142 C143 1.355 . S
N142 C145 1.311 . S
C143 N142 1.355 . S
C143 C144 1.363 . S
C143 H155 0.929 . S
C144 C143 1.363 . S
C144 N146 1.375 . S
C144 H162 0.931 . S
C145 N142 1.311 . S
C145 N146 1.347 . S
C145 H156 0.929 . S
N146 C144 1.375 . S
N146 C145 1.347 . S
C147 C150 1.365 . S
C147 N152 1.328 . S
C147 H153 0.929 . S
C148 C149 1.362 . S
C148 C151 1.378 . S
C148 H163 0.929 . S
C149 C148 1.362 . S
C149 C150 1.366 . S
C150 C147 1.365 . S
C150 C149 1.366 . S
C150 H164 0.930 . S
C151 C148 1.378 . S
C151 N152 1.315 . S
C151 H154 0.930 . S
N152 Co132 2.194 1_655 S
N152 C147 1.328 . S
N152 C151 1.315 . S
H153 C147 0.929 . S
H154 C151 0.930 . S
H155 C143 0.929 . S
H156 C145 0.929 . S
O157 Co132 2.352 . S
O157 C160 1.248 . S
O158 Co132 2.155 . S
O158 C160 1.240 . S
O159 Co132 2.096 . S
O159 C140 1.247 . S
C160 O157 1.248 . S
C160 O158 1.240 . S
H161 C135 0.931 . S
H162 C144 0.931 . S
H163 C148 0.929 . S
H164 C150 0.930 . S
Co165 N169 2.148 . S
Co165 N175 2.128 1_545 S
Co165 N185 2.194 1_545 S
Co165 O190 2.353 . S
Co165 O191 2.155 . S
Co165 O192 2.096 . S
C166 N169 1.301 . S
C166 N170 1.328 . S
C166 H171 0.930 . S
C167 C168 1.333 . S
C167 N169 1.317 . S
C167 H172 0.930 . S
C168 C167 1.333 . S
C168 N170 1.350 . S
C168 H194 0.931 . S
N169 Co165 2.148 . S
N169 C166 1.301 . S
N169 C167 1.317 . S
N170 C166 1.328 . S
N170 C168 1.350 . S
H171 C166 0.930 . S
H172 C167 0.930 . S
C173 O174 1.224 . S
C173 O192 1.247 . S
O174 C173 1.224 . S
N175 Co165 2.128 1_565 S
N175 C176 1.355 . S
N175 C178 1.311 . S
C176 N175 1.355 . S
C176 C177 1.363 . S
C176 H188 0.929 . S
C177 C176 1.363 . S
C177 N179 1.375 . S
C177 H195 0.931 . S
C178 N175 1.311 . S
C178 N179 1.347 . S
C178 H189 0.929 . S
N179 C177 1.375 . S
N179 C178 1.347 . S
C180 C183 1.365 . S
C180 N185 1.328 . S
C180 H186 0.929 . S
C181 C182 1.362 . S
C181 C184 1.378 . S
C181 H196 0.929 . S
C182 C181 1.362 . S
C182 C183 1.366 . S
C183 C180 1.365 . S
C183 C182 1.366 . S
C183 H197 0.930 . S
C184 C181 1.378 . S
C184 N185 1.315 . S
C184 H187 0.930 . S
N185 Co165 2.194 1_565 S
N185 C180 1.328 . S
N185 C184 1.315 . S
H186 C180 0.929 . S
H187 C184 0.930 . S
H188 C176 0.929 . S
H189 C178 0.929 . S
O190 Co165 2.353 . S
O190 C193 1.252 . S
O191 Co165 2.155 . S
O191 C193 1.240 . S
O192 Co165 2.096 . S
O192 C173 1.247 . S
C193 O190 1.252 . S
C193 O191 1.240 . S
H194 C168 0.931 . S
H195 C177 0.931 . S
H196 C181 0.929 . S
H197 C183 0.930 . S
Co198 N202 2.148 . S
Co198 N208 2.128 . S
Co198 N218 2.194 . S
Co198 O223 2.351 . S
Co198 O224 2.155 . S
Co198 O225 2.096 . S
C199 N202 1.301 . S
C199 N203 1.328 . S
C199 H204 0.930 . S
C200 C201 1.333 . S
C200 N202 1.317 . S
C200 H205 0.930 . S
C201 C200 1.333 . S
C201 N203 1.350 . S
C201 H227 0.931 . S
N202 Co198 2.148 . S
N202 C199 1.301 . S
N202 C200 1.317 . S
N203 C199 1.328 . S
N203 C201 1.350 . S
H204 C199 0.930 . S
H205 C200 0.930 . S
C206 O207 1.224 . S
C206 O225 1.247 . S
O207 C206 1.224 . S
N208 Co198 2.128 . S
N208 C209 1.355 . S
N208 C211 1.311 . S
C209 N208 1.355 . S
C209 C210 1.363 . S
C209 H221 0.929 . S
C210 C209 1.363 . S
C210 N212 1.375 . S
C210 H228 0.931 . S
C211 N208 1.311 . S
C211 N212 1.347 . S
C211 H222 0.929 . S
N212 C210 1.375 . S
N212 C211 1.347 . S
C213 C216 1.365 . S
C213 N218 1.328 . S
C213 H219 0.929 . S
C214 C215 1.362 . S
C214 C217 1.378 . S
C214 H229 0.929 . S
C215 C214 1.362 . S
C215 C216 1.366 . S
C216 C213 1.365 . S
C216 C215 1.366 . S
C216 H230 0.930 . S
C217 C214 1.378 . S
C217 N218 1.315 . S
C217 H220 0.930 . S
N218 Co198 2.194 . S
N218 C213 1.328 . S
N218 C217 1.315 . S
H219 C213 0.929 . S
H220 C217 0.930 . S
H221 C209 0.929 . S
H222 C211 0.929 . S
O223 Co198 2.351 . S
O223 C226 1.244 . S
O224 Co198 2.155 . S
O224 C226 1.240 . S
O225 Co198 2.096 . S
O225 C206 1.247 . S
C226 O223 1.244 . S
C226 O224 1.240 . S
H227 C201 0.931 . S
H228 C210 0.931 . S
H229 C214 0.929 . S
H230 C216 0.930 . S
Co231 N235 2.148 . S
Co231 N241 2.128 . S
Co231 N251 2.194 . S
Co231 O256 2.351 . S
Co231 O257 2.155 . S
Co231 O258 2.096 . S
C232 N235 1.301 . S
C232 N236 1.328 . S
C232 H237 0.930 . S
C233 C234 1.333 . S
C233 N235 1.317 . S
C233 H238 0.930 . S
C234 C233 1.333 . S
C234 N236 1.350 . S
C234 H260 0.931 . S
N235 Co231 2.148 . S
N235 C232 1.301 . S
N235 C233 1.317 . S
N236 C232 1.328 . S
N236 C234 1.350 . S
H237 C232 0.930 . S
H238 C233 0.930 . S
C239 O240 1.224 . S
C239 O258 1.247 . S
O240 C239 1.224 . S
N241 Co231 2.128 . S
N241 C242 1.355 . S
N241 C244 1.311 . S
C242 N241 1.355 . S
C242 C243 1.363 . S
C242 H254 0.929 . S
C243 C242 1.363 . S
C243 N245 1.375 . S
C243 H261 0.931 . S
C244 N241 1.311 . S
C244 N245 1.347 . S
C244 H255 0.929 . S
N245 C243 1.375 . S
N245 C244 1.347 . S
C246 C249 1.365 . S
C246 N251 1.328 . S
C246 H252 0.929 . S
C247 C248 1.362 . S
C247 C250 1.378 . S
C247 H262 0.929 . S
C248 C247 1.362 . S
C248 C249 1.366 . S
C249 C246 1.365 . S
C249 C248 1.366 . S
C249 H263 0.930 . S
C250 C247 1.378 . S
C250 N251 1.315 . S
C250 H253 0.930 . S
N251 Co231 2.194 . S
N251 C246 1.328 . S
N251 C250 1.315 . S
H252 C246 0.929 . S
H253 C250 0.930 . S
H254 C242 0.929 . S
H255 C244 0.929 . S
O256 Co231 2.351 . S
O256 C259 1.244 . S
O257 Co231 2.155 . S
O257 C259 1.240 . S
O258 Co231 2.096 . S
O258 C239 1.247 . S
C259 O256 1.244 . S
C259 O257 1.240 . S
H260 C234 0.931 . S
H261 C243 0.931 . S
H262 C247 0.929 . S
H263 C249 0.930 . S
Co264 N268 2.148 . S
Co264 N274 2.128 1_655 S
Co264 N284 2.194 1_655 S
Co264 O289 2.353 . S
Co264 O290 2.155 . S
Co264 O291 2.096 . S
C265 N268 1.301 . S
C265 N269 1.328 . S
C265 H270 0.930 . S
C266 C267 1.333 . S
C266 N268 1.317 . S
C266 H271 0.930 . S
C267 C266 1.333 . S
C267 N269 1.350 . S
C267 H293 0.931 . S
N268 Co264 2.148 . S
N268 C265 1.301 . S
N268 C266 1.317 . S
N269 C265 1.328 . S
N269 C267 1.350 . S
H270 C265 0.930 . S
H271 C266 0.930 . S
C272 O273 1.224 . S
C272 O291 1.247 . S
O273 C272 1.224 . S
N274 Co264 2.128 1_455 S
N274 C275 1.355 . S
N274 C277 1.311 . S
C275 N274 1.355 . S
C275 C276 1.363 . S
C275 H287 0.929 . S
C276 C275 1.363 . S
C276 N278 1.375 . S
C276 H294 0.931 . S
C277 N274 1.311 . S
C277 N278 1.347 . S
C277 H288 0.929 . S
N278 C276 1.375 . S
N278 C277 1.347 . S
C279 C282 1.365 . S
C279 N284 1.328 . S
C279 H285 0.929 . S
C280 C281 1.362 . S
C280 C283 1.378 . S
C280 H295 0.929 . S
C281 C280 1.362 . S
C281 C282 1.366 . S
C282 C279 1.365 . S
C282 C281 1.366 . S
C282 H296 0.930 . S
C283 C280 1.378 . S
C283 N284 1.315 . S
C283 H286 0.930 . S
N284 Co264 2.194 1_455 S
N284 C279 1.328 . S
N284 C283 1.315 . S
H285 C279 0.929 . S
H286 C283 0.930 . S
H287 C275 0.929 . S
H288 C277 0.929 . S
O289 Co264 2.353 . S
O289 C292 1.252 . S
O290 Co264 2.155 . S
O290 C292 1.240 . S
O291 Co264 2.096 . S
O291 C272 1.247 . S
C292 O289 1.252 . S
C292 O290 1.240 . S
H293 C267 0.931 . S
H294 C276 0.931 . S
H295 C280 0.929 . S
H296 C282 0.930 . S
Co297 N301 2.148 . S
Co297 N307 2.128 1_565 S
Co297 N317 2.194 1_565 S
Co297 O322 2.352 . S
Co297 O323 2.155 . S
Co297 O324 2.096 . S
C298 N301 1.301 . S
C298 N302 1.328 . S
C298 H303 0.930 . S
C299 C300 1.333 . S
C299 N301 1.317 . S
C299 H304 0.930 . S
C300 C299 1.333 . S
C300 N302 1.350 . S
C300 H326 0.931 . S
N301 Co297 2.148 . S
N301 C298 1.301 . S
N301 C299 1.317 . S
N302 C298 1.328 . S
N302 C300 1.350 . S
H303 C298 0.930 . S
H304 C299 0.930 . S
C305 O306 1.224 . S
C305 O324 1.247 . S
O306 C305 1.224 . S
N307 Co297 2.128 1_545 S
N307 C308 1.355 . S
N307 C310 1.311 . S
C308 N307 1.355 . S
C308 C309 1.363 . S
C308 H320 0.929 . S
C309 C308 1.363 . S
C309 N311 1.375 . S
C309 H327 0.931 . S
C310 N307 1.311 . S
C310 N311 1.347 . S
C310 H321 0.929 . S
N311 C309 1.375 . S
N311 C310 1.347 . S
C312 C315 1.365 . S
C312 N317 1.328 . S
C312 H318 0.929 . S
C313 C314 1.362 . S
C313 C316 1.378 . S
C313 H328 0.929 . S
C314 C313 1.362 . S
C314 C315 1.366 . S
C315 C312 1.365 . S
C315 C314 1.366 . S
C315 H329 0.930 . S
C316 C313 1.378 . S
C316 N317 1.315 . S
C316 H319 0.930 . S
N317 Co297 2.194 1_545 S
N317 C312 1.328 . S
N317 C316 1.315 . S
H318 C312 0.929 . S
H319 C316 0.930 . S
H320 C308 0.929 . S
H321 C310 0.929 . S
O322 Co297 2.352 . S
O322 C325 1.248 . S
O323 Co297 2.155 . S
O323 C325 1.240 . S
O324 Co297 2.096 . S
O324 C305 1.247 . S
C325 O322 1.248 . S
C325 O323 1.240 . S
H326 C300 0.931 . S
H327 C309 0.931 . S
H328 C313 0.929 . S
H329 C315 0.930 . S
Co330 N334 2.148 . S
Co330 N340 2.128 . S
Co330 N350 2.194 . S
Co330 O355 2.351 . S
Co330 O356 2.155 . S
Co330 O357 2.096 . S
C331 N334 1.301 . S
C331 N335 1.328 . S
C331 H336 0.930 . S
C332 C333 1.333 . S
C332 N334 1.317 . S
C332 H337 0.930 . S
C333 C332 1.333 . S
C333 N335 1.350 . S
C333 H359 0.931 . S
N334 Co330 2.148 . S
N334 C331 1.301 . S
N334 C332 1.317 . S
N335 C331 1.328 . S
N335 C333 1.350 . S
H336 C331 0.930 . S
H337 C332 0.930 . S
C338 O339 1.224 . S
C338 O357 1.247 . S
O339 C338 1.224 . S
N340 Co330 2.128 . S
N340 C341 1.355 . S
N340 C343 1.311 . S
C341 N340 1.355 . S
C341 C342 1.363 . S
C341 H353 0.929 . S
C342 C341 1.363 . S
C342 N344 1.375 . S
C342 H360 0.931 . S
C343 N340 1.311 . S
C343 N344 1.347 . S
C343 H354 0.929 . S
N344 C342 1.375 . S
N344 C343 1.347 . S
C345 C348 1.365 . S
C345 N350 1.328 . S
C345 H351 0.929 . S
C346 C347 1.362 . S
C346 C349 1.378 . S
C346 H361 0.929 . S
C347 C346 1.362 . S
C347 C348 1.366 . S
C348 C345 1.365 . S
C348 C347 1.366 . S
C348 H362 0.930 . S
C349 C346 1.378 . S
C349 N350 1.315 . S
C349 H352 0.930 . S
N350 Co330 2.194 . S
N350 C345 1.328 . S
N350 C349 1.315 . S
H351 C345 0.929 . S
H352 C349 0.930 . S
H353 C341 0.929 . S
H354 C343 0.929 . S
O355 Co330 2.351 . S
O355 C358 1.244 . S
O356 Co330 2.155 . S
O356 C358 1.240 . S
O357 Co330 2.096 . S
O357 C338 1.247 . S
C358 O355 1.244 . S
C358 O356 1.240 . S
H359 C333 0.931 . S
H360 C342 0.931 . S
H361 C346 0.929 . S
H362 C348 0.930 . S
Co363 N367 2.148 . S
Co363 N373 2.128 . S
Co363 N383 2.194 . S
Co363 O388 2.351 . S
Co363 O389 2.155 . S
Co363 O390 2.096 . S
C364 N367 1.301 . S
C364 N368 1.328 . S
C364 H369 0.930 . S
C365 C366 1.333 . S
C365 N367 1.317 . S
C365 H370 0.930 . S
C366 C365 1.333 . S
C366 N368 1.350 . S
C366 H392 0.931 . S
N367 Co363 2.148 . S
N367 C364 1.301 . S
N367 C365 1.317 . S
N368 C364 1.328 . S
N368 C366 1.350 . S
H369 C364 0.930 . S
H370 C365 0.930 . S
C371 O372 1.224 . S
C371 O390 1.247 . S
O372 C371 1.224 . S
N373 Co363 2.128 . S
N373 C374 1.355 . S
N373 C376 1.311 . S
C374 N373 1.355 . S
C374 C375 1.363 . S
C374 H386 0.929 . S
C375 C374 1.363 . S
C375 N377 1.375 . S
C375 H393 0.931 . S
C376 N373 1.311 . S
C376 N377 1.347 . S
C376 H387 0.929 . S
N377 C375 1.375 . S
N377 C376 1.347 . S
C378 C381 1.365 . S
C378 N383 1.328 . S
C378 H384 0.929 . S
C379 C380 1.362 . S
C379 C382 1.378 . S
C379 H394 0.929 . S
C380 C379 1.362 . S
C380 C381 1.366 . S
C381 C378 1.365 . S
C381 C380 1.366 . S
C381 H395 0.930 . S
C382 C379 1.378 . S
C382 N383 1.315 . S
C382 H385 0.930 . S
N383 Co363 2.194 . S
N383 C378 1.328 . S
N383 C382 1.315 . S
H384 C378 0.929 . S
H385 C382 0.930 . S
H386 C374 0.929 . S
H387 C376 0.929 . S
O388 Co363 2.351 . S
O388 C391 1.244 . S
O389 Co363 2.155 . S
O389 C391 1.240 . S
O390 Co363 2.096 . S
O390 C371 1.247 . S
C391 O388 1.244 . S
C391 O389 1.240 . S
H392 C366 0.931 . S
H393 C375 0.931 . S
H394 C379 0.929 . S
H395 C381 0.930 . S
Co396 N400 2.148 . S
Co396 N406 2.128 1_655 S
Co396 N416 2.194 1_655 S
Co396 O421 2.352 . S
Co396 O422 2.155 . S
Co396 O423 2.096 . S
C397 N400 1.301 . S
C397 N401 1.328 . S
C397 H402 0.930 . S
C398 C399 1.333 . S
C398 N400 1.317 . S
C398 H403 0.930 . S
C399 C398 1.333 . S
C399 N401 1.350 . S
C399 H425 0.931 . S
N400 Co396 2.148 . S
N400 C397 1.301 . S
N400 C398 1.317 . S
N401 C397 1.328 . S
N401 C399 1.350 . S
H402 C397 0.930 . S
H403 C398 0.930 . S
C404 O405 1.224 . S
C404 O423 1.247 . S
O405 C404 1.224 . S
N406 Co396 2.128 1_455 S
N406 C407 1.355 . S
N406 C409 1.311 . S
C407 N406 1.355 . S
C407 C408 1.363 . S
C407 H419 0.929 . S
C408 C407 1.363 . S
C408 N410 1.375 . S
C408 H426 0.931 . S
C409 N406 1.311 . S
C409 N410 1.347 . S
C409 H420 0.929 . S
N410 C408 1.375 . S
N410 C409 1.347 . S
C411 C414 1.365 . S
C411 N416 1.328 . S
C411 H417 0.929 . S
C412 C413 1.362 . S
C412 C415 1.378 . S
C412 H427 0.929 . S
C413 C412 1.362 . S
C413 C414 1.366 . S
C414 C411 1.365 . S
C414 C413 1.366 . S
C414 H428 0.930 . S
C415 C412 1.378 . S
C415 N416 1.315 . S
C415 H418 0.930 . S
N416 Co396 2.194 1_455 S
N416 C411 1.328 . S
N416 C415 1.315 . S
H417 C411 0.929 . S
H418 C415 0.930 . S
H419 C407 0.929 . S
H420 C409 0.929 . S
O421 Co396 2.352 . S
O421 C424 1.248 . S
O422 Co396 2.155 . S
O422 C424 1.240 . S
O423 Co396 2.096 . S
O423 C404 1.247 . S
C424 O421 1.248 . S
C424 O422 1.240 . S
H425 C399 0.931 . S
H426 C408 0.931 . S
H427 C412 0.929 . S
H428 C414 0.930 . S
Co429 N433 2.148 . S
Co429 N439 2.128 1_565 S
Co429 N449 2.194 1_565 S
Co429 O454 2.353 . S
Co429 O455 2.155 . S
Co429 O456 2.096 . S
C430 N433 1.301 . S
C430 N434 1.328 . S
C430 H435 0.930 . S
C431 C432 1.333 . S
C431 N433 1.317 . S
C431 H436 0.930 . S
C432 C431 1.333 . S
C432 N434 1.350 . S
C432 H458 0.931 . S
N433 Co429 2.148 . S
N433 C430 1.301 . S
N433 C431 1.317 . S
N434 C430 1.328 . S
N434 C432 1.350 . S
H435 C430 0.930 . S
H436 C431 0.930 . S
C437 O438 1.224 . S
C437 O456 1.247 . S
O438 C437 1.224 . S
N439 Co429 2.128 1_545 S
N439 C440 1.355 . S
N439 C442 1.311 . S
C440 N439 1.355 . S
C440 C441 1.363 . S
C440 H452 0.929 . S
C441 C440 1.363 . S
C441 N443 1.375 . S
C441 H459 0.931 . S
C442 N439 1.311 . S
C442 N443 1.347 . S
C442 H453 0.929 . S
N443 C441 1.375 . S
N443 C442 1.347 . S
C444 C447 1.365 . S
C444 N449 1.328 . S
C444 H450 0.929 . S
C445 C446 1.362 . S
C445 C448 1.378 . S
C445 H460 0.929 . S
C446 C445 1.362 . S
C446 C447 1.366 . S
C447 C444 1.365 . S
C447 C446 1.366 . S
C447 H461 0.930 . S
C448 C445 1.378 . S
C448 N449 1.315 . S
C448 H451 0.930 . S
N449 Co429 2.194 1_545 S
N449 C444 1.328 . S
N449 C448 1.315 . S
H450 C444 0.929 . S
H451 C448 0.930 . S
H452 C440 0.929 . S
H453 C442 0.929 . S
O454 Co429 2.353 . S
O454 C457 1.252 . S
O455 Co429 2.155 . S
O455 C457 1.240 . S
O456 Co429 2.096 . S
O456 C437 1.247 . S
C457 O454 1.252 . S
C457 O455 1.240 . S
H458 C432 0.931 . S
H459 C441 0.931 . S
H460 C445 0.929 . S
H461 C447 0.930 . S
Co462 N466 2.148 . S
Co462 N472 2.128 . S
Co462 N482 2.194 . S
Co462 O487 2.351 . S
Co462 O488 2.155 . S
Co462 O489 2.096 . S
C463 N466 1.301 . S
C463 N467 1.328 . S
C463 H468 0.930 . S
C464 C465 1.333 . S
C464 N466 1.317 . S
C464 H469 0.930 . S
C465 C464 1.333 . S
C465 N467 1.350 . S
C465 H491 0.931 . S
N466 Co462 2.148 . S
N466 C463 1.301 . S
N466 C464 1.317 . S
N467 C463 1.328 . S
N467 C465 1.350 . S
H468 C463 0.930 . S
H469 C464 0.930 . S
C470 O471 1.224 . S
C470 O489 1.247 . S
O471 C470 1.224 . S
N472 Co462 2.128 . S
N472 C473 1.355 . S
N472 C475 1.311 . S
C473 N472 1.355 . S
C473 C474 1.363 . S
C473 H485 0.929 . S
C474 C473 1.363 . S
C474 N476 1.375 . S
C474 H492 0.931 . S
C475 N472 1.311 . S
C475 N476 1.347 . S
C475 H486 0.929 . S
N476 C474 1.375 . S
N476 C475 1.347 . S
C477 C480 1.365 . S
C477 N482 1.328 . S
C477 H483 0.929 . S
C478 C479 1.362 . S
C478 C481 1.378 . S
C478 H493 0.929 . S
C479 C478 1.362 . S
C479 C480 1.366 . S
C480 C477 1.365 . S
C480 C479 1.366 . S
C480 H494 0.930 . S
C481 C478 1.378 . S
C481 N482 1.315 . S
C481 H484 0.930 . S
N482 Co462 2.194 . S
N482 C477 1.328 . S
N482 C481 1.315 . S
H483 C477 0.929 . S
H484 C481 0.930 . S
H485 C473 0.929 . S
H486 C475 0.929 . S
O487 Co462 2.351 . S
O487 C490 1.244 . S
O488 Co462 2.155 . S
O488 C490 1.240 . S
O489 Co462 2.096 . S
O489 C470 1.247 . S
C490 O487 1.244 . S
C490 O488 1.240 . S
H491 C465 0.931 . S
H492 C474 0.931 . S
H493 C478 0.929 . S
H494 C480 0.930 . S
Co495 N499 2.148 . S
Co495 N505 2.128 . S
Co495 N515 2.194 . S
Co495 O520 2.351 . S
Co495 O521 2.155 . S
Co495 O522 2.096 . S
C496 N499 1.301 . S
C496 N500 1.328 . S
C496 H501 0.930 . S
C497 C498 1.333 . S
C497 N499 1.317 . S
C497 H502 0.930 . S
C498 C497 1.333 . S
C498 N500 1.350 . S
C498 H524 0.931 . S
N499 Co495 2.148 . S
N499 C496 1.301 . S
N499 C497 1.317 . S
N500 C496 1.328 . S
N500 C498 1.350 . S
H501 C496 0.930 . S
H502 C497 0.930 . S
C503 O504 1.224 . S
C503 O522 1.247 . S
O504 C503 1.224 . S
N505 Co495 2.128 . S
N505 C506 1.355 . S
N505 C508 1.311 . S
C506 N505 1.355 . S
C506 C507 1.363 . S
C506 H518 0.929 . S
C507 C506 1.363 . S
C507 N509 1.375 . S
C507 H525 0.931 . S
C508 N505 1.311 . S
C508 N509 1.347 . S
C508 H519 0.929 . S
N509 C507 1.375 . S
N509 C508 1.347 . S
C510 C513 1.365 . S
C510 N515 1.328 . S
C510 H516 0.929 . S
C511 C512 1.362 . S
C511 C514 1.378 . S
C511 H526 0.929 . S
C512 C511 1.362 . S
C512 C513 1.366 . S
C513 C510 1.365 . S
C513 C512 1.366 . S
C513 H527 0.930 . S
C514 C511 1.378 . S
C514 N515 1.315 . S
C514 H517 0.930 . S
N515 Co495 2.194 . S
N515 C510 1.328 . S
N515 C514 1.315 . S
H516 C510 0.929 . S
H517 C514 0.930 . S
H518 C506 0.929 . S
H519 C508 0.929 . S
O520 Co495 2.351 . S
O520 C523 1.244 . S
O521 Co495 2.155 . S
O521 C523 1.240 . S
O522 Co495 2.096 . S
O522 C503 1.247 . S
C523 O520 1.244 . S
C523 O521 1.240 . S
H524 C498 0.931 . S
H525 C507 0.931 . S
H526 C511 0.929 . S
H527 C513 0.930 . S
C528 C529 1.349 . S
C528 C530 1.327 . S
C528 H553 0.950 . S
C529 C528 1.349 . S
C529 C545 1.349 1_455 S
C530 C528 1.327 . S
C530 C549 1.429 . S
C530 H554 0.950 . S
C531 C548 1.574 . S
C531 C550 1.368 . S
C531 H555 0.949 . S
H532 C536 0.949 . S
C533 C534 1.349 . S
C533 C535 1.327 . S
C533 H556 0.950 . S
C534 C533 1.349 . S
C534 C546 1.349 . S
C535 C533 1.327 . S
C535 C551 1.429 . S
C535 H557 0.950 . S
C536 H532 0.949 . S
C536 C544 1.574 . S
C536 C552 1.368 . S
H537 C545 0.950 . S
H538 C543 0.950 1_655 S
H539 C544 0.949 . S
H540 C546 0.950 1_565 S
H541 C547 0.950 . S
H542 C548 0.949 . S
C543 H538 0.950 1_455 S
C543 C545 1.327 1_455 S
C543 C549 1.429 . S
C544 C536 1.574 . S
C544 H539 0.949 . S
C544 C550 1.368 . S
C545 C529 1.349 1_655 S
C545 H537 0.950 . S
C545 C543 1.327 1_655 S
C546 C534 1.349 . S
C546 H540 0.950 1_545 S
C546 C547 1.327 . S
C547 H541 0.950 . S
C547 C546 1.327 . S
C547 C551 1.429 . S
C548 C531 1.574 . S
C548 H542 0.949 . S
C548 C552 1.368 . S
C549 C530 1.429 . S
C549 C543 1.429 . S
C549 C550 1.523 . S
C550 C531 1.368 . S
C550 C544 1.368 . S
C550 C549 1.523 . S
C551 C535 1.429 . S
C551 C547 1.429 . S
C551 C552 1.523 . S
C552 C536 1.368 . S
C552 C548 1.368 . S
C552 C551 1.523 . S
H553 C528 0.950 . S
H554 C530 0.950 . S
H555 C531 0.949 . S
H556 C533 0.950 . S
H557 C535 0.950 . S
C558 C559 1.349 . S
C558 C560 1.327 . S
C558 H583 0.950 . S
C559 C558 1.349 . S
C559 C575 1.349 . S
C560 C558 1.327 . S
C560 C579 1.429 . S
C560 H584 0.950 . S
C561 C578 1.574 . S
C561 C580 1.368 . S
C561 H585 0.949 . S
H562 C566 0.949 . S
C563 C564 1.349 . S
C563 C565 1.327 . S
C563 H586 0.950 . S
C564 C563 1.349 . S
C564 C576 1.349 . S
C565 C563 1.327 . S
C565 C581 1.429 . S
C565 H587 0.950 . S
C566 H562 0.949 . S
C566 C574 1.574 . S
C566 C582 1.368 . S
H567 C575 0.950 1_565 S
H568 C573 0.950 . S
H569 C574 0.949 . S
H570 C576 0.950 . S
H571 C577 0.950 . S
H572 C578 0.949 . S
C573 H568 0.950 . S
C573 C575 1.327 . S
C573 C579 1.429 . S
C574 C566 1.574 . S
C574 H569 0.949 . S
C574 C580 1.368 . S
C575 C559 1.349 . S
C575 H567 0.950 1_545 S
C575 C573 1.327 . S
C576 C564 1.349 . S
C576 H570 0.950 . S
C576 C577 1.327 . S
C577 H571 0.950 . S
C577 C576 1.327 . S
C577 C581 1.429 . S
C578 C561 1.574 . S
C578 H572 0.949 . S
C578 C582 1.368 . S
C579 C560 1.429 . S
C579 C573 1.429 . S
C579 C580 1.523 . S
C580 C561 1.368 . S
C580 C574 1.368 . S
C580 C579 1.523 . S
C581 C565 1.429 . S
C581 C577 1.429 . S
C581 C582 1.523 . S
C582 C566 1.368 . S
C582 C578 1.368 . S
C582 C581 1.523 . S
H583 C558 0.950 . S
H584 C560 0.950 . S
H585 C561 0.949 . S
H586 C563 0.950 . S
H587 C565 0.950 . S
C588 C589 1.349 . S
C588 C590 1.327 . S
C588 H613 0.950 . S
C589 C588 1.349 . S
C589 C605 1.349 . S
C590 C588 1.327 . S
C590 C609 1.429 . S
C590 H614 0.950 . S
C591 C608 1.574 . S
C591 C610 1.368 . S
C591 H615 0.949 . S
H592 C596 0.949 . S
C593 C594 1.349 . S
C593 C595 1.327 . S
C593 H616 0.950 . S
C594 C593 1.349 . S
C594 C606 1.349 . S
C595 C593 1.327 . S
C595 C611 1.429 . S
C595 H617 0.950 . S
C596 H592 0.949 . S
C596 C604 1.574 . S
C596 C612 1.368 . S
H597 C605 0.950 . S
H598 C603 0.950 . S
H599 C604 0.949 . S
H600 C606 0.950 . S
H601 C607 0.950 . S
H602 C608 0.949 . S
C603 H598 0.950 . S
C603 C605 1.327 . S
C603 C609 1.429 . S
C604 C596 1.574 . S
C604 H599 0.949 . S
C604 C610 1.368 . S
C605 C589 1.349 . S
C605 H597 0.950 . S
C605 C603 1.327 . S
C606 C594 1.349 . S
C606 H600 0.950 . S
C606 C607 1.327 . S
C607 H601 0.950 . S
C607 C606 1.327 . S
C607 C611 1.429 . S
C608 C591 1.574 . S
C608 H602 0.949 . S
C608 C612 1.368 . S
C609 C590 1.429 . S
C609 C603 1.429 . S
C609 C610 1.523 . S
C610 C591 1.368 . S
C610 C604 1.368 . S
C610 C609 1.523 . S
C611 C595 1.429 . S
C611 C607 1.429 . S
C611 C612 1.523 . S
C612 C596 1.368 . S
C612 C608 1.368 . S
C612 C611 1.523 . S
H613 C588 0.950 . S
H614 C590 0.950 . S
H615 C591 0.949 . S
H616 C593 0.950 . S
H617 C595 0.950 . S
C618 C619 1.349 . S
C618 C620 1.327 . S
C618 H643 0.950 . S
C619 C618 1.349 . S
C619 C635 1.349 1_455 S
C620 C618 1.327 . S
C620 C639 1.429 . S
C620 H644 0.950 . S
C621 C638 1.574 . S
C621 C640 1.368 . S
C621 H645 0.949 . S
H622 C626 0.949 . S
C623 C624 1.349 . S
C623 C625 1.327 . S
C623 H646 0.950 . S
C624 C623 1.349 . S
C624 C636 1.349 . S
C625 C623 1.327 . S
C625 C641 1.429 . S
C625 H647 0.950 . S
C626 H622 0.949 . S
C626 C634 1.574 . S
C626 C642 1.368 . S
H627 C635 0.950 . S
H628 C633 0.950 1_655 S
H629 C634 0.949 . S
H630 C636 0.950 . S
H631 C637 0.950 . S
H632 C638 0.949 . S
C633 H628 0.950 1_455 S
C633 C635 1.327 1_455 S
C633 C639 1.429 . S
C634 C626 1.574 . S
C634 H629 0.949 . S
C634 C640 1.368 . S
C635 C619 1.349 1_655 S
C635 H627 0.950 . S
C635 C633 1.327 1_655 S
C636 C624 1.349 . S
C636 H630 0.950 . S
C636 C637 1.327 . S
C637 H631 0.950 . S
C637 C636 1.327 . S
C637 C641 1.429 . S
C638 C621 1.574 . S
C638 H632 0.949 . S
C638 C642 1.368 . S
C639 C620 1.429 . S
C639 C633 1.429 . S
C639 C640 1.523 . S
C640 C621 1.368 . S
C640 C634 1.368 . S
C640 C639 1.523 . S
C641 C625 1.429 . S
C641 C637 1.429 . S
C641 C642 1.523 . S
C642 C626 1.368 . S
C642 C638 1.368 . S
C642 C641 1.523 . S
H643 C618 0.950 . S
H644 C620 0.950 . S
H645 C621 0.949 . S
H646 C623 0.950 . S
H647 C625 0.950 . S
C648 C649 1.349 1_455 S
C648 C650 1.327 1_455 S
C648 H673 0.950 . S
C649 C648 1.349 1_655 S
C649 C665 1.349 . S
C650 C648 1.327 1_655 S
C650 C669 1.429 . S
C650 H674 0.939 1_655 S
C651 C668 1.574 . S
C651 C670 1.368 . S
C651 H675 0.949 . S
H652 C656 0.949 . S
C653 C654 1.349 . S
C653 C655 1.327 . S
C653 H676 0.950 . S
C654 C653 1.349 . S
C654 C666 1.349 1_565 S
C655 C653 1.327 . S
C655 C671 1.429 . S
C655 H677 0.950 . S
C656 H652 0.949 . S
C656 C664 1.574 . S
C656 C672 1.368 . S
H657 C665 0.950 . S
H658 C663 0.950 . S
H659 C664 0.949 . S
H660 C666 0.950 . S
H661 C667 0.950 1_545 S
H662 C668 0.949 . S
C663 H658 0.950 . S
C663 C665 1.327 . S
C663 C669 1.429 . S
C664 C656 1.574 . S
C664 H659 0.949 . S
C664 C670 1.368 . S
C665 C649 1.349 . S
C665 H657 0.950 . S
C665 C663 1.327 . S
C666 C654 1.349 1_545 S
C666 H660 0.950 . S
C666 C667 1.327 1_545 S
C667 H661 0.950 1_565 S
C667 C666 1.327 1_565 S
C667 C671 1.429 . S
C668 C651 1.574 . S
C668 H662 0.949 . S
C668 C672 1.368 . S
C669 C650 1.429 . S
C669 C663 1.429 . S
C669 C670 1.523 . S
C670 C651 1.368 . S
C670 C664 1.368 . S
C670 C669 1.523 . S
C671 C655 1.429 . S
C671 C667 1.429 . S
C671 C672 1.523 . S
C672 C656 1.368 . S
C672 C668 1.368 . S
C672 C671 1.523 . S
H673 C648 0.950 . S
H674 C650 0.939 1_455 S
H675 C651 0.949 . S
H676 C653 0.950 . S
H677 C655 0.950 . S
C678 C679 1.349 . S
C678 C680 1.327 . S
C678 H703 0.950 . S
C679 C678 1.349 . S
C679 C695 1.349 1_565 S
C680 C678 1.327 . S
C680 C699 1.429 . S
C680 H704 0.950 . S
C681 C698 1.574 . S
C681 C700 1.368 . S
C681 H705 0.949 . S
H682 C686 0.949 . S
C683 C684 1.349 . S
C683 C685 1.327 . S
C683 H706 0.950 . S
C684 C683 1.349 . S
C684 C696 1.349 . S
C685 C683 1.327 . S
C685 C701 1.429 . S
C685 H707 0.950 . S
C686 H682 0.949 . S
C686 C694 1.574 . S
C686 C702 1.368 . S
H687 C695 0.950 . S
H688 C693 0.950 . S
H689 C694 0.949 . S
H690 C696 0.950 . S
H691 C697 0.950 . S
H692 C698 0.949 . S
C693 H688 0.950 . S
C693 C695 1.327 1_565 S
C693 C699 1.429 . S
C694 C686 1.574 . S
C694 H689 0.949 . S
C694 C700 1.368 . S
C695 C679 1.349 1_545 S
C695 H687 0.950 . S
C695 C693 1.327 1_545 S
C696 C684 1.349 . S
C696 H690 0.950 . S
C696 C697 1.327 . S
C697 H691 0.950 . S
C697 C696 1.327 . S
C697 C701 1.429 . S
C698 C681 1.574 . S
C698 H692 0.949 . S
C698 C702 1.368 . S
C699 C680 1.429 . S
C699 C693 1.429 . S
C699 C700 1.523 . S
C700 C681 1.368 . S
C700 C694 1.368 . S
C700 C699 1.523 . S
C701 C685 1.429 . S
C701 C697 1.429 . S
C701 C702 1.523 . S
C702 C686 1.368 . S
C702 C698 1.368 . S
C702 C701 1.523 . S
H703 C678 0.950 . S
H704 C680 0.950 . S
H705 C681 0.949 . S
H706 C683 0.950 . S
H707 C685 0.950 . S
C708 C709 1.349 . S
C708 C710 1.327 . S
C708 H733 0.950 . S
C709 C708 1.349 . S
C709 C725 1.349 . S
C710 C708 1.327 . S
C710 C729 1.429 . S
C710 H734 0.950 . S
C711 C728 1.574 . S
C711 C730 1.368 . S
C711 H735 0.949 . S
H712 C716 0.949 . S
C713 C714 1.349 . S
C713 C715 1.327 . S
C713 H736 0.950 . S
C714 C713 1.349 . S
C714 C726 1.349 . S
C715 C713 1.327 . S
C715 C731 1.429 . S
C715 H737 0.950 . S
C716 H712 0.949 . S
C716 C724 1.574 . S
C716 C732 1.368 . S
H717 C725 0.950 . S
H718 C723 0.950 . S
H719 C724 0.949 . S
H720 C726 0.950 . S
H721 C727 0.950 . S
H722 C728 0.949 . S
C723 H718 0.950 . S
C723 C725 1.327 . S
C723 C729 1.429 . S
C724 C716 1.574 . S
C724 H719 0.949 . S
C724 C730 1.368 . S
C725 C709 1.349 . S
C725 H717 0.950 . S
C725 C723 1.327 . S
C726 C714 1.349 . S
C726 H720 0.950 . S
C726 C727 1.327 . S
C727 H721 0.950 . S
C727 C726 1.327 . S
C727 C731 1.429 . S
C728 C711 1.574 . S
C728 H722 0.949 . S
C728 C732 1.368 . S
C729 C710 1.429 . S
C729 C723 1.429 . S
C729 C730 1.523 . S
C730 C711 1.368 . S
C730 C724 1.368 . S
C730 C729 1.523 . S
C731 C715 1.429 . S
C731 C727 1.429 . S
C731 C732 1.523 . S
C732 C716 1.368 . S
C732 C728 1.368 . S
C732 C731 1.523 . S
H733 C708 0.950 . S
H734 C710 0.950 . S
H735 C711 0.949 . S
H736 C713 0.950 . S
H737 C715 0.950 . S
C738 C739 1.349 . S
C738 C740 1.327 . S
C738 H763 0.950 . S
C739 C738 1.349 . S
C739 C755 1.349 . S
C740 C738 1.327 . S
C740 C759 1.429 . S
C740 H764 0.950 . S
C741 C758 1.574 . S
C741 C760 1.368 . S
C741 H765 0.949 . S
H742 C746 0.949 . S
C743 C744 1.349 1_455 S
C743 C745 1.325 1_455 S
C743 H766 0.950 . S
C744 C743 1.349 1_655 S
C744 C756 1.349 . S
C745 C743 1.325 1_655 S
C745 C761 1.433 . S
C745 H767 0.947 1_655 S
C746 H742 0.949 . S
C746 C754 1.574 . S
C746 C762 1.368 . S
H747 C755 0.950 . S
H748 C753 0.950 . S
H749 C754 0.949 . S
H750 C756 0.950 . S
H751 C757 0.950 . S
H752 C758 0.949 . S
C753 H748 0.950 . S
C753 C755 1.327 . S
C753 C759 1.429 . S
C754 C746 1.574 . S
C754 H749 0.949 . S
C754 C760 1.368 . S
C755 C739 1.349 . S
C755 H747 0.950 . S
C755 C753 1.327 . S
C756 C744 1.349 . S
C756 H750 0.950 . S
C756 C757 1.327 . S
C757 H751 0.950 . S
C757 C756 1.327 . S
C757 C761 1.429 . S
C758 C741 1.574 . S
C758 H752 0.949 . S
C758 C762 1.368 . S
C759 C740 1.429 . S
C759 C753 1.429 . S
C759 C760 1.523 . S
C760 C741 1.368 . S
C760 C754 1.368 . S
C760 C759 1.523 . S
C761 C745 1.433 . S
C761 C757 1.429 . S
C761 C762 1.523 . S
C762 C746 1.368 . S
C762 C758 1.368 . S
C762 C761 1.523 . S
H763 C738 0.950 . S
H764 C740 0.950 . S
H765 C741 0.949 . S
H766 C743 0.950 . S
H767 C745 0.947 1_455 S
C768 C769 1.349 . S
C768 C770 1.327 . S
C768 H793 0.950 . S
C769 C768 1.349 . S
C769 C785 1.349 . S
C770 C768 1.327 . S
C770 C789 1.429 . S
C770 H794 0.950 1_455 S
C771 C788 1.574 . S
C771 C790 1.368 . S
C771 H795 0.949 . S
H772 C776 0.949 . S
C773 C774 1.349 . S
C773 C775 1.327 . S
C773 H796 0.950 . S
C774 C773 1.349 . S
C774 C786 1.349 . S
C775 C773 1.327 . S
C775 C791 1.429 . S
C775 H797 0.950 1_655 S
C776 H772 0.949 . S
C776 C784 1.574 . S
C776 C792 1.368 . S
H777 C785 0.950 . S
H778 C783 0.950 . S
H779 C784 0.949 1_565 S
H780 C786 0.950 . S
H781 C787 0.950 . S
H782 C788 0.949 1_545 S
C783 H778 0.950 . S
C783 C785 1.327 . S
C783 C789 1.429 . S
C784 C776 1.574 . S
C784 H779 0.949 1_545 S
C784 C790 1.368 1_645 S
C785 C769 1.349 . S
C785 H777 0.950 . S
C785 C783 1.327 . S
C786 C774 1.349 . S
C786 H780 0.950 . S
C786 C787 1.327 . S
C787 H781 0.950 . S
C787 C786 1.327 . S
C787 C791 1.429 . S
C788 C771 1.574 . S
C788 H782 0.949 1_565 S
C788 C792 1.368 1_465 S
C789 C770 1.429 . S
C789 C783 1.429 . S
C789 C790 1.523 . S
C790 C771 1.368 . S
C790 C784 1.368 1_465 S
C790 C789 1.523 . S
C791 C775 1.429 . S
C791 C787 1.429 . S
C791 C792 1.523 . S
C792 C776 1.368 . S
C792 C788 1.368 1_645 S
C792 C791 1.523 . S
H793 C768 0.950 . S
H794 C770 0.950 1_655 S
H795 C771 0.949 . S
H796 C773 0.950 . S
H797 C775 0.950 1_455 S
C798 C799 1.349 . S
C798 C800 1.327 . S
C798 H823 0.950 . S
C799 C798 1.349 . S
C799 C815 1.349 . S
C800 C798 1.327 . S
C800 C819 1.429 . S
C800 H824 0.950 . S
C801 C818 1.574 . S
C801 C820 1.368 1_565 S
C801 H825 0.949 . S
H802 C806 0.949 . S
C803 C804 1.349 . S
C803 C805 1.327 . S
C803 H826 0.950 . S
C804 C803 1.349 . S
C804 C816 1.349 . S
C805 C803 1.327 . S
C805 C821 1.429 . S
C805 H827 0.950 . S
C806 H802 0.949 . S
C806 C814 1.574 . S
C806 C822 1.368 1_545 S
H807 C815 0.950 . S
H808 C813 0.950 1_565 S
H809 C814 0.949 . S
H810 C816 0.950 . S
H811 C817 0.950 1_545 S
H812 C818 0.949 . S
C813 H808 0.950 1_545 S
C813 C815 1.327 . S
C813 C819 1.429 . S
C814 C806 1.574 . S
C814 H809 0.949 . S
C814 C820 1.368 . S
C815 C799 1.349 . S
C815 H807 0.950 . S
C815 C813 1.327 . S
C816 C804 1.349 . S
C816 H810 0.950 . S
C816 C817 1.327 . S
C817 H811 0.950 1_565 S
C817 C816 1.327 . S
C817 C821 1.429 . S
C818 C801 1.574 . S
C818 H812 0.949 . S
C818 C822 1.368 . S
C819 C800 1.429 . S
C819 C813 1.429 . S
C819 C820 1.523 . S
C820 C801 1.368 1_545 S
C820 C814 1.368 . S
C820 C819 1.523 . S
C821 C805 1.429 . S
C821 C817 1.429 . S
C821 C822 1.523 . S
C822 C806 1.368 1_565 S
C822 C818 1.368 . S
C822 C821 1.523 . S
H823 C798 0.950 . S
H824 C800 0.950 . S
H825 C801 0.949 . S
H826 C803 0.950 . S
H827 C805 0.950 . S
C828 C829 1.349 . S
C828 C830 1.327 . S
C828 H853 0.950 . S
C829 C828 1.349 . S
C829 C845 1.349 . S
C830 C828 1.327 . S
C830 C849 1.429 . S
C830 H854 0.950 . S
C831 C848 1.574 . S
C831 C850 1.368 . S
C831 H855 0.949 . S
H832 C836 0.949 . S
C833 C834 1.349 . S
C833 C835 1.327 . S
C833 H856 0.950 . S
C834 C833 1.349 . S
C834 C846 1.349 . S
C835 C833 1.327 . S
C835 C851 1.429 . S
C835 H857 0.950 . S
C836 H832 0.949 . S
C836 C844 1.574 . S
C836 C852 1.368 . S
H837 C845 0.950 . S
H838 C843 0.950 . S
H839 C844 0.949 . S
H840 C846 0.950 . S
H841 C847 0.950 . S
H842 C848 0.949 . S
C843 H838 0.950 . S
C843 C845 1.327 . S
C843 C849 1.429 . S
C844 C836 1.574 . S
C844 H839 0.949 . S
C844 C850 1.368 . S
C845 C829 1.349 . S
C845 H837 0.950 . S
C845 C843 1.327 . S
C846 C834 1.349 . S
C846 H840 0.950 . S
C846 C847 1.327 . S
C847 H841 0.950 . S
C847 C846 1.327 . S
C847 C851 1.429 . S
C848 C831 1.574 . S
C848 H842 0.949 . S
C848 C852 1.368 . S
C849 C830 1.429 . S
C849 C843 1.429 . S
C849 C850 1.523 . S
C850 C831 1.368 . S
C850 C844 1.368 . S
C850 C849 1.523 . S
C851 C835 1.429 . S
C851 C847 1.429 . S
C851 C852 1.523 . S
C852 C836 1.368 . S
C852 C848 1.368 . S
C852 C851 1.523 . S
H853 C828 0.950 . S
H854 C830 0.950 . S
H855 C831 0.949 . S
H856 C833 0.950 . S
H857 C835 0.950 . S
C858 C859 1.349 . S
C858 C860 1.327 . S
C858 H883 0.950 . S
C859 C858 1.349 . S
C859 C875 1.349 . S
C860 C858 1.327 . S
C860 C879 1.429 . S
C860 H884 0.950 . S
C861 C878 1.574 . S
C861 C880 1.368 1_455 S
C861 H885 0.949 . S
H862 C866 0.949 . S
C863 C864 1.349 . S
C863 C865 1.327 . S
C863 H886 0.950 . S
C864 C863 1.349 . S
C864 C876 1.349 . S
C865 C863 1.327 . S
C865 C881 1.429 . S
C865 H887 0.950 . S
C866 H862 0.949 . S
C866 C874 1.574 . S
C866 C882 1.368 1_655 S
H867 C875 0.950 . S
H868 C873 0.950 . S
H869 C874 0.949 . S
H870 C876 0.950 . S
H871 C877 0.950 . S
H872 C878 0.949 . S
C873 H868 0.950 . S
C873 C875 1.327 . S
C873 C879 1.429 . S
C874 C866 1.574 . S
C874 H869 0.949 . S
C874 C880 1.368 . S
C875 C859 1.349 . S
C875 H867 0.950 . S
C875 C873 1.327 . S
C876 C864 1.349 . S
C876 H870 0.950 . S
C876 C877 1.327 . S
C877 H871 0.950 . S
C877 C876 1.327 . S
C877 C881 1.429 . S
C878 C861 1.574 . S
C878 H872 0.949 . S
C878 C882 1.368 . S
C879 C860 1.429 . S
C879 C873 1.429 . S
C879 C880 1.523 . S
C880 C861 1.368 1_655 S
C880 C874 1.368 . S
C880 C879 1.523 . S
C881 C865 1.429 . S
C881 C877 1.429 . S
C881 C882 1.523 . S
C882 C866 1.368 1_455 S
C882 C878 1.368 . S
C882 C881 1.523 . S
H883 C858 0.950 . S
H884 C860 0.950 . S
H885 C861 0.949 . S
H886 C863 0.950 . S
H887 C865 0.950 . S
C888 C889 1.349 . S
C888 C890 1.327 . S
C888 H913 0.950 . S
C889 C888 1.349 . S
C889 C905 1.349 . S
C890 C888 1.327 . S
C890 C909 1.429 . S
C890 H914 0.950 . S
C891 C908 1.574 . S
C891 C910 1.368 1_454 S
C891 H915 0.949 . S
H892 C896 0.949 . S
C893 C894 1.349 . S
C893 C895 1.327 . S
C893 H916 0.950 . S
C894 C893 1.349 . S
C894 C906 1.349 . S
C895 C893 1.327 . S
C895 C911 1.429 . S
C895 H917 0.950 . S
C896 H892 0.949 . S
C896 C904 1.574 . S
C896 C912 1.368 1_656 S
H897 C905 0.950 . S
H898 C903 0.950 . S
H899 C904 0.949 . S
H900 C906 0.950 . S
H901 C907 0.950 . S
H902 C908 0.949 . S
C903 H898 0.950 . S
C903 C905 1.327 . S
C903 C909 1.429 . S
C904 C896 1.574 . S
C904 H899 0.949 . S
C904 C910 1.368 . S
C905 C889 1.349 . S
C905 H897 0.950 . S
C905 C903 1.327 . S
C906 C894 1.349 . S
C906 H900 0.950 . S
C906 C907 1.327 . S
C907 H901 0.950 . S
C907 C906 1.327 . S
C907 C911 1.429 . S
C908 C891 1.574 . S
C908 H902 0.949 . S
C908 C912 1.368 . S
C909 C890 1.429 . S
C909 C903 1.429 . S
C909 C910 1.523 . S
C910 C891 1.368 1_656 S
C910 C904 1.368 . S
C910 C909 1.523 . S
C911 C895 1.429 . S
C911 C907 1.429 . S
C911 C912 1.523 . S
C912 C896 1.368 1_454 S
C912 C908 1.368 . S
C912 C911 1.523 . S
H913 C888 0.950 . S
H914 C890 0.950 . S
H915 C891 0.949 . S
H916 C893 0.950 . S
H917 C895 0.950 . S
C918 C919 1.349 . S
C918 C920 1.327 . S
C918 H943 0.950 . S
C919 C918 1.349 . S
C919 C935 1.349 . S
C920 C918 1.327 . S
C920 C939 1.429 . S
C920 H944 0.950 . S
C921 C938 1.574 . S
C921 C940 1.368 1_544 S
C921 H945 0.949 . S
H922 C926 0.949 . S
C923 C924 1.349 . S
C923 C925 1.327 . S
C923 H946 0.950 . S
C924 C923 1.349 . S
C924 C936 1.349 . S
C925 C923 1.327 . S
C925 C941 1.429 . S
C925 H947 0.950 . S
C926 H922 0.949 . S
C926 C934 1.574 . S
C926 C942 1.368 1_566 S
H927 C935 0.950 . S
H928 C933 0.950 . S
H929 C934 0.949 . S
H930 C936 0.950 . S
H931 C937 0.950 . S
H932 C938 0.949 . S
C933 H928 0.950 . S
C933 C935 1.327 . S
C933 C939 1.429 . S
C934 C926 1.574 . S
C934 H929 0.949 . S
C934 C940 1.368 1_655 S
C935 C919 1.349 . S
C935 H927 0.950 . S
C935 C933 1.327 . S
C936 C924 1.349 . S
C936 H930 0.950 . S
C936 C937 1.327 . S
C937 H931 0.950 . S
C937 C936 1.327 . S
C937 C941 1.429 . S
C938 C921 1.574 . S
C938 H932 0.949 . S
C938 C942 1.368 1_455 S
C939 C920 1.429 . S
C939 C933 1.429 . S
C939 C940 1.523 . S
C940 C921 1.368 1_566 S
C940 C934 1.368 1_455 S
C940 C939 1.523 . S
C941 C925 1.429 . S
C941 C937 1.429 . S
C941 C942 1.523 . S
C942 C926 1.368 1_544 S
C942 C938 1.368 1_655 S
C942 C941 1.523 . S
H943 C918 0.950 . S
H944 C920 0.950 . S
H945 C921 0.949 . S
H946 C923 0.950 . S
H947 C925 0.950 . S
C948 C949 1.349 . S
C948 C950 1.327 . S
C948 H973 0.950 . S
C949 C948 1.349 . S
C949 C965 1.349 . S
C950 C948 1.327 . S
C950 C969 1.429 . S
C950 H974 0.950 . S
C951 C968 1.595 . S
C951 C970 1.347 1_554 S
C951 H975 0.949 . S
H952 C956 0.949 . S
C953 C954 1.349 . S
C953 C955 1.327 . S
C953 H976 0.950 . S
C954 C953 1.349 . S
C954 C966 1.349 . S
C955 C953 1.327 . S
C955 C971 1.429 . S
C955 H977 0.950 . S
C956 H952 0.949 . S
C956 C964 1.595 . S
C956 C972 1.347 1_556 S
H957 C965 0.950 . S
H958 C963 0.950 . S
H959 C964 0.949 . S
H960 C966 0.950 . S
H961 C967 0.950 . S
H962 C968 0.949 . S
C963 H958 0.950 . S
C963 C965 1.327 . S
C963 C969 1.429 . S
C964 C956 1.595 . S
C964 H959 0.949 . S
C964 C970 1.368 1_565 S
C965 C949 1.349 . S
C965 H957 0.950 . S
C965 C963 1.327 . S
C966 C954 1.349 . S
C966 H960 0.950 . S
C966 C967 1.327 . S
C967 H961 0.950 . S
C967 C966 1.327 . S
C967 C971 1.429 . S
C968 C951 1.595 . S
C968 H962 0.949 . S
C968 C972 1.368 1_545 S
C969 C950 1.429 . S
C969 C963 1.429 . S
C969 C970 1.523 . S
C970 C951 1.347 1_556 S
C970 C964 1.368 1_545 S
C970 C969 1.523 . S
C971 C955 1.429 . S
C971 C967 1.429 . S
C971 C972 1.523 . S
C972 C956 1.347 1_554 S
C972 C968 1.368 1_565 S
C972 C971 1.523 . S
H973 C948 0.950 . S
H974 C950 0.950 . S
H975 C951 0.949 . S
H976 C953 0.950 . S
H977 C955 0.950 . S
C978 C979 1.349 . S
C978 C980 1.327 . S
C978 H1003 0.950 . S
C979 C978 1.349 . S
C979 C995 1.349 . S
C980 C978 1.327 . S
C980 C999 1.429 . S
C980 H1004 0.950 . S
C981 C998 1.574 . S
C981 C1000 1.368 . S
C981 H1005 0.949 . S
H982 C986 0.949 . S
C983 C984 1.349 . S
C983 C985 1.327 . S
C983 H1006 0.950 . S
C984 C983 1.349 . S
C984 C996 1.349 . S
C985 C983 1.327 . S
C985 C1001 1.429 . S
C985 H1007 0.950 . S
C986 H982 0.949 . S
C986 C994 1.574 . S
C986 C1002 1.368 . S
H987 C995 0.950 . S
H988 C993 0.950 . S
H989 C994 0.949 . S
H990 C996 0.950 . S
H991 C997 0.950 . S
H992 C998 0.949 . S
C993 H988 0.950 . S
C993 C995 1.327 . S
C993 C999 1.429 . S
C994 C986 1.574 . S
C994 H989 0.949 . S
C994 C1000 1.368 1_554 S
C995 C979 1.349 . S
C995 H987 0.950 . S
C995 C993 1.327 . S
C996 C984 1.349 . S
C996 H990 0.950 . S
C996 C997 1.327 . S
C997 H991 0.950 . S
C997 C996 1.327 . S
C997 C1001 1.429 . S
C998 C981 1.574 . S
C998 H992 0.949 . S
C998 C1002 1.368 1_556 S
C999 C980 1.429 . S
C999 C993 1.429 . S
C999 C1000 1.523 . S
C1000 C981 1.368 . S
C1000 C994 1.368 1_556 S
C1000 C999 1.523 . S
C1001 C985 1.429 . S
C1001 C997 1.429 . S
C1001 C1002 1.523 . S
C1002 C986 1.368 . S
C1002 C998 1.368 1_554 S
C1002 C1001 1.523 . S
H1003 C978 0.950 . S
H1004 C980 0.950 . S
H1005 C981 0.949 . S
H1006 C983 0.950 . S
H1007 C985 0.950 . S
C1008 C1009 1.349 . S
C1008 C1010 1.327 . S
C1008 H1033 0.950 . S
C1009 C1008 1.349 . S
C1009 C1025 1.349 . S
C1010 C1008 1.327 . S
C1010 C1029 1.429 . S
C1010 H1034 0.950 . S
C1011 C1028 1.574 . S
C1011 C1030 1.368 . S
C1011 H1035 0.949 . S
H1012 C1016 0.949 . S
C1013 C1014 1.349 . S
C1013 C1015 1.327 . S
C1013 H1036 0.950 . S
C1014 C1013 1.349 . S
C1014 C1026 1.349 . S
C1015 C1013 1.327 . S
C1015 C1031 1.429 . S
C1015 H1037 0.950 . S
C1016 H1012 0.949 . S
C1016 C1024 1.574 . S
C1016 C1032 1.368 . S
H1017 C1025 0.950 . S
H1018 C1023 0.950 . S
H1019 C1024 0.949 . S
H1020 C1026 0.950 . S
H1021 C1027 0.950 . S
H1022 C1028 0.949 . S
C1023 H1018 0.950 . S
C1023 C1025 1.327 . S
C1023 C1029 1.429 . S
C1024 C1016 1.574 . S
C1024 H1019 0.949 . S
C1024 C1030 1.368 . S
C1025 C1009 1.349 . S
C1025 H1017 0.950 . S
C1025 C1023 1.327 . S
C1026 C1014 1.349 . S
C1026 H1020 0.950 . S
C1026 C1027 1.327 . S
C1027 H1021 0.950 . S
C1027 C1026 1.327 . S
C1027 C1031 1.429 . S
C1028 C1011 1.574 . S
C1028 H1022 0.949 . S
C1028 C1032 1.368 . S
C1029 C1010 1.429 . S
C1029 C1023 1.429 . S
C1029 C1030 1.523 . S
C1030 C1011 1.368 . S
C1030 C1024 1.368 . S
C1030 C1029 1.523 . S
C1031 C1015 1.429 . S
C1031 C1027 1.429 . S
C1031 C1032 1.523 . S
C1032 C1016 1.368 . S
C1032 C1028 1.368 . S
C1032 C1031 1.523 . S
H1033 C1008 0.950 . S
H1034 C1010 0.950 . S
H1035 C1011 0.949 . S
H1036 C1013 0.950 . S
H1037 C1015 0.950 . S
C1038 C1039 1.349 . S
C1038 C1040 1.327 . S
C1038 H1063 0.950 . S
C1039 C1038 1.349 . S
C1039 C1055 1.349 . S
C1040 C1038 1.327 . S
C1040 C1059 1.429 . S
C1040 H1064 0.950 . S
C1041 C1058 1.574 . S
C1041 C1060 1.368 . S
C1041 H1065 0.949 . S
H1042 C1046 0.949 . S
C1043 C1044 1.349 . S
C1043 C1045 1.327 . S
C1043 H1066 0.950 . S
C1044 C1043 1.349 . S
C1044 C1056 1.349 . S
C1045 C1043 1.327 . S
C1045 C1061 1.429 . S
C1045 H1067 0.950 . S
C1046 H1042 0.949 . S
C1046 C1054 1.574 . S
C1046 C1062 1.368 . S
H1047 C1055 0.950 . S
H1048 C1053 0.950 . S
H1049 C1054 0.949 . S
H1050 C1056 0.950 . S
H1051 C1057 0.950 . S
H1052 C1058 0.949 . S
C1053 H1048 0.950 . S
C1053 C1055 1.327 . S
C1053 C1059 1.429 . S
C1054 C1046 1.574 . S
C1054 H1049 0.949 . S
C1054 C1060 1.368 . S
C1055 C1039 1.349 . S
C1055 H1047 0.950 . S
C1055 C1053 1.327 . S
C1056 C1044 1.349 . S
C1056 H1050 0.950 . S
C1056 C1057 1.327 . S
C1057 H1051 0.950 . S
C1057 C1056 1.327 . S
C1057 C1061 1.429 . S
C1058 C1041 1.574 . S
C1058 H1052 0.949 . S
C1058 C1062 1.368 . S
C1059 C1040 1.429 . S
C1059 C1053 1.429 . S
C1059 C1060 1.523 . S
C1060 C1041 1.368 . S
C1060 C1054 1.368 . S
C1060 C1059 1.523 . S
C1061 C1045 1.429 . S
C1061 C1057 1.429 . S
C1061 C1062 1.523 . S
C1062 C1046 1.368 . S
C1062 C1058 1.368 . S
C1062 C1061 1.523 . S
H1063 C1038 0.950 . S
H1064 C1040 0.950 . S
H1065 C1041 0.949 . S
H1066 C1043 0.950 . S
H1067 C1045 0.950 . S
C1068 C1069 1.349 . S
C1068 C1070 1.327 . S
C1068 H1093 0.950 . S
C1069 C1068 1.349 . S
C1069 C1085 1.349 . S
C1070 C1068 1.327 . S
C1070 C1089 1.429 . S
C1070 H1094 0.950 . S
C1071 C1088 1.574 . S
C1071 C1090 1.368 . S
C1071 H1095 0.949 . S
H1072 C1076 0.949 . S
C1073 C1074 1.349 . S
C1073 C1075 1.327 . S
C1073 H1096 0.950 . S
C1074 C1073 1.349 . S
C1074 C1086 1.349 . S
C1075 C1073 1.327 . S
C1075 C1091 1.429 . S
C1075 H1097 0.950 . S
C1076 H1072 0.949 . S
C1076 C1084 1.574 . S
C1076 C1092 1.368 . S
H1077 C1085 0.950 . S
H1078 C1083 0.950 . S
H1079 C1084 0.949 . S
H1080 C1086 0.950 . S
H1081 C1087 0.950 . S
H1082 C1088 0.949 . S
C1083 H1078 0.950 . S
C1083 C1085 1.327 . S
C1083 C1089 1.429 . S
C1084 C1076 1.574 . S
C1084 H1079 0.949 . S
C1084 C1090 1.368 . S
C1085 C1069 1.349 . S
C1085 H1077 0.950 . S
C1085 C1083 1.327 . S
C1086 C1074 1.349 . S
C1086 H1080 0.950 . S
C1086 C1087 1.327 . S
C1087 H1081 0.950 . S
C1087 C1086 1.327 . S
C1087 C1091 1.429 . S
C1088 C1071 1.574 . S
C1088 H1082 0.949 . S
C1088 C1092 1.368 . S
C1089 C1070 1.429 . S
C1089 C1083 1.429 . S
C1089 C1090 1.523 . S
C1090 C1071 1.368 . S
C1090 C1084 1.368 . S
C1090 C1089 1.523 . S
C1091 C1075 1.429 . S
C1091 C1087 1.429 . S
C1091 C1092 1.523 . S
C1092 C1076 1.368 . S
C1092 C1088 1.368 . S
C1092 C1091 1.523 . S
H1093 C1068 0.950 . S
H1094 C1070 0.950 . S
H1095 C1071 0.949 . S
H1096 C1073 0.950 . S
H1097 C1075 0.950 . S
C1098 C1099 1.349 . S
C1098 C1100 1.327 . S
C1098 H1123 0.950 . S
C1099 C1098 1.349 . S
C1099 C1115 1.349 . S
C1100 C1098 1.327 . S
C1100 C1119 1.429 . S
C1100 H1124 0.950 . S
C1101 C1118 1.574 . S
C1101 C1120 1.368 . S
C1101 H1125 0.949 . S
H1102 C1106 0.949 . S
C1103 C1104 1.349 . S
C1103 C1105 1.327 . S
C1103 H1126 0.950 . S
C1104 C1103 1.349 . S
C1104 C1116 1.349 . S
C1105 C1103 1.327 . S
C1105 C1121 1.429 . S
C1105 H1127 0.950 . S
C1106 H1102 0.949 . S
C1106 C1114 1.574 . S
C1106 C1122 1.368 . S
H1107 C1115 0.950 . S
H1108 C1113 0.950 . S
H1109 C1114 0.949 . S
H1110 C1116 0.950 . S
H1111 C1117 0.950 . S
H1112 C1118 0.949 . S
C1113 H1108 0.950 . S
C1113 C1115 1.327 . S
C1113 C1119 1.429 . S
C1114 C1106 1.574 . S
C1114 H1109 0.949 . S
C1114 C1120 1.368 . S
C1115 C1099 1.349 . S
C1115 H1107 0.950 . S
C1115 C1113 1.327 . S
C1116 C1104 1.349 . S
C1116 H1110 0.950 . S
C1116 C1117 1.327 . S
C1117 H1111 0.950 . S
C1117 C1116 1.327 . S
C1117 C1121 1.429 . S
C1118 C1101 1.574 . S
C1118 H1112 0.949 . S
C1118 C1122 1.368 . S
C1119 C1100 1.429 . S
C1119 C1113 1.429 . S
C1119 C1120 1.523 . S
C1120 C1101 1.368 . S
C1120 C1114 1.368 . S
C1120 C1119 1.523 . S
C1121 C1105 1.429 . S
C1121 C1117 1.429 . S
C1121 C1122 1.523 . S
C1122 C1106 1.368 . S
C1122 C1118 1.368 . S
C1122 C1121 1.523 . S
H1123 C1098 0.950 . S
H1124 C1100 0.950 . S
H1125 C1101 0.949 . S
H1126 C1103 0.950 . S
H1127 C1105 0.950 . S
C1128 C1129 1.349 . S
C1128 C1130 1.327 . S
C1128 H1153 0.950 . S
C1129 C1128 1.349 . S
C1129 C1145 1.349 . S
C1130 C1128 1.327 . S
C1130 C1149 1.429 . S
C1130 H1154 0.950 . S
C1131 C1148 1.574 . S
C1131 C1150 1.368 . S
C1131 H1155 0.949 . S
H1132 C1136 0.949 . S
C1133 C1134 1.349 . S
C1133 C1135 1.327 . S
C1133 H1156 0.950 . S
C1134 C1133 1.349 . S
C1134 C1146 1.349 . S
C1135 C1133 1.327 . S
C1135 C1151 1.429 . S
C1135 H1157 0.950 . S
C1136 H1132 0.949 . S
C1136 C1144 1.574 . S
C1136 C1152 1.368 . S
H1137 C1145 0.950 . S
H1138 C1143 0.950 . S
H1139 C1144 0.949 . S
H1140 C1146 0.950 . S
H1141 C1147 0.950 . S
H1142 C1148 0.949 . S
C1143 H1138 0.950 . S
C1143 C1145 1.327 . S
C1143 C1149 1.429 . S
C1144 C1136 1.574 . S
C1144 H1139 0.949 . S
C1144 C1150 1.368 . S
C1145 C1129 1.349 . S
C1145 H1137 0.950 . S
C1145 C1143 1.327 . S
C1146 C1134 1.349 . S
C1146 H1140 0.950 . S
C1146 C1147 1.327 . S
C1147 H1141 0.950 . S
C1147 C1146 1.327 . S
C1147 C1151 1.429 . S
C1148 C1131 1.574 . S
C1148 H1142 0.949 . S
C1148 C1152 1.368 . S
C1149 C1130 1.429 . S
C1149 C1143 1.429 . S
C1149 C1150 1.523 . S
C1150 C1131 1.368 . S
C1150 C1144 1.368 . S
C1150 C1149 1.523 . S
C1151 C1135 1.429 . S
C1151 C1147 1.429 . S
C1151 C1152 1.523 . S
C1152 C1136 1.368 . S
C1152 C1148 1.368 . S
C1152 C1151 1.523 . S
H1153 C1128 0.950 . S
H1154 C1130 0.950 . S
H1155 C1131 0.949 . S
H1156 C1133 0.950 . S
H1157 C1135 0.950 . S
C1158 C1159 1.349 . S
C1158 C1160 1.327 . S
C1158 H1183 0.950 . S
C1159 C1158 1.349 . S
C1159 C1175 1.349 . S
C1160 C1158 1.327 . S
C1160 C1179 1.429 . S
C1160 H1184 0.950 . S
C1161 C1178 1.574 . S
C1161 C1180 1.368 . S
C1161 H1185 0.949 . S
H1162 C1166 0.949 . S
C1163 C1164 1.349 . S
C1163 C1165 1.327 . S
C1163 H1186 0.950 . S
C1164 C1163 1.349 . S
C1164 C1176 1.349 . S
C1165 C1163 1.327 . S
C1165 C1181 1.429 . S
C1165 H1187 0.950 . S
C1166 H1162 0.949 . S
C1166 C1174 1.574 . S
C1166 C1182 1.368 . S
H1167 C1175 0.950 . S
H1168 C1173 0.950 . S
H1169 C1174 0.949 . S
H1170 C1176 0.950 . S
H1171 C1177 0.950 . S
H1172 C1178 0.949 . S
C1173 H1168 0.950 . S
C1173 C1175 1.327 . S
C1173 C1179 1.429 . S
C1174 C1166 1.574 . S
C1174 H1169 0.949 . S
C1174 C1180 1.368 . S
C1175 C1159 1.349 . S
C1175 H1167 0.950 . S
C1175 C1173 1.327 . S
C1176 C1164 1.349 . S
C1176 H1170 0.950 . S
C1176 C1177 1.327 . S
C1177 H1171 0.950 . S
C1177 C1176 1.327 . S
C1177 C1181 1.429 . S
C1178 C1161 1.574 . S
C1178 H1172 0.949 . S
C1178 C1182 1.368 . S
C1179 C1160 1.429 . S
C1179 C1173 1.429 . S
C1179 C1180 1.523 . S
C1180 C1161 1.368 . S
C1180 C1174 1.368 . S
C1180 C1179 1.523 . S
C1181 C1165 1.429 . S
C1181 C1177 1.429 . S
C1181 C1182 1.523 . S
C1182 C1166 1.368 . S
C1182 C1178 1.368 . S
C1182 C1181 1.523 . S
H1183 C1158 0.950 . S
H1184 C1160 0.950 . S
H1185 C1161 0.949 . S
H1186 C1163 0.950 . S
H1187 C1165 0.950 . S
C1188 C1189 1.349 . S
C1188 C1190 1.327 . S
C1188 H1213 0.950 . S
C1189 C1188 1.349 . S
C1189 C1205 1.349 . S
C1190 C1188 1.327 . S
C1190 C1209 1.429 . S
C1190 H1214 0.950 . S
C1191 C1208 1.574 . S
C1191 C1210 1.368 . S
C1191 H1215 0.949 . S
H1192 C1196 0.949 . S
C1193 C1194 1.349 . S
C1193 C1195 1.327 . S
C1193 H1216 0.950 . S
C1194 C1193 1.349 . S
C1194 C1206 1.349 . S
C1195 C1193 1.327 . S
C1195 C1211 1.429 . S
C1195 H1217 0.950 . S
C1196 H1192 0.949 . S
C1196 C1204 1.574 . S
C1196 C1212 1.368 . S
H1197 C1205 0.950 . S
H1198 C1203 0.950 . S
H1199 C1204 0.949 . S
H1200 C1206 0.950 . S
H1201 C1207 0.950 . S
H1202 C1208 0.949 . S
C1203 H1198 0.950 . S
C1203 C1205 1.327 . S
C1203 C1209 1.429 . S
C1204 C1196 1.574 . S
C1204 H1199 0.949 . S
C1204 C1210 1.368 . S
C1205 C1189 1.349 . S
C1205 H1197 0.950 . S
C1205 C1203 1.327 . S
C1206 C1194 1.349 . S
C1206 H1200 0.950 . S
C1206 C1207 1.327 . S
C1207 H1201 0.950 . S
C1207 C1206 1.327 . S
C1207 C1211 1.429 . S
C1208 C1191 1.574 . S
C1208 H1202 0.949 . S
C1208 C1212 1.368 . S
C1209 C1190 1.429 . S
C1209 C1203 1.429 . S
C1209 C1210 1.523 . S
C1210 C1191 1.368 . S
C1210 C1204 1.368 . S
C1210 C1209 1.523 . S
C1211 C1195 1.429 . S
C1211 C1207 1.429 . S
C1211 C1212 1.523 . S
C1212 C1196 1.368 . S
C1212 C1208 1.368 . S
C1212 C1211 1.523 . S
H1213 C1188 0.950 . S
H1214 C1190 0.950 . S
H1215 C1191 0.949 . S
H1216 C1193 0.950 . S
H1217 C1195 0.950 . S
C1218 C1219 1.349 . S
C1218 C1220 1.327 . S
C1218 H1243 0.950 . S
C1219 C1218 1.349 . S
C1219 C1235 1.349 . S
C1220 C1218 1.327 . S
C1220 C1239 1.429 . S
C1220 H1244 0.950 . S
C1221 C1238 1.574 . S
C1221 C1240 1.368 . S
C1221 H1245 0.949 . S
H1222 C1226 0.949 . S
C1223 C1224 1.349 . S
C1223 C1225 1.327 . S
C1223 H1246 0.950 . S
C1224 C1223 1.349 . S
C1224 C1236 1.349 . S
C1225 C1223 1.327 . S
C1225 C1241 1.429 . S
C1225 H1247 0.950 . S
C1226 H1222 0.949 . S
C1226 C1234 1.574 . S
C1226 C1242 1.368 . S
H1227 C1235 0.950 . S
H1228 C1233 0.950 . S
H1229 C1234 0.949 . S
H1230 C1236 0.950 . S
H1231 C1237 0.950 . S
H1232 C1238 0.949 . S
C1233 H1228 0.950 . S
C1233 C1235 1.327 . S
C1233 C1239 1.429 . S
C1234 C1226 1.574 . S
C1234 H1229 0.949 . S
C1234 C1240 1.368 . S
C1235 C1219 1.349 . S
C1235 H1227 0.950 . S
C1235 C1233 1.327 . S
C1236 C1224 1.349 . S
C1236 H1230 0.950 . S
C1236 C1237 1.327 . S
C1237 H1231 0.950 . S
C1237 C1236 1.327 . S
C1237 C1241 1.429 . S
C1238 C1221 1.574 . S
C1238 H1232 0.949 . S
C1238 C1242 1.368 . S
C1239 C1220 1.429 . S
C1239 C1233 1.429 . S
C1239 C1240 1.523 . S
C1240 C1221 1.368 . S
C1240 C1234 1.368 . S
C1240 C1239 1.523 . S
C1241 C1225 1.429 . S
C1241 C1237 1.429 . S
C1241 C1242 1.523 . S
C1242 C1226 1.368 . S
C1242 C1238 1.368 . S
C1242 C1241 1.523 . S
H1243 C1218 0.950 . S
H1244 C1220 0.950 . S
H1245 C1221 0.949 . S
H1246 C1223 0.950 . S
H1247 C1225 0.950 . S
C1248 C1249 1.349 . S
C1248 C1250 1.327 . S
C1248 H1273 0.950 . S
C1249 C1248 1.349 . S
C1249 C1265 1.349 . S
C1250 C1248 1.327 . S
C1250 C1269 1.429 . S
C1250 H1274 0.950 . S
C1251 C1268 1.574 . S
C1251 C1270 1.368 . S
C1251 H1275 0.949 . S
H1252 C1256 0.949 . S
C1253 C1254 1.349 . S
C1253 C1255 1.327 . S
C1253 H1276 0.950 . S
C1254 C1253 1.349 . S
C1254 C1266 1.349 . S
C1255 C1253 1.327 . S
C1255 C1271 1.429 . S
C1255 H1277 0.950 . S
C1256 H1252 0.949 . S
C1256 C1264 1.574 . S
C1256 C1272 1.368 . S
H1257 C1265 0.950 1_565 S
H1258 C1263 0.950 . S
H1259 C1264 0.949 . S
H1260 C1266 0.950 . S
H1261 C1267 0.950 . S
H1262 C1268 0.949 . S
C1263 H1258 0.950 . S
C1263 C1265 1.327 . S
C1263 C1269 1.429 . S
C1264 C1256 1.574 . S
C1264 H1259 0.949 . S
C1264 C1270 1.368 . S
C1265 C1249 1.349 . S
C1265 H1257 0.950 1_545 S
C1265 C1263 1.327 . S
C1266 C1254 1.349 . S
C1266 H1260 0.950 . S
C1266 C1267 1.327 . S
C1267 H1261 0.950 . S
C1267 C1266 1.327 . S
C1267 C1271 1.429 . S
C1268 C1251 1.574 . S
C1268 H1262 0.949 . S
C1268 C1272 1.368 . S
C1269 C1250 1.429 . S
C1269 C1263 1.429 . S
C1269 C1270 1.523 . S
C1270 C1251 1.368 . S
C1270 C1264 1.368 . S
C1270 C1269 1.523 . S
C1271 C1255 1.429 . S
C1271 C1267 1.429 . S
C1271 C1272 1.523 . S
C1272 C1256 1.368 . S
C1272 C1268 1.368 . S
C1272 C1271 1.523 . S
H1273 C1248 0.950 . S
H1274 C1250 0.950 . S
H1275 C1251 0.949 . S
H1276 C1253 0.950 . S
H1277 C1255 0.950 . S
C1278 C1279 1.349 . S
C1278 C1280 1.327 . S
C1278 H1303 0.950 . S
C1279 C1278 1.349 . S
C1279 C1295 1.349 . S
C1280 C1278 1.327 . S
C1280 C1299 1.429 . S
C1280 H1304 0.950 . S
C1281 C1298 1.574 . S
C1281 C1300 1.368 . S
C1281 H1305 0.949 . S
H1282 C1286 0.949 . S
C1283 C1284 1.349 . S
C1283 C1285 1.327 . S
C1283 H1306 0.950 . S
C1284 C1283 1.349 . S
C1284 C1296 1.349 . S
C1285 C1283 1.327 . S
C1285 C1301 1.429 . S
C1285 H1307 0.950 . S
C1286 H1282 0.949 . S
C1286 C1294 1.574 . S
C1286 C1302 1.368 . S
H1287 C1295 0.950 . S
H1288 C1293 0.950 . S
H1289 C1294 0.949 . S
H1290 C1296 0.950 . S
H1291 C1297 0.950 . S
H1292 C1298 0.949 . S
C1293 H1288 0.950 . S
C1293 C1295 1.327 . S
C1293 C1299 1.429 . S
C1294 C1286 1.574 . S
C1294 H1289 0.949 . S
C1294 C1300 1.368 . S
C1295 C1279 1.349 . S
C1295 H1287 0.950 . S
C1295 C1293 1.327 . S
C1296 C1284 1.349 . S
C1296 H1290 0.950 . S
C1296 C1297 1.327 . S
C1297 H1291 0.950 . S
C1297 C1296 1.327 . S
C1297 C1301 1.429 . S
C1298 C1281 1.574 . S
C1298 H1292 0.949 . S
C1298 C1302 1.368 . S
C1299 C1280 1.429 . S
C1299 C1293 1.429 . S
C1299 C1300 1.523 . S
C1300 C1281 1.368 . S
C1300 C1294 1.368 . S
C1300 C1299 1.523 . S
C1301 C1285 1.429 . S
C1301 C1297 1.429 . S
C1301 C1302 1.523 . S
C1302 C1286 1.368 . S
C1302 C1298 1.368 . S
C1302 C1301 1.523 . S
H1303 C1278 0.950 . S
H1304 C1280 0.950 . S
H1305 C1281 0.949 . S
H1306 C1283 0.950 . S
H1307 C1285 0.950 . S
C1308 C1309 1.349 . S
C1308 C1310 1.327 . S
C1308 H1333 0.950 . S
C1309 C1308 1.349 . S
C1309 C1325 1.349 . S
C1310 C1308 1.327 . S
C1310 C1329 1.429 . S
C1310 H1334 0.950 . S
C1311 C1328 1.574 . S
C1311 C1330 1.368 . S
C1311 H1335 0.949 . S
H1312 C1316 0.949 . S
C1313 C1314 1.349 . S
C1313 C1315 1.327 . S
C1313 H1336 0.950 . S
C1314 C1313 1.349 . S
C1314 C1326 1.349 . S
C1315 C1313 1.327 . S
C1315 C1331 1.429 . S
C1315 H1337 0.950 . S
C1316 H1312 0.949 . S
C1316 C1324 1.574 . S
C1316 C1332 1.368 . S
H1317 C1325 0.950 . S
H1318 C1323 0.950 . S
H1319 C1324 0.949 . S
H1320 C1326 0.950 . S
H1321 C1327 0.950 . S
H1322 C1328 0.949 . S
C1323 H1318 0.950 . S
C1323 C1325 1.327 . S
C1323 C1329 1.429 . S
C1324 C1316 1.574 . S
C1324 H1319 0.949 . S
C1324 C1330 1.368 . S
C1325 C1309 1.349 . S
C1325 H1317 0.950 . S
C1325 C1323 1.327 . S
C1326 C1314 1.349 . S
C1326 H1320 0.950 . S
C1326 C1327 1.327 . S
C1327 H1321 0.950 . S
C1327 C1326 1.327 . S
C1327 C1331 1.429 . S
C1328 C1311 1.574 . S
C1328 H1322 0.949 . S
C1328 C1332 1.368 . S
C1329 C1310 1.429 . S
C1329 C1323 1.429 . S
C1329 C1330 1.523 . S
C1330 C1311 1.368 . S
C1330 C1324 1.368 . S
C1330 C1329 1.523 . S
C1331 C1315 1.429 . S
C1331 C1327 1.429 . S
C1331 C1332 1.523 . S
C1332 C1316 1.368 . S
C1332 C1328 1.368 . S
C1332 C1331 1.523 . S
H1333 C1308 0.950 . S
H1334 C1310 0.950 . S
H1335 C1311 0.949 . S
H1336 C1313 0.950 . S
H1337 C1315 0.950 . S
C1338 C1339 1.349 . S
C1338 C1340 1.327 . S
C1338 H1363 0.950 . S
C1339 C1338 1.349 . S
C1339 C1355 1.349 . S
C1340 C1338 1.327 . S
C1340 C1359 1.429 . S
C1340 H1364 0.950 . S
C1341 C1358 1.574 . S
C1341 C1360 1.368 . S
C1341 H1365 0.949 . S
H1342 C1346 0.949 . S
C1343 C1344 1.349 . S
C1343 C1345 1.327 . S
C1343 H1366 0.950 . S
C1344 C1343 1.349 . S
C1344 C1356 1.349 . S
C1345 C1343 1.327 . S
C1345 C1361 1.429 . S
C1345 H1367 0.950 . S
C1346 H1342 0.949 . S
C1346 C1354 1.574 . S
C1346 C1362 1.368 . S
H1347 C1355 0.950 . S
H1348 C1353 0.950 . S
H1349 C1354 0.949 . S
H1350 C1356 0.950 . S
H1351 C1357 0.950 . S
H1352 C1358 0.949 . S
C1353 H1348 0.950 . S
C1353 C1355 1.327 . S
C1353 C1359 1.429 . S
C1354 C1346 1.574 . S
C1354 H1349 0.949 . S
C1354 C1360 1.368 . S
C1355 C1339 1.349 . S
C1355 H1347 0.950 . S
C1355 C1353 1.327 . S
C1356 C1344 1.349 . S
C1356 H1350 0.950 . S
C1356 C1357 1.327 . S
C1357 H1351 0.950 . S
C1357 C1356 1.327 . S
C1357 C1361 1.429 . S
C1358 C1341 1.574 . S
C1358 H1352 0.949 . S
C1358 C1362 1.368 . S
C1359 C1340 1.429 . S
C1359 C1353 1.429 . S
C1359 C1360 1.523 . S
C1360 C1341 1.368 . S
C1360 C1354 1.368 . S
C1360 C1359 1.523 . S
C1361 C1345 1.429 . S
C1361 C1357 1.429 . S
C1361 C1362 1.523 . S
C1362 C1346 1.368 . S
C1362 C1358 1.368 . S
C1362 C1361 1.523 . S
H1363 C1338 0.950 . S
H1364 C1340 0.950 . S
H1365 C1341 0.949 . S
H1366 C1343 0.950 . S
H1367 C1345 0.950 . S
C1368 C1369 1.349 . S
C1368 C1370 1.327 . S
C1368 H1393 0.950 . S
C1369 C1368 1.349 . S
C1369 C1385 1.349 . S
C1370 C1368 1.327 . S
C1370 C1389 1.429 . S
C1370 H1394 0.950 . S
C1371 C1388 1.574 . S
C1371 C1390 1.368 . S
C1371 H1395 0.949 . S
H1372 C1376 0.949 . S
C1373 C1374 1.349 . S
C1373 C1375 1.327 . S
C1373 H1396 0.950 . S
C1374 C1373 1.349 . S
C1374 C1386 1.349 . S
C1375 C1373 1.327 . S
C1375 C1391 1.429 . S
C1375 H1397 0.950 . S
C1376 H1372 0.949 . S
C1376 C1384 1.574 . S
C1376 C1392 1.368 . S
H1377 C1385 0.950 . S
H1378 C1383 0.950 . S
H1379 C1384 0.949 . S
H1380 C1386 0.950 . S
H1381 C1387 0.950 . S
H1382 C1388 0.949 . S
C1383 H1378 0.950 . S
C1383 C1385 1.327 . S
C1383 C1389 1.429 . S
C1384 C1376 1.574 . S
C1384 H1379 0.949 . S
C1384 C1390 1.368 . S
C1385 C1369 1.349 . S
C1385 H1377 0.950 . S
C1385 C1383 1.327 . S
C1386 C1374 1.349 . S
C1386 H1380 0.950 . S
C1386 C1387 1.327 . S
C1387 H1381 0.950 . S
C1387 C1386 1.327 . S
C1387 C1391 1.429 . S
C1388 C1371 1.574 . S
C1388 H1382 0.949 . S
C1388 C1392 1.368 . S
C1389 C1370 1.429 . S
C1389 C1383 1.429 . S
C1389 C1390 1.523 . S
C1390 C1371 1.368 . S
C1390 C1384 1.368 . S
C1390 C1389 1.523 . S
C1391 C1375 1.429 . S
C1391 C1387 1.429 . S
C1391 C1392 1.523 . S
C1392 C1376 1.368 . S
C1392 C1388 1.368 . S
C1392 C1391 1.523 . S
H1393 C1368 0.950 . S
H1394 C1370 0.950 . S
H1395 C1371 0.949 . S
H1396 C1373 0.950 . S
H1397 C1375 0.950 . S
C1398 C1399 1.349 . S
C1398 C1400 1.327 . S
C1398 H1423 0.950 . S
C1399 C1398 1.349 . S
C1399 C1415 1.349 . S
C1400 C1398 1.327 . S
C1400 C1419 1.429 . S
C1400 H1424 0.950 . S
C1401 C1418 1.574 . S
C1401 C1420 1.368 . S
C1401 H1425 0.949 . S
H1402 C1406 0.949 . S
C1403 C1404 1.349 . S
C1403 C1405 1.327 . S
C1403 H1426 0.950 . S
C1404 C1403 1.349 . S
C1404 C1416 1.349 . S
C1405 C1403 1.327 . S
C1405 C1421 1.429 . S
C1405 H1427 0.950 . S
C1406 H1402 0.949 . S
C1406 C1414 1.574 . S
C1406 C1422 1.368 . S
H1407 C1415 0.950 . S
H1408 C1413 0.950 . S
H1409 C1414 0.949 . S
H1410 C1416 0.950 . S
H1411 C1417 0.950 . S
H1412 C1418 0.949 . S
C1413 H1408 0.950 . S
C1413 C1415 1.327 . S
C1413 C1419 1.429 . S
C1414 C1406 1.574 . S
C1414 H1409 0.949 . S
C1414 C1420 1.368 . S
C1415 C1399 1.349 . S
C1415 H1407 0.950 . S
C1415 C1413 1.327 . S
C1416 C1404 1.349 . S
C1416 H1410 0.950 . S
C1416 C1417 1.327 . S
C1417 H1411 0.950 . S
C1417 C1416 1.327 . S
C1417 C1421 1.429 . S
C1418 C1401 1.574 . S
C1418 H1412 0.949 . S
C1418 C1422 1.368 . S
C1419 C1400 1.429 . S
C1419 C1413 1.429 . S
C1419 C1420 1.523 . S
C1420 C1401 1.368 . S
C1420 C1414 1.368 . S
C1420 C1419 1.523 . S
C1421 C1405 1.429 . S
C1421 C1417 1.429 . S
C1421 C1422 1.523 . S
C1422 C1406 1.368 . S
C1422 C1418 1.368 . S
C1422 C1421 1.523 . S
H1423 C1398 0.950 . S
H1424 C1400 0.950 . S
H1425 C1401 0.949 . S
H1426 C1403 0.950 . S
H1427 C1405 0.950 . S
C1428 C1429 1.349 . S
C1428 C1430 1.327 . S
C1428 H1453 0.950 . S
C1429 C1428 1.349 . S
C1429 C1445 1.349 . S
C1430 C1428 1.327 . S
C1430 C1449 1.429 . S
C1430 H1454 0.950 . S
C1431 C1448 1.574 . S
C1431 C1450 1.368 . S
C1431 H1455 0.949 . S
H1432 C1436 0.949 . S
C1433 C1434 1.349 . S
C1433 C1435 1.327 . S
C1433 H1456 0.950 . S
C1434 C1433 1.349 . S
C1434 C1446 1.349 . S
C1435 C1433 1.327 . S
C1435 C1451 1.429 . S
C1435 H1457 0.950 . S
C1436 H1432 0.949 . S
C1436 C1444 1.574 . S
C1436 C1452 1.368 . S
H1437 C1445 0.950 . S
H1438 C1443 0.950 . S
H1439 C1444 0.949 . S
H1440 C1446 0.950 . S
H1441 C1447 0.950 . S
H1442 C1448 0.949 . S
C1443 H1438 0.950 . S
C1443 C1445 1.327 . S
C1443 C1449 1.429 . S
C1444 C1436 1.574 . S
C1444 H1439 0.949 . S
C1444 C1450 1.368 . S
C1445 C1429 1.349 . S
C1445 H1437 0.950 . S
C1445 C1443 1.327 . S
C1446 C1434 1.349 . S
C1446 H1440 0.950 . S
C1446 C1447 1.327 . S
C1447 H1441 0.950 . S
C1447 C1446 1.327 . S
C1447 C1451 1.429 . S
C1448 C1431 1.574 . S
C1448 H1442 0.949 . S
C1448 C1452 1.368 . S
C1449 C1430 1.429 . S
C1449 C1443 1.429 . S
C1449 C1450 1.523 . S
C1450 C1431 1.368 . S
C1450 C1444 1.368 . S
C1450 C1449 1.523 . S
C1451 C1435 1.429 . S
C1451 C1447 1.429 . S
C1451 C1452 1.523 . S
C1452 C1436 1.368 . S
C1452 C1448 1.368 . S
C1452 C1451 1.523 . S
H1453 C1428 0.950 . S
H1454 C1430 0.950 . S
H1455 C1431 0.949 . S
H1456 C1433 0.950 . S
H1457 C1435 0.950 . S
C1458 C1459 1.349 . S
C1458 C1460 1.327 . S
C1458 H1483 0.950 . S
C1459 C1458 1.349 . S
C1459 C1475 1.349 . S
C1460 C1458 1.327 . S
C1460 C1479 1.429 . S
C1460 H1484 0.950 . S
C1461 C1478 1.574 . S
C1461 C1480 1.368 . S
C1461 H1485 0.949 . S
H1462 C1466 0.949 . S
C1463 C1464 1.349 . S
C1463 C1465 1.327 . S
C1463 H1486 0.950 . S
C1464 C1463 1.349 . S
C1464 C1476 1.349 . S
C1465 C1463 1.327 . S
C1465 C1481 1.429 . S
C1465 H1487 0.950 . S
C1466 H1462 0.949 . S
C1466 C1474 1.574 . S
C1466 C1482 1.368 . S
H1467 C1475 0.950 . S
H1468 C1473 0.950 . S
H1469 C1474 0.949 . S
H1470 C1476 0.950 . S
H1471 C1477 0.950 . S
H1472 C1478 0.949 . S
C1473 H1468 0.950 . S
C1473 C1475 1.327 . S
C1473 C1479 1.429 . S
C1474 C1466 1.574 . S
C1474 H1469 0.949 . S
C1474 C1480 1.368 . S
C1475 C1459 1.349 . S
C1475 H1467 0.950 . S
C1475 C1473 1.327 . S
C1476 C1464 1.349 . S
C1476 H1470 0.950 . S
C1476 C1477 1.327 . S
C1477 H1471 0.950 . S
C1477 C1476 1.327 . S
C1477 C1481 1.429 . S
C1478 C1461 1.574 . S
C1478 H1472 0.949 . S
C1478 C1482 1.368 . S
C1479 C1460 1.429 . S
C1479 C1473 1.429 . S
C1479 C1480 1.523 . S
C1480 C1461 1.368 . S
C1480 C1474 1.368 . S
C1480 C1479 1.523 . S
C1481 C1465 1.429 . S
C1481 C1477 1.429 . S
C1481 C1482 1.523 . S
C1482 C1466 1.368 . S
C1482 C1478 1.368 . S
C1482 C1481 1.523 . S
H1483 C1458 0.950 . S
H1484 C1460 0.950 . S
H1485 C1461 0.949 . S
H1486 C1463 0.950 . S
H1487 C1465 0.950 . S
C1488 C1489 1.349 . S
C1488 C1490 1.327 . S
C1488 H1513 0.950 . S
C1489 C1488 1.349 . S
C1489 C1505 1.349 . S
C1490 C1488 1.327 . S
C1490 C1509 1.429 . S
C1490 H1514 0.950 . S
C1491 C1508 1.574 . S
C1491 C1510 1.368 . S
C1491 H1515 0.949 . S
H1492 C1496 0.949 . S
C1493 C1494 1.349 . S
C1493 C1495 1.327 . S
C1493 H1516 0.950 . S
C1494 C1493 1.349 . S
C1494 C1506 1.349 . S
C1495 C1493 1.327 . S
C1495 C1511 1.429 . S
C1495 H1517 0.950 . S
C1496 H1492 0.949 . S
C1496 C1504 1.574 . S
C1496 C1512 1.368 . S
H1497 C1505 0.950 . S
H1498 C1503 0.950 . S
H1499 C1504 0.949 . S
H1500 C1506 0.950 1_545 S
H1501 C1507 0.950 . S
H1502 C1508 0.949 . S
C1503 H1498 0.950 . S
C1503 C1505 1.327 . S
C1503 C1509 1.429 . S
C1504 C1496 1.574 . S
C1504 H1499 0.949 . S
C1504 C1510 1.368 . S
C1505 C1489 1.349 . S
C1505 H1497 0.950 . S
C1505 C1503 1.327 . S
C1506 C1494 1.349 . S
C1506 H1500 0.950 1_565 S
C1506 C1507 1.327 . S
C1507 H1501 0.950 . S
C1507 C1506 1.327 . S
C1507 C1511 1.429 . S
C1508 C1491 1.574 . S
C1508 H1502 0.949 . S
C1508 C1512 1.368 . S
C1509 C1490 1.429 . S
C1509 C1503 1.429 . S
C1509 C1510 1.523 . S
C1510 C1491 1.368 . S
C1510 C1504 1.368 . S
C1510 C1509 1.523 . S
C1511 C1495 1.429 . S
C1511 C1507 1.429 . S
C1511 C1512 1.523 . S
C1512 C1496 1.368 . S
C1512 C1508 1.368 . S
C1512 C1511 1.523 . S
H1513 C1488 0.950 . S
H1514 C1490 0.950 . S
H1515 C1491 0.949 . S
H1516 C1493 0.950 . S
H1517 C1495 0.950 . S
C1518 C1519 1.349 . S
C1518 C1520 1.327 . S
C1518 H1543 0.950 . S
C1519 C1518 1.349 . S
C1519 C1535 1.349 . S
C1520 C1518 1.327 . S
C1520 C1539 1.429 . S
C1520 H1544 0.950 . S
C1521 C1538 1.574 . S
C1521 C1540 1.368 . S
C1521 H1545 0.949 . S
H1522 C1526 0.949 . S
C1523 C1524 1.349 . S
C1523 C1525 1.327 . S
C1523 H1546 0.950 . S
C1524 C1523 1.349 . S
C1524 C1536 1.349 . S
C1525 C1523 1.327 . S
C1525 C1541 1.429 . S
C1525 H1547 0.950 . S
C1526 H1522 0.949 . S
C1526 C1534 1.574 . S
C1526 C1542 1.368 . S
H1527 C1535 0.950 . S
H1528 C1533 0.950 . S
H1529 C1534 0.949 . S
H1530 C1536 0.950 . S
H1531 C1537 0.950 . S
H1532 C1538 0.949 . S
C1533 H1528 0.950 . S
C1533 C1535 1.327 . S
C1533 C1539 1.429 . S
C1534 C1526 1.574 . S
C1534 H1529 0.949 . S
C1534 C1540 1.368 . S
C1535 C1519 1.349 . S
C1535 H1527 0.950 . S
C1535 C1533 1.327 . S
C1536 C1524 1.349 . S
C1536 H1530 0.950 . S
C1536 C1537 1.327 . S
C1537 H1531 0.950 . S
C1537 C1536 1.327 . S
C1537 C1541 1.429 . S
C1538 C1521 1.574 . S
C1538 H1532 0.949 . S
C1538 C1542 1.368 . S
C1539 C1520 1.429 . S
C1539 C1533 1.429 . S
C1539 C1540 1.523 . S
C1540 C1521 1.368 . S
C1540 C1534 1.368 . S
C1540 C1539 1.523 . S
C1541 C1525 1.429 . S
C1541 C1537 1.429 . S
C1541 C1542 1.523 . S
C1542 C1526 1.368 . S
C1542 C1538 1.368 . S
C1542 C1541 1.523 . S
H1543 C1518 0.950 . S
H1544 C1520 0.950 . S
H1545 C1521 0.949 . S
H1546 C1523 0.950 . S
H1547 C1525 0.950 . S
C1548 C1549 1.349 . S
C1548 C1550 1.327 . S
C1548 H1573 0.950 . S
C1549 C1548 1.349 . S
C1549 C1565 1.349 . S
C1550 C1548 1.327 . S
C1550 C1569 1.429 . S
C1550 H1574 0.950 . S
C1551 C1568 1.574 . S
C1551 C1570 1.368 . S
C1551 H1575 0.949 . S
H1552 C1556 0.949 . S
C1553 C1554 1.349 . S
C1553 C1555 1.327 . S
C1553 H1576 0.950 . S
C1554 C1553 1.349 . S
C1554 C1566 1.349 . S
C1555 C1553 1.327 . S
C1555 C1571 1.429 . S
C1555 H1577 0.950 . S
C1556 H1552 0.949 . S
C1556 C1564 1.574 . S
C1556 C1572 1.368 . S
H1557 C1565 0.950 . S
H1558 C1563 0.950 . S
H1559 C1564 0.949 . S
H1560 C1566 0.950 . S
H1561 C1567 0.950 . S
H1562 C1568 0.949 . S
C1563 H1558 0.950 . S
C1563 C1565 1.327 . S
C1563 C1569 1.429 . S
C1564 C1556 1.574 . S
C1564 H1559 0.949 . S
C1564 C1570 1.368 . S
C1565 C1549 1.349 . S
C1565 H1557 0.950 . S
C1565 C1563 1.327 . S
C1566 C1554 1.349 . S
C1566 H1560 0.950 . S
C1566 C1567 1.327 . S
C1567 H1561 0.950 . S
C1567 C1566 1.327 . S
C1567 C1571 1.429 . S
C1568 C1551 1.574 . S
C1568 H1562 0.949 . S
C1568 C1572 1.368 . S
C1569 C1550 1.429 . S
C1569 C1563 1.429 . S
C1569 C1570 1.523 . S
C1570 C1551 1.368 . S
C1570 C1564 1.368 . S
C1570 C1569 1.523 . S
C1571 C1555 1.429 . S
C1571 C1567 1.429 . S
C1571 C1572 1.523 . S
C1572 C1556 1.368 . S
C1572 C1568 1.368 . S
C1572 C1571 1.523 . S
H1573 C1548 0.950 . S
H1574 C1550 0.950 . S
H1575 C1551 0.949 . S
H1576 C1553 0.950 . S
H1577 C1555 0.950 . S
C1578 C1579 1.349 . S
C1578 C1580 1.327 . S
C1578 H1603 0.950 . S
C1579 C1578 1.349 . S
C1579 C1595 1.349 . S
C1580 C1578 1.327 . S
C1580 C1599 1.429 . S
C1580 H1604 0.950 . S
C1581 C1598 1.574 . S
C1581 C1600 1.368 . S
C1581 H1605 0.949 . S
H1582 C1586 0.949 . S
C1583 C1584 1.349 . S
C1583 C1585 1.327 . S
C1583 H1606 0.950 . S
C1584 C1583 1.349 . S
C1584 C1596 1.349 . S
C1585 C1583 1.327 . S
C1585 C1601 1.429 . S
C1585 H1607 0.950 . S
C1586 H1582 0.949 . S
C1586 C1594 1.574 . S
C1586 C1602 1.368 . S
H1587 C1595 0.950 . S
H1588 C1593 0.950 . S
H1589 C1594 0.949 . S
H1590 C1596 0.950 . S
H1591 C1597 0.950 . S
H1592 C1598 0.949 . S
C1593 H1588 0.950 . S
C1593 C1595 1.327 . S
C1593 C1599 1.429 . S
C1594 C1586 1.574 . S
C1594 H1589 0.949 . S
C1594 C1600 1.368 . S
C1595 C1579 1.349 . S
C1595 H1587 0.950 . S
C1595 C1593 1.327 . S
C1596 C1584 1.349 . S
C1596 H1590 0.950 . S
C1596 C1597 1.327 . S
C1597 H1591 0.950 . S
C1597 C1596 1.327 . S
C1597 C1601 1.429 . S
C1598 C1581 1.574 . S
C1598 H1592 0.949 . S
C1598 C1602 1.368 . S
C1599 C1580 1.429 . S
C1599 C1593 1.429 . S
C1599 C1600 1.523 . S
C1600 C1581 1.368 . S
C1600 C1594 1.368 . S
C1600 C1599 1.523 . S
C1601 C1585 1.429 . S
C1601 C1597 1.429 . S
C1601 C1602 1.523 . S
C1602 C1586 1.368 . S
C1602 C1598 1.368 . S
C1602 C1601 1.523 . S
H1603 C1578 0.950 . S
H1604 C1580 0.950 . S
H1605 C1581 0.949 . S
H1606 C1583 0.950 . S
H1607 C1585 0.950 . S
C1608 C1609 1.349 . S
C1608 C1610 1.327 . S
C1608 H1633 0.950 . S
C1609 C1608 1.349 . S
C1609 C1625 1.349 . S
C1610 C1608 1.327 . S
C1610 C1629 1.429 . S
C1610 H1634 0.950 . S
C1611 C1628 1.574 . S
C1611 C1630 1.368 . S
C1611 H1635 0.949 . S
H1612 C1616 0.949 . S
C1613 C1614 1.349 . S
C1613 C1615 1.327 . S
C1613 H1636 0.950 . S
C1614 C1613 1.349 . S
C1614 C1626 1.349 . S
C1615 C1613 1.327 . S
C1615 C1631 1.429 . S
C1615 H1637 0.950 . S
C1616 H1612 0.949 . S
C1616 C1624 1.574 . S
C1616 C1632 1.368 . S
H1617 C1625 0.950 . S
H1618 C1623 0.950 . S
H1619 C1624 0.949 . S
H1620 C1626 0.950 . S
H1621 C1627 0.950 . S
H1622 C1628 0.949 . S
C1623 H1618 0.950 . S
C1623 C1625 1.327 . S
C1623 C1629 1.429 . S
C1624 C1616 1.574 . S
C1624 H1619 0.949 . S
C1624 C1630 1.368 . S
C1625 C1609 1.349 . S
C1625 H1617 0.950 . S
C1625 C1623 1.327 . S
C1626 C1614 1.349 . S
C1626 H1620 0.950 . S
C1626 C1627 1.327 . S
C1627 H1621 0.950 . S
C1627 C1626 1.327 . S
C1627 C1631 1.429 . S
C1628 C1611 1.574 . S
C1628 H1622 0.949 . S
C1628 C1632 1.368 . S
C1629 C1610 1.429 . S
C1629 C1623 1.429 . S
C1629 C1630 1.523 . S
C1630 C1611 1.368 . S
C1630 C1624 1.368 . S
C1630 C1629 1.523 . S
C1631 C1615 1.429 . S
C1631 C1627 1.429 . S
C1631 C1632 1.523 . S
C1632 C1616 1.368 . S
C1632 C1628 1.368 . S
C1632 C1631 1.523 . S
H1633 C1608 0.950 . S
H1634 C1610 0.950 . S
H1635 C1611 0.949 . S
H1636 C1613 0.950 . S
H1637 C1615 0.950 . S
C1638 C1639 1.349 . S
C1638 C1640 1.327 . S
C1638 H1663 0.950 . S
C1639 C1638 1.349 . S
C1639 C1655 1.349 . S
C1640 C1638 1.327 . S
C1640 C1659 1.429 . S
C1640 H1664 0.950 . S
C1641 C1658 1.574 . S
C1641 C1660 1.368 . S
C1641 H1665 0.949 . S
H1642 C1646 0.949 . S
C1643 C1644 1.349 . S
C1643 C1645 1.327 . S
C1643 H1666 0.950 . S
C1644 C1643 1.349 . S
C1644 C1656 1.349 . S
C1645 C1643 1.327 . S
C1645 C1661 1.429 . S
C1645 H1667 0.950 . S
C1646 H1642 0.949 . S
C1646 C1654 1.574 . S
C1646 C1662 1.368 . S
H1647 C1655 0.950 . S
H1648 C1653 0.950 . S
H1649 C1654 0.949 . S
H1650 C1656 0.950 . S
H1651 C1657 0.950 . S
H1652 C1658 0.949 . S
C1653 H1648 0.950 . S
C1653 C1655 1.327 . S
C1653 C1659 1.429 . S
C1654 C1646 1.574 . S
C1654 H1649 0.949 . S
C1654 C1660 1.368 . S
C1655 C1639 1.349 . S
C1655 H1647 0.950 . S
C1655 C1653 1.327 . S
C1656 C1644 1.349 . S
C1656 H1650 0.950 . S
C1656 C1657 1.327 . S
C1657 H1651 0.950 . S
C1657 C1656 1.327 . S
C1657 C1661 1.429 . S
C1658 C1641 1.574 . S
C1658 H1652 0.949 . S
C1658 C1662 1.368 . S
C1659 C1640 1.429 . S
C1659 C1653 1.429 . S
C1659 C1660 1.523 . S
C1660 C1641 1.368 . S
C1660 C1654 1.368 . S
C1660 C1659 1.523 . S
C1661 C1645 1.429 . S
C1661 C1657 1.429 . S
C1661 C1662 1.523 . S
C1662 C1646 1.368 . S
C1662 C1658 1.368 . S
C1662 C1661 1.523 . S
H1663 C1638 0.950 . S
H1664 C1640 0.950 . S
H1665 C1641 0.949 . S
H1666 C1643 0.950 . S
H1667 C1645 0.950 . S
C1668 C1669 1.349 . S
C1668 C1670 1.327 . S
C1668 H1693 0.950 . S
C1669 C1668 1.349 . S
C1669 C1685 1.349 . S
C1670 C1668 1.327 . S
C1670 C1689 1.429 . S
C1670 H1694 0.950 . S
C1671 C1688 1.574 . S
C1671 C1690 1.368 . S
C1671 H1695 0.949 . S
H1672 C1676 0.949 . S
C1673 C1674 1.349 . S
C1673 C1675 1.327 . S
C1673 H1696 0.950 . S
C1674 C1673 1.349 . S
C1674 C1686 1.349 . S
C1675 C1673 1.327 . S
C1675 C1691 1.429 . S
C1675 H1697 0.950 . S
C1676 H1672 0.949 . S
C1676 C1684 1.574 . S
C1676 C1692 1.368 . S
H1677 C1685 0.950 1_545 S
H1678 C1683 0.950 . S
H1679 C1684 0.949 . S
H1680 C1686 0.950 . S
H1681 C1687 0.950 . S
H1682 C1688 0.949 . S
C1683 H1678 0.950 . S
C1683 C1685 1.327 . S
C1683 C1689 1.429 . S
C1684 C1676 1.574 . S
C1684 H1679 0.949 . S
C1684 C1690 1.368 . S
C1685 C1669 1.349 . S
C1685 H1677 0.950 1_565 S
C1685 C1683 1.327 . S
C1686 C1674 1.349 . S
C1686 H1680 0.950 . S
C1686 C1687 1.327 . S
C1687 H1681 0.950 . S
C1687 C1686 1.327 . S
C1687 C1691 1.429 . S
C1688 C1671 1.574 . S
C1688 H1682 0.949 . S
C1688 C1692 1.368 . S
C1689 C1670 1.429 . S
C1689 C1683 1.429 . S
C1689 C1690 1.523 . S
C1690 C1671 1.368 . S
C1690 C1684 1.368 . S
C1690 C1689 1.523 . S
C1691 C1675 1.429 . S
C1691 C1687 1.429 . S
C1691 C1692 1.523 . S
C1692 C1676 1.368 . S
C1692 C1688 1.368 . S
C1692 C1691 1.523 . S
H1693 C1668 0.950 . S
H1694 C1670 0.950 . S
H1695 C1671 0.949 . S
H1696 C1673 0.950 . S
H1697 C1675 0.950 . S
C1698 C1699 1.349 . S
C1698 C1700 1.327 . S
C1698 H1723 0.950 . S
C1699 C1698 1.349 . S
C1699 C1715 1.349 . S
C1700 C1698 1.327 . S
C1700 C1719 1.429 . S
C1700 H1724 0.950 . S
C1701 C1718 1.574 . S
C1701 C1720 1.368 . S
C1701 H1725 0.949 . S
H1702 C1706 0.949 . S
C1703 C1704 1.349 . S
C1703 C1705 1.327 . S
C1703 H1726 0.950 . S
C1704 C1703 1.349 . S
C1704 C1716 1.349 . S
C1705 C1703 1.327 . S
C1705 C1721 1.429 . S
C1705 H1727 0.950 . S
C1706 H1702 0.949 . S
C1706 C1714 1.574 . S
C1706 C1722 1.368 . S
H1707 C1715 0.950 . S
H1708 C1713 0.950 . S
H1709 C1714 0.949 . S
H1710 C1716 0.950 . S
H1711 C1717 0.950 . S
H1712 C1718 0.949 . S
C1713 H1708 0.950 . S
C1713 C1715 1.327 . S
C1713 C1719 1.429 . S
C1714 C1706 1.574 . S
C1714 H1709 0.949 . S
C1714 C1720 1.368 . S
C1715 C1699 1.349 . S
C1715 H1707 0.950 . S
C1715 C1713 1.327 . S
C1716 C1704 1.349 . S
C1716 H1710 0.950 . S
C1716 C1717 1.327 . S
C1717 H1711 0.950 . S
C1717 C1716 1.327 . S
C1717 C1721 1.429 . S
C1718 C1701 1.574 . S
C1718 H1712 0.949 . S
C1718 C1722 1.368 . S
C1719 C1700 1.429 . S
C1719 C1713 1.429 . S
C1719 C1720 1.523 . S
C1720 C1701 1.368 . S
C1720 C1714 1.368 . S
C1720 C1719 1.523 . S
C1721 C1705 1.429 . S
C1721 C1717 1.429 . S
C1721 C1722 1.523 . S
C1722 C1706 1.368 . S
C1722 C1718 1.368 . S
C1722 C1721 1.523 . S
H1723 C1698 0.950 . S
H1724 C1700 0.950 . S
H1725 C1701 0.949 . S
H1726 C1703 0.950 . S
H1727 C1705 0.950 . S
C529 C28 0.511 . S
C534 C193 0.516 . S
C559 C61 0.497 . S
C564 C226 0.499 . S
C589 C259 0.476 . S
C594 C94 0.476 . S
C619 C160 0.497 . S
C624 C127 0.499 . S
C649 C292 0.511 . S
C654 C457 0.516 . S
C679 C325 0.497 . S
C684 C490 0.499 . S
C709 C358 0.476 . S
C714 C523 0.476 . S
C739 C391 0.498 . S
C744 C424 0.500 . S
C769 C281 1.478 . S
C774 C17 1.478 . S
C799 C314 1.410 . S
C804 C50 1.411 . S
C829 C83 1.442 . S
C834 C347 1.442 . S
C859 C380 1.512 . S
C864 C116 1.512 . S
C889 C149 1.410 . S
C894 C413 1.411 . S
C919 C182 1.478 . S
C924 C446 1.478 . S
C949 C215 1.512 . S
C954 C479 1.512 . S
C979 C248 1.442 . S
C984 C512 1.442 . S
C1009 N14 1.519 . S
C1014 N146 1.522 . S
C1039 N47 1.522 . S
C1044 N179 1.519 . S
C1069 N212 1.574 . S
C1074 N80 1.576 . S
C1099 N113 1.574 . S
C1104 N245 1.576 . S
C1129 N410 1.522 . S
C1134 N278 1.519 . S
C1159 N443 1.519 . S
C1164 N311 1.522 . S
C1189 N344 1.576 . S
C1194 N476 1.574 . S
C1219 N509 1.576 . S
C1224 N377 1.574 . S
C1249 C41 1.387 . S
C1254 N5 1.289 . S
C1279 N38 1.310 . S
C1284 C74 1.397 . S
C1309 N71 1.350 . S
C1314 C107 1.442 . S
C1339 N104 1.328 . S
C1344 C8 1.418 . S
C1369 C239 1.402 . S
C1374 N137 1.306 . S
C1399 N170 1.297 . S
C1404 C140 1.381 . S
C1429 N203 1.328 . S
C1434 C173 1.418 . S
C1459 N236 1.350 . S
C1464 C206 1.442 . S
C1489 N269 1.297 . S
C1494 C305 1.381 . S
C1519 N302 1.310 . S
C1524 C338 1.397 . S
C1549 C371 1.442 . S
C1554 N335 1.350 . S
C1579 N368 1.328 . S
C1584 C272 1.418 . S
C1609 N401 1.310 . S
C1614 C503 1.397 . S
C1639 C404 1.387 . S
C1644 N434 1.289 . S
C1669 C437 1.419 . S
C1674 N467 1.325 . S
C1699 N500 1.350 . S
C1704 C470 1.442 . S
