# Generated by pormake.
# Topology unm, (4)-cn, num edge types: 1
# Building blocks:
#     Node 0, Type 0, BuildingBlock: QUQFOY_clean_sbu_1, # of connection points: 4
#     Node 1, Type 0, BuildingBlock: QUQFOY_clean_sbu_1, # of connection points: 4
#     Node 2, Type 0, BuildingBlock: QUQFOY_clean_sbu_1, # of connection points: 4
#     Node 3, Type 0, BuildingBlock: QUQFOY_clean_sbu_1, # of connection points: 4
#     Node 4, Type 0, BuildingBlock: QUQFOY_clean_sbu_1, # of connection points: 4
#     Node 5, Type 0, BuildingBlock: QUQFOY_clean_sbu_1, # of connection points: 4
#     Node 6, Type 0, BuildingBlock: QUQFOY_clean_sbu_1, # of connection points: 4
#     Node 7, Type 0, BuildingBlock: QUQFOY_clean_sbu_1, # of connection points: 4
#     Edge 8, Type (0, 0), BuildingBlock: XUDNAN_clean_linker_2, # of connection points: 2
#     Edge 9, Type (0, 0), BuildingBlock: XUDNAN_clean_linker_2, # of connection points: 2
#     Edge 10, Type (0, 0), BuildingBlock: XUDNAN_clean_linker_2, # of connection points: 2
#     Edge 11, Type (0, 0), BuildingBlock: XUDNAN_clean_linker_2, # of connection points: 2
#     Edge 12, Type (0, 0), BuildingBlock: XUDNAN_clean_linker_2, # of connection points: 2
#     Edge 13, Type (0, 0), BuildingBlock: XUDNAN_clean_linker_2, # of connection points: 2
#     Edge 14, Type (0, 0), BuildingBlock: XUDNAN_clean_linker_2, # of connection points: 2
#     Edge 15, Type (0, 0), BuildingBlock: XUDNAN_clean_linker_2, # of connection points: 2
#     Edge 16, Type (0, 0), BuildingBlock: XUDNAN_clean_linker_2, # of connection points: 2
#     Edge 17, Type (0, 0), BuildingBlock: XUDNAN_clean_linker_2, # of connection points: 2
#     Edge 18, Type (0, 0), BuildingBlock: XUDNAN_clean_linker_2, # of connection points: 2
#     Edge 19, Type (0, 0), BuildingBlock: XUDNAN_clean_linker_2, # of connection points: 2
#     Edge 20, Type (0, 0), BuildingBlock: XUDNAN_clean_linker_2, # of connection points: 2
#     Edge 21, Type (0, 0), BuildingBlock: XUDNAN_clean_linker_2, # of connection points: 2
#     Edge 22, Type (0, 0), BuildingBlock: XUDNAN_clean_linker_2, # of connection points: 2
#     Edge 23, Type (0, 0), BuildingBlock: XUDNAN_clean_linker_2, # of connection points: 2
# Relax obj value: 0.172
# Max RMSD: 0.172
# Mean RMSD: 0.172
data_MOF--net-unm--node1-QUQFOY_clean_sbu_1--edge1-XUDNAN_clean_linker_2
_symmetry_space_group_name_H-M    P1
_symmetry_Int_Tables_number       1
_symmetry_cell_setting            triclinic
loop_
_symmetry_equiv_pos_as_xyz
'x, y, z'
_cell_length_a     27.712691
_cell_length_b     27.77348
_cell_length_c     44.007687
_cell_angle_alpha  90.00407
_cell_angle_beta   90.008726
_cell_angle_gamma 90.00543
loop_
_atom_site_label
_atom_site_type_symbol
_atom_site_fract_x
_atom_site_fract_y
_atom_site_fract_z
_atom_type_partial_charge
O0 O 0.23607 0.29763 0.12891 0.0
Cd1 Cd 0.23394 0.32345 0.17281 0.0
Cd2 Cd 0.13269 0.27556 0.1623 0.0
O3 O 0.16785 0.25712 0.12241 0.0
O4 O 0.30022 0.35079 0.17734 0.0
O5 O 0.2723 0.29297 0.20688 0.0
C6 C 0.30713 0.32163 0.19962 0.0
C7 C 0.06213 0.23438 0.17669 0.0
C8 C 0.20841 0.27188 0.11251 0.0
C9 C 0.14502 0.38366 0.17906 0.0
O10 O 0.12072 0.34695 0.17133 0.0
O11 O 0.19056 0.38171 0.18167 0.0
O12 O 0.06467 0.25887 0.15198 0.0
O13 O 0.1013 0.22935 0.19224 0.0
O14 O 0.20043 0.7169 0.61072 0.0
Cd15 Cd 0.15878 0.73596 0.64824 0.0
Cd16 Cd 0.20983 0.61812 0.65991 0.0
O17 O 0.23272 0.64366 0.61791 0.0
O18 O 0.13648 0.80409 0.64835 0.0
O19 O 0.18835 0.77363 0.6818 0.0
C20 C 0.16266 0.80962 0.67243 0.0
C21 C 0.21705 0.53794 0.67403 0.0
C22 C 0.22619 0.6814 0.60175 0.0
C23 C 0.12288 0.65849 0.68068 0.0
O24 O 0.16757 0.66076 0.68652 0.0
O25 O 0.10614 0.68972 0.66263 0.0
O26 O 0.18217 0.55208 0.65669 0.0
O27 O 0.24918 0.56925 0.68209 0.0
O28 O 0.79993 0.69752 0.12775 0.0
Cd29 Cd 0.81136 0.67683 0.17228 0.0
Cd30 Cd 0.88324 0.75066 0.16105 0.0
O31 O 0.8432 0.76385 0.12227 0.0
O32 O 0.75574 0.63246 0.17947 0.0
O33 O 0.76604 0.70005 0.2051 0.0
C34 C 0.74026 0.66227 0.19964 0.0
C35 C 0.92846 0.80607 0.1885 0.0
C36 C 0.81293 0.73355 0.11188 0.0
C37 C 0.91453 0.64831 0.17431 0.0
O38 O 0.923 0.68887 0.16228 0.0
O39 O 0.8721 0.6369 0.18253 0.0
O40 O 0.93867 0.79599 0.16067 0.0
O41 O 0.88823 0.79012 0.19942 0.0
O42 O 0.83018 0.27929 0.63238 0.0
Cd43 Cd 0.85198 0.28976 0.67694 0.0
Cd44 Cd 0.79761 0.37853 0.66001 0.0
O45 O 0.77591 0.33619 0.62402 0.0
O46 O 0.8828 0.22644 0.6861 0.0
O47 O 0.819 0.25328 0.71088 0.0
C48 C 0.85028 0.21951 0.7065 0.0
C49 C 0.75292 0.44583 0.67606 0.0
C50 C 0.79833 0.29861 0.61547 0.0
C51 C 0.90592 0.38143 0.67444 0.0
O52 O 0.86876 0.39819 0.66135 0.0
O53 O 0.90564 0.33944 0.68583 0.0
O54 O 0.77105 0.44304 0.64923 0.0
O55 O 0.75584 0.40811 0.6931 0.0
O56 O 0.73647 0.18958 0.38584 0.0
Cd57 Cd 0.72012 0.16873 0.34187 0.0
Cd58 Cd 0.63581 0.21496 0.35878 0.0
O59 O 0.67365 0.23515 0.39707 0.0
O60 O 0.78343 0.1491 0.324 0.0
O61 O 0.73896 0.20857 0.30562 0.0
C62 C 0.7775 0.18248 0.30401 0.0
C63 C 0.58737 0.26562 0.33006 0.0
C64 C 0.71433 0.21723 0.40422 0.0
C65 C 0.63019 0.10952 0.34408 0.0
O66 O 0.61038 0.14579 0.35635 0.0
O67 O 0.67376 0.1116 0.3352 0.0
O68 O 0.5746 0.25195 0.35688 0.0
O69 O 0.63009 0.25428 0.32065 0.0
O70 O 0.27336 0.20564 0.87665 0.0
Cd71 Cd 0.28081 0.1863 0.83108 0.0
Cd72 Cd 0.23827 0.11138 0.8541 0.0
O73 O 0.21762 0.15324 0.89005 0.0
O74 O 0.3003 0.24638 0.80935 0.0
O75 O 0.2312 0.20893 0.80089 0.0
C76 C 0.25985 0.24436 0.79492 0.0
C77 C 0.19085 0.07053 0.81965 0.0
C78 C 0.24337 0.18979 0.8962 0.0
C79 C 0.33742 0.09649 0.83531 0.0
O80 O 0.3072 0.08497 0.85564 0.0
O81 O 0.33045 0.13357 0.81901 0.0
O82 O 0.19689 0.05427 0.84691 0.0
O83 O 0.20783 0.11261 0.81307 0.0
O84 O 0.29104 0.77761 0.37942 0.0
Cd85 Cd 0.29194 0.81589 0.33913 0.0
Cd86 Cd 0.37572 0.74041 0.33088 0.0
O87 O 0.345 0.71978 0.37172 0.0
O88 O 0.22935 0.85167 0.33765 0.0
O89 O 0.24981 0.79621 0.30395 0.0
C90 C 0.2186 0.82718 0.31368 0.0
C91 C 0.43499 0.69102 0.30898 0.0
C92 C 0.31335 0.7401 0.38833 0.0
C93 C 0.38976 0.85274 0.32639 0.0
O94 O 0.4017 0.80875 0.32545 0.0
O95 O 0.34668 0.86515 0.33229 0.0
O96 O 0.44112 0.71137 0.33488 0.0
O97 O 0.39295 0.69441 0.29656 0.0
O98 O 0.70214 0.77952 0.88078 0.0
Cd99 Cd 0.67969 0.79271 0.8364 0.0
Cd100 Cd 0.71735 0.88254 0.85453 0.0
O101 O 0.74083 0.84659 0.89245 0.0
O102 O 0.66313 0.72724 0.82047 0.0
O103 O 0.71979 0.77328 0.80025 0.0
C104 C 0.6957 0.73344 0.79996 0.0
C105 C 0.76597 0.93571 0.82746 0.0
C106 C 0.72725 0.80429 0.89934 0.0
C107 C 0.61225 0.87696 0.8388 0.0
O108 O 0.64552 0.89969 0.8524 0.0
O109 O 0.6194 0.83491 0.82838 0.0
O110 O 0.74844 0.94712 0.85361 0.0
O111 O 0.75833 0.89265 0.81738 0.0
H112 H 0.16343 0.21314 0.07043 0.0
H113 H 0.28431 0.31125 0.08173 0.0
H114 H 0.30382 0.30302 0.02749 0.0
H115 H 0.2237 0.13363 0.01684 0.0
H116 H 0.16985 0.12282 0.99489 0.0
H117 H 0.16532 0.13616 0.03484 0.0
H118 H 0.10777 0.20711 0.02266 0.0
H119 H 0.11259 0.19434 0.98264 0.0
H120 H 0.12713 0.25353 0.99675 0.0
H121 H 0.30857 0.28752 0.97195 0.0
H122 H 0.30378 0.25847 0.91918 0.0
H123 H 0.18173 0.16809 0.94347 0.0
C124 C 0.19422 0.2326 0.06156 0.0
C125 C 0.22222 0.26294 0.08045 0.0
C126 C 0.2623 0.28768 0.06787 0.0
C127 C 0.27359 0.28348 0.03699 0.0
C128 C 0.24479 0.25409 0.01894 0.0
C129 C 0.20637 0.22849 0.03074 0.0
C130 C 0.18197 0.19863 0.0063 0.0
C131 C 0.18544 0.14461 0.01366 0.0
C132 C 0.12924 0.21436 0.00183 0.0
C133 C 0.21263 0.2117 0.97898 0.0
C134 C 0.24833 0.24411 0.98679 0.0
C135 C 0.28094 0.26193 0.96553 0.0
C136 C 0.27775 0.24533 0.93555 0.0
C137 C 0.24245 0.21089 0.92711 0.0
C138 C 0.20912 0.19441 0.94915 0.0
H139 H 0.21022 0.7491 0.55736 0.0
H140 H 0.28816 0.6164 0.57536 0.0
H141 H 0.3182 0.61628 0.52256 0.0
H142 H 0.17305 0.71911 0.48226 0.0
H143 H 0.17998 0.77939 0.46773 0.0
H144 H 0.16596 0.77007 0.50725 0.0
H145 H 0.2412 0.8197 0.52287 0.0
H146 H 0.25522 0.82955 0.4834 0.0
H147 H 0.29962 0.80306 0.50823 0.0
H148 H 0.33879 0.63011 0.46733 0.0
H149 H 0.34993 0.658 0.4145 0.0
H150 H 0.25719 0.7807 0.43285 0.0
C151 C 0.23397 0.72018 0.55039 0.0
C152 C 0.24687 0.68282 0.57066 0.0
C153 C 0.27774 0.6455 0.56035 0.0
C154 C 0.29497 0.64505 0.53036 0.0
C155 C 0.28093 0.68207 0.51091 0.0
C156 C 0.25127 0.71902 0.52055 0.0
C157 C 0.241 0.7542 0.49509 0.0
C158 C 0.18678 0.75575 0.48765 0.0
C159 C 0.26043 0.80461 0.50287 0.0
C160 C 0.26949 0.73127 0.46959 0.0
C161 C 0.29231 0.68972 0.47914 0.0
C162 C 0.32107 0.6626 0.4596 0.0
C163 C 0.3271 0.67871 0.4296 0.0
C164 C 0.30435 0.7215 0.4194 0.0
C165 C 0.27488 0.74771 0.43976 0.0
H166 H 0.82982 0.80578 0.06974 0.0
H167 H 0.75392 0.67029 0.08247 0.0
H168 H 0.72617 0.67313 0.02953 0.0
H169 H 0.73899 0.86045 0.02124 0.0
H170 H 0.78246 0.89053 0.9974 0.0
H171 H 0.79662 0.87824 0.03659 0.0
H172 H 0.87381 0.83284 0.0198 0.0
H173 H 0.85967 0.84465 0.98055 0.0
H174 H 0.86891 0.78365 0.99325 0.0
H175 H 0.70827 0.68847 0.97521 0.0
H176 H 0.69615 0.71891 0.92323 0.0
H177 H 0.78162 0.84551 0.94502 0.0
C178 C 0.80716 0.77687 0.06144 0.0
C179 C 0.79423 0.73778 0.0804 0.0
C180 C 0.76443 0.70069 0.06856 0.0
C181 C 0.74851 0.70182 0.03841 0.0
C182 C 0.76238 0.74038 0.02028 0.0
C183 C 0.79059 0.77752 0.0313 0.0
C184 C 0.79957 0.81501 0.00687 0.0
C185 C 0.77812 0.86395 0.01608 0.0
C186 C 0.85371 0.81927 0.9997 0.0
C187 C 0.7721 0.79293 0.98049 0.0
C188 C 0.75124 0.74973 0.98876 0.0
C189 C 0.72426 0.72235 0.96843 0.0
C190 C 0.71773 0.73993 0.93889 0.0
C191 C 0.73785 0.78466 0.92995 0.0
C192 C 0.76576 0.8112 0.95108 0.0
H193 H 0.68242 0.27968 0.44884 0.0
H194 H 0.79244 0.17257 0.42929 0.0
H195 H 0.82379 0.18077 0.4813 0.0
H196 H 0.75892 0.35593 0.49579 0.0
H197 H 0.71115 0.37115 0.52187 0.0
H198 H 0.6972 0.35726 0.48286 0.0
H199 H 0.63789 0.29096 0.50075 0.0
H200 H 0.652 0.30434 0.53981 0.0
H201 H 0.65922 0.24391 0.52558 0.0
H202 H 0.84138 0.19731 0.53547 0.0
H203 H 0.84931 0.22684 0.58788 0.0
H204 H 0.73003 0.32565 0.57287 0.0
C205 C 0.71329 0.25819 0.45544 0.0
C206 C 0.73485 0.22538 0.43489 0.0
C207 C 0.77528 0.19802 0.44447 0.0
C208 C 0.7933 0.20225 0.47405 0.0
C209 C 0.77083 0.23427 0.49381 0.0
C210 C 0.73213 0.26226 0.48491 0.0
C211 C 0.7153 0.29441 0.5107 0.0
C212 C 0.721 0.34785 0.5023 0.0
C213 C 0.663 0.28268 0.51974 0.0
C214 C 0.75048 0.27981 0.53547 0.0
C215 C 0.78187 0.24478 0.52519 0.0
C216 C 0.81723 0.22494 0.54379 0.0
C217 C 0.82127 0.2419 0.57361 0.0
C218 C 0.79038 0.27871 0.5846 0.0
C219 C 0.75424 0.29756 0.56521 0.0
H220 H 0.32714 0.28241 0.25556 0.0
H221 H 0.39236 0.3607 0.18075 0.0
H222 H 0.47062 0.36025 0.20755 0.0
H223 H 0.39376 0.34374 0.3156 0.0
H224 H 0.39934 0.29028 0.33856 0.0
H225 H 0.34812 0.29757 0.31375 0.0
H226 H 0.36782 0.2162 0.28766 0.0
H227 H 0.41879 0.20853 0.31252 0.0
H228 H 0.42712 0.20665 0.27193 0.0
H229 H 0.54339 0.34555 0.24079 0.0
H230 H 0.60401 0.31979 0.27889 0.0
H231 H 0.48989 0.25675 0.33336 0.0
C232 C 0.35787 0.29954 0.24486 0.0
C233 C 0.35372 0.32143 0.21603 0.0
C234 C 0.39469 0.34376 0.20287 0.0
C235 C 0.43931 0.34374 0.21791 0.0
C236 C 0.44222 0.3219 0.24633 0.0
C237 C 0.40252 0.30053 0.25979 0.0
C238 C 0.41541 0.27915 0.29036 0.0
C239 C 0.3875 0.3042 0.31608 0.0
C240 C 0.40679 0.2244 0.29061 0.0
C241 C 0.4687 0.29104 0.29172 0.0
C242 C 0.4836 0.31558 0.26609 0.0
C243 C 0.53202 0.32712 0.26124 0.0
C244 C 0.56617 0.31246 0.28296 0.0
C245 C 0.55152 0.28722 0.30932 0.0
C246 C 0.50203 0.27726 0.31388 0.0
H247 H 0.18539 0.8223 0.73216 0.0
H248 H 0.13509 0.8989 0.65232 0.0
H249 H 0.13008 0.97411 0.68242 0.0
H250 H 0.10807 0.88414 0.78585 0.0
H251 H 0.15293 0.88422 0.81551 0.0
H252 H 0.15236 0.83668 0.78765 0.0
H253 H 0.24141 0.85524 0.77374 0.0
H254 H 0.24239 0.90227 0.80183 0.0
H255 H 0.25804 0.91564 0.76299 0.0
H256 H 0.13651 0.04208 0.72085 0.0
H257 H 0.1527 0.0963 0.76441 0.0
H258 H 0.19185 0.97286 0.81948 0.0
C259 C 0.17353 0.85494 0.72096 0.0
C260 C 0.16107 0.855 0.68987 0.0
C261 C 0.14497 0.89822 0.67613 0.0
C262 C 0.14187 0.941 0.69304 0.0
C263 C 0.15411 0.93961 0.72377 0.0
C264 C 0.16931 0.89757 0.7376 0.0
C265 C 0.18049 0.90544 0.77085 0.0
C266 C 0.14642 0.87586 0.79115 0.0
C267 C 0.23374 0.89399 0.77774 0.0
C268 C 0.17023 0.95875 0.7735 0.0
C269 C 0.15512 0.97796 0.74613 0.0
C270 C 0.14742 0.02728 0.74254 0.0
C271 C 0.15653 0.05777 0.76737 0.0
C272 C 0.1725 0.03864 0.79545 0.0
C273 C 0.17822 0.9884 0.79861 0.0
H274 H 0.52824 0.7175 0.31645 0.0
H275 H 0.43635 0.62419 0.26266 0.0
H276 H 0.50713 0.60079 0.2314 0.0
H277 H 0.59187 0.76357 0.25489 0.0
H278 H 0.64862 0.76891 0.27462 0.0
H279 H 0.59292 0.77214 0.29549 0.0
H280 H 0.62103 0.70217 0.33022 0.0
H281 H 0.67709 0.69893 0.30957 0.0
H282 H 0.63985 0.64605 0.31339 0.0
H283 H 0.5876 0.59145 0.20454 0.0
H284 H 0.66855 0.60095 0.18189 0.0
H285 H 0.70522 0.70598 0.25115 0.0
C286 C 0.52319 0.69096 0.29869 0.0
C287 C 0.47707 0.67169 0.29236 0.0
C288 C 0.47157 0.6387 0.26813 0.0
C289 C 0.51155 0.62527 0.25033 0.0
C290 C 0.55641 0.6458 0.25685 0.0
C291 C 0.56226 0.67821 0.28036 0.0
C292 C 0.61268 0.69926 0.28076 0.0
C293 C 0.61142 0.75421 0.27616 0.0
C294 C 0.63923 0.68578 0.31024 0.0
C295 C 0.63443 0.67398 0.25358 0.0
C296 C 0.60172 0.64265 0.24041 0.0
C297 C 0.61347 0.61575 0.21476 0.0
C298 C 0.6596 0.62137 0.20208 0.0
C299 C 0.69318 0.65427 0.21474 0.0
C300 C 0.68035 0.68059 0.24095 0.0
H301 H 0.79869 0.19834 0.75826 0.0
H302 H 0.89644 0.13587 0.69206 0.0
H303 H 0.88949 0.05707 0.71751 0.0
H304 H 0.84368 0.12892 0.82341 0.0
H305 H 0.78459 0.12289 0.84009 0.0
H306 H 0.79884 0.17497 0.81738 0.0
H307 H 0.72544 0.15712 0.78264 0.0
H308 H 0.71099 0.10508 0.80523 0.0
H309 H 0.7202 0.09885 0.76487 0.0
H310 H 0.86572 0.98325 0.74721 0.0
H311 H 0.83084 0.92133 0.78127 0.0
H312 H 0.75344 0.03284 0.8301 0.0
C313 C 0.81897 0.16818 0.74932 0.0
C314 C 0.84804 0.17326 0.72316 0.0
C315 C 0.87407 0.13292 0.71215 0.0
C316 C 0.87035 0.08795 0.72643 0.0
C317 C 0.84104 0.084 0.75199 0.0
C318 C 0.81628 0.12315 0.76359 0.0
C319 C 0.78674 0.10904 0.79113 0.0
C320 C 0.80454 0.13553 0.81969 0.0
C321 C 0.73265 0.11805 0.78562 0.0
C322 C 0.79792 0.05571 0.79277 0.0
C323 C 0.82918 0.04188 0.76994 0.0
C324 C 0.84193 0.99377 0.76554 0.0
C325 C 0.82195 0.95886 0.78492 0.0
C326 C 0.79019 0.97243 0.80858 0.0
C327 C 0.77861 0.02155 0.81268 0.0
H328 H 0.87397 0.16144 0.30593 0.0
H329 H 0.7626 0.22072 0.24762 0.0
H330 H 0.82268 0.23149 0.20661 0.0
H331 H 0.96499 0.24439 0.28347 0.0
H332 H 0.01361 0.20144 0.28582 0.0
H333 H 0.96103 0.19426 0.30938 0.0
H334 H 0.94885 0.10819 0.28795 0.0
H335 H 0.00118 0.11535 0.26405 0.0
H336 H 0.94385 0.09954 0.24747 0.0
H337 H 0.89448 0.23678 0.17245 0.0
H338 H 0.97472 0.2472 0.14953 0.0
H339 H 0.04123 0.18917 0.23104 0.0
C340 C 0.8622 0.17623 0.28439 0.0
C341 C 0.81359 0.18985 0.27975 0.0
C342 C 0.79967 0.21004 0.25157 0.0
C343 C 0.83344 0.21592 0.22811 0.0
C344 C 0.88106 0.20195 0.23336 0.0
C345 C 0.89565 0.18323 0.26095 0.0
C346 C 0.94978 0.17505 0.26157 0.0
C347 C 0.97375 0.20562 0.28653 0.0
C348 C 0.96159 0.12133 0.26549 0.0
C349 C 0.96345 0.19262 0.23011 0.0
C350 C 0.92305 0.20701 0.21405 0.0
C351 C 0.92635 0.22559 0.18477 0.0
C352 C 0.97223 0.2312 0.17192 0.0
C353 C 0.01443 0.219 0.18845 0.0
C354 C 0.00974 0.19839 0.21769 0.0
H355 H 0.2854 0.49728 0.71103 0.0
H356 H 0.14986 0.46681 0.66542 0.0
H357 H 0.14731 0.38681 0.68985 0.0
H358 H 0.33463 0.37514 0.7067 0.0
H359 H 0.36216 0.3791 0.74373 0.0
H360 H 0.3546 0.43259 0.72106 0.0
H361 H 0.30782 0.47295 0.76524 0.0
H362 H 0.31494 0.41955 0.78795 0.0
H363 H 0.25549 0.44335 0.78084 0.0
H364 H 0.15732 0.31182 0.72188 0.0
H365 H 0.18012 0.24736 0.75793 0.0
H366 H 0.30936 0.32711 0.78191 0.0
C367 C 0.25557 0.47351 0.70575 0.0
C368 C 0.21798 0.48824 0.68618 0.0
C369 C 0.17932 0.45619 0.68015 0.0
C370 C 0.17749 0.41068 0.69396 0.0
C371 C 0.21482 0.39757 0.71351 0.0
C372 C 0.2533 0.42794 0.71921 0.0
C373 C 0.28795 0.40603 0.74193 0.0
C374 C 0.33778 0.39772 0.72748 0.0
C375 C 0.29174 0.43733 0.77069 0.0
C376 C 0.26267 0.35885 0.74844 0.0
C377 C 0.22061 0.35452 0.7318 0.0
C378 C 0.19041 0.31464 0.73482 0.0
C379 C 0.20361 0.27827 0.75539 0.0
C380 C 0.2466 0.28207 0.77265 0.0
C381 C 0.27646 0.32289 0.7689 0.0
H382 H 0.19268 0.79856 0.2562 0.0
H383 H 0.13807 0.87133 0.33637 0.0
H384 H 0.05864 0.88071 0.31152 0.0
H385 H 0.12804 0.8725 0.20092 0.0
H386 H 0.1171 0.82259 0.17565 0.0
H387 H 0.17003 0.82298 0.19944 0.0
H388 H 0.14548 0.74029 0.22206 0.0
H389 H 0.09279 0.73951 0.19818 0.0
H390 H 0.08649 0.73327 0.23874 0.0
H391 H 0.98242 0.87436 0.27959 0.0
H392 H 0.91786 0.85607 0.24221 0.0
H393 H 0.02476 0.79457 0.18168 0.0
C394 C 0.16411 0.81674 0.26846 0.0
C395 C 0.17155 0.83411 0.29825 0.0
C396 C 0.13325 0.85784 0.31348 0.0
C397 C 0.08798 0.86336 0.29955 0.0
C398 C 0.08177 0.8457 0.27017 0.0
C399 C 0.11898 0.82329 0.2547 0.0
C400 C 0.10282 0.80679 0.22354 0.0
C401 C 0.13119 0.83278 0.1984 0.0
C402 C 0.10714 0.75172 0.22047 0.0
C403 C 0.05056 0.8227 0.22408 0.0
C404 C 0.03885 0.8448 0.25121 0.0
C405 C 0.99142 0.85816 0.25795 0.0
C406 C 0.95501 0.84783 0.23662 0.0
C407 C 0.96649 0.82527 0.20872 0.0
C408 C 0.01508 0.81358 0.20229 0.0
H409 H 0.71442 0.46674 0.73252 0.0
H410 H 0.75611 0.53223 0.64685 0.0
H411 H 0.74365 0.61265 0.66884 0.0
H412 H 0.62046 0.5582 0.75166 0.0
H413 H 0.63449 0.55593 0.79163 0.0
H414 H 0.64264 0.50319 0.76833 0.0
H415 H 0.73176 0.49806 0.78578 0.0
H416 H 0.72416 0.55118 0.80872 0.0
H417 H 0.77092 0.54917 0.78029 0.0
H418 H 0.73802 0.68574 0.70182 0.0
H419 H 0.72717 0.74732 0.74188 0.0
H420 H 0.68329 0.63592 0.80519 0.0
C421 C 0.71966 0.49796 0.71817 0.0
C422 C 0.73625 0.49299 0.68793 0.0
C423 C 0.7432 0.53489 0.67001 0.0
C424 C 0.73642 0.58089 0.68233 0.0
C425 C 0.72182 0.5846 0.71248 0.0
C426 C 0.71233 0.54436 0.73 0.0
C427 C 0.69788 0.55866 0.762 0.0
C428 C 0.64576 0.54308 0.7688 0.0
C429 C 0.7333 0.53804 0.78558 0.0
C430 C 0.70205 0.61303 0.75988 0.0
C431 C 0.71628 0.62718 0.73116 0.0
C432 C 0.7259 0.67524 0.72424 0.0
C433 C 0.72002 0.7099 0.74715 0.0
C434 C 0.70399 0.69638 0.77644 0.0
C435 C 0.69487 0.6473 0.78281 0.0
H436 H 0.91236 0.55012 0.18145 0.0
H437 H 0.00933 0.67285 0.17853 0.0
H438 H 0.079 0.61871 0.18473 0.0
H439 H 0.98254 0.47773 0.23638 0.0
H440 H 0.96938 0.42208 0.217 0.0
H441 H 0.92658 0.47091 0.21593 0.0
H442 H 0.92755 0.46868 0.15702 0.0
H443 H 0.97023 0.41993 0.15795 0.0
H444 H 0.98426 0.47415 0.13724 0.0
H445 H 0.13849 0.55123 0.18748 0.0
H446 H 0.18346 0.4745 0.18428 0.0
H447 H 0.04778 0.39616 0.18437 0.0
C448 C 0.9482 0.56556 0.18265 0.0
C449 C 0.95548 0.61553 0.17952 0.0
C450 C 0.00297 0.6345 0.1807 0.0
C451 C 0.04278 0.60414 0.18444 0.0
C452 C 0.03451 0.55492 0.18694 0.0
C453 C 0.98845 0.53569 0.18606 0.0
C454 C 0.98979 0.48129 0.18679 0.0
C455 C 0.96565 0.46187 0.21576 0.0
C456 C 0.96661 0.45978 0.15804 0.0
C457 C 0.04374 0.47306 0.18737 0.0
C458 C 0.06893 0.51592 0.18797 0.0
C459 C 0.11922 0.51734 0.18731 0.0
C460 C 0.14444 0.47364 0.18549 0.0
C461 C 0.11915 0.42942 0.18399 0.0
C462 C 0.06821 0.42936 0.18547 0.0
H463 H 0.92171 0.46489 0.64415 0.0
H464 H 0.9848 0.37131 0.71243 0.0
H465 H 0.04917 0.43186 0.72141 0.0
H466 H 0.0344 0.51271 0.61409 0.0
H467 H 0.0085 0.5715 0.60816 0.0
H468 H 0.97096 0.51869 0.60581 0.0
H469 H 0.91383 0.55516 0.64646 0.0
H470 H 0.9516 0.60765 0.64935 0.0
H471 H 0.93806 0.57279 0.68282 0.0
H472 H 0.1024 0.50715 0.7255 0.0
H473 H 0.14349 0.58611 0.72101 0.0
H474 H 0.04282 0.62776 0.6502 0.0
C475 C 0.94929 0.45662 0.66079 0.0
C476 C 0.94815 0.41348 0.67771 0.0
C477 C 0.98512 0.40412 0.69914 0.0
C478 C 0.02161 0.43836 0.70448 0.0
C479 C 0.02047 0.48136 0.68805 0.0
C480 C 0.98552 0.49009 0.66635 0.0
C481 C 0.99086 0.53929 0.65223 0.0
C482 C 0.00185 0.53529 0.61805 0.0
C483 C 0.94593 0.57054 0.65808 0.0
C484 C 0.03391 0.55756 0.66967 0.0
C485 C 0.05071 0.52384 0.69023 0.0
C486 C 0.08973 0.53356 0.70927 0.0
C487 C 0.11268 0.57848 0.70665 0.0
C488 C 0.09656 0.61283 0.68509 0.0
C489 C 0.05619 0.60227 0.66682 0.0
H490 H 0.53521 0.09469 0.35877 0.0
H491 H 0.65864 0.02622 0.31584 0.0
H492 H 0.60811 0.9557 0.30351 0.0
H493 H 0.48626 0.9883 0.39239 0.0
H494 H 0.42438 0.00571 0.38618 0.0
H495 H 0.47008 0.05114 0.39095 0.0
H496 H 0.44543 0.08918 0.33945 0.0
H497 H 0.39997 0.0435 0.33435 0.0
H498 H 0.44543 0.05256 0.30563 0.0
H499 H 0.54539 0.89283 0.29653 0.0
H500 H 0.47562 0.8383 0.29816 0.0
H501 H 0.3921 0.94742 0.34544 0.0
C502 C 0.55176 0.06486 0.34684 0.0
C503 C 0.60097 0.06598 0.33827 0.0
C504 C 0.62111 0.02616 0.32269 0.0
C505 C 0.59264 0.98608 0.31544 0.0
C506 C 0.54418 0.98651 0.32387 0.0
C507 C 0.52392 0.02465 0.33939 0.0
C508 C 0.47121 0.01544 0.34653 0.0
C509 C 0.4625 0.01511 0.38106 0.0
C510 C 0.4386 0.05237 0.33053 0.0
C511 C 0.46517 0.96572 0.33296 0.0
C512 C 0.50768 0.95004 0.31978 0.0
C513 C 0.51187 0.90473 0.30666 0.0
C514 C 0.47196 0.87405 0.30774 0.0
C515 C 0.42837 0.88867 0.32193 0.0
C516 C 0.42468 0.93554 0.33411 0.0
H517 H 0.40096 0.06095 0.87658 0.0
H518 H 0.36456 0.05916 0.78084 0.0
H519 H 0.4278 0.9976 0.77173 0.0
H520 H 0.53014 0.05199 0.8647 0.0
H521 H 0.53955 0.01589 0.89822 0.0
H522 H 0.49033 0.05813 0.89686 0.0
H523 H 0.43058 0.98917 0.90961 0.0
H524 H 0.47956 0.94657 0.91048 0.0
H525 H 0.42874 0.93646 0.88572 0.0
H526 H 0.4916 0.93245 0.77416 0.0
H527 H 0.56162 0.88 0.78579 0.0
H528 H 0.56119 0.93129 0.87881 0.0
C529 C 0.40669 0.04772 0.85371 0.0
C530 C 0.37824 0.06431 0.82935 0.0
C531 C 0.38656 0.04683 0.79964 0.0
C532 C 0.42195 0.01168 0.79436 0.0
C533 C 0.44909 0.99539 0.81899 0.0
C534 C 0.44272 0.01378 0.84792 0.0
C535 C 0.47859 0.99261 0.8701 0.0
C536 C 0.51161 0.032 0.88323 0.0
C537 C 0.45281 0.96453 0.89547 0.0
C538 C 0.50597 0.95916 0.84919 0.0
C539 C 0.48775 0.96041 0.81996 0.0
C540 C 0.50646 0.93148 0.79689 0.0
C541 C 0.54583 0.90159 0.80372 0.0
C542 C 0.56644 0.90191 0.83311 0.0
C543 C 0.54592 0.93061 0.85614 0.0
loop_
_geom_bond_atom_site_label_1
_geom_bond_atom_site_label_2
_geom_bond_distance
_geom_bond_site_symmetry_2
_ccdc_geom_bond_type
O0 Cd1 2.223 . S
O0 C8 1.315 . S
Cd1 O0 2.223 . S
Cd1 O4 2.297 . S
Cd1 O5 2.439 . S
Cd1 O11 2.240 . S
Cd2 O3 2.240 . S
Cd2 O10 2.223 . S
Cd2 O12 2.297 . S
Cd2 O13 2.439 . S
O3 Cd2 2.240 . S
O3 C8 1.279 . S
O4 Cd1 2.297 . S
O4 C6 1.247 . S
O5 Cd1 2.439 . S
O5 C6 1.208 . S
C6 O4 1.247 . S
C6 O5 1.208 . S
C7 O12 1.247 . S
C7 O13 1.208 . S
C8 O0 1.315 . S
C8 O3 1.279 . S
C9 O10 1.315 . S
C9 O11 1.279 . S
O10 Cd2 2.223 . S
O10 C9 1.315 . S
O11 Cd1 2.240 . S
O11 C9 1.279 . S
O12 Cd2 2.297 . S
O12 C7 1.247 . S
O13 Cd2 2.439 . S
O13 C7 1.208 . S
O14 Cd15 2.223 . S
O14 C22 1.315 . S
Cd15 O14 2.223 . S
Cd15 O18 2.297 . S
Cd15 O19 2.439 . S
Cd15 O25 2.240 . S
Cd16 O17 2.240 . S
Cd16 O24 2.223 . S
Cd16 O26 2.297 . S
Cd16 O27 2.439 . S
O17 Cd16 2.240 . S
O17 C22 1.279 . S
O18 Cd15 2.297 . S
O18 C20 1.247 . S
O19 Cd15 2.439 . S
O19 C20 1.208 . S
C20 O18 1.247 . S
C20 O19 1.208 . S
C21 O26 1.247 . S
C21 O27 1.208 . S
C22 O14 1.315 . S
C22 O17 1.279 . S
C23 O24 1.315 . S
C23 O25 1.279 . S
O24 Cd16 2.223 . S
O24 C23 1.315 . S
O25 Cd15 2.240 . S
O25 C23 1.279 . S
O26 Cd16 2.297 . S
O26 C21 1.247 . S
O27 Cd16 2.439 . S
O27 C21 1.208 . S
O28 Cd29 2.223 . S
O28 C36 1.315 . S
Cd29 O28 2.223 . S
Cd29 O32 2.297 . S
Cd29 O33 2.439 . S
Cd29 O39 2.240 . S
Cd30 O31 2.240 . S
Cd30 O38 2.223 . S
Cd30 O40 2.297 . S
Cd30 O41 2.439 . S
O31 Cd30 2.240 . S
O31 C36 1.279 . S
O32 Cd29 2.297 . S
O32 C34 1.247 . S
O33 Cd29 2.439 . S
O33 C34 1.208 . S
C34 O32 1.247 . S
C34 O33 1.208 . S
C35 O40 1.247 . S
C35 O41 1.208 . S
C36 O28 1.315 . S
C36 O31 1.279 . S
C37 O38 1.315 . S
C37 O39 1.279 . S
O38 Cd30 2.223 . S
O38 C37 1.315 . S
O39 Cd29 2.240 . S
O39 C37 1.279 . S
O40 Cd30 2.297 . S
O40 C35 1.247 . S
O41 Cd30 2.439 . S
O41 C35 1.208 . S
O42 Cd43 2.223 . S
O42 C50 1.315 . S
Cd43 O42 2.223 . S
Cd43 O46 2.297 . S
Cd43 O47 2.439 . S
Cd43 O53 2.240 . S
Cd44 O45 2.240 . S
Cd44 O52 2.223 . S
Cd44 O54 2.297 . S
Cd44 O55 2.439 . S
O45 Cd44 2.240 . S
O45 C50 1.279 . S
O46 Cd43 2.297 . S
O46 C48 1.247 . S
O47 Cd43 2.439 . S
O47 C48 1.208 . S
C48 O46 1.247 . S
C48 O47 1.208 . S
C49 O54 1.247 . S
C49 O55 1.208 . S
C50 O42 1.315 . S
C50 O45 1.279 . S
C51 O52 1.315 . S
C51 O53 1.279 . S
O52 Cd44 2.223 . S
O52 C51 1.315 . S
O53 Cd43 2.240 . S
O53 C51 1.279 . S
O54 Cd44 2.297 . S
O54 C49 1.247 . S
O55 Cd44 2.439 . S
O55 C49 1.208 . S
O56 Cd57 2.223 . S
O56 C64 1.315 . S
Cd57 O56 2.223 . S
Cd57 O60 2.297 . S
Cd57 O61 2.439 . S
Cd57 O67 2.240 . S
Cd58 O59 2.240 . S
Cd58 O66 2.223 . S
Cd58 O68 2.297 . S
Cd58 O69 2.439 . S
O59 Cd58 2.240 . S
O59 C64 1.279 . S
O60 Cd57 2.297 . S
O60 C62 1.247 . S
O61 Cd57 2.439 . S
O61 C62 1.208 . S
C62 O60 1.247 . S
C62 O61 1.208 . S
C63 O68 1.247 . S
C63 O69 1.208 . S
C64 O56 1.315 . S
C64 O59 1.279 . S
C65 O66 1.315 . S
C65 O67 1.279 . S
O66 Cd58 2.223 . S
O66 C65 1.315 . S
O67 Cd57 2.240 . S
O67 C65 1.279 . S
O68 Cd58 2.297 . S
O68 C63 1.247 . S
O69 Cd58 2.439 . S
O69 C63 1.208 . S
O70 Cd71 2.223 . S
O70 C78 1.315 . S
Cd71 O70 2.223 . S
Cd71 O74 2.297 . S
Cd71 O75 2.439 . S
Cd71 O81 2.240 . S
Cd72 O73 2.240 . S
Cd72 O80 2.223 . S
Cd72 O82 2.297 . S
Cd72 O83 2.439 . S
O73 Cd72 2.240 . S
O73 C78 1.279 . S
O74 Cd71 2.297 . S
O74 C76 1.247 . S
O75 Cd71 2.439 . S
O75 C76 1.208 . S
C76 O74 1.247 . S
C76 O75 1.208 . S
C77 O82 1.247 . S
C77 O83 1.208 . S
C78 O70 1.315 . S
C78 O73 1.279 . S
C79 O80 1.315 . S
C79 O81 1.279 . S
O80 Cd72 2.223 . S
O80 C79 1.315 . S
O81 Cd71 2.240 . S
O81 C79 1.279 . S
O82 Cd72 2.297 . S
O82 C77 1.247 . S
O83 Cd72 2.439 . S
O83 C77 1.208 . S
O84 Cd85 2.223 . S
O84 C92 1.315 . S
Cd85 O84 2.223 . S
Cd85 O88 2.297 . S
Cd85 O89 2.439 . S
Cd85 O95 2.240 . S
Cd86 O87 2.240 . S
Cd86 O94 2.223 . S
Cd86 O96 2.297 . S
Cd86 O97 2.439 . S
O87 Cd86 2.240 . S
O87 C92 1.279 . S
O88 Cd85 2.297 . S
O88 C90 1.247 . S
O89 Cd85 2.439 . S
O89 C90 1.208 . S
C90 O88 1.247 . S
C90 O89 1.208 . S
C91 O96 1.247 . S
C91 O97 1.208 . S
C92 O84 1.315 . S
C92 O87 1.279 . S
C93 O94 1.315 . S
C93 O95 1.279 . S
O94 Cd86 2.223 . S
O94 C93 1.315 . S
O95 Cd85 2.240 . S
O95 C93 1.279 . S
O96 Cd86 2.297 . S
O96 C91 1.247 . S
O97 Cd86 2.439 . S
O97 C91 1.208 . S
O98 Cd99 2.223 . S
O98 C106 1.315 . S
Cd99 O98 2.223 . S
Cd99 O102 2.297 . S
Cd99 O103 2.439 . S
Cd99 O109 2.240 . S
Cd100 O101 2.240 . S
Cd100 O108 2.223 . S
Cd100 O110 2.297 . S
Cd100 O111 2.439 . S
O101 Cd100 2.240 . S
O101 C106 1.279 . S
O102 Cd99 2.297 . S
O102 C104 1.247 . S
O103 Cd99 2.439 . S
O103 C104 1.208 . S
C104 O102 1.247 . S
C104 O103 1.208 . S
C105 O110 1.247 . S
C105 O111 1.208 . S
C106 O98 1.315 . S
C106 O101 1.279 . S
C107 O108 1.315 . S
C107 O109 1.279 . S
O108 Cd100 2.223 . S
O108 C107 1.315 . S
O109 Cd99 2.240 . S
O109 C107 1.279 . S
O110 Cd100 2.297 . S
O110 C105 1.247 . S
O111 Cd100 2.439 . S
O111 C105 1.208 . S
H112 C124 0.930 . S
H113 C126 0.930 . S
H114 C127 0.930 1_556 S
H115 C131 0.959 . S
H116 C131 0.959 . S
H117 C131 0.961 . S
H118 C132 0.960 . S
H119 C132 0.961 . S
H120 C132 0.959 . S
H121 C135 0.929 . S
H122 C136 0.931 . S
H123 C138 0.930 . S
C124 H112 0.930 . S
C124 C125 1.399 . S
C124 C129 1.399 . S
C125 C124 1.399 . S
C125 C126 1.376 . S
C126 H113 0.930 . S
C126 C125 1.376 . S
C126 C127 1.388 . S
C127 H114 0.930 1_554 S
C127 C126 1.388 . S
C127 C128 1.390 . S
C128 C127 1.390 . S
C128 C129 1.394 . S
C128 C134 1.465 1_554 S
C129 C124 1.399 . S
C129 C128 1.394 . S
C129 C130 1.516 . S
C130 C129 1.516 . S
C130 C131 1.502 . S
C130 C132 1.561 . S
C130 C133 1.526 1_554 S
C131 H115 0.959 . S
C131 H116 0.959 . S
C131 H117 0.961 . S
C131 C130 1.502 . S
C132 H118 0.960 . S
C132 H119 0.961 . S
C132 H120 0.959 . S
C132 C130 1.561 . S
C133 C130 1.526 1_556 S
C133 C134 1.396 . S
C133 C138 1.390 . S
C134 C128 1.465 1_556 S
C134 C133 1.396 . S
C134 C135 1.399 . S
C135 H121 0.929 . S
C135 C134 1.399 . S
C135 C136 1.385 . S
C136 H122 0.931 . S
C136 C135 1.385 . S
C136 C137 1.389 . S
C137 C136 1.389 . S
C137 C138 1.387 . S
C138 H123 0.930 . S
C138 C133 1.390 . S
C138 C137 1.387 . S
H139 C151 0.930 . S
H140 C153 0.930 . S
H141 C154 0.930 . S
H142 C158 0.959 . S
H143 C158 0.959 . S
H144 C158 0.961 . S
H145 C159 0.960 . S
H146 C159 0.961 . S
H147 C159 0.959 . S
H148 C162 0.929 . S
H149 C163 0.931 . S
H150 C165 0.930 . S
C151 H139 0.930 . S
C151 C152 1.399 . S
C151 C156 1.399 . S
C152 C151 1.399 . S
C152 C153 1.376 . S
C153 H140 0.930 . S
C153 C152 1.376 . S
C153 C154 1.388 . S
C154 H141 0.930 . S
C154 C153 1.388 . S
C154 C155 1.390 . S
C155 C154 1.390 . S
C155 C156 1.394 . S
C155 C161 1.465 . S
C156 C151 1.399 . S
C156 C155 1.394 . S
C156 C157 1.516 . S
C157 C156 1.516 . S
C157 C158 1.502 . S
C157 C159 1.561 . S
C157 C160 1.526 . S
C158 H142 0.959 . S
C158 H143 0.959 . S
C158 H144 0.961 . S
C158 C157 1.502 . S
C159 H145 0.960 . S
C159 H146 0.961 . S
C159 H147 0.959 . S
C159 C157 1.561 . S
C160 C157 1.526 . S
C160 C161 1.396 . S
C160 C165 1.390 . S
C161 C155 1.465 . S
C161 C160 1.396 . S
C161 C162 1.399 . S
C162 H148 0.929 . S
C162 C161 1.399 . S
C162 C163 1.385 . S
C163 H149 0.931 . S
C163 C162 1.385 . S
C163 C164 1.389 . S
C164 C163 1.389 . S
C164 C165 1.387 . S
C165 H150 0.930 . S
C165 C160 1.390 . S
C165 C164 1.387 . S
H166 C178 0.930 . S
H167 C180 0.930 . S
H168 C181 0.930 1_556 S
H169 C185 0.959 . S
H170 C185 0.959 . S
H171 C185 0.961 . S
H172 C186 0.960 . S
H173 C186 0.961 . S
H174 C186 0.959 . S
H175 C189 0.929 . S
H176 C190 0.931 . S
H177 C192 0.930 . S
C178 H166 0.930 . S
C178 C179 1.399 . S
C178 C183 1.399 . S
C179 C178 1.399 . S
C179 C180 1.376 . S
C180 H167 0.930 . S
C180 C179 1.376 . S
C180 C181 1.388 . S
C181 H168 0.930 1_554 S
C181 C180 1.388 . S
C181 C182 1.390 . S
C182 C181 1.390 . S
C182 C183 1.394 . S
C182 C188 1.465 1_554 S
C183 C178 1.399 . S
C183 C182 1.394 . S
C183 C184 1.516 . S
C184 C183 1.516 . S
C184 C185 1.502 . S
C184 C186 1.561 . S
C184 C187 1.526 1_554 S
C185 H169 0.959 . S
C185 H170 0.959 . S
C185 H171 0.961 . S
C185 C184 1.502 . S
C186 H172 0.960 . S
C186 H173 0.961 . S
C186 H174 0.959 . S
C186 C184 1.561 . S
C187 C184 1.526 1_556 S
C187 C188 1.396 . S
C187 C192 1.390 . S
C188 C182 1.465 1_556 S
C188 C187 1.396 . S
C188 C189 1.399 . S
C189 H175 0.929 . S
C189 C188 1.399 . S
C189 C190 1.385 . S
C190 H176 0.931 . S
C190 C189 1.385 . S
C190 C191 1.389 . S
C191 C190 1.389 . S
C191 C192 1.387 . S
C192 H177 0.930 . S
C192 C187 1.390 . S
C192 C191 1.387 . S
H193 C205 0.930 . S
H194 C207 0.930 . S
H195 C208 0.930 . S
H196 C212 0.959 . S
H197 C212 0.959 . S
H198 C212 0.961 . S
H199 C213 0.960 . S
H200 C213 0.961 . S
H201 C213 0.959 . S
H202 C216 0.929 . S
H203 C217 0.931 . S
H204 C219 0.930 . S
C205 H193 0.930 . S
C205 C206 1.399 . S
C205 C210 1.399 . S
C206 C205 1.399 . S
C206 C207 1.376 . S
C207 H194 0.930 . S
C207 C206 1.376 . S
C207 C208 1.388 . S
C208 H195 0.930 . S
C208 C207 1.388 . S
C208 C209 1.390 . S
C209 C208 1.390 . S
C209 C210 1.394 . S
C209 C215 1.465 . S
C210 C205 1.399 . S
C210 C209 1.394 . S
C210 C211 1.516 . S
C211 C210 1.516 . S
C211 C212 1.502 . S
C211 C213 1.561 . S
C211 C214 1.526 . S
C212 H196 0.959 . S
C212 H197 0.959 . S
C212 H198 0.961 . S
C212 C211 1.502 . S
C213 H199 0.960 . S
C213 H200 0.961 . S
C213 H201 0.959 . S
C213 C211 1.561 . S
C214 C211 1.526 . S
C214 C215 1.396 . S
C214 C219 1.390 . S
C215 C209 1.465 . S
C215 C214 1.396 . S
C215 C216 1.399 . S
C216 H202 0.929 . S
C216 C215 1.399 . S
C216 C217 1.385 . S
C217 H203 0.931 . S
C217 C216 1.385 . S
C217 C218 1.389 . S
C218 C217 1.389 . S
C218 C219 1.387 . S
C219 H204 0.930 . S
C219 C214 1.390 . S
C219 C218 1.387 . S
H220 C232 0.930 . S
H221 C234 0.930 . S
H222 C235 0.930 . S
H223 C239 0.959 . S
H224 C239 0.959 . S
H225 C239 0.961 . S
H226 C240 0.960 . S
H227 C240 0.961 . S
H228 C240 0.959 . S
H229 C243 0.929 . S
H230 C244 0.931 . S
H231 C246 0.930 . S
C232 H220 0.930 . S
C232 C233 1.399 . S
C232 C237 1.399 . S
C233 C232 1.399 . S
C233 C234 1.376 . S
C234 H221 0.930 . S
C234 C233 1.376 . S
C234 C235 1.388 . S
C235 H222 0.930 . S
C235 C234 1.388 . S
C235 C236 1.390 . S
C236 C235 1.390 . S
C236 C237 1.394 . S
C236 C242 1.465 . S
C237 C232 1.399 . S
C237 C236 1.394 . S
C237 C238 1.516 . S
C238 C237 1.516 . S
C238 C239 1.502 . S
C238 C240 1.561 . S
C238 C241 1.526 . S
C239 H223 0.959 . S
C239 H224 0.959 . S
C239 H225 0.961 . S
C239 C238 1.502 . S
C240 H226 0.960 . S
C240 H227 0.961 . S
C240 H228 0.959 . S
C240 C238 1.561 . S
C241 C238 1.526 . S
C241 C242 1.396 . S
C241 C246 1.390 . S
C242 C236 1.465 . S
C242 C241 1.396 . S
C242 C243 1.399 . S
C243 H229 0.929 . S
C243 C242 1.399 . S
C243 C244 1.385 . S
C244 H230 0.931 . S
C244 C243 1.385 . S
C244 C245 1.389 . S
C245 C244 1.389 . S
C245 C246 1.387 . S
C246 H231 0.930 . S
C246 C241 1.390 . S
C246 C245 1.387 . S
H247 C259 0.930 . S
H248 C261 0.930 . S
H249 C262 0.930 . S
H250 C266 0.959 . S
H251 C266 0.959 . S
H252 C266 0.961 . S
H253 C267 0.960 . S
H254 C267 0.961 . S
H255 C267 0.959 . S
H256 C270 0.929 . S
H257 C271 0.931 . S
H258 C273 0.930 . S
C259 H247 0.930 . S
C259 C260 1.399 . S
C259 C264 1.399 . S
C260 C259 1.399 . S
C260 C261 1.376 . S
C261 H248 0.930 . S
C261 C260 1.376 . S
C261 C262 1.388 . S
C262 H249 0.930 . S
C262 C261 1.388 . S
C262 C263 1.390 . S
C263 C262 1.390 . S
C263 C264 1.394 . S
C263 C269 1.465 . S
C264 C259 1.399 . S
C264 C263 1.394 . S
C264 C265 1.516 . S
C265 C264 1.516 . S
C265 C266 1.502 . S
C265 C267 1.561 . S
C265 C268 1.526 . S
C266 H250 0.959 . S
C266 H251 0.959 . S
C266 H252 0.961 . S
C266 C265 1.502 . S
C267 H253 0.960 . S
C267 H254 0.961 . S
C267 H255 0.959 . S
C267 C265 1.561 . S
C268 C265 1.526 . S
C268 C269 1.396 . S
C268 C273 1.390 . S
C269 C263 1.465 . S
C269 C268 1.396 . S
C269 C270 1.399 . S
C270 H256 0.929 . S
C270 C269 1.399 . S
C270 C271 1.385 1_565 S
C271 H257 0.931 . S
C271 C270 1.385 1_545 S
C271 C272 1.389 . S
C272 C271 1.389 . S
C272 C273 1.387 1_545 S
C273 H258 0.930 . S
C273 C268 1.390 . S
C273 C272 1.387 1_565 S
H274 C286 0.930 . S
H275 C288 0.930 . S
H276 C289 0.930 . S
H277 C293 0.959 . S
H278 C293 0.959 . S
H279 C293 0.961 . S
H280 C294 0.960 . S
H281 C294 0.961 . S
H282 C294 0.959 . S
H283 C297 0.929 . S
H284 C298 0.931 . S
H285 C300 0.930 . S
C286 H274 0.930 . S
C286 C287 1.399 . S
C286 C291 1.399 . S
C287 C286 1.399 . S
C287 C288 1.376 . S
C288 H275 0.930 . S
C288 C287 1.376 . S
C288 C289 1.388 . S
C289 H276 0.930 . S
C289 C288 1.388 . S
C289 C290 1.390 . S
C290 C289 1.390 . S
C290 C291 1.394 . S
C290 C296 1.465 . S
C291 C286 1.399 . S
C291 C290 1.394 . S
C291 C292 1.516 . S
C292 C291 1.516 . S
C292 C293 1.502 . S
C292 C294 1.561 . S
C292 C295 1.526 . S
C293 H277 0.959 . S
C293 H278 0.959 . S
C293 H279 0.961 . S
C293 C292 1.502 . S
C294 H280 0.960 . S
C294 H281 0.961 . S
C294 H282 0.959 . S
C294 C292 1.561 . S
C295 C292 1.526 . S
C295 C296 1.396 . S
C295 C300 1.390 . S
C296 C290 1.465 . S
C296 C295 1.396 . S
C296 C297 1.399 . S
C297 H283 0.929 . S
C297 C296 1.399 . S
C297 C298 1.385 . S
C298 H284 0.931 . S
C298 C297 1.385 . S
C298 C299 1.389 . S
C299 C298 1.389 . S
C299 C300 1.387 . S
C300 H285 0.930 . S
C300 C295 1.390 . S
C300 C299 1.387 . S
H301 C313 0.930 . S
H302 C315 0.930 . S
H303 C316 0.930 . S
H304 C320 0.959 . S
H305 C320 0.959 . S
H306 C320 0.961 . S
H307 C321 0.960 . S
H308 C321 0.961 . S
H309 C321 0.959 . S
H310 C324 0.929 . S
H311 C325 0.931 . S
H312 C327 0.930 . S
C313 H301 0.930 . S
C313 C314 1.399 . S
C313 C318 1.399 . S
C314 C313 1.399 . S
C314 C315 1.376 . S
C315 H302 0.930 . S
C315 C314 1.376 . S
C315 C316 1.388 . S
C316 H303 0.930 . S
C316 C315 1.388 . S
C316 C317 1.390 . S
C317 C316 1.390 . S
C317 C318 1.394 . S
C317 C323 1.465 . S
C318 C313 1.399 . S
C318 C317 1.394 . S
C318 C319 1.516 . S
C319 C318 1.516 . S
C319 C320 1.502 . S
C319 C321 1.561 . S
C319 C322 1.526 . S
C320 H304 0.959 . S
C320 H305 0.959 . S
C320 H306 0.961 . S
C320 C319 1.502 . S
C321 H307 0.960 . S
C321 H308 0.961 . S
C321 H309 0.959 . S
C321 C319 1.561 . S
C322 C319 1.526 . S
C322 C323 1.396 . S
C322 C327 1.390 . S
C323 C317 1.465 . S
C323 C322 1.396 . S
C323 C324 1.399 . S
C324 H310 0.929 . S
C324 C323 1.399 . S
C324 C325 1.385 1_545 S
C325 H311 0.931 . S
C325 C324 1.385 1_565 S
C325 C326 1.389 . S
C326 C325 1.389 . S
C326 C327 1.387 1_565 S
C327 H312 0.930 . S
C327 C322 1.390 . S
C327 C326 1.387 1_545 S
H328 C340 0.930 . S
H329 C342 0.930 . S
H330 C343 0.930 . S
H331 C347 0.959 . S
H332 C347 0.959 . S
H333 C347 0.961 . S
H334 C348 0.960 . S
H335 C348 0.961 . S
H336 C348 0.959 . S
H337 C351 0.929 . S
H338 C352 0.931 . S
H339 C354 0.930 1_455 S
C340 H328 0.930 . S
C340 C341 1.399 . S
C340 C345 1.399 . S
C341 C340 1.399 . S
C341 C342 1.376 . S
C342 H329 0.930 . S
C342 C341 1.376 . S
C342 C343 1.388 . S
C343 H330 0.930 . S
C343 C342 1.388 . S
C343 C344 1.390 . S
C344 C343 1.390 . S
C344 C345 1.394 . S
C344 C350 1.465 . S
C345 C340 1.399 . S
C345 C344 1.394 . S
C345 C346 1.516 . S
C346 C345 1.516 . S
C346 C347 1.502 . S
C346 C348 1.561 . S
C346 C349 1.526 . S
C347 H331 0.959 . S
C347 H332 0.959 . S
C347 H333 0.961 . S
C347 C346 1.502 . S
C348 H334 0.960 . S
C348 H335 0.961 . S
C348 H336 0.959 . S
C348 C346 1.561 . S
C349 C346 1.526 . S
C349 C350 1.396 . S
C349 C354 1.390 . S
C350 C344 1.465 . S
C350 C349 1.396 . S
C350 C351 1.399 . S
C351 H337 0.929 . S
C351 C350 1.399 . S
C351 C352 1.385 . S
C352 H338 0.931 . S
C352 C351 1.385 . S
C352 C353 1.371 1_655 S
C353 C352 1.371 1_455 S
C353 C354 1.383 1_455 S
C354 H339 0.930 1_655 S
C354 C349 1.390 . S
C354 C353 1.383 1_655 S
H355 C367 0.930 . S
H356 C369 0.930 . S
H357 C370 0.930 . S
H358 C374 0.959 . S
H359 C374 0.959 . S
H360 C374 0.961 . S
H361 C375 0.960 . S
H362 C375 0.961 . S
H363 C375 0.959 . S
H364 C378 0.929 . S
H365 C379 0.931 . S
H366 C381 0.930 . S
C367 H355 0.930 . S
C367 C368 1.399 . S
C367 C372 1.399 . S
C368 C367 1.399 . S
C368 C369 1.376 . S
C369 H356 0.930 . S
C369 C368 1.376 . S
C369 C370 1.388 . S
C370 H357 0.930 . S
C370 C369 1.388 . S
C370 C371 1.390 . S
C371 C370 1.390 . S
C371 C372 1.394 . S
C371 C377 1.465 . S
C372 C367 1.399 . S
C372 C371 1.394 . S
C372 C373 1.516 . S
C373 C372 1.516 . S
C373 C374 1.502 . S
C373 C375 1.561 . S
C373 C376 1.526 . S
C374 H358 0.959 . S
C374 H359 0.959 . S
C374 H360 0.961 . S
C374 C373 1.502 . S
C375 H361 0.960 . S
C375 H362 0.961 . S
C375 H363 0.959 . S
C375 C373 1.561 . S
C376 C373 1.526 . S
C376 C377 1.396 . S
C376 C381 1.390 . S
C377 C371 1.465 . S
C377 C376 1.396 . S
C377 C378 1.399 . S
C378 H364 0.929 . S
C378 C377 1.399 . S
C378 C379 1.385 . S
C379 H365 0.931 . S
C379 C378 1.385 . S
C379 C380 1.389 . S
C380 C379 1.389 . S
C380 C381 1.387 . S
C381 H366 0.930 . S
C381 C376 1.390 . S
C381 C380 1.387 . S
H382 C394 0.930 . S
H383 C396 0.930 . S
H384 C397 0.930 . S
H385 C401 0.959 . S
H386 C401 0.959 . S
H387 C401 0.961 . S
H388 C402 0.960 . S
H389 C402 0.961 . S
H390 C402 0.959 . S
H391 C405 0.929 . S
H392 C406 0.931 1_655 S
H393 C408 0.930 . S
C394 H382 0.930 . S
C394 C395 1.399 . S
C394 C399 1.399 . S
C395 C394 1.399 . S
C395 C396 1.376 . S
C396 H383 0.930 . S
C396 C395 1.376 . S
C396 C397 1.388 . S
C397 H384 0.930 . S
C397 C396 1.388 . S
C397 C398 1.390 . S
C398 C397 1.390 . S
C398 C399 1.394 . S
C398 C404 1.465 . S
C399 C394 1.399 . S
C399 C398 1.394 . S
C399 C400 1.516 . S
C400 C399 1.516 . S
C400 C401 1.502 . S
C400 C402 1.561 . S
C400 C403 1.526 . S
C401 H385 0.959 . S
C401 H386 0.959 . S
C401 H387 0.961 . S
C401 C400 1.502 . S
C402 H388 0.960 . S
C402 H389 0.961 . S
C402 H390 0.959 . S
C402 C400 1.561 . S
C403 C400 1.526 . S
C403 C404 1.396 . S
C403 C408 1.390 . S
C404 C398 1.465 . S
C404 C403 1.396 . S
C404 C405 1.399 . S
C405 H391 0.929 . S
C405 C404 1.399 . S
C405 C406 1.385 . S
C406 H392 0.931 1_455 S
C406 C405 1.385 . S
C406 C407 1.389 1_455 S
C407 C406 1.389 1_655 S
C407 C408 1.387 1_655 S
C408 H393 0.930 . S
C408 C403 1.390 . S
C408 C407 1.387 1_455 S
H409 C421 0.930 . S
H410 C423 0.930 . S
H411 C424 0.930 . S
H412 C428 0.959 . S
H413 C428 0.959 . S
H414 C428 0.961 . S
H415 C429 0.960 . S
H416 C429 0.961 . S
H417 C429 0.959 . S
H418 C432 0.929 . S
H419 C433 0.931 . S
H420 C435 0.930 . S
C421 H409 0.930 . S
C421 C422 1.399 . S
C421 C426 1.399 . S
C422 C421 1.399 . S
C422 C423 1.376 . S
C423 H410 0.930 . S
C423 C422 1.376 . S
C423 C424 1.388 . S
C424 H411 0.930 . S
C424 C423 1.388 . S
C424 C425 1.390 . S
C425 C424 1.390 . S
C425 C426 1.394 . S
C425 C431 1.465 . S
C426 C421 1.399 . S
C426 C425 1.394 . S
C426 C427 1.516 . S
C427 C426 1.516 . S
C427 C428 1.502 . S
C427 C429 1.561 . S
C427 C430 1.526 . S
C428 H412 0.959 . S
C428 H413 0.959 . S
C428 H414 0.961 . S
C428 C427 1.502 . S
C429 H415 0.960 . S
C429 H416 0.961 . S
C429 H417 0.959 . S
C429 C427 1.561 . S
C430 C427 1.526 . S
C430 C431 1.396 . S
C430 C435 1.390 . S
C431 C425 1.465 . S
C431 C430 1.396 . S
C431 C432 1.399 . S
C432 H418 0.929 . S
C432 C431 1.399 . S
C432 C433 1.385 . S
C433 H419 0.931 . S
C433 C432 1.385 . S
C433 C434 1.389 . S
C434 C433 1.389 . S
C434 C435 1.387 . S
C435 H420 0.930 . S
C435 C430 1.390 . S
C435 C434 1.387 . S
H436 C448 0.930 . S
H437 C450 0.930 . S
H438 C451 0.930 . S
H439 C455 0.959 . S
H440 C455 0.959 . S
H441 C455 0.961 . S
H442 C456 0.960 . S
H443 C456 0.961 . S
H444 C456 0.959 . S
H445 C459 0.929 . S
H446 C460 0.931 . S
H447 C462 0.930 . S
C448 H436 0.930 . S
C448 C449 1.399 . S
C448 C453 1.399 . S
C449 C448 1.399 . S
C449 C450 1.376 . S
C450 H437 0.930 . S
C450 C449 1.376 . S
C450 C451 1.388 . S
C451 H438 0.930 . S
C451 C450 1.388 . S
C451 C452 1.390 . S
C452 C451 1.390 . S
C452 C453 1.394 . S
C452 C458 1.465 1_655 S
C453 C448 1.399 . S
C453 C452 1.394 . S
C453 C454 1.516 1_655 S
C454 C453 1.516 1_455 S
C454 C455 1.502 . S
C454 C456 1.561 1_455 S
C454 C457 1.526 . S
C455 H439 0.959 . S
C455 H440 0.959 . S
C455 H441 0.961 . S
C455 C454 1.502 . S
C456 H442 0.960 . S
C456 H443 0.961 . S
C456 H444 0.959 . S
C456 C454 1.561 1_655 S
C457 C454 1.526 . S
C457 C458 1.396 . S
C457 C462 1.390 . S
C458 C452 1.465 1_455 S
C458 C457 1.396 . S
C458 C459 1.399 . S
C459 H445 0.929 . S
C459 C458 1.399 . S
C459 C460 1.385 . S
C460 H446 0.931 . S
C460 C459 1.385 . S
C460 C461 1.389 . S
C461 C460 1.389 . S
C461 C462 1.387 . S
C462 H447 0.930 . S
C462 C457 1.390 . S
C462 C461 1.387 . S
H463 C475 0.930 . S
H464 C477 0.930 . S
H465 C478 0.930 . S
H466 C482 0.959 . S
H467 C482 0.959 . S
H468 C482 0.961 1_655 S
H469 C483 0.960 . S
H470 C483 0.961 . S
H471 C483 0.959 . S
H472 C486 0.929 . S
H473 C487 0.931 . S
H474 C489 0.930 . S
C475 H463 0.930 . S
C475 C476 1.399 . S
C475 C480 1.399 . S
C476 C475 1.399 . S
C476 C477 1.376 . S
C477 H464 0.930 . S
C477 C476 1.376 . S
C477 C478 1.388 . S
C478 H465 0.930 . S
C478 C477 1.388 . S
C478 C479 1.390 . S
C479 C478 1.390 . S
C479 C480 1.394 . S
C479 C485 1.465 1_655 S
C480 C475 1.399 . S
C480 C479 1.394 . S
C480 C481 1.516 . S
C481 C480 1.516 . S
C481 C482 1.502 1_655 S
C481 C483 1.561 . S
C481 C484 1.526 1_655 S
C482 H466 0.959 . S
C482 H467 0.959 . S
C482 H468 0.961 1_455 S
C482 C481 1.502 1_455 S
C483 H469 0.960 . S
C483 H470 0.961 . S
C483 H471 0.959 . S
C483 C481 1.561 . S
C484 C481 1.526 1_455 S
C484 C485 1.396 . S
C484 C489 1.390 . S
C485 C479 1.465 1_455 S
C485 C484 1.396 . S
C485 C486 1.399 . S
C486 H472 0.929 . S
C486 C485 1.399 . S
C486 C487 1.385 . S
C487 H473 0.931 . S
C487 C486 1.385 . S
C487 C488 1.389 . S
C488 C487 1.389 . S
C488 C489 1.387 . S
C489 H474 0.930 . S
C489 C484 1.390 . S
C489 C488 1.387 . S
H490 C502 0.930 . S
H491 C504 0.930 . S
H492 C505 0.930 . S
H493 C509 0.959 . S
H494 C509 0.959 . S
H495 C509 0.961 . S
H496 C510 0.960 . S
H497 C510 0.961 . S
H498 C510 0.959 . S
H499 C513 0.929 . S
H500 C514 0.931 . S
H501 C516 0.930 . S
C502 H490 0.930 . S
C502 C503 1.399 . S
C502 C507 1.399 . S
C503 C502 1.399 . S
C503 C504 1.376 . S
C504 H491 0.930 . S
C504 C503 1.376 . S
C504 C505 1.388 . S
C505 H492 0.930 . S
C505 C504 1.388 . S
C505 C506 1.390 . S
C506 C505 1.390 . S
C506 C507 1.394 . S
C506 C512 1.465 1_545 S
C507 C502 1.399 . S
C507 C506 1.394 . S
C507 C508 1.516 1_545 S
C508 C507 1.516 1_565 S
C508 C509 1.502 . S
C508 C510 1.561 1_565 S
C508 C511 1.526 . S
C509 H493 0.959 . S
C509 H494 0.959 . S
C509 H495 0.961 . S
C509 C508 1.502 . S
C510 H496 0.960 . S
C510 H497 0.961 . S
C510 H498 0.959 . S
C510 C508 1.561 1_545 S
C511 C508 1.526 . S
C511 C512 1.396 . S
C511 C516 1.390 . S
C512 C506 1.465 1_565 S
C512 C511 1.396 . S
C512 C513 1.399 . S
C513 H499 0.929 . S
C513 C512 1.399 . S
C513 C514 1.385 . S
C514 H500 0.931 . S
C514 C513 1.385 . S
C514 C515 1.389 . S
C515 C514 1.389 . S
C515 C516 1.387 . S
C516 H501 0.930 . S
C516 C511 1.390 . S
C516 C515 1.387 . S
H517 C529 0.930 . S
H518 C531 0.930 . S
H519 C532 0.930 . S
H520 C536 0.959 . S
H521 C536 0.959 . S
H522 C536 0.961 . S
H523 C537 0.960 . S
H524 C537 0.961 . S
H525 C537 0.959 . S
H526 C540 0.929 . S
H527 C541 0.931 . S
H528 C543 0.930 . S
C529 H517 0.930 . S
C529 C530 1.399 . S
C529 C534 1.399 . S
C530 C529 1.399 . S
C530 C531 1.376 . S
C531 H518 0.930 . S
C531 C530 1.376 . S
C531 C532 1.388 . S
C532 H519 0.930 . S
C532 C531 1.388 . S
C532 C533 1.390 . S
C533 C532 1.390 . S
C533 C534 1.394 . S
C533 C539 1.465 1_545 S
C534 C529 1.399 . S
C534 C533 1.394 . S
C534 C535 1.516 1_545 S
C535 C534 1.516 1_565 S
C535 C536 1.502 1_565 S
C535 C537 1.561 . S
C535 C538 1.526 . S
C536 H520 0.959 . S
C536 H521 0.959 . S
C536 H522 0.961 . S
C536 C535 1.502 1_545 S
C537 H523 0.960 . S
C537 H524 0.961 . S
C537 H525 0.959 . S
C537 C535 1.561 . S
C538 C535 1.526 . S
C538 C539 1.396 . S
C538 C543 1.390 . S
C539 C533 1.465 1_565 S
C539 C538 1.396 . S
C539 C540 1.399 . S
C540 H526 0.929 . S
C540 C539 1.399 . S
C540 C541 1.385 . S
C541 H527 0.931 . S
C541 C540 1.385 . S
C541 C542 1.389 . S
C542 C541 1.389 . S
C542 C543 1.387 . S
C543 H528 0.930 . S
C543 C538 1.390 . S
C543 C542 1.387 . S
C125 C8 1.534 . S
C137 C78 1.486 . S
C152 C22 1.529 . S
C164 C92 1.516 . S
C179 C36 1.534 . S
C191 C106 1.486 . S
C206 C64 1.484 . S
C218 C50 1.530 . S
C233 C6 1.446 . S
C245 C63 1.502 . S
C260 C20 1.491 . S
C272 C77 1.503 . S
C287 C91 1.458 . S
C299 C34 1.448 . S
C314 C48 1.502 . S
C326 C105 1.488 . S
C341 C62 1.479 . S
C353 C7 1.471 . S
C368 C21 1.453 . S
C380 C76 1.485 . S
C395 C90 1.436 . S
C407 C35 1.487 . S
C422 C49 1.451 . S
C434 C104 1.470 . S
C449 C37 1.055 . S
C461 C9 0.997 . S
C476 C51 0.947 . S
C488 C23 0.969 . S
C503 C65 0.934 . S
C515 C93 0.987 . S
C530 C79 0.941 . S
C542 C107 0.977 . S
