# Generated by pormake.
# Topology uoy, (4)-cn, num edge types: 1
# Building blocks:
#     Node 0, Type 0, BuildingBlock: UXUYUI_clean_sbu_0, # of connection points: 4
#     Node 1, Type 0, BuildingBlock: UXUYUI_clean_sbu_0, # of connection points: 4
#     Node 2, Type 0, BuildingBlock: UXUYUI_clean_sbu_0, # of connection points: 4
#     Node 3, Type 0, BuildingBlock: UXUYUI_clean_sbu_0, # of connection points: 4
#     Node 4, Type 0, BuildingBlock: UXUYUI_clean_sbu_0, # of connection points: 4
#     Node 5, Type 0, BuildingBlock: UXUYUI_clean_sbu_0, # of connection points: 4
#     Node 6, Type 0, BuildingBlock: UXUYUI_clean_sbu_0, # of connection points: 4
#     Node 7, Type 0, BuildingBlock: UXUYUI_clean_sbu_0, # of connection points: 4
#     Node 8, Type 0, BuildingBlock: UXUYUI_clean_sbu_0, # of connection points: 4
#     Node 9, Type 0, BuildingBlock: UXUYUI_clean_sbu_0, # of connection points: 4
#     Node 10, Type 0, BuildingBlock: UXUYUI_clean_sbu_0, # of connection points: 4
#     Node 11, Type 0, BuildingBlock: UXUYUI_clean_sbu_0, # of connection points: 4
#     Node 12, Type 0, BuildingBlock: UXUYUI_clean_sbu_0, # of connection points: 4
#     Node 13, Type 0, BuildingBlock: UXUYUI_clean_sbu_0, # of connection points: 4
#     Node 14, Type 0, BuildingBlock: UXUYUI_clean_sbu_0, # of connection points: 4
#     Node 15, Type 0, BuildingBlock: UXUYUI_clean_sbu_0, # of connection points: 4
#     Edge 16, Type (0, 0), BuildingBlock: XIVTED_clean_linker_0, # of connection points: 2
#     Edge 17, Type (0, 0), BuildingBlock: XIVTED_clean_linker_0, # of connection points: 2
#     Edge 18, Type (0, 0), BuildingBlock: XIVTED_clean_linker_0, # of connection points: 2
#     Edge 19, Type (0, 0), BuildingBlock: XIVTED_clean_linker_0, # of connection points: 2
#     Edge 20, Type (0, 0), BuildingBlock: XIVTED_clean_linker_0, # of connection points: 2
#     Edge 21, Type (0, 0), BuildingBlock: XIVTED_clean_linker_0, # of connection points: 2
#     Edge 22, Type (0, 0), BuildingBlock: XIVTED_clean_linker_0, # of connection points: 2
#     Edge 23, Type (0, 0), BuildingBlock: XIVTED_clean_linker_0, # of connection points: 2
#     Edge 24, Type (0, 0), BuildingBlock: XIVTED_clean_linker_0, # of connection points: 2
#     Edge 25, Type (0, 0), BuildingBlock: XIVTED_clean_linker_0, # of connection points: 2
#     Edge 26, Type (0, 0), BuildingBlock: XIVTED_clean_linker_0, # of connection points: 2
#     Edge 27, Type (0, 0), BuildingBlock: XIVTED_clean_linker_0, # of connection points: 2
#     Edge 28, Type (0, 0), BuildingBlock: XIVTED_clean_linker_0, # of connection points: 2
#     Edge 29, Type (0, 0), BuildingBlock: XIVTED_clean_linker_0, # of connection points: 2
#     Edge 30, Type (0, 0), BuildingBlock: XIVTED_clean_linker_0, # of connection points: 2
#     Edge 31, Type (0, 0), BuildingBlock: XIVTED_clean_linker_0, # of connection points: 2
#     Edge 32, Type (0, 0), BuildingBlock: XIVTED_clean_linker_0, # of connection points: 2
#     Edge 33, Type (0, 0), BuildingBlock: XIVTED_clean_linker_0, # of connection points: 2
#     Edge 34, Type (0, 0), BuildingBlock: XIVTED_clean_linker_0, # of connection points: 2
#     Edge 35, Type (0, 0), BuildingBlock: XIVTED_clean_linker_0, # of connection points: 2
#     Edge 36, Type (0, 0), BuildingBlock: XIVTED_clean_linker_0, # of connection points: 2
#     Edge 37, Type (0, 0), BuildingBlock: XIVTED_clean_linker_0, # of connection points: 2
#     Edge 38, Type (0, 0), BuildingBlock: XIVTED_clean_linker_0, # of connection points: 2
#     Edge 39, Type (0, 0), BuildingBlock: XIVTED_clean_linker_0, # of connection points: 2
#     Edge 40, Type (0, 0), BuildingBlock: XIVTED_clean_linker_0, # of connection points: 2
#     Edge 41, Type (0, 0), BuildingBlock: XIVTED_clean_linker_0, # of connection points: 2
#     Edge 42, Type (0, 0), BuildingBlock: XIVTED_clean_linker_0, # of connection points: 2
#     Edge 43, Type (0, 0), BuildingBlock: XIVTED_clean_linker_0, # of connection points: 2
#     Edge 44, Type (0, 0), BuildingBlock: XIVTED_clean_linker_0, # of connection points: 2
#     Edge 45, Type (0, 0), BuildingBlock: XIVTED_clean_linker_0, # of connection points: 2
#     Edge 46, Type (0, 0), BuildingBlock: XIVTED_clean_linker_0, # of connection points: 2
#     Edge 47, Type (0, 0), BuildingBlock: XIVTED_clean_linker_0, # of connection points: 2
# Relax obj value: 0.195
# Max RMSD: 0.201
# Mean RMSD: 0.200
data_MOF--net-uoy--node1-UXUYUI_clean_sbu_0--edge1-XIVTED_clean_linker_0
_symmetry_space_group_name_H-M    P1
_symmetry_Int_Tables_number       1
_symmetry_cell_setting            triclinic
loop_
_symmetry_equiv_pos_as_xyz
'x, y, z'
_cell_length_a     40.177828
_cell_length_b     40.191699
_cell_length_c     157.9173
_cell_angle_alpha  90.019585
_cell_angle_beta   90.007344
_cell_angle_gamma 89.968641
loop_
_atom_site_label
_atom_site_type_symbol
_atom_site_fract_x
_atom_site_fract_y
_atom_site_fract_z
_atom_type_partial_charge
Li0 Li 0.27338 0.08847 0.1791 0.0
Li1 Li 0.24292 0.12877 0.18753 0.0
Li2 Li 0.21048 0.08988 0.17866 0.0
Li3 Li 0.24241 0.13423 0.1727 0.0
C4 C 0.23766 0.04662 0.19044 0.0
N5 N 0.22978 0.98023 0.1945 0.0
C6 C 0.23193 0.03716 0.19882 0.0
C7 C 0.23916 0.02234 0.1841 0.0
C8 C 0.22809 0.00345 0.20075 0.0
C9 C 0.23517 0.98891 0.18629 0.0
C10 C 0.30078 0.15529 0.18533 0.0
C11 C 0.31601 0.20848 0.19124 0.0
N12 N 0.33776 0.19298 0.19653 0.0
C13 C 0.32342 0.13989 0.19079 0.0
C14 C 0.29713 0.18986 0.18552 0.0
C15 C 0.34184 0.15939 0.19642 0.0
C16 C 0.33647 0.07426 0.17292 0.0
N17 N 0.31398 0.06392 0.17878 0.0
C18 C 0.35379 0.0263 0.18471 0.0
C19 C 0.32207 0.04055 0.18466 0.0
C20 C 0.37758 0.03663 0.17875 0.0
C21 C 0.36845 0.06075 0.17275 0.0
H22 H 0.32994 0.09394 0.16857 0.0
H23 H 0.30452 0.03381 0.18954 0.0
C24 C 0.22947 0.17867 0.20011 0.0
N25 N 0.24392 0.14883 0.19838 0.0
C26 C 0.23038 0.19154 0.20833 0.0
C27 C 0.26087 0.14265 0.21276 0.0
C28 C 0.2595 0.13086 0.20448 0.0
C29 C 0.24599 0.17325 0.21479 0.0
H30 H 0.21701 0.19231 0.19514 0.0
H31 H 0.2709 0.10729 0.2029 0.0
C32 C 0.23832 0.08738 0.1606 0.0
N33 N 0.23007 0.09158 0.14325 0.0
C34 C 0.2064 0.08694 0.15708 0.0
C35 C 0.26603 0.08979 0.15529 0.0
C36 C 0.20275 0.08907 0.14829 0.0
C37 C 0.26135 0.09199 0.14654 0.0
C38 C 0.185 0.16299 0.17705 0.0
C39 C 0.15446 0.15583 0.17321 0.0
C40 C 0.19629 0.19585 0.17735 0.0
C41 C 0.13584 0.18171 0.16968 0.0
C42 C 0.17697 0.22102 0.17373 0.0
N43 N 0.1474 0.21348 0.17 0.0
C44 C 0.14677 0.07558 0.18395 0.0
C45 C 0.16503 0.03931 0.17305 0.0
C46 C 0.11514 0.06145 0.1838 0.0
N47 N 0.17058 0.06498 0.17848 0.0
C48 C 0.13363 0.02442 0.17268 0.0
C49 C 0.10798 0.03604 0.17797 0.0
H50 H 0.15216 0.09579 0.18827 0.0
H51 H 0.18463 0.03111 0.16885 0.0
C52 C 0.27351 0.18017 0.16171 0.0
N53 N 0.24435 0.16421 0.1633 0.0
C54 C 0.27697 0.19977 0.15446 0.0
C55 C 0.22027 0.18636 0.15068 0.0
C56 C 0.21788 0.16724 0.158 0.0
C57 C 0.25021 0.20272 0.14878 0.0
H58 H 0.29434 0.17704 0.16597 0.0
H59 H 0.19516 0.1539 0.15928 0.0
O60 O 0.24086 0.07958 0.18844 0.0
O61 O 0.28181 0.13656 0.17995 0.0
O62 O 0.24238 0.08558 0.1692 0.0
O63 O 0.20355 0.13798 0.18056 0.0
H64 H 0.23041 0.05567 0.20379 0.0
H65 H 0.24347 0.02917 0.17757 0.0
H66 H 0.22371 0.99576 0.20722 0.0
H67 H 0.23634 0.96986 0.18146 0.0
H68 H 0.31333 0.23524 0.19148 0.0
H69 H 0.3264 0.11315 0.19078 0.0
H70 H 0.27982 0.20216 0.18131 0.0
H71 H 0.35929 0.1478 0.20073 0.0
H72 H 0.35999 0.00835 0.18958 0.0
H73 H 0.38596 0.06942 0.16803 0.0
H74 H 0.21847 0.21516 0.20965 0.0
H75 H 0.27369 0.12806 0.21752 0.0
H76 H 0.1846 0.08588 0.16107 0.0
H77 H 0.29089 0.09018 0.15788 0.0
H78 H 0.17818 0.08903 0.14549 0.0
H79 H 0.28259 0.09405 0.14237 0.0
H80 H 0.1454 0.13055 0.17286 0.0
H81 H 0.21994 0.20181 0.18023 0.0
H82 H 0.11226 0.1765 0.16665 0.0
H83 H 0.18553 0.24652 0.17386 0.0
H84 H 0.09637 0.07063 0.18813 0.0
H85 H 0.12917 0.00492 0.16808 0.0
H86 H 0.30044 0.21217 0.15329 0.0
H87 H 0.19919 0.18725 0.14642 0.0
Li88 Li 0.89216 0.78344 0.42949 0.0
Li89 Li 0.84786 0.75309 0.43628 0.0
Li90 Li 0.89262 0.72081 0.42974 0.0
Li91 Li 0.85154 0.75032 0.42132 0.0
C92 C 0.89552 0.76156 0.44773 0.0
N93 N 0.89118 0.77818 0.46468 0.0
C94 C 0.89163 0.79478 0.45017 0.0
C95 C 0.89727 0.73681 0.45393 0.0
C96 C 0.88954 0.80269 0.45876 0.0
C97 C 0.89495 0.7457 0.46246 0.0
C98 C 0.81985 0.81141 0.43118 0.0
C99 C 0.76226 0.82316 0.43431 0.0
N100 N 0.77119 0.85348 0.43739 0.0
C101 C 0.82844 0.84275 0.43435 0.0
C102 C 0.78648 0.80157 0.43112 0.0
C103 C 0.80347 0.86363 0.43747 0.0
C104 C 0.90832 0.84562 0.42315 0.0
N105 N 0.91778 0.82302 0.42907 0.0
C106 C 0.95846 0.86058 0.43458 0.0
C107 C 0.94291 0.82947 0.43459 0.0
C108 C 0.9481 0.88506 0.42878 0.0
C109 C 0.92317 0.87693 0.42289 0.0
H110 H 0.88844 0.83958 0.41879 0.0
H111 H 0.95013 0.81086 0.43919 0.0
C112 C 0.80936 0.72134 0.4487 0.0
N113 N 0.81919 0.7519 0.44597 0.0
C114 C 0.79202 0.71801 0.45632 0.0
C115 C 0.79418 0.77772 0.45801 0.0
C116 C 0.81185 0.77984 0.45045 0.0
C117 C 0.78454 0.74647 0.46111 0.0
H118 H 0.81608 0.69943 0.44511 0.0
H119 H 0.821 0.8037 0.44841 0.0
C120 C 0.93344 0.75284 0.41768 0.0
N121 N -0.0003 0.75649 0.41311 0.0
C122 C 0.94231 0.75547 0.40915 0.0
C123 C 0.95825 0.75215 0.42389 0.0
C124 C 0.97596 0.75725 0.40697 0.0
C125 C 0.99161 0.75401 0.42145 0.0
C126 C 0.82354 0.693 0.42481 0.0
C127 C 0.83637 0.66726 0.41983 0.0
C128 C 0.78921 0.69842 0.42507 0.0
C129 C 0.81458 0.64763 0.41508 0.0
C130 C 0.76824 0.67826 0.42023 0.0
N131 N 0.78126 0.65352 0.41537 0.0
C132 C 0.91111 0.66061 0.43716 0.0
C133 C 0.93593 0.66936 0.42373 0.0
C134 C 0.92471 0.62869 0.43761 0.0
N135 N 0.91698 0.68022 0.43031 0.0
C136 C 0.94998 0.63757 0.42391 0.0
C137 C 0.94413 0.61663 0.43088 0.0
H138 H 0.8947 0.66925 0.44211 0.0
H139 H 0.93923 0.68478 0.4182 0.0
C140 C 0.80383 0.77023 0.40912 0.0
N141 N 0.82908 0.74872 0.41079 0.0
C142 C 0.78867 0.77038 0.40118 0.0
C143 C 0.82572 0.72612 0.39683 0.0
C144 C 0.8403 0.72699 0.40485 0.0
C145 C 0.79973 0.74823 0.3949 0.0
H146 H 0.79586 0.78772 0.41389 0.0
H147 H 0.86097 0.71071 0.4063 0.0
O148 O 0.89692 0.7533 0.43933 0.0
O149 O 0.84395 0.79069 0.42807 0.0
O150 O 0.90058 0.75133 0.41989 0.0
O151 O 0.84448 0.71287 0.42939 0.0
H152 H 0.88944 0.81421 0.44547 0.0
H153 H 0.90024 0.71099 0.45219 0.0
H154 H 0.8863 0.82827 0.46072 0.0
H155 H 0.89613 0.72677 0.46732 0.0
H156 H 0.73637 0.8158 0.43434 0.0
H157 H 0.85411 0.85076 0.43449 0.0
H158 H 0.7794 0.77743 0.42871 0.0
H159 H 0.80978 0.88788 0.43997 0.0
H160 H 0.97747 0.86577 0.43925 0.0
H161 H 0.9149 0.89473 0.41819 0.0
H162 H 0.78516 0.69346 0.45854 0.0
H163 H 0.78968 0.80019 0.46163 0.0
H164 H 0.92336 0.75611 0.40428 0.0
H165 H 0.95189 0.75011 0.43052 0.0
H166 H 0.9832 0.75926 0.40039 0.0
H167 H 0.01107 0.75347 0.42618 0.0
H168 H 0.86289 0.66272 0.41956 0.0
H169 H 0.77889 0.71798 0.42898 0.0
H170 H 0.82417 0.62777 0.41115 0.0
H171 H 0.74162 0.68227 0.42034 0.0
H172 H 0.91891 0.61315 0.44301 0.0
H173 H 0.96486 0.62931 0.41859 0.0
H174 H 0.76857 0.7877 0.39996 0.0
H175 H 0.83531 0.70901 0.39213 0.0
Li176 Li 0.21696 0.39897 0.67767 0.0
Li177 Li 0.24695 0.35728 0.68589 0.0
Li178 Li 0.28013 0.39801 0.67769 0.0
Li179 Li 0.24919 0.35465 0.671 0.0
C180 C 0.25189 0.43859 0.6899 0.0
N181 N 0.26055 0.50365 0.69509 0.0
C182 C 0.2572 0.44579 0.69845 0.0
C183 C 0.25126 0.46444 0.68398 0.0
C184 C 0.26142 0.47886 0.70095 0.0
C185 C 0.25562 0.49717 0.68673 0.0
C186 C 0.1894 0.33116 0.68301 0.0
C187 C 0.17356 0.27723 0.68833 0.0
N188 N 0.15125 0.29202 0.69361 0.0
C189 C 0.16619 0.34583 0.68845 0.0
C190 C 0.19304 0.29659 0.68291 0.0
C191 C 0.14718 0.32561 0.69377 0.0
C192 C 0.15377 0.41327 0.67145 0.0
N193 N 0.17616 0.42346 0.67736 0.0
C194 C 0.13627 0.46115 0.68325 0.0
C195 C 0.16795 0.44677 0.68325 0.0
C196 C 0.1126 0.45102 0.67722 0.0
C197 C 0.12183 0.4269 0.67123 0.0
H198 H 0.16036 0.39363 0.66709 0.0
H199 H 0.18536 0.45342 0.68816 0.0
C200 C 0.2606 0.30595 0.69808 0.0
N201 N 0.24523 0.33547 0.69652 0.0
C202 C 0.26002 0.2923 0.70622 0.0
C203 C 0.22772 0.33965 0.71091 0.0
C204 C 0.22877 0.35222 0.7027 0.0
C205 C 0.24382 0.30952 0.71278 0.0
H206 H 0.27381 0.29332 0.69307 0.0
H207 H 0.21672 0.37561 0.70125 0.0
C208 C 0.25312 0.40359 0.65946 0.0
N209 N 0.26113 0.40238 0.64208 0.0
C210 C 0.28487 0.40633 0.65591 0.0
C211 C 0.22544 0.40043 0.65416 0.0
C212 C 0.2884 0.40567 0.64711 0.0
C213 C 0.23001 0.39976 0.64539 0.0
C214 C 0.30596 0.32513 0.67549 0.0
C215 C 0.33692 0.33269 0.67193 0.0
C216 C 0.29449 0.29231 0.67537 0.0
C217 C 0.35578 0.30727 0.66827 0.0
C218 C 0.31406 0.26761 0.67163 0.0
N219 N 0.34404 0.27554 0.66819 0.0
C220 C 0.34339 0.41126 0.68355 0.0
C221 C 0.32605 0.44971 0.67306 0.0
C222 C 0.37505 0.42536 0.68376 0.0
N223 N 0.32003 0.42299 0.6781 0.0
C224 C 0.3575 0.4646 0.67305 0.0
C225 C 0.38272 0.45189 0.67831 0.0
H226 H 0.33766 0.3902 0.68756 0.0
H227 H 0.30681 0.45879 0.66886 0.0
C228 C 0.22112 0.30893 0.65935 0.0
N229 N 0.24916 0.32625 0.66127 0.0
C230 C 0.21954 0.29 0.65194 0.0
C231 C 0.27574 0.30705 0.64866 0.0
C232 C 0.27628 0.32538 0.65613 0.0
C233 C 0.24703 0.28916 0.64643 0.0
H234 H 0.19975 0.31029 0.6635 0.0
H235 H 0.29812 0.33969 0.6577 0.0
O236 O 0.24845 0.40628 0.68733 0.0
O237 O 0.20891 0.35059 0.67792 0.0
O238 O 0.24919 0.40393 0.66808 0.0
O239 O 0.28713 0.34971 0.6791 0.0
H240 H 0.25811 0.42602 0.7031 0.0
H241 H 0.24735 0.45932 0.67733 0.0
H242 H 0.26547 0.48482 0.70755 0.0
H243 H 0.25511 0.51742 0.68223 0.0
H244 H 0.17621 0.25044 0.68835 0.0
H245 H 0.16323 0.37257 0.68866 0.0
H246 H 0.21078 0.28483 0.67872 0.0
H247 H 0.12929 0.33664 0.69805 0.0
H248 H 0.12999 0.47907 0.68812 0.0
H249 H 0.10445 0.41836 0.66646 0.0
H250 H 0.27288 0.26909 0.70743 0.0
H251 H 0.21445 0.35341 0.71574 0.0
H252 H 0.30667 0.40806 0.65989 0.0
H253 H 0.20073 0.39822 0.65677 0.0
H254 H 0.31286 0.40748 0.64428 0.0
H255 H 0.20881 0.39712 0.64122 0.0
H256 H 0.34614 0.35796 0.6719 0.0
H257 H 0.27052 0.28605 0.67803 0.0
H258 H 0.3797 0.3128 0.66545 0.0
H259 H 0.30537 0.24215 0.67145 0.0
H260 H 0.39345 0.41527 0.68806 0.0
H261 H 0.36232 0.48498 0.66873 0.0
H262 H 0.19699 0.27635 0.65052 0.0
H263 H 0.29729 0.30782 0.64455 0.0
Li264 Li 0.63592 0.75121 0.93559 0.0
Li265 Li 0.59362 0.71569 0.92861 0.0
Li266 Li 0.6338 0.74748 0.92078 0.0
Li267 Li 0.59058 0.77837 0.92842 0.0
C268 C 0.66636 0.69085 0.92536 0.0
N269 N 0.71472 0.65084 0.91816 0.0
C270 C 0.65973 0.65736 0.92366 0.0
C271 C 0.69785 0.70375 0.92354 0.0
C272 C 0.68442 0.63759 0.91998 0.0
C273 C 0.72188 0.68322 0.91985 0.0
C274 C 0.55534 0.74637 0.94117 0.0
C275 C 0.49634 0.7435 0.93841 0.0
N276 N 0.49041 0.74293 0.94689 0.0
C277 C 0.54864 0.74579 0.94985 0.0
C278 C 0.52896 0.74524 0.93539 0.0
C279 C 0.51566 0.74403 0.95262 0.0
C280 C 0.64794 0.76602 0.9526 0.0
N281 N 0.66268 0.75421 0.94547 0.0
C282 C 0.71284 0.74281 0.95304 0.0
C283 C 0.6947 0.74336 0.9455 0.0
C284 C 0.69769 0.75317 0.96062 0.0
C285 C 0.66503 0.76567 0.96029 0.0
H286 H 0.62254 0.77482 0.95236 0.0
H287 H 0.70594 0.73439 0.93974 0.0
C288 C 0.56989 0.6559 0.92183 0.0
N289 N 0.57032 0.67445 0.92902 0.0
C290 C 0.55627 0.62397 0.92187 0.0
C291 C 0.54314 0.63098 0.93669 0.0
C292 C 0.55733 0.66268 0.93639 0.0
C293 C 0.54285 0.61093 0.92939 0.0
H294 H 0.5817 0.66526 0.91617 0.0
H295 H 0.5587 0.67748 0.94208 0.0
C296 C 0.66322 0.80671 0.93137 0.0
N297 N 0.71268 0.84123 0.93982 0.0
C298 C 0.65508 0.82865 0.93792 0.0
C299 C 0.69658 0.80269 0.92906 0.0
C300 C 0.68041 0.84576 0.94213 0.0
C301 C 0.7212 0.82027 0.93341 0.0
C302 C 0.58129 0.752 0.9105 0.0
C303 C 0.59277 0.78212 0.90717 0.0
C304 C 0.56752 0.72821 0.90508 0.0
C305 C 0.59085 0.78767 0.89845 0.0
C306 C 0.56599 0.73471 0.8964 0.0
N307 N 0.57765 0.76403 0.89329 0.0
C308 C 0.65705 0.71729 0.90573 0.0
C309 C 0.67334 0.7736 0.90747 0.0
C310 C 0.67267 0.71588 0.89785 0.0
N311 N 0.65797 0.74575 0.91038 0.0
C312 C 0.68879 0.77346 0.89956 0.0
C313 C 0.68853 0.74432 0.89467 0.0
H314 H 0.64363 0.69587 0.90807 0.0
H315 H 0.67265 0.79623 0.91116 0.0
C316 C 0.56096 0.83271 0.93647 0.0
N317 N 0.56205 0.81623 0.92896 0.0
C318 C 0.54495 0.86343 0.93707 0.0
C319 C 0.52885 0.85825 0.92238 0.0
C320 C 0.54539 0.8277 0.92206 0.0
C321 C 0.52946 0.877 0.92988 0.0
H322 H 0.57341 0.82242 0.94195 0.0
H323 H 0.54563 0.81372 0.91623 0.0
O324 O 0.6423 0.71058 0.92893 0.0
O325 O 0.58758 0.74817 0.9384 0.0
O326 O 0.63875 0.78906 0.92732 0.0
O327 O 0.58387 0.74578 0.919 0.0
H328 H 0.6359 0.6466 0.92522 0.0
H329 H 0.70354 0.72947 0.92482 0.0
H330 H 0.67953 0.61168 0.9186 0.0
H331 H 0.74621 0.69306 0.91833 0.0
H332 H 0.47571 0.7426 0.93401 0.0
H333 H 0.56871 0.74654 0.95442 0.0
H334 H 0.53349 0.74569 0.92865 0.0
H335 H 0.51013 0.74352 0.95932 0.0
H336 H 0.73815 0.73355 0.95296 0.0
H337 H 0.65214 0.77359 0.96597 0.0
H338 H 0.55745 0.60925 0.91613 0.0
H339 H 0.53283 0.62218 0.94262 0.0
H340 H 0.62956 0.83216 0.93982 0.0
H341 H 0.70352 0.78619 0.92396 0.0
H342 H 0.6744 0.86258 0.94726 0.0
H343 H 0.7471 0.81723 0.9317 0.0
H344 H 0.60359 0.8008 0.91127 0.0
H345 H 0.55791 0.70505 0.90753 0.0
H346 H 0.59998 0.81072 0.89579 0.0
H347 H 0.5555 0.71646 0.89213 0.0
H348 H 0.67151 0.69314 0.89418 0.0
H349 H 0.7007 0.79591 0.89728 0.0
H350 H 0.54527 0.87673 0.94303 0.0
H351 H 0.51706 0.86774 0.91671 0.0
Li352 Li 0.2573 0.3546 0.06434 0.0
Li353 Li 0.22418 0.39428 0.05628 0.0
Li354 Li 0.25495 0.35067 0.0493 0.0
Li355 Li 0.2846 0.39684 0.05603 0.0
C356 C 0.20244 0.31691 0.05472 0.0
N357 N 0.1728 0.25899 0.04906 0.0
C358 C 0.16923 0.31712 0.05209 0.0
C359 C 0.2204 0.28714 0.05459 0.0
C360 C 0.15473 0.2876 0.04922 0.0
C361 C 0.20504 0.25815 0.05167 0.0
C362 C 0.2379 0.41142 0.07314 0.0
C363 C 0.2309 0.4437 0.08589 0.0
N364 N 0.20311 0.42588 0.08779 0.0
C365 C 0.20927 0.39338 0.07522 0.0
C366 C 0.24884 0.43674 0.07853 0.0
C367 C 0.19204 0.40109 0.08265 0.0
C368 C 0.28179 0.34324 0.0807 0.0
N369 N 0.25984 0.33174 0.07484 0.0
C370 C 0.23787 0.29258 0.08473 0.0
C371 C 0.23808 0.3069 0.07668 0.0
C372 C 0.26026 0.30398 0.0909 0.0
C373 C 0.28271 0.32938 0.08879 0.0
H374 H 0.29787 0.36393 0.07918 0.0
H375 H 0.2202 0.29889 0.07201 0.0
C376 C 0.16347 0.40882 0.04899 0.0
N377 N 0.18386 0.41877 0.05537 0.0
C378 C 0.13183 0.42265 0.04813 0.0
C379 C 0.14346 0.45819 0.06012 0.0
C380 C 0.17497 0.44371 0.06073 0.0
C381 C 0.12119 0.44719 0.05385 0.0
H382 H 0.17161 0.3895 0.0447 0.0
H383 H 0.19202 0.45212 0.06556 0.0
C384 C 0.31874 0.3319 0.06087 0.0
N385 N 0.36636 0.29779 0.07005 0.0
C386 C 0.34146 0.34924 0.06591 0.0
C387 C 0.32056 0.29721 0.06041 0.0
C388 C 0.36525 0.33155 0.07053 0.0
C389 C 0.34472 0.28042 0.06512 0.0
C390 C 0.2516 0.4303 0.0432 0.0
C391 C 0.2489 0.43571 0.03449 0.0
C392 C 0.2524 0.45746 0.04873 0.0
C393 C 0.24709 0.46829 0.03144 0.0
C394 C 0.25053 0.48966 0.04543 0.0
N395 N 0.24794 0.49436 0.03693 0.0
C396 C 0.22901 0.32268 0.03427 0.0
C397 C 0.28566 0.31046 0.03719 0.0
C398 C 0.23165 0.30823 0.02626 0.0
N399 N 0.25598 0.32394 0.03947 0.0
C400 C 0.28951 0.29616 0.0292 0.0
C401 C 0.26252 0.2958 0.02356 0.0
H402 H 0.20599 0.33446 0.03618 0.0
H403 H 0.30683 0.31249 0.04138 0.0
C404 C 0.3331 0.4445 0.06113 0.0
N405 N 0.32313 0.42334 0.05492 0.0
C406 C 0.36413 0.46006 0.0606 0.0
C407 C 0.37323 0.4326 0.04717 0.0
C408 C 0.34212 0.41758 0.04796 0.0
C409 C 0.38495 0.45358 0.05363 0.0
H410 H 0.31758 0.4482 0.06664 0.0
H411 H 0.33347 0.40042 0.04316 0.0
O412 O 0.21727 0.34565 0.05744 0.0
O413 O 0.25565 0.40409 0.06597 0.0
O414 O 0.29512 0.34878 0.05633 0.0
O415 O 0.25318 0.39848 0.04624 0.0
H416 H 0.15469 0.33973 0.0523 0.0
H417 H 0.24596 0.28652 0.05669 0.0
H418 H 0.12907 0.28743 0.04714 0.0
H419 H 0.21876 0.23499 0.05149 0.0
H420 H 0.23909 0.46326 0.09012 0.0
H421 H 0.20031 0.37369 0.07116 0.0
H422 H 0.27099 0.45087 0.07703 0.0
H423 H 0.16986 0.38735 0.08433 0.0
H424 H 0.22017 0.27301 0.08613 0.0
H425 H 0.29991 0.33926 0.09344 0.0
H426 H 0.11549 0.41338 0.04321 0.0
H427 H 0.13651 0.47762 0.06453 0.0
H428 H 0.34043 0.37604 0.06638 0.0
H429 H 0.30367 0.28336 0.05641 0.0
H430 H 0.38279 0.34467 0.07452 0.0
H431 H 0.34633 0.25357 0.06484 0.0
H432 H 0.24817 0.41491 0.03013 0.0
H433 H 0.25439 0.45383 0.05549 0.0
H434 H 0.245 0.47285 0.02471 0.0
H435 H 0.25112 0.5109 0.04964 0.0
H436 H 0.21046 0.30883 0.02202 0.0
H437 H 0.31369 0.28682 0.02732 0.0
H438 H 0.3723 0.47578 0.06577 0.0
H439 H 0.3882 0.42733 0.04163 0.0
Li440 Li 0.63869 0.74822 0.31147 0.0
Li441 Li 0.59572 0.71594 0.30464 0.0
Li442 Li 0.63364 0.74795 0.29587 0.0
Li443 Li 0.59316 0.77488 0.30455 0.0
C444 C 0.67659 0.70059 0.30233 0.0
N445 N 0.74192 0.6815 0.29981 0.0
C446 C 0.68465 0.66694 0.30147 0.0
C447 C 0.70175 0.72456 0.3019 0.0
C448 C 0.71783 0.65778 0.30021 0.0
C449 C 0.73462 0.7144 0.30062 0.0
C450 C 0.58795 0.72742 0.32184 0.0
C451 C 0.56476 0.71944 0.33578 0.0
N452 N 0.58234 0.69068 0.33656 0.0
C453 C 0.60582 0.69777 0.32278 0.0
C454 C 0.56729 0.73837 0.32839 0.0
C455 C 0.60263 0.67956 0.33027 0.0
C456 C 0.66155 0.77539 0.32659 0.0
N457 N 0.66658 0.74955 0.32119 0.0
C458 C 0.70432 0.72407 0.33092 0.0
C459 C 0.6874 0.72407 0.32321 0.0
C460 C 0.69929 0.75021 0.33669 0.0
C461 C 0.67782 0.77631 0.3344 0.0
H462 H 0.64382 0.79461 0.32497 0.0
H463 H 0.69005 0.70307 0.31901 0.0
C464 C 0.58488 0.65147 0.29938 0.0
N465 N 0.57269 0.67489 0.30475 0.0
C466 C 0.57102 0.61971 0.29919 0.0
C467 C 0.5319 0.63692 0.30998 0.0
C468 C 0.54641 0.66849 0.30992 0.0
C469 C 0.54439 0.61201 0.3046 0.0
H470 H 0.60572 0.65744 0.29532 0.0
H471 H 0.53696 0.68773 0.31406 0.0
C472 C 0.64046 0.81928 0.30189 0.0
N473 N 0.63553 0.88679 0.29882 0.0
C474 C 0.62831 0.83076 0.29413 0.0
C475 C 0.65043 0.84214 0.30806 0.0
C476 C 0.62592 0.86498 0.29271 0.0
C477 C 0.64767 0.87617 0.30639 0.0
C478 C 0.55146 0.74182 0.29312 0.0
C479 C 0.54068 0.73709 0.28479 0.0
C480 C 0.52812 0.74317 0.29968 0.0
C481 C 0.50666 0.73388 0.28316 0.0
C482 C 0.49433 0.73984 0.29779 0.0
N483 N 0.48438 0.73531 0.28963 0.0
C484 C 0.65214 0.71947 0.28054 0.0
C485 C 0.67748 0.77175 0.28311 0.0
C486 C 0.66763 0.71722 0.27265 0.0
N487 N 0.65695 0.74664 0.2855 0.0
C488 C 0.69305 0.7708 0.27522 0.0
C489 C 0.68793 0.74343 0.26981 0.0
H490 H 0.63601 0.69967 0.2827 0.0
H491 H 0.68139 0.79275 0.28726 0.0
C492 C 0.56826 0.83171 0.31258 0.0
N493 N 0.56602 0.81376 0.30531 0.0
C494 C 0.55375 0.86321 0.31311 0.0
C495 C 0.53313 0.85625 0.29884 0.0
C496 C 0.54854 0.82515 0.29853 0.0
C497 C 0.53636 0.8762 0.30612 0.0
H498 H 0.58285 0.82223 0.31781 0.0
H499 H 0.54771 0.81079 0.29275 0.0
O500 O 0.64412 0.70984 0.30345 0.0
O501 O 0.59083 0.74608 0.31463 0.0
O502 O 0.642 0.78586 0.30349 0.0
O503 O 0.58476 0.74471 0.29478 0.0
H504 H 0.66545 0.64809 0.30177 0.0
H505 H 0.69605 0.75073 0.30254 0.0
H506 H 0.72443 0.63182 0.29953 0.0
H507 H 0.75433 0.73267 0.30028 0.0
H508 H 0.54885 0.72764 0.3409 0.0
H509 H 0.62196 0.68882 0.31781 0.0
H510 H 0.55339 0.76133 0.32776 0.0
H511 H 0.61631 0.65659 0.33109 0.0
H512 H 0.72075 0.7035 0.33239 0.0
H513 H 0.67259 0.79659 0.33871 0.0
H514 H 0.58159 0.60116 0.295 0.0
H515 H 0.51112 0.63206 0.31417 0.0
H516 H 0.62016 0.81338 0.28932 0.0
H517 H 0.66007 0.83372 0.31408 0.0
H518 H 0.61624 0.8742 0.28676 0.0
H519 H 0.65512 0.89414 0.31113 0.0
H520 H 0.55846 0.7359 0.27965 0.0
H521 H 0.5359 0.74682 0.30616 0.0
H522 H 0.49796 0.73023 0.27674 0.0
H523 H 0.47601 0.74085 0.3028 0.0
H524 H 0.66347 0.69528 0.26882 0.0
H525 H 0.70808 0.79183 0.2733 0.0
H526 H 0.55748 0.87771 0.31881 0.0
H527 H 0.51952 0.86481 0.29334 0.0
Li528 Li 0.25132 0.13174 0.56252 0.0
Li529 Li 0.27942 0.09083 0.55411 0.0
Li530 Li 0.25088 0.13656 0.54736 0.0
Li531 Li 0.21959 0.09319 0.55413 0.0
C532 C 0.31899 0.14311 0.55931 0.0
N533 N 0.37815 0.15061 0.56802 0.0
C534 C 0.32367 0.12716 0.56709 0.0
C535 C 0.3444 0.16284 0.55596 0.0
C536 C 0.35375 0.13127 0.57139 0.0
C537 C 0.37413 0.16634 0.56047 0.0
C538 C 0.24713 0.04951 0.56559 0.0
C539 C 0.24681 0.99227 0.56099 0.0
N540 N 0.24276 0.98236 0.56916 0.0
C541 C 0.24296 0.03877 0.57393 0.0
C542 C 0.24907 0.0261 0.55905 0.0
C543 C 0.24082 0.00471 0.57561 0.0
C544 C 0.2295 0.14229 0.57893 0.0
N545 N 0.25046 0.15474 0.57298 0.0
C546 C 0.26913 0.19694 0.58249 0.0
C547 C 0.26976 0.18183 0.57453 0.0
C548 C 0.24805 0.18429 0.58881 0.0
C549 C 0.22777 0.15685 0.58693 0.0
H550 H 0.21435 0.1208 0.57746 0.0
H551 H 0.28585 0.19153 0.56964 0.0
C552 C 0.33579 0.06561 0.54597 0.0
N553 N 0.31886 0.06486 0.55342 0.0
C554 C 0.36757 0.05169 0.54541 0.0
C555 C 0.36345 0.03574 0.56014 0.0
C556 C 0.33173 0.04986 0.56041 0.0
C557 C 0.38208 0.03715 0.55262 0.0
H558 H 0.32513 0.0783 0.54057 0.0
H559 H 0.31801 0.05011 0.56629 0.0
C560 C 0.20422 0.17457 0.55607 0.0
N561 N 0.18696 0.24074 0.5579 0.0
C562 C 0.17094 0.18358 0.55723 0.0
C563 C 0.22874 0.19923 0.55583 0.0
C564 C 0.16271 0.21717 0.55814 0.0
C565 C 0.21951 0.23253 0.55677 0.0
C566 C 0.23182 0.08501 0.5368 0.0
C567 C 0.20065 0.10009 0.5359 0.0
C568 C 0.24504 0.06646 0.53012 0.0
C569 C 0.18321 0.09631 0.52831 0.0
C570 C 0.22682 0.06326 0.52263 0.0
N571 N 0.19654 0.07813 0.52189 0.0
C572 C 0.28165 0.16831 0.53363 0.0
C573 C 0.22385 0.17927 0.53482 0.0
C574 C 0.28305 0.18555 0.52596 0.0
N575 N 0.25225 0.16512 0.5378 0.0
C576 C 0.22409 0.19667 0.52719 0.0
C577 C 0.25384 0.19943 0.52256 0.0
H578 H 0.30376 0.1565 0.53613 0.0
H579 H 0.20067 0.17588 0.53818 0.0
C580 C 0.155 0.08207 0.55934 0.0
N581 N 0.17877 0.06938 0.55415 0.0
C582 C 0.12332 0.06798 0.55957 0.0
C583 C 0.1413 0.02753 0.54919 0.0
C584 C 0.17278 0.04237 0.54919 0.0
C585 C 0.11601 0.04053 0.55439 0.0
H586 H 0.16058 0.10355 0.56322 0.0
H587 H 0.19224 0.03264 0.54516 0.0
O588 O 0.29001 0.13911 0.55487 0.0
O589 O 0.2491 0.08284 0.56389 0.0
O590 O 0.21248 0.14171 0.55519 0.0
O591 O 0.24966 0.08854 0.54413 0.0
H592 H 0.30436 0.11169 0.56977 0.0
H593 H 0.34119 0.17526 0.54994 0.0
H594 H 0.35771 0.11904 0.57741 0.0
H595 H 0.39402 0.18154 0.55795 0.0
H596 H 0.24827 0.9739 0.556 0.0
H597 H 0.2414 0.0566 0.57906 0.0
H598 H 0.25236 0.03384 0.55256 0.0
H599 H 0.2376 0.99604 0.58204 0.0
H600 H 0.28482 0.21834 0.58368 0.0
H601 H 0.21136 0.14628 0.59166 0.0
H602 H 0.3812 0.05369 0.53952 0.0
H603 H 0.37356 0.02447 0.56581 0.0
H604 H 0.15165 0.16479 0.55741 0.0
H605 H 0.25461 0.19284 0.55491 0.0
H606 H 0.13704 0.22449 0.55904 0.0
H607 H 0.23823 0.25186 0.55661 0.0
H608 H 0.18999 0.11457 0.54099 0.0
H609 H 0.26918 0.0547 0.53072 0.0
H610 H 0.15907 0.10786 0.52753 0.0
H611 H 0.23676 0.04897 0.5174 0.0
H612 H 0.30656 0.1873 0.52264 0.0
H613 H 0.20085 0.20636 0.52475 0.0
H614 H 0.10451 0.07904 0.5636 0.0
H615 H 0.13682 0.00615 0.54518 0.0
Li616 Li 0.89494 0.77829 0.80411 0.0
Li617 Li 0.85164 0.74616 0.81138 0.0
Li618 Li 0.8935 0.71564 0.80377 0.0
Li619 Li 0.85107 0.75027 0.79657 0.0
C620 C 0.90284 0.75206 0.82202 0.0
N621 N 0.90421 0.76458 0.83924 0.0
C622 C 0.89034 0.78202 0.82522 0.0
C623 C 0.91644 0.72868 0.82758 0.0
C624 C 0.89114 0.78783 0.83394 0.0
C625 C 0.91682 0.73542 0.83626 0.0
C626 C 0.82167 0.8048 0.80074 0.0
C627 C 0.76342 0.81629 0.79835 0.0
N628 N 0.77177 0.83794 0.79209 0.0
C629 C 0.82961 0.82745 0.79434 0.0
C630 C 0.78826 0.7994 0.80281 0.0
C631 C 0.80408 0.84384 0.79002 0.0
C632 C 0.92373 0.83423 0.79655 0.0
N633 N 0.92275 0.8167 0.8039 0.0
C634 C 0.95541 0.85809 0.81089 0.0
C635 C 0.93928 0.82733 0.81091 0.0
C636 C 0.95464 0.87799 0.80357 0.0
C637 C 0.93937 0.8652 0.79625 0.0
H638 H 0.91144 0.8246 0.79098 0.0
H639 H 0.93943 0.81239 0.81658 0.0
C640 C 0.82779 0.71513 0.82625 0.0
N641 N 0.82646 0.74357 0.82161 0.0
C642 C 0.8116 0.71323 0.83404 0.0
C643 C 0.79389 0.77029 0.83227 0.0
C644 C 0.81003 0.77092 0.82445 0.0
C645 C 0.79456 0.74117 0.8372 0.0
H646 H 0.8419 0.69407 0.82395 0.0
H647 H 0.81055 0.79366 0.82081 0.0
C648 C 0.93228 0.74771 0.79153 0.0
N649 N -0.00219 0.74625 0.78622 0.0
C650 C 0.93985 0.74813 0.7829 0.0
C651 C 0.95808 0.74659 0.79747 0.0
C652 C 0.97312 0.74736 0.78034 0.0
C653 C 0.99103 0.74585 0.79466 0.0
C654 C 0.82135 0.68867 0.80651 0.0
C655 C 0.82901 0.65541 0.80822 0.0
C656 C 0.78923 0.70043 0.80814 0.0
C657 C 0.8047 0.63474 0.81172 0.0
C658 C 0.76561 0.67902 0.81165 0.0
N659 N 0.77378 0.64689 0.81337 0.0
C660 C 0.9184 0.65646 0.8106 0.0
C661 C 0.9316 0.66371 0.79609 0.0
C662 C 0.93261 0.62478 0.81057 0.0
N663 N 0.91794 0.67508 0.80342 0.0
C664 C 0.94646 0.63229 0.7958 0.0
C665 C 0.94659 0.61221 0.80308 0.0
H666 H 0.90623 0.66556 0.81624 0.0
H667 H 0.93006 0.67851 0.7904 0.0
C668 C 0.84016 0.76613 0.77956 0.0
N669 N 0.82534 0.75288 0.78651 0.0
C670 C 0.82384 0.76581 0.77177 0.0
C671 C 0.77661 0.73974 0.77854 0.0
C672 C 0.79396 0.7404 0.78619 0.0
C673 C 0.79189 0.75177 0.77114 0.0
H674 H 0.86505 0.77615 0.78004 0.0
H675 H 0.78267 0.73023 0.79182 0.0
O676 O 0.90135 0.74559 0.81351 0.0
O677 O 0.84638 0.78783 0.80489 0.0
O678 O 0.89974 0.74854 0.7941 0.0
O679 O 0.845 0.70928 0.8031 0.0
H680 H 0.87964 0.8004 0.82101 0.0
H681 H 0.92681 0.70564 0.82524 0.0
H682 H 0.88125 0.81077 0.83649 0.0
H683 H 0.92717 0.71747 0.84064 0.0
H684 H 0.7375 0.81217 0.79987 0.0
H685 H 0.85516 0.83206 0.79263 0.0
H686 H 0.78145 0.78236 0.80779 0.0
H687 H 0.80995 0.86119 0.785 0.0
H688 H 0.96781 0.86644 0.81659 0.0
H689 H 0.9382 0.87951 0.79045 0.0
H690 H 0.81262 0.69014 0.83756 0.0
H691 H 0.78192 0.79275 0.83452 0.0
H692 H 0.92021 0.74891 0.77821 0.0
H693 H 0.95287 0.74627 0.80418 0.0
H694 H 0.97932 0.74763 0.77367 0.0
H695 H 0.01122 0.74497 0.79919 0.0
H696 H 0.85333 0.64549 0.80678 0.0
H697 H 0.78271 0.72592 0.80682 0.0
H698 H 0.81039 0.60899 0.8131 0.0
H699 H 0.7408 0.68797 0.81303 0.0
H700 H 0.93223 0.61009 0.81632 0.0
H701 H 0.95653 0.62328 0.78987 0.0
H702 H 0.83678 0.77504 0.76623 0.0
H703 H 0.75182 0.7292 0.77839 0.0
Li704 Li 0.74434 0.64052 0.68539 0.0
Li705 Li 0.77721 0.59811 0.67816 0.0
Li706 Li 0.74882 0.64182 0.67027 0.0
Li707 Li 0.71758 0.59731 0.677 0.0
C708 C 0.80542 0.66825 0.67455 0.0
N709 N 0.84513 0.71138 0.66542 0.0
C710 C 0.83264 0.65611 0.66998 0.0
C711 C 0.79848 0.70233 0.67451 0.0
C712 C 0.85241 0.67832 0.6654 0.0
C713 C 0.81882 0.72372 0.66984 0.0
C714 C 0.76097 0.57091 0.69258 0.0
C715 C 0.78205 0.51627 0.69591 0.0
N716 N 0.79793 0.52905 0.70279 0.0
C717 C 0.7774 0.5835 0.69969 0.0
C718 C 0.76317 0.53701 0.69068 0.0
C719 C 0.79598 0.56193 0.70477 0.0
C720 C 0.71614 0.65564 0.70105 0.0
N721 N 0.74059 0.66489 0.6956 0.0
C722 C 0.7622 0.70361 0.70566 0.0
C723 C 0.76321 0.68862 0.69768 0.0
C724 C 0.73771 0.69393 0.71153 0.0
C725 C 0.71399 0.67016 0.70905 0.0
H726 H 0.6989 0.63621 0.69927 0.0
H727 H 0.78279 0.69497 0.69328 0.0
C728 C 0.82504 0.54919 0.67322 0.0
N729 N 0.81768 0.57372 0.67885 0.0
C730 C 0.85642 0.53415 0.67332 0.0
C731 C 0.87171 0.56957 0.68507 0.0
C732 C 0.84014 0.58393 0.68473 0.0
C733 C 0.88043 0.54468 0.67922 0.0
H734 H 0.80695 0.54206 0.66849 0.0
H735 H 0.83375 0.6039 0.68903 0.0
C736 C 0.68688 0.66639 0.68117 0.0
N737 N 0.64528 0.708 0.69024 0.0
C738 C 0.65809 0.65377 0.68496 0.0
C739 C 0.69443 0.7002 0.68197 0.0
C740 C 0.63738 0.67522 0.68952 0.0
C741 C 0.67312 0.72081 0.68659 0.0
C742 C 0.73471 0.57235 0.66244 0.0
C743 C 0.71778 0.58474 0.65538 0.0
C744 C 0.73378 0.53829 0.66421 0.0
C745 C 0.70002 0.56279 0.65022 0.0
C746 C 0.7157 0.51717 0.6589 0.0
N747 N 0.69933 0.52975 0.65207 0.0
C748 C 0.77323 0.65869 0.65431 0.0
C749 C 0.72935 0.69349 0.65906 0.0
C750 C 0.77377 0.67479 0.6465 0.0
N751 N 0.75108 0.66808 0.66035 0.0
C752 C 0.72906 0.71036 0.65133 0.0
C753 C 0.75111 0.70065 0.64488 0.0
H754 H 0.78984 0.63801 0.65549 0.0
H755 H 0.71154 0.69994 0.66391 0.0
C756 C 0.67082 0.54689 0.68145 0.0
N757 N 0.6779 0.57216 0.67604 0.0
C758 C 0.63948 0.53181 0.68128 0.0
C759 C 0.62382 0.56864 0.66984 0.0
C760 C 0.65536 0.58295 0.67024 0.0
C761 C 0.6153 0.54316 0.67552 0.0
H762 H 0.68902 0.53929 0.68611 0.0
H763 H 0.66154 0.60354 0.66612 0.0
O764 O 0.78535 0.64684 0.67893 0.0
O765 O 0.74319 0.59171 0.68743 0.0
O766 O 0.70777 0.64572 0.67679 0.0
O767 O 0.75172 0.59349 0.66767 0.0
H768 H 0.83823 0.62979 0.66988 0.0
H769 H 0.77744 0.71211 0.67798 0.0
H770 H 0.87346 0.66926 0.66181 0.0
H771 H 0.81364 0.75013 0.66972 0.0
H772 H 0.78413 0.49002 0.69449 0.0
H773 H 0.77613 0.60969 0.70124 0.0
H774 H 0.7507 0.52689 0.68519 0.0
H775 H 0.80895 0.57135 0.71028 0.0
H776 H 0.78136 0.72136 0.70734 0.0
H777 H 0.69445 0.66221 0.71331 0.0
H778 H 0.86219 0.51539 0.66862 0.0
H779 H 0.88924 0.57819 0.68979 0.0
H780 H 0.65196 0.62766 0.68449 0.0
H781 H 0.71673 0.71034 0.67914 0.0
H782 H 0.6151 0.66577 0.69252 0.0
H783 H 0.67877 0.74698 0.6873 0.0
H784 H 0.71798 0.61105 0.65395 0.0
H785 H 0.74659 0.52832 0.66967 0.0
H786 H 0.68667 0.57205 0.64475 0.0
H787 H 0.71462 0.49078 0.66022 0.0
H788 H 0.7914 0.66676 0.64173 0.0
H789 H 0.71088 0.72985 0.65031 0.0
H790 H 0.63381 0.5125 0.68584 0.0
H791 H 0.6061 0.57787 0.66524 0.0
Li792 Li 0.35236 0.24627 0.93601 0.0
Li793 Li 0.39762 0.27635 0.929 0.0
Li794 Li 0.35303 0.25014 0.92077 0.0
Li795 Li 0.39514 0.21678 0.92797 0.0
C796 C 0.32848 0.30908 0.92546 0.0
N797 N 0.28609 0.35333 0.91753 0.0
C798 C 0.34101 0.33835 0.9219 0.0
C799 C 0.29438 0.30246 0.92505 0.0
C800 C 0.31917 0.36038 0.91791 0.0
C801 C 0.27336 0.32509 0.92099 0.0
C802 C 0.42242 0.25837 0.94371 0.0
C803 C 0.47814 0.27548 0.94735 0.0
N804 N 0.46606 0.29133 0.95431 0.0
C805 C 0.41057 0.27467 0.95093 0.0
C806 C 0.45648 0.25859 0.94192 0.0
C807 C 0.43304 0.29124 0.9562 0.0
C808 C 0.33133 0.2208 0.95173 0.0
N809 N 0.32648 0.24564 0.94602 0.0
C810 C 0.29294 0.27575 0.95585 0.0
C811 C 0.30721 0.27248 0.94785 0.0
C812 C 0.2986 0.25113 0.96199 0.0
C813 C 0.31716 0.22285 0.95978 0.0
H814 H 0.34776 0.20036 0.9502 0.0
H815 H 0.30446 0.29223 0.94326 0.0
C816 C 0.44741 0.32205 0.92372 0.0
N817 N 0.42417 0.31528 0.92973 0.0
C818 C 0.46389 0.35267 0.92373 0.0
C819 C 0.43283 0.36822 0.93624 0.0
C820 C 0.41674 0.33751 0.93593 0.0
C821 C 0.45634 0.37635 0.93 0.0
H822 H 0.45237 0.30413 0.91877 0.0
H823 H 0.39742 0.33181 0.94047 0.0
C824 C 0.32395 0.18972 0.9315 0.0
N825 N 0.27876 0.14954 0.9398 0.0
C826 C 0.33478 0.16105 0.93568 0.0
C827 C 0.29012 0.19781 0.93147 0.0
C828 C 0.31154 0.14109 0.93986 0.0
C829 C 0.26767 0.17723 0.93573 0.0
C830 C 0.4223 0.23241 0.91337 0.0
C831 C 0.40964 0.2172 0.90609 0.0
C832 C 0.45605 0.22917 0.91535 0.0
C833 C 0.43099 0.19864 0.90095 0.0
C834 C 0.47656 0.21035 0.91005 0.0
N835 N 0.46371 0.19559 0.90302 0.0
C836 C 0.33127 0.2797 0.90556 0.0
C837 C 0.30729 0.22722 0.90862 0.0
C838 C 0.31403 0.28137 0.89791 0.0
N839 N 0.32736 0.25307 0.91075 0.0
C840 C 0.29012 0.2275 0.90094 0.0
C841 C 0.29339 0.25482 0.89543 0.0
H842 H 0.3482 0.29943 0.9073 0.0
H843 H 0.30538 0.20594 0.91277 0.0
C844 C 0.44048 0.1672 0.93352 0.0
N845 N 0.41833 0.17582 0.9274 0.0
C846 C 0.45406 0.1352 0.93366 0.0
C847 C 0.42239 0.12203 0.92107 0.0
C848 C 0.40924 0.15412 0.92122 0.0
C849 C 0.44464 0.11193 0.92745 0.0
H850 H 0.44662 0.18474 0.93847 0.0
H851 H 0.39094 0.16146 0.91656 0.0
O852 O 0.34948 0.28706 0.92935 0.0
O853 O 0.40079 0.24244 0.9384 0.0
O854 O 0.34632 0.20978 0.92744 0.0
O855 O 0.40172 0.25025 0.91856 0.0
H856 H 0.36733 0.34386 0.92214 0.0
H857 H 0.28429 0.27998 0.9278 0.0
H858 H 0.32853 0.38304 0.91508 0.0
H859 H 0.24694 0.32019 0.92058 0.0
H860 H 0.50454 0.27602 0.94601 0.0
H861 H 0.38428 0.27483 0.95241 0.0
H862 H 0.46605 0.24606 0.93637 0.0
H863 H 0.4242 0.30411 0.96179 0.0
H864 H 0.27885 0.29797 0.95736 0.0
H865 H 0.32258 0.20369 0.9644 0.0
H866 H 0.48196 0.35796 0.91883 0.0
H867 H 0.42586 0.38597 0.94109 0.0
H868 H 0.36088 0.15445 0.93579 0.0
H869 H 0.28132 0.21981 0.92823 0.0
H870 H 0.31959 0.11892 0.94316 0.0
H871 H 0.24143 0.18326 0.9358 0.0
H872 H 0.38358 0.21947 0.90447 0.0
H873 H 0.46622 0.24085 0.92095 0.0
H874 H 0.42151 0.18659 0.89531 0.0
H875 H 0.5027 0.20746 0.91152 0.0
H876 H 0.3171 0.30319 0.89397 0.0
H877 H 0.27525 0.20604 0.89926 0.0
H878 H 0.47069 0.12842 0.93877 0.0
H879 H 0.41474 0.10517 0.91609 0.0
Li880 Li 0.74546 0.84898 0.18468 0.0
Li881 Li 0.71354 0.89398 0.17819 0.0
Li882 Li 0.73857 0.85039 0.16955 0.0
Li883 Li 0.77268 0.89243 0.17642 0.0
C884 C 0.68139 0.82526 0.17448 0.0
N885 N 0.63741 0.78397 0.16609 0.0
C886 C 0.65333 0.83857 0.17049 0.0
C887 C 0.68697 0.79095 0.17426 0.0
C888 C 0.6314 0.81727 0.16627 0.0
C889 C 0.66448 0.77049 0.16997 0.0
C890 C 0.73291 0.91807 0.1927 0.0
C891 C 0.71365 0.97281 0.1966 0.0
N892 N 0.6993 0.95982 0.20366 0.0
C893 C 0.71811 0.90527 0.20002 0.0
C894 C 0.73084 0.95212 0.19099 0.0
C895 C 0.70119 0.92679 0.20548 0.0
C896 C 0.77569 0.8255 0.19964 0.0
N897 N 0.74859 0.82248 0.19455 0.0
C898 C 0.72163 0.7877 0.20469 0.0
C899 C 0.722 0.80372 0.19685 0.0
C900 C 0.749 0.79088 0.21019 0.0
C901 C 0.77668 0.80939 0.20745 0.0
H902 H 0.79606 0.84142 0.19776 0.0
H903 H 0.70041 0.80251 0.19278 0.0
C904 C 0.66667 0.94449 0.17397 0.0
N905 N 0.67424 0.91961 0.17947 0.0
C906 C 0.63559 0.96004 0.17435 0.0
C907 C 0.62118 0.92452 0.18615 0.0
C908 C 0.65245 0.90966 0.18553 0.0
C909 C 0.61212 0.94961 0.1804 0.0
H910 H 0.68424 0.95139 0.1691 0.0
H911 H 0.65899 0.88937 0.18971 0.0
C912 C 0.80127 0.82109 0.17931 0.0
N913 N 0.84323 0.77536 0.18685 0.0
C914 C 0.83174 0.83134 0.18269 0.0
C915 C 0.79222 0.78755 0.17973 0.0
C916 C 0.8526 0.80784 0.18649 0.0
C917 C 0.81374 0.76483 0.18358 0.0
C918 C 0.7547 0.9198 0.16219 0.0
C919 C 0.76994 0.90714 0.15491 0.0
C920 C 0.75758 0.95363 0.16411 0.0
C921 C 0.78805 0.92857 0.1497 0.0
C922 C 0.77597 0.97423 0.15874 0.0
N923 N 0.7907 0.96137 0.15171 0.0
C924 C 0.7088 0.83425 0.15403 0.0
C925 C 0.75579 0.80132 0.15753 0.0
C926 C 0.70586 0.81834 0.14621 0.0
N927 N 0.73346 0.8255 0.15948 0.0
C928 C 0.75395 0.78492 0.14976 0.0
C929 C 0.72891 0.79359 0.14394 0.0
H930 H 0.69187 0.85415 0.15568 0.0
H931 H 0.77566 0.79549 0.16189 0.0
C932 C 0.82089 0.94103 0.18089 0.0
N933 N 0.81295 0.91644 0.17535 0.0
C934 C 0.85227 0.95589 0.18058 0.0
C935 C 0.8663 0.92022 0.16877 0.0
C936 C 0.83469 0.9061 0.1693 0.0
C937 C 0.87564 0.94508 0.17455 0.0
H938 H 0.80329 0.94831 0.18572 0.0
H939 H 0.82779 0.88611 0.16507 0.0
O940 O 0.70344 0.84572 0.17853 0.0
O941 O 0.74907 0.89734 0.1872 0.0
O942 O 0.78037 0.84374 0.17563 0.0
O943 O 0.73741 0.89913 0.16747 0.0
H944 H 0.64871 0.86507 0.17055 0.0
H945 H 0.70851 0.78025 0.17733 0.0
H946 H 0.60968 0.82724 0.16312 0.0
H947 H 0.66857 0.74391 0.16971 0.0
H948 H 0.71167 -0.00082 0.19533 0.0
H949 H 0.7194 0.87898 0.20144 0.0
H950 H 0.74206 0.9624 0.18534 0.0
H951 H 0.68949 0.91721 0.21114 0.0
H952 H 0.69937 0.77445 0.20655 0.0
H953 H 0.79852 0.81229 0.2114 0.0
H954 H 0.6295 0.97897 0.16973 0.0
H955 H 0.60406 0.91598 0.19098 0.0
H956 H 0.83909 0.8572 0.18249 0.0
H957 H 0.76873 0.7792 0.17715 0.0
H958 H 0.87618 0.81545 0.18916 0.0
H959 H 0.80697 0.73883 0.18398 0.0
H960 H 0.76811 0.881 0.15335 0.0
H961 H 0.74605 0.96379 0.16973 0.0
H962 H 0.80011 0.91909 0.14407 0.0
H963 H 0.77858 0.00042 0.16017 0.0
H964 H 0.68599 0.82565 0.14197 0.0
H965 H 0.77269 0.76652 0.14822 0.0
H966 H 0.85861 0.97468 0.18523 0.0
H967 H 0.8834 0.91141 0.16397 0.0
Li968 Li 0.09095 0.22168 0.43096 0.0
Li969 Li 0.13513 0.25216 0.43821 0.0
Li970 Li 0.08938 0.28164 0.43028 0.0
Li971 Li 0.13346 0.25292 0.42254 0.0
C972 C 0.06443 0.23751 0.44578 0.0
N973 N 0.02014 0.20397 0.45608 0.0
C974 C 0.07593 0.22012 0.45286 0.0
C975 C 0.03037 0.23826 0.44401 0.0
C976 C 0.05316 0.20321 0.45798 0.0
C977 C 0.00838 0.22102 0.44927 0.0
C978 C 0.16889 0.19667 0.43075 0.0
C979 C 0.22837 0.19306 0.42885 0.0
N980 N 0.22771 0.1611 0.43167 0.0
C981 C 0.16876 0.16362 0.43352 0.0
C982 C 0.19889 0.21137 0.4283 0.0
C983 C 0.19877 0.14614 0.43399 0.0
C984 C 0.04406 0.17347 0.42535 0.0
N985 N 0.06673 0.18113 0.43143 0.0
C986 C 0.06047 0.12751 0.43775 0.0
C987 C 0.07488 0.15906 0.43761 0.0
C988 C 0.03754 0.1185 0.43144 0.0
C989 C 0.02895 0.14215 0.42525 0.0
H990 H 0.03847 0.19126 0.42042 0.0
H991 H 0.09328 0.16569 0.44231 0.0
C992 C 0.16879 0.2823 0.45192 0.0
N993 N 0.16207 0.25278 0.44808 0.0
C994 C 0.18624 0.28302 0.45958 0.0
C995 C 0.18966 0.22299 0.45911 0.0
C996 C 0.17214 0.22345 0.4515 0.0
C997 C 0.19663 0.25302 0.46331 0.0
H998 H 0.15998 0.30523 0.44912 0.0
H999 H 0.16539 0.20028 0.4485 0.0
C1000 C 0.06119 0.26344 0.41557 0.0
N1001 N 0.01388 0.29257 0.40526 0.0
C1002 C 0.07054 0.27773 0.40787 0.0
C1003 C 0.02772 0.26353 0.41798 0.0
C1004 C 0.04626 0.29244 0.40275 0.0
C1005 C 0.00419 0.27852 0.4127 0.0
C1006 C 0.16441 0.312 0.42922 0.0
C1007 C 0.15955 0.34307 0.42543 0.0
C1008 C 0.19624 0.30303 0.43197 0.0
C1009 C 0.18676 0.36419 0.42423 0.0
C1010 C 0.22281 0.32484 0.43068 0.0
N1011 N 0.21757 0.3547 0.42685 0.0
C1012 C 0.04436 0.32954 0.43693 0.0
C1013 C 0.06543 0.34122 0.42324 0.0
C1014 C 0.02758 0.36003 0.4371 0.0
N1015 N 0.063 0.32094 0.43009 0.0
C1016 C 0.04905 0.3718 0.42312 0.0
C1017 C 0.03015 0.38179 0.43016 0.0
H1018 H 0.04318 0.31312 0.44235 0.0
H1019 H 0.081 0.33412 0.41796 0.0
C1020 C 0.16644 0.22242 0.40896 0.0
N1021 N 0.15859 0.25246 0.41237 0.0
C1022 C 0.18364 0.22063 0.4013 0.0
C1023 C 0.18381 0.28074 0.40073 0.0
C1024 C 0.16669 0.28134 0.40842 0.0
C1025 C 0.19246 0.25007 0.39707 0.0
H1026 H 0.15908 0.19981 0.41216 0.0
H1027 H 0.15904 0.30484 0.41108 0.0
O1028 O 0.0864 0.2538 0.44063 0.0
O1029 O 0.13964 0.21411 0.43025 0.0
O1030 O 0.08467 0.24919 0.4207 0.0
O1031 O 0.1379 0.29114 0.43049 0.0
H1032 H 0.10217 0.21944 0.45436 0.0
H1033 H 0.021 0.25199 0.43863 0.0
H1034 H 0.06174 0.18945 0.46344 0.0
H1035 H 0.98197 0.22124 0.44795 0.0
H1036 H 0.25174 0.20419 0.42697 0.0
H1037 H 0.14579 0.1516 0.43532 0.0
H1038 H 0.1994 0.23641 0.42585 0.0
H1039 H 0.19903 0.12064 0.43618 0.0
H1040 H 0.06751 0.11023 0.4427 0.0
H1041 H 0.0117 0.13613 0.42021 0.0
H1042 H 0.19113 0.30672 0.46259 0.0
H1043 H 0.19637 0.19923 0.46186 0.0
H1044 H 0.09627 0.27764 0.40587 0.0
H1045 H 0.02 0.25222 0.42386 0.0
H1046 H 0.05318 0.30378 0.3968 0.0
H1047 H 0.97823 0.27894 0.4145 0.0
H1048 H 0.13511 0.35076 0.42337 0.0
H1049 H 0.20043 0.27969 0.43518 0.0
H1050 H 0.18335 0.38815 0.42124 0.0
H1051 H 0.24756 0.31811 0.43276 0.0
H1052 H 0.01306 0.36662 0.44263 0.0
H1053 H 0.05225 0.38797 0.4177 0.0
H1054 H 0.18998 0.19645 0.39873 0.0
H1055 H 0.1894 0.30402 0.3976 0.0
Li1056 Li 0.71864 0.89702 0.55199 0.0
Li1057 Li 0.74619 0.85593 0.56073 0.0
Li1058 Li 0.78099 0.89518 0.55266 0.0
Li1059 Li 0.75021 0.85094 0.54591 0.0
C1060 C 0.7493 0.9378 0.56404 0.0
N1061 N 0.75218 0.00436 0.56833 0.0
C1062 C 0.75088 0.94729 0.57254 0.0
C1063 C 0.74913 0.96214 0.55772 0.0
C1064 C 0.75233 0.98108 0.57458 0.0
C1065 C 0.75062 0.99566 0.56002 0.0
C1066 C 0.69186 0.82491 0.55681 0.0
C1067 C 0.68415 0.76736 0.56066 0.0
N1068 N 0.65849 0.77629 0.5658 0.0
C1069 C 0.66521 0.83348 0.56207 0.0
C1070 C 0.70126 0.79157 0.55605 0.0
C1071 C 0.64873 0.80856 0.56658 0.0
C1072 C 0.66857 0.93687 0.54407 0.0
N1073 N 0.68005 0.9242 0.5515 0.0
C1074 C 0.63212 0.9442 0.55886 0.0
C1075 C 0.66297 0.92827 0.55885 0.0
C1076 C 0.61876 0.95619 0.55122 0.0
C1077 C 0.63777 0.95301 0.54378 0.0
H1078 H 0.68291 0.93381 0.53835 0.0
H1079 H 0.67286 0.91807 0.56467 0.0
C1080 C 0.7624 0.80749 0.57303 0.0
N1081 N 0.74302 0.83437 0.57134 0.0
C1082 C 0.7613 0.79245 0.58097 0.0
C1083 C 0.72033 0.83313 0.58532 0.0
C1084 C 0.72225 0.84739 0.57727 0.0
C1085 C 0.74018 0.80536 0.58726 0.0
H1086 H 0.7792 0.79812 0.56826 0.0
H1087 H 0.70737 0.86902 0.57576 0.0
C1088 C 0.75772 0.89612 0.5341 0.0
N1089 N 0.76935 0.88672 0.51701 0.0
C1090 C 0.79024 0.89658 0.53095 0.0
C1091 C 0.73113 0.89072 0.52855 0.0
C1092 C 0.79559 0.89191 0.52229 0.0
C1093 C 0.73753 0.88599 0.51994 0.0
C1094 C 0.80935 0.82447 0.55103 0.0
C1095 C 0.83943 0.83549 0.54756 0.0
C1096 C 0.8024 0.79039 0.55123 0.0
C1097 C 0.86192 0.81224 0.54431 0.0
C1098 C 0.82551 0.76794 0.54789 0.0
N1099 N 0.85454 0.77923 0.54454 0.0
C1100 C 0.84239 0.91157 0.55953 0.0
C1101 C 0.8277 0.94569 0.54787 0.0
C1102 C 0.87346 0.92683 0.56011 0.0
N1103 N 0.82064 0.92064 0.55337 0.0
C1104 C 0.85861 0.96159 0.54819 0.0
C1105 C 0.88216 0.95181 0.5543 0.0
H1106 H 0.83593 0.89164 0.56383 0.0
H1107 H 0.80962 0.95283 0.54313 0.0
C1108 C 0.71956 0.80929 0.53382 0.0
N1109 N 0.74966 0.82101 0.53642 0.0
C1110 C 0.71682 0.79131 0.52628 0.0
C1111 C 0.77625 0.79662 0.52439 0.0
C1112 C 0.77775 0.81492 0.53187 0.0
C1113 C 0.74543 0.78512 0.52143 0.0
H1114 H 0.69744 0.81517 0.53742 0.0
H1115 H 0.8011 0.82574 0.53375 0.0
O1116 O 0.74794 0.90477 0.56197 0.0
O1117 O 0.70892 0.84904 0.55252 0.0
O1118 O 0.75204 0.89998 0.54259 0.0
O1119 O 0.78717 0.84686 0.55433 0.0
H1120 H 0.751 0.92871 0.5775 0.0
H1121 H 0.74784 0.95532 0.5511 0.0
H1122 H 0.75358 0.9888 0.58114 0.0
H1123 H 0.75054 0.01477 0.5552 0.0
H1124 H 0.69128 0.74148 0.56016 0.0
H1125 H 0.65749 0.8591 0.56271 0.0
H1126 H 0.72155 0.78447 0.55193 0.0
H1127 H 0.62821 0.81487 0.57072 0.0
H1128 H 0.61831 0.94582 0.56473 0.0
H1129 H 0.62874 0.96246 0.53779 0.0
H1130 H 0.7775 0.77149 0.58224 0.0
H1131 H 0.70351 0.8437 0.58995 0.0
H1132 H 0.81121 0.89977 0.53515 0.0
H1133 H 0.70588 0.88932 0.53089 0.0
H1134 H 0.82064 0.89207 0.51978 0.0
H1135 H 0.71722 0.8815 0.51559 0.0
H1136 H 0.84522 0.86169 0.54724 0.0
H1137 H 0.77933 0.78131 0.55386 0.0
H1138 H 0.88518 0.82045 0.54157 0.0
H1139 H 0.82034 0.74153 0.54798 0.0
H1140 H 0.89091 0.91832 0.56487 0.0
H1141 H 0.8641 0.98113 0.54369 0.0
H1142 H 0.69256 0.78305 0.52415 0.0
H1143 H 0.79875 0.7932 0.52071 0.0
Li1144 Li 0.13166 0.24761 0.8121 0.0
Li1145 Li 0.08945 0.2167 0.80427 0.0
Li1146 Li 0.13575 0.24318 0.79696 0.0
Li1147 Li 0.09112 0.2764 0.80316 0.0
C1148 C 0.15882 0.1859 0.80137 0.0
N1149 N 0.20181 0.14531 0.79245 0.0
C1150 C 0.14626 0.16133 0.79599 0.0
C1151 C 0.19321 0.18979 0.80224 0.0
C1152 C 0.16842 0.14106 0.79153 0.0
C1153 C 0.21454 0.16904 0.79767 0.0
C1154 C 0.06007 0.23461 0.81849 0.0
C1155 C 0.00388 0.21662 0.82127 0.0
N1156 N 0.01453 0.20103 0.82841 0.0
C1157 C 0.07045 0.2186 0.82589 0.0
C1158 C 0.0265 0.23383 0.81618 0.0
C1159 C 0.04704 0.20169 0.83081 0.0
C1160 C 0.15017 0.27661 0.82761 0.0
N1161 N 0.15453 0.24952 0.82257 0.0
C1162 C 0.18906 0.22368 0.83297 0.0
C1163 C 0.17336 0.22322 0.82508 0.0
C1164 C 0.18557 0.25167 0.8382 0.0
C1165 C 0.16604 0.27847 0.83544 0.0
H1166 H 0.13415 0.29666 0.82556 0.0
H1167 H 0.17575 0.2017 0.82102 0.0
C1168 C 0.04233 0.16888 0.79836 0.0
N1169 N 0.06394 0.1771 0.80464 0.0
C1170 C 0.02717 0.13758 0.79832 0.0
C1171 C 0.05635 0.12429 0.81128 0.0
C1172 C 0.07115 0.15561 0.81102 0.0
C1173 C 0.0344 0.11475 0.8048 0.0
H1174 H 0.03773 0.18613 0.79325 0.0
H1175 H 0.08932 0.16244 0.81577 0.0
C1176 C 0.16071 0.30462 0.80802 0.0
N1177 N 0.2025 0.34587 0.81713 0.0
C1178 C 0.14936 0.33554 0.81088 0.0
C1179 C 0.19338 0.29476 0.80977 0.0
C1180 C 0.17087 0.35603 0.81547 0.0
C1181 C 0.21409 0.31593 0.8144 0.0
C1182 C 0.06688 0.25896 0.7884 0.0
C1183 C 0.07961 0.27592 0.78138 0.0
C1184 C 0.03263 0.25925 0.78994 0.0
C1185 C 0.05782 0.29308 0.77605 0.0
C1186 C 0.01167 0.27673 0.78446 0.0
N1187 N 0.02458 0.29315 0.77769 0.0
C1188 C 0.15252 0.22302 0.78055 0.0
C1189 C 0.19342 0.25663 0.78716 0.0
C1190 C 0.16964 0.22435 0.77288 0.0
N1191 N 0.1641 0.23988 0.7874 0.0
C1192 C 0.21159 0.2583 0.77964 0.0
C1193 C 0.1991 0.24309 0.77227 0.0
H1194 H 0.12899 0.21003 0.78094 0.0
H1195 H 0.20203 0.26986 0.79268 0.0
C1196 C 0.043 0.32507 0.80767 0.0
N1197 N 0.06707 0.31681 0.802 0.0
C1198 C 0.02807 0.35646 0.80736 0.0
C1199 C 0.06242 0.36979 0.79526 0.0
C1200 C 0.07688 0.33833 0.79586 0.0
C1201 C 0.03806 0.37952 0.80115 0.0
H1202 H 0.03622 0.30773 0.8126 0.0
H1203 H 0.0967 0.3314 0.79158 0.0
O1204 O 0.13757 0.20659 0.80561 0.0
O1205 O 0.08267 0.25084 0.8135 0.0
O1206 O 0.13993 0.28408 0.80357 0.0
O1207 O 0.08784 0.24241 0.79377 0.0
H1208 H 0.11972 0.15818 0.79518 0.0
H1209 H 0.20332 0.20882 0.80635 0.0
H1210 H 0.15907 0.12203 0.78731 0.0
H1211 H 0.24122 0.17185 0.79825 0.0
H1212 H 0.97785 0.21566 0.81953 0.0
H1213 H 0.09632 0.21893 0.82777 0.0
H1214 H 0.01804 0.24623 0.8105 0.0
H1215 H 0.05475 0.18903 0.83653 0.0
H1216 H 0.2039 0.20255 0.83494 0.0
H1217 H 0.16246 0.30021 0.8394 0.0
H1218 H 0.01034 0.13115 0.79321 0.0
H1219 H 0.06311 0.10722 0.8163 0.0
H1220 H 0.12415 0.34357 0.80963 0.0
H1221 H 0.20245 0.27073 0.80773 0.0
H1222 H 0.16238 0.37997 0.81774 0.0
H1223 H 0.23932 0.30849 0.81586 0.0
H1224 H 0.10607 0.27629 0.78014 0.0
H1225 H 0.02237 0.24628 0.79534 0.0
H1226 H 0.06734 0.30646 0.77062 0.0
H1227 H 0.98512 0.27729 0.7856 0.0
H1228 H 0.15874 0.21255 0.76737 0.0
H1229 H 0.2345 0.27247 0.77953 0.0
H1230 H 0.00985 0.36296 0.81213 0.0
H1231 H 0.07064 0.38645 0.7903 0.0
Li1232 Li 0.75619 0.63499 0.06052 0.0
Li1233 Li 0.78669 0.59169 0.05357 0.0
Li1234 Li 0.75477 0.63378 0.04563 0.0
Li1235 Li 0.72393 0.59193 0.0534 0.0
C1236 C 0.81407 0.66334 0.05659 0.0
N1237 N 0.85323 0.71037 0.06456 0.0
C1238 C 0.84462 0.65419 0.06014 0.0
C1239 C 0.80354 0.69644 0.05706 0.0
C1240 C 0.86404 0.67833 0.06415 0.0
C1241 C 0.82365 0.71983 0.06114 0.0
C1242 C 0.76202 0.58454 0.07159 0.0
C1243 C 0.74317 0.58399 0.0861 0.0
N1244 N 0.77534 0.58333 0.08877 0.0
C1245 C 0.79491 0.58382 0.07449 0.0
C1246 C 0.73593 0.58451 0.07745 0.0
C1247 C 0.80112 0.58317 0.08319 0.0
C1248 C 0.72481 0.67583 0.07255 0.0
N1249 N 0.75456 0.66179 0.07052 0.0
C1250 C 0.77788 0.67911 0.08371 0.0
C1251 C 0.78104 0.66363 0.07586 0.0
C1252 C 0.74721 0.69297 0.08607 0.0
C1253 C 0.72061 0.69187 0.08032 0.0
H1254 H 0.70396 0.67351 0.06826 0.0
H1255 H 0.8043 0.65194 0.07421 0.0
C1256 C 0.84976 0.57678 0.04773 0.0
N1257 N 0.82572 0.56542 0.05303 0.0
C1258 C 0.88054 0.56086 0.04734 0.0
C1259 C 0.86072 0.52091 0.05762 0.0
C1260 C 0.8302 0.53759 0.05779 0.0
C1261 C 0.88654 0.53288 0.05244 0.0
H1262 H 0.84529 0.59888 0.04399 0.0
H1263 H 0.81038 0.52884 0.06185 0.0
C1264 C 0.69792 0.66103 0.04851 0.0
N1265 N 0.66177 0.70301 0.03816 0.0
C1266 C 0.67534 0.64792 0.04267 0.0
C1267 C 0.70194 0.69547 0.04915 0.0
C1268 C 0.65734 0.66957 0.03747 0.0
C1269 C 0.68348 0.71629 0.04384 0.0
C1270 C 0.75748 0.5523 0.04129 0.0
C1271 C 0.76388 0.54452 0.03282 0.0
C1272 C 0.75413 0.52669 0.04723 0.0
C1273 C 0.76653 0.51118 0.03041 0.0
C1274 C 0.75697 0.49367 0.04456 0.0
N1275 N 0.76304 0.48666 0.03627 0.0
C1276 C 0.76678 0.68789 0.03409 0.0
C1277 C 0.73954 0.64003 0.02869 0.0
C1278 C 0.76608 0.70286 0.0261 0.0
N1279 N 0.75371 0.65698 0.0352 0.0
C1280 C 0.73859 0.65384 0.02062 0.0
C1281 C 0.75223 0.68551 0.01923 0.0
H1282 H 0.77798 0.70077 0.03937 0.0
H1283 H 0.72903 0.61566 0.02979 0.0
C1284 C 0.66231 0.57567 0.06011 0.0
N1285 N 0.6829 0.56831 0.05355 0.0
C1286 C 0.63016 0.56266 0.06039 0.0
C1287 C 0.64074 0.53493 0.04708 0.0
C1288 C 0.67273 0.54854 0.04706 0.0
C1289 C 0.61886 0.54222 0.05377 0.0
H1290 H 0.6705 0.59262 0.06499 0.0
H1291 H 0.68888 0.54426 0.0417 0.0
O1292 O 0.79479 0.64007 0.0526 0.0
O1293 O 0.75545 0.58557 0.06309 0.0
O1294 O 0.71651 0.64023 0.05347 0.0
O1295 O 0.75544 0.58487 0.04376 0.0
H1296 H 0.85311 0.62868 0.05988 0.0
H1297 H 0.77986 0.70389 0.05442 0.0
H1298 H 0.88767 0.67158 0.06695 0.0
H1299 H 0.81569 0.74548 0.06159 0.0
H1300 H 0.7232 0.58415 0.09069 0.0
H1301 H 0.81547 0.58469 0.07009 0.0
H1302 H 0.71036 0.58509 0.07535 0.0
H1303 H 0.82646 0.58288 0.08551 0.0
H1304 H 0.79905 0.67972 0.08796 0.0
H1305 H 0.69648 0.70202 0.08195 0.0
H1306 H 0.8998 0.57113 0.04333 0.0
H1307 H 0.86418 0.49911 0.06156 0.0
H1308 H 0.6721 0.62131 0.04206 0.0
H1309 H 0.71926 0.706 0.05365 0.0
H1310 H 0.63995 0.65977 0.03288 0.0
H1311 H 0.68644 0.74299 0.04423 0.0
H1312 H 0.76687 0.56405 0.02817 0.0
H1313 H 0.74932 0.53218 0.05381 0.0
H1314 H 0.77143 0.50479 0.02387 0.0
H1315 H 0.75436 0.47362 0.04908 0.0
H1316 H 0.77687 0.72732 0.02526 0.0
H1317 H 0.72711 0.63994 0.01552 0.0
H1318 H 0.61421 0.56886 0.06569 0.0
H1319 H 0.63282 0.51991 0.04175 0.0
Li1320 Li 0.35976 0.24688 0.31434 0.0
Li1321 Li 0.40116 0.27662 0.30652 0.0
Li1322 Li 0.35911 0.24532 0.29918 0.0
Li1323 Li 0.40216 0.21669 0.30669 0.0
C1324 C 0.3198 0.29408 0.30627 0.0
N1325 N 0.25373 0.31313 0.30574 0.0
C1326 C 0.31133 0.32721 0.30467 0.0
C1327 C 0.29466 0.27064 0.30761 0.0
C1328 C 0.27779 0.33635 0.30442 0.0
C1329 C 0.26141 0.28076 0.30732 0.0
C1330 C 0.41521 0.26464 0.32366 0.0
C1331 C 0.442 0.26918 0.33727 0.0
N1332 N 0.42836 0.2999 0.3383 0.0
C1333 C 0.40143 0.29624 0.32485 0.0
C1334 C 0.43563 0.25095 0.32991 0.0
C1335 C 0.40839 0.31367 0.3323 0.0
C1336 C 0.33048 0.21722 0.32853 0.0
N1337 N 0.33447 0.24672 0.32446 0.0
C1338 C 0.30602 0.27561 0.33551 0.0
C1339 C 0.32245 0.2756 0.32773 0.0
C1340 C 0.30194 0.24559 0.33994 0.0
C1341 C 0.31408 0.21605 0.33632 0.0
H1342 H 0.34064 0.19472 0.32579 0.0
H1343 H 0.32609 0.29875 0.32438 0.0
C1344 C 0.41266 0.34012 0.30065 0.0
N1345 N 0.42588 0.31666 0.30584 0.0
C1346 C 0.42732 0.37143 0.30003 0.0
C1347 C 0.46941 0.35365 0.31001 0.0
C1348 C 0.45403 0.32252 0.31038 0.0
C1349 C 0.45582 0.37865 0.30483 0.0
H1350 H 0.39029 0.33461 0.2971 0.0
H1351 H 0.46421 0.30328 0.31441 0.0
C1352 C 0.34724 0.17878 0.30267 0.0
N1353 N 0.33451 0.12067 0.29389 0.0
C1354 C 0.36243 0.17298 0.29483 0.0
C1355 C 0.3256 0.15502 0.30603 0.0
C1356 C 0.35567 0.14345 0.2905 0.0
C1357 C 0.31947 0.1258 0.3015 0.0
C1358 C 0.44018 0.24779 0.29425 0.0
C1359 C 0.44827 0.2501 0.28566 0.0
C1360 C 0.46561 0.24698 0.30029 0.0
C1361 C 0.4817 0.25157 0.28326 0.0
C1362 C 0.49873 0.24852 0.29764 0.0
N1363 N 0.50603 0.25076 0.28925 0.0
C1364 C 0.34537 0.25878 0.28225 0.0
C1365 C 0.30276 0.22819 0.28911 0.0
C1366 C 0.32897 0.25595 0.2745 0.0
N1367 N 0.33243 0.24441 0.28929 0.0
C1368 C 0.2854 0.22489 0.2815 0.0
C1369 C 0.29888 0.23821 0.27402 0.0
H1370 H 0.36904 0.2715 0.28261 0.0
H1371 H 0.29305 0.21691 0.29481 0.0
C1372 C 0.42285 0.15728 0.314 0.0
N1373 N 0.42709 0.17638 0.30699 0.0
C1374 C 0.43628 0.12526 0.31435 0.0
C1375 C 0.45923 0.13363 0.30037 0.0
C1376 C 0.4449 0.16525 0.30023 0.0
C1377 C 0.45448 0.1128 0.30743 0.0
H1378 H 0.40787 0.16651 0.31919 0.0
H1379 H 0.44711 0.18034 0.29461 0.0
O1380 O 0.3526 0.28493 0.3065 0.0
O1381 O 0.40861 0.24683 0.31647 0.0
O1382 O 0.35353 0.20737 0.30709 0.0
O1383 O 0.40747 0.24659 0.29665 0.0
H1384 H 0.3305 0.34568 0.30362 0.0
H1385 H 0.30065 0.24491 0.30889 0.0
H1386 H 0.27088 0.36191 0.30319 0.0
H1387 H 0.24172 0.26287 0.30835 0.0
H1388 H 0.45777 0.25889 0.34217 0.0
H1389 H 0.38558 0.30726 0.32008 0.0
H1390 H 0.4464 0.22647 0.32909 0.0
H1391 H 0.3979 0.33815 0.3333 0.0
H1392 H 0.29668 0.29887 0.33803 0.0
H1393 H 0.31176 0.19245 0.33957 0.0
H1394 H 0.41588 0.39009 0.29602 0.0
H1395 H 0.49159 0.35815 0.31373 0.0
H1396 H 0.37926 0.19101 0.29211 0.0
H1397 H 0.31368 0.15914 0.31209 0.0
H1398 H 0.36726 0.13865 0.28444 0.0
H1399 H 0.30277 0.10719 0.30403 0.0
H1400 H 0.4289 0.25072 0.2809 0.0
H1401 H 0.45997 0.24502 0.30696 0.0
H1402 H 0.48831 0.25335 0.27664 0.0
H1403 H 0.51864 0.2479 0.30225 0.0
H1404 H 0.34056 0.26623 0.26889 0.0
H1405 H 0.26208 0.2114 0.28145 0.0
H1406 H 0.43132 0.11007 0.31987 0.0
H1407 H 0.47342 0.12547 0.29493 0.0
H1408 H 0.20554 0.29353 0.10076 0.0
H1409 H 0.30458 0.20557 0.13825 0.0
H1410 H 0.31252 0.2843 0.10085 0.0
H1411 H 0.20381 0.24175 0.14078 0.0
H1412 H 0.30806 0.23235 0.12439 0.0
H1413 H 0.20402 0.27145 0.11517 0.0
C1414 C 0.2287 0.28666 0.10382 0.0
C1415 C 0.25919 0.29052 0.09961 0.0
C1416 C 0.2853 0.2346 0.12802 0.0
C1417 C 0.25769 0.26547 0.1161 0.0
C1418 C 0.28333 0.21951 0.13596 0.0
C1419 C 0.25376 0.22121 0.14069 0.0
C1420 C 0.2574 0.25122 0.12474 0.0
C1421 C 0.22688 0.23918 0.1373 0.0
C1422 C 0.22785 0.27434 0.11206 0.0
C1423 C 0.28852 0.28179 0.1039 0.0
N1424 N 0.22926 0.25324 0.12951 0.0
N1425 N 0.28704 0.26944 0.1119 0.0
H1426 H 0.78392 0.80266 0.38531 0.0
H1427 H 0.70864 0.69633 0.34707 0.0
H1428 H 0.78202 0.69532 0.38493 0.0
H1429 H 0.72544 0.80232 0.34577 0.0
H1430 H 0.73356 0.69564 0.36114 0.0
H1431 H 0.75983 0.80328 0.3711 0.0
C1432 C 0.77823 0.77922 0.38225 0.0
C1433 C 0.7849 0.74888 0.38631 0.0
C1434 C 0.73191 0.71903 0.35777 0.0
C1435 C 0.75761 0.74939 0.37003 0.0
C1436 C 0.71788 0.71943 0.3497 0.0
C1437 C 0.71505 0.74943 0.34519 0.0
C1438 C 0.74306 0.74887 0.36141 0.0
C1439 C 0.72675 0.77868 0.34904 0.0
C1440 C 0.76471 0.77958 0.37412 0.0
C1441 C 0.77754 0.71925 0.382 0.0
N1442 N 0.7402 0.77767 0.35693 0.0
N1443 N 0.76419 0.72025 0.3741 0.0
H1444 H 0.30143 0.2013 0.59858 0.0
H1445 H 0.19402 0.28308 0.63552 0.0
H1446 H 0.19405 0.20069 0.59854 0.0
H1447 H 0.29684 0.25396 0.63858 0.0
H1448 H 0.19356 0.25619 0.62164 0.0
H1449 H 0.3006 0.22509 0.61284 0.0
C1450 C 0.27768 0.20637 0.60157 0.0
C1451 C 0.24776 0.19912 0.59739 0.0
C1452 C 0.21614 0.25556 0.62539 0.0
C1453 C 0.2466 0.22614 0.61368 0.0
C1454 C 0.21639 0.27071 0.63334 0.0
C1455 C 0.24558 0.27098 0.63824 0.0
C1456 C 0.24536 0.24086 0.62227 0.0
C1457 C 0.27395 0.25502 0.63498 0.0
C1458 C 0.27722 0.21967 0.60972 0.0
C1459 C 0.21767 0.20574 0.60158 0.0
N1460 N 0.27319 0.24084 0.62718 0.0
N1461 N 0.21783 0.21907 0.60949 0.0
H1462 H 0.81593 0.70892 0.85157 0.0
H1463 H 0.67983 0.78909 0.88189 0.0
H1464 H 0.73665 0.77178 0.84227 0.0
H1465 H 0.7318 0.69847 0.88818 0.0
H1466 H 0.70521 0.78778 0.86778 0.0
H1467 H 0.78959 0.70875 0.86549 0.0
C1468 C 0.79284 0.72242 0.8524 0.0
C1469 C 0.77851 0.74034 0.84568 0.0
C1470 C 0.71099 0.76817 0.87225 0.0
C1471 C 0.7488 0.74092 0.8617 0.0
C1472 C 0.69674 0.76903 0.88029 0.0
C1473 C 0.70386 0.74388 0.88617 0.0
C1474 C 0.73289 0.74224 0.87013 0.0
C1475 C 0.72559 0.71821 0.88379 0.0
C1476 C 0.77796 0.72245 0.86038 0.0
C1477 C 0.74898 0.75805 0.84726 0.0
N1478 N 0.73955 0.71815 0.87595 0.0
N1479 N 0.7352 0.75803 0.85511 0.0
H1480 H 0.73754 0.83743 0.60259 0.0
H1481 H 0.75435 0.66966 0.62951 0.0
H1482 H 0.74201 0.7393 0.59152 0.0
H1483 H 0.74321 0.76668 0.64089 0.0
H1484 H 0.75061 0.69511 0.61553 0.0
H1485 H 0.73923 0.81228 0.61667 0.0
C1486 C 0.73855 0.81058 0.60311 0.0
C1487 C 0.73972 0.79044 0.59585 0.0
C1488 C 0.74899 0.71089 0.62107 0.0
C1489 C 0.74216 0.76155 0.61195 0.0
C1490 C 0.75139 0.69639 0.62906 0.0
C1491 C 0.7493 0.71611 0.63638 0.0
C1492 C 0.7445 0.74542 0.62037 0.0
C1493 C 0.74473 0.75053 0.63541 0.0
C1494 C 0.73974 0.79626 0.61116 0.0
C1495 C 0.74156 0.75583 0.59693 0.0
N1496 N 0.74257 0.76412 0.62755 0.0
N1497 N 0.7428 0.7425 0.60482 0.0
H1498 H 0.23248 0.22796 0.89118 0.0
H1499 H 0.22729 0.29923 0.84439 0.0
H1500 H 0.3153 0.28215 0.88044 0.0
H1501 H 0.17985 0.20663 0.85101 0.0
H1502 H 0.25335 0.3007 0.85846 0.0
H1503 H 0.20635 0.22685 0.87722 0.0
C1504 C 0.24533 0.23951 0.88592 0.0
C1505 C 0.27635 0.25508 0.88705 0.0
C1506 C 0.23727 0.28007 0.85681 0.0
C1507 C 0.24589 0.25466 0.87112 0.0
C1508 C 0.22239 0.27929 0.84883 0.0
C1509 C 0.20163 0.2527 0.84659 0.0
C1510 C 0.23069 0.25446 0.86261 0.0
C1511 C 0.19598 0.22738 0.85252 0.0
C1512 C 0.23023 0.23898 0.87797 0.0
C1513 C 0.29116 0.27038 0.87998 0.0
N1514 N 0.21025 0.22899 0.86031 0.0
N1515 N 0.27573 0.26991 0.87233 0.0
H1516 H 0.76677 0.66596 0.1011 0.0
H1517 H 0.71424 0.82335 0.12874 0.0
H1518 H 0.71698 0.75155 0.09054 0.0
H1519 H 0.74194 0.72868 0.13961 0.0
H1520 H 0.71608 0.79825 0.11469 0.0
H1521 H 0.75986 0.68957 0.11525 0.0
C1522 C 0.75451 0.68984 0.10177 0.0
C1523 C 0.74266 0.70701 0.09465 0.0
C1524 C 0.72154 0.78293 0.12016 0.0
C1525 C 0.73445 0.73405 0.11081 0.0
C1526 C 0.72029 0.79718 0.1282 0.0
C1527 C 0.72803 0.77814 0.1354 0.0
C1528 C 0.73089 0.74947 0.11927 0.0
C1529 C 0.73635 0.7445 0.13425 0.0
C1530 C 0.75034 0.70317 0.10984 0.0
C1531 C 0.7264 0.73752 0.09588 0.0
N1532 N 0.73775 0.73131 0.12634 0.0
N1533 N 0.72296 0.75021 0.10381 0.0
H1534 H 0.24269 0.29038 0.39135 0.0
H1535 H 0.25675 0.20078 0.34619 0.0
H1536 H 0.18162 0.20706 0.38385 0.0
H1537 H 0.31086 0.28966 0.35294 0.0
H1538 H 0.23088 0.2009 0.36021 0.0
H1539 H 0.26964 0.28901 0.3775 0.0
C1540 C 0.23486 0.27186 0.38679 0.0
C1541 C 0.20978 0.24885 0.38877 0.0
C1542 C 0.24839 0.22039 0.35862 0.0
C1543 C 0.24079 0.24693 0.37292 0.0
C1544 C 0.26327 0.22024 0.35064 0.0
C1545 C 0.28589 0.24531 0.34839 0.0
C1546 C 0.25632 0.24572 0.36442 0.0
C1547 C 0.29318 0.27013 0.35437 0.0
C1548 C 0.25037 0.27099 0.37889 0.0
C1549 C 0.2011 0.22503 0.38265 0.0
N1550 N 0.27847 0.26968 0.3621 0.0
N1551 N 0.21653 0.22473 0.375 0.0
H1552 H 0.25905 0.23667 0.22033 0.0
H1553 H 0.26958 0.1804 0.26871 0.0
H1554 H 0.23514 0.13818 0.22933 0.0
H1555 H 0.29338 0.27969 0.26021 0.0
H1556 H 0.25011 0.16693 0.25454 0.0
H1557 H 0.26539 0.25513 0.23502 0.0
C1558 C 0.25473 0.21905 0.2254 0.0
C1559 C 0.24701 0.18573 0.22361 0.0
C1560 C 0.25929 0.19179 0.25578 0.0
C1561 C 0.25445 0.20654 0.2404 0.0
C1562 C 0.27017 0.19962 0.26391 0.0
C1563 C 0.28339 0.2312 0.26567 0.0
C1564 C 0.26184 0.21557 0.2493 0.0
C1565 C 0.28399 0.25483 0.25911 0.0
C1566 C 0.25848 0.22955 0.23378 0.0
C1567 C 0.24183 0.16391 0.23042 0.0
N1568 N 0.27367 0.24644 0.2512 0.0
N1569 N 0.24587 0.17464 0.2385 0.0
H1570 H 0.73383 0.78331 0.46787 0.0
H1571 H 0.78423 0.73586 0.5147 0.0
H1572 H 0.80253 0.70424 0.47386 0.0
H1573 H 0.70215 0.80093 0.50874 0.0
H1574 H 0.78669 0.71882 0.49985 0.0
H1575 H 0.71699 0.78532 0.48274 0.0
C1576 C 0.74496 0.76602 0.47231 0.0
C1577 C 0.76982 0.74382 0.46967 0.0
C1578 C 0.76771 0.73636 0.5018 0.0
C1579 C 0.75105 0.74619 0.48669 0.0
C1580 C 0.76637 0.7461 0.51027 0.0
C1581 C 0.74316 0.77002 0.51291 0.0
C1582 C 0.74606 0.7511 0.49591 0.0
C1583 C 0.72037 0.78235 0.50696 0.0
C1584 C 0.7353 0.76709 0.48079 0.0
C1585 C 0.78322 0.7217 0.47563 0.0
N1586 N 0.72276 0.77317 0.4987 0.0
N1587 N 0.77408 0.72383 0.4839 0.0
H1588 H 0.23338 0.24552 0.71829 0.0
H1589 H 0.22679 0.30134 0.76674 0.0
H1590 H 0.25501 0.34458 0.72728 0.0
H1591 H 0.2052 0.20113 0.7585 0.0
H1592 H 0.24451 0.31503 0.75248 0.0
H1593 H 0.22949 0.22654 0.73302 0.0
C1594 C 0.23768 0.26316 0.72336 0.0
C1595 C 0.24402 0.29677 0.72158 0.0
C1596 C 0.23624 0.28991 0.75379 0.0
C1597 C 0.23951 0.27536 0.73838 0.0
C1598 C 0.22639 0.28192 0.76199 0.0
C1599 C 0.21423 0.25001 0.76386 0.0
C1600 C 0.23362 0.26602 0.74734 0.0
C1601 C 0.21376 0.22623 0.75733 0.0
C1602 C 0.23536 0.25236 0.73176 0.0
C1603 C 0.24932 0.31861 0.72837 0.0
N1604 N 0.22296 0.23482 0.74933 0.0
N1605 N 0.24672 0.30757 0.73646 0.0
H1606 H 0.73455 0.74871 0.01441 0.0
H1607 H 0.73663 0.70055 0.9654 0.0
H1608 H 0.76916 0.65492 0.00445 0.0
H1609 H 0.69628 0.79305 0.97483 0.0
H1610 H 0.75737 0.68804 0.97948 0.0
H1611 H 0.72848 0.76948 -0.00011 0.0
C1612 C 0.74132 0.73269 0.00917 0.0
C1613 C 0.75187 0.6999 0.01061 0.0
C1614 C 0.74429 0.71126 0.97847 0.0
C1615 C 0.7449 0.7233 -0.00596 0.0
C1616 C 0.73266 0.71862 0.97038 0.0
C1617 C 0.71434 0.74781 0.96891 0.0
C1618 C 0.73735 0.73304 0.9852 0.0
C1619 C 0.70965 0.76992 0.97571 0.0
C1620 C 0.73773 0.74448 0.00089 0.0
C1621 C 0.76026 0.68013 0.00361 0.0
N1622 N 0.72074 0.7619 0.98358 0.0
N1623 N 0.75635 0.69204 -0.00436 0.0
H1624 H 0.31112 0.31829 0.01315 0.0
H1625 H 0.26657 0.2089 0.973 0.0
H1626 H 0.22535 0.25379 0.01356 0.0
H1627 H 0.31081 0.30644 0.9713 0.0
H1628 H 0.25645 0.21848 0.9882 0.0
H1629 H 0.318 0.30683 -0.00193 0.0
C1630 C 0.294 0.30133 0.01007 0.0
C1631 C 0.26775 0.28678 0.01458 0.0
C1632 C 0.26804 0.23781 0.98444 0.0
C1633 C 0.27532 0.27379 -0.00266 0.0
C1634 C 0.27384 0.23237 0.97582 0.0
C1635 C 0.2893 0.25705 0.97092 0.0
C1636 C 0.27863 0.26771 0.98816 0.0
C1637 C 0.29841 0.28698 0.97484 0.0
C1638 C 0.29773 0.29509 0.00146 0.0
C1639 C 0.24588 0.26546 0.01026 0.0
N1640 N 0.29326 0.29133 0.98325 0.0
N1641 N 0.25025 0.2594 0.00185 0.0
H1642 H 0.66005 0.71789 0.25529 0.0
H1643 H 0.77522 0.81833 0.22469 0.0
H1644 H 0.74789 0.76885 0.26431 0.0
H1645 H 0.71813 0.73388 0.21595 0.0
H1646 H 0.76606 0.80055 0.2392 0.0
H1647 H 0.68075 0.72302 0.24087 0.0
C1648 C 0.68397 0.72963 0.25429 0.0
C1649 C 0.70201 0.74328 0.26109 0.0
C1650 C 0.75596 0.78565 0.2341 0.0
C1651 C 0.72535 0.75001 0.24448 0.0
C1652 C 0.76134 0.79565 0.22576 0.0
C1653 C 0.74718 0.77781 0.21901 0.0
C1654 C 0.73572 0.75799 0.23573 0.0
C1655 C 0.72883 0.74899 0.22092 0.0
C1656 C 0.69569 0.73267 0.24602 0.0
C1657 C 0.7326 0.75874 0.25929 0.0
N1658 N 0.72318 0.74028 0.22911 0.0
N1659 N 0.74305 0.76212 0.25116 0.0
H1660 H 0.18024 0.29049 0.47721 0.0
H1661 H 0.28675 0.17724 0.50845 0.0
H1662 H 0.24825 0.21403 0.46887 0.0
H1663 H 0.21963 0.25433 0.51689 0.0
H1664 H 0.27966 0.19642 0.49393 0.0
H1665 H 0.20088 0.28369 0.49164 0.0
C1666 C 0.19997 0.27271 0.47837 0.0
C1667 C 0.21223 0.25249 0.47183 0.0
C1668 C 0.26678 0.20943 0.49896 0.0
C1669 C 0.23555 0.24414 0.48838 0.0
C1670 C 0.27103 0.19864 0.50728 0.0
C1671 C 0.25346 0.21395 0.51391 0.0
C1672 C 0.24463 0.2356 0.49722 0.0
C1673 C 0.2331 0.24132 0.51196 0.0
C1674 C 0.21159 0.26868 0.48664 0.0
C1675 C 0.23757 0.22964 0.47375 0.0
N1676 N 0.22896 0.25102 0.50379 0.0
N1677 N 0.24812 0.22584 0.48187 0.0
H1678 H 0.75305 0.75677 0.71734 0.0
H1679 H 0.75641 0.69789 0.76563 0.0
H1680 H 0.7254 0.6587 0.72601 0.0
H1681 H 0.79195 0.79398 0.75739 0.0
H1682 H 0.7366 0.68694 0.75136 0.0
H1683 H 0.76024 0.77403 0.7321 0.0
C1684 C 0.74828 0.73893 0.72233 0.0
C1685 C 0.73878 0.70616 0.7204 0.0
C1686 C 0.74845 0.71058 0.75267 0.0
C1687 C 0.7467 0.72582 0.73729 0.0
C1688 C 0.75953 0.71701 0.76086 0.0
C1689 C 0.77614 0.74685 0.76273 0.0
C1690 C 0.75418 0.73399 0.74624 0.0
C1691 C 0.77986 0.77037 0.75621 0.0
C1692 C 0.75223 0.74886 0.73075 0.0
C1693 C 0.73237 0.68431 0.72715 0.0
N1694 N 0.76926 0.76331 0.74823 0.0
N1695 N 0.73669 0.69447 0.73526 0.0
H1696 H 0.04953 0.07088 0.17856 0.0
H1697 H 0.9339 0.91067 0.17247 0.0
H1698 H 0.08804 0.97127 0.17557 0.0
H1699 H 0.89586 0.00971 0.17677 0.0
H1700 H 0.99049 0.93266 0.17295 0.0
H1701 H 0.99312 0.04905 0.17747 0.0
C1702 C 0.04613 0.04434 0.17774 0.0
C1703 C 0.07361 0.02283 0.17723 0.0
C1704 C 0.96978 0.94961 0.17376 0.0
C1705 C 0.00892 -0.0023 0.17584 0.0
C1706 C 0.93743 0.93712 0.17343 0.0
C1707 C 0.91007 0.95841 0.17456 0.0
C1708 C 0.97488 0.98367 0.17524 0.0
C1709 C 0.91621 0.99234 0.17595 0.0
C1710 C 0.01388 0.03193 0.17706 0.0
C1711 C 0.06763 0.98879 0.17594 0.0
N1712 N 0.94795 0.00391 0.17625 0.0
N1713 N 0.03592 0.97727 0.17531 0.0
H1714 H -0.00169 0.41494 0.4173 0.0
H1715 H 0.97093 0.58181 0.4442 0.0
H1716 H 0.02733 0.4255 0.44349 0.0
H1717 H 0.94564 0.57204 0.41775 0.0
H1718 H 0.98995 0.52401 0.44423 0.0
H1719 H 0.97698 0.47184 0.41751 0.0
C1720 C 0.00018 0.42921 0.4231 0.0
C1721 C 0.01477 0.41541 0.43038 0.0
C1722 C 0.98027 0.53453 0.43841 0.0
C1723 C 0.99024 0.48064 0.43068 0.0
C1724 C 0.96931 0.5675 0.4384 0.0
C1725 C 0.95676 0.58187 0.43095 0.0
C1726 C 0.97859 0.51568 0.43093 0.0
C1727 C 0.9556 0.56221 0.4236 0.0
C1728 C 0.9879 0.46169 0.42323 0.0
C1729 C 0.01598 0.43494 0.43775 0.0
N1730 N 0.96632 0.53016 0.42378 0.0
N1731 N 0.00403 0.46658 0.4377 0.0
H1732 H 0.44119 0.41695 0.67885 0.0
H1733 H 0.55689 0.57781 0.67415 0.0
H1734 H 0.40289 0.51699 0.67675 0.0
H1735 H 0.59516 0.4783 0.67748 0.0
H1736 H 0.50036 0.55582 0.6747 0.0
H1737 H 0.49768 0.43888 0.67816 0.0
C1738 C 0.44464 0.44359 0.67832 0.0
C1739 C 0.41717 0.46518 0.67791 0.0
C1740 C 0.52109 0.53876 0.67529 0.0
C1741 C 0.48198 0.49044 0.67698 0.0
C1742 C 0.55342 0.55126 0.67492 0.0
C1743 C 0.58086 0.52983 0.67573 0.0
C1744 C 0.51604 0.50453 0.67648 0.0
C1745 C 0.57477 0.49576 0.6769 0.0
C1746 C 0.47695 0.45607 0.67786 0.0
C1747 C 0.42326 0.49939 0.67701 0.0
N1748 N 0.54302 0.48416 0.67723 0.0
N1749 N 0.455 0.51096 0.67659 0.0
H1750 H 0.40997 0.05486 0.92379 0.0
H1751 H 0.55784 0.93226 0.93689 0.0
H1752 H 0.50654 0.08897 0.93209 0.0
H1753 H 0.47077 0.90002 0.92315 0.0
H1754 H 0.53696 0.98932 0.9365 0.0
H1755 H 0.42988 -0.00238 0.92456 0.0
C1756 C 0.43548 0.05041 0.9257 0.0
C1757 C 0.45667 0.07695 0.92782 0.0
C1758 C 0.52237 0.96977 0.93358 0.0
C1759 C 0.47934 0.0112 0.92891 0.0
C1760 C 0.53412 0.93714 0.93387 0.0
C1761 C 0.51596 0.91134 0.93006 0.0
C1762 C 0.49212 0.97668 0.9295 0.0
C1763 C 0.48568 0.91921 0.92611 0.0
C1764 C 0.44672 0.01765 0.9262 0.0
C1765 C 0.48918 0.06941 0.93048 0.0
N1766 N 0.47467 0.95119 0.92594 0.0
N1767 N 0.49949 0.03725 0.93095 0.0
H1768 H 0.08468 0.4639 0.03979 0.0
H1769 H 0.92131 0.51099 0.06627 0.0
H1770 H 0.07887 0.45959 0.06706 0.0
H1771 H 0.92847 0.5203 0.03911 0.0
H1772 H 0.97815 0.48948 0.06661 0.0
H1773 H 0.02688 0.48281 0.03935 0.0
C1774 C 0.07123 0.4669 0.04568 0.0
C1775 C 0.08666 0.4602 0.05347 0.0
C1776 C 0.96727 0.49612 0.06057 0.0
C1777 C 0.0205 0.48189 0.05302 0.0
C1778 C 0.93469 0.50813 0.06037 0.0
C1779 C 0.92012 0.51751 0.05265 0.0
C1780 C 0.98543 0.49341 0.053 0.0
C1781 C 0.93887 0.51377 0.04521 0.0
C1782 C 0.03826 0.47779 0.04543 0.0
C1783 C 0.06814 0.4649 0.06092 0.0
N1784 N 0.97056 0.50207 0.04557 0.0
N1785 N 0.03603 0.47537 0.0605 0.0
H1786 H 0.52729 0.57459 0.31841 0.0
H1787 H 0.46689 0.4183 0.29102 0.0
H1788 H 0.52999 0.57173 0.2911 0.0
H1789 H 0.47752 0.41612 0.31821 0.0
H1790 H 0.48794 0.47533 0.29094 0.0
H1791 H 0.50628 0.51749 0.3185 0.0
C1792 C 0.52319 0.56203 0.31243 0.0
C1793 C 0.5304 0.5779 0.30474 0.0
C1794 C 0.4858 0.46235 0.29692 0.0
C1795 C 0.50672 0.5125 0.30479 0.0
C1796 C 0.47369 0.42985 0.29697 0.0
C1797 C 0.47043 0.41248 0.30463 0.0
C1798 C 0.49451 0.47773 0.3046 0.0
C1799 C 0.47997 0.42849 0.31215 0.0
C1800 C 0.51147 0.52936 0.31249 0.0
C1801 C 0.52509 0.56029 0.29718 0.0
N1802 N 0.49142 0.46028 0.31195 0.0
N1803 N 0.51353 0.52856 0.2974 0.0
H1804 H 0.57076 0.94678 0.5391 0.0
H1805 H 0.43023 0.04601 0.56466 0.0
H1806 H 0.58841 -0.00286 0.56283 0.0
H1807 H 0.41392 0.00196 0.54008 0.0
H1808 H 0.48808 0.02762 0.56415 0.0
H1809 H 0.51349 0.96712 0.53924 0.0
C1810 C 0.56276 0.96246 0.54429 0.0
C1811 C 0.58452 0.97022 0.55097 0.0
C1812 C 0.47188 0.02194 0.55887 0.0
C1813 C 0.51866 0.9931 0.55125 0.0
C1814 C 0.43874 0.03218 0.55918 0.0
C1815 C 0.4171 0.02533 0.55242 0.0
C1816 C 0.48359 0.0046 0.55174 0.0
C1817 C 0.42976 0.00797 0.54541 0.0
C1818 C 0.52993 0.97385 0.5444 0.0
C1819 C 0.57245 0.99013 0.5576 0.0
N1820 N 0.46215 -0.00187 0.54526 0.0
N1821 N 0.54034 0.00078 0.55758 0.0
H1822 H 0.0086 0.07881 0.81797 0.0
H1823 H 0.98798 0.9116 0.79096 0.0
H1824 H 0.02984 0.07255 0.79124 0.0
H1825 H 0.95098 0.92351 0.81646 0.0
H1826 H 0.00625 0.96959 0.79113 0.0
H1827 H 0.98986 0.02097 0.81772 0.0
C1828 C 0.00924 0.06525 0.81205 0.0
C1829 C 0.02078 0.08049 0.80462 0.0
C1830 C 0.99417 0.95946 0.79669 0.0
C1831 C -0.0005 0.01426 0.80428 0.0
C1832 C 0.98366 0.92635 0.79659 0.0
C1833 C 0.96789 0.91253 0.80371 0.0
C1834 C 0.989 0.97892 0.80396 0.0
C1835 C 0.96349 0.93281 0.81087 0.0
C1836 C -0.00153 0.03227 0.8119 0.0
C1837 C 0.02078 0.06187 0.79709 0.0
N1838 N 0.97395 0.96492 0.81081 0.0
N1839 N 0.01048 0.02967 0.79712 0.0
H1840 H 0.59232 0.01441 0.17798 0.0
H1841 H 0.39783 0.9724 0.18163 0.0
H1842 H 0.55358 0.91599 0.18272 0.0
H1843 H 0.43603 0.07075 0.17654 0.0
H1844 H 0.45488 0.95148 0.18227 0.0
H1845 H 0.53531 0.03576 0.17756 0.0
C1846 C 0.57185 -0.00271 0.17893 0.0
C1847 C 0.5778 0.96337 0.18041 0.0
C1848 C 0.45079 0.97764 0.181 0.0
C1849 C 0.51248 0.98764 0.17997 0.0
C1850 C 0.41821 0.98962 0.18067 0.0
C1851 C 0.41209 0.02337 0.179 0.0
C1852 C 0.47753 -0.00044 0.17968 0.0
C1853 C 0.43951 0.04445 0.17771 0.0
C1854 C 0.53931 0.0095 0.17871 0.0
C1855 C 0.55027 0.94241 0.18169 0.0
N1856 N 0.47101 0.03221 0.17809 0.0
N1857 N 0.51887 0.95486 0.18142 0.0
H1858 H 0.01293 0.90415 0.43158 0.0
H1859 H 0.97354 0.09916 0.42785 0.0
H1860 H 0.91498 0.94414 0.42677 0.0
H1861 H 0.07029 0.0597 0.43422 0.0
H1862 H 0.95193 0.04239 0.42708 0.0
H1863 H 0.03471 0.96088 0.43234 0.0
C1864 C 0.99598 0.92483 0.43071 0.0
C1865 C 0.96207 0.91929 0.42908 0.0
C1866 C 0.97788 0.04615 0.42866 0.0
C1867 C 0.98689 0.98434 0.42988 0.0
C1868 C 0.99025 0.07856 0.42907 0.0
C1869 C 0.02376 0.08423 0.43112 0.0
C1870 C -0.00083 0.01913 0.43029 0.0
C1871 C 0.04418 0.05656 0.43273 0.0
C1872 C 0.00846 0.95722 0.4311 0.0
C1873 C 0.94139 0.94711 0.42789 0.0
N1874 N 0.03159 0.02524 0.43226 0.0
N1875 N 0.95411 0.97836 0.42832 0.0
H1876 H 0.05399 0.41737 0.67478 0.0
H1877 H 0.9392 0.57819 0.6814 0.0
H1878 H 0.09258 0.51534 0.68015 0.0
H1879 H 0.90016 0.47996 0.67656 0.0
H1880 H 0.99549 0.55552 0.68097 0.0
H1881 H -0.00244 0.43988 0.67522 0.0
C1882 C 0.05063 0.44368 0.67599 0.0
C1883 C 0.07815 0.46452 0.6774 0.0
C1884 C 0.97463 0.53888 0.68002 0.0
C1885 C 0.01343 0.49039 0.67803 0.0
C1886 C 0.94242 0.55177 0.68032 0.0
C1887 C 0.9148 0.53093 0.67906 0.0
C1888 C 0.97944 0.50485 0.67843 0.0
C1889 C 0.92066 0.49702 0.67749 0.0
C1890 C 0.01835 0.45647 0.6763 0.0
C1891 C 0.07215 0.49828 0.6791 0.0
N1892 N 0.95231 0.48505 0.67723 0.0
N1893 N 0.04048 0.51015 0.67936 0.0
H1894 H 0.46465 0.4168 0.91624 0.0
H1895 H 0.5483 0.56536 0.94231 0.0
H1896 H 0.48133 0.4129 0.94321 0.0
H1897 H 0.50837 0.57688 0.91708 0.0
H1898 H 0.52822 0.50807 0.94248 0.0
H1899 H 0.48614 0.4737 0.91607 0.0
C1900 C 0.4732 0.4278 0.92211 0.0
C1901 C 0.47123 0.4101 0.92975 0.0
C1902 C 0.5238 0.52319 0.93692 0.0
C1903 C 0.49552 0.47532 0.92962 0.0
C1904 C 0.53504 0.55605 0.93683 0.0
C1905 C 0.52999 0.5762 0.92967 0.0
C1906 C 0.50761 0.51018 0.92977 0.0
C1907 C 0.5133 0.56227 0.9227 0.0
C1908 C 0.48517 0.46038 0.92202 0.0
C1909 C 0.48216 0.42578 0.9372 0.0
N1910 N 0.50281 0.53015 0.92292 0.0
N1911 N 0.49388 0.45749 0.93694 0.0
H1912 H 0.56198 0.57543 0.05834 0.0
H1913 H 0.44161 0.42164 0.04848 0.0
H1914 H 0.59639 0.48053 0.04898 0.0
H1915 H 0.4069 0.51588 0.0582 0.0
H1916 H 0.49824 0.44335 0.0483 0.0
H1917 H 0.50502 0.55436 0.05821 0.0
C1918 C 0.55761 0.55006 0.05632 0.0
C1919 C 0.58409 0.52965 0.05371 0.0
C1920 C 0.47826 0.45935 0.05045 0.0
C1921 C 0.51875 0.50552 0.05343 0.0
C1922 C 0.44583 0.44704 0.0505 0.0
C1923 C 0.41936 0.46702 0.05332 0.0
C1924 C 0.48443 0.4919 0.05326 0.0
C1925 C 0.42654 0.4995 0.05604 0.0
C1926 C 0.52501 0.53813 0.05619 0.0
C1927 C 0.57676 0.49724 0.05097 0.0
N1928 N 0.45838 0.51092 0.05594 0.0
N1929 N 0.54481 0.48617 0.05092 0.0
H1930 H 0.47818 0.07575 0.32085 0.0
H1931 H 0.5334 0.92088 0.29296 0.0
H1932 H 0.45928 0.06969 0.29395 0.0
H1933 H 0.51013 0.9114 0.31957 0.0
H1934 H 0.51307 0.97796 0.29331 0.0
H1935 H 0.49695 0.01789 0.32063 0.0
C1936 C 0.47781 0.06237 0.3149 0.0
C1937 C 0.46709 0.07791 0.3074 0.0
C1938 C 0.51231 0.96328 0.29906 0.0
C1939 C 0.48929 0.01182 0.30711 0.0
C1940 C 0.52367 0.93052 0.29886 0.0
C1941 C 0.52331 0.91093 0.30624 0.0
C1942 C 0.50099 0.97694 0.30671 0.0
C1943 C 0.51135 0.92551 0.31375 0.0
C1944 C 0.48867 0.02936 0.31479 0.0
C1945 C 0.46792 0.05925 0.29987 0.0
N1946 N 0.50082 0.95767 0.3138 0.0
N1947 N 0.47894 0.0273 0.29991 0.0
H1948 H 0.91936 0.9704 0.56808 0.0
H1949 H 0.0797 0.01976 0.54066 0.0
H1950 H 0.92246 0.96611 0.54078 0.0
H1951 H 0.07449 0.02913 0.56786 0.0
H1952 H 0.02265 -0.00136 0.54059 0.0
H1953 H 0.97646 0.99126 0.56813 0.0
C1954 C 0.93206 0.97385 0.56209 0.0
C1955 C 0.91609 0.96645 0.55441 0.0
C1956 C 0.03399 0.00529 0.54657 0.0
C1957 C 0.98152 0.9904 0.55442 0.0
C1958 C 0.06667 0.0171 0.54663 0.0
C1959 C 0.08191 0.02627 0.55428 0.0
C1960 C 0.01641 0.0025 0.55423 0.0
C1961 C 0.0636 0.02276 0.5618 0.0
C1962 C 0.96464 0.98587 0.56212 0.0
C1963 C 0.93363 0.97184 0.54684 0.0
N1964 N 0.03186 0.01117 0.56159 0.0
N1965 N 0.96543 0.98336 0.54704 0.0
H1966 H 0.91831 0.55578 0.80952 0.0
H1967 H 0.07083 0.43773 0.79748 0.0
H1968 H 0.00464 0.59026 0.79586 0.0
H1969 H 0.97426 0.40023 0.80478 0.0
H1970 H 0.04843 0.49409 0.79768 0.0
H1971 H 0.94015 0.49904 0.80888 0.0
C1972 C 0.94199 0.55141 0.80643 0.0
C1973 C 0.95979 0.57777 0.80277 0.0
C1974 C 0.03212 0.4735 0.7992 0.0
C1975 C 0.98481 0.51289 0.80197 0.0
C1976 C 0.04481 0.44121 0.79903 0.0
C1977 C 0.02441 0.41397 0.80108 0.0
C1978 C -0.00117 0.47881 0.80152 0.0
C1979 C 0.9911 0.42036 0.80326 0.0
C1980 C 0.9543 0.519 0.80601 0.0
C1981 C 0.99005 0.57062 0.79872 0.0
N1982 N 0.97941 0.4521 0.80345 0.0
N1983 N 0.00171 0.53887 0.79847 0.0
loop_
_geom_bond_atom_site_label_1
_geom_bond_atom_site_label_2
_geom_bond_distance
_geom_bond_site_symmetry_2
_ccdc_geom_bond_type
Li0 N17 1.990 . S
Li0 O60 1.956 . S
Li0 O61 1.970 . S
Li0 O62 1.961 . S
Li1 N25 1.990 . S
Li1 O60 1.970 . S
Li1 O61 1.956 . S
Li1 O63 1.961 . S
Li2 N47 1.990 . S
Li2 O60 1.961 . S
Li2 O62 1.956 . S
Li2 O63 1.970 . S
Li3 N53 1.990 . S
Li3 O61 1.961 . S
Li3 O62 1.970 . S
Li3 O63 1.956 . S
C4 C6 1.348 . S
C4 C7 1.356 . S
C4 O60 1.325 . S
N5 C8 1.314 . S
N5 C9 1.279 . S
C6 C4 1.348 . S
C6 C8 1.353 . S
C6 H64 0.929 . S
C7 C4 1.356 . S
C7 C9 1.358 . S
C7 H65 0.930 . S
C8 N5 1.314 . S
C8 C6 1.353 . S
C8 H66 0.930 . S
C9 N5 1.279 . S
C9 C7 1.358 . S
C9 H67 0.930 . S
C10 C13 1.348 . S
C10 C14 1.356 . S
C10 O61 1.325 . S
C11 N12 1.279 . S
C11 C14 1.358 . S
C11 H68 0.930 . S
N12 C11 1.279 . S
N12 C15 1.314 . S
C13 C10 1.348 . S
C13 C15 1.353 . S
C13 H69 0.929 . S
C14 C10 1.356 . S
C14 C11 1.358 . S
C14 H70 0.930 . S
C15 N12 1.314 . S
C15 C13 1.353 . S
C15 H71 0.930 . S
C16 N17 1.314 . S
C16 C21 1.353 . S
C16 H22 0.930 . S
N17 Li0 1.990 . S
N17 C16 1.314 . S
N17 C19 1.279 . S
C18 C19 1.358 . S
C18 C20 1.356 . S
C18 H72 0.930 . S
C19 N17 1.279 . S
C19 C18 1.358 . S
C19 H23 0.930 . S
C20 C18 1.356 . S
C20 C21 1.348 . S
C21 C16 1.353 . S
C21 C20 1.348 . S
C21 H73 0.929 . S
H22 C16 0.930 . S
H23 C19 0.930 . S
C24 N25 1.314 . S
C24 C26 1.353 . S
C24 H30 0.930 . S
N25 Li1 1.990 . S
N25 C24 1.314 . S
N25 C28 1.279 . S
C26 C24 1.353 . S
C26 C29 1.348 . S
C26 H74 0.929 . S
C27 C28 1.358 . S
C27 C29 1.356 . S
C27 H75 0.930 . S
C28 N25 1.279 . S
C28 C27 1.358 . S
C28 H31 0.930 . S
C29 C26 1.348 . S
C29 C27 1.356 . S
H30 C24 0.930 . S
H31 C28 0.930 . S
C32 C34 1.348 . S
C32 C35 1.356 . S
C32 O62 1.325 . S
N33 C36 1.314 . S
N33 C37 1.279 . S
C34 C32 1.348 . S
C34 C36 1.353 . S
C34 H76 0.929 . S
C35 C32 1.356 . S
C35 C37 1.358 . S
C35 H77 0.930 . S
C36 N33 1.314 . S
C36 C34 1.353 . S
C36 H78 0.930 . S
C37 N33 1.279 . S
C37 C35 1.358 . S
C37 H79 0.930 . S
C38 C39 1.348 . S
C38 C40 1.356 . S
C38 O63 1.325 . S
C39 C38 1.348 . S
C39 C41 1.353 . S
C39 H80 0.929 . S
C40 C38 1.356 . S
C40 C42 1.358 . S
C40 H81 0.930 . S
C41 C39 1.353 . S
C41 N43 1.314 . S
C41 H82 0.930 . S
C42 C40 1.358 . S
C42 N43 1.279 . S
C42 H83 0.930 . S
N43 C41 1.314 . S
N43 C42 1.279 . S
C44 C46 1.353 . S
C44 N47 1.314 . S
C44 H50 0.930 . S
C45 N47 1.279 . S
C45 C48 1.358 . S
C45 H51 0.930 . S
C46 C44 1.353 . S
C46 C49 1.348 . S
C46 H84 0.929 . S
N47 Li2 1.990 . S
N47 C44 1.314 . S
N47 C45 1.279 . S
C48 C45 1.358 . S
C48 C49 1.356 . S
C48 H85 0.930 . S
C49 C46 1.348 . S
C49 C48 1.356 . S
H50 C44 0.930 . S
H51 C45 0.930 . S
C52 N53 1.314 . S
C52 C54 1.353 . S
C52 H58 0.930 . S
N53 Li3 1.990 . S
N53 C52 1.314 . S
N53 C56 1.279 . S
C54 C52 1.353 . S
C54 C57 1.348 . S
C54 H86 0.929 . S
C55 C56 1.358 . S
C55 C57 1.356 . S
C55 H87 0.930 . S
C56 N53 1.279 . S
C56 C55 1.358 . S
C56 H59 0.930 . S
C57 C54 1.348 . S
C57 C55 1.356 . S
H58 C52 0.930 . S
H59 C56 0.930 . S
O60 Li0 1.956 . S
O60 Li1 1.970 . S
O60 Li2 1.961 . S
O60 C4 1.325 . S
O61 Li0 1.970 . S
O61 Li1 1.956 . S
O61 Li3 1.961 . S
O61 C10 1.325 . S
O62 Li0 1.961 . S
O62 Li2 1.956 . S
O62 Li3 1.970 . S
O62 C32 1.325 . S
O63 Li1 1.961 . S
O63 Li2 1.970 . S
O63 Li3 1.956 . S
O63 C38 1.325 . S
H64 C6 0.929 . S
H65 C7 0.930 . S
H66 C8 0.930 . S
H67 C9 0.930 . S
H68 C11 0.930 . S
H69 C13 0.929 . S
H70 C14 0.930 . S
H71 C15 0.930 . S
H72 C18 0.930 . S
H73 C21 0.929 . S
H74 C26 0.929 . S
H75 C27 0.930 . S
H76 C34 0.929 . S
H77 C35 0.930 . S
H78 C36 0.930 . S
H79 C37 0.930 . S
H80 C39 0.929 . S
H81 C40 0.930 . S
H82 C41 0.930 . S
H83 C42 0.930 . S
H84 C46 0.929 . S
H85 C48 0.930 . S
H86 C54 0.929 . S
H87 C55 0.930 . S
Li88 N105 1.990 . S
Li88 O148 1.956 . S
Li88 O149 1.970 . S
Li88 O150 1.961 . S
Li89 N113 1.990 . S
Li89 O148 1.970 . S
Li89 O149 1.956 . S
Li89 O151 1.961 . S
Li90 N135 1.990 . S
Li90 O148 1.961 . S
Li90 O150 1.956 . S
Li90 O151 1.970 . S
Li91 N141 1.990 . S
Li91 O149 1.961 . S
Li91 O150 1.970 . S
Li91 O151 1.956 . S
C92 C94 1.348 . S
C92 C95 1.356 . S
C92 O148 1.325 . S
N93 C96 1.314 . S
N93 C97 1.279 . S
C94 C92 1.348 . S
C94 C96 1.353 . S
C94 H152 0.929 . S
C95 C92 1.356 . S
C95 C97 1.358 . S
C95 H153 0.930 . S
C96 N93 1.314 . S
C96 C94 1.353 . S
C96 H154 0.930 . S
C97 N93 1.279 . S
C97 C95 1.358 . S
C97 H155 0.930 . S
C98 C101 1.348 . S
C98 C102 1.356 . S
C98 O149 1.325 . S
C99 N100 1.279 . S
C99 C102 1.358 . S
C99 H156 0.930 . S
N100 C99 1.279 . S
N100 C103 1.314 . S
C101 C98 1.348 . S
C101 C103 1.353 . S
C101 H157 0.929 . S
C102 C98 1.356 . S
C102 C99 1.358 . S
C102 H158 0.930 . S
C103 N100 1.314 . S
C103 C101 1.353 . S
C103 H159 0.930 . S
C104 N105 1.314 . S
C104 C109 1.353 . S
C104 H110 0.930 . S
N105 Li88 1.990 . S
N105 C104 1.314 . S
N105 C107 1.279 . S
C106 C107 1.358 . S
C106 C108 1.356 . S
C106 H160 0.930 . S
C107 N105 1.279 . S
C107 C106 1.358 . S
C107 H111 0.930 . S
C108 C106 1.356 . S
C108 C109 1.348 . S
C109 C104 1.353 . S
C109 C108 1.348 . S
C109 H161 0.929 . S
H110 C104 0.930 . S
H111 C107 0.930 . S
C112 N113 1.314 . S
C112 C114 1.353 . S
C112 H118 0.930 . S
N113 Li89 1.990 . S
N113 C112 1.314 . S
N113 C116 1.279 . S
C114 C112 1.353 . S
C114 C117 1.348 . S
C114 H162 0.929 . S
C115 C116 1.358 . S
C115 C117 1.356 . S
C115 H163 0.930 . S
C116 N113 1.279 . S
C116 C115 1.358 . S
C116 H119 0.930 . S
C117 C114 1.348 . S
C117 C115 1.356 . S
H118 C112 0.930 . S
H119 C116 0.930 . S
C120 C122 1.348 . S
C120 C123 1.356 . S
C120 O150 1.325 . S
N121 C124 1.314 . S
N121 C125 1.279 . S
C122 C120 1.348 . S
C122 C124 1.353 . S
C122 H164 0.929 . S
C123 C120 1.356 . S
C123 C125 1.358 . S
C123 H165 0.930 . S
C124 N121 1.314 . S
C124 C122 1.353 . S
C124 H166 0.930 . S
C125 N121 1.279 . S
C125 C123 1.358 . S
C125 H167 0.930 . S
C126 C127 1.348 . S
C126 C128 1.356 . S
C126 O151 1.325 . S
C127 C126 1.348 . S
C127 C129 1.353 . S
C127 H168 0.929 . S
C128 C126 1.356 . S
C128 C130 1.358 . S
C128 H169 0.930 . S
C129 C127 1.353 . S
C129 N131 1.314 . S
C129 H170 0.930 . S
C130 C128 1.358 . S
C130 N131 1.279 . S
C130 H171 0.930 . S
N131 C129 1.314 . S
N131 C130 1.279 . S
C132 C134 1.353 . S
C132 N135 1.314 . S
C132 H138 0.930 . S
C133 N135 1.279 . S
C133 C136 1.358 . S
C133 H139 0.930 . S
C134 C132 1.353 . S
C134 C137 1.348 . S
C134 H172 0.929 . S
N135 Li90 1.990 . S
N135 C132 1.314 . S
N135 C133 1.279 . S
C136 C133 1.358 . S
C136 C137 1.356 . S
C136 H173 0.930 . S
C137 C134 1.348 . S
C137 C136 1.356 . S
H138 C132 0.930 . S
H139 C133 0.930 . S
C140 N141 1.314 . S
C140 C142 1.353 . S
C140 H146 0.930 . S
N141 Li91 1.990 . S
N141 C140 1.314 . S
N141 C144 1.279 . S
C142 C140 1.353 . S
C142 C145 1.348 . S
C142 H174 0.929 . S
C143 C144 1.358 . S
C143 C145 1.356 . S
C143 H175 0.930 . S
C144 N141 1.279 . S
C144 C143 1.358 . S
C144 H147 0.930 . S
C145 C142 1.348 . S
C145 C143 1.356 . S
H146 C140 0.930 . S
H147 C144 0.930 . S
O148 Li88 1.956 . S
O148 Li89 1.970 . S
O148 Li90 1.961 . S
O148 C92 1.325 . S
O149 Li88 1.970 . S
O149 Li89 1.956 . S
O149 Li91 1.961 . S
O149 C98 1.325 . S
O150 Li88 1.961 . S
O150 Li90 1.956 . S
O150 Li91 1.970 . S
O150 C120 1.325 . S
O151 Li89 1.961 . S
O151 Li90 1.970 . S
O151 Li91 1.956 . S
O151 C126 1.325 . S
H152 C94 0.929 . S
H153 C95 0.930 . S
H154 C96 0.930 . S
H155 C97 0.930 . S
H156 C99 0.930 . S
H157 C101 0.929 . S
H158 C102 0.930 . S
H159 C103 0.930 . S
H160 C106 0.930 . S
H161 C109 0.929 . S
H162 C114 0.929 . S
H163 C115 0.930 . S
H164 C122 0.929 . S
H165 C123 0.930 . S
H166 C124 0.930 . S
H167 C125 0.930 . S
H168 C127 0.929 . S
H169 C128 0.930 . S
H170 C129 0.930 . S
H171 C130 0.930 . S
H172 C134 0.929 . S
H173 C136 0.930 . S
H174 C142 0.929 . S
H175 C143 0.930 . S
Li176 N193 1.990 . S
Li176 O236 1.956 . S
Li176 O237 1.970 . S
Li176 O238 1.961 . S
Li177 N201 1.990 . S
Li177 O236 1.970 . S
Li177 O237 1.956 . S
Li177 O239 1.961 . S
Li178 N223 1.990 . S
Li178 O236 1.961 . S
Li178 O238 1.956 . S
Li178 O239 1.970 . S
Li179 N229 1.990 . S
Li179 O237 1.961 . S
Li179 O238 1.970 . S
Li179 O239 1.956 . S
C180 C182 1.348 . S
C180 C183 1.356 . S
C180 O236 1.325 . S
N181 C184 1.314 . S
N181 C185 1.279 . S
C182 C180 1.348 . S
C182 C184 1.353 . S
C182 H240 0.929 . S
C183 C180 1.356 . S
C183 C185 1.358 . S
C183 H241 0.930 . S
C184 N181 1.314 . S
C184 C182 1.353 . S
C184 H242 0.930 . S
C185 N181 1.279 . S
C185 C183 1.358 . S
C185 H243 0.930 . S
C186 C189 1.348 . S
C186 C190 1.356 . S
C186 O237 1.325 . S
C187 N188 1.279 . S
C187 C190 1.358 . S
C187 H244 0.930 . S
N188 C187 1.279 . S
N188 C191 1.314 . S
C189 C186 1.348 . S
C189 C191 1.353 . S
C189 H245 0.929 . S
C190 C186 1.356 . S
C190 C187 1.358 . S
C190 H246 0.930 . S
C191 N188 1.314 . S
C191 C189 1.353 . S
C191 H247 0.930 . S
C192 N193 1.314 . S
C192 C197 1.353 . S
C192 H198 0.930 . S
N193 Li176 1.990 . S
N193 C192 1.314 . S
N193 C195 1.279 . S
C194 C195 1.358 . S
C194 C196 1.356 . S
C194 H248 0.930 . S
C195 N193 1.279 . S
C195 C194 1.358 . S
C195 H199 0.930 . S
C196 C194 1.356 . S
C196 C197 1.348 . S
C197 C192 1.353 . S
C197 C196 1.348 . S
C197 H249 0.929 . S
H198 C192 0.930 . S
H199 C195 0.930 . S
C200 N201 1.314 . S
C200 C202 1.353 . S
C200 H206 0.930 . S
N201 Li177 1.990 . S
N201 C200 1.314 . S
N201 C204 1.279 . S
C202 C200 1.353 . S
C202 C205 1.348 . S
C202 H250 0.929 . S
C203 C204 1.358 . S
C203 C205 1.356 . S
C203 H251 0.930 . S
C204 N201 1.279 . S
C204 C203 1.358 . S
C204 H207 0.930 . S
C205 C202 1.348 . S
C205 C203 1.356 . S
H206 C200 0.930 . S
H207 C204 0.930 . S
C208 C210 1.348 . S
C208 C211 1.356 . S
C208 O238 1.325 . S
N209 C212 1.314 . S
N209 C213 1.279 . S
C210 C208 1.348 . S
C210 C212 1.353 . S
C210 H252 0.929 . S
C211 C208 1.356 . S
C211 C213 1.358 . S
C211 H253 0.930 . S
C212 N209 1.314 . S
C212 C210 1.353 . S
C212 H254 0.930 . S
C213 N209 1.279 . S
C213 C211 1.358 . S
C213 H255 0.930 . S
C214 C215 1.348 . S
C214 C216 1.356 . S
C214 O239 1.325 . S
C215 C214 1.348 . S
C215 C217 1.353 . S
C215 H256 0.929 . S
C216 C214 1.356 . S
C216 C218 1.358 . S
C216 H257 0.930 . S
C217 C215 1.353 . S
C217 N219 1.314 . S
C217 H258 0.930 . S
C218 C216 1.358 . S
C218 N219 1.279 . S
C218 H259 0.930 . S
N219 C217 1.314 . S
N219 C218 1.279 . S
C220 C222 1.353 . S
C220 N223 1.314 . S
C220 H226 0.930 . S
C221 N223 1.279 . S
C221 C224 1.358 . S
C221 H227 0.930 . S
C222 C220 1.353 . S
C222 C225 1.348 . S
C222 H260 0.929 . S
N223 Li178 1.990 . S
N223 C220 1.314 . S
N223 C221 1.279 . S
C224 C221 1.358 . S
C224 C225 1.356 . S
C224 H261 0.930 . S
C225 C222 1.348 . S
C225 C224 1.356 . S
H226 C220 0.930 . S
H227 C221 0.930 . S
C228 N229 1.314 . S
C228 C230 1.353 . S
C228 H234 0.930 . S
N229 Li179 1.990 . S
N229 C228 1.314 . S
N229 C232 1.279 . S
C230 C228 1.353 . S
C230 C233 1.348 . S
C230 H262 0.929 . S
C231 C232 1.358 . S
C231 C233 1.356 . S
C231 H263 0.930 . S
C232 N229 1.279 . S
C232 C231 1.358 . S
C232 H235 0.930 . S
C233 C230 1.348 . S
C233 C231 1.356 . S
H234 C228 0.930 . S
H235 C232 0.930 . S
O236 Li176 1.956 . S
O236 Li177 1.970 . S
O236 Li178 1.961 . S
O236 C180 1.325 . S
O237 Li176 1.970 . S
O237 Li177 1.956 . S
O237 Li179 1.961 . S
O237 C186 1.325 . S
O238 Li176 1.961 . S
O238 Li178 1.956 . S
O238 Li179 1.970 . S
O238 C208 1.325 . S
O239 Li177 1.961 . S
O239 Li178 1.970 . S
O239 Li179 1.956 . S
O239 C214 1.325 . S
H240 C182 0.929 . S
H241 C183 0.930 . S
H242 C184 0.930 . S
H243 C185 0.930 . S
H244 C187 0.930 . S
H245 C189 0.929 . S
H246 C190 0.930 . S
H247 C191 0.930 . S
H248 C194 0.930 . S
H249 C197 0.929 . S
H250 C202 0.929 . S
H251 C203 0.930 . S
H252 C210 0.929 . S
H253 C211 0.930 . S
H254 C212 0.930 . S
H255 C213 0.930 . S
H256 C215 0.929 . S
H257 C216 0.930 . S
H258 C217 0.930 . S
H259 C218 0.930 . S
H260 C222 0.929 . S
H261 C224 0.930 . S
H262 C230 0.929 . S
H263 C231 0.930 . S
Li264 N281 1.990 . S
Li264 O324 1.956 . S
Li264 O325 1.970 . S
Li264 O326 1.961 . S
Li265 N289 1.990 . S
Li265 O324 1.970 . S
Li265 O325 1.956 . S
Li265 O327 1.961 . S
Li266 N311 1.990 . S
Li266 O324 1.961 . S
Li266 O326 1.956 . S
Li266 O327 1.970 . S
Li267 N317 1.990 . S
Li267 O325 1.961 . S
Li267 O326 1.970 . S
Li267 O327 1.956 . S
C268 C270 1.348 . S
C268 C271 1.356 . S
C268 O324 1.325 . S
N269 C272 1.314 . S
N269 C273 1.279 . S
C270 C268 1.348 . S
C270 C272 1.353 . S
C270 H328 0.929 . S
C271 C268 1.356 . S
C271 C273 1.358 . S
C271 H329 0.930 . S
C272 N269 1.314 . S
C272 C270 1.353 . S
C272 H330 0.930 . S
C273 N269 1.279 . S
C273 C271 1.358 . S
C273 H331 0.930 . S
C274 C277 1.348 . S
C274 C278 1.356 . S
C274 O325 1.325 . S
C275 N276 1.279 . S
C275 C278 1.358 . S
C275 H332 0.930 . S
N276 C275 1.279 . S
N276 C279 1.314 . S
C277 C274 1.348 . S
C277 C279 1.353 . S
C277 H333 0.929 . S
C278 C274 1.356 . S
C278 C275 1.358 . S
C278 H334 0.930 . S
C279 N276 1.314 . S
C279 C277 1.353 . S
C279 H335 0.930 . S
C280 N281 1.314 . S
C280 C285 1.353 . S
C280 H286 0.930 . S
N281 Li264 1.990 . S
N281 C280 1.314 . S
N281 C283 1.279 . S
C282 C283 1.358 . S
C282 C284 1.356 . S
C282 H336 0.930 . S
C283 N281 1.279 . S
C283 C282 1.358 . S
C283 H287 0.930 . S
C284 C282 1.356 . S
C284 C285 1.348 . S
C285 C280 1.353 . S
C285 C284 1.348 . S
C285 H337 0.929 . S
H286 C280 0.930 . S
H287 C283 0.930 . S
C288 N289 1.314 . S
C288 C290 1.353 . S
C288 H294 0.930 . S
N289 Li265 1.990 . S
N289 C288 1.314 . S
N289 C292 1.279 . S
C290 C288 1.353 . S
C290 C293 1.348 . S
C290 H338 0.929 . S
C291 C292 1.358 . S
C291 C293 1.356 . S
C291 H339 0.930 . S
C292 N289 1.279 . S
C292 C291 1.358 . S
C292 H295 0.930 . S
C293 C290 1.348 . S
C293 C291 1.356 . S
H294 C288 0.930 . S
H295 C292 0.930 . S
C296 C298 1.348 . S
C296 C299 1.356 . S
C296 O326 1.325 . S
N297 C300 1.314 . S
N297 C301 1.279 . S
C298 C296 1.348 . S
C298 C300 1.353 . S
C298 H340 0.929 . S
C299 C296 1.356 . S
C299 C301 1.358 . S
C299 H341 0.930 . S
C300 N297 1.314 . S
C300 C298 1.353 . S
C300 H342 0.930 . S
C301 N297 1.279 . S
C301 C299 1.358 . S
C301 H343 0.930 . S
C302 C303 1.348 . S
C302 C304 1.356 . S
C302 O327 1.325 . S
C303 C302 1.348 . S
C303 C305 1.353 . S
C303 H344 0.929 . S
C304 C302 1.356 . S
C304 C306 1.358 . S
C304 H345 0.930 . S
C305 C303 1.353 . S
C305 N307 1.314 . S
C305 H346 0.930 . S
C306 C304 1.358 . S
C306 N307 1.279 . S
C306 H347 0.930 . S
N307 C305 1.314 . S
N307 C306 1.279 . S
C308 C310 1.353 . S
C308 N311 1.314 . S
C308 H314 0.930 . S
C309 N311 1.279 . S
C309 C312 1.358 . S
C309 H315 0.930 . S
C310 C308 1.353 . S
C310 C313 1.348 . S
C310 H348 0.929 . S
N311 Li266 1.990 . S
N311 C308 1.314 . S
N311 C309 1.279 . S
C312 C309 1.358 . S
C312 C313 1.356 . S
C312 H349 0.930 . S
C313 C310 1.348 . S
C313 C312 1.356 . S
H314 C308 0.930 . S
H315 C309 0.930 . S
C316 N317 1.314 . S
C316 C318 1.353 . S
C316 H322 0.930 . S
N317 Li267 1.990 . S
N317 C316 1.314 . S
N317 C320 1.279 . S
C318 C316 1.353 . S
C318 C321 1.348 . S
C318 H350 0.929 . S
C319 C320 1.358 . S
C319 C321 1.356 . S
C319 H351 0.930 . S
C320 N317 1.279 . S
C320 C319 1.358 . S
C320 H323 0.930 . S
C321 C318 1.348 . S
C321 C319 1.356 . S
H322 C316 0.930 . S
H323 C320 0.930 . S
O324 Li264 1.956 . S
O324 Li265 1.970 . S
O324 Li266 1.961 . S
O324 C268 1.325 . S
O325 Li264 1.970 . S
O325 Li265 1.956 . S
O325 Li267 1.961 . S
O325 C274 1.325 . S
O326 Li264 1.961 . S
O326 Li266 1.956 . S
O326 Li267 1.970 . S
O326 C296 1.325 . S
O327 Li265 1.961 . S
O327 Li266 1.970 . S
O327 Li267 1.956 . S
O327 C302 1.325 . S
H328 C270 0.929 . S
H329 C271 0.930 . S
H330 C272 0.930 . S
H331 C273 0.930 . S
H332 C275 0.930 . S
H333 C277 0.929 . S
H334 C278 0.930 . S
H335 C279 0.930 . S
H336 C282 0.930 . S
H337 C285 0.929 . S
H338 C290 0.929 . S
H339 C291 0.930 . S
H340 C298 0.929 . S
H341 C299 0.930 . S
H342 C300 0.930 . S
H343 C301 0.930 . S
H344 C303 0.929 . S
H345 C304 0.930 . S
H346 C305 0.930 . S
H347 C306 0.930 . S
H348 C310 0.929 . S
H349 C312 0.930 . S
H350 C318 0.929 . S
H351 C319 0.930 . S
Li352 N369 1.990 . S
Li352 O412 1.956 . S
Li352 O413 1.970 . S
Li352 O414 1.961 . S
Li353 N377 1.990 . S
Li353 O412 1.970 . S
Li353 O413 1.956 . S
Li353 O415 1.961 . S
Li354 N399 1.990 . S
Li354 O412 1.961 . S
Li354 O414 1.956 . S
Li354 O415 1.970 . S
Li355 N405 1.990 . S
Li355 O413 1.961 . S
Li355 O414 1.970 . S
Li355 O415 1.956 . S
C356 C358 1.348 . S
C356 C359 1.356 . S
C356 O412 1.325 . S
N357 C360 1.314 . S
N357 C361 1.279 . S
C358 C356 1.348 . S
C358 C360 1.353 . S
C358 H416 0.929 . S
C359 C356 1.356 . S
C359 C361 1.358 . S
C359 H417 0.930 . S
C360 N357 1.314 . S
C360 C358 1.353 . S
C360 H418 0.930 . S
C361 N357 1.279 . S
C361 C359 1.358 . S
C361 H419 0.930 . S
C362 C365 1.348 . S
C362 C366 1.356 . S
C362 O413 1.325 . S
C363 N364 1.279 . S
C363 C366 1.358 . S
C363 H420 0.930 . S
N364 C363 1.279 . S
N364 C367 1.314 . S
C365 C362 1.348 . S
C365 C367 1.353 . S
C365 H421 0.929 . S
C366 C362 1.356 . S
C366 C363 1.358 . S
C366 H422 0.930 . S
C367 N364 1.314 . S
C367 C365 1.353 . S
C367 H423 0.930 . S
C368 N369 1.314 . S
C368 C373 1.353 . S
C368 H374 0.930 . S
N369 Li352 1.990 . S
N369 C368 1.314 . S
N369 C371 1.279 . S
C370 C371 1.358 . S
C370 C372 1.356 . S
C370 H424 0.930 . S
C371 N369 1.279 . S
C371 C370 1.358 . S
C371 H375 0.930 . S
C372 C370 1.356 . S
C372 C373 1.348 . S
C373 C368 1.353 . S
C373 C372 1.348 . S
C373 H425 0.929 . S
H374 C368 0.930 . S
H375 C371 0.930 . S
C376 N377 1.314 . S
C376 C378 1.353 . S
C376 H382 0.930 . S
N377 Li353 1.990 . S
N377 C376 1.314 . S
N377 C380 1.279 . S
C378 C376 1.353 . S
C378 C381 1.348 . S
C378 H426 0.929 . S
C379 C380 1.358 . S
C379 C381 1.356 . S
C379 H427 0.930 . S
C380 N377 1.279 . S
C380 C379 1.358 . S
C380 H383 0.930 . S
C381 C378 1.348 . S
C381 C379 1.356 . S
H382 C376 0.930 . S
H383 C380 0.930 . S
C384 C386 1.348 . S
C384 C387 1.356 . S
C384 O414 1.325 . S
N385 C388 1.314 . S
N385 C389 1.279 . S
C386 C384 1.348 . S
C386 C388 1.353 . S
C386 H428 0.929 . S
C387 C384 1.356 . S
C387 C389 1.358 . S
C387 H429 0.930 . S
C388 N385 1.314 . S
C388 C386 1.353 . S
C388 H430 0.930 . S
C389 N385 1.279 . S
C389 C387 1.358 . S
C389 H431 0.930 . S
C390 C391 1.348 . S
C390 C392 1.356 . S
C390 O415 1.325 . S
C391 C390 1.348 . S
C391 C393 1.353 . S
C391 H432 0.929 . S
C392 C390 1.356 . S
C392 C394 1.358 . S
C392 H433 0.930 . S
C393 C391 1.353 . S
C393 N395 1.314 . S
C393 H434 0.930 . S
C394 C392 1.358 . S
C394 N395 1.279 . S
C394 H435 0.930 . S
N395 C393 1.314 . S
N395 C394 1.279 . S
C396 C398 1.353 . S
C396 N399 1.314 . S
C396 H402 0.930 . S
C397 N399 1.279 . S
C397 C400 1.358 . S
C397 H403 0.930 . S
C398 C396 1.353 . S
C398 C401 1.348 . S
C398 H436 0.929 . S
N399 Li354 1.990 . S
N399 C396 1.314 . S
N399 C397 1.279 . S
C400 C397 1.358 . S
C400 C401 1.356 . S
C400 H437 0.930 . S
C401 C398 1.348 . S
C401 C400 1.356 . S
H402 C396 0.930 . S
H403 C397 0.930 . S
C404 N405 1.314 . S
C404 C406 1.353 . S
C404 H410 0.930 . S
N405 Li355 1.990 . S
N405 C404 1.314 . S
N405 C408 1.279 . S
C406 C404 1.353 . S
C406 C409 1.348 . S
C406 H438 0.929 . S
C407 C408 1.358 . S
C407 C409 1.356 . S
C407 H439 0.930 . S
C408 N405 1.279 . S
C408 C407 1.358 . S
C408 H411 0.930 . S
C409 C406 1.348 . S
C409 C407 1.356 . S
H410 C404 0.930 . S
H411 C408 0.930 . S
O412 Li352 1.956 . S
O412 Li353 1.970 . S
O412 Li354 1.961 . S
O412 C356 1.325 . S
O413 Li352 1.970 . S
O413 Li353 1.956 . S
O413 Li355 1.961 . S
O413 C362 1.325 . S
O414 Li352 1.961 . S
O414 Li354 1.956 . S
O414 Li355 1.970 . S
O414 C384 1.325 . S
O415 Li353 1.961 . S
O415 Li354 1.970 . S
O415 Li355 1.956 . S
O415 C390 1.325 . S
H416 C358 0.929 . S
H417 C359 0.930 . S
H418 C360 0.930 . S
H419 C361 0.930 . S
H420 C363 0.930 . S
H421 C365 0.929 . S
H422 C366 0.930 . S
H423 C367 0.930 . S
H424 C370 0.930 . S
H425 C373 0.929 . S
H426 C378 0.929 . S
H427 C379 0.930 . S
H428 C386 0.929 . S
H429 C387 0.930 . S
H430 C388 0.930 . S
H431 C389 0.930 . S
H432 C391 0.929 . S
H433 C392 0.930 . S
H434 C393 0.930 . S
H435 C394 0.930 . S
H436 C398 0.929 . S
H437 C400 0.930 . S
H438 C406 0.929 . S
H439 C407 0.930 . S
Li440 N457 1.990 . S
Li440 O500 1.956 . S
Li440 O501 1.970 . S
Li440 O502 1.961 . S
Li441 N465 1.990 . S
Li441 O500 1.970 . S
Li441 O501 1.956 . S
Li441 O503 1.961 . S
Li442 N487 1.990 . S
Li442 O500 1.961 . S
Li442 O502 1.956 . S
Li442 O503 1.970 . S
Li443 N493 1.990 . S
Li443 O501 1.961 . S
Li443 O502 1.970 . S
Li443 O503 1.956 . S
C444 C446 1.348 . S
C444 C447 1.356 . S
C444 O500 1.325 . S
N445 C448 1.314 . S
N445 C449 1.279 . S
C446 C444 1.348 . S
C446 C448 1.353 . S
C446 H504 0.929 . S
C447 C444 1.356 . S
C447 C449 1.358 . S
C447 H505 0.930 . S
C448 N445 1.314 . S
C448 C446 1.353 . S
C448 H506 0.930 . S
C449 N445 1.279 . S
C449 C447 1.358 . S
C449 H507 0.930 . S
C450 C453 1.348 . S
C450 C454 1.356 . S
C450 O501 1.325 . S
C451 N452 1.279 . S
C451 C454 1.358 . S
C451 H508 0.930 . S
N452 C451 1.279 . S
N452 C455 1.314 . S
C453 C450 1.348 . S
C453 C455 1.353 . S
C453 H509 0.929 . S
C454 C450 1.356 . S
C454 C451 1.358 . S
C454 H510 0.930 . S
C455 N452 1.314 . S
C455 C453 1.353 . S
C455 H511 0.930 . S
C456 N457 1.314 . S
C456 C461 1.353 . S
C456 H462 0.930 . S
N457 Li440 1.990 . S
N457 C456 1.314 . S
N457 C459 1.279 . S
C458 C459 1.358 . S
C458 C460 1.356 . S
C458 H512 0.930 . S
C459 N457 1.279 . S
C459 C458 1.358 . S
C459 H463 0.930 . S
C460 C458 1.356 . S
C460 C461 1.348 . S
C461 C456 1.353 . S
C461 C460 1.348 . S
C461 H513 0.929 . S
H462 C456 0.930 . S
H463 C459 0.930 . S
C464 N465 1.314 . S
C464 C466 1.353 . S
C464 H470 0.930 . S
N465 Li441 1.990 . S
N465 C464 1.314 . S
N465 C468 1.279 . S
C466 C464 1.353 . S
C466 C469 1.348 . S
C466 H514 0.929 . S
C467 C468 1.358 . S
C467 C469 1.356 . S
C467 H515 0.930 . S
C468 N465 1.279 . S
C468 C467 1.358 . S
C468 H471 0.930 . S
C469 C466 1.348 . S
C469 C467 1.356 . S
H470 C464 0.930 . S
H471 C468 0.930 . S
C472 C474 1.348 . S
C472 C475 1.356 . S
C472 O502 1.325 . S
N473 C476 1.314 . S
N473 C477 1.279 . S
C474 C472 1.348 . S
C474 C476 1.353 . S
C474 H516 0.929 . S
C475 C472 1.356 . S
C475 C477 1.358 . S
C475 H517 0.930 . S
C476 N473 1.314 . S
C476 C474 1.353 . S
C476 H518 0.930 . S
C477 N473 1.279 . S
C477 C475 1.358 . S
C477 H519 0.930 . S
C478 C479 1.348 . S
C478 C480 1.356 . S
C478 O503 1.325 . S
C479 C478 1.348 . S
C479 C481 1.353 . S
C479 H520 0.929 . S
C480 C478 1.356 . S
C480 C482 1.358 . S
C480 H521 0.930 . S
C481 C479 1.353 . S
C481 N483 1.314 . S
C481 H522 0.930 . S
C482 C480 1.358 . S
C482 N483 1.279 . S
C482 H523 0.930 . S
N483 C481 1.314 . S
N483 C482 1.279 . S
C484 C486 1.353 . S
C484 N487 1.314 . S
C484 H490 0.930 . S
C485 N487 1.279 . S
C485 C488 1.358 . S
C485 H491 0.930 . S
C486 C484 1.353 . S
C486 C489 1.348 . S
C486 H524 0.929 . S
N487 Li442 1.990 . S
N487 C484 1.314 . S
N487 C485 1.279 . S
C488 C485 1.358 . S
C488 C489 1.356 . S
C488 H525 0.930 . S
C489 C486 1.348 . S
C489 C488 1.356 . S
H490 C484 0.930 . S
H491 C485 0.930 . S
C492 N493 1.314 . S
C492 C494 1.353 . S
C492 H498 0.930 . S
N493 Li443 1.990 . S
N493 C492 1.314 . S
N493 C496 1.279 . S
C494 C492 1.353 . S
C494 C497 1.348 . S
C494 H526 0.929 . S
C495 C496 1.358 . S
C495 C497 1.356 . S
C495 H527 0.930 . S
C496 N493 1.279 . S
C496 C495 1.358 . S
C496 H499 0.930 . S
C497 C494 1.348 . S
C497 C495 1.356 . S
H498 C492 0.930 . S
H499 C496 0.930 . S
O500 Li440 1.956 . S
O500 Li441 1.970 . S
O500 Li442 1.961 . S
O500 C444 1.325 . S
O501 Li440 1.970 . S
O501 Li441 1.956 . S
O501 Li443 1.961 . S
O501 C450 1.325 . S
O502 Li440 1.961 . S
O502 Li442 1.956 . S
O502 Li443 1.970 . S
O502 C472 1.325 . S
O503 Li441 1.961 . S
O503 Li442 1.970 . S
O503 Li443 1.956 . S
O503 C478 1.325 . S
H504 C446 0.929 . S
H505 C447 0.930 . S
H506 C448 0.930 . S
H507 C449 0.930 . S
H508 C451 0.930 . S
H509 C453 0.929 . S
H510 C454 0.930 . S
H511 C455 0.930 . S
H512 C458 0.930 . S
H513 C461 0.929 . S
H514 C466 0.929 . S
H515 C467 0.930 . S
H516 C474 0.929 . S
H517 C475 0.930 . S
H518 C476 0.930 . S
H519 C477 0.930 . S
H520 C479 0.929 . S
H521 C480 0.930 . S
H522 C481 0.930 . S
H523 C482 0.930 . S
H524 C486 0.929 . S
H525 C488 0.930 . S
H526 C494 0.929 . S
H527 C495 0.930 . S
Li528 N545 1.990 . S
Li528 O588 1.956 . S
Li528 O589 1.970 . S
Li528 O590 1.961 . S
Li529 N553 1.990 . S
Li529 O588 1.970 . S
Li529 O589 1.956 . S
Li529 O591 1.961 . S
Li530 N575 1.990 . S
Li530 O588 1.961 . S
Li530 O590 1.956 . S
Li530 O591 1.970 . S
Li531 N581 1.990 . S
Li531 O589 1.961 . S
Li531 O590 1.970 . S
Li531 O591 1.956 . S
C532 C534 1.348 . S
C532 C535 1.356 . S
C532 O588 1.325 . S
N533 C536 1.314 . S
N533 C537 1.279 . S
C534 C532 1.348 . S
C534 C536 1.353 . S
C534 H592 0.929 . S
C535 C532 1.356 . S
C535 C537 1.358 . S
C535 H593 0.930 . S
C536 N533 1.314 . S
C536 C534 1.353 . S
C536 H594 0.930 . S
C537 N533 1.279 . S
C537 C535 1.358 . S
C537 H595 0.930 . S
C538 C541 1.348 . S
C538 C542 1.356 . S
C538 O589 1.325 . S
C539 N540 1.279 . S
C539 C542 1.358 . S
C539 H596 0.930 . S
N540 C539 1.279 . S
N540 C543 1.314 . S
C541 C538 1.348 . S
C541 C543 1.353 . S
C541 H597 0.929 . S
C542 C538 1.356 . S
C542 C539 1.358 . S
C542 H598 0.930 . S
C543 N540 1.314 . S
C543 C541 1.353 . S
C543 H599 0.930 . S
C544 N545 1.314 . S
C544 C549 1.353 . S
C544 H550 0.930 . S
N545 Li528 1.990 . S
N545 C544 1.314 . S
N545 C547 1.279 . S
C546 C547 1.358 . S
C546 C548 1.356 . S
C546 H600 0.930 . S
C547 N545 1.279 . S
C547 C546 1.358 . S
C547 H551 0.930 . S
C548 C546 1.356 . S
C548 C549 1.348 . S
C549 C544 1.353 . S
C549 C548 1.348 . S
C549 H601 0.929 . S
H550 C544 0.930 . S
H551 C547 0.930 . S
C552 N553 1.314 . S
C552 C554 1.353 . S
C552 H558 0.930 . S
N553 Li529 1.990 . S
N553 C552 1.314 . S
N553 C556 1.279 . S
C554 C552 1.353 . S
C554 C557 1.348 . S
C554 H602 0.929 . S
C555 C556 1.358 . S
C555 C557 1.356 . S
C555 H603 0.930 . S
C556 N553 1.279 . S
C556 C555 1.358 . S
C556 H559 0.930 . S
C557 C554 1.348 . S
C557 C555 1.356 . S
H558 C552 0.930 . S
H559 C556 0.930 . S
C560 C562 1.348 . S
C560 C563 1.356 . S
C560 O590 1.325 . S
N561 C564 1.314 . S
N561 C565 1.279 . S
C562 C560 1.348 . S
C562 C564 1.353 . S
C562 H604 0.929 . S
C563 C560 1.356 . S
C563 C565 1.358 . S
C563 H605 0.930 . S
C564 N561 1.314 . S
C564 C562 1.353 . S
C564 H606 0.930 . S
C565 N561 1.279 . S
C565 C563 1.358 . S
C565 H607 0.930 . S
C566 C567 1.348 . S
C566 C568 1.356 . S
C566 O591 1.325 . S
C567 C566 1.348 . S
C567 C569 1.353 . S
C567 H608 0.929 . S
C568 C566 1.356 . S
C568 C570 1.358 . S
C568 H609 0.930 . S
C569 C567 1.353 . S
C569 N571 1.314 . S
C569 H610 0.930 . S
C570 C568 1.358 . S
C570 N571 1.279 . S
C570 H611 0.930 . S
N571 C569 1.314 . S
N571 C570 1.279 . S
C572 C574 1.353 . S
C572 N575 1.314 . S
C572 H578 0.930 . S
C573 N575 1.279 . S
C573 C576 1.358 . S
C573 H579 0.930 . S
C574 C572 1.353 . S
C574 C577 1.348 . S
C574 H612 0.929 . S
N575 Li530 1.990 . S
N575 C572 1.314 . S
N575 C573 1.279 . S
C576 C573 1.358 . S
C576 C577 1.356 . S
C576 H613 0.930 . S
C577 C574 1.348 . S
C577 C576 1.356 . S
H578 C572 0.930 . S
H579 C573 0.930 . S
C580 N581 1.314 . S
C580 C582 1.353 . S
C580 H586 0.930 . S
N581 Li531 1.990 . S
N581 C580 1.314 . S
N581 C584 1.279 . S
C582 C580 1.353 . S
C582 C585 1.348 . S
C582 H614 0.929 . S
C583 C584 1.358 . S
C583 C585 1.356 . S
C583 H615 0.930 . S
C584 N581 1.279 . S
C584 C583 1.358 . S
C584 H587 0.930 . S
C585 C582 1.348 . S
C585 C583 1.356 . S
H586 C580 0.930 . S
H587 C584 0.930 . S
O588 Li528 1.956 . S
O588 Li529 1.970 . S
O588 Li530 1.961 . S
O588 C532 1.325 . S
O589 Li528 1.970 . S
O589 Li529 1.956 . S
O589 Li531 1.961 . S
O589 C538 1.325 . S
O590 Li528 1.961 . S
O590 Li530 1.956 . S
O590 Li531 1.970 . S
O590 C560 1.325 . S
O591 Li529 1.961 . S
O591 Li530 1.970 . S
O591 Li531 1.956 . S
O591 C566 1.325 . S
H592 C534 0.929 . S
H593 C535 0.930 . S
H594 C536 0.930 . S
H595 C537 0.930 . S
H596 C539 0.930 . S
H597 C541 0.929 . S
H598 C542 0.930 . S
H599 C543 0.930 . S
H600 C546 0.930 . S
H601 C549 0.929 . S
H602 C554 0.929 . S
H603 C555 0.930 . S
H604 C562 0.929 . S
H605 C563 0.930 . S
H606 C564 0.930 . S
H607 C565 0.930 . S
H608 C567 0.929 . S
H609 C568 0.930 . S
H610 C569 0.930 . S
H611 C570 0.930 . S
H612 C574 0.929 . S
H613 C576 0.930 . S
H614 C582 0.929 . S
H615 C583 0.930 . S
Li616 N633 1.990 . S
Li616 O676 1.956 . S
Li616 O677 1.970 . S
Li616 O678 1.961 . S
Li617 N641 1.990 . S
Li617 O676 1.970 . S
Li617 O677 1.956 . S
Li617 O679 1.961 . S
Li618 N663 1.990 . S
Li618 O676 1.961 . S
Li618 O678 1.956 . S
Li618 O679 1.970 . S
Li619 N669 1.990 . S
Li619 O677 1.961 . S
Li619 O678 1.970 . S
Li619 O679 1.956 . S
C620 C622 1.348 . S
C620 C623 1.356 . S
C620 O676 1.325 . S
N621 C624 1.314 . S
N621 C625 1.279 . S
C622 C620 1.348 . S
C622 C624 1.353 . S
C622 H680 0.929 . S
C623 C620 1.356 . S
C623 C625 1.358 . S
C623 H681 0.930 . S
C624 N621 1.314 . S
C624 C622 1.353 . S
C624 H682 0.930 . S
C625 N621 1.279 . S
C625 C623 1.358 . S
C625 H683 0.930 . S
C626 C629 1.348 . S
C626 C630 1.356 . S
C626 O677 1.325 . S
C627 N628 1.279 . S
C627 C630 1.358 . S
C627 H684 0.930 . S
N628 C627 1.279 . S
N628 C631 1.314 . S
C629 C626 1.348 . S
C629 C631 1.353 . S
C629 H685 0.929 . S
C630 C626 1.356 . S
C630 C627 1.358 . S
C630 H686 0.930 . S
C631 N628 1.314 . S
C631 C629 1.353 . S
C631 H687 0.930 . S
C632 N633 1.314 . S
C632 C637 1.353 . S
C632 H638 0.930 . S
N633 Li616 1.990 . S
N633 C632 1.314 . S
N633 C635 1.279 . S
C634 C635 1.358 . S
C634 C636 1.356 . S
C634 H688 0.930 . S
C635 N633 1.279 . S
C635 C634 1.358 . S
C635 H639 0.930 . S
C636 C634 1.356 . S
C636 C637 1.348 . S
C637 C632 1.353 . S
C637 C636 1.348 . S
C637 H689 0.929 . S
H638 C632 0.930 . S
H639 C635 0.930 . S
C640 N641 1.314 . S
C640 C642 1.353 . S
C640 H646 0.930 . S
N641 Li617 1.990 . S
N641 C640 1.314 . S
N641 C644 1.279 . S
C642 C640 1.353 . S
C642 C645 1.348 . S
C642 H690 0.929 . S
C643 C644 1.358 . S
C643 C645 1.356 . S
C643 H691 0.930 . S
C644 N641 1.279 . S
C644 C643 1.358 . S
C644 H647 0.930 . S
C645 C642 1.348 . S
C645 C643 1.356 . S
H646 C640 0.930 . S
H647 C644 0.930 . S
C648 C650 1.348 . S
C648 C651 1.356 . S
C648 O678 1.325 . S
N649 C652 1.314 . S
N649 C653 1.279 . S
C650 C648 1.348 . S
C650 C652 1.353 . S
C650 H692 0.929 . S
C651 C648 1.356 . S
C651 C653 1.358 . S
C651 H693 0.930 . S
C652 N649 1.314 . S
C652 C650 1.353 . S
C652 H694 0.930 . S
C653 N649 1.279 . S
C653 C651 1.358 . S
C653 H695 0.930 . S
C654 C655 1.348 . S
C654 C656 1.356 . S
C654 O679 1.325 . S
C655 C654 1.348 . S
C655 C657 1.353 . S
C655 H696 0.929 . S
C656 C654 1.356 . S
C656 C658 1.358 . S
C656 H697 0.930 . S
C657 C655 1.353 . S
C657 N659 1.314 . S
C657 H698 0.930 . S
C658 C656 1.358 . S
C658 N659 1.279 . S
C658 H699 0.930 . S
N659 C657 1.314 . S
N659 C658 1.279 . S
C660 C662 1.353 . S
C660 N663 1.314 . S
C660 H666 0.930 . S
C661 N663 1.279 . S
C661 C664 1.358 . S
C661 H667 0.930 . S
C662 C660 1.353 . S
C662 C665 1.348 . S
C662 H700 0.929 . S
N663 Li618 1.990 . S
N663 C660 1.314 . S
N663 C661 1.279 . S
C664 C661 1.358 . S
C664 C665 1.356 . S
C664 H701 0.930 . S
C665 C662 1.348 . S
C665 C664 1.356 . S
H666 C660 0.930 . S
H667 C661 0.930 . S
C668 N669 1.314 . S
C668 C670 1.353 . S
C668 H674 0.930 . S
N669 Li619 1.990 . S
N669 C668 1.314 . S
N669 C672 1.279 . S
C670 C668 1.353 . S
C670 C673 1.348 . S
C670 H702 0.929 . S
C671 C672 1.358 . S
C671 C673 1.356 . S
C671 H703 0.930 . S
C672 N669 1.279 . S
C672 C671 1.358 . S
C672 H675 0.930 . S
C673 C670 1.348 . S
C673 C671 1.356 . S
H674 C668 0.930 . S
H675 C672 0.930 . S
O676 Li616 1.956 . S
O676 Li617 1.970 . S
O676 Li618 1.961 . S
O676 C620 1.325 . S
O677 Li616 1.970 . S
O677 Li617 1.956 . S
O677 Li619 1.961 . S
O677 C626 1.325 . S
O678 Li616 1.961 . S
O678 Li618 1.956 . S
O678 Li619 1.970 . S
O678 C648 1.325 . S
O679 Li617 1.961 . S
O679 Li618 1.970 . S
O679 Li619 1.956 . S
O679 C654 1.325 . S
H680 C622 0.929 . S
H681 C623 0.930 . S
H682 C624 0.930 . S
H683 C625 0.930 . S
H684 C627 0.930 . S
H685 C629 0.929 . S
H686 C630 0.930 . S
H687 C631 0.930 . S
H688 C634 0.930 . S
H689 C637 0.929 . S
H690 C642 0.929 . S
H691 C643 0.930 . S
H692 C650 0.929 . S
H693 C651 0.930 . S
H694 C652 0.930 . S
H695 C653 0.930 . S
H696 C655 0.929 . S
H697 C656 0.930 . S
H698 C657 0.930 . S
H699 C658 0.930 . S
H700 C662 0.929 . S
H701 C664 0.930 . S
H702 C670 0.929 . S
H703 C671 0.930 . S
Li704 N721 1.990 . S
Li704 O764 1.956 . S
Li704 O765 1.970 . S
Li704 O766 1.961 . S
Li705 N729 1.990 . S
Li705 O764 1.970 . S
Li705 O765 1.956 . S
Li705 O767 1.961 . S
Li706 N751 1.990 . S
Li706 O764 1.961 . S
Li706 O766 1.956 . S
Li706 O767 1.970 . S
Li707 N757 1.990 . S
Li707 O765 1.961 . S
Li707 O766 1.970 . S
Li707 O767 1.956 . S
C708 C710 1.348 . S
C708 C711 1.356 . S
C708 O764 1.325 . S
N709 C712 1.314 . S
N709 C713 1.279 . S
C710 C708 1.348 . S
C710 C712 1.353 . S
C710 H768 0.929 . S
C711 C708 1.356 . S
C711 C713 1.358 . S
C711 H769 0.930 . S
C712 N709 1.314 . S
C712 C710 1.353 . S
C712 H770 0.930 . S
C713 N709 1.279 . S
C713 C711 1.358 . S
C713 H771 0.930 . S
C714 C717 1.348 . S
C714 C718 1.356 . S
C714 O765 1.325 . S
C715 N716 1.279 . S
C715 C718 1.358 . S
C715 H772 0.930 . S
N716 C715 1.279 . S
N716 C719 1.314 . S
C717 C714 1.348 . S
C717 C719 1.353 . S
C717 H773 0.929 . S
C718 C714 1.356 . S
C718 C715 1.358 . S
C718 H774 0.930 . S
C719 N716 1.314 . S
C719 C717 1.353 . S
C719 H775 0.930 . S
C720 N721 1.314 . S
C720 C725 1.353 . S
C720 H726 0.930 . S
N721 Li704 1.990 . S
N721 C720 1.314 . S
N721 C723 1.279 . S
C722 C723 1.358 . S
C722 C724 1.356 . S
C722 H776 0.930 . S
C723 N721 1.279 . S
C723 C722 1.358 . S
C723 H727 0.930 . S
C724 C722 1.356 . S
C724 C725 1.348 . S
C725 C720 1.353 . S
C725 C724 1.348 . S
C725 H777 0.929 . S
H726 C720 0.930 . S
H727 C723 0.930 . S
C728 N729 1.314 . S
C728 C730 1.353 . S
C728 H734 0.930 . S
N729 Li705 1.990 . S
N729 C728 1.314 . S
N729 C732 1.279 . S
C730 C728 1.353 . S
C730 C733 1.348 . S
C730 H778 0.929 . S
C731 C732 1.358 . S
C731 C733 1.356 . S
C731 H779 0.930 . S
C732 N729 1.279 . S
C732 C731 1.358 . S
C732 H735 0.930 . S
C733 C730 1.348 . S
C733 C731 1.356 . S
H734 C728 0.930 . S
H735 C732 0.930 . S
C736 C738 1.348 . S
C736 C739 1.356 . S
C736 O766 1.325 . S
N737 C740 1.314 . S
N737 C741 1.279 . S
C738 C736 1.348 . S
C738 C740 1.353 . S
C738 H780 0.929 . S
C739 C736 1.356 . S
C739 C741 1.358 . S
C739 H781 0.930 . S
C740 N737 1.314 . S
C740 C738 1.353 . S
C740 H782 0.930 . S
C741 N737 1.279 . S
C741 C739 1.358 . S
C741 H783 0.930 . S
C742 C743 1.348 . S
C742 C744 1.356 . S
C742 O767 1.325 . S
C743 C742 1.348 . S
C743 C745 1.353 . S
C743 H784 0.929 . S
C744 C742 1.356 . S
C744 C746 1.358 . S
C744 H785 0.930 . S
C745 C743 1.353 . S
C745 N747 1.314 . S
C745 H786 0.930 . S
C746 C744 1.358 . S
C746 N747 1.279 . S
C746 H787 0.930 . S
N747 C745 1.314 . S
N747 C746 1.279 . S
C748 C750 1.353 . S
C748 N751 1.314 . S
C748 H754 0.930 . S
C749 N751 1.279 . S
C749 C752 1.358 . S
C749 H755 0.930 . S
C750 C748 1.353 . S
C750 C753 1.348 . S
C750 H788 0.929 . S
N751 Li706 1.990 . S
N751 C748 1.314 . S
N751 C749 1.279 . S
C752 C749 1.358 . S
C752 C753 1.356 . S
C752 H789 0.930 . S
C753 C750 1.348 . S
C753 C752 1.356 . S
H754 C748 0.930 . S
H755 C749 0.930 . S
C756 N757 1.314 . S
C756 C758 1.353 . S
C756 H762 0.930 . S
N757 Li707 1.990 . S
N757 C756 1.314 . S
N757 C760 1.279 . S
C758 C756 1.353 . S
C758 C761 1.348 . S
C758 H790 0.929 . S
C759 C760 1.358 . S
C759 C761 1.356 . S
C759 H791 0.930 . S
C760 N757 1.279 . S
C760 C759 1.358 . S
C760 H763 0.930 . S
C761 C758 1.348 . S
C761 C759 1.356 . S
H762 C756 0.930 . S
H763 C760 0.930 . S
O764 Li704 1.956 . S
O764 Li705 1.970 . S
O764 Li706 1.961 . S
O764 C708 1.325 . S
O765 Li704 1.970 . S
O765 Li705 1.956 . S
O765 Li707 1.961 . S
O765 C714 1.325 . S
O766 Li704 1.961 . S
O766 Li706 1.956 . S
O766 Li707 1.970 . S
O766 C736 1.325 . S
O767 Li705 1.961 . S
O767 Li706 1.970 . S
O767 Li707 1.956 . S
O767 C742 1.325 . S
H768 C710 0.929 . S
H769 C711 0.930 . S
H770 C712 0.930 . S
H771 C713 0.930 . S
H772 C715 0.930 . S
H773 C717 0.929 . S
H774 C718 0.930 . S
H775 C719 0.930 . S
H776 C722 0.930 . S
H777 C725 0.929 . S
H778 C730 0.929 . S
H779 C731 0.930 . S
H780 C738 0.929 . S
H781 C739 0.930 . S
H782 C740 0.930 . S
H783 C741 0.930 . S
H784 C743 0.929 . S
H785 C744 0.930 . S
H786 C745 0.930 . S
H787 C746 0.930 . S
H788 C750 0.929 . S
H789 C752 0.930 . S
H790 C758 0.929 . S
H791 C759 0.930 . S
Li792 N809 1.990 . S
Li792 O852 1.956 . S
Li792 O853 1.970 . S
Li792 O854 1.961 . S
Li793 N817 1.990 . S
Li793 O852 1.970 . S
Li793 O853 1.956 . S
Li793 O855 1.961 . S
Li794 N839 1.990 . S
Li794 O852 1.961 . S
Li794 O854 1.956 . S
Li794 O855 1.970 . S
Li795 N845 1.990 . S
Li795 O853 1.961 . S
Li795 O854 1.970 . S
Li795 O855 1.956 . S
C796 C798 1.348 . S
C796 C799 1.356 . S
C796 O852 1.325 . S
N797 C800 1.314 . S
N797 C801 1.279 . S
C798 C796 1.348 . S
C798 C800 1.353 . S
C798 H856 0.929 . S
C799 C796 1.356 . S
C799 C801 1.358 . S
C799 H857 0.930 . S
C800 N797 1.314 . S
C800 C798 1.353 . S
C800 H858 0.930 . S
C801 N797 1.279 . S
C801 C799 1.358 . S
C801 H859 0.930 . S
C802 C805 1.348 . S
C802 C806 1.356 . S
C802 O853 1.325 . S
C803 N804 1.279 . S
C803 C806 1.358 . S
C803 H860 0.930 . S
N804 C803 1.279 . S
N804 C807 1.314 . S
C805 C802 1.348 . S
C805 C807 1.353 . S
C805 H861 0.929 . S
C806 C802 1.356 . S
C806 C803 1.358 . S
C806 H862 0.930 . S
C807 N804 1.314 . S
C807 C805 1.353 . S
C807 H863 0.930 . S
C808 N809 1.314 . S
C808 C813 1.353 . S
C808 H814 0.930 . S
N809 Li792 1.990 . S
N809 C808 1.314 . S
N809 C811 1.279 . S
C810 C811 1.358 . S
C810 C812 1.356 . S
C810 H864 0.930 . S
C811 N809 1.279 . S
C811 C810 1.358 . S
C811 H815 0.930 . S
C812 C810 1.356 . S
C812 C813 1.348 . S
C813 C808 1.353 . S
C813 C812 1.348 . S
C813 H865 0.929 . S
H814 C808 0.930 . S
H815 C811 0.930 . S
C816 N817 1.314 . S
C816 C818 1.353 . S
C816 H822 0.930 . S
N817 Li793 1.990 . S
N817 C816 1.314 . S
N817 C820 1.279 . S
C818 C816 1.353 . S
C818 C821 1.348 . S
C818 H866 0.929 . S
C819 C820 1.358 . S
C819 C821 1.356 . S
C819 H867 0.930 . S
C820 N817 1.279 . S
C820 C819 1.358 . S
C820 H823 0.930 . S
C821 C818 1.348 . S
C821 C819 1.356 . S
H822 C816 0.930 . S
H823 C820 0.930 . S
C824 C826 1.348 . S
C824 C827 1.356 . S
C824 O854 1.325 . S
N825 C828 1.314 . S
N825 C829 1.279 . S
C826 C824 1.348 . S
C826 C828 1.353 . S
C826 H868 0.929 . S
C827 C824 1.356 . S
C827 C829 1.358 . S
C827 H869 0.930 . S
C828 N825 1.314 . S
C828 C826 1.353 . S
C828 H870 0.930 . S
C829 N825 1.279 . S
C829 C827 1.358 . S
C829 H871 0.930 . S
C830 C831 1.348 . S
C830 C832 1.356 . S
C830 O855 1.325 . S
C831 C830 1.348 . S
C831 C833 1.353 . S
C831 H872 0.929 . S
C832 C830 1.356 . S
C832 C834 1.358 . S
C832 H873 0.930 . S
C833 C831 1.353 . S
C833 N835 1.314 . S
C833 H874 0.930 . S
C834 C832 1.358 . S
C834 N835 1.279 . S
C834 H875 0.930 . S
N835 C833 1.314 . S
N835 C834 1.279 . S
C836 C838 1.353 . S
C836 N839 1.314 . S
C836 H842 0.930 . S
C837 N839 1.279 . S
C837 C840 1.358 . S
C837 H843 0.930 . S
C838 C836 1.353 . S
C838 C841 1.348 . S
C838 H876 0.929 . S
N839 Li794 1.990 . S
N839 C836 1.314 . S
N839 C837 1.279 . S
C840 C837 1.358 . S
C840 C841 1.356 . S
C840 H877 0.930 . S
C841 C838 1.348 . S
C841 C840 1.356 . S
H842 C836 0.930 . S
H843 C837 0.930 . S
C844 N845 1.314 . S
C844 C846 1.353 . S
C844 H850 0.930 . S
N845 Li795 1.990 . S
N845 C844 1.314 . S
N845 C848 1.279 . S
C846 C844 1.353 . S
C846 C849 1.348 . S
C846 H878 0.929 . S
C847 C848 1.358 . S
C847 C849 1.356 . S
C847 H879 0.930 . S
C848 N845 1.279 . S
C848 C847 1.358 . S
C848 H851 0.930 . S
C849 C846 1.348 . S
C849 C847 1.356 . S
H850 C844 0.930 . S
H851 C848 0.930 . S
O852 Li792 1.956 . S
O852 Li793 1.970 . S
O852 Li794 1.961 . S
O852 C796 1.325 . S
O853 Li792 1.970 . S
O853 Li793 1.956 . S
O853 Li795 1.961 . S
O853 C802 1.325 . S
O854 Li792 1.961 . S
O854 Li794 1.956 . S
O854 Li795 1.970 . S
O854 C824 1.325 . S
O855 Li793 1.961 . S
O855 Li794 1.970 . S
O855 Li795 1.956 . S
O855 C830 1.325 . S
H856 C798 0.929 . S
H857 C799 0.930 . S
H858 C800 0.930 . S
H859 C801 0.930 . S
H860 C803 0.930 . S
H861 C805 0.929 . S
H862 C806 0.930 . S
H863 C807 0.930 . S
H864 C810 0.930 . S
H865 C813 0.929 . S
H866 C818 0.929 . S
H867 C819 0.930 . S
H868 C826 0.929 . S
H869 C827 0.930 . S
H870 C828 0.930 . S
H871 C829 0.930 . S
H872 C831 0.929 . S
H873 C832 0.930 . S
H874 C833 0.930 . S
H875 C834 0.930 . S
H876 C838 0.929 . S
H877 C840 0.930 . S
H878 C846 0.929 . S
H879 C847 0.930 . S
Li880 N897 1.990 . S
Li880 O940 1.956 . S
Li880 O941 1.970 . S
Li880 O942 1.961 . S
Li881 N905 1.990 . S
Li881 O940 1.970 . S
Li881 O941 1.956 . S
Li881 O943 1.961 . S
Li882 N927 1.990 . S
Li882 O940 1.961 . S
Li882 O942 1.956 . S
Li882 O943 1.970 . S
Li883 N933 1.990 . S
Li883 O941 1.961 . S
Li883 O942 1.970 . S
Li883 O943 1.956 . S
C884 C886 1.348 . S
C884 C887 1.356 . S
C884 O940 1.325 . S
N885 C888 1.314 . S
N885 C889 1.279 . S
C886 C884 1.348 . S
C886 C888 1.353 . S
C886 H944 0.929 . S
C887 C884 1.356 . S
C887 C889 1.358 . S
C887 H945 0.930 . S
C888 N885 1.314 . S
C888 C886 1.353 . S
C888 H946 0.930 . S
C889 N885 1.279 . S
C889 C887 1.358 . S
C889 H947 0.930 . S
C890 C893 1.348 . S
C890 C894 1.356 . S
C890 O941 1.325 . S
C891 N892 1.279 . S
C891 C894 1.358 . S
C891 H948 0.930 . S
N892 C891 1.279 . S
N892 C895 1.314 . S
C893 C890 1.348 . S
C893 C895 1.353 . S
C893 H949 0.929 . S
C894 C890 1.356 . S
C894 C891 1.358 . S
C894 H950 0.930 . S
C895 N892 1.314 . S
C895 C893 1.353 . S
C895 H951 0.930 . S
C896 N897 1.314 . S
C896 C901 1.353 . S
C896 H902 0.930 . S
N897 Li880 1.990 . S
N897 C896 1.314 . S
N897 C899 1.279 . S
C898 C899 1.358 . S
C898 C900 1.356 . S
C898 H952 0.930 . S
C899 N897 1.279 . S
C899 C898 1.358 . S
C899 H903 0.930 . S
C900 C898 1.356 . S
C900 C901 1.348 . S
C901 C896 1.353 . S
C901 C900 1.348 . S
C901 H953 0.929 . S
H902 C896 0.930 . S
H903 C899 0.930 . S
C904 N905 1.314 . S
C904 C906 1.353 . S
C904 H910 0.930 . S
N905 Li881 1.990 . S
N905 C904 1.314 . S
N905 C908 1.279 . S
C906 C904 1.353 . S
C906 C909 1.348 . S
C906 H954 0.929 . S
C907 C908 1.358 . S
C907 C909 1.356 . S
C907 H955 0.930 . S
C908 N905 1.279 . S
C908 C907 1.358 . S
C908 H911 0.930 . S
C909 C906 1.348 . S
C909 C907 1.356 . S
H910 C904 0.930 . S
H911 C908 0.930 . S
C912 C914 1.348 . S
C912 C915 1.356 . S
C912 O942 1.325 . S
N913 C916 1.314 . S
N913 C917 1.279 . S
C914 C912 1.348 . S
C914 C916 1.353 . S
C914 H956 0.929 . S
C915 C912 1.356 . S
C915 C917 1.358 . S
C915 H957 0.930 . S
C916 N913 1.314 . S
C916 C914 1.353 . S
C916 H958 0.930 . S
C917 N913 1.279 . S
C917 C915 1.358 . S
C917 H959 0.930 . S
C918 C919 1.348 . S
C918 C920 1.356 . S
C918 O943 1.325 . S
C919 C918 1.348 . S
C919 C921 1.353 . S
C919 H960 0.929 . S
C920 C918 1.356 . S
C920 C922 1.358 . S
C920 H961 0.930 . S
C921 C919 1.353 . S
C921 N923 1.314 . S
C921 H962 0.930 . S
C922 C920 1.358 . S
C922 N923 1.279 . S
C922 H963 0.930 . S
N923 C921 1.314 . S
N923 C922 1.279 . S
C924 C926 1.353 . S
C924 N927 1.314 . S
C924 H930 0.930 . S
C925 N927 1.279 . S
C925 C928 1.358 . S
C925 H931 0.930 . S
C926 C924 1.353 . S
C926 C929 1.348 . S
C926 H964 0.929 . S
N927 Li882 1.990 . S
N927 C924 1.314 . S
N927 C925 1.279 . S
C928 C925 1.358 . S
C928 C929 1.356 . S
C928 H965 0.930 . S
C929 C926 1.348 . S
C929 C928 1.356 . S
H930 C924 0.930 . S
H931 C925 0.930 . S
C932 N933 1.314 . S
C932 C934 1.353 . S
C932 H938 0.930 . S
N933 Li883 1.990 . S
N933 C932 1.314 . S
N933 C936 1.279 . S
C934 C932 1.353 . S
C934 C937 1.348 . S
C934 H966 0.929 . S
C935 C936 1.358 . S
C935 C937 1.356 . S
C935 H967 0.930 . S
C936 N933 1.279 . S
C936 C935 1.358 . S
C936 H939 0.930 . S
C937 C934 1.348 . S
C937 C935 1.356 . S
H938 C932 0.930 . S
H939 C936 0.930 . S
O940 Li880 1.956 . S
O940 Li881 1.970 . S
O940 Li882 1.961 . S
O940 C884 1.325 . S
O941 Li880 1.970 . S
O941 Li881 1.956 . S
O941 Li883 1.961 . S
O941 C890 1.325 . S
O942 Li880 1.961 . S
O942 Li882 1.956 . S
O942 Li883 1.970 . S
O942 C912 1.325 . S
O943 Li881 1.961 . S
O943 Li882 1.970 . S
O943 Li883 1.956 . S
O943 C918 1.325 . S
H944 C886 0.929 . S
H945 C887 0.930 . S
H946 C888 0.930 . S
H947 C889 0.930 . S
H948 C891 0.930 . S
H949 C893 0.929 . S
H950 C894 0.930 . S
H951 C895 0.930 . S
H952 C898 0.930 . S
H953 C901 0.929 . S
H954 C906 0.929 . S
H955 C907 0.930 . S
H956 C914 0.929 . S
H957 C915 0.930 . S
H958 C916 0.930 . S
H959 C917 0.930 . S
H960 C919 0.929 . S
H961 C920 0.930 . S
H962 C921 0.930 . S
H963 C922 0.930 . S
H964 C926 0.929 . S
H965 C928 0.930 . S
H966 C934 0.929 . S
H967 C935 0.930 . S
Li968 N985 1.990 . S
Li968 O1028 1.956 . S
Li968 O1029 1.970 . S
Li968 O1030 1.961 . S
Li969 N993 1.990 . S
Li969 O1028 1.970 . S
Li969 O1029 1.956 . S
Li969 O1031 1.961 . S
Li970 N1015 1.990 . S
Li970 O1028 1.961 . S
Li970 O1030 1.956 . S
Li970 O1031 1.970 . S
Li971 N1021 1.990 . S
Li971 O1029 1.961 . S
Li971 O1030 1.970 . S
Li971 O1031 1.956 . S
C972 C974 1.348 . S
C972 C975 1.356 . S
C972 O1028 1.325 . S
N973 C976 1.314 . S
N973 C977 1.279 . S
C974 C972 1.348 . S
C974 C976 1.353 . S
C974 H1032 0.929 . S
C975 C972 1.356 . S
C975 C977 1.358 . S
C975 H1033 0.930 . S
C976 N973 1.314 . S
C976 C974 1.353 . S
C976 H1034 0.930 . S
C977 N973 1.279 . S
C977 C975 1.358 . S
C977 H1035 0.930 . S
C978 C981 1.348 . S
C978 C982 1.356 . S
C978 O1029 1.325 . S
C979 N980 1.279 . S
C979 C982 1.358 . S
C979 H1036 0.930 . S
N980 C979 1.279 . S
N980 C983 1.314 . S
C981 C978 1.348 . S
C981 C983 1.353 . S
C981 H1037 0.929 . S
C982 C978 1.356 . S
C982 C979 1.358 . S
C982 H1038 0.930 . S
C983 N980 1.314 . S
C983 C981 1.353 . S
C983 H1039 0.930 . S
C984 N985 1.314 . S
C984 C989 1.353 . S
C984 H990 0.930 . S
N985 Li968 1.990 . S
N985 C984 1.314 . S
N985 C987 1.279 . S
C986 C987 1.358 . S
C986 C988 1.356 . S
C986 H1040 0.930 . S
C987 N985 1.279 . S
C987 C986 1.358 . S
C987 H991 0.930 . S
C988 C986 1.356 . S
C988 C989 1.348 . S
C989 C984 1.353 . S
C989 C988 1.348 . S
C989 H1041 0.929 . S
H990 C984 0.930 . S
H991 C987 0.930 . S
C992 N993 1.314 . S
C992 C994 1.353 . S
C992 H998 0.930 . S
N993 Li969 1.990 . S
N993 C992 1.314 . S
N993 C996 1.279 . S
C994 C992 1.353 . S
C994 C997 1.348 . S
C994 H1042 0.929 . S
C995 C996 1.358 . S
C995 C997 1.356 . S
C995 H1043 0.930 . S
C996 N993 1.279 . S
C996 C995 1.358 . S
C996 H999 0.930 . S
C997 C994 1.348 . S
C997 C995 1.356 . S
H998 C992 0.930 . S
H999 C996 0.930 . S
C1000 C1002 1.348 . S
C1000 C1003 1.356 . S
C1000 O1030 1.325 . S
N1001 C1004 1.314 . S
N1001 C1005 1.279 . S
C1002 C1000 1.348 . S
C1002 C1004 1.353 . S
C1002 H1044 0.929 . S
C1003 C1000 1.356 . S
C1003 C1005 1.358 . S
C1003 H1045 0.930 . S
C1004 N1001 1.314 . S
C1004 C1002 1.353 . S
C1004 H1046 0.930 . S
C1005 N1001 1.279 . S
C1005 C1003 1.358 . S
C1005 H1047 0.930 . S
C1006 C1007 1.348 . S
C1006 C1008 1.356 . S
C1006 O1031 1.325 . S
C1007 C1006 1.348 . S
C1007 C1009 1.353 . S
C1007 H1048 0.929 . S
C1008 C1006 1.356 . S
C1008 C1010 1.358 . S
C1008 H1049 0.930 . S
C1009 C1007 1.353 . S
C1009 N1011 1.314 . S
C1009 H1050 0.930 . S
C1010 C1008 1.358 . S
C1010 N1011 1.279 . S
C1010 H1051 0.930 . S
N1011 C1009 1.314 . S
N1011 C1010 1.279 . S
C1012 C1014 1.353 . S
C1012 N1015 1.314 . S
C1012 H1018 0.930 . S
C1013 N1015 1.279 . S
C1013 C1016 1.358 . S
C1013 H1019 0.930 . S
C1014 C1012 1.353 . S
C1014 C1017 1.348 . S
C1014 H1052 0.929 . S
N1015 Li970 1.990 . S
N1015 C1012 1.314 . S
N1015 C1013 1.279 . S
C1016 C1013 1.358 . S
C1016 C1017 1.356 . S
C1016 H1053 0.930 . S
C1017 C1014 1.348 . S
C1017 C1016 1.356 . S
H1018 C1012 0.930 . S
H1019 C1013 0.930 . S
C1020 N1021 1.314 . S
C1020 C1022 1.353 . S
C1020 H1026 0.930 . S
N1021 Li971 1.990 . S
N1021 C1020 1.314 . S
N1021 C1024 1.279 . S
C1022 C1020 1.353 . S
C1022 C1025 1.348 . S
C1022 H1054 0.929 . S
C1023 C1024 1.358 . S
C1023 C1025 1.356 . S
C1023 H1055 0.930 . S
C1024 N1021 1.279 . S
C1024 C1023 1.358 . S
C1024 H1027 0.930 . S
C1025 C1022 1.348 . S
C1025 C1023 1.356 . S
H1026 C1020 0.930 . S
H1027 C1024 0.930 . S
O1028 Li968 1.956 . S
O1028 Li969 1.970 . S
O1028 Li970 1.961 . S
O1028 C972 1.325 . S
O1029 Li968 1.970 . S
O1029 Li969 1.956 . S
O1029 Li971 1.961 . S
O1029 C978 1.325 . S
O1030 Li968 1.961 . S
O1030 Li970 1.956 . S
O1030 Li971 1.970 . S
O1030 C1000 1.325 . S
O1031 Li969 1.961 . S
O1031 Li970 1.970 . S
O1031 Li971 1.956 . S
O1031 C1006 1.325 . S
H1032 C974 0.929 . S
H1033 C975 0.930 . S
H1034 C976 0.930 . S
H1035 C977 0.930 . S
H1036 C979 0.930 . S
H1037 C981 0.929 . S
H1038 C982 0.930 . S
H1039 C983 0.930 . S
H1040 C986 0.930 . S
H1041 C989 0.929 . S
H1042 C994 0.929 . S
H1043 C995 0.930 . S
H1044 C1002 0.929 . S
H1045 C1003 0.930 . S
H1046 C1004 0.930 . S
H1047 C1005 0.930 . S
H1048 C1007 0.929 . S
H1049 C1008 0.930 . S
H1050 C1009 0.930 . S
H1051 C1010 0.930 . S
H1052 C1014 0.929 . S
H1053 C1016 0.930 . S
H1054 C1022 0.929 . S
H1055 C1023 0.930 . S
Li1056 N1073 1.990 . S
Li1056 O1116 1.956 . S
Li1056 O1117 1.970 . S
Li1056 O1118 1.961 . S
Li1057 N1081 1.990 . S
Li1057 O1116 1.970 . S
Li1057 O1117 1.956 . S
Li1057 O1119 1.961 . S
Li1058 N1103 1.990 . S
Li1058 O1116 1.961 . S
Li1058 O1118 1.956 . S
Li1058 O1119 1.970 . S
Li1059 N1109 1.990 . S
Li1059 O1117 1.961 . S
Li1059 O1118 1.970 . S
Li1059 O1119 1.956 . S
C1060 C1062 1.348 . S
C1060 C1063 1.356 . S
C1060 O1116 1.325 . S
N1061 C1064 1.314 . S
N1061 C1065 1.279 . S
C1062 C1060 1.348 . S
C1062 C1064 1.353 . S
C1062 H1120 0.929 . S
C1063 C1060 1.356 . S
C1063 C1065 1.358 . S
C1063 H1121 0.930 . S
C1064 N1061 1.314 . S
C1064 C1062 1.353 . S
C1064 H1122 0.930 . S
C1065 N1061 1.279 . S
C1065 C1063 1.358 . S
C1065 H1123 0.930 . S
C1066 C1069 1.348 . S
C1066 C1070 1.356 . S
C1066 O1117 1.325 . S
C1067 N1068 1.279 . S
C1067 C1070 1.358 . S
C1067 H1124 0.930 . S
N1068 C1067 1.279 . S
N1068 C1071 1.314 . S
C1069 C1066 1.348 . S
C1069 C1071 1.353 . S
C1069 H1125 0.929 . S
C1070 C1066 1.356 . S
C1070 C1067 1.358 . S
C1070 H1126 0.930 . S
C1071 N1068 1.314 . S
C1071 C1069 1.353 . S
C1071 H1127 0.930 . S
C1072 N1073 1.314 . S
C1072 C1077 1.353 . S
C1072 H1078 0.930 . S
N1073 Li1056 1.990 . S
N1073 C1072 1.314 . S
N1073 C1075 1.279 . S
C1074 C1075 1.358 . S
C1074 C1076 1.356 . S
C1074 H1128 0.930 . S
C1075 N1073 1.279 . S
C1075 C1074 1.358 . S
C1075 H1079 0.930 . S
C1076 C1074 1.356 . S
C1076 C1077 1.348 . S
C1077 C1072 1.353 . S
C1077 C1076 1.348 . S
C1077 H1129 0.929 . S
H1078 C1072 0.930 . S
H1079 C1075 0.930 . S
C1080 N1081 1.314 . S
C1080 C1082 1.353 . S
C1080 H1086 0.930 . S
N1081 Li1057 1.990 . S
N1081 C1080 1.314 . S
N1081 C1084 1.279 . S
C1082 C1080 1.353 . S
C1082 C1085 1.348 . S
C1082 H1130 0.929 . S
C1083 C1084 1.358 . S
C1083 C1085 1.356 . S
C1083 H1131 0.930 . S
C1084 N1081 1.279 . S
C1084 C1083 1.358 . S
C1084 H1087 0.930 . S
C1085 C1082 1.348 . S
C1085 C1083 1.356 . S
H1086 C1080 0.930 . S
H1087 C1084 0.930 . S
C1088 C1090 1.348 . S
C1088 C1091 1.356 . S
C1088 O1118 1.325 . S
N1089 C1092 1.314 . S
N1089 C1093 1.279 . S
C1090 C1088 1.348 . S
C1090 C1092 1.353 . S
C1090 H1132 0.929 . S
C1091 C1088 1.356 . S
C1091 C1093 1.358 . S
C1091 H1133 0.930 . S
C1092 N1089 1.314 . S
C1092 C1090 1.353 . S
C1092 H1134 0.930 . S
C1093 N1089 1.279 . S
C1093 C1091 1.358 . S
C1093 H1135 0.930 . S
C1094 C1095 1.348 . S
C1094 C1096 1.356 . S
C1094 O1119 1.325 . S
C1095 C1094 1.348 . S
C1095 C1097 1.353 . S
C1095 H1136 0.929 . S
C1096 C1094 1.356 . S
C1096 C1098 1.358 . S
C1096 H1137 0.930 . S
C1097 C1095 1.353 . S
C1097 N1099 1.314 . S
C1097 H1138 0.930 . S
C1098 C1096 1.358 . S
C1098 N1099 1.279 . S
C1098 H1139 0.930 . S
N1099 C1097 1.314 . S
N1099 C1098 1.279 . S
C1100 C1102 1.353 . S
C1100 N1103 1.314 . S
C1100 H1106 0.930 . S
C1101 N1103 1.279 . S
C1101 C1104 1.358 . S
C1101 H1107 0.930 . S
C1102 C1100 1.353 . S
C1102 C1105 1.348 . S
C1102 H1140 0.929 . S
N1103 Li1058 1.990 . S
N1103 C1100 1.314 . S
N1103 C1101 1.279 . S
C1104 C1101 1.358 . S
C1104 C1105 1.356 . S
C1104 H1141 0.930 . S
C1105 C1102 1.348 . S
C1105 C1104 1.356 . S
H1106 C1100 0.930 . S
H1107 C1101 0.930 . S
C1108 N1109 1.314 . S
C1108 C1110 1.353 . S
C1108 H1114 0.930 . S
N1109 Li1059 1.990 . S
N1109 C1108 1.314 . S
N1109 C1112 1.279 . S
C1110 C1108 1.353 . S
C1110 C1113 1.348 . S
C1110 H1142 0.929 . S
C1111 C1112 1.358 . S
C1111 C1113 1.356 . S
C1111 H1143 0.930 . S
C1112 N1109 1.279 . S
C1112 C1111 1.358 . S
C1112 H1115 0.930 . S
C1113 C1110 1.348 . S
C1113 C1111 1.356 . S
H1114 C1108 0.930 . S
H1115 C1112 0.930 . S
O1116 Li1056 1.956 . S
O1116 Li1057 1.970 . S
O1116 Li1058 1.961 . S
O1116 C1060 1.325 . S
O1117 Li1056 1.970 . S
O1117 Li1057 1.956 . S
O1117 Li1059 1.961 . S
O1117 C1066 1.325 . S
O1118 Li1056 1.961 . S
O1118 Li1058 1.956 . S
O1118 Li1059 1.970 . S
O1118 C1088 1.325 . S
O1119 Li1057 1.961 . S
O1119 Li1058 1.970 . S
O1119 Li1059 1.956 . S
O1119 C1094 1.325 . S
H1120 C1062 0.929 . S
H1121 C1063 0.930 . S
H1122 C1064 0.930 . S
H1123 C1065 0.930 . S
H1124 C1067 0.930 . S
H1125 C1069 0.929 . S
H1126 C1070 0.930 . S
H1127 C1071 0.930 . S
H1128 C1074 0.930 . S
H1129 C1077 0.929 . S
H1130 C1082 0.929 . S
H1131 C1083 0.930 . S
H1132 C1090 0.929 . S
H1133 C1091 0.930 . S
H1134 C1092 0.930 . S
H1135 C1093 0.930 . S
H1136 C1095 0.929 . S
H1137 C1096 0.930 . S
H1138 C1097 0.930 . S
H1139 C1098 0.930 . S
H1140 C1102 0.929 . S
H1141 C1104 0.930 . S
H1142 C1110 0.929 . S
H1143 C1111 0.930 . S
Li1144 N1161 1.990 . S
Li1144 O1204 1.956 . S
Li1144 O1205 1.970 . S
Li1144 O1206 1.961 . S
Li1145 N1169 1.990 . S
Li1145 O1204 1.970 . S
Li1145 O1205 1.956 . S
Li1145 O1207 1.961 . S
Li1146 N1191 1.990 . S
Li1146 O1204 1.961 . S
Li1146 O1206 1.956 . S
Li1146 O1207 1.970 . S
Li1147 N1197 1.990 . S
Li1147 O1205 1.961 . S
Li1147 O1206 1.970 . S
Li1147 O1207 1.956 . S
C1148 C1150 1.348 . S
C1148 C1151 1.356 . S
C1148 O1204 1.325 . S
N1149 C1152 1.314 . S
N1149 C1153 1.279 . S
C1150 C1148 1.348 . S
C1150 C1152 1.353 . S
C1150 H1208 0.929 . S
C1151 C1148 1.356 . S
C1151 C1153 1.358 . S
C1151 H1209 0.930 . S
C1152 N1149 1.314 . S
C1152 C1150 1.353 . S
C1152 H1210 0.930 . S
C1153 N1149 1.279 . S
C1153 C1151 1.358 . S
C1153 H1211 0.930 . S
C1154 C1157 1.348 . S
C1154 C1158 1.356 . S
C1154 O1205 1.325 . S
C1155 N1156 1.279 . S
C1155 C1158 1.358 . S
C1155 H1212 0.930 . S
N1156 C1155 1.279 . S
N1156 C1159 1.314 . S
C1157 C1154 1.348 . S
C1157 C1159 1.353 . S
C1157 H1213 0.929 . S
C1158 C1154 1.356 . S
C1158 C1155 1.358 . S
C1158 H1214 0.930 . S
C1159 N1156 1.314 . S
C1159 C1157 1.353 . S
C1159 H1215 0.930 . S
C1160 N1161 1.314 . S
C1160 C1165 1.353 . S
C1160 H1166 0.930 . S
N1161 Li1144 1.990 . S
N1161 C1160 1.314 . S
N1161 C1163 1.279 . S
C1162 C1163 1.358 . S
C1162 C1164 1.356 . S
C1162 H1216 0.930 . S
C1163 N1161 1.279 . S
C1163 C1162 1.358 . S
C1163 H1167 0.930 . S
C1164 C1162 1.356 . S
C1164 C1165 1.348 . S
C1165 C1160 1.353 . S
C1165 C1164 1.348 . S
C1165 H1217 0.929 . S
H1166 C1160 0.930 . S
H1167 C1163 0.930 . S
C1168 N1169 1.314 . S
C1168 C1170 1.353 . S
C1168 H1174 0.930 . S
N1169 Li1145 1.990 . S
N1169 C1168 1.314 . S
N1169 C1172 1.279 . S
C1170 C1168 1.353 . S
C1170 C1173 1.348 . S
C1170 H1218 0.929 . S
C1171 C1172 1.358 . S
C1171 C1173 1.356 . S
C1171 H1219 0.930 . S
C1172 N1169 1.279 . S
C1172 C1171 1.358 . S
C1172 H1175 0.930 . S
C1173 C1170 1.348 . S
C1173 C1171 1.356 . S
H1174 C1168 0.930 . S
H1175 C1172 0.930 . S
C1176 C1178 1.348 . S
C1176 C1179 1.356 . S
C1176 O1206 1.325 . S
N1177 C1180 1.314 . S
N1177 C1181 1.279 . S
C1178 C1176 1.348 . S
C1178 C1180 1.353 . S
C1178 H1220 0.929 . S
C1179 C1176 1.356 . S
C1179 C1181 1.358 . S
C1179 H1221 0.930 . S
C1180 N1177 1.314 . S
C1180 C1178 1.353 . S
C1180 H1222 0.930 . S
C1181 N1177 1.279 . S
C1181 C1179 1.358 . S
C1181 H1223 0.930 . S
C1182 C1183 1.348 . S
C1182 C1184 1.356 . S
C1182 O1207 1.325 . S
C1183 C1182 1.348 . S
C1183 C1185 1.353 . S
C1183 H1224 0.929 . S
C1184 C1182 1.356 . S
C1184 C1186 1.358 . S
C1184 H1225 0.930 . S
C1185 C1183 1.353 . S
C1185 N1187 1.314 . S
C1185 H1226 0.930 . S
C1186 C1184 1.358 . S
C1186 N1187 1.279 . S
C1186 H1227 0.930 . S
N1187 C1185 1.314 . S
N1187 C1186 1.279 . S
C1188 C1190 1.353 . S
C1188 N1191 1.314 . S
C1188 H1194 0.930 . S
C1189 N1191 1.279 . S
C1189 C1192 1.358 . S
C1189 H1195 0.930 . S
C1190 C1188 1.353 . S
C1190 C1193 1.348 . S
C1190 H1228 0.929 . S
N1191 Li1146 1.990 . S
N1191 C1188 1.314 . S
N1191 C1189 1.279 . S
C1192 C1189 1.358 . S
C1192 C1193 1.356 . S
C1192 H1229 0.930 . S
C1193 C1190 1.348 . S
C1193 C1192 1.356 . S
H1194 C1188 0.930 . S
H1195 C1189 0.930 . S
C1196 N1197 1.314 . S
C1196 C1198 1.353 . S
C1196 H1202 0.930 . S
N1197 Li1147 1.990 . S
N1197 C1196 1.314 . S
N1197 C1200 1.279 . S
C1198 C1196 1.353 . S
C1198 C1201 1.348 . S
C1198 H1230 0.929 . S
C1199 C1200 1.358 . S
C1199 C1201 1.356 . S
C1199 H1231 0.930 . S
C1200 N1197 1.279 . S
C1200 C1199 1.358 . S
C1200 H1203 0.930 . S
C1201 C1198 1.348 . S
C1201 C1199 1.356 . S
H1202 C1196 0.930 . S
H1203 C1200 0.930 . S
O1204 Li1144 1.956 . S
O1204 Li1145 1.970 . S
O1204 Li1146 1.961 . S
O1204 C1148 1.325 . S
O1205 Li1144 1.970 . S
O1205 Li1145 1.956 . S
O1205 Li1147 1.961 . S
O1205 C1154 1.325 . S
O1206 Li1144 1.961 . S
O1206 Li1146 1.956 . S
O1206 Li1147 1.970 . S
O1206 C1176 1.325 . S
O1207 Li1145 1.961 . S
O1207 Li1146 1.970 . S
O1207 Li1147 1.956 . S
O1207 C1182 1.325 . S
H1208 C1150 0.929 . S
H1209 C1151 0.930 . S
H1210 C1152 0.930 . S
H1211 C1153 0.930 . S
H1212 C1155 0.930 . S
H1213 C1157 0.929 . S
H1214 C1158 0.930 . S
H1215 C1159 0.930 . S
H1216 C1162 0.930 . S
H1217 C1165 0.929 . S
H1218 C1170 0.929 . S
H1219 C1171 0.930 . S
H1220 C1178 0.929 . S
H1221 C1179 0.930 . S
H1222 C1180 0.930 . S
H1223 C1181 0.930 . S
H1224 C1183 0.929 . S
H1225 C1184 0.930 . S
H1226 C1185 0.930 . S
H1227 C1186 0.930 . S
H1228 C1190 0.929 . S
H1229 C1192 0.930 . S
H1230 C1198 0.929 . S
H1231 C1199 0.930 . S
Li1232 N1249 1.990 . S
Li1232 O1292 1.956 . S
Li1232 O1293 1.970 . S
Li1232 O1294 1.961 . S
Li1233 N1257 1.990 . S
Li1233 O1292 1.970 . S
Li1233 O1293 1.956 . S
Li1233 O1295 1.961 . S
Li1234 N1279 1.990 . S
Li1234 O1292 1.961 . S
Li1234 O1294 1.956 . S
Li1234 O1295 1.970 . S
Li1235 N1285 1.990 . S
Li1235 O1293 1.961 . S
Li1235 O1294 1.970 . S
Li1235 O1295 1.956 . S
C1236 C1238 1.348 . S
C1236 C1239 1.356 . S
C1236 O1292 1.325 . S
N1237 C1240 1.314 . S
N1237 C1241 1.279 . S
C1238 C1236 1.348 . S
C1238 C1240 1.353 . S
C1238 H1296 0.929 . S
C1239 C1236 1.356 . S
C1239 C1241 1.358 . S
C1239 H1297 0.930 . S
C1240 N1237 1.314 . S
C1240 C1238 1.353 . S
C1240 H1298 0.930 . S
C1241 N1237 1.279 . S
C1241 C1239 1.358 . S
C1241 H1299 0.930 . S
C1242 C1245 1.348 . S
C1242 C1246 1.356 . S
C1242 O1293 1.325 . S
C1243 N1244 1.279 . S
C1243 C1246 1.358 . S
C1243 H1300 0.930 . S
N1244 C1243 1.279 . S
N1244 C1247 1.314 . S
C1245 C1242 1.348 . S
C1245 C1247 1.353 . S
C1245 H1301 0.929 . S
C1246 C1242 1.356 . S
C1246 C1243 1.358 . S
C1246 H1302 0.930 . S
C1247 N1244 1.314 . S
C1247 C1245 1.353 . S
C1247 H1303 0.930 . S
C1248 N1249 1.314 . S
C1248 C1253 1.353 . S
C1248 H1254 0.930 . S
N1249 Li1232 1.990 . S
N1249 C1248 1.314 . S
N1249 C1251 1.279 . S
C1250 C1251 1.358 . S
C1250 C1252 1.356 . S
C1250 H1304 0.930 . S
C1251 N1249 1.279 . S
C1251 C1250 1.358 . S
C1251 H1255 0.930 . S
C1252 C1250 1.356 . S
C1252 C1253 1.348 . S
C1253 C1248 1.353 . S
C1253 C1252 1.348 . S
C1253 H1305 0.929 . S
H1254 C1248 0.930 . S
H1255 C1251 0.930 . S
C1256 N1257 1.314 . S
C1256 C1258 1.353 . S
C1256 H1262 0.930 . S
N1257 Li1233 1.990 . S
N1257 C1256 1.314 . S
N1257 C1260 1.279 . S
C1258 C1256 1.353 . S
C1258 C1261 1.348 . S
C1258 H1306 0.929 . S
C1259 C1260 1.358 . S
C1259 C1261 1.356 . S
C1259 H1307 0.930 . S
C1260 N1257 1.279 . S
C1260 C1259 1.358 . S
C1260 H1263 0.930 . S
C1261 C1258 1.348 . S
C1261 C1259 1.356 . S
H1262 C1256 0.930 . S
H1263 C1260 0.930 . S
C1264 C1266 1.348 . S
C1264 C1267 1.356 . S
C1264 O1294 1.325 . S
N1265 C1268 1.314 . S
N1265 C1269 1.279 . S
C1266 C1264 1.348 . S
C1266 C1268 1.353 . S
C1266 H1308 0.929 . S
C1267 C1264 1.356 . S
C1267 C1269 1.358 . S
C1267 H1309 0.930 . S
C1268 N1265 1.314 . S
C1268 C1266 1.353 . S
C1268 H1310 0.930 . S
C1269 N1265 1.279 . S
C1269 C1267 1.358 . S
C1269 H1311 0.930 . S
C1270 C1271 1.348 . S
C1270 C1272 1.356 . S
C1270 O1295 1.325 . S
C1271 C1270 1.348 . S
C1271 C1273 1.353 . S
C1271 H1312 0.929 . S
C1272 C1270 1.356 . S
C1272 C1274 1.358 . S
C1272 H1313 0.930 . S
C1273 C1271 1.353 . S
C1273 N1275 1.314 . S
C1273 H1314 0.930 . S
C1274 C1272 1.358 . S
C1274 N1275 1.279 . S
C1274 H1315 0.930 . S
N1275 C1273 1.314 . S
N1275 C1274 1.279 . S
C1276 C1278 1.353 . S
C1276 N1279 1.314 . S
C1276 H1282 0.930 . S
C1277 N1279 1.279 . S
C1277 C1280 1.358 . S
C1277 H1283 0.930 . S
C1278 C1276 1.353 . S
C1278 C1281 1.348 . S
C1278 H1316 0.929 . S
N1279 Li1234 1.990 . S
N1279 C1276 1.314 . S
N1279 C1277 1.279 . S
C1280 C1277 1.358 . S
C1280 C1281 1.356 . S
C1280 H1317 0.930 . S
C1281 C1278 1.348 . S
C1281 C1280 1.356 . S
H1282 C1276 0.930 . S
H1283 C1277 0.930 . S
C1284 N1285 1.314 . S
C1284 C1286 1.353 . S
C1284 H1290 0.930 . S
N1285 Li1235 1.990 . S
N1285 C1284 1.314 . S
N1285 C1288 1.279 . S
C1286 C1284 1.353 . S
C1286 C1289 1.348 . S
C1286 H1318 0.929 . S
C1287 C1288 1.358 . S
C1287 C1289 1.356 . S
C1287 H1319 0.930 . S
C1288 N1285 1.279 . S
C1288 C1287 1.358 . S
C1288 H1291 0.930 . S
C1289 C1286 1.348 . S
C1289 C1287 1.356 . S
H1290 C1284 0.930 . S
H1291 C1288 0.930 . S
O1292 Li1232 1.956 . S
O1292 Li1233 1.970 . S
O1292 Li1234 1.961 . S
O1292 C1236 1.325 . S
O1293 Li1232 1.970 . S
O1293 Li1233 1.956 . S
O1293 Li1235 1.961 . S
O1293 C1242 1.325 . S
O1294 Li1232 1.961 . S
O1294 Li1234 1.956 . S
O1294 Li1235 1.970 . S
O1294 C1264 1.325 . S
O1295 Li1233 1.961 . S
O1295 Li1234 1.970 . S
O1295 Li1235 1.956 . S
O1295 C1270 1.325 . S
H1296 C1238 0.929 . S
H1297 C1239 0.930 . S
H1298 C1240 0.930 . S
H1299 C1241 0.930 . S
H1300 C1243 0.930 . S
H1301 C1245 0.929 . S
H1302 C1246 0.930 . S
H1303 C1247 0.930 . S
H1304 C1250 0.930 . S
H1305 C1253 0.929 . S
H1306 C1258 0.929 . S
H1307 C1259 0.930 . S
H1308 C1266 0.929 . S
H1309 C1267 0.930 . S
H1310 C1268 0.930 . S
H1311 C1269 0.930 . S
H1312 C1271 0.929 . S
H1313 C1272 0.930 . S
H1314 C1273 0.930 . S
H1315 C1274 0.930 . S
H1316 C1278 0.929 . S
H1317 C1280 0.930 . S
H1318 C1286 0.929 . S
H1319 C1287 0.930 . S
Li1320 N1337 1.990 . S
Li1320 O1380 1.956 . S
Li1320 O1381 1.970 . S
Li1320 O1382 1.961 . S
Li1321 N1345 1.990 . S
Li1321 O1380 1.970 . S
Li1321 O1381 1.956 . S
Li1321 O1383 1.961 . S
Li1322 N1367 1.990 . S
Li1322 O1380 1.961 . S
Li1322 O1382 1.956 . S
Li1322 O1383 1.970 . S
Li1323 N1373 1.990 . S
Li1323 O1381 1.961 . S
Li1323 O1382 1.970 . S
Li1323 O1383 1.956 . S
C1324 C1326 1.348 . S
C1324 C1327 1.356 . S
C1324 O1380 1.325 . S
N1325 C1328 1.314 . S
N1325 C1329 1.279 . S
C1326 C1324 1.348 . S
C1326 C1328 1.353 . S
C1326 H1384 0.929 . S
C1327 C1324 1.356 . S
C1327 C1329 1.358 . S
C1327 H1385 0.930 . S
C1328 N1325 1.314 . S
C1328 C1326 1.353 . S
C1328 H1386 0.930 . S
C1329 N1325 1.279 . S
C1329 C1327 1.358 . S
C1329 H1387 0.930 . S
C1330 C1333 1.348 . S
C1330 C1334 1.356 . S
C1330 O1381 1.325 . S
C1331 N1332 1.279 . S
C1331 C1334 1.358 . S
C1331 H1388 0.930 . S
N1332 C1331 1.279 . S
N1332 C1335 1.314 . S
C1333 C1330 1.348 . S
C1333 C1335 1.353 . S
C1333 H1389 0.929 . S
C1334 C1330 1.356 . S
C1334 C1331 1.358 . S
C1334 H1390 0.930 . S
C1335 N1332 1.314 . S
C1335 C1333 1.353 . S
C1335 H1391 0.930 . S
C1336 N1337 1.314 . S
C1336 C1341 1.353 . S
C1336 H1342 0.930 . S
N1337 Li1320 1.990 . S
N1337 C1336 1.314 . S
N1337 C1339 1.279 . S
C1338 C1339 1.358 . S
C1338 C1340 1.356 . S
C1338 H1392 0.930 . S
C1339 N1337 1.279 . S
C1339 C1338 1.358 . S
C1339 H1343 0.930 . S
C1340 C1338 1.356 . S
C1340 C1341 1.348 . S
C1341 C1336 1.353 . S
C1341 C1340 1.348 . S
C1341 H1393 0.929 . S
H1342 C1336 0.930 . S
H1343 C1339 0.930 . S
C1344 N1345 1.314 . S
C1344 C1346 1.353 . S
C1344 H1350 0.930 . S
N1345 Li1321 1.990 . S
N1345 C1344 1.314 . S
N1345 C1348 1.279 . S
C1346 C1344 1.353 . S
C1346 C1349 1.348 . S
C1346 H1394 0.929 . S
C1347 C1348 1.358 . S
C1347 C1349 1.356 . S
C1347 H1395 0.930 . S
C1348 N1345 1.279 . S
C1348 C1347 1.358 . S
C1348 H1351 0.930 . S
C1349 C1346 1.348 . S
C1349 C1347 1.356 . S
H1350 C1344 0.930 . S
H1351 C1348 0.930 . S
C1352 C1354 1.348 . S
C1352 C1355 1.356 . S
C1352 O1382 1.325 . S
N1353 C1356 1.314 . S
N1353 C1357 1.279 . S
C1354 C1352 1.348 . S
C1354 C1356 1.353 . S
C1354 H1396 0.929 . S
C1355 C1352 1.356 . S
C1355 C1357 1.358 . S
C1355 H1397 0.930 . S
C1356 N1353 1.314 . S
C1356 C1354 1.353 . S
C1356 H1398 0.930 . S
C1357 N1353 1.279 . S
C1357 C1355 1.358 . S
C1357 H1399 0.930 . S
C1358 C1359 1.348 . S
C1358 C1360 1.356 . S
C1358 O1383 1.325 . S
C1359 C1358 1.348 . S
C1359 C1361 1.353 . S
C1359 H1400 0.929 . S
C1360 C1358 1.356 . S
C1360 C1362 1.358 . S
C1360 H1401 0.930 . S
C1361 C1359 1.353 . S
C1361 N1363 1.314 . S
C1361 H1402 0.930 . S
C1362 C1360 1.358 . S
C1362 N1363 1.279 . S
C1362 H1403 0.930 . S
N1363 C1361 1.314 . S
N1363 C1362 1.279 . S
C1364 C1366 1.353 . S
C1364 N1367 1.314 . S
C1364 H1370 0.930 . S
C1365 N1367 1.279 . S
C1365 C1368 1.358 . S
C1365 H1371 0.930 . S
C1366 C1364 1.353 . S
C1366 C1369 1.348 . S
C1366 H1404 0.929 . S
N1367 Li1322 1.990 . S
N1367 C1364 1.314 . S
N1367 C1365 1.279 . S
C1368 C1365 1.358 . S
C1368 C1369 1.356 . S
C1368 H1405 0.930 . S
C1369 C1366 1.348 . S
C1369 C1368 1.356 . S
H1370 C1364 0.930 . S
H1371 C1365 0.930 . S
C1372 N1373 1.314 . S
C1372 C1374 1.353 . S
C1372 H1378 0.930 . S
N1373 Li1323 1.990 . S
N1373 C1372 1.314 . S
N1373 C1376 1.279 . S
C1374 C1372 1.353 . S
C1374 C1377 1.348 . S
C1374 H1406 0.929 . S
C1375 C1376 1.358 . S
C1375 C1377 1.356 . S
C1375 H1407 0.930 . S
C1376 N1373 1.279 . S
C1376 C1375 1.358 . S
C1376 H1379 0.930 . S
C1377 C1374 1.348 . S
C1377 C1375 1.356 . S
H1378 C1372 0.930 . S
H1379 C1376 0.930 . S
O1380 Li1320 1.956 . S
O1380 Li1321 1.970 . S
O1380 Li1322 1.961 . S
O1380 C1324 1.325 . S
O1381 Li1320 1.970 . S
O1381 Li1321 1.956 . S
O1381 Li1323 1.961 . S
O1381 C1330 1.325 . S
O1382 Li1320 1.961 . S
O1382 Li1322 1.956 . S
O1382 Li1323 1.970 . S
O1382 C1352 1.325 . S
O1383 Li1321 1.961 . S
O1383 Li1322 1.970 . S
O1383 Li1323 1.956 . S
O1383 C1358 1.325 . S
H1384 C1326 0.929 . S
H1385 C1327 0.930 . S
H1386 C1328 0.930 . S
H1387 C1329 0.930 . S
H1388 C1331 0.930 . S
H1389 C1333 0.929 . S
H1390 C1334 0.930 . S
H1391 C1335 0.930 . S
H1392 C1338 0.930 . S
H1393 C1341 0.929 . S
H1394 C1346 0.929 . S
H1395 C1347 0.930 . S
H1396 C1354 0.929 . S
H1397 C1355 0.930 . S
H1398 C1356 0.930 . S
H1399 C1357 0.930 . S
H1400 C1359 0.929 . S
H1401 C1360 0.930 . S
H1402 C1361 0.930 . S
H1403 C1362 0.930 . S
H1404 C1366 0.929 . S
H1405 C1368 0.930 . S
H1406 C1374 0.929 . S
H1407 C1375 0.930 . S
H1408 C1414 0.930 . S
H1409 C1418 0.930 . S
H1410 C1423 0.929 . S
H1411 C1421 0.929 . S
H1412 C1416 0.929 . S
H1413 C1422 0.929 . S
C1414 H1408 0.930 . S
C1414 C1415 1.367 . S
C1414 C1422 1.378 . S
C1415 C1414 1.367 . S
C1415 C1423 1.433 . S
C1416 H1412 0.929 . S
C1416 C1418 1.378 . S
C1416 C1420 1.350 . S
C1417 C1420 1.463 . S
C1417 C1422 1.350 . S
C1417 N1425 1.427 . S
C1418 H1409 0.930 . S
C1418 C1416 1.378 . S
C1418 C1419 1.367 . S
C1419 C1418 1.367 . S
C1419 C1421 1.433 . S
C1420 C1416 1.350 . S
C1420 C1417 1.463 . S
C1420 N1424 1.427 . S
C1421 H1411 0.929 . S
C1421 C1419 1.433 . S
C1421 N1424 1.384 . S
C1422 H1413 0.929 . S
C1422 C1414 1.378 . S
C1422 C1417 1.350 . S
C1423 H1410 0.929 . S
C1423 C1415 1.433 . S
C1423 N1425 1.384 . S
N1424 C1420 1.427 . S
N1424 C1421 1.384 . S
N1425 C1417 1.427 . S
N1425 C1423 1.384 . S
H1426 C1432 0.930 . S
H1427 C1436 0.930 . S
H1428 C1441 0.929 . S
H1429 C1439 0.929 . S
H1430 C1434 0.929 . S
H1431 C1440 0.929 . S
C1432 H1426 0.930 . S
C1432 C1433 1.367 . S
C1432 C1440 1.378 . S
C1433 C1432 1.367 . S
C1433 C1441 1.433 . S
C1434 H1430 0.929 . S
C1434 C1436 1.378 . S
C1434 C1438 1.350 . S
C1435 C1438 1.463 . S
C1435 C1440 1.350 . S
C1435 N1443 1.427 . S
C1436 H1427 0.930 . S
C1436 C1434 1.378 . S
C1436 C1437 1.367 . S
C1437 C1436 1.367 . S
C1437 C1439 1.433 . S
C1438 C1434 1.350 . S
C1438 C1435 1.463 . S
C1438 N1442 1.427 . S
C1439 H1429 0.929 . S
C1439 C1437 1.433 . S
C1439 N1442 1.384 . S
C1440 H1431 0.929 . S
C1440 C1432 1.378 . S
C1440 C1435 1.350 . S
C1441 H1428 0.929 . S
C1441 C1433 1.433 . S
C1441 N1443 1.384 . S
N1442 C1438 1.427 . S
N1442 C1439 1.384 . S
N1443 C1435 1.427 . S
N1443 C1441 1.384 . S
H1444 C1450 0.930 . S
H1445 C1454 0.930 . S
H1446 C1459 0.929 . S
H1447 C1457 0.929 . S
H1448 C1452 0.929 . S
H1449 C1458 0.929 . S
C1450 H1444 0.930 . S
C1450 C1451 1.367 . S
C1450 C1458 1.378 . S
C1451 C1450 1.367 . S
C1451 C1459 1.433 . S
C1452 H1448 0.929 . S
C1452 C1454 1.378 . S
C1452 C1456 1.350 . S
C1453 C1456 1.463 . S
C1453 C1458 1.350 . S
C1453 N1461 1.427 . S
C1454 H1445 0.930 . S
C1454 C1452 1.378 . S
C1454 C1455 1.367 . S
C1455 C1454 1.367 . S
C1455 C1457 1.433 . S
C1456 C1452 1.350 . S
C1456 C1453 1.463 . S
C1456 N1460 1.427 . S
C1457 H1447 0.929 . S
C1457 C1455 1.433 . S
C1457 N1460 1.384 . S
C1458 H1449 0.929 . S
C1458 C1450 1.378 . S
C1458 C1453 1.350 . S
C1459 H1446 0.929 . S
C1459 C1451 1.433 . S
C1459 N1461 1.384 . S
N1460 C1456 1.427 . S
N1460 C1457 1.384 . S
N1461 C1453 1.427 . S
N1461 C1459 1.384 . S
H1462 C1468 0.930 . S
H1463 C1472 0.930 . S
H1464 C1477 0.929 . S
H1465 C1475 0.929 . S
H1466 C1470 0.929 . S
H1467 C1476 0.929 . S
C1468 H1462 0.930 . S
C1468 C1469 1.367 . S
C1468 C1476 1.378 . S
C1469 C1468 1.367 . S
C1469 C1477 1.433 . S
C1470 H1466 0.929 . S
C1470 C1472 1.378 . S
C1470 C1474 1.350 . S
C1471 C1474 1.463 . S
C1471 C1476 1.350 . S
C1471 N1479 1.427 . S
C1472 H1463 0.930 . S
C1472 C1470 1.378 . S
C1472 C1473 1.367 . S
C1473 C1472 1.367 . S
C1473 C1475 1.433 . S
C1474 C1470 1.350 . S
C1474 C1471 1.463 . S
C1474 N1478 1.427 . S
C1475 H1465 0.929 . S
C1475 C1473 1.433 . S
C1475 N1478 1.384 . S
C1476 H1467 0.929 . S
C1476 C1468 1.378 . S
C1476 C1471 1.350 . S
C1477 H1464 0.929 . S
C1477 C1469 1.433 . S
C1477 N1479 1.384 . S
N1478 C1474 1.427 . S
N1478 C1475 1.384 . S
N1479 C1471 1.427 . S
N1479 C1477 1.384 . S
H1480 C1486 0.930 . S
H1481 C1490 0.930 . S
H1482 C1495 0.929 . S
H1483 C1493 0.929 . S
H1484 C1488 0.929 . S
H1485 C1494 0.929 . S
C1486 H1480 0.930 . S
C1486 C1487 1.367 . S
C1486 C1494 1.378 . S
C1487 C1486 1.367 . S
C1487 C1495 1.433 . S
C1488 H1484 0.929 . S
C1488 C1490 1.378 . S
C1488 C1492 1.350 . S
C1489 C1492 1.463 . S
C1489 C1494 1.350 . S
C1489 N1497 1.427 . S
C1490 H1481 0.930 . S
C1490 C1488 1.378 . S
C1490 C1491 1.367 . S
C1491 C1490 1.367 . S
C1491 C1493 1.433 . S
C1492 C1488 1.350 . S
C1492 C1489 1.463 . S
C1492 N1496 1.427 . S
C1493 H1483 0.929 . S
C1493 C1491 1.433 . S
C1493 N1496 1.384 . S
C1494 H1485 0.929 . S
C1494 C1486 1.378 . S
C1494 C1489 1.350 . S
C1495 H1482 0.929 . S
C1495 C1487 1.433 . S
C1495 N1497 1.384 . S
N1496 C1492 1.427 . S
N1496 C1493 1.384 . S
N1497 C1489 1.427 . S
N1497 C1495 1.384 . S
H1498 C1504 0.930 . S
H1499 C1508 0.930 . S
H1500 C1513 0.929 . S
H1501 C1511 0.929 . S
H1502 C1506 0.929 . S
H1503 C1512 0.929 . S
C1504 H1498 0.930 . S
C1504 C1505 1.367 . S
C1504 C1512 1.378 . S
C1505 C1504 1.367 . S
C1505 C1513 1.433 . S
C1506 H1502 0.929 . S
C1506 C1508 1.378 . S
C1506 C1510 1.350 . S
C1507 C1510 1.463 . S
C1507 C1512 1.350 . S
C1507 N1515 1.427 . S
C1508 H1499 0.930 . S
C1508 C1506 1.378 . S
C1508 C1509 1.367 . S
C1509 C1508 1.367 . S
C1509 C1511 1.433 . S
C1510 C1506 1.350 . S
C1510 C1507 1.463 . S
C1510 N1514 1.427 . S
C1511 H1501 0.929 . S
C1511 C1509 1.433 . S
C1511 N1514 1.384 . S
C1512 H1503 0.929 . S
C1512 C1504 1.378 . S
C1512 C1507 1.350 . S
C1513 H1500 0.929 . S
C1513 C1505 1.433 . S
C1513 N1515 1.384 . S
N1514 C1510 1.427 . S
N1514 C1511 1.384 . S
N1515 C1507 1.427 . S
N1515 C1513 1.384 . S
H1516 C1522 0.930 . S
H1517 C1526 0.930 . S
H1518 C1531 0.929 . S
H1519 C1529 0.929 . S
H1520 C1524 0.929 . S
H1521 C1530 0.929 . S
C1522 H1516 0.930 . S
C1522 C1523 1.367 . S
C1522 C1530 1.378 . S
C1523 C1522 1.367 . S
C1523 C1531 1.433 . S
C1524 H1520 0.929 . S
C1524 C1526 1.378 . S
C1524 C1528 1.350 . S
C1525 C1528 1.463 . S
C1525 C1530 1.350 . S
C1525 N1533 1.427 . S
C1526 H1517 0.930 . S
C1526 C1524 1.378 . S
C1526 C1527 1.367 . S
C1527 C1526 1.367 . S
C1527 C1529 1.433 . S
C1528 C1524 1.350 . S
C1528 C1525 1.463 . S
C1528 N1532 1.427 . S
C1529 H1519 0.929 . S
C1529 C1527 1.433 . S
C1529 N1532 1.384 . S
C1530 H1521 0.929 . S
C1530 C1522 1.378 . S
C1530 C1525 1.350 . S
C1531 H1518 0.929 . S
C1531 C1523 1.433 . S
C1531 N1533 1.384 . S
N1532 C1528 1.427 . S
N1532 C1529 1.384 . S
N1533 C1525 1.427 . S
N1533 C1531 1.384 . S
H1534 C1540 0.930 . S
H1535 C1544 0.930 . S
H1536 C1549 0.929 . S
H1537 C1547 0.929 . S
H1538 C1542 0.929 . S
H1539 C1548 0.929 . S
C1540 H1534 0.930 . S
C1540 C1541 1.367 . S
C1540 C1548 1.378 . S
C1541 C1540 1.367 . S
C1541 C1549 1.433 . S
C1542 H1538 0.929 . S
C1542 C1544 1.378 . S
C1542 C1546 1.350 . S
C1543 C1546 1.463 . S
C1543 C1548 1.350 . S
C1543 N1551 1.427 . S
C1544 H1535 0.930 . S
C1544 C1542 1.378 . S
C1544 C1545 1.367 . S
C1545 C1544 1.367 . S
C1545 C1547 1.433 . S
C1546 C1542 1.350 . S
C1546 C1543 1.463 . S
C1546 N1550 1.427 . S
C1547 H1537 0.929 . S
C1547 C1545 1.433 . S
C1547 N1550 1.384 . S
C1548 H1539 0.929 . S
C1548 C1540 1.378 . S
C1548 C1543 1.350 . S
C1549 H1536 0.929 . S
C1549 C1541 1.433 . S
C1549 N1551 1.384 . S
N1550 C1546 1.427 . S
N1550 C1547 1.384 . S
N1551 C1543 1.427 . S
N1551 C1549 1.384 . S
H1552 C1558 0.930 . S
H1553 C1562 0.930 . S
H1554 C1567 0.929 . S
H1555 C1565 0.929 . S
H1556 C1560 0.929 . S
H1557 C1566 0.929 . S
C1558 H1552 0.930 . S
C1558 C1559 1.367 . S
C1558 C1566 1.378 . S
C1559 C1558 1.367 . S
C1559 C1567 1.433 . S
C1560 H1556 0.929 . S
C1560 C1562 1.378 . S
C1560 C1564 1.350 . S
C1561 C1564 1.463 . S
C1561 C1566 1.350 . S
C1561 N1569 1.427 . S
C1562 H1553 0.930 . S
C1562 C1560 1.378 . S
C1562 C1563 1.367 . S
C1563 C1562 1.367 . S
C1563 C1565 1.433 . S
C1564 C1560 1.350 . S
C1564 C1561 1.463 . S
C1564 N1568 1.427 . S
C1565 H1555 0.929 . S
C1565 C1563 1.433 . S
C1565 N1568 1.384 . S
C1566 H1557 0.929 . S
C1566 C1558 1.378 . S
C1566 C1561 1.350 . S
C1567 H1554 0.929 . S
C1567 C1559 1.433 . S
C1567 N1569 1.384 . S
N1568 C1564 1.427 . S
N1568 C1565 1.384 . S
N1569 C1561 1.427 . S
N1569 C1567 1.384 . S
H1570 C1576 0.930 . S
H1571 C1580 0.930 . S
H1572 C1585 0.929 . S
H1573 C1583 0.929 . S
H1574 C1578 0.929 . S
H1575 C1584 0.929 . S
C1576 H1570 0.930 . S
C1576 C1577 1.367 . S
C1576 C1584 1.378 . S
C1577 C1576 1.367 . S
C1577 C1585 1.433 . S
C1578 H1574 0.929 . S
C1578 C1580 1.378 . S
C1578 C1582 1.350 . S
C1579 C1582 1.463 . S
C1579 C1584 1.350 . S
C1579 N1587 1.427 . S
C1580 H1571 0.930 . S
C1580 C1578 1.378 . S
C1580 C1581 1.367 . S
C1581 C1580 1.367 . S
C1581 C1583 1.433 . S
C1582 C1578 1.350 . S
C1582 C1579 1.463 . S
C1582 N1586 1.427 . S
C1583 H1573 0.929 . S
C1583 C1581 1.433 . S
C1583 N1586 1.384 . S
C1584 H1575 0.929 . S
C1584 C1576 1.378 . S
C1584 C1579 1.350 . S
C1585 H1572 0.929 . S
C1585 C1577 1.433 . S
C1585 N1587 1.384 . S
N1586 C1582 1.427 . S
N1586 C1583 1.384 . S
N1587 C1579 1.427 . S
N1587 C1585 1.384 . S
H1588 C1594 0.930 . S
H1589 C1598 0.930 . S
H1590 C1603 0.929 . S
H1591 C1601 0.929 . S
H1592 C1596 0.929 . S
H1593 C1602 0.929 . S
C1594 H1588 0.930 . S
C1594 C1595 1.367 . S
C1594 C1602 1.378 . S
C1595 C1594 1.367 . S
C1595 C1603 1.433 . S
C1596 H1592 0.929 . S
C1596 C1598 1.378 . S
C1596 C1600 1.350 . S
C1597 C1600 1.463 . S
C1597 C1602 1.350 . S
C1597 N1605 1.427 . S
C1598 H1589 0.930 . S
C1598 C1596 1.378 . S
C1598 C1599 1.367 . S
C1599 C1598 1.367 . S
C1599 C1601 1.433 . S
C1600 C1596 1.350 . S
C1600 C1597 1.463 . S
C1600 N1604 1.427 . S
C1601 H1591 0.929 . S
C1601 C1599 1.433 . S
C1601 N1604 1.384 . S
C1602 H1593 0.929 . S
C1602 C1594 1.378 . S
C1602 C1597 1.350 . S
C1603 H1590 0.929 . S
C1603 C1595 1.433 . S
C1603 N1605 1.384 . S
N1604 C1600 1.427 . S
N1604 C1601 1.384 . S
N1605 C1597 1.427 . S
N1605 C1603 1.384 . S
H1606 C1612 0.930 . S
H1607 C1616 0.930 . S
H1608 C1621 0.929 . S
H1609 C1619 0.929 . S
H1610 C1614 0.929 . S
H1611 C1620 0.929 . S
C1612 H1606 0.930 . S
C1612 C1613 1.367 . S
C1612 C1620 1.378 . S
C1613 C1612 1.367 . S
C1613 C1621 1.433 . S
C1614 H1610 0.929 . S
C1614 C1616 1.378 . S
C1614 C1618 1.350 . S
C1615 C1618 1.463 1_554 S
C1615 C1620 1.350 . S
C1615 N1623 1.427 . S
C1616 H1607 0.930 . S
C1616 C1614 1.378 . S
C1616 C1617 1.367 . S
C1617 C1616 1.367 . S
C1617 C1619 1.433 . S
C1618 C1614 1.350 . S
C1618 C1615 1.463 1_556 S
C1618 N1622 1.427 . S
C1619 H1609 0.929 . S
C1619 C1617 1.433 . S
C1619 N1622 1.384 . S
C1620 H1611 0.929 . S
C1620 C1612 1.378 . S
C1620 C1615 1.350 . S
C1621 H1608 0.929 . S
C1621 C1613 1.433 . S
C1621 N1623 1.384 . S
N1622 C1618 1.427 . S
N1622 C1619 1.384 . S
N1623 C1615 1.427 . S
N1623 C1621 1.384 . S
H1624 C1630 0.930 . S
H1625 C1634 0.930 . S
H1626 C1639 0.929 . S
H1627 C1637 0.929 . S
H1628 C1632 0.929 . S
H1629 C1638 0.929 . S
C1630 H1624 0.930 . S
C1630 C1631 1.367 . S
C1630 C1638 1.378 . S
C1631 C1630 1.367 . S
C1631 C1639 1.433 . S
C1632 H1628 0.929 . S
C1632 C1634 1.378 . S
C1632 C1636 1.350 . S
C1633 C1636 1.463 1_554 S
C1633 C1638 1.350 . S
C1633 N1641 1.427 . S
C1634 H1625 0.930 . S
C1634 C1632 1.378 . S
C1634 C1635 1.367 . S
C1635 C1634 1.367 . S
C1635 C1637 1.433 . S
C1636 C1632 1.350 . S
C1636 C1633 1.463 1_556 S
C1636 N1640 1.427 . S
C1637 H1627 0.929 . S
C1637 C1635 1.433 . S
C1637 N1640 1.384 . S
C1638 H1629 0.929 . S
C1638 C1630 1.378 . S
C1638 C1633 1.350 . S
C1639 H1626 0.929 . S
C1639 C1631 1.433 . S
C1639 N1641 1.384 . S
N1640 C1636 1.427 . S
N1640 C1637 1.384 . S
N1641 C1633 1.427 . S
N1641 C1639 1.384 . S
H1642 C1648 0.930 . S
H1643 C1652 0.930 . S
H1644 C1657 0.929 . S
H1645 C1655 0.929 . S
H1646 C1650 0.929 . S
H1647 C1656 0.929 . S
C1648 H1642 0.930 . S
C1648 C1649 1.367 . S
C1648 C1656 1.378 . S
C1649 C1648 1.367 . S
C1649 C1657 1.433 . S
C1650 H1646 0.929 . S
C1650 C1652 1.378 . S
C1650 C1654 1.350 . S
C1651 C1654 1.463 . S
C1651 C1656 1.350 . S
C1651 N1659 1.427 . S
C1652 H1643 0.930 . S
C1652 C1650 1.378 . S
C1652 C1653 1.367 . S
C1653 C1652 1.367 . S
C1653 C1655 1.433 . S
C1654 C1650 1.350 . S
C1654 C1651 1.463 . S
C1654 N1658 1.427 . S
C1655 H1645 0.929 . S
C1655 C1653 1.433 . S
C1655 N1658 1.384 . S
C1656 H1647 0.929 . S
C1656 C1648 1.378 . S
C1656 C1651 1.350 . S
C1657 H1644 0.929 . S
C1657 C1649 1.433 . S
C1657 N1659 1.384 . S
N1658 C1654 1.427 . S
N1658 C1655 1.384 . S
N1659 C1651 1.427 . S
N1659 C1657 1.384 . S
H1660 C1666 0.930 . S
H1661 C1670 0.930 . S
H1662 C1675 0.929 . S
H1663 C1673 0.929 . S
H1664 C1668 0.929 . S
H1665 C1674 0.929 . S
C1666 H1660 0.930 . S
C1666 C1667 1.367 . S
C1666 C1674 1.378 . S
C1667 C1666 1.367 . S
C1667 C1675 1.433 . S
C1668 H1664 0.929 . S
C1668 C1670 1.378 . S
C1668 C1672 1.350 . S
C1669 C1672 1.463 . S
C1669 C1674 1.350 . S
C1669 N1677 1.427 . S
C1670 H1661 0.930 . S
C1670 C1668 1.378 . S
C1670 C1671 1.367 . S
C1671 C1670 1.367 . S
C1671 C1673 1.433 . S
C1672 C1668 1.350 . S
C1672 C1669 1.463 . S
C1672 N1676 1.427 . S
C1673 H1663 0.929 . S
C1673 C1671 1.433 . S
C1673 N1676 1.384 . S
C1674 H1665 0.929 . S
C1674 C1666 1.378 . S
C1674 C1669 1.350 . S
C1675 H1662 0.929 . S
C1675 C1667 1.433 . S
C1675 N1677 1.384 . S
N1676 C1672 1.427 . S
N1676 C1673 1.384 . S
N1677 C1669 1.427 . S
N1677 C1675 1.384 . S
H1678 C1684 0.930 . S
H1679 C1688 0.930 . S
H1680 C1693 0.929 . S
H1681 C1691 0.929 . S
H1682 C1686 0.929 . S
H1683 C1692 0.929 . S
C1684 H1678 0.930 . S
C1684 C1685 1.367 . S
C1684 C1692 1.378 . S
C1685 C1684 1.367 . S
C1685 C1693 1.433 . S
C1686 H1682 0.929 . S
C1686 C1688 1.378 . S
C1686 C1690 1.350 . S
C1687 C1690 1.463 . S
C1687 C1692 1.350 . S
C1687 N1695 1.427 . S
C1688 H1679 0.930 . S
C1688 C1686 1.378 . S
C1688 C1689 1.367 . S
C1689 C1688 1.367 . S
C1689 C1691 1.433 . S
C1690 C1686 1.350 . S
C1690 C1687 1.463 . S
C1690 N1694 1.427 . S
C1691 H1681 0.929 . S
C1691 C1689 1.433 . S
C1691 N1694 1.384 . S
C1692 H1683 0.929 . S
C1692 C1684 1.378 . S
C1692 C1687 1.350 . S
C1693 H1680 0.929 . S
C1693 C1685 1.433 . S
C1693 N1695 1.384 . S
N1694 C1690 1.427 . S
N1694 C1691 1.384 . S
N1695 C1687 1.427 . S
N1695 C1693 1.384 . S
H1696 C1702 0.930 . S
H1697 C1706 0.930 . S
H1698 C1711 0.935 . S
H1699 C1709 0.935 . S
H1700 C1704 0.929 . S
H1701 C1710 0.929 . S
C1702 H1696 0.930 . S
C1702 C1703 1.367 . S
C1702 C1710 1.378 . S
C1703 C1702 1.367 . S
C1703 C1711 1.423 1_545 S
C1704 H1700 0.929 . S
C1704 C1706 1.378 . S
C1704 C1708 1.350 . S
C1705 C1708 1.463 1_445 S
C1705 C1710 1.350 . S
C1705 N1713 1.427 1_545 S
C1706 H1697 0.930 . S
C1706 C1704 1.378 . S
C1706 C1707 1.367 . S
C1707 C1706 1.367 . S
C1707 C1709 1.423 1_565 S
C1708 C1704 1.350 . S
C1708 C1705 1.463 1_665 S
C1708 N1712 1.427 1_565 S
C1709 H1699 0.935 . S
C1709 C1707 1.423 1_545 S
C1709 N1712 1.388 . S
C1710 H1701 0.929 . S
C1710 C1702 1.378 . S
C1710 C1705 1.350 . S
C1711 H1698 0.935 . S
C1711 C1703 1.423 1_565 S
C1711 N1713 1.388 . S
N1712 C1708 1.427 1_545 S
N1712 C1709 1.388 . S
N1713 C1705 1.427 1_565 S
N1713 C1711 1.388 . S
H1714 C1720 0.930 . S
H1715 C1724 0.930 . S
H1716 C1729 0.929 . S
H1717 C1727 0.929 . S
H1718 C1722 0.929 1_455 S
H1719 C1728 0.929 1_655 S
C1720 H1714 0.930 . S
C1720 C1721 1.367 . S
C1720 C1728 1.378 . S
C1721 C1720 1.367 . S
C1721 C1729 1.433 . S
C1722 H1718 0.929 1_655 S
C1722 C1724 1.378 . S
C1722 C1726 1.350 . S
C1723 C1726 1.463 1_455 S
C1723 C1728 1.350 . S
C1723 N1731 1.427 . S
C1724 H1715 0.930 . S
C1724 C1722 1.378 . S
C1724 C1725 1.367 . S
C1725 C1724 1.367 . S
C1725 C1727 1.433 . S
C1726 C1722 1.350 . S
C1726 C1723 1.463 1_655 S
C1726 N1730 1.427 . S
C1727 H1717 0.929 . S
C1727 C1725 1.433 . S
C1727 N1730 1.384 . S
C1728 H1719 0.929 1_455 S
C1728 C1720 1.378 . S
C1728 C1723 1.350 . S
C1729 H1716 0.929 . S
C1729 C1721 1.433 . S
C1729 N1731 1.384 . S
N1730 C1726 1.427 . S
N1730 C1727 1.384 . S
N1731 C1723 1.427 . S
N1731 C1729 1.384 . S
H1732 C1738 0.930 . S
H1733 C1742 0.930 . S
H1734 C1747 0.929 . S
H1735 C1745 0.929 . S
H1736 C1740 0.929 . S
H1737 C1746 0.929 . S
C1738 H1732 0.930 . S
C1738 C1739 1.367 . S
C1738 C1746 1.378 . S
C1739 C1738 1.367 . S
C1739 C1747 1.433 . S
C1740 H1736 0.929 . S
C1740 C1742 1.378 . S
C1740 C1744 1.350 . S
C1741 C1744 1.463 . S
C1741 C1746 1.350 . S
C1741 N1749 1.427 . S
C1742 H1733 0.930 . S
C1742 C1740 1.378 . S
C1742 C1743 1.367 . S
C1743 C1742 1.367 . S
C1743 C1745 1.433 . S
C1744 C1740 1.350 . S
C1744 C1741 1.463 . S
C1744 N1748 1.427 . S
C1745 H1735 0.929 . S
C1745 C1743 1.433 . S
C1745 N1748 1.384 . S
C1746 H1737 0.929 . S
C1746 C1738 1.378 . S
C1746 C1741 1.350 . S
C1747 H1734 0.929 . S
C1747 C1739 1.433 . S
C1747 N1749 1.384 . S
N1748 C1744 1.427 . S
N1748 C1745 1.384 . S
N1749 C1741 1.427 . S
N1749 C1747 1.384 . S
H1750 C1756 0.930 . S
H1751 C1760 0.930 . S
H1752 C1765 0.929 . S
H1753 C1763 0.929 . S
H1754 C1758 0.929 . S
H1755 C1764 0.929 . S
C1756 H1750 0.930 . S
C1756 C1757 1.367 . S
C1756 C1764 1.378 . S
C1757 C1756 1.367 . S
C1757 C1765 1.433 . S
C1758 H1754 0.929 . S
C1758 C1760 1.378 . S
C1758 C1762 1.350 . S
C1759 C1762 1.463 1_545 S
C1759 C1764 1.350 . S
C1759 N1767 1.427 . S
C1760 H1751 0.930 . S
C1760 C1758 1.378 . S
C1760 C1761 1.367 . S
C1761 C1760 1.367 . S
C1761 C1763 1.433 . S
C1762 C1758 1.350 . S
C1762 C1759 1.463 1_565 S
C1762 N1766 1.427 . S
C1763 H1753 0.929 . S
C1763 C1761 1.433 . S
C1763 N1766 1.384 . S
C1764 H1755 0.929 . S
C1764 C1756 1.378 . S
C1764 C1759 1.350 . S
C1765 H1752 0.929 . S
C1765 C1757 1.433 . S
C1765 N1767 1.384 . S
N1766 C1762 1.427 . S
N1766 C1763 1.384 . S
N1767 C1759 1.427 . S
N1767 C1765 1.384 . S
H1768 C1774 0.930 . S
H1769 C1778 0.930 . S
H1770 C1783 0.929 . S
H1771 C1781 0.929 . S
H1772 C1776 0.929 . S
H1773 C1782 0.929 . S
C1774 H1768 0.930 . S
C1774 C1775 1.367 . S
C1774 C1782 1.378 . S
C1775 C1774 1.367 . S
C1775 C1783 1.433 . S
C1776 H1772 0.929 . S
C1776 C1778 1.378 . S
C1776 C1780 1.350 . S
C1777 C1780 1.463 1_455 S
C1777 C1782 1.350 . S
C1777 N1785 1.427 . S
C1778 H1769 0.930 . S
C1778 C1776 1.378 . S
C1778 C1779 1.367 . S
C1779 C1778 1.367 . S
C1779 C1781 1.433 . S
C1780 C1776 1.350 . S
C1780 C1777 1.463 1_655 S
C1780 N1784 1.427 . S
C1781 H1771 0.929 . S
C1781 C1779 1.433 . S
C1781 N1784 1.384 . S
C1782 H1773 0.929 . S
C1782 C1774 1.378 . S
C1782 C1777 1.350 . S
C1783 H1770 0.929 . S
C1783 C1775 1.433 . S
C1783 N1785 1.384 . S
N1784 C1780 1.427 . S
N1784 C1781 1.384 . S
N1785 C1777 1.427 . S
N1785 C1783 1.384 . S
H1786 C1792 0.930 . S
H1787 C1796 0.930 . S
H1788 C1801 0.929 . S
H1789 C1799 0.929 . S
H1790 C1794 0.929 . S
H1791 C1800 0.929 . S
C1792 H1786 0.930 . S
C1792 C1793 1.367 . S
C1792 C1800 1.378 . S
C1793 C1792 1.367 . S
C1793 C1801 1.433 . S
C1794 H1790 0.929 . S
C1794 C1796 1.378 . S
C1794 C1798 1.350 . S
C1795 C1798 1.463 . S
C1795 C1800 1.350 . S
C1795 N1803 1.427 . S
C1796 H1787 0.930 . S
C1796 C1794 1.378 . S
C1796 C1797 1.367 . S
C1797 C1796 1.367 . S
C1797 C1799 1.433 . S
C1798 C1794 1.350 . S
C1798 C1795 1.463 . S
C1798 N1802 1.427 . S
C1799 H1789 0.929 . S
C1799 C1797 1.433 . S
C1799 N1802 1.384 . S
C1800 H1791 0.929 . S
C1800 C1792 1.378 . S
C1800 C1795 1.350 . S
C1801 H1788 0.929 . S
C1801 C1793 1.433 . S
C1801 N1803 1.384 . S
N1802 C1798 1.427 . S
N1802 C1799 1.384 . S
N1803 C1795 1.427 . S
N1803 C1801 1.384 . S
H1804 C1810 0.930 . S
H1805 C1814 0.930 . S
H1806 C1819 0.948 . S
H1807 C1817 0.949 . S
H1808 C1812 0.929 . S
H1809 C1818 0.929 . S
C1810 H1804 0.930 . S
C1810 C1811 1.367 . S
C1810 C1818 1.378 . S
C1811 C1810 1.367 . S
C1811 C1819 1.402 1_565 S
C1812 H1808 0.929 . S
C1812 C1814 1.378 . S
C1812 C1816 1.350 . S
C1813 C1816 1.463 1_565 S
C1813 C1818 1.350 . S
C1813 N1821 1.427 1_565 S
C1814 H1805 0.930 . S
C1814 C1812 1.378 . S
C1814 C1815 1.367 . S
C1815 C1814 1.367 . S
C1815 C1817 1.401 1_545 S
C1816 C1812 1.350 . S
C1816 C1813 1.463 1_545 S
C1816 N1820 1.427 1_545 S
C1817 H1807 0.949 . S
C1817 C1815 1.401 1_565 S
C1817 N1820 1.396 . S
C1818 H1809 0.929 . S
C1818 C1810 1.378 . S
C1818 C1813 1.350 . S
C1819 H1806 0.948 . S
C1819 C1811 1.402 1_545 S
C1819 N1821 1.396 . S
N1820 C1816 1.427 1_565 S
N1820 C1817 1.396 . S
N1821 C1813 1.427 1_545 S
N1821 C1819 1.396 . S
H1822 C1828 0.930 . S
H1823 C1832 0.930 . S
H1824 C1837 0.929 . S
H1825 C1835 0.929 . S
H1826 C1830 0.929 . S
H1827 C1836 0.929 . S
C1828 H1822 0.930 . S
C1828 C1829 1.367 . S
C1828 C1836 1.378 1_455 S
C1829 C1828 1.367 . S
C1829 C1837 1.433 . S
C1830 H1826 0.929 . S
C1830 C1832 1.378 1_455 S
C1830 C1834 1.350 1_455 S
C1831 C1834 1.463 1_445 S
C1831 C1836 1.350 1_455 S
C1831 N1839 1.427 . S
C1832 H1823 0.930 . S
C1832 C1830 1.378 1_655 S
C1832 C1833 1.367 . S
C1833 C1832 1.367 . S
C1833 C1835 1.433 . S
C1834 C1830 1.350 1_655 S
C1834 C1831 1.463 1_665 S
C1834 N1838 1.427 . S
C1835 H1825 0.929 . S
C1835 C1833 1.433 . S
C1835 N1838 1.384 . S
C1836 H1827 0.929 . S
C1836 C1828 1.378 1_655 S
C1836 C1831 1.350 1_655 S
C1837 H1824 0.929 . S
C1837 C1829 1.433 . S
C1837 N1839 1.384 . S
N1838 C1834 1.427 . S
N1838 C1835 1.384 . S
N1839 C1831 1.427 . S
N1839 C1837 1.384 . S
H1840 C1846 0.930 1_545 S
H1841 C1850 0.930 1_565 S
H1842 C1855 0.929 . S
H1843 C1853 0.929 . S
H1844 C1848 0.929 . S
H1845 C1854 0.929 . S
C1846 H1840 0.930 1_565 S
C1846 C1847 1.367 . S
C1846 C1854 1.378 1_565 S
C1847 C1846 1.367 . S
C1847 C1855 1.433 . S
C1848 H1844 0.929 . S
C1848 C1850 1.378 1_565 S
C1848 C1852 1.350 1_565 S
C1849 C1852 1.463 1_565 S
C1849 C1854 1.350 1_565 S
C1849 N1857 1.427 . S
C1850 H1841 0.930 1_545 S
C1850 C1848 1.378 1_545 S
C1850 C1851 1.367 . S
C1851 C1850 1.367 . S
C1851 C1853 1.433 . S
C1852 C1848 1.350 1_545 S
C1852 C1849 1.463 1_545 S
C1852 N1856 1.427 . S
C1853 H1843 0.929 . S
C1853 C1851 1.433 . S
C1853 N1856 1.384 . S
C1854 H1845 0.929 . S
C1854 C1846 1.378 1_545 S
C1854 C1849 1.350 1_545 S
C1855 H1842 0.929 . S
C1855 C1847 1.433 . S
C1855 N1857 1.384 . S
N1856 C1852 1.427 . S
N1856 C1853 1.384 . S
N1857 C1849 1.427 . S
N1857 C1855 1.384 . S
H1858 C1864 0.930 . S
H1859 C1868 0.930 . S
H1860 C1873 0.929 . S
H1861 C1871 0.929 . S
H1862 C1866 0.929 . S
H1863 C1872 0.929 . S
C1864 H1858 0.930 . S
C1864 C1865 1.367 1_455 S
C1864 C1872 1.378 . S
C1865 C1864 1.367 1_655 S
C1865 C1873 1.433 . S
C1866 H1862 0.929 . S
C1866 C1868 1.378 . S
C1866 C1870 1.350 1_655 S
C1867 C1870 1.463 1_665 S
C1867 C1872 1.350 1_655 S
C1867 N1875 1.427 . S
C1868 H1859 0.930 . S
C1868 C1866 1.378 . S
C1868 C1869 1.367 1_655 S
C1869 C1868 1.367 1_455 S
C1869 C1871 1.433 . S
C1870 C1866 1.350 1_455 S
C1870 C1867 1.463 1_445 S
C1870 N1874 1.427 . S
C1871 H1861 0.929 . S
C1871 C1869 1.433 . S
C1871 N1874 1.384 . S
C1872 H1863 0.929 . S
C1872 C1864 1.378 . S
C1872 C1867 1.350 1_455 S
C1873 H1860 0.929 . S
C1873 C1865 1.433 . S
C1873 N1875 1.384 . S
N1874 C1870 1.427 . S
N1874 C1871 1.384 . S
N1875 C1867 1.427 . S
N1875 C1873 1.384 . S
H1876 C1882 0.930 . S
H1877 C1886 0.930 . S
H1878 C1891 0.929 . S
H1879 C1889 0.929 . S
H1880 C1884 0.929 . S
H1881 C1890 0.929 . S
C1882 H1876 0.930 . S
C1882 C1883 1.367 . S
C1882 C1890 1.378 . S
C1883 C1882 1.367 . S
C1883 C1891 1.433 . S
C1884 H1880 0.929 . S
C1884 C1886 1.378 . S
C1884 C1888 1.350 . S
C1885 C1888 1.463 1_455 S
C1885 C1890 1.350 . S
C1885 N1893 1.427 . S
C1886 H1877 0.930 . S
C1886 C1884 1.378 . S
C1886 C1887 1.367 . S
C1887 C1886 1.367 . S
C1887 C1889 1.433 . S
C1888 C1884 1.350 . S
C1888 C1885 1.463 1_655 S
C1888 N1892 1.427 . S
C1889 H1879 0.929 . S
C1889 C1887 1.433 . S
C1889 N1892 1.384 . S
C1890 H1881 0.929 . S
C1890 C1882 1.378 . S
C1890 C1885 1.350 . S
C1891 H1878 0.929 . S
C1891 C1883 1.433 . S
C1891 N1893 1.384 . S
N1892 C1888 1.427 . S
N1892 C1889 1.384 . S
N1893 C1885 1.427 . S
N1893 C1891 1.384 . S
H1894 C1900 0.930 . S
H1895 C1904 0.930 . S
H1896 C1909 0.929 . S
H1897 C1907 0.929 . S
H1898 C1902 0.929 . S
H1899 C1908 0.929 . S
C1900 H1894 0.930 . S
C1900 C1901 1.367 . S
C1900 C1908 1.378 . S
C1901 C1900 1.367 . S
C1901 C1909 1.433 . S
C1902 H1898 0.929 . S
C1902 C1904 1.378 . S
C1902 C1906 1.350 . S
C1903 C1906 1.463 . S
C1903 C1908 1.350 . S
C1903 N1911 1.427 . S
C1904 H1895 0.930 . S
C1904 C1902 1.378 . S
C1904 C1905 1.367 . S
C1905 C1904 1.367 . S
C1905 C1907 1.433 . S
C1906 C1902 1.350 . S
C1906 C1903 1.463 . S
C1906 N1910 1.427 . S
C1907 H1897 0.929 . S
C1907 C1905 1.433 . S
C1907 N1910 1.384 . S
C1908 H1899 0.929 . S
C1908 C1900 1.378 . S
C1908 C1903 1.350 . S
C1909 H1896 0.929 . S
C1909 C1901 1.433 . S
C1909 N1911 1.384 . S
N1910 C1906 1.427 . S
N1910 C1907 1.384 . S
N1911 C1903 1.427 . S
N1911 C1909 1.384 . S
H1912 C1918 0.930 . S
H1913 C1922 0.930 . S
H1914 C1927 0.929 . S
H1915 C1925 0.929 . S
H1916 C1920 0.929 . S
H1917 C1926 0.929 . S
C1918 H1912 0.930 . S
C1918 C1919 1.367 . S
C1918 C1926 1.378 . S
C1919 C1918 1.367 . S
C1919 C1927 1.433 . S
C1920 H1916 0.929 . S
C1920 C1922 1.378 . S
C1920 C1924 1.350 . S
C1921 C1924 1.463 . S
C1921 C1926 1.350 . S
C1921 N1929 1.427 . S
C1922 H1913 0.930 . S
C1922 C1920 1.378 . S
C1922 C1923 1.367 . S
C1923 C1922 1.367 . S
C1923 C1925 1.433 . S
C1924 C1920 1.350 . S
C1924 C1921 1.463 . S
C1924 N1928 1.427 . S
C1925 H1915 0.929 . S
C1925 C1923 1.433 . S
C1925 N1928 1.384 . S
C1926 H1917 0.929 . S
C1926 C1918 1.378 . S
C1926 C1921 1.350 . S
C1927 H1914 0.929 . S
C1927 C1919 1.433 . S
C1927 N1929 1.384 . S
N1928 C1924 1.427 . S
N1928 C1925 1.384 . S
N1929 C1921 1.427 . S
N1929 C1927 1.384 . S
H1930 C1936 0.930 . S
H1931 C1940 0.930 . S
H1932 C1945 0.929 . S
H1933 C1943 0.929 . S
H1934 C1938 0.929 . S
H1935 C1944 0.929 . S
C1936 H1930 0.930 . S
C1936 C1937 1.367 . S
C1936 C1944 1.378 . S
C1937 C1936 1.367 . S
C1937 C1945 1.433 . S
C1938 H1934 0.929 . S
C1938 C1940 1.378 . S
C1938 C1942 1.350 . S
C1939 C1942 1.463 1_545 S
C1939 C1944 1.350 . S
C1939 N1947 1.427 . S
C1940 H1931 0.930 . S
C1940 C1938 1.378 . S
C1940 C1941 1.367 . S
C1941 C1940 1.367 . S
C1941 C1943 1.433 . S
C1942 C1938 1.350 . S
C1942 C1939 1.463 1_565 S
C1942 N1946 1.427 . S
C1943 H1933 0.929 . S
C1943 C1941 1.433 . S
C1943 N1946 1.384 . S
C1944 H1935 0.929 . S
C1944 C1936 1.378 . S
C1944 C1939 1.350 . S
C1945 H1932 0.929 . S
C1945 C1937 1.433 . S
C1945 N1947 1.384 . S
N1946 C1942 1.427 . S
N1946 C1943 1.384 . S
N1947 C1939 1.427 . S
N1947 C1945 1.384 . S
H1948 C1954 0.930 . S
H1949 C1958 0.930 . S
H1950 C1963 0.929 . S
H1951 C1961 0.929 . S
H1952 C1956 0.929 1_565 S
H1953 C1962 0.929 1_545 S
C1954 H1948 0.930 . S
C1954 C1955 1.367 . S
C1954 C1962 1.378 . S
C1955 C1954 1.367 . S
C1955 C1963 1.433 . S
C1956 H1952 0.929 1_545 S
C1956 C1958 1.378 . S
C1956 C1960 1.350 . S
C1957 C1960 1.463 1_665 S
C1957 C1962 1.350 . S
C1957 N1965 1.427 . S
C1958 H1949 0.930 . S
C1958 C1956 1.378 . S
C1958 C1959 1.367 . S
C1959 C1958 1.367 . S
C1959 C1961 1.433 . S
C1960 C1956 1.350 . S
C1960 C1957 1.463 1_445 S
C1960 N1964 1.427 . S
C1961 H1951 0.929 . S
C1961 C1959 1.433 . S
C1961 N1964 1.384 . S
C1962 H1953 0.929 1_565 S
C1962 C1954 1.378 . S
C1962 C1957 1.350 . S
C1963 H1950 0.929 . S
C1963 C1955 1.433 . S
C1963 N1965 1.384 . S
N1964 C1960 1.427 . S
N1964 C1961 1.384 . S
N1965 C1957 1.427 . S
N1965 C1963 1.384 . S
H1966 C1972 0.930 . S
H1967 C1976 0.930 . S
H1968 C1981 0.929 . S
H1969 C1979 0.929 . S
H1970 C1974 0.929 . S
H1971 C1980 0.929 . S
C1972 H1966 0.930 . S
C1972 C1973 1.367 . S
C1972 C1980 1.378 . S
C1973 C1972 1.367 . S
C1973 C1981 1.433 1_655 S
C1974 H1970 0.929 . S
C1974 C1976 1.378 . S
C1974 C1978 1.350 . S
C1975 C1978 1.463 1_655 S
C1975 C1980 1.350 . S
C1975 N1983 1.427 1_655 S
C1976 H1967 0.930 . S
C1976 C1974 1.378 . S
C1976 C1977 1.367 . S
C1977 C1976 1.367 . S
C1977 C1979 1.433 1_455 S
C1978 C1974 1.350 . S
C1978 C1975 1.463 1_455 S
C1978 N1982 1.427 1_455 S
C1979 H1969 0.929 . S
C1979 C1977 1.433 1_655 S
C1979 N1982 1.384 . S
C1980 H1971 0.929 . S
C1980 C1972 1.378 . S
C1980 C1975 1.350 . S
C1981 H1968 0.929 . S
C1981 C1973 1.433 1_455 S
C1981 N1983 1.384 . S
N1982 C1978 1.427 1_655 S
N1982 C1979 1.384 . S
N1983 C1975 1.427 1_455 S
N1983 C1981 1.384 . S
C1415 C372 1.109 . S
C1419 C57 1.109 . S
C1433 C145 1.109 . S
C1437 C460 1.109 . S
C1451 C548 1.108 . S
C1455 C233 1.107 . S
C1469 C645 1.108 . S
C1473 C313 1.108 . S
C1487 C1085 1.106 . S
C1491 C753 1.106 . S
C1505 C841 1.124 . S
C1509 C1164 1.123 . S
C1523 C1252 1.106 . S
C1527 C929 1.106 . S
C1541 C1025 1.125 . S
C1545 C1340 1.124 . S
C1559 C29 1.131 . S
C1563 C1369 1.120 . S
C1577 C117 1.131 . S
C1581 C1113 1.128 . S
C1595 C205 1.130 . S
C1599 C1193 1.119 . S
C1613 C1281 1.131 . S
C1617 C284 1.121 . S
C1631 C401 1.118 . S
C1635 C812 1.128 . S
C1649 C489 1.119 . S
C1653 C900 1.117 . S
C1667 C997 1.122 . S
C1671 C577 1.116 . S
C1685 C724 1.131 . S
C1689 C673 1.121 . S
C1703 C49 1.546 . S
C1707 C937 1.545 . S
C1721 C1017 1.548 . S
C1725 C137 1.548 . S
C1739 C225 1.545 . S
C1743 C761 1.545 . S
C1757 C849 1.546 . S
C1761 C321 1.546 . S
C1775 C381 1.548 . S
C1779 C1261 1.547 . S
C1793 C469 1.547 . S
C1797 C1349 1.548 . S
C1811 C1076 1.546 . S
C1815 C557 1.545 . S
C1829 C1173 1.548 . S
C1833 C636 1.549 . S
C1847 C909 1.671 . S
C1851 C20 1.669 . S
C1865 C108 1.670 . S
C1869 C988 1.672 . S
C1883 C196 1.664 . S
C1887 C733 1.663 . S
C1901 C821 1.667 . S
C1905 C293 1.664 . S
C1919 C1289 1.666 . S
C1923 C409 1.664 . S
C1937 C1377 1.668 . S
C1941 C497 1.665 . S
C1955 C1105 1.670 . S
C1959 C585 1.667 . S
C1973 C665 1.664 . S
C1977 C1201 1.663 . S
