# Generated by pormake.
# Topology qtz-e, (6)-cn, num edge types: 1
# Building blocks:
#     Node 0, Type 0, BuildingBlock: BETFEN_clean_sbu_0, # of connection points: 6
#     Node 1, Type 0, BuildingBlock: BETFEN_clean_sbu_0, # of connection points: 6
#     Node 2, Type 0, BuildingBlock: BETFEN_clean_sbu_0, # of connection points: 6
#     Node 3, Type 0, BuildingBlock: BETFEN_clean_sbu_0, # of connection points: 6
#     Node 4, Type 0, BuildingBlock: BETFEN_clean_sbu_0, # of connection points: 6
#     Node 5, Type 0, BuildingBlock: BETFEN_clean_sbu_0, # of connection points: 6
#     Edge 6, Type (0, 0), BuildingBlock: FUNLAD_clean_linker_0, # of connection points: 2
#     Edge 7, Type (0, 0), BuildingBlock: FUNLAD_clean_linker_0, # of connection points: 2
#     Edge 8, Type (0, 0), BuildingBlock: FUNLAD_clean_linker_0, # of connection points: 2
#     Edge 9, Type (0, 0), BuildingBlock: FUNLAD_clean_linker_0, # of connection points: 2
#     Edge 10, Type (0, 0), BuildingBlock: FUNLAD_clean_linker_0, # of connection points: 2
#     Edge 11, Type (0, 0), BuildingBlock: FUNLAD_clean_linker_0, # of connection points: 2
#     Edge 12, Type (0, 0), BuildingBlock: FUNLAD_clean_linker_0, # of connection points: 2
#     Edge 13, Type (0, 0), BuildingBlock: FUNLAD_clean_linker_0, # of connection points: 2
#     Edge 14, Type (0, 0), BuildingBlock: FUNLAD_clean_linker_0, # of connection points: 2
#     Edge 15, Type (0, 0), BuildingBlock: FUNLAD_clean_linker_0, # of connection points: 2
#     Edge 16, Type (0, 0), BuildingBlock: FUNLAD_clean_linker_0, # of connection points: 2
#     Edge 17, Type (0, 0), BuildingBlock: FUNLAD_clean_linker_0, # of connection points: 2
#     Edge 18, Type (0, 0), BuildingBlock: FUNLAD_clean_linker_0, # of connection points: 2
#     Edge 19, Type (0, 0), BuildingBlock: FUNLAD_clean_linker_0, # of connection points: 2
#     Edge 20, Type (0, 0), BuildingBlock: FUNLAD_clean_linker_0, # of connection points: 2
#     Edge 21, Type (0, 0), BuildingBlock: FUNLAD_clean_linker_0, # of connection points: 2
#     Edge 22, Type (0, 0), BuildingBlock: FUNLAD_clean_linker_0, # of connection points: 2
#     Edge 23, Type (0, 0), BuildingBlock: FUNLAD_clean_linker_0, # of connection points: 2
# Relax obj value: 0.171
# Max RMSD: 0.202
# Mean RMSD: 0.202
data_MOF--net-qtz-e--node1-BETFEN_clean_sbu_0--edge1-FUNLAD_clean_linker_0
_symmetry_space_group_name_H-M    P1
_symmetry_Int_Tables_number       1
_symmetry_cell_setting            triclinic
loop_
_symmetry_equiv_pos_as_xyz
'x, y, z'
_cell_length_a     29.500702
_cell_length_b     29.447607
_cell_length_c     59.021139
_cell_angle_alpha  89.998448
_cell_angle_beta   89.811587
_cell_angle_gamma 120.27828
loop_
_atom_site_label
_atom_site_type_symbol
_atom_site_fract_x
_atom_site_fract_y
_atom_site_fract_z
_atom_type_partial_charge
Pr0 Pr 0.24973 0.4405 0.0753 0.0
Pr1 Pr 0.19073 0.32774 0.09497 0.0
C2 C 0.31582 0.53876 0.06064 0.0
C3 C 0.33247 0.56367 0.0382 0.0
C4 C 0.29879 0.54354 0.0195 0.0
C5 C 0.31647 0.56465 0.99788 0.0
C6 C 0.36835 0.60594 0.99449 0.0
C7 C 0.4017 0.62631 0.01339 0.0
C8 C 0.38387 0.60535 0.03503 0.0
C9 C 0.14317 0.38383 0.06397 0.0
C10 C 0.23248 0.34179 0.04326 0.0
C11 C 0.12802 0.23793 0.11777 0.0
C12 C 0.09926 0.22358 0.13953 0.0
C13 C 0.09577 0.18157 0.15211 0.0
C14 C 0.07329 0.17027 0.17376 0.0
C15 C 0.05378 0.20084 0.18339 0.0
C16 C 0.0567 0.24259 0.17054 0.0
C17 C 0.07922 0.25384 0.14883 0.0
C18 C 0.30015 0.38051 0.0976 0.0
C19 C 0.20606 0.4271 0.12779 0.0
O20 O 0.3312 0.50532 0.06569 0.0
O21 O 0.2672 0.52263 0.06668 0.0
O22 O 0.1626 0.38347 0.08288 0.0
O23 O 0.18023 0.41331 0.04976 0.0
O24 O 0.19208 0.3105 0.05629 0.0
O25 O 0.26642 0.39039 0.04952 0.0
O26 O 0.11083 0.25581 0.10159 0.0
O27 O 0.17912 0.26364 0.11942 0.0
O28 O 0.27131 0.3993 0.10181 0.0
O29 O 0.27252 0.33122 0.09198 0.0
O30 O 0.23578 0.46103 0.11201 0.0
O31 O 0.18353 0.37578 0.12487 0.0
H32 H 0.25907 0.51094 0.02154 0.0
H33 H 0.28949 0.54844 0.9838 0.0
H34 H 0.4421 0.65747 0.01141 0.0
H35 H 0.41062 0.62089 0.04922 0.0
H36 H 0.11162 0.15819 0.14538 0.0
H37 H 0.07265 0.13845 0.18323 0.0
H38 H 0.04167 0.26666 0.17727 0.0
H39 H 0.08179 0.28671 0.13947 0.0
Pr40 Pr 0.72056 0.18155 0.49317 0.0
Pr41 Pr 0.77022 0.11895 0.47405 0.0
C42 C 0.66091 0.21976 0.50894 0.0
C43 C 0.64378 0.22248 0.53208 0.0
C44 C 0.6228 0.25471 0.53713 0.0
C45 C 0.60457 0.25505 0.55906 0.0
C46 C 0.60667 0.22275 0.57612 0.0
C47 C 0.6286 0.19126 0.571 0.0
C48 C 0.64722 0.19136 0.54924 0.0
C49 C 0.82804 0.22775 0.50196 0.0
C50 C 0.73319 0.09877 0.52643 0.0
C51 C 0.82741 0.08731 0.4503 0.0
C52 C 0.85511 0.10393 0.42829 0.0
C53 C 0.85489 0.06633 0.41366 0.0
C54 C 0.87576 0.08045 0.39174 0.0
C55 C 0.89723 0.13257 0.38395 0.0
C56 C 0.8983 0.17038 0.3989 0.0
C57 C 0.87737 0.1562 0.4208 0.0
C58 C 0.6607 0.06811 0.47351 0.0
C59 C 0.75761 0.20255 0.43967 0.0
O60 O 0.64138 0.17208 0.50089 0.0
O61 O 0.71111 0.24987 0.50466 0.0
O62 O 0.8055 0.206 0.48371 0.0
O63 O 0.79354 0.22278 0.51699 0.0
O64 O 0.77125 0.1037 0.51293 0.0
O65 O 0.70148 0.11591 0.52016 0.0
O66 O 0.84682 0.12086 0.46709 0.0
O67 O 0.77627 0.06381 0.44914 0.0
O68 O 0.69217 0.11478 0.46817 0.0
O69 O 0.68545 0.04375 0.47933 0.0
O70 O 0.73331 0.21326 0.45585 0.0
O71 O 0.77612 0.1706 0.443 0.0
H72 H 0.61993 0.27903 0.5241 0.0
H73 H 0.58764 0.27953 0.56253 0.0
H74 H 0.63144 0.16656 0.58386 0.0
H75 H 0.66376 0.16658 0.54573 0.0
H76 H 0.83726 0.02567 0.41898 0.0
H77 H 0.87352 0.05008 0.38067 0.0
H78 H 0.91506 0.21098 0.39367 0.0
H79 H 0.87756 0.18591 0.43169 0.0
Pr80 Pr 0.50038 0.79316 0.7457 0.0
Pr81 Pr 0.61173 0.85367 0.76742 0.0
C82 C 0.41056 0.76644 0.72378 0.0
C83 C 0.3937 0.76333 0.7 0.0
C84 C 0.35842 0.71418 0.69063 0.0
C85 C 0.34318 0.71007 0.66799 0.0
C86 C 0.36246 0.75515 0.65423 0.0
C87 C 0.39745 0.80447 0.66374 0.0
C88 C 0.41303 0.80852 0.68634 0.0
C89 C 0.55651 0.74139 0.74147 0.0
C90 C 0.60256 0.88605 0.7156 0.0
C91 C 0.70115 0.88391 0.79062 0.0
C92 C 0.7149 0.8715 0.81288 0.0
C93 C 0.75801 0.91049 0.82479 0.0
C94 C 0.77045 0.89989 0.84629 0.0
C95 C 0.73998 0.84993 0.85631 0.0
C96 C 0.69681 0.8109 0.84421 0.0
C97 C 0.68433 0.82163 0.82278 0.0
C98 C 0.55025 0.90032 0.77154 0.0
C99 C 0.50909 0.76308 0.79787 0.0
O100 O 0.44103 0.81335 0.73226 0.0
O101 O 0.42372 0.73201 0.73004 0.0
O102 O 0.57649 0.79064 0.73986 0.0
O103 O 0.50584 0.71735 0.74343 0.0
O104 O 0.63611 0.88661 0.73055 0.0
O105 O 0.55123 0.85827 0.71888 0.0
O106 O 0.68293 0.84655 0.77541 0.0
O107 O 0.6762 0.91007 0.79099 0.0
O108 O 0.53481 0.85244 0.77435 0.0
O109 O 0.60013 0.92722 0.76676 0.0
O110 O 0.47676 0.765 0.78298 0.0
O111 O 0.56041 0.78794 0.79432 0.0
H112 H 0.34301 0.67875 0.70078 0.0
H113 H 0.31687 0.67136 0.6612 0.0
H114 H 0.41248 0.84012 0.65378 0.0
H115 H 0.44031 0.84706 0.69304 0.0
H116 H 0.7818 0.94938 0.81756 0.0
H117 H 0.80343 0.9312 0.8552 0.0
H118 H 0.67281 0.77181 0.8512 0.0
H119 H 0.65063 0.79096 0.81402 0.0
Pr120 Pr 0.79577 0.51137 0.1582 0.0
Pr121 Pr 0.83959 0.62604 0.14013 0.0
C122 C 0.78829 0.42441 0.17654 0.0
C123 C 0.78902 0.40772 0.19995 0.0
C124 C 0.75591 0.35518 0.20631 0.0
C125 C 0.75345 0.33991 0.22892 0.0
C126 C 0.7837 0.37716 0.24554 0.0
C127 C 0.81722 0.42967 0.23904 0.0
C128 C 0.82004 0.44473 0.21643 0.0
C129 C 0.72618 0.54659 0.16366 0.0
C130 C 0.86935 0.61522 0.19241 0.0
C131 C 0.8542 0.71383 0.11913 0.0
C132 C 0.83959 0.72576 0.09693 0.0
C133 C 0.8767 0.76934 0.08443 0.0
C134 C 0.86438 0.77975 0.06288 0.0
C135 C 0.81455 0.74684 0.05343 0.0
C136 C 0.77731 0.70336 0.06607 0.0
C137 C 0.78976 0.69283 0.08756 0.0
C138 C 0.9006 0.57979 0.1315 0.0
C139 C 0.76128 0.52279 0.10723 0.0
O140 O 0.83252 0.46349 0.16875 0.0
O141 O 0.74714 0.42789 0.17111 0.0
O142 O 0.77536 0.57576 0.1662 0.0
O143 O 0.71181 0.49743 0.16072 0.0
O144 O 0.86934 0.64873 0.1775 0.0
O145 O 0.84821 0.56455 0.18795 0.0
O146 O 0.8162 0.68725 0.13365 0.0
O147 O 0.88894 0.69875 0.11871 0.0
O148 O 0.85182 0.55846 0.13001 0.0
O149 O 0.92142 0.62902 0.13714 0.0
O150 O 0.771 0.49243 0.12041 0.0
O151 O 0.77693 0.57212 0.11278 0.0
H152 H 0.73139 0.32616 0.19386 0.0
H153 H 0.72704 0.29922 0.23351 0.0
H154 H 0.84152 0.45905 0.25142 0.0
H155 H 0.84615 0.48541 0.21186 0.0
H156 H 0.91544 0.79512 0.09128 0.0
H157 H 0.89376 0.81381 0.05366 0.0
H158 H 0.73885 0.67682 0.05917 0.0
H159 H 0.76055 0.65858 0.09669 0.0
Pr160 Pr 0.17786 0.71121 0.40812 0.0
Pr161 Pr 0.13624 0.78089 0.42897 0.0
C162 C 0.18539 0.63332 0.38818 0.0
C163 C 0.19029 0.61908 0.36466 0.0
C164 C 0.23653 0.64941 0.35203 0.0
C165 C 0.23988 0.63668 0.32954 0.0
C166 C 0.19711 0.59342 0.31915 0.0
C167 C 0.15109 0.5628 0.33187 0.0
C168 C 0.14781 0.57541 0.3544 0.0
C169 C 0.2458 0.81742 0.40122 0.0
C170 C 0.09874 0.73921 0.3773 0.0
C171 C 0.12247 0.85316 0.45115 0.0
C172 C 0.1366 0.8789 0.47356 0.0
C173 C 0.09875 0.88337 0.48623 0.0
C174 C 0.11076 0.90619 0.50778 0.0
C175 C 0.16104 0.92529 0.51703 0.0
C176 C 0.199 0.92091 0.50426 0.0
C177 C 0.18683 0.89769 0.48278 0.0
C178 C 0.07577 0.67274 0.43718 0.0
C179 C 0.21794 0.75636 0.45885 0.0
O180 O 0.14028 0.62887 0.39379 0.0
O181 O 0.22584 0.67529 0.39662 0.0
O182 O 0.19625 0.79584 0.40084 0.0
O183 O 0.26099 0.78314 0.40258 0.0
O184 O 0.10411 0.77505 0.39224 0.0
O185 O 0.11846 0.70824 0.38085 0.0
O186 O 0.16071 0.8655 0.43671 0.0
O187 O 0.08738 0.80308 0.45108 0.0
O188 O 0.12476 0.70029 0.43791 0.0
O189 O 0.05482 0.70138 0.43262 0.0
O190 O 0.20617 0.71608 0.44539 0.0
O191 O 0.20129 0.78959 0.45459 0.0
H192 H 0.27016 0.68322 0.35943 0.0
H193 H 0.27621 0.66051 0.32035 0.0
H194 H 0.11722 0.52953 0.32431 0.0
H195 H 0.11174 0.55134 0.36374 0.0
H196 H 0.05974 0.86901 0.47948 0.0
H197 H 0.08085 0.90947 0.5171 0.0
H198 H 0.23788 0.9347 0.51102 0.0
H199 H 0.21663 0.89419 0.4735 0.0
Pr200 Pr 0.46454 0.27291 0.82502 0.0
Pr201 Pr 0.35825 0.23612 0.80135 0.0
C202 C 0.5602 0.32057 0.84403 0.0
C203 C 0.57759 0.32855 0.86769 0.0
C204 C 0.63053 0.36196 0.87302 0.0
C205 C 0.64614 0.37325 0.89566 0.0
C206 C 0.60892 0.35135 0.91331 0.0
C207 C 0.55597 0.31701 0.90779 0.0
C208 C 0.54046 0.3058 0.88519 0.0
C209 C 0.39091 0.16573 0.83029 0.0
C210 C 0.36705 0.26614 0.85467 0.0
C211 C 0.27125 0.18848 0.77572 0.0
C212 C 0.25678 0.1574 0.75469 0.0
C213 C 0.22107 0.15944 0.73972 0.0
C214 C 0.21011 0.13349 0.71886 0.0
C215 C 0.23459 0.10486 0.71263 0.0
C216 C 0.26989 0.10234 0.72783 0.0
C217 C 0.28113 0.12864 0.74862 0.0
C218 C 0.42342 0.3446 0.80583 0.0
C219 C 0.45815 0.24621 0.77043 0.0
O220 O 0.5361 0.34573 0.83799 0.0
O221 O 0.53719 0.27205 0.83661 0.0
O222 O 0.4 0.19229 0.81243 0.0
O223 O 0.42059 0.1953 0.8466 0.0
O224 O 0.33473 0.23163 0.83972 0.0
O225 O 0.41798 0.29432 0.8507 0.0
O226 O 0.27779 0.16666 0.79384 0.0
O227 O 0.30699 0.2381 0.77343 0.0
O228 O 0.43722 0.31245 0.79999 0.0
O229 O 0.37297 0.32135 0.80913 0.0
O230 O 0.48961 0.26725 0.78798 0.0
O231 O 0.40728 0.22886 0.77173 0.0
H232 H 0.6596 0.38004 0.85968 0.0
H233 H 0.6873 0.39934 0.89936 0.0
H234 H 0.52622 0.30008 0.92091 0.0
H235 H 0.49924 0.28038 0.88132 0.0
H236 H 0.20225 0.1818 0.74403 0.0
H237 H 0.1824 0.13577 0.7076 0.0
H238 H 0.28986 0.08117 0.72341 0.0
H239 H 0.30955 0.1273 0.75975 0.0
C240 C 0.17932 0.52746 0.28854 0.0
C241 C 0.20058 0.58015 0.29517 0.0
C242 C 0.18281 0.51484 0.26606 0.0
C243 C 0.20745 0.55469 0.24962 0.0
C244 C 0.22931 0.60733 0.25628 0.0
C245 C 0.22565 0.61998 0.27878 0.0
C246 C 0.21314 0.54264 0.22572 0.0
C247 C 0.17851 0.49713 0.21568 0.0
C248 C 0.18536 0.48147 0.19257 0.0
C249 C 0.15789 0.42781 0.18717 0.0
C250 C 0.16435 0.41044 0.1661 0.0
C251 C 0.19815 0.44642 0.14975 0.0
H252 H 0.23894 0.55966 0.17922 0.0
C253 C 0.22458 0.50038 0.15484 0.0
C254 C 0.21825 0.51782 0.17604 0.0
H255 H 0.25053 0.52916 0.14254 0.0
H256 H 0.1609 0.49592 0.30084 0.0
H257 H 0.16734 0.47389 0.26182 0.0
H258 H 0.24892 0.63878 0.244 0.0
H259 H 0.24205 0.66096 0.28328 0.0
H260 H 0.24706 0.57212 0.21643 0.0
H261 H 0.14429 0.46856 0.22516 0.0
H262 H 0.132 0.39893 0.19947 0.0
H263 H 0.14308 0.36861 0.16278 0.0
C264 C 0.44721 0.2168 0.72998 0.0
C265 C 0.48051 0.24398 0.74822 0.0
C266 C 0.46794 0.21733 0.7086 0.0
C267 C 0.52256 0.24503 0.70495 0.0
C268 C 0.55581 0.27189 0.72319 0.0
C269 C 0.53509 0.27109 0.74464 0.0
C270 C 0.54587 0.24894 0.68215 0.0
C271 C 0.52231 0.21193 0.66604 0.0
C272 C 0.54516 0.21612 0.64314 0.0
C273 C 0.53264 0.16983 0.6314 0.0
C274 C 0.55276 0.17209 0.60971 0.0
C275 C 0.58515 0.22077 0.5991 0.0
H276 H 0.58651 0.3014 0.64073 0.0
C277 C 0.5969 0.26717 0.61061 0.0
C278 C 0.57724 0.26494 0.63246 0.0
H279 H 0.62176 0.30522 0.60283 0.0
H280 H 0.40495 0.19568 0.73208 0.0
H281 H 0.44089 0.19731 0.69487 0.0
H282 H 0.598 0.29383 0.72082 0.0
H283 H 0.56186 0.29271 0.75827 0.0
H284 H 0.58463 0.28252 0.6789 0.0
H285 H 0.48608 0.17585 0.67002 0.0
H286 H 0.50751 0.13174 0.63912 0.0
H287 H 0.54244 0.13564 0.60112 0.0
C288 C 0.37306 0.59258 0.9526 0.0
C289 C 0.38804 0.62674 0.97131 0.0
C290 C 0.39239 0.61189 0.9309 0.0
C291 C 0.42721 0.66592 0.9274 0.0
C292 C 0.44248 0.69994 0.94608 0.0
C293 C 0.4229 0.68071 0.96774 0.0
C294 C 0.44987 0.68792 0.90474 0.0
C295 C 0.42569 0.66583 0.88507 0.0
C296 C 0.44805 0.6895 0.86261 0.0
C297 C 0.41392 0.68188 0.84462 0.0
C298 C 0.43365 0.70515 0.82349 0.0
C299 C 0.48807 0.73586 0.8198 0.0
H300 H 0.53008 0.72427 0.87199 0.0
C301 C 0.52228 0.74183 0.83758 0.0
C302 C 0.50254 0.71897 0.85875 0.0
H303 H 0.56442 0.76492 0.83531 0.0
H304 H 0.3473 0.55063 0.95477 0.0
H305 H 0.38098 0.58415 0.91708 0.0
H306 H 0.46942 0.7417 0.94389 0.0
H307 H 0.43487 0.70829 0.98167 0.0
H308 H 0.48647 0.72533 0.90437 0.0
H309 H 0.38665 0.6313 0.88536 0.0
H310 H 0.37179 0.65881 0.84706 0.0
H311 H 0.40618 0.6994 0.81012 0.0
C312 C 0.74583 0.25987 0.41131 0.0
C313 C 0.7621 0.22367 0.41649 0.0
C314 C 0.74763 0.27657 0.3889 0.0
C315 C 0.76545 0.25698 0.37135 0.0
C316 C 0.78208 0.22134 0.37664 0.0
C317 C 0.78084 0.2052 0.39889 0.0
C318 C 0.7649 0.27012 0.34716 0.0
C319 C 0.77222 0.31666 0.33984 0.0
C320 C 0.77472 0.33074 0.3154 0.0
C321 C 0.77331 0.3763 0.30962 0.0
C322 C 0.77625 0.39148 0.28696 0.0
C323 C 0.78048 0.36126 0.26956 0.0
H324 H 0.78295 0.26668 0.30119 0.0
C325 C 0.7822 0.31594 0.27525 0.0
C326 C 0.7798 0.30101 0.29785 0.0
H327 H 0.78649 0.2925 0.26219 0.0
H328 H 0.73098 0.27462 0.42447 0.0
H329 H 0.73351 0.30334 0.38531 0.0
H330 H 0.79587 0.20559 0.36345 0.0
H331 H 0.7935 0.1771 0.4021 0.0
H332 H 0.76009 0.24024 0.33515 0.0
H333 H 0.77732 0.34616 0.35222 0.0
H334 H 0.76979 0.40024 0.32267 0.0
H335 H 0.77461 0.42657 0.28304 0.0
C336 C 0.38195 0.78279 0.61331 0.0
C337 C 0.34607 0.7507 0.63012 0.0
C338 C 0.36637 0.7787 0.5907 0.0
C339 C 0.31453 0.74225 0.58438 0.0
C340 C 0.27901 0.70961 0.60104 0.0
C341 C 0.29439 0.71404 0.62367 0.0
C342 C 0.29631 0.73659 0.5606 0.0
C343 C 0.3159 0.77682 0.54573 0.0
C344 C 0.2937 0.77162 0.52272 0.0
C345 C 0.29291 0.81477 0.5131 0.0
C346 C 0.26912 0.8101 0.49213 0.0
C347 C 0.24654 0.76237 0.48017 0.0
H348 H 0.27416 0.69088 0.51706 0.0
C349 C 0.24957 0.71992 0.48928 0.0
C350 C 0.27278 0.72442 0.5104 0.0
H351 H 0.2328 0.68274 0.4804 0.0
H352 H 0.42238 0.81059 0.61755 0.0
H353 H 0.39524 0.80342 0.57819 0.0
H354 H 0.23888 0.6811 0.59661 0.0
H355 H 0.26545 0.68914 0.63614 0.0
H356 H 0.26279 0.69904 0.55577 0.0
H357 H 0.34571 0.81584 0.55119 0.0
H358 H 0.30931 0.85174 0.52214 0.0
H359 H 0.26797 0.84374 0.48541 0.0
C360 C 0.72962 0.45485 0.07659 0.0
C361 C 0.73728 0.50307 0.08474 0.0
C362 C 0.71143 0.43826 0.05459 0.0
C363 C 0.69984 0.46931 0.04026 0.0
C364 C 0.70652 0.51698 0.04862 0.0
C365 C 0.72492 0.53366 0.0706 0.0
C366 C 0.68386 0.45519 0.01619 0.0
C367 C 0.66541 0.40662 1.00753 0.0
C368 C 0.65173 0.39368 0.98323 0.0
C369 C 0.61651 0.34131 0.9772 0.0
C370 C 0.60295 0.32744 0.95454 0.0
C371 C 0.62474 0.36563 0.93733 0.0
H372 H 0.703 0.47224 0.96973 0.0
C373 C 0.66084 0.41788 0.9433 0.0
C374 C 0.67435 0.43177 0.96596 0.0
H375 H 0.67814 0.44833 0.93048 0.0
H376 H 0.73921 0.43051 0.08695 0.0
H377 H 0.70835 0.402 0.0488 0.0
H378 H 0.69819 0.54188 0.03799 0.0
H379 H 0.73029 0.57099 0.07632 0.0
H380 H 0.68657 0.48623 1.00533 0.0
H381 H 0.65804 0.37427 0.01866 0.0
H382 H 0.59909 0.311 0.99009 0.0
H383 H 0.57563 0.28668 0.95049 0.0
C384 C 0.38062 0.46181 0.10969 0.0
C385 C 0.35617 0.40854 0.10347 0.0
C386 C 0.43159 0.4876 0.11819 0.0
C387 C 0.45911 0.46049 0.12062 0.0
C388 C 0.43532 0.40778 0.11356 0.0
C389 C 0.38432 0.38203 0.10492 0.0
C390 C 0.51044 0.4841 0.13223 0.0
C391 C 0.54358 0.53615 0.13476 0.0
C392 C 0.59393 0.55455 0.14651 0.0
C393 C 0.64123 0.58805 0.13529 0.0
C394 C 0.68804 0.59234 0.14299 0.0
C395 C 0.6877 0.56379 0.16207 0.0
H396 H 0.55888 0.50638 0.17635 0.0
C397 C 0.64161 0.53615 0.17491 0.0
C398 C 0.59496 0.53167 0.16723 0.0
H399 H 0.64043 0.51332 0.18954 0.0
H400 H 0.35964 0.48316 0.10879 0.0
H401 H 0.44806 0.52784 0.1238 0.0
H402 H 0.45574 0.38601 0.1153 0.0
H403 H 0.36627 0.34096 0.10026 0.0
H404 H 0.52201 0.45691 0.13881 0.0
H405 H 0.53638 0.56484 0.12651 0.0
H406 H 0.64116 0.6061 0.1193 0.0
H407 H 0.72262 0.61241 0.13247 0.0
C408 C 0.07614 0.59337 0.45108 0.0
C409 C 0.04761 0.61847 0.44595 0.0
C410 C 0.05174 0.54408 0.46144 0.0
C411 C -0.00207 0.51845 0.46672 0.0
C412 C 0.96922 0.54326 0.46126 0.0
C413 C -0.00623 0.59279 0.45086 0.0
C414 C 0.97087 0.4668 0.47851 0.0
C415 C 0.9883 0.43234 0.47846 0.0
C416 C 0.95647 0.37903 0.48825 0.0
C417 C 0.95147 0.33573 0.47619 0.0
C418 C 0.9129 0.28479 0.48231 0.0
C419 C 0.87944 0.27659 0.5008 0.0
H420 H 0.93183 0.40322 0.51834 0.0
C421 C 0.88931 0.31948 0.51462 0.0
C422 C 0.92733 0.37043 0.50828 0.0
H423 H 0.86454 0.31438 0.5291 0.0
H424 H 0.11784 0.61238 0.44756 0.0
H425 H 0.07568 0.52718 0.46582 0.0
H426 H 0.92772 0.52444 0.4652 0.0
H427 H 0.97099 0.61143 0.44719 0.0
H428 H 0.93322 0.45534 0.48639 0.0
H429 H 0.02289 0.44049 0.46874 0.0
H430 H 0.97428 0.34148 0.46092 0.0
H431 H 0.90631 0.25233 0.47146 0.0
C432 C 0.35279 0.08279 0.80842 0.0
C433 C 0.37408 0.10948 0.82885 0.0
C434 C 0.35453 0.03754 0.80322 0.0
C435 C 0.37707 0.01817 0.81852 0.0
C436 C 0.39091 0.04016 0.84025 0.0
C437 C 0.38967 0.08588 0.8454 0.0
C438 C 0.39496 0.98203 0.81083 0.0
C439 C 0.42224 0.99187 0.79132 0.0
C440 C 0.45304 0.96657 0.78538 0.0
C441 C 0.50111 -0.00371 0.77396 0.0
C442 C 0.53291 0.97483 0.76933 0.0
C443 C 0.51649 0.92291 0.77563 0.0
H444 H 0.39868 0.89001 0.79961 0.0
C445 C 0.46745 0.89246 0.78627 0.0
C446 C 0.43608 0.91419 0.79124 0.0
H447 H 0.4537 0.85208 0.79114 0.0
H448 H 0.33953 0.09964 0.79554 0.0
H449 H 0.34224 0.02025 0.78656 0.0
H450 H 0.40772 0.02526 0.8524 0.0
H451 H 0.40567 0.10531 0.86141 0.0
H452 H 0.39409 0.95368 0.82286 0.0
H453 H 0.42792 0.02459 0.78072 0.0
H454 H 0.51476 0.0367 0.76916 0.0
H455 H 0.57034 -0.00114 0.76094 0.0
C456 C 0.57524 0.67087 0.73247 0.0
C457 C 0.58501 0.71373 0.74616 0.0
C458 C 0.58272 0.63094 0.74102 0.0
C459 C 0.59827 0.63274 0.76359 0.0
C460 C 0.61387 0.67849 0.77635 0.0
C461 C 0.60736 0.71884 0.76758 0.0
C462 C 0.58714 0.58307 0.77453 0.0
C463 C 0.55795 0.56685 0.79362 0.0
C464 C 0.52696 0.51062 0.79993 0.0
C465 C 0.47598 0.49088 0.80861 0.0
C466 C 0.44235 0.43675 0.81126 0.0
C467 C 0.45965 0.40177 0.80556 0.0
H468 H 0.58477 0.48993 0.78944 0.0
C469 C 0.51185 0.42177 0.79842 0.0
C470 C 0.54523 0.47574 0.79558 0.0
H471 H 0.52646 0.39561 0.79425 0.0
H472 H 0.55717 0.66583 0.716 0.0
H473 H 0.5706 0.59601 0.73087 0.0
H474 H 0.62652 0.68095 0.79374 0.0
H475 H 0.61399 0.75076 0.77857 0.0
H476 H 0.59189 0.55507 0.76429 0.0
H477 H 0.54847 0.5936 0.80233 0.0
H478 H 0.46119 0.51716 0.81223 0.0
H479 H 0.40249 0.42226 0.81706 0.0
C480 C 0.08723 0.41937 0.05067 0.0
C481 C 0.09257 0.38231 0.06362 0.0
C482 C 0.04963 0.43278 0.05662 0.0
C483 C 0.01652 0.40869 0.07536 0.0
C484 C 0.01708 0.36663 0.08621 0.0
C485 C 0.05519 0.35377 0.08051 0.0
C486 C 0.98514 0.43006 0.08536 0.0
C487 C 0.00474 0.48235 0.08734 0.0
C488 C 0.97789 0.50607 0.09975 0.0
C489 C 0.00729 0.55877 0.10689 0.0
C490 C 0.98296 0.58286 0.11804 0.0
C491 C 0.92874 0.55456 0.1221 0.0
H492 H 0.89912 0.43773 0.09852 0.0
C493 C 0.89959 0.50169 0.11534 0.0
C494 C 0.92368 0.47781 0.10416 0.0
H495 H 0.8576 0.47887 0.11815 0.0
H496 H 0.11524 0.44174 0.03744 0.0
H497 H 0.04862 0.46413 0.04746 0.0
H498 H -0.00882 0.34688 0.10043 0.0
H499 H 0.0584 0.32485 0.09066 0.0
H500 H 0.94871 0.40242 0.09373 0.0
H501 H 0.04384 0.50914 0.08077 0.0
H502 H 0.04915 0.58151 0.10365 0.0
H503 H 0.00622 0.62376 0.12295 0.0
C504 C 0.28403 0.89516 0.42626 0.0
C505 C 0.28339 0.87319 0.40511 0.0
C506 C 0.3307 0.93674 0.4347 0.0
C507 C 0.37686 0.9576 0.42173 0.0
C508 C 0.37453 0.94043 0.3994 0.0
C509 C 0.32821 0.89776 0.39127 0.0
C510 C 0.42866 0.99093 0.43216 0.0
C511 C 0.44198 0.97523 0.45121 0.0
C512 C 0.49695 0.00019 0.45912 0.0
C513 C 0.51543 0.969 0.46888 0.0
C514 C 0.56867 0.99087 0.47421 0.0
C515 C 0.60377 0.04435 0.47011 0.0
H516 H 0.51843 0.07953 0.44925 0.0
C517 C 0.58454 0.07595 0.46152 0.0
C518 C 0.53174 0.05416 0.4561 0.0
H519 H 0.61058 0.11753 0.4584 0.0
H520 H 0.25049 0.87678 0.43734 0.0
H521 H 0.33159 0.94998 0.45191 0.0
H522 H 0.40978 0.95629 0.38911 0.0
H523 H 0.32882 0.88091 0.37502 0.0
H524 H 0.45855 0.0231 0.42212 0.0
H525 H 0.41304 0.93914 0.45957 0.0
H526 H 0.48907 0.9273 0.47154 0.0
H527 H 0.5825 0.96584 0.48097 0.0
C528 C 0.29783 0.23891 0.88521 0.0
C529 C 0.34676 0.27603 0.87598 0.0
C530 C 0.2807 0.24895 0.90588 0.0
C531 C 0.31205 0.29668 0.9174 0.0
C532 C 0.3602 0.33392 0.90779 0.0
C533 C 0.37757 0.32361 0.88752 0.0
C534 C 0.29663 0.31042 0.93922 0.0
C535 C 0.26508 0.27538 0.95497 0.0
C536 C 0.25705 0.2921 0.9778 0.0
C537 C 0.21083 0.25985 0.99012 0.0
C538 C 0.20266 0.27529 0.01155 0.0
C539 C 0.24083 0.3232 0.02111 0.0
H540 H 0.33313 0.36399 0.97953 0.0
C541 C 0.28763 0.35455 1.00903 0.0
C542 C 0.29583 0.3391 0.98781 0.0
H543 H 0.31838 0.39127 0.01598 0.0
H544 H 0.27319 0.20194 0.87665 0.0
H545 H 0.24285 0.21975 0.91256 0.0
H546 H 0.38503 0.37111 0.91619 0.0
H547 H 0.41524 0.35334 0.88082 0.0
H548 H 0.31495 0.35212 0.94289 0.0
H549 H 0.24537 0.23356 0.95136 0.0
H550 H 0.18065 0.22301 0.98302 0.0
H551 H 0.16626 0.25008 0.02045 0.0
C552 C 0.94406 0.12465 0.34963 0.0
C553 C 0.91705 0.14701 0.36018 0.0
C554 C 0.9615 0.1372 0.32717 0.0
C555 C 0.95226 0.1724 0.31463 0.0
C556 C 0.92624 0.19552 0.32529 0.0
C557 C 0.90855 0.18278 0.3477 0.0
C558 C 0.97045 0.18696 0.29069 0.0
C559 C 0.9768 0.15486 0.27635 0.0
C560 C -0.00536 0.1683 0.25232 0.0
C561 C 0.98374 0.12723 0.2372 0.0
C562 C 0.00178 0.13774 0.2148 0.0
C563 C 0.03184 0.18979 0.20691 0.0
H564 H 0.03467 0.2534 0.25561 0.0
C565 C 0.04239 0.23104 0.22197 0.0
C566 C 0.02413 0.22049 0.24441 0.0
H567 H 0.0662 0.27164 0.21665 0.0
H568 H 0.9524 0.09789 0.35883 0.0
H569 H 0.98302 0.11992 0.3199 0.0
H570 H 0.91884 0.22301 0.31613 0.0
H571 H 0.88737 0.20035 0.3551 0.0
H572 H 0.97607 0.22418 0.2845 0.0
H573 H 0.96642 0.11574 0.28209 0.0
H574 H 0.96122 0.08666 0.24275 0.0
H575 H -0.00784 0.1049 0.20366 0.0
C576 C 0.67146 0.93306 0.68527 0.0
C577 C 0.62163 0.91747 0.69446 0.0
C578 C 0.68731 0.96078 0.66465 0.0
C579 C 0.65379 0.97401 0.65311 0.0
C580 C 0.60474 0.95948 0.66269 0.0
C581 C 0.58863 0.93116 0.68291 0.0
C582 C 0.66809 0.00376 0.63138 0.0
C583 C 0.69967 0.00139 0.6154 0.0
C584 C 0.70801 0.02678 0.59262 0.0
C585 C 0.75217 0.03685 0.5796 0.0
C586 C 0.76054 0.05991 0.55803 0.0
C587 C 0.72471 0.07322 0.54898 0.0
H588 H 0.63586 0.03009 0.592 0.0
C589 C 0.68015 0.06231 0.56185 0.0
C590 C 0.67166 0.03911 0.58323 0.0
H591 H 0.65122 0.07125 0.55534 0.0
H592 H 0.69778 0.92313 0.6938 0.0
H593 H 0.72588 0.97234 0.658 0.0
H594 H 0.57825 0.96942 0.65429 0.0
H595 H 0.55016 0.92022 0.68957 0.0
H596 H 0.64903 0.02639 0.62811 0.0
H597 H 0.71936 0.97936 0.61881 0.0
H598 H 0.7805 0.02715 0.58619 0.0
H599 H 0.79522 0.06762 0.54856 0.0
C600 C 0.71311 0.80697 0.89479 0.0
C601 C 0.75303 0.83871 0.87929 0.0
C602 C 0.72536 0.79647 0.91635 0.0
C603 C 0.77807 0.81797 0.92309 0.0
C604 C 0.81783 0.8493 0.9075 0.0
C605 C 0.80557 0.85957 0.88593 0.0
C606 C 0.79376 0.80819 0.94584 0.0
C607 C 0.76075 0.78668 0.96366 0.0
C608 C 0.77649 0.77728 0.98648 0.0
C609 C 0.74038 0.76285 1.00446 0.0
C610 C 0.75266 0.75304 0.02611 0.0
C611 C 0.80156 0.75751 0.03041 0.0
H612 H 0.85413 0.7907 0.97752 0.0
C613 C 0.83774 0.77172 0.01248 0.0
C614 C 0.82535 0.78118 0.99076 0.0
H615 H 0.8754 0.77455 0.01515 0.0
H616 H 0.67218 0.79054 0.89038 0.0
H617 H 0.69312 0.77111 0.92738 0.0
H618 H 0.85878 0.86604 0.91199 0.0
H619 H 0.83741 0.88336 0.87435 0.0
H620 H 0.83498 0.82107 0.94792 0.0
H621 H 0.72018 0.77662 0.96195 0.0
H622 H 0.70237 0.75924 1.00179 0.0
H623 H 0.72402 0.74253 0.03958 0.0
C624 C 0.06306 0.69335 0.34035 0.0
C625 C 0.07139 0.73378 0.35546 0.0
C626 C 0.03857 0.68809 0.31954 0.0
C627 C 0.02131 0.72292 0.3132 0.0
C628 C 0.03036 0.76395 0.32806 0.0
C629 C 0.05479 0.76914 0.34906 0.0
C630 C -0.00513 0.71742 0.291 0.0
C631 C 0.96418 0.66994 0.28144 0.0
C632 C 0.93788 0.66031 0.25899 0.0
C633 C 0.89692 0.6092 0.25445 0.0
C634 C 0.87397 0.59575 0.2331 0.0
C635 C 0.89161 0.63284 0.21543 0.0
H636 H 0.9864 0.73812 0.24436 0.0
C637 C 0.93128 0.68478 0.22002 0.0
C638 C 0.95445 0.69844 0.24163 0.0
H639 H 0.94565 0.71425 0.20675 0.0
H640 H 0.07573 0.66564 0.34449 0.0
H641 H 0.03406 0.65707 0.30828 0.0
H642 H 0.01801 0.79171 0.32352 0.0
H643 H 0.06101 0.80104 0.36017 0.0
H644 H -0.00072 0.7526 0.28297 0.0
H645 H 0.95658 0.63512 0.29092 0.0
H646 H 0.88301 0.57901 0.26743 0.0
H647 H 0.84247 0.5558 0.23044 0.0
C648 C 0.22303 0.10484 0.67048 0.0
C649 C 0.22406 0.07855 0.69019 0.0
C650 C 0.21326 0.08026 0.64933 0.0
C651 C 0.20416 0.02866 0.64742 0.0
C652 C 0.20456 0.00221 0.66715 0.0
C653 C 0.21488 0.027 0.68828 0.0
C654 C 0.19193 0.00066 0.62531 0.0
C655 C 0.21005 0.02558 0.6053 0.0
C656 C 0.19737 -0.00209 0.58311 0.0
C657 C 0.23258 0.02099 0.56493 0.0
C658 C 0.2212 -0.00294 0.54361 0.0
C659 C 0.17383 0.94989 0.53987 0.0
H660 H 0.12124 0.93222 0.59281 0.0
C661 C 0.13839 0.92689 0.55801 0.0
C662 C 0.15001 0.95054 0.57941 0.0
H663 H 0.10164 0.89046 0.55568 0.0
H664 H 0.23017 0.14466 0.67139 0.0
H665 H 0.21188 0.10145 0.63462 0.0
H666 H 0.19711 0.96227 0.66621 0.0
H667 H 0.21484 0.00552 0.70318 0.0
H668 H 0.16919 0.95799 0.62572 0.0
H669 H 0.23708 0.06777 0.60513 0.0
H670 H 0.26908 0.05772 0.56723 0.0
H671 H 0.24902 0.01608 0.5299 0.0
loop_
_geom_bond_atom_site_label_1
_geom_bond_atom_site_label_2
_geom_bond_distance
_geom_bond_site_symmetry_2
_ccdc_geom_bond_type
Pr0 C2 2.880 . S
Pr0 O20 2.562 . S
Pr0 O21 2.490 . S
Pr0 O22 2.695 . S
Pr0 O23 2.512 . S
Pr0 O25 2.437 . S
Pr0 O28 2.436 . S
Pr0 O30 2.438 . S
Pr1 C11 2.880 . S
Pr1 O22 2.436 . S
Pr1 O24 2.438 . S
Pr1 O26 2.562 . S
Pr1 O27 2.490 . S
Pr1 O28 2.695 . S
Pr1 O29 2.512 . S
Pr1 O31 2.437 . S
C2 Pr0 2.880 . S
C2 C3 1.505 . S
C2 O20 1.254 . S
C2 O21 1.225 . S
C3 C2 1.505 . S
C3 C4 1.384 1_554 S
C3 C8 1.350 1_554 S
C4 C3 1.384 1_556 S
C4 C5 1.368 . S
C4 H32 0.929 . S
C5 C4 1.368 . S
C5 C6 1.386 . S
C5 H33 0.929 . S
C6 C5 1.386 . S
C6 C7 1.373 . S
C7 C6 1.373 . S
C7 C8 1.409 . S
C7 H34 0.931 . S
C8 C3 1.350 1_556 S
C8 C7 1.409 . S
C8 H35 0.929 1_556 S
C9 O22 1.270 . S
C9 O23 1.248 . S
C10 O24 1.267 . S
C10 O25 1.278 . S
C11 Pr1 2.880 . S
C11 C12 1.491 . S
C11 O26 1.254 . S
C11 O27 1.225 . S
C12 C11 1.491 . S
C12 C13 1.392 . S
C12 C17 1.356 . S
C13 C12 1.392 . S
C13 C14 1.368 . S
C13 H36 0.929 . S
C14 C13 1.368 . S
C14 C15 1.386 . S
C14 H37 0.929 . S
C15 C14 1.386 . S
C15 C16 1.373 . S
C16 C15 1.373 . S
C16 C17 1.409 . S
C16 H38 0.931 . S
C17 C12 1.356 . S
C17 C16 1.409 . S
C17 H39 0.930 . S
C18 O28 1.270 . S
C18 O29 1.248 . S
C19 O30 1.267 . S
C19 O31 1.278 . S
O20 Pr0 2.562 . S
O20 C2 1.254 . S
O21 Pr0 2.490 . S
O21 C2 1.225 . S
O22 Pr0 2.695 . S
O22 Pr1 2.436 . S
O22 C9 1.270 . S
O23 Pr0 2.512 . S
O23 C9 1.248 . S
O24 Pr1 2.438 . S
O24 C10 1.267 . S
O25 Pr0 2.437 . S
O25 C10 1.278 . S
O26 Pr1 2.562 . S
O26 C11 1.254 . S
O27 Pr1 2.490 . S
O27 C11 1.225 . S
O28 Pr0 2.436 . S
O28 Pr1 2.695 . S
O28 C18 1.270 . S
O29 Pr1 2.512 . S
O29 C18 1.248 . S
O30 Pr0 2.438 . S
O30 C19 1.267 . S
O31 Pr1 2.437 . S
O31 C19 1.278 . S
H32 C4 0.929 . S
H33 C5 0.929 . S
H34 C7 0.931 . S
H35 C8 0.929 1_554 S
H36 C13 0.929 . S
H37 C14 0.929 . S
H38 C16 0.931 . S
H39 C17 0.930 . S
Pr40 C42 2.880 . S
Pr40 O60 2.562 . S
Pr40 O61 2.490 . S
Pr40 O62 2.695 . S
Pr40 O63 2.512 . S
Pr40 O65 2.437 . S
Pr40 O68 2.436 . S
Pr40 O70 2.438 . S
Pr41 C51 2.880 . S
Pr41 O62 2.436 . S
Pr41 O64 2.438 . S
Pr41 O66 2.562 . S
Pr41 O67 2.490 . S
Pr41 O68 2.695 . S
Pr41 O69 2.512 . S
Pr41 O71 2.437 . S
C42 Pr40 2.880 . S
C42 C43 1.491 . S
C42 O60 1.254 . S
C42 O61 1.225 . S
C43 C42 1.491 . S
C43 C44 1.392 . S
C43 C48 1.356 . S
C44 C43 1.392 . S
C44 C45 1.368 . S
C44 H72 0.929 . S
C45 C44 1.368 . S
C45 C46 1.386 . S
C45 H73 0.929 . S
C46 C45 1.386 . S
C46 C47 1.373 . S
C47 C46 1.373 . S
C47 C48 1.409 . S
C47 H74 0.931 . S
C48 C43 1.356 . S
C48 C47 1.409 . S
C48 H75 0.930 . S
C49 O62 1.270 . S
C49 O63 1.248 . S
C50 O64 1.267 . S
C50 O65 1.278 . S
C51 Pr41 2.880 . S
C51 C52 1.491 . S
C51 O66 1.254 . S
C51 O67 1.225 . S
C52 C51 1.491 . S
C52 C53 1.392 . S
C52 C57 1.356 . S
C53 C52 1.392 . S
C53 C54 1.368 . S
C53 H76 0.929 . S
C54 C53 1.368 . S
C54 C55 1.386 . S
C54 H77 0.929 . S
C55 C54 1.386 . S
C55 C56 1.373 . S
C56 C55 1.373 . S
C56 C57 1.409 . S
C56 H78 0.931 . S
C57 C52 1.356 . S
C57 C56 1.409 . S
C57 H79 0.930 . S
C58 O68 1.270 . S
C58 O69 1.248 . S
C59 O70 1.267 . S
C59 O71 1.278 . S
O60 Pr40 2.562 . S
O60 C42 1.254 . S
O61 Pr40 2.490 . S
O61 C42 1.225 . S
O62 Pr40 2.695 . S
O62 Pr41 2.436 . S
O62 C49 1.270 . S
O63 Pr40 2.512 . S
O63 C49 1.248 . S
O64 Pr41 2.438 . S
O64 C50 1.267 . S
O65 Pr40 2.437 . S
O65 C50 1.278 . S
O66 Pr41 2.562 . S
O66 C51 1.254 . S
O67 Pr41 2.490 . S
O67 C51 1.225 . S
O68 Pr40 2.436 . S
O68 Pr41 2.695 . S
O68 C58 1.270 . S
O69 Pr41 2.512 . S
O69 C58 1.248 . S
O70 Pr40 2.438 . S
O70 C59 1.267 . S
O71 Pr41 2.437 . S
O71 C59 1.278 . S
H72 C44 0.929 . S
H73 C45 0.929 . S
H74 C47 0.931 . S
H75 C48 0.930 . S
H76 C53 0.929 . S
H77 C54 0.929 . S
H78 C56 0.931 . S
H79 C57 0.930 . S
Pr80 C82 2.880 . S
Pr80 O100 2.562 . S
Pr80 O101 2.490 . S
Pr80 O102 2.695 . S
Pr80 O103 2.512 . S
Pr80 O105 2.437 . S
Pr80 O108 2.436 . S
Pr80 O110 2.438 . S
Pr81 C91 2.880 . S
Pr81 O102 2.436 . S
Pr81 O104 2.438 . S
Pr81 O106 2.562 . S
Pr81 O107 2.490 . S
Pr81 O108 2.695 . S
Pr81 O109 2.512 . S
Pr81 O111 2.437 . S
C82 Pr80 2.880 . S
C82 C83 1.491 . S
C82 O100 1.254 . S
C82 O101 1.225 . S
C83 C82 1.491 . S
C83 C84 1.392 . S
C83 C88 1.356 . S
C84 C83 1.392 . S
C84 C85 1.368 . S
C84 H112 0.929 . S
C85 C84 1.368 . S
C85 C86 1.386 . S
C85 H113 0.929 . S
C86 C85 1.386 . S
C86 C87 1.373 . S
C87 C86 1.373 . S
C87 C88 1.409 . S
C87 H114 0.931 . S
C88 C83 1.356 . S
C88 C87 1.409 . S
C88 H115 0.930 . S
C89 O102 1.270 . S
C89 O103 1.248 . S
C90 O104 1.267 . S
C90 O105 1.278 . S
C91 Pr81 2.880 . S
C91 C92 1.491 . S
C91 O106 1.254 . S
C91 O107 1.225 . S
C92 C91 1.491 . S
C92 C93 1.392 . S
C92 C97 1.356 . S
C93 C92 1.392 . S
C93 C94 1.368 . S
C93 H116 0.929 . S
C94 C93 1.368 . S
C94 C95 1.386 . S
C94 H117 0.929 . S
C95 C94 1.386 . S
C95 C96 1.373 . S
C96 C95 1.373 . S
C96 C97 1.409 . S
C96 H118 0.931 . S
C97 C92 1.356 . S
C97 C96 1.409 . S
C97 H119 0.930 . S
C98 O108 1.270 . S
C98 O109 1.248 . S
C99 O110 1.267 . S
C99 O111 1.278 . S
O100 Pr80 2.562 . S
O100 C82 1.254 . S
O101 Pr80 2.490 . S
O101 C82 1.225 . S
O102 Pr80 2.695 . S
O102 Pr81 2.436 . S
O102 C89 1.270 . S
O103 Pr80 2.512 . S
O103 C89 1.248 . S
O104 Pr81 2.438 . S
O104 C90 1.267 . S
O105 Pr80 2.437 . S
O105 C90 1.278 . S
O106 Pr81 2.562 . S
O106 C91 1.254 . S
O107 Pr81 2.490 . S
O107 C91 1.225 . S
O108 Pr80 2.436 . S
O108 Pr81 2.695 . S
O108 C98 1.270 . S
O109 Pr81 2.512 . S
O109 C98 1.248 . S
O110 Pr80 2.438 . S
O110 C99 1.267 . S
O111 Pr81 2.437 . S
O111 C99 1.278 . S
H112 C84 0.929 . S
H113 C85 0.929 . S
H114 C87 0.931 . S
H115 C88 0.930 . S
H116 C93 0.929 . S
H117 C94 0.929 . S
H118 C96 0.931 . S
H119 C97 0.930 . S
Pr120 C122 2.880 . S
Pr120 O140 2.562 . S
Pr120 O141 2.490 . S
Pr120 O142 2.695 . S
Pr120 O143 2.512 . S
Pr120 O145 2.437 . S
Pr120 O148 2.436 . S
Pr120 O150 2.438 . S
Pr121 C131 2.880 . S
Pr121 O142 2.436 . S
Pr121 O144 2.438 . S
Pr121 O146 2.562 . S
Pr121 O147 2.490 . S
Pr121 O148 2.695 . S
Pr121 O149 2.512 . S
Pr121 O151 2.437 . S
C122 Pr120 2.880 . S
C122 C123 1.491 . S
C122 O140 1.254 . S
C122 O141 1.225 . S
C123 C122 1.491 . S
C123 C124 1.392 . S
C123 C128 1.356 . S
C124 C123 1.392 . S
C124 C125 1.368 . S
C124 H152 0.929 . S
C125 C124 1.368 . S
C125 C126 1.386 . S
C125 H153 0.929 . S
C126 C125 1.386 . S
C126 C127 1.373 . S
C127 C126 1.373 . S
C127 C128 1.409 . S
C127 H154 0.931 . S
C128 C123 1.356 . S
C128 C127 1.409 . S
C128 H155 0.930 . S
C129 O142 1.270 . S
C129 O143 1.248 . S
C130 O144 1.267 . S
C130 O145 1.278 . S
C131 Pr121 2.880 . S
C131 C132 1.491 . S
C131 O146 1.254 . S
C131 O147 1.225 . S
C132 C131 1.491 . S
C132 C133 1.392 . S
C132 C137 1.356 . S
C133 C132 1.392 . S
C133 C134 1.368 . S
C133 H156 0.929 . S
C134 C133 1.368 . S
C134 C135 1.386 . S
C134 H157 0.929 . S
C135 C134 1.386 . S
C135 C136 1.373 . S
C136 C135 1.373 . S
C136 C137 1.409 . S
C136 H158 0.931 . S
C137 C132 1.356 . S
C137 C136 1.409 . S
C137 H159 0.930 . S
C138 O148 1.270 . S
C138 O149 1.248 . S
C139 O150 1.267 . S
C139 O151 1.278 . S
O140 Pr120 2.562 . S
O140 C122 1.254 . S
O141 Pr120 2.490 . S
O141 C122 1.225 . S
O142 Pr120 2.695 . S
O142 Pr121 2.436 . S
O142 C129 1.270 . S
O143 Pr120 2.512 . S
O143 C129 1.248 . S
O144 Pr121 2.438 . S
O144 C130 1.267 . S
O145 Pr120 2.437 . S
O145 C130 1.278 . S
O146 Pr121 2.562 . S
O146 C131 1.254 . S
O147 Pr121 2.490 . S
O147 C131 1.225 . S
O148 Pr120 2.436 . S
O148 Pr121 2.695 . S
O148 C138 1.270 . S
O149 Pr121 2.512 . S
O149 C138 1.248 . S
O150 Pr120 2.438 . S
O150 C139 1.267 . S
O151 Pr121 2.437 . S
O151 C139 1.278 . S
H152 C124 0.929 . S
H153 C125 0.929 . S
H154 C127 0.931 . S
H155 C128 0.930 . S
H156 C133 0.929 . S
H157 C134 0.929 . S
H158 C136 0.931 . S
H159 C137 0.930 . S
Pr160 C162 2.880 . S
Pr160 O180 2.562 . S
Pr160 O181 2.490 . S
Pr160 O182 2.695 . S
Pr160 O183 2.512 . S
Pr160 O185 2.437 . S
Pr160 O188 2.436 . S
Pr160 O190 2.438 . S
Pr161 C171 2.880 . S
Pr161 O182 2.436 . S
Pr161 O184 2.438 . S
Pr161 O186 2.562 . S
Pr161 O187 2.490 . S
Pr161 O188 2.695 . S
Pr161 O189 2.512 . S
Pr161 O191 2.437 . S
C162 Pr160 2.880 . S
C162 C163 1.491 . S
C162 O180 1.254 . S
C162 O181 1.225 . S
C163 C162 1.491 . S
C163 C164 1.392 . S
C163 C168 1.356 . S
C164 C163 1.392 . S
C164 C165 1.368 . S
C164 H192 0.929 . S
C165 C164 1.368 . S
C165 C166 1.386 . S
C165 H193 0.929 . S
C166 C165 1.386 . S
C166 C167 1.373 . S
C167 C166 1.373 . S
C167 C168 1.409 . S
C167 H194 0.931 . S
C168 C163 1.356 . S
C168 C167 1.409 . S
C168 H195 0.930 . S
C169 O182 1.270 . S
C169 O183 1.248 . S
C170 O184 1.267 . S
C170 O185 1.278 . S
C171 Pr161 2.880 . S
C171 C172 1.491 . S
C171 O186 1.254 . S
C171 O187 1.225 . S
C172 C171 1.491 . S
C172 C173 1.392 . S
C172 C177 1.356 . S
C173 C172 1.392 . S
C173 C174 1.368 . S
C173 H196 0.929 . S
C174 C173 1.368 . S
C174 C175 1.386 . S
C174 H197 0.929 . S
C175 C174 1.386 . S
C175 C176 1.373 . S
C176 C175 1.373 . S
C176 C177 1.409 . S
C176 H198 0.931 . S
C177 C172 1.356 . S
C177 C176 1.409 . S
C177 H199 0.930 . S
C178 O188 1.270 . S
C178 O189 1.248 . S
C179 O190 1.267 . S
C179 O191 1.278 . S
O180 Pr160 2.562 . S
O180 C162 1.254 . S
O181 Pr160 2.490 . S
O181 C162 1.225 . S
O182 Pr160 2.695 . S
O182 Pr161 2.436 . S
O182 C169 1.270 . S
O183 Pr160 2.512 . S
O183 C169 1.248 . S
O184 Pr161 2.438 . S
O184 C170 1.267 . S
O185 Pr160 2.437 . S
O185 C170 1.278 . S
O186 Pr161 2.562 . S
O186 C171 1.254 . S
O187 Pr161 2.490 . S
O187 C171 1.225 . S
O188 Pr160 2.436 . S
O188 Pr161 2.695 . S
O188 C178 1.270 . S
O189 Pr161 2.512 . S
O189 C178 1.248 . S
O190 Pr160 2.438 . S
O190 C179 1.267 . S
O191 Pr161 2.437 . S
O191 C179 1.278 . S
H192 C164 0.929 . S
H193 C165 0.929 . S
H194 C167 0.931 . S
H195 C168 0.930 . S
H196 C173 0.929 . S
H197 C174 0.929 . S
H198 C176 0.931 . S
H199 C177 0.930 . S
Pr200 C202 2.880 . S
Pr200 O220 2.562 . S
Pr200 O221 2.490 . S
Pr200 O222 2.695 . S
Pr200 O223 2.512 . S
Pr200 O225 2.437 . S
Pr200 O228 2.436 . S
Pr200 O230 2.438 . S
Pr201 C211 2.880 . S
Pr201 O222 2.436 . S
Pr201 O224 2.438 . S
Pr201 O226 2.562 . S
Pr201 O227 2.490 . S
Pr201 O228 2.695 . S
Pr201 O229 2.512 . S
Pr201 O231 2.437 . S
C202 Pr200 2.880 . S
C202 C203 1.491 . S
C202 O220 1.254 . S
C202 O221 1.225 . S
C203 C202 1.491 . S
C203 C204 1.392 . S
C203 C208 1.356 . S
C204 C203 1.392 . S
C204 C205 1.368 . S
C204 H232 0.929 . S
C205 C204 1.368 . S
C205 C206 1.386 . S
C205 H233 0.929 . S
C206 C205 1.386 . S
C206 C207 1.373 . S
C207 C206 1.373 . S
C207 C208 1.409 . S
C207 H234 0.931 . S
C208 C203 1.356 . S
C208 C207 1.409 . S
C208 H235 0.930 . S
C209 O222 1.270 . S
C209 O223 1.248 . S
C210 O224 1.267 . S
C210 O225 1.278 . S
C211 Pr201 2.880 . S
C211 C212 1.491 . S
C211 O226 1.254 . S
C211 O227 1.225 . S
C212 C211 1.491 . S
C212 C213 1.392 . S
C212 C217 1.356 . S
C213 C212 1.392 . S
C213 C214 1.368 . S
C213 H236 0.929 . S
C214 C213 1.368 . S
C214 C215 1.386 . S
C214 H237 0.929 . S
C215 C214 1.386 . S
C215 C216 1.373 . S
C216 C215 1.373 . S
C216 C217 1.409 . S
C216 H238 0.931 . S
C217 C212 1.356 . S
C217 C216 1.409 . S
C217 H239 0.930 . S
C218 O228 1.270 . S
C218 O229 1.248 . S
C219 O230 1.267 . S
C219 O231 1.278 . S
O220 Pr200 2.562 . S
O220 C202 1.254 . S
O221 Pr200 2.490 . S
O221 C202 1.225 . S
O222 Pr200 2.695 . S
O222 Pr201 2.436 . S
O222 C209 1.270 . S
O223 Pr200 2.512 . S
O223 C209 1.248 . S
O224 Pr201 2.438 . S
O224 C210 1.267 . S
O225 Pr200 2.437 . S
O225 C210 1.278 . S
O226 Pr201 2.562 . S
O226 C211 1.254 . S
O227 Pr201 2.490 . S
O227 C211 1.225 . S
O228 Pr200 2.436 . S
O228 Pr201 2.695 . S
O228 C218 1.270 . S
O229 Pr201 2.512 . S
O229 C218 1.248 . S
O230 Pr200 2.438 . S
O230 C219 1.267 . S
O231 Pr201 2.437 . S
O231 C219 1.278 . S
H232 C204 0.929 . S
H233 C205 0.929 . S
H234 C207 0.931 . S
H235 C208 0.930 . S
H236 C213 0.929 . S
H237 C214 0.929 . S
H238 C216 0.931 . S
H239 C217 0.930 . S
C240 C241 1.386 . S
C240 C242 1.383 . S
C240 H256 0.951 . S
C241 C240 1.386 . S
C241 C245 1.383 . S
C242 C240 1.383 . S
C242 C243 1.402 . S
C242 H257 0.951 . S
C243 C242 1.402 . S
C243 C244 1.375 . S
C243 C246 1.481 . S
C244 C243 1.375 . S
C244 C245 1.367 . S
C244 H258 0.951 . S
C245 C241 1.383 . S
C245 C244 1.367 . S
C245 H259 0.950 . S
C246 C243 1.481 . S
C246 C247 1.297 . S
C246 H260 0.950 . S
C247 C246 1.297 . S
C247 C248 1.479 . S
C247 H261 0.950 . S
C248 C247 1.479 . S
C248 C249 1.375 . S
C248 C254 1.404 . S
C249 C248 1.375 . S
C249 C250 1.369 . S
C249 H262 0.950 . S
C250 C249 1.369 . S
C250 C251 1.392 . S
C250 H263 0.951 . S
C251 C250 1.392 . S
C251 C253 1.384 . S
H252 C254 0.949 . S
C253 C251 1.384 . S
C253 C254 1.385 . S
C253 H255 0.950 . S
C254 C248 1.404 . S
C254 H252 0.949 . S
C254 C253 1.385 . S
H255 C253 0.950 . S
H256 C240 0.951 . S
H257 C242 0.951 . S
H258 C244 0.951 . S
H259 C245 0.950 . S
H260 C246 0.950 . S
H261 C247 0.950 . S
H262 C249 0.950 . S
H263 C250 0.951 . S
C264 C265 1.386 . S
C264 C266 1.383 . S
C264 H280 0.951 . S
C265 C264 1.386 . S
C265 C269 1.383 . S
C266 C264 1.383 . S
C266 C267 1.402 . S
C266 H281 0.951 . S
C267 C266 1.402 . S
C267 C268 1.375 . S
C267 C270 1.481 . S
C268 C267 1.375 . S
C268 C269 1.367 . S
C268 H282 0.951 . S
C269 C265 1.383 . S
C269 C268 1.367 . S
C269 H283 0.950 . S
C270 C267 1.481 . S
C270 C271 1.297 . S
C270 H284 0.950 . S
C271 C270 1.297 . S
C271 C272 1.479 . S
C271 H285 0.950 . S
C272 C271 1.479 . S
C272 C273 1.375 . S
C272 C278 1.404 . S
C273 C272 1.375 . S
C273 C274 1.369 . S
C273 H286 0.950 . S
C274 C273 1.369 . S
C274 C275 1.392 . S
C274 H287 0.951 . S
C275 C274 1.392 . S
C275 C277 1.384 . S
H276 C278 0.949 . S
C277 C275 1.384 . S
C277 C278 1.385 . S
C277 H279 0.950 . S
C278 C272 1.404 . S
C278 H276 0.949 . S
C278 C277 1.385 . S
H279 C277 0.950 . S
H280 C264 0.951 . S
H281 C266 0.951 . S
H282 C268 0.951 . S
H283 C269 0.950 . S
H284 C270 0.950 . S
H285 C271 0.950 . S
H286 C273 0.950 . S
H287 C274 0.951 . S
C288 C289 1.386 . S
C288 C290 1.383 . S
C288 H304 0.951 . S
C289 C288 1.386 . S
C289 C293 1.383 . S
C290 C288 1.383 . S
C290 C291 1.402 . S
C290 H305 0.951 . S
C291 C290 1.402 . S
C291 C292 1.375 . S
C291 C294 1.481 . S
C292 C291 1.375 . S
C292 C293 1.367 . S
C292 H306 0.951 . S
C293 C289 1.383 . S
C293 C292 1.367 . S
C293 H307 0.950 . S
C294 C291 1.481 . S
C294 C295 1.297 . S
C294 H308 0.950 . S
C295 C294 1.297 . S
C295 C296 1.479 . S
C295 H309 0.950 . S
C296 C295 1.479 . S
C296 C297 1.375 . S
C296 C302 1.404 . S
C297 C296 1.375 . S
C297 C298 1.369 . S
C297 H310 0.950 . S
C298 C297 1.369 . S
C298 C299 1.392 . S
C298 H311 0.951 . S
C299 C298 1.392 . S
C299 C301 1.384 . S
H300 C302 0.949 . S
C301 C299 1.384 . S
C301 C302 1.385 . S
C301 H303 0.950 . S
C302 C296 1.404 . S
C302 H300 0.949 . S
C302 C301 1.385 . S
H303 C301 0.950 . S
H304 C288 0.951 . S
H305 C290 0.951 . S
H306 C292 0.951 . S
H307 C293 0.950 . S
H308 C294 0.950 . S
H309 C295 0.950 . S
H310 C297 0.950 . S
H311 C298 0.951 . S
C312 C313 1.386 . S
C312 C314 1.383 . S
C312 H328 0.951 . S
C313 C312 1.386 . S
C313 C317 1.383 . S
C314 C312 1.383 . S
C314 C315 1.402 . S
C314 H329 0.951 . S
C315 C314 1.402 . S
C315 C316 1.375 . S
C315 C318 1.481 . S
C316 C315 1.375 . S
C316 C317 1.367 . S
C316 H330 0.951 . S
C317 C313 1.383 . S
C317 C316 1.367 . S
C317 H331 0.950 . S
C318 C315 1.481 . S
C318 C319 1.297 . S
C318 H332 0.950 . S
C319 C318 1.297 . S
C319 C320 1.479 . S
C319 H333 0.950 . S
C320 C319 1.479 . S
C320 C321 1.375 . S
C320 C326 1.404 . S
C321 C320 1.375 . S
C321 C322 1.369 . S
C321 H334 0.950 . S
C322 C321 1.369 . S
C322 C323 1.392 . S
C322 H335 0.951 . S
C323 C322 1.392 . S
C323 C325 1.384 . S
H324 C326 0.949 . S
C325 C323 1.384 . S
C325 C326 1.385 . S
C325 H327 0.950 . S
C326 C320 1.404 . S
C326 H324 0.949 . S
C326 C325 1.385 . S
H327 C325 0.950 . S
H328 C312 0.951 . S
H329 C314 0.951 . S
H330 C316 0.951 . S
H331 C317 0.950 . S
H332 C318 0.950 . S
H333 C319 0.950 . S
H334 C321 0.950 . S
H335 C322 0.951 . S
C336 C337 1.386 . S
C336 C338 1.383 . S
C336 H352 0.951 . S
C337 C336 1.386 . S
C337 C341 1.383 . S
C338 C336 1.383 . S
C338 C339 1.402 . S
C338 H353 0.951 . S
C339 C338 1.402 . S
C339 C340 1.375 . S
C339 C342 1.481 . S
C340 C339 1.375 . S
C340 C341 1.367 . S
C340 H354 0.951 . S
C341 C337 1.383 . S
C341 C340 1.367 . S
C341 H355 0.950 . S
C342 C339 1.481 . S
C342 C343 1.297 . S
C342 H356 0.950 . S
C343 C342 1.297 . S
C343 C344 1.479 . S
C343 H357 0.950 . S
C344 C343 1.479 . S
C344 C345 1.375 . S
C344 C350 1.404 . S
C345 C344 1.375 . S
C345 C346 1.369 . S
C345 H358 0.950 . S
C346 C345 1.369 . S
C346 C347 1.392 . S
C346 H359 0.951 . S
C347 C346 1.392 . S
C347 C349 1.384 . S
H348 C350 0.949 . S
C349 C347 1.384 . S
C349 C350 1.385 . S
C349 H351 0.950 . S
C350 C344 1.404 . S
C350 H348 0.949 . S
C350 C349 1.385 . S
H351 C349 0.950 . S
H352 C336 0.951 . S
H353 C338 0.951 . S
H354 C340 0.951 . S
H355 C341 0.950 . S
H356 C342 0.950 . S
H357 C343 0.950 . S
H358 C345 0.950 . S
H359 C346 0.951 . S
C360 C361 1.386 . S
C360 C362 1.383 . S
C360 H376 0.951 . S
C361 C360 1.386 . S
C361 C365 1.383 . S
C362 C360 1.383 . S
C362 C363 1.402 . S
C362 H377 0.951 . S
C363 C362 1.402 . S
C363 C364 1.375 . S
C363 C366 1.481 . S
C364 C363 1.375 . S
C364 C365 1.367 . S
C364 H378 0.951 . S
C365 C361 1.383 . S
C365 C364 1.367 . S
C365 H379 0.950 . S
C366 C363 1.481 . S
C366 C367 1.297 . S
C366 H380 0.950 1_554 S
C367 C366 1.297 . S
C367 C368 1.479 1_554 S
C367 H381 0.950 . S
C368 C367 1.479 1_556 S
C368 C369 1.375 . S
C368 C374 1.404 . S
C369 C368 1.375 . S
C369 C370 1.369 . S
C369 H382 0.950 . S
C370 C369 1.369 . S
C370 C371 1.392 . S
C370 H383 0.951 . S
C371 C370 1.392 . S
C371 C373 1.384 . S
H372 C374 0.949 . S
C373 C371 1.384 . S
C373 C374 1.385 . S
C373 H375 0.950 . S
C374 C368 1.404 . S
C374 H372 0.949 . S
C374 C373 1.385 . S
H375 C373 0.950 . S
H376 C360 0.951 . S
H377 C362 0.951 . S
H378 C364 0.951 . S
H379 C365 0.950 . S
H380 C366 0.950 1_556 S
H381 C367 0.950 . S
H382 C369 0.950 . S
H383 C370 0.951 . S
C384 C385 1.386 . S
C384 C386 1.383 . S
C384 H400 0.951 . S
C385 C384 1.386 . S
C385 C389 1.383 . S
C386 C384 1.383 . S
C386 C387 1.402 . S
C386 H401 0.951 . S
C387 C386 1.402 . S
C387 C388 1.375 . S
C387 C390 1.481 . S
C388 C387 1.375 . S
C388 C389 1.367 . S
C388 H402 0.951 . S
C389 C385 1.383 . S
C389 C388 1.367 . S
C389 H403 0.950 . S
C390 C387 1.481 . S
C390 C391 1.297 . S
C390 H404 0.950 . S
C391 C390 1.297 . S
C391 C392 1.479 . S
C391 H405 0.950 . S
C392 C391 1.479 . S
C392 C393 1.375 . S
C392 C398 1.404 . S
C393 C392 1.375 . S
C393 C394 1.369 . S
C393 H406 0.950 . S
C394 C393 1.369 . S
C394 C395 1.392 . S
C394 H407 0.951 . S
C395 C394 1.392 . S
C395 C397 1.384 . S
H396 C398 0.949 . S
C397 C395 1.384 . S
C397 C398 1.385 . S
C397 H399 0.950 . S
C398 C392 1.404 . S
C398 H396 0.949 . S
C398 C397 1.385 . S
H399 C397 0.950 . S
H400 C384 0.951 . S
H401 C386 0.951 . S
H402 C388 0.951 . S
H403 C389 0.950 . S
H404 C390 0.950 . S
H405 C391 0.950 . S
H406 C393 0.950 . S
H407 C394 0.951 . S
C408 C409 1.386 . S
C408 C410 1.386 . S
C408 H424 0.951 . S
C409 C408 1.386 . S
C409 C413 1.383 1_455 S
C410 C408 1.386 . S
C410 C411 1.381 1_455 S
C410 H425 0.968 . S
C411 C410 1.381 1_655 S
C411 C412 1.375 . S
C411 C414 1.481 . S
C412 C411 1.375 . S
C412 C413 1.367 . S
C412 H426 0.951 . S
C413 C409 1.383 1_655 S
C413 C412 1.367 . S
C413 H427 0.950 . S
C414 C411 1.481 . S
C414 C415 1.297 . S
C414 H428 0.950 . S
C415 C414 1.297 . S
C415 C416 1.479 . S
C415 H429 0.950 . S
C416 C415 1.479 . S
C416 C417 1.375 . S
C416 C422 1.404 . S
C417 C416 1.375 . S
C417 C418 1.369 . S
C417 H430 0.950 . S
C418 C417 1.369 . S
C418 C419 1.392 . S
C418 H431 0.951 . S
C419 C418 1.392 . S
C419 C421 1.384 . S
H420 C422 0.949 . S
C421 C419 1.384 . S
C421 C422 1.385 . S
C421 H423 0.950 . S
C422 C416 1.404 . S
C422 H420 0.949 . S
C422 C421 1.385 . S
H423 C421 0.950 . S
H424 C408 0.951 . S
H425 C410 0.968 . S
H426 C412 0.951 . S
H427 C413 0.950 . S
H428 C414 0.950 . S
H429 C415 0.950 . S
H430 C417 0.950 . S
H431 C418 0.951 . S
C432 C433 1.386 . S
C432 C434 1.383 . S
C432 H448 0.951 . S
C433 C432 1.386 . S
C433 C437 1.383 . S
C434 C432 1.383 . S
C434 C435 1.402 . S
C434 H449 0.951 . S
C435 C434 1.402 . S
C435 C436 1.375 . S
C435 C438 1.481 . S
C436 C435 1.375 . S
C436 C437 1.367 . S
C436 H450 0.951 . S
C437 C433 1.383 . S
C437 C436 1.367 . S
C437 H451 0.950 . S
C438 C435 1.481 . S
C438 C439 1.297 . S
C438 H452 0.950 . S
C439 C438 1.297 . S
C439 C440 1.479 . S
C439 H453 0.950 . S
C440 C439 1.479 . S
C440 C441 1.375 . S
C440 C446 1.404 1_545 S
C441 C440 1.375 . S
C441 C442 1.369 . S
C441 H454 0.950 . S
C442 C441 1.369 . S
C442 C443 1.392 1_545 S
C442 H455 0.951 . S
C443 C442 1.392 1_565 S
C443 C445 1.384 . S
H444 C446 0.949 . S
C445 C443 1.384 . S
C445 C446 1.385 . S
C445 H447 0.950 . S
C446 C440 1.404 1_565 S
C446 H444 0.949 . S
C446 C445 1.385 . S
H447 C445 0.950 . S
H448 C432 0.951 . S
H449 C434 0.951 . S
H450 C436 0.951 . S
H451 C437 0.950 . S
H452 C438 0.950 . S
H453 C439 0.950 . S
H454 C441 0.950 . S
H455 C442 0.951 . S
C456 C457 1.386 . S
C456 C458 1.383 . S
C456 H472 0.951 . S
C457 C456 1.386 . S
C457 C461 1.383 . S
C458 C456 1.383 . S
C458 C459 1.402 . S
C458 H473 0.951 . S
C459 C458 1.402 . S
C459 C460 1.375 . S
C459 C462 1.481 . S
C460 C459 1.375 . S
C460 C461 1.367 . S
C460 H474 0.951 . S
C461 C457 1.383 . S
C461 C460 1.367 . S
C461 H475 0.950 . S
C462 C459 1.481 . S
C462 C463 1.297 . S
C462 H476 0.950 . S
C463 C462 1.297 . S
C463 C464 1.479 . S
C463 H477 0.950 . S
C464 C463 1.479 . S
C464 C465 1.375 . S
C464 C470 1.404 . S
C465 C464 1.375 . S
C465 C466 1.369 . S
C465 H478 0.950 . S
C466 C465 1.369 . S
C466 C467 1.392 . S
C466 H479 0.951 . S
C467 C466 1.392 . S
C467 C469 1.384 . S
H468 C470 0.949 . S
C469 C467 1.384 . S
C469 C470 1.385 . S
C469 H471 0.950 . S
C470 C464 1.404 . S
C470 H468 0.949 . S
C470 C469 1.385 . S
H471 C469 0.950 . S
H472 C456 0.951 . S
H473 C458 0.951 . S
H474 C460 0.951 . S
H475 C461 0.950 . S
H476 C462 0.950 . S
H477 C463 0.950 . S
H478 C465 0.950 . S
H479 C466 0.951 . S
C480 C481 1.386 . S
C480 C482 1.383 . S
C480 H496 0.951 . S
C481 C480 1.386 . S
C481 C485 1.383 . S
C482 C480 1.383 . S
C482 C483 1.402 . S
C482 H497 0.951 . S
C483 C482 1.402 . S
C483 C484 1.375 . S
C483 C486 1.481 . S
C484 C483 1.375 . S
C484 C485 1.367 . S
C484 H498 0.951 . S
C485 C481 1.383 . S
C485 C484 1.367 . S
C485 H499 0.950 . S
C486 C483 1.481 . S
C486 C487 1.297 . S
C486 H500 0.950 . S
C487 C486 1.297 . S
C487 C488 1.479 . S
C487 H501 0.950 . S
C488 C487 1.479 . S
C488 C489 1.375 . S
C488 C494 1.404 1_455 S
C489 C488 1.375 . S
C489 C490 1.369 . S
C489 H502 0.950 . S
C490 C489 1.369 . S
C490 C491 1.392 1_455 S
C490 H503 0.951 . S
C491 C490 1.392 1_655 S
C491 C493 1.384 . S
H492 C494 0.949 . S
C493 C491 1.384 . S
C493 C494 1.385 . S
C493 H495 0.950 . S
C494 C488 1.404 1_655 S
C494 H492 0.949 . S
C494 C493 1.385 . S
H495 C493 0.950 . S
H496 C480 0.951 . S
H497 C482 0.951 . S
H498 C484 0.951 . S
H499 C485 0.950 . S
H500 C486 0.950 . S
H501 C487 0.950 . S
H502 C489 0.950 . S
H503 C490 0.951 . S
C504 C505 1.386 . S
C504 C506 1.383 . S
C504 H520 0.951 . S
C505 C504 1.386 . S
C505 C509 1.383 . S
C506 C504 1.383 . S
C506 C507 1.402 . S
C506 H521 0.951 . S
C507 C506 1.402 . S
C507 C508 1.375 . S
C507 C510 1.481 . S
C508 C507 1.375 . S
C508 C509 1.367 . S
C508 H522 0.951 . S
C509 C505 1.383 . S
C509 C508 1.367 . S
C509 H523 0.950 . S
C510 C507 1.481 . S
C510 C511 1.297 . S
C510 H524 0.950 . S
C511 C510 1.297 . S
C511 C512 1.479 . S
C511 H525 0.950 . S
C512 C511 1.479 . S
C512 C513 1.375 . S
C512 C518 1.404 . S
C513 C512 1.375 . S
C513 C514 1.369 . S
C513 H526 0.950 . S
C514 C513 1.369 . S
C514 C515 1.392 1_565 S
C514 H527 0.951 . S
C515 C514 1.392 1_545 S
C515 C517 1.384 . S
H516 C518 0.949 . S
C517 C515 1.384 . S
C517 C518 1.385 1_545 S
C517 H519 0.950 . S
C518 C512 1.404 . S
C518 H516 0.949 . S
C518 C517 1.385 1_565 S
H519 C517 0.950 . S
H520 C504 0.951 . S
H521 C506 0.951 . S
H522 C508 0.951 . S
H523 C509 0.950 . S
H524 C510 0.950 . S
H525 C511 0.950 . S
H526 C513 0.950 . S
H527 C514 0.951 . S
C528 C529 1.386 . S
C528 C530 1.383 . S
C528 H544 0.951 . S
C529 C528 1.386 . S
C529 C533 1.383 . S
C530 C528 1.383 . S
C530 C531 1.402 . S
C530 H545 0.951 . S
C531 C530 1.402 . S
C531 C532 1.375 . S
C531 C534 1.481 . S
C532 C531 1.375 . S
C532 C533 1.367 . S
C532 H546 0.951 . S
C533 C529 1.383 . S
C533 C532 1.367 . S
C533 H547 0.950 . S
C534 C531 1.481 . S
C534 C535 1.297 . S
C534 H548 0.950 . S
C535 C534 1.297 . S
C535 C536 1.479 . S
C535 H549 0.950 . S
C536 C535 1.479 . S
C536 C537 1.375 . S
C536 C542 1.404 . S
C537 C536 1.375 . S
C537 C538 1.369 1_556 S
C537 H550 0.950 . S
C538 C537 1.369 1_554 S
C538 C539 1.392 . S
C538 H551 0.951 . S
C539 C538 1.392 . S
C539 C541 1.384 . S
H540 C542 0.949 . S
C541 C539 1.384 . S
C541 C542 1.385 1_554 S
C541 H543 0.950 . S
C542 C536 1.404 . S
C542 H540 0.949 . S
C542 C541 1.385 1_556 S
H543 C541 0.950 . S
H544 C528 0.951 . S
H545 C530 0.951 . S
H546 C532 0.951 . S
H547 C533 0.950 . S
H548 C534 0.950 . S
H549 C535 0.950 . S
H550 C537 0.950 . S
H551 C538 0.951 . S
C552 C553 1.386 . S
C552 C554 1.383 . S
C552 H568 0.951 . S
C553 C552 1.386 . S
C553 C557 1.383 . S
C554 C552 1.383 . S
C554 C555 1.402 . S
C554 H569 0.951 . S
C555 C554 1.402 . S
C555 C556 1.375 . S
C555 C558 1.481 . S
C556 C555 1.375 . S
C556 C557 1.367 . S
C556 H570 0.951 . S
C557 C553 1.383 . S
C557 C556 1.367 . S
C557 H571 0.950 . S
C558 C555 1.481 . S
C558 C559 1.297 . S
C558 H572 0.950 1_655 S
C559 C558 1.297 . S
C559 C560 1.479 1_655 S
C559 H573 0.950 . S
C560 C559 1.479 1_455 S
C560 C561 1.375 . S
C560 C566 1.404 . S
C561 C560 1.375 . S
C561 C562 1.369 . S
C561 H574 0.950 1_455 S
C562 C561 1.369 . S
C562 C563 1.392 . S
C562 H575 0.951 . S
C563 C562 1.392 . S
C563 C565 1.384 . S
H564 C566 0.949 . S
C565 C563 1.384 . S
C565 C566 1.385 . S
C565 H567 0.950 . S
C566 C560 1.404 . S
C566 H564 0.949 . S
C566 C565 1.385 . S
H567 C565 0.950 . S
H568 C552 0.951 . S
H569 C554 0.951 . S
H570 C556 0.951 . S
H571 C557 0.950 . S
H572 C558 0.950 1_455 S
H573 C559 0.950 . S
H574 C561 0.950 1_655 S
H575 C562 0.951 . S
C576 C577 1.386 . S
C576 C578 1.383 . S
C576 H592 0.951 . S
C577 C576 1.386 . S
C577 C581 1.383 . S
C578 C576 1.383 . S
C578 C579 1.402 . S
C578 H593 0.951 1_565 S
C579 C578 1.402 . S
C579 C580 1.375 . S
C579 C582 1.481 . S
C580 C579 1.375 . S
C580 C581 1.367 . S
C580 H594 0.951 . S
C581 C577 1.383 . S
C581 C580 1.367 . S
C581 H595 0.950 . S
C582 C579 1.481 . S
C582 C583 1.297 . S
C582 H596 0.950 . S
C583 C582 1.297 . S
C583 C584 1.479 1_565 S
C583 H597 0.950 1_565 S
C584 C583 1.479 1_545 S
C584 C585 1.375 . S
C584 C590 1.404 1_545 S
C585 C584 1.375 . S
C585 C586 1.369 . S
C585 H598 0.950 . S
C586 C585 1.369 . S
C586 C587 1.392 . S
C586 H599 0.951 . S
C587 C586 1.392 . S
C587 C589 1.384 . S
H588 C590 0.949 . S
C589 C587 1.384 . S
C589 C590 1.385 1_545 S
C589 H591 0.950 1_545 S
C590 C584 1.404 1_565 S
C590 H588 0.949 . S
C590 C589 1.385 1_565 S
H591 C589 0.950 1_565 S
H592 C576 0.951 . S
H593 C578 0.951 1_545 S
H594 C580 0.951 . S
H595 C581 0.950 . S
H596 C582 0.950 . S
H597 C583 0.950 1_545 S
H598 C585 0.950 . S
H599 C586 0.951 . S
C600 C601 1.386 . S
C600 C602 1.383 . S
C600 H616 0.951 . S
C601 C600 1.386 . S
C601 C605 1.383 . S
C602 C600 1.383 . S
C602 C603 1.402 . S
C602 H617 0.951 . S
C603 C602 1.402 . S
C603 C604 1.375 . S
C603 C606 1.481 . S
C604 C603 1.375 . S
C604 C605 1.367 . S
C604 H618 0.951 . S
C605 C601 1.383 . S
C605 C604 1.367 . S
C605 H619 0.950 . S
C606 C603 1.481 . S
C606 C607 1.297 . S
C606 H620 0.950 . S
C607 C606 1.297 . S
C607 C608 1.479 . S
C607 H621 0.950 . S
C608 C607 1.479 . S
C608 C609 1.375 . S
C608 C614 1.404 . S
C609 C608 1.375 . S
C609 C610 1.369 1_556 S
C609 H622 0.950 . S
C610 C609 1.369 1_554 S
C610 C611 1.392 . S
C610 H623 0.951 . S
C611 C610 1.392 . S
C611 C613 1.384 1_554 S
H612 C614 0.949 . S
C613 C611 1.384 1_556 S
C613 C614 1.385 . S
C613 H615 0.950 . S
C614 C608 1.404 . S
C614 H612 0.949 . S
C614 C613 1.385 . S
H615 C613 0.950 . S
H616 C600 0.951 . S
H617 C602 0.951 . S
H618 C604 0.951 . S
H619 C605 0.950 . S
H620 C606 0.950 . S
H621 C607 0.950 . S
H622 C609 0.950 . S
H623 C610 0.951 . S
C624 C625 1.386 . S
C624 C626 1.383 1_455 S
C624 H640 0.951 1_455 S
C625 C624 1.386 . S
C625 C629 1.383 . S
C626 C624 1.383 1_655 S
C626 C627 1.402 1_655 S
C626 H641 0.951 . S
C627 C626 1.402 1_455 S
C627 C628 1.375 . S
C627 C630 1.481 . S
C628 C627 1.375 . S
C628 C629 1.367 . S
C628 H642 0.951 . S
C629 C625 1.383 . S
C629 C628 1.367 . S
C629 H643 0.950 . S
C630 C627 1.481 . S
C630 C631 1.297 1_455 S
C630 H644 0.950 . S
C631 C630 1.297 1_655 S
C631 C632 1.479 . S
C631 H645 0.950 . S
C632 C631 1.479 . S
C632 C633 1.375 . S
C632 C638 1.404 . S
C633 C632 1.375 . S
C633 C634 1.369 . S
C633 H646 0.950 . S
C634 C633 1.369 . S
C634 C635 1.392 . S
C634 H647 0.951 . S
C635 C634 1.392 . S
C635 C637 1.384 . S
H636 C638 0.949 1_455 S
C637 C635 1.384 . S
C637 C638 1.385 . S
C637 H639 0.950 . S
C638 C632 1.404 . S
C638 H636 0.949 1_655 S
C638 C637 1.385 . S
H639 C637 0.950 . S
H640 C624 0.951 1_655 S
H641 C626 0.951 . S
H642 C628 0.951 . S
H643 C629 0.950 . S
H644 C630 0.950 . S
H645 C631 0.950 . S
H646 C633 0.950 . S
H647 C634 0.951 . S
C648 C649 1.386 . S
C648 C650 1.383 . S
C648 H664 0.951 . S
C649 C648 1.386 . S
C649 C653 1.383 . S
C650 C648 1.383 . S
C650 C651 1.402 . S
C650 H665 0.951 . S
C651 C650 1.402 . S
C651 C652 1.375 . S
C651 C654 1.481 1_545 S
C652 C651 1.375 . S
C652 C653 1.367 . S
C652 H666 0.951 1_545 S
C653 C649 1.383 . S
C653 C652 1.367 . S
C653 H667 0.950 . S
C654 C651 1.481 1_565 S
C654 C655 1.297 . S
C654 H668 0.950 . S
C655 C654 1.297 . S
C655 C656 1.479 . S
C655 H669 0.950 1_565 S
C656 C655 1.479 . S
C656 C657 1.375 . S
C656 C662 1.404 . S
C657 C656 1.375 . S
C657 C658 1.369 . S
C657 H670 0.950 1_565 S
C658 C657 1.369 . S
C658 C659 1.392 . S
C658 H671 0.951 . S
C659 C658 1.392 . S
C659 C661 1.384 . S
H660 C662 0.949 . S
C661 C659 1.384 . S
C661 C662 1.385 . S
C661 H663 0.950 . S
C662 C656 1.404 . S
C662 H660 0.949 . S
C662 C661 1.385 . S
H663 C661 0.950 . S
H664 C648 0.951 . S
H665 C650 0.951 . S
H666 C652 0.951 1_565 S
H667 C653 0.950 . S
H668 C654 0.950 . S
H669 C655 0.950 1_545 S
H670 C657 0.950 1_545 S
H671 C658 0.951 . S
C241 C166 1.363 . S
C251 C19 1.371 . S
C265 C219 1.390 . S
C275 C46 1.355 . S
C289 C6 1.363 . S
C299 C99 1.388 . S
C313 C59 1.380 . S
C323 C126 1.394 . S
C337 C86 1.351 . S
C347 C179 1.385 . S
C361 C139 1.379 . S
C371 C206 1.393 . S
C385 C18 0.988 . S
C395 C129 1.056 . S
C409 C178 1.001 . S
C419 C49 0.968 . S
C433 C209 0.956 . S
C443 C98 0.985 . S
C457 C89 1.000 . S
C467 C218 0.979 . S
C481 C9 1.004 . S
C491 C138 0.960 . S
C505 C169 0.918 . S
C515 C58 1.012 . S
C529 C210 1.702 . S
C539 C10 1.713 . S
C553 C55 0.776 . S
C563 C15 0.757 . S
C577 C90 1.701 . S
C587 C50 1.710 . S
C601 C95 0.783 . S
C611 C135 0.771 . S
C625 C170 1.706 . S
C635 C130 1.697 . S
C649 C215 0.774 . S
C659 C175 0.755 . S
