# Generated by pormake.
# Topology ukf, (4)-cn, num edge types: 1
# Building blocks:
#     Node 0, Type 0, BuildingBlock: CEKHIL_clean_sbu_0, # of connection points: 4
#     Node 1, Type 0, BuildingBlock: CEKHIL_clean_sbu_0, # of connection points: 4
#     Node 2, Type 0, BuildingBlock: CEKHIL_clean_sbu_0, # of connection points: 4
#     Node 3, Type 0, BuildingBlock: CEKHIL_clean_sbu_0, # of connection points: 4
#     Node 4, Type 0, BuildingBlock: CEKHIL_clean_sbu_0, # of connection points: 4
#     Node 5, Type 0, BuildingBlock: CEKHIL_clean_sbu_0, # of connection points: 4
#     Node 6, Type 0, BuildingBlock: CEKHIL_clean_sbu_0, # of connection points: 4
#     Node 7, Type 0, BuildingBlock: CEKHIL_clean_sbu_0, # of connection points: 4
#     Node 8, Type 0, BuildingBlock: CEKHIL_clean_sbu_0, # of connection points: 4
#     Node 9, Type 0, BuildingBlock: CEKHIL_clean_sbu_0, # of connection points: 4
#     Node 10, Type 0, BuildingBlock: CEKHIL_clean_sbu_0, # of connection points: 4
#     Node 11, Type 0, BuildingBlock: CEKHIL_clean_sbu_0, # of connection points: 4
#     Edge 12, Type (0, 0), BuildingBlock: TEMPAE_clean_linker_10, # of connection points: 2
#     Edge 13, Type (0, 0), BuildingBlock: TEMPAE_clean_linker_10, # of connection points: 2
#     Edge 14, Type (0, 0), BuildingBlock: TEMPAE_clean_linker_10, # of connection points: 2
#     Edge 15, Type (0, 0), BuildingBlock: TEMPAE_clean_linker_10, # of connection points: 2
#     Edge 16, Type (0, 0), BuildingBlock: TEMPAE_clean_linker_10, # of connection points: 2
#     Edge 17, Type (0, 0), BuildingBlock: TEMPAE_clean_linker_10, # of connection points: 2
#     Edge 18, Type (0, 0), BuildingBlock: TEMPAE_clean_linker_10, # of connection points: 2
#     Edge 19, Type (0, 0), BuildingBlock: TEMPAE_clean_linker_10, # of connection points: 2
#     Edge 20, Type (0, 0), BuildingBlock: TEMPAE_clean_linker_10, # of connection points: 2
#     Edge 21, Type (0, 0), BuildingBlock: TEMPAE_clean_linker_10, # of connection points: 2
#     Edge 22, Type (0, 0), BuildingBlock: TEMPAE_clean_linker_10, # of connection points: 2
#     Edge 23, Type (0, 0), BuildingBlock: TEMPAE_clean_linker_10, # of connection points: 2
#     Edge 24, Type (0, 0), BuildingBlock: TEMPAE_clean_linker_10, # of connection points: 2
#     Edge 25, Type (0, 0), BuildingBlock: TEMPAE_clean_linker_10, # of connection points: 2
#     Edge 26, Type (0, 0), BuildingBlock: TEMPAE_clean_linker_10, # of connection points: 2
#     Edge 27, Type (0, 0), BuildingBlock: TEMPAE_clean_linker_10, # of connection points: 2
#     Edge 28, Type (0, 0), BuildingBlock: TEMPAE_clean_linker_10, # of connection points: 2
#     Edge 29, Type (0, 0), BuildingBlock: TEMPAE_clean_linker_10, # of connection points: 2
#     Edge 30, Type (0, 0), BuildingBlock: TEMPAE_clean_linker_10, # of connection points: 2
#     Edge 31, Type (0, 0), BuildingBlock: TEMPAE_clean_linker_10, # of connection points: 2
#     Edge 32, Type (0, 0), BuildingBlock: TEMPAE_clean_linker_10, # of connection points: 2
#     Edge 33, Type (0, 0), BuildingBlock: TEMPAE_clean_linker_10, # of connection points: 2
#     Edge 34, Type (0, 0), BuildingBlock: TEMPAE_clean_linker_10, # of connection points: 2
#     Edge 35, Type (0, 0), BuildingBlock: TEMPAE_clean_linker_10, # of connection points: 2
# Relax obj value: 0.105
# Max RMSD: 0.082
# Mean RMSD: 0.082
data_MOF--net-ukf--node1-CEKHIL_clean_sbu_0--edge1-TEMPAE_clean_linker_10
_symmetry_space_group_name_H-M    P1
_symmetry_Int_Tables_number       1
_symmetry_cell_setting            triclinic
loop_
_symmetry_equiv_pos_as_xyz
'x, y, z'
_cell_length_a     32.728458
_cell_length_b     32.776182
_cell_length_c     64.306773
_cell_angle_alpha  90.005667
_cell_angle_beta   90.012573
_cell_angle_gamma 119.99936
loop_
_atom_site_label
_atom_site_type_symbol
_atom_site_fract_x
_atom_site_fract_y
_atom_site_fract_z
_atom_type_partial_charge
Co0 Co 0.42768 0.25287 0.0442 0.0
O1 O 0.47157 0.31452 0.05472 0.0
O2 O 0.40332 0.29588 0.04014 0.0
C3 C 0.48263 0.2444 0.0268 0.0
O4 O 0.37441 0.19213 0.03099 0.0
Co5 Co 0.44068 0.16759 0.05662 0.0
O6 O 0.39413 0.13546 0.03435 0.0
C7 C 0.39758 0.20428 0.08615 0.0
C8 C 0.44269 0.32808 0.04846 0.0
C9 C 0.36781 0.15049 0.02722 0.0
O10 O 0.39794 0.23343 0.07263 0.0
O11 O 0.41521 0.17766 0.08314 0.0
O12 O 0.46376 0.26711 0.01843 0.0
O13 O 0.4703 0.23074 0.0457 0.0
Co14 Co 0.18214 0.42913 0.37507 0.0
O15 O 0.16549 0.47418 0.38509 0.0
O16 O 0.11391 0.40363 0.3733 0.0
C17 C 0.24188 0.48107 0.35501 0.0
O18 O 0.18887 0.37458 0.36289 0.0
Co19 Co 0.28362 0.44688 0.38536 0.0
O20 O 0.26654 0.39751 0.36407 0.0
C21 C 0.20997 0.41219 0.41769 0.0
C22 C 0.1221 0.44417 0.3806 0.0
C23 C 0.22436 0.36913 0.35833 0.0
O24 O 0.17768 0.40452 0.40426 0.0
O25 O 0.25406 0.43266 0.41356 0.0
O26 O 0.19891 0.46079 0.34803 0.0
O27 O 0.2465 0.47219 0.37409 0.0
Co28 Co 0.75393 0.1856 0.71644 0.0
O29 O 0.69215 0.16391 0.72791 0.0
O30 O 0.71256 0.11844 0.71087 0.0
C31 C 0.75831 0.24973 0.70155 0.0
O32 O 0.81523 0.1979 0.70174 0.0
Co33 Co 0.83781 0.28367 0.72964 0.0
O34 O 0.86495 0.27627 0.70353 0.0
C35 C 0.80715 0.2007 0.75703 0.0
C36 C 0.67958 0.12287 0.72018 0.0
C37 C 0.85319 0.23584 0.69612 0.0
O38 O 0.77594 0.17307 0.74381 0.0
O39 O 0.83334 0.24519 0.75453 0.0
O40 O 0.73685 0.20933 0.69211 0.0
O41 O 0.77355 0.2494 0.72 0.0
Co42 Co 0.58552 0.75582 0.04195 0.0
O43 O 0.53911 0.695 0.05231 0.0
O44 O 0.60841 0.71114 0.03984 0.0
C45 C 0.53385 0.7654 0.0225 0.0
O46 O 0.64127 0.81541 0.02921 0.0
Co47 Co 0.57462 0.84346 0.05163 0.0
O48 O 0.61889 0.8703 0.02814 0.0
C49 C 0.61441 0.80767 0.08331 0.0
C50 C 0.56757 0.67992 0.04737 0.0
C51 C 0.64673 0.85541 0.02307 0.0
O52 O 0.61227 0.77588 0.07084 0.0
O53 O 0.59961 0.83611 0.07886 0.0
O54 O 0.55253 0.74141 0.01533 0.0
O55 O 0.54429 0.77967 0.04146 0.0
Co56 Co 0.82976 0.57763 0.37673 0.0
O57 O 0.84768 0.53443 0.388 0.0
O58 O 0.89794 0.60365 0.37458 0.0
C59 C 0.76981 0.52218 0.35784 0.0
O60 O 0.82219 0.63044 0.363 0.0
Co61 Co 0.72853 0.56141 0.38526 0.0
O62 O 0.744 0.60392 0.36121 0.0
C63 C 0.80319 0.60503 0.41751 0.0
C64 C 0.89064 0.56409 0.3827 0.0
C65 C 0.78643 0.63329 0.35628 0.0
O66 O 0.83473 0.60565 0.40527 0.0
O67 O 0.7596 0.58702 0.41264 0.0
O68 O 0.81249 0.54261 0.35055 0.0
O69 O 0.7654 0.53369 0.3765 0.0
Co70 Co 0.25529 0.82283 0.71027 0.0
O71 O 0.31574 0.84265 0.72282 0.0
O72 O 0.2978 0.89035 0.70611 0.0
C73 C 0.25175 0.75972 0.69466 0.0
O74 O 0.19575 0.81296 0.69471 0.0
Co75 Co 0.16917 0.72411 0.72081 0.0
O76 O 0.14528 0.73467 0.6944 0.0
C77 C 0.19804 0.80431 0.74984 0.0
C78 C 0.32952 0.88452 0.71581 0.0
C79 C 0.15815 0.77608 0.68797 0.0
O80 O 0.2308 0.83305 0.73745 0.0
O81 O 0.17168 0.76021 0.74627 0.0
O82 O 0.27443 0.80088 0.68593 0.0
O83 O 0.23455 0.75862 0.71281 0.0
Co84 Co 0.75286 0.57448 0.61221 0.0
O85 O 0.69103 0.52865 0.60252 0.0
O86 O 0.70993 0.59983 0.61332 0.0
C87 C 0.76105 0.52412 0.63316 0.0
O88 O 0.81435 0.62982 0.62392 0.0
Co89 Co 0.83642 0.55618 0.60249 0.0
O90 O 0.86877 0.60648 0.62339 0.0
C91 C 0.798 0.59007 0.56961 0.0
C92 C 0.67753 0.55876 0.60647 0.0
C93 C 0.85524 0.63531 0.62867 0.0
O94 O 0.7727 0.59739 0.58278 0.0
O95 O 0.8221 0.57031 0.57407 0.0
O96 O 0.73825 0.54466 0.63963 0.0
O97 O 0.77424 0.53158 0.61401 0.0
Co98 Co 0.19095 0.75416 0.94113 0.0
O99 O 0.16985 0.69178 0.93068 0.0
O100 O 0.12377 0.71291 0.94677 0.0
C101 C 0.25559 0.76087 0.95665 0.0
O102 O 0.20264 0.81618 0.95468 0.0
Co103 Co 0.28872 0.83724 0.9268 0.0
O104 O 0.28083 0.86689 0.95199 0.0
C105 C 0.20555 0.80222 0.89923 0.0
C106 C 0.12856 0.67957 0.9381 0.0
C107 C 0.24043 0.85503 0.95956 0.0
O108 O 0.17797 0.77358 0.91322 0.0
O109 O 0.25024 0.82813 0.90129 0.0
O110 O 0.2151 0.73951 0.96606 0.0
O111 O 0.25496 0.77424 0.93786 0.0
Co112 Co 0.43547 0.18143 0.27558 0.0
O113 O 0.47585 0.16129 0.26308 0.0
O114 O 0.40982 0.11385 0.27967 0.0
C115 C 0.4952 0.24408 0.29138 0.0
O116 O 0.38596 0.19156 0.29108 0.0
Co117 Co 0.44908 0.2806 0.26527 0.0
O118 O 0.41446 0.26994 0.29163 0.0
C119 C 0.39729 0.20081 0.23607 0.0
C120 C 0.44741 0.11946 0.27008 0.0
C121 C 0.38557 0.22849 0.29793 0.0
O122 O 0.40107 0.17177 0.24834 0.0
O123 O 0.41526 0.24488 0.23976 0.0
O124 O 0.47631 0.20281 0.30002 0.0
O125 O 0.47941 0.24558 0.27321 0.0
Co126 Co 0.25134 0.42458 0.61047 0.0
O127 O 0.31262 0.46771 0.59923 0.0
O128 O 0.29338 0.39847 0.6127 0.0
C129 C 0.24682 0.48002 0.62936 0.0
O130 O 0.19081 0.37177 0.62414 0.0
Co131 Co 0.1667 0.44144 0.60165 0.0
O132 O 0.13697 0.39574 0.62441 0.0
C133 C 0.19778 0.39759 0.56956 0.0
C134 C 0.32575 0.43796 0.60456 0.0
C135 C 0.15081 0.36727 0.6298 0.0
O136 O 0.22829 0.39649 0.58192 0.0
O137 O 0.17273 0.41623 0.57429 0.0
O138 O 0.26905 0.45961 0.63667 0.0
O139 O 0.23107 0.4686 0.61067 0.0
Co140 Co 0.82773 0.25585 0.94703 0.0
O141 O 0.84627 0.31698 0.93564 0.0
O142 O 0.89515 0.29868 0.95114 0.0
C143 C 0.76411 0.24911 0.9636 0.0
O144 O 0.8196 0.19583 0.96126 0.0
Co145 Co 0.72967 0.16931 0.93582 0.0
O146 O 0.74156 0.14391 0.96146 0.0
C147 C 0.80976 0.20201 0.90646 0.0
C148 C 0.88853 0.33065 0.94224 0.0
C149 C 0.78335 0.1573 0.96762 0.0
O150 O 0.83814 0.2342 0.91915 0.0
O151 O 0.7658 0.17446 0.90996 0.0
O152 O 0.80551 0.27208 0.97218 0.0
O153 O 0.76306 0.23385 0.94503 0.0
Co154 Co 0.57589 0.82272 0.27423 0.0
O155 O 0.53438 0.84223 0.26239 0.0
O156 O 0.60022 0.88987 0.27906 0.0
C157 C 0.51717 0.75847 0.28956 0.0
O158 O 0.6264 0.81317 0.28915 0.0
Co159 Co 0.56469 0.72521 0.26243 0.0
O160 O 0.59982 0.73511 0.28859 0.0
C161 C 0.61414 0.80675 0.23395 0.0
C162 C 0.56231 0.88393 0.26966 0.0
C163 C 0.62784 0.77637 0.29537 0.0
O164 O 0.61008 0.83464 0.24683 0.0
O165 O 0.5971 0.76259 0.23704 0.0
O166 O 0.53534 0.7992 0.29868 0.0
O167 O 0.53304 0.75843 0.27123 0.0
C168 C 0.20763 0.90728 0.96919 0.0
C169 C 0.23877 0.89052 0.97316 0.0
C170 C 0.21557 0.95016 0.97796 0.0
C171 C 0.25558 0.97655 0.99082 0.0
C172 C 0.28465 0.95745 -0.00386 0.0
C173 C 0.27584 0.91482 0.98726 0.0
C174 C 0.18318 0.96867 0.97219 0.0
C175 C 0.32743 0.98375 0.00997 0.0
C176 C 0.33316 0.10823 -0.00558 0.0
C177 C 0.32675 0.11566 0.01529 0.0
C178 C 0.30534 0.06382 0.98516 0.0
C179 C 0.27089 0.02599 -0.00277 0.0
C180 C 0.26033 0.0352 0.01744 0.0
C181 C 0.28865 0.08 0.02629 0.0
C182 C 0.31728 0.05598 0.9634 0.0
C183 C 0.22339 0.99636 0.03073 0.0
H184 H 0.17926 0.88886 0.95809 0.0
H185 H 0.29992 0.90182 0.99034 0.0
H186 H 0.17762 0.98678 0.98555 0.0
H187 H 0.19942 0.99473 0.95944 0.0
H188 H 0.14838 0.93997 0.96672 0.0
H189 H 0.34443 0.96257 0.01366 0.0
H190 H 0.35383 0.01665 0.00213 0.0
H191 H 0.31749 0.99386 0.02477 0.0
H192 H 0.36315 0.13553 0.98604 0.0
H193 H 0.28419 0.0855 0.04258 0.0
H194 H 0.28476 0.0331 0.95443 0.0
H195 H 0.3383 0.03793 0.96421 0.0
H196 H 0.33824 0.08972 0.9549 0.0
H197 H 0.19221 0.97198 0.02131 0.0
H198 H 0.21176 0.0107 0.04365 0.0
H199 H 0.23837 0.9756 0.0376 0.0
C200 C 0.20753 0.28657 0.35791 0.0
C201 C 0.21814 0.32754 0.34684 0.0
C202 C 0.22219 0.25544 0.35053 0.0
C203 C 0.24856 0.26615 0.33185 0.0
C204 C 0.25406 0.3044 0.31947 0.0
C205 C 0.23894 0.33473 0.32718 0.0
C206 C 0.2142 0.21434 0.36392 0.0
C207 C 0.28135 0.31703 0.29931 0.0
C208 C 0.35927 0.25802 0.32732 0.0
C209 C 0.34729 0.22472 0.31142 0.0
C210 C 0.326 0.26867 0.33548 0.0
C211 C 0.27932 0.24538 0.32754 0.0
C212 C 0.2657 0.20796 0.31315 0.0
C213 C 0.30002 0.19811 0.30516 0.0
C214 C 0.34236 0.30846 0.35099 0.0
C215 C 0.21613 0.18125 0.30471 0.0
H216 H 0.19219 0.28139 0.37331 0.0
H217 H 0.24784 0.36683 0.31879 0.0
H218 H 0.20793 0.18369 0.35426 0.0
H219 H 0.24607 0.2246 0.37353 0.0
H220 H 0.18377 0.20355 0.37457 0.0
H221 H 0.27664 0.34317 0.29018 0.0
H222 H 0.31949 0.33232 0.30274 0.0
H223 H 0.27017 0.2852 0.28961 0.0
H224 H 0.39587 0.27868 0.33212 0.0
H225 H 0.29071 0.17269 0.29269 0.0
H226 H 0.3176 0.29786 0.3643 0.0
H227 H 0.34306 0.33927 0.34344 0.0
H228 H 0.37823 0.31969 0.35707 0.0
H229 H 0.18988 0.17637 0.31681 0.0
H230 H 0.2078 0.1462 0.29863 0.0
H231 H 0.21248 0.2015 0.29173 0.0
C232 C 0.91265 0.27177 0.66825 0.0
C233 C 0.88845 0.23439 0.68219 0.0
C234 C 0.95553 0.28114 0.65935 0.0
C235 C 0.97494 0.25225 0.66444 0.0
C236 C 0.94853 0.21179 0.67702 0.0
C237 C 0.90546 0.20335 0.68585 0.0
C238 C 0.98185 0.32445 0.64587 0.0
C239 C 0.96729 0.17946 0.68245 0.0
C240 C 0.08055 0.28786 0.62975 0.0
C241 C 0.11558 0.32549 0.64123 0.0
C242 C 0.03521 0.25903 0.6381 0.0
C243 C 0.02486 0.26842 0.65833 0.0
C244 C 0.06205 0.30238 0.67086 0.0
C245 C 0.10691 0.33084 0.66207 0.0
C246 C 0.99709 0.22277 0.62429 0.0
C247 C 0.05306 0.31311 0.69265 0.0
H248 H 0.89949 0.29578 0.66538 0.0
H249 H 0.88714 0.17469 0.69681 0.0
H250 H 0.01438 0.35079 0.65399 0.0
H251 H 0.9927 0.31534 0.63105 0.0
H252 H 0.96035 0.34112 0.64221 0.0
H253 H 0.93871 0.14459 0.68788 0.0
H254 H 0.98521 0.17421 0.66893 0.0
H255 H 0.99363 0.19553 0.69513 0.0
H256 H 0.08692 0.28426 0.61348 0.0
H257 H 0.13369 0.36046 0.67082 0.0
H258 H 0.97671 0.23806 0.61731 0.0
H259 H 0.97213 0.1912 0.63333 0.0
H260 H 0.01219 0.21177 0.61146 0.0
H261 H 0.03468 0.3338 0.69189 0.0
H262 H 0.08642 0.33387 0.70148 0.0
H263 H 0.03 0.28014 0.70127 0.0
C264 C 0.73019 0.91888 0.02289 0.0
C265 C 0.68903 0.88964 0.01164 0.0
C266 C 0.76162 0.96508 0.01609 0.0
C267 C 0.75106 0.98212 -0.0022 0.0
C268 C 0.71313 0.95028 0.985 0.0
C269 C 0.68246 0.90443 0.99214 0.0
C270 C 0.80256 0.99716 0.02983 0.0
C271 C 0.70082 0.96638 0.96517 0.0
C272 C 0.75547 0.09924 -0.00391 0.0
C273 C 0.78855 0.12265 0.98032 0.0
C274 C 0.74623 0.05515 0.00337 0.0
C275 C 0.77077 0.03381 -0.00535 0.0
C276 C 0.80812 0.05981 0.98046 0.0
C277 C 0.81652 0.10408 0.97336 0.0
C278 C 0.70647 0.02935 0.01874 0.0
C279 C 0.83624 0.03924 0.97127 0.0
H280 H 0.735 0.90774 0.03813 0.0
H281 H 0.65031 0.882 0.98358 0.0
H282 H 0.83317 0.02277 0.02045 0.0
H283 H 0.79189 0.0174 0.04011 0.0
H284 H 0.81364 0.97676 0.03982 0.0
H285 H 0.6752 0.93619 0.95555 0.0
H286 H 0.68492 0.98844 0.96906 0.0
H287 H 0.73291 0.98819 0.95577 0.0
H288 H 0.73383 0.11363 0.00145 0.0
H289 H 0.84185 0.12189 0.961 0.0
H290 H 0.71776 0.01478 0.03164 0.0
H291 H 0.67619 0.99934 0.01084 0.0
H292 H 0.6941 0.05251 0.02546 0.0
H293 H 0.84095 0.01643 0.98262 0.0
H294 H 0.87148 0.06741 0.96596 0.0
H295 H 0.8172 0.01733 0.95758 0.0
C296 C 0.65416 0.74791 0.32512 0.0
C297 C 0.6662 0.78027 0.30884 0.0
C298 C 0.68705 0.73673 0.33332 0.0
C299 C 0.73328 0.75832 0.32493 0.0
C300 C 0.74709 0.79486 0.31006 0.0
C301 C 0.7132 0.80538 0.3021 0.0
C302 C 0.67058 0.69799 0.34936 0.0
C303 C 0.79619 0.81968 0.30107 0.0
C304 C 0.80524 0.71651 0.35491 0.0
C305 C 0.79251 0.67436 0.34437 0.0
C306 C 0.79089 0.74786 0.34748 0.0
C307 C 0.76302 0.73638 0.32921 0.0
C308 C 0.7554 0.69681 0.31725 0.0
C309 C 0.77 0.66616 0.32506 0.0
C310 C 0.80093 0.7902 0.36045 0.0
C311 C 0.72656 0.68337 0.29751 0.0
H312 H 0.61772 0.72828 0.33023 0.0
H313 H 0.72248 0.82997 0.28929 0.0
H314 H 0.66794 0.66602 0.34212 0.0
H315 H 0.69629 0.7087 0.36232 0.0
H316 H 0.63552 0.68858 0.3559 0.0
H317 H 0.80508 0.85442 0.29438 0.0
H318 H 0.82287 0.82494 0.31301 0.0
H319 H 0.79843 0.79782 0.28843 0.0
H320 H 0.82192 0.72252 0.37005 0.0
H321 H 0.75957 0.63324 0.31707 0.0
H322 H 0.77 0.78133 0.37047 0.0
H323 H 0.80717 0.82042 0.35049 0.0
H324 H 0.83206 0.80103 0.37067 0.0
H325 H 0.68884 0.66931 0.30147 0.0
H326 H 0.72966 0.65602 0.28858 0.0
H327 H 0.73777 0.7146 0.28741 0.0
C328 C 0.90484 0.67079 0.65955 0.0
C329 C 0.89088 0.67736 0.63986 0.0
C330 C 0.95058 0.70112 0.66701 0.0
C331 C 0.98328 0.73882 0.65436 0.0
C332 C 0.96733 0.74902 0.63563 0.0
C333 C 0.92125 0.71785 0.62849 0.0
C334 C 0.96554 0.68897 0.68721 0.0
C335 C 1.00035 0.78956 0.62195 0.0
C336 C 0.10345 0.80694 0.6806 0.0
C337 C 0.12367 0.77989 0.67445 0.0
C338 C 0.05923 0.7972 0.67268 0.0
C339 C 0.0349 0.75942 0.65849 0.0
C340 C 0.05786 0.73566 0.65065 0.0
C341 C 0.10187 0.74625 0.65871 0.0
C342 C 0.03686 0.82444 0.68098 0.0
C343 C 0.03386 0.69546 0.63536 0.0
H344 H 0.88163 0.63904 0.66817 0.0
H345 H 0.91085 0.72255 0.61306 0.0
H346 H 0.98811 0.67337 0.68383 0.0
H347 H 0.98659 0.72105 0.69671 0.0
H348 H 0.93479 0.66323 0.69652 0.0
H349 H 0.98063 0.80022 0.61129 0.0
H350 H 0.02519 0.82045 0.63139 0.0
H351 H 0.02152 0.77877 0.61235 0.0
H352 H 0.11993 0.83264 0.69294 0.0
H353 H 0.11746 0.72525 0.65399 0.0
H354 H 0.01301 0.80463 0.69405 0.0
H355 H 0.01551 0.82925 0.66886 0.0
H356 H 0.06392 0.85955 0.68691 0.0
H357 H 1.00371 0.665 0.64309 0.0
H358 H 0.05818 0.68379 0.62933 0.0
H359 H 0.01965 0.70584 0.622 0.0
C360 C 0.67667 0.21041 0.96556 0.0
C361 C 0.72098 0.24218 0.97391 0.0
C362 C 0.63535 0.20623 0.97404 0.0
C363 C 0.63868 0.23509 0.99104 0.0
C364 C 0.68324 0.26636 -0.00012 0.0
C365 C 0.72395 0.26926 0.99128 0.0
C366 C 0.58832 0.1719 0.96448 0.0
C367 C 0.68806 0.29794 0.01794 0.0
C368 C 0.54274 0.26598 -0.00103 0.0
C369 C 0.51902 0.23823 0.01625 0.0
C370 C 0.58135 0.26464 0.99034 0.0
C371 C 0.59582 0.2342 -0.00097 0.0
C372 C 0.57055 0.20447 0.01586 0.0
C373 C 0.53259 0.20714 0.0244 0.0
C374 C 0.60776 0.29711 0.97247 0.0
C375 C 0.58445 0.17089 0.02522 0.0
H376 H 0.67426 0.1892 0.95218 0.0
H377 H 0.75822 0.29394 -0.0023 0.0
H378 H 0.56352 0.14881 0.97665 0.0
H379 H 0.57247 0.19148 0.95723 0.0
H380 H 0.59155 0.14943 0.9524 0.0
H381 H 0.7251 0.31918 0.02341 0.0
H382 H 0.67537 0.3223 0.01326 0.0
H383 H 0.66581 0.2766 0.03113 0.0
H384 H 0.53235 0.29016 0.9927 0.0
H385 H 0.51404 0.18541 0.03769 0.0
H386 H 0.60978 0.27662 0.95918 0.0
H387 H 0.64448 0.32234 0.97732 0.0
H388 H 0.59093 0.31742 0.96706 0.0
H389 H 0.58731 0.14875 0.01289 0.0
H390 H 0.55877 0.14746 0.03709 0.0
H391 H 0.61964 0.19113 0.03265 0.0
C392 C 0.27638 0.53851 0.32595 0.0
C393 C 0.28264 0.51511 0.34278 0.0
C394 C 0.31536 0.5761 0.31624 0.0
C395 C 0.36137 0.58973 0.32338 0.0
C396 C 0.36787 0.5642 0.33951 0.0
C397 C 0.3283 0.52738 0.34916 0.0
C398 C 0.3072 0.60282 0.29914 0.0
C399 C 0.41649 0.57714 0.3472 0.0
C400 C 0.46479 0.67141 0.28947 0.0
C401 C 0.47933 0.71508 0.29896 0.0
C402 C 0.42672 0.63007 0.29739 0.0
C403 C 0.4025 0.63274 0.31506 0.0
C404 C 0.41742 0.67666 0.32487 0.0
C405 C 0.45595 0.71737 0.31675 0.0
C406 C 0.41211 0.58368 0.28675 0.0
C407 C 0.39214 0.68076 0.34372 0.0
H408 H 0.24101 0.52905 0.32107 0.0
H409 H 0.33315 0.50894 0.36205 0.0
H410 H 0.31832 0.63905 0.30456 0.0
H411 H 0.32888 0.60605 0.28532 0.0
H412 H 0.26957 0.58558 0.29437 0.0
H413 H 0.41557 0.55074 0.35831 0.0
H414 H 0.43966 0.58043 0.33396 0.0
H415 H 0.43273 0.61185 0.35511 0.0
H416 H 0.48291 0.66955 0.27571 0.0
H417 H 0.46703 0.75114 0.32405 0.0
H418 H 0.37561 0.56844 0.28071 0.0
H419 H 0.4121 0.55812 0.29807 0.0
H420 H 0.4358 0.58748 0.27361 0.0
H421 H 0.35458 0.66787 0.33987 0.0
H422 H 0.40817 0.71758 0.34945 0.0
H423 H 0.39281 0.65835 0.35649 0.0
C424 C 0.74004 0.29095 0.67377 0.0
C425 C 0.76408 0.29317 0.69211 0.0
C426 C 0.74274 0.33161 0.66534 0.0
C427 C 0.77062 0.37544 0.67541 0.0
C428 C 0.79588 0.37807 0.69368 0.0
C429 C 0.79207 0.33673 0.7019 0.0
C430 C 0.71509 0.32752 0.64587 0.0
C431 C 0.82647 0.42439 0.70461 0.0
C432 C 0.80268 0.47993 0.64063 0.0
C433 C 0.76811 0.49125 0.64609 0.0
C434 C 0.80577 0.44401 0.65097 0.0
C435 C 0.77279 0.41831 0.66677 0.0
C436 C 0.73924 0.43112 0.67302 0.0
C437 C 0.73762 0.46793 0.66269 0.0
C438 C 0.84277 0.43203 0.64426 0.0
C439 C 0.70322 0.40413 0.6897 0.0
H440 H 0.71827 0.25727 0.66622 0.0
H441 H 0.81081 0.33853 0.71608 0.0
H442 H 0.68996 0.34019 0.649 0.0
H443 H 0.73932 0.35009 0.63343 0.0
H444 H 0.69494 0.29074 0.64002 0.0
H445 H 0.84535 0.42062 0.71817 0.0
H446 H 0.85287 0.45023 0.69363 0.0
H447 H 0.80447 0.43925 0.71008 0.0
H448 H 0.82662 0.49837 0.62792 0.0
H449 H 0.71081 0.47668 0.66686 0.0
H450 H 0.82556 0.39755 0.63614 0.0
H451 H 0.86142 0.42872 0.65799 0.0
H452 H 0.8692 0.45898 0.6336 0.0
H453 H 0.67876 0.36782 0.68414 0.0
H454 H 0.68217 0.42099 0.69391 0.0
H455 H 0.72076 0.40112 0.7039 0.0
C456 C 0.34305 0.79756 0.95695 0.0
C457 C 0.29938 0.76819 0.96642 0.0
C458 C 0.38475 0.80225 0.96526 0.0
C459 C 0.38237 0.77632 0.98323 0.0
C460 C 0.33847 0.7474 0.99311 0.0
C461 C 0.29744 0.74397 0.98464 0.0
C462 C 0.43112 0.83408 0.95458 0.0
C463 C 0.33463 0.71897 0.01225 0.0
C464 C 0.47565 0.74305 -0.00621 0.0
C465 C 0.49972 0.77262 0.01056 0.0
C466 C 0.4382 0.74498 0.98422 0.0
C467 C 0.4254 0.7779 0.99141 0.0
C468 C 0.45159 0.80984 0.00747 0.0
C469 C 0.48824 0.80648 0.01702 0.0
C470 C 0.41072 0.71009 0.96723 0.0
C471 C 0.4396 0.84612 0.01517 0.0
H472 H 0.34464 0.81656 0.94289 0.0
H473 H 0.26367 0.72116 0.99195 0.0
H474 H 0.45708 0.85915 0.96593 0.0
H475 H 0.44592 0.81276 0.94819 0.0
H476 H 0.42729 0.85445 0.94168 0.0
H477 H 0.29792 0.69883 0.01823 0.0
H478 H 0.34696 0.6938 0.00861 0.0
H479 H 0.35765 0.74253 0.02477 0.0
H480 H 0.48449 0.71679 0.98883 0.0
H481 H 0.5072 0.82969 0.02988 0.0
H482 H 0.40801 0.72863 0.95334 0.0
H483 H 0.37427 0.68575 0.9727 0.0
H484 H 0.42711 0.68888 0.96254 0.0
H485 H 0.4359 0.86569 0.00191 0.0
H486 H 0.46676 0.87178 0.026 0.0
H487 H 0.40523 0.82824 0.02342 0.0
C488 C 0.55841 0.28268 0.31799 0.0
C489 C 0.53331 0.28659 0.30123 0.0
C490 C 0.59703 0.32279 0.32649 0.0
C491 C 0.61011 0.36769 0.31818 0.0
C492 C 0.58419 0.3719 0.30156 0.0
C493 C 0.54623 0.33116 0.29316 0.0
C494 C 0.62424 0.31707 0.34413 0.0
C495 C 0.59674 0.41935 0.29259 0.0
C496 C 0.68327 0.47058 0.35376 0.0
C497 C 0.72891 0.48621 0.34623 0.0
C498 C 0.64402 0.43298 0.3443 0.0
C499 C 0.65081 0.41026 0.32706 0.0
C500 C 0.69666 0.4269 0.31893 0.0
C501 C 0.73531 0.46503 0.32858 0.0
C502 C 0.59551 0.41659 0.35317 0.0
C503 C 0.70508 0.40328 0.30059 0.0
H504 H 0.54862 0.24818 0.32413 0.0
H505 H 0.52675 0.33424 0.28021 0.0
H506 H 0.66171 0.33177 0.33957 0.0
H507 H 0.62365 0.33708 0.35793 0.0
H508 H 0.60969 0.27961 0.34865 0.0
H509 H 0.57218 0.41655 0.28001 0.0
H510 H 0.59612 0.44255 0.305 0.0
H511 H 0.63309 0.43676 0.28622 0.0
H512 H 0.6782 0.48712 0.36735 0.0
H513 H 0.77062 0.47706 0.32278 0.0
H514 H 0.58102 0.38068 0.35974 0.0
H515 H 0.57106 0.41451 0.34071 0.0
H516 H 0.59598 0.44032 0.36562 0.0
H517 H 0.69505 0.36659 0.30477 0.0
H518 H 0.74254 0.42207 0.29551 0.0
H519 H 0.68263 0.40135 0.28727 0.0
C520 C 0.21156 0.53125 0.63352 0.0
C521 C 0.2421 0.51616 0.6409 0.0
C522 C 0.21016 0.5691 0.64284 0.0
C523 C 0.24048 0.59264 0.65976 0.0
C524 C 0.27026 0.57657 0.66775 0.0
C525 C 0.27049 0.53815 0.65827 0.0
C526 C 0.1774 0.58484 0.63413 0.0
C527 C 0.30321 0.6011 0.68574 0.0
C528 C 0.27548 0.7204 0.66804 0.0
C529 C 0.24714 0.71696 0.68501 0.0
C530 C 0.27381 0.68008 0.65973 0.0
C531 C 0.24255 0.63544 0.66844 0.0
C532 C 0.21312 0.6317 0.68528 0.0
C533 C 0.21601 0.67264 0.69347 0.0
C534 C 0.30596 0.68531 0.64183 0.0
C535 C 0.17885 0.58454 0.69471 0.0
H536 H 0.18933 0.51408 0.62016 0.0
H537 H 0.29421 0.52656 0.66394 0.0
H538 H 0.15555 0.58726 0.64673 0.0
H539 H 0.19837 0.6205 0.62725 0.0
H540 H 0.15359 0.56053 0.62195 0.0
H541 H 0.32227 0.58268 0.69077 0.0
H542 H 0.32957 0.63764 0.68119 0.0
H543 H 0.2833 0.60348 0.69919 0.0
H544 H 0.29978 0.7547 0.66158 0.0
H545 H 0.19397 0.6699 0.70657 0.0
H546 H 0.28475 0.66467 0.62826 0.0
H547 H 0.32913 0.67102 0.64628 0.0
H548 H 0.3285 0.72261 0.63698 0.0
H549 H 0.15446 0.56075 0.68258 0.0
H550 H 0.15764 0.58768 0.70744 0.0
H551 H 0.1983 0.5676 0.701 0.0
C552 C 0.40843 0.23942 0.12089 0.0
C553 C 0.37989 0.20349 0.10709 0.0
C554 C 0.40036 0.23329 0.14235 0.0
C555 C 0.36207 0.19062 0.14994 0.0
C556 C 0.33055 0.15611 0.13581 0.0
C557 C 0.34052 0.16253 0.11446 0.0
C558 C 0.4352 0.27079 0.15689 0.0
C559 C 0.28827 0.11113 0.14323 0.0
C560 C 0.39134 0.16115 0.20255 0.0
C561 C 0.37572 0.1848 0.2155 0.0
C562 C 0.38374 0.15934 0.18102 0.0
C563 C 0.35888 0.18063 0.17256 0.0
C564 C 0.33805 0.19927 0.18597 0.0
C565 C 0.34747 0.20192 0.20733 0.0
C566 C 0.40672 0.13927 0.16723 0.0
C567 C 0.3095 0.22026 0.17763 0.0
H568 H 0.43932 0.27064 0.11503 0.0
H569 H 0.31885 0.13463 0.10362 0.0
H570 H 0.41654 0.28152 0.16807 0.0
H571 H 0.45395 0.25643 0.16603 0.0
H572 H 0.46184 0.30262 0.14844 0.0
H573 H 0.26171 0.09405 0.13067 0.0
H574 H 0.29972 0.08607 0.14832 0.0
H575 H 0.27127 0.11785 0.15671 0.0
H576 H 0.41343 0.14823 0.20893 0.0
H577 H 0.33514 0.21994 0.21748 0.0
H578 H 0.43644 0.16836 0.15865 0.0
H579 H 0.38129 0.11499 0.15555 0.0
H580 H 0.42064 0.11994 0.17627 0.0
H581 H 0.33364 0.25603 0.17145 0.0
H582 H 0.28738 0.22334 0.18995 0.0
H583 H 0.28634 0.19865 0.16469 0.0
C584 C 0.20725 0.43445 0.45388 0.0
C585 C 0.19686 0.39892 0.43936 0.0
C586 C 0.20346 0.42482 0.47519 0.0
C587 C 0.18954 0.37857 0.48204 0.0
C588 C 0.17772 0.34217 0.46733 0.0
C589 C 0.18162 0.35288 0.44601 0.0
C590 C 0.21579 0.46456 0.49035 0.0
C591 C 0.16298 0.2926 0.47407 0.0
C592 C 0.23165 0.38433 0.53714 0.0
C593 C 0.19264 0.3797 0.54813 0.0
C594 C 0.22978 0.37932 0.51541 0.0
C595 C 0.18793 0.3694 0.50469 0.0
C596 C 0.14699 0.35943 0.51601 0.0
C597 C 0.14987 0.36473 0.53763 0.0
C598 C 0.27391 0.38931 0.50383 0.0
C599 C 0.10153 0.34812 0.50522 0.0
H600 H 0.21977 0.47015 0.4485 0.0
H601 H 0.17469 0.32583 0.43459 0.0
H602 H 0.18582 0.45514 0.50108 0.0
H603 H 0.2465 0.47056 0.49994 0.0
H604 H 0.22457 0.49807 0.48241 0.0
H605 H 0.14923 0.26735 0.46088 0.0
H606 H 0.19379 0.29185 0.48083 0.0
H607 H 0.13552 0.28055 0.48633 0.0
H608 H 0.26467 0.39559 0.54524 0.0
H609 H 0.11929 0.36012 0.54618 0.0
H610 H 0.29004 0.42494 0.49677 0.0
H611 H 0.26549 0.36363 0.49102 0.0
H612 H 0.30035 0.38812 0.51426 0.0
H613 H 0.10514 0.38084 0.49836 0.0
H614 H 0.07116 0.33328 0.51614 0.0
H615 H 0.09368 0.32272 0.49234 0.0
C616 C 0.84098 0.23706 0.87214 0.0
C617 C 0.82639 0.19903 0.8857 0.0
C618 C 0.84263 0.2308 0.85066 0.0
C619 C 0.8309 0.18575 0.84284 0.0
C620 C 0.82124 0.14865 0.8568 0.0
C621 C 0.81794 0.15542 0.87812 0.0
C622 C 0.85246 0.27119 0.83631 0.0
C623 C 0.81097 0.10089 0.84918 0.0
C624 C 0.77122 0.16395 0.79057 0.0
C625 C 0.81029 0.18235 0.77736 0.0
C626 C 0.77687 0.16149 0.81206 0.0
C627 C 0.8225 0.17647 0.82021 0.0
C628 C 0.86091 0.18953 0.80654 0.0
C629 C 0.85456 0.19339 0.78522 0.0
C630 C 0.73501 0.14775 0.82611 0.0
C631 C 0.90947 0.20327 0.81453 0.0
H632 H 0.84682 0.27052 0.87812 0.0
H633 H 0.80653 0.12603 0.88877 0.0
H634 H 0.88078 0.2774 0.82513 0.0
H635 H 0.82029 0.26223 0.82714 0.0
H636 H 0.8632 0.30444 0.84491 0.0
H637 H 0.81654 0.08072 0.86166 0.0
H638 H 0.77365 0.0803 0.84409 0.0
H639 H 0.83356 0.10422 0.83568 0.0
H640 H 0.73717 0.15601 0.78439 0.0
H641 H 0.88475 0.20764 0.77487 0.0
H642 H 0.74046 0.17905 0.83507 0.0
H643 H 0.73141 0.12073 0.83747 0.0
H644 H 0.70147 0.13373 0.81727 0.0
H645 H 0.92695 0.24002 0.82037 0.0
H646 H 0.93194 0.20127 0.80208 0.0
H647 H 0.90737 0.18024 0.82763 0.0
C648 C 0.60486 0.77231 0.11805 0.0
C649 C 0.63115 0.80988 0.10459 0.0
C650 C 0.61222 0.778 0.13957 0.0
C651 C 0.64778 0.8219 0.14756 0.0
C652 C 0.67725 0.8585 0.13376 0.0
C653 C 0.66779 0.85241 0.11237 0.0
C654 C 0.57946 0.7383 0.15378 0.0
C655 C 0.71684 0.90494 0.14159 0.0
C656 C 0.6155 0.84535 0.20078 0.0
C657 C 0.63453 0.82421 0.21334 0.0
C658 C 0.62244 0.84807 0.1792 0.0
C659 C 0.65021 0.83047 0.17029 0.0
C660 C 0.67407 0.81439 0.1833 0.0
C661 C 0.66513 0.81052 0.20472 0.0
C662 C 0.59596 0.86506 0.16584 0.0
C663 C 0.70575 0.79751 0.17447 0.0
H664 H 0.57612 0.73975 0.11189 0.0
H665 H 0.6879 0.88145 0.10178 0.0
H666 H 0.60002 0.72927 0.16466 0.0
H667 H 0.55857 0.74962 0.16328 0.0
H668 H 0.55465 0.70604 0.14504 0.0
H669 H 0.74257 0.92492 0.12908 0.0
H670 H 0.70216 0.92678 0.14746 0.0
H671 H 0.73578 0.89949 0.15465 0.0
H672 H 0.59148 0.85546 0.20753 0.0
H673 H 0.67993 0.79429 0.21458 0.0
H674 H 0.56777 0.83482 0.15713 0.0
H675 H 0.61986 0.8911 0.15426 0.0
H676 H 0.57943 0.88143 0.17522 0.0
H677 H 0.68387 0.76152 0.16804 0.0
H678 H 0.72934 0.79623 0.18656 0.0
H679 H 0.72767 0.82073 0.16161 0.0
C680 C 0.83168 0.64866 0.54112 0.0
C681 C 0.79874 0.60335 0.54789 0.0
C682 C 0.83865 0.65907 0.51979 0.0
C683 C 0.8122 0.62305 0.50516 0.0
C684 C 0.77782 0.5776 0.51213 0.0
C685 C 0.7717 0.56829 0.53347 0.0
C686 C 0.87551 0.70784 0.51293 0.0
C687 C 0.74855 0.53829 0.49704 0.0
C688 C 0.78921 0.63898 0.44935 0.0
C689 C 0.81581 0.6224 0.43902 0.0
C690 C 0.79119 0.64396 0.47098 0.0
C691 C 0.82027 0.63174 0.4825 0.0
C692 C 0.85092 0.61978 0.47198 0.0
C693 C 0.84844 0.61538 0.45023 0.0
C694 C 0.7586 0.65764 0.48157 0.0
C695 C 0.88287 0.60708 0.48377 0.0
H696 H 0.85316 0.67531 0.55248 0.0
H697 H 0.74687 0.5331 0.53893 0.0
H698 H 0.90572 0.70645 0.50588 0.0
H699 H 0.86103 0.72131 0.50086 0.0
H700 H 0.88885 0.73316 0.5261 0.0
H701 H 0.72249 0.50544 0.50506 0.0
H702 H 0.72926 0.54927 0.48631 0.0
H703 H 0.77193 0.53041 0.48744 0.0
H704 H 0.76453 0.64527 0.44061 0.0
H705 H 0.86914 0.60271 0.44226 0.0
H706 H 0.77688 0.6826 0.49451 0.0
H707 H 0.72817 0.62571 0.48829 0.0
H708 H 0.74482 0.67398 0.47054 0.0
H709 H 0.90114 0.63246 0.49658 0.0
H710 H 0.90974 0.60629 0.47349 0.0
H711 H 0.86139 0.57169 0.49085 0.0
C712 C 0.18574 0.84261 0.87186 0.0
C713 C 0.1866 0.80253 0.87871 0.0
C714 C 0.18036 0.849 0.85066 0.0
C715 C 0.17805 0.81546 0.83614 0.0
C716 C 0.17617 0.77359 0.84326 0.0
C717 C 0.17991 0.76742 0.86457 0.0
C718 C 0.18044 0.89305 0.84379 0.0
C719 C 0.17429 0.73712 0.8283 0.0
C720 C 0.14809 0.80236 0.77921 0.0
C721 C 0.1931 0.82069 0.77044 0.0
C722 C 0.14255 0.80537 0.80065 0.0
C723 C 0.18296 0.82574 0.81353 0.0
C724 C 0.22857 0.84851 0.80444 0.0
C725 C 0.23307 0.8462 0.78285 0.0
C726 C 0.09344 0.78276 0.80966 0.0
C727 C 0.27262 0.87061 0.81765 0.0
H728 H 0.19152 0.86994 0.88294 0.0
H729 H 0.18152 0.73693 0.87002 0.0
H730 H 0.21649 0.91973 0.83876 0.0
H731 H 0.15628 0.88577 0.83043 0.0
H732 H 0.16986 0.90845 0.85666 0.0
H733 H 0.17129 0.70583 0.83643 0.0
H734 H 0.14384 0.72517 0.8176 0.0
H735 H 0.20677 0.75294 0.81866 0.0
H736 H 0.11715 0.78303 0.76948 0.0
H737 H 0.26784 0.86019 0.77602 0.0
H738 H 0.09182 0.80396 0.82275 0.0
H739 H 0.08355 0.74737 0.8158 0.0
H740 H 0.06701 0.77848 0.79773 0.0
H741 H 0.27087 0.89416 0.82954 0.0
H742 H 0.30503 0.89122 0.8082 0.0
H743 H 0.27555 0.84251 0.82597 0.0
C744 C 0.57483 0.60892 0.03832 0.0
C745 C 0.55153 0.6288 0.0489 0.0
C746 C 0.55638 0.55973 0.03813 0.0
C747 C 0.51393 0.52978 0.04896 0.0
C748 C 0.49095 0.54989 0.06003 0.0
C749 C 0.50986 0.59893 0.05979 0.0
C750 C 0.58184 0.5397 0.02604 0.0
C751 C 0.44607 0.51953 0.07203 0.0
C752 C 0.44125 0.39919 0.03472 0.0
C753 C 0.45676 0.37866 0.04958 0.0
C754 C 0.45983 0.44838 0.03419 0.0
C755 C 0.49391 0.47752 0.04915 0.0
C756 C 0.50838 0.4566 0.06458 0.0
C757 C 0.49007 0.40763 0.06445 0.0
C758 C 0.4439 0.46929 0.01731 0.0
C759 C 0.54363 0.48601 0.08114 0.0
H760 H 0.60675 0.63165 0.02971 0.0
H761 H 0.49156 0.61389 0.06805 0.0
H762 H 0.59182 0.51927 0.03656 0.0
H763 H 0.55806 0.51501 0.01399 0.0
H764 H 0.61422 0.56754 0.01835 0.0
H765 H 0.43294 0.54067 0.08013 0.0
H766 H 0.41813 0.49454 0.06134 0.0
H767 H 0.45209 0.49824 0.08375 0.0
H768 H 0.41605 0.37705 0.02302 0.0
H769 H 0.50217 0.39194 0.07599 0.0
H770 H 0.47469 0.49439 0.00788 0.0
H771 H 0.42843 0.48946 0.02431 0.0
H772 H 0.41733 0.44198 0.00681 0.0
H773 H 0.57766 0.5115 0.07381 0.0
H774 H 0.55013 0.46421 0.09241 0.0
H775 H 0.53081 0.50673 0.08978 0.0
C776 C 0.92009 0.51294 0.39729 0.0
C777 C 0.92744 0.55025 0.38416 0.0
C778 C 0.95096 0.4948 0.39728 0.0
C779 C 0.98999 0.51385 0.38355 0.0
C780 C 0.9981 0.55208 0.37047 0.0
C781 C 0.96695 0.57009 0.37105 0.0
C782 C 0.94141 0.45479 0.41181 0.0
C783 C 0.03905 0.57316 0.35547 0.0
C784 C 0.09392 0.49592 0.39562 0.0
C785 C 0.08549 0.45817 0.38255 0.0
C786 C 0.06293 0.51388 0.39626 0.0
C787 C 0.02267 0.49423 0.38324 0.0
C788 C 0.01352 0.4556 0.37019 0.0
C789 C 0.04483 0.43774 0.37013 0.0
C790 C 0.07364 0.55433 0.41073 0.0
C791 C 0.97126 0.4339 0.35592 0.0
H792 H 0.88963 0.49739 0.40749 0.0
H793 H 0.97251 0.59847 0.36066 0.0
H794 H 0.93506 0.42341 0.4027 0.0
H795 H 0.97267 0.46477 0.4218 0.0
H796 H 0.91036 0.44484 0.42196 0.0
H797 H 0.04056 0.60266 0.34634 0.0
H798 H 0.07274 0.58637 0.36406 0.0
H799 H 0.03617 0.54566 0.34454 0.0
H800 H 0.12524 0.51189 0.4053 0.0
H801 H 0.03841 0.40897 0.35982 0.0
H802 H 0.04328 0.5446 0.42126 0.0
H803 H 0.07911 0.58539 0.40161 0.0
H804 H 0.10558 0.56468 0.42033 0.0
H805 H 0.93835 0.42097 0.36508 0.0
H806 H 0.96898 0.4041 0.34675 0.0
H807 H 0.9731 0.46099 0.34499 0.0
C808 C 0.59742 0.09082 0.73346 0.0
C809 C 0.62905 0.0853 0.72061 0.0
C810 C 0.54867 0.05891 0.7328 0.0
C811 C 0.53062 0.0204 0.71884 0.0
C812 C 0.56237 0.01411 0.70602 0.0
C813 C 0.61124 0.04652 0.70712 0.0
C814 C 0.51639 0.06673 0.74696 0.0
C815 C 0.54459 0.97358 0.69089 0.0
C816 C 0.41002 0.91457 0.73077 0.0
C817 C 0.38006 0.92164 0.71747 0.0
C818 C 0.45883 0.94629 0.73133 0.0
C819 C 0.47865 0.9862 0.71814 0.0
C820 C 0.44858 0.99397 0.70483 0.0
C821 C 0.3996 0.96172 0.70472 0.0
C822 C 0.48926 0.93687 0.74597 0.0
C823 C 0.46829 0.03599 0.69048 0.0
H824 H 0.61077 0.12064 0.74396 0.0
H825 H 0.63531 0.04225 0.69699 0.0
H826 H 0.49057 0.07137 0.73757 0.0
H827 H 0.496 0.03539 0.75699 0.0
H828 H 0.53601 0.09814 0.75708 0.0
H829 H 0.57367 0.97353 0.682 0.0
H830 H 0.52486 0.93965 0.69933 0.0
H831 H 0.5197 0.97544 0.67974 0.0
H832 H 0.39532 0.88372 0.7407 0.0
H833 H 0.37684 0.96721 0.69424 0.0
H834 H 0.5083 0.96704 0.75676 0.0
H835 H 0.51627 0.93326 0.73704 0.0
H836 H 0.46839 0.90437 0.75531 0.0
H837 H 0.48679 0.06902 0.69965 0.0
H838 H 0.44042 0.03693 0.68098 0.0
H839 H 0.49467 0.03529 0.67988 0.0
C840 C 0.59709 0.50484 0.5923 0.0
C841 C 0.62678 0.54435 0.60446 0.0
C842 C 0.54808 0.4867 0.5917 0.0
C843 C 0.52777 0.50806 0.60379 0.0
C844 C 0.55759 0.54847 0.61588 0.0
C845 C 0.60681 0.56638 0.61594 0.0
C846 C 0.51797 0.44424 0.57827 0.0
C847 C 0.53736 0.57207 0.62914 0.0
C848 C 0.40587 0.48712 0.58912 0.0
C849 C 0.37633 0.4516 0.60308 0.0
C850 C 0.45492 0.50528 0.58902 0.0
C851 C 0.47539 0.48827 0.60354 0.0
C852 C 0.44568 0.45187 0.6175 0.0
C853 C 0.39645 0.43363 0.61697 0.0
C854 C 0.48491 0.54315 0.57352 0.0
C855 C 0.46604 0.43306 0.63338 0.0
H856 H 0.6122 0.4876 0.58334 0.0
H857 H 0.62942 0.59655 0.62554 0.0
H858 H 0.49267 0.41449 0.58812 0.0
H859 H 0.49697 0.45235 0.56722 0.0
H860 H 0.53934 0.43265 0.56927 0.0
H861 H 0.56513 0.60315 0.63761 0.0
H862 H 0.51714 0.58362 0.61933 0.0
H863 H 0.51239 0.54656 0.64065 0.0
H864 H 0.39058 0.50121 0.57833 0.0
H865 H 0.37394 0.4067 0.628 0.0
H866 H 0.50599 0.53187 0.56414 0.0
H867 H 0.51015 0.57584 0.58182 0.0
H868 H 0.46344 0.55146 0.5628 0.0
H869 H 0.48635 0.41877 0.62549 0.0
H870 H 0.43834 0.40488 0.64317 0.0
H871 H 0.49096 0.46211 0.64366 0.0
C872 C 0.09669 0.59713 0.92544 0.0
C873 C 0.09087 0.62918 0.93782 0.0
C874 C 0.06431 0.54858 0.92612 0.0
C875 C 0.02503 0.53119 0.93965 0.0
C876 C 0.01852 0.56335 0.95203 0.0
C877 C 0.0514 0.61202 0.9509 0.0
C878 C 0.07238 0.51581 0.91242 0.0
C879 C 0.97723 0.54623 0.96674 0.0
C880 C 0.91902 0.41109 0.92733 0.0
C881 C 0.92552 0.38115 0.94084 0.0
C882 C 0.95101 0.45977 0.92682 0.0
C883 C 0.99039 0.47944 0.94036 0.0
C884 C 0.99737 0.4494 0.95399 0.0
C885 C 0.96504 0.40054 0.95395 0.0
C886 C 0.94258 0.4902 0.91178 0.0
C887 C 0.03867 0.46899 0.9688 0.0
H888 H 0.12704 0.60999 0.91525 0.0
H889 H 0.04688 0.63645 0.96066 0.0
H890 H 0.07625 0.49 0.92215 0.0
H891 H 0.04143 0.49552 0.90215 0.0
H892 H 0.10436 0.53497 0.90257 0.0
H893 H 0.97719 0.57558 0.97536 0.0
H894 H 0.94364 0.5268 0.95798 0.0
H895 H 0.97816 0.52128 0.97813 0.0
H896 H 0.88858 0.39642 0.91712 0.0
H897 H 0.96999 0.37774 0.9646 0.0
H898 H 0.97329 0.50879 0.90121 0.0
H899 H 0.93894 0.51752 0.92041 0.0
H900 H 0.91038 0.46946 0.90222 0.0
H901 H 0.07224 0.48686 0.95996 0.0
H902 H 0.03869 0.4412 0.97868 0.0
H903 H 0.03782 0.49581 0.97903 0.0
C904 C 0.51111 0.91381 0.25548 0.0
C905 C 0.54842 0.92072 0.26857 0.0
C906 C 0.49363 0.94519 0.25546 0.0
C907 C 0.51359 0.98452 0.26898 0.0
C908 C 0.55173 0.99215 0.28206 0.0
C909 C 0.56886 0.96029 0.28163 0.0
C910 C 0.45346 0.93597 0.24104 0.0
C911 C 0.57391 0.03356 0.29676 0.0
C912 C 0.49777 0.08897 0.25553 0.0
C913 C 0.46069 0.08225 0.26871 0.0
C914 C 0.51507 0.05745 0.25543 0.0
C915 C 0.49516 0.01816 0.26898 0.0
C916 C 0.45715 0.01065 0.28211 0.0
C917 C 0.4402 0.04267 0.28175 0.0
C918 C 0.5551 0.06654 0.24096 0.0
C919 C 0.43502 0.96929 0.29683 0.0
H920 H 0.49505 0.88337 0.24531 0.0
H921 H 0.59734 0.96563 0.29193 0.0
H922 H 0.42273 0.93138 0.2502 0.0
H923 H 0.46412 0.96665 0.23062 0.0
H924 H 0.44216 0.90407 0.23131 0.0
H925 H 0.60312 0.03455 0.30597 0.0
H926 H 0.58789 0.06696 0.28791 0.0
H927 H 0.54683 0.03196 0.30764 0.0
H928 H 0.51386 0.11944 0.24538 0.0
H929 H 0.41192 0.03748 0.29214 0.0
H930 H 0.54439 0.03573 0.23061 0.0
H931 H 0.58595 0.07131 0.25009 0.0
H932 H 0.56625 0.0983 0.23116 0.0
H933 H 0.42113 0.93586 0.288 0.0
H934 H 0.40576 0.96827 0.306 0.0
H935 H 0.46211 0.97102 0.30774 0.0
loop_
_geom_bond_atom_site_label_1
_geom_bond_atom_site_label_2
_geom_bond_distance
_geom_bond_site_symmetry_2
_ccdc_geom_bond_type
Co0 O1 2.216 . S
Co0 O2 2.091 . S
Co0 O4 2.004 . S
Co0 O10 2.021 . S
Co0 O12 2.137 . S
Co0 O13 2.244 . S
O1 Co0 2.216 . S
O1 C8 1.247 . S
O2 Co0 2.091 . S
O2 C8 1.261 . S
C3 O12 1.247 . S
C3 O13 1.272 . S
O4 Co0 2.004 . S
O4 C9 1.259 . S
Co5 O6 2.061 . S
Co5 O11 2.052 . S
Co5 O13 2.135 . S
O6 Co5 2.061 . S
O6 C9 1.235 . S
C7 O10 1.238 . S
C7 O11 1.241 . S
C8 O1 1.247 . S
C8 O2 1.261 . S
C9 O4 1.259 . S
C9 O6 1.235 . S
O10 Co0 2.021 . S
O10 C7 1.238 . S
O11 Co5 2.052 . S
O11 C7 1.241 . S
O12 Co0 2.137 . S
O12 C3 1.247 . S
O13 Co0 2.244 . S
O13 C3 1.272 . S
O13 Co5 2.135 . S
Co14 O15 2.216 . S
Co14 O16 2.091 . S
Co14 O18 2.004 . S
Co14 O24 2.021 . S
Co14 O26 2.137 . S
Co14 O27 2.244 . S
O15 Co14 2.216 . S
O15 C22 1.247 . S
O16 Co14 2.091 . S
O16 C22 1.261 . S
C17 O26 1.247 . S
C17 O27 1.272 . S
O18 Co14 2.004 . S
O18 C23 1.259 . S
Co19 O20 2.061 . S
Co19 O25 2.052 . S
Co19 O27 2.135 . S
O20 Co19 2.061 . S
O20 C23 1.235 . S
C21 O24 1.238 . S
C21 O25 1.241 . S
C22 O15 1.247 . S
C22 O16 1.261 . S
C23 O18 1.259 . S
C23 O20 1.235 . S
O24 Co14 2.021 . S
O24 C21 1.238 . S
O25 Co19 2.052 . S
O25 C21 1.241 . S
O26 Co14 2.137 . S
O26 C17 1.247 . S
O27 Co14 2.244 . S
O27 C17 1.272 . S
O27 Co19 2.135 . S
Co28 O29 2.216 . S
Co28 O30 2.091 . S
Co28 O32 2.004 . S
Co28 O38 2.021 . S
Co28 O40 2.137 . S
Co28 O41 2.244 . S
O29 Co28 2.216 . S
O29 C36 1.247 . S
O30 Co28 2.091 . S
O30 C36 1.261 . S
C31 O40 1.247 . S
C31 O41 1.272 . S
O32 Co28 2.004 . S
O32 C37 1.259 . S
Co33 O34 2.061 . S
Co33 O39 2.052 . S
Co33 O41 2.135 . S
O34 Co33 2.061 . S
O34 C37 1.235 . S
C35 O38 1.238 . S
C35 O39 1.241 . S
C36 O29 1.247 . S
C36 O30 1.261 . S
C37 O32 1.259 . S
C37 O34 1.235 . S
O38 Co28 2.021 . S
O38 C35 1.238 . S
O39 Co33 2.052 . S
O39 C35 1.241 . S
O40 Co28 2.137 . S
O40 C31 1.247 . S
O41 Co28 2.244 . S
O41 C31 1.272 . S
O41 Co33 2.135 . S
Co42 O43 2.216 . S
Co42 O44 2.091 . S
Co42 O46 2.004 . S
Co42 O52 2.021 . S
Co42 O54 2.137 . S
Co42 O55 2.244 . S
O43 Co42 2.216 . S
O43 C50 1.247 . S
O44 Co42 2.091 . S
O44 C50 1.261 . S
C45 O54 1.247 . S
C45 O55 1.272 . S
O46 Co42 2.004 . S
O46 C51 1.259 . S
Co47 O48 2.061 . S
Co47 O53 2.052 . S
Co47 O55 2.135 . S
O48 Co47 2.061 . S
O48 C51 1.235 . S
C49 O52 1.238 . S
C49 O53 1.241 . S
C50 O43 1.247 . S
C50 O44 1.261 . S
C51 O46 1.259 . S
C51 O48 1.235 . S
O52 Co42 2.021 . S
O52 C49 1.238 . S
O53 Co47 2.052 . S
O53 C49 1.241 . S
O54 Co42 2.137 . S
O54 C45 1.247 . S
O55 Co42 2.244 . S
O55 C45 1.272 . S
O55 Co47 2.135 . S
Co56 O57 2.216 . S
Co56 O58 2.091 . S
Co56 O60 2.004 . S
Co56 O66 2.021 . S
Co56 O68 2.137 . S
Co56 O69 2.244 . S
O57 Co56 2.216 . S
O57 C64 1.247 . S
O58 Co56 2.091 . S
O58 C64 1.261 . S
C59 O68 1.247 . S
C59 O69 1.272 . S
O60 Co56 2.004 . S
O60 C65 1.259 . S
Co61 O62 2.061 . S
Co61 O67 2.052 . S
Co61 O69 2.135 . S
O62 Co61 2.061 . S
O62 C65 1.235 . S
C63 O66 1.238 . S
C63 O67 1.241 . S
C64 O57 1.247 . S
C64 O58 1.261 . S
C65 O60 1.259 . S
C65 O62 1.235 . S
O66 Co56 2.021 . S
O66 C63 1.238 . S
O67 Co61 2.052 . S
O67 C63 1.241 . S
O68 Co56 2.137 . S
O68 C59 1.247 . S
O69 Co56 2.244 . S
O69 C59 1.272 . S
O69 Co61 2.135 . S
Co70 O71 2.216 . S
Co70 O72 2.091 . S
Co70 O74 2.004 . S
Co70 O80 2.021 . S
Co70 O82 2.137 . S
Co70 O83 2.244 . S
O71 Co70 2.216 . S
O71 C78 1.247 . S
O72 Co70 2.091 . S
O72 C78 1.261 . S
C73 O82 1.247 . S
C73 O83 1.272 . S
O74 Co70 2.004 . S
O74 C79 1.259 . S
Co75 O76 2.061 . S
Co75 O81 2.052 . S
Co75 O83 2.135 . S
O76 Co75 2.061 . S
O76 C79 1.235 . S
C77 O80 1.238 . S
C77 O81 1.241 . S
C78 O71 1.247 . S
C78 O72 1.261 . S
C79 O74 1.259 . S
C79 O76 1.235 . S
O80 Co70 2.021 . S
O80 C77 1.238 . S
O81 Co75 2.052 . S
O81 C77 1.241 . S
O82 Co70 2.137 . S
O82 C73 1.247 . S
O83 Co70 2.244 . S
O83 C73 1.272 . S
O83 Co75 2.135 . S
Co84 O85 2.216 . S
Co84 O86 2.091 . S
Co84 O88 2.004 . S
Co84 O94 2.021 . S
Co84 O96 2.137 . S
Co84 O97 2.244 . S
O85 Co84 2.216 . S
O85 C92 1.247 . S
O86 Co84 2.091 . S
O86 C92 1.261 . S
C87 O96 1.247 . S
C87 O97 1.272 . S
O88 Co84 2.004 . S
O88 C93 1.259 . S
Co89 O90 2.061 . S
Co89 O95 2.052 . S
Co89 O97 2.135 . S
O90 Co89 2.061 . S
O90 C93 1.235 . S
C91 O94 1.238 . S
C91 O95 1.241 . S
C92 O85 1.247 . S
C92 O86 1.261 . S
C93 O88 1.259 . S
C93 O90 1.235 . S
O94 Co84 2.021 . S
O94 C91 1.238 . S
O95 Co89 2.052 . S
O95 C91 1.241 . S
O96 Co84 2.137 . S
O96 C87 1.247 . S
O97 Co84 2.244 . S
O97 C87 1.272 . S
O97 Co89 2.135 . S
Co98 O99 2.216 . S
Co98 O100 2.091 . S
Co98 O102 2.004 . S
Co98 O108 2.021 . S
Co98 O110 2.137 . S
Co98 O111 2.244 . S
O99 Co98 2.216 . S
O99 C106 1.247 . S
O100 Co98 2.091 . S
O100 C106 1.261 . S
C101 O110 1.247 . S
C101 O111 1.272 . S
O102 Co98 2.004 . S
O102 C107 1.259 . S
Co103 O104 2.061 . S
Co103 O109 2.052 . S
Co103 O111 2.135 . S
O104 Co103 2.061 . S
O104 C107 1.235 . S
C105 O108 1.238 . S
C105 O109 1.241 . S
C106 O99 1.247 . S
C106 O100 1.261 . S
C107 O102 1.259 . S
C107 O104 1.235 . S
O108 Co98 2.021 . S
O108 C105 1.238 . S
O109 Co103 2.052 . S
O109 C105 1.241 . S
O110 Co98 2.137 . S
O110 C101 1.247 . S
O111 Co98 2.244 . S
O111 C101 1.272 . S
O111 Co103 2.135 . S
Co112 O113 2.216 . S
Co112 O114 2.091 . S
Co112 O116 2.004 . S
Co112 O122 2.021 . S
Co112 O124 2.137 . S
Co112 O125 2.244 . S
O113 Co112 2.216 . S
O113 C120 1.247 . S
O114 Co112 2.091 . S
O114 C120 1.261 . S
C115 O124 1.247 . S
C115 O125 1.272 . S
O116 Co112 2.004 . S
O116 C121 1.259 . S
Co117 O118 2.061 . S
Co117 O123 2.052 . S
Co117 O125 2.135 . S
O118 Co117 2.061 . S
O118 C121 1.235 . S
C119 O122 1.238 . S
C119 O123 1.241 . S
C120 O113 1.247 . S
C120 O114 1.261 . S
C121 O116 1.259 . S
C121 O118 1.235 . S
O122 Co112 2.021 . S
O122 C119 1.238 . S
O123 Co117 2.052 . S
O123 C119 1.241 . S
O124 Co112 2.137 . S
O124 C115 1.247 . S
O125 Co112 2.244 . S
O125 C115 1.272 . S
O125 Co117 2.135 . S
Co126 O127 2.216 . S
Co126 O128 2.091 . S
Co126 O130 2.004 . S
Co126 O136 2.021 . S
Co126 O138 2.137 . S
Co126 O139 2.244 . S
O127 Co126 2.216 . S
O127 C134 1.247 . S
O128 Co126 2.091 . S
O128 C134 1.261 . S
C129 O138 1.247 . S
C129 O139 1.272 . S
O130 Co126 2.004 . S
O130 C135 1.259 . S
Co131 O132 2.061 . S
Co131 O137 2.052 . S
Co131 O139 2.135 . S
O132 Co131 2.061 . S
O132 C135 1.235 . S
C133 O136 1.238 . S
C133 O137 1.241 . S
C134 O127 1.247 . S
C134 O128 1.261 . S
C135 O130 1.259 . S
C135 O132 1.235 . S
O136 Co126 2.021 . S
O136 C133 1.238 . S
O137 Co131 2.052 . S
O137 C133 1.241 . S
O138 Co126 2.137 . S
O138 C129 1.247 . S
O139 Co126 2.244 . S
O139 C129 1.272 . S
O139 Co131 2.135 . S
Co140 O141 2.216 . S
Co140 O142 2.091 . S
Co140 O144 2.004 . S
Co140 O150 2.021 . S
Co140 O152 2.137 . S
Co140 O153 2.244 . S
O141 Co140 2.216 . S
O141 C148 1.247 . S
O142 Co140 2.091 . S
O142 C148 1.261 . S
C143 O152 1.247 . S
C143 O153 1.272 . S
O144 Co140 2.004 . S
O144 C149 1.259 . S
Co145 O146 2.061 . S
Co145 O151 2.052 . S
Co145 O153 2.135 . S
O146 Co145 2.061 . S
O146 C149 1.235 . S
C147 O150 1.238 . S
C147 O151 1.241 . S
C148 O141 1.247 . S
C148 O142 1.261 . S
C149 O144 1.259 . S
C149 O146 1.235 . S
O150 Co140 2.021 . S
O150 C147 1.238 . S
O151 Co145 2.052 . S
O151 C147 1.241 . S
O152 Co140 2.137 . S
O152 C143 1.247 . S
O153 Co140 2.244 . S
O153 C143 1.272 . S
O153 Co145 2.135 . S
Co154 O155 2.216 . S
Co154 O156 2.091 . S
Co154 O158 2.004 . S
Co154 O164 2.021 . S
Co154 O166 2.137 . S
Co154 O167 2.244 . S
O155 Co154 2.216 . S
O155 C162 1.247 . S
O156 Co154 2.091 . S
O156 C162 1.261 . S
C157 O166 1.247 . S
C157 O167 1.272 . S
O158 Co154 2.004 . S
O158 C163 1.259 . S
Co159 O160 2.061 . S
Co159 O165 2.052 . S
Co159 O167 2.135 . S
O160 Co159 2.061 . S
O160 C163 1.235 . S
C161 O164 1.238 . S
C161 O165 1.241 . S
C162 O155 1.247 . S
C162 O156 1.261 . S
C163 O158 1.259 . S
C163 O160 1.235 . S
O164 Co154 2.021 . S
O164 C161 1.238 . S
O165 Co159 2.052 . S
O165 C161 1.241 . S
O166 Co154 2.137 . S
O166 C157 1.247 . S
O167 Co154 2.244 . S
O167 C157 1.272 . S
O167 Co159 2.135 . S
C168 C169 1.391 . S
C168 C170 1.394 1_556 S
C168 H184 0.931 . S
C169 C168 1.391 . S
C169 C173 1.376 . S
C170 C168 1.394 1_554 S
C170 C171 1.369 1_554 S
C170 C174 1.531 . S
C171 C170 1.369 1_556 S
C171 C172 1.410 . S
C171 C179 1.503 1_566 S
C172 C171 1.410 . S
C172 C173 1.392 . S
C172 C175 1.511 . S
C173 C169 1.376 . S
C173 C172 1.392 . S
C173 H185 0.929 . S
C174 C170 1.531 . S
C174 H186 0.960 . S
C174 H187 0.962 . S
C174 H188 0.960 . S
C175 C172 1.511 . S
C175 H189 0.961 . S
C175 H190 0.961 1_565 S
C175 H191 0.961 . S
C176 C177 1.370 . S
C176 C178 1.363 1_554 S
C176 H192 0.931 1_554 S
C177 C176 1.370 . S
C177 C181 1.408 . S
C178 C176 1.363 1_556 S
C178 C179 1.370 1_556 S
C178 C182 1.524 . S
C179 C171 1.503 1_544 S
C179 C178 1.370 1_554 S
C179 C180 1.403 . S
C180 C179 1.403 . S
C180 C181 1.404 . S
C180 C183 1.539 1_545 S
C181 C177 1.408 . S
C181 C180 1.404 . S
C181 H193 0.930 . S
C182 C178 1.524 . S
C182 H194 0.956 . S
C182 H195 0.961 . S
C182 H196 0.961 . S
C183 C180 1.539 1_565 S
C183 H197 0.958 . S
C183 H198 0.961 1_565 S
C183 H199 0.960 . S
H184 C168 0.931 . S
H185 C173 0.929 . S
H186 C174 0.960 . S
H187 C174 0.962 . S
H188 C174 0.960 . S
H189 C175 0.961 . S
H190 C175 0.961 1_545 S
H191 C175 0.961 . S
H192 C176 0.931 1_556 S
H193 C181 0.930 . S
H194 C182 0.956 . S
H195 C182 0.961 . S
H196 C182 0.961 . S
H197 C183 0.958 . S
H198 C183 0.961 1_545 S
H199 C183 0.960 . S
C200 C201 1.391 . S
C200 C202 1.394 . S
C200 H216 0.931 . S
C201 C200 1.391 . S
C201 C205 1.376 . S
C202 C200 1.394 . S
C202 C203 1.369 . S
C202 C206 1.531 . S
C203 C202 1.369 . S
C203 C204 1.410 . S
C203 C211 1.503 . S
C204 C203 1.410 . S
C204 C205 1.392 . S
C204 C207 1.511 . S
C205 C201 1.376 . S
C205 C204 1.392 . S
C205 H217 0.929 . S
C206 C202 1.531 . S
C206 H218 0.960 . S
C206 H219 0.962 . S
C206 H220 0.960 . S
C207 C204 1.511 . S
C207 H221 0.961 . S
C207 H222 0.961 . S
C207 H223 0.961 . S
C208 C209 1.370 . S
C208 C210 1.363 . S
C208 H224 0.931 . S
C209 C208 1.370 . S
C209 C213 1.408 . S
C210 C208 1.363 . S
C210 C211 1.370 . S
C210 C214 1.524 . S
C211 C203 1.503 . S
C211 C210 1.370 . S
C211 C212 1.403 . S
C212 C211 1.403 . S
C212 C213 1.404 . S
C212 C215 1.539 . S
C213 C209 1.408 . S
C213 C212 1.404 . S
C213 H225 0.930 . S
C214 C210 1.524 . S
C214 H226 0.956 . S
C214 H227 0.961 . S
C214 H228 0.961 . S
C215 C212 1.539 . S
C215 H229 0.958 . S
C215 H230 0.961 . S
C215 H231 0.960 . S
H216 C200 0.931 . S
H217 C205 0.929 . S
H218 C206 0.960 . S
H219 C206 0.962 . S
H220 C206 0.960 . S
H221 C207 0.961 . S
H222 C207 0.961 . S
H223 C207 0.961 . S
H224 C208 0.931 . S
H225 C213 0.930 . S
H226 C214 0.956 . S
H227 C214 0.961 . S
H228 C214 0.961 . S
H229 C215 0.958 . S
H230 C215 0.961 . S
H231 C215 0.960 . S
C232 C233 1.391 . S
C232 C234 1.394 . S
C232 H248 0.931 . S
C233 C232 1.391 . S
C233 C237 1.376 . S
C234 C232 1.394 . S
C234 C235 1.369 . S
C234 C238 1.531 1_655 S
C235 C234 1.369 . S
C235 C236 1.410 . S
C235 C243 1.503 1_655 S
C236 C235 1.410 . S
C236 C237 1.392 . S
C236 C239 1.511 . S
C237 C233 1.376 . S
C237 C236 1.392 . S
C237 H249 0.929 . S
C238 C234 1.531 1_455 S
C238 H250 0.960 . S
C238 H251 0.962 . S
C238 H252 0.960 1_455 S
C239 C236 1.511 . S
C239 H253 0.961 . S
C239 H254 0.961 . S
C239 H255 0.961 . S
C240 C241 1.370 . S
C240 C242 1.363 . S
C240 H256 0.931 . S
C241 C240 1.370 . S
C241 C245 1.408 . S
C242 C240 1.363 . S
C242 C243 1.370 . S
C242 C246 1.524 1_455 S
C243 C235 1.503 1_455 S
C243 C242 1.370 . S
C243 C244 1.403 . S
C244 C243 1.403 . S
C244 C245 1.404 . S
C244 C247 1.539 . S
C245 C241 1.408 . S
C245 C244 1.404 . S
C245 H257 0.930 . S
C246 C242 1.524 1_655 S
C246 H258 0.956 . S
C246 H259 0.961 . S
C246 H260 0.961 . S
C247 C244 1.539 . S
C247 H261 0.958 . S
C247 H262 0.961 . S
C247 H263 0.960 . S
H248 C232 0.931 . S
H249 C237 0.929 . S
H250 C238 0.960 . S
H251 C238 0.962 . S
H252 C238 0.960 1_655 S
H253 C239 0.961 . S
H254 C239 0.961 . S
H255 C239 0.961 . S
H256 C240 0.931 . S
H257 C245 0.930 . S
H258 C246 0.956 . S
H259 C246 0.961 . S
H260 C246 0.961 . S
H261 C247 0.958 . S
H262 C247 0.961 . S
H263 C247 0.960 . S
C264 C265 1.391 . S
C264 C266 1.394 . S
C264 H280 0.931 . S
C265 C264 1.391 . S
C265 C269 1.376 . S
C266 C264 1.394 . S
C266 C267 1.369 . S
C266 C270 1.531 1_565 S
C267 C266 1.369 . S
C267 C268 1.410 1_554 S
C267 C275 1.503 1_564 S
C268 C267 1.410 1_556 S
C268 C269 1.392 1_556 S
C268 C271 1.511 . S
C269 C265 1.376 . S
C269 C268 1.392 1_554 S
C269 H281 0.929 1_554 S
C270 C266 1.531 1_545 S
C270 H282 0.960 . S
C270 H283 0.962 . S
C270 H284 0.960 . S
C271 C268 1.511 . S
C271 H285 0.961 . S
C271 H286 0.961 . S
C271 H287 0.961 . S
C272 C273 1.370 . S
C272 C274 1.363 . S
C272 H288 0.931 . S
C273 C272 1.370 . S
C273 C277 1.408 . S
C274 C272 1.363 . S
C274 C275 1.370 . S
C274 C278 1.524 1_556 S
C275 C267 1.503 1_546 S
C275 C274 1.370 . S
C275 C276 1.403 . S
C276 C275 1.403 . S
C276 C277 1.404 . S
C276 C279 1.539 . S
C277 C273 1.408 . S
C277 C276 1.404 . S
C277 H289 0.930 . S
C278 C274 1.524 1_554 S
C278 H290 0.956 . S
C278 H291 0.961 1_544 S
C278 H292 0.961 . S
C279 C276 1.539 . S
C279 H293 0.958 . S
C279 H294 0.961 . S
C279 H295 0.960 1_545 S
H280 C264 0.931 . S
H281 C269 0.929 1_556 S
H282 C270 0.960 . S
H283 C270 0.962 . S
H284 C270 0.960 . S
H285 C271 0.961 . S
H286 C271 0.961 . S
H287 C271 0.961 . S
H288 C272 0.931 . S
H289 C277 0.930 . S
H290 C278 0.956 . S
H291 C278 0.961 1_566 S
H292 C278 0.961 . S
H293 C279 0.958 . S
H294 C279 0.961 . S
H295 C279 0.960 1_565 S
C296 C297 1.391 . S
C296 C298 1.394 . S
C296 H312 0.931 . S
C297 C296 1.391 . S
C297 C301 1.376 . S
C298 C296 1.394 . S
C298 C299 1.369 . S
C298 C302 1.531 . S
C299 C298 1.369 . S
C299 C300 1.410 . S
C299 C307 1.503 . S
C300 C299 1.410 . S
C300 C301 1.392 . S
C300 C303 1.511 . S
C301 C297 1.376 . S
C301 C300 1.392 . S
C301 H313 0.929 . S
C302 C298 1.531 . S
C302 H314 0.960 . S
C302 H315 0.962 . S
C302 H316 0.960 . S
C303 C300 1.511 . S
C303 H317 0.961 . S
C303 H318 0.961 . S
C303 H319 0.961 . S
C304 C305 1.370 . S
C304 C306 1.363 . S
C304 H320 0.931 . S
C305 C304 1.370 . S
C305 C309 1.408 . S
C306 C304 1.363 . S
C306 C307 1.370 . S
C306 C310 1.524 . S
C307 C299 1.503 . S
C307 C306 1.370 . S
C307 C308 1.403 . S
C308 C307 1.403 . S
C308 C309 1.404 . S
C308 C311 1.539 . S
C309 C305 1.408 . S
C309 C308 1.404 . S
C309 H321 0.930 . S
C310 C306 1.524 . S
C310 H322 0.956 . S
C310 H323 0.961 . S
C310 H324 0.961 . S
C311 C308 1.539 . S
C311 H325 0.958 . S
C311 H326 0.961 . S
C311 H327 0.960 . S
H312 C296 0.931 . S
H313 C301 0.929 . S
H314 C302 0.960 . S
H315 C302 0.962 . S
H316 C302 0.960 . S
H317 C303 0.961 . S
H318 C303 0.961 . S
H319 C303 0.961 . S
H320 C304 0.931 . S
H321 C309 0.930 . S
H322 C310 0.956 . S
H323 C310 0.961 . S
H324 C310 0.961 . S
H325 C311 0.958 . S
H326 C311 0.961 . S
H327 C311 0.960 . S
C328 C329 1.391 . S
C328 C330 1.394 . S
C328 H344 0.931 . S
C329 C328 1.391 . S
C329 C333 1.376 . S
C330 C328 1.394 . S
C330 C331 1.369 . S
C330 C334 1.531 . S
C331 C330 1.369 . S
C331 C332 1.410 . S
C331 C339 1.503 1_655 S
C332 C331 1.410 . S
C332 C333 1.392 . S
C332 C335 1.511 1_655 S
C333 C329 1.376 . S
C333 C332 1.392 . S
C333 H345 0.929 . S
C334 C330 1.531 . S
C334 H346 0.960 . S
C334 H347 0.962 . S
C334 H348 0.960 . S
C335 C332 1.511 1_455 S
C335 H349 0.961 . S
C335 H350 0.961 . S
C335 H351 0.961 . S
C336 C337 1.370 . S
C336 C338 1.363 . S
C336 H352 0.931 . S
C337 C336 1.370 . S
C337 C341 1.408 . S
C338 C336 1.363 . S
C338 C339 1.370 . S
C338 C342 1.524 . S
C339 C331 1.503 1_455 S
C339 C338 1.370 . S
C339 C340 1.403 . S
C340 C339 1.403 . S
C340 C341 1.404 . S
C340 C343 1.539 . S
C341 C337 1.408 . S
C341 C340 1.404 . S
C341 H353 0.930 . S
C342 C338 1.524 . S
C342 H354 0.956 . S
C342 H355 0.961 . S
C342 H356 0.961 . S
C343 C340 1.539 . S
C343 H357 0.958 1_455 S
C343 H358 0.961 . S
C343 H359 0.960 1_455 S
H344 C328 0.931 . S
H345 C333 0.929 . S
H346 C334 0.960 . S
H347 C334 0.962 . S
H348 C334 0.960 . S
H349 C335 0.961 . S
H350 C335 0.961 . S
H351 C335 0.961 . S
H352 C336 0.931 . S
H353 C341 0.930 . S
H354 C342 0.956 . S
H355 C342 0.961 . S
H356 C342 0.961 . S
H357 C343 0.958 1_655 S
H358 C343 0.961 . S
H359 C343 0.960 1_655 S
C360 C361 1.391 . S
C360 C362 1.394 . S
C360 H376 0.931 . S
C361 C360 1.391 . S
C361 C365 1.376 1_556 S
C362 C360 1.394 . S
C362 C363 1.369 . S
C362 C366 1.531 . S
C363 C362 1.369 . S
C363 C364 1.410 1_556 S
C363 C371 1.503 1_556 S
C364 C363 1.410 1_554 S
C364 C365 1.392 . S
C364 C367 1.511 . S
C365 C361 1.376 1_554 S
C365 C364 1.392 . S
C365 H377 0.929 . S
C366 C362 1.531 . S
C366 H378 0.960 . S
C366 H379 0.962 . S
C366 H380 0.960 . S
C367 C364 1.511 . S
C367 H381 0.961 . S
C367 H382 0.961 . S
C367 H383 0.961 . S
C368 C369 1.370 . S
C368 C370 1.363 . S
C368 H384 0.931 . S
C369 C368 1.370 . S
C369 C373 1.408 . S
C370 C368 1.363 . S
C370 C371 1.370 . S
C370 C374 1.524 . S
C371 C363 1.503 1_554 S
C371 C370 1.370 . S
C371 C372 1.403 . S
C372 C371 1.403 . S
C372 C373 1.404 . S
C372 C375 1.539 . S
C373 C369 1.408 . S
C373 C372 1.404 . S
C373 H385 0.930 . S
C374 C370 1.524 . S
C374 H386 0.956 1_554 S
C374 H387 0.961 . S
C374 H388 0.961 . S
C375 C372 1.539 . S
C375 H389 0.958 1_554 S
C375 H390 0.961 . S
C375 H391 0.960 . S
H376 C360 0.931 . S
H377 C365 0.929 . S
H378 C366 0.960 . S
H379 C366 0.962 . S
H380 C366 0.960 . S
H381 C367 0.961 . S
H382 C367 0.961 . S
H383 C367 0.961 . S
H384 C368 0.931 . S
H385 C373 0.930 . S
H386 C374 0.956 1_556 S
H387 C374 0.961 . S
H388 C374 0.961 . S
H389 C375 0.958 1_556 S
H390 C375 0.961 . S
H391 C375 0.960 . S
C392 C393 1.391 . S
C392 C394 1.394 . S
C392 H408 0.931 . S
C393 C392 1.391 . S
C393 C397 1.376 . S
C394 C392 1.394 . S
C394 C395 1.369 . S
C394 C398 1.531 . S
C395 C394 1.369 . S
C395 C396 1.410 . S
C395 C403 1.503 . S
C396 C395 1.410 . S
C396 C397 1.392 . S
C396 C399 1.511 . S
C397 C393 1.376 . S
C397 C396 1.392 . S
C397 H409 0.929 . S
C398 C394 1.531 . S
C398 H410 0.960 . S
C398 H411 0.962 . S
C398 H412 0.960 . S
C399 C396 1.511 . S
C399 H413 0.961 . S
C399 H414 0.961 . S
C399 H415 0.961 . S
C400 C401 1.370 . S
C400 C402 1.363 . S
C400 H416 0.931 . S
C401 C400 1.370 . S
C401 C405 1.408 . S
C402 C400 1.363 . S
C402 C403 1.370 . S
C402 C406 1.524 . S
C403 C395 1.503 . S
C403 C402 1.370 . S
C403 C404 1.403 . S
C404 C403 1.403 . S
C404 C405 1.404 . S
C404 C407 1.539 . S
C405 C401 1.408 . S
C405 C404 1.404 . S
C405 H417 0.930 . S
C406 C402 1.524 . S
C406 H418 0.956 . S
C406 H419 0.961 . S
C406 H420 0.961 . S
C407 C404 1.539 . S
C407 H421 0.958 . S
C407 H422 0.961 . S
C407 H423 0.960 . S
H408 C392 0.931 . S
H409 C397 0.929 . S
H410 C398 0.960 . S
H411 C398 0.962 . S
H412 C398 0.960 . S
H413 C399 0.961 . S
H414 C399 0.961 . S
H415 C399 0.961 . S
H416 C400 0.931 . S
H417 C405 0.930 . S
H418 C406 0.956 . S
H419 C406 0.961 . S
H420 C406 0.961 . S
H421 C407 0.958 . S
H422 C407 0.961 . S
H423 C407 0.960 . S
C424 C425 1.391 . S
C424 C426 1.394 . S
C424 H440 0.931 . S
C425 C424 1.391 . S
C425 C429 1.376 . S
C426 C424 1.394 . S
C426 C427 1.369 . S
C426 C430 1.531 . S
C427 C426 1.369 . S
C427 C428 1.410 . S
C427 C435 1.503 . S
C428 C427 1.410 . S
C428 C429 1.392 . S
C428 C431 1.511 . S
C429 C425 1.376 . S
C429 C428 1.392 . S
C429 H441 0.929 . S
C430 C426 1.531 . S
C430 H442 0.960 . S
C430 H443 0.962 . S
C430 H444 0.960 . S
C431 C428 1.511 . S
C431 H445 0.961 . S
C431 H446 0.961 . S
C431 H447 0.961 . S
C432 C433 1.370 . S
C432 C434 1.363 . S
C432 H448 0.931 . S
C433 C432 1.370 . S
C433 C437 1.408 . S
C434 C432 1.363 . S
C434 C435 1.370 . S
C434 C438 1.524 . S
C435 C427 1.503 . S
C435 C434 1.370 . S
C435 C436 1.403 . S
C436 C435 1.403 . S
C436 C437 1.404 . S
C436 C439 1.539 . S
C437 C433 1.408 . S
C437 C436 1.404 . S
C437 H449 0.930 . S
C438 C434 1.524 . S
C438 H450 0.956 . S
C438 H451 0.961 . S
C438 H452 0.961 . S
C439 C436 1.539 . S
C439 H453 0.958 . S
C439 H454 0.961 . S
C439 H455 0.960 . S
H440 C424 0.931 . S
H441 C429 0.929 . S
H442 C430 0.960 . S
H443 C430 0.962 . S
H444 C430 0.960 . S
H445 C431 0.961 . S
H446 C431 0.961 . S
H447 C431 0.961 . S
H448 C432 0.931 . S
H449 C437 0.930 . S
H450 C438 0.956 . S
H451 C438 0.961 . S
H452 C438 0.961 . S
H453 C439 0.958 . S
H454 C439 0.961 . S
H455 C439 0.960 . S
C456 C457 1.391 . S
C456 C458 1.394 . S
C456 H472 0.931 . S
C457 C456 1.391 . S
C457 C461 1.376 1_556 S
C458 C456 1.394 . S
C458 C459 1.369 . S
C458 C462 1.531 . S
C459 C458 1.369 . S
C459 C460 1.410 1_556 S
C459 C467 1.503 1_556 S
C460 C459 1.410 1_554 S
C460 C461 1.392 . S
C460 C463 1.511 . S
C461 C457 1.376 1_554 S
C461 C460 1.392 . S
C461 H473 0.929 . S
C462 C458 1.531 . S
C462 H474 0.960 . S
C462 H475 0.962 . S
C462 H476 0.960 . S
C463 C460 1.511 . S
C463 H477 0.961 . S
C463 H478 0.961 . S
C463 H479 0.961 . S
C464 C465 1.370 . S
C464 C466 1.363 . S
C464 H480 0.931 . S
C465 C464 1.370 . S
C465 C469 1.408 . S
C466 C464 1.363 . S
C466 C467 1.370 . S
C466 C470 1.524 . S
C467 C459 1.503 1_554 S
C467 C466 1.370 . S
C467 C468 1.403 . S
C468 C467 1.403 . S
C468 C469 1.404 . S
C468 C471 1.539 1_554 S
C469 C465 1.408 . S
C469 C468 1.404 . S
C469 H481 0.930 . S
C470 C466 1.524 . S
C470 H482 0.956 1_554 S
C470 H483 0.961 . S
C470 H484 0.961 . S
C471 C468 1.539 1_556 S
C471 H485 0.958 . S
C471 H486 0.961 1_556 S
C471 H487 0.960 . S
H472 C456 0.931 . S
H473 C461 0.929 . S
H474 C462 0.960 . S
H475 C462 0.962 . S
H476 C462 0.960 . S
H477 C463 0.961 . S
H478 C463 0.961 . S
H479 C463 0.961 . S
H480 C464 0.931 . S
H481 C469 0.930 . S
H482 C470 0.956 1_556 S
H483 C470 0.961 . S
H484 C470 0.961 . S
H485 C471 0.958 . S
H486 C471 0.961 1_554 S
H487 C471 0.960 . S
C488 C489 1.391 . S
C488 C490 1.394 . S
C488 H504 0.931 . S
C489 C488 1.391 . S
C489 C493 1.376 . S
C490 C488 1.394 . S
C490 C491 1.369 . S
C490 C494 1.531 . S
C491 C490 1.369 . S
C491 C492 1.410 . S
C491 C499 1.503 . S
C492 C491 1.410 . S
C492 C493 1.392 . S
C492 C495 1.511 . S
C493 C489 1.376 . S
C493 C492 1.392 . S
C493 H505 0.929 . S
C494 C490 1.531 . S
C494 H506 0.960 . S
C494 H507 0.962 . S
C494 H508 0.960 . S
C495 C492 1.511 . S
C495 H509 0.961 . S
C495 H510 0.961 . S
C495 H511 0.961 . S
C496 C497 1.370 . S
C496 C498 1.363 . S
C496 H512 0.931 . S
C497 C496 1.370 . S
C497 C501 1.408 . S
C498 C496 1.363 . S
C498 C499 1.370 . S
C498 C502 1.524 . S
C499 C491 1.503 . S
C499 C498 1.370 . S
C499 C500 1.403 . S
C500 C499 1.403 . S
C500 C501 1.404 . S
C500 C503 1.539 . S
C501 C497 1.408 . S
C501 C500 1.404 . S
C501 H513 0.930 . S
C502 C498 1.524 . S
C502 H514 0.956 . S
C502 H515 0.961 . S
C502 H516 0.961 . S
C503 C500 1.539 . S
C503 H517 0.958 . S
C503 H518 0.961 . S
C503 H519 0.960 . S
H504 C488 0.931 . S
H505 C493 0.929 . S
H506 C494 0.960 . S
H507 C494 0.962 . S
H508 C494 0.960 . S
H509 C495 0.961 . S
H510 C495 0.961 . S
H511 C495 0.961 . S
H512 C496 0.931 . S
H513 C501 0.930 . S
H514 C502 0.956 . S
H515 C502 0.961 . S
H516 C502 0.961 . S
H517 C503 0.958 . S
H518 C503 0.961 . S
H519 C503 0.960 . S
C520 C521 1.391 . S
C520 C522 1.394 . S
C520 H536 0.931 . S
C521 C520 1.391 . S
C521 C525 1.376 . S
C522 C520 1.394 . S
C522 C523 1.369 . S
C522 C526 1.531 . S
C523 C522 1.369 . S
C523 C524 1.410 . S
C523 C531 1.503 . S
C524 C523 1.410 . S
C524 C525 1.392 . S
C524 C527 1.511 . S
C525 C521 1.376 . S
C525 C524 1.392 . S
C525 H537 0.929 . S
C526 C522 1.531 . S
C526 H538 0.960 . S
C526 H539 0.962 . S
C526 H540 0.960 . S
C527 C524 1.511 . S
C527 H541 0.961 . S
C527 H542 0.961 . S
C527 H543 0.961 . S
C528 C529 1.370 . S
C528 C530 1.363 . S
C528 H544 0.931 . S
C529 C528 1.370 . S
C529 C533 1.408 . S
C530 C528 1.363 . S
C530 C531 1.370 . S
C530 C534 1.524 . S
C531 C523 1.503 . S
C531 C530 1.370 . S
C531 C532 1.403 . S
C532 C531 1.403 . S
C532 C533 1.404 . S
C532 C535 1.539 . S
C533 C529 1.408 . S
C533 C532 1.404 . S
C533 H545 0.930 . S
C534 C530 1.524 . S
C534 H546 0.956 . S
C534 H547 0.961 . S
C534 H548 0.961 . S
C535 C532 1.539 . S
C535 H549 0.958 . S
C535 H550 0.961 . S
C535 H551 0.960 . S
H536 C520 0.931 . S
H537 C525 0.929 . S
H538 C526 0.960 . S
H539 C526 0.962 . S
H540 C526 0.960 . S
H541 C527 0.961 . S
H542 C527 0.961 . S
H543 C527 0.961 . S
H544 C528 0.931 . S
H545 C533 0.930 . S
H546 C534 0.956 . S
H547 C534 0.961 . S
H548 C534 0.961 . S
H549 C535 0.958 . S
H550 C535 0.961 . S
H551 C535 0.960 . S
C552 C553 1.391 . S
C552 C554 1.394 . S
C552 H568 0.931 . S
C553 C552 1.391 . S
C553 C557 1.376 . S
C554 C552 1.394 . S
C554 C555 1.369 . S
C554 C558 1.531 . S
C555 C554 1.369 . S
C555 C556 1.410 . S
C555 C563 1.503 . S
C556 C555 1.410 . S
C556 C557 1.392 . S
C556 C559 1.511 . S
C557 C553 1.376 . S
C557 C556 1.392 . S
C557 H569 0.929 . S
C558 C554 1.531 . S
C558 H570 0.960 . S
C558 H571 0.962 . S
C558 H572 0.960 . S
C559 C556 1.511 . S
C559 H573 0.961 . S
C559 H574 0.961 . S
C559 H575 0.961 . S
C560 C561 1.370 . S
C560 C562 1.363 . S
C560 H576 0.931 . S
C561 C560 1.370 . S
C561 C565 1.408 . S
C562 C560 1.363 . S
C562 C563 1.370 . S
C562 C566 1.524 . S
C563 C555 1.503 . S
C563 C562 1.370 . S
C563 C564 1.403 . S
C564 C563 1.403 . S
C564 C565 1.404 . S
C564 C567 1.539 . S
C565 C561 1.408 . S
C565 C564 1.404 . S
C565 H577 0.930 . S
C566 C562 1.524 . S
C566 H578 0.956 . S
C566 H579 0.961 . S
C566 H580 0.961 . S
C567 C564 1.539 . S
C567 H581 0.958 . S
C567 H582 0.961 . S
C567 H583 0.960 . S
H568 C552 0.931 . S
H569 C557 0.929 . S
H570 C558 0.960 . S
H571 C558 0.962 . S
H572 C558 0.960 . S
H573 C559 0.961 . S
H574 C559 0.961 . S
H575 C559 0.961 . S
H576 C560 0.931 . S
H577 C565 0.930 . S
H578 C566 0.956 . S
H579 C566 0.961 . S
H580 C566 0.961 . S
H581 C567 0.958 . S
H582 C567 0.961 . S
H583 C567 0.960 . S
C584 C585 1.391 . S
C584 C586 1.394 . S
C584 H600 0.931 . S
C585 C584 1.391 . S
C585 C589 1.376 . S
C586 C584 1.394 . S
C586 C587 1.369 . S
C586 C590 1.531 . S
C587 C586 1.369 . S
C587 C588 1.410 . S
C587 C595 1.503 . S
C588 C587 1.410 . S
C588 C589 1.392 . S
C588 C591 1.511 . S
C589 C585 1.376 . S
C589 C588 1.392 . S
C589 H601 0.929 . S
C590 C586 1.531 . S
C590 H602 0.960 . S
C590 H603 0.962 . S
C590 H604 0.960 . S
C591 C588 1.511 . S
C591 H605 0.961 . S
C591 H606 0.961 . S
C591 H607 0.961 . S
C592 C593 1.370 . S
C592 C594 1.363 . S
C592 H608 0.931 . S
C593 C592 1.370 . S
C593 C597 1.408 . S
C594 C592 1.363 . S
C594 C595 1.370 . S
C594 C598 1.524 . S
C595 C587 1.503 . S
C595 C594 1.370 . S
C595 C596 1.403 . S
C596 C595 1.403 . S
C596 C597 1.404 . S
C596 C599 1.539 . S
C597 C593 1.408 . S
C597 C596 1.404 . S
C597 H609 0.930 . S
C598 C594 1.524 . S
C598 H610 0.956 . S
C598 H611 0.961 . S
C598 H612 0.961 . S
C599 C596 1.539 . S
C599 H613 0.958 . S
C599 H614 0.961 . S
C599 H615 0.960 . S
H600 C584 0.931 . S
H601 C589 0.929 . S
H602 C590 0.960 . S
H603 C590 0.962 . S
H604 C590 0.960 . S
H605 C591 0.961 . S
H606 C591 0.961 . S
H607 C591 0.961 . S
H608 C592 0.931 . S
H609 C597 0.930 . S
H610 C598 0.956 . S
H611 C598 0.961 . S
H612 C598 0.961 . S
H613 C599 0.958 . S
H614 C599 0.961 . S
H615 C599 0.960 . S
C616 C617 1.391 . S
C616 C618 1.394 . S
C616 H632 0.931 . S
C617 C616 1.391 . S
C617 C621 1.376 . S
C618 C616 1.394 . S
C618 C619 1.369 . S
C618 C622 1.531 . S
C619 C618 1.369 . S
C619 C620 1.410 . S
C619 C627 1.503 . S
C620 C619 1.410 . S
C620 C621 1.392 . S
C620 C623 1.511 . S
C621 C617 1.376 . S
C621 C620 1.392 . S
C621 H633 0.929 . S
C622 C618 1.531 . S
C622 H634 0.960 . S
C622 H635 0.962 . S
C622 H636 0.960 . S
C623 C620 1.511 . S
C623 H637 0.961 . S
C623 H638 0.961 . S
C623 H639 0.961 . S
C624 C625 1.370 . S
C624 C626 1.363 . S
C624 H640 0.931 . S
C625 C624 1.370 . S
C625 C629 1.408 . S
C626 C624 1.363 . S
C626 C627 1.370 . S
C626 C630 1.524 . S
C627 C619 1.503 . S
C627 C626 1.370 . S
C627 C628 1.403 . S
C628 C627 1.403 . S
C628 C629 1.404 . S
C628 C631 1.539 . S
C629 C625 1.408 . S
C629 C628 1.404 . S
C629 H641 0.930 . S
C630 C626 1.524 . S
C630 H642 0.956 . S
C630 H643 0.961 . S
C630 H644 0.961 . S
C631 C628 1.539 . S
C631 H645 0.958 . S
C631 H646 0.961 . S
C631 H647 0.960 . S
H632 C616 0.931 . S
H633 C621 0.929 . S
H634 C622 0.960 . S
H635 C622 0.962 . S
H636 C622 0.960 . S
H637 C623 0.961 . S
H638 C623 0.961 . S
H639 C623 0.961 . S
H640 C624 0.931 . S
H641 C629 0.930 . S
H642 C630 0.956 . S
H643 C630 0.961 . S
H644 C630 0.961 . S
H645 C631 0.958 . S
H646 C631 0.961 . S
H647 C631 0.960 . S
C648 C649 1.391 . S
C648 C650 1.394 . S
C648 H664 0.931 . S
C649 C648 1.391 . S
C649 C653 1.376 . S
C650 C648 1.394 . S
C650 C651 1.369 . S
C650 C654 1.531 . S
C651 C650 1.369 . S
C651 C652 1.410 . S
C651 C659 1.503 . S
C652 C651 1.410 . S
C652 C653 1.392 . S
C652 C655 1.511 . S
C653 C649 1.376 . S
C653 C652 1.392 . S
C653 H665 0.929 . S
C654 C650 1.531 . S
C654 H666 0.960 . S
C654 H667 0.962 . S
C654 H668 0.960 . S
C655 C652 1.511 . S
C655 H669 0.961 . S
C655 H670 0.961 . S
C655 H671 0.961 . S
C656 C657 1.370 . S
C656 C658 1.363 . S
C656 H672 0.931 . S
C657 C656 1.370 . S
C657 C661 1.408 . S
C658 C656 1.363 . S
C658 C659 1.370 . S
C658 C662 1.524 . S
C659 C651 1.503 . S
C659 C658 1.370 . S
C659 C660 1.403 . S
C660 C659 1.403 . S
C660 C661 1.404 . S
C660 C663 1.539 . S
C661 C657 1.408 . S
C661 C660 1.404 . S
C661 H673 0.930 . S
C662 C658 1.524 . S
C662 H674 0.956 . S
C662 H675 0.961 . S
C662 H676 0.961 . S
C663 C660 1.539 . S
C663 H677 0.958 . S
C663 H678 0.961 . S
C663 H679 0.960 . S
H664 C648 0.931 . S
H665 C653 0.929 . S
H666 C654 0.960 . S
H667 C654 0.962 . S
H668 C654 0.960 . S
H669 C655 0.961 . S
H670 C655 0.961 . S
H671 C655 0.961 . S
H672 C656 0.931 . S
H673 C661 0.930 . S
H674 C662 0.956 . S
H675 C662 0.961 . S
H676 C662 0.961 . S
H677 C663 0.958 . S
H678 C663 0.961 . S
H679 C663 0.960 . S
C680 C681 1.391 . S
C680 C682 1.394 . S
C680 H696 0.931 . S
C681 C680 1.391 . S
C681 C685 1.376 . S
C682 C680 1.394 . S
C682 C683 1.369 . S
C682 C686 1.531 . S
C683 C682 1.369 . S
C683 C684 1.410 . S
C683 C691 1.503 . S
C684 C683 1.410 . S
C684 C685 1.392 . S
C684 C687 1.511 . S
C685 C681 1.376 . S
C685 C684 1.392 . S
C685 H697 0.929 . S
C686 C682 1.531 . S
C686 H698 0.960 . S
C686 H699 0.962 . S
C686 H700 0.960 . S
C687 C684 1.511 . S
C687 H701 0.961 . S
C687 H702 0.961 . S
C687 H703 0.961 . S
C688 C689 1.370 . S
C688 C690 1.363 . S
C688 H704 0.931 . S
C689 C688 1.370 . S
C689 C693 1.408 . S
C690 C688 1.363 . S
C690 C691 1.370 . S
C690 C694 1.524 . S
C691 C683 1.503 . S
C691 C690 1.370 . S
C691 C692 1.403 . S
C692 C691 1.403 . S
C692 C693 1.404 . S
C692 C695 1.539 . S
C693 C689 1.408 . S
C693 C692 1.404 . S
C693 H705 0.930 . S
C694 C690 1.524 . S
C694 H706 0.956 . S
C694 H707 0.961 . S
C694 H708 0.961 . S
C695 C692 1.539 . S
C695 H709 0.958 . S
C695 H710 0.961 . S
C695 H711 0.960 . S
H696 C680 0.931 . S
H697 C685 0.929 . S
H698 C686 0.960 . S
H699 C686 0.962 . S
H700 C686 0.960 . S
H701 C687 0.961 . S
H702 C687 0.961 . S
H703 C687 0.961 . S
H704 C688 0.931 . S
H705 C693 0.930 . S
H706 C694 0.956 . S
H707 C694 0.961 . S
H708 C694 0.961 . S
H709 C695 0.958 . S
H710 C695 0.961 . S
H711 C695 0.960 . S
C712 C713 1.391 . S
C712 C714 1.394 . S
C712 H728 0.931 . S
C713 C712 1.391 . S
C713 C717 1.376 . S
C714 C712 1.394 . S
C714 C715 1.369 . S
C714 C718 1.531 . S
C715 C714 1.369 . S
C715 C716 1.410 . S
C715 C723 1.503 . S
C716 C715 1.410 . S
C716 C717 1.392 . S
C716 C719 1.511 . S
C717 C713 1.376 . S
C717 C716 1.392 . S
C717 H729 0.929 . S
C718 C714 1.531 . S
C718 H730 0.960 . S
C718 H731 0.962 . S
C718 H732 0.960 . S
C719 C716 1.511 . S
C719 H733 0.961 . S
C719 H734 0.961 . S
C719 H735 0.961 . S
C720 C721 1.370 . S
C720 C722 1.363 . S
C720 H736 0.931 . S
C721 C720 1.370 . S
C721 C725 1.408 . S
C722 C720 1.363 . S
C722 C723 1.370 . S
C722 C726 1.524 . S
C723 C715 1.503 . S
C723 C722 1.370 . S
C723 C724 1.403 . S
C724 C723 1.403 . S
C724 C725 1.404 . S
C724 C727 1.539 . S
C725 C721 1.408 . S
C725 C724 1.404 . S
C725 H737 0.930 . S
C726 C722 1.524 . S
C726 H738 0.956 . S
C726 H739 0.961 . S
C726 H740 0.961 . S
C727 C724 1.539 . S
C727 H741 0.958 . S
C727 H742 0.961 . S
C727 H743 0.960 . S
H728 C712 0.931 . S
H729 C717 0.929 . S
H730 C718 0.960 . S
H731 C718 0.962 . S
H732 C718 0.960 . S
H733 C719 0.961 . S
H734 C719 0.961 . S
H735 C719 0.961 . S
H736 C720 0.931 . S
H737 C725 0.930 . S
H738 C726 0.956 . S
H739 C726 0.961 . S
H740 C726 0.961 . S
H741 C727 0.958 . S
H742 C727 0.961 . S
H743 C727 0.960 . S
C744 C745 1.391 . S
C744 C746 1.394 . S
C744 H760 0.931 . S
C745 C744 1.391 . S
C745 C749 1.376 . S
C746 C744 1.394 . S
C746 C747 1.369 . S
C746 C750 1.531 . S
C747 C746 1.369 . S
C747 C748 1.410 . S
C747 C755 1.503 . S
C748 C747 1.410 . S
C748 C749 1.392 . S
C748 C751 1.511 . S
C749 C745 1.376 . S
C749 C748 1.392 . S
C749 H761 0.929 . S
C750 C746 1.531 . S
C750 H762 0.960 . S
C750 H763 0.962 . S
C750 H764 0.960 . S
C751 C748 1.511 . S
C751 H765 0.961 . S
C751 H766 0.961 . S
C751 H767 0.961 . S
C752 C753 1.370 . S
C752 C754 1.363 . S
C752 H768 0.931 . S
C753 C752 1.370 . S
C753 C757 1.408 . S
C754 C752 1.363 . S
C754 C755 1.370 . S
C754 C758 1.524 . S
C755 C747 1.503 . S
C755 C754 1.370 . S
C755 C756 1.403 . S
C756 C755 1.403 . S
C756 C757 1.404 . S
C756 C759 1.539 . S
C757 C753 1.408 . S
C757 C756 1.404 . S
C757 H769 0.930 . S
C758 C754 1.524 . S
C758 H770 0.956 . S
C758 H771 0.961 . S
C758 H772 0.961 . S
C759 C756 1.539 . S
C759 H773 0.958 . S
C759 H774 0.961 . S
C759 H775 0.960 . S
H760 C744 0.931 . S
H761 C749 0.929 . S
H762 C750 0.960 . S
H763 C750 0.962 . S
H764 C750 0.960 . S
H765 C751 0.961 . S
H766 C751 0.961 . S
H767 C751 0.961 . S
H768 C752 0.931 . S
H769 C757 0.930 . S
H770 C758 0.956 . S
H771 C758 0.961 . S
H772 C758 0.961 . S
H773 C759 0.958 . S
H774 C759 0.961 . S
H775 C759 0.960 . S
C776 C777 1.391 . S
C776 C778 1.394 . S
C776 H792 0.931 . S
C777 C776 1.391 . S
C777 C781 1.376 . S
C778 C776 1.394 . S
C778 C779 1.369 . S
C778 C782 1.531 . S
C779 C778 1.369 . S
C779 C780 1.410 1_655 S
C779 C787 1.503 1_655 S
C780 C779 1.410 1_455 S
C780 C781 1.392 1_455 S
C780 C783 1.511 . S
C781 C777 1.376 . S
C781 C780 1.392 1_655 S
C781 H793 0.929 . S
C782 C778 1.531 . S
C782 H794 0.960 . S
C782 H795 0.962 . S
C782 H796 0.960 . S
C783 C780 1.511 . S
C783 H797 0.961 . S
C783 H798 0.961 . S
C783 H799 0.961 . S
C784 C785 1.370 . S
C784 C786 1.363 . S
C784 H800 0.931 . S
C785 C784 1.370 . S
C785 C789 1.408 . S
C786 C784 1.363 . S
C786 C787 1.370 . S
C786 C790 1.524 . S
C787 C779 1.503 1_455 S
C787 C786 1.370 . S
C787 C788 1.403 . S
C788 C787 1.403 . S
C788 C789 1.404 . S
C788 C791 1.539 . S
C789 C785 1.408 . S
C789 C788 1.404 . S
C789 H801 0.930 . S
C790 C786 1.524 . S
C790 H802 0.956 1_455 S
C790 H803 0.961 . S
C790 H804 0.961 . S
C791 C788 1.539 . S
C791 H805 0.958 1_455 S
C791 H806 0.961 . S
C791 H807 0.960 . S
H792 C776 0.931 . S
H793 C781 0.929 . S
H794 C782 0.960 . S
H795 C782 0.962 . S
H796 C782 0.960 . S
H797 C783 0.961 . S
H798 C783 0.961 . S
H799 C783 0.961 . S
H800 C784 0.931 . S
H801 C789 0.930 . S
H802 C790 0.956 1_655 S
H803 C790 0.961 . S
H804 C790 0.961 . S
H805 C791 0.958 1_655 S
H806 C791 0.961 . S
H807 C791 0.960 . S
C808 C809 1.391 . S
C808 C810 1.394 . S
C808 H824 0.931 . S
C809 C808 1.391 . S
C809 C813 1.376 . S
C810 C808 1.394 . S
C810 C811 1.369 . S
C810 C814 1.531 . S
C811 C810 1.369 . S
C811 C812 1.410 1_545 S
C811 C819 1.503 1_545 S
C812 C811 1.410 1_565 S
C812 C813 1.392 1_565 S
C812 C815 1.511 . S
C813 C809 1.376 . S
C813 C812 1.392 1_545 S
C813 H825 0.929 . S
C814 C810 1.531 . S
C814 H826 0.960 . S
C814 H827 0.962 . S
C814 H828 0.960 . S
C815 C812 1.511 . S
C815 H829 0.961 . S
C815 H830 0.961 . S
C815 H831 0.961 . S
C816 C817 1.370 . S
C816 C818 1.363 . S
C816 H832 0.931 . S
C817 C816 1.370 . S
C817 C821 1.408 . S
C818 C816 1.363 . S
C818 C819 1.370 . S
C818 C822 1.524 . S
C819 C811 1.503 1_565 S
C819 C818 1.370 . S
C819 C820 1.403 . S
C820 C819 1.403 . S
C820 C821 1.404 . S
C820 C823 1.539 1_565 S
C821 C817 1.408 . S
C821 C820 1.404 . S
C821 H833 0.930 . S
C822 C818 1.524 . S
C822 H834 0.956 1_565 S
C822 H835 0.961 . S
C822 H836 0.961 . S
C823 C820 1.539 1_545 S
C823 H837 0.958 . S
C823 H838 0.961 1_545 S
C823 H839 0.960 . S
H824 C808 0.931 . S
H825 C813 0.929 . S
H826 C814 0.960 . S
H827 C814 0.962 . S
H828 C814 0.960 . S
H829 C815 0.961 . S
H830 C815 0.961 . S
H831 C815 0.961 . S
H832 C816 0.931 . S
H833 C821 0.930 . S
H834 C822 0.956 1_545 S
H835 C822 0.961 . S
H836 C822 0.961 . S
H837 C823 0.958 . S
H838 C823 0.961 1_565 S
H839 C823 0.960 . S
C840 C841 1.391 . S
C840 C842 1.394 . S
C840 H856 0.931 . S
C841 C840 1.391 . S
C841 C845 1.376 . S
C842 C840 1.394 . S
C842 C843 1.369 . S
C842 C846 1.531 . S
C843 C842 1.369 . S
C843 C844 1.410 . S
C843 C851 1.503 . S
C844 C843 1.410 . S
C844 C845 1.392 . S
C844 C847 1.511 . S
C845 C841 1.376 . S
C845 C844 1.392 . S
C845 H857 0.929 . S
C846 C842 1.531 . S
C846 H858 0.960 . S
C846 H859 0.962 . S
C846 H860 0.960 . S
C847 C844 1.511 . S
C847 H861 0.961 . S
C847 H862 0.961 . S
C847 H863 0.961 . S
C848 C849 1.370 . S
C848 C850 1.363 . S
C848 H864 0.931 . S
C849 C848 1.370 . S
C849 C853 1.408 . S
C850 C848 1.363 . S
C850 C851 1.370 . S
C850 C854 1.524 . S
C851 C843 1.503 . S
C851 C850 1.370 . S
C851 C852 1.403 . S
C852 C851 1.403 . S
C852 C853 1.404 . S
C852 C855 1.539 . S
C853 C849 1.408 . S
C853 C852 1.404 . S
C853 H865 0.930 . S
C854 C850 1.524 . S
C854 H866 0.956 . S
C854 H867 0.961 . S
C854 H868 0.961 . S
C855 C852 1.539 . S
C855 H869 0.958 . S
C855 H870 0.961 . S
C855 H871 0.960 . S
H856 C840 0.931 . S
H857 C845 0.929 . S
H858 C846 0.960 . S
H859 C846 0.962 . S
H860 C846 0.960 . S
H861 C847 0.961 . S
H862 C847 0.961 . S
H863 C847 0.961 . S
H864 C848 0.931 . S
H865 C853 0.930 . S
H866 C854 0.956 . S
H867 C854 0.961 . S
H868 C854 0.961 . S
H869 C855 0.958 . S
H870 C855 0.961 . S
H871 C855 0.960 . S
C872 C873 1.391 . S
C872 C874 1.394 . S
C872 H888 0.931 . S
C873 C872 1.391 . S
C873 C877 1.376 . S
C874 C872 1.394 . S
C874 C875 1.369 . S
C874 C878 1.531 . S
C875 C874 1.369 . S
C875 C876 1.410 1_455 S
C875 C883 1.503 1_455 S
C876 C875 1.410 1_655 S
C876 C877 1.392 1_655 S
C876 C879 1.511 . S
C877 C873 1.376 . S
C877 C876 1.392 1_455 S
C877 H889 0.929 . S
C878 C874 1.531 . S
C878 H890 0.960 . S
C878 H891 0.962 . S
C878 H892 0.960 . S
C879 C876 1.511 . S
C879 H893 0.961 . S
C879 H894 0.961 . S
C879 H895 0.961 . S
C880 C881 1.370 . S
C880 C882 1.363 . S
C880 H896 0.931 . S
C881 C880 1.370 . S
C881 C885 1.408 . S
C882 C880 1.363 . S
C882 C883 1.370 . S
C882 C886 1.524 1_655 S
C883 C875 1.503 1_655 S
C883 C882 1.370 . S
C883 C884 1.403 . S
C884 C883 1.403 . S
C884 C885 1.404 . S
C884 C887 1.539 . S
C885 C881 1.408 . S
C885 C884 1.404 . S
C885 H897 0.930 . S
C886 C882 1.524 1_455 S
C886 H898 0.956 . S
C886 H899 0.961 1_455 S
C886 H900 0.961 1_455 S
C887 C884 1.539 . S
C887 H901 0.958 1_556 S
C887 H902 0.961 1_556 S
C887 H903 0.960 . S
H888 C872 0.931 . S
H889 C877 0.929 . S
H890 C878 0.960 . S
H891 C878 0.962 . S
H892 C878 0.960 . S
H893 C879 0.961 . S
H894 C879 0.961 . S
H895 C879 0.961 . S
H896 C880 0.931 . S
H897 C885 0.930 . S
H898 C886 0.956 . S
H899 C886 0.961 1_655 S
H900 C886 0.961 1_655 S
H901 C887 0.958 1_554 S
H902 C887 0.961 1_554 S
H903 C887 0.960 . S
C904 C905 1.391 . S
C904 C906 1.394 . S
C904 H920 0.931 . S
C905 C904 1.391 . S
C905 C909 1.376 . S
C906 C904 1.394 . S
C906 C907 1.369 . S
C906 C910 1.531 . S
C907 C906 1.369 . S
C907 C908 1.410 . S
C907 C915 1.503 1_565 S
C908 C907 1.410 . S
C908 C909 1.392 . S
C908 C911 1.511 1_565 S
C909 C905 1.376 . S
C909 C908 1.392 . S
C909 H921 0.929 . S
C910 C906 1.531 . S
C910 H922 0.960 . S
C910 H923 0.962 . S
C910 H924 0.960 . S
C911 C908 1.511 1_545 S
C911 H925 0.961 . S
C911 H926 0.961 . S
C911 H927 0.961 . S
C912 C913 1.370 . S
C912 C914 1.363 . S
C912 H928 0.931 . S
C913 C912 1.370 . S
C913 C917 1.408 . S
C914 C912 1.363 . S
C914 C915 1.370 . S
C914 C918 1.524 . S
C915 C907 1.503 1_545 S
C915 C914 1.370 . S
C915 C916 1.403 1_545 S
C916 C915 1.403 1_565 S
C916 C917 1.404 1_565 S
C916 C919 1.539 . S
C917 C913 1.408 . S
C917 C916 1.404 1_545 S
C917 H929 0.930 . S
C918 C914 1.524 . S
C918 H930 0.956 . S
C918 H931 0.961 . S
C918 H932 0.961 . S
C919 C916 1.539 . S
C919 H933 0.958 . S
C919 H934 0.961 . S
C919 H935 0.960 . S
H920 C904 0.931 . S
H921 C909 0.929 . S
H922 C910 0.960 . S
H923 C910 0.962 . S
H924 C910 0.960 . S
H925 C911 0.961 . S
H926 C911 0.961 . S
H927 C911 0.961 . S
H928 C912 0.931 . S
H929 C917 0.930 . S
H930 C918 0.956 . S
H931 C918 0.961 . S
H932 C918 0.961 . S
H933 C919 0.958 . S
H934 C919 0.961 . S
H935 C919 0.960 . S
C169 C107 1.327 . S
C177 C9 1.332 . S
C201 C23 1.368 . S
C209 C121 1.357 . S
C233 C37 1.356 . S
C241 C135 1.355 . S
C265 C51 1.374 . S
C273 C149 1.355 . S
C297 C163 1.350 . S
C305 C65 1.353 . S
C329 C93 1.312 . S
C337 C79 1.329 . S
C361 C143 1.388 . S
C369 C3 1.392 . S
C393 C17 1.384 . S
C401 C157 1.395 . S
C425 C31 1.395 . S
C433 C87 1.394 . S
C457 C101 1.386 . S
C465 C45 1.393 . S
C489 C115 1.384 . S
C497 C59 1.395 . S
C521 C129 1.387 . S
C529 C73 1.392 . S
C553 C7 1.655 . S
C561 C119 1.625 . S
C585 C21 1.644 . S
C593 C133 1.620 . S
C617 C147 1.650 . S
C625 C35 1.621 . S
C649 C49 1.653 . S
C657 C161 1.622 . S
C681 C91 1.603 . S
C689 C63 1.641 . S
C713 C105 1.609 . S
C721 C77 1.643 . S
C745 C50 1.379 . S
C753 C8 1.399 . S
C777 C64 1.385 . S
C785 C22 1.392 . S
C809 C36 1.383 . S
C817 C78 1.393 . S
C841 C92 1.391 . S
C849 C134 1.390 . S
C873 C106 1.393 . S
C881 C148 1.389 . S
C905 C162 1.373 . S
C913 C120 1.398 . S
