# Generated by pormake.
# Topology wkj, (6)-cn, num edge types: 1
# Building blocks:
#     Node 0, Type 0, BuildingBlock: JUFBIX_clean_sbu_0, # of connection points: 6
#     Node 1, Type 0, BuildingBlock: JUFBIX_clean_sbu_0, # of connection points: 6
#     Node 2, Type 0, BuildingBlock: JUFBIX_clean_sbu_0, # of connection points: 6
#     Node 3, Type 0, BuildingBlock: JUFBIX_clean_sbu_0, # of connection points: 6
#     Node 4, Type 0, BuildingBlock: JUFBIX_clean_sbu_0, # of connection points: 6
#     Node 5, Type 0, BuildingBlock: JUFBIX_clean_sbu_0, # of connection points: 6
#     Node 6, Type 0, BuildingBlock: JUFBIX_clean_sbu_0, # of connection points: 6
#     Node 7, Type 0, BuildingBlock: JUFBIX_clean_sbu_0, # of connection points: 6
#     Node 8, Type 0, BuildingBlock: JUFBIX_clean_sbu_0, # of connection points: 6
#     Node 9, Type 0, BuildingBlock: JUFBIX_clean_sbu_0, # of connection points: 6
#     Node 10, Type 0, BuildingBlock: JUFBIX_clean_sbu_0, # of connection points: 6
#     Node 11, Type 0, BuildingBlock: JUFBIX_clean_sbu_0, # of connection points: 6
#     Edge 12, Type (0, 0), BuildingBlock: XUDNAN_clean_linker_2, # of connection points: 2
#     Edge 13, Type (0, 0), BuildingBlock: XUDNAN_clean_linker_2, # of connection points: 2
#     Edge 14, Type (0, 0), BuildingBlock: XUDNAN_clean_linker_2, # of connection points: 2
#     Edge 15, Type (0, 0), BuildingBlock: XUDNAN_clean_linker_2, # of connection points: 2
#     Edge 16, Type (0, 0), BuildingBlock: XUDNAN_clean_linker_2, # of connection points: 2
#     Edge 17, Type (0, 0), BuildingBlock: XUDNAN_clean_linker_2, # of connection points: 2
#     Edge 18, Type (0, 0), BuildingBlock: XUDNAN_clean_linker_2, # of connection points: 2
#     Edge 19, Type (0, 0), BuildingBlock: XUDNAN_clean_linker_2, # of connection points: 2
#     Edge 20, Type (0, 0), BuildingBlock: XUDNAN_clean_linker_2, # of connection points: 2
#     Edge 21, Type (0, 0), BuildingBlock: XUDNAN_clean_linker_2, # of connection points: 2
#     Edge 22, Type (0, 0), BuildingBlock: XUDNAN_clean_linker_2, # of connection points: 2
#     Edge 23, Type (0, 0), BuildingBlock: XUDNAN_clean_linker_2, # of connection points: 2
#     Edge 24, Type (0, 0), BuildingBlock: XUDNAN_clean_linker_2, # of connection points: 2
#     Edge 25, Type (0, 0), BuildingBlock: XUDNAN_clean_linker_2, # of connection points: 2
#     Edge 26, Type (0, 0), BuildingBlock: XUDNAN_clean_linker_2, # of connection points: 2
#     Edge 27, Type (0, 0), BuildingBlock: XUDNAN_clean_linker_2, # of connection points: 2
#     Edge 28, Type (0, 0), BuildingBlock: XUDNAN_clean_linker_2, # of connection points: 2
#     Edge 29, Type (0, 0), BuildingBlock: XUDNAN_clean_linker_2, # of connection points: 2
#     Edge 30, Type (0, 0), BuildingBlock: XUDNAN_clean_linker_2, # of connection points: 2
#     Edge 31, Type (0, 0), BuildingBlock: XUDNAN_clean_linker_2, # of connection points: 2
#     Edge 32, Type (0, 0), BuildingBlock: XUDNAN_clean_linker_2, # of connection points: 2
#     Edge 33, Type (0, 0), BuildingBlock: XUDNAN_clean_linker_2, # of connection points: 2
#     Edge 34, Type (0, 0), BuildingBlock: XUDNAN_clean_linker_2, # of connection points: 2
#     Edge 35, Type (0, 0), BuildingBlock: XUDNAN_clean_linker_2, # of connection points: 2
#     Edge 36, Type (0, 0), BuildingBlock: XUDNAN_clean_linker_2, # of connection points: 2
#     Edge 37, Type (0, 0), BuildingBlock: XUDNAN_clean_linker_2, # of connection points: 2
#     Edge 38, Type (0, 0), BuildingBlock: XUDNAN_clean_linker_2, # of connection points: 2
#     Edge 39, Type (0, 0), BuildingBlock: XUDNAN_clean_linker_2, # of connection points: 2
#     Edge 40, Type (0, 0), BuildingBlock: XUDNAN_clean_linker_2, # of connection points: 2
#     Edge 41, Type (0, 0), BuildingBlock: XUDNAN_clean_linker_2, # of connection points: 2
#     Edge 42, Type (0, 0), BuildingBlock: XUDNAN_clean_linker_2, # of connection points: 2
#     Edge 43, Type (0, 0), BuildingBlock: XUDNAN_clean_linker_2, # of connection points: 2
#     Edge 44, Type (0, 0), BuildingBlock: XUDNAN_clean_linker_2, # of connection points: 2
#     Edge 45, Type (0, 0), BuildingBlock: XUDNAN_clean_linker_2, # of connection points: 2
#     Edge 46, Type (0, 0), BuildingBlock: XUDNAN_clean_linker_2, # of connection points: 2
#     Edge 47, Type (0, 0), BuildingBlock: XUDNAN_clean_linker_2, # of connection points: 2
# Relax obj value: 0.815
# Max RMSD: 0.260
# Mean RMSD: 0.258
data_MOF--net-wkj--node1-JUFBIX_clean_sbu_0--edge1-XUDNAN_clean_linker_2
_symmetry_space_group_name_H-M    P1
_symmetry_Int_Tables_number       1
_symmetry_cell_setting            triclinic
loop_
_symmetry_equiv_pos_as_xyz
'x, y, z'
_cell_length_a     50.226352
_cell_length_b     50.157205
_cell_length_c     26.801801
_cell_angle_alpha  89.99891
_cell_angle_beta   89.920911
_cell_angle_gamma 120.02155
loop_
_atom_site_label
_atom_site_type_symbol
_atom_site_fract_x
_atom_site_fract_y
_atom_site_fract_z
_atom_type_partial_charge
Co0 Co 0.43796 0.07188 0.19029 0.0
C1 C 0.47143 0.05097 0.23945 0.0
Co2 Co 0.47838 0.10712 0.2288 0.0
C3 C 0.39472 0.0436 0.11188 0.0
C4 C 0.38053 0.01571 0.17773 0.0
N5 N 0.4035 0.04213 0.1587 0.0
N6 N 0.36712 0.01915 0.10059 0.0
C7 C 0.35811 0.00151 0.14207 0.0
H8 H 0.40877 0.06207 0.08632 0.0
H9 H 0.38003 0.00741 0.21518 0.0
C10 C 0.44305 0.1292 0.18625 0.0
N11 N 0.51234 0.13737 0.26076 0.0
C12 C 0.52182 0.13575 0.3069 0.0
C13 C 0.53354 0.16525 0.24326 0.0
N14 N 0.54837 0.16129 0.31899 0.0
C15 C 0.55581 0.18005 0.27906 0.0
C16 C 0.49044 0.09981 0.12803 0.0
O17 O 0.42756 0.10186 0.16997 0.0
O18 O 0.46602 0.1363 0.21411 0.0
O19 O 0.50201 0.11689 0.16631 0.0
O20 O 0.4623 0.07876 0.12989 0.0
O21 O 0.49067 0.07935 0.24338 0.0
H22 H 0.53302 0.17406 0.20665 0.0
H23 H 0.50926 0.1161 0.33114 0.0
O24 O 0.44774 0.04229 0.21242 0.0
O25 O 0.41405 0.06386 0.25006 0.0
O26 O 0.45441 0.09476 0.29351 0.0
C27 C 0.4261 0.0736 0.29267 0.0
H28 H 0.337 0.97976 0.1464 0.0
H29 H 0.57616 0.20251 0.2754 0.0
Co30 Co 0.35227 0.42025 0.63488 0.0
C31 C 0.40903 0.45246 0.6783 0.0
Co32 Co 0.36174 0.46444 0.66728 0.0
C33 C 0.32954 0.36833 0.56772 0.0
C34 C 0.34916 0.36211 0.63436 0.0
N35 N 0.344 0.38264 0.61003 0.0
N36 N 0.32523 0.33949 0.56481 0.0
C37 C 0.33765 0.33562 0.60677 0.0
H38 H 0.32262 0.3791 0.53958 0.0
H39 H 0.36013 0.36596 0.67044 0.0
C40 C 0.30426 0.43228 0.62392 0.0
N41 N 0.37033 0.50134 0.69686 0.0
C42 C 0.38303 0.51037 0.74247 0.0
C43 C 0.36541 0.52404 0.68113 0.0
N44 N 0.38636 0.53773 0.75626 0.0
C45 C 0.37521 0.54646 0.71766 0.0
C46 C 0.38012 0.4696 0.56514 0.0
O47 O 0.31276 0.41275 0.61479 0.0
O48 O 0.32209 0.45654 0.64826 0.0
O49 O 0.37865 0.48504 0.60215 0.0
O50 O 0.36945 0.4407 0.57142 0.0
O51 O 0.4005 0.47195 0.68592 0.0
H52 H 0.35526 0.52419 0.64563 0.0
H53 H 0.38921 0.49662 0.76559 0.0
O54 O 0.39144 0.42796 0.65471 0.0
O55 O 0.33634 0.4004 0.69723 0.0
O56 O 0.34639 0.4439 0.73123 0.0
C57 C 0.33748 0.41542 0.73582 0.0
H58 H 0.33825 0.31509 0.61716 0.0
H59 H 0.37443 0.56761 0.71562 0.0
Co60 Co 0.94573 0.35075 0.84856 0.0
C61 C 0.97086 0.41023 0.87862 0.0
Co62 Co 0.91297 0.36097 0.88544 0.0
C63 C 0.97261 0.3341 0.7694 0.0
C64 C -0.0001 0.34544 0.83547 0.0
N65 N 0.973 0.34137 0.81785 0.0
N66 N -0.00119 0.33514 0.75511 0.0
C67 C 0.01588 0.34179 0.7969 0.0
H68 H 0.95521 0.33195 0.74335 0.0
H69 H 0.00872 0.3535 0.87252 0.0
C70 C 0.88747 0.29994 0.85922 0.0
N71 N 0.88495 0.36939 0.91458 0.0
C72 C 0.88706 0.38353 0.9582 0.0
C73 C 0.85711 0.36199 0.89618 0.0
N74 N 0.86159 0.38527 0.96794 0.0
C75 C 0.84276 0.37183 0.92873 0.0
C76 C 0.91484 0.36947 0.78203 0.0
O77 O 0.91402 0.30878 0.84128 0.0
O78 O 0.88237 0.31921 0.88156 0.0
O79 O 0.90082 0.36876 0.82173 0.0
O80 O 0.93535 0.36172 0.78425 0.0
O81 O 0.94318 0.40199 0.8894 0.0
H82 H 0.84765 0.34986 0.86154 0.0
H83 H 0.90663 0.39153 0.98281 0.0
O84 O 0.97698 0.39158 0.85658 0.0
O85 O 0.95741 0.34262 0.91306 0.0
O86 O 0.92683 0.35527 0.95101 0.0
C87 C 0.94893 0.34968 0.95346 0.0
H88 H 0.03971 0.34747 0.7981 0.0
H89 H 0.82012 0.36901 0.92382 0.0
Co90 Co 0.53698 0.91883 0.29952 0.0
C91 C 0.49581 0.92194 0.3636 0.0
Co92 Co 0.50479 0.8759 0.33541 0.0
C93 C 0.59257 0.96284 0.25433 0.0
C94 C 0.55881 0.97683 0.24926 0.0
N95 N 0.56406 0.9553 0.26927 0.0
N96 N 0.60494 0.98721 0.22322 0.0
C97 C 0.58387 0.99645 0.22077 0.0
H98 H 0.60294 0.94899 0.26295 0.0
H99 H 0.53718 0.97659 0.25151 0.0
C100 C 0.54567 0.87029 0.27378 0.0
N101 N 0.47749 0.83942 0.36755 0.0
C102 C 0.46554 0.83727 0.41355 0.0
C103 C 0.46099 0.81093 0.34807 0.0
N104 N 0.44166 0.80891 0.42318 0.0
C105 C 0.4388 0.79216 0.38209 0.0
C106 C 0.48393 0.88483 0.24065 0.0
O107 O 0.55353 0.89779 0.26191 0.0
O108 O 0.52611 0.85726 0.30845 0.0
O109 O 0.4776 0.8638 0.2736 0.0
O110 O 0.50804 0.91071 0.24731 0.0
O111 O 0.48334 0.89315 0.36209 0.0
H112 H 0.46354 0.80477 0.31041 0.0
H113 H 0.47244 0.85692 0.43778 0.0
O114 O 0.51993 0.93863 0.33806 0.0
O115 O 0.56609 0.92844 0.35019 0.0
O116 O 0.5326 0.89087 0.39649 0.0
C117 C 0.55883 0.91569 0.39259 0.0
H118 H 0.58483 0.01389 0.19587 0.0
H119 H 0.42096 0.76854 0.37598 0.0
Co120 Co 0.64212 0.57225 0.51601 0.0
C121 C 0.58879 0.56539 0.54339 0.0
Co122 Co 0.61807 0.53151 0.56338 0.0
C123 C 0.67985 0.60988 0.43571 0.0
C124 C 0.67617 0.63663 0.49454 0.0
N125 N 0.66728 0.60751 0.48097 0.0
N126 N 0.69552 0.63934 0.41936 0.0
C127 C 0.69344 0.65619 0.45685 0.0
H128 H 0.67618 0.59006 0.4143 0.0
H129 H 0.66916 0.64312 0.52845 0.0
C130 C 0.67323 0.53934 0.53652 0.0
N131 N 0.59328 0.49611 0.59806 0.0
C132 C 0.57636 0.49268 0.63905 0.0
C133 C 0.58719 0.46746 0.58622 0.0
N134 N 0.55987 0.46298 0.65318 0.0
C135 C 0.56657 0.447 0.62005 0.0
C136 C 0.6034 0.51908 0.46035 0.0
O137 O 0.67407 0.56198 0.51382 0.0
O138 O 0.64973 0.52172 0.56237 0.0
O139 O 0.60144 0.50906 0.5043 0.0
O140 O 0.62243 0.54779 0.45297 0.0
O141 O 0.5872 0.54179 0.56402 0.0
H142 H 0.59725 0.46186 0.55512 0.0
H143 H 0.57606 0.51159 0.65802 0.0
O144 O 0.6119 0.5834 0.51775 0.0
O145 O 0.65816 0.59511 0.57945 0.0
O146 O 0.63279 0.55342 0.62421 0.0
C147 C 0.64885 0.58251 0.62231 0.0
H148 H 0.70129 0.68058 0.45551 0.0
H149 H 0.55811 0.42248 0.62133 0.0
Co150 Co 0.078 0.63014 0.9815 0.0
C151 C 0.08596 0.58627 0.03154 0.0
Co152 Co 0.1228 0.64735 0.01817 0.0
C153 C 0.03251 0.62751 0.91544 0.0
C154 C 0.01224 0.59192 0.97042 0.0
N155 N 0.03953 0.61509 0.95408 0.0
N156 N 0.00205 0.61349 0.90739 0.0
C157 C 0.98905 0.59067 0.94125 0.0
H158 H 0.04944 0.64644 0.89317 0.0
H159 H 0.00931 0.57734 1.00213 0.0
C160 C 0.11711 0.69257 0.96744 0.0
N161 N 0.16122 0.66233 0.04685 0.0
C162 C 0.16703 0.65433 0.09183 0.0
C163 C 0.18892 0.67792 0.0243 0.0
N164 N 0.19704 0.66355 0.09783 0.0
C165 C 0.21098 0.67832 0.05539 0.0
C166 C 0.12011 0.62729 0.91666 0.0
O167 O 0.09019 0.67073 0.95783 0.0
O168 O 0.13434 0.68728 0.99537 0.0
O169 O 0.1378 0.63872 0.95463 0.0
O170 O 0.0927 0.62216 0.92024 0.0
O171 O 0.11243 0.60844 0.04047 0.0
H172 H 0.19249 0.68637 0.98634 0.0
H173 H 0.14918 0.63937 0.11773 0.0
O174 O 0.06727 0.59047 1.00533 0.0
O175 O 0.06218 0.63673 0.04144 0.0
O176 O 0.10572 0.65373 0.0811 0.0
C177 C 0.07704 0.64532 0.08197 0.0
H178 H 0.96465 0.57468 0.94501 0.0
H179 H 0.23495 0.68701 0.04636 0.0
Co180 Co 0.92315 0.55296 0.46166 0.0
C181 C 0.95848 0.53524 0.40939 0.0
Co182 Co 0.89769 0.51424 0.41116 0.0
C183 C 0.93594 0.58837 0.5493 0.0
C184 C 0.97244 0.61153 0.49651 0.0
N185 N 0.94497 0.58582 0.50322 0.0
N186 N 0.95669 0.61444 0.57218 0.0
C187 C 0.97975 0.62924 0.53905 0.0
H188 H 0.91469 0.57096 0.56613 0.0
H189 H 0.98662 0.61658 0.46356 0.0
C190 C 0.86123 0.53383 0.45825 0.0
N191 N 0.87452 0.48116 0.37079 0.0
C192 C 0.87822 0.47776 0.32196 0.0
C193 C 0.84765 0.45603 0.38352 0.0
N194 N 0.85447 0.45171 0.30361 0.0
C195 C 0.83522 0.43788 0.34217 0.0
C196 C 0.9012 0.4958 0.50906 0.0
O197 O 0.88617 0.55323 0.47897 0.0
O198 O 0.86161 0.51541 0.42642 0.0
O199 O 0.88962 0.48637 0.46609 0.0
O200 O 0.91682 0.52472 0.5164 0.0
O201 O 0.93292 0.51308 0.39499 0.0
H202 H 0.8372 0.45176 0.42013 0.0
H203 H 0.8972 0.49472 0.2998 0.0
O204 O 0.95914 0.55318 0.44338 0.0
O205 O 0.93145 0.58088 0.40715 0.0
O206 O 0.90799 0.54261 0.35507 0.0
C207 C 0.92652 0.57124 0.36227 0.0
H208 H 0.00105 0.65043 0.546 0.0
H209 H 0.81353 0.41647 0.34038 0.0
Co210 Co 0.32617 0.88751 0.71074 0.0
C211 C 0.27892 0.84744 0.77216 0.0
Co212 Co 0.34275 0.87114 0.77751 0.0
C213 C 0.33507 0.9295 0.62371 0.0
C214 C 0.2926 0.88672 0.62147 0.0
N215 N 0.31723 0.90305 0.65071 0.0
N216 N 0.32239 0.93017 0.57893 0.0
C217 C 0.29563 0.90292 0.57825 0.0
H218 H 0.35729 0.94763 0.63621 0.0
H219 H 0.27413 0.86375 0.62998 0.0
C220 C 0.38809 0.90833 0.71544 0.0
N221 N 0.35544 0.85835 0.83772 0.0
C222 C 0.37233 0.87466 0.87837 0.0
C223 C 0.34783 0.82915 0.84883 0.0
N224 N 0.3756 0.85681 0.91392 0.0
C225 C 0.36 0.82814 0.89463 0.0
C226 C 0.33222 0.83551 0.69333 0.0
O227 O 0.36673 0.90955 0.69268 0.0
O228 O 0.38321 0.89465 0.75724 0.0
O229 O 0.34072 0.83834 0.73886 0.0
O230 O 0.32347 0.85336 0.67499 0.0
O231 O 0.30117 0.84749 0.79528 0.0
H232 H 0.33382 0.80949 0.82538 0.0
H233 H 0.38205 0.8993 0.88174 0.0
O234 O 0.28391 0.86311 0.73188 0.0
O235 O 0.32944 0.92114 0.74826 0.0
O236 O 0.34444 0.90407 0.81229 0.0
C237 C 0.33707 0.92288 0.79395 0.0
H238 H 0.27944 0.89425 0.5477 0.0
H239 H 0.35681 0.80747 0.91273 0.0
Co240 Co 0.39579 0.35032 0.14188 0.0
C241 C 0.41146 0.40402 0.09998 0.0
Co242 Co 0.43866 0.3676 0.09987 0.0
C243 C 0.35227 0.31669 0.21932 0.0
C244 C 0.33334 0.33264 0.16312 0.0
N245 N 0.35938 0.33297 0.17667 0.0
N246 N 0.32284 0.30627 0.23306 0.0
C247 C 0.31087 0.31643 0.198 0.0
H248 H 0.36869 0.31343 0.24073 0.0
H249 H 0.33093 0.34368 0.13014 0.0
C250 C 0.41971 0.31029 0.13624 0.0
N251 N 0.47398 0.38447 0.06261 0.0
C252 C 0.47686 0.39775 1.01791 0.0
C253 C 0.49968 0.38256 0.06802 0.0
N254 N 0.5028 0.4036 0.99451 0.0
C255 C 0.51736 0.394 0.02547 0.0
C256 C 0.44989 0.38591 0.20008 0.0
O257 O 0.39755 0.31369 0.1509 0.0
O258 O 0.44222 0.3323 0.11367 0.0
O259 O 0.46257 0.38824 0.158 0.0
O260 O 0.42053 0.36869 0.20307 0.0
O261 O 0.43404 0.40133 0.08546 0.0
H262 H 0.50407 0.37145 0.09894 0.0
H263 H 0.45897 0.40063 1.00072 0.0
O264 O 0.39291 0.38563 0.13194 0.0
O265 O 0.37268 0.33437 0.08107 0.0
O266 O 0.41538 0.34885 0.04048 0.0
C267 C 0.38656 0.33844 0.03965 0.0
H268 H 0.28778 0.31292 0.1982 0.0
H269 H 0.53778 0.3929 1.01622 0.0
Co270 Co 0.12121 0.48162 0.38342 0.0
C271 C 0.15628 0.4729 0.45481 0.0
Co272 Co 0.13769 0.51656 0.44659 0.0
C273 C 0.09617 0.45538 0.28262 0.0
C274 C 0.08984 0.42132 0.33653 0.0
N275 N 0.10446 0.45214 0.32984 0.0
N276 N 0.07648 0.42795 0.26067 0.0
C277 C 0.0727 0.40658 0.29468 0.0
H278 H 0.10272 0.47747 0.2659 0.0
H279 H 0.08984 0.41019 0.37111 0.0
C280 C 0.10632 0.52702 0.37276 0.0
N281 N 0.14966 0.54536 0.50137 0.0
C282 C 0.14565 0.54064 0.5518 0.0
C283 C 0.15833 0.5754 0.49601 0.0
N284 N 0.15084 0.56634 0.57736 0.0
C285 C 0.15886 0.58811 0.54199 0.0
C286 C 0.17671 0.53486 0.36467 0.0
O287 O 0.10277 0.50209 0.35485 0.0
O288 O 0.11836 0.53599 0.41557 0.0
O289 O 0.17324 0.54255 0.40869 0.0
O290 O 0.15743 0.50836 0.34716 0.0
O291 O 0.15747 0.49657 0.47498 0.0
H292 H 0.1625 0.58707 0.46047 0.0
H293 H 0.1374 0.51839 0.56918 0.0
O294 O 0.14151 0.46216 0.41397 0.0
O295 O 0.08548 0.45591 0.42162 0.0
O296 O 0.10207 0.4901 0.48183 0.0
C297 C 0.08244 0.46376 0.46536 0.0
H298 H 0.05799 0.38198 0.29003 0.0
H299 H 0.16429 0.61158 0.54882 0.0
Co300 Co 0.63616 0.05962 0.78743 0.0
C301 C 0.58214 0.04134 0.74062 0.0
Co302 Co 0.63555 0.09541 0.74183 0.0
C303 C 0.6527 0.03628 0.86918 0.0
C304 C 0.62488 -0.00063 0.81953 0.0
N305 N 0.63771 0.03004 0.8255 0.0
N306 N 0.64949 0.01086 0.89173 0.0
C307 C 0.63203 0.98744 0.86048 0.0
H308 H 0.66518 0.05923 0.88466 0.0
H309 H 0.61054 0.98648 0.78835 0.0
C310 C 0.69192 0.11448 0.78514 0.0
N311 N 0.63533 0.12629 0.70534 0.0
C312 C 0.62662 0.12565 0.65772 0.0
C313 C 0.64466 0.15513 0.72131 0.0
N314 N 0.63011 0.15301 0.64321 0.0
C315 C 0.64144 0.1716 0.68325 0.0
C316 C 0.61668 0.09507 0.84211 0.0
O317 O 0.67908 0.0869 0.80052 0.0
O318 O 0.67658 0.123 0.75901 0.0
O319 O 0.62102 0.10792 0.79953 0.0
O320 O 0.62415 0.07437 0.8471 0.0
O321 O 0.59554 0.06863 0.72414 0.0
H322 H 0.65333 0.16366 0.75831 0.0
H323 H 0.61829 0.10555 0.6341 0.0
O324 O 0.59499 0.03329 0.77332 0.0
O325 O 0.64516 0.04321 0.72817 0.0
O326 O 0.64785 0.0808 0.68288 0.0
C327 C 0.64722 0.05502 0.68524 0.0
H328 H 0.62361 0.9633 0.86783 0.0
H329 H 0.64664 0.19528 0.68528 0.0
Co330 Co 0.57146 0.65949 0.06654 0.0
C331 C 0.56248 0.70327 0.11648 0.0
Co332 Co 0.5431 0.64205 0.13811 0.0
C333 C 0.59401 0.65623 0.96444 0.0
C334 C 0.61973 0.70038 0.99911 0.0
N335 N 0.59507 0.67232 1.00635 0.0
N336 N 0.61709 0.67328 0.93144 0.0
C337 C 0.63312 0.70105 0.95394 0.0
H338 H 0.57687 0.63231 0.9587 0.0
H339 H 0.62815 0.71899 0.02584 0.0
C340 C 0.55216 0.59922 0.09059 0.0
N341 N 0.51851 0.62681 0.19935 0.0
C342 C 0.51225 0.60313 0.23173 0.0
C343 C 0.50202 0.63896 0.21849 0.0
N344 N 0.49287 0.60048 0.26997 0.0
C345 C 0.48674 0.6233 0.26109 0.0
C346 C 0.50888 0.63303 0.05123 0.0
O347 O 0.56682 0.61993 0.0581 0.0
O348 O 0.54044 0.605 0.12819 0.0
O349 O 0.5065 0.62879 0.09845 0.0
O350 O 0.5352 0.64659 0.03048 0.0
O351 O 0.54731 0.68077 0.14602 0.0
H352 H 0.50049 0.65781 0.20198 0.0
H353 H 0.52168 0.58803 0.22727 0.0
O354 O 0.57524 0.69957 0.07769 0.0
O355 O 0.60725 0.67162 0.10413 0.0
O356 O 0.57996 0.65505 0.1738 0.0
C357 C 0.60576 0.66742 0.15103 0.0
H358 H 0.65394 0.72059 0.93993 0.0
H359 H 0.47128 0.62783 0.28291 0.0
H360 H 0.48007 0.19183 0.18141 0.0
H361 H 0.38548 0.11842 0.16473 0.0
H362 H 0.36945 0.15704 0.15014 0.0
H363 H 0.46543 0.24578 0.24384 0.0
H364 H 0.49489 0.27901 0.21146 0.0
H365 H 0.49907 0.24571 0.22045 0.0
H366 H 0.50566 0.24244 0.12515 0.0
H367 H 0.50167 0.27585 0.11587 0.0
H368 H 0.47668 0.24055 0.08334 0.0
H369 H 0.36324 0.20335 0.1442 0.0
H370 H 0.36774 0.25447 0.13664 0.0
H371 H 0.46695 0.29809 0.14945 0.0
C372 C 0.45601 0.18395 0.17449 0.0
C373 C 0.43391 0.15222 0.17451 0.0
C374 C 0.40272 0.14265 0.16476 0.0
C375 C 0.39341 0.16439 0.15665 0.0
C376 C 0.4157 0.19552 0.15741 0.0
C377 C 0.44643 0.20532 0.16514 0.0
C378 C 0.4658 0.24014 0.16272 0.0
C379 C 0.48226 0.25343 0.21259 0.0
C380 C 0.48881 0.25034 0.11917 0.0
C381 C 0.44107 0.24841 0.15327 0.0
C382 C 0.41231 0.22229 0.15096 0.0
C383 C 0.38565 0.22395 0.14523 0.0
C384 C 0.38843 0.25307 0.14124 0.0
C385 C 0.41769 0.28011 0.14213 0.0
C386 C 0.44435 0.27772 0.14804 0.0
H387 H 0.27981 0.46997 0.63578 0.0
H388 H 0.26492 0.38728 0.55947 0.0
H389 H 0.22211 0.38601 0.51228 0.0
H390 H 0.19752 0.44928 0.64149 0.0
H391 H 0.20712 0.4886 0.63102 0.0
H392 H 0.23371 0.48046 0.66335 0.0
H393 H 0.2762 0.51401 0.59937 0.0
H394 H 0.24972 0.52197 0.56662 0.0
H395 H 0.26924 0.50533 0.53378 0.0
H396 H 0.18512 0.39756 0.46601 0.0
H397 H 0.15555 0.4196 0.4278 0.0
H398 H 0.19457 0.49419 0.53551 0.0
C399 C 0.26706 0.45111 0.61012 0.0
C400 C 0.27568 0.42865 0.60153 0.0
C401 C 0.25863 0.40462 0.56703 0.0
C402 C 0.23427 0.40372 0.53996 0.0
C403 C 0.22702 0.4268 0.54821 0.0
C404 C 0.24267 0.44981 0.58299 0.0
C405 C 0.2318 0.47303 0.5826 0.0
C406 C 0.21663 0.47281 0.63259 0.0
C407 C 0.25832 0.50549 0.56982 0.0
C408 C 0.20834 0.4601 0.54104 0.0
C409 C 0.20567 0.4333 0.52188 0.0
C410 C 0.18668 0.41827 0.48125 0.0
C411 C 0.17008 0.43103 0.45965 0.0
C412 C 0.17265 0.45858 0.47868 0.0
C413 C 0.19183 0.47297 0.52026 0.0
H414 H 0.82735 0.28233 0.84849 0.0
H415 H 0.8902 0.24674 0.84985 0.0
H416 H 0.84641 0.19403 0.83483 0.0
H417 H 0.76221 0.21786 0.90656 0.0
H418 H 0.73477 0.22059 0.86676 0.0
H419 H 0.77074 0.25461 0.88127 0.0
H420 H 0.78257 0.26538 0.78684 0.0
H421 H 0.74667 0.23141 0.77204 0.0
H422 H 0.78218 0.23599 0.74762 0.0
H423 H 0.79439 0.14472 0.82133 0.0
H424 H 0.7406 0.10493 0.80123 0.0
H425 H 0.71441 0.17519 0.80156 0.0
C426 C 0.83186 0.26338 0.8463 0.0
C427 C 0.86195 0.26834 0.8511 0.0
C428 C 0.86716 0.24321 0.84658 0.0
C429 C 0.84246 0.21328 0.83824 0.0
C430 C 0.81295 0.20917 0.83362 0.0
C431 C 0.80775 0.23371 0.83682 0.0
C432 C 0.77449 0.22392 0.82711 0.0
C433 C 0.75969 0.22958 0.87318 0.0
C434 C 0.77131 0.24013 0.78064 0.0
C435 C 0.76162 0.18995 0.818 0.0
C436 C 0.7839 0.18162 0.82271 0.0
C437 C 0.77686 0.15109 0.81716 0.0
C438 C 0.74635 0.12867 0.80591 0.0
C439 C 0.72365 0.1372 0.7993 0.0
C440 C 0.73148 0.16816 0.80569 0.0
H441 H 0.53953 0.71551 0.19917 0.0
H442 H 0.59251 0.75923 0.06559 0.0
H443 H 0.59707 0.80883 0.09284 0.0
H444 H 0.49686 0.75392 0.20227 0.0
H445 H 0.49708 0.75579 0.26943 0.0
H446 H 0.49911 0.72494 0.23883 0.0
H447 H 0.54933 0.73933 0.28689 0.0
H448 H 0.54764 0.77045 0.31735 0.0
H449 H 0.5815 0.77802 0.2827 0.0
H450 H 0.59384 0.85373 0.13653 0.0
H451 H 0.58207 0.88737 0.18897 0.0
H452 H 0.53234 0.81171 0.29242 0.0
C453 C 0.55215 0.73534 0.1752 0.0
C454 C 0.56558 0.73338 0.13003 0.0
C455 C 0.58194 0.76016 0.1003 0.0
C456 C 0.5847 0.78839 0.11561 0.0
C457 C 0.57112 0.78932 0.16073 0.0
C458 C 0.55517 0.76329 0.18984 0.0
C459 C 0.54204 0.7694 0.2362 0.0
C460 C 0.50669 0.74986 0.23667 0.0
C461 C 0.55598 0.76399 0.28357 0.0
C462 C 0.5528 0.80306 0.22892 0.0
C463 C 0.56962 0.81444 0.18542 0.0
C464 C 0.58086 0.84497 0.17075 0.0
C465 C 0.57416 0.86394 0.20085 0.0
C466 C 0.55637 0.85222 0.24494 0.0
C467 C 0.54616 0.82154 0.25921 0.0
H468 H 0.73337 0.58049 0.51353 0.0
H469 H 0.67089 0.48414 0.54728 0.0
H470 H 0.71291 0.47287 0.53323 0.0
H471 H 0.77548 0.56983 0.41731 0.0
H472 H 0.81228 0.6017 0.43525 0.0
H473 H 0.7776 0.60248 0.4492 0.0
H474 H 0.7923 0.61096 0.5428 0.0
H475 H 0.82712 0.61032 0.52913 0.0
H476 H 0.80045 0.58425 0.57486 0.0
H477 H 0.75983 0.47121 0.50775 0.0
H478 H 0.81071 0.47999 0.4812 0.0
H479 H 0.84464 0.57811 0.47134 0.0
C480 C 0.72864 0.55706 0.51828 0.0
C481 C 0.69888 0.5331 0.53126 0.0
C482 C 0.69355 0.5028 0.53751 0.0
C483 C 0.71724 0.49619 0.52949 0.0
C484 C 0.74622 0.52025 0.51622 0.0
C485 C 0.7522 0.55018 0.5115 0.0
C486 C 0.78552 0.57178 0.49729 0.0
C487 C 0.78784 0.58736 0.44676 0.0
C488 C 0.80234 0.59574 0.53849 0.0
C489 C 0.79717 0.54919 0.49369 0.0
C490 C 0.77396 0.51955 0.50434 0.0
C491 C 0.77833 0.49435 0.5002 0.0
C492 C 0.80719 0.49953 0.4849 0.0
C493 C 0.83146 0.5297 0.47483 0.0
C494 C 0.82651 0.5549 0.47973 0.0
H495 H 0.26649 0.83397 0.86977 0.0
H496 H 0.22184 0.82111 0.72641 0.0
H497 H 0.17136 0.78634 0.7664 0.0
H498 H 0.22717 0.75968 0.90701 0.0
H499 H 0.22547 0.76762 0.97216 0.0
H500 H 0.25606 0.79555 0.93389 0.0
H501 H 0.24147 0.83656 0.95879 0.0
H502 H 0.21051 0.80857 0.99705 0.0
H503 H 0.20277 0.82888 0.94893 0.0
H504 H 0.12753 0.74629 0.82046 0.0
H505 H 0.0963 0.7045 0.8801 0.0
H506 H 0.17071 0.74514 0.98732 0.0
C507 C 0.24603 0.82437 0.8468 0.0
C508 C 0.248 0.83003 0.79495 0.0
C509 C 0.22074 0.81715 0.76627 0.0
C510 C 0.19203 0.79747 0.78876 0.0
C511 C 0.19109 0.79157 0.83998 0.0
C512 C 0.21751 0.80502 0.86856 0.0
C513 C 0.21148 0.79275 0.92133 0.0
C514 C 0.23119 0.77802 0.9343 0.0
C515 C 0.21687 0.81821 0.95873 0.0
C516 C 0.17777 0.76892 0.91765 0.0
C517 C 0.16609 0.76894 0.87089 0.0
C518 C 0.13628 0.74659 0.85746 0.0
C519 C 0.1186 0.72298 0.89175 0.0
C520 C 0.13101 0.72166 0.93855 0.0
C521 C 0.1604 0.74577 0.95219 0.0
H522 H 0.60793 0.07882 0.94449 0.0
H523 H 0.58458 0.12534 0.83084 0.0
H524 H 0.55132 0.13211 0.89076 0.0
H525 H 0.53498 0.03881 1.00518 0.0
H526 H 0.55 0.04485 0.06778 0.0
H527 H 0.57274 0.04417 1.01629 0.0
H528 H 0.61748 0.09921 0.04074 0.0
H529 H 0.59437 0.09804 0.09314 0.0
H530 H 0.60878 0.12957 0.04942 0.0
H531 H 0.51676 0.13061 0.9613 0.0
H532 H 0.48772 0.12496 0.03925 0.0
H533 H 0.53489 0.08307 0.11137 0.0
C534 C 0.59612 0.09077 0.93237 0.0
C535 C 0.59923 0.1015 0.88219 0.0
C536 C 0.5831 0.11696 0.86857 0.0
C537 C 0.56387 0.12086 0.90252 0.0
C538 C 0.56099 0.10975 0.95111 0.0
C539 C 0.57713 0.09555 0.96649 0.0
C540 C 0.57021 0.08644 0.0215 0.0
C541 C 0.55615 0.05149 0.02807 0.0
C542 C 0.59943 0.10434 0.0531 0.0
C543 C 0.54687 0.09663 0.03388 0.0
C544 C 0.54198 0.11009 0.99256 0.0
C545 C 0.52081 0.1205 0.99401 0.0
C546 C 0.50436 0.11723 0.03853 0.0
C547 C 0.50925 0.10408 0.0818 0.0
C548 C 0.53095 0.09371 0.07922 0.0
H549 H 0.47338 0.6074 0.36305 0.0
H550 H 0.48073 0.54063 0.27014 0.0
H551 H 0.45155 0.5003 0.33317 0.0
H552 H 0.48363 0.57597 0.48179 0.0
H553 H 0.45805 0.58487 0.51572 0.0
H554 H 0.47945 0.60823 0.46316 0.0
H555 H 0.42855 0.59824 0.42234 0.0
H556 H 0.40704 0.57451 0.47449 0.0
H557 H 0.39823 0.55917 0.41206 0.0
H558 H 0.4169 0.46563 0.40498 0.0
H559 H 0.38842 0.44205 0.48264 0.0
H560 H 0.40707 0.53172 0.53442 0.0
C561 C 0.46893 0.58431 0.35574 0.0
C562 C 0.47899 0.57741 0.31006 0.0
C563 C 0.47312 0.54684 0.3036 0.0
C564 C 0.4564 0.52362 0.33956 0.0
C565 C 0.4461 0.53108 0.38318 0.0
C566 C 0.45292 0.56096 0.392 0.0
C567 C 0.44046 0.56323 0.44305 0.0
C568 C 0.46698 0.58434 0.47799 0.0
C569 C 0.41719 0.57446 0.43764 0.0
C570 C 0.42472 0.52986 0.46111 0.0
C571 C 0.42808 0.51166 0.42571 0.0
C572 C 0.41465 0.47992 0.43298 0.0
C573 C 0.39821 0.46662 0.47754 0.0
C574 C 0.39537 0.48471 0.51582 0.0
C575 C 0.40871 0.51694 0.50665 0.0
H576 H 0.95082 0.42679 0.74082 0.0
H577 H 0.86464 0.34172 0.72131 0.0
H578 H 0.85189 0.36473 0.6498 0.0
H579 H 0.92086 0.47716 0.71569 0.0
H580 H 0.95485 0.50573 0.68372 0.0
H581 H 0.95793 0.48183 0.73085 0.0
H582 H 0.98515 0.46452 0.66708 0.0
H583 H 0.98193 0.48842 0.62003 0.0
H584 H 0.96661 0.44793 0.60855 0.0
H585 H 0.84857 0.39726 0.58008 0.0
H586 H 0.85396 0.43674 0.51935 0.0
H587 H 0.94063 0.5027 0.58715 0.0
C588 C 0.9296 0.41287 0.72065 0.0
C589 C 0.90903 0.3821 0.73562 0.0
C590 C 0.88097 0.36499 0.70968 0.0
C591 C 0.87352 0.37799 0.66919 0.0
C592 C 0.89411 0.40845 0.65553 0.0
C593 C 0.92156 0.42576 0.68061 0.0
C594 C 0.93897 0.45841 0.65974 0.0
C595 C 0.94339 0.48217 0.69991 0.0
C596 C 0.97 0.46522 0.63753 0.0
C597 C 0.91702 0.45684 0.61912 0.0
C598 C 0.89144 0.42767 0.61708 0.0
C599 C 0.86842 0.42019 0.58167 0.0
C600 C 0.87166 0.44284 0.54727 0.0
C601 C 0.89749 0.47302 0.5486 0.0
C602 C 0.92032 0.48006 0.58555 0.0
H603 H 0.3937 0.82362 0.97473 0.0
H604 H 0.39311 0.9098 0.967 0.0
H605 H 0.4179 0.92409 0.04972 0.0
H606 H 0.37738 0.81014 0.10785 0.0
H607 H 0.4024 0.7945 0.11755 0.0
H608 H 0.38457 0.79065 0.05762 0.0
H609 H 0.43794 0.81674 1.01507 0.0
H610 H 0.45591 0.82052 0.0748 0.0
H611 H 0.46744 0.85405 0.03636 0.0
H612 H 0.4438 0.92984 0.13405 0.0
H613 H 0.46986 0.92757 0.2103 0.0
H614 H 0.4536 0.83721 0.16798 0.0
C615 C 0.3985 0.84547 0.99024 0.0
C616 C 0.39104 0.86549 0.96294 0.0
C617 C 0.39851 0.89398 0.98568 0.0
C618 C 0.41255 0.90227 0.03327 0.0
C619 C 0.41933 0.88202 0.05885 0.0
C620 C 0.41264 0.8542 0.03805 0.0
C621 C 0.42287 0.8369 0.07338 0.0
C622 C 0.39515 0.80622 0.09008 0.0
C623 C 0.4475 0.83175 0.04841 0.0
C624 C 0.43638 0.85928 0.11736 0.0
C625 C 0.43398 0.88515 0.10787 0.0
C626 C 0.44552 0.90955 0.14166 0.0
C627 C 0.46027 0.90796 0.18535 0.0
C628 C 0.46356 0.88204 0.19657 0.0
C629 C 0.45096 0.8571 0.16183 0.0
H630 H 0.50742 0.43989 0.20206 0.0
H631 H 0.43692 0.37194 0.2992 0.0
H632 H 0.46905 0.39872 0.37244 0.0
H633 H 0.57387 0.4519 0.27316 0.0
H634 H 0.59578 0.49296 0.26357 0.0
H635 H 0.56787 0.46864 0.21782 0.0
H636 H 0.54154 0.50106 0.22489 0.0
H637 H 0.56849 0.5252 0.27176 0.0
H638 H 0.52781 0.50573 0.28471 0.0
H639 H 0.50951 0.42945 0.4343 0.0
H640 H 0.55243 0.46585 0.48469 0.0
H641 H 0.59771 0.52058 0.35275 0.0
C642 C 0.49873 0.43069 0.23883 0.0
C643 C 0.46941 0.40331 0.24451 0.0
C644 C 0.459 0.39252 0.29344 0.0
C645 C 0.47724 0.40765 0.33538 0.0
C646 C 0.50588 0.43419 0.32849 0.0
C647 C 0.51648 0.44613 0.28163 0.0
C648 C 0.54795 0.47577 0.28576 0.0
C649 C 0.57285 0.47209 0.25845 0.0
C650 C 0.54632 0.50359 0.26559 0.0
C651 C 0.55344 0.47838 0.34228 0.0
C652 C 0.52883 0.45363 0.36546 0.0
C653 C 0.52858 0.44915 0.41653 0.0
C654 C 0.55358 0.47036 0.44502 0.0
C655 C 0.57905 0.49703 0.42379 0.0
C656 C 0.57881 0.50096 0.37097 0.0
H657 H 0.10226 0.62793 0.81891 0.0
H658 H 0.15981 0.6046 0.90749 0.0
H659 H 0.17198 0.58425 0.83172 0.0
H660 H 0.07208 0.5639 0.73435 0.0
H661 H 0.07378 0.58602 0.68022 0.0
H662 H 0.06908 0.59805 0.74136 0.0
H663 H 0.11724 0.65157 0.72745 0.0
H664 H 0.12189 0.63983 0.66606 0.0
H665 H 0.15312 0.65407 0.71013 0.0
H666 H 0.17481 0.56258 0.74458 0.0
H667 H 0.17496 0.55023 0.65472 0.0
H668 H 0.12028 0.59262 0.62126 0.0
C669 C 0.11762 0.61874 0.82235 0.0
C670 C 0.13003 0.61793 0.86969 0.0
C671 C 0.15016 0.6058 0.87202 0.0
C672 C 0.15701 0.59392 0.82901 0.0
C673 C 0.14413 0.59474 0.7831 0.0
C674 C 0.1254 0.60756 0.77942 0.0
C675 C 0.11571 0.60715 0.72536 0.0
C676 C 0.08058 0.58762 0.72003 0.0
C677 C 0.12771 0.64011 0.70612 0.0
C678 C 0.13165 0.59194 0.6991 0.0
C679 C 0.14744 0.58434 0.73317 0.0
C680 C 0.16279 0.56886 0.71778 0.0
C681 C 0.16261 0.56169 0.6666 0.0
C682 C 0.1478 0.57048 0.63063 0.0
C683 C 0.13201 0.58572 0.64762 0.0
H684 H 0.30964 0.90553 0.88219 0.0
H685 H 0.35547 0.98448 0.78429 0.0
H686 H 0.35607 0.01823 0.85273 0.0
H687 H 0.26617 0.93453 0.96273 0.0
H688 H 0.2729 0.91754 1.01706 0.0
H689 H 0.26746 0.89939 0.95693 0.0
H690 H 0.31936 0.90053 0.96714 0.0
H691 H 0.32507 0.91878 0.02662 0.0
H692 H 0.35385 0.9368 0.9786 0.0
H693 H 0.3627 0.04358 0.93574 0.0
H694 H 0.37621 0.05845 0.02361 0.0
H695 H 0.32722 0.96213 0.0664 0.0
C696 C 0.31882 0.92984 0.87479 0.0
C697 C 0.33266 0.94275 0.82872 0.0
C698 C 0.3446 0.97442 0.81964 0.0
C699 C 0.34486 0.99357 0.85817 0.0
C700 C 0.33247 0.98029 0.90455 0.0
C701 C 0.31924 0.94894 0.91257 0.0
C702 C 0.31252 0.94062 0.96702 0.0
C703 C 0.27769 0.92192 0.97648 0.0
C704 C 0.32869 0.92322 0.98589 0.0
C705 C 0.32635 0.97241 0.98923 0.0
C706 C 0.33677 0.99497 0.9527 0.0
C707 C 0.35403 0.02612 0.96456 0.0
C708 C 0.36192 0.03431 1.01461 0.0
C709 C 0.35314 0.01138 0.05198 0.0
C710 C 0.33386 0.98025 0.03913 0.0
H711 H 0.28615 0.31901 0.28862 0.0
H712 H 0.33174 0.26529 0.285 0.0
H713 H 0.32161 0.25442 0.37481 0.0
H714 H 0.31989 0.35872 0.38305 0.0
H715 H 0.28915 0.36133 0.41315 0.0
H716 H 0.2873 0.35405 0.34762 0.0
H717 H 0.23474 0.30417 0.35821 0.0
H718 H 0.23606 0.31159 0.42428 0.0
H719 H 0.23073 0.27527 0.40235 0.0
H720 H 0.32307 0.26407 0.46355 0.0
H721 H 0.33532 0.29233 0.54237 0.0
H722 H 0.28771 0.33957 0.49221 0.0
C723 C 0.2922 0.30339 0.30631 0.0
C724 C 0.30958 0.29288 0.28036 0.0
C725 C 0.31839 0.27351 0.30463 0.0
C726 C 0.31245 0.26701 0.35548 0.0
C727 C 0.29747 0.27989 0.38127 0.0
C728 C 0.28683 0.29722 0.35726 0.0
C729 C 0.27777 0.3141 0.39429 0.0
C730 C 0.29457 0.34908 0.3839 0.0
C731 C 0.24274 0.30045 0.39482 0.0
C732 C 0.2886 0.30668 0.44216 0.0
C733 C 0.29853 0.2858 0.43421 0.0
C734 C 0.31431 0.2795 0.47076 0.0
C735 C 0.3213 0.29586 0.51561 0.0
C736 C 0.31275 0.31852 0.52343 0.0
C737 C 0.29479 0.32264 0.4872 0.0
H738 H 0.08896 0.46674 0.56522 0.0
H739 H 0.03173 0.40677 0.44636 0.0
H740 H 0.00544 0.3642 0.50767 0.0
H741 H 0.10208 0.41138 0.62164 0.0
H742 H 0.10293 0.425 0.68417 0.0
H743 H 0.11434 0.45136 0.63239 0.0
H744 H 0.07396 0.46696 0.65685 0.0
H745 H 0.06326 0.44161 0.7098 0.0
H746 H 0.0344 0.43742 0.66559 0.0
H747 H 0.98541 0.32882 0.58466 0.0
H748 H 0.97285 0.30518 0.66916 0.0
H749 H 0.0493 0.38772 0.73056 0.0
C750 C 0.07032 0.44499 0.55196 0.0
C751 C 0.06194 0.44019 0.50123 0.0
C752 C 0.03808 0.411 0.48537 0.0
C753 C 0.02331 0.38669 0.51976 0.0
C754 C 0.03335 0.39198 0.56922 0.0
C755 C 0.05635 0.4205 0.58499 0.0
C756 C 0.06452 0.42034 0.63896 0.0
C757 C 0.09794 0.42743 0.64458 0.0
C758 C 0.05866 0.44289 0.66959 0.0
C759 C 0.04203 0.38731 0.65185 0.0
C760 C 0.02407 0.37118 0.61145 0.0
C761 C -0.00023 0.34103 0.61623 0.0
C762 C 0.99298 0.32766 0.66399 0.0
C763 C 0.01078 0.34434 0.70571 0.0
C764 C 0.03623 0.37401 0.69894 0.0
H765 H 0.63572 0.03918 0.16857 0.0
H766 H 0.62682 0.94959 0.19293 0.0
H767 H 0.65288 0.95397 0.11412 0.0
H768 H 0.61016 0.02556 0.05802 0.0
H769 H 0.63412 0.06243 0.02903 0.0
H770 H 0.62792 0.06024 0.09501 0.0
H771 H 0.68637 0.08751 0.11189 0.0
H772 H 0.69323 0.0911 0.0455 0.0
H773 H 0.70929 0.07307 0.08373 0.0
H774 H 0.66176 0.95844 0.02372 0.0
H775 H 0.65697 0.96553 0.93365 0.0
H776 H 0.65905 0.05125 0.96589 0.0
C777 C 0.64054 0.02116 0.15831 0.0
C778 C 0.62869 0.99399 0.18684 0.0
C779 C 0.63556 0.97086 0.17232 0.0
C780 C 0.65053 0.97311 0.12718 0.0
C781 C 0.65897 -0.00122 0.09724 0.0
C782 C 0.65497 0.0229 0.11285 0.0
C783 C 0.65971 0.04461 0.07032 0.0
C784 C 0.63129 0.04837 0.0627 0.0
C785 C 0.6889 0.07593 0.07835 0.0
C786 C 0.66383 0.02731 0.02766 0.0
C787 C 0.66437 0.00146 0.04393 0.0
C788 C 0.66257 0.97922 1.01055 0.0
C789 C 0.65943 0.9832 0.95949 0.0
C790 C 0.65781 0.00904 0.94248 0.0
C791 C 0.66122 0.03176 0.9771 0.0
H792 H 0.67359 0.60363 0.33688 0.0
H793 H 0.7324 0.69782 0.38518 0.0
H794 H 0.72599 0.7162 0.3036 0.0
H795 H 0.69063 0.61952 0.19206 0.0
H796 H 0.65088 0.59154 0.18049 0.0
H797 H 0.67122 0.58571 0.23086 0.0
H798 H 0.6285 0.57959 0.29155 0.0
H799 H 0.60867 0.5865 0.24259 0.0
H800 H 0.62011 0.6105 0.29744 0.0
H801 H 0.69844 0.72431 0.23474 0.0
H802 H 0.65647 0.72068 0.18117 0.0
H803 H 0.61434 0.62154 0.17926 0.0
C804 C 0.68664 0.62805 0.32961 0.0
C805 C 0.70255 0.64926 0.36817 0.0
C806 C 0.71928 0.68108 0.35668 0.0
C807 C 0.716 0.69175 0.31012 0.0
C808 C 0.69662 0.67024 0.27511 0.0
C809 C 0.68303 0.63885 0.28369 0.0
C810 C 0.65814 0.6205 0.24588 0.0
C811 C 0.66835 0.60332 0.21019 0.0
C812 C 0.62708 0.59804 0.27092 0.0
C813 C 0.65701 0.64641 0.2193 0.0
C814 C 0.68028 0.67499 0.23481 0.0
C815 C 0.68089 0.70216 0.22086 0.0
C816 C 0.65693 0.69997 0.19106 0.0
C817 C 0.63266 0.67082 0.17694 0.0
C818 C 0.63313 0.64397 0.1898 0.0
H819 H 0.95562 0.57297 0.8499 0.0
H820 H 0.01751 0.67016 0.87438 0.0
H821 H 0.00198 0.68214 0.79406 0.0
H822 H 0.97455 0.57132 0.73454 0.0
H823 H 0.93731 0.54411 0.70981 0.0
H824 H 0.94484 0.54357 0.77495 0.0
H825 H 0.89821 0.55019 0.79692 0.0
H826 H 0.89033 0.55041 0.73132 0.0
H827 H 0.89545 0.5818 0.77059 0.0
H828 H 0.99148 0.68254 0.70466 0.0
H829 H 0.98483 0.67125 0.61435 0.0
H830 H 0.92984 0.57381 0.64744 0.0
C831 C 0.96446 0.59677 0.83937 0.0
C832 C 0.98754 0.62067 0.86789 0.0
C833 C -0.00024 0.65162 0.85261 0.0
C834 C 0.99089 0.65861 0.80733 0.0
C835 C 0.96953 0.63437 0.77814 0.0
C836 C 0.95601 0.60401 0.79394 0.0
C837 C 0.93813 0.58197 0.75229 0.0
C838 C 0.94943 0.55895 0.74234 0.0
C839 C 0.90347 0.56511 0.76345 0.0
C840 C 0.94605 0.60449 0.70973 0.0
C841 C 0.96336 0.63465 0.72559 0.0
C842 C 0.97708 0.65911 0.69191 0.0
C843 C 0.97351 0.65251 0.64075 0.0
C844 C 0.9566 0.62171 0.62396 0.0
C845 C 0.942 0.59765 0.65904 0.0
H846 H 0.42765 0.99147 0.25742 0.0
H847 H 0.51064 0.06813 0.31815 0.0
H848 H 0.50319 0.04023 0.39538 0.0
H849 H 0.39076 0.9555 0.39497 0.0
H850 H 0.3762 0.91784 0.3685 0.0
H851 H 0.37611 0.94817 0.33241 0.0
H852 H 0.40503 0.93884 0.26209 0.0
H853 H 0.40519 0.90887 0.29732 0.0
H854 H 0.44111 0.94061 0.27503 0.0
H855 H 0.50119 0.00293 0.44744 0.0
H856 H 0.52025 0.96728 0.43306 0.0
H857 H 0.43736 0.90599 0.3538 0.0
C858 C 0.44397 0.00217 0.28749 0.0
C859 C 0.46974 0.03169 0.28158 0.0
C860 C 0.49072 0.04531 0.32136 0.0
C861 C 0.48614 0.02985 0.36623 0.0
C862 C 0.46108 0.00013 0.37075 0.0
C863 C 0.4402 0.98633 0.33216 0.0
C864 C 0.42133 0.952 0.33951 0.0
C865 C 0.38928 0.94291 0.36015 0.0
C866 C 0.41813 0.93411 0.29064 0.0
C867 C 0.44084 0.94834 0.37926 0.0
C868 C 0.46046 0.9765 0.40231 0.0
C869 C 0.48638 0.98123 0.42907 0.0
C870 C 0.49734 0.96111 0.42064 0.0
C871 C 0.48036 0.93532 0.39033 0.0
C872 C 0.45018 0.92643 0.37635 0.0
H873 H 0.44131 0.44283 0.60976 0.0
H874 H 0.44974 0.48938 0.74974 0.0
H875 H 0.49997 0.53249 0.72284 0.0
H876 H 0.52591 0.47919 0.57259 0.0
H877 H 0.51423 0.48077 0.50965 0.0
H878 H 0.48885 0.44988 0.5503 0.0
H879 H 0.44766 0.4652 0.52892 0.0
H880 H 0.47462 0.4981 0.49319 0.0
H881 H 0.45512 0.50327 0.54552 0.0
H882 H 0.54433 0.57423 0.67293 0.0
H883 H 0.58561 0.60386 0.61184 0.0
H884 H 0.53486 0.53633 0.49841 0.0
C885 C 0.45479 0.461 0.6362 0.0
C886 C 0.4418 0.46341 0.68108 0.0
C887 C 0.45967 0.48749 0.71491 0.0
C888 C 0.48781 0.51233 0.69944 0.0
C889 C 0.49699 0.51214 0.65045 0.0
C890 C 0.48135 0.48675 0.61971 0.0
C891 C 0.49174 0.49409 0.56625 0.0
C892 C 0.50608 0.47486 0.54874 0.0
C893 C 0.46567 0.48985 0.53142 0.0
C894 C 0.51522 0.52761 0.57129 0.0
C895 C 0.51852 0.53754 0.62024 0.0
C896 C 0.54185 0.56663 0.63456 0.0
C897 C 0.56458 0.58393 0.59914 0.0
C898 C 0.56359 0.57094 0.55186 0.0
C899 C 0.53597 0.54607 0.53501 0.0
H900 H 0.96254 0.43961 0.95588 0.0
H901 H 0.03335 0.43536 0.86922 0.0
H902 H 0.0722 0.46927 0.93065 0.0
H903 H 0.99625 0.51178 0.98033 0.0
H904 H 0.9832 0.50913 0.04389 0.0
H905 H 0.96142 0.47838 1.00162 0.0
H906 H 0.96556 0.43998 0.06217 0.0
H907 H 0.98718 0.47145 0.10472 0.0
H908 H 0.00278 0.44792 0.08366 0.0
H909 H 0.10314 0.5095 0.98926 0.0
H910 H 0.12323 0.56285 1.0161 0.0
H911 H 0.0331 0.54078 0.06783 0.0
C912 C 0.98624 0.44578 0.94965 0.0
C913 C 0.99507 0.43523 0.90762 0.0
C914 C 0.02623 0.44363 0.90101 0.0
C915 C 0.0482 0.46201 0.9365 0.0
C916 C 0.03843 0.47108 0.97872 0.0
C917 C 0.00813 0.46348 0.9849 0.0
C918 C 0.00402 0.48046 0.02774 0.0
C919 C 0.98521 0.49588 1.01236 0.0
C920 C 0.98901 0.45867 0.07226 0.0
C921 C 0.03739 0.50318 0.03839 0.0
C922 C 0.05683 0.4953 1.01349 0.0
C923 C 0.08837 0.5156 1.00972 0.0
C924 C 0.09966 0.54591 0.02518 0.0
C925 C 0.07906 0.55517 0.04266 0.0
C926 C 0.04869 0.53331 0.05453 0.0
H927 H 0.11233 0.58188 0.39773 0.0
H928 H 0.08218 0.51503 0.27889 0.0
H929 H 0.05302 0.53682 0.24213 0.0
H930 H 0.0662 0.57977 0.44332 0.0
H931 H 0.06581 0.61549 0.44731 0.0
H932 H 0.1013 0.61636 0.43654 0.0
H933 H 0.10958 0.64922 0.35805 0.0
H934 H 0.07318 0.64735 0.36861 0.0
H935 H 0.08106 0.63567 0.30952 0.0
H936 H 0.00493 0.52971 0.26378 0.0
H937 H 0.96057 0.51179 0.31864 0.0
H938 H 0.01517 0.5844 0.42351 0.0
C939 C 0.10044 0.57306 0.36273 0.0
C940 C 0.09733 0.54572 0.34303 0.0
C941 C 0.08336 0.53511 0.29617 0.0
C942 C 0.06726 0.54794 0.27436 0.0
C943 C 0.06456 0.57043 0.30088 0.0
C944 C 0.08358 0.58553 0.34152 0.0
C945 C 0.07103 0.60265 0.37083 0.0
C946 C 0.07633 0.60345 0.42786 0.0
C947 C 0.08449 0.63564 0.3505 0.0
C948 C 0.03778 0.58352 0.35578 0.0
C949 C 0.03504 0.56788 0.31149 0.0
C950 C 0.0069 0.54278 0.29704 0.0
C951 C 0.98198 0.53189 0.32952 0.0
C952 C 0.98511 0.5461 0.37623 0.0
C953 C 0.01268 0.57305 0.38808 0.0
H954 H 0.43296 0.8966 0.73999 0.0
H955 H 0.40734 0.94381 0.63185 0.0
H956 H 0.45978 0.97076 0.59956 0.0
H957 H 0.48406 0.94533 0.78881 0.0
H958 H 0.51372 0.93519 0.7942 0.0
H959 H 0.47484 0.90559 0.78593 0.0
H960 H 0.48992 0.88604 0.7084 0.0
H961 H 0.52953 0.91595 0.71549 0.0
H962 H 0.50984 0.91157 0.65729 0.0
H963 H 0.5104 0.00999 0.6139 0.0
H964 H 0.55459 0.04977 0.65951 0.0
H965 H 0.55159 0.98041 0.75971 0.0
C966 C 0.43859 0.91197 0.70844 0.0
C967 C 0.41726 0.91972 0.69012 0.0
C968 C 0.42407 0.9386 0.6476 0.0
C969 C 0.45366 0.95345 0.62823 0.0
C970 C 0.47582 0.94911 0.65207 0.0
C971 C 0.46833 0.92726 0.68957 0.0
C972 C 0.49648 0.93229 0.71768 0.0
C973 C 0.49195 0.92953 0.77497 0.0
C974 C 0.5071 0.9102 0.69854 0.0
C975 C 0.51824 0.9647 0.701 0.0
C976 C 0.50688 0.97302 0.66042 0.0
C977 C 0.52004 0.00346 0.64442 0.0
C978 C 0.54464 0.02602 0.67135 0.0
C979 C 0.55562 0.01792 0.71387 0.0
C980 C 0.5431 0.98694 0.72759 0.0
H981 H 0.5288 0.55349 0.15675 0.0
H982 H 0.54679 0.57211 0.99869 0.0
H983 H 0.49989 0.52261 0.97958 0.0
H984 H 0.48516 0.47366 0.16735 0.0
H985 H 0.45802 0.47571 0.20911 0.0
H986 H 0.49673 0.507 0.20642 0.0
H987 H 0.47651 0.54503 0.18485 0.0
H988 H 0.43793 0.51276 0.18929 0.0
H989 H 0.45054 0.53611 0.13361 0.0
H990 H 0.44897 0.47209 0.98106 0.0
H991 H 0.40822 0.42011 1.00477 0.0
H992 H 0.41512 0.44809 0.1584 0.0
C993 C 0.52356 0.54654 0.11803 0.0
C994 C 0.54049 0.56682 0.07927 0.0
C995 C 0.53367 0.55692 0.02907 0.0
C996 C 0.5065 0.52948 1.01791 0.0
C997 C 0.48669 0.51367 0.05742 0.0
C998 C 0.49508 0.52193 0.10645 0.0
C999 C 0.46883 0.50467 0.14204 0.0
C1000 C 0.47768 0.48927 0.18356 0.0
C1001 C 0.45778 0.52586 0.16378 0.0
C1002 C 0.44535 0.48215 0.10636 0.0
C1003 C 0.45561 0.48834 0.05723 0.0
C1004 C 0.44032 0.4675 0.01895 0.0
C1005 C 0.41669 0.43824 0.03249 0.0
C1006 C 0.41012 0.43073 0.08357 0.0
C1007 C 0.42038 0.45393 0.11931 0.0
H1008 H 0.38235 0.97948 0.55974 0.0
H1009 H 0.28841 0.93543 0.50467 0.0
H1010 H 0.30548 0.96915 0.43219 0.0
H1011 H 0.39935 0.05908 0.51117 0.0
H1012 H 0.43891 0.0711 0.49726 0.0
H1013 H 0.41959 0.045 0.54836 0.0
H1014 H 0.43448 0.00786 0.51111 0.0
H1015 H 0.45211 0.03174 0.45718 0.0
H1016 H 0.42146 0.99237 0.45004 0.0
H1017 H 0.33094 0.00498 0.36286 0.0
H1018 H 0.36417 0.0408 0.29849 0.0
H1019 H 0.44425 0.06576 0.39098 0.0
C1020 C 0.3653 0.97714 0.5328 0.0
C1021 C 0.33372 0.95341 0.53855 0.0
C1022 C 0.31265 0.95198 0.50174 0.0
C1023 C 0.32213 0.97157 0.46004 0.0
C1024 C 0.35301 0.99376 0.4548 0.0
C1025 C 0.3744 0.99735 0.49041 0.0
C1026 C 0.40618 0.02391 0.47433 0.0
C1027 C 0.41663 0.0514 0.50991 0.0
C1028 C 0.43002 0.01338 0.47296 0.0
C1029 C 0.39952 0.03219 0.42206 0.0
C1030 C 0.36827 0.01511 0.41328 0.0
C1031 C 0.35545 0.01851 0.36936 0.0
C1032 C 0.37475 0.03923 0.33272 0.0
C1033 C 0.40715 0.05673 0.33866 0.0
C1034 C 0.41965 0.05333 0.38489 0.0
H1035 H 0.41464 0.36778 0.95199 0.0
H1036 H 0.32496 0.3162 0.02191 0.0
H1037 H 0.30205 0.33002 0.9519 0.0
H1038 H 0.40615 0.43062 0.91342 0.0
H1039 H 0.42741 0.43683 0.85636 0.0
H1040 H 0.4354 0.41985 0.90929 0.0
H1041 H 0.42509 0.37276 0.85417 0.0
H1042 H 0.41756 0.39053 0.80185 0.0
H1043 H 0.38925 0.35213 0.82094 0.0
H1044 H 0.28936 0.35245 0.8749 0.0
H1045 H 0.2884 0.3796 0.79773 0.0
H1046 H 0.38688 0.41923 0.78267 0.0
C1047 C 0.39004 0.35861 0.95213 0.0
C1048 C 0.37161 0.3404 0.99253 0.0
C1049 C 0.33958 0.32967 0.99124 0.0
C1050 C 0.32638 0.33768 0.95173 0.0
C1051 C 0.34548 0.35678 0.91374 0.0
C1052 C 0.37665 0.36696 0.91358 0.0
C1053 C 0.39257 0.38865 0.87008 0.0
C1054 C 0.41681 0.42087 0.88844 0.0
C1055 C 0.40696 0.37521 0.83463 0.0
C1056 C 0.36557 0.38925 0.84586 0.0
C1057 C 0.3385 0.3706 0.87127 0.0
C1058 C 0.31049 0.36722 0.85502 0.0
C1059 C 0.31011 0.38287 0.81144 0.0
C1060 C 0.33762 0.40205 0.78514 0.0
C1061 C 0.3656 0.40526 0.80284 0.0
H1062 H 0.93897 0.34499 0.0584 0.0
H1063 H 0.01061 0.38418 0.94583 0.0
H1064 H 0.04933 0.41127 1.01083 0.0
H1065 H 0.97121 0.40889 0.14724 0.0
H1066 H 0.96141 0.38455 0.20138 0.0
H1067 H 0.93863 0.37042 0.14547 0.0
H1068 H 0.9478 0.32388 0.14573 0.0
H1069 H 0.97092 0.33852 0.20117 0.0
H1070 H 0.98663 0.33074 0.14623 0.0
H1071 H 0.08086 0.4372 0.08771 0.0
H1072 H 0.10417 0.45135 0.17202 0.0
H1073 H 0.01526 0.39045 0.23818 0.0
C1074 C 0.96284 0.35905 0.04758 0.0
C1075 C 0.97147 0.3622 0.9963 0.0
C1076 C 0.00313 0.38089 0.98433 0.0
C1077 C 0.02544 0.39676 0.02119 0.0
C1078 C 0.01636 0.39333 0.07098 0.0
C1079 C 0.98597 0.37424 0.08459 0.0
C1080 C 0.98326 0.37258 0.14152 0.0
C1081 C 0.96239 0.38483 0.15994 0.0
C1082 C 0.97145 0.33946 0.15974 0.0
C1083 C 0.01669 0.39386 0.15735 0.0
C1084 C 0.03519 0.40619 0.11583 0.0
C1085 C 0.06664 0.42732 0.12047 0.0
C1086 C 0.07974 0.43544 0.16854 0.0
C1087 C 0.0618 0.42199 0.21182 0.0
C1088 C 0.0297 0.401 0.20585 0.0
H1089 H 0.6003 0.99573 0.66664 0.0
H1090 H 0.68042 0.07134 0.5972 0.0
H1091 H 0.66943 0.04059 0.51951 0.0
H1092 H 0.60186 0.93073 0.6046 0.0
H1093 H 0.56073 0.90897 0.59644 0.0
H1094 H 0.577 0.93517 0.64823 0.0
H1095 H 0.54915 0.96358 0.6201 0.0
H1096 H 0.53175 0.93697 0.56932 0.0
H1097 H 0.55314 0.97792 0.55744 0.0
H1098 H 0.64917 0.00127 0.44853 0.0
H1099 H 0.61813 0.96209 0.38635 0.0
H1100 H 0.54665 0.91308 0.49683 0.0
C1101 C 0.61598 0.00552 0.63542 0.0
C1102 C 0.64198 0.03583 0.63888 0.0
C1103 C 0.66091 0.04816 0.5962 0.0
C1104 C 0.65478 0.03071 0.55183 0.0
C1105 C 0.62907 0.00098 0.54973 0.0
C1106 C 0.60963 0.98868 0.59017 0.0
C1107 C 0.5817 0.95764 0.57611 0.0
C1108 C 0.58024 0.93158 0.60826 0.0
C1109 C 0.55207 0.95908 0.58081 0.0
C1110 C 0.58827 0.95422 0.52164 0.0
C1111 C 0.61613 0.97929 0.50769 0.0
C1112 C 0.6273 0.98178 0.45934 0.0
C1113 C 0.60927 0.95905 0.42405 0.0
C1114 C 0.57954 0.93394 0.43582 0.0
C1115 C 0.5693 0.93134 0.48614 0.0
H1116 H 0.59546 0.61475 0.8908 0.0
H1117 H 0.65569 0.71209 0.85959 0.0
H1118 H 0.67178 0.6992 0.78163 0.0
H1119 H 0.64347 0.58738 0.83992 0.0
H1120 H 0.6131 0.55364 0.81022 0.0
H1121 H 0.60499 0.56913 0.86508 0.0
H1122 H 0.56268 0.57344 0.81826 0.0
H1123 H 0.56998 0.55789 0.76261 0.0
H1124 H 0.57166 0.59458 0.76043 0.0
H1125 H 0.68254 0.67657 0.70548 0.0
H1126 H 0.68406 0.6453 0.63535 0.0
H1127 H 0.61683 0.56233 0.71176 0.0
C1128 C 0.61193 0.63342 0.86765 0.0
C1129 C 0.62463 0.66467 0.88326 0.0
C1130 C 0.64599 0.68801 0.8506 0.0
C1131 C 0.6553 0.68093 0.80543 0.0
C1132 C 0.64299 0.65022 0.79185 0.0
C1133 C 0.62143 0.62675 0.82155 0.0
C1134 C 0.61129 0.59567 0.79676 0.0
C1135 C 0.61866 0.57526 0.83003 0.0
C1136 C 0.57686 0.57943 0.78378 0.0
C1137 C 0.63103 0.60547 0.74947 0.0
C1138 C 0.64902 0.6371 0.74738 0.0
C1139 C 0.6686 0.65173 0.70689 0.0
C1140 C 0.66949 0.63373 0.66717 0.0
C1141 C 0.65112 0.6012 0.66784 0.0
C1142 C 0.63181 0.58705 0.71015 0.0
H1143 H 0.01617 0.60379 0.09892 0.0
H1144 H 0.09702 0.6755 0.17323 0.0
H1145 H 0.06597 0.66679 0.2502 0.0
H1146 H 0.95912 0.61798 0.15777 0.0
H1147 H 0.93076 0.57766 0.16238 0.0
H1148 H 0.95879 0.5911 0.11278 0.0
H1149 H 0.97443 0.55185 0.13926 0.0
H1150 H 0.94805 0.53876 0.19118 0.0
H1151 H 0.98841 0.55296 0.20135 0.0
H1152 H 0.02466 0.65097 0.31856 0.0
H1153 H 0.98054 0.62546 0.37559 0.0
H1154 H 0.92752 0.55966 0.25987 0.0
C1155 C 0.02741 0.618 0.13118 0.0
C1156 C 0.05915 0.64092 0.1294 0.0
C1157 C 0.07287 0.65815 0.17318 0.0
C1158 C 0.05529 0.65332 0.21709 0.0
C1159 C 0.02405 0.63068 0.21726 0.0
C1160 C 0.01039 0.61298 0.17552 0.0
C1161 C 0.97693 0.5889 0.18603 0.0
C1162 C 0.95511 0.59424 0.15276 0.0
C1163 C 0.97163 0.55617 0.17908 0.0
C1164 C 0.97375 0.59554 0.24052 0.0
C1165 C 0.00101 0.62024 0.25734 0.0
C1166 C 0.0034 0.6315 0.30564 0.0
C1167 C 0.97785 0.61684 0.33786 0.0
C1168 C 0.95 0.59034 0.32285 0.0
C1169 C 0.94808 0.57992 0.27288 0.0
H1170 H 0.54471 0.11794 0.38389 0.0
H1171 H 0.59051 0.21667 0.35823 0.0
H1172 H 0.61832 0.22535 0.43784 0.0
H1173 H 0.53225 0.12129 0.51356 0.0
H1174 H 0.5382 0.08968 0.52903 0.0
H1175 H 0.52361 0.09134 0.46852 0.0
H1176 H 0.56816 0.0878 0.42646 0.0
H1177 H 0.58304 0.08621 0.48679 0.0
H1178 H 0.60737 0.11535 0.44247 0.0
H1179 H 0.64 0.22306 0.52123 0.0
H1180 H 0.65345 0.21017 0.60261 0.0
H1181 H 0.59033 0.11312 0.57455 0.0
C1182 C 0.56033 0.14147 0.39486 0.0
C1183 C 0.56529 0.16664 0.36468 0.0
C1184 C 0.58655 0.19698 0.38036 0.0
C1185 C 0.60235 0.20216 0.42562 0.0
C1186 C 0.59652 0.17675 0.45462 0.0
C1187 C 0.57596 0.14703 0.43988 0.0
C1188 C 0.57291 0.12368 0.47841 0.0
C1189 C 0.53978 0.10545 0.49857 0.0
C1190 C 0.58352 0.102 0.45725 0.0
C1191 C 0.59491 0.14499 0.51745 0.0
C1192 C 0.60845 0.17546 0.50295 0.0
C1193 C 0.62949 0.19929 0.53308 0.0
C1194 C 0.63681 0.19172 0.57942 0.0
C1195 C 0.62293 0.16061 0.59522 0.0
C1196 C 0.60175 0.13707 0.56353 0.0
H1197 H 0.42586 0.53109 0.81743 0.0
H1198 H 0.37641 0.58095 0.80096 0.0
H1199 H 0.39837 0.60768 0.88083 0.0
H1200 H 0.41575 0.52063 0.9516 0.0
H1201 H 0.45331 0.52555 0.96193 0.0
H1202 H 0.43356 0.50925 0.90413 0.0
H1203 H 0.47892 0.55079 0.85276 0.0
H1204 H 0.49984 0.56654 0.9097 0.0
H1205 H 0.49383 0.5909 0.8672 0.0
H1206 H 0.42846 0.63098 0.96154 0.0
H1207 H 0.4661 0.6504 0.03138 0.0
H1208 H 0.49351 0.5836 0.99437 0.0
C1209 C 0.41907 0.54716 0.83075 0.0
C1210 C 0.39914 0.55366 0.80275 0.0
C1211 C 0.39176 0.57565 0.82137 0.0
C1212 C 0.4039 0.59075 0.867 0.0
C1213 C 0.42326 0.5835 0.89375 0.0
C1214 C 0.43078 0.56221 0.87608 0.0
C1215 C 0.45294 0.55917 0.91051 0.0
C1216 C 0.43798 0.52671 0.93334 0.0
C1217 C 0.48316 0.56736 0.88342 0.0
C1218 C 0.45767 0.58291 0.94952 0.0
C1219 C 0.44003 0.59642 0.93991 0.0
C1220 C 0.442 0.62021 0.96978 0.0
C1221 C 0.46318 0.63096 1.0095 0.0
C1222 C 0.48196 0.61791 0.01849 0.0
C1223 C 0.47872 0.59331 0.98876 0.0
H1224 H 0.9026 0.42288 0.03782 0.0
H1225 H 0.80517 0.37269 1.00135 0.0
H1226 H 0.79345 0.38817 0.08144 0.0
H1227 H 0.89211 0.39862 0.16342 0.0
H1228 H 0.92355 0.43438 0.1861 0.0
H1229 H 0.92419 0.42212 0.12328 0.0
H1230 H 0.93121 0.47419 0.09023 0.0
H1231 H 0.93044 0.48586 0.15347 0.0
H1232 H 0.90388 0.48578 0.10819 0.0
H1233 H 0.79147 0.4042 0.16814 0.0
H1234 H 0.7999 0.4217 0.25575 0.0
H1235 H 0.89812 0.45969 0.23674 0.0
C1236 C 0.87878 0.41518 0.04624 0.0
C1237 C 0.85488 0.39649 1.01286 0.0
C1238 C 0.82405 0.38736 0.02561 0.0
C1239 C 0.81707 0.39592 0.07125 0.0
C1240 C 0.84113 0.41357 0.10368 0.0
C1241 C 0.87136 0.42318 0.09179 0.0
C1242 C 0.89267 0.43993 0.1348 0.0
C1243 C 0.90908 0.42274 0.15297 0.0
C1244 C 0.9159 0.47345 0.12081 0.0
C1245 C 0.86958 0.43812 0.17278 0.0
C1246 C 0.83999 0.4228 0.15407 0.0
C1247 C 0.81454 0.41654 0.18315 0.0
C1248 C 0.8195 0.42627 0.23285 0.0
C1249 C 0.84963 0.44202 0.25264 0.0
C1250 C 0.87493 0.44816 0.2221 0.0
H1251 H 0.45439 0.82989 0.51828 0.0
H1252 H 0.3797 0.77151 0.41893 0.0
H1253 H 0.34212 0.76505 0.48411 0.0
H1254 H 0.41606 0.7893 0.63731 0.0
H1255 H 0.43226 0.82512 0.67115 0.0
H1256 H 0.45305 0.82107 0.61958 0.0
H1257 H 0.45633 0.86914 0.57746 0.0
H1258 H 0.43556 0.87303 0.62874 0.0
H1259 H 0.42144 0.87014 0.56614 0.0
H1260 H 0.31316 0.77365 0.55324 0.0
H1261 H 0.29554 0.79325 0.62344 0.0
H1262 H 0.38846 0.84235 0.6808 0.0
C1263 C 0.43013 0.81509 0.51082 0.0
C1264 C 0.42 0.80106 0.46364 0.0
C1265 C 0.38804 0.78206 0.45503 0.0
C1266 C 0.3665 0.77836 0.49182 0.0
C1267 C 0.37726 0.79331 0.53743 0.0
C1268 C 0.40838 0.81086 0.54736 0.0
C1269 C 0.41405 0.82651 0.59768 0.0
C1270 C 0.42978 0.81478 0.63355 0.0
C1271 C 0.43294 0.86178 0.59208 0.0
C1272 C 0.38131 0.81589 0.61384 0.0
C1273 C 0.36036 0.79676 0.57859 0.0
C1274 C 0.32917 0.78761 0.58203 0.0
C1275 C 0.3193 0.79871 0.62199 0.0
C1276 C 0.34042 0.81809 0.65845 0.0
C1277 C 0.37162 0.82619 0.65478 0.0
H1278 H 0.57099 0.49231 0.7418 0.0
H1279 H 0.51006 0.40662 0.6662 0.0
H1280 H 0.48596 0.38298 0.74685 0.0
H1281 H 0.58688 0.46089 0.84192 0.0
H1282 H 0.58782 0.48767 0.88773 0.0
H1283 H 0.59633 0.49916 0.82348 0.0
H1284 H 0.5531 0.51355 0.82302 0.0
H1285 H 0.54504 0.5022 0.88753 0.0
H1286 H 0.51473 0.48524 0.84185 0.0
H1287 H 0.4743 0.36668 0.835 0.0
H1288 H 0.47202 0.35993 0.92678 0.0
H1289 H 0.54082 0.45586 0.94527 0.0
C1290 C 0.5518 0.46896 0.74203 0.0
C1291 C 0.54233 0.45115 0.69806 0.0
C1292 C 0.51771 0.42042 0.69978 0.0
C1293 C 0.50384 0.40692 0.74524 0.0
C1294 C 0.51481 0.42463 0.78831 0.0
C1295 C 0.53786 0.45514 0.78711 0.0
C1296 C 0.54734 0.46821 0.83914 0.0
C1297 C 0.58162 0.47965 0.8486 0.0
C1298 C 0.53957 0.49381 0.84845 0.0
C1299 C 0.52702 0.43987 0.86973 0.0
C1300 C 0.50819 0.41511 0.83962 0.0
C1301 C 0.48857 0.38597 0.85901 0.0
C1302 C 0.48768 0.38222 0.91072 0.0
C1303 C 0.50661 0.40733 0.94194 0.0
C1304 C 0.52651 0.43645 0.92147 0.0
H1305 H 0.18391 0.59149 0.35948 0.0
H1306 H 0.21018 0.53102 0.28685 0.0
H1307 H 0.2302 0.56676 0.21493 0.0
H1308 H 0.15018 0.59936 0.26143 0.0
H1309 H 0.15966 0.63884 0.2695 0.0
H1310 H 0.15845 0.61662 0.32264 0.0
H1311 H 0.21402 0.65597 0.34669 0.0
H1312 H 0.21578 0.67971 0.29481 0.0
H1313 H 0.2443 0.66814 0.30103 0.0
H1314 H 0.23799 0.60323 0.14537 0.0
H1315 H 0.22807 0.63329 0.08234 0.0
H1316 H 0.1907 0.66584 0.19702 0.0
C1317 C 0.19568 0.58682 0.3298 0.0
C1318 C 0.19668 0.5592 0.32934 0.0
C1319 C 0.21018 0.5526 0.2884 0.0
C1320 C 0.22156 0.57279 0.24748 0.0
C1321 C 0.21872 0.59911 0.24785 0.0
C1322 C 0.206 0.60609 0.28809 0.0
C1323 C 0.19921 0.63154 0.27547 0.0
C1324 C 0.16484 0.62091 0.28259 0.0
C1325 C 0.21955 0.66057 0.30633 0.0
C1326 C 0.20837 0.63658 0.22106 0.0
C1327 C 0.22082 0.61866 0.20633 0.0
C1328 C 0.2289 0.61782 0.15677 0.0
C1329 C 0.2233 0.63499 0.12126 0.0
C1330 C 0.209 0.652 0.13534 0.0
C1331 C 0.20215 0.65335 0.18591 0.0
loop_
_geom_bond_atom_site_label_1
_geom_bond_atom_site_label_2
_geom_bond_distance
_geom_bond_site_symmetry_2
_ccdc_geom_bond_type
Co0 N5 2.057 . S
Co0 O17 2.021 . S
Co0 O20 2.062 . S
Co0 O24 2.117 . S
Co0 O25 2.020 . S
C1 O21 1.259 . S
C1 O24 1.258 . S
Co2 N11 2.057 . S
Co2 O18 2.117 . S
Co2 O19 2.020 . S
Co2 O21 2.021 . S
Co2 O26 2.062 . S
C3 N5 1.316 . S
C3 N6 1.347 . S
C3 H8 0.931 . S
C4 N5 1.375 . S
C4 C7 1.350 . S
C4 H9 0.930 . S
N5 Co0 2.057 . S
N5 C3 1.316 . S
N5 C4 1.375 . S
N6 C3 1.347 . S
N6 C7 1.373 . S
C7 C4 1.350 . S
C7 N6 1.373 . S
C7 H28 0.931 1_545 S
H8 C3 0.931 . S
H9 C4 0.930 . S
C10 O17 1.259 . S
C10 O18 1.258 . S
N11 Co2 2.057 . S
N11 C12 1.316 . S
N11 C13 1.375 . S
C12 N11 1.316 . S
C12 N14 1.347 . S
C12 H23 0.931 . S
C13 N11 1.375 . S
C13 C15 1.350 . S
C13 H22 0.930 . S
N14 C12 1.347 . S
N14 C15 1.373 . S
C15 C13 1.350 . S
C15 N14 1.373 . S
C15 H29 0.931 . S
C16 O19 1.256 . S
C16 O20 1.255 . S
O17 Co0 2.021 . S
O17 C10 1.259 . S
O18 Co2 2.117 . S
O18 C10 1.258 . S
O19 Co2 2.020 . S
O19 C16 1.256 . S
O20 Co0 2.062 . S
O20 C16 1.255 . S
O21 C1 1.259 . S
O21 Co2 2.021 . S
H22 C13 0.930 . S
H23 C12 0.931 . S
O24 Co0 2.117 . S
O24 C1 1.258 . S
O25 Co0 2.020 . S
O25 C27 1.256 . S
O26 Co2 2.062 . S
O26 C27 1.255 . S
C27 O25 1.256 . S
C27 O26 1.255 . S
H28 C7 0.931 1_565 S
H29 C15 0.931 . S
Co30 N35 2.057 . S
Co30 O47 2.021 . S
Co30 O50 2.062 . S
Co30 O54 2.117 . S
Co30 O55 2.020 . S
C31 O51 1.259 . S
C31 O54 1.258 . S
Co32 N41 2.057 . S
Co32 O48 2.117 . S
Co32 O49 2.020 . S
Co32 O51 2.021 . S
Co32 O56 2.062 . S
C33 N35 1.316 . S
C33 N36 1.347 . S
C33 H38 0.931 . S
C34 N35 1.375 . S
C34 C37 1.350 . S
C34 H39 0.930 . S
N35 Co30 2.057 . S
N35 C33 1.316 . S
N35 C34 1.375 . S
N36 C33 1.347 . S
N36 C37 1.373 . S
C37 C34 1.350 . S
C37 N36 1.373 . S
C37 H58 0.931 . S
H38 C33 0.931 . S
H39 C34 0.930 . S
C40 O47 1.259 . S
C40 O48 1.258 . S
N41 Co32 2.057 . S
N41 C42 1.316 . S
N41 C43 1.375 . S
C42 N41 1.316 . S
C42 N44 1.347 . S
C42 H53 0.931 . S
C43 N41 1.375 . S
C43 C45 1.350 . S
C43 H52 0.930 . S
N44 C42 1.347 . S
N44 C45 1.373 . S
C45 C43 1.350 . S
C45 N44 1.373 . S
C45 H59 0.931 . S
C46 O49 1.256 . S
C46 O50 1.255 . S
O47 Co30 2.021 . S
O47 C40 1.259 . S
O48 Co32 2.117 . S
O48 C40 1.258 . S
O49 Co32 2.020 . S
O49 C46 1.256 . S
O50 Co30 2.062 . S
O50 C46 1.255 . S
O51 C31 1.259 . S
O51 Co32 2.021 . S
H52 C43 0.930 . S
H53 C42 0.931 . S
O54 Co30 2.117 . S
O54 C31 1.258 . S
O55 Co30 2.020 . S
O55 C57 1.256 . S
O56 Co32 2.062 . S
O56 C57 1.255 . S
C57 O55 1.256 . S
C57 O56 1.255 . S
H58 C37 0.931 . S
H59 C45 0.931 . S
Co60 N65 2.057 . S
Co60 O77 2.021 . S
Co60 O80 2.062 . S
Co60 O84 2.117 . S
Co60 O85 2.020 . S
C61 O81 1.259 . S
C61 O84 1.258 . S
Co62 N71 2.057 . S
Co62 O78 2.117 . S
Co62 O79 2.020 . S
Co62 O81 2.021 . S
Co62 O86 2.062 . S
C63 N65 1.316 . S
C63 N66 1.347 . S
C63 H68 0.931 . S
C64 N65 1.375 . S
C64 C67 1.350 . S
C64 H69 0.930 . S
N65 Co60 2.057 . S
N65 C63 1.316 . S
N65 C64 1.375 . S
N66 C63 1.347 . S
N66 C67 1.373 . S
C67 C64 1.350 . S
C67 N66 1.373 . S
C67 H88 0.931 1_655 S
H68 C63 0.931 . S
H69 C64 0.930 . S
C70 O77 1.259 . S
C70 O78 1.258 . S
N71 Co62 2.057 . S
N71 C72 1.316 . S
N71 C73 1.375 . S
C72 N71 1.316 . S
C72 N74 1.347 1_556 S
C72 H83 0.931 . S
C73 N71 1.375 . S
C73 C75 1.347 1_556 S
C73 H82 0.930 . S
N74 C72 1.347 1_554 S
N74 C75 1.375 . S
C75 C73 1.347 1_554 S
C75 N74 1.375 . S
C75 H89 0.932 . S
C76 O79 1.256 . S
C76 O80 1.255 . S
O77 Co60 2.021 . S
O77 C70 1.259 . S
O78 Co62 2.117 . S
O78 C70 1.258 . S
O79 Co62 2.020 . S
O79 C76 1.256 . S
O80 Co60 2.062 . S
O80 C76 1.255 . S
O81 C61 1.259 . S
O81 Co62 2.021 . S
H82 C73 0.930 . S
H83 C72 0.931 . S
O84 Co60 2.117 . S
O84 C61 1.258 . S
O85 Co60 2.020 . S
O85 C87 1.256 . S
O86 Co62 2.062 . S
O86 C87 1.255 . S
C87 O85 1.256 . S
C87 O86 1.255 . S
H88 C67 0.931 1_455 S
H89 C75 0.932 . S
Co90 N95 2.057 . S
Co90 O107 2.021 . S
Co90 O110 2.062 . S
Co90 O114 2.117 . S
Co90 O115 2.020 . S
C91 O111 1.259 . S
C91 O114 1.258 . S
Co92 N101 2.057 . S
Co92 O108 2.117 . S
Co92 O109 2.020 . S
Co92 O111 2.021 . S
Co92 O116 2.062 . S
C93 N95 1.316 . S
C93 N96 1.347 . S
C93 H98 0.931 . S
C94 N95 1.375 . S
C94 C97 1.350 . S
C94 H99 0.930 . S
N95 Co90 2.057 . S
N95 C93 1.316 . S
N95 C94 1.375 . S
N96 C93 1.347 . S
N96 C97 1.373 . S
C97 C94 1.350 . S
C97 N96 1.373 . S
C97 H118 0.942 . S
H98 C93 0.931 . S
H99 C94 0.930 . S
C100 O107 1.259 . S
C100 O108 1.258 . S
N101 Co92 2.057 . S
N101 C102 1.316 . S
N101 C103 1.375 . S
C102 N101 1.316 . S
C102 N104 1.347 . S
C102 H113 0.931 . S
C103 N101 1.375 . S
C103 C105 1.350 . S
C103 H112 0.930 . S
N104 C102 1.347 . S
N104 C105 1.373 . S
C105 C103 1.350 . S
C105 N104 1.373 . S
C105 H119 0.931 . S
C106 O109 1.256 . S
C106 O110 1.255 . S
O107 Co90 2.021 . S
O107 C100 1.259 . S
O108 Co92 2.117 . S
O108 C100 1.258 . S
O109 Co92 2.020 . S
O109 C106 1.256 . S
O110 Co90 2.062 . S
O110 C106 1.255 . S
O111 C91 1.259 . S
O111 Co92 2.021 . S
H112 C103 0.930 . S
H113 C102 0.931 . S
O114 Co90 2.117 . S
O114 C91 1.258 . S
O115 Co90 2.020 . S
O115 C117 1.256 . S
O116 Co92 2.062 . S
O116 C117 1.255 . S
C117 O115 1.256 . S
C117 O116 1.255 . S
H118 C97 0.942 . S
H119 C105 0.931 . S
Co120 N125 2.057 . S
Co120 O137 2.021 . S
Co120 O140 2.062 . S
Co120 O144 2.117 . S
Co120 O145 2.020 . S
C121 O141 1.259 . S
C121 O144 1.258 . S
Co122 N131 2.057 . S
Co122 O138 2.117 . S
Co122 O139 2.020 . S
Co122 O141 2.021 . S
Co122 O146 2.062 . S
C123 N125 1.316 . S
C123 N126 1.347 . S
C123 H128 0.931 . S
C124 N125 1.375 . S
C124 C127 1.350 . S
C124 H129 0.930 . S
N125 Co120 2.057 . S
N125 C123 1.316 . S
N125 C124 1.375 . S
N126 C123 1.347 . S
N126 C127 1.373 . S
C127 C124 1.350 . S
C127 N126 1.373 . S
C127 H148 0.931 . S
H128 C123 0.931 . S
H129 C124 0.930 . S
C130 O137 1.259 . S
C130 O138 1.258 . S
N131 Co122 2.057 . S
N131 C132 1.316 . S
N131 C133 1.375 . S
C132 N131 1.316 . S
C132 N134 1.347 . S
C132 H143 0.931 . S
C133 N131 1.375 . S
C133 C135 1.350 . S
C133 H142 0.930 . S
N134 C132 1.347 . S
N134 C135 1.373 . S
C135 C133 1.350 . S
C135 N134 1.373 . S
C135 H149 0.931 . S
C136 O139 1.256 . S
C136 O140 1.255 . S
O137 Co120 2.021 . S
O137 C130 1.259 . S
O138 Co122 2.117 . S
O138 C130 1.258 . S
O139 Co122 2.020 . S
O139 C136 1.256 . S
O140 Co120 2.062 . S
O140 C136 1.255 . S
O141 C121 1.259 . S
O141 Co122 2.021 . S
H142 C133 0.930 . S
H143 C132 0.931 . S
O144 Co120 2.117 . S
O144 C121 1.258 . S
O145 Co120 2.020 . S
O145 C147 1.256 . S
O146 Co122 2.062 . S
O146 C147 1.255 . S
C147 O145 1.256 . S
C147 O146 1.255 . S
H148 C127 0.931 . S
H149 C135 0.931 . S
Co150 N155 2.057 . S
Co150 O167 2.021 . S
Co150 O170 2.062 . S
Co150 O174 2.117 . S
Co150 O175 2.020 . S
C151 O171 1.259 . S
C151 O174 1.258 . S
Co152 N161 2.057 1_556 S
Co152 O168 2.117 . S
Co152 O169 2.020 . S
Co152 O171 2.021 . S
Co152 O176 2.062 1_556 S
C153 N155 1.316 . S
C153 N156 1.347 . S
C153 H158 0.931 . S
C154 N155 1.375 . S
C154 C157 1.350 . S
C154 H159 0.930 . S
N155 Co150 2.057 . S
N155 C153 1.316 . S
N155 C154 1.375 . S
N156 C153 1.347 . S
N156 C157 1.373 . S
C157 C154 1.350 . S
C157 N156 1.373 . S
C157 H178 0.940 . S
H158 C153 0.931 . S
H159 C154 0.930 . S
C160 O167 1.259 . S
C160 O168 1.258 . S
N161 Co152 2.057 1_554 S
N161 C162 1.316 . S
N161 C163 1.375 . S
C162 N161 1.316 . S
C162 N164 1.347 . S
C162 H173 0.931 . S
C163 N161 1.375 . S
C163 C165 1.350 . S
C163 H172 0.930 . S
N164 C162 1.347 . S
N164 C165 1.373 . S
C165 C163 1.350 . S
C165 N164 1.373 . S
C165 H179 0.931 . S
C166 O169 1.256 . S
C166 O170 1.255 . S
O167 Co150 2.021 . S
O167 C160 1.259 . S
O168 Co152 2.117 . S
O168 C160 1.258 . S
O169 Co152 2.020 . S
O169 C166 1.256 . S
O170 Co150 2.062 . S
O170 C166 1.255 . S
O171 C151 1.259 . S
O171 Co152 2.021 . S
H172 C163 0.930 . S
H173 C162 0.931 . S
O174 Co150 2.117 . S
O174 C151 1.258 . S
O175 Co150 2.020 . S
O175 C177 1.256 1_556 S
O176 Co152 2.062 1_554 S
O176 C177 1.255 . S
C177 O175 1.256 1_554 S
C177 O176 1.255 . S
H178 C157 0.940 . S
H179 C165 0.931 . S
Co180 N185 2.057 . S
Co180 O197 2.021 . S
Co180 O200 2.062 . S
Co180 O204 2.117 . S
Co180 O205 2.020 . S
C181 O201 1.259 . S
C181 O204 1.258 . S
Co182 N191 2.057 . S
Co182 O198 2.117 . S
Co182 O199 2.020 . S
Co182 O201 2.021 . S
Co182 O206 2.062 . S
C183 N185 1.316 . S
C183 N186 1.347 . S
C183 H188 0.931 . S
C184 N185 1.375 . S
C184 C187 1.350 . S
C184 H189 0.930 . S
N185 Co180 2.057 . S
N185 C183 1.316 . S
N185 C184 1.375 . S
N186 C183 1.347 . S
N186 C187 1.373 . S
C187 C184 1.350 . S
C187 N186 1.373 . S
C187 H208 0.931 1_655 S
H188 C183 0.931 . S
H189 C184 0.930 . S
C190 O197 1.259 . S
C190 O198 1.258 . S
N191 Co182 2.057 . S
N191 C192 1.316 . S
N191 C193 1.375 . S
C192 N191 1.316 . S
C192 N194 1.347 . S
C192 H203 0.931 . S
C193 N191 1.375 . S
C193 C195 1.350 . S
C193 H202 0.930 . S
N194 C192 1.347 . S
N194 C195 1.373 . S
C195 C193 1.350 . S
C195 N194 1.373 . S
C195 H209 0.931 . S
C196 O199 1.256 . S
C196 O200 1.255 . S
O197 Co180 2.021 . S
O197 C190 1.259 . S
O198 Co182 2.117 . S
O198 C190 1.258 . S
O199 Co182 2.020 . S
O199 C196 1.256 . S
O200 Co180 2.062 . S
O200 C196 1.255 . S
O201 C181 1.259 . S
O201 Co182 2.021 . S
H202 C193 0.930 . S
H203 C192 0.931 . S
O204 Co180 2.117 . S
O204 C181 1.258 . S
O205 Co180 2.020 . S
O205 C207 1.256 . S
O206 Co182 2.062 . S
O206 C207 1.255 . S
C207 O205 1.256 . S
C207 O206 1.255 . S
H208 C187 0.931 1_455 S
H209 C195 0.931 . S
Co210 N215 2.057 . S
Co210 O227 2.021 . S
Co210 O230 2.062 . S
Co210 O234 2.117 . S
Co210 O235 2.020 . S
C211 O231 1.259 . S
C211 O234 1.258 . S
Co212 N221 2.057 . S
Co212 O228 2.117 . S
Co212 O229 2.020 . S
Co212 O231 2.021 . S
Co212 O236 2.062 . S
C213 N215 1.316 . S
C213 N216 1.347 . S
C213 H218 0.931 . S
C214 N215 1.375 . S
C214 C217 1.350 . S
C214 H219 0.930 . S
N215 Co210 2.057 . S
N215 C213 1.316 . S
N215 C214 1.375 . S
N216 C213 1.347 . S
N216 C217 1.373 . S
C217 C214 1.350 . S
C217 N216 1.373 . S
C217 H238 0.931 . S
H218 C213 0.931 . S
H219 C214 0.930 . S
C220 O227 1.259 . S
C220 O228 1.258 . S
N221 Co212 2.057 . S
N221 C222 1.316 . S
N221 C223 1.375 . S
C222 N221 1.316 . S
C222 N224 1.347 . S
C222 H233 0.931 . S
C223 N221 1.375 . S
C223 C225 1.350 . S
C223 H232 0.930 . S
N224 C222 1.347 . S
N224 C225 1.373 . S
C225 C223 1.350 . S
C225 N224 1.373 . S
C225 H239 0.931 . S
C226 O229 1.256 . S
C226 O230 1.255 . S
O227 Co210 2.021 . S
O227 C220 1.259 . S
O228 Co212 2.117 . S
O228 C220 1.258 . S
O229 Co212 2.020 . S
O229 C226 1.256 . S
O230 Co210 2.062 . S
O230 C226 1.255 . S
O231 C211 1.259 . S
O231 Co212 2.021 . S
H232 C223 0.930 . S
H233 C222 0.931 . S
O234 Co210 2.117 . S
O234 C211 1.258 . S
O235 Co210 2.020 . S
O235 C237 1.256 . S
O236 Co212 2.062 . S
O236 C237 1.255 . S
C237 O235 1.256 . S
C237 O236 1.255 . S
H238 C217 0.931 . S
H239 C225 0.931 . S
Co240 N245 2.057 . S
Co240 O257 2.021 . S
Co240 O260 2.062 . S
Co240 O264 2.117 . S
Co240 O265 2.020 . S
C241 O261 1.259 . S
C241 O264 1.258 . S
Co242 N251 2.057 1_554 S
Co242 O258 2.117 . S
Co242 O259 2.020 . S
Co242 O261 2.021 . S
Co242 O266 2.047 1_554 S
C243 N245 1.316 . S
C243 N246 1.347 . S
C243 H248 0.931 . S
C244 N245 1.375 . S
C244 C247 1.350 . S
C244 H249 0.930 . S
N245 Co240 2.057 . S
N245 C243 1.316 . S
N245 C244 1.375 . S
N246 C243 1.347 . S
N246 C247 1.373 . S
C247 C244 1.350 . S
C247 N246 1.373 . S
C247 H268 0.931 . S
H248 C243 0.931 . S
H249 C244 0.930 . S
C250 O257 1.259 . S
C250 O258 1.258 . S
N251 Co242 2.057 1_556 S
N251 C252 1.316 . S
N251 C253 1.375 . S
C252 N251 1.316 . S
C252 N254 1.347 . S
C252 H263 0.931 . S
C253 N251 1.375 . S
C253 C255 1.350 . S
C253 H262 0.930 . S
N254 C252 1.347 . S
N254 C255 1.373 . S
C255 C253 1.350 . S
C255 N254 1.373 . S
C255 H269 0.931 . S
C256 O259 1.256 . S
C256 O260 1.255 . S
O257 Co240 2.021 . S
O257 C250 1.259 . S
O258 Co242 2.117 . S
O258 C250 1.258 . S
O259 Co242 2.020 . S
O259 C256 1.256 . S
O260 Co240 2.062 . S
O260 C256 1.255 . S
O261 C241 1.259 . S
O261 Co242 2.021 . S
H262 C253 0.930 . S
H263 C252 0.931 . S
O264 Co240 2.117 . S
O264 C241 1.258 . S
O265 Co240 2.020 . S
O265 C267 1.256 . S
O266 Co242 2.047 1_556 S
O266 C267 1.249 1_556 S
C267 O265 1.256 . S
C267 O266 1.249 1_554 S
H268 C247 0.931 . S
H269 C255 0.931 . S
Co270 N275 2.057 . S
Co270 O287 2.021 . S
Co270 O290 2.062 . S
Co270 O294 2.117 . S
Co270 O295 2.020 . S
C271 O291 1.259 . S
C271 O294 1.258 . S
Co272 N281 2.057 . S
Co272 O288 2.117 . S
Co272 O289 2.020 . S
Co272 O291 2.021 . S
Co272 O296 2.062 . S
C273 N275 1.316 . S
C273 N276 1.347 . S
C273 H278 0.931 . S
C274 N275 1.375 . S
C274 C277 1.350 . S
C274 H279 0.930 . S
N275 Co270 2.057 . S
N275 C273 1.316 . S
N275 C274 1.375 . S
N276 C273 1.347 . S
N276 C277 1.373 . S
C277 C274 1.350 . S
C277 N276 1.373 . S
C277 H298 0.931 . S
H278 C273 0.931 . S
H279 C274 0.930 . S
C280 O287 1.259 . S
C280 O288 1.258 . S
N281 Co272 2.057 . S
N281 C282 1.316 . S
N281 C283 1.375 . S
C282 N281 1.316 . S
C282 N284 1.347 . S
C282 H293 0.931 . S
C283 N281 1.375 . S
C283 C285 1.350 . S
C283 H292 0.930 . S
N284 C282 1.347 . S
N284 C285 1.373 . S
C285 C283 1.350 . S
C285 N284 1.373 . S
C285 H299 0.931 . S
C286 O289 1.256 . S
C286 O290 1.255 . S
O287 Co270 2.021 . S
O287 C280 1.259 . S
O288 Co272 2.117 . S
O288 C280 1.258 . S
O289 Co272 2.020 . S
O289 C286 1.256 . S
O290 Co270 2.062 . S
O290 C286 1.255 . S
O291 C271 1.259 . S
O291 Co272 2.021 . S
H292 C283 0.930 . S
H293 C282 0.931 . S
O294 Co270 2.117 . S
O294 C271 1.258 . S
O295 Co270 2.020 . S
O295 C297 1.256 . S
O296 Co272 2.062 . S
O296 C297 1.255 . S
C297 O295 1.256 . S
C297 O296 1.255 . S
H298 C277 0.931 . S
H299 C285 0.931 . S
Co300 N305 2.057 . S
Co300 O317 2.021 . S
Co300 O320 2.062 . S
Co300 O324 2.117 . S
Co300 O325 2.020 . S
C301 O321 1.259 . S
C301 O324 1.258 . S
Co302 N311 2.057 . S
Co302 O318 2.117 . S
Co302 O319 2.020 . S
Co302 O321 2.021 . S
Co302 O326 2.062 . S
C303 N305 1.316 . S
C303 N306 1.347 . S
C303 H308 0.931 . S
C304 N305 1.375 . S
C304 C307 1.350 . S
C304 H309 0.930 . S
N305 Co300 2.057 . S
N305 C303 1.316 . S
N305 C304 1.375 . S
N306 C303 1.347 . S
N306 C307 1.373 . S
C307 C304 1.350 . S
C307 N306 1.373 . S
C307 H328 0.931 1_545 S
H308 C303 0.931 . S
H309 C304 0.930 . S
C310 O317 1.259 . S
C310 O318 1.258 . S
N311 Co302 2.057 . S
N311 C312 1.316 . S
N311 C313 1.375 . S
C312 N311 1.316 . S
C312 N314 1.347 . S
C312 H323 0.931 . S
C313 N311 1.375 . S
C313 C315 1.350 . S
C313 H322 0.930 . S
N314 C312 1.347 . S
N314 C315 1.373 . S
C315 C313 1.350 . S
C315 N314 1.373 . S
C315 H329 0.931 . S
C316 O319 1.256 . S
C316 O320 1.255 . S
O317 Co300 2.021 . S
O317 C310 1.259 . S
O318 Co302 2.117 . S
O318 C310 1.258 . S
O319 Co302 2.020 . S
O319 C316 1.256 . S
O320 Co300 2.062 . S
O320 C316 1.255 . S
O321 C301 1.259 . S
O321 Co302 2.021 . S
H322 C313 0.930 . S
H323 C312 0.931 . S
O324 Co300 2.117 . S
O324 C301 1.258 . S
O325 Co300 2.020 . S
O325 C327 1.256 . S
O326 Co302 2.062 . S
O326 C327 1.255 . S
C327 O325 1.256 . S
C327 O326 1.255 . S
H328 C307 0.931 1_565 S
H329 C315 0.931 . S
Co330 N335 2.057 . S
Co330 O347 2.021 . S
Co330 O350 2.062 . S
Co330 O354 2.117 . S
Co330 O355 2.020 . S
C331 O351 1.259 . S
C331 O354 1.258 . S
Co332 N341 2.057 . S
Co332 O348 2.117 . S
Co332 O349 2.020 . S
Co332 O351 2.021 . S
Co332 O356 2.062 . S
C333 N335 1.316 1_556 S
C333 N336 1.347 . S
C333 H338 0.931 . S
C334 N335 1.375 1_556 S
C334 C337 1.350 . S
C334 H339 0.930 1_556 S
N335 Co330 2.057 . S
N335 C333 1.316 1_554 S
N335 C334 1.375 1_554 S
N336 C333 1.347 . S
N336 C337 1.373 . S
C337 C334 1.350 . S
C337 N336 1.373 . S
C337 H358 0.931 . S
H338 C333 0.931 . S
H339 C334 0.930 1_554 S
C340 O347 1.259 . S
C340 O348 1.258 . S
N341 Co332 2.057 . S
N341 C342 1.316 . S
N341 C343 1.375 . S
C342 N341 1.316 . S
C342 N344 1.347 . S
C342 H353 0.931 . S
C343 N341 1.375 . S
C343 C345 1.350 . S
C343 H352 0.930 . S
N344 C342 1.347 . S
N344 C345 1.373 . S
C345 C343 1.350 . S
C345 N344 1.373 . S
C345 H359 0.931 . S
C346 O349 1.256 . S
C346 O350 1.255 . S
O347 Co330 2.021 . S
O347 C340 1.259 . S
O348 Co332 2.117 . S
O348 C340 1.258 . S
O349 Co332 2.020 . S
O349 C346 1.256 . S
O350 Co330 2.062 . S
O350 C346 1.255 . S
O351 C331 1.259 . S
O351 Co332 2.021 . S
H352 C343 0.930 . S
H353 C342 0.931 . S
O354 Co330 2.117 . S
O354 C331 1.258 . S
O355 Co330 2.020 . S
O355 C357 1.256 . S
O356 Co332 2.062 . S
O356 C357 1.255 . S
C357 O355 1.256 . S
C357 O356 1.255 . S
H358 C337 0.931 . S
H359 C345 0.931 . S
H360 C372 0.930 . S
H361 C374 0.930 . S
H362 C375 0.930 . S
H363 C379 0.959 . S
H364 C379 0.959 . S
H365 C379 0.961 . S
H366 C380 0.960 . S
H367 C380 0.961 . S
H368 C380 0.959 . S
H369 C383 0.929 . S
H370 C384 0.931 . S
H371 C386 0.930 . S
C372 H360 0.930 . S
C372 C373 1.399 . S
C372 C377 1.399 . S
C373 C372 1.399 . S
C373 C374 1.376 . S
C374 H361 0.930 . S
C374 C373 1.376 . S
C374 C375 1.388 . S
C375 H362 0.930 . S
C375 C374 1.388 . S
C375 C376 1.390 . S
C376 C375 1.390 . S
C376 C377 1.394 . S
C376 C382 1.465 . S
C377 C372 1.399 . S
C377 C376 1.394 . S
C377 C378 1.516 . S
C378 C377 1.516 . S
C378 C379 1.502 . S
C378 C380 1.561 . S
C378 C381 1.526 . S
C379 H363 0.959 . S
C379 H364 0.959 . S
C379 H365 0.961 . S
C379 C378 1.502 . S
C380 H366 0.960 . S
C380 H367 0.961 . S
C380 H368 0.959 . S
C380 C378 1.561 . S
C381 C378 1.526 . S
C381 C382 1.396 . S
C381 C386 1.390 . S
C382 C376 1.465 . S
C382 C381 1.396 . S
C382 C383 1.399 . S
C383 H369 0.929 . S
C383 C382 1.399 . S
C383 C384 1.385 . S
C384 H370 0.931 . S
C384 C383 1.385 . S
C384 C385 1.389 . S
C385 C384 1.389 . S
C385 C386 1.387 . S
C386 H371 0.930 . S
C386 C381 1.390 . S
C386 C385 1.387 . S
H387 C399 0.930 . S
H388 C401 0.930 . S
H389 C402 0.930 . S
H390 C406 0.959 . S
H391 C406 0.959 . S
H392 C406 0.961 . S
H393 C407 0.960 . S
H394 C407 0.961 . S
H395 C407 0.959 . S
H396 C410 0.929 . S
H397 C411 0.931 . S
H398 C413 0.930 . S
C399 H387 0.930 . S
C399 C400 1.399 . S
C399 C404 1.399 . S
C400 C399 1.399 . S
C400 C401 1.376 . S
C401 H388 0.930 . S
C401 C400 1.376 . S
C401 C402 1.388 . S
C402 H389 0.930 . S
C402 C401 1.388 . S
C402 C403 1.390 . S
C403 C402 1.390 . S
C403 C404 1.394 . S
C403 C409 1.465 . S
C404 C399 1.399 . S
C404 C403 1.394 . S
C404 C405 1.516 . S
C405 C404 1.516 . S
C405 C406 1.502 . S
C405 C407 1.561 . S
C405 C408 1.526 . S
C406 H390 0.959 . S
C406 H391 0.959 . S
C406 H392 0.961 . S
C406 C405 1.502 . S
C407 H393 0.960 . S
C407 H394 0.961 . S
C407 H395 0.959 . S
C407 C405 1.561 . S
C408 C405 1.526 . S
C408 C409 1.396 . S
C408 C413 1.390 . S
C409 C403 1.465 . S
C409 C408 1.396 . S
C409 C410 1.399 . S
C410 H396 0.929 . S
C410 C409 1.399 . S
C410 C411 1.385 . S
C411 H397 0.931 . S
C411 C410 1.385 . S
C411 C412 1.389 . S
C412 C411 1.389 . S
C412 C413 1.387 . S
C413 H398 0.930 . S
C413 C408 1.390 . S
C413 C412 1.387 . S
H414 C426 0.930 . S
H415 C428 0.930 . S
H416 C429 0.930 . S
H417 C433 0.959 . S
H418 C433 0.959 . S
H419 C433 0.961 . S
H420 C434 0.960 . S
H421 C434 0.961 . S
H422 C434 0.959 . S
H423 C437 0.929 . S
H424 C438 0.931 . S
H425 C440 0.930 . S
C426 H414 0.930 . S
C426 C427 1.399 . S
C426 C431 1.399 . S
C427 C426 1.399 . S
C427 C428 1.376 . S
C428 H415 0.930 . S
C428 C427 1.376 . S
C428 C429 1.388 . S
C429 H416 0.930 . S
C429 C428 1.388 . S
C429 C430 1.390 . S
C430 C429 1.390 . S
C430 C431 1.394 . S
C430 C436 1.465 . S
C431 C426 1.399 . S
C431 C430 1.394 . S
C431 C432 1.516 . S
C432 C431 1.516 . S
C432 C433 1.502 . S
C432 C434 1.561 . S
C432 C435 1.526 . S
C433 H417 0.959 . S
C433 H418 0.959 . S
C433 H419 0.961 . S
C433 C432 1.502 . S
C434 H420 0.960 . S
C434 H421 0.961 . S
C434 H422 0.959 . S
C434 C432 1.561 . S
C435 C432 1.526 . S
C435 C436 1.396 . S
C435 C440 1.390 . S
C436 C430 1.465 . S
C436 C435 1.396 . S
C436 C437 1.399 . S
C437 H423 0.929 . S
C437 C436 1.399 . S
C437 C438 1.385 . S
C438 H424 0.931 . S
C438 C437 1.385 . S
C438 C439 1.389 . S
C439 C438 1.389 . S
C439 C440 1.387 . S
C440 H425 0.930 . S
C440 C435 1.390 . S
C440 C439 1.387 . S
H441 C453 0.930 . S
H442 C455 0.930 . S
H443 C456 0.930 . S
H444 C460 0.959 . S
H445 C460 0.959 . S
H446 C460 0.961 . S
H447 C461 0.960 . S
H448 C461 0.961 . S
H449 C461 0.959 . S
H450 C464 0.929 . S
H451 C465 0.931 . S
H452 C467 0.930 . S
C453 H441 0.930 . S
C453 C454 1.399 . S
C453 C458 1.399 . S
C454 C453 1.399 . S
C454 C455 1.376 . S
C455 H442 0.930 . S
C455 C454 1.376 . S
C455 C456 1.388 . S
C456 H443 0.930 . S
C456 C455 1.388 . S
C456 C457 1.390 . S
C457 C456 1.390 . S
C457 C458 1.394 . S
C457 C463 1.465 . S
C458 C453 1.399 . S
C458 C457 1.394 . S
C458 C459 1.516 . S
C459 C458 1.516 . S
C459 C460 1.502 . S
C459 C461 1.561 . S
C459 C462 1.526 . S
C460 H444 0.959 . S
C460 H445 0.959 . S
C460 H446 0.961 . S
C460 C459 1.502 . S
C461 H447 0.960 . S
C461 H448 0.961 . S
C461 H449 0.959 . S
C461 C459 1.561 . S
C462 C459 1.526 . S
C462 C463 1.396 . S
C462 C467 1.390 . S
C463 C457 1.465 . S
C463 C462 1.396 . S
C463 C464 1.399 . S
C464 H450 0.929 . S
C464 C463 1.399 . S
C464 C465 1.385 . S
C465 H451 0.931 . S
C465 C464 1.385 . S
C465 C466 1.389 . S
C466 C465 1.389 . S
C466 C467 1.387 . S
C467 H452 0.930 . S
C467 C462 1.390 . S
C467 C466 1.387 . S
H468 C480 0.930 . S
H469 C482 0.930 . S
H470 C483 0.930 . S
H471 C487 0.959 . S
H472 C487 0.959 . S
H473 C487 0.961 . S
H474 C488 0.960 . S
H475 C488 0.961 . S
H476 C488 0.959 . S
H477 C491 0.929 . S
H478 C492 0.931 . S
H479 C494 0.930 . S
C480 H468 0.930 . S
C480 C481 1.399 . S
C480 C485 1.399 . S
C481 C480 1.399 . S
C481 C482 1.376 . S
C482 H469 0.930 . S
C482 C481 1.376 . S
C482 C483 1.388 . S
C483 H470 0.930 . S
C483 C482 1.388 . S
C483 C484 1.390 . S
C484 C483 1.390 . S
C484 C485 1.394 . S
C484 C490 1.465 . S
C485 C480 1.399 . S
C485 C484 1.394 . S
C485 C486 1.516 . S
C486 C485 1.516 . S
C486 C487 1.502 . S
C486 C488 1.561 . S
C486 C489 1.526 . S
C487 H471 0.959 . S
C487 H472 0.959 . S
C487 H473 0.961 . S
C487 C486 1.502 . S
C488 H474 0.960 . S
C488 H475 0.961 . S
C488 H476 0.959 . S
C488 C486 1.561 . S
C489 C486 1.526 . S
C489 C490 1.396 . S
C489 C494 1.390 . S
C490 C484 1.465 . S
C490 C489 1.396 . S
C490 C491 1.399 . S
C491 H477 0.929 . S
C491 C490 1.399 . S
C491 C492 1.385 . S
C492 H478 0.931 . S
C492 C491 1.385 . S
C492 C493 1.389 . S
C493 C492 1.389 . S
C493 C494 1.387 . S
C494 H479 0.930 . S
C494 C489 1.390 . S
C494 C493 1.387 . S
H495 C507 0.930 . S
H496 C509 0.930 . S
H497 C510 0.930 . S
H498 C514 0.959 . S
H499 C514 0.959 . S
H500 C514 0.961 . S
H501 C515 0.960 . S
H502 C515 0.961 . S
H503 C515 0.959 . S
H504 C518 0.929 . S
H505 C519 0.931 . S
H506 C521 0.930 . S
C507 H495 0.930 . S
C507 C508 1.399 . S
C507 C512 1.399 . S
C508 C507 1.399 . S
C508 C509 1.376 . S
C509 H496 0.930 . S
C509 C508 1.376 . S
C509 C510 1.388 . S
C510 H497 0.930 . S
C510 C509 1.388 . S
C510 C511 1.390 . S
C511 C510 1.390 . S
C511 C512 1.394 . S
C511 C517 1.465 . S
C512 C507 1.399 . S
C512 C511 1.394 . S
C512 C513 1.516 . S
C513 C512 1.516 . S
C513 C514 1.502 . S
C513 C515 1.561 . S
C513 C516 1.526 . S
C514 H498 0.959 . S
C514 H499 0.959 . S
C514 H500 0.961 . S
C514 C513 1.502 . S
C515 H501 0.960 . S
C515 H502 0.961 . S
C515 H503 0.959 . S
C515 C513 1.561 . S
C516 C513 1.526 . S
C516 C517 1.396 . S
C516 C521 1.390 . S
C517 C511 1.465 . S
C517 C516 1.396 . S
C517 C518 1.399 . S
C518 H504 0.929 . S
C518 C517 1.399 . S
C518 C519 1.385 . S
C519 H505 0.931 . S
C519 C518 1.385 . S
C519 C520 1.389 . S
C520 C519 1.389 . S
C520 C521 1.387 . S
C521 H506 0.930 . S
C521 C516 1.390 . S
C521 C520 1.387 . S
H522 C534 0.930 . S
H523 C536 0.930 . S
H524 C537 0.930 . S
H525 C541 0.959 . S
H526 C541 0.959 . S
H527 C541 0.961 1_556 S
H528 C542 0.960 . S
H529 C542 0.961 . S
H530 C542 0.959 . S
H531 C545 0.936 . S
H532 C546 0.931 . S
H533 C548 0.930 . S
C534 H522 0.930 . S
C534 C535 1.399 . S
C534 C539 1.399 . S
C535 C534 1.399 . S
C535 C536 1.376 . S
C536 H523 0.930 . S
C536 C535 1.376 . S
C536 C537 1.388 . S
C537 H524 0.930 . S
C537 C536 1.388 . S
C537 C538 1.390 . S
C538 C537 1.390 . S
C538 C539 1.394 . S
C538 C544 1.465 . S
C539 C534 1.399 . S
C539 C538 1.394 . S
C539 C540 1.516 . S
C540 C539 1.516 . S
C540 C541 1.502 1_556 S
C540 C542 1.561 . S
C540 C543 1.526 1_556 S
C541 H525 0.959 . S
C541 H526 0.959 . S
C541 H527 0.961 1_554 S
C541 C540 1.502 1_554 S
C542 H528 0.960 . S
C542 H529 0.961 . S
C542 H530 0.959 . S
C542 C540 1.561 . S
C543 C540 1.526 1_554 S
C543 C544 1.396 1_554 S
C543 C548 1.390 . S
C544 C538 1.465 . S
C544 C543 1.396 1_556 S
C544 C545 1.402 . S
C545 H531 0.936 . S
C545 C544 1.402 . S
C545 C546 1.375 1_556 S
C546 H532 0.931 . S
C546 C545 1.375 1_554 S
C546 C547 1.389 . S
C547 C546 1.389 . S
C547 C548 1.387 . S
C548 H533 0.930 . S
C548 C543 1.390 . S
C548 C547 1.387 . S
H549 C561 0.930 . S
H550 C563 0.930 . S
H551 C564 0.930 . S
H552 C568 0.959 . S
H553 C568 0.959 . S
H554 C568 0.961 . S
H555 C569 0.960 . S
H556 C569 0.961 . S
H557 C569 0.959 . S
H558 C572 0.929 . S
H559 C573 0.931 . S
H560 C575 0.930 . S
C561 H549 0.930 . S
C561 C562 1.399 . S
C561 C566 1.399 . S
C562 C561 1.399 . S
C562 C563 1.376 . S
C563 H550 0.930 . S
C563 C562 1.376 . S
C563 C564 1.388 . S
C564 H551 0.930 . S
C564 C563 1.388 . S
C564 C565 1.390 . S
C565 C564 1.390 . S
C565 C566 1.394 . S
C565 C571 1.465 . S
C566 C561 1.399 . S
C566 C565 1.394 . S
C566 C567 1.516 . S
C567 C566 1.516 . S
C567 C568 1.502 . S
C567 C569 1.561 . S
C567 C570 1.526 . S
C568 H552 0.959 . S
C568 H553 0.959 . S
C568 H554 0.961 . S
C568 C567 1.502 . S
C569 H555 0.960 . S
C569 H556 0.961 . S
C569 H557 0.959 . S
C569 C567 1.561 . S
C570 C567 1.526 . S
C570 C571 1.396 . S
C570 C575 1.390 . S
C571 C565 1.465 . S
C571 C570 1.396 . S
C571 C572 1.399 . S
C572 H558 0.929 . S
C572 C571 1.399 . S
C572 C573 1.385 . S
C573 H559 0.931 . S
C573 C572 1.385 . S
C573 C574 1.389 . S
C574 C573 1.389 . S
C574 C575 1.387 . S
C575 H560 0.930 . S
C575 C570 1.390 . S
C575 C574 1.387 . S
H576 C588 0.930 . S
H577 C590 0.930 . S
H578 C591 0.930 . S
H579 C595 0.959 . S
H580 C595 0.959 . S
H581 C595 0.961 . S
H582 C596 0.960 . S
H583 C596 0.961 . S
H584 C596 0.959 . S
H585 C599 0.929 . S
H586 C600 0.931 . S
H587 C602 0.930 . S
C588 H576 0.930 . S
C588 C589 1.399 . S
C588 C593 1.399 . S
C589 C588 1.399 . S
C589 C590 1.376 . S
C590 H577 0.930 . S
C590 C589 1.376 . S
C590 C591 1.388 . S
C591 H578 0.930 . S
C591 C590 1.388 . S
C591 C592 1.390 . S
C592 C591 1.390 . S
C592 C593 1.394 . S
C592 C598 1.465 . S
C593 C588 1.399 . S
C593 C592 1.394 . S
C593 C594 1.516 . S
C594 C593 1.516 . S
C594 C595 1.502 . S
C594 C596 1.561 . S
C594 C597 1.526 . S
C595 H579 0.959 . S
C595 H580 0.959 . S
C595 H581 0.961 . S
C595 C594 1.502 . S
C596 H582 0.960 . S
C596 H583 0.961 . S
C596 H584 0.959 . S
C596 C594 1.561 . S
C597 C594 1.526 . S
C597 C598 1.396 . S
C597 C602 1.390 . S
C598 C592 1.465 . S
C598 C597 1.396 . S
C598 C599 1.399 . S
C599 H585 0.929 . S
C599 C598 1.399 . S
C599 C600 1.385 . S
C600 H586 0.931 . S
C600 C599 1.385 . S
C600 C601 1.389 . S
C601 C600 1.389 . S
C601 C602 1.387 . S
C602 H587 0.930 . S
C602 C597 1.390 . S
C602 C601 1.387 . S
H603 C615 0.930 . S
H604 C617 0.930 . S
H605 C618 0.930 . S
H606 C622 0.959 . S
H607 C622 0.959 . S
H608 C622 0.961 . S
H609 C623 0.960 . S
H610 C623 0.961 . S
H611 C623 0.959 . S
H612 C626 0.929 . S
H613 C627 0.931 . S
H614 C629 0.930 . S
C615 H603 0.930 . S
C615 C616 1.399 . S
C615 C620 1.399 1_556 S
C616 C615 1.399 . S
C616 C617 1.376 . S
C617 H604 0.930 . S
C617 C616 1.376 . S
C617 C618 1.388 . S
C618 H605 0.930 . S
C618 C617 1.388 . S
C618 C619 1.390 1_556 S
C619 C618 1.390 1_554 S
C619 C620 1.394 . S
C619 C625 1.465 . S
C620 C615 1.399 1_554 S
C620 C619 1.394 . S
C620 C621 1.516 . S
C621 C620 1.516 . S
C621 C622 1.502 . S
C621 C623 1.561 . S
C621 C624 1.526 . S
C622 H606 0.959 . S
C622 H607 0.959 . S
C622 H608 0.961 . S
C622 C621 1.502 . S
C623 H609 0.960 . S
C623 H610 0.961 . S
C623 H611 0.959 . S
C623 C621 1.561 . S
C624 C621 1.526 . S
C624 C625 1.396 . S
C624 C629 1.390 . S
C625 C619 1.465 . S
C625 C624 1.396 . S
C625 C626 1.399 . S
C626 H612 0.929 . S
C626 C625 1.399 . S
C626 C627 1.385 . S
C627 H613 0.931 . S
C627 C626 1.385 . S
C627 C628 1.389 . S
C628 C627 1.389 . S
C628 C629 1.387 . S
C629 H614 0.930 . S
C629 C624 1.390 . S
C629 C628 1.387 . S
H630 C642 0.930 . S
H631 C644 0.930 . S
H632 C645 0.930 . S
H633 C649 0.959 . S
H634 C649 0.959 . S
H635 C649 0.961 . S
H636 C650 0.960 . S
H637 C650 0.961 . S
H638 C650 0.959 . S
H639 C653 0.929 . S
H640 C654 0.931 . S
H641 C656 0.930 . S
C642 H630 0.930 . S
C642 C643 1.399 . S
C642 C647 1.399 . S
C643 C642 1.399 . S
C643 C644 1.376 . S
C644 H631 0.930 . S
C644 C643 1.376 . S
C644 C645 1.388 . S
C645 H632 0.930 . S
C645 C644 1.388 . S
C645 C646 1.390 . S
C646 C645 1.390 . S
C646 C647 1.394 . S
C646 C652 1.465 . S
C647 C642 1.399 . S
C647 C646 1.394 . S
C647 C648 1.516 . S
C648 C647 1.516 . S
C648 C649 1.502 . S
C648 C650 1.561 . S
C648 C651 1.526 . S
C649 H633 0.959 . S
C649 H634 0.959 . S
C649 H635 0.961 . S
C649 C648 1.502 . S
C650 H636 0.960 . S
C650 H637 0.961 . S
C650 H638 0.959 . S
C650 C648 1.561 . S
C651 C648 1.526 . S
C651 C652 1.396 . S
C651 C656 1.390 . S
C652 C646 1.465 . S
C652 C651 1.396 . S
C652 C653 1.399 . S
C653 H639 0.929 . S
C653 C652 1.399 . S
C653 C654 1.385 . S
C654 H640 0.931 . S
C654 C653 1.385 . S
C654 C655 1.389 . S
C655 C654 1.389 . S
C655 C656 1.387 . S
C656 H641 0.930 . S
C656 C651 1.390 . S
C656 C655 1.387 . S
H657 C669 0.930 . S
H658 C671 0.930 . S
H659 C672 0.930 . S
H660 C676 0.959 . S
H661 C676 0.959 . S
H662 C676 0.961 . S
H663 C677 0.960 . S
H664 C677 0.961 . S
H665 C677 0.959 . S
H666 C680 0.929 . S
H667 C681 0.931 . S
H668 C683 0.930 . S
C669 H657 0.930 . S
C669 C670 1.399 . S
C669 C674 1.399 . S
C670 C669 1.399 . S
C670 C671 1.376 . S
C671 H658 0.930 . S
C671 C670 1.376 . S
C671 C672 1.388 . S
C672 H659 0.930 . S
C672 C671 1.388 . S
C672 C673 1.390 . S
C673 C672 1.390 . S
C673 C674 1.394 . S
C673 C679 1.465 . S
C674 C669 1.399 . S
C674 C673 1.394 . S
C674 C675 1.516 . S
C675 C674 1.516 . S
C675 C676 1.502 . S
C675 C677 1.561 . S
C675 C678 1.526 . S
C676 H660 0.959 . S
C676 H661 0.959 . S
C676 H662 0.961 . S
C676 C675 1.502 . S
C677 H663 0.960 . S
C677 H664 0.961 . S
C677 H665 0.959 . S
C677 C675 1.561 . S
C678 C675 1.526 . S
C678 C679 1.396 . S
C678 C683 1.390 . S
C679 C673 1.465 . S
C679 C678 1.396 . S
C679 C680 1.399 . S
C680 H666 0.929 . S
C680 C679 1.399 . S
C680 C681 1.385 . S
C681 H667 0.931 . S
C681 C680 1.385 . S
C681 C682 1.389 . S
C682 C681 1.389 . S
C682 C683 1.387 . S
C683 H668 0.930 . S
C683 C678 1.390 . S
C683 C682 1.387 . S
H684 C696 0.930 . S
H685 C698 0.930 . S
H686 C699 0.930 1_545 S
H687 C703 0.962 . S
H688 C703 0.948 1_554 S
H689 C703 0.964 . S
H690 C704 0.960 . S
H691 C704 0.961 1_554 S
H692 C704 0.959 . S
H693 C707 0.929 . S
H694 C708 0.931 . S
H695 C710 0.930 1_565 S
C696 H684 0.930 . S
C696 C697 1.399 . S
C696 C701 1.399 . S
C697 C696 1.399 . S
C697 C698 1.376 . S
C698 H685 0.930 . S
C698 C697 1.376 . S
C698 C699 1.388 . S
C699 H686 0.930 1_565 S
C699 C698 1.388 . S
C699 C700 1.390 . S
C700 C699 1.390 . S
C700 C701 1.394 . S
C700 C706 1.465 1_565 S
C701 C696 1.399 . S
C701 C700 1.394 . S
C701 C702 1.516 . S
C702 C701 1.516 . S
C702 C703 1.507 . S
C702 C704 1.561 . S
C702 C705 1.526 . S
C703 H687 0.962 . S
C703 H688 0.948 1_556 S
C703 H689 0.964 . S
C703 C702 1.507 . S
C704 H690 0.960 . S
C704 H691 0.961 1_556 S
C704 H692 0.959 . S
C704 C702 1.561 . S
C705 C702 1.526 . S
C705 C706 1.396 1_565 S
C705 C710 1.390 1_566 S
C706 C700 1.465 1_545 S
C706 C705 1.396 1_545 S
C706 C707 1.399 . S
C707 H693 0.929 . S
C707 C706 1.399 . S
C707 C708 1.385 . S
C708 H694 0.931 . S
C708 C707 1.385 . S
C708 C709 1.389 1_556 S
C709 C708 1.389 1_554 S
C709 C710 1.387 . S
C710 H695 0.930 1_545 S
C710 C705 1.390 1_544 S
C710 C709 1.387 . S
H711 C723 0.930 . S
H712 C725 0.930 . S
H713 C726 0.930 . S
H714 C730 0.959 . S
H715 C730 0.959 . S
H716 C730 0.961 . S
H717 C731 0.960 . S
H718 C731 0.961 . S
H719 C731 0.959 . S
H720 C734 0.929 . S
H721 C735 0.931 . S
H722 C737 0.930 . S
C723 H711 0.930 . S
C723 C724 1.399 . S
C723 C728 1.399 . S
C724 C723 1.399 . S
C724 C725 1.376 . S
C725 H712 0.930 . S
C725 C724 1.376 . S
C725 C726 1.388 . S
C726 H713 0.930 . S
C726 C725 1.388 . S
C726 C727 1.390 . S
C727 C726 1.390 . S
C727 C728 1.394 . S
C727 C733 1.465 . S
C728 C723 1.399 . S
C728 C727 1.394 . S
C728 C729 1.516 . S
C729 C728 1.516 . S
C729 C730 1.502 . S
C729 C731 1.561 . S
C729 C732 1.526 . S
C730 H714 0.959 . S
C730 H715 0.959 . S
C730 H716 0.961 . S
C730 C729 1.502 . S
C731 H717 0.960 . S
C731 H718 0.961 . S
C731 H719 0.959 . S
C731 C729 1.561 . S
C732 C729 1.526 . S
C732 C733 1.396 . S
C732 C737 1.390 . S
C733 C727 1.465 . S
C733 C732 1.396 . S
C733 C734 1.399 . S
C734 H720 0.929 . S
C734 C733 1.399 . S
C734 C735 1.385 . S
C735 H721 0.931 . S
C735 C734 1.385 . S
C735 C736 1.389 . S
C736 C735 1.389 . S
C736 C737 1.387 . S
C737 H722 0.930 . S
C737 C732 1.390 . S
C737 C736 1.387 . S
H738 C750 0.930 . S
H739 C752 0.930 . S
H740 C753 0.930 . S
H741 C757 0.959 . S
H742 C757 0.959 . S
H743 C757 0.961 . S
H744 C758 0.960 . S
H745 C758 0.961 . S
H746 C758 0.959 . S
H747 C761 0.929 . S
H748 C762 0.931 . S
H749 C764 0.930 . S
C750 H738 0.930 . S
C750 C751 1.399 . S
C750 C755 1.399 . S
C751 C750 1.399 . S
C751 C752 1.376 . S
C752 H739 0.930 . S
C752 C751 1.376 . S
C752 C753 1.388 . S
C753 H740 0.930 . S
C753 C752 1.388 . S
C753 C754 1.390 . S
C754 C753 1.390 . S
C754 C755 1.394 . S
C754 C760 1.465 . S
C755 C750 1.399 . S
C755 C754 1.394 . S
C755 C756 1.516 . S
C756 C755 1.516 . S
C756 C757 1.502 . S
C756 C758 1.561 . S
C756 C759 1.526 . S
C757 H741 0.959 . S
C757 H742 0.959 . S
C757 H743 0.961 . S
C757 C756 1.502 . S
C758 H744 0.960 . S
C758 H745 0.961 . S
C758 H746 0.959 . S
C758 C756 1.561 . S
C759 C756 1.526 . S
C759 C760 1.396 . S
C759 C764 1.390 1_455 S
C760 C754 1.465 . S
C760 C759 1.396 . S
C760 C761 1.399 1_455 S
C761 H747 0.929 . S
C761 C760 1.399 1_655 S
C761 C762 1.385 . S
C762 H748 0.931 . S
C762 C761 1.385 . S
C762 C763 1.389 . S
C763 C762 1.389 . S
C763 C764 1.387 . S
C764 H749 0.930 . S
C764 C759 1.390 1_655 S
C764 C763 1.387 . S
H765 C777 0.930 . S
H766 C779 0.930 . S
H767 C780 0.930 . S
H768 C784 0.959 . S
H769 C784 0.959 . S
H770 C784 0.961 . S
H771 C785 0.960 . S
H772 C785 0.961 . S
H773 C785 0.959 . S
H774 C788 0.929 . S
H775 C789 0.931 . S
H776 C791 0.930 . S
C777 H765 0.930 . S
C777 C778 1.399 . S
C777 C782 1.399 . S
C778 C777 1.399 . S
C778 C779 1.376 . S
C779 H766 0.930 . S
C779 C778 1.376 . S
C779 C780 1.388 . S
C780 H767 0.930 . S
C780 C779 1.388 . S
C780 C781 1.390 . S
C781 C780 1.390 . S
C781 C782 1.394 . S
C781 C787 1.465 1_554 S
C782 C777 1.399 . S
C782 C781 1.394 . S
C782 C783 1.516 1_565 S
C783 C782 1.516 1_545 S
C783 C784 1.502 . S
C783 C785 1.561 . S
C783 C786 1.526 1_554 S
C784 H768 0.959 . S
C784 H769 0.959 . S
C784 H770 0.961 . S
C784 C783 1.502 . S
C785 H771 0.960 . S
C785 H772 0.961 . S
C785 H773 0.959 . S
C785 C783 1.561 . S
C786 C783 1.526 1_556 S
C786 C787 1.396 1_545 S
C786 C791 1.390 . S
C787 C781 1.465 1_556 S
C787 C786 1.396 1_565 S
C787 C788 1.399 . S
C788 H774 0.929 . S
C788 C787 1.399 . S
C788 C789 1.385 1_565 S
C789 H775 0.931 . S
C789 C788 1.385 1_545 S
C789 C790 1.389 . S
C790 C789 1.389 . S
C790 C791 1.387 . S
C791 H776 0.930 . S
C791 C786 1.390 . S
C791 C790 1.387 . S
H792 C804 0.930 . S
H793 C806 0.930 . S
H794 C807 0.930 . S
H795 C811 0.959 . S
H796 C811 0.959 . S
H797 C811 0.961 . S
H798 C812 0.960 . S
H799 C812 0.961 . S
H800 C812 0.959 . S
H801 C815 0.929 . S
H802 C816 0.931 . S
H803 C818 0.930 . S
C804 H792 0.930 . S
C804 C805 1.399 . S
C804 C809 1.399 . S
C805 C804 1.399 . S
C805 C806 1.376 . S
C806 H793 0.930 . S
C806 C805 1.376 . S
C806 C807 1.388 . S
C807 H794 0.930 . S
C807 C806 1.388 . S
C807 C808 1.390 . S
C808 C807 1.390 . S
C808 C809 1.394 . S
C808 C814 1.465 . S
C809 C804 1.399 . S
C809 C808 1.394 . S
C809 C810 1.516 . S
C810 C809 1.516 . S
C810 C811 1.502 . S
C810 C812 1.561 . S
C810 C813 1.526 . S
C811 H795 0.959 . S
C811 H796 0.959 . S
C811 H797 0.961 . S
C811 C810 1.502 . S
C812 H798 0.960 . S
C812 H799 0.961 . S
C812 H800 0.959 . S
C812 C810 1.561 . S
C813 C810 1.526 . S
C813 C814 1.396 . S
C813 C818 1.390 . S
C814 C808 1.465 . S
C814 C813 1.396 . S
C814 C815 1.399 . S
C815 H801 0.929 . S
C815 C814 1.399 . S
C815 C816 1.385 . S
C816 H802 0.931 . S
C816 C815 1.385 . S
C816 C817 1.389 . S
C817 C816 1.389 . S
C817 C818 1.387 . S
C818 H803 0.930 . S
C818 C813 1.390 . S
C818 C817 1.387 . S
H819 C831 0.930 . S
H820 C833 0.930 . S
H821 C834 0.930 . S
H822 C838 0.959 1_455 S
H823 C838 0.959 . S
H824 C838 0.961 . S
H825 C839 0.960 . S
H826 C839 0.961 . S
H827 C839 0.959 . S
H828 C842 0.929 1_455 S
H829 C843 0.931 . S
H830 C845 0.930 . S
C831 H819 0.930 . S
C831 C832 1.399 . S
C831 C836 1.399 . S
C832 C831 1.399 . S
C832 C833 1.376 . S
C833 H820 0.930 . S
C833 C832 1.376 . S
C833 C834 1.388 . S
C834 H821 0.930 . S
C834 C833 1.388 . S
C834 C835 1.390 . S
C835 C834 1.390 . S
C835 C836 1.394 . S
C835 C841 1.465 1_455 S
C836 C831 1.399 . S
C836 C835 1.394 . S
C836 C837 1.516 1_455 S
C837 C836 1.516 1_655 S
C837 C838 1.502 . S
C837 C839 1.561 . S
C837 C840 1.526 . S
C838 H822 0.959 1_655 S
C838 H823 0.959 . S
C838 H824 0.961 . S
C838 C837 1.502 . S
C839 H825 0.960 . S
C839 H826 0.961 . S
C839 H827 0.959 . S
C839 C837 1.561 . S
C840 C837 1.526 . S
C840 C841 1.396 . S
C840 C845 1.390 . S
C841 C835 1.465 1_655 S
C841 C840 1.396 . S
C841 C842 1.399 . S
C842 H828 0.929 1_655 S
C842 C841 1.399 . S
C842 C843 1.385 . S
C843 H829 0.931 . S
C843 C842 1.385 . S
C843 C844 1.389 . S
C844 C843 1.389 . S
C844 C845 1.387 . S
C845 H830 0.930 . S
C845 C840 1.390 . S
C845 C844 1.387 . S
H846 C858 0.930 1_565 S
H847 C860 0.930 . S
H848 C861 0.930 . S
H849 C865 0.959 . S
H850 C865 0.959 . S
H851 C865 0.961 . S
H852 C866 0.960 . S
H853 C866 0.961 . S
H854 C866 0.959 . S
H855 C869 0.929 . S
H856 C870 0.931 . S
H857 C872 0.930 . S
C858 H846 0.930 1_545 S
C858 C859 1.399 . S
C858 C863 1.400 1_545 S
C859 C858 1.399 . S
C859 C860 1.376 . S
C860 H847 0.930 . S
C860 C859 1.376 . S
C860 C861 1.388 . S
C861 H848 0.930 . S
C861 C860 1.388 . S
C861 C862 1.390 . S
C862 C861 1.390 . S
C862 C863 1.394 1_545 S
C862 C868 1.465 . S
C863 C858 1.400 1_565 S
C863 C862 1.394 1_565 S
C863 C864 1.515 . S
C864 C863 1.515 . S
C864 C865 1.502 . S
C864 C866 1.561 . S
C864 C867 1.526 . S
C865 H849 0.959 . S
C865 H850 0.959 . S
C865 H851 0.961 . S
C865 C864 1.502 . S
C866 H852 0.960 . S
C866 H853 0.961 . S
C866 H854 0.959 . S
C866 C864 1.561 . S
C867 C864 1.526 . S
C867 C868 1.396 1_565 S
C867 C872 1.390 . S
C868 C862 1.465 . S
C868 C867 1.396 1_545 S
C868 C869 1.399 . S
C869 H855 0.929 . S
C869 C868 1.399 . S
C869 C870 1.385 1_545 S
C870 H856 0.931 . S
C870 C869 1.385 1_565 S
C870 C871 1.389 . S
C871 C870 1.389 . S
C871 C872 1.387 . S
C872 H857 0.930 . S
C872 C867 1.390 . S
C872 C871 1.387 . S
H873 C885 0.930 . S
H874 C887 0.930 . S
H875 C888 0.930 . S
H876 C892 0.959 . S
H877 C892 0.959 . S
H878 C892 0.961 . S
H879 C893 0.960 . S
H880 C893 0.961 . S
H881 C893 0.959 . S
H882 C896 0.929 . S
H883 C897 0.931 . S
H884 C899 0.930 . S
C885 H873 0.930 . S
C885 C886 1.399 . S
C885 C890 1.399 . S
C886 C885 1.399 . S
C886 C887 1.376 . S
C887 H874 0.930 . S
C887 C886 1.376 . S
C887 C888 1.388 . S
C888 H875 0.930 . S
C888 C887 1.388 . S
C888 C889 1.390 . S
C889 C888 1.390 . S
C889 C890 1.394 . S
C889 C895 1.465 . S
C890 C885 1.399 . S
C890 C889 1.394 . S
C890 C891 1.516 . S
C891 C890 1.516 . S
C891 C892 1.502 . S
C891 C893 1.561 . S
C891 C894 1.526 . S
C892 H876 0.959 . S
C892 H877 0.959 . S
C892 H878 0.961 . S
C892 C891 1.502 . S
C893 H879 0.960 . S
C893 H880 0.961 . S
C893 H881 0.959 . S
C893 C891 1.561 . S
C894 C891 1.526 . S
C894 C895 1.396 . S
C894 C899 1.390 . S
C895 C889 1.465 . S
C895 C894 1.396 . S
C895 C896 1.399 . S
C896 H882 0.929 . S
C896 C895 1.399 . S
C896 C897 1.385 . S
C897 H883 0.931 . S
C897 C896 1.385 . S
C897 C898 1.389 . S
C898 C897 1.389 . S
C898 C899 1.387 . S
C899 H884 0.930 . S
C899 C894 1.390 . S
C899 C898 1.387 . S
H900 C912 0.930 . S
H901 C914 0.930 . S
H902 C915 0.930 . S
H903 C919 0.959 . S
H904 C919 0.959 . S
H905 C919 0.961 . S
H906 C920 0.960 . S
H907 C920 0.961 . S
H908 C920 0.959 . S
H909 C923 0.929 . S
H910 C924 0.931 . S
H911 C926 0.930 . S
C912 H900 0.930 . S
C912 C913 1.399 . S
C912 C917 1.399 . S
C913 C912 1.399 . S
C913 C914 1.376 . S
C914 H901 0.930 . S
C914 C913 1.376 . S
C914 C915 1.388 1_655 S
C915 H902 0.930 . S
C915 C914 1.388 1_455 S
C915 C916 1.390 . S
C916 C915 1.390 . S
C916 C917 1.394 1_455 S
C916 C922 1.465 . S
C917 C912 1.399 . S
C917 C916 1.394 1_655 S
C917 C918 1.516 . S
C918 C917 1.516 . S
C918 C919 1.502 . S
C918 C920 1.561 1_556 S
C918 C921 1.526 1_655 S
C919 H903 0.959 . S
C919 H904 0.959 . S
C919 H905 0.961 . S
C919 C918 1.502 . S
C920 H906 0.960 . S
C920 H907 0.961 . S
C920 H908 0.959 . S
C920 C918 1.561 1_554 S
C921 C918 1.526 1_455 S
C921 C922 1.396 . S
C921 C926 1.390 . S
C922 C916 1.465 . S
C922 C921 1.396 . S
C922 C923 1.399 . S
C923 H909 0.929 . S
C923 C922 1.399 . S
C923 C924 1.385 . S
C924 H910 0.931 . S
C924 C923 1.385 . S
C924 C925 1.389 . S
C925 C924 1.389 . S
C925 C926 1.387 . S
C926 H911 0.930 . S
C926 C921 1.390 . S
C926 C925 1.387 . S
H927 C939 0.930 . S
H928 C941 0.930 . S
H929 C942 0.930 . S
H930 C946 0.959 . S
H931 C946 0.959 . S
H932 C946 0.961 . S
H933 C947 0.960 . S
H934 C947 0.961 . S
H935 C947 0.959 . S
H936 C950 0.930 . S
H937 C951 0.931 . S
H938 C953 0.930 . S
C939 H927 0.930 . S
C939 C940 1.399 . S
C939 C944 1.399 . S
C940 C939 1.399 . S
C940 C941 1.376 . S
C941 H928 0.930 . S
C941 C940 1.376 . S
C941 C942 1.388 . S
C942 H929 0.930 . S
C942 C941 1.388 . S
C942 C943 1.390 . S
C943 C942 1.390 . S
C943 C944 1.394 . S
C943 C949 1.465 1_455 S
C944 C939 1.399 . S
C944 C943 1.394 . S
C944 C945 1.516 1_455 S
C945 C944 1.516 1_655 S
C945 C946 1.502 . S
C945 C947 1.561 1_655 S
C945 C948 1.526 . S
C946 H930 0.959 . S
C946 H931 0.959 . S
C946 H932 0.961 . S
C946 C945 1.502 . S
C947 H933 0.960 . S
C947 H934 0.961 . S
C947 H935 0.959 . S
C947 C945 1.561 1_455 S
C948 C945 1.526 . S
C948 C949 1.396 . S
C948 C953 1.390 . S
C949 C943 1.465 1_655 S
C949 C948 1.396 . S
C949 C950 1.399 . S
C950 H936 0.930 . S
C950 C949 1.399 . S
C950 C951 1.385 . S
C951 H937 0.931 . S
C951 C950 1.385 . S
C951 C952 1.389 . S
C952 C951 1.389 . S
C952 C953 1.387 . S
C953 H938 0.930 . S
C953 C948 1.390 . S
C953 C952 1.387 . S
H954 C966 0.930 . S
H955 C968 0.930 . S
H956 C969 0.930 . S
H957 C973 0.959 . S
H958 C973 0.959 . S
H959 C973 0.961 . S
H960 C974 0.960 . S
H961 C974 0.961 . S
H962 C974 0.959 . S
H963 C977 0.929 . S
H964 C978 0.931 . S
H965 C980 0.930 . S
C966 H954 0.930 . S
C966 C967 1.399 . S
C966 C971 1.399 . S
C967 C966 1.399 . S
C967 C968 1.376 . S
C968 H955 0.930 . S
C968 C967 1.376 . S
C968 C969 1.388 . S
C969 H956 0.930 . S
C969 C968 1.388 . S
C969 C970 1.390 . S
C970 C969 1.390 . S
C970 C971 1.394 . S
C970 C976 1.465 1_565 S
C971 C966 1.399 . S
C971 C970 1.394 . S
C971 C972 1.512 1_565 S
C972 C971 1.512 1_545 S
C972 C973 1.528 . S
C972 C974 1.536 1_545 S
C972 C975 1.527 . S
C973 H957 0.959 . S
C973 H958 0.959 . S
C973 H959 0.961 . S
C973 C972 1.528 . S
C974 H960 0.960 . S
C974 H961 0.961 . S
C974 H962 0.959 . S
C974 C972 1.536 1_565 S
C975 C972 1.527 . S
C975 C976 1.396 . S
C975 C980 1.390 . S
C976 C970 1.465 1_545 S
C976 C975 1.396 . S
C976 C977 1.399 . S
C977 H963 0.929 . S
C977 C976 1.399 . S
C977 C978 1.385 . S
C978 H964 0.931 . S
C978 C977 1.385 . S
C978 C979 1.389 . S
C979 C978 1.389 . S
C979 C980 1.387 . S
C980 H965 0.930 . S
C980 C975 1.390 . S
C980 C979 1.387 . S
H981 C993 0.930 . S
H982 C995 0.930 . S
H983 C996 0.930 1_556 S
H984 C1000 0.959 . S
H985 C1000 0.959 . S
H986 C1000 0.961 . S
H987 C1001 0.960 . S
H988 C1001 0.961 . S
H989 C1001 0.959 . S
H990 C1004 0.929 1_556 S
H991 C1005 0.931 . S
H992 C1007 0.930 . S
C993 H981 0.930 . S
C993 C994 1.399 . S
C993 C998 1.399 . S
C994 C993 1.399 . S
C994 C995 1.376 . S
C995 H982 0.930 . S
C995 C994 1.376 . S
C995 C996 1.388 . S
C996 H983 0.930 1_554 S
C996 C995 1.388 . S
C996 C997 1.390 . S
C997 C996 1.390 . S
C997 C998 1.394 . S
C997 C1003 1.465 . S
C998 C993 1.399 . S
C998 C997 1.394 . S
C998 C999 1.516 . S
C999 C998 1.516 . S
C999 C1000 1.502 . S
C999 C1001 1.561 . S
C999 C1002 1.526 . S
C1000 H984 0.959 . S
C1000 H985 0.959 . S
C1000 H986 0.961 . S
C1000 C999 1.502 . S
C1001 H987 0.960 . S
C1001 H988 0.961 . S
C1001 H989 0.959 . S
C1001 C999 1.561 . S
C1002 C999 1.526 . S
C1002 C1003 1.396 . S
C1002 C1007 1.390 . S
C1003 C997 1.465 . S
C1003 C1002 1.396 . S
C1003 C1004 1.399 . S
C1004 H990 0.929 1_554 S
C1004 C1003 1.399 . S
C1004 C1005 1.385 . S
C1005 H991 0.931 . S
C1005 C1004 1.385 . S
C1005 C1006 1.389 . S
C1006 C1005 1.389 . S
C1006 C1007 1.387 . S
C1007 H992 0.930 . S
C1007 C1002 1.390 . S
C1007 C1006 1.387 . S
H1008 C1020 0.930 . S
H1009 C1022 0.930 . S
H1010 C1023 0.930 1_545 S
H1011 C1027 0.959 . S
H1012 C1027 0.959 . S
H1013 C1027 0.961 1_565 S
H1014 C1028 0.960 . S
H1015 C1028 0.961 . S
H1016 C1028 0.959 . S
H1017 C1031 0.929 . S
H1018 C1032 0.931 . S
H1019 C1034 0.930 . S
C1020 H1008 0.930 . S
C1020 C1021 1.399 . S
C1020 C1025 1.399 . S
C1021 C1020 1.399 . S
C1021 C1022 1.376 . S
C1022 H1009 0.930 . S
C1022 C1021 1.376 . S
C1022 C1023 1.388 . S
C1023 H1010 0.930 1_565 S
C1023 C1022 1.388 . S
C1023 C1024 1.390 1_565 S
C1024 C1023 1.390 1_545 S
C1024 C1025 1.394 1_545 S
C1024 C1030 1.465 . S
C1025 C1020 1.399 . S
C1025 C1024 1.394 1_565 S
C1025 C1026 1.516 . S
C1026 C1025 1.516 . S
C1026 C1027 1.502 1_565 S
C1026 C1028 1.561 . S
C1026 C1029 1.526 1_565 S
C1027 H1011 0.959 . S
C1027 H1012 0.959 . S
C1027 H1013 0.961 1_545 S
C1027 C1026 1.502 1_545 S
C1028 H1014 0.960 . S
C1028 H1015 0.961 . S
C1028 H1016 0.959 . S
C1028 C1026 1.561 . S
C1029 C1026 1.526 1_545 S
C1029 C1030 1.396 . S
C1029 C1034 1.390 . S
C1030 C1024 1.465 . S
C1030 C1029 1.396 . S
C1030 C1031 1.399 . S
C1031 H1017 0.929 . S
C1031 C1030 1.399 . S
C1031 C1032 1.385 . S
C1032 H1018 0.931 . S
C1032 C1031 1.385 . S
C1032 C1033 1.389 . S
C1033 C1032 1.389 . S
C1033 C1034 1.387 . S
C1034 H1019 0.930 . S
C1034 C1029 1.390 . S
C1034 C1033 1.387 . S
H1035 C1047 0.930 . S
H1036 C1049 0.930 . S
H1037 C1050 0.930 . S
H1038 C1054 0.959 . S
H1039 C1054 0.959 . S
H1040 C1054 0.961 . S
H1041 C1055 0.960 . S
H1042 C1055 0.961 . S
H1043 C1055 0.959 . S
H1044 C1058 0.929 . S
H1045 C1059 0.931 . S
H1046 C1061 0.930 . S
C1047 H1035 0.930 . S
C1047 C1048 1.399 . S
C1047 C1052 1.399 . S
C1048 C1047 1.399 . S
C1048 C1049 1.376 . S
C1049 H1036 0.930 . S
C1049 C1048 1.376 . S
C1049 C1050 1.388 . S
C1050 H1037 0.930 . S
C1050 C1049 1.388 . S
C1050 C1051 1.390 . S
C1051 C1050 1.390 . S
C1051 C1052 1.394 . S
C1051 C1057 1.465 . S
C1052 C1047 1.399 . S
C1052 C1051 1.394 . S
C1052 C1053 1.516 . S
C1053 C1052 1.516 . S
C1053 C1054 1.502 . S
C1053 C1055 1.561 . S
C1053 C1056 1.526 . S
C1054 H1038 0.959 . S
C1054 H1039 0.959 . S
C1054 H1040 0.961 . S
C1054 C1053 1.502 . S
C1055 H1041 0.960 . S
C1055 H1042 0.961 . S
C1055 H1043 0.959 . S
C1055 C1053 1.561 . S
C1056 C1053 1.526 . S
C1056 C1057 1.396 . S
C1056 C1061 1.390 . S
C1057 C1051 1.465 . S
C1057 C1056 1.396 . S
C1057 C1058 1.399 . S
C1058 H1044 0.929 . S
C1058 C1057 1.399 . S
C1058 C1059 1.385 . S
C1059 H1045 0.931 . S
C1059 C1058 1.385 . S
C1059 C1060 1.389 . S
C1060 C1059 1.389 . S
C1060 C1061 1.387 . S
C1061 H1046 0.930 . S
C1061 C1056 1.390 . S
C1061 C1060 1.387 . S
H1062 C1074 0.930 . S
H1063 C1076 0.930 . S
H1064 C1077 0.930 . S
H1065 C1081 0.959 . S
H1066 C1081 0.959 . S
H1067 C1081 0.961 . S
H1068 C1082 0.960 . S
H1069 C1082 0.961 . S
H1070 C1082 0.959 . S
H1071 C1085 0.929 . S
H1072 C1086 0.931 . S
H1073 C1088 0.930 1_655 S
C1074 H1062 0.930 . S
C1074 C1075 1.399 1_554 S
C1074 C1079 1.399 . S
C1075 C1074 1.399 1_556 S
C1075 C1076 1.376 . S
C1076 H1063 0.930 . S
C1076 C1075 1.376 . S
C1076 C1077 1.388 1_656 S
C1077 H1064 0.930 . S
C1077 C1076 1.388 1_454 S
C1077 C1078 1.390 1_455 S
C1078 C1077 1.390 1_655 S
C1078 C1079 1.394 . S
C1078 C1084 1.465 1_655 S
C1079 C1074 1.399 . S
C1079 C1078 1.394 . S
C1079 C1080 1.516 . S
C1080 C1079 1.516 . S
C1080 C1081 1.502 . S
C1080 C1082 1.561 . S
C1080 C1083 1.526 . S
C1081 H1065 0.959 . S
C1081 H1066 0.959 . S
C1081 H1067 0.961 . S
C1081 C1080 1.502 . S
C1082 H1068 0.960 . S
C1082 H1069 0.961 . S
C1082 H1070 0.959 . S
C1082 C1080 1.561 . S
C1083 C1080 1.526 . S
C1083 C1084 1.396 1_655 S
C1083 C1088 1.390 1_655 S
C1084 C1078 1.465 1_455 S
C1084 C1083 1.396 1_455 S
C1084 C1085 1.399 . S
C1085 H1071 0.929 . S
C1085 C1084 1.399 . S
C1085 C1086 1.385 . S
C1086 H1072 0.931 . S
C1086 C1085 1.385 . S
C1086 C1087 1.389 . S
C1087 C1086 1.389 . S
C1087 C1088 1.387 . S
C1088 H1073 0.930 1_455 S
C1088 C1083 1.390 1_455 S
C1088 C1087 1.387 . S
H1089 C1101 0.930 . S
H1090 C1103 0.930 . S
H1091 C1104 0.930 . S
H1092 C1108 0.959 . S
H1093 C1108 0.959 . S
H1094 C1108 0.961 . S
H1095 C1109 0.960 . S
H1096 C1109 0.961 . S
H1097 C1109 0.959 . S
H1098 C1112 0.972 . S
H1099 C1113 0.931 . S
H1100 C1115 0.930 . S
C1101 H1089 0.930 . S
C1101 C1102 1.399 . S
C1101 C1106 1.399 . S
C1102 C1101 1.399 . S
C1102 C1103 1.376 . S
C1103 H1090 0.930 . S
C1103 C1102 1.376 . S
C1103 C1104 1.388 . S
C1104 H1091 0.930 . S
C1104 C1103 1.388 . S
C1104 C1105 1.390 . S
C1105 C1104 1.390 . S
C1105 C1106 1.394 . S
C1105 C1111 1.465 1_545 S
C1106 C1101 1.399 . S
C1106 C1105 1.394 . S
C1106 C1107 1.516 1_545 S
C1107 C1106 1.516 1_565 S
C1107 C1108 1.502 . S
C1107 C1109 1.561 . S
C1107 C1110 1.526 . S
C1108 H1092 0.959 . S
C1108 H1093 0.959 . S
C1108 H1094 0.961 . S
C1108 C1107 1.502 . S
C1109 H1095 0.960 . S
C1109 H1096 0.961 . S
C1109 H1097 0.959 . S
C1109 C1107 1.561 . S
C1110 C1107 1.526 . S
C1110 C1111 1.396 . S
C1110 C1115 1.390 . S
C1111 C1105 1.465 1_565 S
C1111 C1110 1.396 . S
C1111 C1112 1.386 1_565 S
C1112 H1098 0.972 . S
C1112 C1111 1.386 1_545 S
C1112 C1113 1.355 1_545 S
C1113 H1099 0.931 . S
C1113 C1112 1.355 1_565 S
C1113 C1114 1.389 . S
C1114 C1113 1.389 . S
C1114 C1115 1.387 . S
C1115 H1100 0.930 . S
C1115 C1110 1.390 . S
C1115 C1114 1.387 . S
H1116 C1128 0.930 . S
H1117 C1130 0.930 . S
H1118 C1131 0.930 . S
H1119 C1135 0.959 . S
H1120 C1135 0.959 . S
H1121 C1135 0.961 . S
H1122 C1136 0.960 . S
H1123 C1136 0.961 . S
H1124 C1136 0.959 . S
H1125 C1139 0.929 . S
H1126 C1140 0.931 . S
H1127 C1142 0.930 . S
C1128 H1116 0.930 . S
C1128 C1129 1.399 . S
C1128 C1133 1.399 . S
C1129 C1128 1.399 . S
C1129 C1130 1.376 . S
C1130 H1117 0.930 . S
C1130 C1129 1.376 . S
C1130 C1131 1.388 . S
C1131 H1118 0.930 . S
C1131 C1130 1.388 . S
C1131 C1132 1.390 . S
C1132 C1131 1.390 . S
C1132 C1133 1.394 . S
C1132 C1138 1.465 . S
C1133 C1128 1.399 . S
C1133 C1132 1.394 . S
C1133 C1134 1.516 . S
C1134 C1133 1.516 . S
C1134 C1135 1.502 . S
C1134 C1136 1.561 . S
C1134 C1137 1.526 . S
C1135 H1119 0.959 . S
C1135 H1120 0.959 . S
C1135 H1121 0.961 . S
C1135 C1134 1.502 . S
C1136 H1122 0.960 . S
C1136 H1123 0.961 . S
C1136 H1124 0.959 . S
C1136 C1134 1.561 . S
C1137 C1134 1.526 . S
C1137 C1138 1.396 . S
C1137 C1142 1.390 . S
C1138 C1132 1.465 . S
C1138 C1137 1.396 . S
C1138 C1139 1.399 . S
C1139 H1125 0.929 . S
C1139 C1138 1.399 . S
C1139 C1140 1.385 . S
C1140 H1126 0.931 . S
C1140 C1139 1.385 . S
C1140 C1141 1.389 . S
C1141 C1140 1.389 . S
C1141 C1142 1.387 . S
C1142 H1127 0.930 . S
C1142 C1137 1.390 . S
C1142 C1141 1.387 . S
H1143 C1155 0.930 . S
H1144 C1157 0.930 . S
H1145 C1158 0.930 . S
H1146 C1162 0.959 . S
H1147 C1162 0.959 . S
H1148 C1162 0.961 . S
H1149 C1163 0.963 . S
H1150 C1163 0.959 1_655 S
H1151 C1163 0.961 . S
H1152 C1166 0.927 1_455 S
H1153 C1167 0.931 . S
H1154 C1169 0.930 . S
C1155 H1143 0.930 . S
C1155 C1156 1.399 . S
C1155 C1160 1.399 . S
C1156 C1155 1.399 . S
C1156 C1157 1.376 . S
C1157 H1144 0.930 . S
C1157 C1156 1.376 . S
C1157 C1158 1.388 . S
C1158 H1145 0.930 . S
C1158 C1157 1.388 . S
C1158 C1159 1.390 . S
C1159 C1158 1.390 . S
C1159 C1160 1.394 . S
C1159 C1165 1.465 . S
C1160 C1155 1.399 . S
C1160 C1159 1.394 . S
C1160 C1161 1.516 1_455 S
C1161 C1160 1.516 1_655 S
C1161 C1162 1.502 . S
C1161 C1163 1.558 1_655 S
C1161 C1164 1.526 . S
C1162 H1146 0.959 . S
C1162 H1147 0.959 . S
C1162 H1148 0.961 . S
C1162 C1161 1.502 . S
C1163 H1149 0.963 . S
C1163 H1150 0.959 1_455 S
C1163 H1151 0.961 . S
C1163 C1161 1.558 1_455 S
C1164 C1161 1.526 . S
C1164 C1165 1.396 1_655 S
C1164 C1169 1.390 . S
C1165 C1159 1.465 . S
C1165 C1164 1.396 1_455 S
C1165 C1166 1.394 1_455 S
C1166 H1152 0.927 1_655 S
C1166 C1165 1.394 1_655 S
C1166 C1167 1.392 . S
C1167 H1153 0.931 . S
C1167 C1166 1.392 . S
C1167 C1168 1.389 . S
C1168 C1167 1.389 . S
C1168 C1169 1.387 . S
C1169 H1154 0.930 . S
C1169 C1164 1.390 . S
C1169 C1168 1.387 . S
H1170 C1182 0.930 . S
H1171 C1184 0.930 . S
H1172 C1185 0.930 . S
H1173 C1189 0.959 . S
H1174 C1189 0.959 . S
H1175 C1189 0.961 . S
H1176 C1190 0.960 . S
H1177 C1190 0.961 . S
H1178 C1190 0.959 . S
H1179 C1193 0.929 . S
H1180 C1194 0.931 . S
H1181 C1196 0.930 . S
C1182 H1170 0.930 . S
C1182 C1183 1.399 . S
C1182 C1187 1.399 . S
C1183 C1182 1.399 . S
C1183 C1184 1.376 . S
C1184 H1171 0.930 . S
C1184 C1183 1.376 . S
C1184 C1185 1.388 . S
C1185 H1172 0.930 . S
C1185 C1184 1.388 . S
C1185 C1186 1.390 . S
C1186 C1185 1.390 . S
C1186 C1187 1.394 . S
C1186 C1192 1.465 . S
C1187 C1182 1.399 . S
C1187 C1186 1.394 . S
C1187 C1188 1.516 . S
C1188 C1187 1.516 . S
C1188 C1189 1.502 . S
C1188 C1190 1.561 . S
C1188 C1191 1.526 . S
C1189 H1173 0.959 . S
C1189 H1174 0.959 . S
C1189 H1175 0.961 . S
C1189 C1188 1.502 . S
C1190 H1176 0.960 . S
C1190 H1177 0.961 . S
C1190 H1178 0.959 . S
C1190 C1188 1.561 . S
C1191 C1188 1.526 . S
C1191 C1192 1.396 . S
C1191 C1196 1.390 . S
C1192 C1186 1.465 . S
C1192 C1191 1.396 . S
C1192 C1193 1.399 . S
C1193 H1179 0.929 . S
C1193 C1192 1.399 . S
C1193 C1194 1.385 . S
C1194 H1180 0.931 . S
C1194 C1193 1.385 . S
C1194 C1195 1.389 . S
C1195 C1194 1.389 . S
C1195 C1196 1.387 . S
C1196 H1181 0.930 . S
C1196 C1191 1.390 . S
C1196 C1195 1.387 . S
H1197 C1209 0.930 . S
H1198 C1211 0.930 . S
H1199 C1212 0.930 . S
H1200 C1216 0.959 . S
H1201 C1216 0.959 . S
H1202 C1216 0.961 . S
H1203 C1217 0.960 . S
H1204 C1217 0.961 . S
H1205 C1217 0.959 . S
H1206 C1220 0.929 . S
H1207 C1221 0.931 . S
H1208 C1223 0.930 1_554 S
C1209 H1197 0.930 . S
C1209 C1210 1.399 . S
C1209 C1214 1.399 . S
C1210 C1209 1.399 . S
C1210 C1211 1.376 . S
C1211 H1198 0.930 . S
C1211 C1210 1.376 . S
C1211 C1212 1.388 . S
C1212 H1199 0.930 . S
C1212 C1211 1.388 . S
C1212 C1213 1.390 . S
C1213 C1212 1.390 . S
C1213 C1214 1.394 . S
C1213 C1219 1.465 . S
C1214 C1209 1.399 . S
C1214 C1213 1.394 . S
C1214 C1215 1.516 . S
C1215 C1214 1.516 . S
C1215 C1216 1.502 . S
C1215 C1217 1.561 . S
C1215 C1218 1.526 . S
C1216 H1200 0.959 . S
C1216 H1201 0.959 . S
C1216 H1202 0.961 . S
C1216 C1215 1.502 . S
C1217 H1203 0.960 . S
C1217 H1204 0.961 . S
C1217 H1205 0.959 . S
C1217 C1215 1.561 . S
C1218 C1215 1.526 . S
C1218 C1219 1.396 . S
C1218 C1223 1.390 . S
C1219 C1213 1.465 . S
C1219 C1218 1.396 . S
C1219 C1220 1.399 . S
C1220 H1206 0.929 . S
C1220 C1219 1.399 . S
C1220 C1221 1.385 . S
C1221 H1207 0.931 . S
C1221 C1220 1.385 . S
C1221 C1222 1.389 . S
C1222 C1221 1.389 . S
C1222 C1223 1.387 . S
C1223 H1208 0.930 1_556 S
C1223 C1218 1.390 . S
C1223 C1222 1.387 . S
H1224 C1236 0.930 . S
H1225 C1238 0.930 . S
H1226 C1239 0.930 . S
H1227 C1243 0.959 . S
H1228 C1243 0.959 . S
H1229 C1243 0.961 . S
H1230 C1244 0.960 . S
H1231 C1244 0.961 . S
H1232 C1244 0.959 . S
H1233 C1247 0.929 . S
H1234 C1248 0.931 . S
H1235 C1250 0.930 . S
C1236 H1224 0.930 . S
C1236 C1237 1.399 . S
C1236 C1241 1.399 . S
C1237 C1236 1.399 . S
C1237 C1238 1.376 . S
C1238 H1225 0.930 . S
C1238 C1237 1.376 . S
C1238 C1239 1.388 . S
C1239 H1226 0.930 . S
C1239 C1238 1.388 . S
C1239 C1240 1.390 . S
C1240 C1239 1.390 . S
C1240 C1241 1.394 . S
C1240 C1246 1.465 . S
C1241 C1236 1.399 . S
C1241 C1240 1.394 . S
C1241 C1242 1.516 . S
C1242 C1241 1.516 . S
C1242 C1243 1.502 . S
C1242 C1244 1.561 . S
C1242 C1245 1.526 . S
C1243 H1227 0.959 . S
C1243 H1228 0.959 . S
C1243 H1229 0.961 . S
C1243 C1242 1.502 . S
C1244 H1230 0.960 . S
C1244 H1231 0.961 . S
C1244 H1232 0.959 . S
C1244 C1242 1.561 . S
C1245 C1242 1.526 . S
C1245 C1246 1.396 . S
C1245 C1250 1.390 . S
C1246 C1240 1.465 . S
C1246 C1245 1.396 . S
C1246 C1247 1.399 . S
C1247 H1233 0.929 . S
C1247 C1246 1.399 . S
C1247 C1248 1.385 . S
C1248 H1234 0.931 . S
C1248 C1247 1.385 . S
C1248 C1249 1.389 . S
C1249 C1248 1.389 . S
C1249 C1250 1.387 . S
C1250 H1235 0.930 . S
C1250 C1245 1.390 . S
C1250 C1249 1.387 . S
H1251 C1263 0.930 . S
H1252 C1265 0.930 . S
H1253 C1266 0.930 . S
H1254 C1270 0.959 . S
H1255 C1270 0.959 . S
H1256 C1270 0.961 . S
H1257 C1271 0.960 . S
H1258 C1271 0.961 . S
H1259 C1271 0.959 . S
H1260 C1274 0.929 . S
H1261 C1275 0.931 . S
H1262 C1277 0.930 . S
C1263 H1251 0.930 . S
C1263 C1264 1.399 . S
C1263 C1268 1.399 . S
C1264 C1263 1.399 . S
C1264 C1265 1.376 . S
C1265 H1252 0.930 . S
C1265 C1264 1.376 . S
C1265 C1266 1.388 . S
C1266 H1253 0.930 . S
C1266 C1265 1.388 . S
C1266 C1267 1.390 . S
C1267 C1266 1.390 . S
C1267 C1268 1.394 . S
C1267 C1273 1.465 . S
C1268 C1263 1.399 . S
C1268 C1267 1.394 . S
C1268 C1269 1.516 . S
C1269 C1268 1.516 . S
C1269 C1270 1.502 . S
C1269 C1271 1.561 . S
C1269 C1272 1.526 . S
C1270 H1254 0.959 . S
C1270 H1255 0.959 . S
C1270 H1256 0.961 . S
C1270 C1269 1.502 . S
C1271 H1257 0.960 . S
C1271 H1258 0.961 . S
C1271 H1259 0.959 . S
C1271 C1269 1.561 . S
C1272 C1269 1.526 . S
C1272 C1273 1.396 . S
C1272 C1277 1.390 . S
C1273 C1267 1.465 . S
C1273 C1272 1.396 . S
C1273 C1274 1.399 . S
C1274 H1260 0.929 . S
C1274 C1273 1.399 . S
C1274 C1275 1.385 . S
C1275 H1261 0.931 . S
C1275 C1274 1.385 . S
C1275 C1276 1.389 . S
C1276 C1275 1.389 . S
C1276 C1277 1.387 . S
C1277 H1262 0.930 . S
C1277 C1272 1.390 . S
C1277 C1276 1.387 . S
H1278 C1290 0.930 . S
H1279 C1292 0.930 . S
H1280 C1293 0.930 . S
H1281 C1297 0.959 . S
H1282 C1297 0.959 . S
H1283 C1297 0.961 . S
H1284 C1298 0.960 . S
H1285 C1298 0.961 . S
H1286 C1298 0.959 . S
H1287 C1301 0.929 . S
H1288 C1302 0.931 . S
H1289 C1304 0.930 . S
C1290 H1278 0.930 . S
C1290 C1291 1.399 . S
C1290 C1295 1.399 . S
C1291 C1290 1.399 . S
C1291 C1292 1.376 . S
C1292 H1279 0.930 . S
C1292 C1291 1.376 . S
C1292 C1293 1.388 . S
C1293 H1280 0.930 . S
C1293 C1292 1.388 . S
C1293 C1294 1.390 . S
C1294 C1293 1.390 . S
C1294 C1295 1.394 . S
C1294 C1300 1.465 . S
C1295 C1290 1.399 . S
C1295 C1294 1.394 . S
C1295 C1296 1.516 . S
C1296 C1295 1.516 . S
C1296 C1297 1.502 . S
C1296 C1298 1.561 . S
C1296 C1299 1.526 . S
C1297 H1281 0.959 . S
C1297 H1282 0.959 . S
C1297 H1283 0.961 . S
C1297 C1296 1.502 . S
C1298 H1284 0.960 . S
C1298 H1285 0.961 . S
C1298 H1286 0.959 . S
C1298 C1296 1.561 . S
C1299 C1296 1.526 . S
C1299 C1300 1.396 . S
C1299 C1304 1.390 . S
C1300 C1294 1.465 . S
C1300 C1299 1.396 . S
C1300 C1301 1.399 . S
C1301 H1287 0.929 . S
C1301 C1300 1.399 . S
C1301 C1302 1.385 . S
C1302 H1288 0.931 . S
C1302 C1301 1.385 . S
C1302 C1303 1.389 . S
C1303 C1302 1.389 . S
C1303 C1304 1.387 . S
C1304 H1289 0.930 . S
C1304 C1299 1.390 . S
C1304 C1303 1.387 . S
H1305 C1317 0.930 . S
H1306 C1319 0.930 . S
H1307 C1320 0.930 . S
H1308 C1324 0.959 . S
H1309 C1324 0.959 . S
H1310 C1324 0.961 . S
H1311 C1325 0.960 . S
H1312 C1325 0.961 . S
H1313 C1325 0.959 . S
H1314 C1328 0.929 . S
H1315 C1329 0.931 . S
H1316 C1331 0.930 . S
C1317 H1305 0.930 . S
C1317 C1318 1.399 . S
C1317 C1322 1.399 . S
C1318 C1317 1.399 . S
C1318 C1319 1.376 . S
C1319 H1306 0.930 . S
C1319 C1318 1.376 . S
C1319 C1320 1.388 . S
C1320 H1307 0.930 . S
C1320 C1319 1.388 . S
C1320 C1321 1.390 . S
C1321 C1320 1.390 . S
C1321 C1322 1.394 . S
C1321 C1327 1.465 . S
C1322 C1317 1.399 . S
C1322 C1321 1.394 . S
C1322 C1323 1.516 . S
C1323 C1322 1.516 . S
C1323 C1324 1.502 . S
C1323 C1325 1.561 . S
C1323 C1326 1.526 . S
C1324 H1308 0.959 . S
C1324 H1309 0.959 . S
C1324 H1310 0.961 . S
C1324 C1323 1.502 . S
C1325 H1311 0.960 . S
C1325 H1312 0.961 . S
C1325 H1313 0.959 . S
C1325 C1323 1.561 . S
C1326 C1323 1.526 . S
C1326 C1327 1.396 . S
C1326 C1331 1.390 . S
C1327 C1321 1.465 . S
C1327 C1326 1.396 . S
C1327 C1328 1.399 . S
C1328 H1314 0.929 . S
C1328 C1327 1.399 . S
C1328 C1329 1.385 . S
C1329 H1315 0.931 . S
C1329 C1328 1.385 . S
C1329 C1330 1.389 . S
C1330 C1329 1.389 . S
C1330 C1331 1.387 . S
C1331 H1316 0.930 . S
C1331 C1326 1.390 . S
C1331 C1330 1.387 . S
C373 C10 0.773 . S
C385 C250 0.699 . S
C400 C40 1.038 . S
C412 C271 1.121 . S
C427 C70 0.692 . S
C439 C310 0.793 . S
C454 C331 1.128 . S
C466 C100 1.029 . S
C481 C130 0.779 . S
C493 C190 0.694 . S
C508 C211 1.022 . S
C520 C160 1.130 . S
C535 C316 2.131 . S
C547 C16 2.154 . S
C562 N344 1.519 . S
C574 C46 1.633 . S
C589 C76 2.183 . S
C601 C196 2.169 . S
C616 N224 1.496 . S
C628 C106 1.622 . S
C643 C256 2.125 . S
C655 C136 2.150 . S
C670 C166 1.632 . S
C682 N284 1.518 . S
C697 C237 0.692 . S
C709 N6 0.812 . S
C724 N246 0.656 . S
C736 N36 0.704 . S
C751 C297 0.671 . S
C763 N66 0.644 . S
C778 N96 0.714 . S
C790 N306 0.519 . S
C805 N126 0.670 . S
C817 C357 0.742 . S
C832 N156 0.708 . S
C844 N186 0.653 . S
C859 C1 0.601 . S
C871 C91 0.732 . S
C886 C31 0.679 . S
C898 C121 0.638 . S
C913 C61 0.718 . S
C925 C151 0.590 . S
C940 C280 0.528 . S
C952 C181 0.589 . S
C967 C220 0.530 . S
C979 C301 0.583 . S
C994 C340 0.522 . S
C1006 C241 0.602 . S
C1021 N216 2.051 . S
C1033 C27 2.033 . S
C1048 C267 2.181 1_556 S
C1060 C57 2.187 . S
C1075 C87 2.009 . S
C1087 N276 2.039 . S
C1102 C327 2.134 . S
C1114 C117 2.143 . S
C1129 N336 2.039 . S
C1141 C147 2.010 . S
C1156 C177 2.183 . S
C1168 C207 2.169 . S
C1183 N14 0.620 . S
C1195 N314 0.610 . S
C1210 N44 1.122 . S
C1222 C346 1.130 1_556 S
C1237 N74 0.628 . S
C1249 N194 0.604 . S
C1264 N104 1.142 . S
C1276 C226 1.162 . S
C1291 N134 0.596 . S
C1303 N254 0.622 . S
C1318 C286 1.145 . S
C1330 N164 1.127 . S
