# Generated by pormake.
# Topology yfy, (5)-cn, num edge types: 1
# Building blocks:
#     Node 0, Type 0, BuildingBlock: XOMCOT_clean_sbu_0, # of connection points: 5
#     Node 1, Type 0, BuildingBlock: XOMCOT_clean_sbu_0, # of connection points: 5
#     Node 2, Type 0, BuildingBlock: XOMCOT_clean_sbu_0, # of connection points: 5
#     Node 3, Type 0, BuildingBlock: XOMCOT_clean_sbu_0, # of connection points: 5
#     Node 4, Type 0, BuildingBlock: XOMCOT_clean_sbu_0, # of connection points: 5
#     Node 5, Type 0, BuildingBlock: XOMCOT_clean_sbu_0, # of connection points: 5
#     Node 6, Type 0, BuildingBlock: XOMCOT_clean_sbu_0, # of connection points: 5
#     Node 7, Type 0, BuildingBlock: XOMCOT_clean_sbu_0, # of connection points: 5
#     Node 8, Type 0, BuildingBlock: XOMCOT_clean_sbu_0, # of connection points: 5
#     Node 9, Type 0, BuildingBlock: XOMCOT_clean_sbu_0, # of connection points: 5
#     Node 10, Type 0, BuildingBlock: XOMCOT_clean_sbu_0, # of connection points: 5
#     Node 11, Type 0, BuildingBlock: XOMCOT_clean_sbu_0, # of connection points: 5
#     Node 12, Type 0, BuildingBlock: XOMCOT_clean_sbu_0, # of connection points: 5
#     Node 13, Type 0, BuildingBlock: XOMCOT_clean_sbu_0, # of connection points: 5
#     Node 14, Type 0, BuildingBlock: XOMCOT_clean_sbu_0, # of connection points: 5
#     Node 15, Type 0, BuildingBlock: XOMCOT_clean_sbu_0, # of connection points: 5
#     Edge 16, Type (0, 0), BuildingBlock: XIVTED_clean_linker_0, # of connection points: 2
#     Edge 17, Type (0, 0), BuildingBlock: XIVTED_clean_linker_0, # of connection points: 2
#     Edge 18, Type (0, 0), BuildingBlock: XIVTED_clean_linker_0, # of connection points: 2
#     Edge 19, Type (0, 0), BuildingBlock: XIVTED_clean_linker_0, # of connection points: 2
#     Edge 20, Type (0, 0), BuildingBlock: XIVTED_clean_linker_0, # of connection points: 2
#     Edge 21, Type (0, 0), BuildingBlock: XIVTED_clean_linker_0, # of connection points: 2
#     Edge 22, Type (0, 0), BuildingBlock: XIVTED_clean_linker_0, # of connection points: 2
#     Edge 23, Type (0, 0), BuildingBlock: XIVTED_clean_linker_0, # of connection points: 2
#     Edge 24, Type (0, 0), BuildingBlock: XIVTED_clean_linker_0, # of connection points: 2
#     Edge 25, Type (0, 0), BuildingBlock: XIVTED_clean_linker_0, # of connection points: 2
#     Edge 26, Type (0, 0), BuildingBlock: XIVTED_clean_linker_0, # of connection points: 2
#     Edge 27, Type (0, 0), BuildingBlock: XIVTED_clean_linker_0, # of connection points: 2
#     Edge 28, Type (0, 0), BuildingBlock: XIVTED_clean_linker_0, # of connection points: 2
#     Edge 29, Type (0, 0), BuildingBlock: XIVTED_clean_linker_0, # of connection points: 2
#     Edge 30, Type (0, 0), BuildingBlock: XIVTED_clean_linker_0, # of connection points: 2
#     Edge 31, Type (0, 0), BuildingBlock: XIVTED_clean_linker_0, # of connection points: 2
#     Edge 32, Type (0, 0), BuildingBlock: XIVTED_clean_linker_0, # of connection points: 2
#     Edge 33, Type (0, 0), BuildingBlock: XIVTED_clean_linker_0, # of connection points: 2
#     Edge 34, Type (0, 0), BuildingBlock: XIVTED_clean_linker_0, # of connection points: 2
#     Edge 35, Type (0, 0), BuildingBlock: XIVTED_clean_linker_0, # of connection points: 2
#     Edge 36, Type (0, 0), BuildingBlock: XIVTED_clean_linker_0, # of connection points: 2
#     Edge 37, Type (0, 0), BuildingBlock: XIVTED_clean_linker_0, # of connection points: 2
#     Edge 38, Type (0, 0), BuildingBlock: XIVTED_clean_linker_0, # of connection points: 2
#     Edge 39, Type (0, 0), BuildingBlock: XIVTED_clean_linker_0, # of connection points: 2
#     Edge 40, Type (0, 0), BuildingBlock: XIVTED_clean_linker_0, # of connection points: 2
#     Edge 41, Type (0, 0), BuildingBlock: XIVTED_clean_linker_0, # of connection points: 2
#     Edge 42, Type (0, 0), BuildingBlock: XIVTED_clean_linker_0, # of connection points: 2
#     Edge 43, Type (0, 0), BuildingBlock: XIVTED_clean_linker_0, # of connection points: 2
#     Edge 44, Type (0, 0), BuildingBlock: XIVTED_clean_linker_0, # of connection points: 2
#     Edge 45, Type (0, 0), BuildingBlock: XIVTED_clean_linker_0, # of connection points: 2
#     Edge 46, Type (0, 0), BuildingBlock: XIVTED_clean_linker_0, # of connection points: 2
#     Edge 47, Type (0, 0), BuildingBlock: XIVTED_clean_linker_0, # of connection points: 2
#     Edge 48, Type (0, 0), BuildingBlock: XIVTED_clean_linker_0, # of connection points: 2
#     Edge 49, Type (0, 0), BuildingBlock: XIVTED_clean_linker_0, # of connection points: 2
#     Edge 50, Type (0, 0), BuildingBlock: XIVTED_clean_linker_0, # of connection points: 2
#     Edge 51, Type (0, 0), BuildingBlock: XIVTED_clean_linker_0, # of connection points: 2
#     Edge 52, Type (0, 0), BuildingBlock: XIVTED_clean_linker_0, # of connection points: 2
#     Edge 53, Type (0, 0), BuildingBlock: XIVTED_clean_linker_0, # of connection points: 2
#     Edge 54, Type (0, 0), BuildingBlock: XIVTED_clean_linker_0, # of connection points: 2
#     Edge 55, Type (0, 0), BuildingBlock: XIVTED_clean_linker_0, # of connection points: 2
# Relax obj value: 0.247
# Max RMSD: 0.242
# Mean RMSD: 0.242
data_MOF--net-yfy--node1-XOMCOT_clean_sbu_0--edge1-XIVTED_clean_linker_0
_symmetry_space_group_name_H-M    P1
_symmetry_Int_Tables_number       1
_symmetry_cell_setting            triclinic
loop_
_symmetry_equiv_pos_as_xyz
'x, y, z'
_cell_length_a     43.993539
_cell_length_b     44.002232
_cell_length_c     49.657465
_cell_angle_alpha  89.784377
_cell_angle_beta   90.025041
_cell_angle_gamma 89.851326
loop_
_atom_site_label
_atom_site_type_symbol
_atom_site_fract_x
_atom_site_fract_y
_atom_site_fract_z
_atom_type_partial_charge
Co0 Co 0.02952 0.30197 0.32087 0.0
C1 C 0.98511 0.25036 0.31898 0.0
C2 C 0.9674 0.29047 0.3003 0.0
C3 C 0.94779 0.26708 0.29533 0.0
N4 N 0.99084 0.2805 0.31563 0.0
N5 N 0.95903 0.24167 0.30669 0.0
H6 H 1.00069 0.23459 0.32849 0.0
H7 H 0.9654 0.31237 0.29082 0.0
C8 C 0.98974 0.35715 0.31427 0.0
O9 O 0.97576 0.34911 0.33652 0.0
N10 N 0.06802 0.32279 0.32389 0.0
C11 C 0.09006 0.31862 0.34238 0.0
C12 C 0.11529 0.33495 0.3345 0.0
C13 C 0.08017 0.34106 0.30492 0.0
N14 N 0.10908 0.34893 0.31084 0.0
C15 C 0.01085 0.29099 0.37499 0.0
C16 C 0.03141 0.34545 0.39575 0.0
C17 C 0.02524 0.32139 0.4135 0.0
C18 C 0.01352 0.29441 0.40284 0.0
C19 C 0.02856 0.34105 0.36792 0.0
N20 N 0.01945 0.31362 0.35777 0.0
H21 H 1.0045 0.26903 0.36736 0.0
H22 H 0.03594 0.35896 0.35448 0.0
H23 H 0.08824 0.30395 0.35983 0.0
H24 H 0.06822 0.34775 0.2868 0.0
O25 O 0.0493 0.26475 0.33047 0.0
O26 O 0.04554 0.28211 0.28865 0.0
O27 O 0.01112 0.34051 0.30467 0.0
C28 C 0.05587 0.26134 0.30525 0.0
H29 H 0.92749 0.26853 0.28306 0.0
H30 H 0.13693 0.33538 0.34486 0.0
H31 H 0.04062 0.36666 0.4031 0.0
H32 H 0.00812 0.27535 0.41584 0.0
Co33 Co 0.79578 0.02764 0.32044 0.0
C34 C 0.84525 0.98311 0.30755 0.0
C35 C 0.80488 0.96165 0.32249 0.0
C36 C 0.8255 0.9394 0.31569 0.0
N37 N 0.8172 0.9891 0.3174 0.0
N38 N 0.85085 0.95291 0.30625 0.0
H39 H 0.86103 1.00024 0.30071 0.0
H40 H 0.7822 0.95805 0.33024 0.0
C41 C 0.73184 0.01301 0.29865 0.0
O42 O 0.72036 0.03865 0.30741 0.0
N43 N 0.77478 0.06638 0.32265 0.0
C44 C 0.77345 0.08547 0.34383 0.0
C45 C 0.75941 0.11209 0.33572 0.0
C46 C 0.76299 0.08218 0.30177 0.0
N47 N 0.75261 0.10968 0.30936 0.0
C48 C 0.80473 0.01013 0.37451 0.0
C49 C 0.74711 0.02362 0.39313 0.0
C50 C 0.77104 0.02104 0.41163 0.0
C51 C 0.79973 0.01244 0.40212 0.0
C52 C 0.75314 0.02115 0.36551 0.0
N53 N 0.7821 0.01636 0.35648 0.0
H54 H 0.82765 1.00609 0.36754 0.0
H55 H 0.73505 0.02616 0.35179 0.0
H56 H 0.78235 0.08057 0.36368 0.0
H57 H 0.76156 0.07348 0.28144 0.0
O58 O 0.83202 0.04788 0.33182 0.0
O59 O 0.81762 0.04386 0.28922 0.0
O60 O 0.76 1.00661 0.3022 0.0
C61 C 0.83689 0.05469 0.30682 0.0
H62 H 0.82212 0.91514 0.31769 0.0
H63 H 0.75401 0.1314 0.3483 0.0
H64 H 0.72455 0.03016 0.39969 0.0
H65 H 0.81871 0.00958 0.41581 0.0
Co66 Co 0.06742 0.79626 0.30601 0.0
C67 C 0.112 0.84823 0.3013 0.0
C68 C 0.11917 0.81273 0.27273 0.0
C69 C 0.13856 0.83596 0.26668 0.0
N70 N 0.10307 0.81962 0.29503 0.0
N71 N 0.134 0.85858 0.28442 0.0
H72 H 0.1011 0.86214 0.31635 0.0
H73 H 0.11579 0.79287 0.26037 0.0
C74 C 0.1151 0.74978 0.29887 0.0
O75 O 0.13085 0.76708 0.31526 0.0
N76 N 0.03147 0.7732 0.31448 0.0
C77 C 0.01197 0.77674 0.33515 0.0
C78 C 0.98662 0.75912 0.3303 0.0
C79 C 0.01785 0.75395 0.29738 0.0
N80 N 0.99031 0.74509 0.30637 0.0
C81 C 0.08601 0.81287 0.35944 0.0
C82 C 0.08119 0.75499 0.38089 0.0
C83 C 0.08322 0.77969 0.39853 0.0
C84 C 0.08681 0.80884 0.38739 0.0
C85 C 0.08031 0.76002 0.35312 0.0
N86 N 0.08205 0.78877 0.3426 0.0
H87 H 0.08572 0.83571 0.35167 0.0
H88 H 0.0756 0.74088 0.34023 0.0
H89 H 0.01529 0.79211 0.35184 0.0
H90 H 0.02751 0.74765 0.27816 0.0
O91 O 0.04577 0.8331 0.31342 0.0
O92 O 0.04681 0.81063 0.27351 0.0
O93 O 0.08795 0.75767 0.29237 0.0
C94 C 0.03677 0.83275 0.2886 0.0
H95 H 0.1541 0.83631 0.24982 0.0
H96 H 0.96637 0.75813 0.34263 0.0
H97 H 0.07866 0.73202 0.38846 0.0
H98 H 0.08785 0.82875 0.4001 0.0
Co99 Co 0.30411 0.06899 0.3121 0.0
C100 C 0.25248 0.114 0.30805 0.0
C101 C 0.28924 0.124 0.28141 0.0
C102 C 0.26579 0.14339 0.27556 0.0
N103 N 0.28167 0.10603 0.30247 0.0
N104 N 0.24239 0.137 0.29205 0.0
H105 H 0.23796 0.10158 0.32173 0.0
H106 H 0.30946 0.12174 0.26927 0.0
C107 C 0.35332 0.11384 0.30441 0.0
O108 O 0.33839 0.1298 0.32242 0.0
N109 N 0.32597 0.03166 0.31939 0.0
C110 C 0.31931 0.01046 0.33814 0.0
C111 C 0.33631 0.98474 0.33298 0.0
C112 C 0.34692 0.01872 0.30322 0.0
N113 N 0.35362 0.99009 0.31108 0.0
C114 C 0.28968 0.08892 0.36533 0.0
C115 C 0.34618 0.07613 0.38711 0.0
C116 C 0.32131 0.07977 0.40443 0.0
C117 C 0.29314 0.08771 0.39325 0.0
C118 C 0.3417 0.0774 0.35921 0.0
N119 N 0.3134 0.08254 0.34858 0.0
H120 H 0.26715 0.09201 0.35742 0.0
H121 H 0.36046 0.0714 0.3462 0.0
H122 H 0.30223 0.01301 0.35364 0.0
H123 H 0.35556 0.02927 0.28505 0.0
O124 O 0.26692 0.04914 0.321 0.0
O125 O 0.28698 0.0496 0.28009 0.0
O126 O 0.34298 0.08784 0.29724 0.0
C127 C 0.26525 0.0405 0.29618 0.0
H128 H 0.26571 0.15999 0.25944 0.0
H129 H 0.3354 0.96347 0.34398 0.0
H130 H 0.36829 0.06974 0.39491 0.0
H131 H 0.27339 0.09098 0.40595 0.0
Co132 Co 0.03143 0.79721 0.68532 0.0
C133 C 0.98824 0.84845 0.69691 0.0
C134 C 0.96558 0.80736 0.68543 0.0
C135 C 0.94393 0.82882 0.69162 0.0
N136 N 0.99341 0.81953 0.68885 0.0
N137 N 0.95819 0.85461 0.69886 0.0
H138 H 1.00585 0.86458 0.70182 0.0
H139 H 0.9613 0.78429 0.67905 0.0
C140 C 0.01566 0.73328 0.70648 0.0
O141 O 0.04088 0.72149 0.69705 0.0
N142 N 0.06963 0.77519 0.68271 0.0
C143 C 0.08792 0.77215 0.66112 0.0
C144 C 0.11405 0.75715 0.66896 0.0
C145 C 0.08564 0.7636 0.70359 0.0
N146 N 0.1125 0.75161 0.6957 0.0
C147 C 0.01334 0.80808 0.63182 0.0
C148 C 0.02599 0.75115 0.6114 0.0
C149 C 0.02352 0.77588 0.5936 0.0
C150 C 0.01522 0.80418 0.60407 0.0
C151 C 0.02377 0.75605 0.63925 0.0
N152 N 0.01954 0.78471 0.64914 0.0
H153 H 0.00969 0.83078 0.63942 0.0
H154 H 0.02862 0.73736 0.65248 0.0
H155 H 0.08294 0.78072 0.64115 0.0
H156 H 0.07716 0.76316 0.72403 0.0
O157 O 0.05258 0.83309 0.67427 0.0
O158 O 0.04817 0.8181 0.71673 0.0
O159 O 0.00974 0.76161 0.70336 0.0
C160 C 0.05944 0.8374 0.69931 0.0
H161 H 0.91955 0.82578 0.69059 0.0
H162 H 0.13291 0.75124 0.656 0.0
H163 H 0.03218 0.72881 0.6041 0.0
H164 H 0.01227 0.82374 0.59099 0.0
Co165 Co 0.30568 0.03267 0.69311 0.0
C166 C 0.2546 0.9875 0.69464 0.0
C167 C 0.29248 0.97388 0.71882 0.0
C168 C 0.26913 0.95411 0.72357 0.0
N169 N 0.28401 0.99459 0.70008 0.0
N170 N 0.24508 0.96278 0.70866 0.0
H171 H 0.23968 1.00146 0.68247 0.0
H172 H 0.31314 0.9743 0.73046 0.0
C173 C 0.35831 0.99045 0.70002 0.0
O174 O 0.3474 0.97496 0.67965 0.0
N175 N 0.3269 0.07072 0.68829 0.0
C176 C 0.32079 0.09305 0.67042 0.0
C177 C 0.33825 0.11803 0.67679 0.0
C178 C 0.34787 0.08226 0.70518 0.0
N179 N 0.35525 0.11108 0.6986 0.0
C180 C 0.29379 0.01401 0.63898 0.0
C181 C 0.35043 0.02883 0.6188 0.0
C182 C 0.3267 0.02317 0.60061 0.0
C183 C 0.29835 0.01466 0.61116 0.0
C184 C 0.34484 0.02813 0.64652 0.0
N185 N 0.31658 0.0214 0.65637 0.0
H186 H 0.27114 0.01004 0.64633 0.0
H187 H 0.36284 0.03488 0.66005 0.0
H188 H 0.30406 0.09162 0.65451 0.0
H189 H 0.3563 0.07042 0.72282 0.0
O190 O 0.26822 0.05253 0.68419 0.0
O191 O 0.28732 0.04969 0.72547 0.0
O192 O 0.34429 0.01408 0.7086 0.0
C193 C 0.26593 0.05967 0.70939 0.0
H194 H 0.26955 0.9356 0.73796 0.0
H195 H 0.33807 0.13978 0.66653 0.0
H196 H 0.37286 0.03506 0.61175 0.0
H197 H 0.27905 0.01067 0.59812 0.0
Co198 Co 0.06654 0.3043 0.70262 0.0
C199 C 0.11337 0.25327 0.70517 0.0
C200 C 0.11657 0.28615 0.73666 0.0
C201 C 0.13704 0.26352 0.74192 0.0
N202 N 0.10217 0.28056 0.7132 0.0
N203 N 0.13521 0.24272 0.72218 0.0
H204 H 0.10484 0.24055 0.68829 0.0
H205 H 0.11122 0.30465 0.75012 0.0
C206 C 0.11488 0.34987 0.71095 0.0
O207 O 0.13067 0.33288 0.69431 0.0
N208 N 0.03071 0.32807 0.69486 0.0
C209 C 0.01074 0.32559 0.67443 0.0
C210 C 0.98585 0.34377 0.68005 0.0
C211 C 0.01784 0.34725 0.71254 0.0
N212 N 0.99031 0.35709 0.70421 0.0
C213 C 0.08331 0.28788 0.64887 0.0
C214 C 0.08063 0.34597 0.62767 0.0
C215 C 0.08157 0.32127 0.60988 0.0
C216 C 0.08395 0.29198 0.62097 0.0
C217 C 0.07999 0.34086 0.65554 0.0
N218 N 0.08085 0.31199 0.66593 0.0
H219 H 0.08172 0.26503 0.6564 0.0
H220 H 0.07625 0.36009 0.66859 0.0
H221 H 0.01341 0.31062 0.65736 0.0
H222 H 0.02806 0.35285 0.73171 0.0
O223 O 0.04462 0.26774 0.69495 0.0
O224 O 0.04615 0.28946 0.73511 0.0
O225 O 0.08747 0.34235 0.71675 0.0
C226 C 0.03597 0.26759 0.71986 0.0
H227 H 0.15081 0.26168 0.75991 0.0
H228 H 0.96539 0.34567 0.66804 0.0
H229 H 0.07889 0.36905 0.62019 0.0
H230 H 0.08384 0.27203 0.60828 0.0
Co231 Co 0.7956 0.06929 0.69519 0.0
C232 C 0.84703 0.11173 0.70836 0.0
C233 C 0.80639 0.13479 0.69576 0.0
C234 C 0.82774 0.15621 0.70242 0.0
N235 N 0.81832 0.10684 0.69953 0.0
N236 N 0.85326 0.14176 0.71041 0.0
H237 H 0.86291 0.09392 0.71372 0.0
H238 H 0.78351 0.13931 0.68879 0.0
C239 C 0.73212 0.08635 0.71745 0.0
O240 O 0.71886 0.06153 0.70887 0.0
N241 N 0.77301 0.03178 0.69135 0.0
C242 C 0.77001 0.01473 0.66902 0.0
C243 C 0.75515 0.98824 0.67573 0.0
C244 C 0.76124 0.01483 0.71148 0.0
N245 N 0.74953 0.98838 0.70246 0.0
C246 C 0.80557 0.08829 0.6415 0.0
C247 C 0.74654 0.08239 0.62326 0.0
C248 C 0.77005 0.08548 0.60436 0.0
C249 C 0.79972 0.08979 0.61393 0.0
C250 C 0.75341 0.08116 0.65077 0.0
N251 N 0.78283 0.08262 0.65947 0.0
H252 H 0.82887 0.08953 0.64831 0.0
H253 H 0.73527 0.07647 0.66454 0.0
H254 H 0.77868 0.02073 0.64934 0.0
H255 H 0.76087 0.02214 0.73225 0.0
O256 O 0.83146 0.04779 0.68412 0.0
O257 O 0.81578 0.05135 0.72646 0.0
O258 O 0.76049 0.09099 0.71349 0.0
C259 C 0.8352 0.04025 0.70917 0.0
H260 H 0.82479 0.18061 0.70116 0.0
H261 H 0.74956 0.97003 0.66203 0.0
H262 H 0.72322 0.07946 0.61681 0.0
H263 H 0.81873 0.09206 0.60023 0.0
Co264 Co 0.53425 0.80723 0.8178 0.0
C265 C 0.49018 0.75662 0.80726 0.0
C266 C 0.46828 0.79839 0.81824 0.0
C267 C 0.44624 0.77719 0.81276 0.0
N268 N 0.49588 0.78565 0.81466 0.0
N269 N 0.46 0.75097 0.80582 0.0
H270 H 0.50751 0.74002 0.80254 0.0
H271 H 0.46441 0.82161 0.82442 0.0
C272 C 0.52029 0.87008 0.79267 0.0
O273 O 0.54707 0.88135 0.7983 0.0
N274 N 0.57293 0.82825 0.82066 0.0
C275 C 0.59005 0.83168 0.84296 0.0
C276 C 0.61697 0.84545 0.8359 0.0
C277 C 0.59056 0.83814 0.80019 0.0
N278 N 0.61716 0.84983 0.80898 0.0
C279 C 0.51618 0.80012 0.87231 0.0
C280 C 0.52593 0.85965 0.88765 0.0
C281 C 0.52236 0.8373 0.90757 0.0
C282 C 0.51588 0.80751 0.89963 0.0
C283 C 0.5254 0.8514 0.86049 0.0
N284 N 0.52233 0.82164 0.85324 0.0
H285 H 0.5137 0.77659 0.86655 0.0
H286 H 0.53054 0.8685 0.84568 0.0
H287 H 0.58369 0.82428 0.86296 0.0
H288 H 0.58336 0.83781 0.77936 0.0
O289 O 0.55487 0.77088 0.82919 0.0
O290 O 0.55049 0.78595 0.78665 0.0
O291 O 0.51313 0.84288 0.79932 0.0
C292 C 0.56171 0.76662 0.80406 0.0
H293 H 0.42193 0.78068 0.81418 0.0
H294 H 0.63506 0.8515 0.84962 0.0
H295 H 0.53083 0.88296 0.89306 0.0
H296 H 0.51308 0.78957 0.91442 0.0
Co297 Co 0.29439 0.5394 0.81983 0.0
C298 C 0.34585 0.49669 0.80656 0.0
C299 C 0.30648 0.47414 0.82235 0.0
C300 C 0.32756 0.45247 0.81537 0.0
N301 N 0.31778 0.50192 0.81681 0.0
N302 N 0.35226 0.46661 0.80538 0.0
H303 H 0.36101 0.51422 0.79936 0.0
H304 H 0.28409 0.46987 0.83051 0.0
C305 C 0.23081 0.51948 0.79972 0.0
O306 O 0.21677 0.54385 0.80846 0.0
N307 N 0.27098 0.57671 0.82194 0.0
C308 C 0.26846 0.59576 0.843 0.0
C309 C 0.25252 0.62122 0.83486 0.0
C310 C 0.2578 0.59142 0.80106 0.0
N311 N 0.24574 0.61842 0.80846 0.0
C312 C 0.30625 0.52203 0.87369 0.0
C313 C 0.24855 0.53064 0.89427 0.0
C314 C 0.27284 0.52617 0.91221 0.0
C315 C 0.30179 0.52079 0.90146 0.0
C316 C 0.25397 0.53124 0.86642 0.0
N317 N 0.28278 0.5281 0.85648 0.0
H318 H 0.32916 0.51995 0.86605 0.0
H319 H 0.23534 0.53659 0.85329 0.0
H320 H 0.27816 0.59182 0.86273 0.0
H321 H 0.2568 0.58217 0.78093 0.0
O322 O 0.32998 0.56199 0.82948 0.0
O323 O 0.3138 0.55579 0.78754 0.0
O324 O 0.25951 0.51605 0.80293 0.0
C325 C 0.33333 0.56802 0.8041 0.0
H326 H 0.32494 0.42813 0.81759 0.0
H327 H 0.24706 0.64059 0.84733 0.0
H328 H 0.22576 0.53469 0.90169 0.0
H329 H 0.32134 0.51759 0.91443 0.0
Co330 Co 0.5639 0.30328 0.80717 0.0
C331 C 0.60869 0.35531 0.80625 0.0
C332 C 0.61764 0.32099 0.77691 0.0
C333 C 0.63715 0.34458 0.7724 0.0
N334 N 0.60028 0.3269 0.79872 0.0
N335 N 0.63146 0.3664 0.79063 0.0
H336 H 0.59689 0.36868 0.82116 0.0
H337 H 0.61501 0.3017 0.76374 0.0
C338 C 0.61158 0.25672 0.80024 0.0
O339 O 0.62641 0.27289 0.81813 0.0
N340 N 0.52727 0.28011 0.81313 0.0
C341 C 0.50533 0.28522 0.8315 0.0
C342 C 0.48096 0.26666 0.82575 0.0
C343 C 0.51614 0.25864 0.79658 0.0
N344 N 0.4879 0.25 0.80382 0.0
C345 C 0.58158 0.31636 0.86189 0.0
C346 C 0.57214 0.2579 0.88071 0.0
C347 C 0.57555 0.28143 0.89933 0.0
C348 C 0.58159 0.31075 0.88967 0.0
C349 C 0.5728 0.26435 0.85317 0.0
N350 N 0.57658 0.29347 0.84394 0.0
H351 H 0.58296 0.33953 0.85512 0.0
H352 H 0.56769 0.2462 0.8393 0.0
H353 H 0.50652 0.30208 0.84726 0.0
H354 H 0.52775 0.25083 0.77866 0.0
O355 O 0.54233 0.33994 0.81547 0.0
O356 O 0.54504 0.31987 0.77462 0.0
O357 O 0.58495 0.2653 0.79275 0.0
C358 C 0.53463 0.3413 0.79032 0.0
H359 H 0.65356 0.34586 0.75622 0.0
H360 H 0.45955 0.26594 0.83647 0.0
H361 H 0.56737 0.23493 0.88738 0.0
H362 H 0.58384 0.32965 0.90344 0.0
Co363 Co 0.80813 0.57288 0.82025 0.0
C364 C 0.75594 0.61543 0.81092 0.0
C365 C 0.7978 0.63884 0.81835 0.0
C366 C 0.77547 0.66007 0.81325 0.0
N367 N 0.78565 0.6108 0.81673 0.0
N368 N 0.7492 0.64529 0.80858 0.0
H369 H 0.73952 0.59753 0.80803 0.0
H370 H 0.82135 0.64357 0.82292 0.0
C371 C 0.87143 0.58771 0.79733 0.0
O372 O 0.88313 0.56244 0.80685 0.0
N373 N 0.83001 0.53466 0.82306 0.0
C374 C 0.83353 0.51695 0.84504 0.0
C375 C 0.84826 0.49061 0.8376 0.0
C376 C 0.84091 0.51805 0.80237 0.0
N377 N 0.85315 0.49146 0.81075 0.0
C378 C 0.79929 0.59121 0.87387 0.0
C379 C 0.85718 0.57891 0.89261 0.0
C380 C 0.83312 0.5807 0.91105 0.0
C381 C 0.80433 0.58894 0.90148 0.0
C382 C 0.85112 0.58145 0.86494 0.0
N383 N 0.82199 0.5853 0.85589 0.0
H384 H 0.77627 0.59468 0.86692 0.0
H385 H 0.86934 0.57701 0.85121 0.0
H386 H 0.82556 0.5225 0.86502 0.0
H387 H 0.84092 0.52602 0.78173 0.0
O388 O 0.7726 0.55187 0.83241 0.0
O389 O 0.78611 0.55581 0.78958 0.0
O390 O 0.8433 0.59415 0.80105 0.0
C391 C 0.76738 0.54475 0.80756 0.0
H392 H 0.77825 0.6845 0.81336 0.0
H393 H 0.85459 0.47219 0.85097 0.0
H394 H 0.87985 0.5728 0.89926 0.0
H395 H 0.78526 0.59126 0.91513 0.0
Co396 Co 0.53861 0.29204 0.1892 0.0
C397 C 0.49352 0.34126 0.20219 0.0
C398 C 0.47277 0.30114 0.18615 0.0
C399 C 0.45018 0.32126 0.19309 0.0
N400 N 0.50001 0.31357 0.19183 0.0
N401 N 0.4632 0.34644 0.20325 0.0
H402 H 0.51034 0.35701 0.2096 0.0
H403 H 0.46953 0.27866 0.17792 0.0
C404 C 0.51947 0.22726 0.20796 0.0
O405 O 0.543 0.21308 0.19772 0.0
N406 N 0.57704 0.27051 0.18777 0.0
C407 C 0.59885 0.27308 0.1688 0.0
C408 C 0.62445 0.25772 0.17751 0.0
C409 C 0.58995 0.25458 0.20803 0.0
N410 N 0.61857 0.24598 0.20205 0.0
C411 C 0.51938 0.30258 0.13525 0.0
C412 C 0.53796 0.2476 0.11415 0.0
C413 C 0.5294 0.27101 0.09653 0.0
C414 C 0.51896 0.29838 0.10739 0.0
C415 C 0.53723 0.25245 0.14199 0.0
N416 N 0.52892 0.28001 0.1523 0.0
H417 H 0.51395 0.32485 0.14299 0.0
H418 H 0.54607 0.23488 0.15476 0.0
H419 H 0.5965 0.28579 0.15023 0.0
H420 H 0.57884 0.24994 0.22705 0.0
O421 O 0.55963 0.32874 0.1799 0.0
O422 O 0.55333 0.31185 0.22171 0.0
O423 O 0.51653 0.25614 0.20589 0.0
C424 C 0.56508 0.33202 0.20539 0.0
H425 H 0.426 0.31766 0.19073 0.0
H426 H 0.64563 0.25521 0.16665 0.0
H427 H 0.54639 0.22618 0.10643 0.0
H428 H 0.51258 0.31717 0.09438 0.0
Co429 Co 0.80496 0.53219 0.19436 0.0
C430 C 0.75285 0.48996 0.2052 0.0
C431 C 0.79436 0.46656 0.19588 0.0
C432 C 0.77235 0.44531 0.20139 0.0
N433 N 0.7823 0.49459 0.19845 0.0
N434 N 0.7463 0.46003 0.20727 0.0
H435 H 0.73655 0.50788 0.20886 0.0
H436 H 0.81761 0.46184 0.19022 0.0
C437 C 0.86782 0.51691 0.21896 0.0
O438 O 0.87988 0.54294 0.2119 0.0
N439 N 0.82709 0.57001 0.19052 0.0
C440 C 0.83096 0.58647 0.16785 0.0
C441 C 0.84568 0.61303 0.17428 0.0
C442 C 0.83774 0.58765 0.21058 0.0
N443 N 0.85025 0.61361 0.20117 0.0
C444 C 0.79663 0.51354 0.14044 0.0
C445 C 0.85633 0.51951 0.12394 0.0
C446 C 0.83349 0.51672 0.10435 0.0
C447 C 0.80347 0.51235 0.11306 0.0
C448 C 0.84848 0.52038 0.15126 0.0
N449 N 0.81873 0.51897 0.15905 0.0
H450 H 0.7731 0.51232 0.14659 0.0
H451 H 0.86609 0.52488 0.16568 0.0
H452 H 0.82328 0.5799 0.14803 0.0
H453 H 0.83743 0.58085 0.23153 0.0
O454 O 0.76916 0.55358 0.18261 0.0
O455 O 0.78402 0.55 0.22519 0.0
O456 O 0.84017 0.5105 0.21322 0.0
C457 C 0.76495 0.56118 0.20755 0.0
H458 H 0.77514 0.42088 0.20059 0.0
H459 H 0.85232 0.63059 0.16017 0.0
H460 H 0.87987 0.52249 0.11817 0.0
H461 H 0.78496 0.51029 0.09881 0.0
Co462 Co 0.56655 0.8051 0.19221 0.0
C463 C 0.61102 0.75392 0.19994 0.0
C464 C 0.6327 0.79627 0.19056 0.0
C465 C 0.65486 0.77473 0.19518 0.0
N466 N 0.60516 0.78335 0.19366 0.0
N467 N 0.64121 0.74814 0.20111 0.0
H468 H 0.59381 0.73712 0.20423 0.0
H469 H 0.63646 0.8199 0.18552 0.0
C470 C 0.58188 0.86794 0.2161 0.0
O471 O 0.55614 0.8799 0.20799 0.0
N472 N 0.52771 0.82627 0.19178 0.0
C473 C 0.50796 0.82928 0.17114 0.0
C474 C 0.48222 0.844 0.18032 0.0
C475 C 0.51299 0.83751 0.21343 0.0
N476 N 0.48573 0.84947 0.20683 0.0
C477 C 0.58541 0.8001 0.13774 0.0
C478 C 0.57037 0.85837 0.12161 0.0
C479 C 0.57706 0.83659 0.10203 0.0
C480 C 0.58593 0.8075 0.11037 0.0
C481 C 0.5709 0.85023 0.14885 0.0
N482 N 0.57703 0.82102 0.15663 0.0
H483 H 0.58972 0.7768 0.14359 0.0
H484 H 0.56361 0.86685 0.1631 0.0
H485 H 0.512 0.82146 0.15083 0.0
H486 H 0.52255 0.83786 0.23353 0.0
O487 O 0.54587 0.76953 0.1797 0.0
O488 O 0.55133 0.78164 0.22276 0.0
O489 O 0.58813 0.83992 0.21159 0.0
C490 C 0.53989 0.76338 0.20468 0.0
H491 H 0.67916 0.77832 0.19407 0.0
H492 H 0.4629 0.85105 0.16829 0.0
H493 H 0.56336 0.8811 0.11584 0.0
H494 H 0.59098 0.78996 0.09578 0.0
Co495 Co 0.29971 0.55817 0.20207 0.0
C496 C 0.34974 0.606 0.20309 0.0
C497 C 0.31787 0.60795 0.23562 0.0
C498 C 0.33977 0.62925 0.24009 0.0
N499 N 0.32345 0.59358 0.21223 0.0
N500 N 0.35991 0.6283 0.21969 0.0
H501 H 0.3618 0.59839 0.18544 0.0
H502 H 0.3001 0.60191 0.24964 0.0
C503 C 0.2342 0.57712 0.21839 0.0
O504 O 0.22101 0.55334 0.20767 0.0
N505 N 0.27571 0.52237 0.19438 0.0
C506 C 0.27082 0.50753 0.17107 0.0
C507 C 0.25319 0.48221 0.17643 0.0
C508 C 0.26208 0.50539 0.2135 0.0
N509 N 0.24783 0.48098 0.20319 0.0
C510 C 0.31719 0.57224 0.14831 0.0
C511 C 0.2595 0.57855 0.1271 0.0
C512 C 0.28395 0.5737 0.10951 0.0
C513 C 0.31324 0.57235 0.12045 0.0
C514 C 0.26449 0.57852 0.15504 0.0
N515 N 0.29294 0.57363 0.16544 0.0
H516 H 0.33976 0.56812 0.15584 0.0
H517 H 0.24495 0.57972 0.16783 0.0
H518 H 0.27961 0.51428 0.15163 0.0
H519 H 0.26176 0.51152 0.23458 0.0
O520 O 0.33596 0.53544 0.19455 0.0
O521 O 0.3144 0.53781 0.23476 0.0
O522 O 0.26302 0.58081 0.2168 0.0
C523 C 0.33617 0.52724 0.21957 0.0
H524 H 0.34154 0.64313 0.25795 0.0
H525 H 0.24533 0.46579 0.16184 0.0
H526 H 0.23644 0.5799 0.11954 0.0
H527 H 0.33293 0.56937 0.10763 0.0
H528 H 0.05615 0.27863 0.44245 0.0
H529 H 0.04462 0.36273 0.58378 0.0
H530 H 0.01598 0.36771 0.45005 0.0
H531 H 0.10682 0.28879 0.5681 0.0
H532 H 0.03246 0.36488 0.53576 0.0
H533 H 0.0722 0.28095 0.48939 0.0
C534 C 0.05044 0.29861 0.4541 0.0
C535 C 0.03434 0.32287 0.44236 0.0
C536 C 0.04898 0.3484 0.54284 0.0
C537 C 0.05306 0.32583 0.49631 0.0
C538 C 0.05619 0.34728 0.57029 0.0
C539 C 0.07674 0.32538 0.58026 0.0
C540 C 0.0621 0.32727 0.52517 0.0
C541 C 0.0904 0.30565 0.56161 0.0
C542 C 0.05991 0.30005 0.48087 0.0
C543 C 0.02828 0.34848 0.45832 0.0
N544 N 0.08263 0.30688 0.53512 0.0
N545 N 0.03742 0.3492 0.48456 0.0
H546 H 0.79603 0.11558 0.56166 0.0
H547 H 0.72585 1.00717 0.44823 0.0
H548 H 0.73217 0.04416 0.58017 0.0
H549 H 0.80778 0.05976 0.43876 0.0
H550 H 0.72134 0.0261 0.4947 0.0
H551 H 0.79335 0.10165 0.51419 0.0
C552 C 0.78123 0.09714 0.55574 0.0
C553 C 0.76461 0.08081 0.57507 0.0
C554 C 0.74027 0.03343 0.48237 0.0
C555 C 0.76137 0.06475 0.5206 0.0
C556 C 0.74283 0.02265 0.45594 0.0
C557 C 0.76751 0.03149 0.43984 0.0
C558 C 0.76222 0.05361 0.49244 0.0
C559 C 0.78878 0.0518 0.45068 0.0
C560 C 0.77971 0.08919 0.52862 0.0
C561 C 0.74528 0.05753 0.56603 0.0
N562 N 0.78563 0.06215 0.47622 0.0
N563 N 0.7444 0.05001 0.53948 0.0
H564 H 0.00951 0.73185 0.55606 0.0
H565 H 0.11066 0.80981 0.4405 0.0
H566 H 0.06093 0.81432 0.56646 0.0
H567 H 0.04374 0.74068 0.42404 0.0
H568 H 0.09773 0.8067 0.48825 0.0
H569 H 0.02666 0.72984 0.50891 0.0
C570 C 0.02439 0.74946 0.54843 0.0
C571 C 0.03337 0.77356 0.56505 0.0
C572 C 0.08601 0.79206 0.47419 0.0
C573 C 0.05334 0.77124 0.51149 0.0
C574 C 0.09336 0.79387 0.44688 0.0
C575 C 0.07821 0.77563 0.42804 0.0
C576 C 0.06335 0.77183 0.4829 0.0
C577 C 0.05635 0.75498 0.43774 0.0
C578 C 0.03413 0.74835 0.52158 0.0
C579 C 0.05284 0.79572 0.55421 0.0
N580 N 0.04947 0.75376 0.46443 0.0
N581 N 0.06212 0.79402 0.5282 0.0
H582 H 0.36065 0.06762 0.57554 0.0
H583 H 0.2831 0.0432 0.43277 0.0
H584 H 0.30063 0.99268 0.55809 0.0
H585 H 0.36497 0.09595 0.44165 0.0
H586 H 0.28707 0.02757 0.47981 0.0
H587 H 0.36168 0.08033 0.52762 0.0
C588 C 0.34809 0.05345 0.56169 0.0
C589 C 0.33035 0.02904 0.57113 0.0
C590 C 0.30421 0.04255 0.47153 0.0
C591 C 0.33081 0.04422 0.51616 0.0
C592 C 0.30178 0.05177 0.44474 0.0
C593 C 0.32353 0.07124 0.43336 0.0
C594 C 0.32842 0.05308 0.48733 0.0
C595 C 0.34767 0.081 0.44968 0.0
C596 C 0.34853 0.06094 0.5343 0.0
C597 C 0.31412 0.01205 0.55202 0.0
N598 N 0.34934 0.07202 0.47594 0.0
N599 N 0.3145 0.02014 0.52558 0.0
H600 H 0.57314 0.86455 0.92726 0.0
H601 H 0.61607 0.83032 0.05947 0.0
H602 H 0.48876 0.82384 0.95263 0.0
H603 H 0.52396 0.85524 0.07928 0.0
H604 H 0.60352 0.83541 0.01143 0.0
H605 H 0.58842 0.86901 0.97458 0.0
C606 C 0.55761 0.85706 0.94284 0.0
C607 C 0.52965 0.8438 0.93611 0.0
C608 C 0.58626 0.84038 0.02632 0.0
C609 C 0.54715 0.84842 0.99004 0.0
C610 C 0.59337 0.83734 0.05363 0.0
C611 C 0.57109 0.84275 0.0732 0.0
C612 C 0.55647 0.84816 0.01864 0.0
C613 C 0.54186 0.85136 0.06472 0.0
C614 C 0.56652 0.85925 0.96975 0.0
C615 C 0.51055 0.83408 0.95704 0.0
N616 N 0.53522 0.85331 0.03802 0.0
N617 N 0.51961 0.83667 0.98314 0.0
H618 H 0.29779 0.49137 0.95244 0.0
H619 H 0.24512 0.60104 0.0727 0.0
H620 H 0.23995 0.56942 0.93963 0.0
H621 H 0.31099 0.52873 0.08049 0.0
H622 H 0.23832 0.58742 0.02504 0.0
H623 H 0.29774 0.50185 1.00062 0.0
C624 C 0.28486 0.51061 0.9598 0.0
C625 C 0.26908 0.52967 0.94187 0.0
C626 C 0.25425 0.57459 0.03725 0.0
C627 C 0.26901 0.54201 0.99728 0.0
C628 C 0.25811 0.58234 0.06443 0.0
C629 C 0.27905 0.56637 0.08054 0.0
C630 C 0.27119 0.55047 0.02624 0.0
C631 C 0.29517 0.54223 0.06876 0.0
C632 C 0.28484 0.51662 0.98736 0.0
C633 C 0.25231 0.554 0.9527 0.0
N634 N 0.29093 0.5351 0.04246 0.0
N635 N 0.25294 0.55966 0.97966 0.0
H636 H 0.52589 0.25378 0.92095 0.0
H637 H 0.48823 0.27938 0.05585 0.0
H638 H 0.60963 0.29767 0.94342 0.0
H639 H 0.58247 0.25816 0.07067 0.0
H640 H 0.49851 0.27924 0.00721 0.0
H641 H 0.51297 0.24828 0.96872 0.0
C642 C 0.5417 0.26197 0.93599 0.0
C643 C 0.56888 0.27621 0.92828 0.0
C644 C 0.51681 0.27411 0.02111 0.0
C645 C 0.55408 0.27027 0.98284 0.0
C646 C 0.51096 0.27431 0.04878 0.0
C647 C 0.53446 0.26837 0.06714 0.0
C648 C 0.5465 0.26862 0.01185 0.0
C649 C 0.56367 0.26235 0.05706 0.0
C650 C 0.53414 0.25913 0.96317 0.0
C651 C 0.5884 0.2867 0.94857 0.0
N652 N 0.56899 0.26305 0.03007 0.0
N653 N 0.58072 0.28333 0.97498 0.0
H654 H 0.87206 0.55844 0.08126 0.0
H655 H 0.79733 0.53979 0.93663 0.0
H656 H 0.809 0.48714 0.06085 0.0
H657 H 0.87686 0.59513 0.94897 0.0
H658 H 0.80164 0.52098 0.9826 0.0
H659 H 0.87573 0.57191 0.0335 0.0
C660 C 0.85948 0.54516 0.06674 0.0
C661 C 0.83993 0.52175 0.07522 0.0
C662 C 0.81827 0.53716 0.97536 0.0
C663 C 0.84351 0.53763 0.02056 0.0
C664 C 0.81564 0.54816 0.94916 0.0
C665 C 0.83647 0.56947 0.93913 0.0
C666 C 0.84178 0.54767 0.99198 0.0
C667 C 0.86022 0.57887 0.95603 0.0
C668 C 0.86143 0.55306 0.03947 0.0
C669 C 0.82388 0.50572 0.0554 0.0
N670 N 0.86205 0.56816 0.9818 0.0
N671 N 0.82577 0.51418 0.02913 0.0
H672 H 0.06641 0.20896 0.33241 0.0
H673 H 0.21652 0.16782 0.24994 0.0
H674 H 0.09475 0.25853 0.26171 0.0
H675 H 0.19883 0.13709 0.33114 0.0
H676 H 0.16771 0.19386 0.24959 0.0
H677 H 0.10942 0.17456 0.32685 0.0
C678 C 0.08139 0.21223 0.31534 0.0
C679 C 0.07716 0.23682 0.29759 0.0
C680 C 0.17446 0.1813 0.26742 0.0
C681 C 0.12684 0.19763 0.29137 0.0
C682 C 0.20256 0.16652 0.26781 0.0
C683 C 0.21237 0.15052 0.29088 0.0
C684 C 0.15567 0.17998 0.29015 0.0
C685 C 0.19244 0.14904 0.31292 0.0
C686 C 0.10607 0.19266 0.3123 0.0
C687 C 0.09714 0.23982 0.27577 0.0
N688 N 0.16516 0.16372 0.31205 0.0
N689 N 0.12141 0.22065 0.27345 0.0
H690 H 0.84111 0.09425 0.26389 0.0
H691 H 0.96655 0.19313 0.3402 0.0
H692 H 0.88798 0.06491 0.33573 0.0
H693 H 0.92414 0.22055 0.26557 0.0
H694 H 0.94242 0.14327 0.33594 0.0
H695 H 0.87606 0.13759 0.26057 0.0
C696 C 0.85927 0.09646 0.27849 0.0
C697 C 0.86154 0.07618 0.30021 0.0
C698 C 0.93856 0.16017 0.32039 0.0
C699 C 0.90104 0.12585 0.29702 0.0
C700 C 0.95242 0.18862 0.32283 0.0
C701 C 0.94694 0.21137 0.30356 0.0
C702 C 0.91903 0.15439 0.29853 0.0
C703 C 0.92835 0.20415 0.2814 0.0
C704 C 0.87903 0.12133 0.27679 0.0
C705 C 0.88525 0.08025 0.3188 0.0
N706 N 0.91489 0.17648 0.27964 0.0
N707 N 0.90378 0.10478 0.31698 0.0
H708 H 0.85561 0.89712 0.28331 0.0
H709 H 0.03453 0.89272 0.29982 0.0
H710 H 0.90859 0.97462 0.30774 0.0
H711 H 0.98461 0.82154 0.26035 0.0
H712 H 0.98948 0.92517 0.29798 0.0
H713 H 0.90253 0.87064 0.27105 0.0
C714 C 0.87711 0.90861 0.28603 0.0
C715 C 0.87815 0.93802 0.29693 0.0
C716 C 0.98843 0.90276 0.2891 0.0
C717 C 0.93204 0.90787 0.28273 0.0
C718 C 0.01424 0.88433 0.28998 0.0
C719 C 0.01322 0.85457 0.28006 0.0
C720 C 0.96111 0.89105 0.27889 0.0
C721 C 0.98635 0.84454 0.26786 0.0
C722 C 0.90389 0.89357 0.27879 0.0
C723 C 0.90664 0.95202 0.29941 0.0
N724 N 0.9611 0.86255 0.26809 0.0
N725 N 0.93243 0.93669 0.29271 0.0
H726 H 0.26324 1.00082 0.25319 0.0
H727 H 0.13703 0.90014 0.32494 0.0
H728 H 0.21271 0.03029 0.32286 0.0
H729 H 0.16471 0.88497 0.24259 0.0
H730 H 0.16495 0.94804 0.3244 0.0
H731 H 0.22735 0.9584 0.24796 0.0
C732 C 0.24425 0.99879 0.26695 0.0
C733 C 0.2411 0.01888 0.2886 0.0
C734 C 0.16471 0.93424 0.30639 0.0
C735 C 0.20062 0.97032 0.28324 0.0
C736 C 0.14867 0.90685 0.30669 0.0
C737 C 0.14869 0.88798 0.28397 0.0
C738 C 0.1812 0.94278 0.28331 0.0
C739 C 0.16453 0.89807 0.26093 0.0
C740 C 0.22392 0.9745 0.26412 0.0
C741 C 0.21624 0.01507 0.30605 0.0
N742 N 0.18036 0.92453 0.2613 0.0
N743 N 0.19727 0.99107 0.30323 0.0
H744 H 0.20083 0.9657 0.67039 0.0
H745 H 0.09663 0.84214 0.74381 0.0
H746 H 0.22003 0.93003 0.74971 0.0
H747 H 0.07234 0.88747 0.66968 0.0
H748 H 0.13961 0.8773 0.74873 0.0
H749 H 0.15153 0.94015 0.67156 0.0
C750 C 0.19465 0.95276 0.68813 0.0
C751 C 0.21499 0.94967 0.70973 0.0
C752 C 0.12454 0.87983 0.73161 0.0
C753 C 0.1586 0.92003 0.71119 0.0
C754 C 0.0999 0.85993 0.72897 0.0
C755 C 0.08112 0.86175 0.70622 0.0
C756 C 0.13037 0.9015 0.71129 0.0
C757 C 0.08651 0.88503 0.68739 0.0
C758 C 0.16649 0.93807 0.68879 0.0
C759 C 0.20563 0.93244 0.7322 0.0
N760 N 0.11079 0.90371 0.69017 0.0
N761 N 0.17832 0.91809 0.73223 0.0
H762 H 0.11987 0.19011 0.69633 0.0
H763 H 0.26777 0.10145 0.75023 0.0
H764 H 0.1891 0.23021 0.7465 0.0
H765 H 0.21088 0.06838 0.68602 0.0
H766 H 0.23321 0.14491 0.75559 0.0
H767 H 0.14837 0.14217 0.69717 0.0
C768 C 0.141 0.18897 0.70744 0.0
C769 C 0.1519 0.21437 0.72147 0.0
C770 C 0.22804 0.12786 0.7406 0.0
C771 C 0.18432 0.15937 0.72297 0.0
C772 C 0.24755 0.1029 0.73781 0.0
C773 C 0.24219 0.08146 0.7176 0.0
C774 C 0.20301 0.13121 0.72313 0.0
C775 C 0.2159 0.0846 0.70174 0.0
C776 C 0.15715 0.1615 0.70811 0.0
C777 C 0.17936 0.21124 0.73579 0.0
N778 N 0.19744 0.10914 0.70468 0.0
N779 N 0.19452 0.18435 0.73618 0.0
H780 H 0.91074 0.12009 0.70414 0.0
H781 H 0.98707 0.27571 0.75343 0.0
H782 H 0.85991 0.196 0.73555 0.0
H783 H 0.03235 0.20886 0.70442 0.0
H784 H 0.94312 0.24145 0.75724 0.0
H785 H 0.95801 0.14725 0.71397 0.0
C786 C 0.90952 0.14226 0.71346 0.0
C787 C 0.88131 0.15597 0.71864 0.0
C788 C 0.96297 0.23404 0.74615 0.0
C789 C 0.93529 0.18725 0.72992 0.0
C790 C 0.98815 0.25342 0.74427 0.0
C791 C 0.01324 0.24502 0.72857 0.0
C792 C 0.96317 0.2061 0.7324 0.0
C793 C 0.01332 0.21617 0.71663 0.0
C794 C 0.9365 0.15783 0.71897 0.0
C795 C 0.88113 0.18485 0.73067 0.0
N796 N 0.9886 0.19787 0.7186 0.0
N797 N 0.90765 0.1996 0.73573 0.0
H798 H 0.90491 0.86177 0.72552 0.0
H799 H 0.89172 0.03561 0.68803 0.0
H800 H 0.97883 0.91185 0.68986 0.0
H801 H 0.83127 0.99285 0.74484 0.0
H802 H 0.92566 0.99168 0.69099 0.0
H803 H 0.8787 0.90973 0.73476 0.0
C804 C 0.91568 0.8829 0.71975 0.0
C805 C 0.94393 0.88281 0.7066 0.0
C806 C 0.90535 0.99208 0.7033 0.0
C807 C 0.91407 0.93784 0.71712 0.0
C808 C 0.88604 0.01721 0.70168 0.0
C809 C 0.85878 0.01778 0.71628 0.0
C810 C 0.89693 0.96693 0.71907 0.0
C811 C 0.85229 0.99335 0.73351 0.0
C812 C 0.90083 0.91029 0.72524 0.0
C813 C 0.95711 0.91088 0.70003 0.0
N814 N 0.87094 0.96857 0.73403 0.0
N815 N 0.94188 0.93723 0.705 0.0
H816 H 0.60491 0.76902 0.76452 0.0
H817 H 0.69374 0.6237 0.82278 0.0
H818 H 0.57084 0.7121 0.82852 0.0
H819 H 0.73792 0.69765 0.78131 0.0
H820 H 0.64465 0.64893 0.8157 0.0
H821 H 0.64958 0.7356 0.76081 0.0
C822 C 0.60638 0.74895 0.77716 0.0
C823 C 0.5843 0.74324 0.79688 0.0
C824 C 0.66508 0.65948 0.80794 0.0
C825 C 0.6352 0.70533 0.79302 0.0
C826 C 0.69306 0.64504 0.81188 0.0
C827 C 0.71998 0.65878 0.80289 0.0
C828 C 0.66394 0.6877 0.79463 0.0
C829 C 0.71777 0.68657 0.789 0.0
C830 C 0.63199 0.73012 0.77528 0.0
C831 C 0.58749 0.71729 0.81313 0.0
N832 N 0.69027 0.70017 0.78537 0.0
N833 N 0.61257 0.69939 0.81097 0.0
H834 H 0.40604 0.74403 0.78025 0.0
H835 H 0.39054 0.57215 0.82366 0.0
H836 H 0.47989 0.69357 0.81607 0.0
H837 H 0.32906 0.61418 0.76708 0.0
H838 H 0.42523 0.61505 0.81849 0.0
H839 H 0.37864 0.69641 0.77308 0.0
C840 C 0.41655 0.72288 0.78647 0.0
C841 C 0.44513 0.7228 0.79909 0.0
C842 C 0.40451 0.6147 0.80671 0.0
C843 C 0.41388 0.66813 0.79096 0.0
C844 C 0.38477 0.59016 0.80959 0.0
C845 C 0.35703 0.58969 0.7957 0.0
C846 C 0.39608 0.63942 0.79037 0.0
C847 C 0.35043 0.6136 0.7779 0.0
C848 C 0.40101 0.69567 0.78218 0.0
C849 C 0.45793 0.69468 0.80629 0.0
N850 N 0.36956 0.63786 0.77614 0.0
N851 N 0.44203 0.66853 0.8025 0.0
H852 H 0.53358 0.40043 0.80476 0.0
H853 H 0.35666 0.41223 0.78023 0.0
H854 H 0.48415 0.33416 0.75866 0.0
H855 H 0.41022 0.48755 0.80847 0.0
H856 H 0.40338 0.3851 0.76862 0.0
H857 H 0.49005 0.43488 0.80196 0.0
C858 C 0.51379 0.39356 0.79332 0.0
C859 C 0.51242 0.36455 0.7818 0.0
C860 C 0.40498 0.40772 0.77701 0.0
C861 C 0.46197 0.40333 0.77941 0.0
C862 C 0.3783 0.42313 0.78384 0.0
C863 C 0.37957 0.45203 0.79571 0.0
C864 C 0.43328 0.42106 0.78243 0.0
C865 C 0.40821 0.46532 0.79941 0.0
C866 C 0.48885 0.41314 0.79186 0.0
C867 C 0.48619 0.35652 0.7675 0.0
N868 N 0.43394 0.44955 0.79319 0.0
N869 N 0.46171 0.37558 0.76717 0.0
H870 H 0.75679 0.51245 0.76091 0.0
H871 H 0.63665 0.40388 0.83386 0.0
H872 H 0.72119 0.52833 0.8406 0.0
H873 H 0.65943 0.39661 0.74959 0.0
H874 H 0.66553 0.45128 0.8359 0.0
H875 H 0.7193 0.47163 0.7551 0.0
C876 C 0.74077 0.50773 0.77694 0.0
C877 C 0.74229 0.52359 0.80133 0.0
C878 C 0.66403 0.43937 0.81691 0.0
C879 C 0.69981 0.47682 0.7951 0.0
C880 C 0.64741 0.41234 0.81575 0.0
C881 C 0.64596 0.39582 0.79169 0.0
C882 C 0.67945 0.44993 0.79387 0.0
C883 C 0.66056 0.40796 0.76882 0.0
C884 C 0.71949 0.48436 0.77372 0.0
C885 C 0.72109 0.51645 0.82155 0.0
N886 N 0.67689 0.43404 0.77055 0.0
N887 N 0.70101 0.49345 0.8181 0.0
H888 H 0.60723 0.32964 0.24596 0.0
H889 H 0.69014 0.481 0.19404 0.0
H890 H 0.57166 0.38821 0.18366 0.0
H891 H 0.73658 0.40733 0.23425 0.0
H892 H 0.64188 0.45404 0.20021 0.0
H893 H 0.64977 0.36511 0.25219 0.0
C894 C 0.60788 0.35044 0.23424 0.0
C895 C 0.5861 0.35605 0.21422 0.0
C896 C 0.66261 0.44397 0.20796 0.0
C897 C 0.63454 0.39634 0.22094 0.0
C898 C 0.6901 0.4594 0.20455 0.0
C899 C 0.71742 0.44617 0.21331 0.0
C900 C 0.66243 0.41526 0.22051 0.0
C901 C 0.71609 0.41803 0.22672 0.0
C902 C 0.63227 0.37047 0.23757 0.0
C903 C 0.58818 0.38304 0.19921 0.0
N904 N 0.6891 0.40343 0.22978 0.0
N905 N 0.61209 0.40208 0.20273 0.0
H906 H 0.70944 0.56766 0.18449 0.0
H907 H 0.69502 0.73997 0.22685 0.0
H908 H 0.76814 0.60759 0.24407 0.0
H909 H 0.62139 0.69124 0.18956 0.0
H910 H 0.72173 0.69176 0.23422 0.0
H911 H 0.67583 0.61186 0.18748 0.0
C912 C 0.71482 0.58549 0.1987 0.0
C913 C 0.74148 0.58399 0.21414 0.0
C914 C 0.69958 0.69155 0.22471 0.0
C915 C 0.70369 0.63516 0.21702 0.0
C916 C 0.68444 0.71909 0.22028 0.0
C917 C 0.65606 0.71966 0.20731 0.0
C918 C 0.68651 0.66433 0.2157 0.0
C919 C 0.64317 0.69185 0.19966 0.0
C920 C 0.69569 0.61077 0.20034 0.0
C921 C 0.74759 0.60776 0.23207 0.0
N922 N 0.65867 0.66538 0.20363 0.0
N923 N 0.72913 0.63268 0.23266 0.0
H924 H 0.53024 0.71204 0.17577 0.0
H925 H 0.3706 0.6824 0.24403 0.0
H926 H 0.50024 0.75894 0.24708 0.0
H927 H 0.41209 0.61627 0.19144 0.0
H928 H 0.41745 0.71124 0.24396 0.0
H929 H 0.48783 0.67657 0.18058 0.0
C930 C 0.51502 0.71446 0.19279 0.0
C931 C 0.51868 0.73845 0.21108 0.0
C932 C 0.41646 0.69031 0.23259 0.0
C933 C 0.46967 0.69846 0.21625 0.0
C934 C 0.38961 0.67365 0.23262 0.0
C935 C 0.38728 0.64641 0.21802 0.0
C936 C 0.44133 0.68015 0.21748 0.0
C937 C 0.41264 0.6371 0.20291 0.0
C938 C 0.49079 0.69426 0.19545 0.0
C939 C 0.49835 0.74062 0.23268 0.0
N940 N 0.43859 0.65401 0.20297 0.0
N941 N 0.4744 0.72117 0.23443 0.0
H942 H 0.40741 0.34911 0.22646 0.0
H943 H 0.39624 0.52737 0.20878 0.0
H944 H 0.48329 0.40478 0.20242 0.0
H945 H 0.32672 0.47492 0.24834 0.0
H946 H 0.43059 0.4838 0.21143 0.0
H947 H 0.37924 0.39497 0.23869 0.0
C948 C 0.41821 0.371 0.22385 0.0
C949 C 0.44761 0.37312 0.21299 0.0
C950 C 0.40812 0.48189 0.22016 0.0
C951 C 0.41549 0.42582 0.22712 0.0
C952 C 0.3886 0.50685 0.21881 0.0
C953 C 0.35877 0.50466 0.22851 0.0
C954 C 0.39746 0.45421 0.23062 0.0
C955 C 0.34973 0.47755 0.24098 0.0
C956 C 0.40219 0.39718 0.23107 0.0
C957 C 0.46071 0.40206 0.21067 0.0
N958 N 0.36883 0.4531 0.24119 0.0
N959 N 0.44441 0.42727 0.2173 0.0
H960 H 0.25438 0.46446 0.25555 0.0
H961 H 0.10631 0.35903 0.25664 0.0
H962 H 0.19973 0.44806 0.18496 0.0
H963 H 0.15908 0.37991 0.32747 0.0
H964 H 0.14108 0.38971 0.22967 0.0
H965 H 0.22103 0.43136 0.28155 0.0
C966 C 0.23532 0.45392 0.24549 0.0
C967 C 0.22969 0.45936 0.21804 0.0
C968 C 0.14506 0.38754 0.25111 0.0
C969 C 0.19135 0.42106 0.2478 0.0
C970 C 0.12505 0.37016 0.26663 0.0
C971 C 0.12957 0.36688 0.29453 0.0
C972 C 0.16988 0.40183 0.26349 0.0
C973 C 0.15475 0.38146 0.30608 0.0
C974 C 0.21631 0.43489 0.26036 0.0
C975 C 0.20502 0.44443 0.20601 0.0
N976 N 0.17385 0.3983 0.29055 0.0
N977 N 0.18665 0.42612 0.22099 0.0
H978 H 0.75749 0.17099 0.30672 0.0
H979 H 0.60275 0.19503 0.2287 0.0
H980 H 0.70642 0.09512 0.27627 0.0
H981 H 0.67869 0.25363 0.21171 0.0
H982 H 0.63652 0.1617 0.255 0.0
H983 H 0.72504 0.20568 0.28002 0.0
C984 C 0.73946 0.16176 0.29439 0.0
C985 C 0.73461 0.1303 0.29344 0.0
C986 C 0.64573 0.1819 0.24554 0.0
C987 C 0.6973 0.16943 0.26371 0.0
C988 C 0.62652 0.20092 0.23075 0.0
C989 C 0.6381 0.22693 0.21808 0.0
C990 C 0.67656 0.18942 0.24826 0.0
C991 C 0.66909 0.23359 0.22109 0.0
C992 C 0.72113 0.18141 0.27918 0.0
C993 C 0.71101 0.11925 0.27724 0.0
N994 N 0.6873 0.21507 0.23613 0.0
N995 N 0.69297 0.13881 0.26324 0.0
H996 H 0.89291 0.65248 0.18169 0.0
H997 H 0.94482 0.7104 0.32715 0.0
H998 H 0.84858 0.62446 0.25525 0.0
H999 H 0.985 0.7396 0.25217 0.0
H1000 H 0.90809 0.68004 0.30167 0.0
H1001 H 0.92521 0.68616 0.20756 0.0
C1002 C 0.8896 0.65362 0.20323 0.0
C1003 C 0.8679 0.63537 0.2162 0.0
C1004 C 0.92497 0.69314 0.29085 0.0
C1005 C 0.90555 0.67377 0.24624 0.0
C1006 C 0.94587 0.71051 0.30538 0.0
C1007 C 0.96828 0.72731 0.29183 0.0
C1008 C 0.92646 0.69268 0.26257 0.0
C1009 C 0.96866 0.72651 0.26356 0.0
C1010 C 0.90832 0.67277 0.21809 0.0
C1011 C 0.86525 0.63767 0.24436 0.0
N1012 N 0.94816 0.70948 0.24995 0.0
N1013 N 0.88395 0.65638 0.25844 0.0
H1014 H 0.34131 0.93109 0.30059 0.0
H1015 H 0.50433 0.89248 0.24175 0.0
H1016 H 0.40905 1.00053 0.28961 0.0
H1017 H 0.42417 0.84995 0.20946 0.0
H1018 H 0.4719 0.92674 0.2681 0.0
H1019 H 0.37364 0.89533 0.27546 0.0
C1020 C 0.36313 0.93864 0.29307 0.0
C1021 C 0.37267 0.96868 0.29712 0.0
C1022 C 0.46145 0.90979 0.25534 0.0
C1023 C 0.4097 0.92806 0.26887 0.0
C1024 C 0.47988 0.89014 0.24051 0.0
C1025 C 0.46681 0.86838 0.2235 0.0
C1026 C 0.42974 0.90718 0.25366 0.0
C1027 C 0.43501 0.86653 0.2223 0.0
C1028 C 0.38139 0.91838 0.27865 0.0
C1029 C 0.40094 0.97756 0.28676 0.0
N1030 N 0.41748 0.88554 0.23737 0.0
N1031 N 0.41864 0.95725 0.27332 0.0
H1032 H 0.24666 0.6235 0.75371 0.0
H1033 H 0.11973 0.75435 0.75015 0.0
H1034 H 0.20535 0.66152 0.82491 0.0
H1035 H 0.15438 0.71003 0.67905 0.0
H1036 H 0.1536 0.72315 0.77772 0.0
H1037 H 0.21568 0.65745 0.72601 0.0
C1038 C 0.23107 0.63887 0.76359 0.0
C1039 C 0.2286 0.63938 0.79181 0.0
C1040 C 0.15387 0.72032 0.75607 0.0
C1041 C 0.19315 0.67875 0.76004 0.0
C1042 C 0.13438 0.73808 0.74027 0.0
C1043 C 0.13391 0.73478 0.71213 0.0
C1044 C 0.17315 0.69903 0.74374 0.0
C1045 C 0.15402 0.71365 0.70057 0.0
C1046 C 0.21345 0.65842 0.74771 0.0
C1047 C 0.20833 0.66039 0.80333 0.0
N1048 N 0.17267 0.69653 0.7164 0.0
N1049 N 0.19136 0.6791 0.78742 0.0
H1050 H 0.40813 0.09603 0.72309 0.0
H1051 H 0.42721 0.25564 0.79599 0.0
H1052 H 0.34739 0.17118 0.70806 0.0
H1053 H 0.50403 0.19804 0.77854 0.0
H1054 H 0.39461 0.22148 0.76986 0.0
H1055 H 0.44102 0.12989 0.74934 0.0
C1056 C 0.40177 0.11967 0.72537 0.0
C1057 C 0.37514 0.13092 0.71336 0.0
C1058 C 0.4186 0.21633 0.77179 0.0
C1059 C 0.41223 0.16954 0.74354 0.0
C1060 C 0.43711 0.23563 0.78685 0.0
C1061 C 0.4683 0.22957 0.7894 0.0
C1062 C 0.43127 0.19046 0.75964 0.0
C1063 C 0.48012 0.20355 0.77687 0.0
C1064 C 0.42054 0.13895 0.7402 0.0
C1065 C 0.36791 0.16175 0.71676 0.0
N1066 N 0.46155 0.18481 0.76267 0.0
N1067 N 0.38622 0.17995 0.73174 0.0
H1068 H 0.98638 0.36136 0.7586 0.0
H1069 H 0.85072 0.48291 0.75636 0.0
H1070 H 0.94523 0.39381 0.68499 0.0
H1071 H 0.89561 0.45111 0.82853 0.0
H1072 H 0.88306 0.44913 0.72975 0.0
H1073 H 0.95149 0.39279 0.78427 0.0
C1074 C 0.97017 0.3753 0.74776 0.0
C1075 C 0.96909 0.37519 0.71949 0.0
C1076 C 0.88568 0.44948 0.75143 0.0
C1077 C 0.92842 0.41115 0.74902 0.0
C1078 C 0.86729 0.46887 0.76668 0.0
C1079 C 0.87041 0.47007 0.79484 0.0
C1080 C 0.90741 0.43113 0.7644 0.0
C1081 C 0.89201 0.45086 0.807 0.0
C1082 C 0.95001 0.39313 0.7625 0.0
C1083 C 0.94685 0.39314 0.70672 0.0
N1084 N 0.9097 0.43237 0.79173 0.0
N1085 N 0.92748 0.41052 0.72157 0.0
H1086 H 0.62635 0.84759 0.75466 0.0
H1087 H 0.7525 0.97841 0.75661 0.0
H1088 H 0.659 0.89039 0.82723 0.0
H1089 H 0.70945 0.94623 0.68398 0.0
H1090 H 0.72253 0.9422 0.78264 0.0
H1091 H 0.66084 0.87934 0.72838 0.0
C1092 C 0.64072 0.86355 0.76515 0.0
C1093 C 0.6394 0.86636 0.79332 0.0
C1094 C 0.71973 0.94299 0.76098 0.0
C1095 C 0.67932 0.90268 0.76321 0.0
C1096 C 0.73676 0.96382 0.74607 0.0
C1097 C 0.7334 0.96572 0.71797 0.0
C1098 C 0.69916 0.92375 0.74779 0.0
C1099 C 0.71306 0.94557 0.7055 0.0
C1100 C 0.66054 0.88163 0.75009 0.0
C1101 C 0.65921 0.88711 0.80568 0.0
N1102 N 0.69664 0.92557 0.72049 0.0
N1103 N 0.67818 0.90453 0.79055 0.0
H1104 H 0.95766 0.74664 0.72435 0.0
H1105 H 0.93027 0.57847 0.78201 0.0
H1106 H 0.02286 0.67336 0.71966 0.0
H1107 H 0.85942 0.64652 0.78035 0.0
H1108 H 0.96449 0.61413 0.76018 0.0
H1109 H 0.92159 0.71172 0.74598 0.0
C1110 C 0.96445 0.72329 0.72789 0.0
C1111 C 0.99343 0.71299 0.72012 0.0
C1112 C 0.94146 0.62137 0.7645 0.0
C1113 C 0.95223 0.67294 0.74486 0.0
C1114 C 0.92182 0.60094 0.77704 0.0
C1115 C 0.89181 0.60942 0.78314 0.0
C1116 C 0.9313 0.65077 0.75797 0.0
C1117 C 0.88232 0.63894 0.77603 0.0
C1118 C 0.9438 0.70336 0.74018 0.0
C1119 C 1.00086 0.68244 0.7252 0.0
N1120 N 0.90203 0.65859 0.7639 0.0
N1121 N 0.98048 0.66363 0.73722 0.0
H1122 H 0.36561 0.98557 0.7546 0.0
H1123 H 0.52975 0.91185 0.75293 0.0
H1124 H 0.40954 0.96534 0.67915 0.0
H1125 H 0.45927 0.87347 0.80277 0.0
H1126 H 0.49144 0.94438 0.73093 0.0
H1127 H 0.40608 0.95736 0.77835 0.0
C1128 C 0.38411 0.97575 0.74314 0.0
C1129 C 0.38438 0.97768 0.71494 0.0
C1130 C 0.48452 0.92889 0.74678 0.0
C1131 C 0.43052 0.94606 0.7418 0.0
C1132 C 0.50624 0.91042 0.75931 0.0
C1133 C 0.49751 0.88982 0.77947 0.0
C1134 C 0.45412 0.92741 0.75514 0.0
C1135 C 0.4668 0.88881 0.78705 0.0
C1136 C 0.40693 0.95952 0.75662 0.0
C1137 C 0.40859 0.96425 0.70093 0.0
N1138 N 0.44617 0.90758 0.77504 0.0
N1139 N 0.43085 0.94914 0.71451 0.0
H1140 H 0.09033 0.3942 0.74405 0.0
H1141 H 0.25273 0.46907 0.77401 0.0
H1142 H 0.17465 0.36522 0.70773 0.0
H1143 H 0.16861 0.51364 0.79528 0.0
H1144 H 0.22376 0.42868 0.75264 0.0
H1145 H 0.11778 0.43626 0.76576 0.0
C1146 C 0.1145 0.39666 0.74059 0.0
C1147 C 0.13014 0.37608 0.724 0.0
C1148 C 0.21156 0.44731 0.7619 0.0
C1149 C 0.16164 0.42385 0.74889 0.0
C1150 C 0.22814 0.47043 0.77419 0.0
C1151 C 0.21316 0.49495 0.78643 0.0
C1152 C 0.17962 0.44837 0.76195 0.0
C1153 C 0.18116 0.49528 0.78599 0.0
C1154 C 0.13014 0.42067 0.75294 0.0
C1155 C 0.1615 0.38044 0.72026 0.0
N1156 N 0.16545 0.4723 0.77404 0.0
N1157 N 0.17612 0.40363 0.73264 0.0
H1158 H 0.58861 0.21249 0.7662 0.0
H1159 H 0.75244 0.13709 0.74334 0.0
H1160 H 0.67099 0.24113 0.80589 0.0
H1161 H 0.66972 0.09129 0.72049 0.0
H1162 H 0.7222 0.1777 0.76308 0.0
H1163 H 0.61713 0.16991 0.74607 0.0
C1164 C 0.61258 0.20986 0.77068 0.0
C1165 C 0.62738 0.23045 0.78777 0.0
C1166 C 0.71058 0.15873 0.75385 0.0
C1167 C 0.66001 0.18218 0.76478 0.0
C1168 C 0.72788 0.13549 0.74252 0.0
C1169 C 0.71366 0.1106 0.73029 0.0
C1170 C 0.67868 0.15743 0.75282 0.0
C1171 C 0.68168 0.10995 0.72985 0.0
C1172 C 0.62879 0.18556 0.75927 0.0
C1173 C 0.65847 0.2259 0.79293 0.0
N1174 N 0.66524 0.13309 0.74084 0.0
N1175 N 0.67366 0.20246 0.78143 0.0
H1176 H 0.9789 0.35958 0.25991 0.0
H1177 H 0.91231 0.52708 0.25604 0.0
H1178 H 0.96968 0.4116 0.33285 0.0
H1179 H 0.868 0.45503 0.21259 0.0
H1180 H 0.9449 0.4891 0.27831 0.0
H1181 H 0.94984 0.39907 0.23563 0.0
C1182 C 0.97134 0.37961 0.27064 0.0
C1183 C 0.97667 0.38247 0.29838 0.0
C1184 C 0.92806 0.48172 0.26384 0.0
C1185 C 0.94396 0.4275 0.27084 0.0
C1186 C 0.90952 0.50328 0.25114 0.0
C1187 C 0.88726 0.4941 0.23266 0.0
C1188 C 0.92499 0.45088 0.25733 0.0
C1189 C 0.88461 0.46298 0.22698 0.0
C1190 C 0.95458 0.40189 0.25688 0.0
C1191 C 0.96601 0.40862 0.31146 0.0
N1192 N 0.90347 0.44245 0.23909 0.0
N1193 N 0.95032 0.43026 0.29756 0.0
H1194 H 0.57308 0.92614 0.23295 0.0
H1195 H 0.74419 0.95417 0.28251 0.0
H1196 H 0.64187 0.85609 0.22959 0.0
H1197 H 0.67198 0.02069 0.28585 0.0
H1198 H 0.70826 0.91766 0.263 0.0
H1199 H 0.60991 0.96046 0.25263 0.0
C1200 C 0.59598 0.91787 0.23638 0.0
C1201 C 0.60432 0.8881 0.22945 0.0
C1202 C 0.70038 0.94027 0.26801 0.0
C1203 C 0.64707 0.92775 0.25214 0.0
C1204 C 0.72089 0.96117 0.27907 0.0
C1205 C 0.71115 0.99062 0.28589 0.0
C1206 C 0.66996 0.94892 0.26371 0.0
C1207 C 0.68064 0.99831 0.28104 0.0
C1208 C 0.6171 0.9376 0.24767 0.0
C1209 C 0.6344 0.87883 0.23461 0.0
N1210 N 0.66127 0.97767 0.27032 0.0
N1211 N 0.65474 0.89863 0.24557 0.0
H1212 H 0.09104 0.70502 0.2659 0.0
H1213 H 0.25404 0.62918 0.24238 0.0
H1214 H 0.17414 0.73311 0.30475 0.0
H1215 H 0.17156 0.58187 0.2214 0.0
H1216 H 0.22395 0.66975 0.26165 0.0
H1217 H 0.11882 0.66169 0.24613 0.0
C1218 C 0.11499 0.70209 0.27032 0.0
C1219 C 0.13025 0.72282 0.28698 0.0
C1220 C 0.21229 0.65047 0.25299 0.0
C1221 C 0.16199 0.67374 0.26439 0.0
C1222 C 0.22957 0.62712 0.24194 0.0
C1223 C 0.21546 0.60174 0.23042 0.0
C1224 C 0.18044 0.64886 0.25243 0.0
C1225 C 0.18347 0.60089 0.23022 0.0
C1226 C 0.13077 0.67738 0.25909 0.0
C1227 C 0.16128 0.71788 0.29206 0.0
N1228 N 0.16698 0.62417 0.241 0.0
N1229 N 0.17602 0.69407 0.28075 0.0
H1230 H 0.39232 0.08941 0.26627 0.0
H1231 H 0.47241 0.24941 0.23805 0.0
H1232 H 0.37398 0.17156 0.31076 0.0
H1233 H 0.51183 0.16511 0.21052 0.0
H1234 H 0.43316 0.22072 0.26143 0.0
H1235 H 0.43378 0.11605 0.24264 0.0
C1236 C 0.39703 0.1129 0.27115 0.0
C1237 C 0.37953 0.12823 0.29051 0.0
C1238 C 0.45043 0.20841 0.25036 0.0
C1239 C 0.42649 0.15879 0.26345 0.0
C1240 C 0.47287 0.22483 0.23691 0.0
C1241 C 0.49562 0.2097 0.22233 0.0
C1242 C 0.45034 0.17651 0.24912 0.0
C1243 C 0.49484 0.17774 0.22162 0.0
C1244 C 0.42067 0.12806 0.25769 0.0
C1245 C 0.3867 0.15869 0.29602 0.0
N1246 N 0.4725 0.16218 0.23474 0.0
N1247 N 0.40938 0.17291 0.2825 0.0
loop_
_geom_bond_atom_site_label_1
_geom_bond_atom_site_label_2
_geom_bond_distance
_geom_bond_site_symmetry_2
_ccdc_geom_bond_type
Co0 N4 2.148 1_455 S
Co0 N10 2.128 . S
Co0 N20 2.194 . S
Co0 O25 2.351 . S
Co0 O26 2.155 . S
Co0 O27 2.096 . S
C1 N4 1.301 . S
C1 N5 1.328 . S
C1 H6 0.930 1_655 S
C2 C3 1.333 . S
C2 N4 1.317 . S
C2 H7 0.930 . S
C3 C2 1.333 . S
C3 N5 1.350 . S
C3 H29 0.931 . S
N4 Co0 2.148 1_655 S
N4 C1 1.301 . S
N4 C2 1.317 . S
N5 C1 1.328 . S
N5 C3 1.350 . S
H6 C1 0.930 1_455 S
H7 C2 0.930 . S
C8 O9 1.224 . S
C8 O27 1.247 1_655 S
O9 C8 1.224 . S
N10 Co0 2.128 . S
N10 C11 1.355 . S
N10 C13 1.311 . S
C11 N10 1.355 . S
C11 C12 1.363 . S
C11 H23 0.929 . S
C12 C11 1.363 . S
C12 N14 1.375 . S
C12 H30 0.931 . S
C13 N10 1.311 . S
C13 N14 1.347 . S
C13 H24 0.929 . S
N14 C12 1.375 . S
N14 C13 1.347 . S
C15 C18 1.365 . S
C15 N20 1.328 . S
C15 H21 0.929 . S
C16 C17 1.362 . S
C16 C19 1.378 . S
C16 H31 0.929 1_455 S
C17 C16 1.362 . S
C17 C18 1.366 . S
C18 C15 1.365 . S
C18 C17 1.366 . S
C18 H32 0.930 . S
C19 C16 1.378 . S
C19 N20 1.315 . S
C19 H22 0.930 1_455 S
N20 Co0 2.194 . S
N20 C15 1.328 . S
N20 C19 1.315 . S
H21 C15 0.929 . S
H22 C19 0.930 1_655 S
H23 C11 0.929 . S
H24 C13 0.929 . S
O25 Co0 2.351 . S
O25 C28 1.244 . S
O26 Co0 2.155 . S
O26 C28 1.240 . S
O27 Co0 2.096 . S
O27 C8 1.247 1_455 S
C28 O25 1.244 . S
C28 O26 1.240 . S
H29 C3 0.931 . S
H30 C12 0.931 . S
H31 C16 0.929 1_655 S
H32 C18 0.930 . S
Co33 N37 2.148 1_545 S
Co33 N43 2.128 . S
Co33 N53 2.194 . S
Co33 O58 2.351 . S
Co33 O59 2.155 . S
Co33 O60 2.096 . S
C34 N37 1.301 . S
C34 N38 1.328 . S
C34 H39 0.930 1_565 S
C35 C36 1.333 . S
C35 N37 1.317 . S
C35 H40 0.930 . S
C36 C35 1.333 . S
C36 N38 1.350 . S
C36 H62 0.931 . S
N37 Co33 2.148 1_565 S
N37 C34 1.301 . S
N37 C35 1.317 . S
N38 C34 1.328 . S
N38 C36 1.350 . S
H39 C34 0.930 1_545 S
H40 C35 0.930 . S
C41 O42 1.224 . S
C41 O60 1.247 1_565 S
O42 C41 1.224 . S
N43 Co33 2.128 . S
N43 C44 1.355 . S
N43 C46 1.311 . S
C44 N43 1.355 . S
C44 C45 1.363 . S
C44 H56 0.929 . S
C45 C44 1.363 . S
C45 N47 1.375 . S
C45 H63 0.931 . S
C46 N43 1.311 . S
C46 N47 1.347 . S
C46 H57 0.929 . S
N47 C45 1.375 . S
N47 C46 1.347 . S
C48 C51 1.365 . S
C48 N53 1.328 . S
C48 H54 0.929 . S
C49 C50 1.362 . S
C49 C52 1.378 . S
C49 H64 0.929 1_545 S
C50 C49 1.362 . S
C50 C51 1.366 . S
C51 C48 1.365 . S
C51 C50 1.366 . S
C51 H65 0.930 . S
C52 C49 1.378 . S
C52 N53 1.315 . S
C52 H55 0.930 1_545 S
N53 Co33 2.194 . S
N53 C48 1.328 . S
N53 C52 1.315 . S
H54 C48 0.929 . S
H55 C52 0.930 1_565 S
H56 C44 0.929 . S
H57 C46 0.929 . S
O58 Co33 2.351 . S
O58 C61 1.244 . S
O59 Co33 2.155 . S
O59 C61 1.240 . S
O60 Co33 2.096 . S
O60 C41 1.247 1_545 S
C61 O58 1.244 . S
C61 O59 1.240 . S
H62 C36 0.931 . S
H63 C45 0.931 . S
H64 C49 0.929 1_565 S
H65 C51 0.930 . S
Co66 N70 2.148 . S
Co66 N76 2.128 . S
Co66 N86 2.194 . S
Co66 O91 2.351 . S
Co66 O92 2.155 . S
Co66 O93 2.096 . S
C67 N70 1.301 . S
C67 N71 1.328 . S
C67 H72 0.930 . S
C68 C69 1.333 . S
C68 N70 1.317 . S
C68 H73 0.930 . S
C69 C68 1.333 . S
C69 N71 1.350 . S
C69 H95 0.931 . S
N70 Co66 2.148 . S
N70 C67 1.301 . S
N70 C68 1.317 . S
N71 C67 1.328 . S
N71 C69 1.350 . S
H72 C67 0.930 . S
H73 C68 0.930 . S
C74 O75 1.224 . S
C74 O93 1.247 . S
O75 C74 1.224 . S
N76 Co66 2.128 . S
N76 C77 1.355 . S
N76 C79 1.311 . S
C77 N76 1.355 . S
C77 C78 1.363 1_455 S
C77 H89 0.933 . S
C78 C77 1.363 1_655 S
C78 N80 1.368 1_655 S
C78 H96 0.931 . S
C79 N76 1.311 . S
C79 N80 1.361 . S
C79 H90 0.929 . S
N80 C78 1.368 1_455 S
N80 C79 1.361 . S
C81 C84 1.365 . S
C81 N86 1.328 . S
C81 H87 0.929 . S
C82 C83 1.362 . S
C82 C85 1.378 . S
C82 H97 0.929 . S
C83 C82 1.362 . S
C83 C84 1.366 . S
C84 C81 1.365 . S
C84 C83 1.366 . S
C84 H98 0.930 . S
C85 C82 1.378 . S
C85 N86 1.315 . S
C85 H88 0.930 . S
N86 Co66 2.194 . S
N86 C81 1.328 . S
N86 C85 1.315 . S
H87 C81 0.929 . S
H88 C85 0.930 . S
H89 C77 0.933 . S
H90 C79 0.929 . S
O91 Co66 2.351 . S
O91 C94 1.244 . S
O92 Co66 2.155 . S
O92 C94 1.240 . S
O93 Co66 2.096 . S
O93 C74 1.247 . S
C94 O91 1.244 . S
C94 O92 1.240 . S
H95 C69 0.931 . S
H96 C78 0.931 . S
H97 C82 0.929 . S
H98 C84 0.930 . S
Co99 N103 2.148 . S
Co99 N109 2.128 . S
Co99 N119 2.194 . S
Co99 O124 2.351 . S
Co99 O125 2.155 . S
Co99 O126 2.096 . S
C100 N103 1.301 . S
C100 N104 1.328 . S
C100 H105 0.930 . S
C101 C102 1.333 . S
C101 N103 1.317 . S
C101 H106 0.930 . S
C102 C101 1.333 . S
C102 N104 1.350 . S
C102 H128 0.931 . S
N103 Co99 2.148 . S
N103 C100 1.301 . S
N103 C101 1.317 . S
N104 C100 1.328 . S
N104 C102 1.350 . S
H105 C100 0.930 . S
H106 C101 0.930 . S
C107 O108 1.224 . S
C107 O126 1.247 . S
O108 C107 1.224 . S
N109 Co99 2.128 . S
N109 C110 1.355 . S
N109 C112 1.311 . S
C110 N109 1.355 . S
C110 C111 1.363 1_545 S
C110 H122 0.933 . S
C111 C110 1.363 1_565 S
C111 N113 1.368 1_565 S
C111 H129 0.931 . S
C112 N109 1.311 . S
C112 N113 1.361 . S
C112 H123 0.929 . S
N113 C111 1.368 1_545 S
N113 C112 1.361 . S
C114 C117 1.365 . S
C114 N119 1.328 . S
C114 H120 0.929 . S
C115 C116 1.362 . S
C115 C118 1.378 . S
C115 H130 0.929 . S
C116 C115 1.362 . S
C116 C117 1.366 . S
C117 C114 1.365 . S
C117 C116 1.366 . S
C117 H131 0.930 . S
C118 C115 1.378 . S
C118 N119 1.315 . S
C118 H121 0.930 . S
N119 Co99 2.194 . S
N119 C114 1.328 . S
N119 C118 1.315 . S
H120 C114 0.929 . S
H121 C118 0.930 . S
H122 C110 0.933 . S
H123 C112 0.929 . S
O124 Co99 2.351 . S
O124 C127 1.244 . S
O125 Co99 2.155 . S
O125 C127 1.240 . S
O126 Co99 2.096 . S
O126 C107 1.247 . S
C127 O124 1.244 . S
C127 O125 1.240 . S
H128 C102 0.931 . S
H129 C111 0.931 . S
H130 C115 0.929 . S
H131 C117 0.930 . S
Co132 N136 2.148 1_455 S
Co132 N142 2.128 . S
Co132 N152 2.194 . S
Co132 O157 2.351 . S
Co132 O158 2.155 . S
Co132 O159 2.096 . S
C133 N136 1.301 . S
C133 N137 1.328 . S
C133 H138 0.930 1_655 S
C134 C135 1.333 . S
C134 N136 1.317 . S
C134 H139 0.930 . S
C135 C134 1.333 . S
C135 N137 1.350 . S
C135 H161 0.931 . S
N136 Co132 2.148 1_655 S
N136 C133 1.301 . S
N136 C134 1.317 . S
N137 C133 1.328 . S
N137 C135 1.350 . S
H138 C133 0.930 1_455 S
H139 C134 0.930 . S
C140 O141 1.224 . S
C140 O159 1.247 1_655 S
O141 C140 1.224 . S
N142 Co132 2.128 . S
N142 C143 1.355 . S
N142 C145 1.311 . S
C143 N142 1.355 . S
C143 C144 1.363 . S
C143 H155 0.929 . S
C144 C143 1.363 . S
C144 N146 1.375 . S
C144 H162 0.931 . S
C145 N142 1.311 . S
C145 N146 1.347 . S
C145 H156 0.929 . S
N146 C144 1.375 . S
N146 C145 1.347 . S
C147 C150 1.365 . S
C147 N152 1.328 . S
C147 H153 0.929 . S
C148 C149 1.362 . S
C148 C151 1.378 . S
C148 H163 0.929 1_455 S
C149 C148 1.362 . S
C149 C150 1.366 . S
C150 C147 1.365 . S
C150 C149 1.366 . S
C150 H164 0.930 . S
C151 C148 1.378 . S
C151 N152 1.315 . S
C151 H154 0.930 1_455 S
N152 Co132 2.194 . S
N152 C147 1.328 . S
N152 C151 1.315 . S
H153 C147 0.929 . S
H154 C151 0.930 1_655 S
H155 C143 0.929 . S
H156 C145 0.929 . S
O157 Co132 2.351 . S
O157 C160 1.244 . S
O158 Co132 2.155 . S
O158 C160 1.240 . S
O159 Co132 2.096 . S
O159 C140 1.247 1_455 S
C160 O157 1.244 . S
C160 O158 1.240 . S
H161 C135 0.931 . S
H162 C144 0.931 . S
H163 C148 0.929 1_655 S
H164 C150 0.930 . S
Co165 N169 2.148 1_545 S
Co165 N175 2.128 . S
Co165 N185 2.194 . S
Co165 O190 2.351 . S
Co165 O191 2.155 . S
Co165 O192 2.096 . S
C166 N169 1.301 . S
C166 N170 1.328 . S
C166 H171 0.930 1_565 S
C167 C168 1.333 . S
C167 N169 1.317 . S
C167 H172 0.930 . S
C168 C167 1.333 . S
C168 N170 1.350 . S
C168 H194 0.931 . S
N169 Co165 2.148 1_565 S
N169 C166 1.301 . S
N169 C167 1.317 . S
N170 C166 1.328 . S
N170 C168 1.350 . S
H171 C166 0.930 1_545 S
H172 C167 0.930 . S
C173 O174 1.224 . S
C173 O192 1.247 1_565 S
O174 C173 1.224 . S
N175 Co165 2.128 . S
N175 C176 1.355 . S
N175 C178 1.311 . S
C176 N175 1.355 . S
C176 C177 1.363 . S
C176 H188 0.929 . S
C177 C176 1.363 . S
C177 N179 1.375 . S
C177 H195 0.931 . S
C178 N175 1.311 . S
C178 N179 1.347 . S
C178 H189 0.929 . S
N179 C177 1.375 . S
N179 C178 1.347 . S
C180 C183 1.365 . S
C180 N185 1.328 . S
C180 H186 0.929 . S
C181 C182 1.362 . S
C181 C184 1.378 . S
C181 H196 0.929 1_545 S
C182 C181 1.362 . S
C182 C183 1.366 . S
C183 C180 1.365 . S
C183 C182 1.366 . S
C183 H197 0.930 . S
C184 C181 1.378 . S
C184 N185 1.315 . S
C184 H187 0.930 1_545 S
N185 Co165 2.194 . S
N185 C180 1.328 . S
N185 C184 1.315 . S
H186 C180 0.929 . S
H187 C184 0.930 1_565 S
H188 C176 0.929 . S
H189 C178 0.929 . S
O190 Co165 2.351 . S
O190 C193 1.244 . S
O191 Co165 2.155 . S
O191 C193 1.240 . S
O192 Co165 2.096 . S
O192 C173 1.247 1_545 S
C193 O190 1.244 . S
C193 O191 1.240 . S
H194 C168 0.931 . S
H195 C177 0.931 . S
H196 C181 0.929 1_565 S
H197 C183 0.930 . S
Co198 N202 2.148 . S
Co198 N208 2.128 . S
Co198 N218 2.194 . S
Co198 O223 2.351 . S
Co198 O224 2.155 . S
Co198 O225 2.096 . S
C199 N202 1.301 . S
C199 N203 1.328 . S
C199 H204 0.930 . S
C200 C201 1.333 . S
C200 N202 1.317 . S
C200 H205 0.930 . S
C201 C200 1.333 . S
C201 N203 1.350 . S
C201 H227 0.931 . S
N202 Co198 2.148 . S
N202 C199 1.301 . S
N202 C200 1.317 . S
N203 C199 1.328 . S
N203 C201 1.350 . S
H204 C199 0.930 . S
H205 C200 0.930 . S
C206 O207 1.224 . S
C206 O225 1.247 . S
O207 C206 1.224 . S
N208 Co198 2.128 . S
N208 C209 1.355 . S
N208 C211 1.311 . S
C209 N208 1.355 . S
C209 C210 1.363 1_455 S
C209 H221 0.933 . S
C210 C209 1.363 1_655 S
C210 N212 1.368 1_655 S
C210 H228 0.931 . S
C211 N208 1.311 . S
C211 N212 1.361 . S
C211 H222 0.929 . S
N212 C210 1.368 1_455 S
N212 C211 1.361 . S
C213 C216 1.365 . S
C213 N218 1.328 . S
C213 H219 0.929 . S
C214 C215 1.362 . S
C214 C217 1.378 . S
C214 H229 0.929 . S
C215 C214 1.362 . S
C215 C216 1.366 . S
C216 C213 1.365 . S
C216 C215 1.366 . S
C216 H230 0.930 . S
C217 C214 1.378 . S
C217 N218 1.315 . S
C217 H220 0.930 . S
N218 Co198 2.194 . S
N218 C213 1.328 . S
N218 C217 1.315 . S
H219 C213 0.929 . S
H220 C217 0.930 . S
H221 C209 0.933 . S
H222 C211 0.929 . S
O223 Co198 2.351 . S
O223 C226 1.244 . S
O224 Co198 2.155 . S
O224 C226 1.240 . S
O225 Co198 2.096 . S
O225 C206 1.247 . S
C226 O223 1.244 . S
C226 O224 1.240 . S
H227 C201 0.931 . S
H228 C210 0.931 . S
H229 C214 0.929 . S
H230 C216 0.930 . S
Co231 N235 2.148 . S
Co231 N241 2.128 . S
Co231 N251 2.194 . S
Co231 O256 2.351 . S
Co231 O257 2.155 . S
Co231 O258 2.096 . S
C232 N235 1.301 . S
C232 N236 1.328 . S
C232 H237 0.930 . S
C233 C234 1.333 . S
C233 N235 1.317 . S
C233 H238 0.930 . S
C234 C233 1.333 . S
C234 N236 1.350 . S
C234 H260 0.931 . S
N235 Co231 2.148 . S
N235 C232 1.301 . S
N235 C233 1.317 . S
N236 C232 1.328 . S
N236 C234 1.350 . S
H237 C232 0.930 . S
H238 C233 0.930 . S
C239 O240 1.224 . S
C239 O258 1.247 . S
O240 C239 1.224 . S
N241 Co231 2.128 . S
N241 C242 1.355 . S
N241 C244 1.311 . S
C242 N241 1.355 . S
C242 C243 1.363 1_545 S
C242 H254 0.933 . S
C243 C242 1.363 1_565 S
C243 N245 1.368 1_565 S
C243 H261 0.931 . S
C244 N241 1.311 . S
C244 N245 1.361 . S
C244 H255 0.929 . S
N245 C243 1.368 1_545 S
N245 C244 1.361 . S
C246 C249 1.365 . S
C246 N251 1.328 . S
C246 H252 0.929 . S
C247 C248 1.362 . S
C247 C250 1.378 . S
C247 H262 0.929 . S
C248 C247 1.362 . S
C248 C249 1.366 . S
C249 C246 1.365 . S
C249 C248 1.366 . S
C249 H263 0.930 . S
C250 C247 1.378 . S
C250 N251 1.315 . S
C250 H253 0.930 . S
N251 Co231 2.194 . S
N251 C246 1.328 . S
N251 C250 1.315 . S
H252 C246 0.929 . S
H253 C250 0.930 . S
H254 C242 0.933 . S
H255 C244 0.929 . S
O256 Co231 2.351 . S
O256 C259 1.244 . S
O257 Co231 2.155 . S
O257 C259 1.240 . S
O258 Co231 2.096 . S
O258 C239 1.247 . S
C259 O256 1.244 . S
C259 O257 1.240 . S
H260 C234 0.931 . S
H261 C243 0.931 . S
H262 C247 0.929 . S
H263 C249 0.930 . S
Co264 N268 2.148 . S
Co264 N274 2.128 . S
Co264 N284 2.194 . S
Co264 O289 2.351 . S
Co264 O290 2.155 . S
Co264 O291 2.096 . S
C265 N268 1.301 . S
C265 N269 1.328 . S
C265 H270 0.930 . S
C266 C267 1.333 . S
C266 N268 1.317 . S
C266 H271 0.930 . S
C267 C266 1.333 . S
C267 N269 1.350 . S
C267 H293 0.931 . S
N268 Co264 2.148 . S
N268 C265 1.301 . S
N268 C266 1.317 . S
N269 C265 1.328 . S
N269 C267 1.350 . S
H270 C265 0.930 . S
H271 C266 0.930 . S
C272 O273 1.224 . S
C272 O291 1.247 . S
O273 C272 1.224 . S
N274 Co264 2.128 . S
N274 C275 1.355 . S
N274 C277 1.311 . S
C275 N274 1.355 . S
C275 C276 1.363 . S
C275 H287 0.929 . S
C276 C275 1.363 . S
C276 N278 1.375 . S
C276 H294 0.931 . S
C277 N274 1.311 . S
C277 N278 1.347 . S
C277 H288 0.929 . S
N278 C276 1.375 . S
N278 C277 1.347 . S
C279 C282 1.365 . S
C279 N284 1.328 . S
C279 H285 0.929 . S
C280 C281 1.362 . S
C280 C283 1.378 . S
C280 H295 0.929 . S
C281 C280 1.362 . S
C281 C282 1.366 . S
C282 C279 1.365 . S
C282 C281 1.366 . S
C282 H296 0.930 . S
C283 C280 1.378 . S
C283 N284 1.315 . S
C283 H286 0.930 . S
N284 Co264 2.194 . S
N284 C279 1.328 . S
N284 C283 1.315 . S
H285 C279 0.929 . S
H286 C283 0.930 . S
H287 C275 0.929 . S
H288 C277 0.929 . S
O289 Co264 2.351 . S
O289 C292 1.244 . S
O290 Co264 2.155 . S
O290 C292 1.240 . S
O291 Co264 2.096 . S
O291 C272 1.247 . S
C292 O289 1.244 . S
C292 O290 1.240 . S
H293 C267 0.931 . S
H294 C276 0.931 . S
H295 C280 0.929 . S
H296 C282 0.930 . S
Co297 N301 2.148 . S
Co297 N307 2.128 . S
Co297 N317 2.194 . S
Co297 O322 2.351 . S
Co297 O323 2.155 . S
Co297 O324 2.096 . S
C298 N301 1.301 . S
C298 N302 1.328 . S
C298 H303 0.930 . S
C299 C300 1.333 . S
C299 N301 1.317 . S
C299 H304 0.930 . S
C300 C299 1.333 . S
C300 N302 1.350 . S
C300 H326 0.931 . S
N301 Co297 2.148 . S
N301 C298 1.301 . S
N301 C299 1.317 . S
N302 C298 1.328 . S
N302 C300 1.350 . S
H303 C298 0.930 . S
H304 C299 0.930 . S
C305 O306 1.224 . S
C305 O324 1.247 . S
O306 C305 1.224 . S
N307 Co297 2.128 . S
N307 C308 1.355 . S
N307 C310 1.311 . S
C308 N307 1.355 . S
C308 C309 1.363 . S
C308 H320 0.929 . S
C309 C308 1.363 . S
C309 N311 1.375 . S
C309 H327 0.931 . S
C310 N307 1.311 . S
C310 N311 1.347 . S
C310 H321 0.929 . S
N311 C309 1.375 . S
N311 C310 1.347 . S
C312 C315 1.365 . S
C312 N317 1.328 . S
C312 H318 0.929 . S
C313 C314 1.362 . S
C313 C316 1.378 . S
C313 H328 0.929 . S
C314 C313 1.362 . S
C314 C315 1.366 . S
C315 C312 1.365 . S
C315 C314 1.366 . S
C315 H329 0.930 . S
C316 C313 1.378 . S
C316 N317 1.315 . S
C316 H319 0.930 . S
N317 Co297 2.194 . S
N317 C312 1.328 . S
N317 C316 1.315 . S
H318 C312 0.929 . S
H319 C316 0.930 . S
H320 C308 0.929 . S
H321 C310 0.929 . S
O322 Co297 2.351 . S
O322 C325 1.244 . S
O323 Co297 2.155 . S
O323 C325 1.240 . S
O324 Co297 2.096 . S
O324 C305 1.247 . S
C325 O322 1.244 . S
C325 O323 1.240 . S
H326 C300 0.931 . S
H327 C309 0.931 . S
H328 C313 0.929 . S
H329 C315 0.930 . S
Co330 N334 2.148 . S
Co330 N340 2.128 . S
Co330 N350 2.194 . S
Co330 O355 2.351 . S
Co330 O356 2.155 . S
Co330 O357 2.096 . S
C331 N334 1.301 . S
C331 N335 1.328 . S
C331 H336 0.930 . S
C332 C333 1.333 . S
C332 N334 1.317 . S
C332 H337 0.930 . S
C333 C332 1.333 . S
C333 N335 1.350 . S
C333 H359 0.931 . S
N334 Co330 2.148 . S
N334 C331 1.301 . S
N334 C332 1.317 . S
N335 C331 1.328 . S
N335 C333 1.350 . S
H336 C331 0.930 . S
H337 C332 0.930 . S
C338 O339 1.224 . S
C338 O357 1.247 . S
O339 C338 1.224 . S
N340 Co330 2.128 . S
N340 C341 1.355 . S
N340 C343 1.311 . S
C341 N340 1.355 . S
C341 C342 1.363 . S
C341 H353 0.929 . S
C342 C341 1.363 . S
C342 N344 1.375 . S
C342 H360 0.931 . S
C343 N340 1.311 . S
C343 N344 1.347 . S
C343 H354 0.929 . S
N344 C342 1.375 . S
N344 C343 1.347 . S
C345 C348 1.365 . S
C345 N350 1.328 . S
C345 H351 0.929 . S
C346 C347 1.362 . S
C346 C349 1.378 . S
C346 H361 0.929 . S
C347 C346 1.362 . S
C347 C348 1.366 . S
C348 C345 1.365 . S
C348 C347 1.366 . S
C348 H362 0.930 . S
C349 C346 1.378 . S
C349 N350 1.315 . S
C349 H352 0.930 . S
N350 Co330 2.194 . S
N350 C345 1.328 . S
N350 C349 1.315 . S
H351 C345 0.929 . S
H352 C349 0.930 . S
H353 C341 0.929 . S
H354 C343 0.929 . S
O355 Co330 2.351 . S
O355 C358 1.244 . S
O356 Co330 2.155 . S
O356 C358 1.240 . S
O357 Co330 2.096 . S
O357 C338 1.247 . S
C358 O355 1.244 . S
C358 O356 1.240 . S
H359 C333 0.931 . S
H360 C342 0.931 . S
H361 C346 0.929 . S
H362 C348 0.930 . S
Co363 N367 2.148 . S
Co363 N373 2.128 . S
Co363 N383 2.194 . S
Co363 O388 2.351 . S
Co363 O389 2.155 . S
Co363 O390 2.096 . S
C364 N367 1.301 . S
C364 N368 1.328 . S
C364 H369 0.930 . S
C365 C366 1.333 . S
C365 N367 1.317 . S
C365 H370 0.930 . S
C366 C365 1.333 . S
C366 N368 1.350 . S
C366 H392 0.931 . S
N367 Co363 2.148 . S
N367 C364 1.301 . S
N367 C365 1.317 . S
N368 C364 1.328 . S
N368 C366 1.350 . S
H369 C364 0.930 . S
H370 C365 0.930 . S
C371 O372 1.224 . S
C371 O390 1.247 . S
O372 C371 1.224 . S
N373 Co363 2.128 . S
N373 C374 1.355 . S
N373 C376 1.311 . S
C374 N373 1.355 . S
C374 C375 1.363 . S
C374 H386 0.929 . S
C375 C374 1.363 . S
C375 N377 1.375 . S
C375 H393 0.931 . S
C376 N373 1.311 . S
C376 N377 1.347 . S
C376 H387 0.929 . S
N377 C375 1.375 . S
N377 C376 1.347 . S
C378 C381 1.365 . S
C378 N383 1.328 . S
C378 H384 0.929 . S
C379 C380 1.362 . S
C379 C382 1.378 . S
C379 H394 0.929 . S
C380 C379 1.362 . S
C380 C381 1.366 . S
C381 C378 1.365 . S
C381 C380 1.366 . S
C381 H395 0.930 . S
C382 C379 1.378 . S
C382 N383 1.315 . S
C382 H385 0.930 . S
N383 Co363 2.194 . S
N383 C378 1.328 . S
N383 C382 1.315 . S
H384 C378 0.929 . S
H385 C382 0.930 . S
H386 C374 0.929 . S
H387 C376 0.929 . S
O388 Co363 2.351 . S
O388 C391 1.244 . S
O389 Co363 2.155 . S
O389 C391 1.240 . S
O390 Co363 2.096 . S
O390 C371 1.247 . S
C391 O388 1.244 . S
C391 O389 1.240 . S
H392 C366 0.931 . S
H393 C375 0.931 . S
H394 C379 0.929 . S
H395 C381 0.930 . S
Co396 N400 2.148 . S
Co396 N406 2.128 . S
Co396 N416 2.194 . S
Co396 O421 2.351 . S
Co396 O422 2.155 . S
Co396 O423 2.096 . S
C397 N400 1.301 . S
C397 N401 1.328 . S
C397 H402 0.930 . S
C398 C399 1.333 . S
C398 N400 1.317 . S
C398 H403 0.930 . S
C399 C398 1.333 . S
C399 N401 1.350 . S
C399 H425 0.931 . S
N400 Co396 2.148 . S
N400 C397 1.301 . S
N400 C398 1.317 . S
N401 C397 1.328 . S
N401 C399 1.350 . S
H402 C397 0.930 . S
H403 C398 0.930 . S
C404 O405 1.224 . S
C404 O423 1.247 . S
O405 C404 1.224 . S
N406 Co396 2.128 . S
N406 C407 1.355 . S
N406 C409 1.311 . S
C407 N406 1.355 . S
C407 C408 1.363 . S
C407 H419 0.929 . S
C408 C407 1.363 . S
C408 N410 1.375 . S
C408 H426 0.931 . S
C409 N406 1.311 . S
C409 N410 1.347 . S
C409 H420 0.929 . S
N410 C408 1.375 . S
N410 C409 1.347 . S
C411 C414 1.365 . S
C411 N416 1.328 . S
C411 H417 0.929 . S
C412 C413 1.362 . S
C412 C415 1.378 . S
C412 H427 0.929 . S
C413 C412 1.362 . S
C413 C414 1.366 . S
C414 C411 1.365 . S
C414 C413 1.366 . S
C414 H428 0.930 . S
C415 C412 1.378 . S
C415 N416 1.315 . S
C415 H418 0.930 . S
N416 Co396 2.194 . S
N416 C411 1.328 . S
N416 C415 1.315 . S
H417 C411 0.929 . S
H418 C415 0.930 . S
H419 C407 0.929 . S
H420 C409 0.929 . S
O421 Co396 2.351 . S
O421 C424 1.244 . S
O422 Co396 2.155 . S
O422 C424 1.240 . S
O423 Co396 2.096 . S
O423 C404 1.247 . S
C424 O421 1.244 . S
C424 O422 1.240 . S
H425 C399 0.931 . S
H426 C408 0.931 . S
H427 C412 0.929 . S
H428 C414 0.930 . S
Co429 N433 2.148 . S
Co429 N439 2.128 . S
Co429 N449 2.194 . S
Co429 O454 2.351 . S
Co429 O455 2.155 . S
Co429 O456 2.096 . S
C430 N433 1.301 . S
C430 N434 1.328 . S
C430 H435 0.930 . S
C431 C432 1.333 . S
C431 N433 1.317 . S
C431 H436 0.930 . S
C432 C431 1.333 . S
C432 N434 1.350 . S
C432 H458 0.931 . S
N433 Co429 2.148 . S
N433 C430 1.301 . S
N433 C431 1.317 . S
N434 C430 1.328 . S
N434 C432 1.350 . S
H435 C430 0.930 . S
H436 C431 0.930 . S
C437 O438 1.224 . S
C437 O456 1.247 . S
O438 C437 1.224 . S
N439 Co429 2.128 . S
N439 C440 1.355 . S
N439 C442 1.311 . S
C440 N439 1.355 . S
C440 C441 1.363 . S
C440 H452 0.929 . S
C441 C440 1.363 . S
C441 N443 1.375 . S
C441 H459 0.931 . S
C442 N439 1.311 . S
C442 N443 1.347 . S
C442 H453 0.929 . S
N443 C441 1.375 . S
N443 C442 1.347 . S
C444 C447 1.365 . S
C444 N449 1.328 . S
C444 H450 0.929 . S
C445 C446 1.362 . S
C445 C448 1.378 . S
C445 H460 0.929 . S
C446 C445 1.362 . S
C446 C447 1.366 . S
C447 C444 1.365 . S
C447 C446 1.366 . S
C447 H461 0.930 . S
C448 C445 1.378 . S
C448 N449 1.315 . S
C448 H451 0.930 . S
N449 Co429 2.194 . S
N449 C444 1.328 . S
N449 C448 1.315 . S
H450 C444 0.929 . S
H451 C448 0.930 . S
H452 C440 0.929 . S
H453 C442 0.929 . S
O454 Co429 2.351 . S
O454 C457 1.244 . S
O455 Co429 2.155 . S
O455 C457 1.240 . S
O456 Co429 2.096 . S
O456 C437 1.247 . S
C457 O454 1.244 . S
C457 O455 1.240 . S
H458 C432 0.931 . S
H459 C441 0.931 . S
H460 C445 0.929 . S
H461 C447 0.930 . S
Co462 N466 2.148 . S
Co462 N472 2.128 . S
Co462 N482 2.194 . S
Co462 O487 2.351 . S
Co462 O488 2.155 . S
Co462 O489 2.096 . S
C463 N466 1.301 . S
C463 N467 1.328 . S
C463 H468 0.930 . S
C464 C465 1.333 . S
C464 N466 1.317 . S
C464 H469 0.930 . S
C465 C464 1.333 . S
C465 N467 1.350 . S
C465 H491 0.931 . S
N466 Co462 2.148 . S
N466 C463 1.301 . S
N466 C464 1.317 . S
N467 C463 1.328 . S
N467 C465 1.350 . S
H468 C463 0.930 . S
H469 C464 0.930 . S
C470 O471 1.224 . S
C470 O489 1.247 . S
O471 C470 1.224 . S
N472 Co462 2.128 . S
N472 C473 1.355 . S
N472 C475 1.311 . S
C473 N472 1.355 . S
C473 C474 1.363 . S
C473 H485 0.929 . S
C474 C473 1.363 . S
C474 N476 1.375 . S
C474 H492 0.931 . S
C475 N472 1.311 . S
C475 N476 1.347 . S
C475 H486 0.929 . S
N476 C474 1.375 . S
N476 C475 1.347 . S
C477 C480 1.365 . S
C477 N482 1.328 . S
C477 H483 0.929 . S
C478 C479 1.362 . S
C478 C481 1.378 . S
C478 H493 0.929 . S
C479 C478 1.362 . S
C479 C480 1.366 . S
C480 C477 1.365 . S
C480 C479 1.366 . S
C480 H494 0.930 . S
C481 C478 1.378 . S
C481 N482 1.315 . S
C481 H484 0.930 . S
N482 Co462 2.194 . S
N482 C477 1.328 . S
N482 C481 1.315 . S
H483 C477 0.929 . S
H484 C481 0.930 . S
H485 C473 0.929 . S
H486 C475 0.929 . S
O487 Co462 2.351 . S
O487 C490 1.244 . S
O488 Co462 2.155 . S
O488 C490 1.240 . S
O489 Co462 2.096 . S
O489 C470 1.247 . S
C490 O487 1.244 . S
C490 O488 1.240 . S
H491 C465 0.931 . S
H492 C474 0.931 . S
H493 C478 0.929 . S
H494 C480 0.930 . S
Co495 N499 2.148 . S
Co495 N505 2.128 . S
Co495 N515 2.194 . S
Co495 O520 2.351 . S
Co495 O521 2.155 . S
Co495 O522 2.096 . S
C496 N499 1.301 . S
C496 N500 1.328 . S
C496 H501 0.930 . S
C497 C498 1.333 . S
C497 N499 1.317 . S
C497 H502 0.930 . S
C498 C497 1.333 . S
C498 N500 1.350 . S
C498 H524 0.931 . S
N499 Co495 2.148 . S
N499 C496 1.301 . S
N499 C497 1.317 . S
N500 C496 1.328 . S
N500 C498 1.350 . S
H501 C496 0.930 . S
H502 C497 0.930 . S
C503 O504 1.224 . S
C503 O522 1.247 . S
O504 C503 1.224 . S
N505 Co495 2.128 . S
N505 C506 1.355 . S
N505 C508 1.311 . S
C506 N505 1.355 . S
C506 C507 1.363 . S
C506 H518 0.929 . S
C507 C506 1.363 . S
C507 N509 1.375 . S
C507 H525 0.931 . S
C508 N505 1.311 . S
C508 N509 1.347 . S
C508 H519 0.929 . S
N509 C507 1.375 . S
N509 C508 1.347 . S
C510 C513 1.365 . S
C510 N515 1.328 . S
C510 H516 0.929 . S
C511 C512 1.362 . S
C511 C514 1.378 . S
C511 H526 0.929 . S
C512 C511 1.362 . S
C512 C513 1.366 . S
C513 C510 1.365 . S
C513 C512 1.366 . S
C513 H527 0.930 . S
C514 C511 1.378 . S
C514 N515 1.315 . S
C514 H517 0.930 . S
N515 Co495 2.194 . S
N515 C510 1.328 . S
N515 C514 1.315 . S
H516 C510 0.929 . S
H517 C514 0.930 . S
H518 C506 0.929 . S
H519 C508 0.929 . S
O520 Co495 2.351 . S
O520 C523 1.244 . S
O521 Co495 2.155 . S
O521 C523 1.240 . S
O522 Co495 2.096 . S
O522 C503 1.247 . S
C523 O520 1.244 . S
C523 O521 1.240 . S
H524 C498 0.931 . S
H525 C507 0.931 . S
H526 C511 0.929 . S
H527 C513 0.930 . S
H528 C534 0.930 . S
H529 C538 0.930 . S
H530 C543 0.929 1_655 S
H531 C541 0.929 . S
H532 C536 0.929 . S
H533 C542 0.929 . S
C534 H528 0.930 . S
C534 C535 1.367 . S
C534 C542 1.378 . S
C535 C534 1.367 . S
C535 C543 1.433 . S
C536 H532 0.929 . S
C536 C538 1.378 . S
C536 C540 1.350 . S
C537 C540 1.463 . S
C537 C542 1.350 . S
C537 N545 1.427 . S
C538 H529 0.930 . S
C538 C536 1.378 . S
C538 C539 1.367 . S
C539 C538 1.367 . S
C539 C541 1.433 . S
C540 C536 1.350 . S
C540 C537 1.463 . S
C540 N544 1.427 . S
C541 H531 0.929 . S
C541 C539 1.433 . S
C541 N544 1.384 . S
C542 H533 0.929 . S
C542 C534 1.378 . S
C542 C537 1.350 . S
C543 H530 0.929 1_455 S
C543 C535 1.433 . S
C543 N545 1.384 . S
N544 C540 1.427 . S
N544 C541 1.384 . S
N545 C537 1.427 . S
N545 C543 1.384 . S
H546 C552 0.930 . S
H547 C556 0.930 1_565 S
H548 C561 0.929 . S
H549 C559 0.929 . S
H550 C554 0.929 . S
H551 C560 0.929 . S
C552 H546 0.930 . S
C552 C553 1.367 . S
C552 C560 1.378 . S
C553 C552 1.367 . S
C553 C561 1.433 . S
C554 H550 0.929 . S
C554 C556 1.378 . S
C554 C558 1.350 . S
C555 C558 1.463 . S
C555 C560 1.350 . S
C555 N563 1.427 . S
C556 H547 0.930 1_545 S
C556 C554 1.378 . S
C556 C557 1.367 . S
C557 C556 1.367 . S
C557 C559 1.433 . S
C558 C554 1.350 . S
C558 C555 1.463 . S
C558 N562 1.427 . S
C559 H549 0.929 . S
C559 C557 1.433 . S
C559 N562 1.384 . S
C560 H551 0.929 . S
C560 C552 1.378 . S
C560 C555 1.350 . S
C561 H548 0.929 . S
C561 C553 1.433 . S
C561 N563 1.384 . S
N562 C558 1.427 . S
N562 C559 1.384 . S
N563 C555 1.427 . S
N563 C561 1.384 . S
H564 C570 0.930 1_655 S
H565 C574 0.930 . S
H566 C579 0.929 . S
H567 C577 0.929 . S
H568 C572 0.929 . S
H569 C578 0.932 . S
C570 H564 0.930 1_455 S
C570 C571 1.367 . S
C570 C578 1.378 . S
C571 C570 1.367 . S
C571 C579 1.433 . S
C572 H568 0.929 . S
C572 C574 1.378 . S
C572 C576 1.350 . S
C573 C576 1.463 . S
C573 C578 1.350 . S
C573 N581 1.427 . S
C574 H565 0.930 . S
C574 C572 1.378 . S
C574 C575 1.367 . S
C575 C574 1.367 . S
C575 C577 1.433 . S
C576 C572 1.350 . S
C576 C573 1.463 . S
C576 N580 1.427 . S
C577 H567 0.929 . S
C577 C575 1.433 . S
C577 N580 1.384 . S
C578 H569 0.932 . S
C578 C570 1.378 . S
C578 C573 1.350 . S
C579 H566 0.929 . S
C579 C571 1.433 . S
C579 N581 1.384 . S
N580 C576 1.427 . S
N580 C577 1.384 . S
N581 C573 1.427 . S
N581 C579 1.384 . S
H582 C588 0.930 . S
H583 C592 0.930 . S
H584 C597 0.929 1_565 S
H585 C595 0.929 . S
H586 C590 0.929 . S
H587 C596 0.929 . S
C588 H582 0.930 . S
C588 C589 1.367 . S
C588 C596 1.378 . S
C589 C588 1.367 . S
C589 C597 1.433 . S
C590 H586 0.929 . S
C590 C592 1.378 . S
C590 C594 1.350 . S
C591 C594 1.463 . S
C591 C596 1.350 . S
C591 N599 1.427 . S
C592 H583 0.930 . S
C592 C590 1.378 . S
C592 C593 1.367 . S
C593 C592 1.367 . S
C593 C595 1.433 . S
C594 C590 1.350 . S
C594 C591 1.463 . S
C594 N598 1.427 . S
C595 H585 0.929 . S
C595 C593 1.433 . S
C595 N598 1.384 . S
C596 H587 0.929 . S
C596 C588 1.378 . S
C596 C591 1.350 . S
C597 H584 0.929 1_545 S
C597 C589 1.433 . S
C597 N599 1.384 . S
N598 C594 1.427 . S
N598 C595 1.384 . S
N599 C591 1.427 . S
N599 C597 1.384 . S
H600 C606 0.930 . S
H601 C610 0.930 . S
H602 C615 0.929 . S
H603 C613 0.929 . S
H604 C608 0.929 . S
H605 C614 0.929 . S
C606 H600 0.930 . S
C606 C607 1.367 . S
C606 C614 1.378 . S
C607 C606 1.367 . S
C607 C615 1.433 . S
C608 H604 0.929 . S
C608 C610 1.378 . S
C608 C612 1.350 . S
C609 C612 1.463 1_556 S
C609 C614 1.350 . S
C609 N617 1.427 . S
C610 H601 0.930 . S
C610 C608 1.378 . S
C610 C611 1.367 . S
C611 C610 1.367 . S
C611 C613 1.433 . S
C612 C608 1.350 . S
C612 C609 1.463 1_554 S
C612 N616 1.427 . S
C613 H603 0.929 . S
C613 C611 1.433 . S
C613 N616 1.384 . S
C614 H605 0.929 . S
C614 C606 1.378 . S
C614 C609 1.350 . S
C615 H602 0.929 . S
C615 C607 1.433 . S
C615 N617 1.384 . S
N616 C612 1.427 . S
N616 C613 1.384 . S
N617 C609 1.427 . S
N617 C615 1.384 . S
H618 C624 0.930 . S
H619 C628 0.930 . S
H620 C633 0.929 . S
H621 C631 0.929 . S
H622 C626 0.929 . S
H623 C632 0.929 . S
C624 H618 0.930 . S
C624 C625 1.367 . S
C624 C632 1.378 . S
C625 C624 1.367 . S
C625 C633 1.433 . S
C626 H622 0.929 . S
C626 C628 1.378 . S
C626 C630 1.350 . S
C627 C630 1.463 1_556 S
C627 C632 1.350 . S
C627 N635 1.427 . S
C628 H619 0.930 . S
C628 C626 1.378 . S
C628 C629 1.367 . S
C629 C628 1.367 . S
C629 C631 1.433 . S
C630 C626 1.350 . S
C630 C627 1.463 1_554 S
C630 N634 1.427 . S
C631 H621 0.929 . S
C631 C629 1.433 . S
C631 N634 1.384 . S
C632 H623 0.929 . S
C632 C624 1.378 . S
C632 C627 1.350 . S
C633 H620 0.929 . S
C633 C625 1.433 . S
C633 N635 1.384 . S
N634 C630 1.427 . S
N634 C631 1.384 . S
N635 C627 1.427 . S
N635 C633 1.384 . S
H636 C642 0.930 . S
H637 C646 0.930 . S
H638 C651 0.929 . S
H639 C649 0.929 . S
H640 C644 0.929 . S
H641 C650 0.929 . S
C642 H636 0.930 . S
C642 C643 1.367 . S
C642 C650 1.378 . S
C643 C642 1.367 . S
C643 C651 1.433 . S
C644 H640 0.929 . S
C644 C646 1.378 . S
C644 C648 1.350 . S
C645 C648 1.463 1_556 S
C645 C650 1.350 . S
C645 N653 1.427 . S
C646 H637 0.930 . S
C646 C644 1.378 . S
C646 C647 1.367 . S
C647 C646 1.367 . S
C647 C649 1.433 . S
C648 C644 1.350 . S
C648 C645 1.463 1_554 S
C648 N652 1.427 . S
C649 H639 0.929 . S
C649 C647 1.433 . S
C649 N652 1.384 . S
C650 H641 0.929 . S
C650 C642 1.378 . S
C650 C645 1.350 . S
C651 H638 0.929 . S
C651 C643 1.433 . S
C651 N653 1.384 . S
N652 C648 1.427 . S
N652 C649 1.384 . S
N653 C645 1.427 . S
N653 C651 1.384 . S
H654 C660 0.930 . S
H655 C664 0.930 . S
H656 C669 0.929 . S
H657 C667 0.929 . S
H658 C662 0.929 . S
H659 C668 0.929 . S
C660 H654 0.930 . S
C660 C661 1.367 . S
C660 C668 1.378 . S
C661 C660 1.367 . S
C661 C669 1.433 . S
C662 H658 0.929 . S
C662 C664 1.378 . S
C662 C666 1.350 . S
C663 C666 1.463 1_554 S
C663 C668 1.350 . S
C663 N671 1.427 . S
C664 H655 0.930 . S
C664 C662 1.378 . S
C664 C665 1.367 . S
C665 C664 1.367 . S
C665 C667 1.433 . S
C666 C662 1.350 . S
C666 C663 1.463 1_556 S
C666 N670 1.427 . S
C667 H657 0.929 . S
C667 C665 1.433 . S
C667 N670 1.384 . S
C668 H659 0.929 . S
C668 C660 1.378 . S
C668 C663 1.350 . S
C669 H656 0.929 . S
C669 C661 1.433 . S
C669 N671 1.384 . S
N670 C666 1.427 . S
N670 C667 1.384 . S
N671 C663 1.427 . S
N671 C669 1.384 . S
H672 C678 0.930 . S
H673 C682 0.930 . S
H674 C687 0.929 . S
H675 C685 0.929 . S
H676 C680 0.929 . S
H677 C686 0.929 . S
C678 H672 0.930 . S
C678 C679 1.367 . S
C678 C686 1.378 . S
C679 C678 1.367 . S
C679 C687 1.433 . S
C680 H676 0.929 . S
C680 C682 1.378 . S
C680 C684 1.350 . S
C681 C684 1.463 . S
C681 C686 1.350 . S
C681 N689 1.427 . S
C682 H673 0.930 . S
C682 C680 1.378 . S
C682 C683 1.367 . S
C683 C682 1.367 . S
C683 C685 1.433 . S
C684 C680 1.350 . S
C684 C681 1.463 . S
C684 N688 1.427 . S
C685 H675 0.929 . S
C685 C683 1.433 . S
C685 N688 1.384 . S
C686 H677 0.929 . S
C686 C678 1.378 . S
C686 C681 1.350 . S
C687 H674 0.929 . S
C687 C679 1.433 . S
C687 N689 1.384 . S
N688 C684 1.427 . S
N688 C685 1.384 . S
N689 C681 1.427 . S
N689 C687 1.384 . S
H690 C696 0.930 . S
H691 C700 0.930 . S
H692 C705 0.929 . S
H693 C703 0.929 . S
H694 C698 0.929 . S
H695 C704 0.929 . S
C696 H690 0.930 . S
C696 C697 1.367 . S
C696 C704 1.378 . S
C697 C696 1.367 . S
C697 C705 1.433 . S
C698 H694 0.929 . S
C698 C700 1.378 . S
C698 C702 1.350 . S
C699 C702 1.463 . S
C699 C704 1.350 . S
C699 N707 1.427 . S
C700 H691 0.930 . S
C700 C698 1.378 . S
C700 C701 1.367 . S
C701 C700 1.367 . S
C701 C703 1.433 . S
C702 C698 1.350 . S
C702 C699 1.463 . S
C702 N706 1.427 . S
C703 H693 0.929 . S
C703 C701 1.433 . S
C703 N706 1.384 . S
C704 H695 0.929 . S
C704 C696 1.378 . S
C704 C699 1.350 . S
C705 H692 0.929 . S
C705 C697 1.433 . S
C705 N707 1.384 . S
N706 C702 1.427 . S
N706 C703 1.384 . S
N707 C699 1.427 . S
N707 C705 1.384 . S
H708 C714 0.930 . S
H709 C718 0.930 1_455 S
H710 C723 0.929 . S
H711 C721 0.929 . S
H712 C716 0.929 . S
H713 C722 0.929 . S
C714 H708 0.930 . S
C714 C715 1.367 . S
C714 C722 1.378 . S
C715 C714 1.367 . S
C715 C723 1.433 . S
C716 H712 0.929 . S
C716 C718 1.378 . S
C716 C720 1.350 . S
C717 C720 1.463 . S
C717 C722 1.350 . S
C717 N725 1.427 . S
C718 H709 0.930 1_655 S
C718 C716 1.378 . S
C718 C719 1.357 1_655 S
C719 C718 1.357 1_455 S
C719 C721 1.416 1_455 S
C720 C716 1.350 . S
C720 C717 1.463 . S
C720 N724 1.427 . S
C721 H711 0.929 . S
C721 C719 1.416 1_655 S
C721 N724 1.384 . S
C722 H713 0.929 . S
C722 C714 1.378 . S
C722 C717 1.350 . S
C723 H710 0.929 . S
C723 C715 1.433 . S
C723 N725 1.384 . S
N724 C720 1.427 . S
N724 C721 1.384 . S
N725 C717 1.427 . S
N725 C723 1.384 . S
H726 C732 0.930 1_545 S
H727 C736 0.930 . S
H728 C741 0.929 . S
H729 C739 0.929 . S
H730 C734 0.929 . S
H731 C740 0.929 . S
C732 H726 0.930 1_565 S
C732 C733 1.367 1_565 S
C732 C740 1.378 . S
C733 C732 1.367 1_545 S
C733 C741 1.433 1_545 S
C734 H730 0.929 . S
C734 C736 1.378 . S
C734 C738 1.350 . S
C735 C738 1.463 . S
C735 C740 1.350 . S
C735 N743 1.427 . S
C736 H727 0.930 . S
C736 C734 1.378 . S
C736 C737 1.367 . S
C737 C736 1.367 . S
C737 C739 1.433 . S
C738 C734 1.350 . S
C738 C735 1.463 . S
C738 N742 1.427 . S
C739 H729 0.929 . S
C739 C737 1.433 . S
C739 N742 1.384 . S
C740 H731 0.929 . S
C740 C732 1.378 . S
C740 C735 1.350 . S
C741 H728 0.929 . S
C741 C733 1.433 1_565 S
C741 N743 1.384 . S
N742 C738 1.427 . S
N742 C739 1.384 . S
N743 C735 1.427 . S
N743 C741 1.384 . S
H744 C750 0.930 . S
H745 C754 0.930 . S
H746 C759 0.929 . S
H747 C757 0.929 . S
H748 C752 0.929 . S
H749 C758 0.929 . S
C750 H744 0.930 . S
C750 C751 1.367 . S
C750 C758 1.378 . S
C751 C750 1.367 . S
C751 C759 1.433 . S
C752 H748 0.929 . S
C752 C754 1.378 . S
C752 C756 1.350 . S
C753 C756 1.463 . S
C753 C758 1.350 . S
C753 N761 1.427 . S
C754 H745 0.930 . S
C754 C752 1.378 . S
C754 C755 1.367 . S
C755 C754 1.367 . S
C755 C757 1.433 . S
C756 C752 1.350 . S
C756 C753 1.463 . S
C756 N760 1.427 . S
C757 H747 0.929 . S
C757 C755 1.433 . S
C757 N760 1.384 . S
C758 H749 0.929 . S
C758 C750 1.378 . S
C758 C753 1.350 . S
C759 H746 0.929 . S
C759 C751 1.433 . S
C759 N761 1.384 . S
N760 C756 1.427 . S
N760 C757 1.384 . S
N761 C753 1.427 . S
N761 C759 1.384 . S
H762 C768 0.930 . S
H763 C772 0.930 . S
H764 C777 0.929 . S
H765 C775 0.929 . S
H766 C770 0.929 . S
H767 C776 0.929 . S
C768 H762 0.930 . S
C768 C769 1.367 . S
C768 C776 1.378 . S
C769 C768 1.367 . S
C769 C777 1.433 . S
C770 H766 0.929 . S
C770 C772 1.378 . S
C770 C774 1.350 . S
C771 C774 1.463 . S
C771 C776 1.350 . S
C771 N779 1.427 . S
C772 H763 0.930 . S
C772 C770 1.378 . S
C772 C773 1.367 . S
C773 C772 1.367 . S
C773 C775 1.433 . S
C774 C770 1.350 . S
C774 C771 1.463 . S
C774 N778 1.427 . S
C775 H765 0.929 . S
C775 C773 1.433 . S
C775 N778 1.384 . S
C776 H767 0.929 . S
C776 C768 1.378 . S
C776 C771 1.350 . S
C777 H764 0.929 . S
C777 C769 1.433 . S
C777 N779 1.384 . S
N778 C774 1.427 . S
N778 C775 1.384 . S
N779 C771 1.427 . S
N779 C777 1.384 . S
H780 C786 0.930 . S
H781 C790 0.930 . S
H782 C795 0.929 . S
H783 C793 0.929 1_455 S
H784 C788 0.929 . S
H785 C794 0.929 . S
C786 H780 0.930 . S
C786 C787 1.367 . S
C786 C794 1.378 . S
C787 C786 1.367 . S
C787 C795 1.433 . S
C788 H784 0.929 . S
C788 C790 1.378 . S
C788 C792 1.350 . S
C789 C792 1.463 . S
C789 C794 1.350 . S
C789 N797 1.427 . S
C790 H781 0.930 . S
C790 C788 1.378 . S
C790 C791 1.350 1_655 S
C791 C790 1.350 1_455 S
C791 C793 1.431 1_455 S
C792 C788 1.350 . S
C792 C789 1.463 . S
C792 N796 1.427 . S
C793 H783 0.929 1_655 S
C793 C791 1.431 1_655 S
C793 N796 1.384 . S
C794 H785 0.929 . S
C794 C786 1.378 . S
C794 C789 1.350 . S
C795 H782 0.929 . S
C795 C787 1.433 . S
C795 N797 1.384 . S
N796 C792 1.427 . S
N796 C793 1.384 . S
N797 C789 1.427 . S
N797 C795 1.384 . S
H798 C804 0.930 . S
H799 C808 0.929 1_545 S
H800 C813 0.929 . S
H801 C811 0.929 . S
H802 C806 0.929 . S
H803 C812 0.929 . S
C804 H798 0.930 . S
C804 C805 1.367 . S
C804 C812 1.378 . S
C805 C804 1.367 . S
C805 C813 1.433 . S
C806 H802 0.929 . S
C806 C808 1.380 . S
C806 C810 1.350 . S
C807 C810 1.463 . S
C807 C812 1.350 . S
C807 N815 1.427 . S
C808 H799 0.929 1_565 S
C808 C806 1.380 . S
C808 C809 1.367 1_565 S
C809 C808 1.367 1_545 S
C809 C811 1.433 1_545 S
C810 C806 1.350 . S
C810 C807 1.463 . S
C810 N814 1.427 . S
C811 H801 0.929 . S
C811 C809 1.433 1_565 S
C811 N814 1.384 . S
C812 H803 0.929 . S
C812 C804 1.378 . S
C812 C807 1.350 . S
C813 H800 0.929 . S
C813 C805 1.433 . S
C813 N815 1.384 . S
N814 C810 1.427 . S
N814 C811 1.384 . S
N815 C807 1.427 . S
N815 C813 1.384 . S
H816 C822 0.930 . S
H817 C826 0.930 . S
H818 C831 0.929 . S
H819 C829 0.929 . S
H820 C824 0.929 . S
H821 C830 0.929 . S
C822 H816 0.930 . S
C822 C823 1.367 . S
C822 C830 1.378 . S
C823 C822 1.367 . S
C823 C831 1.433 . S
C824 H820 0.929 . S
C824 C826 1.378 . S
C824 C828 1.350 . S
C825 C828 1.463 . S
C825 C830 1.350 . S
C825 N833 1.427 . S
C826 H817 0.930 . S
C826 C824 1.378 . S
C826 C827 1.367 . S
C827 C826 1.367 . S
C827 C829 1.433 . S
C828 C824 1.350 . S
C828 C825 1.463 . S
C828 N832 1.427 . S
C829 H819 0.929 . S
C829 C827 1.433 . S
C829 N832 1.384 . S
C830 H821 0.929 . S
C830 C822 1.378 . S
C830 C825 1.350 . S
C831 H818 0.929 . S
C831 C823 1.433 . S
C831 N833 1.384 . S
N832 C828 1.427 . S
N832 C829 1.384 . S
N833 C825 1.427 . S
N833 C831 1.384 . S
H834 C840 0.930 . S
H835 C844 0.930 . S
H836 C849 0.929 . S
H837 C847 0.929 . S
H838 C842 0.929 . S
H839 C848 0.929 . S
C840 H834 0.930 . S
C840 C841 1.367 . S
C840 C848 1.378 . S
C841 C840 1.367 . S
C841 C849 1.433 . S
C842 H838 0.929 . S
C842 C844 1.378 . S
C842 C846 1.350 . S
C843 C846 1.463 . S
C843 C848 1.350 . S
C843 N851 1.427 . S
C844 H835 0.930 . S
C844 C842 1.378 . S
C844 C845 1.367 . S
C845 C844 1.367 . S
C845 C847 1.433 . S
C846 C842 1.350 . S
C846 C843 1.463 . S
C846 N850 1.427 . S
C847 H837 0.929 . S
C847 C845 1.433 . S
C847 N850 1.384 . S
C848 H839 0.929 . S
C848 C840 1.378 . S
C848 C843 1.350 . S
C849 H836 0.929 . S
C849 C841 1.433 . S
C849 N851 1.384 . S
N850 C846 1.427 . S
N850 C847 1.384 . S
N851 C843 1.427 . S
N851 C849 1.384 . S
H852 C858 0.930 . S
H853 C862 0.930 . S
H854 C867 0.929 . S
H855 C865 0.929 . S
H856 C860 0.929 . S
H857 C866 0.929 . S
C858 H852 0.930 . S
C858 C859 1.367 . S
C858 C866 1.378 . S
C859 C858 1.367 . S
C859 C867 1.433 . S
C860 H856 0.929 . S
C860 C862 1.378 . S
C860 C864 1.350 . S
C861 C864 1.463 . S
C861 C866 1.350 . S
C861 N869 1.427 . S
C862 H853 0.930 . S
C862 C860 1.378 . S
C862 C863 1.367 . S
C863 C862 1.367 . S
C863 C865 1.433 . S
C864 C860 1.350 . S
C864 C861 1.463 . S
C864 N868 1.427 . S
C865 H855 0.929 . S
C865 C863 1.433 . S
C865 N868 1.384 . S
C866 H857 0.929 . S
C866 C858 1.378 . S
C866 C861 1.350 . S
C867 H854 0.929 . S
C867 C859 1.433 . S
C867 N869 1.384 . S
N868 C864 1.427 . S
N868 C865 1.384 . S
N869 C861 1.427 . S
N869 C867 1.384 . S
H870 C876 0.930 . S
H871 C880 0.930 . S
H872 C885 0.929 . S
H873 C883 0.929 . S
H874 C878 0.929 . S
H875 C884 0.929 . S
C876 H870 0.930 . S
C876 C877 1.367 . S
C876 C884 1.378 . S
C877 C876 1.367 . S
C877 C885 1.433 . S
C878 H874 0.929 . S
C878 C880 1.378 . S
C878 C882 1.350 . S
C879 C882 1.463 . S
C879 C884 1.350 . S
C879 N887 1.427 . S
C880 H871 0.930 . S
C880 C878 1.378 . S
C880 C881 1.367 . S
C881 C880 1.367 . S
C881 C883 1.433 . S
C882 C878 1.350 . S
C882 C879 1.463 . S
C882 N886 1.427 . S
C883 H873 0.929 . S
C883 C881 1.433 . S
C883 N886 1.384 . S
C884 H875 0.929 . S
C884 C876 1.378 . S
C884 C879 1.350 . S
C885 H872 0.929 . S
C885 C877 1.433 . S
C885 N887 1.384 . S
N886 C882 1.427 . S
N886 C883 1.384 . S
N887 C879 1.427 . S
N887 C885 1.384 . S
H888 C894 0.930 . S
H889 C898 0.930 . S
H890 C903 0.929 . S
H891 C901 0.929 . S
H892 C896 0.929 . S
H893 C902 0.929 . S
C894 H888 0.930 . S
C894 C895 1.367 . S
C894 C902 1.378 . S
C895 C894 1.367 . S
C895 C903 1.433 . S
C896 H892 0.929 . S
C896 C898 1.378 . S
C896 C900 1.350 . S
C897 C900 1.463 . S
C897 C902 1.350 . S
C897 N905 1.427 . S
C898 H889 0.930 . S
C898 C896 1.378 . S
C898 C899 1.367 . S
C899 C898 1.367 . S
C899 C901 1.433 . S
C900 C896 1.350 . S
C900 C897 1.463 . S
C900 N904 1.427 . S
C901 H891 0.929 . S
C901 C899 1.433 . S
C901 N904 1.384 . S
C902 H893 0.929 . S
C902 C894 1.378 . S
C902 C897 1.350 . S
C903 H890 0.929 . S
C903 C895 1.433 . S
C903 N905 1.384 . S
N904 C900 1.427 . S
N904 C901 1.384 . S
N905 C897 1.427 . S
N905 C903 1.384 . S
H906 C912 0.930 . S
H907 C916 0.930 . S
H908 C921 0.929 . S
H909 C919 0.929 . S
H910 C914 0.929 . S
H911 C920 0.929 . S
C912 H906 0.930 . S
C912 C913 1.367 . S
C912 C920 1.378 . S
C913 C912 1.367 . S
C913 C921 1.433 . S
C914 H910 0.929 . S
C914 C916 1.378 . S
C914 C918 1.350 . S
C915 C918 1.463 . S
C915 C920 1.350 . S
C915 N923 1.427 . S
C916 H907 0.930 . S
C916 C914 1.378 . S
C916 C917 1.367 . S
C917 C916 1.367 . S
C917 C919 1.433 . S
C918 C914 1.350 . S
C918 C915 1.463 . S
C918 N922 1.427 . S
C919 H909 0.929 . S
C919 C917 1.433 . S
C919 N922 1.384 . S
C920 H911 0.929 . S
C920 C912 1.378 . S
C920 C915 1.350 . S
C921 H908 0.929 . S
C921 C913 1.433 . S
C921 N923 1.384 . S
N922 C918 1.427 . S
N922 C919 1.384 . S
N923 C915 1.427 . S
N923 C921 1.384 . S
H924 C930 0.930 . S
H925 C934 0.930 . S
H926 C939 0.929 . S
H927 C937 0.929 . S
H928 C932 0.929 . S
H929 C938 0.929 . S
C930 H924 0.930 . S
C930 C931 1.367 . S
C930 C938 1.378 . S
C931 C930 1.367 . S
C931 C939 1.433 . S
C932 H928 0.929 . S
C932 C934 1.378 . S
C932 C936 1.350 . S
C933 C936 1.463 . S
C933 C938 1.350 . S
C933 N941 1.427 . S
C934 H925 0.930 . S
C934 C932 1.378 . S
C934 C935 1.367 . S
C935 C934 1.367 . S
C935 C937 1.433 . S
C936 C932 1.350 . S
C936 C933 1.463 . S
C936 N940 1.427 . S
C937 H927 0.929 . S
C937 C935 1.433 . S
C937 N940 1.384 . S
C938 H929 0.929 . S
C938 C930 1.378 . S
C938 C933 1.350 . S
C939 H926 0.929 . S
C939 C931 1.433 . S
C939 N941 1.384 . S
N940 C936 1.427 . S
N940 C937 1.384 . S
N941 C933 1.427 . S
N941 C939 1.384 . S
H942 C948 0.930 . S
H943 C952 0.930 . S
H944 C957 0.929 . S
H945 C955 0.929 . S
H946 C950 0.929 . S
H947 C956 0.929 . S
C948 H942 0.930 . S
C948 C949 1.367 . S
C948 C956 1.378 . S
C949 C948 1.367 . S
C949 C957 1.433 . S
C950 H946 0.929 . S
C950 C952 1.378 . S
C950 C954 1.350 . S
C951 C954 1.463 . S
C951 C956 1.350 . S
C951 N959 1.427 . S
C952 H943 0.930 . S
C952 C950 1.378 . S
C952 C953 1.367 . S
C953 C952 1.367 . S
C953 C955 1.433 . S
C954 C950 1.350 . S
C954 C951 1.463 . S
C954 N958 1.427 . S
C955 H945 0.929 . S
C955 C953 1.433 . S
C955 N958 1.384 . S
C956 H947 0.929 . S
C956 C948 1.378 . S
C956 C951 1.350 . S
C957 H944 0.929 . S
C957 C949 1.433 . S
C957 N959 1.384 . S
N958 C954 1.427 . S
N958 C955 1.384 . S
N959 C951 1.427 . S
N959 C957 1.384 . S
H960 C966 0.930 . S
H961 C970 0.930 . S
H962 C975 0.929 . S
H963 C973 0.929 . S
H964 C968 0.929 . S
H965 C974 0.929 . S
C966 H960 0.930 . S
C966 C967 1.367 . S
C966 C974 1.378 . S
C967 C966 1.367 . S
C967 C975 1.433 . S
C968 H964 0.929 . S
C968 C970 1.378 . S
C968 C972 1.350 . S
C969 C972 1.463 . S
C969 C974 1.350 . S
C969 N977 1.427 . S
C970 H961 0.930 . S
C970 C968 1.378 . S
C970 C971 1.367 . S
C971 C970 1.367 . S
C971 C973 1.433 . S
C972 C968 1.350 . S
C972 C969 1.463 . S
C972 N976 1.427 . S
C973 H963 0.929 . S
C973 C971 1.433 . S
C973 N976 1.384 . S
C974 H965 0.929 . S
C974 C966 1.378 . S
C974 C969 1.350 . S
C975 H962 0.929 . S
C975 C967 1.433 . S
C975 N977 1.384 . S
N976 C972 1.427 . S
N976 C973 1.384 . S
N977 C969 1.427 . S
N977 C975 1.384 . S
H978 C984 0.930 . S
H979 C988 0.930 . S
H980 C993 0.929 . S
H981 C991 0.929 . S
H982 C986 0.929 . S
H983 C992 0.929 . S
C984 H978 0.930 . S
C984 C985 1.367 . S
C984 C992 1.378 . S
C985 C984 1.367 . S
C985 C993 1.433 . S
C986 H982 0.929 . S
C986 C988 1.378 . S
C986 C990 1.350 . S
C987 C990 1.463 . S
C987 C992 1.350 . S
C987 N995 1.427 . S
C988 H979 0.930 . S
C988 C986 1.378 . S
C988 C989 1.367 . S
C989 C988 1.367 . S
C989 C991 1.433 . S
C990 C986 1.350 . S
C990 C987 1.463 . S
C990 N994 1.427 . S
C991 H981 0.929 . S
C991 C989 1.433 . S
C991 N994 1.384 . S
C992 H983 0.929 . S
C992 C984 1.378 . S
C992 C987 1.350 . S
C993 H980 0.929 . S
C993 C985 1.433 . S
C993 N995 1.384 . S
N994 C990 1.427 . S
N994 C991 1.384 . S
N995 C987 1.427 . S
N995 C993 1.384 . S
H996 C1002 0.930 . S
H997 C1006 0.930 . S
H998 C1011 0.929 . S
H999 C1009 0.947 . S
H1000 C1004 0.929 . S
H1001 C1010 0.929 . S
C1002 H996 0.930 . S
C1002 C1003 1.367 . S
C1002 C1010 1.378 . S
C1003 C1002 1.367 . S
C1003 C1011 1.433 . S
C1004 H1000 0.929 . S
C1004 C1006 1.378 . S
C1004 C1008 1.350 . S
C1005 C1008 1.463 . S
C1005 C1010 1.350 . S
C1005 N1013 1.427 . S
C1006 H997 0.930 . S
C1006 C1004 1.378 . S
C1006 C1007 1.367 . S
C1007 C1006 1.367 . S
C1007 C1009 1.426 1_655 S
C1008 C1004 1.350 . S
C1008 C1005 1.463 . S
C1008 N1012 1.427 . S
C1009 H999 0.947 . S
C1009 C1007 1.426 1_455 S
C1009 N1012 1.372 1_455 S
C1010 H1001 0.929 . S
C1010 C1002 1.378 . S
C1010 C1005 1.350 . S
C1011 H998 0.929 . S
C1011 C1003 1.433 . S
C1011 N1013 1.384 . S
N1012 C1008 1.427 . S
N1012 C1009 1.372 1_655 S
N1013 C1005 1.427 . S
N1013 C1011 1.384 . S
H1014 C1020 0.930 . S
H1015 C1024 0.930 . S
H1016 C1029 0.932 1_545 S
H1017 C1027 0.929 . S
H1018 C1022 0.929 . S
H1019 C1028 0.929 . S
C1020 H1014 0.930 . S
C1020 C1021 1.367 . S
C1020 C1028 1.378 . S
C1021 C1020 1.367 . S
C1021 C1029 1.432 . S
C1022 H1018 0.929 . S
C1022 C1024 1.378 . S
C1022 C1026 1.350 . S
C1023 C1026 1.463 . S
C1023 C1028 1.350 . S
C1023 N1031 1.427 . S
C1024 H1015 0.930 . S
C1024 C1022 1.378 . S
C1024 C1025 1.367 . S
C1025 C1024 1.367 . S
C1025 C1027 1.433 . S
C1026 C1022 1.350 . S
C1026 C1023 1.463 . S
C1026 N1030 1.427 . S
C1027 H1017 0.929 . S
C1027 C1025 1.433 . S
C1027 N1030 1.384 . S
C1028 H1019 0.929 . S
C1028 C1020 1.378 . S
C1028 C1023 1.350 . S
C1029 H1016 0.932 1_565 S
C1029 C1021 1.432 . S
C1029 N1031 1.381 . S
N1030 C1026 1.427 . S
N1030 C1027 1.384 . S
N1031 C1023 1.427 . S
N1031 C1029 1.381 . S
H1032 C1038 0.930 . S
H1033 C1042 0.930 . S
H1034 C1047 0.929 . S
H1035 C1045 0.929 . S
H1036 C1040 0.929 . S
H1037 C1046 0.929 . S
C1038 H1032 0.930 . S
C1038 C1039 1.367 . S
C1038 C1046 1.378 . S
C1039 C1038 1.367 . S
C1039 C1047 1.433 . S
C1040 H1036 0.929 . S
C1040 C1042 1.378 . S
C1040 C1044 1.350 . S
C1041 C1044 1.463 . S
C1041 C1046 1.350 . S
C1041 N1049 1.427 . S
C1042 H1033 0.930 . S
C1042 C1040 1.378 . S
C1042 C1043 1.367 . S
C1043 C1042 1.367 . S
C1043 C1045 1.433 . S
C1044 C1040 1.350 . S
C1044 C1041 1.463 . S
C1044 N1048 1.427 . S
C1045 H1035 0.929 . S
C1045 C1043 1.433 . S
C1045 N1048 1.384 . S
C1046 H1037 0.929 . S
C1046 C1038 1.378 . S
C1046 C1041 1.350 . S
C1047 H1034 0.929 . S
C1047 C1039 1.433 . S
C1047 N1049 1.384 . S
N1048 C1044 1.427 . S
N1048 C1045 1.384 . S
N1049 C1041 1.427 . S
N1049 C1047 1.384 . S
H1050 C1056 0.930 . S
H1051 C1060 0.930 . S
H1052 C1065 0.929 . S
H1053 C1063 0.929 . S
H1054 C1058 0.929 . S
H1055 C1064 0.929 . S
C1056 H1050 0.930 . S
C1056 C1057 1.367 . S
C1056 C1064 1.378 . S
C1057 C1056 1.367 . S
C1057 C1065 1.433 . S
C1058 H1054 0.929 . S
C1058 C1060 1.378 . S
C1058 C1062 1.350 . S
C1059 C1062 1.463 . S
C1059 C1064 1.350 . S
C1059 N1067 1.427 . S
C1060 H1051 0.930 . S
C1060 C1058 1.378 . S
C1060 C1061 1.367 . S
C1061 C1060 1.367 . S
C1061 C1063 1.433 . S
C1062 C1058 1.350 . S
C1062 C1059 1.463 . S
C1062 N1066 1.427 . S
C1063 H1053 0.929 . S
C1063 C1061 1.433 . S
C1063 N1066 1.384 . S
C1064 H1055 0.929 . S
C1064 C1056 1.378 . S
C1064 C1059 1.350 . S
C1065 H1052 0.929 . S
C1065 C1057 1.433 . S
C1065 N1067 1.384 . S
N1066 C1062 1.427 . S
N1066 C1063 1.384 . S
N1067 C1059 1.427 . S
N1067 C1065 1.384 . S
H1068 C1074 0.930 1_455 S
H1069 C1078 0.930 . S
H1070 C1083 0.929 . S
H1071 C1081 0.929 . S
H1072 C1076 0.929 . S
H1073 C1082 0.929 . S
C1074 H1068 0.930 1_655 S
C1074 C1075 1.367 . S
C1074 C1082 1.378 . S
C1075 C1074 1.367 . S
C1075 C1083 1.433 . S
C1076 H1072 0.929 . S
C1076 C1078 1.378 . S
C1076 C1080 1.350 . S
C1077 C1080 1.463 . S
C1077 C1082 1.350 . S
C1077 N1085 1.427 . S
C1078 H1069 0.930 . S
C1078 C1076 1.378 . S
C1078 C1079 1.367 . S
C1079 C1078 1.367 . S
C1079 C1081 1.433 . S
C1080 C1076 1.350 . S
C1080 C1077 1.463 . S
C1080 N1084 1.427 . S
C1081 H1071 0.929 . S
C1081 C1079 1.433 . S
C1081 N1084 1.384 . S
C1082 H1073 0.929 . S
C1082 C1074 1.378 . S
C1082 C1077 1.350 . S
C1083 H1070 0.929 . S
C1083 C1075 1.433 . S
C1083 N1085 1.384 . S
N1084 C1080 1.427 . S
N1084 C1081 1.384 . S
N1085 C1077 1.427 . S
N1085 C1083 1.384 . S
H1086 C1092 0.930 . S
H1087 C1096 0.930 1_545 S
H1088 C1101 0.929 . S
H1089 C1099 0.929 . S
H1090 C1094 0.929 . S
H1091 C1100 0.929 . S
C1092 H1086 0.930 . S
C1092 C1093 1.367 . S
C1092 C1100 1.378 . S
C1093 C1092 1.367 . S
C1093 C1101 1.433 . S
C1094 H1090 0.929 . S
C1094 C1096 1.378 . S
C1094 C1098 1.350 . S
C1095 C1098 1.463 . S
C1095 C1100 1.350 . S
C1095 N1103 1.427 . S
C1096 H1087 0.930 1_565 S
C1096 C1094 1.378 . S
C1096 C1097 1.367 . S
C1097 C1096 1.367 . S
C1097 C1099 1.433 . S
C1098 C1094 1.350 . S
C1098 C1095 1.463 . S
C1098 N1102 1.427 . S
C1099 H1089 0.929 . S
C1099 C1097 1.433 . S
C1099 N1102 1.384 . S
C1100 H1091 0.929 . S
C1100 C1092 1.378 . S
C1100 C1095 1.350 . S
C1101 H1088 0.929 . S
C1101 C1093 1.433 . S
C1101 N1103 1.384 . S
N1102 C1098 1.427 . S
N1102 C1099 1.384 . S
N1103 C1095 1.427 . S
N1103 C1101 1.384 . S
H1104 C1110 0.930 . S
H1105 C1114 0.930 . S
H1106 C1119 0.929 . S
H1107 C1117 0.929 . S
H1108 C1112 0.929 . S
H1109 C1118 0.929 . S
C1110 H1104 0.930 . S
C1110 C1111 1.367 . S
C1110 C1118 1.378 . S
C1111 C1110 1.367 . S
C1111 C1119 1.433 . S
C1112 H1108 0.929 . S
C1112 C1114 1.378 . S
C1112 C1116 1.350 . S
C1113 C1116 1.463 . S
C1113 C1118 1.350 . S
C1113 N1121 1.427 . S
C1114 H1105 0.930 . S
C1114 C1112 1.378 . S
C1114 C1115 1.367 . S
C1115 C1114 1.367 . S
C1115 C1117 1.433 . S
C1116 C1112 1.350 . S
C1116 C1113 1.463 . S
C1116 N1120 1.427 . S
C1117 H1107 0.929 . S
C1117 C1115 1.433 . S
C1117 N1120 1.384 . S
C1118 H1109 0.929 . S
C1118 C1110 1.378 . S
C1118 C1113 1.350 . S
C1119 H1106 0.929 . S
C1119 C1111 1.433 . S
C1119 N1121 1.384 . S
N1120 C1116 1.427 . S
N1120 C1117 1.384 . S
N1121 C1113 1.427 . S
N1121 C1119 1.384 . S
H1122 C1128 0.930 . S
H1123 C1132 0.930 . S
H1124 C1137 0.929 . S
H1125 C1135 0.929 . S
H1126 C1130 0.929 . S
H1127 C1136 0.929 . S
C1128 H1122 0.930 . S
C1128 C1129 1.367 . S
C1128 C1136 1.378 . S
C1129 C1128 1.367 . S
C1129 C1137 1.433 . S
C1130 H1126 0.929 . S
C1130 C1132 1.378 . S
C1130 C1134 1.350 . S
C1131 C1134 1.463 . S
C1131 C1136 1.350 . S
C1131 N1139 1.427 . S
C1132 H1123 0.930 . S
C1132 C1130 1.378 . S
C1132 C1133 1.367 . S
C1133 C1132 1.367 . S
C1133 C1135 1.433 . S
C1134 C1130 1.350 . S
C1134 C1131 1.463 . S
C1134 N1138 1.427 . S
C1135 H1125 0.929 . S
C1135 C1133 1.433 . S
C1135 N1138 1.384 . S
C1136 H1127 0.929 . S
C1136 C1128 1.378 . S
C1136 C1131 1.350 . S
C1137 H1124 0.929 . S
C1137 C1129 1.433 . S
C1137 N1139 1.384 . S
N1138 C1134 1.427 . S
N1138 C1135 1.384 . S
N1139 C1131 1.427 . S
N1139 C1137 1.384 . S
H1140 C1146 0.930 . S
H1141 C1150 0.930 . S
H1142 C1155 0.929 . S
H1143 C1153 0.929 . S
H1144 C1148 0.929 . S
H1145 C1154 0.929 . S
C1146 H1140 0.930 . S
C1146 C1147 1.367 . S
C1146 C1154 1.378 . S
C1147 C1146 1.367 . S
C1147 C1155 1.433 . S
C1148 H1144 0.929 . S
C1148 C1150 1.378 . S
C1148 C1152 1.350 . S
C1149 C1152 1.463 . S
C1149 C1154 1.350 . S
C1149 N1157 1.427 . S
C1150 H1141 0.930 . S
C1150 C1148 1.378 . S
C1150 C1151 1.367 . S
C1151 C1150 1.367 . S
C1151 C1153 1.433 . S
C1152 C1148 1.350 . S
C1152 C1149 1.463 . S
C1152 N1156 1.427 . S
C1153 H1143 0.929 . S
C1153 C1151 1.433 . S
C1153 N1156 1.384 . S
C1154 H1145 0.929 . S
C1154 C1146 1.378 . S
C1154 C1149 1.350 . S
C1155 H1142 0.929 . S
C1155 C1147 1.433 . S
C1155 N1157 1.384 . S
N1156 C1152 1.427 . S
N1156 C1153 1.384 . S
N1157 C1149 1.427 . S
N1157 C1155 1.384 . S
H1158 C1164 0.930 . S
H1159 C1168 0.930 . S
H1160 C1173 0.929 . S
H1161 C1171 0.929 . S
H1162 C1166 0.929 . S
H1163 C1172 0.929 . S
C1164 H1158 0.930 . S
C1164 C1165 1.367 . S
C1164 C1172 1.378 . S
C1165 C1164 1.367 . S
C1165 C1173 1.433 . S
C1166 H1162 0.929 . S
C1166 C1168 1.378 . S
C1166 C1170 1.350 . S
C1167 C1170 1.463 . S
C1167 C1172 1.350 . S
C1167 N1175 1.427 . S
C1168 H1159 0.930 . S
C1168 C1166 1.378 . S
C1168 C1169 1.367 . S
C1169 C1168 1.367 . S
C1169 C1171 1.433 . S
C1170 C1166 1.350 . S
C1170 C1167 1.463 . S
C1170 N1174 1.427 . S
C1171 H1161 0.929 . S
C1171 C1169 1.433 . S
C1171 N1174 1.384 . S
C1172 H1163 0.929 . S
C1172 C1164 1.378 . S
C1172 C1167 1.350 . S
C1173 H1160 0.929 . S
C1173 C1165 1.433 . S
C1173 N1175 1.384 . S
N1174 C1170 1.427 . S
N1174 C1171 1.384 . S
N1175 C1167 1.427 . S
N1175 C1173 1.384 . S
H1176 C1182 0.930 . S
H1177 C1186 0.930 . S
H1178 C1191 0.929 . S
H1179 C1189 0.929 . S
H1180 C1184 0.929 . S
H1181 C1190 0.929 . S
C1182 H1176 0.930 . S
C1182 C1183 1.367 . S
C1182 C1190 1.378 . S
C1183 C1182 1.367 . S
C1183 C1191 1.433 . S
C1184 H1180 0.929 . S
C1184 C1186 1.378 . S
C1184 C1188 1.350 . S
C1185 C1188 1.463 . S
C1185 C1190 1.350 . S
C1185 N1193 1.427 . S
C1186 H1177 0.930 . S
C1186 C1184 1.378 . S
C1186 C1187 1.367 . S
C1187 C1186 1.367 . S
C1187 C1189 1.433 . S
C1188 C1184 1.350 . S
C1188 C1185 1.463 . S
C1188 N1192 1.427 . S
C1189 H1179 0.929 . S
C1189 C1187 1.433 . S
C1189 N1192 1.384 . S
C1190 H1181 0.929 . S
C1190 C1182 1.378 . S
C1190 C1185 1.350 . S
C1191 H1178 0.929 . S
C1191 C1183 1.433 . S
C1191 N1193 1.384 . S
N1192 C1188 1.427 . S
N1192 C1189 1.384 . S
N1193 C1185 1.427 . S
N1193 C1191 1.384 . S
H1194 C1200 0.930 . S
H1195 C1204 0.930 . S
H1196 C1209 0.929 . S
H1197 C1207 0.929 . S
H1198 C1202 0.929 . S
H1199 C1208 0.929 . S
C1200 H1194 0.930 . S
C1200 C1201 1.367 . S
C1200 C1208 1.378 . S
C1201 C1200 1.367 . S
C1201 C1209 1.433 . S
C1202 H1198 0.929 . S
C1202 C1204 1.378 . S
C1202 C1206 1.350 . S
C1203 C1206 1.463 . S
C1203 C1208 1.350 . S
C1203 N1211 1.427 . S
C1204 H1195 0.930 . S
C1204 C1202 1.378 . S
C1204 C1205 1.367 . S
C1205 C1204 1.367 . S
C1205 C1207 1.433 . S
C1206 C1202 1.350 . S
C1206 C1203 1.463 . S
C1206 N1210 1.427 . S
C1207 H1197 0.929 . S
C1207 C1205 1.433 . S
C1207 N1210 1.384 . S
C1208 H1199 0.929 . S
C1208 C1200 1.378 . S
C1208 C1203 1.350 . S
C1209 H1196 0.929 . S
C1209 C1201 1.433 . S
C1209 N1211 1.384 . S
N1210 C1206 1.427 . S
N1210 C1207 1.384 . S
N1211 C1203 1.427 . S
N1211 C1209 1.384 . S
H1212 C1218 0.930 . S
H1213 C1222 0.930 . S
H1214 C1227 0.929 . S
H1215 C1225 0.929 . S
H1216 C1220 0.929 . S
H1217 C1226 0.929 . S
C1218 H1212 0.930 . S
C1218 C1219 1.367 . S
C1218 C1226 1.378 . S
C1219 C1218 1.367 . S
C1219 C1227 1.433 . S
C1220 H1216 0.929 . S
C1220 C1222 1.378 . S
C1220 C1224 1.350 . S
C1221 C1224 1.463 . S
C1221 C1226 1.350 . S
C1221 N1229 1.427 . S
C1222 H1213 0.930 . S
C1222 C1220 1.378 . S
C1222 C1223 1.367 . S
C1223 C1222 1.367 . S
C1223 C1225 1.433 . S
C1224 C1220 1.350 . S
C1224 C1221 1.463 . S
C1224 N1228 1.427 . S
C1225 H1215 0.929 . S
C1225 C1223 1.433 . S
C1225 N1228 1.384 . S
C1226 H1217 0.929 . S
C1226 C1218 1.378 . S
C1226 C1221 1.350 . S
C1227 H1214 0.929 . S
C1227 C1219 1.433 . S
C1227 N1229 1.384 . S
N1228 C1224 1.427 . S
N1228 C1225 1.384 . S
N1229 C1221 1.427 . S
N1229 C1227 1.384 . S
H1230 C1236 0.930 . S
H1231 C1240 0.930 . S
H1232 C1245 0.929 . S
H1233 C1243 0.929 . S
H1234 C1238 0.929 . S
H1235 C1244 0.929 . S
C1236 H1230 0.930 . S
C1236 C1237 1.367 . S
C1236 C1244 1.378 . S
C1237 C1236 1.367 . S
C1237 C1245 1.433 . S
C1238 H1234 0.929 . S
C1238 C1240 1.378 . S
C1238 C1242 1.350 . S
C1239 C1242 1.463 . S
C1239 C1244 1.350 . S
C1239 N1247 1.427 . S
C1240 H1231 0.930 . S
C1240 C1238 1.378 . S
C1240 C1241 1.367 . S
C1241 C1240 1.367 . S
C1241 C1243 1.433 . S
C1242 C1238 1.350 . S
C1242 C1239 1.463 . S
C1242 N1246 1.427 . S
C1243 H1233 0.929 . S
C1243 C1241 1.433 . S
C1243 N1246 1.384 . S
C1244 H1235 0.929 . S
C1244 C1236 1.378 . S
C1244 C1239 1.350 . S
C1245 H1232 0.929 . S
C1245 C1237 1.433 . S
C1245 N1247 1.384 . S
N1246 C1242 1.427 . S
N1246 C1243 1.384 . S
N1247 C1239 1.427 . S
N1247 C1245 1.384 . S
C535 C17 1.505 . S
C539 C215 1.509 . S
C553 C248 1.508 . S
C557 C50 1.513 . S
C571 C149 1.513 . S
C575 C83 1.509 . S
C589 C182 1.509 . S
C593 C116 1.504 . S
C607 C281 1.514 . S
C611 C479 1.507 . S
C625 C314 1.508 . S
C629 C512 1.513 . S
C643 C347 1.513 . S
C647 C413 1.505 . S
C661 C446 1.508 . S
C665 C380 1.505 . S
C679 C28 1.474 . S
C683 N104 1.454 . S
C697 C61 1.486 . S
C701 N5 1.468 . S
C715 N38 1.452 . S
C719 C94 1.502 . S
C733 C127 1.489 . S
C737 N71 1.462 . S
C751 N170 1.467 . S
C755 C160 1.488 . S
C769 N203 1.459 . S
C773 C193 1.475 . S
C787 N236 1.457 . S
C791 C226 1.493 . S
C805 N137 1.450 . S
C809 C259 1.477 . S
C823 C292 1.489 . S
C827 N368 1.466 . S
C841 N269 1.453 . S
C845 C325 1.484 . S
C859 C358 1.482 . S
C863 N302 1.451 . S
C877 C391 1.488 . S
C881 N335 1.468 . S
C895 C424 1.489 . S
C899 N434 1.466 . S
C913 C457 1.478 . S
C917 N467 1.450 . S
C931 C490 1.485 . S
C935 N500 1.454 . S
C949 N401 1.464 . S
C953 C523 1.489 . S
C967 N509 1.236 . S
C971 N14 1.248 . S
C985 N47 1.236 . S
C989 N410 1.251 . S
C1003 N443 1.250 . S
C1007 N80 1.228 1_655 S
C1021 N113 1.228 1_565 S
C1025 N476 1.250 . S
C1039 N311 1.236 . S
C1043 N146 1.249 . S
C1057 N179 1.250 . S
C1061 N344 1.236 . S
C1075 N212 1.235 1_655 S
C1079 N377 1.241 . S
C1093 N278 1.240 . S
C1097 N245 1.237 1_565 S
C1111 C140 1.464 . S
C1115 C371 1.463 . S
C1129 C173 1.466 . S
C1133 C272 1.466 . S
C1147 C206 1.456 . S
C1151 C305 1.456 . S
C1165 C338 1.455 . S
C1169 C239 1.456 . S
C1183 C8 1.466 . S
C1187 C437 1.466 . S
C1201 C470 1.467 . S
C1205 C41 1.468 . S
C1219 C74 1.457 . S
C1223 C503 1.458 . S
C1237 C107 1.458 . S
C1241 C404 1.458 . S
