# Generated by pormake.
# Topology sml, (6)-cn, num edge types: 1
# Building blocks:
#     Node 0, Type 0, BuildingBlock: PAMTUU_clean_sbu_0, # of connection points: 6
#     Node 1, Type 0, BuildingBlock: PAMTUU_clean_sbu_0, # of connection points: 6
#     Node 2, Type 0, BuildingBlock: PAMTUU_clean_sbu_0, # of connection points: 6
#     Node 3, Type 0, BuildingBlock: PAMTUU_clean_sbu_0, # of connection points: 6
#     Node 4, Type 0, BuildingBlock: PAMTUU_clean_sbu_0, # of connection points: 6
#     Node 5, Type 0, BuildingBlock: PAMTUU_clean_sbu_0, # of connection points: 6
#     Edge 6, Type (0, 0), BuildingBlock: AJUNOK_clean_linker_0, # of connection points: 2
#     Edge 7, Type (0, 0), BuildingBlock: AJUNOK_clean_linker_0, # of connection points: 2
#     Edge 8, Type (0, 0), BuildingBlock: AJUNOK_clean_linker_0, # of connection points: 2
#     Edge 9, Type (0, 0), BuildingBlock: AJUNOK_clean_linker_0, # of connection points: 2
#     Edge 10, Type (0, 0), BuildingBlock: AJUNOK_clean_linker_0, # of connection points: 2
#     Edge 11, Type (0, 0), BuildingBlock: AJUNOK_clean_linker_0, # of connection points: 2
#     Edge 12, Type (0, 0), BuildingBlock: AJUNOK_clean_linker_0, # of connection points: 2
#     Edge 13, Type (0, 0), BuildingBlock: AJUNOK_clean_linker_0, # of connection points: 2
#     Edge 14, Type (0, 0), BuildingBlock: AJUNOK_clean_linker_0, # of connection points: 2
#     Edge 15, Type (0, 0), BuildingBlock: AJUNOK_clean_linker_0, # of connection points: 2
#     Edge 16, Type (0, 0), BuildingBlock: AJUNOK_clean_linker_0, # of connection points: 2
#     Edge 17, Type (0, 0), BuildingBlock: AJUNOK_clean_linker_0, # of connection points: 2
#     Edge 18, Type (0, 0), BuildingBlock: AJUNOK_clean_linker_0, # of connection points: 2
#     Edge 19, Type (0, 0), BuildingBlock: AJUNOK_clean_linker_0, # of connection points: 2
#     Edge 20, Type (0, 0), BuildingBlock: AJUNOK_clean_linker_0, # of connection points: 2
#     Edge 21, Type (0, 0), BuildingBlock: AJUNOK_clean_linker_0, # of connection points: 2
#     Edge 22, Type (0, 0), BuildingBlock: AJUNOK_clean_linker_0, # of connection points: 2
#     Edge 23, Type (0, 0), BuildingBlock: AJUNOK_clean_linker_0, # of connection points: 2
# Relax obj value: 0.271
# Max RMSD: 0.279
# Mean RMSD: 0.279
data_MOF--net-sml--node1-PAMTUU_clean_sbu_0--edge1-AJUNOK_clean_linker_0
_symmetry_space_group_name_H-M    P1
_symmetry_Int_Tables_number       1
_symmetry_cell_setting            triclinic
loop_
_symmetry_equiv_pos_as_xyz
'x, y, z'
_cell_length_a     22.696524
_cell_length_b     22.578835
_cell_length_c     19.900827
_cell_angle_alpha  90.158777
_cell_angle_beta   89.652524
_cell_angle_gamma 119.77409
loop_
_atom_site_label
_atom_site_type_symbol
_atom_site_fract_x
_atom_site_fract_y
_atom_site_fract_z
_atom_type_partial_charge
Tb0 Tb 0.25685 0.41953 0.1346 0.0
Tb1 Tb 0.14548 0.4048 1.0155 0.0
C2 C 0.3004 0.50749 1.00105 0.0
C3 C 0.30905 0.41861 0.3073 0.0
C4 C 0.2622 0.40669 0.44179 0.0
C5 C 0.32367 0.46376 0.42123 0.0
C6 C 0.34677 0.46962 0.35469 0.0
C7 C 0.24883 0.36054 0.3284 0.0
C8 C 0.2256 0.35479 0.39472 0.0
C9 C 0.3283 0.43008 0.23506 0.0
O10 O 0.18805 0.44812 0.17851 0.0
O11 O 0.15627 0.485 0.08553 0.0
O12 O 0.08348 0.34431 0.0976 0.0
O13 O 0.16231 0.32366 0.15051 0.0
O14 O 0.10952 0.45094 0.94795 0.0
O15 O 0.07064 0.34242 0.94541 0.0
O16 O 0.17068 0.32399 1.00658 0.0
O17 O 0.27912 0.37686 0.04776 0.0
O18 O 0.31197 0.50668 0.06594 0.0
O19 O 0.24457 0.46208 0.97246 0.0
C20 C 0.1642 0.48419 0.15112 0.0
O21 O 0.30128 0.37658 0.19572 0.0
O22 O 0.32664 0.48185 0.20793 0.0
C23 C 0.09947 0.30991 0.13976 0.0
C24 C 0.09954 0.39992 0.84085 0.0
C25 C 0.15055 0.40029 0.70998 0.0
C26 C 0.08522 0.34865 0.72966 0.0
C27 C 0.06007 0.34847 0.79447 0.0
C28 C 0.16363 0.45256 0.82016 0.0
C29 C 0.1885 0.45319 0.75562 0.0
C30 C 0.07763 0.39528 0.91223 0.0
C31 C 0.23219 0.33272 1.00772 0.0
H32 H 0.35268 0.50515 0.45588 0.0
H33 H 0.39289 0.51522 0.33962 0.0
H34 H 0.21866 0.32021 0.29321 0.0
H35 H 0.17839 0.30999 0.40901 0.0
H36 H 0.05431 0.3073 0.69567 0.0
H37 H 0.01061 0.30718 0.80897 0.0
H38 H 0.19549 0.49267 0.85447 0.0
H39 H 0.23793 0.49509 0.74175 0.0
Tb40 Tb 0.8236 0.24482 0.43839 0.0
Tb41 Tb 0.72148 0.14316 0.31767 0.0
C42 C 0.7986 0.30059 0.30412 0.0
C43 C 0.88597 0.29797 0.6098 0.0
C44 C 0.849 0.25249 0.74437 0.0
C45 C 0.85187 0.31307 0.72199 0.0
C46 C 0.87 0.33542 0.65553 0.0
C47 C 0.88799 0.24032 0.63322 0.0
C48 C 0.86992 0.21802 0.69957 0.0
C49 C 0.89253 0.31469 0.53704 0.0
O50 O 0.72508 0.18777 0.48352 0.0
O51 O 0.65691 0.15948 0.39058 0.0
O52 O 0.70736 0.07265 0.39669 0.0
O53 O 0.80511 0.1419 0.45726 0.0
O54 O 0.6461 0.12726 0.24774 0.0
O55 O 0.69231 0.0637 0.24694 0.0
O56 O 0.81859 0.1464 0.30916 0.0
O57 O 0.88933 0.25066 0.35756 0.0
O58 O 0.80098 0.30676 0.37 0.0
O59 O 0.78527 0.24317 0.27596 0.0
C60 C 0.66591 0.16758 0.45636 0.0
O61 O 0.91123 0.28062 0.49756 0.0
O62 O 0.84246 0.31979 0.51128 0.0
C63 C 0.75204 0.08208 0.44313 0.0
C64 C 0.67633 0.10196 0.14107 0.0
C65 C 0.72612 0.14121 1.00777 0.0
C66 C 0.70942 0.07628 1.03251 0.0
C67 C 0.6851 0.05704 0.09854 0.0
C68 C 0.69104 0.16595 0.11546 0.0
C69 C 0.71569 0.18529 0.04994 0.0
C70 C 0.65678 0.08428 0.21295 0.0
C71 C 0.87911 0.19943 0.31883 0.0
H72 H 0.83804 0.34226 0.75529 0.0
H73 H 0.86866 0.38044 0.63908 0.0
H74 H 0.89999 0.21005 0.59946 0.0
H75 H 0.86786 0.17085 0.71379 0.0
H76 H 0.71557 0.0405 1.00104 0.0
H77 H 0.67442 0.00754 0.11684 0.0
H78 H 0.68505 0.20209 0.14651 0.0
H79 H 0.72834 0.23579 1.03285 0.0
Tb80 Tb 0.57159 0.80381 0.76382 0.0
Tb81 Tb 0.54501 0.69588 0.63987 0.0
C82 C 0.47382 0.78369 0.64325 0.0
C83 C 0.60025 0.85263 0.93788 0.0
C84 C 0.6016 0.80297 0.06696 0.0
C85 C 0.59178 0.85934 0.0589 0.0
C86 C 0.59075 0.88383 0.99463 0.0
C87 C 0.61267 0.79796 0.94613 0.0
C88 C 0.61283 0.77298 1.01015 0.0
C89 C 0.58947 0.87088 0.87008 0.0
O90 O 0.53436 0.70391 0.8052 0.0
O91 O 0.46623 0.64497 0.718 0.0
O92 O 0.60793 0.68348 0.71242 0.0
O93 O 0.66093 0.79367 0.7477 0.0
O94 O 0.47772 0.62195 0.57207 0.0
O95 O 0.58355 0.65016 0.57431 0.0
O96 O 0.629 0.79577 0.60903 0.0
O97 O 0.61191 0.86826 0.67825 0.0
O98 O 0.48225 0.79119 0.70893 0.0
O99 O 0.50307 0.75745 0.60662 0.0
C100 C 0.48025 0.65122 0.78268 0.0
O101 O 0.63778 0.88436 0.82654 0.0
O102 O 0.52968 0.82946 0.84539 0.0
C103 C 0.65769 0.73425 0.74449 0.0
C104 C 0.53515 0.64126 0.46916 0.0
C105 C 0.56128 0.68948 0.33574 0.0
C106 C 0.54607 0.62235 0.3507 0.0
C107 C 0.53372 0.59855 0.41722 0.0
C108 C 0.54761 0.70708 0.45385 0.0
C109 C 0.55993 0.73072 0.38798 0.0
C110 C 0.52734 0.62046 0.53999 0.0
C111 C 0.64043 0.85722 0.62593 0.0
H112 H 0.58229 0.88265 0.1022 0.0
H113 H 0.58043 0.92554 0.98915 0.0
H114 H 0.62017 0.7732 0.9029 0.0
H115 H 0.62073 0.72965 1.01527 0.0
H116 H 0.5448 0.58874 0.31119 0.0
H117 H 0.52388 0.54744 0.4281 0.0
H118 H 0.54871 0.7408 0.4931 0.0
H119 H 0.56834 0.78149 0.37808 0.0
Tb120 Tb 0.71976 0.58631 0.11255 0.0
Tb121 Tb 0.82527 0.59001 0.99099 0.0
C122 C 0.66792 0.49871 0.97926 0.0
C123 C 0.67364 0.59819 0.28591 0.0
C124 C 0.7201 0.60949 0.41984 0.0
C125 C 0.66813 0.5469 0.39516 0.0
C126 C 0.64507 0.54136 0.32909 0.0
C127 C 0.72407 0.66138 0.31135 0.0
C128 C 0.74715 0.66686 0.37742 0.0
C129 C 0.65452 0.58971 0.21367 0.0
O130 O 0.76839 0.5341 0.15286 0.0
O131 O 0.8085 0.50523 0.05844 0.0
O132 O 0.88884 0.63252 0.07636 0.0
O133 O 0.82306 0.67012 0.12929 0.0
O134 O 0.8478 0.54093 0.91337 0.0
O135 O 0.9083 0.64981 0.92745 0.0
O136 O 0.81207 0.67921 0.98958 0.0
O137 O 0.70334 0.63337 1.02694 0.0
O138 O 0.65826 0.50028 1.04471 0.0
O139 O 0.72507 0.54166 0.95039 0.0
C140 C 0.79322 0.49939 0.12347 0.0
O141 O 0.68944 0.64222 0.17439 0.0
O142 O 0.64465 0.5331 0.18575 0.0
C143 C 0.87921 0.66678 0.12413 0.0
C144 C 0.87475 0.60954 0.81725 0.0
C145 C 0.83209 0.61976 0.68658 0.0
C146 C 0.88718 0.60822 0.69583 0.0
C147 C 0.90833 0.60311 0.76074 0.0
C148 C 0.82062 0.62206 0.808 0.0
C149 C 0.79926 0.62673 0.74362 0.0
C150 C 0.89171 0.59897 0.88608 0.0
C151 C 0.75218 0.67431 0.98646 0.0
H152 H 0.64584 0.50191 0.42679 0.0
H153 H 0.60586 0.4921 0.31126 0.0
H154 H 0.74734 0.70633 0.2797 0.0
H155 H 0.788 0.71556 0.39444 0.0
H156 H 0.91347 0.60254 0.65285 0.0
H157 H 0.94998 0.59308 0.76674 0.0
H158 H 0.7936 0.62652 0.85084 0.0
H159 H 0.75553 0.63358 0.73866 0.0
Tb160 Tb 0.1246 0.72605 0.47557 0.0
Tb161 Tb 0.21514 0.83569 0.35384 0.0
C162 C 0.16239 0.68057 0.33838 0.0
C163 C 0.07659 0.67311 0.65023 0.0
C164 C 0.10981 0.72056 0.78419 0.0
C165 C 0.11488 0.66402 0.76194 0.0
C166 C 0.09838 0.64056 0.69569 0.0
C167 C 0.06929 0.72816 0.67316 0.0
C168 C 0.08593 0.75172 0.73929 0.0
C169 C 0.06885 0.65413 0.57803 0.0
O170 O 0.22205 0.79895 0.51499 0.0
O171 O 0.28403 0.82014 0.41898 0.0
O172 O 0.21591 0.8976 0.43586 0.0
O173 O 0.11761 0.81812 0.48947 0.0
O174 O 0.29805 0.87272 0.28721 0.0
O175 O 0.22902 0.91214 0.2845 0.0
O176 O 0.10887 0.80791 0.34435 0.0
O177 O 0.0554 0.70157 0.39339 0.0
O178 O 0.15658 0.67214 0.40434 0.0
O179 O 0.17048 0.73621 0.31015 0.0
C180 C 0.27924 0.81534 0.48494 0.0
O181 O 0.03966 0.679 0.53983 0.0
O182 O 0.12275 0.65855 0.54922 0.0
C183 C 0.16478 0.88154 0.47708 0.0
C184 C 0.26185 0.88715 0.17976 0.0
C185 C 0.21472 0.83704 0.04883 0.0
C186 C 0.21494 0.89591 0.07265 0.0
C187 C 0.23805 0.92057 0.13763 0.0
C188 C 0.26541 0.83082 0.15412 0.0
C189 C 0.24208 0.80609 0.08959 0.0
C190 C 0.27581 0.90613 0.25189 0.0
C191 C 0.05597 0.74665 0.35164 0.0
H192 H 0.13411 0.63954 0.79498 0.0
H193 H 0.10496 0.5984 0.67925 0.0
H194 H 0.05244 0.75432 0.63957 0.0
H195 H 0.08105 0.79504 0.7551 0.0
H196 H 0.19489 0.92135 1.04202 0.0
H197 H 0.23513 0.96434 0.15578 0.0
H198 H 0.28419 0.80416 0.18463 0.0
H199 H 0.2445 0.76191 0.07193 0.0
Tb200 Tb 0.38141 0.13737 0.7765 0.0
Tb201 Tb 0.39995 0.24749 0.65621 0.0
C202 C 0.46201 0.15316 0.64371 0.0
C203 C 0.3587 0.07938 0.94809 0.0
C204 C 0.35964 0.12562 0.08061 0.0
C205 C 0.38484 0.08103 0.06671 0.0
C206 C 0.38428 0.05803 1.00101 0.0
C207 C 0.33164 0.12221 0.9623 0.0
C208 C 0.33183 0.14482 1.0278 0.0
C209 C 0.36771 0.06469 0.87748 0.0
O210 O 0.43357 0.23601 0.82241 0.0
O211 O 0.4824 0.30231 0.72901 0.0
O212 O 0.35476 0.27376 0.73792 0.0
O213 O 0.30617 0.16936 0.79141 0.0
O214 O 0.46708 0.32019 0.58722 0.0
O215 O 0.36021 0.28808 0.58602 0.0
O216 O 0.29893 0.15968 0.64837 0.0
O217 O 0.31815 0.07751 0.69473 0.0
O218 O 0.46439 0.15011 0.70966 0.0
O219 O 0.42303 0.1727 0.61516 0.0
C220 C 0.47755 0.29367 0.79493 0.0
O221 O 0.31807 0.05261 0.83677 0.0
O222 O 0.42653 0.10722 0.85102 0.0
C223 C 0.31347 0.23044 0.78304 0.0
C224 C 0.41373 0.29802 0.48114 0.0
C225 C 0.39691 0.24864 0.34748 0.0
C226 C 0.37184 0.292 0.36738 0.0
C227 C 0.37997 0.31624 0.4337 0.0
C228 C 0.44017 0.25613 0.46073 0.0
C229 C 0.43213 0.23213 0.39483 0.0
C230 C 0.41738 0.31821 0.55261 0.0
C231 C 0.28258 0.09572 0.65694 0.0
H232 H 0.40626 0.06507 0.10651 0.0
H233 H 0.40591 0.02554 0.99118 0.0
H234 H 0.31267 0.14047 0.9223 0.0
H235 H 0.31312 0.17999 1.03644 0.0
H236 H 0.34599 0.30717 0.33174 0.0
H237 H 0.35912 0.34839 0.44817 0.0
H238 H 0.46622 0.24079 0.49599 0.0
H239 H 0.45227 0.19919 0.3813 0.0
C240 C 0.32563 0.32434 0.85587 0.0
C241 C 0.28685 0.25577 0.8361 0.0
C242 C 0.3089 0.34786 0.9136 0.0
C243 C 0.25204 0.30404 0.95236 0.0
H244 H 0.37089 0.3596 0.82823 0.0
H245 H 0.34001 0.40098 0.92732 0.0
S246 S 0.13266 0.12105 0.92122 0.0
N247 N 0.18875 0.14441 0.85941 0.0
N248 N 0.15576 0.19015 0.96713 0.0
C249 C 0.21172 0.23599 0.93253 0.0
C250 C 0.22955 0.21144 0.87446 0.0
C251 C 0.05685 0.27159 0.25467 0.0
C252 C 0.04596 0.26292 0.18512 0.0
C253 C 0.00196 0.24514 0.29935 0.0
C254 C 0.93511 0.2083 0.2755 0.0
H255 H 0.10716 0.30479 0.2742 0.0
H256 H 0.01162 0.25778 0.35221 0.0
S257 S 0.88145 0.16364 0.09889 0.0
N258 N 0.96502 0.20935 0.09489 0.0
N259 N 0.8614 0.15778 0.17925 0.0
C260 C 0.92419 0.19328 0.20677 0.0
C261 C -0.02005 0.22128 0.16128 0.0
C262 C 0.71404 0.96027 0.46762 0.0
C263 C 0.73487 0.02663 0.49042 0.0
C264 C 0.68796 0.90541 0.51276 0.0
C265 C 0.6806 0.91565 0.5814 0.0
H266 H 0.71598 0.95054 0.41453 0.0
H267 H 0.66991 0.8545 0.49314 0.0
S268 S 0.72557 0.08017 0.66434 0.0
N269 N 0.74603 0.09987 0.58466 0.0
N270 N 0.69793 -0.00228 0.66974 0.0
C271 C 0.70367 0.98253 0.60466 0.0
C272 C 0.73043 0.0379 0.55898 0.0
C273 C 0.65117 0.65527 0.83214 0.0
C274 C 0.69012 0.71756 0.79867 0.0
C275 C 0.67111 0.64347 0.89401 0.0
C276 C 0.73234 0.69214 0.92337 0.0
H277 H 0.60269 0.61663 0.81259 0.0
H278 H 0.63805 0.59545 0.91875 0.0
S279 S 0.85653 0.86009 0.85234 0.0
N280 N 0.79423 0.82735 0.79704 0.0
N281 N 0.83474 0.80245 0.91249 0.0
C282 C 0.77413 0.75292 0.88872 0.0
C283 C 0.75236 0.76623 0.8264 0.0
C284 C 0.97714 0.76286 0.27787 0.0
C285 C 0.00533 0.72294 0.29866 0.0
C286 C 0.93602 0.7448 0.22075 0.0
C287 C 0.92561 0.68878 0.18123 0.0
H288 H -0.01294 0.80812 0.30581 0.0
H289 H 0.91337 0.77538 0.20675 0.0
S290 S -0.00974 0.56936 0.21456 0.0
N291 N 0.01805 0.62384 0.27763 0.0
N292 N 0.94787 0.59438 0.16645 0.0
C293 C 0.95496 0.64953 0.20116 0.0
C294 C -0.00703 0.66542 0.2611 0.0
C295 C 0.1941 0.97665 0.63636 0.0
C296 C 0.23146 0.04413 0.61318 0.0
C297 C 0.16303 0.92271 0.59102 0.0
C298 C 0.17001 0.93526 0.52159 0.0
H299 H 0.19398 0.96516 0.68924 0.0
H300 H 0.14078 0.87117 0.6102 0.0
S301 S 0.25044 0.10328 0.43667 0.0
N302 N 0.26367 0.12137 0.51753 0.0
N303 N 0.20617 0.01921 0.43203 0.0
C304 C 0.19981 0.00264 0.49834 0.0
C305 C 0.23051 0.05761 0.54447 0.0
C306 C 0.13941 0.38482 0.58422 0.0
C307 C 0.17938 0.3993 0.64234 0.0
C308 C 0.16628 0.38625 0.52 0.0
C309 C 0.23441 0.4027 0.51098 0.0
H310 H 0.08725 0.37364 0.58816 0.0
H311 H 0.13368 0.37567 0.47688 0.0
S312 S 0.35844 0.4368 0.64698 0.0
N313 N 0.28921 0.42457 0.68676 0.0
N314 N 0.33973 0.42866 0.5662 0.0
C315 C 0.27446 0.41552 0.56869 0.0
C316 C 0.247 0.41347 0.63417 0.0
C317 C 0.73163 0.1986 0.89793 0.0
C318 C 0.75571 0.16463 0.93902 0.0
C319 C 0.76192 0.22635 0.83558 0.0
C320 C 0.8187 0.22269 0.8117 0.0
H321 H 0.68866 0.20367 0.91402 0.0
H322 H 0.73998 0.25043 0.80564 0.0
S323 S 0.90213 0.13947 0.90042 0.0
N324 N 0.83858 0.12697 0.95023 0.0
N325 N 0.89829 0.1828 0.83561 0.0
C326 C 0.84312 0.18844 0.85223 0.0
C327 C 0.81101 0.15857 0.91504 0.0
C328 C 0.5368 0.67745 0.21201 0.0
C329 C 0.57717 0.71679 0.26602 0.0
C330 C 0.54646 0.70511 0.14716 0.0
C331 C 0.59633 0.77315 0.13428 0.0
H332 H 0.49583 0.62583 0.22032 0.0
H333 H 0.51311 0.67384 0.10729 0.0
S334 S 0.72139 0.89455 0.2555 0.0
N335 N 0.67435 0.82488 0.30002 0.0
N336 N 0.69021 0.87724 0.17865 0.0
C337 C 0.6388 0.81207 0.18689 0.0
C338 C 0.62984 0.78375 0.25259 0.0
C339 C 0.79487 0.56847 0.57185 0.0
C340 C 0.80598 0.62031 0.61801 0.0
C341 C 0.76639 0.56504 0.50855 0.0
C342 C 0.74853 0.61374 0.48826 0.0
H343 H 0.80691 0.52923 0.58526 0.0
H344 H 0.75863 0.52396 0.47506 0.0
S345 S 0.7669 0.75982 0.5902 0.0
N346 N 0.79714 0.72194 0.63865 0.0
N347 N 0.74295 0.71489 0.52005 0.0
C348 C 0.7595 0.66602 0.53377 0.0
C349 C 0.78825 0.66939 0.59846 0.0
C350 C 0.17845 0.81988 0.8608 0.0
C351 C 0.13311 0.74948 0.85268 0.0
C352 C 0.20386 0.84806 0.92433 0.0
C353 C 0.18499 0.8069 0.98225 0.0
H354 H 0.19572 0.8533 0.81742 0.0
H355 H 0.23975 0.9022 0.9279 0.0
S356 S 0.06156 0.62109 0.9895 0.0
N357 N 0.0664 0.64033 0.90888 0.0
N358 N 0.11378 0.69308 1.0281 0.0
C359 C 0.13806 0.7368 0.97512 0.0
C360 C 0.11228 0.70816 0.91047 0.0
C361 C 0.43974 0.21703 0.24434 0.0
C362 C 0.38618 0.21932 0.27822 0.0
C363 C 0.43037 0.18605 0.18111 0.0
C364 C 0.3671 0.15619 0.14873 0.0
H365 H 0.48964 0.23965 0.2668 0.0
H366 H 0.47341 0.18633 0.15694 0.0
S367 S 0.20953 0.14594 0.21627 0.0
N368 N 0.26679 0.18708 0.2749 0.0
N369 N 0.24952 0.12957 0.15576 0.0
C370 C 0.31309 0.15825 0.18168 0.0
C371 C 0.32255 0.18964 0.24633 0.0
C372 C 0.16558 0.59306 0.1759 0.0
C373 C 0.15218 0.52856 0.19723 0.0
C374 C 0.16818 0.64101 0.22222 0.0
C375 C 0.15716 0.62648 0.29184 0.0
H376 H 0.17733 0.60789 0.12364 0.0
H377 H 0.17986 0.69037 0.20281 0.0
S378 S 0.10993 0.46041 0.37142 0.0
N379 N 0.12044 0.44928 0.29115 0.0
N380 N 0.12536 0.53976 0.37815 0.0
C381 C 0.13996 0.56066 0.3132 0.0
C382 C 0.13732 0.51166 0.26591 0.0
C383 C 0.62636 0.17652 0.57183 0.0
C384 C 0.60997 0.15559 0.50405 0.0
C385 C 0.5772 0.17068 0.61835 0.0
C386 C 0.50944 0.14399 0.59925 0.0
H387 H 0.67829 0.19988 0.58922 0.0
H388 H 0.59321 0.19083 0.66854 0.0
S389 S 0.4363 0.06946 0.43295 0.0
N390 N 0.51852 0.09828 0.42351 0.0
N391 N 0.42603 0.08802 0.51097 0.0
C392 C 0.49112 0.1188 0.53319 0.0
C393 C 0.54131 0.12446 0.48563 0.0
C394 C 0.41028 0.5482 0.94125 0.0
C395 C 0.35273 0.55447 0.95393 0.0
C396 C 0.44933 0.57613 0.88276 0.0
C397 C 0.43087 0.60938 0.83443 0.0
H398 H 0.42354 0.51924 0.97518 0.0
H399 H 0.49435 0.5718 0.87532 0.0
S400 S 0.29038 0.64745 0.84929 0.0
N401 N 0.2836 0.60282 0.91749 0.0
N402 N 0.35586 0.65339 0.80678 0.0
C403 C 0.37488 0.61788 0.84781 0.0
C404 C 0.33618 0.59094 0.90783 0.0
C405 C 0.80523 0.34771 0.18843 0.0
C406 C 0.80732 0.35681 0.25899 0.0
C407 C 0.80415 0.39543 0.1441 0.0
C408 C 0.8052 0.45416 0.16861 0.0
H409 H 0.80242 0.30229 0.16694 0.0
H410 H 0.79944 0.38467 0.09071 0.0
S411 S 0.82422 0.50898 0.34779 0.0
N412 N 0.8199 0.43389 0.35015 0.0
N413 N 0.81803 0.52359 0.26775 0.0
C414 C 0.81228 0.4663 0.23879 0.0
C415 C 0.81353 0.41781 0.28371 0.0
C416 C 0.32215 0.80064 0.59567 0.0
C417 C 0.33504 0.81982 0.52716 0.0
C418 C 0.36927 0.79343 0.63494 0.0
C419 C 0.43091 0.8051 0.60713 0.0
H420 H 0.27387 0.78772 0.61872 0.0
H421 H 0.35557 0.77472 0.68596 0.0
S422 S 0.49569 0.86965 0.43536 0.0
N423 N 0.41854 0.85976 0.43673 0.0
N424 N 0.50727 0.84665 0.5106 0.0
C425 C 0.44696 0.82973 0.54064 0.0
C426 C 0.399 0.83701 0.50062 0.0
C427 C 0.62963 0.45128 0.86402 0.0
C428 C 0.61452 0.44923 0.93346 0.0
C429 C 0.58418 0.40257 0.81903 0.0
C430 C 0.52161 0.34952 0.84136 0.0
H431 H 0.67794 0.48994 0.84376 0.0
H432 H 0.59937 0.40523 0.76691 0.0
S433 S 0.45214 0.32665 1.01544 0.0
N434 N 0.52902 0.3937 1.02052 0.0
N435 N 0.44286 0.30202 0.93616 0.0
C436 C 0.50382 0.34891 0.90983 0.0
C437 C 0.55037 0.39875 0.95577 0.0
loop_
_geom_bond_atom_site_label_1
_geom_bond_atom_site_label_2
_geom_bond_distance
_geom_bond_site_symmetry_2
_ccdc_geom_bond_type
Tb0 C9 2.764 . S
Tb0 O10 2.325 . S
Tb0 O13 2.303 . S
Tb0 O17 2.322 1_554 S
Tb0 O18 2.349 . S
Tb0 O21 2.415 . S
Tb0 O22 2.399 . S
Tb1 O11 2.322 1_556 S
Tb1 O12 2.349 . S
Tb1 O14 2.415 . S
Tb1 O15 2.399 . S
Tb1 O16 2.325 . S
Tb1 O19 2.303 . S
Tb1 C30 2.764 . S
C2 O18 1.261 1_556 S
C2 O19 1.257 . S
C3 C6 1.358 . S
C3 C7 1.332 . S
C3 C9 1.504 . S
C4 C5 1.373 . S
C4 C8 1.308 . S
C5 C4 1.373 . S
C5 C6 1.429 . S
C5 H32 0.932 . S
C6 C3 1.358 . S
C6 C5 1.429 . S
C6 H33 0.930 . S
C7 C3 1.332 . S
C7 C8 1.394 . S
C7 H34 0.932 . S
C8 C4 1.308 . S
C8 C7 1.394 . S
C8 H35 0.929 . S
C9 Tb0 2.764 . S
C9 C3 1.504 . S
C9 O21 1.239 . S
C9 O22 1.263 . S
O10 Tb0 2.325 . S
O10 C20 1.236 . S
O11 Tb1 2.322 1_554 S
O11 C20 1.257 . S
O12 Tb1 2.349 . S
O12 C23 1.261 1_556 S
O13 Tb0 2.303 . S
O13 C23 1.257 . S
O14 Tb1 2.415 . S
O14 C30 1.239 . S
O15 Tb1 2.399 . S
O15 C30 1.263 . S
O16 Tb1 2.325 . S
O16 C31 1.236 . S
O17 Tb0 2.322 1_556 S
O17 C31 1.257 . S
O18 Tb0 2.349 . S
O18 C2 1.261 1_554 S
O19 Tb1 2.303 . S
O19 C2 1.257 . S
C20 O10 1.236 . S
C20 O11 1.257 . S
O21 Tb0 2.415 . S
O21 C9 1.239 . S
O22 Tb0 2.399 . S
O22 C9 1.263 . S
C23 O12 1.261 1_554 S
C23 O13 1.257 . S
C24 C27 1.358 . S
C24 C28 1.332 . S
C24 C30 1.504 . S
C25 C26 1.373 . S
C25 C29 1.308 . S
C26 C25 1.373 . S
C26 C27 1.429 . S
C26 H36 0.932 1_455 S
C27 C24 1.358 . S
C27 C26 1.429 . S
C27 H37 0.930 1_455 S
C28 C24 1.332 . S
C28 C29 1.394 . S
C28 H38 0.932 . S
C29 C25 1.308 . S
C29 C28 1.394 . S
C29 H39 0.929 . S
C30 Tb1 2.764 . S
C30 O14 1.239 . S
C30 O15 1.263 . S
C30 C24 1.504 . S
C31 O16 1.236 . S
C31 O17 1.257 . S
H32 C5 0.932 . S
H33 C6 0.930 . S
H34 C7 0.932 . S
H35 C8 0.929 . S
H36 C26 0.932 1_655 S
H37 C27 0.930 1_655 S
H38 C28 0.932 . S
H39 C29 0.929 . S
Tb40 C49 2.764 . S
Tb40 O50 2.325 . S
Tb40 O53 2.303 . S
Tb40 O57 2.322 . S
Tb40 O58 2.349 . S
Tb40 O61 2.415 . S
Tb40 O62 2.399 . S
Tb41 O51 2.322 . S
Tb41 O52 2.349 . S
Tb41 O54 2.415 . S
Tb41 O55 2.399 . S
Tb41 O56 2.325 . S
Tb41 O59 2.303 . S
Tb41 C70 2.764 . S
C42 O58 1.261 . S
C42 O59 1.257 . S
C43 C46 1.358 . S
C43 C47 1.332 . S
C43 C49 1.504 . S
C44 C45 1.373 . S
C44 C48 1.308 . S
C45 C44 1.373 . S
C45 C46 1.429 . S
C45 H72 0.932 . S
C46 C43 1.358 . S
C46 C45 1.429 . S
C46 H73 0.930 . S
C47 C43 1.332 . S
C47 C48 1.394 . S
C47 H74 0.932 . S
C48 C44 1.308 . S
C48 C47 1.394 . S
C48 H75 0.929 . S
C49 Tb40 2.764 . S
C49 C43 1.504 . S
C49 O61 1.239 . S
C49 O62 1.263 . S
O50 Tb40 2.325 . S
O50 C60 1.236 . S
O51 Tb41 2.322 . S
O51 C60 1.257 . S
O52 Tb41 2.349 . S
O52 C63 1.261 . S
O53 Tb40 2.303 . S
O53 C63 1.257 . S
O54 Tb41 2.415 . S
O54 C70 1.239 . S
O55 Tb41 2.399 . S
O55 C70 1.263 . S
O56 Tb41 2.325 . S
O56 C71 1.236 . S
O57 Tb40 2.322 . S
O57 C71 1.257 . S
O58 Tb40 2.349 . S
O58 C42 1.261 . S
O59 Tb41 2.303 . S
O59 C42 1.257 . S
C60 O50 1.236 . S
C60 O51 1.257 . S
O61 Tb40 2.415 . S
O61 C49 1.239 . S
O62 Tb40 2.399 . S
O62 C49 1.263 . S
C63 O52 1.261 . S
C63 O53 1.257 . S
C64 C67 1.358 . S
C64 C68 1.332 . S
C64 C70 1.504 . S
C65 C66 1.382 . S
C65 C69 1.308 . S
C66 C65 1.382 . S
C66 C67 1.417 1_556 S
C66 H76 0.936 1_545 S
C67 C64 1.358 . S
C67 C66 1.417 1_554 S
C67 H77 0.930 1_545 S
C68 C64 1.332 . S
C68 C69 1.394 1_554 S
C68 H78 0.932 . S
C69 C65 1.308 . S
C69 C68 1.394 1_556 S
C69 H79 0.929 . S
C70 Tb41 2.764 . S
C70 O54 1.239 . S
C70 O55 1.263 . S
C70 C64 1.504 . S
C71 O56 1.236 . S
C71 O57 1.257 . S
H72 C45 0.932 . S
H73 C46 0.930 . S
H74 C47 0.932 . S
H75 C48 0.929 . S
H76 C66 0.936 1_565 S
H77 C67 0.930 1_565 S
H78 C68 0.932 . S
H79 C69 0.929 . S
Tb80 C89 2.764 . S
Tb80 O90 2.325 . S
Tb80 O93 2.303 . S
Tb80 O97 2.322 . S
Tb80 O98 2.349 . S
Tb80 O101 2.415 . S
Tb80 O102 2.399 . S
Tb81 O91 2.322 . S
Tb81 O92 2.349 . S
Tb81 O94 2.415 . S
Tb81 O95 2.399 . S
Tb81 O96 2.325 . S
Tb81 O99 2.303 . S
Tb81 C110 2.764 . S
C82 O98 1.261 . S
C82 O99 1.257 . S
C83 C86 1.358 . S
C83 C87 1.332 . S
C83 C89 1.504 . S
C84 C85 1.373 . S
C84 C88 1.308 . S
C85 C84 1.373 . S
C85 C86 1.429 1_554 S
C85 H112 0.932 . S
C86 C83 1.358 . S
C86 C85 1.429 1_556 S
C86 H113 0.930 . S
C87 C83 1.332 . S
C87 C88 1.394 1_556 S
C87 H114 0.932 . S
C88 C84 1.308 . S
C88 C87 1.394 1_554 S
C88 H115 0.929 . S
C89 Tb80 2.764 . S
C89 C83 1.504 . S
C89 O101 1.239 . S
C89 O102 1.263 . S
O90 Tb80 2.325 . S
O90 C100 1.236 . S
O91 Tb81 2.322 . S
O91 C100 1.257 . S
O92 Tb81 2.349 . S
O92 C103 1.261 . S
O93 Tb80 2.303 . S
O93 C103 1.257 . S
O94 Tb81 2.415 . S
O94 C110 1.239 . S
O95 Tb81 2.399 . S
O95 C110 1.263 . S
O96 Tb81 2.325 . S
O96 C111 1.236 . S
O97 Tb80 2.322 . S
O97 C111 1.257 . S
O98 Tb80 2.349 . S
O98 C82 1.261 . S
O99 Tb81 2.303 . S
O99 C82 1.257 . S
C100 O90 1.236 . S
C100 O91 1.257 . S
O101 Tb80 2.415 . S
O101 C89 1.239 . S
O102 Tb80 2.399 . S
O102 C89 1.263 . S
C103 O92 1.261 . S
C103 O93 1.257 . S
C104 C107 1.358 . S
C104 C108 1.332 . S
C104 C110 1.504 . S
C105 C106 1.373 . S
C105 C109 1.308 . S
C106 C105 1.373 . S
C106 C107 1.429 . S
C106 H116 0.932 . S
C107 C104 1.358 . S
C107 C106 1.429 . S
C107 H117 0.930 . S
C108 C104 1.332 . S
C108 C109 1.394 . S
C108 H118 0.932 . S
C109 C105 1.308 . S
C109 C108 1.394 . S
C109 H119 0.929 . S
C110 Tb81 2.764 . S
C110 O94 1.239 . S
C110 O95 1.263 . S
C110 C104 1.504 . S
C111 O96 1.236 . S
C111 O97 1.257 . S
H112 C85 0.932 . S
H113 C86 0.930 . S
H114 C87 0.932 . S
H115 C88 0.929 . S
H116 C106 0.932 . S
H117 C107 0.930 . S
H118 C108 0.932 . S
H119 C109 0.929 . S
Tb120 C129 2.764 . S
Tb120 O130 2.325 . S
Tb120 O133 2.303 . S
Tb120 O137 2.322 1_554 S
Tb120 O138 2.349 . S
Tb120 O141 2.415 . S
Tb120 O142 2.399 . S
Tb121 O131 2.322 1_556 S
Tb121 O132 2.349 . S
Tb121 O134 2.415 . S
Tb121 O135 2.399 . S
Tb121 O136 2.325 . S
Tb121 O139 2.303 . S
Tb121 C150 2.764 . S
C122 O138 1.261 1_556 S
C122 O139 1.257 . S
C123 C126 1.358 . S
C123 C127 1.332 . S
C123 C129 1.504 . S
C124 C125 1.373 . S
C124 C128 1.308 . S
C125 C124 1.373 . S
C125 C126 1.429 . S
C125 H152 0.932 . S
C126 C123 1.358 . S
C126 C125 1.429 . S
C126 H153 0.930 . S
C127 C123 1.332 . S
C127 C128 1.394 . S
C127 H154 0.932 . S
C128 C124 1.308 . S
C128 C127 1.394 . S
C128 H155 0.929 . S
C129 Tb120 2.764 . S
C129 C123 1.504 . S
C129 O141 1.239 . S
C129 O142 1.263 . S
O130 Tb120 2.325 . S
O130 C140 1.236 . S
O131 Tb121 2.322 1_554 S
O131 C140 1.257 . S
O132 Tb121 2.349 . S
O132 C143 1.261 1_556 S
O133 Tb120 2.303 . S
O133 C143 1.257 . S
O134 Tb121 2.415 . S
O134 C150 1.239 . S
O135 Tb121 2.399 . S
O135 C150 1.263 . S
O136 Tb121 2.325 . S
O136 C151 1.236 . S
O137 Tb120 2.322 1_556 S
O137 C151 1.257 . S
O138 Tb120 2.349 . S
O138 C122 1.261 1_554 S
O139 Tb121 2.303 . S
O139 C122 1.257 . S
C140 O130 1.236 . S
C140 O131 1.257 . S
O141 Tb120 2.415 . S
O141 C129 1.239 . S
O142 Tb120 2.399 . S
O142 C129 1.263 . S
C143 O132 1.261 1_554 S
C143 O133 1.257 . S
C144 C147 1.358 . S
C144 C148 1.332 . S
C144 C150 1.504 . S
C145 C146 1.373 . S
C145 C149 1.308 . S
C146 C145 1.373 . S
C146 C147 1.429 . S
C146 H156 0.932 1_655 S
C147 C144 1.358 . S
C147 C146 1.429 . S
C147 H157 0.930 1_655 S
C148 C144 1.332 . S
C148 C149 1.394 . S
C148 H158 0.932 . S
C149 C145 1.308 . S
C149 C148 1.394 . S
C149 H159 0.929 . S
C150 Tb121 2.764 . S
C150 O134 1.239 . S
C150 O135 1.263 . S
C150 C144 1.504 . S
C151 O136 1.236 . S
C151 O137 1.257 . S
H152 C125 0.932 . S
H153 C126 0.930 . S
H154 C127 0.932 . S
H155 C128 0.929 . S
H156 C146 0.932 1_455 S
H157 C147 0.930 1_455 S
H158 C148 0.932 . S
H159 C149 0.929 . S
Tb160 C169 2.764 . S
Tb160 O170 2.325 . S
Tb160 O173 2.303 . S
Tb160 O177 2.322 . S
Tb160 O178 2.349 . S
Tb160 O181 2.415 . S
Tb160 O182 2.399 . S
Tb161 O171 2.322 . S
Tb161 O172 2.349 . S
Tb161 O174 2.415 . S
Tb161 O175 2.399 . S
Tb161 O176 2.325 . S
Tb161 O179 2.303 . S
Tb161 C190 2.764 . S
C162 O178 1.261 . S
C162 O179 1.257 . S
C163 C166 1.358 . S
C163 C167 1.332 . S
C163 C169 1.504 . S
C164 C165 1.373 . S
C164 C168 1.308 . S
C165 C164 1.373 . S
C165 C166 1.429 . S
C165 H192 0.932 . S
C166 C163 1.358 . S
C166 C165 1.429 . S
C166 H193 0.930 . S
C167 C163 1.332 . S
C167 C168 1.394 . S
C167 H194 0.932 . S
C168 C164 1.308 . S
C168 C167 1.394 . S
C168 H195 0.929 . S
C169 Tb160 2.764 . S
C169 C163 1.504 . S
C169 O181 1.239 . S
C169 O182 1.263 . S
O170 Tb160 2.325 . S
O170 C180 1.236 . S
O171 Tb161 2.322 . S
O171 C180 1.257 . S
O172 Tb161 2.349 . S
O172 C183 1.261 . S
O173 Tb160 2.303 . S
O173 C183 1.257 . S
O174 Tb161 2.415 . S
O174 C190 1.239 . S
O175 Tb161 2.399 . S
O175 C190 1.263 . S
O176 Tb161 2.325 . S
O176 C191 1.236 . S
O177 Tb160 2.322 . S
O177 C191 1.257 . S
O178 Tb160 2.349 . S
O178 C162 1.261 . S
O179 Tb161 2.303 . S
O179 C162 1.257 . S
C180 O170 1.236 . S
C180 O171 1.257 . S
O181 Tb160 2.415 . S
O181 C169 1.239 . S
O182 Tb160 2.399 . S
O182 C169 1.263 . S
C183 O172 1.261 . S
C183 O173 1.257 . S
C184 C187 1.358 . S
C184 C188 1.332 . S
C184 C190 1.504 . S
C185 C186 1.382 . S
C185 C189 1.308 . S
C186 C185 1.382 . S
C186 C187 1.417 1_556 S
C186 H196 0.936 1_565 S
C187 C184 1.358 . S
C187 C186 1.417 1_554 S
C187 H197 0.930 1_565 S
C188 C184 1.332 . S
C188 C189 1.394 1_554 S
C188 H198 0.932 . S
C189 C185 1.308 . S
C189 C188 1.394 1_556 S
C189 H199 0.929 . S
C190 Tb161 2.764 . S
C190 O174 1.239 . S
C190 O175 1.263 . S
C190 C184 1.504 . S
C191 O176 1.236 . S
C191 O177 1.257 . S
H192 C165 0.932 . S
H193 C166 0.930 . S
H194 C167 0.932 . S
H195 C168 0.929 . S
H196 C186 0.936 1_545 S
H197 C187 0.930 1_545 S
H198 C188 0.932 . S
H199 C189 0.929 . S
Tb200 C209 2.764 . S
Tb200 O210 2.325 . S
Tb200 O213 2.303 . S
Tb200 O217 2.322 . S
Tb200 O218 2.349 . S
Tb200 O221 2.415 . S
Tb200 O222 2.399 . S
Tb201 O211 2.322 . S
Tb201 O212 2.349 . S
Tb201 O214 2.415 . S
Tb201 O215 2.399 . S
Tb201 O216 2.325 . S
Tb201 O219 2.303 . S
Tb201 C230 2.764 . S
C202 O218 1.261 . S
C202 O219 1.257 . S
C203 C206 1.358 . S
C203 C207 1.332 . S
C203 C209 1.504 . S
C204 C205 1.373 . S
C204 C208 1.308 . S
C205 C204 1.373 . S
C205 C206 1.429 1_554 S
C205 H232 0.932 . S
C206 C203 1.358 . S
C206 C205 1.429 1_556 S
C206 H233 0.930 . S
C207 C203 1.332 . S
C207 C208 1.394 1_556 S
C207 H234 0.932 . S
C208 C204 1.308 . S
C208 C207 1.394 1_554 S
C208 H235 0.929 . S
C209 Tb200 2.764 . S
C209 C203 1.504 . S
C209 O221 1.239 . S
C209 O222 1.263 . S
O210 Tb200 2.325 . S
O210 C220 1.236 . S
O211 Tb201 2.322 . S
O211 C220 1.257 . S
O212 Tb201 2.349 . S
O212 C223 1.261 . S
O213 Tb200 2.303 . S
O213 C223 1.257 . S
O214 Tb201 2.415 . S
O214 C230 1.239 . S
O215 Tb201 2.399 . S
O215 C230 1.263 . S
O216 Tb201 2.325 . S
O216 C231 1.236 . S
O217 Tb200 2.322 . S
O217 C231 1.257 . S
O218 Tb200 2.349 . S
O218 C202 1.261 . S
O219 Tb201 2.303 . S
O219 C202 1.257 . S
C220 O210 1.236 . S
C220 O211 1.257 . S
O221 Tb200 2.415 . S
O221 C209 1.239 . S
O222 Tb200 2.399 . S
O222 C209 1.263 . S
C223 O212 1.261 . S
C223 O213 1.257 . S
C224 C227 1.358 . S
C224 C228 1.332 . S
C224 C230 1.504 . S
C225 C226 1.373 . S
C225 C229 1.308 . S
C226 C225 1.373 . S
C226 C227 1.429 . S
C226 H236 0.932 . S
C227 C224 1.358 . S
C227 C226 1.429 . S
C227 H237 0.930 . S
C228 C224 1.332 . S
C228 C229 1.394 . S
C228 H238 0.932 . S
C229 C225 1.308 . S
C229 C228 1.394 . S
C229 H239 0.929 . S
C230 Tb201 2.764 . S
C230 O214 1.239 . S
C230 O215 1.263 . S
C230 C224 1.504 . S
C231 O216 1.236 . S
C231 O217 1.257 . S
H232 C205 0.932 . S
H233 C206 0.930 . S
H234 C207 0.932 . S
H235 C208 0.929 . S
H236 C226 0.932 . S
H237 C227 0.930 . S
H238 C228 0.932 . S
H239 C229 0.929 . S
C240 C241 1.369 . S
C240 C242 1.419 . S
C240 H244 0.930 . S
C241 C240 1.369 . S
C241 C250 1.429 . S
C242 C240 1.419 . S
C242 C243 1.363 . S
C242 H245 0.929 . S
C243 C242 1.363 . S
C243 C249 1.428 . S
H244 C240 0.930 . S
H245 C242 0.929 . S
S246 N247 1.613 . S
S246 N248 1.610 . S
N247 S246 1.613 . S
N247 C250 1.350 . S
N248 S246 1.610 . S
N248 C249 1.351 . S
C249 C243 1.428 . S
C249 N248 1.351 . S
C249 C250 1.434 . S
C250 C241 1.429 . S
C250 N247 1.350 . S
C250 C249 1.434 . S
C251 C252 1.369 . S
C251 C253 1.419 . S
C251 H255 0.930 . S
C252 C251 1.369 . S
C252 C261 1.429 1_455 S
C253 C251 1.419 . S
C253 C254 1.363 1_455 S
C253 H256 0.929 . S
C254 C253 1.363 1_655 S
C254 C260 1.428 . S
H255 C251 0.930 . S
H256 C253 0.929 . S
S257 N258 1.613 . S
S257 N259 1.610 . S
N258 S257 1.613 . S
N258 C261 1.350 . S
N259 S257 1.610 . S
N259 C260 1.351 . S
C260 C254 1.428 . S
C260 N259 1.351 . S
C260 C261 1.434 . S
C261 C252 1.429 1_655 S
C261 N258 1.350 . S
C261 C260 1.434 . S
C262 C263 1.369 1_565 S
C262 C264 1.419 . S
C262 H266 0.930 . S
C263 C262 1.369 1_545 S
C263 C272 1.429 . S
C264 C262 1.419 . S
C264 C265 1.363 . S
C264 H267 0.929 . S
C265 C264 1.363 . S
C265 C271 1.428 1_565 S
H266 C262 0.930 . S
H267 C264 0.929 . S
S268 N269 1.613 . S
S268 N270 1.610 . S
N269 S268 1.613 . S
N269 C272 1.350 . S
N270 S268 1.610 . S
N270 C271 1.351 . S
C271 C265 1.428 1_545 S
C271 N270 1.351 . S
C271 C272 1.434 . S
C272 C263 1.429 . S
C272 N269 1.350 . S
C272 C271 1.434 . S
C273 C274 1.369 . S
C273 C275 1.419 . S
C273 H277 0.930 . S
C274 C273 1.369 . S
C274 C283 1.429 . S
C275 C273 1.419 . S
C275 C276 1.363 . S
C275 H278 0.929 . S
C276 C275 1.363 . S
C276 C282 1.428 . S
H277 C273 0.930 . S
H278 C275 0.929 . S
S279 N280 1.613 . S
S279 N281 1.610 . S
N280 S279 1.613 . S
N280 C283 1.350 . S
N281 S279 1.610 . S
N281 C282 1.351 . S
C282 C276 1.428 . S
C282 N281 1.351 . S
C282 C283 1.434 . S
C283 C274 1.429 . S
C283 N280 1.350 . S
C283 C282 1.434 . S
C284 C285 1.369 . S
C284 C286 1.419 1_455 S
C284 H288 0.930 . S
C285 C284 1.369 . S
C285 C294 1.429 . S
C286 C284 1.419 1_655 S
C286 C287 1.363 . S
C286 H289 0.929 . S
C287 C286 1.363 . S
C287 C293 1.428 . S
H288 C284 0.930 . S
H289 C286 0.929 . S
S290 N291 1.613 . S
S290 N292 1.610 1_455 S
N291 S290 1.613 . S
N291 C294 1.350 . S
N292 S290 1.610 1_655 S
N292 C293 1.351 . S
C293 C287 1.428 . S
C293 N292 1.351 . S
C293 C294 1.434 1_655 S
C294 C285 1.429 . S
C294 N291 1.350 . S
C294 C293 1.434 1_455 S
C295 C296 1.369 1_565 S
C295 C297 1.419 . S
C295 H299 0.930 . S
C296 C295 1.369 1_545 S
C296 C305 1.429 . S
C297 C295 1.419 . S
C297 C298 1.363 . S
C297 H300 0.929 . S
C298 C297 1.363 . S
C298 C304 1.428 1_565 S
H299 C295 0.930 . S
H300 C297 0.929 . S
S301 N302 1.613 . S
S301 N303 1.610 . S
N302 S301 1.613 . S
N302 C305 1.350 . S
N303 S301 1.610 . S
N303 C304 1.351 . S
C304 C298 1.428 1_545 S
C304 N303 1.351 . S
C304 C305 1.434 . S
C305 C296 1.429 . S
C305 N302 1.350 . S
C305 C304 1.434 . S
C306 C307 1.369 . S
C306 C308 1.419 . S
C306 H310 0.930 . S
C307 C306 1.369 . S
C307 C316 1.429 . S
C308 C306 1.419 . S
C308 C309 1.363 . S
C308 H311 0.929 . S
C309 C308 1.363 . S
C309 C315 1.428 . S
H310 C306 0.930 . S
H311 C308 0.929 . S
S312 N313 1.613 . S
S312 N314 1.610 . S
N313 S312 1.613 . S
N313 C316 1.350 . S
N314 S312 1.610 . S
N314 C315 1.351 . S
C315 C309 1.428 . S
C315 N314 1.351 . S
C315 C316 1.434 . S
C316 C307 1.429 . S
C316 N313 1.350 . S
C316 C315 1.434 . S
C317 C318 1.369 . S
C317 C319 1.419 . S
C317 H321 0.930 . S
C318 C317 1.369 . S
C318 C327 1.429 . S
C319 C317 1.419 . S
C319 C320 1.363 . S
C319 H322 0.929 . S
C320 C319 1.363 . S
C320 C326 1.428 . S
H321 C317 0.930 . S
H322 C319 0.929 . S
S323 N324 1.613 . S
S323 N325 1.610 . S
N324 S323 1.613 . S
N324 C327 1.350 . S
N325 S323 1.610 . S
N325 C326 1.351 . S
C326 C320 1.428 . S
C326 N325 1.351 . S
C326 C327 1.434 . S
C327 C318 1.429 . S
C327 N324 1.350 . S
C327 C326 1.434 . S
C328 C329 1.369 . S
C328 C330 1.419 . S
C328 H332 0.930 . S
C329 C328 1.369 . S
C329 C338 1.429 . S
C330 C328 1.419 . S
C330 C331 1.363 . S
C330 H333 0.929 . S
C331 C330 1.363 . S
C331 C337 1.428 . S
H332 C328 0.930 . S
H333 C330 0.929 . S
S334 N335 1.613 . S
S334 N336 1.610 . S
N335 S334 1.613 . S
N335 C338 1.350 . S
N336 S334 1.610 . S
N336 C337 1.351 . S
C337 C331 1.428 . S
C337 N336 1.351 . S
C337 C338 1.434 . S
C338 C329 1.429 . S
C338 N335 1.350 . S
C338 C337 1.434 . S
C339 C340 1.369 . S
C339 C341 1.419 . S
C339 H343 0.930 . S
C340 C339 1.369 . S
C340 C349 1.429 . S
C341 C339 1.419 . S
C341 C342 1.363 . S
C341 H344 0.929 . S
C342 C341 1.363 . S
C342 C348 1.428 . S
H343 C339 0.930 . S
H344 C341 0.929 . S
S345 N346 1.613 . S
S345 N347 1.610 . S
N346 S345 1.613 . S
N346 C349 1.350 . S
N347 S345 1.610 . S
N347 C348 1.351 . S
C348 C342 1.428 . S
C348 N347 1.351 . S
C348 C349 1.434 . S
C349 C340 1.429 . S
C349 N346 1.350 . S
C349 C348 1.434 . S
C350 C351 1.369 . S
C350 C352 1.419 . S
C350 H354 0.930 . S
C351 C350 1.369 . S
C351 C360 1.429 . S
C352 C350 1.419 . S
C352 C353 1.363 . S
C352 H355 0.929 . S
C353 C352 1.363 . S
C353 C359 1.428 . S
H354 C350 0.930 . S
H355 C352 0.929 . S
S356 N357 1.613 . S
S356 N358 1.610 . S
N357 S356 1.613 . S
N357 C360 1.350 . S
N358 S356 1.610 . S
N358 C359 1.351 . S
C359 C353 1.428 . S
C359 N358 1.351 . S
C359 C360 1.434 . S
C360 C351 1.429 . S
C360 N357 1.350 . S
C360 C359 1.434 . S
C361 C362 1.369 . S
C361 C363 1.419 . S
C361 H365 0.930 . S
C362 C361 1.369 . S
C362 C371 1.429 . S
C363 C361 1.419 . S
C363 C364 1.363 . S
C363 H366 0.929 . S
C364 C363 1.363 . S
C364 C370 1.428 . S
H365 C361 0.930 . S
H366 C363 0.929 . S
S367 N368 1.613 . S
S367 N369 1.610 . S
N368 S367 1.613 . S
N368 C371 1.350 . S
N369 S367 1.610 . S
N369 C370 1.351 . S
C370 C364 1.428 . S
C370 N369 1.351 . S
C370 C371 1.434 . S
C371 C362 1.429 . S
C371 N368 1.350 . S
C371 C370 1.434 . S
C372 C373 1.369 . S
C372 C374 1.419 . S
C372 H376 0.930 . S
C373 C372 1.369 . S
C373 C382 1.429 . S
C374 C372 1.419 . S
C374 C375 1.363 . S
C374 H377 0.929 . S
C375 C374 1.363 . S
C375 C381 1.428 . S
H376 C372 0.930 . S
H377 C374 0.929 . S
S378 N379 1.613 . S
S378 N380 1.610 . S
N379 S378 1.613 . S
N379 C382 1.350 . S
N380 S378 1.610 . S
N380 C381 1.351 . S
C381 C375 1.428 . S
C381 N380 1.351 . S
C381 C382 1.434 . S
C382 C373 1.429 . S
C382 N379 1.350 . S
C382 C381 1.434 . S
C383 C384 1.369 . S
C383 C385 1.419 . S
C383 H387 0.930 . S
C384 C383 1.369 . S
C384 C393 1.429 . S
C385 C383 1.419 . S
C385 C386 1.363 . S
C385 H388 0.929 . S
C386 C385 1.363 . S
C386 C392 1.428 . S
H387 C383 0.930 . S
H388 C385 0.929 . S
S389 N390 1.613 1_565 S
S389 N391 1.610 1_565 S
N390 S389 1.613 1_545 S
N390 C393 1.350 . S
N391 S389 1.610 1_545 S
N391 C392 1.351 . S
C392 C386 1.428 . S
C392 N391 1.351 . S
C392 C393 1.434 . S
C393 C384 1.429 . S
C393 N390 1.350 . S
C393 C392 1.434 . S
C394 C395 1.369 . S
C394 C396 1.419 . S
C394 H398 0.930 . S
C395 C394 1.369 . S
C395 C404 1.429 . S
C396 C394 1.419 . S
C396 C397 1.363 . S
C396 H399 0.929 . S
C397 C396 1.363 . S
C397 C403 1.428 . S
H398 C394 0.930 . S
H399 C396 0.929 . S
S400 N401 1.613 . S
S400 N402 1.610 . S
N401 S400 1.613 . S
N401 C404 1.350 . S
N402 S400 1.610 . S
N402 C403 1.351 . S
C403 C397 1.428 . S
C403 N402 1.351 . S
C403 C404 1.434 . S
C404 C395 1.429 . S
C404 N401 1.350 . S
C404 C403 1.434 . S
C405 C406 1.369 . S
C405 C407 1.419 . S
C405 H409 0.930 . S
C406 C405 1.369 . S
C406 C415 1.429 . S
C407 C405 1.419 . S
C407 C408 1.363 . S
C407 H410 0.929 . S
C408 C407 1.363 . S
C408 C414 1.428 . S
H409 C405 0.930 . S
H410 C407 0.929 . S
S411 N412 1.613 . S
S411 N413 1.610 . S
N412 S411 1.613 . S
N412 C415 1.350 . S
N413 S411 1.610 . S
N413 C414 1.351 . S
C414 C408 1.428 . S
C414 N413 1.351 . S
C414 C415 1.434 . S
C415 C406 1.429 . S
C415 N412 1.350 . S
C415 C414 1.434 . S
C416 C417 1.369 . S
C416 C418 1.419 . S
C416 H420 0.930 . S
C417 C416 1.369 . S
C417 C426 1.429 . S
C418 C416 1.419 . S
C418 C419 1.363 . S
C418 H421 0.929 . S
C419 C418 1.363 . S
C419 C425 1.428 . S
H420 C416 0.930 . S
H421 C418 0.929 . S
S422 N423 1.613 . S
S422 N424 1.610 . S
N423 S422 1.613 . S
N423 C426 1.350 . S
N424 S422 1.610 . S
N424 C425 1.351 . S
C425 C419 1.428 . S
C425 N424 1.351 . S
C425 C426 1.434 . S
C426 C417 1.429 . S
C426 N423 1.350 . S
C426 C425 1.434 . S
C427 C428 1.369 . S
C427 C429 1.419 . S
C427 H431 0.930 . S
C428 C427 1.369 . S
C428 C437 1.429 . S
C429 C427 1.419 . S
C429 C430 1.363 . S
C429 H432 0.929 . S
C430 C429 1.363 . S
C430 C436 1.428 . S
H431 C427 0.930 . S
H432 C429 0.929 . S
S433 N434 1.613 . S
S433 N435 1.610 . S
N434 S433 1.613 . S
N434 C437 1.350 . S
N435 S433 1.610 . S
N435 C436 1.351 . S
C436 C430 1.428 . S
C436 N435 1.351 . S
C436 C437 1.434 . S
C437 C428 1.429 . S
C437 N434 1.350 . S
C437 C436 1.434 . S
C241 C223 1.539 . S
C243 C31 1.543 . S
C252 C23 1.538 . S
C254 C71 1.538 . S
C263 C63 1.536 . S
C265 C111 1.541 . S
C274 C103 1.542 . S
C276 C151 1.542 . S
C285 C191 1.538 . S
C287 C143 1.537 . S
C296 C231 1.538 . S
C298 C183 1.541 . S
C307 C25 2.121 . S
C309 C4 2.132 . S
C318 C65 2.122 . S
C320 C44 2.131 . S
C329 C105 2.124 . S
C331 C84 2.129 . S
C340 C145 2.128 . S
C342 C124 2.126 . S
C351 C164 2.130 . S
C353 C185 2.124 . S
C362 C225 2.125 . S
C364 C204 2.128 . S
C373 C20 1.746 . S
C375 C162 1.767 . S
C384 C60 1.748 . S
C386 C202 1.766 . S
C395 C2 1.766 . S
C397 C100 1.747 . S
C406 C42 1.767 . S
C408 C140 1.746 . S
C417 C180 1.746 . S
C419 C82 1.766 . S
C428 C122 1.767 . S
C430 C220 1.745 . S
