# Generated by pormake.
# Topology afi, (4)-cn, num edge types: 1
# Building blocks:
#     Node 0, Type 0, BuildingBlock: QUQFOY_clean_sbu_3, # of connection points: 4
#     Node 1, Type 0, BuildingBlock: QUQFOY_clean_sbu_3, # of connection points: 4
#     Node 2, Type 0, BuildingBlock: QUQFOY_clean_sbu_3, # of connection points: 4
#     Node 3, Type 0, BuildingBlock: QUQFOY_clean_sbu_3, # of connection points: 4
#     Node 4, Type 0, BuildingBlock: QUQFOY_clean_sbu_3, # of connection points: 4
#     Node 5, Type 0, BuildingBlock: QUQFOY_clean_sbu_3, # of connection points: 4
#     Node 6, Type 0, BuildingBlock: QUQFOY_clean_sbu_3, # of connection points: 4
#     Node 7, Type 0, BuildingBlock: QUQFOY_clean_sbu_3, # of connection points: 4
#     Node 8, Type 0, BuildingBlock: QUQFOY_clean_sbu_3, # of connection points: 4
#     Node 9, Type 0, BuildingBlock: QUQFOY_clean_sbu_3, # of connection points: 4
#     Node 10, Type 0, BuildingBlock: QUQFOY_clean_sbu_3, # of connection points: 4
#     Node 11, Type 0, BuildingBlock: QUQFOY_clean_sbu_3, # of connection points: 4
#     Node 12, Type 0, BuildingBlock: QUQFOY_clean_sbu_3, # of connection points: 4
#     Node 13, Type 0, BuildingBlock: QUQFOY_clean_sbu_3, # of connection points: 4
#     Node 14, Type 0, BuildingBlock: QUQFOY_clean_sbu_3, # of connection points: 4
#     Node 15, Type 0, BuildingBlock: QUQFOY_clean_sbu_3, # of connection points: 4
#     Node 16, Type 0, BuildingBlock: QUQFOY_clean_sbu_3, # of connection points: 4
#     Node 17, Type 0, BuildingBlock: QUQFOY_clean_sbu_3, # of connection points: 4
#     Node 18, Type 0, BuildingBlock: QUQFOY_clean_sbu_3, # of connection points: 4
#     Node 19, Type 0, BuildingBlock: QUQFOY_clean_sbu_3, # of connection points: 4
#     Node 20, Type 0, BuildingBlock: QUQFOY_clean_sbu_3, # of connection points: 4
#     Node 21, Type 0, BuildingBlock: QUQFOY_clean_sbu_3, # of connection points: 4
#     Node 22, Type 0, BuildingBlock: QUQFOY_clean_sbu_3, # of connection points: 4
#     Node 23, Type 0, BuildingBlock: QUQFOY_clean_sbu_3, # of connection points: 4
#     Edge 24, Type (0, 0), BuildingBlock: CIFDUS_clean_linker_0, # of connection points: 2
#     Edge 25, Type (0, 0), BuildingBlock: CIFDUS_clean_linker_0, # of connection points: 2
#     Edge 26, Type (0, 0), BuildingBlock: CIFDUS_clean_linker_0, # of connection points: 2
#     Edge 27, Type (0, 0), BuildingBlock: CIFDUS_clean_linker_0, # of connection points: 2
#     Edge 28, Type (0, 0), BuildingBlock: CIFDUS_clean_linker_0, # of connection points: 2
#     Edge 29, Type (0, 0), BuildingBlock: CIFDUS_clean_linker_0, # of connection points: 2
#     Edge 30, Type (0, 0), BuildingBlock: CIFDUS_clean_linker_0, # of connection points: 2
#     Edge 31, Type (0, 0), BuildingBlock: CIFDUS_clean_linker_0, # of connection points: 2
#     Edge 32, Type (0, 0), BuildingBlock: CIFDUS_clean_linker_0, # of connection points: 2
#     Edge 33, Type (0, 0), BuildingBlock: CIFDUS_clean_linker_0, # of connection points: 2
#     Edge 34, Type (0, 0), BuildingBlock: CIFDUS_clean_linker_0, # of connection points: 2
#     Edge 35, Type (0, 0), BuildingBlock: CIFDUS_clean_linker_0, # of connection points: 2
#     Edge 36, Type (0, 0), BuildingBlock: CIFDUS_clean_linker_0, # of connection points: 2
#     Edge 37, Type (0, 0), BuildingBlock: CIFDUS_clean_linker_0, # of connection points: 2
#     Edge 38, Type (0, 0), BuildingBlock: CIFDUS_clean_linker_0, # of connection points: 2
#     Edge 39, Type (0, 0), BuildingBlock: CIFDUS_clean_linker_0, # of connection points: 2
#     Edge 40, Type (0, 0), BuildingBlock: CIFDUS_clean_linker_0, # of connection points: 2
#     Edge 41, Type (0, 0), BuildingBlock: CIFDUS_clean_linker_0, # of connection points: 2
#     Edge 42, Type (0, 0), BuildingBlock: CIFDUS_clean_linker_0, # of connection points: 2
#     Edge 43, Type (0, 0), BuildingBlock: CIFDUS_clean_linker_0, # of connection points: 2
#     Edge 44, Type (0, 0), BuildingBlock: CIFDUS_clean_linker_0, # of connection points: 2
#     Edge 45, Type (0, 0), BuildingBlock: CIFDUS_clean_linker_0, # of connection points: 2
#     Edge 46, Type (0, 0), BuildingBlock: CIFDUS_clean_linker_0, # of connection points: 2
#     Edge 47, Type (0, 0), BuildingBlock: CIFDUS_clean_linker_0, # of connection points: 2
#     Edge 48, Type (0, 0), BuildingBlock: CIFDUS_clean_linker_0, # of connection points: 2
#     Edge 49, Type (0, 0), BuildingBlock: CIFDUS_clean_linker_0, # of connection points: 2
#     Edge 50, Type (0, 0), BuildingBlock: CIFDUS_clean_linker_0, # of connection points: 2
#     Edge 51, Type (0, 0), BuildingBlock: CIFDUS_clean_linker_0, # of connection points: 2
#     Edge 52, Type (0, 0), BuildingBlock: CIFDUS_clean_linker_0, # of connection points: 2
#     Edge 53, Type (0, 0), BuildingBlock: CIFDUS_clean_linker_0, # of connection points: 2
#     Edge 54, Type (0, 0), BuildingBlock: CIFDUS_clean_linker_0, # of connection points: 2
#     Edge 55, Type (0, 0), BuildingBlock: CIFDUS_clean_linker_0, # of connection points: 2
#     Edge 56, Type (0, 0), BuildingBlock: CIFDUS_clean_linker_0, # of connection points: 2
#     Edge 57, Type (0, 0), BuildingBlock: CIFDUS_clean_linker_0, # of connection points: 2
#     Edge 58, Type (0, 0), BuildingBlock: CIFDUS_clean_linker_0, # of connection points: 2
#     Edge 59, Type (0, 0), BuildingBlock: CIFDUS_clean_linker_0, # of connection points: 2
#     Edge 60, Type (0, 0), BuildingBlock: CIFDUS_clean_linker_0, # of connection points: 2
#     Edge 61, Type (0, 0), BuildingBlock: CIFDUS_clean_linker_0, # of connection points: 2
#     Edge 62, Type (0, 0), BuildingBlock: CIFDUS_clean_linker_0, # of connection points: 2
#     Edge 63, Type (0, 0), BuildingBlock: CIFDUS_clean_linker_0, # of connection points: 2
#     Edge 64, Type (0, 0), BuildingBlock: CIFDUS_clean_linker_0, # of connection points: 2
#     Edge 65, Type (0, 0), BuildingBlock: CIFDUS_clean_linker_0, # of connection points: 2
#     Edge 66, Type (0, 0), BuildingBlock: CIFDUS_clean_linker_0, # of connection points: 2
#     Edge 67, Type (0, 0), BuildingBlock: CIFDUS_clean_linker_0, # of connection points: 2
#     Edge 68, Type (0, 0), BuildingBlock: CIFDUS_clean_linker_0, # of connection points: 2
#     Edge 69, Type (0, 0), BuildingBlock: CIFDUS_clean_linker_0, # of connection points: 2
#     Edge 70, Type (0, 0), BuildingBlock: CIFDUS_clean_linker_0, # of connection points: 2
#     Edge 71, Type (0, 0), BuildingBlock: CIFDUS_clean_linker_0, # of connection points: 2
# Relax obj value: 0.096
# Max RMSD: 0.105
# Mean RMSD: 0.105
data_MOF--net-afi--node1-QUQFOY_clean_sbu_3--edge1-CIFDUS_clean_linker_0
_symmetry_space_group_name_H-M    P1
_symmetry_Int_Tables_number       1
_symmetry_cell_setting            triclinic
loop_
_symmetry_equiv_pos_as_xyz
'x, y, z'
_cell_length_a     61.912884
_cell_length_b     61.93102
_cell_length_c     35.574768
_cell_angle_alpha  90.028214
_cell_angle_beta   90.032128
_cell_angle_gamma 120.01834
loop_
_atom_site_label
_atom_site_type_symbol
_atom_site_fract_x
_atom_site_fract_y
_atom_site_fract_z
_atom_type_partial_charge
C0 C 0.47025 0.07845 0.15681 0.0
O1 O 0.46224 0.06462 0.12788 0.0
Cd2 Cd 0.42579 0.05817 0.09563 0.0
O3 O 0.45911 0.08965 0.1692 0.0
Cd4 Cd 0.42304 0.09483 0.15149 0.0
C5 C 0.38338 0.03405 0.16723 0.0
O6 O 0.43575 0.10066 0.08762 0.0
O7 O 0.39944 0.09674 0.09587 0.0
O8 O 0.44917 0.13636 0.17782 0.0
C9 C 0.41819 0.10326 0.07478 0.0
O10 O 0.39067 0.03002 0.13591 0.0
C11 C 0.43101 0.13867 0.18919 0.0
O12 O 0.39295 0.05604 0.18021 0.0
O13 O 0.40928 0.12011 0.18457 0.0
C14 C 0.37996 0.49059 0.20952 0.0
O15 O 0.38636 0.48521 0.17859 0.0
Cd16 Cd 0.35853 0.45271 0.13849 0.0
O17 O 0.35729 0.47887 0.22053 0.0
Cd18 Cd 0.31672 0.44541 0.19419 0.0
C19 C 0.33724 0.40489 0.20247 0.0
O20 O 0.32652 0.46318 0.13302 0.0
O21 O 0.29561 0.42564 0.13353 0.0
O22 O 0.29838 0.46838 0.22228 0.0
C23 C 0.30813 0.44599 0.11589 0.0
O24 O 0.34931 0.41457 0.17232 0.0
C25 C 0.27755 0.44911 0.22928 0.0
O26 O 0.32455 0.41339 0.21796 0.0
O27 O 0.27556 0.42812 0.22204 0.0
C28 C 0.87128 0.37381 0.18527 0.0
O29 O 0.88156 0.38012 0.15321 0.0
Cd30 Cd 0.89117 0.35422 0.11563 0.0
O31 O 0.86402 0.35206 0.19834 0.0
Cd32 Cd 0.86215 0.31296 0.17574 0.0
C33 C 0.92419 0.34164 0.18138 0.0
O34 O 0.85307 0.31581 0.1115 0.0
O35 O 0.86759 0.2911 0.12136 0.0
O36 O 0.81908 0.29051 0.19505 0.0
C37 C 0.85689 0.29885 0.09922 0.0
O38 O 0.92396 0.35157 0.15014 0.0
C39 C 0.82004 0.27232 0.20961 0.0
O40 O 0.90402 0.32764 0.19896 0.0
O41 O 0.84135 0.27402 0.21137 0.0
C42 C 0.48289 0.87395 0.20002 0.0
O43 O 0.48332 0.88141 0.16665 0.0
Cd44 Cd 0.51548 0.88943 0.12242 0.0
O45 O 0.49909 0.86837 0.21115 0.0
Cd46 Cd 0.5347 0.8659 0.18352 0.0
C47 C 0.56566 0.92825 0.17805 0.0
O48 O 0.51843 0.85264 0.12123 0.0
O49 O 0.55817 0.86826 0.12667 0.0
O50 O 0.51966 0.82485 0.20965 0.0
C51 C 0.53875 0.85673 0.10655 0.0
O52 O 0.55268 0.92548 0.14872 0.0
C53 C 0.54057 0.82946 0.22296 0.0
O54 O 0.56197 0.90956 0.19774 0.0
O55 O 0.55849 0.85176 0.22039 0.0
C56 C 0.59216 0.48322 0.17604 0.0
O57 O 0.58221 0.48623 0.14677 0.0
Cd58 Cd 0.60335 0.51809 0.10136 0.0
O59 O 0.61526 0.49769 0.18324 0.0
Cd60 Cd 0.65071 0.53353 0.14992 0.0
C61 C 0.62436 0.56964 0.15708 0.0
O62 O 0.63856 0.51305 0.09033 0.0
O63 O 0.6676 0.55144 0.0868 0.0
O64 O 0.67798 0.51851 0.17187 0.0
C65 C 0.65522 0.5304 0.07088 0.0
O66 O 0.61043 0.55726 0.12965 0.0
C67 C 0.69591 0.53991 0.18056 0.0
O68 O 0.6396 0.56383 0.17122 0.0
O69 O 0.69222 0.5582 0.17696 0.0
C70 C 0.10738 0.61379 0.19936 0.0
O71 O 0.10047 0.60837 0.16537 0.0
Cd72 Cd 0.09214 0.63414 0.12474 0.0
O73 O 0.11204 0.6347 0.21319 0.0
Cd74 Cd 0.11396 0.67399 0.19198 0.0
C75 C 0.05172 0.64211 0.18223 0.0
O76 O 0.12763 0.67462 0.12904 0.0
O77 O 0.11275 0.69895 0.1386 0.0
O78 O 0.15416 0.69667 0.22181 0.0
C79 C 0.12324 0.6911 0.11624 0.0
O80 O 0.05543 0.63341 0.15197 0.0
C81 C 0.14992 0.71228 0.2385 0.0
O82 O 0.06978 0.65624 0.20377 0.0
O83 O 0.12818 0.70937 0.23505 0.0
C84 C 0.8697 0.49038 0.27703 0.0
O85 O 0.87769 0.49353 0.31061 0.0
Cd86 Cd 0.88524 0.52899 0.34729 0.0
O87 O 0.86349 0.50526 0.26231 0.0
Cd88 Cd 0.85907 0.5417 0.28024 0.0
C89 C 0.92108 0.57581 0.28361 0.0
O90 O 0.8479 0.53068 0.34442 0.0
O91 O 0.86057 0.56917 0.33202 0.0
O92 O 0.81832 0.51801 0.25226 0.0
C93 C 0.85143 0.55157 0.35576 0.0
O94 O 0.919 0.56493 0.31492 0.0
C95 C 0.81832 0.53651 0.23698 0.0
O96 O 0.90214 0.5698 0.26282 0.0
O97 O 0.8381 0.55761 0.24003 0.0
C98 C 0.37854 0.88488 0.31479 0.0
O99 O 0.38837 0.89878 0.34327 0.0
Cd100 Cd 0.36499 0.90867 0.38605 0.0
O101 O 0.35515 0.87463 0.30866 0.0
Cd102 Cd 0.31782 0.87149 0.34044 0.0
C103 C 0.33968 0.93224 0.32374 0.0
O104 O 0.33153 0.86813 0.40184 0.0
O105 O 0.30035 0.8745 0.40172 0.0
O106 O 0.2974 0.82842 0.31974 0.0
C107 C 0.31423 0.86859 0.41995 0.0
O108 O 0.35445 0.93641 0.35122 0.0
C109 C 0.27685 0.82716 0.31156 0.0
O110 O 0.32503 0.9101 0.3126 0.0
O111 O 0.2756 0.84687 0.31577 0.0
C112 C 0.48603 0.36405 0.28035 0.0
O113 O 0.48209 0.37121 0.31175 0.0
Cd114 Cd 0.44655 0.3461 0.34984 0.0
O115 O 0.47155 0.34192 0.26846 0.0
Cd116 Cd 0.43411 0.30341 0.29196 0.0
C117 C 0.40122 0.33263 0.28343 0.0
O118 O 0.44633 0.30768 0.35656 0.0
O119 O 0.40715 0.2828 0.34707 0.0
O120 O 0.45038 0.27704 0.27004 0.0
C121 C 0.4255 0.29133 0.36955 0.0
O122 O 0.41105 0.34333 0.31447 0.0
C123 C 0.43012 0.26112 0.25446 0.0
O124 O 0.40755 0.31822 0.26769 0.0
O125 O 0.41226 0.26564 0.25487 0.0
C126 C 0.10164 0.49581 0.29905 0.0
O127 O 0.09109 0.49254 0.33079 0.0
Cd128 Cd 0.0795 0.45684 0.36958 0.0
O129 O 0.10804 0.48042 0.28695 0.0
Cd130 Cd 0.10766 0.44232 0.31057 0.0
C131 C 0.0454 0.41006 0.30594 0.0
O132 O 0.11577 0.45317 0.37593 0.0
O133 O 0.10063 0.4141 0.36375 0.0
O134 O 0.15075 0.45995 0.29198 0.0
C135 C 0.1105 0.43173 0.38742 0.0
O136 O 0.04591 0.42112 0.33642 0.0
C137 C 0.14777 0.44066 0.2749 0.0
O138 O 0.06544 0.41553 0.28849 0.0
O139 O 0.12562 0.42241 0.2724 0.0
C140 C 0.58453 0.10105 0.28638 0.0
O141 O 0.58198 0.09351 0.32011 0.0
Cd142 Cd 0.61342 0.08994 0.35316 0.0
O143 O 0.60518 0.10891 0.26906 0.0
Cd144 Cd 0.64769 0.11658 0.28529 0.0
C145 C 0.62477 0.05524 0.28877 0.0
O146 O 0.64936 0.13034 0.34873 0.0
O147 O 0.67484 0.11717 0.33645 0.0
O148 O 0.66635 0.15726 0.25524 0.0
C149 C 0.66821 0.12887 0.35849 0.0
O150 O 0.61687 0.05657 0.32127 0.0
C151 C 0.68473 0.15601 0.24197 0.0
O152 O 0.63556 0.07439 0.26783 0.0
O153 O 0.68436 0.13544 0.24561 0.0
C154 C 0.49964 0.60528 0.30056 0.0
O155 O 0.50466 0.59916 0.33201 0.0
Cd156 Cd 0.54099 0.62761 0.36586 0.0
O157 O 0.51299 0.6273 0.28765 0.0
Cd158 Cd 0.54891 0.66797 0.30766 0.0
C159 C 0.58445 0.6422 0.29546 0.0
O160 O 0.53554 0.66306 0.37121 0.0
O161 O 0.57408 0.69127 0.36348 0.0
O162 O 0.52379 0.68435 0.28208 0.0
C163 C 0.55487 0.68164 0.38424 0.0
O164 O 0.57561 0.63163 0.32691 0.0
C165 C 0.54209 0.70493 0.27144 0.0
O166 O 0.57718 0.65608 0.28043 0.0
O167 O 0.56375 0.70777 0.27552 0.0
C168 C 0.50932 0.89354 0.80547 0.0
O169 O 0.51523 0.90535 0.83641 0.0
Cd170 Cd 0.5512 0.91272 0.87079 0.0
O171 O 0.52184 0.88395 0.79251 0.0
Cd172 Cd 0.55739 0.87846 0.81207 0.0
C173 C 0.59494 0.93964 0.80034 0.0
O174 O 0.54469 0.87151 0.87594 0.0
O175 O 0.58227 0.87903 0.86741 0.0
O176 O 0.53157 0.83714 0.78604 0.0
C177 C 0.56363 0.87152 0.88909 0.0
O178 O 0.58638 0.94205 0.83164 0.0
C179 C 0.5497 0.83478 0.77475 0.0
O180 O 0.58676 0.91828 0.78548 0.0
O181 O 0.57149 0.85333 0.77913 0.0
C182 C 0.58684 0.46599 0.76566 0.0
O183 O 0.58147 0.47113 0.79764 0.0
Cd184 Cd 0.60915 0.50671 0.83382 0.0
O185 O 0.60874 0.47885 0.75211 0.0
Cd186 Cd 0.64948 0.51425 0.773 0.0
C187 C 0.62417 0.55049 0.7639 0.0
O188 O 0.6465 0.50504 0.83885 0.0
O189 O 0.67321 0.54302 0.82472 0.0
O190 O 0.67113 0.49283 0.75114 0.0
C191 C 0.66401 0.52607 0.84948 0.0
O192 O 0.61407 0.54194 0.79575 0.0
C193 C 0.68866 0.51212 0.73565 0.0
O194 O 0.63701 0.54241 0.74763 0.0
O195 O 0.68695 0.53171 0.73571 0.0
C196 C 0.10066 0.60894 0.79768 0.0
O197 O 0.08609 0.60062 0.82574 0.0
Cd198 Cd 0.07559 0.62526 0.86411 0.0
O199 O 0.1115 0.632 0.78887 0.0
Cd200 Cd 0.11321 0.66989 0.81656 0.0
C201 C 0.05267 0.64643 0.79504 0.0
O202 O 0.11657 0.65829 0.87915 0.0
O203 O 0.10904 0.68861 0.87627 0.0
O204 O 0.15719 0.69447 0.80003 0.0
C205 C 0.11624 0.67616 0.89555 0.0
O206 O 0.04774 0.63314 0.82451 0.0
C207 C 0.15572 0.71318 0.78894 0.0
O208 O 0.0751 0.66068 0.78503 0.0
O209 O 0.1342 0.71095 0.78854 0.0
C210 C 0.52042 0.12672 0.7882 0.0
O211 O 0.51552 0.11754 0.82108 0.0
Cd212 Cd 0.48063 0.11087 0.85808 0.0
O213 O 0.5072 0.13479 0.77275 0.0
Cd214 Cd 0.47105 0.13944 0.79255 0.0
C215 C 0.43438 0.07726 0.79393 0.0
O216 O 0.48204 0.14997 0.85754 0.0
O217 O 0.44362 0.13699 0.84436 0.0
O218 O 0.48667 0.18055 0.76423 0.0
C219 C 0.46109 0.14652 0.8683 0.0
O220 O 0.4437 0.07748 0.82599 0.0
C221 C 0.46589 0.17465 0.74887 0.0
O222 O 0.44246 0.09714 0.77484 0.0
O223 O 0.4486 0.15213 0.75166 0.0
C224 C 0.38299 0.50738 0.81081 0.0
O225 O 0.38895 0.49827 0.83819 0.0
Cd226 Cd 0.36029 0.46047 0.86918 0.0
O227 O 0.36056 0.49679 0.79885 0.0
Cd228 Cd 0.32031 0.4597 0.81811 0.0
C229 C 0.33984 0.41998 0.79522 0.0
O230 O 0.32594 0.4663 0.88472 0.0
O231 O 0.29689 0.42954 0.86899 0.0
O232 O 0.29856 0.48242 0.80264 0.0
C233 C 0.30729 0.44584 0.89448 0.0
O234 O 0.35108 0.42544 0.82677 0.0
C235 C 0.28042 0.46378 0.7868 0.0
O236 O 0.3288 0.43135 0.78382 0.0
O237 O 0.28169 0.44402 0.78415 0.0
C238 C 0.86634 0.38685 0.80305 0.0
O239 O 0.87789 0.39168 0.83415 0.0
Cd240 Cd 0.88476 0.36184 0.86571 0.0
O241 O 0.85661 0.36515 0.78847 0.0
Cd242 Cd 0.85129 0.32399 0.80669 0.0
C243 C 0.91237 0.3473 0.79425 0.0
O244 O 0.84327 0.32699 0.87141 0.0
O245 O 0.85375 0.29935 0.85988 0.0
O246 O 0.80903 0.30307 0.78073 0.0
C247 C 0.84435 0.3082 0.88249 0.0
O248 O 0.9152 0.35722 0.82659 0.0
C249 C 0.81103 0.28525 0.76684 0.0
O250 O 0.89088 0.33518 0.77954 0.0
O251 O 0.832 0.28644 0.76995 0.0
C252 C 0.09646 0.49175 0.70095 0.0
O253 O 0.08451 0.48766 0.67031 0.0
Cd254 Cd 0.0742 0.45234 0.63232 0.0
O255 O 0.10468 0.47756 0.71182 0.0
Cd256 Cd 0.10672 0.44104 0.68694 0.0
C257 C 0.04507 0.40684 0.69965 0.0
O258 O 0.11457 0.45693 0.62466 0.0
O259 O 0.10465 0.41834 0.62781 0.0
O260 O 0.14882 0.46159 0.71168 0.0
C261 C 0.11345 0.43823 0.60865 0.0
O262 O 0.04315 0.41702 0.6697 0.0
C263 C 0.14781 0.4417 0.72311 0.0
O264 O 0.06634 0.41291 0.71317 0.0
O265 O 0.12721 0.42155 0.71902 0.0
C266 C 0.60816 0.10249 0.6525 0.0
O267 O 0.60179 0.09004 0.62213 0.0
Cd268 Cd 0.62952 0.08068 0.58859 0.0
O269 O 0.63005 0.11092 0.66591 0.0
Cd270 Cd 0.66971 0.11249 0.64858 0.0
C271 C 0.64367 0.05054 0.65677 0.0
O272 O 0.66653 0.12071 0.58438 0.0
O273 O 0.69486 0.11097 0.59519 0.0
O274 O 0.68954 0.15453 0.67299 0.0
C275 C 0.68518 0.11957 0.57265 0.0
O276 O 0.63313 0.04901 0.62533 0.0
C277 C 0.70705 0.15334 0.68958 0.0
O278 O 0.65693 0.07154 0.67261 0.0
O279 O 0.70664 0.13265 0.68824 0.0
C280 C 0.4854 0.61044 0.67779 0.0
O281 O 0.48968 0.60463 0.64554 0.0
Cd282 Cd 0.52884 0.62825 0.61465 0.0
O283 O 0.5014 0.63063 0.69382 0.0
Cd284 Cd 0.54252 0.66777 0.67775 0.0
C285 C 0.5679 0.6318 0.68652 0.0
O286 O 0.53591 0.6697 0.61197 0.0
O287 O 0.57458 0.68908 0.62848 0.0
O288 O 0.52756 0.69508 0.69861 0.0
C289 C 0.55838 0.68471 0.60335 0.0
O290 O 0.559 0.62365 0.65391 0.0
C291 C 0.54702 0.7095 0.71724 0.0
O292 O 0.5635 0.6473 0.70331 0.0
O293 O 0.56387 0.70356 0.71937 0.0
C294 C 0.88304 0.4952 0.66631 0.0
O295 O 0.89842 0.50303 0.63919 0.0
Cd296 Cd 0.90807 0.53963 0.60484 0.0
O297 O 0.87157 0.50661 0.67616 0.0
Cd298 Cd 0.86898 0.54327 0.65342 0.0
C299 C 0.92889 0.58181 0.67672 0.0
O300 O 0.86645 0.5301 0.59004 0.0
O301 O 0.87091 0.56678 0.59532 0.0
O302 O 0.82533 0.52017 0.67213 0.0
C303 C 0.86499 0.54777 0.57506 0.0
O304 O 0.93456 0.57461 0.6467 0.0
C305 C 0.82481 0.53929 0.68376 0.0
O306 O 0.90626 0.57247 0.68651 0.0
O307 O 0.84518 0.5599 0.68294 0.0
C308 C 0.38782 0.88865 0.72221 0.0
O309 O 0.39287 0.89859 0.68985 0.0
Cd310 Cd 0.36493 0.90712 0.65617 0.0
O311 O 0.36638 0.88086 0.73691 0.0
Cd312 Cd 0.32556 0.87657 0.71854 0.0
C313 C 0.35292 0.93802 0.72705 0.0
O314 O 0.32759 0.86808 0.6537 0.0
O315 O 0.30142 0.88039 0.66539 0.0
O316 O 0.30695 0.83441 0.74278 0.0
C317 C 0.31014 0.87128 0.64198 0.0
O318 O 0.36228 0.9383 0.69503 0.0
C319 C 0.28778 0.83413 0.75597 0.0
O320 O 0.33935 0.9176 0.74422 0.0
O321 O 0.28708 0.85426 0.75407 0.0
C322 C 0.46004 0.36329 0.67275 0.0
O323 O 0.45601 0.37175 0.64269 0.0
Cd324 Cd 0.41764 0.34779 0.60992 0.0
O325 O 0.4449 0.3412 0.68381 0.0
Cd326 Cd 0.40689 0.30292 0.66235 0.0
C327 C 0.37693 0.33302 0.68504 0.0
O328 O 0.41786 0.31008 0.59787 0.0
O329 O 0.37947 0.28173 0.60731 0.0
O330 O 0.43281 0.28575 0.67812 0.0
C331 C 0.39777 0.2924 0.58487 0.0
O332 O 0.38652 0.34521 0.65492 0.0
C333 C 0.41564 0.26557 0.69192 0.0
O334 O 0.38159 0.31621 0.69586 0.0
O335 O 0.39392 0.26292 0.69351 0.0
H336 H 0.37827 0.03445 0.24271 0.0
H337 H 0.35193 0.9857 0.14616 0.0
H338 H 0.33179 0.9494 0.18754 0.0
H339 H 0.32774 0.93163 0.2504 0.0
H340 H 0.35826 0.98049 0.34629 0.0
H341 H 0.37039 0.0167 0.30596 0.0
C342 C 0.36761 0.01593 0.23066 0.0
C343 C 0.36681 0.01274 0.19143 0.0
C344 C 0.3571 -0.00483 0.25456 0.0
C345 C 0.353 0.98861 0.17629 0.0
C346 C 0.34157 0.96786 0.19993 0.0
C347 C 0.33649 0.95016 0.26263 0.0
C348 C 0.34231 0.95343 0.3012 0.0
C349 C 0.34441 0.9709 0.23905 0.0
C350 C 0.3538 0.97754 0.31661 0.0
C351 C 0.36079 -0.00176 0.29355 0.0
H352 H 0.37315 0.35093 0.31317 0.0
H353 H 0.39206 0.32943 0.20826 0.0
H354 H 0.37078 0.34727 0.17347 0.0
H355 H 0.35198 0.37399 0.17275 0.0
H356 H 0.33223 0.39478 0.27752 0.0
H357 H 0.34817 0.37176 0.3124 0.0
C358 C 0.37225 0.34982 0.28272 0.0
C359 C 0.38455 0.33934 0.2633 0.0
C360 C 0.35994 0.36008 0.26284 0.0
C361 C 0.38286 0.33756 0.22389 0.0
C362 C 0.37079 0.34785 0.20393 0.0
C363 C 0.35072 0.37305 0.20319 0.0
C364 C 0.34138 0.38642 0.22254 0.0
C365 C 0.36004 0.35991 0.22308 0.0
C366 C 0.33944 0.38472 0.26194 0.0
C367 C 0.34873 0.37172 0.28195 0.0
H368 H 0.93372 0.34396 0.25589 0.0
H369 H 0.96895 0.35729 0.14716 0.0
H370 H 0.01002 0.37702 0.17702 0.0
H371 H 0.03577 0.39501 0.23326 0.0
H372 H 0.00043 0.38495 0.34143 0.0
H373 H 0.95952 0.35926 0.31261 0.0
C374 C 0.95037 0.35067 0.23881 0.0
C375 C 0.94839 0.34929 0.19944 0.0
C376 C 0.97389 0.36289 0.25605 0.0
C377 C 0.97009 0.3583 0.17756 0.0
C378 C -0.00646 0.36964 0.19459 0.0
C379 C 0.01915 0.38685 0.25062 0.0
C380 C 0.02108 0.39205 0.28933 0.0
C381 C -0.00433 0.37277 0.23372 0.0
C382 C -0.00062 0.38144 0.31146 0.0
C383 C 0.97599 0.36674 0.29503 0.0
H384 H 0.58113 0.94222 0.24966 0.0
H385 H 0.58817 0.97134 0.13737 0.0
H386 H 0.61064 0.01391 0.16185 0.0
H387 H 0.62325 0.04234 0.21565 0.0
H388 H 0.61267 0.01291 0.32832 0.0
H389 H 0.59685 0.97093 0.30318 0.0
C390 C 0.58805 0.95788 0.23046 0.0
C391 C 0.58287 0.95368 0.19182 0.0
C392 C 0.60006 0.98222 0.24486 0.0
C393 C 0.59177 0.97414 0.16729 0.0
C394 C 0.60456 -0.00154 0.18127 0.0
C395 C 0.61794 0.02682 0.23471 0.0
C396 C 0.61892 0.03067 0.27378 0.0
C397 C 0.60805 0.00267 0.2201 0.0
C398 C 0.61185 0.01036 0.29812 0.0
C399 C 0.60279 0.98637 0.28377 0.0
H400 H 0.58637 0.63937 0.21988 0.0
H401 H 0.61615 0.62723 0.32223 0.0
H402 H 0.63466 0.60674 0.28664 0.0
H403 H 0.63707 0.58717 0.22817 0.0
H404 H 0.60324 0.59535 0.12709 0.0
H405 H 0.59178 0.62271 0.16033 0.0
C406 C 0.59747 0.63282 0.23424 0.0
C407 C 0.59989 0.63474 0.27359 0.0
C408 C 0.60697 0.62002 0.21387 0.0
C409 C 0.614 0.62587 0.29195 0.0
C410 C 0.62447 0.61407 0.27164 0.0
C411 C 0.62762 0.59533 0.21319 0.0
C412 C 0.62083 0.5891 0.1753 0.0
C413 C 0.62026 0.61022 0.23283 0.0
C414 C 0.60846 0.5997 0.15636 0.0
C415 C 0.6019 0.61532 0.17535 0.0
H416 H 0.03554 0.64267 0.25271 0.0
H417 H 0.00988 0.62208 0.13846 0.0
H418 H 0.96661 0.60258 0.1596 0.0
H419 H 0.93629 0.58711 0.21128 0.0
H420 H 0.9623 0.6047 0.32583 0.0
H421 H 0.00521 0.62992 0.30383 0.0
C422 C 0.02049 0.63432 0.23234 0.0
C423 C 0.02587 0.63362 0.19415 0.0
C424 C -0.00428 0.62243 0.24481 0.0
C425 C 0.00618 0.62263 0.1681 0.0
C426 C 0.98145 0.61146 0.18016 0.0
C427 C 0.95132 0.59688 0.23135 0.0
C428 C 0.94623 0.59396 0.27007 0.0
C429 C 0.97601 0.61059 0.21857 0.0
C430 C 0.96585 0.60653 0.29585 0.0
C431 C -0.00964 0.62091 0.28331 0.0
H432 H 0.60017 0.94336 0.72478 0.0
H433 H 0.6262 0.98652 0.82695 0.0
H434 H 0.64696 0.02499 0.79027 0.0
H435 H 0.65249 0.04628 0.73021 0.0
H436 H 0.62298 0.0032 0.62854 0.0
H437 H 0.60896 0.96469 0.66401 0.0
C438 C 0.61089 0.96115 0.73899 0.0
C439 C 0.61155 0.96216 0.77849 0.0
C440 C 0.62182 0.98318 0.71784 0.0
C441 C 0.62532 0.98533 0.79655 0.0
C442 C 0.63709 0.0073 0.77561 0.0
C443 C 0.64337 0.02851 0.71564 0.0
C444 C 0.6385 0.02758 0.67687 0.0
C445 C 0.63464 0.00647 0.73636 0.0
C446 C 0.62669 0.00439 0.65845 0.0
C447 C 0.61866 0.98237 0.67871 0.0
H448 H 0.60972 0.58129 0.7947 0.0
H449 H 0.62672 0.55938 0.68858 0.0
H450 H 0.61238 0.58425 0.655 0.0
H451 H 0.59133 0.60893 0.65575 0.0
H452 H 0.57526 0.63161 0.76196 0.0
H453 H 0.59317 0.60992 0.79552 0.0
C454 C 0.61053 0.58219 0.76424 0.0
C455 C 0.61891 0.56827 0.74413 0.0
C456 C 0.6023 0.59653 0.74512 0.0
C457 C 0.62027 0.5699 0.70471 0.0
C458 C 0.61196 0.58401 0.68546 0.0
C459 C 0.59199 0.60931 0.68623 0.0
C460 C 0.58168 0.62151 0.70634 0.0
C461 C 0.60236 0.59687 0.70537 0.0
C462 C 0.58301 0.62226 0.74581 0.0
C463 C 0.59315 0.60978 0.76505 0.0
H464 H 0.97757 0.61441 0.66084 0.0
H465 H 0.92472 0.58585 0.7522 0.0
H466 H 0.95855 0.60611 0.79764 0.0
H467 H 0.00344 0.62679 0.81141 0.0
H468 H 0.05625 0.65634 0.72005 0.0
H469 H 0.02218 0.64124 0.6748 0.0
C470 C 0.97346 0.61303 0.69067 0.0
C471 C 0.94877 0.59829 0.70313 0.0
C472 C -0.007 0.62473 0.71672 0.0
C473 C 0.94361 0.59699 0.74183 0.0
C474 C 0.96296 0.60845 0.76791 0.0
C475 C 0.00746 0.63035 0.78165 0.0
C476 C 0.03229 0.64223 0.7691 0.0
C477 C -0.01222 0.62159 0.75569 0.0
C478 C 0.03727 0.6471 0.7305 0.0
C479 C 0.0178 0.63834 0.70451 0.0
H480 H 0.40615 0.03269 0.82928 0.0
H481 H 0.4196 0.06847 0.72081 0.0
H482 H 0.39242 0.02845 0.69105 0.0
H483 H 0.36925 0.98296 0.69466 0.0
H484 H 0.35539 0.94673 0.80262 0.0
H485 H 0.37781 0.9873 0.83382 0.0
C486 C 0.4029 0.03173 0.7992 0.0
C487 C 0.41529 0.05344 0.77723 0.0
C488 C 0.38721 0.00861 0.78215 0.0
C489 C 0.41051 0.05202 0.73838 0.0
C490 C 0.39499 0.02913 0.72126 0.0
C491 C 0.37075 0.98398 0.72508 0.0
C492 C 0.36109 0.96197 0.74627 0.0
C493 C 0.38389 0.00725 0.74271 0.0
C494 C 0.36275 0.96347 0.78569 0.0
C495 C 0.37575 0.98664 0.80352 0.0
H496 H 0.34939 0.38305 0.81476 0.0
H497 H 0.33253 0.41537 0.71963 0.0
H498 H 0.33909 0.38839 0.67701 0.0
H499 H 0.35447 0.35941 0.6663 0.0
H500 H 0.37098 0.32656 0.76102 0.0
H501 H 0.35903 0.34943 0.80424 0.0
C502 C 0.34693 0.38399 0.78473 0.0
C503 C 0.34097 0.4015 0.77033 0.0
C504 C 0.3506 0.36831 0.76029 0.0
C505 C 0.33731 0.40218 0.73143 0.0
C506 C 0.34109 0.38678 0.70699 0.0
C507 C 0.35497 0.35688 0.69641 0.0
C508 C 0.36397 0.34167 0.71044 0.0
C509 C 0.34842 0.37031 0.72104 0.0
C510 C 0.36416 0.33822 0.74948 0.0
C511 C 0.35756 0.35149 0.77424 0.0
H512 H -0.00265 0.38062 0.67446 0.0
H513 H 0.04213 0.39734 0.77482 0.0
H514 H 0.00455 0.37821 0.81344 0.0
H515 H 0.95932 0.36169 0.81903 0.0
H516 H 0.91464 0.344 0.71833 0.0
H517 H 0.95176 0.3583 0.67965 0.0
C518 C -0.00116 0.37967 0.70473 0.0
C519 C 0.02245 0.39074 0.72177 0.0
C520 C 0.97719 0.36871 0.7268 0.0
C521 C 0.02414 0.38903 0.76098 0.0
C522 C 0.00267 0.37825 0.78315 0.0
C523 C 0.95771 0.36066 0.78864 0.0
C524 C 0.93436 0.35224 0.77162 0.0
C525 C 0.97914 0.36883 0.76644 0.0
C526 C 0.93243 0.35056 0.73219 0.0
C527 C 0.95367 0.35882 0.70998 0.0
H528 H 0.39683 0.15343 0.19401 0.0
H529 H 0.47406 0.17752 0.21699 0.0
H530 H 0.48086 0.21802 0.23837 0.0
H531 H 0.46477 0.24651 0.25014 0.0
H532 H 0.38777 0.22257 0.22492 0.0
H533 H 0.38106 0.18213 0.20426 0.0
C534 C 0.41509 0.16746 0.20403 0.0
C535 C 0.43486 0.16248 0.2043 0.0
C536 C 0.41897 0.19079 0.21542 0.0
C537 C 0.45853 0.18095 0.21672 0.0
C538 C 0.46244 0.2041 0.2288 0.0
C539 C 0.44657 0.2325 0.23989 0.0
C540 C 0.42681 0.23753 0.23908 0.0
C541 C 0.44281 0.20926 0.22808 0.0
C542 C 0.40333 0.2192 0.22573 0.0
C543 C 0.39942 0.19601 0.21408 0.0
H544 H 0.19655 0.47608 0.27995 0.0
H545 H 0.14753 0.40083 0.24144 0.0
H546 H 0.18356 0.39643 0.2258 0.0
H547 H 0.22887 0.41375 0.22403 0.0
H548 H 0.27785 0.4893 0.26112 0.0
H549 H 0.24181 0.49366 0.27703 0.0
C550 C 0.19372 0.45878 0.26785 0.0
C551 C 0.16941 0.43882 0.26184 0.0
C552 C 0.21447 0.45632 0.25923 0.0
C553 C 0.16607 0.41651 0.24621 0.0
C554 C 0.18664 0.41392 0.23748 0.0
C555 C 0.23164 0.43107 0.23598 0.0
C556 C 0.25593 0.4511 0.24177 0.0
C557 C 0.2109 0.43362 0.24423 0.0
C558 C 0.2593 0.47359 0.25663 0.0
C559 C 0.23873 0.47612 0.26555 0.0
H560 H 0.73173 0.16422 0.2439 0.0
H561 H 0.68852 0.19887 0.21438 0.0
H562 H 0.72693 0.23847 0.20322 0.0
H563 H 0.77259 0.26333 0.20399 0.0
H564 H 0.8157 0.22896 0.23619 0.0
H565 H 0.77734 0.18914 0.2452 0.0
C566 C 0.73073 0.18032 0.23431 0.0
C567 C 0.7074 0.17862 0.22941 0.0
C568 C 0.75279 0.20313 0.22938 0.0
C569 C 0.70632 0.19974 0.21792 0.0
C570 C 0.72823 0.22238 0.21188 0.0
C571 C 0.77362 0.24719 0.21332 0.0
C572 C 0.79697 0.24912 0.21955 0.0
C573 C 0.75154 0.22436 0.21811 0.0
C574 C 0.79796 0.22801 0.23146 0.0
C575 C 0.77606 0.2052 0.2363 0.0
H576 H 0.50678 0.78011 0.22402 0.0
H577 H 0.58337 0.83326 0.25133 0.0
H578 H 0.59101 0.79918 0.26661 0.0
H579 H 0.57606 0.75428 0.27107 0.0
H580 H 0.49928 0.70136 0.24463 0.0
H581 H 0.49171 0.73545 0.22935 0.0
C582 C 0.52509 0.78428 0.23369 0.0
C583 C 0.54446 0.80917 0.23663 0.0
C584 C 0.52942 0.76466 0.24191 0.0
C585 C 0.56811 0.81424 0.24901 0.0
C586 C 0.57254 0.79478 0.25749 0.0
C587 C 0.55777 0.75024 0.2615 0.0
C588 C 0.53831 0.72539 0.25861 0.0
C589 C 0.55341 0.76992 0.25361 0.0
C590 C 0.51458 0.72037 0.24685 0.0
C591 C 0.5102 0.73983 0.23833 0.0
H592 H 0.70984 0.5049 0.18358 0.0
H593 H 0.73722 0.5833 0.2019 0.0
H594 H 0.77843 0.58964 0.21748 0.0
H595 H 0.80632 0.57264 0.22755 0.0
H596 H 0.77839 0.49401 0.21099 0.0
H597 H 0.73784 0.48812 0.19223 0.0
C598 C 0.72478 0.52336 0.19114 0.0
C599 C 0.72044 0.54355 0.19187 0.0
C600 C 0.7484 0.52688 0.19988 0.0
C601 C 0.74005 0.5674 0.2014 0.0
C602 C 0.76365 0.57108 0.21012 0.0
C603 C 0.79147 0.55432 0.21919 0.0
C604 C 0.7953 0.53381 0.22046 0.0
C605 C 0.76802 0.55094 0.20947 0.0
C606 C 0.77583 0.51008 0.21014 0.0
C607 C 0.75263 0.50668 0.19963 0.0
H608 H 0.19686 0.72153 0.25096 0.0
H609 H 0.14857 0.75223 0.26868 0.0
H610 H 0.18377 0.79065 0.29319 0.0
H611 H 0.22869 0.81626 0.30627 0.0
H612 H 0.27664 0.78517 0.2885 0.0
H613 H 0.24106 0.74613 0.26697 0.0
C614 C 0.19395 0.73652 0.26053 0.0
C615 C 0.17019 0.7341 0.25784 0.0
C616 C 0.21424 0.75857 0.27411 0.0
C617 C 0.1667 0.75363 0.27051 0.0
C618 C 0.18683 0.77565 0.2843 0.0
C619 C 0.23133 0.80094 0.29761 0.0
C620 C 0.25526 0.80365 0.29858 0.0
C621 C 0.21076 0.77848 0.28557 0.0
C622 C 0.2584 0.78357 0.28782 0.0
C623 C 0.23808 0.76124 0.27557 0.0
H624 H 0.51406 0.72614 0.71688 0.0
H625 H 0.58886 0.74652 0.7508 0.0
H626 H 0.59673 0.78777 0.76958 0.0
H627 H 0.58258 0.81821 0.77531 0.0
H628 H 0.50735 0.79732 0.74349 0.0
H629 H 0.49953 0.75611 0.72424 0.0
C630 C 0.53202 0.73952 0.72867 0.0
C631 C 0.55084 0.7333 0.73244 0.0
C632 C 0.53645 0.76319 0.73921 0.0
C633 C 0.57402 0.75083 0.74777 0.0
C634 C 0.5786 0.77447 0.75827 0.0
C635 C 0.56458 0.80471 0.76376 0.0
C636 C 0.54564 0.81077 0.76037 0.0
C637 C 0.56003 0.78091 0.75373 0.0
C638 C 0.52223 0.79303 0.74611 0.0
C639 C 0.51773 0.76947 0.73529 0.0
H640 H 0.73373 0.55283 0.72574 0.0
H641 H 0.69463 0.4726 0.71693 0.0
H642 H 0.73365 0.47385 0.7004 0.0
H643 H 0.77901 0.49789 0.69003 0.0
H644 H 0.81791 0.57803 0.70213 0.0
H645 H 0.77875 0.57662 0.71641 0.0
C646 C 0.73368 0.53563 0.71972 0.0
C647 C 0.71139 0.51268 0.72214 0.0
C648 C 0.75616 0.53646 0.71143 0.0
C649 C 0.71162 0.4905 0.715 0.0
C650 C 0.7339 0.49121 0.70575 0.0
C651 C 0.77892 0.51502 0.69599 0.0
C652 C 0.80132 0.53802 0.69508 0.0
C653 C 0.75632 0.51409 0.70428 0.0
C654 C 0.80093 0.56007 0.70284 0.0
C655 C 0.77854 0.55931 0.7108 0.0
H656 H 0.23994 0.82346 0.75643 0.0
H657 H 0.28669 0.79183 0.78029 0.0
H658 H 0.24969 0.75115 0.79187 0.0
H659 H 0.20408 0.72444 0.79305 0.0
H660 H 0.15762 0.75606 0.76626 0.0
H661 H 0.19458 0.79686 0.75723 0.0
C662 C 0.24202 0.80776 0.76479 0.0
C663 C 0.26591 0.81061 0.76792 0.0
C664 C 0.22076 0.78437 0.77011 0.0
C665 C 0.26841 0.79004 0.77798 0.0
C666 C 0.2473 0.76678 0.78434 0.0
C667 C 0.20205 0.74022 0.78496 0.0
C668 C 0.17816 0.73721 0.78022 0.0
C669 C 0.22338 0.76367 0.77993 0.0
C670 C 0.17582 0.75785 0.76992 0.0
C671 C 0.19693 0.78123 0.76498 0.0
H672 H 0.46077 0.26885 0.69663 0.0
H673 H 0.38208 0.21779 0.71257 0.0
H674 H 0.39081 0.18449 0.72828 0.0
H675 H 0.42077 0.17027 0.73847 0.0
H676 H 0.4996 0.2218 0.7257 0.0
H677 H 0.49077 0.25462 0.70685 0.0
C678 C 0.44551 0.25045 0.70362 0.0
C679 C 0.42081 0.24577 0.70354 0.0
C680 C 0.45067 0.2315 0.71268 0.0
C681 C 0.40125 0.22187 0.71269 0.0
C682 C 0.40622 0.20281 0.72144 0.0
C683 C 0.43602 0.18858 0.73101 0.0
C684 C 0.46079 0.19362 0.73312 0.0
C685 C 0.43084 0.20744 0.72147 0.0
C686 C 0.48038 0.21751 0.72406 0.0
C687 C 0.47534 0.23626 0.71352 0.0
H688 H 0.19304 0.48203 0.73803 0.0
H689 H 0.1526 0.40151 0.74066 0.0
H690 H 0.19045 0.40144 0.75953 0.0
H691 H 0.23502 0.42409 0.77368 0.0
H692 H 0.27549 0.50456 0.77329 0.0
H693 H 0.23754 0.50483 0.7547 0.0
C694 C 0.19248 0.46448 0.74299 0.0
C695 C 0.1701 0.44181 0.73786 0.0
C696 C 0.2143 0.46457 0.75378 0.0
C697 C 0.1696 0.41921 0.7445 0.0
C698 C 0.19125 0.41914 0.75509 0.0
C699 C 0.23558 0.4417 0.76927 0.0
C700 C 0.25801 0.46427 0.77437 0.0
C701 C 0.21371 0.44169 0.7594 0.0
C702 C 0.25841 0.48695 0.76928 0.0
C703 C 0.23675 0.4871 0.75877 0.0
H704 H 0.80647 0.24008 0.75723 0.0
H705 H 0.76724 0.28061 0.7413 0.0
H706 H 0.73102 0.24285 0.7169 0.0
H707 H 0.71086 0.19849 0.69998 0.0
H708 H 0.74994 0.15796 0.71828 0.0
H709 H 0.78591 0.19567 0.74254 0.0
C710 C 0.79007 0.24071 0.74813 0.0
C711 C 0.78955 0.26308 0.75056 0.0
C712 C 0.76928 0.21895 0.73501 0.0
C713 C 0.76805 0.26357 0.73941 0.0
C714 C 0.74737 0.24201 0.7256 0.0
C715 C 0.7272 0.19788 0.70949 0.0
C716 C 0.7278 0.17552 0.70725 0.0
C717 C 0.74779 0.2196 0.72336 0.0
C718 C 0.74902 0.17495 0.7198 0.0
C719 C 0.76963 0.19651 0.73348 0.0
H720 H 0.46011 0.13756 0.04236 0.0
H721 H 0.38104 0.09201 0.02307 0.0
H722 H 0.38701 0.1047 0.95667 0.0
H723 H 0.4158 0.12413 0.9031 0.0
H724 H 0.495 0.16853 0.92397 0.0
H725 H 0.48786 0.16129 -0.00876 0.0
C726 C 0.44414 0.13065 0.02366 0.0
C727 C 0.42029 0.11352 0.03696 0.0
C728 C 0.44779 0.13777 0.98599 0.0
C729 C 0.3996 0.1051 0.01305 0.0
C730 C 0.40305 0.11226 0.9752 0.0
C731 C 0.43141 0.13265 0.92248 0.0
C732 C 0.45594 0.14642 0.90866 0.0
C733 C 0.42721 0.12792 0.96114 0.0
C734 C 0.47599 0.15754 0.93399 0.0
C735 C 0.47195 0.15336 0.9724 0.0
H736 H 0.31825 0.47968 0.94863 0.0
H737 H 0.28129 0.40034 0.92951 0.0
H738 H 0.2755 0.39287 -0.00252 0.0
H739 H 0.28531 0.40955 0.06255 0.0
H740 H 0.32347 0.48928 0.07949 0.0
H741 H 0.32417 0.49595 0.01207 0.0
C742 C 0.30874 0.46072 0.95932 0.0
C743 C 0.30061 0.44061 0.93441 0.0
C744 C 0.30578 0.45668 -0.00198 0.0
C745 C 0.28785 0.41613 0.94838 0.0
C746 C 0.28463 0.41188 0.98717 0.0
C747 C 0.29334 0.4283 0.05138 0.0
C748 C 0.30466 0.44891 0.07574 0.0
C749 C 0.29413 0.43208 0.01232 0.0
C750 C 0.31499 0.47315 0.06112 0.0
C751 C 0.31542 0.47701 0.02262 0.0
H752 H 0.86565 0.28764 0.9259 0.0
H753 H 0.81137 0.31195 0.92714 0.0
H754 H 0.80763 0.3071 -0.00486 0.0
H755 H 0.82432 0.30228 0.05418 0.0
H756 H 0.88047 0.28054 0.05502 0.0
H757 H 0.8787 0.27755 0.98616 0.0
C758 C 0.85263 0.29129 0.94111 0.0
C759 C 0.83908 0.3005 0.92193 0.0
C760 C 0.85115 0.28921 0.98045 0.0
C761 C 0.82223 0.30519 0.94164 0.0
C762 C 0.8201 0.30246 0.98043 0.0
C763 C 0.83592 0.29654 0.03929 0.0
C764 C 0.85286 0.29216 0.05923 0.0
C765 C 0.83522 0.29551 0.00014 0.0
C766 C 0.86742 0.28419 0.03997 0.0
C767 C 0.8665 0.28263 0.00069 0.0
H768 H 0.58043 0.87413 0.06314 0.0
H769 H 0.49998 0.83037 0.05927 0.0
H770 H 0.50118 0.82857 -0.00897 0.0
H771 H 0.52445 0.84351 0.93281 0.0
H772 H 0.60467 0.88842 0.93494 0.0
H773 H 0.6043 0.88533 0.00376 0.0
C774 C 0.56322 0.8639 0.04734 0.0
C775 C 0.54013 0.85279 0.06606 0.0
C776 C 0.564 0.86328 0.00796 0.0
C777 C 0.51796 0.8394 0.04539 0.0
C778 C 0.51861 0.83834 0.0064 0.0
C779 C 0.54189 0.8524 0.94834 0.0
C780 C 0.5645 0.86654 0.92922 0.0
C781 C 0.54144 0.8509 0.98746 0.0
C782 C 0.58703 0.87754 0.94932 0.0
C783 C 0.58679 0.87589 0.98856 0.0
H784 H 0.68046 0.56518 0.01636 0.0
H785 H 0.63659 0.48586 0.03614 0.0
H786 H 0.63784 0.47766 0.96965 0.0
H787 H 0.64823 0.49274 0.90566 0.0
H788 H 0.69072 0.57178 0.88371 0.0
H789 H 0.69358 0.58041 0.95134 0.0
C790 C 0.67141 0.54615 0.00605 0.0
C791 C 0.65816 0.52619 0.03097 0.0
C792 C 0.6719 0.54151 0.96748 0.0
C793 C 0.6466 0.50158 0.0174 0.0
C794 C 0.64735 0.49684 0.9794 0.0
C795 C 0.65833 0.5119 0.91564 0.0
C796 C 0.66895 0.53161 0.88985 0.0
C797 C 0.65943 0.51663 0.95416 0.0
C798 C 0.68227 0.55628 0.90313 0.0
C799 C 0.68379 0.56119 0.94174 0.0
H800 H 0.10474 0.70257 0.94537 0.0
H801 H 0.14264 0.66026 0.93531 0.0
H802 H 0.15097 0.66417 0.00242 0.0
H803 H 0.14417 0.67591 0.06431 0.0
H804 H 0.10449 0.71624 0.07679 0.0
H805 H 0.10064 0.7173 0.00834 0.0
C806 C 0.11503 0.69448 0.95794 0.0
C807 C 0.12272 0.68083 0.93563 0.0
C808 C 0.1194 0.69639 -0.0031 0.0
C809 C 0.13615 0.6705 0.95207 0.0
C810 C 0.14101 0.67278 -0.00959 0.0
C811 C 0.13491 0.6852 0.05211 0.0
C812 C 0.12432 0.69564 0.07547 0.0
C813 C 0.13219 0.68511 0.01315 0.0
C814 C 0.11268 0.70791 0.05927 0.0
C815 C 0.11035 0.7084 0.0202 0.0
H816 H 0.87561 0.58512 0.52456 0.0
H817 H 0.83542 0.50512 0.53817 0.0
H818 H 0.82449 0.4996 0.47192 0.0
H819 H 0.83019 0.51691 0.40939 0.0
H820 H 0.87239 0.59653 0.3929 0.0
H821 H 0.87823 0.60289 0.46101 0.0
C822 C 0.8642 0.56658 0.51294 0.0
C823 C 0.85667 0.54556 0.53588 0.0
C824 C 0.85842 0.56346 0.47438 0.0
C825 C 0.84182 0.52157 0.52078 0.0
C826 C 0.83547 0.51837 0.48296 0.0
C827 C 0.8404 0.5357 0.42069 0.0
C828 C 0.85119 0.55617 0.3963 0.0
C829 C 0.84429 0.53911 0.45937 0.0
C830 C 0.86402 0.58043 0.41126 0.0
C831 C 0.8675 0.58406 0.45013 0.0
H832 H 0.32479 0.85012 0.58992 0.0
H833 H 0.28277 0.888 0.60342 0.0
H834 H 0.27839 0.88877 0.53494 0.0
H835 H 0.28996 0.88181 0.47116 0.0
H836 H 0.33384 0.84561 0.46002 0.0
H837 H 0.33402 0.84105 0.52782 0.0
C838 C 0.3145 0.85841 0.57798 0.0
C839 C 0.30441 0.86927 0.60153 0.0
C840 C 0.31257 0.85924 0.53901 0.0
C841 C 0.29081 0.87961 0.58571 0.0
C842 C 0.28841 0.88015 0.54663 0.0
C843 C 0.2993 0.87272 0.48368 0.0
C844 C 0.31211 0.86432 0.46076 0.0
C845 C 0.29973 0.87052 0.52296 0.0
C846 C 0.32413 0.85252 0.47717 0.0
C847 C 0.32422 0.84985 0.51591 0.0
H848 H 0.4357 0.29688 0.54392 0.0
H849 H 0.35715 0.272 0.53743 0.0
H850 H 0.358 0.26634 0.4691 0.0
H851 H 0.38269 0.2735 0.41077 0.0
H852 H 0.46157 0.29967 0.41953 0.0
H853 H 0.45894 0.29951 0.48774 0.0
C854 C 0.41869 0.29002 0.52758 0.0
C855 C 0.39653 0.28533 0.54521 0.0
C856 C 0.41945 0.28714 0.48884 0.0
C857 C 0.37447 0.27587 0.52414 0.0
C858 C 0.375 0.27276 0.48518 0.0
C859 C 0.39914 0.27869 0.42772 0.0
C860 C 0.42237 0.28697 0.41029 0.0
C861 C 0.3976 0.27905 0.46711 0.0
C862 C 0.44357 0.29359 0.43241 0.0
C863 C 0.44211 0.29353 0.47137 0.0
H864 H 0.09549 0.40002 0.5577 0.0
H865 H 0.1442 0.47949 0.56958 0.0
H866 H 0.14966 0.48392 0.50182 0.0
H867 H 0.13711 0.46624 0.43941 0.0
H868 H 0.08733 0.38723 0.42548 0.0
H869 H 0.08598 0.38148 0.4938 0.0
C870 C 0.10761 0.41817 0.54535 0.0
C871 C 0.11915 0.43944 0.56837 0.0
C872 C 0.11027 0.42071 0.5061 0.0
C873 C 0.13484 0.4629 0.55225 0.0
C874 C 0.13799 0.46548 0.51355 0.0
C875 C 0.12613 0.44771 0.45129 0.0
C876 C 0.11202 0.42728 0.42769 0.0
C877 C 0.12518 0.44467 0.49023 0.0
C878 C 0.09823 0.40329 0.44328 0.0
C879 C 0.09739 0.40002 0.48228 0.0
H880 H 0.69199 0.10985 0.39944 0.0
H881 H 0.66578 0.16261 0.40352 0.0
H882 H 0.67366 0.16789 0.4709 0.0
H883 H 0.68083 0.15213 0.52923 0.0
H884 H 0.70429 0.09732 0.52726 0.0
H885 H 0.70528 0.09857 0.45827 0.0
C886 C 0.68859 0.12291 0.41503 0.0
C887 C 0.67786 0.13545 0.39696 0.0
C888 C 0.69244 0.12527 0.45404 0.0
C889 C 0.67362 0.15244 0.41717 0.0
C890 C 0.67811 0.15547 0.45562 0.0
C891 C 0.68664 0.14084 0.51363 0.0
C892 C 0.69196 0.1243 0.53283 0.0
C893 C 0.68638 0.14112 0.47447 0.0
C894 C 0.69998 0.11009 0.51276 0.0
C895 C 0.70033 0.11066 0.47342 0.0
H896 H 0.5927 0.6974 0.43522 0.0
H897 H 0.51706 0.6818 0.42056 0.0
H898 H 0.51307 0.68562 0.48798 0.0
H899 H 0.52856 0.68678 0.55097 0.0
H900 H 0.60299 0.69945 0.56774 0.0
H901 H 0.61027 0.70385 0.49967 0.0
C902 C 0.57565 0.69549 0.4469 0.0
C903 C 0.55508 0.68905 0.42339 0.0
C904 C 0.57318 0.69684 0.48597 0.0
C905 C 0.53298 0.68647 0.43847 0.0
C906 C 0.53067 0.6886 0.47692 0.0
C907 C 0.54652 0.69088 0.53975 0.0
C908 C 0.56501 0.69228 0.56397 0.0
C909 C 0.55025 0.6927 0.50096 0.0
C910 C 0.58839 0.6981 0.54939 0.0
C911 C 0.5925 0.70048 0.51053 0.0
H912 H 0.48433 0.0925 0.22901 0.0
H913 H 0.5075 0.07283 0.12637 0.0
H914 H 0.54588 0.07985 0.15673 0.0
H915 H 0.57252 0.09085 0.21286 0.0
H916 H 0.54777 0.10726 0.31673 0.0
H917 H 0.51044 0.10249 0.28546 0.0
C918 C 0.49783 0.08982 0.2133 0.0
C919 C 0.49314 0.08223 0.17554 0.0
C920 C 0.51959 0.09341 0.23112 0.0
C921 C 0.51063 0.07855 0.15558 0.0
C922 C 0.53262 0.08266 0.17285 0.0
C923 C 0.55905 0.09363 0.22845 0.0
C924 C 0.56289 0.0996 0.26684 0.0
C925 C 0.53728 0.09005 0.21062 0.0
C926 C 0.54513 0.10268 0.28706 0.0
C927 C 0.52381 0.09993 0.26924 0.0
H928 H 0.45714 0.56586 0.32698 0.0
H929 H 0.49468 0.60294 0.22458 0.0
H930 H 0.46061 0.57067 0.18741 0.0
H931 H 0.42099 0.53134 0.18408 0.0
H932 H 0.38189 0.49532 0.28601 0.0
H933 H 0.41573 0.52793 0.32355 0.0
C934 C 0.45778 0.56684 0.29652 0.0
C935 C 0.47841 0.58654 0.27844 0.0
C936 C 0.43793 0.5485 0.27539 0.0
C937 C 0.47893 0.58792 0.23904 0.0
C938 C 0.45953 0.56947 0.21781 0.0
C939 C 0.41988 0.53068 0.21453 0.0
C940 C 0.39923 0.51092 0.23239 0.0
C941 C 0.43908 0.54959 0.2357 0.0
C942 C 0.39769 0.51042 0.27176 0.0
C943 C 0.41703 0.52897 0.29316 0.0
H944 H 0.86687 0.44775 0.30282 0.0
H945 H 0.86911 0.48645 0.20071 0.0
H946 H 0.86911 0.45337 0.16333 0.0
H947 H 0.87017 0.4144 0.15973 0.0
H948 H 0.86625 0.3747 0.26148 0.0
H949 H 0.86502 0.40718 0.29899 0.0
C950 C 0.8673 0.4489 0.27238 0.0
C951 C 0.86822 0.46961 0.25456 0.0
C952 C 0.867 0.42968 0.25105 0.0
C953 C 0.86839 0.47069 0.2151 0.0
C954 C 0.86847 0.45183 0.19371 0.0
C955 C 0.86896 0.41281 0.19012 0.0
C956 C 0.86854 0.39232 0.20785 0.0
C957 C 0.86803 0.43139 0.2114 0.0
C958 C 0.86659 0.3903 0.24719 0.0
C959 C 0.86599 0.40891 0.26864 0.0
H960 H 0.43825 0.87 0.1837 0.0
H961 H 0.48645 0.87724 0.27639 0.0
H962 H 0.4582 0.88112 0.32019 0.0
H963 H 0.42093 0.88454 0.33167 0.0
H964 H 0.37156 0.87515 0.23967 0.0
H965 H 0.39917 0.87002 0.19594 0.0
C966 C 0.44246 0.87225 0.21353 0.0
C967 C 0.46447 0.87352 0.22678 0.0
C968 C 0.42604 0.87424 0.23857 0.0
C969 C 0.46957 0.87613 0.26552 0.0
C970 C 0.45352 0.87849 0.29055 0.0
C971 C 0.41623 0.88133 0.30204 0.0
C972 C 0.39446 0.88051 0.28874 0.0
C973 C 0.43191 0.87794 0.2773 0.0
C974 C 0.38828 0.8759 0.25047 0.0
C975 C 0.40406 0.87301 0.22549 0.0
H976 H 0.55511 0.43792 0.1554 0.0
H977 H 0.59456 0.48144 0.25262 0.0
H978 H 0.56581 0.44747 0.29399 0.0
H979 H 0.52768 0.40661 0.30207 0.0
H980 H 0.48967 0.36262 0.20423 0.0
H981 H 0.51993 0.3955 0.16337 0.0
C982 C 0.55746 0.43988 0.18567 0.0
C983 C 0.57657 0.46218 0.20112 0.0
C984 C 0.54118 0.42024 0.20903 0.0
C985 C 0.57986 0.46441 0.24024 0.0
C986 C 0.56341 0.44505 0.26381 0.0
C987 C 0.5262 0.40414 0.2718 0.0
C988 C 0.50631 0.38235 0.25616 0.0
C989 C 0.54375 0.42306 0.24848 0.0
C990 C 0.5048 0.37921 0.21696 0.0
C991 C 0.522 0.39805 0.19357 0.0
H992 H 0.11113 0.57384 0.17692 0.0
H993 H 0.10677 0.61173 0.27601 0.0
H994 H 0.10544 0.57892 0.31571 0.0
H995 H 0.10325 0.53839 0.322 0.0
H996 H 0.10898 0.50115 0.22315 0.0
H997 H 0.11219 0.5349 0.18363 0.0
C998 C 0.11002 0.57499 0.20722 0.0
C999 C 0.10881 0.59508 0.22346 0.0
C1000 C 0.10943 0.55615 0.22989 0.0
C1001 C 0.10772 0.59647 0.26279 0.0
C1002 C 0.10686 0.57767 0.28551 0.0
C1003 C 0.10531 0.53771 0.29182 0.0
C1004 C 0.10562 0.51717 0.2755 0.0
C1005 C 0.10734 0.55725 0.26932 0.0
C1006 C 0.10867 0.51674 0.23641 0.0
C1007 C 0.11042 0.53598 0.21378 0.0
H1008 H 0.4681 0.89187 0.83417 0.0
H1009 H 0.50197 0.88896 0.72976 0.0
H1010 H 0.46683 0.88652 0.69465 0.0
H1011 H 0.42733 0.88679 0.69374 0.0
H1012 H 0.39235 0.88744 0.79828 0.0
H1013 H 0.42704 0.88893 0.83343 0.0
C1014 C 0.46773 0.89068 0.80372 0.0
C1015 C 0.48763 0.89087 0.78446 0.0
C1016 C 0.44731 0.88882 0.78387 0.0
C1017 C 0.48682 0.88886 0.74511 0.0
C1018 C 0.46679 0.88753 0.72507 0.0
C1019 C 0.42727 0.88714 0.72423 0.0
C1020 C 0.40749 0.88722 0.74344 0.0
C1021 C 0.44707 0.88771 0.74416 0.0
C1022 C 0.40739 0.8873 0.78292 0.0
C1023 C 0.42725 0.88829 0.80299 0.0
H1024 H 0.54392 0.42659 0.79073 0.0
H1025 H 0.5846 0.46163 0.6893 0.0
H1026 H 0.54883 0.43259 0.65132 0.0
H1027 H 0.50503 0.39905 0.64724 0.0
H1028 H 0.46514 0.36276 0.74855 0.0
H1029 H 0.5016 0.39057 0.78642 0.0
C1030 C 0.54503 0.42769 0.76029 0.0
C1031 C 0.56673 0.44633 0.74281 0.0
C1032 C 0.52449 0.41091 0.7387 0.0
C1033 C 0.56809 0.44738 0.70338 0.0
C1034 C 0.5476 0.43091 0.68167 0.0
C1035 C 0.50441 0.39726 0.67761 0.0
C1036 C 0.48244 0.37921 0.69522 0.0
C1037 C 0.52555 0.41294 0.69907 0.0
C1038 C 0.4819 0.37663 0.73447 0.0
C1039 C 0.50268 0.39251 0.7561 0.0
H1040 H 0.10074 0.56775 0.82172 0.0
H1041 H 0.10808 0.61047 0.722 0.0
H1042 H 0.10831 0.57801 0.68293 0.0
H1043 H 0.10327 0.53613 0.67721 0.0
H1044 H 0.09818 0.49452 0.77726 0.0
H1045 H 0.10035 0.52804 0.81642 0.0
C1046 C 0.10262 0.57001 0.79144 0.0
C1047 C 0.10409 0.5912 0.77457 0.0
C1048 C 0.10299 0.55148 0.76938 0.0
C1049 C 0.10694 0.59425 0.73547 0.0
C1050 C 0.10692 0.57566 0.71318 0.0
C1051 C 0.10281 0.53454 0.70761 0.0
C1052 C 0.10025 0.51288 0.72447 0.0
C1053 C 0.10445 0.55399 0.72982 0.0
C1054 C 0.10012 0.51108 0.76379 0.0
C1055 C 0.10126 0.53016 0.78612 0.0
H1056 H 0.60982 0.11663 0.72514 0.0
H1057 H 0.56615 0.10001 0.62356 0.0
H1058 H 0.53635 0.10849 0.65575 0.0
H1059 H 0.52176 0.11897 0.71354 0.0
H1060 H 0.56376 0.13238 0.81611 0.0
H1061 H 0.59536 0.12718 0.78269 0.0
C1062 C 0.59385 0.11498 0.71 0.0
C1063 C 0.59019 0.10767 0.67206 0.0
C1064 C 0.57656 0.11943 0.72884 0.0
C1065 C 0.5693 0.10543 0.65289 0.0
C1066 C 0.5523 0.11037 0.67121 0.0
C1067 C 0.53805 0.12113 0.72834 0.0
C1068 C 0.54061 0.12623 0.76706 0.0
C1069 C 0.55564 0.11722 0.70925 0.0
C1070 C 0.56149 0.1285 0.78622 0.0
C1071 C 0.57949 0.12546 0.76719 0.0
H1072 H 0.38472 0.52078 0.73774 0.0
H1073 H 0.42537 0.54452 0.84228 0.0
H1074 H 0.45958 0.58039 0.8109 0.0
H1075 H 0.47936 0.6031 0.7529 0.0
H1076 H 0.4405 0.57714 0.64731 0.0
H1077 H 0.40411 0.54424 0.67986 0.0
C1078 C 0.40094 0.53401 0.75367 0.0
C1079 C 0.40258 0.53004 0.79219 0.0
C1080 C 0.4209 0.55414 0.73521 0.0
C1081 C 0.4238 0.54713 0.8125 0.0
C1082 C 0.44334 0.56765 0.79461 0.0
C1083 C 0.46275 0.59049 0.73715 0.0
C1084 C 0.46253 0.59254 0.69786 0.0
C1085 C 0.4423 0.57108 0.75585 0.0
C1086 C 0.44107 0.57585 0.67763 0.0
C1087 C 0.4203 0.55703 0.69619 0.0
H1088 H 0.86998 0.39422 0.72818 0.0
H1089 H 0.86233 0.42521 0.83249 0.0
H1090 H 0.86492 0.4609 0.79879 0.0
H1091 H 0.87179 0.48435 0.73995 0.0
H1092 H 0.88385 0.45523 0.63686 0.0
H1093 H 0.87713 0.41771 0.66965 0.0
C1094 C 0.86853 0.40865 0.74336 0.0
C1095 C 0.86577 0.40714 0.78254 0.0
C1096 C 0.87106 0.4295 0.72404 0.0
C1097 C 0.86443 0.4261 0.8022 0.0
C1098 C 0.86595 0.44647 0.78299 0.0
C1099 C 0.87273 0.46966 0.72473 0.0
C1100 C 0.87825 0.47241 0.68618 0.0
C1101 C 0.86964 0.44854 0.74398 0.0
C1102 C 0.87977 0.45349 0.66668 0.0
C1103 C 0.87586 0.43204 0.68534 0.0
loop_
_geom_bond_atom_site_label_1
_geom_bond_atom_site_label_2
_geom_bond_distance
_geom_bond_site_symmetry_2
_ccdc_geom_bond_type
C0 O1 1.306 . S
C0 O3 1.160 . S
O1 C0 1.306 . S
O1 Cd2 2.228 . S
Cd2 O1 2.228 . S
Cd2 O6 2.273 . S
Cd2 O10 2.277 . S
O3 C0 1.160 . S
O3 Cd4 2.203 . S
Cd4 O3 2.203 . S
Cd4 O6 2.411 . S
Cd4 O7 2.333 . S
Cd4 O8 2.352 . S
Cd4 O12 2.277 . S
Cd4 O13 2.356 . S
C5 O10 1.209 . S
C5 O12 1.226 . S
O6 Cd2 2.273 . S
O6 Cd4 2.411 . S
O6 C9 1.320 . S
O7 Cd4 2.333 . S
O7 C9 1.214 . S
O8 Cd4 2.352 . S
O8 C11 1.258 . S
C9 O6 1.320 . S
C9 O7 1.214 . S
O10 Cd2 2.277 . S
O10 C5 1.209 . S
C11 O8 1.258 . S
C11 O13 1.282 . S
O12 Cd4 2.277 . S
O12 C5 1.226 . S
O13 Cd4 2.356 . S
O13 C11 1.282 . S
C14 O15 1.306 . S
C14 O17 1.160 . S
O15 C14 1.306 . S
O15 Cd16 2.228 . S
Cd16 O15 2.228 . S
Cd16 O20 2.273 . S
Cd16 O24 2.277 . S
O17 C14 1.160 . S
O17 Cd18 2.203 . S
Cd18 O17 2.203 . S
Cd18 O20 2.411 . S
Cd18 O21 2.333 . S
Cd18 O22 2.352 . S
Cd18 O26 2.277 . S
Cd18 O27 2.356 . S
C19 O24 1.209 . S
C19 O26 1.226 . S
O20 Cd16 2.273 . S
O20 Cd18 2.411 . S
O20 C23 1.320 . S
O21 Cd18 2.333 . S
O21 C23 1.214 . S
O22 Cd18 2.352 . S
O22 C25 1.258 . S
C23 O20 1.320 . S
C23 O21 1.214 . S
O24 Cd16 2.277 . S
O24 C19 1.209 . S
C25 O22 1.258 . S
C25 O27 1.282 . S
O26 Cd18 2.277 . S
O26 C19 1.226 . S
O27 Cd18 2.356 . S
O27 C25 1.282 . S
C28 O29 1.306 . S
C28 O31 1.160 . S
O29 C28 1.306 . S
O29 Cd30 2.228 . S
Cd30 O29 2.228 . S
Cd30 O34 2.273 . S
Cd30 O38 2.277 . S
O31 C28 1.160 . S
O31 Cd32 2.203 . S
Cd32 O31 2.203 . S
Cd32 O34 2.411 . S
Cd32 O35 2.333 . S
Cd32 O36 2.352 . S
Cd32 O40 2.277 . S
Cd32 O41 2.356 . S
C33 O38 1.209 . S
C33 O40 1.226 . S
O34 Cd30 2.273 . S
O34 Cd32 2.411 . S
O34 C37 1.320 . S
O35 Cd32 2.333 . S
O35 C37 1.214 . S
O36 Cd32 2.352 . S
O36 C39 1.258 . S
C37 O34 1.320 . S
C37 O35 1.214 . S
O38 Cd30 2.277 . S
O38 C33 1.209 . S
C39 O36 1.258 . S
C39 O41 1.282 . S
O40 Cd32 2.277 . S
O40 C33 1.226 . S
O41 Cd32 2.356 . S
O41 C39 1.282 . S
C42 O43 1.306 . S
C42 O45 1.160 . S
O43 C42 1.306 . S
O43 Cd44 2.228 . S
Cd44 O43 2.228 . S
Cd44 O48 2.273 . S
Cd44 O52 2.277 . S
O45 C42 1.160 . S
O45 Cd46 2.203 . S
Cd46 O45 2.203 . S
Cd46 O48 2.411 . S
Cd46 O49 2.333 . S
Cd46 O50 2.352 . S
Cd46 O54 2.277 . S
Cd46 O55 2.356 . S
C47 O52 1.209 . S
C47 O54 1.226 . S
O48 Cd44 2.273 . S
O48 Cd46 2.411 . S
O48 C51 1.320 . S
O49 Cd46 2.333 . S
O49 C51 1.214 . S
O50 Cd46 2.352 . S
O50 C53 1.258 . S
C51 O48 1.320 . S
C51 O49 1.214 . S
O52 Cd44 2.277 . S
O52 C47 1.209 . S
C53 O50 1.258 . S
C53 O55 1.282 . S
O54 Cd46 2.277 . S
O54 C47 1.226 . S
O55 Cd46 2.356 . S
O55 C53 1.282 . S
C56 O57 1.306 . S
C56 O59 1.160 . S
O57 C56 1.306 . S
O57 Cd58 2.228 . S
Cd58 O57 2.228 . S
Cd58 O62 2.273 . S
Cd58 O66 2.277 . S
O59 C56 1.160 . S
O59 Cd60 2.203 . S
Cd60 O59 2.203 . S
Cd60 O62 2.411 . S
Cd60 O63 2.333 . S
Cd60 O64 2.352 . S
Cd60 O68 2.277 . S
Cd60 O69 2.356 . S
C61 O66 1.209 . S
C61 O68 1.226 . S
O62 Cd58 2.273 . S
O62 Cd60 2.411 . S
O62 C65 1.320 . S
O63 Cd60 2.333 . S
O63 C65 1.214 . S
O64 Cd60 2.352 . S
O64 C67 1.258 . S
C65 O62 1.320 . S
C65 O63 1.214 . S
O66 Cd58 2.277 . S
O66 C61 1.209 . S
C67 O64 1.258 . S
C67 O69 1.282 . S
O68 Cd60 2.277 . S
O68 C61 1.226 . S
O69 Cd60 2.356 . S
O69 C67 1.282 . S
C70 O71 1.306 . S
C70 O73 1.160 . S
O71 C70 1.306 . S
O71 Cd72 2.228 . S
Cd72 O71 2.228 . S
Cd72 O76 2.273 . S
Cd72 O80 2.277 . S
O73 C70 1.160 . S
O73 Cd74 2.203 . S
Cd74 O73 2.203 . S
Cd74 O76 2.411 . S
Cd74 O77 2.333 . S
Cd74 O78 2.352 . S
Cd74 O82 2.277 . S
Cd74 O83 2.356 . S
C75 O80 1.209 . S
C75 O82 1.226 . S
O76 Cd72 2.273 . S
O76 Cd74 2.411 . S
O76 C79 1.320 . S
O77 Cd74 2.333 . S
O77 C79 1.214 . S
O78 Cd74 2.352 . S
O78 C81 1.258 . S
C79 O76 1.320 . S
C79 O77 1.214 . S
O80 Cd72 2.277 . S
O80 C75 1.209 . S
C81 O78 1.258 . S
C81 O83 1.282 . S
O82 Cd74 2.277 . S
O82 C75 1.226 . S
O83 Cd74 2.356 . S
O83 C81 1.282 . S
C84 O85 1.306 . S
C84 O87 1.160 . S
O85 C84 1.306 . S
O85 Cd86 2.228 . S
Cd86 O85 2.228 . S
Cd86 O90 2.273 . S
Cd86 O94 2.277 . S
O87 C84 1.160 . S
O87 Cd88 2.203 . S
Cd88 O87 2.203 . S
Cd88 O90 2.411 . S
Cd88 O91 2.333 . S
Cd88 O92 2.352 . S
Cd88 O96 2.277 . S
Cd88 O97 2.356 . S
C89 O94 1.209 . S
C89 O96 1.226 . S
O90 Cd86 2.273 . S
O90 Cd88 2.411 . S
O90 C93 1.320 . S
O91 Cd88 2.333 . S
O91 C93 1.214 . S
O92 Cd88 2.352 . S
O92 C95 1.258 . S
C93 O90 1.320 . S
C93 O91 1.214 . S
O94 Cd86 2.277 . S
O94 C89 1.209 . S
C95 O92 1.258 . S
C95 O97 1.282 . S
O96 Cd88 2.277 . S
O96 C89 1.226 . S
O97 Cd88 2.356 . S
O97 C95 1.282 . S
C98 O99 1.306 . S
C98 O101 1.160 . S
O99 C98 1.306 . S
O99 Cd100 2.228 . S
Cd100 O99 2.228 . S
Cd100 O104 2.273 . S
Cd100 O108 2.277 . S
O101 C98 1.160 . S
O101 Cd102 2.203 . S
Cd102 O101 2.203 . S
Cd102 O104 2.411 . S
Cd102 O105 2.333 . S
Cd102 O106 2.352 . S
Cd102 O110 2.277 . S
Cd102 O111 2.356 . S
C103 O108 1.209 . S
C103 O110 1.226 . S
O104 Cd100 2.273 . S
O104 Cd102 2.411 . S
O104 C107 1.320 . S
O105 Cd102 2.333 . S
O105 C107 1.214 . S
O106 Cd102 2.352 . S
O106 C109 1.258 . S
C107 O104 1.320 . S
C107 O105 1.214 . S
O108 Cd100 2.277 . S
O108 C103 1.209 . S
C109 O106 1.258 . S
C109 O111 1.282 . S
O110 Cd102 2.277 . S
O110 C103 1.226 . S
O111 Cd102 2.356 . S
O111 C109 1.282 . S
C112 O113 1.306 . S
C112 O115 1.160 . S
O113 C112 1.306 . S
O113 Cd114 2.228 . S
Cd114 O113 2.228 . S
Cd114 O118 2.273 . S
Cd114 O122 2.277 . S
O115 C112 1.160 . S
O115 Cd116 2.203 . S
Cd116 O115 2.203 . S
Cd116 O118 2.411 . S
Cd116 O119 2.333 . S
Cd116 O120 2.352 . S
Cd116 O124 2.277 . S
Cd116 O125 2.356 . S
C117 O122 1.209 . S
C117 O124 1.226 . S
O118 Cd114 2.273 . S
O118 Cd116 2.411 . S
O118 C121 1.320 . S
O119 Cd116 2.333 . S
O119 C121 1.214 . S
O120 Cd116 2.352 . S
O120 C123 1.258 . S
C121 O118 1.320 . S
C121 O119 1.214 . S
O122 Cd114 2.277 . S
O122 C117 1.209 . S
C123 O120 1.258 . S
C123 O125 1.282 . S
O124 Cd116 2.277 . S
O124 C117 1.226 . S
O125 Cd116 2.356 . S
O125 C123 1.282 . S
C126 O127 1.306 . S
C126 O129 1.160 . S
O127 C126 1.306 . S
O127 Cd128 2.228 . S
Cd128 O127 2.228 . S
Cd128 O132 2.273 . S
Cd128 O136 2.277 . S
O129 C126 1.160 . S
O129 Cd130 2.203 . S
Cd130 O129 2.203 . S
Cd130 O132 2.411 . S
Cd130 O133 2.333 . S
Cd130 O134 2.352 . S
Cd130 O138 2.277 . S
Cd130 O139 2.356 . S
C131 O136 1.209 . S
C131 O138 1.226 . S
O132 Cd128 2.273 . S
O132 Cd130 2.411 . S
O132 C135 1.320 . S
O133 Cd130 2.333 . S
O133 C135 1.214 . S
O134 Cd130 2.352 . S
O134 C137 1.258 . S
C135 O132 1.320 . S
C135 O133 1.214 . S
O136 Cd128 2.277 . S
O136 C131 1.209 . S
C137 O134 1.258 . S
C137 O139 1.282 . S
O138 Cd130 2.277 . S
O138 C131 1.226 . S
O139 Cd130 2.356 . S
O139 C137 1.282 . S
C140 O141 1.306 . S
C140 O143 1.160 . S
O141 C140 1.306 . S
O141 Cd142 2.228 . S
Cd142 O141 2.228 . S
Cd142 O146 2.273 . S
Cd142 O150 2.277 . S
O143 C140 1.160 . S
O143 Cd144 2.203 . S
Cd144 O143 2.203 . S
Cd144 O146 2.411 . S
Cd144 O147 2.333 . S
Cd144 O148 2.352 . S
Cd144 O152 2.277 . S
Cd144 O153 2.356 . S
C145 O150 1.209 . S
C145 O152 1.226 . S
O146 Cd142 2.273 . S
O146 Cd144 2.411 . S
O146 C149 1.320 . S
O147 Cd144 2.333 . S
O147 C149 1.214 . S
O148 Cd144 2.352 . S
O148 C151 1.258 . S
C149 O146 1.320 . S
C149 O147 1.214 . S
O150 Cd142 2.277 . S
O150 C145 1.209 . S
C151 O148 1.258 . S
C151 O153 1.282 . S
O152 Cd144 2.277 . S
O152 C145 1.226 . S
O153 Cd144 2.356 . S
O153 C151 1.282 . S
C154 O155 1.306 . S
C154 O157 1.160 . S
O155 C154 1.306 . S
O155 Cd156 2.228 . S
Cd156 O155 2.228 . S
Cd156 O160 2.273 . S
Cd156 O164 2.277 . S
O157 C154 1.160 . S
O157 Cd158 2.203 . S
Cd158 O157 2.203 . S
Cd158 O160 2.411 . S
Cd158 O161 2.333 . S
Cd158 O162 2.352 . S
Cd158 O166 2.277 . S
Cd158 O167 2.356 . S
C159 O164 1.209 . S
C159 O166 1.226 . S
O160 Cd156 2.273 . S
O160 Cd158 2.411 . S
O160 C163 1.320 . S
O161 Cd158 2.333 . S
O161 C163 1.214 . S
O162 Cd158 2.352 . S
O162 C165 1.258 . S
C163 O160 1.320 . S
C163 O161 1.214 . S
O164 Cd156 2.277 . S
O164 C159 1.209 . S
C165 O162 1.258 . S
C165 O167 1.282 . S
O166 Cd158 2.277 . S
O166 C159 1.226 . S
O167 Cd158 2.356 . S
O167 C165 1.282 . S
C168 O169 1.306 . S
C168 O171 1.160 . S
O169 C168 1.306 . S
O169 Cd170 2.228 . S
Cd170 O169 2.228 . S
Cd170 O174 2.273 . S
Cd170 O178 2.277 . S
O171 C168 1.160 . S
O171 Cd172 2.203 . S
Cd172 O171 2.203 . S
Cd172 O174 2.411 . S
Cd172 O175 2.333 . S
Cd172 O176 2.352 . S
Cd172 O180 2.277 . S
Cd172 O181 2.356 . S
C173 O178 1.209 . S
C173 O180 1.226 . S
O174 Cd170 2.273 . S
O174 Cd172 2.411 . S
O174 C177 1.320 . S
O175 Cd172 2.333 . S
O175 C177 1.214 . S
O176 Cd172 2.352 . S
O176 C179 1.258 . S
C177 O174 1.320 . S
C177 O175 1.214 . S
O178 Cd170 2.277 . S
O178 C173 1.209 . S
C179 O176 1.258 . S
C179 O181 1.282 . S
O180 Cd172 2.277 . S
O180 C173 1.226 . S
O181 Cd172 2.356 . S
O181 C179 1.282 . S
C182 O183 1.306 . S
C182 O185 1.160 . S
O183 C182 1.306 . S
O183 Cd184 2.228 . S
Cd184 O183 2.228 . S
Cd184 O188 2.273 . S
Cd184 O192 2.277 . S
O185 C182 1.160 . S
O185 Cd186 2.203 . S
Cd186 O185 2.203 . S
Cd186 O188 2.411 . S
Cd186 O189 2.333 . S
Cd186 O190 2.352 . S
Cd186 O194 2.277 . S
Cd186 O195 2.356 . S
C187 O192 1.209 . S
C187 O194 1.226 . S
O188 Cd184 2.273 . S
O188 Cd186 2.411 . S
O188 C191 1.320 . S
O189 Cd186 2.333 . S
O189 C191 1.214 . S
O190 Cd186 2.352 . S
O190 C193 1.258 . S
C191 O188 1.320 . S
C191 O189 1.214 . S
O192 Cd184 2.277 . S
O192 C187 1.209 . S
C193 O190 1.258 . S
C193 O195 1.282 . S
O194 Cd186 2.277 . S
O194 C187 1.226 . S
O195 Cd186 2.356 . S
O195 C193 1.282 . S
C196 O197 1.306 . S
C196 O199 1.160 . S
O197 C196 1.306 . S
O197 Cd198 2.228 . S
Cd198 O197 2.228 . S
Cd198 O202 2.273 . S
Cd198 O206 2.277 . S
O199 C196 1.160 . S
O199 Cd200 2.203 . S
Cd200 O199 2.203 . S
Cd200 O202 2.411 . S
Cd200 O203 2.333 . S
Cd200 O204 2.352 . S
Cd200 O208 2.277 . S
Cd200 O209 2.356 . S
C201 O206 1.209 . S
C201 O208 1.226 . S
O202 Cd198 2.273 . S
O202 Cd200 2.411 . S
O202 C205 1.320 . S
O203 Cd200 2.333 . S
O203 C205 1.214 . S
O204 Cd200 2.352 . S
O204 C207 1.258 . S
C205 O202 1.320 . S
C205 O203 1.214 . S
O206 Cd198 2.277 . S
O206 C201 1.209 . S
C207 O204 1.258 . S
C207 O209 1.282 . S
O208 Cd200 2.277 . S
O208 C201 1.226 . S
O209 Cd200 2.356 . S
O209 C207 1.282 . S
C210 O211 1.306 . S
C210 O213 1.160 . S
O211 C210 1.306 . S
O211 Cd212 2.228 . S
Cd212 O211 2.228 . S
Cd212 O216 2.273 . S
Cd212 O220 2.277 . S
O213 C210 1.160 . S
O213 Cd214 2.203 . S
Cd214 O213 2.203 . S
Cd214 O216 2.411 . S
Cd214 O217 2.333 . S
Cd214 O218 2.352 . S
Cd214 O222 2.277 . S
Cd214 O223 2.356 . S
C215 O220 1.209 . S
C215 O222 1.226 . S
O216 Cd212 2.273 . S
O216 Cd214 2.411 . S
O216 C219 1.320 . S
O217 Cd214 2.333 . S
O217 C219 1.214 . S
O218 Cd214 2.352 . S
O218 C221 1.258 . S
C219 O216 1.320 . S
C219 O217 1.214 . S
O220 Cd212 2.277 . S
O220 C215 1.209 . S
C221 O218 1.258 . S
C221 O223 1.282 . S
O222 Cd214 2.277 . S
O222 C215 1.226 . S
O223 Cd214 2.356 . S
O223 C221 1.282 . S
C224 O225 1.306 . S
C224 O227 1.160 . S
O225 C224 1.306 . S
O225 Cd226 2.228 . S
Cd226 O225 2.228 . S
Cd226 O230 2.273 . S
Cd226 O234 2.277 . S
O227 C224 1.160 . S
O227 Cd228 2.203 . S
Cd228 O227 2.203 . S
Cd228 O230 2.411 . S
Cd228 O231 2.333 . S
Cd228 O232 2.352 . S
Cd228 O236 2.277 . S
Cd228 O237 2.356 . S
C229 O234 1.209 . S
C229 O236 1.226 . S
O230 Cd226 2.273 . S
O230 Cd228 2.411 . S
O230 C233 1.320 . S
O231 Cd228 2.333 . S
O231 C233 1.214 . S
O232 Cd228 2.352 . S
O232 C235 1.258 . S
C233 O230 1.320 . S
C233 O231 1.214 . S
O234 Cd226 2.277 . S
O234 C229 1.209 . S
C235 O232 1.258 . S
C235 O237 1.282 . S
O236 Cd228 2.277 . S
O236 C229 1.226 . S
O237 Cd228 2.356 . S
O237 C235 1.282 . S
C238 O239 1.306 . S
C238 O241 1.160 . S
O239 C238 1.306 . S
O239 Cd240 2.228 . S
Cd240 O239 2.228 . S
Cd240 O244 2.273 . S
Cd240 O248 2.277 . S
O241 C238 1.160 . S
O241 Cd242 2.203 . S
Cd242 O241 2.203 . S
Cd242 O244 2.411 . S
Cd242 O245 2.333 . S
Cd242 O246 2.352 . S
Cd242 O250 2.277 . S
Cd242 O251 2.356 . S
C243 O248 1.209 . S
C243 O250 1.226 . S
O244 Cd240 2.273 . S
O244 Cd242 2.411 . S
O244 C247 1.320 . S
O245 Cd242 2.333 . S
O245 C247 1.214 . S
O246 Cd242 2.352 . S
O246 C249 1.258 . S
C247 O244 1.320 . S
C247 O245 1.214 . S
O248 Cd240 2.277 . S
O248 C243 1.209 . S
C249 O246 1.258 . S
C249 O251 1.282 . S
O250 Cd242 2.277 . S
O250 C243 1.226 . S
O251 Cd242 2.356 . S
O251 C249 1.282 . S
C252 O253 1.306 . S
C252 O255 1.160 . S
O253 C252 1.306 . S
O253 Cd254 2.228 . S
Cd254 O253 2.228 . S
Cd254 O258 2.273 . S
Cd254 O262 2.277 . S
O255 C252 1.160 . S
O255 Cd256 2.203 . S
Cd256 O255 2.203 . S
Cd256 O258 2.411 . S
Cd256 O259 2.333 . S
Cd256 O260 2.352 . S
Cd256 O264 2.277 . S
Cd256 O265 2.356 . S
C257 O262 1.209 . S
C257 O264 1.226 . S
O258 Cd254 2.273 . S
O258 Cd256 2.411 . S
O258 C261 1.320 . S
O259 Cd256 2.333 . S
O259 C261 1.214 . S
O260 Cd256 2.352 . S
O260 C263 1.258 . S
C261 O258 1.320 . S
C261 O259 1.214 . S
O262 Cd254 2.277 . S
O262 C257 1.209 . S
C263 O260 1.258 . S
C263 O265 1.282 . S
O264 Cd256 2.277 . S
O264 C257 1.226 . S
O265 Cd256 2.356 . S
O265 C263 1.282 . S
C266 O267 1.306 . S
C266 O269 1.160 . S
O267 C266 1.306 . S
O267 Cd268 2.228 . S
Cd268 O267 2.228 . S
Cd268 O272 2.273 . S
Cd268 O276 2.277 . S
O269 C266 1.160 . S
O269 Cd270 2.203 . S
Cd270 O269 2.203 . S
Cd270 O272 2.411 . S
Cd270 O273 2.333 . S
Cd270 O274 2.352 . S
Cd270 O278 2.277 . S
Cd270 O279 2.356 . S
C271 O276 1.209 . S
C271 O278 1.226 . S
O272 Cd268 2.273 . S
O272 Cd270 2.411 . S
O272 C275 1.320 . S
O273 Cd270 2.333 . S
O273 C275 1.214 . S
O274 Cd270 2.352 . S
O274 C277 1.258 . S
C275 O272 1.320 . S
C275 O273 1.214 . S
O276 Cd268 2.277 . S
O276 C271 1.209 . S
C277 O274 1.258 . S
C277 O279 1.282 . S
O278 Cd270 2.277 . S
O278 C271 1.226 . S
O279 Cd270 2.356 . S
O279 C277 1.282 . S
C280 O281 1.306 . S
C280 O283 1.160 . S
O281 C280 1.306 . S
O281 Cd282 2.228 . S
Cd282 O281 2.228 . S
Cd282 O286 2.273 . S
Cd282 O290 2.277 . S
O283 C280 1.160 . S
O283 Cd284 2.203 . S
Cd284 O283 2.203 . S
Cd284 O286 2.411 . S
Cd284 O287 2.333 . S
Cd284 O288 2.352 . S
Cd284 O292 2.277 . S
Cd284 O293 2.356 . S
C285 O290 1.209 . S
C285 O292 1.226 . S
O286 Cd282 2.273 . S
O286 Cd284 2.411 . S
O286 C289 1.320 . S
O287 Cd284 2.333 . S
O287 C289 1.214 . S
O288 Cd284 2.352 . S
O288 C291 1.258 . S
C289 O286 1.320 . S
C289 O287 1.214 . S
O290 Cd282 2.277 . S
O290 C285 1.209 . S
C291 O288 1.258 . S
C291 O293 1.282 . S
O292 Cd284 2.277 . S
O292 C285 1.226 . S
O293 Cd284 2.356 . S
O293 C291 1.282 . S
C294 O295 1.306 . S
C294 O297 1.160 . S
O295 C294 1.306 . S
O295 Cd296 2.228 . S
Cd296 O295 2.228 . S
Cd296 O300 2.273 . S
Cd296 O304 2.277 . S
O297 C294 1.160 . S
O297 Cd298 2.203 . S
Cd298 O297 2.203 . S
Cd298 O300 2.411 . S
Cd298 O301 2.333 . S
Cd298 O302 2.352 . S
Cd298 O306 2.277 . S
Cd298 O307 2.356 . S
C299 O304 1.209 . S
C299 O306 1.226 . S
O300 Cd296 2.273 . S
O300 Cd298 2.411 . S
O300 C303 1.320 . S
O301 Cd298 2.333 . S
O301 C303 1.214 . S
O302 Cd298 2.352 . S
O302 C305 1.258 . S
C303 O300 1.320 . S
C303 O301 1.214 . S
O304 Cd296 2.277 . S
O304 C299 1.209 . S
C305 O302 1.258 . S
C305 O307 1.282 . S
O306 Cd298 2.277 . S
O306 C299 1.226 . S
O307 Cd298 2.356 . S
O307 C305 1.282 . S
C308 O309 1.306 . S
C308 O311 1.160 . S
O309 C308 1.306 . S
O309 Cd310 2.228 . S
Cd310 O309 2.228 . S
Cd310 O314 2.273 . S
Cd310 O318 2.277 . S
O311 C308 1.160 . S
O311 Cd312 2.203 . S
Cd312 O311 2.203 . S
Cd312 O314 2.411 . S
Cd312 O315 2.333 . S
Cd312 O316 2.352 . S
Cd312 O320 2.277 . S
Cd312 O321 2.356 . S
C313 O318 1.209 . S
C313 O320 1.226 . S
O314 Cd310 2.273 . S
O314 Cd312 2.411 . S
O314 C317 1.320 . S
O315 Cd312 2.333 . S
O315 C317 1.214 . S
O316 Cd312 2.352 . S
O316 C319 1.258 . S
C317 O314 1.320 . S
C317 O315 1.214 . S
O318 Cd310 2.277 . S
O318 C313 1.209 . S
C319 O316 1.258 . S
C319 O321 1.282 . S
O320 Cd312 2.277 . S
O320 C313 1.226 . S
O321 Cd312 2.356 . S
O321 C319 1.282 . S
C322 O323 1.306 . S
C322 O325 1.160 . S
O323 C322 1.306 . S
O323 Cd324 2.228 . S
Cd324 O323 2.228 . S
Cd324 O328 2.273 . S
Cd324 O332 2.277 . S
O325 C322 1.160 . S
O325 Cd326 2.203 . S
Cd326 O325 2.203 . S
Cd326 O328 2.411 . S
Cd326 O329 2.333 . S
Cd326 O330 2.352 . S
Cd326 O334 2.277 . S
Cd326 O335 2.356 . S
C327 O332 1.209 . S
C327 O334 1.226 . S
O328 Cd324 2.273 . S
O328 Cd326 2.411 . S
O328 C331 1.320 . S
O329 Cd326 2.333 . S
O329 C331 1.214 . S
O330 Cd326 2.352 . S
O330 C333 1.258 . S
C331 O328 1.320 . S
C331 O329 1.214 . S
O332 Cd324 2.277 . S
O332 C327 1.209 . S
C333 O330 1.258 . S
C333 O335 1.282 . S
O334 Cd326 2.277 . S
O334 C327 1.226 . S
O335 Cd326 2.356 . S
O335 C333 1.282 . S
H336 C342 0.930 . S
H337 C345 0.930 . S
H338 C346 0.930 1_565 S
H339 C347 0.930 . S
H340 C350 0.930 . S
H341 C351 0.930 1_545 S
C342 H336 0.930 . S
C342 C343 1.355 . S
C342 C344 1.415 . S
C343 C342 1.355 . S
C343 C345 1.419 . S
C344 C342 1.415 . S
C344 C349 1.425 1_545 S
C344 C351 1.409 1_545 S
C345 H337 0.930 . S
C345 C343 1.419 . S
C345 C346 1.362 . S
C346 H338 0.930 1_545 S
C346 C345 1.362 . S
C346 C349 1.409 1_545 S
C347 H339 0.930 . S
C347 C348 1.355 . S
C347 C349 1.415 . S
C348 C347 1.355 . S
C348 C350 1.419 . S
C349 C344 1.425 1_565 S
C349 C346 1.409 1_565 S
C349 C347 1.415 . S
C350 H340 0.930 . S
C350 C348 1.419 . S
C350 C351 1.362 . S
C351 H341 0.930 1_565 S
C351 C344 1.409 1_565 S
C351 C350 1.362 . S
H352 C358 0.930 . S
H353 C361 0.930 . S
H354 C362 0.930 . S
H355 C363 0.930 . S
H356 C366 0.930 . S
H357 C367 0.930 . S
C358 H352 0.930 . S
C358 C359 1.355 . S
C358 C360 1.415 . S
C359 C358 1.355 . S
C359 C361 1.419 . S
C360 C358 1.415 . S
C360 C365 1.425 . S
C360 C367 1.409 . S
C361 H353 0.930 . S
C361 C359 1.419 . S
C361 C362 1.362 . S
C362 H354 0.930 . S
C362 C361 1.362 . S
C362 C365 1.409 . S
C363 H355 0.930 . S
C363 C364 1.355 . S
C363 C365 1.415 . S
C364 C363 1.355 . S
C364 C366 1.419 . S
C365 C360 1.425 . S
C365 C362 1.409 . S
C365 C363 1.415 . S
C366 H356 0.930 . S
C366 C364 1.419 . S
C366 C367 1.362 . S
C367 H357 0.930 . S
C367 C360 1.409 . S
C367 C366 1.362 . S
H368 C374 0.930 . S
H369 C377 0.930 . S
H370 C378 0.930 1_455 S
H371 C379 0.930 . S
H372 C382 0.930 . S
H373 C383 0.930 1_655 S
C374 H368 0.930 . S
C374 C375 1.355 . S
C374 C376 1.415 . S
C375 C374 1.355 . S
C375 C377 1.419 . S
C376 C374 1.415 . S
C376 C381 1.425 1_655 S
C376 C383 1.409 1_655 S
C377 H369 0.930 . S
C377 C375 1.419 . S
C377 C378 1.362 . S
C378 H370 0.930 1_655 S
C378 C377 1.362 . S
C378 C381 1.409 1_655 S
C379 H371 0.930 . S
C379 C380 1.355 . S
C379 C381 1.415 . S
C380 C379 1.355 . S
C380 C382 1.419 . S
C381 C376 1.425 1_455 S
C381 C378 1.409 1_455 S
C381 C379 1.415 . S
C382 H372 0.930 . S
C382 C380 1.419 . S
C382 C383 1.362 . S
C383 H373 0.930 1_455 S
C383 C376 1.409 1_455 S
C383 C382 1.362 . S
H384 C390 0.930 . S
H385 C393 0.930 . S
H386 C394 0.949 . S
H387 C395 0.930 . S
H388 C398 0.930 . S
H389 C399 0.949 . S
C390 H384 0.930 . S
C390 C391 1.355 . S
C390 C392 1.415 . S
C391 C390 1.355 . S
C391 C393 1.419 . S
C392 C390 1.415 . S
C392 C397 1.425 1_565 S
C392 C399 1.414 . S
C393 H385 0.930 . S
C393 C391 1.419 . S
C393 C394 1.339 1_565 S
C394 H386 0.949 . S
C394 C393 1.339 1_545 S
C394 C397 1.414 . S
C395 H387 0.930 . S
C395 C396 1.355 . S
C395 C397 1.415 . S
C396 C395 1.355 . S
C396 C398 1.419 . S
C397 C392 1.425 1_545 S
C397 C394 1.414 . S
C397 C395 1.415 . S
C398 H388 0.930 . S
C398 C396 1.419 . S
C398 C399 1.339 1_545 S
C399 H389 0.949 . S
C399 C392 1.414 . S
C399 C398 1.339 1_565 S
H400 C406 0.930 . S
H401 C409 0.930 . S
H402 C410 0.930 . S
H403 C411 0.930 . S
H404 C414 0.930 . S
H405 C415 0.930 . S
C406 H400 0.930 . S
C406 C407 1.355 . S
C406 C408 1.415 . S
C407 C406 1.355 . S
C407 C409 1.419 . S
C408 C406 1.415 . S
C408 C413 1.425 . S
C408 C415 1.409 . S
C409 H401 0.930 . S
C409 C407 1.419 . S
C409 C410 1.362 . S
C410 H402 0.930 . S
C410 C409 1.362 . S
C410 C413 1.409 . S
C411 H403 0.930 . S
C411 C412 1.355 . S
C411 C413 1.415 . S
C412 C411 1.355 . S
C412 C414 1.419 . S
C413 C408 1.425 . S
C413 C410 1.409 . S
C413 C411 1.415 . S
C414 H404 0.930 . S
C414 C412 1.419 . S
C414 C415 1.362 . S
C415 H405 0.930 . S
C415 C408 1.409 . S
C415 C414 1.362 . S
H416 C422 0.930 . S
H417 C425 0.930 . S
H418 C426 0.891 1_655 S
H419 C427 0.930 . S
H420 C430 0.930 . S
H421 C431 0.891 1_455 S
C422 H416 0.930 . S
C422 C423 1.355 . S
C422 C424 1.415 . S
C423 C422 1.355 . S
C423 C425 1.419 . S
C424 C422 1.415 . S
C424 C429 1.425 1_455 S
C424 C431 1.404 1_455 S
C425 H417 0.930 . S
C425 C423 1.419 . S
C425 C426 1.408 . S
C426 H418 0.891 1_455 S
C426 C425 1.408 . S
C426 C429 1.404 1_455 S
C427 H419 0.930 . S
C427 C428 1.355 . S
C427 C429 1.415 . S
C428 C427 1.355 . S
C428 C430 1.419 . S
C429 C424 1.425 1_655 S
C429 C426 1.404 1_655 S
C429 C427 1.415 . S
C430 H420 0.930 . S
C430 C428 1.419 . S
C430 C431 1.408 . S
C431 H421 0.891 1_655 S
C431 C424 1.404 1_655 S
C431 C430 1.408 . S
H432 C438 0.930 . S
H433 C441 0.930 . S
H434 C442 0.946 . S
H435 C443 0.930 . S
H436 C446 0.930 . S
H437 C447 0.946 . S
C438 H432 0.930 . S
C438 C439 1.355 . S
C438 C440 1.415 . S
C439 C438 1.355 . S
C439 C441 1.419 . S
C440 C438 1.415 . S
C440 C445 1.425 1_565 S
C440 C447 1.409 1_565 S
C441 H433 0.930 . S
C441 C439 1.419 . S
C441 C442 1.362 . S
C442 H434 0.946 . S
C442 C441 1.362 . S
C442 C445 1.409 1_565 S
C443 H435 0.930 . S
C443 C444 1.355 . S
C443 C445 1.415 . S
C444 C443 1.355 . S
C444 C446 1.419 . S
C445 C440 1.425 1_545 S
C445 C442 1.409 1_545 S
C445 C443 1.415 . S
C446 H436 0.930 . S
C446 C444 1.419 . S
C446 C447 1.362 . S
C447 H437 0.946 . S
C447 C440 1.409 1_545 S
C447 C446 1.362 . S
H448 C454 0.930 . S
H449 C457 0.930 . S
H450 C458 0.930 . S
H451 C459 0.930 . S
H452 C462 0.930 . S
H453 C463 0.930 . S
C454 H448 0.930 . S
C454 C455 1.355 . S
C454 C456 1.415 . S
C455 C454 1.355 . S
C455 C457 1.419 . S
C456 C454 1.415 . S
C456 C461 1.425 . S
C456 C463 1.409 . S
C457 H449 0.930 . S
C457 C455 1.419 . S
C457 C458 1.362 . S
C458 H450 0.930 . S
C458 C457 1.362 . S
C458 C461 1.409 . S
C459 H451 0.930 . S
C459 C460 1.355 . S
C459 C461 1.415 . S
C460 C459 1.355 . S
C460 C462 1.419 . S
C461 C456 1.425 . S
C461 C458 1.409 . S
C461 C459 1.415 . S
C462 H452 0.930 . S
C462 C460 1.419 . S
C462 C463 1.362 . S
C463 H453 0.930 . S
C463 C456 1.409 . S
C463 C462 1.362 . S
H464 C470 0.930 . S
H465 C473 0.930 . S
H466 C474 0.930 . S
H467 C475 0.930 . S
H468 C478 0.930 . S
H469 C479 0.930 . S
C470 H464 0.930 . S
C470 C471 1.355 . S
C470 C472 1.449 . S
C471 C470 1.355 . S
C471 C473 1.419 . S
C472 C470 1.449 . S
C472 C477 1.459 1_655 S
C472 C479 1.360 1_655 S
C473 H465 0.930 . S
C473 C471 1.419 . S
C473 C474 1.362 . S
C474 H466 0.930 . S
C474 C473 1.362 . S
C474 C477 1.360 1_655 S
C475 H467 0.930 . S
C475 C476 1.355 . S
C475 C477 1.449 . S
C476 C475 1.355 . S
C476 C478 1.419 . S
C477 C472 1.459 1_455 S
C477 C474 1.360 1_455 S
C477 C475 1.449 . S
C478 H468 0.930 . S
C478 C476 1.419 . S
C478 C479 1.362 . S
C479 H469 0.930 . S
C479 C472 1.360 1_455 S
C479 C478 1.362 . S
H480 C486 0.930 . S
H481 C489 0.930 . S
H482 C490 0.930 . S
H483 C491 0.930 . S
H484 C494 0.930 . S
H485 C495 0.930 . S
C486 H480 0.930 . S
C486 C487 1.355 . S
C486 C488 1.415 . S
C487 C486 1.355 . S
C487 C489 1.419 . S
C488 C486 1.415 . S
C488 C493 1.425 1_545 S
C488 C495 1.409 1_545 S
C489 H481 0.930 . S
C489 C487 1.419 . S
C489 C490 1.362 . S
C490 H482 0.930 . S
C490 C489 1.362 . S
C490 C493 1.409 1_545 S
C491 H483 0.930 . S
C491 C492 1.355 . S
C491 C493 1.415 . S
C492 C491 1.355 . S
C492 C494 1.419 . S
C493 C488 1.425 1_565 S
C493 C490 1.409 1_565 S
C493 C491 1.415 . S
C494 H484 0.930 . S
C494 C492 1.419 . S
C494 C495 1.362 . S
C495 H485 0.930 . S
C495 C488 1.409 1_565 S
C495 C494 1.362 . S
H496 C502 0.930 . S
H497 C505 0.930 . S
H498 C506 0.930 . S
H499 C507 0.930 . S
H500 C510 0.930 . S
H501 C511 0.930 . S
C502 H496 0.930 . S
C502 C503 1.355 . S
C502 C504 1.415 . S
C503 C502 1.355 . S
C503 C505 1.419 . S
C504 C502 1.415 . S
C504 C509 1.425 . S
C504 C511 1.409 . S
C505 H497 0.930 . S
C505 C503 1.419 . S
C505 C506 1.362 . S
C506 H498 0.930 . S
C506 C505 1.362 . S
C506 C509 1.409 . S
C507 H499 0.930 . S
C507 C508 1.355 . S
C507 C509 1.415 . S
C508 C507 1.355 . S
C508 C510 1.419 . S
C509 C504 1.425 . S
C509 C506 1.409 . S
C509 C507 1.415 . S
C510 H500 0.930 . S
C510 C508 1.419 . S
C510 C511 1.362 . S
C511 H501 0.930 . S
C511 C504 1.409 . S
C511 C510 1.362 . S
H512 C518 0.930 . S
H513 C521 0.930 . S
H514 C522 0.930 . S
H515 C523 0.930 . S
H516 C526 0.930 . S
H517 C527 0.930 . S
C518 H512 0.930 . S
C518 C519 1.355 . S
C518 C520 1.415 . S
C519 C518 1.355 . S
C519 C521 1.419 . S
C520 C518 1.415 . S
C520 C525 1.425 1_455 S
C520 C527 1.409 1_455 S
C521 H513 0.930 . S
C521 C519 1.419 . S
C521 C522 1.362 . S
C522 H514 0.930 . S
C522 C521 1.362 . S
C522 C525 1.409 1_455 S
C523 H515 0.930 . S
C523 C524 1.355 . S
C523 C525 1.415 . S
C524 C523 1.355 . S
C524 C526 1.419 . S
C525 C520 1.425 1_655 S
C525 C522 1.409 1_655 S
C525 C523 1.415 . S
C526 H516 0.930 . S
C526 C524 1.419 . S
C526 C527 1.362 . S
C527 H517 0.930 . S
C527 C520 1.409 1_655 S
C527 C526 1.362 . S
H528 C534 0.930 . S
H529 C537 0.930 . S
H530 C538 0.930 . S
H531 C539 0.930 . S
H532 C542 0.930 . S
H533 C543 0.930 . S
C534 H528 0.930 . S
C534 C535 1.355 . S
C534 C536 1.415 . S
C535 C534 1.355 . S
C535 C537 1.419 . S
C536 C534 1.415 . S
C536 C541 1.425 . S
C536 C543 1.409 . S
C537 H529 0.930 . S
C537 C535 1.419 . S
C537 C538 1.362 . S
C538 H530 0.930 . S
C538 C537 1.362 . S
C538 C541 1.409 . S
C539 H531 0.930 . S
C539 C540 1.355 . S
C539 C541 1.415 . S
C540 C539 1.355 . S
C540 C542 1.419 . S
C541 C536 1.425 . S
C541 C538 1.409 . S
C541 C539 1.415 . S
C542 H532 0.930 . S
C542 C540 1.419 . S
C542 C543 1.362 . S
C543 H533 0.930 . S
C543 C536 1.409 . S
C543 C542 1.362 . S
H544 C550 0.930 . S
H545 C553 0.930 . S
H546 C554 0.930 . S
H547 C555 0.930 . S
H548 C558 0.930 . S
H549 C559 0.930 . S
C550 H544 0.930 . S
C550 C551 1.355 . S
C550 C552 1.415 . S
C551 C550 1.355 . S
C551 C553 1.419 . S
C552 C550 1.415 . S
C552 C557 1.425 . S
C552 C559 1.409 . S
C553 H545 0.930 . S
C553 C551 1.419 . S
C553 C554 1.362 . S
C554 H546 0.930 . S
C554 C553 1.362 . S
C554 C557 1.409 . S
C555 H547 0.930 . S
C555 C556 1.355 . S
C555 C557 1.415 . S
C556 C555 1.355 . S
C556 C558 1.419 . S
C557 C552 1.425 . S
C557 C554 1.409 . S
C557 C555 1.415 . S
C558 H548 0.930 . S
C558 C556 1.419 . S
C558 C559 1.362 . S
C559 H549 0.930 . S
C559 C552 1.409 . S
C559 C558 1.362 . S
H560 C566 0.930 . S
H561 C569 0.930 . S
H562 C570 0.930 . S
H563 C571 0.930 . S
H564 C574 0.930 . S
H565 C575 0.930 . S
C566 H560 0.930 . S
C566 C567 1.355 . S
C566 C568 1.415 . S
C567 C566 1.355 . S
C567 C569 1.419 . S
C568 C566 1.415 . S
C568 C573 1.425 . S
C568 C575 1.409 . S
C569 H561 0.930 . S
C569 C567 1.419 . S
C569 C570 1.362 . S
C570 H562 0.930 . S
C570 C569 1.362 . S
C570 C573 1.409 . S
C571 H563 0.930 . S
C571 C572 1.355 . S
C571 C573 1.415 . S
C572 C571 1.355 . S
C572 C574 1.419 . S
C573 C568 1.425 . S
C573 C570 1.409 . S
C573 C571 1.415 . S
C574 H564 0.930 . S
C574 C572 1.419 . S
C574 C575 1.362 . S
C575 H565 0.930 . S
C575 C568 1.409 . S
C575 C574 1.362 . S
H576 C582 0.930 . S
H577 C585 0.930 . S
H578 C586 0.930 . S
H579 C587 0.930 . S
H580 C590 0.930 . S
H581 C591 0.930 . S
C582 H576 0.930 . S
C582 C583 1.355 . S
C582 C584 1.415 . S
C583 C582 1.355 . S
C583 C585 1.419 . S
C584 C582 1.415 . S
C584 C589 1.425 . S
C584 C591 1.409 . S
C585 H577 0.930 . S
C585 C583 1.419 . S
C585 C586 1.362 . S
C586 H578 0.930 . S
C586 C585 1.362 . S
C586 C589 1.409 . S
C587 H579 0.930 . S
C587 C588 1.355 . S
C587 C589 1.415 . S
C588 C587 1.355 . S
C588 C590 1.419 . S
C589 C584 1.425 . S
C589 C586 1.409 . S
C589 C587 1.415 . S
C590 H580 0.930 . S
C590 C588 1.419 . S
C590 C591 1.362 . S
C591 H581 0.930 . S
C591 C584 1.409 . S
C591 C590 1.362 . S
H592 C598 0.930 . S
H593 C601 0.930 . S
H594 C602 0.930 . S
H595 C603 0.930 . S
H596 C606 0.930 . S
H597 C607 0.930 . S
C598 H592 0.930 . S
C598 C599 1.355 . S
C598 C600 1.415 . S
C599 C598 1.355 . S
C599 C601 1.419 . S
C600 C598 1.415 . S
C600 C605 1.425 . S
C600 C607 1.409 . S
C601 H593 0.930 . S
C601 C599 1.419 . S
C601 C602 1.362 . S
C602 H594 0.930 . S
C602 C601 1.362 . S
C602 C605 1.409 . S
C603 H595 0.930 . S
C603 C604 1.355 . S
C603 C605 1.415 . S
C604 C603 1.355 . S
C604 C606 1.419 . S
C605 C600 1.425 . S
C605 C602 1.409 . S
C605 C603 1.415 . S
C606 H596 0.930 . S
C606 C604 1.419 . S
C606 C607 1.362 . S
C607 H597 0.930 . S
C607 C600 1.409 . S
C607 C606 1.362 . S
H608 C614 0.930 . S
H609 C617 0.930 . S
H610 C618 0.930 . S
H611 C619 0.930 . S
H612 C622 0.930 . S
H613 C623 0.930 . S
C614 H608 0.930 . S
C614 C615 1.355 . S
C614 C616 1.415 . S
C615 C614 1.355 . S
C615 C617 1.419 . S
C616 C614 1.415 . S
C616 C621 1.425 . S
C616 C623 1.409 . S
C617 H609 0.930 . S
C617 C615 1.419 . S
C617 C618 1.362 . S
C618 H610 0.930 . S
C618 C617 1.362 . S
C618 C621 1.409 . S
C619 H611 0.930 . S
C619 C620 1.355 . S
C619 C621 1.415 . S
C620 C619 1.355 . S
C620 C622 1.419 . S
C621 C616 1.425 . S
C621 C618 1.409 . S
C621 C619 1.415 . S
C622 H612 0.930 . S
C622 C620 1.419 . S
C622 C623 1.362 . S
C623 H613 0.930 . S
C623 C616 1.409 . S
C623 C622 1.362 . S
H624 C630 0.930 . S
H625 C633 0.930 . S
H626 C634 0.930 . S
H627 C635 0.930 . S
H628 C638 0.930 . S
H629 C639 0.930 . S
C630 H624 0.930 . S
C630 C631 1.355 . S
C630 C632 1.415 . S
C631 C630 1.355 . S
C631 C633 1.419 . S
C632 C630 1.415 . S
C632 C637 1.425 . S
C632 C639 1.409 . S
C633 H625 0.930 . S
C633 C631 1.419 . S
C633 C634 1.362 . S
C634 H626 0.930 . S
C634 C633 1.362 . S
C634 C637 1.409 . S
C635 H627 0.930 . S
C635 C636 1.355 . S
C635 C637 1.415 . S
C636 C635 1.355 . S
C636 C638 1.419 . S
C637 C632 1.425 . S
C637 C634 1.409 . S
C637 C635 1.415 . S
C638 H628 0.930 . S
C638 C636 1.419 . S
C638 C639 1.362 . S
C639 H629 0.930 . S
C639 C632 1.409 . S
C639 C638 1.362 . S
H640 C646 0.930 . S
H641 C649 0.930 . S
H642 C650 0.930 . S
H643 C651 0.930 . S
H644 C654 0.930 . S
H645 C655 0.930 . S
C646 H640 0.930 . S
C646 C647 1.355 . S
C646 C648 1.415 . S
C647 C646 1.355 . S
C647 C649 1.419 . S
C648 C646 1.415 . S
C648 C653 1.425 . S
C648 C655 1.409 . S
C649 H641 0.930 . S
C649 C647 1.419 . S
C649 C650 1.362 . S
C650 H642 0.930 . S
C650 C649 1.362 . S
C650 C653 1.409 . S
C651 H643 0.930 . S
C651 C652 1.355 . S
C651 C653 1.415 . S
C652 C651 1.355 . S
C652 C654 1.419 . S
C653 C648 1.425 . S
C653 C650 1.409 . S
C653 C651 1.415 . S
C654 H644 0.930 . S
C654 C652 1.419 . S
C654 C655 1.362 . S
C655 H645 0.930 . S
C655 C648 1.409 . S
C655 C654 1.362 . S
H656 C662 0.930 . S
H657 C665 0.930 . S
H658 C666 0.930 . S
H659 C667 0.930 . S
H660 C670 0.930 . S
H661 C671 0.930 . S
C662 H656 0.930 . S
C662 C663 1.355 . S
C662 C664 1.415 . S
C663 C662 1.355 . S
C663 C665 1.419 . S
C664 C662 1.415 . S
C664 C669 1.425 . S
C664 C671 1.409 . S
C665 H657 0.930 . S
C665 C663 1.419 . S
C665 C666 1.362 . S
C666 H658 0.930 . S
C666 C665 1.362 . S
C666 C669 1.409 . S
C667 H659 0.930 . S
C667 C668 1.355 . S
C667 C669 1.415 . S
C668 C667 1.355 . S
C668 C670 1.419 . S
C669 C664 1.425 . S
C669 C666 1.409 . S
C669 C667 1.415 . S
C670 H660 0.930 . S
C670 C668 1.419 . S
C670 C671 1.362 . S
C671 H661 0.930 . S
C671 C664 1.409 . S
C671 C670 1.362 . S
H672 C678 0.930 . S
H673 C681 0.930 . S
H674 C682 0.930 . S
H675 C683 0.930 . S
H676 C686 0.930 . S
H677 C687 0.930 . S
C678 H672 0.930 . S
C678 C679 1.355 . S
C678 C680 1.415 . S
C679 C678 1.355 . S
C679 C681 1.419 . S
C680 C678 1.415 . S
C680 C685 1.425 . S
C680 C687 1.409 . S
C681 H673 0.930 . S
C681 C679 1.419 . S
C681 C682 1.362 . S
C682 H674 0.930 . S
C682 C681 1.362 . S
C682 C685 1.409 . S
C683 H675 0.930 . S
C683 C684 1.355 . S
C683 C685 1.415 . S
C684 C683 1.355 . S
C684 C686 1.419 . S
C685 C680 1.425 . S
C685 C682 1.409 . S
C685 C683 1.415 . S
C686 H676 0.930 . S
C686 C684 1.419 . S
C686 C687 1.362 . S
C687 H677 0.930 . S
C687 C680 1.409 . S
C687 C686 1.362 . S
H688 C694 0.930 . S
H689 C697 0.930 . S
H690 C698 0.930 . S
H691 C699 0.930 . S
H692 C702 0.930 . S
H693 C703 0.930 . S
C694 H688 0.930 . S
C694 C695 1.355 . S
C694 C696 1.415 . S
C695 C694 1.355 . S
C695 C697 1.419 . S
C696 C694 1.415 . S
C696 C701 1.425 . S
C696 C703 1.409 . S
C697 H689 0.930 . S
C697 C695 1.419 . S
C697 C698 1.362 . S
C698 H690 0.930 . S
C698 C697 1.362 . S
C698 C701 1.409 . S
C699 H691 0.930 . S
C699 C700 1.355 . S
C699 C701 1.415 . S
C700 C699 1.355 . S
C700 C702 1.419 . S
C701 C696 1.425 . S
C701 C698 1.409 . S
C701 C699 1.415 . S
C702 H692 0.930 . S
C702 C700 1.419 . S
C702 C703 1.362 . S
C703 H693 0.930 . S
C703 C696 1.409 . S
C703 C702 1.362 . S
H704 C710 0.930 . S
H705 C713 0.930 . S
H706 C714 0.930 . S
H707 C715 0.930 . S
H708 C718 0.930 . S
H709 C719 0.930 . S
C710 H704 0.930 . S
C710 C711 1.355 . S
C710 C712 1.415 . S
C711 C710 1.355 . S
C711 C713 1.419 . S
C712 C710 1.415 . S
C712 C717 1.425 . S
C712 C719 1.409 . S
C713 H705 0.930 . S
C713 C711 1.419 . S
C713 C714 1.362 . S
C714 H706 0.930 . S
C714 C713 1.362 . S
C714 C717 1.409 . S
C715 H707 0.930 . S
C715 C716 1.355 . S
C715 C717 1.415 . S
C716 C715 1.355 . S
C716 C718 1.419 . S
C717 C712 1.425 . S
C717 C714 1.409 . S
C717 C715 1.415 . S
C718 H708 0.930 . S
C718 C716 1.419 . S
C718 C719 1.362 . S
C719 H709 0.930 . S
C719 C712 1.409 . S
C719 C718 1.362 . S
H720 C726 0.930 . S
H721 C729 0.930 . S
H722 C730 0.930 . S
H723 C731 0.930 . S
H724 C734 0.930 . S
H725 C735 0.930 . S
C726 H720 0.930 . S
C726 C727 1.355 . S
C726 C728 1.415 . S
C727 C726 1.355 . S
C727 C729 1.419 . S
C728 C726 1.415 . S
C728 C733 1.425 1_554 S
C728 C735 1.409 1_554 S
C729 H721 0.930 . S
C729 C727 1.419 . S
C729 C730 1.362 . S
C730 H722 0.930 . S
C730 C729 1.362 . S
C730 C733 1.409 1_554 S
C731 H723 0.930 . S
C731 C732 1.355 . S
C731 C733 1.415 . S
C732 C731 1.355 . S
C732 C734 1.419 . S
C733 C728 1.425 1_556 S
C733 C730 1.409 1_556 S
C733 C731 1.415 . S
C734 H724 0.930 . S
C734 C732 1.419 . S
C734 C735 1.362 . S
C735 H725 0.930 . S
C735 C728 1.409 1_556 S
C735 C734 1.362 . S
H736 C742 0.930 . S
H737 C745 0.930 . S
H738 C746 0.930 . S
H739 C747 0.930 . S
H740 C750 0.930 . S
H741 C751 0.930 . S
C742 H736 0.930 . S
C742 C743 1.355 . S
C742 C744 1.415 . S
C743 C742 1.355 . S
C743 C745 1.419 . S
C744 C742 1.415 . S
C744 C749 1.425 1_556 S
C744 C751 1.409 1_556 S
C745 H737 0.930 . S
C745 C743 1.419 . S
C745 C746 1.362 . S
C746 H738 0.930 . S
C746 C745 1.362 . S
C746 C749 1.409 1_556 S
C747 H739 0.930 . S
C747 C748 1.355 . S
C747 C749 1.415 . S
C748 C747 1.355 . S
C748 C750 1.419 . S
C749 C744 1.425 1_554 S
C749 C746 1.409 1_554 S
C749 C747 1.415 . S
C750 H740 0.930 . S
C750 C748 1.419 . S
C750 C751 1.362 . S
C751 H741 0.930 . S
C751 C744 1.409 1_554 S
C751 C750 1.362 . S
H752 C758 0.930 . S
H753 C761 0.930 . S
H754 C762 0.930 . S
H755 C763 0.930 . S
H756 C766 0.930 . S
H757 C767 0.930 . S
C758 H752 0.930 . S
C758 C759 1.355 . S
C758 C760 1.415 . S
C759 C758 1.355 . S
C759 C761 1.419 . S
C760 C758 1.415 . S
C760 C765 1.425 1_556 S
C760 C767 1.409 1_556 S
C761 H753 0.930 . S
C761 C759 1.419 . S
C761 C762 1.362 . S
C762 H754 0.930 . S
C762 C761 1.362 . S
C762 C765 1.409 1_556 S
C763 H755 0.930 . S
C763 C764 1.355 . S
C763 C765 1.415 . S
C764 C763 1.355 . S
C764 C766 1.419 . S
C765 C760 1.425 1_554 S
C765 C762 1.409 1_554 S
C765 C763 1.415 . S
C766 H756 0.930 . S
C766 C764 1.419 . S
C766 C767 1.362 . S
C767 H757 0.930 . S
C767 C760 1.409 1_554 S
C767 C766 1.362 . S
H768 C774 0.930 . S
H769 C777 0.930 . S
H770 C778 0.930 . S
H771 C779 0.930 . S
H772 C782 0.930 . S
H773 C783 0.930 . S
C774 H768 0.930 . S
C774 C775 1.355 . S
C774 C776 1.415 . S
C775 C774 1.355 . S
C775 C777 1.419 . S
C776 C774 1.415 . S
C776 C781 1.425 1_554 S
C776 C783 1.409 1_554 S
C777 H769 0.930 . S
C777 C775 1.419 . S
C777 C778 1.362 . S
C778 H770 0.930 . S
C778 C777 1.362 . S
C778 C781 1.409 1_554 S
C779 H771 0.930 . S
C779 C780 1.355 . S
C779 C781 1.415 . S
C780 C779 1.355 . S
C780 C782 1.419 . S
C781 C776 1.425 1_556 S
C781 C778 1.409 1_556 S
C781 C779 1.415 . S
C782 H772 0.930 . S
C782 C780 1.419 . S
C782 C783 1.362 . S
C783 H773 0.930 . S
C783 C776 1.409 1_556 S
C783 C782 1.362 . S
H784 C790 0.930 . S
H785 C793 0.930 . S
H786 C794 0.930 . S
H787 C795 0.930 . S
H788 C798 0.930 . S
H789 C799 0.930 . S
C790 H784 0.930 . S
C790 C791 1.355 . S
C790 C792 1.415 . S
C791 C790 1.355 . S
C791 C793 1.419 . S
C792 C790 1.415 . S
C792 C797 1.425 1_554 S
C792 C799 1.409 1_554 S
C793 H785 0.930 . S
C793 C791 1.419 . S
C793 C794 1.362 . S
C794 H786 0.930 . S
C794 C793 1.362 . S
C794 C797 1.409 1_554 S
C795 H787 0.930 . S
C795 C796 1.355 . S
C795 C797 1.415 . S
C796 C795 1.355 . S
C796 C798 1.419 . S
C797 C792 1.425 1_556 S
C797 C794 1.409 1_556 S
C797 C795 1.415 . S
C798 H788 0.930 . S
C798 C796 1.419 . S
C798 C799 1.362 . S
C799 H789 0.930 . S
C799 C792 1.409 1_556 S
C799 C798 1.362 . S
H800 C806 0.930 . S
H801 C809 0.930 . S
H802 C810 0.930 . S
H803 C811 0.930 . S
H804 C814 0.930 . S
H805 C815 0.930 . S
C806 H800 0.930 . S
C806 C807 1.355 . S
C806 C808 1.415 . S
C807 C806 1.355 . S
C807 C809 1.419 . S
C808 C806 1.415 . S
C808 C813 1.425 1_556 S
C808 C815 1.409 1_556 S
C809 H801 0.930 . S
C809 C807 1.419 . S
C809 C810 1.362 . S
C810 H802 0.930 . S
C810 C809 1.362 . S
C810 C813 1.409 1_556 S
C811 H803 0.930 . S
C811 C812 1.355 . S
C811 C813 1.415 . S
C812 C811 1.355 . S
C812 C814 1.419 . S
C813 C808 1.425 1_554 S
C813 C810 1.409 1_554 S
C813 C811 1.415 . S
C814 H804 0.930 . S
C814 C812 1.419 . S
C814 C815 1.362 . S
C815 H805 0.930 . S
C815 C808 1.409 1_554 S
C815 C814 1.362 . S
H816 C822 0.930 . S
H817 C825 0.930 . S
H818 C826 0.930 . S
H819 C827 0.930 . S
H820 C830 0.930 . S
H821 C831 0.930 . S
C822 H816 0.930 . S
C822 C823 1.355 . S
C822 C824 1.415 . S
C823 C822 1.355 . S
C823 C825 1.419 . S
C824 C822 1.415 . S
C824 C829 1.425 . S
C824 C831 1.409 . S
C825 H817 0.930 . S
C825 C823 1.419 . S
C825 C826 1.362 . S
C826 H818 0.930 . S
C826 C825 1.362 . S
C826 C829 1.409 . S
C827 H819 0.930 . S
C827 C828 1.355 . S
C827 C829 1.415 . S
C828 C827 1.355 . S
C828 C830 1.419 . S
C829 C824 1.425 . S
C829 C826 1.409 . S
C829 C827 1.415 . S
C830 H820 0.930 . S
C830 C828 1.419 . S
C830 C831 1.362 . S
C831 H821 0.930 . S
C831 C824 1.409 . S
C831 C830 1.362 . S
H832 C838 0.930 . S
H833 C841 0.930 . S
H834 C842 0.930 . S
H835 C843 0.930 . S
H836 C846 0.930 . S
H837 C847 0.930 . S
C838 H832 0.930 . S
C838 C839 1.355 . S
C838 C840 1.415 . S
C839 C838 1.355 . S
C839 C841 1.419 . S
C840 C838 1.415 . S
C840 C845 1.425 . S
C840 C847 1.409 . S
C841 H833 0.930 . S
C841 C839 1.419 . S
C841 C842 1.362 . S
C842 H834 0.930 . S
C842 C841 1.362 . S
C842 C845 1.409 . S
C843 H835 0.930 . S
C843 C844 1.355 . S
C843 C845 1.415 . S
C844 C843 1.355 . S
C844 C846 1.419 . S
C845 C840 1.425 . S
C845 C842 1.409 . S
C845 C843 1.415 . S
C846 H836 0.930 . S
C846 C844 1.419 . S
C846 C847 1.362 . S
C847 H837 0.930 . S
C847 C840 1.409 . S
C847 C846 1.362 . S
H848 C854 0.930 . S
H849 C857 0.930 . S
H850 C858 0.930 . S
H851 C859 0.930 . S
H852 C862 0.930 . S
H853 C863 0.930 . S
C854 H848 0.930 . S
C854 C855 1.355 . S
C854 C856 1.415 . S
C855 C854 1.355 . S
C855 C857 1.419 . S
C856 C854 1.415 . S
C856 C861 1.425 . S
C856 C863 1.409 . S
C857 H849 0.930 . S
C857 C855 1.419 . S
C857 C858 1.362 . S
C858 H850 0.930 . S
C858 C857 1.362 . S
C858 C861 1.409 . S
C859 H851 0.930 . S
C859 C860 1.355 . S
C859 C861 1.415 . S
C860 C859 1.355 . S
C860 C862 1.419 . S
C861 C856 1.425 . S
C861 C858 1.409 . S
C861 C859 1.415 . S
C862 H852 0.930 . S
C862 C860 1.419 . S
C862 C863 1.362 . S
C863 H853 0.930 . S
C863 C856 1.409 . S
C863 C862 1.362 . S
H864 C870 0.930 . S
H865 C873 0.930 . S
H866 C874 0.930 . S
H867 C875 0.930 . S
H868 C878 0.930 . S
H869 C879 0.930 . S
C870 H864 0.930 . S
C870 C871 1.355 . S
C870 C872 1.415 . S
C871 C870 1.355 . S
C871 C873 1.419 . S
C872 C870 1.415 . S
C872 C877 1.425 . S
C872 C879 1.409 . S
C873 H865 0.930 . S
C873 C871 1.419 . S
C873 C874 1.362 . S
C874 H866 0.930 . S
C874 C873 1.362 . S
C874 C877 1.409 . S
C875 H867 0.930 . S
C875 C876 1.355 . S
C875 C877 1.415 . S
C876 C875 1.355 . S
C876 C878 1.419 . S
C877 C872 1.425 . S
C877 C874 1.409 . S
C877 C875 1.415 . S
C878 H868 0.930 . S
C878 C876 1.419 . S
C878 C879 1.362 . S
C879 H869 0.930 . S
C879 C872 1.409 . S
C879 C878 1.362 . S
H880 C886 0.930 . S
H881 C889 0.930 . S
H882 C890 0.930 . S
H883 C891 0.930 . S
H884 C894 0.930 . S
H885 C895 0.930 . S
C886 H880 0.930 . S
C886 C887 1.355 . S
C886 C888 1.415 . S
C887 C886 1.355 . S
C887 C889 1.419 . S
C888 C886 1.415 . S
C888 C893 1.425 . S
C888 C895 1.409 . S
C889 H881 0.930 . S
C889 C887 1.419 . S
C889 C890 1.362 . S
C890 H882 0.930 . S
C890 C889 1.362 . S
C890 C893 1.409 . S
C891 H883 0.930 . S
C891 C892 1.355 . S
C891 C893 1.415 . S
C892 C891 1.355 . S
C892 C894 1.419 . S
C893 C888 1.425 . S
C893 C890 1.409 . S
C893 C891 1.415 . S
C894 H884 0.930 . S
C894 C892 1.419 . S
C894 C895 1.362 . S
C895 H885 0.930 . S
C895 C888 1.409 . S
C895 C894 1.362 . S
H896 C902 0.930 . S
H897 C905 0.930 . S
H898 C906 0.930 . S
H899 C907 0.930 . S
H900 C910 0.930 . S
H901 C911 0.930 . S
C902 H896 0.930 . S
C902 C903 1.355 . S
C902 C904 1.415 . S
C903 C902 1.355 . S
C903 C905 1.419 . S
C904 C902 1.415 . S
C904 C909 1.425 . S
C904 C911 1.409 . S
C905 H897 0.930 . S
C905 C903 1.419 . S
C905 C906 1.362 . S
C906 H898 0.930 . S
C906 C905 1.362 . S
C906 C909 1.409 . S
C907 H899 0.930 . S
C907 C908 1.355 . S
C907 C909 1.415 . S
C908 C907 1.355 . S
C908 C910 1.419 . S
C909 C904 1.425 . S
C909 C906 1.409 . S
C909 C907 1.415 . S
C910 H900 0.930 . S
C910 C908 1.419 . S
C910 C911 1.362 . S
C911 H901 0.930 . S
C911 C904 1.409 . S
C911 C910 1.362 . S
H912 C918 0.930 . S
H913 C921 0.930 . S
H914 C922 0.930 . S
H915 C923 0.930 . S
H916 C926 0.930 . S
H917 C927 0.930 . S
C918 H912 0.930 . S
C918 C919 1.355 . S
C918 C920 1.415 . S
C919 C918 1.355 . S
C919 C921 1.419 . S
C920 C918 1.415 . S
C920 C925 1.425 . S
C920 C927 1.409 . S
C921 H913 0.930 . S
C921 C919 1.419 . S
C921 C922 1.362 . S
C922 H914 0.930 . S
C922 C921 1.362 . S
C922 C925 1.409 . S
C923 H915 0.930 . S
C923 C924 1.355 . S
C923 C925 1.415 . S
C924 C923 1.355 . S
C924 C926 1.419 . S
C925 C920 1.425 . S
C925 C922 1.409 . S
C925 C923 1.415 . S
C926 H916 0.930 . S
C926 C924 1.419 . S
C926 C927 1.362 . S
C927 H917 0.930 . S
C927 C920 1.409 . S
C927 C926 1.362 . S
H928 C934 0.930 . S
H929 C937 0.930 . S
H930 C938 0.930 . S
H931 C939 0.930 . S
H932 C942 0.930 . S
H933 C943 0.930 . S
C934 H928 0.930 . S
C934 C935 1.355 . S
C934 C936 1.415 . S
C935 C934 1.355 . S
C935 C937 1.419 . S
C936 C934 1.415 . S
C936 C941 1.425 . S
C936 C943 1.409 . S
C937 H929 0.930 . S
C937 C935 1.419 . S
C937 C938 1.362 . S
C938 H930 0.930 . S
C938 C937 1.362 . S
C938 C941 1.409 . S
C939 H931 0.930 . S
C939 C940 1.355 . S
C939 C941 1.415 . S
C940 C939 1.355 . S
C940 C942 1.419 . S
C941 C936 1.425 . S
C941 C938 1.409 . S
C941 C939 1.415 . S
C942 H932 0.930 . S
C942 C940 1.419 . S
C942 C943 1.362 . S
C943 H933 0.930 . S
C943 C936 1.409 . S
C943 C942 1.362 . S
H944 C950 0.930 . S
H945 C953 0.930 . S
H946 C954 0.930 . S
H947 C955 0.930 . S
H948 C958 0.930 . S
H949 C959 0.930 . S
C950 H944 0.930 . S
C950 C951 1.355 . S
C950 C952 1.415 . S
C951 C950 1.355 . S
C951 C953 1.419 . S
C952 C950 1.415 . S
C952 C957 1.425 . S
C952 C959 1.409 . S
C953 H945 0.930 . S
C953 C951 1.419 . S
C953 C954 1.362 . S
C954 H946 0.930 . S
C954 C953 1.362 . S
C954 C957 1.409 . S
C955 H947 0.930 . S
C955 C956 1.355 . S
C955 C957 1.415 . S
C956 C955 1.355 . S
C956 C958 1.419 . S
C957 C952 1.425 . S
C957 C954 1.409 . S
C957 C955 1.415 . S
C958 H948 0.930 . S
C958 C956 1.419 . S
C958 C959 1.362 . S
C959 H949 0.930 . S
C959 C952 1.409 . S
C959 C958 1.362 . S
H960 C966 0.930 . S
H961 C969 0.930 . S
H962 C970 0.930 . S
H963 C971 0.930 . S
H964 C974 0.930 . S
H965 C975 0.930 . S
C966 H960 0.930 . S
C966 C967 1.355 . S
C966 C968 1.415 . S
C967 C966 1.355 . S
C967 C969 1.419 . S
C968 C966 1.415 . S
C968 C973 1.425 . S
C968 C975 1.409 . S
C969 H961 0.930 . S
C969 C967 1.419 . S
C969 C970 1.362 . S
C970 H962 0.930 . S
C970 C969 1.362 . S
C970 C973 1.409 . S
C971 H963 0.930 . S
C971 C972 1.355 . S
C971 C973 1.415 . S
C972 C971 1.355 . S
C972 C974 1.419 . S
C973 C968 1.425 . S
C973 C970 1.409 . S
C973 C971 1.415 . S
C974 H964 0.930 . S
C974 C972 1.419 . S
C974 C975 1.362 . S
C975 H965 0.930 . S
C975 C968 1.409 . S
C975 C974 1.362 . S
H976 C982 0.930 . S
H977 C985 0.930 . S
H978 C986 0.930 . S
H979 C987 0.930 . S
H980 C990 0.930 . S
H981 C991 0.930 . S
C982 H976 0.930 . S
C982 C983 1.355 . S
C982 C984 1.415 . S
C983 C982 1.355 . S
C983 C985 1.419 . S
C984 C982 1.415 . S
C984 C989 1.425 . S
C984 C991 1.409 . S
C985 H977 0.930 . S
C985 C983 1.419 . S
C985 C986 1.362 . S
C986 H978 0.930 . S
C986 C985 1.362 . S
C986 C989 1.409 . S
C987 H979 0.930 . S
C987 C988 1.355 . S
C987 C989 1.415 . S
C988 C987 1.355 . S
C988 C990 1.419 . S
C989 C984 1.425 . S
C989 C986 1.409 . S
C989 C987 1.415 . S
C990 H980 0.930 . S
C990 C988 1.419 . S
C990 C991 1.362 . S
C991 H981 0.930 . S
C991 C984 1.409 . S
C991 C990 1.362 . S
H992 C998 0.930 . S
H993 C1001 0.930 . S
H994 C1002 0.930 . S
H995 C1003 0.930 . S
H996 C1006 0.930 . S
H997 C1007 0.930 . S
C998 H992 0.930 . S
C998 C999 1.355 . S
C998 C1000 1.415 . S
C999 C998 1.355 . S
C999 C1001 1.419 . S
C1000 C998 1.415 . S
C1000 C1005 1.425 . S
C1000 C1007 1.409 . S
C1001 H993 0.930 . S
C1001 C999 1.419 . S
C1001 C1002 1.362 . S
C1002 H994 0.930 . S
C1002 C1001 1.362 . S
C1002 C1005 1.409 . S
C1003 H995 0.930 . S
C1003 C1004 1.355 . S
C1003 C1005 1.415 . S
C1004 C1003 1.355 . S
C1004 C1006 1.419 . S
C1005 C1000 1.425 . S
C1005 C1002 1.409 . S
C1005 C1003 1.415 . S
C1006 H996 0.930 . S
C1006 C1004 1.419 . S
C1006 C1007 1.362 . S
C1007 H997 0.930 . S
C1007 C1000 1.409 . S
C1007 C1006 1.362 . S
H1008 C1014 0.930 . S
H1009 C1017 0.930 . S
H1010 C1018 0.930 . S
H1011 C1019 0.930 . S
H1012 C1022 0.930 . S
H1013 C1023 0.930 . S
C1014 H1008 0.930 . S
C1014 C1015 1.355 . S
C1014 C1016 1.415 . S
C1015 C1014 1.355 . S
C1015 C1017 1.419 . S
C1016 C1014 1.415 . S
C1016 C1021 1.425 . S
C1016 C1023 1.409 . S
C1017 H1009 0.930 . S
C1017 C1015 1.419 . S
C1017 C1018 1.362 . S
C1018 H1010 0.930 . S
C1018 C1017 1.362 . S
C1018 C1021 1.409 . S
C1019 H1011 0.930 . S
C1019 C1020 1.355 . S
C1019 C1021 1.415 . S
C1020 C1019 1.355 . S
C1020 C1022 1.419 . S
C1021 C1016 1.425 . S
C1021 C1018 1.409 . S
C1021 C1019 1.415 . S
C1022 H1012 0.930 . S
C1022 C1020 1.419 . S
C1022 C1023 1.362 . S
C1023 H1013 0.930 . S
C1023 C1016 1.409 . S
C1023 C1022 1.362 . S
H1024 C1030 0.930 . S
H1025 C1033 0.930 . S
H1026 C1034 0.930 . S
H1027 C1035 0.930 . S
H1028 C1038 0.930 . S
H1029 C1039 0.930 . S
C1030 H1024 0.930 . S
C1030 C1031 1.355 . S
C1030 C1032 1.415 . S
C1031 C1030 1.355 . S
C1031 C1033 1.419 . S
C1032 C1030 1.415 . S
C1032 C1037 1.425 . S
C1032 C1039 1.409 . S
C1033 H1025 0.930 . S
C1033 C1031 1.419 . S
C1033 C1034 1.362 . S
C1034 H1026 0.930 . S
C1034 C1033 1.362 . S
C1034 C1037 1.409 . S
C1035 H1027 0.930 . S
C1035 C1036 1.355 . S
C1035 C1037 1.415 . S
C1036 C1035 1.355 . S
C1036 C1038 1.419 . S
C1037 C1032 1.425 . S
C1037 C1034 1.409 . S
C1037 C1035 1.415 . S
C1038 H1028 0.930 . S
C1038 C1036 1.419 . S
C1038 C1039 1.362 . S
C1039 H1029 0.930 . S
C1039 C1032 1.409 . S
C1039 C1038 1.362 . S
H1040 C1046 0.930 . S
H1041 C1049 0.930 . S
H1042 C1050 0.930 . S
H1043 C1051 0.930 . S
H1044 C1054 0.930 . S
H1045 C1055 0.930 . S
C1046 H1040 0.930 . S
C1046 C1047 1.355 . S
C1046 C1048 1.415 . S
C1047 C1046 1.355 . S
C1047 C1049 1.419 . S
C1048 C1046 1.415 . S
C1048 C1053 1.425 . S
C1048 C1055 1.409 . S
C1049 H1041 0.930 . S
C1049 C1047 1.419 . S
C1049 C1050 1.362 . S
C1050 H1042 0.930 . S
C1050 C1049 1.362 . S
C1050 C1053 1.409 . S
C1051 H1043 0.930 . S
C1051 C1052 1.355 . S
C1051 C1053 1.415 . S
C1052 C1051 1.355 . S
C1052 C1054 1.419 . S
C1053 C1048 1.425 . S
C1053 C1050 1.409 . S
C1053 C1051 1.415 . S
C1054 H1044 0.930 . S
C1054 C1052 1.419 . S
C1054 C1055 1.362 . S
C1055 H1045 0.930 . S
C1055 C1048 1.409 . S
C1055 C1054 1.362 . S
H1056 C1062 0.930 . S
H1057 C1065 0.930 . S
H1058 C1066 0.930 . S
H1059 C1067 0.930 . S
H1060 C1070 0.930 . S
H1061 C1071 0.930 . S
C1062 H1056 0.930 . S
C1062 C1063 1.355 . S
C1062 C1064 1.415 . S
C1063 C1062 1.355 . S
C1063 C1065 1.419 . S
C1064 C1062 1.415 . S
C1064 C1069 1.425 . S
C1064 C1071 1.409 . S
C1065 H1057 0.930 . S
C1065 C1063 1.419 . S
C1065 C1066 1.362 . S
C1066 H1058 0.930 . S
C1066 C1065 1.362 . S
C1066 C1069 1.409 . S
C1067 H1059 0.930 . S
C1067 C1068 1.355 . S
C1067 C1069 1.415 . S
C1068 C1067 1.355 . S
C1068 C1070 1.419 . S
C1069 C1064 1.425 . S
C1069 C1066 1.409 . S
C1069 C1067 1.415 . S
C1070 H1060 0.930 . S
C1070 C1068 1.419 . S
C1070 C1071 1.362 . S
C1071 H1061 0.930 . S
C1071 C1064 1.409 . S
C1071 C1070 1.362 . S
H1072 C1078 0.930 . S
H1073 C1081 0.930 . S
H1074 C1082 0.930 . S
H1075 C1083 0.930 . S
H1076 C1086 0.930 . S
H1077 C1087 0.930 . S
C1078 H1072 0.930 . S
C1078 C1079 1.355 . S
C1078 C1080 1.415 . S
C1079 C1078 1.355 . S
C1079 C1081 1.419 . S
C1080 C1078 1.415 . S
C1080 C1085 1.425 . S
C1080 C1087 1.409 . S
C1081 H1073 0.930 . S
C1081 C1079 1.419 . S
C1081 C1082 1.362 . S
C1082 H1074 0.930 . S
C1082 C1081 1.362 . S
C1082 C1085 1.409 . S
C1083 H1075 0.930 . S
C1083 C1084 1.355 . S
C1083 C1085 1.415 . S
C1084 C1083 1.355 . S
C1084 C1086 1.419 . S
C1085 C1080 1.425 . S
C1085 C1082 1.409 . S
C1085 C1083 1.415 . S
C1086 H1076 0.930 . S
C1086 C1084 1.419 . S
C1086 C1087 1.362 . S
C1087 H1077 0.930 . S
C1087 C1080 1.409 . S
C1087 C1086 1.362 . S
H1088 C1094 0.930 . S
H1089 C1097 0.930 . S
H1090 C1098 0.930 . S
H1091 C1099 0.930 . S
H1092 C1102 0.930 . S
H1093 C1103 0.930 . S
C1094 H1088 0.930 . S
C1094 C1095 1.355 . S
C1094 C1096 1.415 . S
C1095 C1094 1.355 . S
C1095 C1097 1.419 . S
C1096 C1094 1.415 . S
C1096 C1101 1.425 . S
C1096 C1103 1.409 . S
C1097 H1089 0.930 . S
C1097 C1095 1.419 . S
C1097 C1098 1.362 . S
C1098 H1090 0.930 . S
C1098 C1097 1.362 . S
C1098 C1101 1.409 . S
C1099 H1091 0.930 . S
C1099 C1100 1.355 . S
C1099 C1101 1.415 . S
C1100 C1099 1.355 . S
C1100 C1102 1.419 . S
C1101 C1096 1.425 . S
C1101 C1098 1.409 . S
C1101 C1099 1.415 . S
C1102 H1092 0.930 . S
C1102 C1100 1.419 . S
C1102 C1103 1.362 . S
C1103 H1093 0.930 . S
C1103 C1096 1.409 . S
C1103 C1102 1.362 . S
C343 C5 1.526 . S
C348 C103 1.548 . S
C359 C117 1.520 . S
C364 C19 1.532 . S
C375 C33 1.548 . S
C380 C131 1.541 . S
C391 C47 1.538 . S
C396 C145 1.550 . S
C407 C159 1.548 . S
C412 C61 1.541 . S
C423 C75 1.547 . S
C428 C89 1.542 . S
C439 C173 1.532 . S
C444 C271 1.550 . S
C455 C187 1.529 . S
C460 C285 1.521 . S
C471 C299 1.532 . S
C476 C201 1.520 . S
C487 C215 1.535 . S
C492 C313 1.519 . S
C503 C229 1.521 . S
C508 C327 1.531 . S
C519 C257 1.537 . S
C524 C243 1.519 . S
C535 C11 1.404 . S
C540 C123 1.396 . S
C551 C137 1.390 . S
C556 C25 1.389 . S
C567 C151 1.404 . S
C572 C39 1.392 . S
C583 C53 1.388 . S
C588 C165 1.391 . S
C599 C67 1.392 . S
C604 C95 1.387 . S
C615 C81 1.391 . S
C620 C109 1.404 . S
C631 C291 1.386 . S
C636 C179 1.393 . S
C647 C193 1.389 . S
C652 C305 1.389 . S
C663 C319 1.401 . S
C668 C207 1.388 . S
C679 C333 1.391 . S
C684 C221 1.404 . S
C695 C263 1.386 . S
C700 C235 1.396 . S
C711 C249 1.404 . S
C716 C277 1.395 . S
C727 C9 1.588 . S
C732 C219 1.576 . S
C743 C233 1.584 . S
C748 C23 1.580 . S
C759 C247 1.577 . S
C764 C37 1.587 . S
C775 C51 1.577 . S
C780 C177 1.587 . S
C791 C65 1.580 . S
C796 C191 1.584 . S
C807 C205 1.578 . S
C812 C79 1.586 . S
C823 C303 1.575 . S
C828 C93 1.589 . S
C839 C317 1.585 . S
C844 C107 1.579 . S
C855 C331 1.587 . S
C860 C121 1.577 . S
C871 C261 1.576 . S
C876 C135 1.588 . S
C887 C149 1.574 . S
C892 C275 1.589 . S
C903 C163 1.575 . S
C908 C289 1.589 . S
C919 C0 1.413 . S
C924 C140 1.404 . S
C935 C154 1.465 . S
C940 C14 1.447 . S
C951 C84 1.403 . S
C956 C28 1.431 . S
C967 C42 1.443 . S
C972 C98 1.465 . S
C983 C56 1.437 . S
C988 C112 1.464 . S
C999 C70 1.463 . S
C1004 C126 1.433 . S
C1015 C168 1.444 . S
C1020 C308 1.465 . S
C1031 C182 1.456 . S
C1036 C322 1.420 . S
C1047 C196 1.461 . S
C1052 C252 1.457 . S
C1063 C266 1.411 . S
C1068 C210 1.405 . S
C1079 C224 1.406 . S
C1084 C280 1.410 . S
C1095 C238 1.407 . S
C1100 C294 1.409 . S
