# Generated by pormake.
# Topology upc, (4)-cn, num edge types: 1
# Building blocks:
#     Node 0, Type 0, BuildingBlock: MUDLON_clean_sbu_0, # of connection points: 4
#     Node 1, Type 0, BuildingBlock: MUDLON_clean_sbu_0, # of connection points: 4
#     Node 2, Type 0, BuildingBlock: MUDLON_clean_sbu_0, # of connection points: 4
#     Node 3, Type 0, BuildingBlock: MUDLON_clean_sbu_0, # of connection points: 4
#     Node 4, Type 0, BuildingBlock: MUDLON_clean_sbu_0, # of connection points: 4
#     Node 5, Type 0, BuildingBlock: MUDLON_clean_sbu_0, # of connection points: 4
#     Node 6, Type 0, BuildingBlock: MUDLON_clean_sbu_0, # of connection points: 4
#     Node 7, Type 0, BuildingBlock: MUDLON_clean_sbu_0, # of connection points: 4
#     Node 8, Type 0, BuildingBlock: MUDLON_clean_sbu_0, # of connection points: 4
#     Node 9, Type 0, BuildingBlock: MUDLON_clean_sbu_0, # of connection points: 4
#     Node 10, Type 0, BuildingBlock: MUDLON_clean_sbu_0, # of connection points: 4
#     Node 11, Type 0, BuildingBlock: MUDLON_clean_sbu_0, # of connection points: 4
#     Node 12, Type 0, BuildingBlock: MUDLON_clean_sbu_0, # of connection points: 4
#     Node 13, Type 0, BuildingBlock: MUDLON_clean_sbu_0, # of connection points: 4
#     Node 14, Type 0, BuildingBlock: MUDLON_clean_sbu_0, # of connection points: 4
#     Node 15, Type 0, BuildingBlock: MUDLON_clean_sbu_0, # of connection points: 4
#     Edge 16, Type (0, 0), BuildingBlock: KIFKEQ_clean_linker_1, # of connection points: 2
#     Edge 17, Type (0, 0), BuildingBlock: KIFKEQ_clean_linker_1, # of connection points: 2
#     Edge 18, Type (0, 0), BuildingBlock: KIFKEQ_clean_linker_1, # of connection points: 2
#     Edge 19, Type (0, 0), BuildingBlock: KIFKEQ_clean_linker_1, # of connection points: 2
#     Edge 20, Type (0, 0), BuildingBlock: KIFKEQ_clean_linker_1, # of connection points: 2
#     Edge 21, Type (0, 0), BuildingBlock: KIFKEQ_clean_linker_1, # of connection points: 2
#     Edge 22, Type (0, 0), BuildingBlock: KIFKEQ_clean_linker_1, # of connection points: 2
#     Edge 23, Type (0, 0), BuildingBlock: KIFKEQ_clean_linker_1, # of connection points: 2
#     Edge 24, Type (0, 0), BuildingBlock: KIFKEQ_clean_linker_1, # of connection points: 2
#     Edge 25, Type (0, 0), BuildingBlock: KIFKEQ_clean_linker_1, # of connection points: 2
#     Edge 26, Type (0, 0), BuildingBlock: KIFKEQ_clean_linker_1, # of connection points: 2
#     Edge 27, Type (0, 0), BuildingBlock: KIFKEQ_clean_linker_1, # of connection points: 2
#     Edge 28, Type (0, 0), BuildingBlock: KIFKEQ_clean_linker_1, # of connection points: 2
#     Edge 29, Type (0, 0), BuildingBlock: KIFKEQ_clean_linker_1, # of connection points: 2
#     Edge 30, Type (0, 0), BuildingBlock: KIFKEQ_clean_linker_1, # of connection points: 2
#     Edge 31, Type (0, 0), BuildingBlock: KIFKEQ_clean_linker_1, # of connection points: 2
#     Edge 32, Type (0, 0), BuildingBlock: KIFKEQ_clean_linker_1, # of connection points: 2
#     Edge 33, Type (0, 0), BuildingBlock: KIFKEQ_clean_linker_1, # of connection points: 2
#     Edge 34, Type (0, 0), BuildingBlock: KIFKEQ_clean_linker_1, # of connection points: 2
#     Edge 35, Type (0, 0), BuildingBlock: KIFKEQ_clean_linker_1, # of connection points: 2
#     Edge 36, Type (0, 0), BuildingBlock: KIFKEQ_clean_linker_1, # of connection points: 2
#     Edge 37, Type (0, 0), BuildingBlock: KIFKEQ_clean_linker_1, # of connection points: 2
#     Edge 38, Type (0, 0), BuildingBlock: KIFKEQ_clean_linker_1, # of connection points: 2
#     Edge 39, Type (0, 0), BuildingBlock: KIFKEQ_clean_linker_1, # of connection points: 2
#     Edge 40, Type (0, 0), BuildingBlock: KIFKEQ_clean_linker_1, # of connection points: 2
#     Edge 41, Type (0, 0), BuildingBlock: KIFKEQ_clean_linker_1, # of connection points: 2
#     Edge 42, Type (0, 0), BuildingBlock: KIFKEQ_clean_linker_1, # of connection points: 2
#     Edge 43, Type (0, 0), BuildingBlock: KIFKEQ_clean_linker_1, # of connection points: 2
#     Edge 44, Type (0, 0), BuildingBlock: KIFKEQ_clean_linker_1, # of connection points: 2
#     Edge 45, Type (0, 0), BuildingBlock: KIFKEQ_clean_linker_1, # of connection points: 2
#     Edge 46, Type (0, 0), BuildingBlock: KIFKEQ_clean_linker_1, # of connection points: 2
#     Edge 47, Type (0, 0), BuildingBlock: KIFKEQ_clean_linker_1, # of connection points: 2
# Relax obj value: 0.271
# Max RMSD: 0.206
# Mean RMSD: 0.206
data_MOF--net-upc--node1-MUDLON_clean_sbu_0--edge1-KIFKEQ_clean_linker_1
_symmetry_space_group_name_H-M    P1
_symmetry_Int_Tables_number       1
_symmetry_cell_setting            triclinic
loop_
_symmetry_equiv_pos_as_xyz
'x, y, z'
_cell_length_a     36.311063
_cell_length_b     36.854817
_cell_length_c     43.118872
_cell_angle_alpha  90.073278
_cell_angle_beta   89.19145
_cell_angle_gamma 90.068553
loop_
_atom_site_label
_atom_site_type_symbol
_atom_site_fract_x
_atom_site_fract_y
_atom_site_fract_z
_atom_type_partial_charge
Mg0 Mg 0.08796 0.62401 0.13885 0.0
C1 C 0.04074 0.59233 0.18767 0.0
O2 O 0.01741 0.59835 0.16523 0.0
C3 C 0.14883 0.68022 0.13785 0.0
O4 O 0.11988 0.70154 0.13759 0.0
C5 C 0.08511 0.57422 0.07986 0.0
O6 O 0.09894 0.60219 0.06483 0.0
O7 O 0.0799 0.57645 0.10905 0.0
O8 O 0.07397 0.6023 0.18402 0.0
O9 O 0.04876 0.66496 0.12352 0.0
C10 C 0.02894 0.69038 0.13496 0.0
O11 O 1.00799 0.70848 0.11579 0.0
O12 O 0.144 0.64597 0.13787 0.0
Mg13 Mg 0.8628 0.07369 0.16225 0.0
C14 C 0.89764 0.02725 0.20928 0.0
O15 O 0.88273 1.00325 0.19071 0.0
C16 C 0.8118 0.13526 0.14737 0.0
O17 O 0.79652 0.10855 0.13194 0.0
C18 C 0.91098 0.03678 0.1119 0.0
O19 O 0.8933 1.00807 0.12234 0.0
O20 O 0.90325 0.06771 0.12363 0.0
O21 O 0.89239 0.06074 0.20403 0.0
O22 O 0.8172 0.03595 0.1555 0.0
C23 C 0.79443 0.01775 0.17211 0.0
O24 O 0.77143 0.99618 0.1577 0.0
O25 O 0.8407 0.1288 0.1628 0.0
Mg26 Mg 0.46895 0.83922 0.14735 0.0
C27 C 0.5264 0.8616 0.19177 0.0
O28 O 0.54603 0.84523 0.17013 0.0
C29 C 0.40352 0.79259 0.13491 0.0
O30 O 0.42797 0.78016 0.11484 0.0
C31 C 0.5029 0.89229 0.10156 0.0
O32 O 0.53242 0.87465 0.11023 0.0
O33 O 0.47166 0.88253 0.11251 0.0
O34 O 0.49158 0.86273 0.18919 0.0
O35 O 0.50341 0.79393 0.13219 0.0
C36 C 0.51949 0.76809 0.14627 0.0
O37 O 0.53932 0.7454 0.12948 0.0
O38 O 0.4126 0.81877 0.15254 0.0
Mg39 Mg 0.64966 0.44973 0.12915 0.0
C40 C 0.62386 0.49497 0.18364 0.0
O41 O 0.64348 0.51982 0.16913 0.0
C42 C 0.7056 0.38835 0.12996 0.0
O43 O 0.7281 0.41591 0.12594 0.0
C44 C 0.59156 0.48656 0.0911 0.0
O45 O 0.60086 0.51242 0.11048 0.0
O46 O 0.60792 0.45604 0.09292 0.0
O47 O 0.62198 0.46319 0.17238 0.0
O48 O 0.69457 0.48736 0.11827 0.0
C49 C 0.72129 0.5038 0.13116 0.0
O50 O 0.74168 0.52508 0.1135 0.0
O51 O 0.67107 0.39428 0.13156 0.0
Mg52 Mg 0.07824 0.84651 0.39233 0.0
C53 C 0.06909 0.9226 0.36479 0.0
O54 O 0.06953 0.93329 0.39386 0.0
C55 C 0.13696 0.79939 0.41522 0.0
O56 O 0.10682 0.7805 0.42056 0.0
C57 C 0.01907 0.88352 0.43227 0.0
O58 O 1.00298 0.88627 0.40527 0.0
O59 O 0.04884 0.86543 0.43401 0.0
O60 O 0.07563 0.88955 0.35834 0.0
O61 O 0.05828 0.79982 0.36634 0.0
C62 C 0.03128 0.80184 0.34796 0.0
O63 O 1.01028 0.83083 0.34869 0.0
O64 O 0.13401 0.83106 0.40381 0.0
Mg65 Mg 0.676 0.04966 0.40925 0.0
C66 C 0.65772 0.99341 0.3627 0.0
O67 O 0.67706 0.97473 0.38263 0.0
C68 C 0.71813 0.11727 0.42138 0.0
O69 O 0.7332 0.09422 0.44063 0.0
C70 C 0.60797 0.02145 0.44552 0.0
O71 O 0.60536 1.00121 0.42055 0.0
O72 O 0.63473 0.04383 0.44734 0.0
O73 O 0.6529 0.02714 0.36739 0.0
O74 O 0.72633 0.02016 0.42011 0.0
C75 C 0.75434 1.0082 0.40505 0.0
O76 O 0.77933 0.99052 0.42076 0.0
O77 O 0.69181 0.10641 0.40452 0.0
Mg78 Mg 0.44986 0.63692 0.407 0.0
C79 C 0.49283 0.58024 0.37562 0.0
O80 O 0.51295 0.58874 0.39966 0.0
C81 C 0.38615 0.6801 0.42619 0.0
O82 O 0.41455 0.69853 0.43638 0.0
C83 C 0.45988 0.5839 0.45619 0.0
O84 O 0.4368 0.56932 0.43653 0.0
O85 O 0.47124 0.61612 0.45096 0.0
O86 O 0.46133 0.5949 0.37304 0.0
O87 O 0.47132 0.68492 0.38287 0.0
C88 C 0.50168 0.68557 0.36776 0.0
O89 O 0.52599 0.65989 0.3725 0.0
O90 O 0.39196 0.64979 0.41285 0.0
Mg91 Mg 0.86391 0.4366 0.39264 0.0
C92 C 0.94154 0.44461 0.36388 0.0
O93 O 0.95267 0.44696 0.39267 0.0
C94 C 0.81461 0.3742 0.40745 0.0
O95 O 0.79116 0.4013 0.40687 0.0
C96 C 0.90241 0.49471 0.432 0.0
O97 O 0.90531 0.51079 0.40489 0.0
O98 O 0.88387 0.46537 0.43405 0.0
O99 O 0.90796 0.43766 0.3585 0.0
O100 O 0.81811 0.45748 0.36532 0.0
C101 C 0.82213 0.48428 0.347 0.0
O102 O 0.85217 0.50404 0.34865 0.0
O103 O 0.84872 0.38084 0.40331 0.0
Mg104 Mg 0.95314 0.34979 0.88636 0.0
C105 C 1.00037 0.31373 0.83708 0.0
O106 O 0.0172 0.34517 0.83943 0.0
C107 C 0.96654 0.38114 0.94949 0.0
O108 O 0.93128 0.38778 0.94608 0.0
C109 C 0.88746 0.3135 0.91625 0.0
O110 O 0.91414 0.29946 0.93264 0.0
O111 O 0.89547 0.3369 0.89557 0.0
O112 O 0.97435 0.30644 0.85617 0.0
O113 O 0.95973 0.39818 0.85777 0.0
C114 C 0.98489 0.4206 0.86502 0.0
O115 O 1.00251 0.41582 0.89104 0.0
O116 O 0.98302 0.36175 0.92913 0.0
Mg117 Mg 0.16876 0.96866 0.90323 0.0
C118 C 0.24582 0.01153 0.89584 0.0
O119 O 0.27225 0.02884 0.91024 0.0
C120 C 0.10843 1.00423 0.9438 0.0
O121 O 0.11208 0.02924 0.9223 0.0
C122 C 0.21138 0.89942 0.91072 0.0
O123 O 0.23064 0.92159 0.92804 0.0
O124 O 0.18281 0.91148 0.89745 0.0
O125 O 0.21988 0.99783 0.91239 0.0
O126 O 0.14439 0.98927 0.86136 0.0
C127 C 0.14931 0.02219 0.85361 0.0
O128 O 0.16933 0.04332 0.87123 0.0
O129 O 0.12873 0.97602 0.94204 0.0
Mg130 Mg 0.56078 0.17034 0.92037 0.0
C131 C 0.50792 0.23781 0.92539 0.0
O132 O 0.48592 0.25868 0.94199 0.0
C133 C 0.53154 0.11906 0.97013 0.0
O134 O 0.50549 0.14376 0.97108 0.0
C135 C 0.63192 0.20616 0.93754 0.0
O136 O 0.61362 0.20812 0.96399 0.0
O137 O 0.61682 0.19072 0.91457 0.0
O138 O 0.52581 0.21307 0.93927 0.0
O139 O 0.53707 0.1515 0.87754 0.0
C140 C 0.50221 0.14839 0.87764 0.0
O141 O 0.48347 0.15792 0.90263 0.0
O142 O 0.55889 0.12361 0.95171 0.0
Mg143 Mg 0.35305 0.57746 0.88125 0.0
C144 C 0.27894 0.53048 0.86691 0.0
O145 O 0.25537 0.50706 0.87879 0.0
C146 C 0.3912 0.53718 0.93448 0.0
O147 O 0.37 0.51059 0.925 0.0
C148 C 0.29893 0.64041 0.88514 0.0
O149 O 0.27533 0.6135 0.88754 0.0
O150 O 0.33308 0.63329 0.88203 0.0
O151 O 0.30663 0.53933 0.88326 0.0
O152 O 0.39078 0.56878 0.84254 0.0
C153 C 0.40511 0.53743 0.84049 0.0
O154 O 0.39379 0.51204 0.85975 0.0
O155 O 0.3885 0.56816 0.92156 0.0
Mg156 Mg 0.96585 0.14945 0.62407 0.0
C157 C 0.0234 0.21326 0.62265 0.0
O158 O 0.04681 0.23392 0.60727 0.0
C159 C 0.96938 0.07236 0.59783 0.0
O160 O 0.97202 0.0646 0.62744 0.0
C161 C 0.90252 0.20079 0.61541 0.0
O162 O 0.9267 0.2146 0.59577 0.0
O163 O 0.91113 0.1726 0.63067 0.0
O164 O 1.00357 0.19117 0.60738 0.0
O165 O 0.9883 0.12896 0.66671 0.0
C166 C 0.02287 0.12368 0.6666 0.0
O167 O 0.04199 0.13044 0.64116 0.0
O168 O 0.96563 0.10539 0.58979 0.0
Mg169 Mg 0.34871 0.96993 0.65619 0.0
C170 C 0.27372 0.0161 0.66166 0.0
O171 O 0.24896 0.03517 0.64688 0.0
C172 C 0.40658 1.0036 0.61177 0.0
O173 O 0.39703 0.03297 0.62716 0.0
C174 C 0.30212 0.90466 0.64535 0.0
O175 O 0.28652 0.92911 0.62772 0.0
O176 O 0.3303 0.91373 0.66081 0.0
O177 O 0.29994 1.00208 0.64562 0.0
O178 O 0.37337 0.99137 0.69785 0.0
C179 C 0.36968 0.02514 0.70305 0.0
O180 O 0.35066 0.04487 0.68365 0.0
O181 O 0.39055 0.97373 0.61847 0.0
Mg182 Mg 0.60108 0.38032 0.66864 0.0
C183 C 0.54924 0.35048 0.71733 0.0
O184 O 0.54036 0.38502 0.71794 0.0
C185 C 0.54547 0.42451 0.63224 0.0
O186 O 0.53255 0.43024 0.66043 0.0
C187 C 0.65672 0.32366 0.65155 0.0
O188 O 0.62667 0.30395 0.65423 0.0
O189 O 0.65449 0.35777 0.65572 0.0
O190 O 0.57192 0.33948 0.69659 0.0
O191 O 0.60665 0.42425 0.70164 0.0
C192 C 0.60257 0.45753 0.69483 0.0
O193 O 0.60385 0.4674 0.66557 0.0
O194 O 0.57226 0.40255 0.62842 0.0
Mg195 Mg 0.147 0.58645 0.638 0.0
C196 C 0.22235 0.53827 0.64114 0.0
O197 O 0.24395 0.5168 0.62471 0.0
C198 C 0.09205 0.54984 0.59629 0.0
O199 O 0.10269 0.52266 0.61368 0.0
C200 C 0.20091 0.6493 0.63838 0.0
O201 O 0.22351 0.62276 0.63109 0.0
O202 O 0.16682 0.64227 0.64234 0.0
O203 O 0.19383 0.55076 0.6278 0.0
O204 O 0.11758 0.56981 0.67968 0.0
C205 C 0.12251 0.5384 0.69091 0.0
O206 O 0.14636 0.5164 0.67757 0.0
O207 O 0.10661 0.58092 0.60058 0.0
H208 H 0.21533 0.64484 0.13629 0.0
H209 H 0.16738 0.75198 0.14105 0.0
H210 H 0.27684 0.67168 0.13725 0.0
H211 H 0.22873 0.77873 0.14156 0.0
H212 H 0.34452 0.81254 0.17182 0.0
H213 H 0.2833 0.78479 0.17389 0.0
H214 H 0.31709 0.70765 0.1036 0.0
H215 H 0.3781 0.73487 0.10183 0.0
C216 C 0.21788 0.67409 0.13749 0.0
C217 C 0.18638 0.69621 0.13849 0.0
C218 C 0.25314 0.6895 0.13792 0.0
C219 C 0.25776 0.7274 0.13946 0.0
C220 C 0.22623 0.74946 0.14075 0.0
C221 C 0.19101 0.73407 0.14022 0.0
C222 C 0.33887 0.78961 0.15688 0.0
C223 C 0.36625 0.776 0.13665 0.0
C224 C 0.30374 0.7738 0.15795 0.0
C225 C 0.29526 0.74392 0.13894 0.0
C226 C 0.32277 0.73025 0.11889 0.0
C227 C 0.35775 0.74609 0.11773 0.0
H228 H 0.75017 0.15678 0.11686 0.0
H229 H 0.83696 0.19759 0.17494 0.0
H230 H 0.72435 0.21753 0.11337 0.0
H231 H 0.81065 0.25843 0.17188 0.0
H232 H 0.77783 0.36767 0.12909 0.0
H233 H 0.80291 0.30678 0.13423 0.0
H234 H 0.6927 0.26362 0.14395 0.0
H235 H 0.66749 0.32461 0.13825 0.0
C236 C 0.76366 0.17867 0.12906 0.0
C237 C 0.79574 0.17226 0.14612 0.0
C238 C 0.74867 0.21352 0.12721 0.0
C239 C 0.76537 0.24294 0.14233 0.0
C240 C 0.79732 0.23649 0.15961 0.0
C241 C 0.81231 0.20156 0.16152 0.0
C242 C 0.75887 0.34523 0.1323 0.0
C243 C 0.72059 0.35108 0.13316 0.0
C244 C 0.77332 0.31029 0.13549 0.0
C245 C 0.74988 0.28024 0.13957 0.0
C246 C 0.71156 0.28608 0.14048 0.0
C247 C 0.69709 0.32109 0.13735 0.0
H248 H 0.1513 0.73072 0.43518 0.0
H249 H 0.20518 0.82979 0.40586 0.0
H250 H 0.21101 0.70141 0.44012 0.0
H251 H 0.265 0.80022 0.41054 0.0
H252 H 0.36675 0.74599 0.45012 0.0
H253 H 0.30648 0.77484 0.44976 0.0
H254 H 0.26088 0.6803 0.40506 0.0
H255 H 0.32125 0.65113 0.40568 0.0
C256 C 0.17589 0.74634 0.42992 0.0
C257 C 0.17346 0.78261 0.42005 0.0
C258 C 0.21009 0.72941 0.43257 0.0
C259 C 0.2427 0.7484 0.42557 0.0
C260 C 0.24036 0.78494 0.41637 0.0
C261 C 0.2061 0.80185 0.41357 0.0
C262 C 0.34386 0.73117 0.4404 0.0
C263 C 0.34885 0.69625 0.42783 0.0
C264 C 0.30936 0.74786 0.44003 0.0
C265 C 0.27898 0.72997 0.42721 0.0
C266 C 0.28372 0.69468 0.41534 0.0
C267 C 0.31832 0.67801 0.41559 0.0
H268 H 0.85489 0.31131 0.40928 0.0
H269 H 0.7432 0.35166 0.41278 0.0
H270 H 0.8316 0.24918 0.41227 0.0
H271 H 0.72008 0.28973 0.41611 0.0
H272 H 0.69179 0.17338 0.38632 0.0
H273 H 0.71562 0.23532 0.3832 0.0
H274 H 0.7999 0.20831 0.44896 0.0
H275 H 0.77649 0.14646 0.45183 0.0
C276 C 0.82542 0.30697 0.41089 0.0
C277 C 0.80093 0.33647 0.41077 0.0
C278 C 0.81208 0.27137 0.41269 0.0
C279 C 0.77396 0.26452 0.41428 0.0
C280 C 0.74955 0.29406 0.41444 0.0
C281 C 0.76287 0.32959 0.41277 0.0
C282 C 0.7154 0.18067 0.40009 0.0
C283 C 0.73218 0.15497 0.41934 0.0
C284 C 0.72895 0.21619 0.39843 0.0
C285 C 0.75966 0.22673 0.41585 0.0
C286 C 0.77649 0.20096 0.43497 0.0
C287 C 0.76287 0.16555 0.43675 0.0
H288 H 0.8277 0.32772 0.88005 0.0
H289 H 0.86057 0.2686 0.96157 0.0
H290 H 0.7656 0.3026 0.88531 0.0
H291 H 0.79869 0.24341 0.96665 0.0
H292 H 0.67406 0.23476 0.98352 0.0
H293 H 0.73489 0.26242 0.97876 0.0
H294 H 0.73506 0.2424 0.88006 0.0
H295 H 0.67396 0.2149 0.88474 0.0
C296 C 0.82165 0.30956 0.89919 0.0
C297 C 0.84914 0.30015 0.92037 0.0
C298 C 0.78615 0.29496 0.90205 0.0
C299 C 0.77725 0.2709 0.92632 0.0
C300 C 0.80455 0.2621 0.94784 0.0
C301 C 0.84009 0.27645 0.94484 0.0
C302 C 0.68703 0.23621 0.96078 0.0
C303 C 0.66915 0.2225 0.93452 0.0
C304 C 0.72198 0.25195 0.95809 0.0
C305 C 0.73982 0.25461 0.92904 0.0
C306 C 0.72188 0.2411 0.90273 0.0
C307 C 0.68699 0.2251 0.90544 0.0
H308 H 0.22797 0.66449 0.8912 0.0
H309 H 0.34032 0.70262 0.88361 0.0
H310 H 0.20659 0.72687 0.89663 0.0
H311 H 0.31883 0.76506 0.88851 0.0
H312 H 0.27149 0.86654 0.93548 0.0
H313 H 0.29223 0.80434 0.92819 0.0
H314 H 0.20027 0.78373 0.86816 0.0
H315 H 0.17906 0.84604 0.87588 0.0
C316 C 0.24812 0.68618 0.89048 0.0
C317 C 0.2859 0.6785 0.88712 0.0
C318 C 0.2358 0.72199 0.89341 0.0
C319 C 0.26098 0.751 0.89311 0.0
C320 C 0.29873 0.74334 0.88929 0.0
C321 C 0.31104 0.70753 0.8863 0.0
C322 C 0.25561 0.8488 0.92073 0.0
C323 C 0.22356 0.86133 0.90629 0.0
C324 C 0.26769 0.81315 0.91637 0.0
C325 C 0.24804 0.78904 0.89747 0.0
C326 C 0.21587 0.80149 0.8831 0.0
C327 C 0.20379 0.83725 0.88743 0.0
H328 H 0.67034 0.25135 0.64377 0.0
H329 H 0.72454 0.3558 0.64486 0.0
H330 H 0.72941 0.22176 0.63453 0.0
H331 H 0.78381 0.32603 0.63605 0.0
H332 H 0.87732 0.26264 0.58806 0.0
H333 H 0.81799 0.29229 0.59605 0.0
H334 H 0.78649 0.20933 0.66197 0.0
H335 H 0.84568 0.17931 0.65366 0.0
C336 C 0.69485 0.26804 0.64204 0.0
C337 C 0.69268 0.30598 0.64508 0.0
C338 C 0.72877 0.25101 0.63694 0.0
C339 C 0.76137 0.27149 0.63468 0.0
C340 C 0.75917 0.30948 0.63738 0.0
C341 C 0.72522 0.32654 0.64256 0.0
C342 C 0.85774 0.25064 0.60423 0.0
C343 C 0.86625 0.21854 0.62019 0.0
C344 C 0.8238 0.2678 0.60894 0.0
C345 C 0.7975 0.25322 0.62967 0.0
C346 C 0.80596 0.22104 0.64556 0.0
C347 C 0.83997 0.20392 0.64092 0.0
H348 H 0.27265 0.67144 0.63573 0.0
H349 H 0.16188 0.71194 0.64886 0.0
H350 H 0.29661 0.733 0.6396 0.0
H351 H 0.18602 0.77362 0.65313 0.0
H352 H 0.2398 0.87959 0.61807 0.0
H353 H 0.21515 0.81823 0.61852 0.0
H354 H 0.30469 0.78355 0.67629 0.0
H355 H 0.32979 0.8452 0.67556 0.0
C356 C 0.25338 0.69345 0.6396 0.0
C357 C 0.21528 0.68676 0.64178 0.0
C358 C 0.2672 0.72874 0.64207 0.0
C359 C 0.24326 0.75825 0.64665 0.0
C360 C 0.20517 0.75152 0.64925 0.0
C361 C 0.19134 0.71616 0.64693 0.0
C362 C 0.25427 0.85898 0.63097 0.0
C363 C 0.28689 0.86732 0.64668 0.0
C364 C 0.23992 0.8238 0.63141 0.0
C365 C 0.25788 0.79598 0.64748 0.0
C366 C 0.29037 0.80432 0.66345 0.0
C367 C 0.30467 0.83966 0.66314 0.0
H368 H 1.00091 0.49009 0.3675 0.0
H369 H 0.93314 0.43237 0.30225 0.0
H370 H 0.02823 0.52507 0.32496 0.0
H371 H 0.96103 0.46657 0.25976 0.0
H372 H 0.08396 0.56659 0.2344 0.0
H373 H 0.06533 0.52623 0.27679 0.0
H374 H 0.95304 0.52958 0.24504 0.0
H375 H 0.97164 0.56905 0.20257 0.0
C376 C 0.99273 0.48405 0.34399 0.0
C377 C 0.96456 0.45885 0.3382 0.0
C378 C 1.00832 0.50415 0.31963 0.0
C379 C 0.9961 0.49918 0.28911 0.0
C380 C 0.97023 0.47175 0.28314 0.0
C381 C 0.95451 0.45191 0.30743 0.0
C382 C 0.05527 0.55882 0.23662 0.0
C383 C 0.02929 0.57078 0.21501 0.0
C384 C 0.04463 0.53572 0.26088 0.0
C385 C 1.00786 0.52419 0.26392 0.0
C386 C 0.98179 0.53714 0.24284 0.0
C387 C 0.99238 0.56009 0.21865 0.0
H388 H 0.93782 0.06944 0.24909 0.0
H389 H 0.91585 0.95794 0.22413 0.0
H390 H 0.98418 0.04894 0.28586 0.0
H391 H 0.96158 0.93769 0.26079 0.0
H392 H 0.06875 0.91107 0.3024 0.0
H393 H 0.02916 0.94012 0.26477 0.0
H394 H 0.98938 0.01398 0.33545 0.0
H395 H 0.0295 0.98521 0.3732 0.0
C396 C 0.94265 0.04061 0.25161 0.0
C397 C 0.92333 0.01532 0.23353 0.0
C398 C 0.96918 0.02891 0.27263 0.0
C399 C 0.97697 0.99177 0.27578 0.0
C400 C 0.95688 0.96656 0.25832 0.0
C401 C 0.93038 0.97817 0.23749 0.0
C402 C 0.0522 0.93402 0.3098 0.0
C403 C 0.0519 0.94551 0.34088 0.0
C404 C 0.02929 0.95047 0.28829 0.0
C405 C 1.00552 0.97873 0.29737 0.0
C406 C 1.00735 0.9922 0.32782 0.0
C407 C 0.03039 0.97574 0.34941 0.0
H408 H 0.66725 0.92336 0.34415 0.0
H409 H 0.60664 0.02091 0.32297 0.0
H410 H 0.63475 0.89105 0.30353 0.0
H411 H 0.57436 0.98851 0.28199 0.0
H412 H 0.49604 0.90615 0.23617 0.0
H413 H 0.52818 0.93845 0.27735 0.0
H414 H 0.63111 0.89102 0.24654 0.0
H415 H 0.59915 0.85854 0.20578 0.0
C416 C 0.64714 0.93798 0.3307 0.0
C417 C 0.63947 0.97467 0.3368 0.0
C418 C 0.62862 0.91948 0.30736 0.0
C419 C 0.60192 0.93723 0.28968 0.0
C420 C 0.59447 0.97403 0.29554 0.0
C421 C 0.61317 0.99263 0.31881 0.0
C422 C 0.52548 0.90248 0.23834 0.0
C423 C 0.54507 0.87984 0.21772 0.0
C424 C 0.5439 0.92118 0.26174 0.0
C425 C 0.58216 0.91734 0.26506 0.0
C426 C 0.60157 0.89427 0.24472 0.0
C427 C 0.58325 0.87578 0.22128 0.0
H428 H 0.63889 0.54993 0.22363 0.0
H429 H 0.56445 0.46009 0.20919 0.0
H430 H 0.60583 0.56535 0.27158 0.0
H431 H 0.53103 0.47599 0.25708 0.0
H432 H 0.46083 0.55891 0.32123 0.0
H433 H 0.49235 0.53415 0.27526 0.0
H434 H 0.5947 0.53237 0.32489 0.0
H435 H 0.56354 0.55647 0.37079 0.0
C436 C 0.61544 0.53355 0.23069 0.0
C437 C 0.60418 0.50387 0.21275 0.0
C438 C 0.59671 0.54222 0.25816 0.0
C439 C 0.56604 0.52173 0.26791 0.0
C440 C 0.55458 0.49217 0.24992 0.0
C441 C 0.57377 0.48306 0.22269 0.0
C442 C 0.48988 0.55254 0.3225 0.0
C443 C 0.50975 0.55998 0.34953 0.0
C444 C 0.50784 0.53836 0.29626 0.0
C445 C 0.54594 0.53188 0.2966 0.0
C446 C 0.56537 0.53761 0.32403 0.0
C447 C 0.54742 0.55126 0.35031 0.0
H448 H 0.05424 0.56122 0.70962 0.0
H449 H 0.14229 0.48807 0.73344 0.0
H450 H 0.01731 0.53825 0.75352 0.0
H451 H 0.10577 0.46587 0.77754 0.0
H452 H 0.04584 0.46304 0.87037 0.0
H453 H 0.07767 0.49628 0.82925 0.0
H454 H 0.9904 0.4703 0.76608 0.0
H455 H 0.95847 0.43614 0.80714 0.0
C456 C 0.0658 0.54057 0.72445 0.0
C457 C 0.10101 0.52627 0.71819 0.0
C458 C 0.04466 0.52742 0.74937 0.0
C459 C 0.05887 0.50049 0.76879 0.0
C460 C 0.0944 0.48687 0.76295 0.0
C461 C 0.11516 0.4994 0.73769 0.0
C462 C 0.03296 0.46486 0.84792 0.0
C463 C 0.99983 0.4465 0.84189 0.0
C464 C 0.05131 0.48384 0.82442 0.0
C465 C 0.03659 0.48541 0.79459 0.0
C466 C 1.00218 0.46942 0.78901 0.0
C467 C 0.984 0.44989 0.81246 0.0
H468 H 0.1653 0.08556 0.82372 0.0
H469 H 0.09364 0.99194 0.82049 0.0
H470 H 0.13463 0.11089 0.77857 0.0
H471 H 0.0631 0.0173 0.77535 0.0
H472 H 0.99113 0.0958 0.71928 0.0
H473 H 0.02237 0.07136 0.76451 0.0
H474 H 0.12777 0.09595 0.72185 0.0
H475 H 0.09669 0.12047 0.67669 0.0
C476 C 0.14303 0.07041 0.81336 0.0
C477 C 0.13172 0.03688 0.8257 0.0
C478 C 0.12563 0.08482 0.78746 0.0
C479 C 0.09638 0.06613 0.77365 0.0
C480 C 0.08528 0.03247 0.78583 0.0
C481 C 0.10293 0.01786 0.8115 0.0
C482 C 0.02096 0.09608 0.7196 0.0
C483 C 0.04147 0.10986 0.69439 0.0
C484 C 0.0388 0.08192 0.74539 0.0
C485 C 0.07745 0.08165 0.74656 0.0
C486 C 0.09794 0.09603 0.7216 0.0
C487 C 0.08012 0.10986 0.6957 0.0
H488 H 0.42836 0.14718 0.86765 0.0
H489 H 0.53243 0.11233 0.82794 0.0
H490 H 0.39587 0.11691 0.82581 0.0
H491 H 0.49974 0.08207 0.78596 0.0
H492 H 0.4242 0.99743 0.73917 0.0
H493 H 0.45657 0.02818 0.78108 0.0
H494 H 0.38894 0.12315 0.76827 0.0
H495 H 0.35657 0.09254 0.72653 0.0
C496 C 0.44431 0.13321 0.8499 0.0
C497 C 0.48294 0.13204 0.85112 0.0
C498 C 0.42569 0.116 0.82591 0.0
C499 C 0.4453 0.097 0.80278 0.0
C500 C 0.48396 0.09617 0.80374 0.0
C501 C 0.50264 0.11372 0.82761 0.0
C502 C 0.41613 0.02478 0.74545 0.0
C503 C 0.38796 0.04264 0.72952 0.0
C504 C 0.43484 0.04245 0.76923 0.0
C505 C 0.42538 0.0781 0.77775 0.0
C506 C 0.39668 0.09562 0.76226 0.0
C507 C 0.37827 0.07813 0.7383 0.0
H508 H 0.60412 0.45118 0.75765 0.0
H509 H 0.55654 0.51471 0.68426 0.0
H510 H 0.55912 0.47598 0.79431 0.0
H511 H 0.51091 0.53882 0.72078 0.0
H512 H 0.44087 0.47344 0.83137 0.0
H513 H 0.49392 0.46156 0.79809 0.0
H514 H 0.49399 0.57328 0.76781 0.0
H515 H 0.44006 0.58515 0.80098 0.0
C516 C 0.58469 0.47123 0.74955 0.0
C517 C 0.58358 0.48064 0.71803 0.0
C518 C 0.55866 0.48513 0.77046 0.0
C519 C 0.5308 0.50853 0.76024 0.0
C520 C 0.53195 0.52077 0.72937 0.0
C521 C 0.55824 0.50703 0.70844 0.0
C522 C 0.45207 0.49553 0.81763 0.0
C523 C 0.43623 0.53024 0.81886 0.0
C524 C 0.48281 0.48882 0.79879 0.0
C525 C 0.49862 0.51665 0.78072 0.0
C526 C 0.48247 0.5513 0.78151 0.0
C527 C 0.45158 0.55806 0.80046 0.0
H528 H 0.07623 0.66987 0.18175 0.0
H529 H 0.98084 0.73576 0.16385 0.0
H530 H 0.07385 0.68809 0.23611 0.0
H531 H 0.98052 0.75692 0.21666 0.0
H532 H 0.97018 0.78178 0.31594 0.0
H533 H 0.968 0.74781 0.26753 0.0
H534 H 0.08636 0.73445 0.26964 0.0
H535 H 0.08768 0.76574 0.3192 0.0
C536 C 0.05442 0.68771 0.18945 0.0
C537 C 0.02827 0.70046 0.16843 0.0
C538 C 0.05343 0.69893 0.22062 0.0
C539 C 0.0268 0.72405 0.23136 0.0
C540 C 1.00083 0.7368 0.21005 0.0
C541 C 1.00136 0.72496 0.1793 0.0
C542 C 0.99553 0.77076 0.30632 0.0
C543 C 0.02904 0.7765 0.32133 0.0
C544 C 0.99448 0.75165 0.27826 0.0
C545 C 0.02716 0.73893 0.26381 0.0
C546 C 0.06047 0.74329 0.27979 0.0
C547 C 0.06131 0.76146 0.30832 0.0
H548 H 0.80784 0.07522 0.21217 0.0
H549 H 0.77634 0.96231 0.20996 0.0
H550 H 0.79742 0.07587 0.26896 0.0
H551 H 0.76643 0.96289 0.26579 0.0
H552 H 0.79593 0.96535 0.36772 0.0
H553 H 0.80831 0.97077 0.31247 0.0
H554 H 0.73866 0.06534 0.30866 0.0
H555 H 0.72607 0.05993 0.36482 0.0
C556 C 0.79929 0.05052 0.2238 0.0
C557 C 0.7931 0.01866 0.2066 0.0
C558 C 0.79287 0.05099 0.25617 0.0
C559 C 0.78091 0.01944 0.27183 0.0
C560 C 0.77571 0.9876 0.25453 0.0
C561 C 0.78146 0.98729 0.22247 0.0
C562 C 0.78311 0.98741 0.3553 0.0
C563 C 0.75966 0.01203 0.37083 0.0
C564 C 0.79029 0.99048 0.32352 0.0
C565 C 0.77459 0.01851 0.30614 0.0
C566 C 0.75143 0.04361 0.32151 0.0
C567 C 0.74383 0.04025 0.35357 0.0
H568 H 0.44644 0.71499 0.33351 0.0
H569 H 0.56478 0.70673 0.33751 0.0
H570 H 0.45135 0.74011 0.28158 0.0
H571 H 0.57013 0.73429 0.28633 0.0
H572 H 0.56636 0.72912 0.18136 0.0
H573 H 0.56272 0.71601 0.23614 0.0
H574 H 0.46563 0.7834 0.24462 0.0
H575 H 0.46775 0.79383 0.18877 0.0
C576 C 0.47364 0.71972 0.32369 0.0
C577 C 0.50524 0.70849 0.33956 0.0
C578 C 0.47652 0.73431 0.29376 0.0
C579 C 0.51115 0.73871 0.27907 0.0
C580 C 0.54286 0.7302 0.29617 0.0
C581 C 0.53991 0.71481 0.32579 0.0
C582 C 0.54419 0.74127 0.19484 0.0
C583 C 0.51759 0.76301 0.18052 0.0
C584 C 0.54239 0.73415 0.22662 0.0
C585 C 0.51411 0.74889 0.24541 0.0
C586 C 0.48773 0.77122 0.23114 0.0
C587 C 0.48923 0.77782 0.19904 0.0
H588 H 0.69453 0.45533 0.17567 0.0
H589 H 0.77018 0.54459 0.16267 0.0
H590 H 0.71085 0.45257 0.23052 0.0
H591 H 0.78856 0.54012 0.21584 0.0
H592 H 0.8056 0.54628 0.3158 0.0
H593 H 0.77442 0.5517 0.26645 0.0
H594 H 0.75609 0.4357 0.26555 0.0
H595 H 0.7849 0.43106 0.31611 0.0
C596 C 0.71435 0.47451 0.18447 0.0
C597 C 0.73035 0.50062 0.16471 0.0
C598 C 0.72418 0.47267 0.21592 0.0
C599 C 0.75084 0.49646 0.22818 0.0
C600 C 0.76707 0.52206 0.20803 0.0
C601 C 0.75681 0.52428 0.17706 0.0
C602 C 0.79411 0.52212 0.30535 0.0
C603 C 0.79786 0.48829 0.3198 0.0
C604 C 0.7766 0.52503 0.27674 0.0
C605 C 0.76348 0.49397 0.26117 0.0
C606 C 0.76552 0.46034 0.27657 0.0
C607 C 0.78219 0.45762 0.30566 0.0
H608 H 0.96196 0.21242 0.66045 0.0
H609 H 0.08014 0.22257 0.66189 0.0
H610 H 0.9585 0.22974 0.71518 0.0
H611 H 0.07718 0.23845 0.71671 0.0
H612 H 0.05317 0.32308 0.79231 0.0
H613 H 0.05957 0.29159 0.74323 0.0
H614 H 0.9703 0.21969 0.76932 0.0
H615 H 0.96318 0.25227 0.81856 0.0
C616 C 0.98724 0.2172 0.67275 0.0
C617 C 0.02124 0.21645 0.65688 0.0
C618 C 0.98536 0.22714 0.70419 0.0
C619 C 0.01754 0.23626 0.7204 0.0
C620 C 0.05172 0.23271 0.70488 0.0
C621 C 0.05348 0.22335 0.67348 0.0
C622 C 0.03519 0.30024 0.7879 0.0
C623 C 1.00753 0.29042 0.80943 0.0
C624 C 0.03902 0.28189 0.75967 0.0
C625 C 1.01544 0.25295 0.75206 0.0
C626 C 0.98867 0.2421 0.77415 0.0
C627 C 0.9848 0.26059 0.80252 0.0
H628 H 0.24199 0.06476 0.70055 0.0
H629 H 0.29716 0.96112 0.70068 0.0
H630 H 0.23324 0.06122 0.75649 0.0
H631 H 0.28813 0.95751 0.75737 0.0
H632 H 0.22238 0.95724 0.85606 0.0
H633 H 0.22985 0.95573 0.79907 0.0
H634 H 0.28001 0.06184 0.80147 0.0
H635 H 0.27303 0.06318 0.85766 0.0
C636 C 0.25233 0.04113 0.71253 0.0
C637 C 0.27062 0.01335 0.69607 0.0
C638 C 0.24728 0.03916 0.74465 0.0
C639 C 0.25988 0.00908 0.76136 0.0
C640 C 0.27787 0.98091 0.74504 0.0
C641 C 0.28344 0.98316 0.71268 0.0
C642 C 0.23467 0.98027 0.84428 0.0
C643 C 0.2469 0.01042 0.86135 0.0
C644 C 0.23932 0.97925 0.81177 0.0
C645 C 0.25564 0.00865 0.79583 0.0
C646 C 0.26725 0.03884 0.81301 0.0
C647 C 0.26323 0.03957 0.84525 0.0
H648 H 0.45386 0.25958 0.88703 0.0
H649 H 0.56899 0.23141 0.88751 0.0
H650 H 0.45994 0.27968 0.83341 0.0
H651 H 0.57561 0.25233 0.83392 0.0
H652 H 0.57411 0.28195 0.73158 0.0
H653 H 0.56137 0.2474 0.77903 0.0
H654 H 0.4874 0.33193 0.81052 0.0
H655 H 0.49942 0.36571 0.76327 0.0
C656 C 0.48044 0.25723 0.87547 0.0
C657 C 0.51101 0.24398 0.89149 0.0
C658 C 0.484 0.26895 0.84476 0.0
C659 C 0.51842 0.2683 0.82937 0.0
C660 C 0.5486 0.25302 0.84486 0.0
C661 C 0.54488 0.24093 0.87562 0.0
C662 C 0.55456 0.29273 0.74839 0.0
C663 C 0.53787 0.32669 0.74361 0.0
C664 C 0.54751 0.27307 0.77573 0.0
C665 C 0.52344 0.28683 0.79877 0.0
C666 C 0.50567 0.32008 0.79323 0.0
C667 C 0.51275 0.33966 0.76608 0.0
H668 H 0.21275 0.54165 0.84023 0.0
H669 H 0.32934 0.54912 0.82156 0.0
H670 H 0.2003 0.55166 0.78552 0.0
H671 H 0.31711 0.55982 0.76662 0.0
H672 H 0.18873 0.58481 0.68392 0.0
H673 H 0.20354 0.59195 0.73889 0.0
H674 H 0.29415 0.51724 0.72728 0.0
H675 H 0.27903 0.5095 0.67323 0.0
C676 C 0.23579 0.54647 0.82452 0.0
C677 C 0.27218 0.54462 0.83525 0.0
C678 C 0.22859 0.55243 0.79313 0.0
C679 C 0.25766 0.55626 0.77154 0.0
C680 C 0.29404 0.55665 0.7826 0.0
C681 C 0.30118 0.55101 0.81415 0.0
C682 C 0.2116 0.56979 0.69313 0.0
C683 C 0.23196 0.5459 0.67409 0.0
C684 C 0.2203 0.57407 0.72462 0.0
C685 C 0.25014 0.55522 0.73756 0.0
C686 C 0.27134 0.53262 0.71814 0.0
C687 C 0.26236 0.52797 0.68701 0.0
H688 H 0.09641 0.55732 1.01843 0.0
H689 H 0.04472 0.51696 0.10241 0.0
H690 H 0.07111 0.50611 0.9896 0.0
H691 H 0.01954 0.46585 0.07356 0.0
H692 H 0.9395 0.41647 1.0005 0.0
H693 H 0.97152 0.45953 0.03356 0.0
H694 H 0.07306 0.4384 0.98351 0.0
H695 H 0.04093 0.39508 0.95032 0.0
C696 C 0.08 0.53736 0.03083 0.0
C697 C 0.07248 0.54146 0.06273 0.0
C698 C 0.06567 0.50786 1.01432 0.0
C699 C 0.04317 0.4819 0.02924 0.0
C700 C 0.03646 0.48551 0.0613 0.0
C701 C 0.05107 0.51478 0.07786 0.0
C702 C 0.96881 0.42044 0.99688 0.0
C703 C 0.98758 0.40233 0.97269 0.0
C704 C 0.98721 0.44511 1.01591 0.0
C705 C 0.02483 0.45265 1.01107 0.0
C706 C 0.04399 0.4335 0.98764 0.0
C707 C 0.02564 0.40841 0.96882 0.0
H708 H 0.09213 0.95845 0.99269 0.0
H709 H 0.06098 0.06102 0.95258 0.0
H710 H 0.04565 0.96678 0.03366 0.0
H711 H 1.01419 0.06895 0.99291 0.0
H712 H 0.95597 0.08928 0.0861 0.0
H713 H 1.00451 0.08148 0.04683 0.0
H714 H 0.98035 0.96681 0.04257 0.0
H715 H 0.93258 0.97449 0.08218 0.0
C716 C 0.07538 0.98274 0.99254 0.0
C717 C 0.08045 0.00901 0.96922 0.0
C718 C 0.04849 0.98746 1.01598 0.0
C719 C 0.02592 0.0186 1.01677 0.0
C720 C 0.03125 0.0449 0.9935 0.0
C721 C 0.05806 0.04019 0.97014 0.0
C722 C 0.961 0.06241 0.07677 0.0
C723 C 0.9402 0.03257 0.0874 0.0
C724 C 0.9888 0.05791 0.05409 0.0
C725 C 0.99661 0.02344 0.04136 0.0
C726 C 0.97572 0.99367 0.05204 0.0
C727 C 0.94799 0.99816 0.07469 0.0
H728 H 0.44805 0.93385 0.0764 0.0
H729 H 0.5664 0.92372 0.08006 0.0
H730 H 0.45496 0.98769 0.04387 0.0
H731 H 0.57335 0.97796 0.04855 0.0
H732 H 0.57434 0.05775 0.96797 0.0
H733 H 0.56661 1.00221 0.99806 0.0
H734 H 0.47323 0.04964 0.04626 0.0
H735 H 0.48027 0.10458 1.01548 0.0
C736 C 0.47553 0.9431 0.0703 0.0
C737 C 0.50663 0.92438 0.08086 0.0
C738 C 0.47954 0.97417 0.05182 0.0
C739 C 0.51476 0.98743 0.04356 0.0
C740 C 0.54579 0.9684 0.05394 0.0
C741 C 0.54178 0.93729 0.07224 0.0
C742 C 0.55222 0.05634 0.98504 0.0
C743 C 0.52796 0.08569 0.98928 0.0
C744 C 0.54783 0.02449 1.00243 0.0
C745 C 0.51921 0.02122 0.02467 0.0
C746 C 0.49516 0.05076 0.02901 0.0
C747 C 0.49941 0.08249 1.0115 0.0
H748 H 0.44357 0.5841 0.95656 0.0
H749 H 0.40401 0.47406 0.96602 0.0
H750 H 0.49214 0.57138 0.9935 0.0
H751 H 0.45201 0.46157 1.00345 0.0
H752 H 0.56562 0.44073 0.04572 0.0
H753 H 0.51748 0.45304 1.00802 0.0
H754 H 0.50233 0.56 0.04721 0.0
H755 H 0.55072 0.54807 0.08416 0.0
C756 C 0.44498 0.55728 0.96672 0.0
C757 C 0.41973 0.53018 0.95827 0.0
C758 C 0.47283 0.54998 0.98804 0.0
C759 C 0.4762 0.51536 1.00157 0.0
C760 C 0.45074 0.48835 0.99324 0.0
C761 C 0.42293 0.49565 0.97191 0.0
C762 C 0.55204 0.46687 0.04622 0.0
C763 C 0.56222 0.49338 0.06799 0.0
C764 C 0.52424 0.4739 0.02471 0.0
C765 C 0.5059 0.50761 0.02441 0.0
C766 C 0.51613 0.53398 0.04628 0.0
C767 C 0.54385 0.527 0.06768 0.0
H768 H 0.96221 0.93227 0.43366 0.0
H769 H 0.0489 0.88879 0.49023 0.0
H770 H 0.94714 0.9762 0.4742 0.0
H771 H 0.03419 0.93311 0.53054 0.0
H772 H 0.98045 0.99985 0.60759 0.0
H773 H 0.98865 0.95205 0.569 0.0
H774 H 0.97489 0.0306 0.49583 0.0
H775 H 0.96609 0.07837 0.53446 0.0
C776 C 0.97781 0.93175 0.45488 0.0
C777 C 1.00686 0.90695 0.45859 0.0
C778 C 0.96936 0.95722 0.47803 0.0
C779 C 0.98964 0.9585 0.50557 0.0
C780 C 0.01776 0.93277 0.50978 0.0
C781 C 0.02628 0.90736 0.48658 0.0
C782 C 0.97893 1.00695 0.58328 0.0
C783 C 0.97269 0.04306 0.57418 0.0
C784 C 0.98385 0.97951 0.56112 0.0
C785 C 0.98255 0.98739 0.52925 0.0
C786 C 0.97562 0.0234 0.52016 0.0
C787 C 0.97079 0.05089 0.54233 0.0
H788 H 0.54787 0.97667 0.44735 0.0
H789 H 0.60309 0.05906 0.50077 0.0
H790 H 0.50012 0.97209 0.48725 0.0
H791 H 0.55556 0.05387 0.54125 0.0
H792 H 0.44354 0.06383 0.59106 0.0
H793 H 0.49225 0.06769 0.55185 0.0
H794 H 0.48688 0.9516 0.53872 0.0
H795 H 0.43735 0.9479 0.57754 0.0
C796 C 0.55002 0.99371 0.46772 0.0
C797 C 0.57945 0.01834 0.47069 0.0
C798 C 0.52262 0.99087 0.49082 0.0
C799 C 0.52374 0.01254 0.51768 0.0
C800 C 0.55336 0.03704 0.52076 0.0
C801 C 0.58083 0.03989 0.4976 0.0
C802 C 0.45265 0.03906 0.57982 0.0
C803 C 0.4363 1.00553 0.58752 0.0
C804 C 0.48092 0.04126 0.55742 0.0
C805 C 0.49383 0.00998 0.54199 0.0
C806 C 0.47746 0.9764 0.54972 0.0
C807 C 0.44909 0.97421 0.57214 0.0
H808 H 0.55719 0.41437 0.5698 0.0
H809 H 0.50549 0.48715 0.63581 0.0
H810 H 0.53813 0.45394 0.52738 0.0
H811 H 0.48682 0.52671 0.59346 0.0
H812 H 0.49538 0.60618 0.50916 0.0
H813 H 0.51676 0.56778 0.55185 0.0
H814 H 0.47736 0.47272 0.50403 0.0
H815 H 0.45585 0.51065 0.4619 0.0
C816 C 0.54167 0.4387 0.57526 0.0
C817 C 0.53261 0.44738 0.60618 0.0
C818 C 0.53077 0.46136 0.55098 0.0
C819 C 0.5111 0.49354 0.5571 0.0
C820 C 0.50226 0.50234 0.58802 0.0
C821 C 0.51265 0.47941 0.61224 0.0
C822 C 0.49138 0.5771 0.50782 0.0
C823 C 0.47377 0.56155 0.48219 0.0
C824 C 0.50346 0.55514 0.53227 0.0
C825 C 0.4988 0.51719 0.53124 0.0
C826 C 0.48168 0.50177 0.5054 0.0
C827 C 0.46912 0.52364 0.48134 0.0
H828 H 0.90546 0.46716 0.49114 0.0
H829 H 0.95362 0.54936 0.43187 0.0
H830 H 0.94901 0.48271 0.53162 0.0
H831 H 0.99783 0.56414 0.47187 0.0
H832 H 0.05789 0.60034 0.55931 0.0
H833 H 1.00924 0.58978 0.52166 0.0
H834 H 1.01247 0.47505 0.54189 0.0
H835 H 0.06001 0.48573 0.57987 0.0
C836 C 0.92513 0.48874 0.48679 0.0
C837 C 0.92597 0.50688 0.45812 0.0
C838 C 0.95043 0.49747 0.50995 0.0
C839 C 0.97745 0.52446 0.50505 0.0
C840 C 0.97735 0.54347 0.47676 0.0
C841 C 0.95196 0.53485 0.45367 0.0
C842 C 0.04815 0.57289 0.55571 0.0
C843 C 0.06296 0.54393 0.57271 0.0
C844 C 0.02029 0.56677 0.53401 0.0
C845 C 1.00655 0.53152 0.52869 0.0
C846 C 0.02159 0.50266 0.54568 0.0
C847 C 0.04925 0.50878 0.56737 0.0
loop_
_geom_bond_atom_site_label_1
_geom_bond_atom_site_label_2
_geom_bond_distance
_geom_bond_site_symmetry_2
_ccdc_geom_bond_type
Mg0 O7 2.141 . S
Mg0 O8 2.048 . S
Mg0 O9 2.048 . S
Mg0 O12 2.141 . S
C1 O2 1.313 . S
C1 O8 1.195 1_655 S
O2 C1 1.313 . S
C3 O4 1.245 . S
C3 O12 1.289 . S
O4 C3 1.245 . S
C5 O6 1.245 . S
C5 O7 1.289 . S
O6 C5 1.245 . S
O7 Mg0 2.141 . S
O7 C5 1.289 . S
O8 Mg0 2.048 . S
O8 C1 1.195 1_455 S
O9 Mg0 2.048 . S
O9 C10 1.195 . S
C10 O9 1.195 . S
C10 O11 1.313 . S
O11 C10 1.313 . S
O12 Mg0 2.141 . S
O12 C3 1.289 . S
Mg13 O20 2.141 . S
Mg13 O21 2.048 . S
Mg13 O22 2.048 . S
Mg13 O25 2.141 . S
C14 O15 1.313 . S
C14 O21 1.195 1_565 S
O15 C14 1.313 . S
C16 O17 1.245 . S
C16 O25 1.289 . S
O17 C16 1.245 . S
C18 O19 1.245 . S
C18 O20 1.289 . S
O19 C18 1.245 . S
O20 Mg13 2.141 . S
O20 C18 1.289 . S
O21 Mg13 2.048 . S
O21 C14 1.195 1_545 S
O22 Mg13 2.048 . S
O22 C23 1.195 . S
C23 O22 1.195 . S
C23 O24 1.313 . S
O24 C23 1.313 . S
O25 Mg13 2.141 . S
O25 C16 1.289 . S
Mg26 O33 2.141 . S
Mg26 O34 2.048 . S
Mg26 O35 2.048 . S
Mg26 O38 2.141 . S
C27 O28 1.313 . S
C27 O34 1.195 . S
O28 C27 1.313 . S
C29 O30 1.245 . S
C29 O38 1.289 . S
O30 C29 1.245 . S
C31 O32 1.245 . S
C31 O33 1.289 . S
O32 C31 1.245 . S
O33 Mg26 2.141 . S
O33 C31 1.289 . S
O34 Mg26 2.048 . S
O34 C27 1.195 . S
O35 Mg26 2.048 . S
O35 C36 1.195 . S
C36 O35 1.195 . S
C36 O37 1.313 . S
O37 C36 1.313 . S
O38 Mg26 2.141 . S
O38 C29 1.289 . S
Mg39 O46 2.141 . S
Mg39 O47 2.048 . S
Mg39 O48 2.048 . S
Mg39 O51 2.141 . S
C40 O41 1.313 . S
C40 O47 1.195 . S
O41 C40 1.313 . S
C42 O43 1.245 . S
C42 O51 1.289 . S
O43 C42 1.245 . S
C44 O45 1.245 . S
C44 O46 1.289 . S
O45 C44 1.245 . S
O46 Mg39 2.141 . S
O46 C44 1.289 . S
O47 Mg39 2.048 . S
O47 C40 1.195 . S
O48 Mg39 2.048 . S
O48 C49 1.195 . S
C49 O48 1.195 . S
C49 O50 1.313 . S
O50 C49 1.313 . S
O51 Mg39 2.141 . S
O51 C42 1.289 . S
Mg52 O59 2.141 . S
Mg52 O60 2.048 . S
Mg52 O61 2.048 . S
Mg52 O64 2.141 . S
C53 O54 1.313 . S
C53 O60 1.195 1_655 S
O54 C53 1.313 . S
C55 O56 1.245 . S
C55 O64 1.289 . S
O56 C55 1.245 . S
C57 O58 1.245 . S
C57 O59 1.289 . S
O58 C57 1.245 . S
O59 Mg52 2.141 . S
O59 C57 1.289 . S
O60 Mg52 2.048 . S
O60 C53 1.195 1_455 S
O61 Mg52 2.048 . S
O61 C62 1.195 . S
C62 O61 1.195 . S
C62 O63 1.313 . S
O63 C62 1.313 . S
O64 Mg52 2.141 . S
O64 C55 1.289 . S
Mg65 O72 2.141 . S
Mg65 O73 2.048 . S
Mg65 O74 2.048 . S
Mg65 O77 2.141 . S
C66 O67 1.313 . S
C66 O73 1.195 1_565 S
O67 C66 1.313 . S
C68 O69 1.245 . S
C68 O77 1.289 . S
O69 C68 1.245 . S
C70 O71 1.245 . S
C70 O72 1.289 . S
O71 C70 1.245 . S
O72 Mg65 2.141 . S
O72 C70 1.289 . S
O73 Mg65 2.048 . S
O73 C66 1.195 1_545 S
O74 Mg65 2.048 . S
O74 C75 1.195 . S
C75 O74 1.195 . S
C75 O76 1.313 . S
O76 C75 1.313 . S
O77 Mg65 2.141 . S
O77 C68 1.289 . S
Mg78 O85 2.141 . S
Mg78 O86 2.048 . S
Mg78 O87 2.048 . S
Mg78 O90 2.141 . S
C79 O80 1.313 . S
C79 O86 1.195 . S
O80 C79 1.313 . S
C81 O82 1.245 . S
C81 O90 1.289 . S
O82 C81 1.245 . S
C83 O84 1.245 . S
C83 O85 1.289 . S
O84 C83 1.245 . S
O85 Mg78 2.141 . S
O85 C83 1.289 . S
O86 Mg78 2.048 . S
O86 C79 1.195 . S
O87 Mg78 2.048 . S
O87 C88 1.195 . S
C88 O87 1.195 . S
C88 O89 1.313 . S
O89 C88 1.313 . S
O90 Mg78 2.141 . S
O90 C81 1.289 . S
Mg91 O98 2.141 . S
Mg91 O99 2.048 . S
Mg91 O100 2.048 . S
Mg91 O103 2.141 . S
C92 O93 1.313 . S
C92 O99 1.195 . S
O93 C92 1.313 . S
C94 O95 1.245 . S
C94 O103 1.289 . S
O95 C94 1.245 . S
C96 O97 1.245 . S
C96 O98 1.289 . S
O97 C96 1.245 . S
O98 Mg91 2.141 . S
O98 C96 1.289 . S
O99 Mg91 2.048 . S
O99 C92 1.195 . S
O100 Mg91 2.048 . S
O100 C101 1.195 . S
C101 O100 1.195 . S
C101 O102 1.313 . S
O102 C101 1.313 . S
O103 Mg91 2.141 . S
O103 C94 1.289 . S
Mg104 O111 2.141 . S
Mg104 O112 2.048 . S
Mg104 O113 2.048 . S
Mg104 O116 2.141 . S
C105 O106 1.313 . S
C105 O112 1.195 . S
O106 C105 1.313 . S
C107 O108 1.245 . S
C107 O116 1.289 . S
O108 C107 1.245 . S
C109 O110 1.245 . S
C109 O111 1.289 . S
O110 C109 1.245 . S
O111 Mg104 2.141 . S
O111 C109 1.289 . S
O112 Mg104 2.048 . S
O112 C105 1.195 . S
O113 Mg104 2.048 . S
O113 C114 1.195 1_655 S
C114 O113 1.195 1_455 S
C114 O115 1.313 . S
O115 C114 1.313 . S
O116 Mg104 2.141 . S
O116 C107 1.289 . S
Mg117 O124 2.141 . S
Mg117 O125 2.048 . S
Mg117 O126 2.048 . S
Mg117 O129 2.141 . S
C118 O119 1.313 . S
C118 O125 1.195 . S
O119 C118 1.313 . S
C120 O121 1.245 . S
C120 O129 1.289 . S
O121 C120 1.245 . S
C122 O123 1.245 . S
C122 O124 1.289 . S
O123 C122 1.245 . S
O124 Mg117 2.141 . S
O124 C122 1.289 . S
O125 Mg117 2.048 . S
O125 C118 1.195 . S
O126 Mg117 2.048 . S
O126 C127 1.195 1_565 S
C127 O126 1.195 1_545 S
C127 O128 1.313 . S
O128 C127 1.313 . S
O129 Mg117 2.141 . S
O129 C120 1.289 . S
Mg130 O137 2.141 . S
Mg130 O138 2.048 . S
Mg130 O139 2.048 . S
Mg130 O142 2.141 . S
C131 O132 1.313 . S
C131 O138 1.195 . S
O132 C131 1.313 . S
C133 O134 1.245 . S
C133 O142 1.289 . S
O134 C133 1.245 . S
C135 O136 1.245 . S
C135 O137 1.289 . S
O136 C135 1.245 . S
O137 Mg130 2.141 . S
O137 C135 1.289 . S
O138 Mg130 2.048 . S
O138 C131 1.195 . S
O139 Mg130 2.048 . S
O139 C140 1.195 . S
C140 O139 1.195 . S
C140 O141 1.313 . S
O141 C140 1.313 . S
O142 Mg130 2.141 . S
O142 C133 1.289 . S
Mg143 O150 2.141 . S
Mg143 O151 2.048 . S
Mg143 O152 2.048 . S
Mg143 O155 2.141 . S
C144 O145 1.313 . S
C144 O151 1.195 . S
O145 C144 1.313 . S
C146 O147 1.245 . S
C146 O155 1.289 . S
O147 C146 1.245 . S
C148 O149 1.245 . S
C148 O150 1.289 . S
O149 C148 1.245 . S
O150 Mg143 2.141 . S
O150 C148 1.289 . S
O151 Mg143 2.048 . S
O151 C144 1.195 . S
O152 Mg143 2.048 . S
O152 C153 1.195 . S
C153 O152 1.195 . S
C153 O154 1.313 . S
O154 C153 1.313 . S
O155 Mg143 2.141 . S
O155 C146 1.289 . S
Mg156 O163 2.141 . S
Mg156 O164 2.048 . S
Mg156 O165 2.048 . S
Mg156 O168 2.141 . S
C157 O158 1.313 . S
C157 O164 1.195 . S
O158 C157 1.313 . S
C159 O160 1.245 . S
C159 O168 1.289 . S
O160 C159 1.245 . S
C161 O162 1.245 . S
C161 O163 1.289 . S
O162 C161 1.245 . S
O163 Mg156 2.141 . S
O163 C161 1.289 . S
O164 Mg156 2.048 . S
O164 C157 1.195 . S
O165 Mg156 2.048 . S
O165 C166 1.195 1_655 S
C166 O165 1.195 1_455 S
C166 O167 1.313 . S
O167 C166 1.313 . S
O168 Mg156 2.141 . S
O168 C159 1.289 . S
Mg169 O176 2.141 . S
Mg169 O177 2.048 . S
Mg169 O178 2.048 . S
Mg169 O181 2.141 . S
C170 O171 1.313 . S
C170 O177 1.195 . S
O171 C170 1.313 . S
C172 O173 1.245 . S
C172 O181 1.289 . S
O173 C172 1.245 . S
C174 O175 1.245 . S
C174 O176 1.289 . S
O175 C174 1.245 . S
O176 Mg169 2.141 . S
O176 C174 1.289 . S
O177 Mg169 2.048 . S
O177 C170 1.195 . S
O178 Mg169 2.048 . S
O178 C179 1.195 1_565 S
C179 O178 1.195 1_545 S
C179 O180 1.313 . S
O180 C179 1.313 . S
O181 Mg169 2.141 . S
O181 C172 1.289 . S
Mg182 O189 2.141 . S
Mg182 O190 2.048 . S
Mg182 O191 2.048 . S
Mg182 O194 2.141 . S
C183 O184 1.313 . S
C183 O190 1.195 . S
O184 C183 1.313 . S
C185 O186 1.245 . S
C185 O194 1.289 . S
O186 C185 1.245 . S
C187 O188 1.245 . S
C187 O189 1.289 . S
O188 C187 1.245 . S
O189 Mg182 2.141 . S
O189 C187 1.289 . S
O190 Mg182 2.048 . S
O190 C183 1.195 . S
O191 Mg182 2.048 . S
O191 C192 1.195 . S
C192 O191 1.195 . S
C192 O193 1.313 . S
O193 C192 1.313 . S
O194 Mg182 2.141 . S
O194 C185 1.289 . S
Mg195 O202 2.141 . S
Mg195 O203 2.048 . S
Mg195 O204 2.048 . S
Mg195 O207 2.141 . S
C196 O197 1.313 . S
C196 O203 1.195 . S
O197 C196 1.313 . S
C198 O199 1.245 . S
C198 O207 1.289 . S
O199 C198 1.245 . S
C200 O201 1.245 . S
C200 O202 1.289 . S
O201 C200 1.245 . S
O202 Mg195 2.141 . S
O202 C200 1.289 . S
O203 Mg195 2.048 . S
O203 C196 1.195 . S
O204 Mg195 2.048 . S
O204 C205 1.195 . S
C205 O204 1.195 . S
C205 O206 1.313 . S
O206 C205 1.313 . S
O207 Mg195 2.141 . S
O207 C198 1.289 . S
H208 C216 0.950 . S
H209 C221 0.950 . S
H210 C218 0.950 . S
H211 C220 0.950 . S
H212 C222 0.950 . S
H213 C224 0.950 . S
H214 C226 0.950 . S
H215 C227 0.950 . S
C216 H208 0.950 . S
C216 C217 1.386 . S
C216 C218 1.391 . S
C217 C216 1.386 . S
C217 C221 1.393 . S
C218 H210 0.950 . S
C218 C216 1.391 . S
C218 C219 1.400 . S
C219 C218 1.400 . S
C219 C220 1.398 . S
C219 C225 1.491 . S
C220 H211 0.950 . S
C220 C219 1.398 . S
C220 C221 1.391 . S
C221 H209 0.950 . S
C221 C217 1.393 . S
C221 C220 1.391 . S
C222 H212 0.950 . S
C222 C223 1.386 . S
C222 C224 1.391 . S
C223 C222 1.386 . S
C223 C227 1.393 . S
C224 H213 0.950 . S
C224 C222 1.391 . S
C224 C225 1.400 . S
C225 C219 1.491 . S
C225 C224 1.400 . S
C225 C226 1.398 . S
C226 H214 0.950 . S
C226 C225 1.398 . S
C226 C227 1.391 . S
C227 H215 0.950 . S
C227 C223 1.393 . S
C227 C226 1.391 . S
H228 C236 0.950 . S
H229 C241 0.950 . S
H230 C238 0.950 . S
H231 C240 0.950 . S
H232 C242 0.950 . S
H233 C244 0.950 . S
H234 C246 0.950 . S
H235 C247 0.950 . S
C236 H228 0.950 . S
C236 C237 1.386 . S
C236 C238 1.391 . S
C237 C236 1.386 . S
C237 C241 1.393 . S
C238 H230 0.950 . S
C238 C236 1.391 . S
C238 C239 1.400 . S
C239 C238 1.400 . S
C239 C240 1.398 . S
C239 C245 1.491 . S
C240 H231 0.950 . S
C240 C239 1.398 . S
C240 C241 1.391 . S
C241 H229 0.950 . S
C241 C237 1.393 . S
C241 C240 1.391 . S
C242 H232 0.950 . S
C242 C243 1.386 . S
C242 C244 1.391 . S
C243 C242 1.386 . S
C243 C247 1.393 . S
C244 H233 0.950 . S
C244 C242 1.391 . S
C244 C245 1.400 . S
C245 C239 1.491 . S
C245 C244 1.400 . S
C245 C246 1.398 . S
C246 H234 0.950 . S
C246 C245 1.398 . S
C246 C247 1.391 . S
C247 H235 0.950 . S
C247 C243 1.393 . S
C247 C246 1.391 . S
H248 C256 0.950 . S
H249 C261 0.950 . S
H250 C258 0.950 . S
H251 C260 0.950 . S
H252 C262 0.950 . S
H253 C264 0.950 . S
H254 C266 0.950 . S
H255 C267 0.950 . S
C256 H248 0.950 . S
C256 C257 1.386 . S
C256 C258 1.391 . S
C257 C256 1.386 . S
C257 C261 1.393 . S
C258 H250 0.950 . S
C258 C256 1.391 . S
C258 C259 1.400 . S
C259 C258 1.400 . S
C259 C260 1.398 . S
C259 C265 1.491 . S
C260 H251 0.950 . S
C260 C259 1.398 . S
C260 C261 1.391 . S
C261 H249 0.950 . S
C261 C257 1.393 . S
C261 C260 1.391 . S
C262 H252 0.950 . S
C262 C263 1.386 . S
C262 C264 1.391 . S
C263 C262 1.386 . S
C263 C267 1.393 . S
C264 H253 0.950 . S
C264 C262 1.391 . S
C264 C265 1.400 . S
C265 C259 1.491 . S
C265 C264 1.400 . S
C265 C266 1.398 . S
C266 H254 0.950 . S
C266 C265 1.398 . S
C266 C267 1.391 . S
C267 H255 0.950 . S
C267 C263 1.393 . S
C267 C266 1.391 . S
H268 C276 0.950 . S
H269 C281 0.950 . S
H270 C278 0.950 . S
H271 C280 0.950 . S
H272 C282 0.950 . S
H273 C284 0.950 . S
H274 C286 0.950 . S
H275 C287 0.950 . S
C276 H268 0.950 . S
C276 C277 1.386 . S
C276 C278 1.391 . S
C277 C276 1.386 . S
C277 C281 1.393 . S
C278 H270 0.950 . S
C278 C276 1.391 . S
C278 C279 1.400 . S
C279 C278 1.400 . S
C279 C280 1.398 . S
C279 C285 1.491 . S
C280 H271 0.950 . S
C280 C279 1.398 . S
C280 C281 1.391 . S
C281 H269 0.950 . S
C281 C277 1.393 . S
C281 C280 1.391 . S
C282 H272 0.950 . S
C282 C283 1.386 . S
C282 C284 1.391 . S
C283 C282 1.386 . S
C283 C287 1.393 . S
C284 H273 0.950 . S
C284 C282 1.391 . S
C284 C285 1.400 . S
C285 C279 1.491 . S
C285 C284 1.400 . S
C285 C286 1.398 . S
C286 H274 0.950 . S
C286 C285 1.398 . S
C286 C287 1.391 . S
C287 H275 0.950 . S
C287 C283 1.393 . S
C287 C286 1.391 . S
H288 C296 0.950 . S
H289 C301 0.950 . S
H290 C298 0.950 . S
H291 C300 0.950 . S
H292 C302 0.950 . S
H293 C304 0.950 . S
H294 C306 0.950 . S
H295 C307 0.950 . S
C296 H288 0.950 . S
C296 C297 1.386 . S
C296 C298 1.391 . S
C297 C296 1.386 . S
C297 C301 1.393 . S
C298 H290 0.950 . S
C298 C296 1.391 . S
C298 C299 1.400 . S
C299 C298 1.400 . S
C299 C300 1.398 . S
C299 C305 1.491 . S
C300 H291 0.950 . S
C300 C299 1.398 . S
C300 C301 1.391 . S
C301 H289 0.950 . S
C301 C297 1.393 . S
C301 C300 1.391 . S
C302 H292 0.950 . S
C302 C303 1.386 . S
C302 C304 1.391 . S
C303 C302 1.386 . S
C303 C307 1.393 . S
C304 H293 0.950 . S
C304 C302 1.391 . S
C304 C305 1.400 . S
C305 C299 1.491 . S
C305 C304 1.400 . S
C305 C306 1.398 . S
C306 H294 0.950 . S
C306 C305 1.398 . S
C306 C307 1.391 . S
C307 H295 0.950 . S
C307 C303 1.393 . S
C307 C306 1.391 . S
H308 C316 0.950 . S
H309 C321 0.950 . S
H310 C318 0.950 . S
H311 C320 0.950 . S
H312 C322 0.950 . S
H313 C324 0.950 . S
H314 C326 0.950 . S
H315 C327 0.950 . S
C316 H308 0.950 . S
C316 C317 1.386 . S
C316 C318 1.391 . S
C317 C316 1.386 . S
C317 C321 1.393 . S
C318 H310 0.950 . S
C318 C316 1.391 . S
C318 C319 1.400 . S
C319 C318 1.400 . S
C319 C320 1.398 . S
C319 C325 1.491 . S
C320 H311 0.950 . S
C320 C319 1.398 . S
C320 C321 1.391 . S
C321 H309 0.950 . S
C321 C317 1.393 . S
C321 C320 1.391 . S
C322 H312 0.950 . S
C322 C323 1.386 . S
C322 C324 1.391 . S
C323 C322 1.386 . S
C323 C327 1.393 . S
C324 H313 0.950 . S
C324 C322 1.391 . S
C324 C325 1.400 . S
C325 C319 1.491 . S
C325 C324 1.400 . S
C325 C326 1.398 . S
C326 H314 0.950 . S
C326 C325 1.398 . S
C326 C327 1.391 . S
C327 H315 0.950 . S
C327 C323 1.393 . S
C327 C326 1.391 . S
H328 C336 0.950 . S
H329 C341 0.950 . S
H330 C338 0.950 . S
H331 C340 0.950 . S
H332 C342 0.950 . S
H333 C344 0.950 . S
H334 C346 0.950 . S
H335 C347 0.950 . S
C336 H328 0.950 . S
C336 C337 1.386 . S
C336 C338 1.391 . S
C337 C336 1.386 . S
C337 C341 1.393 . S
C338 H330 0.950 . S
C338 C336 1.391 . S
C338 C339 1.400 . S
C339 C338 1.400 . S
C339 C340 1.398 . S
C339 C345 1.491 . S
C340 H331 0.950 . S
C340 C339 1.398 . S
C340 C341 1.391 . S
C341 H329 0.950 . S
C341 C337 1.393 . S
C341 C340 1.391 . S
C342 H332 0.950 . S
C342 C343 1.386 . S
C342 C344 1.391 . S
C343 C342 1.386 . S
C343 C347 1.393 . S
C344 H333 0.950 . S
C344 C342 1.391 . S
C344 C345 1.400 . S
C345 C339 1.491 . S
C345 C344 1.400 . S
C345 C346 1.398 . S
C346 H334 0.950 . S
C346 C345 1.398 . S
C346 C347 1.391 . S
C347 H335 0.950 . S
C347 C343 1.393 . S
C347 C346 1.391 . S
H348 C356 0.950 . S
H349 C361 0.950 . S
H350 C358 0.950 . S
H351 C360 0.950 . S
H352 C362 0.950 . S
H353 C364 0.950 . S
H354 C366 0.950 . S
H355 C367 0.950 . S
C356 H348 0.950 . S
C356 C357 1.386 . S
C356 C358 1.391 . S
C357 C356 1.386 . S
C357 C361 1.393 . S
C358 H350 0.950 . S
C358 C356 1.391 . S
C358 C359 1.400 . S
C359 C358 1.400 . S
C359 C360 1.398 . S
C359 C365 1.491 . S
C360 H351 0.950 . S
C360 C359 1.398 . S
C360 C361 1.391 . S
C361 H349 0.950 . S
C361 C357 1.393 . S
C361 C360 1.391 . S
C362 H352 0.950 . S
C362 C363 1.386 . S
C362 C364 1.391 . S
C363 C362 1.386 . S
C363 C367 1.393 . S
C364 H353 0.950 . S
C364 C362 1.391 . S
C364 C365 1.400 . S
C365 C359 1.491 . S
C365 C364 1.400 . S
C365 C366 1.398 . S
C366 H354 0.950 . S
C366 C365 1.398 . S
C366 C367 1.391 . S
C367 H355 0.950 . S
C367 C363 1.393 . S
C367 C366 1.391 . S
H368 C376 0.950 . S
H369 C381 0.950 . S
H370 C378 0.950 . S
H371 C380 0.950 . S
H372 C382 0.950 . S
H373 C384 0.950 . S
H374 C386 0.950 . S
H375 C387 0.950 . S
C376 H368 0.950 . S
C376 C377 1.386 . S
C376 C378 1.391 . S
C377 C376 1.386 . S
C377 C381 1.393 . S
C378 H370 0.950 . S
C378 C376 1.391 . S
C378 C379 1.400 . S
C379 C378 1.400 . S
C379 C380 1.398 . S
C379 C385 1.491 . S
C380 H371 0.950 . S
C380 C379 1.398 . S
C380 C381 1.391 . S
C381 H369 0.950 . S
C381 C377 1.393 . S
C381 C380 1.391 . S
C382 H372 0.950 . S
C382 C383 1.386 . S
C382 C384 1.391 . S
C383 C382 1.386 . S
C383 C387 1.393 . S
C384 H373 0.950 . S
C384 C382 1.391 . S
C384 C385 1.400 . S
C385 C379 1.491 . S
C385 C384 1.400 . S
C385 C386 1.398 . S
C386 H374 0.950 . S
C386 C385 1.398 . S
C386 C387 1.391 . S
C387 H375 0.950 . S
C387 C383 1.393 . S
C387 C386 1.391 . S
H388 C396 0.950 . S
H389 C401 0.950 . S
H390 C398 0.950 . S
H391 C400 0.950 . S
H392 C402 0.950 . S
H393 C404 0.950 . S
H394 C406 0.950 . S
H395 C407 0.950 . S
C396 H388 0.950 . S
C396 C397 1.386 . S
C396 C398 1.391 . S
C397 C396 1.386 . S
C397 C401 1.393 . S
C398 H390 0.950 . S
C398 C396 1.391 . S
C398 C399 1.400 . S
C399 C398 1.400 . S
C399 C400 1.398 . S
C399 C405 1.491 . S
C400 H391 0.950 . S
C400 C399 1.398 . S
C400 C401 1.391 . S
C401 H389 0.950 . S
C401 C397 1.393 . S
C401 C400 1.391 . S
C402 H392 0.950 . S
C402 C403 1.386 . S
C402 C404 1.391 . S
C403 C402 1.386 . S
C403 C407 1.393 . S
C404 H393 0.950 . S
C404 C402 1.391 . S
C404 C405 1.400 . S
C405 C399 1.491 . S
C405 C404 1.400 . S
C405 C406 1.398 . S
C406 H394 0.950 . S
C406 C405 1.398 . S
C406 C407 1.391 . S
C407 H395 0.950 . S
C407 C403 1.393 . S
C407 C406 1.391 . S
H408 C416 0.950 . S
H409 C421 0.950 . S
H410 C418 0.950 . S
H411 C420 0.950 . S
H412 C422 0.950 . S
H413 C424 0.950 . S
H414 C426 0.950 . S
H415 C427 0.950 . S
C416 H408 0.950 . S
C416 C417 1.386 . S
C416 C418 1.391 . S
C417 C416 1.386 . S
C417 C421 1.393 . S
C418 H410 0.950 . S
C418 C416 1.391 . S
C418 C419 1.400 . S
C419 C418 1.400 . S
C419 C420 1.398 . S
C419 C425 1.491 . S
C420 H411 0.950 . S
C420 C419 1.398 . S
C420 C421 1.391 . S
C421 H409 0.950 . S
C421 C417 1.393 . S
C421 C420 1.391 . S
C422 H412 0.950 . S
C422 C423 1.386 . S
C422 C424 1.391 . S
C423 C422 1.386 . S
C423 C427 1.393 . S
C424 H413 0.950 . S
C424 C422 1.391 . S
C424 C425 1.400 . S
C425 C419 1.491 . S
C425 C424 1.400 . S
C425 C426 1.398 . S
C426 H414 0.950 . S
C426 C425 1.398 . S
C426 C427 1.391 . S
C427 H415 0.950 . S
C427 C423 1.393 . S
C427 C426 1.391 . S
H428 C436 0.950 . S
H429 C441 0.950 . S
H430 C438 0.950 . S
H431 C440 0.950 . S
H432 C442 0.950 . S
H433 C444 0.950 . S
H434 C446 0.950 . S
H435 C447 0.950 . S
C436 H428 0.950 . S
C436 C437 1.386 . S
C436 C438 1.391 . S
C437 C436 1.386 . S
C437 C441 1.393 . S
C438 H430 0.950 . S
C438 C436 1.391 . S
C438 C439 1.400 . S
C439 C438 1.400 . S
C439 C440 1.398 . S
C439 C445 1.491 . S
C440 H431 0.950 . S
C440 C439 1.398 . S
C440 C441 1.391 . S
C441 H429 0.950 . S
C441 C437 1.393 . S
C441 C440 1.391 . S
C442 H432 0.950 . S
C442 C443 1.386 . S
C442 C444 1.391 . S
C443 C442 1.386 . S
C443 C447 1.393 . S
C444 H433 0.950 . S
C444 C442 1.391 . S
C444 C445 1.400 . S
C445 C439 1.491 . S
C445 C444 1.400 . S
C445 C446 1.398 . S
C446 H434 0.950 . S
C446 C445 1.398 . S
C446 C447 1.391 . S
C447 H435 0.950 . S
C447 C443 1.393 . S
C447 C446 1.391 . S
H448 C456 0.950 . S
H449 C461 0.950 . S
H450 C458 0.950 . S
H451 C460 0.950 . S
H452 C462 0.950 . S
H453 C464 0.950 . S
H454 C466 0.950 . S
H455 C467 0.950 . S
C456 H448 0.950 . S
C456 C457 1.386 . S
C456 C458 1.391 . S
C457 C456 1.386 . S
C457 C461 1.393 . S
C458 H450 0.950 . S
C458 C456 1.391 . S
C458 C459 1.400 . S
C459 C458 1.400 . S
C459 C460 1.398 . S
C459 C465 1.491 . S
C460 H451 0.950 . S
C460 C459 1.398 . S
C460 C461 1.391 . S
C461 H449 0.950 . S
C461 C457 1.393 . S
C461 C460 1.391 . S
C462 H452 0.950 . S
C462 C463 1.386 . S
C462 C464 1.391 . S
C463 C462 1.386 . S
C463 C467 1.393 . S
C464 H453 0.950 . S
C464 C462 1.391 . S
C464 C465 1.400 . S
C465 C459 1.491 . S
C465 C464 1.400 . S
C465 C466 1.398 . S
C466 H454 0.950 . S
C466 C465 1.398 . S
C466 C467 1.391 . S
C467 H455 0.950 . S
C467 C463 1.393 . S
C467 C466 1.391 . S
H468 C476 0.950 . S
H469 C481 0.950 . S
H470 C478 0.950 . S
H471 C480 0.950 . S
H472 C482 0.950 1_655 S
H473 C484 0.950 . S
H474 C486 0.950 . S
H475 C487 0.950 . S
C476 H468 0.950 . S
C476 C477 1.386 . S
C476 C478 1.391 . S
C477 C476 1.386 . S
C477 C481 1.393 . S
C478 H470 0.950 . S
C478 C476 1.391 . S
C478 C479 1.400 . S
C479 C478 1.400 . S
C479 C480 1.398 . S
C479 C485 1.491 . S
C480 H471 0.950 . S
C480 C479 1.398 . S
C480 C481 1.391 . S
C481 H469 0.950 . S
C481 C477 1.393 . S
C481 C480 1.391 . S
C482 H472 0.950 1_455 S
C482 C483 1.386 . S
C482 C484 1.391 . S
C483 C482 1.386 . S
C483 C487 1.393 . S
C484 H473 0.950 . S
C484 C482 1.391 . S
C484 C485 1.400 . S
C485 C479 1.491 . S
C485 C484 1.400 . S
C485 C486 1.398 . S
C486 H474 0.950 . S
C486 C485 1.398 . S
C486 C487 1.391 . S
C487 H475 0.950 . S
C487 C483 1.393 . S
C487 C486 1.391 . S
H488 C496 0.950 . S
H489 C501 0.950 . S
H490 C498 0.950 . S
H491 C500 0.950 . S
H492 C502 0.950 . S
H493 C504 0.950 . S
H494 C506 0.950 . S
H495 C507 0.950 . S
C496 H488 0.950 . S
C496 C497 1.386 . S
C496 C498 1.391 . S
C497 C496 1.386 . S
C497 C501 1.393 . S
C498 H490 0.950 . S
C498 C496 1.391 . S
C498 C499 1.400 . S
C499 C498 1.400 . S
C499 C500 1.398 . S
C499 C505 1.491 . S
C500 H491 0.950 . S
C500 C499 1.398 . S
C500 C501 1.391 . S
C501 H489 0.950 . S
C501 C497 1.393 . S
C501 C500 1.391 . S
C502 H492 0.950 . S
C502 C503 1.386 . S
C502 C504 1.391 . S
C503 C502 1.386 . S
C503 C507 1.393 . S
C504 H493 0.950 . S
C504 C502 1.391 . S
C504 C505 1.400 . S
C505 C499 1.491 . S
C505 C504 1.400 . S
C505 C506 1.398 . S
C506 H494 0.950 . S
C506 C505 1.398 . S
C506 C507 1.391 . S
C507 H495 0.950 . S
C507 C503 1.393 . S
C507 C506 1.391 . S
H508 C516 0.950 . S
H509 C521 0.950 . S
H510 C518 0.950 . S
H511 C520 0.950 . S
H512 C522 0.950 . S
H513 C524 0.950 . S
H514 C526 0.950 . S
H515 C527 0.950 . S
C516 H508 0.950 . S
C516 C517 1.386 . S
C516 C518 1.391 . S
C517 C516 1.386 . S
C517 C521 1.393 . S
C518 H510 0.950 . S
C518 C516 1.391 . S
C518 C519 1.400 . S
C519 C518 1.400 . S
C519 C520 1.398 . S
C519 C525 1.491 . S
C520 H511 0.950 . S
C520 C519 1.398 . S
C520 C521 1.391 . S
C521 H509 0.950 . S
C521 C517 1.393 . S
C521 C520 1.391 . S
C522 H512 0.950 . S
C522 C523 1.386 . S
C522 C524 1.391 . S
C523 C522 1.386 . S
C523 C527 1.393 . S
C524 H513 0.950 . S
C524 C522 1.391 . S
C524 C525 1.400 . S
C525 C519 1.491 . S
C525 C524 1.400 . S
C525 C526 1.398 . S
C526 H514 0.950 . S
C526 C525 1.398 . S
C526 C527 1.391 . S
C527 H515 0.950 . S
C527 C523 1.393 . S
C527 C526 1.391 . S
H528 C536 0.950 . S
H529 C541 0.950 1_655 S
H530 C538 0.950 . S
H531 C540 0.950 1_655 S
H532 C542 0.950 1_655 S
H533 C544 0.950 1_655 S
H534 C546 0.950 . S
H535 C547 0.950 . S
C536 H528 0.950 . S
C536 C537 1.386 . S
C536 C538 1.391 . S
C537 C536 1.386 . S
C537 C541 1.393 . S
C538 H530 0.950 . S
C538 C536 1.391 . S
C538 C539 1.400 . S
C539 C538 1.400 . S
C539 C540 1.398 . S
C539 C545 1.491 . S
C540 H531 0.950 1_455 S
C540 C539 1.398 . S
C540 C541 1.391 . S
C541 H529 0.950 1_455 S
C541 C537 1.393 . S
C541 C540 1.391 . S
C542 H532 0.950 1_455 S
C542 C543 1.386 . S
C542 C544 1.391 . S
C543 C542 1.386 . S
C543 C547 1.393 . S
C544 H533 0.950 1_455 S
C544 C542 1.391 . S
C544 C545 1.400 . S
C545 C539 1.491 . S
C545 C544 1.400 . S
C545 C546 1.398 . S
C546 H534 0.950 . S
C546 C545 1.398 . S
C546 C547 1.391 . S
C547 H535 0.950 . S
C547 C543 1.393 . S
C547 C546 1.391 . S
H548 C556 0.950 . S
H549 C561 0.950 1_565 S
H550 C558 0.950 . S
H551 C560 0.950 1_565 S
H552 C562 0.950 1_565 S
H553 C564 0.950 1_565 S
H554 C566 0.950 . S
H555 C567 0.950 . S
C556 H548 0.950 . S
C556 C557 1.386 . S
C556 C558 1.391 . S
C557 C556 1.386 . S
C557 C561 1.393 . S
C558 H550 0.950 . S
C558 C556 1.391 . S
C558 C559 1.400 . S
C559 C558 1.400 . S
C559 C560 1.398 . S
C559 C565 1.491 . S
C560 H551 0.950 1_545 S
C560 C559 1.398 . S
C560 C561 1.391 . S
C561 H549 0.950 1_545 S
C561 C557 1.393 . S
C561 C560 1.391 . S
C562 H552 0.950 1_545 S
C562 C563 1.386 . S
C562 C564 1.391 . S
C563 C562 1.386 . S
C563 C567 1.393 . S
C564 H553 0.950 1_545 S
C564 C562 1.391 . S
C564 C565 1.400 . S
C565 C559 1.491 . S
C565 C564 1.400 . S
C565 C566 1.398 . S
C566 H554 0.950 . S
C566 C565 1.398 . S
C566 C567 1.391 . S
C567 H555 0.950 . S
C567 C563 1.393 . S
C567 C566 1.391 . S
H568 C576 0.950 . S
H569 C581 0.950 . S
H570 C578 0.950 . S
H571 C580 0.950 . S
H572 C582 0.950 . S
H573 C584 0.950 . S
H574 C586 0.950 . S
H575 C587 0.950 . S
C576 H568 0.950 . S
C576 C577 1.386 . S
C576 C578 1.391 . S
C577 C576 1.386 . S
C577 C581 1.393 . S
C578 H570 0.950 . S
C578 C576 1.391 . S
C578 C579 1.400 . S
C579 C578 1.400 . S
C579 C580 1.398 . S
C579 C585 1.491 . S
C580 H571 0.950 . S
C580 C579 1.398 . S
C580 C581 1.391 . S
C581 H569 0.950 . S
C581 C577 1.393 . S
C581 C580 1.391 . S
C582 H572 0.950 . S
C582 C583 1.386 . S
C582 C584 1.391 . S
C583 C582 1.386 . S
C583 C587 1.393 . S
C584 H573 0.950 . S
C584 C582 1.391 . S
C584 C585 1.400 . S
C585 C579 1.491 . S
C585 C584 1.400 . S
C585 C586 1.398 . S
C586 H574 0.950 . S
C586 C585 1.398 . S
C586 C587 1.391 . S
C587 H575 0.950 . S
C587 C583 1.393 . S
C587 C586 1.391 . S
H588 C596 0.950 . S
H589 C601 0.950 . S
H590 C598 0.950 . S
H591 C600 0.950 . S
H592 C602 0.950 . S
H593 C604 0.950 . S
H594 C606 0.950 . S
H595 C607 0.950 . S
C596 H588 0.950 . S
C596 C597 1.386 . S
C596 C598 1.391 . S
C597 C596 1.386 . S
C597 C601 1.393 . S
C598 H590 0.950 . S
C598 C596 1.391 . S
C598 C599 1.400 . S
C599 C598 1.400 . S
C599 C600 1.398 . S
C599 C605 1.491 . S
C600 H591 0.950 . S
C600 C599 1.398 . S
C600 C601 1.391 . S
C601 H589 0.950 . S
C601 C597 1.393 . S
C601 C600 1.391 . S
C602 H592 0.950 . S
C602 C603 1.386 . S
C602 C604 1.391 . S
C603 C602 1.386 . S
C603 C607 1.393 . S
C604 H593 0.950 . S
C604 C602 1.391 . S
C604 C605 1.400 . S
C605 C599 1.491 . S
C605 C604 1.400 . S
C605 C606 1.398 . S
C606 H594 0.950 . S
C606 C605 1.398 . S
C606 C607 1.391 . S
C607 H595 0.950 . S
C607 C603 1.393 . S
C607 C606 1.391 . S
H608 C616 0.950 . S
H609 C621 0.950 1_455 S
H610 C618 0.950 . S
H611 C620 0.950 1_455 S
H612 C622 0.950 1_455 S
H613 C624 0.950 1_455 S
H614 C626 0.950 . S
H615 C627 0.950 . S
C616 H608 0.950 . S
C616 C617 1.386 . S
C616 C618 1.391 . S
C617 C616 1.386 . S
C617 C621 1.393 . S
C618 H610 0.950 . S
C618 C616 1.391 . S
C618 C619 1.400 . S
C619 C618 1.400 . S
C619 C620 1.398 . S
C619 C625 1.491 . S
C620 H611 0.950 1_655 S
C620 C619 1.398 . S
C620 C621 1.391 . S
C621 H609 0.950 1_655 S
C621 C617 1.393 . S
C621 C620 1.391 . S
C622 H612 0.950 1_655 S
C622 C623 1.386 . S
C622 C624 1.391 . S
C623 C622 1.386 . S
C623 C627 1.393 . S
C624 H613 0.950 1_655 S
C624 C622 1.391 . S
C624 C625 1.400 . S
C625 C619 1.491 . S
C625 C624 1.400 . S
C625 C626 1.398 . S
C626 H614 0.950 . S
C626 C625 1.398 . S
C626 C627 1.391 . S
C627 H615 0.950 . S
C627 C623 1.393 . S
C627 C626 1.391 . S
H628 C636 0.950 1_545 S
H629 C641 0.950 . S
H630 C638 0.950 1_545 S
H631 C640 0.950 . S
H632 C642 0.950 . S
H633 C644 0.950 . S
H634 C646 0.950 1_545 S
H635 C647 0.950 1_545 S
C636 H628 0.950 1_565 S
C636 C637 1.386 . S
C636 C638 1.391 . S
C637 C636 1.386 . S
C637 C641 1.393 . S
C638 H630 0.950 1_565 S
C638 C636 1.391 . S
C638 C639 1.400 . S
C639 C638 1.400 . S
C639 C640 1.398 . S
C639 C645 1.491 . S
C640 H631 0.950 . S
C640 C639 1.398 . S
C640 C641 1.391 . S
C641 H629 0.950 . S
C641 C637 1.393 . S
C641 C640 1.391 . S
C642 H632 0.950 . S
C642 C643 1.386 . S
C642 C644 1.391 . S
C643 C642 1.386 . S
C643 C647 1.393 . S
C644 H633 0.950 . S
C644 C642 1.391 . S
C644 C645 1.400 . S
C645 C639 1.491 . S
C645 C644 1.400 . S
C645 C646 1.398 . S
C646 H634 0.950 1_565 S
C646 C645 1.398 . S
C646 C647 1.391 . S
C647 H635 0.950 1_565 S
C647 C643 1.393 . S
C647 C646 1.391 . S
H648 C656 0.950 . S
H649 C661 0.950 . S
H650 C658 0.950 . S
H651 C660 0.950 . S
H652 C662 0.950 . S
H653 C664 0.950 . S
H654 C666 0.950 . S
H655 C667 0.950 . S
C656 H648 0.950 . S
C656 C657 1.386 . S
C656 C658 1.391 . S
C657 C656 1.386 . S
C657 C661 1.393 . S
C658 H650 0.950 . S
C658 C656 1.391 . S
C658 C659 1.400 . S
C659 C658 1.400 . S
C659 C660 1.398 . S
C659 C665 1.491 . S
C660 H651 0.950 . S
C660 C659 1.398 . S
C660 C661 1.391 . S
C661 H649 0.950 . S
C661 C657 1.393 . S
C661 C660 1.391 . S
C662 H652 0.950 . S
C662 C663 1.386 . S
C662 C664 1.391 . S
C663 C662 1.386 . S
C663 C667 1.393 . S
C664 H653 0.950 . S
C664 C662 1.391 . S
C664 C665 1.400 . S
C665 C659 1.491 . S
C665 C664 1.400 . S
C665 C666 1.398 . S
C666 H654 0.950 . S
C666 C665 1.398 . S
C666 C667 1.391 . S
C667 H655 0.950 . S
C667 C663 1.393 . S
C667 C666 1.391 . S
H668 C676 0.950 . S
H669 C681 0.950 . S
H670 C678 0.950 . S
H671 C680 0.950 . S
H672 C682 0.950 . S
H673 C684 0.950 . S
H674 C686 0.950 . S
H675 C687 0.950 . S
C676 H668 0.950 . S
C676 C677 1.386 . S
C676 C678 1.391 . S
C677 C676 1.386 . S
C677 C681 1.393 . S
C678 H670 0.950 . S
C678 C676 1.391 . S
C678 C679 1.400 . S
C679 C678 1.400 . S
C679 C680 1.398 . S
C679 C685 1.491 . S
C680 H671 0.950 . S
C680 C679 1.398 . S
C680 C681 1.391 . S
C681 H669 0.950 . S
C681 C677 1.393 . S
C681 C680 1.391 . S
C682 H672 0.950 . S
C682 C683 1.386 . S
C682 C684 1.391 . S
C683 C682 1.386 . S
C683 C687 1.393 . S
C684 H673 0.950 . S
C684 C682 1.391 . S
C684 C685 1.400 . S
C685 C679 1.491 . S
C685 C684 1.400 . S
C685 C686 1.398 . S
C686 H674 0.950 . S
C686 C685 1.398 . S
C686 C687 1.391 . S
C687 H675 0.950 . S
C687 C683 1.393 . S
C687 C686 1.391 . S
H688 C696 0.950 . S
H689 C701 0.950 . S
H690 C698 0.950 . S
H691 C700 0.950 . S
H692 C702 0.950 . S
H693 C704 0.950 . S
H694 C706 0.950 . S
H695 C707 0.950 . S
C696 H688 0.950 . S
C696 C697 1.386 . S
C696 C698 1.391 1_554 S
C697 C696 1.386 . S
C697 C701 1.393 . S
C698 H690 0.950 . S
C698 C696 1.391 1_556 S
C698 C699 1.400 1_556 S
C699 C698 1.400 1_554 S
C699 C700 1.398 . S
C699 C705 1.491 1_454 S
C700 H691 0.950 . S
C700 C699 1.398 . S
C700 C701 1.391 . S
C701 H689 0.950 . S
C701 C697 1.393 . S
C701 C700 1.391 . S
C702 H692 0.950 . S
C702 C703 1.386 . S
C702 C704 1.391 1_556 S
C703 C702 1.386 . S
C703 C707 1.393 . S
C704 H693 0.950 . S
C704 C702 1.391 1_554 S
C704 C705 1.400 1_554 S
C705 C699 1.491 1_656 S
C705 C704 1.400 1_556 S
C705 C706 1.398 . S
C706 H694 0.950 . S
C706 C705 1.398 . S
C706 C707 1.391 . S
C707 H695 0.950 . S
C707 C703 1.393 . S
C707 C706 1.391 . S
H708 C716 0.950 . S
H709 C721 0.950 . S
H710 C718 0.950 1_655 S
H711 C720 0.950 . S
H712 C722 0.950 . S
H713 C724 0.950 1_455 S
H714 C726 0.950 . S
H715 C727 0.950 . S
C716 H708 0.950 . S
C716 C717 1.386 . S
C716 C718 1.391 1_565 S
C717 C716 1.386 . S
C717 C721 1.393 . S
C718 H710 0.950 1_455 S
C718 C716 1.391 1_545 S
C718 C719 1.400 1_545 S
C719 C718 1.400 1_565 S
C719 C720 1.398 1_556 S
C719 C725 1.491 1_466 S
C720 H711 0.950 . S
C720 C719 1.398 1_554 S
C720 C721 1.391 1_554 S
C721 H709 0.950 . S
C721 C717 1.393 . S
C721 C720 1.391 1_556 S
C722 H712 0.950 . S
C722 C723 1.386 . S
C722 C724 1.391 1_545 S
C723 C722 1.386 . S
C723 C727 1.393 . S
C724 H713 0.950 1_655 S
C724 C722 1.391 1_565 S
C724 C725 1.400 1_565 S
C725 C719 1.491 1_644 S
C725 C724 1.400 1_545 S
C725 C726 1.398 1_554 S
C726 H714 0.950 . S
C726 C725 1.398 1_556 S
C726 C727 1.391 1_556 S
C727 H715 0.950 . S
C727 C723 1.393 . S
C727 C726 1.391 1_554 S
H728 C736 0.950 . S
H729 C741 0.950 . S
H730 C738 0.950 1_545 S
H731 C740 0.950 1_556 S
H732 C742 0.950 . S
H733 C744 0.950 1_565 S
H734 C746 0.950 1_554 S
H735 C747 0.950 . S
C736 H728 0.950 . S
C736 C737 1.386 . S
C736 C738 1.391 . S
C737 C736 1.386 . S
C737 C741 1.393 . S
C738 H730 0.950 1_565 S
C738 C736 1.391 . S
C738 C739 1.400 . S
C739 C738 1.400 . S
C739 C740 1.398 . S
C739 C745 1.491 1_564 S
C740 H731 0.950 1_554 S
C740 C739 1.398 . S
C740 C741 1.391 . S
C741 H729 0.950 . S
C741 C737 1.393 . S
C741 C740 1.391 . S
C742 H732 0.950 . S
C742 C743 1.386 . S
C742 C744 1.391 . S
C743 C742 1.386 . S
C743 C747 1.393 . S
C744 H733 0.950 1_545 S
C744 C742 1.391 . S
C744 C745 1.400 . S
C745 C739 1.491 1_546 S
C745 C744 1.400 . S
C745 C746 1.398 . S
C746 H734 0.950 1_556 S
C746 C745 1.398 . S
C746 C747 1.391 . S
C747 H735 0.950 . S
C747 C743 1.393 . S
C747 C746 1.391 . S
H748 C756 0.950 . S
H749 C761 0.950 . S
H750 C758 0.950 . S
H751 C760 0.927 1_554 S
H752 C762 0.950 . S
H753 C764 0.950 . S
H754 C766 0.927 1_556 S
H755 C767 0.950 . S
C756 H748 0.950 . S
C756 C757 1.386 . S
C756 C758 1.391 . S
C757 C756 1.386 . S
C757 C761 1.393 . S
C758 H750 0.950 . S
C758 C756 1.391 . S
C758 C759 1.400 . S
C759 C758 1.400 . S
C759 C760 1.406 . S
C759 C765 1.491 1_556 S
C760 H751 0.927 1_556 S
C760 C759 1.406 . S
C760 C761 1.406 . S
C761 H749 0.950 . S
C761 C757 1.393 . S
C761 C760 1.406 . S
C762 H752 0.950 . S
C762 C763 1.386 . S
C762 C764 1.391 . S
C763 C762 1.386 . S
C763 C767 1.393 . S
C764 H753 0.950 . S
C764 C762 1.391 . S
C764 C765 1.400 . S
C765 C759 1.491 1_554 S
C765 C764 1.400 . S
C765 C766 1.406 . S
C766 H754 0.927 1_554 S
C766 C765 1.406 . S
C766 C767 1.406 . S
C767 H755 0.950 . S
C767 C763 1.393 . S
C767 C766 1.406 . S
H768 C776 0.950 . S
H769 C781 0.950 . S
H770 C778 0.950 . S
H771 C780 0.950 . S
H772 C782 0.950 . S
H773 C784 0.950 . S
H774 C786 0.950 . S
H775 C787 0.950 . S
C776 H768 0.950 . S
C776 C777 1.386 1_655 S
C776 C778 1.391 . S
C777 C776 1.386 1_455 S
C777 C781 1.393 . S
C778 H770 0.950 . S
C778 C776 1.391 . S
C778 C779 1.400 1_655 S
C779 C778 1.400 1_455 S
C779 C780 1.398 . S
C779 C785 1.491 1_465 S
C780 H771 0.950 . S
C780 C779 1.398 . S
C780 C781 1.391 . S
C781 H769 0.950 . S
C781 C777 1.393 . S
C781 C780 1.391 . S
C782 H772 0.950 . S
C782 C783 1.386 1_455 S
C782 C784 1.391 . S
C783 C782 1.386 1_655 S
C783 C787 1.393 . S
C784 H773 0.950 . S
C784 C782 1.391 . S
C784 C785 1.400 1_455 S
C785 C779 1.491 1_645 S
C785 C784 1.400 1_655 S
C785 C786 1.398 . S
C786 H774 0.950 . S
C786 C785 1.398 . S
C786 C787 1.391 . S
C787 H775 0.950 . S
C787 C783 1.393 . S
C787 C786 1.391 . S
H788 C796 0.950 . S
H789 C801 0.950 . S
H790 C798 0.950 . S
H791 C800 0.950 . S
H792 C802 0.950 . S
H793 C804 0.950 . S
H794 C806 0.950 . S
H795 C807 0.950 . S
C796 H788 0.950 . S
C796 C797 1.386 . S
C796 C798 1.391 . S
C797 C796 1.386 . S
C797 C801 1.393 . S
C798 H790 0.950 . S
C798 C796 1.391 . S
C798 C799 1.400 . S
C799 C798 1.400 . S
C799 C800 1.398 . S
C799 C805 1.491 1_545 S
C800 H791 0.950 . S
C800 C799 1.398 . S
C800 C801 1.391 . S
C801 H789 0.950 . S
C801 C797 1.393 . S
C801 C800 1.391 . S
C802 H792 0.950 . S
C802 C803 1.386 . S
C802 C804 1.391 . S
C803 C802 1.386 . S
C803 C807 1.393 . S
C804 H793 0.950 . S
C804 C802 1.391 . S
C804 C805 1.400 . S
C805 C799 1.491 1_565 S
C805 C804 1.400 . S
C805 C806 1.398 . S
C806 H794 0.950 . S
C806 C805 1.398 . S
C806 C807 1.391 . S
C807 H795 0.950 . S
C807 C803 1.393 . S
C807 C806 1.391 . S
H808 C816 0.950 . S
H809 C821 0.950 . S
H810 C818 0.950 . S
H811 C820 0.950 . S
H812 C822 0.950 . S
H813 C824 0.950 . S
H814 C826 0.950 . S
H815 C827 0.950 . S
C816 H808 0.950 . S
C816 C817 1.386 . S
C816 C818 1.391 . S
C817 C816 1.386 . S
C817 C821 1.393 . S
C818 H810 0.950 . S
C818 C816 1.391 . S
C818 C819 1.400 . S
C819 C818 1.400 . S
C819 C820 1.398 . S
C819 C825 1.491 . S
C820 H811 0.950 . S
C820 C819 1.398 . S
C820 C821 1.391 . S
C821 H809 0.950 . S
C821 C817 1.393 . S
C821 C820 1.391 . S
C822 H812 0.950 . S
C822 C823 1.386 . S
C822 C824 1.391 . S
C823 C822 1.386 . S
C823 C827 1.393 . S
C824 H813 0.950 . S
C824 C822 1.391 . S
C824 C825 1.400 . S
C825 C819 1.491 . S
C825 C824 1.400 . S
C825 C826 1.398 . S
C826 H814 0.950 . S
C826 C825 1.398 . S
C826 C827 1.391 . S
C827 H815 0.950 . S
C827 C823 1.393 . S
C827 C826 1.391 . S
H828 C836 0.950 . S
H829 C841 0.950 . S
H830 C838 0.950 . S
H831 C840 0.950 . S
H832 C842 0.950 . S
H833 C844 0.950 . S
H834 C846 0.950 . S
H835 C847 0.950 . S
C836 H828 0.950 . S
C836 C837 1.386 . S
C836 C838 1.391 . S
C837 C836 1.386 . S
C837 C841 1.393 . S
C838 H830 0.950 . S
C838 C836 1.391 . S
C838 C839 1.400 . S
C839 C838 1.400 . S
C839 C840 1.398 . S
C839 C845 1.491 1_655 S
C840 H831 0.950 . S
C840 C839 1.398 . S
C840 C841 1.391 . S
C841 H829 0.950 . S
C841 C837 1.393 . S
C841 C840 1.391 . S
C842 H832 0.950 . S
C842 C843 1.386 . S
C842 C844 1.391 . S
C843 C842 1.386 . S
C843 C847 1.393 . S
C844 H833 0.950 . S
C844 C842 1.391 . S
C844 C845 1.400 . S
C845 C839 1.491 1_455 S
C845 C844 1.400 . S
C845 C846 1.398 . S
C846 H834 0.950 . S
C846 C845 1.398 . S
C846 C847 1.391 . S
C847 H835 0.950 . S
C847 C843 1.393 . S
C847 C846 1.391 . S
C217 C3 2.270 . S
C223 C29 2.266 . S
C237 C16 2.263 . S
C243 C42 2.272 . S
C257 C55 2.263 . S
C263 C81 2.271 . S
C277 C94 2.272 . S
C283 C68 2.263 . S
C297 C109 2.266 . S
C303 C135 2.270 . S
C317 C148 2.272 . S
C323 C122 2.264 . S
C337 C187 2.271 . S
C343 C161 2.263 . S
C357 C200 2.271 . S
C363 C174 2.263 . S
C377 C92 1.932 . S
C383 C1 1.933 . S
C397 C14 1.925 . S
C403 C53 1.924 . S
C417 C66 1.936 . S
C423 C27 1.936 . S
C437 C40 1.936 . S
C443 C79 1.936 . S
C457 C205 1.936 . S
C463 C114 1.936 . S
C477 C127 1.916 . S
C483 C166 1.917 . S
C497 C140 1.918 . S
C503 C179 1.917 . S
C517 C192 1.936 . S
C523 C153 1.936 . S
C537 C10 0.464 . S
C543 C62 0.465 . S
C557 C23 0.455 . S
C563 C75 0.470 . S
C577 C88 0.470 . S
C583 C36 0.439 . S
C597 C49 0.461 . S
C603 C101 0.467 . S
C617 C157 0.426 . S
C623 C105 0.420 . S
C637 C170 0.464 . S
C643 C118 0.465 . S
C657 C131 0.456 . S
C663 C183 0.470 . S
C677 C144 0.470 . S
C683 C196 0.439 . S
C697 C5 1.844 . S
C703 C107 1.844 . S
C717 C120 1.843 . S
C723 C18 1.843 . S
C737 C31 1.831 . S
C743 C133 1.831 . S
C757 C146 1.843 . S
C763 C44 1.843 . S
C777 C57 1.841 . S
C783 C159 1.841 . S
C797 C70 1.844 . S
C803 C172 1.844 . S
C817 C185 1.838 . S
C823 C83 1.838 . S
C837 C96 1.840 . S
C843 C198 1.840 . S
