# Generated by pormake.
# Topology unx, (4)-cn, num edge types: 1
# Building blocks:
#     Node 0, Type 0, BuildingBlock: CEKHIL_clean_sbu_0, # of connection points: 4
#     Node 1, Type 0, BuildingBlock: CEKHIL_clean_sbu_0, # of connection points: 4
#     Node 2, Type 0, BuildingBlock: CEKHIL_clean_sbu_0, # of connection points: 4
#     Node 3, Type 0, BuildingBlock: CEKHIL_clean_sbu_0, # of connection points: 4
#     Node 4, Type 0, BuildingBlock: CEKHIL_clean_sbu_0, # of connection points: 4
#     Node 5, Type 0, BuildingBlock: CEKHIL_clean_sbu_0, # of connection points: 4
#     Node 6, Type 0, BuildingBlock: CEKHIL_clean_sbu_0, # of connection points: 4
#     Node 7, Type 0, BuildingBlock: CEKHIL_clean_sbu_0, # of connection points: 4
#     Node 8, Type 0, BuildingBlock: CEKHIL_clean_sbu_0, # of connection points: 4
#     Node 9, Type 0, BuildingBlock: CEKHIL_clean_sbu_0, # of connection points: 4
#     Node 10, Type 0, BuildingBlock: CEKHIL_clean_sbu_0, # of connection points: 4
#     Node 11, Type 0, BuildingBlock: CEKHIL_clean_sbu_0, # of connection points: 4
#     Node 12, Type 0, BuildingBlock: CEKHIL_clean_sbu_0, # of connection points: 4
#     Node 13, Type 0, BuildingBlock: CEKHIL_clean_sbu_0, # of connection points: 4
#     Node 14, Type 0, BuildingBlock: CEKHIL_clean_sbu_0, # of connection points: 4
#     Node 15, Type 0, BuildingBlock: CEKHIL_clean_sbu_0, # of connection points: 4
#     Node 16, Type 0, BuildingBlock: CEKHIL_clean_sbu_0, # of connection points: 4
#     Node 17, Type 0, BuildingBlock: CEKHIL_clean_sbu_0, # of connection points: 4
#     Node 18, Type 0, BuildingBlock: CEKHIL_clean_sbu_0, # of connection points: 4
#     Node 19, Type 0, BuildingBlock: CEKHIL_clean_sbu_0, # of connection points: 4
#     Node 20, Type 0, BuildingBlock: CEKHIL_clean_sbu_0, # of connection points: 4
#     Node 21, Type 0, BuildingBlock: CEKHIL_clean_sbu_0, # of connection points: 4
#     Node 22, Type 0, BuildingBlock: CEKHIL_clean_sbu_0, # of connection points: 4
#     Node 23, Type 0, BuildingBlock: CEKHIL_clean_sbu_0, # of connection points: 4
#     Node 24, Type 0, BuildingBlock: CEKHIL_clean_sbu_0, # of connection points: 4
#     Node 25, Type 0, BuildingBlock: CEKHIL_clean_sbu_0, # of connection points: 4
#     Node 26, Type 0, BuildingBlock: CEKHIL_clean_sbu_0, # of connection points: 4
#     Node 27, Type 0, BuildingBlock: CEKHIL_clean_sbu_0, # of connection points: 4
#     Node 28, Type 0, BuildingBlock: CEKHIL_clean_sbu_0, # of connection points: 4
#     Node 29, Type 0, BuildingBlock: CEKHIL_clean_sbu_0, # of connection points: 4
#     Node 30, Type 0, BuildingBlock: CEKHIL_clean_sbu_0, # of connection points: 4
#     Node 31, Type 0, BuildingBlock: CEKHIL_clean_sbu_0, # of connection points: 4
#     Node 32, Type 0, BuildingBlock: CEKHIL_clean_sbu_0, # of connection points: 4
#     Node 33, Type 0, BuildingBlock: CEKHIL_clean_sbu_0, # of connection points: 4
#     Node 34, Type 0, BuildingBlock: CEKHIL_clean_sbu_0, # of connection points: 4
#     Node 35, Type 0, BuildingBlock: CEKHIL_clean_sbu_0, # of connection points: 4
#     Node 36, Type 0, BuildingBlock: CEKHIL_clean_sbu_0, # of connection points: 4
#     Node 37, Type 0, BuildingBlock: CEKHIL_clean_sbu_0, # of connection points: 4
#     Node 38, Type 0, BuildingBlock: CEKHIL_clean_sbu_0, # of connection points: 4
#     Node 39, Type 0, BuildingBlock: CEKHIL_clean_sbu_0, # of connection points: 4
#     Node 40, Type 0, BuildingBlock: CEKHIL_clean_sbu_0, # of connection points: 4
#     Node 41, Type 0, BuildingBlock: CEKHIL_clean_sbu_0, # of connection points: 4
#     Node 42, Type 0, BuildingBlock: CEKHIL_clean_sbu_0, # of connection points: 4
#     Node 43, Type 0, BuildingBlock: CEKHIL_clean_sbu_0, # of connection points: 4
#     Node 44, Type 0, BuildingBlock: CEKHIL_clean_sbu_0, # of connection points: 4
#     Node 45, Type 0, BuildingBlock: CEKHIL_clean_sbu_0, # of connection points: 4
#     Node 46, Type 0, BuildingBlock: CEKHIL_clean_sbu_0, # of connection points: 4
#     Node 47, Type 0, BuildingBlock: CEKHIL_clean_sbu_0, # of connection points: 4
#     Edge 48, Type (0, 0), BuildingBlock: UVAHIK_clean_linker_0, # of connection points: 2
#     Edge 49, Type (0, 0), BuildingBlock: UVAHIK_clean_linker_0, # of connection points: 2
#     Edge 50, Type (0, 0), BuildingBlock: UVAHIK_clean_linker_0, # of connection points: 2
#     Edge 51, Type (0, 0), BuildingBlock: UVAHIK_clean_linker_0, # of connection points: 2
#     Edge 52, Type (0, 0), BuildingBlock: UVAHIK_clean_linker_0, # of connection points: 2
#     Edge 53, Type (0, 0), BuildingBlock: UVAHIK_clean_linker_0, # of connection points: 2
#     Edge 54, Type (0, 0), BuildingBlock: UVAHIK_clean_linker_0, # of connection points: 2
#     Edge 55, Type (0, 0), BuildingBlock: UVAHIK_clean_linker_0, # of connection points: 2
#     Edge 56, Type (0, 0), BuildingBlock: UVAHIK_clean_linker_0, # of connection points: 2
#     Edge 57, Type (0, 0), BuildingBlock: UVAHIK_clean_linker_0, # of connection points: 2
#     Edge 58, Type (0, 0), BuildingBlock: UVAHIK_clean_linker_0, # of connection points: 2
#     Edge 59, Type (0, 0), BuildingBlock: UVAHIK_clean_linker_0, # of connection points: 2
#     Edge 60, Type (0, 0), BuildingBlock: UVAHIK_clean_linker_0, # of connection points: 2
#     Edge 61, Type (0, 0), BuildingBlock: UVAHIK_clean_linker_0, # of connection points: 2
#     Edge 62, Type (0, 0), BuildingBlock: UVAHIK_clean_linker_0, # of connection points: 2
#     Edge 63, Type (0, 0), BuildingBlock: UVAHIK_clean_linker_0, # of connection points: 2
#     Edge 64, Type (0, 0), BuildingBlock: UVAHIK_clean_linker_0, # of connection points: 2
#     Edge 65, Type (0, 0), BuildingBlock: UVAHIK_clean_linker_0, # of connection points: 2
#     Edge 66, Type (0, 0), BuildingBlock: UVAHIK_clean_linker_0, # of connection points: 2
#     Edge 67, Type (0, 0), BuildingBlock: UVAHIK_clean_linker_0, # of connection points: 2
#     Edge 68, Type (0, 0), BuildingBlock: UVAHIK_clean_linker_0, # of connection points: 2
#     Edge 69, Type (0, 0), BuildingBlock: UVAHIK_clean_linker_0, # of connection points: 2
#     Edge 70, Type (0, 0), BuildingBlock: UVAHIK_clean_linker_0, # of connection points: 2
#     Edge 71, Type (0, 0), BuildingBlock: UVAHIK_clean_linker_0, # of connection points: 2
#     Edge 72, Type (0, 0), BuildingBlock: UVAHIK_clean_linker_0, # of connection points: 2
#     Edge 73, Type (0, 0), BuildingBlock: UVAHIK_clean_linker_0, # of connection points: 2
#     Edge 74, Type (0, 0), BuildingBlock: UVAHIK_clean_linker_0, # of connection points: 2
#     Edge 75, Type (0, 0), BuildingBlock: UVAHIK_clean_linker_0, # of connection points: 2
#     Edge 76, Type (0, 0), BuildingBlock: UVAHIK_clean_linker_0, # of connection points: 2
#     Edge 77, Type (0, 0), BuildingBlock: UVAHIK_clean_linker_0, # of connection points: 2
#     Edge 78, Type (0, 0), BuildingBlock: UVAHIK_clean_linker_0, # of connection points: 2
#     Edge 79, Type (0, 0), BuildingBlock: UVAHIK_clean_linker_0, # of connection points: 2
#     Edge 80, Type (0, 0), BuildingBlock: UVAHIK_clean_linker_0, # of connection points: 2
#     Edge 81, Type (0, 0), BuildingBlock: UVAHIK_clean_linker_0, # of connection points: 2
#     Edge 82, Type (0, 0), BuildingBlock: UVAHIK_clean_linker_0, # of connection points: 2
#     Edge 83, Type (0, 0), BuildingBlock: UVAHIK_clean_linker_0, # of connection points: 2
#     Edge 84, Type (0, 0), BuildingBlock: UVAHIK_clean_linker_0, # of connection points: 2
#     Edge 85, Type (0, 0), BuildingBlock: UVAHIK_clean_linker_0, # of connection points: 2
#     Edge 86, Type (0, 0), BuildingBlock: UVAHIK_clean_linker_0, # of connection points: 2
#     Edge 87, Type (0, 0), BuildingBlock: UVAHIK_clean_linker_0, # of connection points: 2
#     Edge 88, Type (0, 0), BuildingBlock: UVAHIK_clean_linker_0, # of connection points: 2
#     Edge 89, Type (0, 0), BuildingBlock: UVAHIK_clean_linker_0, # of connection points: 2
#     Edge 90, Type (0, 0), BuildingBlock: UVAHIK_clean_linker_0, # of connection points: 2
#     Edge 91, Type (0, 0), BuildingBlock: UVAHIK_clean_linker_0, # of connection points: 2
#     Edge 92, Type (0, 0), BuildingBlock: UVAHIK_clean_linker_0, # of connection points: 2
#     Edge 93, Type (0, 0), BuildingBlock: UVAHIK_clean_linker_0, # of connection points: 2
#     Edge 94, Type (0, 0), BuildingBlock: UVAHIK_clean_linker_0, # of connection points: 2
#     Edge 95, Type (0, 0), BuildingBlock: UVAHIK_clean_linker_0, # of connection points: 2
#     Edge 96, Type (0, 0), BuildingBlock: UVAHIK_clean_linker_0, # of connection points: 2
#     Edge 97, Type (0, 0), BuildingBlock: UVAHIK_clean_linker_0, # of connection points: 2
#     Edge 98, Type (0, 0), BuildingBlock: UVAHIK_clean_linker_0, # of connection points: 2
#     Edge 99, Type (0, 0), BuildingBlock: UVAHIK_clean_linker_0, # of connection points: 2
#     Edge 100, Type (0, 0), BuildingBlock: UVAHIK_clean_linker_0, # of connection points: 2
#     Edge 101, Type (0, 0), BuildingBlock: UVAHIK_clean_linker_0, # of connection points: 2
#     Edge 102, Type (0, 0), BuildingBlock: UVAHIK_clean_linker_0, # of connection points: 2
#     Edge 103, Type (0, 0), BuildingBlock: UVAHIK_clean_linker_0, # of connection points: 2
#     Edge 104, Type (0, 0), BuildingBlock: UVAHIK_clean_linker_0, # of connection points: 2
#     Edge 105, Type (0, 0), BuildingBlock: UVAHIK_clean_linker_0, # of connection points: 2
#     Edge 106, Type (0, 0), BuildingBlock: UVAHIK_clean_linker_0, # of connection points: 2
#     Edge 107, Type (0, 0), BuildingBlock: UVAHIK_clean_linker_0, # of connection points: 2
#     Edge 108, Type (0, 0), BuildingBlock: UVAHIK_clean_linker_0, # of connection points: 2
#     Edge 109, Type (0, 0), BuildingBlock: UVAHIK_clean_linker_0, # of connection points: 2
#     Edge 110, Type (0, 0), BuildingBlock: UVAHIK_clean_linker_0, # of connection points: 2
#     Edge 111, Type (0, 0), BuildingBlock: UVAHIK_clean_linker_0, # of connection points: 2
#     Edge 112, Type (0, 0), BuildingBlock: UVAHIK_clean_linker_0, # of connection points: 2
#     Edge 113, Type (0, 0), BuildingBlock: UVAHIK_clean_linker_0, # of connection points: 2
#     Edge 114, Type (0, 0), BuildingBlock: UVAHIK_clean_linker_0, # of connection points: 2
#     Edge 115, Type (0, 0), BuildingBlock: UVAHIK_clean_linker_0, # of connection points: 2
#     Edge 116, Type (0, 0), BuildingBlock: UVAHIK_clean_linker_0, # of connection points: 2
#     Edge 117, Type (0, 0), BuildingBlock: UVAHIK_clean_linker_0, # of connection points: 2
#     Edge 118, Type (0, 0), BuildingBlock: UVAHIK_clean_linker_0, # of connection points: 2
#     Edge 119, Type (0, 0), BuildingBlock: UVAHIK_clean_linker_0, # of connection points: 2
#     Edge 120, Type (0, 0), BuildingBlock: UVAHIK_clean_linker_0, # of connection points: 2
#     Edge 121, Type (0, 0), BuildingBlock: UVAHIK_clean_linker_0, # of connection points: 2
#     Edge 122, Type (0, 0), BuildingBlock: UVAHIK_clean_linker_0, # of connection points: 2
#     Edge 123, Type (0, 0), BuildingBlock: UVAHIK_clean_linker_0, # of connection points: 2
#     Edge 124, Type (0, 0), BuildingBlock: UVAHIK_clean_linker_0, # of connection points: 2
#     Edge 125, Type (0, 0), BuildingBlock: UVAHIK_clean_linker_0, # of connection points: 2
#     Edge 126, Type (0, 0), BuildingBlock: UVAHIK_clean_linker_0, # of connection points: 2
#     Edge 127, Type (0, 0), BuildingBlock: UVAHIK_clean_linker_0, # of connection points: 2
#     Edge 128, Type (0, 0), BuildingBlock: UVAHIK_clean_linker_0, # of connection points: 2
#     Edge 129, Type (0, 0), BuildingBlock: UVAHIK_clean_linker_0, # of connection points: 2
#     Edge 130, Type (0, 0), BuildingBlock: UVAHIK_clean_linker_0, # of connection points: 2
#     Edge 131, Type (0, 0), BuildingBlock: UVAHIK_clean_linker_0, # of connection points: 2
#     Edge 132, Type (0, 0), BuildingBlock: UVAHIK_clean_linker_0, # of connection points: 2
#     Edge 133, Type (0, 0), BuildingBlock: UVAHIK_clean_linker_0, # of connection points: 2
#     Edge 134, Type (0, 0), BuildingBlock: UVAHIK_clean_linker_0, # of connection points: 2
#     Edge 135, Type (0, 0), BuildingBlock: UVAHIK_clean_linker_0, # of connection points: 2
#     Edge 136, Type (0, 0), BuildingBlock: UVAHIK_clean_linker_0, # of connection points: 2
#     Edge 137, Type (0, 0), BuildingBlock: UVAHIK_clean_linker_0, # of connection points: 2
#     Edge 138, Type (0, 0), BuildingBlock: UVAHIK_clean_linker_0, # of connection points: 2
#     Edge 139, Type (0, 0), BuildingBlock: UVAHIK_clean_linker_0, # of connection points: 2
#     Edge 140, Type (0, 0), BuildingBlock: UVAHIK_clean_linker_0, # of connection points: 2
#     Edge 141, Type (0, 0), BuildingBlock: UVAHIK_clean_linker_0, # of connection points: 2
#     Edge 142, Type (0, 0), BuildingBlock: UVAHIK_clean_linker_0, # of connection points: 2
#     Edge 143, Type (0, 0), BuildingBlock: UVAHIK_clean_linker_0, # of connection points: 2
# Relax obj value: 0.549
# Max RMSD: 0.359
# Mean RMSD: 0.246
data_MOF--net-unx--node1-CEKHIL_clean_sbu_0--edge1-UVAHIK_clean_linker_0
_symmetry_space_group_name_H-M    P1
_symmetry_Int_Tables_number       1
_symmetry_cell_setting            triclinic
loop_
_symmetry_equiv_pos_as_xyz
'x, y, z'
_cell_length_a     67.720164
_cell_length_b     65.588953
_cell_length_c     68.271714
_cell_angle_alpha  89.99659
_cell_angle_beta   90.000905
_cell_angle_gamma 91.792553
loop_
_atom_site_label
_atom_site_type_symbol
_atom_site_fract_x
_atom_site_fract_y
_atom_site_fract_z
_atom_type_partial_charge
Co0 Co 0.13213 0.52714 0.10781 0.0
O1 O 0.15138 0.50745 0.10086 0.0
O2 O 0.15195 0.52605 0.12799 0.0
C3 C 0.10463 0.50832 0.10098 0.0
O4 O 0.1145 0.54813 0.12022 0.0
Co5 Co 0.10466 0.54436 0.07577 0.0
O6 O 0.08963 0.55329 0.0991 0.0
C7 C 0.14555 0.56054 0.07883 0.0
C8 C 0.16008 0.51223 0.11726 0.0
C9 C 0.09753 0.55524 0.11599 0.0
O10 O 0.148 0.54955 0.0942 0.0
O11 O 0.12981 0.55955 0.06843 0.0
O12 O 0.11405 0.50568 0.11732 0.0
O13 O 0.1137 0.5199 0.08831 0.0
Co14 Co 0.77295 0.55182 0.43706 0.0
O15 O 0.77883 0.58046 0.4408 0.0
O16 O 0.74875 0.56653 0.43763 0.0
C17 C 0.79254 0.53842 0.45998 0.0
O18 O 0.76126 0.52296 0.43365 0.0
Co19 Co 0.80581 0.52486 0.42062 0.0
O20 O 0.78617 0.50251 0.42589 0.0
C21 C 0.78521 0.55109 0.39355 0.0
C22 C 0.75989 0.58291 0.43966 0.0
C23 C 0.76816 0.50519 0.43033 0.0
O24 O 0.77394 0.55583 0.40785 0.0
O25 O 0.80006 0.53972 0.39563 0.0
O26 O 0.77591 0.54642 0.46484 0.0
O27 O 0.79836 0.54236 0.44223 0.0
Co28 Co 0.87239 0.99711 0.8149 0.0
O29 O 0.8496 0.00227 0.83079 0.0
O30 O 0.85414 0.97432 0.81316 0.0
C31 C 0.89628 0.0065 0.83592 0.0
O32 O 0.89367 0.98589 0.79734 0.0
Co33 Co 0.9 0.03226 0.80038 0.0
O34 O 0.91601 0.01038 0.7888 0.0
C35 C 0.8604 0.0276 0.78367 0.0
C36 C 0.84283 0.98463 0.8246 0.0
C37 C 0.90977 0.99185 0.7888 0.0
O38 O 0.85894 0.01013 0.79209 0.0
O39 O 0.87516 0.03996 0.78633 0.0
O40 O 0.88729 0.98878 0.83754 0.0
O41 O 0.88859 0.019 0.82355 0.0
Co42 Co 0.33375 0.28951 0.01181 0.0
O43 O 0.31133 0.27695 0.02479 0.0
O44 O 0.34229 0.26744 0.02809 0.0
C45 C 0.32622 0.32216 0.01692 0.0
O46 O 0.36055 0.29892 0.00132 0.0
Co47 Co 0.32847 0.31627 0.97479 0.0
O48 O 0.35682 0.32389 0.97919 0.0
C49 C 0.32439 0.27157 0.97152 0.0
C50 C 0.32368 0.26431 0.03223 0.0
C51 C 0.36766 0.31301 0.99001 0.0
O52 O 0.33025 0.26991 0.98933 0.0
O53 O 0.32114 0.28876 0.9634 0.0
O54 O 0.33491 0.312 0.03064 0.0
O55 O 0.3206 0.31176 0.00177 0.0
Co56 Co 0.12887 0.50834 0.70004 0.0
O57 O 0.10467 0.51087 0.68605 0.0
O58 O 0.11221 0.52696 0.7138 0.0
C59 C 0.14947 0.51025 0.67442 0.0
O60 O 0.15291 0.50981 0.71793 0.0
Co61 Co 0.15402 0.47039 0.69258 0.0
O62 O 0.17419 0.48629 0.70791 0.0
C63 C 0.11765 0.46588 0.71557 0.0
C64 C 0.09923 0.52262 0.70022 0.0
C65 C 0.16994 0.5016 0.71847 0.0
O66 O 0.1166 0.48539 0.7159 0.0
O67 O 0.13055 0.45659 0.70552 0.0
O68 O 0.1429 0.52693 0.68205 0.0
O69 O 0.14139 0.49349 0.68082 0.0
Co70 Co 0.78609 0.21412 0.99687 0.0
O71 O 0.76548 0.22295 0.97979 0.0
O72 O 0.79716 0.23221 0.97726 0.0
C73 C 0.77836 0.18077 0.99845 0.0
O74 O 0.81141 0.20766 0.01135 0.0
Co75 Co 0.7753 0.19848 0.03831 0.0
O76 O 0.80307 0.18953 0.03822 0.0
C77 C 0.77544 0.24235 0.03112 0.0
C78 C 0.7791 0.23408 0.97115 0.0
C79 C 0.81596 0.19669 0.02624 0.0
O80 O 0.78206 0.23854 0.01396 0.0
O81 O 0.77051 0.22825 0.0433 0.0
O82 O 0.78767 0.1883 0.98329 0.0
O83 O 0.77117 0.19405 0.01035 0.0
Co84 Co 0.87412 0.04704 0.41096 0.0
O85 O 0.89291 0.02592 0.40812 0.0
O86 O 0.89414 0.04963 0.4312 0.0
C87 C 0.8469 0.02705 0.40694 0.0
O88 O 0.85701 0.07082 0.41874 0.0
Co89 Co 0.84654 0.05775 0.37624 0.0
O90 O 0.83351 0.07506 0.39595 0.0
C91 C 0.88776 0.07349 0.37631 0.0
C92 C 0.90198 0.03378 0.4232 0.0
C93 C 0.84149 0.07958 0.41236 0.0
O94 O 0.89038 0.06556 0.39332 0.0
O95 O 0.87174 0.07107 0.3665 0.0
O96 O 0.85539 0.02823 0.42401 0.0
O97 O 0.85609 0.03625 0.39278 0.0
Co98 Co 0.25676 0.962 0.5785 0.0
O99 O 0.26573 0.93457 0.57789 0.0
O100 O 0.23431 0.94305 0.57721 0.0
C101 C 0.2778 0.97545 0.55617 0.0
O102 O 0.24218 0.98878 0.57845 0.0
Co103 Co 0.28505 0.99668 0.59351 0.0
O104 O 0.2647 0.01444 0.58228 0.0
C105 C 0.26488 0.96977 0.6221 0.0
C106 C 0.24724 0.92877 0.57744 0.0
C107 C 0.24714 0.00792 0.57865 0.0
O108 O 0.25555 0.96099 0.60789 0.0
O109 O 0.27832 0.98369 0.61949 0.0
O110 O 0.26194 0.96539 0.55061 0.0
O111 O 0.28161 0.9747 0.57472 0.0
Co112 Co 0.19632 0.69655 0.5262 0.0
O113 O 0.21526 0.71015 0.54304 0.0
O114 O 0.1828 0.71335 0.54468 0.0
C115 C 0.20809 0.66499 0.52635 0.0
O116 O 0.17242 0.68455 0.51181 0.0
Co117 Co 0.20966 0.68076 0.48577 0.0
O118 O 0.18298 0.66719 0.48562 0.0
C119 C 0.20502 0.72458 0.49091 0.0
C120 C 0.20029 0.7191 0.55081 0.0
C121 C 0.1693 0.67234 0.49728 0.0
O122 O 0.19776 0.72056 0.50788 0.0
O123 O 0.21223 0.71087 0.4799 0.0
O124 O 0.19761 0.6713 0.541 0.0
O125 O 0.21373 0.67896 0.51395 0.0
Co126 Co 0.37347 0.44055 0.61654 0.0
O127 O 0.3536 0.45986 0.6113 0.0
O128 O 0.35185 0.43656 0.63483 0.0
C129 C 0.39959 0.46233 0.61533 0.0
O130 O 0.39194 0.41875 0.62632 0.0
Co131 Co 0.40444 0.43263 0.58386 0.0
O132 O 0.41823 0.41949 0.60596 0.0
C133 C 0.3645 0.41407 0.58055 0.0
C134 C 0.34382 0.4517 0.62577 0.0
C135 C 0.40957 0.41372 0.62168 0.0
O136 O 0.36045 0.42054 0.59782 0.0
O137 O 0.38068 0.41867 0.57166 0.0
O138 O 0.38902 0.46088 0.63117 0.0
O139 O 0.39244 0.45279 0.60024 0.0
Co140 Co 0.70897 0.46527 0.92664 0.0
O141 O 0.69989 0.4372 0.9271 0.0
O142 O 0.73125 0.44784 0.92887 0.0
C143 C 0.68744 0.47802 0.94812 0.0
O144 O 0.72385 0.49275 0.92727 0.0
Co145 Co 0.6818 0.49853 0.91042 0.0
O146 O 0.70273 0.51762 0.9206 0.0
C147 C 0.70223 0.4722 0.88275 0.0
C148 C 0.7184 0.43269 0.92837 0.0
C149 C 0.71975 0.51173 0.9257 0.0
O150 O 0.71131 0.46427 0.89726 0.0
O151 O 0.68865 0.48516 0.88491 0.0
O152 O 0.70279 0.46849 0.95429 0.0
O153 O 0.68416 0.47681 0.92948 0.0
Co154 Co 0.63466 0.99364 0.30208 0.0
O155 O 0.64785 0.98104 0.32362 0.0
O156 O 0.65715 0.01047 0.30994 0.0
C157 C 0.60374 0.98972 0.31345 0.0
O158 O 0.62419 0.01156 0.2802 0.0
Co159 Co 0.60607 0.96767 0.27598 0.0
O160 O 0.59927 0.99455 0.26492 0.0
C161 C 0.64887 0.96366 0.27119 0.0
C162 C 0.66015 0.99661 0.32317 0.0
C163 C 0.60987 0.0107 0.26773 0.0
O164 O 0.65167 0.97872 0.28302 0.0
O165 O 0.63174 0.95575 0.26757 0.0
O166 O 0.61518 0.00459 0.31972 0.0
O167 O 0.61211 0.9764 0.3025 0.0
Co168 Co 0.63871 0.20844 0.1188 0.0
O169 O 0.63119 0.22826 0.13787 0.0
O170 O 0.65812 0.2099 0.13934 0.0
C171 C 0.63328 0.22731 0.0921 0.0
O172 O 0.6518 0.18731 0.10184 0.0
Co173 Co 0.60837 0.18942 0.09007 0.0
O174 O 0.63138 0.17636 0.07788 0.0
C175 C 0.60871 0.17467 0.13065 0.0
C176 C 0.64714 0.22359 0.14722 0.0
C177 C 0.64814 0.17667 0.08636 0.0
O178 O 0.62389 0.18645 0.13367 0.0
O179 O 0.59935 0.17423 0.11435 0.0
O180 O 0.64953 0.22971 0.10205 0.0
O181 O 0.61987 0.21515 0.09971 0.0
Co182 Co 0.9585 0.71956 0.40442 0.0
O183 O 0.94227 0.73005 0.38406 0.0
O184 O 0.96493 0.70672 0.37992 0.0
C185 C 0.93443 0.71532 0.42665 0.0
O186 O 0.97765 0.70477 0.42202 0.0
Co187 Co 0.96394 0.74286 0.44376 0.0
O188 O 0.97644 0.71751 0.45252 0.0
C189 C 0.98482 0.75781 0.40842 0.0
C190 C 0.95194 0.71854 0.3722 0.0
C191 C 0.98231 0.70433 0.4403 0.0
O192 O 0.97881 0.74191 0.39888 0.0
O193 O 0.97969 0.76158 0.42607 0.0
O194 O 0.93701 0.70118 0.41361 0.0
O195 O 0.94522 0.73172 0.42486 0.0
Co196 Co 0.56986 0.23335 0.61412 0.0
O197 O 0.58632 0.23841 0.63643 0.0
O198 O 0.55795 0.22045 0.63683 0.0
C199 C 0.59427 0.22584 0.59345 0.0
O200 O 0.54944 0.22448 0.59375 0.0
Co201 Co 0.57426 0.26045 0.57709 0.0
O202 O 0.55788 0.2383 0.56467 0.0
C203 C 0.55359 0.27617 0.61173 0.0
C204 C 0.57293 0.22839 0.64643 0.0
C205 C 0.54739 0.22598 0.57506 0.0
O206 O 0.55486 0.25866 0.62001 0.0
O207 O 0.56158 0.28043 0.59515 0.0
O208 O 0.58696 0.21174 0.60499 0.0
O209 O 0.58785 0.24393 0.596 0.0
Co210 Co 0.90324 0.68645 0.89076 0.0
O211 O 0.91579 0.70684 0.87434 0.0
O212 O 0.88703 0.69099 0.86812 0.0
C213 C 0.90752 0.70287 0.91926 0.0
O214 O 0.88527 0.66525 0.9041 0.0
Co215 Co 0.92659 0.66282 0.92137 0.0
O216 O 0.90063 0.65073 0.92941 0.0
C217 C 0.93098 0.65224 0.88007 0.0
C218 C 0.90077 0.70408 0.86269 0.0
C219 C 0.88532 0.65316 0.91893 0.0
O220 O 0.91748 0.6649 0.87617 0.0
O221 O 0.93764 0.64937 0.89735 0.0
O222 O 0.89296 0.70712 0.90771 0.0
O223 O 0.92017 0.69018 0.91247 0.0
Co224 Co 0.96708 0.75144 0.1344 0.0
O225 O 0.9493 0.74663 0.15573 0.0
O226 O 0.9772 0.76519 0.15754 0.0
C227 C 0.944 0.75826 0.112 0.0
O228 O 0.98858 0.76008 0.11503 0.0
Co229 Co 0.96482 0.72331 0.09777 0.0
O230 O 0.98155 0.74552 0.0859 0.0
C231 C 0.98217 0.70834 0.13448 0.0
C232 C 0.96168 0.75731 0.16634 0.0
C233 C 0.99138 0.75825 0.09647 0.0
O234 O 0.98186 0.72639 0.14177 0.0
O235 O 0.9745 0.70361 0.11788 0.0
O236 O 0.95039 0.77265 0.1237 0.0
O237 O 0.95032 0.7403 0.11545 0.0
Co238 Co 0.36322 0.79112 0.11958 0.0
O239 O 0.3723 0.7712 0.1378 0.0
O240 O 0.344 0.78723 0.14011 0.0
C241 C 0.36986 0.77407 0.09206 0.0
O242 O 0.34863 0.81196 0.10358 0.0
Co243 Co 0.39217 0.81345 0.09135 0.0
O244 O 0.36806 0.82489 0.07968 0.0
C245 C 0.39111 0.82626 0.13257 0.0
C246 C 0.35607 0.77419 0.1474 0.0
C247 C 0.35144 0.82325 0.08836 0.0
O248 O 0.37666 0.81342 0.13525 0.0
O249 O 0.40032 0.82801 0.11624 0.0
O250 O 0.35383 0.76989 0.10192 0.0
O251 O 0.38238 0.78679 0.10023 0.0
Co252 Co 0.57894 0.28162 0.87438 0.0
O253 O 0.59573 0.28065 0.85186 0.0
O254 O 0.56849 0.29851 0.85407 0.0
C255 C 0.60252 0.28512 0.89718 0.0
O256 O 0.55831 0.2868 0.89525 0.0
Co257 Co 0.57971 0.24797 0.90616 0.0
O258 O 0.56464 0.26782 0.92179 0.0
C259 C 0.55907 0.23948 0.86898 0.0
C260 C 0.58298 0.29215 0.8434 0.0
C261 C 0.55545 0.28201 0.91332 0.0
O262 O 0.56265 0.25801 0.86372 0.0
O263 O 0.56536 0.23201 0.88507 0.0
O264 O 0.59686 0.30104 0.88755 0.0
O265 O 0.59545 0.26771 0.89118 0.0
Co266 Co 0.63287 0.29856 0.3739 0.0
O267 O 0.6274 0.27864 0.35382 0.0
O268 O 0.65294 0.3007 0.35406 0.0
C269 C 0.62755 0.27812 0.39972 0.0
O270 O 0.64392 0.32067 0.39197 0.0
Co271 Co 0.60057 0.31254 0.40234 0.0
O272 O 0.62222 0.32842 0.41548 0.0
C273 C 0.60082 0.32808 0.36208 0.0
C274 C 0.64316 0.28606 0.34519 0.0
C275 C 0.63918 0.33043 0.40752 0.0
O276 O 0.61703 0.31888 0.35926 0.0
O277 O 0.59105 0.32679 0.3781 0.0
O278 O 0.64431 0.27804 0.39044 0.0
O279 O 0.61389 0.2889 0.39193 0.0
Co280 Co 0.12466 0.00838 0.81437 0.0
O281 O 0.14749 0.00596 0.83092 0.0
O282 O 0.14176 0.03189 0.81101 0.0
C283 C 0.10107 0.99921 0.83579 0.0
O284 O 0.10303 0.01687 0.7957 0.0
Co285 Co 0.09916 0.97073 0.80208 0.0
O286 O 0.08172 0.99073 0.78947 0.0
C287 C 0.13848 0.97664 0.78502 0.0
C288 C 0.15354 0.02323 0.82327 0.0
C289 C 0.08711 0.00944 0.78783 0.0
O290 O 0.13917 0.99443 0.79283 0.0
O291 O 0.12417 0.96378 0.78788 0.0
O292 O 0.10896 0.01755 0.83613 0.0
O293 O 0.10958 0.98631 0.82441 0.0
Co294 Co 0.6643 0.7083 0.01801 0.0
O295 O 0.68585 0.72007 0.03281 0.0
O296 O 0.6547 0.72931 0.03504 0.0
C297 C 0.67181 0.67535 0.02147 0.0
O298 O 0.63826 0.6993 0.00546 0.0
Co299 Co 0.67269 0.68426 0.97978 0.0
O300 O 0.644 0.67692 0.98132 0.0
C301 C 0.6759 0.72905 0.97946 0.0
C302 C 0.67308 0.73226 0.04021 0.0
C303 C 0.63221 0.68649 0.99233 0.0
O304 O 0.66875 0.7294 0.99689 0.0
O305 O 0.68028 0.71255 0.97066 0.0
O306 O 0.66239 0.68449 0.03539 0.0
O307 O 0.67822 0.68694 0.00746 0.0
Co308 Co 0.86477 0.47029 0.10628 0.0
O309 O 0.84629 0.49036 0.09831 0.0
O310 O 0.84461 0.47274 0.12601 0.0
C311 C 0.89291 0.4881 0.09952 0.0
O312 O 0.88148 0.44911 0.11967 0.0
Co313 Co 0.89247 0.45131 0.0754 0.0
O314 O 0.90669 0.44264 0.09933 0.0
C315 C 0.85103 0.43659 0.07781 0.0
C316 C 0.83718 0.48651 0.1147 0.0
C317 C 0.89833 0.44138 0.11604 0.0
O318 O 0.84855 0.44797 0.09291 0.0
O319 O 0.86702 0.43688 0.06777 0.0
O320 O 0.88327 0.49149 0.11559 0.0
O321 O 0.8838 0.47639 0.087 0.0
Co322 Co 0.23164 0.44737 0.43666 0.0
O323 O 0.22768 0.41837 0.43969 0.0
O324 O 0.25669 0.43426 0.43511 0.0
C325 C 0.21307 0.45895 0.46123 0.0
O326 O 0.24128 0.47703 0.43367 0.0
Co327 Co 0.19612 0.4724 0.42325 0.0
O328 O 0.21448 0.49584 0.42867 0.0
C329 C 0.21637 0.44844 0.39409 0.0
C330 C 0.24665 0.41717 0.43727 0.0
C331 C 0.23293 0.49434 0.43183 0.0
O332 O 0.22895 0.44434 0.40745 0.0
O333 O 0.20086 0.45848 0.39753 0.0
O334 O 0.23032 0.45158 0.46471 0.0
O335 O 0.20609 0.45498 0.44387 0.0
Co336 Co 0.12334 0.94999 0.40961 0.0
O337 O 0.10436 0.97098 0.40733 0.0
O338 O 0.10374 0.9471 0.43026 0.0
C339 C 0.15033 0.97024 0.4052 0.0
O340 O 0.14089 0.9263 0.41675 0.0
Co341 Co 0.14999 0.93993 0.374 0.0
O342 O 0.16411 0.92326 0.39345 0.0
C343 C 0.109 0.92364 0.37511 0.0
C344 C 0.09565 0.96296 0.42253 0.0
C345 C 0.15661 0.91821 0.40995 0.0
O346 O 0.10679 0.93149 0.39222 0.0
O347 O 0.12472 0.92622 0.36488 0.0
O348 O 0.14218 0.96885 0.42241 0.0
O349 O 0.14087 0.96113 0.39115 0.0
Co350 Co 0.74105 0.03672 0.58142 0.0
O351 O 0.73227 0.06404 0.57815 0.0
O352 O 0.7636 0.05553 0.58047 0.0
C353 C 0.72179 0.02141 0.55869 0.0
O354 O 0.7555 0.00998 0.58423 0.0
Co355 Co 0.71159 0.00372 0.59742 0.0
O356 O 0.73286 0.98495 0.59041 0.0
C357 C 0.73055 0.03231 0.62505 0.0
C358 C 0.75077 0.0698 0.57877 0.0
C359 C 0.75054 0.99101 0.5867 0.0
O360 O 0.74033 0.04007 0.61063 0.0
O361 O 0.71739 0.01804 0.62296 0.0
O362 O 0.73797 0.03122 0.55365 0.0
O363 O 0.71641 0.02365 0.57676 0.0
Co364 Co 0.86764 0.49344 0.70284 0.0
O365 O 0.89182 0.49088 0.68892 0.0
O366 O 0.88376 0.47379 0.71599 0.0
C367 C 0.84747 0.49323 0.67684 0.0
O368 O 0.84333 0.49192 0.7204 0.0
Co369 Co 0.84359 0.53244 0.69641 0.0
O370 O 0.82263 0.51582 0.70995 0.0
C371 C 0.87977 0.53495 0.71994 0.0
C372 C 0.89688 0.47835 0.70258 0.0
C373 C 0.82631 0.50019 0.72031 0.0
O374 O 0.88028 0.5154 0.71969 0.0
O375 O 0.86729 0.54499 0.71004 0.0
O376 O 0.85338 0.47603 0.68394 0.0
O377 O 0.85582 0.50945 0.6841 0.0
Co378 Co 0.21374 0.78524 0.99814 0.0
O379 O 0.23669 0.77684 0.984 0.0
O380 O 0.20574 0.7676 0.97689 0.0
C381 C 0.22118 0.81865 0.00123 0.0
O382 O 0.18648 0.79106 0.00894 0.0
Co383 Co 0.21793 0.80044 0.04087 0.0
O384 O 0.19037 0.80914 0.03676 0.0
C385 C 0.21952 0.75663 0.03327 0.0
C386 C 0.22448 0.76592 0.97332 0.0
C387 C 0.17958 0.80177 0.02303 0.0
O388 O 0.21542 0.76053 0.01534 0.0
O389 O 0.22248 0.77066 0.04608 0.0
O390 O 0.21409 0.81143 0.98485 0.0
O391 O 0.22634 0.8051 0.01391 0.0
Co392 Co 0.28953 0.53401 0.92539 0.0
O393 O 0.30051 0.56145 0.92555 0.0
O394 O 0.26861 0.5531 0.92775 0.0
C395 C 0.31028 0.51982 0.94677 0.0
O396 O 0.2728 0.50763 0.92649 0.0
Co397 Co 0.31393 0.49868 0.90889 0.0
O398 O 0.29206 0.48123 0.91965 0.0
C399 C 0.29461 0.52602 0.88138 0.0
C400 C 0.28241 0.56731 0.92705 0.0
C401 C 0.27561 0.48835 0.92502 0.0
O402 O 0.28679 0.53498 0.89607 0.0
O403 O 0.30704 0.51184 0.88329 0.0
O404 O 0.29581 0.53067 0.95295 0.0
O405 O 0.31344 0.52054 0.92806 0.0
Co406 Co 0.36384 0.00855 0.30376 0.0
O407 O 0.35031 0.02146 0.32496 0.0
O408 O 0.34132 0.99182 0.31149 0.0
C409 C 0.39467 0.01257 0.31534 0.0
O410 O 0.37445 0.99018 0.28237 0.0
Co411 Co 0.39293 0.03356 0.27737 0.0
O412 O 0.39942 0.00648 0.26654 0.0
C413 C 0.35021 0.03796 0.27212 0.0
C414 C 0.33808 0.00581 0.3245 0.0
C415 C 0.38867 0.99054 0.26982 0.0
O416 O 0.3471 0.0232 0.28423 0.0
O417 O 0.36747 0.04557 0.26852 0.0
O418 O 0.38311 0.99789 0.3218 0.0
O419 O 0.38645 0.02572 0.30407 0.0
Co420 Co 0.80143 0.30259 0.52963 0.0
O421 O 0.7803 0.28878 0.5437 0.0
O422 O 0.81223 0.28604 0.54997 0.0
C423 C 0.78956 0.33411 0.52783 0.0
O424 O 0.82722 0.31447 0.5188 0.0
Co425 Co 0.79461 0.31861 0.48763 0.0
O426 O 0.82094 0.33237 0.49153 0.0
C427 C 0.79791 0.27466 0.49363 0.0
C428 C 0.79412 0.28003 0.55358 0.0
C429 C 0.83262 0.32681 0.50502 0.0
O430 O 0.80272 0.27856 0.51144 0.0
O431 O 0.79255 0.28848 0.48167 0.0
O432 O 0.79778 0.32788 0.5439 0.0
O433 O 0.78604 0.32011 0.51479 0.0
Co434 Co 0.6233 0.55607 0.61236 0.0
O435 O 0.64609 0.54141 0.60524 0.0
O436 O 0.64491 0.56331 0.62992 0.0
C437 C 0.60166 0.52951 0.61123 0.0
O438 O 0.60145 0.5733 0.62391 0.0
Co439 Co 0.58954 0.55895 0.58168 0.0
O440 O 0.57448 0.56615 0.60549 0.0
C441 C 0.62503 0.58574 0.57774 0.0
C442 C 0.65504 0.55048 0.61972 0.0
C443 C 0.58267 0.57364 0.62081 0.0
O444 O 0.63157 0.57885 0.59406 0.0
O445 O 0.60908 0.57893 0.56967 0.0
O446 O 0.61256 0.53256 0.62667 0.0
O447 O 0.60604 0.54092 0.59632 0.0
Co448 Co 0.4311 0.76092 0.61366 0.0
O449 O 0.41548 0.75885 0.63686 0.0
O450 O 0.44529 0.77385 0.6351 0.0
C451 C 0.40709 0.76987 0.59314 0.0
O452 O 0.4509 0.76646 0.59177 0.0
Co453 Co 0.42191 0.73096 0.57946 0.0
O454 O 0.44039 0.7496 0.56482 0.0
C455 C 0.44222 0.71612 0.61429 0.0
C456 C 0.4302 0.76796 0.64575 0.0
C457 C 0.45205 0.76244 0.57334 0.0
O458 O 0.44408 0.73459 0.62041 0.0
O459 O 0.43216 0.71103 0.59908 0.0
O460 O 0.41587 0.78368 0.60403 0.0
O461 O 0.41137 0.75125 0.59688 0.0
Co462 Co 0.09308 0.31474 0.88952 0.0
O463 O 0.08151 0.2934 0.8736 0.0
O464 O 0.11039 0.3092 0.86788 0.0
C465 C 0.08756 0.29975 0.91853 0.0
O466 O 0.11009 0.33686 0.9028 0.0
Co467 Co 0.0676 0.33933 0.91779 0.0
O468 O 0.09309 0.35163 0.92691 0.0
C469 C 0.06545 0.3479 0.87583 0.0
C470 C 0.09701 0.29567 0.86252 0.0
C471 C 0.10899 0.34929 0.91733 0.0
O472 O 0.07936 0.33536 0.87325 0.0
O473 O 0.05775 0.35139 0.89256 0.0
O474 O 0.1027 0.29503 0.90796 0.0
O475 O 0.07517 0.31188 0.91046 0.0
Co476 Co 0.03857 0.27621 0.40626 0.0
O477 O 0.05486 0.26542 0.38605 0.0
O478 O 0.03274 0.28926 0.38172 0.0
C479 C 0.06237 0.27989 0.42887 0.0
O480 O 0.01947 0.29139 0.42357 0.0
Co481 Co 0.03192 0.25342 0.44564 0.0
O482 O 0.02213 0.2801 0.45451 0.0
C483 C 0.01107 0.23886 0.41005 0.0
C484 C 0.04556 0.27717 0.37411 0.0
C485 C 0.01601 0.2929 0.44204 0.0
O486 O 0.01791 0.25436 0.40043 0.0
O487 O 0.01559 0.23521 0.4279 0.0
O488 O 0.06023 0.29409 0.41579 0.0
O489 O 0.05128 0.26371 0.42692 0.0
Co490 Co 0.08944 0.18931 0.64296 0.0
O491 O 0.07959 0.20839 0.66162 0.0
O492 O 0.10608 0.18982 0.6659 0.0
C493 C 0.08758 0.20954 0.61658 0.0
O494 O 0.10437 0.16854 0.62703 0.0
Co495 Co 0.06283 0.17214 0.61002 0.0
O496 O 0.08736 0.16025 0.5998 0.0
C497 C 0.05748 0.156 0.64978 0.0
C498 C 0.09413 0.20322 0.67277 0.0
C499 C 0.10274 0.15926 0.61046 0.0
O500 O 0.07245 0.16715 0.65505 0.0
O501 O 0.05038 0.15625 0.6324 0.0
O502 O 0.10256 0.21109 0.62842 0.0
O503 O 0.07325 0.19722 0.62202 0.0
Co504 Co 0.36663 0.70078 0.37512 0.0
O505 O 0.37386 0.71948 0.35455 0.0
O506 O 0.34672 0.69956 0.355 0.0
C507 C 0.37287 0.72172 0.40037 0.0
O508 O 0.35398 0.68003 0.39374 0.0
Co509 Co 0.3979 0.68548 0.40389 0.0
O510 O 0.37527 0.67178 0.41748 0.0
C511 C 0.39659 0.66857 0.36427 0.0
C512 C 0.35784 0.71295 0.34579 0.0
C513 C 0.35822 0.67054 0.40961 0.0
O514 O 0.38115 0.67894 0.36126 0.0
O515 O 0.40641 0.6694 0.38028 0.0
O516 O 0.35634 0.72254 0.39077 0.0
O517 O 0.386 0.70984 0.39314 0.0
Co518 Co 0.42199 0.71809 0.87037 0.0
O519 O 0.40512 0.71606 0.84794 0.0
O520 O 0.43255 0.6989 0.85216 0.0
C521 C 0.39866 0.71734 0.89359 0.0
O522 O 0.44266 0.71578 0.8917 0.0
Co523 Co 0.42089 0.75594 0.89742 0.0
O524 O 0.43823 0.73978 0.91464 0.0
C525 C 0.43933 0.75987 0.85868 0.0
C526 C 0.41805 0.70388 0.84077 0.0
C527 C 0.44671 0.72393 0.90843 0.0
O528 O 0.43797 0.74038 0.85692 0.0
O529 O 0.43187 0.76941 0.87312 0.0
O530 O 0.40429 0.70034 0.88583 0.0
O531 O 0.40545 0.73385 0.88543 0.0
Co532 Co 0.63114 0.52168 0.20713 0.0
O533 O 0.60621 0.51971 0.194 0.0
O534 O 0.61148 0.53534 0.22243 0.0
C535 C 0.64988 0.52955 0.18095 0.0
O536 O 0.65517 0.52729 0.22447 0.0
Co537 Co 0.66347 0.491 0.1967 0.0
O538 O 0.6806 0.50984 0.21254 0.0
C539 C 0.62961 0.47721 0.22058 0.0
C540 C 0.59905 0.52922 0.20894 0.0
C541 C 0.67361 0.52303 0.22418 0.0
O542 O 0.6243 0.49579 0.22179 0.0
O543 O 0.64404 0.47171 0.2099 0.0
O544 O 0.64047 0.54383 0.18991 0.0
O545 O 0.64576 0.51116 0.18665 0.0
Co546 Co 0.32887 0.19801 0.46776 0.0
O547 O 0.3079 0.20808 0.45187 0.0
O548 O 0.33962 0.21681 0.44859 0.0
C549 C 0.31922 0.16495 0.46827 0.0
O550 O 0.35458 0.19083 0.48103 0.0
Co551 Co 0.32018 0.17917 0.50867 0.0
O552 O 0.34834 0.17132 0.50752 0.0
C553 C 0.31768 0.22344 0.50318 0.0
C554 C 0.32138 0.21965 0.44351 0.0
C555 C 0.36032 0.17966 0.4953 0.0
O556 O 0.3255 0.22151 0.48616 0.0
O557 O 0.31284 0.20817 0.51404 0.0
O558 O 0.32912 0.17216 0.45329 0.0
O559 O 0.31388 0.17824 0.48095 0.0
Co560 Co 0.38957 0.08263 0.82163 0.0
O561 O 0.40703 0.06253 0.81187 0.0
O562 O 0.40975 0.07777 0.84084 0.0
C563 C 0.36095 0.06661 0.81411 0.0
O564 O 0.37401 0.10353 0.83685 0.0
Co565 Co 0.36301 0.10596 0.79288 0.0
O566 O 0.35024 0.11531 0.81725 0.0
C567 C 0.40493 0.11801 0.79589 0.0
C568 C 0.4165 0.06478 0.82831 0.0
C569 C 0.35846 0.11398 0.83397 0.0
O570 O 0.40668 0.10473 0.80954 0.0
O571 O 0.3888 0.12066 0.78659 0.0
O572 O 0.37067 0.0616 0.82969 0.0
O573 O 0.37008 0.07916 0.80226 0.0
Co574 Co 0.77517 0.96044 0.07493 0.0
O575 O 0.77967 0.93184 0.07153 0.0
O576 O 0.75024 0.94572 0.07255 0.0
C577 C 0.79674 0.97432 0.0535 0.0
O578 O 0.76489 0.98935 0.07735 0.0
Co579 Co 0.80802 0.98743 0.09399 0.0
O580 O 0.79029 0.00979 0.08724 0.0
C581 C 0.78443 0.96075 0.1192 0.0
C582 C 0.76054 0.92939 0.07109 0.0
C583 C 0.77265 0.00716 0.08105 0.0
O584 O 0.77388 0.95631 0.10409 0.0
O585 O 0.79995 0.97232 0.11841 0.0
O586 O 0.7803 0.96567 0.04752 0.0
O587 O 0.80141 0.97016 0.07151 0.0
Co588 Co 0.02952 0.24712 0.13634 0.0
O589 O 0.04713 0.25215 0.15775 0.0
O590 O 0.02012 0.23218 0.15911 0.0
C591 C 0.05295 0.24227 0.11376 0.0
O592 O 0.00841 0.23796 0.11675 0.0
Co593 Co 0.03051 0.27658 0.10062 0.0
O594 O 0.01319 0.25507 0.0885 0.0
C595 C 0.01308 0.28956 0.13794 0.0
C596 C 0.03531 0.24053 0.16808 0.0
C597 C 0.00449 0.24106 0.09855 0.0
O598 O 0.01357 0.27119 0.14446 0.0
O599 O 0.02087 0.29518 0.12164 0.0
O600 O 0.04724 0.22716 0.12495 0.0
O601 O 0.04571 0.25968 0.11776 0.0
Co602 Co 0.91163 0.80891 0.64192 0.0
O603 O 0.92153 0.78881 0.65948 0.0
O604 O 0.89501 0.80705 0.66485 0.0
C605 C 0.91351 0.79032 0.61451 0.0
O606 O 0.89671 0.83056 0.62705 0.0
Co607 Co 0.93866 0.82795 0.61011 0.0
O608 O 0.91446 0.84127 0.601 0.0
C609 C 0.94349 0.84191 0.65057 0.0
C610 C 0.90702 0.79331 0.67096 0.0
C611 C 0.89881 0.8413 0.61135 0.0
O612 O 0.9286 0.83033 0.65517 0.0
O613 O 0.95069 0.84287 0.63326 0.0
O614 O 0.89855 0.78798 0.62629 0.0
O615 O 0.92784 0.80229 0.6206 0.0
Co616 Co 0.60713 0.91651 0.82696 0.0
O617 O 0.59258 0.9387 0.81687 0.0
O618 O 0.58578 0.92246 0.84468 0.0
C619 C 0.63741 0.93017 0.82265 0.0
O620 O 0.61969 0.8935 0.84215 0.0
Co621 Co 0.63361 0.8926 0.79873 0.0
O622 O 0.64446 0.88207 0.82361 0.0
C623 C 0.59091 0.88429 0.798 0.0
C624 C 0.5815 0.93676 0.8323 0.0
C625 C 0.63518 0.88283 0.83983 0.0
O626 O 0.58935 0.89669 0.81243 0.0
O627 O 0.60735 0.88098 0.78949 0.0
O628 O 0.62692 0.93513 0.83774 0.0
O629 O 0.62829 0.9194 0.80932 0.0
Co630 Co 0.22123 0.03733 0.07586 0.0
O631 O 0.21703 0.06581 0.07098 0.0
O632 O 0.24622 0.05141 0.07182 0.0
C633 C 0.19843 0.02273 0.05598 0.0
O634 O 0.23135 0.00858 0.07955 0.0
Co635 Co 0.18896 0.01154 0.09731 0.0
O636 O 0.20671 0.98875 0.09202 0.0
C637 C 0.2137 0.03943 0.12037 0.0
C638 C 0.23617 0.06784 0.06982 0.0
C639 C 0.22407 0.9911 0.08501 0.0
O640 O 0.22369 0.04314 0.10472 0.0
O641 O 0.1981 0.02794 0.12059 0.0
O642 O 0.21488 0.03041 0.04895 0.0
O643 O 0.19476 0.02781 0.07398 0.0
Co644 Co 0.36677 0.47287 0.20646 0.0
O645 O 0.39212 0.47458 0.19427 0.0
O646 O 0.38599 0.45989 0.223 0.0
C647 C 0.34945 0.46407 0.17955 0.0
O648 O 0.34194 0.46782 0.22286 0.0
Co649 Co 0.33487 0.50293 0.19315 0.0
O650 O 0.31711 0.48426 0.2085 0.0
C651 C 0.36716 0.51773 0.21867 0.0
C652 C 0.39883 0.46563 0.20971 0.0
C653 C 0.32348 0.47178 0.22118 0.0
O654 O 0.37275 0.4993 0.22064 0.0
O655 O 0.3533 0.5227 0.20701 0.0
O656 O 0.35825 0.45007 0.18951 0.0
O657 O 0.35321 0.48259 0.18495 0.0
Co658 Co 0.67105 0.80298 0.46736 0.0
O659 O 0.69316 0.79403 0.45238 0.0
O660 O 0.66231 0.78219 0.4491 0.0
C661 C 0.67772 0.83656 0.46603 0.0
O662 O 0.64446 0.80857 0.47976 0.0
Co663 Co 0.67746 0.82438 0.50734 0.0
O664 O 0.64867 0.82913 0.50583 0.0
C665 C 0.68167 0.78014 0.50486 0.0
C666 C 0.68088 0.7808 0.44449 0.0
C667 C 0.63755 0.8195 0.49367 0.0
O668 O 0.67597 0.78093 0.48697 0.0
O669 O 0.68419 0.79597 0.51564 0.0
O670 O 0.66863 0.82753 0.45148 0.0
O671 O 0.68423 0.82487 0.47964 0.0
C672 C 0.21535 0.71957 0.02513 0.0
C673 C 0.21945 0.73482 0.03919 0.0
C674 C 0.213 0.69917 0.0306 0.0
C675 C 0.19955 0.66754 0.07358 0.0
H676 H 0.20911 0.62367 0.03701 0.0
C677 C 0.17332 0.58447 0.08888 0.0
C678 C 0.16063 0.57669 0.07416 0.0
C679 C 0.18518 0.60197 0.0855 0.0
C680 C 0.20648 0.63575 0.04741 0.0
H681 H 0.22544 0.74022 0.06999 0.0
H682 H 0.22181 0.70437 0.07953 0.0
H683 H 0.22236 0.65795 0.03014 0.0
H684 H 0.1515 0.58038 0.04395 0.0
H685 H 0.17255 0.61063 0.03795 0.0
H686 H 0.18358 0.64522 0.09076 0.0
C687 C 0.21991 0.70837 0.06427 0.0
C688 C 0.21395 0.65544 0.04346 0.0
C689 C 0.22213 0.72893 0.05879 0.0
C690 C 0.16104 0.58602 0.05561 0.0
C691 C 0.17316 0.60329 0.05215 0.0
C692 C 0.19236 0.64778 0.07767 0.0
C693 C 0.21488 0.69327 0.05029 0.0
C694 C 0.20999 0.67177 0.05615 0.0
C695 C 0.18489 0.61179 0.06723 0.0
C696 C 0.19523 0.63183 0.06433 0.0
H697 H 0.21325 0.72341 0.00985 0.0
H698 H 0.20881 0.68818 0.0194 0.0
H699 H 0.19596 0.67966 0.08361 0.0
H700 H 0.17334 0.5777 0.10335 0.0
H701 H 0.19419 0.60816 0.09733 0.0
C702 C 0.78595 0.54701 0.35697 0.0
C703 C 0.77906 0.55722 0.37361 0.0
C704 C 0.77691 0.54969 0.33876 0.0
C705 C 0.75722 0.56127 0.30015 0.0
H706 H 0.70036 0.55521 0.30583 0.0
C707 C 0.70686 0.52683 0.24014 0.0
C708 C 0.68721 0.53298 0.23856 0.0
C709 C 0.71926 0.53479 0.25477 0.0
C710 C 0.71614 0.5574 0.30385 0.0
H711 H 0.75872 0.57991 0.38374 0.0
H712 H 0.74316 0.58466 0.35201 0.0
H713 H 0.72074 0.56096 0.3346 0.0
H714 H 0.66562 0.55337 0.25045 0.0
H715 H 0.68738 0.56753 0.27581 0.0
H716 H 0.75256 0.55716 0.26936 0.0
C717 C 0.75519 0.57421 0.35312 0.0
C718 C 0.72788 0.56069 0.32041 0.0
C719 C 0.76417 0.57151 0.37129 0.0
C720 C 0.68058 0.54807 0.25139 0.0
C721 C 0.69304 0.55615 0.26598 0.0
C722 C 0.74544 0.5581 0.28352 0.0
C723 C 0.76087 0.56267 0.33685 0.0
C724 C 0.74857 0.56218 0.31883 0.0
C725 C 0.71239 0.54924 0.26814 0.0
C726 C 0.72478 0.55559 0.28523 0.0
H727 H 0.79742 0.53594 0.35823 0.0
H728 H 0.7816 0.54053 0.32651 0.0
H729 H 0.77311 0.5626 0.29845 0.0
H730 H 0.71256 0.51531 0.23047 0.0
H731 H 0.73396 0.5289 0.2561 0.0
C732 C 0.82736 0.02038 0.76832 0.0
C733 C 0.8443 0.03322 0.77015 0.0
C734 C 0.81242 0.02496 0.75512 0.0
C735 C 0.80475 0.05252 0.70924 0.0
H736 H 0.74961 0.03849 0.71938 0.0
C737 C 0.7484 0.05665 0.64749 0.0
C738 C 0.73685 0.03864 0.64496 0.0
C739 C 0.75838 0.06044 0.66506 0.0
C740 C 0.76494 0.04251 0.71634 0.0
H741 H 0.85841 0.06141 0.75993 0.0
H742 H 0.83219 0.06947 0.73686 0.0
H743 H 0.77366 0.03702 0.74598 0.0
H744 H 0.72535 0.01138 0.6595 0.0
H745 H 0.74297 0.01787 0.69012 0.0
H746 H 0.79626 0.05737 0.67954 0.0
C747 C 0.83065 0.05569 0.74554 0.0
C748 C 0.77873 0.04165 0.73156 0.0
C749 C 0.84565 0.05111 0.75881 0.0
C750 C 0.73412 0.0254 0.66098 0.0
C751 C 0.74422 0.02915 0.67856 0.0
C752 C 0.79099 0.05342 0.69407 0.0
C753 C 0.81397 0.04253 0.74339 0.0
C754 C 0.79888 0.04615 0.72806 0.0
C755 C 0.75714 0.04627 0.68047 0.0
C756 C 0.771 0.04799 0.69732 0.0
H757 H 0.82569 0.00653 0.77689 0.0
H758 H 0.79996 0.01431 0.75366 0.0
H759 H 0.82017 0.05581 0.70594 0.0
H760 H 0.75058 0.06733 0.63552 0.0
H761 H 0.76783 0.07402 0.66623 0.0
C762 C 0.3344 0.13887 0.84688 0.0
C763 C 0.35054 0.1263 0.85022 0.0
C764 C 0.32828 0.15236 0.86126 0.0
C765 C 0.33072 0.16543 0.91354 0.0
H766 H 0.32779 0.22104 0.89471 0.0
C767 C 0.33242 0.23516 0.9652 0.0
C768 C 0.32275 0.25286 0.95944 0.0
C769 C 0.33287 0.21824 0.95281 0.0
C770 C 0.32807 0.20558 0.90023 0.0
H771 H 0.37206 0.11723 0.87184 0.0
H772 H 0.36122 0.14088 0.89705 0.0
H773 H 0.3337 0.19372 0.87169 0.0
H774 H 0.30483 0.26613 0.93672 0.0
H775 H 0.30498 0.23637 0.91542 0.0
H776 H 0.32502 0.17729 0.94213 0.0
C777 C 0.35341 0.14022 0.8832 0.0
C778 C 0.33157 0.18991 0.887 0.0
C779 C 0.35967 0.12676 0.86873 0.0
C780 C 0.31265 0.25285 0.94147 0.0
C781 C 0.31285 0.2358 0.9292 0.0
C782 C 0.32696 0.18111 0.92681 0.0
C783 C 0.33801 0.15353 0.87938 0.0
C784 C 0.33313 0.16973 0.89353 0.0
C785 C 0.32344 0.21849 0.93446 0.0
C786 C 0.32582 0.20144 0.92034 0.0
H787 H 0.32684 0.13881 0.8329 0.0
H788 H 0.31618 0.16226 0.85804 0.0
H789 H 0.33171 0.14996 0.91891 0.0
H790 H 0.3404 0.23467 0.97893 0.0
H791 H 0.34137 0.20534 0.9573 0.0
C792 C 0.27348 0.54645 0.85909 0.0
C793 C 0.28704 0.53082 0.86157 0.0
C794 C 0.26337 0.54856 0.84141 0.0
C795 C 0.26068 0.53148 0.78953 0.0
H796 H 0.20416 0.5334 0.79808 0.0
C797 C 0.20352 0.50054 0.73383 0.0
C798 C 0.18511 0.50977 0.73231 0.0
C799 C 0.21739 0.5073 0.7477 0.0
C800 C 0.21989 0.53331 0.7953 0.0
H801 H 0.30174 0.50623 0.84678 0.0
H802 H 0.284 0.50985 0.81601 0.0
H803 H 0.22659 0.53838 0.82551 0.0
H804 H 0.16731 0.53409 0.74359 0.0
H805 H 0.19163 0.54601 0.76766 0.0
H806 H 0.25387 0.52586 0.75934 0.0
C807 C 0.28122 0.52051 0.82774 0.0
C808 C 0.2328 0.53616 0.81107 0.0
C809 C 0.29136 0.51838 0.84544 0.0
C810 C 0.18123 0.52646 0.74449 0.0
C811 C 0.19516 0.53327 0.75835 0.0
C812 C 0.24775 0.52871 0.7737 0.0
C813 C 0.2666 0.53513 0.82579 0.0
C814 C 0.25331 0.53483 0.80846 0.0
C815 C 0.21326 0.52352 0.76036 0.0
C816 C 0.22717 0.5291 0.7765 0.0
H817 H 0.26996 0.55651 0.87109 0.0
H818 H 0.25247 0.56024 0.84022 0.0
H819 H 0.27643 0.53064 0.78702 0.0
H820 H 0.2071 0.48773 0.72463 0.0
H821 H 0.23105 0.49924 0.74897 0.0
C822 C 0.77948 0.27942 0.0231 0.0
C823 C 0.77494 0.26414 0.03701 0.0
C824 C 0.78169 0.2998 0.02866 0.0
C825 C 0.79438 0.33104 0.07201 0.0
H826 H 0.78652 0.37516 0.03525 0.0
C827 C 0.82253 0.41347 0.08758 0.0
C828 C 0.8356 0.42085 0.07301 0.0
C829 C 0.81025 0.3963 0.08409 0.0
C830 C 0.78867 0.36301 0.04571 0.0
H831 H 0.76789 0.25866 0.06757 0.0
H832 H 0.7713 0.2945 0.07728 0.0
H833 H 0.7727 0.34116 0.02812 0.0
H834 H 0.84503 0.41683 0.04294 0.0
H835 H 0.82328 0.38716 0.03673 0.0
H836 H 0.81051 0.35299 0.08948 0.0
C837 C 0.77364 0.29053 0.06208 0.0
C838 C 0.78086 0.34349 0.04161 0.0
C839 C 0.77153 0.26999 0.0565 0.0
C840 C 0.8352 0.41148 0.05449 0.0
C841 C 0.82267 0.39455 0.0509 0.0
C842 C 0.80192 0.35065 0.07624 0.0
C843 C 0.77922 0.30565 0.04829 0.0
C844 C 0.78424 0.32706 0.05435 0.0
C845 C 0.81051 0.38643 0.06584 0.0
C846 C 0.79969 0.36666 0.06283 0.0
H847 H 0.78208 0.27561 0.00789 0.0
H848 H 0.78628 0.3108 0.01762 0.0
H849 H 0.79752 0.31882 0.08209 0.0
H850 H 0.82252 0.42028 0.10204 0.0
H851 H 0.80094 0.39039 0.09582 0.0
C852 C 0.79314 0.24723 0.46797 0.0
C853 C 0.79949 0.25326 0.48678 0.0
C854 C 0.79552 0.22717 0.46153 0.0
C855 C 0.82704 0.18363 0.4692 0.0
H856 H 0.78593 0.15232 0.44215 0.0
C857 C 0.84081 0.10202 0.44228 0.0
C858 C 0.83351 0.0969 0.42358 0.0
C859 C 0.83475 0.11968 0.45178 0.0
C860 C 0.79766 0.16091 0.4495 0.0
H861 H 0.81288 0.24261 0.51371 0.0
H862 H 0.81718 0.20793 0.50235 0.0
H863 H 0.77908 0.18629 0.45459 0.0
H864 H 0.8135 0.10609 0.40057 0.0
H865 H 0.80346 0.13693 0.41677 0.0
H866 H 0.8459 0.15881 0.46358 0.0
C867 C 0.81046 0.21872 0.49258 0.0
C868 C 0.79368 0.18036 0.45665 0.0
C869 C 0.8079 0.23864 0.49908 0.0
C870 C 0.81945 0.10947 0.41497 0.0
C871 C 0.81355 0.12719 0.42436 0.0
C872 C 0.8311 0.16433 0.46186 0.0
C873 C 0.80448 0.21281 0.47368 0.0
C874 C 0.80837 0.19195 0.46648 0.0
C875 C 0.82138 0.13277 0.44274 0.0
C876 C 0.81652 0.15272 0.45178 0.0
H877 H 0.78653 0.25804 0.45815 0.0
H878 H 0.79087 0.22303 0.44684 0.0
H879 H 0.83873 0.19232 0.47653 0.0
H880 H 0.85152 0.09262 0.44943 0.0
H881 H 0.84078 0.12321 0.46612 0.0
C882 C 0.24302 0.95011 0.64543 0.0
C883 C 0.25811 0.965 0.6423 0.0
C884 C 0.2339 0.94812 0.6637 0.0
C885 C 0.2229 0.98028 0.70574 0.0
H886 H 0.19939 0.93036 0.72704 0.0
C887 C 0.17297 0.98267 0.77308 0.0
C888 C 0.15499 0.97141 0.77192 0.0
C889 C 0.18811 0.97935 0.75976 0.0
C890 C 0.20582 0.94442 0.72121 0.0
H891 H 0.27663 0.98821 0.6565 0.0
H892 H 0.2609 0.98449 0.68847 0.0
H893 H 0.22254 0.92868 0.69961 0.0
H894 H 0.13919 0.94711 0.75642 0.0
H895 H 0.16561 0.94158 0.73273 0.0
H896 H 0.20587 0.9961 0.72679 0.0
C897 C 0.25581 0.9747 0.67661 0.0
C898 C 0.2191 0.94346 0.70555 0.0
C899 C 0.26492 0.97674 0.6583 0.0
C900 C 0.15285 0.95606 0.75766 0.0
C901 C 0.16803 0.95283 0.74416 0.0
C902 C 0.20969 0.98123 0.72134 0.0
C903 C 0.23971 0.96091 0.67931 0.0
C904 C 0.22757 0.96143 0.69745 0.0
C905 C 0.18564 0.96481 0.74479 0.0
C906 C 0.20077 0.96335 0.72912 0.0
H907 H 0.23748 0.94065 0.63351 0.0
H908 H 0.2215 0.93741 0.6652 0.0
H909 H 0.22877 0.99445 0.69962 0.0
H910 H 0.17527 0.99435 0.78414 0.0
H911 H 0.20166 0.9885 0.76096 0.0
C912 C 0.13447 0.14161 0.61682 0.0
C913 C 0.11871 0.14573 0.60416 0.0
C914 C 0.1486 0.12753 0.61158 0.0
C915 C 0.18193 0.10429 0.59347 0.0
H916 H 0.16401 0.05418 0.56803 0.0
C917 C 0.23714 0.04364 0.57197 0.0
C918 C 0.23173 0.02329 0.57637 0.0
C919 C 0.22317 0.05884 0.5725 0.0
C920 C 0.16925 0.06805 0.5752 0.0
H921 H 0.10592 0.13869 0.57569 0.0
H922 H 0.13078 0.11443 0.56644 0.0
H923 H 0.14042 0.08052 0.57514 0.0
H924 H 0.20716 0.00278 0.58387 0.0
H925 H 0.1828 0.02937 0.58519 0.0
H926 H 0.21055 0.09155 0.59433 0.0
C927 C 0.13196 0.12179 0.58061 0.0
C928 C 0.15577 0.08328 0.57906 0.0
C929 C 0.11777 0.13583 0.58588 0.0
C930 C 0.2118 0.0183 0.58035 0.0
C931 C 0.19782 0.03357 0.58106 0.0
C932 C 0.19538 0.08907 0.58968 0.0
C933 C 0.14741 0.11727 0.5935 0.0
C934 C 0.16191 0.10152 0.58842 0.0
C935 C 0.20345 0.05411 0.57763 0.0
C936 C 0.1892 0.07068 0.58061 0.0
H937 H 0.13564 0.14886 0.63105 0.0
H938 H 0.16014 0.12424 0.62199 0.0
H939 H 0.18724 0.11823 0.60046 0.0
H940 H 0.25233 0.04796 0.56857 0.0
H941 H 0.22794 0.07439 0.56927 0.0
C942 C 0.05852 0.34927 0.84028 0.0
C943 C 0.05919 0.35928 0.85844 0.0
C944 C 0.05772 0.36041 0.82296 0.0
C945 C 0.05334 0.41172 0.80077 0.0
H946 H 0.09651 0.39335 0.76861 0.0
C947 C 0.09529 0.46301 0.7447 0.0
C948 C 0.10433 0.45377 0.72857 0.0
C949 C 0.08488 0.45117 0.7585 0.0
C950 C 0.08406 0.39851 0.77702 0.0
H951 H 0.05782 0.38854 0.87296 0.0
H952 H 0.05692 0.40826 0.84247 0.0
H953 H 0.08587 0.3733 0.79654 0.0
H954 H 0.10801 0.42518 0.71329 0.0
H955 H 0.08927 0.40463 0.73691 0.0
H956 H 0.05192 0.43727 0.78127 0.0
C957 C 0.05671 0.39176 0.84165 0.0
C958 C 0.07797 0.38697 0.79315 0.0
C959 C 0.05724 0.38052 0.8591 0.0
C960 C 0.10155 0.43268 0.72577 0.0
C961 C 0.09087 0.4209 0.73938 0.0
C962 C 0.05936 0.42327 0.78442 0.0
C963 C 0.05797 0.38183 0.82344 0.0
C964 C 0.0627 0.3935 0.80534 0.0
C965 C 0.08306 0.42988 0.75631 0.0
C966 C 0.07499 0.41689 0.7725 0.0
H967 H 0.05979 0.33286 0.83944 0.0
H968 H 0.05822 0.35232 0.80915 0.0
H969 H 0.04151 0.4171 0.8099 0.0
H970 H 0.09708 0.47926 0.74725 0.0
H971 H 0.07921 0.45862 0.77139 0.0
C972 C 0.84234 0.18055 0.04611 0.0
C973 C 0.83704 0.19327 0.0305 0.0
C974 C 0.86207 0.17923 0.05175 0.0
C975 C 0.90022 0.19484 0.07012 0.0
H976 H 0.9451 0.19745 0.03488 0.0
C977 C 0.97794 0.21345 0.09961 0.0
C978 C 0.98835 0.2288 0.08915 0.0
C979 C 0.96136 0.20351 0.09139 0.0
C980 C 0.93272 0.19673 0.04491 0.0
H981 H 0.84851 0.21346 0.00772 0.0
H982 H 0.8829 0.21136 0.01776 0.0
H983 H 0.91204 0.19 0.02184 0.0
H984 H 0.99016 0.24481 0.06132 0.0
H985 H 0.96112 0.22792 0.04728 0.0
H986 H 0.92053 0.20253 0.09304 0.0
C987 C 0.8718 0.20231 0.02556 0.0
C988 C 0.91381 0.19244 0.03744 0.0
C989 C 0.85205 0.20363 0.01989 0.0
C990 C 0.98244 0.23318 0.06989 0.0
C991 C 0.96584 0.22332 0.06173 0.0
C992 C 0.91905 0.19921 0.07756 0.0
C993 C 0.87694 0.19057 0.04192 0.0
C994 C 0.8973 0.19199 0.04992 0.0
C995 C 0.95479 0.20874 0.07256 0.0
C996 C 0.93546 0.20078 0.06499 0.0
H997 H 0.83121 0.17207 0.05441 0.0
H998 H 0.86562 0.16979 0.0642 0.0
H999 H 0.88778 0.19488 0.08011 0.0
H1000 H 0.98222 0.20949 0.11438 0.0
H1001 H 0.95338 0.19208 0.1 0.0
C1002 C -0.00029 0.22044 0.37979 0.0
C1003 C 0.99758 0.2243 0.39994 0.0
C1004 C 0.98785 0.20543 0.37062 0.0
C1005 C 0.94107 0.1772 0.37362 0.0
H1006 H 0.96818 0.12918 0.35621 0.0
C1007 C 0.89758 0.10378 0.3559 0.0
C1008 C 0.90289 0.08836 0.36905 0.0
C1009 C 0.91025 0.12066 0.35268 0.0
C1010 C 0.96044 0.14264 0.36065 0.0
H1011 H 0.98088 0.21631 0.42606 0.0
H1012 H 0.95975 0.19057 0.40988 0.0
H1013 H 0.98731 0.16043 0.36437 0.0
H1014 H 0.92646 0.07746 0.38744 0.0
H1015 H 0.94867 0.10678 0.38155 0.0
H1016 H 0.9143 0.1593 0.37078 0.0
C1017 C 0.97075 0.19894 0.4013 0.0
C1018 C 0.97133 0.16046 0.36523 0.0
C1019 C 0.9829 0.21353 0.41056 0.0
C1020 C 0.92188 0.08917 0.37736 0.0
C1021 C 0.93466 0.1059 0.3739 0.0
C1022 C 0.93017 0.15955 0.3687 0.0
C1023 C 0.97335 0.19454 0.38136 0.0
C1024 C 0.96175 0.17757 0.37246 0.0
C1025 C 0.92857 0.12221 0.36225 0.0
C1026 C 0.93981 0.14187 0.3629 0.0
H1027 H 0.01099 0.22852 0.3713 0.0
H1028 H 0.99009 0.20218 0.35524 0.0
H1029 H 0.93343 0.19026 0.3792 0.0
H1030 H 0.88307 0.10362 0.34923 0.0
H1031 H 0.9053 0.13302 0.34357 0.0
C1032 C 0.1332 0.67065 0.5054 0.0
C1033 C 0.14883 0.66495 0.49322 0.0
C1034 C 0.11367 0.66572 0.5003 0.0
C1035 C 0.07294 0.64925 0.48868 0.0
H1036 H 0.06254 0.66712 0.43566 0.0
C1037 C 0.00321 0.68962 0.46667 0.0
C1038 C 0.9968 0.6894 0.44708 0.0
C1039 C 0.01944 0.67847 0.47238 0.0
C1040 C 0.06504 0.66147 0.45033 0.0
H1041 H 0.1562 0.64822 0.46688 0.0
H1042 H 0.12207 0.63975 0.458 0.0
H1043 H 0.09627 0.66217 0.44597 0.0
H1044 H 0.00117 0.67554 0.41859 0.0
H1045 H 0.02937 0.65583 0.42867 0.0
H1046 H 0.04167 0.64946 0.49324 0.0
C1047 C 0.12498 0.64823 0.47136 0.0
C1048 C 0.08447 0.65867 0.45626 0.0
C1049 C 0.14453 0.65311 0.47648 0.0
C1050 C 0.0059 0.67632 0.43374 0.0
C1051 C 0.02212 0.66507 0.43949 0.0
C1052 C 0.05345 0.65193 0.4827 0.0
C1053 C 0.10933 0.655 0.48292 0.0
C1054 C 0.08868 0.65339 0.47573 0.0
C1055 C 0.0296 0.66672 0.45867 0.0
C1056 C 0.04936 0.65897 0.4637 0.0
H1057 H 0.13596 0.67961 0.51849 0.0
H1058 H 0.10194 0.67134 0.50943 0.0
H1059 H 0.07575 0.64481 0.50368 0.0
H1060 H 0.99642 0.69931 0.47743 0.0
H1061 H 0.02481 0.68027 0.48723 0.0
C1062 C 0.531 0.28726 0.63871 0.0
C1063 C 0.54123 0.29167 0.62117 0.0
C1064 C 0.51772 0.30108 0.64642 0.0
C1065 C 0.48012 0.32543 0.64929 0.0
H1066 H 0.48815 0.38362 0.64161 0.0
C1067 C 0.41763 0.3786 0.63106 0.0
C1068 C 0.42031 0.39961 0.63407 0.0
C1069 C 0.43195 0.3652 0.63741 0.0
C1070 C 0.48565 0.3675 0.6444 0.0
H1071 H 0.54612 0.31453 0.59855 0.0
H1072 H 0.52292 0.33832 0.61176 0.0
H1073 H 0.51574 0.36134 0.63784 0.0
H1074 H 0.43892 0.42321 0.64725 0.0
H1075 H 0.46353 0.39977 0.65932 0.0
H1076 H 0.44994 0.33161 0.65566 0.0
C1077 C 0.52527 0.32434 0.61974 0.0
C1078 C 0.50149 0.35466 0.64191 0.0
C1079 C 0.53851 0.31057 0.61205 0.0
C1080 C 0.43652 0.40696 0.64502 0.0
C1081 C 0.45071 0.39355 0.65164 0.0
C1082 C 0.46426 0.33833 0.65196 0.0
C1083 C 0.51444 0.31963 0.63682 0.0
C1084 C 0.49873 0.33341 0.64345 0.0
C1085 C 0.44919 0.37265 0.64691 0.0
C1086 C 0.46663 0.35945 0.64871 0.0
H1087 H 0.53282 0.2729 0.64623 0.0
H1088 H 0.50977 0.29709 0.65972 0.0
H1089 H 0.47745 0.30913 0.65063 0.0
H1090 H 0.40538 0.37273 0.62229 0.0
H1091 H 0.43026 0.34931 0.63328 0.0
C1092 C 0.84899 0.64588 0.91512 0.0
C1093 C 0.86724 0.64065 0.92318 0.0
C1094 C 0.83224 0.6332 0.91776 0.0
C1095 C 0.81226 0.58862 0.94643 0.0
H1096 H 0.77778 0.58216 0.90136 0.0
C1097 C 0.75424 0.52217 0.93611 0.0
C1098 C 0.73568 0.52744 0.92875 0.0
C1099 C 0.76966 0.53683 0.93749 0.0
C1100 C 0.78715 0.58396 0.91415 0.0
H1101 H 0.88209 0.6182 0.94073 0.0
H1102 H 0.85307 0.59578 0.9448 0.0
H1103 H 0.80577 0.60621 0.8999 0.0
H1104 H 0.71865 0.55251 0.91769 0.0
H1105 H 0.74556 0.57787 0.91992 0.0
H1106 H 0.79381 0.56567 0.96032 0.0
C1107 C 0.85153 0.60991 0.93682 0.0
C1108 C 0.80317 0.59784 0.91337 0.0
C1109 C 0.86823 0.62274 0.9344 0.0
C1110 C 0.73274 0.54784 0.92336 0.0
C1111 C 0.74818 0.56239 0.92454 0.0
C1112 C 0.79631 0.57452 0.94711 0.0
C1113 C 0.83337 0.61481 0.92827 0.0
C1114 C 0.81596 0.60039 0.92949 0.0
C1115 C 0.76686 0.55698 0.93134 0.0
C1116 C 0.7836 0.57209 0.93097 0.0
H1117 H 0.84767 0.65969 0.90659 0.0
H1118 H 0.81843 0.63775 0.91136 0.0
H1119 H 0.8216 0.59035 0.95923 0.0
H1120 H 0.757 0.50664 0.94048 0.0
H1121 H 0.78395 0.53223 0.9427 0.0
C1122 C 0.61246 0.16141 0.16477 0.0
C1123 C 0.60305 0.16001 0.14641 0.0
C1124 C 0.60936 0.1463 0.17891 0.0
C1125 C 0.5952 0.09186 0.18285 0.0
H1126 H 0.5975 0.10317 0.23859 0.0
C1127 C 0.59159 0.02758 0.24052 0.0
C1128 C 0.60593 0.02882 0.25545 0.0
C1129 C 0.58855 0.04414 0.22813 0.0
C1130 C 0.59692 0.09979 0.22307 0.0
H1131 H 0.58211 0.14205 0.12902 0.0
H1132 H 0.57645 0.11573 0.15392 0.0
H1133 H 0.59572 0.13135 0.21536 0.0
H1134 H 0.62788 0.04881 0.26936 0.0
H1135 H 0.62255 0.07774 0.24768 0.0
H1136 H 0.59659 0.06032 0.19057 0.0
C1137 C 0.58654 0.12841 0.15717 0.0
C1138 C 0.59589 0.11592 0.20974 0.0
C1139 C 0.58966 0.14359 0.14295 0.0
C1140 C 0.61676 0.04728 0.25801 0.0
C1141 C 0.61362 0.06391 0.24565 0.0
C1142 C 0.5961 0.07574 0.19618 0.0
C1143 C 0.59671 0.12936 0.17516 0.0
C1144 C 0.5954 0.11218 0.18944 0.0
C1145 C 0.59967 0.06242 0.23041 0.0
C1146 C 0.5973 0.07953 0.21642 0.0
H1147 H 0.6228 0.17388 0.16806 0.0
H1148 H 0.61764 0.14748 0.19246 0.0
H1149 H 0.59517 0.08839 0.16735 0.0
H1150 H 0.58287 0.01369 0.23813 0.0
H1151 H 0.57752 0.0426 0.21669 0.0
C1152 C 0.99644 0.7765 0.37837 0.0
C1153 C 0.99822 0.77266 0.39855 0.0
C1154 C 0.00823 0.79176 0.36947 0.0
C1155 C 0.05468 0.82009 0.37296 0.0
H1156 H 0.02794 0.86857 0.35617 0.0
C1157 C 0.07484 0.9081 0.37682 0.0
C1158 C 0.0937 0.90876 0.36819 0.0
C1159 C 0.0619 0.89145 0.37357 0.0
C1160 C 0.03557 0.855 0.36045 0.0
H1161 H 0.01418 0.78096 0.42504 0.0
H1162 H 0.03523 0.80709 0.40931 0.0
H1163 H 0.00857 0.83739 0.36409 0.0
H1164 H 0.11312 0.8933 0.34815 0.0
H1165 H 0.0906 0.86404 0.34287 0.0
H1166 H 0.08159 0.83778 0.37018 0.0
C1167 C 0.02454 0.79854 0.40051 0.0
C1168 C 0.02454 0.83722 0.36488 0.0
C1169 C 0.01245 0.78372 0.4095 0.0
C1170 C 0.09871 0.89325 0.35504 0.0
C1171 C 0.08588 0.87645 0.35204 0.0
C1172 C 0.06572 0.83771 0.36818 0.0
C1173 C 0.02232 0.80289 0.38052 0.0
C1174 C 0.03401 0.81991 0.37184 0.0
C1175 C 0.06767 0.87508 0.36186 0.0
C1176 C 0.05622 0.85553 0.36257 0.0
H1177 H 0.9855 0.76821 0.36965 0.0
H1178 H 0.0063 0.79497 0.35403 0.0
H1179 H 0.06222 0.8069 0.37837 0.0
H1180 H 0.0705 0.91988 0.38692 0.0
H1181 H 0.04799 0.8907 0.38142 0.0
C1182 C 0.51384 0.20919 0.57595 0.0
C1183 C 0.53109 0.21432 0.56545 0.0
C1184 C 0.49744 0.20039 0.56642 0.0
C1185 C 0.4759 0.19525 0.51651 0.0
H1186 H 0.4357 0.16451 0.54531 0.0
C1187 C 0.39475 0.19408 0.49286 0.0
C1188 C 0.38176 0.17821 0.49888 0.0
C1189 C 0.41457 0.19432 0.49848 0.0
C1190 C 0.44683 0.17267 0.53676 0.0
H1191 H 0.54529 0.21298 0.53707 0.0
H1192 H 0.51705 0.19663 0.52057 0.0
H1193 H 0.46777 0.17091 0.56002 0.0
H1194 H 0.3796 0.14934 0.51426 0.0
H1195 H 0.41446 0.14911 0.52322 0.0
H1196 H 0.45526 0.19626 0.49292 0.0
C1197 C 0.51578 0.20018 0.53599 0.0
C1198 C 0.46523 0.17673 0.54543 0.0
C1199 C 0.53204 0.20943 0.54546 0.0
C1200 C 0.38925 0.16192 0.50963 0.0
C1201 C 0.40923 0.16191 0.51489 0.0
C1202 C 0.45767 0.19076 0.50765 0.0
C1203 C 0.49803 0.19604 0.54622 0.0
C1204 C 0.47975 0.18878 0.53576 0.0
C1205 C 0.42206 0.17844 0.50992 0.0
C1206 C 0.44257 0.18012 0.51794 0.0
H1207 H 0.51262 0.21291 0.59135 0.0
H1208 H 0.48404 0.19788 0.57484 0.0
H1209 H 0.48655 0.20463 0.50849 0.0
H1210 H 0.3894 0.20694 0.48468 0.0
H1211 H 0.4237 0.20754 0.49461 0.0
C1212 C 0.90094 0.53662 0.74998 0.0
C1213 C 0.89327 0.54626 0.73337 0.0
C1214 C 0.9115 0.54792 0.76408 0.0
C1215 C 0.91522 0.60094 0.78176 0.0
H1216 H 0.9544 0.57973 0.81717 0.0
C1217 C 0.9407 0.64957 0.84529 0.0
C1218 C 0.93799 0.64005 0.86354 0.0
C1219 C 0.94189 0.63796 0.82829 0.0
C1220 C 0.94353 0.58583 0.80732 0.0
H1221 H 0.89222 0.57485 0.71756 0.0
H1222 H 0.91131 0.5944 0.74166 0.0
H1223 H 0.94399 0.55975 0.78841 0.0
H1224 H 0.93618 0.61106 0.87868 0.0
H1225 H 0.93778 0.59055 0.84871 0.0
H1226 H 0.91436 0.62672 0.80065 0.0
C1227 C 0.90847 0.5783 0.7443 0.0
C1228 C 0.9375 0.5744 0.7909 0.0
C1229 C 0.8976 0.56709 0.73041 0.0
C1230 C 0.93837 0.6187 0.86475 0.0
C1231 C 0.93929 0.607 0.8476 0.0
C1232 C 0.92134 0.61235 0.79794 0.0
C1233 C 0.91487 0.56904 0.7617 0.0
C1234 C 0.92306 0.58173 0.77805 0.0
C1235 C 0.94 0.61659 0.82915 0.0
C1236 C 0.93539 0.60489 0.81103 0.0
H1237 H 0.89791 0.52054 0.75264 0.0
H1238 H 0.91604 0.54026 0.77731 0.0
H1239 H 0.90366 0.60689 0.77264 0.0
H1240 H 0.94061 0.66604 0.84405 0.0
H1241 H 0.9429 0.64575 0.81432 0.0
C1242 C 0.15037 0.82098 0.03418 0.0
C1243 C 0.15805 0.80402 0.02461 0.0
C1244 C 0.13019 0.82168 0.03828 0.0
C1245 C 0.08168 0.79331 0.03042 0.0
H1246 H 0.07068 0.81429 0.0822 0.0
C1247 C 0.00688 0.77512 0.06718 0.0
C1248 C 0.00765 0.7702 0.08717 0.0
C1249 C 0.02315 0.78455 0.05792 0.0
C1250 C 0.07347 0.8082 0.06776 0.0
H1251 H 0.15066 0.77495 0.01103 0.0
H1252 H 0.11579 0.77554 0.019 0.0
H1253 H 0.10305 0.82023 0.068 0.0
H1254 H 0.02571 0.77186 0.11334 0.0
H1255 H 0.05438 0.78724 0.09716 0.0
H1256 H 0.05273 0.77962 0.03098 0.0
C1257 C 0.12501 0.78871 0.02284 0.0
C1258 C 0.09203 0.81197 0.05938 0.0
C1259 C 0.1451 0.78826 0.01833 0.0
C1260 C 0.02468 0.77557 0.09791 0.0
C1261 C 0.0411 0.78457 0.08859 0.0
C1262 C 0.06327 0.78913 0.039 0.0
C1263 C 0.11733 0.80518 0.03336 0.0
C1264 C 0.09662 0.80405 0.04082 0.0
C1265 C 0.04073 0.78883 0.06836 0.0
C1266 C 0.0591 0.79599 0.05805 0.0
H1267 H 0.16005 0.83349 0.03892 0.0
H1268 H 0.12481 0.8349 0.04586 0.0
H1269 H 0.08439 0.78744 0.01588 0.0
H1270 H 0.99378 0.77141 0.05862 0.0
H1271 H 0.02205 0.78807 0.04248 0.0
C1272 C 0.40742 0.85856 0.14555 0.0
C1273 C 0.39602 0.84058 0.1488 0.0
C1274 C 0.40941 0.87337 0.16027 0.0
C1275 C 0.38198 0.89158 0.20273 0.0
H1276 H 0.42948 0.92396 0.214 0.0
C1277 C 0.38232 0.95339 0.26244 0.0
C1278 C 0.39218 0.972 0.25802 0.0
C1279 C 0.38475 0.93628 0.25057 0.0
C1280 C 0.41605 0.91515 0.21091 0.0
H1281 H 0.37904 0.82343 0.1706 0.0
H1282 H 0.38265 0.84909 0.19612 0.0
H1283 H 0.43072 0.89593 0.19044 0.0
H1284 H 0.41275 0.987 0.23786 0.0
H1285 H 0.41657 0.95738 0.21698 0.0
H1286 H 0.36711 0.91097 0.22262 0.0
C1287 C 0.38968 0.85197 0.18209 0.0
C1288 C 0.41679 0.89909 0.19744 0.0
C1289 C 0.38768 0.83722 0.16745 0.0
C1290 C 0.40492 0.97292 0.24174 0.0
C1291 C 0.40723 0.95586 0.2298 0.0
C1292 C 0.38121 0.90766 0.21605 0.0
C1293 C 0.40004 0.87046 0.17849 0.0
C1294 C 0.39974 0.88714 0.1932 0.0
C1295 C 0.39697 0.93739 0.2339 0.0
C1296 C 0.3982 0.91971 0.2203 0.0
H1297 H 0.41405 0.86163 0.13137 0.0
H1298 H 0.41746 0.8875 0.15705 0.0
H1299 H 0.36848 0.88295 0.19948 0.0
H1300 H 0.37256 0.95205 0.27497 0.0
H1301 H 0.37692 0.92219 0.2544 0.0
C1302 C 0.52327 0.2994 0.9141 0.0
C1303 C 0.53963 0.29206 0.92419 0.0
C1304 C 0.50713 0.30668 0.92434 0.0
C1305 C 0.48358 0.30261 0.97331 0.0
H1306 H 0.44676 0.33858 0.94858 0.0
C1307 C 0.40122 0.29855 0.99162 0.0
C1308 C 0.38933 0.31529 0.98803 0.0
C1309 C 0.42137 0.29964 0.98735 0.0
C1310 C 0.45695 0.32886 0.95605 0.0
H1311 H 0.55263 0.28791 0.95285 0.0
H1312 H 0.52486 0.30159 0.97082 0.0
H1313 H 0.4793 0.33507 0.93465 0.0
H1314 H 0.38942 0.34681 0.97852 0.0
H1315 H 0.42484 0.34912 0.97199 0.0
H1316 H 0.46152 0.29703 0.99516 0.0
C1317 C 0.52405 0.30095 0.955 0.0
C1318 C 0.4756 0.32653 0.94778 0.0
C1319 C 0.54004 0.29322 0.94472 0.0
C1320 C 0.39821 0.33357 0.98118 0.0
C1321 C 0.4185 0.33482 0.97732 0.0
C1322 C 0.46511 0.30533 0.98186 0.0
C1323 C 0.50711 0.30725 0.94497 0.0
C1324 C 0.48885 0.31268 0.95579 0.0
C1325 C 0.43027 0.31766 0.97978 0.0
C1326 C 0.45119 0.31779 0.97288 0.0
H1327 H 0.52248 0.29857 0.89826 0.0
H1328 H 0.49432 0.31095 0.916 0.0
H1329 H 0.49324 0.29176 0.97999 0.0
H1330 H 0.39479 0.2842 0.99676 0.0
H1331 H 0.42968 0.28593 0.98913 0.0
C1332 C 0.64687 0.36244 0.42645 0.0
C1333 C 0.65341 0.34598 0.41524 0.0
C1334 C 0.65977 0.37884 0.43097 0.0
C1335 C 0.7052 0.4036 0.41141 0.0
H1336 H 0.70334 0.43643 0.4586 0.0
C1337 C 0.76217 0.46768 0.4262 0.0
C1338 C 0.75488 0.48682 0.43133 0.0
C1339 C 0.74983 0.45032 0.42624 0.0
C1340 C 0.70387 0.42743 0.44531 0.0
H1341 H 0.67896 0.33298 0.40143 0.0
H1342 H 0.70156 0.36118 0.40984 0.0
H1343 H 0.6824 0.40539 0.45591 0.0
H1344 H 0.72898 0.50248 0.44131 0.0
H1345 H 0.70728 0.47183 0.4414 0.0
H1346 H 0.72671 0.42546 0.40086 0.0
C1347 C 0.68632 0.36183 0.41454 0.0
C1348 C 0.69192 0.40969 0.44375 0.0
C1349 C 0.6734 0.34559 0.40982 0.0
C1350 C 0.73502 0.48802 0.43713 0.0
C1351 C 0.72264 0.47049 0.43731 0.0
C1352 C 0.7172 0.42115 0.41304 0.0
C1353 C 0.6795 0.379 0.42453 0.0
C1354 C 0.6925 0.39754 0.42677 0.0
C1355 C 0.7299 0.45157 0.43153 0.0
C1356 C 0.71671 0.43321 0.43 0.0
H1357 H 0.63154 0.3632 0.43083 0.0
H1358 H 0.65398 0.39183 0.43861 0.0
H1359 H 0.70565 0.395 0.39789 0.0
H1360 H 0.77741 0.46605 0.42182 0.0
H1361 H 0.75587 0.43587 0.42199 0.0
C1362 C 0.63239 0.86942 0.87434 0.0
C1363 C 0.64234 0.87025 0.85626 0.0
C1364 C 0.63872 0.8565 0.88925 0.0
C1365 C 0.66431 0.80881 0.89515 0.0
H1366 H 0.66811 0.82336 0.95009 0.0
C1367 C 0.68831 0.7497 0.95091 0.0
C1368 C 0.67718 0.74835 0.96824 0.0
C1369 C 0.68705 0.7667 0.93872 0.0
C1370 C 0.66699 0.81902 0.93482 0.0
H1371 H 0.66735 0.85882 0.84009 0.0
H1372 H 0.67817 0.83639 0.86595 0.0
H1373 H 0.65938 0.8492 0.92598 0.0
H1374 H 0.6569 0.76435 0.98697 0.0
H1375 H 0.65421 0.79364 0.96542 0.0
H1376 H 0.67111 0.7786 0.90375 0.0
C1377 C 0.66536 0.84552 0.86851 0.0
C1378 C 0.66201 0.83383 0.92105 0.0
C1379 C 0.65913 0.85843 0.8537 0.0
C1380 C 0.66567 0.7649 0.9737 0.0
C1381 C 0.66419 0.78179 0.96136 0.0
C1382 C 0.66908 0.79402 0.90886 0.0
C1383 C 0.65503 0.84413 0.8863 0.0
C1384 C 0.66062 0.82882 0.90109 0.0
C1385 C 0.67438 0.78259 0.94341 0.0
C1386 C 0.67047 0.79889 0.92889 0.0
H1387 H 0.61948 0.8784 0.87685 0.0
H1388 H 0.63043 0.85564 0.90282 0.0
H1389 H 0.66299 0.80441 0.8799 0.0
H1390 H 0.69755 0.73734 0.94645 0.0
H1391 H 0.69557 0.76707 0.92529 0.0
C1392 C 0.28874 0.46603 0.23307 0.0
C1393 C 0.30905 0.46261 0.23524 0.0
C1394 C 0.27527 0.45955 0.24742 0.0
C1395 C 0.26838 0.427 0.29141 0.0
H1396 H 0.23529 0.47062 0.30893 0.0
C1397 C 0.23873 0.4324 0.36978 0.0
C1398 C 0.22143 0.44305 0.37362 0.0
C1399 C 0.24573 0.43041 0.35069 0.0
C1400 C 0.24398 0.45801 0.30402 0.0
H1401 H 0.33086 0.44846 0.25365 0.0
H1402 H 0.3073 0.43728 0.27879 0.0
H1403 H 0.25478 0.47502 0.27935 0.0
H1404 H 0.19697 0.45834 0.36009 0.0
H1405 H 0.20898 0.45445 0.32663 0.0
H1406 H 0.25785 0.41016 0.31637 0.0
C1407 C 0.30184 0.44494 0.26592 0.0
C1408 C 0.25525 0.46059 0.28703 0.0
C1409 C 0.31537 0.45147 0.25155 0.0
C1410 C 0.21046 0.45025 0.35771 0.0
C1411 C 0.21743 0.44814 0.33853 0.0
C1412 C 0.25694 0.42434 0.30835 0.0
C1413 C 0.28174 0.44942 0.26425 0.0
C1414 C 0.26796 0.44535 0.28082 0.0
C1415 C 0.23555 0.43888 0.33486 0.0
C1416 C 0.24503 0.44006 0.31518 0.0
H1417 H 0.28326 0.47427 0.22055 0.0
H1418 H 0.25983 0.46292 0.24558 0.0
H1419 H 0.27783 0.41487 0.28681 0.0
H1420 H 0.24751 0.42643 0.38162 0.0
H1421 H 0.2598 0.42332 0.34855 0.0
C1422 C 0.18142 0.89073 0.41243 0.0
C1423 C 0.16551 0.90105 0.42071 0.0
C1424 C 0.18839 0.87308 0.42111 0.0
C1425 C 0.18929 0.8429 0.46652 0.0
H1426 H 0.1933 0.79687 0.43124 0.0
C1427 C 0.19349 0.7603 0.4946 0.0
C1428 C 0.20396 0.74592 0.48375 0.0
C1429 C 0.19122 0.78006 0.48755 0.0
C1430 C 0.19269 0.80959 0.44129 0.0
H1431 H 0.14522 0.90135 0.4453 0.0
H1432 H 0.1576 0.87052 0.46056 0.0
H1433 H 0.18513 0.83009 0.41828 0.0
H1434 H 0.22098 0.74148 0.45727 0.0
H1435 H 0.21748 0.77621 0.44518 0.0
H1436 H 0.19698 0.82249 0.48954 0.0
C1437 C 0.16456 0.87617 0.44726 0.0
C1438 C 0.1879 0.82866 0.43384 0.0
C1439 C 0.15743 0.89379 0.43847 0.0
C1440 C 0.21267 0.75207 0.46593 0.0
C1441 C 0.21054 0.77198 0.45895 0.0
C1442 C 0.19432 0.82386 0.47396 0.0
C1443 C 0.17979 0.86536 0.43839 0.0
C1444 C 0.18592 0.84546 0.44639 0.0
C1445 C 0.19952 0.78616 0.46953 0.0
C1446 C 0.19581 0.80686 0.46148 0.0
H1447 H 0.18816 0.89589 0.39884 0.0
H1448 H 0.20035 0.86526 0.4141 0.0
H1449 H 0.18809 0.85564 0.4765 0.0
H1450 H 0.18655 0.75619 0.5084 0.0
H1451 H 0.18237 0.79033 0.49601 0.0
C1452 C 0.79088 0.49799 0.73072 0.0
C1453 C 0.81044 0.49185 0.73322 0.0
C1454 C 0.77613 0.49166 0.74384 0.0
C1455 C 0.76383 0.45554 0.78429 0.0
H1456 H 0.73245 0.50001 0.80292 0.0
C1457 C 0.72659 0.45658 0.86004 0.0
C1458 C 0.70948 0.4679 0.8627 0.0
C1459 C 0.73569 0.45569 0.84172 0.0
C1460 C 0.74069 0.48724 0.79763 0.0
H1461 H 0.82957 0.47334 0.75088 0.0
H1462 H 0.80383 0.46259 0.77403 0.0
H1463 H 0.75466 0.50555 0.77548 0.0
H1464 H 0.68749 0.48551 0.84768 0.0
H1465 H 0.70315 0.48357 0.81563 0.0
H1466 H 0.75015 0.4374 0.80693 0.0
C1467 C 0.7999 0.47215 0.76179 0.0
C1468 C 0.75351 0.49044 0.78187 0.0
C1469 C 0.81468 0.47842 0.74859 0.0
C1470 C 0.7008 0.4769 0.84625 0.0
C1471 C 0.70985 0.47589 0.82788 0.0
C1472 C 0.75091 0.4523 0.80007 0.0
C1473 C 0.78055 0.47911 0.75982 0.0
C1474 C 0.76551 0.47477 0.77524 0.0
C1475 C 0.72782 0.46595 0.82557 0.0
C1476 C 0.73947 0.46825 0.80718 0.0
H1477 H 0.787 0.50801 0.71881 0.0
H1478 H 0.76129 0.49695 0.74168 0.0
H1479 H 0.77269 0.44308 0.77934 0.0
H1480 H 0.73365 0.44932 0.87233 0.0
H1481 H 0.74955 0.44799 0.84056 0.0
C1482 C 0.78498 0.9799 0.57892 0.0
C1483 C 0.76594 0.97541 0.58624 0.0
C1484 C 0.79944 0.96507 0.57917 0.0
C1485 C 0.80565 0.90898 0.58576 0.0
H1486 H 0.85952 0.92541 0.59888 0.0
C1487 C 0.86412 0.85353 0.61412 0.0
C1488 C 0.88306 0.85536 0.60573 0.0
C1489 C 0.84975 0.86768 0.60967 0.0
C1490 C 0.84456 0.92064 0.59502 0.0
H1491 H 0.74726 0.95179 0.59968 0.0
H1492 H 0.77239 0.92644 0.60068 0.0
H1493 H 0.83479 0.95132 0.59482 0.0
H1494 H 0.9016 0.87339 0.58587 0.0
H1495 H 0.87658 0.89816 0.57842 0.0
H1496 H 0.81541 0.87821 0.58677 0.0
C1497 C 0.77614 0.94111 0.59417 0.0
C1498 C 0.83039 0.93548 0.59258 0.0
C1499 C 0.76169 0.95578 0.59372 0.0
C1500 C 0.88717 0.87146 0.59257 0.0
C1501 C 0.8729 0.88575 0.58837 0.0
C1502 C 0.81977 0.89415 0.58847 0.0
C1503 C 0.79522 0.9455 0.58693 0.0
C1504 C 0.81068 0.92984 0.58813 0.0
C1505 C 0.85411 0.88409 0.59699 0.0
C1506 C 0.83932 0.89982 0.59327 0.0
H1507 H 0.78871 0.99484 0.57296 0.0
H1508 H 0.81389 0.96894 0.57321 0.0
H1509 H 0.79076 0.90404 0.58189 0.0
H1510 H 0.86046 0.8413 0.62428 0.0
H1511 H 0.83539 0.86613 0.61661 0.0
C1512 C 0.14522 0.35817 0.91457 0.0
C1513 C 0.12655 0.36231 0.92237 0.0
C1514 C 0.16147 0.37128 0.91826 0.0
C1515 C 0.17367 0.42459 0.92888 0.0
H1516 H 0.2255 0.40498 0.94175 0.0
C1517 C 0.24109 0.48012 0.93688 0.0
C1518 C 0.25888 0.47371 0.92866 0.0
C1519 C 0.22502 0.46637 0.93915 0.0
C1520 C 0.21117 0.41072 0.93798 0.0
H1521 H 0.11047 0.38332 0.94055 0.0
H1522 H 0.13882 0.40628 0.94674 0.0
H1523 H 0.19735 0.38092 0.93979 0.0
H1524 H 0.27378 0.44764 0.91669 0.0
H1525 H 0.24579 0.42402 0.92007 0.0
H1526 H 0.18747 0.4542 0.92621 0.0
C1527 C 0.14082 0.39287 0.93779 0.0
C1528 C 0.19505 0.39692 0.93694 0.0
C1529 C 0.12462 0.37963 0.93431 0.0
C1530 C 0.26035 0.45315 0.92316 0.0
C1531 C 0.24428 0.43949 0.92524 0.0
C1532 C 0.18982 0.43836 0.92968 0.0
C1533 C 0.15935 0.38893 0.92964 0.0
C1534 C 0.1762 0.40368 0.93215 0.0
C1535 C 0.22632 0.44593 0.93309 0.0
C1536 C 0.20885 0.43157 0.93397 0.0
H1537 H 0.14724 0.34494 0.90537 0.0
H1538 H 0.17556 0.36796 0.91168 0.0
H1539 H 0.15933 0.43019 0.92496 0.0
H1540 H 0.23949 0.49581 0.94142 0.0
H1541 H 0.21154 0.47181 0.94556 0.0
C1542 C 0.00381 0.31637 0.46786 0.0
C1543 C 0.0022 0.30827 0.44888 0.0
C1544 C 0.98872 0.32801 0.47558 0.0
C1545 C 0.93863 0.34847 0.46328 0.0
H1546 H 0.92779 0.33281 0.51699 0.0
C1547 C 0.85958 0.35065 0.49291 0.0
C1548 C 0.85366 0.33327 0.50369 0.0
C1549 C 0.87963 0.35514 0.4896 0.0
C1550 C 0.93048 0.33725 0.50193 0.0
H1551 H 0.98427 0.30696 0.42264 0.0
H1552 H 0.9575 0.32594 0.43629 0.0
H1553 H 0.95993 0.32704 0.50327 0.0
H1554 H 0.86404 0.30753 0.52026 0.0
H1555 H 0.89862 0.31458 0.51373 0.0
H1556 H 0.90843 0.35647 0.46132 0.0
C1557 C 0.97056 0.32419 0.44519 0.0
C1558 C 0.94921 0.33432 0.49409 0.0
C1559 C 0.9859 0.31309 0.43731 0.0
C1560 C 0.86813 0.32108 0.51194 0.0
C1561 C 0.88809 0.32529 0.5083 0.0
C1562 C 0.91971 0.35083 0.47096 0.0
C1563 C 0.97139 0.33118 0.46472 0.0
C1564 C 0.95328 0.33896 0.47433 0.0
C1565 C 0.89415 0.34208 0.49665 0.0
C1566 C 0.91513 0.34429 0.49011 0.0
H1567 H 0.01645 0.31312 0.47695 0.0
H1568 H 0.99032 0.3337 0.49039 0.0
H1569 H 0.94135 0.35306 0.44827 0.0
H1570 H 0.84871 0.36052 0.48665 0.0
H1571 H 0.88368 0.36848 0.48099 0.0
C1572 C 0.47187 0.7056 0.6331 0.0
C1573 C 0.45371 0.70034 0.6242 0.0
C1574 C 0.48423 0.69045 0.63989 0.0
C1575 C 0.49291 0.63584 0.63068 0.0
H1576 H 0.53422 0.64436 0.66945 0.0
C1577 C 0.55072 0.57676 0.63787 0.0
C1578 C 0.56972 0.58493 0.63397 0.0
C1579 C 0.53579 0.58936 0.64417 0.0
C1580 C 0.52265 0.64174 0.65871 0.0
H1581 H 0.43337 0.67531 0.61709 0.0
H1582 H 0.45431 0.64892 0.62993 0.0
H1583 H 0.50812 0.66918 0.66635 0.0
H1584 H 0.58866 0.61206 0.63551 0.0
H1585 H 0.56239 0.63431 0.64634 0.0
H1586 H 0.50743 0.60865 0.62287 0.0
C1587 C 0.45958 0.66465 0.6308 0.0
C1588 C 0.50775 0.656 0.65681 0.0
C1589 C 0.44747 0.67977 0.62356 0.0
C1590 C 0.57414 0.60541 0.63858 0.0
C1591 C 0.55908 0.61814 0.64474 0.0
C1592 C 0.50752 0.62153 0.63281 0.0
C1593 C 0.4785 0.6697 0.63831 0.0
C1594 C 0.49291 0.65345 0.64243 0.0
C1595 C 0.53953 0.61042 0.64641 0.0
C1596 C 0.52276 0.62447 0.64656 0.0
H1597 H 0.47708 0.72137 0.63379 0.0
H1598 H 0.49869 0.69506 0.64536 0.0
H1599 H 0.48219 0.63346 0.61908 0.0
H1600 H 0.54702 0.56094 0.63451 0.0
H1601 H 0.52094 0.58293 0.64572 0.0
C1602 C 0.31637 0.83405 0.09027 0.0
C1603 C 0.33535 0.83659 0.08214 0.0
C1604 C 0.30217 0.84868 0.08722 0.0
C1605 C 0.29028 0.89534 0.05903 0.0
H1606 H 0.26556 0.91058 0.1079 0.0
C1607 C 0.25359 0.97306 0.072 0.0
C1608 C 0.2359 0.97264 0.0828 0.0
C1609 C 0.26434 0.95532 0.06977 0.0
C1610 C 0.27209 0.90636 0.09405 0.0
H1611 H 0.35378 0.85573 0.06315 0.0
H1612 H 0.32912 0.88142 0.05815 0.0
H1613 H 0.28588 0.88081 0.10687 0.0
H1614 H 0.21551 0.9531 0.09942 0.0
H1615 H 0.23417 0.92243 0.09549 0.0
H1616 H 0.27671 0.9214 0.04642 0.0
C1617 C 0.32514 0.86804 0.06676 0.0
C1618 C 0.2837 0.88922 0.09344 0.0
C1619 C 0.33933 0.85333 0.06971 0.0
C1620 C 0.22914 0.95409 0.09114 0.0
C1621 C 0.23986 0.93646 0.08894 0.0
C1622 C 0.27863 0.91258 0.05967 0.0
C1623 C 0.30667 0.86625 0.07608 0.0
C1624 C 0.29304 0.88355 0.07597 0.0
C1625 C 0.25764 0.93689 0.07838 0.0
C1626 C 0.26953 0.91832 0.07724 0.0
H1627 H 0.3127 0.82117 0.09967 0.0
H1628 H 0.28789 0.84661 0.0942 0.0
H1629 H 0.29717 0.89127 0.04532 0.0
H1630 H 0.25912 0.98705 0.06526 0.0
H1631 H 0.2781 0.95613 0.06168 0.0
C1632 C 0.34933 0.63957 0.42952 0.0
C1633 C 0.34337 0.6559 0.41781 0.0
C1634 C 0.33594 0.62378 0.43449 0.0
C1635 C 0.28969 0.59996 0.41563 0.0
H1636 H 0.29332 0.56632 0.46216 0.0
C1637 C 0.23611 0.53231 0.42953 0.0
C1638 C 0.2449 0.51356 0.43338 0.0
C1639 C 0.24721 0.55052 0.43023 0.0
C1640 C 0.29223 0.5756 0.44909 0.0
H1641 H 0.3183 0.6694 0.4036 0.0
H1642 H 0.29475 0.6423 0.41292 0.0
H1643 H 0.31348 0.59785 0.45961 0.0
H1644 H 0.27215 0.49945 0.44191 0.0
H1645 H 0.29165 0.53154 0.44315 0.0
H1646 H 0.26839 0.57781 0.4052 0.0
C1647 C 0.30995 0.64124 0.41762 0.0
C1648 C 0.30376 0.59362 0.44759 0.0
C1649 C 0.32342 0.65686 0.41239 0.0
C1650 C 0.26498 0.51358 0.43866 0.0
C1651 C 0.27609 0.53193 0.43953 0.0
C1652 C 0.27804 0.58216 0.41725 0.0
C1653 C 0.31621 0.62411 0.42809 0.0
C1654 C 0.30278 0.60592 0.43072 0.0
C1655 C 0.26735 0.5505 0.43497 0.0
C1656 C 0.27933 0.56971 0.43389 0.0
H1657 H 0.36462 0.63834 0.43391 0.0
H1658 H 0.34138 0.61082 0.44242 0.0
H1659 H 0.28885 0.60868 0.40221 0.0
H1660 H 0.22064 0.53299 0.42562 0.0
H1661 H 0.24008 0.56466 0.42688 0.0
C1662 C 0.60345 0.6696 0.97499 0.0
C1663 C 0.61072 0.68421 0.98847 0.0
C1664 C 0.58369 0.66945 0.96911 0.0
C1665 C 0.54819 0.68461 0.94751 0.0
H1666 H 0.50409 0.69889 0.98047 0.0
C1667 C 0.47178 0.69729 0.91433 0.0
C1668 C 0.46258 0.71514 0.92042 0.0
C1669 C 0.48792 0.68999 0.92461 0.0
C1670 C 0.51628 0.69493 0.97108 0.0
H1671 H 0.60254 0.70925 0.0073 0.0
H1672 H 0.56822 0.70918 0.99678 0.0
H1673 H 0.53598 0.69185 0.99541 0.0
H1674 H 0.46258 0.73872 0.94274 0.0
H1675 H 0.49093 0.72617 0.96045 0.0
H1676 H 0.52883 0.68825 0.92317 0.0
C1677 C 0.57773 0.69772 0.99088 0.0
C1678 C 0.53453 0.69089 0.97963 0.0
C1679 C 0.59747 0.69782 0.99684 0.0
C1680 C 0.46935 0.72498 0.93756 0.0
C1681 C 0.48554 0.7177 0.94782 0.0
C1682 C 0.53001 0.68862 0.93899 0.0
C1683 C 0.57077 0.68394 0.9765 0.0
C1684 C 0.55078 0.686 0.9679 0.0
C1685 C 0.49528 0.70038 0.94121 0.0
C1686 C 0.51392 0.69416 0.95063 0.0
H1687 H 0.61316 0.6587 0.96844 0.0
H1688 H 0.57868 0.65835 0.9583 0.0
H1689 H 0.56047 0.68129 0.93798 0.0
H1690 H 0.46682 0.68915 0.90134 0.0
H1691 H 0.49487 0.67639 0.91934 0.0
C1692 C 0.67889 0.75581 0.53301 0.0
C1693 C 0.68394 0.75969 0.5134 0.0
C1694 C 0.67745 0.73575 0.53994 0.0
C1695 C 0.66825 0.68377 0.52045 0.0
H1696 H 0.6742 0.6686 0.57493 0.0
C1697 C 0.62704 0.61424 0.55336 0.0
C1698 C 0.63581 0.60326 0.56855 0.0
C1699 C 0.63627 0.63192 0.54594 0.0
C1700 C 0.67276 0.67243 0.55958 0.0
H1701 H 0.69319 0.74597 0.48614 0.0
H1702 H 0.69162 0.71114 0.49844 0.0
H1703 H 0.68607 0.70211 0.56395 0.0
H1704 H 0.66165 0.60183 0.58728 0.0
H1705 H 0.67797 0.63245 0.57397 0.0
H1706 H 0.65523 0.65406 0.51599 0.0
C1707 C 0.68793 0.72338 0.5083 0.0
C1708 C 0.67933 0.69178 0.55334 0.0
C1709 C 0.68899 0.74336 0.50128 0.0
C1710 C 0.65439 0.61 0.57566 0.0
C1711 C 0.66371 0.62763 0.56812 0.0
C1712 C 0.66189 0.66439 0.52664 0.0
C1713 C 0.68136 0.71924 0.52748 0.0
C1714 C 0.67674 0.69788 0.53378 0.0
C1715 C 0.65461 0.63899 0.55338 0.0
C1716 C 0.66358 0.65866 0.54638 0.0
H1717 H 0.67481 0.76813 0.54262 0.0
H1718 H 0.67218 0.7332 0.55474 0.0
H1719 H 0.66573 0.68791 0.50532 0.0
H1720 H 0.61269 0.6096 0.54759 0.0
H1721 H 0.62864 0.64043 0.53482 0.0
C1722 C 0.3146 0.03525 0.26206 0.0
C1723 C 0.33321 0.04531 0.26069 0.0
C1724 C 0.29928 0.04027 0.2494 0.0
C1725 C 0.29298 0.06097 0.20008 0.0
H1726 H 0.23718 0.056 0.21263 0.0
C1727 C 0.2361 0.06345 0.13886 0.0
C1728 C 0.22204 0.04722 0.13904 0.0
C1729 C 0.24703 0.06831 0.15563 0.0
C1730 C 0.25271 0.05745 0.20892 0.0
H1731 H 0.34976 0.06966 0.24591 0.0
H1732 H 0.32294 0.0786 0.22407 0.0
H1733 H 0.26167 0.0555 0.23896 0.0
H1734 H 0.20735 0.0244 0.15736 0.0
H1735 H 0.22675 0.0326 0.18657 0.0
H1736 H 0.28426 0.06217 0.17012 0.0
C1737 C 0.32036 0.06648 0.23462 0.0
C1738 C 0.26673 0.05716 0.22399 0.0
C1739 C 0.33572 0.06139 0.24721 0.0
C1740 C 0.21807 0.03699 0.15676 0.0
C1741 C 0.22917 0.04174 0.17353 0.0
C1742 C 0.27903 0.06128 0.18509 0.0
C1743 C 0.30217 0.05554 0.23515 0.0
C1744 C 0.28706 0.05851 0.21969 0.0
C1745 C 0.24432 0.05692 0.17292 0.0
C1746 C 0.25874 0.05914 0.18926 0.0
H1747 H 0.31206 0.02285 0.27232 0.0
H1748 H 0.28554 0.03141 0.25013 0.0
H1749 H 0.30849 0.06163 0.19616 0.0
H1750 H 0.23928 0.07185 0.1255 0.0
H1751 H 0.25823 0.08043 0.15481 0.0
C1752 C 0.33631 0.38848 0.58268 0.0
C1753 C 0.35083 0.39881 0.57137 0.0
C1754 C 0.32592 0.37152 0.57509 0.0
C1755 C 0.31484 0.34208 0.52987 0.0
H1756 H 0.32164 0.29497 0.56325 0.0
C1757 C 0.32114 0.26132 0.49934 0.0
C1758 C 0.31489 0.24437 0.51062 0.0
C1759 C 0.31991 0.28105 0.50674 0.0
C1760 C 0.3191 0.30794 0.55386 0.0
H1761 H 0.36454 0.4005 0.54265 0.0
H1762 H 0.34637 0.371 0.52945 0.0
H1763 H 0.32869 0.32894 0.57609 0.0
H1764 H 0.3014 0.23504 0.53816 0.0
H1765 H 0.29897 0.26957 0.55098 0.0
H1766 H 0.30573 0.32101 0.50746 0.0
C1767 C 0.34307 0.37596 0.54419 0.0
C1768 C 0.32318 0.32745 0.56125 0.0
C1769 C 0.35359 0.39279 0.55182 0.0
C1770 C 0.30657 0.24771 0.52917 0.0
C1771 C 0.30523 0.26752 0.53654 0.0
C1772 C 0.31057 0.32255 0.52252 0.0
C1773 C 0.32967 0.36472 0.55598 0.0
C1774 C 0.32171 0.34466 0.54915 0.0
C1775 C 0.31226 0.28439 0.52557 0.0
C1776 C 0.31333 0.3052 0.53423 0.0
H1777 H 0.33372 0.39276 0.59777 0.0
H1778 H 0.31551 0.36324 0.58442 0.0
H1779 H 0.31336 0.35512 0.52031 0.0
H1780 H 0.32752 0.25939 0.48493 0.0
H1781 H 0.32574 0.2936 0.49797 0.0
C1782 C 0.66407 0.93974 0.24716 0.0
C1783 C 0.66611 0.95635 0.26009 0.0
C1784 C 0.67963 0.93464 0.23483 0.0
C1785 C 0.73307 0.94549 0.22392 0.0
H1786 H 0.71571 0.93736 0.17033 0.0
C1787 C 0.78048 0.96487 0.15551 0.0
C1788 C 0.77687 0.95351 0.13836 0.0
C1789 C 0.76977 0.9604 0.17261 0.0
C1790 C 0.72091 0.93915 0.18525 0.0
H1791 H 0.68663 0.97979 0.27105 0.0
H1792 H 0.71345 0.97123 0.24927 0.0
H1793 H 0.69146 0.93804 0.19632 0.0
H1794 H 0.76088 0.92726 0.12623 0.0
H1795 H 0.74263 0.91922 0.15609 0.0
H1796 H 0.76258 0.94749 0.21248 0.0
C1797 C 0.69996 0.96194 0.24879 0.0
C1798 C 0.70694 0.93952 0.20022 0.0
C1799 C 0.68446 0.96695 0.2612 0.0
C1800 C 0.76373 0.93651 0.13913 0.0
C1801 C 0.75321 0.93195 0.15621 0.0
C1802 C 0.7471 0.94518 0.20886 0.0
C1803 C 0.69754 0.94611 0.23504 0.0
C1804 C 0.71278 0.94307 0.21971 0.0
C1805 C 0.75542 0.94441 0.17286 0.0
C1806 C 0.74112 0.94235 0.18931 0.0
H1807 H 0.65025 0.93105 0.24609 0.0
H1808 H 0.67742 0.92206 0.2247 0.0
H1809 H 0.73809 0.948 0.23881 0.0
H1810 H 0.79051 0.97806 0.15534 0.0
H1811 H 0.77179 0.97034 0.18516 0.0
C1812 C 0.65806 0.14546 0.06817 0.0
C1813 C 0.66338 0.16272 0.07942 0.0
C1814 C 0.67175 0.13042 0.0645 0.0
C1815 C 0.71648 0.11057 0.08721 0.0
H1816 H 0.71637 0.07469 0.04203 0.0
C1817 C 0.76979 0.04503 0.08171 0.0
C1818 C 0.76116 0.02568 0.0776 0.0
C1819 C 0.75921 0.06265 0.07899 0.0
C1820 C 0.71647 0.08459 0.05473 0.0
H1821 H 0.68771 0.17866 0.09409 0.0
H1822 H 0.71176 0.15281 0.08715 0.0
H1823 H 0.69619 0.10506 0.0417 0.0
H1824 H 0.73487 0.00991 0.06644 0.0
H1825 H 0.71622 0.04098 0.06181 0.0
H1826 H 0.73661 0.09015 0.10027 0.0
C1827 C 0.69681 0.15048 0.08176 0.0
C1828 C 0.70495 0.10195 0.05457 0.0
C1829 C 0.68306 0.16537 0.08565 0.0
C1830 C 0.74186 0.02451 0.06999 0.0
C1831 C 0.73126 0.04229 0.06716 0.0
C1832 C 0.72806 0.0934 0.08728 0.0
C1833 C 0.69113 0.13244 0.07183 0.0
C1834 C 0.70466 0.11503 0.07092 0.0
C1835 C 0.73975 0.06147 0.072 0.0
C1836 C 0.72803 0.08012 0.07116 0.0
H1837 H 0.643 0.14295 0.06315 0.0
H1838 H 0.66679 0.1167 0.05691 0.0
H1839 H 0.71629 0.11993 0.10026 0.0
H1840 H 0.78474 0.04665 0.08725 0.0
H1841 H 0.76621 0.07727 0.08253 0.0
C1842 C 0.60114 0.33873 0.32708 0.0
C1843 C 0.59418 0.34163 0.34624 0.0
C1844 C 0.59772 0.35306 0.31252 0.0
C1845 C 0.59133 0.40761 0.30759 0.0
H1846 H 0.58732 0.39369 0.25248 0.0
C1847 C 0.6052 0.46762 0.24695 0.0
C1848 C 0.61914 0.46171 0.2329 0.0
C1849 C 0.59657 0.45326 0.25971 0.0
C1850 C 0.58836 0.39783 0.26782 0.0
H1851 H 0.57715 0.36125 0.36488 0.0
H1852 H 0.57116 0.3865 0.33926 0.0
H1853 H 0.58087 0.36743 0.27722 0.0
H1854 H 0.63417 0.43587 0.22071 0.0
H1855 H 0.61915 0.4109 0.24296 0.0
H1856 H 0.59956 0.43782 0.29818 0.0
C1857 C 0.57938 0.37311 0.33562 0.0
C1858 C 0.58465 0.38282 0.28198 0.0
C1859 C 0.58269 0.35861 0.35024 0.0
C1860 C 0.62359 0.44099 0.23139 0.0
C1861 C 0.61484 0.42663 0.24405 0.0
C1862 C 0.59495 0.42265 0.29343 0.0
C1863 C 0.5873 0.37072 0.31673 0.0
C1864 C 0.58685 0.38736 0.302 0.0
C1865 C 0.60152 0.43267 0.25858 0.0
C1866 C 0.59421 0.41772 0.2734 0.0
H1867 H 0.60993 0.32572 0.32348 0.0
H1868 H 0.60426 0.35081 0.29823 0.0
H1869 H 0.59335 0.4116 0.32287 0.0
H1870 H 0.60131 0.48344 0.24848 0.0
H1871 H 0.58624 0.45831 0.27067 0.0
C1872 C 0.5436 0.23153 0.83642 0.0
C1873 C 0.54588 0.22678 0.85639 0.0
C1874 C 0.52957 0.22089 0.82499 0.0
C1875 C 0.48161 0.19763 0.82864 0.0
H1876 H 0.49304 0.16261 0.78454 0.0
C1877 C 0.44122 0.1249 0.79513 0.0
C1878 C 0.42204 0.13199 0.79251 0.0
C1879 C 0.45726 0.13865 0.79686 0.0
C1880 C 0.48966 0.17263 0.79662 0.0
H1881 H 0.53558 0.20692 0.87991 0.0
H1882 H 0.51071 0.18875 0.86002 0.0
H1883 H 0.52005 0.18218 0.80065 0.0
H1884 H 0.40469 0.15881 0.78818 0.0
H1885 H 0.43281 0.18299 0.79173 0.0
H1886 H 0.4514 0.18792 0.82505 0.0
C1887 C 0.51997 0.20054 0.85325 0.0
C1888 C 0.50504 0.18373 0.8058 0.0
C1889 C 0.53425 0.21085 0.86457 0.0
C1890 C 0.41936 0.15298 0.79009 0.0
C1891 C 0.43539 0.16678 0.79221 0.0
C1892 C 0.46623 0.18691 0.81926 0.0
C1893 C 0.51736 0.20568 0.83349 0.0
C1894 C 0.50114 0.19582 0.82222 0.0
C1895 C 0.45433 0.15973 0.79636 0.0
C1896 C 0.47016 0.1739 0.80349 0.0
H1897 H 0.55242 0.24371 0.8297 0.0
H1898 H 0.52774 0.22505 0.80976 0.0
H1899 H 0.47832 0.20698 0.84125 0.0
H1900 H 0.44365 0.10876 0.79701 0.0
H1901 H 0.47168 0.13282 0.80018 0.0
C1902 C 0.89708 0.41653 0.14391 0.0
C1903 C 0.9081 0.42938 0.13126 0.0
C1904 C 0.90663 0.40235 0.15565 0.0
C1905 C 0.93043 0.36364 0.1597 0.0
H1906 H 0.98342 0.3727 0.18008 0.0
C1907 C 0.00674 0.32563 0.14655 0.0
C1908 C 0.00193 0.30482 0.14892 0.0
C1909 C 0.99457 0.34037 0.15425 0.0
C1910 C 0.96851 0.36988 0.17475 0.0
H1911 H 0.93762 0.43897 0.12224 0.0
H1912 H 0.95424 0.41456 0.14274 0.0
H1913 H 0.96183 0.40154 0.17609 0.0
H1914 H 0.98129 0.28303 0.16227 0.0
H1915 H 0.95962 0.30899 0.17545 0.0
H1916 H 0.93763 0.33228 0.15682 0.0
C1917 C 0.93831 0.41521 0.14365 0.0
C1918 C 0.95617 0.38637 0.17248 0.0
C1919 C 0.92879 0.42906 0.13173 0.0
C1920 C 0.98533 0.299 0.16022 0.0
C1921 C 0.97293 0.31382 0.16771 0.0
C1922 C 0.94279 0.34714 0.16195 0.0
C1923 C 0.92733 0.40117 0.15517 0.0
C1924 C 0.93747 0.38358 0.16378 0.0
C1925 C 0.97717 0.33465 0.16433 0.0
C1926 C 0.96238 0.35033 0.16832 0.0
H1927 H 0.88108 0.41651 0.14378 0.0
H1928 H 0.89782 0.39173 0.16441 0.0
H1929 H 0.91612 0.36099 0.15291 0.0
H1930 H 0.01953 0.33057 0.13805 0.0
H1931 H 0.99815 0.35625 0.15112 0.0
C1932 C 0.07758 0.04436 0.7775 0.0
C1933 C 0.07515 0.02309 0.77567 0.0
C1934 C 0.06777 0.05735 0.76488 0.0
C1935 C 0.05012 0.05915 0.71498 0.0
H1936 H 0.03031 0.11134 0.73122 0.0
C1937 C 0.03967 0.12304 0.6587 0.0
C1938 C 0.04932 0.14137 0.66441 0.0
C1939 C 0.03547 0.10773 0.67255 0.0
C1940 C 0.03571 0.09679 0.72642 0.0
H1941 H 0.05989 0.99879 0.75959 0.0
H1942 H 0.04301 0.02163 0.73721 0.0
H1943 H 0.03706 0.08543 0.75581 0.0
H1944 H 0.06053 0.15873 0.68931 0.0
H1945 H 0.05346 0.13225 0.71319 0.0
H1946 H 0.05009 0.07089 0.68578 0.0
C1947 C 0.05247 0.02816 0.74852 0.0
C1948 C 0.03953 0.08197 0.7405 0.0
C1949 C 0.06209 0.01512 0.76137 0.0
C1950 C 0.05328 0.14469 0.68438 0.0
C1951 C 0.04902 0.12952 0.69816 0.0
C1952 C 0.04645 0.07404 0.7009 0.0
C1953 C 0.05546 0.0494 0.74998 0.0
C1954 C 0.0475 0.0633 0.73498 0.0
C1955 C 0.04069 0.11058 0.69235 0.0
C1956 C 0.03998 0.09335 0.70655 0.0
H1957 H 0.08741 0.05099 0.78845 0.0
H1958 H 0.07056 0.07365 0.76622 0.0
H1959 H 0.05637 0.04495 0.7103 0.0
H1960 H 0.0364 0.12006 0.64342 0.0
H1961 H 0.02883 0.09339 0.66765 0.0
C1962 C 0.55437 0.87859 0.79863 0.0
C1963 C 0.57297 0.87216 0.79248 0.0
C1964 C 0.53778 0.86557 0.79725 0.0
C1965 C 0.52647 0.811 0.79938 0.0
H1966 H 0.47268 0.8296 0.79807 0.0
C1967 C 0.46178 0.7614 0.8294 0.0
C1968 C 0.45098 0.77158 0.84385 0.0
C1969 C 0.47436 0.77234 0.81669 0.0
C1970 C 0.48761 0.82413 0.79831 0.0
H1971 H 0.58841 0.84769 0.77838 0.0
H1972 H 0.55924 0.82488 0.7758 0.0
H1973 H 0.49953 0.85161 0.78546 0.0
H1974 H 0.44402 0.80135 0.85536 0.0
H1975 H 0.46594 0.82035 0.83324 0.0
H1976 H 0.51464 0.78386 0.81292 0.0
C1977 C 0.55762 0.83993 0.78201 0.0
C1978 C 0.50299 0.83672 0.79112 0.0
C1979 C 0.5743 0.85304 0.78336 0.0
C1980 C 0.45222 0.793 0.84455 0.0
C1981 C 0.46466 0.80392 0.83173 0.0
C1982 C 0.51108 0.79835 0.80641 0.0
C1983 C 0.53933 0.84577 0.78965 0.0
C1984 C 0.5227 0.83069 0.79242 0.0
C1985 C 0.47621 0.79368 0.818 0.0
C1986 C 0.49162 0.80516 0.80672 0.0
H1987 H 0.55278 0.89333 0.80552 0.0
H1988 H 0.52404 0.8706 0.80345 0.0
H1989 H 0.54145 0.80589 0.80082 0.0
H1990 H 0.46105 0.74492 0.82829 0.0
H1991 H 0.48298 0.76407 0.80614 0.0
C1992 C 0.3728 0.55437 0.22794 0.0
C1993 C 0.37614 0.53368 0.23152 0.0
C1994 C 0.37926 0.56928 0.24125 0.0
C1995 C 0.41078 0.57943 0.28514 0.0
H1996 H 0.37173 0.6202 0.29491 0.0
C1997 C 0.40873 0.63487 0.35252 0.0
C1998 C 0.40216 0.65454 0.34846 0.0
C1999 C 0.40946 0.62028 0.33752 0.0
C2000 C 0.38294 0.60911 0.29219 0.0
H2001 H 0.38989 0.51254 0.25142 0.0
H2002 H 0.40071 0.53856 0.27491 0.0
H2003 H 0.36549 0.59455 0.26998 0.0
H2004 H 0.39319 0.67504 0.32542 0.0
H2005 H 0.39488 0.64988 0.29939 0.0
H2006 H 0.42792 0.59399 0.30801 0.0
C2007 C 0.3933 0.54328 0.26169 0.0
C2008 C 0.37938 0.5944 0.27783 0.0
C2009 C 0.38699 0.52835 0.24824 0.0
C2010 C 0.39804 0.65989 0.329 0.0
C2011 C 0.39892 0.64547 0.31411 0.0
C2012 C 0.4143 0.59419 0.2997 0.0
C2013 C 0.38902 0.56387 0.2586 0.0
C2014 C 0.3933 0.57949 0.27394 0.0
C2015 C 0.40373 0.62527 0.31834 0.0
C2016 C 0.40047 0.60931 0.30319 0.0
H2017 H 0.36477 0.55906 0.21507 0.0
H2018 H 0.37619 0.58506 0.23814 0.0
H2019 H 0.42181 0.56816 0.2825 0.0
H2020 H 0.41191 0.63037 0.36743 0.0
H2021 H 0.41324 0.60481 0.34117 0.0
C2022 C 0.60799 0.82855 0.5136 0.0
C2023 C 0.61589 0.81932 0.49687 0.0
C2024 C 0.58799 0.82586 0.51821 0.0
C2025 C 0.54729 0.78851 0.51034 0.0
H2026 H 0.5171 0.82791 0.5391 0.0
C2027 C 0.48133 0.78668 0.57033 0.0
C2028 C 0.46802 0.7725 0.56164 0.0
C2029 C 0.49718 0.79506 0.55962 0.0
C2030 C 0.52536 0.81676 0.53108 0.0
H2031 H 0.60854 0.80131 0.47105 0.0
H2032 H 0.57358 0.79693 0.47894 0.0
H2033 H 0.54877 0.8384 0.52453 0.0
H2034 H 0.46047 0.75679 0.5345 0.0
H2035 H 0.48817 0.77139 0.51592 0.0
H2036 H 0.52414 0.76678 0.51723 0.0
C2037 C 0.58299 0.80582 0.48876 0.0
C2038 C 0.5435 0.82275 0.52275 0.0
C2039 C 0.60303 0.80843 0.48419 0.0
C2040 C 0.47053 0.7675 0.54177 0.0
C2041 C 0.48643 0.77582 0.5311 0.0
C2042 C 0.52914 0.78257 0.51857 0.0
C2043 C 0.57535 0.81398 0.50614 0.0
C2044 C 0.5549 0.80857 0.51267 0.0
C2045 C 0.50012 0.78942 0.54 0.0
C2046 C 0.51819 0.7965 0.52939 0.0
H2047 H 0.61741 0.83712 0.52368 0.0
H2048 H 0.5827 0.83222 0.5318 0.0
H2049 H 0.55577 0.77708 0.50298 0.0
H2050 H 0.4798 0.79098 0.58556 0.0
H2051 H 0.50758 0.80536 0.56696 0.0
C2052 C 0.95644 0.87617 0.66174 0.0
C2053 C 0.95115 0.85577 0.666 0.0
C2054 C 0.95834 0.89051 0.67691 0.0
C2055 C 0.93533 0.89759 0.72426 0.0
H2056 H 0.9697 0.94569 0.72915 0.0
C2057 C 0.91964 0.956 0.78338 0.0
C2058 C 0.92085 0.97658 0.77778 0.0
C2059 C 0.92803 0.94109 0.77176 0.0
C2060 C 0.95992 0.93237 0.7279 0.0
H2061 H 0.94603 0.83382 0.68932 0.0
H2062 H 0.94981 0.85861 0.71568 0.0
H2063 H 0.97704 0.91965 0.70463 0.0
H2064 H 0.93265 0.99788 0.75618 0.0
H2065 H 0.94659 0.97173 0.73533 0.0
H2066 H 0.91762 0.91038 0.74656 0.0
C2067 C 0.95193 0.86373 0.70072 0.0
C2068 C 0.96418 0.91746 0.71392 0.0
C2069 C 0.94985 0.84953 0.68564 0.0
C2070 C 0.93149 0.9821 0.76083 0.0
C2071 C 0.93958 0.96709 0.74894 0.0
C2072 C 0.93098 0.91246 0.738 0.0
C2073 C 0.95509 0.88453 0.69648 0.0
C2074 C 0.95188 0.89993 0.71198 0.0
C2075 C 0.93743 0.94633 0.75398 0.0
C2076 C 0.94315 0.93009 0.74002 0.0
H2077 H 0.95746 0.88137 0.6467 0.0
H2078 H 0.96078 0.90644 0.67321 0.0
H2079 H 0.92522 0.88455 0.72278 0.0
H2080 H 0.91183 0.95136 0.79658 0.0
H2081 H 0.92662 0.92534 0.77644 0.0
C2082 C 0.00868 0.69771 0.15768 0.0
C2083 C 0.99288 0.69246 0.14509 0.0
C2084 C 0.02058 0.68256 0.16535 0.0
C2085 C 0.02435 0.62643 0.17114 0.0
H2086 H 0.07811 0.63544 0.15286 0.0
C2087 C 0.06633 0.56754 0.13018 0.0
C2088 C 0.08702 0.56726 0.13069 0.0
C2089 C 0.05622 0.5813 0.14169 0.0
C2090 C 0.06338 0.63273 0.15869 0.0
H2091 H 0.97618 0.66727 0.13194 0.0
H2092 H 0.99671 0.64097 0.14535 0.0
H2093 H 0.05651 0.6642 0.15586 0.0
H2094 H 0.11337 0.58007 0.14458 0.0
H2095 H 0.0956 0.60464 0.16453 0.0
H2096 H 0.03082 0.59473 0.17254 0.0
C2097 C 1e-05 0.65669 0.14933 0.0
C2098 C 0.05097 0.64926 0.16039 0.0
C2099 C 0.98836 0.67179 0.14145 0.0
C2100 C 0.09739 0.58004 0.14392 0.0
C2101 C 0.08725 0.59409 0.15528 0.0
C2102 C 0.03676 0.60992 0.16948 0.0
C2103 C 0.0166 0.66193 0.16086 0.0
C2104 C 0.03099 0.64605 0.16543 0.0
C2105 C 0.0666 0.59526 0.15381 0.0
C2106 C 0.056 0.61276 0.16202 0.0
H2107 H 0.0125 0.71355 0.16076 0.0
H2108 H 0.03328 0.687 0.17419 0.0
H2109 H 0.00911 0.62361 0.17543 0.0
H2110 H 0.05798 0.55768 0.12025 0.0
H2111 H 0.04035 0.58193 0.13999 0.0
C2112 C 0.18925 0.51003 0.13948 0.0
C2113 C 0.17873 0.50283 0.12304 0.0
C2114 C 0.20757 0.50215 0.14413 0.0
C2115 C 0.25112 0.49474 0.13982 0.0
H2116 H 0.26296 0.43723 0.14052 0.0
C2117 C 0.32991 0.47262 0.15045 0.0
C2118 C 0.33264 0.45972 0.16651 0.0
C2119 C 0.31142 0.47375 0.14169 0.0
C2120 C 0.25983 0.45332 0.14029 0.0
H2121 H 0.17872 0.48113 0.09904 0.0
H2122 H 0.21082 0.46736 0.10722 0.0
H2123 H 0.2291 0.44772 0.13374 0.0
H2124 H 0.31888 0.43661 0.18508 0.0
H2125 H 0.2862 0.43884 0.16995 0.0
H2126 H 0.28149 0.50055 0.14661 0.0
C2127 C 0.20484 0.47907 0.11649 0.0
C2128 C 0.24053 0.45931 0.13637 0.0
C2129 C 0.18655 0.48705 0.11176 0.0
C2130 C 0.31713 0.44646 0.1725 0.0
C2131 C 0.29843 0.44781 0.16389 0.0
C2132 C 0.27031 0.48881 0.14353 0.0
C2133 C 0.2157 0.48684 0.13249 0.0
C2134 C 0.23601 0.4801 0.13632 0.0
C2135 C 0.29522 0.46232 0.14914 0.0
C2136 C 0.2749 0.46806 0.14385 0.0
H2137 H 0.18356 0.52208 0.14851 0.0
H2138 H 0.21554 0.50824 0.1567 0.0
H2139 H 0.24813 0.51087 0.13962 0.0
H2140 H 0.34173 0.48296 0.14563 0.0
H2141 H 0.30945 0.48472 0.13004 0.0
C2142 C 0.76422 0.6209 0.4392 0.0
C2143 C 0.7516 0.60349 0.43911 0.0
C2144 C 0.75658 0.64033 0.43727 0.0
C2145 C 0.71239 0.66717 0.42018 0.0
H2146 H 0.73485 0.71164 0.45119 0.0
C2147 C 0.67579 0.74493 0.4327 0.0
C2148 C 0.68832 0.76225 0.43507 0.0
C2149 C 0.68369 0.72576 0.42948 0.0
C2150 C 0.72863 0.69948 0.44215 0.0
H2151 H 0.72103 0.59282 0.4372 0.0
H2152 H 0.70763 0.62681 0.43427 0.0
H2153 H 0.74796 0.67774 0.4544 0.0
H2154 H 0.71878 0.77342 0.4338 0.0
H2155 H 0.7325 0.74009 0.42784 0.0
H2156 H 0.6927 0.68901 0.40831 0.0
C2157 C 0.72348 0.62542 0.43546 0.0
C2158 C 0.73613 0.68 0.44403 0.0
C2159 C 0.73114 0.60595 0.43733 0.0
C2160 C 0.70873 0.76035 0.43221 0.0
C2161 C 0.71661 0.74122 0.42898 0.0
C2162 C 0.70481 0.6867 0.41836 0.0
C2163 C 0.73613 0.64284 0.43528 0.0
C2164 C 0.7281 0.66358 0.43311 0.0
C2165 C 0.70426 0.72361 0.42853 0.0
C2166 C 0.71287 0.70307 0.42933 0.0
H2167 H 0.78007 0.61952 0.44039 0.0
H2168 H 0.76679 0.65337 0.43694 0.0
H2169 H 0.70604 0.65493 0.41134 0.0
H2170 H 0.66 0.74587 0.43485 0.0
H2171 H 0.67377 0.71249 0.42918 0.0
C2172 C 0.8168 0.95702 0.82543 0.0
C2173 C 0.82233 0.97763 0.8282 0.0
C2174 C 0.79691 0.95081 0.82586 0.0
C2175 C 0.74895 0.96932 0.81402 0.0
H2176 H 0.72766 0.92449 0.84542 0.0
C2177 C 0.66975 0.9338 0.805 0.0
C2178 C 0.65886 0.93423 0.82248 0.0
C2179 C 0.69012 0.93807 0.80527 0.0
C2180 C 0.73351 0.93694 0.8365 0.0
H2181 H 0.81165 0.00783 0.83414 0.0
H2182 H 0.77674 0.99696 0.83453 0.0
H2183 H 0.76276 0.93445 0.84809 0.0
H2184 H 0.66063 0.93877 0.85394 0.0
H2185 H 0.69614 0.94575 0.85438 0.0
H2186 H 0.71973 0.97172 0.80234 0.0
C2187 C 0.78784 0.98567 0.83216 0.0
C2188 C 0.75348 0.94261 0.83803 0.0
C2189 C 0.80775 0.99183 0.83211 0.0
C2190 C 0.66865 0.93851 0.84021 0.0
C2191 C 0.68896 0.94235 0.84052 0.0
C2192 C 0.72906 0.96341 0.81223 0.0
C2193 C 0.78229 0.96519 0.82868 0.0
C2194 C 0.76126 0.95901 0.827 0.0
C2195 C 0.69983 0.94232 0.82307 0.0
C2196 C 0.72117 0.94734 0.82362 0.0
H2197 H 0.82779 0.9458 0.82238 0.0
H2198 H 0.79292 0.93494 0.82312 0.0
H2199 H 0.75475 0.98187 0.80521 0.0
H2200 H 0.6625 0.93048 0.79117 0.0
H2201 H 0.69832 0.93796 0.79164 0.0
C2202 C 0.2962 0.24249 0.046 0.0
C2203 C 0.3165 0.24568 0.04248 0.0
C2204 C 0.28882 0.22351 0.05238 0.0
C2205 C 0.27715 0.18333 0.07188 0.0
H2206 H 0.29762 0.13775 0.04286 0.0
C2207 C 0.23509 0.10578 0.06632 0.0
C2208 C 0.24614 0.08806 0.0675 0.0
C2209 C 0.24457 0.12496 0.06506 0.0
C2210 C 0.29192 0.15024 0.05131 0.0
H2211 H 0.34516 0.23191 0.0441 0.0
H2212 H 0.33226 0.19878 0.05546 0.0
H2213 H 0.31305 0.17155 0.03909 0.0
H2214 H 0.27581 0.07652 0.06824 0.0
H2215 H 0.29235 0.10999 0.06611 0.0
H2216 H 0.25577 0.16203 0.0838 0.0
C2217 C 0.32203 0.21088 0.05297 0.0
C2218 C 0.30081 0.16962 0.0492 0.0
C2219 C 0.32943 0.2299 0.04663 0.0
C2220 C 0.26687 0.08989 0.06724 0.0
C2221 C 0.27635 0.10906 0.06597 0.0
C2222 C 0.26826 0.16393 0.074 0.0
C2223 C 0.30158 0.20731 0.05536 0.0
C2224 C 0.29337 0.18644 0.05926 0.0
C2225 C 0.26532 0.12683 0.06495 0.0
C2226 C 0.27538 0.14723 0.06353 0.0
H2227 H 0.28586 0.25435 0.04296 0.0
H2228 H 0.27299 0.22126 0.05393 0.0
H2229 H 0.27123 0.19593 0.08002 0.0
H2230 H 0.21909 0.10486 0.06649 0.0
H2231 H 0.23564 0.13833 0.06398 0.0
C2232 C 0.18405 0.52317 0.66919 0.0
C2233 C 0.16844 0.50964 0.66409 0.0
C2234 C 0.20341 0.51893 0.66373 0.0
C2235 C 0.23229 0.47394 0.65233 0.0
H2236 H 0.27389 0.51346 0.63912 0.0
C2237 C 0.31376 0.45145 0.64729 0.0
C2238 C 0.32436 0.45944 0.63122 0.0
C2239 C 0.29518 0.45884 0.65193 0.0
C2240 C 0.26239 0.50223 0.64272 0.0
H2241 H 0.16026 0.48227 0.64792 0.0
H2242 H 0.19382 0.47536 0.63761 0.0
H2243 H 0.24016 0.52475 0.64353 0.0
H2244 H 0.32394 0.48152 0.60753 0.0
H2245 H 0.29156 0.49401 0.61535 0.0
H2246 H 0.25429 0.45134 0.65101 0.0
C2247 C 0.19136 0.48879 0.64639 0.0
C2248 C 0.24312 0.50873 0.64538 0.0
C2249 C 0.17213 0.49288 0.65205 0.0
C2250 C 0.31616 0.47505 0.62005 0.0
C2251 C 0.29764 0.48236 0.62462 0.0
C2252 C 0.2515 0.46745 0.64961 0.0
C2253 C 0.2073 0.5012 0.65296 0.0
C2254 C 0.22783 0.4946 0.65001 0.0
C2255 C 0.28688 0.4743 0.64055 0.0
C2256 C 0.26674 0.48148 0.64463 0.0
H2257 H 0.18156 0.53605 0.67872 0.0
H2258 H 0.21538 0.52876 0.66905 0.0
H2259 H 0.22093 0.46272 0.65635 0.0
H2260 H 0.31977 0.43948 0.65621 0.0
H2261 H 0.28732 0.45247 0.66444 0.0
C2262 C 0.75403 0.25275 0.95197 0.0
C2263 C 0.77374 0.25083 0.95792 0.0
C2264 C 0.74781 0.27094 0.94371 0.0
C2265 C 0.76482 0.32179 0.92465 0.0
H2266 H 0.71749 0.33974 0.95063 0.0
C2267 C 0.74451 0.40655 0.9304 0.0
C2268 C 0.72448 0.41126 0.92878 0.0
C2269 C 0.75016 0.38623 0.93088 0.0
C2270 C 0.73054 0.33489 0.94297 0.0
H2271 H 0.80275 0.26579 0.95835 0.0
H2272 H 0.79188 0.2976 0.94421 0.0
H2273 H 0.72796 0.30503 0.95528 0.0
H2274 H 0.69471 0.39842 0.92595 0.0
H2275 H 0.70456 0.36303 0.92666 0.0
H2276 H 0.76761 0.352 0.9128 0.0
C2277 C 0.78122 0.28505 0.94575 0.0
C2278 C 0.73653 0.31492 0.94558 0.0
C2279 C 0.78746 0.2668 0.9539 0.0
C2280 C 0.71025 0.39528 0.92737 0.0
C2281 C 0.71589 0.375 0.92783 0.0
C2282 C 0.75882 0.34183 0.92205 0.0
C2283 C 0.76116 0.28762 0.94135 0.0
C2284 C 0.75386 0.30818 0.93665 0.0
C2285 C 0.73589 0.37023 0.92973 0.0
C2286 C 0.74173 0.34866 0.93138 0.0
H2287 H 0.74314 0.24063 0.95471 0.0
H2288 H 0.73235 0.27227 0.94003 0.0
H2289 H 0.77815 0.31701 0.91744 0.0
H2290 H 0.75582 0.41854 0.93148 0.0
H2291 H 0.76566 0.38307 0.93262 0.0
C2292 C 0.81255 0.01914 0.41878 0.0
C2293 C 0.82693 0.01823 0.40401 0.0
C2294 C 0.79286 0.01358 0.41466 0.0
C2295 C 0.75306 0.01878 0.39315 0.0
H2296 H 0.73797 0.97084 0.36269 0.0
C2297 C 0.68906 0.01588 0.33771 0.0
C2298 C 0.67702 0.99809 0.33682 0.0
C2299 C 0.70549 0.01685 0.35009 0.0
C2300 C 0.74185 0.98415 0.37145 0.0
H2301 H 0.83248 0.00979 0.37389 0.0
H2302 H 0.79832 0.99952 0.36688 0.0
H2303 H 0.77076 0.97343 0.37758 0.0
H2304 H 0.67242 0.96754 0.34852 0.0
H2305 H 0.70131 0.96916 0.36991 0.0
H2306 H 0.72451 0.02997 0.38613 0.0
C2307 C 0.80212 0.00465 0.38153 0.0
C2308 C 0.7606 0.98564 0.37989 0.0
C2309 C 0.82162 0.01062 0.3855 0.0
C2310 C 0.68147 0.98145 0.34884 0.0
C2311 C 0.698 0.98234 0.36106 0.0
C2312 C 0.73438 0.0174 0.38448 0.0
C2313 C 0.78748 0.00657 0.39589 0.0
C2314 C 0.76654 0.00319 0.39037 0.0
C2315 C 0.71026 -3e-05 0.36166 0.0
C2316 C 0.72881 0.0003 0.37313 0.0
H2317 H 0.81633 0.02514 0.43313 0.0
H2318 H 0.78176 0.01521 0.42594 0.0
H2319 H 0.75739 0.03254 0.40102 0.0
H2320 H 0.68595 0.02896 0.32865 0.0
H2321 H 0.71485 0.03055 0.35009 0.0
C2322 C 0.25608 0.89228 0.57999 0.0
C2323 C 0.24146 0.90686 0.5779 0.0
C2324 C 0.25099 0.87154 0.58055 0.0
C2325 C 0.20943 0.83441 0.58831 0.0
H2326 H 0.24291 0.79888 0.55855 0.0
C2327 C 0.18808 0.75167 0.56458 0.0
C2328 C 0.20338 0.73783 0.56259 0.0
C2329 C 0.19222 0.77171 0.57068 0.0
C2330 C 0.23361 0.80849 0.56727 0.0
H2331 H 0.20999 0.91114 0.57506 0.0
H2332 H 0.20106 0.87467 0.57562 0.0
H2333 H 0.25081 0.83516 0.55978 0.0
H2334 H 0.23458 0.73338 0.56749 0.0
H2335 H 0.24172 0.76815 0.57858 0.0
H2336 H 0.19195 0.80754 0.59534 0.0
C2337 C 0.21646 0.87938 0.57709 0.0
C2338 C 0.23811 0.82935 0.56792 0.0
C2339 C 0.22157 0.90024 0.57661 0.0
C2340 C 0.22251 0.74377 0.56868 0.0
C2341 C 0.22662 0.76373 0.57487 0.0
C2342 C 0.20487 0.81344 0.58761 0.0
C2343 C 0.23116 0.8648 0.57891 0.0
C2344 C 0.22611 0.84258 0.57844 0.0
C2345 C 0.21172 0.77819 0.57497 0.0
C2346 C 0.21695 0.80025 0.57708 0.0
H2347 H 0.27153 0.89687 0.58125 0.0
H2348 H 0.26265 0.86076 0.58234 0.0
H2349 H 0.2 0.84419 0.5967 0.0
H2350 H 0.17317 0.74756 0.55997 0.0
H2351 H 0.18041 0.78247 0.5706 0.0
C2352 C 0.28002 0.99496 0.52476 0.0
C2353 C 0.28816 0.99013 0.54305 0.0
C2354 C 0.28794 0.01119 0.51373 0.0
C2355 C 0.31435 0.05972 0.52264 0.0
H2356 H 0.31098 0.06539 0.46617 0.0
C2357 C 0.32772 0.12823 0.46283 0.0
C2358 C 0.31673 0.14298 0.47257 0.0
C2359 C 0.32688 0.10785 0.46917 0.0
C2360 C 0.31226 0.06393 0.48191 0.0
H2361 H 0.31196 0.99729 0.56336 0.0
H2362 H 0.32611 0.02531 0.54391 0.0
H2363 H 0.30663 0.03156 0.48119 0.0
H2364 H 0.29534 0.1478 0.49565 0.0
H2365 H 0.29383 0.1126 0.50649 0.0
H2366 H 0.31956 0.09199 0.52348 0.0
C2367 C 0.31327 0.01694 0.53831 0.0
C2368 C 0.30963 0.04463 0.49053 0.0
C2369 C 0.30523 0.00084 0.54943 0.0
C2370 C 0.3042 0.13687 0.48801 0.0
C2371 C 0.3034 0.11671 0.4943 0.0
C2372 C 0.31694 0.07887 0.51406 0.0
C2373 C 0.30426 0.02282 0.5207 0.0
C2374 C 0.31013 0.04242 0.51106 0.0
C2375 C 0.31511 0.10211 0.48534 0.0
C2376 C 0.3153 0.08128 0.4937 0.0
H2377 H 0.26687 0.98693 0.51944 0.0
H2378 H 0.2805 0.01536 0.50034 0.0
H2379 H 0.31461 0.05873 0.53847 0.0
H2380 H 0.3375 0.13257 0.45088 0.0
H2381 H 0.33598 0.09682 0.46197 0.0
C2382 C 0.06969 0.52636 0.72147 0.0
C2383 C 0.07811 0.5265 0.70267 0.0
C2384 C 0.04932 0.52298 0.72377 0.0
C2385 C 0.00176 0.51911 0.69659 0.0
H2386 H 0.98941 0.47457 0.73245 0.0
C2387 C 0.92992 0.47433 0.68814 0.0
C2388 C 0.91792 0.47411 0.70488 0.0
C2389 C 0.95009 0.47882 0.68971 0.0
C2390 C 0.99266 0.48708 0.72249 0.0
H2391 H 0.07187 0.52537 0.67158 0.0
H2392 H 0.03649 0.51983 0.67549 0.0
H2393 H 0.02256 0.49059 0.73244 0.0
H2394 H 0.91777 0.47604 0.73656 0.0
H2395 H 0.95326 0.48378 0.73934 0.0
H2396 H 0.97211 0.51528 0.68626 0.0
C2397 C 0.04541 0.52217 0.68851 0.0
C2398 C 0.01154 0.4964 0.72259 0.0
C2399 C 0.06571 0.52536 0.68623 0.0
C2400 C 0.92677 0.47592 0.72344 0.0
C2401 C 0.94704 0.48054 0.72502 0.0
C2402 C 0.98302 0.50973 0.6964 0.0
C2403 C 0.03711 0.51996 0.70729 0.0
C2404 C 0.01638 0.51226 0.70935 0.0
C2405 C 0.95856 0.48327 0.70804 0.0
C2406 C 0.97841 0.49333 0.70902 0.0
H2407 H 0.07897 0.52702 0.7344 0.0
H2408 H 0.04327 0.52167 0.73842 0.0
H2409 H 0.00492 0.53149 0.68645 0.0
H2410 H 0.92342 0.47291 0.67367 0.0
H2411 H 0.95879 0.48031 0.67643 0.0
C2412 C 0.77141 0.15098 0.02083 0.0
C2413 C 0.78039 0.15912 0.00387 0.0
C2414 C 0.77509 0.13099 0.02673 0.0
C2415 C 0.81189 0.09116 0.02203 0.0
H2416 H 0.76857 0.05324 0.03415 0.0
C2417 C 0.79294 -2e-05 0.02719 0.0
C2418 C 0.80338 0.99355 0.04378 0.0
C2419 C 0.79299 0.02052 0.02206 0.0
C2420 C 0.78081 0.06373 0.03086 0.0
H2421 H 0.79999 0.15261 0.97964 0.0
H2422 H 0.8064 0.11796 0.98998 0.0
H2423 H 0.76172 0.08887 0.02713 0.0
H2424 H 0.8249 0.00299 0.06574 0.0
H2425 H 0.82524 0.03916 0.05642 0.0
H2426 H 0.83093 0.06584 0.02576 0.0
C2427 C 0.79667 0.12702 0.99879 0.0
C2428 C 0.7769 0.08411 0.02699 0.0
C2429 C 0.79281 0.14681 0.99278 0.0
C2430 C 0.81636 0.00757 0.05317 0.0
C2431 C 0.81649 0.02826 0.04792 0.0
C2432 C 0.81583 0.07081 0.02624 0.0
C2433 C 0.78803 0.11897 0.01591 0.0
C2434 C 0.79235 0.09791 0.02208 0.0
C2435 C 0.80385 0.03496 0.03309 0.0
C2436 C 0.80026 0.05686 0.03021 0.0
H2437 H 0.76183 0.16014 0.0297 0.0
H2438 H 0.7682 0.1251 0.03998 0.0
H2439 H 0.8241 0.10159 0.01851 0.0
H2440 H 0.7832 0.98952 0.01923 0.0
H2441 H 0.78358 0.02529 0.01018 0.0
C2442 C 0.93249 0.03561 0.44429 0.0
C2443 C 0.92087 0.02549 0.43002 0.0
C2444 C 0.95114 0.02846 0.44924 0.0
C2445 C 0.99475 0.01887 0.44457 0.0
H2446 H 0.00567 0.96119 0.44312 0.0
C2447 C 0.06985 0.98923 0.42165 0.0
C2448 C 0.07685 0.97113 0.42973 0.0
C2449 C 0.05133 0.99625 0.42677 0.0
C2450 C 0.00292 0.97734 0.44396 0.0
H2451 H 0.91939 0.99954 0.41032 0.0
H2452 H 0.95173 0.9873 0.41871 0.0
H2453 H 0.97158 0.97199 0.44354 0.0
H2454 H 0.07017 0.94656 0.45013 0.0
H2455 H 0.03763 0.95892 0.45922 0.0
H2456 H 0.02609 0.02423 0.44475 0.0
C2457 C 0.94649 0.00058 0.42631 0.0
C2458 C 0.98335 0.98355 0.44395 0.0
C2459 C 0.92796 0.00772 0.42136 0.0
C2460 C 0.06516 0.96055 0.44364 0.0
C2461 C 0.0465 0.96757 0.44875 0.0
C2462 C 0.01432 0.01266 0.44464 0.0
C2463 C 0.95847 0.01099 0.44009 0.0
C2464 C 0.97903 0.00439 0.44358 0.0
C2465 C 0.03925 0.98536 0.44014 0.0
C2466 C 0.01865 0.99184 0.44364 0.0
H2467 H 0.92741 0.04933 0.45125 0.0
H2468 H 0.95992 0.03675 0.46004 0.0
H2469 H 0.99201 0.03504 0.44424 0.0
H2470 H 0.07848 0.99778 0.4109 0.0
H2471 H 0.04616 0.0098 0.41958 0.0
C2472 C 0.1982 0.62859 0.5329 0.0
C2473 C 0.20914 0.64301 0.52178 0.0
C2474 C 0.19732 0.60806 0.5274 0.0
C2475 C 0.22328 0.56956 0.49919 0.0
H2476 H 0.17249 0.54038 0.49893 0.0
C2477 C 0.21861 0.48346 0.48863 0.0
C2478 C 0.20678 0.47671 0.47284 0.0
C2479 C 0.21686 0.50308 0.49614 0.0
C2480 C 0.18673 0.54837 0.49893 0.0
H2481 H 0.22815 0.64714 0.49646 0.0
H2482 H 0.22688 0.61116 0.48701 0.0
H2483 H 0.17445 0.57645 0.50843 0.0
H2484 H 0.1821 0.48431 0.45428 0.0
H2485 H 0.17891 0.51875 0.46764 0.0
H2486 H 0.23557 0.5416 0.48965 0.0
C2487 C 0.21893 0.61579 0.49996 0.0
C2488 C 0.18789 0.56893 0.50448 0.0
C2489 C 0.21967 0.63637 0.50536 0.0
C2490 C 0.1916 0.48916 0.46627 0.0
C2491 C 0.1898 0.50888 0.47388 0.0
C2492 C 0.22214 0.54901 0.49387 0.0
C2493 C 0.20752 0.60146 0.51076 0.0
C2494 C 0.2062 0.57972 0.50471 0.0
C2495 C 0.20308 0.51631 0.48823 0.0
C2496 C 0.20389 0.53817 0.4938 0.0
H2497 H 0.18987 0.63322 0.54561 0.0
H2498 H 0.18865 0.59733 0.53617 0.0
H2499 H 0.23758 0.57742 0.49928 0.0
H2500 H 0.23023 0.47416 0.49432 0.0
H2501 H 0.22694 0.50825 0.50755 0.0
C2502 C 0.42979 0.47384 0.63366 0.0
C2503 C 0.4202 0.47006 0.61573 0.0
C2504 C 0.44998 0.47881 0.6341 0.0
C2505 C 0.49506 0.47468 0.60408 0.0
H2506 H 0.51652 0.51594 0.6395 0.0
C2507 C 0.57163 0.5142 0.59531 0.0
C2508 C 0.58282 0.5178 0.61232 0.0
C2509 C 0.55251 0.50579 0.59661 0.0
C2510 C 0.51075 0.50416 0.62975 0.0
H2511 H 0.42388 0.46919 0.58421 0.0
H2512 H 0.45897 0.47849 0.58491 0.0
H2513 H 0.48119 0.50751 0.63998 0.0
H2514 H 0.58321 0.51471 0.64397 0.0
H2515 H 0.54967 0.50011 0.64622 0.0
H2516 H 0.52461 0.47182 0.59348 0.0
C2517 C 0.45107 0.47709 0.59866 0.0
C2518 C 0.49054 0.49935 0.63 0.0
C2519 C 0.43095 0.47197 0.59824 0.0
C2520 C 0.57491 0.51205 0.6306 0.0
C2521 C 0.55571 0.50384 0.63192 0.0
C2522 C 0.51524 0.4796 0.60374 0.0
C2523 C 0.46088 0.48022 0.61661 0.0
C2524 C 0.48245 0.48473 0.61699 0.0
C2525 C 0.54422 0.50103 0.61496 0.0
C2526 C 0.52321 0.49452 0.61643 0.0
H2527 H 0.42188 0.47227 0.64739 0.0
H2528 H 0.45714 0.48096 0.64816 0.0
H2529 H 0.48934 0.46301 0.59419 0.0
H2530 H 0.5774 0.51853 0.58105 0.0
H2531 H 0.54389 0.5039 0.58333 0.0
C2532 C 0.66286 0.50525 0.9528 0.0
C2533 C 0.67815 0.49362 0.96037 0.0
C2534 C 0.65688 0.52268 0.96265 0.0
C2535 C 0.66355 0.5535 0.00847 0.0
H2536 H 0.66327 0.59872 0.97193 0.0
C2537 C 0.65844 0.64013 0.02961 0.0
C2538 C 0.67175 0.65298 0.01923 0.0
C2539 C 0.65648 0.61937 0.02478 0.0
C2540 C 0.66324 0.58625 0.98233 0.0
H2541 H 0.69797 0.49006 0.98501 0.0
H2542 H 0.6879 0.52065 0.00193 0.0
H2543 H 0.66282 0.56409 0.95952 0.0
H2544 H 0.69433 0.65404 0.9967 0.0
H2545 H 0.69107 0.61808 0.9885 0.0
H2546 H 0.66497 0.57611 0.03126 0.0
C2547 C 0.68033 0.51628 0.98853 0.0
C2548 C 0.6627 0.56634 0.97523 0.0
C2549 C 0.6862 0.49878 0.97875 0.0
C2550 C 0.68379 0.64456 0.0048 0.0
C2551 C 0.68183 0.624 0.0 0.0
C2552 C 0.66405 0.57354 0.01561 0.0
C2553 C 0.66619 0.52891 0.98018 0.0
C2554 C 0.66337 0.5497 0.98816 0.0
C2555 C 0.66776 0.61132 0.00949 0.0
C2556 C 0.66454 0.59008 0.00253 0.0
H2557 H 0.6562 0.5015 0.93878 0.0
H2558 H 0.64564 0.53184 0.95604 0.0
H2559 H 0.66388 0.54099 0.01882 0.0
H2560 H 0.64894 0.64627 0.04077 0.0
H2561 H 0.64558 0.60987 0.03236 0.0
C2562 C 0.42429 0.99781 0.33089 0.0
C2563 C 0.41622 0.01206 0.31803 0.0
C2564 C 0.44469 0.99575 0.33204 0.0
C2565 C 0.48893 0.00241 0.30228 0.0
H2566 H 0.51718 0.9971 0.35136 0.0
C2567 C 0.56948 0.97716 0.30532 0.0
C2568 C 0.58221 0.98994 0.31638 0.0
C2569 C 0.54904 0.97902 0.3067 0.0
C2570 C 0.50944 0.99856 0.33757 0.0
H2571 H 0.42316 0.03586 0.29685 0.0
H2572 H 0.45889 0.03211 0.29874 0.0
H2573 H 0.48178 0.00363 0.35173 0.0
H2574 H 0.58363 0.01397 0.33821 0.0
H2575 H 0.54794 0.01703 0.34077 0.0
H2576 H 0.51653 0.9974 0.2881 0.0
C2577 C 0.44937 0.02249 0.30782 0.0
C2578 C 0.48924 0.00221 0.33778 0.0
C2579 C 0.42895 0.0247 0.30683 0.0
C2580 C 0.57416 0.00397 0.32946 0.0
C2581 C 0.55374 0.00567 0.331 0.0
C2582 C 0.50906 0.99856 0.30207 0.0
C2583 C 0.45738 0.00777 0.32021 0.0
C2584 C 0.47884 0.00427 0.32013 0.0
C2585 C 0.54102 0.99349 0.31935 0.0
C2586 C 0.51951 0.99666 0.3197 0.0
H2587 H 0.41481 0.9879 0.33974 0.0
H2588 H 0.4505 0.98423 0.34163 0.0
H2589 H 0.48119 0.0037 0.28846 0.0
H2590 H 0.57529 0.96617 0.29517 0.0
H2591 H 0.5395 0.9693 0.29773 0.0
C2592 C 0.63982 0.24748 0.1745 0.0
C2593 C 0.65189 0.23259 0.16648 0.0
C2594 C 0.64318 0.25469 0.19347 0.0
C2595 C 0.66288 0.23782 0.23998 0.0
H2596 H 0.65608 0.29405 0.2555 0.0
C2597 C 0.66262 0.29062 0.31434 0.0
C2598 C 0.64883 0.27916 0.32551 0.0
C2599 C 0.66653 0.28518 0.29498 0.0
C2600 C 0.65829 0.27835 0.25135 0.0
H2601 H 0.67743 0.21418 0.17165 0.0
H2602 H 0.68326 0.22678 0.20488 0.0
H2603 H 0.65697 0.28524 0.22072 0.0
H2604 H 0.62885 0.25267 0.32551 0.0
H2605 H 0.63584 0.24305 0.29178 0.0
H2606 H 0.66364 0.23083 0.2706 0.0
C2607 C 0.67114 0.23274 0.19651 0.0
C2608 C 0.65864 0.27329 0.2315 0.0
C2609 C 0.66784 0.2256 0.17749 0.0
C2610 C 0.63955 0.26177 0.31724 0.0
C2611 C 0.64363 0.25621 0.29798 0.0
C2612 C 0.66238 0.24285 0.25982 0.0
C2613 C 0.65862 0.24709 0.20479 0.0
C2614 C 0.66059 0.25292 0.22564 0.0
C2615 C 0.65691 0.26804 0.28658 0.0
C2616 C 0.65971 0.26309 0.26568 0.0
H2617 H 0.62744 0.25319 0.16635 0.0
H2618 H 0.63316 0.26559 0.19955 0.0
H2619 H 0.66421 0.22196 0.23589 0.0
H2620 H 0.66994 0.30415 0.32033 0.0
H2621 H 0.6769 0.29448 0.2865 0.0
C2622 C 0.96172 0.70995 0.33787 0.0
C2623 C 0.95019 0.72117 0.35083 0.0
C2624 C 0.96208 0.71469 0.3179 0.0
C2625 C 0.97059 0.73685 0.27972 0.0
H2626 H 0.92372 0.75461 0.25285 0.0
C2627 C 0.97412 0.76597 0.20003 0.0
C2628 C 0.95906 0.75817 0.18775 0.0
C2629 C 0.97257 0.76372 0.22037 0.0
C2630 C 0.93694 0.74961 0.26009 0.0
H2631 H 0.92955 0.74573 0.35301 0.0
H2632 H 0.93049 0.75424 0.31849 0.0
H2633 H 0.92135 0.74366 0.28675 0.0
H2634 H 0.93018 0.74286 0.18712 0.0
H2635 H 0.92768 0.73862 0.22222 0.0
H2636 H 0.98597 0.74189 0.25271 0.0
C2637 C 0.939 0.74155 0.32352 0.0
C2638 C 0.93563 0.74351 0.27962 0.0
C2639 C 0.93851 0.7367 0.34338 0.0
C2640 C 0.94207 0.74903 0.19618 0.0
C2641 C 0.94056 0.74671 0.21638 0.0
C2642 C 0.97186 0.74276 0.26009 0.0
C2643 C 0.95103 0.73084 0.31057 0.0
C2644 C 0.95241 0.73698 0.28967 0.0
C2645 C 0.95596 0.75362 0.22872 0.0
C2646 C 0.95502 0.74907 0.25001 0.0
H2647 H 0.97088 0.69789 0.34321 0.0
H2648 H 0.9712 0.70587 0.30825 0.0
H2649 H 0.98389 0.73227 0.2871 0.0
H2650 H 0.98738 0.77311 0.19393 0.0
H2651 H 0.98454 0.76952 0.22952 0.0
C2652 C 0.63918 0.25419 0.42537 0.0
C2653 C 0.62486 0.26757 0.41861 0.0
C2654 C 0.6374 0.24529 0.4439 0.0
C2655 C 0.61783 0.25699 0.4915 0.0
H2656 H 0.62485 0.20006 0.50459 0.0
C2657 C 0.62098 0.23524 0.57055 0.0
C2658 C 0.60565 0.22149 0.57581 0.0
C2659 C 0.62735 0.23646 0.5512 0.0
C2660 C 0.62299 0.21599 0.50106 0.0
H2661 H 0.5971 0.28152 0.42549 0.0
H2662 H 0.59417 0.26623 0.45802 0.0
H2663 H 0.62598 0.21104 0.47009 0.0
H2664 H 0.58615 0.19691 0.56574 0.0
H2665 H 0.59709 0.19926 0.53155 0.0
H2666 H 0.61474 0.26215 0.52214 0.0
C2667 C 0.60674 0.26264 0.44897 0.0
C2668 C 0.62363 0.22224 0.48144 0.0
C2669 C 0.6084 0.27135 0.43038 0.0
C2670 C 0.59822 0.20742 0.56197 0.0
C2671 C 0.60443 0.20883 0.54244 0.0
C2672 C 0.61746 0.25084 0.51097 0.0
C2673 C 0.6214 0.24983 0.45601 0.0
C2674 C 0.62084 0.24279 0.47655 0.0
C2675 C 0.61817 0.22423 0.53676 0.0
C2676 C 0.62001 0.23031 0.51598 0.0
H2677 H 0.65196 0.2509 0.41652 0.0
H2678 H 0.64894 0.23557 0.44907 0.0
H2679 H 0.61588 0.27294 0.48813 0.0
H2680 H 0.62685 0.24623 0.58105 0.0
H2681 H 0.63821 0.24822 0.54722 0.0
C2682 C 0.88695 0.78394 0.7006 0.0
C2683 C 0.90492 0.78375 0.6904 0.0
C2684 C 0.88525 0.77489 0.71909 0.0
C2685 C 0.91103 0.7392 0.75238 0.0
H2686 H 0.87858 0.76369 0.79227 0.0
C2687 C 0.91753 0.72182 0.83475 0.0
C2688 C 0.90002 0.71434 0.84354 0.0
C2689 C 0.91713 0.73023 0.81599 0.0
C2690 C 0.88758 0.75669 0.78118 0.0
H2691 H 0.93533 0.77444 0.69159 0.0
H2692 H 0.93271 0.75955 0.72403 0.0
H2693 H 0.87989 0.77849 0.75943 0.0
H2694 H 0.86833 0.71023 0.83998 0.0
H2695 H 0.86761 0.72565 0.80726 0.0
H2696 H 0.91937 0.718 0.77454 0.0
C2697 C 0.91963 0.76589 0.71762 0.0
C2698 C 0.88826 0.76503 0.76234 0.0
C2699 C 0.9212 0.77457 0.69903 0.0
C2700 C 0.88203 0.71589 0.83349 0.0
C2701 C 0.88159 0.72472 0.81487 0.0
C2702 C 0.91064 0.73115 0.77128 0.0
C2703 C 0.90161 0.7658 0.72788 0.0
C2704 C 0.90012 0.75647 0.74772 0.0
C2705 C 0.89919 0.73166 0.8059 0.0
C2706 C 0.89901 0.7399 0.78582 0.0
H2707 H 0.87415 0.79087 0.6942 0.0
H2708 H 0.87106 0.77486 0.72639 0.0
H2709 H 0.91991 0.73183 0.74143 0.0
H2710 H 0.93161 0.72069 0.84213 0.0
H2711 H 0.93086 0.73558 0.80931 0.0
C2712 C 0.89623 0.72749 0.94434 0.0
C2713 C 0.90997 0.71313 0.93836 0.0
C2714 C 0.89847 0.73758 0.96221 0.0
C2715 C 0.93473 0.75034 0.00111 0.0
H2716 H 0.88835 0.75285 0.03426 0.0
C2717 C 0.91997 0.74773 0.08664 0.0
C2718 C 0.93401 0.76218 0.09342 0.0
C2719 C 0.91421 0.74761 0.06708 0.0
C2720 C 0.90137 0.75251 0.02506 0.0
H2721 H 0.93689 0.69813 0.94629 0.0
H2722 H 0.94065 0.71556 0.97778 0.0
H2723 H 0.88505 0.73993 0.00091 0.0
H2724 H 0.95239 0.78854 0.08563 0.0
H2725 H 0.94245 0.78824 0.05103 0.0
H2726 H 0.95121 0.76186 0.02569 0.0
C2727 C 0.92832 0.71924 0.96847 0.0
C2728 C 0.8995 0.74518 0.00595 0.0
C2729 C 0.92607 0.70912 0.95055 0.0
C2730 C 0.94125 0.77747 0.08071 0.0
C2731 C 0.93575 0.77714 0.06095 0.0
C2732 C 0.9366 0.75772 0.02023 0.0
C2733 C 0.91448 0.73353 0.97451 0.0
C2734 C 0.91624 0.74347 0.99396 0.0
C2735 C 0.9227 0.76174 0.05385 0.0
C2736 C 0.92002 0.75829 0.03258 0.0
H2737 H 0.88371 0.731 0.9352 0.0
H2738 H 0.88768 0.74864 0.96636 0.0
H2739 H 0.94785 0.74949 0.9921 0.0
H2740 H 0.91439 0.73568 0.09622 0.0
H2741 H 0.90432 0.73541 0.06204 0.0
C2742 C 0.369 0.72675 0.31363 0.0
C2743 C 0.35361 0.71889 0.32548 0.0
C2744 C 0.36574 0.73055 0.29385 0.0
C2745 C 0.33337 0.74696 0.25814 0.0
H2746 H 0.36131 0.71355 0.22105 0.0
C2747 C 0.33377 0.76548 0.17559 0.0
C2748 C 0.3522 0.76413 0.16635 0.0
C2749 C 0.33072 0.75716 0.19424 0.0
C2750 C 0.35348 0.72309 0.23119 0.0
H2751 H 0.32265 0.70942 0.32619 0.0
H2752 H 0.3168 0.71687 0.29139 0.0
H2753 H 0.36211 0.70529 0.2559 0.0
H2754 H 0.38179 0.75275 0.16913 0.0
H2755 H 0.37679 0.73894 0.20174 0.0
H2756 H 0.32587 0.7657 0.23382 0.0
C2757 C 0.33138 0.71971 0.29754 0.0
C2758 C 0.35382 0.71822 0.25106 0.0
C2759 C 0.33473 0.7155 0.31733 0.0
C2760 C 0.36738 0.75392 0.17584 0.0
C2761 C 0.36443 0.74584 0.19452 0.0
C2762 C 0.3333 0.75207 0.23827 0.0
C2763 C 0.34698 0.72692 0.28568 0.0
C2764 C 0.34411 0.73037 0.26465 0.0
C2765 C 0.34614 0.74754 0.20406 0.0
C2766 C 0.34379 0.74049 0.22463 0.0
H2767 H 0.38373 0.72934 0.31948 0.0
H2768 H 0.3779 0.73619 0.28484 0.0
H2769 H 0.32592 0.75656 0.26853 0.0
H2770 H 0.32176 0.77317 0.16853 0.0
H2771 H 0.31637 0.75848 0.20103 0.0
C2772 C 0.64561 0.25149 0.06648 0.0
C2773 C 0.63073 0.23781 0.07321 0.0
C2774 C 0.64388 0.26104 0.04836 0.0
C2775 C 0.60859 0.27372 0.00939 0.0
H2776 H 0.65471 0.272 0.97576 0.0
C2777 C 0.62301 0.27044 0.92324 0.0
C2778 C 0.61179 0.28663 0.91656 0.0
C2779 C 0.62808 0.26903 0.94294 0.0
C2780 C 0.64179 0.27279 0.98506 0.0
H2781 H 0.60217 0.22372 0.06649 0.0
H2782 H 0.59922 0.24029 0.03453 0.0
H2783 H 0.6568 0.26003 0.00948 0.0
H2784 H 0.59773 0.31456 0.92485 0.0
H2785 H 0.60641 0.31196 0.95963 0.0
H2786 H 0.59339 0.28568 0.98461 0.0
C2787 C 0.61212 0.24378 0.04344 0.0
C2788 C 0.64299 0.26603 0.00438 0.0
C2789 C 0.61385 0.23419 0.06164 0.0
C2790 C 0.60665 0.30209 0.92966 0.0
C2791 C 0.61142 0.30048 0.94952 0.0
C2792 C 0.60743 0.28061 0.99007 0.0
C2793 C 0.62726 0.25711 0.03653 0.0
C2794 C 0.62629 0.26601 0.01662 0.0
C2795 C 0.6217 0.28362 0.9564 0.0
C2796 C 0.62391 0.27975 0.97761 0.0
H2797 H 0.65874 0.25473 0.07514 0.0
H2798 H 0.65565 0.27143 0.04355 0.0
H2799 H 0.59556 0.27409 0.01857 0.0
H2800 H 0.627 0.25828 0.91338 0.0
H2801 H 0.63584 0.25576 0.94785 0.0
C2802 C 0.33165 0.04577 0.82456 0.0
C2803 C 0.33978 0.06113 0.81243 0.0
C2804 C 0.31129 0.04236 0.82551 0.0
C2805 C 0.26408 0.05272 0.80104 0.0
H2806 H 0.2429 0.04359 0.85326 0.0
C2807 C 0.18062 0.04851 0.81551 0.0
C2808 C 0.17395 0.03116 0.82594 0.0
C2809 C 0.20068 0.05396 0.81499 0.0
C2810 C 0.24862 0.04605 0.83861 0.0
H2811 H 0.33313 0.08426 0.79095 0.0
H2812 H 0.29733 0.07857 0.79286 0.0
H2813 H 0.2784 0.04875 0.84878 0.0
H2814 H 0.18284 0.00664 0.84501 0.0
H2815 H 0.21793 0.01627 0.84422 0.0
H2816 H 0.2342 0.05004 0.79092 0.0
C2817 C 0.30676 0.06905 0.80154 0.0
C2818 C 0.26894 0.04891 0.836 0.0
C2819 C 0.32724 0.07234 0.80045 0.0
C2820 C 0.18755 0.02011 0.83687 0.0
C2821 C 0.20763 0.02562 0.83642 0.0
C2822 C 0.24372 0.04997 0.80367 0.0
C2823 C 0.29858 0.05438 0.81449 0.0
C2824 C 0.27691 0.05202 0.81716 0.0
C2825 C 0.21442 0.04223 0.825 0.0
C2826 C 0.23584 0.04644 0.82246 0.0
H2827 H 0.34101 0.03671 0.83377 0.0
H2828 H 0.30549 0.03054 0.83519 0.0
H2829 H 0.26978 0.05489 0.78634 0.0
H2830 H 0.17047 0.0574 0.80701 0.0
H2831 H 0.20551 0.06704 0.80635 0.0
C2832 C 0.73033 0.90652 0.06857 0.0
C2833 C 0.75098 0.90888 0.06996 0.0
C2834 C 0.72132 0.88705 0.068 0.0
C2835 C 0.73225 0.83347 0.05684 0.0
H2836 H 0.68281 0.82146 0.0838 0.0
C2837 C 0.69964 0.7525 0.05721 0.0
C2838 C 0.67987 0.75063 0.05108 0.0
C2839 C 0.70765 0.77137 0.06309 0.0
C2840 C 0.69659 0.82463 0.07618 0.0
H2841 H 0.77836 0.89275 0.07212 0.0
H2842 H 0.76268 0.85887 0.07141 0.0
H2843 H 0.69829 0.85559 0.08624 0.0
H2844 H 0.65253 0.76664 0.04785 0.0
H2845 H 0.66659 0.79972 0.05805 0.0
H2846 H 0.73057 0.8027 0.04666 0.0
C2847 C 0.75343 0.872 0.07038 0.0
C2848 C 0.70542 0.84418 0.07749 0.0
C2849 C 0.76242 0.89143 0.07086 0.0
C2850 C 0.66781 0.76762 0.05253 0.0
C2851 C 0.67587 0.78657 0.05837 0.0
C2852 C 0.72351 0.814 0.05561 0.0
C2853 C 0.73277 0.86956 0.06887 0.0
C2854 C 0.72335 0.84881 0.0678 0.0
C2855 C 0.69608 0.78878 0.06289 0.0
C2856 C 0.70559 0.80933 0.06525 0.0
H2857 H 0.72111 0.9197 0.06787 0.0
H2858 H 0.7054 0.88572 0.06656 0.0
H2859 H 0.74581 0.83661 0.04883 0.0
H2860 H 0.70925 0.73963 0.05644 0.0
H2861 H 0.72316 0.77251 0.06695 0.0
C2862 C 0.81052 0.51073 0.10674 0.0
C2863 C 0.81904 0.49716 0.12001 0.0
C2864 C 0.79295 0.52023 0.1114 0.0
C2865 C 0.75988 0.53249 0.15262 0.0
H2866 H 0.71822 0.52761 0.11376 0.0
C2867 C 0.67976 0.55081 0.17182 0.0
C2868 C 0.66718 0.53377 0.16841 0.0
C2869 C 0.69841 0.55212 0.16296 0.0
C2870 C 0.72978 0.52935 0.12466 0.0
H2871 H 0.81615 0.48333 0.14875 0.0
H2872 H 0.78541 0.49981 0.15684 0.0
H2873 H 0.75177 0.51846 0.10511 0.0
H2874 H 0.66333 0.50562 0.1521 0.0
H2875 H 0.69553 0.50808 0.13634 0.0
H2876 H 0.73764 0.54231 0.17247 0.0
C2877 C 0.7924 0.50326 0.14291 0.0
C2878 C 0.749 0.52421 0.1197 0.0
C2879 C 0.80992 0.49368 0.13821 0.0
C2880 C 0.6728 0.51892 0.15491 0.0
C2881 C 0.6912 0.5204 0.14583 0.0
C2882 C 0.74067 0.53775 0.15755 0.0
C2883 C 0.78361 0.51646 0.12947 0.0
C2884 C 0.7641 0.52505 0.13383 0.0
C2885 C 0.70449 0.5366 0.15031 0.0
C2886 C 0.72531 0.53553 0.14381 0.0
H2887 H 0.81726 0.5138 0.09262 0.0
H2888 H 0.78658 0.53042 0.10081 0.0
H2889 H 0.77129 0.53356 0.16373 0.0
H2890 H 0.67579 0.56235 0.18234 0.0
H2891 H 0.70837 0.5648 0.1666 0.0
C2892 C 0.29578 0.24226 0.42999 0.0
C2893 C 0.31583 0.23825 0.43288 0.0
C2894 C 0.28995 0.26195 0.42546 0.0
C2895 C 0.30725 0.31444 0.43482 0.0
H2896 H 0.26004 0.32791 0.40608 0.0
C2897 C 0.27656 0.39605 0.43284 0.0
C2898 C 0.25605 0.39721 0.43554 0.0
C2899 C 0.28518 0.37716 0.42999 0.0
C2900 C 0.27323 0.32435 0.41422 0.0
H2901 H 0.34563 0.25125 0.43126 0.0
H2902 H 0.33547 0.28554 0.42297 0.0
H2903 H 0.27317 0.29379 0.40317 0.0
H2904 H 0.22853 0.37949 0.43756 0.0
H2905 H 0.24357 0.34662 0.43271 0.0
H2906 H 0.30706 0.34486 0.44618 0.0
C2907 C 0.32422 0.27357 0.42469 0.0
C2908 C 0.28077 0.30483 0.41251 0.0
C2909 C 0.33005 0.25386 0.42922 0.0
C2910 C 0.24438 0.37912 0.43553 0.0
C2911 C 0.25297 0.3603 0.43256 0.0
C2912 C 0.29975 0.33397 0.43646 0.0
C2913 C 0.30407 0.27803 0.42367 0.0
C2914 C 0.29764 0.29951 0.42311 0.0
C2915 C 0.27344 0.3591 0.42962 0.0
C2916 C 0.28242 0.339 0.42651 0.0
H2917 H 0.28445 0.23057 0.43266 0.0
H2918 H 0.2743 0.26481 0.42483 0.0
H2919 H 0.32006 0.31078 0.44348 0.0
H2920 H 0.28593 0.40973 0.4327 0.0
H2921 H 0.30099 0.37673 0.4277 0.0
C2922 C 0.17559 0.98604 0.38321 0.0
C2923 C 0.17018 0.97934 0.40202 0.0
C2924 C 0.19493 0.99269 0.37934 0.0
C2925 C 0.23549 0.01401 0.37776 0.0
H2926 H 0.27398 0.97265 0.38767 0.0
C2927 C 0.31551 0.02121 0.34898 0.0
C2928 C 0.321 0.00426 0.33787 0.0
C2929 C 0.29868 0.02009 0.36082 0.0
C2930 C 0.26343 0.98442 0.38501 0.0
H2931 H 0.18045 0.9747 0.4317 0.0
H2932 H 0.21472 0.98583 0.42472 0.0
H2933 H 0.24075 0.96878 0.40158 0.0
H2934 H 0.31367 0.97266 0.33096 0.0
H2935 H 0.28435 0.97067 0.35175 0.0
H2936 H 0.25785 0.02924 0.36054 0.0
C2937 C 0.20383 0.9862 0.41311 0.0
C2938 C 0.24452 0.98231 0.39309 0.0
C2939 C 0.18429 0.97993 0.4171 0.0
C2940 C 0.30974 0.98598 0.3393 0.0
C2941 C 0.29307 0.98479 0.35132 0.0
C2942 C 0.25445 0.01626 0.36989 0.0
C2943 C 0.20932 0.9924 0.39412 0.0
C2944 C 0.23022 0.99675 0.38898 0.0
C2945 C 0.28722 0.00192 0.36196 0.0
C2946 C 0.26838 0.00115 0.37292 0.0
H2947 H 0.16495 0.98573 0.37135 0.0
H2948 H 0.19885 0.99715 0.36453 0.0
H2949 H 0.22468 0.02535 0.37444 0.0
H2950 H 0.32393 0.0355 0.34819 0.0
H2951 H 0.29449 0.03349 0.36892 0.0
C2952 C 0.80547 0.24996 0.57247 0.0
C2953 C 0.78985 0.26131 0.56508 0.0
C2954 C 0.80211 0.22989 0.57878 0.0
C2955 C 0.76324 0.19055 0.5906 0.0
H2956 H 0.79919 0.15381 0.56544 0.0
C2957 C 0.74216 0.10642 0.57638 0.0
C2958 C 0.75661 0.09171 0.57878 0.0
C2959 C 0.74721 0.12717 0.57746 0.0
C2960 C 0.7892 0.16381 0.57287 0.0
H2961 H 0.75821 0.26116 0.56018 0.0
H2962 H 0.75235 0.22619 0.57121 0.0
H2963 H 0.80608 0.19044 0.56435 0.0
H2964 H 0.78772 0.08722 0.58412 0.0
H2965 H 0.79658 0.1236 0.58608 0.0
H2966 H 0.74612 0.16391 0.59872 0.0
C2967 C 0.7672 0.23275 0.57212 0.0
C2968 C 0.79317 0.18483 0.57229 0.0
C2969 C 0.77056 0.25281 0.56577 0.0
C2970 C 0.77629 0.0982 0.58209 0.0
C2971 C 0.78135 0.11904 0.5832 0.0
C2972 C 0.75929 0.16952 0.59122 0.0
C2973 C 0.78306 0.22079 0.57791 0.0
C2974 C 0.78004 0.19847 0.58083 0.0
C2975 C 0.76682 0.13375 0.58103 0.0
C2976 C 0.77201 0.15593 0.582 0.0
H2977 H 0.8205 0.2561 0.57224 0.0
H2978 H 0.81457 0.22118 0.58353 0.0
H2979 H 0.75297 0.20065 0.59751 0.0
H2980 H 0.72687 0.10193 0.57375 0.0
H2981 H 0.73572 0.13807 0.57529 0.0
C2982 C 0.81324 0.48101 0.66853 0.0
C2983 C 0.82915 0.49488 0.66555 0.0
C2984 C 0.79443 0.48552 0.66161 0.0
C2985 C 0.75612 0.50896 0.66044 0.0
H2986 H 0.74648 0.53342 0.60975 0.0
C2987 C 0.68435 0.55095 0.6423 0.0
C2988 C 0.67562 0.54559 0.6243 0.0
C2989 C 0.70337 0.54458 0.64682 0.0
C2990 C 0.74893 0.52655 0.62394 0.0
H2991 H 0.83842 0.52348 0.65205 0.0
H2992 H 0.8058 0.53114 0.63961 0.0
H2993 H 0.77891 0.52013 0.617 0.0
H2994 H 0.68009 0.52993 0.5967 0.0
H2995 H 0.71302 0.51896 0.60454 0.0
H2996 H 0.72608 0.51538 0.66735 0.0
C2997 C 0.80769 0.51689 0.6473 0.0
C2998 C 0.76749 0.519 0.62809 0.0
C2999 C 0.82635 0.51252 0.65442 0.0
C3000 C 0.68639 0.53428 0.61073 0.0
C3001 C 0.70532 0.52807 0.61516 0.0
C3002 C 0.73755 0.51661 0.65631 0.0
C3003 C 0.79142 0.50379 0.6514 0.0
C3004 C 0.77129 0.51019 0.64639 0.0
C3005 C 0.71395 0.53296 0.6333 0.0
C3006 C 0.7338 0.5255 0.63802 0.0
H3007 H 0.81502 0.46743 0.67731 0.0
H3008 H 0.78213 0.47509 0.6648 0.0
H3009 H 0.75875 0.50253 0.67479 0.0
H3010 H 0.67634 0.55963 0.65303 0.0
H3011 H 0.70979 0.54871 0.66085 0.0
C3012 C 0.29302 0.60419 0.92809 0.0
C3013 C 0.27777 0.58916 0.92766 0.0
C3014 C 0.28864 0.62485 0.92894 0.0
C3015 C 0.24886 0.66116 0.92041 0.0
H3016 H 0.27657 0.69385 0.95959 0.0
C3017 C 0.21838 0.73461 0.95314 0.0
C3018 C 0.23165 0.74971 0.96034 0.0
C3019 C 0.22538 0.71681 0.94476 0.0
C3020 C 0.26897 0.68515 0.94824 0.0
H3021 H 0.24598 0.584 0.9274 0.0
H3022 H 0.23834 0.62008 0.929 0.0
H3023 H 0.28621 0.659 0.95377 0.0
H3024 H 0.26259 0.75886 0.96278 0.0
H3025 H 0.27481 0.72802 0.94764 0.0
H3026 H 0.23136 0.68724 0.91514 0.0
C3027 C 0.25368 0.61589 0.92851 0.0
C3028 C 0.27447 0.66511 0.94497 0.0
C3029 C 0.25805 0.59522 0.92777 0.0
C3030 C 0.252 0.74741 0.95752 0.0
C3031 C 0.25901 0.72966 0.949 0.0
C3032 C 0.24342 0.68129 0.9236 0.0
C3033 C 0.26892 0.63092 0.92925 0.0
C3034 C 0.26422 0.65276 0.93131 0.0
C3035 C 0.2458 0.71378 0.94327 0.0
C3036 C 0.25315 0.6934 0.93785 0.0
H3037 H 0.30836 0.6 0.92793 0.0
H3038 H 0.3007 0.63609 0.92933 0.0
H3039 H 0.24089 0.6521 0.90956 0.0
H3040 H 0.2026 0.73591 0.95512 0.0
H3041 H 0.21475 0.70489 0.94065 0.0
C3042 C 0.21388 0.85439 0.99182 0.0
C3043 C 0.21897 0.84037 0.00637 0.0
C3044 C 0.2091 0.87429 0.9968 0.0
C3045 C 0.21129 0.91207 0.03768 0.0
H3046 H 0.17101 0.938 0.00676 0.0
C3047 C 0.17921 0.98947 0.0582 0.0
C3048 C 0.19002 0.00386 0.04692 0.0
C3049 C 0.17824 0.96896 0.05249 0.0
C3050 C 0.18209 0.93077 0.01559 0.0
H3051 H 0.2239 0.83647 0.03749 0.0
H3052 H 0.21483 0.87087 0.04632 0.0
H3053 H 0.18015 0.90311 -0.00092 0.0
H3054 H 0.20484 0.00888 0.01906 0.0
H3055 H 0.20212 0.97333 0.0087 0.0
H3056 H 0.21285 0.93982 0.05425 0.0
C3057 C 0.21483 0.86672 0.03098 0.0
C3058 C 0.18759 0.91093 0.01108 0.0
C3059 C 0.21997 0.8469 0.02594 0.0
C3060 C 0.19679 0.99807 0.0283 0.0
C3061 C 0.19529 0.97773 0.02235 0.0
C3062 C 0.20549 0.93172 0.04238 0.0
C3063 C 0.20898 0.88059 0.0165 0.0
C3064 C 0.20251 0.90141 0.02186 0.0
C3065 C 0.18711 0.96289 0.03495 0.0
C3066 C 0.19101 0.94126 0.03127 0.0
H3067 H 0.21319 0.84988 0.97657 0.0
H3068 H 0.20533 0.88466 0.98514 0.0
H3069 H 0.22306 0.90554 0.04612 0.0
H3070 H 0.17327 0.99357 0.07232 0.0
H3071 H 0.1717 0.95768 0.06232 0.0
C3072 C 0.69645 0.86892 0.47205 0.0
C3073 C 0.6783 0.85874 0.46858 0.0
C3074 C 0.69704 0.88938 0.47766 0.0
C3075 C 0.67418 0.92235 0.50905 0.0
H3076 H 0.70097 0.96724 0.48206 0.0
C3077 C 0.69366 0.99738 0.54975 0.0
C3078 C 0.7123 0.00623 0.54548 0.0
C3079 C 0.68555 0.98195 0.53776 0.0
C3080 C 0.69357 0.95486 0.4899 0.0
H3081 H 0.64654 0.86153 0.46809 0.0
H3082 H 0.64753 0.8974 0.47887 0.0
H3083 H 0.6945 0.93505 0.4649 0.0
H3084 H 0.73698 0.00609 0.52526 0.0
H3085 H 0.72348 0.97877 0.50507 0.0
H3086 H 0.67472 0.94114 0.53456 0.0
C3087 C 0.66125 0.88968 0.47657 0.0
C3088 C 0.68967 0.93656 0.47995 0.0
C3089 C 0.6607 0.86933 0.47036 0.0
C3090 C 0.72249 -0.00032 0.52885 0.0
C3091 C 0.7146 0.98406 0.51712 0.0
C3092 C 0.67848 0.94047 0.51917 0.0
C3093 C 0.67944 0.89972 0.48048 0.0
C3094 C 0.68032 0.92008 0.48959 0.0
C3095 C 0.69609 0.9748 0.52147 0.0
C3096 C 0.68875 0.95679 0.5099 0.0
H3097 H 0.71014 0.86087 0.47098 0.0
H3098 H 0.71119 0.89683 0.48084 0.0
H3099 H 0.66715 0.90966 0.51679 0.0
H3100 H 0.68545 0.00224 0.56244 0.0
H3101 H 0.67112 0.97548 0.54143 0.0
C3102 C 0.33031 0.48869 0.9515 0.0
C3103 C 0.31858 0.50393 0.95943 0.0
C3104 C 0.33473 0.47149 0.96261 0.0
C3105 C 0.34579 0.43794 0.99147 0.0
H3106 H 0.29786 0.4146 0.01456 0.0
C3107 C 0.34056 0.35664 0.02573 0.0
C3108 C 0.32566 0.34457 0.01672 0.0
C3109 C 0.34134 0.37782 0.02292 0.0
C3110 C 0.31142 0.42104 0.00841 0.0
H3111 H 0.30389 0.51409 0.98576 0.0
H3112 H 0.31174 0.48422 0.00513 0.0
H3113 H 0.29804 0.44924 0.00172 0.0
H3114 H 0.29953 0.34501 0.99846 0.0
H3115 H 0.3005 0.38189 0.99407 0.0
H3116 H 0.35882 0.40918 0.99746 0.0
C3117 C 0.31718 0.48533 0.99024 0.0
C3118 C 0.3116 0.44092 0.00118 0.0
C3119 C 0.31275 0.50247 0.97915 0.0
C3120 C 0.31111 0.35401 0.00562 0.0
C3121 C 0.31164 0.3751 0.00316 0.0
C3122 C 0.34567 0.41804 0.99891 0.0
C3123 C 0.32754 0.46929 0.98185 0.0
C3124 C 0.32861 0.44941 0.99214 0.0
C3125 C 0.32695 0.38717 0.01146 0.0
C3126 C 0.32828 0.40924 0.00691 0.0
H3127 H 0.33513 0.48944 0.93639 0.0
H3128 H 0.34268 0.45935 0.9557 0.0
H3129 H 0.35914 0.44413 0.98469 0.0
H3130 H 0.35208 0.34964 0.03417 0.0
H3131 H 0.35329 0.38684 0.02945 0.0
C3132 C 0.81134 0.5061 0.46264 0.0
C3133 C 0.79957 0.52083 0.47137 0.0
C3134 C 0.81268 0.48672 0.47107 0.0
C3135 C 0.78302 0.45322 0.50441 0.0
H3136 H 0.82564 0.41592 0.49676 0.0
C3137 C 0.79434 0.37082 0.53728 0.0
C3138 C 0.78904 0.3561 0.52307 0.0
C3139 C 0.79622 0.39146 0.53224 0.0
C3140 C 0.8137 0.42628 0.49899 0.0
H3141 H 0.78267 0.52799 0.49731 0.0
H3142 H 0.78605 0.49483 0.51258 0.0
H3143 H 0.83022 0.45173 0.48702 0.0
H3144 H 0.7809 0.35164 0.49259 0.0
H3145 H 0.78444 0.38779 0.48382 0.0
H3146 H 0.76668 0.42764 0.51656 0.0
C3147 C 0.79314 0.49762 0.49858 0.0
C3148 C 0.81624 0.44673 0.49335 0.0
C3149 C 0.79143 0.51677 0.48995 0.0
C3150 C 0.78505 0.36256 0.50387 0.0
C3151 C 0.78714 0.38317 0.4988 0.0
C3152 C 0.7806 0.43287 0.5102 0.0
C3153 C 0.80278 0.48195 0.48872 0.0
C3154 C 0.80087 0.46047 0.49588 0.0
C3155 C 0.79298 0.39767 0.5129 0.0
C3156 C 0.79584 0.41927 0.50737 0.0
H3157 H 0.81821 0.50892 0.44855 0.0
H3158 H 0.82038 0.47515 0.46306 0.0
H3159 H 0.77064 0.4631 0.50617 0.0
H3160 H 0.79749 0.36635 0.5522 0.0
H3161 H 0.80061 0.40252 0.54332 0.0
C3162 C 0.40256 0.70516 0.80788 0.0
C3163 C 0.41904 0.70086 0.81945 0.0
C3164 C 0.40488 0.70951 0.78801 0.0
C3165 C 0.41334 0.715 0.74469 0.0
H3166 H 0.45494 0.75647 0.73779 0.0
C3167 C 0.41313 0.766 0.67773 0.0
C3168 C 0.43092 0.76747 0.66723 0.0
C3169 C 0.4129 0.75883 0.69693 0.0
C3170 C 0.44339 0.74479 0.73944 0.0
H3171 H 0.4505 0.69557 0.81898 0.0
H3172 H 0.45451 0.70311 0.78417 0.0
H3173 H 0.4524 0.73768 0.76864 0.0
H3174 H 0.46263 0.76444 0.66898 0.0
H3175 H 0.46227 0.75175 0.70265 0.0
H3176 H 0.40415 0.72222 0.71567 0.0
C3177 C 0.43987 0.70338 0.79055 0.0
C3178 C 0.44202 0.73392 0.75702 0.0
C3179 C 0.43751 0.6988 0.81041 0.0
C3180 C 0.44874 0.7636 0.67685 0.0
C3181 C 0.4485 0.75621 0.69607 0.0
C3182 C 0.41473 0.72582 0.72716 0.0
C3183 C 0.42374 0.70975 0.77943 0.0
C3184 C 0.42679 0.71914 0.75991 0.0
C3185 C 0.43044 0.75277 0.70589 0.0
C3186 C 0.42952 0.74111 0.72447 0.0
H3187 H 0.38816 0.70682 0.8145 0.0
H3188 H 0.39216 0.71437 0.77982 0.0
H3189 H 0.40158 0.70357 0.74646 0.0
H3190 H 0.39921 0.76904 0.67064 0.0
H3191 H 0.39884 0.75695 0.70437 0.0
C3192 C 0.08 0.21979 0.70215 0.0
C3193 C 0.09637 0.21167 0.69265 0.0
C3194 C 0.08176 0.22735 0.72118 0.0
C3195 C 0.11473 0.25181 0.75518 0.0
H3196 H 0.08 0.22953 0.79552 0.0
C3197 C 0.11691 0.28291 0.83442 0.0
C3198 C 0.0987 0.28417 0.84409 0.0
C3199 C 0.11817 0.27251 0.81661 0.0
C3200 C 0.08964 0.23613 0.78441 0.0
H3201 H 0.12748 0.20534 0.69535 0.0
H3202 H 0.1307 0.21933 0.72863 0.0
H3203 H 0.07915 0.21476 0.76277 0.0
H3204 H 0.0675 0.27585 0.8427 0.0
H3205 H 0.06946 0.25854 0.8114 0.0
H3206 H 0.1245 0.27394 0.77632 0.0
C3207 C 0.1165 0.2195 0.72133 0.0
C3208 C 0.08924 0.22754 0.76573 0.0
C3209 C 0.11464 0.21149 0.70241 0.0
C3210 C 0.0818 0.27489 0.83568 0.0
C3211 C 0.08297 0.26483 0.81776 0.0
C3212 C 0.11488 0.26071 0.77379 0.0
C3213 C 0.1 0.2273 0.73088 0.0
C3214 C 0.10162 0.23544 0.75095 0.0
C3215 C 0.10117 0.26346 0.80796 0.0
C3216 C 0.10214 0.25314 0.78859 0.0
H3217 H 0.06573 0.22003 0.695 0.0
H3218 H 0.06889 0.23342 0.72827 0.0
H3219 H 0.1243 0.25821 0.74389 0.0
H3220 H 0.13019 0.28989 0.84065 0.0
H3221 H 0.13248 0.27152 0.80967 0.0
C3222 C 0.35845 0.75222 0.06417 0.0
C3223 C 0.37285 0.76555 0.07235 0.0
C3224 C 0.36067 0.74474 0.04521 0.0
C3225 C 0.38534 0.75761 0.99893 0.0
H3226 H 0.36959 0.7023 0.9842 0.0
C3227 C 0.38004 0.73599 0.91864 0.0
C3228 C 0.38977 0.71831 0.91317 0.0
C3229 C 0.37575 0.73967 0.93823 0.0
C3230 C 0.3741 0.71775 0.98813 0.0
H3231 H 0.40113 0.78108 0.06737 0.0
H3232 H 0.40512 0.76785 0.0342 0.0
H3233 H 0.36848 0.71256 0.01864 0.0
H3234 H 0.40149 0.68991 0.92355 0.0
H3235 H 0.3942 0.69647 0.95806 0.0
H3236 H 0.39132 0.76279 0.96863 0.0
C3237 C 0.39198 0.7634 0.04238 0.0
C3238 C 0.37335 0.72367 0.0078 0.0
C3239 C 0.38975 0.77091 0.06138 0.0
C3240 C 0.39381 0.70358 0.92742 0.0
C3241 C 0.38969 0.70738 0.94715 0.0
C3242 C 0.38607 0.75172 0.97935 0.0
C3243 C 0.37734 0.75042 0.03402 0.0
C3244 C 0.37891 0.7437 0.01337 0.0
C3245 C 0.38137 0.72587 0.95279 0.0
C3246 C 0.38031 0.7318 0.9737 0.0
H3247 H 0.34526 0.7478 0.07229 0.0
H3248 H 0.34902 0.73498 0.03911 0.0
H3249 H 0.38949 0.7732 0.00269 0.0
H3250 H 0.37666 0.74749 0.90786 0.0
H3251 H 0.36884 0.75379 0.94209 0.0
C3252 C 0.05895 0.25889 0.3453 0.0
C3253 C 0.04745 0.27457 0.35274 0.0
C3254 C 0.05848 0.25409 0.32542 0.0
C3255 C 0.027 0.25924 0.28161 0.0
H3256 H 0.0737 0.24133 0.25455 0.0
C3257 C 0.02315 0.231 0.20167 0.0
C3258 C 0.03811 0.23909 0.18944 0.0
C3259 C 0.02481 0.23287 0.22204 0.0
C3260 C 0.06052 0.24635 0.26186 0.0
H3261 H 0.02715 0.2982 0.34505 0.0
H3262 H 0.02684 0.29029 0.3101 0.0
H3263 H 0.07618 0.25197 0.28857 0.0
H3264 H 0.06698 0.25443 0.1889 0.0
H3265 H 0.0697 0.25795 0.22407 0.0
H3266 H 0.01156 0.25451 0.25459 0.0
C3267 C 0.03581 0.28131 0.31976 0.0
C3268 C 0.0619 0.25229 0.28144 0.0
C3269 C 0.03616 0.28602 0.33974 0.0
C3270 C 0.05516 0.24807 0.19793 0.0
C3271 C 0.05679 0.24997 0.21816 0.0
C3272 C 0.02566 0.25347 0.26195 0.0
C3273 C 0.04664 0.265 0.31245 0.0
C3274 C 0.04519 0.25891 0.29153 0.0
C3275 C 0.04145 0.24284 0.23046 0.0
C3276 C 0.04245 0.24712 0.2518 0.0
H3277 H 0.06772 0.24969 0.35496 0.0
H3278 H 0.06683 0.2413 0.32038 0.0
H3279 H 0.01375 0.2639 0.28904 0.0
H3280 H 0.00985 0.224 0.19552 0.0
H3281 H 0.01287 0.22693 0.23115 0.0
C3282 C 0.07072 0.22028 0.58571 0.0
C3283 C 0.08694 0.22181 0.59848 0.0
C3284 C 0.0704 0.23203 0.56862 0.0
C3285 C 0.10386 0.25817 0.53384 0.0
H3286 H 0.0554 0.28043 0.51402 0.0
C3287 C 0.06839 0.29805 0.46032 0.0
C3288 C 0.07359 0.28285 0.44701 0.0
C3289 C 0.0737 0.29639 0.48007 0.0
C3290 C 0.06917 0.27473 0.51954 0.0
H3291 H 0.11537 0.23709 0.60359 0.0
H3292 H 0.11476 0.25756 0.57389 0.0
H3293 H 0.05595 0.26552 0.54676 0.0
H3294 H 0.08959 0.25514 0.4431 0.0
H3295 H 0.09948 0.25257 0.47722 0.0
H3296 H 0.1169 0.26679 0.50637 0.0
C3297 C 0.10239 0.24717 0.57693 0.0
C3298 C 0.06939 0.2659 0.53816 0.0
C3299 C 0.1027 0.23545 0.59397 0.0
C3300 C 0.08571 0.26717 0.45314 0.0
C3301 C 0.09133 0.26572 0.47269 0.0
C3302 C 0.10362 0.26693 0.51521 0.0
C3303 C 0.08631 0.24551 0.564 0.0
C3304 C 0.08659 0.25701 0.54527 0.0
C3305 C 0.08454 0.27971 0.48654 0.0
C3306 C 0.08612 0.27475 0.50764 0.0
H3307 H 0.05836 0.2099 0.58883 0.0
H3308 H 0.05791 0.23019 0.5588 0.0
H3309 H 0.11733 0.25138 0.53886 0.0
H3310 H 0.05869 0.31004 0.45589 0.0
H3311 H 0.06834 0.30741 0.49045 0.0
C3312 C 0.59146 0.23273 0.67748 0.0
C3313 C 0.57332 0.22952 0.6679 0.0
C3314 C 0.59201 0.23947 0.69683 0.0
C3315 C 0.56159 0.24915 0.74092 0.0
H3316 H 0.60159 0.29192 0.74948 0.0
C3317 C 0.56435 0.29519 0.81222 0.0
C3318 C 0.58253 0.29355 0.82191 0.0
C3319 C 0.5627 0.29017 0.7924 0.0
C3320 C 0.59034 0.28004 0.74725 0.0
H3321 H 0.54152 0.22942 0.67122 0.0
H3322 H 0.5424 0.24159 0.70501 0.0
H3323 H 0.59968 0.27467 0.71791 0.0
H3324 H 0.61358 0.28748 0.8182 0.0
H3325 H 0.61081 0.27931 0.78345 0.0
H3326 H 0.55224 0.25474 0.77034 0.0
C3327 C 0.55623 0.23865 0.69773 0.0
C3328 C 0.58935 0.26998 0.72927 0.0
C3329 C 0.55569 0.23159 0.6784 0.0
C3330 C 0.5994 0.28886 0.81105 0.0
C3331 C 0.5978 0.28416 0.79118 0.0
C3332 C 0.56248 0.25936 0.75886 0.0
C3333 C 0.57442 0.24349 0.70684 0.0
C3334 C 0.57516 0.2542 0.72599 0.0
C3335 C 0.57927 0.28384 0.78194 0.0
C3336 C 0.57701 0.27473 0.76225 0.0
H3337 H 0.60526 0.23111 0.66968 0.0
H3338 H 0.60626 0.2424 0.70365 0.0
H3339 H 0.55057 0.237 0.73891 0.0
H3340 H 0.55108 0.29864 0.82026 0.0
H3341 H 0.5483 0.29027 0.78548 0.0
C3342 C 0.38378 0.76071 0.56651 0.0
C3343 C 0.39744 0.77482 0.57457 0.0
C3344 C 0.37823 0.76221 0.54694 0.0
C3345 C 0.36581 0.77051 0.50532 0.0
H3346 H 0.41294 0.77115 0.473 0.0
C3347 C 0.36205 0.74774 0.42428 0.0
C3348 C 0.37605 0.73356 0.41849 0.0
C3349 C 0.36423 0.75827 0.44192 0.0
C3350 C 0.39964 0.77105 0.48181 0.0
H3351 H 0.41512 0.80234 0.56912 0.0
H3352 H 0.40555 0.80487 0.53459 0.0
H3353 H 0.4154 0.78111 0.50737 0.0
H3354 H 0.40361 0.71974 0.42624 0.0
H3355 H 0.40725 0.73784 0.45737 0.0
H3356 H 0.35024 0.7592 0.48019 0.0
C3357 C 0.39906 0.79273 0.54347 0.0
C3358 C 0.40099 0.77704 0.50141 0.0
C3359 C 0.40438 0.79139 0.56322 0.0
C3360 C 0.39261 0.73057 0.43037 0.0
C3361 C 0.39475 0.74107 0.4481 0.0
C3362 C 0.36445 0.76456 0.48574 0.0
C3363 C 0.38649 0.77771 0.53501 0.0
C3364 C 0.3842 0.77612 0.51351 0.0
C3365 C 0.3804 0.75479 0.4542 0.0
C3366 C 0.38147 0.76411 0.47397 0.0
H3367 H 0.37832 0.74777 0.57501 0.0
H3368 H 0.36868 0.75029 0.54081 0.0
H3369 H 0.35263 0.76977 0.51432 0.0
H3370 H 0.34923 0.75054 0.41531 0.0
H3371 H 0.35308 0.76894 0.44608 0.0
C3372 C 0.42808 0.46954 0.2319 0.0
C3373 C 0.42032 0.46594 0.21308 0.0
C3374 C 0.44774 0.47652 0.23416 0.0
C3375 C 0.48309 0.50759 0.20628 0.0
H3376 H 0.52323 0.49037 0.24264 0.0
C3377 C 0.56507 0.52665 0.19542 0.0
C3378 C 0.57748 0.52947 0.21171 0.0
C3379 C 0.54505 0.52182 0.19793 0.0
C3380 C 0.51202 0.49564 0.2327 0.0
H3381 H 0.42737 0.46458 0.18217 0.0
H3382 H 0.4616 0.47629 0.18612 0.0
H3383 H 0.49052 0.47323 0.24282 0.0
H3384 H 0.57855 0.53064 0.24341 0.0
H3385 H 0.54329 0.52229 0.24786 0.0
H3386 H 0.50437 0.52981 0.19599 0.0
C3387 C 0.45248 0.47428 0.19907 0.0
C3388 C 0.49338 0.48573 0.23273 0.0
C3389 C 0.43296 0.46739 0.19682 0.0
C3390 C 0.56925 0.52872 0.2306 0.0
C3391 C 0.54915 0.52368 0.23314 0.0
C3392 C 0.50157 0.51754 0.20634 0.0
C3393 C 0.45975 0.47993 0.21761 0.0
C3394 C 0.47898 0.49123 0.2191 0.0
C3395 C 0.53698 0.51959 0.21682 0.0
C3396 C 0.51645 0.51131 0.21914 0.0
H3397 H 0.41856 0.46872 0.24465 0.0
H3398 H 0.45305 0.48067 0.24863 0.0
H3399 H 0.47205 0.51251 0.19597 0.0
H3400 H 0.57105 0.52707 0.1807 0.0
H3401 H 0.53618 0.5186 0.18504 0.0
C3402 C 0.44081 0.04994 0.85153 0.0
C3403 C 0.43437 0.05327 0.83226 0.0
C3404 C 0.4576 0.03855 0.85501 0.0
C3405 C 0.50388 0.02482 0.83336 0.0
H3406 H 0.49917 0.97279 0.86026 0.0
C3407 C 0.55909 0.96303 0.81989 0.0
C3408 C 0.56494 0.95046 0.83533 0.0
C3409 C 0.54395 0.97661 0.82248 0.0
C3410 C 0.50087 0.98747 0.8531 0.0
H3411 H 0.44048 0.0478 0.80155 0.0
H3412 H 0.47007 0.02849 0.80764 0.0
H3413 H 0.47115 0.99555 0.85992 0.0
H3414 H 0.5594 0.94202 0.86557 0.0
H3415 H 0.53292 0.9662 0.87027 0.0
H3416 H 0.53339 0.01698 0.82638 0.0
C3417 C 0.46203 0.03444 0.82001 0.0
C3418 C 0.48484 0.00043 0.85288 0.0
C3419 C 0.44509 0.04537 0.81655 0.0
C3420 C 0.55515 0.95155 0.85342 0.0
C3421 C 0.54 0.96535 0.85608 0.0
C3422 C 0.51993 0.01208 0.8338 0.0
C3423 C 0.46836 0.03087 0.83923 0.0
C3424 C 0.48608 0.01886 0.84246 0.0
C3425 C 0.53438 0.97816 0.84066 0.0
C3426 C 0.51838 0.99291 0.84303 0.0
H3427 H 0.43272 0.05583 0.86387 0.0
H3428 H 0.46229 0.03592 0.86994 0.0
H3429 H 0.50516 0.03911 0.82542 0.0
H3430 H 0.56618 0.96238 0.80569 0.0
H3431 H 0.53963 0.98579 0.8101 0.0
C3432 C 0.07214 0.49872 0.11618 0.0
C3433 C 0.08329 0.50326 0.09931 0.0
C3434 C 0.0516 0.4965 0.11515 0.0
C3435 C 0.00911 0.50937 0.08332 0.0
H3436 H 0.98042 0.47336 0.11911 0.0
C3437 C 0.92436 0.4905 0.08024 0.0
C3438 C 0.9144 0.49247 0.09816 0.0
C3439 C 0.94499 0.49231 0.07946 0.0
C3440 C 0.98827 0.48354 0.10909 0.0
H3441 H 0.08179 0.50829 0.06801 0.0
H3442 H 0.04596 0.50342 0.06596 0.0
H3443 H 0.0164 0.47387 0.11894 0.0
H3444 H 0.91817 0.49814 0.12927 0.0
H3445 H 0.95418 0.50088 0.12792 0.0
H3446 H 0.98071 0.51851 0.07318 0.0
C3447 C 0.05298 0.50224 0.08015 0.0
C3448 C 0.0089 0.48393 0.10903 0.0
C3449 C 0.07354 0.5048 0.08125 0.0
C3450 C 0.92541 0.4967 0.11521 0.0
C3451 C 0.94601 0.49811 0.11449 0.0
C3452 C 0.98844 0.50869 0.08316 0.0
C3453 C 0.04168 0.4984 0.09715 0.0
C3454 C 0.01965 0.49706 0.09633 0.0
C3455 C 0.956 0.49569 0.09666 0.0
C3456 C 0.97786 0.49597 0.09623 0.0
H3457 H 0.0792 0.49772 0.13037 0.0
H3458 H 0.04349 0.49396 0.12864 0.0
H3459 H 0.01677 0.51994 0.07356 0.0
H3460 H 0.91623 0.48715 0.0669 0.0
H3461 H 0.95239 0.49033 0.06555 0.0
C3462 C 0.0732 0.00956 0.85693 0.0
C3463 C 0.08115 0.9954 0.84391 0.0
C3464 C 0.05303 0.00891 0.86116 0.0
C3465 C 0.00869 0.9978 0.83482 0.0
H3466 H 0.98096 0.00573 0.88385 0.0
C3467 C 0.92373 0.99567 0.85741 0.0
C3468 C 0.91648 0.0095 0.84362 0.0
C3469 C 0.94392 0.99529 0.86144 0.0
C3470 C 0.98862 0.00359 0.87011 0.0
H3471 H 0.07471 0.96821 0.8267 0.0
H3472 H 0.03932 0.9674 0.83372 0.0
H3473 H 0.01653 0.99907 0.88417 0.0
H3474 H 0.92432 0.03506 0.82472 0.0
H3475 H 0.9597 0.03402 0.83142 0.0
H3476 H 0.9811 0.00275 0.82067 0.0
C3477 C 0.04873 0.97899 0.84059 0.0
C3478 C 0.00883 -0.00028 0.87029 0.0
C3479 C 0.06896 0.97946 0.8366 0.0
C3480 C 0.9295 0.0241 0.83523 0.0
C3481 C 0.94973 0.02349 0.83903 0.0
C3482 C 0.98869 0.00203 0.83462 0.0
C3483 C 0.04053 0.99422 0.85225 0.0
C3484 C 0.01896 0.99672 0.85262 0.0
C3485 C 0.95712 0.00857 0.85157 0.0
C3486 C 0.9785 0.00504 0.85223 0.0
H3487 H 0.08233 0.0219 0.86294 0.0
H3488 H 0.04703 0.02082 0.87017 0.0
H3489 H 0.01626 0.99588 0.82099 0.0
H3490 H 0.91397 0.98437 0.86423 0.0
H3491 H 0.94932 0.98366 0.87116 0.0
C3492 C 0.09724 0.27615 0.94521 0.0
C3493 C 0.08451 0.29102 0.93822 0.0
C3494 C 0.09462 0.26784 0.96387 0.0
C3495 C 0.07456 0.28033 0.01167 0.0
H3496 H 0.07943 0.22265 0.02281 0.0
C3497 C 0.0779 0.25449 0.09013 0.0
C3498 C 0.0634 0.23975 0.09522 0.0
C3499 C 0.08325 0.25733 0.07063 0.0
C3500 C 0.07807 0.23877 0.01986 0.0
H3501 H 0.05887 0.30866 0.94509 0.0
H3502 H 0.05436 0.29422 0.97787 0.0
H3503 H 0.08133 0.23483 0.98884 0.0
H3504 H 0.04412 0.21531 0.08446 0.0
H3505 H 0.05334 0.22041 0.05001 0.0
H3506 H 0.07112 0.2844 0.04245 0.0
C3507 C 0.0664 0.28906 0.96889 0.0
C3508 C 0.07921 0.24575 0.0005 0.0
C3509 C 0.06895 0.29729 0.95015 0.0
C3510 C 0.05563 0.22653 0.08081 0.0
C3511 C 0.06081 0.22954 0.06114 0.0
C3512 C 0.07358 0.27342 0.03092 0.0
C3513 C 0.0793 0.27434 0.97596 0.0
C3514 C 0.07746 0.26661 0.99626 0.0
C3515 C 0.07385 0.24574 0.05585 0.0
C3516 C 0.07545 0.25261 0.03525 0.0
H3517 H 0.10933 0.27097 0.93631 0.0
H3518 H 0.10491 0.25672 0.96902 0.0
H3519 H 0.07337 0.29651 0.00887 0.0
H3520 H 0.08398 0.26489 0.10108 0.0
H3521 H 0.09366 0.26962 0.06697 0.0
C3522 C 0.90802 0.72662 0.44814 0.0
C3523 C 0.92256 0.71244 0.44434 0.0
C3524 C 0.90254 0.7308 0.46735 0.0
C3525 C 0.9094 0.71831 0.51975 0.0
H3526 H 0.91741 0.77702 0.52416 0.0
C3527 C 0.92879 0.78387 0.58179 0.0
C3528 C 0.91408 0.77931 0.59572 0.0
C3529 C 0.92877 0.77364 0.56382 0.0
C3530 C 0.91524 0.76061 0.52318 0.0
H3531 H 0.94141 0.68996 0.45708 0.0
H3532 H 0.93203 0.69741 0.49089 0.0
H3533 H 0.91617 0.76124 0.49198 0.0
H3534 H 0.88816 0.76014 0.60208 0.0
H3535 H 0.88821 0.7423 0.57078 0.0
H3536 H 0.9088 0.71787 0.55118 0.0
C3537 C 0.92461 0.7051 0.47908 0.0
C3538 C 0.9142 0.75158 0.50475 0.0
C3539 C 0.9299 0.70074 0.45975 0.0
C3540 C 0.89965 0.76405 0.59157 0.0
C3541 C 0.89974 0.75371 0.57373 0.0
C3542 C 0.91025 0.72743 0.53829 0.0
C3543 C 0.91188 0.72113 0.48303 0.0
C3544 C 0.9113 0.73035 0.50281 0.0
C3545 C 0.91416 0.75856 0.5596 0.0
C3546 C 0.91333 0.74866 0.54013 0.0
H3547 H 0.90236 0.73594 0.43642 0.0
H3548 H 0.89238 0.74293 0.47 0.0
H3549 H 0.9073 0.70191 0.51865 0.0
H3550 H 0.94013 0.79551 0.58464 0.0
H3551 H 0.94016 0.77755 0.55321 0.0
loop_
_geom_bond_atom_site_label_1
_geom_bond_atom_site_label_2
_geom_bond_distance
_geom_bond_site_symmetry_2
_ccdc_geom_bond_type
Co0 O1 2.216 . S
Co0 O2 2.091 . S
Co0 O4 2.004 . S
Co0 O10 2.021 . S
Co0 O12 2.137 . S
Co0 O13 2.244 . S
O1 Co0 2.216 . S
O1 C8 1.247 . S
O2 Co0 2.091 . S
O2 C8 1.261 . S
C3 O12 1.247 . S
C3 O13 1.272 . S
O4 Co0 2.004 . S
O4 C9 1.259 . S
Co5 O6 2.061 . S
Co5 O11 2.052 . S
Co5 O13 2.135 . S
O6 Co5 2.061 . S
O6 C9 1.235 . S
C7 O10 1.238 . S
C7 O11 1.241 . S
C8 O1 1.247 . S
C8 O2 1.261 . S
C9 O4 1.259 . S
C9 O6 1.235 . S
O10 Co0 2.021 . S
O10 C7 1.238 . S
O11 Co5 2.052 . S
O11 C7 1.241 . S
O12 Co0 2.137 . S
O12 C3 1.247 . S
O13 Co0 2.244 . S
O13 C3 1.272 . S
O13 Co5 2.135 . S
Co14 O15 2.216 . S
Co14 O16 2.091 . S
Co14 O18 2.004 . S
Co14 O24 2.021 . S
Co14 O26 2.137 . S
Co14 O27 2.244 . S
O15 Co14 2.216 . S
O15 C22 1.247 . S
O16 Co14 2.091 . S
O16 C22 1.261 . S
C17 O26 1.247 . S
C17 O27 1.272 . S
O18 Co14 2.004 . S
O18 C23 1.259 . S
Co19 O20 2.061 . S
Co19 O25 2.052 . S
Co19 O27 2.135 . S
O20 Co19 2.061 . S
O20 C23 1.235 . S
C21 O24 1.238 . S
C21 O25 1.241 . S
C22 O15 1.247 . S
C22 O16 1.261 . S
C23 O18 1.259 . S
C23 O20 1.235 . S
O24 Co14 2.021 . S
O24 C21 1.238 . S
O25 Co19 2.052 . S
O25 C21 1.241 . S
O26 Co14 2.137 . S
O26 C17 1.247 . S
O27 Co14 2.244 . S
O27 C17 1.272 . S
O27 Co19 2.135 . S
Co28 O29 2.216 1_565 S
Co28 O30 2.091 . S
Co28 O32 2.004 . S
Co28 O38 2.021 1_565 S
Co28 O40 2.137 . S
Co28 O41 2.244 1_565 S
O29 Co28 2.216 1_545 S
O29 C36 1.247 1_545 S
O30 Co28 2.091 . S
O30 C36 1.261 . S
C31 O40 1.247 1_545 S
C31 O41 1.272 . S
O32 Co28 2.004 . S
O32 C37 1.259 . S
Co33 O34 2.061 1_545 S
Co33 O39 2.052 . S
Co33 O41 2.135 . S
O34 Co33 2.061 1_565 S
O34 C37 1.235 . S
C35 O38 1.238 . S
C35 O39 1.241 . S
C36 O29 1.247 1_565 S
C36 O30 1.261 . S
C37 O32 1.259 . S
C37 O34 1.235 . S
O38 Co28 2.021 1_545 S
O38 C35 1.238 . S
O39 Co33 2.052 . S
O39 C35 1.241 . S
O40 Co28 2.137 . S
O40 C31 1.247 1_565 S
O41 Co28 2.244 1_545 S
O41 C31 1.272 . S
O41 Co33 2.135 . S
Co42 O43 2.216 . S
Co42 O44 2.091 . S
Co42 O46 2.004 . S
Co42 O52 2.021 1_554 S
Co42 O54 2.137 . S
Co42 O55 2.244 1_554 S
O43 Co42 2.216 . S
O43 C50 1.247 . S
O44 Co42 2.091 . S
O44 C50 1.261 . S
C45 O54 1.298 . S
C45 O55 1.229 1_554 S
O46 Co42 2.004 . S
O46 C51 1.259 1_554 S
Co47 O48 2.061 . S
Co47 O53 2.052 . S
Co47 O55 2.135 . S
O48 Co47 2.061 . S
O48 C51 1.235 . S
C49 O52 1.238 . S
C49 O53 1.241 . S
C50 O43 1.247 . S
C50 O44 1.261 . S
C51 O46 1.259 1_556 S
C51 O48 1.235 . S
O52 Co42 2.021 1_556 S
O52 C49 1.238 . S
O53 Co47 2.052 . S
O53 C49 1.241 . S
O54 Co42 2.137 . S
O54 C45 1.298 . S
O55 Co42 2.244 1_556 S
O55 C45 1.229 1_556 S
O55 Co47 2.135 . S
Co56 O57 2.216 . S
Co56 O58 2.091 . S
Co56 O60 2.004 . S
Co56 O66 2.021 . S
Co56 O68 2.137 . S
Co56 O69 2.244 . S
O57 Co56 2.216 . S
O57 C64 1.247 . S
O58 Co56 2.091 . S
O58 C64 1.261 . S
C59 O68 1.247 . S
C59 O69 1.272 . S
O60 Co56 2.004 . S
O60 C65 1.259 . S
Co61 O62 2.061 . S
Co61 O67 2.052 . S
Co61 O69 2.135 . S
O62 Co61 2.061 . S
O62 C65 1.235 . S
C63 O66 1.238 . S
C63 O67 1.241 . S
C64 O57 1.247 . S
C64 O58 1.261 . S
C65 O60 1.259 . S
C65 O62 1.235 . S
O66 Co56 2.021 . S
O66 C63 1.238 . S
O67 Co61 2.052 . S
O67 C63 1.241 . S
O68 Co56 2.137 . S
O68 C59 1.247 . S
O69 Co56 2.244 . S
O69 C59 1.272 . S
O69 Co61 2.135 . S
Co70 O71 2.216 . S
Co70 O72 2.091 . S
Co70 O74 2.004 . S
Co70 O80 2.021 1_556 S
Co70 O82 2.137 . S
Co70 O83 2.244 1_556 S
O71 Co70 2.216 . S
O71 C78 1.247 . S
O72 Co70 2.091 . S
O72 C78 1.261 . S
C73 O82 1.247 1_554 S
C73 O83 1.272 . S
O74 Co70 2.004 . S
O74 C79 1.259 1_556 S
Co75 O76 2.061 . S
Co75 O81 2.052 . S
Co75 O83 2.135 . S
O76 Co75 2.061 . S
O76 C79 1.235 . S
C77 O80 1.238 . S
C77 O81 1.241 . S
C78 O71 1.247 . S
C78 O72 1.261 . S
C79 O74 1.259 1_554 S
C79 O76 1.235 . S
O80 Co70 2.021 1_554 S
O80 C77 1.238 . S
O81 Co75 2.052 . S
O81 C77 1.241 . S
O82 Co70 2.137 . S
O82 C73 1.247 1_556 S
O83 Co70 2.244 1_554 S
O83 C73 1.272 . S
O83 Co75 2.135 . S
Co84 O85 2.216 . S
Co84 O86 2.091 . S
Co84 O88 2.004 . S
Co84 O94 2.021 . S
Co84 O96 2.137 . S
Co84 O97 2.244 . S
O85 Co84 2.216 . S
O85 C92 1.247 . S
O86 Co84 2.091 . S
O86 C92 1.261 . S
C87 O96 1.247 . S
C87 O97 1.272 . S
O88 Co84 2.004 . S
O88 C93 1.259 . S
Co89 O90 2.061 . S
Co89 O95 2.052 . S
Co89 O97 2.135 . S
O90 Co89 2.061 . S
O90 C93 1.235 . S
C91 O94 1.238 . S
C91 O95 1.241 . S
C92 O85 1.247 . S
C92 O86 1.261 . S
C93 O88 1.259 . S
C93 O90 1.235 . S
O94 Co84 2.021 . S
O94 C91 1.238 . S
O95 Co89 2.052 . S
O95 C91 1.241 . S
O96 Co84 2.137 . S
O96 C87 1.247 . S
O97 Co84 2.244 . S
O97 C87 1.272 . S
O97 Co89 2.135 . S
Co98 O99 2.216 . S
Co98 O100 2.091 . S
Co98 O102 2.004 1_565 S
Co98 O108 2.021 . S
Co98 O110 2.137 1_565 S
Co98 O111 2.244 1_565 S
O99 Co98 2.216 . S
O99 C106 1.247 . S
O100 Co98 2.091 . S
O100 C106 1.261 . S
C101 O110 1.247 . S
C101 O111 1.272 . S
O102 Co98 2.004 1_545 S
O102 C107 1.259 . S
Co103 O104 2.061 . S
Co103 O109 2.052 . S
Co103 O111 2.135 . S
O104 Co103 2.061 . S
O104 C107 1.235 . S
C105 O108 1.238 . S
C105 O109 1.241 1_565 S
C106 O99 1.247 . S
C106 O100 1.261 . S
C107 O102 1.259 . S
C107 O104 1.235 . S
O108 Co98 2.021 . S
O108 C105 1.238 . S
O109 Co103 2.052 . S
O109 C105 1.241 1_545 S
O110 Co98 2.137 1_545 S
O110 C101 1.247 . S
O111 Co98 2.244 1_545 S
O111 C101 1.272 . S
O111 Co103 2.135 . S
Co112 O113 2.216 . S
Co112 O114 2.091 . S
Co112 O116 2.004 . S
Co112 O122 2.021 . S
Co112 O124 2.137 . S
Co112 O125 2.244 . S
O113 Co112 2.216 . S
O113 C120 1.247 . S
O114 Co112 2.091 . S
O114 C120 1.261 . S
C115 O124 1.247 . S
C115 O125 1.272 . S
O116 Co112 2.004 . S
O116 C121 1.259 . S
Co117 O118 2.061 . S
Co117 O123 2.052 . S
Co117 O125 2.135 . S
O118 Co117 2.061 . S
O118 C121 1.235 . S
C119 O122 1.238 . S
C119 O123 1.241 . S
C120 O113 1.247 . S
C120 O114 1.261 . S
C121 O116 1.259 . S
C121 O118 1.235 . S
O122 Co112 2.021 . S
O122 C119 1.238 . S
O123 Co117 2.052 . S
O123 C119 1.241 . S
O124 Co112 2.137 . S
O124 C115 1.247 . S
O125 Co112 2.244 . S
O125 C115 1.272 . S
O125 Co117 2.135 . S
Co126 O127 2.216 . S
Co126 O128 2.091 . S
Co126 O130 2.004 . S
Co126 O136 2.021 . S
Co126 O138 2.137 . S
Co126 O139 2.244 . S
O127 Co126 2.216 . S
O127 C134 1.247 . S
O128 Co126 2.091 . S
O128 C134 1.261 . S
C129 O138 1.247 . S
C129 O139 1.272 . S
O130 Co126 2.004 . S
O130 C135 1.259 . S
Co131 O132 2.061 . S
Co131 O137 2.052 . S
Co131 O139 2.135 . S
O132 Co131 2.061 . S
O132 C135 1.235 . S
C133 O136 1.238 . S
C133 O137 1.241 . S
C134 O127 1.247 . S
C134 O128 1.261 . S
C135 O130 1.259 . S
C135 O132 1.235 . S
O136 Co126 2.021 . S
O136 C133 1.238 . S
O137 Co131 2.052 . S
O137 C133 1.241 . S
O138 Co126 2.137 . S
O138 C129 1.247 . S
O139 Co126 2.244 . S
O139 C129 1.272 . S
O139 Co131 2.135 . S
Co140 O141 2.216 . S
Co140 O142 2.091 . S
Co140 O144 2.004 . S
Co140 O150 2.021 . S
Co140 O152 2.137 . S
Co140 O153 2.244 . S
O141 Co140 2.216 . S
O141 C148 1.247 . S
O142 Co140 2.091 . S
O142 C148 1.261 . S
C143 O152 1.247 . S
C143 O153 1.272 . S
O144 Co140 2.004 . S
O144 C149 1.259 . S
Co145 O146 2.061 . S
Co145 O151 2.052 . S
Co145 O153 2.135 . S
O146 Co145 2.061 . S
O146 C149 1.235 . S
C147 O150 1.238 . S
C147 O151 1.241 . S
C148 O141 1.247 . S
C148 O142 1.261 . S
C149 O144 1.259 . S
C149 O146 1.235 . S
O150 Co140 2.021 . S
O150 C147 1.238 . S
O151 Co145 2.052 . S
O151 C147 1.241 . S
O152 Co140 2.137 . S
O152 C143 1.247 . S
O153 Co140 2.244 . S
O153 C143 1.272 . S
O153 Co145 2.135 . S
Co154 O155 2.216 1_545 S
Co154 O156 2.091 . S
Co154 O158 2.004 . S
Co154 O164 2.021 1_545 S
Co154 O166 2.137 . S
Co154 O167 2.244 1_545 S
O155 Co154 2.216 1_565 S
O155 C162 1.247 . S
O156 Co154 2.091 . S
O156 C162 1.261 1_545 S
C157 O166 1.247 1_565 S
C157 O167 1.272 . S
O158 Co154 2.004 . S
O158 C163 1.259 . S
Co159 O160 2.061 1_565 S
Co159 O165 2.052 . S
Co159 O167 2.135 . S
O160 Co159 2.061 1_545 S
O160 C163 1.235 . S
C161 O164 1.238 . S
C161 O165 1.241 . S
C162 O155 1.247 . S
C162 O156 1.261 1_565 S
C163 O158 1.259 . S
C163 O160 1.235 . S
O164 Co154 2.021 1_565 S
O164 C161 1.238 . S
O165 Co159 2.052 . S
O165 C161 1.241 . S
O166 Co154 2.137 . S
O166 C157 1.247 1_545 S
O167 Co154 2.244 1_565 S
O167 C157 1.272 . S
O167 Co159 2.135 . S
Co168 O169 2.216 . S
Co168 O170 2.091 . S
Co168 O172 2.004 . S
Co168 O178 2.021 . S
Co168 O180 2.137 . S
Co168 O181 2.244 . S
O169 Co168 2.216 . S
O169 C176 1.247 . S
O170 Co168 2.091 . S
O170 C176 1.261 . S
C171 O180 1.247 . S
C171 O181 1.272 . S
O172 Co168 2.004 . S
O172 C177 1.259 . S
Co173 O174 2.061 . S
Co173 O179 2.052 . S
Co173 O181 2.135 . S
O174 Co173 2.061 . S
O174 C177 1.235 . S
C175 O178 1.238 . S
C175 O179 1.241 . S
C176 O169 1.247 . S
C176 O170 1.261 . S
C177 O172 1.259 . S
C177 O174 1.235 . S
O178 Co168 2.021 . S
O178 C175 1.238 . S
O179 Co173 2.052 . S
O179 C175 1.241 . S
O180 Co168 2.137 . S
O180 C171 1.247 . S
O181 Co168 2.244 . S
O181 C171 1.272 . S
O181 Co173 2.135 . S
Co182 O183 2.216 . S
Co182 O184 2.091 . S
Co182 O186 2.004 1_655 S
Co182 O192 2.021 1_655 S
Co182 O194 2.137 . S
Co182 O195 2.244 . S
O183 Co182 2.216 . S
O183 C190 1.247 . S
O184 Co182 2.091 . S
O184 C190 1.261 . S
C185 O194 1.247 . S
C185 O195 1.272 . S
O186 Co182 2.004 1_455 S
O186 C191 1.259 . S
Co187 O188 2.061 . S
Co187 O193 2.052 . S
Co187 O195 2.135 1_455 S
O188 Co187 2.061 . S
O188 C191 1.235 . S
C189 O192 1.238 . S
C189 O193 1.241 . S
C190 O183 1.247 . S
C190 O184 1.261 . S
C191 O186 1.259 . S
C191 O188 1.235 . S
O192 Co182 2.021 1_455 S
O192 C189 1.238 . S
O193 Co187 2.052 . S
O193 C189 1.241 . S
O194 Co182 2.137 . S
O194 C185 1.247 . S
O195 Co182 2.244 . S
O195 C185 1.272 . S
O195 Co187 2.135 1_655 S
Co196 O197 2.216 . S
Co196 O198 2.091 . S
Co196 O200 2.004 . S
Co196 O206 2.021 . S
Co196 O208 2.137 . S
Co196 O209 2.244 . S
O197 Co196 2.216 . S
O197 C204 1.247 . S
O198 Co196 2.091 . S
O198 C204 1.261 . S
C199 O208 1.247 . S
C199 O209 1.272 . S
O200 Co196 2.004 . S
O200 C205 1.259 . S
Co201 O202 2.061 . S
Co201 O207 2.052 . S
Co201 O209 2.135 . S
O202 Co201 2.061 . S
O202 C205 1.235 . S
C203 O206 1.238 . S
C203 O207 1.241 . S
C204 O197 1.247 . S
C204 O198 1.261 . S
C205 O200 1.259 . S
C205 O202 1.235 . S
O206 Co196 2.021 . S
O206 C203 1.238 . S
O207 Co201 2.052 . S
O207 C203 1.241 . S
O208 Co196 2.137 . S
O208 C199 1.247 . S
O209 Co196 2.244 . S
O209 C199 1.272 . S
O209 Co201 2.135 . S
Co210 O211 2.216 . S
Co210 O212 2.091 . S
Co210 O214 2.004 . S
Co210 O220 2.021 . S
Co210 O222 2.137 . S
Co210 O223 2.244 . S
O211 Co210 2.216 . S
O211 C218 1.247 . S
O212 Co210 2.091 . S
O212 C218 1.261 . S
C213 O222 1.247 . S
C213 O223 1.272 . S
O214 Co210 2.004 . S
O214 C219 1.259 . S
Co215 O216 2.061 . S
Co215 O221 2.052 . S
Co215 O223 2.135 . S
O216 Co215 2.061 . S
O216 C219 1.235 . S
C217 O220 1.238 . S
C217 O221 1.241 . S
C218 O211 1.247 . S
C218 O212 1.261 . S
C219 O214 1.259 . S
C219 O216 1.235 . S
O220 Co210 2.021 . S
O220 C217 1.238 . S
O221 Co215 2.052 . S
O221 C217 1.241 . S
O222 Co210 2.137 . S
O222 C213 1.247 . S
O223 Co210 2.244 . S
O223 C213 1.272 . S
O223 Co215 2.135 . S
Co224 O225 2.216 . S
Co224 O226 2.091 . S
Co224 O228 2.004 1_655 S
Co224 O234 2.021 1_655 S
Co224 O236 2.137 . S
Co224 O237 2.244 . S
O225 Co224 2.216 . S
O225 C232 1.247 . S
O226 Co224 2.091 . S
O226 C232 1.261 . S
C227 O236 1.247 . S
C227 O237 1.272 . S
O228 Co224 2.004 1_455 S
O228 C233 1.259 . S
Co229 O230 2.061 . S
Co229 O235 2.052 . S
Co229 O237 2.135 1_455 S
O230 Co229 2.061 . S
O230 C233 1.235 . S
C231 O234 1.238 . S
C231 O235 1.241 . S
C232 O225 1.247 . S
C232 O226 1.261 . S
C233 O228 1.259 . S
C233 O230 1.235 . S
O234 Co224 2.021 1_455 S
O234 C231 1.238 . S
O235 Co229 2.052 . S
O235 C231 1.241 . S
O236 Co224 2.137 . S
O236 C227 1.247 . S
O237 Co224 2.244 . S
O237 C227 1.272 . S
O237 Co229 2.135 1_655 S
Co238 O239 2.216 . S
Co238 O240 2.091 . S
Co238 O242 2.004 . S
Co238 O248 2.021 . S
Co238 O250 2.137 . S
Co238 O251 2.244 . S
O239 Co238 2.216 . S
O239 C246 1.247 . S
O240 Co238 2.091 . S
O240 C246 1.261 . S
C241 O250 1.247 . S
C241 O251 1.272 . S
O242 Co238 2.004 . S
O242 C247 1.259 . S
Co243 O244 2.061 . S
Co243 O249 2.052 . S
Co243 O251 2.135 . S
O244 Co243 2.061 . S
O244 C247 1.235 . S
C245 O248 1.238 . S
C245 O249 1.241 . S
C246 O239 1.247 . S
C246 O240 1.261 . S
C247 O242 1.259 . S
C247 O244 1.235 . S
O248 Co238 2.021 . S
O248 C245 1.238 . S
O249 Co243 2.052 . S
O249 C245 1.241 . S
O250 Co238 2.137 . S
O250 C241 1.247 . S
O251 Co238 2.244 . S
O251 C241 1.272 . S
O251 Co243 2.135 . S
Co252 O253 2.216 . S
Co252 O254 2.091 . S
Co252 O256 2.004 . S
Co252 O262 2.021 . S
Co252 O264 2.137 . S
Co252 O265 2.244 . S
O253 Co252 2.216 . S
O253 C260 1.247 . S
O254 Co252 2.091 . S
O254 C260 1.261 . S
C255 O264 1.247 . S
C255 O265 1.272 . S
O256 Co252 2.004 . S
O256 C261 1.259 . S
Co257 O258 2.061 . S
Co257 O263 2.052 . S
Co257 O265 2.135 . S
O258 Co257 2.061 . S
O258 C261 1.235 . S
C259 O262 1.238 . S
C259 O263 1.241 . S
C260 O253 1.247 . S
C260 O254 1.261 . S
C261 O256 1.259 . S
C261 O258 1.235 . S
O262 Co252 2.021 . S
O262 C259 1.238 . S
O263 Co257 2.052 . S
O263 C259 1.241 . S
O264 Co252 2.137 . S
O264 C255 1.247 . S
O265 Co252 2.244 . S
O265 C255 1.272 . S
O265 Co257 2.135 . S
Co266 O267 2.216 . S
Co266 O268 2.091 . S
Co266 O270 2.004 . S
Co266 O276 2.021 . S
Co266 O278 2.137 . S
Co266 O279 2.244 . S
O267 Co266 2.216 . S
O267 C274 1.247 . S
O268 Co266 2.091 . S
O268 C274 1.261 . S
C269 O278 1.247 . S
C269 O279 1.272 . S
O270 Co266 2.004 . S
O270 C275 1.259 . S
Co271 O272 2.061 . S
Co271 O277 2.052 . S
Co271 O279 2.135 . S
O272 Co271 2.061 . S
O272 C275 1.235 . S
C273 O276 1.238 . S
C273 O277 1.241 . S
C274 O267 1.247 . S
C274 O268 1.261 . S
C275 O270 1.259 . S
C275 O272 1.235 . S
O276 Co266 2.021 . S
O276 C273 1.238 . S
O277 Co271 2.052 . S
O277 C273 1.241 . S
O278 Co266 2.137 . S
O278 C269 1.247 . S
O279 Co266 2.244 . S
O279 C269 1.272 . S
O279 Co271 2.135 . S
Co280 O281 2.216 1_545 S
Co280 O282 2.091 . S
Co280 O284 2.004 . S
Co280 O290 2.021 1_545 S
Co280 O292 2.137 . S
Co280 O293 2.244 1_545 S
O281 Co280 2.216 1_565 S
O281 C288 1.247 1_565 S
O282 Co280 2.091 . S
O282 C288 1.261 . S
C283 O292 1.247 1_565 S
C283 O293 1.272 . S
O284 Co280 2.004 . S
O284 C289 1.259 . S
Co285 O286 2.061 1_565 S
Co285 O291 2.052 . S
Co285 O293 2.135 . S
O286 Co285 2.061 1_545 S
O286 C289 1.235 . S
C287 O290 1.238 . S
C287 O291 1.241 . S
C288 O281 1.247 1_545 S
C288 O282 1.261 . S
C289 O284 1.259 . S
C289 O286 1.235 . S
O290 Co280 2.021 1_565 S
O290 C287 1.238 . S
O291 Co285 2.052 . S
O291 C287 1.241 . S
O292 Co280 2.137 . S
O292 C283 1.247 1_545 S
O293 Co280 2.244 1_565 S
O293 C283 1.272 . S
O293 Co285 2.135 . S
Co294 O295 2.216 . S
Co294 O296 2.091 . S
Co294 O298 2.004 . S
Co294 O304 2.021 1_554 S
Co294 O306 2.137 . S
Co294 O307 2.244 1_554 S
O295 Co294 2.216 . S
O295 C302 1.247 . S
O296 Co294 2.091 . S
O296 C302 1.261 . S
C297 O306 1.298 . S
C297 O307 1.229 1_554 S
O298 Co294 2.004 . S
O298 C303 1.259 1_554 S
Co299 O300 2.061 . S
Co299 O305 2.052 . S
Co299 O307 2.135 . S
O300 Co299 2.061 . S
O300 C303 1.235 . S
C301 O304 1.238 . S
C301 O305 1.241 . S
C302 O295 1.247 . S
C302 O296 1.261 . S
C303 O298 1.259 1_556 S
C303 O300 1.235 . S
O304 Co294 2.021 1_556 S
O304 C301 1.238 . S
O305 Co299 2.052 . S
O305 C301 1.241 . S
O306 Co294 2.137 . S
O306 C297 1.298 . S
O307 Co294 2.244 1_556 S
O307 C297 1.229 1_556 S
O307 Co299 2.135 . S
Co308 O309 2.216 . S
Co308 O310 2.091 . S
Co308 O312 2.004 . S
Co308 O318 2.021 . S
Co308 O320 2.137 . S
Co308 O321 2.244 . S
O309 Co308 2.216 . S
O309 C316 1.247 . S
O310 Co308 2.091 . S
O310 C316 1.261 . S
C311 O320 1.247 . S
C311 O321 1.272 . S
O312 Co308 2.004 . S
O312 C317 1.259 . S
Co313 O314 2.061 . S
Co313 O319 2.052 . S
Co313 O321 2.135 . S
O314 Co313 2.061 . S
O314 C317 1.235 . S
C315 O318 1.238 . S
C315 O319 1.241 . S
C316 O309 1.247 . S
C316 O310 1.261 . S
C317 O312 1.259 . S
C317 O314 1.235 . S
O318 Co308 2.021 . S
O318 C315 1.238 . S
O319 Co313 2.052 . S
O319 C315 1.241 . S
O320 Co308 2.137 . S
O320 C311 1.247 . S
O321 Co308 2.244 . S
O321 C311 1.272 . S
O321 Co313 2.135 . S
Co322 O323 2.216 . S
Co322 O324 2.091 . S
Co322 O326 2.004 . S
Co322 O332 2.021 . S
Co322 O334 2.137 . S
Co322 O335 2.244 . S
O323 Co322 2.216 . S
O323 C330 1.247 . S
O324 Co322 2.091 . S
O324 C330 1.261 . S
C325 O334 1.247 . S
C325 O335 1.272 . S
O326 Co322 2.004 . S
O326 C331 1.259 . S
Co327 O328 2.061 . S
Co327 O333 2.052 . S
Co327 O335 2.135 . S
O328 Co327 2.061 . S
O328 C331 1.235 . S
C329 O332 1.238 . S
C329 O333 1.241 . S
C330 O323 1.247 . S
C330 O324 1.261 . S
C331 O326 1.259 . S
C331 O328 1.235 . S
O332 Co322 2.021 . S
O332 C329 1.238 . S
O333 Co327 2.052 . S
O333 C329 1.241 . S
O334 Co322 2.137 . S
O334 C325 1.247 . S
O335 Co322 2.244 . S
O335 C325 1.272 . S
O335 Co327 2.135 . S
Co336 O337 2.216 . S
Co336 O338 2.091 . S
Co336 O340 2.004 . S
Co336 O346 2.021 . S
Co336 O348 2.137 . S
Co336 O349 2.244 . S
O337 Co336 2.216 . S
O337 C344 1.247 . S
O338 Co336 2.091 . S
O338 C344 1.261 . S
C339 O348 1.247 . S
C339 O349 1.272 . S
O340 Co336 2.004 . S
O340 C345 1.259 . S
Co341 O342 2.061 . S
Co341 O347 2.052 . S
Co341 O349 2.135 . S
O342 Co341 2.061 . S
O342 C345 1.235 . S
C343 O346 1.238 . S
C343 O347 1.241 . S
C344 O337 1.247 . S
C344 O338 1.261 . S
C345 O340 1.259 . S
C345 O342 1.235 . S
O346 Co336 2.021 . S
O346 C343 1.238 . S
O347 Co341 2.052 . S
O347 C343 1.241 . S
O348 Co336 2.137 . S
O348 C339 1.247 . S
O349 Co336 2.244 . S
O349 C339 1.272 . S
O349 Co341 2.135 . S
Co350 O351 2.216 . S
Co350 O352 2.091 . S
Co350 O354 2.004 1_545 S
Co350 O360 2.021 . S
Co350 O362 2.137 1_545 S
Co350 O363 2.244 1_545 S
O351 Co350 2.216 . S
O351 C358 1.247 . S
O352 Co350 2.091 . S
O352 C358 1.261 . S
C353 O362 1.247 . S
C353 O363 1.272 . S
O354 Co350 2.004 1_565 S
O354 C359 1.259 . S
Co355 O356 2.061 . S
Co355 O361 2.052 . S
Co355 O363 2.135 . S
O356 Co355 2.061 . S
O356 C359 1.235 . S
C357 O360 1.238 . S
C357 O361 1.241 1_545 S
C358 O351 1.247 . S
C358 O352 1.261 . S
C359 O354 1.259 . S
C359 O356 1.235 . S
O360 Co350 2.021 . S
O360 C357 1.238 . S
O361 Co355 2.052 . S
O361 C357 1.241 1_565 S
O362 Co350 2.137 1_565 S
O362 C353 1.247 . S
O363 Co350 2.244 1_565 S
O363 C353 1.272 . S
O363 Co355 2.135 . S
Co364 O365 2.216 . S
Co364 O366 2.091 . S
Co364 O368 2.004 . S
Co364 O374 2.021 . S
Co364 O376 2.137 . S
Co364 O377 2.244 . S
O365 Co364 2.216 . S
O365 C372 1.247 . S
O366 Co364 2.091 . S
O366 C372 1.261 . S
C367 O376 1.247 . S
C367 O377 1.272 . S
O368 Co364 2.004 . S
O368 C373 1.259 . S
Co369 O370 2.061 . S
Co369 O375 2.052 . S
Co369 O377 2.135 . S
O370 Co369 2.061 . S
O370 C373 1.235 . S
C371 O374 1.238 . S
C371 O375 1.241 . S
C372 O365 1.247 . S
C372 O366 1.261 . S
C373 O368 1.259 . S
C373 O370 1.235 . S
O374 Co364 2.021 . S
O374 C371 1.238 . S
O375 Co369 2.052 . S
O375 C371 1.241 . S
O376 Co364 2.137 . S
O376 C367 1.247 . S
O377 Co364 2.244 . S
O377 C367 1.272 . S
O377 Co369 2.135 . S
Co378 O379 2.216 . S
Co378 O380 2.091 . S
Co378 O382 2.004 . S
Co378 O388 2.021 1_556 S
Co378 O390 2.137 . S
Co378 O391 2.244 1_556 S
O379 Co378 2.216 . S
O379 C386 1.247 . S
O380 Co378 2.091 . S
O380 C386 1.261 . S
C381 O390 1.247 1_554 S
C381 O391 1.272 . S
O382 Co378 2.004 . S
O382 C387 1.259 1_556 S
Co383 O384 2.061 . S
Co383 O389 2.052 . S
Co383 O391 2.135 . S
O384 Co383 2.061 . S
O384 C387 1.235 . S
C385 O388 1.238 . S
C385 O389 1.241 . S
C386 O379 1.247 . S
C386 O380 1.261 . S
C387 O382 1.259 1_554 S
C387 O384 1.235 . S
O388 Co378 2.021 1_554 S
O388 C385 1.238 . S
O389 Co383 2.052 . S
O389 C385 1.241 . S
O390 Co378 2.137 . S
O390 C381 1.247 1_556 S
O391 Co378 2.244 1_554 S
O391 C381 1.272 . S
O391 Co383 2.135 . S
Co392 O393 2.216 . S
Co392 O394 2.091 . S
Co392 O396 2.004 . S
Co392 O402 2.021 . S
Co392 O404 2.137 . S
Co392 O405 2.244 . S
O393 Co392 2.216 . S
O393 C400 1.247 . S
O394 Co392 2.091 . S
O394 C400 1.261 . S
C395 O404 1.247 . S
C395 O405 1.272 . S
O396 Co392 2.004 . S
O396 C401 1.259 . S
Co397 O398 2.061 . S
Co397 O403 2.052 . S
Co397 O405 2.135 . S
O398 Co397 2.061 . S
O398 C401 1.235 . S
C399 O402 1.238 . S
C399 O403 1.241 . S
C400 O393 1.247 . S
C400 O394 1.261 . S
C401 O396 1.259 . S
C401 O398 1.235 . S
O402 Co392 2.021 . S
O402 C399 1.238 . S
O403 Co397 2.052 . S
O403 C399 1.241 . S
O404 Co392 2.137 . S
O404 C395 1.247 . S
O405 Co392 2.244 . S
O405 C395 1.272 . S
O405 Co397 2.135 . S
Co406 O407 2.216 1_565 S
Co406 O408 2.091 . S
Co406 O410 2.004 . S
Co406 O416 2.021 1_565 S
Co406 O418 2.137 . S
Co406 O419 2.244 1_565 S
O407 Co406 2.216 1_545 S
O407 C414 1.247 . S
O408 Co406 2.091 . S
O408 C414 1.261 1_565 S
C409 O418 1.247 1_545 S
C409 O419 1.272 . S
O410 Co406 2.004 . S
O410 C415 1.259 . S
Co411 O412 2.061 1_545 S
Co411 O417 2.052 . S
Co411 O419 2.135 . S
O412 Co411 2.061 1_565 S
O412 C415 1.235 . S
C413 O416 1.238 . S
C413 O417 1.241 . S
C414 O407 1.247 . S
C414 O408 1.261 1_545 S
C415 O410 1.259 . S
C415 O412 1.235 . S
O416 Co406 2.021 1_545 S
O416 C413 1.238 . S
O417 Co411 2.052 . S
O417 C413 1.241 . S
O418 Co406 2.137 . S
O418 C409 1.247 1_565 S
O419 Co406 2.244 1_545 S
O419 C409 1.272 . S
O419 Co411 2.135 . S
Co420 O421 2.216 . S
Co420 O422 2.091 . S
Co420 O424 2.004 . S
Co420 O430 2.021 . S
Co420 O432 2.137 . S
Co420 O433 2.244 . S
O421 Co420 2.216 . S
O421 C428 1.247 . S
O422 Co420 2.091 . S
O422 C428 1.261 . S
C423 O432 1.247 . S
C423 O433 1.272 . S
O424 Co420 2.004 . S
O424 C429 1.259 . S
Co425 O426 2.061 . S
Co425 O431 2.052 . S
Co425 O433 2.135 . S
O426 Co425 2.061 . S
O426 C429 1.235 . S
C427 O430 1.238 . S
C427 O431 1.241 . S
C428 O421 1.247 . S
C428 O422 1.261 . S
C429 O424 1.259 . S
C429 O426 1.235 . S
O430 Co420 2.021 . S
O430 C427 1.238 . S
O431 Co425 2.052 . S
O431 C427 1.241 . S
O432 Co420 2.137 . S
O432 C423 1.247 . S
O433 Co420 2.244 . S
O433 C423 1.272 . S
O433 Co425 2.135 . S
Co434 O435 2.216 . S
Co434 O436 2.091 . S
Co434 O438 2.004 . S
Co434 O444 2.021 . S
Co434 O446 2.137 . S
Co434 O447 2.244 . S
O435 Co434 2.216 . S
O435 C442 1.247 . S
O436 Co434 2.091 . S
O436 C442 1.261 . S
C437 O446 1.247 . S
C437 O447 1.272 . S
O438 Co434 2.004 . S
O438 C443 1.259 . S
Co439 O440 2.061 . S
Co439 O445 2.052 . S
Co439 O447 2.135 . S
O440 Co439 2.061 . S
O440 C443 1.235 . S
C441 O444 1.238 . S
C441 O445 1.241 . S
C442 O435 1.247 . S
C442 O436 1.261 . S
C443 O438 1.259 . S
C443 O440 1.235 . S
O444 Co434 2.021 . S
O444 C441 1.238 . S
O445 Co439 2.052 . S
O445 C441 1.241 . S
O446 Co434 2.137 . S
O446 C437 1.247 . S
O447 Co434 2.244 . S
O447 C437 1.272 . S
O447 Co439 2.135 . S
Co448 O449 2.216 . S
Co448 O450 2.091 . S
Co448 O452 2.004 . S
Co448 O458 2.021 . S
Co448 O460 2.137 . S
Co448 O461 2.244 . S
O449 Co448 2.216 . S
O449 C456 1.247 . S
O450 Co448 2.091 . S
O450 C456 1.261 . S
C451 O460 1.247 . S
C451 O461 1.272 . S
O452 Co448 2.004 . S
O452 C457 1.259 . S
Co453 O454 2.061 . S
Co453 O459 2.052 . S
Co453 O461 2.135 . S
O454 Co453 2.061 . S
O454 C457 1.235 . S
C455 O458 1.238 . S
C455 O459 1.241 . S
C456 O449 1.247 . S
C456 O450 1.261 . S
C457 O452 1.259 . S
C457 O454 1.235 . S
O458 Co448 2.021 . S
O458 C455 1.238 . S
O459 Co453 2.052 . S
O459 C455 1.241 . S
O460 Co448 2.137 . S
O460 C451 1.247 . S
O461 Co448 2.244 . S
O461 C451 1.272 . S
O461 Co453 2.135 . S
Co462 O463 2.216 . S
Co462 O464 2.091 . S
Co462 O466 2.004 . S
Co462 O472 2.021 . S
Co462 O474 2.137 . S
Co462 O475 2.244 . S
O463 Co462 2.216 . S
O463 C470 1.247 . S
O464 Co462 2.091 . S
O464 C470 1.261 . S
C465 O474 1.247 . S
C465 O475 1.272 . S
O466 Co462 2.004 . S
O466 C471 1.259 . S
Co467 O468 2.061 . S
Co467 O473 2.052 . S
Co467 O475 2.135 . S
O468 Co467 2.061 . S
O468 C471 1.235 . S
C469 O472 1.238 . S
C469 O473 1.241 . S
C470 O463 1.247 . S
C470 O464 1.261 . S
C471 O466 1.259 . S
C471 O468 1.235 . S
O472 Co462 2.021 . S
O472 C469 1.238 . S
O473 Co467 2.052 . S
O473 C469 1.241 . S
O474 Co462 2.137 . S
O474 C465 1.247 . S
O475 Co462 2.244 . S
O475 C465 1.272 . S
O475 Co467 2.135 . S
Co476 O477 2.216 . S
Co476 O478 2.091 . S
Co476 O480 2.004 1_455 S
Co476 O486 2.021 1_455 S
Co476 O488 2.137 . S
Co476 O489 2.244 . S
O477 Co476 2.216 . S
O477 C484 1.247 . S
O478 Co476 2.091 . S
O478 C484 1.261 . S
C479 O488 1.247 . S
C479 O489 1.272 . S
O480 Co476 2.004 1_655 S
O480 C485 1.259 . S
Co481 O482 2.061 . S
Co481 O487 2.052 . S
Co481 O489 2.135 1_655 S
O482 Co481 2.061 . S
O482 C485 1.235 . S
C483 O486 1.238 . S
C483 O487 1.241 . S
C484 O477 1.247 . S
C484 O478 1.261 . S
C485 O480 1.259 . S
C485 O482 1.235 . S
O486 Co476 2.021 1_655 S
O486 C483 1.238 . S
O487 Co481 2.052 . S
O487 C483 1.241 . S
O488 Co476 2.137 . S
O488 C479 1.247 . S
O489 Co476 2.244 . S
O489 C479 1.272 . S
O489 Co481 2.135 1_455 S
Co490 O491 2.216 . S
Co490 O492 2.091 . S
Co490 O494 2.004 . S
Co490 O500 2.021 . S
Co490 O502 2.137 . S
Co490 O503 2.244 . S
O491 Co490 2.216 . S
O491 C498 1.247 . S
O492 Co490 2.091 . S
O492 C498 1.261 . S
C493 O502 1.247 . S
C493 O503 1.272 . S
O494 Co490 2.004 . S
O494 C499 1.259 . S
Co495 O496 2.061 . S
Co495 O501 2.052 . S
Co495 O503 2.135 . S
O496 Co495 2.061 . S
O496 C499 1.235 . S
C497 O500 1.238 . S
C497 O501 1.241 . S
C498 O491 1.247 . S
C498 O492 1.261 . S
C499 O494 1.259 . S
C499 O496 1.235 . S
O500 Co490 2.021 . S
O500 C497 1.238 . S
O501 Co495 2.052 . S
O501 C497 1.241 . S
O502 Co490 2.137 . S
O502 C493 1.247 . S
O503 Co490 2.244 . S
O503 C493 1.272 . S
O503 Co495 2.135 . S
Co504 O505 2.216 . S
Co504 O506 2.091 . S
Co504 O508 2.004 . S
Co504 O514 2.021 . S
Co504 O516 2.137 . S
Co504 O517 2.244 . S
O505 Co504 2.216 . S
O505 C512 1.247 . S
O506 Co504 2.091 . S
O506 C512 1.261 . S
C507 O516 1.247 . S
C507 O517 1.272 . S
O508 Co504 2.004 . S
O508 C513 1.259 . S
Co509 O510 2.061 . S
Co509 O515 2.052 . S
Co509 O517 2.135 . S
O510 Co509 2.061 . S
O510 C513 1.235 . S
C511 O514 1.238 . S
C511 O515 1.241 . S
C512 O505 1.247 . S
C512 O506 1.261 . S
C513 O508 1.259 . S
C513 O510 1.235 . S
O514 Co504 2.021 . S
O514 C511 1.238 . S
O515 Co509 2.052 . S
O515 C511 1.241 . S
O516 Co504 2.137 . S
O516 C507 1.247 . S
O517 Co504 2.244 . S
O517 C507 1.272 . S
O517 Co509 2.135 . S
Co518 O519 2.216 . S
Co518 O520 2.091 . S
Co518 O522 2.004 . S
Co518 O528 2.021 . S
Co518 O530 2.137 . S
Co518 O531 2.244 . S
O519 Co518 2.216 . S
O519 C526 1.247 . S
O520 Co518 2.091 . S
O520 C526 1.261 . S
C521 O530 1.247 . S
C521 O531 1.272 . S
O522 Co518 2.004 . S
O522 C527 1.259 . S
Co523 O524 2.061 . S
Co523 O529 2.052 . S
Co523 O531 2.135 . S
O524 Co523 2.061 . S
O524 C527 1.235 . S
C525 O528 1.238 . S
C525 O529 1.241 . S
C526 O519 1.247 . S
C526 O520 1.261 . S
C527 O522 1.259 . S
C527 O524 1.235 . S
O528 Co518 2.021 . S
O528 C525 1.238 . S
O529 Co523 2.052 . S
O529 C525 1.241 . S
O530 Co518 2.137 . S
O530 C521 1.247 . S
O531 Co518 2.244 . S
O531 C521 1.272 . S
O531 Co523 2.135 . S
Co532 O533 2.216 . S
Co532 O534 2.091 . S
Co532 O536 2.004 . S
Co532 O542 2.021 . S
Co532 O544 2.137 . S
Co532 O545 2.244 . S
O533 Co532 2.216 . S
O533 C540 1.247 . S
O534 Co532 2.091 . S
O534 C540 1.261 . S
C535 O544 1.247 . S
C535 O545 1.272 . S
O536 Co532 2.004 . S
O536 C541 1.259 . S
Co537 O538 2.061 . S
Co537 O543 2.052 . S
Co537 O545 2.135 . S
O538 Co537 2.061 . S
O538 C541 1.235 . S
C539 O542 1.238 . S
C539 O543 1.241 . S
C540 O533 1.247 . S
C540 O534 1.261 . S
C541 O536 1.259 . S
C541 O538 1.235 . S
O542 Co532 2.021 . S
O542 C539 1.238 . S
O543 Co537 2.052 . S
O543 C539 1.241 . S
O544 Co532 2.137 . S
O544 C535 1.247 . S
O545 Co532 2.244 . S
O545 C535 1.272 . S
O545 Co537 2.135 . S
Co546 O547 2.216 . S
Co546 O548 2.091 . S
Co546 O550 2.004 . S
Co546 O556 2.021 . S
Co546 O558 2.137 . S
Co546 O559 2.244 . S
O547 Co546 2.216 . S
O547 C554 1.247 . S
O548 Co546 2.091 . S
O548 C554 1.261 . S
C549 O558 1.247 . S
C549 O559 1.272 . S
O550 Co546 2.004 . S
O550 C555 1.259 . S
Co551 O552 2.061 . S
Co551 O557 2.052 . S
Co551 O559 2.135 . S
O552 Co551 2.061 . S
O552 C555 1.235 . S
C553 O556 1.238 . S
C553 O557 1.241 . S
C554 O547 1.247 . S
C554 O548 1.261 . S
C555 O550 1.259 . S
C555 O552 1.235 . S
O556 Co546 2.021 . S
O556 C553 1.238 . S
O557 Co551 2.052 . S
O557 C553 1.241 . S
O558 Co546 2.137 . S
O558 C549 1.247 . S
O559 Co546 2.244 . S
O559 C549 1.272 . S
O559 Co551 2.135 . S
Co560 O561 2.216 . S
Co560 O562 2.091 . S
Co560 O564 2.004 . S
Co560 O570 2.021 . S
Co560 O572 2.137 . S
Co560 O573 2.244 . S
O561 Co560 2.216 . S
O561 C568 1.247 . S
O562 Co560 2.091 . S
O562 C568 1.261 . S
C563 O572 1.247 . S
C563 O573 1.272 . S
O564 Co560 2.004 . S
O564 C569 1.259 . S
Co565 O566 2.061 . S
Co565 O571 2.052 . S
Co565 O573 2.135 . S
O566 Co565 2.061 . S
O566 C569 1.235 . S
C567 O570 1.238 . S
C567 O571 1.241 . S
C568 O561 1.247 . S
C568 O562 1.261 . S
C569 O564 1.259 . S
C569 O566 1.235 . S
O570 Co560 2.021 . S
O570 C567 1.238 . S
O571 Co565 2.052 . S
O571 C567 1.241 . S
O572 Co560 2.137 . S
O572 C563 1.247 . S
O573 Co560 2.244 . S
O573 C563 1.272 . S
O573 Co565 2.135 . S
Co574 O575 2.216 . S
Co574 O576 2.091 . S
Co574 O578 2.004 1_565 S
Co574 O584 2.021 . S
Co574 O586 2.137 1_565 S
Co574 O587 2.244 1_565 S
O575 Co574 2.216 . S
O575 C582 1.247 . S
O576 Co574 2.091 . S
O576 C582 1.261 . S
C577 O586 1.247 . S
C577 O587 1.272 . S
O578 Co574 2.004 1_545 S
O578 C583 1.259 . S
Co579 O580 2.061 . S
Co579 O585 2.052 . S
Co579 O587 2.135 . S
O580 Co579 2.061 . S
O580 C583 1.235 . S
C581 O584 1.238 . S
C581 O585 1.241 1_565 S
C582 O575 1.247 . S
C582 O576 1.261 . S
C583 O578 1.259 . S
C583 O580 1.235 . S
O584 Co574 2.021 . S
O584 C581 1.238 . S
O585 Co579 2.052 . S
O585 C581 1.241 1_545 S
O586 Co574 2.137 1_545 S
O586 C577 1.247 . S
O587 Co574 2.244 1_545 S
O587 C577 1.272 . S
O587 Co579 2.135 . S
Co588 O589 2.216 . S
Co588 O590 2.091 . S
Co588 O592 2.004 1_455 S
Co588 O598 2.021 1_455 S
Co588 O600 2.137 . S
Co588 O601 2.244 . S
O589 Co588 2.216 . S
O589 C596 1.247 . S
O590 Co588 2.091 . S
O590 C596 1.261 . S
C591 O600 1.247 . S
C591 O601 1.272 . S
O592 Co588 2.004 1_655 S
O592 C597 1.259 . S
Co593 O594 2.061 . S
Co593 O599 2.052 . S
Co593 O601 2.135 1_655 S
O594 Co593 2.061 . S
O594 C597 1.235 . S
C595 O598 1.238 . S
C595 O599 1.241 . S
C596 O589 1.247 . S
C596 O590 1.261 . S
C597 O592 1.259 . S
C597 O594 1.235 . S
O598 Co588 2.021 1_655 S
O598 C595 1.238 . S
O599 Co593 2.052 . S
O599 C595 1.241 . S
O600 Co588 2.137 . S
O600 C591 1.247 . S
O601 Co588 2.244 . S
O601 C591 1.272 . S
O601 Co593 2.135 1_455 S
Co602 O603 2.216 . S
Co602 O604 2.091 . S
Co602 O606 2.004 . S
Co602 O612 2.021 . S
Co602 O614 2.137 . S
Co602 O615 2.244 . S
O603 Co602 2.216 . S
O603 C610 1.247 . S
O604 Co602 2.091 . S
O604 C610 1.261 . S
C605 O614 1.247 . S
C605 O615 1.272 . S
O606 Co602 2.004 . S
O606 C611 1.259 . S
Co607 O608 2.061 . S
Co607 O613 2.052 . S
Co607 O615 2.135 . S
O608 Co607 2.061 . S
O608 C611 1.235 . S
C609 O612 1.238 . S
C609 O613 1.241 . S
C610 O603 1.247 . S
C610 O604 1.261 . S
C611 O606 1.259 . S
C611 O608 1.235 . S
O612 Co602 2.021 . S
O612 C609 1.238 . S
O613 Co607 2.052 . S
O613 C609 1.241 . S
O614 Co602 2.137 . S
O614 C605 1.247 . S
O615 Co602 2.244 . S
O615 C605 1.272 . S
O615 Co607 2.135 . S
Co616 O617 2.216 . S
Co616 O618 2.091 . S
Co616 O620 2.004 . S
Co616 O626 2.021 . S
Co616 O628 2.137 . S
Co616 O629 2.244 . S
O617 Co616 2.216 . S
O617 C624 1.247 . S
O618 Co616 2.091 . S
O618 C624 1.261 . S
C619 O628 1.247 . S
C619 O629 1.272 . S
O620 Co616 2.004 . S
O620 C625 1.259 . S
Co621 O622 2.061 . S
Co621 O627 2.052 . S
Co621 O629 2.135 . S
O622 Co621 2.061 . S
O622 C625 1.235 . S
C623 O626 1.238 . S
C623 O627 1.241 . S
C624 O617 1.247 . S
C624 O618 1.261 . S
C625 O620 1.259 . S
C625 O622 1.235 . S
O626 Co616 2.021 . S
O626 C623 1.238 . S
O627 Co621 2.052 . S
O627 C623 1.241 . S
O628 Co616 2.137 . S
O628 C619 1.247 . S
O629 Co616 2.244 . S
O629 C619 1.272 . S
O629 Co621 2.135 . S
Co630 O631 2.216 . S
Co630 O632 2.091 . S
Co630 O634 2.004 1_545 S
Co630 O640 2.021 . S
Co630 O642 2.137 1_545 S
Co630 O643 2.244 1_545 S
O631 Co630 2.216 . S
O631 C638 1.247 . S
O632 Co630 2.091 . S
O632 C638 1.261 . S
C633 O642 1.247 . S
C633 O643 1.272 . S
O634 Co630 2.004 1_565 S
O634 C639 1.259 . S
Co635 O636 2.061 . S
Co635 O641 2.052 . S
Co635 O643 2.135 . S
O636 Co635 2.061 . S
O636 C639 1.235 . S
C637 O640 1.238 . S
C637 O641 1.241 1_545 S
C638 O631 1.247 . S
C638 O632 1.261 . S
C639 O634 1.259 . S
C639 O636 1.235 . S
O640 Co630 2.021 . S
O640 C637 1.238 . S
O641 Co635 2.052 . S
O641 C637 1.241 1_565 S
O642 Co630 2.137 1_565 S
O642 C633 1.247 . S
O643 Co630 2.244 1_565 S
O643 C633 1.272 . S
O643 Co635 2.135 . S
Co644 O645 2.216 . S
Co644 O646 2.091 . S
Co644 O648 2.004 . S
Co644 O654 2.021 . S
Co644 O656 2.137 . S
Co644 O657 2.244 . S
O645 Co644 2.216 . S
O645 C652 1.247 . S
O646 Co644 2.091 . S
O646 C652 1.261 . S
C647 O656 1.247 . S
C647 O657 1.272 . S
O648 Co644 2.004 . S
O648 C653 1.259 . S
Co649 O650 2.061 . S
Co649 O655 2.052 . S
Co649 O657 2.135 . S
O650 Co649 2.061 . S
O650 C653 1.235 . S
C651 O654 1.238 . S
C651 O655 1.241 . S
C652 O645 1.247 . S
C652 O646 1.261 . S
C653 O648 1.259 . S
C653 O650 1.235 . S
O654 Co644 2.021 . S
O654 C651 1.238 . S
O655 Co649 2.052 . S
O655 C651 1.241 . S
O656 Co644 2.137 . S
O656 C647 1.247 . S
O657 Co644 2.244 . S
O657 C647 1.272 . S
O657 Co649 2.135 . S
Co658 O659 2.216 . S
Co658 O660 2.091 . S
Co658 O662 2.004 . S
Co658 O668 2.021 . S
Co658 O670 2.137 . S
Co658 O671 2.244 . S
O659 Co658 2.216 . S
O659 C666 1.247 . S
O660 Co658 2.091 . S
O660 C666 1.261 . S
C661 O670 1.247 . S
C661 O671 1.272 . S
O662 Co658 2.004 . S
O662 C667 1.259 . S
Co663 O664 2.061 . S
Co663 O669 2.052 . S
Co663 O671 2.135 . S
O664 Co663 2.061 . S
O664 C667 1.235 . S
C665 O668 1.238 . S
C665 O669 1.241 . S
C666 O659 1.247 . S
C666 O660 1.261 . S
C667 O662 1.259 . S
C667 O664 1.235 . S
O668 Co658 2.021 . S
O668 C665 1.238 . S
O669 Co663 2.052 . S
O669 C665 1.241 . S
O670 Co658 2.137 . S
O670 C661 1.247 . S
O671 Co658 2.244 . S
O671 C661 1.272 . S
O671 Co663 2.135 . S
C672 C673 1.349 . S
C672 C674 1.327 . S
C672 H697 0.950 . S
C673 C672 1.349 . S
C673 C689 1.349 . S
C674 C672 1.327 . S
C674 C693 1.429 . S
C674 H698 0.950 . S
C675 C692 1.574 . S
C675 C694 1.368 . S
C675 H699 0.949 . S
H676 C680 0.949 . S
C677 C678 1.349 . S
C677 C679 1.327 . S
C677 H700 0.950 . S
C678 C677 1.349 . S
C678 C690 1.349 . S
C679 C677 1.327 . S
C679 C695 1.429 . S
C679 H701 0.950 . S
C680 H676 0.949 . S
C680 C688 1.574 . S
C680 C696 1.368 . S
H681 C689 0.950 . S
H682 C687 0.950 . S
H683 C688 0.949 . S
H684 C690 0.950 . S
H685 C691 0.950 . S
H686 C692 0.949 . S
C687 H682 0.950 . S
C687 C689 1.327 . S
C687 C693 1.429 . S
C688 C680 1.574 . S
C688 H683 0.949 . S
C688 C694 1.368 . S
C689 C673 1.349 . S
C689 H681 0.950 . S
C689 C687 1.327 . S
C690 C678 1.349 . S
C690 H684 0.950 . S
C690 C691 1.327 . S
C691 H685 0.950 . S
C691 C690 1.327 . S
C691 C695 1.429 . S
C692 C675 1.574 . S
C692 H686 0.949 . S
C692 C696 1.368 . S
C693 C674 1.429 . S
C693 C687 1.429 . S
C693 C694 1.523 . S
C694 C675 1.368 . S
C694 C688 1.368 . S
C694 C693 1.523 . S
C695 C679 1.429 . S
C695 C691 1.429 . S
C695 C696 1.523 . S
C696 C680 1.368 . S
C696 C692 1.368 . S
C696 C695 1.523 . S
H697 C672 0.950 . S
H698 C674 0.950 . S
H699 C675 0.949 . S
H700 C677 0.950 . S
H701 C679 0.950 . S
C702 C703 1.349 . S
C702 C704 1.327 . S
C702 H727 0.950 . S
C703 C702 1.349 . S
C703 C719 1.349 . S
C704 C702 1.327 . S
C704 C723 1.429 . S
C704 H728 0.950 . S
C705 C722 1.574 . S
C705 C724 1.368 . S
C705 H729 0.949 . S
H706 C710 0.949 . S
C707 C708 1.349 . S
C707 C709 1.327 . S
C707 H730 0.950 . S
C708 C707 1.349 . S
C708 C720 1.349 . S
C709 C707 1.327 . S
C709 C725 1.429 . S
C709 H731 0.950 . S
C710 H706 0.949 . S
C710 C718 1.574 . S
C710 C726 1.368 . S
H711 C719 0.950 . S
H712 C717 0.950 . S
H713 C718 0.949 . S
H714 C720 0.950 . S
H715 C721 0.950 . S
H716 C722 0.949 . S
C717 H712 0.950 . S
C717 C719 1.327 . S
C717 C723 1.429 . S
C718 C710 1.574 . S
C718 H713 0.949 . S
C718 C724 1.368 . S
C719 C703 1.349 . S
C719 H711 0.950 . S
C719 C717 1.327 . S
C720 C708 1.349 . S
C720 H714 0.950 . S
C720 C721 1.327 . S
C721 H715 0.950 . S
C721 C720 1.327 . S
C721 C725 1.429 . S
C722 C705 1.574 . S
C722 H716 0.949 . S
C722 C726 1.368 . S
C723 C704 1.429 . S
C723 C717 1.429 . S
C723 C724 1.523 . S
C724 C705 1.368 . S
C724 C718 1.368 . S
C724 C723 1.523 . S
C725 C709 1.429 . S
C725 C721 1.429 . S
C725 C726 1.523 . S
C726 C710 1.368 . S
C726 C722 1.368 . S
C726 C725 1.523 . S
H727 C702 0.950 . S
H728 C704 0.950 . S
H729 C705 0.949 . S
H730 C707 0.950 . S
H731 C709 0.950 . S
C732 C733 1.349 . S
C732 C734 1.327 . S
C732 H757 0.950 1_545 S
C733 C732 1.349 . S
C733 C749 1.349 . S
C734 C732 1.327 . S
C734 C753 1.429 . S
C734 H758 0.950 1_545 S
C735 C752 1.574 . S
C735 C754 1.368 . S
C735 H759 0.949 . S
H736 C740 0.971 . S
C737 C738 1.349 . S
C737 C739 1.327 . S
C737 H760 0.950 . S
C738 C737 1.349 . S
C738 C750 1.349 1_545 S
C739 C737 1.327 . S
C739 C755 1.429 . S
C739 H761 0.950 . S
C740 H736 0.971 . S
C740 C748 1.572 1_565 S
C740 C756 1.346 1_565 S
H741 C749 0.950 . S
H742 C747 0.950 . S
H743 C748 0.914 1_565 S
H744 C750 0.950 . S
H745 C751 0.950 . S
H746 C752 0.949 . S
C747 H742 0.950 . S
C747 C749 1.327 . S
C747 C753 1.429 . S
C748 C740 1.572 1_545 S
C748 H743 0.914 1_545 S
C748 C754 1.411 . S
C749 C733 1.349 . S
C749 H741 0.950 . S
C749 C747 1.327 . S
C750 C738 1.349 1_565 S
C750 H744 0.950 . S
C750 C751 1.327 . S
C751 H745 0.950 . S
C751 C750 1.327 . S
C751 C755 1.429 1_565 S
C752 C735 1.574 . S
C752 H746 0.949 . S
C752 C756 1.368 . S
C753 C734 1.429 . S
C753 C747 1.429 . S
C753 C754 1.523 . S
C754 C735 1.368 . S
C754 C748 1.411 . S
C754 C753 1.523 . S
C755 C739 1.429 . S
C755 C751 1.429 1_545 S
C755 C756 1.523 . S
C756 C740 1.346 1_545 S
C756 C752 1.368 . S
C756 C755 1.523 . S
H757 C732 0.950 1_565 S
H758 C734 0.950 1_565 S
H759 C735 0.949 . S
H760 C737 0.950 . S
H761 C739 0.950 . S
C762 C763 1.349 . S
C762 C764 1.327 . S
C762 H787 0.950 . S
C763 C762 1.349 . S
C763 C779 1.349 . S
C764 C762 1.327 . S
C764 C783 1.429 . S
C764 H788 0.950 . S
C765 C782 1.574 . S
C765 C784 1.368 . S
C765 H789 0.949 . S
H766 C770 0.949 . S
C767 C768 1.349 . S
C767 C769 1.327 . S
C767 H790 0.950 . S
C768 C767 1.349 . S
C768 C780 1.349 . S
C769 C767 1.327 . S
C769 C785 1.429 . S
C769 H791 0.950 . S
C770 H766 0.949 . S
C770 C778 1.574 . S
C770 C786 1.368 . S
H771 C779 0.950 . S
H772 C777 0.950 . S
H773 C778 0.949 . S
H774 C780 0.950 . S
H775 C781 0.950 . S
H776 C782 0.949 . S
C777 H772 0.950 . S
C777 C779 1.327 . S
C777 C783 1.429 . S
C778 C770 1.574 . S
C778 H773 0.949 . S
C778 C784 1.368 . S
C779 C763 1.349 . S
C779 H771 0.950 . S
C779 C777 1.327 . S
C780 C768 1.349 . S
C780 H774 0.950 . S
C780 C781 1.327 . S
C781 H775 0.950 . S
C781 C780 1.327 . S
C781 C785 1.429 . S
C782 C765 1.574 . S
C782 H776 0.949 . S
C782 C786 1.368 . S
C783 C764 1.429 . S
C783 C777 1.429 . S
C783 C784 1.523 . S
C784 C765 1.368 . S
C784 C778 1.368 . S
C784 C783 1.523 . S
C785 C769 1.429 . S
C785 C781 1.429 . S
C785 C786 1.523 . S
C786 C770 1.368 . S
C786 C782 1.368 . S
C786 C785 1.523 . S
H787 C762 0.950 . S
H788 C764 0.950 . S
H789 C765 0.949 . S
H790 C767 0.950 . S
H791 C769 0.950 . S
C792 C793 1.349 . S
C792 C794 1.327 . S
C792 H817 0.950 . S
C793 C792 1.349 . S
C793 C809 1.349 . S
C794 C792 1.327 . S
C794 C813 1.429 . S
C794 H818 0.950 . S
C795 C812 1.574 . S
C795 C814 1.368 . S
C795 H819 0.949 . S
H796 C800 0.949 . S
C797 C798 1.349 . S
C797 C799 1.327 . S
C797 H820 0.950 . S
C798 C797 1.349 . S
C798 C810 1.349 . S
C799 C797 1.327 . S
C799 C815 1.429 . S
C799 H821 0.950 . S
C800 H796 0.949 . S
C800 C808 1.574 . S
C800 C816 1.368 . S
H801 C809 0.950 . S
H802 C807 0.950 . S
H803 C808 0.949 . S
H804 C810 0.950 . S
H805 C811 0.950 . S
H806 C812 0.949 . S
C807 H802 0.950 . S
C807 C809 1.327 . S
C807 C813 1.429 . S
C808 C800 1.574 . S
C808 H803 0.949 . S
C808 C814 1.368 . S
C809 C793 1.349 . S
C809 H801 0.950 . S
C809 C807 1.327 . S
C810 C798 1.349 . S
C810 H804 0.950 . S
C810 C811 1.327 . S
C811 H805 0.950 . S
C811 C810 1.327 . S
C811 C815 1.429 . S
C812 C795 1.574 . S
C812 H806 0.949 . S
C812 C816 1.368 . S
C813 C794 1.429 . S
C813 C807 1.429 . S
C813 C814 1.523 . S
C814 C795 1.368 . S
C814 C808 1.368 . S
C814 C813 1.523 . S
C815 C799 1.429 . S
C815 C811 1.429 . S
C815 C816 1.523 . S
C816 C800 1.368 . S
C816 C812 1.368 . S
C816 C815 1.523 . S
H817 C792 0.950 . S
H818 C794 0.950 . S
H819 C795 0.949 . S
H820 C797 0.950 . S
H821 C799 0.950 . S
C822 C823 1.349 . S
C822 C824 1.327 . S
C822 H847 0.970 . S
C823 C822 1.349 . S
C823 C839 1.349 . S
C824 C822 1.327 . S
C824 C843 1.429 . S
C824 H848 0.950 . S
C825 C842 1.574 . S
C825 C844 1.368 . S
C825 H849 0.949 . S
H826 C830 0.949 . S
C827 C828 1.349 . S
C827 C829 1.327 . S
C827 H850 0.950 . S
C828 C827 1.349 . S
C828 C840 1.349 . S
C829 C827 1.327 . S
C829 C845 1.429 . S
C829 H851 0.950 . S
C830 H826 0.949 . S
C830 C838 1.574 . S
C830 C846 1.368 . S
H831 C839 0.950 . S
H832 C837 0.950 . S
H833 C838 0.949 . S
H834 C840 0.950 . S
H835 C841 0.950 . S
H836 C842 0.949 . S
C837 H832 0.950 . S
C837 C839 1.327 . S
C837 C843 1.429 . S
C838 C830 1.574 . S
C838 H833 0.949 . S
C838 C844 1.368 . S
C839 C823 1.349 . S
C839 H831 0.950 . S
C839 C837 1.327 . S
C840 C828 1.349 . S
C840 H834 0.950 . S
C840 C841 1.327 . S
C841 H835 0.950 . S
C841 C840 1.327 . S
C841 C845 1.429 . S
C842 C825 1.574 . S
C842 H836 0.949 . S
C842 C846 1.368 . S
C843 C824 1.429 . S
C843 C837 1.429 . S
C843 C844 1.523 . S
C844 C825 1.368 . S
C844 C838 1.368 . S
C844 C843 1.523 . S
C845 C829 1.429 . S
C845 C841 1.429 . S
C845 C846 1.523 . S
C846 C830 1.368 . S
C846 C842 1.368 . S
C846 C845 1.523 . S
H847 C822 0.970 . S
H848 C824 0.950 . S
H849 C825 0.949 . S
H850 C827 0.950 . S
H851 C829 0.950 . S
C852 C853 1.349 . S
C852 C854 1.327 . S
C852 H877 0.950 . S
C853 C852 1.349 . S
C853 C869 1.349 . S
C854 C852 1.327 . S
C854 C873 1.429 . S
C854 H878 0.950 . S
C855 C872 1.574 . S
C855 C874 1.368 . S
C855 H879 0.949 . S
H856 C860 0.949 . S
C857 C858 1.349 . S
C857 C859 1.327 . S
C857 H880 0.950 . S
C858 C857 1.349 . S
C858 C870 1.349 . S
C859 C857 1.327 . S
C859 C875 1.429 . S
C859 H881 0.950 . S
C860 H856 0.949 . S
C860 C868 1.574 . S
C860 C876 1.368 . S
H861 C869 0.950 . S
H862 C867 0.950 . S
H863 C868 0.949 . S
H864 C870 0.950 . S
H865 C871 0.950 . S
H866 C872 0.949 . S
C867 H862 0.950 . S
C867 C869 1.327 . S
C867 C873 1.429 . S
C868 C860 1.574 . S
C868 H863 0.949 . S
C868 C874 1.368 . S
C869 C853 1.349 . S
C869 H861 0.950 . S
C869 C867 1.327 . S
C870 C858 1.349 . S
C870 H864 0.950 . S
C870 C871 1.327 . S
C871 H865 0.950 . S
C871 C870 1.327 . S
C871 C875 1.429 . S
C872 C855 1.574 . S
C872 H866 0.949 . S
C872 C876 1.368 . S
C873 C854 1.429 . S
C873 C867 1.429 . S
C873 C874 1.523 . S
C874 C855 1.368 . S
C874 C868 1.368 . S
C874 C873 1.523 . S
C875 C859 1.429 . S
C875 C871 1.429 . S
C875 C876 1.523 . S
C876 C860 1.368 . S
C876 C872 1.368 . S
C876 C875 1.523 . S
H877 C852 0.950 . S
H878 C854 0.950 . S
H879 C855 0.949 . S
H880 C857 0.950 . S
H881 C859 0.950 . S
C882 C883 1.349 . S
C882 C884 1.327 . S
C882 H907 0.950 . S
C883 C882 1.349 . S
C883 C899 1.349 1_565 S
C884 C882 1.327 . S
C884 C903 1.429 . S
C884 H908 0.950 . S
C885 C902 1.573 1_545 S
C885 C904 1.368 1_545 S
C885 H909 0.949 . S
H886 C890 0.949 . S
C887 C888 1.349 . S
C887 C889 1.327 . S
C887 H910 0.950 1_565 S
C888 C887 1.349 . S
C888 C900 1.349 . S
C889 C887 1.327 . S
C889 C905 1.429 . S
C889 H911 0.950 1_565 S
C890 H886 0.949 . S
C890 C898 1.574 . S
C890 C906 1.368 . S
H891 C899 0.950 . S
H892 C897 0.950 . S
H893 C898 0.949 . S
H894 C900 0.950 . S
H895 C901 0.950 . S
H896 C902 0.941 1_545 S
C897 H892 0.950 . S
C897 C899 1.327 . S
C897 C903 1.429 1_545 S
C898 C890 1.574 . S
C898 H893 0.949 . S
C898 C904 1.368 . S
C899 C883 1.349 1_545 S
C899 H891 0.950 . S
C899 C897 1.327 . S
C900 C888 1.349 . S
C900 H894 0.950 . S
C900 C901 1.327 . S
C901 H895 0.950 . S
C901 C900 1.327 . S
C901 C905 1.429 . S
C902 C885 1.573 1_565 S
C902 H896 0.941 1_565 S
C902 C906 1.378 . S
C903 C884 1.429 . S
C903 C897 1.429 1_565 S
C903 C904 1.523 . S
C904 C885 1.368 1_565 S
C904 C898 1.368 . S
C904 C903 1.523 . S
C905 C889 1.429 . S
C905 C901 1.429 . S
C905 C906 1.523 . S
C906 C890 1.368 . S
C906 C902 1.378 . S
C906 C905 1.523 . S
H907 C882 0.950 . S
H908 C884 0.950 . S
H909 C885 0.949 . S
H910 C887 0.950 1_545 S
H911 C889 0.950 1_545 S
C912 C913 1.349 . S
C912 C914 1.327 . S
C912 H937 0.950 . S
C913 C912 1.349 . S
C913 C929 1.349 . S
C914 C912 1.327 . S
C914 C933 1.429 . S
C914 H938 0.950 . S
C915 C932 1.574 . S
C915 C934 1.368 . S
C915 H939 0.949 . S
H916 C920 0.949 . S
C917 C918 1.349 . S
C917 C919 1.327 . S
C917 H940 0.950 . S
C918 C917 1.349 . S
C918 C930 1.349 . S
C919 C917 1.327 . S
C919 C935 1.429 . S
C919 H941 0.950 . S
C920 H916 0.949 . S
C920 C928 1.574 . S
C920 C936 1.368 . S
H921 C929 0.950 . S
H922 C927 0.950 . S
H923 C928 0.949 . S
H924 C930 0.950 . S
H925 C931 0.950 . S
H926 C932 0.949 . S
C927 H922 0.950 . S
C927 C929 1.327 . S
C927 C933 1.429 . S
C928 C920 1.574 . S
C928 H923 0.949 . S
C928 C934 1.368 . S
C929 C913 1.349 . S
C929 H921 0.950 . S
C929 C927 1.327 . S
C930 C918 1.349 . S
C930 H924 0.950 . S
C930 C931 1.327 . S
C931 H925 0.950 . S
C931 C930 1.327 . S
C931 C935 1.429 . S
C932 C915 1.574 . S
C932 H926 0.949 . S
C932 C936 1.368 . S
C933 C914 1.429 . S
C933 C927 1.429 . S
C933 C934 1.523 . S
C934 C915 1.368 . S
C934 C928 1.368 . S
C934 C933 1.523 . S
C935 C919 1.429 . S
C935 C931 1.429 . S
C935 C936 1.523 . S
C936 C920 1.368 . S
C936 C932 1.368 . S
C936 C935 1.523 . S
H937 C912 0.950 . S
H938 C914 0.950 . S
H939 C915 0.949 . S
H940 C917 0.950 . S
H941 C919 0.950 . S
C942 C943 1.349 . S
C942 C944 1.327 . S
C942 H967 0.950 . S
C943 C942 1.349 . S
C943 C959 1.349 . S
C944 C942 1.327 . S
C944 C963 1.429 . S
C944 H968 0.950 . S
C945 C962 1.574 . S
C945 C964 1.368 . S
C945 H969 0.949 . S
H946 C950 0.949 . S
C947 C948 1.349 . S
C947 C949 1.327 . S
C947 H970 0.950 . S
C948 C947 1.349 . S
C948 C960 1.349 . S
C949 C947 1.327 . S
C949 C965 1.429 . S
C949 H971 0.950 . S
C950 H946 0.949 . S
C950 C958 1.574 . S
C950 C966 1.368 . S
H951 C959 0.950 . S
H952 C957 0.950 . S
H953 C958 0.949 . S
H954 C960 0.950 . S
H955 C961 0.950 . S
H956 C962 0.949 . S
C957 H952 0.950 . S
C957 C959 1.327 . S
C957 C963 1.429 . S
C958 C950 1.574 . S
C958 H953 0.949 . S
C958 C964 1.368 . S
C959 C943 1.349 . S
C959 H951 0.950 . S
C959 C957 1.327 . S
C960 C948 1.349 . S
C960 H954 0.950 . S
C960 C961 1.327 . S
C961 H955 0.950 . S
C961 C960 1.327 . S
C961 C965 1.429 . S
C962 C945 1.574 . S
C962 H956 0.949 . S
C962 C966 1.368 . S
C963 C944 1.429 . S
C963 C957 1.429 . S
C963 C964 1.523 . S
C964 C945 1.368 . S
C964 C958 1.368 . S
C964 C963 1.523 . S
C965 C949 1.429 . S
C965 C961 1.429 . S
C965 C966 1.523 . S
C966 C950 1.368 . S
C966 C962 1.368 . S
C966 C965 1.523 . S
H967 C942 0.950 . S
H968 C944 0.950 . S
H969 C945 0.949 . S
H970 C947 0.950 . S
H971 C949 0.950 . S
C972 C973 1.345 1_556 S
C972 C974 1.315 1_556 S
C972 H997 0.966 . S
C973 C972 1.345 1_554 S
C973 C989 1.349 . S
C974 C972 1.315 1_554 S
C974 C993 1.429 . S
C974 H998 0.950 . S
C975 C992 1.574 . S
C975 C994 1.368 . S
C975 H999 0.949 . S
H976 C980 0.949 . S
C977 C978 1.349 . S
C977 C979 1.327 . S
C977 H1000 0.950 . S
C978 C977 1.349 . S
C978 C990 1.349 . S
C979 C977 1.327 . S
C979 C995 1.429 . S
C979 H1001 0.950 . S
C980 H976 0.949 . S
C980 C988 1.574 . S
C980 C996 1.368 . S
H981 C989 0.950 . S
H982 C987 0.950 . S
H983 C988 0.949 . S
H984 C990 0.950 . S
H985 C991 0.950 . S
H986 C992 0.949 . S
C987 H982 0.950 . S
C987 C989 1.327 . S
C987 C993 1.429 . S
C988 C980 1.574 . S
C988 H983 0.949 . S
C988 C994 1.368 . S
C989 C973 1.349 . S
C989 H981 0.950 . S
C989 C987 1.327 . S
C990 C978 1.349 . S
C990 H984 0.950 . S
C990 C991 1.327 . S
C991 H985 0.950 . S
C991 C990 1.327 . S
C991 C995 1.429 . S
C992 C975 1.574 . S
C992 H986 0.949 . S
C992 C996 1.368 . S
C993 C974 1.429 . S
C993 C987 1.429 . S
C993 C994 1.523 . S
C994 C975 1.368 . S
C994 C988 1.368 . S
C994 C993 1.523 . S
C995 C979 1.429 . S
C995 C991 1.429 . S
C995 C996 1.523 . S
C996 C980 1.368 . S
C996 C992 1.368 . S
C996 C995 1.523 . S
H997 C972 0.966 . S
H998 C974 0.950 . S
H999 C975 0.949 . S
H1000 C977 0.950 . S
H1001 C979 0.950 . S
C1002 C1003 1.349 . S
C1002 C1004 1.327 . S
C1002 H1027 0.950 . S
C1003 C1002 1.349 . S
C1003 C1019 1.349 . S
C1004 C1002 1.327 . S
C1004 C1023 1.429 . S
C1004 H1028 0.950 . S
C1005 C1022 1.574 . S
C1005 C1024 1.368 . S
C1005 H1029 0.949 . S
H1006 C1010 0.949 . S
C1007 C1008 1.349 . S
C1007 C1009 1.327 . S
C1007 H1030 0.950 . S
C1008 C1007 1.349 . S
C1008 C1020 1.349 . S
C1009 C1007 1.327 . S
C1009 C1025 1.429 . S
C1009 H1031 0.950 . S
C1010 H1006 0.949 . S
C1010 C1018 1.574 . S
C1010 C1026 1.368 . S
H1011 C1019 0.950 . S
H1012 C1017 0.950 . S
H1013 C1018 0.949 . S
H1014 C1020 0.950 . S
H1015 C1021 0.950 . S
H1016 C1022 0.949 . S
C1017 H1012 0.950 . S
C1017 C1019 1.327 . S
C1017 C1023 1.429 . S
C1018 C1010 1.574 . S
C1018 H1013 0.949 . S
C1018 C1024 1.368 . S
C1019 C1003 1.349 . S
C1019 H1011 0.950 . S
C1019 C1017 1.327 . S
C1020 C1008 1.349 . S
C1020 H1014 0.950 . S
C1020 C1021 1.327 . S
C1021 H1015 0.950 . S
C1021 C1020 1.327 . S
C1021 C1025 1.429 . S
C1022 C1005 1.574 . S
C1022 H1016 0.949 . S
C1022 C1026 1.368 . S
C1023 C1004 1.429 . S
C1023 C1017 1.429 . S
C1023 C1024 1.523 . S
C1024 C1005 1.368 . S
C1024 C1018 1.368 . S
C1024 C1023 1.523 . S
C1025 C1009 1.429 . S
C1025 C1021 1.429 . S
C1025 C1026 1.523 . S
C1026 C1010 1.368 . S
C1026 C1022 1.368 . S
C1026 C1025 1.523 . S
H1027 C1002 0.950 . S
H1028 C1004 0.950 . S
H1029 C1005 0.949 . S
H1030 C1007 0.950 . S
H1031 C1009 0.950 . S
C1032 C1033 1.349 . S
C1032 C1034 1.327 . S
C1032 H1057 0.950 . S
C1033 C1032 1.349 . S
C1033 C1049 1.349 . S
C1034 C1032 1.327 . S
C1034 C1053 1.429 . S
C1034 H1058 0.950 . S
C1035 C1052 1.574 . S
C1035 C1054 1.368 . S
C1035 H1059 0.949 . S
H1036 C1040 0.949 . S
C1037 C1038 1.349 . S
C1037 C1039 1.327 . S
C1037 H1060 0.950 . S
C1038 C1037 1.349 . S
C1038 C1050 1.349 . S
C1039 C1037 1.327 . S
C1039 C1055 1.429 . S
C1039 H1061 0.950 . S
C1040 H1036 0.949 . S
C1040 C1048 1.574 . S
C1040 C1056 1.368 . S
H1041 C1049 0.950 . S
H1042 C1047 0.950 . S
H1043 C1048 0.949 . S
H1044 C1050 0.950 . S
H1045 C1051 0.950 . S
H1046 C1052 0.949 . S
C1047 H1042 0.950 . S
C1047 C1049 1.327 . S
C1047 C1053 1.429 . S
C1048 C1040 1.574 . S
C1048 H1043 0.949 . S
C1048 C1054 1.368 . S
C1049 C1033 1.349 . S
C1049 H1041 0.950 . S
C1049 C1047 1.327 . S
C1050 C1038 1.349 . S
C1050 H1044 0.950 . S
C1050 C1051 1.327 . S
C1051 H1045 0.950 . S
C1051 C1050 1.327 . S
C1051 C1055 1.429 . S
C1052 C1035 1.574 . S
C1052 H1046 0.949 . S
C1052 C1056 1.368 . S
C1053 C1034 1.429 . S
C1053 C1047 1.429 . S
C1053 C1054 1.523 . S
C1054 C1035 1.368 . S
C1054 C1048 1.368 . S
C1054 C1053 1.523 . S
C1055 C1039 1.429 . S
C1055 C1051 1.429 . S
C1055 C1056 1.523 . S
C1056 C1040 1.368 . S
C1056 C1052 1.368 . S
C1056 C1055 1.523 . S
H1057 C1032 0.950 . S
H1058 C1034 0.950 . S
H1059 C1035 0.949 . S
H1060 C1037 0.950 . S
H1061 C1039 0.950 . S
C1062 C1063 1.349 . S
C1062 C1064 1.327 . S
C1062 H1087 0.950 . S
C1063 C1062 1.349 . S
C1063 C1079 1.349 . S
C1064 C1062 1.327 . S
C1064 C1083 1.429 . S
C1064 H1088 0.950 . S
C1065 C1082 1.574 . S
C1065 C1084 1.368 . S
C1065 H1089 0.949 . S
H1066 C1070 0.949 . S
C1067 C1068 1.349 . S
C1067 C1069 1.327 . S
C1067 H1090 0.950 . S
C1068 C1067 1.349 . S
C1068 C1080 1.349 . S
C1069 C1067 1.327 . S
C1069 C1085 1.429 . S
C1069 H1091 0.950 . S
C1070 H1066 0.949 . S
C1070 C1078 1.574 . S
C1070 C1086 1.368 . S
H1071 C1079 0.950 . S
H1072 C1077 0.950 . S
H1073 C1078 0.949 . S
H1074 C1080 0.950 . S
H1075 C1081 0.950 . S
H1076 C1082 0.949 . S
C1077 H1072 0.950 . S
C1077 C1079 1.327 . S
C1077 C1083 1.429 . S
C1078 C1070 1.574 . S
C1078 H1073 0.949 . S
C1078 C1084 1.368 . S
C1079 C1063 1.349 . S
C1079 H1071 0.950 . S
C1079 C1077 1.327 . S
C1080 C1068 1.349 . S
C1080 H1074 0.950 . S
C1080 C1081 1.327 . S
C1081 H1075 0.950 . S
C1081 C1080 1.327 . S
C1081 C1085 1.429 . S
C1082 C1065 1.574 . S
C1082 H1076 0.949 . S
C1082 C1086 1.368 . S
C1083 C1064 1.429 . S
C1083 C1077 1.429 . S
C1083 C1084 1.523 . S
C1084 C1065 1.368 . S
C1084 C1078 1.368 . S
C1084 C1083 1.523 . S
C1085 C1069 1.429 . S
C1085 C1081 1.429 . S
C1085 C1086 1.523 . S
C1086 C1070 1.368 . S
C1086 C1082 1.368 . S
C1086 C1085 1.523 . S
H1087 C1062 0.950 . S
H1088 C1064 0.950 . S
H1089 C1065 0.949 . S
H1090 C1067 0.950 . S
H1091 C1069 0.950 . S
C1092 C1093 1.349 . S
C1092 C1094 1.327 . S
C1092 H1117 0.950 . S
C1093 C1092 1.349 . S
C1093 C1109 1.349 . S
C1094 C1092 1.327 . S
C1094 C1113 1.429 . S
C1094 H1118 0.950 . S
C1095 C1112 1.574 . S
C1095 C1114 1.368 . S
C1095 H1119 0.949 . S
H1096 C1100 0.949 . S
C1097 C1098 1.349 . S
C1097 C1099 1.327 . S
C1097 H1120 0.950 . S
C1098 C1097 1.349 . S
C1098 C1110 1.349 . S
C1099 C1097 1.327 . S
C1099 C1115 1.429 . S
C1099 H1121 0.950 . S
C1100 H1096 0.949 . S
C1100 C1108 1.574 . S
C1100 C1116 1.368 . S
H1101 C1109 0.950 . S
H1102 C1107 0.950 . S
H1103 C1108 0.949 . S
H1104 C1110 0.950 . S
H1105 C1111 0.950 . S
H1106 C1112 0.949 . S
C1107 H1102 0.950 . S
C1107 C1109 1.327 . S
C1107 C1113 1.429 . S
C1108 C1100 1.574 . S
C1108 H1103 0.949 . S
C1108 C1114 1.368 . S
C1109 C1093 1.349 . S
C1109 H1101 0.950 . S
C1109 C1107 1.327 . S
C1110 C1098 1.349 . S
C1110 H1104 0.950 . S
C1110 C1111 1.327 . S
C1111 H1105 0.950 . S
C1111 C1110 1.327 . S
C1111 C1115 1.429 . S
C1112 C1095 1.574 . S
C1112 H1106 0.949 . S
C1112 C1116 1.368 . S
C1113 C1094 1.429 . S
C1113 C1107 1.429 . S
C1113 C1114 1.523 . S
C1114 C1095 1.368 . S
C1114 C1108 1.368 . S
C1114 C1113 1.523 . S
C1115 C1099 1.429 . S
C1115 C1111 1.429 . S
C1115 C1116 1.523 . S
C1116 C1100 1.368 . S
C1116 C1112 1.368 . S
C1116 C1115 1.523 . S
H1117 C1092 0.950 . S
H1118 C1094 0.950 . S
H1119 C1095 0.949 . S
H1120 C1097 0.950 . S
H1121 C1099 0.950 . S
C1122 C1123 1.349 . S
C1122 C1124 1.327 . S
C1122 H1147 0.950 . S
C1123 C1122 1.349 . S
C1123 C1139 1.349 . S
C1124 C1122 1.327 . S
C1124 C1143 1.429 . S
C1124 H1148 0.950 . S
C1125 C1142 1.574 . S
C1125 C1144 1.368 . S
C1125 H1149 0.949 . S
H1126 C1130 0.949 . S
C1127 C1128 1.349 . S
C1127 C1129 1.327 . S
C1127 H1150 0.950 . S
C1128 C1127 1.349 . S
C1128 C1140 1.349 . S
C1129 C1127 1.327 . S
C1129 C1145 1.429 . S
C1129 H1151 0.950 . S
C1130 H1126 0.949 . S
C1130 C1138 1.574 . S
C1130 C1146 1.368 . S
H1131 C1139 0.950 . S
H1132 C1137 0.950 . S
H1133 C1138 0.949 . S
H1134 C1140 0.950 . S
H1135 C1141 0.950 . S
H1136 C1142 0.949 . S
C1137 H1132 0.950 . S
C1137 C1139 1.327 . S
C1137 C1143 1.429 . S
C1138 C1130 1.574 . S
C1138 H1133 0.949 . S
C1138 C1144 1.368 . S
C1139 C1123 1.349 . S
C1139 H1131 0.950 . S
C1139 C1137 1.327 . S
C1140 C1128 1.349 . S
C1140 H1134 0.950 . S
C1140 C1141 1.327 . S
C1141 H1135 0.950 . S
C1141 C1140 1.327 . S
C1141 C1145 1.429 . S
C1142 C1125 1.574 . S
C1142 H1136 0.949 . S
C1142 C1146 1.368 . S
C1143 C1124 1.429 . S
C1143 C1137 1.429 . S
C1143 C1144 1.523 . S
C1144 C1125 1.368 . S
C1144 C1138 1.368 . S
C1144 C1143 1.523 . S
C1145 C1129 1.429 . S
C1145 C1141 1.429 . S
C1145 C1146 1.523 . S
C1146 C1130 1.368 . S
C1146 C1142 1.368 . S
C1146 C1145 1.523 . S
H1147 C1122 0.950 . S
H1148 C1124 0.950 . S
H1149 C1125 0.949 . S
H1150 C1127 0.950 . S
H1151 C1129 0.950 . S
C1152 C1153 1.349 . S
C1152 C1154 1.327 . S
C1152 H1177 0.950 . S
C1153 C1152 1.349 . S
C1153 C1169 1.349 . S
C1154 C1152 1.327 . S
C1154 C1173 1.429 . S
C1154 H1178 0.950 . S
C1155 C1172 1.574 . S
C1155 C1174 1.368 . S
C1155 H1179 0.949 . S
H1156 C1160 0.949 . S
C1157 C1158 1.349 . S
C1157 C1159 1.327 . S
C1157 H1180 0.950 . S
C1158 C1157 1.349 . S
C1158 C1170 1.349 . S
C1159 C1157 1.327 . S
C1159 C1175 1.429 . S
C1159 H1181 0.950 . S
C1160 H1156 0.949 . S
C1160 C1168 1.574 . S
C1160 C1176 1.368 . S
H1161 C1169 0.950 . S
H1162 C1167 0.950 . S
H1163 C1168 0.949 . S
H1164 C1170 0.950 . S
H1165 C1171 0.950 . S
H1166 C1172 0.949 . S
C1167 H1162 0.950 . S
C1167 C1169 1.327 . S
C1167 C1173 1.429 . S
C1168 C1160 1.574 . S
C1168 H1163 0.949 . S
C1168 C1174 1.368 . S
C1169 C1153 1.349 . S
C1169 H1161 0.950 . S
C1169 C1167 1.327 . S
C1170 C1158 1.349 . S
C1170 H1164 0.950 . S
C1170 C1171 1.327 . S
C1171 H1165 0.950 . S
C1171 C1170 1.327 . S
C1171 C1175 1.429 . S
C1172 C1155 1.574 . S
C1172 H1166 0.949 . S
C1172 C1176 1.368 . S
C1173 C1154 1.429 . S
C1173 C1167 1.429 . S
C1173 C1174 1.523 . S
C1174 C1155 1.368 . S
C1174 C1168 1.368 . S
C1174 C1173 1.523 . S
C1175 C1159 1.429 . S
C1175 C1171 1.429 . S
C1175 C1176 1.523 . S
C1176 C1160 1.368 . S
C1176 C1172 1.368 . S
C1176 C1175 1.523 . S
H1177 C1152 0.950 . S
H1178 C1154 0.950 . S
H1179 C1155 0.949 . S
H1180 C1157 0.950 . S
H1181 C1159 0.950 . S
C1182 C1183 1.349 . S
C1182 C1184 1.327 . S
C1182 H1207 0.950 . S
C1183 C1182 1.349 . S
C1183 C1199 1.349 . S
C1184 C1182 1.327 . S
C1184 C1203 1.429 . S
C1184 H1208 0.950 . S
C1185 C1202 1.574 . S
C1185 C1204 1.368 . S
C1185 H1209 0.949 . S
H1186 C1190 0.949 . S
C1187 C1188 1.349 . S
C1187 C1189 1.327 . S
C1187 H1210 0.950 . S
C1188 C1187 1.349 . S
C1188 C1200 1.349 . S
C1189 C1187 1.327 . S
C1189 C1205 1.429 . S
C1189 H1211 0.950 . S
C1190 H1186 0.949 . S
C1190 C1198 1.574 . S
C1190 C1206 1.368 . S
H1191 C1199 0.950 . S
H1192 C1197 0.950 . S
H1193 C1198 0.949 . S
H1194 C1200 0.950 . S
H1195 C1201 0.950 . S
H1196 C1202 0.949 . S
C1197 H1192 0.950 . S
C1197 C1199 1.327 . S
C1197 C1203 1.429 . S
C1198 C1190 1.574 . S
C1198 H1193 0.949 . S
C1198 C1204 1.368 . S
C1199 C1183 1.349 . S
C1199 H1191 0.950 . S
C1199 C1197 1.327 . S
C1200 C1188 1.349 . S
C1200 H1194 0.950 . S
C1200 C1201 1.327 . S
C1201 H1195 0.950 . S
C1201 C1200 1.327 . S
C1201 C1205 1.429 . S
C1202 C1185 1.574 . S
C1202 H1196 0.949 . S
C1202 C1206 1.368 . S
C1203 C1184 1.429 . S
C1203 C1197 1.429 . S
C1203 C1204 1.523 . S
C1204 C1185 1.368 . S
C1204 C1198 1.368 . S
C1204 C1203 1.523 . S
C1205 C1189 1.429 . S
C1205 C1201 1.429 . S
C1205 C1206 1.523 . S
C1206 C1190 1.368 . S
C1206 C1202 1.368 . S
C1206 C1205 1.523 . S
H1207 C1182 0.950 . S
H1208 C1184 0.950 . S
H1209 C1185 0.949 . S
H1210 C1187 0.950 . S
H1211 C1189 0.950 . S
C1212 C1213 1.349 . S
C1212 C1214 1.327 . S
C1212 H1237 0.950 . S
C1213 C1212 1.349 . S
C1213 C1229 1.349 . S
C1214 C1212 1.327 . S
C1214 C1233 1.429 . S
C1214 H1238 0.950 . S
C1215 C1232 1.574 . S
C1215 C1234 1.368 . S
C1215 H1239 0.949 . S
H1216 C1220 0.949 . S
C1217 C1218 1.349 . S
C1217 C1219 1.327 . S
C1217 H1240 0.950 . S
C1218 C1217 1.349 . S
C1218 C1230 1.349 . S
C1219 C1217 1.327 . S
C1219 C1235 1.429 . S
C1219 H1241 0.950 . S
C1220 H1216 0.949 . S
C1220 C1228 1.574 . S
C1220 C1236 1.368 . S
H1221 C1229 0.950 . S
H1222 C1227 0.950 . S
H1223 C1228 0.949 . S
H1224 C1230 0.950 . S
H1225 C1231 0.950 . S
H1226 C1232 0.949 . S
C1227 H1222 0.950 . S
C1227 C1229 1.327 . S
C1227 C1233 1.429 . S
C1228 C1220 1.574 . S
C1228 H1223 0.949 . S
C1228 C1234 1.368 . S
C1229 C1213 1.349 . S
C1229 H1221 0.950 . S
C1229 C1227 1.327 . S
C1230 C1218 1.349 . S
C1230 H1224 0.950 . S
C1230 C1231 1.327 . S
C1231 H1225 0.950 . S
C1231 C1230 1.327 . S
C1231 C1235 1.429 . S
C1232 C1215 1.574 . S
C1232 H1226 0.949 . S
C1232 C1236 1.368 . S
C1233 C1214 1.429 . S
C1233 C1227 1.429 . S
C1233 C1234 1.523 . S
C1234 C1215 1.368 . S
C1234 C1228 1.368 . S
C1234 C1233 1.523 . S
C1235 C1219 1.429 . S
C1235 C1231 1.429 . S
C1235 C1236 1.523 . S
C1236 C1220 1.368 . S
C1236 C1232 1.368 . S
C1236 C1235 1.523 . S
H1237 C1212 0.950 . S
H1238 C1214 0.950 . S
H1239 C1215 0.949 . S
H1240 C1217 0.950 . S
H1241 C1219 0.950 . S
C1242 C1243 1.349 . S
C1242 C1244 1.327 . S
C1242 H1267 0.950 . S
C1243 C1242 1.349 . S
C1243 C1259 1.349 . S
C1244 C1242 1.327 . S
C1244 C1263 1.429 . S
C1244 H1268 0.950 . S
C1245 C1262 1.574 . S
C1245 C1264 1.368 . S
C1245 H1269 0.949 . S
H1246 C1250 0.949 . S
C1247 C1248 1.349 . S
C1247 C1249 1.327 . S
C1247 H1270 0.950 . S
C1248 C1247 1.349 . S
C1248 C1260 1.349 . S
C1249 C1247 1.327 . S
C1249 C1265 1.429 . S
C1249 H1271 0.950 . S
C1250 H1246 0.949 . S
C1250 C1258 1.574 . S
C1250 C1266 1.368 . S
H1251 C1259 0.950 1_556 S
H1252 C1257 0.950 . S
H1253 C1258 0.949 . S
H1254 C1260 0.950 . S
H1255 C1261 0.950 . S
H1256 C1262 0.949 . S
C1257 H1252 0.950 . S
C1257 C1259 1.327 . S
C1257 C1263 1.429 . S
C1258 C1250 1.574 . S
C1258 H1253 0.949 . S
C1258 C1264 1.368 . S
C1259 C1243 1.349 . S
C1259 H1251 0.950 1_554 S
C1259 C1257 1.327 . S
C1260 C1248 1.349 . S
C1260 H1254 0.950 . S
C1260 C1261 1.327 . S
C1261 H1255 0.950 . S
C1261 C1260 1.327 . S
C1261 C1265 1.429 . S
C1262 C1245 1.574 . S
C1262 H1256 0.949 . S
C1262 C1266 1.368 . S
C1263 C1244 1.429 . S
C1263 C1257 1.429 . S
C1263 C1264 1.523 . S
C1264 C1245 1.368 . S
C1264 C1258 1.368 . S
C1264 C1263 1.523 . S
C1265 C1249 1.429 . S
C1265 C1261 1.429 . S
C1265 C1266 1.523 . S
C1266 C1250 1.368 . S
C1266 C1262 1.368 . S
C1266 C1265 1.523 . S
H1267 C1242 0.950 . S
H1268 C1244 0.950 . S
H1269 C1245 0.949 . S
H1270 C1247 0.950 . S
H1271 C1249 0.950 . S
C1272 C1273 1.349 . S
C1272 C1274 1.327 . S
C1272 H1297 0.950 . S
C1273 C1272 1.349 . S
C1273 C1289 1.349 . S
C1274 C1272 1.327 . S
C1274 C1293 1.429 . S
C1274 H1298 0.950 . S
C1275 C1292 1.574 . S
C1275 C1294 1.368 . S
C1275 H1299 0.949 . S
H1276 C1280 0.949 . S
C1277 C1278 1.349 . S
C1277 C1279 1.327 . S
C1277 H1300 0.950 . S
C1278 C1277 1.349 . S
C1278 C1290 1.349 . S
C1279 C1277 1.327 . S
C1279 C1295 1.429 . S
C1279 H1301 0.950 . S
C1280 H1276 0.949 . S
C1280 C1288 1.574 . S
C1280 C1296 1.368 . S
H1281 C1289 0.950 . S
H1282 C1287 0.950 . S
H1283 C1288 0.949 . S
H1284 C1290 0.950 . S
H1285 C1291 0.950 . S
H1286 C1292 0.949 . S
C1287 H1282 0.950 . S
C1287 C1289 1.327 . S
C1287 C1293 1.429 . S
C1288 C1280 1.574 . S
C1288 H1283 0.949 . S
C1288 C1294 1.368 . S
C1289 C1273 1.349 . S
C1289 H1281 0.950 . S
C1289 C1287 1.327 . S
C1290 C1278 1.349 . S
C1290 H1284 0.950 . S
C1290 C1291 1.327 . S
C1291 H1285 0.950 . S
C1291 C1290 1.327 . S
C1291 C1295 1.429 . S
C1292 C1275 1.574 . S
C1292 H1286 0.949 . S
C1292 C1296 1.368 . S
C1293 C1274 1.429 . S
C1293 C1287 1.429 . S
C1293 C1294 1.523 . S
C1294 C1275 1.368 . S
C1294 C1288 1.368 . S
C1294 C1293 1.523 . S
C1295 C1279 1.429 . S
C1295 C1291 1.429 . S
C1295 C1296 1.523 . S
C1296 C1280 1.368 . S
C1296 C1292 1.368 . S
C1296 C1295 1.523 . S
H1297 C1272 0.950 . S
H1298 C1274 0.950 . S
H1299 C1275 0.949 . S
H1300 C1277 0.950 . S
H1301 C1279 0.950 . S
C1302 C1303 1.349 . S
C1302 C1304 1.327 . S
C1302 H1327 0.950 . S
C1303 C1302 1.349 . S
C1303 C1319 1.349 . S
C1304 C1302 1.327 . S
C1304 C1323 1.429 . S
C1304 H1328 0.950 . S
C1305 C1322 1.574 . S
C1305 C1324 1.368 . S
C1305 H1329 0.949 . S
H1306 C1310 0.949 . S
C1307 C1308 1.349 . S
C1307 C1309 1.327 . S
C1307 H1330 0.950 1_556 S
C1308 C1307 1.349 . S
C1308 C1320 1.349 . S
C1309 C1307 1.327 . S
C1309 C1325 1.429 . S
C1309 H1331 0.950 . S
C1310 H1306 0.949 . S
C1310 C1318 1.574 . S
C1310 C1326 1.368 . S
H1311 C1319 0.950 . S
H1312 C1317 0.950 . S
H1313 C1318 0.949 . S
H1314 C1320 0.950 . S
H1315 C1321 0.950 . S
H1316 C1322 0.949 . S
C1317 H1312 0.950 . S
C1317 C1319 1.327 . S
C1317 C1323 1.429 . S
C1318 C1310 1.574 . S
C1318 H1313 0.949 . S
C1318 C1324 1.368 . S
C1319 C1303 1.349 . S
C1319 H1311 0.950 . S
C1319 C1317 1.327 . S
C1320 C1308 1.349 . S
C1320 H1314 0.950 . S
C1320 C1321 1.327 . S
C1321 H1315 0.950 . S
C1321 C1320 1.327 . S
C1321 C1325 1.429 . S
C1322 C1305 1.574 . S
C1322 H1316 0.949 . S
C1322 C1326 1.368 . S
C1323 C1304 1.429 . S
C1323 C1317 1.429 . S
C1323 C1324 1.523 . S
C1324 C1305 1.368 . S
C1324 C1318 1.368 . S
C1324 C1323 1.523 . S
C1325 C1309 1.429 . S
C1325 C1321 1.429 . S
C1325 C1326 1.523 . S
C1326 C1310 1.368 . S
C1326 C1322 1.368 . S
C1326 C1325 1.523 . S
H1327 C1302 0.950 . S
H1328 C1304 0.950 . S
H1329 C1305 0.949 . S
H1330 C1307 0.950 1_554 S
H1331 C1309 0.950 . S
C1332 C1333 1.349 . S
C1332 C1334 1.327 . S
C1332 H1357 0.950 . S
C1333 C1332 1.349 . S
C1333 C1349 1.349 . S
C1334 C1332 1.327 . S
C1334 C1353 1.429 . S
C1334 H1358 0.950 . S
C1335 C1352 1.574 . S
C1335 C1354 1.368 . S
C1335 H1359 0.949 . S
H1336 C1340 0.949 . S
C1337 C1338 1.349 . S
C1337 C1339 1.327 . S
C1337 H1360 0.950 . S
C1338 C1337 1.349 . S
C1338 C1350 1.349 . S
C1339 C1337 1.327 . S
C1339 C1355 1.429 . S
C1339 H1361 0.950 . S
C1340 H1336 0.949 . S
C1340 C1348 1.574 . S
C1340 C1356 1.368 . S
H1341 C1349 0.950 . S
H1342 C1347 0.950 . S
H1343 C1348 0.949 . S
H1344 C1350 0.950 . S
H1345 C1351 0.950 . S
H1346 C1352 0.949 . S
C1347 H1342 0.950 . S
C1347 C1349 1.327 . S
C1347 C1353 1.429 . S
C1348 C1340 1.574 . S
C1348 H1343 0.949 . S
C1348 C1354 1.368 . S
C1349 C1333 1.349 . S
C1349 H1341 0.950 . S
C1349 C1347 1.327 . S
C1350 C1338 1.349 . S
C1350 H1344 0.950 . S
C1350 C1351 1.327 . S
C1351 H1345 0.950 . S
C1351 C1350 1.327 . S
C1351 C1355 1.429 . S
C1352 C1335 1.574 . S
C1352 H1346 0.949 . S
C1352 C1356 1.368 . S
C1353 C1334 1.429 . S
C1353 C1347 1.429 . S
C1353 C1354 1.523 . S
C1354 C1335 1.368 . S
C1354 C1348 1.368 . S
C1354 C1353 1.523 . S
C1355 C1339 1.429 . S
C1355 C1351 1.429 . S
C1355 C1356 1.523 . S
C1356 C1340 1.368 . S
C1356 C1352 1.368 . S
C1356 C1355 1.523 . S
H1357 C1332 0.950 . S
H1358 C1334 0.950 . S
H1359 C1335 0.949 . S
H1360 C1337 0.950 . S
H1361 C1339 0.950 . S
C1362 C1363 1.349 . S
C1362 C1364 1.327 . S
C1362 H1387 0.950 . S
C1363 C1362 1.349 . S
C1363 C1379 1.349 . S
C1364 C1362 1.327 . S
C1364 C1383 1.429 . S
C1364 H1388 0.950 . S
C1365 C1382 1.574 . S
C1365 C1384 1.368 . S
C1365 H1389 0.949 . S
H1366 C1370 0.949 . S
C1367 C1368 1.349 . S
C1367 C1369 1.327 . S
C1367 H1390 0.950 . S
C1368 C1367 1.349 . S
C1368 C1380 1.349 . S
C1369 C1367 1.327 . S
C1369 C1385 1.429 . S
C1369 H1391 0.950 . S
C1370 H1366 0.949 . S
C1370 C1378 1.574 . S
C1370 C1386 1.368 . S
H1371 C1379 0.950 . S
H1372 C1377 0.950 . S
H1373 C1378 0.949 . S
H1374 C1380 0.950 . S
H1375 C1381 0.950 . S
H1376 C1382 0.949 . S
C1377 H1372 0.950 . S
C1377 C1379 1.327 . S
C1377 C1383 1.429 . S
C1378 C1370 1.574 . S
C1378 H1373 0.949 . S
C1378 C1384 1.368 . S
C1379 C1363 1.349 . S
C1379 H1371 0.950 . S
C1379 C1377 1.327 . S
C1380 C1368 1.349 . S
C1380 H1374 0.950 . S
C1380 C1381 1.327 . S
C1381 H1375 0.950 . S
C1381 C1380 1.327 . S
C1381 C1385 1.429 . S
C1382 C1365 1.574 . S
C1382 H1376 0.949 . S
C1382 C1386 1.368 . S
C1383 C1364 1.429 . S
C1383 C1377 1.429 . S
C1383 C1384 1.523 . S
C1384 C1365 1.368 . S
C1384 C1378 1.368 . S
C1384 C1383 1.523 . S
C1385 C1369 1.429 . S
C1385 C1381 1.429 . S
C1385 C1386 1.523 . S
C1386 C1370 1.368 . S
C1386 C1382 1.368 . S
C1386 C1385 1.523 . S
H1387 C1362 0.950 . S
H1388 C1364 0.950 . S
H1389 C1365 0.949 . S
H1390 C1367 0.950 . S
H1391 C1369 0.950 . S
C1392 C1393 1.349 . S
C1392 C1394 1.327 . S
C1392 H1417 0.950 . S
C1393 C1392 1.349 . S
C1393 C1409 1.349 . S
C1394 C1392 1.327 . S
C1394 C1413 1.429 . S
C1394 H1418 0.950 . S
C1395 C1412 1.574 . S
C1395 C1414 1.368 . S
C1395 H1419 0.949 . S
H1396 C1400 0.949 . S
C1397 C1398 1.349 . S
C1397 C1399 1.327 . S
C1397 H1420 0.950 . S
C1398 C1397 1.349 . S
C1398 C1410 1.349 . S
C1399 C1397 1.327 . S
C1399 C1415 1.429 . S
C1399 H1421 0.950 . S
C1400 H1396 0.949 . S
C1400 C1408 1.574 . S
C1400 C1416 1.368 . S
H1401 C1409 0.950 . S
H1402 C1407 0.950 . S
H1403 C1408 0.949 . S
H1404 C1410 0.950 . S
H1405 C1411 0.950 . S
H1406 C1412 0.949 . S
C1407 H1402 0.950 . S
C1407 C1409 1.327 . S
C1407 C1413 1.429 . S
C1408 C1400 1.574 . S
C1408 H1403 0.949 . S
C1408 C1414 1.368 . S
C1409 C1393 1.349 . S
C1409 H1401 0.950 . S
C1409 C1407 1.327 . S
C1410 C1398 1.349 . S
C1410 H1404 0.950 . S
C1410 C1411 1.327 . S
C1411 H1405 0.950 . S
C1411 C1410 1.327 . S
C1411 C1415 1.429 . S
C1412 C1395 1.574 . S
C1412 H1406 0.949 . S
C1412 C1416 1.368 . S
C1413 C1394 1.429 . S
C1413 C1407 1.429 . S
C1413 C1414 1.523 . S
C1414 C1395 1.368 . S
C1414 C1408 1.368 . S
C1414 C1413 1.523 . S
C1415 C1399 1.429 . S
C1415 C1411 1.429 . S
C1415 C1416 1.523 . S
C1416 C1400 1.368 . S
C1416 C1412 1.368 . S
C1416 C1415 1.523 . S
H1417 C1392 0.950 . S
H1418 C1394 0.950 . S
H1419 C1395 0.949 . S
H1420 C1397 0.950 . S
H1421 C1399 0.950 . S
C1422 C1423 1.349 . S
C1422 C1424 1.327 . S
C1422 H1447 0.950 . S
C1423 C1422 1.349 . S
C1423 C1439 1.349 . S
C1424 C1422 1.327 . S
C1424 C1443 1.429 . S
C1424 H1448 0.950 . S
C1425 C1442 1.574 . S
C1425 C1444 1.368 . S
C1425 H1449 0.949 . S
H1426 C1430 0.949 . S
C1427 C1428 1.349 . S
C1427 C1429 1.327 . S
C1427 H1450 0.950 . S
C1428 C1427 1.349 . S
C1428 C1440 1.349 . S
C1429 C1427 1.327 . S
C1429 C1445 1.429 . S
C1429 H1451 0.950 . S
C1430 H1426 0.949 . S
C1430 C1438 1.574 . S
C1430 C1446 1.368 . S
H1431 C1439 0.950 . S
H1432 C1437 0.950 . S
H1433 C1438 0.949 . S
H1434 C1440 0.950 . S
H1435 C1441 0.950 . S
H1436 C1442 0.949 . S
C1437 H1432 0.950 . S
C1437 C1439 1.327 . S
C1437 C1443 1.429 . S
C1438 C1430 1.574 . S
C1438 H1433 0.949 . S
C1438 C1444 1.368 . S
C1439 C1423 1.349 . S
C1439 H1431 0.950 . S
C1439 C1437 1.327 . S
C1440 C1428 1.349 . S
C1440 H1434 0.950 . S
C1440 C1441 1.327 . S
C1441 H1435 0.950 . S
C1441 C1440 1.327 . S
C1441 C1445 1.429 . S
C1442 C1425 1.574 . S
C1442 H1436 0.949 . S
C1442 C1446 1.368 . S
C1443 C1424 1.429 . S
C1443 C1437 1.429 . S
C1443 C1444 1.523 . S
C1444 C1425 1.368 . S
C1444 C1438 1.368 . S
C1444 C1443 1.523 . S
C1445 C1429 1.429 . S
C1445 C1441 1.429 . S
C1445 C1446 1.523 . S
C1446 C1430 1.368 . S
C1446 C1442 1.368 . S
C1446 C1445 1.523 . S
H1447 C1422 0.950 . S
H1448 C1424 0.950 . S
H1449 C1425 0.949 . S
H1450 C1427 0.950 . S
H1451 C1429 0.950 . S
C1452 C1453 1.349 . S
C1452 C1454 1.327 . S
C1452 H1477 0.950 . S
C1453 C1452 1.349 . S
C1453 C1469 1.349 . S
C1454 C1452 1.327 . S
C1454 C1473 1.429 . S
C1454 H1478 0.950 . S
C1455 C1472 1.574 . S
C1455 C1474 1.368 . S
C1455 H1479 0.949 . S
H1456 C1460 0.949 . S
C1457 C1458 1.349 . S
C1457 C1459 1.327 . S
C1457 H1480 0.950 . S
C1458 C1457 1.349 . S
C1458 C1470 1.349 . S
C1459 C1457 1.327 . S
C1459 C1475 1.429 . S
C1459 H1481 0.950 . S
C1460 H1456 0.949 . S
C1460 C1468 1.574 . S
C1460 C1476 1.368 . S
H1461 C1469 0.950 . S
H1462 C1467 0.950 . S
H1463 C1468 0.949 . S
H1464 C1470 0.950 . S
H1465 C1471 0.950 . S
H1466 C1472 0.949 . S
C1467 H1462 0.950 . S
C1467 C1469 1.327 . S
C1467 C1473 1.429 . S
C1468 C1460 1.574 . S
C1468 H1463 0.949 . S
C1468 C1474 1.368 . S
C1469 C1453 1.349 . S
C1469 H1461 0.950 . S
C1469 C1467 1.327 . S
C1470 C1458 1.349 . S
C1470 H1464 0.950 . S
C1470 C1471 1.327 . S
C1471 H1465 0.950 . S
C1471 C1470 1.327 . S
C1471 C1475 1.429 . S
C1472 C1455 1.574 . S
C1472 H1466 0.949 . S
C1472 C1476 1.368 . S
C1473 C1454 1.429 . S
C1473 C1467 1.429 . S
C1473 C1474 1.523 . S
C1474 C1455 1.368 . S
C1474 C1468 1.368 . S
C1474 C1473 1.523 . S
C1475 C1459 1.429 . S
C1475 C1471 1.429 . S
C1475 C1476 1.523 . S
C1476 C1460 1.368 . S
C1476 C1472 1.368 . S
C1476 C1475 1.523 . S
H1477 C1452 0.950 . S
H1478 C1454 0.950 . S
H1479 C1455 0.949 . S
H1480 C1457 0.950 . S
H1481 C1459 0.950 . S
C1482 C1483 1.349 . S
C1482 C1484 1.327 . S
C1482 H1507 0.950 . S
C1483 C1482 1.349 . S
C1483 C1499 1.349 . S
C1484 C1482 1.327 . S
C1484 C1503 1.429 . S
C1484 H1508 0.950 . S
C1485 C1502 1.574 . S
C1485 C1504 1.368 . S
C1485 H1509 0.949 . S
H1486 C1490 0.949 . S
C1487 C1488 1.349 . S
C1487 C1489 1.327 . S
C1487 H1510 0.950 . S
C1488 C1487 1.349 . S
C1488 C1500 1.349 . S
C1489 C1487 1.327 . S
C1489 C1505 1.429 . S
C1489 H1511 0.950 . S
C1490 H1486 0.949 . S
C1490 C1498 1.574 . S
C1490 C1506 1.368 . S
H1491 C1499 0.950 . S
H1492 C1497 0.950 . S
H1493 C1498 0.949 . S
H1494 C1500 0.950 . S
H1495 C1501 0.950 . S
H1496 C1502 0.949 . S
C1497 H1492 0.950 . S
C1497 C1499 1.327 . S
C1497 C1503 1.429 . S
C1498 C1490 1.574 . S
C1498 H1493 0.949 . S
C1498 C1504 1.368 . S
C1499 C1483 1.349 . S
C1499 H1491 0.950 . S
C1499 C1497 1.327 . S
C1500 C1488 1.349 . S
C1500 H1494 0.950 . S
C1500 C1501 1.327 . S
C1501 H1495 0.950 . S
C1501 C1500 1.327 . S
C1501 C1505 1.429 . S
C1502 C1485 1.574 . S
C1502 H1496 0.949 . S
C1502 C1506 1.368 . S
C1503 C1484 1.429 . S
C1503 C1497 1.429 . S
C1503 C1504 1.523 . S
C1504 C1485 1.368 . S
C1504 C1498 1.368 . S
C1504 C1503 1.523 . S
C1505 C1489 1.429 . S
C1505 C1501 1.429 . S
C1505 C1506 1.523 . S
C1506 C1490 1.368 . S
C1506 C1502 1.368 . S
C1506 C1505 1.523 . S
H1507 C1482 0.950 . S
H1508 C1484 0.950 . S
H1509 C1485 0.949 . S
H1510 C1487 0.950 . S
H1511 C1489 0.950 . S
C1512 C1513 1.349 . S
C1512 C1514 1.327 . S
C1512 H1537 0.950 . S
C1513 C1512 1.349 . S
C1513 C1529 1.349 . S
C1514 C1512 1.327 . S
C1514 C1533 1.429 . S
C1514 H1538 0.950 . S
C1515 C1532 1.574 . S
C1515 C1534 1.368 . S
C1515 H1539 0.949 . S
H1516 C1520 0.949 . S
C1517 C1518 1.349 . S
C1517 C1519 1.327 . S
C1517 H1540 0.950 . S
C1518 C1517 1.349 . S
C1518 C1530 1.349 . S
C1519 C1517 1.327 . S
C1519 C1535 1.429 . S
C1519 H1541 0.950 . S
C1520 H1516 0.949 . S
C1520 C1528 1.574 . S
C1520 C1536 1.368 . S
H1521 C1529 0.950 . S
H1522 C1527 0.950 . S
H1523 C1528 0.949 . S
H1524 C1530 0.950 . S
H1525 C1531 0.950 . S
H1526 C1532 0.949 . S
C1527 H1522 0.950 . S
C1527 C1529 1.327 . S
C1527 C1533 1.429 . S
C1528 C1520 1.574 . S
C1528 H1523 0.949 . S
C1528 C1534 1.368 . S
C1529 C1513 1.349 . S
C1529 H1521 0.950 . S
C1529 C1527 1.327 . S
C1530 C1518 1.349 . S
C1530 H1524 0.950 . S
C1530 C1531 1.327 . S
C1531 H1525 0.950 . S
C1531 C1530 1.327 . S
C1531 C1535 1.429 . S
C1532 C1515 1.574 . S
C1532 H1526 0.949 . S
C1532 C1536 1.368 . S
C1533 C1514 1.429 . S
C1533 C1527 1.429 . S
C1533 C1534 1.523 . S
C1534 C1515 1.368 . S
C1534 C1528 1.368 . S
C1534 C1533 1.523 . S
C1535 C1519 1.429 . S
C1535 C1531 1.429 . S
C1535 C1536 1.523 . S
C1536 C1520 1.368 . S
C1536 C1532 1.368 . S
C1536 C1535 1.523 . S
H1537 C1512 0.950 . S
H1538 C1514 0.950 . S
H1539 C1515 0.949 . S
H1540 C1517 0.950 . S
H1541 C1519 0.950 . S
C1542 C1543 1.349 . S
C1542 C1544 1.327 . S
C1542 H1567 0.950 . S
C1543 C1542 1.349 . S
C1543 C1559 1.349 . S
C1544 C1542 1.327 . S
C1544 C1563 1.429 . S
C1544 H1568 0.950 . S
C1545 C1562 1.574 . S
C1545 C1564 1.368 . S
C1545 H1569 0.949 . S
H1546 C1550 0.949 . S
C1547 C1548 1.349 . S
C1547 C1549 1.327 . S
C1547 H1570 0.950 . S
C1548 C1547 1.349 . S
C1548 C1560 1.349 . S
C1549 C1547 1.327 . S
C1549 C1565 1.429 . S
C1549 H1571 0.950 . S
C1550 H1546 0.949 . S
C1550 C1558 1.574 . S
C1550 C1566 1.368 . S
H1551 C1559 0.950 . S
H1552 C1557 0.950 . S
H1553 C1558 0.949 . S
H1554 C1560 0.950 . S
H1555 C1561 0.950 . S
H1556 C1562 0.949 . S
C1557 H1552 0.950 . S
C1557 C1559 1.327 . S
C1557 C1563 1.429 . S
C1558 C1550 1.574 . S
C1558 H1553 0.949 . S
C1558 C1564 1.368 . S
C1559 C1543 1.349 . S
C1559 H1551 0.950 . S
C1559 C1557 1.327 . S
C1560 C1548 1.349 . S
C1560 H1554 0.950 . S
C1560 C1561 1.327 . S
C1561 H1555 0.950 . S
C1561 C1560 1.327 . S
C1561 C1565 1.429 . S
C1562 C1545 1.574 . S
C1562 H1556 0.949 . S
C1562 C1566 1.368 . S
C1563 C1544 1.429 . S
C1563 C1557 1.429 . S
C1563 C1564 1.523 . S
C1564 C1545 1.368 . S
C1564 C1558 1.368 . S
C1564 C1563 1.523 . S
C1565 C1549 1.429 . S
C1565 C1561 1.429 . S
C1565 C1566 1.523 . S
C1566 C1550 1.368 . S
C1566 C1562 1.368 . S
C1566 C1565 1.523 . S
H1567 C1542 0.950 . S
H1568 C1544 0.950 . S
H1569 C1545 0.949 . S
H1570 C1547 0.950 . S
H1571 C1549 0.950 . S
C1572 C1573 1.349 . S
C1572 C1574 1.327 . S
C1572 H1597 0.950 . S
C1573 C1572 1.349 . S
C1573 C1589 1.349 . S
C1574 C1572 1.327 . S
C1574 C1593 1.429 . S
C1574 H1598 0.950 . S
C1575 C1592 1.574 . S
C1575 C1594 1.368 . S
C1575 H1599 0.949 . S
H1576 C1580 0.949 . S
C1577 C1578 1.349 . S
C1577 C1579 1.327 . S
C1577 H1600 0.950 . S
C1578 C1577 1.349 . S
C1578 C1590 1.349 . S
C1579 C1577 1.327 . S
C1579 C1595 1.429 . S
C1579 H1601 0.950 . S
C1580 H1576 0.949 . S
C1580 C1588 1.574 . S
C1580 C1596 1.368 . S
H1581 C1589 0.950 . S
H1582 C1587 0.950 . S
H1583 C1588 0.949 . S
H1584 C1590 0.950 . S
H1585 C1591 0.950 . S
H1586 C1592 0.949 . S
C1587 H1582 0.950 . S
C1587 C1589 1.327 . S
C1587 C1593 1.429 . S
C1588 C1580 1.574 . S
C1588 H1583 0.949 . S
C1588 C1594 1.368 . S
C1589 C1573 1.349 . S
C1589 H1581 0.950 . S
C1589 C1587 1.327 . S
C1590 C1578 1.349 . S
C1590 H1584 0.950 . S
C1590 C1591 1.327 . S
C1591 H1585 0.950 . S
C1591 C1590 1.327 . S
C1591 C1595 1.429 . S
C1592 C1575 1.574 . S
C1592 H1586 0.949 . S
C1592 C1596 1.368 . S
C1593 C1574 1.429 . S
C1593 C1587 1.429 . S
C1593 C1594 1.523 . S
C1594 C1575 1.368 . S
C1594 C1588 1.368 . S
C1594 C1593 1.523 . S
C1595 C1579 1.429 . S
C1595 C1591 1.429 . S
C1595 C1596 1.523 . S
C1596 C1580 1.368 . S
C1596 C1592 1.368 . S
C1596 C1595 1.523 . S
H1597 C1572 0.950 . S
H1598 C1574 0.950 . S
H1599 C1575 0.949 . S
H1600 C1577 0.950 . S
H1601 C1579 0.950 . S
C1602 C1603 1.349 . S
C1602 C1604 1.327 . S
C1602 H1627 0.950 . S
C1603 C1602 1.349 . S
C1603 C1619 1.349 . S
C1604 C1602 1.327 . S
C1604 C1623 1.429 . S
C1604 H1628 0.950 . S
C1605 C1622 1.574 . S
C1605 C1624 1.368 . S
C1605 H1629 0.949 . S
H1606 C1610 0.949 . S
C1607 C1608 1.349 . S
C1607 C1609 1.327 . S
C1607 H1630 0.950 . S
C1608 C1607 1.349 . S
C1608 C1620 1.349 . S
C1609 C1607 1.327 . S
C1609 C1625 1.429 . S
C1609 H1631 0.950 . S
C1610 H1606 0.949 . S
C1610 C1618 1.574 . S
C1610 C1626 1.368 . S
H1611 C1619 0.950 . S
H1612 C1617 0.950 . S
H1613 C1618 0.949 . S
H1614 C1620 0.950 . S
H1615 C1621 0.950 . S
H1616 C1622 0.949 . S
C1617 H1612 0.950 . S
C1617 C1619 1.327 . S
C1617 C1623 1.429 . S
C1618 C1610 1.574 . S
C1618 H1613 0.949 . S
C1618 C1624 1.368 . S
C1619 C1603 1.349 . S
C1619 H1611 0.950 . S
C1619 C1617 1.327 . S
C1620 C1608 1.349 . S
C1620 H1614 0.950 . S
C1620 C1621 1.327 . S
C1621 H1615 0.950 . S
C1621 C1620 1.327 . S
C1621 C1625 1.429 . S
C1622 C1605 1.574 . S
C1622 H1616 0.949 . S
C1622 C1626 1.368 . S
C1623 C1604 1.429 . S
C1623 C1617 1.429 . S
C1623 C1624 1.523 . S
C1624 C1605 1.368 . S
C1624 C1618 1.368 . S
C1624 C1623 1.523 . S
C1625 C1609 1.429 . S
C1625 C1621 1.429 . S
C1625 C1626 1.523 . S
C1626 C1610 1.368 . S
C1626 C1622 1.368 . S
C1626 C1625 1.523 . S
H1627 C1602 0.950 . S
H1628 C1604 0.950 . S
H1629 C1605 0.949 . S
H1630 C1607 0.950 . S
H1631 C1609 0.950 . S
C1632 C1633 1.349 . S
C1632 C1634 1.327 . S
C1632 H1657 0.950 . S
C1633 C1632 1.349 . S
C1633 C1649 1.349 . S
C1634 C1632 1.327 . S
C1634 C1653 1.429 . S
C1634 H1658 0.950 . S
C1635 C1652 1.574 . S
C1635 C1654 1.368 . S
C1635 H1659 0.949 . S
H1636 C1640 0.949 . S
C1637 C1638 1.349 . S
C1637 C1639 1.327 . S
C1637 H1660 0.950 . S
C1638 C1637 1.349 . S
C1638 C1650 1.349 . S
C1639 C1637 1.327 . S
C1639 C1655 1.429 . S
C1639 H1661 0.950 . S
C1640 H1636 0.949 . S
C1640 C1648 1.574 . S
C1640 C1656 1.368 . S
H1641 C1649 0.950 . S
H1642 C1647 0.950 . S
H1643 C1648 0.949 . S
H1644 C1650 0.950 . S
H1645 C1651 0.950 . S
H1646 C1652 0.949 . S
C1647 H1642 0.950 . S
C1647 C1649 1.327 . S
C1647 C1653 1.429 . S
C1648 C1640 1.574 . S
C1648 H1643 0.949 . S
C1648 C1654 1.368 . S
C1649 C1633 1.349 . S
C1649 H1641 0.950 . S
C1649 C1647 1.327 . S
C1650 C1638 1.349 . S
C1650 H1644 0.950 . S
C1650 C1651 1.327 . S
C1651 H1645 0.950 . S
C1651 C1650 1.327 . S
C1651 C1655 1.429 . S
C1652 C1635 1.574 . S
C1652 H1646 0.949 . S
C1652 C1656 1.368 . S
C1653 C1634 1.429 . S
C1653 C1647 1.429 . S
C1653 C1654 1.523 . S
C1654 C1635 1.368 . S
C1654 C1648 1.368 . S
C1654 C1653 1.523 . S
C1655 C1639 1.429 . S
C1655 C1651 1.429 . S
C1655 C1656 1.523 . S
C1656 C1640 1.368 . S
C1656 C1652 1.368 . S
C1656 C1655 1.523 . S
H1657 C1632 0.950 . S
H1658 C1634 0.950 . S
H1659 C1635 0.949 . S
H1660 C1637 0.950 . S
H1661 C1639 0.950 . S
C1662 C1663 1.349 1_554 S
C1662 C1664 1.327 1_554 S
C1662 H1687 0.950 . S
C1663 C1662 1.349 1_556 S
C1663 C1679 1.349 . S
C1664 C1662 1.327 1_556 S
C1664 C1683 1.429 . S
C1664 H1688 0.950 . S
C1665 C1682 1.574 . S
C1665 C1684 1.368 . S
C1665 H1689 0.949 . S
H1666 C1670 0.949 . S
C1667 C1668 1.349 . S
C1667 C1669 1.327 . S
C1667 H1690 0.950 . S
C1668 C1667 1.349 . S
C1668 C1680 1.349 . S
C1669 C1667 1.327 . S
C1669 C1685 1.429 . S
C1669 H1691 0.950 . S
C1670 H1666 0.949 . S
C1670 C1678 1.574 . S
C1670 C1686 1.368 . S
H1671 C1679 0.950 . S
H1672 C1677 0.950 . S
H1673 C1678 0.949 . S
H1674 C1680 0.950 . S
H1675 C1681 0.950 . S
H1676 C1682 0.949 . S
C1677 H1672 0.950 . S
C1677 C1679 1.327 . S
C1677 C1683 1.429 . S
C1678 C1670 1.574 . S
C1678 H1673 0.949 . S
C1678 C1684 1.368 . S
C1679 C1663 1.349 . S
C1679 H1671 0.950 . S
C1679 C1677 1.327 . S
C1680 C1668 1.349 . S
C1680 H1674 0.950 . S
C1680 C1681 1.327 . S
C1681 H1675 0.950 . S
C1681 C1680 1.327 . S
C1681 C1685 1.429 . S
C1682 C1665 1.574 . S
C1682 H1676 0.949 . S
C1682 C1686 1.368 . S
C1683 C1664 1.429 . S
C1683 C1677 1.429 . S
C1683 C1684 1.523 . S
C1684 C1665 1.368 . S
C1684 C1678 1.368 . S
C1684 C1683 1.523 . S
C1685 C1669 1.429 . S
C1685 C1681 1.429 . S
C1685 C1686 1.523 . S
C1686 C1670 1.368 . S
C1686 C1682 1.368 . S
C1686 C1685 1.523 . S
H1687 C1662 0.950 . S
H1688 C1664 0.950 . S
H1689 C1665 0.949 . S
H1690 C1667 0.950 . S
H1691 C1669 0.950 . S
C1692 C1693 1.349 . S
C1692 C1694 1.327 . S
C1692 H1717 0.950 . S
C1693 C1692 1.349 . S
C1693 C1709 1.349 . S
C1694 C1692 1.327 . S
C1694 C1713 1.429 . S
C1694 H1718 0.950 . S
C1695 C1712 1.574 . S
C1695 C1714 1.368 . S
C1695 H1719 0.949 . S
H1696 C1700 0.949 . S
C1697 C1698 1.349 . S
C1697 C1699 1.327 . S
C1697 H1720 0.950 . S
C1698 C1697 1.349 . S
C1698 C1710 1.349 . S
C1699 C1697 1.327 . S
C1699 C1715 1.429 . S
C1699 H1721 0.950 . S
C1700 H1696 0.949 . S
C1700 C1708 1.574 . S
C1700 C1716 1.368 . S
H1701 C1709 0.950 . S
H1702 C1707 0.950 . S
H1703 C1708 0.949 . S
H1704 C1710 0.950 . S
H1705 C1711 0.950 . S
H1706 C1712 0.949 . S
C1707 H1702 0.950 . S
C1707 C1709 1.327 . S
C1707 C1713 1.429 . S
C1708 C1700 1.574 . S
C1708 H1703 0.949 . S
C1708 C1714 1.368 . S
C1709 C1693 1.349 . S
C1709 H1701 0.950 . S
C1709 C1707 1.327 . S
C1710 C1698 1.349 . S
C1710 H1704 0.950 . S
C1710 C1711 1.327 . S
C1711 H1705 0.950 . S
C1711 C1710 1.327 . S
C1711 C1715 1.429 . S
C1712 C1695 1.574 . S
C1712 H1706 0.949 . S
C1712 C1716 1.368 . S
C1713 C1694 1.429 . S
C1713 C1707 1.429 . S
C1713 C1714 1.523 . S
C1714 C1695 1.368 . S
C1714 C1708 1.368 . S
C1714 C1713 1.523 . S
C1715 C1699 1.429 . S
C1715 C1711 1.429 . S
C1715 C1716 1.523 . S
C1716 C1700 1.368 . S
C1716 C1712 1.368 . S
C1716 C1715 1.523 . S
H1717 C1692 0.950 . S
H1718 C1694 0.950 . S
H1719 C1695 0.949 . S
H1720 C1697 0.950 . S
H1721 C1699 0.950 . S
C1722 C1723 1.349 . S
C1722 C1724 1.327 . S
C1722 H1747 0.950 . S
C1723 C1722 1.349 . S
C1723 C1739 1.349 . S
C1724 C1722 1.327 . S
C1724 C1743 1.429 . S
C1724 H1748 0.957 . S
C1725 C1742 1.574 . S
C1725 C1744 1.368 . S
C1725 H1749 0.949 . S
H1726 C1730 0.949 1_565 S
C1727 C1728 1.349 . S
C1727 C1729 1.327 . S
C1727 H1750 0.950 . S
C1728 C1727 1.349 . S
C1728 C1740 1.349 . S
C1729 C1727 1.327 . S
C1729 C1745 1.429 . S
C1729 H1751 0.950 . S
C1730 H1726 0.949 1_545 S
C1730 C1738 1.574 . S
C1730 C1746 1.368 . S
H1731 C1739 0.950 . S
H1732 C1737 0.950 . S
H1733 C1738 0.949 1_565 S
H1734 C1740 0.950 1_565 S
H1735 C1741 0.950 1_565 S
H1736 C1742 0.949 . S
C1737 H1732 0.950 . S
C1737 C1739 1.327 . S
C1737 C1743 1.429 . S
C1738 C1730 1.574 . S
C1738 H1733 0.949 1_545 S
C1738 C1744 1.368 . S
C1739 C1723 1.349 . S
C1739 H1731 0.950 . S
C1739 C1737 1.327 . S
C1740 C1728 1.349 . S
C1740 H1734 0.950 1_545 S
C1740 C1741 1.327 . S
C1741 H1735 0.950 1_545 S
C1741 C1740 1.327 . S
C1741 C1745 1.429 . S
C1742 C1725 1.574 . S
C1742 H1736 0.949 . S
C1742 C1746 1.368 . S
C1743 C1724 1.429 . S
C1743 C1737 1.429 . S
C1743 C1744 1.523 . S
C1744 C1725 1.368 . S
C1744 C1738 1.368 . S
C1744 C1743 1.523 . S
C1745 C1729 1.429 . S
C1745 C1741 1.429 . S
C1745 C1746 1.523 . S
C1746 C1730 1.368 . S
C1746 C1742 1.368 . S
C1746 C1745 1.523 . S
H1747 C1722 0.950 . S
H1748 C1724 0.957 . S
H1749 C1725 0.949 . S
H1750 C1727 0.950 . S
H1751 C1729 0.950 . S
C1752 C1753 1.349 . S
C1752 C1754 1.327 . S
C1752 H1777 0.950 . S
C1753 C1752 1.349 . S
C1753 C1769 1.349 . S
C1754 C1752 1.327 . S
C1754 C1773 1.429 . S
C1754 H1778 0.950 . S
C1755 C1772 1.574 . S
C1755 C1774 1.368 . S
C1755 H1779 0.949 . S
H1756 C1760 0.949 . S
C1757 C1758 1.349 . S
C1757 C1759 1.327 . S
C1757 H1780 0.950 . S
C1758 C1757 1.349 . S
C1758 C1770 1.349 . S
C1759 C1757 1.327 . S
C1759 C1775 1.429 . S
C1759 H1781 0.950 . S
C1760 H1756 0.949 . S
C1760 C1768 1.574 . S
C1760 C1776 1.368 . S
H1761 C1769 0.950 . S
H1762 C1767 0.950 . S
H1763 C1768 0.949 . S
H1764 C1770 0.950 . S
H1765 C1771 0.950 . S
H1766 C1772 0.949 . S
C1767 H1762 0.950 . S
C1767 C1769 1.327 . S
C1767 C1773 1.429 . S
C1768 C1760 1.574 . S
C1768 H1763 0.949 . S
C1768 C1774 1.368 . S
C1769 C1753 1.349 . S
C1769 H1761 0.950 . S
C1769 C1767 1.327 . S
C1770 C1758 1.349 . S
C1770 H1764 0.950 . S
C1770 C1771 1.327 . S
C1771 H1765 0.950 . S
C1771 C1770 1.327 . S
C1771 C1775 1.429 . S
C1772 C1755 1.574 . S
C1772 H1766 0.949 . S
C1772 C1776 1.368 . S
C1773 C1754 1.429 . S
C1773 C1767 1.429 . S
C1773 C1774 1.523 . S
C1774 C1755 1.368 . S
C1774 C1768 1.368 . S
C1774 C1773 1.523 . S
C1775 C1759 1.429 . S
C1775 C1771 1.429 . S
C1775 C1776 1.523 . S
C1776 C1760 1.368 . S
C1776 C1772 1.368 . S
C1776 C1775 1.523 . S
H1777 C1752 0.950 . S
H1778 C1754 0.950 . S
H1779 C1755 0.949 . S
H1780 C1757 0.950 . S
H1781 C1759 0.950 . S
C1782 C1783 1.349 . S
C1782 C1784 1.327 . S
C1782 H1807 0.950 . S
C1783 C1782 1.349 . S
C1783 C1799 1.349 . S
C1784 C1782 1.327 . S
C1784 C1803 1.429 . S
C1784 H1808 0.950 . S
C1785 C1802 1.574 . S
C1785 C1804 1.368 . S
C1785 H1809 0.949 . S
H1786 C1790 0.949 . S
C1787 C1788 1.349 . S
C1787 C1789 1.327 . S
C1787 H1810 0.950 . S
C1788 C1787 1.349 . S
C1788 C1800 1.349 . S
C1789 C1787 1.327 . S
C1789 C1805 1.429 . S
C1789 H1811 0.950 . S
C1790 H1786 0.949 . S
C1790 C1798 1.574 . S
C1790 C1806 1.368 . S
H1791 C1799 0.950 . S
H1792 C1797 0.950 . S
H1793 C1798 0.949 . S
H1794 C1800 0.950 . S
H1795 C1801 0.950 . S
H1796 C1802 0.949 . S
C1797 H1792 0.950 . S
C1797 C1799 1.327 . S
C1797 C1803 1.429 . S
C1798 C1790 1.574 . S
C1798 H1793 0.949 . S
C1798 C1804 1.368 . S
C1799 C1783 1.349 . S
C1799 H1791 0.950 . S
C1799 C1797 1.327 . S
C1800 C1788 1.349 . S
C1800 H1794 0.950 . S
C1800 C1801 1.327 . S
C1801 H1795 0.950 . S
C1801 C1800 1.327 . S
C1801 C1805 1.429 . S
C1802 C1785 1.574 . S
C1802 H1796 0.949 . S
C1802 C1806 1.368 . S
C1803 C1784 1.429 . S
C1803 C1797 1.429 . S
C1803 C1804 1.523 . S
C1804 C1785 1.368 . S
C1804 C1798 1.368 . S
C1804 C1803 1.523 . S
C1805 C1789 1.429 . S
C1805 C1801 1.429 . S
C1805 C1806 1.523 . S
C1806 C1790 1.368 . S
C1806 C1802 1.368 . S
C1806 C1805 1.523 . S
H1807 C1782 0.950 . S
H1808 C1784 0.950 . S
H1809 C1785 0.949 . S
H1810 C1787 0.950 . S
H1811 C1789 0.950 . S
C1812 C1813 1.349 . S
C1812 C1814 1.327 . S
C1812 H1837 0.950 . S
C1813 C1812 1.349 . S
C1813 C1829 1.349 . S
C1814 C1812 1.327 . S
C1814 C1833 1.429 . S
C1814 H1838 0.950 . S
C1815 C1832 1.574 . S
C1815 C1834 1.368 . S
C1815 H1839 0.949 . S
H1816 C1820 0.949 . S
C1817 C1818 1.349 . S
C1817 C1819 1.327 . S
C1817 H1840 0.950 . S
C1818 C1817 1.349 . S
C1818 C1830 1.349 . S
C1819 C1817 1.327 . S
C1819 C1835 1.429 . S
C1819 H1841 0.950 . S
C1820 H1816 0.949 . S
C1820 C1828 1.574 . S
C1820 C1836 1.368 . S
H1821 C1829 0.950 . S
H1822 C1827 0.950 . S
H1823 C1828 0.949 . S
H1824 C1830 0.950 . S
H1825 C1831 0.950 . S
H1826 C1832 0.949 . S
C1827 H1822 0.950 . S
C1827 C1829 1.327 . S
C1827 C1833 1.429 . S
C1828 C1820 1.574 . S
C1828 H1823 0.949 . S
C1828 C1834 1.368 . S
C1829 C1813 1.349 . S
C1829 H1821 0.950 . S
C1829 C1827 1.327 . S
C1830 C1818 1.349 . S
C1830 H1824 0.950 . S
C1830 C1831 1.327 . S
C1831 H1825 0.950 . S
C1831 C1830 1.327 . S
C1831 C1835 1.429 . S
C1832 C1815 1.574 . S
C1832 H1826 0.949 . S
C1832 C1836 1.368 . S
C1833 C1814 1.429 . S
C1833 C1827 1.429 . S
C1833 C1834 1.523 . S
C1834 C1815 1.368 . S
C1834 C1828 1.368 . S
C1834 C1833 1.523 . S
C1835 C1819 1.429 . S
C1835 C1831 1.429 . S
C1835 C1836 1.523 . S
C1836 C1820 1.368 . S
C1836 C1832 1.368 . S
C1836 C1835 1.523 . S
H1837 C1812 0.950 . S
H1838 C1814 0.950 . S
H1839 C1815 0.949 . S
H1840 C1817 0.950 . S
H1841 C1819 0.950 . S
C1842 C1843 1.349 . S
C1842 C1844 1.327 . S
C1842 H1867 0.950 . S
C1843 C1842 1.349 . S
C1843 C1859 1.349 . S
C1844 C1842 1.327 . S
C1844 C1863 1.429 . S
C1844 H1868 0.950 . S
C1845 C1862 1.574 . S
C1845 C1864 1.368 . S
C1845 H1869 0.949 . S
H1846 C1850 0.949 . S
C1847 C1848 1.349 . S
C1847 C1849 1.327 . S
C1847 H1870 0.950 . S
C1848 C1847 1.349 . S
C1848 C1860 1.349 . S
C1849 C1847 1.327 . S
C1849 C1865 1.429 . S
C1849 H1871 0.950 . S
C1850 H1846 0.949 . S
C1850 C1858 1.574 . S
C1850 C1866 1.368 . S
H1851 C1859 0.950 . S
H1852 C1857 0.950 . S
H1853 C1858 0.949 . S
H1854 C1860 0.950 . S
H1855 C1861 0.950 . S
H1856 C1862 0.949 . S
C1857 H1852 0.950 . S
C1857 C1859 1.327 . S
C1857 C1863 1.429 . S
C1858 C1850 1.574 . S
C1858 H1853 0.949 . S
C1858 C1864 1.368 . S
C1859 C1843 1.349 . S
C1859 H1851 0.950 . S
C1859 C1857 1.327 . S
C1860 C1848 1.349 . S
C1860 H1854 0.950 . S
C1860 C1861 1.327 . S
C1861 H1855 0.950 . S
C1861 C1860 1.327 . S
C1861 C1865 1.429 . S
C1862 C1845 1.574 . S
C1862 H1856 0.949 . S
C1862 C1866 1.368 . S
C1863 C1844 1.429 . S
C1863 C1857 1.429 . S
C1863 C1864 1.523 . S
C1864 C1845 1.368 . S
C1864 C1858 1.368 . S
C1864 C1863 1.523 . S
C1865 C1849 1.429 . S
C1865 C1861 1.429 . S
C1865 C1866 1.523 . S
C1866 C1850 1.368 . S
C1866 C1862 1.368 . S
C1866 C1865 1.523 . S
H1867 C1842 0.950 . S
H1868 C1844 0.950 . S
H1869 C1845 0.949 . S
H1870 C1847 0.950 . S
H1871 C1849 0.950 . S
C1872 C1873 1.349 . S
C1872 C1874 1.327 . S
C1872 H1897 0.950 . S
C1873 C1872 1.349 . S
C1873 C1889 1.349 . S
C1874 C1872 1.327 . S
C1874 C1893 1.429 . S
C1874 H1898 0.950 . S
C1875 C1892 1.574 . S
C1875 C1894 1.368 . S
C1875 H1899 0.949 . S
H1876 C1880 0.949 . S
C1877 C1878 1.349 . S
C1877 C1879 1.327 . S
C1877 H1900 0.950 . S
C1878 C1877 1.349 . S
C1878 C1890 1.349 . S
C1879 C1877 1.327 . S
C1879 C1895 1.429 . S
C1879 H1901 0.950 . S
C1880 H1876 0.949 . S
C1880 C1888 1.574 . S
C1880 C1896 1.368 . S
H1881 C1889 0.950 . S
H1882 C1887 0.950 . S
H1883 C1888 0.949 . S
H1884 C1890 0.950 . S
H1885 C1891 0.950 . S
H1886 C1892 0.949 . S
C1887 H1882 0.950 . S
C1887 C1889 1.327 . S
C1887 C1893 1.429 . S
C1888 C1880 1.574 . S
C1888 H1883 0.949 . S
C1888 C1894 1.368 . S
C1889 C1873 1.349 . S
C1889 H1881 0.950 . S
C1889 C1887 1.327 . S
C1890 C1878 1.349 . S
C1890 H1884 0.950 . S
C1890 C1891 1.327 . S
C1891 H1885 0.950 . S
C1891 C1890 1.327 . S
C1891 C1895 1.429 . S
C1892 C1875 1.574 . S
C1892 H1886 0.949 . S
C1892 C1896 1.368 . S
C1893 C1874 1.429 . S
C1893 C1887 1.429 . S
C1893 C1894 1.523 . S
C1894 C1875 1.368 . S
C1894 C1888 1.368 . S
C1894 C1893 1.523 . S
C1895 C1879 1.429 . S
C1895 C1891 1.429 . S
C1895 C1896 1.523 . S
C1896 C1880 1.368 . S
C1896 C1892 1.368 . S
C1896 C1895 1.523 . S
H1897 C1872 0.950 . S
H1898 C1874 0.950 . S
H1899 C1875 0.949 . S
H1900 C1877 0.950 . S
H1901 C1879 0.950 . S
C1902 C1903 1.349 . S
C1902 C1904 1.327 . S
C1902 H1927 0.950 . S
C1903 C1902 1.349 . S
C1903 C1919 1.349 . S
C1904 C1902 1.327 . S
C1904 C1923 1.429 . S
C1904 H1928 0.950 . S
C1905 C1922 1.574 . S
C1905 C1924 1.368 . S
C1905 H1929 0.949 . S
H1906 C1910 0.949 . S
C1907 C1908 1.349 . S
C1907 C1909 1.327 . S
C1907 H1930 0.950 . S
C1908 C1907 1.349 . S
C1908 C1920 1.349 . S
C1909 C1907 1.327 . S
C1909 C1925 1.429 . S
C1909 H1931 0.950 . S
C1910 H1906 0.949 . S
C1910 C1918 1.574 . S
C1910 C1926 1.368 . S
H1911 C1919 0.950 . S
H1912 C1917 0.950 . S
H1913 C1918 0.949 . S
H1914 C1920 0.950 . S
H1915 C1921 0.950 . S
H1916 C1922 0.949 . S
C1917 H1912 0.950 . S
C1917 C1919 1.327 . S
C1917 C1923 1.429 . S
C1918 C1910 1.574 . S
C1918 H1913 0.949 . S
C1918 C1924 1.368 . S
C1919 C1903 1.349 . S
C1919 H1911 0.950 . S
C1919 C1917 1.327 . S
C1920 C1908 1.349 . S
C1920 H1914 0.950 . S
C1920 C1921 1.327 . S
C1921 H1915 0.950 . S
C1921 C1920 1.327 . S
C1921 C1925 1.429 . S
C1922 C1905 1.574 . S
C1922 H1916 0.949 . S
C1922 C1926 1.368 . S
C1923 C1904 1.429 . S
C1923 C1917 1.429 . S
C1923 C1924 1.523 . S
C1924 C1905 1.368 . S
C1924 C1918 1.368 . S
C1924 C1923 1.523 . S
C1925 C1909 1.429 . S
C1925 C1921 1.429 . S
C1925 C1926 1.523 . S
C1926 C1910 1.368 . S
C1926 C1922 1.368 . S
C1926 C1925 1.523 . S
H1927 C1902 0.950 . S
H1928 C1904 0.950 . S
H1929 C1905 0.949 . S
H1930 C1907 0.950 . S
H1931 C1909 0.950 . S
C1932 C1933 1.349 . S
C1932 C1934 1.327 . S
C1932 H1957 0.950 . S
C1933 C1932 1.349 . S
C1933 C1949 1.349 . S
C1934 C1932 1.327 . S
C1934 C1953 1.429 . S
C1934 H1958 0.950 . S
C1935 C1952 1.574 . S
C1935 C1954 1.368 . S
C1935 H1959 0.949 . S
H1936 C1940 0.949 . S
C1937 C1938 1.349 . S
C1937 C1939 1.327 . S
C1937 H1960 0.950 . S
C1938 C1937 1.349 . S
C1938 C1950 1.349 . S
C1939 C1937 1.327 . S
C1939 C1955 1.429 . S
C1939 H1961 0.950 . S
C1940 H1936 0.949 . S
C1940 C1948 1.574 . S
C1940 C1956 1.368 . S
H1941 C1949 0.950 . S
H1942 C1947 0.950 . S
H1943 C1948 0.949 . S
H1944 C1950 0.950 . S
H1945 C1951 0.950 . S
H1946 C1952 0.949 . S
C1947 H1942 0.950 . S
C1947 C1949 1.327 . S
C1947 C1953 1.429 . S
C1948 C1940 1.574 . S
C1948 H1943 0.949 . S
C1948 C1954 1.368 . S
C1949 C1933 1.349 . S
C1949 H1941 0.950 . S
C1949 C1947 1.327 . S
C1950 C1938 1.349 . S
C1950 H1944 0.950 . S
C1950 C1951 1.327 . S
C1951 H1945 0.950 . S
C1951 C1950 1.327 . S
C1951 C1955 1.429 . S
C1952 C1935 1.574 . S
C1952 H1946 0.949 . S
C1952 C1956 1.368 . S
C1953 C1934 1.429 . S
C1953 C1947 1.429 . S
C1953 C1954 1.523 . S
C1954 C1935 1.368 . S
C1954 C1948 1.368 . S
C1954 C1953 1.523 . S
C1955 C1939 1.429 . S
C1955 C1951 1.429 . S
C1955 C1956 1.523 . S
C1956 C1940 1.368 . S
C1956 C1952 1.368 . S
C1956 C1955 1.523 . S
H1957 C1932 0.950 . S
H1958 C1934 0.950 . S
H1959 C1935 0.949 . S
H1960 C1937 0.950 . S
H1961 C1939 0.950 . S
C1962 C1963 1.349 . S
C1962 C1964 1.327 . S
C1962 H1987 0.950 . S
C1963 C1962 1.349 . S
C1963 C1979 1.349 . S
C1964 C1962 1.327 . S
C1964 C1983 1.429 . S
C1964 H1988 0.950 . S
C1965 C1982 1.574 . S
C1965 C1984 1.368 . S
C1965 H1989 0.949 . S
H1966 C1970 0.949 . S
C1967 C1968 1.349 . S
C1967 C1969 1.327 . S
C1967 H1990 0.950 . S
C1968 C1967 1.349 . S
C1968 C1980 1.349 . S
C1969 C1967 1.327 . S
C1969 C1985 1.429 . S
C1969 H1991 0.950 . S
C1970 H1966 0.949 . S
C1970 C1978 1.574 . S
C1970 C1986 1.368 . S
H1971 C1979 0.950 . S
H1972 C1977 0.950 . S
H1973 C1978 0.949 . S
H1974 C1980 0.950 . S
H1975 C1981 0.950 . S
H1976 C1982 0.949 . S
C1977 H1972 0.950 . S
C1977 C1979 1.327 . S
C1977 C1983 1.429 . S
C1978 C1970 1.574 . S
C1978 H1973 0.949 . S
C1978 C1984 1.368 . S
C1979 C1963 1.349 . S
C1979 H1971 0.950 . S
C1979 C1977 1.327 . S
C1980 C1968 1.349 . S
C1980 H1974 0.950 . S
C1980 C1981 1.327 . S
C1981 H1975 0.950 . S
C1981 C1980 1.327 . S
C1981 C1985 1.429 . S
C1982 C1965 1.574 . S
C1982 H1976 0.949 . S
C1982 C1986 1.368 . S
C1983 C1964 1.429 . S
C1983 C1977 1.429 . S
C1983 C1984 1.523 . S
C1984 C1965 1.368 . S
C1984 C1978 1.368 . S
C1984 C1983 1.523 . S
C1985 C1969 1.429 . S
C1985 C1981 1.429 . S
C1985 C1986 1.523 . S
C1986 C1970 1.368 . S
C1986 C1982 1.368 . S
C1986 C1985 1.523 . S
H1987 C1962 0.950 . S
H1988 C1964 0.950 . S
H1989 C1965 0.949 . S
H1990 C1967 0.950 . S
H1991 C1969 0.950 . S
C1992 C1993 1.349 . S
C1992 C1994 1.327 . S
C1992 H2017 0.950 . S
C1993 C1992 1.349 . S
C1993 C2009 1.349 . S
C1994 C1992 1.327 . S
C1994 C2013 1.429 . S
C1994 H2018 0.950 . S
C1995 C2012 1.574 . S
C1995 C2014 1.368 . S
C1995 H2019 0.949 . S
H1996 C2000 0.949 . S
C1997 C1998 1.349 . S
C1997 C1999 1.327 . S
C1997 H2020 0.950 . S
C1998 C1997 1.349 . S
C1998 C2010 1.349 . S
C1999 C1997 1.327 . S
C1999 C2015 1.429 . S
C1999 H2021 0.950 . S
C2000 H1996 0.949 . S
C2000 C2008 1.574 . S
C2000 C2016 1.368 . S
H2001 C2009 0.950 . S
H2002 C2007 0.950 . S
H2003 C2008 0.949 . S
H2004 C2010 0.950 . S
H2005 C2011 0.950 . S
H2006 C2012 0.949 . S
C2007 H2002 0.950 . S
C2007 C2009 1.327 . S
C2007 C2013 1.429 . S
C2008 C2000 1.574 . S
C2008 H2003 0.949 . S
C2008 C2014 1.368 . S
C2009 C1993 1.349 . S
C2009 H2001 0.950 . S
C2009 C2007 1.327 . S
C2010 C1998 1.349 . S
C2010 H2004 0.950 . S
C2010 C2011 1.327 . S
C2011 H2005 0.950 . S
C2011 C2010 1.327 . S
C2011 C2015 1.429 . S
C2012 C1995 1.574 . S
C2012 H2006 0.949 . S
C2012 C2016 1.368 . S
C2013 C1994 1.429 . S
C2013 C2007 1.429 . S
C2013 C2014 1.523 . S
C2014 C1995 1.368 . S
C2014 C2008 1.368 . S
C2014 C2013 1.523 . S
C2015 C1999 1.429 . S
C2015 C2011 1.429 . S
C2015 C2016 1.523 . S
C2016 C2000 1.368 . S
C2016 C2012 1.368 . S
C2016 C2015 1.523 . S
H2017 C1992 0.950 . S
H2018 C1994 0.950 . S
H2019 C1995 0.949 . S
H2020 C1997 0.950 . S
H2021 C1999 0.950 . S
C2022 C2023 1.349 . S
C2022 C2024 1.327 . S
C2022 H2047 0.950 . S
C2023 C2022 1.349 . S
C2023 C2039 1.349 . S
C2024 C2022 1.327 . S
C2024 C2043 1.429 . S
C2024 H2048 0.950 . S
C2025 C2042 1.574 . S
C2025 C2044 1.368 . S
C2025 H2049 0.949 . S
H2026 C2030 0.949 . S
C2027 C2028 1.349 . S
C2027 C2029 1.327 . S
C2027 H2050 0.950 . S
C2028 C2027 1.349 . S
C2028 C2040 1.349 . S
C2029 C2027 1.327 . S
C2029 C2045 1.429 . S
C2029 H2051 0.950 . S
C2030 H2026 0.949 . S
C2030 C2038 1.574 . S
C2030 C2046 1.368 . S
H2031 C2039 0.950 . S
H2032 C2037 0.950 . S
H2033 C2038 0.949 . S
H2034 C2040 0.950 . S
H2035 C2041 0.950 . S
H2036 C2042 0.949 . S
C2037 H2032 0.950 . S
C2037 C2039 1.327 . S
C2037 C2043 1.429 . S
C2038 C2030 1.574 . S
C2038 H2033 0.949 . S
C2038 C2044 1.368 . S
C2039 C2023 1.349 . S
C2039 H2031 0.950 . S
C2039 C2037 1.327 . S
C2040 C2028 1.349 . S
C2040 H2034 0.950 . S
C2040 C2041 1.327 . S
C2041 H2035 0.950 . S
C2041 C2040 1.327 . S
C2041 C2045 1.429 . S
C2042 C2025 1.574 . S
C2042 H2036 0.949 . S
C2042 C2046 1.368 . S
C2043 C2024 1.429 . S
C2043 C2037 1.429 . S
C2043 C2044 1.523 . S
C2044 C2025 1.368 . S
C2044 C2038 1.368 . S
C2044 C2043 1.523 . S
C2045 C2029 1.429 . S
C2045 C2041 1.429 . S
C2045 C2046 1.523 . S
C2046 C2030 1.368 . S
C2046 C2042 1.368 . S
C2046 C2045 1.523 . S
H2047 C2022 0.950 . S
H2048 C2024 0.950 . S
H2049 C2025 0.949 . S
H2050 C2027 0.950 . S
H2051 C2029 0.950 . S
C2052 C2053 1.349 . S
C2052 C2054 1.327 . S
C2052 H2077 0.950 . S
C2053 C2052 1.349 . S
C2053 C2069 1.349 . S
C2054 C2052 1.327 . S
C2054 C2073 1.429 . S
C2054 H2078 0.950 . S
C2055 C2072 1.574 . S
C2055 C2074 1.368 . S
C2055 H2079 0.949 . S
H2056 C2060 0.949 . S
C2057 C2058 1.349 . S
C2057 C2059 1.327 . S
C2057 H2080 0.950 . S
C2058 C2057 1.349 . S
C2058 C2070 1.349 . S
C2059 C2057 1.327 . S
C2059 C2075 1.429 . S
C2059 H2081 0.950 . S
C2060 H2056 0.949 . S
C2060 C2068 1.574 . S
C2060 C2076 1.368 . S
H2061 C2069 0.950 . S
H2062 C2067 0.950 . S
H2063 C2068 0.949 . S
H2064 C2070 0.950 . S
H2065 C2071 0.950 . S
H2066 C2072 0.949 . S
C2067 H2062 0.950 . S
C2067 C2069 1.327 . S
C2067 C2073 1.429 . S
C2068 C2060 1.574 . S
C2068 H2063 0.949 . S
C2068 C2074 1.368 . S
C2069 C2053 1.349 . S
C2069 H2061 0.950 . S
C2069 C2067 1.327 . S
C2070 C2058 1.349 . S
C2070 H2064 0.950 . S
C2070 C2071 1.327 . S
C2071 H2065 0.950 . S
C2071 C2070 1.327 . S
C2071 C2075 1.429 . S
C2072 C2055 1.574 . S
C2072 H2066 0.949 . S
C2072 C2076 1.368 . S
C2073 C2054 1.429 . S
C2073 C2067 1.429 . S
C2073 C2074 1.523 . S
C2074 C2055 1.368 . S
C2074 C2068 1.368 . S
C2074 C2073 1.523 . S
C2075 C2059 1.429 . S
C2075 C2071 1.429 . S
C2075 C2076 1.523 . S
C2076 C2060 1.368 . S
C2076 C2072 1.368 . S
C2076 C2075 1.523 . S
H2077 C2052 0.950 . S
H2078 C2054 0.950 . S
H2079 C2055 0.949 . S
H2080 C2057 0.950 . S
H2081 C2059 0.950 . S
C2082 C2083 1.349 . S
C2082 C2084 1.327 . S
C2082 H2107 0.950 . S
C2083 C2082 1.349 . S
C2083 C2099 1.349 . S
C2084 C2082 1.327 . S
C2084 C2103 1.429 . S
C2084 H2108 0.950 . S
C2085 C2102 1.574 . S
C2085 C2104 1.368 . S
C2085 H2109 0.949 . S
H2086 C2090 0.949 . S
C2087 C2088 1.349 . S
C2087 C2089 1.327 . S
C2087 H2110 0.950 . S
C2088 C2087 1.349 . S
C2088 C2100 1.349 . S
C2089 C2087 1.327 . S
C2089 C2105 1.429 . S
C2089 H2111 0.950 . S
C2090 H2086 0.949 . S
C2090 C2098 1.574 . S
C2090 C2106 1.368 . S
H2091 C2099 0.950 . S
H2092 C2097 0.950 . S
H2093 C2098 0.949 . S
H2094 C2100 0.950 . S
H2095 C2101 0.950 . S
H2096 C2102 0.949 . S
C2097 H2092 0.950 . S
C2097 C2099 1.327 . S
C2097 C2103 1.429 . S
C2098 C2090 1.574 . S
C2098 H2093 0.949 . S
C2098 C2104 1.368 . S
C2099 C2083 1.349 . S
C2099 H2091 0.950 . S
C2099 C2097 1.327 . S
C2100 C2088 1.349 . S
C2100 H2094 0.950 . S
C2100 C2101 1.327 . S
C2101 H2095 0.950 . S
C2101 C2100 1.327 . S
C2101 C2105 1.429 . S
C2102 C2085 1.574 . S
C2102 H2096 0.949 . S
C2102 C2106 1.368 . S
C2103 C2084 1.429 . S
C2103 C2097 1.429 . S
C2103 C2104 1.523 . S
C2104 C2085 1.368 . S
C2104 C2098 1.368 . S
C2104 C2103 1.523 . S
C2105 C2089 1.429 . S
C2105 C2101 1.429 . S
C2105 C2106 1.523 . S
C2106 C2090 1.368 . S
C2106 C2102 1.368 . S
C2106 C2105 1.523 . S
H2107 C2082 0.950 . S
H2108 C2084 0.950 . S
H2109 C2085 0.949 . S
H2110 C2087 0.950 . S
H2111 C2089 0.950 . S
C2112 C2113 1.349 . S
C2112 C2114 1.327 . S
C2112 H2137 0.950 . S
C2113 C2112 1.349 . S
C2113 C2129 1.349 . S
C2114 C2112 1.327 . S
C2114 C2133 1.429 . S
C2114 H2138 0.950 . S
C2115 C2132 1.574 . S
C2115 C2134 1.368 . S
C2115 H2139 0.949 . S
H2116 C2120 0.949 . S
C2117 C2118 1.349 . S
C2117 C2119 1.327 . S
C2117 H2140 0.950 . S
C2118 C2117 1.349 . S
C2118 C2130 1.349 . S
C2119 C2117 1.327 . S
C2119 C2135 1.429 . S
C2119 H2141 0.950 . S
C2120 H2116 0.949 . S
C2120 C2128 1.574 . S
C2120 C2136 1.368 . S
H2121 C2129 0.950 . S
H2122 C2127 0.950 . S
H2123 C2128 0.949 . S
H2124 C2130 0.950 . S
H2125 C2131 0.950 . S
H2126 C2132 0.949 . S
C2127 H2122 0.950 . S
C2127 C2129 1.327 . S
C2127 C2133 1.429 . S
C2128 C2120 1.574 . S
C2128 H2123 0.949 . S
C2128 C2134 1.368 . S
C2129 C2113 1.349 . S
C2129 H2121 0.950 . S
C2129 C2127 1.327 . S
C2130 C2118 1.349 . S
C2130 H2124 0.950 . S
C2130 C2131 1.327 . S
C2131 H2125 0.950 . S
C2131 C2130 1.327 . S
C2131 C2135 1.429 . S
C2132 C2115 1.574 . S
C2132 H2126 0.949 . S
C2132 C2136 1.368 . S
C2133 C2114 1.429 . S
C2133 C2127 1.429 . S
C2133 C2134 1.523 . S
C2134 C2115 1.368 . S
C2134 C2128 1.368 . S
C2134 C2133 1.523 . S
C2135 C2119 1.429 . S
C2135 C2131 1.429 . S
C2135 C2136 1.523 . S
C2136 C2120 1.368 . S
C2136 C2132 1.368 . S
C2136 C2135 1.523 . S
H2137 C2112 0.950 . S
H2138 C2114 0.950 . S
H2139 C2115 0.949 . S
H2140 C2117 0.950 . S
H2141 C2119 0.950 . S
C2142 C2143 1.349 . S
C2142 C2144 1.327 . S
C2142 H2167 0.950 . S
C2143 C2142 1.349 . S
C2143 C2159 1.349 . S
C2144 C2142 1.327 . S
C2144 C2163 1.429 . S
C2144 H2168 0.950 . S
C2145 C2162 1.574 . S
C2145 C2164 1.368 . S
C2145 H2169 0.949 . S
H2146 C2150 0.949 . S
C2147 C2148 1.349 . S
C2147 C2149 1.327 . S
C2147 H2170 0.950 . S
C2148 C2147 1.349 . S
C2148 C2160 1.349 . S
C2149 C2147 1.327 . S
C2149 C2165 1.429 . S
C2149 H2171 0.950 . S
C2150 H2146 0.949 . S
C2150 C2158 1.574 . S
C2150 C2166 1.368 . S
H2151 C2159 0.950 . S
H2152 C2157 0.950 . S
H2153 C2158 0.949 . S
H2154 C2160 0.950 . S
H2155 C2161 0.950 . S
H2156 C2162 0.949 . S
C2157 H2152 0.950 . S
C2157 C2159 1.327 . S
C2157 C2163 1.429 . S
C2158 C2150 1.574 . S
C2158 H2153 0.949 . S
C2158 C2164 1.368 . S
C2159 C2143 1.349 . S
C2159 H2151 0.950 . S
C2159 C2157 1.327 . S
C2160 C2148 1.349 . S
C2160 H2154 0.950 . S
C2160 C2161 1.327 . S
C2161 H2155 0.950 . S
C2161 C2160 1.327 . S
C2161 C2165 1.429 . S
C2162 C2145 1.574 . S
C2162 H2156 0.949 . S
C2162 C2166 1.368 . S
C2163 C2144 1.429 . S
C2163 C2157 1.429 . S
C2163 C2164 1.523 . S
C2164 C2145 1.368 . S
C2164 C2158 1.368 . S
C2164 C2163 1.523 . S
C2165 C2149 1.429 . S
C2165 C2161 1.429 . S
C2165 C2166 1.523 . S
C2166 C2150 1.368 . S
C2166 C2162 1.368 . S
C2166 C2165 1.523 . S
H2167 C2142 0.950 . S
H2168 C2144 0.950 . S
H2169 C2145 0.949 . S
H2170 C2147 0.950 . S
H2171 C2149 0.950 . S
C2172 C2173 1.349 . S
C2172 C2174 1.327 . S
C2172 H2197 0.950 . S
C2173 C2172 1.349 . S
C2173 C2189 1.349 . S
C2174 C2172 1.327 . S
C2174 C2193 1.429 . S
C2174 H2198 0.950 . S
C2175 C2192 1.574 . S
C2175 C2194 1.368 . S
C2175 H2199 0.949 . S
H2176 C2180 0.949 . S
C2177 C2178 1.349 . S
C2177 C2179 1.327 . S
C2177 H2200 0.950 . S
C2178 C2177 1.349 . S
C2178 C2190 1.349 . S
C2179 C2177 1.327 . S
C2179 C2195 1.429 . S
C2179 H2201 0.950 . S
C2180 H2176 0.949 . S
C2180 C2188 1.574 . S
C2180 C2196 1.368 . S
H2181 C2189 0.976 . S
H2182 C2187 0.950 . S
H2183 C2188 0.949 . S
H2184 C2190 0.950 . S
H2185 C2191 0.950 . S
H2186 C2192 0.949 . S
C2187 H2182 0.950 . S
C2187 C2189 1.327 . S
C2187 C2193 1.429 . S
C2188 C2180 1.574 . S
C2188 H2183 0.949 . S
C2188 C2194 1.368 . S
C2189 C2173 1.349 . S
C2189 H2181 0.976 . S
C2189 C2187 1.327 . S
C2190 C2178 1.349 . S
C2190 H2184 0.950 . S
C2190 C2191 1.327 . S
C2191 H2185 0.950 . S
C2191 C2190 1.327 . S
C2191 C2195 1.429 . S
C2192 C2175 1.574 . S
C2192 H2186 0.949 . S
C2192 C2196 1.368 . S
C2193 C2174 1.429 . S
C2193 C2187 1.429 . S
C2193 C2194 1.523 . S
C2194 C2175 1.368 . S
C2194 C2188 1.368 . S
C2194 C2193 1.523 . S
C2195 C2179 1.429 . S
C2195 C2191 1.429 . S
C2195 C2196 1.523 . S
C2196 C2180 1.368 . S
C2196 C2192 1.368 . S
C2196 C2195 1.523 . S
H2197 C2172 0.950 . S
H2198 C2174 0.950 . S
H2199 C2175 0.949 . S
H2200 C2177 0.950 . S
H2201 C2179 0.950 . S
C2202 C2203 1.349 . S
C2202 C2204 1.327 . S
C2202 H2227 0.950 . S
C2203 C2202 1.349 . S
C2203 C2219 1.349 . S
C2204 C2202 1.327 . S
C2204 C2223 1.429 . S
C2204 H2228 0.950 . S
C2205 C2222 1.574 . S
C2205 C2224 1.368 . S
C2205 H2229 0.949 . S
H2206 C2210 0.949 . S
C2207 C2208 1.349 . S
C2207 C2209 1.327 . S
C2207 H2230 0.950 . S
C2208 C2207 1.349 . S
C2208 C2220 1.349 . S
C2209 C2207 1.327 . S
C2209 C2225 1.429 . S
C2209 H2231 0.950 . S
C2210 H2206 0.949 . S
C2210 C2218 1.574 . S
C2210 C2226 1.368 . S
H2211 C2219 0.950 . S
H2212 C2217 0.950 . S
H2213 C2218 0.949 . S
H2214 C2220 0.950 . S
H2215 C2221 0.950 . S
H2216 C2222 0.949 . S
C2217 H2212 0.950 . S
C2217 C2219 1.327 . S
C2217 C2223 1.429 . S
C2218 C2210 1.574 . S
C2218 H2213 0.949 . S
C2218 C2224 1.368 . S
C2219 C2203 1.349 . S
C2219 H2211 0.950 . S
C2219 C2217 1.327 . S
C2220 C2208 1.349 . S
C2220 H2214 0.950 . S
C2220 C2221 1.327 . S
C2221 H2215 0.950 . S
C2221 C2220 1.327 . S
C2221 C2225 1.429 . S
C2222 C2205 1.574 . S
C2222 H2216 0.949 . S
C2222 C2226 1.368 . S
C2223 C2204 1.429 . S
C2223 C2217 1.429 . S
C2223 C2224 1.523 . S
C2224 C2205 1.368 . S
C2224 C2218 1.368 . S
C2224 C2223 1.523 . S
C2225 C2209 1.429 . S
C2225 C2221 1.429 . S
C2225 C2226 1.523 . S
C2226 C2210 1.368 . S
C2226 C2222 1.368 . S
C2226 C2225 1.523 . S
H2227 C2202 0.950 . S
H2228 C2204 0.950 . S
H2229 C2205 0.949 . S
H2230 C2207 0.950 . S
H2231 C2209 0.950 . S
C2232 C2233 1.349 . S
C2232 C2234 1.327 . S
C2232 H2257 0.950 . S
C2233 C2232 1.349 . S
C2233 C2249 1.349 . S
C2234 C2232 1.327 . S
C2234 C2253 1.429 . S
C2234 H2258 0.950 . S
C2235 C2252 1.574 . S
C2235 C2254 1.368 . S
C2235 H2259 0.949 . S
H2236 C2240 0.949 . S
C2237 C2238 1.349 . S
C2237 C2239 1.327 . S
C2237 H2260 0.950 . S
C2238 C2237 1.349 . S
C2238 C2250 1.349 . S
C2239 C2237 1.327 . S
C2239 C2255 1.429 . S
C2239 H2261 0.950 . S
C2240 H2236 0.949 . S
C2240 C2248 1.574 . S
C2240 C2256 1.368 . S
H2241 C2249 0.950 . S
H2242 C2247 0.950 . S
H2243 C2248 0.949 . S
H2244 C2250 0.950 . S
H2245 C2251 0.950 . S
H2246 C2252 0.949 . S
C2247 H2242 0.950 . S
C2247 C2249 1.327 . S
C2247 C2253 1.429 . S
C2248 C2240 1.574 . S
C2248 H2243 0.949 . S
C2248 C2254 1.368 . S
C2249 C2233 1.349 . S
C2249 H2241 0.950 . S
C2249 C2247 1.327 . S
C2250 C2238 1.349 . S
C2250 H2244 0.950 . S
C2250 C2251 1.327 . S
C2251 H2245 0.950 . S
C2251 C2250 1.327 . S
C2251 C2255 1.429 . S
C2252 C2235 1.574 . S
C2252 H2246 0.949 . S
C2252 C2256 1.368 . S
C2253 C2234 1.429 . S
C2253 C2247 1.429 . S
C2253 C2254 1.523 . S
C2254 C2235 1.368 . S
C2254 C2248 1.368 . S
C2254 C2253 1.523 . S
C2255 C2239 1.429 . S
C2255 C2251 1.429 . S
C2255 C2256 1.523 . S
C2256 C2240 1.368 . S
C2256 C2252 1.368 . S
C2256 C2255 1.523 . S
H2257 C2232 0.950 . S
H2258 C2234 0.950 . S
H2259 C2235 0.949 . S
H2260 C2237 0.950 . S
H2261 C2239 0.950 . S
C2262 C2263 1.349 . S
C2262 C2264 1.327 . S
C2262 H2287 0.950 . S
C2263 C2262 1.349 . S
C2263 C2279 1.349 . S
C2264 C2262 1.327 . S
C2264 C2283 1.429 . S
C2264 H2288 0.950 . S
C2265 C2282 1.574 . S
C2265 C2284 1.368 . S
C2265 H2289 0.949 . S
H2266 C2270 0.949 . S
C2267 C2268 1.349 . S
C2267 C2269 1.327 . S
C2267 H2290 0.950 . S
C2268 C2267 1.349 . S
C2268 C2280 1.349 . S
C2269 C2267 1.327 . S
C2269 C2285 1.429 . S
C2269 H2291 0.950 . S
C2270 H2266 0.949 . S
C2270 C2278 1.574 . S
C2270 C2286 1.368 . S
H2271 C2279 0.950 . S
H2272 C2277 0.950 . S
H2273 C2278 0.949 . S
H2274 C2280 0.950 . S
H2275 C2281 0.950 . S
H2276 C2282 0.949 . S
C2277 H2272 0.950 . S
C2277 C2279 1.327 . S
C2277 C2283 1.429 . S
C2278 C2270 1.574 . S
C2278 H2273 0.949 . S
C2278 C2284 1.368 . S
C2279 C2263 1.349 . S
C2279 H2271 0.950 . S
C2279 C2277 1.327 . S
C2280 C2268 1.349 . S
C2280 H2274 0.950 . S
C2280 C2281 1.327 . S
C2281 H2275 0.950 . S
C2281 C2280 1.327 . S
C2281 C2285 1.429 . S
C2282 C2265 1.574 . S
C2282 H2276 0.949 . S
C2282 C2286 1.368 . S
C2283 C2264 1.429 . S
C2283 C2277 1.429 . S
C2283 C2284 1.523 . S
C2284 C2265 1.368 . S
C2284 C2278 1.368 . S
C2284 C2283 1.523 . S
C2285 C2269 1.429 . S
C2285 C2281 1.429 . S
C2285 C2286 1.523 . S
C2286 C2270 1.368 . S
C2286 C2282 1.368 . S
C2286 C2285 1.523 . S
H2287 C2262 0.950 . S
H2288 C2264 0.950 . S
H2289 C2265 0.949 . S
H2290 C2267 0.950 . S
H2291 C2269 0.950 . S
C2292 C2293 1.349 . S
C2292 C2294 1.327 . S
C2292 H2317 0.950 . S
C2293 C2292 1.349 . S
C2293 C2309 1.349 . S
C2294 C2292 1.327 . S
C2294 C2313 1.429 . S
C2294 H2318 0.950 . S
C2295 C2312 1.574 . S
C2295 C2314 1.368 . S
C2295 H2319 0.949 . S
H2296 C2300 0.949 . S
C2297 C2298 1.356 . S
C2297 C2299 1.327 . S
C2297 H2320 0.950 . S
C2298 C2297 1.356 . S
C2298 C2310 1.352 . S
C2299 C2297 1.327 . S
C2299 C2315 1.429 . S
C2299 H2321 0.950 . S
C2300 H2296 0.949 . S
C2300 C2308 1.574 . S
C2300 C2316 1.368 . S
H2301 C2309 0.950 . S
H2302 C2307 0.950 . S
H2303 C2308 0.949 . S
H2304 C2310 0.939 1_565 S
H2305 C2311 0.950 . S
H2306 C2312 0.949 . S
C2307 H2302 0.950 . S
C2307 C2309 1.327 . S
C2307 C2313 1.429 . S
C2308 C2300 1.574 . S
C2308 H2303 0.949 . S
C2308 C2314 1.368 . S
C2309 C2293 1.349 . S
C2309 H2301 0.950 . S
C2309 C2307 1.327 . S
C2310 C2298 1.352 . S
C2310 H2304 0.939 1_545 S
C2310 C2311 1.327 . S
C2311 H2305 0.950 . S
C2311 C2310 1.327 . S
C2311 C2315 1.429 . S
C2312 C2295 1.574 . S
C2312 H2306 0.949 . S
C2312 C2316 1.368 . S
C2313 C2294 1.429 . S
C2313 C2307 1.429 . S
C2313 C2314 1.523 . S
C2314 C2295 1.368 . S
C2314 C2308 1.368 . S
C2314 C2313 1.523 . S
C2315 C2299 1.429 . S
C2315 C2311 1.429 . S
C2315 C2316 1.523 . S
C2316 C2300 1.368 . S
C2316 C2312 1.368 . S
C2316 C2315 1.523 . S
H2317 C2292 0.950 . S
H2318 C2294 0.950 . S
H2319 C2295 0.949 . S
H2320 C2297 0.950 . S
H2321 C2299 0.950 . S
C2322 C2323 1.349 . S
C2322 C2324 1.327 . S
C2322 H2347 0.950 . S
C2323 C2322 1.349 . S
C2323 C2339 1.349 . S
C2324 C2322 1.327 . S
C2324 C2343 1.429 . S
C2324 H2348 0.950 . S
C2325 C2342 1.574 . S
C2325 C2344 1.368 . S
C2325 H2349 0.949 . S
H2326 C2330 0.949 . S
C2327 C2328 1.349 . S
C2327 C2329 1.327 . S
C2327 H2350 0.950 . S
C2328 C2327 1.349 . S
C2328 C2340 1.349 . S
C2329 C2327 1.327 . S
C2329 C2345 1.429 . S
C2329 H2351 0.950 . S
C2330 H2326 0.949 . S
C2330 C2338 1.574 . S
C2330 C2346 1.368 . S
H2331 C2339 0.950 . S
H2332 C2337 0.950 . S
H2333 C2338 0.949 . S
H2334 C2340 0.950 . S
H2335 C2341 0.950 . S
H2336 C2342 0.949 . S
C2337 H2332 0.950 . S
C2337 C2339 1.327 . S
C2337 C2343 1.429 . S
C2338 C2330 1.574 . S
C2338 H2333 0.949 . S
C2338 C2344 1.368 . S
C2339 C2323 1.349 . S
C2339 H2331 0.950 . S
C2339 C2337 1.327 . S
C2340 C2328 1.349 . S
C2340 H2334 0.950 . S
C2340 C2341 1.327 . S
C2341 H2335 0.950 . S
C2341 C2340 1.327 . S
C2341 C2345 1.429 . S
C2342 C2325 1.574 . S
C2342 H2336 0.949 . S
C2342 C2346 1.368 . S
C2343 C2324 1.429 . S
C2343 C2337 1.429 . S
C2343 C2344 1.523 . S
C2344 C2325 1.368 . S
C2344 C2338 1.368 . S
C2344 C2343 1.523 . S
C2345 C2329 1.429 . S
C2345 C2341 1.429 . S
C2345 C2346 1.523 . S
C2346 C2330 1.368 . S
C2346 C2342 1.368 . S
C2346 C2345 1.523 . S
H2347 C2322 0.950 . S
H2348 C2324 0.950 . S
H2349 C2325 0.949 . S
H2350 C2327 0.950 . S
H2351 C2329 0.950 . S
C2352 C2353 1.349 . S
C2352 C2354 1.327 . S
C2352 H2377 0.950 . S
C2353 C2352 1.349 . S
C2353 C2369 1.349 . S
C2354 C2352 1.327 . S
C2354 C2373 1.429 . S
C2354 H2378 0.950 . S
C2355 C2372 1.574 . S
C2355 C2374 1.368 . S
C2355 H2379 0.949 . S
H2356 C2360 0.949 . S
C2357 C2358 1.349 . S
C2357 C2359 1.327 . S
C2357 H2380 0.950 . S
C2358 C2357 1.349 . S
C2358 C2370 1.349 . S
C2359 C2357 1.327 . S
C2359 C2375 1.429 . S
C2359 H2381 0.950 . S
C2360 H2356 0.949 . S
C2360 C2368 1.574 . S
C2360 C2376 1.368 . S
H2361 C2369 0.950 . S
H2362 C2367 0.950 . S
H2363 C2368 0.949 . S
H2364 C2370 0.950 . S
H2365 C2371 0.950 . S
H2366 C2372 0.949 . S
C2367 H2362 0.950 . S
C2367 C2369 1.327 . S
C2367 C2373 1.429 . S
C2368 C2360 1.574 . S
C2368 H2363 0.949 . S
C2368 C2374 1.368 . S
C2369 C2353 1.349 . S
C2369 H2361 0.950 . S
C2369 C2367 1.327 . S
C2370 C2358 1.349 . S
C2370 H2364 0.950 . S
C2370 C2371 1.327 . S
C2371 H2365 0.950 . S
C2371 C2370 1.327 . S
C2371 C2375 1.429 . S
C2372 C2355 1.574 . S
C2372 H2366 0.949 . S
C2372 C2376 1.368 . S
C2373 C2354 1.429 . S
C2373 C2367 1.429 . S
C2373 C2374 1.523 . S
C2374 C2355 1.368 . S
C2374 C2368 1.368 . S
C2374 C2373 1.523 . S
C2375 C2359 1.429 . S
C2375 C2371 1.429 . S
C2375 C2376 1.523 . S
C2376 C2360 1.368 . S
C2376 C2372 1.368 . S
C2376 C2375 1.523 . S
H2377 C2352 0.950 . S
H2378 C2354 0.950 . S
H2379 C2355 0.949 . S
H2380 C2357 0.950 . S
H2381 C2359 0.950 . S
C2382 C2383 1.349 . S
C2382 C2384 1.327 . S
C2382 H2407 0.950 . S
C2383 C2382 1.349 . S
C2383 C2399 1.349 . S
C2384 C2382 1.327 . S
C2384 C2403 1.429 . S
C2384 H2408 0.950 . S
C2385 C2402 1.574 1_455 S
C2385 C2404 1.368 . S
C2385 H2409 0.949 . S
H2386 C2390 0.949 . S
C2387 C2388 1.349 . S
C2387 C2389 1.327 . S
C2387 H2410 0.950 . S
C2388 C2387 1.349 . S
C2388 C2400 1.349 . S
C2389 C2387 1.327 . S
C2389 C2405 1.429 . S
C2389 H2411 0.950 . S
C2390 H2386 0.949 . S
C2390 C2398 1.574 1_655 S
C2390 C2406 1.368 . S
H2391 C2399 0.950 . S
H2392 C2397 0.950 . S
H2393 C2398 0.949 . S
H2394 C2400 0.950 . S
H2395 C2401 0.950 . S
H2396 C2402 0.949 . S
C2397 H2392 0.950 . S
C2397 C2399 1.327 . S
C2397 C2403 1.429 . S
C2398 C2390 1.574 1_455 S
C2398 H2393 0.949 . S
C2398 C2404 1.368 . S
C2399 C2383 1.349 . S
C2399 H2391 0.950 . S
C2399 C2397 1.327 . S
C2400 C2388 1.349 . S
C2400 H2394 0.950 . S
C2400 C2401 1.327 . S
C2401 H2395 0.950 . S
C2401 C2400 1.327 . S
C2401 C2405 1.429 . S
C2402 C2385 1.574 1_655 S
C2402 H2396 0.949 . S
C2402 C2406 1.368 . S
C2403 C2384 1.429 . S
C2403 C2397 1.429 . S
C2403 C2404 1.523 . S
C2404 C2385 1.368 . S
C2404 C2398 1.368 . S
C2404 C2403 1.523 . S
C2405 C2389 1.429 . S
C2405 C2401 1.429 . S
C2405 C2406 1.523 . S
C2406 C2390 1.368 . S
C2406 C2402 1.368 . S
C2406 C2405 1.523 . S
H2407 C2382 0.950 . S
H2408 C2384 0.950 . S
H2409 C2385 0.949 . S
H2410 C2387 0.950 . S
H2411 C2389 0.950 . S
C2412 C2413 1.349 . S
C2412 C2414 1.327 . S
C2412 H2437 0.950 . S
C2413 C2412 1.349 . S
C2413 C2429 1.349 1_554 S
C2414 C2412 1.327 . S
C2414 C2433 1.429 . S
C2414 H2438 0.950 . S
C2415 C2432 1.574 . S
C2415 C2434 1.368 . S
C2415 H2439 0.949 . S
H2416 C2420 0.949 . S
C2417 C2418 1.349 . S
C2417 C2419 1.327 . S
C2417 H2440 0.950 . S
C2418 C2417 1.349 . S
C2418 C2430 1.349 . S
C2419 C2417 1.327 . S
C2419 C2435 1.429 . S
C2419 H2441 0.950 . S
C2420 H2416 0.949 . S
C2420 C2428 1.574 . S
C2420 C2436 1.368 . S
H2421 C2429 0.950 . S
H2422 C2427 0.950 1_556 S
H2423 C2428 0.949 . S
H2424 C2430 0.950 . S
H2425 C2431 0.950 . S
H2426 C2432 0.949 . S
C2427 H2422 0.950 1_554 S
C2427 C2429 1.327 1_554 S
C2427 C2433 1.429 . S
C2428 C2420 1.574 . S
C2428 H2423 0.949 . S
C2428 C2434 1.368 . S
C2429 C2413 1.349 1_556 S
C2429 H2421 0.950 . S
C2429 C2427 1.327 1_556 S
C2430 C2418 1.349 . S
C2430 H2424 0.950 . S
C2430 C2431 1.327 . S
C2431 H2425 0.950 . S
C2431 C2430 1.327 . S
C2431 C2435 1.429 . S
C2432 C2415 1.574 . S
C2432 H2426 0.949 . S
C2432 C2436 1.368 . S
C2433 C2414 1.429 . S
C2433 C2427 1.429 . S
C2433 C2434 1.523 . S
C2434 C2415 1.368 . S
C2434 C2428 1.368 . S
C2434 C2433 1.523 . S
C2435 C2419 1.429 . S
C2435 C2431 1.429 . S
C2435 C2436 1.523 . S
C2436 C2420 1.368 . S
C2436 C2432 1.368 . S
C2436 C2435 1.523 . S
H2437 C2412 0.950 . S
H2438 C2414 0.950 . S
H2439 C2415 0.949 . S
H2440 C2417 0.950 . S
H2441 C2419 0.950 . S
C2442 C2443 1.349 . S
C2442 C2444 1.327 . S
C2442 H2467 0.950 . S
C2443 C2442 1.349 . S
C2443 C2459 1.349 . S
C2444 C2442 1.327 . S
C2444 C2463 1.429 . S
C2444 H2468 0.950 . S
C2445 C2462 1.574 1_655 S
C2445 C2464 1.368 . S
C2445 H2469 0.949 . S
H2446 C2450 0.949 . S
C2447 C2448 1.349 . S
C2447 C2449 1.327 . S
C2447 H2470 0.950 . S
C2448 C2447 1.349 . S
C2448 C2460 1.349 . S
C2449 C2447 1.327 . S
C2449 C2465 1.429 . S
C2449 H2471 0.950 . S
C2450 H2446 0.949 . S
C2450 C2458 1.574 1_455 S
C2450 C2466 1.368 . S
H2451 C2459 0.950 . S
H2452 C2457 0.950 . S
H2453 C2458 0.949 . S
H2454 C2460 0.950 . S
H2455 C2461 0.950 . S
H2456 C2462 0.949 . S
C2457 H2452 0.950 . S
C2457 C2459 1.327 . S
C2457 C2463 1.429 . S
C2458 C2450 1.574 1_655 S
C2458 H2453 0.949 . S
C2458 C2464 1.368 1_565 S
C2459 C2443 1.349 . S
C2459 H2451 0.950 . S
C2459 C2457 1.327 . S
C2460 C2448 1.349 . S
C2460 H2454 0.950 . S
C2460 C2461 1.327 . S
C2461 H2455 0.950 . S
C2461 C2460 1.327 . S
C2461 C2465 1.429 . S
C2462 C2445 1.574 1_455 S
C2462 H2456 0.949 . S
C2462 C2466 1.368 1_545 S
C2463 C2444 1.429 . S
C2463 C2457 1.429 . S
C2463 C2464 1.523 . S
C2464 C2445 1.368 . S
C2464 C2458 1.368 1_545 S
C2464 C2463 1.523 . S
C2465 C2449 1.429 . S
C2465 C2461 1.429 . S
C2465 C2466 1.523 . S
C2466 C2450 1.368 . S
C2466 C2462 1.368 1_565 S
C2466 C2465 1.523 . S
H2467 C2442 0.950 . S
H2468 C2444 0.950 . S
H2469 C2445 0.949 . S
H2470 C2447 0.950 . S
H2471 C2449 0.950 . S
C2472 C2473 1.349 . S
C2472 C2474 1.327 . S
C2472 H2497 0.950 . S
C2473 C2472 1.349 . S
C2473 C2489 1.349 . S
C2474 C2472 1.327 . S
C2474 C2493 1.429 . S
C2474 H2498 0.950 . S
C2475 C2492 1.574 . S
C2475 C2494 1.368 . S
C2475 H2499 0.949 . S
H2476 C2480 0.949 . S
C2477 C2478 1.349 . S
C2477 C2479 1.327 . S
C2477 H2500 0.950 . S
C2478 C2477 1.349 . S
C2478 C2490 1.349 . S
C2479 C2477 1.327 . S
C2479 C2495 1.429 . S
C2479 H2501 0.950 . S
C2480 H2476 0.949 . S
C2480 C2488 1.574 . S
C2480 C2496 1.368 . S
H2481 C2489 0.950 . S
H2482 C2487 0.950 . S
H2483 C2488 0.949 . S
H2484 C2490 0.950 . S
H2485 C2491 0.950 . S
H2486 C2492 0.949 . S
C2487 H2482 0.950 . S
C2487 C2489 1.327 . S
C2487 C2493 1.429 . S
C2488 C2480 1.574 . S
C2488 H2483 0.949 . S
C2488 C2494 1.368 . S
C2489 C2473 1.349 . S
C2489 H2481 0.950 . S
C2489 C2487 1.327 . S
C2490 C2478 1.349 . S
C2490 H2484 0.950 . S
C2490 C2491 1.327 . S
C2491 H2485 0.950 . S
C2491 C2490 1.327 . S
C2491 C2495 1.429 . S
C2492 C2475 1.574 . S
C2492 H2486 0.949 . S
C2492 C2496 1.368 . S
C2493 C2474 1.429 . S
C2493 C2487 1.429 . S
C2493 C2494 1.523 . S
C2494 C2475 1.368 . S
C2494 C2488 1.368 . S
C2494 C2493 1.523 . S
C2495 C2479 1.429 . S
C2495 C2491 1.429 . S
C2495 C2496 1.523 . S
C2496 C2480 1.368 . S
C2496 C2492 1.368 . S
C2496 C2495 1.523 . S
H2497 C2472 0.950 . S
H2498 C2474 0.950 . S
H2499 C2475 0.949 . S
H2500 C2477 0.950 . S
H2501 C2479 0.950 . S
C2502 C2503 1.349 . S
C2502 C2504 1.327 . S
C2502 H2527 0.950 . S
C2503 C2502 1.349 . S
C2503 C2519 1.349 . S
C2504 C2502 1.327 . S
C2504 C2523 1.429 . S
C2504 H2528 0.950 . S
C2505 C2522 1.574 . S
C2505 C2524 1.368 . S
C2505 H2529 0.949 . S
H2506 C2510 0.949 . S
C2507 C2508 1.349 . S
C2507 C2509 1.327 . S
C2507 H2530 0.950 . S
C2508 C2507 1.349 . S
C2508 C2520 1.349 . S
C2509 C2507 1.327 . S
C2509 C2525 1.429 . S
C2509 H2531 0.950 . S
C2510 H2506 0.949 . S
C2510 C2518 1.574 . S
C2510 C2526 1.368 . S
H2511 C2519 0.950 . S
H2512 C2517 0.950 . S
H2513 C2518 0.949 . S
H2514 C2520 0.950 . S
H2515 C2521 0.950 . S
H2516 C2522 0.949 . S
C2517 H2512 0.950 . S
C2517 C2519 1.327 . S
C2517 C2523 1.429 . S
C2518 C2510 1.574 . S
C2518 H2513 0.949 . S
C2518 C2524 1.368 . S
C2519 C2503 1.349 . S
C2519 H2511 0.950 . S
C2519 C2517 1.327 . S
C2520 C2508 1.349 . S
C2520 H2514 0.950 . S
C2520 C2521 1.327 . S
C2521 H2515 0.950 . S
C2521 C2520 1.327 . S
C2521 C2525 1.429 . S
C2522 C2505 1.574 . S
C2522 H2516 0.949 . S
C2522 C2526 1.368 . S
C2523 C2504 1.429 . S
C2523 C2517 1.429 . S
C2523 C2524 1.523 . S
C2524 C2505 1.368 . S
C2524 C2518 1.368 . S
C2524 C2523 1.523 . S
C2525 C2509 1.429 . S
C2525 C2521 1.429 . S
C2525 C2526 1.523 . S
C2526 C2510 1.368 . S
C2526 C2522 1.368 . S
C2526 C2525 1.523 . S
H2527 C2502 0.950 . S
H2528 C2504 0.950 . S
H2529 C2505 0.949 . S
H2530 C2507 0.950 . S
H2531 C2509 0.950 . S
C2532 C2533 1.349 . S
C2532 C2534 1.327 . S
C2532 H2557 0.950 . S
C2533 C2532 1.349 . S
C2533 C2549 1.349 . S
C2534 C2532 1.327 . S
C2534 C2553 1.429 . S
C2534 H2558 0.950 . S
C2535 C2552 1.574 . S
C2535 C2554 1.368 . S
C2535 H2559 0.949 . S
H2536 C2540 0.949 . S
C2537 C2538 1.349 1_554 S
C2537 C2539 1.327 . S
C2537 H2560 0.950 . S
C2538 C2537 1.349 1_556 S
C2538 C2550 1.349 . S
C2539 C2537 1.327 . S
C2539 C2555 1.429 1_554 S
C2539 H2561 0.950 . S
C2540 H2536 0.949 . S
C2540 C2548 1.574 . S
C2540 C2556 1.368 . S
H2541 C2549 0.950 . S
H2542 C2547 0.950 . S
H2543 C2548 0.949 . S
H2544 C2550 0.950 . S
H2545 C2551 0.950 . S
H2546 C2552 0.949 1_554 S
C2547 H2542 0.950 . S
C2547 C2549 1.327 . S
C2547 C2553 1.429 . S
C2548 C2540 1.574 . S
C2548 H2543 0.949 . S
C2548 C2554 1.368 . S
C2549 C2533 1.349 . S
C2549 H2541 0.950 . S
C2549 C2547 1.327 . S
C2550 C2538 1.349 . S
C2550 H2544 0.950 . S
C2550 C2551 1.327 . S
C2551 H2545 0.950 . S
C2551 C2550 1.327 . S
C2551 C2555 1.429 . S
C2552 C2535 1.574 . S
C2552 H2546 0.949 1_556 S
C2552 C2556 1.368 . S
C2553 C2534 1.429 . S
C2553 C2547 1.429 . S
C2553 C2554 1.523 . S
C2554 C2535 1.368 . S
C2554 C2548 1.368 . S
C2554 C2553 1.523 . S
C2555 C2539 1.429 1_556 S
C2555 C2551 1.429 . S
C2555 C2556 1.523 . S
C2556 C2540 1.368 . S
C2556 C2552 1.368 . S
C2556 C2555 1.523 . S
H2557 C2532 0.950 . S
H2558 C2534 0.950 . S
H2559 C2535 0.949 . S
H2560 C2537 0.950 . S
H2561 C2539 0.950 . S
C2562 C2563 1.331 1_565 S
C2562 C2564 1.333 . S
C2562 H2587 0.963 . S
C2563 C2562 1.331 1_545 S
C2563 C2579 1.349 . S
C2564 C2562 1.333 . S
C2564 C2583 1.429 1_565 S
C2564 H2588 0.950 . S
C2565 C2582 1.574 . S
C2565 C2584 1.368 . S
C2565 H2589 0.949 . S
H2566 C2570 0.949 . S
C2567 C2568 1.338 1_545 S
C2567 C2569 1.331 . S
C2567 H2590 0.958 . S
C2568 C2567 1.338 1_565 S
C2568 C2580 1.349 . S
C2569 C2567 1.331 . S
C2569 C2585 1.429 1_545 S
C2569 H2591 0.950 . S
C2570 H2566 0.949 . S
C2570 C2578 1.574 . S
C2570 C2586 1.368 . S
H2571 C2579 0.950 . S
H2572 C2577 0.950 . S
H2573 C2578 0.949 . S
H2574 C2580 0.950 . S
H2575 C2581 0.950 . S
H2576 C2582 0.949 . S
C2577 H2572 0.950 . S
C2577 C2579 1.327 . S
C2577 C2583 1.429 . S
C2578 C2570 1.574 . S
C2578 H2573 0.949 . S
C2578 C2584 1.368 1_565 S
C2579 C2563 1.349 . S
C2579 H2571 0.950 . S
C2579 C2577 1.327 . S
C2580 C2568 1.349 . S
C2580 H2574 0.950 . S
C2580 C2581 1.327 . S
C2581 H2575 0.950 . S
C2581 C2580 1.327 . S
C2581 C2585 1.429 . S
C2582 C2565 1.574 . S
C2582 H2576 0.949 . S
C2582 C2586 1.368 1_545 S
C2583 C2564 1.429 1_545 S
C2583 C2577 1.429 . S
C2583 C2584 1.523 . S
C2584 C2565 1.368 . S
C2584 C2578 1.368 1_545 S
C2584 C2583 1.523 . S
C2585 C2569 1.429 1_565 S
C2585 C2581 1.429 . S
C2585 C2586 1.523 . S
C2586 C2570 1.368 . S
C2586 C2582 1.368 1_565 S
C2586 C2585 1.523 . S
H2587 C2562 0.963 . S
H2588 C2564 0.950 . S
H2589 C2565 0.949 . S
H2590 C2567 0.958 . S
H2591 C2569 0.950 . S
C2592 C2593 1.349 . S
C2592 C2594 1.327 . S
C2592 H2617 0.950 . S
C2593 C2592 1.349 . S
C2593 C2609 1.349 . S
C2594 C2592 1.327 . S
C2594 C2613 1.429 . S
C2594 H2618 0.950 . S
C2595 C2612 1.574 . S
C2595 C2614 1.368 . S
C2595 H2619 0.949 . S
H2596 C2600 0.949 . S
C2597 C2598 1.349 . S
C2597 C2599 1.327 . S
C2597 H2620 0.950 . S
C2598 C2597 1.349 . S
C2598 C2610 1.349 . S
C2599 C2597 1.327 . S
C2599 C2615 1.429 . S
C2599 H2621 0.950 . S
C2600 H2596 0.949 . S
C2600 C2608 1.574 . S
C2600 C2616 1.368 . S
H2601 C2609 0.950 . S
H2602 C2607 0.950 . S
H2603 C2608 0.949 . S
H2604 C2610 0.950 . S
H2605 C2611 0.950 . S
H2606 C2612 0.949 . S
C2607 H2602 0.950 . S
C2607 C2609 1.327 . S
C2607 C2613 1.429 . S
C2608 C2600 1.574 . S
C2608 H2603 0.949 . S
C2608 C2614 1.368 . S
C2609 C2593 1.349 . S
C2609 H2601 0.950 . S
C2609 C2607 1.327 . S
C2610 C2598 1.349 . S
C2610 H2604 0.950 . S
C2610 C2611 1.327 . S
C2611 H2605 0.950 . S
C2611 C2610 1.327 . S
C2611 C2615 1.429 . S
C2612 C2595 1.574 . S
C2612 H2606 0.949 . S
C2612 C2616 1.368 . S
C2613 C2594 1.429 . S
C2613 C2607 1.429 . S
C2613 C2614 1.523 . S
C2614 C2595 1.368 . S
C2614 C2608 1.368 . S
C2614 C2613 1.523 . S
C2615 C2599 1.429 . S
C2615 C2611 1.429 . S
C2615 C2616 1.523 . S
C2616 C2600 1.368 . S
C2616 C2612 1.368 . S
C2616 C2615 1.523 . S
H2617 C2592 0.950 . S
H2618 C2594 0.950 . S
H2619 C2595 0.949 . S
H2620 C2597 0.950 . S
H2621 C2599 0.950 . S
C2622 C2623 1.349 . S
C2622 C2624 1.327 . S
C2622 H2647 0.950 . S
C2623 C2622 1.349 . S
C2623 C2639 1.349 . S
C2624 C2622 1.327 . S
C2624 C2643 1.429 . S
C2624 H2648 0.950 . S
C2625 C2642 1.574 . S
C2625 C2644 1.368 . S
C2625 H2649 0.949 . S
H2626 C2630 0.949 . S
C2627 C2628 1.349 . S
C2627 C2629 1.327 . S
C2627 H2650 0.950 . S
C2628 C2627 1.349 . S
C2628 C2640 1.349 . S
C2629 C2627 1.327 . S
C2629 C2645 1.429 . S
C2629 H2651 0.950 . S
C2630 H2626 0.949 . S
C2630 C2638 1.574 . S
C2630 C2646 1.368 . S
H2631 C2639 0.950 . S
H2632 C2637 0.950 . S
H2633 C2638 0.949 . S
H2634 C2640 0.950 . S
H2635 C2641 0.950 . S
H2636 C2642 0.949 . S
C2637 H2632 0.950 . S
C2637 C2639 1.327 . S
C2637 C2643 1.429 . S
C2638 C2630 1.574 . S
C2638 H2633 0.949 . S
C2638 C2644 1.368 . S
C2639 C2623 1.349 . S
C2639 H2631 0.950 . S
C2639 C2637 1.327 . S
C2640 C2628 1.349 . S
C2640 H2634 0.950 . S
C2640 C2641 1.327 . S
C2641 H2635 0.950 . S
C2641 C2640 1.327 . S
C2641 C2645 1.429 . S
C2642 C2625 1.574 . S
C2642 H2636 0.949 . S
C2642 C2646 1.368 . S
C2643 C2624 1.429 . S
C2643 C2637 1.429 . S
C2643 C2644 1.523 . S
C2644 C2625 1.368 . S
C2644 C2638 1.368 . S
C2644 C2643 1.523 . S
C2645 C2629 1.429 . S
C2645 C2641 1.429 . S
C2645 C2646 1.523 . S
C2646 C2630 1.368 . S
C2646 C2642 1.368 . S
C2646 C2645 1.523 . S
H2647 C2622 0.950 . S
H2648 C2624 0.950 . S
H2649 C2625 0.949 . S
H2650 C2627 0.950 . S
H2651 C2629 0.950 . S
C2652 C2653 1.349 . S
C2652 C2654 1.327 . S
C2652 H2677 0.950 . S
C2653 C2652 1.349 . S
C2653 C2669 1.349 . S
C2654 C2652 1.327 . S
C2654 C2673 1.429 . S
C2654 H2678 0.950 . S
C2655 C2672 1.574 . S
C2655 C2674 1.368 . S
C2655 H2679 0.949 . S
H2656 C2660 0.949 . S
C2657 C2658 1.349 . S
C2657 C2659 1.327 . S
C2657 H2680 0.950 . S
C2658 C2657 1.349 . S
C2658 C2670 1.349 . S
C2659 C2657 1.327 . S
C2659 C2675 1.429 . S
C2659 H2681 0.950 . S
C2660 H2656 0.949 . S
C2660 C2668 1.574 . S
C2660 C2676 1.368 . S
H2661 C2669 0.950 . S
H2662 C2667 0.950 . S
H2663 C2668 0.949 . S
H2664 C2670 0.950 . S
H2665 C2671 0.950 . S
H2666 C2672 0.949 . S
C2667 H2662 0.950 . S
C2667 C2669 1.327 . S
C2667 C2673 1.429 . S
C2668 C2660 1.574 . S
C2668 H2663 0.949 . S
C2668 C2674 1.368 . S
C2669 C2653 1.349 . S
C2669 H2661 0.950 . S
C2669 C2667 1.327 . S
C2670 C2658 1.349 . S
C2670 H2664 0.950 . S
C2670 C2671 1.327 . S
C2671 H2665 0.950 . S
C2671 C2670 1.327 . S
C2671 C2675 1.429 . S
C2672 C2655 1.574 . S
C2672 H2666 0.949 . S
C2672 C2676 1.368 . S
C2673 C2654 1.429 . S
C2673 C2667 1.429 . S
C2673 C2674 1.523 . S
C2674 C2655 1.368 . S
C2674 C2668 1.368 . S
C2674 C2673 1.523 . S
C2675 C2659 1.429 . S
C2675 C2671 1.429 . S
C2675 C2676 1.523 . S
C2676 C2660 1.368 . S
C2676 C2672 1.368 . S
C2676 C2675 1.523 . S
H2677 C2652 0.950 . S
H2678 C2654 0.950 . S
H2679 C2655 0.949 . S
H2680 C2657 0.950 . S
H2681 C2659 0.950 . S
C2682 C2683 1.349 . S
C2682 C2684 1.327 . S
C2682 H2707 0.950 . S
C2683 C2682 1.349 . S
C2683 C2699 1.349 . S
C2684 C2682 1.327 . S
C2684 C2703 1.429 . S
C2684 H2708 0.950 . S
C2685 C2702 1.574 . S
C2685 C2704 1.368 . S
C2685 H2709 0.949 . S
H2686 C2690 0.949 . S
C2687 C2688 1.349 . S
C2687 C2689 1.327 . S
C2687 H2710 0.950 . S
C2688 C2687 1.349 . S
C2688 C2700 1.349 . S
C2689 C2687 1.327 . S
C2689 C2705 1.429 . S
C2689 H2711 0.950 . S
C2690 H2686 0.949 . S
C2690 C2698 1.574 . S
C2690 C2706 1.368 . S
H2691 C2699 0.950 . S
H2692 C2697 0.950 . S
H2693 C2698 0.949 . S
H2694 C2700 0.950 . S
H2695 C2701 0.950 . S
H2696 C2702 0.949 . S
C2697 H2692 0.950 . S
C2697 C2699 1.327 . S
C2697 C2703 1.429 . S
C2698 C2690 1.574 . S
C2698 H2693 0.949 . S
C2698 C2704 1.368 . S
C2699 C2683 1.349 . S
C2699 H2691 0.950 . S
C2699 C2697 1.327 . S
C2700 C2688 1.349 . S
C2700 H2694 0.950 . S
C2700 C2701 1.327 . S
C2701 H2695 0.950 . S
C2701 C2700 1.327 . S
C2701 C2705 1.429 . S
C2702 C2685 1.574 . S
C2702 H2696 0.949 . S
C2702 C2706 1.368 . S
C2703 C2684 1.429 . S
C2703 C2697 1.429 . S
C2703 C2704 1.523 . S
C2704 C2685 1.368 . S
C2704 C2698 1.368 . S
C2704 C2703 1.523 . S
C2705 C2689 1.429 . S
C2705 C2701 1.429 . S
C2705 C2706 1.523 . S
C2706 C2690 1.368 . S
C2706 C2702 1.368 . S
C2706 C2705 1.523 . S
H2707 C2682 0.950 . S
H2708 C2684 0.950 . S
H2709 C2685 0.949 . S
H2710 C2687 0.950 . S
H2711 C2689 0.950 . S
C2712 C2713 1.349 . S
C2712 C2714 1.327 . S
C2712 H2737 0.950 . S
C2713 C2712 1.349 . S
C2713 C2729 1.349 . S
C2714 C2712 1.327 . S
C2714 C2733 1.429 . S
C2714 H2738 0.950 . S
C2715 C2732 1.574 . S
C2715 C2734 1.368 1_554 S
C2715 H2739 0.955 . S
H2716 C2720 0.949 . S
C2717 C2718 1.349 . S
C2717 C2719 1.327 . S
C2717 H2740 0.950 . S
C2718 C2717 1.349 . S
C2718 C2730 1.349 . S
C2719 C2717 1.327 . S
C2719 C2735 1.429 . S
C2719 H2741 0.950 . S
C2720 H2716 0.949 . S
C2720 C2728 1.574 1_554 S
C2720 C2736 1.368 . S
H2721 C2729 0.950 . S
H2722 C2727 0.950 . S
H2723 C2728 0.949 . S
H2724 C2730 0.950 . S
H2725 C2731 0.950 . S
H2726 C2732 0.949 . S
C2727 H2722 0.950 . S
C2727 C2729 1.327 . S
C2727 C2733 1.429 . S
C2728 C2720 1.574 1_556 S
C2728 H2723 0.949 . S
C2728 C2734 1.368 . S
C2729 C2713 1.349 . S
C2729 H2721 0.950 . S
C2729 C2727 1.327 . S
C2730 C2718 1.349 . S
C2730 H2724 0.950 . S
C2730 C2731 1.327 . S
C2731 H2725 0.950 . S
C2731 C2730 1.327 . S
C2731 C2735 1.429 . S
C2732 C2715 1.574 . S
C2732 H2726 0.949 . S
C2732 C2736 1.368 . S
C2733 C2714 1.429 . S
C2733 C2727 1.429 . S
C2733 C2734 1.523 . S
C2734 C2715 1.368 1_556 S
C2734 C2728 1.368 . S
C2734 C2733 1.523 . S
C2735 C2719 1.429 . S
C2735 C2731 1.429 . S
C2735 C2736 1.523 . S
C2736 C2720 1.368 . S
C2736 C2732 1.368 . S
C2736 C2735 1.523 . S
H2737 C2712 0.950 . S
H2738 C2714 0.950 . S
H2739 C2715 0.955 . S
H2740 C2717 0.950 . S
H2741 C2719 0.950 . S
C2742 C2743 1.349 . S
C2742 C2744 1.327 . S
C2742 H2767 0.950 . S
C2743 C2742 1.349 . S
C2743 C2759 1.349 . S
C2744 C2742 1.327 . S
C2744 C2763 1.429 . S
C2744 H2768 0.950 . S
C2745 C2762 1.574 . S
C2745 C2764 1.368 . S
C2745 H2769 0.949 . S
H2746 C2750 0.949 . S
C2747 C2748 1.349 . S
C2747 C2749 1.327 . S
C2747 H2770 0.950 . S
C2748 C2747 1.349 . S
C2748 C2760 1.349 . S
C2749 C2747 1.327 . S
C2749 C2765 1.429 . S
C2749 H2771 0.950 . S
C2750 H2746 0.949 . S
C2750 C2758 1.574 . S
C2750 C2766 1.368 . S
H2751 C2759 0.950 . S
H2752 C2757 0.950 . S
H2753 C2758 0.949 . S
H2754 C2760 0.950 . S
H2755 C2761 0.950 . S
H2756 C2762 0.949 . S
C2757 H2752 0.950 . S
C2757 C2759 1.327 . S
C2757 C2763 1.429 . S
C2758 C2750 1.574 . S
C2758 H2753 0.949 . S
C2758 C2764 1.368 . S
C2759 C2743 1.349 . S
C2759 H2751 0.950 . S
C2759 C2757 1.327 . S
C2760 C2748 1.349 . S
C2760 H2754 0.950 . S
C2760 C2761 1.327 . S
C2761 H2755 0.950 . S
C2761 C2760 1.327 . S
C2761 C2765 1.429 . S
C2762 C2745 1.574 . S
C2762 H2756 0.949 . S
C2762 C2766 1.368 . S
C2763 C2744 1.429 . S
C2763 C2757 1.429 . S
C2763 C2764 1.523 . S
C2764 C2745 1.368 . S
C2764 C2758 1.368 . S
C2764 C2763 1.523 . S
C2765 C2749 1.429 . S
C2765 C2761 1.429 . S
C2765 C2766 1.523 . S
C2766 C2750 1.368 . S
C2766 C2762 1.368 . S
C2766 C2765 1.523 . S
H2767 C2742 0.950 . S
H2768 C2744 0.950 . S
H2769 C2745 0.949 . S
H2770 C2747 0.950 . S
H2771 C2749 0.950 . S
C2772 C2773 1.349 . S
C2772 C2774 1.327 . S
C2772 H2797 0.950 . S
C2773 C2772 1.349 . S
C2773 C2789 1.349 . S
C2774 C2772 1.327 . S
C2774 C2793 1.429 . S
C2774 H2798 0.950 . S
C2775 C2792 1.574 1_554 S
C2775 C2794 1.368 . S
C2775 H2799 0.949 . S
H2776 C2780 0.949 . S
C2777 C2778 1.349 . S
C2777 C2779 1.327 . S
C2777 H2800 0.950 . S
C2778 C2777 1.349 . S
C2778 C2790 1.349 . S
C2779 C2777 1.327 . S
C2779 C2795 1.429 . S
C2779 H2801 0.950 . S
C2780 H2776 0.949 . S
C2780 C2788 1.574 1_556 S
C2780 C2796 1.368 . S
H2781 C2789 0.950 . S
H2782 C2787 0.950 . S
H2783 C2788 0.949 . S
H2784 C2790 0.950 . S
H2785 C2791 0.950 . S
H2786 C2792 0.949 . S
C2787 H2782 0.950 . S
C2787 C2789 1.327 . S
C2787 C2793 1.429 . S
C2788 C2780 1.574 1_554 S
C2788 H2783 0.949 . S
C2788 C2794 1.368 . S
C2789 C2773 1.349 . S
C2789 H2781 0.950 . S
C2789 C2787 1.327 . S
C2790 C2778 1.349 . S
C2790 H2784 0.950 . S
C2790 C2791 1.327 . S
C2791 H2785 0.950 . S
C2791 C2790 1.327 . S
C2791 C2795 1.429 . S
C2792 C2775 1.574 1_556 S
C2792 H2786 0.949 . S
C2792 C2796 1.368 . S
C2793 C2774 1.429 . S
C2793 C2787 1.429 . S
C2793 C2794 1.523 . S
C2794 C2775 1.368 . S
C2794 C2788 1.368 . S
C2794 C2793 1.523 . S
C2795 C2779 1.429 . S
C2795 C2791 1.429 . S
C2795 C2796 1.523 . S
C2796 C2780 1.368 . S
C2796 C2792 1.368 . S
C2796 C2795 1.523 . S
H2797 C2772 0.950 . S
H2798 C2774 0.950 . S
H2799 C2775 0.949 . S
H2800 C2777 0.950 . S
H2801 C2779 0.950 . S
C2802 C2803 1.349 . S
C2802 C2804 1.327 . S
C2802 H2827 0.950 . S
C2803 C2802 1.349 . S
C2803 C2819 1.349 . S
C2804 C2802 1.327 . S
C2804 C2823 1.429 . S
C2804 H2828 0.950 . S
C2805 C2822 1.574 . S
C2805 C2824 1.368 . S
C2805 H2829 0.949 . S
H2806 C2810 0.949 . S
C2807 C2808 1.349 . S
C2807 C2809 1.327 . S
C2807 H2830 0.950 . S
C2808 C2807 1.349 . S
C2808 C2820 1.339 1_545 S
C2809 C2807 1.327 . S
C2809 C2825 1.429 . S
C2809 H2831 0.950 . S
C2810 H2806 0.949 . S
C2810 C2818 1.574 . S
C2810 C2826 1.368 . S
H2811 C2819 0.950 . S
H2812 C2817 0.950 . S
H2813 C2818 0.949 . S
H2814 C2820 0.968 . S
H2815 C2821 0.950 . S
H2816 C2822 0.949 . S
C2817 H2812 0.950 . S
C2817 C2819 1.327 . S
C2817 C2823 1.429 . S
C2818 C2810 1.574 . S
C2818 H2813 0.949 . S
C2818 C2824 1.368 . S
C2819 C2803 1.349 . S
C2819 H2811 0.950 . S
C2819 C2817 1.327 . S
C2820 C2808 1.339 1_565 S
C2820 H2814 0.968 . S
C2820 C2821 1.319 1_565 S
C2821 H2815 0.950 . S
C2821 C2820 1.319 1_545 S
C2821 C2825 1.429 . S
C2822 C2805 1.574 . S
C2822 H2816 0.949 . S
C2822 C2826 1.368 . S
C2823 C2804 1.429 . S
C2823 C2817 1.429 . S
C2823 C2824 1.523 . S
C2824 C2805 1.368 . S
C2824 C2818 1.368 . S
C2824 C2823 1.523 . S
C2825 C2809 1.429 . S
C2825 C2821 1.429 . S
C2825 C2826 1.523 . S
C2826 C2810 1.368 . S
C2826 C2822 1.368 . S
C2826 C2825 1.523 . S
H2827 C2802 0.950 . S
H2828 C2804 0.950 . S
H2829 C2805 0.949 . S
H2830 C2807 0.950 . S
H2831 C2809 0.950 . S
C2832 C2833 1.349 . S
C2832 C2834 1.327 . S
C2832 H2857 0.950 . S
C2833 C2832 1.349 . S
C2833 C2849 1.349 . S
C2834 C2832 1.327 . S
C2834 C2853 1.429 . S
C2834 H2858 0.950 . S
C2835 C2852 1.574 . S
C2835 C2854 1.368 . S
C2835 H2859 0.949 . S
H2836 C2840 0.949 . S
C2837 C2838 1.349 . S
C2837 C2839 1.327 . S
C2837 H2860 0.950 . S
C2838 C2837 1.349 . S
C2838 C2850 1.349 . S
C2839 C2837 1.327 . S
C2839 C2855 1.429 . S
C2839 H2861 0.950 . S
C2840 H2836 0.949 . S
C2840 C2848 1.574 . S
C2840 C2856 1.368 . S
H2841 C2849 0.950 . S
H2842 C2847 0.950 . S
H2843 C2848 0.949 . S
H2844 C2850 0.950 . S
H2845 C2851 0.950 . S
H2846 C2852 0.949 . S
C2847 H2842 0.950 . S
C2847 C2849 1.327 . S
C2847 C2853 1.429 . S
C2848 C2840 1.574 . S
C2848 H2843 0.949 . S
C2848 C2854 1.368 . S
C2849 C2833 1.349 . S
C2849 H2841 0.950 . S
C2849 C2847 1.327 . S
C2850 C2838 1.349 . S
C2850 H2844 0.950 . S
C2850 C2851 1.327 . S
C2851 H2845 0.950 . S
C2851 C2850 1.327 . S
C2851 C2855 1.429 . S
C2852 C2835 1.574 . S
C2852 H2846 0.949 . S
C2852 C2856 1.368 . S
C2853 C2834 1.429 . S
C2853 C2847 1.429 . S
C2853 C2854 1.523 . S
C2854 C2835 1.368 . S
C2854 C2848 1.368 . S
C2854 C2853 1.523 . S
C2855 C2839 1.429 . S
C2855 C2851 1.429 . S
C2855 C2856 1.523 . S
C2856 C2840 1.368 . S
C2856 C2852 1.368 . S
C2856 C2855 1.523 . S
H2857 C2832 0.950 . S
H2858 C2834 0.950 . S
H2859 C2835 0.949 . S
H2860 C2837 0.950 . S
H2861 C2839 0.950 . S
C2862 C2863 1.349 . S
C2862 C2864 1.327 . S
C2862 H2887 0.950 . S
C2863 C2862 1.349 . S
C2863 C2879 1.349 . S
C2864 C2862 1.327 . S
C2864 C2883 1.429 . S
C2864 H2888 0.950 . S
C2865 C2882 1.574 . S
C2865 C2884 1.368 . S
C2865 H2889 0.949 . S
H2866 C2870 0.949 . S
C2867 C2868 1.349 . S
C2867 C2869 1.327 . S
C2867 H2890 0.950 . S
C2868 C2867 1.349 . S
C2868 C2880 1.349 . S
C2869 C2867 1.327 . S
C2869 C2885 1.429 . S
C2869 H2891 0.950 . S
C2870 H2866 0.949 . S
C2870 C2878 1.574 . S
C2870 C2886 1.368 . S
H2871 C2879 0.950 . S
H2872 C2877 0.950 . S
H2873 C2878 0.949 . S
H2874 C2880 0.950 . S
H2875 C2881 0.950 . S
H2876 C2882 0.949 . S
C2877 H2872 0.950 . S
C2877 C2879 1.327 . S
C2877 C2883 1.429 . S
C2878 C2870 1.574 . S
C2878 H2873 0.949 . S
C2878 C2884 1.368 . S
C2879 C2863 1.349 . S
C2879 H2871 0.950 . S
C2879 C2877 1.327 . S
C2880 C2868 1.349 . S
C2880 H2874 0.950 . S
C2880 C2881 1.327 . S
C2881 H2875 0.950 . S
C2881 C2880 1.327 . S
C2881 C2885 1.429 . S
C2882 C2865 1.574 . S
C2882 H2876 0.949 . S
C2882 C2886 1.368 . S
C2883 C2864 1.429 . S
C2883 C2877 1.429 . S
C2883 C2884 1.523 . S
C2884 C2865 1.368 . S
C2884 C2878 1.368 . S
C2884 C2883 1.523 . S
C2885 C2869 1.429 . S
C2885 C2881 1.429 . S
C2885 C2886 1.523 . S
C2886 C2870 1.368 . S
C2886 C2882 1.368 . S
C2886 C2885 1.523 . S
H2887 C2862 0.950 . S
H2888 C2864 0.950 . S
H2889 C2865 0.949 . S
H2890 C2867 0.950 . S
H2891 C2869 0.950 . S
C2892 C2893 1.349 . S
C2892 C2894 1.327 . S
C2892 H2917 0.950 . S
C2893 C2892 1.349 . S
C2893 C2909 1.349 . S
C2894 C2892 1.327 . S
C2894 C2913 1.429 . S
C2894 H2918 0.950 . S
C2895 C2912 1.574 . S
C2895 C2914 1.368 . S
C2895 H2919 0.949 . S
H2896 C2900 0.949 . S
C2897 C2898 1.349 . S
C2897 C2899 1.327 . S
C2897 H2920 0.950 . S
C2898 C2897 1.349 . S
C2898 C2910 1.349 . S
C2899 C2897 1.327 . S
C2899 C2915 1.429 . S
C2899 H2921 0.950 . S
C2900 H2896 0.949 . S
C2900 C2908 1.574 . S
C2900 C2916 1.368 . S
H2901 C2909 0.950 . S
H2902 C2907 0.950 . S
H2903 C2908 0.949 . S
H2904 C2910 0.950 . S
H2905 C2911 0.950 . S
H2906 C2912 0.949 . S
C2907 H2902 0.950 . S
C2907 C2909 1.327 . S
C2907 C2913 1.429 . S
C2908 C2900 1.574 . S
C2908 H2903 0.949 . S
C2908 C2914 1.368 . S
C2909 C2893 1.349 . S
C2909 H2901 0.950 . S
C2909 C2907 1.327 . S
C2910 C2898 1.349 . S
C2910 H2904 0.950 . S
C2910 C2911 1.327 . S
C2911 H2905 0.950 . S
C2911 C2910 1.327 . S
C2911 C2915 1.429 . S
C2912 C2895 1.574 . S
C2912 H2906 0.949 . S
C2912 C2916 1.368 . S
C2913 C2894 1.429 . S
C2913 C2907 1.429 . S
C2913 C2914 1.523 . S
C2914 C2895 1.368 . S
C2914 C2908 1.368 . S
C2914 C2913 1.523 . S
C2915 C2899 1.429 . S
C2915 C2911 1.429 . S
C2915 C2916 1.523 . S
C2916 C2900 1.368 . S
C2916 C2912 1.368 . S
C2916 C2915 1.523 . S
H2917 C2892 0.950 . S
H2918 C2894 0.950 . S
H2919 C2895 0.949 . S
H2920 C2897 0.950 . S
H2921 C2899 0.950 . S
C2922 C2923 1.349 . S
C2922 C2924 1.327 . S
C2922 H2947 0.950 . S
C2923 C2922 1.349 . S
C2923 C2939 1.349 . S
C2924 C2922 1.327 . S
C2924 C2943 1.429 . S
C2924 H2948 0.950 . S
C2925 C2942 1.574 . S
C2925 C2944 1.368 . S
C2925 H2949 0.949 . S
H2926 C2930 0.949 . S
C2927 C2928 1.337 1_545 S
C2927 C2929 1.327 . S
C2927 H2950 0.950 . S
C2928 C2927 1.337 1_565 S
C2928 C2940 1.371 . S
C2929 C2927 1.327 . S
C2929 C2945 1.429 1_545 S
C2929 H2951 0.950 . S
C2930 H2926 0.949 . S
C2930 C2938 1.574 . S
C2930 C2946 1.368 . S
H2931 C2939 0.950 . S
H2932 C2937 0.950 . S
H2933 C2938 0.949 . S
H2934 C2940 0.950 . S
H2935 C2941 0.950 . S
H2936 C2942 0.949 . S
C2937 H2932 0.950 . S
C2937 C2939 1.327 . S
C2937 C2943 1.429 . S
C2938 C2930 1.574 . S
C2938 H2933 0.949 . S
C2938 C2944 1.368 . S
C2939 C2923 1.349 . S
C2939 H2931 0.950 . S
C2939 C2937 1.327 . S
C2940 C2928 1.371 . S
C2940 H2934 0.950 . S
C2940 C2941 1.327 . S
C2941 H2935 0.950 . S
C2941 C2940 1.327 . S
C2941 C2945 1.429 . S
C2942 C2925 1.574 . S
C2942 H2936 0.949 . S
C2942 C2946 1.368 . S
C2943 C2924 1.429 . S
C2943 C2937 1.429 . S
C2943 C2944 1.523 . S
C2944 C2925 1.368 . S
C2944 C2938 1.368 . S
C2944 C2943 1.523 . S
C2945 C2929 1.429 1_565 S
C2945 C2941 1.429 . S
C2945 C2946 1.523 . S
C2946 C2930 1.368 . S
C2946 C2942 1.368 . S
C2946 C2945 1.523 . S
H2947 C2922 0.950 . S
H2948 C2924 0.950 . S
H2949 C2925 0.949 . S
H2950 C2927 0.950 . S
H2951 C2929 0.950 . S
C2952 C2953 1.349 . S
C2952 C2954 1.327 . S
C2952 H2977 0.950 . S
C2953 C2952 1.349 . S
C2953 C2969 1.349 . S
C2954 C2952 1.327 . S
C2954 C2973 1.429 . S
C2954 H2978 0.950 . S
C2955 C2972 1.574 . S
C2955 C2974 1.368 . S
C2955 H2979 0.949 . S
H2956 C2960 0.949 . S
C2957 C2958 1.349 . S
C2957 C2959 1.327 . S
C2957 H2980 0.950 . S
C2958 C2957 1.349 . S
C2958 C2970 1.349 . S
C2959 C2957 1.327 . S
C2959 C2975 1.429 . S
C2959 H2981 0.950 . S
C2960 H2956 0.949 . S
C2960 C2968 1.574 . S
C2960 C2976 1.368 . S
H2961 C2969 0.950 . S
H2962 C2967 0.950 . S
H2963 C2968 0.949 . S
H2964 C2970 0.950 . S
H2965 C2971 0.950 . S
H2966 C2972 0.949 . S
C2967 H2962 0.950 . S
C2967 C2969 1.327 . S
C2967 C2973 1.429 . S
C2968 C2960 1.574 . S
C2968 H2963 0.949 . S
C2968 C2974 1.368 . S
C2969 C2953 1.349 . S
C2969 H2961 0.950 . S
C2969 C2967 1.327 . S
C2970 C2958 1.349 . S
C2970 H2964 0.950 . S
C2970 C2971 1.327 . S
C2971 H2965 0.950 . S
C2971 C2970 1.327 . S
C2971 C2975 1.429 . S
C2972 C2955 1.574 . S
C2972 H2966 0.949 . S
C2972 C2976 1.368 . S
C2973 C2954 1.429 . S
C2973 C2967 1.429 . S
C2973 C2974 1.523 . S
C2974 C2955 1.368 . S
C2974 C2968 1.368 . S
C2974 C2973 1.523 . S
C2975 C2959 1.429 . S
C2975 C2971 1.429 . S
C2975 C2976 1.523 . S
C2976 C2960 1.368 . S
C2976 C2972 1.368 . S
C2976 C2975 1.523 . S
H2977 C2952 0.950 . S
H2978 C2954 0.950 . S
H2979 C2955 0.949 . S
H2980 C2957 0.950 . S
H2981 C2959 0.950 . S
C2982 C2983 1.349 . S
C2982 C2984 1.327 . S
C2982 H3007 0.950 . S
C2983 C2982 1.349 . S
C2983 C2999 1.349 . S
C2984 C2982 1.327 . S
C2984 C3003 1.429 . S
C2984 H3008 0.950 . S
C2985 C3002 1.574 . S
C2985 C3004 1.368 . S
C2985 H3009 0.949 . S
H2986 C2990 0.949 . S
C2987 C2988 1.349 . S
C2987 C2989 1.327 . S
C2987 H3010 0.950 . S
C2988 C2987 1.349 . S
C2988 C3000 1.349 . S
C2989 C2987 1.327 . S
C2989 C3005 1.429 . S
C2989 H3011 0.950 . S
C2990 H2986 0.949 . S
C2990 C2998 1.574 . S
C2990 C3006 1.368 . S
H2991 C2999 0.950 . S
H2992 C2997 0.950 . S
H2993 C2998 0.949 . S
H2994 C3000 0.950 . S
H2995 C3001 0.950 . S
H2996 C3002 0.949 . S
C2997 H2992 0.950 . S
C2997 C2999 1.327 . S
C2997 C3003 1.429 . S
C2998 C2990 1.574 . S
C2998 H2993 0.949 . S
C2998 C3004 1.368 . S
C2999 C2983 1.349 . S
C2999 H2991 0.950 . S
C2999 C2997 1.327 . S
C3000 C2988 1.349 . S
C3000 H2994 0.950 . S
C3000 C3001 1.327 . S
C3001 H2995 0.950 . S
C3001 C3000 1.327 . S
C3001 C3005 1.429 . S
C3002 C2985 1.574 . S
C3002 H2996 0.949 . S
C3002 C3006 1.368 . S
C3003 C2984 1.429 . S
C3003 C2997 1.429 . S
C3003 C3004 1.523 . S
C3004 C2985 1.368 . S
C3004 C2998 1.368 . S
C3004 C3003 1.523 . S
C3005 C2989 1.429 . S
C3005 C3001 1.429 . S
C3005 C3006 1.523 . S
C3006 C2990 1.368 . S
C3006 C3002 1.368 . S
C3006 C3005 1.523 . S
H3007 C2982 0.950 . S
H3008 C2984 0.950 . S
H3009 C2985 0.949 . S
H3010 C2987 0.950 . S
H3011 C2989 0.950 . S
C3012 C3013 1.349 . S
C3012 C3014 1.327 . S
C3012 H3037 0.950 . S
C3013 C3012 1.349 . S
C3013 C3029 1.349 . S
C3014 C3012 1.327 . S
C3014 C3033 1.429 . S
C3014 H3038 0.950 . S
C3015 C3032 1.574 . S
C3015 C3034 1.368 . S
C3015 H3039 0.949 . S
H3016 C3020 0.949 . S
C3017 C3018 1.349 . S
C3017 C3019 1.327 . S
C3017 H3040 0.950 . S
C3018 C3017 1.349 . S
C3018 C3030 1.349 . S
C3019 C3017 1.327 . S
C3019 C3035 1.429 . S
C3019 H3041 0.950 . S
C3020 H3016 0.949 . S
C3020 C3028 1.574 . S
C3020 C3036 1.368 . S
H3021 C3029 0.950 . S
H3022 C3027 0.950 . S
H3023 C3028 0.949 . S
H3024 C3030 0.950 . S
H3025 C3031 0.950 . S
H3026 C3032 0.949 . S
C3027 H3022 0.950 . S
C3027 C3029 1.327 . S
C3027 C3033 1.429 . S
C3028 C3020 1.574 . S
C3028 H3023 0.949 . S
C3028 C3034 1.368 . S
C3029 C3013 1.349 . S
C3029 H3021 0.950 . S
C3029 C3027 1.327 . S
C3030 C3018 1.349 . S
C3030 H3024 0.950 . S
C3030 C3031 1.327 . S
C3031 H3025 0.950 . S
C3031 C3030 1.327 . S
C3031 C3035 1.429 . S
C3032 C3015 1.574 . S
C3032 H3026 0.949 . S
C3032 C3036 1.368 . S
C3033 C3014 1.429 . S
C3033 C3027 1.429 . S
C3033 C3034 1.523 . S
C3034 C3015 1.368 . S
C3034 C3028 1.368 . S
C3034 C3033 1.523 . S
C3035 C3019 1.429 . S
C3035 C3031 1.429 . S
C3035 C3036 1.523 . S
C3036 C3020 1.368 . S
C3036 C3032 1.368 . S
C3036 C3035 1.523 . S
H3037 C3012 0.950 . S
H3038 C3014 0.950 . S
H3039 C3015 0.949 . S
H3040 C3017 0.950 . S
H3041 C3019 0.950 . S
C3042 C3043 1.349 1_556 S
C3042 C3044 1.319 1_556 S
C3042 H3067 0.950 . S
C3043 C3042 1.349 1_554 S
C3043 C3059 1.349 . S
C3044 C3042 1.319 1_554 S
C3044 C3063 1.454 . S
C3044 H3068 0.932 1_554 S
C3045 C3062 1.574 . S
C3045 C3064 1.368 . S
C3045 H3069 0.949 . S
H3046 C3050 0.949 . S
C3047 C3048 1.349 . S
C3047 C3049 1.327 . S
C3047 H3070 0.950 . S
C3048 C3047 1.349 . S
C3048 C3060 1.349 . S
C3049 C3047 1.327 . S
C3049 C3065 1.429 . S
C3049 H3071 0.950 . S
C3050 H3046 0.949 . S
C3050 C3058 1.574 . S
C3050 C3066 1.368 . S
H3051 C3059 0.950 . S
H3052 C3057 0.950 . S
H3053 C3058 0.950 . S
H3054 C3060 0.950 . S
H3055 C3061 0.950 . S
H3056 C3062 0.949 . S
C3057 H3052 0.950 . S
C3057 C3059 1.327 . S
C3057 C3063 1.429 . S
C3058 C3050 1.574 . S
C3058 H3053 0.950 . S
C3058 C3064 1.368 . S
C3059 C3043 1.349 . S
C3059 H3051 0.950 . S
C3059 C3057 1.327 . S
C3060 C3048 1.349 . S
C3060 H3054 0.950 . S
C3060 C3061 1.327 . S
C3061 H3055 0.950 . S
C3061 C3060 1.327 . S
C3061 C3065 1.429 . S
C3062 C3045 1.574 . S
C3062 H3056 0.949 . S
C3062 C3066 1.368 . S
C3063 C3044 1.454 . S
C3063 C3057 1.429 . S
C3063 C3064 1.523 . S
C3064 C3045 1.368 . S
C3064 C3058 1.368 . S
C3064 C3063 1.523 . S
C3065 C3049 1.429 . S
C3065 C3061 1.429 . S
C3065 C3066 1.523 . S
C3066 C3050 1.368 . S
C3066 C3062 1.368 . S
C3066 C3065 1.523 . S
H3067 C3042 0.950 . S
H3068 C3044 0.932 1_556 S
H3069 C3045 0.949 . S
H3070 C3047 0.950 . S
H3071 C3049 0.950 . S
C3072 C3073 1.349 . S
C3072 C3074 1.327 . S
C3072 H3097 0.950 . S
C3073 C3072 1.349 . S
C3073 C3089 1.349 . S
C3074 C3072 1.327 . S
C3074 C3093 1.429 . S
C3074 H3098 0.950 . S
C3075 C3092 1.574 . S
C3075 C3094 1.368 . S
C3075 H3099 0.949 . S
H3076 C3080 0.949 . S
C3077 C3078 1.349 . S
C3077 C3079 1.327 . S
C3077 H3100 0.950 . S
C3078 C3077 1.349 . S
C3078 C3090 1.349 . S
C3079 C3077 1.327 . S
C3079 C3095 1.429 . S
C3079 H3101 0.950 . S
C3080 H3076 0.949 . S
C3080 C3088 1.574 . S
C3080 C3096 1.368 . S
H3081 C3089 0.950 . S
H3082 C3087 0.950 . S
H3083 C3088 0.949 . S
H3084 C3090 0.950 . S
H3085 C3091 0.950 . S
H3086 C3092 0.949 . S
C3087 H3082 0.950 . S
C3087 C3089 1.327 . S
C3087 C3093 1.429 . S
C3088 C3080 1.574 . S
C3088 H3083 0.949 . S
C3088 C3094 1.368 . S
C3089 C3073 1.349 . S
C3089 H3081 0.950 . S
C3089 C3087 1.327 . S
C3090 C3078 1.349 . S
C3090 H3084 0.950 . S
C3090 C3091 1.327 . S
C3091 H3085 0.950 . S
C3091 C3090 1.327 . S
C3091 C3095 1.429 . S
C3092 C3075 1.574 . S
C3092 H3086 0.949 . S
C3092 C3096 1.368 . S
C3093 C3074 1.429 . S
C3093 C3087 1.429 . S
C3093 C3094 1.523 . S
C3094 C3075 1.368 . S
C3094 C3088 1.368 . S
C3094 C3093 1.523 . S
C3095 C3079 1.429 . S
C3095 C3091 1.429 . S
C3095 C3096 1.523 . S
C3096 C3080 1.368 . S
C3096 C3092 1.368 . S
C3096 C3095 1.523 . S
H3097 C3072 0.950 . S
H3098 C3074 0.950 . S
H3099 C3075 0.949 . S
H3100 C3077 0.950 . S
H3101 C3079 0.950 . S
C3102 C3103 1.349 . S
C3102 C3104 1.327 . S
C3102 H3127 0.950 . S
C3103 C3102 1.349 . S
C3103 C3119 1.349 . S
C3104 C3102 1.327 . S
C3104 C3123 1.429 . S
C3104 H3128 0.950 . S
C3105 C3122 1.574 . S
C3105 C3124 1.368 . S
C3105 H3129 0.949 . S
H3106 C3110 0.949 . S
C3107 C3108 1.349 1_554 S
C3107 C3109 1.327 1_554 S
C3107 H3130 0.950 . S
C3108 C3107 1.349 1_556 S
C3108 C3120 1.349 . S
C3109 C3107 1.327 1_556 S
C3109 C3125 1.429 . S
C3109 H3131 0.950 1_556 S
C3110 H3106 0.949 . S
C3110 C3118 1.574 . S
C3110 C3126 1.368 . S
H3111 C3119 0.950 . S
H3112 C3117 0.950 . S
H3113 C3118 0.949 . S
H3114 C3120 0.950 . S
H3115 C3121 0.950 . S
H3116 C3122 0.949 . S
C3117 H3112 0.950 . S
C3117 C3119 1.327 . S
C3117 C3123 1.429 . S
C3118 C3110 1.574 . S
C3118 H3113 0.949 . S
C3118 C3124 1.368 . S
C3119 C3103 1.349 . S
C3119 H3111 0.950 . S
C3119 C3117 1.327 . S
C3120 C3108 1.349 . S
C3120 H3114 0.950 . S
C3120 C3121 1.327 . S
C3121 H3115 0.950 . S
C3121 C3120 1.327 . S
C3121 C3125 1.429 . S
C3122 C3105 1.574 . S
C3122 H3116 0.949 . S
C3122 C3126 1.368 . S
C3123 C3104 1.429 . S
C3123 C3117 1.429 . S
C3123 C3124 1.523 . S
C3124 C3105 1.368 . S
C3124 C3118 1.368 . S
C3124 C3123 1.523 . S
C3125 C3109 1.429 . S
C3125 C3121 1.429 . S
C3125 C3126 1.523 . S
C3126 C3110 1.368 . S
C3126 C3122 1.368 . S
C3126 C3125 1.523 . S
H3127 C3102 0.950 . S
H3128 C3104 0.950 . S
H3129 C3105 0.949 . S
H3130 C3107 0.950 . S
H3131 C3109 0.950 1_554 S
C3132 C3133 1.349 . S
C3132 C3134 1.327 . S
C3132 H3157 0.950 . S
C3133 C3132 1.349 . S
C3133 C3149 1.349 . S
C3134 C3132 1.327 . S
C3134 C3153 1.429 . S
C3134 H3158 0.950 . S
C3135 C3152 1.574 . S
C3135 C3154 1.368 . S
C3135 H3159 0.949 . S
H3136 C3140 0.949 . S
C3137 C3138 1.349 . S
C3137 C3139 1.327 . S
C3137 H3160 0.950 . S
C3138 C3137 1.349 . S
C3138 C3150 1.349 . S
C3139 C3137 1.327 . S
C3139 C3155 1.429 . S
C3139 H3161 0.950 . S
C3140 H3136 0.949 . S
C3140 C3148 1.574 . S
C3140 C3156 1.368 . S
H3141 C3149 0.950 . S
H3142 C3147 0.950 . S
H3143 C3148 0.949 . S
H3144 C3150 0.950 . S
H3145 C3151 0.950 . S
H3146 C3152 0.949 . S
C3147 H3142 0.950 . S
C3147 C3149 1.327 . S
C3147 C3153 1.429 . S
C3148 C3140 1.574 . S
C3148 H3143 0.949 . S
C3148 C3154 1.368 . S
C3149 C3133 1.349 . S
C3149 H3141 0.950 . S
C3149 C3147 1.327 . S
C3150 C3138 1.349 . S
C3150 H3144 0.950 . S
C3150 C3151 1.327 . S
C3151 H3145 0.950 . S
C3151 C3150 1.327 . S
C3151 C3155 1.429 . S
C3152 C3135 1.574 . S
C3152 H3146 0.949 . S
C3152 C3156 1.368 . S
C3153 C3134 1.429 . S
C3153 C3147 1.429 . S
C3153 C3154 1.523 . S
C3154 C3135 1.368 . S
C3154 C3148 1.368 . S
C3154 C3153 1.523 . S
C3155 C3139 1.429 . S
C3155 C3151 1.429 . S
C3155 C3156 1.523 . S
C3156 C3140 1.368 . S
C3156 C3152 1.368 . S
C3156 C3155 1.523 . S
H3157 C3132 0.950 . S
H3158 C3134 0.950 . S
H3159 C3135 0.949 . S
H3160 C3137 0.950 . S
H3161 C3139 0.950 . S
C3162 C3163 1.349 . S
C3162 C3164 1.327 . S
C3162 H3187 0.950 . S
C3163 C3162 1.349 . S
C3163 C3179 1.349 . S
C3164 C3162 1.327 . S
C3164 C3183 1.429 . S
C3164 H3188 0.950 . S
C3165 C3182 1.574 . S
C3165 C3184 1.368 . S
C3165 H3189 0.949 . S
H3166 C3170 0.949 . S
C3167 C3168 1.349 . S
C3167 C3169 1.327 . S
C3167 H3190 0.950 . S
C3168 C3167 1.349 . S
C3168 C3180 1.349 . S
C3169 C3167 1.327 . S
C3169 C3185 1.429 . S
C3169 H3191 0.950 . S
C3170 H3166 0.949 . S
C3170 C3178 1.574 . S
C3170 C3186 1.368 . S
H3171 C3179 0.950 . S
H3172 C3177 0.950 . S
H3173 C3178 0.949 . S
H3174 C3180 0.950 . S
H3175 C3181 0.950 . S
H3176 C3182 0.949 . S
C3177 H3172 0.950 . S
C3177 C3179 1.327 . S
C3177 C3183 1.429 . S
C3178 C3170 1.574 . S
C3178 H3173 0.949 . S
C3178 C3184 1.368 . S
C3179 C3163 1.349 . S
C3179 H3171 0.950 . S
C3179 C3177 1.327 . S
C3180 C3168 1.349 . S
C3180 H3174 0.950 . S
C3180 C3181 1.327 . S
C3181 H3175 0.950 . S
C3181 C3180 1.327 . S
C3181 C3185 1.429 . S
C3182 C3165 1.574 . S
C3182 H3176 0.949 . S
C3182 C3186 1.368 . S
C3183 C3164 1.429 . S
C3183 C3177 1.429 . S
C3183 C3184 1.523 . S
C3184 C3165 1.368 . S
C3184 C3178 1.368 . S
C3184 C3183 1.523 . S
C3185 C3169 1.429 . S
C3185 C3181 1.429 . S
C3185 C3186 1.523 . S
C3186 C3170 1.368 . S
C3186 C3182 1.368 . S
C3186 C3185 1.523 . S
H3187 C3162 0.950 . S
H3188 C3164 0.950 . S
H3189 C3165 0.949 . S
H3190 C3167 0.950 . S
H3191 C3169 0.950 . S
C3192 C3193 1.349 . S
C3192 C3194 1.327 . S
C3192 H3217 0.950 . S
C3193 C3192 1.349 . S
C3193 C3209 1.349 . S
C3194 C3192 1.327 . S
C3194 C3213 1.429 . S
C3194 H3218 0.950 . S
C3195 C3212 1.574 . S
C3195 C3214 1.368 . S
C3195 H3219 0.949 . S
H3196 C3200 0.949 . S
C3197 C3198 1.349 . S
C3197 C3199 1.327 . S
C3197 H3220 0.950 . S
C3198 C3197 1.349 . S
C3198 C3210 1.349 . S
C3199 C3197 1.327 . S
C3199 C3215 1.429 . S
C3199 H3221 0.950 . S
C3200 H3196 0.949 . S
C3200 C3208 1.574 . S
C3200 C3216 1.368 . S
H3201 C3209 0.950 . S
H3202 C3207 0.950 . S
H3203 C3208 0.949 . S
H3204 C3210 0.950 . S
H3205 C3211 0.950 . S
H3206 C3212 0.949 . S
C3207 H3202 0.950 . S
C3207 C3209 1.327 . S
C3207 C3213 1.429 . S
C3208 C3200 1.574 . S
C3208 H3203 0.949 . S
C3208 C3214 1.368 . S
C3209 C3193 1.349 . S
C3209 H3201 0.950 . S
C3209 C3207 1.327 . S
C3210 C3198 1.349 . S
C3210 H3204 0.950 . S
C3210 C3211 1.327 . S
C3211 H3205 0.950 . S
C3211 C3210 1.327 . S
C3211 C3215 1.429 . S
C3212 C3195 1.574 . S
C3212 H3206 0.949 . S
C3212 C3216 1.368 . S
C3213 C3194 1.429 . S
C3213 C3207 1.429 . S
C3213 C3214 1.523 . S
C3214 C3195 1.368 . S
C3214 C3208 1.368 . S
C3214 C3213 1.523 . S
C3215 C3199 1.429 . S
C3215 C3211 1.429 . S
C3215 C3216 1.523 . S
C3216 C3200 1.368 . S
C3216 C3212 1.368 . S
C3216 C3215 1.523 . S
H3217 C3192 0.950 . S
H3218 C3194 0.950 . S
H3219 C3195 0.949 . S
H3220 C3197 0.950 . S
H3221 C3199 0.950 . S
C3222 C3223 1.349 . S
C3222 C3224 1.327 . S
C3222 H3247 0.950 . S
C3223 C3222 1.349 . S
C3223 C3239 1.349 . S
C3224 C3222 1.327 . S
C3224 C3243 1.429 . S
C3224 H3248 0.950 . S
C3225 C3242 1.574 1_554 S
C3225 C3244 1.368 . S
C3225 H3249 0.949 . S
H3226 C3230 0.949 . S
C3227 C3228 1.349 . S
C3227 C3229 1.327 . S
C3227 H3250 0.950 . S
C3228 C3227 1.349 . S
C3228 C3240 1.349 . S
C3229 C3227 1.327 . S
C3229 C3245 1.429 . S
C3229 H3251 0.950 . S
C3230 H3226 0.949 . S
C3230 C3238 1.574 1_556 S
C3230 C3246 1.368 . S
H3231 C3239 0.950 . S
H3232 C3237 0.950 . S
H3233 C3238 0.949 . S
H3234 C3240 0.950 . S
H3235 C3241 0.950 . S
H3236 C3242 0.949 . S
C3237 H3232 0.950 . S
C3237 C3239 1.327 . S
C3237 C3243 1.429 . S
C3238 C3230 1.574 1_554 S
C3238 H3233 0.949 . S
C3238 C3244 1.368 . S
C3239 C3223 1.349 . S
C3239 H3231 0.950 . S
C3239 C3237 1.327 . S
C3240 C3228 1.349 . S
C3240 H3234 0.950 . S
C3240 C3241 1.327 . S
C3241 H3235 0.950 . S
C3241 C3240 1.327 . S
C3241 C3245 1.429 . S
C3242 C3225 1.574 1_556 S
C3242 H3236 0.949 . S
C3242 C3246 1.368 . S
C3243 C3224 1.429 . S
C3243 C3237 1.429 . S
C3243 C3244 1.523 . S
C3244 C3225 1.368 . S
C3244 C3238 1.368 . S
C3244 C3243 1.523 . S
C3245 C3229 1.429 . S
C3245 C3241 1.429 . S
C3245 C3246 1.523 . S
C3246 C3230 1.368 . S
C3246 C3242 1.368 . S
C3246 C3245 1.523 . S
H3247 C3222 0.950 . S
H3248 C3224 0.950 . S
H3249 C3225 0.949 . S
H3250 C3227 0.950 . S
H3251 C3229 0.950 . S
C3252 C3253 1.349 . S
C3252 C3254 1.327 . S
C3252 H3277 0.950 . S
C3253 C3252 1.349 . S
C3253 C3269 1.349 . S
C3254 C3252 1.327 . S
C3254 C3273 1.429 . S
C3254 H3278 0.950 . S
C3255 C3272 1.574 . S
C3255 C3274 1.368 . S
C3255 H3279 0.949 1_455 S
H3256 C3260 0.949 . S
C3257 C3258 1.349 . S
C3257 C3259 1.327 . S
C3257 H3280 0.950 1_455 S
C3258 C3257 1.349 . S
C3258 C3270 1.349 . S
C3259 C3257 1.327 . S
C3259 C3275 1.429 . S
C3259 H3281 0.950 1_455 S
C3260 H3256 0.949 . S
C3260 C3268 1.574 . S
C3260 C3276 1.368 . S
H3261 C3269 0.950 1_655 S
H3262 C3267 0.950 1_655 S
H3263 C3268 0.949 . S
H3264 C3270 0.950 . S
H3265 C3271 0.950 . S
H3266 C3272 0.949 1_655 S
C3267 H3262 0.950 1_455 S
C3267 C3269 1.327 . S
C3267 C3273 1.429 . S
C3268 C3260 1.574 . S
C3268 H3263 0.949 . S
C3268 C3274 1.368 . S
C3269 C3253 1.349 . S
C3269 H3261 0.950 1_455 S
C3269 C3267 1.327 . S
C3270 C3258 1.349 . S
C3270 H3264 0.950 . S
C3270 C3271 1.327 . S
C3271 H3265 0.950 . S
C3271 C3270 1.327 . S
C3271 C3275 1.429 . S
C3272 C3255 1.574 . S
C3272 H3266 0.949 1_455 S
C3272 C3276 1.368 . S
C3273 C3254 1.429 . S
C3273 C3267 1.429 . S
C3273 C3274 1.523 . S
C3274 C3255 1.368 . S
C3274 C3268 1.368 . S
C3274 C3273 1.523 . S
C3275 C3259 1.429 . S
C3275 C3271 1.429 . S
C3275 C3276 1.523 . S
C3276 C3260 1.368 . S
C3276 C3272 1.368 . S
C3276 C3275 1.523 . S
H3277 C3252 0.950 . S
H3278 C3254 0.950 . S
H3279 C3255 0.949 1_655 S
H3280 C3257 0.950 1_655 S
H3281 C3259 0.950 1_655 S
C3282 C3283 1.349 . S
C3282 C3284 1.327 . S
C3282 H3307 0.950 . S
C3283 C3282 1.349 . S
C3283 C3299 1.349 . S
C3284 C3282 1.327 . S
C3284 C3303 1.429 . S
C3284 H3308 0.950 . S
C3285 C3302 1.574 . S
C3285 C3304 1.368 . S
C3285 H3309 0.949 . S
H3286 C3290 0.949 . S
C3287 C3288 1.349 . S
C3287 C3289 1.327 . S
C3287 H3310 0.950 . S
C3288 C3287 1.349 . S
C3288 C3300 1.349 . S
C3289 C3287 1.327 . S
C3289 C3305 1.429 . S
C3289 H3311 0.950 . S
C3290 H3286 0.949 . S
C3290 C3298 1.574 . S
C3290 C3306 1.368 . S
H3291 C3299 0.950 . S
H3292 C3297 0.950 . S
H3293 C3298 0.949 . S
H3294 C3300 0.950 . S
H3295 C3301 0.950 . S
H3296 C3302 0.949 . S
C3297 H3292 0.950 . S
C3297 C3299 1.327 . S
C3297 C3303 1.429 . S
C3298 C3290 1.574 . S
C3298 H3293 0.949 . S
C3298 C3304 1.368 . S
C3299 C3283 1.349 . S
C3299 H3291 0.950 . S
C3299 C3297 1.327 . S
C3300 C3288 1.349 . S
C3300 H3294 0.950 . S
C3300 C3301 1.327 . S
C3301 H3295 0.950 . S
C3301 C3300 1.327 . S
C3301 C3305 1.429 . S
C3302 C3285 1.574 . S
C3302 H3296 0.949 . S
C3302 C3306 1.368 . S
C3303 C3284 1.429 . S
C3303 C3297 1.429 . S
C3303 C3304 1.523 . S
C3304 C3285 1.368 . S
C3304 C3298 1.368 . S
C3304 C3303 1.523 . S
C3305 C3289 1.429 . S
C3305 C3301 1.429 . S
C3305 C3306 1.523 . S
C3306 C3290 1.368 . S
C3306 C3302 1.368 . S
C3306 C3305 1.523 . S
H3307 C3282 0.950 . S
H3308 C3284 0.950 . S
H3309 C3285 0.949 . S
H3310 C3287 0.950 . S
H3311 C3289 0.950 . S
C3312 C3313 1.349 . S
C3312 C3314 1.327 . S
C3312 H3337 0.950 . S
C3313 C3312 1.349 . S
C3313 C3329 1.349 . S
C3314 C3312 1.327 . S
C3314 C3333 1.429 . S
C3314 H3338 0.950 . S
C3315 C3332 1.574 . S
C3315 C3334 1.368 . S
C3315 H3339 0.949 . S
H3316 C3320 0.949 . S
C3317 C3318 1.349 . S
C3317 C3319 1.327 . S
C3317 H3340 0.950 . S
C3318 C3317 1.349 . S
C3318 C3330 1.349 . S
C3319 C3317 1.327 . S
C3319 C3335 1.429 . S
C3319 H3341 0.950 . S
C3320 H3316 0.949 . S
C3320 C3328 1.574 . S
C3320 C3336 1.368 . S
H3321 C3329 0.950 . S
H3322 C3327 0.950 . S
H3323 C3328 0.949 . S
H3324 C3330 0.950 . S
H3325 C3331 0.950 . S
H3326 C3332 0.949 . S
C3327 H3322 0.950 . S
C3327 C3329 1.327 . S
C3327 C3333 1.429 . S
C3328 C3320 1.574 . S
C3328 H3323 0.949 . S
C3328 C3334 1.368 . S
C3329 C3313 1.349 . S
C3329 H3321 0.950 . S
C3329 C3327 1.327 . S
C3330 C3318 1.349 . S
C3330 H3324 0.950 . S
C3330 C3331 1.327 . S
C3331 H3325 0.950 . S
C3331 C3330 1.327 . S
C3331 C3335 1.429 . S
C3332 C3315 1.574 . S
C3332 H3326 0.949 . S
C3332 C3336 1.368 . S
C3333 C3314 1.429 . S
C3333 C3327 1.429 . S
C3333 C3334 1.523 . S
C3334 C3315 1.368 . S
C3334 C3328 1.368 . S
C3334 C3333 1.523 . S
C3335 C3319 1.429 . S
C3335 C3331 1.429 . S
C3335 C3336 1.523 . S
C3336 C3320 1.368 . S
C3336 C3332 1.368 . S
C3336 C3335 1.523 . S
H3337 C3312 0.950 . S
H3338 C3314 0.950 . S
H3339 C3315 0.949 . S
H3340 C3317 0.950 . S
H3341 C3319 0.950 . S
C3342 C3343 1.349 . S
C3342 C3344 1.327 . S
C3342 H3367 0.950 . S
C3343 C3342 1.349 . S
C3343 C3359 1.349 . S
C3344 C3342 1.327 . S
C3344 C3363 1.429 . S
C3344 H3368 0.950 . S
C3345 C3362 1.574 . S
C3345 C3364 1.368 . S
C3345 H3369 0.949 . S
H3346 C3350 0.949 . S
C3347 C3348 1.349 . S
C3347 C3349 1.327 . S
C3347 H3370 0.950 . S
C3348 C3347 1.349 . S
C3348 C3360 1.349 . S
C3349 C3347 1.327 . S
C3349 C3365 1.429 . S
C3349 H3371 0.950 . S
C3350 H3346 0.949 . S
C3350 C3358 1.574 . S
C3350 C3366 1.368 . S
H3351 C3359 0.950 . S
H3352 C3357 0.950 . S
H3353 C3358 0.949 . S
H3354 C3360 0.950 . S
H3355 C3361 0.950 . S
H3356 C3362 0.949 . S
C3357 H3352 0.950 . S
C3357 C3359 1.327 . S
C3357 C3363 1.429 . S
C3358 C3350 1.574 . S
C3358 H3353 0.949 . S
C3358 C3364 1.368 . S
C3359 C3343 1.349 . S
C3359 H3351 0.950 . S
C3359 C3357 1.327 . S
C3360 C3348 1.349 . S
C3360 H3354 0.950 . S
C3360 C3361 1.327 . S
C3361 H3355 0.950 . S
C3361 C3360 1.327 . S
C3361 C3365 1.429 . S
C3362 C3345 1.574 . S
C3362 H3356 0.949 . S
C3362 C3366 1.368 . S
C3363 C3344 1.429 . S
C3363 C3357 1.429 . S
C3363 C3364 1.523 . S
C3364 C3345 1.368 . S
C3364 C3358 1.368 . S
C3364 C3363 1.523 . S
C3365 C3349 1.429 . S
C3365 C3361 1.429 . S
C3365 C3366 1.523 . S
C3366 C3350 1.368 . S
C3366 C3362 1.368 . S
C3366 C3365 1.523 . S
H3367 C3342 0.950 . S
H3368 C3344 0.950 . S
H3369 C3345 0.949 . S
H3370 C3347 0.950 . S
H3371 C3349 0.950 . S
C3372 C3373 1.349 . S
C3372 C3374 1.327 . S
C3372 H3397 0.950 . S
C3373 C3372 1.349 . S
C3373 C3389 1.349 . S
C3374 C3372 1.327 . S
C3374 C3393 1.429 . S
C3374 H3398 0.950 . S
C3375 C3392 1.574 . S
C3375 C3394 1.368 . S
C3375 H3399 0.949 . S
H3376 C3380 0.949 . S
C3377 C3378 1.349 . S
C3377 C3379 1.327 . S
C3377 H3400 0.950 . S
C3378 C3377 1.349 . S
C3378 C3390 1.349 . S
C3379 C3377 1.327 . S
C3379 C3395 1.429 . S
C3379 H3401 0.950 . S
C3380 H3376 0.949 . S
C3380 C3388 1.574 . S
C3380 C3396 1.368 . S
H3381 C3389 0.950 . S
H3382 C3387 0.950 . S
H3383 C3388 0.949 . S
H3384 C3390 0.950 . S
H3385 C3391 0.950 . S
H3386 C3392 0.949 . S
C3387 H3382 0.950 . S
C3387 C3389 1.327 . S
C3387 C3393 1.429 . S
C3388 C3380 1.574 . S
C3388 H3383 0.949 . S
C3388 C3394 1.368 . S
C3389 C3373 1.349 . S
C3389 H3381 0.950 . S
C3389 C3387 1.327 . S
C3390 C3378 1.349 . S
C3390 H3384 0.950 . S
C3390 C3391 1.327 . S
C3391 H3385 0.950 . S
C3391 C3390 1.327 . S
C3391 C3395 1.429 . S
C3392 C3375 1.574 . S
C3392 H3386 0.949 . S
C3392 C3396 1.368 . S
C3393 C3374 1.429 . S
C3393 C3387 1.429 . S
C3393 C3394 1.523 . S
C3394 C3375 1.368 . S
C3394 C3388 1.368 . S
C3394 C3393 1.523 . S
C3395 C3379 1.429 . S
C3395 C3391 1.429 . S
C3395 C3396 1.523 . S
C3396 C3380 1.368 . S
C3396 C3392 1.368 . S
C3396 C3395 1.523 . S
H3397 C3372 0.950 . S
H3398 C3374 0.950 . S
H3399 C3375 0.949 . S
H3400 C3377 0.950 . S
H3401 C3379 0.950 . S
C3402 C3403 1.349 . S
C3402 C3404 1.327 . S
C3402 H3427 0.950 . S
C3403 C3402 1.349 . S
C3403 C3419 1.349 . S
C3404 C3402 1.327 . S
C3404 C3423 1.429 . S
C3404 H3428 0.950 . S
C3405 C3422 1.574 . S
C3405 C3424 1.368 . S
C3405 H3429 0.949 . S
H3406 C3410 0.949 . S
C3407 C3408 1.349 . S
C3407 C3409 1.327 . S
C3407 H3430 0.950 . S
C3408 C3407 1.349 . S
C3408 C3420 1.349 . S
C3409 C3407 1.327 . S
C3409 C3425 1.429 . S
C3409 H3431 0.950 . S
C3410 H3406 0.949 . S
C3410 C3418 1.574 . S
C3410 C3426 1.368 . S
H3411 C3419 0.950 . S
H3412 C3417 0.950 . S
H3413 C3418 0.949 . S
H3414 C3420 0.950 . S
H3415 C3421 0.950 . S
H3416 C3422 0.949 . S
C3417 H3412 0.950 . S
C3417 C3419 1.327 . S
C3417 C3423 1.429 . S
C3418 C3410 1.574 . S
C3418 H3413 0.949 . S
C3418 C3424 1.368 1_565 S
C3419 C3403 1.349 . S
C3419 H3411 0.950 . S
C3419 C3417 1.327 . S
C3420 C3408 1.349 . S
C3420 H3414 0.950 . S
C3420 C3421 1.327 . S
C3421 H3415 0.950 . S
C3421 C3420 1.327 . S
C3421 C3425 1.429 . S
C3422 C3405 1.574 . S
C3422 H3416 0.949 . S
C3422 C3426 1.368 1_545 S
C3423 C3404 1.429 . S
C3423 C3417 1.429 . S
C3423 C3424 1.523 . S
C3424 C3405 1.368 . S
C3424 C3418 1.368 1_545 S
C3424 C3423 1.523 . S
C3425 C3409 1.429 . S
C3425 C3421 1.429 . S
C3425 C3426 1.523 . S
C3426 C3410 1.368 . S
C3426 C3422 1.368 1_565 S
C3426 C3425 1.523 . S
H3427 C3402 0.950 . S
H3428 C3404 0.950 . S
H3429 C3405 0.949 . S
H3430 C3407 0.950 . S
H3431 C3409 0.950 . S
C3432 C3433 1.349 . S
C3432 C3434 1.327 . S
C3432 H3457 0.950 . S
C3433 C3432 1.349 . S
C3433 C3449 1.349 . S
C3434 C3432 1.327 . S
C3434 C3453 1.429 . S
C3434 H3458 0.950 . S
C3435 C3452 1.574 1_455 S
C3435 C3454 1.368 . S
C3435 H3459 0.949 . S
H3436 C3440 0.949 . S
C3437 C3438 1.349 . S
C3437 C3439 1.327 . S
C3437 H3460 0.950 . S
C3438 C3437 1.349 . S
C3438 C3450 1.349 . S
C3439 C3437 1.327 . S
C3439 C3455 1.429 . S
C3439 H3461 0.950 . S
C3440 H3436 0.949 . S
C3440 C3448 1.574 1_655 S
C3440 C3456 1.368 . S
H3441 C3449 0.950 . S
H3442 C3447 0.950 . S
H3443 C3448 0.949 . S
H3444 C3450 0.950 . S
H3445 C3451 0.950 . S
H3446 C3452 0.949 . S
C3447 H3442 0.950 . S
C3447 C3449 1.327 . S
C3447 C3453 1.429 . S
C3448 C3440 1.574 1_455 S
C3448 H3443 0.949 . S
C3448 C3454 1.368 . S
C3449 C3433 1.349 . S
C3449 H3441 0.950 . S
C3449 C3447 1.327 . S
C3450 C3438 1.349 . S
C3450 H3444 0.950 . S
C3450 C3451 1.327 . S
C3451 H3445 0.950 . S
C3451 C3450 1.327 . S
C3451 C3455 1.429 . S
C3452 C3435 1.574 1_655 S
C3452 H3446 0.949 . S
C3452 C3456 1.368 . S
C3453 C3434 1.429 . S
C3453 C3447 1.429 . S
C3453 C3454 1.523 . S
C3454 C3435 1.368 . S
C3454 C3448 1.368 . S
C3454 C3453 1.523 . S
C3455 C3439 1.429 . S
C3455 C3451 1.429 . S
C3455 C3456 1.523 . S
C3456 C3440 1.368 . S
C3456 C3452 1.368 . S
C3456 C3455 1.523 . S
H3457 C3432 0.950 . S
H3458 C3434 0.950 . S
H3459 C3435 0.949 . S
H3460 C3437 0.950 . S
H3461 C3439 0.950 . S
C3462 C3463 1.349 . S
C3462 C3464 1.327 1_565 S
C3462 H3487 0.950 1_565 S
C3463 C3462 1.349 . S
C3463 C3479 1.349 . S
C3464 C3462 1.327 1_545 S
C3464 C3483 1.429 1_545 S
C3464 H3488 0.950 . S
C3465 C3482 1.574 1_455 S
C3465 C3484 1.368 . S
C3465 H3489 0.949 . S
H3466 C3470 0.949 . S
C3467 C3468 1.349 . S
C3467 C3469 1.327 1_545 S
C3467 H3490 0.950 1_545 S
C3468 C3467 1.349 . S
C3468 C3480 1.349 . S
C3469 C3467 1.327 1_565 S
C3469 C3485 1.429 1_565 S
C3469 H3491 0.950 . S
C3470 H3466 0.949 . S
C3470 C3478 1.574 1_655 S
C3470 C3486 1.368 . S
H3471 C3479 0.950 . S
H3472 C3477 0.950 . S
H3473 C3478 0.949 . S
H3474 C3480 0.950 . S
H3475 C3481 0.950 . S
H3476 C3482 0.949 . S
C3477 H3472 0.950 . S
C3477 C3479 1.327 . S
C3477 C3483 1.429 . S
C3478 C3470 1.574 1_455 S
C3478 H3473 0.949 . S
C3478 C3484 1.368 1_545 S
C3479 C3463 1.349 . S
C3479 H3471 0.950 . S
C3479 C3477 1.327 . S
C3480 C3468 1.349 . S
C3480 H3474 0.950 . S
C3480 C3481 1.327 . S
C3481 H3475 0.950 . S
C3481 C3480 1.327 . S
C3481 C3485 1.429 . S
C3482 C3465 1.574 1_655 S
C3482 H3476 0.949 . S
C3482 C3486 1.368 1_565 S
C3483 C3464 1.429 1_565 S
C3483 C3477 1.429 . S
C3483 C3484 1.523 . S
C3484 C3465 1.368 . S
C3484 C3478 1.368 1_565 S
C3484 C3483 1.523 . S
C3485 C3469 1.429 1_545 S
C3485 C3481 1.429 . S
C3485 C3486 1.523 . S
C3486 C3470 1.368 . S
C3486 C3482 1.368 1_545 S
C3486 C3485 1.523 . S
H3487 C3462 0.950 1_545 S
H3488 C3464 0.950 . S
H3489 C3465 0.949 . S
H3490 C3467 0.950 1_565 S
H3491 C3469 0.950 . S
C3492 C3493 1.349 . S
C3492 C3494 1.327 . S
C3492 H3517 0.950 . S
C3493 C3492 1.349 . S
C3493 C3509 1.349 . S
C3494 C3492 1.327 . S
C3494 C3513 1.429 . S
C3494 H3518 0.950 . S
C3495 C3512 1.551 1_556 S
C3495 C3514 1.384 . S
C3495 H3519 0.956 . S
H3496 C3500 0.949 . S
C3497 C3498 1.349 . S
C3497 C3499 1.327 . S
C3497 H3520 0.950 . S
C3498 C3497 1.349 . S
C3498 C3510 1.349 . S
C3499 C3497 1.327 . S
C3499 C3515 1.429 . S
C3499 H3521 0.950 . S
C3500 H3496 0.949 . S
C3500 C3508 1.574 1_554 S
C3500 C3516 1.368 . S
H3501 C3509 0.950 . S
H3502 C3507 0.950 . S
H3503 C3508 0.949 . S
H3504 C3510 0.950 . S
H3505 C3511 0.950 . S
H3506 C3512 0.949 . S
C3507 H3502 0.950 . S
C3507 C3509 1.327 . S
C3507 C3513 1.429 . S
C3508 C3500 1.574 1_556 S
C3508 H3503 0.949 . S
C3508 C3514 1.368 . S
C3509 C3493 1.349 . S
C3509 H3501 0.950 . S
C3509 C3507 1.327 . S
C3510 C3498 1.349 . S
C3510 H3504 0.950 . S
C3510 C3511 1.327 . S
C3511 H3505 0.950 . S
C3511 C3510 1.327 . S
C3511 C3515 1.429 . S
C3512 C3495 1.551 1_554 S
C3512 H3506 0.949 . S
C3512 C3516 1.368 . S
C3513 C3494 1.429 . S
C3513 C3507 1.429 . S
C3513 C3514 1.523 . S
C3514 C3495 1.384 . S
C3514 C3508 1.368 . S
C3514 C3513 1.523 . S
C3515 C3499 1.429 . S
C3515 C3511 1.429 . S
C3515 C3516 1.523 . S
C3516 C3500 1.368 . S
C3516 C3512 1.368 . S
C3516 C3515 1.523 . S
H3517 C3492 0.950 . S
H3518 C3494 0.950 . S
H3519 C3495 0.956 . S
H3520 C3497 0.950 . S
H3521 C3499 0.950 . S
C3522 C3523 1.349 . S
C3522 C3524 1.327 . S
C3522 H3547 0.950 . S
C3523 C3522 1.349 . S
C3523 C3539 1.349 . S
C3524 C3522 1.327 . S
C3524 C3543 1.429 . S
C3524 H3548 0.950 . S
C3525 C3542 1.574 . S
C3525 C3544 1.368 . S
C3525 H3549 0.949 . S
H3526 C3530 0.949 . S
C3527 C3528 1.349 . S
C3527 C3529 1.327 . S
C3527 H3550 0.950 . S
C3528 C3527 1.349 . S
C3528 C3540 1.349 . S
C3529 C3527 1.327 . S
C3529 C3545 1.429 . S
C3529 H3551 0.950 . S
C3530 H3526 0.949 . S
C3530 C3538 1.574 . S
C3530 C3546 1.368 . S
H3531 C3539 0.950 . S
H3532 C3537 0.950 . S
H3533 C3538 0.949 . S
H3534 C3540 0.950 . S
H3535 C3541 0.950 . S
H3536 C3542 0.949 . S
C3537 H3532 0.950 . S
C3537 C3539 1.327 . S
C3537 C3543 1.429 . S
C3538 C3530 1.574 . S
C3538 H3533 0.949 . S
C3538 C3544 1.368 . S
C3539 C3523 1.349 . S
C3539 H3531 0.950 . S
C3539 C3537 1.327 . S
C3540 C3528 1.349 . S
C3540 H3534 0.950 . S
C3540 C3541 1.327 . S
C3541 H3535 0.950 . S
C3541 C3540 1.327 . S
C3541 C3545 1.429 . S
C3542 C3525 1.574 . S
C3542 H3536 0.949 . S
C3542 C3546 1.368 . S
C3543 C3524 1.429 . S
C3543 C3537 1.429 . S
C3543 C3544 1.523 . S
C3544 C3525 1.368 . S
C3544 C3538 1.368 . S
C3544 C3543 1.523 . S
C3545 C3529 1.429 . S
C3545 C3541 1.429 . S
C3545 C3546 1.523 . S
C3546 C3530 1.368 . S
C3546 C3542 1.368 . S
C3546 C3545 1.523 . S
H3547 C3522 0.950 . S
H3548 C3524 0.950 . S
H3549 C3525 0.949 . S
H3550 C3527 0.950 . S
H3551 C3529 0.950 . S
C673 C385 0.364 . S
C678 C7 0.474 . S
C703 C21 1.211 . S
C708 C541 1.176 . S
C733 C35 0.620 . S
C738 C357 0.634 . S
C763 C569 0.425 . S
C768 C49 0.333 . S
C793 C399 0.896 . S
C798 C65 0.884 . S
C823 C77 0.364 . S
C828 C315 0.474 . S
C853 C427 0.401 . S
C858 C93 0.515 . S
C883 C105 0.634 . S
C888 C287 0.620 . S
C913 C499 0.544 . S
C918 C107 0.541 . S
C943 C469 0.433 . S
C948 C63 0.437 . S
C973 C79 0.608 . S
C978 C597 0.619 . S
C1003 C483 0.513 . S
C1008 C91 0.466 . S
C1033 C121 0.609 . S
C1038 C191 0.604 . S
C1063 C203 0.444 . S
C1068 C135 0.501 . S
C1093 C219 0.427 . S
C1098 C149 0.372 . S
C1123 C175 0.417 . S
C1128 C163 0.362 . S
C1153 C189 0.513 . S
C1158 C343 0.466 . S
C1183 C205 1.008 . S
C1188 C555 0.998 . S
C1213 C371 0.437 . S
C1218 C217 0.433 . S
C1243 C387 0.608 . S
C1248 C233 0.619 . S
C1273 C245 0.417 . S
C1278 C415 0.362 . S
C1303 C261 0.787 . S
C1308 C51 0.791 . S
C1333 C275 0.651 . S
C1338 C23 0.493 . S
C1363 C625 0.425 . S
C1368 C301 0.333 . S
C1393 C653 1.176 . S
C1398 C329 1.211 . S
C1423 C345 0.515 . S
C1428 C119 0.401 . S
C1453 C373 0.885 . S
C1458 C147 0.896 . S
C1483 C359 0.543 . S
C1488 C611 0.544 . S
C1513 C471 0.427 . S
C1518 C401 0.372 . S
C1543 C485 0.608 . S
C1548 C429 0.603 . S
C1573 C455 0.443 . S
C1578 C443 0.501 . S
C1603 C247 0.548 . S
C1608 C639 0.435 . S
C1633 C513 0.651 . S
C1638 C331 0.493 . S
C1663 C303 0.789 . S
C1668 C527 0.784 . S
C1693 C665 0.240 . S
C1698 C441 0.499 . S
C1723 C413 0.928 . S
C1728 C637 0.919 . S
C1753 C133 0.499 . S
C1758 C553 0.240 . S
C1783 C161 0.928 . S
C1788 C581 0.919 . S
C1813 C177 0.548 . S
C1818 C583 0.435 . S
C1843 C273 0.342 . S
C1848 C539 0.440 . S
C1873 C259 0.521 . S
C1878 C567 0.543 . S
C1903 C317 0.517 . S
C1908 C595 0.567 . S
C1933 C289 0.298 . S
C1938 C497 0.420 . S
C1963 C623 0.543 . S
C1968 C525 0.521 . S
C1993 C651 0.440 . S
C1998 C511 0.342 . S
C2023 C667 0.998 . S
C2028 C457 1.008 . S
C2053 C609 0.420 . S
C2058 C37 0.292 . S
C2083 C231 0.565 . S
C2088 C9 0.520 . S
C2113 C8 1.429 . S
C2118 C647 1.342 . S
C2143 C22 1.580 . S
C2148 C666 1.513 . S
C2173 C36 1.692 . S
C2178 C619 1.782 . S
C2203 C50 1.985 . S
C2208 C638 2.051 . S
C2233 C59 1.777 . S
C2238 C134 1.853 . S
C2263 C78 1.145 . S
C2268 C148 1.218 . S
C2293 C87 1.434 . S
C2298 C162 1.355 1_545 S
C2323 C106 1.972 . S
C2328 C120 1.761 . S
C2353 C101 0.835 . S
C2358 C549 0.843 . S
C2383 C64 2.077 . S
C2388 C372 2.077 . S
C2413 C73 0.953 . S
C2418 C577 0.865 . S
C2443 C92 1.989 . S
C2448 C344 1.989 . S
C2473 C115 2.155 . S
C2478 C325 1.986 . S
C2503 C129 1.441 . S
C2508 C437 1.441 . S
C2533 C143 1.221 . S
C2538 C297 1.283 1_556 S
C2563 C409 1.841 . S
C2568 C157 1.842 . S
C2593 C176 1.308 . S
C2598 C274 1.315 . S
C2623 C190 2.352 . S
C2628 C232 2.357 . S
C2653 C269 1.703 . S
C2658 C199 1.641 . S
C2683 C610 1.428 . S
C2688 C218 1.428 . S
C2713 C213 1.946 . S
C2718 C227 1.858 . S
C2743 C512 1.315 . S
C2748 C246 1.308 . S
C2773 C171 1.658 . S
C2778 C255 1.596 . S
C2803 C563 1.784 . S
C2808 C288 1.690 . S
C2833 C582 2.044 . S
C2838 C302 1.993 . S
C2863 C316 1.429 . S
C2868 C535 1.342 . S
C2893 C554 1.513 . S
C2898 C330 1.580 . S
C2923 C339 1.434 . S
C2928 C414 1.355 1_565 S
C2953 C428 1.755 . S
C2958 C358 1.979 . S
C2983 C367 1.777 . S
C2988 C442 1.853 . S
C3013 C400 1.216 . S
C3018 C386 1.148 . S
C3043 C381 0.953 . S
C3048 C633 0.865 . S
C3073 C661 0.848 . S
C3078 C353 0.831 . S
C3103 C395 1.221 . S
C3108 C45 1.283 1_556 S
C3133 C17 1.986 . S
C3138 C423 2.155 . S
C3163 C526 2.047 . S
C3168 C456 2.071 . S
C3193 C498 1.428 . S
C3198 C470 1.428 . S
C3223 C241 1.658 . S
C3228 C521 1.596 . S
C3253 C484 2.352 . S
C3258 C596 2.357 . S
C3283 C493 1.790 . S
C3288 C479 1.697 . S
C3313 C204 2.071 . S
C3318 C260 2.047 . S
C3343 C451 1.641 . S
C3348 C507 1.703 . S
C3373 C652 2.416 . S
C3378 C540 2.416 . S
C3403 C568 1.325 . S
C3408 C624 1.325 . S
C3433 C3 1.741 . S
C3438 C311 1.741 . S
C3463 C283 1.816 . S
C3468 C31 1.817 . S
C3493 C465 1.946 . S
C3498 C591 1.858 . S
C3523 C185 1.694 . S
C3528 C605 1.792 . S
