# Generated by pormake.
# Topology uov, (4)-cn, num edge types: 1
# Building blocks:
#     Node 0, Type 0, BuildingBlock: AZAVOO_clean_sbu_0, # of connection points: 4
#     Node 1, Type 0, BuildingBlock: AZAVOO_clean_sbu_0, # of connection points: 4
#     Node 2, Type 0, BuildingBlock: AZAVOO_clean_sbu_0, # of connection points: 4
#     Node 3, Type 0, BuildingBlock: AZAVOO_clean_sbu_0, # of connection points: 4
#     Node 4, Type 0, BuildingBlock: AZAVOO_clean_sbu_0, # of connection points: 4
#     Node 5, Type 0, BuildingBlock: AZAVOO_clean_sbu_0, # of connection points: 4
#     Node 6, Type 0, BuildingBlock: AZAVOO_clean_sbu_0, # of connection points: 4
#     Node 7, Type 0, BuildingBlock: AZAVOO_clean_sbu_0, # of connection points: 4
#     Edge 8, Type (0, 0), BuildingBlock: UVAHIK_clean_linker_0, # of connection points: 2
#     Edge 9, Type (0, 0), BuildingBlock: UVAHIK_clean_linker_0, # of connection points: 2
#     Edge 10, Type (0, 0), BuildingBlock: UVAHIK_clean_linker_0, # of connection points: 2
#     Edge 11, Type (0, 0), BuildingBlock: UVAHIK_clean_linker_0, # of connection points: 2
#     Edge 12, Type (0, 0), BuildingBlock: UVAHIK_clean_linker_0, # of connection points: 2
#     Edge 13, Type (0, 0), BuildingBlock: UVAHIK_clean_linker_0, # of connection points: 2
#     Edge 14, Type (0, 0), BuildingBlock: UVAHIK_clean_linker_0, # of connection points: 2
#     Edge 15, Type (0, 0), BuildingBlock: UVAHIK_clean_linker_0, # of connection points: 2
#     Edge 16, Type (0, 0), BuildingBlock: UVAHIK_clean_linker_0, # of connection points: 2
#     Edge 17, Type (0, 0), BuildingBlock: UVAHIK_clean_linker_0, # of connection points: 2
#     Edge 18, Type (0, 0), BuildingBlock: UVAHIK_clean_linker_0, # of connection points: 2
#     Edge 19, Type (0, 0), BuildingBlock: UVAHIK_clean_linker_0, # of connection points: 2
#     Edge 20, Type (0, 0), BuildingBlock: UVAHIK_clean_linker_0, # of connection points: 2
#     Edge 21, Type (0, 0), BuildingBlock: UVAHIK_clean_linker_0, # of connection points: 2
#     Edge 22, Type (0, 0), BuildingBlock: UVAHIK_clean_linker_0, # of connection points: 2
#     Edge 23, Type (0, 0), BuildingBlock: UVAHIK_clean_linker_0, # of connection points: 2
# Relax obj value: 0.245
# Max RMSD: 0.250
# Mean RMSD: 0.233
data_MOF--net-uov--node1-AZAVOO_clean_sbu_0--edge1-UVAHIK_clean_linker_0
_symmetry_space_group_name_H-M    P1
_symmetry_Int_Tables_number       1
_symmetry_cell_setting            triclinic
loop_
_symmetry_equiv_pos_as_xyz
'x, y, z'
_cell_length_a     39.060354
_cell_length_b     37.853885
_cell_length_c     54.939499
_cell_angle_alpha  90.24397
_cell_angle_beta   89.880678
_cell_angle_gamma 93.028973
loop_
_atom_site_label
_atom_site_type_symbol
_atom_site_fract_x
_atom_site_fract_y
_atom_site_fract_z
_atom_type_partial_charge
Mg0 Mg 0.9549 0.2262 0.61475 0.0
O1 O 0.98408 0.22923 0.57844 0.0
O2 O 0.94846 0.2479 0.54996 0.0
Mg3 Mg 0.89688 0.25687 0.56799 0.0
C4 C 0.9777 0.2377 0.55648 0.0
C5 C 0.00764 0.22825 0.65732 0.0
O6 O 0.9829 0.24548 0.66739 0.0
O7 O 0.96005 0.28629 0.61816 0.0
O8 O 0.92265 0.30268 0.5902 0.0
O9 O 0.93764 0.17115 0.60595 0.0
O10 O 0.90886 0.21751 0.5956 0.0
C11 C 0.94448 0.31022 0.607 0.0
C12 C 0.91265 0.18392 0.59397 0.0
O13 O 0.00473 0.21877 0.63518 0.0
Mg14 Mg 0.24439 0.07013 0.36025 0.0
O15 O 0.23219 0.03905 0.39562 0.0
O16 O 0.24458 0.07543 0.42698 0.0
Mg17 Mg 0.26875 0.12692 0.41206 0.0
C18 C 0.2332 0.04564 0.41848 0.0
C19 C 0.22558 0.02301 0.31655 0.0
O20 O 0.21873 0.0548 0.30908 0.0
O21 O 0.30066 0.06157 0.36549 0.0
O22 O 0.31391 0.09552 0.39787 0.0
O23 O 0.19253 0.0908 0.36169 0.0
O24 O 0.2382 0.11748 0.37885 0.0
C25 C 0.32206 0.0736 0.38134 0.0
C26 C 0.20539 0.11542 0.37591 0.0
O27 O 0.23746 0.01954 0.33786 0.0
Mg28 Mg 0.03636 0.76282 0.61329 0.0
O29 O 0.00541 0.76134 0.5777 0.0
O30 O 0.03913 0.74134 0.54826 0.0
Mg31 Mg 0.09034 0.72832 0.56497 0.0
C32 C 0.01071 0.75299 0.55548 0.0
C33 C -0.00771 0.79944 0.64987 0.0
O34 O 0.02297 0.81521 0.65169 0.0
O35 O 0.02768 0.70291 0.61661 0.0
O36 O 0.06278 0.68443 0.58763 0.0
O37 O 0.05686 0.81703 0.6045 0.0
O38 O 0.0819 0.76887 0.59278 0.0
C39 C 0.04138 0.67808 0.60489 0.0
C40 C 0.08045 0.80283 0.5918 0.0
O41 O 0.98809 0.77349 0.63521 0.0
Mg42 Mg 0.72776 0.91549 0.36861 0.0
O43 O 0.7415 0.94863 0.40296 0.0
O44 O 0.72388 0.91685 0.43533 0.0
Mg45 Mg 0.69881 0.86468 0.422 0.0
C46 C 0.73812 0.94477 0.42597 0.0
C47 C 0.766 0.98111 0.34563 0.0
O48 O 0.78964 0.9701 0.36035 0.0
O49 O 0.67212 0.92779 0.37317 0.0
O50 O 0.65554 0.8963 0.40581 0.0
O51 O 0.77811 0.89169 0.37026 0.0
O52 O 0.73187 0.86967 0.38934 0.0
C53 C 0.64936 0.91768 0.38864 0.0
C54 C 0.76456 0.86931 0.38572 0.0
O55 O 0.73703 0.96422 0.3448 0.0
Mg56 Mg 0.96287 0.21646 0.13112 0.0
O57 O 0.93575 0.20419 0.09443 0.0
O58 O 0.97117 0.22345 0.06474 0.0
Mg59 Mg 0.02033 0.2472 0.08188 0.0
C60 C 0.94276 0.20877 0.07188 0.0
C61 C 0.90568 0.21908 0.17113 0.0
O62 O 0.92525 0.24644 0.17832 0.0
O63 O 0.95287 0.27542 0.1282 0.0
O64 O 0.98973 0.2912 0.09839 0.0
O65 O 0.98734 0.16453 0.12868 0.0
O66 O 0.01046 0.21485 0.11443 0.0
C67 C 0.96705 0.29867 0.1141 0.0
C68 C 0.01181 0.18116 0.11676 0.0
O69 O 0.91327 0.20309 0.15163 0.0
Mg70 Mg 0.24602 0.06346 0.8846 0.0
O71 O 0.22541 0.00664 0.89443 0.0
O72 O 0.16896 0.00992 0.90053 0.0
Mg73 Mg 0.15356 0.06638 0.89535 0.0
C74 C 0.19596 0.99238 0.89989 0.0
C75 C 0.32221 0.06584 0.87505 0.0
O76 O 0.316 0.09713 0.88399 0.0
O77 O 0.22312 0.06099 0.8461 0.0
O78 O 0.1675 0.06437 0.855 0.0
O79 O 0.25398 0.073 0.92428 0.0
O80 O 0.20639 0.08403 0.90465 0.0
C81 C 0.19183 0.06239 0.8396 0.0
C82 C 0.22245 0.08196 0.92499 0.0
O83 O 0.29713 0.0435 0.87188 0.0
Mg84 Mg 0.018 0.75313 0.12278 0.0
O85 O 0.04729 0.76334 0.08661 0.0
O86 O 0.01104 0.74842 0.05644 0.0
Mg87 Mg 0.96038 0.72674 0.07262 0.0
C88 C 0.04029 0.76052 0.06393 0.0
C89 C 0.06256 0.7638 0.16737 0.0
O90 O 0.03173 0.75563 0.17595 0.0
O91 O 0.02387 0.69331 0.11995 0.0
O92 O 0.98707 0.68055 0.08957 0.0
O93 O -0.00321 0.80694 0.11999 0.0
O94 O 0.97128 0.75775 0.10562 0.0
C95 C 0.0084 0.67113 0.10559 0.0
C96 C 0.97164 0.79151 0.10804 0.0
O97 O 0.06711 0.76305 0.14447 0.0
Mg98 Mg 0.73265 0.91528 0.88137 0.0
O99 O 0.76275 0.96721 0.89307 0.0
O100 O 0.81687 0.95258 0.89902 0.0
Mg101 Mg 0.82256 0.89472 0.88994 0.0
C102 C 0.79378 0.97522 0.89934 0.0
C103 C 0.65879 0.93526 0.88244 0.0
O104 O 0.66063 0.90925 0.89806 0.0
O105 O 0.7548 0.91775 0.84258 0.0
O106 O 0.809 0.90505 0.85027 0.0
O107 O 0.72459 0.90439 0.92084 0.0
O108 O 0.76836 0.88594 0.89963 0.0
C109 C 0.78535 0.91271 0.83552 0.0
C110 C 0.75392 0.89006 0.92047 0.0
O111 O 0.68574 0.94556 0.8709 0.0
C112 C 0.00604 0.63161 0.62792 0.0
C113 C 0.03202 0.64062 0.61093 0.0
C114 C -0.00338 0.59607 0.63264 0.0
C115 C 0.96701 0.52043 0.62487 0.0
H116 H 0.03536 0.44973 0.62503 0.0
C117 C 0.9351 0.37457 0.60108 0.0
C118 C 0.95252 0.34802 0.61296 0.0
C119 C 0.94373 0.41026 0.60551 0.0
C120 C 0.01592 0.46909 0.62543 0.0
H121 H 0.06891 0.61913 0.58599 0.0
H122 H 0.0523 0.55767 0.59402 0.0
H123 H 0.05353 0.51229 0.62498 0.0
H124 H -0.00793 0.33839 0.63945 0.0
H125 H 0.00704 0.40089 0.64725 0.0
H126 H 0.9294 0.4772 0.62512 0.0
C127 C 0.03945 0.57793 0.60394 0.0
C128 C 0.02635 0.50497 0.62511 0.0
C129 C 0.04876 0.61329 0.59918 0.0
C130 C 0.97823 0.35812 0.62989 0.0
C131 C 0.98691 0.39393 0.63429 0.0
C132 C 0.95658 0.48453 0.62519 0.0
C133 C 0.01312 0.56883 0.62058 0.0
C134 C 0.00203 0.53104 0.6242 0.0
C135 C 0.96999 0.42041 0.62194 0.0
C136 C 0.98091 0.45843 0.62485 0.0
H137 H -0.00734 0.65197 0.63734 0.0
H138 H 0.97638 0.58991 0.64569 0.0
H139 H 0.94761 0.5398 0.62407 0.0
H140 H 0.91513 0.36788 0.58795 0.0
H141 H 0.93052 0.4299 0.59539 0.0
C142 C 0.6029 0.9449 0.36505 0.0
C143 C 0.61514 0.9323 0.38722 0.0
C144 C 0.57101 0.95986 0.36391 0.0
C145 C 0.49017 0.96885 0.3993 0.0
H146 H 0.47833 0.04652 0.35477 0.0
C147 C 0.37581 0.05956 0.40303 0.0
C148 C 0.35691 0.0603 0.38132 0.0
C149 C 0.40766 0.04448 0.40345 0.0
C150 C 0.48137 0.02478 0.36721 0.0
H151 H 0.60388 0.92577 0.42563 0.0
H152 H 0.54909 0.95324 0.42396 0.0
H153 H 0.53327 0.01881 0.35636 0.0
H154 H 0.35694 0.04696 0.34288 0.0
H155 H 0.41332 0.02158 0.34353 0.0
H156 H 0.4385 0.97609 0.41073 0.0
C157 C 0.56335 0.95051 0.4072 0.0
C158 C 0.5127 0.00865 0.36803 0.0
C159 C 0.5949 0.9349 0.40822 0.0
C160 C 0.37092 0.04666 0.35988 0.0
C161 C 0.40313 0.03227 0.36021 0.0
C162 C 0.45913 0.98548 0.39881 0.0
C163 C 0.55095 0.96325 0.38503 0.0
C164 C 0.51751 0.98037 0.38404 0.0
C165 C 0.42146 0.0306 0.38207 0.0
C166 C 0.45449 0.01347 0.38272 0.0
H167 H 0.61787 0.94298 0.34852 0.0
H168 H 0.56209 0.96859 0.34641 0.0
H169 H 0.49251 0.94671 0.41148 0.0
H170 H 0.36556 0.06969 0.41986 0.0
H171 H 0.42152 0.04356 0.42048 0.0
C172 C 0.95864 0.35201 0.14001 0.0
C173 C 0.95979 0.33622 0.11686 0.0
C174 C 0.95991 0.38895 0.14229 0.0
C175 C 0.94948 0.47152 0.10824 0.0
H176 H 0.02583 0.51059 0.14664 0.0
C177 C 0.00514 0.60992 0.08913 0.0
C178 C 0.01123 0.63277 0.10902 0.0
C179 C -0.00083 0.57373 0.09272 0.0
C180 C 0.00414 0.50015 0.13611 0.0
H181 H 0.96072 0.34605 0.07806 0.0
H182 H 0.96185 0.41015 0.08196 0.0
H183 H 0.0092 0.4474 0.14928 0.0
H184 H 0.01829 0.63545 0.14811 0.0
H185 H 0.00762 0.57173 0.15446 0.0
H186 H 0.94462 0.52378 0.0947 0.0
C187 C 0.96031 0.39433 0.09835 0.0
C188 C -0.00549 0.46406 0.13771 0.0
C189 C 0.9597 0.35765 0.0961 0.0
C190 C 0.01386 0.61836 0.13244 0.0
C191 C 0.00757 0.58195 0.13608 0.0
C192 C 0.95897 0.50745 0.10671 0.0
C193 C 0.96157 0.41041 0.12144 0.0
C194 C 0.96771 0.44928 0.12325 0.0
C195 C -0.00125 0.55954 0.11631 0.0
C196 C 0.98708 0.52198 0.12002 0.0
H197 H 0.95908 0.33597 0.15628 0.0
H198 H 0.96069 0.40076 0.16029 0.0
H199 H 0.92844 0.4609 0.09715 0.0
H200 H 0.00335 0.62028 0.07085 0.0
H201 H -0.00642 0.557 0.07702 0.0
C202 C 0.38534 0.07984 0.8777 0.0
C203 C 0.35802 0.05621 0.87088 0.0
C204 C 0.41917 0.06996 0.87593 0.0
C205 C 0.47626 0.00694 0.84786 0.0
H206 H 0.52916 0.02139 0.90709 0.0
C207 C 0.61989 0.97329 0.85866 0.0
C208 C 0.62588 0.95222 0.87908 0.0
C209 C 0.58814 0.98838 0.85567 0.0
C210 C 0.51476 0.01737 0.89039 0.0
H211 H 0.34495 0.00423 0.85577 0.0
H212 H 0.40433 0.987 0.85257 0.0
H213 H 0.4717 0.04337 0.90461 0.0
H214 H 0.60355 0.93085 0.91246 0.0
H215 H 0.54877 0.95763 0.90745 0.0
H216 H 0.51946 0.9804 0.83386 0.0
C217 C 0.39939 0.01319 0.8593 0.0
C218 C 0.48197 0.03012 0.8889 0.0
C219 C 0.36541 0.02298 0.86126 0.0
C220 C 0.59976 0.94687 0.8965 0.0
C221 C 0.56842 0.96234 0.89372 0.0
C222 C 0.50937 -0.00544 0.84924 0.0
C223 C 0.42654 0.03633 0.86711 0.0
C224 C 0.46218 0.02464 0.86776 0.0
C225 C 0.56224 0.98317 0.87329 0.0
C226 C 0.52864 -0.00085 0.87069 0.0
H227 H 0.38062 0.10573 0.88506 0.0
H228 H 0.43962 0.08847 0.88183 0.0
H229 H 0.4616 0.00255 0.8313 0.0
H230 H 0.63952 0.97776 0.8449 0.0
H231 H 0.58397 0.00444 0.83979 0.0
C232 C 0.14774 0.12675 0.39306 0.0
C233 C 0.18283 0.1365 0.39118 0.0
C234 C 0.12691 0.14414 0.40937 0.0
C235 C 0.08413 0.19343 0.4383 0.0
H236 H 0.12203 0.21452 0.50221 0.0
C237 C 0.00081 0.24878 0.51446 0.0
C238 C 0.00444 0.23391 0.53765 0.0
C239 C 0.02464 0.2429 0.49608 0.0
C240 C 0.111 0.20867 0.48449 0.0
H241 H 0.22324 0.17342 0.40394 0.0
H242 H 0.18671 0.20431 0.43215 0.0
H243 H 0.1588 0.19267 0.47031 0.0
H244 H 0.03652 0.20196 0.55991 0.0
H245 H 0.07746 0.19085 0.52774 0.0
H246 H 0.03592 0.20739 0.45281 0.0
C247 C 0.17547 0.1826 0.42146 0.0
C248 C 0.13222 0.19662 0.46606 0.0
C249 C 0.19638 0.165 0.40522 0.0
C250 C 0.03301 0.21391 0.54227 0.0
C251 C 0.05664 0.20772 0.52382 0.0
C252 C 0.06286 0.20518 0.45676 0.0
C253 C 0.1406 0.17194 0.42405 0.0
C254 C 0.1189 0.18823 0.44286 0.0
C255 C 0.05248 0.22169 0.50038 0.0
C256 C 0.07589 0.21239 0.48021 0.0
H257 H 0.13652 0.1048 0.38257 0.0
H258 H 0.10033 0.13482 0.41111 0.0
H259 H 0.07313 0.18779 0.42054 0.0
H260 H 0.9793 0.26467 0.51037 0.0
H261 H 0.02099 0.25468 0.47841 0.0
C262 C 0.21206 0.02777 0.45981 0.0
C263 C 0.22057 0.01818 0.43591 0.0
C264 C 0.20027 0.00224 0.47649 0.0
C265 C 0.16256 0.91036 0.48065 0.0
H266 H 0.18503 0.92358 0.54895 0.0
C267 C 0.12027 0.80978 0.55582 0.0
C268 C 0.10215 0.8249 0.57503 0.0
C269 C 0.13814 0.83128 0.5389 0.0
C270 C 0.17862 0.91957 0.52993 0.0
H271 H 0.22359 0.9741 0.41081 0.0
H272 H 0.20394 0.9292 0.44019 0.0
H273 H 0.21019 0.96446 0.5189 0.0
H274 H 0.08994 0.87446 0.59215 0.0
H275 H 0.12182 0.91183 0.56298 0.0
H276 H 0.13126 0.86508 0.49192 0.0
C277 C 0.20565 0.95665 0.4459 0.0
C278 C 0.19281 0.94309 0.51269 0.0
C279 C 0.21705 0.98236 0.42906 0.0
C280 C 0.10346 0.86193 0.5775 0.0
C281 C 0.12182 0.88336 0.56087 0.0
C282 C 0.14878 0.88651 0.4979 0.0
C283 C 0.19712 0.96628 0.46986 0.0
C284 C 0.18437 0.9393 0.48787 0.0
C285 C 0.13887 0.86826 0.5412 0.0
C286 C 0.15616 0.89133 0.52273 0.0
H287 H 0.21406 0.05519 0.46562 0.0
H288 H 0.19313 0.01089 0.49452 0.0
H289 H 0.15512 0.90676 0.4618 0.0
H290 H 0.12008 0.78147 0.55342 0.0
H291 H 0.15132 0.81904 0.52396 0.0
C292 C 0.77645 0.83556 0.4238 0.0
C293 C 0.78703 0.84808 0.40082 0.0
C294 C 0.79964 0.82009 0.43933 0.0
C295 C 0.89325 0.81874 0.44949 0.0
H296 H 0.86689 0.74707 0.49719 0.0
C297 C -0.00843 0.75778 0.51224 0.0
C298 C 0.98366 0.75831 0.53722 0.0
C299 C 0.9668 0.76494 0.49494 0.0
C300 C 0.87449 0.76716 0.48398 0.0
H301 H 0.82952 0.8518 0.37536 0.0
H302 H 0.86952 0.82353 0.40191 0.0
H303 H 0.82501 0.76486 0.4672 0.0
H304 H 0.94309 0.76555 0.56354 0.0
H305 H 0.89963 0.77771 0.53314 0.0
H306 H 0.94278 0.82073 0.46613 0.0
C307 C 0.84372 0.82689 0.40844 0.0
C308 C 0.85054 0.77746 0.46685 0.0
C309 C 0.82069 0.84286 0.39311 0.0
C310 C 0.95006 0.76509 0.54445 0.0
C311 C 0.92513 0.77183 0.52708 0.0
C312 C 0.91722 0.80813 0.46637 0.0
C313 C 0.83382 0.8163 0.43205 0.0
C314 C 0.85956 0.80359 0.44948 0.0
C315 C 0.93346 0.77237 0.50219 0.0
C316 C 0.90804 0.78243 0.48387 0.0
H317 H 0.75083 0.83914 0.43038 0.0
H318 H 0.79109 0.81258 0.45743 0.0
H319 H 0.901 0.83956 0.43687 0.0
H320 H 0.01717 0.75266 0.506 0.0
H321 H 0.97379 0.76491 0.47584 0.0
C322 C 0.74326 0.97197 0.46745 0.0
C323 C 0.75187 0.97297 0.4426 0.0
C324 C 0.75773 -0.00298 0.48361 0.0
C325 C 0.80977 0.03554 0.5157 0.0
H326 H 0.82828 0.1342 0.49919 0.0
C327 C 0.90068 0.12613 0.57283 0.0
C328 C 0.89187 0.16113 0.57706 0.0
C329 C 0.88199 0.10455 0.55644 0.0
C330 C 0.82297 0.1068 0.50416 0.0
H331 H 0.78177 0.00182 0.41512 0.0
H332 H 0.80765 0.04524 0.44351 0.0
H333 H 0.7974 0.09482 0.4704 0.0
H334 H 0.85615 0.2008 0.56761 0.0
H335 H 0.82315 0.16285 0.53906 0.0
H336 H 0.83474 0.04743 0.54953 0.0
C337 C 0.78928 0.0253 0.45041 0.0
C338 C 0.80564 0.08415 0.48755 0.0
C339 C 0.77458 0.0003 0.43415 0.0
C340 C 0.86374 0.17404 0.56462 0.0
C341 C 0.84493 0.15235 0.54819 0.0
C342 C 0.82696 0.05812 0.53226 0.0
C343 C 0.78143 0.02358 0.4754 0.0
C344 C 0.79898 0.0482 0.49311 0.0
C345 C 0.85385 0.11733 0.54395 0.0
C346 C 0.83407 0.09394 0.52663 0.0
H347 H 0.7255 0.95159 0.47455 0.0
H348 H 0.75051 -0.00463 0.50263 0.0
H349 H 0.80551 0.00793 0.52048 0.0
H350 H 0.92234 0.11539 0.58197 0.0
H351 H 0.88995 0.07793 0.55331 0.0
C352 C 0.83786 0.02091 0.91326 0.0
C353 C 0.80309 0.01034 0.91023 0.0
C354 C 0.84756 0.0502 0.9276 0.0
C355 C 0.81645 0.10088 0.97962 0.0
H356 H 0.90198 0.15505 0.96861 0.0
C357 C 0.89605 0.16529 0.058 0.0
C358 C 0.91837 0.19474 0.05315 0.0
C359 C 0.87653 0.14914 0.03928 0.0
C360 C 0.87766 0.14084 0.97195 0.0
H361 H 0.7511 0.02376 0.91868 0.0
H362 H 0.7681 0.07561 0.94351 0.0
H363 H 0.87771 0.11788 0.93636 0.0
H364 H 0.93574 0.23203 0.02537 0.0
H365 H 0.9007 0.205 0.99305 0.0
H366 H 0.81625 0.12421 0.01519 0.0
C367 C 0.78787 0.06069 0.93507 0.0
C368 C 0.86395 0.11903 0.95346 0.0
C369 C 0.77811 0.03122 0.92062 0.0
C370 C 0.91916 0.20902 0.02959 0.0
C371 C 0.8992 0.19332 0.011 0.0
C372 C 0.82998 0.12308 -0.00191 0.0
C373 C 0.82278 0.06993 0.93928 0.0
C374 C 0.83381 0.09782 0.95731 0.0
C375 C 0.87845 0.16244 0.01536 0.0
C376 C 0.86134 0.14256 0.99477 0.0
H377 H 0.85781 0.00555 0.90545 0.0
H378 H 0.87466 0.05608 0.93057 0.0
H379 H 0.79326 0.08485 0.98334 0.0
H380 H 0.89499 0.15359 0.07596 0.0
H381 H 0.86125 0.12522 0.04341 0.0
C382 C 0.21934 0.07674 0.97047 0.0
C383 C 0.2042 0.08586 0.94832 0.0
C384 C 0.20121 0.07932 0.99234 0.0
C385 C 0.11326 0.08417 0.01646 0.0
H386 H 0.15612 0.13592 0.07035 0.0
C387 C 0.03421 0.12574 0.09906 0.0
C388 C 0.03843 0.16219 0.10384 0.0
C389 C 0.05784 0.10904 0.08437 0.0
C390 C 0.14392 0.1211 0.05554 0.0
H391 H 0.15866 0.10582 0.93186 0.0
H392 H 0.12717 0.1101 0.96979 0.0
H393 H 0.19062 0.12058 0.03508 0.0
H394 H 0.07173 0.20921 0.09851 0.0
H395 H 0.11258 0.18031 0.07284 0.0
H396 H 0.06622 0.08642 0.03619 0.0
C397 C 0.1527 0.10026 0.97025 0.0
C398 C 0.1637 0.11211 0.03546 0.0
C399 C 0.17083 0.09792 0.94851 0.0
C400 C 0.0676 0.18116 0.09489 0.0
C401 C 0.09125 0.16449 0.08041 0.0
C402 C 0.09353 0.09306 0.03655 0.0
C403 C 0.16759 0.09083 0.99238 0.0
C404 C 0.14826 0.09474 0.01535 0.0
C405 C 0.08621 0.12846 0.07448 0.0
C406 C 0.10841 0.11275 0.05589 0.0
H407 H 0.24504 0.06732 0.97089 0.0
H408 H 0.2133 0.07197 0.00917 0.0
H409 H 0.10084 0.07027 0.00134 0.0
H410 H 0.012 0.11046 0.10583 0.0
H411 H 0.05346 0.08117 0.08021 0.0
C412 C 0.09881 0.78683 0.0525 0.0
C413 C 0.06582 0.77388 0.04559 0.0
C414 C 0.12148 0.80223 0.03527 0.0
C415 C 0.13373 0.81542 0.96799 0.0
H416 H 0.18177 0.90281 0.98821 0.0
C417 C 0.1625 0.93538 0.90643 0.0
C418 C 0.19306 0.95609 0.90972 0.0
C419 C 0.15535 0.90545 0.92072 0.0
C420 C 0.16916 0.87807 0.98234 0.0
H421 H 0.03135 0.76607 0.01484 0.0
H422 H 0.07006 0.79355 0.98526 0.0
H423 H 0.15303 0.86512 0.01855 0.0
H424 H 0.24103 0.9606 0.9295 0.0
H425 H 0.2282 0.90842 0.95488 0.0
H426 H 0.14806 0.82991 0.93151 0.0
C427 C 0.07899 0.79123 0.0038 0.0
C428 C 0.15264 0.85635 -0.00023 0.0
C429 C 0.05653 0.77565 0.02092 0.0
C430 C 0.21744 0.94487 0.92639 0.0
C431 C 0.20997 0.91526 0.94106 0.0
C432 C 0.14988 0.83739 0.95054 0.0
C433 C 0.11161 0.80525 0.01074 0.0
C434 C 0.13378 0.82526 0.99276 0.0
C435 C 0.17832 0.89599 0.93892 0.0
C436 C 0.16696 0.86942 0.95747 0.0
H437 H 0.10695 0.7857 0.0713 0.0
H438 H 0.14656 0.81222 0.04126 0.0
H439 H 0.12026 0.79124 0.96193 0.0
H440 H 0.14321 0.94355 0.8938 0.0
H441 H 0.13066 0.89132 0.91874 0.0
C442 C 0.80357 0.86654 0.9425 0.0
C443 C 0.77283 0.88412 0.94319 0.0
C444 C 0.82338 0.86388 0.96341 0.0
C445 C 0.81956 0.86372 0.02959 0.0
H446 H 0.91835 0.87774 0.02361 0.0
C447 C 0.95266 0.84669 0.08812 0.0
C448 C 0.94578 0.8115 0.09535 0.0
C449 C 0.92938 0.86345 0.0733 0.0
C450 C 0.89079 0.87446 0.02576 0.0
H451 H 0.73807 0.91166 0.96657 0.0
H452 H 0.77261 0.9064 0.00336 0.0
H453 H 0.88182 0.89152 0.98935 0.0
H454 H 0.90844 0.76704 0.09429 0.0
H455 H 0.868 0.79614 0.06869 0.0
H456 H 0.82867 0.84546 0.06573 0.0
C457 C 0.78142 0.89502 0.98649 0.0
C458 C 0.86992 0.8819 0.00606 0.0
C459 C 0.76165 0.89791 0.96547 0.0
C460 C 0.9145 0.79412 0.0888 0.0
C461 C 0.89117 0.81092 0.07433 0.0
C462 C 0.84046 0.85608 0.04927 0.0
C463 C 0.81275 0.87848 0.98554 0.0
C464 C 0.83421 0.87551 0.00752 0.0
C465 C 0.89871 0.8454 0.0659 0.0
C466 C 0.87634 0.86031 0.04726 0.0
H467 H 0.81253 0.85498 0.92576 0.0
H468 H 0.84697 0.85015 0.96229 0.0
H469 H 0.79211 0.85858 0.03122 0.0
H470 H 0.97663 0.86064 0.09296 0.0
H471 H 0.93573 0.89012 0.06708 0.0
C472 C 0.05797 0.19045 0.66307 0.0
C473 C 0.03535 0.21481 0.67257 0.0
C474 C 0.08038 0.17344 0.67843 0.0
C475 C 0.08457 0.14615 0.74209 0.0
H476 H 0.17764 0.12205 0.7272 0.0
C477 C 0.20233 0.092 0.79952 0.0
C478 C 0.18295 0.06759 0.81382 0.0
C479 C 0.18812 0.106 0.77846 0.0
C480 C 0.15166 0.12858 0.73155 0.0
H481 H 0.02051 0.2424 0.7053 0.0
H482 H 0.05977 0.2131 0.73194 0.0
H483 H 0.14662 0.15874 0.69882 0.0
H484 H 0.13554 0.03542 0.81592 0.0
H485 H 0.11139 0.0586 0.77879 0.0
H486 H 0.08938 0.11688 0.77484 0.0
C487 C 0.05964 0.20654 0.71273 0.0
C488 C 0.13388 0.14944 0.71529 0.0
C489 C 0.03725 0.22348 0.69742 0.0
C490 C 0.15089 0.05444 0.8053 0.0
C491 C 0.13694 0.06801 0.78418 0.0
C492 C 0.10214 0.1253 0.75816 0.0
C493 C 0.08062 0.18046 0.70357 0.0
C494 C 0.1002 0.15867 0.72054 0.0
C495 C 0.15449 0.09549 0.77136 0.0
C496 C 0.13587 0.11618 0.75314 0.0
H497 H 0.05726 0.18325 0.64397 0.0
H498 H 0.09617 0.15346 0.67082 0.0
H499 H 0.05848 0.15224 0.74651 0.0
H500 H 0.227 0.10278 0.80581 0.0
H501 H 0.20234 0.12708 0.76896 0.0
C502 C 0.12163 0.79132 0.17458 0.0
C503 C 0.08943 0.77945 0.18372 0.0
C504 C 0.14476 0.8111 0.18933 0.0
C505 C 0.17312 0.8757 0.21669 0.0
H506 H 0.17494 0.8676 0.28699 0.0
C507 C 0.20147 -0.00413 0.27833 0.0
C508 C 0.21811 0.99184 0.3007 0.0
C509 C 0.19275 0.96651 0.26376 0.0
C510 C 0.17533 0.87004 0.26736 0.0
H511 H 0.05721 0.77704 0.21595 0.0
H512 H 0.0968 0.81208 0.24128 0.0
H513 H 0.14896 0.81949 0.26268 0.0
H514 H 0.2396 0.95385 0.32501 0.0
H515 H 0.22485 0.90248 0.2993 0.0
H516 H 0.19965 0.92611 0.22133 0.0
C517 C 0.10468 0.80582 0.22293 0.0
C518 C 0.16 0.84258 0.25341 0.0
C519 C 0.08174 0.78588 0.20828 0.0
C520 C 0.2266 0.95781 0.30792 0.0
C521 C 0.21802 0.92836 0.29323 0.0
C522 C 0.18872 0.90296 0.23061 0.0
C523 C 0.13608 0.8196 0.21346 0.0
C524 C 0.15765 0.84559 0.22795 0.0
C525 C 0.20066 0.93232 0.27106 0.0
C526 C 0.18895 0.90104 0.25616 0.0
H527 H 0.12848 0.78652 0.15579 0.0
H528 H 0.16901 0.82065 0.18157 0.0
H529 H 0.17169 0.87918 0.19718 0.0
H530 H 0.19445 0.02168 0.27224 0.0
H531 H 0.1788 0.9706 0.24708 0.0
C532 C 0.93003 0.79725 0.66239 0.0
C533 C 0.96335 0.81311 0.66393 0.0
C534 C 0.90301 0.81108 0.67563 0.0
C535 C 0.87905 0.89226 0.70866 0.0
H536 H 0.82092 0.82806 0.74735 0.0
C537 C 0.82615 0.92658 0.80188 0.0
C538 C 0.79399 0.91235 0.8094 0.0
C539 C 0.83872 0.91908 0.77876 0.0
C540 C 0.83631 0.84637 0.73622 0.0
H541 H -0.00569 0.85595 0.68058 0.0
H542 H 0.94774 0.87953 0.70367 0.0
H543 H 0.85925 0.80431 0.71695 0.0
H544 H 0.74886 0.88067 0.79839 0.0
H545 H 0.77122 0.86687 0.75779 0.0
H546 H 0.85753 0.9342 0.72892 0.0
C547 C 0.94215 0.85685 0.69197 0.0
C548 C 0.85835 0.83274 0.71882 0.0
C549 C 0.96901 0.84305 0.67888 0.0
C550 C 0.77359 0.89228 0.79285 0.0
C551 C 0.78649 0.88414 0.76977 0.0
C552 C 0.85717 0.90584 0.72609 0.0
C553 C 0.9088 0.84115 0.69051 0.0
C554 C 0.88096 0.85551 0.70554 0.0
C555 C 0.81965 0.89662 0.76281 0.0
C556 C 0.83652 0.88299 0.7407 0.0
H557 H 0.92481 0.77421 0.65097 0.0
H558 H 0.87759 0.7984 0.67411 0.0
H559 H 0.89553 0.91056 0.69829 0.0
H560 H 0.84241 0.94195 0.8144 0.0
H561 H 0.86446 0.92882 0.77409 0.0
C562 C 0.74787 0.02547 0.31501 0.0
C563 C 0.7736 0.01179 0.32953 0.0
C564 C 0.75561 0.05351 0.29907 0.0
C565 C 0.82325 0.12354 0.28456 0.0
H566 H 0.78461 0.11668 0.21968 0.0
C567 C 0.87181 0.21925 0.20997 0.0
C568 C 0.87932 0.20298 0.18769 0.0
C569 C 0.85146 0.20122 0.22737 0.0
C570 C 0.79566 0.11902 0.23771 0.0
H571 H 0.82753 0.0172 0.33896 0.0
H572 H 0.84119 0.06523 0.31086 0.0
H573 H 0.76497 0.07455 0.25068 0.0
H574 H 0.86937 0.15594 0.16556 0.0
H575 H 0.83489 0.12429 0.19595 0.0
H576 H 0.85557 0.16642 0.27125 0.0
C577 C 0.81484 0.05497 0.31208 0.0
C578 C 0.78407 0.09509 0.25562 0.0
C579 C 0.80706 0.02715 0.3281 0.0
C580 C 0.86421 0.16925 0.18256 0.0
C581 C 0.84416 0.15113 0.20001 0.0
C582 C 0.83505 0.14724 0.26663 0.0
C583 C 0.78929 0.06837 0.29722 0.0
C584 C 0.79838 0.09647 0.2791 0.0
C585 C 0.83841 0.16641 0.22295 0.0
C586 C 0.82204 0.14473 0.24279 0.0
H587 H 0.72176 0.01436 0.31582 0.0
H588 H 0.73521 0.06346 0.28815 0.0
H589 H 0.83434 0.12588 0.30259 0.0
H590 H 0.88273 0.24539 0.21438 0.0
H591 H 0.8469 0.21414 0.24461 0.0
loop_
_geom_bond_atom_site_label_1
_geom_bond_atom_site_label_2
_geom_bond_distance
_geom_bond_site_symmetry_2
_ccdc_geom_bond_type
Mg0 O1 2.028 . S
Mg0 O7 1.986 . S
Mg0 O9 2.114 1_455 S
Mg0 O10 2.251 1_455 S
Mg0 O13 2.010 . S
O1 Mg0 2.028 . S
O1 C4 1.250 . S
O2 Mg3 2.028 . S
O2 C4 1.248 . S
Mg3 O2 2.028 . S
Mg3 O8 2.032 . S
Mg3 O10 2.079 1_455 S
C4 O1 1.250 . S
C4 O2 1.248 . S
C5 O6 1.264 . S
C5 O13 1.249 . S
O6 C5 1.264 . S
O7 Mg0 1.986 . S
O7 C11 1.246 . S
O8 Mg3 2.032 . S
O8 C11 1.259 . S
O9 Mg0 2.114 1_655 S
O9 C12 1.252 . S
O10 Mg0 2.251 1_655 S
O10 Mg3 2.079 1_655 S
O10 C12 1.273 . S
C11 O7 1.246 . S
C11 O8 1.259 . S
C12 O9 1.252 . S
C12 O10 1.273 . S
O13 Mg0 2.010 . S
O13 C5 1.249 . S
Mg14 O15 2.028 . S
Mg14 O21 1.986 . S
Mg14 O23 2.114 1_565 S
Mg14 O24 2.251 1_565 S
Mg14 O27 2.010 . S
O15 Mg14 2.028 . S
O15 C18 1.250 . S
O16 Mg17 2.028 1_565 S
O16 C18 1.248 . S
Mg17 O16 2.028 1_545 S
Mg17 O22 2.032 1_545 S
Mg17 O24 2.079 . S
C18 O15 1.250 . S
C18 O16 1.248 . S
C19 O20 1.264 . S
C19 O27 1.249 . S
O20 C19 1.264 . S
O21 Mg14 1.986 . S
O21 C25 1.246 . S
O22 Mg17 2.032 1_565 S
O22 C25 1.259 . S
O23 Mg14 2.114 1_545 S
O23 C26 1.252 . S
O24 Mg14 2.251 1_545 S
O24 Mg17 2.079 . S
O24 C26 1.273 . S
C25 O21 1.246 . S
C25 O22 1.259 . S
C26 O23 1.252 . S
C26 O24 1.273 . S
O27 Mg14 2.010 . S
O27 C19 1.249 . S
Mg28 O29 2.028 . S
Mg28 O35 1.986 . S
Mg28 O37 2.114 1_655 S
Mg28 O38 2.251 1_655 S
Mg28 O41 2.010 . S
O29 Mg28 2.028 . S
O29 C32 1.250 . S
O30 Mg31 2.028 . S
O30 C32 1.248 . S
Mg31 O30 2.028 . S
Mg31 O36 2.032 . S
Mg31 O38 2.079 1_655 S
C32 O29 1.250 . S
C32 O30 1.248 . S
C33 O34 1.264 . S
C33 O41 1.249 . S
O34 C33 1.264 . S
O35 Mg28 1.986 . S
O35 C39 1.246 . S
O36 Mg31 2.032 . S
O36 C39 1.259 . S
O37 Mg28 2.114 1_455 S
O37 C40 1.252 . S
O38 Mg28 2.251 1_455 S
O38 Mg31 2.079 1_455 S
O38 C40 1.273 . S
C39 O35 1.246 . S
C39 O36 1.259 . S
C40 O37 1.252 . S
C40 O38 1.273 . S
O41 Mg28 2.010 . S
O41 C33 1.249 . S
Mg42 O43 2.028 . S
Mg42 O49 1.986 . S
Mg42 O51 2.114 1_545 S
Mg42 O52 2.251 1_545 S
Mg42 O55 2.010 . S
O43 Mg42 2.028 . S
O43 C46 1.250 . S
O44 Mg45 2.028 1_545 S
O44 C46 1.248 . S
Mg45 O44 2.028 1_565 S
Mg45 O50 2.032 1_565 S
Mg45 O52 2.079 . S
C46 O43 1.250 . S
C46 O44 1.248 . S
C47 O48 1.264 . S
C47 O55 1.249 . S
O48 C47 1.264 . S
O49 Mg42 1.986 . S
O49 C53 1.246 . S
O50 Mg45 2.032 1_545 S
O50 C53 1.259 . S
O51 Mg42 2.114 1_565 S
O51 C54 1.252 . S
O52 Mg42 2.251 1_565 S
O52 Mg45 2.079 . S
O52 C54 1.273 . S
C53 O49 1.246 . S
C53 O50 1.259 . S
C54 O51 1.252 . S
C54 O52 1.273 . S
O55 Mg42 2.010 . S
O55 C47 1.249 . S
Mg56 O57 2.028 . S
Mg56 O63 1.986 . S
Mg56 O65 2.114 1_655 S
Mg56 O66 2.251 1_655 S
Mg56 O69 2.010 . S
O57 Mg56 2.028 . S
O57 C60 1.250 . S
O58 Mg59 2.028 . S
O58 C60 1.248 . S
Mg59 O58 2.028 . S
Mg59 O64 2.032 . S
Mg59 O66 2.079 1_655 S
C60 O57 1.250 . S
C60 O58 1.248 . S
C61 O62 1.264 . S
C61 O69 1.249 . S
O62 C61 1.264 . S
O63 Mg56 1.986 . S
O63 C67 1.246 . S
O64 Mg59 2.032 . S
O64 C67 1.259 . S
O65 Mg56 2.114 1_455 S
O65 C68 1.252 . S
O66 Mg56 2.251 1_455 S
O66 Mg59 2.079 1_455 S
O66 C68 1.273 . S
C67 O63 1.246 . S
C67 O64 1.259 . S
C68 O65 1.252 . S
C68 O66 1.273 . S
O69 Mg56 2.010 . S
O69 C61 1.249 . S
Mg70 O71 2.028 . S
Mg70 O77 1.986 . S
Mg70 O79 2.114 . S
Mg70 O80 2.251 . S
Mg70 O83 2.010 . S
O71 Mg70 2.028 . S
O71 C74 1.250 1_545 S
O72 Mg73 2.004 1_565 S
O72 C74 1.259 . S
Mg73 O72 2.004 1_545 S
Mg73 O78 2.032 . S
Mg73 O80 2.079 . S
C74 O71 1.250 1_565 S
C74 O72 1.259 . S
C75 O76 1.264 . S
C75 O83 1.249 . S
O76 C75 1.264 . S
O77 Mg70 1.986 . S
O77 C81 1.246 . S
O78 Mg73 2.032 . S
O78 C81 1.259 . S
O79 Mg70 2.114 . S
O79 C82 1.252 . S
O80 Mg70 2.251 . S
O80 Mg73 2.079 . S
O80 C82 1.273 . S
C81 O77 1.246 . S
C81 O78 1.259 . S
C82 O79 1.252 . S
C82 O80 1.273 . S
O83 Mg70 2.010 . S
O83 C75 1.249 . S
Mg84 O85 2.028 . S
Mg84 O91 1.986 . S
Mg84 O93 2.114 1_455 S
Mg84 O94 2.251 1_455 S
Mg84 O97 2.010 . S
O85 Mg84 2.028 . S
O85 C88 1.250 . S
O86 Mg87 2.028 . S
O86 C88 1.248 . S
Mg87 O86 2.028 . S
Mg87 O92 2.032 . S
Mg87 O94 2.079 1_455 S
C88 O85 1.250 . S
C88 O86 1.248 . S
C89 O90 1.264 . S
C89 O97 1.249 . S
O90 C89 1.264 . S
O91 Mg84 1.986 . S
O91 C95 1.246 . S
O92 Mg87 2.032 . S
O92 C95 1.259 . S
O93 Mg84 2.114 1_655 S
O93 C96 1.252 . S
O94 Mg84 2.251 1_655 S
O94 Mg87 2.079 1_655 S
O94 C96 1.273 . S
C95 O91 1.246 . S
C95 O92 1.259 . S
C96 O93 1.252 . S
C96 O94 1.273 . S
O97 Mg84 2.010 . S
O97 C89 1.249 . S
Mg98 O99 2.028 . S
Mg98 O105 1.986 . S
Mg98 O107 2.114 . S
Mg98 O108 2.251 . S
Mg98 O111 2.010 . S
O99 Mg98 2.028 . S
O99 C102 1.250 1_565 S
O100 Mg101 2.004 1_545 S
O100 C102 1.259 . S
Mg101 O100 2.004 1_565 S
Mg101 O106 2.032 . S
Mg101 O108 2.079 . S
C102 O99 1.250 1_545 S
C102 O100 1.259 . S
C103 O104 1.264 . S
C103 O111 1.249 . S
O104 C103 1.264 . S
O105 Mg98 1.986 . S
O105 C109 1.246 . S
O106 Mg101 2.032 . S
O106 C109 1.259 . S
O107 Mg98 2.114 . S
O107 C110 1.252 . S
O108 Mg98 2.251 . S
O108 Mg101 2.079 . S
O108 C110 1.273 . S
C109 O105 1.246 . S
C109 O106 1.259 . S
C110 O107 1.252 . S
C110 O108 1.273 . S
O111 Mg98 2.010 . S
O111 C103 1.249 . S
C112 C113 1.349 . S
C112 C114 1.327 . S
C112 H137 0.950 . S
C113 C112 1.349 . S
C113 C129 1.349 . S
C114 C112 1.327 . S
C114 C133 1.429 . S
C114 H138 0.950 . S
C115 C132 1.574 . S
C115 C134 1.368 1_455 S
C115 H139 0.949 . S
H116 C120 0.949 . S
C117 C118 1.349 . S
C117 C119 1.327 . S
C117 H140 0.950 . S
C118 C117 1.349 . S
C118 C130 1.349 . S
C119 C117 1.327 . S
C119 C135 1.429 . S
C119 H141 0.950 . S
C120 H116 0.949 . S
C120 C128 1.574 . S
C120 C136 1.368 1_655 S
H121 C129 0.950 . S
H122 C127 0.950 1_455 S
H123 C128 0.949 . S
H124 C130 0.950 . S
H125 C131 0.950 1_655 S
H126 C132 0.949 . S
C127 H122 0.950 1_655 S
C127 C129 1.327 . S
C127 C133 1.429 . S
C128 C120 1.574 . S
C128 H123 0.949 . S
C128 C134 1.368 . S
C129 C113 1.349 . S
C129 H121 0.950 . S
C129 C127 1.327 . S
C130 C118 1.349 . S
C130 H124 0.950 . S
C130 C131 1.327 . S
C131 H125 0.950 1_455 S
C131 C130 1.327 . S
C131 C135 1.429 . S
C132 C115 1.574 . S
C132 H126 0.949 . S
C132 C136 1.368 . S
C133 C114 1.429 . S
C133 C127 1.429 . S
C133 C134 1.523 . S
C134 C115 1.368 1_655 S
C134 C128 1.368 . S
C134 C133 1.523 . S
C135 C119 1.429 . S
C135 C131 1.429 . S
C135 C136 1.523 . S
C136 C120 1.368 1_455 S
C136 C132 1.368 . S
C136 C135 1.523 . S
H137 C112 0.950 . S
H138 C114 0.950 . S
H139 C115 0.949 . S
H140 C117 0.950 . S
H141 C119 0.950 . S
C142 C143 1.349 1_565 S
C142 C144 1.327 . S
C142 H167 0.950 . S
C143 C142 1.349 1_545 S
C143 C159 1.349 . S
C144 C142 1.327 . S
C144 C163 1.429 1_565 S
C144 H168 0.950 . S
C145 C162 1.574 . S
C145 C164 1.368 . S
C145 H169 0.949 . S
H146 C150 0.949 . S
C147 C148 1.349 1_545 S
C147 C149 1.327 . S
C147 H170 0.950 . S
C148 C147 1.349 1_565 S
C148 C160 1.349 . S
C149 C147 1.327 . S
C149 C165 1.429 1_545 S
C149 H171 0.950 . S
C150 H146 0.949 . S
C150 C158 1.574 . S
C150 C166 1.368 . S
H151 C159 0.950 . S
H152 C157 0.950 . S
H153 C158 0.949 . S
H154 C160 0.950 . S
H155 C161 0.950 . S
H156 C162 0.949 . S
C157 H152 0.950 . S
C157 C159 1.327 . S
C157 C163 1.429 . S
C158 C150 1.574 . S
C158 H153 0.949 . S
C158 C164 1.368 1_565 S
C159 C143 1.349 . S
C159 H151 0.950 . S
C159 C157 1.327 . S
C160 C148 1.349 . S
C160 H154 0.950 . S
C160 C161 1.327 . S
C161 H155 0.950 . S
C161 C160 1.327 . S
C161 C165 1.429 . S
C162 C145 1.574 . S
C162 H156 0.949 . S
C162 C166 1.368 1_545 S
C163 C144 1.429 1_545 S
C163 C157 1.429 . S
C163 C164 1.523 . S
C164 C145 1.368 . S
C164 C158 1.368 1_545 S
C164 C163 1.523 . S
C165 C149 1.429 1_565 S
C165 C161 1.429 . S
C165 C166 1.523 . S
C166 C150 1.368 . S
C166 C162 1.368 1_565 S
C166 C165 1.523 . S
H167 C142 0.950 . S
H168 C144 0.950 . S
H169 C145 0.949 . S
H170 C147 0.950 . S
H171 C149 0.950 . S
C172 C173 1.349 . S
C172 C174 1.327 . S
C172 H197 0.950 . S
C173 C172 1.349 . S
C173 C189 1.349 . S
C174 C172 1.327 . S
C174 C193 1.429 . S
C174 H198 0.950 1_655 S
C175 C192 1.574 . S
C175 C194 1.368 . S
C175 H199 0.949 . S
H176 C180 0.949 . S
C177 C178 1.349 . S
C177 C179 1.327 . S
C177 H200 0.950 . S
C178 C177 1.349 . S
C178 C190 1.349 . S
C179 C177 1.327 . S
C179 C195 1.429 . S
C179 H201 0.950 1_455 S
C180 H176 0.949 . S
C180 C188 1.574 . S
C180 C196 1.368 . S
H181 C189 0.950 . S
H182 C187 0.950 . S
H183 C188 0.949 . S
H184 C190 0.950 . S
H185 C191 0.950 . S
H186 C192 0.949 . S
C187 H182 0.950 . S
C187 C189 1.327 . S
C187 C193 1.429 . S
C188 C180 1.574 . S
C188 H183 0.949 . S
C188 C194 1.368 1_455 S
C189 C173 1.349 . S
C189 H181 0.950 . S
C189 C187 1.327 . S
C190 C178 1.349 . S
C190 H184 0.950 . S
C190 C191 1.327 . S
C191 H185 0.950 . S
C191 C190 1.327 . S
C191 C195 1.429 . S
C192 C175 1.574 . S
C192 H186 0.949 . S
C192 C196 1.368 1_655 S
C193 C174 1.429 . S
C193 C187 1.429 . S
C193 C194 1.523 . S
C194 C175 1.368 . S
C194 C188 1.368 1_655 S
C194 C193 1.523 . S
C195 C179 1.429 . S
C195 C191 1.429 . S
C195 C196 1.523 . S
C196 C180 1.368 . S
C196 C192 1.368 1_455 S
C196 C195 1.523 . S
H197 C172 0.950 . S
H198 C174 0.950 1_455 S
H199 C175 0.949 . S
H200 C177 0.950 . S
H201 C179 0.950 1_655 S
C202 C203 1.349 . S
C202 C204 1.328 . S
C202 H227 0.950 1_545 S
C203 C202 1.349 . S
C203 C219 1.349 . S
C204 C202 1.328 . S
C204 C223 1.430 . S
C204 H228 0.947 1_545 S
C205 C222 1.574 . S
C205 C224 1.368 . S
C205 H229 0.949 . S
H206 C210 0.949 . S
C207 C208 1.349 . S
C207 C209 1.328 . S
C207 H230 0.950 1_565 S
C208 C207 1.349 . S
C208 C220 1.349 . S
C209 C207 1.328 . S
C209 C225 1.430 . S
C209 H231 0.947 1_565 S
C210 H206 0.949 . S
C210 C218 1.574 . S
C210 C226 1.368 . S
H211 C219 0.950 . S
H212 C217 0.950 . S
H213 C218 0.949 . S
H214 C220 0.950 . S
H215 C221 0.950 . S
H216 C222 0.949 . S
C217 H212 0.950 . S
C217 C219 1.327 . S
C217 C223 1.429 . S
C218 C210 1.574 . S
C218 H213 0.949 . S
C218 C224 1.368 1_565 S
C219 C203 1.349 . S
C219 H211 0.950 . S
C219 C217 1.327 . S
C220 C208 1.349 . S
C220 H214 0.950 . S
C220 C221 1.327 . S
C221 H215 0.950 . S
C221 C220 1.327 . S
C221 C225 1.429 . S
C222 C205 1.574 . S
C222 H216 0.949 . S
C222 C226 1.368 1_545 S
C223 C204 1.430 . S
C223 C217 1.429 . S
C223 C224 1.523 . S
C224 C205 1.368 . S
C224 C218 1.368 1_545 S
C224 C223 1.523 . S
C225 C209 1.430 . S
C225 C221 1.429 . S
C225 C226 1.523 . S
C226 C210 1.368 . S
C226 C222 1.368 1_565 S
C226 C225 1.523 . S
H227 C202 0.950 1_565 S
H228 C204 0.947 1_565 S
H229 C205 0.949 . S
H230 C207 0.950 1_545 S
H231 C209 0.947 1_545 S
C232 C233 1.349 . S
C232 C234 1.327 . S
C232 H257 0.950 . S
C233 C232 1.349 . S
C233 C249 1.349 . S
C234 C232 1.327 . S
C234 C253 1.429 . S
C234 H258 0.950 . S
C235 C252 1.574 . S
C235 C254 1.368 . S
C235 H259 0.949 . S
H236 C240 0.949 . S
C237 C238 1.349 . S
C237 C239 1.327 . S
C237 H260 0.950 . S
C238 C237 1.349 . S
C238 C250 1.349 . S
C239 C237 1.327 . S
C239 C255 1.429 . S
C239 H261 0.950 . S
C240 H236 0.949 . S
C240 C248 1.574 . S
C240 C256 1.368 . S
H241 C249 0.950 . S
H242 C247 0.950 . S
H243 C248 0.949 . S
H244 C250 0.950 . S
H245 C251 0.950 . S
H246 C252 0.949 . S
C247 H242 0.950 . S
C247 C249 1.327 . S
C247 C253 1.429 . S
C248 C240 1.574 . S
C248 H243 0.949 . S
C248 C254 1.368 . S
C249 C233 1.349 . S
C249 H241 0.950 . S
C249 C247 1.327 . S
C250 C238 1.349 . S
C250 H244 0.950 . S
C250 C251 1.327 . S
C251 H245 0.950 . S
C251 C250 1.327 . S
C251 C255 1.429 . S
C252 C235 1.574 . S
C252 H246 0.949 . S
C252 C256 1.368 . S
C253 C234 1.429 . S
C253 C247 1.429 . S
C253 C254 1.523 . S
C254 C235 1.368 . S
C254 C248 1.368 . S
C254 C253 1.523 . S
C255 C239 1.429 . S
C255 C251 1.429 . S
C255 C256 1.523 . S
C256 C240 1.368 . S
C256 C252 1.368 . S
C256 C255 1.523 . S
H257 C232 0.950 . S
H258 C234 0.950 . S
H259 C235 0.949 . S
H260 C237 0.950 . S
H261 C239 0.950 . S
C262 C263 1.349 . S
C262 C264 1.327 . S
C262 H287 0.950 . S
C263 C262 1.349 . S
C263 C279 1.349 . S
C264 C262 1.327 . S
C264 C283 1.429 . S
C264 H288 0.950 . S
C265 C282 1.574 . S
C265 C284 1.368 . S
C265 H289 0.949 . S
H266 C270 0.949 . S
C267 C268 1.349 . S
C267 C269 1.327 . S
C267 H290 0.950 . S
C268 C267 1.349 . S
C268 C280 1.349 . S
C269 C267 1.327 . S
C269 C285 1.429 . S
C269 H291 0.950 . S
C270 H266 0.949 . S
C270 C278 1.574 . S
C270 C286 1.368 . S
H271 C279 0.950 . S
H272 C277 0.950 . S
H273 C278 0.949 . S
H274 C280 0.950 . S
H275 C281 0.950 . S
H276 C282 0.949 . S
C277 H272 0.950 . S
C277 C279 1.327 . S
C277 C283 1.429 . S
C278 C270 1.574 . S
C278 H273 0.949 . S
C278 C284 1.368 . S
C279 C263 1.349 . S
C279 H271 0.950 . S
C279 C277 1.327 . S
C280 C268 1.349 . S
C280 H274 0.950 . S
C280 C281 1.327 . S
C281 H275 0.950 . S
C281 C280 1.327 . S
C281 C285 1.429 . S
C282 C265 1.574 . S
C282 H276 0.949 . S
C282 C286 1.368 . S
C283 C264 1.429 . S
C283 C277 1.429 . S
C283 C284 1.523 . S
C284 C265 1.368 . S
C284 C278 1.368 . S
C284 C283 1.523 . S
C285 C269 1.429 . S
C285 C281 1.429 . S
C285 C286 1.523 . S
C286 C270 1.368 . S
C286 C282 1.368 . S
C286 C285 1.523 . S
H287 C262 0.950 . S
H288 C264 0.950 . S
H289 C265 0.949 . S
H290 C267 0.950 . S
H291 C269 0.950 . S
C292 C293 1.349 . S
C292 C294 1.327 . S
C292 H317 0.950 . S
C293 C292 1.349 . S
C293 C309 1.349 . S
C294 C292 1.327 . S
C294 C313 1.429 . S
C294 H318 0.950 . S
C295 C312 1.574 . S
C295 C314 1.368 . S
C295 H319 0.949 . S
H296 C300 0.949 . S
C297 C298 1.349 . S
C297 C299 1.327 . S
C297 H320 0.950 . S
C298 C297 1.349 . S
C298 C310 1.349 . S
C299 C297 1.327 . S
C299 C315 1.429 . S
C299 H321 0.950 . S
C300 H296 0.949 . S
C300 C308 1.574 . S
C300 C316 1.368 . S
H301 C309 0.950 . S
H302 C307 0.950 . S
H303 C308 0.949 . S
H304 C310 0.950 . S
H305 C311 0.950 . S
H306 C312 0.949 . S
C307 H302 0.950 . S
C307 C309 1.327 . S
C307 C313 1.429 . S
C308 C300 1.574 . S
C308 H303 0.949 . S
C308 C314 1.368 . S
C309 C293 1.349 . S
C309 H301 0.950 . S
C309 C307 1.327 . S
C310 C298 1.349 . S
C310 H304 0.950 . S
C310 C311 1.327 . S
C311 H305 0.950 . S
C311 C310 1.327 . S
C311 C315 1.429 . S
C312 C295 1.574 . S
C312 H306 0.949 . S
C312 C316 1.368 . S
C313 C294 1.429 . S
C313 C307 1.429 . S
C313 C314 1.523 . S
C314 C295 1.368 . S
C314 C308 1.368 . S
C314 C313 1.523 . S
C315 C299 1.429 . S
C315 C311 1.429 . S
C315 C316 1.523 . S
C316 C300 1.368 . S
C316 C312 1.368 . S
C316 C315 1.523 . S
H317 C292 0.950 . S
H318 C294 0.950 . S
H319 C295 0.949 . S
H320 C297 0.950 . S
H321 C299 0.950 . S
C322 C323 1.349 . S
C322 C324 1.327 . S
C322 H347 0.950 . S
C323 C322 1.349 . S
C323 C339 1.349 . S
C324 C322 1.327 . S
C324 C343 1.429 . S
C324 H348 0.950 . S
C325 C342 1.574 . S
C325 C344 1.368 . S
C325 H349 0.949 . S
H326 C330 0.949 . S
C327 C328 1.349 . S
C327 C329 1.327 . S
C327 H350 0.950 . S
C328 C327 1.349 . S
C328 C340 1.349 . S
C329 C327 1.327 . S
C329 C345 1.429 . S
C329 H351 0.950 . S
C330 H326 0.949 . S
C330 C338 1.574 . S
C330 C346 1.368 . S
H331 C339 0.950 . S
H332 C337 0.950 . S
H333 C338 0.949 . S
H334 C340 0.950 . S
H335 C341 0.950 . S
H336 C342 0.949 . S
C337 H332 0.950 . S
C337 C339 1.327 . S
C337 C343 1.429 . S
C338 C330 1.574 . S
C338 H333 0.949 . S
C338 C344 1.368 . S
C339 C323 1.349 . S
C339 H331 0.950 . S
C339 C337 1.327 . S
C340 C328 1.349 . S
C340 H334 0.950 . S
C340 C341 1.327 . S
C341 H335 0.950 . S
C341 C340 1.327 . S
C341 C345 1.429 . S
C342 C325 1.574 . S
C342 H336 0.949 . S
C342 C346 1.368 . S
C343 C324 1.429 . S
C343 C337 1.429 . S
C343 C344 1.523 . S
C344 C325 1.368 . S
C344 C338 1.368 . S
C344 C343 1.523 . S
C345 C329 1.429 . S
C345 C341 1.429 . S
C345 C346 1.523 . S
C346 C330 1.368 . S
C346 C342 1.368 . S
C346 C345 1.523 . S
H347 C322 0.950 . S
H348 C324 0.950 . S
H349 C325 0.949 . S
H350 C327 0.950 . S
H351 C329 0.950 . S
C352 C353 1.349 . S
C352 C354 1.327 . S
C352 H377 0.950 . S
C353 C352 1.349 . S
C353 C369 1.349 . S
C354 C352 1.327 . S
C354 C373 1.429 . S
C354 H378 0.950 . S
C355 C372 1.574 1_556 S
C355 C374 1.368 . S
C355 H379 0.949 1_556 S
H356 C360 0.949 . S
C357 C358 1.349 . S
C357 C359 1.327 . S
C357 H380 0.950 . S
C358 C357 1.349 . S
C358 C370 1.349 . S
C359 C357 1.327 . S
C359 C375 1.429 . S
C359 H381 0.950 . S
C360 H356 0.949 . S
C360 C368 1.574 . S
C360 C376 1.368 1_556 S
H361 C369 0.951 . S
H362 C367 0.950 . S
H363 C368 0.949 . S
H364 C370 0.950 . S
H365 C371 0.950 . S
H366 C372 0.949 . S
C367 H362 0.950 . S
C367 C369 1.327 . S
C367 C373 1.429 . S
C368 C360 1.574 . S
C368 H363 0.949 . S
C368 C374 1.368 . S
C369 C353 1.349 . S
C369 H361 0.951 . S
C369 C367 1.327 . S
C370 C358 1.349 . S
C370 H364 0.950 . S
C370 C371 1.327 . S
C371 H365 0.950 . S
C371 C370 1.327 . S
C371 C375 1.429 . S
C372 C355 1.574 1_554 S
C372 H366 0.949 . S
C372 C376 1.368 . S
C373 C354 1.429 . S
C373 C367 1.429 . S
C373 C374 1.523 . S
C374 C355 1.368 . S
C374 C368 1.368 . S
C374 C373 1.523 . S
C375 C359 1.429 . S
C375 C371 1.429 . S
C375 C376 1.523 . S
C376 C360 1.368 1_554 S
C376 C372 1.368 . S
C376 C375 1.523 . S
H377 C352 0.950 . S
H378 C354 0.950 . S
H379 C355 0.949 1_554 S
H380 C357 0.950 . S
H381 C359 0.950 . S
C382 C383 1.349 . S
C382 C384 1.327 . S
C382 H407 0.950 . S
C383 C382 1.349 . S
C383 C399 1.349 . S
C384 C382 1.327 . S
C384 C403 1.429 . S
C384 H408 0.994 . S
C385 C402 1.574 . S
C385 C404 1.368 . S
C385 H409 0.949 . S
H386 C390 0.949 . S
C387 C388 1.349 . S
C387 C389 1.327 . S
C387 H410 0.950 . S
C388 C387 1.349 . S
C388 C400 1.349 . S
C389 C387 1.327 . S
C389 C405 1.429 . S
C389 H411 0.950 . S
C390 H386 0.949 . S
C390 C398 1.574 . S
C390 C406 1.368 . S
H391 C399 0.950 . S
H392 C397 0.950 . S
H393 C398 0.949 . S
H394 C400 0.950 . S
H395 C401 0.950 . S
H396 C402 0.949 . S
C397 H392 0.950 . S
C397 C399 1.327 . S
C397 C403 1.429 . S
C398 C390 1.574 . S
C398 H393 0.949 . S
C398 C404 1.368 1_554 S
C399 C383 1.349 . S
C399 H391 0.950 . S
C399 C397 1.327 . S
C400 C388 1.349 . S
C400 H394 0.950 . S
C400 C401 1.327 . S
C401 H395 0.950 . S
C401 C400 1.327 . S
C401 C405 1.429 . S
C402 C385 1.574 . S
C402 H396 0.949 . S
C402 C406 1.368 1_556 S
C403 C384 1.429 . S
C403 C397 1.429 . S
C403 C404 1.523 . S
C404 C385 1.368 . S
C404 C398 1.368 1_556 S
C404 C403 1.523 . S
C405 C389 1.429 . S
C405 C401 1.429 . S
C405 C406 1.523 . S
C406 C390 1.368 . S
C406 C402 1.368 1_554 S
C406 C405 1.523 . S
H407 C382 0.950 . S
H408 C384 0.994 . S
H409 C385 0.949 . S
H410 C387 0.950 . S
H411 C389 0.950 . S
C412 C413 1.349 . S
C412 C414 1.327 . S
C412 H437 0.950 . S
C413 C412 1.349 . S
C413 C429 1.349 . S
C414 C412 1.327 . S
C414 C433 1.429 . S
C414 H438 0.950 . S
C415 C432 1.574 . S
C415 C434 1.368 1_556 S
C415 H439 0.949 1_556 S
H416 C420 0.949 . S
C417 C418 1.349 . S
C417 C419 1.327 . S
C417 H440 0.950 . S
C418 C417 1.349 . S
C418 C430 1.349 . S
C419 C417 1.327 . S
C419 C435 1.429 . S
C419 H441 0.950 . S
C420 H416 0.949 . S
C420 C428 1.574 1_556 S
C420 C436 1.368 . S
H421 C429 0.950 . S
H422 C427 0.950 . S
H423 C428 0.949 . S
H424 C430 0.950 . S
H425 C431 0.950 . S
H426 C432 0.949 . S
C427 H422 0.950 . S
C427 C429 1.327 . S
C427 C433 1.429 . S
C428 C420 1.574 1_554 S
C428 H423 0.949 . S
C428 C434 1.368 . S
C429 C413 1.349 . S
C429 H421 0.950 . S
C429 C427 1.327 . S
C430 C418 1.349 . S
C430 H424 0.950 . S
C430 C431 1.327 . S
C431 H425 0.950 . S
C431 C430 1.327 . S
C431 C435 1.429 . S
C432 C415 1.574 . S
C432 H426 0.949 . S
C432 C436 1.368 . S
C433 C414 1.429 . S
C433 C427 1.429 . S
C433 C434 1.523 . S
C434 C415 1.368 1_554 S
C434 C428 1.368 . S
C434 C433 1.523 . S
C435 C419 1.429 . S
C435 C431 1.429 . S
C435 C436 1.523 . S
C436 C420 1.368 . S
C436 C432 1.368 . S
C436 C435 1.523 . S
H437 C412 0.950 . S
H438 C414 0.950 . S
H439 C415 0.949 1_554 S
H440 C417 0.950 . S
H441 C419 0.950 . S
C442 C443 1.349 . S
C442 C444 1.327 . S
C442 H467 0.950 . S
C443 C442 1.349 . S
C443 C459 1.349 . S
C444 C442 1.327 . S
C444 C463 1.429 . S
C444 H468 0.950 . S
C445 C462 1.574 . S
C445 C464 1.368 1_554 S
C445 H469 0.949 . S
H446 C450 0.949 . S
C447 C448 1.349 . S
C447 C449 1.327 . S
C447 H470 0.950 . S
C448 C447 1.349 . S
C448 C460 1.349 . S
C449 C447 1.327 . S
C449 C465 1.429 . S
C449 H471 0.950 . S
C450 H446 0.949 . S
C450 C458 1.574 . S
C450 C466 1.368 1_556 S
H451 C459 0.950 . S
H452 C457 0.950 . S
H453 C458 0.949 . S
H454 C460 0.950 . S
H455 C461 0.950 . S
H456 C462 0.949 . S
C457 H452 0.950 . S
C457 C459 1.327 . S
C457 C463 1.429 . S
C458 C450 1.574 . S
C458 H453 0.949 . S
C458 C464 1.368 . S
C459 C443 1.349 . S
C459 H451 0.950 . S
C459 C457 1.327 . S
C460 C448 1.349 . S
C460 H454 0.950 . S
C460 C461 1.327 . S
C461 H455 0.950 . S
C461 C460 1.327 . S
C461 C465 1.429 . S
C462 C445 1.574 . S
C462 H456 0.949 . S
C462 C466 1.368 . S
C463 C444 1.429 . S
C463 C457 1.429 . S
C463 C464 1.523 . S
C464 C445 1.368 1_556 S
C464 C458 1.368 . S
C464 C463 1.523 . S
C465 C449 1.429 . S
C465 C461 1.429 . S
C465 C466 1.523 . S
C466 C450 1.368 1_554 S
C466 C462 1.368 . S
C466 C465 1.523 . S
H467 C442 0.950 . S
H468 C444 0.950 . S
H469 C445 0.949 . S
H470 C447 0.950 . S
H471 C449 0.950 . S
C472 C473 1.349 . S
C472 C474 1.327 . S
C472 H497 0.950 . S
C473 C472 1.349 . S
C473 C489 1.349 . S
C474 C472 1.327 . S
C474 C493 1.429 . S
C474 H498 0.950 . S
C475 C492 1.574 . S
C475 C494 1.368 . S
C475 H499 0.949 . S
H476 C480 0.949 . S
C477 C478 1.349 . S
C477 C479 1.327 . S
C477 H500 0.950 . S
C478 C477 1.349 . S
C478 C490 1.349 . S
C479 C477 1.327 . S
C479 C495 1.429 . S
C479 H501 0.950 . S
C480 H476 0.949 . S
C480 C488 1.574 . S
C480 C496 1.368 . S
H481 C489 0.950 . S
H482 C487 0.950 . S
H483 C488 0.949 . S
H484 C490 0.950 . S
H485 C491 0.950 . S
H486 C492 0.949 . S
C487 H482 0.950 . S
C487 C489 1.327 . S
C487 C493 1.429 . S
C488 C480 1.574 . S
C488 H483 0.949 . S
C488 C494 1.368 . S
C489 C473 1.349 . S
C489 H481 0.950 . S
C489 C487 1.327 . S
C490 C478 1.349 . S
C490 H484 0.950 . S
C490 C491 1.327 . S
C491 H485 0.950 . S
C491 C490 1.327 . S
C491 C495 1.429 . S
C492 C475 1.574 . S
C492 H486 0.949 . S
C492 C496 1.368 . S
C493 C474 1.429 . S
C493 C487 1.429 . S
C493 C494 1.523 . S
C494 C475 1.368 . S
C494 C488 1.368 . S
C494 C493 1.523 . S
C495 C479 1.429 . S
C495 C491 1.429 . S
C495 C496 1.523 . S
C496 C480 1.368 . S
C496 C492 1.368 . S
C496 C495 1.523 . S
H497 C472 0.950 . S
H498 C474 0.950 . S
H499 C475 0.949 . S
H500 C477 0.950 . S
H501 C479 0.950 . S
C502 C503 1.349 . S
C502 C504 1.327 . S
C502 H527 0.950 . S
C503 C502 1.349 . S
C503 C519 1.349 . S
C504 C502 1.327 . S
C504 C523 1.429 . S
C504 H528 0.950 . S
C505 C522 1.574 . S
C505 C524 1.368 . S
C505 H529 0.949 . S
H506 C510 0.949 . S
C507 C508 1.349 . S
C507 C509 1.327 . S
C507 H530 0.950 . S
C508 C507 1.349 . S
C508 C520 1.349 . S
C509 C507 1.327 . S
C509 C525 1.429 . S
C509 H531 0.950 . S
C510 H506 0.949 . S
C510 C518 1.574 . S
C510 C526 1.368 . S
H511 C519 0.950 . S
H512 C517 0.950 . S
H513 C518 0.949 . S
H514 C520 0.950 . S
H515 C521 0.950 . S
H516 C522 0.949 . S
C517 H512 0.950 . S
C517 C519 1.327 . S
C517 C523 1.429 . S
C518 C510 1.574 . S
C518 H513 0.949 . S
C518 C524 1.368 . S
C519 C503 1.349 . S
C519 H511 0.950 . S
C519 C517 1.327 . S
C520 C508 1.349 . S
C520 H514 0.950 . S
C520 C521 1.327 . S
C521 H515 0.950 . S
C521 C520 1.327 . S
C521 C525 1.429 . S
C522 C505 1.574 . S
C522 H516 0.949 . S
C522 C526 1.368 . S
C523 C504 1.429 . S
C523 C517 1.429 . S
C523 C524 1.523 . S
C524 C505 1.368 . S
C524 C518 1.368 . S
C524 C523 1.523 . S
C525 C509 1.429 . S
C525 C521 1.429 . S
C525 C526 1.523 . S
C526 C510 1.368 . S
C526 C522 1.368 . S
C526 C525 1.523 . S
H527 C502 0.950 . S
H528 C504 0.950 . S
H529 C505 0.949 . S
H530 C507 0.950 . S
H531 C509 0.950 . S
C532 C533 1.349 . S
C532 C534 1.327 . S
C532 H557 0.950 . S
C533 C532 1.349 . S
C533 C549 1.349 . S
C534 C532 1.327 . S
C534 C553 1.429 . S
C534 H558 0.950 . S
C535 C552 1.574 . S
C535 C554 1.368 . S
C535 H559 0.949 . S
H536 C540 0.949 . S
C537 C538 1.349 . S
C537 C539 1.327 . S
C537 H560 0.950 . S
C538 C537 1.349 . S
C538 C550 1.349 . S
C539 C537 1.327 . S
C539 C555 1.429 . S
C539 H561 0.950 . S
C540 H536 0.949 . S
C540 C548 1.574 . S
C540 C556 1.368 . S
H541 C549 0.950 . S
H542 C547 0.950 . S
H543 C548 0.949 . S
H544 C550 0.950 . S
H545 C551 0.950 . S
H546 C552 0.949 . S
C547 H542 0.950 . S
C547 C549 1.327 . S
C547 C553 1.429 . S
C548 C540 1.574 . S
C548 H543 0.949 . S
C548 C554 1.368 . S
C549 C533 1.349 . S
C549 H541 0.950 . S
C549 C547 1.327 . S
C550 C538 1.349 . S
C550 H544 0.950 . S
C550 C551 1.327 . S
C551 H545 0.950 . S
C551 C550 1.327 . S
C551 C555 1.429 . S
C552 C535 1.574 . S
C552 H546 0.949 . S
C552 C556 1.368 . S
C553 C534 1.429 . S
C553 C547 1.429 . S
C553 C554 1.523 . S
C554 C535 1.368 . S
C554 C548 1.368 . S
C554 C553 1.523 . S
C555 C539 1.429 . S
C555 C551 1.429 . S
C555 C556 1.523 . S
C556 C540 1.368 . S
C556 C552 1.368 . S
C556 C555 1.523 . S
H557 C532 0.950 . S
H558 C534 0.950 . S
H559 C535 0.949 . S
H560 C537 0.950 . S
H561 C539 0.950 . S
C562 C563 1.349 . S
C562 C564 1.327 . S
C562 H587 0.950 . S
C563 C562 1.349 . S
C563 C579 1.349 . S
C564 C562 1.327 . S
C564 C583 1.429 . S
C564 H588 0.950 . S
C565 C582 1.574 . S
C565 C584 1.368 . S
C565 H589 0.949 . S
H566 C570 0.949 . S
C567 C568 1.349 . S
C567 C569 1.327 . S
C567 H590 0.950 . S
C568 C567 1.349 . S
C568 C580 1.349 . S
C569 C567 1.327 . S
C569 C585 1.429 . S
C569 H591 0.950 . S
C570 H566 0.949 . S
C570 C578 1.574 . S
C570 C586 1.368 . S
H571 C579 0.950 . S
H572 C577 0.950 . S
H573 C578 0.949 . S
H574 C580 0.950 . S
H575 C581 0.950 . S
H576 C582 0.949 . S
C577 H572 0.950 . S
C577 C579 1.327 . S
C577 C583 1.429 . S
C578 C570 1.574 . S
C578 H573 0.949 . S
C578 C584 1.368 . S
C579 C563 1.349 . S
C579 H571 0.950 . S
C579 C577 1.327 . S
C580 C568 1.349 . S
C580 H574 0.950 . S
C580 C581 1.327 . S
C581 H575 0.950 . S
C581 C580 1.327 . S
C581 C585 1.429 . S
C582 C565 1.574 . S
C582 H576 0.949 . S
C582 C586 1.368 . S
C583 C564 1.429 . S
C583 C577 1.429 . S
C583 C584 1.523 . S
C584 C565 1.368 . S
C584 C578 1.368 . S
C584 C583 1.523 . S
C585 C569 1.429 . S
C585 C581 1.429 . S
C585 C586 1.523 . S
C586 C570 1.368 . S
C586 C582 1.368 . S
C586 C585 1.523 . S
H587 C562 0.950 . S
H588 C564 0.950 . S
H589 C565 0.949 . S
H590 C567 0.950 . S
H591 C569 0.950 . S
C113 C39 1.147 . S
C118 C11 1.147 . S
C143 C53 1.133 . S
C148 C25 1.133 . S
C173 C67 1.149 . S
C178 C95 1.149 . S
C203 C75 0.982 . S
C208 C103 0.982 . S
C233 C26 0.582 . S
C238 C4 0.603 . S
C263 C18 0.696 . S
C268 C40 0.687 . S
C293 C54 0.582 . S
C298 C32 0.603 . S
C323 C46 0.696 . S
C328 C12 0.687 . S
C353 C102 0.726 . S
C358 C60 0.724 . S
C383 C82 0.522 . S
C388 C68 0.518 . S
C413 C88 0.724 . S
C418 C74 0.726 . S
C443 C110 0.522 . S
C448 C96 0.518 . S
C473 C5 1.605 . S
C478 C81 1.701 . S
C503 C89 1.566 . S
C508 C19 1.576 . S
C533 C33 1.605 . S
C538 C109 1.701 . S
C563 C47 1.576 . S
C568 C61 1.566 . S
