# Generated by pormake.
# Topology qtz, (4)-cn, num edge types: 1
# Building blocks:
#     Node 0, Type 0, BuildingBlock: ICAMEG_clean_sbu_1, # of connection points: 4
#     Node 1, Type 0, BuildingBlock: ICAMEG_clean_sbu_1, # of connection points: 4
#     Node 2, Type 0, BuildingBlock: ICAMEG_clean_sbu_1, # of connection points: 4
#     Edge 3, Type (0, 0), BuildingBlock: MIFKUJ_clean_linker_0, # of connection points: 2
#     Edge 4, Type (0, 0), BuildingBlock: MIFKUJ_clean_linker_0, # of connection points: 2
#     Edge 5, Type (0, 0), BuildingBlock: MIFKUJ_clean_linker_0, # of connection points: 2
#     Edge 6, Type (0, 0), BuildingBlock: MIFKUJ_clean_linker_0, # of connection points: 2
#     Edge 7, Type (0, 0), BuildingBlock: MIFKUJ_clean_linker_0, # of connection points: 2
#     Edge 8, Type (0, 0), BuildingBlock: MIFKUJ_clean_linker_0, # of connection points: 2
# Relax obj value: 0.014
# Max RMSD: 0.082
# Mean RMSD: 0.076
data_MOF--net-qtz--node1-ICAMEG_clean_sbu_1--edge1-MIFKUJ_clean_linker_0
_symmetry_space_group_name_H-M    P1
_symmetry_Int_Tables_number       1
_symmetry_cell_setting            triclinic
loop_
_symmetry_equiv_pos_as_xyz
'x, y, z'
_cell_length_a     30.975079
_cell_length_b     31.11419
_cell_length_c     39.436875
_cell_angle_alpha  93.34632
_cell_angle_beta   93.398568
_cell_angle_gamma 120.36955
loop_
_atom_site_label
_atom_site_type_symbol
_atom_site_fract_x
_atom_site_fract_y
_atom_site_fract_z
_atom_type_partial_charge
Co0 Co 0.05425 0.4754 0.19104 0.0
Co1 Co 0.04673 0.57324 0.16078 0.0
O2 O 0.0158 0.50601 0.17556 0.0
C3 C 0.98686 0.46234 0.2452 0.0
O4 O 0.99778 0.50866 0.24323 0.0
C5 C 0.98883 0.55361 0.09343 0.0
O6 O 0.0322 0.57543 0.08048 0.0
O7 O 0.08346 0.5561 0.1279 0.0
O8 O 0.10167 0.50507 0.15532 0.0
H9 H 0.18931 0.73343 0.12765 0.0
H10 H 0.94393 0.41302 0.17316 0.0
O11 O 1.00718 0.44391 0.22679 0.0
H12 H 0.01695 0.34033 0.09751 0.0
H13 H 0.07411 0.33643 0.23398 0.0
H14 H 0.16278 0.50994 0.20327 0.0
H15 H 0.07163 0.41322 0.13931 0.0
H16 H 0.02645 0.37528 0.21327 0.0
O17 O 0.98759 0.5482 0.12524 0.0
H18 H 0.14973 0.64904 0.14713 0.0
H19 H 1.00804 0.64017 0.14158 0.0
H20 H 0.21191 0.47241 0.22361 0.0
H21 H 0.88778 0.33978 0.13195 0.0
H22 H 0.16753 0.38503 0.23913 0.0
H23 H 0.92426 0.30299 0.09372 0.0
O24 O 0.09895 0.53527 0.22408 0.0
H25 H 0.8947 0.54291 0.21847 0.0
H26 H 0.07651 0.65767 0.21464 0.0
H27 H 0.03201 0.67776 0.25679 0.0
H28 H 0.9404 0.62025 0.25883 0.0
H29 H 0.94079 0.52384 0.17706 0.0
H30 H 0.04608 0.72449 0.12199 0.0
H31 H 0.13736 0.77172 0.11494 0.0
O32 O 0.10565 0.59895 0.19621 0.0
C33 C 0.1066 0.53211 0.13101 0.0
C34 C 0.14951 0.71327 0.13068 0.0
C35 C 0.06912 0.70825 0.1275 0.0
N36 N 0.07668 0.63978 0.14561 0.0
C37 C 0.1269 0.66548 0.14173 0.0
C38 C 0.0478 0.66054 0.1386 0.0
C39 C 0.12034 0.73472 0.12354 0.0
C40 C 0.96007 0.39705 0.15675 0.0
N41 N 1.01101 0.4173 0.15873 0.0
C42 C 0.92809 0.35566 0.1334 0.0
C43 C 0.94859 0.33506 0.11193 0.0
C44 C 1.00059 0.35601 0.11403 0.0
C45 C 0.0314 0.3974 0.13768 0.0
C46 C 0.09388 0.3745 0.22724 0.0
C47 C 0.1432 0.4718 0.20979 0.0
C48 C 0.0671 0.39674 0.21558 0.0
N49 N 0.09183 0.44471 0.20685 0.0
C50 C 0.17122 0.45079 0.22137 0.0
C51 C 0.14629 0.40178 0.23011 0.0
C52 C 0.11968 0.58191 0.22051 0.0
C53 C 0.93458 0.56837 0.21774 0.0
C54 C 0.03672 0.63227 0.21548 0.0
C55 C 1.01167 0.64396 0.23933 0.0
C56 C 0.96026 0.61171 0.24043 0.0
N57 N 1.01126 0.5897 0.19328 0.0
C58 C 0.96083 0.55792 0.1942 0.0
Co59 Co 0.60133 0.04156 0.49826 0.0
Co60 Co 0.4947 0.04137 0.5211 0.0
O61 O 0.56519 0.07576 0.51113 0.0
C62 C 0.61531 0.10748 0.44266 0.0
O63 O 0.56851 0.09652 0.44324 0.0
C64 C 0.55102 0.11586 0.58171 0.0
O65 O 0.58837 0.10765 0.57932 0.0
O66 O 0.5057 0.9984 0.55202 0.0
O67 O 0.57154 0.9948 0.53401 0.0
H68 H 0.32633 0.89087 0.53356 0.0
H69 H 0.65664 0.15177 0.51503 0.0
O70 O 0.63323 0.08819 0.46251 0.0
H71 H 0.73388 0.08961 0.59663 0.0
H72 H 0.75105 0.03323 0.46346 0.0
H73 H 0.57437 0.93544 0.48838 0.0
H74 H 0.66512 0.03111 0.55305 0.0
H75 H 0.70551 0.07577 0.48038 0.0
O76 O 0.51138 0.09216 0.56088 0.0
H77 H 0.41506 0.93505 0.52155 0.0
H78 H 0.42464 0.0754 0.54173 0.0
H79 H 0.61865 0.8914 0.47185 0.0
H80 H 0.7258 0.21173 0.55784 0.0
H81 H 0.70763 0.94039 0.45924 0.0
H82 H 0.76474 0.18069 0.59916 0.0
O83 O 0.54465 0.99355 0.46357 0.0
H84 H 0.53601 0.20423 0.47599 0.0
H85 H 0.41755 0.02186 0.46376 0.0
H86 H 0.40432 0.07436 0.42489 0.0
H87 H 0.46375 0.16629 0.43095 0.0
H88 H 0.54822 0.1502 0.51393 0.0
H89 H 0.33614 0.03274 0.55433 0.0
H90 H 0.2863 0.93982 0.55013 0.0
O91 O 0.47573 0.99009 0.48177 0.0
C92 C 0.53618 0.98214 0.55325 0.0
C93 C 0.34762 0.93138 0.53544 0.0
C94 C 0.35316 0.01101 0.54713 0.0
N95 N 0.42497 1.00774 0.53079 0.0
C96 C 0.39786 0.95661 0.52859 0.0
C97 C 0.40331 0.03496 0.54007 0.0
C98 C 0.3252 0.95887 0.54475 0.0
C99 C 0.67366 0.13802 0.53275 0.0
N100 N 0.65663 0.08793 0.5317 0.0
C101 C 0.71269 0.17213 0.55701 0.0
C102 C 0.73447 0.15469 0.58022 0.0
C103 C 0.71711 0.10358 0.57885 0.0
C104 C 0.67795 0.07058 0.55427 0.0
C105 C 0.7123 0.01148 0.46892 0.0
C106 C 0.61319 0.95702 0.48313 0.0
C107 C 0.68627 0.03535 0.47842 0.0
N108 N 0.6374 1.00811 0.48554 0.0
C109 C 0.63802 0.93187 0.47369 0.0
C110 C 0.68793 0.95938 0.46658 0.0
C111 C 0.49715 0.97554 0.46128 0.0
C112 C 0.50981 0.16423 0.47311 0.0
C113 C 0.44376 0.06173 0.46638 0.0
C114 C 0.43597 0.09133 0.44439 0.0
C115 C 0.4693 0.14291 0.44783 0.0
N116 N 0.48357 0.0829 0.49112 0.0
C117 C 0.5164 0.13346 0.49463 0.0
Co118 Co 0.48778 0.50883 0.85283 0.0
Co119 Co 0.59201 0.60773 0.82413 0.0
O120 O 0.52475 0.57759 0.84008 0.0
C121 C 0.47261 0.57163 0.90702 0.0
O122 O 0.50894 0.61316 0.89745 0.0
C123 C 0.53254 0.62549 0.77064 0.0
O124 O 0.49633 0.57876 0.77069 0.0
O125 O 0.56968 0.54981 0.78914 0.0
O126 O 0.51225 0.48493 0.81433 0.0
H127 H 0.74542 0.60859 0.78825 0.0
H128 H 0.43509 0.56495 0.84042 0.0
O129 O 0.46105 0.5292 0.8921 0.0
H130 H 0.34517 0.41205 0.75979 0.0
H131 H 0.33983 0.35731 0.89163 0.0
H132 H 0.51188 0.42839 0.85791 0.0
H133 H 0.4171 0.427 0.79938 0.0
H134 H 0.38582 0.44342 0.87525 0.0
O135 O 0.57311 0.64261 0.79028 0.0
H136 H 0.66135 0.57133 0.80868 0.0
H137 H 0.66492 0.70924 0.80511 0.0
H138 H 0.46694 0.34186 0.87366 0.0
H139 H 0.36293 0.55121 0.80169 0.0
H140 H 0.38029 0.30578 0.8907 0.0
H141 H 0.31748 0.47435 0.76087 0.0
O142 O 0.54681 0.5213 0.88416 0.0
H143 H 0.58295 0.74848 0.88605 0.0
H144 H 0.67833 0.66122 0.87843 0.0
H145 H 0.70708 0.73251 0.92223 0.0
H146 H 0.65941 0.77685 0.92616 0.0
H147 H 0.55481 0.67625 0.84312 0.0
H148 H 0.74887 0.7479 0.78438 0.0
H149 H 0.78976 0.69751 0.77592 0.0
O150 O 0.61283 0.57391 0.85743 0.0
C151 C 0.54098 0.50296 0.79072 0.0
C152 C 0.72806 0.63097 0.7919 0.0
C153 C 0.72996 0.70913 0.78969 0.0
N154 N 0.65833 0.63811 0.80825 0.0
C155 C 0.6805 0.6101 0.80354 0.0
C156 C 0.68235 0.68699 0.80136 0.0
C157 C 0.75289 0.68085 0.78496 0.0
C158 C 0.41522 0.53114 0.82309 0.0
N159 N 0.43023 0.49669 0.82237 0.0
C160 C 0.3745 0.52368 0.80105 0.0
C161 C 0.34909 0.48061 0.77812 0.0
C162 C 0.36463 0.44568 0.77747 0.0
C163 C 0.40555 0.45444 0.79986 0.0
C164 C 0.37754 0.37257 0.8842 0.0
C165 C 0.47406 0.41286 0.86508 0.0
C166 C 0.40386 0.42139 0.87501 0.0
N167 N 0.45141 0.44084 0.86541 0.0
C168 C 0.44885 0.36388 0.87407 0.0
C169 C 0.40026 0.34368 0.88366 0.0
C170 C 0.59371 0.5445 0.88048 0.0
C171 C 0.60408 0.72951 0.88457 0.0
C172 C 0.65695 0.67984 0.88022 0.0
C173 C 0.67364 0.72043 0.90496 0.0
C174 C 0.64693 0.74535 0.90711 0.0
N175 N 0.61473 0.66435 0.85829 0.0
C176 C 0.58848 0.68874 0.86017 0.0
H177 H 0.42369 0.50286 0.95116 0.0
H178 H 0.36329 0.50038 0.98922 0.0
H179 H 0.385 0.63947 0.95664 0.0
H180 H 0.44806 0.64356 0.92007 0.0
H181 H 0.37085 0.63904 0.01994 0.0
H182 H 0.28248 0.52011 0.92306 0.0
H183 H 0.26353 0.44981 0.88067 0.0
H184 H 0.22645 0.35153 0.95995 0.0
H185 H 0.24602 0.42145 1.00293 0.0
H186 H 0.13944 0.59552 0.08049 0.0
H187 H 0.20048 0.60445 0.0406 0.0
H188 H 0.21489 0.48787 0.08418 0.0
H189 H 0.15449 0.47883 0.12421 0.0
H190 H 0.20706 0.47949 0.01183 0.0
H191 H 0.29837 0.60509 0.10836 0.0
H192 H 0.31131 0.67637 0.14721 0.0
H193 H 0.33788 0.76504 0.06291 0.0
H194 H 0.32332 0.69353 0.0233 0.0
C195 C 0.41608 0.53326 0.95252 0.0
C196 C 0.44029 0.57325 0.93255 0.0
C197 C 0.38119 0.53163 0.97405 0.0
C198 C 0.36818 0.5689 0.97506 0.0
C199 C 0.39399 0.61003 0.95619 0.0
C200 C 0.43004 0.61238 0.93529 0.0
C201 C 0.32658 0.56387 0.99491 0.0
C202 C 0.33485 0.60435 0.01773 0.0
C203 C 0.27929 0.51868 0.99215 0.0
C204 C 0.26609 0.47614 0.96626 0.0
C205 C 0.27046 0.48354 0.93148 0.0
C206 C 0.25965 0.44378 0.90735 0.0
C207 C 0.2439 0.39626 0.91763 0.0
C208 C 0.2387 0.38837 0.95204 0.0
C209 C 0.24961 0.42805 0.97629 0.0
C210 C 0.15527 0.57149 0.08147 0.0
C211 C 0.14192 0.53644 0.10567 0.0
C212 C 0.19022 0.57672 0.05865 0.0
C213 C 0.21233 0.54693 0.05952 0.0
C214 C 0.19816 0.51111 0.083 0.0
C215 C 0.16365 0.50615 0.10598 0.0
C216 C 0.25186 0.55423 0.03706 0.0
C217 C 0.24305 0.51419 0.01374 0.0
C218 C 0.2981 0.60011 0.0388 0.0
C219 C 0.30924 0.64379 0.06282 0.0
C220 C 0.30671 0.63969 0.09807 0.0
C221 C 0.3143 0.68015 0.12023 0.0
C222 C 0.32543 0.72527 0.10756 0.0
C223 C 0.32918 0.73005 0.07269 0.0
C224 C 0.32116 0.68952 0.05035 0.0
H225 H 0.33116 0.75653 0.12475 0.0
H226 H 0.23565 0.36554 0.89892 0.0
H227 H 0.90913 0.47105 0.26721 0.0
H228 H 0.84132 0.4125 0.29887 0.0
H229 H 0.91048 0.32216 0.30463 0.0
H230 H 0.97659 0.37908 0.27153 0.0
H231 H 0.81737 0.2635 0.28929 0.0
H232 H 0.91201 0.40375 0.37499 0.0
H233 H 0.95246 0.49191 0.39922 0.0
H234 H 0.80997 0.4844 0.38847 0.0
H235 H 0.76877 0.39634 0.36377 0.0
H236 H 0.70584 0.12303 0.42588 0.0
H237 H 0.76331 0.18476 0.3906 0.0
H238 H 0.65967 0.23709 0.37307 0.0
H239 H 0.60133 0.17482 0.4085 0.0
H240 H 0.76198 0.31507 0.39147 0.0
H241 H 0.66781 0.16986 0.31034 0.0
H242 H 0.63028 0.08083 0.28916 0.0
H243 H 0.77697 0.0976 0.29487 0.0
H244 H 0.81535 0.18658 0.31655 0.0
C245 C 0.91004 0.43893 0.27556 0.0
C246 C 0.94824 0.42971 0.26697 0.0
C247 C 0.87131 0.40549 0.29378 0.0
C248 C 0.87079 0.36293 0.30461 0.0
C249 C 0.90964 0.35443 0.29652 0.0
C250 C 0.94764 0.38716 0.27771 0.0
C251 C 0.82927 0.32618 0.32336 0.0
C252 C 0.80582 0.27498 0.31185 0.0
C253 C 0.81273 0.34078 0.35228 0.0
C254 C 0.83743 0.39365 0.36719 0.0
C255 C 0.88938 0.42102 0.37756 0.0
C256 C 0.91243 0.47094 0.39142 0.0
C257 C 0.88383 0.49379 0.39528 0.0
C258 C 0.83209 0.46669 0.3854 0.0
C259 C 0.80886 0.41677 0.3715 0.0
C260 C 0.69499 0.14746 0.41447 0.0
C261 C 0.64884 0.14385 0.41995 0.0
C262 C 0.72793 0.18269 0.39421 0.0
C263 C 0.71568 0.21534 0.37904 0.0
C264 C 0.66978 0.21216 0.38451 0.0
C265 C 0.6364 0.1764 0.40458 0.0
C266 C 0.75144 0.25286 0.35777 0.0
C267 C 0.77354 0.30397 0.36874 0.0
C268 C 0.76736 0.23824 0.32867 0.0
C269 C 0.74441 0.18483 0.3153 0.0
C270 C 0.69204 0.15449 0.3073 0.0
C271 C 0.67062 0.10404 0.29517 0.0
C272 C 0.70121 0.08355 0.29074 0.0
C273 C 0.75332 0.11351 0.29834 0.0
C274 C 0.77493 0.16398 0.3105 0.0
H275 H 0.68455 0.04448 0.28135 0.0
H276 H 0.90175 0.53244 0.40602 0.0
H277 H 0.44869 0.90425 0.57121 0.0
H278 H 0.43997 0.83903 0.60707 0.0
H279 H 0.60165 0.91409 0.62715 0.0
H280 H 0.61021 0.97738 0.59017 0.0
H281 H 0.56932 0.82206 0.61325 0.0
H282 H 0.51695 0.91244 0.68753 0.0
H283 H 0.46519 0.94866 0.70318 0.0
H284 H 0.33211 0.80276 0.68664 0.0
H285 H 0.38304 0.76576 0.67049 0.0
H286 H 0.60472 0.71936 0.75865 0.0
H287 H 0.59676 0.77493 0.72104 0.0
H288 H 0.44023 0.66455 0.69348 0.0
H289 H 0.4478 0.60815 0.7313 0.0
H290 H 0.46031 0.76502 0.70762 0.0
H291 H 0.51771 0.67551 0.63833 0.0
H292 H 0.57277 0.64206 0.62554 0.0
H293 H 0.70091 0.79132 0.63577 0.0
H294 H 0.64673 0.82563 0.64912 0.0
C295 C 0.48224 0.90695 0.58363 0.0
C296 C 0.53017 0.94575 0.57777 0.0
C297 C 0.47727 0.86974 0.60422 0.0
C298 C 0.52016 0.87154 0.62012 0.0
C299 C 0.56791 0.91135 0.61501 0.0
C300 C 0.57284 0.9477 0.59389 0.0
C301 C 0.51614 0.83137 0.64098 0.0
C302 C 0.54581 0.81016 0.63409 0.0
C303 C 0.4843 0.81426 0.66758 0.0
C304 C 0.45373 0.83643 0.67745 0.0
C305 C 0.47661 0.88814 0.68701 0.0
C306 C 0.44743 0.9088 0.696 0.0
C307 C 0.39538 0.87806 0.69581 0.0
C308 C 0.37242 0.82655 0.68672 0.0
C309 C 0.40142 0.80571 0.67768 0.0
C310 C 0.56848 0.7067 0.74468 0.0
C311 C 0.52695 0.65906 0.74785 0.0
C312 C 0.56405 0.73859 0.72313 0.0
C313 C 0.51803 0.72373 0.70425 0.0
C314 C 0.47611 0.67667 0.7078 0.0
C315 C 0.48059 0.64443 0.72926 0.0
C316 C 0.51465 0.75738 0.68039 0.0
C317 C 0.48347 0.77697 0.68659 0.0
C318 C 0.5456 0.77362 0.65342 0.0
C319 C 0.57818 0.7531 0.64495 0.0
C320 C 0.55768 0.70118 0.63807 0.0
C321 C 0.58873 0.68207 0.63069 0.0
C322 C 0.64032 0.71454 0.6299 0.0
C323 C 0.66095 0.76621 0.6364 0.0
C324 C 0.63007 0.78551 0.64383 0.0
H325 H 0.66429 0.69966 0.6242 0.0
H326 H 0.37286 0.89412 0.70277 0.0
H327 H 0.57689 0.50414 0.94206 0.0
H328 H 0.63642 0.49467 0.98032 0.0
H329 H 0.74774 0.5574 0.90903 0.0
H330 H 0.68932 0.56756 0.87109 0.0
H331 H 0.7398 0.47143 0.93483 0.0
H332 H 0.75599 0.62952 0.97481 0.0
H333 H 0.72382 0.68301 0.99608 0.0
H334 H 0.67517 0.59914 0.08276 0.0
H335 H 0.70635 0.54458 0.06166 0.0
H336 H 0.97781 0.56227 0.02528 0.0
H337 H 0.90286 0.54907 0.99136 0.0
H338 H 0.81905 0.50406 0.07903 0.0
H339 H 0.89422 0.51785 0.11338 0.0
H340 H 0.80363 0.57015 0.04844 0.0
H341 H 0.79652 0.41809 0.01226 0.0
H342 H 0.828 0.36403 0.99095 0.0
H343 H 0.85801 0.43403 0.89766 0.0
H344 H 0.82741 0.48908 0.91862 0.0
C345 C 0.61398 0.51574 0.9345 0.0
C346 C 0.62837 0.53692 0.90358 0.0
C347 C 0.64792 0.51033 0.95638 0.0
C348 C 0.6965 0.52543 0.94749 0.0
C349 C 0.71041 0.54538 0.91633 0.0
C350 C 0.67694 0.55142 0.89475 0.0
C351 C 0.73392 0.52237 0.97093 0.0
C352 C 0.75395 0.49311 0.95964 0.0
C353 C 0.75132 0.54963 1.00363 0.0
C354 C 0.73289 0.58258 0.01644 0.0
C355 C 0.73801 0.62219 0.99824 0.0
C356 C 0.72003 0.65276 0.01029 0.0
C357 C 0.69732 0.64438 0.0407 0.0
C358 C 0.69267 0.60551 0.05917 0.0
C359 C 0.71048 0.57475 0.04718 0.0
C360 C 0.94335 0.54902 0.03732 0.0
C361 C 0.94212 0.54112 0.07208 0.0
C362 C 0.90038 0.54128 0.01782 0.0
C363 C 0.8551 0.52513 0.03253 0.0
C364 C 0.85351 0.51646 0.0671 0.0
C365 C 0.89651 0.52416 0.08665 0.0
C366 C 0.81038 0.51984 0.01214 0.0
C367 C 0.78899 0.54767 0.02394 0.0
C368 C 0.7916 0.49107 0.97993 0.0
C369 C 0.81 0.45799 0.96715 0.0
C370 C 0.8102 0.42224 0.98731 0.0
C371 C 0.82782 0.39137 0.97527 0.0
C372 C 0.84508 0.39566 0.943 0.0
C373 C 0.84466 0.43077 0.92267 0.0
C374 C 0.82711 0.46178 0.9346 0.0
H375 H 0.85871 0.37172 0.93372 0.0
H376 H 0.68344 0.66809 0.05 0.0
H377 H 0.3975 0.93864 0.44236 0.0
H378 H 0.34106 0.86776 0.4014 0.0
H379 H 0.4633 0.84546 0.37876 0.0
H380 H 0.52112 0.91807 0.41944 0.0
H381 H 0.40535 0.83148 0.32174 0.0
H382 H 0.37645 0.77036 0.4305 0.0
H383 H 0.36095 0.7717 0.49105 0.0
H384 H 0.21942 0.76056 0.46256 0.0
H385 H 0.23442 0.75997 0.40185 0.0
H386 H 0.16276 0.56359 0.27673 0.0
H387 H 0.23426 0.62486 0.31682 0.0
H388 H 0.24568 0.74428 0.26047 0.0
H389 H 0.17501 0.68377 0.2203 0.0
H390 H 0.24527 0.69948 0.35928 0.0
H391 H 0.36637 0.83813 0.26372 0.0
H392 H 0.39053 0.83615 0.20543 0.0
H393 H 0.35587 0.68453 0.20979 0.0
H394 H 0.332 0.68572 0.26822 0.0
C395 C 0.41284 0.91917 0.42859 0.0
C396 C 0.46406 0.93419 0.4344 0.0
C397 C 0.38022 0.87822 0.40527 0.0
C398 C 0.39758 0.85047 0.38754 0.0
C399 C 0.44897 0.8661 0.39235 0.0
C400 C 0.48198 0.90763 0.41559 0.0
C401 C 0.36151 0.80517 0.36423 0.0
C402 C 0.37044 0.80249 0.32995 0.0
C403 C 0.31661 0.76646 0.37517 0.0
C404 C 0.3067 0.76536 0.4116 0.0
C405 C 0.34209 0.76838 0.43714 0.0
C406 C 0.33341 0.76904 0.4715 0.0
C407 C 0.28926 0.7663 0.48065 0.0
C408 C 0.2536 0.76268 0.45544 0.0
C409 C 0.26214 0.76211 0.42103 0.0
C410 C 0.18054 0.60288 0.2728 0.0
C411 C 0.16287 0.61858 0.24522 0.0
C412 C 0.22147 0.63787 0.29576 0.0
C413 C 0.24585 0.68918 0.29145 0.0
C414 C 0.22822 0.70488 0.264 0.0
C415 C 0.18739 0.67008 0.24114 0.0
C416 C 0.28816 0.72683 0.31639 0.0
C417 C 0.28037 0.7281 0.35106 0.0
C418 C 0.33457 0.76363 0.30592 0.0
C419 C 0.34712 0.76196 0.27031 0.0
C420 C 0.3639 0.80436 0.25225 0.0
C421 C 0.37754 0.80338 0.21918 0.0
C422 C 0.37481 0.76029 0.20396 0.0
C423 C 0.35791 0.71787 0.22161 0.0
C424 C 0.34416 0.71863 0.25467 0.0
H425 H 0.38605 0.75988 0.17855 0.0
H426 H 0.28266 0.76692 0.50727 0.0
H427 H 0.47079 0.40414 0.774 0.0
H428 H 0.47831 0.34252 0.73815 0.0
H429 H 0.62535 0.45712 0.71619 0.0
H430 H 0.61677 0.51994 0.75071 0.0
H431 H 0.57999 0.39378 0.66172 0.0
H432 H 0.60924 0.3762 0.7784 0.0
H433 H 0.59168 0.36791 0.83859 0.0
H434 H 0.45563 0.22729 0.80915 0.0
H435 H 0.47191 0.23512 0.74868 0.0
H436 H 0.63652 0.20226 0.60863 0.0
H437 H 0.64154 0.27171 0.64531 0.0
H438 H 0.48074 0.18758 0.6481 0.0
H439 H 0.47525 0.11897 0.61081 0.0
H440 H 0.5443 0.23956 0.71449 0.0
H441 H 0.51554 0.26474 0.59627 0.0
H442 H 0.53749 0.2747 0.53701 0.0
H443 H 0.68125 0.4041 0.57205 0.0
H444 H 0.66049 0.39426 0.63164 0.0
C445 C 0.50443 0.41659 0.76116 0.0
C446 C 0.54336 0.46703 0.76556 0.0
C447 C 0.50891 0.3811 0.74085 0.0
C448 C 0.55311 0.39475 0.72531 0.0
C449 C 0.59108 0.44551 0.72819 0.0
C450 C 0.58613 0.48141 0.74798 0.0
C451 C 0.55994 0.35555 0.7072 0.0
C452 C 0.57301 0.36053 0.67353 0.0
C453 C 0.55098 0.31197 0.7225 0.0
C454 C 0.54166 0.30641 0.75895 0.0
C455 C 0.57547 0.34359 0.78474 0.0
C456 C 0.56573 0.339 0.81891 0.0
C457 C 0.52254 0.29713 0.82768 0.0
C458 C 0.48907 0.2597 0.80231 0.0
C459 C 0.49856 0.26417 0.76808 0.0
C460 C 0.6024 0.1984 0.6175 0.0
C461 C 0.55549 0.15533 0.60688 0.0
C462 C 0.6053 0.23807 0.6383 0.0
C463 C 0.56146 0.23467 0.64929 0.0
C464 C 0.51495 0.19081 0.63991 0.0
C465 C 0.51189 0.15176 0.61856 0.0
C466 C 0.56323 0.27759 0.66907 0.0
C467 C 0.55187 0.27323 0.70301 0.0
C468 C 0.57463 0.322 0.65427 0.0
C469 C 0.58673 0.3284 0.61843 0.0
C470 C 0.55202 0.29503 0.59137 0.0
C471 C 0.56421 0.30069 0.55772 0.0
C472 C 0.6108 0.33993 0.55077 0.0
C473 C 0.64522 0.37367 0.57747 0.0
C474 C 0.63327 0.36806 0.61119 0.0
H475 H 0.62017 0.34426 0.5247 0.0
H476 H 0.51505 0.29365 0.85415 0.0
loop_
_geom_bond_atom_site_label_1
_geom_bond_atom_site_label_2
_geom_bond_distance
_geom_bond_site_symmetry_2
_ccdc_geom_bond_type
Co0 O2 2.143 1_455 S
Co0 O8 2.074 . S
Co0 O11 2.093 1_455 S
Co0 O24 2.097 . S
Co0 N41 2.151 1_455 S
Co0 N49 2.214 . S
Co1 O2 2.160 1_455 S
Co1 O7 2.058 . S
Co1 O17 2.057 1_455 S
Co1 O32 2.037 . S
Co1 N36 2.145 . S
Co1 N57 2.257 1_455 S
O2 Co0 2.143 1_655 S
O2 Co1 2.160 1_655 S
C3 O4 1.278 . S
C3 O11 1.224 . S
O4 C3 1.278 . S
C5 O6 1.245 . S
C5 O17 1.232 . S
O6 C5 1.245 . S
O7 Co1 2.058 . S
O7 C33 1.269 . S
O8 Co0 2.074 . S
O8 C33 1.257 . S
H9 C34 0.930 . S
H10 C40 0.930 . S
O11 Co0 2.093 1_655 S
O11 C3 1.224 . S
H12 C44 0.929 1_455 S
H13 C46 0.930 . S
H14 C47 0.930 . S
H15 C45 0.929 . S
H16 C48 0.928 . S
O17 Co1 2.057 1_655 S
O17 C5 1.232 . S
H18 C37 0.929 . S
H19 C38 0.935 . S
H20 C50 0.931 . S
H21 C42 0.929 . S
H22 C51 0.930 . S
H23 C43 0.931 . S
O24 Co0 2.097 . S
O24 C52 1.214 . S
H25 C53 0.929 . S
H26 C54 0.929 . S
H27 C55 0.930 1_455 S
H28 C56 0.929 . S
H29 C58 0.930 . S
H30 C35 0.930 . S
H31 C39 0.930 . S
O32 Co1 2.037 . S
O32 C52 1.234 . S
C33 O7 1.269 . S
C33 O8 1.257 . S
C34 H9 0.930 . S
C34 C37 1.388 . S
C34 C39 1.418 . S
C35 H30 0.930 . S
C35 C38 1.404 . S
C35 C39 1.353 . S
N36 Co1 2.145 . S
N36 C37 1.397 . S
N36 C38 1.334 . S
C37 H18 0.929 . S
C37 C34 1.388 . S
C37 N36 1.397 . S
C38 H19 0.935 . S
C38 C35 1.404 . S
C38 N36 1.334 . S
C39 H31 0.930 . S
C39 C34 1.418 . S
C39 C35 1.353 . S
C40 H10 0.930 . S
C40 N41 1.330 . S
C40 C42 1.446 . S
N41 Co0 2.151 1_655 S
N41 C40 1.330 . S
N41 C45 1.418 1_655 S
C42 H21 0.929 . S
C42 C40 1.446 . S
C42 C43 1.332 . S
C43 H23 0.931 . S
C43 C42 1.332 . S
C43 C44 1.267 . S
C44 H12 0.929 1_655 S
C44 C43 1.267 . S
C44 C45 1.251 1_655 S
C45 H15 0.929 . S
C45 N41 1.418 1_455 S
C45 C44 1.251 1_455 S
C46 H13 0.930 . S
C46 C48 1.406 . S
C46 C51 1.261 . S
C47 H14 0.930 . S
C47 N49 1.325 . S
C47 C50 1.357 . S
C48 H16 0.928 . S
C48 C46 1.406 . S
C48 N49 1.261 . S
N49 Co0 2.214 . S
N49 C47 1.325 . S
N49 C48 1.261 . S
C50 H20 0.931 . S
C50 C47 1.357 . S
C50 C51 1.312 . S
C51 H22 0.930 . S
C51 C46 1.261 . S
C51 C50 1.312 . S
C52 O24 1.214 . S
C52 O32 1.234 . S
C53 H25 0.929 . S
C53 C56 1.391 . S
C53 C58 1.391 . S
C54 H26 0.929 . S
C54 C55 1.390 1_455 S
C54 N57 1.391 1_455 S
C55 H27 0.930 1_655 S
C55 C54 1.390 1_655 S
C55 C56 1.392 . S
C56 H28 0.929 . S
C56 C53 1.391 . S
C56 C55 1.392 . S
N57 Co1 2.257 1_655 S
N57 C54 1.391 1_655 S
N57 C58 1.388 . S
C58 H29 0.930 . S
C58 C53 1.391 . S
C58 N57 1.388 . S
Co59 O61 2.143 . S
Co59 O67 2.074 1_545 S
Co59 O70 2.093 . S
Co59 O83 2.097 1_545 S
Co59 N100 2.151 . S
Co59 N108 2.214 1_545 S
Co60 O61 2.160 . S
Co60 O66 2.058 . S
Co60 O76 2.057 . S
Co60 O91 2.037 1_545 S
Co60 N95 2.145 . S
Co60 N116 2.257 . S
O61 Co59 2.143 . S
O61 Co60 2.160 . S
C62 O63 1.278 . S
C62 O70 1.224 . S
O63 C62 1.278 . S
C64 O65 1.245 . S
C64 O76 1.232 . S
O65 C64 1.245 . S
O66 Co60 2.058 . S
O66 C92 1.269 1_545 S
O67 Co59 2.074 1_565 S
O67 C92 1.257 . S
H68 C93 0.930 . S
H69 C99 0.930 . S
O70 Co59 2.093 . S
O70 C62 1.224 . S
H71 C103 0.929 . S
H72 C105 0.930 . S
H73 C106 0.930 . S
H74 C104 0.929 . S
H75 C107 0.928 1_545 S
O76 Co60 2.057 . S
O76 C64 1.232 . S
H77 C96 0.929 . S
H78 C97 0.929 . S
H79 C109 0.931 . S
H80 C101 0.929 . S
H81 C110 0.930 . S
H82 C102 0.931 . S
O83 Co59 2.097 1_565 S
O83 C111 1.214 . S
H84 C112 0.929 . S
H85 C113 0.929 . S
H86 C114 0.930 . S
H87 C115 0.929 . S
H88 C117 0.930 . S
H89 C94 0.930 . S
H90 C98 0.930 . S
O91 Co60 2.037 1_565 S
O91 C111 1.234 . S
C92 O66 1.269 1_565 S
C92 O67 1.257 . S
C93 H68 0.930 . S
C93 C96 1.388 . S
C93 C98 1.418 . S
C94 H89 0.930 . S
C94 C97 1.404 . S
C94 C98 1.353 1_545 S
N95 Co60 2.145 . S
N95 C96 1.397 1_545 S
N95 C97 1.334 . S
C96 H77 0.929 . S
C96 C93 1.388 . S
C96 N95 1.397 1_565 S
C97 H78 0.929 . S
C97 C94 1.404 . S
C97 N95 1.334 . S
C98 H90 0.930 . S
C98 C93 1.418 . S
C98 C94 1.353 1_565 S
C99 H69 0.930 . S
C99 N100 1.330 . S
C99 C101 1.446 . S
N100 Co59 2.151 . S
N100 C99 1.330 . S
N100 C104 1.418 . S
C101 H80 0.929 . S
C101 C99 1.446 . S
C101 C102 1.332 . S
C102 H82 0.931 . S
C102 C101 1.332 . S
C102 C103 1.267 . S
C103 H71 0.929 . S
C103 C102 1.267 . S
C103 C104 1.251 . S
C104 H74 0.929 . S
C104 N100 1.418 . S
C104 C103 1.251 . S
C105 H72 0.930 . S
C105 C107 1.406 . S
C105 C110 1.261 . S
C106 H73 0.930 . S
C106 N108 1.325 . S
C106 C109 1.357 . S
C107 H75 0.928 1_565 S
C107 C105 1.406 . S
C107 N108 1.261 . S
N108 Co59 2.214 1_565 S
N108 C106 1.325 . S
N108 C107 1.261 . S
C109 H79 0.931 . S
C109 C106 1.357 . S
C109 C110 1.312 . S
C110 H81 0.930 . S
C110 C105 1.261 . S
C110 C109 1.312 . S
C111 O83 1.214 . S
C111 O91 1.234 . S
C112 H84 0.929 . S
C112 C115 1.391 . S
C112 C117 1.391 . S
C113 H85 0.929 . S
C113 C114 1.390 . S
C113 N116 1.391 . S
C114 H86 0.930 . S
C114 C113 1.390 . S
C114 C115 1.392 . S
C115 H87 0.929 . S
C115 C112 1.391 . S
C115 C114 1.392 . S
N116 Co60 2.257 . S
N116 C113 1.391 . S
N116 C117 1.388 . S
C117 H88 0.930 . S
C117 C112 1.391 . S
C117 N116 1.388 . S
Co118 O120 2.143 . S
Co118 O126 2.074 . S
Co118 O129 2.093 . S
Co118 O142 2.097 . S
Co118 N159 2.151 . S
Co118 N167 2.214 . S
Co119 O120 2.160 . S
Co119 O125 2.058 . S
Co119 O135 2.057 . S
Co119 O150 2.037 . S
Co119 N154 2.145 . S
Co119 N175 2.257 . S
O120 Co118 2.143 . S
O120 Co119 2.160 . S
C121 O122 1.278 . S
C121 O129 1.224 . S
O122 C121 1.278 . S
C123 O124 1.245 . S
C123 O135 1.232 . S
O124 C123 1.245 . S
O125 Co119 2.058 . S
O125 C151 1.269 . S
O126 Co118 2.074 . S
O126 C151 1.257 . S
H127 C152 0.930 . S
H128 C158 0.930 . S
O129 Co118 2.093 . S
O129 C121 1.224 . S
H130 C162 0.929 . S
H131 C164 0.930 . S
H132 C165 0.930 . S
H133 C163 0.929 . S
H134 C166 0.928 . S
O135 Co119 2.057 . S
O135 C123 1.232 . S
H136 C155 0.929 . S
H137 C156 0.929 . S
H138 C168 0.931 . S
H139 C160 0.929 . S
H140 C169 0.930 . S
H141 C161 0.931 . S
O142 Co118 2.097 . S
O142 C170 1.214 . S
H143 C171 0.929 . S
H144 C172 0.929 . S
H145 C173 0.930 . S
H146 C174 0.929 . S
H147 C176 0.930 . S
H148 C153 0.930 . S
H149 C157 0.930 . S
O150 Co119 2.037 . S
O150 C170 1.234 . S
C151 O125 1.269 . S
C151 O126 1.257 . S
C152 H127 0.930 . S
C152 C155 1.388 . S
C152 C157 1.418 . S
C153 H148 0.930 . S
C153 C156 1.404 . S
C153 C157 1.353 . S
N154 Co119 2.145 . S
N154 C155 1.397 . S
N154 C156 1.334 . S
C155 H136 0.929 . S
C155 C152 1.388 . S
C155 N154 1.397 . S
C156 H137 0.929 . S
C156 C153 1.404 . S
C156 N154 1.334 . S
C157 H149 0.930 . S
C157 C152 1.418 . S
C157 C153 1.353 . S
C158 H128 0.930 . S
C158 N159 1.330 . S
C158 C160 1.446 . S
N159 Co118 2.151 . S
N159 C158 1.330 . S
N159 C163 1.418 . S
C160 H139 0.929 . S
C160 C158 1.446 . S
C160 C161 1.332 . S
C161 H141 0.931 . S
C161 C160 1.332 . S
C161 C162 1.267 . S
C162 H130 0.929 . S
C162 C161 1.267 . S
C162 C163 1.251 . S
C163 H133 0.929 . S
C163 N159 1.418 . S
C163 C162 1.251 . S
C164 H131 0.930 . S
C164 C166 1.406 . S
C164 C169 1.261 . S
C165 H132 0.930 . S
C165 N167 1.325 . S
C165 C168 1.357 . S
C166 H134 0.928 . S
C166 C164 1.406 . S
C166 N167 1.261 . S
N167 Co118 2.214 . S
N167 C165 1.325 . S
N167 C166 1.261 . S
C168 H138 0.931 . S
C168 C165 1.357 . S
C168 C169 1.312 . S
C169 H140 0.930 . S
C169 C164 1.261 . S
C169 C168 1.312 . S
C170 O142 1.214 . S
C170 O150 1.234 . S
C171 H143 0.929 . S
C171 C174 1.391 . S
C171 C176 1.391 . S
C172 H144 0.929 . S
C172 C173 1.390 . S
C172 N175 1.391 . S
C173 H145 0.930 . S
C173 C172 1.390 . S
C173 C174 1.392 . S
C174 H146 0.929 . S
C174 C171 1.391 . S
C174 C173 1.392 . S
N175 Co119 2.257 . S
N175 C172 1.391 . S
N175 C176 1.388 . S
C176 H147 0.930 . S
C176 C171 1.391 . S
C176 N175 1.388 . S
H177 C195 0.951 . S
H178 C197 0.951 . S
H179 C199 0.950 . S
H180 C200 0.950 . S
H181 C202 0.950 . S
H182 C205 0.950 . S
H183 C206 0.950 . S
H184 C208 0.950 . S
H185 C209 0.950 1_554 S
H186 C210 0.951 . S
H187 C212 0.951 . S
H188 C214 0.950 . S
H189 C215 0.950 . S
H190 C217 0.950 . S
H191 C220 0.950 . S
H192 C221 0.950 . S
H193 C223 0.950 . S
H194 C224 0.950 1_556 S
C195 H177 0.951 . S
C195 C196 1.366 . S
C195 C197 1.388 . S
C196 C195 1.366 . S
C196 C200 1.385 . S
C197 H178 0.951 . S
C197 C195 1.388 . S
C197 C198 1.366 . S
C198 C197 1.366 . S
C198 C199 1.414 . S
C198 C201 1.499 . S
C199 H179 0.950 . S
C199 C198 1.414 . S
C199 C200 1.374 . S
C200 H180 0.950 . S
C200 C196 1.385 . S
C200 C199 1.374 . S
C201 C198 1.499 . S
C201 C202 1.373 . S
C201 C203 1.389 . S
C202 H181 0.950 . S
C202 C201 1.373 . S
C202 C218 1.377 1_556 S
C203 C201 1.389 . S
C203 C204 1.524 . S
C203 C217 1.377 1_556 S
C204 C203 1.524 . S
C204 C205 1.397 . S
C204 C209 1.363 . S
C205 H182 0.950 . S
C205 C204 1.397 . S
C205 C206 1.334 . S
C206 H183 0.950 . S
C206 C205 1.334 . S
C206 C207 1.287 . S
C207 C206 1.287 . S
C207 C208 1.524 . S
C207 H226 0.913 . S
C208 H184 0.950 . S
C208 C207 1.524 . S
C208 C209 1.415 . S
C209 H185 0.950 1_556 S
C209 C204 1.363 . S
C209 C208 1.415 . S
C210 H186 0.951 . S
C210 C211 1.366 . S
C210 C212 1.388 . S
C211 C210 1.366 . S
C211 C215 1.385 . S
C212 H187 0.951 . S
C212 C210 1.388 . S
C212 C213 1.366 . S
C213 C212 1.366 . S
C213 C214 1.414 . S
C213 C216 1.499 . S
C214 H188 0.950 . S
C214 C213 1.414 . S
C214 C215 1.374 . S
C215 H189 0.950 . S
C215 C211 1.385 . S
C215 C214 1.374 . S
C216 C213 1.499 . S
C216 C217 1.373 . S
C216 C218 1.389 . S
C217 H190 0.950 . S
C217 C203 1.377 1_554 S
C217 C216 1.373 . S
C218 C202 1.377 1_554 S
C218 C216 1.389 . S
C218 C219 1.524 . S
C219 C218 1.524 . S
C219 C220 1.397 . S
C219 C224 1.363 . S
C220 H191 0.950 . S
C220 C219 1.397 . S
C220 C221 1.334 . S
C221 H192 0.950 . S
C221 C220 1.334 . S
C221 C222 1.287 . S
C222 C221 1.287 . S
C222 C223 1.524 . S
C222 H225 0.999 . S
C223 H193 0.950 . S
C223 C222 1.524 . S
C223 C224 1.415 . S
C224 H194 0.950 1_554 S
C224 C219 1.363 . S
C224 C223 1.415 . S
H225 C222 0.999 . S
H226 C207 0.913 . S
H227 C245 0.951 . S
H228 C247 0.951 . S
H229 C249 0.950 . S
H230 C250 0.950 . S
H231 C252 0.950 . S
H232 C255 0.950 . S
H233 C256 0.950 . S
H234 C258 0.950 . S
H235 C259 0.950 . S
H236 C260 0.951 . S
H237 C262 0.951 . S
H238 C264 0.950 . S
H239 C265 0.950 . S
H240 C267 0.950 . S
H241 C270 0.950 . S
H242 C271 0.950 . S
H243 C273 0.950 . S
H244 C274 0.950 . S
C245 H227 0.951 . S
C245 C246 1.366 . S
C245 C247 1.388 . S
C246 C245 1.366 . S
C246 C250 1.385 . S
C247 H228 0.951 . S
C247 C245 1.388 . S
C247 C248 1.366 . S
C248 C247 1.366 . S
C248 C249 1.414 . S
C248 C251 1.499 . S
C249 H229 0.950 . S
C249 C248 1.414 . S
C249 C250 1.374 . S
C250 H230 0.950 . S
C250 C246 1.385 . S
C250 C249 1.374 . S
C251 C248 1.499 . S
C251 C252 1.373 . S
C251 C253 1.389 . S
C252 H231 0.950 . S
C252 C251 1.373 . S
C252 C268 1.377 . S
C253 C251 1.389 . S
C253 C254 1.524 . S
C253 C267 1.377 . S
C254 C253 1.524 . S
C254 C255 1.397 . S
C254 C259 1.363 . S
C255 H232 0.950 . S
C255 C254 1.397 . S
C255 C256 1.334 . S
C256 H233 0.950 . S
C256 C255 1.334 . S
C256 C257 1.287 . S
C257 C256 1.287 . S
C257 C258 1.524 . S
C257 H276 0.913 . S
C258 H234 0.950 . S
C258 C257 1.524 . S
C258 C259 1.415 . S
C259 H235 0.950 . S
C259 C254 1.363 . S
C259 C258 1.415 . S
C260 H236 0.951 . S
C260 C261 1.366 . S
C260 C262 1.388 . S
C261 C260 1.366 . S
C261 C265 1.385 . S
C262 H237 0.951 . S
C262 C260 1.388 . S
C262 C263 1.366 . S
C263 C262 1.366 . S
C263 C264 1.414 . S
C263 C266 1.499 . S
C264 H238 0.950 . S
C264 C263 1.414 . S
C264 C265 1.374 . S
C265 H239 0.950 . S
C265 C261 1.385 . S
C265 C264 1.374 . S
C266 C263 1.499 . S
C266 C267 1.373 . S
C266 C268 1.389 . S
C267 H240 0.950 . S
C267 C253 1.377 . S
C267 C266 1.373 . S
C268 C252 1.377 . S
C268 C266 1.389 . S
C268 C269 1.524 . S
C269 C268 1.524 . S
C269 C270 1.397 . S
C269 C274 1.363 . S
C270 H241 0.950 . S
C270 C269 1.397 . S
C270 C271 1.334 . S
C271 H242 0.950 . S
C271 C270 1.334 . S
C271 C272 1.287 . S
C272 C271 1.287 . S
C272 C273 1.524 . S
C272 H275 0.999 . S
C273 H243 0.950 . S
C273 C272 1.524 . S
C273 C274 1.415 . S
C274 H244 0.950 . S
C274 C269 1.363 . S
C274 C273 1.415 . S
H275 C272 0.999 . S
H276 C257 0.913 . S
H277 C295 0.951 . S
H278 C297 0.951 . S
H279 C299 0.950 . S
H280 C300 0.950 . S
H281 C302 0.950 . S
H282 C305 0.950 . S
H283 C306 0.950 . S
H284 C308 0.950 . S
H285 C309 0.950 . S
H286 C310 0.951 . S
H287 C312 0.951 . S
H288 C314 0.950 . S
H289 C315 0.950 . S
H290 C317 0.950 . S
H291 C320 0.950 . S
H292 C321 0.950 . S
H293 C323 0.950 . S
H294 C324 0.950 . S
C295 H277 0.951 . S
C295 C296 1.366 . S
C295 C297 1.388 . S
C296 C295 1.366 . S
C296 C300 1.385 . S
C297 H278 0.951 . S
C297 C295 1.388 . S
C297 C298 1.366 . S
C298 C297 1.366 . S
C298 C299 1.414 . S
C298 C301 1.499 . S
C299 H279 0.950 . S
C299 C298 1.414 . S
C299 C300 1.374 . S
C300 H280 0.950 . S
C300 C296 1.385 . S
C300 C299 1.374 . S
C301 C298 1.499 . S
C301 C302 1.373 . S
C301 C303 1.389 . S
C302 H281 0.950 . S
C302 C301 1.373 . S
C302 C318 1.377 . S
C303 C301 1.389 . S
C303 C304 1.524 . S
C303 C317 1.377 . S
C304 C303 1.524 . S
C304 C305 1.397 . S
C304 C309 1.363 . S
C305 H282 0.950 . S
C305 C304 1.397 . S
C305 C306 1.334 . S
C306 H283 0.950 . S
C306 C305 1.334 . S
C306 C307 1.287 . S
C307 C306 1.287 . S
C307 C308 1.524 . S
C307 H326 0.913 . S
C308 H284 0.950 . S
C308 C307 1.524 . S
C308 C309 1.415 . S
C309 H285 0.950 . S
C309 C304 1.363 . S
C309 C308 1.415 . S
C310 H286 0.951 . S
C310 C311 1.366 . S
C310 C312 1.388 . S
C311 C310 1.366 . S
C311 C315 1.385 . S
C312 H287 0.951 . S
C312 C310 1.388 . S
C312 C313 1.366 . S
C313 C312 1.366 . S
C313 C314 1.414 . S
C313 C316 1.499 . S
C314 H288 0.950 . S
C314 C313 1.414 . S
C314 C315 1.374 . S
C315 H289 0.950 . S
C315 C311 1.385 . S
C315 C314 1.374 . S
C316 C313 1.499 . S
C316 C317 1.373 . S
C316 C318 1.389 . S
C317 H290 0.950 . S
C317 C303 1.377 . S
C317 C316 1.373 . S
C318 C302 1.377 . S
C318 C316 1.389 . S
C318 C319 1.524 . S
C319 C318 1.524 . S
C319 C320 1.397 . S
C319 C324 1.363 . S
C320 H291 0.950 . S
C320 C319 1.397 . S
C320 C321 1.334 . S
C321 H292 0.950 . S
C321 C320 1.334 . S
C321 C322 1.287 . S
C322 C321 1.287 . S
C322 C323 1.524 . S
C322 H325 0.999 . S
C323 H293 0.950 . S
C323 C322 1.524 . S
C323 C324 1.415 . S
C324 H294 0.950 . S
C324 C319 1.363 . S
C324 C323 1.415 . S
H325 C322 0.999 . S
H326 C307 0.913 . S
H327 C345 0.951 . S
H328 C347 0.951 . S
H329 C349 0.950 . S
H330 C350 0.950 . S
H331 C352 0.950 . S
H332 C355 0.950 . S
H333 C356 0.950 . S
H334 C358 0.950 . S
H335 C359 0.950 . S
H336 C360 0.951 . S
H337 C362 0.944 1_556 S
H338 C364 0.950 . S
H339 C365 0.950 . S
H340 C367 0.950 . S
H341 C370 0.950 . S
H342 C371 0.950 . S
H343 C373 0.950 . S
H344 C374 0.950 . S
C345 H327 0.951 . S
C345 C346 1.366 . S
C345 C347 1.388 . S
C346 C345 1.366 . S
C346 C350 1.385 . S
C347 H328 0.951 . S
C347 C345 1.388 . S
C347 C348 1.366 . S
C348 C347 1.366 . S
C348 C349 1.414 . S
C348 C351 1.499 . S
C349 H329 0.950 . S
C349 C348 1.414 . S
C349 C350 1.374 . S
C350 H330 0.950 . S
C350 C346 1.385 . S
C350 C349 1.374 . S
C351 C348 1.499 . S
C351 C352 1.373 . S
C351 C353 1.389 . S
C352 H331 0.950 . S
C352 C351 1.373 . S
C352 C368 1.377 . S
C353 C351 1.389 . S
C353 C354 1.524 . S
C353 C367 1.377 1_556 S
C354 C353 1.524 . S
C354 C355 1.397 . S
C354 C359 1.363 1_556 S
C355 H332 0.950 . S
C355 C354 1.397 . S
C355 C356 1.334 . S
C356 H333 0.950 . S
C356 C355 1.334 . S
C356 C357 1.287 . S
C357 C356 1.287 . S
C357 C358 1.524 1_556 S
C357 H376 0.913 . S
C358 H334 0.950 . S
C358 C357 1.524 1_554 S
C358 C359 1.415 . S
C359 H335 0.950 . S
C359 C354 1.363 1_554 S
C359 C358 1.415 . S
C360 H336 0.951 . S
C360 C361 1.366 . S
C360 C362 1.388 . S
C361 C360 1.366 . S
C361 C365 1.385 . S
C362 H337 0.944 1_554 S
C362 C360 1.388 . S
C362 C363 1.366 . S
C363 C362 1.366 . S
C363 C364 1.414 . S
C363 C366 1.499 . S
C364 H338 0.950 . S
C364 C363 1.414 . S
C364 C365 1.374 . S
C365 H339 0.950 . S
C365 C361 1.385 . S
C365 C364 1.374 . S
C366 C363 1.499 . S
C366 C367 1.373 . S
C366 C368 1.389 1_554 S
C367 H340 0.950 . S
C367 C353 1.377 1_554 S
C367 C366 1.373 . S
C368 C352 1.377 . S
C368 C366 1.389 1_556 S
C368 C369 1.524 . S
C369 C368 1.524 . S
C369 C370 1.397 1_556 S
C369 C374 1.363 . S
C370 H341 0.950 . S
C370 C369 1.397 1_554 S
C370 C371 1.334 . S
C371 H342 0.950 . S
C371 C370 1.334 . S
C371 C372 1.287 1_554 S
C372 C371 1.287 1_556 S
C372 C373 1.524 . S
C372 H375 0.999 . S
C373 H343 0.950 . S
C373 C372 1.524 . S
C373 C374 1.415 . S
C374 H344 0.950 . S
C374 C369 1.363 . S
C374 C373 1.415 . S
H375 C372 0.999 . S
H376 C357 0.913 . S
H377 C395 0.951 . S
H378 C397 0.951 . S
H379 C399 0.950 . S
H380 C400 0.950 . S
H381 C402 0.950 . S
H382 C405 0.950 . S
H383 C406 0.950 . S
H384 C408 0.950 . S
H385 C409 0.950 . S
H386 C410 0.951 . S
H387 C412 0.951 . S
H388 C414 0.950 . S
H389 C415 0.950 . S
H390 C417 0.950 . S
H391 C420 0.950 . S
H392 C421 0.950 . S
H393 C423 0.950 . S
H394 C424 0.950 . S
C395 H377 0.951 . S
C395 C396 1.366 . S
C395 C397 1.388 . S
C396 C395 1.366 . S
C396 C400 1.385 . S
C397 H378 0.951 . S
C397 C395 1.388 . S
C397 C398 1.366 . S
C398 C397 1.366 . S
C398 C399 1.414 . S
C398 C401 1.499 . S
C399 H379 0.950 . S
C399 C398 1.414 . S
C399 C400 1.374 . S
C400 H380 0.950 . S
C400 C396 1.385 . S
C400 C399 1.374 . S
C401 C398 1.499 . S
C401 C402 1.373 . S
C401 C403 1.389 . S
C402 H381 0.950 . S
C402 C401 1.373 . S
C402 C418 1.377 . S
C403 C401 1.389 . S
C403 C404 1.524 . S
C403 C417 1.377 . S
C404 C403 1.524 . S
C404 C405 1.397 . S
C404 C409 1.363 . S
C405 H382 0.950 . S
C405 C404 1.397 . S
C405 C406 1.334 . S
C406 H383 0.950 . S
C406 C405 1.334 . S
C406 C407 1.287 . S
C407 C406 1.287 . S
C407 C408 1.524 . S
C407 H426 0.913 . S
C408 H384 0.950 . S
C408 C407 1.524 . S
C408 C409 1.415 . S
C409 H385 0.950 . S
C409 C404 1.363 . S
C409 C408 1.415 . S
C410 H386 0.951 . S
C410 C411 1.366 . S
C410 C412 1.388 . S
C411 C410 1.366 . S
C411 C415 1.385 . S
C412 H387 0.951 . S
C412 C410 1.388 . S
C412 C413 1.366 . S
C413 C412 1.366 . S
C413 C414 1.414 . S
C413 C416 1.499 . S
C414 H388 0.950 . S
C414 C413 1.414 . S
C414 C415 1.374 . S
C415 H389 0.950 . S
C415 C411 1.385 . S
C415 C414 1.374 . S
C416 C413 1.499 . S
C416 C417 1.373 . S
C416 C418 1.389 . S
C417 H390 0.950 . S
C417 C403 1.377 . S
C417 C416 1.373 . S
C418 C402 1.377 . S
C418 C416 1.389 . S
C418 C419 1.524 . S
C419 C418 1.524 . S
C419 C420 1.397 . S
C419 C424 1.363 . S
C420 H391 0.950 . S
C420 C419 1.397 . S
C420 C421 1.334 . S
C421 H392 0.950 . S
C421 C420 1.334 . S
C421 C422 1.287 . S
C422 C421 1.287 . S
C422 C423 1.524 . S
C422 H425 0.999 . S
C423 H393 0.950 . S
C423 C422 1.524 . S
C423 C424 1.415 . S
C424 H394 0.950 . S
C424 C419 1.363 . S
C424 C423 1.415 . S
H425 C422 0.999 . S
H426 C407 0.913 . S
H427 C445 0.951 . S
H428 C447 0.951 . S
H429 C449 0.950 . S
H430 C450 0.950 . S
H431 C452 0.950 . S
H432 C455 0.950 . S
H433 C456 0.950 . S
H434 C458 0.950 . S
H435 C459 0.950 . S
H436 C460 0.951 . S
H437 C462 0.951 . S
H438 C464 0.950 . S
H439 C465 0.950 . S
H440 C467 0.950 . S
H441 C470 0.950 . S
H442 C471 0.950 . S
H443 C473 0.950 . S
H444 C474 0.950 . S
C445 H427 0.951 . S
C445 C446 1.366 . S
C445 C447 1.388 . S
C446 C445 1.366 . S
C446 C450 1.385 . S
C447 H428 0.951 . S
C447 C445 1.388 . S
C447 C448 1.366 . S
C448 C447 1.366 . S
C448 C449 1.414 . S
C448 C451 1.499 . S
C449 H429 0.950 . S
C449 C448 1.414 . S
C449 C450 1.374 . S
C450 H430 0.950 . S
C450 C446 1.385 . S
C450 C449 1.374 . S
C451 C448 1.499 . S
C451 C452 1.373 . S
C451 C453 1.389 . S
C452 H431 0.950 . S
C452 C451 1.373 . S
C452 C468 1.377 . S
C453 C451 1.389 . S
C453 C454 1.524 . S
C453 C467 1.377 . S
C454 C453 1.524 . S
C454 C455 1.397 . S
C454 C459 1.363 . S
C455 H432 0.950 . S
C455 C454 1.397 . S
C455 C456 1.334 . S
C456 H433 0.950 . S
C456 C455 1.334 . S
C456 C457 1.287 . S
C457 C456 1.287 . S
C457 C458 1.524 . S
C457 H476 0.913 . S
C458 H434 0.950 . S
C458 C457 1.524 . S
C458 C459 1.415 . S
C459 H435 0.950 . S
C459 C454 1.363 . S
C459 C458 1.415 . S
C460 H436 0.951 . S
C460 C461 1.366 . S
C460 C462 1.388 . S
C461 C460 1.366 . S
C461 C465 1.385 . S
C462 H437 0.951 . S
C462 C460 1.388 . S
C462 C463 1.366 . S
C463 C462 1.366 . S
C463 C464 1.414 . S
C463 C466 1.499 . S
C464 H438 0.950 . S
C464 C463 1.414 . S
C464 C465 1.374 . S
C465 H439 0.950 . S
C465 C461 1.385 . S
C465 C464 1.374 . S
C466 C463 1.499 . S
C466 C467 1.373 . S
C466 C468 1.389 . S
C467 H440 0.950 . S
C467 C453 1.377 . S
C467 C466 1.373 . S
C468 C452 1.377 . S
C468 C466 1.389 . S
C468 C469 1.524 . S
C469 C468 1.524 . S
C469 C470 1.397 . S
C469 C474 1.363 . S
C470 H441 0.950 . S
C470 C469 1.397 . S
C470 C471 1.334 . S
C471 H442 0.950 . S
C471 C470 1.334 . S
C471 C472 1.287 . S
C472 C471 1.287 . S
C472 C473 1.524 . S
C472 H475 0.999 . S
C473 H443 0.950 . S
C473 C472 1.524 . S
C473 C474 1.415 . S
C474 H444 0.950 . S
C474 C469 1.363 . S
C474 C473 1.415 . S
H475 C472 0.999 . S
H476 C457 0.913 . S
C196 C121 1.585 . S
C211 C33 1.598 . S
C246 C3 1.381 . S
C261 C62 1.381 . S
C296 C92 1.598 . S
C311 C123 1.597 . S
C346 C170 1.578 . S
C361 C5 1.576 . S
C396 C111 1.802 . S
C411 C52 1.802 . S
C446 C151 1.574 . S
C461 C64 1.573 . S
