# Generated by pormake.
# Topology lcy-e, (6)-cn, num edge types: 1
# Building blocks:
#     Node 0, Type 0, BuildingBlock: BETDAH_clean_sbu_0, # of connection points: 6
#     Node 1, Type 0, BuildingBlock: BETDAH_clean_sbu_0, # of connection points: 6
#     Node 2, Type 0, BuildingBlock: BETDAH_clean_sbu_0, # of connection points: 6
#     Node 3, Type 0, BuildingBlock: BETDAH_clean_sbu_0, # of connection points: 6
#     Node 4, Type 0, BuildingBlock: BETDAH_clean_sbu_0, # of connection points: 6
#     Node 5, Type 0, BuildingBlock: BETDAH_clean_sbu_0, # of connection points: 6
#     Node 6, Type 0, BuildingBlock: BETDAH_clean_sbu_0, # of connection points: 6
#     Node 7, Type 0, BuildingBlock: BETDAH_clean_sbu_0, # of connection points: 6
#     Node 8, Type 0, BuildingBlock: BETDAH_clean_sbu_0, # of connection points: 6
#     Node 9, Type 0, BuildingBlock: BETDAH_clean_sbu_0, # of connection points: 6
#     Node 10, Type 0, BuildingBlock: BETDAH_clean_sbu_0, # of connection points: 6
#     Node 11, Type 0, BuildingBlock: BETDAH_clean_sbu_0, # of connection points: 6
#     Edge 12, Type (0, 0), BuildingBlock: CIFDUS_clean_linker_0, # of connection points: 2
#     Edge 13, Type (0, 0), BuildingBlock: CIFDUS_clean_linker_0, # of connection points: 2
#     Edge 14, Type (0, 0), BuildingBlock: CIFDUS_clean_linker_0, # of connection points: 2
#     Edge 15, Type (0, 0), BuildingBlock: CIFDUS_clean_linker_0, # of connection points: 2
#     Edge 16, Type (0, 0), BuildingBlock: CIFDUS_clean_linker_0, # of connection points: 2
#     Edge 17, Type (0, 0), BuildingBlock: CIFDUS_clean_linker_0, # of connection points: 2
#     Edge 18, Type (0, 0), BuildingBlock: CIFDUS_clean_linker_0, # of connection points: 2
#     Edge 19, Type (0, 0), BuildingBlock: CIFDUS_clean_linker_0, # of connection points: 2
#     Edge 20, Type (0, 0), BuildingBlock: CIFDUS_clean_linker_0, # of connection points: 2
#     Edge 21, Type (0, 0), BuildingBlock: CIFDUS_clean_linker_0, # of connection points: 2
#     Edge 22, Type (0, 0), BuildingBlock: CIFDUS_clean_linker_0, # of connection points: 2
#     Edge 23, Type (0, 0), BuildingBlock: CIFDUS_clean_linker_0, # of connection points: 2
#     Edge 24, Type (0, 0), BuildingBlock: CIFDUS_clean_linker_0, # of connection points: 2
#     Edge 25, Type (0, 0), BuildingBlock: CIFDUS_clean_linker_0, # of connection points: 2
#     Edge 26, Type (0, 0), BuildingBlock: CIFDUS_clean_linker_0, # of connection points: 2
#     Edge 27, Type (0, 0), BuildingBlock: CIFDUS_clean_linker_0, # of connection points: 2
#     Edge 28, Type (0, 0), BuildingBlock: CIFDUS_clean_linker_0, # of connection points: 2
#     Edge 29, Type (0, 0), BuildingBlock: CIFDUS_clean_linker_0, # of connection points: 2
#     Edge 30, Type (0, 0), BuildingBlock: CIFDUS_clean_linker_0, # of connection points: 2
#     Edge 31, Type (0, 0), BuildingBlock: CIFDUS_clean_linker_0, # of connection points: 2
#     Edge 32, Type (0, 0), BuildingBlock: CIFDUS_clean_linker_0, # of connection points: 2
#     Edge 33, Type (0, 0), BuildingBlock: CIFDUS_clean_linker_0, # of connection points: 2
#     Edge 34, Type (0, 0), BuildingBlock: CIFDUS_clean_linker_0, # of connection points: 2
#     Edge 35, Type (0, 0), BuildingBlock: CIFDUS_clean_linker_0, # of connection points: 2
#     Edge 36, Type (0, 0), BuildingBlock: CIFDUS_clean_linker_0, # of connection points: 2
#     Edge 37, Type (0, 0), BuildingBlock: CIFDUS_clean_linker_0, # of connection points: 2
#     Edge 38, Type (0, 0), BuildingBlock: CIFDUS_clean_linker_0, # of connection points: 2
#     Edge 39, Type (0, 0), BuildingBlock: CIFDUS_clean_linker_0, # of connection points: 2
#     Edge 40, Type (0, 0), BuildingBlock: CIFDUS_clean_linker_0, # of connection points: 2
#     Edge 41, Type (0, 0), BuildingBlock: CIFDUS_clean_linker_0, # of connection points: 2
#     Edge 42, Type (0, 0), BuildingBlock: CIFDUS_clean_linker_0, # of connection points: 2
#     Edge 43, Type (0, 0), BuildingBlock: CIFDUS_clean_linker_0, # of connection points: 2
#     Edge 44, Type (0, 0), BuildingBlock: CIFDUS_clean_linker_0, # of connection points: 2
#     Edge 45, Type (0, 0), BuildingBlock: CIFDUS_clean_linker_0, # of connection points: 2
#     Edge 46, Type (0, 0), BuildingBlock: CIFDUS_clean_linker_0, # of connection points: 2
#     Edge 47, Type (0, 0), BuildingBlock: CIFDUS_clean_linker_0, # of connection points: 2
# Relax obj value: 0.195
# Max RMSD: 0.315
# Mean RMSD: 0.293
data_MOF--net-lcy-e--node1-BETDAH_clean_sbu_0--edge1-CIFDUS_clean_linker_0
_symmetry_space_group_name_H-M    P1
_symmetry_Int_Tables_number       1
_symmetry_cell_setting            triclinic
loop_
_symmetry_equiv_pos_as_xyz
'x, y, z'
_cell_length_a     40.815057
_cell_length_b     37.578969
_cell_length_c     40.674416
_cell_angle_alpha  89.546739
_cell_angle_beta   91.162156
_cell_angle_gamma 88.461582
loop_
_atom_site_label
_atom_site_type_symbol
_atom_site_fract_x
_atom_site_fract_y
_atom_site_fract_z
_atom_type_partial_charge
Ho0 Ho 0.14262 0.27527 0.48319 0.0
Ho1 Ho 0.16098 0.21955 0.53349 0.0
C2 C 0.20473 0.22065 0.471 0.0
C3 C 0.13713 0.32374 0.43751 0.0
C4 C 0.15642 0.33834 0.41036 0.0
C5 C 0.15899 0.37531 0.40737 0.0
C6 C 0.17514 0.39019 0.38083 0.0
C7 C 0.18906 0.36841 0.3565 0.0
C8 C 0.18673 0.33127 0.3596 0.0
C9 C 0.17069 0.31634 0.38637 0.0
C10 C 0.10011 0.22147 0.48536 0.0
C11 C 0.10493 0.2754 0.55125 0.0
C12 C 0.16306 0.16634 0.57451 0.0
C13 C 0.14155 0.13844 0.58698 0.0
C14 C 0.11192 0.14651 0.60272 0.0
C15 C 0.09331 0.11919 0.61589 0.0
C16 C 0.10399 0.08336 0.61358 0.0
C17 C 0.13307 0.07549 0.59679 0.0
C18 C 0.15165 0.10269 0.58384 0.0
C19 C 0.19808 0.27952 0.53679 0.0
O20 O 0.19156 0.25268 0.46468 0.0
O21 O 0.19253 0.19999 0.49358 0.0
O22 O 0.12685 0.29133 0.43419 0.0
O23 O 0.14718 0.33028 0.46751 0.0
O24 O 0.09199 0.2547 0.48123 0.0
O25 O 0.13112 0.21758 0.48735 0.0
O26 O 0.11323 0.24127 0.55177 0.0
O27 O 0.1165 0.2967 0.52815 0.0
O28 O 0.1572 0.19926 0.58329 0.0
O29 O 0.17107 0.16378 0.54372 0.0
O30 O 0.20864 0.24782 0.54511 0.0
O31 O 0.16802 0.27774 0.53061 0.0
H32 H 0.14798 0.39282 0.42535 0.0
H33 H 0.17607 0.41891 0.37898 0.0
H34 H 0.19743 0.3138 0.34143 0.0
H35 H 0.16917 0.28765 0.38807 0.0
H36 H 0.10343 0.17384 0.6054 0.0
H37 H 0.07117 0.12622 0.62884 0.0
H38 H 0.14174 0.04822 0.59398 0.0
H39 H 0.17431 0.09577 0.57169 0.0
Ho40 Ho 0.9843 0.86731 0.74362 0.0
Ho41 Ho 0.03699 0.88877 0.79299 0.0
C42 C 0.04059 0.92248 0.72293 0.0
C43 C 0.93555 0.86705 0.70151 0.0
C44 C 0.92544 0.88213 0.66899 0.0
C45 C 0.93581 0.91551 0.65808 0.0
C46 C 0.92404 0.92991 0.62796 0.0
C47 C 0.90178 0.91115 0.60808 0.0
C48 C 0.892 0.87747 0.61901 0.0
C49 C 0.90368 0.86321 0.64905 0.0
C50 C 0.03685 0.82242 0.74627 0.0
C51 C 0.98743 0.82868 0.81364 0.0
C52 C 0.08431 0.89107 0.83676 0.0
C53 C 0.11843 0.8778 0.84416 0.0
C54 C 0.14576 0.89639 0.83345 0.0
C55 C 0.17754 0.88632 0.84439 0.0
C56 C 0.18283 0.85755 0.8665 0.0
C57 C 0.15554 0.83828 0.87627 0.0
C58 C 0.12383 0.84834 0.86536 0.0
C59 C 0.97884 0.92728 0.79397 0.0
O60 O 1.00937 0.9141 0.71928 0.0
O61 O 0.05878 0.90892 0.74726 0.0
O62 O 0.95937 0.84307 0.70211 0.0
O63 O 0.9376 0.88927 0.726 0.0
O64 O 1.00686 0.8128 0.74133 0.0
O65 O 0.0381 0.85605 0.74774 0.0
O66 O 0.01816 0.83858 0.8147 0.0
O67 O 0.96696 0.83973 0.78963 0.0
O68 O 0.06133 0.86759 0.83685 0.0
O69 O 0.07932 0.91529 0.81378 0.0
O70 O 1.00708 0.9408 0.80057 0.0
O71 O 0.98339 0.89478 0.79011 0.0
H72 H 0.95267 0.93063 0.67299 0.0
H73 H 0.93238 0.95572 0.62025 0.0
H74 H 0.87453 0.86245 0.60478 0.0
H75 H 0.8952 0.83752 0.65703 0.0
H76 H 0.14257 0.91937 0.81736 0.0
H77 H 0.19794 0.90156 0.83599 0.0
H78 H 0.15844 0.81637 0.89363 0.0
H79 H 0.10336 0.83372 0.87457 0.0
Ho80 Ho 0.37416 0.77715 0.02637 0.0
Ho81 Ho 0.38753 0.71863 0.97611 0.0
C82 C 0.43217 0.78958 0.97651 0.0
C83 C 0.36813 0.81701 0.07806 0.0
C84 C 0.38343 0.84868 0.09291 0.0
C85 C 0.41765 0.8527 0.09391 0.0
C86 C 0.43166 0.88075 0.11149 0.0
C87 C 0.41178 0.90537 0.12849 0.0
C88 C 0.37748 0.90207 0.12605 0.0
C89 C 0.36355 0.87406 0.10861 0.0
C90 C 0.3421 0.78657 0.96756 0.0
C91 C 0.33121 0.70342 0.02331 0.0
C92 C 0.39618 0.68408 0.92181 0.0
C93 C 0.37857 0.66722 0.89413 0.0
C94 C 0.34721 0.67919 0.88326 0.0
C95 C 0.33293 0.66527 0.85454 0.0
C96 C 0.34989 0.6394 0.83605 0.0
C97 C 0.38084 0.62688 0.84772 0.0
C98 C 0.39496 0.64064 0.87636 0.0
C99 C 0.41776 0.70821 0.03624 0.0
O100 O 0.42031 0.79903 1.00528 0.0
O101 O 0.4212 0.76174 0.96048 0.0
O102 O 0.35037 0.82178 0.05121 0.0
O103 O 0.38625 0.78794 0.07719 0.0
O104 O 0.35474 0.81193 0.98472 0.0
O105 O 0.34663 0.75742 0.98288 0.0
O106 O 0.33956 0.7 0.99241 0.0
O107 O 0.34243 0.73009 0.04145 0.0
O108 O 0.39587 0.66852 0.95069 0.0
O109 O 0.39351 0.71875 0.92357 0.0
O110 O 0.40847 0.6827 0.01722 0.0
O111 O 0.41337 0.73729 0.02081 0.0
H112 H 0.43366 0.83359 0.08193 0.0
H113 H 0.45811 0.88225 0.11286 0.0
H114 H 0.36128 0.92088 0.13815 0.0
H115 H 0.33715 0.87169 0.10813 0.0
H116 H 0.33415 0.69986 0.89648 0.0
H117 H 0.30909 0.67553 0.84628 0.0
H118 H 0.39432 0.60646 0.83457 0.0
H119 H 0.41917 0.63107 0.88423 0.0
Ho120 Ho 0.55378 0.12532 0.24455 0.0
Ho121 Ho 0.49932 0.10611 0.29246 0.0
C122 C 0.50507 0.05888 0.22767 0.0
C123 C 0.60602 0.12309 0.20934 0.0
C124 C 0.61712 0.11297 0.17632 0.0
C125 C 0.64985 0.11836 0.16843 0.0
C126 C 0.6614 0.10947 0.13738 0.0
C127 C 0.64046 0.09498 0.11334 0.0
C128 C 0.60767 0.08892 0.12153 0.0
C129 C 0.59606 0.09795 0.15279 0.0
C130 C 0.49924 0.16599 0.23723 0.0
C131 C 0.54385 0.17164 0.30943 0.0
C132 C 0.4472 0.1035 0.3281 0.0
C133 C 0.41983 0.12403 0.34286 0.0
C134 C 0.41536 0.16103 0.33877 0.0
C135 C 0.38796 0.17883 0.35228 0.0
C136 C 0.36457 0.15989 0.37005 0.0
C137 C 0.3693 0.12276 0.37354 0.0
C138 C 0.39655 0.10521 0.36028 0.0
C139 C 0.55958 0.07311 0.3038 0.0
O140 O 0.5305 0.07803 0.2192 0.0
O141 O 0.48886 0.06505 0.25483 0.0
O142 O 0.58648 0.15117 0.21117 0.0
O143 O 0.5975 0.09712 0.22875 0.0
O144 O 0.52852 0.17669 0.23126 0.0
O145 O 0.49973 0.13282 0.24358 0.0
O146 O 0.51335 0.16073 0.30841 0.0
O147 O 0.56632 0.15774 0.28966 0.0
O148 O 0.47678 0.10684 0.34048 0.0
O149 O 0.44688 0.10094 0.29609 0.0
O150 O 0.53184 0.05879 0.31065 0.0
O151 O 0.55326 0.1042 0.2942 0.0
H152 H 0.66656 0.12959 0.18635 0.0
H153 H 0.68692 0.11385 0.13226 0.0
H154 H 0.59086 0.07795 0.10359 0.0
H155 H 0.57069 0.09345 0.1585 0.0
H156 H 0.43289 0.17606 0.3251 0.0
H157 H 0.38532 0.2074 0.34912 0.0
H158 H 0.35162 0.10692 0.38617 0.0
H159 H 0.39922 0.07659 0.36333 0.0
Ho160 Ho 0.63367 0.23322 0.55547 0.0
Ho161 Ho 0.64974 0.29701 0.51173 0.0
C162 C 0.69262 0.28671 0.57672 0.0
C163 C 0.63459 0.17818 0.59416 0.0
C164 C 0.65177 0.16721 0.62515 0.0
C165 C 0.68611 0.16782 0.62856 0.0
C166 C 0.70176 0.15559 0.65763 0.0
C167 C 0.68341 0.14283 0.68396 0.0
C168 C 0.64903 0.14356 0.68091 0.0
C169 C 0.63341 0.1555 0.65176 0.0
C170 C 0.59158 0.28906 0.55948 0.0
C171 C 0.59642 0.24136 0.48605 0.0
C172 C 0.64888 0.35597 0.47824 0.0
C173 C 0.6271 0.38098 0.45914 0.0
C174 C 0.62318 0.41605 0.47033 0.0
C175 C 0.60605 0.44173 0.45129 0.0
C176 C 0.59253 0.43305 0.42042 0.0
C177 C 0.59526 0.39754 0.40976 0.0
C178 C 0.61247 0.37173 0.4289 0.0
C179 C 0.68825 0.23755 0.50513 0.0
O180 O 0.67909 0.25529 0.58041 0.0
O181 O 0.68272 0.30947 0.55364 0.0
O182 O 0.61333 0.20462 0.59637 0.0
O183 O 0.65208 0.18007 0.56759 0.0
O184 O 0.58345 0.25606 0.56153 0.0
O185 O 0.62238 0.29122 0.55765 0.0
O186 O 0.60507 0.27507 0.48647 0.0
O187 O 0.60732 0.218 0.50867 0.0
O188 O 0.65642 0.32494 0.46559 0.0
O189 O 0.64418 0.35429 0.50991 0.0
O190 O 0.69917 0.26956 0.50199 0.0
O191 O 0.658 0.2394 0.50908 0.0
H192 H 0.70093 0.17715 0.60862 0.0
H193 H 0.72828 0.15557 0.65933 0.0
H194 H 0.63421 0.13347 0.70053 0.0
H195 H 0.60692 0.15492 0.64976 0.0
H196 H 0.63424 0.42393 0.4935 0.0
H197 H 0.60398 0.46865 0.46048 0.0
H198 H 0.58532 0.39002 0.386 0.0
H199 H 0.61511 0.34491 0.41956 0.0
Ho200 Ho 0.993 0.38448 0.73264 0.0
Ho201 Ho 0.03736 0.35799 0.78975 0.0
C202 C 0.97145 0.31633 0.77794 0.0
C203 C 0.95732 0.38975 0.67941 0.0
C204 C 0.92444 0.37927 0.66848 0.0
C205 C 0.9037 0.36098 0.68952 0.0
C206 C 0.87218 0.35198 0.67877 0.0
C207 C 0.86087 0.36145 0.64691 0.0
C208 C 0.88202 0.37936 0.62587 0.0
C209 C 0.91348 0.38815 0.63657 0.0
C210 C 0.98922 0.42446 0.78679 0.0
C211 C 0.06159 0.42156 0.74396 0.0
C212 C 0.06991 0.35168 0.84494 0.0
C213 C 0.08306 0.37337 0.87218 0.0
C214 C 0.1068 0.39927 0.86749 0.0
C215 C 0.11999 0.41747 0.89451 0.0
C216 C 0.10974 0.41001 0.92666 0.0
C217 C 0.08524 0.38489 0.93096 0.0
C218 C 0.07221 0.36675 0.90411 0.0
C219 C 0.04513 0.32377 0.73151 0.0
O220 O 0.96457 0.33801 0.75271 0.0
O221 O 0.99784 0.31951 0.79669 0.0
O222 O 0.95834 0.41452 0.70177 0.0
O223 O 0.97868 0.36374 0.68518 0.0
O224 O 0.98616 0.43682 0.75701 0.0
O225 O 0.99149 0.39072 0.78676 0.0
O226 O 0.06129 0.4086 0.77427 0.0
O227 O 0.03972 0.41221 0.72127 0.0
O228 O 0.08399 0.35289 0.8163 0.0
O229 O 0.03798 0.35077 0.8424 0.0
O230 O 0.04959 0.30819 0.75997 0.0
O231 O 0.03989 0.35622 0.73604 0.0
H232 H 0.91174 0.35404 0.71432 0.0
H233 H 0.85642 0.33839 0.6956 0.0
H234 H 0.87424 0.38653 0.60102 0.0
H235 H 0.92921 0.40211 0.61996 0.0
H236 H 0.1156 0.40502 0.84312 0.0
H237 H 0.13897 0.43648 0.89034 0.0
H238 H 0.07633 0.3789 0.95524 0.0
H239 H 0.05388 0.34699 0.90841 0.0
Ho240 Ho 0.89934 0.76059 0.05844 0.0
Ho241 Ho 0.88212 0.70852 1.00344 0.0
C242 C 0.83741 0.70717 0.06616 0.0
C243 C 0.89862 0.80968 0.10287 0.0
C244 C 0.88606 0.81622 0.13621 0.0
C245 C 0.85291 0.81145 0.14357 0.0
C246 C 0.84043 0.82295 0.17361 0.0
C247 C 0.86084 0.83929 0.197 0.0
C248 C 0.89441 0.84201 0.19026 0.0
C249 C 0.9068 0.83081 0.16013 0.0
C250 C 0.93828 0.70244 0.05744 0.0
C251 C 0.93972 0.76068 0.99179 0.0
C252 C 0.88032 0.65745 0.96104 0.0
C253 C 0.90125 0.63113 0.94404 0.0
C254 C 0.8892 0.59699 0.93885 0.0
C255 C 0.90708 0.57185 0.92092 0.0
C256 C 0.93749 0.58033 0.90771 0.0
C257 C 0.95008 0.61427 0.91396 0.0
C258 C 0.93213 0.63946 0.932 0.0
C259 C 0.84957 0.77332 1.00076 0.0
O260 O 0.85429 0.73385 0.0784 0.0
O261 O 0.84488 0.69182 0.03831 0.0
O262 O 0.92295 0.78662 0.09993 0.0
O263 O 0.87666 0.80732 0.07926 0.0
O264 O 0.94792 0.73371 0.0658 0.0
O265 O 0.90749 0.70241 0.05215 0.0
O266 O 0.93179 0.72695 0.99016 0.0
O267 O 0.92672 0.78182 1.01452 0.0
O268 O 0.88254 0.69105 0.95283 0.0
O269 O 0.8772 0.65265 0.99265 0.0
O270 O 0.83727 0.74413 0.98967 0.0
O271 O 0.87857 0.76652 1.00932 0.0
H272 H 0.83629 0.8001 0.12566 0.0
H273 H 0.81447 0.82053 0.17777 0.0
H274 H 0.91106 0.85363 0.20797 0.0
H275 H 0.93244 0.83464 0.1551 0.0
H276 H 0.86542 0.59003 0.94797 0.0
H277 H 0.89635 0.54629 0.91623 0.0
H278 H 0.97359 0.62156 0.90445 0.0
H279 H 0.94207 0.66556 0.93598 0.0
Ho280 Ho 0.54281 0.62679 0.23844 0.0
Ho281 Ho 0.48505 0.63536 0.28397 0.0
C282 C 0.54535 0.69068 0.28918 0.0
C283 C 0.5864 0.62101 0.19337 0.0
C284 C 0.62152 0.62851 0.19015 0.0
C285 C 0.63438 0.66071 0.20139 0.0
C286 C 0.66606 0.67033 0.19314 0.0
C287 C 0.68565 0.64779 0.17376 0.0
C288 C 0.67355 0.61435 0.16483 0.0
C289 C 0.64172 0.60496 0.17272 0.0
C290 C 0.55136 0.59626 0.29872 0.0
C291 C 0.48012 0.5765 0.23285 0.0
C292 C 0.44784 0.6384 0.33482 0.0
C293 C 0.4332 0.61622 0.36054 0.0
C294 C 0.4506 0.58774 0.3761 0.0
C295 C 0.43739 0.57035 0.4033 0.0
C296 C 0.4067 0.58131 0.41548 0.0
C297 C 0.3889 0.60876 0.39881 0.0
C298 C 0.40202 0.626 0.37173 0.0
C299 C 0.4744 0.66537 0.22338 0.0
O300 O 0.55805 0.67745 0.26216 0.0
O301 O 0.51868 0.67778 0.30216 0.0
O302 O 0.5786 0.59431 0.21227 0.0
O303 O 0.5671 0.64891 0.19691 0.0
O304 O 0.5737 0.61302 0.28325 0.0
O305 O 0.5256 0.59565 0.28116 0.0
O306 O 0.47804 0.58102 0.2648 0.0
O307 O 0.50167 0.59462 0.21591 0.0
O308 O 0.43639 0.63566 0.30471 0.0
O309 O 0.47965 0.64183 0.33624 0.0
O310 O 0.4514 0.65384 0.24183 0.0
O311 O 0.50107 0.66458 0.23982 0.0
H312 H 0.61943 0.6793 0.21522 0.0
H313 H 0.67441 0.69628 0.20039 0.0
H314 H 0.68827 0.59589 0.15065 0.0
H315 H 0.63244 0.57989 0.16406 0.0
H316 H 0.47474 0.57966 0.36789 0.0
H317 H 0.45173 0.54933 0.41558 0.0
H318 H 0.36492 0.61738 0.40708 0.0
H319 H 0.38815 0.64781 0.36009 0.0
Ho320 Ho 0.23451 0.51667 0.14537 0.0
Ho321 Ho 0.27695 0.45271 0.12699 0.0
C322 C 0.20883 0.46049 0.09021 0.0
C323 C 0.1948 0.57138 0.14658 0.0
C324 C 0.16381 0.58136 0.12897 0.0
C325 C 0.16083 0.5793 0.09453 0.0
C326 C 0.13134 0.58937 0.07842 0.0
C327 C 0.10416 0.60129 0.09643 0.0
C328 C 0.10693 0.60225 0.13092 0.0
C329 C 0.1365 0.59251 0.14699 0.0
C330 C 0.23522 0.4636 0.18998 0.0
C331 C 0.30509 0.50804 0.1788 0.0
C332 C 0.31241 0.39448 0.12388 0.0
C333 C 0.33254 0.3696 0.14451 0.0
C334 C 0.33664 0.33428 0.1342 0.0
C335 C 0.35673 0.31019 0.15222 0.0
C336 C 0.37324 0.32096 0.18098 0.0
C337 C 0.36821 0.35622 0.19184 0.0
C338 C 0.348 0.38033 0.17378 0.0
C339 C 0.28046 0.51179 0.08747 0.0
O340 O 0.20727 0.49348 0.10134 0.0
O341 O 0.23188 0.43762 0.10013 0.0
O342 O 0.1933 0.54456 0.16707 0.0
O343 O 0.22156 0.57037 0.12936 0.0
O344 O 0.23472 0.49715 0.19704 0.0
O345 O 0.23386 0.45924 0.15905 0.0
O346 O 0.30283 0.47388 0.17189 0.0
O347 O 0.28349 0.53208 0.16686 0.0
O348 O 0.32378 0.42618 0.11853 0.0
O349 O 0.28096 0.39521 0.12917 0.0
O350 O 0.28215 0.47949 0.07636 0.0
O351 O 0.27895 0.51024 0.11798 0.0
H352 H 0.18132 0.57024 0.07998 0.0
H353 H 0.12988 0.58818 0.05184 0.0
H354 H 0.08659 0.61178 0.14545 0.0
H355 H 0.13815 0.59407 0.17356 0.0
H356 H 0.32478 0.32548 0.11173 0.0
H357 H 0.36034 0.2835 0.14285 0.0
H358 H 0.38026 0.3653 0.21408 0.0
H359 H 0.34486 0.40741 0.18236 0.0
Ho360 Ho 0.72636 0.96993 0.87973 0.0
Ho361 Ho 0.7751 0.0272 0.90092 0.0
C362 C 0.71176 0.02113 0.94398 0.0
C363 C 0.68639 0.91719 0.87845 0.0
C364 C 0.65385 0.9083 0.89099 0.0
C365 C 0.64083 0.87517 0.8834 0.0
C366 C 0.61143 0.86463 0.89716 0.0
C367 C 0.59429 0.88699 0.91894 0.0
C368 C 0.60729 0.92048 0.92622 0.0
C369 C 0.63676 0.93105 0.91232 0.0
C370 C 0.72262 0.02946 0.84349 0.0
C371 C 0.79444 0.9763 0.84155 0.0
C372 C 0.81291 0.08146 0.90473 0.0
C373 C 0.83512 0.10401 0.88591 0.0
C374 C 0.82834 0.1147 0.85319 0.0
C375 C 0.84884 0.13862 0.83731 0.0
C376 C 0.87646 0.15211 0.85386 0.0
C377 C 0.88308 0.14093 0.8865 0.0
C378 C 0.86271 0.11719 0.90224 0.0
C379 C 0.78249 0.96186 0.93072 0.0
O380 O 0.70412 0.99283 0.92634 0.0
O381 O 0.73714 0.04061 0.93729 0.0
O382 O 0.68744 0.94127 0.85511 0.0
O383 O 0.70932 0.92107 0.90084 0.0
O384 O 0.71762 0.99793 0.83205 0.0
O385 O 0.72693 0.02865 0.87451 0.0
O386 O 0.79384 0.00956 0.8519 0.0
O387 O 0.77254 0.95332 0.85231 0.0
O388 O 0.82289 0.04885 0.91173 0.0
O389 O 0.78158 0.08393 0.89732 0.0
O390 O 0.78919 0.99147 0.94546 0.0
O391 O 0.7749 0.96895 0.90155 0.0
H392 H 0.65381 0.85704 0.86733 0.0
H393 H 0.60261 0.83844 0.89137 0.0
H394 H 0.59468 0.93854 0.94261 0.0
H395 H 0.64642 0.95672 0.91858 0.0
H396 H 0.80708 0.10494 0.84007 0.0
H397 H 0.84314 0.14643 0.81211 0.0
H398 H 0.90369 0.15118 0.9003 0.0
H399 H 0.86819 0.10967 0.92758 0.0
Ho400 Ho 0.75006 0.97381 0.40436 0.0
Ho401 Ho 0.80451 0.02765 0.39768 0.0
C402 C 0.80189 0.95927 0.34814 0.0
C403 C 0.69566 0.93963 0.40577 0.0
C404 C 0.68231 0.90536 0.39569 0.0
C405 C 0.64823 0.90227 0.39384 0.0
C406 C 0.63431 0.87259 0.37926 0.0
C407 C 0.65422 0.84517 0.36625 0.0
C408 C 0.68856 0.84795 0.36902 0.0
C409 C 0.70249 0.87791 0.38347 0.0
C410 C 0.8061 0.95691 0.43863 0.0
C411 C 0.75186 0.04626 0.44858 0.0
C412 C 0.86178 0.05601 0.39497 0.0
C413 C 0.88886 0.07236 0.41374 0.0
C414 C 0.92052 0.0704 0.40093 0.0
C415 C 0.94642 0.08815 0.41611 0.0
C416 C 0.94129 0.10837 0.4446 0.0
C417 C 0.90968 0.10903 0.45818 0.0
C418 C 0.88371 0.09127 0.44287 0.0
C419 C 0.74749 0.04564 0.36504 0.0
O420 O 0.77365 0.94957 0.36018 0.0
O421 O 0.81777 0.98687 0.35965 0.0
O422 O 0.71661 0.94 0.43056 0.0
O423 O 0.70442 0.95966 0.38139 0.0
O424 O 0.7881 0.9342 0.42324 0.0
O425 O 0.79301 0.98769 0.43574 0.0
O426 O 0.78377 0.04656 0.44441 0.0
O427 O 0.7333 0.02283 0.43307 0.0
O428 O 0.83408 0.07417 0.39142 0.0
O429 O 0.85755 0.02194 0.39937 0.0
O430 O 0.7681 0.06874 0.37587 0.0
O431 O 0.7604 0.01486 0.36821 0.0
H432 H 0.63227 0.92359 0.40247 0.0
H433 H 0.60785 0.87192 0.37704 0.0
H434 H 0.70468 0.82724 0.35962 0.0
H435 H 0.72891 0.88017 0.38419 0.0
H436 H 0.92505 0.05595 0.37845 0.0
H437 H 0.97012 0.08728 0.40461 0.0
H438 H 0.90483 0.12383 0.48037 0.0
H439 H 0.85953 0.09295 0.45336 0.0
Ho440 Ho 0.29928 0.4736 0.63838 0.0
Ho441 Ho 0.24896 0.53904 0.62281 0.0
C442 C 0.31397 0.53227 0.5808 0.0
C443 C 0.33095 0.41362 0.63506 0.0
C444 C 0.36556 0.40239 0.63289 0.0
C445 C 0.38945 0.42653 0.62356 0.0
C446 C 0.42213 0.415 0.62035 0.0
C447 C 0.43139 0.37925 0.62668 0.0
C448 C 0.40729 0.35538 0.63632 0.0
C449 C 0.3747 0.36687 0.63938 0.0
C450 C 0.31616 0.5321 0.67318 0.0
C451 C 0.23338 0.48428 0.6808 0.0
C452 C 0.21127 0.59543 0.62399 0.0
C453 C 0.19115 0.61722 0.64665 0.0
C454 C 0.20535 0.64222 0.66785 0.0
C455 C 0.18558 0.66508 0.68656 0.0
C456 C 0.15121 0.66341 0.68448 0.0
C457 C 0.13717 0.63804 0.66361 0.0
C458 C 0.15685 0.61535 0.64492 0.0
C459 C 0.24245 0.47824 0.5871 0.0
O460 O 0.31904 0.49925 0.59217 0.0
O461 O 0.29086 0.55398 0.59204 0.0
O462 O 0.32212 0.42785 0.66299 0.0
O463 O 0.31862 0.43067 0.6092 0.0
O464 O 0.33271 0.50218 0.67421 0.0
O465 O 0.29274 0.52877 0.65304 0.0
O466 O 0.23143 0.51778 0.67061 0.0
O467 O 0.25547 0.46096 0.66947 0.0
O468 O 0.20077 0.56374 0.61665 0.0
O469 O 0.24325 0.59609 0.6276 0.0
O470 O 0.23528 0.50994 0.5755 0.0
O471 O 0.25027 0.48096 0.61686 0.0
H472 H 0.38275 0.45416 0.6185 0.0
H473 H 0.44014 0.43403 0.61307 0.0
H474 H 0.41346 0.32752 0.6408 0.0
H475 H 0.35653 0.34789 0.64643 0.0
H476 H 0.23171 0.64463 0.66958 0.0
H477 H 0.19718 0.68414 0.70254 0.0
H478 H 0.1108 0.63643 0.66088 0.0
H479 H 0.14512 0.59688 0.62841 0.0
H480 H 0.18915 0.34544 0.50982 0.0
H481 H 0.24093 0.28914 0.58837 0.0
H482 H 0.25974 0.34571 0.61055 0.0
H483 H 0.25768 0.41145 0.60987 0.0
H484 H 0.20937 0.46762 0.52893 0.0
H485 H 0.19251 0.41089 0.50549 0.0
C486 C 0.20479 0.34555 0.53155 0.0
C487 C 0.21336 0.31311 0.54752 0.0
C488 C 0.21582 0.37819 0.54386 0.0
C489 C 0.23405 0.31366 0.57552 0.0
C490 C 0.24463 0.34605 0.58832 0.0
C491 C 0.24413 0.4113 0.5867 0.0
C492 C 0.23492 0.44383 0.57111 0.0
C493 C 0.23518 0.37852 0.57301 0.0
C494 C 0.21686 0.44306 0.54138 0.0
C495 C 0.20716 0.41059 0.52802 0.0
H496 H 0.84966 0.01354 0.83026 0.0
H497 H 0.8085 0.90977 0.81711 0.0
H498 H 0.86173 0.88645 0.79921 0.0
H499 H 0.92073 0.89422 0.79216 0.0
H500 H 0.96272 0.99688 0.80828 0.0
H501 H 0.90819 0.02199 0.82049 0.0
C502 C 0.85201 0.9859 0.82298 0.0
C503 C 0.82482 0.96343 0.82509 0.0
C504 C 0.88297 0.97241 0.81376 0.0
C505 C 0.82875 0.92771 0.81568 0.0
C506 C 0.8593 0.91432 0.80565 0.0
C507 C 0.918 0.92221 0.79801 0.0
C508 C 0.94586 0.94368 0.79938 0.0
C509 C 0.88672 0.93621 0.80539 0.0
C510 C 0.94177 0.97981 0.80713 0.0
C511 C 0.91058 0.99411 0.81409 0.0
H512 H 0.31287 0.6414 0.99451 0.0
H513 H 0.3134 0.69582 0.08767 0.0
H514 H 0.29613 0.64149 0.11505 0.0
H515 H 0.28599 0.57747 0.11337 0.0
H516 H 0.28734 0.5221 0.02094 0.0
H517 H 0.29922 0.578 0.99238 0.0
C518 C 0.30865 0.64174 0.02074 0.0
C519 C 0.31448 0.67298 0.03894 0.0
C520 C 0.29963 0.61005 0.03649 0.0
C521 C 0.30898 0.67248 0.07293 0.0
C522 C 0.29936 0.64126 0.08867 0.0
C523 C 0.28845 0.5776 0.08689 0.0
C524 C 0.28582 0.54554 0.06927 0.0
C525 C 0.29543 0.60972 0.07082 0.0
C526 C 0.28935 0.54629 0.03505 0.0
C527 C 0.29609 0.57828 0.01877 0.0
H528 H 0.61823 0.10177 0.28974 0.0
H529 H 0.57543 0.01984 0.3485 0.0
H530 H 0.62935 1.00548 0.37376 0.0
H531 H 0.68807 0.01948 0.38149 0.0
H532 H 0.73201 0.09557 0.31793 0.0
H533 H 0.67796 0.11076 0.29331 0.0
C534 C 0.62074 0.08023 0.30754 0.0
C535 C 0.5927 0.06167 0.31693 0.0
C536 C 0.65197 0.07167 0.32145 0.0
C537 C 0.59649 0.03433 0.34057 0.0
C538 C 0.62733 0.02628 0.35516 0.0
C539 C 0.68626 0.03736 0.36072 0.0
C540 C 0.71451 0.05453 0.35017 0.0
C541 C 0.65523 0.04485 0.34586 0.0
C542 C 0.71085 0.08134 0.32603 0.0
C543 C 0.67994 0.08993 0.31189 0.0
H544 H 0.66247 0.17248 0.49918 0.0
H545 H 0.75413 0.22679 0.49618 0.0
H546 H 0.78263 0.17075 0.48223 0.0
H547 H 0.7805 0.1077 0.46712 0.0
H548 H 0.68797 0.05454 0.46709 0.0
H549 H 0.66077 0.10885 0.48676 0.0
C550 C 0.68876 0.17204 0.49582 0.0
C551 C 0.70623 0.20375 0.49858 0.0
C552 C 0.70473 0.13997 0.48738 0.0
C553 C 0.7402 0.20276 0.49401 0.0
C554 C 0.75643 0.17074 0.48609 0.0
C555 C 0.75447 0.10766 0.47197 0.0
C556 C 0.73631 0.07691 0.46566 0.0
C557 C 0.73883 0.13932 0.48224 0.0
C558 C 0.70256 0.07768 0.47179 0.0
C559 C 0.68697 0.10882 0.48285 0.0
H560 H 0.12473 0.40513 0.75937 0.0
H561 H 0.06307 0.48024 0.70445 0.0
H562 H 0.11172 0.50889 0.68329 0.0
H563 H 0.17112 0.50942 0.67716 0.0
H564 H 0.23287 0.42946 0.7259 0.0
H565 H 0.18479 0.40566 0.75302 0.0
C566 C 0.12208 0.42818 0.74321 0.0
C567 C 0.09054 0.44106 0.73375 0.0
C568 C 0.15009 0.44328 0.72996 0.0
C569 C 0.08718 0.4702 0.71214 0.0
C570 C 0.11494 0.48643 0.70004 0.0
C571 C 0.17422 0.48717 0.6942 0.0
C572 C 0.20558 0.47147 0.69995 0.0
C573 C 0.14644 0.47279 0.70835 0.0
C574 C 0.20902 0.44207 0.72132 0.0
C575 C 0.18155 0.42847 0.73671 0.0
H576 H 0.81986 0.93909 0.98419 0.0
H577 H 0.76551 0.901 0.90041 0.0
H578 H 0.77531 0.8398 0.9181 0.0
H579 H 0.80285 0.796 0.95549 0.0
H580 H 0.87241 0.83435 0.02672 0.0
H581 H 0.85363 0.89533 0.01661 0.0
C582 C 0.80977 0.91736 0.97019 0.0
C583 C 0.78978 0.92486 0.94238 0.0
C584 C 0.81849 0.88175 0.97857 0.0
C585 C 0.77859 0.89628 0.92341 0.0
C586 C 0.78489 0.86101 0.93309 0.0
C587 C 0.8134 0.8177 0.96917 0.0
C588 C 0.83726 0.81023 0.99378 0.0
C589 C 0.805 0.8533 0.96058 0.0
C590 C 0.8521 0.83889 1.00979 0.0
C591 C 0.84193 0.87407 1.00334 0.0
H592 H 0.43568 0.53257 0.25908 0.0
H593 H 0.45975 0.58631 0.16889 0.0
H594 H 0.4063 0.57209 0.14513 0.0
H595 H 0.35129 0.54725 0.15113 0.0
H596 H 0.3283 0.49101 0.24001 0.0
H597 H 0.38242 0.50415 0.26364 0.0
C598 C 0.42949 0.5406 0.23399 0.0
C599 C 0.45175 0.56048 0.21583 0.0
C600 C 0.39853 0.5328 0.22067 0.0
C601 C 0.44333 0.57063 0.18333 0.0
C602 C 0.41253 0.56296 0.16987 0.0
C603 C 0.35811 0.53846 0.17587 0.0
C604 C 0.33577 0.51932 0.19442 0.0
C605 C 0.38966 0.54483 0.18861 0.0
C606 C 0.34501 0.50664 0.22584 0.0
C607 C 0.37598 0.5138 0.23911 0.0
H608 H 0.52273 0.16333 0.37106 0.0
H609 H 0.58929 0.2239 0.31331 0.0
H610 H 0.6088 0.25379 0.36324 0.0
H611 H 0.60909 0.25969 0.42359 0.0
H612 H 0.5479 0.19291 0.48159 0.0
H613 H 0.52374 0.16835 0.43118 0.0
C614 C 0.54114 0.18353 0.36934 0.0
C615 C 0.55422 0.192 0.33855 0.0
C616 C 0.55318 0.19919 0.39819 0.0
C617 C 0.57873 0.21731 0.33673 0.0
C618 C 0.58987 0.23425 0.36525 0.0
C619 C 0.59007 0.24015 0.4251 0.0
C620 C 0.57976 0.22844 0.45612 0.0
C621 C 0.57755 0.22505 0.39614 0.0
C622 C 0.55589 0.20243 0.45793 0.0
C623 C 0.5422 0.1884 0.42917 0.0
H624 H 0.08715 0.23863 0.60553 0.0
H625 H 0.08479 0.34456 0.5635 0.0
H626 H 0.06404 0.36838 0.61526 0.0
H627 H 0.05082 0.35952 0.67368 0.0
H628 H 0.0569 0.25397 0.7162 0.0
H629 H 0.07227 0.2295 0.66283 0.0
C630 C 0.08176 0.26693 0.60733 0.0
C631 C 0.08761 0.28976 0.58041 0.0
C632 C 0.07093 0.28049 0.63744 0.0
C633 C 0.08046 0.32633 0.58361 0.0
C634 C 0.06879 0.33997 0.61332 0.0
C635 C 0.05528 0.33111 0.67123 0.0
C636 C 0.05285 0.30853 0.69895 0.0
C637 C 0.06463 0.31739 0.6406 0.0
C638 C 0.05876 0.27185 0.69534 0.0
C639 C 0.0675 0.25791 0.66482 0.0
H640 H 1.00498 0.84349 0.87584 0.0
H641 H 0.94213 0.77627 0.81849 0.0
H642 H 0.9236 0.74784 0.86924 0.0
H643 H 0.92521 0.7429 0.92949 0.0
H644 H 0.98376 0.81429 0.98703 0.0
H645 H 1.00449 0.84058 0.93621 0.0
C646 C 0.98739 0.82239 0.87443 0.0
C647 C 0.97527 0.8114 0.84353 0.0
C648 C 0.97631 0.80712 0.90358 0.0
C649 C 0.95185 0.78488 0.84201 0.0
C650 C 0.94138 0.76869 0.87096 0.0
C651 C 0.94285 0.76394 0.93094 0.0
C652 C 0.95365 0.77621 0.96191 0.0
C653 C 0.95352 0.77961 0.90181 0.0
C654 C 0.97554 0.80423 0.96346 0.0
C655 C 0.98724 0.81921 0.93447 0.0
H656 H 0.42136 0.69604 0.19218 0.0
H657 H 0.51517 0.64737 0.17321 0.0
H658 H 0.50769 0.65826 0.11441 0.0
H659 H 0.47278 0.68027 0.06724 0.0
H660 H 0.37666 0.72367 0.08719 0.0
H661 H 0.38611 0.71609 0.14548 0.0
C662 C 0.44035 0.68829 0.17518 0.0
C663 C 0.46992 0.67286 0.18747 0.0
C664 C 0.43509 0.69356 0.14105 0.0
C665 C 0.49364 0.66191 0.16491 0.0
C666 C 0.48881 0.6673 0.13099 0.0
C667 C 0.45408 0.68839 0.08442 0.0
C668 C 0.42438 0.7039 0.07234 0.0
C669 C 0.45959 0.68324 0.11865 0.0
C670 C 0.40016 0.71313 0.09508 0.0
C671 C 0.40546 0.70843 0.12888 0.0
H672 H 0.18341 0.35147 0.29106 0.0
H673 H 0.23184 0.42258 0.358 0.0
H674 H 0.25338 0.45557 0.31178 0.0
H675 H 0.25384 0.46811 0.25295 0.0
H676 H 0.20566 0.39859 0.18476 0.0
H677 H 0.18934 0.36042 0.23075 0.0
C678 C 0.19919 0.37377 0.29548 0.0
C679 C 0.20549 0.38495 0.32801 0.0
C680 C 0.21143 0.39291 0.26859 0.0
C681 C 0.22597 0.41392 0.33328 0.0
C682 C 0.23843 0.43272 0.30686 0.0
C683 C 0.24016 0.44427 0.2481 0.0
C684 C 0.23057 0.43631 0.21568 0.0
C685 C 0.23055 0.42308 0.27451 0.0
C686 C 0.21329 0.40518 0.20958 0.0
C687 C 0.20377 0.38359 0.2359 0.0
H688 H 0.89009 0.87747 0.54985 0.0
H689 H 0.88156 0.9804 0.59557 0.0
H690 H 0.85421 1.00486 0.54602 0.0
H691 H 0.82837 0.99576 0.49109 0.0
H692 H 0.83546 0.89196 0.44687 0.0
H693 H 0.8675 0.86928 0.4942 0.0
C694 C 0.88224 0.90527 0.54906 0.0
C695 C 0.88771 0.92687 0.57671 0.0
C696 C 0.86605 0.91907 0.52064 0.0
C697 C 0.87796 0.96307 0.57474 0.0
C698 C 0.86206 0.97708 0.54641 0.0
C699 C 0.83737 0.96835 0.49165 0.0
C700 C 0.82933 0.94552 0.46553 0.0
C701 C 0.85541 0.95519 0.51938 0.0
C702 C 0.84113 0.91004 0.46668 0.0
C703 C 0.8594 0.89699 0.49382 0.0
H704 H 0.27625 0.56206 0.71894 0.0
H705 H 0.37285 0.56613 0.67862 0.0
H706 H 0.39107 0.60306 0.72427 0.0
H707 H 0.3817 0.62755 0.7789 0.0
H708 H 0.28652 0.62016 0.82215 0.0
H709 H 0.26546 0.59175 0.77229 0.0
C710 C 0.30089 0.5722 0.71969 0.0
C711 C 0.32311 0.56203 0.69524 0.0
C712 C 0.31164 0.59217 0.74697 0.0
C713 C 0.35527 0.57421 0.69692 0.0
C714 C 0.36578 0.59497 0.72321 0.0
C715 C 0.3563 0.6198 0.77745 0.0
C716 C 0.33592 0.62547 0.80454 0.0
C717 C 0.34456 0.60295 0.74897 0.0
C718 C 0.30283 0.61609 0.80177 0.0
C719 C 0.29079 0.59969 0.77326 0.0
H720 H 0.62964 0.03663 0.07433 0.0
H721 H 0.67962 0.13642 0.07662 0.0
H722 H 0.70455 0.123 0.02417 0.0
H723 H 0.71453 0.08217 0.97904 0.0
H724 H 0.66515 0.98214 0.97528 0.0
H725 H 0.6372 0.99675 0.02639 0.0
C726 C 0.64565 0.05561 0.06312 0.0
C727 C 0.65309 0.08729 0.07982 0.0
C728 C 0.66008 0.04771 0.03265 0.0
C729 C 0.67399 0.1115 0.06485 0.0
C730 C 0.68817 0.10394 0.03469 0.0
C731 C 0.69755 0.06351 0.98919 0.0
C732 C 0.69222 0.03094 0.97329 0.0
C733 C 0.68183 0.07193 0.01864 0.0
C734 C 0.66978 1.00741 0.98684 0.0
C735 C 0.65387 0.01571 1.01622 0.0
H736 H 0.66966 0.15093 0.74935 0.0
H737 H 0.73403 0.09451 0.68356 0.0
H738 H 0.75593 0.05822 0.72917 0.0
H739 H 0.75106 0.03666 0.78568 0.0
H740 H 0.68715 0.09161 0.85242 0.0
H741 H 0.67114 0.13479 0.80883 0.0
C742 C 0.68881 0.13101 0.74517 0.0
C743 C 0.69994 0.12521 0.71298 0.0
C744 C 0.70126 0.10995 0.77166 0.0
C745 C 0.72511 0.09968 0.70801 0.0
C746 C 0.73753 0.07872 0.73408 0.0
C747 C 0.73435 0.05878 0.79088 0.0
C748 C 0.72016 0.0611 0.82195 0.0
C749 C 0.72505 0.08286 0.7657 0.0
C750 C 0.69858 0.08966 0.82867 0.0
C751 C 0.68915 0.11399 0.80363 0.0
H752 H 0.18248 0.49828 0.03772 0.0
H753 H 0.18413 0.39494 0.08475 0.0
H754 H 0.15249 0.37083 0.03904 0.0
H755 H 0.12826 0.37753 0.98407 0.0
H756 H 0.12754 0.47965 0.9349 0.0
H757 H 0.15535 0.50563 0.98265 0.0
C758 C 0.17529 0.47071 0.03813 0.0
C759 C 0.18552 0.44842 0.06459 0.0
C760 C 0.15782 0.45662 1.01111 0.0
C761 C 0.17657 0.41258 0.06463 0.0
C762 C 0.15858 0.39873 0.03844 0.0
C763 C 0.13363 0.40564 0.98392 0.0
C764 C 0.12568 0.42658 0.95591 0.0
C765 C 0.14969 0.42027 1.01128 0.0
C766 C 0.13362 0.46279 0.95599 0.0
C767 C 0.14937 0.47772 0.98338 0.0
H768 H 0.7844 0.89499 0.32198 0.0
H769 H 0.85204 0.98052 0.3104 0.0
H770 H 0.87615 0.95078 0.26366 0.0
H771 H 0.87754 0.90177 0.22503 0.0
H772 H 0.812 0.81451 0.23641 0.0
H773 H 0.78742 0.84388 0.28379 0.0
C774 C 0.80441 0.90708 0.30922 0.0
C775 C 0.81624 0.94005 0.31984 0.0
C776 C 0.81856 0.88962 0.28217 0.0
C777 C 0.84236 0.95518 0.30303 0.0
C778 C 0.85623 0.93821 0.27615 0.0
C779 C 0.85833 0.88869 0.23816 0.0
C780 C 0.84685 0.85582 0.22709 0.0
C781 C 0.84454 0.9055 0.26548 0.0
C782 C 0.82121 0.83996 0.24409 0.0
C783 C 0.8072 0.85669 0.27131 0.0
H784 H 0.34989 0.49447 0.53544 0.0
H785 H 0.32257 0.60138 0.56441 0.0
H786 H 0.34971 0.62549 0.51692 0.0
H787 H 0.37874 0.61681 0.46578 0.0
H788 H 0.40593 0.51085 0.43477 0.0
H789 H 0.38187 0.48595 0.48445 0.0
C790 C 0.35025 0.52303 0.53153 0.0
C791 C 0.33387 0.54597 0.55345 0.0
C792 C 0.36574 0.53698 0.50364 0.0
C793 C 0.33456 0.58296 0.54788 0.0
C794 C 0.35013 0.59689 0.52066 0.0
C795 C 0.37926 0.58822 0.46973 0.0
C796 C 0.39369 0.56574 0.44629 0.0
C797 C 0.36524 0.57419 0.49809 0.0
C798 C 0.39495 0.5288 0.45236 0.0
C799 C 0.38107 0.51455 0.48073 0.0
H800 H 0.2341 0.24372 0.4135 0.0
H801 H 0.24602 0.16854 0.49412 0.0
H802 H 0.29637 0.14535 0.4713 0.0
H803 H 0.33703 0.14482 0.42876 0.0
H804 H 0.32594 0.21632 0.34561 0.0
H805 H 0.27631 0.24282 0.36943 0.0
C806 C 0.24776 0.22229 0.42599 0.0
C807 C 0.23573 0.20782 0.45544 0.0
C808 C 0.27717 0.20836 0.41241 0.0
C809 C 0.25402 0.18007 0.47125 0.0
C810 C 0.28313 0.16673 0.4583 0.0
C811 C 0.32368 0.16592 0.41546 0.0
C812 C 0.3353 0.17807 0.38512 0.0
C813 C 0.29481 0.18038 0.42884 0.0
C814 C 0.31792 0.20637 0.36908 0.0
C815 C 0.28928 0.22141 0.38261 0.0
H816 H 0.13072 0.02747 0.64798 0.0
H817 H 0.03734 0.07428 0.61719 0.0
H818 H 1.00898 0.02725 0.64644 0.0
H819 H 1.01104 0.97363 0.68278 0.0
H820 H 0.10548 0.92839 0.71273 0.0
H821 H 0.13292 0.97339 0.6811 0.0
C822 C 0.10415 0.02714 0.64708 0.0
C823 C 0.08625 0.05435 0.63025 0.0
C824 C 0.08812 1.00013 0.66381 0.0
C825 C 0.05178 0.05386 0.63019 0.0
C826 C 0.03554 0.02685 0.64678 0.0
C827 C 0.03759 0.9734 0.68194 0.0
C828 C 0.05612 0.94773 0.70026 0.0
C829 C 0.05348 0.99992 0.66393 0.0
C830 C 0.09054 0.94794 0.69912 0.0
C831 C 0.10635 0.97372 0.68104 0.0
H832 H 0.21189 0.79212 0.8805 0.0
H833 H 0.22877 0.90481 0.88674 0.0
H834 H 0.28087 0.89259 0.91544 0.0
H835 H 0.31972 0.85037 0.94288 0.0
H836 H 0.30232 0.73782 0.93875 0.0
H837 H 0.25268 0.74948 0.90518 0.0
C838 C 0.22696 0.81403 0.88808 0.0
C839 C 0.21611 0.8494 0.88139 0.0
C840 C 0.25689 0.80684 0.90514 0.0
C841 C 0.23643 0.87733 0.89103 0.0
C842 C 0.26623 0.87038 0.90775 0.0
C843 C 0.30529 0.82835 0.93429 0.0
C844 C 0.31466 0.79327 0.94351 0.0
C845 C 0.27645 0.83531 0.91545 0.0
C846 C 0.29569 0.76506 0.93207 0.0
C847 C 0.26718 0.77175 0.91299 0.0
H848 H 0.45347 0.01587 0.23726 0.0
H849 H 0.52909 0.03749 0.16776 0.0
H850 H 0.50738 0.99198 0.13104 0.0
H851 H 0.46584 0.94658 0.11815 0.0
H852 H 0.3911 0.92585 0.18894 0.0
H853 H 0.41339 0.97064 0.22523 0.0
C854 C 0.46542 0.01072 0.21415 0.0
C855 C 0.49298 0.03033 0.20546 0.0
C856 C 0.45273 0.9847 0.19311 0.0
C857 C 0.5079 0.02295 0.17527 0.0
C858 C 0.49543 0.9969 0.15418 0.0
C859 C 0.45455 0.95171 0.14159 0.0
C860 C 0.42642 0.93294 0.1504 0.0
C861 C 0.46771 0.97765 0.16276 0.0
C862 C 0.41218 0.94026 0.18094 0.0
C863 C 0.4251 0.96576 0.20196 0.0
H864 H 0.82751 0.29965 0.65448 0.0
H865 H 0.81795 0.40607 0.61405 0.0
H866 H 0.76397 0.393 0.59133 0.0
H867 H 0.72125 0.35076 0.57989 0.0
H868 H 0.72998 0.24362 0.61876 0.0
H869 H 0.78211 0.25787 0.64585 0.0
C870 C 0.81338 0.32007 0.64106 0.0
C871 C 0.82697 0.35365 0.63557 0.0
C872 C 0.78223 0.31229 0.62781 0.0
C873 C 0.80839 0.3798 0.61804 0.0
C874 C 0.77743 0.37242 0.60519 0.0
C875 C 0.73431 0.33046 0.59448 0.0
C876 C 0.72178 0.29604 0.59697 0.0
C877 C 0.7644 0.33861 0.6094 0.0
C878 C 0.73901 0.27033 0.61635 0.0
C879 C 0.76894 0.27842 0.63171 0.0
H880 H 0.995 0.49515 0.78845 0.0
H881 H 0.97219 0.4054 0.84967 0.0
H882 H 0.95664 0.44604 0.89419 0.0
H883 H 0.94487 0.50757 0.91333 0.0
H884 H 0.9671 0.59636 0.85025 0.0
H885 H 0.98811 0.55557 0.80908 0.0
C886 C 0.9869 0.48442 0.81167 0.0
C887 C 0.98421 0.44744 0.81568 0.0
C888 C 0.97786 0.50783 0.83677 0.0
C889 C 0.97427 0.43383 0.84601 0.0
C890 C 0.96526 0.45708 0.87134 0.0
C891 C 0.9545 0.51797 0.89065 0.0
C892 C 0.95418 0.55511 0.88492 0.0
C893 C 0.96617 0.4942 0.86665 0.0
C894 C 0.9673 0.56807 0.85561 0.0
C895 C 0.97908 0.54472 0.83184 0.0
H896 H 0.81771 0.71896 0.12989 0.0
H897 H 0.79115 0.66488 0.04015 0.0
H898 H 0.74329 0.64147 0.06578 0.0
H899 H 0.70789 0.63702 0.11242 0.0
H900 H 0.73311 0.68846 0.20357 0.0
H901 H 0.78207 0.71244 0.17851 0.0
C902 C 0.80143 0.70205 0.11604 0.0
C903 C 0.80831 0.6937 0.08313 0.0
C904 C 0.77356 0.68815 0.13108 0.0
C905 C 0.78687 0.67167 0.06556 0.0
C906 C 0.75928 0.6582 0.08016 0.0
C907 C 0.72438 0.65278 0.12721 0.0
C908 C 0.71685 0.66055 0.15996 0.0
C909 C 0.7524 0.6662 0.11281 0.0
C910 C 0.73815 0.68211 0.17822 0.0
C911 C 0.76623 0.69579 0.16392 0.0
H912 H 0.61621 0.49864 0.40923 0.0
H913 H 0.53632 0.43128 0.38208 0.0
H914 H 0.5144 0.47739 0.34409 0.0
H915 H 0.51994 0.53579 0.31624 0.0
H916 H 0.60153 0.60118 0.34247 0.0
H917 H 0.62027 0.55738 0.38381 0.0
C918 C 0.59366 0.49422 0.39546 0.0
C919 C 0.57791 0.46154 0.39859 0.0
C920 C 0.58147 0.52061 0.37352 0.0
C921 C 0.5491 0.45605 0.37995 0.0
C922 C 0.53649 0.48248 0.35833 0.0
C923 C 0.54151 0.54059 0.3314 0.0
C924 C 0.55942 0.5716 0.32634 0.0
C925 C 0.55271 0.51472 0.35458 0.0
C926 C 0.58745 0.57744 0.3459 0.0
C927 C 0.59823 0.55236 0.36946 0.0
H928 H 0.36873 0.24926 0.19386 0.0
H929 H 0.43355 0.33753 0.20509 0.0
H930 H 0.47677 0.29739 0.22644 0.0
H931 H 0.49803 0.23709 0.23696 0.0
H932 H 0.43501 0.14766 0.22555 0.0
H933 H 0.38911 0.18833 0.20935 0.0
C934 C 0.39226 0.2597 0.20116 0.0
C935 C 0.39783 0.29649 0.19766 0.0
C936 C 0.41738 0.23625 0.21313 0.0
C937 C 0.42833 0.30957 0.20778 0.0
C938 C 0.45323 0.28655 0.21976 0.0
C939 C 0.47415 0.22647 0.23119 0.0
C940 C 0.46995 0.18947 0.23189 0.0
C941 C 0.44826 0.24985 0.22181 0.0
C942 C 0.43881 0.17608 0.22498 0.0
C943 C 0.41268 0.19932 0.21559 0.0
H944 H 0.98747 0.255 0.8101 0.0
H945 H 0.90536 0.31161 0.76386 0.0
H946 H 0.86866 0.26475 0.78155 0.0
H947 H 0.85963 0.20937 0.81364 0.0
H948 H 0.94317 0.1529 0.85777 0.0
H949 H 0.97943 0.1981 0.83753 0.0
C950 C 0.96153 0.25716 0.80379 0.0
C951 C 0.94912 0.28706 0.78606 0.0
C952 C 0.94075 0.23016 0.81388 0.0
C953 C 0.91556 0.28895 0.77755 0.0
C954 C 0.89456 0.26219 0.78778 0.0
C955 C 0.88582 0.20666 0.81837 0.0
C956 C 0.89847 0.17795 0.83783 0.0
C957 C 0.90682 0.23286 0.8064 0.0
C958 C 0.93254 0.17504 0.84366 0.0
C959 C 0.95339 0.20084 0.83195 0.0
H960 H 0.03995 0.58851 0.10986 0.0
H961 H 0.10112 0.64769 0.04492 0.0
H962 H 0.05302 0.67976 0.02228 0.0
H963 H 0.99529 0.69764 0.02725 0.0
H964 H 0.9333 0.64016 0.0922 0.0
H965 H 0.97971 0.60016 0.1081 0.0
C966 C 0.04259 0.60805 0.0904 0.0
C967 C 0.07414 0.61601 0.07938 0.0
C968 C 1.0147 0.62667 0.07756 0.0
C969 C 0.07719 0.64098 0.05379 0.0
C970 C 0.0497 0.65949 0.04094 0.0
C971 C 0.99175 0.67548 0.04399 0.0
C972 C 0.96117 0.67159 0.05854 0.0
C973 C 0.01857 0.65341 0.05343 0.0
C974 C 0.95663 0.64318 0.08038 0.0
C975 C 0.98328 0.62073 0.0898 0.0
H976 H 0.59855 0.81087 0.38204 0.0
H977 H 0.67535 0.81112 0.31063 0.0
H978 H 0.64875 0.7635 0.28051 0.0
H979 H 0.60276 0.72263 0.27362 0.0
H980 H 0.5252 0.72482 0.3444 0.0
H981 H 0.55262 0.7712 0.37484 0.0
C982 C 0.6094 0.80083 0.35972 0.0
C983 C 0.63896 0.81479 0.34873 0.0
C984 C 0.59363 0.77401 0.34209 0.0
C985 C 0.6529 0.80067 0.32008 0.0
C986 C 0.63752 0.77362 0.30259 0.0
C987 C 0.59175 0.73336 0.2956 0.0
C988 C 0.56183 0.72014 0.30652 0.0
C989 C 0.60772 0.76023 0.31323 0.0
C990 C 0.54812 0.73436 0.33522 0.0
C991 C 0.56383 0.76092 0.3528 0.0
H992 H 0.563 0.29032 0.61775 0.0
H993 H 0.56944 0.34907 0.52695 0.0
H994 H 0.52131 0.38595 0.54163 0.0
H995 H 0.47282 0.3946 0.57672 0.0
H996 H 0.46712 0.33441 0.66719 0.0
H997 H 0.51964 0.30493 0.65634 0.0
C998 C 0.55436 0.31196 0.6017 0.0
C999 C 0.56946 0.31726 0.57146 0.0
C1000 C 0.52649 0.3322 0.60999 0.0
C1001 C 0.55822 0.34499 0.55056 0.0
C1002 C 0.53054 0.3657 0.55881 0.0
C1003 C 0.48347 0.37567 0.59443 0.0
C1004 C 0.46571 0.36613 0.62239 0.0
C1005 C 0.51374 0.35859 0.58792 0.0
C1006 C 0.47986 0.34153 0.64508 0.0
C1007 C 0.50996 0.32477 0.63898 0.0
H1008 H 0.15852 0.73504 0.69363 0.0
H1009 H 0.09535 0.64838 0.71686 0.0
H1010 H 0.05589 0.69005 0.74064 0.0
H1011 H 0.03694 0.75122 0.75028 0.0
H1012 H 0.09925 0.83859 0.72789 0.0
H1013 H 0.14188 0.7965 0.70914 0.0
C1014 C 0.13645 0.7252 0.7045 0.0
C1015 C 0.12969 0.68861 0.7029 0.0
C1016 C 0.11368 0.74944 0.71819 0.0
C1017 C 0.10085 0.67642 0.71702 0.0
C1018 C 0.07831 0.70022 0.73078 0.0
C1019 C 0.06005 0.76102 0.74168 0.0
C1020 C 0.06487 0.79786 0.74004 0.0
C1021 C 0.08408 0.7368 0.73071 0.0
C1022 C 0.095 0.81029 0.72929 0.0
C1023 C 0.11925 0.78623 0.7184 0.0
H1024 H 0.47618 0.83502 1.00556 0.0
H1025 H 0.44897 0.78863 0.91244 0.0
H1026 H 0.49515 0.81594 0.88646 0.0
H1027 H 0.54477 0.85056 0.89003 0.0
H1028 H 0.57429 0.89594 0.9827 0.0
H1029 H 0.5257 0.87226 1.00855 0.0
C1030 C 0.48021 0.83122 0.97954 0.0
C1031 C 0.45912 0.80943 0.96117 0.0
C1032 C 0.50738 0.84683 0.96452 0.0
C1033 C 0.46486 0.80483 0.92742 0.0
C1034 C 0.49133 0.82051 0.9124 0.0
C1035 C 0.54074 0.85519 0.91594 0.0
C1036 C 0.56348 0.8748 0.93434 0.0
C1037 C 0.51305 0.84105 0.93076 0.0
C1038 C 0.55722 0.88117 0.96775 0.0
C1039 C 0.52948 0.8674 0.98265 0.0
H1040 H 1.00794 0.09337 0.45037 0.0
H1041 H 0.93475 0.17569 0.4686 0.0
H1042 H 0.97737 0.21593 0.48559 0.0
H1043 H 0.03514 0.22993 0.49098 0.0
H1044 H 0.1097 0.1498 0.47198 0.0
H1045 H 0.06693 0.10657 0.45966 0.0
C1046 C 1.00129 0.12007 0.45815 0.0
C1047 C 0.96787 0.13126 0.45808 0.0
C1048 C 0.02621 0.1436 0.46755 0.0
C1049 C 0.95994 0.16589 0.46877 0.0
C1050 C 0.98441 0.18918 0.47825 0.0
C1051 C 0.04213 0.20289 0.48438 0.0
C1052 C 0.07555 0.19319 0.48198 0.0
C1053 C 0.01755 0.17857 0.47714 0.0
C1054 C 0.08416 0.15795 0.4739 0.0
C1055 C 0.05967 0.13334 0.46671 0.0
loop_
_geom_bond_atom_site_label_1
_geom_bond_atom_site_label_2
_geom_bond_distance
_geom_bond_site_symmetry_2
_ccdc_geom_bond_type
Ho0 C3 2.811 . S
Ho0 O20 2.322 . S
Ho0 O22 2.378 . S
Ho0 O23 2.524 . S
Ho0 O24 2.381 . S
Ho0 O25 2.669 . S
Ho0 O27 2.346 . S
Ho0 O31 2.305 . S
Ho1 C12 2.811 . S
Ho1 O21 2.346 . S
Ho1 O25 2.305 . S
Ho1 O26 2.322 . S
Ho1 O28 2.378 . S
Ho1 O29 2.524 . S
Ho1 O30 2.381 . S
Ho1 O31 2.669 . S
C2 O20 1.259 . S
C2 O21 1.268 . S
C3 Ho0 2.811 . S
C3 C4 1.488 . S
C3 O22 1.215 . S
C3 O23 1.289 . S
C4 C3 1.488 . S
C4 C5 1.348 . S
C4 C9 1.413 . S
C5 C4 1.348 . S
C5 C6 1.442 . S
C5 H32 0.930 . S
C6 C5 1.442 . S
C6 C7 1.381 . S
C6 H33 0.931 . S
C7 C6 1.381 . S
C7 C8 1.321 . S
C8 C7 1.321 . S
C8 C9 1.403 . S
C8 H34 0.934 . S
C9 C4 1.413 . S
C9 C8 1.403 . S
C9 H35 0.930 . S
C10 O24 1.275 . S
C10 O25 1.256 . S
C11 O26 1.259 . S
C11 O27 1.268 . S
C12 Ho1 2.811 . S
C12 C13 1.488 . S
C12 O28 1.215 . S
C12 O29 1.289 . S
C13 C12 1.488 . S
C13 C14 1.348 . S
C13 C18 1.413 . S
C14 C13 1.348 . S
C14 C15 1.442 . S
C14 H36 0.930 . S
C15 C14 1.442 . S
C15 C16 1.381 . S
C15 H37 0.931 . S
C16 C15 1.381 . S
C16 C17 1.321 . S
C17 C16 1.321 . S
C17 C18 1.403 . S
C17 H38 0.934 . S
C18 C13 1.413 . S
C18 C17 1.403 . S
C18 H39 0.930 . S
C19 O30 1.275 . S
C19 O31 1.256 . S
O20 Ho0 2.322 . S
O20 C2 1.259 . S
O21 Ho1 2.346 . S
O21 C2 1.268 . S
O22 Ho0 2.378 . S
O22 C3 1.215 . S
O23 Ho0 2.524 . S
O23 C3 1.289 . S
O24 Ho0 2.381 . S
O24 C10 1.275 . S
O25 Ho0 2.669 . S
O25 Ho1 2.305 . S
O25 C10 1.256 . S
O26 Ho1 2.322 . S
O26 C11 1.259 . S
O27 Ho0 2.346 . S
O27 C11 1.268 . S
O28 Ho1 2.378 . S
O28 C12 1.215 . S
O29 Ho1 2.524 . S
O29 C12 1.289 . S
O30 Ho1 2.381 . S
O30 C19 1.275 . S
O31 Ho0 2.305 . S
O31 Ho1 2.669 . S
O31 C19 1.256 . S
H32 C5 0.930 . S
H33 C6 0.931 . S
H34 C8 0.934 . S
H35 C9 0.930 . S
H36 C14 0.930 . S
H37 C15 0.931 . S
H38 C17 0.934 . S
H39 C18 0.930 . S
Ho40 C43 2.811 . S
Ho40 O60 2.322 1_655 S
Ho40 O62 2.378 . S
Ho40 O63 2.524 . S
Ho40 O64 2.381 1_655 S
Ho40 O65 2.669 1_655 S
Ho40 O67 2.346 . S
Ho40 O71 2.305 . S
Ho41 C52 2.811 . S
Ho41 O61 2.346 . S
Ho41 O65 2.305 . S
Ho41 O66 2.322 . S
Ho41 O68 2.378 . S
Ho41 O69 2.524 . S
Ho41 O70 2.381 1_455 S
Ho41 O71 2.669 1_455 S
C42 O60 1.259 . S
C42 O61 1.268 . S
C43 Ho40 2.811 . S
C43 C44 1.488 . S
C43 O62 1.215 . S
C43 O63 1.289 . S
C44 C43 1.488 . S
C44 C45 1.348 . S
C44 C49 1.413 . S
C45 C44 1.348 . S
C45 C46 1.442 . S
C45 H72 0.930 . S
C46 C45 1.442 . S
C46 C47 1.381 . S
C46 H73 0.931 . S
C47 C46 1.381 . S
C47 C48 1.321 . S
C48 C47 1.321 . S
C48 C49 1.403 . S
C48 H74 0.934 . S
C49 C44 1.413 . S
C49 C48 1.403 . S
C49 H75 0.930 . S
C50 O64 1.275 . S
C50 O65 1.256 . S
C51 O66 1.259 1_655 S
C51 O67 1.268 . S
C52 Ho41 2.811 . S
C52 C53 1.488 . S
C52 O68 1.215 . S
C52 O69 1.289 . S
C53 C52 1.488 . S
C53 C54 1.348 . S
C53 C58 1.413 . S
C54 C53 1.348 . S
C54 C55 1.442 . S
C54 H76 0.930 . S
C55 C54 1.442 . S
C55 C56 1.381 . S
C55 H77 0.931 . S
C56 C55 1.381 . S
C56 C57 1.321 . S
C57 C56 1.321 . S
C57 C58 1.403 . S
C57 H78 0.934 . S
C58 C53 1.413 . S
C58 C57 1.403 . S
C58 H79 0.930 . S
C59 O70 1.275 . S
C59 O71 1.256 . S
O60 Ho40 2.322 1_455 S
O60 C42 1.259 . S
O61 Ho41 2.346 . S
O61 C42 1.268 . S
O62 Ho40 2.378 . S
O62 C43 1.215 . S
O63 Ho40 2.524 . S
O63 C43 1.289 . S
O64 Ho40 2.381 1_455 S
O64 C50 1.275 . S
O65 Ho40 2.669 1_455 S
O65 Ho41 2.305 . S
O65 C50 1.256 . S
O66 Ho41 2.322 . S
O66 C51 1.259 1_455 S
O67 Ho40 2.346 . S
O67 C51 1.268 . S
O68 Ho41 2.378 . S
O68 C52 1.215 . S
O69 Ho41 2.524 . S
O69 C52 1.289 . S
O70 Ho41 2.381 1_655 S
O70 C59 1.275 . S
O71 Ho40 2.305 . S
O71 Ho41 2.669 1_655 S
O71 C59 1.256 . S
H72 C45 0.930 . S
H73 C46 0.931 . S
H74 C48 0.934 . S
H75 C49 0.930 . S
H76 C54 0.930 . S
H77 C55 0.931 . S
H78 C57 0.934 . S
H79 C58 0.930 . S
Ho80 C83 2.811 . S
Ho80 O100 2.322 1_554 S
Ho80 O102 2.378 . S
Ho80 O103 2.524 . S
Ho80 O104 2.381 1_554 S
Ho80 O105 2.669 1_554 S
Ho80 O107 2.346 . S
Ho80 O111 2.305 . S
Ho81 C92 2.811 . S
Ho81 O101 2.346 . S
Ho81 O105 2.305 . S
Ho81 O106 2.322 . S
Ho81 O108 2.378 . S
Ho81 O109 2.524 . S
Ho81 O110 2.358 1_556 S
Ho81 O111 2.669 1_556 S
C82 O100 1.259 . S
C82 O101 1.268 . S
C83 Ho80 2.811 . S
C83 C84 1.488 . S
C83 O102 1.215 . S
C83 O103 1.289 . S
C84 C83 1.488 . S
C84 C85 1.348 . S
C84 C89 1.413 . S
C85 C84 1.348 . S
C85 C86 1.442 . S
C85 H112 0.930 . S
C86 C85 1.442 . S
C86 C87 1.381 . S
C86 H113 0.931 . S
C87 C86 1.381 . S
C87 C88 1.321 . S
C88 C87 1.321 . S
C88 C89 1.403 . S
C88 H114 0.934 . S
C89 C84 1.413 . S
C89 C88 1.403 . S
C89 H115 0.930 . S
C90 O104 1.275 . S
C90 O105 1.256 . S
C91 O106 1.259 1_554 S
C91 O107 1.268 . S
C92 Ho81 2.811 . S
C92 C93 1.488 . S
C92 O108 1.215 . S
C92 O109 1.289 . S
C93 C92 1.488 . S
C93 C94 1.348 . S
C93 C98 1.413 . S
C94 C93 1.348 . S
C94 C95 1.442 . S
C94 H116 0.930 . S
C95 C94 1.442 . S
C95 C96 1.381 . S
C95 H117 0.931 . S
C96 C95 1.381 . S
C96 C97 1.321 . S
C97 C96 1.321 . S
C97 C98 1.403 . S
C97 H118 0.934 . S
C98 C93 1.413 . S
C98 C97 1.403 . S
C98 H119 0.930 . S
C99 O110 1.300 . S
C99 O111 1.256 . S
O100 Ho80 2.322 1_556 S
O100 C82 1.259 . S
O101 Ho81 2.346 . S
O101 C82 1.268 . S
O102 Ho80 2.378 . S
O102 C83 1.215 . S
O103 Ho80 2.524 . S
O103 C83 1.289 . S
O104 Ho80 2.381 1_556 S
O104 C90 1.275 . S
O105 Ho80 2.669 1_556 S
O105 Ho81 2.305 . S
O105 C90 1.256 . S
O106 Ho81 2.322 . S
O106 C91 1.259 1_556 S
O107 Ho80 2.346 . S
O107 C91 1.268 . S
O108 Ho81 2.378 . S
O108 C92 1.215 . S
O109 Ho81 2.524 . S
O109 C92 1.289 . S
O110 Ho81 2.358 1_554 S
O110 C99 1.300 . S
O111 Ho80 2.305 . S
O111 Ho81 2.669 1_554 S
O111 C99 1.256 . S
H112 C85 0.930 . S
H113 C86 0.931 . S
H114 C88 0.934 . S
H115 C89 0.930 . S
H116 C94 0.930 . S
H117 C95 0.931 . S
H118 C97 0.934 . S
H119 C98 0.930 . S
Ho120 C123 2.811 . S
Ho120 O140 2.322 . S
Ho120 O142 2.378 . S
Ho120 O143 2.524 . S
Ho120 O144 2.381 . S
Ho120 O145 2.669 . S
Ho120 O147 2.346 . S
Ho120 O151 2.305 . S
Ho121 C132 2.811 . S
Ho121 O141 2.346 . S
Ho121 O145 2.305 . S
Ho121 O146 2.322 . S
Ho121 O148 2.378 . S
Ho121 O149 2.524 . S
Ho121 O150 2.381 . S
Ho121 O151 2.669 . S
C122 O140 1.259 . S
C122 O141 1.268 . S
C123 Ho120 2.811 . S
C123 C124 1.488 . S
C123 O142 1.215 . S
C123 O143 1.289 . S
C124 C123 1.488 . S
C124 C125 1.348 . S
C124 C129 1.413 . S
C125 C124 1.348 . S
C125 C126 1.442 . S
C125 H152 0.930 . S
C126 C125 1.442 . S
C126 C127 1.381 . S
C126 H153 0.931 . S
C127 C126 1.381 . S
C127 C128 1.321 . S
C128 C127 1.321 . S
C128 C129 1.403 . S
C128 H154 0.934 . S
C129 C124 1.413 . S
C129 C128 1.403 . S
C129 H155 0.930 . S
C130 O144 1.275 . S
C130 O145 1.256 . S
C131 O146 1.259 . S
C131 O147 1.268 . S
C132 Ho121 2.811 . S
C132 C133 1.488 . S
C132 O148 1.215 . S
C132 O149 1.289 . S
C133 C132 1.488 . S
C133 C134 1.348 . S
C133 C138 1.413 . S
C134 C133 1.348 . S
C134 C135 1.442 . S
C134 H156 0.930 . S
C135 C134 1.442 . S
C135 C136 1.381 . S
C135 H157 0.931 . S
C136 C135 1.381 . S
C136 C137 1.321 . S
C137 C136 1.321 . S
C137 C138 1.403 . S
C137 H158 0.934 . S
C138 C133 1.413 . S
C138 C137 1.403 . S
C138 H159 0.930 . S
C139 O150 1.275 . S
C139 O151 1.256 . S
O140 Ho120 2.322 . S
O140 C122 1.259 . S
O141 Ho121 2.346 . S
O141 C122 1.268 . S
O142 Ho120 2.378 . S
O142 C123 1.215 . S
O143 Ho120 2.524 . S
O143 C123 1.289 . S
O144 Ho120 2.381 . S
O144 C130 1.275 . S
O145 Ho120 2.669 . S
O145 Ho121 2.305 . S
O145 C130 1.256 . S
O146 Ho121 2.322 . S
O146 C131 1.259 . S
O147 Ho120 2.346 . S
O147 C131 1.268 . S
O148 Ho121 2.378 . S
O148 C132 1.215 . S
O149 Ho121 2.524 . S
O149 C132 1.289 . S
O150 Ho121 2.381 . S
O150 C139 1.275 . S
O151 Ho120 2.305 . S
O151 Ho121 2.669 . S
O151 C139 1.256 . S
H152 C125 0.930 . S
H153 C126 0.931 . S
H154 C128 0.934 . S
H155 C129 0.930 . S
H156 C134 0.930 . S
H157 C135 0.931 . S
H158 C137 0.934 . S
H159 C138 0.930 . S
Ho160 C163 2.811 . S
Ho160 O180 2.322 . S
Ho160 O182 2.378 . S
Ho160 O183 2.524 . S
Ho160 O184 2.381 . S
Ho160 O185 2.669 . S
Ho160 O187 2.346 . S
Ho160 O191 2.305 . S
Ho161 C172 2.811 . S
Ho161 O181 2.346 . S
Ho161 O185 2.305 . S
Ho161 O186 2.322 . S
Ho161 O188 2.378 . S
Ho161 O189 2.524 . S
Ho161 O190 2.381 . S
Ho161 O191 2.669 . S
C162 O180 1.259 . S
C162 O181 1.268 . S
C163 Ho160 2.811 . S
C163 C164 1.488 . S
C163 O182 1.215 . S
C163 O183 1.289 . S
C164 C163 1.488 . S
C164 C165 1.348 . S
C164 C169 1.413 . S
C165 C164 1.348 . S
C165 C166 1.442 . S
C165 H192 0.930 . S
C166 C165 1.442 . S
C166 C167 1.381 . S
C166 H193 0.931 . S
C167 C166 1.381 . S
C167 C168 1.321 . S
C168 C167 1.321 . S
C168 C169 1.403 . S
C168 H194 0.934 . S
C169 C164 1.413 . S
C169 C168 1.403 . S
C169 H195 0.930 . S
C170 O184 1.275 . S
C170 O185 1.256 . S
C171 O186 1.259 . S
C171 O187 1.268 . S
C172 Ho161 2.811 . S
C172 C173 1.488 . S
C172 O188 1.215 . S
C172 O189 1.289 . S
C173 C172 1.488 . S
C173 C174 1.348 . S
C173 C178 1.413 . S
C174 C173 1.348 . S
C174 C175 1.442 . S
C174 H196 0.930 . S
C175 C174 1.442 . S
C175 C176 1.381 . S
C175 H197 0.931 . S
C176 C175 1.381 . S
C176 C177 1.321 . S
C177 C176 1.321 . S
C177 C178 1.403 . S
C177 H198 0.934 . S
C178 C173 1.413 . S
C178 C177 1.403 . S
C178 H199 0.930 . S
C179 O190 1.275 . S
C179 O191 1.256 . S
O180 Ho160 2.322 . S
O180 C162 1.259 . S
O181 Ho161 2.346 . S
O181 C162 1.268 . S
O182 Ho160 2.378 . S
O182 C163 1.215 . S
O183 Ho160 2.524 . S
O183 C163 1.289 . S
O184 Ho160 2.381 . S
O184 C170 1.275 . S
O185 Ho160 2.669 . S
O185 Ho161 2.305 . S
O185 C170 1.256 . S
O186 Ho161 2.322 . S
O186 C171 1.259 . S
O187 Ho160 2.346 . S
O187 C171 1.268 . S
O188 Ho161 2.378 . S
O188 C172 1.215 . S
O189 Ho161 2.524 . S
O189 C172 1.289 . S
O190 Ho161 2.381 . S
O190 C179 1.275 . S
O191 Ho160 2.305 . S
O191 Ho161 2.669 . S
O191 C179 1.256 . S
H192 C165 0.930 . S
H193 C166 0.931 . S
H194 C168 0.934 . S
H195 C169 0.930 . S
H196 C174 0.930 . S
H197 C175 0.931 . S
H198 C177 0.934 . S
H199 C178 0.930 . S
Ho200 C203 2.811 . S
Ho200 O220 2.322 . S
Ho200 O222 2.378 . S
Ho200 O223 2.524 . S
Ho200 O224 2.381 . S
Ho200 O225 2.669 . S
Ho200 O227 2.346 1_655 S
Ho200 O231 2.305 1_655 S
Ho201 C212 2.811 . S
Ho201 O221 2.346 1_455 S
Ho201 O225 2.305 1_455 S
Ho201 O226 2.322 . S
Ho201 O228 2.378 . S
Ho201 O229 2.524 . S
Ho201 O230 2.381 . S
Ho201 O231 2.669 . S
C202 O220 1.259 . S
C202 O221 1.268 . S
C203 Ho200 2.811 . S
C203 C204 1.488 . S
C203 O222 1.215 . S
C203 O223 1.289 . S
C204 C203 1.488 . S
C204 C205 1.348 . S
C204 C209 1.413 . S
C205 C204 1.348 . S
C205 C206 1.442 . S
C205 H232 0.930 . S
C206 C205 1.442 . S
C206 C207 1.381 . S
C206 H233 0.931 . S
C207 C206 1.381 . S
C207 C208 1.321 . S
C208 C207 1.321 . S
C208 C209 1.403 . S
C208 H234 0.934 . S
C209 C204 1.413 . S
C209 C208 1.403 . S
C209 H235 0.930 . S
C210 O224 1.275 . S
C210 O225 1.256 . S
C211 O226 1.259 . S
C211 O227 1.268 . S
C212 Ho201 2.811 . S
C212 C213 1.488 . S
C212 O228 1.215 . S
C212 O229 1.289 . S
C213 C212 1.488 . S
C213 C214 1.348 . S
C213 C218 1.413 . S
C214 C213 1.348 . S
C214 C215 1.442 . S
C214 H236 0.930 . S
C215 C214 1.442 . S
C215 C216 1.381 . S
C215 H237 0.931 . S
C216 C215 1.381 . S
C216 C217 1.321 . S
C217 C216 1.321 . S
C217 C218 1.403 . S
C217 H238 0.934 . S
C218 C213 1.413 . S
C218 C217 1.403 . S
C218 H239 0.930 . S
C219 O230 1.275 . S
C219 O231 1.256 . S
O220 Ho200 2.322 . S
O220 C202 1.259 . S
O221 Ho201 2.346 1_655 S
O221 C202 1.268 . S
O222 Ho200 2.378 . S
O222 C203 1.215 . S
O223 Ho200 2.524 . S
O223 C203 1.289 . S
O224 Ho200 2.381 . S
O224 C210 1.275 . S
O225 Ho200 2.669 . S
O225 Ho201 2.305 1_655 S
O225 C210 1.256 . S
O226 Ho201 2.322 . S
O226 C211 1.259 . S
O227 Ho200 2.346 1_455 S
O227 C211 1.268 . S
O228 Ho201 2.378 . S
O228 C212 1.215 . S
O229 Ho201 2.524 . S
O229 C212 1.289 . S
O230 Ho201 2.381 . S
O230 C219 1.275 . S
O231 Ho200 2.305 1_455 S
O231 Ho201 2.669 . S
O231 C219 1.256 . S
H232 C205 0.930 . S
H233 C206 0.931 . S
H234 C208 0.934 . S
H235 C209 0.930 . S
H236 C214 0.930 . S
H237 C215 0.931 . S
H238 C217 0.934 . S
H239 C218 0.930 . S
Ho240 C243 2.811 . S
Ho240 O260 2.322 . S
Ho240 O262 2.378 . S
Ho240 O263 2.524 . S
Ho240 O264 2.381 . S
Ho240 O265 2.669 . S
Ho240 O267 2.346 1_554 S
Ho240 O271 2.305 1_554 S
Ho241 C252 2.811 . S
Ho241 O261 2.346 1_556 S
Ho241 O265 2.305 1_556 S
Ho241 O266 2.322 . S
Ho241 O268 2.378 . S
Ho241 O269 2.524 . S
Ho241 O270 2.381 . S
Ho241 O271 2.669 . S
C242 O260 1.259 . S
C242 O261 1.268 . S
C243 Ho240 2.811 . S
C243 C244 1.488 . S
C243 O262 1.215 . S
C243 O263 1.289 . S
C244 C243 1.488 . S
C244 C245 1.348 . S
C244 C249 1.413 . S
C245 C244 1.348 . S
C245 C246 1.442 . S
C245 H272 0.930 . S
C246 C245 1.442 . S
C246 C247 1.381 . S
C246 H273 0.931 . S
C247 C246 1.381 . S
C247 C248 1.321 . S
C248 C247 1.321 . S
C248 C249 1.403 . S
C248 H274 0.934 . S
C249 C244 1.413 . S
C249 C248 1.403 . S
C249 H275 0.930 . S
C250 O264 1.275 . S
C250 O265 1.256 . S
C251 O266 1.259 . S
C251 O267 1.268 . S
C252 Ho241 2.811 . S
C252 C253 1.488 . S
C252 O268 1.215 . S
C252 O269 1.289 . S
C253 C252 1.488 . S
C253 C254 1.348 . S
C253 C258 1.413 . S
C254 C253 1.348 . S
C254 C255 1.442 . S
C254 H276 0.930 . S
C255 C254 1.442 . S
C255 C256 1.381 . S
C255 H277 0.931 . S
C256 C255 1.381 . S
C256 C257 1.321 . S
C257 C256 1.321 . S
C257 C258 1.403 . S
C257 H278 0.934 . S
C258 C253 1.413 . S
C258 C257 1.403 . S
C258 H279 0.930 . S
C259 O270 1.275 . S
C259 O271 1.256 . S
O260 Ho240 2.322 . S
O260 C242 1.259 . S
O261 Ho241 2.346 1_554 S
O261 C242 1.268 . S
O262 Ho240 2.378 . S
O262 C243 1.215 . S
O263 Ho240 2.524 . S
O263 C243 1.289 . S
O264 Ho240 2.381 . S
O264 C250 1.275 . S
O265 Ho240 2.669 . S
O265 Ho241 2.305 1_554 S
O265 C250 1.256 . S
O266 Ho241 2.322 . S
O266 C251 1.259 . S
O267 Ho240 2.346 1_556 S
O267 C251 1.268 . S
O268 Ho241 2.378 . S
O268 C252 1.215 . S
O269 Ho241 2.524 . S
O269 C252 1.289 . S
O270 Ho241 2.381 . S
O270 C259 1.275 . S
O271 Ho240 2.305 1_556 S
O271 Ho241 2.669 . S
O271 C259 1.256 . S
H272 C245 0.930 . S
H273 C246 0.931 . S
H274 C248 0.934 . S
H275 C249 0.930 . S
H276 C254 0.930 . S
H277 C255 0.931 . S
H278 C257 0.934 . S
H279 C258 0.930 . S
Ho280 C283 2.811 . S
Ho280 O300 2.322 . S
Ho280 O302 2.378 . S
Ho280 O303 2.524 . S
Ho280 O304 2.381 . S
Ho280 O305 2.669 . S
Ho280 O307 2.346 . S
Ho280 O311 2.305 . S
Ho281 C292 2.811 . S
Ho281 O301 2.346 . S
Ho281 O305 2.305 . S
Ho281 O306 2.322 . S
Ho281 O308 2.378 . S
Ho281 O309 2.524 . S
Ho281 O310 2.381 . S
Ho281 O311 2.669 . S
C282 O300 1.259 . S
C282 O301 1.268 . S
C283 Ho280 2.811 . S
C283 C284 1.488 . S
C283 O302 1.215 . S
C283 O303 1.289 . S
C284 C283 1.488 . S
C284 C285 1.348 . S
C284 C289 1.413 . S
C285 C284 1.348 . S
C285 C286 1.442 . S
C285 H312 0.930 . S
C286 C285 1.442 . S
C286 C287 1.381 . S
C286 H313 0.931 . S
C287 C286 1.381 . S
C287 C288 1.321 . S
C288 C287 1.321 . S
C288 C289 1.403 . S
C288 H314 0.934 . S
C289 C284 1.413 . S
C289 C288 1.403 . S
C289 H315 0.930 . S
C290 O304 1.275 . S
C290 O305 1.256 . S
C291 O306 1.259 . S
C291 O307 1.268 . S
C292 Ho281 2.811 . S
C292 C293 1.488 . S
C292 O308 1.215 . S
C292 O309 1.289 . S
C293 C292 1.488 . S
C293 C294 1.348 . S
C293 C298 1.413 . S
C294 C293 1.348 . S
C294 C295 1.442 . S
C294 H316 0.930 . S
C295 C294 1.442 . S
C295 C296 1.381 . S
C295 H317 0.931 . S
C296 C295 1.381 . S
C296 C297 1.321 . S
C297 C296 1.321 . S
C297 C298 1.403 . S
C297 H318 0.934 . S
C298 C293 1.413 . S
C298 C297 1.403 . S
C298 H319 0.930 . S
C299 O310 1.275 . S
C299 O311 1.256 . S
O300 Ho280 2.322 . S
O300 C282 1.259 . S
O301 Ho281 2.346 . S
O301 C282 1.268 . S
O302 Ho280 2.378 . S
O302 C283 1.215 . S
O303 Ho280 2.524 . S
O303 C283 1.289 . S
O304 Ho280 2.381 . S
O304 C290 1.275 . S
O305 Ho280 2.669 . S
O305 Ho281 2.305 . S
O305 C290 1.256 . S
O306 Ho281 2.322 . S
O306 C291 1.259 . S
O307 Ho280 2.346 . S
O307 C291 1.268 . S
O308 Ho281 2.378 . S
O308 C292 1.215 . S
O309 Ho281 2.524 . S
O309 C292 1.289 . S
O310 Ho281 2.381 . S
O310 C299 1.275 . S
O311 Ho280 2.305 . S
O311 Ho281 2.669 . S
O311 C299 1.256 . S
H312 C285 0.930 . S
H313 C286 0.931 . S
H314 C288 0.934 . S
H315 C289 0.930 . S
H316 C294 0.930 . S
H317 C295 0.931 . S
H318 C297 0.934 . S
H319 C298 0.930 . S
Ho320 C323 2.811 . S
Ho320 O340 2.322 . S
Ho320 O342 2.378 . S
Ho320 O343 2.524 . S
Ho320 O344 2.381 . S
Ho320 O345 2.669 . S
Ho320 O347 2.346 . S
Ho320 O351 2.305 . S
Ho321 C332 2.811 . S
Ho321 O341 2.346 . S
Ho321 O345 2.305 . S
Ho321 O346 2.322 . S
Ho321 O348 2.378 . S
Ho321 O349 2.524 . S
Ho321 O350 2.381 . S
Ho321 O351 2.669 . S
C322 O340 1.259 . S
C322 O341 1.268 . S
C323 Ho320 2.811 . S
C323 C324 1.488 . S
C323 O342 1.215 . S
C323 O343 1.289 . S
C324 C323 1.488 . S
C324 C325 1.348 . S
C324 C329 1.413 . S
C325 C324 1.348 . S
C325 C326 1.442 . S
C325 H352 0.930 . S
C326 C325 1.442 . S
C326 C327 1.381 . S
C326 H353 0.931 . S
C327 C326 1.381 . S
C327 C328 1.321 . S
C328 C327 1.321 . S
C328 C329 1.403 . S
C328 H354 0.934 . S
C329 C324 1.413 . S
C329 C328 1.403 . S
C329 H355 0.930 . S
C330 O344 1.275 . S
C330 O345 1.256 . S
C331 O346 1.259 . S
C331 O347 1.268 . S
C332 Ho321 2.811 . S
C332 C333 1.488 . S
C332 O348 1.215 . S
C332 O349 1.289 . S
C333 C332 1.488 . S
C333 C334 1.348 . S
C333 C338 1.413 . S
C334 C333 1.348 . S
C334 C335 1.442 . S
C334 H356 0.930 . S
C335 C334 1.442 . S
C335 C336 1.381 . S
C335 H357 0.931 . S
C336 C335 1.381 . S
C336 C337 1.321 . S
C337 C336 1.321 . S
C337 C338 1.403 . S
C337 H358 0.934 . S
C338 C333 1.413 . S
C338 C337 1.403 . S
C338 H359 0.930 . S
C339 O350 1.275 . S
C339 O351 1.256 . S
O340 Ho320 2.322 . S
O340 C322 1.259 . S
O341 Ho321 2.346 . S
O341 C322 1.268 . S
O342 Ho320 2.378 . S
O342 C323 1.215 . S
O343 Ho320 2.524 . S
O343 C323 1.289 . S
O344 Ho320 2.381 . S
O344 C330 1.275 . S
O345 Ho320 2.669 . S
O345 Ho321 2.305 . S
O345 C330 1.256 . S
O346 Ho321 2.322 . S
O346 C331 1.259 . S
O347 Ho320 2.346 . S
O347 C331 1.268 . S
O348 Ho321 2.378 . S
O348 C332 1.215 . S
O349 Ho321 2.524 . S
O349 C332 1.289 . S
O350 Ho321 2.381 . S
O350 C339 1.275 . S
O351 Ho320 2.305 . S
O351 Ho321 2.669 . S
O351 C339 1.256 . S
H352 C325 0.930 . S
H353 C326 0.931 . S
H354 C328 0.934 . S
H355 C329 0.930 . S
H356 C334 0.930 . S
H357 C335 0.931 . S
H358 C337 0.934 . S
H359 C338 0.930 . S
Ho360 C363 2.811 . S
Ho360 O380 2.322 1_565 S
Ho360 O382 2.378 . S
Ho360 O383 2.524 . S
Ho360 O384 2.381 1_565 S
Ho360 O385 2.669 1_565 S
Ho360 O387 2.346 . S
Ho360 O391 2.305 . S
Ho361 C372 2.811 . S
Ho361 O381 2.346 . S
Ho361 O385 2.305 . S
Ho361 O386 2.322 1_545 S
Ho361 O388 2.378 . S
Ho361 O389 2.524 . S
Ho361 O390 2.381 1_545 S
Ho361 O391 2.669 1_545 S
C362 O380 1.259 . S
C362 O381 1.268 . S
C363 Ho360 2.811 . S
C363 C364 1.488 . S
C363 O382 1.215 . S
C363 O383 1.289 . S
C364 C363 1.488 . S
C364 C365 1.348 . S
C364 C369 1.413 . S
C365 C364 1.348 . S
C365 C366 1.442 . S
C365 H392 0.930 . S
C366 C365 1.442 . S
C366 C367 1.381 . S
C366 H393 0.931 . S
C367 C366 1.381 . S
C367 C368 1.321 . S
C368 C367 1.321 . S
C368 C369 1.403 . S
C368 H394 0.934 . S
C369 C364 1.413 . S
C369 C368 1.403 . S
C369 H395 0.930 . S
C370 O384 1.275 . S
C370 O385 1.256 . S
C371 O386 1.259 . S
C371 O387 1.268 . S
C372 Ho361 2.811 . S
C372 C373 1.488 . S
C372 O388 1.215 . S
C372 O389 1.289 . S
C373 C372 1.488 . S
C373 C374 1.348 . S
C373 C378 1.413 . S
C374 C373 1.348 . S
C374 C375 1.442 . S
C374 H396 0.930 . S
C375 C374 1.442 . S
C375 C376 1.381 . S
C375 H397 0.931 . S
C376 C375 1.381 . S
C376 C377 1.321 . S
C377 C376 1.321 . S
C377 C378 1.403 . S
C377 H398 0.934 . S
C378 C373 1.413 . S
C378 C377 1.403 . S
C378 H399 0.930 . S
C379 O390 1.275 . S
C379 O391 1.256 . S
O380 Ho360 2.322 1_545 S
O380 C362 1.259 . S
O381 Ho361 2.346 . S
O381 C362 1.268 . S
O382 Ho360 2.378 . S
O382 C363 1.215 . S
O383 Ho360 2.524 . S
O383 C363 1.289 . S
O384 Ho360 2.381 1_545 S
O384 C370 1.275 . S
O385 Ho360 2.669 1_545 S
O385 Ho361 2.305 . S
O385 C370 1.256 . S
O386 Ho361 2.322 1_565 S
O386 C371 1.259 . S
O387 Ho360 2.346 . S
O387 C371 1.268 . S
O388 Ho361 2.378 . S
O388 C372 1.215 . S
O389 Ho361 2.524 . S
O389 C372 1.289 . S
O390 Ho361 2.381 1_565 S
O390 C379 1.275 . S
O391 Ho360 2.305 . S
O391 Ho361 2.669 1_565 S
O391 C379 1.256 . S
H392 C365 0.930 . S
H393 C366 0.931 . S
H394 C368 0.934 . S
H395 C369 0.930 . S
H396 C374 0.930 . S
H397 C375 0.931 . S
H398 C377 0.934 . S
H399 C378 0.930 . S
Ho400 C403 2.811 . S
Ho400 O420 2.322 . S
Ho400 O422 2.378 . S
Ho400 O423 2.524 . S
Ho400 O424 2.381 . S
Ho400 O425 2.669 . S
Ho400 O427 2.346 1_565 S
Ho400 O431 2.305 1_565 S
Ho401 C412 2.811 . S
Ho401 O421 2.346 1_545 S
Ho401 O425 2.305 1_545 S
Ho401 O426 2.322 . S
Ho401 O428 2.378 . S
Ho401 O429 2.524 . S
Ho401 O430 2.381 . S
Ho401 O431 2.669 . S
C402 O420 1.259 . S
C402 O421 1.268 . S
C403 Ho400 2.811 . S
C403 C404 1.488 . S
C403 O422 1.215 . S
C403 O423 1.289 . S
C404 C403 1.488 . S
C404 C405 1.348 . S
C404 C409 1.413 . S
C405 C404 1.348 . S
C405 C406 1.442 . S
C405 H432 0.930 . S
C406 C405 1.442 . S
C406 C407 1.381 . S
C406 H433 0.931 . S
C407 C406 1.381 . S
C407 C408 1.321 . S
C408 C407 1.321 . S
C408 C409 1.403 . S
C408 H434 0.934 . S
C409 C404 1.413 . S
C409 C408 1.403 . S
C409 H435 0.930 . S
C410 O424 1.275 . S
C410 O425 1.256 . S
C411 O426 1.259 . S
C411 O427 1.268 . S
C412 Ho401 2.811 . S
C412 C413 1.488 . S
C412 O428 1.215 . S
C412 O429 1.289 . S
C413 C412 1.488 . S
C413 C414 1.348 . S
C413 C418 1.413 . S
C414 C413 1.348 . S
C414 C415 1.442 . S
C414 H436 0.930 . S
C415 C414 1.442 . S
C415 C416 1.381 . S
C415 H437 0.931 . S
C416 C415 1.381 . S
C416 C417 1.321 . S
C417 C416 1.321 . S
C417 C418 1.403 . S
C417 H438 0.934 . S
C418 C413 1.413 . S
C418 C417 1.403 . S
C418 H439 0.930 . S
C419 O430 1.275 . S
C419 O431 1.256 . S
O420 Ho400 2.322 . S
O420 C402 1.259 . S
O421 Ho401 2.346 1_565 S
O421 C402 1.268 . S
O422 Ho400 2.378 . S
O422 C403 1.215 . S
O423 Ho400 2.524 . S
O423 C403 1.289 . S
O424 Ho400 2.381 . S
O424 C410 1.275 . S
O425 Ho400 2.669 . S
O425 Ho401 2.305 1_565 S
O425 C410 1.256 . S
O426 Ho401 2.322 . S
O426 C411 1.259 . S
O427 Ho400 2.346 1_545 S
O427 C411 1.268 . S
O428 Ho401 2.378 . S
O428 C412 1.215 . S
O429 Ho401 2.524 . S
O429 C412 1.289 . S
O430 Ho401 2.381 . S
O430 C419 1.275 . S
O431 Ho400 2.305 1_545 S
O431 Ho401 2.669 . S
O431 C419 1.256 . S
H432 C405 0.930 . S
H433 C406 0.931 . S
H434 C408 0.934 . S
H435 C409 0.930 . S
H436 C414 0.930 . S
H437 C415 0.931 . S
H438 C417 0.934 . S
H439 C418 0.930 . S
Ho440 C443 2.811 . S
Ho440 O460 2.322 . S
Ho440 O462 2.378 . S
Ho440 O463 2.524 . S
Ho440 O464 2.381 . S
Ho440 O465 2.669 . S
Ho440 O467 2.346 . S
Ho440 O471 2.305 . S
Ho441 C452 2.811 . S
Ho441 O461 2.346 . S
Ho441 O465 2.305 . S
Ho441 O466 2.322 . S
Ho441 O468 2.378 . S
Ho441 O469 2.524 . S
Ho441 O470 2.381 . S
Ho441 O471 2.669 . S
C442 O460 1.259 . S
C442 O461 1.268 . S
C443 Ho440 2.811 . S
C443 C444 1.488 . S
C443 O462 1.215 . S
C443 O463 1.289 . S
C444 C443 1.488 . S
C444 C445 1.348 . S
C444 C449 1.413 . S
C445 C444 1.348 . S
C445 C446 1.442 . S
C445 H472 0.930 . S
C446 C445 1.442 . S
C446 C447 1.381 . S
C446 H473 0.931 . S
C447 C446 1.381 . S
C447 C448 1.321 . S
C448 C447 1.321 . S
C448 C449 1.403 . S
C448 H474 0.934 . S
C449 C444 1.413 . S
C449 C448 1.403 . S
C449 H475 0.930 . S
C450 O464 1.275 . S
C450 O465 1.256 . S
C451 O466 1.259 . S
C451 O467 1.268 . S
C452 Ho441 2.811 . S
C452 C453 1.488 . S
C452 O468 1.215 . S
C452 O469 1.289 . S
C453 C452 1.488 . S
C453 C454 1.348 . S
C453 C458 1.413 . S
C454 C453 1.348 . S
C454 C455 1.442 . S
C454 H476 0.930 . S
C455 C454 1.442 . S
C455 C456 1.381 . S
C455 H477 0.931 . S
C456 C455 1.381 . S
C456 C457 1.321 . S
C457 C456 1.321 . S
C457 C458 1.403 . S
C457 H478 0.934 . S
C458 C453 1.413 . S
C458 C457 1.403 . S
C458 H479 0.930 . S
C459 O470 1.275 . S
C459 O471 1.256 . S
O460 Ho440 2.322 . S
O460 C442 1.259 . S
O461 Ho441 2.346 . S
O461 C442 1.268 . S
O462 Ho440 2.378 . S
O462 C443 1.215 . S
O463 Ho440 2.524 . S
O463 C443 1.289 . S
O464 Ho440 2.381 . S
O464 C450 1.275 . S
O465 Ho440 2.669 . S
O465 Ho441 2.305 . S
O465 C450 1.256 . S
O466 Ho441 2.322 . S
O466 C451 1.259 . S
O467 Ho440 2.346 . S
O467 C451 1.268 . S
O468 Ho441 2.378 . S
O468 C452 1.215 . S
O469 Ho441 2.524 . S
O469 C452 1.289 . S
O470 Ho441 2.381 . S
O470 C459 1.275 . S
O471 Ho440 2.305 . S
O471 Ho441 2.669 . S
O471 C459 1.256 . S
H472 C445 0.930 . S
H473 C446 0.931 . S
H474 C448 0.934 . S
H475 C449 0.930 . S
H476 C454 0.930 . S
H477 C455 0.931 . S
H478 C457 0.934 . S
H479 C458 0.930 . S
H480 C486 0.930 . S
H481 C489 0.930 . S
H482 C490 0.930 . S
H483 C491 0.930 . S
H484 C494 0.930 . S
H485 C495 0.930 . S
C486 H480 0.930 . S
C486 C487 1.355 . S
C486 C488 1.415 . S
C487 C486 1.355 . S
C487 C489 1.419 . S
C488 C486 1.415 . S
C488 C493 1.425 . S
C488 C495 1.409 . S
C489 H481 0.930 . S
C489 C487 1.419 . S
C489 C490 1.362 . S
C490 H482 0.930 . S
C490 C489 1.362 . S
C490 C493 1.409 . S
C491 H483 0.930 . S
C491 C492 1.355 . S
C491 C493 1.415 . S
C492 C491 1.355 . S
C492 C494 1.419 . S
C493 C488 1.425 . S
C493 C490 1.409 . S
C493 C491 1.415 . S
C494 H484 0.930 . S
C494 C492 1.419 . S
C494 C495 1.362 . S
C495 H485 0.930 . S
C495 C488 1.409 . S
C495 C494 1.362 . S
H496 C502 0.930 . S
H497 C505 0.930 1_545 S
H498 C506 0.930 1_545 S
H499 C507 0.930 . S
H500 C510 0.930 . S
H501 C511 0.930 . S
C502 H496 0.930 . S
C502 C503 1.355 . S
C502 C504 1.415 . S
C503 C502 1.355 . S
C503 C505 1.419 . S
C504 C502 1.415 . S
C504 C509 1.425 . S
C504 C511 1.409 . S
C505 H497 0.930 1_565 S
C505 C503 1.419 . S
C505 C506 1.362 . S
C506 H498 0.930 1_565 S
C506 C505 1.362 . S
C506 C509 1.409 . S
C507 H499 0.930 . S
C507 C508 1.355 . S
C507 C509 1.415 . S
C508 C507 1.355 . S
C508 C510 1.419 . S
C509 C504 1.425 . S
C509 C506 1.409 . S
C509 C507 1.415 . S
C510 H500 0.930 . S
C510 C508 1.419 . S
C510 C511 1.362 . S
C511 H501 0.930 . S
C511 C504 1.409 . S
C511 C510 1.362 . S
H512 C518 0.930 . S
H513 C521 0.930 . S
H514 C522 0.930 . S
H515 C523 0.930 . S
H516 C526 0.930 . S
H517 C527 0.930 . S
C518 H512 0.930 . S
C518 C519 1.355 . S
C518 C520 1.415 . S
C519 C518 1.355 . S
C519 C521 1.419 . S
C520 C518 1.415 . S
C520 C525 1.425 . S
C520 C527 1.409 . S
C521 H513 0.930 . S
C521 C519 1.419 . S
C521 C522 1.362 . S
C522 H514 0.930 . S
C522 C521 1.362 . S
C522 C525 1.409 . S
C523 H515 0.930 . S
C523 C524 1.355 . S
C523 C525 1.415 . S
C524 C523 1.355 . S
C524 C526 1.419 . S
C525 C520 1.425 . S
C525 C522 1.409 . S
C525 C523 1.415 . S
C526 H516 0.930 . S
C526 C524 1.419 . S
C526 C527 1.362 . S
C527 H517 0.930 . S
C527 C520 1.409 . S
C527 C526 1.362 . S
H528 C534 0.930 . S
H529 C537 0.930 . S
H530 C538 0.930 1_565 S
H531 C539 0.930 . S
H532 C542 0.930 . S
H533 C543 0.930 . S
C534 H528 0.930 . S
C534 C535 1.355 . S
C534 C536 1.415 . S
C535 C534 1.355 . S
C535 C537 1.419 . S
C536 C534 1.415 . S
C536 C541 1.425 . S
C536 C543 1.409 . S
C537 H529 0.930 . S
C537 C535 1.419 . S
C537 C538 1.362 . S
C538 H530 0.930 1_545 S
C538 C537 1.362 . S
C538 C541 1.409 . S
C539 H531 0.930 . S
C539 C540 1.355 . S
C539 C541 1.415 . S
C540 C539 1.355 . S
C540 C542 1.419 . S
C541 C536 1.425 . S
C541 C538 1.409 . S
C541 C539 1.415 . S
C542 H532 0.930 . S
C542 C540 1.419 . S
C542 C543 1.362 . S
C543 H533 0.930 . S
C543 C536 1.409 . S
C543 C542 1.362 . S
H544 C550 0.930 . S
H545 C553 0.930 . S
H546 C554 0.930 . S
H547 C555 0.930 . S
H548 C558 0.930 . S
H549 C559 0.930 . S
C550 H544 0.930 . S
C550 C551 1.355 . S
C550 C552 1.415 . S
C551 C550 1.355 . S
C551 C553 1.419 . S
C552 C550 1.415 . S
C552 C557 1.425 . S
C552 C559 1.409 . S
C553 H545 0.930 . S
C553 C551 1.419 . S
C553 C554 1.362 . S
C554 H546 0.930 . S
C554 C553 1.362 . S
C554 C557 1.409 . S
C555 H547 0.930 . S
C555 C556 1.355 . S
C555 C557 1.415 . S
C556 C555 1.355 . S
C556 C558 1.419 . S
C557 C552 1.425 . S
C557 C554 1.409 . S
C557 C555 1.415 . S
C558 H548 0.930 . S
C558 C556 1.419 . S
C558 C559 1.362 . S
C559 H549 0.930 . S
C559 C552 1.409 . S
C559 C558 1.362 . S
H560 C566 0.930 . S
H561 C569 0.930 . S
H562 C570 0.930 . S
H563 C571 0.930 . S
H564 C574 0.930 . S
H565 C575 0.930 . S
C566 H560 0.930 . S
C566 C567 1.355 . S
C566 C568 1.415 . S
C567 C566 1.355 . S
C567 C569 1.419 . S
C568 C566 1.415 . S
C568 C573 1.425 . S
C568 C575 1.409 . S
C569 H561 0.930 . S
C569 C567 1.419 . S
C569 C570 1.362 . S
C570 H562 0.930 . S
C570 C569 1.362 . S
C570 C573 1.409 . S
C571 H563 0.930 . S
C571 C572 1.355 . S
C571 C573 1.415 . S
C572 C571 1.355 . S
C572 C574 1.419 . S
C573 C568 1.425 . S
C573 C570 1.409 . S
C573 C571 1.415 . S
C574 H564 0.930 . S
C574 C572 1.419 . S
C574 C575 1.362 . S
C575 H565 0.930 . S
C575 C568 1.409 . S
C575 C574 1.362 . S
H576 C582 0.930 . S
H577 C585 0.930 . S
H578 C586 0.930 . S
H579 C587 0.930 . S
H580 C590 0.930 1_554 S
H581 C591 0.947 . S
C582 H576 0.930 . S
C582 C583 1.355 . S
C582 C584 1.415 . S
C583 C582 1.355 . S
C583 C585 1.419 . S
C584 C582 1.415 . S
C584 C589 1.425 . S
C584 C591 1.409 . S
C585 H577 0.930 . S
C585 C583 1.419 . S
C585 C586 1.362 . S
C586 H578 0.930 . S
C586 C585 1.362 . S
C586 C589 1.409 . S
C587 H579 0.930 . S
C587 C588 1.355 . S
C587 C589 1.415 . S
C588 C587 1.355 . S
C588 C590 1.419 . S
C589 C584 1.425 . S
C589 C586 1.409 . S
C589 C587 1.415 . S
C590 H580 0.930 1_556 S
C590 C588 1.419 . S
C590 C591 1.362 . S
C591 H581 0.947 . S
C591 C584 1.409 . S
C591 C590 1.362 . S
H592 C598 0.930 . S
H593 C601 0.930 . S
H594 C602 0.930 . S
H595 C603 0.930 . S
H596 C606 0.930 . S
H597 C607 0.930 . S
C598 H592 0.930 . S
C598 C599 1.355 . S
C598 C600 1.415 . S
C599 C598 1.355 . S
C599 C601 1.419 . S
C600 C598 1.415 . S
C600 C605 1.425 . S
C600 C607 1.409 . S
C601 H593 0.930 . S
C601 C599 1.419 . S
C601 C602 1.362 . S
C602 H594 0.930 . S
C602 C601 1.362 . S
C602 C605 1.409 . S
C603 H595 0.930 . S
C603 C604 1.355 . S
C603 C605 1.415 . S
C604 C603 1.355 . S
C604 C606 1.419 . S
C605 C600 1.425 . S
C605 C602 1.409 . S
C605 C603 1.415 . S
C606 H596 0.930 . S
C606 C604 1.419 . S
C606 C607 1.362 . S
C607 H597 0.930 . S
C607 C600 1.409 . S
C607 C606 1.362 . S
H608 C614 0.930 . S
H609 C617 0.930 . S
H610 C618 0.930 . S
H611 C619 0.930 . S
H612 C622 0.930 . S
H613 C623 0.930 . S
C614 H608 0.930 . S
C614 C615 1.355 . S
C614 C616 1.415 . S
C615 C614 1.355 . S
C615 C617 1.419 . S
C616 C614 1.415 . S
C616 C621 1.425 . S
C616 C623 1.409 . S
C617 H609 0.930 . S
C617 C615 1.419 . S
C617 C618 1.362 . S
C618 H610 0.930 . S
C618 C617 1.362 . S
C618 C621 1.409 . S
C619 H611 0.930 . S
C619 C620 1.355 . S
C619 C621 1.415 . S
C620 C619 1.355 . S
C620 C622 1.419 . S
C621 C616 1.425 . S
C621 C618 1.409 . S
C621 C619 1.415 . S
C622 H612 0.930 . S
C622 C620 1.419 . S
C622 C623 1.362 . S
C623 H613 0.930 . S
C623 C616 1.409 . S
C623 C622 1.362 . S
H624 C630 0.930 . S
H625 C633 0.930 . S
H626 C634 0.930 . S
H627 C635 0.930 . S
H628 C638 0.930 . S
H629 C639 0.930 . S
C630 H624 0.930 . S
C630 C631 1.355 . S
C630 C632 1.415 . S
C631 C630 1.355 . S
C631 C633 1.419 . S
C632 C630 1.415 . S
C632 C637 1.425 . S
C632 C639 1.409 . S
C633 H625 0.930 . S
C633 C631 1.419 . S
C633 C634 1.362 . S
C634 H626 0.930 . S
C634 C633 1.362 . S
C634 C637 1.409 . S
C635 H627 0.930 . S
C635 C636 1.355 . S
C635 C637 1.415 . S
C636 C635 1.355 . S
C636 C638 1.419 . S
C637 C632 1.425 . S
C637 C634 1.409 . S
C637 C635 1.415 . S
C638 H628 0.930 . S
C638 C636 1.419 . S
C638 C639 1.362 . S
C639 H629 0.930 . S
C639 C632 1.409 . S
C639 C638 1.362 . S
H640 C646 0.930 . S
H641 C649 0.930 . S
H642 C650 0.930 . S
H643 C651 0.930 . S
H644 C654 0.930 . S
H645 C655 0.930 . S
C646 H640 0.930 . S
C646 C647 1.355 . S
C646 C648 1.415 . S
C647 C646 1.355 . S
C647 C649 1.419 . S
C648 C646 1.415 . S
C648 C653 1.425 . S
C648 C655 1.409 . S
C649 H641 0.930 . S
C649 C647 1.419 . S
C649 C650 1.362 . S
C650 H642 0.930 . S
C650 C649 1.362 . S
C650 C653 1.409 . S
C651 H643 0.930 . S
C651 C652 1.355 . S
C651 C653 1.415 . S
C652 C651 1.355 . S
C652 C654 1.419 . S
C653 C648 1.425 . S
C653 C650 1.409 . S
C653 C651 1.415 . S
C654 H644 0.930 . S
C654 C652 1.419 . S
C654 C655 1.362 . S
C655 H645 0.930 . S
C655 C648 1.409 . S
C655 C654 1.362 . S
H656 C662 0.930 . S
H657 C665 0.930 . S
H658 C666 0.930 . S
H659 C667 0.930 . S
H660 C670 0.930 . S
H661 C671 0.930 . S
C662 H656 0.930 . S
C662 C663 1.355 . S
C662 C664 1.415 . S
C663 C662 1.355 . S
C663 C665 1.419 . S
C664 C662 1.415 . S
C664 C669 1.425 . S
C664 C671 1.409 . S
C665 H657 0.930 . S
C665 C663 1.419 . S
C665 C666 1.362 . S
C666 H658 0.930 . S
C666 C665 1.362 . S
C666 C669 1.409 . S
C667 H659 0.930 . S
C667 C668 1.355 . S
C667 C669 1.415 . S
C668 C667 1.355 . S
C668 C670 1.419 . S
C669 C664 1.425 . S
C669 C666 1.409 . S
C669 C667 1.415 . S
C670 H660 0.930 . S
C670 C668 1.419 . S
C670 C671 1.362 . S
C671 H661 0.930 . S
C671 C664 1.409 . S
C671 C670 1.362 . S
H672 C678 0.930 . S
H673 C681 0.930 . S
H674 C682 0.930 . S
H675 C683 0.930 . S
H676 C686 0.930 . S
H677 C687 0.930 . S
C678 H672 0.930 . S
C678 C679 1.355 . S
C678 C680 1.415 . S
C679 C678 1.355 . S
C679 C681 1.419 . S
C680 C678 1.415 . S
C680 C685 1.425 . S
C680 C687 1.409 . S
C681 H673 0.930 . S
C681 C679 1.419 . S
C681 C682 1.362 . S
C682 H674 0.930 . S
C682 C681 1.362 . S
C682 C685 1.409 . S
C683 H675 0.930 . S
C683 C684 1.355 . S
C683 C685 1.415 . S
C684 C683 1.355 . S
C684 C686 1.419 . S
C685 C680 1.425 . S
C685 C682 1.409 . S
C685 C683 1.415 . S
C686 H676 0.930 . S
C686 C684 1.419 . S
C686 C687 1.362 . S
C687 H677 0.930 . S
C687 C680 1.409 . S
C687 C686 1.362 . S
H688 C694 0.930 . S
H689 C697 0.930 . S
H690 C698 0.927 . S
H691 C699 0.930 . S
H692 C702 0.930 . S
H693 C703 0.930 . S
C694 H688 0.930 . S
C694 C695 1.355 . S
C694 C696 1.415 . S
C695 C694 1.355 . S
C695 C697 1.419 . S
C696 C694 1.415 . S
C696 C701 1.425 . S
C696 C703 1.409 . S
C697 H689 0.930 . S
C697 C695 1.419 . S
C697 C698 1.362 . S
C698 H690 0.927 . S
C698 C697 1.362 . S
C698 C701 1.409 . S
C699 H691 0.930 . S
C699 C700 1.355 . S
C699 C701 1.415 . S
C700 C699 1.355 . S
C700 C702 1.419 . S
C701 C696 1.425 . S
C701 C698 1.409 . S
C701 C699 1.415 . S
C702 H692 0.930 . S
C702 C700 1.419 . S
C702 C703 1.362 . S
C703 H693 0.930 . S
C703 C696 1.409 . S
C703 C702 1.362 . S
H704 C710 0.930 . S
H705 C713 0.930 . S
H706 C714 0.930 . S
H707 C715 0.930 . S
H708 C718 0.930 . S
H709 C719 0.930 . S
C710 H704 0.930 . S
C710 C711 1.355 . S
C710 C712 1.415 . S
C711 C710 1.355 . S
C711 C713 1.419 . S
C712 C710 1.415 . S
C712 C717 1.425 . S
C712 C719 1.409 . S
C713 H705 0.930 . S
C713 C711 1.419 . S
C713 C714 1.362 . S
C714 H706 0.930 . S
C714 C713 1.362 . S
C714 C717 1.409 . S
C715 H707 0.930 . S
C715 C716 1.355 . S
C715 C717 1.415 . S
C716 C715 1.355 . S
C716 C718 1.419 . S
C717 C712 1.425 . S
C717 C714 1.409 . S
C717 C715 1.415 . S
C718 H708 0.930 . S
C718 C716 1.419 . S
C718 C719 1.362 . S
C719 H709 0.930 . S
C719 C712 1.409 . S
C719 C718 1.362 . S
H720 C726 0.930 . S
H721 C729 0.930 . S
H722 C730 0.930 . S
H723 C731 0.930 . S
H724 C734 0.930 . S
H725 C735 0.930 . S
C726 H720 0.930 . S
C726 C727 1.355 . S
C726 C728 1.415 1_554 S
C727 C726 1.355 . S
C727 C729 1.419 . S
C728 C726 1.415 1_556 S
C728 C733 1.425 . S
C728 C735 1.409 . S
C729 H721 0.930 . S
C729 C727 1.419 . S
C729 C730 1.362 . S
C730 H722 0.930 . S
C730 C729 1.362 . S
C730 C733 1.409 1_554 S
C731 H723 0.930 . S
C731 C732 1.355 . S
C731 C733 1.415 . S
C732 C731 1.355 . S
C732 C734 1.419 . S
C733 C728 1.425 . S
C733 C730 1.409 1_556 S
C733 C731 1.415 . S
C734 H724 0.930 . S
C734 C732 1.419 . S
C734 C735 1.362 . S
C735 H725 0.930 . S
C735 C728 1.409 . S
C735 C734 1.362 . S
H736 C742 0.930 . S
H737 C745 0.930 . S
H738 C746 0.930 . S
H739 C747 0.930 . S
H740 C750 0.930 . S
H741 C751 0.930 . S
C742 H736 0.930 . S
C742 C743 1.355 . S
C742 C744 1.415 . S
C743 C742 1.355 . S
C743 C745 1.419 . S
C744 C742 1.415 . S
C744 C749 1.425 . S
C744 C751 1.409 . S
C745 H737 0.930 . S
C745 C743 1.419 . S
C745 C746 1.362 . S
C746 H738 0.930 . S
C746 C745 1.362 . S
C746 C749 1.409 . S
C747 H739 0.930 . S
C747 C748 1.355 . S
C747 C749 1.415 . S
C748 C747 1.355 . S
C748 C750 1.419 . S
C749 C744 1.425 . S
C749 C746 1.409 . S
C749 C747 1.415 . S
C750 H740 0.930 . S
C750 C748 1.419 . S
C750 C751 1.362 . S
C751 H741 0.930 . S
C751 C744 1.409 . S
C751 C750 1.362 . S
H752 C758 0.930 . S
H753 C761 0.930 . S
H754 C762 0.930 . S
H755 C763 0.930 . S
H756 C766 0.930 . S
H757 C767 0.930 . S
C758 H752 0.930 . S
C758 C759 1.355 . S
C758 C760 1.415 1_554 S
C759 C758 1.355 . S
C759 C761 1.419 . S
C760 C758 1.415 1_556 S
C760 C765 1.425 . S
C760 C767 1.409 . S
C761 H753 0.930 . S
C761 C759 1.419 . S
C761 C762 1.362 1_554 S
C762 H754 0.930 . S
C762 C761 1.362 1_556 S
C762 C765 1.409 . S
C763 H755 0.930 . S
C763 C764 1.355 . S
C763 C765 1.415 . S
C764 C763 1.355 . S
C764 C766 1.419 . S
C765 C760 1.425 . S
C765 C762 1.409 . S
C765 C763 1.415 . S
C766 H756 0.930 . S
C766 C764 1.419 . S
C766 C767 1.362 . S
C767 H757 0.930 . S
C767 C760 1.409 . S
C767 C766 1.362 . S
H768 C774 0.930 . S
H769 C777 0.930 . S
H770 C778 0.930 . S
H771 C779 0.930 . S
H772 C782 0.930 . S
H773 C783 0.930 . S
C774 H768 0.930 . S
C774 C775 1.355 . S
C774 C776 1.415 . S
C775 C774 1.355 . S
C775 C777 1.419 . S
C776 C774 1.415 . S
C776 C781 1.425 . S
C776 C783 1.409 . S
C777 H769 0.930 . S
C777 C775 1.419 . S
C777 C778 1.362 . S
C778 H770 0.930 . S
C778 C777 1.362 . S
C778 C781 1.409 . S
C779 H771 0.930 . S
C779 C780 1.355 . S
C779 C781 1.415 . S
C780 C779 1.355 . S
C780 C782 1.419 . S
C781 C776 1.425 . S
C781 C778 1.409 . S
C781 C779 1.415 . S
C782 H772 0.930 . S
C782 C780 1.419 . S
C782 C783 1.362 . S
C783 H773 0.930 . S
C783 C776 1.409 . S
C783 C782 1.362 . S
H784 C790 0.930 . S
H785 C793 0.930 . S
H786 C794 0.930 . S
H787 C795 0.930 . S
H788 C798 0.930 . S
H789 C799 0.930 . S
C790 H784 0.930 . S
C790 C791 1.355 . S
C790 C792 1.415 . S
C791 C790 1.355 . S
C791 C793 1.419 . S
C792 C790 1.415 . S
C792 C797 1.425 . S
C792 C799 1.409 . S
C793 H785 0.930 . S
C793 C791 1.419 . S
C793 C794 1.362 . S
C794 H786 0.930 . S
C794 C793 1.362 . S
C794 C797 1.409 . S
C795 H787 0.930 . S
C795 C796 1.355 . S
C795 C797 1.415 . S
C796 C795 1.355 . S
C796 C798 1.419 . S
C797 C792 1.425 . S
C797 C794 1.409 . S
C797 C795 1.415 . S
C798 H788 0.930 . S
C798 C796 1.419 . S
C798 C799 1.362 . S
C799 H789 0.930 . S
C799 C792 1.409 . S
C799 C798 1.362 . S
H800 C806 0.930 . S
H801 C809 0.930 . S
H802 C810 0.930 . S
H803 C811 0.930 . S
H804 C814 0.930 . S
H805 C815 0.930 . S
C806 H800 0.930 . S
C806 C807 1.355 . S
C806 C808 1.415 . S
C807 C806 1.355 . S
C807 C809 1.419 . S
C808 C806 1.415 . S
C808 C813 1.425 . S
C808 C815 1.409 . S
C809 H801 0.930 . S
C809 C807 1.419 . S
C809 C810 1.362 . S
C810 H802 0.930 . S
C810 C809 1.362 . S
C810 C813 1.409 . S
C811 H803 0.930 . S
C811 C812 1.355 . S
C811 C813 1.415 . S
C812 C811 1.355 . S
C812 C814 1.419 . S
C813 C808 1.425 . S
C813 C810 1.409 . S
C813 C811 1.415 . S
C814 H804 0.930 . S
C814 C812 1.419 . S
C814 C815 1.362 . S
C815 H805 0.930 . S
C815 C808 1.409 . S
C815 C814 1.362 . S
H816 C822 0.930 . S
H817 C825 0.930 . S
H818 C826 0.930 . S
H819 C827 0.930 . S
H820 C830 0.930 . S
H821 C831 0.930 . S
C822 H816 0.930 . S
C822 C823 1.355 . S
C822 C824 1.415 . S
C823 C822 1.355 . S
C823 C825 1.419 . S
C824 C822 1.415 . S
C824 C829 1.425 . S
C824 C831 1.409 . S
C825 H817 0.930 . S
C825 C823 1.419 . S
C825 C826 1.362 . S
C826 H818 0.930 . S
C826 C825 1.362 . S
C826 C829 1.409 . S
C827 H819 0.930 . S
C827 C828 1.355 . S
C827 C829 1.415 1_565 S
C828 C827 1.355 . S
C828 C830 1.419 . S
C829 C824 1.425 . S
C829 C826 1.409 . S
C829 C827 1.415 1_545 S
C830 H820 0.930 . S
C830 C828 1.419 . S
C830 C831 1.362 1_565 S
C831 H821 0.930 . S
C831 C824 1.409 . S
C831 C830 1.362 1_545 S
H832 C838 0.930 . S
H833 C841 0.930 . S
H834 C842 0.930 . S
H835 C843 0.930 . S
H836 C846 0.930 . S
H837 C847 0.930 1_554 S
C838 H832 0.930 . S
C838 C839 1.355 . S
C838 C840 1.415 . S
C839 C838 1.355 . S
C839 C841 1.419 . S
C840 C838 1.415 . S
C840 C845 1.425 . S
C840 C847 1.409 . S
C841 H833 0.930 . S
C841 C839 1.419 . S
C841 C842 1.362 . S
C842 H834 0.930 . S
C842 C841 1.362 . S
C842 C845 1.409 . S
C843 H835 0.930 . S
C843 C844 1.355 . S
C843 C845 1.415 . S
C844 C843 1.355 . S
C844 C846 1.419 . S
C845 C840 1.425 . S
C845 C842 1.409 . S
C845 C843 1.415 . S
C846 H836 0.930 . S
C846 C844 1.419 . S
C846 C847 1.362 . S
C847 H837 0.930 1_556 S
C847 C840 1.409 . S
C847 C846 1.362 . S
H848 C854 0.930 . S
H849 C857 0.930 . S
H850 C858 0.930 . S
H851 C859 0.930 . S
H852 C862 0.930 . S
H853 C863 0.930 . S
C854 H848 0.930 . S
C854 C855 1.355 . S
C854 C856 1.433 . S
C855 C854 1.355 . S
C855 C857 1.419 . S
C856 C854 1.433 . S
C856 C861 1.427 . S
C856 C863 1.389 1_545 S
C857 H849 0.930 . S
C857 C855 1.419 . S
C857 C858 1.362 . S
C858 H850 0.930 . S
C858 C857 1.362 . S
C858 C861 1.409 . S
C859 H851 0.930 . S
C859 C860 1.355 . S
C859 C861 1.415 1_565 S
C860 C859 1.355 . S
C860 C862 1.419 . S
C861 C856 1.427 . S
C861 C858 1.409 . S
C861 C859 1.415 1_545 S
C862 H852 0.930 . S
C862 C860 1.419 . S
C862 C863 1.362 . S
C863 H853 0.930 . S
C863 C856 1.389 1_565 S
C863 C862 1.362 . S
H864 C870 0.930 . S
H865 C873 0.930 . S
H866 C874 0.930 . S
H867 C875 0.930 . S
H868 C878 0.930 . S
H869 C879 0.930 . S
C870 H864 0.930 . S
C870 C871 1.355 . S
C870 C872 1.415 . S
C871 C870 1.355 . S
C871 C873 1.419 . S
C872 C870 1.415 . S
C872 C877 1.425 . S
C872 C879 1.409 . S
C873 H865 0.930 . S
C873 C871 1.419 . S
C873 C874 1.362 . S
C874 H866 0.930 . S
C874 C873 1.362 . S
C874 C877 1.409 . S
C875 H867 0.930 . S
C875 C876 1.355 . S
C875 C877 1.415 . S
C876 C875 1.355 . S
C876 C878 1.419 . S
C877 C872 1.425 . S
C877 C874 1.409 . S
C877 C875 1.415 . S
C878 H868 0.930 . S
C878 C876 1.419 . S
C878 C879 1.362 . S
C879 H869 0.930 . S
C879 C872 1.409 . S
C879 C878 1.362 . S
H880 C886 0.930 . S
H881 C889 0.930 1_455 S
H882 C890 0.930 . S
H883 C891 0.930 . S
H884 C894 0.930 . S
H885 C895 0.930 . S
C886 H880 0.930 . S
C886 C887 1.355 . S
C886 C888 1.415 . S
C887 C886 1.355 . S
C887 C889 1.419 . S
C888 C886 1.415 . S
C888 C893 1.425 . S
C888 C895 1.409 . S
C889 H881 0.930 1_655 S
C889 C887 1.419 . S
C889 C890 1.362 . S
C890 H882 0.930 . S
C890 C889 1.362 . S
C890 C893 1.409 . S
C891 H883 0.930 . S
C891 C892 1.355 . S
C891 C893 1.415 . S
C892 C891 1.355 . S
C892 C894 1.419 . S
C893 C888 1.425 . S
C893 C890 1.409 . S
C893 C891 1.415 . S
C894 H884 0.930 . S
C894 C892 1.419 . S
C894 C895 1.362 . S
C895 H885 0.930 . S
C895 C888 1.409 . S
C895 C894 1.362 . S
H896 C902 0.930 . S
H897 C905 0.930 . S
H898 C906 0.930 . S
H899 C907 0.930 . S
H900 C910 0.930 . S
H901 C911 0.930 . S
C902 H896 0.930 . S
C902 C903 1.355 . S
C902 C904 1.415 . S
C903 C902 1.355 . S
C903 C905 1.419 . S
C904 C902 1.415 . S
C904 C909 1.425 . S
C904 C911 1.409 . S
C905 H897 0.930 . S
C905 C903 1.419 . S
C905 C906 1.362 . S
C906 H898 0.930 . S
C906 C905 1.362 . S
C906 C909 1.409 . S
C907 H899 0.930 . S
C907 C908 1.355 . S
C907 C909 1.415 . S
C908 C907 1.355 . S
C908 C910 1.419 . S
C909 C904 1.425 . S
C909 C906 1.409 . S
C909 C907 1.415 . S
C910 H900 0.930 . S
C910 C908 1.419 . S
C910 C911 1.362 . S
C911 H901 0.930 . S
C911 C904 1.409 . S
C911 C910 1.362 . S
H912 C918 0.930 . S
H913 C921 0.930 . S
H914 C922 0.930 . S
H915 C923 0.930 . S
H916 C926 0.930 . S
H917 C927 0.930 . S
C918 H912 0.930 . S
C918 C919 1.355 . S
C918 C920 1.415 . S
C919 C918 1.355 . S
C919 C921 1.419 . S
C920 C918 1.415 . S
C920 C925 1.425 . S
C920 C927 1.409 . S
C921 H913 0.930 . S
C921 C919 1.419 . S
C921 C922 1.362 . S
C922 H914 0.930 . S
C922 C921 1.362 . S
C922 C925 1.409 . S
C923 H915 0.930 . S
C923 C924 1.355 . S
C923 C925 1.415 . S
C924 C923 1.355 . S
C924 C926 1.419 . S
C925 C920 1.425 . S
C925 C922 1.409 . S
C925 C923 1.415 . S
C926 H916 0.930 . S
C926 C924 1.419 . S
C926 C927 1.362 . S
C927 H917 0.930 . S
C927 C920 1.409 . S
C927 C926 1.362 . S
H928 C934 0.930 . S
H929 C937 0.930 . S
H930 C938 0.930 . S
H931 C939 0.930 . S
H932 C942 0.930 . S
H933 C943 0.930 . S
C934 H928 0.930 . S
C934 C935 1.355 . S
C934 C936 1.415 . S
C935 C934 1.355 . S
C935 C937 1.419 . S
C936 C934 1.415 . S
C936 C941 1.425 . S
C936 C943 1.409 . S
C937 H929 0.930 . S
C937 C935 1.419 . S
C937 C938 1.362 . S
C938 H930 0.930 . S
C938 C937 1.362 . S
C938 C941 1.409 . S
C939 H931 0.930 . S
C939 C940 1.355 . S
C939 C941 1.415 . S
C940 C939 1.355 . S
C940 C942 1.419 . S
C941 C936 1.425 . S
C941 C938 1.409 . S
C941 C939 1.415 . S
C942 H932 0.930 . S
C942 C940 1.419 . S
C942 C943 1.362 . S
C943 H933 0.930 . S
C943 C936 1.409 . S
C943 C942 1.362 . S
H944 C950 0.930 . S
H945 C953 0.930 . S
H946 C954 0.930 . S
H947 C955 0.930 . S
H948 C958 0.930 . S
H949 C959 0.930 . S
C950 H944 0.930 . S
C950 C951 1.355 . S
C950 C952 1.415 . S
C951 C950 1.355 . S
C951 C953 1.419 . S
C952 C950 1.415 . S
C952 C957 1.425 . S
C952 C959 1.409 . S
C953 H945 0.930 . S
C953 C951 1.419 . S
C953 C954 1.362 . S
C954 H946 0.930 . S
C954 C953 1.362 . S
C954 C957 1.409 . S
C955 H947 0.930 . S
C955 C956 1.355 . S
C955 C957 1.415 . S
C956 C955 1.355 . S
C956 C958 1.419 . S
C957 C952 1.425 . S
C957 C954 1.409 . S
C957 C955 1.415 . S
C958 H948 0.930 . S
C958 C956 1.419 . S
C958 C959 1.362 . S
C959 H949 0.930 . S
C959 C952 1.409 . S
C959 C958 1.362 . S
H960 C966 0.930 . S
H961 C969 0.930 . S
H962 C970 0.930 . S
H963 C971 0.930 . S
H964 C974 0.930 . S
H965 C975 0.930 . S
C966 H960 0.930 . S
C966 C967 1.355 . S
C966 C968 1.392 1_455 S
C967 C966 1.355 . S
C967 C969 1.419 . S
C968 C966 1.392 1_655 S
C968 C973 1.424 1_655 S
C968 C975 1.434 . S
C969 H961 0.930 . S
C969 C967 1.419 . S
C969 C970 1.362 . S
C970 H962 0.930 . S
C970 C969 1.362 . S
C970 C973 1.411 . S
C971 H963 0.930 . S
C971 C972 1.355 . S
C971 C973 1.413 1_655 S
C972 C971 1.355 . S
C972 C974 1.419 . S
C973 C968 1.424 1_455 S
C973 C970 1.411 . S
C973 C971 1.413 1_455 S
C974 H964 0.930 . S
C974 C972 1.419 . S
C974 C975 1.362 . S
C975 H965 0.930 . S
C975 C968 1.434 . S
C975 C974 1.362 . S
H976 C982 0.930 . S
H977 C985 0.930 . S
H978 C986 0.930 . S
H979 C987 0.930 . S
H980 C990 0.930 . S
H981 C991 0.930 . S
C982 H976 0.930 . S
C982 C983 1.355 . S
C982 C984 1.415 . S
C983 C982 1.355 . S
C983 C985 1.419 . S
C984 C982 1.415 . S
C984 C989 1.425 . S
C984 C991 1.409 . S
C985 H977 0.930 . S
C985 C983 1.419 . S
C985 C986 1.362 . S
C986 H978 0.930 . S
C986 C985 1.362 . S
C986 C989 1.409 . S
C987 H979 0.930 . S
C987 C988 1.355 . S
C987 C989 1.415 . S
C988 C987 1.355 . S
C988 C990 1.419 . S
C989 C984 1.425 . S
C989 C986 1.409 . S
C989 C987 1.415 . S
C990 H980 0.930 . S
C990 C988 1.419 . S
C990 C991 1.362 . S
C991 H981 0.930 . S
C991 C984 1.409 . S
C991 C990 1.362 . S
H992 C998 0.930 . S
H993 C1001 0.930 . S
H994 C1002 0.930 . S
H995 C1003 0.930 . S
H996 C1006 0.930 . S
H997 C1007 0.930 . S
C998 H992 0.930 . S
C998 C999 1.355 . S
C998 C1000 1.415 . S
C999 C998 1.355 . S
C999 C1001 1.419 . S
C1000 C998 1.415 . S
C1000 C1005 1.425 . S
C1000 C1007 1.409 . S
C1001 H993 0.930 . S
C1001 C999 1.419 . S
C1001 C1002 1.362 . S
C1002 H994 0.930 . S
C1002 C1001 1.362 . S
C1002 C1005 1.409 . S
C1003 H995 0.930 . S
C1003 C1004 1.355 . S
C1003 C1005 1.415 . S
C1004 C1003 1.355 . S
C1004 C1006 1.419 . S
C1005 C1000 1.425 . S
C1005 C1002 1.409 . S
C1005 C1003 1.415 . S
C1006 H996 0.930 . S
C1006 C1004 1.419 . S
C1006 C1007 1.362 . S
C1007 H997 0.930 . S
C1007 C1000 1.409 . S
C1007 C1006 1.362 . S
H1008 C1014 0.930 . S
H1009 C1017 0.930 . S
H1010 C1018 0.930 . S
H1011 C1019 0.930 . S
H1012 C1022 0.930 . S
H1013 C1023 0.930 . S
C1014 H1008 0.930 . S
C1014 C1015 1.355 . S
C1014 C1016 1.415 . S
C1015 C1014 1.355 . S
C1015 C1017 1.419 . S
C1016 C1014 1.415 . S
C1016 C1021 1.425 . S
C1016 C1023 1.409 . S
C1017 H1009 0.930 . S
C1017 C1015 1.419 . S
C1017 C1018 1.362 . S
C1018 H1010 0.930 . S
C1018 C1017 1.362 . S
C1018 C1021 1.409 . S
C1019 H1011 0.930 . S
C1019 C1020 1.355 . S
C1019 C1021 1.415 . S
C1020 C1019 1.355 . S
C1020 C1022 1.419 . S
C1021 C1016 1.425 . S
C1021 C1018 1.409 . S
C1021 C1019 1.415 . S
C1022 H1012 0.930 . S
C1022 C1020 1.419 . S
C1022 C1023 1.362 . S
C1023 H1013 0.930 . S
C1023 C1016 1.409 . S
C1023 C1022 1.362 . S
H1024 C1030 0.930 . S
H1025 C1033 0.930 . S
H1026 C1034 0.930 . S
H1027 C1035 0.930 . S
H1028 C1038 0.930 . S
H1029 C1039 0.930 . S
C1030 H1024 0.930 . S
C1030 C1031 1.355 . S
C1030 C1032 1.415 . S
C1031 C1030 1.355 . S
C1031 C1033 1.419 . S
C1032 C1030 1.415 . S
C1032 C1037 1.425 . S
C1032 C1039 1.409 . S
C1033 H1025 0.930 . S
C1033 C1031 1.419 . S
C1033 C1034 1.362 . S
C1034 H1026 0.930 . S
C1034 C1033 1.362 . S
C1034 C1037 1.409 . S
C1035 H1027 0.930 . S
C1035 C1036 1.355 . S
C1035 C1037 1.415 . S
C1036 C1035 1.355 . S
C1036 C1038 1.419 . S
C1037 C1032 1.425 . S
C1037 C1034 1.409 . S
C1037 C1035 1.415 . S
C1038 H1028 0.930 . S
C1038 C1036 1.419 . S
C1038 C1039 1.362 . S
C1039 H1029 0.930 . S
C1039 C1032 1.409 . S
C1039 C1038 1.362 . S
H1040 C1046 0.930 . S
H1041 C1049 0.930 . S
H1042 C1050 0.930 . S
H1043 C1051 0.930 . S
H1044 C1054 0.930 . S
H1045 C1055 0.930 . S
C1046 H1040 0.930 . S
C1046 C1047 1.355 . S
C1046 C1048 1.415 . S
C1047 C1046 1.355 . S
C1047 C1049 1.419 . S
C1048 C1046 1.415 . S
C1048 C1053 1.425 . S
C1048 C1055 1.409 . S
C1049 H1041 0.930 . S
C1049 C1047 1.419 . S
C1049 C1050 1.362 . S
C1050 H1042 0.930 . S
C1050 C1049 1.362 . S
C1050 C1053 1.409 . S
C1051 H1043 0.930 . S
C1051 C1052 1.355 . S
C1051 C1053 1.415 1_455 S
C1052 C1051 1.355 . S
C1052 C1054 1.419 . S
C1053 C1048 1.425 . S
C1053 C1050 1.409 . S
C1053 C1051 1.415 1_655 S
C1054 H1044 0.930 . S
C1054 C1052 1.419 . S
C1054 C1055 1.362 1_455 S
C1055 H1045 0.930 . S
C1055 C1048 1.409 . S
C1055 C1054 1.362 1_655 S
C487 C19 1.180 . S
C492 C459 1.154 . S
C503 C371 1.696 . S
C508 C59 1.816 . S
C519 C91 1.398 . S
C524 C339 1.406 . S
C535 C139 2.113 . S
C540 C419 2.079 . S
C551 C179 1.751 . S
C556 C411 1.644 . S
C567 C211 1.525 . S
C572 C451 1.486 . S
C583 C379 1.909 . S
C588 C259 1.921 . S
C599 C291 1.640 . S
C604 C331 1.772 . S
C615 C131 1.780 . S
C620 C171 1.762 . S
C631 C11 1.647 . S
C636 C219 1.723 . S
C647 C51 1.598 . S
C652 C251 1.652 . S
C663 C299 1.922 . S
C668 C99 1.939 . S
C679 C7 1.620 . S
C684 C330 1.490 . S
C695 C47 1.795 . S
C700 C410 1.709 . S
C711 C450 2.037 . S
C716 C96 2.052 . S
C727 C127 1.554 . S
C732 C362 1.523 . S
C743 C167 1.276 . S
C748 C370 1.242 . S
C759 C322 2.023 . S
C764 C216 1.910 . S
C775 C402 1.361 . S
C780 C247 1.385 . S
C791 C442 2.662 . S
C796 C296 2.567 . S
C807 C2 2.732 . S
C812 C136 2.608 . S
C823 C16 2.008 . S
C828 C42 2.102 . S
C839 C56 2.293 . S
C844 C90 2.282 . S
C855 C122 1.706 . S
C860 C87 1.729 . S
C871 C207 1.504 . S
C876 C162 1.487 . S
C887 C210 1.379 . S
C892 C256 1.415 . S
C903 C242 1.488 . S
C908 C287 1.518 . S
C919 C176 1.075 . S
C924 C290 1.055 . S
C935 C336 1.047 . S
C940 C130 1.041 . S
C951 C202 1.775 . S
C956 C376 1.715 . S
C967 C327 1.433 . S
C972 C250 1.379 . S
C983 C407 1.770 . S
C988 C282 1.749 . S
C999 C170 1.280 . S
C1004 C447 1.373 . S
C1015 C456 1.801 . S
C1020 C50 1.759 . S
C1031 C82 1.542 . S
C1036 C367 1.573 . S
C1047 C416 1.858 . S
C1052 C10 1.851 . S
