# Generated by pormake.
# Topology uoy, (4)-cn, num edge types: 1
# Building blocks:
#     Node 0, Type 0, BuildingBlock: QUQFOY_clean_sbu_1, # of connection points: 4
#     Node 1, Type 0, BuildingBlock: QUQFOY_clean_sbu_1, # of connection points: 4
#     Node 2, Type 0, BuildingBlock: QUQFOY_clean_sbu_1, # of connection points: 4
#     Node 3, Type 0, BuildingBlock: QUQFOY_clean_sbu_1, # of connection points: 4
#     Node 4, Type 0, BuildingBlock: QUQFOY_clean_sbu_1, # of connection points: 4
#     Node 5, Type 0, BuildingBlock: QUQFOY_clean_sbu_1, # of connection points: 4
#     Node 6, Type 0, BuildingBlock: QUQFOY_clean_sbu_1, # of connection points: 4
#     Node 7, Type 0, BuildingBlock: QUQFOY_clean_sbu_1, # of connection points: 4
#     Node 8, Type 0, BuildingBlock: QUQFOY_clean_sbu_1, # of connection points: 4
#     Node 9, Type 0, BuildingBlock: QUQFOY_clean_sbu_1, # of connection points: 4
#     Node 10, Type 0, BuildingBlock: QUQFOY_clean_sbu_1, # of connection points: 4
#     Node 11, Type 0, BuildingBlock: QUQFOY_clean_sbu_1, # of connection points: 4
#     Node 12, Type 0, BuildingBlock: QUQFOY_clean_sbu_1, # of connection points: 4
#     Node 13, Type 0, BuildingBlock: QUQFOY_clean_sbu_1, # of connection points: 4
#     Node 14, Type 0, BuildingBlock: QUQFOY_clean_sbu_1, # of connection points: 4
#     Node 15, Type 0, BuildingBlock: QUQFOY_clean_sbu_1, # of connection points: 4
#     Edge 16, Type (0, 0), BuildingBlock: EZIPEK_clean_linker_0, # of connection points: 2
#     Edge 17, Type (0, 0), BuildingBlock: EZIPEK_clean_linker_0, # of connection points: 2
#     Edge 18, Type (0, 0), BuildingBlock: EZIPEK_clean_linker_0, # of connection points: 2
#     Edge 19, Type (0, 0), BuildingBlock: EZIPEK_clean_linker_0, # of connection points: 2
#     Edge 20, Type (0, 0), BuildingBlock: EZIPEK_clean_linker_0, # of connection points: 2
#     Edge 21, Type (0, 0), BuildingBlock: EZIPEK_clean_linker_0, # of connection points: 2
#     Edge 22, Type (0, 0), BuildingBlock: EZIPEK_clean_linker_0, # of connection points: 2
#     Edge 23, Type (0, 0), BuildingBlock: EZIPEK_clean_linker_0, # of connection points: 2
#     Edge 24, Type (0, 0), BuildingBlock: EZIPEK_clean_linker_0, # of connection points: 2
#     Edge 25, Type (0, 0), BuildingBlock: EZIPEK_clean_linker_0, # of connection points: 2
#     Edge 26, Type (0, 0), BuildingBlock: EZIPEK_clean_linker_0, # of connection points: 2
#     Edge 27, Type (0, 0), BuildingBlock: EZIPEK_clean_linker_0, # of connection points: 2
#     Edge 28, Type (0, 0), BuildingBlock: EZIPEK_clean_linker_0, # of connection points: 2
#     Edge 29, Type (0, 0), BuildingBlock: EZIPEK_clean_linker_0, # of connection points: 2
#     Edge 30, Type (0, 0), BuildingBlock: EZIPEK_clean_linker_0, # of connection points: 2
#     Edge 31, Type (0, 0), BuildingBlock: EZIPEK_clean_linker_0, # of connection points: 2
#     Edge 32, Type (0, 0), BuildingBlock: EZIPEK_clean_linker_0, # of connection points: 2
#     Edge 33, Type (0, 0), BuildingBlock: EZIPEK_clean_linker_0, # of connection points: 2
#     Edge 34, Type (0, 0), BuildingBlock: EZIPEK_clean_linker_0, # of connection points: 2
#     Edge 35, Type (0, 0), BuildingBlock: EZIPEK_clean_linker_0, # of connection points: 2
#     Edge 36, Type (0, 0), BuildingBlock: EZIPEK_clean_linker_0, # of connection points: 2
#     Edge 37, Type (0, 0), BuildingBlock: EZIPEK_clean_linker_0, # of connection points: 2
#     Edge 38, Type (0, 0), BuildingBlock: EZIPEK_clean_linker_0, # of connection points: 2
#     Edge 39, Type (0, 0), BuildingBlock: EZIPEK_clean_linker_0, # of connection points: 2
#     Edge 40, Type (0, 0), BuildingBlock: EZIPEK_clean_linker_0, # of connection points: 2
#     Edge 41, Type (0, 0), BuildingBlock: EZIPEK_clean_linker_0, # of connection points: 2
#     Edge 42, Type (0, 0), BuildingBlock: EZIPEK_clean_linker_0, # of connection points: 2
#     Edge 43, Type (0, 0), BuildingBlock: EZIPEK_clean_linker_0, # of connection points: 2
#     Edge 44, Type (0, 0), BuildingBlock: EZIPEK_clean_linker_0, # of connection points: 2
#     Edge 45, Type (0, 0), BuildingBlock: EZIPEK_clean_linker_0, # of connection points: 2
#     Edge 46, Type (0, 0), BuildingBlock: EZIPEK_clean_linker_0, # of connection points: 2
#     Edge 47, Type (0, 0), BuildingBlock: EZIPEK_clean_linker_0, # of connection points: 2
# Relax obj value: 0.058
# Max RMSD: 0.090
# Mean RMSD: 0.090
data_MOF--net-uoy--node1-QUQFOY_clean_sbu_1--edge1-EZIPEK_clean_linker_0
_symmetry_space_group_name_H-M    P1
_symmetry_Int_Tables_number       1
_symmetry_cell_setting            triclinic
loop_
_symmetry_equiv_pos_as_xyz
'x, y, z'
_cell_length_a     20.783686
_cell_length_b     20.749575
_cell_length_c     83.486718
_cell_angle_alpha  89.99546
_cell_angle_beta   90.370047
_cell_angle_gamma 89.83325
loop_
_atom_site_label
_atom_site_type_symbol
_atom_site_fract_x
_atom_site_fract_y
_atom_site_fract_z
_atom_type_partial_charge
O0 O 0.26454 0.13395 0.23109 0.0
Cd1 Cd 0.25169 0.08197 0.21029 0.0
Cd2 Cd 0.29576 0.18657 0.19817 0.0
O3 O 0.26501 0.22875 0.21934 0.0
O4 O 0.18663 0.01432 0.21513 0.0
O5 O 0.16805 0.0957 0.19851 0.0
C6 C 0.14688 0.04589 0.20611 0.0
C7 C 0.2732 0.22453 0.17257 0.0
C8 C 0.26432 0.19507 0.23206 0.0
C9 C 0.38456 0.07355 0.19941 0.0
O10 O 0.38088 0.13468 0.19931 0.0
O11 O 0.33435 0.03972 0.20148 0.0
O12 O 0.31118 0.25546 0.18213 0.0
O13 O 0.24373 0.17444 0.17802 0.0
O14 O 0.89555 0.75991 0.47795 0.0
Cd15 Cd 0.94473 0.75518 0.45666 0.0
Cd16 Cd 0.8367 0.80908 0.4461 0.0
O17 O 0.80217 0.79727 0.46912 0.0
O18 O 0.01543 0.69194 0.4612 0.0
O19 O 0.93671 0.67302 0.44389 0.0
C20 C 0.98664 0.6525 0.45162 0.0
C21 C 0.79437 0.77108 0.42223 0.0
C22 C 0.83842 0.77894 0.4806 0.0
C23 C 0.95367 0.89223 0.44545 0.0
O24 O 0.89328 0.88889 0.44338 0.0
O25 O 0.98588 0.84256 0.44966 0.0
O26 O 0.76788 0.81894 0.42961 0.0
O27 O 0.84091 0.74071 0.42929 0.0
O28 O 0.2646 0.39609 0.73103 0.0
Cd29 Cd 0.28038 0.44638 0.71014 0.0
Cd30 Cd 0.22359 0.34395 0.69855 0.0
O31 O 0.23979 0.30145 0.72065 0.0
O32 O 0.34902 0.5103 0.71549 0.0
O33 O 0.36314 0.43019 0.69835 0.0
C34 C 0.38672 0.47843 0.70615 0.0
C35 C 0.25385 0.30601 0.67362 0.0
C36 C 0.2514 0.33674 0.73278 0.0
C37 C 0.14746 0.4662 0.6985 0.0
O38 O 0.1458 0.40516 0.69779 0.0
O39 O 0.20001 0.49533 0.70151 0.0
O40 O 0.20701 0.27977 0.68132 0.0
O41 O 0.28723 0.35007 0.68073 0.0
O42 O 0.63831 0.75808 0.97984 0.0
Cd43 Cd 0.5912 0.77095 0.95824 0.0
Cd44 Cd 0.6974 0.72406 0.94807 0.0
O45 O 0.73545 0.75631 0.96961 0.0
O46 O 0.52202 0.83597 0.9621 0.0
O47 O 0.60635 0.85472 0.94671 0.0
C48 C 0.5547 0.87571 0.9535 0.0
C49 C 0.73613 0.74647 0.92279 0.0
C50 C 0.69902 0.75766 0.98177 0.0
C51 C 0.58448 0.63692 0.94761 0.0
O52 O 0.6454 0.6393 0.94879 0.0
O53 O 0.55106 0.68817 0.94875 0.0
O54 O 0.76757 0.70922 0.93247 0.0
O55 O 0.68546 0.7757 0.92801 0.0
O56 O 0.2536 0.3929 0.04801 0.0
Cd57 Cd 0.23894 0.44131 0.06921 0.0
Cd58 Cd 0.29292 0.33767 0.08027 0.0
O59 O 0.27137 0.29663 0.05829 0.0
O60 O 0.17049 0.50615 0.0644 0.0
O61 O 0.15664 0.42441 0.08111 0.0
C62 C 0.13291 0.47346 0.07356 0.0
C63 C 0.27129 0.29527 0.10537 0.0
C64 C 0.26254 0.33279 0.04617 0.0
C65 C 0.3727 0.45696 0.08021 0.0
O66 O 0.37312 0.39579 0.08039 0.0
O67 O 0.32038 0.48775 0.07786 0.0
O68 O 0.31279 0.26854 0.09603 0.0
O69 O 0.23762 0.34293 0.09988 0.0
O70 O 0.63365 0.76432 0.29728 0.0
Cd71 Cd 0.58018 0.74954 0.31767 0.0
Cd72 Cd 0.68387 0.79467 0.33053 0.0
O73 O 0.72801 0.76812 0.30932 0.0
O74 O 0.51374 0.68368 0.31213 0.0
O75 O 0.59369 0.66567 0.32925 0.0
C76 C 0.54463 0.6442 0.32135 0.0
C77 C 0.71822 0.76497 0.356 0.0
C78 C 0.69469 0.76646 0.2965 0.0
C79 C 0.56912 0.88148 0.32938 0.0
O80 O 0.63013 0.87856 0.32989 0.0
O81 O 0.53614 0.83103 0.32673 0.0
O82 O 0.74842 0.80827 0.3479 0.0
O83 O 0.67109 0.73508 0.34915 0.0
O84 O 0.26235 0.13828 0.55126 0.0
Cd85 Cd 0.27577 0.09337 0.57307 0.0
Cd86 Cd 0.21764 0.19928 0.58204 0.0
O87 O 0.23781 0.23619 0.55962 0.0
O88 O 0.34141 0.02504 0.56859 0.0
O89 O 0.36029 0.10802 0.58455 0.0
C90 C 0.38131 0.05729 0.57733 0.0
C91 C 0.25029 0.23658 0.60687 0.0
C92 C 0.25023 0.19719 0.54829 0.0
C93 C 0.14057 0.0791 0.58346 0.0
O94 O 0.13871 0.14013 0.58265 0.0
O95 O 0.19382 0.04905 0.58204 0.0
O96 O 0.20471 0.2653 0.59902 0.0
O97 O 0.28111 0.19028 0.59994 0.0
O98 O 0.88675 0.74977 0.79752 0.0
Cd99 Cd 0.93701 0.7591 0.8188 0.0
Cd100 Cd 0.82873 0.72134 0.82958 0.0
O101 O 0.79079 0.75675 0.80836 0.0
O102 O 1.0088 0.82092 0.81492 0.0
O103 O 0.92528 0.84306 0.83038 0.0
C104 C 0.97749 0.86195 0.82354 0.0
C105 C 0.79535 0.7466 0.85518 0.0
C106 C 0.82604 0.75496 0.79598 0.0
C107 C 0.93455 0.62559 0.82969 0.0
O108 O 0.87409 0.63288 0.82836 0.0
O109 O 0.97179 0.67388 0.82855 0.0
O110 O 0.76059 0.71082 0.84592 0.0
O111 O 0.84673 0.77243 0.84945 0.0
O112 O 0.77238 0.63993 0.72983 0.0
Cd113 Cd 0.76156 0.58485 0.7095 0.0
Cd114 Cd 0.80102 0.69123 0.69655 0.0
O115 O 0.77422 0.73456 0.71786 0.0
O116 O 0.69887 0.51533 0.71493 0.0
O117 O 0.67736 0.59404 0.69777 0.0
C118 C 0.65797 0.5445 0.70573 0.0
C119 C 0.76817 0.72321 0.67115 0.0
C120 C 0.77273 0.70111 0.73063 0.0
C121 C 0.89407 0.58119 0.69783 0.0
O122 O 0.8873 0.64191 0.69694 0.0
O123 O 0.84612 0.54534 0.70087 0.0
O124 O 0.81039 0.75582 0.67912 0.0
O125 O 0.74086 0.67507 0.67812 0.0
O126 O 0.39555 0.25643 0.97868 0.0
Cd127 Cd 0.44567 0.25061 0.95753 0.0
Cd128 Cd 0.34 0.30858 0.94688 0.0
O129 O 0.30302 0.29477 0.96962 0.0
O130 O 0.514 0.18537 0.96238 0.0
O131 O 0.43634 0.16888 0.94461 0.0
C132 C 0.48504 0.14692 0.95259 0.0
C133 C 0.29784 0.27471 0.92256 0.0
C134 C 0.33843 0.27576 0.98121 0.0
C135 C 0.46012 0.38742 0.94698 0.0
O136 O 0.39951 0.38677 0.9451 0.0
O137 O 0.49052 0.33618 0.95079 0.0
O138 O 0.27221 0.32219 0.93026 0.0
O139 O 0.34379 0.24266 0.9294 0.0
O140 O 0.75773 0.89038 0.23119 0.0
Cd141 Cd 0.77027 0.94544 0.21088 0.0
Cd142 Cd 0.72497 0.84138 0.19771 0.0
O143 O 0.75033 0.79656 0.21902 0.0
O144 O 0.83691 1.01129 0.21628 0.0
O145 O 0.85249 0.93297 0.19867 0.0
C146 C 0.87507 0.98122 0.20667 0.0
C147 C 0.75318 0.80355 0.17252 0.0
C148 C 0.75402 0.82928 0.23187 0.0
C149 C 0.63799 0.95719 0.1992 0.0
O150 O 0.64178 0.89628 0.19797 0.0
O151 O 0.68767 0.99029 0.20255 0.0
O152 O 0.70885 0.77582 0.18076 0.0
O153 O 0.78474 0.85026 0.17906 0.0
O154 O 0.13893 0.26387 0.47824 0.0
Cd155 Cd 0.09508 0.27654 0.45619 0.0
Cd156 Cd 0.20103 0.21655 0.44785 0.0
O157 O 0.23665 0.23662 0.47046 0.0
O158 O 0.02653 0.34235 0.46032 0.0
O159 O 0.10988 0.36079 0.44466 0.0
C160 C 0.0588 0.38198 0.45162 0.0
C161 C 0.23965 0.24898 0.42326 0.0
C162 C 0.19729 0.25055 0.48155 0.0
C163 C 0.08021 0.1408 0.44567 0.0
O164 O 0.14105 0.13825 0.4468 0.0
O165 O 0.05073 0.19447 0.44702 0.0
O166 O 0.26734 0.20276 0.43111 0.0
O167 O 0.19384 0.2806 0.43013 0.0
O168 O 0.75867 0.89745 0.54941 0.0
Cd169 Cd 0.75437 0.94604 0.5709 0.0
Cd170 Cd 0.8084 0.83724 0.58101 0.0
O171 O 0.79592 0.80347 0.55788 0.0
O172 O 0.6907 0.01683 0.56675 0.0
O173 O 0.67292 0.93698 0.58369 0.0
C174 C 0.65188 0.98732 0.57623 0.0
C175 C 0.77068 0.79526 0.60479 0.0
C176 C 0.7775 0.84029 0.54654 0.0
C177 C 0.89139 0.95438 0.58224 0.0
O178 O 0.88813 0.89376 0.58395 0.0
O179 O 0.84172 0.9869 0.57818 0.0
O180 O 0.81823 0.76839 0.59743 0.0
O181 O 0.7403 0.8417 0.59772 0.0
O182 O 0.12418 0.25494 0.79983 0.0
Cd183 Cd 0.07589 0.23975 0.82102 0.0
Cd184 Cd 0.17698 0.30157 0.83158 0.0
O185 O 0.21845 0.285 0.80952 0.0
O186 O 0.01248 0.17093 0.81558 0.0
O187 O 0.09218 0.15667 0.83295 0.0
C188 C 0.04429 0.13308 0.825 0.0
C189 C 0.21725 0.27231 0.8565 0.0
C190 C 0.18254 0.27076 0.79766 0.0
C191 C 0.05251 0.37356 0.83142 0.0
O192 O 0.11341 0.37757 0.83175 0.0
O193 O 0.02517 0.31934 0.82933 0.0
O194 O 0.24172 0.31985 0.84864 0.0
O195 O 0.17304 0.23821 0.84964 0.0
O196 O 0.74726 0.63539 0.04823 0.0
Cd197 Cd 0.75765 0.5807 0.06871 0.0
Cd198 Cd 0.71491 0.68724 0.08146 0.0
O199 O 0.74132 0.73004 0.06008 0.0
O200 O 0.82142 0.51147 0.06356 0.0
O201 O 0.8411 0.59014 0.08081 0.0
C202 C 0.86143 0.54059 0.07296 0.0
C203 C 0.74715 0.72342 0.10657 0.0
C204 C 0.74513 0.69654 0.04736 0.0
C205 C 0.62474 0.57465 0.08022 0.0
O206 O 0.63004 0.63547 0.08128 0.0
O207 O 0.67349 0.53986 0.07704 0.0
O208 O 0.70322 0.75339 0.09847 0.0
O209 O 0.77589 0.67517 0.09993 0.0
O210 O 0.38675 0.25408 0.29761 0.0
Cd211 Cd 0.44222 0.26741 0.3179 0.0
Cd212 Cd 0.3391 0.2222 0.33093 0.0
O213 O 0.29333 0.2491 0.30981 0.0
O214 O 0.50869 0.33278 0.31224 0.0
O215 O 0.43059 0.35118 0.3296 0.0
C216 C 0.47895 0.37241 0.32156 0.0
C217 C 0.3072 0.25158 0.3565 0.0
C218 C 0.32565 0.25183 0.29695 0.0
C219 C 0.45359 0.13514 0.32957 0.0
O220 O 0.39266 0.1383 0.33019 0.0
O221 O 0.48658 0.18528 0.32669 0.0
O222 O 0.27622 0.20837 0.34845 0.0
O223 O 0.35355 0.28167 0.34953 0.0
C224 C 0.32826 0.276 0.13137 0.0
C225 C 0.26958 0.27748 0.12259 0.0
C226 C 0.21099 0.25069 0.14717 0.0
C227 C 0.27059 0.24157 0.1553 0.0
N228 N 0.38604 0.22797 0.15345 0.0
N229 N 0.15549 0.25668 0.12152 0.0
C230 C 0.32927 0.24913 0.14692 0.0
C231 C 0.21086 0.26225 0.13031 0.0
N232 N 0.38274 0.30309 0.12524 0.0
N233 N 0.15482 0.25072 0.15557 0.0
H234 H 0.15386 0.26386 0.10916 0.0
H235 H 0.1126 0.23937 0.12623 0.0
H236 H 0.15319 0.24359 0.16793 0.0
H237 H 0.1106 0.26354 0.15055 0.0
H238 H 0.42489 0.30862 0.13192 0.0
H239 H 0.38387 0.32687 0.11424 0.0
H240 H 0.42895 0.22683 0.14705 0.0
H241 H 0.38913 0.20458 0.16448 0.0
C242 C 0.82197 0.75383 0.39313 0.0
C243 C 0.77514 0.75594 0.40549 0.0
C244 C 0.68914 0.75836 0.3853 0.0
C245 C 0.73589 0.75299 0.37299 0.0
N246 N 0.8444 0.7256 0.36558 0.0
N247 N 0.66481 0.74097 0.41331 0.0
C248 C 0.80154 0.74393 0.37706 0.0
C249 C 0.70887 0.75173 0.40154 0.0
N250 N 0.88531 0.76626 0.39637 0.0
N251 N 0.62686 0.77441 0.3817 0.0
H252 H 0.67802 0.73441 0.42528 0.0
H253 H 0.61644 0.73162 0.41093 0.0
H254 H 0.6101 0.78241 0.37008 0.0
H255 H 0.59302 0.78588 0.39041 0.0
H256 H 0.91957 0.77212 0.38743 0.0
H257 H 0.903 0.77738 0.40772 0.0
H258 H 0.89178 0.71254 0.36819 0.0
H259 H 0.8306 0.71661 0.35375 0.0
C260 C 0.26004 0.20512 0.63597 0.0
C261 C 0.26289 0.25336 0.62389 0.0
C262 C 0.26416 0.33723 0.64452 0.0
C263 C 0.26517 0.28883 0.6566 0.0
N264 N 0.28244 0.17751 0.66365 0.0
N265 N 0.2857 0.36347 0.6168 0.0
C266 C 0.26924 0.22299 0.65225 0.0
C267 C 0.27094 0.31886 0.62823 0.0
N268 N 0.24391 0.14309 0.63218 0.0
N269 N 0.2521 0.40017 0.64836 0.0
H270 H 0.29228 0.35127 0.60479 0.0
H271 H 0.2981 0.41087 0.61951 0.0
H272 H 0.24406 0.4162 0.65999 0.0
H273 H 0.24379 0.4357 0.63976 0.0
H274 H 0.23437 0.10814 0.6408 0.0
H275 H 0.23356 0.12768 0.62058 0.0
H276 H 0.29195 0.12943 0.6609 0.0
H277 H 0.29073 0.18926 0.67564 0.0
C278 C 0.7812 0.68979 0.88115 0.0
C279 C 0.7822 0.74869 0.87256 0.0
C280 C 0.76179 0.80785 0.89749 0.0
C281 C 0.75285 0.74828 0.90556 0.0
N282 N 0.73882 0.63259 0.90383 0.0
N283 N 0.76672 0.8638 0.87195 0.0
C284 C 0.75843 0.68922 0.89707 0.0
C285 C 0.77083 0.80793 0.88056 0.0
N286 N 0.80444 0.63449 0.87436 0.0
N287 N 0.76387 0.86396 0.90604 0.0
H288 H 0.77327 0.8654 0.85958 0.0
H289 H 0.75189 0.90752 0.87683 0.0
H290 H 0.7585 0.86547 0.91845 0.0
H291 H 0.77651 0.90815 0.90107 0.0
H292 H 0.81105 0.59186 0.88077 0.0
H293 H 0.82378 0.63278 0.86287 0.0
H294 H 0.73542 0.58962 0.89742 0.0
H295 H 0.71924 0.62947 0.91525 0.0
C296 C 0.7534 0.82438 0.63383 0.0
C297 C 0.75603 0.7768 0.62156 0.0
C298 C 0.76053 0.69191 0.64192 0.0
C299 C 0.75469 0.73938 0.65414 0.0
N300 N 0.72491 0.84784 0.66129 0.0
N301 N 0.7423 0.66562 0.61399 0.0
C302 C 0.74406 0.80465 0.64992 0.0
C303 C 0.75289 0.71061 0.62565 0.0
N304 N 0.76495 0.88782 0.63051 0.0
N305 N 0.77807 0.63008 0.64561 0.0
H306 H 0.73499 0.67807 0.602 0.0
H307 H 0.7338 0.61718 0.61648 0.0
H308 H 0.78711 0.61409 0.65723 0.0
H309 H 0.78976 0.59597 0.63694 0.0
H310 H 0.77029 0.92265 0.63941 0.0
H311 H 0.776 0.90513 0.61916 0.0
H312 H 0.71085 0.89486 0.65856 0.0
H313 H 0.71622 0.83447 0.67314 0.0
C314 C 0.21184 0.25503 0.902 0.0
C315 C 0.2781 0.26153 0.90575 0.0
C316 C 0.30345 0.25499 0.87712 0.0
C317 C 0.23711 0.26047 0.87336 0.0
N318 N 0.1276 0.27462 0.8825 0.0
N319 N 0.38725 0.27725 0.89649 0.0
C320 C 0.19089 0.26201 0.88585 0.0
C321 C 0.32427 0.26319 0.89324 0.0
N322 N 0.16899 0.24156 0.91387 0.0
N323 N 0.34657 0.24137 0.8653 0.0
H324 H 0.40496 0.28625 0.90797 0.0
H325 H 0.42098 0.28615 0.88759 0.0
H326 H 0.33262 0.23401 0.85341 0.0
H327 H 0.39478 0.23069 0.86758 0.0
H328 H 0.12095 0.23023 0.91164 0.0
H329 H 0.18309 0.23502 0.92578 0.0
H330 H 0.09356 0.28351 0.89134 0.0
H331 H 0.10983 0.28225 0.87096 0.0
C332 C 0.76957 0.80878 0.12701 0.0
C333 C 0.76116 0.74261 0.12337 0.0
C334 C 0.7692 0.71729 0.15198 0.0
C335 C 0.76435 0.7838 0.15566 0.0
N336 N 0.74999 0.89344 0.1462 0.0
N337 N 0.74309 0.63382 0.13292 0.0
C338 C 0.76273 0.83 0.14308 0.0
C339 C 0.75916 0.6965 0.13596 0.0
N340 N 0.78472 0.85133 0.11514 0.0
N341 N 0.78397 0.67396 0.16378 0.0
H342 H 0.73205 0.61633 0.12155 0.0
H343 H 0.73431 0.60043 0.14196 0.0
H344 H 0.79337 0.68789 0.17558 0.0
H345 H 0.79385 0.62557 0.16148 0.0
H346 H 0.79714 0.89913 0.11738 0.0
H347 H 0.79185 0.83699 0.1033 0.0
H348 H 0.74146 0.92726 0.13719 0.0
H349 H 0.74142 0.91147 0.15762 0.0
C350 C 0.20825 0.2615 0.39418 0.0
C351 C 0.25674 0.26126 0.4063 0.0
C352 C 0.33993 0.25867 0.38565 0.0
C353 C 0.29147 0.2631 0.37358 0.0
N354 N 0.1814 0.28815 0.36671 0.0
N355 N 0.36796 0.27812 0.41344 0.0
C356 C 0.22622 0.27102 0.37799 0.0
C357 C 0.32239 0.26599 0.40198 0.0
N358 N 0.1457 0.24783 0.39782 0.0
N359 N 0.40184 0.24295 0.38178 0.0
H360 H 0.35645 0.28529 0.42546 0.0
H361 H 0.41583 0.28796 0.41074 0.0
H362 H 0.41702 0.23419 0.37012 0.0
H363 H 0.43694 0.23229 0.39036 0.0
H364 H 0.11032 0.24079 0.3891 0.0
H365 H 0.13003 0.23666 0.40931 0.0
H366 H 0.13416 0.30032 0.36957 0.0
H367 H 0.19332 0.29711 0.3548 0.0
C368 C 0.22787 0.19753 0.26045 0.0
C369 C 0.26619 0.2251 0.24827 0.0
C370 C 0.31914 0.29102 0.26875 0.0
C371 C 0.29415 0.25048 0.28087 0.0
N372 N 0.22603 0.15978 0.28775 0.0
N373 N 0.35389 0.29684 0.24131 0.0
C374 C 0.24775 0.20299 0.2767 0.0
C375 C 0.31258 0.27262 0.25244 0.0
N376 N 0.17251 0.16602 0.25644 0.0
N377 N 0.34933 0.34701 0.27287 0.0
H378 H 0.35331 0.28394 0.22928 0.0
H379 H 0.39287 0.32595 0.24437 0.0
H380 H 0.3522 0.36268 0.28474 0.0
H381 H 0.36425 0.38091 0.26447 0.0
H382 H 0.14008 0.14904 0.26492 0.0
H383 H 0.15567 0.16417 0.24465 0.0
H384 H 0.19782 0.12019 0.28465 0.0
H385 H 0.24019 0.15959 0.29971 0.0
C386 C 0.77056 0.76023 0.50521 0.0
C387 C 0.82066 0.79408 0.49738 0.0
C388 C 0.83992 0.85892 0.52154 0.0
C389 C 0.79203 0.82294 0.52969 0.0
N390 N 0.71484 0.73674 0.53013 0.0
N391 N 0.90724 0.87188 0.49829 0.0
C392 C 0.75825 0.77266 0.52176 0.0
C393 C 0.85638 0.84236 0.50561 0.0
N394 N 0.73474 0.71664 0.49674 0.0
N395 N 0.86929 0.91004 0.52893 0.0
H396 H 0.91794 0.86682 0.4862 0.0
H397 H 0.9416 0.89914 0.50434 0.0
H398 H 0.86447 0.92078 0.54104 0.0
H399 H 0.89621 0.94456 0.52294 0.0
H400 H 0.69365 0.69439 0.5011 0.0
H401 H 0.74437 0.70483 0.48485 0.0
H402 H 0.69272 0.69549 0.5257 0.0
H403 H 0.703 0.74651 0.54201 0.0
C404 C 0.27289 0.27107 0.7578 0.0
C405 C 0.23347 0.31448 0.74898 0.0
C406 C 0.1677 0.33426 0.77264 0.0
C407 C 0.20301 0.28649 0.78115 0.0
N408 N 0.28449 0.20369 0.78152 0.0
N409 N 0.13446 0.37511 0.74679 0.0
C410 C 0.25453 0.25324 0.77366 0.0
C411 C 0.17814 0.34227 0.75605 0.0
N412 N 0.32847 0.24842 0.75119 0.0
N413 N 0.1263 0.37434 0.78057 0.0
H414 H 0.13947 0.3809 0.73445 0.0
H415 H 0.09003 0.39071 0.75104 0.0
H416 H 0.11927 0.37241 0.79292 0.0
H417 H 0.10432 0.41414 0.77521 0.0
H418 H 0.36283 0.22203 0.75754 0.0
H419 H 0.34207 0.25959 0.7395 0.0
H420 H 0.31805 0.17334 0.77617 0.0
H421 H 0.27239 0.1901 0.79314 0.0
C422 C 0.69842 0.77331 0.02656 0.0
C423 C 0.74549 0.72696 0.03122 0.0
C424 C 0.77194 0.70805 1.00306 0.0
C425 C 0.72538 0.75499 0.99839 0.0
N426 N 0.66425 0.8487 1.00603 0.0
N427 N 0.84297 0.67083 0.02424 0.0
C428 C 0.6955 0.79329 1.0103 0.0
C429 C 0.78778 0.7015 0.01954 0.0
N430 N 0.6533 0.79487 0.03713 0.0
N431 N 0.7975 0.66611 0.99219 0.0
H432 H 0.85681 0.66765 0.03626 0.0
H433 H 0.87808 0.6557 0.0162 0.0
H434 H 0.78606 0.66616 0.98005 0.0
H435 H 0.82599 0.62688 0.99555 0.0
H436 H 0.61412 0.82313 0.03363 0.0
H437 H 0.65109 0.78028 0.04903 0.0
H438 H 0.64572 0.8811 0.01437 0.0
H439 H 0.66396 0.86564 0.99426 0.0
C440 C 0.23874 0.27843 0.0197 0.0
C441 C 0.28227 0.31024 0.03014 0.0
C442 C 0.35915 0.32285 1.00837 0.0
C443 C 0.31817 0.28658 0.99806 0.0
N444 N 0.22369 0.22065 0.99462 0.0
N445 N 0.38962 0.34881 0.03558 0.0
C446 C 0.25909 0.26174 1.00391 0.0
C447 C 0.34434 0.32773 0.02483 0.0
N448 N 0.17774 0.2656 0.02474 0.0
N449 N 0.41014 0.35641 1.00234 0.0
H450 H 0.38076 0.35354 0.04781 0.0
H451 H 0.43778 0.35551 0.03263 0.0
H452 H 0.42225 0.35693 0.99027 0.0
H453 H 0.43653 0.38958 1.00904 0.0
H454 H 0.14137 0.24888 0.0172 0.0
H455 H 0.16253 0.2755 0.03638 0.0
H456 H 0.18339 0.19617 0.99874 0.0
H457 H 0.23776 0.20677 0.98316 0.0
C458 C 0.69793 0.73126 0.26796 0.0
C459 C 0.72491 0.76938 0.28038 0.0
C460 C 0.79137 0.82298 0.26031 0.0
C461 C 0.75142 0.79817 0.24794 0.0
N462 N 0.66021 0.73099 0.24062 0.0
N463 N 0.7956 0.85774 0.28782 0.0
C464 C 0.70361 0.75186 0.25182 0.0
C465 C 0.77223 0.81622 0.27651 0.0
N466 N 0.66667 0.67545 0.27162 0.0
N467 N 0.84758 0.85309 0.25653 0.0
H468 H 0.78191 0.85731 0.29977 0.0
H469 H 0.82468 0.89687 0.28496 0.0
H470 H 0.86395 0.85592 0.24476 0.0
H471 H 0.88098 0.86785 0.26513 0.0
H472 H 0.6502 0.64329 0.26294 0.0
H473 H 0.66449 0.658 0.28333 0.0
H474 H 0.62063 0.70269 0.24355 0.0
H475 H 0.65953 0.74625 0.22876 0.0
C476 C 0.26075 0.27507 0.50681 0.0
C477 C 0.21434 0.23748 0.4985 0.0
C478 C 0.18577 0.18297 0.52341 0.0
C479 C 0.23648 0.21542 0.53146 0.0
N480 N 0.32713 0.28734 0.53073 0.0
N481 N 0.14411 0.14483 0.4981 0.0
C482 C 0.27536 0.26035 0.52315 0.0
C483 C 0.18012 0.18832 0.50658 0.0
N484 N 0.28933 0.32571 0.49923 0.0
N485 N 0.14142 0.1487 0.53193 0.0
H486 H 0.14052 0.14527 0.48563 0.0
H487 H 0.12352 0.10416 0.50326 0.0
H488 H 0.14235 0.14528 0.54439 0.0
H489 H 0.09983 0.12953 0.5268 0.0
H490 H 0.31861 0.35905 0.50506 0.0
H491 H 0.28012 0.33697 0.48725 0.0
H492 H 0.36131 0.31525 0.5249 0.0
H493 H 0.33824 0.27816 0.54272 0.0
C494 C 0.82221 0.77589 0.75133 0.0
C495 C 0.7735 0.73144 0.74676 0.0
C496 C 0.7491 0.71105 0.77496 0.0
C497 C 0.79791 0.7554 0.77955 0.0
N498 N 0.86225 0.84683 0.77216 0.0
N499 N 0.67567 0.67717 0.75395 0.0
C500 C 0.828 0.79364 0.76771 0.0
C501 C 0.73171 0.70624 0.75853 0.0
N502 N 0.86611 0.79753 0.74049 0.0
N503 N 0.72281 0.66973 0.78584 0.0
H504 H 0.66116 0.6748 0.74197 0.0
H505 H 0.64079 0.66237 0.76207 0.0
H506 H 0.73501 0.66904 0.79793 0.0
H507 H 0.69265 0.63189 0.78253 0.0
H508 H 0.90669 0.82387 0.7438 0.0
H509 H 0.86544 0.7852 0.72842 0.0
H510 H 0.88111 0.87947 0.76396 0.0
H511 H 0.86508 0.86197 0.78407 0.0
C512 C 0.04362 0.02011 0.19122 0.0
C513 C 0.07729 0.02919 0.20591 0.0
C514 C 0.98033 0.99952 0.22072 0.0
C515 C 0.94465 0.99762 0.20618 0.0
N516 N 0.94 0.01616 0.17767 0.0
N517 N 0.07254 0.04267 0.23468 0.0
C518 C 0.97565 1.01058 0.19141 0.0
C519 C 0.04423 0.02311 0.22067 0.0
N520 N 0.07674 0.01811 0.17714 0.0
N521 N 0.95445 0.97607 0.23456 0.0
H522 H 0.11855 0.06225 0.23529 0.0
H523 H 0.04773 0.04589 0.24546 0.0
H524 H 0.90853 0.95629 0.23517 0.0
H525 H 0.98111 0.96986 0.24507 0.0
H526 H 0.0558 1.00509 0.16625 0.0
H527 H 0.12653 0.02361 0.17656 0.0
H528 H 0.95895 0.03211 0.16686 0.0
H529 H 0.89016 1.01052 0.17739 0.0
C530 C 0.03489 0.48526 0.46589 0.0
C531 C 0.04146 0.45152 0.45121 0.0
C532 C 0.01925 0.55193 0.4365 0.0
C533 C 1.00551 0.58335 0.45121 0.0
N534 N 0.98428 0.57414 0.47958 0.0
N535 N 0.03075 0.45016 0.42242 0.0
C536 C 1.00887 0.54844 0.46582 0.0
C537 C 0.03129 0.48416 0.43644 0.0
N538 N 0.05609 0.45824 0.47991 0.0
N539 N 0.02292 0.58707 0.4227 0.0
H540 H 0.03862 0.40054 0.42194 0.0
H541 H 0.01702 0.47005 0.41147 0.0
H542 H 0.01511 0.63672 0.42234 0.0
H543 H 0.03917 0.56809 0.4119 0.0
H544 H 0.05835 0.48366 0.49067 0.0
H545 H 0.07814 0.41309 0.48052 0.0
H546 H 0.97967 0.54779 0.49014 0.0
H547 H 0.96177 0.61907 0.48005 0.0
C548 C 0.49188 0.4957 0.72027 0.0
C549 C 0.4566 0.49326 0.70567 0.0
C550 C 0.55595 0.51492 0.69084 0.0
C551 C 0.58901 0.52551 0.70555 0.0
N552 N 0.58306 0.54086 0.73426 0.0
N553 N 0.45288 0.50992 0.67708 0.0
C554 C 0.55557 0.51993 0.72028 0.0
C555 C 0.48804 0.50525 0.69092 0.0
N556 N 0.4657 0.4724 0.73408 0.0
N557 N 0.58962 0.51185 0.67685 0.0
H558 H 0.40308 0.5041 0.6767 0.0
H559 H 0.47222 0.52525 0.66626 0.0
H560 H 0.63944 0.51723 0.67637 0.0
H561 H 0.56909 0.49788 0.66599 0.0
H562 H 0.49202 0.46713 0.74468 0.0
H563 H 0.42014 0.4516 0.73457 0.0
H564 H 0.55782 0.54412 0.74497 0.0
H565 H 0.62857 0.56164 0.73488 0.0
C566 C 0.51832 0.04565 0.93785 0.0
C567 C 0.50188 0.07729 0.95234 0.0
C568 C 0.52659 0.97897 0.96742 0.0
C569 C 0.53668 0.94514 0.95286 0.0
N570 N 0.53166 0.94368 0.92398 0.0
N571 N 0.4739 0.06861 0.98033 0.0
C572 C 0.52978 0.97777 0.93797 0.0
C573 C 0.50129 0.0424 0.96696 0.0
N574 N 0.52506 0.08064 0.92411 0.0
N575 N 0.54395 0.95193 0.98176 0.0
H576 H 0.45216 0.11396 0.98045 0.0
H577 H 0.46632 0.04243 0.9908 0.0
H578 H 0.56498 0.90648 0.98276 0.0
H579 H 0.54397 0.97746 0.99251 0.0
H580 H 0.54349 0.0615 0.91355 0.0
H581 H 0.51734 0.1303 0.92362 0.0
H582 H 0.52047 0.96367 0.91286 0.0
H583 H 0.53867 0.89392 0.92361 0.0
C584 C 0.02844 0.49059 0.05913 0.0
C585 C 0.06284 0.48794 0.07385 0.0
C586 C 0.96259 0.51052 0.0883 0.0
C587 C 0.93049 0.52142 0.07345 0.0
N588 N 0.93834 0.53649 0.04477 0.0
N589 N 0.06478 0.50396 0.10246 0.0
C590 C 0.96485 0.5154 0.05886 0.0
C591 C 0.03049 0.50004 0.08848 0.0
N592 N 0.05545 0.467 0.04543 0.0
N593 N 0.92801 0.50789 0.10214 0.0
H594 H 0.11448 0.49715 0.10304 0.0
H595 H 0.04491 0.5194 0.11323 0.0
H596 H 0.8782 0.51389 0.10243 0.0
H597 H 0.94775 0.49376 0.1131 0.0
H598 H 0.02979 0.46186 0.03474 0.0
H599 H 0.101 0.44582 0.04513 0.0
H600 H 0.96427 0.53943 0.03415 0.0
H601 H 0.89296 0.55771 0.04395 0.0
C602 C 0.51733 0.54238 0.33644 0.0
C603 C 0.5277 0.57466 0.32168 0.0
C604 C 0.49938 0.47621 0.30709 0.0
C605 C 0.49612 0.4419 0.32178 0.0
N606 N 0.51279 0.43996 0.3504 0.0
N607 N 0.54382 0.56728 0.29307 0.0
C608 C 0.508 0.47433 0.33648 0.0
C609 C 0.52299 0.5402 0.30703 0.0
N610 N 0.51394 0.5769 0.35035 0.0
N611 N 0.47715 0.449 0.2932 0.0
H612 H 0.56353 0.61328 0.29242 0.0
H613 H 0.54792 0.54146 0.28241 0.0
H614 H 0.45738 0.403 0.29264 0.0
H615 H 0.47198 0.47472 0.28255 0.0
H616 H 0.49994 0.55691 0.36123 0.0
H617 H 0.51917 0.62685 0.35077 0.0
H618 H 0.52789 0.46006 0.36122 0.0
H619 H 0.50758 0.39002 0.35086 0.0
C620 C 0.55236 0.01846 0.59177 0.0
C621 C 0.58283 1.00596 0.5769 0.0
C622 C 0.48363 0.03535 0.56265 0.0
C623 C 0.4509 0.04056 0.57746 0.0
N624 N 0.45166 0.02807 0.60618 0.0
N625 N 0.57193 0.9866 0.54843 0.0
C626 C 0.48461 0.02981 0.59208 0.0
C627 C 0.54697 1.00999 0.5624 0.0
N628 N 0.58836 0.02162 0.60549 0.0
N629 N 0.45545 0.05722 0.54882 0.0
H630 H 0.61699 0.96462 0.54771 0.0
H631 H 0.54496 0.98244 0.53791 0.0
H632 H 0.41009 0.07881 0.54846 0.0
H633 H 0.48004 0.06051 0.53802 0.0
H634 H 0.57001 0.03699 0.61643 0.0
H635 H 0.63804 0.01436 0.60567 0.0
H636 H 0.4724 0.01383 0.61701 0.0
H637 H 0.40209 0.03546 0.60684 0.0
C638 C 0.01485 0.03049 0.83954 0.0
C639 C 0.03049 0.06294 0.82512 0.0
C640 C 1.0078 0.96497 0.80977 0.0
C641 C 0.99755 0.93064 0.82426 0.0
N642 N 1.00308 0.92781 0.85313 0.0
N643 N 0.05867 0.05612 0.79714 0.0
C644 C 1.00437 0.96258 0.83923 0.0
C645 C 0.03196 0.0287 0.81042 0.0
N646 N 1.00762 0.06476 0.85339 0.0
N647 N 0.99124 0.93833 0.79535 0.0
H648 H 0.07903 0.10201 0.79717 0.0
H649 H 0.06697 0.03066 0.78659 0.0
H650 H 0.97109 0.89268 0.79417 0.0
H651 H 0.99113 0.96427 0.78466 0.0
H652 H 0.9895 0.04492 0.86389 0.0
H653 H 0.01466 0.11443 0.85404 0.0
H654 H 0.01412 0.94734 0.8643 0.0
H655 H 0.99694 0.87794 0.85334 0.0
C656 C 0.53371 0.98074 0.21276 0.0
C657 C 0.57362 0.988 0.19913 0.0
C658 C 0.48704 0.046 0.18505 0.0
C659 C 0.44878 0.04232 0.19905 0.0
N660 N 0.43942 0.01692 0.22716 0.0
N661 N 0.59257 0.03304 0.17302 0.0
C662 C 0.47296 1.01229 0.21314 0.0
C663 C 0.55159 0.02249 0.18548 0.0
N664 N 0.55375 0.94333 0.22535 0.0
N665 N 0.4607 0.06982 0.1712 0.0
H666 H 0.63929 0.01454 0.17276 0.0
H667 H 0.58208 0.06344 0.16343 0.0
H668 H 0.41342 0.08666 0.17048 0.0
H669 H 0.48354 0.0684 0.16016 0.0
H670 H 0.52369 0.92919 0.23463 0.0
H671 H 0.59953 0.92278 0.22611 0.0
H672 H 0.45791 1.00286 0.23824 0.0
H673 H 0.39492 0.03994 0.22805 0.0
C674 C 0.029 0.97224 0.43273 0.0
C675 C 0.98464 0.95666 0.44498 0.0
C676 C 1.00332 0.06181 0.45767 0.0
C677 C 0.04385 0.07944 0.44479 0.0
N678 N 0.08791 0.05618 0.41881 0.0
N679 N 0.92027 0.99135 0.46751 0.0
C680 C 0.05476 0.03585 0.43196 0.0
C681 C 0.96868 1.00305 0.45688 0.0
N682 N 0.04649 0.92627 0.42185 0.0
N683 N 1.001 0.09903 0.47119 0.0
H684 H 0.8951 0.94816 0.46803 0.0
H685 H 0.9014 0.02661 0.47503 0.0
H686 H 0.02623 0.14202 0.47255 0.0
H687 H 0.97895 0.08427 0.48174 0.0
H688 H 0.08383 0.9321 0.41373 0.0
H689 H 0.02609 0.88041 0.42156 0.0
H690 H 0.09242 0.0292 0.40836 0.0
H691 H 0.1064 0.10269 0.41779 0.0
C692 C 0.04878 0.50147 0.6834 0.0
C693 C 0.08574 0.50201 0.69776 0.0
C694 C 0.99893 0.55933 0.7116 0.0
C695 C 0.95982 0.55362 0.69767 0.0
N696 N 0.94408 0.51576 0.67068 0.0
N697 N 0.09335 0.52284 0.72618 0.0
C698 C 0.9838 0.52367 0.68364 0.0
C699 C 0.0604 0.52919 0.71201 0.0
N700 N 0.07665 0.48123 0.66948 0.0
N701 N 0.97735 0.59383 0.72448 0.0
H702 H 0.1389 0.50199 0.72708 0.0
H703 H 0.07372 0.53379 0.73729 0.0
H704 H 0.93119 0.61347 0.72513 0.0
H705 H 1.00655 0.60673 0.73414 0.0
H706 H 0.0548 0.48495 0.65827 0.0
H707 H 0.12426 0.46525 0.66895 0.0
H708 H 0.95604 0.4885 0.66066 0.0
H709 H 0.89702 0.5334 0.67032 0.0
C710 C 0.48088 0.49468 0.95971 0.0
C711 C 0.49336 0.4506 0.94705 0.0
C712 C 0.56059 0.5316 0.93382 0.0
C713 C 0.55222 0.57332 0.94713 0.0
N714 N 0.51593 0.58925 0.97426 0.0
N715 N 0.55031 0.42342 0.92292 0.0
C716 C 0.51538 0.5535 0.96048 0.0
C717 C 0.53517 0.46784 0.93439 0.0
N718 N 0.43548 0.48085 0.97098 0.0
N719 N 0.59036 0.55402 0.92038 0.0
H720 H 0.53033 0.37737 0.92262 0.0
H721 H 0.58568 0.43055 0.91433 0.0
H722 H 0.60781 0.60095 0.91949 0.0
H723 H 0.5929 0.52843 0.90969 0.0
H724 H 0.4187 0.51448 0.97923 0.0
H725 H 0.41066 0.43741 0.9714 0.0
H726 H 0.49636 0.5733 0.985 0.0
H727 H 0.54128 0.63228 0.9755 0.0
C728 C 0.53783 0.51315 0.09441 0.0
C729 C 0.55971 0.54557 0.08052 0.0
C730 C 0.45879 0.52009 0.06649 0.0
C731 C 0.43507 0.4914 0.08071 0.0
N732 N 0.44736 0.4673 0.10877 0.0
N733 N 0.53891 0.58792 0.05403 0.0
C734 C 0.47341 0.48969 0.09484 0.0
C735 C 0.51937 0.55169 0.0668 0.0
N736 N 0.57894 0.50426 0.10707 0.0
N737 N 0.42517 0.51386 0.05242 0.0
H738 H 0.58442 0.6087 0.05329 0.0
H739 H 0.50857 0.60103 0.0446 0.0
H740 H 0.3806 0.49112 0.05158 0.0
H741 H 0.44362 0.52645 0.04129 0.0
H742 H 0.56864 0.47526 0.11689 0.0
H743 H 0.62554 0.52284 0.10733 0.0
H744 H 0.47023 0.46999 0.11987 0.0
H745 H 0.40021 0.45042 0.10946 0.0
C746 C 0.49346 0.03817 0.315 0.0
C747 C 0.48485 0.07104 0.32974 0.0
C748 C 0.53257 0.97989 0.34438 0.0
C749 C 0.53747 0.94547 0.32974 0.0
N750 N 0.51766 0.93803 0.30127 0.0
N751 N 0.48892 0.07248 0.35856 0.0
C752 C 0.51631 0.9735 0.31509 0.0
C753 C 0.50242 0.0417 0.34449 0.0
N754 N 0.48117 0.06954 0.30087 0.0
N755 N 0.55754 0.95369 0.35812 0.0
H756 H 0.4688 0.11859 0.35899 0.0
H757 H 0.49399 0.05126 0.36979 0.0
H758 H 0.57719 0.90739 0.35859 0.0
H759 H 0.56212 0.97877 0.36886 0.0
H760 H 0.49334 0.05143 0.28967 0.0
H761 H 0.46261 0.11625 0.30029 0.0
H762 H 0.49579 0.95242 0.29061 0.0
H763 H 0.53736 0.89186 0.30059 0.0
C764 C 1.00192 0.97025 0.57104 0.0
C765 C 0.95572 0.98534 0.58299 0.0
C766 C 0.03531 0.05348 0.59672 0.0
C767 C 0.07887 0.04335 0.58391 0.0
N768 N 0.09824 1.00311 0.55721 0.0
N769 N 0.92574 0.04513 0.60654 0.0
C770 C 0.06096 1.00438 0.57066 0.0
C771 C 0.97157 0.02834 0.59562 0.0
N772 N 0.98979 0.92311 0.55998 0.0
N773 N 0.05576 0.08526 0.61016 0.0
H774 H 0.87973 0.02517 0.60655 0.0
H775 H 0.93183 0.08157 0.61497 0.0
H776 H 0.10234 0.1033 0.61141 0.0
H777 H 0.02877 0.08905 0.62058 0.0
H778 H 0.02483 0.90466 0.55237 0.0
H779 H 0.94636 0.89849 0.55915 0.0
H780 H 0.08338 0.98233 0.54645 0.0
H781 H 0.14146 0.02803 0.55616 0.0
C782 C 0.96411 0.52198 0.81637 0.0
C783 C 0.9616 0.55962 0.83054 0.0
C784 C 0.01379 0.47259 0.84578 0.0
C785 C 0.01451 0.43413 0.8317 0.0
N786 N 0.9825 0.41764 0.80413 0.0
N787 N 0.97394 0.5688 0.85913 0.0
C788 C 0.98677 0.4573 0.81719 0.0
C789 C 0.98354 0.53433 0.84539 0.0
N790 N 0.94764 0.54924 0.80197 0.0
N791 N 0.04302 0.45035 0.85943 0.0
H792 H 0.95294 0.61454 0.85918 0.0
H793 H 0.98253 0.55066 0.87057 0.0
H794 H 0.06194 0.40386 0.86041 0.0
H795 H 0.05121 0.47858 0.86953 0.0
H796 H 0.95565 0.52742 0.79094 0.0
H797 H 0.93016 0.59622 0.80087 0.0
H798 H 0.95621 0.42886 0.79385 0.0
H799 H 1.00146 0.37113 0.80386 0.0
loop_
_geom_bond_atom_site_label_1
_geom_bond_atom_site_label_2
_geom_bond_distance
_geom_bond_site_symmetry_2
_ccdc_geom_bond_type
O0 Cd1 2.223 . S
O0 C8 1.315 . S
Cd1 O0 2.223 . S
Cd1 O4 2.297 . S
Cd1 O5 2.439 . S
Cd1 O11 2.240 . S
Cd2 O3 2.240 . S
Cd2 O10 2.223 . S
Cd2 O12 2.297 . S
Cd2 O13 2.439 . S
O3 Cd2 2.240 . S
O3 C8 1.279 . S
O4 Cd1 2.297 . S
O4 C6 1.247 . S
O5 Cd1 2.439 . S
O5 C6 1.208 . S
C6 O4 1.247 . S
C6 O5 1.208 . S
C7 O12 1.247 . S
C7 O13 1.208 . S
C8 O0 1.315 . S
C8 O3 1.279 . S
C9 O10 1.315 . S
C9 O11 1.279 . S
O10 Cd2 2.223 . S
O10 C9 1.315 . S
O11 Cd1 2.240 . S
O11 C9 1.279 . S
O12 Cd2 2.297 . S
O12 C7 1.247 . S
O13 Cd2 2.439 . S
O13 C7 1.208 . S
O14 Cd15 2.223 . S
O14 C22 1.315 . S
Cd15 O14 2.223 . S
Cd15 O18 2.297 . S
Cd15 O19 2.439 . S
Cd15 O25 2.240 . S
Cd16 O17 2.240 . S
Cd16 O24 2.223 . S
Cd16 O26 2.297 . S
Cd16 O27 2.439 . S
O17 Cd16 2.240 . S
O17 C22 1.279 . S
O18 Cd15 2.297 . S
O18 C20 1.247 . S
O19 Cd15 2.439 . S
O19 C20 1.208 . S
C20 O18 1.247 . S
C20 O19 1.208 . S
C21 O26 1.247 . S
C21 O27 1.208 . S
C22 O14 1.315 . S
C22 O17 1.279 . S
C23 O24 1.315 . S
C23 O25 1.279 . S
O24 Cd16 2.223 . S
O24 C23 1.315 . S
O25 Cd15 2.240 . S
O25 C23 1.279 . S
O26 Cd16 2.297 . S
O26 C21 1.247 . S
O27 Cd16 2.439 . S
O27 C21 1.208 . S
O28 Cd29 2.223 . S
O28 C36 1.315 . S
Cd29 O28 2.223 . S
Cd29 O32 2.297 . S
Cd29 O33 2.439 . S
Cd29 O39 2.240 . S
Cd30 O31 2.240 . S
Cd30 O38 2.223 . S
Cd30 O40 2.297 . S
Cd30 O41 2.439 . S
O31 Cd30 2.240 . S
O31 C36 1.279 . S
O32 Cd29 2.297 . S
O32 C34 1.247 . S
O33 Cd29 2.439 . S
O33 C34 1.208 . S
C34 O32 1.247 . S
C34 O33 1.208 . S
C35 O40 1.247 . S
C35 O41 1.208 . S
C36 O28 1.315 . S
C36 O31 1.279 . S
C37 O38 1.315 . S
C37 O39 1.279 . S
O38 Cd30 2.223 . S
O38 C37 1.315 . S
O39 Cd29 2.240 . S
O39 C37 1.279 . S
O40 Cd30 2.297 . S
O40 C35 1.247 . S
O41 Cd30 2.439 . S
O41 C35 1.208 . S
O42 Cd43 2.223 . S
O42 C50 1.315 . S
Cd43 O42 2.223 . S
Cd43 O46 2.297 . S
Cd43 O47 2.439 . S
Cd43 O53 2.240 . S
Cd44 O45 2.240 . S
Cd44 O52 2.223 . S
Cd44 O54 2.297 . S
Cd44 O55 2.439 . S
O45 Cd44 2.240 . S
O45 C50 1.279 . S
O46 Cd43 2.297 . S
O46 C48 1.247 . S
O47 Cd43 2.439 . S
O47 C48 1.208 . S
C48 O46 1.247 . S
C48 O47 1.208 . S
C49 O54 1.247 . S
C49 O55 1.208 . S
C50 O42 1.315 . S
C50 O45 1.279 . S
C51 O52 1.315 . S
C51 O53 1.279 . S
O52 Cd44 2.223 . S
O52 C51 1.315 . S
O53 Cd43 2.240 . S
O53 C51 1.279 . S
O54 Cd44 2.297 . S
O54 C49 1.247 . S
O55 Cd44 2.439 . S
O55 C49 1.208 . S
O56 Cd57 2.223 . S
O56 C64 1.315 . S
Cd57 O56 2.223 . S
Cd57 O60 2.297 . S
Cd57 O61 2.439 . S
Cd57 O67 2.240 . S
Cd58 O59 2.240 . S
Cd58 O66 2.223 . S
Cd58 O68 2.297 . S
Cd58 O69 2.439 . S
O59 Cd58 2.240 . S
O59 C64 1.279 . S
O60 Cd57 2.297 . S
O60 C62 1.247 . S
O61 Cd57 2.439 . S
O61 C62 1.208 . S
C62 O60 1.247 . S
C62 O61 1.208 . S
C63 O68 1.247 . S
C63 O69 1.208 . S
C64 O56 1.315 . S
C64 O59 1.279 . S
C65 O66 1.315 . S
C65 O67 1.279 . S
O66 Cd58 2.223 . S
O66 C65 1.315 . S
O67 Cd57 2.240 . S
O67 C65 1.279 . S
O68 Cd58 2.297 . S
O68 C63 1.247 . S
O69 Cd58 2.439 . S
O69 C63 1.208 . S
O70 Cd71 2.223 . S
O70 C78 1.315 . S
Cd71 O70 2.223 . S
Cd71 O74 2.297 . S
Cd71 O75 2.439 . S
Cd71 O81 2.240 . S
Cd72 O73 2.240 . S
Cd72 O80 2.223 . S
Cd72 O82 2.297 . S
Cd72 O83 2.439 . S
O73 Cd72 2.240 . S
O73 C78 1.279 . S
O74 Cd71 2.297 . S
O74 C76 1.247 . S
O75 Cd71 2.439 . S
O75 C76 1.208 . S
C76 O74 1.247 . S
C76 O75 1.208 . S
C77 O82 1.247 . S
C77 O83 1.208 . S
C78 O70 1.315 . S
C78 O73 1.279 . S
C79 O80 1.315 . S
C79 O81 1.279 . S
O80 Cd72 2.223 . S
O80 C79 1.315 . S
O81 Cd71 2.240 . S
O81 C79 1.279 . S
O82 Cd72 2.297 . S
O82 C77 1.247 . S
O83 Cd72 2.439 . S
O83 C77 1.208 . S
O84 Cd85 2.223 . S
O84 C92 1.315 . S
Cd85 O84 2.223 . S
Cd85 O88 2.297 . S
Cd85 O89 2.439 . S
Cd85 O95 2.240 . S
Cd86 O87 2.240 . S
Cd86 O94 2.223 . S
Cd86 O96 2.297 . S
Cd86 O97 2.439 . S
O87 Cd86 2.240 . S
O87 C92 1.279 . S
O88 Cd85 2.297 . S
O88 C90 1.247 . S
O89 Cd85 2.439 . S
O89 C90 1.208 . S
C90 O88 1.247 . S
C90 O89 1.208 . S
C91 O96 1.247 . S
C91 O97 1.208 . S
C92 O84 1.315 . S
C92 O87 1.279 . S
C93 O94 1.315 . S
C93 O95 1.279 . S
O94 Cd86 2.223 . S
O94 C93 1.315 . S
O95 Cd85 2.240 . S
O95 C93 1.279 . S
O96 Cd86 2.297 . S
O96 C91 1.247 . S
O97 Cd86 2.439 . S
O97 C91 1.208 . S
O98 Cd99 2.223 . S
O98 C106 1.315 . S
Cd99 O98 2.223 . S
Cd99 O102 2.297 . S
Cd99 O103 2.439 . S
Cd99 O109 2.240 . S
Cd100 O101 2.240 . S
Cd100 O108 2.223 . S
Cd100 O110 2.297 . S
Cd100 O111 2.439 . S
O101 Cd100 2.240 . S
O101 C106 1.279 . S
O102 Cd99 2.297 . S
O102 C104 1.247 . S
O103 Cd99 2.439 . S
O103 C104 1.208 . S
C104 O102 1.247 . S
C104 O103 1.208 . S
C105 O110 1.247 . S
C105 O111 1.208 . S
C106 O98 1.315 . S
C106 O101 1.279 . S
C107 O108 1.315 . S
C107 O109 1.279 . S
O108 Cd100 2.223 . S
O108 C107 1.315 . S
O109 Cd99 2.240 . S
O109 C107 1.279 . S
O110 Cd100 2.297 . S
O110 C105 1.247 . S
O111 Cd100 2.439 . S
O111 C105 1.208 . S
O112 Cd113 2.223 . S
O112 C120 1.315 . S
Cd113 O112 2.223 . S
Cd113 O116 2.297 . S
Cd113 O117 2.439 . S
Cd113 O123 2.240 . S
Cd114 O115 2.240 . S
Cd114 O122 2.223 . S
Cd114 O124 2.297 . S
Cd114 O125 2.439 . S
O115 Cd114 2.240 . S
O115 C120 1.279 . S
O116 Cd113 2.297 . S
O116 C118 1.247 . S
O117 Cd113 2.439 . S
O117 C118 1.208 . S
C118 O116 1.247 . S
C118 O117 1.208 . S
C119 O124 1.247 . S
C119 O125 1.208 . S
C120 O112 1.315 . S
C120 O115 1.279 . S
C121 O122 1.315 . S
C121 O123 1.279 . S
O122 Cd114 2.223 . S
O122 C121 1.315 . S
O123 Cd113 2.240 . S
O123 C121 1.279 . S
O124 Cd114 2.297 . S
O124 C119 1.247 . S
O125 Cd114 2.439 . S
O125 C119 1.208 . S
O126 Cd127 2.223 . S
O126 C134 1.315 . S
Cd127 O126 2.223 . S
Cd127 O130 2.297 . S
Cd127 O131 2.439 . S
Cd127 O137 2.240 . S
Cd128 O129 2.240 . S
Cd128 O136 2.223 . S
Cd128 O138 2.297 . S
Cd128 O139 2.439 . S
O129 Cd128 2.240 . S
O129 C134 1.279 . S
O130 Cd127 2.297 . S
O130 C132 1.247 . S
O131 Cd127 2.439 . S
O131 C132 1.208 . S
C132 O130 1.247 . S
C132 O131 1.208 . S
C133 O138 1.247 . S
C133 O139 1.208 . S
C134 O126 1.315 . S
C134 O129 1.279 . S
C135 O136 1.315 . S
C135 O137 1.279 . S
O136 Cd128 2.223 . S
O136 C135 1.315 . S
O137 Cd127 2.240 . S
O137 C135 1.279 . S
O138 Cd128 2.297 . S
O138 C133 1.247 . S
O139 Cd128 2.439 . S
O139 C133 1.208 . S
O140 Cd141 2.223 . S
O140 C148 1.315 . S
Cd141 O140 2.223 . S
Cd141 O144 2.297 . S
Cd141 O145 2.439 . S
Cd141 O151 2.240 . S
Cd142 O143 2.240 . S
Cd142 O150 2.223 . S
Cd142 O152 2.297 . S
Cd142 O153 2.439 . S
O143 Cd142 2.240 . S
O143 C148 1.279 . S
O144 Cd141 2.297 . S
O144 C146 1.247 . S
O145 Cd141 2.439 . S
O145 C146 1.208 . S
C146 O144 1.247 . S
C146 O145 1.208 . S
C147 O152 1.247 . S
C147 O153 1.208 . S
C148 O140 1.315 . S
C148 O143 1.279 . S
C149 O150 1.315 . S
C149 O151 1.279 . S
O150 Cd142 2.223 . S
O150 C149 1.315 . S
O151 Cd141 2.240 . S
O151 C149 1.279 . S
O152 Cd142 2.297 . S
O152 C147 1.247 . S
O153 Cd142 2.439 . S
O153 C147 1.208 . S
O154 Cd155 2.223 . S
O154 C162 1.315 . S
Cd155 O154 2.223 . S
Cd155 O158 2.297 . S
Cd155 O159 2.439 . S
Cd155 O165 2.240 . S
Cd156 O157 2.240 . S
Cd156 O164 2.223 . S
Cd156 O166 2.297 . S
Cd156 O167 2.439 . S
O157 Cd156 2.240 . S
O157 C162 1.279 . S
O158 Cd155 2.297 . S
O158 C160 1.247 . S
O159 Cd155 2.439 . S
O159 C160 1.208 . S
C160 O158 1.247 . S
C160 O159 1.208 . S
C161 O166 1.247 . S
C161 O167 1.208 . S
C162 O154 1.315 . S
C162 O157 1.279 . S
C163 O164 1.315 . S
C163 O165 1.279 . S
O164 Cd156 2.223 . S
O164 C163 1.315 . S
O165 Cd155 2.240 . S
O165 C163 1.279 . S
O166 Cd156 2.297 . S
O166 C161 1.247 . S
O167 Cd156 2.439 . S
O167 C161 1.208 . S
O168 Cd169 2.223 . S
O168 C176 1.315 . S
Cd169 O168 2.223 . S
Cd169 O172 2.297 . S
Cd169 O173 2.439 . S
Cd169 O179 2.240 . S
Cd170 O171 2.240 . S
Cd170 O178 2.223 . S
Cd170 O180 2.297 . S
Cd170 O181 2.439 . S
O171 Cd170 2.240 . S
O171 C176 1.279 . S
O172 Cd169 2.297 . S
O172 C174 1.247 . S
O173 Cd169 2.439 . S
O173 C174 1.208 . S
C174 O172 1.247 . S
C174 O173 1.208 . S
C175 O180 1.247 . S
C175 O181 1.208 . S
C176 O168 1.315 . S
C176 O171 1.279 . S
C177 O178 1.315 . S
C177 O179 1.279 . S
O178 Cd170 2.223 . S
O178 C177 1.315 . S
O179 Cd169 2.240 . S
O179 C177 1.279 . S
O180 Cd170 2.297 . S
O180 C175 1.247 . S
O181 Cd170 2.439 . S
O181 C175 1.208 . S
O182 Cd183 2.223 . S
O182 C190 1.315 . S
Cd183 O182 2.223 . S
Cd183 O186 2.297 . S
Cd183 O187 2.439 . S
Cd183 O193 2.240 . S
Cd184 O185 2.240 . S
Cd184 O192 2.223 . S
Cd184 O194 2.297 . S
Cd184 O195 2.439 . S
O185 Cd184 2.240 . S
O185 C190 1.279 . S
O186 Cd183 2.297 . S
O186 C188 1.247 . S
O187 Cd183 2.439 . S
O187 C188 1.208 . S
C188 O186 1.247 . S
C188 O187 1.208 . S
C189 O194 1.247 . S
C189 O195 1.208 . S
C190 O182 1.315 . S
C190 O185 1.279 . S
C191 O192 1.315 . S
C191 O193 1.279 . S
O192 Cd184 2.223 . S
O192 C191 1.315 . S
O193 Cd183 2.240 . S
O193 C191 1.279 . S
O194 Cd184 2.297 . S
O194 C189 1.247 . S
O195 Cd184 2.439 . S
O195 C189 1.208 . S
O196 Cd197 2.223 . S
O196 C204 1.315 . S
Cd197 O196 2.223 . S
Cd197 O200 2.297 . S
Cd197 O201 2.439 . S
Cd197 O207 2.240 . S
Cd198 O199 2.240 . S
Cd198 O206 2.223 . S
Cd198 O208 2.297 . S
Cd198 O209 2.439 . S
O199 Cd198 2.240 . S
O199 C204 1.279 . S
O200 Cd197 2.297 . S
O200 C202 1.247 . S
O201 Cd197 2.439 . S
O201 C202 1.208 . S
C202 O200 1.247 . S
C202 O201 1.208 . S
C203 O208 1.247 . S
C203 O209 1.208 . S
C204 O196 1.315 . S
C204 O199 1.279 . S
C205 O206 1.315 . S
C205 O207 1.279 . S
O206 Cd198 2.223 . S
O206 C205 1.315 . S
O207 Cd197 2.240 . S
O207 C205 1.279 . S
O208 Cd198 2.297 . S
O208 C203 1.247 . S
O209 Cd198 2.439 . S
O209 C203 1.208 . S
O210 Cd211 2.223 . S
O210 C218 1.315 . S
Cd211 O210 2.223 . S
Cd211 O214 2.297 . S
Cd211 O215 2.439 . S
Cd211 O221 2.240 . S
Cd212 O213 2.240 . S
Cd212 O220 2.223 . S
Cd212 O222 2.297 . S
Cd212 O223 2.439 . S
O213 Cd212 2.240 . S
O213 C218 1.279 . S
O214 Cd211 2.297 . S
O214 C216 1.247 . S
O215 Cd211 2.439 . S
O215 C216 1.208 . S
C216 O214 1.247 . S
C216 O215 1.208 . S
C217 O222 1.247 . S
C217 O223 1.208 . S
C218 O210 1.315 . S
C218 O213 1.279 . S
C219 O220 1.315 . S
C219 O221 1.279 . S
O220 Cd212 2.223 . S
O220 C219 1.315 . S
O221 Cd211 2.240 . S
O221 C219 1.279 . S
O222 Cd212 2.297 . S
O222 C217 1.247 . S
O223 Cd212 2.439 . S
O223 C217 1.208 . S
C224 C225 1.363 . S
C224 C230 1.379 . S
C224 N232 1.356 . S
C225 C224 1.363 . S
C225 C231 1.363 . S
C226 C227 1.363 . S
C226 C231 1.379 . S
C226 N233 1.356 . S
C227 C226 1.363 . S
C227 C230 1.363 . S
N228 C230 1.356 . S
N228 H240 0.984 . S
N228 H241 0.985 . S
N229 C231 1.356 . S
N229 H234 0.984 . S
N229 H235 0.985 . S
C230 C224 1.379 . S
C230 C227 1.363 . S
C230 N228 1.356 . S
C231 C225 1.363 . S
C231 C226 1.379 . S
C231 N229 1.356 . S
N232 C224 1.356 . S
N232 H238 0.984 . S
N232 H239 0.984 . S
N233 C226 1.356 . S
N233 H236 0.984 . S
N233 H237 0.985 . S
H234 N229 0.984 . S
H235 N229 0.985 . S
H236 N233 0.984 . S
H237 N233 0.985 . S
H238 N232 0.984 . S
H239 N232 0.984 . S
H240 N228 0.984 . S
H241 N228 0.985 . S
C242 C243 1.363 . S
C242 C248 1.379 . S
C242 N250 1.356 . S
C243 C242 1.363 . S
C243 C249 1.363 . S
C244 C245 1.363 . S
C244 C249 1.379 . S
C244 N251 1.356 . S
C245 C244 1.363 . S
C245 C248 1.363 . S
N246 C248 1.356 . S
N246 H258 0.984 . S
N246 H259 0.985 . S
N247 C249 1.356 . S
N247 H252 0.984 . S
N247 H253 0.985 . S
C248 C242 1.379 . S
C248 C245 1.363 . S
C248 N246 1.356 . S
C249 C243 1.363 . S
C249 C244 1.379 . S
C249 N247 1.356 . S
N250 C242 1.356 . S
N250 H256 0.984 . S
N250 H257 0.984 . S
N251 C244 1.356 . S
N251 H254 0.984 . S
N251 H255 0.985 . S
H252 N247 0.984 . S
H253 N247 0.985 . S
H254 N251 0.984 . S
H255 N251 0.985 . S
H256 N250 0.984 . S
H257 N250 0.984 . S
H258 N246 0.984 . S
H259 N246 0.985 . S
C260 C261 1.363 . S
C260 C266 1.379 . S
C260 N268 1.356 . S
C261 C260 1.363 . S
C261 C267 1.363 . S
C262 C263 1.363 . S
C262 C267 1.379 . S
C262 N269 1.356 . S
C263 C262 1.363 . S
C263 C266 1.363 . S
N264 C266 1.356 . S
N264 H276 0.984 . S
N264 H277 0.985 . S
N265 C267 1.356 . S
N265 H270 0.984 . S
N265 H271 0.985 . S
C266 C260 1.379 . S
C266 C263 1.363 . S
C266 N264 1.356 . S
C267 C261 1.363 . S
C267 C262 1.379 . S
C267 N265 1.356 . S
N268 C260 1.356 . S
N268 H274 0.984 . S
N268 H275 0.984 . S
N269 C262 1.356 . S
N269 H272 0.984 . S
N269 H273 0.985 . S
H270 N265 0.984 . S
H271 N265 0.985 . S
H272 N269 0.984 . S
H273 N269 0.985 . S
H274 N268 0.984 . S
H275 N268 0.984 . S
H276 N264 0.984 . S
H277 N264 0.985 . S
C278 C279 1.363 . S
C278 C284 1.379 . S
C278 N286 1.356 . S
C279 C278 1.363 . S
C279 C285 1.363 . S
C280 C281 1.363 . S
C280 C285 1.379 . S
C280 N287 1.356 . S
C281 C280 1.363 . S
C281 C284 1.363 . S
N282 C284 1.356 . S
N282 H294 0.984 . S
N282 H295 0.985 . S
N283 C285 1.356 . S
N283 H288 0.984 . S
N283 H289 0.985 . S
C284 C278 1.379 . S
C284 C281 1.363 . S
C284 N282 1.356 . S
C285 C279 1.363 . S
C285 C280 1.379 . S
C285 N283 1.356 . S
N286 C278 1.356 . S
N286 H292 0.984 . S
N286 H293 0.984 . S
N287 C280 1.356 . S
N287 H290 0.984 . S
N287 H291 0.985 . S
H288 N283 0.984 . S
H289 N283 0.985 . S
H290 N287 0.984 . S
H291 N287 0.985 . S
H292 N286 0.984 . S
H293 N286 0.984 . S
H294 N282 0.984 . S
H295 N282 0.985 . S
C296 C297 1.363 . S
C296 C302 1.379 . S
C296 N304 1.356 . S
C297 C296 1.363 . S
C297 C303 1.363 . S
C298 C299 1.363 . S
C298 C303 1.379 . S
C298 N305 1.356 . S
C299 C298 1.363 . S
C299 C302 1.363 . S
N300 C302 1.356 . S
N300 H312 0.984 . S
N300 H313 0.985 . S
N301 C303 1.356 . S
N301 H306 0.984 . S
N301 H307 0.985 . S
C302 C296 1.379 . S
C302 C299 1.363 . S
C302 N300 1.356 . S
C303 C297 1.363 . S
C303 C298 1.379 . S
C303 N301 1.356 . S
N304 C296 1.356 . S
N304 H310 0.984 . S
N304 H311 0.984 . S
N305 C298 1.356 . S
N305 H308 0.984 . S
N305 H309 0.985 . S
H306 N301 0.984 . S
H307 N301 0.985 . S
H308 N305 0.984 . S
H309 N305 0.985 . S
H310 N304 0.984 . S
H311 N304 0.984 . S
H312 N300 0.984 . S
H313 N300 0.985 . S
C314 C315 1.363 . S
C314 C320 1.379 . S
C314 N322 1.356 . S
C315 C314 1.363 . S
C315 C321 1.363 . S
C316 C317 1.363 . S
C316 C321 1.379 . S
C316 N323 1.356 . S
C317 C316 1.363 . S
C317 C320 1.363 . S
N318 C320 1.356 . S
N318 H330 0.984 . S
N318 H331 0.985 . S
N319 C321 1.356 . S
N319 H324 0.984 . S
N319 H325 0.985 . S
C320 C314 1.379 . S
C320 C317 1.363 . S
C320 N318 1.356 . S
C321 C315 1.363 . S
C321 C316 1.379 . S
C321 N319 1.356 . S
N322 C314 1.356 . S
N322 H328 0.984 . S
N322 H329 0.984 . S
N323 C316 1.356 . S
N323 H326 0.984 . S
N323 H327 0.985 . S
H324 N319 0.984 . S
H325 N319 0.985 . S
H326 N323 0.984 . S
H327 N323 0.985 . S
H328 N322 0.984 . S
H329 N322 0.984 . S
H330 N318 0.984 . S
H331 N318 0.985 . S
C332 C333 1.363 . S
C332 C338 1.379 . S
C332 N340 1.356 . S
C333 C332 1.363 . S
C333 C339 1.363 . S
C334 C335 1.363 . S
C334 C339 1.379 . S
C334 N341 1.356 . S
C335 C334 1.363 . S
C335 C338 1.363 . S
N336 C338 1.356 . S
N336 H348 0.984 . S
N336 H349 0.985 . S
N337 C339 1.356 . S
N337 H342 0.984 . S
N337 H343 0.985 . S
C338 C332 1.379 . S
C338 C335 1.363 . S
C338 N336 1.356 . S
C339 C333 1.363 . S
C339 C334 1.379 . S
C339 N337 1.356 . S
N340 C332 1.356 . S
N340 H346 0.984 . S
N340 H347 0.984 . S
N341 C334 1.356 . S
N341 H344 0.984 . S
N341 H345 0.985 . S
H342 N337 0.984 . S
H343 N337 0.985 . S
H344 N341 0.984 . S
H345 N341 0.985 . S
H346 N340 0.984 . S
H347 N340 0.984 . S
H348 N336 0.984 . S
H349 N336 0.985 . S
C350 C351 1.363 . S
C350 C356 1.379 . S
C350 N358 1.356 . S
C351 C350 1.363 . S
C351 C357 1.363 . S
C352 C353 1.363 . S
C352 C357 1.379 . S
C352 N359 1.356 . S
C353 C352 1.363 . S
C353 C356 1.363 . S
N354 C356 1.356 . S
N354 H366 0.984 . S
N354 H367 0.985 . S
N355 C357 1.356 . S
N355 H360 0.984 . S
N355 H361 0.985 . S
C356 C350 1.379 . S
C356 C353 1.363 . S
C356 N354 1.356 . S
C357 C351 1.363 . S
C357 C352 1.379 . S
C357 N355 1.356 . S
N358 C350 1.356 . S
N358 H364 0.984 . S
N358 H365 0.984 . S
N359 C352 1.356 . S
N359 H362 0.984 . S
N359 H363 0.985 . S
H360 N355 0.984 . S
H361 N355 0.985 . S
H362 N359 0.984 . S
H363 N359 0.985 . S
H364 N358 0.984 . S
H365 N358 0.984 . S
H366 N354 0.984 . S
H367 N354 0.985 . S
C368 C369 1.363 . S
C368 C374 1.379 . S
C368 N376 1.356 . S
C369 C368 1.363 . S
C369 C375 1.363 . S
C370 C371 1.363 . S
C370 C375 1.379 . S
C370 N377 1.356 . S
C371 C370 1.363 . S
C371 C374 1.363 . S
N372 C374 1.356 . S
N372 H384 0.984 . S
N372 H385 0.985 . S
N373 C375 1.356 . S
N373 H378 0.984 . S
N373 H379 0.985 . S
C374 C368 1.379 . S
C374 C371 1.363 . S
C374 N372 1.356 . S
C375 C369 1.363 . S
C375 C370 1.379 . S
C375 N373 1.356 . S
N376 C368 1.356 . S
N376 H382 0.984 . S
N376 H383 0.984 . S
N377 C370 1.356 . S
N377 H380 0.984 . S
N377 H381 0.985 . S
H378 N373 0.984 . S
H379 N373 0.985 . S
H380 N377 0.984 . S
H381 N377 0.985 . S
H382 N376 0.984 . S
H383 N376 0.984 . S
H384 N372 0.984 . S
H385 N372 0.985 . S
C386 C387 1.363 . S
C386 C392 1.379 . S
C386 N394 1.356 . S
C387 C386 1.363 . S
C387 C393 1.363 . S
C388 C389 1.363 . S
C388 C393 1.379 . S
C388 N395 1.356 . S
C389 C388 1.363 . S
C389 C392 1.363 . S
N390 C392 1.356 . S
N390 H402 0.984 . S
N390 H403 0.985 . S
N391 C393 1.356 . S
N391 H396 0.984 . S
N391 H397 0.985 . S
C392 C386 1.379 . S
C392 C389 1.363 . S
C392 N390 1.356 . S
C393 C387 1.363 . S
C393 C388 1.379 . S
C393 N391 1.356 . S
N394 C386 1.356 . S
N394 H400 0.984 . S
N394 H401 0.984 . S
N395 C388 1.356 . S
N395 H398 0.984 . S
N395 H399 0.985 . S
H396 N391 0.984 . S
H397 N391 0.985 . S
H398 N395 0.984 . S
H399 N395 0.985 . S
H400 N394 0.984 . S
H401 N394 0.984 . S
H402 N390 0.984 . S
H403 N390 0.985 . S
C404 C405 1.363 . S
C404 C410 1.379 . S
C404 N412 1.356 . S
C405 C404 1.363 . S
C405 C411 1.363 . S
C406 C407 1.363 . S
C406 C411 1.379 . S
C406 N413 1.356 . S
C407 C406 1.363 . S
C407 C410 1.363 . S
N408 C410 1.356 . S
N408 H420 0.984 . S
N408 H421 0.985 . S
N409 C411 1.356 . S
N409 H414 0.984 . S
N409 H415 0.985 . S
C410 C404 1.379 . S
C410 C407 1.363 . S
C410 N408 1.356 . S
C411 C405 1.363 . S
C411 C406 1.379 . S
C411 N409 1.356 . S
N412 C404 1.356 . S
N412 H418 0.984 . S
N412 H419 0.984 . S
N413 C406 1.356 . S
N413 H416 0.984 . S
N413 H417 0.985 . S
H414 N409 0.984 . S
H415 N409 0.985 . S
H416 N413 0.984 . S
H417 N413 0.985 . S
H418 N412 0.984 . S
H419 N412 0.984 . S
H420 N408 0.984 . S
H421 N408 0.985 . S
C422 C423 1.363 . S
C422 C428 1.379 1_554 S
C422 N430 1.356 . S
C423 C422 1.363 . S
C423 C429 1.363 . S
C424 C425 1.363 . S
C424 C429 1.379 1_556 S
C424 N431 1.356 . S
C425 C424 1.363 . S
C425 C428 1.363 . S
N426 C428 1.356 . S
N426 H438 0.984 . S
N426 H439 0.985 . S
N427 C429 1.356 . S
N427 H432 0.984 . S
N427 H433 0.985 . S
C428 C422 1.379 1_556 S
C428 C425 1.363 . S
C428 N426 1.356 . S
C429 C423 1.363 . S
C429 C424 1.379 1_554 S
C429 N427 1.356 . S
N430 C422 1.356 . S
N430 H436 0.984 . S
N430 H437 0.984 . S
N431 C424 1.356 . S
N431 H434 0.984 . S
N431 H435 0.985 . S
H432 N427 0.984 . S
H433 N427 0.985 . S
H434 N431 0.984 . S
H435 N431 0.985 . S
H436 N430 0.984 . S
H437 N430 0.984 . S
H438 N426 0.984 . S
H439 N426 0.985 . S
C440 C441 1.363 . S
C440 C446 1.379 1_554 S
C440 N448 1.356 . S
C441 C440 1.363 . S
C441 C447 1.363 . S
C442 C443 1.363 . S
C442 C447 1.379 1_556 S
C442 N449 1.356 . S
C443 C442 1.363 . S
C443 C446 1.363 . S
N444 C446 1.356 . S
N444 H456 0.984 . S
N444 H457 0.985 . S
N445 C447 1.356 . S
N445 H450 0.984 . S
N445 H451 0.985 . S
C446 C440 1.379 1_556 S
C446 C443 1.363 . S
C446 N444 1.356 . S
C447 C441 1.363 . S
C447 C442 1.379 1_554 S
C447 N445 1.356 . S
N448 C440 1.356 . S
N448 H454 0.984 . S
N448 H455 0.984 . S
N449 C442 1.356 . S
N449 H452 0.984 . S
N449 H453 0.985 . S
H450 N445 0.984 . S
H451 N445 0.985 . S
H452 N449 0.984 . S
H453 N449 0.985 . S
H454 N448 0.984 . S
H455 N448 0.984 . S
H456 N444 0.984 . S
H457 N444 0.985 . S
C458 C459 1.363 . S
C458 C464 1.379 . S
C458 N466 1.356 . S
C459 C458 1.363 . S
C459 C465 1.363 . S
C460 C461 1.363 . S
C460 C465 1.379 . S
C460 N467 1.356 . S
C461 C460 1.363 . S
C461 C464 1.363 . S
N462 C464 1.356 . S
N462 H474 0.984 . S
N462 H475 0.985 . S
N463 C465 1.356 . S
N463 H468 0.984 . S
N463 H469 0.985 . S
C464 C458 1.379 . S
C464 C461 1.363 . S
C464 N462 1.356 . S
C465 C459 1.363 . S
C465 C460 1.379 . S
C465 N463 1.356 . S
N466 C458 1.356 . S
N466 H472 0.984 . S
N466 H473 0.984 . S
N467 C460 1.356 . S
N467 H470 0.984 . S
N467 H471 0.985 . S
H468 N463 0.984 . S
H469 N463 0.985 . S
H470 N467 0.984 . S
H471 N467 0.985 . S
H472 N466 0.984 . S
H473 N466 0.984 . S
H474 N462 0.984 . S
H475 N462 0.985 . S
C476 C477 1.363 . S
C476 C482 1.379 . S
C476 N484 1.356 . S
C477 C476 1.363 . S
C477 C483 1.363 . S
C478 C479 1.363 . S
C478 C483 1.379 . S
C478 N485 1.356 . S
C479 C478 1.363 . S
C479 C482 1.363 . S
N480 C482 1.356 . S
N480 H492 0.984 . S
N480 H493 0.985 . S
N481 C483 1.356 . S
N481 H486 0.984 . S
N481 H487 0.985 . S
C482 C476 1.379 . S
C482 C479 1.363 . S
C482 N480 1.356 . S
C483 C477 1.363 . S
C483 C478 1.379 . S
C483 N481 1.356 . S
N484 C476 1.356 . S
N484 H490 0.984 . S
N484 H491 0.984 . S
N485 C478 1.356 . S
N485 H488 0.984 . S
N485 H489 0.985 . S
H486 N481 0.984 . S
H487 N481 0.985 . S
H488 N485 0.984 . S
H489 N485 0.985 . S
H490 N484 0.984 . S
H491 N484 0.984 . S
H492 N480 0.984 . S
H493 N480 0.985 . S
C494 C495 1.363 . S
C494 C500 1.379 . S
C494 N502 1.356 . S
C495 C494 1.363 . S
C495 C501 1.363 . S
C496 C497 1.363 . S
C496 C501 1.379 . S
C496 N503 1.356 . S
C497 C496 1.363 . S
C497 C500 1.363 . S
N498 C500 1.356 . S
N498 H510 0.984 . S
N498 H511 0.985 . S
N499 C501 1.356 . S
N499 H504 0.984 . S
N499 H505 0.985 . S
C500 C494 1.379 . S
C500 C497 1.363 . S
C500 N498 1.356 . S
C501 C495 1.363 . S
C501 C496 1.379 . S
C501 N499 1.356 . S
N502 C494 1.356 . S
N502 H508 0.984 . S
N502 H509 0.984 . S
N503 C496 1.356 . S
N503 H506 0.984 . S
N503 H507 0.985 . S
H504 N499 0.984 . S
H505 N499 0.985 . S
H506 N503 0.984 . S
H507 N503 0.985 . S
H508 N502 0.984 . S
H509 N502 0.984 . S
H510 N498 0.984 . S
H511 N498 0.985 . S
C512 C513 1.363 . S
C512 C518 1.379 1_455 S
C512 N520 1.356 . S
C513 C512 1.363 . S
C513 C519 1.363 1_545 S
C514 C515 1.363 . S
C514 C519 1.379 1_655 S
C514 N521 1.356 . S
C515 C514 1.363 . S
C515 C518 1.363 1_565 S
N516 C518 1.356 . S
N516 H528 0.984 . S
N516 H529 0.985 1_545 S
N517 C519 1.356 . S
N517 H522 0.984 1_565 S
N517 H523 0.985 . S
C518 C512 1.379 1_655 S
C518 C515 1.363 1_545 S
C518 N516 1.356 . S
C519 C513 1.363 1_565 S
C519 C514 1.379 1_455 S
C519 N517 1.356 . S
N520 C512 1.356 . S
N520 H526 0.984 . S
N520 H527 0.984 . S
N521 C514 1.356 . S
N521 H524 0.984 . S
N521 H525 0.985 . S
H522 N517 0.984 1_545 S
H523 N517 0.985 . S
H524 N521 0.984 . S
H525 N521 0.985 . S
H526 N520 0.984 . S
H527 N520 0.984 . S
H528 N516 0.984 . S
H529 N516 0.985 1_565 S
C530 C531 1.363 1_655 S
C530 C536 1.379 . S
C530 N538 1.356 . S
C531 C530 1.363 1_455 S
C531 C537 1.363 . S
C532 C533 1.363 1_455 S
C532 C537 1.379 . S
C532 N539 1.356 . S
C533 C532 1.363 1_655 S
C533 C536 1.363 . S
N534 C536 1.356 . S
N534 H546 0.984 . S
N534 H547 0.985 . S
N535 C537 1.356 . S
N535 H540 0.984 . S
N535 H541 0.985 . S
C536 C530 1.379 . S
C536 C533 1.363 . S
C536 N534 1.356 . S
C537 C531 1.363 . S
C537 C532 1.379 . S
C537 N535 1.356 . S
N538 C530 1.356 . S
N538 H544 0.984 . S
N538 H545 0.984 1_655 S
N539 C532 1.356 . S
N539 H542 0.984 1_455 S
N539 H543 0.985 . S
H540 N535 0.984 . S
H541 N535 0.985 . S
H542 N539 0.984 1_655 S
H543 N539 0.985 . S
H544 N538 0.984 . S
H545 N538 0.984 1_455 S
H546 N534 0.984 . S
H547 N534 0.985 . S
C548 C549 1.363 . S
C548 C554 1.379 . S
C548 N556 1.356 . S
C549 C548 1.363 . S
C549 C555 1.363 . S
C550 C551 1.363 . S
C550 C555 1.379 . S
C550 N557 1.356 . S
C551 C550 1.363 . S
C551 C554 1.363 . S
N552 C554 1.356 . S
N552 H564 0.984 . S
N552 H565 0.985 . S
N553 C555 1.356 . S
N553 H558 0.984 . S
N553 H559 0.985 . S
C554 C548 1.379 . S
C554 C551 1.363 . S
C554 N552 1.356 . S
C555 C549 1.363 . S
C555 C550 1.379 . S
C555 N553 1.356 . S
N556 C548 1.356 . S
N556 H562 0.984 . S
N556 H563 0.984 . S
N557 C550 1.356 . S
N557 H560 0.984 . S
N557 H561 0.985 . S
H558 N553 0.984 . S
H559 N553 0.985 . S
H560 N557 0.984 . S
H561 N557 0.985 . S
H562 N556 0.984 . S
H563 N556 0.984 . S
H564 N552 0.984 . S
H565 N552 0.985 . S
C566 C567 1.363 . S
C566 C572 1.379 1_545 S
C566 N574 1.356 . S
C567 C566 1.363 . S
C567 C573 1.363 . S
C568 C569 1.363 . S
C568 C573 1.379 1_565 S
C568 N575 1.356 . S
C569 C568 1.363 . S
C569 C572 1.363 . S
N570 C572 1.356 . S
N570 H582 0.984 . S
N570 H583 0.985 . S
N571 C573 1.356 . S
N571 H576 0.984 . S
N571 H577 0.985 . S
C572 C566 1.379 1_565 S
C572 C569 1.363 . S
C572 N570 1.356 . S
C573 C567 1.363 . S
C573 C568 1.379 1_545 S
C573 N571 1.356 . S
N574 C566 1.356 . S
N574 H580 0.984 . S
N574 H581 0.984 . S
N575 C568 1.356 . S
N575 H578 0.984 . S
N575 H579 0.985 . S
H576 N571 0.984 . S
H577 N571 0.985 . S
H578 N575 0.984 . S
H579 N575 0.985 . S
H580 N574 0.984 . S
H581 N574 0.984 . S
H582 N570 0.984 . S
H583 N570 0.985 . S
C584 C585 1.363 . S
C584 C590 1.379 1_455 S
C584 N592 1.356 . S
C585 C584 1.363 . S
C585 C591 1.363 . S
C586 C587 1.363 . S
C586 C591 1.379 1_655 S
C586 N593 1.356 . S
C587 C586 1.363 . S
C587 C590 1.363 . S
N588 C590 1.356 . S
N588 H600 0.984 . S
N588 H601 0.985 . S
N589 C591 1.356 . S
N589 H594 0.984 . S
N589 H595 0.985 . S
C590 C584 1.379 1_655 S
C590 C587 1.363 . S
C590 N588 1.356 . S
C591 C585 1.363 . S
C591 C586 1.379 1_455 S
C591 N589 1.356 . S
N592 C584 1.356 . S
N592 H598 0.984 . S
N592 H599 0.984 . S
N593 C586 1.356 . S
N593 H596 0.984 . S
N593 H597 0.985 . S
H594 N589 0.984 . S
H595 N589 0.985 . S
H596 N593 0.984 . S
H597 N593 0.985 . S
H598 N592 0.984 . S
H599 N592 0.984 . S
H600 N588 0.984 . S
H601 N588 0.985 . S
C602 C603 1.363 . S
C602 C608 1.379 . S
C602 N610 1.356 . S
C603 C602 1.363 . S
C603 C609 1.363 . S
C604 C605 1.363 . S
C604 C609 1.379 . S
C604 N611 1.356 . S
C605 C604 1.363 . S
C605 C608 1.363 . S
N606 C608 1.356 . S
N606 H618 0.984 . S
N606 H619 0.985 . S
N607 C609 1.356 . S
N607 H612 0.984 . S
N607 H613 0.985 . S
C608 C602 1.379 . S
C608 C605 1.363 . S
C608 N606 1.356 . S
C609 C603 1.363 . S
C609 C604 1.379 . S
C609 N607 1.356 . S
N610 C602 1.356 . S
N610 H616 0.984 . S
N610 H617 0.984 . S
N611 C604 1.356 . S
N611 H614 0.984 . S
N611 H615 0.985 . S
H612 N607 0.984 . S
H613 N607 0.985 . S
H614 N611 0.984 . S
H615 N611 0.985 . S
H616 N610 0.984 . S
H617 N610 0.984 . S
H618 N606 0.984 . S
H619 N606 0.985 . S
C620 C621 1.363 . S
C620 C626 1.379 . S
C620 N628 1.356 . S
C621 C620 1.363 . S
C621 C627 1.363 1_565 S
C622 C623 1.363 . S
C622 C627 1.379 . S
C622 N629 1.356 . S
C623 C622 1.363 . S
C623 C626 1.363 1_545 S
N624 C626 1.356 . S
N624 H636 0.984 . S
N624 H637 0.985 1_565 S
N625 C627 1.356 . S
N625 H630 0.984 1_545 S
N625 H631 0.985 . S
C626 C620 1.379 . S
C626 C623 1.363 1_565 S
C626 N624 1.356 . S
C627 C621 1.363 1_545 S
C627 C622 1.379 . S
C627 N625 1.356 . S
N628 C620 1.356 . S
N628 H634 0.984 . S
N628 H635 0.984 . S
N629 C622 1.356 . S
N629 H632 0.984 . S
N629 H633 0.985 . S
H630 N625 0.984 1_565 S
H631 N625 0.985 . S
H632 N629 0.984 . S
H633 N629 0.985 . S
H634 N628 0.984 . S
H635 N628 0.984 . S
H636 N624 0.984 . S
H637 N624 0.985 1_545 S
C638 C639 1.363 . S
C638 C644 1.379 1_545 S
C638 N646 1.356 . S
C639 C638 1.363 . S
C639 C645 1.363 1_455 S
C640 C641 1.363 . S
C640 C645 1.379 1_565 S
C640 N647 1.356 . S
C641 C640 1.363 . S
C641 C644 1.363 1_655 S
N642 C644 1.356 . S
N642 H654 0.984 . S
N642 H655 0.985 1_455 S
N643 C645 1.356 . S
N643 H648 0.984 1_655 S
N643 H649 0.985 . S
C644 C638 1.379 1_565 S
C644 C641 1.363 1_455 S
C644 N642 1.356 . S
C645 C639 1.363 1_655 S
C645 C640 1.379 1_545 S
C645 N643 1.356 . S
N646 C638 1.356 . S
N646 H652 0.984 . S
N646 H653 0.984 . S
N647 C640 1.356 . S
N647 H650 0.984 . S
N647 H651 0.985 . S
H648 N643 0.984 1_455 S
H649 N643 0.985 . S
H650 N647 0.984 . S
H651 N647 0.985 . S
H652 N646 0.984 . S
H653 N646 0.984 . S
H654 N642 0.984 . S
H655 N642 0.985 1_655 S
C656 C657 1.363 . S
C656 C662 1.379 . S
C656 N664 1.356 . S
C657 C656 1.363 . S
C657 C663 1.363 1_565 S
C658 C659 1.363 . S
C658 C663 1.379 . S
C658 N665 1.356 . S
C659 C658 1.363 . S
C659 C662 1.363 1_545 S
N660 C662 1.356 1_545 S
N660 H672 0.984 1_545 S
N660 H673 0.985 . S
N661 C663 1.356 1_565 S
N661 H666 0.984 . S
N661 H667 0.985 1_565 S
C662 C656 1.379 . S
C662 C659 1.363 1_565 S
C662 N660 1.356 1_565 S
C663 C657 1.363 1_545 S
C663 C658 1.379 . S
C663 N661 1.356 1_545 S
N664 C656 1.356 . S
N664 H670 0.984 . S
N664 H671 0.984 . S
N665 C658 1.356 . S
N665 H668 0.984 . S
N665 H669 0.985 . S
H666 N661 0.984 . S
H667 N661 0.985 1_545 S
H668 N665 0.984 . S
H669 N665 0.985 . S
H670 N664 0.984 . S
H671 N664 0.984 . S
H672 N660 0.984 1_565 S
H673 N660 0.985 . S
C674 C675 1.363 1_455 S
C674 C680 1.379 1_565 S
C674 N682 1.356 1_455 S
C675 C674 1.363 1_655 S
C675 C681 1.363 . S
C676 C677 1.363 1_655 S
C676 C681 1.379 1_545 S
C676 N683 1.356 1_655 S
C677 C676 1.363 1_455 S
C677 C680 1.363 . S
N678 C680 1.356 . S
N678 H690 0.984 . S
N678 H691 0.985 . S
N679 C681 1.356 . S
N679 H684 0.984 . S
N679 H685 0.985 . S
C680 C674 1.379 1_545 S
C680 C677 1.363 . S
C680 N678 1.356 . S
C681 C675 1.363 . S
C681 C676 1.379 1_565 S
C681 N679 1.356 . S
N682 C674 1.356 1_655 S
N682 H688 0.984 1_655 S
N682 H689 0.984 . S
N683 C676 1.356 1_455 S
N683 H686 0.984 . S
N683 H687 0.985 1_455 S
H684 N679 0.984 . S
H685 N679 0.985 . S
H686 N683 0.984 . S
H687 N683 0.985 1_655 S
H688 N682 0.984 1_455 S
H689 N682 0.984 . S
H690 N678 0.984 . S
H691 N678 0.985 . S
C692 C693 1.363 . S
C692 C698 1.379 1_455 S
C692 N700 1.356 . S
C693 C692 1.363 . S
C693 C699 1.363 . S
C694 C695 1.363 . S
C694 C699 1.379 1_655 S
C694 N701 1.356 . S
C695 C694 1.363 . S
C695 C698 1.363 . S
N696 C698 1.356 . S
N696 H708 0.984 . S
N696 H709 0.985 . S
N697 C699 1.356 . S
N697 H702 0.984 . S
N697 H703 0.985 . S
C698 C692 1.379 1_655 S
C698 C695 1.363 . S
C698 N696 1.356 . S
C699 C693 1.363 . S
C699 C694 1.379 1_455 S
C699 N697 1.356 . S
N700 C692 1.356 . S
N700 H706 0.984 . S
N700 H707 0.984 . S
N701 C694 1.356 . S
N701 H704 0.984 . S
N701 H705 0.985 . S
H702 N697 0.984 . S
H703 N697 0.985 . S
H704 N701 0.984 . S
H705 N701 0.985 . S
H706 N700 0.984 . S
H707 N700 0.984 . S
H708 N696 0.984 . S
H709 N696 0.985 . S
C710 C711 1.363 . S
C710 C716 1.379 . S
C710 N718 1.356 . S
C711 C710 1.363 . S
C711 C717 1.363 . S
C712 C713 1.363 . S
C712 C717 1.379 . S
C712 N719 1.356 . S
C713 C712 1.363 . S
C713 C716 1.363 . S
N714 C716 1.356 . S
N714 H726 0.984 . S
N714 H727 0.985 . S
N715 C717 1.356 . S
N715 H720 0.984 . S
N715 H721 0.985 . S
C716 C710 1.379 . S
C716 C713 1.363 . S
C716 N714 1.356 . S
C717 C711 1.363 . S
C717 C712 1.379 . S
C717 N715 1.356 . S
N718 C710 1.356 . S
N718 H724 0.984 . S
N718 H725 0.984 . S
N719 C712 1.356 . S
N719 H722 0.984 . S
N719 H723 0.985 . S
H720 N715 0.984 . S
H721 N715 0.985 . S
H722 N719 0.984 . S
H723 N719 0.985 . S
H724 N718 0.984 . S
H725 N718 0.984 . S
H726 N714 0.984 . S
H727 N714 0.985 . S
C728 C729 1.363 . S
C728 C734 1.379 . S
C728 N736 1.356 . S
C729 C728 1.363 . S
C729 C735 1.363 . S
C730 C731 1.363 . S
C730 C735 1.379 . S
C730 N737 1.356 . S
C731 C730 1.363 . S
C731 C734 1.363 . S
N732 C734 1.356 . S
N732 H744 0.984 . S
N732 H745 0.985 . S
N733 C735 1.356 . S
N733 H738 0.984 . S
N733 H739 0.985 . S
C734 C728 1.379 . S
C734 C731 1.363 . S
C734 N732 1.356 . S
C735 C729 1.363 . S
C735 C730 1.379 . S
C735 N733 1.356 . S
N736 C728 1.356 . S
N736 H742 0.984 . S
N736 H743 0.984 . S
N737 C730 1.356 . S
N737 H740 0.984 . S
N737 H741 0.985 . S
H738 N733 0.984 . S
H739 N733 0.985 . S
H740 N737 0.984 . S
H741 N737 0.985 . S
H742 N736 0.984 . S
H743 N736 0.984 . S
H744 N732 0.984 . S
H745 N732 0.985 . S
C746 C747 1.363 . S
C746 C752 1.379 1_545 S
C746 N754 1.356 . S
C747 C746 1.363 . S
C747 C753 1.363 . S
C748 C749 1.363 . S
C748 C753 1.379 1_565 S
C748 N755 1.356 . S
C749 C748 1.363 . S
C749 C752 1.363 . S
N750 C752 1.356 . S
N750 H762 0.984 . S
N750 H763 0.985 . S
N751 C753 1.356 . S
N751 H756 0.984 . S
N751 H757 0.985 . S
C752 C746 1.379 1_565 S
C752 C749 1.363 . S
C752 N750 1.356 . S
C753 C747 1.363 . S
C753 C748 1.379 1_545 S
C753 N751 1.356 . S
N754 C746 1.356 . S
N754 H760 0.984 . S
N754 H761 0.984 . S
N755 C748 1.356 . S
N755 H758 0.984 . S
N755 H759 0.985 . S
H756 N751 0.984 . S
H757 N751 0.985 . S
H758 N755 0.984 . S
H759 N755 0.985 . S
H760 N754 0.984 . S
H761 N754 0.984 . S
H762 N750 0.984 . S
H763 N750 0.985 . S
C764 C765 1.363 . S
C764 C770 1.379 1_655 S
C764 N772 1.356 . S
C765 C764 1.363 . S
C765 C771 1.363 1_565 S
C766 C767 1.363 . S
C766 C771 1.379 1_455 S
C766 N773 1.356 . S
C767 C766 1.363 . S
C767 C770 1.363 1_545 S
N768 C770 1.356 1_545 S
N768 H780 0.984 1_545 S
N768 H781 0.985 . S
N769 C771 1.356 1_565 S
N769 H774 0.984 . S
N769 H775 0.985 1_565 S
C770 C764 1.379 1_455 S
C770 C767 1.363 1_565 S
C770 N768 1.356 1_565 S
C771 C765 1.363 1_545 S
C771 C766 1.379 1_655 S
C771 N769 1.356 1_545 S
N772 C764 1.356 . S
N772 H778 0.984 . S
N772 H779 0.984 . S
N773 C766 1.356 . S
N773 H776 0.984 . S
N773 H777 0.985 . S
H774 N769 0.984 . S
H775 N769 0.985 1_545 S
H776 N773 0.984 . S
H777 N773 0.985 . S
H778 N772 0.984 . S
H779 N772 0.984 . S
H780 N768 0.984 1_565 S
H781 N768 0.985 . S
C782 C783 1.363 . S
C782 C788 1.379 . S
C782 N790 1.356 . S
C783 C782 1.363 . S
C783 C789 1.363 1_655 S
C784 C785 1.363 . S
C784 C789 1.379 . S
C784 N791 1.356 . S
C785 C784 1.363 . S
C785 C788 1.363 1_455 S
N786 C788 1.356 1_455 S
N786 H798 0.984 1_455 S
N786 H799 0.985 . S
N787 C789 1.356 1_655 S
N787 H792 0.984 . S
N787 H793 0.985 1_655 S
C788 C782 1.379 . S
C788 C785 1.363 1_655 S
C788 N786 1.356 1_655 S
C789 C783 1.363 1_455 S
C789 C784 1.379 . S
C789 N787 1.356 1_455 S
N790 C782 1.356 . S
N790 H796 0.984 . S
N790 H797 0.984 . S
N791 C784 1.356 . S
N791 H794 0.984 . S
N791 H795 0.985 . S
H792 N787 0.984 . S
H793 N787 0.985 1_455 S
H794 N791 0.984 . S
H795 N791 0.985 . S
H796 N790 0.984 . S
H797 N790 0.984 . S
H798 N786 0.984 1_655 S
H799 N786 0.985 . S
C225 C63 1.492 . S
C227 C7 1.492 . S
C243 C21 1.493 . S
C245 C77 1.493 . S
C261 C91 1.493 . S
C263 C35 1.493 . S
C279 C105 1.492 . S
C281 C49 1.492 . S
C297 C175 1.492 . S
C299 C119 1.492 . S
C315 C133 1.493 . S
C317 C189 1.493 . S
C333 C203 1.493 . S
C335 C147 1.493 . S
C351 C161 1.492 . S
C353 C217 1.492 . S
C369 C8 1.457 . S
C371 C218 1.457 . S
C387 C22 1.457 . S
C389 C176 1.457 . S
C405 C36 1.457 . S
C407 C190 1.457 . S
C423 C204 1.457 . S
C425 C50 1.457 . S
C441 C64 1.457 . S
C443 C134 1.457 . S
C459 C78 1.457 . S
C461 C148 1.457 . S
C477 C162 1.457 . S
C479 C92 1.457 . S
C495 C120 1.457 . S
C497 C106 1.457 . S
C513 C6 1.597 . S
C515 C146 1.597 . S
C531 C160 1.597 . S
C533 C20 1.597 . S
C549 C34 1.596 . S
C551 C118 1.596 . S
C567 C132 1.596 . S
C569 C48 1.596 . S
C585 C62 1.596 . S
C587 C202 1.596 . S
C603 C76 1.596 . S
C605 C216 1.596 . S
C621 C174 1.597 . S
C623 C90 1.597 . S
C639 C188 1.597 . S
C641 C104 1.597 . S
C657 C149 1.502 . S
C659 C9 1.502 . S
C675 C23 1.501 . S
C677 C163 1.501 . S
C693 C37 1.502 . S
C695 C121 1.502 . S
C711 C135 1.502 . S
C713 C51 1.502 . S
C729 C205 1.502 . S
C731 C65 1.502 . S
C747 C219 1.502 . S
C749 C79 1.502 . S
C765 C177 1.501 . S
C767 C93 1.501 . S
C783 C107 1.502 . S
C785 C191 1.502 . S
