# Generated by pormake.
# Topology afw, (4)-cn, num edge types: 1
# Building blocks:
#     Node 0, Type 0, BuildingBlock: ESEHIV_clean_sbu_0, # of connection points: 4
#     Node 1, Type 0, BuildingBlock: ESEHIV_clean_sbu_0, # of connection points: 4
#     Node 2, Type 0, BuildingBlock: ESEHIV_clean_sbu_0, # of connection points: 4
#     Node 3, Type 0, BuildingBlock: ESEHIV_clean_sbu_0, # of connection points: 4
#     Node 4, Type 0, BuildingBlock: ESEHIV_clean_sbu_0, # of connection points: 4
#     Node 5, Type 0, BuildingBlock: ESEHIV_clean_sbu_0, # of connection points: 4
#     Node 6, Type 0, BuildingBlock: ESEHIV_clean_sbu_0, # of connection points: 4
#     Node 7, Type 0, BuildingBlock: ESEHIV_clean_sbu_0, # of connection points: 4
#     Node 8, Type 0, BuildingBlock: ESEHIV_clean_sbu_0, # of connection points: 4
#     Edge 9, Type (0, 0), BuildingBlock: XUDNAN_clean_linker_2, # of connection points: 2
#     Edge 10, Type (0, 0), BuildingBlock: XUDNAN_clean_linker_2, # of connection points: 2
#     Edge 11, Type (0, 0), BuildingBlock: XUDNAN_clean_linker_2, # of connection points: 2
#     Edge 12, Type (0, 0), BuildingBlock: XUDNAN_clean_linker_2, # of connection points: 2
#     Edge 13, Type (0, 0), BuildingBlock: XUDNAN_clean_linker_2, # of connection points: 2
#     Edge 14, Type (0, 0), BuildingBlock: XUDNAN_clean_linker_2, # of connection points: 2
#     Edge 15, Type (0, 0), BuildingBlock: XUDNAN_clean_linker_2, # of connection points: 2
#     Edge 16, Type (0, 0), BuildingBlock: XUDNAN_clean_linker_2, # of connection points: 2
#     Edge 17, Type (0, 0), BuildingBlock: XUDNAN_clean_linker_2, # of connection points: 2
#     Edge 18, Type (0, 0), BuildingBlock: XUDNAN_clean_linker_2, # of connection points: 2
#     Edge 19, Type (0, 0), BuildingBlock: XUDNAN_clean_linker_2, # of connection points: 2
#     Edge 20, Type (0, 0), BuildingBlock: XUDNAN_clean_linker_2, # of connection points: 2
#     Edge 21, Type (0, 0), BuildingBlock: XUDNAN_clean_linker_2, # of connection points: 2
#     Edge 22, Type (0, 0), BuildingBlock: XUDNAN_clean_linker_2, # of connection points: 2
#     Edge 23, Type (0, 0), BuildingBlock: XUDNAN_clean_linker_2, # of connection points: 2
#     Edge 24, Type (0, 0), BuildingBlock: XUDNAN_clean_linker_2, # of connection points: 2
#     Edge 25, Type (0, 0), BuildingBlock: XUDNAN_clean_linker_2, # of connection points: 2
#     Edge 26, Type (0, 0), BuildingBlock: XUDNAN_clean_linker_2, # of connection points: 2
# Relax obj value: 0.053
# Max RMSD: 0.171
# Mean RMSD: 0.158
data_MOF--net-afw--node1-ESEHIV_clean_sbu_0--edge1-XUDNAN_clean_linker_2
_symmetry_space_group_name_H-M    P1
_symmetry_Int_Tables_number       1
_symmetry_cell_setting            triclinic
loop_
_symmetry_equiv_pos_as_xyz
'x, y, z'
_cell_length_a     49.185413
_cell_length_b     53.629441
_cell_length_c     20.710015
_cell_angle_alpha  96.736248
_cell_angle_beta   91.704977
_cell_angle_gamma 118.8081
loop_
_atom_site_label
_atom_site_type_symbol
_atom_site_fract_x
_atom_site_fract_y
_atom_site_fract_z
_atom_type_partial_charge
Cu0 Cu 0.04853 0.22285 0.12516 0.0
N1 N 0.04761 0.19877 0.1845 0.0
N2 N 1.02749 0.15583 0.21905 0.0
C3 C 1.02139 0.17521 0.19517 0.0
C4 C 0.05882 0.16774 0.22406 0.0
C5 C 0.07113 0.1941 0.20242 0.0
O6 O 0.04974 0.20191 0.04255 0.0
C7 C 1.01383 0.24402 0.18556 0.0
O8 O 0.03761 0.25263 0.22953 0.0
H9 H 0.99824 0.17093 0.17869 0.0
H10 H 0.09516 0.20731 0.19366 0.0
N11 N 0.0835 0.25993 0.14086 0.0
N12 N 0.11377 0.30633 0.13072 0.0
C13 C 0.08622 0.28216 0.11192 0.0
C14 C 0.11015 0.27042 0.18001 0.0
C15 C 0.12894 0.299 0.1736 0.0
C16 C 0.07524 0.20987 0.01645 0.0
O17 O 0.09783 0.23648 0.03279 0.0
H18 H 0.06847 0.28032 0.07654 0.0
H19 H 0.11563 0.25827 0.21103 0.0
O20 O 1.0123 0.22847 0.13253 0.0
H21 H 0.07176 0.15733 0.23814 0.0
H22 H 0.15181 0.31331 0.19911 0.0
Cu23 Cu 0.87939 0.86947 0.11482 0.0
N24 N 0.88383 0.90215 0.16876 0.0
N25 N 0.89841 0.9479 0.20949 0.0
C26 C 0.90295 0.93019 0.1645 0.0
C27 C 0.87572 0.93027 0.24356 0.0
C28 C 0.86686 0.90217 0.21845 0.0
O29 O 0.91973 0.87765 0.08584 0.0
C30 C 0.83708 0.83565 0.00189 0.0
O31 O 0.85215 0.82098 0.00017 0.0
H32 H 0.91919 0.93752 0.12804 0.0
H33 H 0.84891 0.88301 0.23457 0.0
N34 N 0.86761 0.8389 0.16303 0.0
N35 N 0.8458 0.79352 0.1845 0.0
C36 C 0.84387 0.81175 0.14696 0.0
C37 C 0.8848 0.83803 0.21353 0.0
C38 C 0.87143 0.81018 0.22699 0.0
C39 C 0.93542 0.89619 0.04957 0.0
O40 O 0.92313 0.91002 0.02305 0.0
H41 H 0.82619 0.80527 0.10686 0.0
H42 H 0.90665 0.85602 0.23616 0.0
O43 O 0.84658 0.85809 0.04428 0.0
H44 H 0.86609 0.93714 0.28371 0.0
H45 H 0.88116 0.80254 0.26232 0.0
Cu46 Cu 0.21258 0.04477 0.99433 0.0
N47 N 0.22725 0.03005 0.92516 0.0
N48 N 0.2452 1.00438 0.86612 0.0
C49 C 0.2286 1.00529 0.91632 0.0
C50 C 0.25421 0.02915 0.84194 0.0
C51 C 0.24299 0.04479 0.87802 0.0
O52 O 0.24374 0.06123 0.07048 0.0
C53 C 0.16281 0.9926 0.03277 0.0
O54 O 0.1838 0.98524 0.048 0.0
H55 H 0.21944 0.98917 0.94842 0.0
H56 H 0.24731 0.06608 0.872 0.0
N57 N 0.20752 0.07482 0.96964 0.0
N58 N 0.18525 0.10153 0.95044 0.0
C59 C 0.1809 0.07626 0.96697 0.0
C60 C 0.22959 0.10003 0.95478 0.0
C61 C 0.21597 0.11643 0.94249 0.0
C62 C 0.25951 0.04968 0.08839 0.0
O63 O 0.25282 0.02412 0.0586 0.0
H64 H 0.15906 0.05937 0.97909 0.0
H65 H 0.254 0.10624 0.954 0.0
O66 O 0.17118 1.01628 0.01152 0.0
H67 H 0.26889 0.03592 0.80249 0.0
H68 H 0.22806 0.13782 0.92933 0.0
Cu69 Cu 0.7319 0.52169 0.28662 0.0
N70 N 0.70026 0.48555 0.24712 0.0
N71 N 0.67423 0.43756 0.22086 0.0
C72 C 0.69711 0.46041 0.26066 0.0
C73 C 0.66236 0.44889 0.18091 0.0
C74 C 0.6786 0.47852 0.197 0.0
O75 O 0.76484 0.5145 0.31726 0.0
C76 C 0.69416 0.54238 0.33832 0.0
O77 O 0.6826 0.53482 0.27678 0.0
H78 H 0.71176 0.45906 0.29856 0.0
H79 H 0.67551 0.49384 0.17248 0.0
N80 N 0.7461 0.54708 0.22535 0.0
N81 N 0.76093 0.58671 0.17876 0.0
C82 C 0.75393 0.57515 0.23462 0.0
C83 C 0.74845 0.5407 0.16175 0.0
C84 C 0.75755 0.56506 0.13286 0.0
C85 C 0.77656 0.51934 0.37591 0.0
O86 O 0.76864 0.53305 0.42167 0.0
H87 H 0.75343 0.58656 0.28089 0.0
H88 H 0.7433 0.51964 0.13788 0.0
O89 O 0.71626 0.53782 0.35552 0.0
H90 H 0.64411 0.43677 0.14128 0.0
H91 H 0.7613 0.56666 0.08193 0.0
Cu92 Cu 0.53514 0.16989 0.33109 0.0
N93 N 0.5497 0.19075 0.26121 0.0
N94 N 0.5753 0.23029 0.21432 0.0
C95 C 0.5733 0.21806 0.26838 0.0
C96 C 0.55179 0.21009 0.17105 0.0
C97 C 0.53606 0.1856 0.20009 0.0
O98 O 0.56509 0.19401 0.4065 0.0
C99 C 0.47192 0.13878 0.29393 0.0
O100 O 0.48249 0.12506 0.25474 0.0
H101 H 0.58727 0.22972 0.31408 0.0
H102 H 0.51509 0.16612 0.17942 0.0
N103 N 0.53598 0.13511 0.32197 0.0
N104 N 0.52841 0.09301 0.34775 0.0
C105 C 0.52634 0.11697 0.36641 0.0
C106 C 0.54461 0.12238 0.27322 0.0
C107 C 0.53989 0.09631 0.28895 0.0
C108 C 0.59227 0.19735 0.39889 0.0
O109 O 0.59624 0.18395 0.3458 0.0
H110 H 0.51719 0.12105 0.41086 0.0
H111 H 0.5534 0.13128 0.22927 0.0
O112 O 0.49137 0.16041 0.33497 0.0
H113 H 0.54582 0.21316 0.12298 0.0
H114 H 0.54466 0.08109 0.25943 0.0
Cu115 Cu 0.89713 0.36708 0.49264 0.0
N116 N 0.93041 0.3818 0.55819 0.0
N117 N 0.97919 0.40517 0.60707 0.0
C118 C 0.96063 0.40009 0.55216 0.0
C119 C 0.95992 0.38961 0.64933 0.0
C120 C 0.92987 0.37537 0.61922 0.0
O121 O 0.91002 0.35153 0.41728 0.0
C122 C 0.87159 0.39748 0.43045 0.0
O123 O 0.8585 0.37469 0.38512 0.0
H124 H 0.96891 0.40899 0.50788 0.0
H125 H 0.90914 0.36123 0.64044 0.0
N126 N 0.86113 0.33773 0.52011 0.0
N127 N 0.81145 0.30992 0.53821 0.0
C128 C 0.83161 0.33299 0.51162 0.0
C129 C 0.85943 0.31672 0.55237 0.0
C130 C 0.82889 0.29968 0.56401 0.0
C131 C 0.89203 0.32953 0.37584 0.0
O132 O 0.86173 0.31736 0.37835 0.0
H133 H 0.82502 0.34619 0.48664 0.0
H134 H 0.87904 0.31386 0.56596 0.0
O135 O 0.88939 0.39837 0.47758 0.0
H136 H 0.96702 0.38886 0.69873 0.0
H137 H 0.82005 0.28073 0.58795 0.0
Cu138 Cu 0.40048 0.88187 0.72693 0.0
N139 N 0.40711 0.87151 0.80643 0.0
N140 N 0.40018 0.83918 0.87258 0.0
C141 C 0.38757 0.84558 0.82267 0.0
C142 C 0.42885 0.86227 0.8888 0.0
C143 C 0.43313 0.88212 0.84767 0.0
O144 O 0.40086 0.85207 0.66365 0.0
C145 C 0.36416 0.90466 0.769 0.0
O146 O 0.39028 0.9205 0.80706 0.0
H147 H 0.36574 0.83056 0.79397 0.0
H148 H 0.45457 0.90164 0.8447 0.0
N149 N 0.43195 0.91793 0.71095 0.0
N150 N 0.45933 0.95376 0.65419 0.0
C151 C 0.43634 0.92627 0.65147 0.0
C152 C 0.4529 0.94097 0.75296 0.0
C153 C 0.46978 0.96311 0.7181 0.0
C154 C 0.42809 0.85519 0.65855 0.0
O155 O 0.45215 0.87861 0.68966 0.0
H156 H 0.42226 0.91258 0.60727 0.0
H157 H 0.45526 0.94194 0.80536 0.0
O158 O 0.36195 0.88403 0.7276 0.0
H159 H 0.44619 0.86405 0.92521 0.0
H160 H 0.48826 0.98441 0.73832 0.0
Cu161 Cu 0.25138 0.55393 0.85953 0.0
N162 N 0.25635 0.58932 0.89798 0.0
N163 N 0.27848 0.63717 0.92342 0.0
C164 C 0.28292 0.61468 0.90285 0.0
C165 C 0.24788 0.62544 0.93213 0.0
C166 C 0.23429 0.59588 0.91645 0.0
O167 O 0.29019 0.5639 0.82068 0.0
C168 C 0.20012 0.50957 0.77152 0.0
O169 O 0.21069 0.4925 0.78679 0.0
H170 H 0.30469 0.61669 0.88782 0.0
H171 H 0.20984 0.58039 0.91573 0.0
N172 N 0.24629 0.53041 0.92367 0.0
N173 N 0.22581 0.49372 0.98145 0.0
C174 C 0.22018 0.50686 0.93491 0.0
C175 C 0.26907 0.53261 0.96543 0.0
C176 C 0.25659 0.51006 0.00094 0.0
C177 C 0.30349 0.54865 0.81216 0.0
O178 O 0.28906 0.52189 0.82351 0.0
H179 H 0.19773 0.49901 0.90794 0.0
H180 H 0.29326 0.54912 0.96862 0.0
O181 O 0.21493 0.53621 0.79509 0.0
H182 H 0.23601 0.63737 0.94716 0.0
H183 H 0.26935 0.50597 0.03788 0.0
Cu184 Cu 0.57464 0.69994 0.67082 0.0
N185 N 0.58674 0.68198 0.60345 0.0
N186 N 0.60562 0.65636 0.5474 0.0
C187 C 0.60047 0.66555 0.60706 0.0
C188 C 0.59457 0.66734 0.50481 0.0
C189 C 0.58294 0.683 0.53939 0.0
O190 O 0.61064 0.72521 0.73426 0.0
C191 C 0.52298 0.67553 0.74694 0.0
O192 O 0.53168 0.70236 0.77095 0.0
H193 H 0.60602 0.65997 0.65215 0.0
H194 H 0.57242 0.69438 0.51909 0.0
N195 N 0.56226 0.72364 0.63386 0.0
N196 N 0.53589 0.74558 0.60435 0.0
C197 C 0.53501 0.72404 0.63411 0.0
C198 C 0.58079 0.74535 0.60232 0.0
C199 C 0.56469 0.7588 0.58391 0.0
C200 C 0.62718 0.71765 0.76661 0.0
O201 O 0.61871 0.69023 0.76289 0.0
H202 H 0.51526 0.70935 0.657 0.0
H203 H 0.60456 0.75112 0.59384 0.0
O204 O 0.5394 0.67027 0.707 0.0
H205 H 0.59525 0.66467 0.45238 0.0
H206 H 0.57377 0.77708 0.55779 0.0
H207 H 0.1967 0.15666 0.94881 0.0
H208 H 0.12163 0.06905 0.94465 0.0
H209 H 0.08369 0.08661 0.94705 0.0
H210 H 0.16841 0.18989 0.05834 0.0
H211 H 0.18076 0.2215 0.01942 0.0
H212 H 0.20138 0.20148 0.01085 0.0
H213 H 0.19219 0.1956 0.88474 0.0
H214 H 0.17135 0.21555 0.89299 0.0
H215 H 0.15303 0.18 0.84606 0.0
H216 H 0.05443 0.11481 0.96207 0.0
H217 H 0.03743 0.15094 0.99006 0.0
H218 H 0.13147 0.21918 0.97746 0.0
C219 C 0.17232 0.14087 0.94675 0.0
C220 C 0.16253 0.11134 0.94674 0.0
C221 C 0.13013 0.09182 0.9455 0.0
C222 C 0.10822 0.10156 0.94621 0.0
C223 C 0.11887 0.13086 0.94712 0.0
C224 C 0.15018 0.15015 0.94686 0.0
C225 C 0.15603 0.18076 0.95223 0.0
C226 C 0.17792 0.19949 0.01387 0.0
C227 C 0.16891 0.19373 0.8903 0.0
C228 C 0.12324 0.17582 0.95768 0.0
C229 C 0.102 0.1469 0.95405 0.0
C230 C 0.07077 0.13747 0.96369 0.0
C231 C 0.06128 0.15817 0.97936 0.0
C232 C 0.08299 0.18797 0.98545 0.0
C233 C 0.11408 0.19663 0.97218 0.0
H234 H 0.95708 0.98544 0.18187 0.0
H235 H 0.87317 0.98107 0.25385 0.0
H236 H 0.89773 0.03395 0.26645 0.0
H237 H 1.01169 0.05026 0.28927 0.0
H238 H 0.03849 0.0643 0.22857 0.0
H239 H 1.01446 0.02598 0.22518 0.0
H240 H 0.99278 1.02191 0.10677 0.0
H241 H 1.01678 0.06019 0.10959 0.0
H242 H 0.97524 0.04349 0.08958 0.0
H243 H 0.93055 0.08727 0.26758 0.0
H244 H 0.97027 0.13749 0.26055 0.0
H245 H 1.03343 0.10779 0.19043 0.0
C246 C 0.94384 0.9956 0.20004 0.0
C247 C 0.91314 0.97897 0.21706 0.0
C248 C 0.8968 0.99323 0.24134 0.0
C249 C 0.91051 0.02331 0.24833 0.0
C250 C 0.94075 0.03902 0.23125 0.0
C251 C 0.95731 0.02571 0.20787 0.0
C252 C 0.98957 0.04773 0.19341 0.0
C253 C 1.01505 0.04702 0.23671 0.0
C254 C 0.99382 0.04304 0.12051 0.0
C255 C 0.98842 0.07543 0.21198 0.0
C256 C 0.95998 0.06988 0.2334 0.0
C257 C 0.95299 0.0919 0.25131 0.0
C258 C 0.97561 0.12032 0.24705 0.0
C259 C 1.00501 0.12661 0.22567 0.0
C260 C 1.01143 0.10376 0.20825 0.0
H261 H 0.98128 0.94509 0.00968 0.0
H262 H 0.96492 0.86635 0.08002 0.0
H263 H 1.02108 0.88189 0.08136 0.0
H264 H 0.04241 0.95118 0.90611 0.0
H265 H 0.06451 0.98981 0.92665 0.0
H266 H 1.02273 0.97154 0.92717 0.0
H267 H 1.02893 0.99532 0.04702 0.0
H268 H 0.0707 1.01345 0.04694 0.0
H269 H 0.05252 0.99089 0.10806 0.0
H270 H 0.07953 0.90697 0.07948 0.0
H271 H 0.13561 0.93934 0.07243 0.0
H272 H 0.11381 1.00199 0.00515 0.0
C273 C 0.9894 0.93087 0.02423 0.0
C274 C 0.96861 0.90438 0.04427 0.0
C275 C 0.98035 0.88669 0.06423 0.0
C276 C 1.01224 0.89534 0.0652 0.0
C277 C 1.03217 0.92181 0.04633 0.0
C278 C 1.02122 0.93929 0.02603 0.0
C279 C 0.04772 0.96721 0.01069 0.0
C280 C 0.04412 0.97009 0.93835 0.0
C281 C 0.0501 0.99325 0.05588 0.0
C282 C 0.07527 0.9627 0.02566 0.0
C283 C 0.06583 0.93637 0.04604 0.0
C284 C 0.08719 0.9276 0.06332 0.0
C285 C 0.11902 0.94617 0.05929 0.0
C286 C 0.12922 0.97322 0.03822 0.0
C287 C 0.10688 0.98146 0.02137 0.0
H288 H 0.83449 0.40305 0.33728 0.0
H289 H 0.88979 0.44455 0.5242 0.0
H290 H 0.87339 0.48147 0.52852 0.0
H291 H 0.84985 0.46922 0.27489 0.0
H292 H 0.81095 0.45365 0.23482 0.0
H293 H 0.82818 0.43118 0.24498 0.0
H294 H 0.78107 0.39812 0.30412 0.0
H295 H 0.7638 0.42048 0.29374 0.0
H296 H 0.77052 0.41367 0.37423 0.0
H297 H 0.8478 0.51195 0.51652 0.0
H298 H 0.81697 0.53485 0.48597 0.0
H299 H 0.78004 0.47464 0.30532 0.0
C300 C 0.84346 0.42007 0.3788 0.0
C301 C 0.86349 0.42083 0.43037 0.0
C302 C 0.87452 0.44347 0.48393 0.0
C303 C 0.8653 0.46457 0.48691 0.0
C304 C 0.84522 0.46297 0.43573 0.0
C305 C 0.83464 0.44144 0.38239 0.0
C306 C 0.81274 0.44429 0.33448 0.0
C307 C 0.82625 0.44993 0.26838 0.0
C308 C 0.78011 0.41756 0.32621 0.0
C309 C 0.81236 0.47054 0.36963 0.0
C310 C 0.83118 0.48097 0.42803 0.0
C311 C 0.83331 0.5042 0.47048 0.0
C312 C 0.81568 0.51705 0.45282 0.0
C313 C 0.79643 0.50681 0.39297 0.0
C314 C 0.79502 0.48336 0.35083 0.0
H315 H 0.56053 0.26761 0.16538 0.0
H316 H 0.63647 0.26029 0.25544 0.0
H317 H 0.67123 0.31268 0.26055 0.0
H318 H 0.60795 0.32567 0.06996 0.0
H319 H 0.58501 0.34335 0.08473 0.0
H320 H 0.56719 0.30488 0.08115 0.0
H321 H 0.5488 0.30898 0.1959 0.0
H322 H 0.56675 0.34743 0.20006 0.0
H323 H 0.57708 0.33228 0.26342 0.0
H324 H 0.69647 0.36586 0.26339 0.0
H325 H 0.71102 0.4166 0.26292 0.0
H326 H 0.61822 0.39031 0.17481 0.0
C327 C 0.58472 0.27703 0.18439 0.0
C328 C 0.59607 0.26 0.2093 0.0
C329 C 0.62754 0.27307 0.23591 0.0
C330 C 0.64738 0.30273 0.23894 0.0
C331 C 0.63533 0.31909 0.21551 0.0
C332 C 0.60477 0.30677 0.18858 0.0
C333 C 0.59716 0.32961 0.17139 0.0
C334 C 0.58884 0.32564 0.0974 0.0
C335 C 0.5709 0.32956 0.21001 0.0
C336 C 0.62807 0.35665 0.1936 0.0
C337 C 0.64978 0.35002 0.21844 0.0
C338 C 0.67969 0.37131 0.2438 0.0
C339 C 0.68766 0.40017 0.24387 0.0
C340 C 0.66578 0.40765 0.21916 0.0
C341 C 0.63563 0.38542 0.19334 0.0
H342 H 0.64248 0.24012 0.35776 0.0
H343 H 0.60627 0.20254 0.531 0.0
H344 H 0.65892 0.23243 0.59153 0.0
H345 H 0.71041 0.23935 0.37011 0.0
H346 H 0.73435 0.27315 0.34181 0.0
H347 H 0.69325 0.2533 0.31651 0.0
H348 H 0.68705 0.29721 0.3616 0.0
H349 H 0.72843 0.31758 0.38549 0.0
H350 H 0.7013 0.31423 0.44497 0.0
H351 H 0.71735 0.25948 0.62503 0.0
H352 H 0.77505 0.28466 0.63245 0.0
H353 H 0.77221 0.30589 0.43789 0.0
C354 C 0.64542 0.23911 0.40925 0.0
C355 C 0.62043 0.21949 0.44032 0.0
C356 C 0.62507 0.21799 0.50706 0.0
C357 C 0.65491 0.23476 0.54148 0.0
C358 C 0.67947 0.25318 0.5085 0.0
C359 C 0.67477 0.25592 0.44417 0.0
C360 C 0.70513 0.27534 0.41784 0.0
C361 C 0.71112 0.25931 0.35808 0.0
C362 C 0.70551 0.30273 0.40154 0.0
C363 C 0.72803 0.28205 0.47625 0.0
C364 C 0.71284 0.26927 0.52829 0.0
C365 C 0.72937 0.27014 0.58519 0.0
C366 C 0.7621 0.28428 0.58882 0.0
C367 C 0.77804 0.29748 0.53605 0.0
C368 C 0.76066 0.29667 0.47959 0.0
H369 H 0.48028 0.86103 0.60745 0.0
H370 H 0.38926 0.7966 0.64937 0.0
H371 H 0.40512 0.75916 0.62747 0.0
H372 H 0.49434 0.81371 0.47984 0.0
H373 H 0.53513 0.83142 0.509 0.0
H374 H 0.51411 0.85123 0.51489 0.0
H375 H 0.53116 0.86575 0.63929 0.0
H376 H 0.55173 0.84567 0.63414 0.0
H377 H 0.52212 0.83803 0.68971 0.0
H378 H 0.43482 0.73067 0.61868 0.0
H379 H 0.47349 0.71371 0.61731 0.0
H380 H 0.54483 0.79822 0.58463 0.0
C381 C 0.46325 0.83884 0.60961 0.0
C382 C 0.43346 0.83161 0.62938 0.0
C383 C 0.41199 0.80247 0.63292 0.0
C384 C 0.42092 0.78113 0.62102 0.0
C385 C 0.45119 0.78933 0.6048 0.0
C386 C 0.47178 0.8175 0.59795 0.0
C387 C 0.50385 0.8217 0.5866 0.0
C388 C 0.51235 0.83 0.51853 0.0
C389 C 0.52864 0.84409 0.64066 0.0
C390 C 0.49861 0.79178 0.59061 0.0
C391 C 0.46809 0.77322 0.60033 0.0
C392 C 0.45862 0.74497 0.60997 0.0
C393 C 0.4809 0.73559 0.60971 0.0
C394 C 0.51243 0.75448 0.60048 0.0
C395 C 0.52098 0.78283 0.59022 0.0
H396 H 0.33904 0.79934 0.87108 0.0
H397 H 0.43293 0.81525 0.92057 0.0
H398 H 0.41157 0.76581 0.94603 0.0
H399 H 0.30176 0.75292 0.99461 0.0
H400 H 0.2668 0.72961 0.9408 0.0
H401 H 0.28943 0.76704 0.93197 0.0
H402 H 0.29384 0.75249 0.81055 0.0
H403 H 0.27134 0.71506 0.81903 0.0
H404 H 0.30942 0.72856 0.79022 0.0
H405 H 0.38011 0.71304 0.95596 0.0
H406 H 0.34085 0.662 0.95506 0.0
H407 H 0.26753 0.68057 0.89957 0.0
C408 C 0.35511 0.79255 0.8879 0.0
C409 C 0.38771 0.81134 0.89397 0.0
C410 C 0.4079 0.80155 0.91645 0.0
C411 C 0.39597 0.77338 0.93067 0.0
C412 C 0.36376 0.75528 0.92278 0.0
C413 C 0.3436 0.76457 0.90251 0.0
C414 C 0.31003 0.74055 0.89548 0.0
C415 C 0.29088 0.74798 0.9436 0.0
C416 C 0.29531 0.73377 0.82461 0.0
C417 C 0.31447 0.71613 0.91385 0.0
C418 C 0.34564 0.72506 0.92948 0.0
C419 C 0.35562 0.70593 0.94463 0.0
C420 C 0.33318 0.67695 0.94366 0.0
C421 C 0.30109 0.66731 0.92783 0.0
C422 C 0.29176 0.68735 0.9133 0.0
H423 H 0.34426 0.60622 0.81638 0.0
H424 H 0.33765 0.52212 0.77526 0.0
H425 H 0.39346 0.54537 0.75625 0.0
H426 H 0.3975 0.63984 0.69758 0.0
H427 H 0.41855 0.67406 0.74986 0.0
H428 H 0.37796 0.6506 0.75785 0.0
H429 H 0.39141 0.65206 0.88051 0.0
H430 H 0.4321 0.67531 0.87292 0.0
H431 H 0.41985 0.64191 0.9043 0.0
H432 H 0.45016 0.57816 0.74041 0.0
H433 H 0.50301 0.61764 0.72999 0.0
H434 H 0.47274 0.68012 0.78707 0.0
C435 C 0.35439 0.5926 0.80272 0.0
C436 C 0.33644 0.56226 0.79684 0.0
C437 C 0.35085 0.54536 0.77981 0.0
C438 C 0.38255 0.55839 0.76902 0.0
C439 C 0.39962 0.58836 0.77601 0.0
C440 C 0.38601 0.60524 0.79255 0.0
C441 C 0.40953 0.63699 0.79832 0.0
C442 C 0.40033 0.6512 0.74789 0.0
C443 C 0.41345 0.65247 0.86817 0.0
C444 C 0.43857 0.6354 0.78235 0.0
C445 C 0.43235 0.60717 0.76924 0.0
C446 C 0.45532 0.60033 0.75101 0.0
C447 C 0.48527 0.62289 0.74529 0.0
C448 C 0.49213 0.65197 0.75844 0.0
C449 C 0.46844 0.65816 0.77786 0.0
H450 H 0.17409 0.34728 0.12445 0.0
H451 H 0.07823 0.32812 0.0863 0.0
H452 H 0.09653 0.37441 0.04518 0.0
H453 H 0.20663 0.42381 0.179 0.0
H454 H 0.24213 0.43337 0.1409 0.0
H455 H 0.22146 0.39888 0.16831 0.0
H456 H 0.21872 0.37337 0.05207 0.0
H457 H 0.23936 0.40777 0.02432 0.0
H458 H 0.20197 0.38084 0.9833 0.0
H459 H 0.12539 0.42279 0.00661 0.0
H460 H 0.16248 0.46925 0.97387 0.0
H461 H 0.23948 0.4567 0.03662 0.0
C462 C 0.15693 0.35293 0.10821 0.0
C463 C 0.12465 0.33389 0.10859 0.0
C464 C 0.10303 0.34205 0.08579 0.0
C465 C 0.11321 0.36843 0.06267 0.0
C466 C 0.14515 0.38655 0.06257 0.0
C467 C 0.1667 0.37916 0.08479 0.0
C468 C 0.19968 0.40226 0.07833 0.0
C469 C 0.21858 0.41535 0.14565 0.0
C470 C 0.21588 0.39034 0.03172 0.0
C471 C 0.19332 0.42377 0.049 0.0
C472 C 0.16173 0.41433 0.04033 0.0
C473 C 0.1502 0.43039 0.01323 0.0
C474 C 0.1715 0.45675 0.9944 0.0
C475 C 0.20406 0.46689 0.00256 0.0
C476 C 0.21489 0.45 0.03049 0.0
H477 H 0.79858 0.77963 0.94574 0.0
H478 H 0.80576 0.86413 0.97227 0.0
H479 H 0.75285 0.84322 0.91513 0.0
H480 H 0.7547 0.75344 0.78548 0.0
H481 H 0.73104 0.71741 0.80332 0.0
H482 H 0.77006 0.73944 0.84289 0.0
H483 H 0.7486 0.73195 0.9559 0.0
H484 H 0.70949 0.71011 0.91672 0.0
H485 H 0.71884 0.74119 0.97611 0.0
H486 H 0.69874 0.8128 0.85579 0.0
H487 H 0.64771 0.77539 0.79955 0.0
H488 H 0.67501 0.71038 0.8163 0.0
C489 C 0.78927 0.79385 0.93854 0.0
C490 C 0.8065 0.82363 0.96279 0.0
C491 C 0.79309 0.84132 0.95375 0.0
C492 C 0.76304 0.82962 0.92143 0.0
C493 C 0.7465 0.80011 0.89901 0.0
C494 C 0.75914 0.78246 0.90723 0.0
C495 C 0.73608 0.75129 0.88083 0.0
C496 C 0.74873 0.73972 0.82479 0.0
C497 C 0.72777 0.73254 0.93567 0.0
C498 C 0.70851 0.75415 0.85615 0.0
C499 C 0.71505 0.7825 0.86687 0.0
C500 C 0.69337 0.79053 0.84731 0.0
C501 C 0.6644 0.7691 0.81543 0.0
C502 C 0.65718 0.73988 0.80375 0.0
C503 C 0.67959 0.73243 0.825 0.0
H504 H 0.37284 0.95867 0.78927 0.0
H505 H 0.30024 0.86936 0.75902 0.0
H506 H 0.26062 0.88485 0.77994 0.0
H507 H 0.34345 0.984 0.9177 0.0
H508 H 0.35458 1.01806 0.89053 0.0
H509 H 0.37637 0.99968 0.87069 0.0
H510 H 0.36697 1.00072 0.74741 0.0
H511 H 0.34543 1.0194 0.76689 0.0
H512 H 0.32768 0.98623 0.71042 0.0
H513 H 0.23002 0.91141 0.81604 0.0
H514 H 0.21095 0.94603 0.8486 0.0
H515 H 0.30405 1.01704 0.84653 0.0
C516 C 0.34853 0.94234 0.78633 0.0
C517 C 0.33948 0.91284 0.77285 0.0
C518 C 0.30752 0.89209 0.7689 0.0
C519 C 0.28498 0.90072 0.7811 0.0
C520 C 0.29487 0.93015 0.7958 0.0
C521 C 0.32591 0.95058 0.79698 0.0
C522 C 0.33094 0.98081 0.81325 0.0
C523 C 0.35261 0.99655 0.87681 0.0
C524 C 0.34349 0.99778 0.75608 0.0
C525 C 0.29796 0.97441 0.82221 0.0
C526 C 0.27739 0.94512 0.81276 0.0
C527 C 0.24591 0.93435 0.82238 0.0
C528 C 0.23528 0.95405 0.84114 0.0
C529 C 0.25598 0.98406 0.84893 0.0
C530 C 0.28764 0.99419 0.83944 0.0
H531 H 0.42558 0.08563 0.24343 0.0
H532 H 0.44221 0.17087 0.32183 0.0
H533 H 0.38691 0.15585 0.28789 0.0
H534 H 0.38065 0.07637 0.10378 0.0
H535 H 0.35453 0.03847 0.10231 0.0
H536 H 0.39354 0.05472 0.14148 0.0
H537 H 0.37195 0.03642 0.2492 0.0
H538 H 0.33275 1.01983 0.21014 0.0
H539 H 0.34389 0.04505 0.28453 0.0
H540 H 0.33124 0.13261 0.23024 0.0
H541 H 0.28122 0.10352 0.1604 0.0
H542 H 0.30232 0.03369 0.1228 0.0
C543 C 0.41747 0.10101 0.25495 0.0
C544 C 0.43816 0.12942 0.28537 0.0
C545 C 0.42666 0.14891 0.29925 0.0
C546 C 0.39532 0.14054 0.27988 0.0
C547 C 0.37581 0.11253 0.24774 0.0
C548 C 0.38648 0.09298 0.23644 0.0
C549 C 0.36194 0.06485 0.19733 0.0
C550 C 0.37335 0.05824 0.1324 0.0
C551 C 0.35204 0.04007 0.23773 0.0
C552 C 0.33598 0.07178 0.18607 0.0
C553 C 0.34414 0.09925 0.21584 0.0
C554 C 0.32449 0.11091 0.20783 0.0
C555 C 0.29611 0.09423 0.16794 0.0
C556 C 0.28763 0.06619 0.13634 0.0
C557 C 0.30776 0.05484 0.14682 0.0
H558 H 1.02193 0.28935 0.27348 0.0
H559 H 0.95397 0.2215 0.12597 0.0
H560 H 0.91565 0.23785 0.15314 0.0
H561 H 0.97088 0.28539 0.39138 0.0
H562 H 0.98997 0.32369 0.41808 0.0
H563 H 1.01189 0.30738 0.38398 0.0
H564 H 1.0293 0.34195 0.29745 0.0
H565 H 1.00736 0.35837 0.3313 0.0
H566 H 1.00025 0.34363 0.24582 0.0
H567 H 0.88362 0.25996 0.20456 0.0
H568 H 0.86183 0.28621 0.27147 0.0
H569 H 0.95249 0.34042 0.38081 0.0
C570 C 0.99904 0.27792 0.24648 0.0
C571 C 0.99083 0.25399 0.19787 0.0
C572 C 0.96073 0.23989 0.16337 0.0
C573 C 0.93887 0.24905 0.17854 0.0
C574 C 0.94772 0.27259 0.22749 0.0
C575 C 0.97727 0.28697 0.26034 0.0
C576 C 0.98116 0.31128 0.31168 0.0
C577 C 0.98892 0.30664 0.38031 0.0
C578 C 1.00599 0.34054 0.29557 0.0
C579 C 0.94891 0.30803 0.30403 0.0
C580 C 0.92987 0.28568 0.25521 0.0
C581 C 0.89851 0.27772 0.24221 0.0
C582 C 0.88632 0.29276 0.28051 0.0
C583 C 0.90548 0.31558 0.33106 0.0
C584 C 0.93728 0.32344 0.34193 0.0
H585 H 0.79126 0.6357 0.26774 0.0
H586 H 0.74876 0.60344 0.06785 0.0
H587 H 0.76334 0.65281 0.04984 0.0
H588 H 0.76906 0.69186 0.29741 0.0
H589 H 0.80527 0.71712 0.34539 0.0
H590 H 0.79007 0.67901 0.34382 0.0
H591 H 0.8419 0.68367 0.30633 0.0
H592 H 0.85724 0.72176 0.30778 0.0
H593 H 0.85629 0.69967 0.23415 0.0
H594 H 0.784 0.70573 0.05208 0.0
H595 H 0.81111 0.75855 0.07258 0.0
H596 H 0.83994 0.75709 0.27189 0.0
C597 C 0.78466 0.63899 0.22049 0.0
C598 C 0.76887 0.61561 0.16916 0.0
C599 C 0.76116 0.62095 0.10767 0.0
C600 C 0.76913 0.64893 0.09711 0.0
C601 C 0.78486 0.67146 0.14851 0.0
C602 C 0.79261 0.66686 0.20898 0.0
C603 C 0.81076 0.69507 0.25501 0.0
C604 C 0.7927 0.6958 0.31389 0.0
C605 C 0.84349 0.70034 0.27709 0.0
C606 C 0.81235 0.71624 0.21064 0.0
C607 C 0.79699 0.70211 0.14967 0.0
C608 C 0.7959 0.71703 0.09985 0.0
C609 C 0.8113 0.7472 0.11227 0.0
C610 C 0.82778 0.76236 0.17411 0.0
C611 C 0.82783 0.7464 0.224 0.0
H612 H 0.14995 0.45592 0.76846 0.0
H613 H 0.18019 0.53621 0.69232 0.0
H614 H 0.12741 0.51686 0.63552 0.0
H615 H 0.09572 0.4073 0.628 0.0
H616 H 0.06765 0.3846 0.67854 0.0
H617 H 0.10856 0.40364 0.70705 0.0
H618 H 0.09686 0.42694 0.81162 0.0
H619 H 0.05598 0.40809 0.78337 0.0
H620 H 0.07623 0.44674 0.80404 0.0
H621 H 0.07066 0.48883 0.58892 0.0
H622 H 1.0138 0.45609 0.56387 0.0
H623 H 1.02001 0.39571 0.67711 0.0
C624 C 0.14563 0.46919 0.73868 0.0
C625 C 0.16927 0.49739 0.7338 0.0
C626 C 0.16245 0.51446 0.69617 0.0
C627 C 0.13258 0.50362 0.66367 0.0
C628 C 0.10965 0.47583 0.67011 0.0
C629 C 0.11578 0.45894 0.70716 0.0
C630 C 0.08649 0.43076 0.71068 0.0
C631 C 0.08981 0.40505 0.67918 0.0
C632 C 0.07842 0.42799 0.78164 0.0
C633 C 0.06286 0.43448 0.67028 0.0
C634 C 0.07675 0.46039 0.64634 0.0
C635 C 0.05957 0.46849 0.60745 0.0
C636 C 1.02735 0.44976 0.59325 0.0
C637 C 1.01253 0.42349 0.61881 0.0
C638 C 1.03068 0.4158 0.65751 0.0
H639 H 0.64808 0.55535 0.31266 0.0
H640 H 0.71527 0.56518 0.46798 0.0
H641 H 0.69816 0.59378 0.54142 0.0
H642 H 0.65892 0.62553 0.34487 0.0
H643 H 0.61849 0.61487 0.3252 0.0
H644 H 0.63457 0.59363 0.28716 0.0
H645 H 0.59191 0.54838 0.32874 0.0
H646 H 0.57559 0.56946 0.36669 0.0
H647 H 0.58693 0.54943 0.41472 0.0
H648 H 0.67484 0.62359 0.59588 0.0
H649 H 0.64814 0.65176 0.62546 0.0
H650 H 0.59657 0.62145 0.43333 0.0
C651 C 0.65905 0.56319 0.36233 0.0
C652 C 0.68298 0.55792 0.3846 0.0
C653 C 0.69679 0.56881 0.44989 0.0
C654 C 0.68722 0.58508 0.49192 0.0
C655 C 0.66378 0.59015 0.46792 0.0
C656 C 0.64985 0.57939 0.40461 0.0
C657 C 0.62605 0.58862 0.38942 0.0
C658 C 0.63506 0.60674 0.33336 0.0
C659 C 0.59317 0.56241 0.374 0.0
C660 C 0.62898 0.60666 0.45375 0.0
C661 C 0.65065 0.6072 0.49872 0.0
C662 C 0.65766 0.62309 0.56111 0.0
C663 C 0.64226 0.63893 0.5776 0.0
C664 C 0.62024 0.63891 0.53176 0.0
C665 C 0.61347 0.62226 0.46934 0.0
H666 H 0.48454 1.01174 0.65827 0.0
H667 H 0.45733 0.93243 0.52745 0.0
H668 H 0.47345 0.9597 0.43456 0.0
H669 H 0.45823 0.04391 0.54908 0.0
H670 H 0.49006 0.07986 0.57445 0.0
H671 H 0.47741 0.05422 0.63092 0.0
H672 H 0.53352 0.06209 0.64923 0.0
H673 H 0.54636 0.08783 0.5929 0.0
H674 H 0.55275 0.0573 0.57991 0.0
H675 H 0.49186 0.99577 0.35531 0.0
H676 H 0.50977 0.03749 0.29599 0.0
H677 H 0.52553 0.09319 0.47906 0.0
C678 C 0.48235 1.00013 0.6103 0.0
C679 C 0.46965 0.96988 0.6003 0.0
C680 C 0.46666 0.95551 0.53632 0.0
C681 C 0.47594 0.97085 0.48328 0.0
C682 C 0.48818 1.0006 0.49484 0.0
C683 C 0.49138 1.01509 0.55678 0.0
C684 C 0.5044 0.04703 0.55581 0.0
C685 C 0.48113 0.05682 0.57892 0.0
C686 C 0.53615 0.06459 0.59689 0.0
C687 C 0.50786 0.04823 0.48361 0.0
C688 C 0.49855 1.02127 0.44928 0.0
C689 C 0.49935 1.01701 0.38179 0.0
C690 C 0.50974 0.0409 0.34851 0.0
C691 C 0.51908 0.06873 0.3826 0.0
C692 C 0.51825 0.07226 0.45122 0.0
loop_
_geom_bond_atom_site_label_1
_geom_bond_atom_site_label_2
_geom_bond_distance
_geom_bond_site_symmetry_2
_ccdc_geom_bond_type
Cu0 N1 1.999 1_455 S
Cu0 O6 1.974 . S
Cu0 N11 1.985 . S
Cu0 O20 1.959 1_455 S
N1 Cu0 1.999 1_655 S
N1 C3 1.263 . S
N1 C5 1.389 . S
N2 C3 1.358 . S
N2 C4 1.400 . S
C3 N1 1.263 . S
C3 N2 1.358 . S
C3 H9 0.930 1_655 S
C4 N2 1.400 . S
C4 C5 1.351 . S
C4 H21 0.930 . S
C5 N1 1.389 . S
C5 C4 1.351 . S
C5 H10 0.930 . S
O6 Cu0 1.974 . S
O6 C16 1.282 . S
C7 O8 1.261 1_655 S
C7 O20 1.251 . S
O8 C7 1.261 1_455 S
H9 C3 0.930 1_455 S
H10 C5 0.930 . S
N11 Cu0 1.985 . S
N11 C13 1.335 . S
N11 C14 1.390 . S
N12 C13 1.345 . S
N12 C15 1.336 . S
C13 N11 1.335 . S
C13 N12 1.345 . S
C13 H18 0.930 . S
C14 N11 1.390 . S
C14 C15 1.346 . S
C14 H19 0.930 . S
C15 N12 1.336 . S
C15 C14 1.346 . S
C15 H22 0.929 . S
C16 O6 1.282 . S
C16 O17 1.216 . S
O17 C16 1.216 . S
H18 C13 0.930 . S
H19 C14 0.930 . S
O20 Cu0 1.959 1_655 S
O20 C7 1.251 . S
H21 C4 0.930 . S
H22 C15 0.929 . S
Cu23 N24 1.999 . S
Cu23 O29 1.974 . S
Cu23 N34 1.985 . S
Cu23 O43 1.959 . S
N24 Cu23 1.999 . S
N24 C26 1.263 . S
N24 C28 1.389 . S
N25 C26 1.358 . S
N25 C27 1.400 . S
C26 N24 1.263 . S
C26 N25 1.358 . S
C26 H32 0.930 . S
C27 N25 1.400 . S
C27 C28 1.351 . S
C27 H44 0.930 . S
C28 N24 1.389 . S
C28 C27 1.351 . S
C28 H33 0.930 . S
O29 Cu23 1.974 . S
O29 C39 1.282 . S
C30 O31 1.261 1_554 S
C30 O43 1.251 . S
O31 C30 1.261 1_556 S
H32 C26 0.930 . S
H33 C28 0.930 . S
N34 Cu23 1.985 . S
N34 C36 1.335 . S
N34 C37 1.390 . S
N35 C36 1.345 . S
N35 C38 1.336 . S
C36 N34 1.335 . S
C36 N35 1.345 . S
C36 H41 0.930 . S
C37 N34 1.390 . S
C37 C38 1.346 . S
C37 H42 0.930 . S
C38 N35 1.336 . S
C38 C37 1.346 . S
C38 H45 0.929 . S
C39 O29 1.282 . S
C39 O40 1.216 . S
O40 C39 1.216 . S
H41 C36 0.930 . S
H42 C37 0.930 . S
O43 Cu23 1.959 . S
O43 C30 1.251 . S
H44 C27 0.930 . S
H45 C38 0.929 . S
Cu46 N47 1.999 1_545 S
Cu46 O52 1.974 . S
Cu46 N57 1.985 . S
Cu46 O66 1.959 1_545 S
N47 Cu46 1.999 1_565 S
N47 C49 1.263 . S
N47 C51 1.389 1_554 S
N48 C49 1.358 . S
N48 C50 1.400 1_554 S
C49 N47 1.263 . S
C49 N48 1.358 . S
C49 H55 0.930 . S
C50 N48 1.400 1_556 S
C50 C51 1.351 . S
C50 H67 0.930 . S
C51 N47 1.389 1_556 S
C51 C50 1.351 . S
C51 H56 0.930 . S
O52 Cu46 1.974 . S
O52 C62 1.282 . S
C53 O54 1.261 . S
C53 O66 1.251 . S
O54 C53 1.261 . S
H55 C49 0.930 . S
H56 C51 0.930 . S
N57 Cu46 1.985 . S
N57 C59 1.335 . S
N57 C60 1.390 . S
N58 C59 1.345 . S
N58 C61 1.336 . S
C59 N57 1.335 . S
C59 N58 1.345 . S
C59 H64 0.930 . S
C60 N57 1.390 . S
C60 C61 1.346 . S
C60 H65 0.930 . S
C61 N58 1.336 . S
C61 C60 1.346 . S
C61 H68 0.929 . S
C62 O52 1.282 . S
C62 O63 1.216 . S
O63 C62 1.216 . S
H64 C59 0.930 . S
H65 C60 0.930 . S
O66 Cu46 1.959 1_565 S
O66 C53 1.251 . S
H67 C50 0.930 . S
H68 C61 0.929 . S
Cu69 N70 1.999 . S
Cu69 O75 1.974 . S
Cu69 N80 1.985 . S
Cu69 O89 1.959 . S
N70 Cu69 1.999 . S
N70 C72 1.263 . S
N70 C74 1.389 . S
N71 C72 1.358 . S
N71 C73 1.400 . S
C72 N70 1.263 . S
C72 N71 1.358 . S
C72 H78 0.930 . S
C73 N71 1.400 . S
C73 C74 1.351 . S
C73 H90 0.930 . S
C74 N70 1.389 . S
C74 C73 1.351 . S
C74 H79 0.930 . S
O75 Cu69 1.974 . S
O75 C85 1.282 . S
C76 O77 1.261 . S
C76 O89 1.251 . S
O77 C76 1.261 . S
H78 C72 0.930 . S
H79 C74 0.930 . S
N80 Cu69 1.985 . S
N80 C82 1.335 . S
N80 C83 1.390 . S
N81 C82 1.345 . S
N81 C84 1.336 . S
C82 N80 1.335 . S
C82 N81 1.345 . S
C82 H87 0.930 . S
C83 N80 1.390 . S
C83 C84 1.346 . S
C83 H88 0.930 . S
C84 N81 1.336 . S
C84 C83 1.346 . S
C84 H91 0.929 . S
C85 O75 1.282 . S
C85 O86 1.216 . S
O86 C85 1.216 . S
H87 C82 0.930 . S
H88 C83 0.930 . S
O89 Cu69 1.959 . S
O89 C76 1.251 . S
H90 C73 0.930 . S
H91 C84 0.929 . S
Cu92 N93 1.999 . S
Cu92 O98 1.974 . S
Cu92 N103 1.985 . S
Cu92 O112 1.959 . S
N93 Cu92 1.999 . S
N93 C95 1.263 . S
N93 C97 1.389 . S
N94 C95 1.358 . S
N94 C96 1.400 . S
C95 N93 1.263 . S
C95 N94 1.358 . S
C95 H101 0.930 . S
C96 N94 1.400 . S
C96 C97 1.351 . S
C96 H113 0.930 . S
C97 N93 1.389 . S
C97 C96 1.351 . S
C97 H102 0.930 . S
O98 Cu92 1.974 . S
O98 C108 1.282 . S
C99 O100 1.261 . S
C99 O112 1.251 . S
O100 C99 1.261 . S
H101 C95 0.930 . S
H102 C97 0.930 . S
N103 Cu92 1.985 . S
N103 C105 1.335 . S
N103 C106 1.390 . S
N104 C105 1.345 . S
N104 C107 1.336 . S
C105 N103 1.335 . S
C105 N104 1.345 . S
C105 H110 0.930 . S
C106 N103 1.390 . S
C106 C107 1.346 . S
C106 H111 0.930 . S
C107 N104 1.336 . S
C107 C106 1.346 . S
C107 H114 0.929 . S
C108 O98 1.282 . S
C108 O109 1.216 . S
O109 C108 1.216 . S
H110 C105 0.930 . S
H111 C106 0.930 . S
O112 Cu92 1.959 . S
O112 C99 1.251 . S
H113 C96 0.930 . S
H114 C107 0.929 . S
Cu115 N116 1.999 . S
Cu115 O121 1.974 . S
Cu115 N126 1.985 . S
Cu115 O135 1.959 . S
N116 Cu115 1.999 . S
N116 C118 1.263 . S
N116 C120 1.389 . S
N117 C118 1.358 . S
N117 C119 1.400 . S
C118 N116 1.263 . S
C118 N117 1.358 . S
C118 H124 0.930 . S
C119 N117 1.400 . S
C119 C120 1.351 . S
C119 H136 0.930 . S
C120 N116 1.389 . S
C120 C119 1.351 . S
C120 H125 0.930 . S
O121 Cu115 1.974 . S
O121 C131 1.282 . S
C122 O123 1.261 . S
C122 O135 1.251 . S
O123 C122 1.261 . S
H124 C118 0.930 . S
H125 C120 0.930 . S
N126 Cu115 1.985 . S
N126 C128 1.335 . S
N126 C129 1.390 . S
N127 C128 1.345 . S
N127 C130 1.336 . S
C128 N126 1.335 . S
C128 N127 1.345 . S
C128 H133 0.930 . S
C129 N126 1.390 . S
C129 C130 1.346 . S
C129 H134 0.930 . S
C130 N127 1.336 . S
C130 C129 1.346 . S
C130 H137 0.929 . S
C131 O121 1.282 . S
C131 O132 1.216 . S
O132 C131 1.216 . S
H133 C128 0.930 . S
H134 C129 0.930 . S
O135 Cu115 1.959 . S
O135 C122 1.251 . S
H136 C119 0.930 . S
H137 C130 0.929 . S
Cu138 N139 1.999 . S
Cu138 O144 1.974 . S
Cu138 N149 1.985 . S
Cu138 O158 1.959 . S
N139 Cu138 1.999 . S
N139 C141 1.263 . S
N139 C143 1.389 . S
N140 C141 1.358 . S
N140 C142 1.400 . S
C141 N139 1.263 . S
C141 N140 1.358 . S
C141 H147 0.930 . S
C142 N140 1.400 . S
C142 C143 1.351 . S
C142 H159 0.930 . S
C143 N139 1.389 . S
C143 C142 1.351 . S
C143 H148 0.930 . S
O144 Cu138 1.974 . S
O144 C154 1.282 . S
C145 O146 1.261 . S
C145 O158 1.251 . S
O146 C145 1.261 . S
H147 C141 0.930 . S
H148 C143 0.930 . S
N149 Cu138 1.985 . S
N149 C151 1.335 . S
N149 C152 1.390 . S
N150 C151 1.345 . S
N150 C153 1.336 . S
C151 N149 1.335 . S
C151 N150 1.345 . S
C151 H156 0.930 . S
C152 N149 1.390 . S
C152 C153 1.346 . S
C152 H157 0.930 . S
C153 N150 1.336 . S
C153 C152 1.346 . S
C153 H160 0.929 . S
C154 O144 1.282 . S
C154 O155 1.216 . S
O155 C154 1.216 . S
H156 C151 0.930 . S
H157 C152 0.930 . S
O158 Cu138 1.959 . S
O158 C145 1.251 . S
H159 C142 0.930 . S
H160 C153 0.929 . S
Cu161 N162 1.999 . S
Cu161 O167 1.974 . S
Cu161 N172 1.985 . S
Cu161 O181 1.959 . S
N162 Cu161 1.999 . S
N162 C164 1.263 . S
N162 C166 1.389 . S
N163 C164 1.358 . S
N163 C165 1.400 . S
C164 N162 1.263 . S
C164 N163 1.358 . S
C164 H170 0.930 . S
C165 N163 1.400 . S
C165 C166 1.351 . S
C165 H182 0.930 . S
C166 N162 1.389 . S
C166 C165 1.351 . S
C166 H171 0.930 . S
O167 Cu161 1.974 . S
O167 C177 1.282 . S
C168 O169 1.261 . S
C168 O181 1.251 . S
O169 C168 1.261 . S
H170 C164 0.930 . S
H171 C166 0.930 . S
N172 Cu161 1.985 . S
N172 C174 1.335 . S
N172 C175 1.390 . S
N173 C174 1.345 . S
N173 C176 1.336 . S
C174 N172 1.335 . S
C174 N173 1.345 . S
C174 H179 0.930 . S
C175 N172 1.390 . S
C175 C176 1.346 . S
C175 H180 0.930 . S
C176 N173 1.336 . S
C176 C175 1.346 . S
C176 H183 0.929 . S
C177 O167 1.282 . S
C177 O178 1.216 . S
O178 C177 1.216 . S
H179 C174 0.930 . S
H180 C175 0.930 . S
O181 Cu161 1.959 . S
O181 C168 1.251 . S
H182 C165 0.930 . S
H183 C176 0.929 . S
Cu184 N185 1.999 . S
Cu184 O190 1.974 . S
Cu184 N195 1.985 . S
Cu184 O204 1.959 . S
N185 Cu184 1.999 . S
N185 C187 1.263 . S
N185 C189 1.389 . S
N186 C187 1.358 . S
N186 C188 1.400 . S
C187 N185 1.263 . S
C187 N186 1.358 . S
C187 H193 0.930 . S
C188 N186 1.400 . S
C188 C189 1.351 . S
C188 H205 0.930 . S
C189 N185 1.389 . S
C189 C188 1.351 . S
C189 H194 0.930 . S
O190 Cu184 1.974 . S
O190 C200 1.282 . S
C191 O192 1.261 . S
C191 O204 1.251 . S
O192 C191 1.261 . S
H193 C187 0.930 . S
H194 C189 0.930 . S
N195 Cu184 1.985 . S
N195 C197 1.335 . S
N195 C198 1.390 . S
N196 C197 1.345 . S
N196 C199 1.336 . S
C197 N195 1.335 . S
C197 N196 1.345 . S
C197 H202 0.930 . S
C198 N195 1.390 . S
C198 C199 1.346 . S
C198 H203 0.930 . S
C199 N196 1.336 . S
C199 C198 1.346 . S
C199 H206 0.929 . S
C200 O190 1.282 . S
C200 O201 1.216 . S
O201 C200 1.216 . S
H202 C197 0.930 . S
H203 C198 0.930 . S
O204 Cu184 1.959 . S
O204 C191 1.251 . S
H205 C188 0.930 . S
H206 C199 0.929 . S
H207 C219 0.930 . S
H208 C221 0.930 . S
H209 C222 0.930 1_556 S
H210 C226 0.959 . S
H211 C226 0.959 . S
H212 C226 0.961 . S
H213 C227 0.960 . S
H214 C227 0.961 . S
H215 C227 0.959 . S
H216 C230 0.929 . S
H217 C231 0.931 . S
H218 C233 0.930 . S
C219 H207 0.930 . S
C219 C220 1.399 . S
C219 C224 1.399 . S
C220 C219 1.399 . S
C220 C221 1.376 . S
C221 H208 0.930 . S
C221 C220 1.376 . S
C221 C222 1.388 . S
C222 H209 0.930 1_554 S
C222 C221 1.388 . S
C222 C223 1.390 . S
C223 C222 1.390 . S
C223 C224 1.394 . S
C223 C229 1.465 . S
C224 C219 1.399 . S
C224 C223 1.394 . S
C224 C225 1.516 . S
C225 C224 1.516 . S
C225 C226 1.502 . S
C225 C227 1.561 . S
C225 C228 1.526 . S
C226 H210 0.959 . S
C226 H211 0.959 . S
C226 H212 0.961 . S
C226 C225 1.502 . S
C227 H213 0.960 . S
C227 H214 0.961 . S
C227 H215 0.959 . S
C227 C225 1.561 . S
C228 C225 1.526 . S
C228 C229 1.396 . S
C228 C233 1.390 . S
C229 C223 1.465 . S
C229 C228 1.396 . S
C229 C230 1.399 1_554 S
C230 H216 0.929 . S
C230 C229 1.399 1_556 S
C230 C231 1.385 . S
C231 H217 0.931 . S
C231 C230 1.385 . S
C231 C232 1.389 1_556 S
C232 C231 1.389 1_554 S
C232 C233 1.387 . S
C233 H218 0.930 . S
C233 C228 1.390 . S
C233 C232 1.387 . S
H234 C246 0.930 . S
H235 C248 0.930 1_556 S
H236 C249 0.930 1_556 S
H237 C253 0.959 . S
H238 C253 0.959 . S
H239 C253 0.961 . S
H240 C254 0.960 . S
H241 C254 0.961 . S
H242 C254 0.959 . S
H243 C257 0.929 . S
H244 C258 0.931 . S
H245 C260 0.930 . S
C246 H234 0.930 . S
C246 C247 1.399 . S
C246 C251 1.399 . S
C247 C246 1.399 . S
C247 C248 1.376 . S
C248 H235 0.930 1_554 S
C248 C247 1.376 . S
C248 C249 1.388 . S
C249 H236 0.930 1_554 S
C249 C248 1.388 . S
C249 C250 1.390 1_565 S
C250 C249 1.390 1_545 S
C250 C251 1.393 1_545 S
C250 C256 1.466 . S
C251 C246 1.399 . S
C251 C250 1.393 1_565 S
C251 C252 1.516 1_565 S
C252 C251 1.516 1_545 S
C252 C253 1.502 . S
C252 C254 1.561 . S
C252 C255 1.526 . S
C253 H237 0.959 . S
C253 H238 0.959 . S
C253 H239 0.961 . S
C253 C252 1.502 . S
C254 H240 0.960 . S
C254 H241 0.961 . S
C254 H242 0.959 . S
C254 C252 1.561 . S
C255 C252 1.526 . S
C255 C256 1.396 . S
C255 C260 1.390 . S
C256 C250 1.466 . S
C256 C255 1.396 . S
C256 C257 1.399 . S
C257 H243 0.929 . S
C257 C256 1.399 . S
C257 C258 1.385 . S
C258 H244 0.931 . S
C258 C257 1.385 . S
C258 C259 1.389 . S
C259 C258 1.389 . S
C259 C260 1.387 . S
C260 H245 0.930 . S
C260 C255 1.390 . S
C260 C259 1.387 . S
H261 C273 0.930 . S
H262 C275 0.930 . S
H263 C276 0.930 1_455 S
H264 C280 0.959 . S
H265 C280 0.959 . S
H266 C280 0.961 1_655 S
H267 C281 0.960 1_655 S
H268 C281 0.961 . S
H269 C281 0.959 . S
H270 C284 0.929 . S
H271 C285 0.931 . S
H272 C287 0.930 1_556 S
C273 H261 0.930 . S
C273 C274 1.399 . S
C273 C278 1.399 . S
C274 C273 1.399 . S
C274 C275 1.376 . S
C275 H262 0.930 . S
C275 C274 1.376 . S
C275 C276 1.388 . S
C276 H263 0.930 1_655 S
C276 C275 1.388 . S
C276 C277 1.390 1_655 S
C277 C276 1.390 1_455 S
C277 C278 1.394 1_455 S
C277 C283 1.465 . S
C278 C273 1.399 . S
C278 C277 1.394 1_655 S
C278 C279 1.512 1_654 S
C279 C278 1.512 1_456 S
C279 C280 1.505 . S
C279 C281 1.564 . S
C279 C282 1.523 1_556 S
C280 H264 0.959 . S
C280 H265 0.959 . S
C280 H266 0.961 1_455 S
C280 C279 1.505 . S
C281 H267 0.960 1_455 S
C281 H268 0.961 . S
C281 H269 0.959 . S
C281 C279 1.564 . S
C282 C279 1.523 1_554 S
C282 C283 1.396 . S
C282 C287 1.390 . S
C283 C277 1.465 . S
C283 C282 1.396 . S
C283 C284 1.399 . S
C284 H270 0.929 . S
C284 C283 1.399 . S
C284 C285 1.385 . S
C285 H271 0.931 . S
C285 C284 1.385 . S
C285 C286 1.389 . S
C286 C285 1.389 . S
C286 C287 1.387 . S
C287 H272 0.930 1_554 S
C287 C282 1.390 . S
C287 C286 1.387 . S
H288 C300 0.930 . S
H289 C302 0.930 . S
H290 C303 0.930 . S
H291 C307 0.959 . S
H292 C307 0.959 . S
H293 C307 0.961 . S
H294 C308 0.960 . S
H295 C308 0.961 . S
H296 C308 0.959 . S
H297 C311 0.929 . S
H298 C312 0.931 . S
H299 C314 0.930 . S
C300 H288 0.930 . S
C300 C301 1.399 . S
C300 C305 1.399 . S
C301 C300 1.399 . S
C301 C302 1.376 . S
C302 H289 0.930 . S
C302 C301 1.376 . S
C302 C303 1.388 . S
C303 H290 0.930 . S
C303 C302 1.388 . S
C303 C304 1.390 . S
C304 C303 1.390 . S
C304 C305 1.394 . S
C304 C310 1.465 . S
C305 C300 1.399 . S
C305 C304 1.394 . S
C305 C306 1.516 . S
C306 C305 1.516 . S
C306 C307 1.502 . S
C306 C308 1.561 . S
C306 C309 1.526 . S
C307 H291 0.959 . S
C307 H292 0.959 . S
C307 H293 0.961 . S
C307 C306 1.502 . S
C308 H294 0.960 . S
C308 H295 0.961 . S
C308 H296 0.959 . S
C308 C306 1.561 . S
C309 C306 1.526 . S
C309 C310 1.396 . S
C309 C314 1.390 . S
C310 C304 1.465 . S
C310 C309 1.396 . S
C310 C311 1.399 . S
C311 H297 0.929 . S
C311 C310 1.399 . S
C311 C312 1.385 . S
C312 H298 0.931 . S
C312 C311 1.385 . S
C312 C313 1.389 . S
C313 C312 1.389 . S
C313 C314 1.387 . S
C314 H299 0.930 . S
C314 C309 1.390 . S
C314 C313 1.387 . S
H315 C327 0.930 . S
H316 C329 0.930 . S
H317 C330 0.930 . S
H318 C334 0.959 . S
H319 C334 0.959 . S
H320 C334 0.961 . S
H321 C335 0.960 . S
H322 C335 0.961 . S
H323 C335 0.959 . S
H324 C338 0.929 . S
H325 C339 0.931 . S
H326 C341 0.930 . S
C327 H315 0.930 . S
C327 C328 1.399 . S
C327 C332 1.399 . S
C328 C327 1.399 . S
C328 C329 1.376 . S
C329 H316 0.930 . S
C329 C328 1.376 . S
C329 C330 1.388 . S
C330 H317 0.930 . S
C330 C329 1.388 . S
C330 C331 1.390 . S
C331 C330 1.390 . S
C331 C332 1.394 . S
C331 C337 1.465 . S
C332 C327 1.399 . S
C332 C331 1.394 . S
C332 C333 1.516 . S
C333 C332 1.516 . S
C333 C334 1.502 . S
C333 C335 1.561 . S
C333 C336 1.526 . S
C334 H318 0.959 . S
C334 H319 0.959 . S
C334 H320 0.961 . S
C334 C333 1.502 . S
C335 H321 0.960 . S
C335 H322 0.961 . S
C335 H323 0.959 . S
C335 C333 1.561 . S
C336 C333 1.526 . S
C336 C337 1.396 . S
C336 C341 1.390 . S
C337 C331 1.465 . S
C337 C336 1.396 . S
C337 C338 1.399 . S
C338 H324 0.929 . S
C338 C337 1.399 . S
C338 C339 1.385 . S
C339 H325 0.931 . S
C339 C338 1.385 . S
C339 C340 1.389 . S
C340 C339 1.389 . S
C340 C341 1.387 . S
C341 H326 0.930 . S
C341 C336 1.390 . S
C341 C340 1.387 . S
H342 C354 0.930 . S
H343 C356 0.930 . S
H344 C357 0.930 . S
H345 C361 0.959 . S
H346 C361 0.959 . S
H347 C361 0.961 . S
H348 C362 0.960 . S
H349 C362 0.961 . S
H350 C362 0.959 . S
H351 C365 0.929 . S
H352 C366 0.931 . S
H353 C368 0.930 . S
C354 H342 0.930 . S
C354 C355 1.399 . S
C354 C359 1.399 . S
C355 C354 1.399 . S
C355 C356 1.376 . S
C356 H343 0.930 . S
C356 C355 1.376 . S
C356 C357 1.388 . S
C357 H344 0.930 . S
C357 C356 1.388 . S
C357 C358 1.390 . S
C358 C357 1.390 . S
C358 C359 1.394 . S
C358 C364 1.465 . S
C359 C354 1.399 . S
C359 C358 1.394 . S
C359 C360 1.516 . S
C360 C359 1.516 . S
C360 C361 1.502 . S
C360 C362 1.561 . S
C360 C363 1.526 . S
C361 H345 0.959 . S
C361 H346 0.959 . S
C361 H347 0.961 . S
C361 C360 1.502 . S
C362 H348 0.960 . S
C362 H349 0.961 . S
C362 H350 0.959 . S
C362 C360 1.561 . S
C363 C360 1.526 . S
C363 C364 1.396 . S
C363 C368 1.390 . S
C364 C358 1.465 . S
C364 C363 1.396 . S
C364 C365 1.399 . S
C365 H351 0.929 . S
C365 C364 1.399 . S
C365 C366 1.385 . S
C366 H352 0.931 . S
C366 C365 1.385 . S
C366 C367 1.389 . S
C367 C366 1.389 . S
C367 C368 1.387 . S
C368 H353 0.930 . S
C368 C363 1.390 . S
C368 C367 1.387 . S
H369 C381 0.930 . S
H370 C383 0.930 . S
H371 C384 0.930 . S
H372 C388 0.959 . S
H373 C388 0.959 . S
H374 C388 0.961 . S
H375 C389 0.960 . S
H376 C389 0.961 . S
H377 C389 0.959 . S
H378 C392 0.929 . S
H379 C393 0.931 . S
H380 C395 0.930 . S
C381 H369 0.930 . S
C381 C382 1.399 . S
C381 C386 1.399 . S
C382 C381 1.399 . S
C382 C383 1.376 . S
C383 H370 0.930 . S
C383 C382 1.376 . S
C383 C384 1.388 . S
C384 H371 0.930 . S
C384 C383 1.388 . S
C384 C385 1.390 . S
C385 C384 1.390 . S
C385 C386 1.394 . S
C385 C391 1.465 . S
C386 C381 1.399 . S
C386 C385 1.394 . S
C386 C387 1.516 . S
C387 C386 1.516 . S
C387 C388 1.502 . S
C387 C389 1.561 . S
C387 C390 1.526 . S
C388 H372 0.959 . S
C388 H373 0.959 . S
C388 H374 0.961 . S
C388 C387 1.502 . S
C389 H375 0.960 . S
C389 H376 0.961 . S
C389 H377 0.959 . S
C389 C387 1.561 . S
C390 C387 1.526 . S
C390 C391 1.396 . S
C390 C395 1.390 . S
C391 C385 1.465 . S
C391 C390 1.396 . S
C391 C392 1.399 . S
C392 H378 0.929 . S
C392 C391 1.399 . S
C392 C393 1.385 . S
C393 H379 0.931 . S
C393 C392 1.385 . S
C393 C394 1.389 . S
C394 C393 1.389 . S
C394 C395 1.387 . S
C395 H380 0.930 . S
C395 C390 1.390 . S
C395 C394 1.387 . S
H396 C408 0.930 . S
H397 C410 0.930 . S
H398 C411 0.930 . S
H399 C415 0.959 . S
H400 C415 0.959 . S
H401 C415 0.961 . S
H402 C416 0.960 . S
H403 C416 0.961 . S
H404 C416 0.959 . S
H405 C419 0.929 . S
H406 C420 0.931 . S
H407 C422 0.930 . S
C408 H396 0.930 . S
C408 C409 1.399 . S
C408 C413 1.399 . S
C409 C408 1.399 . S
C409 C410 1.376 . S
C410 H397 0.930 . S
C410 C409 1.376 . S
C410 C411 1.388 . S
C411 H398 0.930 . S
C411 C410 1.388 . S
C411 C412 1.390 . S
C412 C411 1.390 . S
C412 C413 1.394 . S
C412 C418 1.465 . S
C413 C408 1.399 . S
C413 C412 1.394 . S
C413 C414 1.516 . S
C414 C413 1.516 . S
C414 C415 1.502 . S
C414 C416 1.561 . S
C414 C417 1.526 . S
C415 H399 0.959 . S
C415 H400 0.959 . S
C415 H401 0.961 . S
C415 C414 1.502 . S
C416 H402 0.960 . S
C416 H403 0.961 . S
C416 H404 0.959 . S
C416 C414 1.561 . S
C417 C414 1.526 . S
C417 C418 1.396 . S
C417 C422 1.390 . S
C418 C412 1.465 . S
C418 C417 1.396 . S
C418 C419 1.399 . S
C419 H405 0.929 . S
C419 C418 1.399 . S
C419 C420 1.385 . S
C420 H406 0.931 . S
C420 C419 1.385 . S
C420 C421 1.389 . S
C421 C420 1.389 . S
C421 C422 1.387 . S
C422 H407 0.930 . S
C422 C417 1.390 . S
C422 C421 1.387 . S
H423 C435 0.930 . S
H424 C437 0.930 . S
H425 C438 0.930 . S
H426 C442 0.959 . S
H427 C442 0.959 . S
H428 C442 0.961 . S
H429 C443 0.960 . S
H430 C443 0.961 . S
H431 C443 0.959 . S
H432 C446 0.929 . S
H433 C447 0.931 . S
H434 C449 0.930 . S
C435 H423 0.930 . S
C435 C436 1.399 . S
C435 C440 1.399 . S
C436 C435 1.399 . S
C436 C437 1.376 . S
C437 H424 0.930 . S
C437 C436 1.376 . S
C437 C438 1.388 . S
C438 H425 0.930 . S
C438 C437 1.388 . S
C438 C439 1.390 . S
C439 C438 1.390 . S
C439 C440 1.394 . S
C439 C445 1.465 . S
C440 C435 1.399 . S
C440 C439 1.394 . S
C440 C441 1.516 . S
C441 C440 1.516 . S
C441 C442 1.502 . S
C441 C443 1.561 . S
C441 C444 1.526 . S
C442 H426 0.959 . S
C442 H427 0.959 . S
C442 H428 0.961 . S
C442 C441 1.502 . S
C443 H429 0.960 . S
C443 H430 0.961 . S
C443 H431 0.959 . S
C443 C441 1.561 . S
C444 C441 1.526 . S
C444 C445 1.396 . S
C444 C449 1.390 . S
C445 C439 1.465 . S
C445 C444 1.396 . S
C445 C446 1.399 . S
C446 H432 0.929 . S
C446 C445 1.399 . S
C446 C447 1.385 . S
C447 H433 0.931 . S
C447 C446 1.385 . S
C447 C448 1.389 . S
C448 C447 1.389 . S
C448 C449 1.387 . S
C449 H434 0.930 . S
C449 C444 1.390 . S
C449 C448 1.387 . S
H450 C462 0.930 . S
H451 C464 0.930 . S
H452 C465 0.930 . S
H453 C469 0.959 . S
H454 C469 0.959 . S
H455 C469 0.961 . S
H456 C470 0.960 . S
H457 C470 0.961 . S
H458 C470 0.959 . S
H459 C473 0.929 . S
H460 C474 0.931 . S
H461 C476 0.930 . S
C462 H450 0.930 . S
C462 C463 1.399 . S
C462 C467 1.399 . S
C463 C462 1.399 . S
C463 C464 1.376 1_556 S
C464 H451 0.930 . S
C464 C463 1.376 1_554 S
C464 C465 1.388 . S
C465 H452 0.930 . S
C465 C464 1.388 . S
C465 C466 1.390 1_554 S
C466 C465 1.390 1_556 S
C466 C467 1.394 . S
C466 C472 1.465 . S
C467 C462 1.399 . S
C467 C466 1.394 . S
C467 C468 1.516 . S
C468 C467 1.516 . S
C468 C469 1.502 . S
C468 C470 1.561 . S
C468 C471 1.526 . S
C469 H453 0.959 . S
C469 H454 0.959 . S
C469 H455 0.961 . S
C469 C468 1.502 . S
C470 H456 0.960 . S
C470 H457 0.961 . S
C470 H458 0.959 . S
C470 C468 1.561 . S
C471 C468 1.526 . S
C471 C472 1.396 . S
C471 C476 1.390 . S
C472 C466 1.465 . S
C472 C471 1.396 . S
C472 C473 1.399 . S
C473 H459 0.929 . S
C473 C472 1.399 . S
C473 C474 1.385 . S
C474 H460 0.931 . S
C474 C473 1.385 . S
C474 C475 1.389 . S
C475 C474 1.389 . S
C475 C476 1.387 . S
C476 H461 0.930 . S
C476 C471 1.390 . S
C476 C475 1.387 . S
H477 C489 0.930 . S
H478 C491 0.930 . S
H479 C492 0.930 . S
H480 C496 0.959 . S
H481 C496 0.959 . S
H482 C496 0.961 . S
H483 C497 0.960 1_554 S
H484 C497 0.961 . S
H485 C497 0.959 1_554 S
H486 C500 0.929 . S
H487 C501 0.931 . S
H488 C503 0.930 . S
C489 H477 0.930 . S
C489 C490 1.399 . S
C489 C494 1.399 . S
C490 C489 1.399 . S
C490 C491 1.376 . S
C491 H478 0.930 . S
C491 C490 1.376 . S
C491 C492 1.388 . S
C492 H479 0.930 . S
C492 C491 1.388 . S
C492 C493 1.390 . S
C493 C492 1.390 . S
C493 C494 1.394 . S
C493 C499 1.465 . S
C494 C489 1.399 . S
C494 C493 1.394 . S
C494 C495 1.516 . S
C495 C494 1.516 . S
C495 C496 1.502 . S
C495 C497 1.561 . S
C495 C498 1.526 . S
C496 H480 0.959 . S
C496 H481 0.959 . S
C496 H482 0.961 . S
C496 C495 1.502 . S
C497 H483 0.960 1_556 S
C497 H484 0.961 . S
C497 H485 0.959 1_556 S
C497 C495 1.561 . S
C498 C495 1.526 . S
C498 C499 1.396 . S
C498 C503 1.390 . S
C499 C493 1.465 . S
C499 C498 1.396 . S
C499 C500 1.399 . S
C500 H486 0.929 . S
C500 C499 1.399 . S
C500 C501 1.385 . S
C501 H487 0.931 . S
C501 C500 1.385 . S
C501 C502 1.389 . S
C502 C501 1.389 . S
C502 C503 1.387 . S
C503 H488 0.930 . S
C503 C498 1.390 . S
C503 C502 1.387 . S
H504 C516 0.930 . S
H505 C518 0.930 . S
H506 C519 0.930 . S
H507 C523 0.959 . S
H508 C523 0.959 . S
H509 C523 0.961 . S
H510 C524 0.960 . S
H511 C524 0.961 . S
H512 C524 0.959 . S
H513 C527 0.929 . S
H514 C528 0.931 1_554 S
H515 C530 0.930 . S
C516 H504 0.930 . S
C516 C517 1.399 . S
C516 C521 1.399 . S
C517 C516 1.399 . S
C517 C518 1.376 . S
C518 H505 0.930 . S
C518 C517 1.376 . S
C518 C519 1.388 . S
C519 H506 0.930 . S
C519 C518 1.388 . S
C519 C520 1.390 . S
C520 C519 1.390 . S
C520 C521 1.394 . S
C520 C526 1.465 . S
C521 C516 1.399 . S
C521 C520 1.394 . S
C521 C522 1.516 . S
C522 C521 1.516 . S
C522 C523 1.502 . S
C522 C524 1.561 . S
C522 C525 1.526 . S
C523 H507 0.959 . S
C523 H508 0.959 . S
C523 H509 0.961 . S
C523 C522 1.502 . S
C524 H510 0.960 . S
C524 H511 0.961 . S
C524 H512 0.959 . S
C524 C522 1.561 . S
C525 C522 1.526 . S
C525 C526 1.396 . S
C525 C530 1.390 . S
C526 C520 1.465 . S
C526 C525 1.396 . S
C526 C527 1.399 . S
C527 H513 0.929 . S
C527 C526 1.399 . S
C527 C528 1.385 . S
C528 H514 0.931 1_556 S
C528 C527 1.385 . S
C528 C529 1.389 . S
C529 C528 1.389 . S
C529 C530 1.387 . S
C530 H515 0.930 . S
C530 C525 1.390 . S
C530 C529 1.387 . S
H531 C543 0.930 . S
H532 C545 0.930 . S
H533 C546 0.930 . S
H534 C550 0.959 . S
H535 C550 0.959 . S
H536 C550 0.961 . S
H537 C551 0.960 . S
H538 C551 0.961 . S
H539 C551 0.959 . S
H540 C554 0.929 . S
H541 C555 0.931 . S
H542 C557 0.930 . S
C543 H531 0.930 . S
C543 C544 1.399 . S
C543 C548 1.399 . S
C544 C543 1.399 . S
C544 C545 1.376 . S
C545 H532 0.930 . S
C545 C544 1.376 . S
C545 C546 1.388 . S
C546 H533 0.930 . S
C546 C545 1.388 . S
C546 C547 1.390 . S
C547 C546 1.390 . S
C547 C548 1.394 . S
C547 C553 1.465 . S
C548 C543 1.399 . S
C548 C547 1.394 . S
C548 C549 1.516 . S
C549 C548 1.516 . S
C549 C550 1.502 . S
C549 C551 1.561 . S
C549 C552 1.526 . S
C550 H534 0.959 . S
C550 H535 0.959 . S
C550 H536 0.961 . S
C550 C549 1.502 . S
C551 H537 0.960 . S
C551 H538 0.961 . S
C551 H539 0.959 . S
C551 C549 1.561 . S
C552 C549 1.526 . S
C552 C553 1.396 . S
C552 C557 1.390 . S
C553 C547 1.465 . S
C553 C552 1.396 . S
C553 C554 1.399 . S
C554 H540 0.929 . S
C554 C553 1.399 . S
C554 C555 1.385 . S
C555 H541 0.931 . S
C555 C554 1.385 . S
C555 C556 1.389 . S
C556 C555 1.389 . S
C556 C557 1.387 . S
C557 H542 0.930 . S
C557 C552 1.390 . S
C557 C556 1.387 . S
H558 C570 0.930 . S
H559 C572 0.930 . S
H560 C573 0.930 . S
H561 C577 0.959 . S
H562 C577 0.959 . S
H563 C577 0.961 . S
H564 C578 0.960 1_455 S
H565 C578 0.961 . S
H566 C578 0.959 . S
H567 C581 0.929 . S
H568 C582 0.931 . S
H569 C584 0.930 . S
C570 H558 0.930 . S
C570 C571 1.399 . S
C570 C575 1.399 . S
C571 C570 1.399 . S
C571 C572 1.376 . S
C572 H559 0.930 . S
C572 C571 1.376 . S
C572 C573 1.388 . S
C573 H560 0.930 . S
C573 C572 1.388 . S
C573 C574 1.390 . S
C574 C573 1.390 . S
C574 C575 1.394 . S
C574 C580 1.465 . S
C575 C570 1.399 . S
C575 C574 1.394 . S
C575 C576 1.516 . S
C576 C575 1.516 . S
C576 C577 1.502 . S
C576 C578 1.561 . S
C576 C579 1.526 . S
C577 H561 0.959 . S
C577 H562 0.959 . S
C577 H563 0.961 . S
C577 C576 1.502 . S
C578 H564 0.960 1_655 S
C578 H565 0.961 . S
C578 H566 0.959 . S
C578 C576 1.561 . S
C579 C576 1.526 . S
C579 C580 1.396 . S
C579 C584 1.390 . S
C580 C574 1.465 . S
C580 C579 1.396 . S
C580 C581 1.399 . S
C581 H567 0.929 . S
C581 C580 1.399 . S
C581 C582 1.385 . S
C582 H568 0.931 . S
C582 C581 1.385 . S
C582 C583 1.389 . S
C583 C582 1.389 . S
C583 C584 1.387 . S
C584 H569 0.930 . S
C584 C579 1.390 . S
C584 C583 1.387 . S
H585 C597 0.930 . S
H586 C599 0.930 . S
H587 C600 0.930 . S
H588 C604 0.959 . S
H589 C604 0.959 . S
H590 C604 0.961 . S
H591 C605 0.960 . S
H592 C605 0.961 . S
H593 C605 0.959 . S
H594 C608 0.929 . S
H595 C609 0.931 . S
H596 C611 0.930 . S
C597 H585 0.930 . S
C597 C598 1.399 . S
C597 C602 1.399 . S
C598 C597 1.399 . S
C598 C599 1.376 . S
C599 H586 0.930 . S
C599 C598 1.376 . S
C599 C600 1.388 . S
C600 H587 0.930 . S
C600 C599 1.388 . S
C600 C601 1.390 . S
C601 C600 1.390 . S
C601 C602 1.394 . S
C601 C607 1.465 . S
C602 C597 1.399 . S
C602 C601 1.394 . S
C602 C603 1.516 . S
C603 C602 1.516 . S
C603 C604 1.502 . S
C603 C605 1.561 . S
C603 C606 1.526 . S
C604 H588 0.959 . S
C604 H589 0.959 . S
C604 H590 0.961 . S
C604 C603 1.502 . S
C605 H591 0.960 . S
C605 H592 0.961 . S
C605 H593 0.959 . S
C605 C603 1.561 . S
C606 C603 1.526 . S
C606 C607 1.396 . S
C606 C611 1.390 . S
C607 C601 1.465 . S
C607 C606 1.396 . S
C607 C608 1.399 . S
C608 H594 0.929 . S
C608 C607 1.399 . S
C608 C609 1.385 . S
C609 H595 0.931 . S
C609 C608 1.385 . S
C609 C610 1.389 . S
C610 C609 1.389 . S
C610 C611 1.387 . S
C611 H596 0.930 . S
C611 C606 1.390 . S
C611 C610 1.387 . S
H612 C624 0.930 . S
H613 C626 0.930 . S
H614 C627 0.930 . S
H615 C631 0.959 . S
H616 C631 0.959 . S
H617 C631 0.961 . S
H618 C632 0.960 . S
H619 C632 0.961 . S
H620 C632 0.959 . S
H621 C635 0.929 . S
H622 C636 0.931 . S
H623 C638 0.930 . S
C624 H612 0.930 . S
C624 C625 1.399 . S
C624 C629 1.399 . S
C625 C624 1.399 . S
C625 C626 1.376 . S
C626 H613 0.930 . S
C626 C625 1.376 . S
C626 C627 1.388 . S
C627 H614 0.930 . S
C627 C626 1.388 . S
C627 C628 1.390 . S
C628 C627 1.390 . S
C628 C629 1.394 . S
C628 C634 1.465 . S
C629 C624 1.399 . S
C629 C628 1.394 . S
C629 C630 1.516 . S
C630 C629 1.516 . S
C630 C631 1.502 . S
C630 C632 1.561 . S
C630 C633 1.526 . S
C631 H615 0.959 . S
C631 H616 0.959 . S
C631 H617 0.961 . S
C631 C630 1.502 . S
C632 H618 0.960 . S
C632 H619 0.961 . S
C632 H620 0.959 . S
C632 C630 1.561 . S
C633 C630 1.526 . S
C633 C634 1.396 . S
C633 C638 1.390 1_455 S
C634 C628 1.465 . S
C634 C633 1.396 . S
C634 C635 1.399 . S
C635 H621 0.929 . S
C635 C634 1.399 . S
C635 C636 1.385 1_455 S
C636 H622 0.931 . S
C636 C635 1.385 1_655 S
C636 C637 1.389 . S
C637 C636 1.389 . S
C637 C638 1.387 . S
C638 H623 0.930 . S
C638 C633 1.390 1_655 S
C638 C637 1.387 . S
H639 C651 0.930 . S
H640 C653 0.930 . S
H641 C654 0.930 . S
H642 C658 0.959 . S
H643 C658 0.959 . S
H644 C658 0.961 . S
H645 C659 0.960 . S
H646 C659 0.961 . S
H647 C659 0.959 . S
H648 C662 0.929 . S
H649 C663 0.931 . S
H650 C665 0.930 . S
C651 H639 0.930 . S
C651 C652 1.399 . S
C651 C656 1.399 . S
C652 C651 1.399 . S
C652 C653 1.376 . S
C653 H640 0.930 . S
C653 C652 1.376 . S
C653 C654 1.388 . S
C654 H641 0.930 . S
C654 C653 1.388 . S
C654 C655 1.390 . S
C655 C654 1.390 . S
C655 C656 1.394 . S
C655 C661 1.465 . S
C656 C651 1.399 . S
C656 C655 1.394 . S
C656 C657 1.516 . S
C657 C656 1.516 . S
C657 C658 1.502 . S
C657 C659 1.561 . S
C657 C660 1.526 . S
C658 H642 0.959 . S
C658 H643 0.959 . S
C658 H644 0.961 . S
C658 C657 1.502 . S
C659 H645 0.960 . S
C659 H646 0.961 . S
C659 H647 0.959 . S
C659 C657 1.561 . S
C660 C657 1.526 . S
C660 C661 1.396 . S
C660 C665 1.390 . S
C661 C655 1.465 . S
C661 C660 1.396 . S
C661 C662 1.399 . S
C662 H648 0.929 . S
C662 C661 1.399 . S
C662 C663 1.385 . S
C663 H649 0.931 . S
C663 C662 1.385 . S
C663 C664 1.389 . S
C664 C663 1.389 . S
C664 C665 1.387 . S
C665 H650 0.930 . S
C665 C660 1.390 . S
C665 C664 1.387 . S
H666 C678 0.930 . S
H667 C680 0.930 . S
H668 C681 0.930 . S
H669 C685 0.959 . S
H670 C685 0.959 . S
H671 C685 0.961 . S
H672 C686 0.960 . S
H673 C686 0.961 . S
H674 C686 0.959 . S
H675 C689 0.929 . S
H676 C690 0.931 . S
H677 C692 0.930 . S
C678 H666 0.930 . S
C678 C679 1.399 . S
C678 C683 1.368 1_565 S
C679 C678 1.399 . S
C679 C680 1.376 . S
C680 H667 0.930 . S
C680 C679 1.376 . S
C680 C681 1.388 . S
C681 H668 0.930 . S
C681 C680 1.388 . S
C681 C682 1.390 . S
C682 C681 1.390 . S
C682 C683 1.380 1_565 S
C682 C688 1.465 1_565 S
C683 C678 1.368 1_545 S
C683 C682 1.380 1_545 S
C683 C684 1.563 . S
C684 C683 1.563 . S
C684 C685 1.502 . S
C684 C686 1.561 . S
C684 C687 1.526 . S
C685 H669 0.959 . S
C685 H670 0.959 . S
C685 H671 0.961 . S
C685 C684 1.502 . S
C686 H672 0.960 . S
C686 H673 0.961 . S
C686 H674 0.959 . S
C686 C684 1.561 . S
C687 C684 1.526 . S
C687 C688 1.396 . S
C687 C692 1.390 . S
C688 C682 1.465 1_545 S
C688 C687 1.396 . S
C688 C689 1.399 . S
C689 H675 0.929 . S
C689 C688 1.399 . S
C689 C690 1.385 . S
C690 H676 0.931 . S
C690 C689 1.385 . S
C690 C691 1.389 . S
C691 C690 1.389 . S
C691 C692 1.387 . S
C692 H677 0.930 . S
C692 C687 1.390 . S
C692 C691 1.387 . S
C220 N58 1.305 . S
C232 C16 1.350 . S
C247 N25 1.260 . S
C259 N2 1.207 . S
C274 C39 1.531 . S
C286 C53 1.506 . S
C301 C122 1.597 . S
C313 C85 1.515 . S
C328 N94 1.164 . S
C340 N71 1.201 . S
C355 C108 1.330 . S
C367 N127 1.359 . S
C382 C154 1.336 . S
C394 N196 1.391 . S
C409 N140 1.137 . S
C421 N163 1.060 . S
C436 C177 1.545 . S
C448 C191 1.612 . S
C463 N12 1.547 1_556 S
C475 N173 1.527 . S
C490 C30 1.571 1_556 S
C502 C200 1.541 . S
C517 C145 1.519 . S
C529 N48 1.444 1_556 S
C544 C99 1.494 . S
C556 C62 1.462 . S
C571 C7 1.554 . S
C583 C131 1.484 . S
C598 N81 1.535 . S
C610 N35 1.547 . S
C625 C168 1.571 . S
C637 N117 1.471 . S
C652 C76 1.590 . S
C664 N186 1.481 . S
C679 N150 1.453 . S
C691 N104 1.479 . S
