# Generated by pormake.
# Topology wiz, (3)-cn, num edge types: 1
# Building blocks:
#     Node 0, Type 0, BuildingBlock: WUSLED_clean_sbu_0, # of connection points: 3
#     Node 1, Type 0, BuildingBlock: WUSLED_clean_sbu_0, # of connection points: 3
#     Node 2, Type 0, BuildingBlock: WUSLED_clean_sbu_0, # of connection points: 3
#     Node 3, Type 0, BuildingBlock: WUSLED_clean_sbu_0, # of connection points: 3
#     Node 4, Type 0, BuildingBlock: WUSLED_clean_sbu_0, # of connection points: 3
#     Node 5, Type 0, BuildingBlock: WUSLED_clean_sbu_0, # of connection points: 3
#     Node 6, Type 0, BuildingBlock: WUSLED_clean_sbu_0, # of connection points: 3
#     Node 7, Type 0, BuildingBlock: WUSLED_clean_sbu_0, # of connection points: 3
#     Node 8, Type 0, BuildingBlock: WUSLED_clean_sbu_0, # of connection points: 3
#     Node 9, Type 0, BuildingBlock: WUSLED_clean_sbu_0, # of connection points: 3
#     Node 10, Type 0, BuildingBlock: WUSLED_clean_sbu_0, # of connection points: 3
#     Node 11, Type 0, BuildingBlock: WUSLED_clean_sbu_0, # of connection points: 3
#     Edge 12, Type (0, 0), None
#     Edge 13, Type (0, 0), None
#     Edge 14, Type (0, 0), None
#     Edge 15, Type (0, 0), None
#     Edge 16, Type (0, 0), None
#     Edge 17, Type (0, 0), None
#     Edge 18, Type (0, 0), None
#     Edge 19, Type (0, 0), None
#     Edge 20, Type (0, 0), None
#     Edge 21, Type (0, 0), None
#     Edge 22, Type (0, 0), None
#     Edge 23, Type (0, 0), None
#     Edge 24, Type (0, 0), None
#     Edge 25, Type (0, 0), None
#     Edge 26, Type (0, 0), None
#     Edge 27, Type (0, 0), None
#     Edge 28, Type (0, 0), None
#     Edge 29, Type (0, 0), None
# Relax obj value: 0.037
# Max RMSD: 0.051
# Mean RMSD: 0.051
data_MOF--net-wiz--node1-WUSLED_clean_sbu_0--edge1-none
_symmetry_space_group_name_H-M    P1
_symmetry_Int_Tables_number       1
_symmetry_cell_setting            triclinic
loop_
_symmetry_equiv_pos_as_xyz
'x, y, z'
_cell_length_a     26.859085
_cell_length_b     26.859043
_cell_length_c     75.565129
_cell_angle_alpha  89.999868
_cell_angle_beta   90.000289
_cell_angle_gamma 120.00347
loop_
_atom_site_label
_atom_site_type_symbol
_atom_site_fract_x
_atom_site_fract_y
_atom_site_fract_z
_atom_type_partial_charge
C0 C 0.37679 0.42495 0.13597 0.0
C1 C 0.40873 0.43003 0.12069 0.0
C2 C 0.49709 0.49979 0.13556 0.0
C3 C 0.46838 0.46703 0.1205 0.0
C4 C 0.4645 0.49483 0.15074 0.0
C5 C 0.40501 0.45772 0.15093 0.0
U6 U 0.23157 0.33446 0.11311 0.0
O7 O 0.15855 0.24995 0.12048 0.0
O8 O 0.14753 0.32546 0.11948 0.0
C9 C 0.12501 0.27123 0.12411 0.0
C10 C 0.31412 0.38627 0.13653 0.0
C11 C 0.09743 0.25637 0.14169 0.0
C12 C 0.10113 0.27182 0.17352 0.0
C13 C 0.12791 0.28577 0.15691 0.0
C14 C 1.01321 0.19838 0.15993 0.0
C15 C 0.04331 0.22799 0.17527 0.0
C16 C 0.04003 0.21249 0.14333 0.0
C17 C 0.23345 0.33499 0.06151 0.0
C18 C 0.15313 0.30659 0.04133 0.0
C19 C 0.24876 0.34038 0.02969 0.0
C20 C 0.27003 0.34718 0.04693 0.0
C21 C 0.19021 0.32111 0.02662 0.0
C22 C 0.1746 0.31359 0.05864 0.0
C23 C 0.25902 0.34961 0.07933 0.0
O24 O 0.28329 0.40825 0.13058 0.0
O25 O 0.29545 0.33336 0.13107 0.0
O26 O 0.25727 0.30764 0.08877 0.0
O27 O 0.24817 0.38445 0.08863 0.0
H28 H 0.38757 0.4052 0.10897 0.0
H29 H 0.49206 0.46928 0.10864 0.0
H30 H 0.48486 0.52009 0.16246 0.0
H31 H 0.38096 0.4547 0.16279 0.0
H32 H 0.12553 0.29609 0.18494 0.0
H33 H 0.17235 0.31979 0.15593 0.0
H34 H 0.96902 0.16383 0.16075 0.0
H35 H 1.01588 0.18909 0.13175 0.0
H36 H 0.10767 0.29086 0.03949 0.0
H37 H 0.27885 0.35283 0.0188 0.0
H38 H 0.31567 0.36402 0.0489 0.0
H39 H 0.14563 0.30382 0.06974 0.0
C40 C 0.9711 0.36716 0.46931 0.0
C41 C 0.99796 0.3991 0.45403 0.0
C42 C 1.01655 0.48745 0.4689 0.0
C43 C 1.02061 0.45875 0.45384 0.0
C44 C 0.98893 0.45487 0.48408 0.0
C45 C 0.96654 0.39538 0.48427 0.0
U46 U 0.91637 0.22194 0.44644 0.0
O47 O 0.92787 0.14893 0.45382 0.0
O48 O 0.84133 0.13789 0.45282 0.0
C49 C 0.87305 0.11538 0.45745 0.0
C50 C 0.94711 0.30449 0.46987 0.0
C51 C 0.86032 0.0878 0.47503 0.0
C52 C 0.84857 0.0915 0.50686 0.0
C53 C 0.8614 0.11828 0.49025 0.0
C54 C 0.83409 1.00359 0.49327 0.0
C55 C 0.83457 0.03368 0.50861 0.0
C56 C 0.8468 0.03041 0.47667 0.0
C57 C 0.91774 0.22383 0.39484 0.0
C58 C 0.86582 0.1435 0.37467 0.0
C59 C 0.92765 0.23913 0.36303 0.0
C60 C 0.94211 0.2604 0.38027 0.0
C61 C 0.88837 0.18058 0.35996 0.0
C62 C 0.88028 0.16497 0.39197 0.0
C63 C 0.92869 0.2494 0.41267 0.0
O64 O 0.8943 0.27365 0.46391 0.0
O65 O 0.98136 0.28582 0.46441 0.0
O66 O 0.9689 0.24765 0.42211 0.0
O67 O 0.88299 0.23854 0.42197 0.0
H68 H 1.00164 0.37794 0.44231 0.0
H69 H 0.04205 0.48244 0.44198 0.0
H70 H 0.98402 0.47522 0.4958 0.0
H71 H 0.94551 0.37132 0.49613 0.0
H72 H 0.84869 0.1159 0.51828 0.0
H73 H 0.87182 0.16272 0.48926 0.0
H74 H 0.82446 0.9594 0.49409 0.0
H75 H 0.84607 1.00626 0.46509 0.0
H76 H 0.8361 0.09804 0.37283 0.0
H77 H 0.94529 0.26923 0.35213 0.0
H78 H 0.97091 0.30604 0.38223 0.0
H79 H 0.86109 0.136 0.40308 0.0
C80 C 0.62318 0.96146 0.80265 0.0
C81 C 0.61811 0.98832 0.78737 0.0
C82 C 0.54835 1.00691 0.80224 0.0
C83 C 0.58111 1.01096 0.78718 0.0
C84 C 0.55331 0.97928 0.81742 0.0
C85 C 0.59041 0.9569 0.81761 0.0
U86 U 0.71366 0.90672 0.77978 0.0
O87 O 0.79817 0.91822 0.78716 0.0
O88 O 0.72266 0.83168 0.78615 0.0
C89 C 0.77689 0.86339 0.79079 0.0
C90 C 0.66186 0.93746 0.8032 0.0
C91 C 0.79175 0.85066 0.80837 0.0
C92 C 0.7763 0.8389 0.84019 0.0
C93 C 0.76235 0.85175 0.82359 0.0
C94 C 0.84974 0.82443 0.8266 0.0
C95 C 0.82013 0.82491 0.84194 0.0
C96 C 0.83563 0.83715 0.81 0.0
C97 C 0.71315 0.9081 0.72818 0.0
C98 C 0.74156 0.85618 0.70801 0.0
C99 C 0.70775 0.918 0.69636 0.0
C100 C 0.70094 0.93247 0.71361 0.0
C101 C 0.72703 0.87874 0.69329 0.0
C102 C 0.73455 0.87065 0.72531 0.0
C103 C 0.69852 0.91904 0.74601 0.0
O104 O 0.63988 0.88466 0.79725 0.0
O105 O 0.71477 0.97171 0.79775 0.0
O106 O 0.74049 0.95925 0.75545 0.0
O107 O 0.66368 0.87335 0.75531 0.0
H108 H 0.64294 0.99199 0.77564 0.0
H109 H 0.57886 0.0324 0.77532 0.0
H110 H 0.52804 0.97437 0.82914 0.0
H111 H 0.59342 0.93586 0.82947 0.0
H112 H 0.75203 0.83903 0.85161 0.0
H113 H 0.72833 0.86216 0.8226 0.0
H114 H 0.88429 0.8148 0.82742 0.0
H115 H 0.85903 0.83642 0.79842 0.0
H116 H 0.7573 0.82647 0.70617 0.0
H117 H 0.69529 0.93564 0.68547 0.0
H118 H 0.68409 0.96126 0.71557 0.0
H119 H 0.74433 0.85146 0.73641 0.0
C120 C 0.68099 0.61355 0.13597 0.0
C121 C 0.64905 0.60847 0.1207 0.0
C122 C 0.56069 0.53871 0.13556 0.0
C123 C 0.5894 0.57146 0.1205 0.0
C124 C 0.59328 0.54367 0.15074 0.0
C125 C 0.65277 0.58077 0.15093 0.0
U126 U 0.82621 0.70403 0.11311 0.0
O127 O 0.89923 0.78855 0.12048 0.0
O128 O 0.91025 0.71304 0.11948 0.0
C129 C 0.93277 0.76727 0.12411 0.0
C130 C 0.74366 0.65223 0.13653 0.0
C131 C 0.96035 0.78213 0.14169 0.0
C132 C 0.95665 0.76668 0.17352 0.0
C133 C 0.92987 0.75273 0.15691 0.0
C134 C 0.04457 0.84012 0.15993 0.0
C135 C 1.01448 0.8105 0.17527 0.0
C136 C 1.01775 0.82601 0.14333 0.0
C137 C 0.82433 0.70351 0.06151 0.0
C138 C 0.90465 0.73191 0.04133 0.0
C139 C 0.80902 0.69812 0.02969 0.0
C140 C 0.78775 0.69131 0.04693 0.0
C141 C 0.86757 0.71739 0.02662 0.0
C142 C 0.88318 0.72491 0.05864 0.0
C143 C 0.79876 0.68889 0.07933 0.0
O144 O 0.77449 0.63025 0.13058 0.0
O145 O 0.76233 0.70514 0.13107 0.0
O146 O 0.80051 0.73085 0.08877 0.0
O147 O 0.80961 0.65405 0.08863 0.0
H148 H 0.67021 0.6333 0.10897 0.0
H149 H 0.56572 0.56922 0.10864 0.0
H150 H 0.57292 0.5184 0.16246 0.0
H151 H 0.67682 0.58379 0.16279 0.0
H152 H 0.93226 0.74241 0.18494 0.0
H153 H 0.88543 0.71871 0.15593 0.0
H154 H 0.08876 0.87467 0.16075 0.0
H155 H 0.0419 0.84941 0.13175 0.0
H156 H 0.95011 0.74764 0.0395 0.0
H157 H 0.77893 0.68566 0.0188 0.0
H158 H 0.74211 0.67448 0.0489 0.0
H159 H 0.91214 0.73468 0.06974 0.0
C160 C 0.08669 0.67135 0.46931 0.0
C161 C 0.05984 0.63942 0.45403 0.0
C162 C 0.04124 0.55106 0.4689 0.0
C163 C 0.03719 0.57976 0.45384 0.0
C164 C 0.06886 0.58364 0.48408 0.0
C165 C 0.09124 0.64313 0.48427 0.0
U166 U 0.14142 0.81657 0.44644 0.0
O167 O 0.12993 0.88958 0.45382 0.0
O168 O 0.21646 0.90062 0.45282 0.0
C169 C 0.18475 0.92313 0.45745 0.0
C170 C 0.11069 0.73403 0.46987 0.0
C171 C 0.19748 0.95071 0.47503 0.0
C172 C 0.20923 0.94701 0.50686 0.0
C173 C 0.19639 0.92023 0.49025 0.0
C174 C 0.2237 0.03493 0.49327 0.0
C175 C 0.22323 1.00483 0.50861 0.0
C176 C 0.21099 1.00811 0.47667 0.0
C177 C 0.14005 0.81468 0.39484 0.0
C178 C 0.19198 0.89501 0.37467 0.0
C179 C 0.13014 0.79938 0.36303 0.0
C180 C 0.11568 0.77811 0.38027 0.0
C181 C 0.16942 0.85793 0.35996 0.0
C182 C 0.17751 0.87354 0.39197 0.0
C183 C 0.12911 0.78911 0.41267 0.0
O184 O 0.16349 0.76486 0.46391 0.0
O185 O 0.07644 0.75269 0.46441 0.0
O186 O 0.0889 0.79086 0.42211 0.0
O187 O 0.1748 0.79997 0.42197 0.0
H188 H 0.05617 0.66057 0.4423 0.0
H189 H 1.01576 0.55608 0.44198 0.0
H190 H 0.07376 0.56328 0.4958 0.0
H191 H 0.11227 0.66719 0.49613 0.0
H192 H 0.2091 0.92262 0.51828 0.0
H193 H 0.18598 0.87579 0.48926 0.0
H194 H 0.23334 0.07912 0.49409 0.0
H195 H 0.21173 0.03225 0.46509 0.0
H196 H 0.22169 0.94047 0.37283 0.0
H197 H 0.1125 0.76928 0.35214 0.0
H198 H 0.08688 0.73247 0.38223 0.0
H199 H 0.1967 0.9025 0.40308 0.0
C200 C 0.4346 0.07705 0.80265 0.0
C201 C 0.43968 0.0502 0.78737 0.0
C202 C 0.50943 0.0316 0.80224 0.0
C203 C 0.47668 0.02755 0.78717 0.0
C204 C 0.50447 0.05922 0.81742 0.0
C205 C 0.46737 0.0816 0.81761 0.0
U206 U 0.34413 0.13179 0.77978 0.0
O207 O 0.25962 0.1203 0.78716 0.0
O208 O 0.33513 0.20683 0.78615 0.0
C209 C 0.2809 0.17512 0.79078 0.0
C210 C 0.39593 0.10105 0.8032 0.0
C211 C 0.26604 0.18785 0.80837 0.0
C212 C 0.28148 0.19961 0.84019 0.0
C213 C 0.29543 0.18677 0.82359 0.0
C214 C 0.20805 0.21408 0.8266 0.0
C215 C 0.23766 0.2136 0.84194 0.0
C216 C 0.22216 0.20136 0.81 0.0
C217 C 0.34465 0.13042 0.72818 0.0
C218 C 0.31624 0.18233 0.70801 0.0
C219 C 0.35004 0.12051 0.69636 0.0
C220 C 0.35685 0.10605 0.71361 0.0
C221 C 0.33077 0.15978 0.69329 0.0
C222 C 0.32324 0.16787 0.72531 0.0
C223 C 0.35927 0.11947 0.74601 0.0
O224 O 0.41791 0.15386 0.79725 0.0
O225 O 0.34301 0.0668 0.79775 0.0
O226 O 0.3173 0.07926 0.75545 0.0
O227 O 0.39411 0.16517 0.75531 0.0
H228 H 0.41485 0.04653 0.77564 0.0
H229 H 0.47893 1.00612 0.77532 0.0
H230 H 0.52974 0.06412 0.82914 0.0
H231 H 0.46435 0.10263 0.82947 0.0
H232 H 0.30575 0.19948 0.85161 0.0
H233 H 0.32945 0.17635 0.8226 0.0
H234 H 0.1735 0.22371 0.82742 0.0
H235 H 0.19876 0.2021 0.79842 0.0
H236 H 0.30049 0.21205 0.70617 0.0
H237 H 0.3625 0.10287 0.68547 0.0
H238 H 0.37369 0.07725 0.71557 0.0
H239 H 0.31346 0.18705 0.73641 0.0
C240 C 0.6232 0.67136 0.56559 0.0
C241 C 0.61812 0.63942 0.58087 0.0
C242 C 0.54836 0.55106 0.566 0.0
C243 C 0.58112 0.57977 0.58106 0.0
C244 C 0.55331 0.58364 0.55082 0.0
C245 C 0.59042 0.64314 0.55063 0.0
U246 U 0.71368 0.81658 0.58846 0.0
O247 O 0.79819 0.8896 0.58108 0.0
O248 O 0.72269 0.90062 0.58208 0.0
C249 C 0.77692 0.92314 0.57745 0.0
C250 C 0.66188 0.73403 0.56503 0.0
C251 C 0.79178 0.95072 0.55987 0.0
C252 C 0.77633 0.94702 0.52804 0.0
C253 C 0.76238 0.92023 0.54465 0.0
C254 C 0.84976 0.03494 0.54163 0.0
C255 C 0.82015 1.00484 0.5263 0.0
C256 C 0.83565 1.00812 0.55823 0.0
C257 C 0.71316 0.81469 0.64006 0.0
C258 C 0.74156 0.89502 0.66023 0.0
C259 C 0.70775 0.79939 0.67187 0.0
C260 C 0.70095 0.77812 0.65463 0.0
C261 C 0.72703 0.85793 0.67494 0.0
C262 C 0.73456 0.87355 0.64293 0.0
C263 C 0.69853 0.78912 0.62223 0.0
O264 O 0.6399 0.76486 0.57099 0.0
O265 O 0.71479 0.7527 0.57049 0.0
O266 O 0.7405 0.79088 0.61279 0.0
O267 O 0.66369 0.79997 0.61293 0.0
H268 H 0.64295 0.66058 0.59259 0.0
H269 H 0.57887 0.55608 0.59292 0.0
H270 H 0.52805 0.56329 0.5391 0.0
H271 H 0.59344 0.66719 0.53877 0.0
H272 H 0.75206 0.92262 0.51662 0.0
H273 H 0.72836 0.8758 0.54564 0.0
H274 H 0.88432 0.07913 0.54081 0.0
H275 H 0.85906 0.03226 0.56982 0.0
H276 H 0.7573 0.94047 0.66207 0.0
H277 H 0.6953 0.76929 0.68277 0.0
H278 H 0.68411 0.73248 0.65267 0.0
H279 H 0.74434 0.90251 0.63182 0.0
C280 C 0.97109 0.61354 0.89891 0.0
C281 C 0.99795 0.60847 0.91419 0.0
C282 C 1.01654 0.53871 0.89933 0.0
C283 C 1.0206 0.57147 0.91439 0.0
C284 C 0.98892 0.54366 0.88414 0.0
C285 C 0.96653 0.58076 0.88395 0.0
U286 U 0.91636 0.70402 0.92178 0.0
O287 O 0.92785 0.78853 0.9144 0.0
O288 O 0.84132 0.71302 0.91541 0.0
C289 C 0.87303 0.76725 0.91078 0.0
C290 C 0.94709 0.65222 0.89836 0.0
C291 C 0.8603 0.78211 0.8932 0.0
C292 C 0.84854 0.76666 0.86137 0.0
C293 C 0.86138 0.75271 0.87798 0.0
C294 C 0.83407 0.8401 0.87496 0.0
C295 C 0.83455 0.81049 0.85963 0.0
C296 C 0.84678 0.82599 0.89156 0.0
C297 C 0.91773 0.7035 0.97338 0.0
C298 C 0.86582 0.73192 0.99355 0.0
C299 C 0.92763 0.6981 1.0052 0.0
C300 C 0.94209 0.69129 0.98795 0.0
C301 C 0.88837 0.71738 1.00827 0.0
C302 C 0.88029 0.72491 0.97625 0.0
C303 C 0.92867 0.68888 0.95556 0.0
O304 O 0.89429 0.63024 0.90431 0.0
O305 O 0.98134 0.70513 0.90382 0.0
O306 O 0.96888 0.73084 0.94612 0.0
O307 O 0.88298 0.65403 0.94626 0.0
H308 H 1.00163 0.6333 0.92592 0.0
H309 H 0.04204 0.56922 0.92624 0.0
H310 H 0.984 0.51839 0.87243 0.0
H311 H 0.94549 0.58378 0.8721 0.0
H312 H 0.84867 0.7424 0.84995 0.0
H313 H 0.8718 0.71869 0.87896 0.0
H314 H 0.82444 0.87465 0.87414 0.0
H315 H 0.84605 0.84939 0.90315 0.0
H316 H 0.83612 0.74767 0.99539 0.0
H317 H 0.94526 0.68563 1.01609 0.0
H318 H 0.97088 0.67444 0.98599 0.0
H319 H 0.86111 0.7347 0.96515 0.0
C320 C 0.3768 0.96145 0.23225 0.0
C321 C 0.40873 0.98831 0.24753 0.0
C322 C 0.49709 1.00691 0.23267 0.0
C323 C 0.46838 1.01096 0.24773 0.0
C324 C 0.46451 0.97928 0.21748 0.0
C325 C 0.40501 0.9569 0.21729 0.0
U326 U 0.23158 0.90672 0.25512 0.0
O327 O 0.15857 0.91822 0.24774 0.0
O328 O 0.14753 0.83168 0.24875 0.0
C329 C 0.12502 0.8634 0.24411 0.0
C330 C 0.31412 0.93746 0.2317 0.0
C331 C 0.09744 0.85067 0.22653 0.0
C332 C 0.10113 0.83892 0.19471 0.0
C333 C 0.12792 0.85176 0.21131 0.0
C334 C 1.01322 0.82445 0.20829 0.0
C335 C 0.04331 0.82492 0.19296 0.0
C336 C 0.04004 0.83716 0.2249 0.0
C337 C 0.23346 0.90809 0.30672 0.0
C338 C 0.15313 0.85617 0.32689 0.0
C339 C 0.24877 0.918 0.33854 0.0
C340 C 0.27004 0.93246 0.32129 0.0
C341 C 0.19022 0.87872 0.34161 0.0
C342 C 0.1746 0.87064 0.30959 0.0
C343 C 0.25903 0.91904 0.28889 0.0
O344 O 0.28329 0.88465 0.23765 0.0
O345 O 0.29546 0.97171 0.23715 0.0
O346 O 0.25728 0.95925 0.27945 0.0
O347 O 0.24818 0.87334 0.27959 0.0
H348 H 0.38758 0.99198 0.25926 0.0
H349 H 0.49207 0.03239 0.25958 0.0
H350 H 0.48486 0.97437 0.20576 0.0
H351 H 0.38096 0.93586 0.20543 0.0
H352 H 0.12553 0.83904 0.18328 0.0
H353 H 0.17235 0.86217 0.2123 0.0
H354 H 0.96903 0.81481 0.20747 0.0
H355 H 1.0159 0.83642 0.23648 0.0
H356 H 0.10768 0.82646 0.32873 0.0
H357 H 0.27887 0.93564 0.34943 0.0
H358 H 0.31568 0.96126 0.31933 0.0
H359 H 0.14564 0.85145 0.29849 0.0
C360 C 0.4346 0.36716 0.56559 0.0
C361 C 0.43968 0.39909 0.58087 0.0
C362 C 0.50944 0.48746 0.566 0.0
C363 C 0.47668 0.45875 0.58106 0.0
C364 C 0.50447 0.45487 0.55082 0.0
C365 C 0.46737 0.39538 0.55063 0.0
U366 U 0.34412 0.22194 0.58846 0.0
O367 O 0.2596 0.14892 0.58108 0.0
O368 O 0.33511 0.1379 0.58208 0.0
C369 C 0.28088 0.11537 0.57745 0.0
C370 C 0.39592 0.30448 0.56503 0.0
C371 C 0.26602 0.08779 0.55987 0.0
C372 C 0.28147 0.09149 0.52804 0.0
C373 C 0.29542 0.11828 0.54465 0.0
C374 C 0.20803 1.00358 0.54163 0.0
C375 C 0.23765 0.03367 0.5263 0.0
C376 C 0.22214 0.0304 0.55823 0.0
C377 C 0.34464 0.22383 0.64006 0.0
C378 C 0.31623 0.1435 0.66023 0.0
C379 C 0.35004 0.23913 0.67187 0.0
C380 C 0.35685 0.2604 0.65463 0.0
C381 C 0.33077 0.18058 0.67494 0.0
C382 C 0.32324 0.16497 0.64293 0.0
C383 C 0.35926 0.2494 0.62223 0.0
O384 O 0.4179 0.27366 0.57099 0.0
O385 O 0.34301 0.28581 0.57049 0.0
O386 O 0.3173 0.24764 0.61279 0.0
O387 O 0.3941 0.23854 0.61293 0.0
H388 H 0.41485 0.37793 0.5926 0.0
H389 H 0.47894 0.48243 0.59292 0.0
H390 H 0.52974 0.47523 0.5391 0.0
H391 H 0.46435 0.37133 0.53877 0.0
H392 H 0.30574 0.11589 0.51662 0.0
H393 H 0.32944 0.16272 0.54564 0.0
H394 H 0.17348 0.95939 0.54081 0.0
H395 H 0.19874 1.00625 0.56982 0.0
H396 H 0.30049 0.09804 0.66207 0.0
H397 H 0.3625 0.26923 0.68277 0.0
H398 H 0.37369 0.30604 0.65267 0.0
H399 H 0.31346 0.136 0.63182 0.0
C400 C 0.08669 0.42496 0.89891 0.0
C401 C 0.05984 0.43004 0.91419 0.0
C402 C 0.04123 0.49979 0.89933 0.0
C403 C 0.03719 0.46704 0.91439 0.0
C404 C 0.06885 0.49483 0.88414 0.0
C405 C 0.09123 0.45773 0.88395 0.0
U406 U 0.14142 0.33448 0.92178 0.0
O407 O 0.12993 0.24997 0.9144 0.0
O408 O 0.21646 0.32549 0.91541 0.0
C409 C 0.18475 0.27125 0.91078 0.0
C410 C 0.11068 0.38628 0.89836 0.0
C411 C 0.19748 0.2564 0.8932 0.0
C412 C 0.20924 0.27185 0.86137 0.0
C413 C 0.1964 0.2858 0.87798 0.0
C414 C 0.22371 0.19841 0.87496 0.0
C415 C 0.22324 0.22802 0.85963 0.0
C416 C 0.211 0.21252 0.89156 0.0
C417 C 0.14005 0.335 0.97338 0.0
C418 C 0.19196 0.30658 0.99355 0.0
C419 C 0.13015 0.3404 1.0052 0.0
C420 C 0.11569 0.34721 0.98795 0.0
C421 C 0.16941 0.32112 1.00827 0.0
C422 C 0.17749 0.31359 0.97625 0.0
C423 C 0.1291 0.34962 0.95556 0.0
O424 O 0.16349 0.40827 0.90431 0.0
O425 O 0.07644 0.33337 0.90382 0.0
O426 O 0.08889 0.30766 0.94612 0.0
O427 O 0.1748 0.38447 0.94626 0.0
H428 H 0.05617 0.40521 0.92592 0.0
H429 H 1.01575 0.46929 0.92624 0.0
H430 H 0.07375 0.52009 0.87242 0.0
H431 H 0.11226 0.4547 0.87209 0.0
H432 H 0.20912 0.29611 0.84995 0.0
H433 H 0.18599 0.31981 0.87896 0.0
H434 H 0.23335 0.16386 0.87414 0.0
H435 H 0.21173 0.18912 0.90315 0.0
H436 H 0.22166 0.29083 0.99539 0.0
H437 H 0.11252 0.35287 1.01609 0.0
H438 H 0.0869 0.36407 0.98599 0.0
H439 H 0.19667 0.3038 0.96515 0.0
C440 C 0.68099 0.07704 0.23225 0.0
C441 C 0.64905 0.05019 0.24753 0.0
C442 C 0.56069 0.03159 0.23267 0.0
C443 C 0.5894 0.02754 0.24773 0.0
C444 C 0.59328 0.05921 0.21748 0.0
C445 C 0.65277 0.0816 0.21729 0.0
U446 U 0.82621 0.13178 0.25512 0.0
O447 O 0.89922 0.12028 0.24774 0.0
O448 O 0.91025 0.20682 0.24875 0.0
C449 C 0.93277 0.1751 0.24411 0.0
C450 C 0.74366 0.10104 0.2317 0.0
C451 C 0.96035 0.18783 0.22653 0.0
C452 C 0.95665 0.19958 0.19471 0.0
C453 C 0.92986 0.18674 0.21131 0.0
C454 C 0.04456 0.21405 0.20829 0.0
C455 C 1.01447 0.21357 0.19296 0.0
C456 C 1.01774 0.20134 0.2249 0.0
C457 C 0.82433 0.13041 0.30672 0.0
C458 C 0.90466 0.18233 0.32689 0.0
C459 C 0.80902 0.12051 0.33854 0.0
C460 C 0.78775 0.10604 0.32129 0.0
C461 C 0.86757 0.15978 0.34161 0.0
C462 C 0.88318 0.16787 0.30959 0.0
C463 C 0.79875 0.11947 0.28889 0.0
O464 O 0.77449 0.15384 0.23765 0.0
O465 O 0.76233 0.06679 0.23715 0.0
O466 O 0.8005 0.07925 0.27945 0.0
O467 O 0.80961 0.16516 0.27959 0.0
H468 H 0.67021 0.04652 0.25926 0.0
H469 H 0.56571 1.00611 0.25958 0.0
H470 H 0.57292 0.06412 0.20576 0.0
H471 H 0.67682 0.10263 0.20543 0.0
H472 H 0.93225 0.19945 0.18328 0.0
H473 H 0.88543 0.17633 0.2123 0.0
H474 H 0.08875 0.22369 0.20747 0.0
H475 H 0.04189 0.20208 0.23648 0.0
H476 H 0.95011 0.21205 0.32873 0.0
H477 H 0.77892 0.10287 0.34943 0.0
H478 H 0.74211 0.07725 0.31933 0.0
H479 H 0.91215 0.18705 0.29849 0.0
loop_
_geom_bond_atom_site_label_1
_geom_bond_atom_site_label_2
_geom_bond_distance
_geom_bond_site_symmetry_2
_ccdc_geom_bond_type
C0 C1 1.264 . S
C0 C5 1.479 . S
C0 C10 1.465 . S
C1 C0 1.264 . S
C1 C3 1.339 . S
C1 H28 0.931 . S
C2 C3 1.395 . S
C2 C4 1.320 . S
C3 C1 1.339 . S
C3 C2 1.395 . S
C3 H29 0.929 . S
C4 C2 1.320 . S
C4 C5 1.405 . S
C4 H30 0.930 . S
C5 C0 1.479 . S
C5 C4 1.405 . S
C5 H31 0.931 . S
U6 O7 2.454 . S
U6 O8 2.458 . S
U6 C9 2.984 . S
U6 C10 2.847 . S
U6 C23 2.882 . S
U6 O24 2.441 . S
U6 O25 2.420 . S
U6 O26 2.455 . S
U6 O27 2.449 . S
O7 U6 2.454 . S
O7 C9 1.353 . S
O8 U6 2.458 . S
O8 C9 1.286 . S
C9 U6 2.984 . S
C9 O7 1.353 . S
C9 O8 1.286 . S
C9 C11 1.363 . S
C10 C0 1.465 . S
C10 U6 2.847 . S
C10 O24 1.249 . S
C10 O25 1.202 . S
C11 C9 1.363 . S
C11 C13 1.408 . S
C11 C16 1.342 . S
C12 C13 1.310 . S
C12 C15 1.461 . S
C12 H32 0.932 . S
C13 C11 1.408 . S
C13 C12 1.310 . S
C13 H33 0.930 . S
C14 C15 1.474 . S
C14 C16 1.285 . S
C14 H34 0.929 1_455 S
C15 C12 1.461 . S
C15 C14 1.474 . S
C16 C11 1.342 . S
C16 C14 1.285 . S
C16 H35 0.930 . S
C17 C20 1.424 . S
C17 C22 1.245 . S
C17 C23 1.428 . S
C18 C21 1.260 . S
C18 C22 1.477 . S
C18 H36 0.932 . S
C19 C20 1.384 . S
C19 C21 1.479 . S
C19 H37 0.929 . S
C20 C17 1.424 . S
C20 C19 1.384 . S
C20 H38 0.928 . S
C21 C18 1.260 . S
C21 C19 1.479 . S
C22 C17 1.245 . S
C22 C18 1.477 . S
C22 H39 0.932 . S
C23 U6 2.882 . S
C23 C17 1.428 . S
C23 O26 1.301 . S
C23 O27 1.282 . S
O24 U6 2.441 . S
O24 C10 1.249 . S
O25 U6 2.420 . S
O25 C10 1.202 . S
O26 U6 2.455 . S
O26 C23 1.301 . S
O27 U6 2.449 . S
O27 C23 1.282 . S
H28 C1 0.931 . S
H29 C3 0.929 . S
H30 C4 0.930 . S
H31 C5 0.931 . S
H32 C12 0.932 . S
H33 C13 0.930 . S
H34 C14 0.929 1_655 S
H35 C16 0.930 . S
H36 C18 0.932 . S
H37 C19 0.929 . S
H38 C20 0.928 . S
H39 C22 0.932 . S
C40 C41 1.264 . S
C40 C45 1.479 . S
C40 C50 1.465 . S
C41 C40 1.264 . S
C41 C43 1.339 . S
C41 H68 0.931 . S
C42 C43 1.395 . S
C42 C44 1.320 . S
C43 C41 1.339 . S
C43 C42 1.395 . S
C43 H69 0.929 . S
C44 C42 1.320 . S
C44 C45 1.405 . S
C44 H70 0.930 . S
C45 C40 1.479 . S
C45 C44 1.405 . S
C45 H71 0.931 . S
U46 O47 2.454 . S
U46 O48 2.458 1_455 S
U46 C49 2.984 1_455 S
U46 C50 2.847 . S
U46 C63 2.882 . S
U46 O64 2.441 . S
U46 O65 2.420 . S
U46 O66 2.455 . S
U46 O67 2.449 . S
O47 U46 2.454 . S
O47 C49 1.353 1_455 S
O48 U46 2.458 1_655 S
O48 C49 1.286 . S
C49 U46 2.984 1_655 S
C49 O47 1.353 1_655 S
C49 O48 1.286 . S
C49 C51 1.363 . S
C50 C40 1.465 . S
C50 U46 2.847 . S
C50 O64 1.249 . S
C50 O65 1.202 . S
C51 C49 1.363 . S
C51 C53 1.408 . S
C51 C56 1.342 . S
C52 C53 1.310 . S
C52 C55 1.461 . S
C52 H72 0.932 . S
C53 C51 1.408 . S
C53 C52 1.310 . S
C53 H73 0.930 1_655 S
C54 C55 1.474 . S
C54 C56 1.285 . S
C54 H74 0.929 1_545 S
C55 C52 1.461 . S
C55 C54 1.474 . S
C56 C51 1.342 . S
C56 C54 1.285 . S
C56 H75 0.930 . S
C57 C60 1.422 1_455 S
C57 C62 1.246 1_455 S
C57 C63 1.428 . S
C58 C61 1.260 . S
C58 C62 1.477 . S
C58 H76 0.932 . S
C59 C60 1.384 . S
C59 C61 1.479 . S
C59 H77 0.929 . S
C60 C57 1.422 1_655 S
C60 C59 1.384 . S
C60 H78 0.928 1_655 S
C61 C58 1.260 . S
C61 C59 1.479 . S
C62 C57 1.246 1_655 S
C62 C58 1.477 . S
C62 H79 0.932 . S
C63 U46 2.882 . S
C63 C57 1.428 . S
C63 O66 1.301 . S
C63 O67 1.282 . S
O64 U46 2.441 . S
O64 C50 1.249 . S
O65 U46 2.420 . S
O65 C50 1.202 . S
O66 U46 2.455 . S
O66 C63 1.301 . S
O67 U46 2.449 . S
O67 C63 1.282 . S
H68 C41 0.931 . S
H69 C43 0.929 . S
H70 C44 0.930 . S
H71 C45 0.931 . S
H72 C52 0.932 . S
H73 C53 0.930 1_455 S
H74 C54 0.929 1_565 S
H75 C56 0.930 . S
H76 C58 0.932 . S
H77 C59 0.929 . S
H78 C60 0.928 1_455 S
H79 C62 0.932 . S
C80 C81 1.264 . S
C80 C85 1.479 . S
C80 C90 1.465 . S
C81 C80 1.264 . S
C81 C83 1.339 . S
C81 H108 0.931 . S
C82 C83 1.395 . S
C82 C84 1.320 . S
C83 C81 1.339 . S
C83 C82 1.395 . S
C83 H109 0.929 . S
C84 C82 1.320 . S
C84 C85 1.405 . S
C84 H110 0.930 . S
C85 C80 1.479 . S
C85 C84 1.405 . S
C85 H111 0.931 . S
U86 O87 2.454 . S
U86 O88 2.458 1_545 S
U86 C89 2.984 1_545 S
U86 C90 2.847 . S
U86 C103 2.882 . S
U86 O104 2.441 . S
U86 O105 2.420 . S
U86 O106 2.455 . S
U86 O107 2.449 . S
O87 U86 2.454 . S
O87 C89 1.353 1_545 S
O88 U86 2.458 1_565 S
O88 C89 1.286 . S
C89 U86 2.984 1_565 S
C89 O87 1.353 1_565 S
C89 O88 1.286 . S
C89 C91 1.363 . S
C90 C80 1.465 . S
C90 U86 2.847 . S
C90 O104 1.249 . S
C90 O105 1.202 . S
C91 C89 1.363 . S
C91 C93 1.408 . S
C91 C96 1.342 . S
C92 C93 1.310 . S
C92 C95 1.461 . S
C92 H112 0.932 . S
C93 C91 1.408 . S
C93 C92 1.310 . S
C93 H113 0.930 1_565 S
C94 C95 1.474 . S
C94 C96 1.285 . S
C94 H114 0.929 . S
C95 C92 1.461 . S
C95 C94 1.474 . S
C96 C91 1.342 . S
C96 C94 1.285 . S
C96 H115 0.930 . S
C97 C100 1.425 1_545 S
C97 C102 1.242 1_545 S
C97 C103 1.429 . S
C98 C101 1.260 . S
C98 C102 1.477 . S
C98 H116 0.932 . S
C99 C100 1.384 . S
C99 C101 1.479 . S
C99 H117 0.929 . S
C100 C97 1.425 1_565 S
C100 C99 1.384 . S
C100 H118 0.928 1_565 S
C101 C98 1.260 . S
C101 C99 1.479 . S
C102 C97 1.242 1_565 S
C102 C98 1.477 . S
C102 H119 0.932 . S
C103 U86 2.882 . S
C103 C97 1.429 . S
C103 O106 1.301 . S
C103 O107 1.282 . S
O104 U86 2.441 . S
O104 C90 1.249 . S
O105 U86 2.420 . S
O105 C90 1.202 . S
O106 U86 2.455 . S
O106 C103 1.301 . S
O107 U86 2.449 . S
O107 C103 1.282 . S
H108 C81 0.931 . S
H109 C83 0.929 . S
H110 C84 0.930 . S
H111 C85 0.931 . S
H112 C92 0.932 . S
H113 C93 0.930 1_545 S
H114 C94 0.929 . S
H115 C96 0.930 . S
H116 C98 0.932 . S
H117 C99 0.929 . S
H118 C100 0.928 1_545 S
H119 C102 0.932 . S
C120 C121 1.264 . S
C120 C125 1.479 . S
C120 C130 1.465 . S
C121 C120 1.264 . S
C121 C123 1.339 . S
C121 H148 0.931 . S
C122 C123 1.395 . S
C122 C124 1.320 . S
C123 C121 1.339 . S
C123 C122 1.395 . S
C123 H149 0.929 . S
C124 C122 1.320 . S
C124 C125 1.405 . S
C124 H150 0.930 . S
C125 C120 1.479 . S
C125 C124 1.405 . S
C125 H151 0.931 . S
U126 O127 2.454 . S
U126 O128 2.458 . S
U126 C129 2.984 . S
U126 C130 2.847 . S
U126 C143 2.882 . S
U126 O144 2.441 . S
U126 O145 2.420 . S
U126 O146 2.455 . S
U126 O147 2.449 . S
O127 U126 2.454 . S
O127 C129 1.353 . S
O128 U126 2.458 . S
O128 C129 1.286 . S
C129 U126 2.984 . S
C129 O127 1.353 . S
C129 O128 1.286 . S
C129 C131 1.363 . S
C130 C120 1.465 . S
C130 U126 2.847 . S
C130 O144 1.249 . S
C130 O145 1.202 . S
C131 C129 1.363 . S
C131 C133 1.408 . S
C131 C136 1.342 . S
C132 C133 1.310 . S
C132 C135 1.461 . S
C132 H152 0.932 . S
C133 C131 1.408 . S
C133 C132 1.310 . S
C133 H153 0.930 . S
C134 C135 1.474 . S
C134 C136 1.285 . S
C134 H154 0.929 1_655 S
C135 C132 1.461 . S
C135 C134 1.474 . S
C136 C131 1.342 . S
C136 C134 1.285 . S
C136 H155 0.930 . S
C137 C140 1.424 . S
C137 C142 1.245 . S
C137 C143 1.428 . S
C138 C141 1.260 . S
C138 C142 1.477 . S
C138 H156 0.932 . S
C139 C140 1.384 . S
C139 C141 1.479 . S
C139 H157 0.929 . S
C140 C137 1.424 . S
C140 C139 1.384 . S
C140 H158 0.928 . S
C141 C138 1.260 . S
C141 C139 1.479 . S
C142 C137 1.245 . S
C142 C138 1.477 . S
C142 H159 0.932 . S
C143 U126 2.882 . S
C143 C137 1.428 . S
C143 O146 1.301 . S
C143 O147 1.282 . S
O144 U126 2.441 . S
O144 C130 1.249 . S
O145 U126 2.420 . S
O145 C130 1.202 . S
O146 U126 2.455 . S
O146 C143 1.301 . S
O147 U126 2.449 . S
O147 C143 1.282 . S
H148 C121 0.931 . S
H149 C123 0.929 . S
H150 C124 0.930 . S
H151 C125 0.931 . S
H152 C132 0.932 . S
H153 C133 0.930 . S
H154 C134 0.929 1_455 S
H155 C136 0.930 . S
H156 C138 0.932 . S
H157 C139 0.929 . S
H158 C140 0.928 . S
H159 C142 0.932 . S
C160 C161 1.264 . S
C160 C165 1.479 . S
C160 C170 1.465 . S
C161 C160 1.264 . S
C161 C163 1.339 . S
C161 H188 0.931 . S
C162 C163 1.395 . S
C162 C164 1.320 . S
C163 C161 1.339 . S
C163 C162 1.395 . S
C163 H189 0.929 . S
C164 C162 1.320 . S
C164 C165 1.405 . S
C164 H190 0.930 . S
C165 C160 1.479 . S
C165 C164 1.405 . S
C165 H191 0.931 . S
U166 O167 2.454 . S
U166 O168 2.458 1_655 S
U166 C169 2.984 1_655 S
U166 C170 2.847 . S
U166 C183 2.882 . S
U166 O184 2.441 . S
U166 O185 2.420 . S
U166 O186 2.455 . S
U166 O187 2.449 . S
O167 U166 2.454 . S
O167 C169 1.353 1_655 S
O168 U166 2.458 1_455 S
O168 C169 1.286 . S
C169 U166 2.984 1_455 S
C169 O167 1.353 1_455 S
C169 O168 1.286 . S
C169 C171 1.363 . S
C170 C160 1.465 . S
C170 U166 2.847 . S
C170 O184 1.249 . S
C170 O185 1.202 . S
C171 C169 1.363 . S
C171 C173 1.408 . S
C171 C176 1.342 . S
C172 C173 1.310 . S
C172 C175 1.461 . S
C172 H192 0.932 . S
C173 C171 1.408 . S
C173 C172 1.310 . S
C173 H193 0.930 1_455 S
C174 C175 1.474 . S
C174 C176 1.285 . S
C174 H194 0.929 1_565 S
C175 C172 1.461 . S
C175 C174 1.474 . S
C176 C171 1.342 . S
C176 C174 1.285 . S
C176 H195 0.930 . S
C177 C180 1.422 1_655 S
C177 C182 1.246 1_655 S
C177 C183 1.428 . S
C178 C181 1.260 . S
C178 C182 1.477 . S
C178 H196 0.932 . S
C179 C180 1.384 . S
C179 C181 1.479 . S
C179 H197 0.929 . S
C180 C177 1.422 1_455 S
C180 C179 1.384 . S
C180 H198 0.928 1_455 S
C181 C178 1.260 . S
C181 C179 1.479 . S
C182 C177 1.246 1_455 S
C182 C178 1.477 . S
C182 H199 0.932 . S
C183 U166 2.882 . S
C183 C177 1.428 . S
C183 O186 1.301 . S
C183 O187 1.282 . S
O184 U166 2.441 . S
O184 C170 1.249 . S
O185 U166 2.420 . S
O185 C170 1.202 . S
O186 U166 2.455 . S
O186 C183 1.301 . S
O187 U166 2.449 . S
O187 C183 1.282 . S
H188 C161 0.931 . S
H189 C163 0.929 . S
H190 C164 0.930 . S
H191 C165 0.931 . S
H192 C172 0.932 . S
H193 C173 0.930 1_655 S
H194 C174 0.929 1_545 S
H195 C176 0.930 . S
H196 C178 0.932 . S
H197 C179 0.929 . S
H198 C180 0.928 1_655 S
H199 C182 0.932 . S
C200 C201 1.264 . S
C200 C205 1.479 . S
C200 C210 1.465 . S
C201 C200 1.264 . S
C201 C203 1.339 . S
C201 H228 0.931 . S
C202 C203 1.395 . S
C202 C204 1.320 . S
C203 C201 1.339 . S
C203 C202 1.395 . S
C203 H229 0.929 . S
C204 C202 1.320 . S
C204 C205 1.405 . S
C204 H230 0.930 . S
C205 C200 1.479 . S
C205 C204 1.405 . S
C205 H231 0.931 . S
U206 O207 2.454 . S
U206 O208 2.458 1_565 S
U206 C209 2.984 1_565 S
U206 C210 2.847 . S
U206 C223 2.882 . S
U206 O224 2.441 . S
U206 O225 2.420 . S
U206 O226 2.455 . S
U206 O227 2.449 . S
O207 U206 2.454 . S
O207 C209 1.353 1_565 S
O208 U206 2.458 1_545 S
O208 C209 1.286 . S
C209 U206 2.984 1_545 S
C209 O207 1.353 1_545 S
C209 O208 1.286 . S
C209 C211 1.363 . S
C210 C200 1.465 . S
C210 U206 2.847 . S
C210 O224 1.249 . S
C210 O225 1.202 . S
C211 C209 1.363 . S
C211 C213 1.408 . S
C211 C216 1.342 . S
C212 C213 1.310 . S
C212 C215 1.461 . S
C212 H232 0.932 . S
C213 C211 1.408 . S
C213 C212 1.310 . S
C213 H233 0.930 1_545 S
C214 C215 1.474 . S
C214 C216 1.285 . S
C214 H234 0.929 . S
C215 C212 1.461 . S
C215 C214 1.474 . S
C216 C211 1.342 . S
C216 C214 1.285 . S
C216 H235 0.930 . S
C217 C220 1.425 1_565 S
C217 C222 1.243 1_565 S
C217 C223 1.429 . S
C218 C221 1.260 . S
C218 C222 1.477 . S
C218 H236 0.932 . S
C219 C220 1.384 . S
C219 C221 1.479 . S
C219 H237 0.929 . S
C220 C217 1.425 1_545 S
C220 C219 1.384 . S
C220 H238 0.928 1_545 S
C221 C218 1.260 . S
C221 C219 1.479 . S
C222 C217 1.243 1_545 S
C222 C218 1.477 . S
C222 H239 0.932 . S
C223 U206 2.882 . S
C223 C217 1.429 . S
C223 O226 1.301 . S
C223 O227 1.282 . S
O224 U206 2.441 . S
O224 C210 1.249 . S
O225 U206 2.420 . S
O225 C210 1.202 . S
O226 U206 2.455 . S
O226 C223 1.301 . S
O227 U206 2.449 . S
O227 C223 1.282 . S
H228 C201 0.931 . S
H229 C203 0.929 . S
H230 C204 0.930 . S
H231 C205 0.931 . S
H232 C212 0.932 . S
H233 C213 0.930 1_565 S
H234 C214 0.929 . S
H235 C216 0.930 . S
H236 C218 0.932 . S
H237 C219 0.929 . S
H238 C220 0.928 1_565 S
H239 C222 0.932 . S
C240 C241 1.264 . S
C240 C245 1.479 . S
C240 C250 1.465 . S
C241 C240 1.264 . S
C241 C243 1.339 . S
C241 H268 0.931 . S
C242 C243 1.395 . S
C242 C244 1.320 . S
C243 C241 1.339 . S
C243 C242 1.395 . S
C243 H269 0.929 . S
C244 C242 1.320 . S
C244 C245 1.405 . S
C244 H270 0.930 . S
C245 C240 1.479 . S
C245 C244 1.405 . S
C245 H271 0.931 . S
U246 O247 2.454 . S
U246 O248 2.458 . S
U246 C249 2.984 . S
U246 C250 2.847 . S
U246 C263 2.882 . S
U246 O264 2.441 . S
U246 O265 2.420 . S
U246 O266 2.455 . S
U246 O267 2.449 . S
O247 U246 2.454 . S
O247 C249 1.353 . S
O248 U246 2.458 . S
O248 C249 1.286 . S
C249 U246 2.984 . S
C249 O247 1.353 . S
C249 O248 1.286 . S
C249 C251 1.363 . S
C250 C240 1.465 . S
C250 U246 2.847 . S
C250 O264 1.249 . S
C250 O265 1.202 . S
C251 C249 1.363 . S
C251 C253 1.408 . S
C251 C256 1.342 . S
C252 C253 1.310 . S
C252 C255 1.461 . S
C252 H272 0.932 . S
C253 C251 1.408 . S
C253 C252 1.310 . S
C253 H273 0.930 . S
C254 C255 1.474 . S
C254 C256 1.285 . S
C254 H274 0.929 1_565 S
C255 C252 1.461 . S
C255 C254 1.474 . S
C256 C251 1.342 . S
C256 C254 1.285 . S
C256 H275 0.930 . S
C257 C260 1.424 . S
C257 C262 1.245 . S
C257 C263 1.428 . S
C258 C261 1.260 . S
C258 C262 1.477 . S
C258 H276 0.932 . S
C259 C260 1.384 . S
C259 C261 1.479 . S
C259 H277 0.929 . S
C260 C257 1.424 . S
C260 C259 1.384 . S
C260 H278 0.928 . S
C261 C258 1.260 . S
C261 C259 1.479 . S
C262 C257 1.245 . S
C262 C258 1.477 . S
C262 H279 0.932 . S
C263 U246 2.882 . S
C263 C257 1.428 . S
C263 O266 1.301 . S
C263 O267 1.282 . S
O264 U246 2.441 . S
O264 C250 1.249 . S
O265 U246 2.420 . S
O265 C250 1.202 . S
O266 U246 2.455 . S
O266 C263 1.301 . S
O267 U246 2.449 . S
O267 C263 1.282 . S
H268 C241 0.931 . S
H269 C243 0.929 . S
H270 C244 0.930 . S
H271 C245 0.931 . S
H272 C252 0.932 . S
H273 C253 0.930 . S
H274 C254 0.929 1_545 S
H275 C256 0.930 . S
H276 C258 0.932 . S
H277 C259 0.929 . S
H278 C260 0.928 . S
H279 C262 0.932 . S
C280 C281 1.264 . S
C280 C285 1.479 . S
C280 C290 1.465 . S
C281 C280 1.264 . S
C281 C283 1.339 . S
C281 H308 0.931 . S
C282 C283 1.395 . S
C282 C284 1.320 . S
C283 C281 1.339 . S
C283 C282 1.395 . S
C283 H309 0.929 . S
C284 C282 1.320 . S
C284 C285 1.405 . S
C284 H310 0.930 . S
C285 C280 1.479 . S
C285 C284 1.405 . S
C285 H311 0.931 . S
U286 O287 2.454 . S
U286 O288 2.458 1_455 S
U286 C289 2.984 1_455 S
U286 C290 2.847 . S
U286 C303 2.882 . S
U286 O304 2.441 . S
U286 O305 2.420 . S
U286 O306 2.455 . S
U286 O307 2.449 . S
O287 U286 2.454 . S
O287 C289 1.353 1_455 S
O288 U286 2.458 1_655 S
O288 C289 1.286 . S
C289 U286 2.984 1_655 S
C289 O287 1.353 1_655 S
C289 O288 1.286 . S
C289 C291 1.363 . S
C290 C280 1.465 . S
C290 U286 2.847 . S
C290 O304 1.249 . S
C290 O305 1.202 . S
C291 C289 1.363 . S
C291 C293 1.408 . S
C291 C296 1.342 . S
C292 C293 1.310 . S
C292 C295 1.461 . S
C292 H312 0.932 . S
C293 C291 1.408 . S
C293 C292 1.310 . S
C293 H313 0.930 1_655 S
C294 C295 1.474 . S
C294 C296 1.285 . S
C294 H314 0.929 . S
C295 C292 1.461 . S
C295 C294 1.474 . S
C296 C291 1.342 . S
C296 C294 1.285 . S
C296 H315 0.930 . S
C297 C300 1.425 1_455 S
C297 C302 1.243 1_455 S
C297 C303 1.429 . S
C298 C301 1.260 . S
C298 C302 1.477 . S
C298 H316 0.932 . S
C299 C300 1.384 . S
C299 C301 1.479 . S
C299 H317 0.929 . S
C300 C297 1.425 1_655 S
C300 C299 1.384 . S
C300 H318 0.928 1_655 S
C301 C298 1.260 . S
C301 C299 1.479 . S
C302 C297 1.243 1_655 S
C302 C298 1.477 . S
C302 H319 0.932 . S
C303 U286 2.882 . S
C303 C297 1.429 . S
C303 O306 1.301 . S
C303 O307 1.282 . S
O304 U286 2.441 . S
O304 C290 1.249 . S
O305 U286 2.420 . S
O305 C290 1.202 . S
O306 U286 2.455 . S
O306 C303 1.301 . S
O307 U286 2.449 . S
O307 C303 1.282 . S
H308 C281 0.931 . S
H309 C283 0.929 . S
H310 C284 0.930 . S
H311 C285 0.931 . S
H312 C292 0.932 . S
H313 C293 0.930 1_455 S
H314 C294 0.929 . S
H315 C296 0.930 . S
H316 C298 0.932 . S
H317 C299 0.929 . S
H318 C300 0.928 1_455 S
H319 C302 0.932 . S
C320 C321 1.264 . S
C320 C325 1.479 . S
C320 C330 1.465 . S
C321 C320 1.264 . S
C321 C323 1.339 . S
C321 H348 0.931 . S
C322 C323 1.395 . S
C322 C324 1.320 . S
C323 C321 1.339 . S
C323 C322 1.395 . S
C323 H349 0.929 . S
C324 C322 1.320 . S
C324 C325 1.405 . S
C324 H350 0.930 . S
C325 C320 1.479 . S
C325 C324 1.405 . S
C325 H351 0.931 . S
U326 O327 2.454 . S
U326 O328 2.458 1_545 S
U326 C329 2.984 1_545 S
U326 C330 2.847 . S
U326 C343 2.882 . S
U326 O344 2.441 . S
U326 O345 2.420 . S
U326 O346 2.455 . S
U326 O347 2.449 . S
O327 U326 2.454 . S
O327 C329 1.353 1_545 S
O328 U326 2.458 1_565 S
O328 C329 1.286 . S
C329 U326 2.984 1_565 S
C329 O327 1.353 1_565 S
C329 O328 1.286 . S
C329 C331 1.363 . S
C330 C320 1.465 . S
C330 U326 2.847 . S
C330 O344 1.249 . S
C330 O345 1.202 . S
C331 C329 1.363 . S
C331 C333 1.408 . S
C331 C336 1.342 . S
C332 C333 1.310 . S
C332 C335 1.461 . S
C332 H352 0.932 . S
C333 C331 1.408 . S
C333 C332 1.310 . S
C333 H353 0.930 1_565 S
C334 C335 1.474 . S
C334 C336 1.285 . S
C334 H354 0.929 1_455 S
C335 C332 1.461 . S
C335 C334 1.474 . S
C336 C331 1.342 . S
C336 C334 1.285 . S
C336 H355 0.930 . S
C337 C340 1.422 1_545 S
C337 C342 1.246 1_545 S
C337 C343 1.428 . S
C338 C341 1.260 . S
C338 C342 1.477 . S
C338 H356 0.932 . S
C339 C340 1.384 . S
C339 C341 1.479 . S
C339 H357 0.929 . S
C340 C337 1.422 1_565 S
C340 C339 1.384 . S
C340 H358 0.928 1_565 S
C341 C338 1.260 . S
C341 C339 1.479 . S
C342 C337 1.246 1_565 S
C342 C338 1.477 . S
C342 H359 0.932 . S
C343 U326 2.882 . S
C343 C337 1.428 . S
C343 O346 1.301 . S
C343 O347 1.282 . S
O344 U326 2.441 . S
O344 C330 1.249 . S
O345 U326 2.420 . S
O345 C330 1.202 . S
O346 U326 2.455 . S
O346 C343 1.301 . S
O347 U326 2.449 . S
O347 C343 1.282 . S
H348 C321 0.931 . S
H349 C323 0.929 . S
H350 C324 0.930 . S
H351 C325 0.931 . S
H352 C332 0.932 . S
H353 C333 0.930 1_545 S
H354 C334 0.929 1_655 S
H355 C336 0.930 . S
H356 C338 0.932 . S
H357 C339 0.929 . S
H358 C340 0.928 1_545 S
H359 C342 0.932 . S
C360 C361 1.264 . S
C360 C365 1.479 . S
C360 C370 1.465 . S
C361 C360 1.264 . S
C361 C363 1.339 . S
C361 H388 0.931 . S
C362 C363 1.395 . S
C362 C364 1.320 . S
C363 C361 1.339 . S
C363 C362 1.395 . S
C363 H389 0.929 . S
C364 C362 1.320 . S
C364 C365 1.405 . S
C364 H390 0.930 . S
C365 C360 1.479 . S
C365 C364 1.405 . S
C365 H391 0.931 . S
U366 O367 2.454 . S
U366 O368 2.458 . S
U366 C369 2.984 . S
U366 C370 2.847 . S
U366 C383 2.882 . S
U366 O384 2.441 . S
U366 O385 2.420 . S
U366 O386 2.455 . S
U366 O387 2.449 . S
O367 U366 2.454 . S
O367 C369 1.353 . S
O368 U366 2.458 . S
O368 C369 1.286 . S
C369 U366 2.984 . S
C369 O367 1.353 . S
C369 O368 1.286 . S
C369 C371 1.363 . S
C370 C360 1.465 . S
C370 U366 2.847 . S
C370 O384 1.249 . S
C370 O385 1.202 . S
C371 C369 1.363 . S
C371 C373 1.408 . S
C371 C376 1.342 . S
C372 C373 1.310 . S
C372 C375 1.461 . S
C372 H392 0.932 . S
C373 C371 1.408 . S
C373 C372 1.310 . S
C373 H393 0.930 . S
C374 C375 1.474 . S
C374 C376 1.285 . S
C374 H394 0.929 1_545 S
C375 C372 1.461 . S
C375 C374 1.474 . S
C376 C371 1.342 . S
C376 C374 1.285 . S
C376 H395 0.930 . S
C377 C380 1.424 . S
C377 C382 1.245 . S
C377 C383 1.428 . S
C378 C381 1.260 . S
C378 C382 1.477 . S
C378 H396 0.932 . S
C379 C380 1.384 . S
C379 C381 1.479 . S
C379 H397 0.929 . S
C380 C377 1.424 . S
C380 C379 1.384 . S
C380 H398 0.928 . S
C381 C378 1.260 . S
C381 C379 1.479 . S
C382 C377 1.245 . S
C382 C378 1.477 . S
C382 H399 0.932 . S
C383 U366 2.882 . S
C383 C377 1.428 . S
C383 O386 1.301 . S
C383 O387 1.282 . S
O384 U366 2.441 . S
O384 C370 1.249 . S
O385 U366 2.420 . S
O385 C370 1.202 . S
O386 U366 2.455 . S
O386 C383 1.301 . S
O387 U366 2.449 . S
O387 C383 1.282 . S
H388 C361 0.931 . S
H389 C363 0.929 . S
H390 C364 0.930 . S
H391 C365 0.931 . S
H392 C372 0.932 . S
H393 C373 0.930 . S
H394 C374 0.929 1_565 S
H395 C376 0.930 . S
H396 C378 0.932 . S
H397 C379 0.929 . S
H398 C380 0.928 . S
H399 C382 0.932 . S
C400 C401 1.264 . S
C400 C405 1.479 . S
C400 C410 1.465 . S
C401 C400 1.264 . S
C401 C403 1.339 . S
C401 H428 0.931 . S
C402 C403 1.395 . S
C402 C404 1.320 . S
C403 C401 1.339 . S
C403 C402 1.395 . S
C403 H429 0.929 . S
C404 C402 1.320 . S
C404 C405 1.405 . S
C404 H430 0.930 . S
C405 C400 1.479 . S
C405 C404 1.405 . S
C405 H431 0.931 . S
U406 O407 2.454 . S
U406 O408 2.458 1_655 S
U406 C409 2.984 1_655 S
U406 C410 2.847 . S
U406 C423 2.882 . S
U406 O424 2.441 . S
U406 O425 2.420 . S
U406 O426 2.455 . S
U406 O427 2.449 . S
O407 U406 2.454 . S
O407 C409 1.353 1_655 S
O408 U406 2.458 1_455 S
O408 C409 1.286 . S
C409 U406 2.984 1_455 S
C409 O407 1.353 1_455 S
C409 O408 1.286 . S
C409 C411 1.363 . S
C410 C400 1.465 . S
C410 U406 2.847 . S
C410 O424 1.249 . S
C410 O425 1.202 . S
C411 C409 1.363 . S
C411 C413 1.408 . S
C411 C416 1.342 . S
C412 C413 1.310 . S
C412 C415 1.461 . S
C412 H432 0.932 . S
C413 C411 1.408 . S
C413 C412 1.310 . S
C413 H433 0.930 1_455 S
C414 C415 1.474 . S
C414 C416 1.285 . S
C414 H434 0.929 . S
C415 C412 1.461 . S
C415 C414 1.474 . S
C416 C411 1.342 . S
C416 C414 1.285 . S
C416 H435 0.930 . S
C417 C420 1.425 1_655 S
C417 C422 1.242 1_655 S
C417 C423 1.429 . S
C418 C421 1.260 . S
C418 C422 1.477 . S
C418 H436 0.932 . S
C419 C420 1.384 . S
C419 C421 1.479 . S
C419 H437 0.929 . S
C420 C417 1.425 1_455 S
C420 C419 1.384 . S
C420 H438 0.928 1_455 S
C421 C418 1.260 . S
C421 C419 1.479 . S
C422 C417 1.242 1_455 S
C422 C418 1.477 . S
C422 H439 0.932 . S
C423 U406 2.882 . S
C423 C417 1.429 . S
C423 O426 1.301 . S
C423 O427 1.282 . S
O424 U406 2.441 . S
O424 C410 1.249 . S
O425 U406 2.420 . S
O425 C410 1.202 . S
O426 U406 2.455 . S
O426 C423 1.301 . S
O427 U406 2.449 . S
O427 C423 1.282 . S
H428 C401 0.931 . S
H429 C403 0.929 . S
H430 C404 0.930 . S
H431 C405 0.931 . S
H432 C412 0.932 . S
H433 C413 0.930 1_655 S
H434 C414 0.929 . S
H435 C416 0.930 . S
H436 C418 0.932 . S
H437 C419 0.929 . S
H438 C420 0.928 1_655 S
H439 C422 0.932 . S
C440 C441 1.264 . S
C440 C445 1.479 . S
C440 C450 1.465 . S
C441 C440 1.264 . S
C441 C443 1.339 . S
C441 H468 0.931 . S
C442 C443 1.395 . S
C442 C444 1.320 . S
C443 C441 1.339 . S
C443 C442 1.395 . S
C443 H469 0.929 . S
C444 C442 1.320 . S
C444 C445 1.405 . S
C444 H470 0.930 . S
C445 C440 1.479 . S
C445 C444 1.405 . S
C445 H471 0.931 . S
U446 O447 2.454 . S
U446 O448 2.458 1_565 S
U446 C449 2.984 1_565 S
U446 C450 2.847 . S
U446 C463 2.882 . S
U446 O464 2.441 . S
U446 O465 2.420 . S
U446 O466 2.455 . S
U446 O467 2.449 . S
O447 U446 2.454 . S
O447 C449 1.353 1_565 S
O448 U446 2.458 1_545 S
O448 C449 1.286 . S
C449 U446 2.984 1_545 S
C449 O447 1.353 1_545 S
C449 O448 1.286 . S
C449 C451 1.363 . S
C450 C440 1.465 . S
C450 U446 2.847 . S
C450 O464 1.249 . S
C450 O465 1.202 . S
C451 C449 1.363 . S
C451 C453 1.408 . S
C451 C456 1.342 . S
C452 C453 1.310 . S
C452 C455 1.461 . S
C452 H472 0.932 . S
C453 C451 1.408 . S
C453 C452 1.310 . S
C453 H473 0.930 1_545 S
C454 C455 1.474 . S
C454 C456 1.285 . S
C454 H474 0.929 1_655 S
C455 C452 1.461 . S
C455 C454 1.474 . S
C456 C451 1.342 . S
C456 C454 1.285 . S
C456 H475 0.930 . S
C457 C460 1.422 1_565 S
C457 C462 1.246 1_565 S
C457 C463 1.428 . S
C458 C461 1.260 . S
C458 C462 1.477 . S
C458 H476 0.932 . S
C459 C460 1.384 . S
C459 C461 1.479 . S
C459 H477 0.929 . S
C460 C457 1.422 1_545 S
C460 C459 1.384 . S
C460 H478 0.928 1_545 S
C461 C458 1.260 . S
C461 C459 1.479 . S
C462 C457 1.246 1_545 S
C462 C458 1.477 . S
C462 H479 0.932 . S
C463 U446 2.882 . S
C463 C457 1.428 . S
C463 O466 1.301 . S
C463 O467 1.282 . S
O464 U446 2.441 . S
O464 C450 1.249 . S
O465 U446 2.420 . S
O465 C450 1.202 . S
O466 U446 2.455 . S
O466 C463 1.301 . S
O467 U446 2.449 . S
O467 C463 1.282 . S
H468 C441 0.931 . S
H469 C443 0.929 . S
H470 C444 0.930 . S
H471 C445 0.931 . S
H472 C452 0.932 . S
H473 C453 0.930 1_565 S
H474 C454 0.929 1_455 S
H475 C456 0.930 . S
H476 C458 0.932 . S
H477 C459 0.929 . S
H478 C460 0.928 1_565 S
H479 C462 0.932 . S
C421 C21 2.556 1_556 S
C461 C61 2.557 . S
C101 C261 2.556 . S
C141 C301 2.556 1_554 S
C341 C181 2.556 . S
C381 C221 2.555 . S
C122 C2 4.140 . S
C42 C162 4.141 1_455 S
C202 C82 4.140 1_565 S
C362 C242 4.140 . S
C402 C282 4.140 1_655 S
C322 C442 4.141 1_545 S
C455 C15 2.212 1_655 S
C255 C55 2.212 1_565 S
C95 C295 2.212 . S
C135 C335 2.212 1_655 S
C175 C375 2.212 1_565 S
C215 C415 2.212 . S
