# Generated by pormake.
# Topology cbo, (4)-cn, num edge types: 1
# Building blocks:
#     Node 0, Type 0, BuildingBlock: CEKHIL_clean_sbu_0, # of connection points: 4
#     Node 1, Type 0, BuildingBlock: CEKHIL_clean_sbu_0, # of connection points: 4
#     Node 2, Type 0, BuildingBlock: CEKHIL_clean_sbu_0, # of connection points: 4
#     Node 3, Type 0, BuildingBlock: CEKHIL_clean_sbu_0, # of connection points: 4
#     Node 4, Type 0, BuildingBlock: CEKHIL_clean_sbu_0, # of connection points: 4
#     Node 5, Type 0, BuildingBlock: CEKHIL_clean_sbu_0, # of connection points: 4
#     Node 6, Type 0, BuildingBlock: CEKHIL_clean_sbu_0, # of connection points: 4
#     Node 7, Type 0, BuildingBlock: CEKHIL_clean_sbu_0, # of connection points: 4
#     Node 8, Type 0, BuildingBlock: CEKHIL_clean_sbu_0, # of connection points: 4
#     Node 9, Type 0, BuildingBlock: CEKHIL_clean_sbu_0, # of connection points: 4
#     Node 10, Type 0, BuildingBlock: CEKHIL_clean_sbu_0, # of connection points: 4
#     Node 11, Type 0, BuildingBlock: CEKHIL_clean_sbu_0, # of connection points: 4
#     Node 12, Type 0, BuildingBlock: CEKHIL_clean_sbu_0, # of connection points: 4
#     Node 13, Type 0, BuildingBlock: CEKHIL_clean_sbu_0, # of connection points: 4
#     Node 14, Type 0, BuildingBlock: CEKHIL_clean_sbu_0, # of connection points: 4
#     Node 15, Type 0, BuildingBlock: CEKHIL_clean_sbu_0, # of connection points: 4
#     Node 16, Type 0, BuildingBlock: CEKHIL_clean_sbu_0, # of connection points: 4
#     Node 17, Type 0, BuildingBlock: CEKHIL_clean_sbu_0, # of connection points: 4
#     Node 18, Type 0, BuildingBlock: CEKHIL_clean_sbu_0, # of connection points: 4
#     Node 19, Type 0, BuildingBlock: CEKHIL_clean_sbu_0, # of connection points: 4
#     Node 20, Type 0, BuildingBlock: CEKHIL_clean_sbu_0, # of connection points: 4
#     Node 21, Type 0, BuildingBlock: CEKHIL_clean_sbu_0, # of connection points: 4
#     Node 22, Type 0, BuildingBlock: CEKHIL_clean_sbu_0, # of connection points: 4
#     Node 23, Type 0, BuildingBlock: CEKHIL_clean_sbu_0, # of connection points: 4
#     Edge 24, Type (0, 0), BuildingBlock: XIVTED_clean_linker_0, # of connection points: 2
#     Edge 25, Type (0, 0), BuildingBlock: XIVTED_clean_linker_0, # of connection points: 2
#     Edge 26, Type (0, 0), BuildingBlock: XIVTED_clean_linker_0, # of connection points: 2
#     Edge 27, Type (0, 0), BuildingBlock: XIVTED_clean_linker_0, # of connection points: 2
#     Edge 28, Type (0, 0), BuildingBlock: XIVTED_clean_linker_0, # of connection points: 2
#     Edge 29, Type (0, 0), BuildingBlock: XIVTED_clean_linker_0, # of connection points: 2
#     Edge 30, Type (0, 0), BuildingBlock: XIVTED_clean_linker_0, # of connection points: 2
#     Edge 31, Type (0, 0), BuildingBlock: XIVTED_clean_linker_0, # of connection points: 2
#     Edge 32, Type (0, 0), BuildingBlock: XIVTED_clean_linker_0, # of connection points: 2
#     Edge 33, Type (0, 0), BuildingBlock: XIVTED_clean_linker_0, # of connection points: 2
#     Edge 34, Type (0, 0), BuildingBlock: XIVTED_clean_linker_0, # of connection points: 2
#     Edge 35, Type (0, 0), BuildingBlock: XIVTED_clean_linker_0, # of connection points: 2
#     Edge 36, Type (0, 0), BuildingBlock: XIVTED_clean_linker_0, # of connection points: 2
#     Edge 37, Type (0, 0), BuildingBlock: XIVTED_clean_linker_0, # of connection points: 2
#     Edge 38, Type (0, 0), BuildingBlock: XIVTED_clean_linker_0, # of connection points: 2
#     Edge 39, Type (0, 0), BuildingBlock: XIVTED_clean_linker_0, # of connection points: 2
#     Edge 40, Type (0, 0), BuildingBlock: XIVTED_clean_linker_0, # of connection points: 2
#     Edge 41, Type (0, 0), BuildingBlock: XIVTED_clean_linker_0, # of connection points: 2
#     Edge 42, Type (0, 0), BuildingBlock: XIVTED_clean_linker_0, # of connection points: 2
#     Edge 43, Type (0, 0), BuildingBlock: XIVTED_clean_linker_0, # of connection points: 2
#     Edge 44, Type (0, 0), BuildingBlock: XIVTED_clean_linker_0, # of connection points: 2
#     Edge 45, Type (0, 0), BuildingBlock: XIVTED_clean_linker_0, # of connection points: 2
#     Edge 46, Type (0, 0), BuildingBlock: XIVTED_clean_linker_0, # of connection points: 2
#     Edge 47, Type (0, 0), BuildingBlock: XIVTED_clean_linker_0, # of connection points: 2
#     Edge 48, Type (0, 0), BuildingBlock: XIVTED_clean_linker_0, # of connection points: 2
#     Edge 49, Type (0, 0), BuildingBlock: XIVTED_clean_linker_0, # of connection points: 2
#     Edge 50, Type (0, 0), BuildingBlock: XIVTED_clean_linker_0, # of connection points: 2
#     Edge 51, Type (0, 0), BuildingBlock: XIVTED_clean_linker_0, # of connection points: 2
#     Edge 52, Type (0, 0), BuildingBlock: XIVTED_clean_linker_0, # of connection points: 2
#     Edge 53, Type (0, 0), BuildingBlock: XIVTED_clean_linker_0, # of connection points: 2
#     Edge 54, Type (0, 0), BuildingBlock: XIVTED_clean_linker_0, # of connection points: 2
#     Edge 55, Type (0, 0), BuildingBlock: XIVTED_clean_linker_0, # of connection points: 2
#     Edge 56, Type (0, 0), BuildingBlock: XIVTED_clean_linker_0, # of connection points: 2
#     Edge 57, Type (0, 0), BuildingBlock: XIVTED_clean_linker_0, # of connection points: 2
#     Edge 58, Type (0, 0), BuildingBlock: XIVTED_clean_linker_0, # of connection points: 2
#     Edge 59, Type (0, 0), BuildingBlock: XIVTED_clean_linker_0, # of connection points: 2
#     Edge 60, Type (0, 0), BuildingBlock: XIVTED_clean_linker_0, # of connection points: 2
#     Edge 61, Type (0, 0), BuildingBlock: XIVTED_clean_linker_0, # of connection points: 2
#     Edge 62, Type (0, 0), BuildingBlock: XIVTED_clean_linker_0, # of connection points: 2
#     Edge 63, Type (0, 0), BuildingBlock: XIVTED_clean_linker_0, # of connection points: 2
#     Edge 64, Type (0, 0), BuildingBlock: XIVTED_clean_linker_0, # of connection points: 2
#     Edge 65, Type (0, 0), BuildingBlock: XIVTED_clean_linker_0, # of connection points: 2
#     Edge 66, Type (0, 0), BuildingBlock: XIVTED_clean_linker_0, # of connection points: 2
#     Edge 67, Type (0, 0), BuildingBlock: XIVTED_clean_linker_0, # of connection points: 2
#     Edge 68, Type (0, 0), BuildingBlock: XIVTED_clean_linker_0, # of connection points: 2
#     Edge 69, Type (0, 0), BuildingBlock: XIVTED_clean_linker_0, # of connection points: 2
#     Edge 70, Type (0, 0), BuildingBlock: XIVTED_clean_linker_0, # of connection points: 2
#     Edge 71, Type (0, 0), BuildingBlock: XIVTED_clean_linker_0, # of connection points: 2
# Relax obj value: 0.197
# Max RMSD: 0.203
# Mean RMSD: 0.197
data_MOF--net-cbo--node1-CEKHIL_clean_sbu_0--edge1-XIVTED_clean_linker_0
_symmetry_space_group_name_H-M    P1
_symmetry_Int_Tables_number       1
_symmetry_cell_setting            triclinic
loop_
_symmetry_equiv_pos_as_xyz
'x, y, z'
_cell_length_a     52.024148
_cell_length_b     51.530054
_cell_length_c     50.788984
_cell_angle_alpha  89.962185
_cell_angle_beta   89.995666
_cell_angle_gamma 89.978077
loop_
_atom_site_label
_atom_site_type_symbol
_atom_site_fract_x
_atom_site_fract_y
_atom_site_fract_z
_atom_type_partial_charge
Co0 Co 0.09606 0.19336 0.31993 0.0
O1 O 0.0596 0.1962 0.32463 0.0
O2 O 0.08097 0.15903 0.32152 0.0
C3 C 0.09965 0.22325 0.28788 0.0
O4 O 0.13346 0.18318 0.31323 0.0
Co5 Co 0.1318 0.24047 0.33164 0.0
O6 O 0.15611 0.22028 0.30974 0.0
C7 C 0.11371 0.20771 0.37544 0.0
C8 C 0.05909 0.17105 0.32383 0.0
C9 C 0.15386 0.19584 0.30673 0.0
O10 O 0.10176 0.19287 0.35918 0.0
O11 O 0.12587 0.22821 0.36853 0.0
O12 O 0.09201 0.19986 0.28241 0.0
O13 O 0.10176 0.22854 0.31267 0.0
Co14 Co 0.40663 0.80458 0.81162 0.0
O15 O 0.44278 0.8056 0.8186 0.0
O16 O 0.4181 0.84025 0.81187 0.0
C17 C 0.40717 0.77294 0.78119 0.0
O18 O 0.36885 0.8108 0.80302 0.0
Co19 Co 0.37479 0.75492 0.82426 0.0
O20 O 0.34861 0.77219 0.80205 0.0
C21 C 0.38849 0.79094 0.86703 0.0
C22 C 0.4407 0.83062 0.81678 0.0
C23 C 0.34917 0.79654 0.79776 0.0
O24 O 0.39924 0.80634 0.85046 0.0
O25 O 0.37861 0.76906 0.86076 0.0
O26 O 0.41296 0.79663 0.77469 0.0
O27 O 0.40456 0.76874 0.80615 0.0
Co28 Co 0.59905 0.29473 0.67445 0.0
O29 O 0.56274 0.28942 0.67094 0.0
O30 O 0.58179 0.32793 0.67277 0.0
C31 C 0.60551 0.26581 0.70689 0.0
O32 O 0.63571 0.30761 0.6797 0.0
Co33 Co 0.63747 0.24985 0.66237 0.0
O34 O 0.66289 0.2736 0.67843 0.0
C35 C 0.61594 0.28052 0.61864 0.0
C36 C 0.56066 0.31451 0.67136 0.0
C37 C 0.65825 0.29757 0.68235 0.0
O38 O 0.60364 0.29493 0.63502 0.0
O39 O 0.62935 0.26082 0.6255 0.0
O40 O 0.59653 0.28874 0.71218 0.0
O41 O 0.60734 0.26014 0.68216 0.0
Co42 Co 0.89994 0.69089 0.17692 0.0
O43 O 0.93649 0.69518 0.17458 0.0
O44 O 0.91648 0.65737 0.17896 0.0
C45 C 0.8929 0.72259 0.20634 0.0
O46 O 0.86284 0.67913 0.18178 0.0
Co47 Co 0.86267 0.73505 0.1595 0.0
O48 O 0.8364 0.71342 0.17711 0.0
C49 C 0.88549 0.70058 0.11952 0.0
C50 C 0.93795 0.67018 0.17732 0.0
C51 C 0.84046 0.68976 0.18311 0.0
O52 O 0.89704 0.68745 0.1375 0.0
O53 O 0.87189 0.72077 0.12413 0.0
O54 O 0.90114 0.70002 0.21399 0.0
O55 O 0.89203 0.72618 0.18116 0.0
Co56 Co 0.32978 0.09987 0.18431 0.0
O57 O 0.33108 0.06295 0.18805 0.0
O58 O 0.33168 0.08414 0.1499 0.0
C59 C 0.29725 0.10769 0.21201 0.0
O60 O 0.32784 0.1376 0.17296 0.0
Co61 Co 0.34336 0.13478 0.23181 0.0
O62 O 0.33072 0.1632 0.20869 0.0
C63 C 0.38479 0.10817 0.20359 0.0
C64 C 0.33217 0.06219 0.16253 0.0
C65 C 0.32687 0.16 0.1841 0.0
O66 O 0.36835 0.10138 0.18606 0.0
O67 O 0.37846 0.11977 0.22492 0.0
O68 O 0.29279 0.09999 0.18811 0.0
O69 O 0.32105 0.10705 0.21952 0.0
Co70 Co 0.1675 0.89259 0.68391 0.0
O71 O 0.17466 0.92903 0.68429 0.0
O72 O 0.16604 0.90595 0.64843 0.0
C73 C 0.19971 0.88033 0.71012 0.0
O74 O 0.16109 0.85457 0.67573 0.0
Co75 Co 0.15083 0.864 0.73445 0.0
O76 O 0.16044 0.83261 0.71392 0.0
C77 C 0.11267 0.89508 0.70586 0.0
C78 C 0.17201 0.92817 0.6589 0.0
C79 C 0.16189 0.83323 0.68887 0.0
O80 O 0.12966 0.89936 0.68804 0.0
O81 O 0.11759 0.88265 0.72711 0.0
O82 O 0.20375 0.8849 0.68533 0.0
O83 O 0.17712 0.88626 0.71909 0.0
Co84 Co 0.83087 0.39195 0.80495 0.0
O85 O 0.8373 0.42828 0.80082 0.0
O86 O 0.83188 0.40821 0.83919 0.0
C87 C 0.80019 0.38823 0.77414 0.0
O88 O 0.82332 0.35493 0.81648 0.0
Co89 Co 0.84368 0.35463 0.7588 0.0
O90 O 0.82773 0.328 0.78188 0.0
C91 C 0.8855 0.37781 0.78943 0.0
C92 C 0.83629 0.42958 0.82631 0.0
C93 C 0.82187 0.33228 0.80588 0.0
O94 O 0.86894 0.38541 0.80652 0.0
O95 O 0.87921 0.36748 0.76744 0.0
O96 O 0.7946 0.39692 0.79745 0.0
O97 O 0.82442 0.38513 0.76933 0.0
Co98 Co 0.66462 0.6027 0.30968 0.0
O99 O 0.6613 0.56585 0.30604 0.0
O100 O 0.66339 0.58697 0.34412 0.0
C101 C 0.69612 0.60746 0.27982 0.0
O102 O 0.66992 0.64012 0.32123 0.0
Co103 Co 0.65253 0.63986 0.2633 0.0
O104 O 0.66887 0.66647 0.28594 0.0
C105 C 0.60985 0.61799 0.29442 0.0
C106 C 0.66215 0.56502 0.33157 0.0
C107 C 0.67286 0.6625 0.31036 0.0
O108 O 0.62611 0.60707 0.30995 0.0
O109 O 0.61646 0.63067 0.27381 0.0
O110 O 0.7013 0.59979 0.30358 0.0
O111 O 0.67195 0.6095 0.27405 0.0
Co112 Co 0.20653 0.33487 0.09571 0.0
O113 O 0.20952 0.34502 0.05925 0.0
O114 O 0.17337 0.33356 0.07935 0.0
C115 C 0.23987 0.30724 0.09725 0.0
O116 O 0.19533 0.32209 0.13168 0.0
Co117 Co 0.24813 0.34705 0.13759 0.0
O118 O 0.22735 0.32477 0.16121 0.0
C119 C 0.21292 0.38842 0.12025 0.0
C120 C 0.1849 0.34075 0.05789 0.0
C121 C 0.20473 0.31787 0.15468 0.0
O122 O 0.20058 0.37195 0.10613 0.0
O123 O 0.23326 0.38275 0.13324 0.0
O124 O 0.21802 0.30011 0.08721 0.0
O125 O 0.24183 0.3316 0.10322 0.0
Co126 Co 0.70767 0.15615 0.90366 0.0
O127 O 0.7111 0.14658 0.94019 0.0
O128 O 0.67432 0.15517 0.9198 0.0
C129 C 0.73883 0.18625 0.90183 0.0
O130 O 0.6962 0.1677 0.86727 0.0
Co131 Co 0.75097 0.14573 0.86303 0.0
O132 O 0.72943 0.16677 0.83899 0.0
C133 C 0.71794 0.10263 0.88009 0.0
C134 C 0.68622 0.14888 0.94136 0.0
C135 C 0.70622 0.17235 0.8446 0.0
O136 O 0.70442 0.11858 0.89368 0.0
O137 O 0.73817 0.10924 0.86742 0.0
O138 O 0.7165 0.19182 0.91177 0.0
O139 O 0.74271 0.16195 0.89656 0.0
Co140 Co 0.79376 0.83888 0.39923 0.0
O141 O 0.79116 0.84835 0.43584 0.0
O142 O 0.82745 0.83976 0.41456 0.0
C143 C 0.76239 0.80893 0.39814 0.0
O144 O 0.80443 0.8275 0.36272 0.0
Co145 Co 0.74968 0.84913 0.35939 0.0
O146 O 0.77125 0.82893 0.33445 0.0
C147 C 0.78073 0.89261 0.379 0.0
C148 C 0.81606 0.84599 0.43641 0.0
C149 C 0.79445 0.82319 0.34001 0.0
O150 O 0.79671 0.87646 0.38914 0.0
O151 O 0.75939 0.88576 0.36856 0.0
O152 O 0.78494 0.80315 0.40745 0.0
O153 O 0.75864 0.83323 0.39288 0.0
Co154 Co 0.28468 0.65713 0.60182 0.0
O155 O 0.27566 0.64793 0.56625 0.0
O156 O 0.3148 0.65838 0.57996 0.0
C157 C 0.25202 0.68473 0.60908 0.0
O158 O 0.30156 0.66905 0.63574 0.0
Co159 Co 0.24995 0.64403 0.64956 0.0
O160 O 0.27429 0.66572 0.66986 0.0
C161 C 0.28206 0.60306 0.6261 0.0
C162 C 0.29975 0.65182 0.56067 0.0
C163 C 0.29573 0.67268 0.66004 0.0
O164 O 0.29195 0.61981 0.61036 0.0
O165 O 0.26405 0.60843 0.64239 0.0
O166 O 0.27221 0.69212 0.59604 0.0
O167 O 0.25097 0.6603 0.615 0.0
Co168 Co 0.90258 0.83382 0.66996 0.0
O169 O 0.93764 0.83687 0.65862 0.0
O170 O 0.91346 0.86957 0.67262 0.0
C171 C 0.90802 0.79954 0.69673 0.0
O172 O 0.86634 0.83779 0.68439 0.0
Co173 Co 0.87073 0.78452 0.65622 0.0
O174 O 0.84497 0.80001 0.68038 0.0
C175 C 0.88343 0.82247 0.61505 0.0
C176 C 0.93572 0.8613 0.66454 0.0
C177 C 0.84663 0.82328 0.68871 0.0
O178 O 0.89032 0.83895 0.63269 0.0
O179 O 0.87779 0.79883 0.6202 0.0
O180 O 0.91384 0.82275 0.70463 0.0
O181 O 0.90202 0.79745 0.67211 0.0
Co182 Co 0.59955 0.16882 0.17418 0.0
O183 O 0.56476 0.16664 0.1618 0.0
O184 O 0.58728 0.1336 0.17777 0.0
C185 C 0.59423 0.20423 0.19934 0.0
O186 O 0.63522 0.16409 0.18996 0.0
Co187 Co 0.6335 0.2165 0.1598 0.0
O188 O 0.65831 0.20071 0.18477 0.0
C189 C 0.62 0.17796 0.11951 0.0
C190 C 0.56557 0.1424 0.16871 0.0
C191 C 0.65549 0.17788 0.19403 0.0
O192 O 0.61267 0.16204 0.1375 0.0
O193 O 0.62611 0.20158 0.1241 0.0
O194 O 0.58757 0.18151 0.20799 0.0
O195 O 0.60125 0.2052 0.17494 0.0
Co196 Co 0.39586 0.68059 0.33153 0.0
O197 O 0.42932 0.68299 0.34708 0.0
O198 O 0.41149 0.64648 0.3332 0.0
C199 C 0.40078 0.71351 0.30287 0.0
O200 O 0.36224 0.67117 0.31304 0.0
Co201 Co 0.35749 0.72688 0.33713 0.0
O202 O 0.33702 0.70677 0.31152 0.0
C203 C 0.36405 0.68999 0.38111 0.0
C204 C 0.43156 0.65829 0.3427 0.0
C205 C 0.34181 0.68326 0.30551 0.0
O206 O 0.37954 0.67604 0.36731 0.0
O207 O 0.35455 0.71153 0.37316 0.0
O208 O 0.41003 0.6907 0.29771 0.0
O209 O 0.39158 0.71647 0.32633 0.0
Co210 Co 0.10021 0.31525 0.82461 0.0
O211 O 0.06539 0.31597 0.83712 0.0
O212 O 0.08676 0.35004 0.82183 0.0
C213 C 0.09609 0.28016 0.79876 0.0
O214 O 0.13553 0.32168 0.80879 0.0
Co215 Co 0.13616 0.26879 0.83779 0.0
O216 O 0.16004 0.28587 0.81271 0.0
C217 C 0.12233 0.30649 0.87882 0.0
C218 C 0.06535 0.34035 0.83066 0.0
C219 C 0.15625 0.30881 0.80411 0.0
O220 O 0.11335 0.32197 0.86123 0.0
O221 O 0.12966 0.28329 0.87387 0.0
O222 O 0.08853 0.30279 0.79064 0.0
O223 O 0.1033 0.27893 0.8231 0.0
Co224 Co 0.66344 0.86415 0.84953 0.0
O225 O 0.63009 0.86508 0.86555 0.0
O226 O 0.63791 0.8729 0.82336 0.0
C227 C 0.67742 0.8266 0.86715 0.0
O228 O 0.69513 0.86397 0.82611 0.0
Co229 Co 0.71199 0.86743 0.88532 0.0
O230 O 0.7305 0.86147 0.85164 0.0
C231 C 0.68111 0.914 0.87602 0.0
C232 C 0.62128 0.87103 0.84241 0.0
C233 C 0.71962 0.86196 0.82913 0.0
O234 O 0.66867 0.90208 0.85779 0.0
O235 O 0.69707 0.90275 0.89141 0.0
O236 O 0.66226 0.82626 0.8468 0.0
O237 O 0.68044 0.84902 0.878 0.0
Co238 Co 0.8371 0.13037 0.3546 0.0
O239 O 0.87124 0.12878 0.3691 0.0
O240 O 0.86108 0.1195 0.32777 0.0
C241 C 0.82544 0.16948 0.37046 0.0
O242 O 0.80448 0.13094 0.33236 0.0
Co243 Co 0.78944 0.13227 0.39184 0.0
O244 O 0.77025 0.13794 0.35861 0.0
C245 C 0.81616 0.0827 0.38312 0.0
C246 C 0.87874 0.12195 0.34572 0.0
C247 C 0.78031 0.13509 0.33591 0.0
O248 O 0.83045 0.09312 0.36528 0.0
O249 O 0.80064 0.09568 0.39753 0.0
O250 O 0.83985 0.16795 0.34963 0.0
O251 O 0.82197 0.14789 0.38283 0.0
Co252 Co 0.16008 0.62711 0.15143 0.0
O253 O 0.12541 0.62557 0.13864 0.0
O254 O 0.137 0.62003 0.18032 0.0
C255 C 0.17221 0.6638 0.13082 0.0
O256 O 0.19373 0.62818 0.17182 0.0
Co257 Co 0.20569 0.62234 0.11199 0.0
O258 O 0.22698 0.63009 0.14348 0.0
C259 C 0.17546 0.57627 0.12573 0.0
C260 C 0.11874 0.62121 0.16287 0.0
C261 C 0.21791 0.63029 0.16682 0.0
O262 O 0.16452 0.58889 0.14448 0.0
O263 O 0.19023 0.58687 0.10871 0.0
O264 O 0.15897 0.665 0.15249 0.0
O265 O 0.17454 0.64089 0.1208 0.0
Co266 Co 0.33747 0.364 0.64608 0.0
O267 O 0.37113 0.36449 0.63045 0.0
O268 O 0.36293 0.37025 0.67292 0.0
C269 C 0.3222 0.32777 0.627 0.0
O270 O 0.3056 0.36367 0.66929 0.0
Co271 Co 0.28923 0.37074 0.61042 0.0
O272 O 0.27035 0.36309 0.6435 0.0
C273 C 0.32157 0.41571 0.62207 0.0
C274 C 0.37979 0.36843 0.6541 0.0
C275 C 0.28109 0.36216 0.66606 0.0
O276 O 0.3336 0.40246 0.63967 0.0
O277 O 0.30526 0.40579 0.60616 0.0
O278 O 0.33753 0.32614 0.64712 0.0
O279 O 0.32001 0.35068 0.61688 0.0
Co280 Co 0.85417 0.65581 0.87742 0.0
O281 O 0.87291 0.62395 0.87527 0.0
O282 O 0.83135 0.62699 0.88445 0.0
C283 C 0.86988 0.67353 0.84027 0.0
O284 O 0.82838 0.68539 0.88026 0.0
Co285 Co 0.88438 0.7076 0.8838 0.0
O286 O 0.84974 0.72343 0.88028 0.0
C287 C 0.88016 0.67167 0.9284 0.0
C288 C 0.85141 0.61236 0.88062 0.0
C289 C 0.82892 0.71037 0.88037 0.0
O290 O 0.86285 0.65874 0.91596 0.0
O291 O 0.89317 0.69003 0.91788 0.0
O292 O 0.85096 0.65712 0.83904 0.0
O293 O 0.8801 0.67641 0.86321 0.0
Co294 Co 0.3443 0.83794 0.10806 0.0
O295 O 0.3636 0.86945 0.10854 0.0
O296 O 0.32202 0.86681 0.09934 0.0
C297 C 0.35947 0.82231 0.14637 0.0
O298 O 0.31814 0.80864 0.10675 0.0
Co299 Co 0.37401 0.78552 0.10497 0.0
O300 O 0.33912 0.77038 0.10873 0.0
C301 C 0.37049 0.819 0.05841 0.0
C302 C 0.34233 0.88121 0.10266 0.0
C303 C 0.31845 0.78368 0.10784 0.0
O304 O 0.35313 0.83269 0.06987 0.0
O305 O 0.38334 0.8012 0.07009 0.0
O306 O 0.34073 0.83899 0.14634 0.0
O307 O 0.36986 0.81783 0.12376 0.0
Co308 Co 0.1546 0.14888 0.6145 0.0
O309 O 0.14029 0.11472 0.61147 0.0
O310 O 0.18105 0.12496 0.60372 0.0
C311 C 0.13711 0.15885 0.65371 0.0
O312 O 0.17648 0.18143 0.61633 0.0
Co313 Co 0.11903 0.19742 0.61614 0.0
O314 O 0.15161 0.21674 0.62189 0.0
C315 C 0.12655 0.16919 0.56651 0.0
C316 C 0.16328 0.10726 0.60498 0.0
C317 C 0.1736 0.20597 0.61985 0.0
O318 O 0.1453 0.15644 0.57678 0.0
O319 O 0.11182 0.18422 0.57972 0.0
O320 O 0.15793 0.14495 0.65266 0.0
O321 O 0.1264 0.16381 0.63136 0.0
Co322 Co 0.65119 0.34188 0.37889 0.0
O323 O 0.635 0.37521 0.38198 0.0
O324 O 0.6765 0.36741 0.3885 0.0
C325 C 0.63312 0.33052 0.34037 0.0
O326 O 0.67498 0.31073 0.37663 0.0
Co327 Co 0.61867 0.2912 0.37859 0.0
O328 O 0.65222 0.27387 0.3721 0.0
C329 C 0.62548 0.32053 0.42769 0.0
C330 C 0.65774 0.38407 0.38746 0.0
C331 C 0.67353 0.28604 0.37335 0.0
O332 O 0.64337 0.33417 0.41696 0.0
O333 O 0.61135 0.30461 0.41489 0.0
O334 O 0.65315 0.34558 0.3406 0.0
O335 O 0.62344 0.32513 0.3631 0.0
H336 H 0.21018 0.31794 0.20831 0.0
H337 H 0.09941 0.21572 0.23469 0.0
H338 H 0.16176 0.28864 0.14598 0.0
H339 H 0.12644 0.26844 0.29462 0.0
H340 H 0.12381 0.24009 0.20181 0.0
H341 H 0.18208 0.297 0.24058 0.0
C342 C 0.19369 0.30705 0.20141 0.0
C343 C 0.18829 0.30501 0.17443 0.0
C344 C 0.12417 0.24645 0.22213 0.0
C345 C 0.15619 0.28108 0.21117 0.0
C346 C 0.11024 0.23259 0.24088 0.0
C347 C 0.11114 0.23992 0.26745 0.0
C348 C 0.13937 0.26751 0.2301 0.0
C349 C 0.1254 0.26198 0.27438 0.0
C350 C 0.17758 0.2953 0.21983 0.0
C351 C 0.16658 0.2908 0.1666 0.0
N352 N 0.13928 0.27481 0.25586 0.0
N353 N 0.15141 0.27921 0.18489 0.0
H354 H 0.40422 0.77917 0.72774 0.0
H355 H 0.29817 0.67075 0.71374 0.0
H356 H 0.38664 0.72499 0.79005 0.0
H357 H 0.33694 0.70265 0.64586 0.0
H358 H 0.3296 0.69191 0.74219 0.0
H359 H 0.37986 0.75209 0.69704 0.0
C360 C 0.39561 0.76137 0.73487 0.0
C361 C 0.39705 0.75453 0.76157 0.0
C362 C 0.33136 0.69409 0.72105 0.0
C363 C 0.36889 0.72385 0.72677 0.0
C364 C 0.3133 0.6822 0.70481 0.0
C365 C 0.31487 0.68506 0.6774 0.0
C366 C 0.35087 0.70931 0.70984 0.0
C367 C 0.33504 0.69994 0.66691 0.0
C368 C 0.38168 0.74597 0.71736 0.0
C369 C 0.38567 0.7312 0.76972 0.0
N370 N 0.35213 0.71177 0.68318 0.0
N371 N 0.37167 0.71692 0.75248 0.0
H372 H 0.6017 0.27184 0.76009 0.0
H373 H 0.71455 0.17318 0.79145 0.0
H374 H 0.63602 0.22303 0.70066 0.0
H375 H 0.66119 0.1991 0.85106 0.0
H376 H 0.68788 0.19386 0.75789 0.0
H377 H 0.62478 0.24742 0.79397 0.0
C378 C 0.61393 0.25585 0.7542 0.0
C379 C 0.61713 0.24954 0.72754 0.0
C380 C 0.68195 0.19486 0.7783 0.0
C381 C 0.64376 0.22185 0.76606 0.0
C382 C 0.69722 0.18322 0.79749 0.0
C383 C 0.69009 0.18446 0.8241 0.0
C384 C 0.65959 0.20818 0.78581 0.0
C385 C 0.66736 0.1976 0.83076 0.0
C386 C 0.62705 0.24193 0.77352 0.0
C387 C 0.63312 0.22861 0.72097 0.0
N388 N 0.653 0.20915 0.81174 0.0
N389 N 0.6461 0.21568 0.7401 0.0
H390 H 0.86176 0.76423 0.19574 0.0
H391 H 0.84042 0.79872 0.34726 0.0
H392 H 0.89731 0.72224 0.25967 0.0
H393 H 0.78557 0.81917 0.28682 0.0
H394 H 0.8666 0.77703 0.31415 0.0
H395 H 0.83892 0.7911 0.22794 0.0
C396 C 0.86497 0.76084 0.21652 0.0
C397 C 0.88122 0.74084 0.22512 0.0
C398 C 0.84887 0.78633 0.30814 0.0
C399 C 0.85541 0.77147 0.26182 0.0
C400 C 0.83392 0.79879 0.327 0.0
C401 C 0.81067 0.81068 0.31982 0.0
C402 C 0.84069 0.78593 0.28185 0.0
C403 C 0.80326 0.81008 0.29325 0.0
C404 C 0.85185 0.77608 0.23483 0.0
C405 C 0.88477 0.73733 0.25224 0.0
N406 N 0.81826 0.79788 0.27517 0.0
N407 N 0.87192 0.75248 0.26965 0.0
H408 H 0.26072 0.13961 0.19285 0.0
H409 H 0.17185 0.14672 0.31715 0.0
H410 H 0.28802 0.10552 0.26521 0.0
H411 H 0.18484 0.21386 0.2681 0.0
H412 H 0.20857 0.12504 0.29558 0.0
H413 H 0.22627 0.16107 0.21731 0.0
C414 C 0.25932 0.13658 0.21392 0.0
C415 C 0.27705 0.12081 0.22715 0.0
C416 C 0.20332 0.14456 0.28979 0.0
C417 C 0.23757 0.14479 0.25498 0.0
C418 C 0.18239 0.1568 0.30185 0.0
C419 C 0.17546 0.18205 0.29434 0.0
C420 C 0.21666 0.15748 0.26966 0.0
C421 C 0.18971 0.19443 0.27454 0.0
C422 C 0.2398 0.14887 0.22781 0.0
C423 C 0.27465 0.11766 0.25446 0.0
N424 N 0.20945 0.18189 0.26265 0.0
N425 N 0.25494 0.12933 0.26757 0.0
H426 H 0.33213 0.84645 0.80426 0.0
H427 H 0.22648 0.83844 0.69427 0.0
H428 H 0.31341 0.77405 0.76611 0.0
H429 H 0.21625 0.88986 0.76036 0.0
H430 H 0.26154 0.81682 0.71767 0.0
H431 H 0.29293 0.86569 0.78552 0.0
C432 C 0.31981 0.83467 0.79191 0.0
C433 C 0.32597 0.80869 0.78662 0.0
C434 C 0.25149 0.83267 0.72717 0.0
C435 C 0.28157 0.83047 0.76522 0.0
C436 C 0.23161 0.84501 0.71384 0.0
C437 C 0.21873 0.86589 0.72551 0.0
C438 C 0.25898 0.8418 0.75201 0.0
C439 C 0.22582 0.8737 0.75089 0.0
C440 C 0.29742 0.84555 0.78149 0.0
C441 C 0.30929 0.79415 0.77072 0.0
N442 N 0.2459 0.86189 0.76324 0.0
N443 N 0.28799 0.80533 0.76032 0.0
H444 H 0.74927 0.3999 0.77625 0.0
H445 H 0.70969 0.28758 0.67843 0.0
H446 H 0.80483 0.3564 0.73119 0.0
H447 H 0.65592 0.34537 0.70597 0.0
H448 H 0.7449 0.31322 0.69647 0.0
H449 H 0.7149 0.38123 0.74962 0.0
C450 C 0.75424 0.38659 0.76055 0.0
C451 C 0.77987 0.37943 0.75607 0.0
C452 C 0.72544 0.32045 0.69829 0.0
C453 C 0.74065 0.35779 0.72573 0.0
C454 C 0.70529 0.30577 0.68812 0.0
C455 C 0.67977 0.31421 0.69097 0.0
C456 C 0.72005 0.34357 0.71177 0.0
C457 C 0.67527 0.33807 0.70343 0.0
C458 C 0.73462 0.376 0.74531 0.0
C459 C 0.78529 0.36231 0.73537 0.0
N460 N 0.69521 0.35177 0.71369 0.0
N461 N 0.76577 0.35175 0.72118 0.0
H462 H 0.78926 0.70086 0.17839 0.0
H463 H 0.74691 0.59586 0.28343 0.0
H464 H 0.8415 0.6436 0.20998 0.0
H465 H 0.6923 0.63741 0.23533 0.0
H466 H 0.78174 0.6125 0.25606 0.0
H467 H 0.75339 0.67748 0.19822 0.0
C468 C 0.79319 0.68325 0.18934 0.0
C469 C 0.81848 0.67432 0.19278 0.0
C470 C 0.76214 0.61777 0.25128 0.0
C471 C 0.77745 0.64757 0.21564 0.0
C472 C 0.74226 0.60836 0.26696 0.0
C473 C 0.71676 0.61551 0.26175 0.0
C474 C 0.75651 0.6348 0.2305 0.0
C475 C 0.71174 0.63154 0.24005 0.0
C476 C 0.77266 0.66986 0.20055 0.0
C477 C 0.82234 0.65124 0.20691 0.0
N478 N 0.73151 0.64097 0.22539 0.0
N479 N 0.80206 0.63884 0.21812 0.0
H480 H 0.31019 0.16069 0.13295 0.0
H481 H 0.27911 0.31269 0.13298 0.0
H482 H 0.32737 0.21141 0.19833 0.0
H483 H 0.2435 0.25718 0.08092 0.0
H484 H 0.30557 0.27773 0.15143 0.0
H485 H 0.29441 0.19802 0.10819 0.0
C486 C 0.31092 0.17969 0.14203 0.0
C487 C 0.31979 0.18282 0.16794 0.0
C488 C 0.29217 0.27333 0.13574 0.0
C489 C 0.30173 0.22563 0.13962 0.0
C490 C 0.27716 0.29326 0.12515 0.0
C491 C 0.25883 0.28769 0.10571 0.0
C492 C 0.28896 0.24783 0.12655 0.0
C493 C 0.25716 0.26222 0.09616 0.0
C494 C 0.30186 0.20099 0.12787 0.0
C495 C 0.32039 0.208 0.17855 0.0
N496 N 0.2719 0.24319 0.1068 0.0
N497 N 0.31129 0.22842 0.16441 0.0
H498 H 0.82443 0.28041 0.79425 0.0
H499 H 0.73717 0.23744 0.91471 0.0
H500 H 0.79921 0.33362 0.85465 0.0
H501 H 0.77872 0.18267 0.86658 0.0
H502 H 0.7606 0.27286 0.89371 0.0
H503 H 0.80824 0.24432 0.82058 0.0
C504 C 0.81555 0.28454 0.81307 0.0
C505 C 0.813 0.31017 0.82213 0.0
C506 C 0.76484 0.25309 0.88793 0.0
C507 C 0.79441 0.26883 0.85238 0.0
C508 C 0.75147 0.23285 0.89992 0.0
C509 C 0.7558 0.20711 0.89214 0.0
C510 C 0.78241 0.24758 0.86773 0.0
C511 C 0.77466 0.20225 0.87304 0.0
C512 C 0.80644 0.26387 0.82817 0.0
C513 C 0.80153 0.31423 0.84681 0.0
N514 N 0.78703 0.22235 0.86118 0.0
N515 N 0.79245 0.2938 0.86095 0.0
H516 H 0.72022 0.8137 0.36613 0.0
H517 H 0.69522 0.66067 0.35919 0.0
H518 H 0.76413 0.75741 0.41018 0.0
H519 H 0.67126 0.71437 0.29865 0.0
H520 H 0.71321 0.69701 0.38408 0.0
H521 H 0.69465 0.77835 0.34743 0.0
C522 C 0.72427 0.79396 0.37213 0.0
C523 C 0.74454 0.78842 0.38946 0.0
C524 C 0.70383 0.70081 0.36543 0.0
C525 C 0.71536 0.74802 0.36827 0.0
C526 C 0.69349 0.68011 0.35125 0.0
C527 C 0.68194 0.68444 0.32666 0.0
C528 C 0.70238 0.72604 0.35509 0.0
C529 C 0.68025 0.71007 0.31737 0.0
C530 C 0.70974 0.77381 0.36138 0.0
C531 C 0.74885 0.76249 0.39666 0.0
N532 N 0.69044 0.72989 0.33156 0.0
N533 N 0.73447 0.74322 0.38593 0.0
H534 H 0.17074 0.82702 0.63611 0.0
H535 H 0.21738 0.67974 0.64959 0.0
H536 H 0.1659 0.78379 0.70887 0.0
H537 H 0.24333 0.73297 0.58961 0.0
H538 H 0.18911 0.71385 0.66705 0.0
H539 H 0.18724 0.78836 0.61426 0.0
C540 C 0.17273 0.80932 0.64745 0.0
C541 C 0.16733 0.80884 0.67452 0.0
C542 C 0.2008 0.71788 0.64989 0.0
C543 C 0.18639 0.76452 0.64955 0.0
C544 C 0.21685 0.69846 0.6399 0.0
C545 C 0.23289 0.70372 0.61834 0.0
C546 C 0.2006 0.74247 0.63792 0.0
C547 C 0.23149 0.72824 0.60648 0.0
C548 C 0.18226 0.78727 0.63494 0.0
C549 C 0.17012 0.78518 0.68805 0.0
N550 N 0.21571 0.74673 0.61647 0.0
N551 N 0.17975 0.76402 0.67548 0.0
H552 H 0.90771 0.70984 0.83923 0.0
H553 H 0.88343 0.75281 0.68991 0.0
H554 H 0.85036 0.67368 0.79001 0.0
H555 H 0.92599 0.79775 0.74679 0.0
H556 H 0.87589 0.7196 0.72374 0.0
H557 H 0.91949 0.73811 0.80279 0.0
C558 C 0.89764 0.70779 0.82069 0.0
C559 C 0.87787 0.68957 0.81769 0.0
C560 C 0.88701 0.73667 0.72868 0.0
C561 C 0.89127 0.72193 0.77581 0.0
C562 C 0.8914 0.75554 0.7094 0.0
C563 C 0.90519 0.7781 0.71568 0.0
C564 C 0.89675 0.74039 0.7542 0.0
C565 C 0.91509 0.78073 0.74119 0.0
C566 C 0.90437 0.72396 0.79987 0.0
C567 C 0.86563 0.68761 0.79315 0.0
N568 N 0.91063 0.76214 0.75951 0.0
N569 N 0.87245 0.70373 0.7731 0.0
H570 H 0.57083 0.20976 0.24658 0.0
H571 H 0.65525 0.33007 0.2912 0.0
H572 H 0.62203 0.24914 0.19299 0.0
H573 H 0.59096 0.3 0.33541 0.0
H574 H 0.64262 0.30264 0.25387 0.0
H575 H 0.57706 0.24437 0.27846 0.0
C576 C 0.58327 0.22586 0.24147 0.0
C577 C 0.59612 0.22653 0.21727 0.0
C578 C 0.63111 0.30237 0.27164 0.0
C579 C 0.60363 0.26617 0.25381 0.0
C580 C 0.6383 0.31799 0.29291 0.0
C581 C 0.62432 0.31698 0.3165 0.0
C582 C 0.60993 0.28564 0.27421 0.0
C583 C 0.6025 0.30109 0.3177 0.0
C584 C 0.58678 0.24568 0.25965 0.0
C585 C 0.61184 0.24792 0.21152 0.0
N586 N 0.59615 0.28587 0.29698 0.0
N587 N 0.61547 0.2668 0.22987 0.0
H588 H 0.37222 0.75837 0.30369 0.0
H589 H 0.39728 0.78607 0.15075 0.0
H590 H 0.42184 0.71244 0.25404 0.0
H591 H 0.34034 0.82717 0.19638 0.0
H592 H 0.40987 0.76223 0.1901 0.0
H593 H 0.36384 0.78734 0.26631 0.0
C594 C 0.38154 0.75456 0.28503 0.0
C595 C 0.39754 0.73288 0.28183 0.0
C596 C 0.39467 0.77651 0.19159 0.0
C597 C 0.38806 0.76571 0.23919 0.0
C598 C 0.38746 0.79012 0.1691 0.0
C599 C 0.36762 0.80847 0.17031 0.0
C600 C 0.38193 0.78124 0.21549 0.0
C601 C 0.35565 0.81305 0.19462 0.0
C602 C 0.37669 0.77101 0.26371 0.0
C603 C 0.40919 0.72881 0.25729 0.0
N604 N 0.36293 0.79942 0.2163 0.0
N605 N 0.40412 0.74499 0.2369 0.0
H606 H 0.16038 0.15927 0.70231 0.0
H607 H 0.07172 0.27453 0.75209 0.0
H608 H 0.09388 0.1876 0.66037 0.0
H609 H 0.1261 0.23645 0.8033 0.0
H610 H 0.07874 0.24103 0.71918 0.0
H611 H 0.14748 0.18527 0.74059 0.0
C612 C 0.14291 0.17068 0.70129 0.0
C613 C 0.12834 0.17161 0.67805 0.0
C614 C 0.089 0.23975 0.73768 0.0
C615 C 0.11364 0.20132 0.72147 0.0
C616 C 0.08503 0.25894 0.75646 0.0
C617 C 0.09852 0.25833 0.78029 0.0
C618 C 0.10695 0.21997 0.74254 0.0
C619 C 0.11537 0.23759 0.78508 0.0
C620 C 0.13557 0.18548 0.7231 0.0
C621 C 0.10587 0.18659 0.67776 0.0
N622 N 0.11943 0.21935 0.76615 0.0
N623 N 0.09936 0.20103 0.69902 0.0
H624 H 0.70717 0.8425 0.78052 0.0
H625 H 0.84796 0.86514 0.72181 0.0
H626 H 0.76961 0.8768 0.82429 0.0
H627 H 0.79767 0.80431 0.69414 0.0
H628 H 0.815 0.87814 0.75346 0.0
H629 H 0.73632 0.83655 0.74292 0.0
C630 C 0.7269 0.84904 0.7821 0.0
C631 C 0.73611 0.85992 0.8056 0.0
C632 C 0.81114 0.86211 0.74025 0.0
C633 C 0.76922 0.8535 0.76281 0.0
C634 C 0.82986 0.85475 0.7221 0.0
C635 C 0.8257 0.83339 0.70552 0.0
C636 C 0.78798 0.84822 0.74165 0.0
C637 C 0.80183 0.82068 0.70679 0.0
C638 C 0.74348 0.84557 0.76073 0.0
C639 C 0.76183 0.86802 0.80665 0.0
N640 N 0.78388 0.82822 0.72467 0.0
N641 N 0.77749 0.86465 0.78557 0.0
H642 H 0.70571 0.19349 0.19748 0.0
H643 H 0.72923 0.12388 0.33361 0.0
H644 H 0.65161 0.13889 0.23045 0.0
H645 H 0.79235 0.15096 0.28581 0.0
H646 H 0.70018 0.13045 0.29647 0.0
H647 H 0.73768 0.17933 0.22977 0.0
C648 C 0.70062 0.17836 0.21135 0.0
C649 C 0.67586 0.1675 0.21141 0.0
C650 C 0.72043 0.13469 0.29398 0.0
C651 C 0.71225 0.15148 0.24852 0.0
C652 C 0.73699 0.13109 0.31521 0.0
C653 C 0.7632 0.13704 0.3128 0.0
C654 C 0.73 0.14485 0.2703 0.0
C655 C 0.77227 0.1461 0.28845 0.0
C656 C 0.71892 0.17023 0.22969 0.0
C657 C 0.67042 0.14782 0.2297 0.0
N658 N 0.7556 0.1501 0.2682 0.0
N659 N 0.68835 0.14072 0.24777 0.0
H660 H 0.2901 0.68993 0.30538 0.0
H661 H 0.27027 0.62444 0.16636 0.0
H662 H 0.35059 0.64698 0.267 0.0
H663 H 0.207 0.64353 0.21789 0.0
H664 H 0.30015 0.63253 0.20255 0.0
H665 H 0.25935 0.67284 0.27357 0.0
C666 C 0.29683 0.67663 0.29037 0.0
C667 C 0.32291 0.66996 0.28865 0.0
C668 C 0.27971 0.63466 0.20599 0.0
C669 C 0.28791 0.65066 0.2519 0.0
C670 C 0.26263 0.63021 0.18531 0.0
C671 C 0.23607 0.63354 0.18901 0.0
C672 C 0.27022 0.64289 0.23046 0.0
C673 C 0.2273 0.6408 0.21408 0.0
C674 C 0.27926 0.66683 0.27226 0.0
C675 C 0.33061 0.65253 0.26898 0.0
N676 N 0.24436 0.64552 0.23375 0.0
N677 N 0.31322 0.64378 0.25103 0.0
H678 H 0.2941 0.34148 0.71401 0.0
H679 H 0.1511 0.35046 0.77104 0.0
H680 H 0.23018 0.37392 0.67091 0.0
H681 H 0.20656 0.29407 0.79816 0.0
H682 H 0.18296 0.36706 0.73993 0.0
H683 H 0.26492 0.33171 0.75065 0.0
C684 C 0.27403 0.34685 0.71239 0.0
C685 C 0.26448 0.35832 0.68931 0.0
C686 C 0.18817 0.35119 0.75286 0.0
C687 C 0.23121 0.34737 0.73104 0.0
C688 C 0.17005 0.34176 0.77069 0.0
C689 C 0.17608 0.32065 0.78704 0.0
C690 C 0.21257 0.33963 0.75156 0.0
C691 C 0.20098 0.31017 0.7857 0.0
C692 C 0.25741 0.34116 0.73322 0.0
C693 C 0.23829 0.36479 0.68822 0.0
N694 N 0.21831 0.31972 0.76818 0.0
N695 N 0.22257 0.3592 0.70877 0.0
H696 H 0.82076 0.75794 0.90173 0.0
H697 H 0.68327 0.78041 0.84066 0.0
H698 H 0.78149 0.69589 0.86132 0.0
H699 H 0.71229 0.82386 0.90691 0.0
H700 H 0.71828 0.74894 0.84662 0.0
H701 H 0.78105 0.78293 0.90196 0.0
C702 C 0.80372 0.74956 0.8929 0.0
C703 C 0.80445 0.72489 0.88133 0.0
C704 C 0.71665 0.76515 0.86008 0.0
C705 C 0.75882 0.75351 0.88141 0.0
C706 C 0.69669 0.78307 0.85673 0.0
C707 C 0.69512 0.80497 0.87309 0.0
C708 C 0.7352 0.76946 0.87969 0.0
C709 C 0.71298 0.80748 0.8936 0.0
C710 C 0.78099 0.76376 0.89321 0.0
C711 C 0.78169 0.71487 0.87045 0.0
N712 N 0.73248 0.79018 0.89606 0.0
N713 N 0.7598 0.72939 0.87042 0.0
H714 H 0.2045 0.66483 0.08865 0.0
H715 H 0.27147 0.79918 0.12709 0.0
H716 H 0.17788 0.71181 0.1535 0.0
H717 H 0.30962 0.73568 0.08782 0.0
H718 H 0.23185 0.77308 0.12876 0.0
H719 H 0.23741 0.69722 0.07925 0.0
C720 C 0.20533 0.68215 0.10069 0.0
C721 C 0.18877 0.68542 0.12219 0.0
C722 C 0.2489 0.76507 0.11959 0.0
C723 C 0.22642 0.72251 0.11156 0.0
C724 C 0.27141 0.7799 0.11858 0.0
C725 C 0.29387 0.7694 0.10758 0.0
C726 C 0.24886 0.7399 0.10901 0.0
C727 C 0.29283 0.74437 0.09683 0.0
C728 C 0.22417 0.70058 0.09536 0.0
C729 C 0.1905 0.70842 0.1369 0.0
N730 N 0.27072 0.73049 0.09781 0.0
N731 N 0.20925 0.72604 0.13149 0.0
H732 H 0.28183 0.32947 0.59262 0.0
H733 H 0.22305 0.19209 0.63225 0.0
H734 H 0.31903 0.27936 0.64914 0.0
H735 H 0.17691 0.25751 0.60795 0.0
H736 H 0.26128 0.21999 0.63134 0.0
H737 H 0.24635 0.29861 0.58972 0.0
C738 C 0.28273 0.31183 0.60417 0.0
C739 C 0.30322 0.30718 0.62148 0.0
C740 C 0.24275 0.22814 0.62622 0.0
C741 C 0.26276 0.27178 0.6181 0.0
C742 C 0.22097 0.21229 0.62671 0.0
C743 C 0.19675 0.22255 0.62028 0.0
C744 C 0.24032 0.25422 0.61869 0.0
C745 C 0.19514 0.24885 0.61328 0.0
C746 C 0.2624 0.29431 0.60259 0.0
C747 C 0.30348 0.2838 0.63571 0.0
N748 N 0.21665 0.26373 0.61251 0.0
N749 N 0.28343 0.26697 0.63381 0.0
H750 H 0.72104 0.3015 0.35578 0.0
H751 H 0.79095 0.17546 0.4102 0.0
H752 H 0.68084 0.23638 0.38988 0.0
H753 H 0.8187 0.21297 0.33968 0.0
H754 H 0.75508 0.20591 0.41149 0.0
H755 H 0.76111 0.27603 0.35686 0.0
C756 C 0.72066 0.28189 0.36348 0.0
C757 C 0.69762 0.27093 0.37266 0.0
C758 C 0.76922 0.20763 0.39592 0.0
C759 C 0.74316 0.24231 0.37461 0.0
C760 C 0.78976 0.19038 0.39522 0.0
C761 C 0.80756 0.19138 0.37451 0.0
C762 C 0.76663 0.22631 0.37604 0.0
C763 C 0.80526 0.21142 0.35588 0.0
C764 C 0.74344 0.26746 0.36406 0.0
C765 C 0.69812 0.24548 0.3824 0.0
N766 N 0.78495 0.22806 0.35694 0.0
N767 N 0.72058 0.23212 0.38334 0.0
H768 H 0.08216 0.17506 0.53842 0.0
H769 H 0.15279 0.21656 0.4097 0.0
H770 H 0.16384 0.16349 0.52929 0.0
H771 H 0.07801 0.18068 0.40424 0.0
H772 H 0.15571 0.20253 0.45556 0.0
H773 H 0.07845 0.18125 0.49066 0.0
C774 C 0.09922 0.17346 0.5263 0.0
C775 C 0.12336 0.16886 0.53772 0.0
C776 C 0.13873 0.19766 0.44426 0.0
C777 C 0.11931 0.17653 0.48359 0.0
C778 C 0.13691 0.20587 0.41824 0.0
C779 C 0.11504 0.19988 0.40329 0.0
C780 C 0.1183 0.18391 0.4556 0.0
C781 C 0.09517 0.18568 0.41519 0.0
C782 C 0.09707 0.17693 0.49915 0.0
C783 C 0.14488 0.16691 0.52122 0.0
N784 N 0.0971 0.17842 0.44087 0.0
N785 N 0.14243 0.17127 0.49498 0.0
H786 H 0.33414 0.83122 0.0219 0.0
H787 H 0.42384 0.8178 0.8961 0.0
H788 H 0.41463 0.81258 0.03008 0.0
H789 H 0.34836 0.78334 0.90022 0.0
H790 H 0.42005 0.8301 0.94282 0.0
H791 H 0.33878 0.82868 0.97391 0.0
C792 C 0.35289 0.82721 0.01356 0.0
C793 C 0.37401 0.82185 0.02983 0.0
C794 C 0.40434 0.82003 0.93328 0.0
C795 C 0.37939 0.81927 0.97539 0.0
C796 C 0.40645 0.81304 0.9068 0.0
C797 C 0.38649 0.79928 0.8946 0.0
C798 C 0.38181 0.81389 0.94711 0.0
C799 C 0.3643 0.7936 0.90913 0.0
C800 C 0.35546 0.82563 0.98631 0.0
C801 C 0.39786 0.81656 0.01811 0.0
N802 N 0.36248 0.80106 0.93466 0.0
N803 N 0.39994 0.81534 0.99148 0.0
H804 H 0.58156 0.31398 0.45626 0.0
H805 H 0.6546 0.27258 0.58364 0.0
H806 H 0.66311 0.32686 0.46445 0.0
H807 H 0.57903 0.30658 0.59039 0.0
H808 H 0.65664 0.28707 0.53791 0.0
H809 H 0.57852 0.30728 0.504 0.0
C810 C 0.59872 0.31579 0.4682 0.0
C811 C 0.62264 0.32089 0.45651 0.0
C812 C 0.63966 0.29142 0.54945 0.0
C813 C 0.61937 0.3126 0.51061 0.0
C814 C 0.63834 0.28291 0.57541 0.0
C815 C 0.61652 0.28825 0.59071 0.0
C816 C 0.61881 0.30483 0.53851 0.0
C817 C 0.59616 0.30205 0.57918 0.0
C818 C 0.59695 0.31202 0.49533 0.0
C819 C 0.64431 0.32307 0.47275 0.0
N820 N 0.59764 0.30963 0.55355 0.0
N821 N 0.64226 0.31839 0.49898 0.0
H822 H 0.92639 0.67964 0.0928 0.0
H823 H 0.84441 0.65321 0.96298 0.0
H824 H 0.84622 0.69953 0.08471 0.0
H825 H 0.92255 0.68111 0.95877 0.0
H826 H 0.84699 0.65461 0.01109 0.0
H827 H 0.92681 0.66581 0.04628 0.0
C828 C 0.9089 0.68085 0.08128 0.0
C829 C 0.88634 0.69108 0.09226 0.0
C830 C 0.86369 0.65992 -0.00046 0.0
C831 C 0.88649 0.67464 0.04003 0.0
C832 C 0.86231 0.659 0.97216 0.0
C833 C 0.88319 0.66746 0.95694 0.0
C834 C 0.88621 0.66889 0.01167 0.0
C835 C 0.90591 0.67482 0.96986 0.0
C836 C 0.90915 0.67298 0.05494 0.0
C837 C 0.8641 0.69217 0.07674 0.0
N838 N 0.90679 0.67556 0.99658 0.0
N839 N 0.8647 0.68398 0.0514 0.0
H840 H 0.40669 0.09962 0.1555 0.0
H841 H 0.55136 0.1079 0.20667 0.0
H842 H 0.42582 0.10852 0.23775 0.0
H843 H 0.52517 0.14384 0.13482 0.0
H844 H 0.50748 0.09197 0.21461 0.0
H845 H 0.45249 0.09978 0.14482 0.0
C846 C 0.42049 0.10112 0.1714 0.0
C847 C 0.41238 0.10451 0.19756 0.0
C848 C 0.5116 0.10277 0.1968 0.0
C849 C 0.46473 0.10429 0.18536 0.0
C850 C 0.53657 0.11163 0.19213 0.0
C851 C 0.54169 0.12724 0.17011 0.0
C852 C 0.49196 0.10913 0.17899 0.0
C853 C 0.52186 0.13193 0.15207 0.0
C854 C 0.44659 0.10124 0.16522 0.0
C855 C 0.43121 0.10628 0.21729 0.0
N856 N 0.49778 0.123 0.15695 0.0
N857 N 0.45657 0.10631 0.21077 0.0
H858 H 0.97606 0.86154 0.63066 0.0
H859 H 0.09332 0.91435 0.65962 0.0
H860 H 0.9486 0.89603 0.70265 0.0
H861 H 0.07007 0.89114 0.73785 0.0
H862 H 0.0482 0.91581 0.64656 0.0
H863 H 0.01858 0.87993 0.63909 0.0
C864 C 0.97886 0.87372 0.64781 0.0
C865 C 0.95893 0.87746 0.66592 0.0
C866 C 0.05305 0.91076 0.66667 0.0
C867 C 0.00748 0.89796 0.67607 0.0
C868 C 0.07879 0.91002 0.67425 0.0
C869 C 0.08561 0.90183 0.69973 0.0
C870 C 0.034 0.90343 0.6847 0.0
C871 C 0.06578 0.89696 0.71785 0.0
C872 C 0.00306 0.88428 0.65259 0.0
C873 C 0.96351 0.89301 0.68809 0.0
N874 N 0.04083 0.8975 0.70988 0.0
N875 N 0.9876 0.90209 0.693 0.0
H876 H 0.05337 0.38092 0.7983 0.0
H877 H 0.92677 0.3799 0.75602 0.0
H878 H 0.02171 0.33182 0.859 0.0
H879 H 0.90682 0.37932 0.83852 0.0
H880 H 0.9723 0.37855 0.76815 0.0
H881 H 0.00999 0.39711 0.78877 0.0
C882 C 0.03739 0.37407 0.81008 0.0
C883 C 0.04096 0.35478 0.82923 0.0
C884 C 0.95795 0.37938 0.78357 0.0
C885 C 0.99162 0.37283 0.81823 0.0
C886 C 0.93199 0.37984 0.77667 0.0
C887 C 0.91302 0.37957 0.79629 0.0
C888 C 0.9649 0.37814 0.81027 0.0
C889 C 0.92083 0.37957 0.82277 0.0
C890 C 0.01268 0.38306 0.8044 0.0
C891 C 0.01965 0.34647 0.84386 0.0
N892 N 0.94619 0.37827 0.82898 0.0
N893 N 0.9958 0.35546 0.83795 0.0
H894 H 0.4759 0.67936 0.3612 0.0
H895 H 0.58392 0.58379 0.32666 0.0
H896 H 0.44598 0.60988 0.32489 0.0
H897 H 0.57356 0.65341 0.28045 0.0
H898 H 0.53939 0.58839 0.34289 0.0
H899 H 0.51945 0.66473 0.3511 0.0
C900 C 0.47846 0.66066 0.35182 0.0
C901 C 0.45723 0.646 0.34348 0.0
C902 C 0.547 0.60234 0.32896 0.0
C903 C 0.50696 0.62927 0.33225 0.0
C904 C 0.57226 0.59982 0.31974 0.0
C905 C 0.58244 0.61827 0.30216 0.0
C906 C 0.53236 0.62376 0.32102 0.0
C907 C 0.56652 0.63866 0.29382 0.0
C908 C 0.50329 0.65244 0.34605 0.0
C909 C 0.46182 0.62184 0.3315 0.0
N910 N 0.54242 0.6411 0.30367 0.0
N911 N 0.48632 0.61433 0.32579 0.0
H912 H 0.18439 0.41405 0.08337 0.0
H913 H 0.1702 0.54363 0.16771 0.0
H914 H 0.21867 0.42344 0.16019 0.0
H915 H 0.17702 0.54427 0.08302 0.0
H916 H 0.17511 0.49628 0.16721 0.0
H917 H 0.16943 0.45914 0.08528 0.0
C918 C 0.18858 0.42553 0.10071 0.0
C919 C 0.20304 0.41518 0.12154 0.0
C920 C 0.17509 0.50684 0.14877 0.0
C921 C 0.18558 0.46626 0.12399 0.0
C922 C 0.1721 0.53374 0.14899 0.0
C923 C 0.17346 0.54779 0.12537 0.0
C924 C 0.17893 0.49402 0.12473 0.0
C925 C 0.17614 0.5341 0.10166 0.0
C926 C 0.18006 0.45116 0.10174 0.0
C927 C 0.2079 0.43084 0.14356 0.0
N928 N 0.17888 0.50791 0.10193 0.0
N929 N 0.19914 0.45566 0.14424 0.0
H930 H 0.68498 0.94466 0.91958 0.0
H931 H 0.72524 0.06795 0.84012 0.0
H932 H 0.67497 0.94792 0.83531 0.0
H933 H 0.691 0.07557 0.91715 0.0
H934 H 0.71091 0.02267 0.83869 0.0
H935 H 0.69021 0.99192 0.92026 0.0
C936 C 0.68346 0.95542 0.90131 0.0
C937 C 0.67959 0.94249 0.87735 0.0
C938 C 0.7064 0.03437 0.85578 0.0
C939 C 0.68628 0.99612 0.87792 0.0
C940 C 0.71476 0.06006 0.85673 0.0
C941 C 0.70941 0.07539 0.87886 0.0
C942 C 0.69319 0.02385 0.87738 0.0
C943 C 0.69551 0.06435 0.89973 0.0
C944 C 0.68642 0.98229 0.90171 0.0
C945 C 0.67779 0.95723 0.8542 0.0
N946 N 0.68817 0.03908 0.89866 0.0
N947 N 0.68168 0.98329 0.85497 0.0
H948 H 0.84806 0.04589 0.36068 0.0
H949 H 0.74764 0.9335 0.3804 0.0
H950 H 0.78077 0.05414 0.40994 0.0
H951 H 0.82854 0.91486 0.37913 0.0
H952 H 0.75861 0.97955 0.38287 0.0
H953 H 0.84101 -0.00137 0.36024 0.0
C954 C 0.83207 0.03783 0.37162 0.0
C955 C 0.81492 0.05408 0.38524 0.0
C956 C 0.77393 0.96533 0.38205 0.0
C957 C 0.80655 0.00058 0.3842 0.0
C958 C 0.7677 0.93913 0.38048 0.0
C959 C 0.78722 0.92042 0.37968 0.0
C960 C 0.79983 0.9729 0.38225 0.0
C961 C 0.81294 0.92875 0.37994 0.0
C962 C 0.82809 0.01096 0.37133 0.0
C963 C 0.79451 0.04254 0.39909 0.0
N964 N 0.81857 0.95451 0.381 0.0
N965 N 0.79069 0.01659 0.39787 0.0
H966 H 0.33119 0.44722 0.66412 0.0
H967 H 0.30576 0.57855 0.58508 0.0
H968 H 0.31628 0.44888 0.58055 0.0
H969 H 0.28194 0.56705 0.66568 0.0
H970 H 0.3216 0.53378 0.58401 0.0
H971 H 0.32593 0.4945 0.66546 0.0
C972 C 0.32748 0.4576 0.64596 0.0
C973 C 0.3239 0.44419 0.62222 0.0
C974 C 0.31306 0.5412 0.60194 0.0
C975 C 0.31791 0.49791 0.62367 0.0
C976 C 0.30402 0.56666 0.60259 0.0
C977 C 0.29224 0.57636 0.62542 0.0
C978 C 0.31074 0.52557 0.62442 0.0
C979 C 0.29055 0.56018 0.64758 0.0
C980 C 0.32426 0.48447 0.6468 0.0
C981 C 0.31891 0.45853 0.59929 0.0
N982 N 0.29973 0.53553 0.64654 0.0
N983 N 0.31593 0.48466 0.60059 0.0
H984 H 0.86402 0.82753 0.44683 0.0
H985 H 0.86408 0.86887 0.59811 0.0
H986 H 0.80117 0.86969 0.48215 0.0
H987 H 0.89414 0.79586 0.57022 0.0
H988 H 0.85157 0.87983 0.55272 0.0
H989 H 0.88573 0.82666 0.48959 0.0
C990 C 0.85501 0.83701 0.46347 0.0
C991 C 0.83062 0.84839 0.46113 0.0
C992 C 0.86133 0.86166 0.55661 0.0
C993 C 0.85546 0.84775 0.50972 0.0
C994 C 0.86858 0.85547 0.58234 0.0
C995 C 0.87986 0.83134 0.58777 0.0
C996 C 0.86604 0.84381 0.53632 0.0
C997 C 0.88519 0.81454 0.56678 0.0
C998 C 0.86738 0.83644 0.48779 0.0
C999 C 0.81981 0.86042 0.48328 0.0
N1000 N 0.87816 0.82107 0.54192 0.0
N1001 N 0.83228 0.85969 0.50679 0.0
H1002 H 0.70264 0.12611 0.98707 0.0
H1003 H 0.60765 0.20328 0.07445 0.0
H1004 H 0.63816 0.16654 0.95273 0.0
H1005 H 0.64021 0.13172 0.10325 0.0
H1006 H 0.6191 0.1906 0.02957 0.0
H1007 H 0.68112 0.12772 0.03001 0.0
C1008 C 0.68383 0.13502 0.98853 0.0
C1009 C 0.67226 0.1465 0.96647 0.0
C1010 C 0.62331 0.17744 0.04564 0.0
C1011 C 0.64787 0.14869 0.01529 0.0
C1012 C 0.61689 0.1847 0.07119 0.0
C1013 C 0.62318 0.16854 0.09241 0.0
C1014 C 0.63684 0.15425 0.04144 0.0
C1015 C 0.63505 0.14464 0.08728 0.0
C1016 C 0.67153 0.13579 0.01294 0.0
C1017 C 0.6478 0.15759 0.96931 0.0
N1018 N 0.64207 0.13842 0.06227 0.0
N1019 N 0.63662 0.15889 0.99341 0.0
H1020 H 0.39061 0.66027 0.417 0.0
H1021 H 0.27138 0.65094 0.51555 0.0
H1022 H 0.31732 0.69718 0.4034 0.0
H1023 H 0.34967 0.65124 0.54372 0.0
H1024 H 0.28736 0.65587 0.47054 0.0
H1025 H 0.375 0.6458 0.46044 0.0
C1026 C 0.37124 0.66515 0.42309 0.0
C1027 C 0.35531 0.68021 0.40685 0.0
C1028 C 0.30101 0.65455 0.48659 0.0
C1029 C 0.33733 0.66332 0.45569 0.0
C1030 C 0.29194 0.65161 0.51222 0.0
C1031 C 0.30924 0.65103 0.53336 0.0
C1032 C 0.32755 0.65658 0.48208 0.0
C1033 C 0.3357 0.65193 0.52794 0.0
C1034 C 0.36241 0.65694 0.44775 0.0
C1035 C 0.33035 0.68597 0.41552 0.0
N1036 N 0.3441 0.65481 0.50276 0.0
N1037 N 0.32211 0.67745 0.43931 0.0
H1038 H 0.13836 0.31934 0.04688 0.0
H1039 H 0.13846 0.35458 0.89421 0.0
H1040 H 0.19977 0.36368 0.0116 0.0
H1041 H 0.11464 0.28013 0.92445 0.0
H1042 H 0.1499 0.36794 0.93926 0.0
H1043 H 0.1182 0.31528 0.0036 0.0
C1044 C 0.14736 0.32865 0.03012 0.0
C1045 C 0.17095 0.34157 0.03268 0.0
C1046 C 0.14177 0.34887 0.93593 0.0
C1047 C 0.14783 0.33721 0.98343 0.0
C1048 C 0.13516 0.3413 0.91041 0.0
C1049 C 0.12587 0.31616 0.90578 0.0
C1050 C 0.13835 0.33137 0.9568 0.0
C1051 C 0.12203 0.29957 0.92728 0.0
C1052 C 0.13587 0.32624 0.00549 0.0
C1053 C 0.18174 0.35328 0.01033 0.0
N1054 N 0.12829 0.30747 0.95192 0.0
N1055 N 0.17013 0.35072 0.98649 0.0
H1056 H 0.59554 0.87645 0.79548 0.0
H1057 H 0.46204 0.84384 0.86321 0.0
H1058 H 0.58357 0.87273 0.87949 0.0
H1059 H 0.47097 0.85272 0.77941 0.0
H1060 H 0.50482 0.86239 0.86969 0.0
H1061 H 0.54886 0.8754 0.78905 0.0
C1062 C 0.58309 0.87578 0.81257 0.0
C1063 C 0.59341 0.87411 0.83803 0.0
C1064 C 0.49733 0.86084 0.84986 0.0
C1065 C 0.54018 0.87284 0.83087 0.0
C1066 C 0.4729 0.8504 0.84625 0.0
C1067 C 0.46327 0.84698 0.82082 0.0
C1068 C 0.51241 0.8672 0.82779 0.0
C1069 C 0.47794 0.85531 0.79933 0.0
C1070 C 0.55647 0.8752 0.8089 0.0
C1071 C 0.57645 0.87353 0.85948 0.0
N1072 N 0.50206 0.8647 0.80325 0.0
N1073 N 0.55071 0.87257 0.8554 0.0
H1074 H 0.90154 0.12772 0.29769 0.0
H1075 H 0.04588 0.12699 0.35107 0.0
H1076 H 0.91867 0.11268 0.37941 0.0
H1077 H 0.01638 0.1841 0.29686 0.0
H1078 H 0.00248 0.10769 0.35388 0.0
H1079 H 0.94761 0.13355 0.28927 0.0
C1080 C 0.91503 0.12497 0.3137 0.0
C1081 C 0.90635 0.12012 0.33937 0.0
C1082 C 0.00578 0.12418 0.34108 0.0
C1083 C 0.95876 0.12645 0.32979 0.0
C1084 C 0.03037 0.1351 0.33945 0.0
C1085 C 0.03439 0.15725 0.32396 0.0
C1086 C 0.98557 0.1351 0.32643 0.0
C1087 C 0.01384 0.1672 0.30928 0.0
C1088 C 0.94122 0.1284 0.3089 0.0
C1089 C 0.92463 0.11678 0.35942 0.0
N1090 N 0.99029 0.15602 0.31082 0.0
N1091 N 0.95006 0.1202 0.35426 0.0
H1092 H 0.09685 0.6357 0.20942 0.0
H1093 H 0.95213 0.62224 0.15904 0.0
H1094 H 0.07862 0.60494 0.13269 0.0
H1095 H 0.9806 0.6891 0.2009 0.0
H1096 H 0.99577 0.6035 0.16003 0.0
H1097 H 0.05076 0.64226 0.21754 0.0
C1098 C 0.08311 0.62967 0.19461 0.0
C1099 C 0.09141 0.62016 0.17021 0.0
C1100 C 0.99221 0.62207 0.16932 0.0
C1101 C 0.03911 0.62727 0.17946 0.0
C1102 C 0.96748 0.63272 0.16875 0.0
C1103 C 0.96308 0.65735 0.17953 0.0
C1104 C 0.0122 0.6359 0.18146 0.0
C1105 C 0.98343 0.67022 0.19199 0.0
C1106 C 0.05693 0.63353 0.1992 0.0
C1107 C 0.0729 0.6127 0.15161 0.0
N1108 N 0.00716 0.65934 0.19263 0.0
N1109 N 0.04753 0.61658 0.15654 0.0
H1110 H 0.41892 0.37975 0.62015 0.0
H1111 H 0.51789 0.29642 0.69527 0.0
H1112 H 0.40377 0.35568 0.70003 0.0
H1113 H 0.54575 0.3604 0.64854 0.0
H1114 H 0.47488 0.31556 0.69463 0.0
H1115 H 0.4649 0.37173 0.62738 0.0
C1116 C 0.42535 0.37319 0.63933 0.0
C1117 C 0.4076 0.36811 0.65948 0.0
C1118 C 0.49046 0.32555 0.68476 0.0
C1119 C 0.45972 0.35842 0.66756 0.0
C1120 C 0.51488 0.31456 0.68491 0.0
C1121 C 0.53519 0.32684 0.67177 0.0
C1122 C 0.48616 0.34855 0.67068 0.0
C1123 C 0.53045 0.35042 0.65885 0.0
C1124 C 0.45151 0.36874 0.64343 0.0
C1125 C 0.41685 0.35976 0.68398 0.0
N1126 N 0.50619 0.36034 0.65816 0.0
N1127 N 0.44227 0.35458 0.68717 0.0
H1128 H 0.80908 0.58112 0.88833 0.0
H1129 H 0.87135 0.46578 0.81331 0.0
H1130 H 0.89044 0.57855 0.87165 0.0
H1131 H 0.81089 0.4496 0.86901 0.0
H1132 H 0.87655 0.50881 0.83262 0.0
H1133 H 0.80684 0.53404 0.88057 0.0
C1134 C 0.82649 0.57063 0.88347 0.0
C1135 C 0.84989 0.58379 0.88016 0.0
C1136 C 0.86234 0.49576 0.84087 0.0
C1137 C 0.84737 0.5305 0.8711 0.0
C1138 C 0.8593 0.47133 0.82979 0.0
C1139 C 0.84068 0.45437 0.83966 0.0
C1140 C 0.8461 0.50356 0.86145 0.0
C1141 C 0.82554 0.46229 0.86105 0.0
C1142 C 0.8252 0.54385 0.87915 0.0
C1143 C 0.87191 0.56929 0.87401 0.0
N1144 N 0.82823 0.48666 0.87102 0.0
N1145 N 0.87002 0.54352 0.86922 0.0
H1146 H 0.30024 0.91314 0.09604 0.0
H1147 H 0.36171 0.02202 0.17772 0.0
H1148 H 0.3821 0.91436 0.11015 0.0
H1149 H 0.30898 0.04605 0.1169 0.0
H1150 H 0.36535 0.97958 0.15663 0.0
H1151 H 0.29877 0.96004 0.10535 0.0
C1152 C 0.31791 0.92331 0.10053 0.0
C1153 C 0.34125 0.9098 0.10283 0.0
C1154 C 0.35316 0.99423 0.14777 0.0
C1155 C 0.33955 0.96272 0.11374 0.0
C1156 C 0.35097 0.01829 0.15984 0.0
C1157 C 0.33507 0.03732 0.14891 0.0
C1158 C 0.33873 0.98894 0.12509 0.0
C1159 C 0.32154 0.03172 0.1257 0.0
C1160 C 0.31705 0.94997 0.10575 0.0
C1161 C 0.36362 0.92389 0.1086 0.0
N1162 N 0.3233 0.00769 0.11468 0.0
N1163 N 0.36212 0.94947 0.11442 0.0
H1164 H 0.14773 0.94148 0.61305 0.0
H1165 H 0.20945 0.08331 0.61261 0.0
H1166 H 0.20432 0.96812 0.66889 0.0
H1167 H 0.13047 0.06824 0.59171 0.0
H1168 H 0.21628 0.03652 0.61803 0.0
H1169 H 0.14998 0.98386 0.59075 0.0
C1170 C 0.16098 0.95606 0.62022 0.0
C1171 C 0.17554 0.95168 0.64301 0.0
C1172 C 0.19766 0.04351 0.61161 0.0
C1173 C 0.1786 -0.00058 0.61753 0.0
C1174 C 0.19378 0.07011 0.60841 0.0
C1175 C 0.16924 0.07952 0.60222 0.0
C1176 C 0.17695 0.0264 0.60816 0.0
C1177 C 0.14956 0.06167 0.59698 0.0
C1178 C 0.16225 0.9801 0.60756 0.0
C1179 C 0.19246 0.97104 0.65161 0.0
N1180 N 0.15376 0.03588 0.60035 0.0
N1181 N 0.19345 0.99416 0.63892 0.0
H1182 H 0.70217 0.40972 0.37638 0.0
H1183 H 0.64195 0.55174 0.37958 0.0
H1184 H 0.62364 0.4221 0.40071 0.0
H1185 H 0.68684 0.52204 0.31486 0.0
H1186 H 0.64427 0.50865 0.40076 0.0
H1187 H 0.70642 0.45644 0.36836 0.0
C1188 C 0.6861 0.42237 0.38081 0.0
C1189 C 0.66239 0.41215 0.38879 0.0
C1190 C 0.65382 0.51186 0.38208 0.0
C1191 C 0.66724 0.46518 0.37995 0.0
C1192 C 0.65246 0.53623 0.37004 0.0
C1193 C 0.66387 0.54008 0.34535 0.0
C1194 C 0.66744 0.4918 0.36964 0.0
C1195 C 0.67743 0.51959 0.33372 0.0
C1196 C 0.68851 0.4489 0.3761 0.0
C1197 C 0.64212 0.42931 0.39417 0.0
N1198 N 0.67891 0.4963 0.34602 0.0
N1199 N 0.64491 0.4551 0.38941 0.0
loop_
_geom_bond_atom_site_label_1
_geom_bond_atom_site_label_2
_geom_bond_distance
_geom_bond_site_symmetry_2
_ccdc_geom_bond_type
Co0 O1 2.216 . S
Co0 O2 2.091 . S
Co0 O4 2.004 . S
Co0 O10 2.021 . S
Co0 O12 2.137 . S
Co0 O13 2.244 . S
O1 Co0 2.216 . S
O1 C8 1.247 . S
O2 Co0 2.091 . S
O2 C8 1.261 . S
C3 O12 1.247 . S
C3 O13 1.272 . S
O4 Co0 2.004 . S
O4 C9 1.259 . S
Co5 O6 2.061 . S
Co5 O11 2.052 . S
Co5 O13 2.135 . S
O6 Co5 2.061 . S
O6 C9 1.235 . S
C7 O10 1.238 . S
C7 O11 1.241 . S
C8 O1 1.247 . S
C8 O2 1.261 . S
C9 O4 1.259 . S
C9 O6 1.235 . S
O10 Co0 2.021 . S
O10 C7 1.238 . S
O11 Co5 2.052 . S
O11 C7 1.241 . S
O12 Co0 2.137 . S
O12 C3 1.247 . S
O13 Co0 2.244 . S
O13 C3 1.272 . S
O13 Co5 2.135 . S
Co14 O15 2.216 . S
Co14 O16 2.091 . S
Co14 O18 2.004 . S
Co14 O24 2.021 . S
Co14 O26 2.137 . S
Co14 O27 2.244 . S
O15 Co14 2.216 . S
O15 C22 1.247 . S
O16 Co14 2.091 . S
O16 C22 1.261 . S
C17 O26 1.247 . S
C17 O27 1.272 . S
O18 Co14 2.004 . S
O18 C23 1.259 . S
Co19 O20 2.061 . S
Co19 O25 2.052 . S
Co19 O27 2.135 . S
O20 Co19 2.061 . S
O20 C23 1.235 . S
C21 O24 1.238 . S
C21 O25 1.241 . S
C22 O15 1.247 . S
C22 O16 1.261 . S
C23 O18 1.259 . S
C23 O20 1.235 . S
O24 Co14 2.021 . S
O24 C21 1.238 . S
O25 Co19 2.052 . S
O25 C21 1.241 . S
O26 Co14 2.137 . S
O26 C17 1.247 . S
O27 Co14 2.244 . S
O27 C17 1.272 . S
O27 Co19 2.135 . S
Co28 O29 2.216 . S
Co28 O30 2.091 . S
Co28 O32 2.004 . S
Co28 O38 2.021 . S
Co28 O40 2.137 . S
Co28 O41 2.244 . S
O29 Co28 2.216 . S
O29 C36 1.247 . S
O30 Co28 2.091 . S
O30 C36 1.261 . S
C31 O40 1.247 . S
C31 O41 1.272 . S
O32 Co28 2.004 . S
O32 C37 1.259 . S
Co33 O34 2.061 . S
Co33 O39 2.052 . S
Co33 O41 2.135 . S
O34 Co33 2.061 . S
O34 C37 1.235 . S
C35 O38 1.238 . S
C35 O39 1.241 . S
C36 O29 1.247 . S
C36 O30 1.261 . S
C37 O32 1.259 . S
C37 O34 1.235 . S
O38 Co28 2.021 . S
O38 C35 1.238 . S
O39 Co33 2.052 . S
O39 C35 1.241 . S
O40 Co28 2.137 . S
O40 C31 1.247 . S
O41 Co28 2.244 . S
O41 C31 1.272 . S
O41 Co33 2.135 . S
Co42 O43 2.216 . S
Co42 O44 2.091 . S
Co42 O46 2.004 . S
Co42 O52 2.021 . S
Co42 O54 2.137 . S
Co42 O55 2.244 . S
O43 Co42 2.216 . S
O43 C50 1.247 . S
O44 Co42 2.091 . S
O44 C50 1.261 . S
C45 O54 1.247 . S
C45 O55 1.272 . S
O46 Co42 2.004 . S
O46 C51 1.259 . S
Co47 O48 2.061 . S
Co47 O53 2.052 . S
Co47 O55 2.135 . S
O48 Co47 2.061 . S
O48 C51 1.235 . S
C49 O52 1.238 . S
C49 O53 1.241 . S
C50 O43 1.247 . S
C50 O44 1.261 . S
C51 O46 1.259 . S
C51 O48 1.235 . S
O52 Co42 2.021 . S
O52 C49 1.238 . S
O53 Co47 2.052 . S
O53 C49 1.241 . S
O54 Co42 2.137 . S
O54 C45 1.247 . S
O55 Co42 2.244 . S
O55 C45 1.272 . S
O55 Co47 2.135 . S
Co56 O57 2.216 . S
Co56 O58 2.091 . S
Co56 O60 2.004 . S
Co56 O66 2.021 . S
Co56 O68 2.137 . S
Co56 O69 2.244 . S
O57 Co56 2.216 . S
O57 C64 1.247 . S
O58 Co56 2.091 . S
O58 C64 1.261 . S
C59 O68 1.247 . S
C59 O69 1.272 . S
O60 Co56 2.004 . S
O60 C65 1.259 . S
Co61 O62 2.061 . S
Co61 O67 2.052 . S
Co61 O69 2.135 . S
O62 Co61 2.061 . S
O62 C65 1.235 . S
C63 O66 1.238 . S
C63 O67 1.241 . S
C64 O57 1.247 . S
C64 O58 1.261 . S
C65 O60 1.259 . S
C65 O62 1.235 . S
O66 Co56 2.021 . S
O66 C63 1.238 . S
O67 Co61 2.052 . S
O67 C63 1.241 . S
O68 Co56 2.137 . S
O68 C59 1.247 . S
O69 Co56 2.244 . S
O69 C59 1.272 . S
O69 Co61 2.135 . S
Co70 O71 2.216 . S
Co70 O72 2.091 . S
Co70 O74 2.004 . S
Co70 O80 2.021 . S
Co70 O82 2.137 . S
Co70 O83 2.244 . S
O71 Co70 2.216 . S
O71 C78 1.247 . S
O72 Co70 2.091 . S
O72 C78 1.261 . S
C73 O82 1.247 . S
C73 O83 1.272 . S
O74 Co70 2.004 . S
O74 C79 1.259 . S
Co75 O76 2.061 . S
Co75 O81 2.052 . S
Co75 O83 2.135 . S
O76 Co75 2.061 . S
O76 C79 1.235 . S
C77 O80 1.238 . S
C77 O81 1.241 . S
C78 O71 1.247 . S
C78 O72 1.261 . S
C79 O74 1.259 . S
C79 O76 1.235 . S
O80 Co70 2.021 . S
O80 C77 1.238 . S
O81 Co75 2.052 . S
O81 C77 1.241 . S
O82 Co70 2.137 . S
O82 C73 1.247 . S
O83 Co70 2.244 . S
O83 C73 1.272 . S
O83 Co75 2.135 . S
Co84 O85 2.216 . S
Co84 O86 2.091 . S
Co84 O88 2.004 . S
Co84 O94 2.021 . S
Co84 O96 2.137 . S
Co84 O97 2.244 . S
O85 Co84 2.216 . S
O85 C92 1.247 . S
O86 Co84 2.091 . S
O86 C92 1.261 . S
C87 O96 1.247 . S
C87 O97 1.272 . S
O88 Co84 2.004 . S
O88 C93 1.259 . S
Co89 O90 2.061 . S
Co89 O95 2.052 . S
Co89 O97 2.135 . S
O90 Co89 2.061 . S
O90 C93 1.235 . S
C91 O94 1.238 . S
C91 O95 1.241 . S
C92 O85 1.247 . S
C92 O86 1.261 . S
C93 O88 1.259 . S
C93 O90 1.235 . S
O94 Co84 2.021 . S
O94 C91 1.238 . S
O95 Co89 2.052 . S
O95 C91 1.241 . S
O96 Co84 2.137 . S
O96 C87 1.247 . S
O97 Co84 2.244 . S
O97 C87 1.272 . S
O97 Co89 2.135 . S
Co98 O99 2.216 . S
Co98 O100 2.091 . S
Co98 O102 2.004 . S
Co98 O108 2.021 . S
Co98 O110 2.137 . S
Co98 O111 2.244 . S
O99 Co98 2.216 . S
O99 C106 1.247 . S
O100 Co98 2.091 . S
O100 C106 1.261 . S
C101 O110 1.247 . S
C101 O111 1.272 . S
O102 Co98 2.004 . S
O102 C107 1.259 . S
Co103 O104 2.061 . S
Co103 O109 2.052 . S
Co103 O111 2.135 . S
O104 Co103 2.061 . S
O104 C107 1.235 . S
C105 O108 1.238 . S
C105 O109 1.241 . S
C106 O99 1.247 . S
C106 O100 1.261 . S
C107 O102 1.259 . S
C107 O104 1.235 . S
O108 Co98 2.021 . S
O108 C105 1.238 . S
O109 Co103 2.052 . S
O109 C105 1.241 . S
O110 Co98 2.137 . S
O110 C101 1.247 . S
O111 Co98 2.244 . S
O111 C101 1.272 . S
O111 Co103 2.135 . S
Co112 O113 2.216 . S
Co112 O114 2.091 . S
Co112 O116 2.004 . S
Co112 O122 2.021 . S
Co112 O124 2.137 . S
Co112 O125 2.244 . S
O113 Co112 2.216 . S
O113 C120 1.247 . S
O114 Co112 2.091 . S
O114 C120 1.261 . S
C115 O124 1.247 . S
C115 O125 1.272 . S
O116 Co112 2.004 . S
O116 C121 1.259 . S
Co117 O118 2.061 . S
Co117 O123 2.052 . S
Co117 O125 2.135 . S
O118 Co117 2.061 . S
O118 C121 1.235 . S
C119 O122 1.238 . S
C119 O123 1.241 . S
C120 O113 1.247 . S
C120 O114 1.261 . S
C121 O116 1.259 . S
C121 O118 1.235 . S
O122 Co112 2.021 . S
O122 C119 1.238 . S
O123 Co117 2.052 . S
O123 C119 1.241 . S
O124 Co112 2.137 . S
O124 C115 1.247 . S
O125 Co112 2.244 . S
O125 C115 1.272 . S
O125 Co117 2.135 . S
Co126 O127 2.216 . S
Co126 O128 2.091 . S
Co126 O130 2.004 . S
Co126 O136 2.021 . S
Co126 O138 2.137 . S
Co126 O139 2.244 . S
O127 Co126 2.216 . S
O127 C134 1.247 . S
O128 Co126 2.091 . S
O128 C134 1.261 . S
C129 O138 1.247 . S
C129 O139 1.272 . S
O130 Co126 2.004 . S
O130 C135 1.259 . S
Co131 O132 2.061 . S
Co131 O137 2.052 . S
Co131 O139 2.135 . S
O132 Co131 2.061 . S
O132 C135 1.235 . S
C133 O136 1.238 . S
C133 O137 1.241 . S
C134 O127 1.247 . S
C134 O128 1.261 . S
C135 O130 1.259 . S
C135 O132 1.235 . S
O136 Co126 2.021 . S
O136 C133 1.238 . S
O137 Co131 2.052 . S
O137 C133 1.241 . S
O138 Co126 2.137 . S
O138 C129 1.247 . S
O139 Co126 2.244 . S
O139 C129 1.272 . S
O139 Co131 2.135 . S
Co140 O141 2.216 . S
Co140 O142 2.091 . S
Co140 O144 2.004 . S
Co140 O150 2.021 . S
Co140 O152 2.137 . S
Co140 O153 2.244 . S
O141 Co140 2.216 . S
O141 C148 1.247 . S
O142 Co140 2.091 . S
O142 C148 1.261 . S
C143 O152 1.247 . S
C143 O153 1.272 . S
O144 Co140 2.004 . S
O144 C149 1.259 . S
Co145 O146 2.061 . S
Co145 O151 2.052 . S
Co145 O153 2.135 . S
O146 Co145 2.061 . S
O146 C149 1.235 . S
C147 O150 1.238 . S
C147 O151 1.241 . S
C148 O141 1.247 . S
C148 O142 1.261 . S
C149 O144 1.259 . S
C149 O146 1.235 . S
O150 Co140 2.021 . S
O150 C147 1.238 . S
O151 Co145 2.052 . S
O151 C147 1.241 . S
O152 Co140 2.137 . S
O152 C143 1.247 . S
O153 Co140 2.244 . S
O153 C143 1.272 . S
O153 Co145 2.135 . S
Co154 O155 2.216 . S
Co154 O156 2.091 . S
Co154 O158 2.004 . S
Co154 O164 2.021 . S
Co154 O166 2.137 . S
Co154 O167 2.244 . S
O155 Co154 2.216 . S
O155 C162 1.247 . S
O156 Co154 2.091 . S
O156 C162 1.261 . S
C157 O166 1.247 . S
C157 O167 1.272 . S
O158 Co154 2.004 . S
O158 C163 1.259 . S
Co159 O160 2.061 . S
Co159 O165 2.052 . S
Co159 O167 2.135 . S
O160 Co159 2.061 . S
O160 C163 1.235 . S
C161 O164 1.238 . S
C161 O165 1.241 . S
C162 O155 1.247 . S
C162 O156 1.261 . S
C163 O158 1.259 . S
C163 O160 1.235 . S
O164 Co154 2.021 . S
O164 C161 1.238 . S
O165 Co159 2.052 . S
O165 C161 1.241 . S
O166 Co154 2.137 . S
O166 C157 1.247 . S
O167 Co154 2.244 . S
O167 C157 1.272 . S
O167 Co159 2.135 . S
Co168 O169 2.216 . S
Co168 O170 2.091 . S
Co168 O172 2.004 . S
Co168 O178 2.021 . S
Co168 O180 2.137 . S
Co168 O181 2.244 . S
O169 Co168 2.216 . S
O169 C176 1.247 . S
O170 Co168 2.091 . S
O170 C176 1.261 . S
C171 O180 1.247 . S
C171 O181 1.272 . S
O172 Co168 2.004 . S
O172 C177 1.259 . S
Co173 O174 2.061 . S
Co173 O179 2.052 . S
Co173 O181 2.135 . S
O174 Co173 2.061 . S
O174 C177 1.235 . S
C175 O178 1.238 . S
C175 O179 1.241 . S
C176 O169 1.247 . S
C176 O170 1.261 . S
C177 O172 1.259 . S
C177 O174 1.235 . S
O178 Co168 2.021 . S
O178 C175 1.238 . S
O179 Co173 2.052 . S
O179 C175 1.241 . S
O180 Co168 2.137 . S
O180 C171 1.247 . S
O181 Co168 2.244 . S
O181 C171 1.272 . S
O181 Co173 2.135 . S
Co182 O183 2.216 . S
Co182 O184 2.091 . S
Co182 O186 2.004 . S
Co182 O192 2.021 . S
Co182 O194 2.137 . S
Co182 O195 2.244 . S
O183 Co182 2.216 . S
O183 C190 1.247 . S
O184 Co182 2.091 . S
O184 C190 1.261 . S
C185 O194 1.247 . S
C185 O195 1.272 . S
O186 Co182 2.004 . S
O186 C191 1.259 . S
Co187 O188 2.061 . S
Co187 O193 2.052 . S
Co187 O195 2.135 . S
O188 Co187 2.061 . S
O188 C191 1.235 . S
C189 O192 1.238 . S
C189 O193 1.241 . S
C190 O183 1.247 . S
C190 O184 1.261 . S
C191 O186 1.259 . S
C191 O188 1.235 . S
O192 Co182 2.021 . S
O192 C189 1.238 . S
O193 Co187 2.052 . S
O193 C189 1.241 . S
O194 Co182 2.137 . S
O194 C185 1.247 . S
O195 Co182 2.244 . S
O195 C185 1.272 . S
O195 Co187 2.135 . S
Co196 O197 2.216 . S
Co196 O198 2.091 . S
Co196 O200 2.004 . S
Co196 O206 2.021 . S
Co196 O208 2.137 . S
Co196 O209 2.244 . S
O197 Co196 2.216 . S
O197 C204 1.247 . S
O198 Co196 2.091 . S
O198 C204 1.261 . S
C199 O208 1.247 . S
C199 O209 1.272 . S
O200 Co196 2.004 . S
O200 C205 1.259 . S
Co201 O202 2.061 . S
Co201 O207 2.052 . S
Co201 O209 2.135 . S
O202 Co201 2.061 . S
O202 C205 1.235 . S
C203 O206 1.238 . S
C203 O207 1.241 . S
C204 O197 1.247 . S
C204 O198 1.261 . S
C205 O200 1.259 . S
C205 O202 1.235 . S
O206 Co196 2.021 . S
O206 C203 1.238 . S
O207 Co201 2.052 . S
O207 C203 1.241 . S
O208 Co196 2.137 . S
O208 C199 1.247 . S
O209 Co196 2.244 . S
O209 C199 1.272 . S
O209 Co201 2.135 . S
Co210 O211 2.216 . S
Co210 O212 2.091 . S
Co210 O214 2.004 . S
Co210 O220 2.021 . S
Co210 O222 2.137 . S
Co210 O223 2.244 . S
O211 Co210 2.216 . S
O211 C218 1.247 . S
O212 Co210 2.091 . S
O212 C218 1.261 . S
C213 O222 1.247 . S
C213 O223 1.272 . S
O214 Co210 2.004 . S
O214 C219 1.259 . S
Co215 O216 2.061 . S
Co215 O221 2.052 . S
Co215 O223 2.135 . S
O216 Co215 2.061 . S
O216 C219 1.235 . S
C217 O220 1.238 . S
C217 O221 1.241 . S
C218 O211 1.247 . S
C218 O212 1.261 . S
C219 O214 1.259 . S
C219 O216 1.235 . S
O220 Co210 2.021 . S
O220 C217 1.238 . S
O221 Co215 2.052 . S
O221 C217 1.241 . S
O222 Co210 2.137 . S
O222 C213 1.247 . S
O223 Co210 2.244 . S
O223 C213 1.272 . S
O223 Co215 2.135 . S
Co224 O225 2.216 . S
Co224 O226 2.091 . S
Co224 O228 2.004 . S
Co224 O234 2.021 . S
Co224 O236 2.137 . S
Co224 O237 2.244 . S
O225 Co224 2.216 . S
O225 C232 1.247 . S
O226 Co224 2.091 . S
O226 C232 1.261 . S
C227 O236 1.247 . S
C227 O237 1.272 . S
O228 Co224 2.004 . S
O228 C233 1.259 . S
Co229 O230 2.061 . S
Co229 O235 2.052 . S
Co229 O237 2.135 . S
O230 Co229 2.061 . S
O230 C233 1.235 . S
C231 O234 1.238 . S
C231 O235 1.241 . S
C232 O225 1.247 . S
C232 O226 1.261 . S
C233 O228 1.259 . S
C233 O230 1.235 . S
O234 Co224 2.021 . S
O234 C231 1.238 . S
O235 Co229 2.052 . S
O235 C231 1.241 . S
O236 Co224 2.137 . S
O236 C227 1.247 . S
O237 Co224 2.244 . S
O237 C227 1.272 . S
O237 Co229 2.135 . S
Co238 O239 2.216 . S
Co238 O240 2.091 . S
Co238 O242 2.004 . S
Co238 O248 2.021 . S
Co238 O250 2.137 . S
Co238 O251 2.244 . S
O239 Co238 2.216 . S
O239 C246 1.247 . S
O240 Co238 2.091 . S
O240 C246 1.261 . S
C241 O250 1.247 . S
C241 O251 1.272 . S
O242 Co238 2.004 . S
O242 C247 1.259 . S
Co243 O244 2.061 . S
Co243 O249 2.052 . S
Co243 O251 2.135 . S
O244 Co243 2.061 . S
O244 C247 1.235 . S
C245 O248 1.238 . S
C245 O249 1.241 . S
C246 O239 1.247 . S
C246 O240 1.261 . S
C247 O242 1.259 . S
C247 O244 1.235 . S
O248 Co238 2.021 . S
O248 C245 1.238 . S
O249 Co243 2.052 . S
O249 C245 1.241 . S
O250 Co238 2.137 . S
O250 C241 1.247 . S
O251 Co238 2.244 . S
O251 C241 1.272 . S
O251 Co243 2.135 . S
Co252 O253 2.216 . S
Co252 O254 2.091 . S
Co252 O256 2.004 . S
Co252 O262 2.021 . S
Co252 O264 2.137 . S
Co252 O265 2.244 . S
O253 Co252 2.216 . S
O253 C260 1.247 . S
O254 Co252 2.091 . S
O254 C260 1.261 . S
C255 O264 1.247 . S
C255 O265 1.272 . S
O256 Co252 2.004 . S
O256 C261 1.259 . S
Co257 O258 2.061 . S
Co257 O263 2.052 . S
Co257 O265 2.135 . S
O258 Co257 2.061 . S
O258 C261 1.235 . S
C259 O262 1.238 . S
C259 O263 1.241 . S
C260 O253 1.247 . S
C260 O254 1.261 . S
C261 O256 1.259 . S
C261 O258 1.235 . S
O262 Co252 2.021 . S
O262 C259 1.238 . S
O263 Co257 2.052 . S
O263 C259 1.241 . S
O264 Co252 2.137 . S
O264 C255 1.247 . S
O265 Co252 2.244 . S
O265 C255 1.272 . S
O265 Co257 2.135 . S
Co266 O267 2.216 . S
Co266 O268 2.091 . S
Co266 O270 2.004 . S
Co266 O276 2.021 . S
Co266 O278 2.137 . S
Co266 O279 2.244 . S
O267 Co266 2.216 . S
O267 C274 1.247 . S
O268 Co266 2.091 . S
O268 C274 1.261 . S
C269 O278 1.247 . S
C269 O279 1.272 . S
O270 Co266 2.004 . S
O270 C275 1.259 . S
Co271 O272 2.061 . S
Co271 O277 2.052 . S
Co271 O279 2.135 . S
O272 Co271 2.061 . S
O272 C275 1.235 . S
C273 O276 1.238 . S
C273 O277 1.241 . S
C274 O267 1.247 . S
C274 O268 1.261 . S
C275 O270 1.259 . S
C275 O272 1.235 . S
O276 Co266 2.021 . S
O276 C273 1.238 . S
O277 Co271 2.052 . S
O277 C273 1.241 . S
O278 Co266 2.137 . S
O278 C269 1.247 . S
O279 Co266 2.244 . S
O279 C269 1.272 . S
O279 Co271 2.135 . S
Co280 O281 2.216 . S
Co280 O282 2.091 . S
Co280 O284 2.004 . S
Co280 O290 2.021 . S
Co280 O292 2.137 . S
Co280 O293 2.244 . S
O281 Co280 2.216 . S
O281 C288 1.247 . S
O282 Co280 2.091 . S
O282 C288 1.261 . S
C283 O292 1.247 . S
C283 O293 1.272 . S
O284 Co280 2.004 . S
O284 C289 1.259 . S
Co285 O286 2.061 . S
Co285 O291 2.052 . S
Co285 O293 2.135 . S
O286 Co285 2.061 . S
O286 C289 1.235 . S
C287 O290 1.238 . S
C287 O291 1.241 . S
C288 O281 1.247 . S
C288 O282 1.261 . S
C289 O284 1.259 . S
C289 O286 1.235 . S
O290 Co280 2.021 . S
O290 C287 1.238 . S
O291 Co285 2.052 . S
O291 C287 1.241 . S
O292 Co280 2.137 . S
O292 C283 1.247 . S
O293 Co280 2.244 . S
O293 C283 1.272 . S
O293 Co285 2.135 . S
Co294 O295 2.216 . S
Co294 O296 2.091 . S
Co294 O298 2.004 . S
Co294 O304 2.021 . S
Co294 O306 2.137 . S
Co294 O307 2.244 . S
O295 Co294 2.216 . S
O295 C302 1.247 . S
O296 Co294 2.091 . S
O296 C302 1.261 . S
C297 O306 1.247 . S
C297 O307 1.272 . S
O298 Co294 2.004 . S
O298 C303 1.259 . S
Co299 O300 2.061 . S
Co299 O305 2.052 . S
Co299 O307 2.135 . S
O300 Co299 2.061 . S
O300 C303 1.235 . S
C301 O304 1.238 . S
C301 O305 1.241 . S
C302 O295 1.247 . S
C302 O296 1.261 . S
C303 O298 1.259 . S
C303 O300 1.235 . S
O304 Co294 2.021 . S
O304 C301 1.238 . S
O305 Co299 2.052 . S
O305 C301 1.241 . S
O306 Co294 2.137 . S
O306 C297 1.247 . S
O307 Co294 2.244 . S
O307 C297 1.272 . S
O307 Co299 2.135 . S
Co308 O309 2.216 . S
Co308 O310 2.091 . S
Co308 O312 2.004 . S
Co308 O318 2.021 . S
Co308 O320 2.137 . S
Co308 O321 2.244 . S
O309 Co308 2.216 . S
O309 C316 1.247 . S
O310 Co308 2.091 . S
O310 C316 1.261 . S
C311 O320 1.247 . S
C311 O321 1.272 . S
O312 Co308 2.004 . S
O312 C317 1.259 . S
Co313 O314 2.061 . S
Co313 O319 2.052 . S
Co313 O321 2.135 . S
O314 Co313 2.061 . S
O314 C317 1.235 . S
C315 O318 1.238 . S
C315 O319 1.241 . S
C316 O309 1.247 . S
C316 O310 1.261 . S
C317 O312 1.259 . S
C317 O314 1.235 . S
O318 Co308 2.021 . S
O318 C315 1.238 . S
O319 Co313 2.052 . S
O319 C315 1.241 . S
O320 Co308 2.137 . S
O320 C311 1.247 . S
O321 Co308 2.244 . S
O321 C311 1.272 . S
O321 Co313 2.135 . S
Co322 O323 2.216 . S
Co322 O324 2.091 . S
Co322 O326 2.004 . S
Co322 O332 2.021 . S
Co322 O334 2.137 . S
Co322 O335 2.244 . S
O323 Co322 2.216 . S
O323 C330 1.247 . S
O324 Co322 2.091 . S
O324 C330 1.261 . S
C325 O334 1.247 . S
C325 O335 1.272 . S
O326 Co322 2.004 . S
O326 C331 1.259 . S
Co327 O328 2.061 . S
Co327 O333 2.052 . S
Co327 O335 2.135 . S
O328 Co327 2.061 . S
O328 C331 1.235 . S
C329 O332 1.238 . S
C329 O333 1.241 . S
C330 O323 1.247 . S
C330 O324 1.261 . S
C331 O326 1.259 . S
C331 O328 1.235 . S
O332 Co322 2.021 . S
O332 C329 1.238 . S
O333 Co327 2.052 . S
O333 C329 1.241 . S
O334 Co322 2.137 . S
O334 C325 1.247 . S
O335 Co322 2.244 . S
O335 C325 1.272 . S
O335 Co327 2.135 . S
H336 C342 0.930 . S
H337 C346 0.930 . S
H338 C351 0.929 . S
H339 C349 0.929 . S
H340 C344 0.929 . S
H341 C350 0.929 . S
C342 H336 0.930 . S
C342 C343 1.367 . S
C342 C350 1.378 . S
C343 C342 1.367 . S
C343 C351 1.433 . S
C344 H340 0.929 . S
C344 C346 1.378 . S
C344 C348 1.350 . S
C345 C348 1.463 . S
C345 C350 1.350 . S
C345 N353 1.427 . S
C346 H337 0.930 . S
C346 C344 1.378 . S
C346 C347 1.367 . S
C347 C346 1.367 . S
C347 C349 1.433 . S
C348 C344 1.350 . S
C348 C345 1.463 . S
C348 N352 1.427 . S
C349 H339 0.929 . S
C349 C347 1.433 . S
C349 N352 1.384 . S
C350 H341 0.929 . S
C350 C342 1.378 . S
C350 C345 1.350 . S
C351 H338 0.929 . S
C351 C343 1.433 . S
C351 N353 1.384 . S
N352 C348 1.427 . S
N352 C349 1.384 . S
N353 C345 1.427 . S
N353 C351 1.384 . S
H354 C360 0.930 . S
H355 C364 0.930 . S
H356 C369 0.929 . S
H357 C367 0.929 . S
H358 C362 0.929 . S
H359 C368 0.929 . S
C360 H354 0.930 . S
C360 C361 1.367 . S
C360 C368 1.378 . S
C361 C360 1.367 . S
C361 C369 1.433 . S
C362 H358 0.929 . S
C362 C364 1.378 . S
C362 C366 1.350 . S
C363 C366 1.463 . S
C363 C368 1.350 . S
C363 N371 1.427 . S
C364 H355 0.930 . S
C364 C362 1.378 . S
C364 C365 1.367 . S
C365 C364 1.367 . S
C365 C367 1.433 . S
C366 C362 1.350 . S
C366 C363 1.463 . S
C366 N370 1.427 . S
C367 H357 0.929 . S
C367 C365 1.433 . S
C367 N370 1.384 . S
C368 H359 0.929 . S
C368 C360 1.378 . S
C368 C363 1.350 . S
C369 H356 0.929 . S
C369 C361 1.433 . S
C369 N371 1.384 . S
N370 C366 1.427 . S
N370 C367 1.384 . S
N371 C363 1.427 . S
N371 C369 1.384 . S
H372 C378 0.930 . S
H373 C382 0.930 . S
H374 C387 0.929 . S
H375 C385 0.929 . S
H376 C380 0.929 . S
H377 C386 0.929 . S
C378 H372 0.930 . S
C378 C379 1.367 . S
C378 C386 1.378 . S
C379 C378 1.367 . S
C379 C387 1.433 . S
C380 H376 0.929 . S
C380 C382 1.378 . S
C380 C384 1.350 . S
C381 C384 1.463 . S
C381 C386 1.350 . S
C381 N389 1.427 . S
C382 H373 0.930 . S
C382 C380 1.378 . S
C382 C383 1.367 . S
C383 C382 1.367 . S
C383 C385 1.433 . S
C384 C380 1.350 . S
C384 C381 1.463 . S
C384 N388 1.427 . S
C385 H375 0.929 . S
C385 C383 1.433 . S
C385 N388 1.384 . S
C386 H377 0.929 . S
C386 C378 1.378 . S
C386 C381 1.350 . S
C387 H374 0.929 . S
C387 C379 1.433 . S
C387 N389 1.384 . S
N388 C384 1.427 . S
N388 C385 1.384 . S
N389 C381 1.427 . S
N389 C387 1.384 . S
H390 C396 0.930 . S
H391 C400 0.930 . S
H392 C405 0.929 . S
H393 C403 0.929 . S
H394 C398 0.929 . S
H395 C404 0.929 . S
C396 H390 0.930 . S
C396 C397 1.367 . S
C396 C404 1.378 . S
C397 C396 1.367 . S
C397 C405 1.433 . S
C398 H394 0.929 . S
C398 C400 1.378 . S
C398 C402 1.350 . S
C399 C402 1.463 . S
C399 C404 1.350 . S
C399 N407 1.427 . S
C400 H391 0.930 . S
C400 C398 1.378 . S
C400 C401 1.367 . S
C401 C400 1.367 . S
C401 C403 1.433 . S
C402 C398 1.350 . S
C402 C399 1.463 . S
C402 N406 1.427 . S
C403 H393 0.929 . S
C403 C401 1.433 . S
C403 N406 1.384 . S
C404 H395 0.929 . S
C404 C396 1.378 . S
C404 C399 1.350 . S
C405 H392 0.929 . S
C405 C397 1.433 . S
C405 N407 1.384 . S
N406 C402 1.427 . S
N406 C403 1.384 . S
N407 C399 1.427 . S
N407 C405 1.384 . S
H408 C414 0.930 . S
H409 C418 0.930 . S
H410 C423 0.929 . S
H411 C421 0.929 . S
H412 C416 0.929 . S
H413 C422 0.929 . S
C414 H408 0.930 . S
C414 C415 1.367 . S
C414 C422 1.378 . S
C415 C414 1.367 . S
C415 C423 1.433 . S
C416 H412 0.929 . S
C416 C418 1.378 . S
C416 C420 1.350 . S
C417 C420 1.463 . S
C417 C422 1.350 . S
C417 N425 1.427 . S
C418 H409 0.930 . S
C418 C416 1.378 . S
C418 C419 1.367 . S
C419 C418 1.367 . S
C419 C421 1.433 . S
C420 C416 1.350 . S
C420 C417 1.463 . S
C420 N424 1.427 . S
C421 H411 0.929 . S
C421 C419 1.433 . S
C421 N424 1.384 . S
C422 H413 0.929 . S
C422 C414 1.378 . S
C422 C417 1.350 . S
C423 H410 0.929 . S
C423 C415 1.433 . S
C423 N425 1.384 . S
N424 C420 1.427 . S
N424 C421 1.384 . S
N425 C417 1.427 . S
N425 C423 1.384 . S
H426 C432 0.930 . S
H427 C436 0.930 . S
H428 C441 0.929 . S
H429 C439 0.929 . S
H430 C434 0.929 . S
H431 C440 0.929 . S
C432 H426 0.930 . S
C432 C433 1.367 . S
C432 C440 1.378 . S
C433 C432 1.367 . S
C433 C441 1.433 . S
C434 H430 0.929 . S
C434 C436 1.378 . S
C434 C438 1.350 . S
C435 C438 1.463 . S
C435 C440 1.350 . S
C435 N443 1.427 . S
C436 H427 0.930 . S
C436 C434 1.378 . S
C436 C437 1.367 . S
C437 C436 1.367 . S
C437 C439 1.433 . S
C438 C434 1.350 . S
C438 C435 1.463 . S
C438 N442 1.427 . S
C439 H429 0.929 . S
C439 C437 1.433 . S
C439 N442 1.384 . S
C440 H431 0.929 . S
C440 C432 1.378 . S
C440 C435 1.350 . S
C441 H428 0.929 . S
C441 C433 1.433 . S
C441 N443 1.384 . S
N442 C438 1.427 . S
N442 C439 1.384 . S
N443 C435 1.427 . S
N443 C441 1.384 . S
H444 C450 0.930 . S
H445 C454 0.930 . S
H446 C459 0.929 . S
H447 C457 0.929 . S
H448 C452 0.929 . S
H449 C458 0.929 . S
C450 H444 0.930 . S
C450 C451 1.367 . S
C450 C458 1.378 . S
C451 C450 1.367 . S
C451 C459 1.433 . S
C452 H448 0.929 . S
C452 C454 1.378 . S
C452 C456 1.350 . S
C453 C456 1.463 . S
C453 C458 1.350 . S
C453 N461 1.427 . S
C454 H445 0.930 . S
C454 C452 1.378 . S
C454 C455 1.367 . S
C455 C454 1.367 . S
C455 C457 1.433 . S
C456 C452 1.350 . S
C456 C453 1.463 . S
C456 N460 1.427 . S
C457 H447 0.929 . S
C457 C455 1.433 . S
C457 N460 1.384 . S
C458 H449 0.929 . S
C458 C450 1.378 . S
C458 C453 1.350 . S
C459 H446 0.929 . S
C459 C451 1.433 . S
C459 N461 1.384 . S
N460 C456 1.427 . S
N460 C457 1.384 . S
N461 C453 1.427 . S
N461 C459 1.384 . S
H462 C468 0.930 . S
H463 C472 0.930 . S
H464 C477 0.929 . S
H465 C475 0.929 . S
H466 C470 0.929 . S
H467 C476 0.929 . S
C468 H462 0.930 . S
C468 C469 1.367 . S
C468 C476 1.378 . S
C469 C468 1.367 . S
C469 C477 1.433 . S
C470 H466 0.929 . S
C470 C472 1.378 . S
C470 C474 1.350 . S
C471 C474 1.463 . S
C471 C476 1.350 . S
C471 N479 1.427 . S
C472 H463 0.930 . S
C472 C470 1.378 . S
C472 C473 1.367 . S
C473 C472 1.367 . S
C473 C475 1.433 . S
C474 C470 1.350 . S
C474 C471 1.463 . S
C474 N478 1.427 . S
C475 H465 0.929 . S
C475 C473 1.433 . S
C475 N478 1.384 . S
C476 H467 0.929 . S
C476 C468 1.378 . S
C476 C471 1.350 . S
C477 H464 0.929 . S
C477 C469 1.433 . S
C477 N479 1.384 . S
N478 C474 1.427 . S
N478 C475 1.384 . S
N479 C471 1.427 . S
N479 C477 1.384 . S
H480 C486 0.930 . S
H481 C490 0.930 . S
H482 C495 0.929 . S
H483 C493 0.929 . S
H484 C488 0.929 . S
H485 C494 0.929 . S
C486 H480 0.930 . S
C486 C487 1.367 . S
C486 C494 1.378 . S
C487 C486 1.367 . S
C487 C495 1.433 . S
C488 H484 0.929 . S
C488 C490 1.378 . S
C488 C492 1.350 . S
C489 C492 1.463 . S
C489 C494 1.350 . S
C489 N497 1.427 . S
C490 H481 0.930 . S
C490 C488 1.378 . S
C490 C491 1.367 . S
C491 C490 1.367 . S
C491 C493 1.433 . S
C492 C488 1.350 . S
C492 C489 1.463 . S
C492 N496 1.427 . S
C493 H483 0.929 . S
C493 C491 1.433 . S
C493 N496 1.384 . S
C494 H485 0.929 . S
C494 C486 1.378 . S
C494 C489 1.350 . S
C495 H482 0.929 . S
C495 C487 1.433 . S
C495 N497 1.384 . S
N496 C492 1.427 . S
N496 C493 1.384 . S
N497 C489 1.427 . S
N497 C495 1.384 . S
H498 C504 0.930 . S
H499 C508 0.930 . S
H500 C513 0.929 . S
H501 C511 0.929 . S
H502 C506 0.929 . S
H503 C512 0.929 . S
C504 H498 0.930 . S
C504 C505 1.367 . S
C504 C512 1.378 . S
C505 C504 1.367 . S
C505 C513 1.433 . S
C506 H502 0.929 . S
C506 C508 1.378 . S
C506 C510 1.350 . S
C507 C510 1.463 . S
C507 C512 1.350 . S
C507 N515 1.427 . S
C508 H499 0.930 . S
C508 C506 1.378 . S
C508 C509 1.367 . S
C509 C508 1.367 . S
C509 C511 1.433 . S
C510 C506 1.350 . S
C510 C507 1.463 . S
C510 N514 1.427 . S
C511 H501 0.929 . S
C511 C509 1.433 . S
C511 N514 1.384 . S
C512 H503 0.929 . S
C512 C504 1.378 . S
C512 C507 1.350 . S
C513 H500 0.929 . S
C513 C505 1.433 . S
C513 N515 1.384 . S
N514 C510 1.427 . S
N514 C511 1.384 . S
N515 C507 1.427 . S
N515 C513 1.384 . S
H516 C522 0.930 . S
H517 C526 0.930 . S
H518 C531 0.929 . S
H519 C529 0.929 . S
H520 C524 0.929 . S
H521 C530 0.929 . S
C522 H516 0.930 . S
C522 C523 1.367 . S
C522 C530 1.378 . S
C523 C522 1.367 . S
C523 C531 1.433 . S
C524 H520 0.929 . S
C524 C526 1.378 . S
C524 C528 1.350 . S
C525 C528 1.463 . S
C525 C530 1.350 . S
C525 N533 1.427 . S
C526 H517 0.930 . S
C526 C524 1.378 . S
C526 C527 1.367 . S
C527 C526 1.367 . S
C527 C529 1.433 . S
C528 C524 1.350 . S
C528 C525 1.463 . S
C528 N532 1.427 . S
C529 H519 0.929 . S
C529 C527 1.433 . S
C529 N532 1.384 . S
C530 H521 0.929 . S
C530 C522 1.378 . S
C530 C525 1.350 . S
C531 H518 0.929 . S
C531 C523 1.433 . S
C531 N533 1.384 . S
N532 C528 1.427 . S
N532 C529 1.384 . S
N533 C525 1.427 . S
N533 C531 1.384 . S
H534 C540 0.930 . S
H535 C544 0.930 . S
H536 C549 0.929 . S
H537 C547 0.929 . S
H538 C542 0.929 . S
H539 C548 0.929 . S
C540 H534 0.930 . S
C540 C541 1.367 . S
C540 C548 1.378 . S
C541 C540 1.367 . S
C541 C549 1.433 . S
C542 H538 0.929 . S
C542 C544 1.378 . S
C542 C546 1.350 . S
C543 C546 1.463 . S
C543 C548 1.350 . S
C543 N551 1.427 . S
C544 H535 0.930 . S
C544 C542 1.378 . S
C544 C545 1.367 . S
C545 C544 1.367 . S
C545 C547 1.433 . S
C546 C542 1.350 . S
C546 C543 1.463 . S
C546 N550 1.427 . S
C547 H537 0.929 . S
C547 C545 1.433 . S
C547 N550 1.384 . S
C548 H539 0.929 . S
C548 C540 1.378 . S
C548 C543 1.350 . S
C549 H536 0.929 . S
C549 C541 1.433 . S
C549 N551 1.384 . S
N550 C546 1.427 . S
N550 C547 1.384 . S
N551 C543 1.427 . S
N551 C549 1.384 . S
H552 C558 0.930 . S
H553 C562 0.930 . S
H554 C567 0.929 . S
H555 C565 0.929 . S
H556 C560 0.929 . S
H557 C566 0.929 . S
C558 H552 0.930 . S
C558 C559 1.367 . S
C558 C566 1.378 . S
C559 C558 1.367 . S
C559 C567 1.433 . S
C560 H556 0.929 . S
C560 C562 1.378 . S
C560 C564 1.350 . S
C561 C564 1.463 . S
C561 C566 1.350 . S
C561 N569 1.427 . S
C562 H553 0.930 . S
C562 C560 1.378 . S
C562 C563 1.367 . S
C563 C562 1.367 . S
C563 C565 1.433 . S
C564 C560 1.350 . S
C564 C561 1.463 . S
C564 N568 1.427 . S
C565 H555 0.929 . S
C565 C563 1.433 . S
C565 N568 1.384 . S
C566 H557 0.929 . S
C566 C558 1.378 . S
C566 C561 1.350 . S
C567 H554 0.929 . S
C567 C559 1.433 . S
C567 N569 1.384 . S
N568 C564 1.427 . S
N568 C565 1.384 . S
N569 C561 1.427 . S
N569 C567 1.384 . S
H570 C576 0.930 . S
H571 C580 0.930 . S
H572 C585 0.929 . S
H573 C583 0.929 . S
H574 C578 0.929 . S
H575 C584 0.929 . S
C576 H570 0.930 . S
C576 C577 1.367 . S
C576 C584 1.378 . S
C577 C576 1.367 . S
C577 C585 1.433 . S
C578 H574 0.929 . S
C578 C580 1.378 . S
C578 C582 1.350 . S
C579 C582 1.463 . S
C579 C584 1.350 . S
C579 N587 1.427 . S
C580 H571 0.930 . S
C580 C578 1.378 . S
C580 C581 1.367 . S
C581 C580 1.367 . S
C581 C583 1.433 . S
C582 C578 1.350 . S
C582 C579 1.463 . S
C582 N586 1.427 . S
C583 H573 0.929 . S
C583 C581 1.433 . S
C583 N586 1.384 . S
C584 H575 0.929 . S
C584 C576 1.378 . S
C584 C579 1.350 . S
C585 H572 0.929 . S
C585 C577 1.433 . S
C585 N587 1.384 . S
N586 C582 1.427 . S
N586 C583 1.384 . S
N587 C579 1.427 . S
N587 C585 1.384 . S
H588 C594 0.930 . S
H589 C598 0.930 . S
H590 C603 0.929 . S
H591 C601 0.929 . S
H592 C596 0.929 . S
H593 C602 0.929 . S
C594 H588 0.930 . S
C594 C595 1.367 . S
C594 C602 1.378 . S
C595 C594 1.367 . S
C595 C603 1.433 . S
C596 H592 0.929 . S
C596 C598 1.378 . S
C596 C600 1.350 . S
C597 C600 1.463 . S
C597 C602 1.350 . S
C597 N605 1.427 . S
C598 H589 0.930 . S
C598 C596 1.378 . S
C598 C599 1.367 . S
C599 C598 1.367 . S
C599 C601 1.433 . S
C600 C596 1.350 . S
C600 C597 1.463 . S
C600 N604 1.427 . S
C601 H591 0.929 . S
C601 C599 1.433 . S
C601 N604 1.384 . S
C602 H593 0.929 . S
C602 C594 1.378 . S
C602 C597 1.350 . S
C603 H590 0.929 . S
C603 C595 1.433 . S
C603 N605 1.384 . S
N604 C600 1.427 . S
N604 C601 1.384 . S
N605 C597 1.427 . S
N605 C603 1.384 . S
H606 C612 0.930 . S
H607 C616 0.930 . S
H608 C621 0.929 . S
H609 C619 0.929 . S
H610 C614 0.929 . S
H611 C620 0.929 . S
C612 H606 0.930 . S
C612 C613 1.367 . S
C612 C620 1.378 . S
C613 C612 1.367 . S
C613 C621 1.433 . S
C614 H610 0.929 . S
C614 C616 1.378 . S
C614 C618 1.350 . S
C615 C618 1.463 . S
C615 C620 1.350 . S
C615 N623 1.427 . S
C616 H607 0.930 . S
C616 C614 1.378 . S
C616 C617 1.367 . S
C617 C616 1.367 . S
C617 C619 1.433 . S
C618 C614 1.350 . S
C618 C615 1.463 . S
C618 N622 1.427 . S
C619 H609 0.929 . S
C619 C617 1.433 . S
C619 N622 1.384 . S
C620 H611 0.929 . S
C620 C612 1.378 . S
C620 C615 1.350 . S
C621 H608 0.929 . S
C621 C613 1.433 . S
C621 N623 1.384 . S
N622 C618 1.427 . S
N622 C619 1.384 . S
N623 C615 1.427 . S
N623 C621 1.384 . S
H624 C630 0.930 . S
H625 C634 0.930 . S
H626 C639 0.929 . S
H627 C637 0.929 . S
H628 C632 0.929 . S
H629 C638 0.929 . S
C630 H624 0.930 . S
C630 C631 1.367 . S
C630 C638 1.378 . S
C631 C630 1.367 . S
C631 C639 1.433 . S
C632 H628 0.929 . S
C632 C634 1.378 . S
C632 C636 1.350 . S
C633 C636 1.463 . S
C633 C638 1.350 . S
C633 N641 1.427 . S
C634 H625 0.930 . S
C634 C632 1.378 . S
C634 C635 1.367 . S
C635 C634 1.367 . S
C635 C637 1.433 . S
C636 C632 1.350 . S
C636 C633 1.463 . S
C636 N640 1.427 . S
C637 H627 0.929 . S
C637 C635 1.433 . S
C637 N640 1.384 . S
C638 H629 0.929 . S
C638 C630 1.378 . S
C638 C633 1.350 . S
C639 H626 0.929 . S
C639 C631 1.433 . S
C639 N641 1.384 . S
N640 C636 1.427 . S
N640 C637 1.384 . S
N641 C633 1.427 . S
N641 C639 1.384 . S
H642 C648 0.930 . S
H643 C652 0.930 . S
H644 C657 0.929 . S
H645 C655 0.929 . S
H646 C650 0.929 . S
H647 C656 0.929 . S
C648 H642 0.930 . S
C648 C649 1.367 . S
C648 C656 1.378 . S
C649 C648 1.367 . S
C649 C657 1.433 . S
C650 H646 0.929 . S
C650 C652 1.378 . S
C650 C654 1.350 . S
C651 C654 1.463 . S
C651 C656 1.350 . S
C651 N659 1.427 . S
C652 H643 0.930 . S
C652 C650 1.378 . S
C652 C653 1.367 . S
C653 C652 1.367 . S
C653 C655 1.433 . S
C654 C650 1.350 . S
C654 C651 1.463 . S
C654 N658 1.427 . S
C655 H645 0.929 . S
C655 C653 1.433 . S
C655 N658 1.384 . S
C656 H647 0.929 . S
C656 C648 1.378 . S
C656 C651 1.350 . S
C657 H644 0.929 . S
C657 C649 1.433 . S
C657 N659 1.384 . S
N658 C654 1.427 . S
N658 C655 1.384 . S
N659 C651 1.427 . S
N659 C657 1.384 . S
H660 C666 0.930 . S
H661 C670 0.930 . S
H662 C675 0.929 . S
H663 C673 0.929 . S
H664 C668 0.929 . S
H665 C674 0.929 . S
C666 H660 0.930 . S
C666 C667 1.367 . S
C666 C674 1.378 . S
C667 C666 1.367 . S
C667 C675 1.433 . S
C668 H664 0.929 . S
C668 C670 1.378 . S
C668 C672 1.350 . S
C669 C672 1.463 . S
C669 C674 1.350 . S
C669 N677 1.427 . S
C670 H661 0.930 . S
C670 C668 1.378 . S
C670 C671 1.367 . S
C671 C670 1.367 . S
C671 C673 1.433 . S
C672 C668 1.350 . S
C672 C669 1.463 . S
C672 N676 1.427 . S
C673 H663 0.929 . S
C673 C671 1.433 . S
C673 N676 1.384 . S
C674 H665 0.929 . S
C674 C666 1.378 . S
C674 C669 1.350 . S
C675 H662 0.929 . S
C675 C667 1.433 . S
C675 N677 1.384 . S
N676 C672 1.427 . S
N676 C673 1.384 . S
N677 C669 1.427 . S
N677 C675 1.384 . S
H678 C684 0.930 . S
H679 C688 0.930 . S
H680 C693 0.929 . S
H681 C691 0.929 . S
H682 C686 0.929 . S
H683 C692 0.929 . S
C684 H678 0.930 . S
C684 C685 1.367 . S
C684 C692 1.378 . S
C685 C684 1.367 . S
C685 C693 1.433 . S
C686 H682 0.929 . S
C686 C688 1.378 . S
C686 C690 1.350 . S
C687 C690 1.463 . S
C687 C692 1.350 . S
C687 N695 1.427 . S
C688 H679 0.930 . S
C688 C686 1.378 . S
C688 C689 1.367 . S
C689 C688 1.367 . S
C689 C691 1.433 . S
C690 C686 1.350 . S
C690 C687 1.463 . S
C690 N694 1.427 . S
C691 H681 0.929 . S
C691 C689 1.433 . S
C691 N694 1.384 . S
C692 H683 0.929 . S
C692 C684 1.378 . S
C692 C687 1.350 . S
C693 H680 0.929 . S
C693 C685 1.433 . S
C693 N695 1.384 . S
N694 C690 1.427 . S
N694 C691 1.384 . S
N695 C687 1.427 . S
N695 C693 1.384 . S
H696 C702 0.930 . S
H697 C706 0.930 . S
H698 C711 0.929 . S
H699 C709 0.929 . S
H700 C704 0.929 . S
H701 C710 0.929 . S
C702 H696 0.930 . S
C702 C703 1.367 . S
C702 C710 1.378 . S
C703 C702 1.367 . S
C703 C711 1.433 . S
C704 H700 0.929 . S
C704 C706 1.378 . S
C704 C708 1.350 . S
C705 C708 1.463 . S
C705 C710 1.350 . S
C705 N713 1.427 . S
C706 H697 0.930 . S
C706 C704 1.378 . S
C706 C707 1.367 . S
C707 C706 1.367 . S
C707 C709 1.433 . S
C708 C704 1.350 . S
C708 C705 1.463 . S
C708 N712 1.427 . S
C709 H699 0.929 . S
C709 C707 1.433 . S
C709 N712 1.384 . S
C710 H701 0.929 . S
C710 C702 1.378 . S
C710 C705 1.350 . S
C711 H698 0.929 . S
C711 C703 1.433 . S
C711 N713 1.384 . S
N712 C708 1.427 . S
N712 C709 1.384 . S
N713 C705 1.427 . S
N713 C711 1.384 . S
H714 C720 0.930 . S
H715 C724 0.930 . S
H716 C729 0.929 . S
H717 C727 0.929 . S
H718 C722 0.929 . S
H719 C728 0.929 . S
C720 H714 0.930 . S
C720 C721 1.367 . S
C720 C728 1.378 . S
C721 C720 1.367 . S
C721 C729 1.433 . S
C722 H718 0.929 . S
C722 C724 1.378 . S
C722 C726 1.350 . S
C723 C726 1.463 . S
C723 C728 1.350 . S
C723 N731 1.427 . S
C724 H715 0.930 . S
C724 C722 1.378 . S
C724 C725 1.367 . S
C725 C724 1.367 . S
C725 C727 1.433 . S
C726 C722 1.350 . S
C726 C723 1.463 . S
C726 N730 1.427 . S
C727 H717 0.929 . S
C727 C725 1.433 . S
C727 N730 1.384 . S
C728 H719 0.929 . S
C728 C720 1.378 . S
C728 C723 1.350 . S
C729 H716 0.929 . S
C729 C721 1.433 . S
C729 N731 1.384 . S
N730 C726 1.427 . S
N730 C727 1.384 . S
N731 C723 1.427 . S
N731 C729 1.384 . S
H732 C738 0.930 . S
H733 C742 0.930 . S
H734 C747 0.929 . S
H735 C745 0.929 . S
H736 C740 0.929 . S
H737 C746 0.929 . S
C738 H732 0.930 . S
C738 C739 1.367 . S
C738 C746 1.378 . S
C739 C738 1.367 . S
C739 C747 1.433 . S
C740 H736 0.929 . S
C740 C742 1.378 . S
C740 C744 1.350 . S
C741 C744 1.463 . S
C741 C746 1.350 . S
C741 N749 1.427 . S
C742 H733 0.930 . S
C742 C740 1.378 . S
C742 C743 1.367 . S
C743 C742 1.367 . S
C743 C745 1.433 . S
C744 C740 1.350 . S
C744 C741 1.463 . S
C744 N748 1.427 . S
C745 H735 0.929 . S
C745 C743 1.433 . S
C745 N748 1.384 . S
C746 H737 0.929 . S
C746 C738 1.378 . S
C746 C741 1.350 . S
C747 H734 0.929 . S
C747 C739 1.433 . S
C747 N749 1.384 . S
N748 C744 1.427 . S
N748 C745 1.384 . S
N749 C741 1.427 . S
N749 C747 1.384 . S
H750 C756 0.930 . S
H751 C760 0.930 . S
H752 C765 0.929 . S
H753 C763 0.929 . S
H754 C758 0.929 . S
H755 C764 0.929 . S
C756 H750 0.930 . S
C756 C757 1.367 . S
C756 C764 1.378 . S
C757 C756 1.367 . S
C757 C765 1.433 . S
C758 H754 0.929 . S
C758 C760 1.378 . S
C758 C762 1.350 . S
C759 C762 1.463 . S
C759 C764 1.350 . S
C759 N767 1.427 . S
C760 H751 0.930 . S
C760 C758 1.378 . S
C760 C761 1.367 . S
C761 C760 1.367 . S
C761 C763 1.433 . S
C762 C758 1.350 . S
C762 C759 1.463 . S
C762 N766 1.427 . S
C763 H753 0.929 . S
C763 C761 1.433 . S
C763 N766 1.384 . S
C764 H755 0.929 . S
C764 C756 1.378 . S
C764 C759 1.350 . S
C765 H752 0.929 . S
C765 C757 1.433 . S
C765 N767 1.384 . S
N766 C762 1.427 . S
N766 C763 1.384 . S
N767 C759 1.427 . S
N767 C765 1.384 . S
H768 C774 0.930 . S
H769 C778 0.930 . S
H770 C783 0.929 . S
H771 C781 0.929 . S
H772 C776 0.929 . S
H773 C782 0.929 . S
C774 H768 0.930 . S
C774 C775 1.367 . S
C774 C782 1.378 . S
C775 C774 1.367 . S
C775 C783 1.433 . S
C776 H772 0.929 . S
C776 C778 1.378 . S
C776 C780 1.350 . S
C777 C780 1.463 . S
C777 C782 1.350 . S
C777 N785 1.427 . S
C778 H769 0.930 . S
C778 C776 1.378 . S
C778 C779 1.367 . S
C779 C778 1.367 . S
C779 C781 1.433 . S
C780 C776 1.350 . S
C780 C777 1.463 . S
C780 N784 1.427 . S
C781 H771 0.929 . S
C781 C779 1.433 . S
C781 N784 1.384 . S
C782 H773 0.929 . S
C782 C774 1.378 . S
C782 C777 1.350 . S
C783 H770 0.929 . S
C783 C775 1.433 . S
C783 N785 1.384 . S
N784 C780 1.427 . S
N784 C781 1.384 . S
N785 C777 1.427 . S
N785 C783 1.384 . S
H786 C792 0.930 . S
H787 C796 0.930 . S
H788 C801 0.929 . S
H789 C799 0.929 . S
H790 C794 0.929 . S
H791 C800 0.929 1_556 S
C792 H786 0.930 . S
C792 C793 1.367 . S
C792 C800 1.378 . S
C793 C792 1.367 . S
C793 C801 1.433 . S
C794 H790 0.929 . S
C794 C796 1.378 . S
C794 C798 1.350 . S
C795 C798 1.463 . S
C795 C800 1.350 1_556 S
C795 N803 1.427 1_556 S
C796 H787 0.930 . S
C796 C794 1.378 . S
C796 C797 1.367 . S
C797 C796 1.367 . S
C797 C799 1.433 . S
C798 C794 1.350 . S
C798 C795 1.463 . S
C798 N802 1.427 . S
C799 H789 0.929 . S
C799 C797 1.433 . S
C799 N802 1.384 . S
C800 H791 0.929 1_554 S
C800 C792 1.378 . S
C800 C795 1.350 1_554 S
C801 H788 0.929 . S
C801 C793 1.433 . S
C801 N803 1.384 . S
N802 C798 1.427 . S
N802 C799 1.384 . S
N803 C795 1.427 1_554 S
N803 C801 1.384 . S
H804 C810 0.930 . S
H805 C814 0.930 . S
H806 C819 0.929 . S
H807 C817 0.929 . S
H808 C812 0.929 . S
H809 C818 0.929 . S
C810 H804 0.930 . S
C810 C811 1.367 . S
C810 C818 1.378 . S
C811 C810 1.367 . S
C811 C819 1.433 . S
C812 H808 0.929 . S
C812 C814 1.378 . S
C812 C816 1.350 . S
C813 C816 1.463 . S
C813 C818 1.350 . S
C813 N821 1.427 . S
C814 H805 0.930 . S
C814 C812 1.378 . S
C814 C815 1.367 . S
C815 C814 1.367 . S
C815 C817 1.433 . S
C816 C812 1.350 . S
C816 C813 1.463 . S
C816 N820 1.427 . S
C817 H807 0.929 . S
C817 C815 1.433 . S
C817 N820 1.384 . S
C818 H809 0.929 . S
C818 C810 1.378 . S
C818 C813 1.350 . S
C819 H806 0.929 . S
C819 C811 1.433 . S
C819 N821 1.384 . S
N820 C816 1.427 . S
N820 C817 1.384 . S
N821 C813 1.427 . S
N821 C819 1.384 . S
H822 C828 0.930 . S
H823 C832 0.930 . S
H824 C837 0.929 . S
H825 C835 0.929 . S
H826 C830 0.929 1_554 S
H827 C836 0.929 . S
C828 H822 0.930 . S
C828 C829 1.367 . S
C828 C836 1.378 . S
C829 C828 1.367 . S
C829 C837 1.433 . S
C830 H826 0.929 1_556 S
C830 C832 1.378 . S
C830 C834 1.350 1_556 S
C831 C834 1.463 . S
C831 C836 1.350 . S
C831 N839 1.427 . S
C832 H823 0.930 . S
C832 C830 1.378 . S
C832 C833 1.367 . S
C833 C832 1.367 . S
C833 C835 1.433 . S
C834 C830 1.350 1_554 S
C834 C831 1.463 . S
C834 N838 1.442 . S
C835 H825 0.929 . S
C835 C833 1.433 . S
C835 N838 1.344 1_556 S
C836 H827 0.929 . S
C836 C828 1.378 . S
C836 C831 1.350 . S
C837 H824 0.929 . S
C837 C829 1.433 . S
C837 N839 1.384 . S
N838 C834 1.442 . S
N838 C835 1.344 1_554 S
N839 C831 1.427 . S
N839 C837 1.384 . S
H840 C846 0.930 . S
H841 C850 0.930 . S
H842 C855 0.929 . S
H843 C853 0.929 . S
H844 C848 0.929 . S
H845 C854 0.929 . S
C846 H840 0.930 . S
C846 C847 1.367 . S
C846 C854 1.378 . S
C847 C846 1.367 . S
C847 C855 1.433 . S
C848 H844 0.929 . S
C848 C850 1.378 . S
C848 C852 1.350 . S
C849 C852 1.463 . S
C849 C854 1.350 . S
C849 N857 1.427 . S
C850 H841 0.930 . S
C850 C848 1.378 . S
C850 C851 1.367 . S
C851 C850 1.367 . S
C851 C853 1.433 . S
C852 C848 1.350 . S
C852 C849 1.463 . S
C852 N856 1.427 . S
C853 H843 0.929 . S
C853 C851 1.433 . S
C853 N856 1.384 . S
C854 H845 0.929 . S
C854 C846 1.378 . S
C854 C849 1.350 . S
C855 H842 0.929 . S
C855 C847 1.433 . S
C855 N857 1.384 . S
N856 C852 1.427 . S
N856 C853 1.384 . S
N857 C849 1.427 . S
N857 C855 1.384 . S
H858 C864 0.930 . S
H859 C868 0.930 . S
H860 C873 0.929 . S
H861 C871 0.929 . S
H862 C866 0.929 . S
H863 C872 0.929 . S
C864 H858 0.930 . S
C864 C865 1.367 . S
C864 C872 1.378 1_655 S
C865 C864 1.367 . S
C865 C873 1.433 . S
C866 H862 0.929 . S
C866 C868 1.378 . S
C866 C870 1.350 . S
C867 C870 1.463 . S
C867 C872 1.350 . S
C867 N875 1.425 1_455 S
C868 H859 0.930 . S
C868 C866 1.378 . S
C868 C869 1.367 . S
C869 C868 1.367 . S
C869 C871 1.433 . S
C870 C866 1.350 . S
C870 C867 1.463 . S
C870 N874 1.427 . S
C871 H861 0.929 . S
C871 C869 1.433 . S
C871 N874 1.384 . S
C872 H863 0.929 . S
C872 C864 1.378 1_455 S
C872 C867 1.350 . S
C873 H860 0.929 . S
C873 C865 1.433 . S
C873 N875 1.387 . S
N874 C870 1.427 . S
N874 C871 1.384 . S
N875 C867 1.425 1_655 S
N875 C873 1.387 . S
H876 C882 0.930 . S
H877 C886 0.930 . S
H878 C891 0.929 . S
H879 C889 0.929 . S
H880 C884 0.929 . S
H881 C890 0.929 . S
C882 H876 0.930 . S
C882 C883 1.367 . S
C882 C890 1.378 1_455 S
C883 C882 1.367 . S
C883 C891 1.433 . S
C884 H880 0.929 . S
C884 C886 1.378 . S
C884 C888 1.350 . S
C885 C888 1.463 . S
C885 C890 1.350 . S
C885 N893 1.427 . S
C886 H877 0.930 . S
C886 C884 1.378 . S
C886 C887 1.367 . S
C887 C886 1.367 . S
C887 C889 1.433 . S
C888 C884 1.350 . S
C888 C885 1.463 . S
C888 N892 1.427 . S
C889 H879 0.929 . S
C889 C887 1.433 . S
C889 N892 1.384 . S
C890 H881 0.929 . S
C890 C882 1.378 1_655 S
C890 C885 1.350 . S
C891 H878 0.929 . S
C891 C883 1.433 . S
C891 N893 1.384 1_455 S
N892 C888 1.427 . S
N892 C889 1.384 . S
N893 C885 1.427 . S
N893 C891 1.384 1_655 S
H894 C900 0.930 . S
H895 C904 0.930 . S
H896 C909 0.929 . S
H897 C907 0.929 . S
H898 C902 0.929 . S
H899 C908 0.929 . S
C900 H894 0.930 . S
C900 C901 1.367 . S
C900 C908 1.378 . S
C901 C900 1.367 . S
C901 C909 1.433 . S
C902 H898 0.929 . S
C902 C904 1.378 . S
C902 C906 1.350 . S
C903 C906 1.463 . S
C903 C908 1.350 . S
C903 N911 1.427 . S
C904 H895 0.930 . S
C904 C902 1.378 . S
C904 C905 1.367 . S
C905 C904 1.367 . S
C905 C907 1.433 . S
C906 C902 1.350 . S
C906 C903 1.463 . S
C906 N910 1.427 . S
C907 H897 0.929 . S
C907 C905 1.433 . S
C907 N910 1.384 . S
C908 H899 0.929 . S
C908 C900 1.378 . S
C908 C903 1.350 . S
C909 H896 0.929 . S
C909 C901 1.433 . S
C909 N911 1.384 . S
N910 C906 1.427 . S
N910 C907 1.384 . S
N911 C903 1.427 . S
N911 C909 1.384 . S
H912 C918 0.930 . S
H913 C922 0.930 . S
H914 C927 0.929 . S
H915 C925 0.929 . S
H916 C920 0.929 . S
H917 C926 0.929 . S
C918 H912 0.930 . S
C918 C919 1.367 . S
C918 C926 1.378 . S
C919 C918 1.367 . S
C919 C927 1.433 . S
C920 H916 0.929 . S
C920 C922 1.378 . S
C920 C924 1.350 . S
C921 C924 1.463 . S
C921 C926 1.350 . S
C921 N929 1.427 . S
C922 H913 0.930 . S
C922 C920 1.378 . S
C922 C923 1.367 . S
C923 C922 1.367 . S
C923 C925 1.433 . S
C924 C920 1.350 . S
C924 C921 1.463 . S
C924 N928 1.427 . S
C925 H915 0.929 . S
C925 C923 1.433 . S
C925 N928 1.384 . S
C926 H917 0.929 . S
C926 C918 1.378 . S
C926 C921 1.350 . S
C927 H914 0.929 . S
C927 C919 1.433 . S
C927 N929 1.384 . S
N928 C924 1.427 . S
N928 C925 1.384 . S
N929 C921 1.427 . S
N929 C927 1.384 . S
H930 C936 0.930 . S
H931 C940 0.930 . S
H932 C945 0.929 . S
H933 C943 0.929 . S
H934 C938 0.929 . S
H935 C944 0.929 1_545 S
C936 H930 0.930 . S
C936 C937 1.367 . S
C936 C944 1.378 . S
C937 C936 1.367 . S
C937 C945 1.433 . S
C938 H934 0.929 . S
C938 C940 1.378 . S
C938 C942 1.350 . S
C939 C942 1.463 . S
C939 C944 1.350 1_545 S
C939 N947 1.427 . S
C940 H931 0.930 . S
C940 C938 1.378 . S
C940 C941 1.367 . S
C941 C940 1.367 . S
C941 C943 1.433 . S
C942 C938 1.350 . S
C942 C939 1.463 . S
C942 N946 1.427 . S
C943 H933 0.929 . S
C943 C941 1.433 . S
C943 N946 1.384 . S
C944 H935 0.929 1_565 S
C944 C936 1.378 . S
C944 C939 1.350 1_565 S
C945 H932 0.929 . S
C945 C937 1.433 . S
C945 N947 1.384 1_565 S
N946 C942 1.427 . S
N946 C943 1.384 . S
N947 C939 1.427 . S
N947 C945 1.384 1_545 S
H948 C954 0.930 . S
H949 C958 0.930 . S
H950 C963 0.929 . S
H951 C961 0.929 . S
H952 C956 0.929 . S
H953 C962 0.929 . S
C954 H948 0.930 . S
C954 C955 1.367 . S
C954 C962 1.378 1_545 S
C955 C954 1.367 . S
C955 C963 1.433 . S
C956 H952 0.929 . S
C956 C958 1.378 . S
C956 C960 1.350 . S
C957 C960 1.463 . S
C957 C962 1.350 . S
C957 N965 1.427 1_565 S
C958 H949 0.930 . S
C958 C956 1.378 . S
C958 C959 1.367 . S
C959 C958 1.367 . S
C959 C961 1.433 . S
C960 C956 1.350 . S
C960 C957 1.463 . S
C960 N964 1.427 . S
C961 H951 0.929 . S
C961 C959 1.433 . S
C961 N964 1.384 . S
C962 H953 0.929 . S
C962 C954 1.378 1_565 S
C962 C957 1.350 . S
C963 H950 0.929 . S
C963 C955 1.433 . S
C963 N965 1.384 . S
N964 C960 1.427 . S
N964 C961 1.384 . S
N965 C957 1.427 1_545 S
N965 C963 1.384 . S
H966 C972 0.930 . S
H967 C976 0.930 . S
H968 C981 0.929 . S
H969 C979 0.929 . S
H970 C974 0.929 . S
H971 C980 0.929 . S
C972 H966 0.930 . S
C972 C973 1.367 . S
C972 C980 1.378 . S
C973 C972 1.367 . S
C973 C981 1.433 . S
C974 H970 0.929 . S
C974 C976 1.378 . S
C974 C978 1.350 . S
C975 C978 1.463 . S
C975 C980 1.350 . S
C975 N983 1.427 . S
C976 H967 0.930 . S
C976 C974 1.378 . S
C976 C977 1.367 . S
C977 C976 1.367 . S
C977 C979 1.433 . S
C978 C974 1.350 . S
C978 C975 1.463 . S
C978 N982 1.427 . S
C979 H969 0.929 . S
C979 C977 1.433 . S
C979 N982 1.384 . S
C980 H971 0.929 . S
C980 C972 1.378 . S
C980 C975 1.350 . S
C981 H968 0.929 . S
C981 C973 1.433 . S
C981 N983 1.384 . S
N982 C978 1.427 . S
N982 C979 1.384 . S
N983 C975 1.427 . S
N983 C981 1.384 . S
H984 C990 0.930 . S
H985 C994 0.930 . S
H986 C999 0.929 . S
H987 C997 0.929 . S
H988 C992 0.929 . S
H989 C998 0.929 . S
C990 H984 0.930 . S
C990 C991 1.367 . S
C990 C998 1.378 . S
C991 C990 1.367 . S
C991 C999 1.433 . S
C992 H988 0.929 . S
C992 C994 1.378 . S
C992 C996 1.350 . S
C993 C996 1.463 . S
C993 C998 1.350 . S
C993 N1001 1.427 . S
C994 H985 0.930 . S
C994 C992 1.378 . S
C994 C995 1.367 . S
C995 C994 1.367 . S
C995 C997 1.433 . S
C996 C992 1.350 . S
C996 C993 1.463 . S
C996 N1000 1.427 . S
C997 H987 0.929 . S
C997 C995 1.433 . S
C997 N1000 1.384 . S
C998 H989 0.929 . S
C998 C990 1.378 . S
C998 C993 1.350 . S
C999 H986 0.929 . S
C999 C991 1.433 . S
C999 N1001 1.384 . S
N1000 C996 1.427 . S
N1000 C997 1.384 . S
N1001 C993 1.427 . S
N1001 C999 1.384 . S
H1002 C1008 0.930 . S
H1003 C1012 0.930 . S
H1004 C1017 0.929 . S
H1005 C1015 0.929 . S
H1006 C1010 0.929 . S
H1007 C1016 0.929 . S
C1008 H1002 0.930 . S
C1008 C1009 1.367 . S
C1008 C1016 1.378 1_556 S
C1009 C1008 1.367 . S
C1009 C1017 1.433 . S
C1010 H1006 0.929 . S
C1010 C1012 1.378 . S
C1010 C1014 1.350 . S
C1011 C1014 1.463 . S
C1011 C1016 1.350 . S
C1011 N1019 1.427 . S
C1012 H1003 0.930 . S
C1012 C1010 1.378 . S
C1012 C1013 1.367 . S
C1013 C1012 1.367 . S
C1013 C1015 1.433 . S
C1014 C1010 1.350 . S
C1014 C1011 1.463 . S
C1014 N1018 1.427 . S
C1015 H1005 0.929 . S
C1015 C1013 1.433 . S
C1015 N1018 1.384 . S
C1016 H1007 0.929 . S
C1016 C1008 1.378 1_554 S
C1016 C1011 1.350 . S
C1017 H1004 0.929 . S
C1017 C1009 1.433 . S
C1017 N1019 1.384 1_556 S
N1018 C1014 1.427 . S
N1018 C1015 1.384 . S
N1019 C1011 1.427 . S
N1019 C1017 1.384 1_554 S
H1020 C1026 0.930 . S
H1021 C1030 0.930 . S
H1022 C1035 0.929 . S
H1023 C1033 0.929 . S
H1024 C1028 0.929 . S
H1025 C1034 0.929 . S
C1026 H1020 0.930 . S
C1026 C1027 1.367 . S
C1026 C1034 1.378 . S
C1027 C1026 1.367 . S
C1027 C1035 1.433 . S
C1028 H1024 0.929 . S
C1028 C1030 1.378 . S
C1028 C1032 1.350 . S
C1029 C1032 1.463 . S
C1029 C1034 1.350 . S
C1029 N1037 1.427 . S
C1030 H1021 0.930 . S
C1030 C1028 1.378 . S
C1030 C1031 1.367 . S
C1031 C1030 1.367 . S
C1031 C1033 1.433 . S
C1032 C1028 1.350 . S
C1032 C1029 1.463 . S
C1032 N1036 1.427 . S
C1033 H1023 0.929 . S
C1033 C1031 1.433 . S
C1033 N1036 1.384 . S
C1034 H1025 0.929 . S
C1034 C1026 1.378 . S
C1034 C1029 1.350 . S
C1035 H1022 0.929 . S
C1035 C1027 1.433 . S
C1035 N1037 1.384 . S
N1036 C1032 1.427 . S
N1036 C1033 1.384 . S
N1037 C1029 1.427 . S
N1037 C1035 1.384 . S
H1038 C1044 0.930 . S
H1039 C1048 0.930 . S
H1040 C1053 0.929 . S
H1041 C1051 0.929 . S
H1042 C1046 0.929 . S
H1043 C1052 0.926 1_556 S
C1044 H1038 0.930 . S
C1044 C1045 1.367 . S
C1044 C1052 1.388 . S
C1045 C1044 1.367 . S
C1045 C1053 1.433 . S
C1046 H1042 0.929 . S
C1046 C1048 1.378 . S
C1046 C1050 1.350 . S
C1047 C1050 1.463 . S
C1047 C1052 1.343 1_556 S
C1047 N1055 1.427 . S
C1048 H1039 0.930 . S
C1048 C1046 1.378 . S
C1048 C1049 1.367 . S
C1049 C1048 1.367 . S
C1049 C1051 1.433 . S
C1050 C1046 1.350 . S
C1050 C1047 1.463 . S
C1050 N1054 1.427 . S
C1051 H1041 0.929 . S
C1051 C1049 1.433 . S
C1051 N1054 1.384 . S
C1052 H1043 0.926 1_554 S
C1052 C1044 1.388 . S
C1052 C1047 1.343 1_554 S
C1053 H1040 0.929 . S
C1053 C1045 1.433 . S
C1053 N1055 1.384 1_554 S
N1054 C1050 1.427 . S
N1054 C1051 1.384 . S
N1055 C1047 1.427 . S
N1055 C1053 1.384 1_556 S
H1056 C1062 0.930 . S
H1057 C1066 0.930 . S
H1058 C1071 0.929 . S
H1059 C1069 0.929 . S
H1060 C1064 0.929 . S
H1061 C1070 0.929 . S
C1062 H1056 0.930 . S
C1062 C1063 1.367 . S
C1062 C1070 1.378 . S
C1063 C1062 1.367 . S
C1063 C1071 1.433 . S
C1064 H1060 0.929 . S
C1064 C1066 1.378 . S
C1064 C1068 1.350 . S
C1065 C1068 1.463 . S
C1065 C1070 1.350 . S
C1065 N1073 1.427 . S
C1066 H1057 0.930 . S
C1066 C1064 1.378 . S
C1066 C1067 1.367 . S
C1067 C1066 1.367 . S
C1067 C1069 1.433 . S
C1068 C1064 1.350 . S
C1068 C1065 1.463 . S
C1068 N1072 1.427 . S
C1069 H1059 0.929 . S
C1069 C1067 1.433 . S
C1069 N1072 1.384 . S
C1070 H1061 0.929 . S
C1070 C1062 1.378 . S
C1070 C1065 1.350 . S
C1071 H1058 0.929 . S
C1071 C1063 1.433 . S
C1071 N1073 1.384 . S
N1072 C1068 1.427 . S
N1072 C1069 1.384 . S
N1073 C1065 1.427 . S
N1073 C1071 1.384 . S
H1074 C1080 0.930 . S
H1075 C1084 0.930 . S
H1076 C1089 0.929 . S
H1077 C1087 0.929 . S
H1078 C1082 0.929 . S
H1079 C1088 0.929 . S
C1080 H1074 0.930 . S
C1080 C1081 1.367 . S
C1080 C1088 1.378 . S
C1081 C1080 1.367 . S
C1081 C1089 1.433 . S
C1082 H1078 0.929 . S
C1082 C1084 1.378 . S
C1082 C1086 1.350 1_455 S
C1083 C1086 1.463 . S
C1083 C1088 1.350 . S
C1083 N1091 1.427 . S
C1084 H1075 0.930 . S
C1084 C1082 1.378 . S
C1084 C1085 1.367 . S
C1085 C1084 1.367 . S
C1085 C1087 1.433 . S
C1086 C1082 1.350 1_655 S
C1086 C1083 1.463 . S
C1086 N1090 1.427 . S
C1087 H1077 0.929 . S
C1087 C1085 1.433 . S
C1087 N1090 1.384 1_455 S
C1088 H1079 0.929 . S
C1088 C1080 1.378 . S
C1088 C1083 1.350 . S
C1089 H1076 0.929 . S
C1089 C1081 1.433 . S
C1089 N1091 1.384 . S
N1090 C1086 1.427 . S
N1090 C1087 1.384 1_655 S
N1091 C1083 1.427 . S
N1091 C1089 1.384 . S
H1092 C1098 0.930 . S
H1093 C1102 0.930 . S
H1094 C1107 0.929 . S
H1095 C1105 0.929 . S
H1096 C1100 0.918 1_455 S
H1097 C1106 0.929 . S
C1098 H1092 0.930 . S
C1098 C1099 1.367 . S
C1098 C1106 1.378 . S
C1099 C1098 1.367 . S
C1099 C1107 1.433 . S
C1100 H1096 0.918 1_655 S
C1100 C1102 1.378 . S
C1100 C1104 1.350 1_655 S
C1101 C1104 1.463 . S
C1101 C1106 1.350 . S
C1101 N1109 1.427 . S
C1102 H1093 0.930 . S
C1102 C1100 1.378 . S
C1102 C1103 1.367 . S
C1103 C1102 1.367 . S
C1103 C1105 1.433 . S
C1104 C1100 1.350 1_455 S
C1104 C1101 1.463 . S
C1104 N1108 1.427 . S
C1105 H1095 0.929 . S
C1105 C1103 1.433 . S
C1105 N1108 1.384 1_655 S
C1106 H1097 0.929 . S
C1106 C1098 1.378 . S
C1106 C1101 1.350 . S
C1107 H1094 0.929 . S
C1107 C1099 1.433 . S
C1107 N1109 1.384 . S
N1108 C1104 1.427 . S
N1108 C1105 1.384 1_455 S
N1109 C1101 1.427 . S
N1109 C1107 1.384 . S
H1110 C1116 0.930 . S
H1111 C1120 0.930 . S
H1112 C1125 0.929 . S
H1113 C1123 0.929 . S
H1114 C1118 0.929 . S
H1115 C1124 0.929 . S
C1116 H1110 0.930 . S
C1116 C1117 1.367 . S
C1116 C1124 1.378 . S
C1117 C1116 1.367 . S
C1117 C1125 1.433 . S
C1118 H1114 0.929 . S
C1118 C1120 1.378 . S
C1118 C1122 1.350 . S
C1119 C1122 1.463 . S
C1119 C1124 1.350 . S
C1119 N1127 1.427 . S
C1120 H1111 0.930 . S
C1120 C1118 1.378 . S
C1120 C1121 1.367 . S
C1121 C1120 1.367 . S
C1121 C1123 1.433 . S
C1122 C1118 1.350 . S
C1122 C1119 1.463 . S
C1122 N1126 1.427 . S
C1123 H1113 0.929 . S
C1123 C1121 1.433 . S
C1123 N1126 1.384 . S
C1124 H1115 0.929 . S
C1124 C1116 1.378 . S
C1124 C1119 1.350 . S
C1125 H1112 0.929 . S
C1125 C1117 1.433 . S
C1125 N1127 1.384 . S
N1126 C1122 1.427 . S
N1126 C1123 1.384 . S
N1127 C1119 1.427 . S
N1127 C1125 1.384 . S
H1128 C1134 0.930 . S
H1129 C1138 0.930 . S
H1130 C1143 0.929 . S
H1131 C1141 0.929 . S
H1132 C1136 0.929 . S
H1133 C1142 0.929 . S
C1134 H1128 0.930 . S
C1134 C1135 1.367 . S
C1134 C1142 1.378 . S
C1135 C1134 1.367 . S
C1135 C1143 1.433 . S
C1136 H1132 0.929 . S
C1136 C1138 1.378 . S
C1136 C1140 1.350 . S
C1137 C1140 1.463 . S
C1137 C1142 1.350 . S
C1137 N1145 1.427 . S
C1138 H1129 0.930 . S
C1138 C1136 1.378 . S
C1138 C1139 1.367 . S
C1139 C1138 1.367 . S
C1139 C1141 1.433 . S
C1140 C1136 1.350 . S
C1140 C1137 1.463 . S
C1140 N1144 1.427 . S
C1141 H1131 0.929 . S
C1141 C1139 1.433 . S
C1141 N1144 1.384 . S
C1142 H1133 0.929 . S
C1142 C1134 1.378 . S
C1142 C1137 1.350 . S
C1143 H1130 0.929 . S
C1143 C1135 1.433 . S
C1143 N1145 1.384 . S
N1144 C1140 1.427 . S
N1144 C1141 1.384 . S
N1145 C1137 1.427 . S
N1145 C1143 1.384 . S
H1146 C1152 0.930 . S
H1147 C1156 0.930 . S
H1148 C1161 0.929 . S
H1149 C1159 0.929 . S
H1150 C1154 0.929 . S
H1151 C1160 0.929 . S
C1152 H1146 0.930 . S
C1152 C1153 1.367 . S
C1152 C1160 1.378 . S
C1153 C1152 1.367 . S
C1153 C1161 1.433 . S
C1154 H1150 0.929 . S
C1154 C1156 1.378 1_565 S
C1154 C1158 1.350 . S
C1155 C1158 1.463 . S
C1155 C1160 1.350 . S
C1155 N1163 1.427 . S
C1156 H1147 0.930 . S
C1156 C1154 1.378 1_545 S
C1156 C1157 1.367 . S
C1157 C1156 1.367 . S
C1157 C1159 1.433 . S
C1158 C1154 1.350 . S
C1158 C1155 1.463 . S
C1158 N1162 1.427 1_565 S
C1159 H1149 0.929 . S
C1159 C1157 1.433 . S
C1159 N1162 1.384 . S
C1160 H1151 0.929 . S
C1160 C1152 1.378 . S
C1160 C1155 1.350 . S
C1161 H1148 0.929 . S
C1161 C1153 1.433 . S
C1161 N1163 1.384 . S
N1162 C1158 1.427 1_545 S
N1162 C1159 1.384 . S
N1163 C1155 1.427 . S
N1163 C1161 1.384 . S
H1164 C1170 0.930 . S
H1165 C1174 0.930 . S
H1166 C1179 0.929 . S
H1167 C1177 0.929 . S
H1168 C1172 0.929 . S
H1169 C1178 0.927 1_545 S
C1170 H1164 0.930 . S
C1170 C1171 1.367 . S
C1170 C1178 1.378 . S
C1171 C1170 1.367 . S
C1171 C1179 1.433 . S
C1172 H1168 0.929 . S
C1172 C1174 1.378 . S
C1172 C1176 1.350 . S
C1173 C1176 1.463 . S
C1173 C1178 1.350 1_545 S
C1173 N1181 1.427 . S
C1174 H1165 0.930 . S
C1174 C1172 1.378 . S
C1174 C1175 1.367 . S
C1175 C1174 1.367 . S
C1175 C1177 1.433 . S
C1176 C1172 1.350 . S
C1176 C1173 1.463 . S
C1176 N1180 1.427 . S
C1177 H1167 0.929 . S
C1177 C1175 1.433 . S
C1177 N1180 1.384 . S
C1178 H1169 0.927 1_565 S
C1178 C1170 1.378 . S
C1178 C1173 1.350 1_565 S
C1179 H1166 0.929 . S
C1179 C1171 1.433 . S
C1179 N1181 1.384 1_565 S
N1180 C1176 1.427 . S
N1180 C1177 1.384 . S
N1181 C1173 1.427 . S
N1181 C1179 1.384 1_545 S
H1182 C1188 0.930 . S
H1183 C1192 0.930 . S
H1184 C1197 0.929 . S
H1185 C1195 0.929 . S
H1186 C1190 0.929 . S
H1187 C1196 0.929 . S
C1188 H1182 0.930 . S
C1188 C1189 1.367 . S
C1188 C1196 1.378 . S
C1189 C1188 1.367 . S
C1189 C1197 1.433 . S
C1190 H1186 0.929 . S
C1190 C1192 1.378 . S
C1190 C1194 1.350 . S
C1191 C1194 1.463 . S
C1191 C1196 1.350 . S
C1191 N1199 1.427 . S
C1192 H1183 0.930 . S
C1192 C1190 1.378 . S
C1192 C1193 1.367 . S
C1193 C1192 1.367 . S
C1193 C1195 1.433 . S
C1194 C1190 1.350 . S
C1194 C1191 1.463 . S
C1194 N1198 1.427 . S
C1195 H1185 0.929 . S
C1195 C1193 1.433 . S
C1195 N1198 1.384 . S
C1196 H1187 0.929 . S
C1196 C1188 1.378 . S
C1196 C1191 1.350 . S
C1197 H1184 0.929 . S
C1197 C1189 1.433 . S
C1197 N1199 1.384 . S
N1198 C1194 1.427 . S
N1198 C1195 1.384 . S
N1199 C1191 1.427 . S
N1199 C1197 1.384 . S
C343 C121 1.057 . S
C347 C3 1.055 . S
C361 C17 1.054 . S
C365 C163 1.054 . S
C379 C31 1.057 . S
C383 C135 1.047 . S
C397 C45 1.069 . S
C401 C149 1.052 . S
C415 C59 1.030 . S
C419 C9 1.032 . S
C433 C23 1.032 . S
C437 C73 1.030 . S
C451 C87 1.031 . S
C455 C37 1.019 . S
C469 C51 1.028 . S
C473 C101 1.029 . S
C487 C65 1.042 . S
C491 C115 1.069 . S
C505 C93 1.038 . S
C509 C129 1.059 . S
C523 C143 1.055 . S
C527 C107 1.057 . S
C541 C79 1.053 . S
C545 C157 1.064 . S
C559 C283 1.053 . S
C563 C171 1.051 . S
C577 C185 1.043 . S
C581 C325 1.046 . S
C595 C199 1.053 . S
C599 C297 1.052 . S
C613 C311 1.055 . S
C617 C213 1.036 . S
C631 C233 1.011 . S
C635 C177 1.025 . S
C649 C191 1.007 . S
C653 C247 1.017 . S
C667 C205 1.020 . S
C671 C261 0.995 . S
C685 C275 0.999 . S
C689 C219 1.026 . S
C703 C289 1.003 . S
C707 C227 1.030 . S
C721 C255 1.039 . S
C725 C303 1.008 . S
C739 C269 1.039 . S
C743 C317 1.005 . S
C757 C331 1.004 . S
C761 C241 1.039 . S
C775 C315 1.356 . S
C779 C7 1.357 . S
C793 C301 1.344 . S
C797 C21 1.364 . S
C811 C329 1.357 . S
C815 C35 1.358 . S
C829 C49 1.362 . S
C833 C287 1.343 . S
C847 C63 1.362 . S
C851 C190 1.378 . S
C865 C176 1.382 . S
C869 C77 1.367 . S
C883 C218 1.382 . S
C887 C91 1.357 . S
C901 C204 1.382 . S
C905 C105 1.367 . S
C919 C119 1.383 . S
C923 C259 1.362 . S
C937 C231 1.366 . S
C941 C133 1.372 . S
C955 C245 1.369 . S
C959 C147 1.381 . S
C973 C273 1.368 . S
C977 C161 1.381 . S
C991 C148 1.428 . S
C995 C175 1.406 . S
C1009 C134 1.434 . S
C1013 C189 1.406 . S
C1027 C203 1.413 . S
C1031 C162 1.430 . S
C1045 C120 1.428 . S
C1049 C217 1.404 . S
C1063 C232 1.446 . S
C1067 C22 1.446 . S
C1081 C246 1.443 . S
C1085 C8 1.443 . S
C1099 C260 1.444 . S
C1103 C50 1.445 . S
C1117 C274 1.448 . S
C1121 C36 1.443 . S
C1135 C288 1.420 . S
C1139 C92 1.417 . S
C1153 C302 1.420 . S
C1157 C64 1.417 . S
C1171 C78 1.416 . S
C1175 C316 1.416 . S
C1189 C330 1.416 . S
C1193 C106 1.414 . S
