# Generated by pormake.
# Topology crs, (6)-cn, num edge types: 1
# Building blocks:
#     Node 0, Type 0, BuildingBlock: BETGAK_clean_sbu_0, # of connection points: 6
#     Node 1, Type 0, BuildingBlock: BETGAK_clean_sbu_0, # of connection points: 6
#     Node 2, Type 0, BuildingBlock: BETGAK_clean_sbu_0, # of connection points: 6
#     Node 3, Type 0, BuildingBlock: BETGAK_clean_sbu_0, # of connection points: 6
#     Node 4, Type 0, BuildingBlock: BETGAK_clean_sbu_0, # of connection points: 6
#     Node 5, Type 0, BuildingBlock: BETGAK_clean_sbu_0, # of connection points: 6
#     Node 6, Type 0, BuildingBlock: BETGAK_clean_sbu_0, # of connection points: 6
#     Node 7, Type 0, BuildingBlock: BETGAK_clean_sbu_0, # of connection points: 6
#     Node 8, Type 0, BuildingBlock: BETGAK_clean_sbu_0, # of connection points: 6
#     Node 9, Type 0, BuildingBlock: BETGAK_clean_sbu_0, # of connection points: 6
#     Node 10, Type 0, BuildingBlock: BETGAK_clean_sbu_0, # of connection points: 6
#     Node 11, Type 0, BuildingBlock: BETGAK_clean_sbu_0, # of connection points: 6
#     Node 12, Type 0, BuildingBlock: BETGAK_clean_sbu_0, # of connection points: 6
#     Node 13, Type 0, BuildingBlock: BETGAK_clean_sbu_0, # of connection points: 6
#     Node 14, Type 0, BuildingBlock: BETGAK_clean_sbu_0, # of connection points: 6
#     Node 15, Type 0, BuildingBlock: BETGAK_clean_sbu_0, # of connection points: 6
#     Edge 16, Type (0, 0), BuildingBlock: KIFKEQ_clean_linker_1, # of connection points: 2
#     Edge 17, Type (0, 0), BuildingBlock: KIFKEQ_clean_linker_1, # of connection points: 2
#     Edge 18, Type (0, 0), BuildingBlock: KIFKEQ_clean_linker_1, # of connection points: 2
#     Edge 19, Type (0, 0), BuildingBlock: KIFKEQ_clean_linker_1, # of connection points: 2
#     Edge 20, Type (0, 0), BuildingBlock: KIFKEQ_clean_linker_1, # of connection points: 2
#     Edge 21, Type (0, 0), BuildingBlock: KIFKEQ_clean_linker_1, # of connection points: 2
#     Edge 22, Type (0, 0), BuildingBlock: KIFKEQ_clean_linker_1, # of connection points: 2
#     Edge 23, Type (0, 0), BuildingBlock: KIFKEQ_clean_linker_1, # of connection points: 2
#     Edge 24, Type (0, 0), BuildingBlock: KIFKEQ_clean_linker_1, # of connection points: 2
#     Edge 25, Type (0, 0), BuildingBlock: KIFKEQ_clean_linker_1, # of connection points: 2
#     Edge 26, Type (0, 0), BuildingBlock: KIFKEQ_clean_linker_1, # of connection points: 2
#     Edge 27, Type (0, 0), BuildingBlock: KIFKEQ_clean_linker_1, # of connection points: 2
#     Edge 28, Type (0, 0), BuildingBlock: KIFKEQ_clean_linker_1, # of connection points: 2
#     Edge 29, Type (0, 0), BuildingBlock: KIFKEQ_clean_linker_1, # of connection points: 2
#     Edge 30, Type (0, 0), BuildingBlock: KIFKEQ_clean_linker_1, # of connection points: 2
#     Edge 31, Type (0, 0), BuildingBlock: KIFKEQ_clean_linker_1, # of connection points: 2
#     Edge 32, Type (0, 0), BuildingBlock: KIFKEQ_clean_linker_1, # of connection points: 2
#     Edge 33, Type (0, 0), BuildingBlock: KIFKEQ_clean_linker_1, # of connection points: 2
#     Edge 34, Type (0, 0), BuildingBlock: KIFKEQ_clean_linker_1, # of connection points: 2
#     Edge 35, Type (0, 0), BuildingBlock: KIFKEQ_clean_linker_1, # of connection points: 2
#     Edge 36, Type (0, 0), BuildingBlock: KIFKEQ_clean_linker_1, # of connection points: 2
#     Edge 37, Type (0, 0), BuildingBlock: KIFKEQ_clean_linker_1, # of connection points: 2
#     Edge 38, Type (0, 0), BuildingBlock: KIFKEQ_clean_linker_1, # of connection points: 2
#     Edge 39, Type (0, 0), BuildingBlock: KIFKEQ_clean_linker_1, # of connection points: 2
#     Edge 40, Type (0, 0), BuildingBlock: KIFKEQ_clean_linker_1, # of connection points: 2
#     Edge 41, Type (0, 0), BuildingBlock: KIFKEQ_clean_linker_1, # of connection points: 2
#     Edge 42, Type (0, 0), BuildingBlock: KIFKEQ_clean_linker_1, # of connection points: 2
#     Edge 43, Type (0, 0), BuildingBlock: KIFKEQ_clean_linker_1, # of connection points: 2
#     Edge 44, Type (0, 0), BuildingBlock: KIFKEQ_clean_linker_1, # of connection points: 2
#     Edge 45, Type (0, 0), BuildingBlock: KIFKEQ_clean_linker_1, # of connection points: 2
#     Edge 46, Type (0, 0), BuildingBlock: KIFKEQ_clean_linker_1, # of connection points: 2
#     Edge 47, Type (0, 0), BuildingBlock: KIFKEQ_clean_linker_1, # of connection points: 2
#     Edge 48, Type (0, 0), BuildingBlock: KIFKEQ_clean_linker_1, # of connection points: 2
#     Edge 49, Type (0, 0), BuildingBlock: KIFKEQ_clean_linker_1, # of connection points: 2
#     Edge 50, Type (0, 0), BuildingBlock: KIFKEQ_clean_linker_1, # of connection points: 2
#     Edge 51, Type (0, 0), BuildingBlock: KIFKEQ_clean_linker_1, # of connection points: 2
#     Edge 52, Type (0, 0), BuildingBlock: KIFKEQ_clean_linker_1, # of connection points: 2
#     Edge 53, Type (0, 0), BuildingBlock: KIFKEQ_clean_linker_1, # of connection points: 2
#     Edge 54, Type (0, 0), BuildingBlock: KIFKEQ_clean_linker_1, # of connection points: 2
#     Edge 55, Type (0, 0), BuildingBlock: KIFKEQ_clean_linker_1, # of connection points: 2
#     Edge 56, Type (0, 0), BuildingBlock: KIFKEQ_clean_linker_1, # of connection points: 2
#     Edge 57, Type (0, 0), BuildingBlock: KIFKEQ_clean_linker_1, # of connection points: 2
#     Edge 58, Type (0, 0), BuildingBlock: KIFKEQ_clean_linker_1, # of connection points: 2
#     Edge 59, Type (0, 0), BuildingBlock: KIFKEQ_clean_linker_1, # of connection points: 2
#     Edge 60, Type (0, 0), BuildingBlock: KIFKEQ_clean_linker_1, # of connection points: 2
#     Edge 61, Type (0, 0), BuildingBlock: KIFKEQ_clean_linker_1, # of connection points: 2
#     Edge 62, Type (0, 0), BuildingBlock: KIFKEQ_clean_linker_1, # of connection points: 2
#     Edge 63, Type (0, 0), BuildingBlock: KIFKEQ_clean_linker_1, # of connection points: 2
# Relax obj value: 0.479
# Max RMSD: 0.365
# Mean RMSD: 0.300
data_MOF--net-crs--node1-BETGAK_clean_sbu_0--edge1-KIFKEQ_clean_linker_1
_symmetry_space_group_name_H-M    P1
_symmetry_Int_Tables_number       1
_symmetry_cell_setting            triclinic
loop_
_symmetry_equiv_pos_as_xyz
'x, y, z'
_cell_length_a     54.769675
_cell_length_b     55.778225
_cell_length_c     45.743223
_cell_angle_alpha  73.09773
_cell_angle_beta   75.345125
_cell_angle_gamma 64.454667
loop_
_atom_site_label
_atom_site_type_symbol
_atom_site_fract_x
_atom_site_fract_y
_atom_site_fract_z
_atom_type_partial_charge
La0 La 0.96255 0.02109 0.04225 0.0
La1 La 0.02169 1.00687 1.00866 0.0
C2 C 0.91264 0.02941 0.05596 0.0
C3 C 0.89636 0.01788 0.04753 0.0
C4 C 0.90489 0.98963 0.05205 0.0
C5 C 0.89007 0.97863 0.04331 0.0
C6 C 0.86612 0.99555 0.0302 0.0
C7 C 0.85783 0.02388 1.02495 0.0
C8 C 0.87285 0.03496 0.03363 0.0
C9 C -0.00019 1.00357 0.07871 0.0
C10 C -0.00465 0.96565 1.01694 0.0
C11 C 0.07144 0.99911 0.99395 0.0
C12 C 0.08816 1.00873 1.00471 0.0
C13 C 0.0798 0.03652 1.00373 0.0
C14 C 0.09376 0.04537 1.01702 0.0
C15 C 0.11652 0.02672 0.03143 0.0
C16 C 0.12553 0.99899 0.03159 0.0
C17 C 0.11134 0.99004 1.01843 0.0
C18 C 0.98385 0.02445 0.97274 0.0
C19 C 0.98937 0.06155 0.03543 0.0
O20 O 0.93091 1.0125 0.07397 0.0
O21 O 0.92228 0.04509 0.03328 0.0
O22 O 0.97446 0.01943 0.08495 0.0
O23 O 0.00255 0.99577 0.05427 0.0
O24 O 0.97168 0.98444 1.02594 0.0
O25 O 0.01892 0.96832 1.01295 0.0
O26 O 0.05246 0.01775 0.97772 0.0
O27 O 0.06246 0.98182 1.01472 0.0
O28 O 0.00905 1.0083 0.96635 0.0
O29 O 0.98179 0.03224 0.99688 0.0
O30 O 0.01298 0.04254 1.0267 0.0
O31 O 0.96566 0.05941 0.03847 0.0
H32 H 0.92314 0.97587 0.06228 0.0
H33 H 0.89739 0.95673 0.04694 0.0
H34 H 0.83946 0.03739 1.01485 0.0
H35 H 0.86612 0.05683 0.02957 0.0
H36 H 0.06208 0.0515 0.99326 0.0
H37 H 0.08673 0.06695 1.01594 0.0
H38 H 0.14309 0.98423 0.04251 0.0
H39 H 0.11805 0.9685 1.0196 0.0
La40 La 0.00232 0.27537 0.29172 0.0
La41 La 0.98182 0.24699 0.26568 0.0
C42 C 0.01206 0.30442 0.31691 0.0
C43 C 0.00346 0.32092 0.34055 0.0
C44 C 0.0021 0.30925 0.37234 0.0
C45 C -0.00032 0.32412 0.39366 0.0
C46 C -0.0011 0.35076 0.3835 0.0
C47 C -0.00135 0.36282 0.35194 0.0
C48 C 0.00094 0.34806 0.33073 0.0
C49 C 0.03836 0.22602 0.28478 0.0
C50 C 0.96056 0.24925 0.33434 0.0
C51 C 0.97272 0.21806 0.23965 0.0
C52 C 0.98262 0.20374 0.21378 0.0
C53 C 0.98248 0.2179 0.18282 0.0
C54 C 0.98733 0.20442 0.15918 0.0
C55 C -0.00757 0.17655 0.16601 0.0
C56 C -0.00621 0.16225 0.19685 0.0
C57 C 0.98886 0.17572 0.22043 0.0
C58 C 0.94596 0.29642 0.27256 0.0
C59 C 0.02336 0.27309 0.22279 0.0
O60 O 0.0198 0.27804 0.3259 0.0
O61 O -0.00113 0.31412 0.29316 0.0
O62 O 0.04412 0.24701 0.2805 0.0
O63 O 0.01297 0.23251 0.29419 0.0
O64 O 0.96971 0.26884 0.32875 0.0
O65 O 0.96702 0.23421 0.31386 0.0
O66 O 0.96264 0.24462 0.23299 0.0
O67 O 0.98708 0.20809 0.26242 0.0
O68 O 0.94006 0.27547 0.27704 0.0
O69 O 0.97133 0.2898 0.26307 0.0
O70 O 0.01393 0.25376 0.22833 0.0
O71 O 0.01743 0.28786 0.24342 0.0
H72 H 0.00418 0.28828 0.38061 0.0
H73 H -6e-05 0.31427 0.41784 0.0
H74 H -0.00241 0.38347 0.34348 0.0
H75 H 0.00213 0.35749 0.30637 0.0
H76 H 0.97767 0.23955 0.17692 0.0
H77 H 0.9865 0.21593 0.13562 0.0
H78 H -0.00268 0.14086 0.20302 0.0
H79 H 0.98874 0.16441 0.24412 0.0
La80 La 0.73407 0.24934 0.50922 0.0
La81 La 0.74781 0.27566 0.54651 0.0
C82 C 0.73301 0.21251 0.489 0.0
C83 C 0.72159 0.19134 0.50254 0.0
C84 C 0.70193 0.19074 0.48856 0.0
C85 C 0.69042 0.17131 0.50141 0.0
C86 C 0.69825 0.15207 0.52864 0.0
C87 C 0.71819 0.15246 0.54248 0.0
C88 C 0.7298 0.17186 0.52951 0.0
C89 C 0.72391 0.30188 0.48525 0.0
C90 C 0.68803 0.27403 0.56156 0.0
C91 C 0.74906 0.31286 0.56576 0.0
C92 C 0.76097 0.33369 0.55153 0.0
C93 C 0.78647 0.32948 0.55779 0.0
C94 C 0.79774 0.34905 0.54463 0.0
C95 C 0.78369 0.37342 0.5251 0.0
C96 C 0.75827 0.37765 0.51858 0.0
C97 C 0.74703 0.35796 0.53161 0.0
C98 C 0.75747 0.22312 0.5709 0.0
C99 C 0.79393 0.25108 0.49432 0.0
O100 O 0.71528 0.23772 0.48392 0.0
O101 O 0.7536 0.20993 0.50093 0.0
O102 O 0.71036 0.28894 0.48179 0.0
O103 O 0.74359 0.28465 0.49908 0.0
O104 O 0.69706 0.25644 0.54335 0.0
O105 O 0.70395 0.28529 0.56459 0.0
O106 O 0.76628 0.28749 0.5719 0.0
O107 O 0.72851 0.31542 0.55379 0.0
O108 O 0.77115 0.23598 0.57429 0.0
O109 O 0.73806 0.24046 0.55676 0.0
O110 O 0.78493 0.26843 0.51277 0.0
O111 O 0.77798 0.23995 0.49103 0.0
H112 H 0.69545 0.20534 0.46764 0.0
H113 H 0.67558 0.17118 0.48974 0.0
H114 H 0.72462 0.138 0.56348 0.0
H115 H 0.74515 0.17158 0.54069 0.0
H116 H 0.79764 0.31114 0.57313 0.0
H117 H 0.81714 0.34546 0.55057 0.0
H118 H 0.74703 0.39622 0.50356 0.0
H119 H 0.72732 0.3619 0.52621 0.0
La120 La 0.72681 1.00582 0.76339 0.0
La121 La 0.75498 0.02081 0.79761 0.0
C122 C 0.69655 0.99947 0.73578 0.0
C123 C 0.67686 1.0051 0.71559 0.0
C124 C 0.65745 0.99329 0.72728 0.0
C125 C 0.64034 0.99481 0.70836 0.0
C126 C 0.64211 1.0084 0.67735 0.0
C127 C 0.66075 0.0213 0.66576 0.0
C128 C 0.67832 0.01942 0.68476 0.0
C129 C 0.77728 0.9701 0.77021 0.0
C130 C 0.74998 0.05211 0.72904 0.0
C131 C 0.78422 0.02659 0.82758 0.0
C132 C 0.80076 0.01679 0.85284 0.0
C133 C 0.79065 0.03012 0.87773 0.0
C134 C 0.80806 0.0269 0.89747 0.0
C135 C 0.83598 1.01028 0.89273 0.0
C136 C 0.84566 0.99514 0.86946 0.0
C137 C 0.82824 0.99849 0.84954 0.0
C138 C 0.70453 0.05639 0.79048 0.0
C139 C 0.73169 0.97456 0.83196 0.0
O140 O 0.72185 0.99674 0.72425 0.0
O141 O 0.68794 1.00767 0.76195 0.0
O142 O 0.75701 0.96415 0.77025 0.0
O143 O 0.76965 0.99563 0.76446 0.0
O144 O 0.73163 0.04205 0.73036 0.0
O145 O 0.7649 0.04327 0.75155 0.0
O146 O 0.75766 0.03416 0.8347 0.0
O147 O 0.79403 0.0155 0.80328 0.0
O148 O 0.72488 0.06252 0.78968 0.0
O149 O 0.71225 0.03085 0.79662 0.0
O150 O 0.74953 0.98506 0.83109 0.0
O151 O 0.7173 0.98293 0.80914 0.0
H152 H 0.6561 0.98205 0.75095 0.0
H153 H 0.62589 0.98501 0.71788 0.0
H154 H 0.66235 0.03195 0.64186 0.0
H155 H 0.69329 0.02857 0.6753 0.0
H156 H 0.76967 0.04455 0.88071 0.0
H157 H 0.8 0.03855 0.91546 0.0
H158 H 0.86713 0.98227 0.8652 0.0
H159 H 0.83674 0.9881 0.83042 0.0
La160 La 0.49879 0.77955 0.29555 0.0
La161 La 0.48577 0.74439 0.26411 0.0
C162 C 0.49724 0.81488 0.32096 0.0
C163 C 0.49703 0.81988 0.35111 0.0
C164 C 0.52106 0.80864 0.3646 0.0
C165 C 0.52178 0.81725 0.39009 0.0
C166 C 0.49853 0.83731 0.40263 0.0
C167 C 0.47414 0.8475 0.39012 0.0
C168 C 0.47345 0.83896 0.36456 0.0
C169 C 0.53467 0.72881 0.29708 0.0
C170 C 0.4573 0.75076 0.33299 0.0
C171 C 0.49063 0.70373 0.24617 0.0
C172 C 0.49183 0.69476 0.21847 0.0
C173 C 0.48009 0.71305 0.19262 0.0
C174 C 0.48022 0.70337 0.16748 0.0
C175 C 0.49219 0.6753 0.16785 0.0
C176 C 0.50433 0.65726 0.19367 0.0
C177 C 0.50416 0.66692 0.21866 0.0
C178 C 0.4523 0.79703 0.25094 0.0
C179 C 0.52382 0.77639 0.22639 0.0
O180 O 0.5198 0.79742 0.30884 0.0
O181 O 0.47538 0.81319 0.31652 0.0
O182 O 0.54055 0.74897 0.2969 0.0
O183 O 0.50901 0.73698 0.29928 0.0
O184 O 0.46997 0.76651 0.33264 0.0
O185 O 0.46193 0.73875 0.30988 0.0
O186 O 0.4671 0.72144 0.25637 0.0
O187 O 0.5115 0.70882 0.24761 0.0
O188 O 0.45149 0.77773 0.24116 0.0
O189 O 0.47238 0.78571 0.26551 0.0
O190 O 0.51726 0.75533 0.22982 0.0
O191 O 0.51408 0.79207 0.24704 0.0
H192 H 0.53966 0.79396 0.35478 0.0
H193 H 0.54079 0.80878 0.39942 0.0
H194 H 0.45595 0.8632 0.39897 0.0
H195 H 0.45475 0.84823 0.35445 0.0
H196 H 0.47055 0.73467 0.19205 0.0
H197 H 0.47093 0.71781 0.14784 0.0
H198 H 0.51329 0.63553 0.19504 0.0
H199 H 0.51322 0.65253 0.2385 0.0
La200 La 0.23544 0.74783 0.51249 0.0
La201 La 0.24643 0.77686 0.54872 0.0
C202 C 0.23743 0.70802 0.49562 0.0
C203 C 0.22785 0.68584 0.51204 0.0
C204 C 0.19995 0.69038 0.5175 0.0
C205 C 0.19125 0.66932 0.53346 0.0
C206 C 0.21019 0.64323 0.54443 0.0
C207 C 0.23802 0.63887 0.53964 0.0
C208 C 0.24675 0.65992 0.52352 0.0
C209 C 0.22512 0.80004 0.48551 0.0
C210 C 0.18718 0.77412 0.56201 0.0
C211 C 0.24487 0.81533 0.56819 0.0
C212 C 0.25547 0.83678 0.55384 0.0
C213 C 0.27445 0.83493 0.52664 0.0
C214 C 0.28385 0.85577 0.51239 0.0
C215 C 0.27456 0.87877 0.52528 0.0
C216 C 0.25497 0.88081 0.55215 0.0
C217 C 0.24545 0.85999 0.56624 0.0
C218 C 0.25703 0.72448 0.57485 0.0
C219 C 0.29442 0.75113 0.49865 0.0
O220 O 0.21882 0.73262 0.48879 0.0
O221 O 0.25744 0.70787 0.50644 0.0
O222 O 0.21261 0.78605 0.48211 0.0
O223 O 0.24408 0.78381 0.50095 0.0
O224 O 0.19735 0.75554 0.54493 0.0
O225 O 0.20233 0.78627 0.56487 0.0
O226 O 0.26315 0.79046 0.57412 0.0
O227 O 0.22544 0.81684 0.55514 0.0
O228 O 0.26998 0.73816 0.57795 0.0
O229 O 0.23774 0.74102 0.56011 0.0
O230 O 0.28389 0.77005 0.5153 0.0
O231 O 0.27964 0.73833 0.49645 0.0
H232 H 0.18481 0.71011 0.50918 0.0
H233 H 0.16971 0.6733 0.53613 0.0
H234 H 0.25309 0.61909 0.54795 0.0
H235 H 0.26838 0.65587 0.51993 0.0
H236 H 0.28215 0.81728 0.51654 0.0
H237 H 0.2987 0.85367 0.49157 0.0
H238 H 0.24771 0.89801 0.56298 0.0
H239 H 0.23049 0.86189 0.587 0.0
La240 La 0.22488 0.50745 0.76296 0.0
La241 La 0.25633 0.51758 0.79753 0.0
C242 C 0.1926 0.50594 0.73365 0.0
C243 C 0.17331 0.51541 0.71152 0.0
C244 C 0.15052 0.50824 0.7212 0.0
C245 C 0.13472 0.51114 0.69988 0.0
C246 C 0.14122 0.52155 0.66843 0.0
C247 C 0.16287 0.5306 0.65886 0.0
C248 C 0.17908 0.52726 0.68028 0.0
C249 C 0.2744 0.46867 0.76748 0.0
C250 C 0.25161 0.55125 0.72987 0.0
C251 C 0.2872 0.51979 0.82842 0.0
C252 C 0.30319 0.50934 0.8543 0.0
C253 C 0.29175 0.52062 0.88082 0.0
C254 C 0.30837 0.51769 0.90132 0.0
C255 C 0.33677 0.50333 0.89584 0.0
C256 C 0.34794 0.48996 0.87093 0.0
C257 C 0.33131 0.49311 0.85017 0.0
C258 C 0.20683 0.55638 0.79219 0.0
C259 C 0.23061 0.47297 0.83045 0.0
O260 O 0.21866 0.50022 0.72347 0.0
O261 O 0.18457 0.51394 0.75993 0.0
O262 O 0.25267 0.46519 0.76726 0.0
O263 O 0.26864 0.49391 0.76311 0.0
O264 O 0.23205 0.54287 0.73093 0.0
O265 O 0.26697 0.54076 0.75218 0.0
O266 O 0.26051 0.52935 0.83481 0.0
O267 O 0.29638 0.50843 0.80434 0.0
O268 O 0.22864 0.56002 0.79167 0.0
O269 O 0.21263 0.53109 0.79727 0.0
O270 O 0.24954 0.48205 0.82967 0.0
O271 O 0.21539 0.48314 0.80806 0.0
H272 H 0.14582 0.49888 0.7451 0.0
H273 H 0.11795 0.5043 0.70782 0.0
H274 H 0.16809 0.53886 0.63472 0.0
H275 H 0.19668 0.53283 0.67227 0.0
H276 H 0.27022 0.53347 0.88456 0.0
H277 H 0.29921 0.52803 0.92047 0.0
H278 H 0.36982 0.47889 0.86608 0.0
H279 H 0.34082 0.48444 0.82979 0.0
La280 La 0.96687 0.52588 0.53377 0.0
La281 La 0.02521 0.51559 0.49863 0.0
C282 C 0.91789 0.53074 0.55123 0.0
C283 C 0.90212 0.51732 0.54556 0.0
C284 C 0.91489 0.49002 0.54316 0.0
C285 C 0.90071 0.47746 0.53604 0.0
C286 C 0.87297 0.49156 0.5323 0.0
C287 C 0.86006 0.51899 0.53492 0.0
C288 C 0.87464 0.53182 0.54127 0.0
C289 C 0.00535 0.51065 0.56819 0.0
C290 C 0.00208 0.47178 0.50635 0.0
C291 C 0.07467 0.50934 0.48475 0.0
C292 C 0.09038 0.51952 0.49626 0.0
C293 C 0.07834 0.54588 0.50178 0.0
C294 C 0.09141 0.55478 0.51619 0.0
C295 C 0.11776 0.53812 0.52389 0.0
C296 C 0.13011 0.51169 0.51783 0.0
C297 C 0.11634 0.50238 0.50449 0.0
C298 C 0.98733 0.5309 0.46352 0.0
C299 C 0.98903 0.57017 0.52523 0.0
O300 O 0.93761 0.51507 0.56781 0.0
O301 O 0.92568 0.54667 0.52702 0.0
O302 O 0.97993 0.52599 0.57509 0.0
O303 O 0.00763 0.50262 0.54418 0.0
O304 O 0.97785 0.48931 0.51628 0.0
O305 O 0.02481 0.47613 0.50192 0.0
O306 O 0.05559 0.52772 0.46845 0.0
O307 O 0.06604 0.4917 0.50528 0.0
O308 O 0.01309 0.51668 0.45621 0.0
O309 O 0.98456 0.53858 0.488 0.0
O310 O 0.01355 0.55223 0.51659 0.0
O311 O 0.96643 0.56593 0.52847 0.0
H312 H 0.93596 0.47829 0.54673 0.0
H313 H 0.91173 0.45662 0.53335 0.0
H314 H 0.83868 0.53046 0.53251 0.0
H315 H 0.86445 0.55298 0.54296 0.0
H316 H 0.05857 0.55964 0.49519 0.0
H317 H 0.0806 0.57488 0.52125 0.0
H318 H 0.15048 0.49827 0.52297 0.0
H319 H 0.12593 0.48181 0.50063 0.0
La320 La 0.23633 0.24432 1.00914 0.0
La321 La 0.24537 0.27912 0.04742 0.0
C322 C 0.23473 0.20475 0.99547 0.0
C323 C 0.22512 0.1829 1.01218 0.0
C324 C 0.23858 0.15736 1.00431 0.0
C325 C 0.22888 0.13675 1.01888 0.0
C326 C 0.2055 0.14145 0.04152 0.0
C327 C 0.19283 0.16671 0.05035 0.0
C328 C 0.20255 0.18728 0.03578 0.0
C329 C 0.22858 0.29555 0.97755 0.0
C330 C 0.18929 0.271 0.06188 0.0
C331 C 0.24653 0.31868 0.06166 0.0
C332 C 0.25485 0.34134 0.0449 0.0
C333 C 0.27344 0.33956 1.01737 0.0
C334 C 0.28214 0.36079 1.00239 0.0
C335 C 0.27267 0.384 1.01497 0.0
C336 C 0.25318 0.38607 0.04193 0.0
C337 C 0.24432 0.36492 0.0567 0.0
C338 C 0.25375 0.22765 0.07867 0.0
C339 C 0.29219 0.25274 0.99467 0.0
O340 O 0.2157 0.22942 0.99079 0.0
O341 O 0.25625 0.20378 1.00423 0.0
O342 O 0.22684 0.27713 0.96706 0.0
O343 O 0.23354 0.28421 1.00476 0.0
O344 O 0.19948 0.25285 0.04396 0.0
O345 O 0.20251 0.28542 0.06397 0.0
O346 O 0.26634 0.29441 0.06474 0.0
O347 O 0.22475 0.31913 0.05404 0.0
O348 O 0.25642 0.24574 0.08882 0.0
O349 O 0.24768 0.23939 0.05196 0.0
O350 O 0.28136 0.27167 1.01156 0.0
O351 O 0.27954 0.23743 0.99355 0.0
H352 H 0.25617 0.15359 0.98632 0.0
H353 H 0.23886 0.11762 1.01132 0.0
H354 H 0.17496 0.17078 0.06795 0.0
H355 H 0.19215 0.20673 0.0426 0.0
H356 H 0.28149 0.32162 1.00768 0.0
H357 H 0.29689 0.3587 0.98149 0.0
H358 H 0.24581 0.40339 0.05259 0.0
H359 H 0.22985 0.36664 0.07786 0.0
La360 La 0.22802 1.00461 0.25942 0.0
La361 La 0.25969 0.01468 0.29322 0.0
C362 C 0.19699 1.00219 0.22897 0.0
C363 C 0.17907 0.01302 0.20494 0.0
C364 C 0.18921 1.00382 0.17704 0.0
C365 C 0.17131 1.0071 0.15786 0.0
C366 C 0.1429 0.01959 0.16622 0.0
C367 C 0.13287 0.03078 0.19281 0.0
C368 C 0.15078 0.0274 0.21209 0.0
C369 C 0.27776 0.96571 0.26406 0.0
C370 C 0.25299 0.04991 0.22643 0.0
C371 C 0.29243 1.0125 0.32442 0.0
C372 C 0.3116 1.01116 0.34296 0.0
C373 C 0.33453 0.01749 0.3284 0.0
C374 C 0.35173 0.01798 0.34599 0.0
C375 C 0.34657 1.01172 0.37844 0.0
C376 C 0.32418 1.00443 0.39298 0.0
C377 C 0.30667 1.00441 0.37538 0.0
C378 C 0.21011 0.0537 0.28954 0.0
C379 C 0.23275 0.97094 0.32663 0.0
O380 O 0.2234 0.99515 0.22051 0.0
O381 O 0.18825 1.01132 0.2546 0.0
O382 O 0.25586 0.96204 0.26517 0.0
O383 O 0.27186 0.991 0.25895 0.0
O384 O 0.2339 0.04082 0.22779 0.0
O385 O 0.26874 0.0396 0.24837 0.0
O386 O 0.26646 0.01803 0.33493 0.0
O387 O 0.29999 1.00815 0.29626 0.0
O388 O 0.23193 0.05703 0.29 0.0
O389 O 0.21585 0.02845 0.29372 0.0
O390 O 0.25267 0.97899 0.32484 0.0
O391 O 0.2171 0.98162 0.30468 0.0
H392 H 0.21086 0.9924 0.17102 0.0
H393 H 0.17962 0.99865 0.13726 0.0
H394 H 0.11106 0.04039 0.19995 0.0
H395 H 0.14228 0.03443 0.2336 0.0
H396 H 0.33878 0.02273 0.30344 0.0
H397 H 0.36906 0.02336 0.33422 0.0
H398 H 0.31977 0.99955 0.41791 0.0
H399 H 0.28918 0.9993 0.38712 0.0
La400 La 0.49918 0.27783 0.79252 0.0
La401 La 0.48168 0.24749 0.7644 0.0
C402 C 0.50493 0.3092 0.81809 0.0
C403 C 0.49561 0.32325 0.84417 0.0
C404 C 0.49966 0.3088 0.87454 0.0
C405 C 0.49607 0.32246 0.89757 0.0
C406 C 0.4884 0.3508 0.89072 0.0
C407 C 0.48298 0.3653 0.86071 0.0
C408 C 0.48662 0.35165 0.83772 0.0
C409 C 0.53636 0.22877 0.78735 0.0
C410 C 0.4582 0.2496 0.83321 0.0
C411 C 0.47541 0.2174 0.73736 0.0
C412 C 0.48608 0.20296 0.71146 0.0
C413 C 0.48489 0.21714 0.68056 0.0
C414 C 0.48992 0.20344 0.65705 0.0
C415 C 0.49621 0.17531 0.66392 0.0
C416 C 0.49878 0.16101 0.69462 0.0
C417 C 0.4937 0.1747 0.71809 0.0
C418 C 0.44499 0.29676 0.76992 0.0
C419 C 0.52333 0.2746 0.72411 0.0
O420 O 0.51773 0.28278 0.82389 0.0
O421 O 0.48913 0.31777 0.79689 0.0
O422 O 0.54148 0.24999 0.78427 0.0
O423 O 0.51081 0.23487 0.79491 0.0
O424 O 0.46766 0.26873 0.82928 0.0
O425 O 0.46468 0.23535 0.81186 0.0
O426 O 0.46437 0.24396 0.73075 0.0
O427 O 0.48935 0.20803 0.76046 0.0
O428 O 0.43942 0.2757 0.77373 0.0
O429 O 0.47046 0.29029 0.76175 0.0
O430 O 0.51443 0.255 0.72877 0.0
O431 O 0.51603 0.28974 0.74474 0.0
H432 H 0.5067 0.28686 0.88026 0.0
H433 H 0.5 0.31073 0.92056 0.0
H434 H 0.47734 0.38708 0.85447 0.0
H435 H 0.48374 0.36325 0.81443 0.0
H436 H 0.479 0.23896 0.67464 0.0
H437 H 0.48817 0.215 0.63359 0.0
H438 H 0.50327 0.13941 0.70087 0.0
H439 H 0.49441 0.16332 0.74173 0.0
La440 La -0.00048 0.7775 0.79184 0.0
La441 La 0.98092 0.7472 0.76549 0.0
C442 C 0.00669 0.8079 0.81755 0.0
C443 C -0.00311 0.82201 0.84362 0.0
C444 C -0.00069 0.80756 0.87429 0.0
C445 C -0.00497 0.82108 0.8977 0.0
C446 C 0.98827 0.84928 0.89093 0.0
C447 C 0.98445 0.86383 0.86055 0.0
C448 C 0.98879 0.85032 0.83718 0.0
C449 C 0.03602 0.72821 0.78627 0.0
C450 C 0.95887 0.7498 0.83428 0.0
C451 C 0.9734 0.71661 0.74048 0.0
C452 C 0.9817 0.70294 0.71436 0.0
C453 C 0.98543 0.71665 0.68352 0.0
C454 C 0.98786 0.70476 0.65925 0.0
C455 C 0.98638 0.67915 0.66551 0.0
C456 C 0.98428 0.66494 0.69633 0.0
C457 C 0.98194 0.67674 0.72047 0.0
C458 C 0.94411 0.79642 0.77118 0.0
C459 C 0.02159 0.77498 0.72303 0.0
O460 O 0.0184 0.78138 0.82372 0.0
O461 O -0.00845 0.81707 0.7956 0.0
O462 O 0.04163 0.74939 0.78157 0.0
O463 O 0.01063 0.73457 0.79513 0.0
O464 O 0.96767 0.7696 0.82891 0.0
O465 O 0.96555 0.73477 0.81369 0.0
O466 O 0.96122 0.74308 0.73472 0.0
O467 O 0.98979 0.7075 0.76114 0.0
O468 O 0.93879 0.77516 0.77535 0.0
O469 O 0.96955 0.79019 0.76245 0.0
O470 O 0.01259 0.75534 0.72821 0.0
O471 O 0.01506 0.78987 0.74372 0.0
H472 H 0.00558 0.78569 0.88003 0.0
H473 H -0.00226 0.80934 0.92095 0.0
H474 H 0.97955 0.8855 0.85441 0.0
H475 H 0.98712 0.86189 0.8137 0.0
H476 H 0.98525 0.73695 0.67823 0.0
H477 H 0.9895 0.71618 0.63573 0.0
H478 H 0.98364 0.64495 0.70186 0.0
H479 H 0.97902 0.66584 0.74406 0.0
La480 La 0.72532 0.50748 0.26272 0.0
La481 La 0.75545 0.51915 0.29698 0.0
C482 C 0.69446 0.50452 0.23236 0.0
C483 C 0.67688 0.51507 0.20793 0.0
C484 C 0.68706 0.50474 0.18075 0.0
C485 C 0.66932 0.50822 0.16124 0.0
C486 C 0.64095 0.52208 0.16847 0.0
C487 C 0.63095 0.53423 0.19436 0.0
C488 C 0.64871 0.53062 0.21401 0.0
C489 C 0.77476 0.4687 0.26929 0.0
C490 C 0.75182 0.55121 0.22872 0.0
C491 C 0.7857 0.52321 0.32701 0.0
C492 C 0.80415 0.51468 0.34991 0.0
C493 C 0.79702 0.53086 0.37157 0.0
C494 C 0.81636 0.52807 0.3885 0.0
C495 C 0.84336 0.50894 0.3842 0.0
C496 C 0.8499 0.49135 0.36414 0.0
C497 C 0.83053 0.49429 0.34699 0.0
C498 C 0.70603 0.55797 0.29002 0.0
C499 C 0.72969 0.47487 0.33083 0.0
O500 O 0.72095 0.49698 0.22436 0.0
O501 O 0.68556 0.51435 0.25753 0.0
O502 O 0.75305 0.46506 0.26939 0.0
O503 O 0.76899 0.49404 0.2638 0.0
O504 O 0.7326 0.54245 0.22975 0.0
O505 O 0.76666 0.54141 0.25138 0.0
O506 O 0.75947 0.52923 0.33605 0.0
O507 O 0.79475 0.51367 0.30165 0.0
O508 O 0.72777 0.5616 0.28973 0.0
O509 O 0.71178 0.53262 0.2959 0.0
O510 O 0.74877 0.48384 0.32979 0.0
O511 O 0.71472 0.48464 0.30827 0.0
H512 H 0.70859 0.4924 0.17556 0.0
H513 H 0.67767 0.49895 0.14123 0.0
H514 H 0.60917 0.5449 0.20066 0.0
H515 H 0.64013 0.53856 0.23495 0.0
H516 H 0.77693 0.547 0.37392 0.0
H517 H 0.81053 0.54219 0.4034 0.0
H518 H 0.87033 0.47599 0.36073 0.0
H519 H 0.83663 0.48157 0.33038 0.0
La520 La 0.73504 0.75037 1.01209 0.0
La521 La 0.74858 0.77616 0.04949 0.0
C522 C 0.73288 0.71519 0.99001 0.0
C523 C 0.72092 0.69445 1.003 0.0
C524 C 0.70096 0.69476 0.98873 0.0
C525 C 0.6886 0.67601 1.00136 0.0
C526 C 0.69596 0.65655 0.02858 0.0
C527 C 0.71618 0.65605 0.04272 0.0
C528 C 0.72856 0.67483 0.03005 0.0
C529 C 0.72509 0.80302 0.98841 0.0
C530 C 0.68895 0.77451 0.06417 0.0
C531 C 0.74962 0.81305 0.0695 0.0
C532 C 0.75967 0.83513 0.05446 0.0
C533 C 0.786 0.83182 0.05698 0.0
C534 C 0.79554 0.85257 0.04266 0.0
C535 C 0.7789 0.87718 1.02565 0.0
C536 C 0.75268 0.88043 1.0228 0.0
C537 C 0.74315 0.85964 0.03705 0.0
C538 C 0.75857 0.72356 0.07373 0.0
C539 C 0.79496 0.75108 0.99793 0.0
O540 O 0.71545 0.74053 0.98594 0.0
O541 O 0.7539 0.71163 1.00184 0.0
O542 O 0.71106 0.79037 0.98549 0.0
O543 O 0.74485 0.78561 1.0019 0.0
O544 O 0.69891 0.75582 0.04729 0.0
O545 O 0.70419 0.78698 0.06597 0.0
O546 O 0.76802 0.78811 0.07362 0.0
O547 O 0.72833 0.81491 0.05958 0.0
O548 O 0.77206 0.73655 0.07719 0.0
O549 O 0.73899 0.74081 0.05979 0.0
O550 O 0.78551 0.7694 1.01524 0.0
O551 O 0.77924 0.7394 0.99547 0.0
H552 H 0.69483 0.7096 0.96783 0.0
H553 H 0.67348 0.67656 0.98955 0.0
H554 H 0.72221 0.64138 0.06375 0.0
H555 H 0.74398 0.67401 0.04156 0.0
H556 H 0.79918 0.81327 0.07028 0.0
H557 H 0.81565 0.84966 0.04581 0.0
H558 H 0.73945 0.89914 1.00977 0.0
H559 H 0.72275 0.8629 0.0345 0.0
La560 La 0.46452 0.01953 0.54169 0.0
La561 La 0.52465 1.00306 0.51122 0.0
C562 C 0.41424 0.02921 0.55236 0.0
C563 C 0.39879 0.01675 0.54413 0.0
C564 C 0.41008 0.98875 0.54519 0.0
C565 C 0.39644 0.97681 0.53604 0.0
C566 C 0.37054 0.99235 0.52672 0.0
C567 C 0.35929 0.02057 0.52524 0.0
C568 C 0.37344 0.0327 0.53371 0.0
C569 C 0.50015 1.00244 0.57999 0.0
C570 C 0.49842 0.96167 0.52131 0.0
C571 C 0.57465 0.99444 0.49859 0.0
C572 C 0.59058 1.00551 0.50848 0.0
C573 C 0.5829 0.03371 0.50339 0.0
C574 C 0.59572 0.0443 0.516 0.0
C575 C 0.61662 0.02699 0.53381 0.0
C576 C 0.62509 0.99875 0.53807 0.0
C577 C 0.61204 0.98808 0.52558 0.0
C578 C 0.48832 0.01982 0.47359 0.0
C579 C 0.49215 0.05936 0.53487 0.0
O580 O 0.43115 0.01336 0.57228 0.0
O581 O 0.42537 0.04318 0.52905 0.0
O582 O 0.47498 0.01935 0.58473 0.0
O583 O 0.50341 0.99379 0.55607 0.0
O584 O 0.4745 0.98145 0.52757 0.0
O585 O 0.52192 0.96415 0.51829 0.0
O586 O 0.5567 1.0117 0.48032 0.0
O587 O 0.56468 0.97857 0.52057 0.0
O588 O 0.51324 1.00239 0.46905 0.0
O589 O 0.48571 0.02881 0.497 0.0
O590 O 0.51575 0.03971 0.52749 0.0
O591 O 0.46832 0.05766 0.53719 0.0
H592 H 0.42953 0.9759 0.5532 0.0
H593 H 0.40622 0.95521 0.53658 0.0
H594 H 0.33934 0.03314 0.51829 0.0
H595 H 0.36453 0.05443 0.53242 0.0
H596 H 0.56645 0.04777 0.49035 0.0
H597 H 0.5892 0.06616 0.51184 0.0
H598 H 0.64127 0.98502 0.55164 0.0
H599 H 0.61821 0.96626 0.52993 0.0
La600 La 0.45918 0.52236 0.04526 0.0
La601 La 0.51718 0.5119 1.00931 0.0
C602 C 0.41017 0.52752 0.06162 0.0
C603 C 0.39461 0.5154 0.05292 0.0
C604 C 0.40569 0.48749 0.05344 0.0
C605 C 0.39238 0.4762 0.04266 0.0
C606 C 0.36711 0.49233 0.03199 0.0
C607 C 0.35588 0.52036 0.03155 0.0
C608 C 0.36962 0.53182 0.04181 0.0
C609 C 0.49757 0.50743 0.07951 0.0
C610 C 0.49374 0.4684 1.01719 0.0
C611 C 0.56636 0.50623 0.99426 0.0
C612 C 0.58225 0.51677 1.00505 0.0
C613 C 0.57342 0.54477 1.0031 0.0
C614 C 0.58643 0.55452 1.01657 0.0
C615 C 0.60885 0.53656 0.03191 0.0
C616 C 0.61836 0.50859 0.03303 0.0
C617 C 0.60503 0.49876 1.01982 0.0
C618 C 0.47858 0.52757 0.97499 0.0
C619 C 0.48206 0.56638 0.03608 0.0
O620 O 0.42976 0.51063 0.07798 0.0
O621 O 0.41795 0.54481 0.03935 0.0
O622 O 0.47199 0.52218 0.08676 0.0
O623 O 0.50008 0.49928 0.05543 0.0
O624 O 0.46974 0.48593 1.02769 0.0
O625 O 0.51661 0.47254 1.01241 0.0
O626 O 0.54697 0.52426 0.97818 0.0
O627 O 0.55825 0.48832 1.01502 0.0
O628 O 0.50419 0.51307 0.96733 0.0
O629 O 0.47641 0.53511 0.99935 0.0
O630 O 0.50633 0.54861 1.02655 0.0
O631 O 0.45932 0.56207 0.04062 0.0
H632 H 0.42498 0.47429 0.06174 0.0
H633 H 0.40215 0.45471 0.04256 0.0
H634 H 0.33636 0.53338 1.02371 0.0
H635 H 0.36084 0.55349 0.04094 0.0
H636 H 0.55618 0.55921 0.9915 0.0
H637 H 0.57911 0.57625 1.01464 0.0
H638 H 0.6357 0.49436 0.04463 0.0
H639 H 0.61212 0.47706 1.02174 0.0
H640 H 0.03466 0.06709 0.04214 0.0
H641 H 0.94636 0.10416 0.05737 0.0
H642 H 0.03688 0.09757 0.06886 0.0
H643 H 0.94856 0.13432 0.08514 0.0
H644 H 0.96113 0.19595 0.11967 0.0
H645 H 0.9614 0.17155 0.08302 0.0
H646 H 0.02739 0.10091 0.12197 0.0
H647 H 0.02788 0.12558 0.15763 0.0
C648 C 0.01567 0.08216 0.05051 0.0
C649 C 0.99033 0.08318 0.04734 0.0
C650 C 0.01697 0.09945 0.06629 0.0
C651 C -0.00709 0.11826 0.07946 0.0
C652 C 0.96752 0.12025 0.07505 0.0
C653 C 0.96624 0.10288 0.05919 0.0
C654 C 0.97612 0.17541 0.11992 0.0
C655 C -0.00556 0.16269 0.14167 0.0
C656 C 0.97603 0.16132 0.09916 0.0
C657 C -0.00568 0.1342 0.09961 0.0
C658 C 0.01323 0.12184 0.12068 0.0
C659 C 0.01331 0.13589 0.14141 0.0
H660 H 0.81395 0.22826 0.4431 0.0
H661 H 0.8339 0.26667 0.49807 0.0
H662 H 0.85528 0.22675 0.40649 0.0
H663 H 0.87571 0.26431 0.4621 0.0
H664 H 0.93034 0.28539 0.37232 0.0
H665 H 0.89138 0.28433 0.41199 0.0
H666 H 0.90349 0.20655 0.39743 0.0
H667 H 0.94183 0.20813 0.35706 0.0
C668 C 0.8274 0.23593 0.44772 0.0
C669 C 0.82052 0.24756 0.47362 0.0
C670 C 0.85125 0.23499 0.42671 0.0
C671 C 0.86905 0.24543 0.43113 0.0
C672 C 0.86241 0.25648 0.4575 0.0
C673 C 0.83847 0.25761 0.47835 0.0
C674 C 0.92496 0.26786 0.3779 0.0
C675 C 0.93931 0.24684 0.36145 0.0
C676 C 0.90255 0.26721 0.40076 0.0
C677 C 0.89397 0.24541 0.40799 0.0
C678 C 0.909 0.22396 0.39219 0.0
C679 C 0.93124 0.22473 0.36919 0.0
H680 H 0.77717 0.08422 0.72601 0.0
H681 H 0.72706 0.07446 0.67478 0.0
H682 H 0.77878 0.12409 0.68757 0.0
H683 H 0.72967 0.11403 0.63506 0.0
H684 H 0.71713 0.20284 0.58465 0.0
H685 H 0.71567 0.16133 0.62083 0.0
H686 H 0.79651 0.14162 0.63934 0.0
H687 H 0.79727 0.1836 0.60407 0.0
C688 C 0.76684 0.09025 0.70619 0.0
C689 C 0.75215 0.0757 0.70367 0.0
C690 C 0.76791 0.11328 0.68378 0.0
C691 C 0.75462 0.12265 0.65755 0.0
C692 C 0.74 0.10795 0.65487 0.0
C693 C 0.73868 0.08496 0.67762 0.0
C694 C 0.73463 0.18956 0.59642 0.0
C695 C 0.75731 0.19673 0.59145 0.0
C696 C 0.73388 0.16551 0.61719 0.0
C697 C 0.75583 0.14776 0.63374 0.0
C698 C 0.77879 0.15478 0.62797 0.0
C699 C 0.77941 0.17888 0.6074 0.0
H700 H 0.93008 0.05971 0.97603 0.0
H701 H 0.98691 0.98708 0.9436 0.0
H702 H 0.89237 0.0545 0.96278 0.0
H703 H 0.95003 0.98292 0.92798 0.0
H704 H 0.87779 0.96826 0.92132 0.0
H705 H 0.91185 0.97156 0.94401 0.0
H706 H 0.87287 0.05924 0.9211 0.0
H707 H 0.83841 0.0557 0.90008 0.0
C708 C 0.9344 0.04252 0.96634 0.0
C709 C 0.96121 0.02339 0.96179 0.0
C710 C 0.91291 0.03972 0.9582 0.0
C711 C 0.91794 0.01808 0.9445 0.0
C712 C 0.94506 0.99943 0.93918 0.0
C713 C 0.96637 1.00208 0.94769 0.0
C714 C 0.87647 0.98816 0.92152 0.0
C715 C 0.85544 1.0117 0.90899 0.0
C716 C 0.89606 0.99013 0.93431 0.0
C717 C 0.89544 0.01572 0.93415 0.0
C718 C 0.87392 0.03917 0.92224 0.0
C719 C 0.85412 0.03717 0.91002 0.0
H720 H 0.055 0.97221 0.07121 0.0
H721 H -0.00611 0.03586 0.11624 0.0
H722 H 0.0909 0.97795 0.08751 0.0
H723 H 0.02889 0.03979 0.1354 0.0
H724 H 0.09529 0.05977 0.14788 0.0
H725 H 0.06217 0.05575 0.12486 0.0
H726 H 0.11354 0.97097 0.12621 0.0
H727 H 0.14705 0.97559 0.14772 0.0
C728 C 0.04933 0.98759 0.08429 0.0
C729 C 0.02179 1.0042 0.0914 0.0
C730 C 0.06983 0.99059 0.09431 0.0
C731 C 0.06312 1.00975 0.1125 0.0
C732 C 0.03529 0.02549 0.12059 0.0
C733 C 0.015 0.02287 0.11003 0.0
C734 C 0.09949 0.04037 0.143 0.0
C735 C 0.12377 0.01805 0.14956 0.0
C736 C 0.08033 0.03789 0.13012 0.0
C737 C 0.08469 0.01288 0.12392 0.0
C738 C 0.1094 0.99073 0.12993 0.0
C739 C 0.12873 0.99335 0.14239 0.0
H740 H 0.04706 0.4306 0.48442 0.0
H741 H 0.95872 0.4621 0.50103 0.0
H742 H 0.04741 0.39795 0.45827 0.0
H743 H 0.95912 0.42958 0.47538 0.0
H744 H 0.97001 0.35563 0.4416 0.0
H745 H 0.97228 0.38075 0.47616 0.0
H746 H 0.03353 0.40379 0.40839 0.0
H747 H 0.03156 0.3785 0.37431 0.0
C748 C 0.02774 0.43022 0.48319 0.0
C749 C 0.00285 0.44892 0.49521 0.0
C750 C 0.02794 0.41161 0.46804 0.0
C751 C 0.00328 0.41123 0.46467 0.0
C752 C 0.9785 0.429 0.47799 0.0
C753 C 0.9783 0.44764 0.49294 0.0
C754 C 0.9841 0.36588 0.43429 0.0
C755 C 0.00038 0.36534 0.40511 0.0
C756 C 0.98533 0.38033 0.45398 0.0
C757 C 0.00316 0.39419 0.44505 0.0
C758 C 0.01985 0.39306 0.41616 0.0
C759 C 0.01844 0.37889 0.39644 0.0
H760 H 0.6693 0.29604 0.6132 0.0
H761 H 0.64739 0.25916 0.55829 0.0
H762 H 0.62853 0.29739 0.65062 0.0
H763 H 0.60593 0.26155 0.59499 0.0
H764 H 0.55245 0.23971 0.68469 0.0
H765 H 0.59082 0.2412 0.64454 0.0
H766 H 0.58075 0.31736 0.66185 0.0
H767 H 0.54303 0.3152 0.70298 0.0
C768 C 0.65549 0.28871 0.60876 0.0
C769 C 0.66167 0.27752 0.58265 0.0
C770 C 0.63194 0.28958 0.63024 0.0
C771 C 0.6137 0.27957 0.62605 0.0
C772 C 0.6196 0.26902 0.59944 0.0
C773 C 0.64332 0.26787 0.57816 0.0
C774 C 0.55819 0.25696 0.67973 0.0
C775 C 0.54458 0.27734 0.69716 0.0
C776 C 0.58024 0.25788 0.65651 0.0
C777 C 0.58918 0.27937 0.64978 0.0
C778 C 0.57494 0.30019 0.66664 0.0
C779 C 0.55306 0.29911 0.6901 0.0
H780 H 0.70619 0.94137 0.83363 0.0
H781 H 0.75238 0.9537 0.88758 0.0
H782 H 0.70434 0.90166 0.87208 0.0
H783 H 0.74937 0.91435 0.92738 0.0
H784 H 0.76313 0.82558 0.97823 0.0
H785 H 0.76414 0.86738 0.94247 0.0
H786 H 0.68582 0.88383 0.91934 0.0
H787 H 0.68574 0.84139 0.95392 0.0
C788 C 0.71557 0.93594 0.85405 0.0
C789 C 0.7293 0.95111 0.85733 0.0
C790 C 0.71434 0.91301 0.87649 0.0
C791 C 0.72645 0.90441 0.90349 0.0
C792 C 0.74001 0.9198 0.90695 0.0
C793 C 0.74156 0.94266 0.88415 0.0
C794 C 0.74613 0.83818 0.96548 0.0
C795 C 0.72451 0.82986 0.96869 0.0
C796 C 0.74658 0.86241 0.94499 0.0
C797 C 0.72527 0.87929 0.92721 0.0
C798 C 0.70313 0.87131 0.93159 0.0
C799 C 0.70287 0.84696 0.95178 0.0
H800 H 0.15126 0.25174 0.05994 0.0
H801 H 0.16703 0.29659 0.11071 0.0
H802 H 0.10896 0.25466 0.09536 0.0
H803 H 0.12562 0.29849 0.14677 0.0
H804 H 0.04056 0.31517 0.1976 0.0
H805 H 0.07809 0.31691 0.15605 0.0
H806 H 0.09218 0.23719 0.14554 0.0
H807 H 0.05386 0.23615 0.18604 0.0
C808 C 0.14573 0.26225 0.07863 0.0
C809 C 0.16263 0.27399 0.08231 0.0
C810 C 0.12149 0.26376 0.09917 0.0
C811 C 0.11361 0.27679 0.1242 0.0
C812 C 0.13046 0.28877 0.12756 0.0
C813 C 0.15447 0.28753 0.10685 0.0
C814 C 0.05142 0.2982 0.18607 0.0
C815 C 0.04413 0.27555 0.19518 0.0
C816 C 0.0732 0.29905 0.16237 0.0
C817 C 0.08865 0.27705 0.14743 0.0
C818 C 0.08073 0.25473 0.15601 0.0
C819 C 0.05869 0.25408 0.17941 0.0
H820 H 0.74943 0.45388 0.38686 0.0
H821 H 0.70461 0.44157 0.33127 0.0
H822 H 0.74655 0.41423 0.42604 0.0
H823 H 0.70295 0.40139 0.36915 0.0
H824 H 0.68502 0.33969 0.44982 0.0
H825 H 0.68472 0.38238 0.41567 0.0
H826 H 0.76164 0.3675 0.44115 0.0
H827 H 0.76098 0.32541 0.47643 0.0
C828 C 0.73893 0.44275 0.38295 0.0
C829 C 0.727 0.45132 0.35586 0.0
C830 C 0.73747 0.41969 0.4054 0.0
C831 C 0.72439 0.40411 0.40132 0.0
C832 C 0.71258 0.41284 0.37405 0.0
C833 C 0.71366 0.43605 0.35196 0.0
C834 C 0.70176 0.34565 0.44829 0.0
C835 C 0.7231 0.32889 0.46575 0.0
C836 C 0.70181 0.37017 0.42832 0.0
C837 C 0.72344 0.37871 0.42471 0.0
C838 C 0.74445 0.36215 0.44302 0.0
C839 C 0.74421 0.33773 0.46327 0.0
H840 H 0.55351 0.96647 0.57822 0.0
H841 H 0.49623 0.03852 0.61159 0.0
H842 H 0.59047 0.96958 0.59573 0.0
H843 H 0.53235 0.04072 0.63104 0.0
H844 H 0.60493 0.05172 0.64425 0.0
H845 H 0.5716 0.05053 0.61836 0.0
H846 H 0.60678 0.9627 0.64124 0.0
H847 H 0.63982 0.96415 0.6669 0.0
C848 C 0.54893 0.98305 0.58908 0.0
C849 C 0.52222 1.00252 0.59293 0.0
C850 C 0.56996 0.98467 0.59956 0.0
C851 C 0.56454 1.00554 0.61468 0.0
C852 C 0.53757 0.02472 0.61892 0.0
C853 C 0.5167 0.0232 0.60821 0.0
C854 C 0.60577 0.03225 0.64307 0.0
C855 C 0.6248 1.00804 0.65753 0.0
C856 C 0.58658 0.03149 0.62849 0.0
C857 C 0.58644 1.0065 0.62758 0.0
C858 C 0.60644 0.98232 0.64093 0.0
C859 C 0.6253 0.98311 0.65582 0.0
H860 H 0.03826 0.92507 0.99149 0.0
H861 H 0.95031 0.95675 1.01601 0.0
H862 H 0.03542 0.89458 0.96473 0.0
H863 H 0.94754 0.92606 0.98999 0.0
H864 H 0.95178 0.89933 0.90172 0.0
H865 H 0.95358 0.92426 0.93635 0.0
H866 H 0.02423 0.85569 0.96897 0.0
H867 H 0.02305 0.83111 0.93343 0.0
C868 C 0.01839 0.92508 0.99193 0.0
C869 C -0.00549 0.94346 1.00599 0.0
C870 C 0.01675 0.90755 0.97659 0.0
C871 C 0.99121 0.90805 0.97494 0.0
C872 C 0.96751 0.92541 0.99039 0.0
C873 C 0.96916 0.94283 1.00571 0.0
C874 C 0.96765 0.88953 0.91635 0.0
C875 C 0.98732 0.86326 0.91467 0.0
C876 C 0.96852 0.90371 0.93647 0.0
C877 C 0.9891 0.89199 0.95545 0.0
C878 C 0.00829 0.86541 0.95446 0.0
C879 C 0.00739 0.8512 0.93435 0.0
H880 H 0.17145 0.01407 1.02391 0.0
H881 H 0.09388 0.0627 0.06936 0.0
H882 H 0.19361 0.03824 0.03726 0.0
H883 H 0.11614 0.08547 0.08494 0.0
H884 H 0.15171 0.15169 0.04671 0.0
H885 H 0.13108 0.11936 0.05491 0.0
H886 H 0.20895 0.05313 0.06991 0.0
H887 H 0.22988 0.08607 0.06064 0.0
C888 C 0.15937 0.02919 0.03785 0.0
C889 C 0.13093 0.03681 0.04528 0.0
C890 C 0.17207 0.04297 0.04574 0.0
C891 C 0.15657 0.0643 0.06164 0.0
C892 C 0.12859 0.0698 0.07183 0.0
C893 C 0.11583 0.05658 0.0632 0.0
C894 C 0.1643 0.13026 0.05268 0.0
C895 C 0.19245 0.12142 0.05275 0.0
C896 C 0.15242 0.11156 0.05754 0.0
C897 C 0.16835 0.08348 0.06289 0.0
C898 C 0.19618 0.07459 0.06525 0.0
C899 C 0.20816 0.09341 0.06003 0.0
H900 H 0.69624 0.6108 0.28158 0.0
H901 H 0.65376 0.55767 0.29667 0.0
H902 H 0.65354 0.64956 0.28131 0.0
H903 H 0.60988 0.59757 0.29528 0.0
H904 H 0.53645 0.67703 0.32546 0.0
H905 H 0.57624 0.63395 0.322 0.0
H906 H 0.61965 0.67785 0.25106 0.0
H907 H 0.58094 0.72033 0.25606 0.0
C908 C 0.67766 0.60736 0.28458 0.0
C909 C 0.67863 0.58094 0.28917 0.0
C910 C 0.65292 0.62988 0.28407 0.0
C911 C 0.6279 0.62715 0.28769 0.0
C912 C 0.62864 0.60062 0.29242 0.0
C913 C 0.65378 0.57773 0.29308 0.0
C914 C 0.55444 0.67722 0.30888 0.0
C915 C 0.55578 0.70207 0.29136 0.0
C916 C 0.57728 0.65253 0.30682 0.0
C917 C 0.60172 0.65223 0.28687 0.0
C918 C 0.60181 0.67708 0.26762 0.0
C919 C 0.57945 0.70156 0.27021 0.0
H920 H 0.25002 0.93433 0.51876 0.0
H921 H 0.32859 0.86874 0.50481 0.0
H922 H 0.27319 0.96517 0.51122 0.0
H923 H 0.35132 0.89964 0.4966 0.0
H924 H 0.36927 0.94306 0.55717 0.0
H925 H 0.34661 0.91855 0.54627 0.0
H926 H 0.31162 0.98588 0.47358 0.0
H927 H 0.33609 1.01036 0.483 0.0
C928 C 0.27212 0.92668 0.51326 0.0
C929 C 0.28749 0.89895 0.5131 0.0
C930 C 0.28529 0.94441 0.50857 0.0
C931 C 0.31395 0.93456 0.50375 0.0
C932 C 0.32915 0.90759 0.50044 0.0
C933 C 0.31607 0.88993 0.50506 0.0
C934 C 0.35746 0.95256 0.53821 0.0
C935 C 0.35515 0.97847 0.52045 0.0
C936 C 0.34436 0.93849 0.53211 0.0
C937 C 0.32801 0.95012 0.5086 0.0
C938 C 0.32458 0.97642 0.49146 0.0
C939 C 0.33832 0.99044 0.49713 0.0
H940 H 0.03684 0.67733 0.81844 0.0
H941 H 0.08376 0.7174 0.74785 0.0
H942 H 0.07657 0.63368 0.81872 0.0
H943 H 0.12253 0.67434 0.74705 0.0
H944 H 0.19669 0.60912 0.78527 0.0
H945 H 0.15397 0.64796 0.78253 0.0
H946 H 0.11139 0.59589 0.79207 0.0
H947 H 0.15518 0.55596 0.79574 0.0
C948 C 0.05539 0.67668 0.80252 0.0
C949 C 0.0574 0.70084 0.78354 0.0
C950 C 0.07814 0.65169 0.8026 0.0
C951 C 0.10315 0.65046 0.78347 0.0
C952 C 0.10407 0.67446 0.76287 0.0
C953 C 0.08172 0.69923 0.76317 0.0
C954 C 0.17835 0.60568 0.7868 0.0
C955 C 0.17953 0.57929 0.79061 0.0
C956 C 0.15367 0.62818 0.78494 0.0
C957 C 0.12905 0.62538 0.78646 0.0
C958 C 0.12993 0.59889 0.79075 0.0
C959 C 0.15499 0.57602 0.79271 0.0
H960 H 0.75659 0.42747 0.52609 0.0
H961 H 0.83598 0.36793 0.49933 0.0
H962 H 0.77744 0.45985 0.52042 0.0
H963 H 0.85673 0.40025 0.49376 0.0
H964 H 0.83131 0.51197 0.49709 0.0
H965 H 0.80874 0.48674 0.48579 0.0
H966 H 0.85787 0.41364 0.54305 0.0
H967 H 0.87954 0.43849 0.55514 0.0
C968 C 0.77832 0.42165 0.51794 0.0
C969 C 0.79482 0.39498 0.51392 0.0
C970 C 0.79021 0.4402 0.51465 0.0
C971 C 0.81871 0.43225 0.50731 0.0
C972 C 0.83473 0.40663 0.49999 0.0
C973 C 0.8229 0.38815 0.50328 0.0
C974 C 0.83725 0.49053 0.50727 0.0
C975 C 0.85791 0.47716 0.52629 0.0
C976 C 0.82442 0.47613 0.50066 0.0
C977 C 0.83218 0.44813 0.51286 0.0
C978 C 0.8522 0.43503 0.53245 0.0
C979 C 0.86468 0.44935 0.53931 0.0
H980 H 0.32988 0.9674 0.24949 0.0
H981 H 0.28812 0.91225 0.27851 0.0
H982 H 0.37424 0.92832 0.24565 0.0
H983 H 0.33154 0.87398 0.27495 0.0
H984 H 0.40519 0.81563 0.22788 0.0
H985 H 0.36542 0.85763 0.23099 0.0
H986 H 0.4072 0.88327 0.27663 0.0
H987 H 0.44783 0.84084 0.27272 0.0
C988 C 0.33014 0.94704 0.25527 0.0
C989 C 0.30537 0.94304 0.26381 0.0
C990 C 0.35552 0.92465 0.25316 0.0
C991 C 0.35653 0.89792 0.25939 0.0
C992 C 0.3317 0.89418 0.26918 0.0
C993 C 0.30667 0.91626 0.27133 0.0
C994 C 0.40614 0.8302 0.23842 0.0
C995 C 0.4296 0.82442 0.25075 0.0
C996 C 0.38316 0.85435 0.24036 0.0
C997 C 0.38271 0.87375 0.25468 0.0
C998 C 0.4067 0.86875 0.26563 0.0
C999 C 0.4299 0.8443 0.26372 0.0
H1000 H 0.28489 0.41656 0.76978 0.0
H1001 H 0.32586 0.46851 0.7664 0.0
H1002 H 0.3276 0.37769 0.77161 0.0
H1003 H 0.36964 0.42848 0.76915 0.0
H1004 H 0.44483 0.34798 0.74037 0.0
H1005 H 0.40519 0.39169 0.74072 0.0
H1006 H 0.35788 0.34998 0.80835 0.0
H1007 H 0.39657 0.30696 0.80693 0.0
C1008 C 0.30311 0.41973 0.76959 0.0
C1009 C 0.30177 0.44579 0.76811 0.0
C1010 C 0.32777 0.3972 0.77091 0.0
C1011 C 0.35221 0.39961 0.77118 0.0
C1012 C 0.35123 0.4258 0.76906 0.0
C1013 C 0.32617 0.44871 0.76762 0.0
C1014 C 0.426 0.3484 0.75555 0.0
C1015 C 0.4236 0.32401 0.77318 0.0
C1016 C 0.40331 0.37342 0.75583 0.0
C1017 C 0.37799 0.3744 0.77397 0.0
C1018 C 0.37663 0.35008 0.7933 0.0
C1019 C 0.39893 0.32533 0.79264 0.0
H1020 H 0.16567 0.79925 0.61135 0.0
H1021 H 0.14786 0.75732 0.55876 0.0
H1022 H 0.12425 0.80111 0.64769 0.0
H1023 H 0.10568 0.76022 0.59434 0.0
H1024 H 0.05178 0.7393 0.68464 0.0
H1025 H 0.08988 0.74118 0.64417 0.0
H1026 H 0.07657 0.81952 0.65826 0.0
H1027 H 0.03917 0.81697 0.69969 0.0
C1028 C 0.15262 0.7909 0.60715 0.0
C1029 C 0.16023 0.77806 0.5821 0.0
C1030 C 0.12866 0.79208 0.62801 0.0
C1031 C 0.11137 0.78073 0.62427 0.0
C1032 C 0.11859 0.76871 0.59853 0.0
C1033 C 0.14274 0.76725 0.57787 0.0
C1034 C 0.05671 0.75712 0.67883 0.0
C1035 C 0.04235 0.77797 0.69553 0.0
C1036 C 0.07863 0.75827 0.65543 0.0
C1037 C 0.08667 0.78046 0.64778 0.0
C1038 C 0.07153 0.80179 0.66377 0.0
C1039 C 0.04983 0.80048 0.68741 0.0
H1040 H 0.20398 0.94008 0.32966 0.0
H1041 H 0.25542 0.94801 0.38071 0.0
H1042 H 0.20191 0.90014 0.36804 0.0
H1043 H 0.25231 0.90873 0.42021 0.0
H1044 H 0.26492 0.82092 0.4709 0.0
H1045 H 0.26599 0.86225 0.43443 0.0
H1046 H 0.18554 0.88063 0.41575 0.0
H1047 H 0.18525 0.83861 0.45148 0.0
C1048 C 0.2145 0.93361 0.34941 0.0
C1049 C 0.22982 0.94755 0.35186 0.0
C1050 C 0.21319 0.91056 0.37179 0.0
C1051 C 0.22687 0.90065 0.39783 0.0
C1052 C 0.24183 0.91501 0.4005 0.0
C1053 C 0.24343 0.93789 0.37784 0.0
C1054 C 0.24734 0.83394 0.45924 0.0
C1055 C 0.22495 0.82634 0.46434 0.0
C1056 C 0.24787 0.8579 0.43817 0.0
C1057 C 0.2259 0.87533 0.4215 0.0
C1058 C 0.20325 0.86783 0.42724 0.0
C1059 C 0.2029 0.8437 0.44808 0.0
H1060 H 0.95164 0.65594 0.66574 0.0
H1061 H 0.0183 0.67704 0.60855 0.0
H1062 H 0.95098 0.63487 0.62641 0.0
H1063 H 0.01727 0.65636 0.5686 0.0
H1064 H 0.03137 0.57858 0.53561 0.0
H1065 H 0.02938 0.6094 0.56463 0.0
H1066 H 0.94116 0.64327 0.5741 0.0
H1067 H 0.94325 0.61212 0.54456 0.0
C1068 C 0.96611 0.65616 0.64465 0.0
C1069 C 0.98529 0.6678 0.64043 0.0
C1070 C 0.96545 0.64444 0.62189 0.0
C1071 C 0.984 0.644 0.5943 0.0
C1072 C 0.00278 0.65627 0.58968 0.0
C1073 C 0.00331 0.66819 0.61246 0.0
C1074 C 0.01158 0.59327 0.54255 0.0
C1075 C 0.98755 0.59284 0.53736 0.0
C1076 C 0.01042 0.61096 0.55951 0.0
C1077 C 0.98511 0.62873 0.57188 0.0
C1078 C 0.96101 0.62954 0.5652 0.0
C1079 C 0.96221 0.6118 0.54809 0.0
H1080 H 0.32599 0.71099 0.4659 0.0
H1081 H 0.32269 0.78428 0.48374 0.0
H1082 H 0.36739 0.70798 0.42869 0.0
H1083 H 0.36316 0.78207 0.44572 0.0
H1084 H 0.44698 0.76414 0.38947 0.0
H1085 H 0.4103 0.76126 0.43179 0.0
H1086 H 0.38206 0.72791 0.37891 0.0
H1087 H 0.41937 0.72968 0.3374 0.0
C1088 C 0.33414 0.72642 0.46197 0.0
C1089 C 0.32097 0.74783 0.47793 0.0
C1090 C 0.35782 0.72486 0.44037 0.0
C1091 C 0.3688 0.74487 0.4338 0.0
C1092 C 0.35582 0.76596 0.45033 0.0
C1093 C 0.33239 0.76732 0.47217 0.0
C1094 C 0.43315 0.75588 0.38704 0.0
C1095 C 0.43627 0.74712 0.35994 0.0
C1096 C 0.41187 0.75443 0.41128 0.0
C1097 C 0.39285 0.7445 0.40897 0.0
C1098 C 0.3964 0.73525 0.38203 0.0
C1099 C 0.41784 0.7364 0.35799 0.0
H1100 H 0.21982 0.08152 0.18137 0.0
H1101 H 0.29053 0.07336 0.21478 0.0
H1102 H 0.2208 0.12285 0.14416 0.0
H1103 H 0.29194 0.11408 0.1773 0.0
H1104 H 0.26827 0.20435 0.13581 0.0
H1105 H 0.26873 0.16139 0.16888 0.0
H1106 H 0.24228 0.14511 0.09799 0.0
H1107 H 0.24141 0.189 0.06499 0.0
C1108 C 0.23583 0.08827 0.1806 0.0
C1109 C 0.255 0.0739 0.20149 0.0
C1110 C 0.23645 0.11207 0.15903 0.0
C1111 C 0.25624 0.12242 0.15762 0.0
C1112 C 0.27591 0.10745 0.17788 0.0
C1113 C 0.27525 0.08376 0.19941 0.0
C1114 C 0.26272 0.19159 0.12706 0.0
C1115 C 0.25498 0.20021 0.09746 0.0
C1116 C 0.26315 0.16664 0.1461 0.0
C1117 C 0.25585 0.14914 0.13639 0.0
C1118 C 0.24798 0.15782 0.10664 0.0
C1119 C 0.24764 0.18295 0.08746 0.0
H1120 H 0.81487 0.72674 0.94799 0.0
H1121 H 0.83543 0.7664 1.00083 0.0
H1122 H 0.85603 0.72453 0.91098 0.0
H1123 H 0.87732 0.76312 0.96459 0.0
H1124 H 0.94064 0.7082 0.85722 0.0
H1125 H 0.90372 0.70552 0.8993 0.0
H1126 H 0.89233 0.78278 0.91475 0.0
H1127 H 0.92993 0.78478 0.87366 0.0
C1128 C 0.82846 0.73451 0.95208 0.0
C1129 C 0.82169 0.74687 0.97737 0.0
C1130 C 0.85227 0.73312 0.93084 0.0
C1131 C 0.87021 0.74377 0.93446 0.0
C1132 C 0.86386 0.75522 0.96048 0.0
C1133 C 0.83988 0.7569 0.98151 0.0
C1134 C 0.93051 0.72442 0.86991 0.0
C1135 C 0.93835 0.74669 0.86198 0.0
C1136 C 0.90908 0.72302 0.89394 0.0
C1137 C 0.89464 0.74403 0.91052 0.0
C1138 C 0.90306 0.76594 0.90303 0.0
C1139 C 0.92467 0.76718 0.87925 0.0
H1140 H 0.27646 0.58465 0.73007 0.0
H1141 H 0.23255 0.57218 0.67355 0.0
H1142 H 0.27811 0.625 0.6924 0.0
H1143 H 0.23553 0.61181 0.6346 0.0
H1144 H 0.22102 0.69987 0.58318 0.0
H1145 H 0.22046 0.658 0.61888 0.0
H1146 H 0.29568 0.64536 0.64669 0.0
H1147 H 0.29512 0.68801 0.61215 0.0
C1148 C 0.26761 0.59018 0.70922 0.0
C1149 C 0.25447 0.57485 0.70502 0.0
C1150 C 0.26869 0.6135 0.68724 0.0
C1151 C 0.25709 0.62224 0.6598 0.0
C1152 C 0.24435 0.60648 0.6554 0.0
C1153 C 0.24284 0.58339 0.67773 0.0
C1154 C 0.23743 0.68812 0.59698 0.0
C1155 C 0.25795 0.6976 0.59497 0.0
C1156 C 0.23727 0.66378 0.61748 0.0
C1157 C 0.25786 0.64781 0.6365 0.0
C1158 C 0.2789 0.65704 0.63348 0.0
C1159 C 0.27882 0.68154 0.61328 0.0
H1160 H 0.36048 0.05433 0.37211 0.0
H1161 H 0.37191 0.97373 0.42632 0.0
H1162 H 0.3921 0.05685 0.39924 0.0
H1163 H 0.40385 0.97617 0.45353 0.0
H1164 H 0.48902 0.97982 0.45064 0.0
H1165 H 0.45156 0.97773 0.43329 0.0
H1166 H 0.39897 0.05714 0.45229 0.0
H1167 H 0.4368 0.05922 0.46971 0.0
C1168 C 0.36968 0.03722 0.38999 0.0
C1169 C 0.3641 0.0137 0.39683 0.0
C1170 C 0.38754 0.03877 0.40573 0.0
C1171 C 0.40052 0.01667 0.42836 0.0
C1172 C 0.39427 0.99341 0.43597 0.0
C1173 C 0.37601 0.99204 0.42051 0.0
C1174 C 0.46944 0.99682 0.45123 0.0
C1175 C 0.46564 0.01956 0.46193 0.0
C1176 C 0.44791 0.99546 0.44163 0.0
C1177 C 0.42228 0.01715 0.44173 0.0
C1178 C 0.41851 0.04008 0.45211 0.0
C1179 C 0.44004 0.04125 0.46216 0.0
H1180 H 0.74964 0.9302 0.03006 0.0
H1181 H 0.82918 0.87572 0.99495 0.0
H1182 H 0.76812 0.96478 1.02243 0.0
H1183 H 0.84752 0.91037 0.98772 0.0
H1184 H 0.84101 1.00978 0.97905 0.0
H1185 H 0.81693 0.98578 0.96752 0.0
H1186 H 0.82972 0.92999 0.05537 0.0
H1187 H 0.8533 0.9536 0.06701 0.0
C1188 C 0.77073 0.92601 1.01951 0.0
C1189 C 0.78813 0.90009 1.01363 0.0
C1190 C 0.7812 0.94586 1.01503 0.0
C1191 C 0.80907 0.9401 1.00435 0.0
C1192 C 0.82585 0.91524 0.99562 0.0
C1193 C 0.81544 0.89537 1.00014 0.0
C1194 C 0.83845 0.9925 0.99587 0.0
C1195 C 0.84956 0.98315 1.0236 0.0
C1196 C 0.82479 0.97886 0.98926 0.0
C1197 C 0.82192 0.95604 1.01054 0.0
C1198 C 0.83205 0.94743 0.03859 0.0
C1199 C 0.84564 0.96086 0.04511 0.0
H1200 H 0.64484 0.15981 0.53412 0.0
H1201 H 0.72364 0.09771 0.55333 0.0
H1202 H 0.6259 0.12557 0.54655 0.0
H1203 H 0.70418 0.06313 0.56786 0.0
H1204 H 0.67111 0.01507 0.52912 0.0
H1205 H 0.69128 0.0426 0.53931 0.0
H1206 H 0.6115 0.09265 0.57994 0.0
H1207 H 0.59134 0.06649 0.5671 0.0
C1208 C 0.65802 0.13879 0.54156 0.0
C1209 C 0.68591 0.13144 0.54184 0.0
C1210 C 0.64703 0.11905 0.54932 0.0
C1211 C 0.66355 0.09135 0.55797 0.0
C1212 C 0.69098 0.08418 0.56071 0.0
C1213 C 0.70208 0.10403 0.55265 0.0
C1214 C 0.6581 0.03158 0.54088 0.0
C1215 C 0.62967 0.03898 0.54692 0.0
C1216 C 0.66964 0.04731 0.54696 0.0
C1217 C 0.65292 0.07041 0.5597 0.0
C1218 C 0.62489 0.07566 0.56907 0.0
C1219 C 0.61333 0.06051 0.56207 0.0
H1220 H 0.78498 0.41595 0.27581 0.0
H1221 H 0.82669 0.46897 0.2651 0.0
H1222 H 0.82776 0.37712 0.27762 0.0
H1223 H 0.87058 0.42903 0.26774 0.0
H1224 H 0.94497 0.34752 0.24024 0.0
H1225 H 0.90526 0.39121 0.24043 0.0
H1226 H 0.85972 0.3504 0.31252 0.0
H1227 H 0.89845 0.30737 0.31134 0.0
C1228 C 0.80338 0.41938 0.274 0.0
C1229 C 0.80219 0.44575 0.27037 0.0
C1230 C 0.82812 0.39686 0.27532 0.0
C1231 C 0.85287 0.39958 0.2734 0.0
C1232 C 0.85198 0.42606 0.26931 0.0
C1233 C 0.82684 0.44894 0.26793 0.0
C1234 C 0.92654 0.34814 0.25637 0.0
C1235 C 0.92467 0.32392 0.2754 0.0
C1236 C 0.90377 0.37316 0.25654 0.0
C1237 C 0.87885 0.37441 0.27594 0.0
C1238 C 0.87807 0.35033 0.2965 0.0
C1239 C 0.90043 0.32555 0.29599 0.0
H1240 H 0.15665 0.51057 0.56373 0.0
H1241 H 0.113 0.59084 0.51231 0.0
H1242 H 0.18203 0.52952 0.58128 0.0
H1243 H 0.13607 0.60941 0.53235 0.0
H1244 H 0.2358 0.59179 0.53317 0.0
H1245 H 0.21442 0.55971 0.54082 0.0
H1246 H 0.1421 0.61076 0.59122 0.0
H1247 H 0.16366 0.64268 0.58448 0.0
C1248 C 0.15213 0.53213 0.55641 0.0
C1249 C 0.13242 0.54908 0.53665 0.0
C1250 C 0.16634 0.54295 0.56698 0.0
C1251 C 0.16031 0.57096 0.55885 0.0
C1252 C 0.14039 0.58785 0.53977 0.0
C1253 C 0.127 0.57706 0.52841 0.0
C1254 C 0.2159 0.59558 0.54725 0.0
C1255 C 0.20104 0.62024 0.55736 0.0
C1256 C 0.20374 0.57707 0.55174 0.0
C1257 C 0.17659 0.58307 0.56621 0.0
C1258 C 0.16309 0.60585 0.57987 0.0
C1259 C 0.17529 0.62425 0.57563 0.0
H1260 H 0.69283 0.10123 0.74545 0.0
H1261 H 0.65423 0.05916 0.82466 0.0
H1262 H 0.64998 0.1406 0.74168 0.0
H1263 H 0.61107 0.09956 0.82217 0.0
H1264 H 0.53279 0.17827 0.79925 0.0
H1265 H 0.57121 0.13397 0.797 0.0
H1266 H 0.62794 0.17413 0.77112 0.0
H1267 H 0.59032 0.21741 0.7724 0.0
C1268 C 0.67493 0.10033 0.76187 0.0
C1269 C 0.67689 0.07721 0.78539 0.0
C1270 C 0.65035 0.12307 0.75997 0.0
C1271 C 0.62706 0.1238 0.78221 0.0
C1272 C 0.62849 0.09987 0.80465 0.0
C1273 C 0.65319 0.07669 0.80611 0.0
C1274 C 0.55352 0.17745 0.79282 0.0
C1275 C 0.55844 0.20142 0.78591 0.0
C1276 C 0.57556 0.15208 0.79169 0.0
C1277 C 0.60288 0.15029 0.78343 0.0
C1278 C 0.60739 0.17445 0.77672 0.0
C1279 C 0.58564 0.19946 0.77777 0.0
H1280 H 0.72927 0.57442 0.17452 0.0
H1281 H 0.78054 0.58187 0.22628 0.0
H1282 H 0.73216 0.61416 0.13562 0.0
H1283 H 0.78243 0.62211 0.18852 0.0
H1284 H 0.7991 0.68392 0.10586 0.0
H1285 H 0.79908 0.64139 0.14048 0.0
H1286 H 0.71778 0.66109 0.12333 0.0
H1287 H 0.71855 0.70299 0.08778 0.0
C1288 C 0.74122 0.58447 0.17764 0.0
C1289 C 0.75481 0.5746 0.20364 0.0
C1290 C 0.74268 0.60759 0.15537 0.0
C1291 C 0.75753 0.62187 0.1585 0.0
C1292 C 0.77124 0.61172 0.1845 0.0
C1293 C 0.77004 0.58849 0.20649 0.0
C1294 C 0.78131 0.67904 0.10935 0.0
C1295 C 0.75887 0.69696 0.09396 0.0
C1296 C 0.78112 0.65463 0.12954 0.0
C1297 C 0.7583 0.64741 0.13539 0.0
C1298 C 0.73597 0.66535 0.11949 0.0
C1299 C 0.7363 0.68964 0.09909 0.0
H1300 H 0.9321 0.56208 0.46857 0.0
H1301 H -0.0057 0.49301 0.43301 0.0
H1302 H 0.89701 0.55466 0.45216 0.0
H1303 H 0.95973 0.48552 0.41681 0.0
H1304 H 0.89611 0.50187 0.35785 0.0
H1305 H 0.93018 0.50687 0.37802 0.0
H1306 H 0.87384 0.52323 0.46176 0.0
H1307 H 0.83948 0.51819 0.44139 0.0
C1308 C 0.93817 0.54513 0.4577 0.0
C1309 C 0.96581 0.52796 0.45248 0.0
C1310 C 0.91816 0.54086 0.44825 0.0
C1311 C 0.92556 0.51949 0.4331 0.0
C1312 C 0.9533 0.50244 0.4279 0.0
C1313 C 0.97315 0.50676 0.43723 0.0
C1314 C 0.89108 0.50589 0.38087 0.0
C1315 C 0.86502 0.50937 0.3981 0.0
C1316 C 0.91066 0.5089 0.39242 0.0
C1317 C 0.90477 0.51548 0.42155 0.0
C1318 C 0.87891 0.51851 0.43909 0.0
C1319 C 0.85928 0.51548 0.42748 0.0
H1320 H 0.1388 0.47691 0.65964 0.0
H1321 H 0.11037 0.56382 0.62736 0.0
H1322 H 0.1088 0.47486 0.63002 0.0
H1323 H 0.0801 0.56192 0.59725 0.0
H1324 H 0.00157 0.54817 0.59759 0.0
H1325 H 0.03807 0.55229 0.61436 0.0
H1326 H 0.09657 0.48106 0.57978 0.0
H1327 H 0.05954 0.47655 0.56375 0.0
C1328 C 0.12643 0.49553 0.64562 0.0
C1329 C 0.12654 0.52055 0.64603 0.0
C1330 C 0.10939 0.49435 0.62847 0.0
C1331 C 0.09182 0.51825 0.61154 0.0
C1332 C 0.09309 0.5432 0.61051 0.0
C1333 C 0.11047 0.54432 0.62751 0.0
C1334 C 0.02224 0.53339 0.5935 0.0
C1335 C 0.02782 0.51221 0.57895 0.0
C1336 C 0.04324 0.536 0.60272 0.0
C1337 C 0.07032 0.51719 0.59813 0.0
C1338 C 0.07592 0.49593 0.58359 0.0
C1339 C 0.05482 0.49344 0.57418 0.0
H1340 H 0.55862 0.80123 0.22174 0.0
H1341 H 0.53642 0.76133 0.17091 0.0
H1342 H 0.59689 0.80282 0.18124 0.0
H1343 H 0.57361 0.76425 0.1295 0.0
H1344 H 0.66126 0.74089 0.08077 0.0
H1345 H 0.62028 0.74397 0.11793 0.0
H1346 H 0.61476 0.81971 0.13183 0.0
H1347 H 0.65695 0.81568 0.09556 0.0
C1348 C 0.56149 0.79343 0.20149 0.0
C1349 C 0.54449 0.78105 0.19966 0.0
C1350 C 0.58348 0.79439 0.17808 0.0
C1351 C 0.58885 0.78338 0.15192 0.0
C1352 C 0.57086 0.77225 0.14953 0.0
C1353 C 0.54923 0.77082 0.17319 0.0
C1354 C 0.65121 0.75836 0.09151 0.0
C1355 C 0.66246 0.77806 0.08507 0.0
C1356 C 0.62743 0.76027 0.11284 0.0
C1357 C 0.61376 0.78219 0.12811 0.0
C1358 C 0.62475 0.80226 0.12109 0.0
C1359 C 0.64889 0.8001 0.10004 0.0
H1360 H 0.64332 0.4781 0.15154 0.0
H1361 H 0.59485 0.56352 0.14747 0.0
H1362 H 0.60984 0.47457 0.12891 0.0
H1363 H 0.56162 0.56052 0.12351 0.0
H1364 H 0.49188 0.5422 0.11385 0.0
H1365 H 0.52695 0.54635 0.13282 0.0
H1366 H 0.58858 0.48152 0.08901 0.0
H1367 H 0.55268 0.476 0.07249 0.0
C1368 C 0.62575 0.49634 0.14505 0.0
C1369 C 0.62174 0.52109 0.15135 0.0
C1370 C 0.60644 0.49436 0.1319 0.0
C1371 C 0.58263 0.51719 0.12429 0.0
C1372 C 0.57916 0.5422 0.12972 0.0
C1373 C 0.59836 0.54408 0.14325 0.0
C1374 C 0.51294 0.52869 0.10844 0.0
C1375 C 0.5196 0.50904 0.09114 0.0
C1376 C 0.53327 0.53138 0.11891 0.0
C1377 C 0.56101 0.51464 0.11219 0.0
C1378 C 0.56758 0.49483 0.09492 0.0
C1379 C 0.54707 0.49189 0.08483 0.0
H1380 H 0.36515 0.44254 0.05803 0.0
H1381 H 0.33507 0.51281 0.98545 0.0
H1382 H 0.3436 0.41969 0.04201 0.0
H1383 H 0.31195 0.48989 0.97053 0.0
H1384 H 0.2486 0.43954 1.00877 0.0
H1385 H 0.27219 0.46939 1.00415 0.0
H1386 H 0.35 0.40346 0.98966 0.0
H1387 H 0.32684 0.37349 0.99503 0.0
C1388 C 0.35432 0.45304 0.03832 0.0
C1389 C 0.35248 0.47934 1.02258 0.0
C1390 C 0.34187 0.43991 0.02924 0.0
C1391 C 0.32672 0.45286 1.00462 0.0
C1392 C 0.32389 0.47946 0.98934 0.0
C1393 C 0.3369 0.49257 0.9981 0.0
C1394 C 0.27072 0.43165 1.00376 0.0
C1395 C 0.28585 0.40398 1.00305 0.0
C1396 C 0.28415 0.44882 1.00075 0.0
C1397 C 0.31281 0.43847 0.99702 0.0
C1398 C 0.32784 0.41176 0.9927 0.0
C1399 C 0.3145 0.39465 0.99567 0.0
H1400 H 0.0394 0.17478 0.31684 0.0
H1401 H 0.08641 0.21519 0.24696 0.0
H1402 H 0.07933 0.1312 0.31715 0.0
H1403 H 0.12541 0.17228 0.24635 0.0
H1404 H 0.1998 0.10643 0.28394 0.0
H1405 H 0.15699 0.14533 0.28179 0.0
H1406 H 0.11447 0.09358 0.2898 0.0
H1407 H 0.15831 0.05365 0.29268 0.0
C1408 C 0.058 0.17426 0.30109 0.0
C1409 C 0.0599 0.19853 0.28224 0.0
C1410 C 0.08091 0.14929 0.30121 0.0
C1411 C 0.10602 0.14814 0.28232 0.0
C1412 C 0.1069 0.17227 0.26199 0.0
C1413 C 0.08438 0.19698 0.26217 0.0
C1414 C 0.18145 0.10307 0.28528 0.0
C1415 C 0.1827 0.07674 0.28843 0.0
C1416 C 0.15671 0.12562 0.28378 0.0
C1417 C 0.13203 0.12296 0.28509 0.0
C1418 C 0.13299 0.09652 0.28872 0.0
C1419 C 0.15812 0.07363 0.29023 0.0
H1420 H 0.22349 0.31485 0.91686 0.0
H1421 H 0.2322 0.33791 0.99438 0.0
H1422 H 0.22313 0.35788 0.88391 0.0
H1423 H 0.23215 0.38153 0.96118 0.0
H1424 H 0.25937 0.44453 0.87997 0.0
H1425 H 0.25816 0.4031 0.917 0.0
H1426 H 0.19533 0.4054 0.87402 0.0
H1427 H 0.19671 0.44639 0.83707 0.0
C1428 C 0.22532 0.32919 0.92701 0.0
C1429 C 0.22812 0.32266 0.95844 0.0
C1430 C 0.22495 0.35412 0.90801 0.0
C1431 C 0.22743 0.37364 0.9196 0.0
C1432 C 0.2304 0.3671 0.95113 0.0
C1433 C 0.23051 0.34204 0.97029 0.0
C1434 C 0.24508 0.43637 0.87857 0.0
C1435 C 0.22821 0.44904 0.85519 0.0
C1436 C 0.24433 0.41254 0.89998 0.0
C1437 C 0.22687 0.40041 0.89856 0.0
C1438 C 0.20948 0.4136 0.87571 0.0
C1439 C 0.21012 0.43741 0.8545 0.0
H1440 H 0.31689 0.28932 0.9754 0.0
H1441 H 0.32778 0.20994 0.96749 0.0
H1442 H 0.35832 0.28659 0.93884 0.0
H1443 H 0.37007 0.2065 0.932 0.0
H1444 H 0.42441 0.22304 0.84108 0.0
H1445 H 0.38615 0.22253 0.88154 0.0
H1446 H 0.40582 0.26809 0.92765 0.0
H1447 H 0.44345 0.26972 0.88606 0.0
C1448 C 0.32841 0.27101 0.96632 0.0
C1449 C 0.31885 0.2499 0.97438 0.0
C1450 C 0.35241 0.26935 0.94535 0.0
C1451 C 0.36782 0.24634 0.9321 0.0
C1452 C 0.35862 0.22484 0.94101 0.0
C1453 C 0.33439 0.2267 0.96163 0.0
C1454 C 0.42084 0.23269 0.86003 0.0
C1455 C 0.4371 0.24644 0.86021 0.0
C1456 C 0.39882 0.23229 0.88348 0.0
C1457 C 0.39255 0.24533 0.90814 0.0
C1458 C 0.40949 0.25828 0.90885 0.0
C1459 C 0.43133 0.25899 0.8851 0.0
H1460 H 0.48401 0.49074 0.94356 0.0
H1461 H 0.42356 0.55876 0.98219 0.0
H1462 H 0.44829 0.48378 0.92909 0.0
H1463 H 0.3872 0.55065 0.96987 0.0
H1464 H 0.38004 0.46288 0.92343 0.0
H1465 H 0.41242 0.46836 0.94674 0.0
H1466 H 0.36753 0.5554 0.92782 0.0
H1467 H 0.33473 0.54964 0.9062 0.0
C1468 C 0.46295 0.50412 0.94924 0.0
C1469 C 0.45647 0.52494 0.96474 0.0
C1470 C 0.44235 0.49982 0.94139 0.0
C1471 C 0.41466 0.5163 0.94873 0.0
C1472 C 0.40825 0.53748 0.96383 0.0
C1473 C 0.42899 0.54192 0.9714 0.0
C1474 C 0.37702 0.48308 0.92471 0.0
C1475 C 0.35493 0.50582 0.91299 0.0
C1476 C 0.39563 0.4863 0.93783 0.0
C1477 C 0.39293 0.51239 0.93878 0.0
C1478 C 0.37021 0.53497 0.92797 0.0
C1479 C 0.35139 0.53169 0.91541 0.0
H1480 H 0.64204 0.66598 0.03454 0.0
H1481 H 0.72038 0.60189 0.05173 0.0
H1482 H 0.62181 0.63268 0.04651 0.0
H1483 H 0.69975 0.56829 0.06547 0.0
H1484 H 0.66357 0.52446 1.02437 0.0
H1485 H 0.68514 0.55052 0.03489 0.0
H1486 H 0.60729 0.59923 0.08047 0.0
H1487 H 0.58558 0.57415 0.06808 0.0
C1488 C 0.65483 0.64473 0.04146 0.0
C1489 C 0.68293 0.63651 0.0414 0.0
C1490 C 0.64313 0.62556 0.04888 0.0
C1491 C 0.6592 0.59765 0.05671 0.0
C1492 C 0.6869 0.58957 0.05903 0.0
C1493 C 0.69867 0.60883 0.0514 0.0
C1494 C 0.65127 0.54025 0.03737 0.0
C1495 C 0.62287 0.54763 0.04496 0.0
C1496 C 0.66364 0.55515 0.0436 0.0
C1497 C 0.64783 0.57746 0.05791 0.0
C1498 C 0.61993 0.58275 0.06855 0.0
C1499 C 0.6075 0.56828 0.06167 0.0
H1500 H 0.94824 0.8468 0.75762 0.0
H1501 H 0.89015 0.80822 0.78815 0.0
H1502 H 0.9103 0.89129 0.76033 0.0
H1503 H 0.85292 0.85172 0.78986 0.0
H1504 H 0.78925 0.92543 0.81545 0.0
H1505 H 0.83185 0.88566 0.81854 0.0
H1506 H 0.87011 0.92588 0.73655 0.0
H1507 H 0.82728 0.96665 0.73475 0.0
C1508 C 0.92747 0.84778 0.76494 0.0
C1509 C 0.92227 0.8239 0.77276 0.0
C1510 C 0.90569 0.87327 0.76635 0.0
C1511 C 0.87834 0.87531 0.77575 0.0
C1512 C 0.87353 0.85123 0.78336 0.0
C1513 C 0.89504 0.82609 0.78206 0.0
C1514 C 0.80699 0.92606 0.79857 0.0
C1515 C 0.80495 0.94909 0.77486 0.0
C1516 C 0.83142 0.90308 0.80005 0.0
C1517 C 0.85441 0.902 0.77722 0.0
C1518 C 0.85293 0.92582 0.75455 0.0
C1519 C 0.82842 0.94923 0.75348 0.0
H1520 H 0.46351 0.19382 0.61911 0.0
H1521 H 0.53239 0.12465 0.65463 0.0
H1522 H 0.46345 0.16922 0.58294 0.0
H1523 H 0.53167 0.09969 0.61934 0.0
H1524 H 0.53736 0.06634 0.53926 0.0
H1525 H 0.53972 0.09679 0.56602 0.0
H1526 H 0.45148 0.1314 0.58569 0.0
H1527 H 0.44911 0.10124 0.55808 0.0
C1528 C 0.4789 0.1735 0.61893 0.0
C1529 C 0.49793 0.16121 0.63987 0.0
C1530 C 0.47863 0.15927 0.59844 0.0
C1531 C 0.49742 0.13241 0.5983 0.0
C1532 C 0.51704 0.12044 0.61855 0.0
C1533 C 0.51728 0.13465 0.63905 0.0
C1534 C 0.5184 0.08089 0.54848 0.0
C1535 C 0.49305 0.08128 0.54633 0.0
C1536 C 0.51979 0.09817 0.56426 0.0
C1537 C 0.49583 0.11636 0.57837 0.0
C1538 C 0.47037 0.11779 0.57489 0.0
C1539 C 0.469 0.10044 0.55907 0.0
H1540 H 0.52482 0.33387 0.93114 0.0
H1541 H 0.45131 0.40036 0.90236 0.0
H1542 H 0.5262 0.35888 0.96611 0.0
H1543 H 0.45333 0.42575 0.93624 0.0
H1544 H 0.44981 0.45803 1.01579 0.0
H1545 H 0.44804 0.4271 0.98952 0.0
H1546 H 0.53569 0.39868 0.96262 0.0
H1547 H 0.53752 0.42933 0.99007 0.0
C1548 C 0.50875 0.35367 0.93254 0.0
C1549 C 0.48793 0.36509 0.91391 0.0
C1550 C 0.50977 0.36815 0.9523 0.0
C1551 C 0.48994 0.39436 0.95398 0.0
C1552 C 0.46876 0.40548 0.93588 0.0
C1553 C 0.46775 0.39103 0.91616 0.0
C1554 C 0.46885 0.44465 1.00525 0.0
C1555 C 0.4938 0.44616 1.00544 0.0
C1556 C 0.46778 0.42713 0.98965 0.0
C1557 C 0.49167 0.41058 0.97359 0.0
C1558 C 0.51689 0.41101 0.97493 0.0
C1559 C 0.51794 0.42863 0.99066 0.0
H1560 H 0.53954 0.85185 0.4048 0.0
H1561 H 0.46135 0.85103 0.45405 0.0
H1562 H 0.54013 0.87718 0.43956 0.0
H1563 H 0.46207 0.87613 0.48937 0.0
H1564 H 0.45535 0.95608 0.50857 0.0
H1565 H 0.45642 0.92168 0.48561 0.0
H1566 H 0.54305 0.87904 0.48999 0.0
H1567 H 0.54198 0.91416 0.51265 0.0
C1568 C 0.52279 0.85644 0.4236 0.0
C1569 C 0.50033 0.84952 0.42654 0.0
C1570 C 0.52314 0.87097 0.44365 0.0
C1571 C 0.50108 0.87887 0.46727 0.0
C1572 C 0.4792 0.87081 0.47112 0.0
C1573 C 0.47878 0.85639 0.45092 0.0
C1574 C 0.47447 0.93898 0.5057 0.0
C1575 C 0.49854 0.93796 0.51262 0.0
C1576 C 0.47511 0.91913 0.49235 0.0
C1577 C 0.49986 0.89755 0.48571 0.0
C1578 C 0.5237 0.89563 0.49429 0.0
C1579 C 0.52306 0.91566 0.50749 0.0
H1580 H 0.52293 0.58466 1.02673 0.0
H1581 H 0.43987 0.59913 0.07167 0.0
H1582 H 0.52527 0.6153 0.05332 0.0
H1583 H 0.44233 0.62941 0.09887 0.0
H1584 H 0.44942 0.69201 0.13601 0.0
H1585 H 0.44615 0.67096 0.09801 0.0
H1586 H 0.52873 0.612 0.10532 0.0
H1587 H 0.53242 0.63378 0.14198 0.0
C1588 C 0.50501 0.59468 0.0419 0.0
C1589 C 0.48134 0.58918 0.04719 0.0
C1590 C 0.50641 0.61216 0.05736 0.0
C1591 C 0.48414 0.62455 0.07864 0.0
C1592 C 0.45982 0.62042 0.08247 0.0
C1593 C 0.45841 0.60298 0.06686 0.0
C1594 C 0.46709 0.67497 0.12892 0.0
C1595 C 0.4911 0.66445 0.14226 0.0
C1596 C 0.4651 0.66269 0.10741 0.0
C1597 C 0.48707 0.63964 0.09873 0.0
C1598 C 0.51146 0.62986 0.11115 0.0
C1599 C 0.51347 0.64216 0.13254 0.0
loop_
_geom_bond_atom_site_label_1
_geom_bond_atom_site_label_2
_geom_bond_distance
_geom_bond_site_symmetry_2
_ccdc_geom_bond_type
La0 C2 2.928 . S
La0 O20 2.521 . S
La0 O21 2.628 . S
La0 O22 2.554 1_655 S
La0 O23 2.757 1_655 S
La0 O24 2.470 1_654 S
La0 O29 2.482 1_564 S
La0 O31 2.503 1_565 S
La1 C11 2.928 . S
La1 O23 2.482 1_546 S
La1 O25 2.503 1_545 S
La1 O26 2.521 . S
La1 O27 2.628 . S
La1 O28 2.554 1_455 S
La1 O29 2.757 1_455 S
La1 O30 2.470 1_456 S
C2 La0 2.928 . S
C2 C3 1.503 . S
C2 O20 1.261 . S
C2 O21 1.243 . S
C3 C2 1.503 . S
C3 C4 1.394 . S
C3 C8 1.373 . S
C4 C3 1.394 . S
C4 C5 1.380 . S
C4 H32 0.930 . S
C5 C4 1.380 . S
C5 C6 1.376 . S
C5 H33 0.930 . S
C6 C5 1.376 . S
C6 C7 1.370 . S
C7 C6 1.370 . S
C7 C8 1.396 . S
C7 H34 0.929 . S
C8 C3 1.373 . S
C8 C7 1.396 . S
C8 H35 0.953 . S
C9 O22 1.240 . S
C9 O23 1.289 . S
C10 O24 1.258 . S
C10 O25 1.256 . S
C11 La1 2.928 . S
C11 C12 1.503 . S
C11 O26 1.261 . S
C11 O27 1.243 . S
C12 C11 1.503 . S
C12 C13 1.394 . S
C12 C17 1.373 . S
C13 C12 1.394 . S
C13 C14 1.380 . S
C13 H36 0.930 . S
C14 C13 1.380 . S
C14 C15 1.376 . S
C14 H37 0.930 . S
C15 C14 1.376 . S
C15 C16 1.370 . S
C16 C15 1.370 . S
C16 C17 1.396 . S
C16 H38 0.929 . S
C17 C12 1.373 . S
C17 C16 1.396 . S
C17 H39 0.941 . S
C18 O28 1.240 . S
C18 O29 1.289 . S
C19 O30 1.258 . S
C19 O31 1.256 . S
O20 La0 2.521 . S
O20 C2 1.261 . S
O21 La0 2.628 . S
O21 C2 1.243 . S
O22 La0 2.554 1_455 S
O22 C9 1.240 . S
O23 La0 2.757 1_455 S
O23 La1 2.482 1_564 S
O23 C9 1.289 . S
O24 La0 2.470 1_456 S
O24 C10 1.258 . S
O25 La1 2.503 1_565 S
O25 C10 1.256 . S
O26 La1 2.521 . S
O26 C11 1.261 . S
O27 La1 2.628 . S
O27 C11 1.243 . S
O28 La1 2.554 1_655 S
O28 C18 1.240 . S
O29 La0 2.482 1_546 S
O29 La1 2.757 1_655 S
O29 C18 1.289 . S
O30 La1 2.470 1_654 S
O30 C19 1.258 . S
O31 La0 2.503 1_545 S
O31 C19 1.256 . S
H32 C4 0.930 . S
H33 C5 0.930 . S
H34 C7 0.929 . S
H35 C8 0.953 . S
H36 C13 0.930 . S
H37 C14 0.930 . S
H38 C16 0.929 . S
H39 C17 0.941 . S
La40 C42 2.928 . S
La40 O60 2.521 . S
La40 O61 2.628 1_455 S
La40 O62 2.554 . S
La40 O63 2.757 . S
La40 O64 2.470 1_455 S
La40 O69 2.482 1_455 S
La40 O71 2.503 . S
La41 C51 2.928 . S
La41 O63 2.482 1_655 S
La41 O65 2.503 . S
La41 O66 2.521 . S
La41 O67 2.628 1_655 S
La41 O68 2.554 . S
La41 O69 2.757 . S
La41 O70 2.470 1_655 S
C42 La40 2.928 . S
C42 C43 1.502 . S
C42 O60 1.261 . S
C42 O61 1.243 1_455 S
C43 C42 1.502 . S
C43 C44 1.398 . S
C43 C48 1.370 1_455 S
C44 C43 1.398 . S
C44 C45 1.380 . S
C44 H72 0.930 . S
C45 C44 1.380 . S
C45 C46 1.376 1_455 S
C45 H73 0.930 . S
C46 C45 1.376 1_655 S
C46 C47 1.370 . S
C47 C46 1.370 . S
C47 C48 1.396 . S
C47 H74 0.929 . S
C48 C43 1.370 1_655 S
C48 C47 1.396 . S
C48 H75 0.929 . S
C49 O62 1.240 . S
C49 O63 1.289 . S
C50 O64 1.258 . S
C50 O65 1.256 . S
C51 La41 2.928 . S
C51 C52 1.504 1_655 S
C51 O66 1.261 . S
C51 O67 1.243 1_655 S
C52 C51 1.504 1_455 S
C52 C53 1.390 1_455 S
C52 C57 1.376 . S
C53 C52 1.390 1_655 S
C53 C54 1.380 . S
C53 H76 0.930 . S
C54 C53 1.380 . S
C54 C55 1.376 1_655 S
C54 H77 0.930 . S
C55 C54 1.376 1_455 S
C55 C56 1.370 . S
C56 C55 1.370 . S
C56 C57 1.396 . S
C56 H78 0.929 . S
C57 C52 1.376 . S
C57 C56 1.396 . S
C57 H79 0.929 . S
C58 O68 1.240 . S
C58 O69 1.289 . S
C59 O70 1.258 . S
C59 O71 1.256 . S
O60 La40 2.521 . S
O60 C42 1.261 . S
O61 La40 2.628 1_655 S
O61 C42 1.243 1_655 S
O62 La40 2.554 . S
O62 C49 1.240 . S
O63 La40 2.757 . S
O63 La41 2.482 1_455 S
O63 C49 1.289 . S
O64 La40 2.470 1_655 S
O64 C50 1.258 . S
O65 La41 2.503 . S
O65 C50 1.256 . S
O66 La41 2.521 . S
O66 C51 1.261 . S
O67 La41 2.628 1_455 S
O67 C51 1.243 1_455 S
O68 La41 2.554 . S
O68 C58 1.240 . S
O69 La40 2.482 1_655 S
O69 La41 2.757 . S
O69 C58 1.289 . S
O70 La41 2.470 1_455 S
O70 C59 1.258 . S
O71 La40 2.503 . S
O71 C59 1.256 . S
H72 C44 0.930 . S
H73 C45 0.930 . S
H74 C47 0.929 . S
H75 C48 0.929 . S
H76 C53 0.930 . S
H77 C54 0.930 . S
H78 C56 0.929 . S
H79 C57 0.929 . S
La80 C82 2.928 . S
La80 O100 2.521 . S
La80 O101 2.628 . S
La80 O102 2.554 . S
La80 O103 2.757 . S
La80 O104 2.470 . S
La80 O109 2.482 . S
La80 O111 2.503 . S
La81 C91 2.928 . S
La81 O103 2.482 . S
La81 O105 2.503 . S
La81 O106 2.521 . S
La81 O107 2.628 . S
La81 O108 2.554 . S
La81 O109 2.757 . S
La81 O110 2.470 . S
C82 La80 2.928 . S
C82 C83 1.503 . S
C82 O100 1.261 . S
C82 O101 1.243 . S
C83 C82 1.503 . S
C83 C84 1.394 . S
C83 C88 1.373 . S
C84 C83 1.394 . S
C84 C85 1.380 . S
C84 H112 0.930 . S
C85 C84 1.380 . S
C85 C86 1.376 . S
C85 H113 0.930 . S
C86 C85 1.376 . S
C86 C87 1.370 . S
C87 C86 1.370 . S
C87 C88 1.396 . S
C87 H114 0.929 . S
C88 C83 1.373 . S
C88 C87 1.396 . S
C88 H115 0.929 . S
C89 O102 1.240 . S
C89 O103 1.289 . S
C90 O104 1.258 . S
C90 O105 1.256 . S
C91 La81 2.928 . S
C91 C92 1.503 . S
C91 O106 1.261 . S
C91 O107 1.243 . S
C92 C91 1.503 . S
C92 C93 1.394 . S
C92 C97 1.373 . S
C93 C92 1.394 . S
C93 C94 1.380 . S
C93 H116 0.930 . S
C94 C93 1.380 . S
C94 C95 1.376 . S
C94 H117 0.930 . S
C95 C94 1.376 . S
C95 C96 1.370 . S
C96 C95 1.370 . S
C96 C97 1.396 . S
C96 H118 0.929 . S
C97 C92 1.373 . S
C97 C96 1.396 . S
C97 H119 0.929 . S
C98 O108 1.240 . S
C98 O109 1.289 . S
C99 O110 1.258 . S
C99 O111 1.256 . S
O100 La80 2.521 . S
O100 C82 1.261 . S
O101 La80 2.628 . S
O101 C82 1.243 . S
O102 La80 2.554 . S
O102 C89 1.240 . S
O103 La80 2.757 . S
O103 La81 2.482 . S
O103 C89 1.289 . S
O104 La80 2.470 . S
O104 C90 1.258 . S
O105 La81 2.503 . S
O105 C90 1.256 . S
O106 La81 2.521 . S
O106 C91 1.261 . S
O107 La81 2.628 . S
O107 C91 1.243 . S
O108 La81 2.554 . S
O108 C98 1.240 . S
O109 La80 2.482 . S
O109 La81 2.757 . S
O109 C98 1.289 . S
O110 La81 2.470 . S
O110 C99 1.258 . S
O111 La80 2.503 . S
O111 C99 1.256 . S
H112 C84 0.930 . S
H113 C85 0.930 . S
H114 C87 0.929 . S
H115 C88 0.929 . S
H116 C93 0.930 . S
H117 C94 0.930 . S
H118 C96 0.929 . S
H119 C97 0.929 . S
La120 C122 2.928 . S
La120 O140 2.521 . S
La120 O141 2.628 1_565 S
La120 O142 2.554 . S
La120 O143 2.757 . S
La120 O144 2.470 1_565 S
La120 O149 2.482 1_565 S
La120 O151 2.503 . S
La121 C131 2.928 . S
La121 O143 2.482 1_545 S
La121 O145 2.503 . S
La121 O146 2.521 . S
La121 O147 2.628 1_545 S
La121 O148 2.554 . S
La121 O149 2.757 . S
La121 O150 2.470 1_545 S
C122 La120 2.928 . S
C122 C123 1.503 1_565 S
C122 O140 1.261 . S
C122 O141 1.243 1_565 S
C123 C122 1.503 1_545 S
C123 C124 1.394 1_545 S
C123 C128 1.373 . S
C124 C123 1.394 1_565 S
C124 C125 1.380 . S
C124 H152 0.930 . S
C125 C124 1.380 . S
C125 C126 1.376 1_565 S
C125 H153 0.930 . S
C126 C125 1.376 1_545 S
C126 C127 1.370 . S
C127 C126 1.370 . S
C127 C128 1.396 . S
C127 H154 0.929 . S
C128 C123 1.373 . S
C128 C127 1.396 . S
C128 H155 0.929 . S
C129 O142 1.240 . S
C129 O143 1.289 . S
C130 O144 1.258 . S
C130 O145 1.256 . S
C131 La121 2.928 . S
C131 C132 1.503 1_545 S
C131 O146 1.261 . S
C131 O147 1.243 1_545 S
C132 C131 1.503 1_565 S
C132 C133 1.394 1_565 S
C132 C137 1.373 . S
C133 C132 1.394 1_545 S
C133 C134 1.380 . S
C133 H156 0.930 . S
C134 C133 1.380 . S
C134 C135 1.376 1_545 S
C134 H157 0.930 . S
C135 C134 1.376 1_565 S
C135 C136 1.370 . S
C136 C135 1.370 . S
C136 C137 1.396 . S
C136 H158 0.929 . S
C137 C132 1.373 . S
C137 C136 1.396 . S
C137 H159 0.929 . S
C138 O148 1.240 . S
C138 O149 1.289 . S
C139 O150 1.258 . S
C139 O151 1.256 . S
O140 La120 2.521 . S
O140 C122 1.261 . S
O141 La120 2.628 1_545 S
O141 C122 1.243 1_545 S
O142 La120 2.554 . S
O142 C129 1.240 . S
O143 La120 2.757 . S
O143 La121 2.482 1_565 S
O143 C129 1.289 . S
O144 La120 2.470 1_545 S
O144 C130 1.258 . S
O145 La121 2.503 . S
O145 C130 1.256 . S
O146 La121 2.521 . S
O146 C131 1.261 . S
O147 La121 2.628 1_565 S
O147 C131 1.243 1_565 S
O148 La121 2.554 . S
O148 C138 1.240 . S
O149 La120 2.482 1_545 S
O149 La121 2.757 . S
O149 C138 1.289 . S
O150 La121 2.470 1_565 S
O150 C139 1.258 . S
O151 La120 2.503 . S
O151 C139 1.256 . S
H152 C124 0.930 . S
H153 C125 0.930 . S
H154 C127 0.929 . S
H155 C128 0.929 . S
H156 C133 0.930 . S
H157 C134 0.930 . S
H158 C136 0.929 . S
H159 C137 0.929 . S
La160 C162 2.928 . S
La160 O180 2.521 . S
La160 O181 2.628 . S
La160 O182 2.554 . S
La160 O183 2.757 . S
La160 O184 2.470 . S
La160 O189 2.482 . S
La160 O191 2.503 . S
La161 C171 2.928 . S
La161 O183 2.482 . S
La161 O185 2.503 . S
La161 O186 2.521 . S
La161 O187 2.628 . S
La161 O188 2.554 . S
La161 O189 2.757 . S
La161 O190 2.470 . S
C162 La160 2.928 . S
C162 C163 1.503 . S
C162 O180 1.261 . S
C162 O181 1.243 . S
C163 C162 1.503 . S
C163 C164 1.394 . S
C163 C168 1.373 . S
C164 C163 1.394 . S
C164 C165 1.380 . S
C164 H192 0.930 . S
C165 C164 1.380 . S
C165 C166 1.376 . S
C165 H193 0.930 . S
C166 C165 1.376 . S
C166 C167 1.370 . S
C167 C166 1.370 . S
C167 C168 1.396 . S
C167 H194 0.929 . S
C168 C163 1.373 . S
C168 C167 1.396 . S
C168 H195 0.929 . S
C169 O182 1.240 . S
C169 O183 1.289 . S
C170 O184 1.258 . S
C170 O185 1.256 . S
C171 La161 2.928 . S
C171 C172 1.503 . S
C171 O186 1.261 . S
C171 O187 1.243 . S
C172 C171 1.503 . S
C172 C173 1.394 . S
C172 C177 1.373 . S
C173 C172 1.394 . S
C173 C174 1.380 . S
C173 H196 0.930 . S
C174 C173 1.380 . S
C174 C175 1.376 . S
C174 H197 0.930 . S
C175 C174 1.376 . S
C175 C176 1.370 . S
C176 C175 1.370 . S
C176 C177 1.396 . S
C176 H198 0.929 . S
C177 C172 1.373 . S
C177 C176 1.396 . S
C177 H199 0.929 . S
C178 O188 1.240 . S
C178 O189 1.289 . S
C179 O190 1.258 . S
C179 O191 1.256 . S
O180 La160 2.521 . S
O180 C162 1.261 . S
O181 La160 2.628 . S
O181 C162 1.243 . S
O182 La160 2.554 . S
O182 C169 1.240 . S
O183 La160 2.757 . S
O183 La161 2.482 . S
O183 C169 1.289 . S
O184 La160 2.470 . S
O184 C170 1.258 . S
O185 La161 2.503 . S
O185 C170 1.256 . S
O186 La161 2.521 . S
O186 C171 1.261 . S
O187 La161 2.628 . S
O187 C171 1.243 . S
O188 La161 2.554 . S
O188 C178 1.240 . S
O189 La160 2.482 . S
O189 La161 2.757 . S
O189 C178 1.289 . S
O190 La161 2.470 . S
O190 C179 1.258 . S
O191 La160 2.503 . S
O191 C179 1.256 . S
H192 C164 0.930 . S
H193 C165 0.930 . S
H194 C167 0.929 . S
H195 C168 0.929 . S
H196 C173 0.930 . S
H197 C174 0.930 . S
H198 C176 0.929 . S
H199 C177 0.929 . S
La200 C202 2.928 . S
La200 O220 2.521 . S
La200 O221 2.628 . S
La200 O222 2.554 . S
La200 O223 2.757 . S
La200 O224 2.470 . S
La200 O229 2.482 . S
La200 O231 2.503 . S
La201 C211 2.928 . S
La201 O223 2.482 . S
La201 O225 2.503 . S
La201 O226 2.521 . S
La201 O227 2.628 . S
La201 O228 2.554 . S
La201 O229 2.757 . S
La201 O230 2.470 . S
C202 La200 2.928 . S
C202 C203 1.503 . S
C202 O220 1.261 . S
C202 O221 1.243 . S
C203 C202 1.503 . S
C203 C204 1.394 . S
C203 C208 1.373 . S
C204 C203 1.394 . S
C204 C205 1.380 . S
C204 H232 0.930 . S
C205 C204 1.380 . S
C205 C206 1.376 . S
C205 H233 0.930 . S
C206 C205 1.376 . S
C206 C207 1.370 . S
C207 C206 1.370 . S
C207 C208 1.396 . S
C207 H234 0.929 . S
C208 C203 1.373 . S
C208 C207 1.396 . S
C208 H235 0.929 . S
C209 O222 1.240 . S
C209 O223 1.289 . S
C210 O224 1.258 . S
C210 O225 1.256 . S
C211 La201 2.928 . S
C211 C212 1.503 . S
C211 O226 1.261 . S
C211 O227 1.243 . S
C212 C211 1.503 . S
C212 C213 1.394 . S
C212 C217 1.373 . S
C213 C212 1.394 . S
C213 C214 1.380 . S
C213 H236 0.930 . S
C214 C213 1.380 . S
C214 C215 1.376 . S
C214 H237 0.930 . S
C215 C214 1.376 . S
C215 C216 1.370 . S
C216 C215 1.370 . S
C216 C217 1.396 . S
C216 H238 0.929 . S
C217 C212 1.373 . S
C217 C216 1.396 . S
C217 H239 0.929 . S
C218 O228 1.240 . S
C218 O229 1.289 . S
C219 O230 1.258 . S
C219 O231 1.256 . S
O220 La200 2.521 . S
O220 C202 1.261 . S
O221 La200 2.628 . S
O221 C202 1.243 . S
O222 La200 2.554 . S
O222 C209 1.240 . S
O223 La200 2.757 . S
O223 La201 2.482 . S
O223 C209 1.289 . S
O224 La200 2.470 . S
O224 C210 1.258 . S
O225 La201 2.503 . S
O225 C210 1.256 . S
O226 La201 2.521 . S
O226 C211 1.261 . S
O227 La201 2.628 . S
O227 C211 1.243 . S
O228 La201 2.554 . S
O228 C218 1.240 . S
O229 La200 2.482 . S
O229 La201 2.757 . S
O229 C218 1.289 . S
O230 La201 2.470 . S
O230 C219 1.258 . S
O231 La200 2.503 . S
O231 C219 1.256 . S
H232 C204 0.930 . S
H233 C205 0.930 . S
H234 C207 0.929 . S
H235 C208 0.929 . S
H236 C213 0.930 . S
H237 C214 0.930 . S
H238 C216 0.929 . S
H239 C217 0.929 . S
La240 C242 2.928 . S
La240 O260 2.521 . S
La240 O261 2.628 . S
La240 O262 2.554 . S
La240 O263 2.757 . S
La240 O264 2.470 . S
La240 O269 2.482 . S
La240 O271 2.503 . S
La241 C251 2.928 . S
La241 O263 2.482 . S
La241 O265 2.503 . S
La241 O266 2.521 . S
La241 O267 2.628 . S
La241 O268 2.554 . S
La241 O269 2.757 . S
La241 O270 2.470 . S
C242 La240 2.928 . S
C242 C243 1.503 . S
C242 O260 1.261 . S
C242 O261 1.243 . S
C243 C242 1.503 . S
C243 C244 1.394 . S
C243 C248 1.373 . S
C244 C243 1.394 . S
C244 C245 1.380 . S
C244 H272 0.930 . S
C245 C244 1.380 . S
C245 C246 1.376 . S
C245 H273 0.930 . S
C246 C245 1.376 . S
C246 C247 1.370 . S
C247 C246 1.370 . S
C247 C248 1.396 . S
C247 H274 0.929 . S
C248 C243 1.373 . S
C248 C247 1.396 . S
C248 H275 0.929 . S
C249 O262 1.240 . S
C249 O263 1.289 . S
C250 O264 1.258 . S
C250 O265 1.256 . S
C251 La241 2.928 . S
C251 C252 1.503 . S
C251 O266 1.261 . S
C251 O267 1.243 . S
C252 C251 1.503 . S
C252 C253 1.394 . S
C252 C257 1.373 . S
C253 C252 1.394 . S
C253 C254 1.380 . S
C253 H276 0.930 . S
C254 C253 1.380 . S
C254 C255 1.376 . S
C254 H277 0.930 . S
C255 C254 1.376 . S
C255 C256 1.370 . S
C256 C255 1.370 . S
C256 C257 1.396 . S
C256 H278 0.929 . S
C257 C252 1.373 . S
C257 C256 1.396 . S
C257 H279 0.929 . S
C258 O268 1.240 . S
C258 O269 1.289 . S
C259 O270 1.258 . S
C259 O271 1.256 . S
O260 La240 2.521 . S
O260 C242 1.261 . S
O261 La240 2.628 . S
O261 C242 1.243 . S
O262 La240 2.554 . S
O262 C249 1.240 . S
O263 La240 2.757 . S
O263 La241 2.482 . S
O263 C249 1.289 . S
O264 La240 2.470 . S
O264 C250 1.258 . S
O265 La241 2.503 . S
O265 C250 1.256 . S
O266 La241 2.521 . S
O266 C251 1.261 . S
O267 La241 2.628 . S
O267 C251 1.243 . S
O268 La241 2.554 . S
O268 C258 1.240 . S
O269 La240 2.482 . S
O269 La241 2.757 . S
O269 C258 1.289 . S
O270 La241 2.470 . S
O270 C259 1.258 . S
O271 La240 2.503 . S
O271 C259 1.256 . S
H272 C244 0.930 . S
H273 C245 0.930 . S
H274 C247 0.929 . S
H275 C248 0.929 . S
H276 C253 0.930 . S
H277 C254 0.930 . S
H278 C256 0.929 . S
H279 C257 0.929 . S
La280 C282 2.928 . S
La280 O300 2.521 . S
La280 O301 2.628 . S
La280 O302 2.554 1_655 S
La280 O303 2.757 1_655 S
La280 O304 2.470 1_655 S
La280 O309 2.482 . S
La280 O311 2.503 . S
La281 C291 2.928 . S
La281 O303 2.482 . S
La281 O305 2.503 . S
La281 O306 2.521 . S
La281 O307 2.628 . S
La281 O308 2.554 1_455 S
La281 O309 2.757 1_455 S
La281 O310 2.470 1_455 S
C282 La280 2.928 . S
C282 C283 1.503 . S
C282 O300 1.261 . S
C282 O301 1.243 . S
C283 C282 1.503 . S
C283 C284 1.394 . S
C283 C288 1.373 . S
C284 C283 1.394 . S
C284 C285 1.380 . S
C284 H312 0.930 . S
C285 C284 1.380 . S
C285 C286 1.376 . S
C285 H313 0.930 . S
C286 C285 1.376 . S
C286 C287 1.370 . S
C287 C286 1.370 . S
C287 C288 1.396 . S
C287 H314 0.929 . S
C288 C283 1.373 . S
C288 C287 1.396 . S
C288 H315 0.929 . S
C289 O302 1.240 . S
C289 O303 1.289 . S
C290 O304 1.258 . S
C290 O305 1.256 . S
C291 La281 2.928 . S
C291 C292 1.503 . S
C291 O306 1.261 . S
C291 O307 1.243 . S
C292 C291 1.503 . S
C292 C293 1.394 . S
C292 C297 1.373 . S
C293 C292 1.394 . S
C293 C294 1.380 . S
C293 H316 0.930 . S
C294 C293 1.380 . S
C294 C295 1.376 . S
C294 H317 0.930 . S
C295 C294 1.376 . S
C295 C296 1.370 . S
C296 C295 1.370 . S
C296 C297 1.396 . S
C296 H318 0.929 . S
C297 C292 1.373 . S
C297 C296 1.396 . S
C297 H319 0.929 . S
C298 O308 1.240 . S
C298 O309 1.289 . S
C299 O310 1.258 . S
C299 O311 1.256 . S
O300 La280 2.521 . S
O300 C282 1.261 . S
O301 La280 2.628 . S
O301 C282 1.243 . S
O302 La280 2.554 1_455 S
O302 C289 1.240 . S
O303 La280 2.757 1_455 S
O303 La281 2.482 . S
O303 C289 1.289 . S
O304 La280 2.470 1_455 S
O304 C290 1.258 . S
O305 La281 2.503 . S
O305 C290 1.256 . S
O306 La281 2.521 . S
O306 C291 1.261 . S
O307 La281 2.628 . S
O307 C291 1.243 . S
O308 La281 2.554 1_655 S
O308 C298 1.240 . S
O309 La280 2.482 . S
O309 La281 2.757 1_655 S
O309 C298 1.289 . S
O310 La281 2.470 1_655 S
O310 C299 1.258 . S
O311 La280 2.503 . S
O311 C299 1.256 . S
H312 C284 0.930 . S
H313 C285 0.930 . S
H314 C287 0.929 . S
H315 C288 0.929 . S
H316 C293 0.930 . S
H317 C294 0.930 . S
H318 C296 0.929 . S
H319 C297 0.929 . S
La320 C322 2.928 . S
La320 O340 2.521 . S
La320 O341 2.629 . S
La320 O342 2.554 . S
La320 O343 2.757 . S
La320 O344 2.470 1_556 S
La320 O349 2.482 1_556 S
La320 O351 2.503 . S
La321 C331 2.928 . S
La321 O343 2.482 1_554 S
La321 O345 2.503 . S
La321 O346 2.521 . S
La321 O347 2.633 . S
La321 O348 2.554 . S
La321 O349 2.757 . S
La321 O350 2.470 1_554 S
C322 La320 2.928 . S
C322 C323 1.503 . S
C322 O340 1.261 . S
C322 O341 1.247 . S
C323 C322 1.503 . S
C323 C324 1.394 . S
C323 C328 1.373 1_556 S
C324 C323 1.394 . S
C324 C325 1.380 . S
C324 H352 0.930 . S
C325 C324 1.380 . S
C325 C326 1.376 . S
C325 H353 0.930 . S
C326 C325 1.376 . S
C326 C327 1.370 1_556 S
C327 C326 1.370 1_554 S
C327 C328 1.396 . S
C327 H354 0.929 . S
C328 C323 1.373 1_554 S
C328 C327 1.396 . S
C328 H355 0.929 . S
C329 O342 1.240 . S
C329 O343 1.289 . S
C330 O344 1.258 . S
C330 O345 1.256 . S
C331 La321 2.928 . S
C331 C332 1.503 . S
C331 O346 1.261 . S
C331 O347 1.261 . S
C332 C331 1.503 . S
C332 C333 1.394 . S
C332 C337 1.373 1_554 S
C333 C332 1.394 . S
C333 C334 1.380 . S
C333 H356 0.930 . S
C334 C333 1.380 . S
C334 C335 1.376 . S
C334 H357 0.930 . S
C335 C334 1.376 . S
C335 C336 1.370 1_554 S
C336 C335 1.370 1_556 S
C336 C337 1.396 . S
C336 H358 0.929 . S
C337 C332 1.373 1_556 S
C337 C336 1.396 . S
C337 H359 0.929 . S
C338 O348 1.240 . S
C338 O349 1.289 . S
C339 O350 1.258 . S
C339 O351 1.256 . S
O340 La320 2.521 . S
O340 C322 1.261 . S
O341 La320 2.629 . S
O341 C322 1.247 . S
O342 La320 2.554 . S
O342 C329 1.240 . S
O343 La320 2.757 . S
O343 La321 2.482 1_556 S
O343 C329 1.289 . S
O344 La320 2.470 1_554 S
O344 C330 1.258 . S
O345 La321 2.503 . S
O345 C330 1.256 . S
O346 La321 2.521 . S
O346 C331 1.261 . S
O347 La321 2.633 . S
O347 C331 1.261 . S
O348 La321 2.554 . S
O348 C338 1.240 . S
O349 La320 2.482 1_554 S
O349 La321 2.757 . S
O349 C338 1.289 . S
O350 La321 2.470 1_556 S
O350 C339 1.258 . S
O351 La320 2.503 . S
O351 C339 1.256 . S
H352 C324 0.930 . S
H353 C325 0.930 . S
H354 C327 0.929 . S
H355 C328 0.929 . S
H356 C333 0.930 . S
H357 C334 0.930 . S
H358 C336 0.929 . S
H359 C337 0.929 . S
La360 C362 2.928 . S
La360 O380 2.521 . S
La360 O381 2.628 1_565 S
La360 O382 2.554 . S
La360 O383 2.757 . S
La360 O384 2.470 1_565 S
La360 O389 2.482 1_565 S
La360 O391 2.503 . S
La361 C371 2.928 . S
La361 O383 2.482 1_545 S
La361 O385 2.503 . S
La361 O386 2.521 . S
La361 O387 2.628 1_545 S
La361 O388 2.554 . S
La361 O389 2.757 . S
La361 O390 2.470 1_545 S
C362 La360 2.928 . S
C362 C363 1.503 1_565 S
C362 O380 1.261 . S
C362 O381 1.243 1_565 S
C363 C362 1.503 1_545 S
C363 C364 1.394 1_545 S
C363 C368 1.373 . S
C364 C363 1.394 1_565 S
C364 C365 1.380 . S
C364 H392 0.930 . S
C365 C364 1.380 . S
C365 C366 1.376 1_565 S
C365 H393 0.930 . S
C366 C365 1.376 1_545 S
C366 C367 1.370 . S
C367 C366 1.370 . S
C367 C368 1.396 . S
C367 H394 0.929 . S
C368 C363 1.373 . S
C368 C367 1.396 . S
C368 H395 0.929 . S
C369 O382 1.240 . S
C369 O383 1.289 . S
C370 O384 1.258 . S
C370 O385 1.256 . S
C371 La361 2.928 . S
C371 C372 1.503 1_545 S
C371 O386 1.261 . S
C371 O387 1.243 1_545 S
C372 C371 1.503 1_565 S
C372 C373 1.394 1_565 S
C372 C377 1.373 . S
C373 C372 1.394 1_545 S
C373 C374 1.380 . S
C373 H396 0.930 . S
C374 C373 1.380 . S
C374 C375 1.376 1_545 S
C374 H397 0.930 . S
C375 C374 1.376 1_565 S
C375 C376 1.370 . S
C376 C375 1.370 . S
C376 C377 1.396 . S
C376 H398 0.929 . S
C377 C372 1.373 . S
C377 C376 1.396 . S
C377 H399 0.929 . S
C378 O388 1.240 . S
C378 O389 1.289 . S
C379 O390 1.258 . S
C379 O391 1.256 . S
O380 La360 2.521 . S
O380 C362 1.261 . S
O381 La360 2.628 1_545 S
O381 C362 1.243 1_545 S
O382 La360 2.554 . S
O382 C369 1.240 . S
O383 La360 2.757 . S
O383 La361 2.482 1_565 S
O383 C369 1.289 . S
O384 La360 2.470 1_545 S
O384 C370 1.258 . S
O385 La361 2.503 . S
O385 C370 1.256 . S
O386 La361 2.521 . S
O386 C371 1.261 . S
O387 La361 2.628 1_565 S
O387 C371 1.243 1_565 S
O388 La361 2.554 . S
O388 C378 1.240 . S
O389 La360 2.482 1_545 S
O389 La361 2.757 . S
O389 C378 1.289 . S
O390 La361 2.470 1_565 S
O390 C379 1.258 . S
O391 La360 2.503 . S
O391 C379 1.256 . S
H392 C364 0.930 . S
H393 C365 0.930 . S
H394 C367 0.929 . S
H395 C368 0.929 . S
H396 C373 0.930 . S
H397 C374 0.930 . S
H398 C376 0.929 . S
H399 C377 0.929 . S
La400 C402 2.928 . S
La400 O420 2.521 . S
La400 O421 2.628 . S
La400 O422 2.554 . S
La400 O423 2.757 . S
La400 O424 2.470 . S
La400 O429 2.482 . S
La400 O431 2.503 . S
La401 C411 2.928 . S
La401 O423 2.482 . S
La401 O425 2.503 . S
La401 O426 2.521 . S
La401 O427 2.628 . S
La401 O428 2.554 . S
La401 O429 2.757 . S
La401 O430 2.470 . S
C402 La400 2.928 . S
C402 C403 1.503 . S
C402 O420 1.261 . S
C402 O421 1.243 . S
C403 C402 1.503 . S
C403 C404 1.394 . S
C403 C408 1.373 . S
C404 C403 1.394 . S
C404 C405 1.380 . S
C404 H432 0.930 . S
C405 C404 1.380 . S
C405 C406 1.376 . S
C405 H433 0.930 . S
C406 C405 1.376 . S
C406 C407 1.370 . S
C407 C406 1.370 . S
C407 C408 1.396 . S
C407 H434 0.929 . S
C408 C403 1.373 . S
C408 C407 1.396 . S
C408 H435 0.929 . S
C409 O422 1.240 . S
C409 O423 1.289 . S
C410 O424 1.258 . S
C410 O425 1.256 . S
C411 La401 2.928 . S
C411 C412 1.503 . S
C411 O426 1.261 . S
C411 O427 1.243 . S
C412 C411 1.503 . S
C412 C413 1.394 . S
C412 C417 1.373 . S
C413 C412 1.394 . S
C413 C414 1.380 . S
C413 H436 0.930 . S
C414 C413 1.380 . S
C414 C415 1.376 . S
C414 H437 0.930 . S
C415 C414 1.376 . S
C415 C416 1.370 . S
C416 C415 1.370 . S
C416 C417 1.396 . S
C416 H438 0.929 . S
C417 C412 1.373 . S
C417 C416 1.396 . S
C417 H439 0.929 . S
C418 O428 1.240 . S
C418 O429 1.289 . S
C419 O430 1.258 . S
C419 O431 1.256 . S
O420 La400 2.521 . S
O420 C402 1.261 . S
O421 La400 2.628 . S
O421 C402 1.243 . S
O422 La400 2.554 . S
O422 C409 1.240 . S
O423 La400 2.757 . S
O423 La401 2.482 . S
O423 C409 1.289 . S
O424 La400 2.470 . S
O424 C410 1.258 . S
O425 La401 2.503 . S
O425 C410 1.256 . S
O426 La401 2.521 . S
O426 C411 1.261 . S
O427 La401 2.628 . S
O427 C411 1.243 . S
O428 La401 2.554 . S
O428 C418 1.240 . S
O429 La400 2.482 . S
O429 La401 2.757 . S
O429 C418 1.289 . S
O430 La401 2.470 . S
O430 C419 1.258 . S
O431 La400 2.503 . S
O431 C419 1.256 . S
H432 C404 0.930 . S
H433 C405 0.930 . S
H434 C407 0.929 . S
H435 C408 0.929 . S
H436 C413 0.930 . S
H437 C414 0.930 . S
H438 C416 0.929 . S
H439 C417 0.929 . S
La440 C442 2.928 . S
La440 O460 2.521 . S
La440 O461 2.628 1_455 S
La440 O462 2.554 . S
La440 O463 2.757 . S
La440 O464 2.470 1_455 S
La440 O469 2.482 1_455 S
La440 O471 2.503 . S
La441 C451 2.928 . S
La441 O463 2.482 1_655 S
La441 O465 2.503 . S
La441 O466 2.521 . S
La441 O467 2.628 1_655 S
La441 O468 2.554 . S
La441 O469 2.757 . S
La441 O470 2.470 1_655 S
C442 La440 2.928 . S
C442 C443 1.502 . S
C442 O460 1.261 . S
C442 O461 1.243 1_455 S
C443 C442 1.502 . S
C443 C444 1.398 . S
C443 C448 1.370 1_455 S
C444 C443 1.398 . S
C444 C445 1.380 . S
C444 H472 0.930 . S
C445 C444 1.380 . S
C445 C446 1.376 1_455 S
C445 H473 0.930 . S
C446 C445 1.376 1_655 S
C446 C447 1.370 . S
C447 C446 1.370 . S
C447 C448 1.396 . S
C447 H474 0.929 . S
C448 C443 1.370 1_655 S
C448 C447 1.396 . S
C448 H475 0.929 . S
C449 O462 1.240 . S
C449 O463 1.289 . S
C450 O464 1.258 . S
C450 O465 1.256 . S
C451 La441 2.928 . S
C451 C452 1.504 1_655 S
C451 O466 1.261 . S
C451 O467 1.243 1_655 S
C452 C451 1.504 1_455 S
C452 C453 1.390 1_455 S
C452 C457 1.376 . S
C453 C452 1.390 1_655 S
C453 C454 1.380 . S
C453 H476 0.930 . S
C454 C453 1.380 . S
C454 C455 1.376 1_655 S
C454 H477 0.930 . S
C455 C454 1.376 1_455 S
C455 C456 1.370 . S
C456 C455 1.370 . S
C456 C457 1.396 . S
C456 H478 0.929 . S
C457 C452 1.376 . S
C457 C456 1.396 . S
C457 H479 0.929 . S
C458 O468 1.240 . S
C458 O469 1.289 . S
C459 O470 1.258 . S
C459 O471 1.256 . S
O460 La440 2.521 . S
O460 C442 1.261 . S
O461 La440 2.628 1_655 S
O461 C442 1.243 1_655 S
O462 La440 2.554 . S
O462 C449 1.240 . S
O463 La440 2.757 . S
O463 La441 2.482 1_455 S
O463 C449 1.289 . S
O464 La440 2.470 1_655 S
O464 C450 1.258 . S
O465 La441 2.503 . S
O465 C450 1.256 . S
O466 La441 2.521 . S
O466 C451 1.261 . S
O467 La441 2.628 1_455 S
O467 C451 1.243 1_455 S
O468 La441 2.554 . S
O468 C458 1.240 . S
O469 La440 2.482 1_655 S
O469 La441 2.757 . S
O469 C458 1.289 . S
O470 La441 2.470 1_455 S
O470 C459 1.258 . S
O471 La440 2.503 . S
O471 C459 1.256 . S
H472 C444 0.930 . S
H473 C445 0.930 . S
H474 C447 0.929 . S
H475 C448 0.929 . S
H476 C453 0.930 . S
H477 C454 0.930 . S
H478 C456 0.929 . S
H479 C457 0.929 . S
La480 C482 2.928 . S
La480 O500 2.521 . S
La480 O501 2.628 . S
La480 O502 2.554 . S
La480 O503 2.757 . S
La480 O504 2.470 . S
La480 O509 2.482 . S
La480 O511 2.503 . S
La481 C491 2.928 . S
La481 O503 2.482 . S
La481 O505 2.503 . S
La481 O506 2.521 . S
La481 O507 2.628 . S
La481 O508 2.554 . S
La481 O509 2.757 . S
La481 O510 2.470 . S
C482 La480 2.928 . S
C482 C483 1.503 . S
C482 O500 1.261 . S
C482 O501 1.243 . S
C483 C482 1.503 . S
C483 C484 1.394 . S
C483 C488 1.373 . S
C484 C483 1.394 . S
C484 C485 1.380 . S
C484 H512 0.930 . S
C485 C484 1.380 . S
C485 C486 1.376 . S
C485 H513 0.930 . S
C486 C485 1.376 . S
C486 C487 1.370 . S
C487 C486 1.370 . S
C487 C488 1.396 . S
C487 H514 0.929 . S
C488 C483 1.373 . S
C488 C487 1.396 . S
C488 H515 0.929 . S
C489 O502 1.240 . S
C489 O503 1.289 . S
C490 O504 1.258 . S
C490 O505 1.256 . S
C491 La481 2.928 . S
C491 C492 1.503 . S
C491 O506 1.261 . S
C491 O507 1.243 . S
C492 C491 1.503 . S
C492 C493 1.394 . S
C492 C497 1.373 . S
C493 C492 1.394 . S
C493 C494 1.380 . S
C493 H516 0.930 . S
C494 C493 1.380 . S
C494 C495 1.376 . S
C494 H517 0.930 . S
C495 C494 1.376 . S
C495 C496 1.370 . S
C496 C495 1.370 . S
C496 C497 1.396 . S
C496 H518 0.929 . S
C497 C492 1.373 . S
C497 C496 1.396 . S
C497 H519 0.929 . S
C498 O508 1.240 . S
C498 O509 1.289 . S
C499 O510 1.258 . S
C499 O511 1.256 . S
O500 La480 2.521 . S
O500 C482 1.261 . S
O501 La480 2.628 . S
O501 C482 1.243 . S
O502 La480 2.554 . S
O502 C489 1.240 . S
O503 La480 2.757 . S
O503 La481 2.482 . S
O503 C489 1.289 . S
O504 La480 2.470 . S
O504 C490 1.258 . S
O505 La481 2.503 . S
O505 C490 1.256 . S
O506 La481 2.521 . S
O506 C491 1.261 . S
O507 La481 2.628 . S
O507 C491 1.243 . S
O508 La481 2.554 . S
O508 C498 1.240 . S
O509 La480 2.482 . S
O509 La481 2.757 . S
O509 C498 1.289 . S
O510 La481 2.470 . S
O510 C499 1.258 . S
O511 La480 2.503 . S
O511 C499 1.256 . S
H512 C484 0.930 . S
H513 C485 0.930 . S
H514 C487 0.929 . S
H515 C488 0.929 . S
H516 C493 0.930 . S
H517 C494 0.930 . S
H518 C496 0.929 . S
H519 C497 0.929 . S
La520 C522 2.928 . S
La520 O540 2.521 . S
La520 O541 2.629 . S
La520 O542 2.554 . S
La520 O543 2.757 . S
La520 O544 2.470 1_556 S
La520 O549 2.482 1_556 S
La520 O551 2.503 . S
La521 C531 2.928 . S
La521 O543 2.482 1_554 S
La521 O545 2.503 . S
La521 O546 2.521 . S
La521 O547 2.633 . S
La521 O548 2.554 . S
La521 O549 2.757 . S
La521 O550 2.470 1_554 S
C522 La520 2.928 . S
C522 C523 1.503 . S
C522 O540 1.261 . S
C522 O541 1.247 . S
C523 C522 1.503 . S
C523 C524 1.394 . S
C523 C528 1.373 1_556 S
C524 C523 1.394 . S
C524 C525 1.380 . S
C524 H552 0.930 . S
C525 C524 1.380 . S
C525 C526 1.376 . S
C525 H553 0.930 . S
C526 C525 1.376 . S
C526 C527 1.370 1_556 S
C527 C526 1.370 1_554 S
C527 C528 1.396 . S
C527 H554 0.929 . S
C528 C523 1.373 1_554 S
C528 C527 1.396 . S
C528 H555 0.929 . S
C529 O542 1.240 . S
C529 O543 1.289 . S
C530 O544 1.258 . S
C530 O545 1.256 . S
C531 La521 2.928 . S
C531 C532 1.503 . S
C531 O546 1.261 . S
C531 O547 1.261 . S
C532 C531 1.503 . S
C532 C533 1.394 . S
C532 C537 1.373 1_554 S
C533 C532 1.394 . S
C533 C534 1.380 . S
C533 H556 0.930 . S
C534 C533 1.380 . S
C534 C535 1.376 . S
C534 H557 0.930 . S
C535 C534 1.376 . S
C535 C536 1.370 1_554 S
C536 C535 1.370 1_556 S
C536 C537 1.396 . S
C536 H558 0.929 . S
C537 C532 1.373 1_556 S
C537 C536 1.396 . S
C537 H559 0.929 . S
C538 O548 1.240 . S
C538 O549 1.289 . S
C539 O550 1.258 . S
C539 O551 1.256 . S
O540 La520 2.521 . S
O540 C522 1.261 . S
O541 La520 2.629 . S
O541 C522 1.247 . S
O542 La520 2.554 . S
O542 C529 1.240 . S
O543 La520 2.757 . S
O543 La521 2.482 1_556 S
O543 C529 1.289 . S
O544 La520 2.470 1_554 S
O544 C530 1.258 . S
O545 La521 2.503 . S
O545 C530 1.256 . S
O546 La521 2.521 . S
O546 C531 1.261 . S
O547 La521 2.633 . S
O547 C531 1.261 . S
O548 La521 2.554 . S
O548 C538 1.240 . S
O549 La520 2.482 1_554 S
O549 La521 2.757 . S
O549 C538 1.289 . S
O550 La521 2.470 1_556 S
O550 C539 1.258 . S
O551 La520 2.503 . S
O551 C539 1.256 . S
H552 C524 0.930 . S
H553 C525 0.930 . S
H554 C527 0.929 . S
H555 C528 0.929 . S
H556 C533 0.930 . S
H557 C534 0.930 . S
H558 C536 0.929 . S
H559 C537 0.929 . S
La560 C562 2.928 . S
La560 O580 2.521 . S
La560 O581 2.628 . S
La560 O582 2.554 . S
La560 O583 2.757 . S
La560 O584 2.470 . S
La560 O589 2.482 1_565 S
La560 O591 2.503 1_565 S
La561 C571 2.928 . S
La561 O583 2.482 1_545 S
La561 O585 2.503 1_545 S
La561 O586 2.521 . S
La561 O587 2.628 . S
La561 O588 2.554 . S
La561 O589 2.757 . S
La561 O590 2.470 . S
C562 La560 2.928 . S
C562 C563 1.503 . S
C562 O580 1.261 . S
C562 O581 1.243 . S
C563 C562 1.503 . S
C563 C564 1.394 . S
C563 C568 1.373 . S
C564 C563 1.394 . S
C564 C565 1.380 . S
C564 H592 0.930 . S
C565 C564 1.380 . S
C565 C566 1.376 . S
C565 H593 0.930 . S
C566 C565 1.376 . S
C566 C567 1.370 . S
C567 C566 1.370 . S
C567 C568 1.396 . S
C567 H594 0.929 . S
C568 C563 1.373 . S
C568 C567 1.396 . S
C568 H595 0.929 . S
C569 O582 1.240 . S
C569 O583 1.289 . S
C570 O584 1.258 . S
C570 O585 1.256 . S
C571 La561 2.928 . S
C571 C572 1.503 . S
C571 O586 1.261 . S
C571 O587 1.243 . S
C572 C571 1.503 . S
C572 C573 1.394 . S
C572 C577 1.373 . S
C573 C572 1.394 . S
C573 C574 1.380 . S
C573 H596 0.930 . S
C574 C573 1.380 . S
C574 C575 1.376 . S
C574 H597 0.930 . S
C575 C574 1.376 . S
C575 C576 1.370 . S
C576 C575 1.370 . S
C576 C577 1.396 . S
C576 H598 0.929 . S
C577 C572 1.373 . S
C577 C576 1.396 . S
C577 H599 0.929 . S
C578 O588 1.240 . S
C578 O589 1.289 . S
C579 O590 1.258 . S
C579 O591 1.256 . S
O580 La560 2.521 . S
O580 C562 1.261 . S
O581 La560 2.628 . S
O581 C562 1.243 . S
O582 La560 2.554 . S
O582 C569 1.240 . S
O583 La560 2.757 . S
O583 La561 2.482 1_565 S
O583 C569 1.289 . S
O584 La560 2.470 . S
O584 C570 1.258 . S
O585 La561 2.503 1_565 S
O585 C570 1.256 . S
O586 La561 2.521 . S
O586 C571 1.261 . S
O587 La561 2.628 . S
O587 C571 1.243 . S
O588 La561 2.554 . S
O588 C578 1.240 . S
O589 La560 2.482 1_545 S
O589 La561 2.757 . S
O589 C578 1.289 . S
O590 La561 2.470 . S
O590 C579 1.258 . S
O591 La560 2.503 1_545 S
O591 C579 1.256 . S
H592 C564 0.930 . S
H593 C565 0.930 . S
H594 C567 0.929 . S
H595 C568 0.929 . S
H596 C573 0.930 . S
H597 C574 0.930 . S
H598 C576 0.929 . S
H599 C577 0.929 . S
La600 C602 2.928 . S
La600 O620 2.521 . S
La600 O621 2.628 . S
La600 O622 2.554 . S
La600 O623 2.757 . S
La600 O624 2.470 1_554 S
La600 O629 2.482 1_554 S
La600 O631 2.503 . S
La601 C611 2.928 . S
La601 O623 2.482 1_556 S
La601 O625 2.503 . S
La601 O626 2.521 . S
La601 O627 2.628 . S
La601 O628 2.554 . S
La601 O629 2.757 . S
La601 O630 2.470 1_556 S
C602 La600 2.928 . S
C602 C603 1.503 . S
C602 O620 1.261 . S
C602 O621 1.243 . S
C603 C602 1.503 . S
C603 C604 1.394 . S
C603 C608 1.373 . S
C604 C603 1.394 . S
C604 C605 1.380 . S
C604 H632 0.930 . S
C605 C604 1.380 . S
C605 C606 1.376 . S
C605 H633 0.930 . S
C606 C605 1.376 . S
C606 C607 1.370 . S
C607 C606 1.370 . S
C607 C608 1.396 . S
C607 H634 0.929 . S
C608 C603 1.373 . S
C608 C607 1.396 . S
C608 H635 0.953 . S
C609 O622 1.240 . S
C609 O623 1.289 . S
C610 O624 1.258 . S
C610 O625 1.256 . S
C611 La601 2.928 . S
C611 C612 1.503 . S
C611 O626 1.261 . S
C611 O627 1.243 . S
C612 C611 1.503 . S
C612 C613 1.394 . S
C612 C617 1.373 . S
C613 C612 1.394 . S
C613 C614 1.380 . S
C613 H636 0.930 . S
C614 C613 1.380 . S
C614 C615 1.376 . S
C614 H637 0.930 . S
C615 C614 1.376 . S
C615 C616 1.370 . S
C616 C615 1.370 . S
C616 C617 1.396 . S
C616 H638 0.929 . S
C617 C612 1.373 . S
C617 C616 1.396 . S
C617 H639 0.941 . S
C618 O628 1.240 . S
C618 O629 1.289 . S
C619 O630 1.258 . S
C619 O631 1.256 . S
O620 La600 2.521 . S
O620 C602 1.261 . S
O621 La600 2.628 . S
O621 C602 1.243 . S
O622 La600 2.554 . S
O622 C609 1.240 . S
O623 La600 2.757 . S
O623 La601 2.482 1_554 S
O623 C609 1.289 . S
O624 La600 2.470 1_556 S
O624 C610 1.258 . S
O625 La601 2.503 . S
O625 C610 1.256 . S
O626 La601 2.521 . S
O626 C611 1.261 . S
O627 La601 2.628 . S
O627 C611 1.243 . S
O628 La601 2.554 . S
O628 C618 1.240 . S
O629 La600 2.482 1_556 S
O629 La601 2.757 . S
O629 C618 1.289 . S
O630 La601 2.470 1_554 S
O630 C619 1.258 . S
O631 La600 2.503 . S
O631 C619 1.256 . S
H632 C604 0.930 . S
H633 C605 0.930 . S
H634 C607 0.929 . S
H635 C608 0.953 . S
H636 C613 0.930 . S
H637 C614 0.930 . S
H638 C616 0.929 . S
H639 C617 0.941 . S
H640 C648 0.950 . S
H641 C653 0.950 . S
H642 C650 0.950 . S
H643 C652 0.950 . S
H644 C654 0.950 . S
H645 C656 0.950 . S
H646 C658 0.950 . S
H647 C659 0.950 . S
C648 H640 0.950 . S
C648 C649 1.386 1_455 S
C648 C650 1.391 . S
C649 C648 1.386 1_655 S
C649 C653 1.393 . S
C650 H642 0.950 . S
C650 C648 1.391 . S
C650 C651 1.400 1_455 S
C651 C650 1.400 1_655 S
C651 C652 1.398 . S
C651 C657 1.507 . S
C652 H643 0.950 . S
C652 C651 1.398 . S
C652 C653 1.391 . S
C653 H641 0.950 . S
C653 C649 1.393 . S
C653 C652 1.391 . S
C654 H644 0.950 . S
C654 C655 1.386 1_655 S
C654 C656 1.391 . S
C655 C654 1.386 1_455 S
C655 C659 1.393 . S
C656 H645 0.950 . S
C656 C654 1.391 . S
C656 C657 1.408 . S
C657 C651 1.507 . S
C657 C656 1.408 . S
C657 C658 1.374 1_655 S
C658 H646 0.950 . S
C658 C657 1.374 1_455 S
C658 C659 1.391 . S
C659 H647 0.950 . S
C659 C655 1.393 . S
C659 C658 1.391 . S
H660 C668 0.950 . S
H661 C673 0.950 . S
H662 C670 0.950 . S
H663 C672 0.950 . S
H664 C674 0.950 . S
H665 C676 0.950 . S
H666 C678 0.950 . S
H667 C679 0.950 . S
C668 H660 0.950 . S
C668 C669 1.386 . S
C668 C670 1.391 . S
C669 C668 1.386 . S
C669 C673 1.393 . S
C670 H662 0.950 . S
C670 C668 1.391 . S
C670 C671 1.400 . S
C671 C670 1.400 . S
C671 C672 1.398 . S
C671 C677 1.491 . S
C672 H663 0.950 . S
C672 C671 1.398 . S
C672 C673 1.391 . S
C673 H661 0.950 . S
C673 C669 1.393 . S
C673 C672 1.391 . S
C674 H664 0.950 . S
C674 C675 1.386 . S
C674 C676 1.391 . S
C675 C674 1.386 . S
C675 C679 1.393 . S
C676 H665 0.950 . S
C676 C674 1.391 . S
C676 C677 1.400 . S
C677 C671 1.491 . S
C677 C676 1.400 . S
C677 C678 1.398 . S
C678 H666 0.950 . S
C678 C677 1.398 . S
C678 C679 1.391 . S
C679 H667 0.950 . S
C679 C675 1.393 . S
C679 C678 1.391 . S
H680 C688 0.950 . S
H681 C693 0.950 . S
H682 C690 0.950 . S
H683 C692 0.950 . S
H684 C694 0.950 . S
H685 C696 0.950 . S
H686 C698 0.950 . S
H687 C699 0.950 . S
C688 H680 0.950 . S
C688 C689 1.386 . S
C688 C690 1.391 . S
C689 C688 1.386 . S
C689 C693 1.393 . S
C690 H682 0.950 . S
C690 C688 1.391 . S
C690 C691 1.400 . S
C691 C690 1.400 . S
C691 C692 1.398 . S
C691 C697 1.491 . S
C692 H683 0.950 . S
C692 C691 1.398 . S
C692 C693 1.391 . S
C693 H681 0.950 . S
C693 C689 1.393 . S
C693 C692 1.391 . S
C694 H684 0.950 . S
C694 C695 1.386 . S
C694 C696 1.391 . S
C695 C694 1.386 . S
C695 C699 1.393 . S
C696 H685 0.950 . S
C696 C694 1.391 . S
C696 C697 1.400 . S
C697 C691 1.491 . S
C697 C696 1.400 . S
C697 C698 1.398 . S
C698 H686 0.950 . S
C698 C697 1.398 . S
C698 C699 1.391 . S
C699 H687 0.950 . S
C699 C695 1.393 . S
C699 C698 1.391 . S
H700 C708 0.950 . S
H701 C713 0.950 1_565 S
H702 C710 0.950 . S
H703 C712 0.950 . S
H704 C714 0.950 . S
H705 C716 0.950 . S
H706 C718 0.950 . S
H707 C719 0.950 . S
C708 H700 0.950 . S
C708 C709 1.386 . S
C708 C710 1.391 . S
C709 C708 1.386 . S
C709 C713 1.393 . S
C710 H702 0.950 . S
C710 C708 1.391 . S
C710 C711 1.400 . S
C711 C710 1.400 . S
C711 C712 1.398 1_545 S
C711 C717 1.491 . S
C712 H703 0.950 . S
C712 C711 1.398 1_565 S
C712 C713 1.391 1_565 S
C713 H701 0.950 1_545 S
C713 C709 1.393 . S
C713 C712 1.391 1_545 S
C714 H704 0.950 . S
C714 C715 1.386 . S
C714 C716 1.391 . S
C715 C714 1.386 . S
C715 C719 1.393 1_565 S
C716 H705 0.950 . S
C716 C714 1.391 . S
C716 C717 1.400 1_565 S
C717 C711 1.491 . S
C717 C716 1.400 1_545 S
C717 C718 1.398 . S
C718 H706 0.950 . S
C718 C717 1.398 . S
C718 C719 1.391 . S
C719 H707 0.950 . S
C719 C715 1.393 1_545 S
C719 C718 1.391 . S
H720 C728 0.950 . S
H721 C733 0.950 1_545 S
H722 C730 0.950 . S
H723 C732 0.950 . S
H724 C734 0.950 . S
H725 C736 0.950 . S
H726 C738 0.950 . S
H727 C739 0.950 . S
C728 H720 0.950 . S
C728 C729 1.386 . S
C728 C730 1.391 . S
C729 C728 1.386 . S
C729 C733 1.393 . S
C730 H722 0.950 . S
C730 C728 1.391 . S
C730 C731 1.400 . S
C731 C730 1.400 . S
C731 C732 1.398 1_565 S
C731 C737 1.491 . S
C732 H723 0.950 . S
C732 C731 1.398 1_545 S
C732 C733 1.391 1_545 S
C733 H721 0.950 1_565 S
C733 C729 1.393 . S
C733 C732 1.391 1_565 S
C734 H724 0.950 . S
C734 C735 1.386 . S
C734 C736 1.391 . S
C735 C734 1.386 . S
C735 C739 1.393 1_545 S
C736 H725 0.950 . S
C736 C734 1.391 . S
C736 C737 1.400 1_545 S
C737 C731 1.491 . S
C737 C736 1.400 1_565 S
C737 C738 1.398 . S
C738 H726 0.950 . S
C738 C737 1.398 . S
C738 C739 1.391 . S
C739 H727 0.950 . S
C739 C735 1.393 1_565 S
C739 C738 1.391 . S
H740 C748 0.950 . S
H741 C753 0.950 . S
H742 C750 0.950 1_655 S
H743 C752 0.950 . S
H744 C754 0.951 1_455 S
H745 C756 0.950 . S
H746 C758 0.950 . S
H747 C759 0.950 . S
C748 H740 0.950 . S
C748 C749 1.386 . S
C748 C750 1.391 . S
C749 C748 1.386 . S
C749 C753 1.393 . S
C750 H742 0.950 1_455 S
C750 C748 1.391 . S
C750 C751 1.400 . S
C751 C750 1.400 . S
C751 C752 1.398 . S
C751 C757 1.515 . S
C752 H743 0.950 . S
C752 C751 1.398 . S
C752 C753 1.391 . S
C753 H741 0.950 . S
C753 C749 1.393 . S
C753 C752 1.391 . S
C754 H744 0.951 1_655 S
C754 C755 1.393 . S
C754 C756 1.382 1_655 S
C755 C754 1.393 . S
C755 C759 1.393 . S
C756 H745 0.950 . S
C756 C754 1.382 1_455 S
C756 C757 1.396 . S
C757 C751 1.515 . S
C757 C756 1.396 . S
C757 C758 1.378 1_455 S
C758 H746 0.950 . S
C758 C757 1.378 1_655 S
C758 C759 1.391 . S
C759 H747 0.950 . S
C759 C755 1.393 . S
C759 C758 1.391 . S
H760 C768 0.950 . S
H761 C773 0.950 . S
H762 C770 0.950 . S
H763 C772 0.950 . S
H764 C774 0.950 . S
H765 C776 0.950 . S
H766 C778 0.950 . S
H767 C779 0.950 . S
C768 H760 0.950 . S
C768 C769 1.386 . S
C768 C770 1.391 . S
C769 C768 1.386 . S
C769 C773 1.393 . S
C770 H762 0.950 . S
C770 C768 1.391 . S
C770 C771 1.400 . S
C771 C770 1.400 . S
C771 C772 1.398 . S
C771 C777 1.491 . S
C772 H763 0.950 . S
C772 C771 1.398 . S
C772 C773 1.391 . S
C773 H761 0.950 . S
C773 C769 1.393 . S
C773 C772 1.391 . S
C774 H764 0.950 . S
C774 C775 1.386 . S
C774 C776 1.391 . S
C775 C774 1.386 . S
C775 C779 1.393 . S
C776 H765 0.950 . S
C776 C774 1.391 . S
C776 C777 1.400 . S
C777 C771 1.491 . S
C777 C776 1.400 . S
C777 C778 1.398 . S
C778 H766 0.950 . S
C778 C777 1.398 . S
C778 C779 1.391 . S
C779 H767 0.950 . S
C779 C775 1.393 . S
C779 C778 1.391 . S
H780 C788 0.950 . S
H781 C793 0.950 . S
H782 C790 0.950 . S
H783 C792 0.950 . S
H784 C794 0.950 . S
H785 C796 0.950 . S
H786 C798 0.950 . S
H787 C799 0.950 . S
C788 H780 0.950 . S
C788 C789 1.386 . S
C788 C790 1.391 . S
C789 C788 1.386 . S
C789 C793 1.393 . S
C790 H782 0.950 . S
C790 C788 1.391 . S
C790 C791 1.400 . S
C791 C790 1.400 . S
C791 C792 1.398 . S
C791 C797 1.491 . S
C792 H783 0.950 . S
C792 C791 1.398 . S
C792 C793 1.391 . S
C793 H781 0.950 . S
C793 C789 1.393 . S
C793 C792 1.391 . S
C794 H784 0.950 . S
C794 C795 1.386 . S
C794 C796 1.391 . S
C795 C794 1.386 . S
C795 C799 1.393 . S
C796 H785 0.950 . S
C796 C794 1.391 . S
C796 C797 1.400 . S
C797 C791 1.491 . S
C797 C796 1.400 . S
C797 C798 1.398 . S
C798 H786 0.950 . S
C798 C797 1.398 . S
C798 C799 1.391 . S
C799 H787 0.950 . S
C799 C795 1.393 . S
C799 C798 1.391 . S
H800 C808 0.950 . S
H801 C813 0.950 . S
H802 C810 0.950 . S
H803 C812 0.950 . S
H804 C814 0.950 . S
H805 C816 0.950 . S
H806 C818 0.950 . S
H807 C819 0.950 . S
C808 H800 0.950 . S
C808 C809 1.386 . S
C808 C810 1.391 . S
C809 C808 1.386 . S
C809 C813 1.393 . S
C810 H802 0.950 . S
C810 C808 1.391 . S
C810 C811 1.400 . S
C811 C810 1.400 . S
C811 C812 1.398 . S
C811 C817 1.491 . S
C812 H803 0.950 . S
C812 C811 1.398 . S
C812 C813 1.391 . S
C813 H801 0.950 . S
C813 C809 1.393 . S
C813 C812 1.391 . S
C814 H804 0.950 . S
C814 C815 1.386 . S
C814 C816 1.391 . S
C815 C814 1.386 . S
C815 C819 1.393 . S
C816 H805 0.950 . S
C816 C814 1.391 . S
C816 C817 1.400 . S
C817 C811 1.491 . S
C817 C816 1.400 . S
C817 C818 1.398 . S
C818 H806 0.950 . S
C818 C817 1.398 . S
C818 C819 1.391 . S
C819 H807 0.950 . S
C819 C815 1.393 . S
C819 C818 1.391 . S
H820 C828 0.950 . S
H821 C833 0.950 . S
H822 C830 0.950 . S
H823 C832 0.950 . S
H824 C834 0.950 . S
H825 C836 0.950 . S
H826 C838 0.950 . S
H827 C839 0.950 . S
C828 H820 0.950 . S
C828 C829 1.386 . S
C828 C830 1.391 . S
C829 C828 1.386 . S
C829 C833 1.393 . S
C830 H822 0.950 . S
C830 C828 1.391 . S
C830 C831 1.400 . S
C831 C830 1.400 . S
C831 C832 1.398 . S
C831 C837 1.491 . S
C832 H823 0.950 . S
C832 C831 1.398 . S
C832 C833 1.391 . S
C833 H821 0.950 . S
C833 C829 1.393 . S
C833 C832 1.391 . S
C834 H824 0.950 . S
C834 C835 1.386 . S
C834 C836 1.391 . S
C835 C834 1.386 . S
C835 C839 1.393 . S
C836 H825 0.950 . S
C836 C834 1.391 . S
C836 C837 1.400 . S
C837 C831 1.491 . S
C837 C836 1.400 . S
C837 C838 1.398 . S
C838 H826 0.950 . S
C838 C837 1.398 . S
C838 C839 1.391 . S
C839 H827 0.950 . S
C839 C835 1.393 . S
C839 C838 1.391 . S
H840 C848 0.950 . S
H841 C853 0.950 . S
H842 C850 0.950 . S
H843 C852 0.950 1_545 S
H844 C854 0.950 . S
H845 C856 0.950 . S
H846 C858 0.950 . S
H847 C859 0.950 . S
C848 H840 0.950 . S
C848 C849 1.386 . S
C848 C850 1.391 . S
C849 C848 1.386 . S
C849 C853 1.393 . S
C850 H842 0.950 . S
C850 C848 1.391 . S
C850 C851 1.400 . S
C851 C850 1.400 . S
C851 C852 1.398 . S
C851 C857 1.491 . S
C852 H843 0.950 1_565 S
C852 C851 1.398 . S
C852 C853 1.391 . S
C853 H841 0.950 . S
C853 C849 1.393 . S
C853 C852 1.391 . S
C854 H844 0.950 . S
C854 C855 1.386 . S
C854 C856 1.391 . S
C855 C854 1.386 . S
C855 C859 1.393 1_545 S
C856 H845 0.950 . S
C856 C854 1.391 . S
C856 C857 1.400 1_545 S
C857 C851 1.491 . S
C857 C856 1.400 1_565 S
C857 C858 1.398 . S
C858 H846 0.950 . S
C858 C857 1.398 . S
C858 C859 1.391 . S
C859 H847 0.950 . S
C859 C855 1.393 1_565 S
C859 C858 1.391 . S
H860 C868 0.950 . S
H861 C873 0.959 1_655 S
H862 C870 0.950 . S
H863 C872 0.979 . S
H864 C874 0.950 . S
H865 C876 0.950 . S
H866 C878 0.950 . S
H867 C879 0.950 . S
C868 H860 0.950 . S
C868 C869 1.386 . S
C868 C870 1.391 . S
C869 C868 1.386 . S
C869 C873 1.393 . S
C870 H862 0.950 . S
C870 C868 1.391 . S
C870 C871 1.400 . S
C871 C870 1.400 . S
C871 C872 1.397 1_455 S
C871 C877 1.518 . S
C872 H863 0.979 . S
C872 C871 1.397 1_655 S
C872 C873 1.365 1_655 S
C873 H861 0.959 1_455 S
C873 C869 1.393 . S
C873 C872 1.365 1_455 S
C874 H864 0.950 . S
C874 C875 1.386 . S
C874 C876 1.391 . S
C875 C874 1.386 . S
C875 C879 1.393 1_655 S
C876 H865 0.950 . S
C876 C874 1.391 . S
C876 C877 1.370 1_655 S
C877 C871 1.518 . S
C877 C876 1.370 1_455 S
C877 C878 1.401 . S
C878 H866 0.950 . S
C878 C877 1.401 . S
C878 C879 1.391 . S
C879 H867 0.950 . S
C879 C875 1.393 1_455 S
C879 C878 1.391 . S
H880 C888 0.950 . S
H881 C893 0.950 . S
H882 C890 0.950 . S
H883 C892 0.950 . S
H884 C894 0.950 . S
H885 C896 0.950 . S
H886 C898 0.950 . S
H887 C899 0.950 1_554 S
C888 H880 0.950 . S
C888 C889 1.386 . S
C888 C890 1.391 . S
C889 C888 1.386 . S
C889 C893 1.393 . S
C890 H882 0.950 . S
C890 C888 1.391 . S
C890 C891 1.400 . S
C891 C890 1.400 . S
C891 C892 1.398 . S
C891 C897 1.491 . S
C892 H883 0.950 . S
C892 C891 1.398 . S
C892 C893 1.391 . S
C893 H881 0.950 . S
C893 C889 1.393 . S
C893 C892 1.391 . S
C894 H884 0.950 . S
C894 C895 1.386 . S
C894 C896 1.391 . S
C895 C894 1.386 . S
C895 C899 1.393 . S
C896 H885 0.950 . S
C896 C894 1.391 . S
C896 C897 1.400 . S
C897 C891 1.491 . S
C897 C896 1.400 . S
C897 C898 1.398 . S
C898 H886 0.950 . S
C898 C897 1.398 . S
C898 C899 1.391 . S
C899 H887 0.950 1_556 S
C899 C895 1.393 . S
C899 C898 1.391 . S
H900 C908 0.950 . S
H901 C913 0.950 . S
H902 C910 0.950 . S
H903 C912 0.950 . S
H904 C914 0.950 . S
H905 C916 0.950 . S
H906 C918 0.950 . S
H907 C919 0.950 . S
C908 H900 0.950 . S
C908 C909 1.386 . S
C908 C910 1.391 . S
C909 C908 1.386 . S
C909 C913 1.393 . S
C910 H902 0.950 . S
C910 C908 1.391 . S
C910 C911 1.400 . S
C911 C910 1.400 . S
C911 C912 1.398 . S
C911 C917 1.491 . S
C912 H903 0.950 . S
C912 C911 1.398 . S
C912 C913 1.391 . S
C913 H901 0.950 . S
C913 C909 1.393 . S
C913 C912 1.391 . S
C914 H904 0.950 . S
C914 C915 1.386 . S
C914 C916 1.391 . S
C915 C914 1.386 . S
C915 C919 1.393 . S
C916 H905 0.950 . S
C916 C914 1.391 . S
C916 C917 1.400 . S
C917 C911 1.491 . S
C917 C916 1.400 . S
C917 C918 1.398 . S
C918 H906 0.950 . S
C918 C917 1.398 . S
C918 C919 1.391 . S
C919 H907 0.950 . S
C919 C915 1.393 . S
C919 C918 1.391 . S
H920 C928 0.950 . S
H921 C933 0.950 . S
H922 C930 0.950 . S
H923 C932 0.950 . S
H924 C934 0.950 . S
H925 C936 0.950 . S
H926 C938 0.950 . S
H927 C939 0.950 . S
C928 H920 0.950 . S
C928 C929 1.386 . S
C928 C930 1.391 . S
C929 C928 1.386 . S
C929 C933 1.393 . S
C930 H922 0.950 . S
C930 C928 1.391 . S
C930 C931 1.400 . S
C931 C930 1.400 . S
C931 C932 1.398 . S
C931 C937 1.491 . S
C932 H923 0.950 . S
C932 C931 1.398 . S
C932 C933 1.391 . S
C933 H921 0.950 . S
C933 C929 1.393 . S
C933 C932 1.391 . S
C934 H924 0.950 . S
C934 C935 1.386 . S
C934 C936 1.391 . S
C935 C934 1.386 . S
C935 C939 1.393 . S
C936 H925 0.950 . S
C936 C934 1.391 . S
C936 C937 1.400 . S
C937 C931 1.491 . S
C937 C936 1.400 . S
C937 C938 1.398 . S
C938 H926 0.950 . S
C938 C937 1.398 . S
C938 C939 1.391 . S
C939 H927 0.950 . S
C939 C935 1.393 . S
C939 C938 1.391 . S
H940 C948 0.950 . S
H941 C953 0.950 . S
H942 C950 0.950 . S
H943 C952 0.950 . S
H944 C954 0.950 . S
H945 C956 0.950 . S
H946 C958 0.950 . S
H947 C959 0.950 . S
C948 H940 0.950 . S
C948 C949 1.386 . S
C948 C950 1.391 . S
C949 C948 1.386 . S
C949 C953 1.393 . S
C950 H942 0.950 . S
C950 C948 1.391 . S
C950 C951 1.400 . S
C951 C950 1.400 . S
C951 C952 1.398 . S
C951 C957 1.491 . S
C952 H943 0.950 . S
C952 C951 1.398 . S
C952 C953 1.391 . S
C953 H941 0.950 . S
C953 C949 1.393 . S
C953 C952 1.391 . S
C954 H944 0.950 . S
C954 C955 1.386 . S
C954 C956 1.391 . S
C955 C954 1.386 . S
C955 C959 1.393 . S
C956 H945 0.950 . S
C956 C954 1.391 . S
C956 C957 1.400 . S
C957 C951 1.491 . S
C957 C956 1.400 . S
C957 C958 1.398 . S
C958 H946 0.950 . S
C958 C957 1.398 . S
C958 C959 1.391 . S
C959 H947 0.950 . S
C959 C955 1.393 . S
C959 C958 1.391 . S
H960 C968 0.950 . S
H961 C973 0.950 . S
H962 C970 0.950 . S
H963 C972 0.950 . S
H964 C974 0.950 . S
H965 C976 0.950 . S
H966 C978 0.950 . S
H967 C979 0.950 . S
C968 H960 0.950 . S
C968 C969 1.386 . S
C968 C970 1.391 . S
C969 C968 1.386 . S
C969 C973 1.393 . S
C970 H962 0.950 . S
C970 C968 1.391 . S
C970 C971 1.400 . S
C971 C970 1.400 . S
C971 C972 1.398 . S
C971 C977 1.491 . S
C972 H963 0.950 . S
C972 C971 1.398 . S
C972 C973 1.391 . S
C973 H961 0.950 . S
C973 C969 1.393 . S
C973 C972 1.391 . S
C974 H964 0.950 . S
C974 C975 1.386 . S
C974 C976 1.391 . S
C975 C974 1.386 . S
C975 C979 1.393 . S
C976 H965 0.950 . S
C976 C974 1.391 . S
C976 C977 1.400 . S
C977 C971 1.491 . S
C977 C976 1.400 . S
C977 C978 1.398 . S
C978 H966 0.950 . S
C978 C977 1.398 . S
C978 C979 1.391 . S
C979 H967 0.950 . S
C979 C975 1.393 . S
C979 C978 1.391 . S
H980 C988 0.950 . S
H981 C993 0.950 . S
H982 C990 0.950 . S
H983 C992 0.950 . S
H984 C994 0.950 . S
H985 C996 0.950 . S
H986 C998 0.950 . S
H987 C999 0.950 . S
C988 H980 0.950 . S
C988 C989 1.386 . S
C988 C990 1.391 . S
C989 C988 1.386 . S
C989 C993 1.393 . S
C990 H982 0.950 . S
C990 C988 1.391 . S
C990 C991 1.400 . S
C991 C990 1.400 . S
C991 C992 1.398 . S
C991 C997 1.491 . S
C992 H983 0.950 . S
C992 C991 1.398 . S
C992 C993 1.391 . S
C993 H981 0.950 . S
C993 C989 1.393 . S
C993 C992 1.391 . S
C994 H984 0.950 . S
C994 C995 1.386 . S
C994 C996 1.391 . S
C995 C994 1.386 . S
C995 C999 1.393 . S
C996 H985 0.950 . S
C996 C994 1.391 . S
C996 C997 1.400 . S
C997 C991 1.491 . S
C997 C996 1.400 . S
C997 C998 1.398 . S
C998 H986 0.950 . S
C998 C997 1.398 . S
C998 C999 1.391 . S
C999 H987 0.950 . S
C999 C995 1.393 . S
C999 C998 1.391 . S
H1000 C1008 0.950 . S
H1001 C1013 0.950 . S
H1002 C1010 0.950 . S
H1003 C1012 0.950 . S
H1004 C1014 0.950 . S
H1005 C1016 0.950 . S
H1006 C1018 0.950 . S
H1007 C1019 0.950 . S
C1008 H1000 0.950 . S
C1008 C1009 1.386 . S
C1008 C1010 1.391 . S
C1009 C1008 1.386 . S
C1009 C1013 1.393 . S
C1010 H1002 0.950 . S
C1010 C1008 1.391 . S
C1010 C1011 1.400 . S
C1011 C1010 1.400 . S
C1011 C1012 1.398 . S
C1011 C1017 1.491 . S
C1012 H1003 0.950 . S
C1012 C1011 1.398 . S
C1012 C1013 1.391 . S
C1013 H1001 0.950 . S
C1013 C1009 1.393 . S
C1013 C1012 1.391 . S
C1014 H1004 0.950 . S
C1014 C1015 1.386 . S
C1014 C1016 1.391 . S
C1015 C1014 1.386 . S
C1015 C1019 1.393 . S
C1016 H1005 0.950 . S
C1016 C1014 1.391 . S
C1016 C1017 1.400 . S
C1017 C1011 1.491 . S
C1017 C1016 1.400 . S
C1017 C1018 1.398 . S
C1018 H1006 0.950 . S
C1018 C1017 1.398 . S
C1018 C1019 1.391 . S
C1019 H1007 0.950 . S
C1019 C1015 1.393 . S
C1019 C1018 1.391 . S
H1020 C1028 0.950 . S
H1021 C1033 0.950 . S
H1022 C1030 0.950 . S
H1023 C1032 0.950 . S
H1024 C1034 0.950 . S
H1025 C1036 0.950 . S
H1026 C1038 0.950 . S
H1027 C1039 0.950 . S
C1028 H1020 0.950 . S
C1028 C1029 1.386 . S
C1028 C1030 1.391 . S
C1029 C1028 1.386 . S
C1029 C1033 1.393 . S
C1030 H1022 0.950 . S
C1030 C1028 1.391 . S
C1030 C1031 1.400 . S
C1031 C1030 1.400 . S
C1031 C1032 1.398 . S
C1031 C1037 1.491 . S
C1032 H1023 0.950 . S
C1032 C1031 1.398 . S
C1032 C1033 1.391 . S
C1033 H1021 0.950 . S
C1033 C1029 1.393 . S
C1033 C1032 1.391 . S
C1034 H1024 0.950 . S
C1034 C1035 1.386 . S
C1034 C1036 1.391 . S
C1035 C1034 1.386 . S
C1035 C1039 1.393 . S
C1036 H1025 0.950 . S
C1036 C1034 1.391 . S
C1036 C1037 1.400 . S
C1037 C1031 1.491 . S
C1037 C1036 1.400 . S
C1037 C1038 1.398 . S
C1038 H1026 0.950 . S
C1038 C1037 1.398 . S
C1038 C1039 1.391 . S
C1039 H1027 0.950 . S
C1039 C1035 1.393 . S
C1039 C1038 1.391 . S
H1040 C1048 0.950 . S
H1041 C1053 0.950 . S
H1042 C1050 0.950 . S
H1043 C1052 0.950 . S
H1044 C1054 0.950 . S
H1045 C1056 0.950 . S
H1046 C1058 0.950 . S
H1047 C1059 0.950 . S
C1048 H1040 0.950 . S
C1048 C1049 1.386 . S
C1048 C1050 1.391 . S
C1049 C1048 1.386 . S
C1049 C1053 1.393 . S
C1050 H1042 0.950 . S
C1050 C1048 1.391 . S
C1050 C1051 1.400 . S
C1051 C1050 1.400 . S
C1051 C1052 1.398 . S
C1051 C1057 1.491 . S
C1052 H1043 0.950 . S
C1052 C1051 1.398 . S
C1052 C1053 1.391 . S
C1053 H1041 0.950 . S
C1053 C1049 1.393 . S
C1053 C1052 1.391 . S
C1054 H1044 0.950 . S
C1054 C1055 1.386 . S
C1054 C1056 1.391 . S
C1055 C1054 1.386 . S
C1055 C1059 1.393 . S
C1056 H1045 0.950 . S
C1056 C1054 1.391 . S
C1056 C1057 1.400 . S
C1057 C1051 1.491 . S
C1057 C1056 1.400 . S
C1057 C1058 1.398 . S
C1058 H1046 0.950 . S
C1058 C1057 1.398 . S
C1058 C1059 1.391 . S
C1059 H1047 0.950 . S
C1059 C1055 1.393 . S
C1059 C1058 1.391 . S
H1060 C1068 0.950 . S
H1061 C1073 0.950 . S
H1062 C1070 0.950 . S
H1063 C1072 0.950 . S
H1064 C1074 0.950 . S
H1065 C1076 0.950 . S
H1066 C1078 0.929 1_455 S
H1067 C1079 0.950 . S
C1068 H1060 0.950 . S
C1068 C1069 1.386 . S
C1068 C1070 1.391 . S
C1069 C1068 1.386 . S
C1069 C1073 1.393 1_455 S
C1070 H1062 0.950 . S
C1070 C1068 1.391 . S
C1070 C1071 1.400 1_455 S
C1071 C1070 1.400 1_655 S
C1071 C1072 1.398 . S
C1071 C1077 1.491 . S
C1072 H1063 0.950 . S
C1072 C1071 1.398 . S
C1072 C1073 1.391 . S
C1073 H1061 0.950 . S
C1073 C1069 1.393 1_655 S
C1073 C1072 1.391 . S
C1074 H1064 0.950 . S
C1074 C1075 1.386 . S
C1074 C1076 1.391 . S
C1075 C1074 1.386 . S
C1075 C1079 1.393 . S
C1076 H1065 0.950 . S
C1076 C1074 1.391 . S
C1076 C1077 1.400 . S
C1077 C1071 1.491 . S
C1077 C1076 1.400 . S
C1077 C1078 1.395 . S
C1078 H1066 0.929 1_655 S
C1078 C1077 1.395 . S
C1078 C1079 1.417 . S
C1079 H1067 0.950 . S
C1079 C1075 1.393 . S
C1079 C1078 1.417 . S
H1080 C1088 0.950 . S
H1081 C1093 0.950 . S
H1082 C1090 0.950 . S
H1083 C1092 0.950 . S
H1084 C1094 0.950 . S
H1085 C1096 0.950 . S
H1086 C1098 0.950 . S
H1087 C1099 0.950 . S
C1088 H1080 0.950 . S
C1088 C1089 1.386 . S
C1088 C1090 1.391 . S
C1089 C1088 1.386 . S
C1089 C1093 1.393 . S
C1090 H1082 0.950 . S
C1090 C1088 1.391 . S
C1090 C1091 1.400 . S
C1091 C1090 1.400 . S
C1091 C1092 1.398 . S
C1091 C1097 1.491 . S
C1092 H1083 0.950 . S
C1092 C1091 1.398 . S
C1092 C1093 1.391 . S
C1093 H1081 0.950 . S
C1093 C1089 1.393 . S
C1093 C1092 1.391 . S
C1094 H1084 0.950 . S
C1094 C1095 1.386 . S
C1094 C1096 1.391 . S
C1095 C1094 1.386 . S
C1095 C1099 1.393 . S
C1096 H1085 0.950 . S
C1096 C1094 1.391 . S
C1096 C1097 1.400 . S
C1097 C1091 1.491 . S
C1097 C1096 1.400 . S
C1097 C1098 1.398 . S
C1098 H1086 0.950 . S
C1098 C1097 1.398 . S
C1098 C1099 1.391 . S
C1099 H1087 0.950 . S
C1099 C1095 1.393 . S
C1099 C1098 1.391 . S
H1100 C1108 0.950 . S
H1101 C1113 0.950 . S
H1102 C1110 0.950 . S
H1103 C1112 0.950 . S
H1104 C1114 0.950 . S
H1105 C1116 0.950 . S
H1106 C1118 0.950 . S
H1107 C1119 0.950 . S
C1108 H1100 0.950 . S
C1108 C1109 1.386 . S
C1108 C1110 1.391 . S
C1109 C1108 1.386 . S
C1109 C1113 1.393 . S
C1110 H1102 0.950 . S
C1110 C1108 1.391 . S
C1110 C1111 1.400 . S
C1111 C1110 1.400 . S
C1111 C1112 1.398 . S
C1111 C1117 1.491 . S
C1112 H1103 0.950 . S
C1112 C1111 1.398 . S
C1112 C1113 1.391 . S
C1113 H1101 0.950 . S
C1113 C1109 1.393 . S
C1113 C1112 1.391 . S
C1114 H1104 0.950 . S
C1114 C1115 1.386 . S
C1114 C1116 1.391 . S
C1115 C1114 1.386 . S
C1115 C1119 1.393 . S
C1116 H1105 0.950 . S
C1116 C1114 1.391 . S
C1116 C1117 1.400 . S
C1117 C1111 1.491 . S
C1117 C1116 1.400 . S
C1117 C1118 1.398 . S
C1118 H1106 0.950 . S
C1118 C1117 1.398 . S
C1118 C1119 1.391 . S
C1119 H1107 0.950 . S
C1119 C1115 1.393 . S
C1119 C1118 1.391 . S
H1120 C1128 0.950 . S
H1121 C1133 0.950 . S
H1122 C1130 0.950 . S
H1123 C1132 0.950 . S
H1124 C1134 0.950 . S
H1125 C1136 0.950 . S
H1126 C1138 0.950 . S
H1127 C1139 0.950 . S
C1128 H1120 0.950 . S
C1128 C1129 1.386 . S
C1128 C1130 1.391 . S
C1129 C1128 1.386 . S
C1129 C1133 1.393 . S
C1130 H1122 0.950 . S
C1130 C1128 1.391 . S
C1130 C1131 1.400 . S
C1131 C1130 1.400 . S
C1131 C1132 1.398 . S
C1131 C1137 1.491 . S
C1132 H1123 0.950 . S
C1132 C1131 1.398 . S
C1132 C1133 1.391 . S
C1133 H1121 0.950 . S
C1133 C1129 1.393 . S
C1133 C1132 1.391 . S
C1134 H1124 0.950 . S
C1134 C1135 1.386 . S
C1134 C1136 1.391 . S
C1135 C1134 1.386 . S
C1135 C1139 1.393 . S
C1136 H1125 0.950 . S
C1136 C1134 1.391 . S
C1136 C1137 1.400 . S
C1137 C1131 1.491 . S
C1137 C1136 1.400 . S
C1137 C1138 1.398 . S
C1138 H1126 0.950 . S
C1138 C1137 1.398 . S
C1138 C1139 1.391 . S
C1139 H1127 0.950 . S
C1139 C1135 1.393 . S
C1139 C1138 1.391 . S
H1140 C1148 0.950 . S
H1141 C1153 0.950 . S
H1142 C1150 0.950 . S
H1143 C1152 0.950 . S
H1144 C1154 0.950 . S
H1145 C1156 0.950 . S
H1146 C1158 0.950 . S
H1147 C1159 0.950 . S
C1148 H1140 0.950 . S
C1148 C1149 1.386 . S
C1148 C1150 1.391 . S
C1149 C1148 1.386 . S
C1149 C1153 1.393 . S
C1150 H1142 0.950 . S
C1150 C1148 1.391 . S
C1150 C1151 1.400 . S
C1151 C1150 1.400 . S
C1151 C1152 1.398 . S
C1151 C1157 1.491 . S
C1152 H1143 0.950 . S
C1152 C1151 1.398 . S
C1152 C1153 1.391 . S
C1153 H1141 0.950 . S
C1153 C1149 1.393 . S
C1153 C1152 1.391 . S
C1154 H1144 0.950 . S
C1154 C1155 1.386 . S
C1154 C1156 1.391 . S
C1155 C1154 1.386 . S
C1155 C1159 1.393 . S
C1156 H1145 0.950 . S
C1156 C1154 1.391 . S
C1156 C1157 1.400 . S
C1157 C1151 1.491 . S
C1157 C1156 1.400 . S
C1157 C1158 1.398 . S
C1158 H1146 0.950 . S
C1158 C1157 1.398 . S
C1158 C1159 1.391 . S
C1159 H1147 0.950 . S
C1159 C1155 1.393 . S
C1159 C1158 1.391 . S
H1160 C1168 0.950 . S
H1161 C1173 0.950 . S
H1162 C1170 0.950 . S
H1163 C1172 0.950 . S
H1164 C1174 0.950 . S
H1165 C1176 0.950 1_565 S
H1166 C1178 0.950 . S
H1167 C1179 0.950 . S
C1168 H1160 0.950 . S
C1168 C1169 1.386 1_545 S
C1168 C1170 1.391 . S
C1169 C1168 1.386 1_565 S
C1169 C1173 1.393 . S
C1170 H1162 0.950 . S
C1170 C1168 1.391 . S
C1170 C1171 1.400 . S
C1171 C1170 1.400 . S
C1171 C1172 1.398 1_545 S
C1171 C1177 1.491 . S
C1172 H1163 0.950 . S
C1172 C1171 1.398 1_565 S
C1172 C1173 1.391 . S
C1173 H1161 0.950 . S
C1173 C1169 1.393 . S
C1173 C1172 1.391 . S
C1174 H1164 0.950 . S
C1174 C1175 1.386 . S
C1174 C1176 1.391 . S
C1175 C1174 1.386 . S
C1175 C1179 1.393 . S
C1176 H1165 0.950 1_545 S
C1176 C1174 1.391 . S
C1176 C1177 1.400 . S
C1177 C1171 1.491 . S
C1177 C1176 1.400 . S
C1177 C1178 1.398 . S
C1178 H1166 0.950 . S
C1178 C1177 1.398 . S
C1178 C1179 1.391 . S
C1179 H1167 0.950 . S
C1179 C1175 1.393 . S
C1179 C1178 1.391 . S
H1180 C1188 0.950 . S
H1181 C1193 0.938 1_556 S
H1182 C1190 0.950 . S
H1183 C1192 0.951 . S
H1184 C1194 0.950 . S
H1185 C1196 0.950 . S
H1186 C1198 0.950 . S
H1187 C1199 0.950 . S
C1188 H1180 0.950 . S
C1188 C1189 1.386 . S
C1188 C1190 1.391 . S
C1189 C1188 1.386 . S
C1189 C1193 1.397 . S
C1190 H1182 0.950 . S
C1190 C1188 1.391 . S
C1190 C1191 1.400 . S
C1191 C1190 1.400 . S
C1191 C1192 1.398 . S
C1191 C1197 1.491 . S
C1192 H1183 0.951 . S
C1192 C1191 1.398 . S
C1192 C1193 1.399 . S
C1193 H1181 0.938 1_554 S
C1193 C1189 1.397 . S
C1193 C1192 1.399 . S
C1194 H1184 0.950 . S
C1194 C1195 1.386 . S
C1194 C1196 1.391 . S
C1195 C1194 1.386 . S
C1195 C1199 1.393 . S
C1196 H1185 0.950 . S
C1196 C1194 1.391 . S
C1196 C1197 1.400 . S
C1197 C1191 1.491 . S
C1197 C1196 1.400 . S
C1197 C1198 1.398 . S
C1198 H1186 0.950 . S
C1198 C1197 1.398 . S
C1198 C1199 1.391 . S
C1199 H1187 0.950 . S
C1199 C1195 1.393 . S
C1199 C1198 1.391 . S
H1200 C1208 0.950 . S
H1201 C1213 0.950 . S
H1202 C1210 0.950 . S
H1203 C1212 0.950 . S
H1204 C1214 0.950 . S
H1205 C1216 0.950 . S
H1206 C1218 0.950 . S
H1207 C1219 0.950 . S
C1208 H1200 0.950 . S
C1208 C1209 1.386 . S
C1208 C1210 1.391 . S
C1209 C1208 1.386 . S
C1209 C1213 1.393 . S
C1210 H1202 0.950 . S
C1210 C1208 1.391 . S
C1210 C1211 1.400 . S
C1211 C1210 1.400 . S
C1211 C1212 1.398 . S
C1211 C1217 1.491 . S
C1212 H1203 0.950 . S
C1212 C1211 1.398 . S
C1212 C1213 1.391 . S
C1213 H1201 0.950 . S
C1213 C1209 1.393 . S
C1213 C1212 1.391 . S
C1214 H1204 0.950 . S
C1214 C1215 1.386 . S
C1214 C1216 1.391 . S
C1215 C1214 1.386 . S
C1215 C1219 1.393 . S
C1216 H1205 0.950 . S
C1216 C1214 1.391 . S
C1216 C1217 1.400 . S
C1217 C1211 1.491 . S
C1217 C1216 1.400 . S
C1217 C1218 1.398 . S
C1218 H1206 0.950 . S
C1218 C1217 1.398 . S
C1218 C1219 1.391 . S
C1219 H1207 0.950 . S
C1219 C1215 1.393 . S
C1219 C1218 1.391 . S
H1220 C1228 0.950 . S
H1221 C1233 0.950 . S
H1222 C1230 0.950 . S
H1223 C1232 0.950 . S
H1224 C1234 0.950 . S
H1225 C1236 0.950 . S
H1226 C1238 0.950 . S
H1227 C1239 0.950 . S
C1228 H1220 0.950 . S
C1228 C1229 1.386 . S
C1228 C1230 1.391 . S
C1229 C1228 1.386 . S
C1229 C1233 1.393 . S
C1230 H1222 0.950 . S
C1230 C1228 1.391 . S
C1230 C1231 1.400 . S
C1231 C1230 1.400 . S
C1231 C1232 1.398 . S
C1231 C1237 1.491 . S
C1232 H1223 0.950 . S
C1232 C1231 1.398 . S
C1232 C1233 1.391 . S
C1233 H1221 0.950 . S
C1233 C1229 1.393 . S
C1233 C1232 1.391 . S
C1234 H1224 0.950 . S
C1234 C1235 1.386 . S
C1234 C1236 1.391 . S
C1235 C1234 1.386 . S
C1235 C1239 1.393 . S
C1236 H1225 0.950 . S
C1236 C1234 1.391 . S
C1236 C1237 1.400 . S
C1237 C1231 1.491 . S
C1237 C1236 1.400 . S
C1237 C1238 1.398 . S
C1238 H1226 0.950 . S
C1238 C1237 1.398 . S
C1238 C1239 1.391 . S
C1239 H1227 0.950 . S
C1239 C1235 1.393 . S
C1239 C1238 1.391 . S
H1240 C1248 0.950 . S
H1241 C1253 0.950 . S
H1242 C1250 0.950 . S
H1243 C1252 0.950 . S
H1244 C1254 0.950 . S
H1245 C1256 0.950 . S
H1246 C1258 0.950 . S
H1247 C1259 0.950 . S
C1248 H1240 0.950 . S
C1248 C1249 1.386 . S
C1248 C1250 1.391 . S
C1249 C1248 1.386 . S
C1249 C1253 1.393 . S
C1250 H1242 0.950 . S
C1250 C1248 1.391 . S
C1250 C1251 1.400 . S
C1251 C1250 1.400 . S
C1251 C1252 1.398 . S
C1251 C1257 1.491 . S
C1252 H1243 0.950 . S
C1252 C1251 1.398 . S
C1252 C1253 1.391 . S
C1253 H1241 0.950 . S
C1253 C1249 1.393 . S
C1253 C1252 1.391 . S
C1254 H1244 0.950 . S
C1254 C1255 1.386 . S
C1254 C1256 1.391 . S
C1255 C1254 1.386 . S
C1255 C1259 1.393 . S
C1256 H1245 0.950 . S
C1256 C1254 1.391 . S
C1256 C1257 1.400 . S
C1257 C1251 1.491 . S
C1257 C1256 1.400 . S
C1257 C1258 1.398 . S
C1258 H1246 0.950 . S
C1258 C1257 1.398 . S
C1258 C1259 1.391 . S
C1259 H1247 0.950 . S
C1259 C1255 1.393 . S
C1259 C1258 1.391 . S
H1260 C1268 0.950 . S
H1261 C1273 0.950 . S
H1262 C1270 0.950 . S
H1263 C1272 0.950 . S
H1264 C1274 0.950 . S
H1265 C1276 0.950 . S
H1266 C1278 0.950 . S
H1267 C1279 0.950 . S
C1268 H1260 0.950 . S
C1268 C1269 1.386 . S
C1268 C1270 1.391 . S
C1269 C1268 1.386 . S
C1269 C1273 1.393 . S
C1270 H1262 0.950 . S
C1270 C1268 1.391 . S
C1270 C1271 1.400 . S
C1271 C1270 1.400 . S
C1271 C1272 1.398 . S
C1271 C1277 1.491 . S
C1272 H1263 0.950 . S
C1272 C1271 1.398 . S
C1272 C1273 1.391 . S
C1273 H1261 0.950 . S
C1273 C1269 1.393 . S
C1273 C1272 1.391 . S
C1274 H1264 0.950 . S
C1274 C1275 1.386 . S
C1274 C1276 1.391 . S
C1275 C1274 1.386 . S
C1275 C1279 1.393 . S
C1276 H1265 0.950 . S
C1276 C1274 1.391 . S
C1276 C1277 1.400 . S
C1277 C1271 1.491 . S
C1277 C1276 1.400 . S
C1277 C1278 1.398 . S
C1278 H1266 0.950 . S
C1278 C1277 1.398 . S
C1278 C1279 1.391 . S
C1279 H1267 0.950 . S
C1279 C1275 1.393 . S
C1279 C1278 1.391 . S
H1280 C1288 0.950 . S
H1281 C1293 0.950 . S
H1282 C1290 0.950 . S
H1283 C1292 0.950 . S
H1284 C1294 0.950 . S
H1285 C1296 0.950 . S
H1286 C1298 0.950 . S
H1287 C1299 0.950 . S
C1288 H1280 0.950 . S
C1288 C1289 1.386 . S
C1288 C1290 1.391 . S
C1289 C1288 1.386 . S
C1289 C1293 1.393 . S
C1290 H1282 0.950 . S
C1290 C1288 1.391 . S
C1290 C1291 1.400 . S
C1291 C1290 1.400 . S
C1291 C1292 1.398 . S
C1291 C1297 1.491 . S
C1292 H1283 0.950 . S
C1292 C1291 1.398 . S
C1292 C1293 1.391 . S
C1293 H1281 0.950 . S
C1293 C1289 1.393 . S
C1293 C1292 1.391 . S
C1294 H1284 0.950 . S
C1294 C1295 1.386 . S
C1294 C1296 1.391 . S
C1295 C1294 1.386 . S
C1295 C1299 1.393 . S
C1296 H1285 0.950 . S
C1296 C1294 1.391 . S
C1296 C1297 1.400 . S
C1297 C1291 1.491 . S
C1297 C1296 1.400 . S
C1297 C1298 1.398 . S
C1298 H1286 0.950 . S
C1298 C1297 1.398 . S
C1298 C1299 1.391 . S
C1299 H1287 0.950 . S
C1299 C1295 1.393 . S
C1299 C1298 1.391 . S
H1300 C1308 0.950 . S
H1301 C1313 0.950 . S
H1302 C1310 0.950 . S
H1303 C1312 0.950 . S
H1304 C1314 0.950 . S
H1305 C1316 0.950 . S
H1306 C1318 0.950 . S
H1307 C1319 0.950 . S
C1308 H1300 0.950 . S
C1308 C1309 1.386 . S
C1308 C1310 1.391 . S
C1309 C1308 1.386 . S
C1309 C1313 1.393 . S
C1310 H1302 0.950 . S
C1310 C1308 1.391 . S
C1310 C1311 1.400 . S
C1311 C1310 1.400 . S
C1311 C1312 1.398 . S
C1311 C1317 1.491 . S
C1312 H1303 0.950 . S
C1312 C1311 1.398 . S
C1312 C1313 1.391 . S
C1313 H1301 0.950 . S
C1313 C1309 1.393 . S
C1313 C1312 1.391 . S
C1314 H1304 0.950 . S
C1314 C1315 1.386 . S
C1314 C1316 1.391 . S
C1315 C1314 1.386 . S
C1315 C1319 1.393 . S
C1316 H1305 0.950 . S
C1316 C1314 1.391 . S
C1316 C1317 1.400 . S
C1317 C1311 1.491 . S
C1317 C1316 1.400 . S
C1317 C1318 1.398 . S
C1318 H1306 0.950 . S
C1318 C1317 1.398 . S
C1318 C1319 1.391 . S
C1319 H1307 0.950 . S
C1319 C1315 1.393 . S
C1319 C1318 1.391 . S
H1320 C1328 0.950 . S
H1321 C1333 0.950 . S
H1322 C1330 0.950 . S
H1323 C1332 0.950 . S
H1324 C1334 0.950 . S
H1325 C1336 0.950 . S
H1326 C1338 0.950 . S
H1327 C1339 0.950 . S
C1328 H1320 0.950 . S
C1328 C1329 1.386 . S
C1328 C1330 1.391 . S
C1329 C1328 1.386 . S
C1329 C1333 1.393 . S
C1330 H1322 0.950 . S
C1330 C1328 1.391 . S
C1330 C1331 1.400 . S
C1331 C1330 1.400 . S
C1331 C1332 1.398 . S
C1331 C1337 1.491 . S
C1332 H1323 0.950 . S
C1332 C1331 1.398 . S
C1332 C1333 1.391 . S
C1333 H1321 0.950 . S
C1333 C1329 1.393 . S
C1333 C1332 1.391 . S
C1334 H1324 0.950 . S
C1334 C1335 1.386 . S
C1334 C1336 1.391 . S
C1335 C1334 1.386 . S
C1335 C1339 1.393 . S
C1336 H1325 0.950 . S
C1336 C1334 1.391 . S
C1336 C1337 1.400 . S
C1337 C1331 1.491 . S
C1337 C1336 1.400 . S
C1337 C1338 1.398 . S
C1338 H1326 0.950 . S
C1338 C1337 1.398 . S
C1338 C1339 1.391 . S
C1339 H1327 0.950 . S
C1339 C1335 1.393 . S
C1339 C1338 1.391 . S
H1340 C1348 0.950 . S
H1341 C1353 0.950 . S
H1342 C1350 0.950 . S
H1343 C1352 0.950 . S
H1344 C1354 0.950 . S
H1345 C1356 0.950 . S
H1346 C1358 0.950 . S
H1347 C1359 0.950 . S
C1348 H1340 0.950 . S
C1348 C1349 1.386 . S
C1348 C1350 1.391 . S
C1349 C1348 1.386 . S
C1349 C1353 1.393 . S
C1350 H1342 0.950 . S
C1350 C1348 1.391 . S
C1350 C1351 1.400 . S
C1351 C1350 1.400 . S
C1351 C1352 1.398 . S
C1351 C1357 1.491 . S
C1352 H1343 0.950 . S
C1352 C1351 1.398 . S
C1352 C1353 1.391 . S
C1353 H1341 0.950 . S
C1353 C1349 1.393 . S
C1353 C1352 1.391 . S
C1354 H1344 0.950 . S
C1354 C1355 1.386 . S
C1354 C1356 1.391 . S
C1355 C1354 1.386 . S
C1355 C1359 1.393 . S
C1356 H1345 0.950 . S
C1356 C1354 1.391 . S
C1356 C1357 1.400 . S
C1357 C1351 1.491 . S
C1357 C1356 1.400 . S
C1357 C1358 1.398 . S
C1358 H1346 0.950 . S
C1358 C1357 1.398 . S
C1358 C1359 1.391 . S
C1359 H1347 0.950 . S
C1359 C1355 1.393 . S
C1359 C1358 1.391 . S
H1360 C1368 0.950 . S
H1361 C1373 0.950 . S
H1362 C1370 0.950 . S
H1363 C1372 0.950 . S
H1364 C1374 0.950 . S
H1365 C1376 0.950 . S
H1366 C1378 0.950 . S
H1367 C1379 0.950 . S
C1368 H1360 0.950 . S
C1368 C1369 1.386 . S
C1368 C1370 1.391 . S
C1369 C1368 1.386 . S
C1369 C1373 1.393 . S
C1370 H1362 0.950 . S
C1370 C1368 1.391 . S
C1370 C1371 1.400 . S
C1371 C1370 1.400 . S
C1371 C1372 1.398 . S
C1371 C1377 1.491 . S
C1372 H1363 0.950 . S
C1372 C1371 1.398 . S
C1372 C1373 1.391 . S
C1373 H1361 0.950 . S
C1373 C1369 1.393 . S
C1373 C1372 1.391 . S
C1374 H1364 0.950 . S
C1374 C1375 1.386 . S
C1374 C1376 1.391 . S
C1375 C1374 1.386 . S
C1375 C1379 1.393 . S
C1376 H1365 0.950 . S
C1376 C1374 1.391 . S
C1376 C1377 1.400 . S
C1377 C1371 1.491 . S
C1377 C1376 1.400 . S
C1377 C1378 1.398 . S
C1378 H1366 0.950 . S
C1378 C1377 1.398 . S
C1378 C1379 1.391 . S
C1379 H1367 0.950 . S
C1379 C1375 1.393 . S
C1379 C1378 1.391 . S
H1380 C1388 0.950 . S
H1381 C1393 0.950 . S
H1382 C1390 0.950 . S
H1383 C1392 0.950 1_556 S
H1384 C1394 0.950 . S
H1385 C1396 0.950 1_556 S
H1386 C1398 0.950 . S
H1387 C1399 0.950 . S
C1388 H1380 0.950 . S
C1388 C1389 1.386 . S
C1388 C1390 1.391 . S
C1389 C1388 1.386 . S
C1389 C1393 1.393 . S
C1390 H1382 0.950 . S
C1390 C1388 1.391 . S
C1390 C1391 1.400 . S
C1391 C1390 1.400 . S
C1391 C1392 1.398 . S
C1391 C1397 1.491 . S
C1392 H1383 0.950 1_554 S
C1392 C1391 1.398 . S
C1392 C1393 1.391 . S
C1393 H1381 0.950 . S
C1393 C1389 1.393 . S
C1393 C1392 1.391 . S
C1394 H1384 0.950 . S
C1394 C1395 1.386 1_556 S
C1394 C1396 1.391 1_556 S
C1395 C1394 1.386 1_554 S
C1395 C1399 1.393 . S
C1396 H1385 0.950 1_554 S
C1396 C1394 1.391 1_554 S
C1396 C1397 1.400 . S
C1397 C1391 1.491 . S
C1397 C1396 1.400 . S
C1397 C1398 1.398 . S
C1398 H1386 0.950 . S
C1398 C1397 1.398 . S
C1398 C1399 1.391 . S
C1399 H1387 0.950 . S
C1399 C1395 1.393 . S
C1399 C1398 1.391 . S
H1400 C1408 0.950 . S
H1401 C1413 0.950 . S
H1402 C1410 0.950 . S
H1403 C1412 0.950 . S
H1404 C1414 0.950 . S
H1405 C1416 0.950 . S
H1406 C1418 0.950 . S
H1407 C1419 0.950 . S
C1408 H1400 0.950 . S
C1408 C1409 1.386 . S
C1408 C1410 1.391 . S
C1409 C1408 1.386 . S
C1409 C1413 1.393 . S
C1410 H1402 0.950 . S
C1410 C1408 1.391 . S
C1410 C1411 1.400 . S
C1411 C1410 1.400 . S
C1411 C1412 1.398 . S
C1411 C1417 1.491 . S
C1412 H1403 0.950 . S
C1412 C1411 1.398 . S
C1412 C1413 1.391 . S
C1413 H1401 0.950 . S
C1413 C1409 1.393 . S
C1413 C1412 1.391 . S
C1414 H1404 0.950 . S
C1414 C1415 1.386 . S
C1414 C1416 1.391 . S
C1415 C1414 1.386 . S
C1415 C1419 1.393 . S
C1416 H1405 0.950 . S
C1416 C1414 1.391 . S
C1416 C1417 1.400 . S
C1417 C1411 1.491 . S
C1417 C1416 1.400 . S
C1417 C1418 1.398 . S
C1418 H1406 0.950 . S
C1418 C1417 1.398 . S
C1418 C1419 1.391 . S
C1419 H1407 0.950 . S
C1419 C1415 1.393 . S
C1419 C1418 1.391 . S
H1420 C1428 0.950 . S
H1421 C1433 0.950 . S
H1422 C1430 0.950 . S
H1423 C1432 0.950 . S
H1424 C1434 0.950 . S
H1425 C1436 0.950 . S
H1426 C1438 0.950 . S
H1427 C1439 0.950 . S
C1428 H1420 0.950 . S
C1428 C1429 1.386 . S
C1428 C1430 1.391 . S
C1429 C1428 1.386 . S
C1429 C1433 1.393 . S
C1430 H1422 0.950 . S
C1430 C1428 1.391 . S
C1430 C1431 1.400 . S
C1431 C1430 1.400 . S
C1431 C1432 1.398 . S
C1431 C1437 1.491 . S
C1432 H1423 0.950 . S
C1432 C1431 1.398 . S
C1432 C1433 1.391 . S
C1433 H1421 0.950 . S
C1433 C1429 1.393 . S
C1433 C1432 1.391 . S
C1434 H1424 0.950 . S
C1434 C1435 1.386 . S
C1434 C1436 1.391 . S
C1435 C1434 1.386 . S
C1435 C1439 1.393 . S
C1436 H1425 0.950 . S
C1436 C1434 1.391 . S
C1436 C1437 1.400 . S
C1437 C1431 1.491 . S
C1437 C1436 1.400 . S
C1437 C1438 1.398 . S
C1438 H1426 0.950 . S
C1438 C1437 1.398 . S
C1438 C1439 1.391 . S
C1439 H1427 0.950 . S
C1439 C1435 1.393 . S
C1439 C1438 1.391 . S
H1440 C1448 0.950 . S
H1441 C1453 0.950 . S
H1442 C1450 0.950 . S
H1443 C1452 0.950 . S
H1444 C1454 0.950 . S
H1445 C1456 0.950 . S
H1446 C1458 0.950 . S
H1447 C1459 0.950 . S
C1448 H1440 0.950 . S
C1448 C1449 1.386 . S
C1448 C1450 1.391 . S
C1449 C1448 1.386 . S
C1449 C1453 1.393 . S
C1450 H1442 0.950 . S
C1450 C1448 1.391 . S
C1450 C1451 1.400 . S
C1451 C1450 1.400 . S
C1451 C1452 1.398 . S
C1451 C1457 1.491 . S
C1452 H1443 0.950 . S
C1452 C1451 1.398 . S
C1452 C1453 1.391 . S
C1453 H1441 0.950 . S
C1453 C1449 1.393 . S
C1453 C1452 1.391 . S
C1454 H1444 0.950 . S
C1454 C1455 1.386 . S
C1454 C1456 1.391 . S
C1455 C1454 1.386 . S
C1455 C1459 1.393 . S
C1456 H1445 0.950 . S
C1456 C1454 1.391 . S
C1456 C1457 1.400 . S
C1457 C1451 1.491 . S
C1457 C1456 1.400 . S
C1457 C1458 1.398 . S
C1458 H1446 0.950 . S
C1458 C1457 1.398 . S
C1458 C1459 1.391 . S
C1459 H1447 0.950 . S
C1459 C1455 1.393 . S
C1459 C1458 1.391 . S
H1460 C1468 0.950 . S
H1461 C1473 0.950 . S
H1462 C1470 0.950 . S
H1463 C1472 0.950 . S
H1464 C1474 0.950 . S
H1465 C1476 0.950 . S
H1466 C1478 0.950 . S
H1467 C1479 0.950 . S
C1468 H1460 0.950 . S
C1468 C1469 1.386 . S
C1468 C1470 1.391 . S
C1469 C1468 1.386 . S
C1469 C1473 1.393 . S
C1470 H1462 0.950 . S
C1470 C1468 1.391 . S
C1470 C1471 1.400 . S
C1471 C1470 1.400 . S
C1471 C1472 1.398 . S
C1471 C1477 1.491 . S
C1472 H1463 0.950 . S
C1472 C1471 1.398 . S
C1472 C1473 1.391 . S
C1473 H1461 0.950 . S
C1473 C1469 1.393 . S
C1473 C1472 1.391 . S
C1474 H1464 0.950 . S
C1474 C1475 1.386 . S
C1474 C1476 1.391 . S
C1475 C1474 1.386 . S
C1475 C1479 1.393 . S
C1476 H1465 0.950 . S
C1476 C1474 1.391 . S
C1476 C1477 1.400 . S
C1477 C1471 1.491 . S
C1477 C1476 1.400 . S
C1477 C1478 1.398 . S
C1478 H1466 0.950 . S
C1478 C1477 1.398 . S
C1478 C1479 1.391 . S
C1479 H1467 0.950 . S
C1479 C1475 1.393 . S
C1479 C1478 1.391 . S
H1480 C1488 0.950 . S
H1481 C1493 0.950 1_554 S
H1482 C1490 0.950 . S
H1483 C1492 0.950 . S
H1484 C1494 0.950 . S
H1485 C1496 0.950 . S
H1486 C1498 0.950 . S
H1487 C1499 0.950 . S
C1488 H1480 0.950 . S
C1488 C1489 1.386 . S
C1488 C1490 1.391 . S
C1489 C1488 1.386 . S
C1489 C1493 1.393 . S
C1490 H1482 0.950 . S
C1490 C1488 1.391 . S
C1490 C1491 1.400 . S
C1491 C1490 1.400 . S
C1491 C1492 1.398 . S
C1491 C1497 1.491 . S
C1492 H1483 0.950 . S
C1492 C1491 1.398 . S
C1492 C1493 1.391 . S
C1493 H1481 0.950 1_556 S
C1493 C1489 1.393 . S
C1493 C1492 1.391 . S
C1494 H1484 0.950 . S
C1494 C1495 1.386 . S
C1494 C1496 1.391 . S
C1495 C1494 1.386 . S
C1495 C1499 1.393 . S
C1496 H1485 0.950 . S
C1496 C1494 1.391 . S
C1496 C1497 1.400 . S
C1497 C1491 1.491 . S
C1497 C1496 1.400 . S
C1497 C1498 1.398 . S
C1498 H1486 0.950 . S
C1498 C1497 1.398 . S
C1498 C1499 1.391 . S
C1499 H1487 0.950 . S
C1499 C1495 1.393 . S
C1499 C1498 1.391 . S
H1500 C1508 0.950 . S
H1501 C1513 0.950 . S
H1502 C1510 0.950 . S
H1503 C1512 0.950 . S
H1504 C1514 0.950 . S
H1505 C1516 0.950 . S
H1506 C1518 0.950 . S
H1507 C1519 0.950 . S
C1508 H1500 0.950 . S
C1508 C1509 1.386 . S
C1508 C1510 1.391 . S
C1509 C1508 1.386 . S
C1509 C1513 1.393 . S
C1510 H1502 0.950 . S
C1510 C1508 1.391 . S
C1510 C1511 1.400 . S
C1511 C1510 1.400 . S
C1511 C1512 1.398 . S
C1511 C1517 1.491 . S
C1512 H1503 0.950 . S
C1512 C1511 1.398 . S
C1512 C1513 1.391 . S
C1513 H1501 0.950 . S
C1513 C1509 1.393 . S
C1513 C1512 1.391 . S
C1514 H1504 0.950 . S
C1514 C1515 1.386 . S
C1514 C1516 1.391 . S
C1515 C1514 1.386 . S
C1515 C1519 1.393 . S
C1516 H1505 0.950 . S
C1516 C1514 1.391 . S
C1516 C1517 1.400 . S
C1517 C1511 1.491 . S
C1517 C1516 1.400 . S
C1517 C1518 1.398 . S
C1518 H1506 0.950 . S
C1518 C1517 1.398 . S
C1518 C1519 1.391 . S
C1519 H1507 0.950 . S
C1519 C1515 1.393 . S
C1519 C1518 1.391 . S
H1520 C1528 0.950 . S
H1521 C1533 0.950 . S
H1522 C1530 0.950 . S
H1523 C1532 0.950 . S
H1524 C1534 0.950 . S
H1525 C1536 0.950 . S
H1526 C1538 0.950 . S
H1527 C1539 0.950 . S
C1528 H1520 0.950 . S
C1528 C1529 1.386 . S
C1528 C1530 1.391 . S
C1529 C1528 1.386 . S
C1529 C1533 1.393 . S
C1530 H1522 0.950 . S
C1530 C1528 1.391 . S
C1530 C1531 1.400 . S
C1531 C1530 1.400 . S
C1531 C1532 1.398 . S
C1531 C1537 1.491 . S
C1532 H1523 0.950 . S
C1532 C1531 1.398 . S
C1532 C1533 1.391 . S
C1533 H1521 0.950 . S
C1533 C1529 1.393 . S
C1533 C1532 1.391 . S
C1534 H1524 0.950 . S
C1534 C1535 1.386 . S
C1534 C1536 1.391 . S
C1535 C1534 1.386 . S
C1535 C1539 1.393 . S
C1536 H1525 0.950 . S
C1536 C1534 1.391 . S
C1536 C1537 1.400 . S
C1537 C1531 1.491 . S
C1537 C1536 1.400 . S
C1537 C1538 1.398 . S
C1538 H1526 0.950 . S
C1538 C1537 1.398 . S
C1538 C1539 1.391 . S
C1539 H1527 0.950 . S
C1539 C1535 1.393 . S
C1539 C1538 1.391 . S
H1540 C1548 0.950 . S
H1541 C1553 0.950 . S
H1542 C1550 0.950 . S
H1543 C1552 0.950 . S
H1544 C1554 0.950 . S
H1545 C1556 0.950 . S
H1546 C1558 0.950 . S
H1547 C1559 0.950 . S
C1548 H1540 0.950 . S
C1548 C1549 1.386 . S
C1548 C1550 1.391 . S
C1549 C1548 1.386 . S
C1549 C1553 1.393 . S
C1550 H1542 0.950 . S
C1550 C1548 1.391 . S
C1550 C1551 1.400 . S
C1551 C1550 1.400 . S
C1551 C1552 1.398 . S
C1551 C1557 1.491 . S
C1552 H1543 0.950 . S
C1552 C1551 1.398 . S
C1552 C1553 1.391 . S
C1553 H1541 0.950 . S
C1553 C1549 1.393 . S
C1553 C1552 1.391 . S
C1554 H1544 0.950 . S
C1554 C1555 1.386 . S
C1554 C1556 1.391 . S
C1555 C1554 1.386 . S
C1555 C1559 1.393 . S
C1556 H1545 0.950 . S
C1556 C1554 1.391 . S
C1556 C1557 1.400 . S
C1557 C1551 1.491 . S
C1557 C1556 1.400 . S
C1557 C1558 1.398 . S
C1558 H1546 0.950 . S
C1558 C1557 1.398 . S
C1558 C1559 1.391 . S
C1559 H1547 0.950 . S
C1559 C1555 1.393 . S
C1559 C1558 1.391 . S
H1560 C1568 0.950 . S
H1561 C1573 0.950 . S
H1562 C1570 0.950 . S
H1563 C1572 0.950 . S
H1564 C1574 0.950 . S
H1565 C1576 0.950 . S
H1566 C1578 0.950 . S
H1567 C1579 0.950 . S
C1568 H1560 0.950 . S
C1568 C1569 1.386 . S
C1568 C1570 1.391 . S
C1569 C1568 1.386 . S
C1569 C1573 1.393 . S
C1570 H1562 0.950 . S
C1570 C1568 1.391 . S
C1570 C1571 1.400 . S
C1571 C1570 1.400 . S
C1571 C1572 1.398 . S
C1571 C1577 1.491 . S
C1572 H1563 0.950 . S
C1572 C1571 1.398 . S
C1572 C1573 1.391 . S
C1573 H1561 0.950 . S
C1573 C1569 1.393 . S
C1573 C1572 1.391 . S
C1574 H1564 0.950 . S
C1574 C1575 1.386 . S
C1574 C1576 1.391 . S
C1575 C1574 1.386 . S
C1575 C1579 1.393 . S
C1576 H1565 0.950 . S
C1576 C1574 1.391 . S
C1576 C1577 1.400 . S
C1577 C1571 1.491 . S
C1577 C1576 1.400 . S
C1577 C1578 1.398 . S
C1578 H1566 0.950 . S
C1578 C1577 1.398 . S
C1578 C1579 1.391 . S
C1579 H1567 0.950 . S
C1579 C1575 1.393 . S
C1579 C1578 1.391 . S
H1580 C1588 0.950 . S
H1581 C1593 0.950 . S
H1582 C1590 0.950 . S
H1583 C1592 0.950 . S
H1584 C1594 0.950 . S
H1585 C1596 0.950 . S
H1586 C1598 0.950 . S
H1587 C1599 0.950 . S
C1588 H1580 0.950 . S
C1588 C1589 1.386 . S
C1588 C1590 1.391 . S
C1589 C1588 1.386 . S
C1589 C1593 1.393 . S
C1590 H1582 0.950 . S
C1590 C1588 1.391 . S
C1590 C1591 1.400 . S
C1591 C1590 1.400 . S
C1591 C1592 1.398 . S
C1591 C1597 1.491 . S
C1592 H1583 0.950 . S
C1592 C1591 1.398 . S
C1592 C1593 1.391 . S
C1593 H1581 0.950 . S
C1593 C1589 1.393 . S
C1593 C1592 1.391 . S
C1594 H1584 0.950 . S
C1594 C1595 1.386 . S
C1594 C1596 1.391 . S
C1595 C1594 1.386 . S
C1595 C1599 1.393 . S
C1596 H1585 0.950 . S
C1596 C1594 1.391 . S
C1596 C1597 1.400 . S
C1597 C1591 1.491 . S
C1597 C1596 1.400 . S
C1597 C1598 1.398 . S
C1598 H1586 0.950 . S
C1598 C1597 1.398 . S
C1598 C1599 1.391 . S
C1599 H1587 0.950 . S
C1599 C1595 1.393 . S
C1599 C1598 1.391 . S
C649 C19 1.179 . S
C655 C55 1.135 . S
C669 C99 1.909 . S
C675 C50 1.880 . S
C689 C130 2.208 . S
C695 C98 2.216 . S
C709 C18 1.298 . S
C715 C135 1.284 . S
C729 C9 1.320 . S
C735 C366 1.270 . S
C749 C290 1.186 . S
C755 C46 1.151 . S
C769 C90 1.910 . S
C775 C419 1.875 . S
C789 C139 2.194 . S
C795 C529 2.225 . S
C809 C330 1.912 . S
C815 C59 1.868 . S
C829 C499 2.208 . S
C835 C89 2.217 . S
C849 C569 1.298 . S
C855 C126 1.265 . S
C869 C10 1.180 . S
C875 C446 1.137 . S
C889 C15 0.541 . S
C895 C326 0.447 . S
C909 C498 1.645 . S
C915 C169 1.633 . S
C929 C215 0.399 . S
C935 C566 0.522 . S
C949 C449 1.638 . S
C955 C258 1.639 . S
C969 C95 0.402 . S
C975 C286 0.484 . S
C989 C369 1.624 . S
C995 C178 1.652 . S
C1009 C249 1.640 . S
C1015 C418 1.637 . S
C1029 C210 1.912 . S
C1035 C459 1.867 . S
C1049 C379 2.193 . S
C1055 C209 2.222 . S
C1069 C455 1.130 . S
C1075 C299 1.175 . S
C1089 C219 1.913 . S
C1095 C170 1.866 . S
C1109 C370 2.206 . S
C1115 C338 2.226 . S
C1129 C539 1.912 . S
C1135 C450 1.866 . S
C1149 C250 2.209 . S
C1155 C218 2.219 . S
C1169 C375 1.294 . S
C1175 C578 1.323 . S
C1189 C535 0.426 . S
C1195 C6 0.489 . S
C1209 C86 0.393 . S
C1215 C575 0.508 . S
C1229 C489 1.644 . S
C1235 C58 1.634 . S
C1249 C295 0.493 . S
C1255 C206 0.432 . S
C1269 C138 1.643 . S
C1275 C409 1.636 . S
C1289 C490 2.200 . S
C1295 C538 2.227 . S
C1309 C298 1.325 . S
C1315 C495 1.285 . S
C1329 C246 1.261 . S
C1335 C289 1.307 . S
C1349 C179 1.881 . S
C1355 C530 1.909 . S
C1369 C486 1.273 . S
C1375 C609 1.322 . S
C1389 C606 0.494 . S
C1395 C335 0.432 . S
C1409 C49 1.637 . S
C1415 C378 1.640 . S
C1429 C329 2.226 . S
C1435 C259 2.196 . S
C1449 C339 1.911 . S
C1455 C410 1.868 . S
C1469 C618 1.302 . S
C1475 C255 1.291 . S
C1489 C526 0.393 . S
C1495 C615 0.499 . S
C1509 C458 1.638 . S
C1515 C129 1.641 . S
C1529 C415 1.143 . S
C1535 C579 1.180 . S
C1549 C406 1.123 . S
C1555 C610 1.174 . S
C1569 C166 1.123 . S
C1575 C570 1.174 . S
C1589 C619 1.180 . S
C1595 C175 1.135 . S
