# Generated by pormake.
# Topology wmi, (6)-cn, num edge types: 1
# Building blocks:
#     Node 0, Type 0, BuildingBlock: BETFAJ_clean_sbu_0, # of connection points: 6
#     Node 1, Type 0, BuildingBlock: BETFAJ_clean_sbu_0, # of connection points: 6
#     Node 2, Type 0, BuildingBlock: BETFAJ_clean_sbu_0, # of connection points: 6
#     Node 3, Type 0, BuildingBlock: BETFAJ_clean_sbu_0, # of connection points: 6
#     Node 4, Type 0, BuildingBlock: BETFAJ_clean_sbu_0, # of connection points: 6
#     Node 5, Type 0, BuildingBlock: BETFAJ_clean_sbu_0, # of connection points: 6
#     Node 6, Type 0, BuildingBlock: BETFAJ_clean_sbu_0, # of connection points: 6
#     Node 7, Type 0, BuildingBlock: BETFAJ_clean_sbu_0, # of connection points: 6
#     Node 8, Type 0, BuildingBlock: BETFAJ_clean_sbu_0, # of connection points: 6
#     Node 9, Type 0, BuildingBlock: BETFAJ_clean_sbu_0, # of connection points: 6
#     Node 10, Type 0, BuildingBlock: BETFAJ_clean_sbu_0, # of connection points: 6
#     Node 11, Type 0, BuildingBlock: BETFAJ_clean_sbu_0, # of connection points: 6
#     Node 12, Type 0, BuildingBlock: BETFAJ_clean_sbu_0, # of connection points: 6
#     Node 13, Type 0, BuildingBlock: BETFAJ_clean_sbu_0, # of connection points: 6
#     Node 14, Type 0, BuildingBlock: BETFAJ_clean_sbu_0, # of connection points: 6
#     Node 15, Type 0, BuildingBlock: BETFAJ_clean_sbu_0, # of connection points: 6
#     Node 16, Type 0, BuildingBlock: BETFAJ_clean_sbu_0, # of connection points: 6
#     Node 17, Type 0, BuildingBlock: BETFAJ_clean_sbu_0, # of connection points: 6
#     Edge 18, Type (0, 0), None
#     Edge 19, Type (0, 0), None
#     Edge 20, Type (0, 0), None
#     Edge 21, Type (0, 0), None
#     Edge 22, Type (0, 0), None
#     Edge 23, Type (0, 0), None
#     Edge 24, Type (0, 0), None
#     Edge 25, Type (0, 0), None
#     Edge 26, Type (0, 0), None
#     Edge 27, Type (0, 0), None
#     Edge 28, Type (0, 0), None
#     Edge 29, Type (0, 0), None
#     Edge 30, Type (0, 0), None
#     Edge 31, Type (0, 0), None
#     Edge 32, Type (0, 0), None
#     Edge 33, Type (0, 0), None
#     Edge 34, Type (0, 0), None
#     Edge 35, Type (0, 0), None
#     Edge 36, Type (0, 0), None
#     Edge 37, Type (0, 0), None
#     Edge 38, Type (0, 0), None
#     Edge 39, Type (0, 0), None
#     Edge 40, Type (0, 0), None
#     Edge 41, Type (0, 0), None
#     Edge 42, Type (0, 0), None
#     Edge 43, Type (0, 0), None
#     Edge 44, Type (0, 0), None
#     Edge 45, Type (0, 0), None
#     Edge 46, Type (0, 0), None
#     Edge 47, Type (0, 0), None
#     Edge 48, Type (0, 0), None
#     Edge 49, Type (0, 0), None
#     Edge 50, Type (0, 0), None
#     Edge 51, Type (0, 0), None
#     Edge 52, Type (0, 0), None
#     Edge 53, Type (0, 0), None
#     Edge 54, Type (0, 0), None
#     Edge 55, Type (0, 0), None
#     Edge 56, Type (0, 0), None
#     Edge 57, Type (0, 0), None
#     Edge 58, Type (0, 0), None
#     Edge 59, Type (0, 0), None
#     Edge 60, Type (0, 0), None
#     Edge 61, Type (0, 0), None
#     Edge 62, Type (0, 0), None
#     Edge 63, Type (0, 0), None
#     Edge 64, Type (0, 0), None
#     Edge 65, Type (0, 0), None
#     Edge 66, Type (0, 0), None
#     Edge 67, Type (0, 0), None
#     Edge 68, Type (0, 0), None
#     Edge 69, Type (0, 0), None
#     Edge 70, Type (0, 0), None
#     Edge 71, Type (0, 0), None
# Relax obj value: 0.129
# Max RMSD: 0.292
# Mean RMSD: 0.292
data_MOF--net-wmi--node1-BETFAJ_clean_sbu_0--edge1-none
_symmetry_space_group_name_H-M    P1
_symmetry_Int_Tables_number       1
_symmetry_cell_setting            triclinic
loop_
_symmetry_equiv_pos_as_xyz
'x, y, z'
_cell_length_a     22.797756
_cell_length_b     22.80776
_cell_length_c     35.206566
_cell_angle_alpha  90.00362
_cell_angle_beta   90.009436
_cell_angle_gamma 120.00161
loop_
_atom_site_label
_atom_site_type_symbol
_atom_site_fract_x
_atom_site_fract_y
_atom_site_fract_z
_atom_type_partial_charge
Sm0 Sm 0.59915 0.12029 0.07531 0.0
Sm1 Sm 0.47962 1.03498 0.05239 0.0
C2 C 0.72251 0.19119 0.10456 0.0
C3 C 0.79077 0.23047 0.08695 0.0
C4 C 0.79905 0.2623 0.05159 0.0
C5 C 0.86401 0.30511 0.03695 0.0
C6 C 0.92223 0.31632 0.05695 0.0
C7 C 0.9136 0.27953 0.09049 0.0
C8 C 0.84847 0.23727 0.10551 0.0
C9 C 0.47664 0.09425 0.12805 0.0
C10 C 0.53193 0.20093 0.05131 0.0
C11 C 0.35043 0.94245 0.0445 0.0
C12 C 0.31776 0.86837 0.04267 0.0
C13 C 0.34643 0.83369 0.06115 0.0
C14 C 0.31062 0.76287 0.06364 0.0
C15 C 0.24589 0.72628 0.04765 0.0
C16 C 0.21965 0.76128 0.02712 0.0
C17 C 0.25515 0.83161 0.0248 0.0
C18 C 0.55894 0.07002 -0.01106 0.0
C19 C 0.58821 0.98555 0.05431 0.0
O20 O 0.68149 0.21556 0.10053 0.0
O21 O 0.69183 0.12558 0.09979 0.0
O22 O 0.50722 0.06471 0.11412 0.0
O23 O 0.50657 0.06236 0.11451 0.0
O24 O 0.59203 0.20769 0.05263 0.0
O25 O 0.47768 0.13905 0.05341 0.0
O26 O 0.37838 0.96841 0.07692 0.0
O27 O 0.38805 0.97667 0.01578 0.0
O28 O 0.56382 0.11209 0.01403 0.0
O29 O 0.51599 1.00841 -0.00157 0.0
O30 O 0.52569 0.96508 0.0656 0.0
O31 O 0.62724 1.04953 0.0478 0.0
H32 H 0.75545 0.25689 0.0362 0.0
H33 H 0.86894 0.33374 0.0114 0.0
H34 H 0.95746 0.28862 0.10685 0.0
H35 H 0.84339 0.21259 0.13258 0.0
H36 H 0.39528 0.86146 0.07496 0.0
H37 H 0.33206 0.73728 0.07942 0.0
H38 H 0.17023 0.73448 0.01381 0.0
H39 H 0.23256 0.85732 0.01021 0.0
Sm40 Sm 1.0665 0.52927 0.0753 0.0
Sm41 Sm 0.15183 0.49514 0.05236 0.0
C42 C 0.99563 0.58169 0.10459 0.0
C43 C 0.95643 0.61077 0.08701 0.0
C44 C 0.92476 0.58748 0.05158 0.0
C45 C 0.882 0.6097 0.03694 0.0
C46 C 0.87068 0.65654 0.05703 0.0
C47 C 0.90733 0.68446 0.09065 0.0
C48 C 0.94954 0.66151 0.10566 0.0
C49 C 0.09251 0.43272 0.12797 0.0
C50 C 0.98584 0.38148 0.05123 0.0
C51 C 0.24431 0.45844 0.04443 0.0
C52 C 0.31841 0.49981 0.04259 0.0
C53 C 0.35315 0.56323 0.06098 0.0
C54 C 0.42398 0.5982 0.06351 0.0
C55 C 0.46055 0.56996 0.04761 0.0
C56 C 0.42548 0.50864 0.02717 0.0
C57 C 0.35514 0.47385 0.02482 0.0
C58 C 0.1168 0.53948 -0.01108 0.0
C59 C 0.20129 0.65311 0.05433 0.0
O60 O 0.97119 0.51632 0.10049 0.0
O61 O 1.06128 0.6166 0.09988 0.0
O62 O 0.12207 0.49286 0.11409 0.0
O63 O 0.12442 0.49456 0.11448 0.0
O64 O 0.97904 0.43478 0.05258 0.0
O65 O 1.04773 0.38914 0.05332 0.0
O66 O 0.2184 0.46046 0.07686 0.0
O67 O 0.21007 0.46188 0.01572 0.0
O68 O 1.0747 0.50227 0.014 0.0
O69 O 0.17843 0.55813 -0.00157 0.0
O70 O 0.22178 0.61108 0.0656 0.0
O71 O 0.13728 0.62814 0.04783 0.0
H72 H 0.93023 0.54941 0.03612 0.0
H73 H 0.85347 0.58618 0.01133 0.0
H74 H 0.89815 0.71908 0.10708 0.0
H75 H 0.97409 0.68091 0.13279 0.0
H76 H 0.3254 0.58439 0.07472 0.0
H77 H 0.44962 0.6453 0.07921 0.0
H78 H 0.45226 0.48594 0.01393 0.0
H79 H 0.32938 0.42549 0.0103 0.0
Sm80 Sm 0.65762 0.58764 0.07531 0.0
Sm81 Sm 0.69175 0.70717 0.05242 0.0
C82 C 0.60524 0.46433 0.10455 0.0
C83 C 0.57617 0.39604 0.08698 0.0
C84 C 0.59954 0.38764 0.05159 0.0
C85 C 0.57732 0.32266 0.03697 0.0
C86 C 0.5304 0.26454 0.05704 0.0
C87 C 0.50241 0.27326 0.09063 0.0
C88 C 0.52536 0.33842 0.10562 0.0
C89 C 0.75412 0.71014 0.12806 0.0
C90 C 0.8055 0.65495 0.05128 0.0
C91 C 0.72836 0.8363 0.04457 0.0
C92 C 0.68696 0.869 0.04268 0.0
C93 C 0.62348 0.8403 0.06103 0.0
C94 C 0.58852 0.87616 0.06352 0.0
C95 C 0.61681 0.94096 0.04764 0.0
C96 C 0.67819 0.96723 0.02723 0.0
C97 C 0.71298 0.93169 0.02492 0.0
C98 C 0.64742 0.62784 -0.01104 0.0
C99 C 0.53373 0.59855 0.05432 0.0
O100 O 0.67063 0.50531 0.10046 0.0
O101 O 0.57028 0.49501 0.09984 0.0
O102 O 0.69398 0.67956 0.11413 0.0
O103 O 0.69228 0.68021 0.11452 0.0
O104 O 0.75219 0.59485 0.05259 0.0
O105 O 0.79782 0.70916 0.05341 0.0
O106 O 0.72621 0.8083 0.07699 0.0
O107 O 0.72509 0.79874 0.01585 0.0
O108 O 0.68465 0.62298 0.01404 0.0
O109 O 0.62877 0.67081 -0.00155 0.0
O110 O 0.57576 0.66106 0.06561 0.0
O111 O 0.55872 0.55955 0.04782 0.0
H112 H 0.63767 0.43117 0.03614 0.0
H113 H 0.6009 0.31765 0.01139 0.0
H114 H 0.46773 0.22948 0.10704 0.0
H115 H 0.5059 0.34359 0.13271 0.0
H116 H 0.60229 0.7914 0.07476 0.0
H117 H 0.54137 0.85469 0.07919 0.0
H118 H 0.70093 1.01671 0.01401 0.0
H119 H 0.76138 0.9543 0.01044 0.0
Sm120 Sm 0.14906 0.5705 0.86278 0.0
Sm121 Sm 1.06367 0.45104 0.88569 0.0
C122 C 0.21997 0.69378 0.8335 0.0
C123 C 0.25915 0.76207 0.85108 0.0
C124 C 0.29083 0.77049 0.88651 0.0
C125 C 0.33356 0.83548 0.90113 0.0
C126 C 0.34485 0.8936 0.88103 0.0
C127 C 0.30821 0.88484 0.8474 0.0
C128 C 0.26602 0.81968 0.8324 0.0
C129 C 0.12306 0.44796 0.81009 0.0
C130 C 0.22966 0.50329 0.88687 0.0
C131 C 0.97118 0.32189 0.89357 0.0
C132 C 0.89708 0.28915 0.89547 0.0
C133 C 0.86228 0.31786 0.87717 0.0
C134 C 0.79144 0.28198 0.87467 0.0
C135 C 0.75494 0.21714 0.89051 0.0
C136 C 0.79007 0.19085 0.91087 0.0
C137 C 0.86042 0.22642 0.91319 0.0
C138 C 0.09861 0.53029 0.94913 0.0
C139 C 1.01426 0.5596 0.88374 0.0
O140 O 0.24441 0.65285 0.83764 0.0
O141 O 0.15431 0.66305 0.83819 0.0
O142 O 0.0935 0.47855 0.82397 0.0
O143 O 0.09115 0.4779 0.82359 0.0
O144 O 0.23646 0.56338 0.88553 0.0
O145 O 0.16776 0.44908 0.88475 0.0
O146 O 0.997 0.34988 0.86114 0.0
O147 O 1.0055 0.35948 0.92228 0.0
O148 O 0.14078 0.53526 0.92407 0.0
O149 O 1.03697 0.48735 0.93963 0.0
O150 O 0.99376 0.49709 0.87247 0.0
O151 O 1.07827 0.59861 0.89025 0.0
H152 H 0.28537 0.72697 0.90198 0.0
H153 H 0.36209 0.8405 0.92675 0.0
H154 H 0.31737 0.92861 0.83096 0.0
H155 H 0.24147 0.8145 0.80528 0.0
H156 H 0.88998 0.3668 0.86347 0.0
H157 H 0.76575 0.30346 0.85903 0.0
H158 H 0.76335 0.14134 0.92405 0.0
H159 H 0.88623 0.2038 0.92763 0.0
Sm160 Sm 0.61632 0.62885 0.8628 0.0
Sm161 Sm 0.73581 0.66302 0.88573 0.0
C162 C 0.49298 0.57638 0.83353 0.0
C163 C 0.42472 0.54737 0.85113 0.0
C164 C 0.41642 0.57081 0.88653 0.0
C165 C 0.35146 0.54864 0.90118 0.0
C166 C 0.29326 0.50171 0.88114 0.0
C167 C 0.30189 0.47364 0.84756 0.0
C168 C 0.36703 0.49654 0.83253 0.0
C169 C 0.73885 0.72533 0.8101 0.0
C170 C 0.68348 0.77666 0.88683 0.0
C171 C 0.86502 0.69973 0.89364 0.0
C172 C 0.89773 0.65835 0.89546 0.0
C173 C 0.86903 0.59496 0.87703 0.0
C174 C 0.90488 0.55999 0.87451 0.0
C175 C 0.96967 0.58819 0.89044 0.0
C176 C 0.99595 0.64948 0.91091 0.0
C177 C 0.96042 0.68428 0.91326 0.0
C178 C 0.65656 0.61879 0.94917 0.0
C179 C 0.62724 0.50504 0.8838 0.0
O180 O 0.53396 0.64176 0.83758 0.0
O181 O 0.5237 0.54147 0.83828 0.0
O182 O 0.70827 0.66521 0.824 0.0
O183 O 0.70892 0.66351 0.82361 0.0
O184 O 0.62338 0.72334 0.88548 0.0
O185 O 0.73773 0.76902 0.88475 0.0
O186 O 0.83707 0.69774 0.86121 0.0
O187 O 0.82736 0.69628 0.92235 0.0
O188 O 0.65159 0.65594 0.92409 0.0
O189 O 0.69949 0.60008 0.93969 0.0
O190 O 0.68977 0.54708 0.87251 0.0
O191 O 0.58823 0.53001 0.89031 0.0
H192 H 0.46001 0.60895 0.90194 0.0
H193 H 0.3465 0.57226 0.92676 0.0
H194 H 0.25804 0.43894 0.83118 0.0
H195 H 0.37213 0.47704 0.80544 0.0
H196 H 0.82013 0.57384 0.86327 0.0
H197 H 0.88341 0.51291 0.85878 0.0
H198 H 1.04542 0.67215 0.92417 0.0
H199 H 0.98302 0.73261 0.92781 0.0
Sm200 Sm 0.55791 1.03779 0.86281 0.0
Sm201 Sm 0.5237 0.12315 0.88568 0.0
C202 C 0.61035 0.96689 0.83359 0.0
C203 C 0.63936 0.92763 0.85117 0.0
C204 C 0.61586 0.89578 0.88653 0.0
C205 C 0.63804 0.85298 0.90115 0.0
C206 C 0.68502 0.84181 0.88112 0.0
C207 C 0.71314 0.8786 0.84758 0.0
C208 C 0.69024 0.92085 0.83258 0.0
C209 C 0.46146 0.06381 0.81002 0.0
C210 C 0.41001 0.95721 0.88678 0.0
C211 C 0.48707 0.21568 0.8935 0.0
C212 C 0.52846 0.28976 0.89538 0.0
C213 C 0.59193 0.32452 0.87703 0.0
C214 C 0.62691 0.39534 0.87455 0.0
C215 C 0.59864 0.43186 0.89045 0.0
C216 C 0.53726 0.39677 0.91086 0.0
C217 C 0.50246 0.32645 0.91316 0.0
C218 C 0.56796 0.08822 0.94915 0.0
C219 C 0.68174 0.17255 0.88383 0.0
O220 O 0.54495 0.9425 0.83763 0.0
O221 O 0.64531 1.03251 0.83834 0.0
O222 O 0.52158 0.09336 0.82397 0.0
O223 O 0.52328 0.09571 0.82358 0.0
O224 O 0.46334 0.95043 0.8855 0.0
O225 O 0.41766 1.01907 0.88465 0.0
O226 O 0.48923 0.1898 0.86108 0.0
O227 O 0.49032 0.1814 0.92223 0.0
O228 O 0.5308 1.04607 0.92407 0.0
O229 O 0.58664 0.14983 0.93967 0.0
O230 O 0.63971 0.19302 0.87252 0.0
O231 O 0.65676 0.10857 0.89034 0.0
H232 H 0.57768 0.90116 0.90194 0.0
H233 H 0.61437 0.82434 0.9267 0.0
H234 H 0.74789 0.86952 0.83119 0.0
H235 H 0.7098 0.94553 0.80551 0.0
H236 H 0.61312 0.29681 0.86329 0.0
H237 H 0.67406 0.42099 0.85887 0.0
H238 H 0.51453 0.42351 0.92409 0.0
H239 H 0.45406 0.30068 0.92765 0.0
Sm240 Sm 0.26578 0.4536 0.40859 0.0
Sm241 Sm 0.14623 0.3683 0.3857 0.0
C242 C 0.38915 0.52444 0.43783 0.0
C243 C 0.45742 0.56371 0.42023 0.0
C244 C 0.46573 0.59556 0.38488 0.0
C245 C 0.5307 0.63838 0.37025 0.0
C246 C 0.5889 0.64958 0.39027 0.0
C247 C 0.58025 0.61276 0.4238 0.0
C248 C 0.5151 0.5705 0.43881 0.0
C249 C 0.14332 0.42756 0.46137 0.0
C250 C 0.19854 0.53425 0.38465 0.0
C251 C 1.01704 0.27574 0.37784 0.0
C252 C 0.98437 0.20166 0.37601 0.0
C253 C 1.01304 0.16698 0.3945 0.0
C254 C 0.97725 0.09617 0.39698 0.0
C255 C 0.91254 0.05956 0.38094 0.0
C256 C 0.88631 0.09457 0.36041 0.0
C257 C 0.92179 0.16489 0.35811 0.0
C258 C 0.22547 0.4034 0.32222 0.0
C259 C 0.25483 0.31887 0.38755 0.0
O260 O 0.34815 0.54884 0.43381 0.0
O261 O 0.35845 0.45883 0.43305 0.0
O262 O 0.17388 0.39802 0.44743 0.0
O263 O 0.17323 0.39566 0.44781 0.0
O264 O 0.25865 0.54102 0.38596 0.0
O265 O 0.14429 0.47238 0.38675 0.0
O266 O 1.04501 0.30173 0.41026 0.0
O267 O 1.05464 0.30997 0.34912 0.0
O268 O 0.23038 0.44545 0.34733 0.0
O269 O 0.18256 0.34178 0.33171 0.0
O270 O 0.19232 0.29841 0.39888 0.0
O271 O 0.29383 0.38285 0.38103 0.0
H272 H 0.42214 0.59017 0.36948 0.0
H273 H 0.53565 0.66702 0.34471 0.0
H274 H 0.62409 0.62184 0.44017 0.0
H275 H 0.51 0.54581 0.46587 0.0
H276 H 1.06187 0.19476 0.40834 0.0
H277 H 0.99868 0.07057 0.41276 0.0
H278 H 0.83691 0.06776 0.34708 0.0
H279 H 0.89921 0.1906 0.34351 0.0
Sm280 Sm 0.73318 0.86255 0.4086 0.0
Sm281 Sm 0.81851 0.82842 0.38568 0.0
C282 C 0.66234 0.91502 0.43789 0.0
C283 C 0.62315 0.94412 0.42031 0.0
C284 C 0.59147 0.92084 0.38488 0.0
C285 C 0.54872 0.94308 0.37026 0.0
C286 C 0.53741 0.98991 0.39036 0.0
C287 C 0.57407 1.01783 0.42397 0.0
C288 C 0.61628 0.99486 0.43898 0.0
C289 C 0.75919 0.76605 0.46131 0.0
C290 C 0.65251 0.71474 0.38457 0.0
C291 C 0.91101 0.79175 0.37777 0.0
C292 C 0.98512 0.83313 0.37593 0.0
C293 C 1.01985 0.89654 0.39433 0.0
C294 C 0.0907 0.93153 0.39683 0.0
C295 C 0.12726 0.90332 0.38091 0.0
C296 C 0.0922 0.84201 0.36045 0.0
C297 C 1.02185 0.8072 0.35813 0.0
C298 C 0.78341 0.87263 0.32223 0.0
C299 C 0.86795 0.98638 0.38761 0.0
O300 O 0.63788 0.84965 0.43379 0.0
O301 O 0.728 0.94991 0.43317 0.0
O302 O 0.78876 0.82617 0.44741 0.0
O303 O 0.79111 0.82788 0.4478 0.0
O304 O 0.64571 0.76804 0.38593 0.0
O305 O 0.71441 0.7224 0.38665 0.0
O306 O 0.8851 0.79377 0.4102 0.0
O307 O 0.87676 0.79515 0.34906 0.0
O308 O 0.74133 0.83546 0.34732 0.0
O309 O 0.84505 0.89134 0.33173 0.0
O310 O 0.88844 0.94436 0.39891 0.0
O311 O 0.80395 0.96139 0.38109 0.0
H312 H 0.59694 0.88277 0.36942 0.0
H313 H 0.52018 0.91956 0.34465 0.0
H314 H 0.5649 1.05245 0.44041 0.0
H315 H 0.64083 1.01425 0.4661 0.0
H316 H 0.9921 0.91767 0.40809 0.0
H317 H 0.11634 0.97862 0.41255 0.0
H318 H 0.11898 0.81933 0.3472 0.0
H319 H 0.99609 0.75885 0.3436 0.0
Sm320 Sm 0.32433 0.92101 0.40861 0.0
Sm321 Sm 0.35848 1.04056 0.38574 0.0
C322 C 0.2719 0.79769 0.43784 0.0
C323 C 0.24281 0.7294 0.42028 0.0
C324 C 0.26617 0.72097 0.38489 0.0
C325 C 0.24393 0.65598 0.37028 0.0
C326 C 0.19702 0.59787 0.39037 0.0
C327 C 0.16904 0.60662 0.42396 0.0
C328 C 0.19201 0.67179 0.43893 0.0
C329 C 0.42079 1.04347 0.46139 0.0
C330 C 0.47223 0.98834 0.38462 0.0
C331 C 0.39506 0.16969 0.37792 0.0
C332 C 0.35365 0.20237 0.37602 0.0
C333 C 0.29018 0.17369 0.39438 0.0
C334 C 0.25519 0.20953 0.39684 0.0
C335 C 0.28344 0.27429 0.38091 0.0
C336 C 0.3448 0.30054 0.3605 0.0
C337 C 0.37962 0.26502 0.35821 0.0
C338 C 0.31426 0.9613 0.32226 0.0
C339 C 0.20046 0.93193 0.38759 0.0
O340 O 0.33729 0.83866 0.43375 0.0
O341 O 0.23696 0.82839 0.43312 0.0
O342 O 0.36067 1.0129 0.44745 0.0
O343 O 0.35896 1.01355 0.44784 0.0
O344 O 0.41892 0.92823 0.38592 0.0
O345 O 0.46455 1.04254 0.38675 0.0
O346 O 0.39289 0.14166 0.41034 0.0
O347 O 0.39184 0.13216 0.34919 0.0
O348 O 0.35145 0.95641 0.34735 0.0
O349 O 0.29557 1.00423 0.33176 0.0
O350 O 0.24248 0.99442 0.39891 0.0
O351 O 0.22547 0.89294 0.38108 0.0
H352 H 0.30429 0.76449 0.36943 0.0
H353 H 0.26749 0.65094 0.3447 0.0
H354 H 0.13437 0.56284 0.44038 0.0
H355 H 0.17257 0.67697 0.46603 0.0
H356 H 0.26901 0.12482 0.40814 0.0
H357 H 0.20806 0.18807 0.41253 0.0
H358 H 0.36752 0.34999 0.34724 0.0
H359 H 0.42801 0.28761 0.34372 0.0
Sm360 Sm 0.81562 0.90374 0.19612 0.0
Sm361 Sm 0.73033 0.78436 0.2189 0.0
C362 C 0.8865 1.02708 0.16691 0.0
C363 C 0.92567 0.09539 0.18445 0.0
C364 C 0.9574 0.10387 0.21987 0.0
C365 C 1.00016 0.16889 0.23445 0.0
C366 C 1.01142 0.22697 0.21431 0.0
C367 C 0.97471 0.21814 0.18071 0.0
C368 C 0.9325 0.15295 0.16575 0.0
C369 C 0.78974 0.78141 0.1433 0.0
C370 C 0.89627 0.83652 0.22011 0.0
C371 C 0.63782 0.65519 0.22669 0.0
C372 C 0.56372 0.62247 0.22861 0.0
C373 C 0.5289 0.65115 0.21029 0.0
C374 C 0.45806 0.61529 0.20785 0.0
C375 C 0.42156 0.5505 0.22375 0.0
C376 C 0.45671 0.52425 0.24412 0.0
C377 C 0.52707 0.55979 0.24639 0.0
C378 C 0.76521 0.8634 0.28243 0.0
C379 C 0.68086 0.89286 0.21706 0.0
O380 O 0.91097 0.98618 0.17103 0.0
O381 O 0.82084 0.99633 0.17162 0.0
O382 O 0.76018 0.81198 0.15719 0.0
O383 O 0.75777 0.81135 0.15673 0.0
O384 O 0.90306 0.89661 0.2188 0.0
O385 O 0.83437 0.78233 0.21795 0.0
O386 O 0.66363 0.68326 0.19428 0.0
O387 O 0.67215 0.69271 0.25542 0.0
O388 O 0.80739 0.86841 0.25737 0.0
O389 O 0.70358 0.8205 0.27291 0.0
O390 O 0.6604 0.8304 0.2057 0.0
O391 O 0.74485 0.93181 0.22364 0.0
H392 H 0.95198 0.06038 0.23536 0.0
H393 H 1.02874 0.17396 0.26005 0.0
H394 H 0.98384 0.26188 0.16424 0.0
H395 H 0.9079 0.14772 0.13864 0.0
H396 H 0.55659 0.70005 0.19655 0.0
H397 H 0.43235 0.63675 0.1922 0.0
H398 H 0.43 0.47478 0.25735 0.0
H399 H 0.55289 0.5372 0.26085 0.0
Sm400 Sm 0.28306 0.9622 0.19614 0.0
Sm401 Sm 0.40247 0.99639 0.21893 0.0
C402 C 0.15965 0.90964 0.16693 0.0
C403 C 0.09138 0.8806 0.18451 0.0
C404 C 1.08301 0.90403 0.21989 0.0
C405 C 1.01802 0.88186 0.2345 0.0
C406 C 0.95987 0.83494 0.21442 0.0
C407 C 0.96856 0.80687 0.18086 0.0
C408 C 1.03373 0.82977 0.16588 0.0
C409 C 0.40537 0.05861 0.1433 0.0
C410 C 0.35022 0.11006 0.22006 0.0
C411 C 0.5317 1.03309 0.22675 0.0
C412 C 0.5644 0.99171 0.22859 0.0
C413 C 0.53573 0.92833 0.21015 0.0
C414 C 0.57155 0.89332 0.20769 0.0
C415 C 0.63628 0.92147 0.2237 0.0
C416 C 0.66251 0.98274 0.24419 0.0
C417 C 0.62701 1.01758 0.24647 0.0
C418 C 0.32345 0.9523 0.28246 0.0
C419 C 0.29398 0.83841 0.21711 0.0
O420 O 0.20061 0.97503 0.17098 0.0
O421 O 0.1904 0.87476 0.1717 0.0
O422 O 0.37481 0.9985 0.15721 0.0
O423 O 0.37545 0.99673 0.15675 0.0
O424 O 0.29012 1.05674 0.21876 0.0
O425 O 0.40446 0.10241 0.21794 0.0
O426 O 0.50366 1.03099 0.19433 0.0
O427 O 0.49413 1.02977 0.25548 0.0
O428 O 0.31842 0.98942 0.25739 0.0
O429 O 0.36634 0.93357 0.27295 0.0
O430 O 0.35645 0.88044 0.20573 0.0
O431 O 0.25501 0.86341 0.22369 0.0
H432 H 0.12658 0.94217 0.23533 0.0
H433 H 1.01302 0.90547 0.26006 0.0
H434 H 0.92474 0.77217 0.16446 0.0
H435 H 1.03888 0.81028 0.1388 0.0
H436 H 0.48688 0.90724 0.19634 0.0
H437 H 0.55011 0.84626 0.19195 0.0
H438 H 0.71194 1.00537 0.2575 0.0
H439 H 0.64958 0.06589 0.26103 0.0
Sm440 Sm 0.22452 0.3712 0.19613 0.0
Sm441 Sm 0.19032 0.45648 0.21887 0.0
C442 C 0.27705 0.30031 0.16697 0.0
C443 C 0.30608 0.26106 0.18453 0.0
C444 C 0.2826 0.22917 0.21988 0.0
C445 C 0.30477 0.18635 0.23446 0.0
C446 C 0.35175 0.17521 0.21439 0.0
C447 C 0.37987 0.21205 0.18087 0.0
C448 C 0.35696 0.25432 0.16591 0.0
C449 C 0.12815 0.3971 0.14322 0.0
C450 C 1.07659 0.29058 0.22001 0.0
C451 C 0.1537 0.54903 0.2266 0.0
C452 C 0.19511 0.62311 0.22852 0.0
C453 C 0.25856 0.65788 0.21013 0.0
C454 C 0.29357 0.72871 0.20771 0.0
C455 C 0.26536 0.76522 0.2237 0.0
C456 C 0.20402 0.73011 0.24414 0.0
C457 C 0.16918 0.65978 0.24638 0.0
C458 C 0.23443 0.4216 0.28243 0.0
C459 C 0.34835 0.50592 0.21712 0.0
O460 O 0.21164 0.2759 0.17101 0.0
O461 O 0.31198 0.36593 0.17174 0.0
O462 O 0.18826 0.42664 0.15717 0.0
O463 O 0.19004 0.42905 0.15671 0.0
O464 O 0.12992 0.2838 0.21876 0.0
O465 O 1.08424 0.35244 0.21785 0.0
O466 O 0.15596 0.52317 0.1942 0.0
O467 O 0.15684 0.51472 0.25535 0.0
O468 O 0.19729 0.37944 0.25735 0.0
O469 O 0.25314 0.4832 0.27292 0.0
O470 O 0.30633 0.52635 0.20573 0.0
O471 O 0.32334 0.44197 0.2237 0.0
H472 H 0.24441 0.23452 0.23531 0.0
H473 H 0.28112 0.15767 0.26 0.0
H474 H 0.41461 0.203 0.16446 0.0
H475 H 0.37651 0.27904 0.13885 0.0
H476 H 0.2797 0.63018 0.19633 0.0
H477 H 0.34068 0.75438 0.19201 0.0
H478 H 0.18133 0.75685 0.25744 0.0
H479 H 0.12081 0.634 0.2609 0.0
Sm480 Sm 0.93236 0.78686 0.74193 0.0
Sm481 Sm 0.8129 0.70165 0.71918 0.0
C482 C 1.0558 0.85768 0.77111 0.0
C483 C 0.12408 0.89695 0.75354 0.0
C484 C 0.13246 0.92885 0.7182 0.0
C485 C 0.19745 0.97169 0.70361 0.0
C486 C 0.25562 0.98285 0.72366 0.0
C487 C 0.2469 0.94597 0.75717 0.0
C488 C 0.18173 0.90368 0.77214 0.0
C489 C 0.81011 0.76094 0.79484 0.0
C490 C 0.86512 0.86755 0.71808 0.0
C491 C 0.6837 0.60906 0.7114 0.0
C492 C 0.65106 0.53498 0.70954 0.0
C493 C 0.67968 0.50029 0.72806 0.0
C494 C 0.64392 0.42947 0.73047 0.0
C495 C 0.57929 0.39287 0.71435 0.0
C496 C 0.55311 0.4279 0.69379 0.0
C497 C 0.58856 0.49823 0.69155 0.0
C498 C 0.89193 0.73668 0.6556 0.0
C499 C 0.92144 0.65217 0.72092 0.0
O500 O 1.01482 0.88211 0.76709 0.0
O501 O 1.02508 0.79208 0.76631 0.0
O502 O 0.84066 0.7314 0.78089 0.0
O503 O 0.84003 0.72899 0.78135 0.0
O504 O 0.92523 0.87431 0.71936 0.0
O505 O 0.81089 0.80568 0.72022 0.0
O506 O 0.71176 0.63503 0.7438 0.0
O507 O 0.72121 0.64332 0.68266 0.0
O508 O 0.89689 0.77875 0.6807 0.0
O509 O 0.84905 0.67507 0.66512 0.0
O510 O 0.85899 0.63175 0.73233 0.0
O511 O 0.96039 0.71612 0.71432 0.0
H512 H 0.0889 0.9235 0.70278 0.0
H513 H 0.20245 1.00038 0.67808 0.0
H514 H 0.29071 0.95501 0.77356 0.0
H515 H 0.17657 0.87894 0.79919 0.0
H516 H 0.72845 0.52805 0.74196 0.0
H517 H 0.66531 0.40386 0.74628 0.0
H518 H 0.50377 0.4011 0.68039 0.0
H519 H 0.56602 0.52395 0.67692 0.0
Sm520 Sm 0.39995 0.19588 0.74194 0.0
Sm521 Sm 0.48518 0.16171 0.71915 0.0
C522 C 0.32915 0.24845 0.77116 0.0
C523 C 0.28996 0.27756 0.75361 0.0
C524 C 0.25823 0.2543 0.71819 0.0
C525 C 0.21545 0.27653 0.70361 0.0
C526 C 0.20418 0.32335 0.72374 0.0
C527 C 0.24089 0.35127 0.75734 0.0
C528 C 0.28312 0.32831 0.7723 0.0
C529 C 0.42584 0.09946 0.79477 0.0
C530 C 0.31924 1.04802 0.718 0.0
C531 C 0.57771 0.12505 0.71133 0.0
C532 C 0.65181 0.16645 0.70946 0.0
C533 C 0.68656 0.22984 0.72789 0.0
C534 C 0.75741 0.26486 0.73033 0.0
C535 C 0.79397 0.23671 0.71432 0.0
C536 C 0.75889 0.17542 0.69385 0.0
C537 C 0.68853 0.14057 0.69158 0.0
C538 C 0.45015 0.20578 0.6556 0.0
C539 C 0.5347 0.31968 0.72096 0.0
O540 O 0.30466 0.18307 0.76706 0.0
O541 O 0.39479 0.2833 0.76641 0.0
O542 O 0.4554 0.15957 0.78087 0.0
O543 O 0.45781 0.16134 0.78133 0.0
O544 O 0.31245 0.10132 0.71933 0.0
O545 O 0.38113 1.05568 0.72013 0.0
O546 O 0.55181 0.12717 0.74375 0.0
O547 O 0.54343 0.12835 0.6826 0.0
O548 O 0.40806 0.16864 0.68069 0.0
O549 O 0.51179 0.22451 0.66513 0.0
O550 O 0.55514 0.27767 0.73234 0.0
O551 O 0.47071 0.29467 0.71437 0.0
H552 H 0.26367 0.21622 0.70271 0.0
H553 H 0.18687 0.25302 0.67801 0.0
H554 H 0.23175 0.38588 0.7738 0.0
H555 H 0.30772 0.34769 0.79941 0.0
H556 H 0.65883 0.25093 0.74171 0.0
H557 H 0.78307 0.31193 0.74607 0.0
H558 H 0.78566 0.15279 0.68053 0.0
H559 H 0.66276 0.09225 0.67703 0.0
Sm560 Sm 0.99104 0.25444 0.74194 0.0
Sm561 Sm 1.0252 0.3739 0.7192 0.0
C562 C 0.93852 0.13106 0.77111 0.0
C563 C 0.9094 0.06275 0.75357 0.0
C564 C 0.93274 1.05426 0.71819 0.0
C565 C 0.9105 0.98924 0.70364 0.0
C566 C 0.8636 0.93118 0.72376 0.0
C567 C 0.83563 0.93998 0.75733 0.0
C568 C 0.8586 1.00518 0.77226 0.0
C569 C 0.08742 0.3767 0.79485 0.0
C570 C 0.13898 0.32178 0.71805 0.0
C571 C 1.06177 0.50305 0.71147 0.0
C572 C 1.02035 0.53572 0.70954 0.0
C573 C 0.95689 0.50707 0.72791 0.0
C574 C 0.92187 0.54289 0.73032 0.0
C575 C 0.95008 0.6076 0.71433 0.0
C576 C 1.01143 0.63381 0.69391 0.0
C577 C 1.04628 0.59832 0.69168 0.0
C578 C 0.98113 0.29486 0.65563 0.0
C579 C 0.86719 0.26534 0.72095 0.0
O580 O 1.00392 0.17199 0.76702 0.0
O581 O 0.90361 0.16178 0.76637 0.0
O582 O 1.0273 0.34614 0.7809 0.0
O583 O 1.02553 0.34677 0.78136 0.0
O584 O 0.08568 0.26167 0.71932 0.0
O585 O 0.1313 0.37597 0.72022 0.0
O586 O 1.05951 0.47494 0.74387 0.0
O587 O 1.05865 0.4656 0.68272 0.0
O588 O 1.01829 0.28992 0.68072 0.0
O589 O 0.96241 0.33775 0.66516 0.0
O590 O 0.90919 0.32778 0.73235 0.0
O591 O 0.89222 0.2264 0.71436 0.0
H592 H 0.97086 0.09775 0.70272 0.0
H593 H 0.93405 0.98415 0.67806 0.0
H594 H 0.80097 0.89624 0.77378 0.0
H595 H 0.83918 1.01042 0.79935 0.0
H596 H 0.93574 0.45823 0.74172 0.0
H597 H 0.87475 0.52146 0.74602 0.0
H598 H 1.03412 0.68322 0.68061 0.0
H599 H 0.09466 0.62089 0.67717 0.0
Sm600 Sm 0.48229 0.23701 0.52949 0.0
Sm601 Sm 0.39701 0.11762 0.55225 0.0
C602 C 0.55313 0.36038 0.50029 0.0
C603 C 0.59229 0.42869 0.51782 0.0
C604 C 0.62402 0.4372 0.55324 0.0
C605 C 0.66678 0.50222 0.56781 0.0
C606 C 0.67803 0.56029 0.54766 0.0
C607 C 0.64132 0.55144 0.51405 0.0
C608 C 0.59911 0.48624 0.49911 0.0
C609 C 0.45641 0.11473 0.47664 0.0
C610 C 0.56295 0.16978 0.55343 0.0
C611 C 0.30447 0.98846 0.56001 0.0
C612 C 0.23037 0.95574 0.56194 0.0
C613 C 0.19555 0.98441 0.54361 0.0
C614 C 0.1247 0.94857 0.54119 0.0
C615 C 0.0882 0.88381 0.55713 0.0
C616 C 0.12335 0.85757 0.57751 0.0
C617 C 0.19372 0.8931 0.57975 0.0
C618 C 0.43195 0.19659 0.6158 0.0
C619 C 0.34755 0.22614 0.55047 0.0
O620 O 0.57763 0.31949 0.50441 0.0
O621 O 0.48747 0.3296 0.50501 0.0
O622 O 0.42685 0.14529 0.49054 0.0
O623 O 0.42444 0.14465 0.49008 0.0
O624 O 0.56975 0.22988 0.55213 0.0
O625 O 0.50105 0.11559 0.55128 0.0
O626 O 0.33029 1.01655 0.5276 0.0
O627 O 0.33881 1.02595 0.58875 0.0
O628 O 0.47411 0.20163 0.59073 0.0
O629 O 0.37031 0.15373 0.60628 0.0
O630 O 0.32709 0.16369 0.53908 0.0
O631 O 0.41154 0.26507 0.55706 0.0
H632 H 0.6186 0.39372 0.56874 0.0
H633 H 0.69536 0.50732 0.59341 0.0
H634 H 0.65045 0.59517 0.49757 0.0
H635 H 0.57451 0.48099 0.47199 0.0
H636 H 0.22324 1.03329 0.52985 0.0
H637 H 0.09899 0.97002 0.52553 0.0
H638 H 0.09664 0.80813 0.59077 0.0
H639 H 0.21954 0.87051 0.59422 0.0
Sm640 Sm 0.9498 0.29556 0.52951 0.0
Sm641 Sm 1.06922 0.32977 0.55227 0.0
C642 C 0.82637 0.24294 0.50031 0.0
C643 C 0.75809 0.21389 0.51788 0.0
C644 C 0.7497 0.2373 0.55326 0.0
C645 C 0.6847 0.21511 0.56785 0.0
C646 C 0.62656 0.1682 0.54776 0.0
C647 C 0.63527 0.14015 0.5142 0.0
C648 C 0.70045 0.16306 0.49923 0.0
C649 C 1.07206 0.39192 0.47664 0.0
C650 C 1.01696 0.44344 0.55339 0.0
C651 C 0.19844 0.36645 0.56006 0.0
C652 C 0.23113 0.32505 0.56192 0.0
C653 C 0.20247 0.26167 0.54348 0.0
C654 C 0.23827 0.22664 0.54105 0.0
C655 C 0.30298 0.25477 0.55708 0.0
C656 C 0.32921 0.31604 0.57757 0.0
C657 C 0.29372 0.3509 0.57982 0.0
C658 C 0.99027 0.28581 0.61584 0.0
C659 C 0.96072 0.17179 0.55051 0.0
O660 O 0.8673 0.30833 0.50435 0.0
O661 O 0.85713 0.20808 0.50509 0.0
O662 O 1.04152 0.33183 0.49056 0.0
O663 O 1.04215 0.33005 0.4901 0.0
O664 O 0.95686 0.39012 0.55208 0.0
O665 O 1.0712 0.4358 0.55127 0.0
O666 O 0.17038 0.36432 0.52766 0.0
O667 O 0.16091 0.36317 0.5888 0.0
O668 O 0.98521 0.32288 0.59075 0.0
O669 O 1.03312 0.26703 0.60632 0.0
O670 O 1.02317 0.21381 0.53911 0.0
O671 O 0.92177 0.1968 0.55711 0.0
H672 H 0.79325 0.27543 0.5687 0.0
H673 H 0.67968 0.23872 0.59342 0.0
H674 H 0.59147 0.10546 0.49779 0.0
H675 H 0.70562 0.14358 0.47215 0.0
H676 H 0.15364 0.2406 0.52965 0.0
H677 H 0.21684 0.17959 0.5253 0.0
H678 H 0.37861 0.33865 0.5909 0.0
H679 H 0.31629 0.39921 0.59439 0.0
Sm680 Sm 0.89117 0.70454 0.5295 0.0
Sm681 Sm 0.85694 0.7898 0.55222 0.0
C682 C 0.94374 0.63369 0.50035 0.0
C683 C 0.9728 0.59445 0.51791 0.0
C684 C 0.94932 0.56253 0.55325 0.0
C685 C 0.97151 0.51972 0.56781 0.0
C686 C 1.01849 0.50859 0.54774 0.0
C687 C 1.0466 0.54545 0.51421 0.0
C688 C 1.02368 0.58772 0.49927 0.0
C689 C 0.79484 0.73043 0.47656 0.0
C690 C 0.74321 0.62391 0.55335 0.0
C691 C 0.82036 0.88239 0.55993 0.0
C692 C 0.86178 0.95647 0.56185 0.0
C693 C 0.92522 0.99124 0.54345 0.0
C694 C 0.96025 0.06207 0.54106 0.0
C695 C 0.93208 0.09859 0.55708 0.0
C696 C 0.87075 0.06348 0.57753 0.0
C697 C 0.83588 0.99315 0.57974 0.0
C698 C 0.90093 0.75488 0.61581 0.0
C699 C 1.01498 0.83924 0.55052 0.0
O700 O 0.87833 0.60925 0.50439 0.0
O701 O 0.97865 0.6993 0.50513 0.0
O702 O 0.85494 0.75998 0.49052 0.0
O703 O 0.85671 0.76238 0.49007 0.0
O704 O 0.79653 0.61713 0.5521 0.0
O705 O 0.75086 0.68577 0.55118 0.0
O706 O 0.82263 0.85652 0.52753 0.0
O707 O 0.82345 0.84806 0.58868 0.0
O708 O 0.86384 0.71273 0.59072 0.0
O709 O 0.91969 0.81649 0.60629 0.0
O710 O 0.97297 0.85967 0.5391 0.0
O711 O 0.98995 0.77529 0.55712 0.0
H712 H 0.91113 0.56787 0.56868 0.0
H713 H 0.94786 0.49102 0.59335 0.0
H714 H 1.08134 0.53642 0.4978 0.0
H715 H 1.04321 0.61246 0.47222 0.0
H716 H 0.94634 0.96354 0.52962 0.0
H717 H 1.00736 0.08774 0.52535 0.0
H718 H 0.84809 0.09022 0.59085 0.0
H719 H 0.78753 0.96736 0.59427 0.0
loop_
_geom_bond_atom_site_label_1
_geom_bond_atom_site_label_2
_geom_bond_distance
_geom_bond_site_symmetry_2
_ccdc_geom_bond_type
Sm0 C2 2.846 . S
Sm0 O20 2.543 . S
Sm0 O21 2.450 . S
Sm0 O22 2.681 1_545 S
Sm0 O23 2.464 . S
Sm0 O24 2.396 . S
Sm0 O28 2.386 . S
Sm0 O31 2.408 1_545 S
Sm1 C11 2.846 . S
Sm1 O22 2.386 . S
Sm1 O25 2.408 1_565 S
Sm1 O26 2.543 . S
Sm1 O27 2.450 . S
Sm1 O28 2.681 1_565 S
Sm1 O29 2.464 . S
Sm1 O30 2.396 . S
C2 Sm0 2.846 . S
C2 C3 1.506 . S
C2 O20 1.261 . S
C2 O21 1.242 . S
C3 C2 1.506 . S
C3 C4 1.358 . S
C3 C8 1.382 . S
C4 C3 1.358 . S
C4 C5 1.385 . S
C4 H32 0.930 . S
C5 C4 1.385 . S
C5 C6 1.395 . S
C5 H33 0.929 . S
C6 C5 1.395 . S
C6 C7 1.335 . S
C7 C6 1.335 . S
C7 C8 1.398 . S
C7 H34 0.930 . S
C8 C3 1.382 . S
C8 C7 1.398 . S
C8 H35 0.929 . S
C9 O22 1.271 1_545 S
C9 O23 1.251 . S
C10 O24 1.252 . S
C10 O25 1.272 . S
C11 Sm1 2.846 . S
C11 C12 1.506 . S
C11 O26 1.261 . S
C11 O27 1.242 . S
C12 C11 1.506 . S
C12 C13 1.358 . S
C12 C17 1.382 . S
C13 C12 1.358 . S
C13 C14 1.385 . S
C13 H36 0.930 . S
C14 C13 1.385 . S
C14 C15 1.395 . S
C14 H37 0.929 . S
C15 C14 1.395 . S
C15 C16 1.335 . S
C16 C15 1.335 . S
C16 C17 1.398 . S
C16 H38 0.930 . S
C17 C12 1.382 . S
C17 C16 1.398 . S
C17 H39 0.929 . S
C18 O28 1.271 . S
C18 O29 1.251 1_545 S
C19 O30 1.252 . S
C19 O31 1.272 . S
O20 Sm0 2.543 . S
O20 C2 1.261 . S
O21 Sm0 2.450 . S
O21 C2 1.242 . S
O22 Sm0 2.681 1_565 S
O22 Sm1 2.386 . S
O22 C9 1.271 1_565 S
O23 Sm0 2.464 . S
O23 C9 1.251 . S
O24 Sm0 2.396 . S
O24 C10 1.252 . S
O25 Sm1 2.408 1_545 S
O25 C10 1.272 . S
O26 Sm1 2.543 . S
O26 C11 1.261 . S
O27 Sm1 2.450 . S
O27 C11 1.242 . S
O28 Sm0 2.386 . S
O28 Sm1 2.681 1_545 S
O28 C18 1.271 . S
O29 Sm1 2.464 . S
O29 C18 1.251 1_565 S
O30 Sm1 2.396 . S
O30 C19 1.252 . S
O31 Sm0 2.408 1_565 S
O31 C19 1.272 . S
H32 C4 0.930 . S
H33 C5 0.929 . S
H34 C7 0.930 . S
H35 C8 0.929 . S
H36 C13 0.930 . S
H37 C14 0.929 . S
H38 C16 0.930 . S
H39 C17 0.929 . S
Sm40 C42 2.846 . S
Sm40 O60 2.543 . S
Sm40 O61 2.450 . S
Sm40 O62 2.681 1_655 S
Sm40 O63 2.464 1_655 S
Sm40 O64 2.396 . S
Sm40 O68 2.386 1_655 S
Sm40 O71 2.408 1_655 S
Sm41 C51 2.846 . S
Sm41 O62 2.386 . S
Sm41 O65 2.408 1_455 S
Sm41 O66 2.543 . S
Sm41 O67 2.450 . S
Sm41 O68 2.681 . S
Sm41 O69 2.464 . S
Sm41 O70 2.396 . S
C42 Sm40 2.846 . S
C42 C43 1.506 . S
C42 O60 1.261 . S
C42 O61 1.242 . S
C43 C42 1.506 . S
C43 C44 1.358 . S
C43 C48 1.382 . S
C44 C43 1.358 . S
C44 C45 1.385 . S
C44 H72 0.930 . S
C45 C44 1.385 . S
C45 C46 1.395 . S
C45 H73 0.929 . S
C46 C45 1.395 . S
C46 C47 1.335 . S
C47 C46 1.335 . S
C47 C48 1.398 . S
C47 H74 0.930 . S
C48 C43 1.382 . S
C48 C47 1.398 . S
C48 H75 0.929 . S
C49 O62 1.271 . S
C49 O63 1.251 . S
C50 O64 1.252 . S
C50 O65 1.272 . S
C51 Sm41 2.846 . S
C51 C52 1.506 . S
C51 O66 1.261 . S
C51 O67 1.242 . S
C52 C51 1.506 . S
C52 C53 1.358 . S
C52 C57 1.382 . S
C53 C52 1.358 . S
C53 C54 1.385 . S
C53 H76 0.930 . S
C54 C53 1.385 . S
C54 C55 1.395 . S
C54 H77 0.929 . S
C55 C54 1.395 . S
C55 C56 1.335 . S
C56 C55 1.335 . S
C56 C57 1.398 . S
C56 H78 0.930 . S
C57 C52 1.382 . S
C57 C56 1.398 . S
C57 H79 0.929 . S
C58 O68 1.271 . S
C58 O69 1.251 . S
C59 O70 1.252 . S
C59 O71 1.272 . S
O60 Sm40 2.543 . S
O60 C42 1.261 . S
O61 Sm40 2.450 . S
O61 C42 1.242 . S
O62 Sm40 2.681 1_455 S
O62 Sm41 2.386 . S
O62 C49 1.271 . S
O63 Sm40 2.464 1_455 S
O63 C49 1.251 . S
O64 Sm40 2.396 . S
O64 C50 1.252 . S
O65 Sm41 2.408 1_655 S
O65 C50 1.272 . S
O66 Sm41 2.543 . S
O66 C51 1.261 . S
O67 Sm41 2.450 . S
O67 C51 1.242 . S
O68 Sm40 2.386 1_455 S
O68 Sm41 2.681 . S
O68 C58 1.271 . S
O69 Sm41 2.464 . S
O69 C58 1.251 . S
O70 Sm41 2.396 . S
O70 C59 1.252 . S
O71 Sm40 2.408 1_455 S
O71 C59 1.272 . S
H72 C44 0.930 . S
H73 C45 0.929 . S
H74 C47 0.930 . S
H75 C48 0.929 . S
H76 C53 0.930 . S
H77 C54 0.929 . S
H78 C56 0.930 . S
H79 C57 0.929 . S
Sm80 C82 2.846 . S
Sm80 O100 2.543 . S
Sm80 O101 2.450 . S
Sm80 O102 2.681 . S
Sm80 O103 2.464 . S
Sm80 O104 2.396 . S
Sm80 O108 2.386 . S
Sm80 O111 2.408 . S
Sm81 C91 2.846 . S
Sm81 O102 2.386 . S
Sm81 O105 2.408 . S
Sm81 O106 2.543 . S
Sm81 O107 2.450 . S
Sm81 O108 2.681 . S
Sm81 O109 2.464 . S
Sm81 O110 2.396 . S
C82 Sm80 2.846 . S
C82 C83 1.506 . S
C82 O100 1.261 . S
C82 O101 1.242 . S
C83 C82 1.506 . S
C83 C84 1.358 . S
C83 C88 1.382 . S
C84 C83 1.358 . S
C84 C85 1.385 . S
C84 H112 0.930 . S
C85 C84 1.385 . S
C85 C86 1.395 . S
C85 H113 0.929 . S
C86 C85 1.395 . S
C86 C87 1.335 . S
C87 C86 1.335 . S
C87 C88 1.398 . S
C87 H114 0.930 . S
C88 C83 1.382 . S
C88 C87 1.398 . S
C88 H115 0.929 . S
C89 O102 1.271 . S
C89 O103 1.251 . S
C90 O104 1.252 . S
C90 O105 1.272 . S
C91 Sm81 2.846 . S
C91 C92 1.506 . S
C91 O106 1.261 . S
C91 O107 1.242 . S
C92 C91 1.506 . S
C92 C93 1.358 . S
C92 C97 1.382 . S
C93 C92 1.358 . S
C93 C94 1.385 . S
C93 H116 0.930 . S
C94 C93 1.385 . S
C94 C95 1.395 . S
C94 H117 0.929 . S
C95 C94 1.395 . S
C95 C96 1.335 . S
C96 C95 1.335 . S
C96 C97 1.398 . S
C96 H118 0.930 . S
C97 C92 1.382 . S
C97 C96 1.398 . S
C97 H119 0.929 . S
C98 O108 1.271 . S
C98 O109 1.251 . S
C99 O110 1.252 . S
C99 O111 1.272 . S
O100 Sm80 2.543 . S
O100 C82 1.261 . S
O101 Sm80 2.450 . S
O101 C82 1.242 . S
O102 Sm80 2.681 . S
O102 Sm81 2.386 . S
O102 C89 1.271 . S
O103 Sm80 2.464 . S
O103 C89 1.251 . S
O104 Sm80 2.396 . S
O104 C90 1.252 . S
O105 Sm81 2.408 . S
O105 C90 1.272 . S
O106 Sm81 2.543 . S
O106 C91 1.261 . S
O107 Sm81 2.450 . S
O107 C91 1.242 . S
O108 Sm80 2.386 . S
O108 Sm81 2.681 . S
O108 C98 1.271 . S
O109 Sm81 2.464 . S
O109 C98 1.251 . S
O110 Sm81 2.396 . S
O110 C99 1.252 . S
O111 Sm80 2.408 . S
O111 C99 1.272 . S
H112 C84 0.930 . S
H113 C85 0.929 . S
H114 C87 0.930 . S
H115 C88 0.929 . S
H116 C93 0.930 . S
H117 C94 0.929 . S
H118 C96 0.930 . S
H119 C97 0.929 . S
Sm120 C122 2.846 . S
Sm120 O140 2.543 . S
Sm120 O141 2.450 . S
Sm120 O142 2.681 1_455 S
Sm120 O143 2.464 . S
Sm120 O144 2.396 . S
Sm120 O148 2.386 . S
Sm120 O151 2.408 1_455 S
Sm121 C131 2.846 . S
Sm121 O142 2.386 . S
Sm121 O145 2.408 1_655 S
Sm121 O146 2.543 . S
Sm121 O147 2.450 . S
Sm121 O148 2.681 1_655 S
Sm121 O149 2.464 . S
Sm121 O150 2.396 . S
C122 Sm120 2.846 . S
C122 C123 1.506 . S
C122 O140 1.261 . S
C122 O141 1.242 . S
C123 C122 1.506 . S
C123 C124 1.358 . S
C123 C128 1.382 . S
C124 C123 1.358 . S
C124 C125 1.385 . S
C124 H152 0.930 . S
C125 C124 1.385 . S
C125 C126 1.395 . S
C125 H153 0.929 . S
C126 C125 1.395 . S
C126 C127 1.335 . S
C127 C126 1.335 . S
C127 C128 1.398 . S
C127 H154 0.930 . S
C128 C123 1.382 . S
C128 C127 1.398 . S
C128 H155 0.929 . S
C129 O142 1.271 1_455 S
C129 O143 1.251 . S
C130 O144 1.252 . S
C130 O145 1.272 . S
C131 Sm121 2.846 . S
C131 C132 1.506 . S
C131 O146 1.261 . S
C131 O147 1.242 . S
C132 C131 1.506 . S
C132 C133 1.358 . S
C132 C137 1.382 . S
C133 C132 1.358 . S
C133 C134 1.385 . S
C133 H156 0.930 . S
C134 C133 1.385 . S
C134 C135 1.395 . S
C134 H157 0.929 . S
C135 C134 1.395 . S
C135 C136 1.335 . S
C136 C135 1.335 . S
C136 C137 1.398 . S
C136 H158 0.930 . S
C137 C132 1.382 . S
C137 C136 1.398 . S
C137 H159 0.929 . S
C138 O148 1.271 . S
C138 O149 1.251 1_455 S
C139 O150 1.252 . S
C139 O151 1.272 . S
O140 Sm120 2.543 . S
O140 C122 1.261 . S
O141 Sm120 2.450 . S
O141 C122 1.242 . S
O142 Sm120 2.681 1_655 S
O142 Sm121 2.386 . S
O142 C129 1.271 1_655 S
O143 Sm120 2.464 . S
O143 C129 1.251 . S
O144 Sm120 2.396 . S
O144 C130 1.252 . S
O145 Sm121 2.408 1_455 S
O145 C130 1.272 . S
O146 Sm121 2.543 . S
O146 C131 1.261 . S
O147 Sm121 2.450 . S
O147 C131 1.242 . S
O148 Sm120 2.386 . S
O148 Sm121 2.681 1_455 S
O148 C138 1.271 . S
O149 Sm121 2.464 . S
O149 C138 1.251 1_655 S
O150 Sm121 2.396 . S
O150 C139 1.252 . S
O151 Sm120 2.408 1_655 S
O151 C139 1.272 . S
H152 C124 0.930 . S
H153 C125 0.929 . S
H154 C127 0.930 . S
H155 C128 0.929 . S
H156 C133 0.930 . S
H157 C134 0.929 . S
H158 C136 0.930 . S
H159 C137 0.929 . S
Sm160 C162 2.846 . S
Sm160 O180 2.543 . S
Sm160 O181 2.450 . S
Sm160 O182 2.681 . S
Sm160 O183 2.464 . S
Sm160 O184 2.396 . S
Sm160 O188 2.386 . S
Sm160 O191 2.408 . S
Sm161 C171 2.846 . S
Sm161 O182 2.386 . S
Sm161 O185 2.408 . S
Sm161 O186 2.543 . S
Sm161 O187 2.450 . S
Sm161 O188 2.681 . S
Sm161 O189 2.464 . S
Sm161 O190 2.396 . S
C162 Sm160 2.846 . S
C162 C163 1.506 . S
C162 O180 1.261 . S
C162 O181 1.242 . S
C163 C162 1.506 . S
C163 C164 1.358 . S
C163 C168 1.382 . S
C164 C163 1.358 . S
C164 C165 1.385 . S
C164 H192 0.930 . S
C165 C164 1.385 . S
C165 C166 1.395 . S
C165 H193 0.929 . S
C166 C165 1.395 . S
C166 C167 1.335 . S
C167 C166 1.335 . S
C167 C168 1.398 . S
C167 H194 0.930 . S
C168 C163 1.382 . S
C168 C167 1.398 . S
C168 H195 0.929 . S
C169 O182 1.271 . S
C169 O183 1.251 . S
C170 O184 1.252 . S
C170 O185 1.272 . S
C171 Sm161 2.846 . S
C171 C172 1.506 . S
C171 O186 1.261 . S
C171 O187 1.242 . S
C172 C171 1.506 . S
C172 C173 1.358 . S
C172 C177 1.382 . S
C173 C172 1.358 . S
C173 C174 1.385 . S
C173 H196 0.930 . S
C174 C173 1.385 . S
C174 C175 1.395 . S
C174 H197 0.929 . S
C175 C174 1.395 . S
C175 C176 1.335 . S
C176 C175 1.335 . S
C176 C177 1.398 . S
C176 H198 0.930 . S
C177 C172 1.382 . S
C177 C176 1.398 . S
C177 H199 0.929 . S
C178 O188 1.271 . S
C178 O189 1.251 . S
C179 O190 1.252 . S
C179 O191 1.272 . S
O180 Sm160 2.543 . S
O180 C162 1.261 . S
O181 Sm160 2.450 . S
O181 C162 1.242 . S
O182 Sm160 2.681 . S
O182 Sm161 2.386 . S
O182 C169 1.271 . S
O183 Sm160 2.464 . S
O183 C169 1.251 . S
O184 Sm160 2.396 . S
O184 C170 1.252 . S
O185 Sm161 2.408 . S
O185 C170 1.272 . S
O186 Sm161 2.543 . S
O186 C171 1.261 . S
O187 Sm161 2.450 . S
O187 C171 1.242 . S
O188 Sm160 2.386 . S
O188 Sm161 2.681 . S
O188 C178 1.271 . S
O189 Sm161 2.464 . S
O189 C178 1.251 . S
O190 Sm161 2.396 . S
O190 C179 1.252 . S
O191 Sm160 2.408 . S
O191 C179 1.272 . S
H192 C164 0.930 . S
H193 C165 0.929 . S
H194 C167 0.930 . S
H195 C168 0.929 . S
H196 C173 0.930 . S
H197 C174 0.929 . S
H198 C176 0.930 . S
H199 C177 0.929 . S
Sm200 C202 2.846 . S
Sm200 O220 2.543 . S
Sm200 O221 2.450 . S
Sm200 O222 2.681 1_565 S
Sm200 O223 2.464 1_565 S
Sm200 O224 2.396 . S
Sm200 O228 2.386 1_565 S
Sm200 O231 2.408 1_565 S
Sm201 C211 2.846 . S
Sm201 O222 2.386 . S
Sm201 O225 2.408 1_545 S
Sm201 O226 2.543 . S
Sm201 O227 2.450 . S
Sm201 O228 2.681 . S
Sm201 O229 2.464 . S
Sm201 O230 2.396 . S
C202 Sm200 2.846 . S
C202 C203 1.506 . S
C202 O220 1.261 . S
C202 O221 1.242 . S
C203 C202 1.506 . S
C203 C204 1.358 . S
C203 C208 1.382 . S
C204 C203 1.358 . S
C204 C205 1.385 . S
C204 H232 0.930 . S
C205 C204 1.385 . S
C205 C206 1.395 . S
C205 H233 0.929 . S
C206 C205 1.395 . S
C206 C207 1.335 . S
C207 C206 1.335 . S
C207 C208 1.398 . S
C207 H234 0.930 . S
C208 C203 1.382 . S
C208 C207 1.398 . S
C208 H235 0.929 . S
C209 O222 1.271 . S
C209 O223 1.251 . S
C210 O224 1.252 . S
C210 O225 1.272 . S
C211 Sm201 2.846 . S
C211 C212 1.506 . S
C211 O226 1.261 . S
C211 O227 1.242 . S
C212 C211 1.506 . S
C212 C213 1.358 . S
C212 C217 1.382 . S
C213 C212 1.358 . S
C213 C214 1.385 . S
C213 H236 0.930 . S
C214 C213 1.385 . S
C214 C215 1.395 . S
C214 H237 0.929 . S
C215 C214 1.395 . S
C215 C216 1.335 . S
C216 C215 1.335 . S
C216 C217 1.398 . S
C216 H238 0.930 . S
C217 C212 1.382 . S
C217 C216 1.398 . S
C217 H239 0.929 . S
C218 O228 1.271 . S
C218 O229 1.251 . S
C219 O230 1.252 . S
C219 O231 1.272 . S
O220 Sm200 2.543 . S
O220 C202 1.261 . S
O221 Sm200 2.450 . S
O221 C202 1.242 . S
O222 Sm200 2.681 1_545 S
O222 Sm201 2.386 . S
O222 C209 1.271 . S
O223 Sm200 2.464 1_545 S
O223 C209 1.251 . S
O224 Sm200 2.396 . S
O224 C210 1.252 . S
O225 Sm201 2.408 1_565 S
O225 C210 1.272 . S
O226 Sm201 2.543 . S
O226 C211 1.261 . S
O227 Sm201 2.450 . S
O227 C211 1.242 . S
O228 Sm200 2.386 1_545 S
O228 Sm201 2.681 . S
O228 C218 1.271 . S
O229 Sm201 2.464 . S
O229 C218 1.251 . S
O230 Sm201 2.396 . S
O230 C219 1.252 . S
O231 Sm200 2.408 1_545 S
O231 C219 1.272 . S
H232 C204 0.930 . S
H233 C205 0.929 . S
H234 C207 0.930 . S
H235 C208 0.929 . S
H236 C213 0.930 . S
H237 C214 0.929 . S
H238 C216 0.930 . S
H239 C217 0.929 . S
Sm240 C242 2.846 . S
Sm240 O260 2.543 . S
Sm240 O261 2.450 . S
Sm240 O262 2.681 . S
Sm240 O263 2.464 . S
Sm240 O264 2.396 . S
Sm240 O268 2.386 . S
Sm240 O271 2.408 . S
Sm241 C251 2.846 1_455 S
Sm241 O262 2.386 . S
Sm241 O265 2.408 . S
Sm241 O266 2.543 1_455 S
Sm241 O267 2.450 1_455 S
Sm241 O268 2.681 . S
Sm241 O269 2.464 . S
Sm241 O270 2.396 . S
C242 Sm240 2.846 . S
C242 C243 1.506 . S
C242 O260 1.261 . S
C242 O261 1.242 . S
C243 C242 1.506 . S
C243 C244 1.358 . S
C243 C248 1.382 . S
C244 C243 1.358 . S
C244 C245 1.385 . S
C244 H272 0.930 . S
C245 C244 1.385 . S
C245 C246 1.395 . S
C245 H273 0.929 . S
C246 C245 1.395 . S
C246 C247 1.335 . S
C247 C246 1.335 . S
C247 C248 1.398 . S
C247 H274 0.930 . S
C248 C243 1.382 . S
C248 C247 1.398 . S
C248 H275 0.929 . S
C249 O262 1.271 . S
C249 O263 1.251 . S
C250 O264 1.252 . S
C250 O265 1.272 . S
C251 Sm241 2.846 1_655 S
C251 C252 1.506 . S
C251 O266 1.261 . S
C251 O267 1.242 . S
C252 C251 1.506 . S
C252 C253 1.358 . S
C252 C257 1.382 . S
C253 C252 1.358 . S
C253 C254 1.385 . S
C253 H276 0.930 . S
C254 C253 1.385 . S
C254 C255 1.395 1_545 S
C254 H277 0.929 1_545 S
C255 C254 1.395 1_565 S
C255 C256 1.335 1_565 S
C256 C255 1.335 1_545 S
C256 C257 1.398 . S
C256 H278 0.930 . S
C257 C252 1.382 . S
C257 C256 1.398 . S
C257 H279 0.929 . S
C258 O268 1.271 . S
C258 O269 1.251 . S
C259 O270 1.252 . S
C259 O271 1.272 . S
O260 Sm240 2.543 . S
O260 C242 1.261 . S
O261 Sm240 2.450 . S
O261 C242 1.242 . S
O262 Sm240 2.681 . S
O262 Sm241 2.386 . S
O262 C249 1.271 . S
O263 Sm240 2.464 . S
O263 C249 1.251 . S
O264 Sm240 2.396 . S
O264 C250 1.252 . S
O265 Sm241 2.408 . S
O265 C250 1.272 . S
O266 Sm241 2.543 1_655 S
O266 C251 1.261 . S
O267 Sm241 2.450 1_655 S
O267 C251 1.242 . S
O268 Sm240 2.386 . S
O268 Sm241 2.681 . S
O268 C258 1.271 . S
O269 Sm241 2.464 . S
O269 C258 1.251 . S
O270 Sm241 2.396 . S
O270 C259 1.252 . S
O271 Sm240 2.408 . S
O271 C259 1.272 . S
H272 C244 0.930 . S
H273 C245 0.929 . S
H274 C247 0.930 . S
H275 C248 0.929 . S
H276 C253 0.930 . S
H277 C254 0.929 1_565 S
H278 C256 0.930 . S
H279 C257 0.929 . S
Sm280 C282 2.846 . S
Sm280 O300 2.543 . S
Sm280 O301 2.450 . S
Sm280 O302 2.681 . S
Sm280 O303 2.464 . S
Sm280 O304 2.396 . S
Sm280 O308 2.386 . S
Sm280 O311 2.408 . S
Sm281 C291 2.846 . S
Sm281 O302 2.386 . S
Sm281 O305 2.408 . S
Sm281 O306 2.543 . S
Sm281 O307 2.450 . S
Sm281 O308 2.681 . S
Sm281 O309 2.464 . S
Sm281 O310 2.396 . S
C282 Sm280 2.846 . S
C282 C283 1.506 . S
C282 O300 1.261 . S
C282 O301 1.242 . S
C283 C282 1.506 . S
C283 C284 1.358 . S
C283 C288 1.382 . S
C284 C283 1.358 . S
C284 C285 1.385 . S
C284 H312 0.930 . S
C285 C284 1.385 . S
C285 C286 1.395 . S
C285 H313 0.929 . S
C286 C285 1.395 . S
C286 C287 1.335 . S
C287 C286 1.335 . S
C287 C288 1.398 . S
C287 H314 0.930 . S
C288 C283 1.382 . S
C288 C287 1.398 . S
C288 H315 0.929 . S
C289 O302 1.271 . S
C289 O303 1.251 . S
C290 O304 1.252 . S
C290 O305 1.272 . S
C291 Sm281 2.846 . S
C291 C292 1.506 . S
C291 O306 1.261 . S
C291 O307 1.242 . S
C292 C291 1.506 . S
C292 C293 1.358 . S
C292 C297 1.382 . S
C293 C292 1.358 . S
C293 C294 1.385 1_655 S
C293 H316 0.930 . S
C294 C293 1.385 1_455 S
C294 C295 1.395 . S
C294 H317 0.929 . S
C295 C294 1.395 . S
C295 C296 1.335 . S
C296 C295 1.335 . S
C296 C297 1.398 1_455 S
C296 H318 0.930 . S
C297 C292 1.382 . S
C297 C296 1.398 1_655 S
C297 H319 0.929 . S
C298 O308 1.271 . S
C298 O309 1.251 . S
C299 O310 1.252 . S
C299 O311 1.272 . S
O300 Sm280 2.543 . S
O300 C282 1.261 . S
O301 Sm280 2.450 . S
O301 C282 1.242 . S
O302 Sm280 2.681 . S
O302 Sm281 2.386 . S
O302 C289 1.271 . S
O303 Sm280 2.464 . S
O303 C289 1.251 . S
O304 Sm280 2.396 . S
O304 C290 1.252 . S
O305 Sm281 2.408 . S
O305 C290 1.272 . S
O306 Sm281 2.543 . S
O306 C291 1.261 . S
O307 Sm281 2.450 . S
O307 C291 1.242 . S
O308 Sm280 2.386 . S
O308 Sm281 2.681 . S
O308 C298 1.271 . S
O309 Sm281 2.464 . S
O309 C298 1.251 . S
O310 Sm281 2.396 . S
O310 C299 1.252 . S
O311 Sm280 2.408 . S
O311 C299 1.272 . S
H312 C284 0.930 . S
H313 C285 0.929 . S
H314 C287 0.930 . S
H315 C288 0.929 . S
H316 C293 0.930 . S
H317 C294 0.929 . S
H318 C296 0.930 . S
H319 C297 0.929 . S
Sm320 C322 2.846 . S
Sm320 O340 2.543 . S
Sm320 O341 2.450 . S
Sm320 O342 2.681 . S
Sm320 O343 2.464 . S
Sm320 O344 2.396 . S
Sm320 O348 2.386 . S
Sm320 O351 2.408 . S
Sm321 C331 2.846 1_565 S
Sm321 O342 2.386 . S
Sm321 O345 2.408 . S
Sm321 O346 2.543 1_565 S
Sm321 O347 2.450 1_565 S
Sm321 O348 2.681 . S
Sm321 O349 2.464 . S
Sm321 O350 2.396 . S
C322 Sm320 2.846 . S
C322 C323 1.506 . S
C322 O340 1.261 . S
C322 O341 1.242 . S
C323 C322 1.506 . S
C323 C324 1.358 . S
C323 C328 1.382 . S
C324 C323 1.358 . S
C324 C325 1.385 . S
C324 H352 0.930 . S
C325 C324 1.385 . S
C325 C326 1.395 . S
C325 H353 0.929 . S
C326 C325 1.395 . S
C326 C327 1.335 . S
C327 C326 1.335 . S
C327 C328 1.398 . S
C327 H354 0.930 . S
C328 C323 1.382 . S
C328 C327 1.398 . S
C328 H355 0.929 . S
C329 O342 1.271 . S
C329 O343 1.251 . S
C330 O344 1.252 . S
C330 O345 1.272 . S
C331 Sm321 2.846 1_545 S
C331 C332 1.506 . S
C331 O346 1.261 . S
C331 O347 1.242 . S
C332 C331 1.506 . S
C332 C333 1.358 . S
C332 C337 1.382 . S
C333 C332 1.358 . S
C333 C334 1.385 . S
C333 H356 0.930 . S
C334 C333 1.385 . S
C334 C335 1.395 . S
C334 H357 0.929 . S
C335 C334 1.395 . S
C335 C336 1.335 . S
C336 C335 1.335 . S
C336 C337 1.398 . S
C336 H358 0.930 . S
C337 C332 1.382 . S
C337 C336 1.398 . S
C337 H359 0.929 . S
C338 O348 1.271 . S
C338 O349 1.251 . S
C339 O350 1.252 . S
C339 O351 1.272 . S
O340 Sm320 2.543 . S
O340 C322 1.261 . S
O341 Sm320 2.450 . S
O341 C322 1.242 . S
O342 Sm320 2.681 . S
O342 Sm321 2.386 . S
O342 C329 1.271 . S
O343 Sm320 2.464 . S
O343 C329 1.251 . S
O344 Sm320 2.396 . S
O344 C330 1.252 . S
O345 Sm321 2.408 . S
O345 C330 1.272 . S
O346 Sm321 2.543 1_545 S
O346 C331 1.261 . S
O347 Sm321 2.450 1_545 S
O347 C331 1.242 . S
O348 Sm320 2.386 . S
O348 Sm321 2.681 . S
O348 C338 1.271 . S
O349 Sm321 2.464 . S
O349 C338 1.251 . S
O350 Sm321 2.396 . S
O350 C339 1.252 . S
O351 Sm320 2.408 . S
O351 C339 1.272 . S
H352 C324 0.930 . S
H353 C325 0.929 . S
H354 C327 0.930 . S
H355 C328 0.929 . S
H356 C333 0.930 . S
H357 C334 0.929 . S
H358 C336 0.930 . S
H359 C337 0.929 . S
Sm360 C362 2.846 1_565 S
Sm360 O380 2.543 . S
Sm360 O381 2.450 . S
Sm360 O382 2.681 . S
Sm360 O383 2.464 . S
Sm360 O384 2.396 . S
Sm360 O388 2.386 . S
Sm360 O391 2.408 . S
Sm361 C371 2.846 . S
Sm361 O382 2.386 . S
Sm361 O385 2.408 . S
Sm361 O386 2.543 . S
Sm361 O387 2.450 . S
Sm361 O388 2.681 . S
Sm361 O389 2.464 . S
Sm361 O390 2.396 . S
C362 Sm360 2.846 1_545 S
C362 C363 1.506 . S
C362 O380 1.261 1_545 S
C362 O381 1.242 1_545 S
C363 C362 1.506 . S
C363 C364 1.358 . S
C363 C368 1.382 . S
C364 C363 1.358 . S
C364 C365 1.385 1_655 S
C364 H392 0.930 . S
C365 C364 1.385 1_455 S
C365 C366 1.395 . S
C365 H393 0.929 . S
C366 C365 1.395 . S
C366 C367 1.335 1_455 S
C367 C366 1.335 1_655 S
C367 C368 1.398 . S
C367 H394 0.930 1_655 S
C368 C363 1.382 . S
C368 C367 1.398 . S
C368 H395 0.929 . S
C369 O382 1.271 . S
C369 O383 1.251 . S
C370 O384 1.252 . S
C370 O385 1.272 . S
C371 Sm361 2.846 . S
C371 C372 1.506 . S
C371 O386 1.261 . S
C371 O387 1.242 . S
C372 C371 1.506 . S
C372 C373 1.358 . S
C372 C377 1.382 . S
C373 C372 1.358 . S
C373 C374 1.385 . S
C373 H396 0.930 . S
C374 C373 1.385 . S
C374 C375 1.395 . S
C374 H397 0.929 . S
C375 C374 1.395 . S
C375 C376 1.335 . S
C376 C375 1.335 . S
C376 C377 1.398 . S
C376 H398 0.930 . S
C377 C372 1.382 . S
C377 C376 1.398 . S
C377 H399 0.929 . S
C378 O388 1.271 . S
C378 O389 1.251 . S
C379 O390 1.252 . S
C379 O391 1.272 . S
O380 Sm360 2.543 . S
O380 C362 1.261 1_565 S
O381 Sm360 2.450 . S
O381 C362 1.242 1_565 S
O382 Sm360 2.681 . S
O382 Sm361 2.386 . S
O382 C369 1.271 . S
O383 Sm360 2.464 . S
O383 C369 1.251 . S
O384 Sm360 2.396 . S
O384 C370 1.252 . S
O385 Sm361 2.408 . S
O385 C370 1.272 . S
O386 Sm361 2.543 . S
O386 C371 1.261 . S
O387 Sm361 2.450 . S
O387 C371 1.242 . S
O388 Sm360 2.386 . S
O388 Sm361 2.681 . S
O388 C378 1.271 . S
O389 Sm361 2.464 . S
O389 C378 1.251 . S
O390 Sm361 2.396 . S
O390 C379 1.252 . S
O391 Sm360 2.408 . S
O391 C379 1.272 . S
H392 C364 0.930 . S
H393 C365 0.929 . S
H394 C367 0.930 1_455 S
H395 C368 0.929 . S
H396 C373 0.930 . S
H397 C374 0.929 . S
H398 C376 0.930 . S
H399 C377 0.929 . S
Sm400 C402 2.846 . S
Sm400 O420 2.543 . S
Sm400 O421 2.450 . S
Sm400 O422 2.681 . S
Sm400 O423 2.464 . S
Sm400 O424 2.396 . S
Sm400 O428 2.386 . S
Sm400 O431 2.408 . S
Sm401 C411 2.846 . S
Sm401 O422 2.386 . S
Sm401 O425 2.408 . S
Sm401 O426 2.543 . S
Sm401 O427 2.450 . S
Sm401 O428 2.681 . S
Sm401 O429 2.464 . S
Sm401 O430 2.396 . S
C402 Sm400 2.846 . S
C402 C403 1.506 1_455 S
C402 O420 1.261 . S
C402 O421 1.242 . S
C403 C402 1.506 1_655 S
C403 C404 1.358 . S
C403 C408 1.382 . S
C404 C403 1.358 . S
C404 C405 1.385 . S
C404 H432 0.930 . S
C405 C404 1.385 . S
C405 C406 1.395 . S
C405 H433 0.929 . S
C406 C405 1.395 . S
C406 C407 1.335 . S
C407 C406 1.335 . S
C407 C408 1.398 . S
C407 H434 0.930 . S
C408 C403 1.382 . S
C408 C407 1.398 . S
C408 H435 0.929 . S
C409 O422 1.271 . S
C409 O423 1.251 . S
C410 O424 1.252 . S
C410 O425 1.272 . S
C411 Sm401 2.846 . S
C411 C412 1.506 . S
C411 O426 1.261 . S
C411 O427 1.242 . S
C412 C411 1.506 . S
C412 C413 1.358 . S
C412 C417 1.382 . S
C413 C412 1.358 . S
C413 C414 1.385 . S
C413 H436 0.930 . S
C414 C413 1.385 . S
C414 C415 1.395 . S
C414 H437 0.929 . S
C415 C414 1.395 . S
C415 C416 1.335 . S
C416 C415 1.335 . S
C416 C417 1.398 . S
C416 H438 0.930 . S
C417 C412 1.382 . S
C417 C416 1.398 . S
C417 H439 0.929 . S
C418 O428 1.271 . S
C418 O429 1.251 . S
C419 O430 1.252 . S
C419 O431 1.272 . S
O420 Sm400 2.543 . S
O420 C402 1.261 . S
O421 Sm400 2.450 . S
O421 C402 1.242 . S
O422 Sm400 2.681 . S
O422 Sm401 2.386 . S
O422 C409 1.271 . S
O423 Sm400 2.464 . S
O423 C409 1.251 . S
O424 Sm400 2.396 . S
O424 C410 1.252 . S
O425 Sm401 2.408 . S
O425 C410 1.272 . S
O426 Sm401 2.543 . S
O426 C411 1.261 . S
O427 Sm401 2.450 . S
O427 C411 1.242 . S
O428 Sm400 2.386 . S
O428 Sm401 2.681 . S
O428 C418 1.271 . S
O429 Sm401 2.464 . S
O429 C418 1.251 . S
O430 Sm401 2.396 . S
O430 C419 1.252 . S
O431 Sm400 2.408 . S
O431 C419 1.272 . S
H432 C404 0.930 . S
H433 C405 0.929 . S
H434 C407 0.930 . S
H435 C408 0.929 . S
H436 C413 0.930 . S
H437 C414 0.929 . S
H438 C416 0.930 . S
H439 C417 0.929 . S
Sm440 C442 2.846 . S
Sm440 O460 2.543 . S
Sm440 O461 2.450 . S
Sm440 O462 2.681 . S
Sm440 O463 2.464 . S
Sm440 O464 2.396 . S
Sm440 O468 2.386 . S
Sm440 O471 2.408 . S
Sm441 C451 2.846 . S
Sm441 O462 2.386 . S
Sm441 O465 2.408 . S
Sm441 O466 2.543 . S
Sm441 O467 2.450 . S
Sm441 O468 2.681 . S
Sm441 O469 2.464 . S
Sm441 O470 2.396 . S
C442 Sm440 2.846 . S
C442 C443 1.506 . S
C442 O460 1.261 . S
C442 O461 1.242 . S
C443 C442 1.506 . S
C443 C444 1.358 . S
C443 C448 1.382 . S
C444 C443 1.358 . S
C444 C445 1.385 . S
C444 H472 0.930 . S
C445 C444 1.385 . S
C445 C446 1.395 . S
C445 H473 0.929 . S
C446 C445 1.395 . S
C446 C447 1.335 . S
C447 C446 1.335 . S
C447 C448 1.398 . S
C447 H474 0.930 . S
C448 C443 1.382 . S
C448 C447 1.398 . S
C448 H475 0.929 . S
C449 O462 1.271 . S
C449 O463 1.251 . S
C450 O464 1.252 . S
C450 O465 1.272 . S
C451 Sm441 2.846 . S
C451 C452 1.506 . S
C451 O466 1.261 . S
C451 O467 1.242 . S
C452 C451 1.506 . S
C452 C453 1.358 . S
C452 C457 1.382 . S
C453 C452 1.358 . S
C453 C454 1.385 . S
C453 H476 0.930 . S
C454 C453 1.385 . S
C454 C455 1.395 . S
C454 H477 0.929 . S
C455 C454 1.395 . S
C455 C456 1.335 . S
C456 C455 1.335 . S
C456 C457 1.398 . S
C456 H478 0.930 . S
C457 C452 1.382 . S
C457 C456 1.398 . S
C457 H479 0.929 . S
C458 O468 1.271 . S
C458 O469 1.251 . S
C459 O470 1.252 . S
C459 O471 1.272 . S
O460 Sm440 2.543 . S
O460 C442 1.261 . S
O461 Sm440 2.450 . S
O461 C442 1.242 . S
O462 Sm440 2.681 . S
O462 Sm441 2.386 . S
O462 C449 1.271 . S
O463 Sm440 2.464 . S
O463 C449 1.251 . S
O464 Sm440 2.396 . S
O464 C450 1.252 . S
O465 Sm441 2.408 . S
O465 C450 1.272 . S
O466 Sm441 2.543 . S
O466 C451 1.261 . S
O467 Sm441 2.450 . S
O467 C451 1.242 . S
O468 Sm440 2.386 . S
O468 Sm441 2.681 . S
O468 C458 1.271 . S
O469 Sm441 2.464 . S
O469 C458 1.251 . S
O470 Sm441 2.396 . S
O470 C459 1.252 . S
O471 Sm440 2.408 . S
O471 C459 1.272 . S
H472 C444 0.930 . S
H473 C445 0.929 . S
H474 C447 0.930 . S
H475 C448 0.929 . S
H476 C453 0.930 . S
H477 C454 0.929 . S
H478 C456 0.930 . S
H479 C457 0.929 . S
Sm480 C482 2.846 1_655 S
Sm480 O500 2.543 . S
Sm480 O501 2.450 . S
Sm480 O502 2.681 . S
Sm480 O503 2.464 . S
Sm480 O504 2.396 . S
Sm480 O508 2.386 . S
Sm480 O511 2.408 . S
Sm481 C491 2.846 . S
Sm481 O502 2.386 . S
Sm481 O505 2.408 . S
Sm481 O506 2.543 . S
Sm481 O507 2.450 . S
Sm481 O508 2.681 . S
Sm481 O509 2.464 . S
Sm481 O510 2.396 . S
C482 Sm480 2.846 1_455 S
C482 C483 1.506 . S
C482 O500 1.261 1_455 S
C482 O501 1.242 1_455 S
C483 C482 1.506 . S
C483 C484 1.358 . S
C483 C488 1.382 . S
C484 C483 1.358 . S
C484 C485 1.385 1_565 S
C484 H512 0.930 . S
C485 C484 1.385 1_545 S
C485 C486 1.395 . S
C485 H513 0.929 . S
C486 C485 1.395 . S
C486 C487 1.335 1_545 S
C487 C486 1.335 1_565 S
C487 C488 1.398 . S
C487 H514 0.930 1_565 S
C488 C483 1.382 . S
C488 C487 1.398 . S
C488 H515 0.929 . S
C489 O502 1.271 . S
C489 O503 1.251 . S
C490 O504 1.252 . S
C490 O505 1.272 . S
C491 Sm481 2.846 . S
C491 C492 1.506 . S
C491 O506 1.261 . S
C491 O507 1.242 . S
C492 C491 1.506 . S
C492 C493 1.358 . S
C492 C497 1.382 . S
C493 C492 1.358 . S
C493 C494 1.385 . S
C493 H516 0.930 . S
C494 C493 1.385 . S
C494 C495 1.395 . S
C494 H517 0.929 . S
C495 C494 1.395 . S
C495 C496 1.335 . S
C496 C495 1.335 . S
C496 C497 1.398 . S
C496 H518 0.930 . S
C497 C492 1.382 . S
C497 C496 1.398 . S
C497 H519 0.929 . S
C498 O508 1.271 . S
C498 O509 1.251 . S
C499 O510 1.252 . S
C499 O511 1.272 . S
O500 Sm480 2.543 . S
O500 C482 1.261 1_655 S
O501 Sm480 2.450 . S
O501 C482 1.242 1_655 S
O502 Sm480 2.681 . S
O502 Sm481 2.386 . S
O502 C489 1.271 . S
O503 Sm480 2.464 . S
O503 C489 1.251 . S
O504 Sm480 2.396 . S
O504 C490 1.252 . S
O505 Sm481 2.408 . S
O505 C490 1.272 . S
O506 Sm481 2.543 . S
O506 C491 1.261 . S
O507 Sm481 2.450 . S
O507 C491 1.242 . S
O508 Sm480 2.386 . S
O508 Sm481 2.681 . S
O508 C498 1.271 . S
O509 Sm481 2.464 . S
O509 C498 1.251 . S
O510 Sm481 2.396 . S
O510 C499 1.252 . S
O511 Sm480 2.408 . S
O511 C499 1.272 . S
H512 C484 0.930 . S
H513 C485 0.929 . S
H514 C487 0.930 1_545 S
H515 C488 0.929 . S
H516 C493 0.930 . S
H517 C494 0.929 . S
H518 C496 0.930 . S
H519 C497 0.929 . S
Sm520 C522 2.846 . S
Sm520 O540 2.543 . S
Sm520 O541 2.450 . S
Sm520 O542 2.681 . S
Sm520 O543 2.464 . S
Sm520 O544 2.396 . S
Sm520 O548 2.386 . S
Sm520 O551 2.408 . S
Sm521 C531 2.846 . S
Sm521 O542 2.386 . S
Sm521 O545 2.408 . S
Sm521 O546 2.543 . S
Sm521 O547 2.450 . S
Sm521 O548 2.681 . S
Sm521 O549 2.464 . S
Sm521 O550 2.396 . S
C522 Sm520 2.846 . S
C522 C523 1.506 . S
C522 O540 1.261 . S
C522 O541 1.242 . S
C523 C522 1.506 . S
C523 C524 1.358 . S
C523 C528 1.382 . S
C524 C523 1.358 . S
C524 C525 1.385 . S
C524 H552 0.930 . S
C525 C524 1.385 . S
C525 C526 1.395 . S
C525 H553 0.929 . S
C526 C525 1.395 . S
C526 C527 1.335 . S
C527 C526 1.335 . S
C527 C528 1.398 . S
C527 H554 0.930 . S
C528 C523 1.382 . S
C528 C527 1.398 . S
C528 H555 0.929 . S
C529 O542 1.271 . S
C529 O543 1.251 . S
C530 O544 1.252 . S
C530 O545 1.272 . S
C531 Sm521 2.846 . S
C531 C532 1.506 . S
C531 O546 1.261 . S
C531 O547 1.242 . S
C532 C531 1.506 . S
C532 C533 1.358 . S
C532 C537 1.382 . S
C533 C532 1.358 . S
C533 C534 1.385 . S
C533 H556 0.930 . S
C534 C533 1.385 . S
C534 C535 1.395 . S
C534 H557 0.929 . S
C535 C534 1.395 . S
C535 C536 1.335 . S
C536 C535 1.335 . S
C536 C537 1.398 . S
C536 H558 0.930 . S
C537 C532 1.382 . S
C537 C536 1.398 . S
C537 H559 0.929 . S
C538 O548 1.271 . S
C538 O549 1.251 . S
C539 O550 1.252 . S
C539 O551 1.272 . S
O540 Sm520 2.543 . S
O540 C522 1.261 . S
O541 Sm520 2.450 . S
O541 C522 1.242 . S
O542 Sm520 2.681 . S
O542 Sm521 2.386 . S
O542 C529 1.271 . S
O543 Sm520 2.464 . S
O543 C529 1.251 . S
O544 Sm520 2.396 . S
O544 C530 1.252 . S
O545 Sm521 2.408 . S
O545 C530 1.272 . S
O546 Sm521 2.543 . S
O546 C531 1.261 . S
O547 Sm521 2.450 . S
O547 C531 1.242 . S
O548 Sm520 2.386 . S
O548 Sm521 2.681 . S
O548 C538 1.271 . S
O549 Sm521 2.464 . S
O549 C538 1.251 . S
O550 Sm521 2.396 . S
O550 C539 1.252 . S
O551 Sm520 2.408 . S
O551 C539 1.272 . S
H552 C524 0.930 . S
H553 C525 0.929 . S
H554 C527 0.930 . S
H555 C528 0.929 . S
H556 C533 0.930 . S
H557 C534 0.929 . S
H558 C536 0.930 . S
H559 C537 0.929 . S
Sm560 C562 2.846 . S
Sm560 O580 2.543 . S
Sm560 O581 2.450 . S
Sm560 O582 2.681 . S
Sm560 O583 2.464 . S
Sm560 O584 2.396 . S
Sm560 O588 2.386 . S
Sm560 O591 2.408 . S
Sm561 C571 2.846 . S
Sm561 O582 2.386 . S
Sm561 O585 2.408 . S
Sm561 O586 2.543 . S
Sm561 O587 2.450 . S
Sm561 O588 2.681 . S
Sm561 O589 2.464 . S
Sm561 O590 2.396 . S
C562 Sm560 2.846 . S
C562 C563 1.506 1_545 S
C562 O580 1.261 . S
C562 O581 1.242 . S
C563 C562 1.506 1_565 S
C563 C564 1.358 . S
C563 C568 1.382 . S
C564 C563 1.358 . S
C564 C565 1.385 . S
C564 H592 0.930 . S
C565 C564 1.385 . S
C565 C566 1.395 . S
C565 H593 0.929 . S
C566 C565 1.395 . S
C566 C567 1.335 . S
C567 C566 1.335 . S
C567 C568 1.398 . S
C567 H594 0.930 . S
C568 C563 1.382 . S
C568 C567 1.398 . S
C568 H595 0.929 . S
C569 O582 1.271 . S
C569 O583 1.251 . S
C570 O584 1.252 . S
C570 O585 1.272 . S
C571 Sm561 2.846 . S
C571 C572 1.506 . S
C571 O586 1.261 . S
C571 O587 1.242 . S
C572 C571 1.506 . S
C572 C573 1.358 . S
C572 C577 1.382 . S
C573 C572 1.358 . S
C573 C574 1.385 . S
C573 H596 0.930 . S
C574 C573 1.385 . S
C574 C575 1.395 . S
C574 H597 0.929 . S
C575 C574 1.395 . S
C575 C576 1.335 . S
C576 C575 1.335 . S
C576 C577 1.398 . S
C576 H598 0.930 . S
C577 C572 1.382 . S
C577 C576 1.398 . S
C577 H599 0.929 . S
C578 O588 1.271 . S
C578 O589 1.251 . S
C579 O590 1.252 . S
C579 O591 1.272 . S
O580 Sm560 2.543 . S
O580 C562 1.261 . S
O581 Sm560 2.450 . S
O581 C562 1.242 . S
O582 Sm560 2.681 . S
O582 Sm561 2.386 . S
O582 C569 1.271 . S
O583 Sm560 2.464 . S
O583 C569 1.251 . S
O584 Sm560 2.396 . S
O584 C570 1.252 . S
O585 Sm561 2.408 . S
O585 C570 1.272 . S
O586 Sm561 2.543 . S
O586 C571 1.261 . S
O587 Sm561 2.450 . S
O587 C571 1.242 . S
O588 Sm560 2.386 . S
O588 Sm561 2.681 . S
O588 C578 1.271 . S
O589 Sm561 2.464 . S
O589 C578 1.251 . S
O590 Sm561 2.396 . S
O590 C579 1.252 . S
O591 Sm560 2.408 . S
O591 C579 1.272 . S
H592 C564 0.930 . S
H593 C565 0.929 . S
H594 C567 0.930 . S
H595 C568 0.929 . S
H596 C573 0.930 . S
H597 C574 0.929 . S
H598 C576 0.930 . S
H599 C577 0.929 . S
Sm600 C602 2.846 . S
Sm600 O620 2.543 . S
Sm600 O621 2.450 . S
Sm600 O622 2.681 . S
Sm600 O623 2.464 . S
Sm600 O624 2.396 . S
Sm600 O628 2.386 . S
Sm600 O631 2.408 . S
Sm601 C611 2.846 1_545 S
Sm601 O622 2.386 . S
Sm601 O625 2.408 . S
Sm601 O626 2.543 1_545 S
Sm601 O627 2.450 1_545 S
Sm601 O628 2.681 . S
Sm601 O629 2.464 . S
Sm601 O630 2.396 . S
C602 Sm600 2.846 . S
C602 C603 1.506 . S
C602 O620 1.261 . S
C602 O621 1.242 . S
C603 C602 1.506 . S
C603 C604 1.358 . S
C603 C608 1.382 . S
C604 C603 1.358 . S
C604 C605 1.385 . S
C604 H632 0.930 . S
C605 C604 1.385 . S
C605 C606 1.395 . S
C605 H633 0.929 . S
C606 C605 1.395 . S
C606 C607 1.335 . S
C607 C606 1.335 . S
C607 C608 1.398 . S
C607 H634 0.930 . S
C608 C603 1.382 . S
C608 C607 1.398 . S
C608 H635 0.929 . S
C609 O622 1.271 . S
C609 O623 1.251 . S
C610 O624 1.252 . S
C610 O625 1.272 . S
C611 Sm601 2.846 1_565 S
C611 C612 1.506 . S
C611 O626 1.261 . S
C611 O627 1.242 . S
C612 C611 1.506 . S
C612 C613 1.358 . S
C612 C617 1.382 . S
C613 C612 1.358 . S
C613 C614 1.385 . S
C613 H636 0.930 . S
C614 C613 1.385 . S
C614 C615 1.395 1_455 S
C614 H637 0.929 1_455 S
C615 C614 1.395 1_655 S
C615 C616 1.335 1_655 S
C616 C615 1.335 1_455 S
C616 C617 1.398 . S
C616 H638 0.930 . S
C617 C612 1.382 . S
C617 C616 1.398 . S
C617 H639 0.929 . S
C618 O628 1.271 . S
C618 O629 1.251 . S
C619 O630 1.252 . S
C619 O631 1.272 . S
O620 Sm600 2.543 . S
O620 C602 1.261 . S
O621 Sm600 2.450 . S
O621 C602 1.242 . S
O622 Sm600 2.681 . S
O622 Sm601 2.386 . S
O622 C609 1.271 . S
O623 Sm600 2.464 . S
O623 C609 1.251 . S
O624 Sm600 2.396 . S
O624 C610 1.252 . S
O625 Sm601 2.408 . S
O625 C610 1.272 . S
O626 Sm601 2.543 1_565 S
O626 C611 1.261 . S
O627 Sm601 2.450 1_565 S
O627 C611 1.242 . S
O628 Sm600 2.386 . S
O628 Sm601 2.681 . S
O628 C618 1.271 . S
O629 Sm601 2.464 . S
O629 C618 1.251 . S
O630 Sm601 2.396 . S
O630 C619 1.252 . S
O631 Sm600 2.408 . S
O631 C619 1.272 . S
H632 C604 0.930 . S
H633 C605 0.929 . S
H634 C607 0.930 . S
H635 C608 0.929 . S
H636 C613 0.930 . S
H637 C614 0.929 1_655 S
H638 C616 0.930 . S
H639 C617 0.929 . S
Sm640 C642 2.846 . S
Sm640 O660 2.543 . S
Sm640 O661 2.450 . S
Sm640 O662 2.681 . S
Sm640 O663 2.464 . S
Sm640 O664 2.396 . S
Sm640 O668 2.386 . S
Sm640 O671 2.408 . S
Sm641 C651 2.846 1_655 S
Sm641 O662 2.386 . S
Sm641 O665 2.408 . S
Sm641 O666 2.543 1_655 S
Sm641 O667 2.450 1_655 S
Sm641 O668 2.681 . S
Sm641 O669 2.464 . S
Sm641 O670 2.396 . S
C642 Sm640 2.846 . S
C642 C643 1.506 . S
C642 O660 1.261 . S
C642 O661 1.242 . S
C643 C642 1.506 . S
C643 C644 1.358 . S
C643 C648 1.382 . S
C644 C643 1.358 . S
C644 C645 1.385 . S
C644 H672 0.930 . S
C645 C644 1.385 . S
C645 C646 1.395 . S
C645 H673 0.929 . S
C646 C645 1.395 . S
C646 C647 1.335 . S
C647 C646 1.335 . S
C647 C648 1.398 . S
C647 H674 0.930 . S
C648 C643 1.382 . S
C648 C647 1.398 . S
C648 H675 0.929 . S
C649 O662 1.271 . S
C649 O663 1.251 . S
C650 O664 1.252 . S
C650 O665 1.272 . S
C651 Sm641 2.846 1_455 S
C651 C652 1.506 . S
C651 O666 1.261 . S
C651 O667 1.242 . S
C652 C651 1.506 . S
C652 C653 1.358 . S
C652 C657 1.382 . S
C653 C652 1.358 . S
C653 C654 1.385 . S
C653 H676 0.930 . S
C654 C653 1.385 . S
C654 C655 1.395 . S
C654 H677 0.929 . S
C655 C654 1.395 . S
C655 C656 1.335 . S
C656 C655 1.335 . S
C656 C657 1.398 . S
C656 H678 0.930 . S
C657 C652 1.382 . S
C657 C656 1.398 . S
C657 H679 0.929 . S
C658 O668 1.271 . S
C658 O669 1.251 . S
C659 O670 1.252 . S
C659 O671 1.272 . S
O660 Sm640 2.543 . S
O660 C642 1.261 . S
O661 Sm640 2.450 . S
O661 C642 1.242 . S
O662 Sm640 2.681 . S
O662 Sm641 2.386 . S
O662 C649 1.271 . S
O663 Sm640 2.464 . S
O663 C649 1.251 . S
O664 Sm640 2.396 . S
O664 C650 1.252 . S
O665 Sm641 2.408 . S
O665 C650 1.272 . S
O666 Sm641 2.543 1_455 S
O666 C651 1.261 . S
O667 Sm641 2.450 1_455 S
O667 C651 1.242 . S
O668 Sm640 2.386 . S
O668 Sm641 2.681 . S
O668 C658 1.271 . S
O669 Sm641 2.464 . S
O669 C658 1.251 . S
O670 Sm641 2.396 . S
O670 C659 1.252 . S
O671 Sm640 2.408 . S
O671 C659 1.272 . S
H672 C644 0.930 . S
H673 C645 0.929 . S
H674 C647 0.930 . S
H675 C648 0.929 . S
H676 C653 0.930 . S
H677 C654 0.929 . S
H678 C656 0.930 . S
H679 C657 0.929 . S
Sm680 C682 2.846 . S
Sm680 O700 2.543 . S
Sm680 O701 2.450 . S
Sm680 O702 2.681 . S
Sm680 O703 2.464 . S
Sm680 O704 2.396 . S
Sm680 O708 2.386 . S
Sm680 O711 2.408 . S
Sm681 C691 2.846 . S
Sm681 O702 2.386 . S
Sm681 O705 2.408 . S
Sm681 O706 2.543 . S
Sm681 O707 2.450 . S
Sm681 O708 2.681 . S
Sm681 O709 2.464 . S
Sm681 O710 2.396 . S
C682 Sm680 2.846 . S
C682 C683 1.506 . S
C682 O700 1.261 . S
C682 O701 1.242 . S
C683 C682 1.506 . S
C683 C684 1.358 . S
C683 C688 1.382 . S
C684 C683 1.358 . S
C684 C685 1.385 . S
C684 H712 0.930 . S
C685 C684 1.385 . S
C685 C686 1.395 . S
C685 H713 0.929 . S
C686 C685 1.395 . S
C686 C687 1.335 . S
C687 C686 1.335 . S
C687 C688 1.398 . S
C687 H714 0.930 . S
C688 C683 1.382 . S
C688 C687 1.398 . S
C688 H715 0.929 . S
C689 O702 1.271 . S
C689 O703 1.251 . S
C690 O704 1.252 . S
C690 O705 1.272 . S
C691 Sm681 2.846 . S
C691 C692 1.506 . S
C691 O706 1.261 . S
C691 O707 1.242 . S
C692 C691 1.506 . S
C692 C693 1.358 . S
C692 C697 1.382 . S
C693 C692 1.358 . S
C693 C694 1.385 1_565 S
C693 H716 0.930 . S
C694 C693 1.385 1_545 S
C694 C695 1.395 . S
C694 H717 0.929 . S
C695 C694 1.395 . S
C695 C696 1.335 . S
C696 C695 1.335 . S
C696 C697 1.398 1_545 S
C696 H718 0.930 . S
C697 C692 1.382 . S
C697 C696 1.398 1_565 S
C697 H719 0.929 . S
C698 O708 1.271 . S
C698 O709 1.251 . S
C699 O710 1.252 . S
C699 O711 1.272 . S
O700 Sm680 2.543 . S
O700 C682 1.261 . S
O701 Sm680 2.450 . S
O701 C682 1.242 . S
O702 Sm680 2.681 . S
O702 Sm681 2.386 . S
O702 C689 1.271 . S
O703 Sm680 2.464 . S
O703 C689 1.251 . S
O704 Sm680 2.396 . S
O704 C690 1.252 . S
O705 Sm681 2.408 . S
O705 C690 1.272 . S
O706 Sm681 2.543 . S
O706 C691 1.261 . S
O707 Sm681 2.450 . S
O707 C691 1.242 . S
O708 Sm680 2.386 . S
O708 Sm681 2.681 . S
O708 C698 1.271 . S
O709 Sm681 2.464 . S
O709 C698 1.251 . S
O710 Sm681 2.396 . S
O710 C699 1.252 . S
O711 Sm680 2.408 . S
O711 C699 1.272 . S
H712 C684 0.930 . S
H713 C685 0.929 . S
H714 C687 0.930 . S
H715 C688 0.929 . S
H716 C693 0.930 . S
H717 C694 0.929 . S
H718 C696 0.930 . S
H719 C697 0.929 . S
C19 C95 1.989 . S
C15 C59 1.988 . S
C55 C99 1.988 . S
C139 C175 1.989 . S
C215 C179 1.988 . S
C219 C135 1.988 . S
C335 C259 1.989 . S
C255 C299 1.988 . S
C339 C295 1.988 . S
C415 C379 1.989 . S
C419 C455 1.988 . S
C375 C459 1.988 . S
C499 C575 1.989 . S
C495 C539 1.988 . S
C535 C579 1.988 . S
C655 C619 1.989 . S
C695 C659 1.988 . S
C615 C699 1.988 . S
C18 C218 1.634 1_554 S
C138 C58 1.634 1_556 S
C178 C98 1.633 1_556 S
C258 C458 1.634 . S
C298 C378 1.634 . S
C418 C338 1.634 . S
C498 C698 1.634 . S
C618 C538 1.634 . S
C658 C578 1.634 . S
C409 C9 5.012 1_565 S
C49 C449 5.011 . S
C369 C89 5.012 . S
C129 C569 5.012 1_455 S
C169 C489 5.012 . S
C529 C209 5.012 . S
C649 C249 5.012 1_655 S
C289 C689 5.012 . S
C329 C609 5.012 1_565 S
C86 C10 2.941 . S
C6 C50 2.941 . S
C90 C46 2.941 . S
C166 C130 2.941 . S
C206 C170 2.941 . S
C210 C126 2.941 . S
C326 C250 2.941 . S
C290 C246 2.941 . S
C286 C330 2.941 . S
C370 C406 2.941 . S
C410 C446 2.941 1_565 S
C366 C450 2.941 . S
C490 C566 2.941 . S
C530 C486 2.941 . S
C526 C570 2.941 1_455 S
C610 C646 2.941 . S
C650 C686 2.941 . S
C606 C690 2.941 . S
