# Generated by pormake.
# Topology ukh, (4)-cn, num edge types: 1
# Building blocks:
#     Node 0, Type 0, BuildingBlock: CEKHIL_clean_sbu_0, # of connection points: 4
#     Node 1, Type 0, BuildingBlock: CEKHIL_clean_sbu_0, # of connection points: 4
#     Node 2, Type 0, BuildingBlock: CEKHIL_clean_sbu_0, # of connection points: 4
#     Node 3, Type 0, BuildingBlock: CEKHIL_clean_sbu_0, # of connection points: 4
#     Node 4, Type 0, BuildingBlock: CEKHIL_clean_sbu_0, # of connection points: 4
#     Node 5, Type 0, BuildingBlock: CEKHIL_clean_sbu_0, # of connection points: 4
#     Node 6, Type 0, BuildingBlock: CEKHIL_clean_sbu_0, # of connection points: 4
#     Node 7, Type 0, BuildingBlock: CEKHIL_clean_sbu_0, # of connection points: 4
#     Node 8, Type 0, BuildingBlock: CEKHIL_clean_sbu_0, # of connection points: 4
#     Node 9, Type 0, BuildingBlock: CEKHIL_clean_sbu_0, # of connection points: 4
#     Node 10, Type 0, BuildingBlock: CEKHIL_clean_sbu_0, # of connection points: 4
#     Node 11, Type 0, BuildingBlock: CEKHIL_clean_sbu_0, # of connection points: 4
#     Edge 12, Type (0, 0), BuildingBlock: TEMPAE_clean_linker_10, # of connection points: 2
#     Edge 13, Type (0, 0), BuildingBlock: TEMPAE_clean_linker_10, # of connection points: 2
#     Edge 14, Type (0, 0), BuildingBlock: TEMPAE_clean_linker_10, # of connection points: 2
#     Edge 15, Type (0, 0), BuildingBlock: TEMPAE_clean_linker_10, # of connection points: 2
#     Edge 16, Type (0, 0), BuildingBlock: TEMPAE_clean_linker_10, # of connection points: 2
#     Edge 17, Type (0, 0), BuildingBlock: TEMPAE_clean_linker_10, # of connection points: 2
#     Edge 18, Type (0, 0), BuildingBlock: TEMPAE_clean_linker_10, # of connection points: 2
#     Edge 19, Type (0, 0), BuildingBlock: TEMPAE_clean_linker_10, # of connection points: 2
#     Edge 20, Type (0, 0), BuildingBlock: TEMPAE_clean_linker_10, # of connection points: 2
#     Edge 21, Type (0, 0), BuildingBlock: TEMPAE_clean_linker_10, # of connection points: 2
#     Edge 22, Type (0, 0), BuildingBlock: TEMPAE_clean_linker_10, # of connection points: 2
#     Edge 23, Type (0, 0), BuildingBlock: TEMPAE_clean_linker_10, # of connection points: 2
#     Edge 24, Type (0, 0), BuildingBlock: TEMPAE_clean_linker_10, # of connection points: 2
#     Edge 25, Type (0, 0), BuildingBlock: TEMPAE_clean_linker_10, # of connection points: 2
#     Edge 26, Type (0, 0), BuildingBlock: TEMPAE_clean_linker_10, # of connection points: 2
#     Edge 27, Type (0, 0), BuildingBlock: TEMPAE_clean_linker_10, # of connection points: 2
#     Edge 28, Type (0, 0), BuildingBlock: TEMPAE_clean_linker_10, # of connection points: 2
#     Edge 29, Type (0, 0), BuildingBlock: TEMPAE_clean_linker_10, # of connection points: 2
#     Edge 30, Type (0, 0), BuildingBlock: TEMPAE_clean_linker_10, # of connection points: 2
#     Edge 31, Type (0, 0), BuildingBlock: TEMPAE_clean_linker_10, # of connection points: 2
#     Edge 32, Type (0, 0), BuildingBlock: TEMPAE_clean_linker_10, # of connection points: 2
#     Edge 33, Type (0, 0), BuildingBlock: TEMPAE_clean_linker_10, # of connection points: 2
#     Edge 34, Type (0, 0), BuildingBlock: TEMPAE_clean_linker_10, # of connection points: 2
#     Edge 35, Type (0, 0), BuildingBlock: TEMPAE_clean_linker_10, # of connection points: 2
# Relax obj value: 0.070
# Max RMSD: 0.091
# Mean RMSD: 0.091
data_MOF--net-ukh--node1-CEKHIL_clean_sbu_0--edge1-TEMPAE_clean_linker_10
_symmetry_space_group_name_H-M    P1
_symmetry_Int_Tables_number       1
_symmetry_cell_setting            triclinic
loop_
_symmetry_equiv_pos_as_xyz
'x, y, z'
_cell_length_a     32.771148
_cell_length_b     32.785401
_cell_length_c     61.554725
_cell_angle_alpha  90.014611
_cell_angle_beta   89.999431
_cell_angle_gamma 119.95458
loop_
_atom_site_label
_atom_site_type_symbol
_atom_site_fract_x
_atom_site_fract_y
_atom_site_fract_z
_atom_type_partial_charge
Co0 Co 0.32414 0.25085 0.04806 0.0
O1 O 0.3412 0.3112 0.06014 0.0
O2 O 0.39105 0.29462 0.04364 0.0
C3 C 0.25994 0.24286 0.03077 0.0
O4 O 0.31712 0.19159 0.03314 0.0
Co5 Co 0.22713 0.16401 0.06044 0.0
O6 O 0.23984 0.13721 0.03431 0.0
C7 C 0.30878 0.19749 0.0904 0.0
C8 C 0.38344 0.32584 0.05307 0.0
C9 C 0.28147 0.15188 0.02735 0.0
O10 O 0.33622 0.2294 0.07686 0.0
O11 O 0.26457 0.1704 0.08719 0.0
O12 O 0.30123 0.26654 0.0219 0.0
O13 O 0.25929 0.22794 0.05022 0.0
Co14 Co 0.06788 0.32306 0.37536 0.0
O15 O 0.02074 0.33798 0.38381 0.0
O16 O 0.08985 0.38954 0.37005 0.0
C17 C 0.01785 0.25762 0.35695 0.0
O18 O 0.12381 0.31722 0.36435 0.0
Co19 Co 0.05597 0.22814 0.39286 0.0
O20 O 0.10549 0.24207 0.37094 0.0
C21 C 0.08908 0.3101 0.42191 0.0
C22 C 0.04873 0.38049 0.37728 0.0
C23 C 0.13161 0.28247 0.36247 0.0
O24 O 0.09491 0.33707 0.40564 0.0
O25 O 0.06938 0.26524 0.42044 0.0
O26 O 0.03571 0.29855 0.34769 0.0
O27 O 0.02735 0.25822 0.3773 0.0
Co28 Co 0.74897 0.07159 0.71386 0.0
O29 O 0.68895 0.03293 0.72734 0.0
O30 O 0.70674 0.09586 0.70753 0.0
C31 C 0.75385 0.0109 0.69972 0.0
O32 O 0.80815 0.11847 0.69691 0.0
Co33 Co 0.83446 0.06059 0.72824 0.0
O34 O 0.85941 0.09182 0.70005 0.0
C35 C 0.80524 0.11718 0.7548 0.0
C36 C 0.67529 0.05997 0.7186 0.0
C37 C 0.8461 0.11839 0.69126 0.0
O38 O 0.77302 0.11098 0.74106 0.0
O39 O 0.8312 0.09837 0.75297 0.0
O40 O 0.73037 0.02743 0.68969 0.0
O41 O 0.77003 0.02878 0.71859 0.0
Co42 Co 0.6722 0.74962 0.044 0.0
O43 O 0.65324 0.68972 0.05708 0.0
O44 O 0.6051 0.70698 0.03938 0.0
C45 C 0.73614 0.75482 0.02765 0.0
O46 O 0.68141 0.80877 0.02812 0.0
Co47 Co 0.77001 0.83542 0.05632 0.0
O48 O 0.75915 0.86143 0.02942 0.0
C49 C 0.6877 0.80546 0.08555 0.0
C50 C 0.61135 0.67581 0.04973 0.0
C51 C 0.7179 0.84767 0.02217 0.0
O52 O 0.6601 0.77338 0.07209 0.0
O53 O 0.73214 0.83126 0.08261 0.0
O54 O 0.69504 0.73149 0.01855 0.0
O55 O 0.73663 0.77103 0.04679 0.0
Co56 Co 0.93723 0.68624 0.38436 0.0
O57 O 0.97539 0.6596 0.39213 0.0
O58 O 0.9055 0.6198 0.37638 0.0
C59 C 0.99538 0.75063 0.36831 0.0
O60 O 0.88985 0.70552 0.37388 0.0
Co61 Co 0.96453 0.78287 0.40607 0.0
O62 O 0.91942 0.78127 0.3842 0.0
C63 C 0.91768 0.69549 0.4316 0.0
C64 C 0.94281 0.62031 0.38412 0.0
C65 C 0.88955 0.74481 0.37377 0.0
O66 O 0.90769 0.67084 0.41412 0.0
O67 O 0.94446 0.74027 0.43199 0.0
O68 O 0.97301 0.71144 0.35757 0.0
O69 O 0.98529 0.74798 0.38868 0.0
Co70 Co 0.25156 0.9303 0.71339 0.0
O71 O 0.31203 0.97263 0.72566 0.0
O72 O 0.29449 0.90604 0.7091 0.0
C73 C 0.24448 0.98663 0.69596 0.0
O74 O 0.19204 0.87906 0.69814 0.0
Co75 Co 0.16606 0.94276 0.72638 0.0
O76 O 0.13676 0.90066 0.7013 0.0
C77 C 0.1988 0.89386 0.75606 0.0
C78 C 0.32604 0.94446 0.71865 0.0
C79 C 0.15163 0.87463 0.69334 0.0
O80 O 0.22947 0.89674 0.74215 0.0
O81 O 0.17277 0.91232 0.75321 0.0
O82 O 0.26837 0.96909 0.68726 0.0
O83 O 0.2295 0.97301 0.71545 0.0
Co84 Co 0.74751 0.67124 0.61646 0.0
O85 O 0.68568 0.65562 0.60729 0.0
O86 O 0.70377 0.60427 0.62091 0.0
C87 C 0.76065 0.73528 0.63548 0.0
O88 O 0.80915 0.67775 0.62807 0.0
Co89 Co 0.82988 0.76782 0.60009 0.0
O90 O 0.8667 0.75211 0.62049 0.0
C91 C 0.78279 0.68755 0.57014 0.0
C92 C 0.67166 0.61288 0.6133 0.0
C93 C 0.85213 0.71192 0.62922 0.0
O94 O 0.76262 0.65942 0.58617 0.0
O95 O 0.80636 0.7324 0.57211 0.0
O96 O 0.73771 0.6938 0.64424 0.0
O97 O 0.77068 0.73592 0.6152 0.0
Co98 Co 0.07663 0.75074 0.94743 0.0
O99 O 0.03563 0.69059 0.93457 0.0
O100 O 0.10115 0.70822 0.95225 0.0
C101 C 0.01794 0.75613 0.96372 0.0
O102 O 0.12669 0.81001 0.96321 0.0
Co103 Co 0.0651 0.83677 0.93515 0.0
O104 O 0.10131 0.86244 0.96224 0.0
C105 C 0.11764 0.80677 0.90605 0.0
C106 C 0.06365 0.67682 0.94206 0.0
C107 C 0.1289 0.84871 0.96937 0.0
O108 O 0.1122 0.77397 0.91923 0.0
O109 O 0.09995 0.83343 0.90913 0.0
O110 O 0.03587 0.73302 0.9729 0.0
O111 O 0.03361 0.77223 0.94455 0.0
Co112 Co 0.33411 0.0841 0.28359 0.0
O113 O 0.34823 0.03862 0.27175 0.0
O114 O 0.40088 0.10488 0.28737 0.0
C115 C 0.27029 0.03006 0.30171 0.0
O116 O 0.32951 0.13789 0.29844 0.0
Co117 Co 0.23783 0.07644 0.27179 0.0
O118 O 0.25232 0.11577 0.29805 0.0
C119 C 0.31857 0.12224 0.24129 0.0
C120 C 0.39087 0.06468 0.27863 0.0
C121 C 0.29427 0.14229 0.30472 0.0
O122 O 0.34579 0.11654 0.25449 0.0
O123 O 0.27479 0.10693 0.2449 0.0
O124 O 0.31193 0.04699 0.31011 0.0
O125 O 0.26884 0.0436 0.28219 0.0
Co126 Co 0.24784 0.32073 0.60752 0.0
O127 O 0.31146 0.34033 0.59972 0.0
O128 O 0.28877 0.38689 0.61494 0.0
C129 C 0.23461 0.25406 0.62404 0.0
O130 O 0.18391 0.30982 0.61813 0.0
Co131 Co 0.17028 0.22699 0.58691 0.0
O132 O 0.12822 0.23825 0.60597 0.0
C133 C 0.21929 0.31248 0.56036 0.0
C134 C 0.32289 0.38138 0.60735 0.0
C135 C 0.14087 0.27591 0.61675 0.0
O136 O 0.23616 0.33768 0.57756 0.0
O137 O 0.19719 0.26743 0.56051 0.0
O138 O 0.25448 0.29365 0.63457 0.0
O139 O 0.22759 0.25689 0.60363 0.0
Co140 Co 0.92622 0.25181 0.94668 0.0
O141 O 0.97 0.31218 0.93485 0.0
O142 O 0.90328 0.29581 0.95099 0.0
C143 C 0.98176 0.24311 0.96419 0.0
O144 O 0.87341 0.19244 0.96125 0.0
Co145 Co 0.9361 0.16482 0.93414 0.0
O146 O 0.89583 0.13766 0.96001 0.0
C147 C 0.889 0.19933 0.90411 0.0
C148 C 0.94229 0.32691 0.94168 0.0
C149 C 0.86889 0.15244 0.96688 0.0
O150 O 0.89342 0.23108 0.91772 0.0
O151 O 0.90566 0.17182 0.9073 0.0
O152 O 0.96416 0.26685 0.97303 0.0
O153 O 0.9679 0.22854 0.94466 0.0
Co154 Co 0.67256 0.921 0.2785 0.0
O155 O 0.65039 0.9621 0.26894 0.0
O156 O 0.60653 0.89486 0.28632 0.0
C157 C 0.73903 0.978 0.29392 0.0
O158 O 0.68612 0.8708 0.291 0.0
Co159 Co 0.76822 0.93839 0.25871 0.0
O160 O 0.75856 0.88838 0.27932 0.0
C161 C 0.67995 0.88672 0.23355 0.0
C162 C 0.61021 0.93264 0.27742 0.0
C163 C 0.7211 0.86306 0.29017 0.0
O164 O 0.65515 0.8879 0.24946 0.0
O165 O 0.72495 0.90712 0.23369 0.0
O166 O 0.69957 0.95912 0.30452 0.0
O167 O 0.73606 0.96531 0.27389 0.0
C168 C 0.58065 0.59732 0.06707 0.0
C169 C 0.57459 0.62566 0.05181 0.0
C170 C 0.54996 0.54854 0.06783 0.0
C171 C 0.51239 0.52728 0.05281 0.0
C172 C 0.50534 0.55579 0.03765 0.0
C173 C 0.53642 0.6048 0.03741 0.0
C174 C 0.55826 0.51965 0.08451 0.0
C175 C 0.46568 0.53437 0.02135 0.0
C176 C 0.46008 0.39602 0.04162 0.0
C177 C 0.41897 0.37665 0.0542 0.0
C178 C 0.49081 0.44507 0.04093 0.0
C179 C 0.48025 0.47526 0.05322 0.0
C180 C 0.43939 0.45569 0.06633 0.0
C181 C 0.4093 0.40676 0.06663 0.0
C182 C 0.53416 0.46467 0.02678 0.0
C183 C 0.42711 0.48648 0.07989 0.0
H184 H 0.61001 0.61327 0.07832 0.0
H185 H 0.53187 0.62647 0.02546 0.0
H186 H 0.52625 0.4994 0.09459 0.0
H187 H 0.5654 0.4938 0.07623 0.0
H188 H 0.58836 0.54176 0.09541 0.0
H189 H 0.4646 0.56134 0.01083 0.0
H190 H 0.4697 0.50904 0.01088 0.0
H191 H 0.43142 0.51439 0.02987 0.0
H192 H 0.46756 0.37302 0.03185 0.0
H193 H 0.37763 0.39212 0.07644 0.0
H194 H 0.56618 0.48549 0.03679 0.0
H195 H 0.53308 0.48888 0.0145 0.0
H196 H 0.53741 0.43658 0.01824 0.0
H197 H 0.45626 0.50799 0.09131 0.0
H198 H 0.39427 0.46567 0.08942 0.0
H199 H 0.42256 0.51123 0.06925 0.0
C200 C 0.05929 0.4603 0.36855 0.0
C201 C 0.03233 0.41523 0.37747 0.0
C202 C 0.04227 0.49217 0.36839 0.0
C203 C 0.99743 0.47857 0.37745 0.0
C204 C 0.97001 0.43296 0.38625 0.0
C205 C 0.98774 0.40197 0.38615 0.0
C206 C 0.07245 0.54057 0.35882 0.0
C207 C 0.92229 0.41717 0.39625 0.0
C208 C 0.978 0.57535 0.39961 0.0
C209 C 0.95058 0.57975 0.38332 0.0
C210 C 0.99282 0.54214 0.39799 0.0
C211 C 0.98064 0.51306 0.37938 0.0
C212 C 0.95192 0.5165 0.36305 0.0
C213 C 0.9368 0.54966 0.36532 0.0
C214 C 0.02228 0.53884 0.41604 0.0
C215 C 0.93851 0.48624 0.34292 0.0
H216 H 0.09355 0.47062 0.36167 0.0
H217 H 0.96646 0.36714 0.39303 0.0
H218 H 0.05223 0.54766 0.3464 0.0
H219 H 0.08253 0.56758 0.37172 0.0
H220 H 0.10506 0.54473 0.35122 0.0
H221 H 0.90439 0.37973 0.40144 0.0
H222 H 0.92625 0.43929 0.41063 0.0
H223 H 0.89925 0.42178 0.38449 0.0
H224 H 0.98863 0.59864 0.41357 0.0
H225 H 0.91623 0.5536 0.35256 0.0
H226 H 0.0573 0.54731 0.40966 0.0
H227 H 0.00521 0.50236 0.42246 0.0
H228 H 0.02752 0.56314 0.4297 0.0
H229 H 0.97076 0.49377 0.33381 0.0
H230 H 0.91513 0.49238 0.33199 0.0
H231 H 0.92037 0.44846 0.34745 0.0
C232 C 0.40703 0.99806 0.73258 0.0
C233 C 0.37659 0.95862 0.72006 0.0
C234 C 0.45581 0.01572 0.73262 0.0
C235 C 0.47491 0.99356 0.71977 0.0
C236 C 0.44437 0.95316 0.70738 0.0
C237 C 0.39547 0.93604 0.70772 0.0
C238 C 0.48696 0.05846 0.74627 0.0
C239 C 0.46345 0.9285 0.69351 0.0
C240 C 0.60533 0.06463 0.70506 0.0
C241 C 0.62505 0.04695 0.71991 0.0
C242 C 0.55642 0.04748 0.70475 0.0
C243 C 0.52679 0.0122 0.71976 0.0
C244 C 0.54682 0.99527 0.73514 0.0
C245 C 0.59556 0.01271 0.73498 0.0
C246 C 0.53632 0.06639 0.68809 0.0
C247 C 0.51669 0.95824 0.75163 0.0
H248 H 0.39278 0.01573 0.74221 0.0
H249 H 0.37222 0.9058 0.69789 0.0
H250 H 0.50749 0.05004 0.75794 0.0
H251 H 0.51262 0.08739 0.73573 0.0
H252 H 0.46651 0.07135 0.75552 0.0
H253 H 0.43512 0.89754 0.68486 0.0
H254 H 0.48838 0.95339 0.68132 0.0
H255 H 0.48337 0.91658 0.70374 0.0
H256 H 0.62785 0.09073 0.69326 0.0
H257 H 0.61054 0.99892 0.74655 0.0
H258 H 0.51689 0.08165 0.69632 0.0
H259 H 0.51074 0.03726 0.67761 0.0
H260 H 0.56402 0.09384 0.67762 0.0
H261 H 0.49683 0.97072 0.76156 0.0
H262 H 0.53784 0.94926 0.76269 0.0
H263 H 0.49045 0.9257 0.7432 0.0
C264 C 0.60165 0.53528 0.62395 0.0
C265 C 0.62089 0.57743 0.61219 0.0
C266 C 0.55267 0.50395 0.62407 0.0
C267 C 0.52258 0.51495 0.61196 0.0
C268 C 0.54205 0.55718 0.59985 0.0
C269 C 0.59081 0.58785 0.60018 0.0
C270 C 0.53306 0.45922 0.63721 0.0
C271 C 0.51142 0.5699 0.58642 0.0
C272 C 0.4044 0.41511 0.59338 0.0
C273 C 0.37307 0.41838 0.60784 0.0
C274 C 0.45298 0.44627 0.59459 0.0
C275 C 0.47096 0.48135 0.61088 0.0
C276 C 0.43951 0.4853 0.62543 0.0
C277 C 0.39071 0.45391 0.62362 0.0
C278 C 0.48507 0.44151 0.57843 0.0
C279 C 0.45751 0.52216 0.64308 0.0
H280 H 0.62469 0.52728 0.6334 0.0
H281 H 0.6054 0.62032 0.59096 0.0
H282 H 0.50658 0.45756 0.64895 0.0
H283 H 0.51477 0.42823 0.62634 0.0
H284 H 0.5609 0.45651 0.64629 0.0
H285 H 0.53208 0.60444 0.57815 0.0
H286 H 0.49233 0.54249 0.5739 0.0
H287 H 0.48453 0.57121 0.59688 0.0
H288 H 0.39086 0.38777 0.58108 0.0
H289 H 0.36662 0.45615 0.63497 0.0
H290 H 0.51088 0.43488 0.58709 0.0
H291 H 0.50539 0.47481 0.56922 0.0
H292 H 0.46538 0.41243 0.56667 0.0
H293 H 0.48245 0.5178 0.65369 0.0
H294 H 0.42861 0.52018 0.65328 0.0
H295 H 0.47718 0.55781 0.6358 0.0
C296 C 0.93572 0.39736 0.95261 0.0
C297 C 0.95744 0.37765 0.94023 0.0
C298 C 0.95381 0.44639 0.95288 0.0
C299 C 0.99426 0.47619 0.94035 0.0
C300 C 0.01552 0.45625 0.92744 0.0
C301 C 0.99694 0.40736 0.92757 0.0
C302 C 0.93016 0.46641 0.96684 0.0
C303 C 0.05826 0.4866 0.91363 0.0
C304 C 0.01541 0.5976 0.92543 0.0
C305 C 0.05015 0.62657 0.94042 0.0
C306 C 0.99731 0.54878 0.92512 0.0
C307 C 0.01396 0.52818 0.94034 0.0
C308 C 0.0498 0.55732 0.95525 0.0
C309 C 0.06772 0.60632 0.95502 0.0
C310 C 0.95982 0.51918 0.90869 0.0
C311 C 0.06837 0.53659 0.97175 0.0
H312 H 0.90544 0.37465 0.96253 0.0
H313 H 0.01391 0.39244 0.9179 0.0
H314 H 0.95558 0.49113 0.97894 0.0
H315 H 0.91868 0.48676 0.95665 0.0
H316 H 0.89903 0.43859 0.97559 0.0
H317 H 0.07023 0.46551 0.90428 0.0
H318 H 0.05028 0.5076 0.90205 0.0
H319 H 0.0877 0.51183 0.92407 0.0
H320 H 0.00176 0.61307 0.91404 0.0
H321 H 0.0942 0.62849 0.96678 0.0
H322 H 0.92706 0.49359 0.91719 0.0
H323 H 0.97146 0.4986 0.89877 0.0
H324 H 0.9515 0.54079 0.89763 0.0
H325 H 0.03922 0.51157 0.98238 0.0
H326 H 0.09648 0.56399 0.98209 0.0
H327 H 0.08269 0.51642 0.96341 0.0
C328 C 0.47185 0.07418 0.28255 0.0
C329 C 0.42354 0.04569 0.27857 0.0
C330 C 0.50169 0.0547 0.28297 0.0
C331 C 0.48251 0.00559 0.27971 0.0
C332 C 0.43367 0.97676 0.27603 0.0
C333 C 0.40498 0.99715 0.27535 0.0
C334 C 0.55375 0.08661 0.28673 0.0
C335 C 0.41163 0.92427 0.2727 0.0
C336 C 0.56334 0.9624 0.25881 0.0
C337 C 0.57236 0.94443 0.27768 0.0
C338 C 0.53354 0.98163 0.2592 0.0
C339 C 0.51349 0.98435 0.27914 0.0
C340 C 0.52206 0.96564 0.29826 0.0
C341 C 0.55104 0.9453 0.29725 0.0
C342 C 0.52417 0.99977 0.23833 0.0
C343 C 0.50187 0.96848 0.31987 0.0
H344 H 0.48632 0.1116 0.28515 0.0
H345 H 0.36753 0.97462 0.27258 0.0
H346 H 0.56529 0.07425 0.30099 0.0
H347 H 0.5738 0.08534 0.27247 0.0
H348 H 0.56302 0.12375 0.2895 0.0
H349 H 0.3728 0.90657 0.27068 0.0
H350 H 0.42689 0.91717 0.25807 0.0
H351 H 0.41954 0.90818 0.28675 0.0
H352 H 0.5803 0.96204 0.24373 0.0
H353 H 0.55906 0.93242 0.31193 0.0
H354 H 0.5371 0.03804 0.23976 0.0
H355 H 0.48572 0.98208 0.23521 0.0
H356 H 0.54146 0.99385 0.22411 0.0
H357 H 0.51491 0.00589 0.32412 0.0
H358 H 0.5115 0.95196 0.33317 0.0
H359 H 0.46293 0.9509 0.31885 0.0
C360 C 0.31783 0.17279 0.21166 0.0
C361 C 0.33755 0.14727 0.2206 0.0
C362 C 0.32737 0.18896 0.19025 0.0
C363 C 0.35717 0.17903 0.1774 0.0
C364 C 0.38131 0.15788 0.18706 0.0
C365 C 0.37118 0.14212 0.2087 0.0
C366 C 0.30151 0.21222 0.1808 0.0
C367 C 0.41452 0.14811 0.17408 0.0
C368 C 0.3042 0.14774 0.12167 0.0
C369 C 0.32818 0.1912 0.11098 0.0
C370 C 0.31654 0.14221 0.14272 0.0
C371 C 0.35389 0.1812 0.15342 0.0
C372 C 0.38125 0.22391 0.14198 0.0
C373 C 0.36798 0.22849 0.12078 0.0
C374 C 0.2867 0.09571 0.15414 0.0
C375 C 0.42218 0.26583 0.1526 0.0
H376 H 0.29281 0.17797 0.22109 0.0
H377 H 0.38699 0.12294 0.21572 0.0
H378 H 0.32594 0.24402 0.17141 0.0
H379 H 0.27382 0.18746 0.16947 0.0
H380 H 0.28444 0.22258 0.19355 0.0
H381 H 0.43929 0.14367 0.1848 0.0
H382 H 0.3939 0.11511 0.16469 0.0
H383 H 0.43504 0.17689 0.16234 0.0
H384 H 0.27425 0.11834 0.1139 0.0
H385 H 0.38711 0.26199 0.11244 0.0
H386 H 0.26549 0.10007 0.16702 0.0
H387 H 0.30929 0.08377 0.16206 0.0
H388 H 0.26224 0.0677 0.14284 0.0
H389 H 0.4089 0.2856 0.16206 0.0
H390 H 0.44744 0.2901 0.14029 0.0
H391 H 0.44114 0.25478 0.16396 0.0
C392 C 0.15557 0.37102 0.44391 0.0
C393 C 0.11039 0.33128 0.44297 0.0
C394 C 0.18131 0.38355 0.46341 0.0
C395 C 0.16093 0.3558 0.48219 0.0
C396 C 0.11325 0.31926 0.48178 0.0
C397 C 0.08872 0.30717 0.46209 0.0
C398 C 0.23164 0.42336 0.46328 0.0
C399 C 0.08959 0.28957 0.5016 0.0
C400 C 0.22216 0.31484 0.52023 0.0
C401 C 0.21938 0.33517 0.53974 0.0
C402 C 0.20844 0.32592 0.50062 0.0
C403 C 0.19077 0.35752 0.5007 0.0
C404 C 0.19322 0.38234 0.51993 0.0
C405 C 0.20776 0.37092 0.53936 0.0
C406 C 0.20772 0.29958 0.48035 0.0
C407 C 0.17581 0.41708 0.52059 0.0
H408 H 0.17232 0.38985 0.42909 0.0
H409 H 0.05344 0.27693 0.46139 0.0
H410 H 0.24138 0.44228 0.47904 0.0
H411 H 0.25541 0.40887 0.46052 0.0
H412 H 0.23775 0.44888 0.45007 0.0
H413 H 0.05095 0.26702 0.49934 0.0
H414 H 0.10455 0.26642 0.505 0.0
H415 H 0.09605 0.31219 0.51605 0.0
H416 H 0.23191 0.28772 0.52054 0.0
H417 H 0.20578 0.38682 0.55448 0.0
H418 H 0.22169 0.32381 0.46627 0.0
H419 H 0.17085 0.27245 0.47655 0.0
H420 H 0.22874 0.28172 0.48231 0.0
H421 H 0.18331 0.43695 0.50513 0.0
H422 H 0.19207 0.44239 0.53421 0.0
H423 H 0.13709 0.39775 0.52303 0.0
C424 C 0.77449 0.14436 0.78549 0.0
C425 C 0.81256 0.14603 0.77432 0.0
C426 C 0.7804 0.16219 0.80675 0.0
C427 C 0.82521 0.18175 0.81676 0.0
C428 C 0.86463 0.18868 0.80442 0.0
C429 C 0.85773 0.17058 0.78337 0.0
C430 C 0.73789 0.15581 0.81912 0.0
C431 C 0.9133 0.21019 0.81425 0.0
C432 C 0.86404 0.232 0.87321 0.0
C433 C 0.86386 0.19371 0.88346 0.0
C434 C 0.84702 0.22776 0.85187 0.0
C435 C 0.82972 0.18436 0.84077 0.0
C436 C 0.82521 0.14457 0.85194 0.0
C437 C 0.84242 0.14981 0.87311 0.0
C438 C 0.85104 0.2706 0.84075 0.0
C439 C 0.80623 0.09729 0.84093 0.0
H440 H 0.73958 0.12593 0.77837 0.0
H441 H 0.88742 0.17298 0.77446 0.0
H442 H 0.72294 0.12275 0.82868 0.0
H443 H 0.74746 0.18528 0.83063 0.0
H444 H 0.71009 0.15323 0.80793 0.0
H445 H 0.94085 0.21864 0.80175 0.0
H446 H 0.92202 0.24287 0.82322 0.0
H447 H 0.91438 0.18508 0.82602 0.0
H448 H 0.87998 0.26588 0.88131 0.0
H449 H 0.84094 0.11977 0.88126 0.0
H450 H 0.8219 0.26083 0.82901 0.0
H451 H 0.88471 0.28874 0.83164 0.0
H452 H 0.85097 0.29591 0.85274 0.0
H453 H 0.77227 0.08702 0.83279 0.0
H454 H 0.80069 0.06903 0.85254 0.0
H455 H 0.83141 0.09956 0.82827 0.0
C456 C 0.69399 0.85566 0.11697 0.0
C457 C 0.66798 0.81312 0.10572 0.0
C458 C 0.6806 0.86182 0.13768 0.0
C459 C 0.63997 0.82447 0.14745 0.0
C460 C 0.61089 0.78322 0.13535 0.0
C461 C 0.62537 0.77788 0.11454 0.0
C462 C 0.71249 0.90683 0.14982 0.0
C463 C 0.56644 0.74331 0.14486 0.0
C464 C 0.67134 0.82891 0.20592 0.0
C465 C 0.65648 0.85914 0.21409 0.0
C466 C 0.66045 0.81179 0.1847 0.0
C467 C 0.63459 0.82593 0.17132 0.0
C468 C 0.6144 0.85151 0.18042 0.0
C469 C 0.62574 0.86808 0.2019 0.0
C470 C 0.68188 0.78369 0.17587 0.0
C471 C 0.5851 0.86561 0.1669 0.0
H472 H 0.72619 0.88367 0.10995 0.0
H473 H 0.60461 0.7452 0.10575 0.0
H474 H 0.69179 0.92188 0.15692 0.0
H475 H 0.72999 0.89922 0.16339 0.0
H476 H 0.74024 0.93387 0.13921 0.0
H477 H 0.541 0.72222 0.1319 0.0
H478 H 0.57522 0.71959 0.15404 0.0
H479 H 0.54926 0.7564 0.15623 0.0
H480 H 0.69443 0.82142 0.21565 0.0
H481 H 0.61392 0.89116 0.20842 0.0
H482 H 0.71173 0.80633 0.16498 0.0
H483 H 0.65569 0.75334 0.1662 0.0
H484 H 0.69531 0.77031 0.18903 0.0
H485 H 0.60869 0.89823 0.15779 0.0
H486 H 0.56161 0.87277 0.17725 0.0
H487 H 0.56342 0.83785 0.15491 0.0
C488 C 0.78641 0.69339 0.53004 0.0
C489 C 0.78392 0.66808 0.54876 0.0
C490 C 0.7999 0.68323 0.51015 0.0
C491 C 0.81187 0.6473 0.50911 0.0
C492 C 0.80439 0.61824 0.52741 0.0
C493 C 0.79025 0.62893 0.54714 0.0
C494 C 0.80621 0.71437 0.49087 0.0
C495 C 0.81577 0.579 0.52683 0.0
C496 C 0.8462 0.63681 0.45177 0.0
C497 C 0.8935 0.6727 0.45196 0.0
C498 C 0.81944 0.624 0.47097 0.0
C499 C 0.84089 0.64757 0.49056 0.0
C500 C 0.89001 0.67955 0.49116 0.0
C501 C 0.91565 0.69197 0.47178 0.0
C502 C 0.76746 0.5889 0.46977 0.0
C503 C 0.91465 0.70461 0.51183 0.0
H504 H 0.78065 0.72315 0.53126 0.0
H505 H 0.7881 0.60914 0.56163 0.0
H506 H 0.84436 0.73825 0.48789 0.0
H507 H 0.79092 0.6929 0.47603 0.0
H508 H 0.78948 0.73626 0.49353 0.0
H509 H 0.79621 0.55233 0.53961 0.0
H510 H 0.80742 0.56135 0.51076 0.0
H511 H 0.854 0.59382 0.52981 0.0
H512 H 0.82907 0.62158 0.43643 0.0
H513 H 0.95252 0.71903 0.47196 0.0
H514 H 0.74772 0.60805 0.46787 0.0
H515 H 0.75486 0.56758 0.48483 0.0
H516 H 0.75907 0.56492 0.45564 0.0
H517 H 0.90407 0.73093 0.5161 0.0
H518 H 0.9536 0.72323 0.51015 0.0
H519 H 0.90434 0.67935 0.52551 0.0
C520 C 0.16917 0.85972 0.87708 0.0
C521 C 0.1447 0.81433 0.88588 0.0
C522 C 0.18687 0.86716 0.85592 0.0
C523 C 0.17944 0.82808 0.84319 0.0
C524 C 0.1595 0.78288 0.85282 0.0
C525 C 0.14226 0.77646 0.87421 0.0
C526 C 0.20886 0.9162 0.84651 0.0
C527 C 0.15233 0.74064 0.83996 0.0
C528 C 0.14872 0.84769 0.78696 0.0
C529 C 0.19261 0.86832 0.77662 0.0
C530 C 0.14305 0.83014 0.80808 0.0
C531 C 0.18242 0.83352 0.81922 0.0
C532 C 0.2258 0.85022 0.80816 0.0
C533 C 0.23045 0.86753 0.78685 0.0
C534 C 0.09583 0.81191 0.81907 0.0
C535 C 0.26824 0.85328 0.81929 0.0
H536 H 0.17223 0.88925 0.88636 0.0
H537 H 0.1239 0.74137 0.88113 0.0
H538 H 0.24135 0.92481 0.83738 0.0
H539 H 0.18384 0.91809 0.83496 0.0
H540 H 0.21779 0.94335 0.85927 0.0
H541 H 0.14853 0.71186 0.8508 0.0
H542 H 0.11972 0.72712 0.83014 0.0
H543 H 0.18208 0.75013 0.82863 0.0
H544 H 0.11905 0.84708 0.77884 0.0
H545 H 0.26433 0.88296 0.77877 0.0
H546 H 0.09862 0.8372 0.83178 0.0
H547 H 0.0849 0.77775 0.82715 0.0
H548 H 0.06779 0.80706 0.80746 0.0
H549 H 0.28649 0.88654 0.8287 0.0
H550 H 0.29363 0.85336 0.8073 0.0
H551 H 0.25793 0.82364 0.83078 0.0
C552 C 0.21396 0.90663 0.97361 0.0
C553 C 0.16855 0.88348 0.98254 0.0
C554 C 0.24764 0.95199 0.98077 0.0
C555 C 0.23523 0.97421 -0.00285 0.0
C556 C 0.19139 0.94823 0.00798 0.0
C557 C 0.15849 0.9033 0.00041 0.0
C558 C 0.29428 0.97778 0.96915 0.0
C559 C 0.17681 0.96992 0.02584 0.0
C560 C 0.3067 0.09237 0.02471 0.0
C561 C 0.28773 0.11749 0.01459 0.0
C562 C 0.29438 0.0468 0.01761 0.0
C563 C 0.26238 0.02635 0.00012 0.0
C564 C 0.24838 0.05431 0.98817 0.0
C565 C 0.26095 0.09945 0.99569 0.0
C566 C 0.31121 0.01884 0.03044 0.0
C567 C 0.21514 0.03454 0.96909 0.0
H568 H 0.22155 0.89156 0.95956 0.0
H569 H 0.1232 0.88544 0.00717 0.0
H570 H 0.29174 0.9993 0.95588 0.0
H571 H 0.32282 0.00186 0.9803 0.0
H572 H 0.30397 0.95281 0.96181 0.0
H573 H 0.14457 0.94329 0.03439 0.0
H574 H 0.20548 0.98774 0.03793 0.0
H575 H 0.16962 0.99686 0.01879 0.0
H576 H 0.32691 0.10607 0.03954 0.0
H577 H 0.24596 0.11879 0.98803 0.0
H578 H 0.31658 0.99462 0.01978 0.0
H579 H 0.28425 0.99723 0.04274 0.0
H580 H 0.34462 0.04234 0.03911 0.0
H581 H 0.22633 0.01541 0.95793 0.0
H582 H 0.21313 0.06252 0.95978 0.0
H583 H 0.17928 0.00908 0.97504 0.0
C584 C 0.21733 0.31018 0.36046 0.0
C585 C 0.17289 0.28784 0.35056 0.0
C586 C 0.25264 0.30043 0.35367 0.0
C587 C 0.24268 0.2672 0.33685 0.0
C588 C 0.19944 0.24859 0.3254 0.0
C589 C 0.16504 0.25901 0.33249 0.0
C590 C 0.2986 0.3221 0.36592 0.0
C591 C 0.18721 0.21342 0.3072 0.0
C592 C 0.31847 0.22649 0.30866 0.0
C593 C 0.30086 0.18207 0.31825 0.0
C594 C 0.30457 0.2582 0.31633 0.0
C595 C 0.27208 0.24458 0.33375 0.0
C596 C 0.25963 0.20247 0.34523 0.0
C597 C 0.27417 0.17169 0.33728 0.0
C598 C 0.32012 0.30348 0.30413 0.0
C599 C 0.22563 0.1866 0.36409 0.0
H600 H 0.22309 0.33192 0.37469 0.0
H601 H 0.13038 0.24135 0.32507 0.0
H602 H 0.29638 0.29761 0.3789 0.0
H603 H 0.32827 0.32858 0.35506 0.0
H604 H 0.30634 0.3558 0.3737 0.0
H605 H 0.15456 0.2063 0.29854 0.0
H606 H 0.21636 0.2263 0.29525 0.0
H607 H 0.18192 0.1797 0.31392 0.0
H608 H 0.33865 0.23431 0.29374 0.0
H609 H 0.2602 0.13709 0.34453 0.0
H610 H 0.32431 0.33198 0.31525 0.0
H611 H 0.29302 0.29803 0.29188 0.0
H612 H 0.35389 0.31497 0.29547 0.0
H613 H 0.23516 0.21597 0.37563 0.0
H614 H 0.22477 0.15674 0.37303 0.0
H615 H 0.18963 0.1751 0.35794 0.0
C616 C 0.89954 0.13673 0.66009 0.0
C617 C 0.87937 0.15272 0.67551 0.0
C618 C 0.94179 0.16791 0.6497 0.0
C619 C 0.96462 0.21649 0.65489 0.0
C620 C 0.94205 0.23347 0.66891 0.0
C621 C 0.8995 0.2012 0.67916 0.0
C622 C 0.96404 0.14804 0.63468 0.0
C623 C 0.96456 0.28502 0.67449 0.0
C624 C 0.09559 0.26433 0.65049 0.0
C625 C 0.10324 0.27815 0.62871 0.0
C626 C 0.05137 0.24873 0.66014 0.0
C627 C 0.01427 0.24728 0.64764 0.0
C628 C 0.02379 0.26657 0.62643 0.0
C629 C 0.06806 0.28108 0.61707 0.0
C630 C 0.04294 0.22859 0.68281 0.0
C631 C 0.98588 0.26721 0.6128 0.0
H632 H 0.88393 0.09917 0.65736 0.0
H633 H 0.88426 0.21354 0.69132 0.0
H634 H 0.97409 0.16754 0.61908 0.0
H635 H 0.99665 0.15211 0.64222 0.0
H636 H 0.94012 0.11011 0.63115 0.0
H637 H 0.93828 0.29395 0.68088 0.0
H638 H 0.99174 0.29374 0.68718 0.0
H639 H 0.98221 0.30736 0.66011 0.0
H640 H 0.12264 0.26136 0.65932 0.0
H641 H 0.07397 0.29135 0.6001 0.0
H642 H 0.02162 0.18962 0.68192 0.0
H643 H 0.02286 0.24106 0.69258 0.0
H644 H 0.07642 0.23823 0.69136 0.0
H645 H 0.96308 0.23175 0.60575 0.0
H646 H 0.00113 0.29286 0.59924 0.0
H647 H 0.96327 0.27615 0.62282 0.0
C648 C 0.74374 0.90347 0.99161 0.0
C649 C 0.71306 0.88264 0.00913 0.0
C650 C 0.7557 0.94863 0.9844 0.0
C651 C 0.73689 0.97379 0.99524 0.0
C652 C 0.70149 0.95057 0.01119 0.0
C653 C 0.68993 0.90501 0.018 0.0
C654 C 0.79284 0.97139 0.96698 0.0
C655 C 0.67959 0.97545 0.02276 0.0
C656 C 0.83554 0.0992 -0.00184 0.0
C657 C 0.82766 0.11781 0.97923 0.0
C658 C 0.8028 0.05373 0.00522 0.0
C659 C 0.76157 0.02604 0.99277 0.0
C660 C 0.75073 0.04703 0.97525 0.0
C661 C 0.78413 0.09291 0.96863 0.0
C662 C 0.81547 0.03338 0.02434 0.0
C663 C 0.70668 0.01938 0.96191 0.0
H664 H 0.76182 0.88621 0.98489 0.0
H665 H 0.66663 0.88917 0.03178 0.0
H666 H 0.78234 0.98949 0.95488 0.0
H667 H 0.82644 0.99828 0.97447 0.0
H668 H 0.79931 0.94538 0.95835 0.0
H669 H 0.6446 0.9499 0.0296 0.0
H670 H 0.70273 0.99638 0.0364 0.0
H671 H 0.67553 0.99995 0.01173 0.0
H672 H 0.86946 0.11837 0.00619 0.0
H673 H 0.7783 0.10706 0.95377 0.0
H674 H 0.8265 0.00837 0.01839 0.0
H675 H 0.78461 0.01362 0.03513 0.0
H676 H 0.8448 0.06112 0.03405 0.0
H677 H 0.71288 0.99841 0.94956 0.0
H678 H 0.69697 0.04307 0.95327 0.0
H679 H 0.67665 0.99458 0.97219 0.0
C680 C 0.71163 0.81798 0.32444 0.0
C681 C 0.7201 0.82349 0.30206 0.0
C682 C 0.72727 0.79231 0.33686 0.0
C683 C 0.75225 0.77261 0.32656 0.0
C684 C 0.75491 0.77288 0.30362 0.0
C685 C 0.73866 0.79824 0.29167 0.0
C686 C 0.72217 0.79129 0.36122 0.0
C687 C 0.78104 0.75247 0.29182 0.0
C688 C 0.86474 0.7947 0.35397 0.0
C689 C 0.85377 0.74972 0.36109 0.0
C690 C 0.83167 0.80228 0.34312 0.0
C691 C 0.78586 0.76391 0.3393 0.0
C692 C 0.77428 0.71818 0.34634 0.0
C693 C 0.80859 0.71151 0.35708 0.0
C694 C 0.8462 0.8516 0.33555 0.0
C695 C 0.72562 0.67664 0.34288 0.0
H696 H 0.6971 0.83732 0.33249 0.0
H697 H 0.74463 0.80204 0.27426 0.0
H698 H 0.71576 0.75719 0.36795 0.0
H699 H 0.75528 0.81957 0.36847 0.0
H700 H 0.69292 0.79718 0.36619 0.0
H701 H 0.77211 0.74733 0.27425 0.0
H702 H 0.81951 0.77698 0.29339 0.0
H703 H 0.77321 0.71827 0.29895 0.0
H704 H 0.89969 0.82437 0.35682 0.0
H705 H 0.79976 0.67677 0.36278 0.0
H706 H 0.82302 0.86346 0.34294 0.0
H707 H 0.84236 0.852 0.31765 0.0
H708 H 0.88324 0.87744 0.33985 0.0
H709 H 0.69977 0.6817 0.35243 0.0
H710 H 0.72317 0.64295 0.3479 0.0
H711 H 0.71526 0.67399 0.32555 0.0
C712 C 0.09808 0.78939 0.68555 0.0
C713 C 0.118 0.83652 0.67911 0.0
C714 C 0.05431 0.75485 0.67709 0.0
C715 C 0.0302 0.76824 0.66213 0.0
C716 C 0.05288 0.81494 0.65401 0.0
C717 C 0.09646 0.84839 0.66261 0.0
C718 C 0.03217 0.70526 0.68569 0.0
C719 C 0.029 0.83104 0.63791 0.0
C720 C 0.9191 0.69717 0.62959 0.0
C721 C 0.88794 0.70658 0.6412 0.0
C722 C 0.96451 0.71162 0.63762 0.0
C723 C 0.97907 0.73697 0.65741 0.0
C724 C 0.94559 0.74139 0.67031 0.0
C725 C 0.90036 0.72616 0.66198 0.0
C726 C 0.99842 0.70464 0.62372 0.0
C727 C 0.95923 0.76773 0.69161 0.0
H728 H 0.11443 0.78031 0.69855 0.0
H729 H 0.11186 0.88499 0.65778 0.0
H730 H 0.00825 0.70105 0.69933 0.0
H731 H 0.01104 0.67916 0.67299 0.0
H732 H 0.0593 0.69732 0.69189 0.0
H733 H 0.05299 0.86729 0.63191 0.0
H734 H 0.01584 0.80692 0.62376 0.0
H735 H 0.9982 0.83046 0.64574 0.0
H736 H 0.90967 0.68262 0.61334 0.0
H737 H 0.87645 0.7341 0.67075 0.0
H738 H 0.02251 0.69807 0.63389 0.0
H739 H 0.02024 0.73698 0.61407 0.0
H740 H 0.97949 0.67482 0.61224 0.0
H741 H 0.97994 0.75657 0.70171 0.0
H742 H 0.92794 0.76219 0.70102 0.0
H743 H 0.98168 0.80599 0.68839 0.0
C744 C 0.03 0.20384 0.96657 0.0
C745 C 0.01753 0.23575 0.97511 0.0
C746 C 0.06698 0.19965 0.97563 0.0
C747 C 0.09243 0.22869 0.99337 0.0
C748 C 0.07901 0.25992 0.00247 0.0
C749 C 0.04137 0.26278 0.99331 0.0
C750 C 0.07974 0.16527 0.96582 0.0
C751 C 0.10564 0.29175 0.02128 0.0
C752 C 0.17247 0.20401 0.02855 0.0
C753 C 0.2168 0.23565 0.01992 0.0
C754 C 0.13132 0.19987 0.0195 0.0
C755 C 0.13487 0.22866 0.00167 0.0
C756 C 0.17946 0.25962 0.99248 0.0
C757 C 0.21994 0.26245 0.00163 0.0
C758 C 0.08424 0.16579 0.02942 0.0
C759 C 0.18462 0.29117 0.97355 0.0
H760 H 0.01134 0.18263 0.95257 0.0
H761 H 0.03181 0.28753 -8e-05 0.0
H762 H 0.11481 0.18482 0.95796 0.0
H763 H 0.08218 0.14288 0.97868 0.0
H764 H 0.05369 0.14216 0.95347 0.0
H765 H 0.08953 0.31268 0.02699 0.0
H766 H 0.10691 0.2707 0.03509 0.0
H767 H 0.14253 0.31639 0.01634 0.0
H768 H 0.16994 0.18296 0.04261 0.0
H769 H 0.25421 0.28698 0.99495 0.0
H770 H 0.0593 0.1432 0.01663 0.0
H771 H 0.06884 0.18557 0.03718 0.0
H772 H 0.08718 0.14286 0.04187 0.0
H773 H 0.16217 0.26992 0.95981 0.0
H774 H 0.2216 0.31189 0.96778 0.0
H775 H 0.1725 0.31599 0.9784 0.0
C776 C 0.78308 0.03632 0.32288 0.0
C777 C 0.78369 0.01351 0.30376 0.0
C778 C 0.82467 0.07365 0.33132 0.0
C779 C 0.86789 0.08771 0.32057 0.0
C780 C 0.86904 0.06303 0.30194 0.0
C781 C 0.8267 0.02646 0.29357 0.0
C782 C 0.82196 0.09952 0.35109 0.0
C783 C 0.9147 0.07629 0.29045 0.0
C784 C 0.95871 0.21607 0.32801 0.0
C785 C 0.98426 0.214 0.34577 0.0
C786 C 0.92165 0.1749 0.31912 0.0
C787 C 0.91093 0.13072 0.32788 0.0
C788 C 0.93874 0.12833 0.34487 0.0
C789 C 0.97478 0.1702 0.35387 0.0
C790 C 0.8922 0.1789 0.30127 0.0
C791 C 0.92918 0.08175 0.35414 0.0
H792 H 0.74982 0.0263 0.33079 0.0
H793 H 0.82724 0.00846 0.2789 0.0
H794 H 0.84636 0.10067 0.36387 0.0
H795 H 0.83308 0.13645 0.34669 0.0
H796 H 0.78586 0.08291 0.35801 0.0
H797 H 0.91031 0.05004 0.2779 0.0
H798 H 0.9283 0.11101 0.28246 0.0
H799 H 0.94174 0.07966 0.3023 0.0
H800 H 0.96598 0.25 0.32181 0.0
H801 H 0.99493 0.16866 0.36749 0.0
H802 H 0.85582 0.16589 0.30727 0.0
H803 H 0.88984 0.15666 0.28722 0.0
H804 H 0.90668 0.21572 0.29556 0.0
H805 H 0.896 0.06583 0.36365 0.0
H806 H 0.95804 0.08569 0.36499 0.0
H807 H 0.92453 0.05681 0.3409 0.0
C808 C 0.74187 0.77431 0.66524 0.0
C809 C 0.76901 0.77804 0.64699 0.0
C810 C 0.7441 0.81439 0.67448 0.0
C811 C 0.77501 0.85918 0.66548 0.0
C812 C 0.80479 0.86338 0.64795 0.0
C813 C 0.80102 0.82256 0.63872 0.0
C814 C 0.71135 0.8085 0.693 0.0
C815 C 0.83904 0.91072 0.63834 0.0
C816 C 0.73648 0.94971 0.67173 0.0
C817 C 0.76197 0.97448 0.6901 0.0
C818 C 0.74129 0.91271 0.66324 0.0
C819 C 0.7729 0.90085 0.67322 0.0
C820 C 0.80015 0.92699 0.69125 0.0
C821 C 0.79403 0.96333 0.69963 0.0
C822 C 0.71131 0.88529 0.64407 0.0
C823 C 0.83487 0.91584 0.70199 0.0
H824 H 0.71702 0.73984 0.67162 0.0
H825 H 0.82236 0.82543 0.62471 0.0
H826 H 0.73141 0.83174 0.70675 0.0
H827 H 0.68565 0.81906 0.68757 0.0
H828 H 0.69155 0.77161 0.69894 0.0
H829 H 0.86383 0.90845 0.62676 0.0
H830 H 0.81935 0.92507 0.62959 0.0
H831 H 0.85968 0.93612 0.65137 0.0
H832 H 0.7117 0.95832 0.66433 0.0
H833 H 0.81406 0.98271 0.71376 0.0
H834 H 0.68764 0.84807 0.64885 0.0
H835 H 0.73393 0.88529 0.63067 0.0
H836 H 0.68943 0.8999 0.63785 0.0
H837 H 0.81571 0.88069 0.70979 0.0
H838 H 0.85638 0.94223 0.71455 0.0
H839 H 0.85882 0.91438 0.68967 0.0
C840 C 0.77627 0.73342 -0.00074 0.0
C841 C 0.7793 0.76092 0.01725 0.0
C842 C 0.81678 0.73573 0.99042 0.0
C843 C 0.8613 0.76685 -0.00036 0.0
C844 C 0.86473 0.79608 0.01726 0.0
C845 C 0.82356 0.79248 0.02599 0.0
C846 C 0.81177 0.70371 0.97172 0.0
C847 C 0.91172 0.83026 0.02724 0.0
C848 C 0.95626 0.73441 0.99203 0.0
C849 C 0.98056 0.76188 0.97401 0.0
C850 C 0.91779 0.73632 0.00079 0.0
C851 C 0.90391 0.767 0.99146 0.0
C852 C 0.92951 0.79618 0.97379 0.0
C853 C 0.96739 0.79299 0.96514 0.0
C854 C 0.89103 0.70438 0.01954 0.0
C855 C 0.91618 0.8299 0.96371 0.0
H856 H 0.74206 0.70891 0.9925 0.0
H857 H 0.82602 0.81403 0.03984 0.0
H858 H 0.83415 0.72465 0.9579 0.0
H859 H 0.82408 0.67917 0.97679 0.0
H860 H 0.77479 0.68268 0.96597 0.0
H861 H 0.90864 0.85302 0.03974 0.0
H862 H 0.92732 0.8106 0.03493 0.0
H863 H 0.93658 0.85304 0.01447 0.0
H864 H 0.96634 0.71025 -0.00112 0.0
H865 H 0.98634 0.81449 0.95128 0.0
H866 H 0.85421 0.67963 0.01452 0.0
H867 H 0.88949 0.72536 0.03333 0.0
H868 H 0.90722 0.68358 0.02531 0.0
H869 H 0.88088 0.80986 0.95609 0.0
H870 H 0.9418 0.85258 0.95113 0.0
H871 H 0.91397 0.85276 0.9764 0.0
C872 C 0.04852 0.79369 0.33749 0.0
C873 C 0.03078 0.79473 0.35804 0.0
C874 C 0.0853 0.83463 0.32829 0.0
C875 C 0.10405 0.87762 0.33983 0.0
C876 C 0.08459 0.87932 0.3601 0.0
C877 C 0.04837 0.83763 0.36908 0.0
C878 C 0.10556 0.8314 0.30674 0.0
C879 C 0.10312 0.9248 0.3726 0.0
C880 C 0.23184 0.96564 0.32861 0.0
C881 C 0.22788 0.99434 0.31292 0.0
C882 C 0.19165 0.92792 0.33778 0.0
C883 C 0.14661 0.91972 0.33152 0.0
C884 C 0.1425 0.95008 0.31646 0.0
C885 C 0.18334 0.98676 0.30705 0.0
C886 C 0.19737 0.89564 0.35345 0.0
C887 C 0.09502 0.94307 0.30989 0.0
H888 H 0.03487 0.76052 0.32891 0.0
H889 H 0.03432 0.83856 0.3849 0.0
H890 H 0.10603 0.85753 0.29516 0.0
H891 H 0.14255 0.83979 0.30902 0.0
H892 H 0.08531 0.79582 0.29935 0.0
H893 H 0.08073 0.92113 0.38685 0.0
H894 H 0.1393 0.93633 0.37844 0.0
H895 H 0.10522 0.95302 0.3619 0.0
H896 H 0.26635 0.97136 0.33301 0.0
H897 H 0.1804 0.00926 0.295 0.0
H898 H 0.18077 0.85956 0.34656 0.0
H899 H 0.17922 0.89344 0.36898 0.0
H900 H 0.23494 0.90759 0.35697 0.0
H901 H 0.0754 0.9099 0.30052 0.0
H902 H 0.09816 0.97254 0.29976 0.0
H903 H 0.07377 0.93975 0.32451 0.0
C904 C 0.27805 0.06664 0.68089 0.0
C905 C 0.23849 0.02285 0.68505 0.0
C906 C 0.27332 0.10258 0.67109 0.0
C907 C 0.22802 0.09371 0.6648 0.0
C908 C 0.18799 0.04907 0.6687 0.0
C909 C 0.19369 0.01421 0.67913 0.0
C910 C 0.31671 0.15007 0.66759 0.0
C911 C 0.13936 0.03814 0.66178 0.0
C912 C 0.21992 0.20375 0.65658 0.0
C913 C 0.22638 0.21002 0.6341 0.0
C914 C 0.21751 0.16433 0.6667 0.0
C915 C 0.22302 0.13136 0.65403 0.0
C916 C 0.22784 0.13673 0.6312 0.0
C917 C 0.22887 0.17583 0.62145 0.0
C918 C 0.21123 0.15911 0.69103 0.0
C919 C 0.23454 0.10265 0.61722 0.0
H920 H 0.31258 0.07301 0.68573 0.0
H921 H 0.16327 0.98006 0.6823 0.0
H922 H 0.32119 0.15888 0.65003 0.0
H923 H 0.31264 0.17774 0.67604 0.0
H924 H 0.3492 0.15126 0.67369 0.0
H925 H 0.11204 0.00141 0.66574 0.0
H926 H 0.13004 0.06263 0.66988 0.0
H927 H 0.13875 0.04346 0.64401 0.0
H928 H 0.21756 0.23011 0.66628 0.0
H929 H 0.23415 0.18093 0.60406 0.0
H930 H 0.24422 0.16443 0.69865 0.0
H931 H 0.18293 0.12306 0.69527 0.0
H932 H 0.20237 0.18487 0.69814 0.0
H933 H 0.26883 0.10528 0.62115 0.0
H934 H 0.23407 0.10975 0.5996 0.0
H935 H 0.20663 0.06594 0.62063 0.0
loop_
_geom_bond_atom_site_label_1
_geom_bond_atom_site_label_2
_geom_bond_distance
_geom_bond_site_symmetry_2
_ccdc_geom_bond_type
Co0 O1 2.216 . S
Co0 O2 2.091 . S
Co0 O4 2.004 . S
Co0 O10 2.021 . S
Co0 O12 2.137 . S
Co0 O13 2.244 . S
O1 Co0 2.216 . S
O1 C8 1.247 . S
O2 Co0 2.091 . S
O2 C8 1.261 . S
C3 O12 1.247 . S
C3 O13 1.272 . S
O4 Co0 2.004 . S
O4 C9 1.259 . S
Co5 O6 2.061 . S
Co5 O11 2.052 . S
Co5 O13 2.135 . S
O6 Co5 2.061 . S
O6 C9 1.235 . S
C7 O10 1.238 . S
C7 O11 1.241 . S
C8 O1 1.247 . S
C8 O2 1.261 . S
C9 O4 1.259 . S
C9 O6 1.235 . S
O10 Co0 2.021 . S
O10 C7 1.238 . S
O11 Co5 2.052 . S
O11 C7 1.241 . S
O12 Co0 2.137 . S
O12 C3 1.247 . S
O13 Co0 2.244 . S
O13 C3 1.272 . S
O13 Co5 2.135 . S
Co14 O15 2.216 . S
Co14 O16 2.091 . S
Co14 O18 2.004 . S
Co14 O24 2.021 . S
Co14 O26 2.137 . S
Co14 O27 2.244 . S
O15 Co14 2.216 . S
O15 C22 1.247 . S
O16 Co14 2.091 . S
O16 C22 1.261 . S
C17 O26 1.247 . S
C17 O27 1.272 . S
O18 Co14 2.004 . S
O18 C23 1.259 . S
Co19 O20 2.061 . S
Co19 O25 2.052 . S
Co19 O27 2.135 . S
O20 Co19 2.061 . S
O20 C23 1.235 . S
C21 O24 1.238 . S
C21 O25 1.241 . S
C22 O15 1.247 . S
C22 O16 1.261 . S
C23 O18 1.259 . S
C23 O20 1.235 . S
O24 Co14 2.021 . S
O24 C21 1.238 . S
O25 Co19 2.052 . S
O25 C21 1.241 . S
O26 Co14 2.137 . S
O26 C17 1.247 . S
O27 Co14 2.244 . S
O27 C17 1.272 . S
O27 Co19 2.135 . S
Co28 O29 2.216 . S
Co28 O30 2.091 . S
Co28 O32 2.004 . S
Co28 O38 2.021 . S
Co28 O40 2.137 . S
Co28 O41 2.244 . S
O29 Co28 2.216 . S
O29 C36 1.247 . S
O30 Co28 2.091 . S
O30 C36 1.261 . S
C31 O40 1.247 . S
C31 O41 1.272 . S
O32 Co28 2.004 . S
O32 C37 1.259 . S
Co33 O34 2.061 . S
Co33 O39 2.052 . S
Co33 O41 2.135 . S
O34 Co33 2.061 . S
O34 C37 1.235 . S
C35 O38 1.238 . S
C35 O39 1.241 . S
C36 O29 1.247 . S
C36 O30 1.261 . S
C37 O32 1.259 . S
C37 O34 1.235 . S
O38 Co28 2.021 . S
O38 C35 1.238 . S
O39 Co33 2.052 . S
O39 C35 1.241 . S
O40 Co28 2.137 . S
O40 C31 1.247 . S
O41 Co28 2.244 . S
O41 C31 1.272 . S
O41 Co33 2.135 . S
Co42 O43 2.216 . S
Co42 O44 2.091 . S
Co42 O46 2.004 . S
Co42 O52 2.021 . S
Co42 O54 2.137 . S
Co42 O55 2.244 . S
O43 Co42 2.216 . S
O43 C50 1.247 . S
O44 Co42 2.091 . S
O44 C50 1.261 . S
C45 O54 1.247 . S
C45 O55 1.272 . S
O46 Co42 2.004 . S
O46 C51 1.259 . S
Co47 O48 2.061 . S
Co47 O53 2.052 . S
Co47 O55 2.135 . S
O48 Co47 2.061 . S
O48 C51 1.235 . S
C49 O52 1.238 . S
C49 O53 1.241 . S
C50 O43 1.247 . S
C50 O44 1.261 . S
C51 O46 1.259 . S
C51 O48 1.235 . S
O52 Co42 2.021 . S
O52 C49 1.238 . S
O53 Co47 2.052 . S
O53 C49 1.241 . S
O54 Co42 2.137 . S
O54 C45 1.247 . S
O55 Co42 2.244 . S
O55 C45 1.272 . S
O55 Co47 2.135 . S
Co56 O57 2.216 . S
Co56 O58 2.091 . S
Co56 O60 2.004 . S
Co56 O66 2.021 . S
Co56 O68 2.137 . S
Co56 O69 2.244 . S
O57 Co56 2.216 . S
O57 C64 1.247 . S
O58 Co56 2.091 . S
O58 C64 1.261 . S
C59 O68 1.247 . S
C59 O69 1.272 . S
O60 Co56 2.004 . S
O60 C65 1.259 . S
Co61 O62 2.061 . S
Co61 O67 2.052 . S
Co61 O69 2.135 . S
O62 Co61 2.061 . S
O62 C65 1.235 . S
C63 O66 1.238 . S
C63 O67 1.241 . S
C64 O57 1.247 . S
C64 O58 1.261 . S
C65 O60 1.259 . S
C65 O62 1.235 . S
O66 Co56 2.021 . S
O66 C63 1.238 . S
O67 Co61 2.052 . S
O67 C63 1.241 . S
O68 Co56 2.137 . S
O68 C59 1.247 . S
O69 Co56 2.244 . S
O69 C59 1.272 . S
O69 Co61 2.135 . S
Co70 O71 2.216 . S
Co70 O72 2.091 . S
Co70 O74 2.004 . S
Co70 O80 2.021 . S
Co70 O82 2.137 . S
Co70 O83 2.244 . S
O71 Co70 2.216 . S
O71 C78 1.247 . S
O72 Co70 2.091 . S
O72 C78 1.261 . S
C73 O82 1.247 . S
C73 O83 1.272 . S
O74 Co70 2.004 . S
O74 C79 1.259 . S
Co75 O76 2.061 . S
Co75 O81 2.052 . S
Co75 O83 2.135 . S
O76 Co75 2.061 . S
O76 C79 1.235 . S
C77 O80 1.238 . S
C77 O81 1.241 . S
C78 O71 1.247 . S
C78 O72 1.261 . S
C79 O74 1.259 . S
C79 O76 1.235 . S
O80 Co70 2.021 . S
O80 C77 1.238 . S
O81 Co75 2.052 . S
O81 C77 1.241 . S
O82 Co70 2.137 . S
O82 C73 1.247 . S
O83 Co70 2.244 . S
O83 C73 1.272 . S
O83 Co75 2.135 . S
Co84 O85 2.216 . S
Co84 O86 2.091 . S
Co84 O88 2.004 . S
Co84 O94 2.021 . S
Co84 O96 2.137 . S
Co84 O97 2.244 . S
O85 Co84 2.216 . S
O85 C92 1.247 . S
O86 Co84 2.091 . S
O86 C92 1.261 . S
C87 O96 1.247 . S
C87 O97 1.272 . S
O88 Co84 2.004 . S
O88 C93 1.259 . S
Co89 O90 2.061 . S
Co89 O95 2.052 . S
Co89 O97 2.135 . S
O90 Co89 2.061 . S
O90 C93 1.235 . S
C91 O94 1.238 . S
C91 O95 1.241 . S
C92 O85 1.247 . S
C92 O86 1.261 . S
C93 O88 1.259 . S
C93 O90 1.235 . S
O94 Co84 2.021 . S
O94 C91 1.238 . S
O95 Co89 2.052 . S
O95 C91 1.241 . S
O96 Co84 2.137 . S
O96 C87 1.247 . S
O97 Co84 2.244 . S
O97 C87 1.272 . S
O97 Co89 2.135 . S
Co98 O99 2.216 . S
Co98 O100 2.091 . S
Co98 O102 2.004 . S
Co98 O108 2.021 . S
Co98 O110 2.137 . S
Co98 O111 2.244 . S
O99 Co98 2.216 . S
O99 C106 1.247 . S
O100 Co98 2.091 . S
O100 C106 1.261 . S
C101 O110 1.247 . S
C101 O111 1.272 . S
O102 Co98 2.004 . S
O102 C107 1.259 . S
Co103 O104 2.061 . S
Co103 O109 2.052 . S
Co103 O111 2.135 . S
O104 Co103 2.061 . S
O104 C107 1.235 . S
C105 O108 1.238 . S
C105 O109 1.241 . S
C106 O99 1.247 . S
C106 O100 1.261 . S
C107 O102 1.259 . S
C107 O104 1.235 . S
O108 Co98 2.021 . S
O108 C105 1.238 . S
O109 Co103 2.052 . S
O109 C105 1.241 . S
O110 Co98 2.137 . S
O110 C101 1.247 . S
O111 Co98 2.244 . S
O111 C101 1.272 . S
O111 Co103 2.135 . S
Co112 O113 2.216 . S
Co112 O114 2.091 . S
Co112 O116 2.004 . S
Co112 O122 2.021 . S
Co112 O124 2.137 . S
Co112 O125 2.244 . S
O113 Co112 2.216 . S
O113 C120 1.247 . S
O114 Co112 2.091 . S
O114 C120 1.261 . S
C115 O124 1.247 . S
C115 O125 1.272 . S
O116 Co112 2.004 . S
O116 C121 1.259 . S
Co117 O118 2.061 . S
Co117 O123 2.052 . S
Co117 O125 2.135 . S
O118 Co117 2.061 . S
O118 C121 1.235 . S
C119 O122 1.238 . S
C119 O123 1.241 . S
C120 O113 1.247 . S
C120 O114 1.261 . S
C121 O116 1.259 . S
C121 O118 1.235 . S
O122 Co112 2.021 . S
O122 C119 1.238 . S
O123 Co117 2.052 . S
O123 C119 1.241 . S
O124 Co112 2.137 . S
O124 C115 1.247 . S
O125 Co112 2.244 . S
O125 C115 1.272 . S
O125 Co117 2.135 . S
Co126 O127 2.216 . S
Co126 O128 2.091 . S
Co126 O130 2.004 . S
Co126 O136 2.021 . S
Co126 O138 2.137 . S
Co126 O139 2.244 . S
O127 Co126 2.216 . S
O127 C134 1.247 . S
O128 Co126 2.091 . S
O128 C134 1.261 . S
C129 O138 1.247 . S
C129 O139 1.272 . S
O130 Co126 2.004 . S
O130 C135 1.259 . S
Co131 O132 2.061 . S
Co131 O137 2.052 . S
Co131 O139 2.135 . S
O132 Co131 2.061 . S
O132 C135 1.235 . S
C133 O136 1.238 . S
C133 O137 1.241 . S
C134 O127 1.247 . S
C134 O128 1.261 . S
C135 O130 1.259 . S
C135 O132 1.235 . S
O136 Co126 2.021 . S
O136 C133 1.238 . S
O137 Co131 2.052 . S
O137 C133 1.241 . S
O138 Co126 2.137 . S
O138 C129 1.247 . S
O139 Co126 2.244 . S
O139 C129 1.272 . S
O139 Co131 2.135 . S
Co140 O141 2.216 . S
Co140 O142 2.091 . S
Co140 O144 2.004 . S
Co140 O150 2.021 . S
Co140 O152 2.137 . S
Co140 O153 2.244 . S
O141 Co140 2.216 . S
O141 C148 1.247 . S
O142 Co140 2.091 . S
O142 C148 1.261 . S
C143 O152 1.247 . S
C143 O153 1.272 . S
O144 Co140 2.004 . S
O144 C149 1.259 . S
Co145 O146 2.061 . S
Co145 O151 2.052 . S
Co145 O153 2.135 . S
O146 Co145 2.061 . S
O146 C149 1.235 . S
C147 O150 1.238 . S
C147 O151 1.241 . S
C148 O141 1.247 . S
C148 O142 1.261 . S
C149 O144 1.259 . S
C149 O146 1.235 . S
O150 Co140 2.021 . S
O150 C147 1.238 . S
O151 Co145 2.052 . S
O151 C147 1.241 . S
O152 Co140 2.137 . S
O152 C143 1.247 . S
O153 Co140 2.244 . S
O153 C143 1.272 . S
O153 Co145 2.135 . S
Co154 O155 2.216 . S
Co154 O156 2.091 . S
Co154 O158 2.004 . S
Co154 O164 2.021 . S
Co154 O166 2.137 . S
Co154 O167 2.244 . S
O155 Co154 2.216 . S
O155 C162 1.247 . S
O156 Co154 2.091 . S
O156 C162 1.261 . S
C157 O166 1.247 . S
C157 O167 1.272 . S
O158 Co154 2.004 . S
O158 C163 1.259 . S
Co159 O160 2.061 . S
Co159 O165 2.052 . S
Co159 O167 2.135 . S
O160 Co159 2.061 . S
O160 C163 1.235 . S
C161 O164 1.238 . S
C161 O165 1.241 . S
C162 O155 1.247 . S
C162 O156 1.261 . S
C163 O158 1.259 . S
C163 O160 1.235 . S
O164 Co154 2.021 . S
O164 C161 1.238 . S
O165 Co159 2.052 . S
O165 C161 1.241 . S
O166 Co154 2.137 . S
O166 C157 1.247 . S
O167 Co154 2.244 . S
O167 C157 1.272 . S
O167 Co159 2.135 . S
C168 C169 1.391 . S
C168 C170 1.394 . S
C168 H184 0.931 . S
C169 C168 1.391 . S
C169 C173 1.376 . S
C170 C168 1.394 . S
C170 C171 1.369 . S
C170 C174 1.531 . S
C171 C170 1.369 . S
C171 C172 1.410 . S
C171 C179 1.503 . S
C172 C171 1.410 . S
C172 C173 1.392 . S
C172 C175 1.511 . S
C173 C169 1.376 . S
C173 C172 1.392 . S
C173 H185 0.929 . S
C174 C170 1.531 . S
C174 H186 0.960 . S
C174 H187 0.962 . S
C174 H188 0.960 . S
C175 C172 1.511 . S
C175 H189 0.961 1_554 S
C175 H190 0.961 . S
C175 H191 0.961 . S
C176 C177 1.370 . S
C176 C178 1.363 . S
C176 H192 0.931 . S
C177 C176 1.370 . S
C177 C181 1.408 . S
C178 C176 1.363 . S
C178 C179 1.370 . S
C178 C182 1.524 . S
C179 C171 1.503 . S
C179 C178 1.370 . S
C179 C180 1.403 . S
C180 C179 1.403 . S
C180 C181 1.404 . S
C180 C183 1.539 . S
C181 C177 1.408 . S
C181 C180 1.404 . S
C181 H193 0.930 . S
C182 C178 1.524 . S
C182 H194 0.956 . S
C182 H195 0.961 . S
C182 H196 0.961 . S
C183 C180 1.539 . S
C183 H197 0.958 . S
C183 H198 0.961 . S
C183 H199 0.960 . S
H184 C168 0.931 . S
H185 C173 0.929 . S
H186 C174 0.960 . S
H187 C174 0.962 . S
H188 C174 0.960 . S
H189 C175 0.961 1_556 S
H190 C175 0.961 . S
H191 C175 0.961 . S
H192 C176 0.931 . S
H193 C181 0.930 . S
H194 C182 0.956 . S
H195 C182 0.961 . S
H196 C182 0.961 . S
H197 C183 0.958 . S
H198 C183 0.961 . S
H199 C183 0.960 . S
C200 C201 1.391 . S
C200 C202 1.394 . S
C200 H216 0.931 . S
C201 C200 1.391 . S
C201 C205 1.376 . S
C202 C200 1.394 . S
C202 C203 1.369 . S
C202 C206 1.531 . S
C203 C202 1.369 . S
C203 C204 1.410 1_455 S
C203 C211 1.503 1_455 S
C204 C203 1.410 1_655 S
C204 C205 1.392 1_655 S
C204 C207 1.511 . S
C205 C201 1.376 . S
C205 C204 1.392 1_455 S
C205 H217 0.929 1_455 S
C206 C202 1.531 . S
C206 H218 0.960 . S
C206 H219 0.962 . S
C206 H220 0.960 . S
C207 C204 1.511 . S
C207 H221 0.961 . S
C207 H222 0.961 . S
C207 H223 0.961 . S
C208 C209 1.370 . S
C208 C210 1.363 . S
C208 H224 0.931 . S
C209 C208 1.370 . S
C209 C213 1.408 . S
C210 C208 1.363 . S
C210 C211 1.370 . S
C210 C214 1.524 . S
C211 C203 1.503 1_655 S
C211 C210 1.370 . S
C211 C212 1.403 . S
C212 C211 1.403 . S
C212 C213 1.404 . S
C212 C215 1.539 . S
C213 C209 1.408 . S
C213 C212 1.404 . S
C213 H225 0.930 . S
C214 C210 1.524 . S
C214 H226 0.956 1_655 S
C214 H227 0.961 . S
C214 H228 0.961 . S
C215 C212 1.539 . S
C215 H229 0.958 1_655 S
C215 H230 0.961 . S
C215 H231 0.960 . S
H216 C200 0.931 . S
H217 C205 0.929 1_655 S
H218 C206 0.960 . S
H219 C206 0.962 . S
H220 C206 0.960 . S
H221 C207 0.961 . S
H222 C207 0.961 . S
H223 C207 0.961 . S
H224 C208 0.931 . S
H225 C213 0.930 . S
H226 C214 0.956 1_455 S
H227 C214 0.961 . S
H228 C214 0.961 . S
H229 C215 0.958 1_455 S
H230 C215 0.961 . S
H231 C215 0.960 . S
C232 C233 1.391 . S
C232 C234 1.394 1_565 S
C232 H248 0.931 1_565 S
C233 C232 1.391 . S
C233 C237 1.376 . S
C234 C232 1.394 1_545 S
C234 C235 1.369 1_545 S
C234 C238 1.531 . S
C235 C234 1.369 1_565 S
C235 C236 1.410 . S
C235 C243 1.503 1_565 S
C236 C235 1.410 . S
C236 C237 1.392 . S
C236 C239 1.511 . S
C237 C233 1.376 . S
C237 C236 1.392 . S
C237 H249 0.929 . S
C238 C234 1.531 . S
C238 H250 0.960 . S
C238 H251 0.962 . S
C238 H252 0.960 . S
C239 C236 1.511 . S
C239 H253 0.961 . S
C239 H254 0.961 . S
C239 H255 0.961 . S
C240 C241 1.370 . S
C240 C242 1.363 . S
C240 H256 0.931 . S
C241 C240 1.370 . S
C241 C245 1.408 . S
C242 C240 1.363 . S
C242 C243 1.370 . S
C242 C246 1.524 . S
C243 C235 1.503 1_545 S
C243 C242 1.370 . S
C243 C244 1.403 . S
C244 C243 1.403 . S
C244 C245 1.404 . S
C244 C247 1.539 1_545 S
C245 C241 1.408 . S
C245 C244 1.404 . S
C245 H257 0.930 . S
C246 C242 1.524 . S
C246 H258 0.956 . S
C246 H259 0.961 1_545 S
C246 H260 0.961 . S
C247 C244 1.539 1_565 S
C247 H261 0.958 1_565 S
C247 H262 0.961 . S
C247 H263 0.960 . S
H248 C232 0.931 1_545 S
H249 C237 0.929 . S
H250 C238 0.960 . S
H251 C238 0.962 . S
H252 C238 0.960 . S
H253 C239 0.961 . S
H254 C239 0.961 . S
H255 C239 0.961 . S
H256 C240 0.931 . S
H257 C245 0.930 . S
H258 C246 0.956 . S
H259 C246 0.961 1_565 S
H260 C246 0.961 . S
H261 C247 0.958 1_545 S
H262 C247 0.961 . S
H263 C247 0.960 . S
C264 C265 1.391 . S
C264 C266 1.394 . S
C264 H280 0.931 . S
C265 C264 1.391 . S
C265 C269 1.376 . S
C266 C264 1.394 . S
C266 C267 1.369 . S
C266 C270 1.531 . S
C267 C266 1.369 . S
C267 C268 1.410 . S
C267 C275 1.503 . S
C268 C267 1.410 . S
C268 C269 1.392 . S
C268 C271 1.511 . S
C269 C265 1.376 . S
C269 C268 1.392 . S
C269 H281 0.929 . S
C270 C266 1.531 . S
C270 H282 0.960 . S
C270 H283 0.962 . S
C270 H284 0.960 . S
C271 C268 1.511 . S
C271 H285 0.961 . S
C271 H286 0.961 . S
C271 H287 0.961 . S
C272 C273 1.370 . S
C272 C274 1.363 . S
C272 H288 0.931 . S
C273 C272 1.370 . S
C273 C277 1.408 . S
C274 C272 1.363 . S
C274 C275 1.370 . S
C274 C278 1.524 . S
C275 C267 1.503 . S
C275 C274 1.370 . S
C275 C276 1.403 . S
C276 C275 1.403 . S
C276 C277 1.404 . S
C276 C279 1.539 . S
C277 C273 1.408 . S
C277 C276 1.404 . S
C277 H289 0.930 . S
C278 C274 1.524 . S
C278 H290 0.956 . S
C278 H291 0.961 . S
C278 H292 0.961 . S
C279 C276 1.539 . S
C279 H293 0.958 . S
C279 H294 0.961 . S
C279 H295 0.960 . S
H280 C264 0.931 . S
H281 C269 0.929 . S
H282 C270 0.960 . S
H283 C270 0.962 . S
H284 C270 0.960 . S
H285 C271 0.961 . S
H286 C271 0.961 . S
H287 C271 0.961 . S
H288 C272 0.931 . S
H289 C277 0.930 . S
H290 C278 0.956 . S
H291 C278 0.961 . S
H292 C278 0.961 . S
H293 C279 0.958 . S
H294 C279 0.961 . S
H295 C279 0.960 . S
C296 C297 1.391 . S
C296 C298 1.394 . S
C296 H312 0.931 . S
C297 C296 1.391 . S
C297 C301 1.376 . S
C298 C296 1.394 . S
C298 C299 1.369 . S
C298 C302 1.531 . S
C299 C298 1.369 . S
C299 C300 1.410 1_655 S
C299 C307 1.503 1_655 S
C300 C299 1.410 1_455 S
C300 C301 1.392 1_455 S
C300 C303 1.511 . S
C301 C297 1.376 . S
C301 C300 1.392 1_655 S
C301 H313 0.929 1_655 S
C302 C298 1.531 . S
C302 H314 0.960 . S
C302 H315 0.962 . S
C302 H316 0.960 . S
C303 C300 1.511 . S
C303 H317 0.961 . S
C303 H318 0.961 . S
C303 H319 0.961 . S
C304 C305 1.370 . S
C304 C306 1.363 . S
C304 H320 0.931 . S
C305 C304 1.370 . S
C305 C309 1.408 . S
C306 C304 1.363 . S
C306 C307 1.370 . S
C306 C310 1.524 1_455 S
C307 C299 1.503 1_455 S
C307 C306 1.370 . S
C307 C308 1.403 . S
C308 C307 1.403 . S
C308 C309 1.404 . S
C308 C311 1.584 . S
C309 C305 1.408 . S
C309 C308 1.404 . S
C309 H321 0.930 . S
C310 C306 1.524 1_655 S
C310 H322 0.956 . S
C310 H323 0.961 1_655 S
C310 H324 0.961 1_655 S
C311 C308 1.584 . S
C311 H325 0.932 1_556 S
C311 H326 0.937 1_556 S
C311 H327 0.969 . S
H312 C296 0.931 . S
H313 C301 0.929 1_455 S
H314 C302 0.960 . S
H315 C302 0.962 . S
H316 C302 0.960 . S
H317 C303 0.961 . S
H318 C303 0.961 . S
H319 C303 0.961 . S
H320 C304 0.931 . S
H321 C309 0.930 . S
H322 C310 0.956 . S
H323 C310 0.961 1_455 S
H324 C310 0.961 1_455 S
H325 C311 0.932 1_554 S
H326 C311 0.937 1_554 S
H327 C311 0.969 . S
C328 C329 1.391 . S
C328 C330 1.394 . S
C328 H344 0.931 . S
C329 C328 1.391 . S
C329 C333 1.376 . S
C330 C328 1.394 . S
C330 C331 1.369 . S
C330 C334 1.531 . S
C331 C330 1.369 . S
C331 C332 1.409 . S
C331 C339 1.503 1_545 S
C332 C331 1.409 . S
C332 C333 1.396 . S
C332 C335 1.508 1_545 S
C333 C329 1.376 . S
C333 C332 1.396 . S
C333 H345 0.929 . S
C334 C330 1.531 . S
C334 H346 0.960 . S
C334 H347 0.962 . S
C334 H348 0.960 . S
C335 C332 1.508 1_565 S
C335 H349 0.961 . S
C335 H350 0.961 . S
C335 H351 0.961 . S
C336 C337 1.370 . S
C336 C338 1.363 . S
C336 H352 0.931 . S
C337 C336 1.370 . S
C337 C341 1.408 . S
C338 C336 1.363 . S
C338 C339 1.370 . S
C338 C342 1.524 . S
C339 C331 1.503 1_565 S
C339 C338 1.370 . S
C339 C340 1.403 1_565 S
C340 C339 1.403 1_545 S
C340 C341 1.404 1_545 S
C340 C343 1.539 . S
C341 C337 1.408 . S
C341 C340 1.404 1_565 S
C341 H353 0.930 . S
C342 C338 1.524 . S
C342 H354 0.956 . S
C342 H355 0.961 . S
C342 H356 0.961 . S
C343 C340 1.539 . S
C343 H357 0.958 . S
C343 H358 0.961 . S
C343 H359 0.960 . S
H344 C328 0.931 . S
H345 C333 0.929 . S
H346 C334 0.960 . S
H347 C334 0.962 . S
H348 C334 0.960 . S
H349 C335 0.961 . S
H350 C335 0.961 . S
H351 C335 0.961 . S
H352 C336 0.931 . S
H353 C341 0.930 . S
H354 C342 0.956 . S
H355 C342 0.961 . S
H356 C342 0.961 . S
H357 C343 0.958 . S
H358 C343 0.961 . S
H359 C343 0.960 . S
C360 C361 1.391 . S
C360 C362 1.394 . S
C360 H376 0.931 . S
C361 C360 1.391 . S
C361 C365 1.376 . S
C362 C360 1.394 . S
C362 C363 1.369 . S
C362 C366 1.531 . S
C363 C362 1.369 . S
C363 C364 1.410 . S
C363 C371 1.503 . S
C364 C363 1.410 . S
C364 C365 1.392 . S
C364 C367 1.511 . S
C365 C361 1.376 . S
C365 C364 1.392 . S
C365 H377 0.929 . S
C366 C362 1.531 . S
C366 H378 0.960 . S
C366 H379 0.962 . S
C366 H380 0.960 . S
C367 C364 1.511 . S
C367 H381 0.961 . S
C367 H382 0.961 . S
C367 H383 0.961 . S
C368 C369 1.370 . S
C368 C370 1.363 . S
C368 H384 0.931 . S
C369 C368 1.370 . S
C369 C373 1.408 . S
C370 C368 1.363 . S
C370 C371 1.370 . S
C370 C374 1.524 . S
C371 C363 1.503 . S
C371 C370 1.370 . S
C371 C372 1.403 . S
C372 C371 1.403 . S
C372 C373 1.404 . S
C372 C375 1.539 . S
C373 C369 1.408 . S
C373 C372 1.404 . S
C373 H385 0.930 . S
C374 C370 1.524 . S
C374 H386 0.956 . S
C374 H387 0.961 . S
C374 H388 0.961 . S
C375 C372 1.539 . S
C375 H389 0.958 . S
C375 H390 0.961 . S
C375 H391 0.960 . S
H376 C360 0.931 . S
H377 C365 0.929 . S
H378 C366 0.960 . S
H379 C366 0.962 . S
H380 C366 0.960 . S
H381 C367 0.961 . S
H382 C367 0.961 . S
H383 C367 0.961 . S
H384 C368 0.931 . S
H385 C373 0.930 . S
H386 C374 0.956 . S
H387 C374 0.961 . S
H388 C374 0.961 . S
H389 C375 0.958 . S
H390 C375 0.961 . S
H391 C375 0.960 . S
C392 C393 1.391 . S
C392 C394 1.394 . S
C392 H408 0.931 . S
C393 C392 1.391 . S
C393 C397 1.376 . S
C394 C392 1.394 . S
C394 C395 1.369 . S
C394 C398 1.531 . S
C395 C394 1.369 . S
C395 C396 1.410 . S
C395 C403 1.503 . S
C396 C395 1.410 . S
C396 C397 1.392 . S
C396 C399 1.511 . S
C397 C393 1.376 . S
C397 C396 1.392 . S
C397 H409 0.929 . S
C398 C394 1.531 . S
C398 H410 0.960 . S
C398 H411 0.962 . S
C398 H412 0.960 . S
C399 C396 1.511 . S
C399 H413 0.961 . S
C399 H414 0.961 . S
C399 H415 0.961 . S
C400 C401 1.370 . S
C400 C402 1.363 . S
C400 H416 0.931 . S
C401 C400 1.370 . S
C401 C405 1.408 . S
C402 C400 1.363 . S
C402 C403 1.370 . S
C402 C406 1.524 . S
C403 C395 1.503 . S
C403 C402 1.370 . S
C403 C404 1.403 . S
C404 C403 1.403 . S
C404 C405 1.404 . S
C404 C407 1.539 . S
C405 C401 1.408 . S
C405 C404 1.404 . S
C405 H417 0.930 . S
C406 C402 1.524 . S
C406 H418 0.956 . S
C406 H419 0.961 . S
C406 H420 0.961 . S
C407 C404 1.539 . S
C407 H421 0.958 . S
C407 H422 0.961 . S
C407 H423 0.960 . S
H408 C392 0.931 . S
H409 C397 0.929 . S
H410 C398 0.960 . S
H411 C398 0.962 . S
H412 C398 0.960 . S
H413 C399 0.961 . S
H414 C399 0.961 . S
H415 C399 0.961 . S
H416 C400 0.931 . S
H417 C405 0.930 . S
H418 C406 0.956 . S
H419 C406 0.961 . S
H420 C406 0.961 . S
H421 C407 0.958 . S
H422 C407 0.961 . S
H423 C407 0.960 . S
C424 C425 1.391 . S
C424 C426 1.394 . S
C424 H440 0.931 . S
C425 C424 1.391 . S
C425 C429 1.376 . S
C426 C424 1.394 . S
C426 C427 1.369 . S
C426 C430 1.531 . S
C427 C426 1.369 . S
C427 C428 1.410 . S
C427 C435 1.503 . S
C428 C427 1.410 . S
C428 C429 1.392 . S
C428 C431 1.511 . S
C429 C425 1.376 . S
C429 C428 1.392 . S
C429 H441 0.929 . S
C430 C426 1.531 . S
C430 H442 0.960 . S
C430 H443 0.962 . S
C430 H444 0.960 . S
C431 C428 1.511 . S
C431 H445 0.961 . S
C431 H446 0.961 . S
C431 H447 0.961 . S
C432 C433 1.370 . S
C432 C434 1.363 . S
C432 H448 0.931 . S
C433 C432 1.370 . S
C433 C437 1.408 . S
C434 C432 1.363 . S
C434 C435 1.370 . S
C434 C438 1.524 . S
C435 C427 1.503 . S
C435 C434 1.370 . S
C435 C436 1.403 . S
C436 C435 1.403 . S
C436 C437 1.404 . S
C436 C439 1.539 . S
C437 C433 1.408 . S
C437 C436 1.404 . S
C437 H449 0.930 . S
C438 C434 1.524 . S
C438 H450 0.956 . S
C438 H451 0.961 . S
C438 H452 0.961 . S
C439 C436 1.539 . S
C439 H453 0.958 . S
C439 H454 0.961 . S
C439 H455 0.960 . S
H440 C424 0.931 . S
H441 C429 0.929 . S
H442 C430 0.960 . S
H443 C430 0.962 . S
H444 C430 0.960 . S
H445 C431 0.961 . S
H446 C431 0.961 . S
H447 C431 0.961 . S
H448 C432 0.931 . S
H449 C437 0.930 . S
H450 C438 0.956 . S
H451 C438 0.961 . S
H452 C438 0.961 . S
H453 C439 0.958 . S
H454 C439 0.961 . S
H455 C439 0.960 . S
C456 C457 1.391 . S
C456 C458 1.394 . S
C456 H472 0.931 . S
C457 C456 1.391 . S
C457 C461 1.376 . S
C458 C456 1.394 . S
C458 C459 1.369 . S
C458 C462 1.531 . S
C459 C458 1.369 . S
C459 C460 1.410 . S
C459 C467 1.503 . S
C460 C459 1.410 . S
C460 C461 1.392 . S
C460 C463 1.511 . S
C461 C457 1.376 . S
C461 C460 1.392 . S
C461 H473 0.929 . S
C462 C458 1.531 . S
C462 H474 0.960 . S
C462 H475 0.962 . S
C462 H476 0.960 . S
C463 C460 1.511 . S
C463 H477 0.961 . S
C463 H478 0.961 . S
C463 H479 0.961 . S
C464 C465 1.370 . S
C464 C466 1.363 . S
C464 H480 0.931 . S
C465 C464 1.370 . S
C465 C469 1.408 . S
C466 C464 1.363 . S
C466 C467 1.370 . S
C466 C470 1.524 . S
C467 C459 1.503 . S
C467 C466 1.370 . S
C467 C468 1.403 . S
C468 C467 1.403 . S
C468 C469 1.404 . S
C468 C471 1.539 . S
C469 C465 1.408 . S
C469 C468 1.404 . S
C469 H481 0.930 . S
C470 C466 1.524 . S
C470 H482 0.956 . S
C470 H483 0.961 . S
C470 H484 0.961 . S
C471 C468 1.539 . S
C471 H485 0.958 . S
C471 H486 0.961 . S
C471 H487 0.960 . S
H472 C456 0.931 . S
H473 C461 0.929 . S
H474 C462 0.960 . S
H475 C462 0.962 . S
H476 C462 0.960 . S
H477 C463 0.961 . S
H478 C463 0.961 . S
H479 C463 0.961 . S
H480 C464 0.931 . S
H481 C469 0.930 . S
H482 C470 0.956 . S
H483 C470 0.961 . S
H484 C470 0.961 . S
H485 C471 0.958 . S
H486 C471 0.961 . S
H487 C471 0.960 . S
C488 C489 1.391 . S
C488 C490 1.394 . S
C488 H504 0.931 . S
C489 C488 1.391 . S
C489 C493 1.376 . S
C490 C488 1.394 . S
C490 C491 1.369 . S
C490 C494 1.531 . S
C491 C490 1.369 . S
C491 C492 1.410 . S
C491 C499 1.503 . S
C492 C491 1.410 . S
C492 C493 1.392 . S
C492 C495 1.511 . S
C493 C489 1.376 . S
C493 C492 1.392 . S
C493 H505 0.929 . S
C494 C490 1.531 . S
C494 H506 0.960 . S
C494 H507 0.962 . S
C494 H508 0.960 . S
C495 C492 1.511 . S
C495 H509 0.961 . S
C495 H510 0.961 . S
C495 H511 0.961 . S
C496 C497 1.370 . S
C496 C498 1.363 . S
C496 H512 0.931 . S
C497 C496 1.370 . S
C497 C501 1.408 . S
C498 C496 1.363 . S
C498 C499 1.370 . S
C498 C502 1.524 . S
C499 C491 1.503 . S
C499 C498 1.370 . S
C499 C500 1.403 . S
C500 C499 1.403 . S
C500 C501 1.404 . S
C500 C503 1.539 . S
C501 C497 1.408 . S
C501 C500 1.404 . S
C501 H513 0.930 . S
C502 C498 1.524 . S
C502 H514 0.956 . S
C502 H515 0.961 . S
C502 H516 0.961 . S
C503 C500 1.539 . S
C503 H517 0.958 . S
C503 H518 0.961 . S
C503 H519 0.960 . S
H504 C488 0.931 . S
H505 C493 0.929 . S
H506 C494 0.960 . S
H507 C494 0.962 . S
H508 C494 0.960 . S
H509 C495 0.961 . S
H510 C495 0.961 . S
H511 C495 0.961 . S
H512 C496 0.931 . S
H513 C501 0.930 . S
H514 C502 0.956 . S
H515 C502 0.961 . S
H516 C502 0.961 . S
H517 C503 0.958 . S
H518 C503 0.961 . S
H519 C503 0.960 . S
C520 C521 1.391 . S
C520 C522 1.394 . S
C520 H536 0.931 . S
C521 C520 1.391 . S
C521 C525 1.376 . S
C522 C520 1.394 . S
C522 C523 1.369 . S
C522 C526 1.531 . S
C523 C522 1.369 . S
C523 C524 1.410 . S
C523 C531 1.503 . S
C524 C523 1.410 . S
C524 C525 1.392 . S
C524 C527 1.511 . S
C525 C521 1.376 . S
C525 C524 1.392 . S
C525 H537 0.929 . S
C526 C522 1.531 . S
C526 H538 0.960 . S
C526 H539 0.962 . S
C526 H540 0.960 . S
C527 C524 1.511 . S
C527 H541 0.961 . S
C527 H542 0.961 . S
C527 H543 0.961 . S
C528 C529 1.370 . S
C528 C530 1.363 . S
C528 H544 0.931 . S
C529 C528 1.370 . S
C529 C533 1.408 . S
C530 C528 1.363 . S
C530 C531 1.370 . S
C530 C534 1.524 . S
C531 C523 1.503 . S
C531 C530 1.370 . S
C531 C532 1.403 . S
C532 C531 1.403 . S
C532 C533 1.404 . S
C532 C535 1.539 . S
C533 C529 1.408 . S
C533 C532 1.404 . S
C533 H545 0.930 . S
C534 C530 1.524 . S
C534 H546 0.956 . S
C534 H547 0.961 . S
C534 H548 0.961 . S
C535 C532 1.539 . S
C535 H549 0.958 . S
C535 H550 0.961 . S
C535 H551 0.960 . S
H536 C520 0.931 . S
H537 C525 0.929 . S
H538 C526 0.960 . S
H539 C526 0.962 . S
H540 C526 0.960 . S
H541 C527 0.961 . S
H542 C527 0.961 . S
H543 C527 0.961 . S
H544 C528 0.931 . S
H545 C533 0.930 . S
H546 C534 0.956 . S
H547 C534 0.961 . S
H548 C534 0.961 . S
H549 C535 0.958 . S
H550 C535 0.961 . S
H551 C535 0.960 . S
C552 C553 1.391 . S
C552 C554 1.394 . S
C552 H568 0.931 . S
C553 C552 1.391 . S
C553 C557 1.376 . S
C554 C552 1.394 . S
C554 C555 1.369 . S
C554 C558 1.531 1_565 S
C555 C554 1.369 . S
C555 C556 1.410 1_556 S
C555 C563 1.503 1_566 S
C556 C555 1.410 1_554 S
C556 C557 1.392 1_554 S
C556 C559 1.511 . S
C557 C553 1.376 . S
C557 C556 1.392 1_556 S
C557 H569 0.929 1_556 S
C558 C554 1.531 1_545 S
C558 H570 0.960 . S
C558 H571 0.962 . S
C558 H572 0.960 1_545 S
C559 C556 1.511 . S
C559 H573 0.961 . S
C559 H574 0.961 . S
C559 H575 0.961 . S
C560 C561 1.370 . S
C560 C562 1.363 . S
C560 H576 0.931 . S
C561 C560 1.370 . S
C561 C565 1.408 . S
C562 C560 1.363 . S
C562 C563 1.370 . S
C562 C566 1.524 1_545 S
C563 C555 1.503 1_544 S
C563 C562 1.370 . S
C563 C564 1.403 1_554 S
C564 C563 1.403 1_556 S
C564 C565 1.404 1_556 S
C564 C567 1.539 . S
C565 C561 1.408 . S
C565 C564 1.404 1_554 S
C565 H577 0.930 1_554 S
C566 C562 1.524 1_565 S
C566 H578 0.956 . S
C566 H579 0.961 . S
C566 H580 0.961 1_565 S
C567 C564 1.539 . S
C567 H581 0.958 . S
C567 H582 0.961 . S
C567 H583 0.960 . S
H568 C552 0.931 . S
H569 C557 0.929 1_554 S
H570 C558 0.960 . S
H571 C558 0.962 . S
H572 C558 0.960 1_565 S
H573 C559 0.961 . S
H574 C559 0.961 . S
H575 C559 0.961 . S
H576 C560 0.931 . S
H577 C565 0.930 1_556 S
H578 C566 0.956 . S
H579 C566 0.961 . S
H580 C566 0.961 1_545 S
H581 C567 0.958 . S
H582 C567 0.961 . S
H583 C567 0.960 . S
C584 C585 1.391 . S
C584 C586 1.394 . S
C584 H600 0.931 . S
C585 C584 1.391 . S
C585 C589 1.376 . S
C586 C584 1.394 . S
C586 C587 1.369 . S
C586 C590 1.531 . S
C587 C586 1.369 . S
C587 C588 1.410 . S
C587 C595 1.503 . S
C588 C587 1.410 . S
C588 C589 1.392 . S
C588 C591 1.511 . S
C589 C585 1.376 . S
C589 C588 1.392 . S
C589 H601 0.929 . S
C590 C586 1.531 . S
C590 H602 0.960 . S
C590 H603 0.962 . S
C590 H604 0.960 . S
C591 C588 1.511 . S
C591 H605 0.961 . S
C591 H606 0.961 . S
C591 H607 0.961 . S
C592 C593 1.370 . S
C592 C594 1.363 . S
C592 H608 0.931 . S
C593 C592 1.370 . S
C593 C597 1.408 . S
C594 C592 1.363 . S
C594 C595 1.370 . S
C594 C598 1.524 . S
C595 C587 1.503 . S
C595 C594 1.370 . S
C595 C596 1.403 . S
C596 C595 1.403 . S
C596 C597 1.404 . S
C596 C599 1.539 . S
C597 C593 1.408 . S
C597 C596 1.404 . S
C597 H609 0.930 . S
C598 C594 1.524 . S
C598 H610 0.956 . S
C598 H611 0.961 . S
C598 H612 0.961 . S
C599 C596 1.539 . S
C599 H613 0.958 . S
C599 H614 0.961 . S
C599 H615 0.960 . S
H600 C584 0.931 . S
H601 C589 0.929 . S
H602 C590 0.960 . S
H603 C590 0.962 . S
H604 C590 0.960 . S
H605 C591 0.961 . S
H606 C591 0.961 . S
H607 C591 0.961 . S
H608 C592 0.931 . S
H609 C597 0.930 . S
H610 C598 0.956 . S
H611 C598 0.961 . S
H612 C598 0.961 . S
H613 C599 0.958 . S
H614 C599 0.961 . S
H615 C599 0.960 . S
C616 C617 1.391 . S
C616 C618 1.394 . S
C616 H632 0.931 . S
C617 C616 1.391 . S
C617 C621 1.376 . S
C618 C616 1.394 . S
C618 C619 1.369 . S
C618 C622 1.531 . S
C619 C618 1.369 . S
C619 C620 1.410 . S
C619 C627 1.503 1_655 S
C620 C619 1.410 . S
C620 C621 1.392 . S
C620 C623 1.511 . S
C621 C617 1.376 . S
C621 C620 1.392 . S
C621 H633 0.929 . S
C622 C618 1.531 . S
C622 H634 0.960 . S
C622 H635 0.962 . S
C622 H636 0.960 . S
C623 C620 1.511 . S
C623 H637 0.961 . S
C623 H638 0.961 1_655 S
C623 H639 0.961 . S
C624 C625 1.370 . S
C624 C626 1.363 . S
C624 H640 0.931 . S
C625 C624 1.370 . S
C625 C629 1.408 . S
C626 C624 1.363 . S
C626 C627 1.370 . S
C626 C630 1.524 . S
C627 C619 1.503 1_455 S
C627 C626 1.370 . S
C627 C628 1.403 . S
C628 C627 1.403 . S
C628 C629 1.404 . S
C628 C631 1.539 1_455 S
C629 C625 1.408 . S
C629 C628 1.404 . S
C629 H641 0.930 . S
C630 C626 1.524 . S
C630 H642 0.956 . S
C630 H643 0.961 . S
C630 H644 0.961 . S
C631 C628 1.539 1_655 S
C631 H645 0.958 . S
C631 H646 0.961 1_655 S
C631 H647 0.960 . S
H632 C616 0.931 . S
H633 C621 0.929 . S
H634 C622 0.960 . S
H635 C622 0.962 . S
H636 C622 0.960 . S
H637 C623 0.961 . S
H638 C623 0.961 1_455 S
H639 C623 0.961 . S
H640 C624 0.931 . S
H641 C629 0.930 . S
H642 C630 0.956 . S
H643 C630 0.961 . S
H644 C630 0.961 . S
H645 C631 0.958 . S
H646 C631 0.961 1_455 S
H647 C631 0.960 . S
C648 C649 1.391 . S
C648 C650 1.394 1_554 S
C648 H664 0.931 1_554 S
C649 C648 1.391 . S
C649 C653 1.376 . S
C650 C648 1.394 1_556 S
C650 C651 1.367 1_556 S
C650 C654 1.531 . S
C651 C650 1.367 1_554 S
C651 C652 1.414 . S
C651 C659 1.501 1_564 S
C652 C651 1.414 . S
C652 C653 1.392 . S
C652 C655 1.511 . S
C653 C649 1.376 . S
C653 C652 1.392 . S
C653 H665 0.929 . S
C654 C650 1.531 . S
C654 H666 0.960 . S
C654 H667 0.962 . S
C654 H668 0.960 . S
C655 C652 1.511 . S
C655 H669 0.961 . S
C655 H670 0.961 1_565 S
C655 H671 0.961 . S
C656 C657 1.370 . S
C656 C658 1.363 1_556 S
C656 H672 0.931 1_556 S
C657 C656 1.370 . S
C657 C661 1.408 . S
C658 C656 1.363 1_554 S
C658 C659 1.370 1_554 S
C658 C662 1.524 . S
C659 C651 1.501 1_546 S
C659 C658 1.370 1_556 S
C659 C660 1.403 . S
C660 C659 1.403 . S
C660 C661 1.404 . S
C660 C663 1.546 . S
C661 C657 1.408 . S
C661 C660 1.404 . S
C661 H673 0.930 . S
C662 C658 1.524 . S
C662 H674 0.956 . S
C662 H675 0.961 . S
C662 H676 0.961 . S
C663 C660 1.546 . S
C663 H677 0.943 1_545 S
C663 H678 0.981 . S
C663 H679 0.949 1_545 S
H664 C648 0.931 1_556 S
H665 C653 0.929 . S
H666 C654 0.960 . S
H667 C654 0.962 . S
H668 C654 0.960 . S
H669 C655 0.961 . S
H670 C655 0.961 1_545 S
H671 C655 0.961 . S
H672 C656 0.931 1_554 S
H673 C661 0.930 . S
H674 C662 0.956 . S
H675 C662 0.961 . S
H676 C662 0.961 . S
H677 C663 0.943 1_565 S
H678 C663 0.981 . S
H679 C663 0.949 1_565 S
C680 C681 1.391 . S
C680 C682 1.394 . S
C680 H696 0.931 . S
C681 C680 1.391 . S
C681 C685 1.376 . S
C682 C680 1.394 . S
C682 C683 1.369 . S
C682 C686 1.531 . S
C683 C682 1.369 . S
C683 C684 1.410 . S
C683 C691 1.503 . S
C684 C683 1.410 . S
C684 C685 1.392 . S
C684 C687 1.511 . S
C685 C681 1.376 . S
C685 C684 1.392 . S
C685 H697 0.929 . S
C686 C682 1.531 . S
C686 H698 0.960 . S
C686 H699 0.962 . S
C686 H700 0.960 . S
C687 C684 1.511 . S
C687 H701 0.961 . S
C687 H702 0.961 . S
C687 H703 0.961 . S
C688 C689 1.370 . S
C688 C690 1.363 . S
C688 H704 0.931 . S
C689 C688 1.370 . S
C689 C693 1.408 . S
C690 C688 1.363 . S
C690 C691 1.370 . S
C690 C694 1.524 . S
C691 C683 1.503 . S
C691 C690 1.370 . S
C691 C692 1.403 . S
C692 C691 1.403 . S
C692 C693 1.404 . S
C692 C695 1.539 . S
C693 C689 1.408 . S
C693 C692 1.404 . S
C693 H705 0.930 . S
C694 C690 1.524 . S
C694 H706 0.956 . S
C694 H707 0.961 . S
C694 H708 0.961 . S
C695 C692 1.539 . S
C695 H709 0.958 . S
C695 H710 0.961 . S
C695 H711 0.960 . S
H696 C680 0.931 . S
H697 C685 0.929 . S
H698 C686 0.960 . S
H699 C686 0.962 . S
H700 C686 0.960 . S
H701 C687 0.961 . S
H702 C687 0.961 . S
H703 C687 0.961 . S
H704 C688 0.931 . S
H705 C693 0.930 . S
H706 C694 0.956 . S
H707 C694 0.961 . S
H708 C694 0.961 . S
H709 C695 0.958 . S
H710 C695 0.961 . S
H711 C695 0.960 . S
C712 C713 1.391 . S
C712 C714 1.394 . S
C712 H728 0.931 . S
C713 C712 1.391 . S
C713 C717 1.376 . S
C714 C712 1.394 . S
C714 C715 1.369 . S
C714 C718 1.531 . S
C715 C714 1.369 . S
C715 C716 1.410 . S
C715 C723 1.503 1_455 S
C716 C715 1.410 . S
C716 C717 1.392 . S
C716 C719 1.511 . S
C717 C713 1.376 . S
C717 C716 1.392 . S
C717 H729 0.929 . S
C718 C714 1.531 . S
C718 H730 0.960 1_455 S
C718 H731 0.962 . S
C718 H732 0.960 . S
C719 C716 1.511 . S
C719 H733 0.961 . S
C719 H734 0.961 . S
C719 H735 0.961 . S
C720 C721 1.370 . S
C720 C722 1.363 . S
C720 H736 0.931 . S
C721 C720 1.370 . S
C721 C725 1.408 . S
C722 C720 1.363 . S
C722 C723 1.370 . S
C722 C726 1.524 1_655 S
C723 C715 1.503 1_655 S
C723 C722 1.370 . S
C723 C724 1.403 . S
C724 C723 1.403 . S
C724 C725 1.404 . S
C724 C727 1.539 . S
C725 C721 1.408 . S
C725 C724 1.404 . S
C725 H737 0.930 . S
C726 C722 1.524 1_455 S
C726 H738 0.956 . S
C726 H739 0.961 . S
C726 H740 0.961 1_455 S
C727 C724 1.539 . S
C727 H741 0.958 . S
C727 H742 0.961 . S
C727 H743 0.960 . S
H728 C712 0.931 . S
H729 C717 0.929 . S
H730 C718 0.960 1_655 S
H731 C718 0.962 . S
H732 C718 0.960 . S
H733 C719 0.961 . S
H734 C719 0.961 . S
H735 C719 0.961 . S
H736 C720 0.931 . S
H737 C725 0.930 . S
H738 C726 0.956 . S
H739 C726 0.961 . S
H740 C726 0.961 1_655 S
H741 C727 0.958 . S
H742 C727 0.961 . S
H743 C727 0.960 . S
C744 C745 1.391 . S
C744 C746 1.394 . S
C744 H760 0.931 . S
C745 C744 1.391 . S
C745 C749 1.376 . S
C746 C744 1.394 . S
C746 C747 1.369 . S
C746 C750 1.531 . S
C747 C746 1.369 . S
C747 C748 1.410 . S
C747 C755 1.503 1_556 S
C748 C747 1.410 . S
C748 C749 1.392 . S
C748 C751 1.511 1_556 S
C749 C745 1.376 . S
C749 C748 1.392 . S
C749 H761 0.929 . S
C750 C746 1.531 . S
C750 H762 0.960 . S
C750 H763 0.962 . S
C750 H764 0.960 . S
C751 C748 1.511 1_554 S
C751 H765 0.961 . S
C751 H766 0.961 . S
C751 H767 0.961 . S
C752 C753 1.370 . S
C752 C754 1.363 . S
C752 H768 0.931 . S
C753 C752 1.370 . S
C753 C757 1.408 . S
C754 C752 1.363 . S
C754 C755 1.370 . S
C754 C758 1.524 . S
C755 C747 1.503 1_554 S
C755 C754 1.370 . S
C755 C756 1.403 1_554 S
C756 C755 1.403 1_556 S
C756 C757 1.404 1_556 S
C756 C759 1.539 . S
C757 C753 1.408 . S
C757 C756 1.404 1_554 S
C757 H769 0.930 1_554 S
C758 C754 1.524 . S
C758 H770 0.956 . S
C758 H771 0.961 . S
C758 H772 0.961 . S
C759 C756 1.539 . S
C759 H773 0.958 . S
C759 H774 0.961 . S
C759 H775 0.960 . S
H760 C744 0.931 . S
H761 C749 0.929 . S
H762 C750 0.960 . S
H763 C750 0.962 . S
H764 C750 0.960 . S
H765 C751 0.961 . S
H766 C751 0.961 . S
H767 C751 0.961 . S
H768 C752 0.931 . S
H769 C757 0.930 1_556 S
H770 C758 0.956 . S
H771 C758 0.961 . S
H772 C758 0.961 . S
H773 C759 0.958 . S
H774 C759 0.961 . S
H775 C759 0.960 . S
C776 C777 1.391 . S
C776 C778 1.394 . S
C776 H792 0.931 . S
C777 C776 1.391 . S
C777 C781 1.376 . S
C778 C776 1.394 . S
C778 C779 1.369 . S
C778 C782 1.531 . S
C779 C778 1.369 . S
C779 C780 1.410 . S
C779 C787 1.503 . S
C780 C779 1.410 . S
C780 C781 1.392 . S
C780 C783 1.511 . S
C781 C777 1.376 . S
C781 C780 1.392 . S
C781 H793 0.929 . S
C782 C778 1.531 . S
C782 H794 0.960 . S
C782 H795 0.962 . S
C782 H796 0.960 . S
C783 C780 1.511 . S
C783 H797 0.961 . S
C783 H798 0.961 . S
C783 H799 0.961 . S
C784 C785 1.370 . S
C784 C786 1.363 . S
C784 H800 0.931 . S
C785 C784 1.370 . S
C785 C789 1.408 . S
C786 C784 1.363 . S
C786 C787 1.370 . S
C786 C790 1.524 . S
C787 C779 1.503 . S
C787 C786 1.370 . S
C787 C788 1.403 . S
C788 C787 1.403 . S
C788 C789 1.404 . S
C788 C791 1.539 . S
C789 C785 1.408 . S
C789 C788 1.404 . S
C789 H801 0.930 1_655 S
C790 C786 1.524 . S
C790 H802 0.956 . S
C790 H803 0.961 . S
C790 H804 0.961 . S
C791 C788 1.539 . S
C791 H805 0.958 . S
C791 H806 0.961 . S
C791 H807 0.960 . S
H792 C776 0.931 . S
H793 C781 0.929 . S
H794 C782 0.960 . S
H795 C782 0.962 . S
H796 C782 0.960 . S
H797 C783 0.961 . S
H798 C783 0.961 . S
H799 C783 0.961 . S
H800 C784 0.931 . S
H801 C789 0.930 1_455 S
H802 C790 0.956 . S
H803 C790 0.961 . S
H804 C790 0.961 . S
H805 C791 0.958 . S
H806 C791 0.961 . S
H807 C791 0.960 . S
C808 C809 1.391 . S
C808 C810 1.394 . S
C808 H824 0.931 . S
C809 C808 1.391 . S
C809 C813 1.376 . S
C810 C808 1.394 . S
C810 C811 1.369 . S
C810 C814 1.531 . S
C811 C810 1.369 . S
C811 C812 1.410 . S
C811 C819 1.503 . S
C812 C811 1.410 . S
C812 C813 1.392 . S
C812 C815 1.511 . S
C813 C809 1.376 . S
C813 C812 1.392 . S
C813 H825 0.929 . S
C814 C810 1.531 . S
C814 H826 0.960 . S
C814 H827 0.962 . S
C814 H828 0.960 . S
C815 C812 1.511 . S
C815 H829 0.961 . S
C815 H830 0.961 . S
C815 H831 0.961 . S
C816 C817 1.370 . S
C816 C818 1.363 . S
C816 H832 0.931 . S
C817 C816 1.370 . S
C817 C821 1.408 . S
C818 C816 1.363 . S
C818 C819 1.370 . S
C818 C822 1.524 . S
C819 C811 1.503 . S
C819 C818 1.370 . S
C819 C820 1.403 . S
C820 C819 1.403 . S
C820 C821 1.404 . S
C820 C823 1.539 . S
C821 C817 1.408 . S
C821 C820 1.404 . S
C821 H833 0.930 . S
C822 C818 1.524 . S
C822 H834 0.956 . S
C822 H835 0.961 . S
C822 H836 0.961 . S
C823 C820 1.539 . S
C823 H837 0.958 . S
C823 H838 0.961 . S
C823 H839 0.960 . S
H824 C808 0.931 . S
H825 C813 0.929 . S
H826 C814 0.960 . S
H827 C814 0.962 . S
H828 C814 0.960 . S
H829 C815 0.961 . S
H830 C815 0.961 . S
H831 C815 0.961 . S
H832 C816 0.931 . S
H833 C821 0.930 . S
H834 C822 0.956 . S
H835 C822 0.961 . S
H836 C822 0.961 . S
H837 C823 0.958 . S
H838 C823 0.961 . S
H839 C823 0.960 . S
C840 C841 1.391 . S
C840 C842 1.394 1_554 S
C840 H856 0.931 1_554 S
C841 C840 1.391 . S
C841 C845 1.376 . S
C842 C840 1.394 1_556 S
C842 C843 1.369 1_556 S
C842 C846 1.531 . S
C843 C842 1.369 1_554 S
C843 C844 1.410 . S
C843 C851 1.503 1_554 S
C844 C843 1.410 . S
C844 C845 1.392 . S
C844 C847 1.511 . S
C845 C841 1.376 . S
C845 C844 1.392 . S
C845 H857 0.929 . S
C846 C842 1.531 . S
C846 H858 0.960 . S
C846 H859 0.962 . S
C846 H860 0.960 . S
C847 C844 1.511 . S
C847 H861 0.961 . S
C847 H862 0.961 . S
C847 H863 0.961 . S
C848 C849 1.370 . S
C848 C850 1.363 1_556 S
C848 H864 0.931 . S
C849 C848 1.370 . S
C849 C853 1.408 . S
C850 C848 1.363 1_554 S
C850 C851 1.370 1_554 S
C850 C854 1.524 . S
C851 C843 1.503 1_556 S
C851 C850 1.370 1_556 S
C851 C852 1.403 . S
C852 C851 1.403 . S
C852 C853 1.404 . S
C852 C855 1.539 . S
C853 C849 1.408 . S
C853 C852 1.404 . S
C853 H865 0.930 . S
C854 C850 1.524 . S
C854 H866 0.956 . S
C854 H867 0.961 . S
C854 H868 0.961 . S
C855 C852 1.539 . S
C855 H869 0.958 . S
C855 H870 0.961 . S
C855 H871 0.960 . S
H856 C840 0.931 1_556 S
H857 C845 0.929 . S
H858 C846 0.960 . S
H859 C846 0.962 . S
H860 C846 0.960 . S
H861 C847 0.961 . S
H862 C847 0.961 . S
H863 C847 0.961 . S
H864 C848 0.931 . S
H865 C853 0.930 . S
H866 C854 0.956 . S
H867 C854 0.961 . S
H868 C854 0.961 . S
H869 C855 0.958 . S
H870 C855 0.961 . S
H871 C855 0.960 . S
C872 C873 1.391 . S
C872 C874 1.394 . S
C872 H888 0.931 1_455 S
C873 C872 1.391 . S
C873 C877 1.376 . S
C874 C872 1.394 . S
C874 C875 1.369 . S
C874 C878 1.531 . S
C875 C874 1.369 . S
C875 C876 1.410 . S
C875 C883 1.503 . S
C876 C875 1.410 . S
C876 C877 1.392 . S
C876 C879 1.511 . S
C877 C873 1.376 . S
C877 C876 1.392 . S
C877 H889 0.929 . S
C878 C874 1.531 . S
C878 H890 0.960 . S
C878 H891 0.962 . S
C878 H892 0.960 . S
C879 C876 1.511 . S
C879 H893 0.961 . S
C879 H894 0.961 . S
C879 H895 0.961 . S
C880 C881 1.370 . S
C880 C882 1.363 . S
C880 H896 0.931 . S
C881 C880 1.370 . S
C881 C885 1.408 . S
C882 C880 1.363 . S
C882 C883 1.370 . S
C882 C886 1.524 . S
C883 C875 1.503 . S
C883 C882 1.370 . S
C883 C884 1.403 . S
C884 C883 1.403 . S
C884 C885 1.404 . S
C884 C887 1.539 . S
C885 C881 1.408 . S
C885 C884 1.404 . S
C885 H897 0.930 1_565 S
C886 C882 1.524 . S
C886 H898 0.956 . S
C886 H899 0.961 . S
C886 H900 0.961 . S
C887 C884 1.539 . S
C887 H901 0.958 . S
C887 H902 0.961 . S
C887 H903 0.960 . S
H888 C872 0.931 1_655 S
H889 C877 0.929 . S
H890 C878 0.960 . S
H891 C878 0.962 . S
H892 C878 0.960 . S
H893 C879 0.961 . S
H894 C879 0.961 . S
H895 C879 0.961 . S
H896 C880 0.931 . S
H897 C885 0.930 1_545 S
H898 C886 0.956 . S
H899 C886 0.961 . S
H900 C886 0.961 . S
H901 C887 0.958 . S
H902 C887 0.961 . S
H903 C887 0.960 . S
C904 C905 1.391 . S
C904 C906 1.394 . S
C904 H920 0.931 . S
C905 C904 1.391 . S
C905 C909 1.376 . S
C906 C904 1.394 . S
C906 C907 1.369 . S
C906 C910 1.531 . S
C907 C906 1.369 . S
C907 C908 1.410 . S
C907 C915 1.503 . S
C908 C907 1.410 . S
C908 C909 1.392 . S
C908 C911 1.511 . S
C909 C905 1.376 . S
C909 C908 1.392 . S
C909 H921 0.929 1_545 S
C910 C906 1.531 . S
C910 H922 0.960 . S
C910 H923 0.962 . S
C910 H924 0.960 . S
C911 C908 1.511 . S
C911 H925 0.961 . S
C911 H926 0.961 . S
C911 H927 0.961 . S
C912 C913 1.370 . S
C912 C914 1.363 . S
C912 H928 0.931 . S
C913 C912 1.370 . S
C913 C917 1.408 . S
C914 C912 1.363 . S
C914 C915 1.370 . S
C914 C918 1.524 . S
C915 C907 1.503 . S
C915 C914 1.370 . S
C915 C916 1.403 . S
C916 C915 1.403 . S
C916 C917 1.404 . S
C916 C919 1.539 . S
C917 C913 1.408 . S
C917 C916 1.404 . S
C917 H929 0.930 . S
C918 C914 1.524 . S
C918 H930 0.956 . S
C918 H931 0.961 . S
C918 H932 0.961 . S
C919 C916 1.539 . S
C919 H933 0.958 . S
C919 H934 0.961 . S
C919 H935 0.960 . S
H920 C904 0.931 . S
H921 C909 0.929 1_565 S
H922 C910 0.960 . S
H923 C910 0.962 . S
H924 C910 0.960 . S
H925 C911 0.961 . S
H926 C911 0.961 . S
H927 C911 0.961 . S
H928 C912 0.931 . S
H929 C917 0.930 . S
H930 C918 0.956 . S
H931 C918 0.961 . S
H932 C918 0.961 . S
H933 C919 0.958 . S
H934 C919 0.961 . S
H935 C919 0.960 . S
C169 C50 1.400 . S
C177 C8 1.373 . S
C201 C22 1.379 . S
C209 C64 1.382 . S
C233 C78 1.385 . S
C241 C36 1.380 . S
C265 C92 1.372 . S
C273 C134 1.385 . S
C297 C148 1.372 . S
C305 C106 1.385 . S
C329 C120 1.390 . S
C337 C162 1.378 . S
C361 C119 1.597 . S
C369 C7 1.596 . S
C393 C21 1.607 . S
C401 C133 1.591 . S
C425 C35 1.569 . S
C433 C147 1.575 . S
C457 C49 1.588 . S
C465 C161 1.595 . S
C489 C91 1.555 . S
C497 C63 1.578 . S
C521 C105 1.598 . S
C529 C77 1.597 . S
C553 C107 1.151 . S
C561 C9 1.185 . S
C585 C23 1.153 . S
C593 C121 1.188 . S
C617 C37 1.223 . S
C625 C135 1.196 . S
C649 C51 1.227 . S
C657 C149 1.199 . S
C681 C163 1.211 . S
C689 C65 1.210 . S
C713 C79 1.155 . S
C721 C93 1.190 . S
C745 C143 1.471 1_455 S
C753 C3 1.468 . S
C777 C157 1.462 1_545 S
C785 C17 1.468 1_655 S
C809 C87 1.460 . S
C817 C31 1.471 1_565 S
C841 C45 1.459 . S
C849 C101 1.469 1_655 S
C873 C59 1.465 1_455 S
C881 C115 1.467 1_565 S
C905 C73 1.463 1_545 S
C913 C129 1.471 . S
