# Generated by pormake.
# Topology whb, (6)-cn, num edge types: 1
# Building blocks:
#     Node 0, Type 0, BuildingBlock: KUMBUR_clean_sbu_1, # of connection points: 6
#     Node 1, Type 0, BuildingBlock: KUMBUR_clean_sbu_1, # of connection points: 6
#     Node 2, Type 0, BuildingBlock: KUMBUR_clean_sbu_1, # of connection points: 6
#     Node 3, Type 0, BuildingBlock: KUMBUR_clean_sbu_1, # of connection points: 6
#     Node 4, Type 0, BuildingBlock: KUMBUR_clean_sbu_1, # of connection points: 6
#     Node 5, Type 0, BuildingBlock: KUMBUR_clean_sbu_1, # of connection points: 6
#     Node 6, Type 0, BuildingBlock: KUMBUR_clean_sbu_1, # of connection points: 6
#     Node 7, Type 0, BuildingBlock: KUMBUR_clean_sbu_1, # of connection points: 6
#     Edge 8, Type (0, 0), BuildingBlock: AJUNOK_clean_linker_0, # of connection points: 2
#     Edge 9, Type (0, 0), BuildingBlock: AJUNOK_clean_linker_0, # of connection points: 2
#     Edge 10, Type (0, 0), BuildingBlock: AJUNOK_clean_linker_0, # of connection points: 2
#     Edge 11, Type (0, 0), BuildingBlock: AJUNOK_clean_linker_0, # of connection points: 2
#     Edge 12, Type (0, 0), BuildingBlock: AJUNOK_clean_linker_0, # of connection points: 2
#     Edge 13, Type (0, 0), BuildingBlock: AJUNOK_clean_linker_0, # of connection points: 2
#     Edge 14, Type (0, 0), BuildingBlock: AJUNOK_clean_linker_0, # of connection points: 2
#     Edge 15, Type (0, 0), BuildingBlock: AJUNOK_clean_linker_0, # of connection points: 2
#     Edge 16, Type (0, 0), BuildingBlock: AJUNOK_clean_linker_0, # of connection points: 2
#     Edge 17, Type (0, 0), BuildingBlock: AJUNOK_clean_linker_0, # of connection points: 2
#     Edge 18, Type (0, 0), BuildingBlock: AJUNOK_clean_linker_0, # of connection points: 2
#     Edge 19, Type (0, 0), BuildingBlock: AJUNOK_clean_linker_0, # of connection points: 2
#     Edge 20, Type (0, 0), BuildingBlock: AJUNOK_clean_linker_0, # of connection points: 2
#     Edge 21, Type (0, 0), BuildingBlock: AJUNOK_clean_linker_0, # of connection points: 2
#     Edge 22, Type (0, 0), BuildingBlock: AJUNOK_clean_linker_0, # of connection points: 2
#     Edge 23, Type (0, 0), BuildingBlock: AJUNOK_clean_linker_0, # of connection points: 2
#     Edge 24, Type (0, 0), BuildingBlock: AJUNOK_clean_linker_0, # of connection points: 2
#     Edge 25, Type (0, 0), BuildingBlock: AJUNOK_clean_linker_0, # of connection points: 2
#     Edge 26, Type (0, 0), BuildingBlock: AJUNOK_clean_linker_0, # of connection points: 2
#     Edge 27, Type (0, 0), BuildingBlock: AJUNOK_clean_linker_0, # of connection points: 2
#     Edge 28, Type (0, 0), BuildingBlock: AJUNOK_clean_linker_0, # of connection points: 2
#     Edge 29, Type (0, 0), BuildingBlock: AJUNOK_clean_linker_0, # of connection points: 2
#     Edge 30, Type (0, 0), BuildingBlock: AJUNOK_clean_linker_0, # of connection points: 2
#     Edge 31, Type (0, 0), BuildingBlock: AJUNOK_clean_linker_0, # of connection points: 2
# Relax obj value: 0.722
# Max RMSD: 0.346
# Mean RMSD: 0.289
data_MOF--net-whb--node1-KUMBUR_clean_sbu_1--edge1-AJUNOK_clean_linker_0
_symmetry_space_group_name_H-M    P1
_symmetry_Int_Tables_number       1
_symmetry_cell_setting            triclinic
loop_
_symmetry_equiv_pos_as_xyz
'x, y, z'
_cell_length_a     23.428039
_cell_length_b     23.508646
_cell_length_c     37.208382
_cell_angle_alpha  108.77736
_cell_angle_beta   91.146699
_cell_angle_gamma 101.3115
loop_
_atom_site_label
_atom_site_type_symbol
_atom_site_fract_x
_atom_site_fract_y
_atom_site_fract_z
_atom_type_partial_charge
Tb0 Tb 0.21429 0.39304 0.07657 0.0
C1 C 0.23396 0.39803 0.23887 0.0
N2 N 0.25801 0.362 0.20942 0.0
C3 C 0.34931 0.3907 0.24801 0.0
C4 C 0.26731 0.43358 0.27363 0.0
C5 C 0.31461 0.35671 0.21396 0.0
C6 C 0.32576 0.42978 0.27786 0.0
C7 C 0.14878 0.43537 0.26386 0.0
C8 C 0.17579 0.39942 0.23374 0.0
C9 C 0.1822 0.47268 0.29801 0.0
C10 C 0.24132 0.4717 0.3029 0.0
Tb11 Tb 0.19822 0.30859 0.15426 0.0
N12 N 0.14478 0.36209 0.20037 0.0
C13 C 1.08843 0.43019 0.2596 0.0
C14 C 1.08493 0.35056 0.19896 0.0
C15 C 1.05613 0.38601 0.22746 0.0
H16 H 0.33314 0.32587 0.19156 0.0
H17 H 1.00888 0.37752 0.22519 0.0
H18 H 1.0778 0.38462 0.04461 0.0
H19 H 0.39933 0.33128 -0.00225 0.0
H20 H 1.05848 0.31226 0.17691 0.0
H21 H 1.06605 0.45684 0.28203 0.0
H22 H 0.35306 0.38844 0.05165 0.0
H23 H 0.39418 0.38656 0.25122 0.0
H24 H 0.16232 0.50095 0.32125 0.0
H25 H 0.26619 0.49985 0.32963 0.0
H26 H 1.01355 0.33134 0.98544 0.0
H27 H 0.35282 0.45626 0.30414 0.0
H28 H 0.33956 0.26516 0.93815 0.0
N29 N 0.15178 0.34994 0.02219 0.0
C30 C 0.17419 0.31719 0.99069 0.0
C31 C 1.05855 0.32668 0.98656 0.0
C32 C 0.13918 0.28722 0.95584 0.0
C33 C 1.09506 0.35631 0.02031 0.0
C34 C 1.08053 0.29154 0.95425 0.0
N35 N 0.26546 0.34543 0.02727 0.0
C36 C 0.32516 0.35519 0.02787 0.0
C37 C 0.25824 0.28467 0.96032 0.0
C38 C 0.23278 0.31497 -0.00673 0.0
C39 C 0.31841 0.28797 0.96271 0.0
C40 C 0.35219 0.32469 -0.00361 0.0
H41 H 1.05217 0.26882 0.92809 0.0
H42 H 0.13744 0.23073 0.89677 0.0
H43 H 0.24208 0.22958 0.90044 0.0
O44 O 0.26702 0.48259 0.09166 0.0
O45 O 0.16 0.30262 0.06311 0.0
O46 O 0.20325 0.25163 0.09464 0.0
O47 O 0.20152 0.44896 0.04456 0.0
O48 O 0.30044 0.38322 0.10188 0.0
O49 O 0.28493 0.30501 0.12858 0.0
O50 O 0.13865 0.24284 0.17086 0.0
O51 O 0.2488 0.40344 0.16868 0.0
O52 O 0.19268 0.4357 0.13302 0.0
O53 O 0.22836 0.23955 0.16896 0.0
O54 O 0.11172 0.3114 0.12511 0.0
O55 O 0.12867 0.3963 0.10427 0.0
C56 C 0.17855 0.25455 0.06347 0.0
C57 C 0.21992 0.55496 0.07727 0.0
C58 C 0.17196 0.62499 0.05811 0.0
C59 C 0.18373 0.66715 0.09531 0.0
C60 C 0.23371 0.59855 0.114 0.0
C61 C 0.21476 0.65395 0.12307 0.0
C62 C 0.18915 0.5687 0.04957 0.0
C63 C 0.32136 0.34467 0.11602 0.0
C64 C 0.23929 0.49623 0.06602 0.0
C65 C 0.16382 0.25458 0.92363 0.0
C66 C 0.2233 0.25365 0.92579 0.0
C67 C 0.2298 0.44805 0.16206 0.0
C68 C 0.1806 0.21236 0.21895 0.0
C69 C 0.13228 0.17874 0.26929 0.0
C70 C 0.18599 0.20023 0.29183 0.0
C71 C 0.23365 0.23163 0.24217 0.0
C72 C 0.12976 0.18577 0.2328 0.0
C73 C 0.23606 0.22604 0.27828 0.0
C74 C 1.09157 0.35489 0.11538 0.0
C75 C 0.17914 0.21854 0.18019 0.0
H76 H 0.17089 0.71103 0.10246 0.0
H77 H 0.25899 0.58996 0.13562 0.0
H78 H 0.22496 0.68714 0.15153 0.0
H79 H 0.17962 0.53596 0.02085 0.0
H80 H 0.18925 0.19805 0.32043 0.0
H81 H 0.27372 0.25104 0.23255 0.0
H82 H 1.08869 0.17009 0.21512 0.0
H83 H 0.27709 0.24197 0.29596 0.0
Tb84 Tb 0.53312 0.2573 0.62096 0.0
C85 C 0.32151 0.07719 0.51329 0.0
N86 N 0.37603 0.08846 0.50232 0.0
C87 C 0.36148 0.98259 0.46248 0.0
C88 C 0.28597 1.01762 0.5016 0.0
C89 C 0.39664 1.04194 0.47712 0.0
C90 C 0.30653 0.96991 0.47563 0.0
C91 C 0.24503 0.11848 0.54829 0.0
C92 C 0.30064 0.12652 0.5349 0.0
C93 C 0.21144 1.05863 0.54028 0.0
C94 C 0.23117 1.00823 0.51604 0.0
Tb95 Tb 0.43308 0.18414 0.53422 0.0
N96 N 0.33506 0.18305 0.542 0.0
C97 C 0.22499 0.17088 0.56878 0.0
C98 C 0.31137 0.23414 0.55575 0.0
C99 C 0.25739 0.229 0.5713 0.0
H100 H 0.44061 1.05061 0.46874 0.0
H101 H 0.2407 0.26973 0.58505 0.0
H102 H 0.48749 0.30666 0.7068 0.0
H103 H 0.61188 0.37978 0.52352 0.0
H104 H 0.33649 0.27922 0.5586 0.0
H105 H 0.18298 0.16686 0.58047 0.0
H106 H 0.56819 0.28854 0.5394 0.0
H107 H 0.37754 0.94624 0.442 0.0
H108 H 0.16955 1.05116 0.55169 0.0
H109 H 0.20369 0.96255 0.50844 0.0
H110 H 0.4972 0.40667 0.7584 0.0
H111 H 0.28021 0.92353 0.46526 0.0
H112 H 0.63423 0.48217 0.57337 0.0
N113 N 0.53328 0.3461 0.66886 0.0
C114 C 0.5618 0.39813 0.66287 0.0
C115 C 0.51555 0.40483 0.73169 0.0
C116 C 0.56778 0.45604 0.69131 0.0
C117 C 0.50986 0.34843 0.70244 0.0
C118 C 0.54499 0.45881 0.72623 0.0
N119 N 0.56746 0.33709 0.59866 0.0
C120 C 0.57877 0.33205 0.56197 0.0
C121 C 0.60325 0.44734 0.61827 0.0
C122 C 0.57932 0.39357 0.62656 0.0
C123 C 0.61595 0.44191 0.58091 0.0
C124 C 0.60324 0.38416 0.55265 0.0
H125 H 0.54864 0.50249 0.74879 0.0
H126 H 0.59909 0.55426 0.70501 0.0
H127 H 0.63018 0.54671 0.64121 0.0
O128 O 0.62378 0.27975 0.63328 0.0
O129 O 0.4695 0.31996 0.61791 0.0
O130 O 0.44479 0.28873 0.55411 0.0
O131 O 0.56852 0.25048 0.6717 0.0
O132 O 0.58217 0.21823 0.57257 0.0
O133 O 0.5179 0.15492 0.52208 0.0
O134 O 0.41962 0.15823 0.47493 0.0
O135 O 0.45934 0.10824 0.55052 0.0
O136 O 0.49443 0.15407 0.61351 0.0
O137 O 0.46296 0.25058 0.50789 0.0
O138 O 0.3905 0.20294 0.58868 0.0
O139 O 0.4546 0.21734 0.64008 0.0
C140 C 0.44918 0.33248 0.58801 0.0
C141 C 0.65937 0.22177 0.66415 0.0
C142 C 0.74817 0.20457 0.69017 0.0
C143 C 0.73137 0.14186 0.66741 0.0
C144 C 0.64444 0.16001 0.64088 0.0
C145 C 0.68098 0.12049 0.6421 0.0
C146 C 0.71229 0.24445 0.68691 0.0
C147 C 0.57197 0.17824 0.53796 0.0
C148 C 0.62188 0.26414 0.66349 0.0
C149 C 0.59394 0.50931 0.68347 0.0
C150 C 0.61162 0.50498 0.64709 0.0
C151 C 0.46937 0.10273 0.58441 0.0
C152 C 0.38758 0.23745 0.46124 0.0
C153 C 0.28247 0.22951 0.45633 0.0
C154 C 0.29133 0.28815 0.45261 0.0
C155 C 0.39657 0.29539 0.45669 0.0
C156 C 0.33056 0.20462 0.4595 0.0
C157 C 0.3483 0.32027 0.45185 0.0
C158 C 0.40181 0.20738 0.62441 0.0
C159 C 0.43462 0.21473 0.47537 0.0
H160 H 0.75507 0.10817 0.67008 0.0
H161 H 0.60467 0.14243 0.62193 0.0
H162 H 0.66906 0.07259 0.62441 0.0
H163 H 0.72429 0.29317 0.70291 0.0
H164 H 0.2548 0.30953 0.45125 0.0
H165 H 0.44041 0.32226 0.45859 0.0
H166 H 0.3232 0.16122 0.46472 0.0
H167 H 0.35514 0.36562 0.44925 0.0
Tb168 Tb 0.70038 0.30018 0.15086 0.0
C169 C 0.81138 0.45703 0.04676 0.0
N170 N 0.79791 0.47673 0.08326 0.0
C171 C 0.87557 0.56606 0.09701 0.0
C172 C 0.85951 0.48941 0.03415 0.0
C173 C 0.8283 0.53113 0.10825 0.0
C174 C 0.89192 0.54455 0.0599 0.0
C175 C 0.78149 0.3894 0.9822 0.0
C176 C 0.77263 0.4086 0.02132 0.0
C177 C 0.83253 0.41723 0.96987 0.0
C178 C 0.87131 0.46767 -0.00419 0.0
Tb179 Tb 0.71693 0.42232 0.09951 0.0
N180 N 0.72231 0.38641 0.03428 0.0
C181 C 0.73681 0.3464 0.95647 0.0
C182 C 0.67587 0.35142 0.00854 0.0
C183 C 0.68309 0.32861 0.96962 0.0
H184 H 0.81542 0.54781 0.13668 0.0
H185 H 0.64678 0.29863 0.94973 0.0
H186 H 0.59937 0.32903 0.2126 0.0
H187 H 0.87871 0.19071 0.16371 0.0
H188 H 0.63302 0.3409 0.018 0.0
H189 H 0.7419 0.33008 0.9262 0.0
H190 H 0.79579 0.20936 0.12952 0.0
H191 H 0.89961 0.60915 0.11701 0.0
H192 H 0.84054 0.40262 0.94003 0.0
H193 H 0.90872 0.49114 0.98563 0.0
H194 H 0.59538 0.35787 0.28237 0.0
H195 H 0.92869 0.57145 0.05124 0.0
H196 H 0.89869 0.24073 0.23372 0.0
N197 N 0.6874 0.31814 0.2143 0.0
C198 C 0.73333 0.31645 0.23632 0.0
C199 C 0.63465 0.34659 0.26976 0.0
C200 C 0.73387 0.33398 0.27632 0.0
C201 C 0.63714 0.33035 0.23018 0.0
C202 C 0.68359 0.34954 0.29305 0.0
N203 N 0.77051 0.26954 0.17965 0.0
C204 C 0.80398 0.23041 0.16015 0.0
C205 C 0.82426 0.28391 0.23893 0.0
C206 C 0.77748 0.29203 0.21811 0.0
C207 C 0.86233 0.24863 0.21888 0.0
C208 C 0.85095 0.22005 0.17939 0.0
H209 H 0.68173 0.36267 0.32363 0.0
H210 H 0.78618 0.34861 0.32864 0.0
H211 H 0.86532 0.30368 0.29555 0.0
O212 O 0.67275 0.21062 0.15325 0.0
O213 O 0.70461 0.39596 0.18896 0.0
O214 O 0.75962 0.45673 0.15947 0.0
O215 O 0.63125 0.23933 0.11189 0.0
O216 O 0.79479 0.32684 0.13674 0.0
O217 O 0.80702 0.40386 0.10873 0.0
O218 O 0.69102 0.50367 0.13241 0.0
O219 O 0.67296 0.32454 0.07322 0.0
O220 O 0.73324 0.27783 0.09424 0.0
O221 O 0.68117 0.47226 0.07103 0.0
O222 O 0.62189 0.38645 0.1053 0.0
O223 O 0.61555 0.33312 0.14829 0.0
C224 C 0.74428 0.44573 0.19117 0.0
C225 C 0.57534 0.15699 0.1273 0.0
C226 C 0.50289 0.1161 0.16381 0.0
C227 C 0.47031 0.07676 0.1299 0.0
C228 C 0.54164 0.11839 0.09348 0.0
C229 C 0.4893 0.07872 0.09483 0.0
C230 C 0.55525 0.15634 0.16232 0.0
C231 C 0.82936 0.36566 0.12233 0.0
C232 C 0.63252 0.19461 0.12497 0.0
C233 C 0.78383 0.33347 0.29779 0.0
C234 C 0.82904 0.30809 0.27898 0.0
C235 C 0.70172 0.28008 0.06564 0.0
C236 C 0.6965 0.57906 0.1003 0.0
C237 C 0.69805 0.65032 0.06411 0.0
C238 C 0.73296 0.69707 0.09473 0.0
C239 C 0.73037 0.6269 0.13071 0.0
C240 C 0.68019 0.5914 0.06725 0.0
C241 C 0.74865 0.6854 0.12776 0.0
C242 C 0.59005 0.3586 0.12661 0.0
C243 C 0.67671 0.5161 0.10198 0.0
H244 H 0.43082 1.04442 0.13062 0.0
H245 H 0.55638 0.11815 0.06601 0.0
H246 H 0.46407 1.04853 0.06861 0.0
H247 H 0.5815 0.18536 0.18848 0.0
H248 H 0.74877 0.74252 0.09301 0.0
H249 H 0.74309 0.61911 0.15658 0.0
H250 H 0.65302 0.55499 0.04395 0.0
H251 H 0.77535 0.72189 0.15116 0.0
Tb252 Tb 0.42342 0.69894 0.55235 0.0
C253 C 0.34777 0.73247 0.71876 0.0
N254 N 0.33008 0.68875 0.68431 0.0
C255 C 0.30038 0.61273 0.71451 0.0
C256 C 0.3432 0.71761 0.75263 0.0
C257 C 0.30606 0.62947 0.68177 0.0
C258 C 0.31912 0.65698 0.75013 0.0
C259 C 0.3943 0.83719 0.75543 0.0
C260 C 0.37161 0.79189 0.71996 0.0
C261 C 0.38956 0.82272 0.78918 0.0
C262 C 0.36353 0.76325 0.78783 0.0
Tb263 Tb 0.33841 0.71913 0.63192 0.0
N264 N 0.37654 0.80404 0.68644 0.0
C265 C 0.42366 0.89502 0.75599 0.0
C266 C 0.40882 0.86041 0.68761 0.0
C267 C 0.43087 0.9067 0.72201 0.0
H268 H 0.29059 0.59481 0.65439 0.0
H269 H 0.45676 0.95032 0.72208 0.0
H270 H 0.45399 0.77886 0.49283 0.0
H271 H 0.25047 0.49064 0.52578 0.0
H272 H 0.4241 0.87012 0.66294 0.0
H273 H 0.44424 0.92967 0.78215 0.0
H274 H 0.30598 0.59197 0.56429 0.0
H275 H 0.28153 0.56569 0.71221 0.0
H276 H 0.40683 0.8569 0.81646 0.0
H277 H 0.36034 0.75272 0.81409 0.0
H278 H 0.44439 0.75921 0.42357 0.0
H279 H 0.31498 0.64385 0.77549 0.0
H280 H 0.26248 0.44994 0.45707 0.0
N281 N 0.41336 0.68814 0.48889 0.0
C282 C 0.38633 0.63118 0.46548 0.0
C283 C 0.42792 0.72277 0.43492 0.0
C284 C 0.38193 0.61711 0.42552 0.0
C285 C 0.4317 0.7345 0.47425 0.0
C286 C 0.40391 0.66351 0.41039 0.0
N287 N 0.35838 0.60622 0.52043 0.0
C288 C 0.31517 0.57425 0.53528 0.0
C289 C 0.32525 0.53137 0.45781 0.0
C290 C 0.35886 0.58855 0.4817 0.0
C291 C 0.28891 0.49405 0.47435 0.0
C292 C 0.28213 0.51675 0.51309 0.0
H293 H 0.40109 0.65447 0.37987 0.0
H294 H 0.3518 0.54603 0.37126 0.0
H295 H 0.30094 0.47104 0.39943 0.0
O296 O 0.51215 0.72737 0.57375 0.0
O297 O 0.33742 0.71643 0.53306 0.0
O298 O 0.28133 0.69606 0.57859 0.0
O299 O 0.49018 0.68968 0.51417 0.0
O300 O 0.42691 0.6134 0.56695 0.0
O301 O 0.37315 0.627 0.61922 0.0
O302 O 0.26787 0.7437 0.66263 0.0
O303 O 0.42164 0.70296 0.64641 0.0
O304 O 0.45935 0.76117 0.61342 0.0
O305 O 0.25703 0.65643 0.61469 0.0
O306 O 0.35965 0.81029 0.61511 0.0
O307 O 0.41394 0.79424 0.56299 0.0
C308 C 0.28469 0.7039 0.54522 0.0
C309 C 0.55583 0.78684 0.53732 0.0
C310 C 0.59536 0.84727 0.49753 0.0
C311 C 0.59334 0.90171 0.52689 0.0
C312 C 0.55387 0.84222 0.56657 0.0
C313 C 0.57237 0.89902 0.56127 0.0
C314 C 0.57688 0.79008 0.50301 0.0
C315 C 0.40533 0.59264 0.59433 0.0
C316 C 0.52932 0.72622 0.54079 0.0
C317 C 0.35381 0.55806 0.40196 0.0
C318 C 0.32537 0.51525 0.41804 0.0
C319 C 0.46554 0.74339 0.64363 0.0
C320 C 0.17087 0.67686 0.64836 0.0
C321 C 1.09392 0.6977 0.6906 0.0
C322 C 1.05259 0.65363 0.6626 0.0
C323 C 0.12974 0.63141 0.6208 0.0
C324 C 0.15269 0.70851 0.68313 0.0
C325 C 1.07073 0.62018 0.6279 0.0
C326 C 0.3911 0.83272 0.59002 0.0
C327 C 0.23291 0.69212 0.6419 0.0
H328 H 0.60899 0.94601 0.52345 0.0
H329 H 0.53711 0.84196 0.5934 0.0
H330 H 0.57051 0.94107 0.58395 0.0
H331 H 0.57938 0.74786 0.48054 0.0
H332 H 1.00688 0.6446 0.6677 0.0
H333 H 0.14289 0.6057 0.59365 0.0
H334 H 0.18477 0.74227 0.70471 0.0
H335 H 1.03897 0.58581 0.60637 0.0
Tb336 Tb 0.62783 0.91999 0.88822 0.0
C337 C 0.61273 1.05641 0.76125 0.0
N338 N 0.65452 1.0383 0.77787 0.0
C339 C 0.69918 1.01143 0.71886 0.0
C340 C 0.61089 1.05068 0.72234 0.0
C341 C 0.69918 1.01864 0.75769 0.0
C342 C 0.65398 1.02605 0.70087 0.0
C343 C 0.53257 0.10882 0.76937 0.0
C344 C 0.57424 0.08448 0.78417 0.0
C345 C 0.52811 0.10052 0.73017 0.0
C346 C 0.56719 0.07125 0.70661 0.0
Tb347 Tb 0.64586 1.04324 0.84014 0.0
N348 N 0.58093 0.09209 0.82174 0.0
C349 C 0.49833 0.14255 0.7947 0.0
C350 C 0.55021 0.12812 0.84692 0.0
C351 C 0.50795 0.15317 0.83375 0.0
H352 H 0.73352 1.00596 0.771 0.0
H353 H 0.48269 0.18041 0.8537 0.0
H354 H 0.51734 0.80764 0.84523 0.0
H355 H 0.70345 1.02478 0.03856 0.0
H356 H 0.55722 0.13622 0.87711 0.0
H357 H 0.46574 0.1621 0.78456 0.0
H358 H 0.71311 0.99661 0.96971 0.0
H359 H 0.73366 0.99394 0.70276 0.0
H360 H 0.49587 0.11812 0.71805 0.0
H361 H 0.56443 1.06657 0.67664 0.0
H362 H 0.43218 0.74415 0.86208 0.0
H363 H 0.65347 1.01931 0.6707 0.0
H364 H 0.61238 0.98226 0.06206 0.0
N365 N 0.5448 0.86475 0.90225 0.0
C366 C 0.53554 0.87563 0.93942 0.0
C367 C 0.46057 0.7814 0.88415 0.0
C368 C 0.48752 0.84077 0.95061 0.0
C369 C 0.50875 0.81758 0.87462 0.0
C370 C 0.4497 0.79319 0.92235 0.0
N371 N 0.62492 0.94617 0.95359 0.0
C372 C 0.67163 0.98075 0.9793 0.0
C373 C 0.57028 0.93102 0.00538 0.0
C374 C 0.57644 0.91932 0.96615 0.0
C375 C 0.61551 0.97168 0.03169 0.0
C376 C 0.66691 0.99578 0.01853 0.0
H377 H 0.41244 0.76507 0.92971 0.0
H378 H 0.44252 0.82821 -0.00125 0.0
H379 H 0.51496 0.90798 0.04689 0.0
O380 O 0.64998 0.83804 0.85255 0.0
O381 O 0.67032 1.01716 0.91783 0.0
O382 O 0.61194 1.0653 0.89653 0.0
O383 O 0.66848 0.8693 0.91341 0.0
O384 O 0.72168 0.96503 0.88703 0.0
O385 O 0.72052 0.99234 0.83346 0.0
O386 O 0.68461 0.13324 0.84341 0.0
O387 O 0.63524 0.95174 0.79698 0.0
O388 O 0.58745 0.88721 0.82712 0.0
O389 O 0.71939 0.09072 0.87959 0.0
O390 O 0.55009 1.01203 0.84899 0.0
O391 O 0.53992 0.94477 0.88409 0.0
C392 C 0.64088 1.06098 0.92549 0.0
C393 C 0.64443 0.76274 0.88474 0.0
C394 C 0.63661 0.69444 0.92323 0.0
C395 C 0.6007 0.64779 0.89313 0.0
C396 C 0.60822 0.71554 0.85517 0.0
C397 C 0.58667 0.6584 0.85941 0.0
C398 C 0.65887 0.75142 0.91848 0.0
C399 C 0.75037 0.97874 0.85949 0.0
C400 C 0.66722 0.82451 0.88191 0.0
C401 C 0.47958 0.85383 0.98954 0.0
C402 C 0.5207 0.89935 0.01692 0.0
C403 C 0.59905 0.90047 0.79537 0.0
C404 C 0.78732 0.16062 0.85987 0.0
C405 C 0.85186 0.209 0.82252 0.0
C406 C 0.90084 0.20726 0.84401 0.0
C407 C 0.83658 0.16014 0.88196 0.0
C408 C 0.79572 0.18481 0.83027 0.0
C409 C 0.89302 0.18294 0.87381 0.0
C410 C 0.5167 0.97776 0.86668 0.0
C411 C 0.72722 0.13794 0.86805 0.0
H412 H 0.58287 0.6034 0.89587 0.0
H413 H 0.59636 0.72275 0.82895 0.0
H414 H 0.55865 0.62222 0.83652 0.0
H415 H 0.68775 0.78718 0.94121 0.0
H416 H 0.94453 0.22488 0.83797 0.0
H417 H 0.83147 0.14204 0.90532 0.0
H418 H 0.75817 0.18489 0.81276 0.0
H419 H 0.93072 0.18192 0.89071 0.0
Tb420 Tb 1.00976 0.62969 0.36411 0.0
C421 C 0.92991 0.69381 0.52509 0.0
N422 N 0.90978 0.63948 0.49686 0.0
C423 C 0.88187 0.59035 0.54316 0.0
C424 C 0.92557 0.69888 0.56372 0.0
C425 C 0.88603 0.58791 0.50527 0.0
C426 C 0.90124 0.64622 0.57254 0.0
C427 C 0.98125 0.80024 0.54404 0.0
C428 C 0.95739 0.74373 0.51518 0.0
C429 C 0.97313 0.80674 0.58231 0.0
C430 C 0.94604 0.75601 0.59222 0.0
Tb431 Tb 0.90851 0.64332 0.43652 0.0
N432 N 0.96481 0.73533 0.47771 0.0
C433 C 1.01491 0.84766 0.53384 0.0
C434 C 1.00302 0.77982 0.46861 0.0
C435 C 1.0273 0.83665 0.49611 0.0
H436 H 0.8687 0.54512 0.48286 0.0
H437 H 1.05641 0.87165 0.48819 0.0
H438 H 1.08482 0.76132 0.35948 0.0
H439 H 0.90646 0.41478 0.25256 0.0
H440 H 1.01758 0.77227 0.44083 0.0
H441 H 1.03421 0.89159 0.55514 0.0
H442 H 0.93864 0.47902 0.3176 0.0
H443 H 0.86282 0.54935 0.54964 0.0
H444 H 0.98924 0.85037 0.60451 0.0
H445 H 0.94208 0.7612 0.62202 0.0
H446 H 0.1062 0.80975 0.30996 0.0
H447 H 0.89751 0.64815 0.60188 0.0
H448 H 0.92335 0.45668 0.19997 0.0
N449 N 1.03539 0.67729 0.32067 0.0
C450 C 1.01776 0.64341 0.28375 0.0
C451 C 1.08081 0.76315 0.30223 0.0
C452 C 1.02791 0.66964 0.25468 0.0
C453 C 1.06856 0.73563 0.33016 0.0
C454 C 1.05956 0.73035 0.26437 0.0
N455 N 0.97984 0.55868 0.304 0.0
C456 C 0.95011 0.49892 0.29591 0.0
C457 C 0.9692 0.54646 0.23693 0.0
C458 C 0.98939 0.58226 0.27505 0.0
C459 C 0.93981 0.48544 0.22884 0.0
C460 C 0.93028 0.46165 0.25845 0.0
H461 H 1.06853 0.75194 0.24279 0.0
H462 H 1.01208 0.6544 0.1944 0.0
H463 H 0.95964 0.54714 0.17926 0.0
O464 O 1.07786 0.589 0.33822 0.0
O465 O 0.92674 0.63606 0.3404 0.0
O466 O 0.87284 0.58711 0.37501 0.0
O467 O 1.09536 0.67346 0.38638 0.0
O468 O 0.97983 0.53639 0.3767 0.0
O469 O 0.91327 0.54604 0.42187 0.0
O470 O 0.84242 0.68546 0.46348 0.0
O471 O 0.99552 0.63092 0.4592 0.0
O472 O 1.05005 0.67606 0.42312 0.0
O473 O 0.82559 0.58807 0.43536 0.0
O474 O 0.90307 0.72039 0.41287 0.0
O475 O 0.9803 0.72338 0.37561 0.0
C476 C 0.87813 0.60062 0.34302 0.0
C477 C 0.16996 0.65986 0.34528 0.0
C478 C 0.23402 0.65151 0.29425 0.0
C479 C 0.27534 0.70199 0.31782 0.0
C480 C 0.21136 0.711 0.36882 0.0
C481 C 0.26356 0.73213 0.35499 0.0
C482 C 0.18154 0.63084 0.30802 0.0
C483 C 0.94201 0.5107 0.39741 0.0
C484 C 0.11793 0.63378 0.36096 0.0
C485 C 1.00619 0.63462 0.21701 0.0
C486 C 0.97705 0.57323 0.20822 0.0
C487 C 1.04863 0.65375 0.45125 0.0
C488 C 0.75008 0.63755 0.42937 0.0
C489 C 0.69343 0.69937 0.40778 0.0
C490 C 0.6452 0.64846 0.39808 0.0
C491 C 0.70145 0.58866 0.4204 0.0
C492 C 0.74715 0.68994 0.41968 0.0
C493 C 0.64988 0.59338 0.40346 0.0
C494 C 0.93625 0.74901 0.39247 0.0
C495 C 0.80267 0.63508 0.45061 0.0
H496 H 0.31646 0.71758 0.3076 0.0
H497 H 0.20393 0.73385 0.3981 0.0
H498 H 0.29538 0.77112 0.37338 0.0
H499 H 0.1507 0.59039 0.28996 0.0
H500 H 0.60234 0.65128 0.38854 0.0
H501 H 0.70321 0.54723 0.42686 0.0
H502 H 0.78665 0.72411 0.42343 0.0
H503 H 0.61221 0.55554 0.3966 0.0
Tb504 Tb 0.14768 1.02225 0.82551 0.0
C505 C 0.13221 1.02546 -0.00302 0.0
N506 N 0.16898 1.00889 0.96974 0.0
C507 C 0.25127 1.05925 0.01637 0.0
C508 C 0.15332 1.06193 0.03479 0.0
C509 C 0.22798 1.02339 0.97918 0.0
C510 C 0.21379 0.07947 0.0442 0.0
C511 C 1.03395 1.00944 0.01587 0.0
C512 C 1.07371 0.99962 0.98772 0.0
C513 C 1.05362 1.05073 0.05271 0.0
C514 C 0.11343 0.07687 0.06222 0.0
Tb515 Tb 0.12713 0.9474 0.9102 0.0
N516 N 1.05734 0.95824 0.95238 0.0
C517 C 0.97693 0.97393 0.00688 0.0
C518 C 1.00394 0.91901 0.94485 0.0
C519 C 0.96241 0.92715 0.97161 0.0
H520 H 0.25743 1.00799 0.9581 0.0
H521 H 0.91933 0.89737 0.96498 0.0
H522 H 1.06686 0.11455 0.81711 0.0
H523 H 0.22792 0.84608 0.71961 0.0
H524 H 0.99289 0.88258 0.91764 0.0
H525 H 0.94496 0.97979 0.02769 0.0
H526 H 0.22442 0.91845 0.78359 0.0
H527 H 0.29809 0.07147 0.02348 0.0
H528 H 1.02358 1.05992 0.07459 0.0
H529 H 0.12861 0.10611 0.09122 0.0
H530 H 1.00834 0.12855 0.76573 0.0
H531 H 0.23187 0.10728 0.07295 0.0
H532 H 0.15591 0.83537 0.66696 0.0
N533 N 1.0824 1.02903 0.78219 0.0
C534 C 1.07737 0.98765 0.74656 0.0
C535 C 1.02622 0.08786 0.76007 0.0
C536 C 1.04353 0.99274 0.71649 0.0
C537 C 1.05931 0.07996 0.7891 0.0
C538 C 1.01689 1.04314 0.72384 0.0
N539 N 0.14956 0.94754 0.7683 0.0
C540 C 0.19186 0.91357 0.76125 0.0
C541 C 0.1129 0.90453 0.70208 0.0
C542 C 0.11202 0.94487 0.73938 0.0
C543 C 0.15358 0.86676 0.69526 0.0
C544 C 0.19405 0.87234 0.72488 0.0
H545 H 0.99159 1.04937 0.70128 0.0
H546 H 1.01534 0.95336 0.65614 0.0
H547 H 1.07639 0.87568 0.64363 0.0
O548 O 0.20454 1.05321 0.78963 0.0
O549 O 0.14417 0.93198 0.82967 0.0
O550 O 1.07215 0.89473 0.85833 0.0
O551 O 0.18983 0.11638 0.84299 0.0
O552 O 0.23306 1.00601 0.84518 0.0
O553 O 0.22033 0.95722 0.89134 0.0
O554 O 0.13384 0.8942 0.94514 0.0
O555 O 0.17934 1.03262 0.9095 0.0
O556 O 0.13056 0.08147 0.8814 0.0
O557 O 0.14363 0.85898 0.88514 0.0
O558 O 1.04227 0.97032 0.89055 0.0
O559 O 1.05184 1.01056 0.83944 0.0
C560 C 1.09371 0.89461 0.82656 0.0
C561 C 0.20977 0.15441 0.79064 0.0
C562 C 0.23892 0.19406 0.73864 0.0
C563 C 0.20277 0.23655 0.75079 0.0
C564 C 0.17467 0.19793 0.80238 0.0
C565 C 0.17088 0.23827 0.78232 0.0
C566 C 0.24194 0.15287 0.75872 0.0
C567 C 0.25436 0.97986 0.86806 0.0
C568 C 0.21399 0.11036 0.81103 0.0
C569 C 1.04137 0.95038 0.67959 0.0
C570 C 1.076 0.90621 0.67244 0.0
C571 C 0.15434 0.078 0.9124 0.0
C572 C 1.10086 0.7887 0.91547 0.0
C573 C 1.08028 0.70625 0.94242 0.0
C574 C 1.02575 0.68373 0.92105 0.0
C575 C 1.04661 0.76569 0.89369 0.0
C576 C 0.11742 0.75868 0.93948 0.0
C577 C 1.00929 0.71319 0.89648 0.0
C578 C 1.01899 0.99128 0.86466 0.0
C579 C 0.1392 0.84663 0.91673 0.0
H580 H 0.19944 0.26875 0.73597 0.0
H581 H 0.15002 0.2008 0.82694 0.0
H582 H 0.14341 0.27141 0.79145 0.0
H583 H 0.27042 0.12057 0.75012 0.0
H584 H 0.99636 0.64342 0.92319 0.0
H585 H 1.03277 0.78869 0.87517 0.0
H586 H 0.15892 0.77725 0.95682 0.0
H587 H 0.9673 0.6957 0.87988 0.0
Tb588 Tb 0.91692 0.16246 0.44575 0.0
C589 C 0.80856 0.98485 0.28289 0.0
N590 N 0.81735 1.04685 0.29865 0.0
C591 C 0.84323 1.05741 0.23855 0.0
C592 C 0.8189 0.95652 0.24472 0.0
C593 C 0.83138 0.08307 0.27639 0.0
C594 C 0.83806 0.99388 0.22283 0.0
C595 C 0.76672 0.88537 0.28785 0.0
C596 C 0.78315 0.9499 0.30399 0.0
C597 C 0.78082 0.85636 0.2508 0.0
C598 C 0.80695 0.89195 0.22924 0.0
Tb599 Tb 0.80426 0.0845 0.36251 0.0
N600 N 0.76926 0.97996 0.3392 0.0
C601 C 0.73399 0.85251 0.30866 0.0
C602 C 0.73255 0.94872 0.35805 0.0
C603 C 0.71562 0.88449 0.34352 0.0
H604 H 0.83557 0.13221 0.28813 0.0
H605 H 0.68856 0.85975 0.35925 0.0
H606 H 0.8734 0.27736 0.50924 0.0
H607 H 0.13483 0.15463 0.40097 0.0
H608 H 0.71845 0.97322 0.38508 0.0
H609 H 0.72053 0.80284 0.29734 0.0
H610 H 1.0421 0.11297 0.42316 0.0
H611 H 0.85618 0.08666 0.22154 0.0
H612 H 0.76944 0.80673 0.23801 0.0
H613 H 0.81536 0.86921 0.20014 0.0
H614 H 0.90131 0.39101 0.53358 0.0
H615 H 0.84663 0.97402 0.1934 0.0
H616 H 0.16386 0.26537 0.4103 0.0
N617 N 0.94638 0.26687 0.47655 0.0
C618 C 0.99658 0.29567 0.46714 0.0
C619 C 0.92857 0.36475 0.51482 0.0
C620 C 1.01417 0.36027 0.47978 0.0
C621 C 0.91315 0.30037 0.5013 0.0
C622 C 0.97884 0.39494 0.50347 0.0
N623 N 1.01433 0.19802 0.43905 0.0
C624 C 1.05357 0.16137 0.42654 0.0
C625 C 1.08626 0.28617 0.43761 0.0
C626 C 1.03178 0.25949 0.44688 0.0
C627 C 0.12254 0.24735 0.4193 0.0
C628 C 0.10646 0.18478 0.41432 0.0
H629 H 0.99062 0.44475 0.51381 0.0
H630 H 1.08113 0.43724 0.478 0.0
H631 H 0.14447 0.37195 0.44061 0.0
O632 O 0.94565 0.18882 0.50339 0.0
O633 O 0.87677 0.22987 0.42844 0.0
O634 O 0.85204 0.18384 0.36499 0.0
O635 O 0.888 0.10135 0.47618 0.0
O636 O 0.95074 0.1181 0.39031 0.0
O637 O 0.88657 0.12544 0.34653 0.0
O638 O 0.7438 0.14146 0.38081 0.0
O639 O 0.84063 1.01278 0.38116 0.0
O640 O 0.92631 1.06195 0.4195 0.0
O641 O 0.72322 1.06086 0.33095 0.0
O642 O 0.77868 0.08086 0.41886 0.0
O643 O 0.82602 0.17526 0.45349 0.0
C644 C 0.87303 0.23611 0.39456 0.0
C645 C 0.97352 0.10371 0.51174 0.0
C646 C 1.07624 0.10035 0.50368 0.0
C647 C 1.06411 1.03939 0.50401 0.0
C648 C 0.96187 1.0431 0.51205 0.0
C649 C 1.00747 1.01159 0.50902 0.0
C650 C 1.03108 0.13214 0.50955 0.0
C651 C 0.93818 0.11957 0.35611 0.0
C652 C 0.92686 0.13378 0.50465 0.0
C653 C 1.06703 0.38765 0.46912 0.0
C654 C 0.10302 0.35051 0.44783 0.0
C655 C 0.88919 1.00915 0.39931 0.0
C656 C 0.68348 0.14246 0.32988 0.0
C657 C 0.6029 0.15243 0.29195 0.0
C658 C 0.6434 0.1855 0.27463 0.0
C659 C 0.72293 0.17654 0.31283 0.0
C660 C 0.62321 0.13007 0.31936 0.0
C661 C 0.70286 0.19558 0.28429 0.0
C662 C 0.78013 0.13046 0.44818 0.0
C663 C 0.70592 0.1091 0.35188 0.0
H664 H 1.09744 1.0126 0.49982 0.0
H665 H 0.91757 1.0195 0.51293 0.0
H666 H 0.99834 0.96452 0.50877 0.0
H667 H 1.03976 0.17814 0.50814 0.0
H668 H 0.62928 0.19949 0.25147 0.0
H669 H 0.76941 0.18482 0.31971 0.0
H670 H 0.59286 0.10017 0.33052 0.0
H671 H 0.73347 0.21457 0.26791 0.0
C672 C 0.98017 0.15758 0.30425 0.0
C673 C 0.98476 0.1249 0.32965 0.0
C674 C 1.02674 0.17248 0.28334 0.0
C675 C 1.07926 0.15301 0.28569 0.0
H676 H 0.94093 0.17395 0.30143 0.0
H677 H 1.02232 0.20164 0.26653 0.0
S678 S 0.10327 1.04305 0.33433 0.0
N679 N 1.03918 1.05827 0.34682 0.0
N680 N 0.12638 0.08452 0.30702 0.0
C681 C 1.08121 0.11291 0.30678 0.0
C682 C 1.03402 0.09889 0.32864 0.0
C683 C 0.78973 0.27018 0.75661 0.0
C684 C 0.79625 0.22601 0.72162 0.0
C685 C 0.82036 0.27488 0.79032 0.0
C686 C 0.85557 0.23308 0.79049 0.0
H687 H 0.75597 0.29635 0.75946 0.0
H688 H 0.80829 0.3036 0.817 0.0
S689 S 0.90754 0.13008 0.7059 0.0
N690 N 0.85884 0.1583 0.68819 0.0
N691 N 0.91013 0.1611 0.7527 0.0
C692 C 0.8712 0.19776 0.75555 0.0
C693 C 0.84241 0.19525 0.72078 0.0
C694 C 0.79705 0.51009 0.30049 0.0
C695 C 0.83759 0.56587 0.30592 0.0
C696 C 0.76518 0.47482 0.26444 0.0
C697 C 0.77355 0.49013 0.23079 0.0
H698 H 0.7901 0.49292 0.32414 0.0
H699 H 0.73289 0.43518 0.26296 0.0
S700 S 0.86051 0.64103 0.23152 0.0
N701 N 0.87299 0.64192 0.27554 0.0
N702 N 0.81734 0.57369 0.20864 0.0
C703 C 0.81046 0.54832 0.23666 0.0
C704 C 0.84126 0.58589 0.27363 0.0
C705 C 0.11424 0.74344 0.76056 0.0
C706 C 1.07839 0.73525 0.72773 0.0
C707 C 0.11656 0.79379 0.79339 0.0
C708 C 1.08118 0.83607 0.79513 0.0
H709 H 0.14482 0.71396 0.75963 0.0
H710 H 0.14904 0.8016 0.81649 0.0
S711 S 0.97032 0.82791 0.72044 0.0
N712 N 1.00102 0.76895 0.70075 0.0
N713 N 1.00241 0.86167 0.76422 0.0
C714 C 1.03999 0.8245 0.76444 0.0
C715 C 1.03892 0.77409 0.73029 0.0
C716 C 0.34953 0.25623 0.6795 0.0
C717 C 0.35393 0.20351 0.64925 0.0
C718 C 0.31111 0.25275 0.70755 0.0
C719 C 0.27629 0.19614 0.70681 0.0
H720 H 0.37711 0.30036 0.68202 0.0
H721 H 0.31021 0.2945 0.73078 0.0
S722 S 0.2705 1.04485 0.63239 0.0
N723 N 0.31944 0.09344 0.61918 0.0
N724 N 0.24718 0.08638 0.67195 0.0
C725 C 0.27946 0.14316 0.67606 0.0
C726 C 0.31823 0.14699 0.64724 0.0
C727 C 0.50569 1.06121 0.20945 0.0
C728 C 0.48925 0.11018 0.20104 0.0
C729 C 0.532 0.07075 0.24564 0.0
C730 C 0.54297 0.12964 0.27337 0.0
H731 H 0.50785 1.01938 0.18662 0.0
H732 H 0.55379 1.03598 0.24913 0.0
S733 S 0.48257 0.26182 0.26996 0.0
N734 N 0.46586 0.21083 0.22672 0.0
N735 N 0.51612 0.22895 0.29473 0.0
C736 C 0.51305 0.17286 0.26808 0.0
C737 C 0.48619 0.16318 0.23141 0.0
C738 C 0.56943 0.87791 0.72366 0.0
C739 C 0.5691 0.85739 0.75577 0.0
C740 C 0.53933 0.84091 0.68727 0.0
C741 C 0.50609 0.78073 0.68049 0.0
H742 H 0.59191 0.92407 0.72677 0.0
H743 H 0.54002 0.86098 0.66482 0.0
S744 S 0.49732 0.69953 0.75212 0.0
N745 N 0.5371 0.7685 0.77558 0.0
N746 N 0.48107 0.70021 0.70892 0.0
C747 C 0.50807 0.75837 0.71169 0.0
C748 C 0.53882 0.79604 0.74859 0.0
C749 C 0.28797 0.57894 0.25291 0.0
C750 C 0.24585 0.61491 0.25623 0.0
C751 C 0.28526 0.52693 0.2207 0.0
C752 C 0.23959 0.50901 0.19163 0.0
H753 H 0.31986 0.58782 0.27663 0.0
H754 H 0.31681 0.49852 0.21973 0.0
S755 S 0.1262 0.59602 0.18437 0.0
N756 N 0.16414 0.63622 0.22562 0.0
N757 N 0.15668 0.53683 0.16587 0.0
C758 C 0.20092 0.54843 0.19314 0.0
C759 C 0.20473 0.60197 0.22535 0.0
C760 C 0.21386 0.14904 0.97107 0.0
C761 C 0.15903 0.12601 0.94977 0.0
C762 C 0.21946 0.18728 0.00917 0.0
C763 C 0.17037 0.20394 0.02707 0.0
H764 H 0.25277 0.13685 0.95819 0.0
H765 H 0.26264 0.20561 0.02426 0.0
S766 S 1.01714 0.15607 0.98382 0.0
N767 N 1.05482 0.12206 0.94928 0.0
N768 N 1.06525 0.1955 0.02083 0.0
C769 C 0.11532 0.18174 0.00598 0.0
C770 C 0.10965 0.14255 0.96724 0.0
C771 C 0.61926 0.12302 0.47716 0.0
C772 C 0.62512 0.1625 0.51565 0.0
C773 C 0.66864 0.11154 0.45595 0.0
C774 C 0.72711 0.13959 0.47161 0.0
H775 H 0.57595 0.10111 0.46296 0.0
H776 H 0.66067 0.08141 0.42658 0.0
S777 S 0.76885 0.24222 0.57182 0.0
N778 N 0.69677 0.22621 0.5687 0.0
N779 N 0.78701 0.20537 0.52931 0.0
C780 C 0.73357 0.17777 0.51015 0.0
C781 C 0.68369 0.18893 0.53186 0.0
C782 C 0.67163 0.63099 0.95871 0.0
C783 C 0.65105 0.68374 0.95951 0.0
C784 C 0.68651 0.62058 -0.00748 0.0
C785 C 0.68123 0.66235 0.0286 0.0
H786 H 0.67723 0.59793 0.9317 0.0
H787 H 0.70317 0.57985 0.99035 0.0
S788 S 0.62409 0.80475 0.0462 0.0
N789 N 0.62282 0.7764 -0.00065 0.0
N790 N 0.65027 0.75679 0.06275 0.0
C791 C 0.65959 0.71474 0.02974 0.0
C792 C 0.64462 0.72539 -0.0047 0.0
C793 C 0.21698 0.66842 0.4807 0.0
C794 C 0.22509 0.69384 0.52109 0.0
C795 C 0.1609 0.65458 0.45933 0.0
C796 C 0.10771 0.66446 0.47621 0.0
H797 H 0.25428 0.65778 0.46517 0.0
H798 H 0.15947 0.63451 0.42879 0.0
S799 S 0.10345 0.73622 0.58074 0.0
N800 N 0.17279 0.73239 0.57655 0.0
N801 N 1.07032 0.70534 0.53721 0.0
C802 C 0.11541 0.69029 0.51652 0.0
C803 C 0.17253 0.70502 0.53837 0.0
C804 C 0.71069 0.13374 0.98246 0.0
C805 C 0.65511 0.1157 0.96187 0.0
C806 C 0.72501 0.18616 0.01588 0.0
C807 C 0.68457 0.22333 0.03045 0.0
H808 H 0.744 0.10786 0.97228 0.0
H809 H 0.76864 0.19826 0.03011 0.0
S810 S 0.53064 0.19196 0.99008 0.0
N811 N 0.55823 0.1374 0.96034 0.0
N812 N 0.58415 0.23378 0.02314 0.0
C813 C 0.62821 0.20449 0.0108 0.0
C814 C 0.61387 0.15153 0.97662 0.0
C815 C 0.59895 0.81037 0.42789 0.0
C816 C 0.62663 0.84814 0.46379 0.0
C817 C 0.62831 0.77004 0.40262 0.0
C818 C 0.68365 0.76355 0.41455 0.0
H819 H 0.55231 0.80457 0.42206 0.0
H820 H 0.6035 0.73708 0.37705 0.0
S821 S 0.78433 0.88418 0.49346 0.0
N822 N 0.71955 0.90142 0.49987 0.0
N823 N 0.77429 0.82322 0.45462 0.0
C824 C 0.71645 0.8147 0.44453 0.0
C825 C 0.68728 0.85778 0.46893 0.0
C826 C 1.06886 0.67656 0.001 0.0
C827 C 1.0993 0.67719 0.9689 0.0
C828 C 1.09224 0.65911 0.02989 0.0
C829 C 0.1463 0.64124 0.02714 0.0
H830 H 1.02809 0.69209 0.00453 0.0
H831 H 1.06832 0.66021 0.05464 0.0
S832 S 0.24152 0.6331 0.94796 0.0
N833 N 0.18477 0.65664 0.93534 0.0
N834 N 0.22885 0.62407 0.98949 0.0
C835 C 0.17609 0.63998 -0.00542 0.0
C836 C 0.1525 0.65788 0.96545 0.0
C837 C 0.19596 0.22804 0.49363 0.0
C838 C 0.226 0.19684 0.46412 0.0
C839 C 0.15054 0.19585 0.50784 0.0
C840 C 0.13202 0.131 0.49264 0.0
H841 H 0.20962 0.27737 0.5073 0.0
H842 H 0.13049 0.22242 0.53167 0.0
S843 S 0.19754 1.02824 0.41435 0.0
N844 N 0.23462 0.09801 0.41948 0.0
N845 N 0.14919 1.03741 0.44624 0.0
C846 C 0.16219 0.09939 0.46305 0.0
C847 C 0.20864 0.13226 0.4486 0.0
C848 C 0.98024 0.30969 0.12048 0.0
C849 C 1.02461 0.35753 0.11629 0.0
C850 C 0.91937 0.31279 0.12228 0.0
C851 C 0.89663 0.36355 0.11975 0.0
H852 H 0.99234 0.26835 0.12201 0.0
H853 H 0.88951 0.27337 0.12454 0.0
S854 S 0.99184 0.4992 0.10399 0.0
N855 N 1.03851 0.45671 0.1073 0.0
N856 N 0.92702 0.4614 0.10936 0.0
C857 C 0.94039 0.4106 0.11401 0.0
C858 C 1.00259 0.40788 0.11267 0.0
C859 C 0.43178 1.02128 0.62163 0.0
C860 C 0.45098 1.03518 0.58827 0.0
C861 C 0.41044 0.95868 0.62268 0.0
C862 C 0.40597 0.9035 0.5904 0.0
H863 H 0.43239 1.05943 0.64753 0.0
H864 H 0.39786 0.95411 0.64957 0.0
S865 S 0.45088 0.91106 0.49573 0.0
N866 N 0.46526 0.98408 0.52258 0.0
N867 N 0.42257 0.8727 0.52347 0.0
C868 C 0.42438 0.91795 0.55722 0.0
C869 C 0.44702 0.98074 0.55639 0.0
C870 C 0.42084 1.00669 0.84663 0.0
C871 C 0.44977 0.9791 0.86844 0.0
C872 C 0.35931 1.00612 0.84639 0.0
C873 C 0.32128 0.97918 0.86871 0.0
H874 H 0.44582 1.02823 0.82856 0.0
H875 H 0.34145 1.02752 0.82828 0.0
S876 S 0.37331 0.9076 0.93541 0.0
N877 N 0.43317 0.92856 0.91603 0.0
N878 N 0.32035 0.92747 0.91554 0.0
C879 C 0.34978 0.9533 0.89166 0.0
C880 C 0.41246 0.9535 0.89168 0.0
C881 C 0.87069 0.35478 0.41783 0.0
C882 C 0.88988 0.30439 0.39176 0.0
C883 C 0.88754 0.418 0.41869 0.0
C884 C 0.92715 0.43918 0.39444 0.0
H885 H 0.84136 0.34534 0.43831 0.0
H886 H 0.86854 0.45114 0.43942 0.0
S887 S 0.9976 0.32982 0.32244 0.0
N888 N 0.95594 0.28439 0.34189 0.0
N889 N 0.98718 0.39989 0.34382 0.0
C890 C 0.94812 0.38966 0.36865 0.0
C891 C 0.9301 0.3245 0.36739 0.0
C892 C 0.43257 0.39539 0.11282 0.0
C893 C 0.38998 0.34744 0.11883 0.0
C894 C 0.49499 0.39833 0.11513 0.0
C895 C 0.52133 0.35475 0.12492 0.0
H896 H 0.41777 0.43212 0.1064 0.0
H897 H 0.52322 0.43639 0.1096 0.0
S898 S 0.43216 0.21827 0.14284 0.0
N899 N 0.38204 0.25344 0.13386 0.0
N900 N 0.49607 0.26056 0.14011 0.0
C901 C 0.47939 0.30699 0.13143 0.0
C902 C 0.41568 0.30311 0.12806 0.0
C903 C 0.43556 0.42018 0.55908 0.0
C904 C 0.43692 0.39933 0.59122 0.0
C905 C 0.42585 0.4803 0.56068 0.0
C906 C 0.41502 0.52634 0.59446 0.0
H907 H 0.4431 0.3896 0.53173 0.0
H908 H 0.4264 0.49052 0.5343 0.0
S909 S 0.41311 0.49949 0.6882 0.0
N910 N 0.42617 0.43442 0.65916 0.0
N911 N 0.40727 0.54321 0.66187 0.0
C912 C 0.41575 0.50614 0.62692 0.0
C913 C 0.42675 0.44502 0.62542 0.0
C914 C 0.85077 0.96799 0.88751 0.0
C915 C 0.81892 0.98293 0.85998 0.0
C916 C 0.91314 0.97162 0.8889 0.0
C917 C 0.95036 0.9899 0.86287 0.0
H918 H 0.82718 0.95312 0.90876 0.0
H919 H 0.93222 0.95997 0.91124 0.0
S920 S 0.8915 1.03686 0.78513 0.0
N921 N 0.83276 1.01989 0.80647 0.0
N922 N 0.94616 1.02435 0.80816 0.0
C923 C 0.91886 1.00546 0.83531 0.0
C924 C 0.85524 1.00252 0.83412 0.0
C925 C 0.8689 0.83033 0.39375 0.0
C926 C 0.92534 0.81488 0.39191 0.0
C927 C 0.85793 0.89035 0.39563 0.0
C928 C 0.90238 0.94256 0.39661 0.0
H929 H 0.83157 0.79466 0.39304 0.0
H930 H 0.81322 0.89594 0.39707 0.0
S931 S 1.05834 0.92937 0.38898 0.0
N932 N 1.02619 0.86018 0.38864 0.0
N933 N 1.00699 0.9697 0.39326 0.0
C934 C 0.95903 0.92756 0.3943 0.0
C935 C 0.9699 0.86585 0.39156 0.0
loop_
_geom_bond_atom_site_label_1
_geom_bond_atom_site_label_2
_geom_bond_distance
_geom_bond_site_symmetry_2
_ccdc_geom_bond_type
Tb0 N29 2.617 1_454 S
Tb0 N35 2.572 1_554 S
Tb0 O44 2.465 . S
Tb0 O45 2.387 . S
Tb0 O47 2.428 . S
Tb0 O48 2.308 . S
Tb0 O52 2.349 . S
Tb0 O55 2.393 1_455 S
Tb0 C64 2.802 . S
C1 N2 1.379 . S
C1 C4 1.416 . S
C1 C8 1.424 . S
N2 C1 1.379 . S
N2 C5 1.334 . S
N2 Tb11 2.617 . S
C3 C5 1.390 . S
C3 C6 1.339 . S
C3 H23 0.930 . S
C4 C1 1.416 . S
C4 C6 1.416 . S
C4 C10 1.448 . S
C5 N2 1.334 . S
C5 C3 1.390 . S
C5 H16 0.930 . S
C6 C3 1.339 . S
C6 C4 1.416 . S
C6 H27 0.930 . S
C7 C8 1.413 . S
C7 C9 1.427 . S
C7 C13 1.416 1_455 S
C8 C1 1.424 . S
C8 C7 1.413 . S
C8 N12 1.361 . S
C9 C7 1.427 . S
C9 C10 1.328 . S
C9 H24 0.929 . S
C10 C4 1.448 . S
C10 C9 1.328 . S
C10 H25 0.930 . S
Tb11 N2 2.617 . S
Tb11 N12 2.572 . S
Tb11 O46 2.349 . S
Tb11 O49 2.393 . S
Tb11 O50 2.465 1_455 S
Tb11 O51 2.387 . S
Tb11 O53 2.428 . S
Tb11 O54 2.308 1_455 S
Tb11 C75 2.802 . S
N12 C8 1.361 . S
N12 Tb11 2.572 . S
N12 C14 1.340 1_455 S
C13 C7 1.416 1_655 S
C13 C15 1.332 . S
C13 H21 0.931 . S
C14 N12 1.340 1_655 S
C14 C15 1.407 . S
C14 H20 0.930 . S
C15 C13 1.332 . S
C15 C14 1.407 . S
C15 H17 0.929 . S
H16 C5 0.930 . S
H17 C15 0.929 . S
H18 C33 0.930 1_554 S
H19 C40 0.929 . S
H20 C14 0.930 . S
H21 C13 0.931 . S
H22 C36 0.930 1_554 S
H23 C3 0.930 . S
H24 C9 0.929 . S
H25 C10 0.930 . S
H26 C31 0.930 . S
H27 C6 0.930 . S
H28 C39 0.931 . S
N29 Tb0 2.617 1_656 S
N29 C30 1.379 1_655 S
N29 C33 1.334 . S
C30 N29 1.379 1_455 S
C30 C32 1.416 1_455 S
C30 C38 1.424 . S
C31 H26 0.930 . S
C31 C33 1.390 . S
C31 C34 1.339 . S
C32 C30 1.416 1_655 S
C32 C34 1.416 . S
C32 C65 1.448 . S
C33 H18 0.930 1_556 S
C33 N29 1.334 . S
C33 C31 1.390 . S
C34 C31 1.339 . S
C34 C32 1.416 . S
C34 H41 0.930 . S
N35 Tb0 2.572 1_556 S
N35 C36 1.340 . S
N35 C38 1.361 . S
C36 H22 0.930 1_556 S
C36 N35 1.340 . S
C36 C40 1.407 . S
C37 C38 1.413 . S
C37 C39 1.416 . S
C37 C66 1.427 . S
C38 C30 1.424 . S
C38 N35 1.361 . S
C38 C37 1.413 . S
C39 H28 0.931 . S
C39 C37 1.416 . S
C39 C40 1.332 . S
C40 H19 0.929 . S
C40 C36 1.407 . S
C40 C39 1.332 . S
H41 C34 0.930 . S
H42 C65 0.930 . S
H43 C66 0.929 . S
O44 Tb0 2.465 . S
O44 C64 1.264 . S
O45 Tb0 2.387 . S
O45 C56 1.264 . S
O46 Tb11 2.349 . S
O46 C56 1.243 . S
O47 Tb0 2.428 . S
O47 C64 1.256 . S
O48 Tb0 2.308 . S
O48 C63 1.266 . S
O49 Tb11 2.393 . S
O49 C63 1.248 . S
O50 Tb11 2.465 1_655 S
O50 C75 1.264 1_655 S
O51 Tb11 2.387 . S
O51 C67 1.264 . S
O52 Tb0 2.349 . S
O52 C67 1.243 . S
O53 Tb11 2.428 . S
O53 C75 1.256 . S
O54 Tb11 2.308 1_655 S
O54 C74 1.266 . S
O55 Tb0 2.393 1_655 S
O55 C74 1.248 . S
C56 O45 1.264 . S
C56 O46 1.243 . S
C57 C60 1.399 . S
C57 C62 1.383 . S
C57 C64 1.496 . S
C58 C59 1.399 . S
C58 C62 1.389 . S
C59 C58 1.399 . S
C59 C61 1.380 . S
C59 H76 0.929 . S
C60 C57 1.399 . S
C60 C61 1.392 . S
C60 H77 0.929 . S
C61 C59 1.380 . S
C61 C60 1.392 . S
C61 H78 0.929 . S
C62 C57 1.383 . S
C62 C58 1.389 . S
C62 H79 0.931 . S
C63 O48 1.266 . S
C63 O49 1.248 . S
C64 Tb0 2.802 . S
C64 O44 1.264 . S
C64 O47 1.256 . S
C64 C57 1.496 . S
C65 C32 1.448 . S
C65 H42 0.930 . S
C65 C66 1.328 1_655 S
C66 C37 1.427 . S
C66 H43 0.929 . S
C66 C65 1.328 1_455 S
C67 O51 1.264 . S
C67 O52 1.243 . S
C68 C71 1.394 1_655 S
C68 C72 1.388 . S
C68 C75 1.496 1_655 S
C69 C70 1.390 1_545 S
C69 C72 1.389 . S
C70 C69 1.390 1_565 S
C70 C73 1.376 1_665 S
C70 H80 0.942 . S
C71 C68 1.394 1_455 S
C71 C73 1.392 . S
C71 H81 0.929 . S
C72 C68 1.388 . S
C72 C69 1.389 . S
C72 H82 0.931 . S
C73 C70 1.376 1_445 S
C73 C71 1.392 . S
C73 H83 0.929 . S
C74 O54 1.266 . S
C74 O55 1.248 . S
C75 Tb11 2.802 . S
C75 O50 1.264 1_455 S
C75 O53 1.256 . S
C75 C68 1.496 1_455 S
H76 C59 0.929 . S
H77 C60 0.929 . S
H78 C61 0.929 . S
H79 C62 0.931 . S
H80 C70 0.942 . S
H81 C71 0.929 . S
H82 C72 0.931 . S
H83 C73 0.929 . S
Tb84 N113 2.617 . S
Tb84 N119 2.572 . S
Tb84 O128 2.465 . S
Tb84 O129 2.387 . S
Tb84 O131 2.428 . S
Tb84 O132 2.308 . S
Tb84 O136 2.349 . S
Tb84 O139 2.393 . S
Tb84 C148 2.802 . S
C85 N86 1.379 . S
C85 C88 1.416 1_545 S
C85 C92 1.424 . S
N86 C85 1.379 . S
N86 C89 1.334 . S
N86 Tb95 2.617 . S
C87 C89 1.390 . S
C87 C90 1.339 1_545 S
C87 H107 0.930 . S
C88 C85 1.416 1_565 S
C88 C90 1.416 . S
C88 C94 1.448 . S
C89 N86 1.334 . S
C89 C87 1.390 . S
C89 H100 0.930 . S
C90 C87 1.339 1_565 S
C90 C88 1.416 . S
C90 H111 0.930 . S
C91 C92 1.413 1_565 S
C91 C93 1.427 . S
C91 C97 1.416 . S
C92 C85 1.424 . S
C92 C91 1.413 1_545 S
C92 N96 1.361 . S
C93 C91 1.427 . S
C93 C94 1.328 . S
C93 H108 0.929 . S
C94 C88 1.448 . S
C94 C93 1.328 . S
C94 H109 0.930 . S
Tb95 N86 2.617 . S
Tb95 N96 2.572 . S
Tb95 O130 2.349 . S
Tb95 O133 2.393 . S
Tb95 O134 2.465 . S
Tb95 O135 2.387 . S
Tb95 O137 2.428 . S
Tb95 O138 2.308 . S
Tb95 C159 2.802 . S
N96 C92 1.361 . S
N96 Tb95 2.572 . S
N96 C98 1.340 . S
C97 C91 1.416 . S
C97 C99 1.335 . S
C97 H105 0.931 . S
C98 N96 1.340 . S
C98 C99 1.404 1_545 S
C98 H104 0.930 . S
C99 C97 1.335 . S
C99 C98 1.404 1_565 S
C99 H101 0.930 . S
H100 C89 0.930 . S
H101 C99 0.930 . S
H102 C117 0.930 . S
H103 C124 0.929 . S
H104 C98 0.930 . S
H105 C97 0.931 . S
H106 C120 0.930 . S
H107 C87 0.930 . S
H108 C93 0.929 . S
H109 C94 0.930 . S
H110 C115 0.930 . S
H111 C90 0.930 . S
H112 C123 0.931 . S
N113 Tb84 2.617 . S
N113 C114 1.379 . S
N113 C117 1.334 . S
C114 N113 1.379 . S
C114 C116 1.416 . S
C114 C122 1.424 . S
C115 H110 0.930 . S
C115 C117 1.390 . S
C115 C118 1.339 . S
C116 C114 1.416 . S
C116 C118 1.416 . S
C116 C149 1.448 . S
C117 H102 0.930 . S
C117 N113 1.334 . S
C117 C115 1.390 . S
C118 C115 1.339 . S
C118 C116 1.416 . S
C118 H125 0.930 . S
N119 Tb84 2.572 . S
N119 C120 1.340 . S
N119 C122 1.361 . S
C120 H106 0.930 . S
C120 N119 1.340 . S
C120 C124 1.407 . S
C121 C122 1.413 . S
C121 C123 1.416 . S
C121 C150 1.427 . S
C122 C114 1.424 . S
C122 N119 1.361 . S
C122 C121 1.413 . S
C123 H112 0.931 . S
C123 C121 1.416 . S
C123 C124 1.332 . S
C124 H103 0.929 . S
C124 C120 1.407 . S
C124 C123 1.332 . S
H125 C118 0.930 . S
H126 C149 0.930 . S
H127 C150 0.929 . S
O128 Tb84 2.465 . S
O128 C148 1.264 . S
O129 Tb84 2.387 . S
O129 C140 1.264 . S
O130 Tb95 2.349 . S
O130 C140 1.243 . S
O131 Tb84 2.428 . S
O131 C148 1.256 . S
O132 Tb84 2.308 . S
O132 C147 1.266 . S
O133 Tb95 2.393 . S
O133 C147 1.248 . S
O134 Tb95 2.465 . S
O134 C159 1.264 . S
O135 Tb95 2.387 . S
O135 C151 1.264 . S
O136 Tb84 2.349 . S
O136 C151 1.243 . S
O137 Tb95 2.428 . S
O137 C159 1.256 . S
O138 Tb95 2.308 . S
O138 C158 1.266 . S
O139 Tb84 2.393 . S
O139 C158 1.248 . S
C140 O129 1.264 . S
C140 O130 1.243 . S
C141 C144 1.399 . S
C141 C146 1.383 . S
C141 C148 1.496 . S
C142 C143 1.399 . S
C142 C146 1.389 . S
C143 C142 1.399 . S
C143 C145 1.380 . S
C143 H160 0.929 . S
C144 C141 1.399 . S
C144 C145 1.392 . S
C144 H161 0.929 . S
C145 C143 1.380 . S
C145 C144 1.392 . S
C145 H162 0.929 . S
C146 C141 1.383 . S
C146 C142 1.389 . S
C146 H163 0.931 . S
C147 O132 1.266 . S
C147 O133 1.248 . S
C148 Tb84 2.802 . S
C148 O128 1.264 . S
C148 O131 1.256 . S
C148 C141 1.496 . S
C149 C116 1.448 . S
C149 H126 0.930 . S
C149 C150 1.328 . S
C150 C121 1.427 . S
C150 H127 0.929 . S
C150 C149 1.328 . S
C151 O135 1.264 . S
C151 O136 1.243 . S
C152 C155 1.399 . S
C152 C156 1.383 . S
C152 C159 1.496 . S
C153 C154 1.399 . S
C153 C156 1.389 . S
C154 C153 1.399 . S
C154 C157 1.380 . S
C154 H164 0.929 . S
C155 C152 1.399 . S
C155 C157 1.392 . S
C155 H165 0.929 . S
C156 C152 1.383 . S
C156 C153 1.389 . S
C156 H166 0.931 . S
C157 C154 1.380 . S
C157 C155 1.392 . S
C157 H167 0.929 . S
C158 O138 1.266 . S
C158 O139 1.248 . S
C159 Tb95 2.802 . S
C159 O134 1.264 . S
C159 O137 1.256 . S
C159 C152 1.496 . S
H160 C143 0.929 . S
H161 C144 0.929 . S
H162 C145 0.929 . S
H163 C146 0.931 . S
H164 C154 0.929 . S
H165 C155 0.929 . S
H166 C156 0.931 . S
H167 C157 0.929 . S
Tb168 N197 2.617 . S
Tb168 N203 2.572 . S
Tb168 O212 2.465 . S
Tb168 O213 2.387 . S
Tb168 O215 2.428 . S
Tb168 O216 2.308 . S
Tb168 O220 2.349 . S
Tb168 O223 2.393 . S
Tb168 C232 2.802 . S
C169 N170 1.379 1_556 S
C169 C172 1.416 . S
C169 C176 1.424 . S
N170 C169 1.379 1_554 S
N170 C173 1.334 . S
N170 Tb179 2.617 . S
C171 C173 1.390 1_556 S
C171 C174 1.339 . S
C171 H191 0.930 . S
C172 C169 1.416 . S
C172 C174 1.416 . S
C172 C178 1.448 . S
C173 N170 1.334 . S
C173 C171 1.390 1_554 S
C173 H184 0.930 . S
C174 C171 1.339 . S
C174 C172 1.416 . S
C174 H195 0.930 . S
C175 C176 1.413 . S
C175 C177 1.427 . S
C175 C181 1.416 . S
C176 C169 1.424 . S
C176 C175 1.413 . S
C176 N180 1.374 . S
C177 C175 1.427 . S
C177 C178 1.328 . S
C177 H192 0.929 . S
C178 C172 1.448 . S
C178 C177 1.328 . S
C178 H193 0.930 . S
Tb179 N170 2.617 . S
Tb179 N180 2.557 1_554 S
Tb179 O214 2.349 . S
Tb179 O217 2.393 . S
Tb179 O218 2.465 . S
Tb179 O219 2.387 . S
Tb179 O221 2.428 . S
Tb179 O222 2.308 . S
Tb179 C243 2.802 . S
N180 C176 1.374 . S
N180 Tb179 2.557 1_556 S
N180 C182 1.341 . S
C181 C175 1.416 . S
C181 C183 1.332 . S
C181 H189 0.931 . S
C182 N180 1.341 . S
C182 C183 1.407 . S
C182 H188 0.930 1_556 S
C183 C181 1.332 . S
C183 C182 1.407 . S
C183 H185 0.929 . S
H184 C173 0.930 . S
H185 C183 0.929 . S
H186 C201 0.930 . S
H187 C208 0.929 . S
H188 C182 0.930 1_554 S
H189 C181 0.931 . S
H190 C204 0.930 . S
H191 C171 0.930 . S
H192 C177 0.929 . S
H193 C178 0.930 . S
H194 C199 0.930 . S
H195 C174 0.930 . S
H196 C207 0.931 . S
N197 Tb168 2.617 . S
N197 C198 1.379 . S
N197 C201 1.334 . S
C198 N197 1.379 . S
C198 C200 1.416 . S
C198 C206 1.424 . S
C199 H194 0.930 . S
C199 C201 1.390 . S
C199 C202 1.339 . S
C200 C198 1.416 . S
C200 C202 1.416 . S
C200 C233 1.448 . S
C201 H186 0.930 . S
C201 N197 1.334 . S
C201 C199 1.390 . S
C202 C199 1.339 . S
C202 C200 1.416 . S
C202 H209 0.930 . S
N203 Tb168 2.572 . S
N203 C204 1.340 . S
N203 C206 1.361 . S
C204 H190 0.930 . S
C204 N203 1.340 . S
C204 C208 1.407 . S
C205 C206 1.413 . S
C205 C207 1.416 . S
C205 C234 1.427 . S
C206 C198 1.424 . S
C206 N203 1.361 . S
C206 C205 1.413 . S
C207 H196 0.931 . S
C207 C205 1.416 . S
C207 C208 1.332 . S
C208 H187 0.929 . S
C208 C204 1.407 . S
C208 C207 1.332 . S
H209 C202 0.930 . S
H210 C233 0.930 . S
H211 C234 0.929 . S
O212 Tb168 2.465 . S
O212 C232 1.264 . S
O213 Tb168 2.387 . S
O213 C224 1.264 . S
O214 Tb179 2.349 . S
O214 C224 1.243 . S
O215 Tb168 2.428 . S
O215 C232 1.256 . S
O216 Tb168 2.308 . S
O216 C231 1.266 . S
O217 Tb179 2.393 . S
O217 C231 1.248 . S
O218 Tb179 2.465 . S
O218 C243 1.264 . S
O219 Tb179 2.387 . S
O219 C235 1.264 . S
O220 Tb168 2.349 . S
O220 C235 1.243 . S
O221 Tb179 2.428 . S
O221 C243 1.256 . S
O222 Tb179 2.308 . S
O222 C242 1.266 . S
O223 Tb168 2.393 . S
O223 C242 1.248 . S
C224 O213 1.264 . S
C224 O214 1.243 . S
C225 C228 1.399 . S
C225 C230 1.383 . S
C225 C232 1.496 . S
C226 C227 1.399 . S
C226 C230 1.389 . S
C227 C226 1.399 . S
C227 C229 1.380 . S
C227 H244 0.929 1_545 S
C228 C225 1.399 . S
C228 C229 1.392 . S
C228 H245 0.929 . S
C229 C227 1.380 . S
C229 C228 1.392 . S
C229 H246 0.929 . S
C230 C225 1.383 . S
C230 C226 1.389 . S
C230 H247 0.931 . S
C231 O216 1.266 . S
C231 O217 1.248 . S
C232 Tb168 2.802 . S
C232 O212 1.264 . S
C232 O215 1.256 . S
C232 C225 1.496 . S
C233 C200 1.448 . S
C233 H210 0.930 . S
C233 C234 1.328 . S
C234 C205 1.427 . S
C234 H211 0.929 . S
C234 C233 1.328 . S
C235 O219 1.264 . S
C235 O220 1.243 . S
C236 C239 1.399 . S
C236 C240 1.383 . S
C236 C243 1.496 . S
C237 C238 1.399 . S
C237 C240 1.389 . S
C238 C237 1.399 . S
C238 C241 1.380 . S
C238 H248 0.929 . S
C239 C236 1.399 . S
C239 C241 1.392 . S
C239 H249 0.929 . S
C240 C236 1.383 . S
C240 C237 1.389 . S
C240 H250 0.931 . S
C241 C238 1.380 . S
C241 C239 1.392 . S
C241 H251 0.929 . S
C242 O222 1.266 . S
C242 O223 1.248 . S
C243 Tb179 2.802 . S
C243 O218 1.264 . S
C243 O221 1.256 . S
C243 C236 1.496 . S
H244 C227 0.929 1_565 S
H245 C228 0.929 . S
H246 C229 0.929 . S
H247 C230 0.931 . S
H248 C238 0.929 . S
H249 C239 0.929 . S
H250 C240 0.931 . S
H251 C241 0.929 . S
Tb252 N281 2.617 . S
Tb252 N287 2.572 . S
Tb252 O296 2.465 . S
Tb252 O297 2.387 . S
Tb252 O299 2.428 . S
Tb252 O300 2.308 . S
Tb252 O304 2.349 . S
Tb252 O307 2.393 . S
Tb252 C316 2.802 . S
C253 N254 1.379 . S
C253 C256 1.416 . S
C253 C260 1.424 . S
N254 C253 1.379 . S
N254 C257 1.334 . S
N254 Tb263 2.617 . S
C255 C257 1.390 . S
C255 C258 1.339 . S
C255 H275 0.930 . S
C256 C253 1.416 . S
C256 C258 1.416 . S
C256 C262 1.448 . S
C257 N254 1.334 . S
C257 C255 1.390 . S
C257 H268 0.930 . S
C258 C255 1.339 . S
C258 C256 1.416 . S
C258 H279 0.930 . S
C259 C260 1.413 . S
C259 C261 1.427 . S
C259 C265 1.416 . S
C260 C253 1.424 . S
C260 C259 1.413 . S
C260 N264 1.361 . S
C261 C259 1.427 . S
C261 C262 1.328 . S
C261 H276 0.929 . S
C262 C256 1.448 . S
C262 C261 1.328 . S
C262 H277 0.930 . S
Tb263 N254 2.617 . S
Tb263 N264 2.572 . S
Tb263 O298 2.349 . S
Tb263 O301 2.393 . S
Tb263 O302 2.465 . S
Tb263 O303 2.387 . S
Tb263 O305 2.428 . S
Tb263 O306 2.308 . S
Tb263 C327 2.802 . S
N264 C260 1.361 . S
N264 Tb263 2.572 . S
N264 C266 1.340 . S
C265 C259 1.416 . S
C265 C267 1.332 . S
C265 H273 0.931 . S
C266 N264 1.340 . S
C266 C267 1.407 . S
C266 H272 0.930 . S
C267 C265 1.332 . S
C267 C266 1.407 . S
C267 H269 0.929 . S
H268 C257 0.930 . S
H269 C267 0.929 . S
H270 C285 0.930 . S
H271 C292 0.929 . S
H272 C266 0.930 . S
H273 C265 0.931 . S
H274 C288 0.930 . S
H275 C255 0.930 . S
H276 C261 0.929 . S
H277 C262 0.930 . S
H278 C283 0.930 . S
H279 C258 0.930 . S
H280 C291 0.931 . S
N281 Tb252 2.617 . S
N281 C282 1.379 . S
N281 C285 1.334 . S
C282 N281 1.379 . S
C282 C284 1.416 . S
C282 C290 1.424 . S
C283 H278 0.930 . S
C283 C285 1.390 . S
C283 C286 1.339 . S
C284 C282 1.416 . S
C284 C286 1.416 . S
C284 C317 1.448 . S
C285 H270 0.930 . S
C285 N281 1.334 . S
C285 C283 1.390 . S
C286 C283 1.339 . S
C286 C284 1.416 . S
C286 H293 0.930 . S
N287 Tb252 2.572 . S
N287 C288 1.340 . S
N287 C290 1.361 . S
C288 H274 0.930 . S
C288 N287 1.340 . S
C288 C292 1.407 . S
C289 C290 1.413 . S
C289 C291 1.416 . S
C289 C318 1.427 . S
C290 C282 1.424 . S
C290 N287 1.361 . S
C290 C289 1.413 . S
C291 H280 0.931 . S
C291 C289 1.416 . S
C291 C292 1.332 . S
C292 H271 0.929 . S
C292 C288 1.407 . S
C292 C291 1.332 . S
H293 C286 0.930 . S
H294 C317 0.930 . S
H295 C318 0.929 . S
O296 Tb252 2.465 . S
O296 C316 1.264 . S
O297 Tb252 2.387 . S
O297 C308 1.264 . S
O298 Tb263 2.349 . S
O298 C308 1.243 . S
O299 Tb252 2.428 . S
O299 C316 1.256 . S
O300 Tb252 2.308 . S
O300 C315 1.266 . S
O301 Tb263 2.393 . S
O301 C315 1.248 . S
O302 Tb263 2.465 . S
O302 C327 1.264 . S
O303 Tb263 2.387 . S
O303 C319 1.264 . S
O304 Tb252 2.349 . S
O304 C319 1.243 . S
O305 Tb263 2.428 . S
O305 C327 1.256 . S
O306 Tb263 2.308 . S
O306 C326 1.266 . S
O307 Tb252 2.393 . S
O307 C326 1.248 . S
C308 O297 1.264 . S
C308 O298 1.243 . S
C309 C312 1.399 . S
C309 C314 1.383 . S
C309 C316 1.496 . S
C310 C311 1.399 . S
C310 C314 1.389 . S
C311 C310 1.399 . S
C311 C313 1.380 . S
C311 H328 0.929 . S
C312 C309 1.399 . S
C312 C313 1.392 . S
C312 H329 0.929 . S
C313 C311 1.380 . S
C313 C312 1.392 . S
C313 H330 0.929 . S
C314 C309 1.383 . S
C314 C310 1.389 . S
C314 H331 0.931 . S
C315 O300 1.266 . S
C315 O301 1.248 . S
C316 Tb252 2.802 . S
C316 O296 1.264 . S
C316 O299 1.256 . S
C316 C309 1.496 . S
C317 C284 1.448 . S
C317 H294 0.930 . S
C317 C318 1.328 . S
C318 C289 1.427 . S
C318 H295 0.929 . S
C318 C317 1.328 . S
C319 O303 1.264 . S
C319 O304 1.243 . S
C320 C323 1.399 . S
C320 C324 1.383 . S
C320 C327 1.496 . S
C321 C322 1.399 1_455 S
C321 C324 1.389 . S
C322 C321 1.399 1_655 S
C322 C325 1.380 1_655 S
C322 H332 0.929 . S
C323 C320 1.399 . S
C323 C325 1.392 . S
C323 H333 0.929 . S
C324 C320 1.383 . S
C324 C321 1.389 . S
C324 H334 0.931 . S
C325 C322 1.380 1_455 S
C325 C323 1.392 . S
C325 H335 0.929 1_455 S
C326 O306 1.266 . S
C326 O307 1.248 . S
C327 Tb263 2.802 . S
C327 O302 1.264 . S
C327 O305 1.256 . S
C327 C320 1.496 . S
H328 C311 0.929 . S
H329 C312 0.929 . S
H330 C313 0.929 . S
H331 C314 0.931 . S
H332 C322 0.929 . S
H333 C323 0.929 . S
H334 C324 0.931 . S
H335 C325 0.929 1_655 S
Tb336 N365 2.617 . S
Tb336 N371 2.557 1_556 S
Tb336 O380 2.465 . S
Tb336 O381 2.387 . S
Tb336 O383 2.428 . S
Tb336 O384 2.308 . S
Tb336 O388 2.349 . S
Tb336 O391 2.393 . S
Tb336 C400 2.802 . S
C337 N338 1.379 . S
C337 C340 1.416 . S
C337 C344 1.424 . S
N338 C337 1.379 . S
N338 C341 1.334 . S
N338 Tb347 2.617 . S
C339 C341 1.390 . S
C339 C342 1.339 . S
C339 H359 0.930 . S
C340 C337 1.416 . S
C340 C342 1.416 . S
C340 C346 1.448 . S
C341 N338 1.334 . S
C341 C339 1.390 . S
C341 H352 0.930 . S
C342 C339 1.339 . S
C342 C340 1.416 . S
C342 H363 0.930 . S
C343 C344 1.413 . S
C343 C345 1.427 . S
C343 C349 1.416 . S
C344 C337 1.424 . S
C344 C343 1.413 . S
C344 N348 1.361 . S
C345 C343 1.427 . S
C345 C346 1.328 . S
C345 H360 0.929 . S
C346 C340 1.448 . S
C346 C345 1.328 . S
C346 H361 0.930 . S
Tb347 N338 2.617 . S
Tb347 N348 2.572 . S
Tb347 O382 2.349 1_565 S
Tb347 O385 2.393 . S
Tb347 O386 2.465 1_565 S
Tb347 O387 2.387 . S
Tb347 O389 2.428 1_565 S
Tb347 O390 2.308 . S
Tb347 C411 2.802 1_565 S
N348 C344 1.361 . S
N348 Tb347 2.572 . S
N348 C350 1.340 . S
C349 C343 1.416 . S
C349 C351 1.332 . S
C349 H357 0.931 . S
C350 N348 1.340 . S
C350 C351 1.407 . S
C350 H356 0.930 . S
C351 C349 1.332 . S
C351 C350 1.407 . S
C351 H353 0.929 . S
H352 C341 0.930 . S
H353 C351 0.929 . S
H354 C369 0.930 . S
H355 C376 0.929 . S
H356 C350 0.930 . S
H357 C349 0.931 . S
H358 C372 0.930 1_556 S
H359 C339 0.930 . S
H360 C345 0.929 . S
H361 C346 0.930 . S
H362 C367 0.930 . S
H363 C342 0.930 . S
H364 C375 0.931 1_545 S
N365 Tb336 2.617 . S
N365 C366 1.379 1_556 S
N365 C369 1.334 . S
C366 N365 1.379 1_554 S
C366 C368 1.416 . S
C366 C374 1.424 . S
C367 H362 0.930 . S
C367 C369 1.390 1_554 S
C367 C370 1.339 . S
C368 C366 1.416 . S
C368 C370 1.416 . S
C368 C401 1.449 . S
C369 H354 0.930 . S
C369 N365 1.334 . S
C369 C367 1.390 1_556 S
C370 C367 1.339 . S
C370 C368 1.416 . S
C370 H377 0.930 . S
N371 Tb336 2.557 1_554 S
N371 C372 1.341 . S
N371 C374 1.374 . S
C372 H358 0.930 1_554 S
C372 N371 1.341 . S
C372 C376 1.407 . S
C373 C374 1.413 . S
C373 C375 1.416 . S
C373 C402 1.427 1_565 S
C374 C366 1.424 . S
C374 N371 1.374 . S
C374 C373 1.413 . S
C375 H364 0.931 1_565 S
C375 C373 1.416 . S
C375 C376 1.332 . S
C376 H355 0.929 . S
C376 C372 1.407 . S
C376 C375 1.332 . S
H377 C370 0.930 . S
H378 C401 0.928 1_545 S
H379 C402 0.929 . S
O380 Tb336 2.465 . S
O380 C400 1.264 . S
O381 Tb336 2.387 . S
O381 C392 1.264 1_565 S
O382 Tb347 2.349 1_545 S
O382 C392 1.243 . S
O383 Tb336 2.428 . S
O383 C400 1.256 . S
O384 Tb336 2.308 . S
O384 C399 1.266 . S
O385 Tb347 2.393 . S
O385 C399 1.248 . S
O386 Tb347 2.465 1_545 S
O386 C411 1.264 . S
O387 Tb347 2.387 . S
O387 C403 1.264 . S
O388 Tb336 2.349 . S
O388 C403 1.243 . S
O389 Tb347 2.428 1_545 S
O389 C411 1.256 . S
O390 Tb347 2.308 . S
O390 C410 1.266 . S
O391 Tb336 2.393 . S
O391 C410 1.248 . S
C392 O381 1.264 1_545 S
C392 O382 1.243 . S
C393 C396 1.399 . S
C393 C398 1.383 . S
C393 C400 1.496 . S
C394 C395 1.399 . S
C394 C398 1.389 . S
C395 C394 1.399 . S
C395 C397 1.380 . S
C395 H412 0.929 . S
C396 C393 1.399 . S
C396 C397 1.392 . S
C396 H413 0.929 . S
C397 C395 1.380 . S
C397 C396 1.392 . S
C397 H414 0.929 . S
C398 C393 1.383 . S
C398 C394 1.389 . S
C398 H415 0.931 . S
C399 O384 1.266 . S
C399 O385 1.248 . S
C400 Tb336 2.802 . S
C400 O380 1.264 . S
C400 O383 1.256 . S
C400 C393 1.496 . S
C401 C368 1.449 . S
C401 H378 0.928 1_565 S
C401 C402 1.330 1_565 S
C402 C373 1.427 1_545 S
C402 H379 0.929 . S
C402 C401 1.330 1_545 S
C403 O387 1.264 . S
C403 O388 1.243 . S
C404 C407 1.399 . S
C404 C408 1.383 . S
C404 C411 1.496 . S
C405 C406 1.399 . S
C405 C408 1.389 . S
C406 C405 1.399 . S
C406 C409 1.380 . S
C406 H416 0.929 . S
C407 C404 1.399 . S
C407 C409 1.392 . S
C407 H417 0.929 . S
C408 C404 1.383 . S
C408 C405 1.389 . S
C408 H418 0.931 . S
C409 C406 1.380 . S
C409 C407 1.392 . S
C409 H419 0.929 . S
C410 O390 1.266 . S
C410 O391 1.248 . S
C411 Tb347 2.802 1_545 S
C411 O386 1.264 . S
C411 O389 1.256 . S
C411 C404 1.496 . S
H412 C395 0.929 . S
H413 C396 0.929 . S
H414 C397 0.929 . S
H415 C398 0.931 . S
H416 C406 0.929 . S
H417 C407 0.929 . S
H418 C408 0.931 . S
H419 C409 0.929 . S
Tb420 N449 2.617 . S
Tb420 N455 2.572 . S
Tb420 O464 2.465 . S
Tb420 O465 2.387 . S
Tb420 O467 2.428 . S
Tb420 O468 2.308 . S
Tb420 O472 2.349 . S
Tb420 O475 2.393 . S
Tb420 C484 2.802 . S
C421 N422 1.379 . S
C421 C424 1.416 . S
C421 C428 1.424 . S
N422 C421 1.379 . S
N422 C425 1.334 . S
N422 Tb431 2.617 . S
C423 C425 1.390 . S
C423 C426 1.339 . S
C423 H443 0.930 . S
C424 C421 1.416 . S
C424 C426 1.416 . S
C424 C430 1.448 . S
C425 N422 1.334 . S
C425 C423 1.390 . S
C425 H436 0.930 . S
C426 C423 1.339 . S
C426 C424 1.416 . S
C426 H447 0.930 . S
C427 C428 1.413 . S
C427 C429 1.427 . S
C427 C433 1.416 . S
C428 C421 1.424 . S
C428 C427 1.413 . S
C428 N432 1.361 . S
C429 C427 1.427 . S
C429 C430 1.328 . S
C429 H444 0.929 . S
C430 C424 1.448 . S
C430 C429 1.328 . S
C430 H445 0.930 . S
Tb431 N422 2.617 . S
Tb431 N432 2.572 . S
Tb431 O466 2.349 . S
Tb431 O469 2.393 . S
Tb431 O470 2.465 . S
Tb431 O471 2.387 . S
Tb431 O473 2.428 . S
Tb431 O474 2.308 . S
Tb431 C495 2.802 . S
N432 C428 1.361 . S
N432 Tb431 2.572 . S
N432 C434 1.340 . S
C433 C427 1.416 . S
C433 C435 1.332 . S
C433 H441 0.931 . S
C434 N432 1.340 . S
C434 C435 1.407 . S
C434 H440 0.930 . S
C435 C433 1.332 . S
C435 C434 1.407 . S
C435 H437 0.929 . S
H436 C425 0.930 . S
H437 C435 0.929 . S
H438 C453 0.930 . S
H439 C460 0.929 . S
H440 C434 0.930 . S
H441 C433 0.931 . S
H442 C456 0.930 . S
H443 C423 0.930 . S
H444 C429 0.929 . S
H445 C430 0.930 . S
H446 C451 0.930 . S
H447 C426 0.930 . S
H448 C459 0.931 . S
N449 Tb420 2.617 . S
N449 C450 1.379 . S
N449 C453 1.334 . S
C450 N449 1.379 . S
C450 C452 1.416 . S
C450 C458 1.424 . S
C451 H446 0.930 . S
C451 C453 1.390 . S
C451 C454 1.339 . S
C452 C450 1.416 . S
C452 C454 1.416 . S
C452 C485 1.448 . S
C453 H438 0.930 . S
C453 N449 1.334 . S
C453 C451 1.390 . S
C454 C451 1.339 . S
C454 C452 1.416 . S
C454 H461 0.930 . S
N455 Tb420 2.572 . S
N455 C456 1.340 . S
N455 C458 1.361 . S
C456 H442 0.930 . S
C456 N455 1.340 . S
C456 C460 1.407 . S
C457 C458 1.413 . S
C457 C459 1.416 . S
C457 C486 1.427 . S
C458 C450 1.424 . S
C458 N455 1.361 . S
C458 C457 1.413 . S
C459 H448 0.931 . S
C459 C457 1.416 . S
C459 C460 1.332 . S
C460 H439 0.929 . S
C460 C456 1.407 . S
C460 C459 1.332 . S
H461 C454 0.930 . S
H462 C485 0.930 . S
H463 C486 0.929 . S
O464 Tb420 2.465 . S
O464 C484 1.264 . S
O465 Tb420 2.387 . S
O465 C476 1.264 . S
O466 Tb431 2.349 . S
O466 C476 1.243 . S
O467 Tb420 2.428 . S
O467 C484 1.256 . S
O468 Tb420 2.308 . S
O468 C483 1.266 . S
O469 Tb431 2.393 . S
O469 C483 1.248 . S
O470 Tb431 2.465 . S
O470 C495 1.264 . S
O471 Tb431 2.387 . S
O471 C487 1.264 . S
O472 Tb420 2.349 . S
O472 C487 1.243 . S
O473 Tb431 2.428 . S
O473 C495 1.256 . S
O474 Tb431 2.308 . S
O474 C494 1.266 . S
O475 Tb420 2.393 . S
O475 C494 1.248 . S
C476 O465 1.264 . S
C476 O466 1.243 . S
C477 C480 1.399 . S
C477 C482 1.383 . S
C477 C484 1.496 1_455 S
C478 C479 1.399 . S
C478 C482 1.389 . S
C479 C478 1.399 . S
C479 C481 1.380 . S
C479 H496 0.929 . S
C480 C477 1.399 . S
C480 C481 1.392 . S
C480 H497 0.929 . S
C481 C479 1.380 . S
C481 C480 1.392 . S
C481 H498 0.929 . S
C482 C477 1.383 . S
C482 C478 1.389 . S
C482 H499 0.931 . S
C483 O468 1.266 . S
C483 O469 1.248 . S
C484 Tb420 2.802 . S
C484 O464 1.264 . S
C484 O467 1.256 . S
C484 C477 1.496 1_655 S
C485 C452 1.448 . S
C485 H462 0.930 . S
C485 C486 1.328 . S
C486 C457 1.427 . S
C486 H463 0.929 . S
C486 C485 1.328 . S
C487 O471 1.264 . S
C487 O472 1.243 . S
C488 C491 1.399 . S
C488 C492 1.383 . S
C488 C495 1.496 . S
C489 C490 1.399 . S
C489 C492 1.389 . S
C490 C489 1.399 . S
C490 C493 1.380 . S
C490 H500 0.929 . S
C491 C488 1.399 . S
C491 C493 1.392 . S
C491 H501 0.929 . S
C492 C488 1.383 . S
C492 C489 1.389 . S
C492 H502 0.931 . S
C493 C490 1.380 . S
C493 C491 1.392 . S
C493 H503 0.929 . S
C494 O474 1.266 . S
C494 O475 1.248 . S
C495 Tb431 2.802 . S
C495 O470 1.264 . S
C495 O473 1.256 . S
C495 C488 1.496 . S
H496 C479 0.929 . S
H497 C480 0.929 . S
H498 C481 0.929 . S
H499 C482 0.931 . S
H500 C490 0.929 . S
H501 C491 0.929 . S
H502 C492 0.931 . S
H503 C493 0.929 . S
Tb504 N533 2.617 . S
Tb504 N539 2.572 . S
Tb504 O548 2.465 1_565 S
Tb504 O549 2.387 . S
Tb504 O551 2.428 1_565 S
Tb504 O552 2.308 . S
Tb504 O556 2.349 1_565 S
Tb504 O559 2.393 . S
Tb504 C568 2.802 1_565 S
C505 N506 1.379 . S
C505 C508 1.416 1_565 S
C505 C512 1.424 . S
N506 C505 1.379 . S
N506 C509 1.334 . S
N506 Tb515 2.617 1_554 S
C507 C509 1.390 1_545 S
C507 C510 1.339 . S
C507 H527 0.930 . S
C508 C505 1.416 1_545 S
C508 C510 1.416 . S
C508 C514 1.448 . S
C509 N506 1.334 . S
C509 C507 1.390 1_565 S
C509 H520 0.930 1_554 S
C510 C507 1.339 . S
C510 C508 1.416 . S
C510 H531 0.930 . S
C511 C512 1.413 1_545 S
C511 C513 1.427 . S
C511 C517 1.416 . S
C512 C505 1.424 . S
C512 C511 1.413 1_565 S
C512 N516 1.361 . S
C513 C511 1.427 . S
C513 C514 1.328 . S
C513 H528 0.929 . S
C514 C508 1.448 . S
C514 C513 1.328 . S
C514 H529 0.930 . S
Tb515 N506 2.617 1_556 S
Tb515 N516 2.572 1_556 S
Tb515 O550 2.349 . S
Tb515 O553 2.393 . S
Tb515 O554 2.465 . S
Tb515 O555 2.387 1_565 S
Tb515 O557 2.428 . S
Tb515 O558 2.308 . S
Tb515 C579 2.802 . S
N516 C512 1.361 . S
N516 Tb515 2.572 1_554 S
N516 C518 1.355 . S
C517 C511 1.416 . S
C517 C519 1.332 1_445 S
C517 H525 0.931 1_455 S
C518 N516 1.355 . S
C518 C519 1.399 1_455 S
C518 H524 0.923 1_454 S
C519 C517 1.332 1_665 S
C519 C518 1.399 1_655 S
C519 H521 0.929 . S
H520 C509 0.930 1_556 S
H521 C519 0.929 . S
H522 C537 0.930 . S
H523 C544 0.929 . S
H524 C518 0.923 1_656 S
H525 C517 0.931 1_655 S
H526 C540 0.930 . S
H527 C507 0.930 . S
H528 C513 0.929 . S
H529 C514 0.930 . S
H530 C535 0.930 . S
H531 C510 0.930 . S
H532 C543 0.931 . S
N533 Tb504 2.617 . S
N533 C534 1.379 . S
N533 C537 1.334 1_455 S
C534 N533 1.379 . S
C534 C536 1.416 . S
C534 C542 1.424 . S
C535 H530 0.930 . S
C535 C537 1.390 . S
C535 C538 1.339 . S
C536 C534 1.416 . S
C536 C538 1.416 1_455 S
C536 C569 1.448 . S
C537 H522 0.930 . S
C537 N533 1.334 1_655 S
C537 C535 1.390 . S
C538 C535 1.339 . S
C538 C536 1.416 1_655 S
C538 H545 0.930 . S
N539 Tb504 2.572 . S
N539 C540 1.340 . S
N539 C542 1.361 . S
C540 H526 0.930 . S
C540 N539 1.340 . S
C540 C544 1.407 . S
C541 C542 1.413 . S
C541 C543 1.416 . S
C541 C570 1.427 . S
C542 C534 1.424 . S
C542 N539 1.361 . S
C542 C541 1.413 . S
C543 H532 0.931 . S
C543 C541 1.416 . S
C543 C544 1.332 . S
C544 H523 0.929 . S
C544 C540 1.407 . S
C544 C543 1.332 . S
H545 C538 0.930 . S
H546 C569 0.930 . S
H547 C570 0.929 . S
O548 Tb504 2.465 1_545 S
O548 C568 1.264 . S
O549 Tb504 2.387 . S
O549 C560 1.264 . S
O550 Tb515 2.349 . S
O550 C560 1.243 . S
O551 Tb504 2.428 1_545 S
O551 C568 1.256 . S
O552 Tb504 2.308 . S
O552 C567 1.266 . S
O553 Tb515 2.393 . S
O553 C567 1.248 . S
O554 Tb515 2.465 . S
O554 C579 1.264 . S
O555 Tb515 2.387 1_545 S
O555 C571 1.264 . S
O556 Tb504 2.349 1_545 S
O556 C571 1.243 . S
O557 Tb515 2.428 . S
O557 C579 1.256 . S
O558 Tb515 2.308 . S
O558 C578 1.266 1_455 S
O559 Tb504 2.393 . S
O559 C578 1.248 1_455 S
C560 O549 1.264 . S
C560 O550 1.243 . S
C561 C564 1.399 . S
C561 C566 1.383 . S
C561 C568 1.496 . S
C562 C563 1.399 . S
C562 C566 1.389 . S
C563 C562 1.399 . S
C563 C565 1.380 . S
C563 H580 0.929 . S
C564 C561 1.399 . S
C564 C565 1.392 . S
C564 H581 0.929 . S
C565 C563 1.380 . S
C565 C564 1.392 . S
C565 H582 0.929 . S
C566 C561 1.383 . S
C566 C562 1.389 . S
C566 H583 0.931 . S
C567 O552 1.266 . S
C567 O553 1.248 . S
C568 Tb504 2.802 1_545 S
C568 O548 1.264 . S
C568 O551 1.256 . S
C568 C561 1.496 . S
C569 C536 1.448 . S
C569 H546 0.930 . S
C569 C570 1.328 . S
C570 C541 1.427 . S
C570 H547 0.929 . S
C570 C569 1.328 . S
C571 O555 1.264 . S
C571 O556 1.243 . S
C572 C575 1.399 . S
C572 C576 1.383 1_455 S
C572 C579 1.496 . S
C573 C574 1.399 1_655 S
C573 C576 1.389 . S
C574 C573 1.399 1_455 S
C574 C577 1.380 . S
C574 H584 0.929 . S
C575 C572 1.399 . S
C575 C577 1.392 . S
C575 H585 0.929 . S
C576 C572 1.383 1_655 S
C576 C573 1.389 . S
C576 H586 0.931 . S
C577 C574 1.380 . S
C577 C575 1.392 . S
C577 H587 0.929 . S
C578 O558 1.266 1_655 S
C578 O559 1.248 1_655 S
C579 Tb515 2.802 . S
C579 O554 1.264 . S
C579 O557 1.256 . S
C579 C572 1.496 . S
H580 C563 0.929 . S
H581 C564 0.929 . S
H582 C565 0.929 . S
H583 C566 0.931 . S
H584 C574 0.929 . S
H585 C575 0.929 . S
H586 C576 0.931 . S
H587 C577 0.929 . S
Tb588 N617 2.617 . S
Tb588 N623 2.572 . S
Tb588 O632 2.465 . S
Tb588 O633 2.387 . S
Tb588 O635 2.428 . S
Tb588 O636 2.308 . S
Tb588 O640 2.349 1_545 S
Tb588 O643 2.393 . S
Tb588 C652 2.802 . S
C589 N590 1.379 . S
C589 C592 1.416 . S
C589 C596 1.424 . S
N590 C589 1.379 . S
N590 C593 1.334 . S
N590 Tb599 2.617 . S
C591 C593 1.390 . S
C591 C594 1.339 . S
C591 H611 0.930 . S
C592 C589 1.416 . S
C592 C594 1.416 . S
C592 C598 1.448 . S
C593 N590 1.334 . S
C593 C591 1.390 . S
C593 H604 0.930 . S
C594 C591 1.339 . S
C594 C592 1.416 . S
C594 H615 0.930 . S
C595 C596 1.413 . S
C595 C597 1.427 . S
C595 C601 1.416 . S
C596 C589 1.424 . S
C596 C595 1.413 . S
C596 N600 1.361 . S
C597 C595 1.427 . S
C597 C598 1.328 . S
C597 H612 0.929 . S
C598 C592 1.448 . S
C598 C597 1.328 . S
C598 H613 0.930 . S
Tb599 N590 2.617 . S
Tb599 N600 2.572 . S
Tb599 O634 2.349 1_565 S
Tb599 O637 2.393 1_565 S
Tb599 O638 2.465 1_565 S
Tb599 O639 2.387 . S
Tb599 O641 2.428 1_565 S
Tb599 O642 2.308 1_565 S
Tb599 C663 2.802 1_565 S
N600 C596 1.361 . S
N600 Tb599 2.572 . S
N600 C602 1.340 . S
C601 C595 1.416 . S
C601 C603 1.332 . S
C601 H609 0.931 . S
C602 N600 1.340 . S
C602 C603 1.407 . S
C602 H608 0.930 . S
C603 C601 1.332 . S
C603 C602 1.407 . S
C603 H605 0.929 . S
H604 C593 0.930 . S
H605 C603 0.929 . S
H606 C621 0.930 . S
H607 C628 0.929 . S
H608 C602 0.930 . S
H609 C601 0.931 . S
H610 C624 0.930 . S
H611 C591 0.930 . S
H612 C597 0.929 . S
H613 C598 0.930 . S
H614 C619 0.930 . S
H615 C594 0.930 . S
H616 C627 0.931 . S
N617 Tb588 2.617 . S
N617 C618 1.379 . S
N617 C621 1.334 . S
C618 N617 1.379 . S
C618 C620 1.416 . S
C618 C626 1.424 . S
C619 H614 0.930 . S
C619 C621 1.390 . S
C619 C622 1.339 . S
C620 C618 1.416 . S
C620 C622 1.416 . S
C620 C653 1.448 . S
C621 H606 0.930 . S
C621 N617 1.334 . S
C621 C619 1.390 . S
C622 C619 1.339 . S
C622 C620 1.416 . S
C622 H629 0.930 . S
N623 Tb588 2.572 . S
N623 C624 1.340 . S
N623 C626 1.361 . S
C624 H610 0.930 . S
C624 N623 1.340 . S
C624 C628 1.407 . S
C625 C626 1.413 . S
C625 C627 1.416 . S
C625 C654 1.427 . S
C626 C618 1.424 . S
C626 N623 1.361 . S
C626 C625 1.413 . S
C627 H616 0.931 . S
C627 C625 1.416 . S
C627 C628 1.332 . S
C628 H607 0.929 . S
C628 C624 1.407 . S
C628 C627 1.332 . S
H629 C622 0.930 . S
H630 C653 0.930 . S
H631 C654 0.929 . S
O632 Tb588 2.465 . S
O632 C652 1.264 . S
O633 Tb588 2.387 . S
O633 C644 1.264 . S
O634 Tb599 2.349 1_545 S
O634 C644 1.243 . S
O635 Tb588 2.428 . S
O635 C652 1.256 . S
O636 Tb588 2.308 . S
O636 C651 1.266 . S
O637 Tb599 2.393 1_545 S
O637 C651 1.248 . S
O638 Tb599 2.465 1_545 S
O638 C663 1.264 . S
O639 Tb599 2.387 . S
O639 C655 1.264 . S
O640 Tb588 2.349 1_565 S
O640 C655 1.243 . S
O641 Tb599 2.428 1_545 S
O641 C663 1.256 . S
O642 Tb599 2.308 1_545 S
O642 C662 1.266 . S
O643 Tb588 2.393 . S
O643 C662 1.248 . S
C644 O633 1.264 . S
C644 O634 1.243 . S
C645 C648 1.399 . S
C645 C650 1.383 . S
C645 C652 1.496 . S
C646 C647 1.399 . S
C646 C650 1.389 . S
C647 C646 1.399 . S
C647 C649 1.380 . S
C647 H664 0.929 1_655 S
C648 C645 1.399 . S
C648 C649 1.392 . S
C648 H665 0.929 . S
C649 C647 1.380 . S
C649 C648 1.392 . S
C649 H666 0.929 . S
C650 C645 1.383 . S
C650 C646 1.389 . S
C650 H667 0.931 . S
C651 O636 1.266 . S
C651 O637 1.248 . S
C652 Tb588 2.802 . S
C652 O632 1.264 . S
C652 O635 1.256 . S
C652 C645 1.496 . S
C653 C620 1.448 . S
C653 H630 0.930 . S
C653 C654 1.328 . S
C654 C625 1.427 . S
C654 H631 0.929 . S
C654 C653 1.328 . S
C655 O639 1.264 . S
C655 O640 1.243 . S
C656 C659 1.399 . S
C656 C660 1.383 . S
C656 C663 1.496 . S
C657 C658 1.399 . S
C657 C660 1.389 . S
C658 C657 1.399 . S
C658 C661 1.380 . S
C658 H668 0.929 . S
C659 C656 1.399 . S
C659 C661 1.392 . S
C659 H669 0.929 . S
C660 C656 1.383 . S
C660 C657 1.389 . S
C660 H670 0.931 . S
C661 C658 1.380 . S
C661 C659 1.392 . S
C661 H671 0.929 . S
C662 O642 1.266 . S
C662 O643 1.248 . S
C663 Tb599 2.802 1_545 S
C663 O638 1.264 . S
C663 O641 1.256 . S
C663 C656 1.496 . S
H664 C647 0.929 1_455 S
H665 C648 0.929 . S
H666 C649 0.929 . S
H667 C650 0.931 . S
H668 C658 0.929 . S
H669 C659 0.929 . S
H670 C660 0.931 . S
H671 C661 0.929 . S
C672 C673 1.369 . S
C672 C674 1.419 . S
C672 H676 0.930 . S
C673 C672 1.369 . S
C673 C682 1.429 1_545 S
C674 C672 1.419 . S
C674 C675 1.363 . S
C674 H677 0.929 . S
C675 C674 1.363 . S
C675 C681 1.428 1_545 S
H676 C672 0.930 . S
H677 C674 0.929 . S
S678 N679 1.613 . S
S678 N680 1.610 . S
N679 S678 1.613 . S
N679 C682 1.350 . S
N680 S678 1.610 . S
N680 C681 1.351 . S
C681 C675 1.428 1_565 S
C681 N680 1.351 . S
C681 C682 1.434 . S
C682 C673 1.429 1_565 S
C682 N679 1.350 . S
C682 C681 1.434 . S
C683 C684 1.369 . S
C683 C685 1.419 . S
C683 H687 0.930 . S
C684 C683 1.369 . S
C684 C693 1.429 . S
C685 C683 1.419 . S
C685 C686 1.363 . S
C685 H688 0.929 . S
C686 C685 1.363 . S
C686 C692 1.428 . S
H687 C683 0.930 . S
H688 C685 0.929 . S
S689 N690 1.613 . S
S689 N691 1.610 . S
N690 S689 1.613 . S
N690 C693 1.350 . S
N691 S689 1.610 . S
N691 C692 1.351 . S
C692 C686 1.428 . S
C692 N691 1.351 . S
C692 C693 1.434 . S
C693 C684 1.429 . S
C693 N690 1.350 . S
C693 C692 1.434 . S
C694 C695 1.369 . S
C694 C696 1.419 . S
C694 H698 0.930 . S
C695 C694 1.369 . S
C695 C704 1.429 . S
C696 C694 1.419 . S
C696 C697 1.363 . S
C696 H699 0.929 . S
C697 C696 1.363 . S
C697 C703 1.428 . S
H698 C694 0.930 . S
H699 C696 0.929 . S
S700 N701 1.613 . S
S700 N702 1.610 . S
N701 S700 1.613 . S
N701 C704 1.350 . S
N702 S700 1.610 . S
N702 C703 1.351 . S
C703 C697 1.428 . S
C703 N702 1.351 . S
C703 C704 1.434 . S
C704 C695 1.429 . S
C704 N701 1.350 . S
C704 C703 1.434 . S
C705 C706 1.369 . S
C705 C707 1.419 . S
C705 H709 0.930 . S
C706 C705 1.369 . S
C706 C715 1.421 1_455 S
C707 C705 1.419 . S
C707 C708 1.363 . S
C707 H710 0.929 . S
C708 C707 1.363 . S
C708 C714 1.428 . S
H709 C705 0.930 . S
H710 C707 0.929 . S
S711 N712 1.613 . S
S711 N713 1.610 1_655 S
N712 S711 1.613 . S
N712 C715 1.365 . S
N713 S711 1.610 1_455 S
N713 C714 1.351 . S
C714 C708 1.428 . S
C714 N713 1.351 . S
C714 C715 1.427 1_455 S
C715 C706 1.421 1_655 S
C715 N712 1.365 . S
C715 C714 1.427 1_655 S
C716 C717 1.369 . S
C716 C718 1.419 . S
C716 H720 0.930 . S
C717 C716 1.369 . S
C717 C726 1.429 . S
C718 C716 1.419 . S
C718 C719 1.363 . S
C718 H721 0.929 . S
C719 C718 1.363 . S
C719 C725 1.428 . S
H720 C716 0.930 . S
H721 C718 0.929 . S
S722 N723 1.613 . S
S722 N724 1.610 . S
N723 S722 1.613 . S
N723 C726 1.350 . S
N724 S722 1.610 . S
N724 C725 1.351 . S
C725 C719 1.428 . S
C725 N724 1.351 . S
C725 C726 1.434 . S
C726 C717 1.429 . S
C726 N723 1.350 . S
C726 C725 1.434 . S
C727 C728 1.369 1_565 S
C727 C729 1.419 . S
C727 H731 0.930 . S
C728 C727 1.369 1_545 S
C728 C737 1.429 . S
C729 C727 1.419 . S
C729 C730 1.363 1_565 S
C729 H732 0.929 . S
C730 C729 1.363 1_545 S
C730 C736 1.428 . S
H731 C727 0.930 . S
H732 C729 0.929 . S
S733 N734 1.613 . S
S733 N735 1.610 . S
N734 S733 1.613 . S
N734 C737 1.350 . S
N735 S733 1.610 . S
N735 C736 1.351 . S
C736 C730 1.428 . S
C736 N735 1.351 . S
C736 C737 1.434 . S
C737 C728 1.429 . S
C737 N734 1.350 . S
C737 C736 1.434 . S
C738 C739 1.369 . S
C738 C740 1.419 . S
C738 H742 0.930 . S
C739 C738 1.369 . S
C739 C748 1.429 . S
C740 C738 1.419 . S
C740 C741 1.363 . S
C740 H743 0.929 . S
C741 C740 1.363 . S
C741 C747 1.428 . S
H742 C738 0.930 . S
H743 C740 0.929 . S
S744 N745 1.613 . S
S744 N746 1.610 . S
N745 S744 1.613 . S
N745 C748 1.350 . S
N746 S744 1.610 . S
N746 C747 1.351 . S
C747 C741 1.428 . S
C747 N746 1.351 . S
C747 C748 1.434 . S
C748 C739 1.429 . S
C748 N745 1.350 . S
C748 C747 1.434 . S
C749 C750 1.369 . S
C749 C751 1.419 . S
C749 H753 0.930 . S
C750 C749 1.369 . S
C750 C759 1.429 . S
C751 C749 1.419 . S
C751 C752 1.363 . S
C751 H754 0.929 . S
C752 C751 1.363 . S
C752 C758 1.428 . S
H753 C749 0.930 . S
H754 C751 0.929 . S
S755 N756 1.613 . S
S755 N757 1.610 . S
N756 S755 1.613 . S
N756 C759 1.350 . S
N757 S755 1.610 . S
N757 C758 1.351 . S
C758 C752 1.428 . S
C758 N757 1.351 . S
C758 C759 1.434 . S
C759 C750 1.429 . S
C759 N756 1.350 . S
C759 C758 1.434 . S
C760 C761 1.369 . S
C760 C762 1.419 1_556 S
C760 H764 0.930 . S
C761 C760 1.369 . S
C761 C770 1.429 . S
C762 C760 1.419 1_554 S
C762 C763 1.363 . S
C762 H765 0.929 . S
C763 C762 1.363 . S
C763 C769 1.428 . S
H764 C760 0.930 . S
H765 C762 0.929 . S
S766 N767 1.613 1_665 S
S766 N768 1.610 1_566 S
N767 S766 1.613 1_445 S
N767 C770 1.350 . S
N768 S766 1.610 1_544 S
N768 C769 1.351 1_655 S
C769 C763 1.428 . S
C769 N768 1.351 1_455 S
C769 C770 1.434 1_554 S
C770 C761 1.429 . S
C770 N767 1.350 . S
C770 C769 1.434 1_556 S
C771 C772 1.369 . S
C771 C773 1.419 . S
C771 H775 0.930 . S
C772 C771 1.369 . S
C772 C781 1.429 . S
C773 C771 1.419 . S
C773 C774 1.363 . S
C773 H776 0.929 . S
C774 C773 1.363 . S
C774 C780 1.428 . S
H775 C771 0.930 . S
H776 C773 0.929 . S
S777 N778 1.613 . S
S777 N779 1.610 . S
N778 S777 1.613 . S
N778 C781 1.350 . S
N779 S777 1.610 . S
N779 C780 1.351 . S
C780 C774 1.428 . S
C780 N779 1.351 . S
C780 C781 1.434 . S
C781 C772 1.429 . S
C781 N778 1.350 . S
C781 C780 1.434 . S
C782 C783 1.369 . S
C782 C784 1.419 . S
C782 H786 0.930 . S
C783 C782 1.369 . S
C783 C792 1.429 1_556 S
C784 C782 1.419 . S
C784 C785 1.363 1_556 S
C784 H787 0.929 . S
C785 C784 1.363 1_554 S
C785 C791 1.428 . S
H786 C782 0.930 . S
H787 C784 0.929 . S
S788 N789 1.613 . S
S788 N790 1.610 . S
N789 S788 1.613 . S
N789 C792 1.350 . S
N790 S788 1.610 . S
N790 C791 1.351 . S
C791 C785 1.428 . S
C791 N790 1.351 . S
C791 C792 1.434 . S
C792 C783 1.429 1_554 S
C792 N789 1.350 . S
C792 C791 1.434 . S
C793 C794 1.369 . S
C793 C795 1.419 . S
C793 H797 0.930 . S
C794 C793 1.369 . S
C794 C803 1.429 . S
C795 C793 1.419 . S
C795 C796 1.363 . S
C795 H798 0.929 . S
C796 C795 1.363 . S
C796 C802 1.428 . S
H797 C793 0.930 . S
H798 C795 0.929 . S
S799 N800 1.613 . S
S799 N801 1.610 . S
N800 S799 1.613 . S
N800 C803 1.350 . S
N801 S799 1.610 . S
N801 C802 1.351 . S
C802 C796 1.428 . S
C802 N801 1.351 . S
C802 C803 1.434 . S
C803 C794 1.429 . S
C803 N800 1.350 . S
C803 C802 1.434 . S
C804 C805 1.369 . S
C804 C806 1.419 1_556 S
C804 H808 0.930 . S
C805 C804 1.369 . S
C805 C814 1.429 . S
C806 C804 1.419 1_554 S
C806 C807 1.363 . S
C806 H809 0.929 . S
C807 C806 1.363 . S
C807 C813 1.432 . S
H808 C804 0.930 . S
H809 C806 0.929 . S
S810 N811 1.613 1_565 S
S810 N812 1.610 1_565 S
N811 S810 1.613 1_545 S
N811 C814 1.348 . S
N812 S810 1.610 1_545 S
N812 C813 1.354 1_556 S
C813 C807 1.432 . S
C813 N812 1.354 1_554 S
C813 C814 1.426 1_554 S
C814 C805 1.429 . S
C814 N811 1.348 . S
C814 C813 1.426 1_556 S
C815 C816 1.369 . S
C815 C817 1.419 . S
C815 H819 0.930 . S
C816 C815 1.369 . S
C816 C825 1.429 . S
C817 C815 1.419 . S
C817 C818 1.363 . S
C817 H820 0.929 . S
C818 C817 1.363 . S
C818 C824 1.428 . S
H819 C815 0.930 . S
H820 C817 0.929 . S
S821 N822 1.613 . S
S821 N823 1.610 . S
N822 S821 1.613 . S
N822 C825 1.350 . S
N823 S821 1.610 . S
N823 C824 1.351 . S
C824 C818 1.428 . S
C824 N823 1.351 . S
C824 C825 1.434 . S
C825 C816 1.429 . S
C825 N822 1.350 . S
C825 C824 1.434 . S
C826 C827 1.369 . S
C826 C828 1.419 . S
C826 H830 0.930 1_455 S
C827 C826 1.369 . S
C827 C836 1.429 1_556 S
C828 C826 1.419 . S
C828 C829 1.363 1_556 S
C828 H831 0.929 . S
C829 C828 1.363 1_554 S
C829 C835 1.428 . S
H830 C826 0.930 1_655 S
H831 C828 0.929 . S
S832 N833 1.613 . S
S832 N834 1.610 . S
N833 S832 1.613 . S
N833 C836 1.350 . S
N834 S832 1.610 . S
N834 C835 1.351 . S
C835 C829 1.428 . S
C835 N834 1.351 . S
C835 C836 1.434 . S
C836 C827 1.429 1_554 S
C836 N833 1.350 . S
C836 C835 1.434 . S
C837 C838 1.369 . S
C837 C839 1.419 . S
C837 H841 0.930 . S
C838 C837 1.369 . S
C838 C847 1.429 . S
C839 C837 1.419 . S
C839 C840 1.363 . S
C839 H842 0.929 . S
C840 C839 1.363 . S
C840 C846 1.428 . S
H841 C837 0.930 . S
H842 C839 0.929 . S
S843 N844 1.613 . S
S843 N845 1.610 . S
N844 S843 1.613 . S
N844 C847 1.350 . S
N845 S843 1.610 . S
N845 C846 1.351 . S
C846 C840 1.428 . S
C846 N845 1.351 . S
C846 C847 1.434 . S
C847 C838 1.429 . S
C847 N844 1.350 . S
C847 C846 1.434 . S
C848 C849 1.369 . S
C848 C850 1.419 . S
C848 H852 0.930 . S
C849 C848 1.369 . S
C849 C858 1.429 . S
C850 C848 1.419 . S
C850 C851 1.363 . S
C850 H853 0.929 . S
C851 C850 1.363 . S
C851 C857 1.428 . S
H852 C848 0.930 . S
H853 C850 0.929 . S
S854 N855 1.613 . S
S854 N856 1.610 . S
N855 S854 1.613 . S
N855 C858 1.350 . S
N856 S854 1.610 . S
N856 C857 1.351 . S
C857 C851 1.428 . S
C857 N856 1.351 . S
C857 C858 1.434 . S
C858 C849 1.429 . S
C858 N855 1.350 . S
C858 C857 1.434 . S
C859 C860 1.369 . S
C859 C861 1.419 . S
C859 H863 0.930 . S
C860 C859 1.369 . S
C860 C869 1.429 . S
C861 C859 1.419 . S
C861 C862 1.363 . S
C861 H864 0.929 . S
C862 C861 1.363 . S
C862 C868 1.428 . S
H863 C859 0.930 . S
H864 C861 0.929 . S
S865 N866 1.613 . S
S865 N867 1.610 . S
N866 S865 1.613 . S
N866 C869 1.350 . S
N867 S865 1.610 . S
N867 C868 1.351 . S
C868 C862 1.428 . S
C868 N867 1.351 . S
C868 C869 1.434 . S
C869 C860 1.429 . S
C869 N866 1.350 . S
C869 C868 1.434 . S
C870 C871 1.369 1_545 S
C870 C872 1.419 . S
C870 H874 0.930 . S
C871 C870 1.369 1_565 S
C871 C880 1.429 . S
C872 C870 1.419 . S
C872 C873 1.363 1_545 S
C872 H875 0.929 . S
C873 C872 1.363 1_565 S
C873 C879 1.428 . S
H874 C870 0.930 . S
H875 C872 0.929 . S
S876 N877 1.613 . S
S876 N878 1.610 . S
N877 S876 1.613 . S
N877 C880 1.350 . S
N878 S876 1.610 . S
N878 C879 1.351 . S
C879 C873 1.428 . S
C879 N878 1.351 . S
C879 C880 1.434 . S
C880 C871 1.429 . S
C880 N877 1.350 . S
C880 C879 1.434 . S
C881 C882 1.369 . S
C881 C883 1.419 . S
C881 H885 0.930 . S
C882 C881 1.369 . S
C882 C891 1.429 . S
C883 C881 1.419 . S
C883 C884 1.363 . S
C883 H886 0.929 . S
C884 C883 1.363 . S
C884 C890 1.428 . S
H885 C881 0.930 . S
H886 C883 0.929 . S
S887 N888 1.613 . S
S887 N889 1.610 . S
N888 S887 1.613 . S
N888 C891 1.350 . S
N889 S887 1.610 . S
N889 C890 1.351 . S
C890 C884 1.428 . S
C890 N889 1.351 . S
C890 C891 1.434 . S
C891 C882 1.429 . S
C891 N888 1.350 . S
C891 C890 1.434 . S
C892 C893 1.369 . S
C892 C894 1.419 . S
C892 H896 0.930 . S
C893 C892 1.369 . S
C893 C902 1.429 . S
C894 C892 1.419 . S
C894 C895 1.363 . S
C894 H897 0.929 . S
C895 C894 1.363 . S
C895 C901 1.428 . S
H896 C892 0.930 . S
H897 C894 0.929 . S
S898 N899 1.613 . S
S898 N900 1.610 . S
N899 S898 1.613 . S
N899 C902 1.350 . S
N900 S898 1.610 . S
N900 C901 1.351 . S
C901 C895 1.428 . S
C901 N900 1.351 . S
C901 C902 1.434 . S
C902 C893 1.429 . S
C902 N899 1.350 . S
C902 C901 1.434 . S
C903 C904 1.369 . S
C903 C905 1.419 . S
C903 H907 0.930 . S
C904 C903 1.369 . S
C904 C913 1.429 . S
C905 C903 1.419 . S
C905 C906 1.363 . S
C905 H908 0.929 . S
C906 C905 1.363 . S
C906 C912 1.428 . S
H907 C903 0.930 . S
H908 C905 0.929 . S
S909 N910 1.613 . S
S909 N911 1.610 . S
N910 S909 1.613 . S
N910 C913 1.350 . S
N911 S909 1.610 . S
N911 C912 1.351 . S
C912 C906 1.428 . S
C912 N911 1.351 . S
C912 C913 1.434 . S
C913 C904 1.429 . S
C913 N910 1.350 . S
C913 C912 1.434 . S
C914 C915 1.369 . S
C914 C916 1.419 . S
C914 H918 0.930 . S
C915 C914 1.369 . S
C915 C924 1.429 . S
C916 C914 1.419 . S
C916 C917 1.363 . S
C916 H919 0.929 . S
C917 C916 1.363 . S
C917 C923 1.428 . S
H918 C914 0.930 . S
H919 C916 0.929 . S
S920 N921 1.613 . S
S920 N922 1.610 . S
N921 S920 1.613 . S
N921 C924 1.350 . S
N922 S920 1.610 . S
N922 C923 1.351 . S
C923 C917 1.428 . S
C923 N922 1.351 . S
C923 C924 1.434 . S
C924 C915 1.429 . S
C924 N921 1.350 . S
C924 C923 1.434 . S
C925 C926 1.369 . S
C925 C927 1.419 . S
C925 H929 0.930 . S
C926 C925 1.369 . S
C926 C935 1.429 . S
C927 C925 1.419 . S
C927 C928 1.363 . S
C927 H930 0.929 . S
C928 C927 1.363 . S
C928 C934 1.428 . S
H929 C925 0.930 . S
H930 C927 0.929 . S
S931 N932 1.613 . S
S931 N933 1.610 . S
N932 S931 1.613 . S
N932 C935 1.350 . S
N933 S931 1.610 . S
N933 C934 1.351 . S
C934 C928 1.428 . S
C934 N933 1.351 . S
C934 C935 1.434 . S
C935 C926 1.429 . S
C935 N932 1.350 . S
C935 C934 1.434 . S
C673 C651 1.757 . S
C675 C69 1.560 . S
C684 C142 0.396 . S
C686 C405 0.659 . S
C695 C476 2.256 . S
C697 C224 2.129 . S
C706 C321 0.815 . S
C708 C560 0.876 . S
C717 C158 1.765 . S
C719 C562 1.548 . S
C728 C226 0.673 . S
C730 C657 0.381 . S
C739 C403 2.130 . S
C741 C319 2.256 . S
C750 C478 0.816 . S
C752 C67 0.880 . S
C761 C571 0.946 . S
C763 C56 0.953 . S
C772 C147 3.235 . S
C774 C662 3.235 . S
C783 C394 1.360 . S
C785 C237 1.365 . S
C794 C308 3.554 . S
C796 C487 3.553 1_455 S
C805 C392 1.942 . S
C807 C235 1.952 . S
C816 C310 0.896 . S
C818 C489 0.903 . S
C827 C573 2.714 1_455 S
C829 C58 2.722 . S
C838 C153 1.359 . S
C840 C646 1.367 1_455 S
C849 C74 3.035 . S
C851 C231 3.211 . S
C860 C151 3.328 1_565 S
C862 C326 3.194 . S
C871 C410 3.211 . S
C873 C567 3.031 . S
C882 C644 3.328 . S
C884 C483 3.195 . S
C893 C63 2.654 . S
C895 C242 2.736 . S
C904 C140 2.968 . S
C906 C315 3.051 . S
C915 C399 2.735 . S
C917 C578 2.653 . S
C926 C494 3.052 . S
C928 C655 2.968 . S
