# Generated by pormake.
# Topology wfs, (7)-cn, num edge types: 1
# Building blocks:
#     Node 0, Type 0, BuildingBlock: NUHQUE_clean_sbu_2, # of connection points: 7
#     Node 1, Type 0, BuildingBlock: NUHQUE_clean_sbu_2, # of connection points: 7
#     Node 2, Type 0, BuildingBlock: NUHQUE_clean_sbu_2, # of connection points: 7
#     Node 3, Type 0, BuildingBlock: NUHQUE_clean_sbu_2, # of connection points: 7
#     Node 4, Type 0, BuildingBlock: NUHQUE_clean_sbu_2, # of connection points: 7
#     Node 5, Type 0, BuildingBlock: NUHQUE_clean_sbu_2, # of connection points: 7
#     Node 6, Type 0, BuildingBlock: NUHQUE_clean_sbu_2, # of connection points: 7
#     Node 7, Type 0, BuildingBlock: NUHQUE_clean_sbu_2, # of connection points: 7
#     Edge 8, Type (0, 0), BuildingBlock: TEMPAE_clean_linker_10, # of connection points: 2
#     Edge 9, Type (0, 0), BuildingBlock: TEMPAE_clean_linker_10, # of connection points: 2
#     Edge 10, Type (0, 0), BuildingBlock: TEMPAE_clean_linker_10, # of connection points: 2
#     Edge 11, Type (0, 0), BuildingBlock: TEMPAE_clean_linker_10, # of connection points: 2
#     Edge 12, Type (0, 0), BuildingBlock: TEMPAE_clean_linker_10, # of connection points: 2
#     Edge 13, Type (0, 0), BuildingBlock: TEMPAE_clean_linker_10, # of connection points: 2
#     Edge 14, Type (0, 0), BuildingBlock: TEMPAE_clean_linker_10, # of connection points: 2
#     Edge 15, Type (0, 0), BuildingBlock: TEMPAE_clean_linker_10, # of connection points: 2
#     Edge 16, Type (0, 0), BuildingBlock: TEMPAE_clean_linker_10, # of connection points: 2
#     Edge 17, Type (0, 0), BuildingBlock: TEMPAE_clean_linker_10, # of connection points: 2
#     Edge 18, Type (0, 0), BuildingBlock: TEMPAE_clean_linker_10, # of connection points: 2
#     Edge 19, Type (0, 0), BuildingBlock: TEMPAE_clean_linker_10, # of connection points: 2
#     Edge 20, Type (0, 0), BuildingBlock: TEMPAE_clean_linker_10, # of connection points: 2
#     Edge 21, Type (0, 0), BuildingBlock: TEMPAE_clean_linker_10, # of connection points: 2
#     Edge 22, Type (0, 0), BuildingBlock: TEMPAE_clean_linker_10, # of connection points: 2
#     Edge 23, Type (0, 0), BuildingBlock: TEMPAE_clean_linker_10, # of connection points: 2
#     Edge 24, Type (0, 0), BuildingBlock: TEMPAE_clean_linker_10, # of connection points: 2
#     Edge 25, Type (0, 0), BuildingBlock: TEMPAE_clean_linker_10, # of connection points: 2
#     Edge 26, Type (0, 0), BuildingBlock: TEMPAE_clean_linker_10, # of connection points: 2
#     Edge 27, Type (0, 0), BuildingBlock: TEMPAE_clean_linker_10, # of connection points: 2
#     Edge 28, Type (0, 0), BuildingBlock: TEMPAE_clean_linker_10, # of connection points: 2
#     Edge 29, Type (0, 0), BuildingBlock: TEMPAE_clean_linker_10, # of connection points: 2
#     Edge 30, Type (0, 0), BuildingBlock: TEMPAE_clean_linker_10, # of connection points: 2
#     Edge 31, Type (0, 0), BuildingBlock: TEMPAE_clean_linker_10, # of connection points: 2
#     Edge 32, Type (0, 0), BuildingBlock: TEMPAE_clean_linker_10, # of connection points: 2
#     Edge 33, Type (0, 0), BuildingBlock: TEMPAE_clean_linker_10, # of connection points: 2
#     Edge 34, Type (0, 0), BuildingBlock: TEMPAE_clean_linker_10, # of connection points: 2
#     Edge 35, Type (0, 0), BuildingBlock: TEMPAE_clean_linker_10, # of connection points: 2
# Relax obj value: 0.227
# Max RMSD: 0.188
# Mean RMSD: 0.188
data_MOF--net-wfs--node1-NUHQUE_clean_sbu_2--edge1-TEMPAE_clean_linker_10
_symmetry_space_group_name_H-M    P1
_symmetry_Int_Tables_number       1
_symmetry_cell_setting            triclinic
loop_
_symmetry_equiv_pos_as_xyz
'x, y, z'
_cell_length_a     31.783875
_cell_length_b     37.386818
_cell_length_c     31.342455
_cell_angle_alpha  89.446585
_cell_angle_beta   89.335722
_cell_angle_gamma 89.991304
loop_
_atom_site_label
_atom_site_type_symbol
_atom_site_fract_x
_atom_site_fract_y
_atom_site_fract_z
_atom_type_partial_charge
O0 O 0.21568 0.07783 0.20925 0.0
Tb1 Tb 0.19335 0.1124 0.15828 0.0
Eu2 Eu 0.20836 0.19779 0.10456 0.0
C3 C 0.25174 0.06077 0.20563 0.0
O4 O 0.2776 0.06953 0.17429 0.0
C5 C 0.23808 0.12272 0.0757 0.0
O6 O 0.1697 0.23308 0.06181 0.0
C7 C 0.27917 0.22568 0.12857 0.0
C8 C 0.14764 0.25977 0.07746 0.0
O9 O 0.15576 0.27094 0.11612 0.0
C10 C 0.1439 0.1826 0.18727 0.0
C11 C 0.29749 0.25456 0.15439 0.0
C12 C 0.33983 0.25202 0.16729 0.0
C13 C 0.35845 0.2797 0.19069 0.0
C14 C 0.33428 0.30995 0.20052 0.0
C15 C 0.29227 0.31314 0.18769 0.0
C16 C 0.27393 0.28529 0.16452 0.0
O17 O 0.24671 0.1217 0.11643 0.0
O18 O 0.21593 0.14992 0.06216 0.0
O19 O 0.1675 0.061 0.13988 0.0
O20 O 0.13861 0.10828 0.11639 0.0
C21 C 0.13753 0.07344 0.11622 0.0
O22 O 0.15527 0.20133 0.15309 0.0
O23 O 0.16131 0.15174 0.19837 0.0
O24 O 0.25932 0.23558 0.09374 0.0
O25 O 0.26062 0.19902 0.14922 0.0
H26 H 0.35821 0.2286 0.15906 0.0
H27 H 0.34897 0.33205 0.21687 0.0
H28 H 0.24161 0.28761 0.15414 0.0
O29 O 0.2224 0.94425 0.77252 0.0
Tb30 Tb 0.19985 0.91188 0.82592 0.0
Eu31 Eu 0.21884 0.81795 0.87426 0.0
C32 C 0.25657 0.96375 0.77645 0.0
O33 O 0.28071 0.95804 0.80954 0.0
C34 C 0.24556 0.89356 0.90472 0.0
O35 O 0.16799 0.79344 0.91574 0.0
C36 C 0.28754 0.7805 0.86615 0.0
C37 C 0.14188 0.76947 0.90074 0.0
O38 O 0.15011 0.75497 0.86358 0.0
C39 C 0.15723 0.83857 0.79076 0.0
C40 C 0.31008 0.75261 0.84116 0.0
C41 C 0.35215 0.75901 0.8279 0.0
C42 C 0.37515 0.73265 0.80594 0.0
C43 C 0.35612 0.69966 0.79829 0.0
C44 C 0.3151 0.69199 0.81256 0.0
C45 C 0.29169 0.71888 0.83322 0.0
O46 O 0.25278 0.89578 0.86365 0.0
O47 O 0.22668 0.86461 0.91865 0.0
O48 O 0.17997 0.96499 0.84609 0.0
O49 O 0.14592 0.92 0.8692 0.0
C50 C 0.14823 0.95478 0.86962 0.0
O51 O 0.17809 0.81572 0.81528 0.0
O52 O 0.16211 0.8738 0.79052 0.0
O53 O 0.25528 0.77052 0.89024 0.0
O54 O 0.28258 0.81225 0.84823 0.0
H55 H 0.36695 0.78442 0.83469 0.0
H56 H 0.37399 0.67928 0.78159 0.0
H57 H 0.2599 0.71318 0.84415 0.0
O58 O 0.79052 0.93292 0.22175 0.0
Tb59 Tb 0.81381 0.89659 0.17291 0.0
Eu60 Eu 0.80241 0.826 0.10239 0.0
C61 C 0.754 0.94952 0.21995 0.0
O62 O 0.72607 0.93947 0.19197 0.0
C63 C 0.77417 0.90578 0.08551 0.0
O64 O 0.83995 0.79304 0.0556 0.0
C65 C 0.73024 0.7991 0.12585 0.0
C66 C 0.85404 0.80832 0.02025 0.0
O67 O 0.83994 0.84026 0.01004 0.0
C68 C 0.85701 0.82441 0.18838 0.0
C69 C 0.70938 0.76865 0.14767 0.0
C70 C 0.66606 0.77092 0.15774 0.0
C71 C 0.64507 0.74218 0.17812 0.0
C72 C 0.66809 0.71119 0.18777 0.0
C73 C 0.71125 0.70861 0.17838 0.0
C74 C 0.73184 0.73737 0.1579 0.0
O75 O 0.76455 0.90593 0.12641 0.0
O76 O 0.79658 0.87945 0.06983 0.0
O77 O 0.86527 0.93409 0.18102 0.0
O78 O 0.86411 0.90319 0.12458 0.0
C79 C 0.88445 0.92771 0.14514 0.0
O80 O 0.85597 0.81718 0.14748 0.0
O81 O 0.82964 0.84664 0.20562 0.0
O82 O 0.74834 0.79264 0.08869 0.0
O83 O 0.75178 0.8213 0.14966 0.0
H84 H 0.64887 0.79512 0.14999 0.0
H85 H 0.65206 0.68832 0.20197 0.0
H86 H 0.76512 0.73553 0.15026 0.0
O87 O 0.79353 0.09196 0.78533 0.0
Tb88 Tb 0.82286 0.13429 0.82165 0.0
Eu89 Eu 0.81106 0.20958 0.88593 0.0
C90 C 0.78905 0.06098 0.80524 0.0
O91 O 0.79996 0.05892 0.8455 0.0
C92 C 0.78323 0.13171 0.90998 0.0
O93 O 0.84997 0.24436 0.9285 0.0
C94 C 0.73772 0.23552 0.867 0.0
C95 C 0.86024 0.23258 0.96664 0.0
O96 O 0.84213 0.20336 0.98148 0.0
C97 C 0.85932 0.2081 0.79458 0.0
C98 C 0.71759 0.26543 0.84395 0.0
C99 C 0.67578 0.26163 0.83001 0.0
C100 C 0.6553 0.29011 0.80911 0.0
C101 C 0.67778 0.32183 0.80151 0.0
C102 C 0.71861 0.32679 0.81693 0.0
C103 C 0.73883 0.29814 0.83752 0.0
O104 O 0.77305 0.13009 0.86963 0.0
O105 O 0.80752 0.15773 0.92262 0.0
O106 O 0.8766 0.09982 0.80951 0.0
O107 O 0.87351 0.12737 0.86846 0.0
C108 C 0.89537 0.10496 0.8455 0.0
O109 O 0.85974 0.2188 0.83442 0.0
O110 O 0.83509 0.18158 0.78216 0.0
O111 O 0.75798 0.24358 0.90205 0.0
O112 O 0.75706 0.21129 0.84364 0.0
H113 H 0.65904 0.23685 0.83631 0.0
H114 H 0.66322 0.34316 0.78325 0.0
H115 H 0.77049 0.30145 0.84933 0.0
O116 O 0.74505 0.58376 0.6996 0.0
Tb117 Tb 0.71095 0.61688 0.65428 0.0
Eu118 Eu 0.71744 0.70612 0.60204 0.0
C119 C 0.77121 0.55973 0.68423 0.0
O120 O 0.7795 0.56023 0.64314 0.0
C121 C 0.74728 0.6324 0.56853 0.0
O122 O 0.6709 0.73451 0.55983 0.0
C123 C 0.78834 0.73914 0.61406 0.0
C124 C 0.64165 0.75547 0.57604 0.0
O125 O 0.64485 0.76584 0.61578 0.0
C126 C 0.66305 0.686 0.69152 0.0
C127 C 0.81031 0.7658 0.64068 0.0
C128 C 0.85126 0.75806 0.6554 0.0
C129 C 0.87361 0.78336 0.67917 0.0
C130 C 0.8551 0.81658 0.6872 0.0
C131 C 0.81534 0.82554 0.67135 0.0
C132 C 0.7925 0.79971 0.64891 0.0
O133 O 0.75943 0.63078 0.60824 0.0
O134 O 0.72319 0.65926 0.55785 0.0
O135 O 0.68486 0.56404 0.6423 0.0
O136 O 0.65624 0.60902 0.61299 0.0
C137 C 0.65503 0.57433 0.61712 0.0
O138 O 0.67356 0.70735 0.65926 0.0
O139 O 0.67817 0.6533 0.69752 0.0
O140 O 0.75903 0.75092 0.58804 0.0
O141 O 0.77934 0.70785 0.63163 0.0
H142 H 0.8657 0.73251 0.64827 0.0
H143 H 0.87251 0.83618 0.70522 0.0
H144 H 0.76168 0.80641 0.63676 0.0
O145 O 0.71355 0.44538 0.27127 0.0
Tb146 Tb 0.69235 0.41307 0.3252 0.0
Eu147 Eu 0.70636 0.32467 0.38025 0.0
C148 C 0.7511 0.46017 0.27026 0.0
O149 O 0.77902 0.45004 0.29845 0.0
C150 C 0.73924 0.40004 0.40468 0.0
O151 O 0.65498 0.30474 0.42481 0.0
C152 C 0.77391 0.28616 0.36965 0.0
C153 C 0.61927 0.32243 0.42166 0.0
O154 O 0.61748 0.34923 0.39438 0.0
C155 C 0.64622 0.34053 0.29451 0.0
C156 C 0.79298 0.25755 0.34299 0.0
C157 C 0.83516 0.26114 0.32844 0.0
C158 C 0.85425 0.23429 0.30348 0.0
C159 C 0.83079 0.20372 0.29397 0.0
C160 C 0.78901 0.19953 0.30799 0.0
C161 C 0.77019 0.22647 0.33273 0.0
O162 O 0.74608 0.39995 0.36343 0.0
O163 O 0.71801 0.37305 0.42069 0.0
O164 O 0.67093 0.46573 0.34539 0.0
O165 O 0.63878 0.41993 0.36908 0.0
C166 C 0.64013 0.45471 0.3697 0.0
O167 O 0.66273 0.31932 0.32395 0.0
O168 O 0.65589 0.37474 0.28881 0.0
O169 O 0.74301 0.27725 0.39619 0.0
O170 O 0.76853 0.31766 0.35124 0.0
H171 H 0.85295 0.28485 0.33635 0.0
H172 H 0.84571 0.18222 0.27639 0.0
H173 H 0.73795 0.22325 0.34375 0.0
O174 O 0.2991 0.42837 0.6896 0.0
Tb175 Tb 0.33151 0.38836 0.65135 0.0
Eu176 Eu 0.30896 0.30824 0.59313 0.0
C177 C 0.29348 0.45967 0.67084 0.0
O178 O 0.30407 0.46282 0.6303 0.0
C179 C 0.2935 0.38626 0.56258 0.0
O180 O 0.31033 0.25571 0.55814 0.0
C181 C 0.23955 0.30487 0.63826 0.0
C182 C 0.34044 0.23882 0.53713 0.0
O183 O 0.33066 0.20751 0.52127 0.0
C184 C 0.3739 0.31589 0.66968 0.0
C185 C 0.21499 0.27551 0.65838 0.0
C186 C 0.17194 0.28032 0.66833 0.0
C187 C 0.14851 0.25234 0.68746 0.0
C188 C 0.16845 0.21958 0.69563 0.0
C189 C 0.21119 0.21433 0.68616 0.0
C190 C 0.23431 0.24232 0.66702 0.0
O191 O 0.283 0.39013 0.60291 0.0
O192 O 0.31311 0.35708 0.55062 0.0
O193 O 0.38298 0.42446 0.66518 0.0
O194 O 0.38167 0.40028 0.60418 0.0
C195 C 0.40215 0.4222 0.62853 0.0
O196 O 0.36914 0.30454 0.63042 0.0
O197 O 0.34818 0.33975 0.68649 0.0
O198 O 0.24044 0.30522 0.59643 0.0
O199 O 0.27647 0.31156 0.65469 0.0
H200 H 0.15695 0.30579 0.66174 0.0
H201 H 0.1502 0.19759 0.70903 0.0
H202 H 0.26735 0.23847 0.65936 0.0
O203 O 0.29477 0.58156 0.25358 0.0
Tb204 Tb 0.31565 0.62159 0.2986 0.0
Eu205 Eu 0.30083 0.69304 0.36816 0.0
C206 C 0.25687 0.56732 0.25421 0.0
O207 O 0.22723 0.5814 0.27826 0.0
C208 C 0.27521 0.61204 0.38558 0.0
O209 O 0.34351 0.71946 0.41545 0.0
C210 C 0.22824 0.7234 0.35611 0.0
C211 C 0.37213 0.69889 0.43327 0.0
O212 O 0.37198 0.6646 0.42464 0.0
C213 C 0.35071 0.69664 0.27695 0.0
C214 C 0.20767 0.75407 0.33484 0.0
C215 C 0.16364 0.75365 0.32914 0.0
C216 C 0.14305 0.78284 0.30962 0.0
C217 C 0.16755 0.81176 0.2949 0.0
C218 C 0.2112 0.81282 0.30077 0.0
C219 C 0.23123 0.78396 0.32107 0.0
O220 O 0.26564 0.61214 0.345 0.0
O221 O 0.29541 0.63944 0.40123 0.0
O222 O 0.37058 0.58728 0.29261 0.0
O223 O 0.36473 0.61992 0.34742 0.0
C224 C 0.38787 0.59609 0.32831 0.0
O225 O 0.34931 0.7061 0.31728 0.0
O226 O 0.32706 0.6706 0.26238 0.0
O227 O 0.25264 0.73062 0.38862 0.0
O228 O 0.24338 0.6981 0.33125 0.0
H229 H 0.14547 0.73093 0.34065 0.0
H230 H 0.15248 0.83411 0.27896 0.0
H231 H 0.26495 0.78464 0.32586 0.0
C232 C 0.29408 1.00585 0.2221 0.0
C233 C 0.25816 0.02686 0.22963 0.0
C234 C 0.29636 0.97043 0.23733 0.0
C235 C 0.26173 0.95564 0.26014 0.0
C236 C 0.22695 0.97766 0.27076 0.0
C237 C 0.22572 0.01306 0.25562 0.0
C238 C 0.33445 0.94813 0.22624 0.0
C239 C 0.18932 0.96302 0.2951 0.0
C240 C 0.22718 0.85992 0.24637 0.0
C241 C 0.23427 0.8455 0.28709 0.0
C242 C 0.23884 0.89511 0.23618 0.0
C243 C 0.25849 0.91632 0.2674 0.0
C244 C 0.26951 0.90074 0.30713 0.0
C245 C 0.25707 0.8654 0.31662 0.0
C246 C 0.2267 0.91048 0.19327 0.0
C247 C 0.29139 0.92217 0.34083 0.0
H248 H 0.31955 0.01639 0.20242 0.0
H249 H 0.198 0.02913 0.26196 0.0
H250 H 0.34355 0.93082 0.25357 0.0
H251 H 0.32691 0.93042 0.19919 0.0
H252 H 0.36178 0.96506 0.21672 0.0
H253 H 0.16676 0.98436 0.30433 0.0
H254 H 0.17261 0.94341 0.27502 0.0
H255 H 0.19951 0.94874 0.32439 0.0
H256 H 0.20997 0.84432 0.22336 0.0
H257 H 0.26254 0.8543 0.34816 0.0
H258 H 0.25389 0.92429 0.17797 0.0
H259 H 0.20139 0.93061 0.19769 0.0
H260 H 0.2152 0.88961 0.17127 0.0
H261 H 0.31648 0.93919 0.32643 0.0
H262 H 0.30543 0.90464 0.36569 0.0
H263 H 0.26829 0.94014 0.35655 0.0
C264 C 0.09434 0.84707 0.74366 0.0
C265 C 0.12197 0.82383 0.765 0.0
C266 C 0.05635 0.83467 0.72663 0.0
C267 C 0.04545 0.79803 0.73073 0.0
C268 C 0.07437 0.77398 0.74962 0.0
C269 C 0.11224 0.78711 0.76635 0.0
C270 C 0.02662 0.86134 0.70661 0.0
C271 C 0.06425 0.73472 0.7546 0.0
C272 C 0.92718 0.78449 0.73673 0.0
C273 C 0.9174 0.77745 0.69409 0.0
C274 C 0.96901 0.78883 0.74965 0.0
C275 C 1.0021 0.78609 0.71917 0.0
C276 C 0.99263 0.77602 0.67682 0.0
C277 C 0.95031 0.77186 0.66473 0.0
C278 C 0.97742 0.79913 0.79523 0.0
C279 C 0.02694 0.77216 0.64353 0.0
H280 H 0.10127 0.87543 0.74201 0.0
H281 H 0.13335 0.76864 0.78211 0.0
H282 H 0.01651 0.85193 0.67488 0.0
H283 H 0.99796 0.86387 0.72692 0.0
H284 H 0.04107 0.88825 0.7027 0.0
H285 H 0.09257 0.71869 0.76261 0.0
H286 H 0.04069 0.73104 0.78066 0.0
H287 H 0.05037 0.72409 0.72498 0.0
H288 H 0.90178 0.78877 0.75952 0.0
H289 H 0.9429 0.76672 0.63167 0.0
H290 H 0.98789 0.82743 0.79617 0.0
H291 H 1.00302 0.7825 0.80872 0.0
H292 H 0.949 0.7962 0.81595 0.0
H293 H 0.03911 0.79903 0.63447 0.0
H294 H 0.0154 0.75892 0.61432 0.0
H295 H 0.05367 0.75651 0.65643 0.0
C296 C 0.76986 0.15257 0.2558 0.0
C297 C 0.76694 0.16575 0.29746 0.0
C298 C 0.7595 0.11705 0.24677 0.0
C299 C 0.74517 0.09418 0.28017 0.0
C300 C 0.73804 0.10836 0.32142 0.0
C301 C 0.74926 0.14406 0.3297 0.0
C302 C 0.76751 0.10325 0.20225 0.0
C303 C 0.7216 0.08518 0.35756 0.0
C304 C 0.71077 1.00333 0.23979 0.0
C305 C 0.74834 0.98374 0.24304 0.0
C306 C 0.70799 0.03861 0.25484 0.0
C307 C 0.74383 0.05484 0.27283 0.0
C308 C 0.78088 0.03438 0.27869 0.0
C309 C 0.78253 0.99905 0.2641 0.0
C310 C 0.66756 0.05915 0.24904 0.0
C311 C 0.81998 0.05061 0.29746 0.0
H312 H 0.78292 0.16952 0.23068 0.0
H313 H 0.74689 0.15415 0.36195 0.0
H314 H 0.79438 0.08428 0.20272 0.0
H315 H 0.73971 0.08848 0.19068 0.0
H316 H 0.77501 0.12513 0.17916 0.0
H317 H 0.70973 0.10145 0.38462 0.0
H318 H 0.69594 0.06752 0.34655 0.0
H319 H 0.74731 0.06777 0.36938 0.0
H320 H 0.68402 0.99167 0.2239 0.0
H321 H 0.81165 0.98419 0.26702 0.0
H322 H 0.67092 0.07761 0.22129 0.0
H323 H 0.66037 0.07559 0.2775 0.0
H324 H 0.64056 0.04105 0.24316 0.0
H325 H 0.83251 0.07162 0.27551 0.0
H326 H 0.84509 0.03043 0.30283 0.0
H327 H 0.81242 0.06357 0.32828 0.0
C328 C 0.91417 0.19936 0.73777 0.0
C329 C 0.89287 0.22226 0.76581 0.0
C330 C 0.95313 0.20929 0.71941 0.0
C331 C 0.97076 0.24316 0.72874 0.0
C332 C 0.94717 0.2677 0.75347 0.0
C333 C 0.90878 0.2568 0.77213 0.0
C334 C 0.97721 0.18216 0.69346 0.0
C335 C 0.96403 0.30439 0.76333 0.0
C336 C 0.08953 0.24318 0.73967 0.0
C337 C 0.10324 0.25602 0.69965 0.0
C338 C 0.04663 0.23986 0.74971 0.0
C339 C 0.01626 0.25018 0.71925 0.0
C340 C 0.02978 0.26536 0.67976 0.0
C341 C 0.07322 0.26799 0.67031 0.0
C342 C 0.03391 0.22373 0.79236 0.0
C343 C 0.99845 0.27739 0.64682 0.0
H344 H 0.90224 0.17254 0.73302 0.0
H345 H 0.89227 0.27473 0.79356 0.0
H346 H 0.99058 0.19472 0.66411 0.0
H347 H 1.00389 0.17176 0.71246 0.0
H348 H 0.95715 0.15922 0.68427 0.0
H349 H 0.93882 0.32255 0.775 0.0
H350 H 0.98822 0.30208 0.78845 0.0
H351 H 0.97926 0.31666 0.73472 0.0
H352 H 0.11263 0.23441 0.76272 0.0
H353 H 0.0836 0.27782 0.63929 0.0
H354 H 0.01631 0.1985 0.78738 0.0
H355 H 0.0127 0.24222 0.80979 0.0
H356 H 0.06142 0.21777 0.81279 0.0
H357 H 0.98319 0.25365 0.63274 0.0
H358 H 0.01359 0.2932 0.62067 0.0
H359 H 0.97329 0.29377 0.66178 0.0
C360 C 0.29532 0.02039 0.7586 0.0
C361 C 0.26132 0.99736 0.75128 0.0
C362 C 0.2953 0.05572 0.74289 0.0
C363 C 0.26028 0.06836 0.71968 0.0
C364 C 0.2277 0.0443 0.70902 0.0
C365 C 0.22873 1.00903 0.72475 0.0
C366 C 0.33109 0.08026 0.75419 0.0
C367 C 0.18977 0.05662 0.6843 0.0
C368 C 0.2213 0.16289 0.73619 0.0
C369 C 0.23046 0.17914 0.69665 0.0
C370 C 0.23246 0.12732 0.74457 0.0
C371 C 0.25398 0.10748 0.71284 0.0
C372 C 0.26604 0.12447 0.67395 0.0
C373 C 0.25398 0.16019 0.66621 0.0
C374 C 0.21906 0.11042 0.7866 0.0
C375 C 0.28966 0.10444 0.63969 0.0
H376 H 0.32092 1.01151 0.77866 0.0
H377 H 0.20246 0.99142 0.71859 0.0
H378 H 0.34006 0.09756 0.7266 0.0
H379 H 0.32096 0.09801 0.78055 0.0
H380 H 0.35923 0.06508 0.76474 0.0
H381 H 0.16995 0.03386 0.67405 0.0
H382 H 0.17025 0.07441 0.70463 0.0
H383 H 0.19961 0.07227 0.65566 0.0
H384 H 0.20385 0.17772 0.76012 0.0
H385 H 0.26112 0.17264 0.6356 0.0
H386 H 0.2465 0.09811 0.80261 0.0
H387 H 0.19595 0.0888 0.78082 0.0
H388 H 0.20444 0.13005 0.80866 0.0
H389 H 0.31573 0.08862 0.65365 0.0
H390 H 0.30278 0.12275 0.61478 0.0
H391 H 0.26806 0.08538 0.62417 0.0
C392 C 0.0748 0.81677 0.30731 0.0
C393 C 0.09633 0.78405 0.30363 0.0
C394 C 0.03308 0.82065 0.29384 0.0
C395 C 0.01133 0.7907 0.27783 0.0
C396 C 0.03136 0.75677 0.27801 0.0
C397 C 0.07378 0.75389 0.29042 0.0
C398 C 0.01358 0.85751 0.29358 0.0
C399 C 0.00884 0.72389 0.26265 0.0
C400 C 0.89438 0.80641 0.25613 0.0
C401 C 0.89516 0.81342 0.2121 0.0
C402 C 0.93158 0.79706 0.27783 0.0
C403 C 0.97055 0.79621 0.25524 0.0
C404 C 0.97124 0.8033 0.21078 0.0
C405 C 0.93361 0.8112 0.1898 0.0
C406 C 0.92927 0.78848 0.32492 0.0
C407 C 0.012 0.80394 0.18544 0.0
H408 H 0.09128 0.84002 0.31899 0.0
H409 H 0.08977 0.72841 0.28766 0.0
H410 H 0.0094 0.86667 0.2601 0.0
H411 H 0.98201 0.85692 0.30895 0.0
H412 H 0.03328 0.87743 0.31022 0.0
H413 H 0.02527 0.69893 0.27234 0.0
H414 H 0.97609 0.72308 0.2753 0.0
H415 H 1.00718 0.72465 0.22732 0.0
H416 H 0.86473 0.80794 0.27345 0.0
H417 H 0.93464 0.81704 0.15584 0.0
H418 H 0.94473 0.80999 0.34313 0.0
H419 H 0.94637 0.76324 0.33186 0.0
H420 H 0.89628 0.78579 0.33661 0.0
H421 H 0.03334 0.82454 0.19846 0.0
H422 H 1.00708 0.8099 0.15106 0.0
H423 H 0.02822 0.77778 0.18825 0.0
C424 C 0.78799 0.99457 0.80138 0.0
C425 C 0.77932 0.02769 0.78199 0.0
C426 C 0.78542 0.96267 0.77854 0.0
C427 C 0.77256 0.96362 0.73543 0.0
C428 C 0.76032 0.99662 0.7167 0.0
C429 C 0.76454 0.02845 0.73999 0.0
C430 C 0.79955 0.92829 0.79976 0.0
C431 C 0.74474 0.99865 0.67146 0.0
C432 C 0.82741 0.89136 0.67285 0.0
C433 C 0.7995 0.86254 0.67817 0.0
C434 C 0.8177 0.92527 0.68868 0.0
C435 C 0.77834 0.93097 0.70905 0.0
C436 C 0.748 0.90315 0.7099 0.0
C437 C 0.75911 0.86898 0.69485 0.0
C438 C 0.85126 0.9539 0.68719 0.0
C439 C 0.70493 0.90869 0.72943 0.0
H440 H 0.79916 0.99361 0.83393 0.0
H441 H 0.7572 0.0539 0.72499 0.0
H442 H 0.77494 0.90746 0.7971 0.0
H443 H 0.82828 0.91819 0.78339 0.0
H444 H 0.80669 0.93187 0.83408 0.0
H445 H 0.72625 0.02342 0.66573 0.0
H446 H 0.77198 0.99879 0.64904 0.0
H447 H 0.72493 0.97513 0.66398 0.0
H448 H 0.85821 0.88676 0.65868 0.0
H449 H 0.73716 0.84694 0.69855 0.0
H450 H 0.86194 0.95946 0.72007 0.0
H451 H 0.83848 0.97916 0.67387 0.0
H452 H 0.87906 0.94593 0.66767 0.0
H453 H 0.70699 0.90687 0.76468 0.0
H454 H 0.68227 0.88812 0.71869 0.0
H455 H 0.69256 0.93561 0.72117 0.0
C456 C 0.932 0.24495 0.31486 0.0
C457 C 0.89883 0.2364 0.28757 0.0
C458 C 0.97437 0.24056 0.30174 0.0
C459 C 0.98379 0.22705 0.26054 0.0
C460 C 0.9504 0.22038 0.23216 0.0
C461 C 0.9086 0.22539 0.24586 0.0
C462 C 0.00898 0.24891 0.33261 0.0
C463 C 0.95863 0.20616 0.18789 0.0
C464 C 0.09179 0.23091 0.2061 0.0
C465 C 0.10663 0.19578 0.21208 0.0
C466 C 0.05306 0.24215 0.2237 0.0
C467 C 0.02802 0.21762 0.24757 0.0
C468 C 0.04366 0.18263 0.25533 0.0
C469 C 0.08278 0.17225 0.23781 0.0
C470 C 0.03807 0.27979 0.21487 0.0
C471 C 0.01788 0.15538 0.28002 0.0
H472 H 0.92486 0.25339 0.34712 0.0
H473 H 0.88323 0.21933 0.22425 0.0
H474 H 0.02424 0.22369 0.34311 0.0
H475 H 0.03355 0.26563 0.3168 0.0
H476 H 0.99698 0.26308 0.36127 0.0
H477 H 0.92954 0.2047 0.16868 0.0
H478 H 0.98174 0.22334 0.17067 0.0
H479 H 0.97245 0.17895 0.1902 0.0
H480 H 0.10989 0.2495 0.18655 0.0
H481 H 0.09357 0.145 0.24245 0.0
H482 H 0.02618 0.29227 0.24464 0.0
H483 H 0.01161 0.27916 0.19213 0.0
H484 H 0.06336 0.29692 0.20091 0.0
H485 H 1.00753 0.16647 0.31111 0.0
H486 H 0.03558 0.13023 0.28598 0.0
H487 H 0.98913 0.14884 0.26189 0.0
C488 C 0.76899 0.49386 0.68857 0.0
C489 C 0.77815 0.5263 0.70834 0.0
C490 C 0.76791 0.46179 0.71192 0.0
C491 C 0.77815 0.46192 0.75581 0.0
C492 C 0.7911 0.49425 0.77501 0.0
C493 C 0.78971 0.52639 0.75129 0.0
C494 C 0.75225 0.42842 0.69031 0.0
C495 C 0.80447 0.49542 0.82099 0.0
C496 C 0.71378 0.39329 0.81601 0.0
C497 C 0.73862 0.36252 0.81119 0.0
C498 C 0.72755 0.42658 0.80078 0.0
C499 C 0.76816 0.42964 0.78215 0.0
C500 C 0.79559 0.39973 0.78256 0.0
C501 C 0.78024 0.3662 0.79645 0.0
C502 C 0.69699 0.45756 0.80095 0.0
C503 C 0.84011 0.40259 0.76574 0.0
H504 H 0.75966 0.49389 0.65538 0.0
H505 H 0.79711 0.55153 0.76644 0.0
H506 H 0.7754 0.40645 0.69374 0.0
H507 H 0.72244 0.41942 0.70579 0.0
H508 H 0.74639 0.43281 0.65577 0.0
H509 H 0.82772 0.51714 0.82591 0.0
H510 H 0.77671 0.50108 0.84159 0.0
H511 H 0.81844 0.46965 0.83155 0.0
H512 H 0.68218 0.39085 0.82914 0.0
H513 H 0.79998 0.34269 0.79338 0.0
H514 H 0.68997 0.46575 0.76764 0.0
H515 H 0.71102 0.48091 0.81697 0.0
H516 H 0.66685 0.45081 0.81744 0.0
H517 H 0.84011 0.40156 0.73039 0.0
H518 H 0.86001 0.38029 0.77771 0.0
H519 H 0.85445 0.42841 0.77501 0.0
C520 C 0.41408 0.28964 0.24523 0.0
C521 C 0.40345 0.27888 0.20395 0.0
C522 C 0.45609 0.29557 0.2566 0.0
C523 C 0.48868 0.29042 0.22606 0.0
C524 C 0.47844 0.2774 0.18509 0.0
C525 C 0.43591 0.27181 0.17448 0.0
C526 C 0.46531 0.30909 0.30077 0.0
C527 C 0.51219 0.27103 0.15181 0.0
C528 C 0.58447 0.34887 0.2458 0.0
C529 C 0.61038 0.32585 0.26958 0.0
C530 C 0.54588 0.3371 0.22943 0.0
C531 C 0.53275 0.30127 0.23652 0.0
C532 C 0.56003 0.27724 0.25781 0.0
C533 C 0.59833 0.28979 0.27419 0.0
C534 C 0.51784 0.36374 0.20703 0.0
C535 C 0.54768 0.23873 0.26562 0.0
H536 H 0.38919 0.2947 0.26835 0.0
H537 H 0.42797 0.26368 0.14246 0.0
H538 H 0.48894 0.29174 0.3165 0.0
H539 H 0.47883 0.33642 0.29853 0.0
H540 H 0.43664 0.31003 0.32134 0.0
H541 H 0.49989 0.25675 0.12365 0.0
H542 H 0.5254 0.29706 0.14088 0.0
H543 H 0.53841 0.25525 0.16555 0.0
H544 H 0.59312 0.37676 0.2419 0.0
H545 H 0.61795 0.27155 0.29222 0.0
H546 H 0.48962 0.36904 0.22719 0.0
H547 H 0.50674 0.35274 0.17641 0.0
H548 H 0.53408 0.38956 0.20047 0.0
H549 H 0.52281 0.23743 0.29072 0.0
H550 H 0.57474 0.22221 0.27624 0.0
H551 H 0.53455 0.22688 0.23632 0.0
C552 C 0.32494 0.62585 0.81304 0.0
C553 C 0.29851 0.65528 0.8055 0.0
C554 C 0.3161 0.59218 0.79615 0.0
C555 C 0.279 0.58733 0.77236 0.0
C556 C 0.24952 0.61573 0.76936 0.0
C557 C 0.25985 0.64965 0.78556 0.0
C558 C 0.34874 0.56298 0.80004 0.0
C559 C 0.20859 0.6111 0.74622 0.0
C560 C 0.29582 0.52577 0.67853 0.0
C561 C 0.28388 0.4924 0.69555 0.0
C562 C 0.29257 0.55701 0.70265 0.0
C563 C 0.27555 0.55525 0.74459 0.0
C564 C 0.26056 0.52204 0.76093 0.0
C565 C 0.26571 0.4908 0.73652 0.0
C566 C 0.30999 0.5915 0.68409 0.0
C567 C 0.24062 0.51914 0.80472 0.0
H568 H 0.35434 0.62987 0.82956 0.0
H569 H 0.23902 0.67214 0.78006 0.0
H570 H 0.33401 0.5377 0.81134 0.0
H571 H 0.36305 0.55785 0.7682 0.0
H572 H 0.37426 0.57014 0.82233 0.0
H573 H 0.18541 0.63207 0.75515 0.0
H574 H 0.21439 0.613 0.7113 0.0
H575 H 0.19475 0.58439 0.7532 0.0
H576 H 0.30992 0.52736 0.6469 0.0
H577 H 0.25599 0.46515 0.74971 0.0
H578 H 0.33673 0.60076 0.7036 0.0
H579 H 0.28564 0.61272 0.68484 0.0
H580 H 0.32122 0.58849 0.65061 0.0
H581 H 0.26558 0.51702 0.82904 0.0
H582 H 0.22036 0.49501 0.80771 0.0
H583 H 0.22141 0.54316 0.81203 0.0
C584 C 0.40381 0.74417 0.25985 0.0
C585 C 0.38616 0.71077 0.25051 0.0
C586 C 0.44324 0.75442 0.24297 0.0
C587 C 0.46613 0.73034 0.21692 0.0
C588 C 0.44709 0.69768 0.20493 0.0
C589 C 0.40715 0.68845 0.22153 0.0
C590 C 0.46171 0.78987 0.25575 0.0
C591 C 0.47042 0.67098 0.17766 0.0
C592 C 0.56931 0.75655 0.16061 0.0
C593 C 0.59921 0.74335 0.18941 0.0
C594 C 0.52579 0.75355 0.16949 0.0
C595 C 0.51189 0.73664 0.20783 0.0
C596 C 0.54201 0.72451 0.23761 0.0
C597 C 0.58505 0.72837 0.22827 0.0
C598 C 0.49474 0.76751 0.13733 0.0
C599 C 0.52885 0.70635 0.27896 0.0
H600 H 0.38767 0.76164 0.28209 0.0
H601 H 0.39399 0.66245 0.21449 0.0
H602 H 0.4861 0.78534 0.28026 0.0
H603 H 0.47712 0.80332 0.22801 0.0
H604 H 0.43742 0.80804 0.26926 0.0
H605 H 0.44959 0.6491 0.16678 0.0
H606 H 0.48473 0.68436 0.14929 0.0
H607 H 0.49638 0.65898 0.19636 0.0
H608 H 0.57983 0.76806 0.13047 0.0
H609 H 0.60783 0.71886 0.25122 0.0
H610 H 0.47081 0.7846 0.15322 0.0
H611 H 0.47783 0.74477 0.12287 0.0
H612 H 0.51033 0.78325 0.1114 0.0
H613 H 0.50842 0.7244 0.29794 0.0
H614 H 0.5562 0.69849 0.29872 0.0
H615 H 0.51026 0.68199 0.2721 0.0
C616 C 0.7248 0.50737 0.22043 0.0
C617 C 0.75764 0.49357 0.24515 0.0
C618 C 0.72599 0.54261 0.20482 0.0
C619 C 0.76114 0.56451 0.21367 0.0
C620 C 0.7962 0.54964 0.23489 0.0
C621 C 0.79397 0.51433 0.2506 0.0
C622 C 0.6879 0.55733 0.18221 0.0
C623 C 0.83466 0.57179 0.24405 0.0
C624 C 0.75516 0.65534 0.15867 0.0
C625 C 0.73336 0.67499 0.18972 0.0
C626 C 0.76762 0.61984 0.16696 0.0
C627 C 0.75766 0.60387 0.20701 0.0
C628 C 0.73885 0.62475 0.23952 0.0
C629 C 0.72716 0.66007 0.2305 0.0
C630 C 0.78858 0.59874 0.13188 0.0
C631 C 0.72783 0.60897 0.28281 0.0
H632 H 0.6968 0.49144 0.21556 0.0
H633 H 0.81974 0.50381 0.26928 0.0
H634 H 0.67152 0.57676 0.20319 0.0
H635 H 0.69748 0.5718 0.15262 0.0
H636 H 0.66523 0.53598 0.17379 0.0
H637 H 0.86219 0.55474 0.2519 0.0
H638 H 0.84297 0.58928 0.21641 0.0
H639 H 0.82802 0.58932 0.27169 0.0
H640 H 0.76001 0.66686 0.12712 0.0
H641 H 0.71084 0.67551 0.2547 0.0
H642 H 0.76507 0.58097 0.11705 0.0
H643 H 0.81399 0.58155 0.14479 0.0
H644 H 0.80203 0.61652 0.1066 0.0
H645 H 0.70261 0.58869 0.27938 0.0
H646 H 0.71665 0.62957 0.30559 0.0
H647 H 0.75549 0.59523 0.29667 0.0
C648 C 0.45147 0.30841 0.67054 0.0
C649 C 0.41281 0.30621 0.69231 0.0
C650 C 0.48948 0.30246 0.69182 0.0
C651 C 0.48871 0.2923 0.73552 0.0
C652 C 0.44947 0.28823 0.75707 0.0
C653 C 0.41195 0.29614 0.73544 0.0
C654 C 0.53042 0.30841 0.66784 0.0
C655 C 0.44719 0.27617 0.80312 0.0
C656 C 0.59389 0.25742 0.77644 0.0
C657 C 0.61041 0.28816 0.79543 0.0
C658 C 0.55324 0.25763 0.75881 0.0
C659 C 0.52902 0.2895 0.75937 0.0
C660 C 0.54485 0.32001 0.78014 0.0
C661 C 0.58474 0.31868 0.79864 0.0
C662 C 0.5369 0.22417 0.73821 0.0
C663 C 0.52076 0.35487 0.78069 0.0
H664 H 0.45207 0.3164 0.63717 0.0
H665 H 0.38195 0.29418 0.75212 0.0
H666 H 0.5512 0.32656 0.68586 0.0
H667 H 0.54719 0.28259 0.66423 0.0
H668 H 0.52551 0.32018 0.6356 0.0
H669 H 0.41448 0.26978 0.81348 0.0
H670 H 0.46717 0.25217 0.80806 0.0
H671 H 0.45944 0.29753 0.82391 0.0
H672 H 0.61323 0.23365 0.77387 0.0
H673 H 0.59649 0.34223 0.81451 0.0
H674 H 0.53745 0.22765 0.70303 0.0
H675 H 0.50378 0.21911 0.74814 0.0
H676 H 0.55615 0.20034 0.74645 0.0
H677 H 0.51625 0.36462 0.74748 0.0
H678 H 0.53722 0.376 0.79877 0.0
H679 H 0.48909 0.35085 0.7951 0.0
C680 C 0.21306 0.51258 0.24143 0.0
C681 C 0.25062 0.53172 0.23471 0.0
C682 C 0.20995 0.47636 0.23009 0.0
C683 C 0.24538 0.45887 0.21215 0.0
C684 C 0.28228 0.47877 0.20255 0.0
C685 C 0.28432 0.51494 0.21368 0.0
C686 C 0.16971 0.45636 0.2399 0.0
C687 C 0.32086 0.46125 0.18341 0.0
C688 C 0.27324 0.36283 0.23679 0.0
C689 C 0.26968 0.3471 0.19655 0.0
C690 C 0.26219 0.39867 0.24318 0.0
C691 C 0.24662 0.41918 0.20858 0.0
C692 C 0.23868 0.40237 0.16916 0.0
C693 C 0.25054 0.36644 0.16349 0.0
C694 C 0.27089 0.41535 0.28592 0.0
C695 C 0.22086 0.423 0.13193 0.0
H696 H 0.18668 0.52533 0.25738 0.0
H697 H 0.31334 0.52952 0.20791 0.0
H698 H 0.16224 0.43738 0.21406 0.0
H699 H 0.17347 0.44058 0.26976 0.0
H700 H 0.14271 0.47488 0.24435 0.0
H701 H 0.34582 0.48096 0.17492 0.0
H702 H 0.33396 0.44169 0.20659 0.0
H703 H 0.31249 0.44632 0.1543 0.0
H704 H 0.28729 0.34768 0.26264 0.0
H705 H 0.24758 0.35437 0.13235 0.0
H706 H 0.24322 0.43078 0.29726 0.0
H707 H 0.29763 0.4343 0.28258 0.0
H708 H 0.27894 0.39503 0.31061 0.0
H709 H 0.19542 0.44128 0.14265 0.0
H710 H 0.20826 0.40489 0.10726 0.0
H711 H 0.24603 0.43963 0.117 0.0
C712 C 0.43128 0.72933 0.74976 0.0
C713 C 0.41976 0.73749 0.7919 0.0
C714 C 0.47364 0.72518 0.73761 0.0
C715 C 0.50558 0.7293 0.76834 0.0
C716 C 0.49433 0.73991 0.81031 0.0
C717 C 0.45147 0.74386 0.82163 0.0
C718 C 0.48396 0.7142 0.69241 0.0
C719 C 0.52735 0.74511 0.84386 0.0
C720 C 0.60271 0.67371 0.74218 0.0
C721 C 0.6279 0.69848 0.71967 0.0
C722 C 0.56397 0.68393 0.76061 0.0
C723 C 0.55007 0.71987 0.7568 0.0
C724 C 0.57689 0.74553 0.73714 0.0
C725 C 0.61536 0.73456 0.71884 0.0
C726 C 0.53651 0.65563 0.7814 0.0
C727 C 0.56374 0.78416 0.73264 0.0
H728 H 0.40682 0.72441 0.7267 0.0
H729 H 0.44271 0.74978 0.85434 0.0
H730 H 0.50847 0.73199 0.67834 0.0
H731 H 0.49679 0.6866 0.6925 0.0
H732 H 0.45592 0.71494 0.67158 0.0
H733 H 0.51427 0.758 0.87292 0.0
H734 H 0.54064 0.71875 0.85313 0.0
H735 H 0.55364 0.76169 0.83108 0.0
H736 H 0.61185 0.64578 0.74306 0.0
H737 H 0.63474 0.75412 0.70215 0.0
H738 H 0.50872 0.65071 0.76115 0.0
H739 H 0.5247 0.66483 0.81287 0.0
H740 H 0.55351 0.62993 0.78594 0.0
H741 H 0.53972 0.78655 0.70735 0.0
H742 H 0.5907 0.80175 0.7238 0.0
H743 H 0.54932 0.79394 0.76275 0.0
C744 C 0.10727 0.01382 0.10142 0.0
C745 C 0.10328 0.05112 0.09971 0.0
C746 C 0.072 0.9917 0.09727 0.0
C747 C 0.03193 1.00742 0.09161 0.0
C748 C 0.02879 0.04477 0.08413 0.0
C749 C 0.06468 0.06634 0.08841 0.0
C750 C 0.07701 0.95189 0.1038 0.0
C751 C 0.98684 0.06233 0.07619 0.0
C752 C 0.93584 0.94627 0.08764 0.0
C753 C 0.92258 0.94678 0.13044 0.0
C754 C 0.97126 0.96613 0.07395 0.0
C755 C 0.99373 0.98659 0.10396 0.0
C756 C 0.98044 0.98671 0.14728 0.0
C757 C 0.94495 0.967 0.15983 0.0
C758 C 0.98349 0.96604 0.02732 0.0
C759 C 1.00374 1.00764 0.18062 0.0
H760 H 0.13742 1.00195 0.1091 0.0
H761 H 0.06174 0.0952 0.08628 0.0
H762 H 0.06549 0.94439 0.13625 0.0
H763 H 0.05796 0.93698 0.08045 0.0
H764 H 0.11039 0.94337 0.10066 0.0
H765 H 0.99057 0.08986 0.06302 0.0
H766 H 0.968 0.04627 0.05376 0.0
H767 H 0.96889 0.06391 0.1067 0.0
H768 H 0.91811 0.93098 0.06477 0.0
H769 H 0.93472 0.96738 0.19295 0.0
H770 H 0.01814 0.96682 0.02267 0.0
H771 H 0.9702 0.99023 0.01178 0.0
H772 H 0.97083 0.94221 0.0109 0.0
H773 H 0.03698 0.99864 0.18196 0.0
H774 H 0.98946 1.00453 0.21297 0.0
H775 H 1.00388 0.0365 0.17204 0.0
C776 C 0.95488 0.0649 0.82781 0.0
C777 C 0.93416 0.08605 0.85809 0.0
C778 C 0.99064 0.04505 0.83838 0.0
C779 C 1.00621 0.04618 0.8805 0.0
C780 C 0.98553 0.06758 0.91141 0.0
C781 C 0.94967 0.08749 0.89975 0.0
C782 C 0.01163 0.02269 0.80428 0.0
C783 C 1.00118 0.06936 0.95661 0.0
C784 C 0.07577 0.96562 0.89841 0.0
C785 C 0.11464 0.97916 0.88432 0.0
C786 C 0.04045 0.98809 0.90175 0.0
C787 C 0.04441 0.02488 0.89099 0.0
C788 C 0.08469 0.0392 0.88138 0.0
C789 C 0.11926 0.01608 0.87778 0.0
C790 C 0.99819 0.97159 0.91214 0.0
C791 C 0.0906 0.07829 0.87038 0.0
H792 H 0.94297 0.0637 0.79558 0.0
H793 H 0.9335 0.10371 0.92327 0.0
H794 H 0.04476 0.03136 0.79956 0.0
H795 H 0.01212 0.99417 0.81439 0.0
H796 H 0.99539 0.0247 0.77314 0.0
H797 H 0.97948 0.08461 0.97768 0.0
H798 H 1.00515 0.04201 0.97005 0.0
H799 H 0.03252 0.0824 0.95688 0.0
H800 H 0.07212 0.93707 0.90368 0.0
H801 H 0.14937 0.02669 0.8671 0.0
H802 H 0.98161 0.96597 0.88197 0.0
H803 H 0.9782 0.99004 0.93103 0.0
H804 H 1.00158 0.94597 0.93003 0.0
H805 H 0.07887 0.08353 0.83769 0.0
H806 H 0.12424 0.08631 0.87135 0.0
H807 H 0.07232 0.09537 0.8926 0.0
C808 C 0.62536 0.51346 0.60855 0.0
C809 C 0.62169 0.5504 0.60169 0.0
C810 C 0.59099 0.49062 0.60269 0.0
C811 C 0.55186 0.50521 0.59017 0.0
C812 C 0.54932 0.54199 0.57892 0.0
C813 C 0.58441 0.56424 0.58483 0.0
C814 C 0.59553 0.45151 0.61419 0.0
C815 C 0.50851 0.5587 0.56485 0.0
C816 C 0.45899 0.4415 0.57648 0.0
C817 C 0.44035 0.44287 0.61721 0.0
C818 C 0.49518 0.46196 0.56661 0.0
C819 C 0.51271 0.48417 0.59825 0.0
C820 C 0.49361 0.48562 0.63924 0.0
C821 C 0.45782 0.465 0.64812 0.0
C822 C 0.51439 0.46009 0.52245 0.0
C823 C 0.51118 0.50878 0.67409 0.0
H824 H 0.6545 0.50257 0.62084 0.0
H825 H 0.58166 0.59277 0.579 0.0
H826 H 0.5808 0.44645 0.64596 0.0
H827 H 0.57918 0.43448 0.59081 0.0
H828 H 0.62907 0.44324 0.6156 0.0
H829 H 0.51419 0.58342 0.54567 0.0
H830 H 0.48964 0.53982 0.54584 0.0
H831 H 0.48964 0.56602 0.59346 0.0
H832 H 0.44528 0.4246 0.55241 0.0
H833 H 0.44345 0.46625 0.67961 0.0
H834 H 0.54856 0.4543 0.52424 0.0
H835 H 0.51102 0.48639 0.50613 0.0
H836 H 0.49925 0.43929 0.50275 0.0
H837 H 0.54384 0.5004 0.68138 0.0
H838 H 0.49215 0.50724 0.70401 0.0
H839 H 0.51237 0.53711 0.66328 0.0
C840 C 0.61076 0.51533 0.38145 0.0
C841 C 0.60628 0.4782 0.38555 0.0
C842 C 0.57566 0.53791 0.38425 0.0
C843 C 0.53523 0.52274 0.39035 0.0
C844 C 0.5314 0.48579 0.40011 0.0
C845 C 0.56721 0.46383 0.39772 0.0
C846 C 0.58133 0.57737 0.37542 0.0
C847 C 0.48892 0.46884 0.40805 0.0
C848 C 0.43773 0.58238 0.38779 0.0
C849 C 0.42648 0.57949 0.34484 0.0
C850 C 0.47325 0.56424 0.40356 0.0
C851 C 0.49776 0.54297 0.37551 0.0
C852 C 0.48669 0.5407 0.33193 0.0
C853 C 0.45115 0.55885 0.31729 0.0
C854 C 0.48338 0.56692 0.45031 0.0
C855 C 0.51213 0.51874 0.30062 0.0
H856 H 0.64115 0.52655 0.37271 0.0
H857 H 0.56383 0.43512 0.40162 0.0
H858 H 0.57253 0.58334 0.34192 0.0
H859 H 0.56058 0.59342 0.39655 0.0
H860 H 0.61446 0.58591 0.37993 0.0
H861 H 0.49169 0.44122 0.42112 0.0
H862 H 0.47 0.48518 0.43055 0.0
H863 H 0.47151 0.46764 0.3776 0.0
H864 H 0.41829 0.59806 0.40924 0.0
H865 H 0.44249 0.55668 0.28404 0.0
H866 H 0.46928 0.59124 0.46474 0.0
H867 H 0.51783 0.56722 0.45564 0.0
H868 H 0.47021 0.54322 0.46732 0.0
H869 H 0.54521 0.52821 0.29963 0.0
H870 H 0.49945 0.52021 0.26777 0.0
H871 H 0.51243 0.49028 0.31099 0.0
C872 C 0.26661 0.0611 0.06238 0.0
C873 C 0.24028 0.08941 0.05011 0.0
C874 C 0.26763 0.02886 0.03953 0.0
C875 C 0.24152 0.02466 0.00356 0.0
C876 C 0.21477 0.05313 -0.00889 0.0
C877 C 0.21466 0.08516 0.01431 0.0
C878 C 0.2967 0.99929 0.0539 0.0
C879 C 0.18586 0.04961 0.95353 0.0
C880 C 0.27136 0.95541 0.91983 0.0
C881 C 0.24503 0.92661 0.93083 0.0
C882 C 0.27063 0.98732 0.94325 0.0
C883 C 0.24268 0.99073 0.97855 0.0
C884 C 0.21586 0.96175 0.98978 0.0
C885 C 0.21759 0.92997 0.96601 0.0
C886 C 0.29983 0.01744 0.93018 0.0
C887 C 0.18497 0.96446 0.02659 0.0
H888 H 0.28668 0.06421 0.08977 0.0
H889 H 0.19384 0.10667 0.00476 0.0
H890 H 0.27831 0.97474 0.06128 0.0
H891 H 0.31918 0.99268 0.02779 0.0
H892 H 0.31483 1.00665 0.08262 0.0
H893 H 0.16705 0.0742 0.94778 0.0
H894 H 0.20443 0.04367 0.92426 0.0
H895 H 0.16395 0.0269 0.95908 0.0
H896 H 0.29296 0.95286 0.89306 0.0
H897 H 0.19681 0.90799 0.97455 0.0
H898 H 0.32049 0.02438 0.95717 0.0
H899 H 0.2813 0.04167 0.92212 0.0
H900 H 0.31989 1.01049 0.9022 0.0
H901 H 0.20183 0.97061 0.05644 0.0
H902 H 0.16665 0.93943 0.03159 0.0
H903 H 0.16264 0.98672 0.02068 0.0
C904 C 0.06767 0.74668 0.89988 0.0
C905 C 0.09976 0.76501 0.921 0.0
C906 C 0.02586 0.74775 0.91496 0.0
C907 C 0.01596 0.76759 0.952 0.0
C908 C 0.04861 0.78439 0.97477 0.0
C909 C 0.09008 0.7828 0.95907 0.0
C910 C 0.99196 0.72921 0.8901 0.0
C911 C 0.03943 0.80595 0.01432 0.0
C912 C 0.91061 0.81394 0.96466 0.0
C913 C 0.89159 0.79389 -0.00231 0.0
C914 C 0.95024 0.8046 0.9481 0.0
C915 C 0.97131 0.77419 0.96461 0.0
C916 C 0.95106 0.7524 -0.00417 0.0
C917 C 0.91147 0.7626 0.01218 0.0
C918 C 0.97073 0.82885 0.91508 0.0
C919 C 0.97221 0.71949 0.01377 0.0
H920 H 0.0748 0.73283 0.87044 0.0
H921 H 0.11464 0.79691 0.97572 0.0
H922 H 0.97441 0.71036 0.91128 0.0
H923 H 0.969 0.74916 0.87813 0.0
H924 H 1.00492 0.7142 0.86248 0.0
H925 H 0.06861 0.81495 0.03019 0.0
H926 H 0.02065 0.82992 0.00566 0.0
H927 H 0.02048 0.79 0.03755 0.0
H928 H 0.89554 0.83811 0.95308 0.0
H929 H 0.89698 0.74684 0.03757 0.0
H930 H 0.98559 0.81307 0.88921 0.0
H931 H 0.99594 0.84459 0.93034 0.0
H932 H 0.9479 0.84782 0.90068 0.0
H933 H 0.98597 0.70315 0.98775 0.0
H934 H 0.95003 0.7026 0.03281 0.0
H935 H 0.99836 0.72764 0.0347 0.0
C936 C 0.74235 0.07662 0.92992 0.0
C937 C 0.77484 0.10075 0.93861 0.0
C938 C 0.73672 0.04543 0.95475 0.0
C939 C 0.76488 0.03784 0.98836 0.0
C940 C 0.79713 0.06257 -0.00216 0.0
C941 C 0.80138 0.09391 0.97317 0.0
C942 C 0.70153 0.02005 0.9441 0.0
C943 C 0.8285 0.05512 0.03269 0.0
C944 C 0.7436 0.96716 0.07421 0.0
C945 C 0.76724 0.93822 0.05883 0.0
C946 C 0.74098 0.99936 0.05078 0.0
C947 C 0.76305 1.00283 0.01141 0.0
C948 C 0.78587 0.97334 -0.00485 0.0
C949 C 0.78739 0.94138 0.01885 0.0
C950 C 0.7157 0.03001 0.06876 0.0
C951 C 0.81039 0.97604 0.95362 0.0
H952 H 0.72167 0.08188 0.90331 0.0
H953 H 0.82679 0.11229 0.97985 0.0
H954 H 0.71487 0.99517 0.93046 0.0
H955 H 0.68366 0.01241 0.97342 0.0
H956 H 0.6794 0.03183 0.92067 0.0
H957 H 0.85057 0.07777 0.03723 0.0
H958 H 0.81191 0.0496 0.06337 0.0
H959 H 0.84712 0.03093 0.02468 0.0
H960 H 0.7278 0.96494 0.10495 0.0
H961 H 0.80584 0.91927 0.00663 0.0
H962 H 0.69398 0.04075 0.04431 0.0
H963 H 0.73714 0.05205 0.07767 0.0
H964 H 0.69707 0.02193 0.09748 0.0
H965 H 0.78954 0.98483 0.9274 0.0
H966 H 0.82517 0.95022 0.94458 0.0
H967 H 0.83555 0.99644 0.95643 0.0
C968 C 0.07653 0.28871 0.07963 0.0
C969 C 0.10714 0.26912 0.05718 0.0
C970 C 0.03477 0.29029 0.06546 0.0
C971 C 0.02344 0.27168 0.02817 0.0
C972 C 0.05493 0.25436 0.0036 0.0
C973 C 0.09643 0.25352 0.01826 0.0
C974 C 1.00222 0.30943 0.09222 0.0
C975 C 0.04425 0.23407 0.96369 0.0
C976 C 0.91718 0.22671 0.02029 0.0
C977 C 0.89809 0.24679 0.98782 0.0
C978 C 0.95719 0.23565 0.03519 0.0
C979 C 0.97838 0.26587 0.01782 0.0
C980 C 0.95791 0.28789 0.98746 0.0
C981 C 0.91812 0.27788 0.97246 0.0
C982 C 0.97803 0.211 0.06709 0.0
C983 C 0.97898 0.32086 0.96908 0.0
H984 H 0.08447 0.30099 0.10968 0.0
H985 H 0.11992 0.23862 0.00046 0.0
H986 H 0.98083 0.32533 0.07171 0.0
H987 H 0.98275 0.28947 0.10991 0.0
H988 H 0.0169 0.32746 0.11578 0.0
H989 H 0.07281 0.22492 0.94617 0.0
H990 H 0.02502 0.21026 0.9724 0.0
H991 H 0.02527 0.25095 0.94192 0.0
H992 H 0.90203 0.20265 0.0324 0.0
H993 H 0.90343 0.29371 0.94759 0.0
H994 H 0.99337 0.22648 0.09255 0.0
H995 H 1.00292 0.19533 0.05062 0.0
H996 H 0.95533 0.19198 0.08214 0.0
H997 H 0.99373 0.33666 -0.00531 0.0
H998 H 0.95645 0.33821 0.95163 0.0
H999 H 1.00434 0.31281 0.94654 0.0
C1000 C 0.7235 0.43683 0.46975 0.0
C1001 C 0.74174 0.43408 0.42886 0.0
C1002 C 0.72407 0.46927 0.49216 0.0
C1003 C 0.74344 0.49981 0.47336 0.0
C1004 C 0.76196 0.4972 0.43218 0.0
C1005 C 0.76103 0.46441 0.41058 0.0
C1006 C 0.7034 0.47101 0.53572 0.0
C1007 C 0.78273 0.52909 0.41082 0.0
C1008 C 0.71374 0.59203 0.51517 0.0
C1009 C 0.74726 0.59942 0.54251 0.0
C1010 C 0.71199 0.55974 0.49258 0.0
C1011 C 0.7448 0.53434 0.49701 0.0
C1012 C 0.77898 0.54194 0.52412 0.0
C1013 C 0.77984 0.57441 0.54637 0.0
C1014 C 0.67499 0.55281 0.46404 0.0
C1015 C 0.81446 0.51557 0.52999 0.0
H1016 H 0.70829 0.4137 0.4842 0.0
H1017 H 0.7754 0.4626 0.37924 0.0
H1018 H 0.72622 0.48057 0.5596 0.0
H1019 H 0.67711 0.4905 0.53497 0.0
H1020 H 0.69081 0.44468 0.54653 0.0
H1021 H 0.79516 0.5228 0.37846 0.0
H1022 H 0.75985 0.55138 0.40797 0.0
H1023 H 0.80906 0.5387 0.43062 0.0
H1024 H 0.68828 0.61115 0.51216 0.0
H1025 H 0.80614 0.58031 0.56685 0.0
H1026 H 0.65992 0.52691 0.47261 0.0
H1027 H 0.68613 0.5509 0.43048 0.0
H1028 H 0.65086 0.57425 0.46599 0.0
H1029 H 0.8019 0.48995 0.54297 0.0
H1030 H 0.83887 0.52558 0.55196 0.0
H1031 H 0.82952 0.50974 0.4987 0.0
C1032 C 0.41404 0.22987 0.51159 0.0
C1033 C 0.38377 0.25282 0.52961 0.0
C1034 C 0.45395 0.24226 0.49921 0.0
C1035 C 0.46484 0.27833 0.50637 0.0
C1036 C 0.43563 0.30114 0.52718 0.0
C1037 C 0.39494 0.2884 0.53734 0.0
C1038 C 0.48371 0.21707 0.47653 0.0
C1039 C 0.44684 0.33931 0.53728 0.0
C1040 C 0.58139 0.29707 0.48614 0.0
C1041 C 0.58047 0.31166 0.44483 0.0
C1042 C 0.54374 0.28822 0.508 0.0
C1043 C 0.5046 0.29277 0.48725 0.0
C1044 C 0.50378 0.30785 0.44565 0.0
C1045 C 0.5416 0.31742 0.42526 0.0
C1046 C 0.54627 0.27334 0.55282 0.0
C1047 C 0.4632 0.31217 0.42148 0.0
H1048 H 0.40611 0.20219 0.50561 0.0
H1049 H 0.37175 0.3066 0.55 0.0
H1050 H 0.49126 0.22769 0.44414 0.0
H1051 H 0.51366 0.21501 0.49415 0.0
H1052 H 0.47037 0.18977 0.47333 0.0
H1053 H 0.42426 0.35115 0.56042 0.0
H1054 H 0.47897 0.34077 0.55068 0.0
H1055 H 0.44658 0.35575 0.50763 0.0
H1056 H 0.61139 0.29309 0.5016 0.0
H1057 H 0.54077 0.32855 0.39318 0.0
H1058 H 0.55017 0.24389 0.55149 0.0
H1059 H 0.51745 0.27922 0.57181 0.0
H1060 H 0.57391 0.28437 0.56964 0.0
H1061 H 0.45194 0.28544 0.41154 0.0
H1062 H 0.4673 0.32925 0.39256 0.0
H1063 H 0.43829 0.32418 0.4418 0.0
C1064 C 0.31312 0.42144 0.49689 0.0
C1065 C 0.28631 0.41616 0.53222 0.0
C1066 C 0.30944 0.45209 0.47077 0.0
C1067 C 0.27757 0.47757 0.47972 0.0
C1068 C 0.24923 0.47142 0.51421 0.0
C1069 C 0.25425 0.44103 0.5403 0.0
C1070 C 0.34094 0.45804 0.43496 0.0
C1071 C 0.21448 0.4976 0.52451 0.0
C1072 C 0.296 0.57481 0.44857 0.0
C1073 C 0.27314 0.57816 0.41067 0.0
C1074 C 0.29801 0.54217 0.47091 0.0
C1075 C 0.27601 0.5121 0.4555 0.0
C1076 C 0.25232 0.51534 0.41761 0.0
C1077 C 0.2514 0.54828 0.39548 0.0
C1078 C 0.32431 0.53975 0.51071 0.0
C1079 C 0.22812 0.48399 0.40038 0.0
H1080 H 0.33821 0.40245 0.49078 0.0
H1081 H 0.23333 0.43695 0.56748 0.0
H1082 H 0.32451 0.46369 0.40461 0.0
H1083 H 0.36062 0.48173 0.442 0.0
H1084 H 0.36199 0.43463 0.43037 0.0
H1085 H 0.19257 0.48717 0.54955 0.0
H1086 H 0.22828 0.52299 0.53588 0.0
H1087 H 0.19622 0.50396 0.49544 0.0
H1088 H 0.31338 0.59753 0.46038 0.0
H1089 H 0.23385 0.55055 0.36613 0.0
H1090 H 0.34853 0.51858 0.50705 0.0
H1091 H 0.30421 0.5322 0.53853 0.0
H1092 H 0.34039 0.56536 0.51783 0.0
H1093 H 0.24996 0.46166 0.39315 0.0
H1094 H 0.21075 0.49101 0.37089 0.0
H1095 H 0.20531 0.47409 0.42482 0.0
C1096 C 0.56397 0.76604 0.57702 0.0
C1097 C 0.60102 0.75907 0.55372 0.0
C1098 C 0.52427 0.76172 0.55851 0.0
C1099 C 0.52163 0.75062 0.51556 0.0
C1100 C 0.55895 0.74637 0.49097 0.0
C1101 C 0.5982 0.75043 0.51042 0.0
C1102 C 0.4853 0.76628 0.58591 0.0
C1103 C 0.55753 0.735 0.4449 0.0
C1104 C 0.43248 0.69023 0.48206 0.0
C1105 C 0.40708 0.71365 0.45845 0.0
C1106 C 0.46896 0.70229 0.502 0.0
C1107 C 0.48064 0.73873 0.49804 0.0
C1108 C 0.45435 0.76286 0.47558 0.0
C1109 C 0.41767 0.75003 0.45613 0.0
C1110 C 0.4958 0.67565 0.526 0.0
C1111 C 0.46589 0.80182 0.47055 0.0
H1112 H 0.56579 0.77258 0.61058 0.0
H1113 H 0.6267 0.74523 0.49217 0.0
H1114 H 0.46128 0.78226 0.5688 0.0
H1115 H 0.47133 0.73964 0.59296 0.0
H1116 H 0.49226 0.77949 0.61663 0.0
H1117 H 0.58869 0.73755 0.42873 0.0
H1118 H 0.54737 0.70665 0.44329 0.0
H1119 H 0.53428 0.75126 0.42707 0.0
H1120 H 0.42438 0.66209 0.4842 0.0
H1121 H 0.39828 0.76819 0.43771 0.0
H1122 H 0.50191 0.68532 0.5587 0.0
H1123 H 0.52671 0.67275 0.50956 0.0
H1124 H 0.48086 0.64882 0.52839 0.0
H1125 H 0.47303 0.81355 0.50202 0.0
H1126 H 0.44041 0.81768 0.45545 0.0
H1127 H 0.49474 0.80432 0.45046 0.0
loop_
_geom_bond_atom_site_label_1
_geom_bond_atom_site_label_2
_geom_bond_distance
_geom_bond_site_symmetry_2
_ccdc_geom_bond_type
O0 Tb1 2.292 . S
O0 C3 1.255 . S
Tb1 O0 2.292 . S
Tb1 O17 2.326 . S
Tb1 O19 2.500 . S
Tb1 O20 2.473 . S
Tb1 O23 2.324 . S
Eu2 O6 2.292 . S
Eu2 C7 2.852 . S
Eu2 O18 2.324 . S
Eu2 O22 2.326 . S
Eu2 O24 2.500 . S
Eu2 O25 2.473 . S
C3 O0 1.255 . S
C3 O4 1.247 . S
O4 C3 1.247 . S
C5 O17 1.242 . S
C5 O18 1.258 . S
O6 Eu2 2.292 . S
O6 C8 1.255 . S
C7 Eu2 2.852 . S
C7 C11 1.503 . S
C7 O24 1.273 . S
C7 O25 1.257 . S
C8 O6 1.255 . S
C8 O9 1.247 . S
O9 C8 1.247 . S
C10 O22 1.242 . S
C10 O23 1.258 . S
C11 C7 1.503 . S
C11 C12 1.379 . S
C11 C16 1.392 . S
C12 C11 1.379 . S
C12 C13 1.404 . S
C12 H26 0.929 . S
C13 C12 1.404 . S
C13 C14 1.389 . S
C14 C13 1.389 . S
C14 C15 1.399 . S
C14 H27 0.931 . S
C15 C14 1.399 . S
C15 C16 1.390 . S
C16 C11 1.392 . S
C16 C15 1.390 . S
C16 H28 0.929 . S
O17 Tb1 2.326 . S
O17 C5 1.242 . S
O18 Eu2 2.324 . S
O18 C5 1.258 . S
O19 Tb1 2.500 . S
O19 C21 1.273 . S
O20 Tb1 2.473 . S
O20 C21 1.257 . S
C21 O19 1.273 . S
C21 O20 1.257 . S
O22 Eu2 2.326 . S
O22 C10 1.242 . S
O23 Tb1 2.324 . S
O23 C10 1.258 . S
O24 Eu2 2.500 . S
O24 C7 1.273 . S
O25 Eu2 2.473 . S
O25 C7 1.257 . S
H26 C12 0.929 . S
H27 C14 0.931 . S
H28 C16 0.929 . S
O29 Tb30 2.292 . S
O29 C32 1.255 . S
Tb30 O29 2.292 . S
Tb30 O46 2.326 . S
Tb30 O48 2.500 . S
Tb30 O49 2.473 . S
Tb30 O52 2.324 . S
Eu31 O35 2.292 . S
Eu31 C36 2.852 . S
Eu31 O47 2.324 . S
Eu31 O51 2.326 . S
Eu31 O53 2.500 . S
Eu31 O54 2.473 . S
C32 O29 1.255 . S
C32 O33 1.247 . S
O33 C32 1.247 . S
C34 O46 1.242 . S
C34 O47 1.258 . S
O35 Eu31 2.292 . S
O35 C37 1.255 . S
C36 Eu31 2.852 . S
C36 C40 1.503 . S
C36 O53 1.273 . S
C36 O54 1.257 . S
C37 O35 1.255 . S
C37 O38 1.247 . S
O38 C37 1.247 . S
C39 O51 1.242 . S
C39 O52 1.258 . S
C40 C36 1.503 . S
C40 C41 1.379 . S
C40 C45 1.392 . S
C41 C40 1.379 . S
C41 C42 1.404 . S
C41 H55 0.929 . S
C42 C41 1.404 . S
C42 C43 1.389 . S
C43 C42 1.389 . S
C43 C44 1.399 . S
C43 H56 0.931 . S
C44 C43 1.399 . S
C44 C45 1.390 . S
C45 C40 1.392 . S
C45 C44 1.390 . S
C45 H57 0.929 . S
O46 Tb30 2.326 . S
O46 C34 1.242 . S
O47 Eu31 2.324 . S
O47 C34 1.258 . S
O48 Tb30 2.500 . S
O48 C50 1.273 . S
O49 Tb30 2.473 . S
O49 C50 1.257 . S
C50 O48 1.273 . S
C50 O49 1.257 . S
O51 Eu31 2.326 . S
O51 C39 1.242 . S
O52 Tb30 2.324 . S
O52 C39 1.258 . S
O53 Eu31 2.500 . S
O53 C36 1.273 . S
O54 Eu31 2.473 . S
O54 C36 1.257 . S
H55 C41 0.929 . S
H56 C43 0.931 . S
H57 C45 0.929 . S
O58 Tb59 2.292 . S
O58 C61 1.255 . S
Tb59 O58 2.292 . S
Tb59 O75 2.326 . S
Tb59 O77 2.500 . S
Tb59 O78 2.473 . S
Tb59 O81 2.324 . S
Eu60 O64 2.292 . S
Eu60 C65 2.852 . S
Eu60 O76 2.324 . S
Eu60 O80 2.326 . S
Eu60 O82 2.500 . S
Eu60 O83 2.473 . S
C61 O58 1.255 . S
C61 O62 1.247 . S
O62 C61 1.247 . S
C63 O75 1.242 . S
C63 O76 1.258 . S
O64 Eu60 2.292 . S
O64 C66 1.255 . S
C65 Eu60 2.852 . S
C65 C69 1.503 . S
C65 O82 1.273 . S
C65 O83 1.257 . S
C66 O64 1.255 . S
C66 O67 1.247 . S
O67 C66 1.247 . S
C68 O80 1.242 . S
C68 O81 1.258 . S
C69 C65 1.503 . S
C69 C70 1.379 . S
C69 C74 1.392 . S
C70 C69 1.379 . S
C70 C71 1.404 . S
C70 H84 0.929 . S
C71 C70 1.404 . S
C71 C72 1.389 . S
C72 C71 1.389 . S
C72 C73 1.399 . S
C72 H85 0.931 . S
C73 C72 1.399 . S
C73 C74 1.390 . S
C74 C69 1.392 . S
C74 C73 1.390 . S
C74 H86 0.929 . S
O75 Tb59 2.326 . S
O75 C63 1.242 . S
O76 Eu60 2.324 . S
O76 C63 1.258 . S
O77 Tb59 2.500 . S
O77 C79 1.273 . S
O78 Tb59 2.473 . S
O78 C79 1.257 . S
C79 O77 1.273 . S
C79 O78 1.257 . S
O80 Eu60 2.326 . S
O80 C68 1.242 . S
O81 Tb59 2.324 . S
O81 C68 1.258 . S
O82 Eu60 2.500 . S
O82 C65 1.273 . S
O83 Eu60 2.473 . S
O83 C65 1.257 . S
H84 C70 0.929 . S
H85 C72 0.931 . S
H86 C74 0.929 . S
O87 Tb88 2.292 . S
O87 C90 1.255 . S
Tb88 O87 2.292 . S
Tb88 O104 2.326 . S
Tb88 O106 2.500 . S
Tb88 O107 2.473 . S
Tb88 O110 2.324 . S
Eu89 O93 2.292 . S
Eu89 C94 2.852 . S
Eu89 O105 2.324 . S
Eu89 O109 2.326 . S
Eu89 O111 2.500 . S
Eu89 O112 2.473 . S
C90 O87 1.255 . S
C90 O91 1.247 . S
O91 C90 1.247 . S
C92 O104 1.242 . S
C92 O105 1.258 . S
O93 Eu89 2.292 . S
O93 C95 1.255 . S
C94 Eu89 2.852 . S
C94 C98 1.503 . S
C94 O111 1.273 . S
C94 O112 1.257 . S
C95 O93 1.255 . S
C95 O96 1.247 . S
O96 C95 1.247 . S
C97 O109 1.242 . S
C97 O110 1.258 . S
C98 C94 1.503 . S
C98 C99 1.379 . S
C98 C103 1.392 . S
C99 C98 1.379 . S
C99 C100 1.404 . S
C99 H113 0.929 . S
C100 C99 1.404 . S
C100 C101 1.389 . S
C101 C100 1.389 . S
C101 C102 1.399 . S
C101 H114 0.931 . S
C102 C101 1.399 . S
C102 C103 1.390 . S
C103 C98 1.392 . S
C103 C102 1.390 . S
C103 H115 0.929 . S
O104 Tb88 2.326 . S
O104 C92 1.242 . S
O105 Eu89 2.324 . S
O105 C92 1.258 . S
O106 Tb88 2.500 . S
O106 C108 1.273 . S
O107 Tb88 2.473 . S
O107 C108 1.257 . S
C108 O106 1.273 . S
C108 O107 1.257 . S
O109 Eu89 2.326 . S
O109 C97 1.242 . S
O110 Tb88 2.324 . S
O110 C97 1.258 . S
O111 Eu89 2.500 . S
O111 C94 1.273 . S
O112 Eu89 2.473 . S
O112 C94 1.257 . S
H113 C99 0.929 . S
H114 C101 0.931 . S
H115 C103 0.929 . S
O116 Tb117 2.292 . S
O116 C119 1.255 . S
Tb117 O116 2.292 . S
Tb117 O133 2.326 . S
Tb117 O135 2.500 . S
Tb117 O136 2.473 . S
Tb117 O139 2.324 . S
Eu118 O122 2.292 . S
Eu118 C123 2.852 . S
Eu118 O134 2.324 . S
Eu118 O138 2.326 . S
Eu118 O140 2.500 . S
Eu118 O141 2.473 . S
C119 O116 1.255 . S
C119 O120 1.247 . S
O120 C119 1.247 . S
C121 O133 1.242 . S
C121 O134 1.258 . S
O122 Eu118 2.292 . S
O122 C124 1.255 . S
C123 Eu118 2.852 . S
C123 C127 1.503 . S
C123 O140 1.273 . S
C123 O141 1.257 . S
C124 O122 1.255 . S
C124 O125 1.247 . S
O125 C124 1.247 . S
C126 O138 1.242 . S
C126 O139 1.258 . S
C127 C123 1.503 . S
C127 C128 1.379 . S
C127 C132 1.392 . S
C128 C127 1.379 . S
C128 C129 1.404 . S
C128 H142 0.929 . S
C129 C128 1.404 . S
C129 C130 1.389 . S
C130 C129 1.389 . S
C130 C131 1.399 . S
C130 H143 0.931 . S
C131 C130 1.399 . S
C131 C132 1.390 . S
C132 C127 1.392 . S
C132 C131 1.390 . S
C132 H144 0.929 . S
O133 Tb117 2.326 . S
O133 C121 1.242 . S
O134 Eu118 2.324 . S
O134 C121 1.258 . S
O135 Tb117 2.500 . S
O135 C137 1.273 . S
O136 Tb117 2.473 . S
O136 C137 1.257 . S
C137 O135 1.273 . S
C137 O136 1.257 . S
O138 Eu118 2.326 . S
O138 C126 1.242 . S
O139 Tb117 2.324 . S
O139 C126 1.258 . S
O140 Eu118 2.500 . S
O140 C123 1.273 . S
O141 Eu118 2.473 . S
O141 C123 1.257 . S
H142 C128 0.929 . S
H143 C130 0.931 . S
H144 C132 0.929 . S
O145 Tb146 2.292 . S
O145 C148 1.255 . S
Tb146 O145 2.292 . S
Tb146 O162 2.326 . S
Tb146 O164 2.500 . S
Tb146 O165 2.473 . S
Tb146 O168 2.324 . S
Eu147 O151 2.292 . S
Eu147 C152 2.852 . S
Eu147 O163 2.324 . S
Eu147 O167 2.326 . S
Eu147 O169 2.500 . S
Eu147 O170 2.473 . S
C148 O145 1.255 . S
C148 O149 1.247 . S
O149 C148 1.247 . S
C150 O162 1.242 . S
C150 O163 1.258 . S
O151 Eu147 2.292 . S
O151 C153 1.255 . S
C152 Eu147 2.852 . S
C152 C156 1.503 . S
C152 O169 1.273 . S
C152 O170 1.257 . S
C153 O151 1.255 . S
C153 O154 1.247 . S
O154 C153 1.247 . S
C155 O167 1.242 . S
C155 O168 1.258 . S
C156 C152 1.503 . S
C156 C157 1.379 . S
C156 C161 1.392 . S
C157 C156 1.379 . S
C157 C158 1.404 . S
C157 H171 0.929 . S
C158 C157 1.404 . S
C158 C159 1.389 . S
C159 C158 1.389 . S
C159 C160 1.399 . S
C159 H172 0.931 . S
C160 C159 1.399 . S
C160 C161 1.390 . S
C161 C156 1.392 . S
C161 C160 1.390 . S
C161 H173 0.929 . S
O162 Tb146 2.326 . S
O162 C150 1.242 . S
O163 Eu147 2.324 . S
O163 C150 1.258 . S
O164 Tb146 2.500 . S
O164 C166 1.273 . S
O165 Tb146 2.473 . S
O165 C166 1.257 . S
C166 O164 1.273 . S
C166 O165 1.257 . S
O167 Eu147 2.326 . S
O167 C155 1.242 . S
O168 Tb146 2.324 . S
O168 C155 1.258 . S
O169 Eu147 2.500 . S
O169 C152 1.273 . S
O170 Eu147 2.473 . S
O170 C152 1.257 . S
H171 C157 0.929 . S
H172 C159 0.931 . S
H173 C161 0.929 . S
O174 Tb175 2.292 . S
O174 C177 1.255 . S
Tb175 O174 2.292 . S
Tb175 O191 2.326 . S
Tb175 O193 2.500 . S
Tb175 O194 2.473 . S
Tb175 O197 2.324 . S
Eu176 O180 2.292 . S
Eu176 C181 2.852 . S
Eu176 O192 2.324 . S
Eu176 O196 2.326 . S
Eu176 O198 2.500 . S
Eu176 O199 2.473 . S
C177 O174 1.255 . S
C177 O178 1.247 . S
O178 C177 1.247 . S
C179 O191 1.242 . S
C179 O192 1.258 . S
O180 Eu176 2.292 . S
O180 C182 1.255 . S
C181 Eu176 2.852 . S
C181 C185 1.503 . S
C181 O198 1.273 . S
C181 O199 1.257 . S
C182 O180 1.255 . S
C182 O183 1.247 . S
O183 C182 1.247 . S
C184 O196 1.242 . S
C184 O197 1.258 . S
C185 C181 1.503 . S
C185 C186 1.379 . S
C185 C190 1.392 . S
C186 C185 1.379 . S
C186 C187 1.404 . S
C186 H200 0.929 . S
C187 C186 1.404 . S
C187 C188 1.389 . S
C188 C187 1.389 . S
C188 C189 1.399 . S
C188 H201 0.931 . S
C189 C188 1.399 . S
C189 C190 1.390 . S
C190 C185 1.392 . S
C190 C189 1.390 . S
C190 H202 0.929 . S
O191 Tb175 2.326 . S
O191 C179 1.242 . S
O192 Eu176 2.324 . S
O192 C179 1.258 . S
O193 Tb175 2.500 . S
O193 C195 1.273 . S
O194 Tb175 2.473 . S
O194 C195 1.257 . S
C195 O193 1.273 . S
C195 O194 1.257 . S
O196 Eu176 2.326 . S
O196 C184 1.242 . S
O197 Tb175 2.324 . S
O197 C184 1.258 . S
O198 Eu176 2.500 . S
O198 C181 1.273 . S
O199 Eu176 2.473 . S
O199 C181 1.257 . S
H200 C186 0.929 . S
H201 C188 0.931 . S
H202 C190 0.929 . S
O203 Tb204 2.292 . S
O203 C206 1.255 . S
Tb204 O203 2.292 . S
Tb204 O220 2.326 . S
Tb204 O222 2.500 . S
Tb204 O223 2.473 . S
Tb204 O226 2.324 . S
Eu205 O209 2.292 . S
Eu205 C210 2.852 . S
Eu205 O221 2.324 . S
Eu205 O225 2.326 . S
Eu205 O227 2.500 . S
Eu205 O228 2.473 . S
C206 O203 1.255 . S
C206 O207 1.247 . S
O207 C206 1.247 . S
C208 O220 1.242 . S
C208 O221 1.258 . S
O209 Eu205 2.292 . S
O209 C211 1.255 . S
C210 Eu205 2.852 . S
C210 C214 1.503 . S
C210 O227 1.273 . S
C210 O228 1.257 . S
C211 O209 1.255 . S
C211 O212 1.247 . S
O212 C211 1.247 . S
C213 O225 1.242 . S
C213 O226 1.258 . S
C214 C210 1.503 . S
C214 C215 1.379 . S
C214 C219 1.392 . S
C215 C214 1.379 . S
C215 C216 1.404 . S
C215 H229 0.929 . S
C216 C215 1.404 . S
C216 C217 1.389 . S
C217 C216 1.389 . S
C217 C218 1.399 . S
C217 H230 0.931 . S
C218 C217 1.399 . S
C218 C219 1.390 . S
C219 C214 1.392 . S
C219 C218 1.390 . S
C219 H231 0.929 . S
O220 Tb204 2.326 . S
O220 C208 1.242 . S
O221 Eu205 2.324 . S
O221 C208 1.258 . S
O222 Tb204 2.500 . S
O222 C224 1.273 . S
O223 Tb204 2.473 . S
O223 C224 1.257 . S
C224 O222 1.273 . S
C224 O223 1.257 . S
O225 Eu205 2.326 . S
O225 C213 1.242 . S
O226 Tb204 2.324 . S
O226 C213 1.258 . S
O227 Eu205 2.500 . S
O227 C210 1.273 . S
O228 Eu205 2.473 . S
O228 C210 1.257 . S
H229 C215 0.929 . S
H230 C217 0.931 . S
H231 C219 0.929 . S
C232 C233 1.391 . S
C232 C234 1.394 1_545 S
C232 H248 0.931 . S
C233 C232 1.391 . S
C233 C237 1.376 . S
C234 C232 1.394 1_565 S
C234 C235 1.369 . S
C234 C238 1.531 . S
C235 C234 1.369 . S
C235 C236 1.410 . S
C235 C243 1.503 . S
C236 C235 1.410 . S
C236 C237 1.392 1_565 S
C236 C239 1.511 . S
C237 C233 1.376 . S
C237 C236 1.392 1_545 S
C237 H249 0.929 . S
C238 C234 1.531 . S
C238 H250 0.960 . S
C238 H251 0.962 . S
C238 H252 0.960 . S
C239 C236 1.511 . S
C239 H253 0.961 . S
C239 H254 0.961 . S
C239 H255 0.961 . S
C240 C241 1.370 . S
C240 C242 1.363 . S
C240 H256 0.931 . S
C241 C240 1.370 . S
C241 C245 1.408 . S
C242 C240 1.363 . S
C242 C243 1.370 . S
C242 C246 1.524 . S
C243 C235 1.503 . S
C243 C242 1.370 . S
C243 C244 1.403 . S
C244 C243 1.403 . S
C244 C245 1.404 . S
C244 C247 1.539 . S
C245 C241 1.408 . S
C245 C244 1.404 . S
C245 H257 0.930 . S
C246 C242 1.524 . S
C246 H258 0.956 . S
C246 H259 0.961 . S
C246 H260 0.961 . S
C247 C244 1.539 . S
C247 H261 0.958 . S
C247 H262 0.961 . S
C247 H263 0.960 . S
H248 C232 0.931 . S
H249 C237 0.929 . S
H250 C238 0.960 . S
H251 C238 0.962 . S
H252 C238 0.960 . S
H253 C239 0.961 . S
H254 C239 0.961 . S
H255 C239 0.961 . S
H256 C240 0.931 . S
H257 C245 0.930 . S
H258 C246 0.956 . S
H259 C246 0.961 . S
H260 C246 0.961 . S
H261 C247 0.958 . S
H262 C247 0.961 . S
H263 C247 0.960 . S
C264 C265 1.391 . S
C264 C266 1.394 1_455 S
C264 H280 0.931 . S
C265 C264 1.391 . S
C265 C269 1.376 . S
C266 C264 1.394 1_655 S
C266 C267 1.369 . S
C266 C270 1.531 . S
C267 C266 1.369 . S
C267 C268 1.410 . S
C267 C275 1.503 . S
C268 C267 1.410 . S
C268 C269 1.392 1_655 S
C268 C271 1.511 . S
C269 C265 1.376 . S
C269 C268 1.392 1_455 S
C269 H281 0.929 . S
C270 C266 1.531 . S
C270 H282 0.960 . S
C270 H283 0.962 . S
C270 H284 0.960 . S
C271 C268 1.511 . S
C271 H285 0.961 . S
C271 H286 0.961 . S
C271 H287 0.961 . S
C272 C273 1.370 . S
C272 C274 1.363 . S
C272 H288 0.931 . S
C273 C272 1.370 . S
C273 C277 1.408 . S
C274 C272 1.363 . S
C274 C275 1.370 . S
C274 C278 1.524 . S
C275 C267 1.503 . S
C275 C274 1.370 . S
C275 C276 1.403 . S
C276 C275 1.403 . S
C276 C277 1.404 . S
C276 C279 1.539 . S
C277 C273 1.408 . S
C277 C276 1.404 . S
C277 H289 0.930 . S
C278 C274 1.524 . S
C278 H290 0.956 . S
C278 H291 0.961 . S
C278 H292 0.961 . S
C279 C276 1.539 . S
C279 H293 0.958 . S
C279 H294 0.961 . S
C279 H295 0.960 . S
H280 C264 0.931 . S
H281 C269 0.929 . S
H282 C270 0.960 . S
H283 C270 0.962 . S
H284 C270 0.960 . S
H285 C271 0.961 . S
H286 C271 0.961 . S
H287 C271 0.961 . S
H288 C272 0.931 . S
H289 C277 0.930 . S
H290 C278 0.956 . S
H291 C278 0.961 . S
H292 C278 0.961 . S
H293 C279 0.958 . S
H294 C279 0.961 . S
H295 C279 0.960 . S
C296 C297 1.391 . S
C296 C298 1.394 . S
C296 H312 0.931 . S
C297 C296 1.391 . S
C297 C301 1.376 . S
C298 C296 1.394 . S
C298 C299 1.369 . S
C298 C302 1.531 . S
C299 C298 1.369 . S
C299 C300 1.410 . S
C299 C307 1.503 . S
C300 C299 1.410 . S
C300 C301 1.392 . S
C300 C303 1.511 . S
C301 C297 1.376 . S
C301 C300 1.392 . S
C301 H313 0.929 . S
C302 C298 1.531 . S
C302 H314 0.960 . S
C302 H315 0.962 . S
C302 H316 0.960 . S
C303 C300 1.511 . S
C303 H317 0.961 . S
C303 H318 0.961 . S
C303 H319 0.961 . S
C304 C305 1.370 . S
C304 C306 1.363 1_565 S
C304 H320 0.931 . S
C305 C304 1.370 . S
C305 C309 1.408 . S
C306 C304 1.363 1_545 S
C306 C307 1.370 . S
C306 C310 1.524 . S
C307 C299 1.503 . S
C307 C306 1.370 . S
C307 C308 1.403 . S
C308 C307 1.403 . S
C308 C309 1.404 1_545 S
C308 C311 1.539 . S
C309 C305 1.408 . S
C309 C308 1.404 1_565 S
C309 H321 0.930 . S
C310 C306 1.524 . S
C310 H322 0.956 . S
C310 H323 0.961 . S
C310 H324 0.961 . S
C311 C308 1.539 . S
C311 H325 0.958 . S
C311 H326 0.961 . S
C311 H327 0.960 . S
H312 C296 0.931 . S
H313 C301 0.929 . S
H314 C302 0.960 . S
H315 C302 0.962 . S
H316 C302 0.960 . S
H317 C303 0.961 . S
H318 C303 0.961 . S
H319 C303 0.961 . S
H320 C304 0.931 . S
H321 C309 0.930 . S
H322 C310 0.956 . S
H323 C310 0.961 . S
H324 C310 0.961 . S
H325 C311 0.958 . S
H326 C311 0.961 . S
H327 C311 0.960 . S
C328 C329 1.391 . S
C328 C330 1.394 1_655 S
C328 H344 0.931 . S
C329 C328 1.391 . S
C329 C333 1.376 . S
C330 C328 1.394 1_455 S
C330 C331 1.369 . S
C330 C334 1.531 . S
C331 C330 1.369 . S
C331 C332 1.410 1_455 S
C331 C339 1.503 . S
C332 C331 1.410 1_655 S
C332 C333 1.392 . S
C332 C335 1.511 1_655 S
C333 C329 1.376 . S
C333 C332 1.392 . S
C333 H345 0.929 . S
C334 C330 1.531 . S
C334 H346 0.960 . S
C334 H347 0.962 . S
C334 H348 0.960 . S
C335 C332 1.511 1_455 S
C335 H349 0.961 1_455 S
C335 H350 0.961 . S
C335 H351 0.962 . S
C336 C337 1.370 . S
C336 C338 1.363 . S
C336 H352 0.931 . S
C337 C336 1.370 . S
C337 C341 1.408 . S
C338 C336 1.363 . S
C338 C339 1.370 . S
C338 C342 1.524 . S
C339 C331 1.503 . S
C339 C338 1.370 . S
C339 C340 1.403 . S
C340 C339 1.403 . S
C340 C341 1.404 . S
C340 C343 1.539 . S
C341 C337 1.408 . S
C341 C340 1.404 . S
C341 H353 0.930 . S
C342 C338 1.524 . S
C342 H354 0.956 . S
C342 H355 0.961 . S
C342 H356 0.961 . S
C343 C340 1.539 . S
C343 H357 0.958 . S
C343 H358 0.961 . S
C343 H359 0.960 . S
H344 C328 0.931 . S
H345 C333 0.929 . S
H346 C334 0.960 . S
H347 C334 0.962 . S
H348 C334 0.960 . S
H349 C335 0.961 1_655 S
H350 C335 0.961 . S
H351 C335 0.962 . S
H352 C336 0.931 . S
H353 C341 0.930 . S
H354 C342 0.956 . S
H355 C342 0.961 . S
H356 C342 0.961 . S
H357 C343 0.958 . S
H358 C343 0.961 . S
H359 C343 0.960 . S
C360 C361 1.391 . S
C360 C362 1.394 1_565 S
C360 H376 0.931 . S
C361 C360 1.391 . S
C361 C365 1.376 . S
C362 C360 1.394 1_545 S
C362 C363 1.369 . S
C362 C366 1.531 . S
C363 C362 1.369 . S
C363 C364 1.410 . S
C363 C371 1.503 . S
C364 C363 1.410 . S
C364 C365 1.392 1_545 S
C364 C367 1.511 . S
C365 C361 1.376 . S
C365 C364 1.392 1_565 S
C365 H377 0.929 . S
C366 C362 1.531 . S
C366 H378 0.960 . S
C366 H379 0.962 . S
C366 H380 0.960 . S
C367 C364 1.511 . S
C367 H381 0.961 . S
C367 H382 0.961 . S
C367 H383 0.961 . S
C368 C369 1.370 . S
C368 C370 1.363 . S
C368 H384 0.931 . S
C369 C368 1.370 . S
C369 C373 1.408 . S
C370 C368 1.363 . S
C370 C371 1.370 . S
C370 C374 1.524 . S
C371 C363 1.503 . S
C371 C370 1.370 . S
C371 C372 1.403 . S
C372 C371 1.403 . S
C372 C373 1.404 . S
C372 C375 1.539 . S
C373 C369 1.408 . S
C373 C372 1.404 . S
C373 H385 0.930 . S
C374 C370 1.524 . S
C374 H386 0.956 . S
C374 H387 0.961 . S
C374 H388 0.961 . S
C375 C372 1.539 . S
C375 H389 0.958 . S
C375 H390 0.961 . S
C375 H391 0.960 . S
H376 C360 0.931 . S
H377 C365 0.929 . S
H378 C366 0.960 . S
H379 C366 0.962 . S
H380 C366 0.960 . S
H381 C367 0.961 . S
H382 C367 0.961 . S
H383 C367 0.961 . S
H384 C368 0.931 . S
H385 C373 0.930 . S
H386 C374 0.956 . S
H387 C374 0.961 . S
H388 C374 0.961 . S
H389 C375 0.958 . S
H390 C375 0.961 . S
H391 C375 0.960 . S
C392 C393 1.391 . S
C392 C394 1.394 . S
C392 H408 0.931 . S
C393 C392 1.391 . S
C393 C397 1.376 . S
C394 C392 1.394 . S
C394 C395 1.369 . S
C394 C398 1.531 . S
C395 C394 1.369 . S
C395 C396 1.410 . S
C395 C403 1.503 . S
C396 C395 1.410 . S
C396 C397 1.392 . S
C396 C399 1.511 . S
C397 C393 1.376 . S
C397 C396 1.392 . S
C397 H409 0.929 . S
C398 C394 1.531 . S
C398 H410 0.960 . S
C398 H411 0.962 . S
C398 H412 0.960 . S
C399 C396 1.511 . S
C399 H413 0.961 . S
C399 H414 0.961 . S
C399 H415 0.961 . S
C400 C401 1.370 . S
C400 C402 1.369 . S
C400 H416 0.931 . S
C401 C400 1.370 . S
C401 C405 1.408 . S
C402 C400 1.369 . S
C402 C403 1.366 1_655 S
C402 C406 1.523 1_655 S
C403 C395 1.503 . S
C403 C402 1.366 1_455 S
C403 C404 1.403 . S
C404 C403 1.403 . S
C404 C405 1.404 1_455 S
C404 C407 1.539 . S
C405 C401 1.408 . S
C405 C404 1.404 1_655 S
C405 H417 0.930 . S
C406 C402 1.523 1_455 S
C406 H418 0.956 . S
C406 H419 0.961 . S
C406 H420 0.961 1_455 S
C407 C404 1.539 . S
C407 H421 0.958 . S
C407 H422 0.961 . S
C407 H423 0.960 . S
H408 C392 0.931 . S
H409 C397 0.929 . S
H410 C398 0.960 . S
H411 C398 0.962 . S
H412 C398 0.960 . S
H413 C399 0.961 . S
H414 C399 0.961 . S
H415 C399 0.961 . S
H416 C400 0.931 . S
H417 C405 0.930 . S
H418 C406 0.956 . S
H419 C406 0.961 . S
H420 C406 0.961 1_655 S
H421 C407 0.958 . S
H422 C407 0.961 . S
H423 C407 0.960 . S
C424 C425 1.391 1_565 S
C424 C426 1.394 . S
C424 H440 0.931 1_565 S
C425 C424 1.391 1_545 S
C425 C429 1.376 . S
C426 C424 1.394 . S
C426 C427 1.369 . S
C426 C430 1.531 . S
C427 C426 1.369 . S
C427 C428 1.410 . S
C427 C435 1.503 . S
C428 C427 1.410 . S
C428 C429 1.392 1_565 S
C428 C431 1.511 . S
C429 C425 1.376 . S
C429 C428 1.392 1_545 S
C429 H441 0.929 . S
C430 C426 1.531 . S
C430 H442 0.960 . S
C430 H443 0.962 . S
C430 H444 0.960 . S
C431 C428 1.511 . S
C431 H445 0.961 . S
C431 H446 0.961 . S
C431 H447 0.961 . S
C432 C433 1.370 . S
C432 C434 1.363 . S
C432 H448 0.931 . S
C433 C432 1.370 . S
C433 C437 1.408 . S
C434 C432 1.363 . S
C434 C435 1.370 . S
C434 C438 1.524 . S
C435 C427 1.503 . S
C435 C434 1.370 . S
C435 C436 1.403 . S
C436 C435 1.403 . S
C436 C437 1.404 . S
C436 C439 1.539 . S
C437 C433 1.408 . S
C437 C436 1.404 . S
C437 H449 0.930 . S
C438 C434 1.524 . S
C438 H450 0.956 . S
C438 H451 0.961 . S
C438 H452 0.961 . S
C439 C436 1.539 . S
C439 H453 0.958 . S
C439 H454 0.961 . S
C439 H455 0.960 . S
H440 C424 0.931 1_545 S
H441 C429 0.929 . S
H442 C430 0.960 . S
H443 C430 0.962 . S
H444 C430 0.960 . S
H445 C431 0.961 . S
H446 C431 0.961 . S
H447 C431 0.961 . S
H448 C432 0.931 . S
H449 C437 0.930 . S
H450 C438 0.956 . S
H451 C438 0.961 . S
H452 C438 0.961 . S
H453 C439 0.958 . S
H454 C439 0.961 . S
H455 C439 0.960 . S
C456 C457 1.391 . S
C456 C458 1.394 . S
C456 H472 0.931 . S
C457 C456 1.391 . S
C457 C461 1.376 . S
C458 C456 1.394 . S
C458 C459 1.369 . S
C458 C462 1.531 . S
C459 C458 1.369 . S
C459 C460 1.410 . S
C459 C467 1.503 . S
C460 C459 1.410 . S
C460 C461 1.392 . S
C460 C463 1.511 . S
C461 C457 1.376 . S
C461 C460 1.392 . S
C461 H473 0.929 . S
C462 C458 1.531 . S
C462 H474 0.960 . S
C462 H475 0.962 . S
C462 H476 0.960 . S
C463 C460 1.511 . S
C463 H477 0.961 . S
C463 H478 0.961 . S
C463 H479 0.961 . S
C464 C465 1.370 . S
C464 C466 1.363 1_455 S
C464 H480 0.931 . S
C465 C464 1.370 . S
C465 C469 1.408 . S
C466 C464 1.363 1_655 S
C466 C467 1.370 . S
C466 C470 1.524 . S
C467 C459 1.503 . S
C467 C466 1.370 . S
C467 C468 1.403 . S
C468 C467 1.403 . S
C468 C469 1.404 1_655 S
C468 C471 1.539 . S
C469 C465 1.408 . S
C469 C468 1.404 1_455 S
C469 H481 0.930 . S
C470 C466 1.524 . S
C470 H482 0.956 . S
C470 H483 0.961 . S
C470 H484 0.961 . S
C471 C468 1.539 . S
C471 H485 0.958 . S
C471 H486 0.961 . S
C471 H487 0.960 . S
H472 C456 0.931 . S
H473 C461 0.929 . S
H474 C462 0.960 . S
H475 C462 0.962 . S
H476 C462 0.960 . S
H477 C463 0.961 . S
H478 C463 0.961 . S
H479 C463 0.961 . S
H480 C464 0.931 . S
H481 C469 0.930 . S
H482 C470 0.956 . S
H483 C470 0.961 . S
H484 C470 0.961 . S
H485 C471 0.958 . S
H486 C471 0.961 . S
H487 C471 0.960 . S
C488 C489 1.391 . S
C488 C490 1.394 . S
C488 H504 0.931 . S
C489 C488 1.391 . S
C489 C493 1.376 . S
C490 C488 1.394 . S
C490 C491 1.369 . S
C490 C494 1.531 . S
C491 C490 1.369 . S
C491 C492 1.410 . S
C491 C499 1.503 . S
C492 C491 1.410 . S
C492 C493 1.392 . S
C492 C495 1.511 . S
C493 C489 1.376 . S
C493 C492 1.392 . S
C493 H505 0.929 . S
C494 C490 1.531 . S
C494 H506 0.960 . S
C494 H507 0.962 . S
C494 H508 0.960 . S
C495 C492 1.511 . S
C495 H509 0.961 . S
C495 H510 0.961 . S
C495 H511 0.961 . S
C496 C497 1.370 . S
C496 C498 1.363 . S
C496 H512 0.931 . S
C497 C496 1.370 . S
C497 C501 1.408 . S
C498 C496 1.363 . S
C498 C499 1.370 . S
C498 C502 1.524 . S
C499 C491 1.503 . S
C499 C498 1.370 . S
C499 C500 1.403 . S
C500 C499 1.403 . S
C500 C501 1.404 . S
C500 C503 1.539 . S
C501 C497 1.408 . S
C501 C500 1.404 . S
C501 H513 0.930 . S
C502 C498 1.524 . S
C502 H514 0.956 . S
C502 H515 0.961 . S
C502 H516 0.961 . S
C503 C500 1.539 . S
C503 H517 0.958 . S
C503 H518 0.961 . S
C503 H519 0.960 . S
H504 C488 0.931 . S
H505 C493 0.929 . S
H506 C494 0.960 . S
H507 C494 0.962 . S
H508 C494 0.960 . S
H509 C495 0.961 . S
H510 C495 0.961 . S
H511 C495 0.961 . S
H512 C496 0.931 . S
H513 C501 0.930 . S
H514 C502 0.956 . S
H515 C502 0.961 . S
H516 C502 0.961 . S
H517 C503 0.958 . S
H518 C503 0.961 . S
H519 C503 0.960 . S
C520 C521 1.391 . S
C520 C522 1.394 . S
C520 H536 0.931 . S
C521 C520 1.391 . S
C521 C525 1.376 . S
C522 C520 1.394 . S
C522 C523 1.369 . S
C522 C526 1.531 . S
C523 C522 1.369 . S
C523 C524 1.410 . S
C523 C531 1.503 . S
C524 C523 1.410 . S
C524 C525 1.392 . S
C524 C527 1.511 . S
C525 C521 1.376 . S
C525 C524 1.392 . S
C525 H537 0.929 . S
C526 C522 1.531 . S
C526 H538 0.960 . S
C526 H539 0.962 . S
C526 H540 0.960 . S
C527 C524 1.511 . S
C527 H541 0.961 . S
C527 H542 0.961 . S
C527 H543 0.961 . S
C528 C529 1.370 . S
C528 C530 1.363 . S
C528 H544 0.931 . S
C529 C528 1.370 . S
C529 C533 1.408 . S
C530 C528 1.363 . S
C530 C531 1.370 . S
C530 C534 1.524 . S
C531 C523 1.503 . S
C531 C530 1.370 . S
C531 C532 1.403 . S
C532 C531 1.403 . S
C532 C533 1.404 . S
C532 C535 1.539 . S
C533 C529 1.408 . S
C533 C532 1.404 . S
C533 H545 0.930 . S
C534 C530 1.524 . S
C534 H546 0.956 . S
C534 H547 0.961 . S
C534 H548 0.961 . S
C535 C532 1.539 . S
C535 H549 0.958 . S
C535 H550 0.961 . S
C535 H551 0.960 . S
H536 C520 0.931 . S
H537 C525 0.929 . S
H538 C526 0.960 . S
H539 C526 0.962 . S
H540 C526 0.960 . S
H541 C527 0.961 . S
H542 C527 0.961 . S
H543 C527 0.961 . S
H544 C528 0.931 . S
H545 C533 0.930 . S
H546 C534 0.956 . S
H547 C534 0.961 . S
H548 C534 0.961 . S
H549 C535 0.958 . S
H550 C535 0.961 . S
H551 C535 0.960 . S
C552 C553 1.391 . S
C552 C554 1.394 . S
C552 H568 0.931 . S
C553 C552 1.391 . S
C553 C557 1.376 . S
C554 C552 1.394 . S
C554 C555 1.369 . S
C554 C558 1.531 . S
C555 C554 1.369 . S
C555 C556 1.410 . S
C555 C563 1.503 . S
C556 C555 1.410 . S
C556 C557 1.392 . S
C556 C559 1.511 . S
C557 C553 1.376 . S
C557 C556 1.392 . S
C557 H569 0.929 . S
C558 C554 1.531 . S
C558 H570 0.960 . S
C558 H571 0.962 . S
C558 H572 0.960 . S
C559 C556 1.511 . S
C559 H573 0.961 . S
C559 H574 0.961 . S
C559 H575 0.961 . S
C560 C561 1.370 . S
C560 C562 1.363 . S
C560 H576 0.931 . S
C561 C560 1.370 . S
C561 C565 1.408 . S
C562 C560 1.363 . S
C562 C563 1.370 . S
C562 C566 1.524 . S
C563 C555 1.503 . S
C563 C562 1.370 . S
C563 C564 1.403 . S
C564 C563 1.403 . S
C564 C565 1.404 . S
C564 C567 1.539 . S
C565 C561 1.408 . S
C565 C564 1.404 . S
C565 H577 0.930 . S
C566 C562 1.524 . S
C566 H578 0.956 . S
C566 H579 0.961 . S
C566 H580 0.961 . S
C567 C564 1.539 . S
C567 H581 0.958 . S
C567 H582 0.961 . S
C567 H583 0.960 . S
H568 C552 0.931 . S
H569 C557 0.929 . S
H570 C558 0.960 . S
H571 C558 0.962 . S
H572 C558 0.960 . S
H573 C559 0.961 . S
H574 C559 0.961 . S
H575 C559 0.961 . S
H576 C560 0.931 . S
H577 C565 0.930 . S
H578 C566 0.956 . S
H579 C566 0.961 . S
H580 C566 0.961 . S
H581 C567 0.958 . S
H582 C567 0.961 . S
H583 C567 0.960 . S
C584 C585 1.391 . S
C584 C586 1.394 . S
C584 H600 0.931 . S
C585 C584 1.391 . S
C585 C589 1.376 . S
C586 C584 1.394 . S
C586 C587 1.369 . S
C586 C590 1.531 . S
C587 C586 1.369 . S
C587 C588 1.410 . S
C587 C595 1.503 . S
C588 C587 1.410 . S
C588 C589 1.392 . S
C588 C591 1.511 . S
C589 C585 1.376 . S
C589 C588 1.392 . S
C589 H601 0.929 . S
C590 C586 1.531 . S
C590 H602 0.960 . S
C590 H603 0.962 . S
C590 H604 0.960 . S
C591 C588 1.511 . S
C591 H605 0.961 . S
C591 H606 0.961 . S
C591 H607 0.961 . S
C592 C593 1.370 . S
C592 C594 1.363 . S
C592 H608 0.931 . S
C593 C592 1.370 . S
C593 C597 1.408 . S
C594 C592 1.363 . S
C594 C595 1.370 . S
C594 C598 1.524 . S
C595 C587 1.503 . S
C595 C594 1.370 . S
C595 C596 1.403 . S
C596 C595 1.403 . S
C596 C597 1.404 . S
C596 C599 1.539 . S
C597 C593 1.408 . S
C597 C596 1.404 . S
C597 H609 0.930 . S
C598 C594 1.524 . S
C598 H610 0.956 . S
C598 H611 0.961 . S
C598 H612 0.961 . S
C599 C596 1.539 . S
C599 H613 0.958 . S
C599 H614 0.961 . S
C599 H615 0.960 . S
H600 C584 0.931 . S
H601 C589 0.929 . S
H602 C590 0.960 . S
H603 C590 0.962 . S
H604 C590 0.960 . S
H605 C591 0.961 . S
H606 C591 0.961 . S
H607 C591 0.961 . S
H608 C592 0.931 . S
H609 C597 0.930 . S
H610 C598 0.956 . S
H611 C598 0.961 . S
H612 C598 0.961 . S
H613 C599 0.958 . S
H614 C599 0.961 . S
H615 C599 0.960 . S
C616 C617 1.391 . S
C616 C618 1.394 . S
C616 H632 0.931 . S
C617 C616 1.391 . S
C617 C621 1.376 . S
C618 C616 1.394 . S
C618 C619 1.369 . S
C618 C622 1.531 . S
C619 C618 1.369 . S
C619 C620 1.410 . S
C619 C627 1.503 . S
C620 C619 1.410 . S
C620 C621 1.392 . S
C620 C623 1.511 . S
C621 C617 1.376 . S
C621 C620 1.392 . S
C621 H633 0.929 . S
C622 C618 1.531 . S
C622 H634 0.960 . S
C622 H635 0.962 . S
C622 H636 0.960 . S
C623 C620 1.511 . S
C623 H637 0.961 . S
C623 H638 0.961 . S
C623 H639 0.961 . S
C624 C625 1.370 . S
C624 C626 1.363 . S
C624 H640 0.931 . S
C625 C624 1.370 . S
C625 C629 1.408 . S
C626 C624 1.363 . S
C626 C627 1.370 . S
C626 C630 1.524 . S
C627 C619 1.503 . S
C627 C626 1.370 . S
C627 C628 1.403 . S
C628 C627 1.403 . S
C628 C629 1.404 . S
C628 C631 1.539 . S
C629 C625 1.408 . S
C629 C628 1.404 . S
C629 H641 0.930 . S
C630 C626 1.524 . S
C630 H642 0.956 . S
C630 H643 0.961 . S
C630 H644 0.961 . S
C631 C628 1.539 . S
C631 H645 0.958 . S
C631 H646 0.961 . S
C631 H647 0.960 . S
H632 C616 0.931 . S
H633 C621 0.929 . S
H634 C622 0.960 . S
H635 C622 0.962 . S
H636 C622 0.960 . S
H637 C623 0.961 . S
H638 C623 0.961 . S
H639 C623 0.961 . S
H640 C624 0.931 . S
H641 C629 0.930 . S
H642 C630 0.956 . S
H643 C630 0.961 . S
H644 C630 0.961 . S
H645 C631 0.958 . S
H646 C631 0.961 . S
H647 C631 0.960 . S
C648 C649 1.391 . S
C648 C650 1.394 . S
C648 H664 0.931 . S
C649 C648 1.391 . S
C649 C653 1.376 . S
C650 C648 1.394 . S
C650 C651 1.369 . S
C650 C654 1.531 . S
C651 C650 1.369 . S
C651 C652 1.410 . S
C651 C659 1.503 . S
C652 C651 1.410 . S
C652 C653 1.392 . S
C652 C655 1.511 . S
C653 C649 1.376 . S
C653 C652 1.392 . S
C653 H665 0.929 . S
C654 C650 1.531 . S
C654 H666 0.960 . S
C654 H667 0.962 . S
C654 H668 0.960 . S
C655 C652 1.511 . S
C655 H669 0.961 . S
C655 H670 0.961 . S
C655 H671 0.961 . S
C656 C657 1.370 . S
C656 C658 1.363 . S
C656 H672 0.931 . S
C657 C656 1.370 . S
C657 C661 1.408 . S
C658 C656 1.363 . S
C658 C659 1.370 . S
C658 C662 1.524 . S
C659 C651 1.503 . S
C659 C658 1.370 . S
C659 C660 1.403 . S
C660 C659 1.403 . S
C660 C661 1.404 . S
C660 C663 1.539 . S
C661 C657 1.408 . S
C661 C660 1.404 . S
C661 H673 0.930 . S
C662 C658 1.524 . S
C662 H674 0.956 . S
C662 H675 0.961 . S
C662 H676 0.961 . S
C663 C660 1.539 . S
C663 H677 0.958 . S
C663 H678 0.961 . S
C663 H679 0.960 . S
H664 C648 0.931 . S
H665 C653 0.929 . S
H666 C654 0.960 . S
H667 C654 0.962 . S
H668 C654 0.960 . S
H669 C655 0.961 . S
H670 C655 0.961 . S
H671 C655 0.961 . S
H672 C656 0.931 . S
H673 C661 0.930 . S
H674 C662 0.956 . S
H675 C662 0.961 . S
H676 C662 0.961 . S
H677 C663 0.958 . S
H678 C663 0.961 . S
H679 C663 0.960 . S
C680 C681 1.391 . S
C680 C682 1.394 . S
C680 H696 0.931 . S
C681 C680 1.391 . S
C681 C685 1.376 . S
C682 C680 1.394 . S
C682 C683 1.369 . S
C682 C686 1.531 . S
C683 C682 1.369 . S
C683 C684 1.410 . S
C683 C691 1.503 . S
C684 C683 1.410 . S
C684 C685 1.392 . S
C684 C687 1.511 . S
C685 C681 1.376 . S
C685 C684 1.392 . S
C685 H697 0.929 . S
C686 C682 1.531 . S
C686 H698 0.960 . S
C686 H699 0.962 . S
C686 H700 0.960 . S
C687 C684 1.511 . S
C687 H701 0.961 . S
C687 H702 0.961 . S
C687 H703 0.961 . S
C688 C689 1.370 . S
C688 C690 1.363 . S
C688 H704 0.931 . S
C689 C688 1.370 . S
C689 C693 1.408 . S
C690 C688 1.363 . S
C690 C691 1.370 . S
C690 C694 1.524 . S
C691 C683 1.503 . S
C691 C690 1.370 . S
C691 C692 1.403 . S
C692 C691 1.403 . S
C692 C693 1.404 . S
C692 C695 1.539 . S
C693 C689 1.408 . S
C693 C692 1.404 . S
C693 H705 0.930 . S
C694 C690 1.524 . S
C694 H706 0.956 . S
C694 H707 0.961 . S
C694 H708 0.961 . S
C695 C692 1.539 . S
C695 H709 0.958 . S
C695 H710 0.961 . S
C695 H711 0.960 . S
H696 C680 0.931 . S
H697 C685 0.929 . S
H698 C686 0.960 . S
H699 C686 0.962 . S
H700 C686 0.960 . S
H701 C687 0.961 . S
H702 C687 0.961 . S
H703 C687 0.961 . S
H704 C688 0.931 . S
H705 C693 0.930 . S
H706 C694 0.956 . S
H707 C694 0.961 . S
H708 C694 0.961 . S
H709 C695 0.958 . S
H710 C695 0.961 . S
H711 C695 0.960 . S
C712 C713 1.391 . S
C712 C714 1.394 . S
C712 H728 0.931 . S
C713 C712 1.391 . S
C713 C717 1.376 . S
C714 C712 1.394 . S
C714 C715 1.369 . S
C714 C718 1.531 . S
C715 C714 1.369 . S
C715 C716 1.410 . S
C715 C723 1.503 . S
C716 C715 1.410 . S
C716 C717 1.392 . S
C716 C719 1.511 . S
C717 C713 1.376 . S
C717 C716 1.392 . S
C717 H729 0.929 . S
C718 C714 1.531 . S
C718 H730 0.960 . S
C718 H731 0.962 . S
C718 H732 0.960 . S
C719 C716 1.511 . S
C719 H733 0.961 . S
C719 H734 0.961 . S
C719 H735 0.961 . S
C720 C721 1.370 . S
C720 C722 1.363 . S
C720 H736 0.931 . S
C721 C720 1.370 . S
C721 C725 1.408 . S
C722 C720 1.363 . S
C722 C723 1.370 . S
C722 C726 1.524 . S
C723 C715 1.503 . S
C723 C722 1.370 . S
C723 C724 1.403 . S
C724 C723 1.403 . S
C724 C725 1.404 . S
C724 C727 1.539 . S
C725 C721 1.408 . S
C725 C724 1.404 . S
C725 H737 0.930 . S
C726 C722 1.524 . S
C726 H738 0.956 . S
C726 H739 0.961 . S
C726 H740 0.961 . S
C727 C724 1.539 . S
C727 H741 0.958 . S
C727 H742 0.961 . S
C727 H743 0.960 . S
H728 C712 0.931 . S
H729 C717 0.929 . S
H730 C718 0.960 . S
H731 C718 0.962 . S
H732 C718 0.960 . S
H733 C719 0.961 . S
H734 C719 0.961 . S
H735 C719 0.961 . S
H736 C720 0.931 . S
H737 C725 0.930 . S
H738 C726 0.956 . S
H739 C726 0.961 . S
H740 C726 0.961 . S
H741 C727 0.958 . S
H742 C727 0.961 . S
H743 C727 0.960 . S
C744 C745 1.391 . S
C744 C746 1.394 . S
C744 H760 0.931 . S
C745 C744 1.391 . S
C745 C749 1.376 . S
C746 C744 1.394 . S
C746 C747 1.369 . S
C746 C750 1.531 1_545 S
C747 C746 1.369 . S
C747 C748 1.410 . S
C747 C755 1.503 1_445 S
C748 C747 1.410 . S
C748 C749 1.392 . S
C748 C751 1.511 1_455 S
C749 C745 1.376 . S
C749 C748 1.392 . S
C749 H761 0.929 . S
C750 C746 1.531 1_565 S
C750 H762 0.960 . S
C750 H763 0.962 . S
C750 H764 0.960 . S
C751 C748 1.511 1_655 S
C751 H765 0.961 . S
C751 H766 0.961 . S
C751 H767 0.961 . S
C752 C753 1.370 . S
C752 C754 1.363 . S
C752 H768 0.931 . S
C753 C752 1.370 . S
C753 C757 1.408 . S
C754 C752 1.363 . S
C754 C755 1.370 . S
C754 C758 1.524 . S
C755 C747 1.503 1_665 S
C755 C754 1.370 . S
C755 C756 1.403 . S
C756 C755 1.403 . S
C756 C757 1.404 . S
C756 C759 1.539 . S
C757 C753 1.408 . S
C757 C756 1.404 . S
C757 H769 0.930 . S
C758 C754 1.524 . S
C758 H770 0.956 1_655 S
C758 H771 0.961 1_565 S
C758 H772 0.961 . S
C759 C756 1.539 . S
C759 H773 0.958 1_655 S
C759 H774 0.961 . S
C759 H775 0.960 1_565 S
H760 C744 0.931 . S
H761 C749 0.929 . S
H762 C750 0.960 . S
H763 C750 0.962 . S
H764 C750 0.960 . S
H765 C751 0.961 . S
H766 C751 0.961 . S
H767 C751 0.961 . S
H768 C752 0.931 . S
H769 C757 0.930 . S
H770 C758 0.956 1_455 S
H771 C758 0.961 1_545 S
H772 C758 0.961 . S
H773 C759 0.958 1_455 S
H774 C759 0.961 . S
H775 C759 0.960 1_545 S
C776 C777 1.391 . S
C776 C778 1.394 . S
C776 H792 0.931 . S
C777 C776 1.391 . S
C777 C781 1.376 . S
C778 C776 1.394 . S
C778 C779 1.369 . S
C778 C782 1.531 1_655 S
C779 C778 1.369 . S
C779 C780 1.410 . S
C779 C787 1.503 1_645 S
C780 C779 1.410 . S
C780 C781 1.392 . S
C780 C783 1.511 . S
C781 C777 1.376 . S
C781 C780 1.392 . S
C781 H793 0.929 . S
C782 C778 1.531 1_455 S
C782 H794 0.960 . S
C782 H795 0.962 1_455 S
C782 H796 0.960 . S
C783 C780 1.511 . S
C783 H797 0.961 . S
C783 H798 0.961 1_545 S
C783 H799 0.961 . S
C784 C785 1.370 . S
C784 C786 1.363 . S
C784 H800 0.931 . S
C785 C784 1.370 . S
C785 C789 1.408 . S
C786 C784 1.363 . S
C786 C787 1.370 . S
C786 C790 1.524 1_455 S
C787 C779 1.503 1_465 S
C787 C786 1.370 . S
C787 C788 1.403 . S
C788 C787 1.403 . S
C788 C789 1.404 . S
C788 C791 1.539 1_565 S
C789 C785 1.408 . S
C789 C788 1.404 . S
C789 H801 0.930 . S
C790 C786 1.524 1_655 S
C790 H802 0.956 . S
C790 H803 0.961 . S
C790 H804 0.961 . S
C791 C788 1.539 1_545 S
C791 H805 0.958 . S
C791 H806 0.961 . S
C791 H807 0.960 . S
H792 C776 0.931 . S
H793 C781 0.929 . S
H794 C782 0.960 . S
H795 C782 0.962 1_655 S
H796 C782 0.960 . S
H797 C783 0.961 . S
H798 C783 0.961 1_565 S
H799 C783 0.961 . S
H800 C784 0.931 . S
H801 C789 0.930 . S
H802 C790 0.956 . S
H803 C790 0.961 . S
H804 C790 0.961 . S
H805 C791 0.958 . S
H806 C791 0.961 . S
H807 C791 0.960 . S
C808 C809 1.391 . S
C808 C810 1.394 . S
C808 H824 0.931 . S
C809 C808 1.391 . S
C809 C813 1.376 . S
C810 C808 1.394 . S
C810 C811 1.369 . S
C810 C814 1.531 . S
C811 C810 1.369 . S
C811 C812 1.410 . S
C811 C819 1.503 . S
C812 C811 1.410 . S
C812 C813 1.392 . S
C812 C815 1.511 . S
C813 C809 1.376 . S
C813 C812 1.392 . S
C813 H825 0.929 . S
C814 C810 1.531 . S
C814 H826 0.960 . S
C814 H827 0.962 . S
C814 H828 0.960 . S
C815 C812 1.511 . S
C815 H829 0.961 . S
C815 H830 0.961 . S
C815 H831 0.961 . S
C816 C817 1.370 . S
C816 C818 1.363 . S
C816 H832 0.931 . S
C817 C816 1.370 . S
C817 C821 1.408 . S
C818 C816 1.363 . S
C818 C819 1.370 . S
C818 C822 1.524 . S
C819 C811 1.503 . S
C819 C818 1.370 . S
C819 C820 1.403 . S
C820 C819 1.403 . S
C820 C821 1.404 . S
C820 C823 1.539 . S
C821 C817 1.408 . S
C821 C820 1.404 . S
C821 H833 0.930 . S
C822 C818 1.524 . S
C822 H834 0.956 . S
C822 H835 0.961 . S
C822 H836 0.961 . S
C823 C820 1.539 . S
C823 H837 0.958 . S
C823 H838 0.961 . S
C823 H839 0.960 . S
H824 C808 0.931 . S
H825 C813 0.929 . S
H826 C814 0.960 . S
H827 C814 0.962 . S
H828 C814 0.960 . S
H829 C815 0.961 . S
H830 C815 0.961 . S
H831 C815 0.961 . S
H832 C816 0.931 . S
H833 C821 0.930 . S
H834 C822 0.956 . S
H835 C822 0.961 . S
H836 C822 0.961 . S
H837 C823 0.958 . S
H838 C823 0.961 . S
H839 C823 0.960 . S
C840 C841 1.391 . S
C840 C842 1.394 . S
C840 H856 0.931 . S
C841 C840 1.391 . S
C841 C845 1.376 . S
C842 C840 1.394 . S
C842 C843 1.369 . S
C842 C846 1.531 . S
C843 C842 1.369 . S
C843 C844 1.410 . S
C843 C851 1.503 . S
C844 C843 1.410 . S
C844 C845 1.392 . S
C844 C847 1.511 . S
C845 C841 1.376 . S
C845 C844 1.392 . S
C845 H857 0.929 . S
C846 C842 1.531 . S
C846 H858 0.960 . S
C846 H859 0.962 . S
C846 H860 0.960 . S
C847 C844 1.511 . S
C847 H861 0.961 . S
C847 H862 0.961 . S
C847 H863 0.961 . S
C848 C849 1.370 . S
C848 C850 1.363 . S
C848 H864 0.931 . S
C849 C848 1.370 . S
C849 C853 1.408 . S
C850 C848 1.363 . S
C850 C851 1.370 . S
C850 C854 1.524 . S
C851 C843 1.503 . S
C851 C850 1.370 . S
C851 C852 1.403 . S
C852 C851 1.403 . S
C852 C853 1.404 . S
C852 C855 1.539 . S
C853 C849 1.408 . S
C853 C852 1.404 . S
C853 H865 0.930 . S
C854 C850 1.524 . S
C854 H866 0.956 . S
C854 H867 0.961 . S
C854 H868 0.961 . S
C855 C852 1.539 . S
C855 H869 0.958 . S
C855 H870 0.961 . S
C855 H871 0.960 . S
H856 C840 0.931 . S
H857 C845 0.929 . S
H858 C846 0.960 . S
H859 C846 0.962 . S
H860 C846 0.960 . S
H861 C847 0.961 . S
H862 C847 0.961 . S
H863 C847 0.961 . S
H864 C848 0.931 . S
H865 C853 0.930 . S
H866 C854 0.956 . S
H867 C854 0.961 . S
H868 C854 0.961 . S
H869 C855 0.958 . S
H870 C855 0.961 . S
H871 C855 0.960 . S
C872 C873 1.391 . S
C872 C874 1.394 . S
C872 H888 0.931 . S
C873 C872 1.391 . S
C873 C877 1.376 . S
C874 C872 1.394 . S
C874 C875 1.369 . S
C874 C878 1.531 1_545 S
C875 C874 1.369 . S
C875 C876 1.410 . S
C875 C883 1.503 1_544 S
C876 C875 1.410 . S
C876 C877 1.392 . S
C876 C879 1.511 1_554 S
C877 C873 1.376 . S
C877 C876 1.392 . S
C877 H889 0.929 . S
C878 C874 1.531 1_565 S
C878 H890 0.960 . S
C878 H891 0.962 . S
C878 H892 0.960 . S
C879 C876 1.511 1_556 S
C879 H893 0.961 . S
C879 H894 0.961 . S
C879 H895 0.961 . S
C880 C881 1.370 . S
C880 C882 1.363 . S
C880 H896 0.931 . S
C881 C880 1.370 . S
C881 C885 1.408 . S
C882 C880 1.363 . S
C882 C883 1.370 . S
C882 C886 1.524 1_565 S
C883 C875 1.503 1_566 S
C883 C882 1.370 . S
C883 C884 1.403 . S
C884 C883 1.403 . S
C884 C885 1.404 . S
C884 C887 1.539 1_556 S
C885 C881 1.408 . S
C885 C884 1.404 . S
C885 H897 0.930 . S
C886 C882 1.524 1_545 S
C886 H898 0.956 . S
C886 H899 0.961 . S
C886 H900 0.961 . S
C887 C884 1.539 1_554 S
C887 H901 0.958 . S
C887 H902 0.961 . S
C887 H903 0.960 . S
H888 C872 0.931 . S
H889 C877 0.929 . S
H890 C878 0.960 . S
H891 C878 0.962 . S
H892 C878 0.960 . S
H893 C879 0.961 . S
H894 C879 0.961 . S
H895 C879 0.961 . S
H896 C880 0.931 . S
H897 C885 0.930 . S
H898 C886 0.956 . S
H899 C886 0.961 . S
H900 C886 0.961 . S
H901 C887 0.958 . S
H902 C887 0.961 . S
H903 C887 0.960 . S
C904 C905 1.391 . S
C904 C906 1.394 . S
C904 H920 0.931 . S
C905 C904 1.391 . S
C905 C909 1.376 . S
C906 C904 1.394 . S
C906 C907 1.369 . S
C906 C910 1.531 1_455 S
C907 C906 1.369 . S
C907 C908 1.410 . S
C907 C915 1.503 1_456 S
C908 C907 1.410 . S
C908 C909 1.392 . S
C908 C911 1.511 1_556 S
C909 C905 1.376 . S
C909 C908 1.392 . S
C909 H921 0.929 . S
C910 C906 1.531 1_655 S
C910 H922 0.960 . S
C910 H923 0.962 . S
C910 H924 0.960 . S
C911 C908 1.511 1_554 S
C911 H925 0.961 . S
C911 H926 0.961 . S
C911 H927 0.961 . S
C912 C913 1.370 . S
C912 C914 1.363 . S
C912 H928 0.931 . S
C913 C912 1.370 . S
C913 C917 1.408 . S
C914 C912 1.363 . S
C914 C915 1.370 . S
C914 C918 1.524 1_554 S
C915 C907 1.503 1_654 S
C915 C914 1.370 . S
C915 C916 1.403 . S
C916 C915 1.403 . S
C916 C917 1.404 . S
C916 C919 1.539 1_655 S
C917 C913 1.408 . S
C917 C916 1.404 . S
C917 H929 0.930 . S
C918 C914 1.524 1_556 S
C918 H930 0.956 . S
C918 H931 0.961 . S
C918 H932 0.961 . S
C919 C916 1.539 1_455 S
C919 H933 0.958 . S
C919 H934 0.961 . S
C919 H935 0.960 . S
H920 C904 0.931 . S
H921 C909 0.929 . S
H922 C910 0.960 . S
H923 C910 0.962 . S
H924 C910 0.960 . S
H925 C911 0.961 . S
H926 C911 0.961 . S
H927 C911 0.961 . S
H928 C912 0.931 . S
H929 C917 0.930 . S
H930 C918 0.956 . S
H931 C918 0.961 . S
H932 C918 0.961 . S
H933 C919 0.958 . S
H934 C919 0.961 . S
H935 C919 0.960 . S
C936 C937 1.391 . S
C936 C938 1.394 . S
C936 H952 0.931 . S
C937 C936 1.391 . S
C937 C941 1.376 . S
C938 C936 1.394 . S
C938 C939 1.369 . S
C938 C942 1.531 1_545 S
C939 C938 1.369 . S
C939 C940 1.410 . S
C939 C947 1.503 1_546 S
C940 C939 1.410 . S
C940 C941 1.392 . S
C940 C943 1.511 . S
C941 C937 1.376 . S
C941 C940 1.392 . S
C941 H953 0.929 . S
C942 C938 1.531 1_565 S
C942 H954 0.960 . S
C942 H955 0.962 1_565 S
C942 H956 0.958 1_565 S
C943 C940 1.511 . S
C943 H957 0.961 1_556 S
C943 H958 0.961 1_556 S
C943 H959 0.961 . S
C944 C945 1.370 . S
C944 C946 1.363 . S
C944 H960 0.931 . S
C945 C944 1.370 . S
C945 C949 1.408 . S
C946 C944 1.363 . S
C946 C947 1.370 . S
C946 C950 1.524 1_565 S
C947 C939 1.503 1_564 S
C947 C946 1.370 . S
C947 C948 1.403 1_554 S
C948 C947 1.403 1_556 S
C948 C949 1.404 1_556 S
C948 C951 1.539 . S
C949 C945 1.408 . S
C949 C948 1.404 1_554 S
C949 H961 0.930 . S
C950 C946 1.524 1_545 S
C950 H962 0.956 . S
C950 H963 0.961 . S
C950 H964 0.961 . S
C951 C948 1.539 . S
C951 H965 0.958 . S
C951 H966 0.961 . S
C951 H967 0.960 . S
H952 C936 0.931 . S
H953 C941 0.929 . S
H954 C942 0.960 . S
H955 C942 0.962 1_545 S
H956 C942 0.958 1_545 S
H957 C943 0.961 1_554 S
H958 C943 0.961 1_554 S
H959 C943 0.961 . S
H960 C944 0.931 . S
H961 C949 0.930 . S
H962 C950 0.956 . S
H963 C950 0.961 . S
H964 C950 0.961 . S
H965 C951 0.958 . S
H966 C951 0.961 . S
H967 C951 0.960 . S
C968 C969 1.391 . S
C968 C970 1.394 . S
C968 H984 0.931 . S
C969 C968 1.391 . S
C969 C973 1.376 . S
C970 C968 1.394 . S
C970 C971 1.369 . S
C970 C974 1.531 1_455 S
C971 C970 1.369 . S
C971 C972 1.410 . S
C971 C979 1.503 1_454 S
C972 C971 1.410 . S
C972 C973 1.392 . S
C972 C975 1.511 1_554 S
C973 C969 1.376 . S
C973 C972 1.392 . S
C973 H985 0.929 . S
C974 C970 1.531 1_655 S
C974 H986 0.960 . S
C974 H987 0.962 . S
C974 H988 0.960 . S
C975 C972 1.511 1_556 S
C975 H989 0.961 . S
C975 H990 0.961 . S
C975 H991 0.961 . S
C976 C977 1.370 . S
C976 C978 1.363 . S
C976 H992 0.931 . S
C977 C976 1.370 . S
C977 C981 1.408 . S
C978 C976 1.363 . S
C978 C979 1.370 . S
C978 C982 1.524 1_556 S
C979 C971 1.503 1_656 S
C979 C978 1.370 . S
C979 C980 1.403 . S
C980 C979 1.403 . S
C980 C981 1.404 . S
C980 C983 1.539 1_655 S
C981 C977 1.408 . S
C981 C980 1.404 . S
C981 H993 0.930 . S
C982 C978 1.524 1_554 S
C982 H994 0.956 . S
C982 H995 0.961 . S
C982 H996 0.961 . S
C983 C980 1.539 1_455 S
C983 H997 0.958 . S
C983 H998 0.961 . S
C983 H999 0.960 . S
H984 C968 0.931 . S
H985 C973 0.929 . S
H986 C974 0.960 . S
H987 C974 0.962 . S
H988 C974 0.960 . S
H989 C975 0.961 . S
H990 C975 0.961 . S
H991 C975 0.961 . S
H992 C976 0.931 . S
H993 C981 0.930 . S
H994 C982 0.956 . S
H995 C982 0.961 . S
H996 C982 0.961 . S
H997 C983 0.958 . S
H998 C983 0.961 . S
H999 C983 0.960 . S
C1000 C1001 1.391 . S
C1000 C1002 1.394 . S
C1000 H1016 0.931 . S
C1001 C1000 1.391 . S
C1001 C1005 1.376 . S
C1002 C1000 1.394 . S
C1002 C1003 1.369 . S
C1002 C1006 1.531 . S
C1003 C1002 1.369 . S
C1003 C1004 1.410 . S
C1003 C1011 1.503 . S
C1004 C1003 1.410 . S
C1004 C1005 1.392 . S
C1004 C1007 1.511 . S
C1005 C1001 1.376 . S
C1005 C1004 1.392 . S
C1005 H1017 0.929 . S
C1006 C1002 1.531 . S
C1006 H1018 0.960 . S
C1006 H1019 0.962 . S
C1006 H1020 0.960 . S
C1007 C1004 1.511 . S
C1007 H1021 0.961 . S
C1007 H1022 0.961 . S
C1007 H1023 0.961 . S
C1008 C1009 1.370 . S
C1008 C1010 1.363 . S
C1008 H1024 0.931 . S
C1009 C1008 1.370 . S
C1009 C1013 1.408 . S
C1010 C1008 1.363 . S
C1010 C1011 1.370 . S
C1010 C1014 1.524 . S
C1011 C1003 1.503 . S
C1011 C1010 1.370 . S
C1011 C1012 1.403 . S
C1012 C1011 1.403 . S
C1012 C1013 1.404 . S
C1012 C1015 1.539 . S
C1013 C1009 1.408 . S
C1013 C1012 1.404 . S
C1013 H1025 0.930 . S
C1014 C1010 1.524 . S
C1014 H1026 0.956 . S
C1014 H1027 0.961 . S
C1014 H1028 0.961 . S
C1015 C1012 1.539 . S
C1015 H1029 0.958 . S
C1015 H1030 0.961 . S
C1015 H1031 0.960 . S
H1016 C1000 0.931 . S
H1017 C1005 0.929 . S
H1018 C1006 0.960 . S
H1019 C1006 0.962 . S
H1020 C1006 0.960 . S
H1021 C1007 0.961 . S
H1022 C1007 0.961 . S
H1023 C1007 0.961 . S
H1024 C1008 0.931 . S
H1025 C1013 0.930 . S
H1026 C1014 0.956 . S
H1027 C1014 0.961 . S
H1028 C1014 0.961 . S
H1029 C1015 0.958 . S
H1030 C1015 0.961 . S
H1031 C1015 0.960 . S
C1032 C1033 1.391 . S
C1032 C1034 1.394 . S
C1032 H1048 0.931 . S
C1033 C1032 1.391 . S
C1033 C1037 1.376 . S
C1034 C1032 1.394 . S
C1034 C1035 1.369 . S
C1034 C1038 1.531 . S
C1035 C1034 1.369 . S
C1035 C1036 1.410 . S
C1035 C1043 1.503 . S
C1036 C1035 1.410 . S
C1036 C1037 1.392 . S
C1036 C1039 1.511 . S
C1037 C1033 1.376 . S
C1037 C1036 1.392 . S
C1037 H1049 0.929 . S
C1038 C1034 1.531 . S
C1038 H1050 0.960 . S
C1038 H1051 0.962 . S
C1038 H1052 0.960 . S
C1039 C1036 1.511 . S
C1039 H1053 0.961 . S
C1039 H1054 0.961 . S
C1039 H1055 0.961 . S
C1040 C1041 1.370 . S
C1040 C1042 1.363 . S
C1040 H1056 0.931 . S
C1041 C1040 1.370 . S
C1041 C1045 1.408 . S
C1042 C1040 1.363 . S
C1042 C1043 1.370 . S
C1042 C1046 1.524 . S
C1043 C1035 1.503 . S
C1043 C1042 1.370 . S
C1043 C1044 1.403 . S
C1044 C1043 1.403 . S
C1044 C1045 1.404 . S
C1044 C1047 1.539 . S
C1045 C1041 1.408 . S
C1045 C1044 1.404 . S
C1045 H1057 0.930 . S
C1046 C1042 1.524 . S
C1046 H1058 0.956 . S
C1046 H1059 0.961 . S
C1046 H1060 0.961 . S
C1047 C1044 1.539 . S
C1047 H1061 0.958 . S
C1047 H1062 0.961 . S
C1047 H1063 0.960 . S
H1048 C1032 0.931 . S
H1049 C1037 0.929 . S
H1050 C1038 0.960 . S
H1051 C1038 0.962 . S
H1052 C1038 0.960 . S
H1053 C1039 0.961 . S
H1054 C1039 0.961 . S
H1055 C1039 0.961 . S
H1056 C1040 0.931 . S
H1057 C1045 0.930 . S
H1058 C1046 0.956 . S
H1059 C1046 0.961 . S
H1060 C1046 0.961 . S
H1061 C1047 0.958 . S
H1062 C1047 0.961 . S
H1063 C1047 0.960 . S
C1064 C1065 1.391 . S
C1064 C1066 1.394 . S
C1064 H1080 0.931 . S
C1065 C1064 1.391 . S
C1065 C1069 1.376 . S
C1066 C1064 1.394 . S
C1066 C1067 1.369 . S
C1066 C1070 1.531 . S
C1067 C1066 1.369 . S
C1067 C1068 1.410 . S
C1067 C1075 1.503 . S
C1068 C1067 1.410 . S
C1068 C1069 1.392 . S
C1068 C1071 1.511 . S
C1069 C1065 1.376 . S
C1069 C1068 1.392 . S
C1069 H1081 0.929 . S
C1070 C1066 1.531 . S
C1070 H1082 0.960 . S
C1070 H1083 0.962 . S
C1070 H1084 0.960 . S
C1071 C1068 1.511 . S
C1071 H1085 0.961 . S
C1071 H1086 0.961 . S
C1071 H1087 0.961 . S
C1072 C1073 1.370 . S
C1072 C1074 1.363 . S
C1072 H1088 0.931 . S
C1073 C1072 1.370 . S
C1073 C1077 1.408 . S
C1074 C1072 1.363 . S
C1074 C1075 1.370 . S
C1074 C1078 1.524 . S
C1075 C1067 1.503 . S
C1075 C1074 1.370 . S
C1075 C1076 1.403 . S
C1076 C1075 1.403 . S
C1076 C1077 1.404 . S
C1076 C1079 1.539 . S
C1077 C1073 1.408 . S
C1077 C1076 1.404 . S
C1077 H1089 0.930 . S
C1078 C1074 1.524 . S
C1078 H1090 0.956 . S
C1078 H1091 0.961 . S
C1078 H1092 0.961 . S
C1079 C1076 1.539 . S
C1079 H1093 0.958 . S
C1079 H1094 0.961 . S
C1079 H1095 0.960 . S
H1080 C1064 0.931 . S
H1081 C1069 0.929 . S
H1082 C1070 0.960 . S
H1083 C1070 0.962 . S
H1084 C1070 0.960 . S
H1085 C1071 0.961 . S
H1086 C1071 0.961 . S
H1087 C1071 0.961 . S
H1088 C1072 0.931 . S
H1089 C1077 0.930 . S
H1090 C1078 0.956 . S
H1091 C1078 0.961 . S
H1092 C1078 0.961 . S
H1093 C1079 0.958 . S
H1094 C1079 0.961 . S
H1095 C1079 0.960 . S
C1096 C1097 1.391 . S
C1096 C1098 1.394 . S
C1096 H1112 0.931 . S
C1097 C1096 1.391 . S
C1097 C1101 1.376 . S
C1098 C1096 1.394 . S
C1098 C1099 1.369 . S
C1098 C1102 1.531 . S
C1099 C1098 1.369 . S
C1099 C1100 1.410 . S
C1099 C1107 1.503 . S
C1100 C1099 1.410 . S
C1100 C1101 1.392 . S
C1100 C1103 1.511 . S
C1101 C1097 1.376 . S
C1101 C1100 1.392 . S
C1101 H1113 0.929 . S
C1102 C1098 1.531 . S
C1102 H1114 0.960 . S
C1102 H1115 0.962 . S
C1102 H1116 0.960 . S
C1103 C1100 1.511 . S
C1103 H1117 0.961 . S
C1103 H1118 0.961 . S
C1103 H1119 0.961 . S
C1104 C1105 1.370 . S
C1104 C1106 1.363 . S
C1104 H1120 0.931 . S
C1105 C1104 1.370 . S
C1105 C1109 1.408 . S
C1106 C1104 1.363 . S
C1106 C1107 1.370 . S
C1106 C1110 1.524 . S
C1107 C1099 1.503 . S
C1107 C1106 1.370 . S
C1107 C1108 1.403 . S
C1108 C1107 1.403 . S
C1108 C1109 1.404 . S
C1108 C1111 1.539 . S
C1109 C1105 1.408 . S
C1109 C1108 1.404 . S
C1109 H1121 0.930 . S
C1110 C1106 1.524 . S
C1110 H1122 0.956 . S
C1110 H1123 0.961 . S
C1110 H1124 0.961 . S
C1111 C1108 1.539 . S
C1111 H1125 0.958 . S
C1111 H1126 0.961 . S
C1111 H1127 0.960 . S
H1112 C1096 0.931 . S
H1113 C1101 0.929 . S
H1114 C1102 0.960 . S
H1115 C1102 0.962 . S
H1116 C1102 0.960 . S
H1117 C1103 0.961 . S
H1118 C1103 0.961 . S
H1119 C1103 0.961 . S
H1120 C1104 0.931 . S
H1121 C1109 0.930 . S
H1122 C1110 0.956 . S
H1123 C1110 0.961 . S
H1124 C1110 0.961 . S
H1125 C1111 0.958 . S
H1126 C1111 0.961 . S
H1127 C1111 0.960 . S
C233 C3 1.763 . S
C241 C218 1.790 . S
C265 C39 2.104 . S
C273 C129 2.081 . S
C297 C160 1.777 . S
C305 C61 1.770 . S
C329 C97 2.079 . S
C337 C187 2.072 . S
C361 C32 1.772 . S
C369 C189 1.792 . S
C393 C216 2.082 . S
C401 C68 2.091 . S
C425 C90 1.791 . S
C433 C131 1.786 . S
C457 C158 2.049 . S
C465 C10 2.089 . S
C489 C119 1.792 . S
C497 C102 1.788 . S
C521 C13 2.104 . S
C529 C155 2.110 . S
C553 C44 1.798 . S
C561 C177 1.781 . S
C585 C213 2.103 . S
C593 C71 2.095 . S
C617 C148 1.786 . S
C625 C73 1.783 . S
C649 C184 2.067 . S
C657 C100 2.071 . S
C681 C206 1.763 . S
C689 C15 1.790 . S
C713 C42 2.087 . S
C721 C126 2.107 . S
C745 C21 0.366 . S
C753 C79 0.431 . S
C777 C108 0.523 . S
C785 C50 0.495 . S
C809 C137 0.373 . S
C817 C195 0.434 . S
C841 C166 0.373 . S
C849 C224 0.434 . S
C873 C5 1.553 . S
C881 C34 1.562 . S
C905 C37 1.169 . S
C913 C66 1.127 . S
C937 C92 1.577 . S
C945 C63 1.565 . S
C969 C8 1.169 . S
C977 C95 1.127 . S
C1001 C150 1.586 . S
C1009 C121 1.589 . S
C1033 C182 1.088 . S
C1041 C153 1.094 . S
C1065 C179 1.587 . S
C1073 C208 1.589 . S
C1097 C124 1.180 . S
C1105 C211 1.132 . S
