# Generated by pormake.
# Topology smc, (6)-cn, num edge types: 1
# Building blocks:
#     Node 0, Type 0, BuildingBlock: BETDAH_clean_sbu_0, # of connection points: 6
#     Node 1, Type 0, BuildingBlock: BETDAH_clean_sbu_0, # of connection points: 6
#     Node 2, Type 0, BuildingBlock: BETDAH_clean_sbu_0, # of connection points: 6
#     Node 3, Type 0, BuildingBlock: BETDAH_clean_sbu_0, # of connection points: 6
#     Node 4, Type 0, BuildingBlock: BETDAH_clean_sbu_0, # of connection points: 6
#     Node 5, Type 0, BuildingBlock: BETDAH_clean_sbu_0, # of connection points: 6
#     Node 6, Type 0, BuildingBlock: BETDAH_clean_sbu_0, # of connection points: 6
#     Node 7, Type 0, BuildingBlock: BETDAH_clean_sbu_0, # of connection points: 6
#     Node 8, Type 0, BuildingBlock: BETDAH_clean_sbu_0, # of connection points: 6
#     Edge 9, Type (0, 0), BuildingBlock: EZIPEK_clean_linker_0, # of connection points: 2
#     Edge 10, Type (0, 0), BuildingBlock: EZIPEK_clean_linker_0, # of connection points: 2
#     Edge 11, Type (0, 0), BuildingBlock: EZIPEK_clean_linker_0, # of connection points: 2
#     Edge 12, Type (0, 0), BuildingBlock: EZIPEK_clean_linker_0, # of connection points: 2
#     Edge 13, Type (0, 0), BuildingBlock: EZIPEK_clean_linker_0, # of connection points: 2
#     Edge 14, Type (0, 0), BuildingBlock: EZIPEK_clean_linker_0, # of connection points: 2
#     Edge 15, Type (0, 0), BuildingBlock: EZIPEK_clean_linker_0, # of connection points: 2
#     Edge 16, Type (0, 0), BuildingBlock: EZIPEK_clean_linker_0, # of connection points: 2
#     Edge 17, Type (0, 0), BuildingBlock: EZIPEK_clean_linker_0, # of connection points: 2
#     Edge 18, Type (0, 0), BuildingBlock: EZIPEK_clean_linker_0, # of connection points: 2
#     Edge 19, Type (0, 0), BuildingBlock: EZIPEK_clean_linker_0, # of connection points: 2
#     Edge 20, Type (0, 0), BuildingBlock: EZIPEK_clean_linker_0, # of connection points: 2
#     Edge 21, Type (0, 0), BuildingBlock: EZIPEK_clean_linker_0, # of connection points: 2
#     Edge 22, Type (0, 0), BuildingBlock: EZIPEK_clean_linker_0, # of connection points: 2
#     Edge 23, Type (0, 0), BuildingBlock: EZIPEK_clean_linker_0, # of connection points: 2
#     Edge 24, Type (0, 0), BuildingBlock: EZIPEK_clean_linker_0, # of connection points: 2
#     Edge 25, Type (0, 0), BuildingBlock: EZIPEK_clean_linker_0, # of connection points: 2
#     Edge 26, Type (0, 0), BuildingBlock: EZIPEK_clean_linker_0, # of connection points: 2
#     Edge 27, Type (0, 0), BuildingBlock: EZIPEK_clean_linker_0, # of connection points: 2
#     Edge 28, Type (0, 0), BuildingBlock: EZIPEK_clean_linker_0, # of connection points: 2
#     Edge 29, Type (0, 0), BuildingBlock: EZIPEK_clean_linker_0, # of connection points: 2
#     Edge 30, Type (0, 0), BuildingBlock: EZIPEK_clean_linker_0, # of connection points: 2
#     Edge 31, Type (0, 0), BuildingBlock: EZIPEK_clean_linker_0, # of connection points: 2
#     Edge 32, Type (0, 0), BuildingBlock: EZIPEK_clean_linker_0, # of connection points: 2
#     Edge 33, Type (0, 0), BuildingBlock: EZIPEK_clean_linker_0, # of connection points: 2
#     Edge 34, Type (0, 0), BuildingBlock: EZIPEK_clean_linker_0, # of connection points: 2
#     Edge 35, Type (0, 0), BuildingBlock: EZIPEK_clean_linker_0, # of connection points: 2
# Relax obj value: 0.189
# Max RMSD: 0.338
# Mean RMSD: 0.338
data_MOF--net-smc--node1-BETDAH_clean_sbu_0--edge1-EZIPEK_clean_linker_0
_symmetry_space_group_name_H-M    P1
_symmetry_Int_Tables_number       1
_symmetry_cell_setting            triclinic
loop_
_symmetry_equiv_pos_as_xyz
'x, y, z'
_cell_length_a     31.349948
_cell_length_b     31.432946
_cell_length_c     28.539337
_cell_angle_alpha  89.850434
_cell_angle_beta   89.888973
_cell_angle_gamma 119.87109
loop_
_atom_site_label
_atom_site_type_symbol
_atom_site_fract_x
_atom_site_fract_y
_atom_site_fract_z
_atom_type_partial_charge
Ho0 Ho 0.06556 0.4928 1.00446 0.0
Ho1 Ho 1.00105 0.39332 0.02836 0.0
C2 C 0.11859 0.43374 0.9999 0.0
C3 C 0.11058 0.58724 0.99288 0.0
C4 C 0.15212 0.63812 0.98915 0.0
C5 C 0.18024 0.66299 0.02825 0.0
C6 C 0.2145 0.71309 0.02554 0.0
C7 C 0.22425 0.73995 0.98294 0.0
C8 C 0.19188 0.7152 0.94544 0.0
C9 C 0.15757 0.665 0.94814 0.0
C10 C 1.02034 0.43263 0.92812 0.0
C11 C 0.95939 0.46704 0.03288 0.0
C12 C 0.93415 0.30138 0.03723 0.0
C13 C 0.87981 0.27508 0.03249 0.0
C14 C 0.85478 0.30042 0.02083 0.0
C15 C 0.80325 0.27647 0.02137 0.0
C16 C 0.77571 0.22694 0.03457 0.0
C17 C 0.80055 0.20162 0.04662 0.0
C18 C 0.85215 0.22552 0.04561 0.0
C19 C 0.05348 0.44162 0.10664 0.0
O20 O 0.12625 0.47773 0.00942 0.0
O21 O 0.07268 0.39466 1.00106 0.0
O22 O 0.10042 0.55663 0.95829 0.0
O23 O 0.09825 0.56564 0.03382 0.0
O24 O 0.06633 0.46564 0.93131 0.0
O25 O 1.00008 0.43321 0.96637 0.0
O26 O 0.94796 0.42223 0.02131 0.0
O27 O 1.00539 0.50001 0.03801 0.0
O28 O 0.96106 0.31943 0.99941 0.0
O29 O 0.95038 0.33237 0.07167 0.0
O30 O 1.00612 0.41548 0.10411 0.0
O31 O 0.06953 0.44782 0.0648 0.0
H32 H 0.17479 0.64422 0.0615 0.0
H33 H 0.23307 0.73067 0.05769 0.0
H34 H 0.19033 0.73346 0.91424 0.0
H35 H 0.13361 0.64754 0.9185 0.0
H36 H 0.87487 0.33888 0.01197 0.0
H37 H 0.78483 0.29661 0.01172 0.0
H38 H 0.77995 0.1633 0.05668 0.0
H39 H 0.87051 0.20552 0.05591 0.0
Ho40 Ho 0.57227 0.58979 1.0023 0.0
Ho41 Ho 0.67546 0.6299 0.02774 0.0
C42 C 0.6341 0.7042 1.00708 0.0
C43 C 0.47993 0.56029 0.99184 0.0
C44 C 0.42709 0.54344 0.98588 0.0
C45 C 0.40304 0.55939 0.0167 0.0
C46 C 0.3518 0.53881 0.01496 0.0
C47 C 0.3236 0.50096 0.98317 0.0
C48 C 0.34788 0.4856 0.95188 0.0
C49 C 0.39924 0.50698 0.95294 0.0
C50 C 0.63793 0.60325 0.92889 0.0
C51 C 0.5974 0.51001 0.03229 0.0
C52 C 0.76327 0.64123 0.02702 0.0
C53 C 0.7852 0.60906 0.03167 0.0
C54 C 0.76914 0.56675 1.00389 0.0
C55 C 0.79368 0.53977 1.00531 0.0
C56 C 0.83466 0.55455 0.03445 0.0
C57 C 0.84974 0.59571 0.06325 0.0
C58 C 0.82518 0.62269 0.06187 0.0
C59 C 0.63053 0.64719 0.09771 0.0
O60 O 0.59037 0.66595 0.01281 0.0
O61 O 0.67452 0.70014 1.00627 0.0
O62 O 0.51253 0.5845 0.95918 0.0
O63 O 0.49779 0.55354 0.03063 0.0
O64 O 0.59378 0.56603 0.93388 0.0
O65 O 0.64267 0.63086 0.96215 0.0
O66 O 0.64304 0.5468 0.03647 0.0
O67 O 0.56155 0.5175 0.0209 0.0
O68 O 0.74341 0.64834 0.06438 0.0
O69 O 0.73709 0.63486 0.98955 0.0
O70 O 0.67604 0.67515 0.0853 0.0
O71 O 0.61012 0.60646 0.07403 0.0
H72 H 0.4238 0.58703 0.04277 0.0
H73 H 0.33393 0.5512 0.03952 0.0
H74 H 0.32692 0.45631 0.92731 0.0
H75 H 0.41698 0.49357 0.92935 0.0
H76 H 0.73855 0.55526 0.98008 0.0
H77 H 0.78159 0.50816 0.98275 0.0
H78 H 0.88136 0.60771 0.08588 0.0
H79 H 0.8383 0.65507 0.0835 0.0
Ho80 Ho 0.48259 1.00628 0.9997 0.0
Ho81 Ho 0.44333 0.06524 0.0203 0.0
C82 C 0.37087 0.94586 0.99883 0.0
C83 C 0.51373 0.9443 0.99537 0.0
C84 C 0.53133 0.90855 0.99347 0.0
C85 C 0.52388 0.87728 0.03174 0.0
C86 C 0.54418 0.84643 0.03166 0.0
C87 C 0.57291 0.84689 0.99365 0.0
C88 C 0.57995 0.87773 0.95519 0.0
C89 C 0.55903 0.90803 0.95495 0.0
C90 C 0.46071 0.04799 0.92241 0.0
C91 C 0.56373 0.10788 0.02825 0.0
C92 C 0.43829 0.14429 1.00689 0.0
C93 C 0.46453 0.19732 0.01763 0.0
C94 C 0.46885 0.22973 0.98164 0.0
C95 C 0.49434 0.28037 0.98872 0.0
C96 C 0.51649 0.29993 0.03198 0.0
C97 C 0.51312 0.26768 0.06805 0.0
C98 C 0.48728 0.21659 0.06094 0.0
C99 C 0.41839 1.01031 0.09456 0.0
O100 O 0.41073 0.94333 0.9991 0.0
O101 O 0.37316 0.98993 1.00003 0.0
O102 O 0.50623 0.9637 0.95795 0.0
O103 O 0.50282 0.95763 0.03484 0.0
O104 O 0.50247 0.0494 0.92886 0.0
O105 O 0.43537 0.0262 0.95708 0.0
O106 O 0.52619 0.11509 0.03627 0.0
O107 O 0.55614 0.06608 0.01322 0.0
O108 O 0.41362 0.11233 0.04001 0.0
O109 O 0.46247 0.13023 0.97973 0.0
O110 O 0.39701 0.03415 0.08021 0.0
O111 O 0.46039 0.0237 0.07268 0.0
H112 H 0.50275 0.87701 0.06193 0.0
H113 H 0.53798 0.8226 0.06148 0.0
H114 H 0.60176 0.87836 0.92543 0.0
H115 H 0.56567 0.93201 0.92518 0.0
H116 H 0.45254 0.21575 0.94769 0.0
H117 H 0.49675 0.30443 0.96032 0.0
H118 H 0.53025 0.28208 0.10162 0.0
H119 H 0.48529 0.19237 0.08898 0.0
Ho120 Ho 0.73441 0.82932 0.33125 0.0
Ho121 Ho 0.6686 0.7313 0.36218 0.0
C122 C 0.78751 0.76988 0.33973 0.0
C123 C 0.78014 0.92382 0.31799 0.0
C124 C 0.82232 0.97485 0.31789 0.0
C125 C 0.84794 0.99716 0.35898 0.0
C126 C 0.88216 0.04749 0.35986 0.0
C127 C 0.89495 0.07745 0.31896 0.0
C128 C 0.86476 0.05502 0.2794 0.0
C129 C 0.83045 1.0046 0.27845 0.0
C130 C 0.68541 0.76324 0.26006 0.0
C131 C 0.62705 0.80481 0.36268 0.0
C132 C 0.60417 0.63883 0.36867 0.0
C133 C 0.5497 0.61215 0.365 0.0
C134 C 0.52512 0.62769 0.33408 0.0
C135 C 0.47349 0.60308 0.33274 0.0
C136 C 0.44556 0.56272 0.36241 0.0
C137 C 0.47014 0.54766 0.39358 0.0
C138 C 0.52166 0.57222 0.39493 0.0
C139 C 0.71873 0.78449 0.43775 0.0
O140 O 0.79497 0.81468 0.33843 0.0
O141 O 0.74259 0.73154 0.34856 0.0
O142 O 0.77516 0.8929 0.28502 0.0
O143 O 0.76172 0.90239 0.35813 0.0
O144 O 0.73154 0.79637 0.25897 0.0
O145 O 0.66754 0.76794 0.29801 0.0
O146 O 0.61384 0.75815 0.3593 0.0
O147 O 0.67338 0.8384 0.35984 0.0
O148 O 0.622 0.6676 0.40478 0.0
O149 O 0.62934 0.65914 0.33047 0.0
O150 O 0.67137 0.76044 0.43395 0.0
O151 O 0.73639 0.78852 0.39666 0.0
H152 H 0.84002 0.97625 0.39123 0.0
H153 H 0.89644 0.06237 0.39394 0.0
H154 H 0.8649 0.07591 0.24938 0.0
H155 H 0.8083 0.98929 0.24732 0.0
H156 H 0.54577 0.65895 0.31115 0.0
H157 H 0.45527 0.61536 0.30849 0.0
H158 H 0.44936 0.51676 0.41685 0.0
H159 H 0.53971 0.56016 0.41961 0.0
Ho160 Ho 0.23793 0.91852 0.33665 0.0
Ho161 Ho 0.33456 0.94986 0.36965 0.0
C162 C 0.29792 0.03013 0.34584 0.0
C163 C 0.1442 0.87155 0.32053 0.0
C164 C 0.09422 0.86467 0.32404 0.0
C165 C 0.07386 0.86703 0.36696 0.0
C166 C 1.02377 0.85211 0.37047 0.0
C167 C 0.99267 0.83707 0.33057 0.0
C168 C 1.01348 0.83101 0.28873 0.0
C169 C 0.06342 0.84597 0.28519 0.0
C170 C 0.30687 0.94223 0.26666 0.0
C171 C 0.26175 0.83478 0.36286 0.0
C172 C 0.42592 0.9762 0.38384 0.0
C173 C 0.45291 0.94891 0.37904 0.0
C174 C 0.44566 0.91813 0.3407 0.0
C175 C 0.47246 0.89346 0.33673 0.0
C176 C 0.50968 0.90115 0.36942 0.0
C177 C 0.50984 0.92548 0.41129 0.0
C178 C 0.48348 0.9504 0.41524 0.0
C179 C 0.27682 0.94464 0.44359 0.0
O180 O 0.25287 0.99325 0.34917 0.0
O181 O 0.33645 1.02301 0.3503 0.0
O182 O 0.17609 0.90409 0.29147 0.0
O183 O 0.16429 0.86642 0.35859 0.0
O184 O 0.26996 0.9497 0.26501 0.0
O185 O 0.30216 0.91715 0.30292 0.0
O186 O 0.30833 0.86895 0.35949 0.0
O187 O 0.22767 0.84699 0.36228 0.0
O188 O 0.3932 0.96131 0.41725 0.0
O189 O 0.41011 0.98601 0.34539 0.0
O190 O 0.30181 0.92219 0.44034 0.0
O191 O 0.2756 0.95962 0.40261 0.0
H192 H 0.09607 0.87818 0.39841 0.0
H193 H 1.01039 0.85037 0.4055 0.0
H194 H 0.99128 0.81287 0.25846 0.0
H195 H 0.0775 0.8405 0.25239 0.0
H196 H 0.41889 0.91265 0.31398 0.0
H197 H 0.46245 0.86781 0.30828 0.0
H198 H 0.53014 0.92562 0.44183 0.0
H199 H 0.48667 0.97058 0.44701 0.0
Ho200 Ho 0.15054 0.33309 0.33827 0.0
Ho201 Ho 0.11676 0.39929 0.35867 0.0
C202 C 0.03794 0.28213 0.3369 0.0
C203 C 0.19647 0.28414 0.33157 0.0
C204 C 0.20788 0.24395 0.33067 0.0
C205 C 0.1921 0.20813 0.36619 0.0
C206 C 0.20962 0.17484 0.36747 0.0
C207 C 0.24376 0.1776 0.33379 0.0
C208 C 0.25867 0.21286 0.29797 0.0
C209 C 0.24062 0.24543 0.29626 0.0
C210 C 0.1349 0.3757 0.25987 0.0
C211 C 0.2328 0.44139 0.36129 0.0
C212 C 0.08906 0.46447 0.36321 0.0
C213 C 0.11721 0.51888 0.362 0.0
C214 C 0.16667 0.5446 0.3472 0.0
C215 C 0.19331 0.59605 0.34779 0.0
C216 C 0.17119 0.62266 0.36392 0.0
C217 C 0.12208 0.59703 0.37935 0.0
C218 C 0.09535 0.5456 0.37838 0.0
C219 C 0.11838 0.35318 0.43955 0.0
O220 O 0.07459 0.2744 0.34515 0.0
O221 O 0.04502 0.32792 0.33638 0.0
O222 O 0.1785 0.2949 0.29511 0.0
O223 O 0.1867 0.29787 0.37143 0.0
O224 O 0.12046 0.32953 0.26527 0.0
O225 O 0.15643 0.39682 0.29726 0.0
O226 O 0.19871 0.45318 0.3529 0.0
O227 O 0.22067 0.39538 0.36492 0.0
O228 O 0.08778 0.4415 0.32467 0.0
O229 O 0.09673 0.44449 0.39985 0.0
O230 O 0.14062 0.39999 0.43261 0.0
O231 O 0.10462 0.33345 0.39948 0.0
H232 H 0.16722 0.20657 0.3934 0.0
H233 H 0.19745 0.14768 0.39524 0.0
H234 H 0.28472 0.21545 0.27154 0.0
H235 H 0.25368 0.27307 0.26887 0.0
H236 H 0.18481 0.52505 0.33525 0.0
H237 H 0.23111 0.61513 0.33561 0.0
H238 H 0.10429 0.61691 0.3917 0.0
H239 H 0.05758 0.52663 0.39058 0.0
Ho240 Ho 0.39929 0.16571 0.65848 0.0
Ho241 Ho 0.33957 0.06478 0.68083 0.0
C242 C 0.45882 0.11221 0.66029 0.0
C243 C 0.45199 0.25785 0.63785 0.0
C244 C 0.4933 0.30851 0.63881 0.0
C245 C 0.51886 0.33037 0.67992 0.0
C246 C 0.55451 0.3802 0.68009 0.0
C247 C 0.56773 0.4093 0.63859 0.0
C248 C 0.53729 0.3875 0.59924 0.0
C249 C 0.50201 0.33767 0.59894 0.0
C250 C 0.35014 0.10176 0.58401 0.0
C251 C 0.29758 0.13933 0.68938 0.0
C252 C 0.27201 0.97333 0.67742 0.0
C253 C 0.21772 0.95044 0.68441 0.0
C254 C 0.19005 0.96624 0.65806 0.0
C255 C 0.13882 0.94312 0.66292 0.0
C256 C 0.11386 0.9038 0.69433 0.0
C257 C 0.14137 0.88904 0.72189 0.0
C258 C 0.19282 0.91223 0.71705 0.0
C259 C 0.38316 0.11087 0.76215 0.0
O260 O 0.46176 0.15417 0.671 0.0
O261 O 0.41457 0.07098 0.65832 0.0
O262 O 0.45522 0.22382 0.61464 0.0
O263 O 0.42251 0.24122 0.67404 0.0
O264 O 0.34947 0.14182 0.59132 0.0
O265 O 0.37421 0.09863 0.61656 0.0
O266 O 0.28794 0.09675 0.67138 0.0
O267 O 0.34265 0.16986 0.70083 0.0
O268 O 0.30014 0.99234 0.71402 0.0
O269 O 0.28989 1.00128 0.64049 0.0
O270 O 0.33667 0.08063 0.75689 0.0
O271 O 0.40268 0.12203 0.72153 0.0
H272 H 0.51052 0.30934 0.71212 0.0
H273 H 0.57124 0.3957 0.71346 0.0
H274 H 0.53819 0.40793 0.56869 0.0
H275 H 0.47996 0.32222 0.56777 0.0
H276 H 0.20777 0.99593 0.63289 0.0
H277 H 0.11838 0.95489 0.64102 0.0
H278 H 0.12287 0.85859 0.74613 0.0
H279 H 0.21307 0.89963 0.73814 0.0
Ho280 Ho 0.91013 0.25494 0.66666 0.0
Ho281 Ho 1.01367 0.29638 0.68998 0.0
C282 C 0.96914 0.37066 0.67148 0.0
C283 C 0.81785 0.22283 0.65457 0.0
C284 C 0.7657 0.20883 0.65214 0.0
C285 C 0.74492 0.22656 0.68489 0.0
C286 C 0.69424 0.20956 0.68441 0.0
C287 C 0.66388 0.17395 0.65176 0.0
C288 C 0.68489 0.15669 0.61884 0.0
C289 C 0.73551 0.17429 0.61882 0.0
C290 C 0.97294 0.26517 0.5927 0.0
C291 C 0.93967 0.17832 0.69342 0.0
C292 C 0.10516 0.31916 0.68479 0.0
C293 C 0.12791 0.2874 0.68769 0.0
C294 C 0.11389 0.24742 0.65711 0.0
C295 C 0.1364 0.21853 0.65967 0.0
C296 C 0.1732 0.22879 0.69294 0.0
C297 C 0.18611 0.26755 0.72446 0.0
C298 C 0.16359 0.29646 0.72194 0.0
C299 C 0.96401 0.29082 0.77111 0.0
O300 O 0.92558 0.33104 0.67145 0.0
O301 O 1.01055 0.36807 0.67535 0.0
O302 O 0.85047 0.2499 0.62292 0.0
O303 O 0.8358 0.21516 0.69293 0.0
O304 O 0.92975 0.22701 0.59883 0.0
O305 O 0.97827 0.29391 0.62498 0.0
O306 O 0.9842 0.21389 0.68217 0.0
O307 O 0.90503 0.18917 0.69978 0.0
O308 O 0.08536 0.32381 0.72318 0.0
O309 O 0.07794 0.31345 0.64818 0.0
O310 O 0.9957 0.2761 0.76607 0.0
O311 O 0.9544 0.29988 0.72997 0.0
H312 H 0.76778 0.25312 0.71097 0.0
H313 H 0.67861 0.22356 0.70979 0.0
H314 H 0.66199 0.12954 0.59321 0.0
H315 H 0.75093 0.15996 0.59353 0.0
H316 H 0.08616 0.23893 0.63058 0.0
H317 H 0.12628 0.18914 0.63471 0.0
H318 H 0.21476 0.27638 0.75008 0.0
H319 H 0.17467 0.32652 0.74628 0.0
Ho320 Ho 0.82419 0.67924 0.66312 0.0
Ho321 Ho 0.78018 0.73431 0.67916 0.0
C322 C 0.71391 0.61523 0.66401 0.0
C323 C 0.86221 0.62416 0.64542 0.0
C324 C 0.87209 0.58301 0.64883 0.0
C325 C 0.87061 0.5602 0.69142 0.0
C326 C 0.88631 0.5255 0.69377 0.0
C327 C 0.90163 0.51038 0.65316 0.0
C328 C 0.90763 0.53807 0.61198 0.0
C329 C 0.89147 0.5722 0.60949 0.0
C330 C 0.80917 0.72403 0.58474 0.0
C331 C 0.90082 0.78207 0.69119 0.0
C332 C 0.76335 0.80705 0.67434 0.0
C333 C 0.79495 0.86151 0.67713 0.0
C334 C 0.79738 0.89124 0.63914 0.0
C335 C 0.82414 0.94262 0.64256 0.0
C336 C 0.84925 0.9654 0.684 0.0
C337 C 0.84828 0.93582 0.72143 0.0
C338 C 0.82146 0.88452 0.71811 0.0
C339 C 0.75123 0.67592 0.75306 0.0
O340 O 0.75395 0.61578 0.67654 0.0
O341 O 0.71517 0.6581 0.65556 0.0
O342 O 0.82386 0.61969 0.62318 0.0
O343 O 0.87707 0.6564 0.679 0.0
O344 O 0.85069 0.72744 0.59543 0.0
O345 O 0.78 0.69907 0.61592 0.0
O346 O 0.86406 0.79008 0.6818 0.0
O347 O 0.89206 0.73744 0.69388 0.0
O348 O 0.75855 0.78225 0.71265 0.0
O349 O 0.76812 0.78539 0.63726 0.0
O350 O 0.72787 0.69536 0.73375 0.0
O351 O 0.79529 0.69249 0.73444 0.0
H352 H 0.85892 0.57034 0.72318 0.0
H353 H 0.88772 0.51214 0.72828 0.0
H354 H 0.92681 0.53614 0.58152 0.0
H355 H 0.89644 0.59209 0.57698 0.0
H356 H 0.77785 0.87468 0.60701 0.0
H357 H 0.82472 0.96466 0.61306 0.0
H358 H 0.86768 0.95253 0.75358 0.0
H359 H 0.82101 0.863 0.74799 0.0
C360 C 0.24297 0.4477 0.02492 0.0
C361 C 0.26851 0.4754 0.98461 0.0
C362 C 0.1891 0.45279 0.94769 0.0
C363 C 0.1644 0.43179 0.99043 0.0
N364 N 0.16776 0.41077 0.07045 0.0
N365 N 0.26616 0.50882 0.90907 0.0
C366 C 0.19142 0.42917 0.02902 0.0
C367 C 0.2416 0.47864 0.94602 0.0
N368 N 0.26779 0.43818 0.05893 0.0
N369 N 0.16185 0.44862 0.90892 0.0
H370 H 0.30443 0.52929 0.90708 0.0
H371 H 0.24881 0.51689 0.88225 0.0
H372 H 0.12346 0.42894 0.9097 0.0
H373 H 0.17677 0.45992 0.87553 0.0
H374 H 0.25056 0.41482 0.08724 0.0
H375 H 0.30531 0.45013 0.05682 0.0
H376 H 0.18552 0.41478 0.10231 0.0
H377 H 0.12967 0.39247 0.07212 0.0
C378 C 0.6324 0.82231 0.02654 0.0
C379 C 0.59507 0.8145 0.99371 0.0
C380 C 0.60213 0.74713 0.95915 0.0
C381 C 0.63345 0.74993 0.99633 0.0
N382 N 0.6757 0.78758 0.06778 0.0
N383 N 0.53833 0.76383 0.93375 0.0
C384 C 0.64843 0.78724 0.03041 0.0
C385 C 0.57857 0.77564 0.96097 0.0
N386 N 0.65308 0.86362 0.05347 0.0
N387 N 0.59402 0.71591 0.92267 0.0
H388 H 0.51891 0.78276 0.93503 0.0
H389 H 0.52127 0.73238 0.9132 0.0
H390 H 0.61113 0.69473 0.9205 0.0
H391 H 0.57454 0.71469 0.89269 0.0
H392 H 0.68341 0.87349 0.07492 0.0
H393 H 0.64268 0.89033 0.05127 0.0
H394 H 0.68192 0.80936 0.09725 0.0
H395 H 0.69004 0.76404 0.07022 0.0
C396 C 0.29554 0.87986 0.95822 0.0
C397 C 0.32614 0.89604 0.99828 0.0
C398 C 0.30296 0.81033 0.0153 0.0
C399 C 0.26574 0.79353 0.98101 0.0
N400 N 0.26102 0.81535 0.90103 0.0
N401 N 0.35648 0.87397 0.0674 0.0
C402 C 0.26984 0.82871 0.9469 0.0
C403 C 0.32808 0.86024 0.028 0.0
N404 N 0.2934 0.91333 0.92926 0.0
N405 N 0.31999 0.78013 0.03019 0.0
H406 H 0.3805 0.91026 0.07614 0.0
H407 H 0.35375 0.84888 0.0929 0.0
H408 H 0.30746 0.74542 0.01574 0.0
H409 H 0.35076 0.79172 0.05151 0.0
H410 H 0.26872 0.90321 0.90149 0.0
H411 H 0.31317 0.95095 0.93562 0.0
H412 H 0.26579 0.83962 0.87395 0.0
H413 H 0.26011 0.78349 0.88937 0.0
C414 C 0.58616 0.38451 0.01242 0.0
C415 C 0.54273 0.35435 0.03863 0.0
C416 C 0.54601 0.42825 0.07098 0.0
C417 C 0.58457 0.45792 0.03925 0.0
N418 N 0.63691 0.46323 0.9747 0.0
N419 N 0.47752 0.34749 0.08886 0.0
C420 C 0.604 0.43591 0.00898 0.0
C421 C 0.52184 0.37619 0.06727 0.0
N422 N 0.61052 0.36397 0.99096 0.0
N423 N 0.53279 0.45003 0.10501 0.0
H424 H 0.45839 0.3093 0.08689 0.0
H425 H 0.45775 0.36163 0.1056 0.0
H426 H 0.55033 0.48803 0.10911 0.0
H427 H 0.50814 0.43057 0.13191 0.0
H428 H 0.64489 0.38457 0.97517 0.0
H429 H 0.59859 0.32653 0.99299 0.0
H430 H 0.64801 0.44804 0.94827 0.0
H431 H 0.65007 0.50063 0.97014 0.0
C432 C 0.64044 0.16715 0.07301 0.0
C433 C 0.61634 0.14759 0.02985 0.0
C434 C 0.69656 0.17949 0.99038 0.0
C435 C 0.72077 0.2008 0.03302 0.0
N436 N 0.7166 0.22254 0.1131 0.0
N437 N 0.62111 0.14532 0.9457 0.0
C438 C 0.69289 0.19714 0.07378 0.0
C439 C 0.64449 0.15707 0.98802 0.0
N440 N 0.61352 0.155 0.11348 0.0
N441 N 0.7232 0.17929 0.95244 0.0
H442 H 0.58326 0.13103 0.94272 0.0
H443 H 0.63944 0.15467 0.9136 0.0
H444 H 0.76152 0.19649 0.95225 0.0
H445 H 0.70726 0.15889 0.92233 0.0
H446 H 0.62913 0.16314 0.14673 0.0
H447 H 0.5752 0.13419 0.11381 0.0
H448 H 0.69841 0.22553 0.14238 0.0
H449 H 0.75483 0.24375 0.11512 0.0
C450 C 0.92304 0.51213 0.99222 0.0
C451 C 0.92265 0.48374 0.03122 0.0
C452 C 0.85952 0.49629 0.06944 0.0
C453 C 0.86378 0.52882 0.03273 0.0
N454 N 0.90401 0.57294 0.96199 0.0
N455 N 0.89435 0.45189 0.10875 0.0
C456 C 0.89656 0.53797 0.9947 0.0
C457 C 0.89167 0.47638 0.07025 0.0
N458 N 0.94807 0.51364 0.95237 0.0
N459 N 0.82401 0.48372 0.103 0.0
H460 H 0.91627 0.43553 0.10978 0.0
H461 H 0.87729 0.45022 0.14057 0.0
H462 H 0.80024 0.49797 0.10366 0.0
H463 H 0.81552 0.45649 0.12803 0.0
H464 H 0.94551 0.52916 0.92098 0.0
H465 H 0.96808 0.49544 0.94931 0.0
H466 H 0.9316 0.5855 0.93663 0.0
H467 H 0.88519 0.5925 0.96233 0.0
C468 C 0.8576 0.77977 0.29341 0.0
C469 C 0.83334 0.76737 0.33736 0.0
C470 C 0.91279 0.81554 0.37585 0.0
C471 C 0.93806 0.82196 0.33272 0.0
N472 N 0.93011 0.83894 0.25177 0.0
N473 N 0.83918 0.7653 0.42088 0.0
C474 C 0.90942 0.81152 0.2912 0.0
C475 C 0.86173 0.78146 0.37859 0.0
N476 N 0.83053 0.76281 0.25351 0.0
N477 N 0.93369 0.84977 0.41025 0.0
H478 H 0.80147 0.74065 0.42344 0.0
H479 H 0.85906 0.77266 0.45197 0.0
H480 H 0.96532 0.88346 0.40379 0.0
H481 H 0.91521 0.84875 0.44105 0.0
H482 H 0.84619 0.76693 0.22038 0.0
H483 H 0.79248 0.74046 0.25462 0.0
H484 H 0.91033 0.83625 0.22156 0.0
H485 H 0.96555 0.86932 0.2519 0.0
C486 C 0.2547 0.11065 0.29798 0.0
C487 C 0.26417 0.1437 0.33548 0.0
C488 C 0.30974 0.10985 0.37653 0.0
C489 C 0.3017 0.07842 0.3381 0.0
N490 N 0.27975 0.05911 0.25729 0.0
N491 N 0.31003 0.18248 0.40561 0.0
C492 C 0.27885 0.08271 0.29704 0.0
C493 C 0.29469 0.14576 0.37333 0.0
N494 N 0.22051 0.10376 0.26472 0.0
N495 N 0.32968 0.10388 0.41676 0.0
H496 H 0.30043 0.2098 0.404 0.0
H497 H 0.3357 0.18839 0.43155 0.0
H498 H 0.3429 0.07936 0.4192 0.0
H499 H 0.33108 0.1215 0.44803 0.0
H500 H 0.20849 0.07634 0.23946 0.0
H501 H 0.20042 0.12204 0.26513 0.0
H502 H 0.26647 0.06309 0.22511 0.0
H503 H 0.2993 0.0403 0.25569 0.0
C504 C 0.97099 0.21715 0.28852 0.0
C505 C 0.98939 0.23624 0.33349 0.0
C506 C 0.96144 0.15317 0.36174 0.0
C507 C 0.93475 0.13223 0.32005 0.0
N508 N 0.94537 0.14795 0.23672 0.0
N509 N 0.9904 0.22046 0.41554 0.0
C510 C 0.94688 0.16507 0.28089 0.0
C511 C 0.97913 0.2032 0.37101 0.0
N512 N 0.97837 0.24908 0.25282 0.0
N513 N 0.97927 0.12878 0.38737 0.0
H514 H 1.00288 0.25731 0.42294 0.0
H515 H 0.98221 0.19706 0.44432 0.0
H516 H 0.97646 0.09603 0.37561 0.0
H517 H 1.00275 0.14465 0.41585 0.0
H518 H 0.96229 0.23801 0.21994 0.0
H519 H 0.99695 0.28699 0.25797 0.0
H520 H 0.95588 0.16989 0.2068 0.0
H521 H 0.94193 0.11359 0.23109 0.0
C522 C 0.25027 0.75706 0.40092 0.0
C523 C 0.24546 0.78143 0.36112 0.0
C524 C 0.1925 0.70187 0.32318 0.0
C525 C 0.19847 0.67747 0.36236 0.0
N526 N 0.23829 0.68106 0.43554 0.0
N527 N 0.21991 0.77831 0.2811 0.0
C528 C 0.22918 0.70492 0.40027 0.0
C529 C 0.21883 0.75407 0.3213 0.0
N530 N 0.27292 0.78354 0.44013 0.0
N531 N 0.16062 0.67507 0.28823 0.0
H532 H 0.23903 0.81642 0.27868 0.0
H533 H 0.20583 0.7611 0.24918 0.0
H534 H 0.1425 0.63684 0.2871 0.0
H535 H 0.14963 0.69036 0.26179 0.0
H536 H 0.27273 0.76779 0.4723 0.0
H537 H 0.28971 0.8217 0.4413 0.0
H538 H 0.26427 0.69893 0.46165 0.0
H539 H 0.22214 0.64296 0.43698 0.0
C540 C 0.31034 0.50804 0.3986 0.0
C541 C 0.28623 0.47841 0.35923 0.0
C542 C 0.36629 0.50399 0.32186 0.0
C543 C 0.39052 0.53533 0.36034 0.0
N544 N 0.38579 0.57408 0.43138 0.0
N545 N 0.29014 0.45577 0.27937 0.0
C546 C 0.36252 0.53941 0.39756 0.0
C547 C 0.31396 0.47885 0.31959 0.0
N548 N 0.28357 0.50477 0.43765 0.0
N549 N 0.39317 0.49634 0.28855 0.0
H550 H 0.25193 0.43711 0.27641 0.0
H551 H 0.30808 0.45899 0.24771 0.0
H552 H 0.43149 0.51389 0.28889 0.0
H553 H 0.37753 0.46964 0.2627 0.0
H554 H 0.2993 0.52067 0.46961 0.0
H555 H 0.24529 0.4835 0.43888 0.0
H556 H 0.36728 0.58236 0.45688 0.0
H557 H 0.42379 0.59758 0.43169 0.0
C558 C 0.58282 0.89138 0.39577 0.0
C559 C 0.54474 0.88067 0.36295 0.0
C560 C 0.56037 0.81771 0.32862 0.0
C561 C 0.59128 0.82264 0.36695 0.0
N562 N 0.6269 0.86071 0.44078 0.0
N563 N 0.5328 0.86215 0.28049 0.0
C564 C 0.60049 0.85814 0.40184 0.0
C565 C 0.54205 0.85096 0.32414 0.0
N566 N 0.60865 0.93726 0.41448 0.0
N567 N 0.54991 0.78279 0.29531 0.0
H568 H 0.53297 0.89491 0.2739 0.0
H569 H 0.53417 0.84448 0.25016 0.0
H570 H 0.56401 0.75899 0.29596 0.0
H571 H 0.52376 0.77487 0.26926 0.0
H572 H 0.63961 0.94839 0.43544 0.0
H573 H 0.60358 0.96599 0.40302 0.0
H574 H 0.63119 0.88361 0.46893 0.0
H575 H 0.64005 0.83649 0.44673 0.0
C576 C 0.59014 0.17322 0.6169 0.0
C577 C 0.60998 0.15501 0.65088 0.0
C578 C 0.52653 0.09318 0.6751 0.0
C579 C 0.50688 0.11631 0.6472 0.0
N580 N 0.51948 0.17734 0.58887 0.0
N581 N 0.5976 0.10115 0.71625 0.0
C582 C 0.53865 0.15563 0.61676 0.0
C583 C 0.57834 0.11597 0.68114 0.0
N584 N 0.6206 0.20751 0.58491 0.0
N585 N 0.49588 0.04814 0.69369 0.0
H586 H 0.63535 0.11602 0.72114 0.0
H587 H 0.57606 0.07689 0.74262 0.0
H588 H 0.45868 0.02899 0.68513 0.0
H589 H 0.50843 0.02727 0.711 0.0
H590 H 0.60817 0.21799 0.55571 0.0
H591 H 0.65883 0.22385 0.58597 0.0
H592 H 0.54051 0.21041 0.57119 0.0
H593 H 0.48179 0.163 0.58488 0.0
C594 C 0.93646 0.42026 0.7069 0.0
C595 C 0.96659 0.41683 0.67152 0.0
C596 C 0.94013 0.46047 0.61821 0.0
C597 C 0.91624 0.47044 0.65573 0.0
N598 N 0.8637 0.42575 0.72065 0.0
N599 N 1.00247 0.44049 0.59504 0.0
C600 C 0.90673 0.44135 0.69664 0.0
C601 C 0.97085 0.44008 0.62803 0.0
N602 N 0.93441 0.40097 0.7501 0.0
N603 N 0.92456 0.45892 0.57337 0.0
H604 H 1.02522 0.42573 0.60177 0.0
H605 H 1.00922 0.45968 0.5635 0.0
H606 H 0.8921 0.45933 0.56627 0.0
H607 H 0.93792 0.44813 0.54502 0.0
H608 H 0.91665 0.40607 0.77867 0.0
H609 H 0.9545 0.38383 0.75759 0.0
H610 H 0.85237 0.40059 0.74822 0.0
H611 H 0.83613 0.43221 0.70822 0.0
C612 C 0.64271 0.54911 0.61722 0.0
C613 C 0.67062 0.56431 0.6592 0.0
C614 C 0.64457 0.47775 0.67604 0.0
C615 C 0.61024 0.4623 0.63923 0.0
N616 N 0.61333 0.48618 0.55856 0.0
N617 N 0.69205 0.53892 0.73239 0.0
C618 C 0.61795 0.49837 0.60479 0.0
C619 C 0.66914 0.5273 0.68988 0.0
N620 N 0.64114 0.58263 0.58792 0.0
N621 N 0.6597 0.4467 0.69292 0.0
H622 H 0.71396 0.57446 0.74412 0.0
H623 H 0.68606 0.51245 0.75767 0.0
H624 H 0.64794 0.41228 0.67814 0.0
H625 H 0.68865 0.45754 0.71649 0.0
H626 H 0.61806 0.57233 0.55884 0.0
H627 H 0.65886 0.62001 0.59493 0.0
H628 H 0.62178 0.51151 0.53151 0.0
H629 H 0.6115 0.45364 0.54767 0.0
C630 C 0.91964 0.04961 0.66255 0.0
C631 C 0.87599 1.02022 0.68865 0.0
C632 C 0.88701 0.0943 0.7282 0.0
C633 C 0.9253 0.12471 0.69633 0.0
N634 N 0.97825 0.1294 0.63193 0.0
N635 N 0.81408 1.0156 0.74204 0.0
C636 C 0.94204 0.10192 0.66344 0.0
C637 C 0.85865 0.04285 0.72042 0.0
N638 N 0.9409 0.02757 0.63814 0.0
N639 N 0.87892 0.11447 0.76721 0.0
H640 H 0.79174 0.97796 0.73687 0.0
H641 H 0.79722 0.03115 0.76156 0.0
H642 H 0.90127 0.15133 0.77595 0.0
H643 H 0.85433 0.09365 0.79367 0.0
H644 H 0.97568 0.0468 0.62285 0.0
H645 H 0.92584 0.9896 0.63675 0.0
H646 H 0.98536 0.11461 0.6023 0.0
H647 H 1.00079 0.16704 0.63431 0.0
C648 C 0.97794 0.84753 0.73154 0.0
C649 C 0.95398 0.82158 0.69031 0.0
C650 C 1.03454 0.84578 0.65464 0.0
C651 C 0.05874 0.87493 0.69416 0.0
N652 N 0.05373 0.91011 0.76742 0.0
N653 N 0.96096 0.80912 0.60815 0.0
C654 C 1.03048 0.87778 0.73187 0.0
C655 C 0.98285 0.82459 0.65061 0.0
N656 N 0.95063 0.84218 0.77072 0.0
N657 N 0.06069 0.83706 0.62134 0.0
H658 H 0.92456 0.7994 0.60347 0.0
H659 H 0.98012 0.81339 0.57701 0.0
H660 H 0.09866 0.85144 0.62306 0.0
H661 H 0.0441 0.81164 0.59452 0.0
H662 H 0.96599 0.85551 0.80348 0.0
H663 H 0.91225 0.822 0.77076 0.0
H664 H 1.03513 0.91754 0.79351 0.0
H665 H 0.0919 0.93232 0.76879 0.0
C666 C 0.22426 0.14312 0.72201 0.0
C667 C 0.26216 0.15833 0.68787 0.0
C668 C 0.24195 0.22012 0.65813 0.0
C669 C 0.20267 0.20329 0.69075 0.0
N670 N 0.15266 0.14626 0.75081 0.0
N671 N 0.30536 0.20966 0.62127 0.0
C672 C 0.19274 0.164 0.72187 0.0
C673 C 0.27028 0.19622 0.65528 0.0
N674 N 0.21999 0.11042 0.75593 0.0
N675 N 0.25407 0.261 0.63154 0.0
H676 H 0.33219 0.19967 0.62215 0.0
H677 H 0.30713 0.22965 0.59146 0.0
H678 H 0.23395 0.27924 0.63176 0.0
H679 H 0.28605 0.27931 0.61157 0.0
H680 H 0.19734 0.10195 0.78522 0.0
H681 H 0.2416 0.09372 0.75632 0.0
H682 H 0.14017 0.11478 0.77122 0.0
H683 H 0.12969 0.16142 0.75216 0.0
C684 C 0.10011 0.3678 0.17779 0.0
C685 C 0.12186 0.39758 0.21779 0.0
C686 C 0.10495 0.46022 0.18186 0.0
C687 C 0.07838 0.42764 0.14477 0.0
N688 N 0.04621 0.34673 0.11146 0.0
N689 N 0.16286 0.48099 0.24599 0.0
C690 C 0.07423 0.3803 0.14449 0.0
C691 C 0.1291 0.44633 0.21681 0.0
N692 N 0.10957 0.33073 0.16788 0.0
N693 N 0.10579 0.50401 0.18462 0.0
H694 H 0.18612 0.4746 0.26697 0.0
H695 H 0.17302 0.51793 0.24467 0.0
H696 H 0.09018 0.51575 0.15902 0.0
H697 H 0.11849 0.5269 0.2137 0.0
H698 H 0.09866 0.31053 0.13698 0.0
H699 H 0.13534 0.32557 0.18624 0.0
H700 H 1.03451 0.30944 0.11449 0.0
H701 H 1.03489 0.35623 0.08107 0.0
C702 C 0.62763 0.72931 0.18956 0.0
C703 C 0.65836 0.72399 0.22303 0.0
C704 C 0.64221 0.64725 0.18308 0.0
C705 C 0.61871 0.657 0.14602 0.0
N706 N 0.57739 0.69851 0.11869 0.0
N707 N 0.69587 0.67762 0.24992 0.0
C708 C 0.60747 0.69527 0.1512 0.0
C709 C 0.66509 0.68231 0.21966 0.0
N710 N 0.61973 0.7682 0.19337 0.0
N711 N 0.64365 0.60456 0.18215 0.0
H712 H 0.71227 0.70206 0.27686 0.0
H713 H 0.70767 0.65214 0.24665 0.0
H714 H 0.62718 0.57913 0.1552 0.0
H715 H 0.65645 0.59213 0.20961 0.0
H716 H 0.60032 0.77673 0.16924 0.0
H717 H 0.63352 0.79304 0.22104 0.0
H718 H 0.56671 0.72495 0.11841 0.0
H719 H 0.5604 0.67164 0.09306 0.0
C720 C 0.42008 1.00137 0.18297 0.0
C721 C 0.39687 0.98163 0.13956 0.0
C722 C 0.32161 0.92485 0.18437 0.0
C723 C 0.34123 0.95151 0.22582 0.0
N724 N 0.40669 0.02593 0.25908 0.0
N725 N 0.31594 0.93566 0.10272 0.0
C726 C 0.39029 0.99226 0.22413 0.0
C727 C 0.34512 0.94581 0.14117 0.0
N728 N 0.4697 0.03192 0.18456 0.0
N729 N 0.27829 0.88143 0.18524 0.0
H730 H 0.32832 0.95372 0.07119 0.0
H731 H 0.27777 0.91344 0.10387 0.0
H732 H 0.2584 0.86645 0.21598 0.0
H733 H 0.26486 0.85881 0.15591 0.0
H734 H 0.48867 0.04492 0.216 0.0
H735 H 0.49198 0.04003 0.15492 0.0
H736 H 0.4403 0.05856 0.25783 0.0
H737 H 0.3838 0.02388 0.28623 0.0
C738 C 0.41136 0.08689 0.88657 0.0
C739 C 0.44227 0.06536 0.88071 0.0
C740 C 0.42539 0.06498 0.79634 0.0
C741 C 0.40777 0.0988 0.80204 0.0
N742 N 0.38967 0.14579 0.85656 0.0
N743 N 0.47759 0.03407 0.82445 0.0
C744 C 0.40368 0.11177 0.84838 0.0
C745 C 0.45032 0.05595 0.83379 0.0
N746 N 0.38385 0.079 0.92598 0.0
N747 N 0.4116 0.03519 0.75833 0.0
H748 H 0.49255 1.02197 0.85019 0.0
H749 H 0.48679 0.02987 0.79035 0.0
H750 H 0.38809 0.03571 0.73323 0.0
H751 H 0.41663 1.00484 0.75635 0.0
H752 H 0.35778 0.09026 0.92902 0.0
H753 H 0.38269 0.05708 0.95349 0.0
H754 H 0.38919 0.15853 0.89017 0.0
H755 H 0.38284 0.16398 0.82949 0.0
C756 C 1.02569 0.41153 0.84357 0.0
C757 C 0.99843 0.39815 0.88594 0.0
C758 C 0.94254 0.31622 0.85025 0.0
C759 C 0.97451 0.32775 0.81085 0.0
N760 N 0.05144 0.38715 0.77466 0.0
N761 N 0.91883 0.34452 0.91982 0.0
C762 C 1.01754 0.37544 0.80928 0.0
C763 C 0.95339 0.35216 0.8868 0.0
N764 N 0.05612 0.46012 0.83339 0.0
N765 N 0.90254 0.27023 0.85353 0.0
H766 H 0.92296 0.3717 0.943 0.0
H767 H 0.88365 0.31407 0.92057 0.0
H768 H 0.89302 0.24428 0.827 0.0
H769 H 0.88076 0.2566 0.88344 0.0
H770 H 0.07322 0.47275 0.80096 0.0
H771 H 0.05807 0.48819 0.85428 0.0
H772 H 0.08656 0.41788 0.77563 0.0
H773 H 0.04545 0.36459 0.74648 0.0
C774 C 0.75149 0.66809 0.84227 0.0
C775 C 0.7285 0.64899 0.79883 0.0
C776 C 0.65473 0.58997 0.84391 0.0
C777 C 0.67238 0.61711 0.8859 0.0
N778 N 0.73967 0.69366 0.91774 0.0
N779 N 0.64754 0.60078 0.76219 0.0
C780 C 0.7216 0.65922 0.88343 0.0
C781 C 0.67699 0.61273 0.80069 0.0
N782 N 0.80134 0.69706 0.8444 0.0
N783 N 0.61678 0.54272 0.84404 0.0
H784 H 0.65932 0.61702 0.72966 0.0
H785 H 0.60952 0.57749 0.76416 0.0
H786 H 0.60305 0.522 0.87451 0.0
H787 H 0.60479 0.52203 0.81338 0.0
H788 H 0.82008 0.70871 0.87612 0.0
H789 H 0.82395 0.70469 0.81512 0.0
H790 H 0.77267 0.72672 0.91437 0.0
H791 H 0.72048 0.69222 0.94744 0.0
C792 C 0.71992 0.72283 0.4968 0.0
C793 C 0.74223 0.77186 0.47848 0.0
C794 C 0.81307 0.79191 0.53074 0.0
C795 C 0.79341 0.74138 0.54221 0.0
N796 N 0.73462 0.65796 0.52271 0.0
N797 N 0.81484 0.85201 0.47556 0.0
C798 C 0.74934 0.70676 0.52026 0.0
C799 C 0.79053 0.80599 0.49447 0.0
N800 N 0.67017 0.69224 0.4963 0.0
N801 N 0.8514 0.82672 0.55596 0.0
H802 H 0.79871 0.86435 0.45112 0.0
H803 H 0.85182 0.87661 0.4822 0.0
H804 H 0.86725 0.81772 0.58341 0.0
H805 H 0.86416 0.86416 0.55244 0.0
H806 H 0.65334 0.65707 0.51076 0.0
H807 H 0.64516 0.70425 0.49072 0.0
H808 H 0.70472 0.63155 0.50378 0.0
H809 H 0.75551 0.64488 0.5393 0.0
C810 C 0.26492 1.00928 0.48904 0.0
C811 C 0.28719 0.97925 0.48491 0.0
C812 C 0.35366 0.03706 0.53558 0.0
C813 C 0.32947 0.06422 0.5449 0.0
N814 N 0.25559 0.06921 0.53556 0.0
N815 N 0.33977 0.95541 0.52604 0.0
C816 C 0.28316 0.0485 0.52298 0.0
C817 C 0.32744 0.99014 0.51491 0.0
N818 N 0.22606 1.00013 0.4611 0.0
N819 N 0.40243 0.05633 0.54516 0.0
H820 H 0.3169 0.91835 0.51857 0.0
H821 H 0.36797 0.96221 0.54947 0.0
H822 H 0.42441 0.09255 0.55555 0.0
H823 H 0.42188 0.03853 0.53627 0.0
H824 H 0.21229 0.02411 0.45803 0.0
H825 H 0.20873 0.96914 0.43988 0.0
H826 H 0.2195 0.05581 0.52448 0.0
H827 H 0.26742 0.09747 0.55987 0.0
C828 C 1.01908 0.3295 0.53119 0.0
C829 C 1.0047 0.28211 0.54866 0.0
C830 C 0.06742 0.2808 0.49586 0.0
C831 C 0.08499 0.33075 0.48259 0.0
N832 N 0.08744 0.40629 0.50668 0.0
N833 N 1.01281 0.21042 0.54519 0.0
C834 C 0.06371 0.35622 0.50551 0.0
C835 C 1.02834 0.25708 0.53023 0.0
N836 N 0.9892 0.34898 0.53802 0.0
N837 N 0.08821 0.25616 0.47549 0.0
H838 H 0.98107 0.19126 0.5654 0.0
H839 H 1.03046 0.19067 0.53758 0.0
H840 H 0.11848 0.27335 0.45303 0.0
H841 H 0.07546 0.2189 0.47997 0.0
H842 H 0.99514 0.38087 0.52095 0.0
H843 H 0.9555 0.33003 0.55553 0.0
H844 H 0.07349 0.42553 0.52478 0.0
H845 H 0.12436 0.42838 0.49806 0.0
loop_
_geom_bond_atom_site_label_1
_geom_bond_atom_site_label_2
_geom_bond_distance
_geom_bond_site_symmetry_2
_ccdc_geom_bond_type
Ho0 C3 2.811 . S
Ho0 O20 2.322 . S
Ho0 O22 2.378 . S
Ho0 O23 2.524 1_556 S
Ho0 O24 2.381 . S
Ho0 O25 2.669 1_455 S
Ho0 O27 2.346 1_456 S
Ho0 O31 2.305 1_556 S
Ho1 C12 2.811 . S
Ho1 O21 2.346 1_655 S
Ho1 O25 2.305 1_554 S
Ho1 O26 2.322 . S
Ho1 O28 2.378 . S
Ho1 O29 2.524 1_554 S
Ho1 O30 2.381 . S
Ho1 O31 2.669 1_655 S
C2 O20 1.259 . S
C2 O21 1.268 1_556 S
C3 Ho0 2.811 . S
C3 C4 1.488 . S
C3 O22 1.215 . S
C3 O23 1.289 1_556 S
C4 C3 1.488 . S
C4 C5 1.348 1_556 S
C4 C9 1.413 . S
C5 C4 1.348 1_554 S
C5 C6 1.442 . S
C5 H32 0.930 . S
C6 C5 1.442 . S
C6 C7 1.381 1_554 S
C6 H33 0.931 . S
C7 C6 1.381 1_556 S
C7 C8 1.321 . S
C8 C7 1.321 . S
C8 C9 1.403 . S
C8 H34 0.934 . S
C9 C4 1.413 . S
C9 C8 1.403 . S
C9 H35 0.930 . S
C10 O24 1.275 1_655 S
C10 O25 1.256 . S
C11 O26 1.259 . S
C11 O27 1.268 . S
C12 Ho1 2.811 . S
C12 C13 1.488 . S
C12 O28 1.215 . S
C12 O29 1.289 1_554 S
C13 C12 1.488 . S
C13 C14 1.348 1_554 S
C13 C18 1.413 . S
C14 C13 1.348 1_556 S
C14 C15 1.442 . S
C14 H36 0.930 . S
C15 C14 1.442 . S
C15 C16 1.381 1_556 S
C15 H37 0.931 . S
C16 C15 1.381 1_554 S
C16 C17 1.321 . S
C17 C16 1.321 . S
C17 C18 1.403 . S
C17 H38 0.934 . S
C18 C13 1.413 . S
C18 C17 1.403 . S
C18 H39 0.930 . S
C19 O30 1.275 1_455 S
C19 O31 1.256 . S
O20 Ho0 2.322 . S
O20 C2 1.259 . S
O21 Ho1 2.346 1_455 S
O21 C2 1.268 1_554 S
O22 Ho0 2.378 . S
O22 C3 1.215 . S
O23 Ho0 2.524 1_554 S
O23 C3 1.289 1_554 S
O24 Ho0 2.381 . S
O24 C10 1.275 1_455 S
O25 Ho0 2.669 1_655 S
O25 Ho1 2.305 1_556 S
O25 C10 1.256 . S
O26 Ho1 2.322 . S
O26 C11 1.259 . S
O27 Ho0 2.346 1_654 S
O27 C11 1.268 . S
O28 Ho1 2.378 . S
O28 C12 1.215 . S
O29 Ho1 2.524 1_556 S
O29 C12 1.289 1_556 S
O30 Ho1 2.381 . S
O30 C19 1.275 1_655 S
O31 Ho0 2.305 1_554 S
O31 Ho1 2.669 1_455 S
O31 C19 1.256 . S
H32 C5 0.930 . S
H33 C6 0.931 . S
H34 C8 0.934 . S
H35 C9 0.930 . S
H36 C14 0.930 . S
H37 C15 0.931 . S
H38 C17 0.934 . S
H39 C18 0.930 . S
Ho40 C43 2.811 . S
Ho40 O60 2.322 . S
Ho40 O62 2.378 . S
Ho40 O63 2.524 1_556 S
Ho40 O64 2.381 . S
Ho40 O65 2.669 . S
Ho40 O67 2.346 1_556 S
Ho40 O71 2.305 1_556 S
Ho41 C52 2.811 . S
Ho41 O61 2.346 . S
Ho41 O65 2.305 1_554 S
Ho41 O66 2.322 . S
Ho41 O68 2.378 . S
Ho41 O69 2.524 1_554 S
Ho41 O70 2.381 . S
Ho41 O71 2.669 . S
C42 O60 1.259 . S
C42 O61 1.268 1_556 S
C43 Ho40 2.811 . S
C43 C44 1.488 . S
C43 O62 1.215 . S
C43 O63 1.289 1_556 S
C44 C43 1.488 . S
C44 C45 1.348 1_556 S
C44 C49 1.413 . S
C45 C44 1.348 1_554 S
C45 C46 1.442 . S
C45 H72 0.930 . S
C46 C45 1.442 . S
C46 C47 1.381 1_554 S
C46 H73 0.931 . S
C47 C46 1.381 1_556 S
C47 C48 1.321 . S
C48 C47 1.321 . S
C48 C49 1.403 . S
C48 H74 0.934 . S
C49 C44 1.413 . S
C49 C48 1.403 . S
C49 H75 0.930 . S
C50 O64 1.275 . S
C50 O65 1.256 . S
C51 O66 1.259 . S
C51 O67 1.268 . S
C52 Ho41 2.811 . S
C52 C53 1.488 . S
C52 O68 1.215 . S
C52 O69 1.289 1_554 S
C53 C52 1.488 . S
C53 C54 1.348 1_554 S
C53 C58 1.413 . S
C54 C53 1.348 1_556 S
C54 C55 1.442 . S
C54 H76 0.930 . S
C55 C54 1.442 . S
C55 C56 1.381 1_556 S
C55 H77 0.931 . S
C56 C55 1.381 1_554 S
C56 C57 1.321 . S
C57 C56 1.321 . S
C57 C58 1.403 . S
C57 H78 0.934 . S
C58 C53 1.413 . S
C58 C57 1.403 . S
C58 H79 0.930 . S
C59 O70 1.275 . S
C59 O71 1.256 . S
O60 Ho40 2.322 . S
O60 C42 1.259 . S
O61 Ho41 2.346 . S
O61 C42 1.268 1_554 S
O62 Ho40 2.378 . S
O62 C43 1.215 . S
O63 Ho40 2.524 1_554 S
O63 C43 1.289 1_554 S
O64 Ho40 2.381 . S
O64 C50 1.275 . S
O65 Ho40 2.669 . S
O65 Ho41 2.305 1_556 S
O65 C50 1.256 . S
O66 Ho41 2.322 . S
O66 C51 1.259 . S
O67 Ho40 2.346 1_554 S
O67 C51 1.268 . S
O68 Ho41 2.378 . S
O68 C52 1.215 . S
O69 Ho41 2.524 1_556 S
O69 C52 1.289 1_556 S
O70 Ho41 2.381 . S
O70 C59 1.275 . S
O71 Ho40 2.305 1_554 S
O71 Ho41 2.669 . S
O71 C59 1.256 . S
H72 C45 0.930 . S
H73 C46 0.931 . S
H74 C48 0.934 . S
H75 C49 0.930 . S
H76 C54 0.930 . S
H77 C55 0.931 . S
H78 C57 0.934 . S
H79 C58 0.930 . S
Ho80 C83 2.811 . S
Ho80 O100 2.322 . S
Ho80 O102 2.378 . S
Ho80 O103 2.524 1_556 S
Ho80 O104 2.381 . S
Ho80 O105 2.669 1_565 S
Ho80 O107 2.346 1_566 S
Ho80 O111 2.305 1_556 S
Ho81 C92 2.811 . S
Ho81 O101 2.346 1_545 S
Ho81 O105 2.305 1_554 S
Ho81 O106 2.322 . S
Ho81 O108 2.378 . S
Ho81 O109 2.524 1_554 S
Ho81 O110 2.381 . S
Ho81 O111 2.669 1_545 S
C82 O100 1.259 . S
C82 O101 1.268 1_556 S
C83 Ho80 2.811 . S
C83 C84 1.488 . S
C83 O102 1.215 . S
C83 O103 1.289 1_556 S
C84 C83 1.488 . S
C84 C85 1.348 1_556 S
C84 C89 1.413 . S
C85 C84 1.348 1_554 S
C85 C86 1.442 . S
C85 H112 0.930 . S
C86 C85 1.442 . S
C86 C87 1.381 1_554 S
C86 H113 0.931 . S
C87 C86 1.381 1_556 S
C87 C88 1.321 . S
C88 C87 1.321 . S
C88 C89 1.403 . S
C88 H114 0.934 . S
C89 C84 1.413 . S
C89 C88 1.403 . S
C89 H115 0.930 . S
C90 O104 1.275 1_545 S
C90 O105 1.256 . S
C91 O106 1.259 . S
C91 O107 1.268 . S
C92 Ho81 2.811 . S
C92 C93 1.488 . S
C92 O108 1.215 . S
C92 O109 1.289 1_554 S
C93 C92 1.488 . S
C93 C94 1.348 1_554 S
C93 C98 1.413 . S
C94 C93 1.348 1_556 S
C94 C95 1.442 . S
C94 H116 0.930 . S
C95 C94 1.442 . S
C95 C96 1.381 1_556 S
C95 H117 0.931 . S
C96 C95 1.381 1_554 S
C96 C97 1.321 . S
C97 C96 1.321 . S
C97 C98 1.403 . S
C97 H118 0.934 . S
C98 C93 1.413 . S
C98 C97 1.403 . S
C98 H119 0.930 . S
C99 O110 1.275 1_565 S
C99 O111 1.256 . S
O100 Ho80 2.322 . S
O100 C82 1.259 . S
O101 Ho81 2.346 1_565 S
O101 C82 1.268 1_554 S
O102 Ho80 2.378 . S
O102 C83 1.215 . S
O103 Ho80 2.524 1_554 S
O103 C83 1.289 1_554 S
O104 Ho80 2.381 . S
O104 C90 1.275 1_565 S
O105 Ho80 2.669 1_545 S
O105 Ho81 2.305 1_556 S
O105 C90 1.256 . S
O106 Ho81 2.322 . S
O106 C91 1.259 . S
O107 Ho80 2.346 1_544 S
O107 C91 1.268 . S
O108 Ho81 2.378 . S
O108 C92 1.215 . S
O109 Ho81 2.524 1_556 S
O109 C92 1.289 1_556 S
O110 Ho81 2.381 . S
O110 C99 1.275 1_545 S
O111 Ho80 2.305 1_554 S
O111 Ho81 2.669 1_565 S
O111 C99 1.256 . S
H112 C85 0.930 . S
H113 C86 0.931 . S
H114 C88 0.934 . S
H115 C89 0.930 . S
H116 C94 0.930 . S
H117 C95 0.931 . S
H118 C97 0.934 . S
H119 C98 0.930 . S
Ho120 C123 2.811 . S
Ho120 O140 2.322 . S
Ho120 O142 2.378 . S
Ho120 O143 2.524 . S
Ho120 O144 2.381 . S
Ho120 O145 2.669 . S
Ho120 O147 2.346 . S
Ho120 O151 2.305 . S
Ho121 C132 2.811 . S
Ho121 O141 2.346 . S
Ho121 O145 2.305 . S
Ho121 O146 2.322 . S
Ho121 O148 2.378 . S
Ho121 O149 2.524 . S
Ho121 O150 2.381 . S
Ho121 O151 2.669 . S
C122 O140 1.259 . S
C122 O141 1.268 . S
C123 Ho120 2.811 . S
C123 C124 1.488 . S
C123 O142 1.215 . S
C123 O143 1.289 . S
C124 C123 1.488 . S
C124 C125 1.348 . S
C124 C129 1.413 . S
C125 C124 1.348 . S
C125 C126 1.442 1_565 S
C125 H152 0.930 . S
C126 C125 1.442 1_545 S
C126 C127 1.381 . S
C126 H153 0.931 . S
C127 C126 1.381 . S
C127 C128 1.321 . S
C128 C127 1.321 . S
C128 C129 1.403 1_545 S
C128 H154 0.934 . S
C129 C124 1.413 . S
C129 C128 1.403 1_565 S
C129 H155 0.930 . S
C130 O144 1.275 . S
C130 O145 1.256 . S
C131 O146 1.259 . S
C131 O147 1.268 . S
C132 Ho121 2.811 . S
C132 C133 1.488 . S
C132 O148 1.215 . S
C132 O149 1.289 . S
C133 C132 1.488 . S
C133 C134 1.348 . S
C133 C138 1.413 . S
C134 C133 1.348 . S
C134 C135 1.442 . S
C134 H156 0.930 . S
C135 C134 1.442 . S
C135 C136 1.381 . S
C135 H157 0.931 . S
C136 C135 1.381 . S
C136 C137 1.321 . S
C137 C136 1.321 . S
C137 C138 1.403 . S
C137 H158 0.934 . S
C138 C133 1.413 . S
C138 C137 1.403 . S
C138 H159 0.930 . S
C139 O150 1.275 . S
C139 O151 1.256 . S
O140 Ho120 2.322 . S
O140 C122 1.259 . S
O141 Ho121 2.346 . S
O141 C122 1.268 . S
O142 Ho120 2.378 . S
O142 C123 1.215 . S
O143 Ho120 2.524 . S
O143 C123 1.289 . S
O144 Ho120 2.381 . S
O144 C130 1.275 . S
O145 Ho120 2.669 . S
O145 Ho121 2.305 . S
O145 C130 1.256 . S
O146 Ho121 2.322 . S
O146 C131 1.259 . S
O147 Ho120 2.346 . S
O147 C131 1.268 . S
O148 Ho121 2.378 . S
O148 C132 1.215 . S
O149 Ho121 2.524 . S
O149 C132 1.289 . S
O150 Ho121 2.381 . S
O150 C139 1.275 . S
O151 Ho120 2.305 . S
O151 Ho121 2.669 . S
O151 C139 1.256 . S
H152 C125 0.930 . S
H153 C126 0.931 . S
H154 C128 0.934 . S
H155 C129 0.930 . S
H156 C134 0.930 . S
H157 C135 0.931 . S
H158 C137 0.934 . S
H159 C138 0.930 . S
Ho160 C163 2.811 . S
Ho160 O180 2.322 . S
Ho160 O182 2.378 . S
Ho160 O183 2.524 . S
Ho160 O184 2.381 . S
Ho160 O185 2.669 . S
Ho160 O187 2.346 . S
Ho160 O191 2.305 . S
Ho161 C172 2.811 . S
Ho161 O181 2.346 . S
Ho161 O185 2.305 . S
Ho161 O186 2.322 . S
Ho161 O188 2.378 . S
Ho161 O189 2.524 . S
Ho161 O190 2.381 . S
Ho161 O191 2.669 . S
C162 O180 1.259 . S
C162 O181 1.268 . S
C163 Ho160 2.811 . S
C163 C164 1.488 . S
C163 O182 1.215 . S
C163 O183 1.289 . S
C164 C163 1.488 . S
C164 C165 1.348 . S
C164 C169 1.413 . S
C165 C164 1.348 . S
C165 C166 1.422 1_455 S
C165 H192 0.930 . S
C166 C165 1.422 1_655 S
C166 C167 1.391 . S
C166 H193 0.940 . S
C167 C166 1.391 . S
C167 C168 1.321 . S
C168 C167 1.321 . S
C168 C169 1.403 1_655 S
C168 H194 0.934 . S
C169 C164 1.413 . S
C169 C168 1.403 1_455 S
C169 H195 0.930 . S
C170 O184 1.275 . S
C170 O185 1.256 . S
C171 O186 1.259 . S
C171 O187 1.268 . S
C172 Ho161 2.811 . S
C172 C173 1.488 . S
C172 O188 1.215 . S
C172 O189 1.289 . S
C173 C172 1.488 . S
C173 C174 1.348 . S
C173 C178 1.413 . S
C174 C173 1.348 . S
C174 C175 1.442 . S
C174 H196 0.930 . S
C175 C174 1.442 . S
C175 C176 1.381 . S
C175 H197 0.931 . S
C176 C175 1.381 . S
C176 C177 1.321 . S
C177 C176 1.321 . S
C177 C178 1.403 . S
C177 H198 0.934 . S
C178 C173 1.413 . S
C178 C177 1.403 . S
C178 H199 0.930 . S
C179 O190 1.275 . S
C179 O191 1.256 . S
O180 Ho160 2.322 . S
O180 C162 1.259 . S
O181 Ho161 2.346 . S
O181 C162 1.268 . S
O182 Ho160 2.378 . S
O182 C163 1.215 . S
O183 Ho160 2.524 . S
O183 C163 1.289 . S
O184 Ho160 2.381 . S
O184 C170 1.275 . S
O185 Ho160 2.669 . S
O185 Ho161 2.305 . S
O185 C170 1.256 . S
O186 Ho161 2.322 . S
O186 C171 1.259 . S
O187 Ho160 2.346 . S
O187 C171 1.268 . S
O188 Ho161 2.378 . S
O188 C172 1.215 . S
O189 Ho161 2.524 . S
O189 C172 1.289 . S
O190 Ho161 2.381 . S
O190 C179 1.275 . S
O191 Ho160 2.305 . S
O191 Ho161 2.669 . S
O191 C179 1.256 . S
H192 C165 0.930 . S
H193 C166 0.940 . S
H194 C168 0.934 . S
H195 C169 0.930 . S
H196 C174 0.930 . S
H197 C175 0.931 . S
H198 C177 0.934 . S
H199 C178 0.930 . S
Ho200 C203 2.811 . S
Ho200 O220 2.322 . S
Ho200 O222 2.378 . S
Ho200 O223 2.524 . S
Ho200 O224 2.381 . S
Ho200 O225 2.669 . S
Ho200 O227 2.346 . S
Ho200 O231 2.305 . S
Ho201 C212 2.811 . S
Ho201 O221 2.346 . S
Ho201 O225 2.305 . S
Ho201 O226 2.322 . S
Ho201 O228 2.378 . S
Ho201 O229 2.524 . S
Ho201 O230 2.381 . S
Ho201 O231 2.669 . S
C202 O220 1.259 . S
C202 O221 1.268 . S
C203 Ho200 2.811 . S
C203 C204 1.488 . S
C203 O222 1.215 . S
C203 O223 1.289 . S
C204 C203 1.488 . S
C204 C205 1.348 . S
C204 C209 1.413 . S
C205 C204 1.348 . S
C205 C206 1.442 . S
C205 H232 0.930 . S
C206 C205 1.442 . S
C206 C207 1.381 . S
C206 H233 0.931 . S
C207 C206 1.381 . S
C207 C208 1.321 . S
C208 C207 1.321 . S
C208 C209 1.403 . S
C208 H234 0.934 . S
C209 C204 1.413 . S
C209 C208 1.403 . S
C209 H235 0.930 . S
C210 O224 1.275 . S
C210 O225 1.256 . S
C211 O226 1.259 . S
C211 O227 1.268 . S
C212 Ho201 2.811 . S
C212 C213 1.488 . S
C212 O228 1.215 . S
C212 O229 1.289 . S
C213 C212 1.488 . S
C213 C214 1.348 . S
C213 C218 1.413 . S
C214 C213 1.348 . S
C214 C215 1.442 . S
C214 H236 0.930 . S
C215 C214 1.442 . S
C215 C216 1.381 . S
C215 H237 0.931 . S
C216 C215 1.381 . S
C216 C217 1.321 . S
C217 C216 1.321 . S
C217 C218 1.403 . S
C217 H238 0.934 . S
C218 C213 1.413 . S
C218 C217 1.403 . S
C218 H239 0.930 . S
C219 O230 1.275 . S
C219 O231 1.256 . S
O220 Ho200 2.322 . S
O220 C202 1.259 . S
O221 Ho201 2.346 . S
O221 C202 1.268 . S
O222 Ho200 2.378 . S
O222 C203 1.215 . S
O223 Ho200 2.524 . S
O223 C203 1.289 . S
O224 Ho200 2.381 . S
O224 C210 1.275 . S
O225 Ho200 2.669 . S
O225 Ho201 2.305 . S
O225 C210 1.256 . S
O226 Ho201 2.322 . S
O226 C211 1.259 . S
O227 Ho200 2.346 . S
O227 C211 1.268 . S
O228 Ho201 2.378 . S
O228 C212 1.215 . S
O229 Ho201 2.524 . S
O229 C212 1.289 . S
O230 Ho201 2.381 . S
O230 C219 1.275 . S
O231 Ho200 2.305 . S
O231 Ho201 2.669 . S
O231 C219 1.256 . S
H232 C205 0.930 . S
H233 C206 0.931 . S
H234 C208 0.934 . S
H235 C209 0.930 . S
H236 C214 0.930 . S
H237 C215 0.931 . S
H238 C217 0.934 . S
H239 C218 0.930 . S
Ho240 C243 2.811 . S
Ho240 O260 2.322 . S
Ho240 O262 2.378 . S
Ho240 O263 2.524 . S
Ho240 O264 2.381 . S
Ho240 O265 2.669 . S
Ho240 O267 2.346 . S
Ho240 O271 2.305 . S
Ho241 C252 2.811 1_545 S
Ho241 O261 2.346 . S
Ho241 O265 2.305 . S
Ho241 O266 2.322 . S
Ho241 O268 2.378 1_545 S
Ho241 O269 2.524 . S
Ho241 O270 2.381 . S
Ho241 O271 2.669 . S
C242 O260 1.259 . S
C242 O261 1.268 . S
C243 Ho240 2.811 . S
C243 C244 1.488 . S
C243 O262 1.215 . S
C243 O263 1.289 . S
C244 C243 1.488 . S
C244 C245 1.348 . S
C244 C249 1.413 . S
C245 C244 1.348 . S
C245 C246 1.442 . S
C245 H272 0.930 . S
C246 C245 1.442 . S
C246 C247 1.381 . S
C246 H273 0.931 . S
C247 C246 1.381 . S
C247 C248 1.321 . S
C248 C247 1.321 . S
C248 C249 1.403 . S
C248 H274 0.934 . S
C249 C244 1.413 . S
C249 C248 1.403 . S
C249 H275 0.930 . S
C250 O264 1.275 . S
C250 O265 1.256 . S
C251 O266 1.259 . S
C251 O267 1.268 . S
C252 Ho241 2.811 1_565 S
C252 C253 1.488 . S
C252 O268 1.215 . S
C252 O269 1.289 1_565 S
C253 C252 1.488 . S
C253 C254 1.348 . S
C253 C258 1.413 . S
C254 C253 1.348 . S
C254 C255 1.442 . S
C254 H276 0.930 . S
C255 C254 1.442 . S
C255 C256 1.381 . S
C255 H277 0.931 . S
C256 C255 1.381 . S
C256 C257 1.321 . S
C257 C256 1.321 . S
C257 C258 1.403 . S
C257 H278 0.934 . S
C258 C253 1.413 . S
C258 C257 1.403 . S
C258 H279 0.930 . S
C259 O270 1.275 . S
C259 O271 1.256 . S
O260 Ho240 2.322 . S
O260 C242 1.259 . S
O261 Ho241 2.346 . S
O261 C242 1.268 . S
O262 Ho240 2.378 . S
O262 C243 1.215 . S
O263 Ho240 2.524 . S
O263 C243 1.289 . S
O264 Ho240 2.381 . S
O264 C250 1.275 . S
O265 Ho240 2.669 . S
O265 Ho241 2.305 . S
O265 C250 1.256 . S
O266 Ho241 2.322 . S
O266 C251 1.259 . S
O267 Ho240 2.346 . S
O267 C251 1.268 . S
O268 Ho241 2.378 1_565 S
O268 C252 1.215 . S
O269 Ho241 2.524 . S
O269 C252 1.289 1_545 S
O270 Ho241 2.381 . S
O270 C259 1.275 . S
O271 Ho240 2.305 . S
O271 Ho241 2.669 . S
O271 C259 1.256 . S
H272 C245 0.930 . S
H273 C246 0.931 . S
H274 C248 0.934 . S
H275 C249 0.930 . S
H276 C254 0.930 . S
H277 C255 0.931 . S
H278 C257 0.934 . S
H279 C258 0.930 . S
Ho280 C283 2.811 . S
Ho280 O300 2.322 . S
Ho280 O302 2.378 . S
Ho280 O303 2.524 . S
Ho280 O304 2.381 . S
Ho280 O305 2.669 . S
Ho280 O307 2.346 . S
Ho280 O311 2.305 . S
Ho281 C292 2.811 1_655 S
Ho281 O301 2.346 . S
Ho281 O305 2.305 . S
Ho281 O306 2.322 . S
Ho281 O308 2.378 1_655 S
Ho281 O309 2.524 1_655 S
Ho281 O310 2.381 . S
Ho281 O311 2.669 . S
C282 O300 1.259 . S
C282 O301 1.268 . S
C283 Ho280 2.811 . S
C283 C284 1.488 . S
C283 O302 1.215 . S
C283 O303 1.289 . S
C284 C283 1.488 . S
C284 C285 1.348 . S
C284 C289 1.413 . S
C285 C284 1.348 . S
C285 C286 1.442 . S
C285 H312 0.930 . S
C286 C285 1.442 . S
C286 C287 1.381 . S
C286 H313 0.931 . S
C287 C286 1.381 . S
C287 C288 1.321 . S
C288 C287 1.321 . S
C288 C289 1.403 . S
C288 H314 0.934 . S
C289 C284 1.413 . S
C289 C288 1.403 . S
C289 H315 0.930 . S
C290 O304 1.275 . S
C290 O305 1.256 . S
C291 O306 1.259 . S
C291 O307 1.268 . S
C292 Ho281 2.811 1_455 S
C292 C293 1.488 . S
C292 O308 1.215 . S
C292 O309 1.289 . S
C293 C292 1.488 . S
C293 C294 1.348 . S
C293 C298 1.413 . S
C294 C293 1.348 . S
C294 C295 1.442 . S
C294 H316 0.930 . S
C295 C294 1.442 . S
C295 C296 1.381 . S
C295 H317 0.931 . S
C296 C295 1.381 . S
C296 C297 1.321 . S
C297 C296 1.321 . S
C297 C298 1.403 . S
C297 H318 0.934 . S
C298 C293 1.413 . S
C298 C297 1.403 . S
C298 H319 0.930 . S
C299 O310 1.275 . S
C299 O311 1.256 . S
O300 Ho280 2.322 . S
O300 C282 1.259 . S
O301 Ho281 2.346 . S
O301 C282 1.268 . S
O302 Ho280 2.378 . S
O302 C283 1.215 . S
O303 Ho280 2.524 . S
O303 C283 1.289 . S
O304 Ho280 2.381 . S
O304 C290 1.275 . S
O305 Ho280 2.669 . S
O305 Ho281 2.305 . S
O305 C290 1.256 . S
O306 Ho281 2.322 . S
O306 C291 1.259 . S
O307 Ho280 2.346 . S
O307 C291 1.268 . S
O308 Ho281 2.378 1_455 S
O308 C292 1.215 . S
O309 Ho281 2.524 1_455 S
O309 C292 1.289 . S
O310 Ho281 2.381 . S
O310 C299 1.275 . S
O311 Ho280 2.305 . S
O311 Ho281 2.669 . S
O311 C299 1.256 . S
H312 C285 0.930 . S
H313 C286 0.931 . S
H314 C288 0.934 . S
H315 C289 0.930 . S
H316 C294 0.930 . S
H317 C295 0.931 . S
H318 C297 0.934 . S
H319 C298 0.930 . S
Ho320 C323 2.811 . S
Ho320 O340 2.322 . S
Ho320 O342 2.378 . S
Ho320 O343 2.524 . S
Ho320 O344 2.381 . S
Ho320 O345 2.669 . S
Ho320 O347 2.346 . S
Ho320 O351 2.305 . S
Ho321 C332 2.811 . S
Ho321 O341 2.346 . S
Ho321 O345 2.305 . S
Ho321 O346 2.322 . S
Ho321 O348 2.378 . S
Ho321 O349 2.524 . S
Ho321 O350 2.381 . S
Ho321 O351 2.669 . S
C322 O340 1.259 . S
C322 O341 1.268 . S
C323 Ho320 2.811 . S
C323 C324 1.488 . S
C323 O342 1.215 . S
C323 O343 1.289 . S
C324 C323 1.488 . S
C324 C325 1.348 . S
C324 C329 1.413 . S
C325 C324 1.348 . S
C325 C326 1.442 . S
C325 H352 0.930 . S
C326 C325 1.442 . S
C326 C327 1.381 . S
C326 H353 0.931 . S
C327 C326 1.381 . S
C327 C328 1.321 . S
C328 C327 1.321 . S
C328 C329 1.403 . S
C328 H354 0.934 . S
C329 C324 1.413 . S
C329 C328 1.403 . S
C329 H355 0.930 . S
C330 O344 1.275 . S
C330 O345 1.256 . S
C331 O346 1.259 . S
C331 O347 1.268 . S
C332 Ho321 2.811 . S
C332 C333 1.488 . S
C332 O348 1.215 . S
C332 O349 1.289 . S
C333 C332 1.488 . S
C333 C334 1.348 . S
C333 C338 1.413 . S
C334 C333 1.348 . S
C334 C335 1.442 . S
C334 H356 0.930 . S
C335 C334 1.442 . S
C335 C336 1.381 . S
C335 H357 0.931 . S
C336 C335 1.381 . S
C336 C337 1.321 . S
C337 C336 1.321 . S
C337 C338 1.403 . S
C337 H358 0.934 . S
C338 C333 1.413 . S
C338 C337 1.403 . S
C338 H359 0.930 . S
C339 O350 1.275 . S
C339 O351 1.256 . S
O340 Ho320 2.322 . S
O340 C322 1.259 . S
O341 Ho321 2.346 . S
O341 C322 1.268 . S
O342 Ho320 2.378 . S
O342 C323 1.215 . S
O343 Ho320 2.524 . S
O343 C323 1.289 . S
O344 Ho320 2.381 . S
O344 C330 1.275 . S
O345 Ho320 2.669 . S
O345 Ho321 2.305 . S
O345 C330 1.256 . S
O346 Ho321 2.322 . S
O346 C331 1.259 . S
O347 Ho320 2.346 . S
O347 C331 1.268 . S
O348 Ho321 2.378 . S
O348 C332 1.215 . S
O349 Ho321 2.524 . S
O349 C332 1.289 . S
O350 Ho321 2.381 . S
O350 C339 1.275 . S
O351 Ho320 2.305 . S
O351 Ho321 2.669 . S
O351 C339 1.256 . S
H352 C325 0.930 . S
H353 C326 0.931 . S
H354 C328 0.934 . S
H355 C329 0.930 . S
H356 C334 0.930 . S
H357 C335 0.931 . S
H358 C337 0.934 . S
H359 C338 0.930 . S
C360 C361 1.363 1_554 S
C360 C366 1.379 . S
C360 N368 1.356 . S
C361 C360 1.363 1_556 S
C361 C367 1.363 . S
C362 C363 1.363 . S
C362 C367 1.379 . S
C362 N369 1.356 . S
C363 C362 1.363 . S
C363 C366 1.363 1_556 S
N364 C366 1.356 . S
N364 H376 0.984 . S
N364 H377 0.985 . S
N365 C367 1.356 . S
N365 H370 0.984 . S
N365 H371 0.985 . S
C366 C360 1.379 . S
C366 C363 1.363 1_554 S
C366 N364 1.356 . S
C367 C361 1.363 . S
C367 C362 1.379 . S
C367 N365 1.356 . S
N368 C360 1.356 . S
N368 H374 0.984 . S
N368 H375 0.984 . S
N369 C362 1.356 . S
N369 H372 0.984 . S
N369 H373 0.985 . S
H370 N365 0.984 . S
H371 N365 0.985 . S
H372 N369 0.984 . S
H373 N369 0.985 . S
H374 N368 0.984 . S
H375 N368 0.984 . S
H376 N364 0.984 . S
H377 N364 0.985 . S
C378 C379 1.363 1_554 S
C378 C384 1.379 . S
C378 N386 1.356 . S
C379 C378 1.363 1_556 S
C379 C385 1.363 . S
C380 C381 1.363 . S
C380 C385 1.379 . S
C380 N387 1.356 . S
C381 C380 1.363 . S
C381 C384 1.363 1_556 S
N382 C384 1.356 . S
N382 H394 0.984 . S
N382 H395 0.985 . S
N383 C385 1.356 . S
N383 H388 0.984 . S
N383 H389 0.985 . S
C384 C378 1.379 . S
C384 C381 1.363 1_554 S
C384 N382 1.356 . S
C385 C379 1.363 . S
C385 C380 1.379 . S
C385 N383 1.356 . S
N386 C378 1.356 . S
N386 H392 0.984 . S
N386 H393 0.984 . S
N387 C380 1.356 . S
N387 H390 0.984 . S
N387 H391 0.985 . S
H388 N383 0.984 . S
H389 N383 0.985 . S
H390 N387 0.984 . S
H391 N387 0.985 . S
H392 N386 0.984 . S
H393 N386 0.984 . S
H394 N382 0.984 . S
H395 N382 0.985 . S
C396 C397 1.363 . S
C396 C402 1.379 . S
C396 N404 1.356 . S
C397 C396 1.363 . S
C397 C403 1.363 1_556 S
C398 C399 1.363 1_554 S
C398 C403 1.379 . S
C398 N405 1.356 . S
C399 C398 1.363 1_556 S
C399 C402 1.363 . S
N400 C402 1.356 . S
N400 H412 0.984 . S
N400 H413 0.985 . S
N401 C403 1.356 . S
N401 H406 0.984 . S
N401 H407 0.985 . S
C402 C396 1.379 . S
C402 C399 1.363 . S
C402 N400 1.356 . S
C403 C397 1.363 1_554 S
C403 C398 1.379 . S
C403 N401 1.356 . S
N404 C396 1.356 . S
N404 H410 0.984 . S
N404 H411 0.984 . S
N405 C398 1.356 . S
N405 H408 0.984 . S
N405 H409 0.985 . S
H406 N401 0.984 . S
H407 N401 0.985 . S
H408 N405 0.984 . S
H409 N405 0.985 . S
H410 N404 0.984 . S
H411 N404 0.984 . S
H412 N400 0.984 . S
H413 N400 0.985 . S
C414 C415 1.363 1_556 S
C414 C420 1.379 . S
C414 N422 1.356 . S
C415 C414 1.363 1_554 S
C415 C421 1.363 . S
C416 C417 1.363 . S
C416 C421 1.379 . S
C416 N423 1.356 . S
C417 C416 1.363 . S
C417 C420 1.363 1_554 S
N418 C420 1.356 . S
N418 H430 0.984 . S
N418 H431 0.985 . S
N419 C421 1.356 . S
N419 H424 0.984 . S
N419 H425 0.985 . S
C420 C414 1.379 . S
C420 C417 1.363 1_556 S
C420 N418 1.356 . S
C421 C415 1.363 . S
C421 C416 1.379 . S
C421 N419 1.356 . S
N422 C414 1.356 . S
N422 H428 0.984 . S
N422 H429 0.984 . S
N423 C416 1.356 . S
N423 H426 0.984 . S
N423 H427 0.985 . S
H424 N419 0.984 . S
H425 N419 0.985 . S
H426 N423 0.984 . S
H427 N423 0.985 . S
H428 N422 0.984 . S
H429 N422 0.984 . S
H430 N418 0.984 . S
H431 N418 0.985 . S
C432 C433 1.363 . S
C432 C438 1.379 . S
C432 N440 1.356 . S
C433 C432 1.363 . S
C433 C439 1.363 1_554 S
C434 C435 1.363 1_556 S
C434 C439 1.379 . S
C434 N441 1.356 . S
C435 C434 1.363 1_554 S
C435 C438 1.363 . S
N436 C438 1.356 . S
N436 H448 0.984 . S
N436 H449 0.985 . S
N437 C439 1.356 . S
N437 H442 0.984 . S
N437 H443 0.985 . S
C438 C432 1.379 . S
C438 C435 1.363 . S
C438 N436 1.356 . S
C439 C433 1.363 1_556 S
C439 C434 1.379 . S
C439 N437 1.356 . S
N440 C432 1.356 . S
N440 H446 0.984 . S
N440 H447 0.984 . S
N441 C434 1.356 . S
N441 H444 0.984 . S
N441 H445 0.985 . S
H442 N437 0.984 . S
H443 N437 0.985 . S
H444 N441 0.984 . S
H445 N441 0.985 . S
H446 N440 0.984 . S
H447 N440 0.984 . S
H448 N436 0.984 . S
H449 N436 0.985 . S
C450 C451 1.363 1_556 S
C450 C456 1.379 . S
C450 N458 1.356 . S
C451 C450 1.363 1_554 S
C451 C457 1.363 . S
C452 C453 1.363 . S
C452 C457 1.379 . S
C452 N459 1.356 . S
C453 C452 1.363 . S
C453 C456 1.363 1_554 S
N454 C456 1.356 . S
N454 H466 0.984 . S
N454 H467 0.985 . S
N455 C457 1.356 . S
N455 H460 0.984 . S
N455 H461 0.985 . S
C456 C450 1.379 . S
C456 C453 1.363 1_556 S
C456 N454 1.356 . S
C457 C451 1.363 . S
C457 C452 1.379 . S
C457 N455 1.356 . S
N458 C450 1.356 . S
N458 H464 0.984 . S
N458 H465 0.984 . S
N459 C452 1.356 . S
N459 H462 0.984 . S
N459 H463 0.985 . S
H460 N455 0.984 . S
H461 N455 0.985 . S
H462 N459 0.984 . S
H463 N459 0.985 . S
H464 N458 0.984 . S
H465 N458 0.984 . S
H466 N454 0.984 . S
H467 N454 0.985 . S
C468 C469 1.363 . S
C468 C474 1.379 . S
C468 N476 1.356 . S
C469 C468 1.363 . S
C469 C475 1.363 . S
C470 C471 1.363 . S
C470 C475 1.379 . S
C470 N477 1.356 . S
C471 C470 1.363 . S
C471 C474 1.363 . S
N472 C474 1.356 . S
N472 H484 0.984 . S
N472 H485 0.985 . S
N473 C475 1.356 . S
N473 H478 0.984 . S
N473 H479 0.985 . S
C474 C468 1.379 . S
C474 C471 1.363 . S
C474 N472 1.356 . S
C475 C469 1.363 . S
C475 C470 1.379 . S
C475 N473 1.356 . S
N476 C468 1.356 . S
N476 H482 0.984 . S
N476 H483 0.984 . S
N477 C470 1.356 . S
N477 H480 0.984 . S
N477 H481 0.985 . S
H478 N473 0.984 . S
H479 N473 0.985 . S
H480 N477 0.984 . S
H481 N477 0.985 . S
H482 N476 0.984 . S
H483 N476 0.984 . S
H484 N472 0.984 . S
H485 N472 0.985 . S
C486 C487 1.363 . S
C486 C492 1.379 1_545 S
C486 N494 1.356 1_545 S
C487 C486 1.363 . S
C487 C493 1.363 . S
C488 C489 1.363 . S
C488 C493 1.379 . S
C488 N495 1.356 . S
C489 C488 1.363 . S
C489 C492 1.363 1_545 S
N490 C492 1.356 . S
N490 H502 0.984 . S
N490 H503 0.985 . S
N491 C493 1.356 . S
N491 H496 0.984 . S
N491 H497 0.985 . S
C492 C486 1.379 1_565 S
C492 C489 1.363 1_565 S
C492 N490 1.356 . S
C493 C487 1.363 . S
C493 C488 1.379 . S
C493 N491 1.356 . S
N494 C486 1.356 1_565 S
N494 H500 0.984 . S
N494 H501 0.984 1_565 S
N495 C488 1.356 . S
N495 H498 0.984 . S
N495 H499 0.985 . S
H496 N491 0.984 . S
H497 N491 0.985 . S
H498 N495 0.984 . S
H499 N495 0.985 . S
H500 N494 0.984 . S
H501 N494 0.984 1_545 S
H502 N490 0.984 . S
H503 N490 0.985 . S
C504 C505 1.363 1_655 S
C504 C510 1.379 . S
C504 N512 1.356 . S
C505 C504 1.363 1_455 S
C505 C511 1.363 . S
C506 C507 1.363 1_455 S
C506 C511 1.379 . S
C506 N513 1.356 . S
C507 C506 1.363 1_655 S
C507 C510 1.363 . S
N508 C510 1.356 . S
N508 H520 0.984 . S
N508 H521 0.985 . S
N509 C511 1.356 . S
N509 H514 0.984 . S
N509 H515 0.985 . S
C510 C504 1.379 . S
C510 C507 1.363 . S
C510 N508 1.356 . S
C511 C505 1.363 . S
C511 C506 1.379 . S
C511 N509 1.356 . S
N512 C504 1.356 . S
N512 H518 0.984 . S
N512 H519 0.984 . S
N513 C506 1.356 . S
N513 H516 0.984 1_455 S
N513 H517 0.985 . S
H514 N509 0.984 . S
H515 N509 0.985 . S
H516 N513 0.984 1_655 S
H517 N513 0.985 . S
H518 N512 0.984 . S
H519 N512 0.984 . S
H520 N508 0.984 . S
H521 N508 0.985 . S
C522 C523 1.363 . S
C522 C528 1.379 . S
C522 N530 1.356 . S
C523 C522 1.363 . S
C523 C529 1.363 . S
C524 C525 1.363 . S
C524 C529 1.379 . S
C524 N531 1.356 . S
C525 C524 1.363 . S
C525 C528 1.363 . S
N526 C528 1.356 . S
N526 H538 0.984 . S
N526 H539 0.985 . S
N527 C529 1.356 . S
N527 H532 0.984 . S
N527 H533 0.985 . S
C528 C522 1.379 . S
C528 C525 1.363 . S
C528 N526 1.356 . S
C529 C523 1.363 . S
C529 C524 1.379 . S
C529 N527 1.356 . S
N530 C522 1.356 . S
N530 H536 0.984 . S
N530 H537 0.984 . S
N531 C524 1.356 . S
N531 H534 0.984 . S
N531 H535 0.985 . S
H532 N527 0.984 . S
H533 N527 0.985 . S
H534 N531 0.984 . S
H535 N531 0.985 . S
H536 N530 0.984 . S
H537 N530 0.984 . S
H538 N526 0.984 . S
H539 N526 0.985 . S
C540 C541 1.363 . S
C540 C546 1.379 . S
C540 N548 1.356 . S
C541 C540 1.363 . S
C541 C547 1.363 . S
C542 C543 1.363 . S
C542 C547 1.379 . S
C542 N549 1.356 . S
C543 C542 1.363 . S
C543 C546 1.363 . S
N544 C546 1.356 . S
N544 H556 0.984 . S
N544 H557 0.985 . S
N545 C547 1.356 . S
N545 H550 0.984 . S
N545 H551 0.985 . S
C546 C540 1.379 . S
C546 C543 1.363 . S
C546 N544 1.356 . S
C547 C541 1.363 . S
C547 C542 1.379 . S
C547 N545 1.356 . S
N548 C540 1.356 . S
N548 H554 0.984 . S
N548 H555 0.984 . S
N549 C542 1.356 . S
N549 H552 0.984 . S
N549 H553 0.985 . S
H550 N545 0.984 . S
H551 N545 0.985 . S
H552 N549 0.984 . S
H553 N549 0.985 . S
H554 N548 0.984 . S
H555 N548 0.984 . S
H556 N544 0.984 . S
H557 N544 0.985 . S
C558 C559 1.363 . S
C558 C564 1.379 . S
C558 N566 1.356 . S
C559 C558 1.363 . S
C559 C565 1.363 . S
C560 C561 1.363 . S
C560 C565 1.379 . S
C560 N567 1.356 . S
C561 C560 1.363 . S
C561 C564 1.363 . S
N562 C564 1.356 . S
N562 H574 0.984 . S
N562 H575 0.985 . S
N563 C565 1.356 . S
N563 H568 0.984 . S
N563 H569 0.985 . S
C564 C558 1.379 . S
C564 C561 1.363 . S
C564 N562 1.356 . S
C565 C559 1.363 . S
C565 C560 1.379 . S
C565 N563 1.356 . S
N566 C558 1.356 . S
N566 H572 0.984 . S
N566 H573 0.984 . S
N567 C560 1.356 . S
N567 H570 0.984 . S
N567 H571 0.985 . S
H568 N563 0.984 . S
H569 N563 0.985 . S
H570 N567 0.984 . S
H571 N567 0.985 . S
H572 N566 0.984 . S
H573 N566 0.984 . S
H574 N562 0.984 . S
H575 N562 0.985 . S
C576 C577 1.363 . S
C576 C582 1.379 . S
C576 N584 1.356 . S
C577 C576 1.363 . S
C577 C583 1.363 . S
C578 C579 1.363 . S
C578 C583 1.379 . S
C578 N585 1.356 . S
C579 C578 1.363 . S
C579 C582 1.363 . S
N580 C582 1.356 . S
N580 H592 0.984 . S
N580 H593 0.985 . S
N581 C583 1.356 . S
N581 H586 0.984 . S
N581 H587 0.985 . S
C582 C576 1.379 . S
C582 C579 1.363 . S
C582 N580 1.356 . S
C583 C577 1.363 . S
C583 C578 1.379 . S
C583 N581 1.356 . S
N584 C576 1.356 . S
N584 H590 0.984 . S
N584 H591 0.984 . S
N585 C578 1.356 . S
N585 H588 0.984 . S
N585 H589 0.985 . S
H586 N581 0.984 . S
H587 N581 0.985 . S
H588 N585 0.984 . S
H589 N585 0.985 . S
H590 N584 0.984 . S
H591 N584 0.984 . S
H592 N580 0.984 . S
H593 N580 0.985 . S
C594 C595 1.363 . S
C594 C600 1.379 . S
C594 N602 1.356 . S
C595 C594 1.363 . S
C595 C601 1.363 . S
C596 C597 1.363 . S
C596 C601 1.379 . S
C596 N603 1.356 . S
C597 C596 1.363 . S
C597 C600 1.363 . S
N598 C600 1.356 . S
N598 H610 0.984 . S
N598 H611 0.985 . S
N599 C601 1.356 . S
N599 H604 0.984 . S
N599 H605 0.985 . S
C600 C594 1.379 . S
C600 C597 1.363 . S
C600 N598 1.356 . S
C601 C595 1.363 . S
C601 C596 1.379 . S
C601 N599 1.356 . S
N602 C594 1.356 . S
N602 H608 0.984 . S
N602 H609 0.984 . S
N603 C596 1.356 . S
N603 H606 0.984 . S
N603 H607 0.985 . S
H604 N599 0.984 . S
H605 N599 0.985 . S
H606 N603 0.984 . S
H607 N603 0.985 . S
H608 N602 0.984 . S
H609 N602 0.984 . S
H610 N598 0.984 . S
H611 N598 0.985 . S
C612 C613 1.363 . S
C612 C618 1.379 . S
C612 N620 1.356 . S
C613 C612 1.363 . S
C613 C619 1.363 . S
C614 C615 1.363 . S
C614 C619 1.379 . S
C614 N621 1.356 . S
C615 C614 1.363 . S
C615 C618 1.363 . S
N616 C618 1.356 . S
N616 H628 0.984 . S
N616 H629 0.985 . S
N617 C619 1.356 . S
N617 H622 0.984 . S
N617 H623 0.985 . S
C618 C612 1.379 . S
C618 C615 1.363 . S
C618 N616 1.356 . S
C619 C613 1.363 . S
C619 C614 1.379 . S
C619 N617 1.356 . S
N620 C612 1.356 . S
N620 H626 0.984 . S
N620 H627 0.984 . S
N621 C614 1.356 . S
N621 H624 0.984 . S
N621 H625 0.985 . S
H622 N617 0.984 . S
H623 N617 0.985 . S
H624 N621 0.984 . S
H625 N621 0.985 . S
H626 N620 0.984 . S
H627 N620 0.984 . S
H628 N616 0.984 . S
H629 N616 0.985 . S
C630 C631 1.363 1_545 S
C630 C636 1.379 . S
C630 N638 1.356 1_545 S
C631 C630 1.363 1_565 S
C631 C637 1.363 1_565 S
C632 C633 1.363 . S
C632 C637 1.379 . S
C632 N639 1.356 . S
C633 C632 1.363 . S
C633 C636 1.363 . S
N634 C636 1.356 . S
N634 H646 0.984 . S
N634 H647 0.985 . S
N635 C637 1.356 1_565 S
N635 H640 0.984 . S
N635 H641 0.985 1_565 S
C636 C630 1.379 . S
C636 C633 1.363 . S
C636 N634 1.356 . S
C637 C631 1.363 1_545 S
C637 C632 1.379 . S
C637 N635 1.356 1_545 S
N638 C630 1.356 1_565 S
N638 H644 0.984 . S
N638 H645 0.984 . S
N639 C632 1.356 . S
N639 H642 0.984 . S
N639 H643 0.985 . S
H640 N635 0.984 . S
H641 N635 0.985 1_545 S
H642 N639 0.984 . S
H643 N639 0.985 . S
H644 N638 0.984 . S
H645 N638 0.984 . S
H646 N634 0.984 . S
H647 N634 0.985 . S
C648 C649 1.363 . S
C648 C654 1.379 . S
C648 N656 1.356 . S
C649 C648 1.363 . S
C649 C655 1.363 . S
C650 C651 1.363 1_655 S
C650 C655 1.379 . S
C650 N657 1.356 1_655 S
C651 C650 1.363 1_455 S
C651 C654 1.363 1_455 S
N652 C654 1.356 1_455 S
N652 H664 0.984 . S
N652 H665 0.985 . S
N653 C655 1.356 . S
N653 H658 0.984 . S
N653 H659 0.985 . S
C654 C648 1.379 . S
C654 C651 1.363 1_655 S
C654 N652 1.356 1_655 S
C655 C649 1.363 . S
C655 C650 1.379 . S
C655 N653 1.356 . S
N656 C648 1.356 . S
N656 H662 0.984 . S
N656 H663 0.984 . S
N657 C650 1.356 1_455 S
N657 H660 0.984 . S
N657 H661 0.985 . S
H658 N653 0.984 . S
H659 N653 0.985 . S
H660 N657 0.984 . S
H661 N657 0.985 . S
H662 N656 0.984 . S
H663 N656 0.984 . S
H664 N652 0.984 . S
H665 N652 0.985 . S
C666 C667 1.363 . S
C666 C672 1.379 . S
C666 N674 1.356 . S
C667 C666 1.363 . S
C667 C673 1.363 . S
C668 C669 1.363 . S
C668 C673 1.379 . S
C668 N675 1.356 . S
C669 C668 1.363 . S
C669 C672 1.363 . S
N670 C672 1.356 . S
N670 H682 0.984 . S
N670 H683 0.985 . S
N671 C673 1.356 . S
N671 H676 0.984 . S
N671 H677 0.985 . S
C672 C666 1.379 . S
C672 C669 1.363 . S
C672 N670 1.356 . S
C673 C667 1.363 . S
C673 C668 1.379 . S
C673 N671 1.356 . S
N674 C666 1.356 . S
N674 H680 0.984 . S
N674 H681 0.984 . S
N675 C668 1.356 . S
N675 H678 0.984 . S
N675 H679 0.985 . S
H676 N671 0.984 . S
H677 N671 0.985 . S
H678 N675 0.984 . S
H679 N675 0.985 . S
H680 N674 0.984 . S
H681 N674 0.984 . S
H682 N670 0.984 . S
H683 N670 0.985 . S
C684 C685 1.363 . S
C684 C690 1.379 . S
C684 N692 1.356 . S
C685 C684 1.363 . S
C685 C691 1.363 . S
C686 C687 1.363 . S
C686 C691 1.379 . S
C686 N693 1.356 . S
C687 C686 1.363 . S
C687 C690 1.363 . S
N688 C690 1.356 . S
N688 H700 0.984 . S
N688 H701 0.985 . S
N689 C691 1.356 . S
N689 H694 0.984 . S
N689 H695 0.985 . S
C690 C684 1.379 . S
C690 C687 1.363 . S
C690 N688 1.356 . S
C691 C685 1.363 . S
C691 C686 1.379 . S
C691 N689 1.356 . S
N692 C684 1.356 . S
N692 H698 0.984 . S
N692 H699 0.984 . S
N693 C686 1.356 . S
N693 H696 0.984 . S
N693 H697 0.985 . S
H694 N689 0.984 . S
H695 N689 0.985 . S
H696 N693 0.984 . S
H697 N693 0.985 . S
H698 N692 0.984 . S
H699 N692 0.984 . S
H700 N688 0.984 . S
H701 N688 0.985 . S
C702 C703 1.363 . S
C702 C708 1.379 . S
C702 N710 1.356 . S
C703 C702 1.363 . S
C703 C709 1.363 . S
C704 C705 1.363 . S
C704 C709 1.379 . S
C704 N711 1.356 . S
C705 C704 1.363 . S
C705 C708 1.363 . S
N706 C708 1.356 . S
N706 H718 0.984 . S
N706 H719 0.985 . S
N707 C709 1.356 . S
N707 H712 0.984 . S
N707 H713 0.985 . S
C708 C702 1.379 . S
C708 C705 1.363 . S
C708 N706 1.356 . S
C709 C703 1.363 . S
C709 C704 1.379 . S
C709 N707 1.356 . S
N710 C702 1.356 . S
N710 H716 0.984 . S
N710 H717 0.984 . S
N711 C704 1.356 . S
N711 H714 0.984 . S
N711 H715 0.985 . S
H712 N707 0.984 . S
H713 N707 0.985 . S
H714 N711 0.984 . S
H715 N711 0.985 . S
H716 N710 0.984 . S
H717 N710 0.984 . S
H718 N706 0.984 . S
H719 N706 0.985 . S
C720 C721 1.363 . S
C720 C726 1.379 . S
C720 N728 1.356 . S
C721 C720 1.363 . S
C721 C727 1.363 . S
C722 C723 1.363 . S
C722 C727 1.379 . S
C722 N729 1.356 . S
C723 C722 1.363 . S
C723 C726 1.363 . S
N724 C726 1.356 . S
N724 H736 0.984 . S
N724 H737 0.985 . S
N725 C727 1.356 . S
N725 H730 0.984 . S
N725 H731 0.985 . S
C726 C720 1.379 . S
C726 C723 1.363 . S
C726 N724 1.356 . S
C727 C721 1.363 . S
C727 C722 1.379 . S
C727 N725 1.356 . S
N728 C720 1.356 . S
N728 H734 0.984 . S
N728 H735 0.984 . S
N729 C722 1.356 . S
N729 H732 0.984 . S
N729 H733 0.985 . S
H730 N725 0.984 . S
H731 N725 0.985 . S
H732 N729 0.984 . S
H733 N729 0.985 . S
H734 N728 0.984 . S
H735 N728 0.984 . S
H736 N724 0.984 . S
H737 N724 0.985 . S
C738 C739 1.363 . S
C738 C744 1.379 . S
C738 N746 1.356 . S
C739 C738 1.363 . S
C739 C745 1.363 . S
C740 C741 1.363 . S
C740 C745 1.379 . S
C740 N747 1.356 . S
C741 C740 1.363 . S
C741 C744 1.363 . S
N742 C744 1.356 . S
N742 H754 0.984 . S
N742 H755 0.985 . S
N743 C745 1.356 . S
N743 H748 0.984 . S
N743 H749 0.985 . S
C744 C738 1.379 . S
C744 C741 1.363 . S
C744 N742 1.356 . S
C745 C739 1.363 . S
C745 C740 1.379 . S
C745 N743 1.356 . S
N746 C738 1.356 . S
N746 H752 0.984 . S
N746 H753 0.984 . S
N747 C740 1.356 . S
N747 H750 0.984 . S
N747 H751 0.985 . S
H748 N743 0.984 . S
H749 N743 0.985 . S
H750 N747 0.984 . S
H751 N747 0.985 . S
H752 N746 0.984 . S
H753 N746 0.984 . S
H754 N742 0.984 . S
H755 N742 0.985 . S
C756 C757 1.363 . S
C756 C762 1.379 . S
C756 N764 1.356 . S
C757 C756 1.363 . S
C757 C763 1.363 . S
C758 C759 1.363 . S
C758 C763 1.379 . S
C758 N765 1.356 . S
C759 C758 1.363 . S
C759 C762 1.363 . S
N760 C762 1.356 . S
N760 H772 0.984 . S
N760 H773 0.985 . S
N761 C763 1.356 . S
N761 H766 0.984 . S
N761 H767 0.985 . S
C762 C756 1.379 . S
C762 C759 1.363 . S
C762 N760 1.356 . S
C763 C757 1.363 . S
C763 C758 1.379 . S
C763 N761 1.356 . S
N764 C756 1.356 . S
N764 H770 0.984 1_655 S
N764 H771 0.984 1_655 S
N765 C758 1.356 . S
N765 H768 0.984 . S
N765 H769 0.985 . S
H766 N761 0.984 . S
H767 N761 0.985 . S
H768 N765 0.984 . S
H769 N765 0.985 . S
H770 N764 0.984 1_455 S
H771 N764 0.984 1_455 S
H772 N760 0.984 . S
H773 N760 0.985 . S
C774 C775 1.363 . S
C774 C780 1.379 . S
C774 N782 1.356 . S
C775 C774 1.363 . S
C775 C781 1.363 . S
C776 C777 1.363 . S
C776 C781 1.379 . S
C776 N783 1.356 . S
C777 C776 1.363 . S
C777 C780 1.363 . S
N778 C780 1.356 . S
N778 H790 0.984 . S
N778 H791 0.985 . S
N779 C781 1.356 . S
N779 H784 0.984 . S
N779 H785 0.985 . S
C780 C774 1.379 . S
C780 C777 1.363 . S
C780 N778 1.356 . S
C781 C775 1.363 . S
C781 C776 1.379 . S
C781 N779 1.356 . S
N782 C774 1.356 . S
N782 H788 0.984 . S
N782 H789 0.984 . S
N783 C776 1.356 . S
N783 H786 0.984 . S
N783 H787 0.985 . S
H784 N779 0.984 . S
H785 N779 0.985 . S
H786 N783 0.984 . S
H787 N783 0.985 . S
H788 N782 0.984 . S
H789 N782 0.984 . S
H790 N778 0.984 . S
H791 N778 0.985 . S
C792 C793 1.363 . S
C792 C798 1.379 . S
C792 N800 1.356 . S
C793 C792 1.363 . S
C793 C799 1.363 . S
C794 C795 1.363 . S
C794 C799 1.379 . S
C794 N801 1.356 . S
C795 C794 1.363 . S
C795 C798 1.363 . S
N796 C798 1.356 . S
N796 H808 0.984 . S
N796 H809 0.985 . S
N797 C799 1.356 . S
N797 H802 0.984 . S
N797 H803 0.985 . S
C798 C792 1.379 . S
C798 C795 1.363 . S
C798 N796 1.356 . S
C799 C793 1.363 . S
C799 C794 1.379 . S
C799 N797 1.356 . S
N800 C792 1.356 . S
N800 H806 0.984 . S
N800 H807 0.984 . S
N801 C794 1.356 . S
N801 H804 0.984 . S
N801 H805 0.985 . S
H802 N797 0.984 . S
H803 N797 0.985 . S
H804 N801 0.984 . S
H805 N801 0.985 . S
H806 N800 0.984 . S
H807 N800 0.984 . S
H808 N796 0.984 . S
H809 N796 0.985 . S
C810 C811 1.363 . S
C810 C816 1.379 1_565 S
C810 N818 1.356 . S
C811 C810 1.363 . S
C811 C817 1.363 . S
C812 C813 1.363 . S
C812 C817 1.379 1_545 S
C812 N819 1.356 . S
C813 C812 1.363 . S
C813 C816 1.363 . S
N814 C816 1.356 . S
N814 H826 0.984 . S
N814 H827 0.985 . S
N815 C817 1.356 . S
N815 H820 0.984 . S
N815 H821 0.985 . S
C816 C810 1.379 1_545 S
C816 C813 1.363 . S
C816 N814 1.356 . S
C817 C811 1.363 . S
C817 C812 1.379 1_565 S
C817 N815 1.356 . S
N818 C810 1.356 . S
N818 H824 0.984 . S
N818 H825 0.984 . S
N819 C812 1.356 . S
N819 H822 0.984 . S
N819 H823 0.985 . S
H820 N815 0.984 . S
H821 N815 0.985 . S
H822 N819 0.984 . S
H823 N819 0.985 . S
H824 N818 0.984 . S
H825 N818 0.984 . S
H826 N814 0.984 . S
H827 N814 0.985 . S
C828 C829 1.363 . S
C828 C834 1.379 1_655 S
C828 N836 1.356 . S
C829 C828 1.363 . S
C829 C835 1.363 . S
C830 C831 1.363 . S
C830 C835 1.379 1_455 S
C830 N837 1.356 . S
C831 C830 1.363 . S
C831 C834 1.363 . S
N832 C834 1.356 . S
N832 H844 0.984 . S
N832 H845 0.985 . S
N833 C835 1.356 . S
N833 H838 0.984 . S
N833 H839 0.985 . S
C834 C828 1.379 1_455 S
C834 C831 1.363 . S
C834 N832 1.356 . S
C835 C829 1.363 . S
C835 C830 1.379 1_655 S
C835 N833 1.356 . S
N836 C828 1.356 . S
N836 H842 0.984 . S
N836 H843 0.984 . S
N837 C830 1.356 . S
N837 H840 0.984 . S
N837 H841 0.985 . S
H838 N833 0.984 . S
H839 N833 0.985 . S
H840 N837 0.984 . S
H841 N837 0.985 . S
H842 N836 0.984 . S
H843 N836 0.984 . S
H844 N832 0.984 . S
H845 N832 0.985 . S
C361 C47 1.702 . S
C363 C2 1.779 . S
C379 C87 1.702 . S
C381 C42 1.779 . S
C397 C82 1.779 . S
C399 C7 1.701 . S
C415 C96 1.584 . S
C417 C51 1.513 . S
C433 C91 1.513 . S
C435 C16 1.584 . S
C451 C11 1.513 . S
C453 C56 1.584 . S
C469 C122 1.778 . S
C471 C167 1.701 . S
C487 C207 1.701 . S
C489 C162 1.778 1_545 S
C505 C202 1.779 . S
C507 C127 1.701 . S
C523 C171 1.513 . S
C525 C216 1.584 . S
C541 C211 1.513 . S
C543 C136 1.584 . S
C559 C176 1.584 . S
C561 C131 1.513 . S
C577 C287 1.701 . S
C579 C242 1.779 . S
C595 C282 1.778 . S
C597 C327 1.701 . S
C613 C322 1.778 . S
C615 C247 1.701 . S
C631 C336 1.584 . S
C633 C291 1.513 . S
C649 C331 1.513 . S
C651 C256 1.584 . S
C667 C251 1.513 . S
C669 C296 1.584 . S
C685 C210 2.706 . S
C687 C19 2.349 . S
C703 C130 2.705 . S
C705 C59 2.349 . S
C721 C99 2.349 . S
C723 C170 2.706 . S
C739 C90 2.706 . S
C741 C259 2.349 . S
C757 C10 2.706 . S
C759 C299 2.349 . S
C775 C339 2.349 . S
C777 C50 2.706 . S
C793 C139 2.349 . S
C795 C330 2.706 . S
C811 C179 2.349 . S
C813 C250 2.706 . S
C829 C290 2.706 . S
C831 C219 2.349 . S
