# Generated by pormake.
# Topology uop, (4)-cn, num edge types: 1
# Building blocks:
#     Node 0, Type 0, BuildingBlock: CEKHIL_clean_sbu_0, # of connection points: 4
#     Node 1, Type 0, BuildingBlock: CEKHIL_clean_sbu_0, # of connection points: 4
#     Node 2, Type 0, BuildingBlock: CEKHIL_clean_sbu_0, # of connection points: 4
#     Node 3, Type 0, BuildingBlock: CEKHIL_clean_sbu_0, # of connection points: 4
#     Node 4, Type 0, BuildingBlock: CEKHIL_clean_sbu_0, # of connection points: 4
#     Node 5, Type 0, BuildingBlock: CEKHIL_clean_sbu_0, # of connection points: 4
#     Node 6, Type 0, BuildingBlock: CEKHIL_clean_sbu_0, # of connection points: 4
#     Node 7, Type 0, BuildingBlock: CEKHIL_clean_sbu_0, # of connection points: 4
#     Node 8, Type 0, BuildingBlock: CEKHIL_clean_sbu_0, # of connection points: 4
#     Node 9, Type 0, BuildingBlock: CEKHIL_clean_sbu_0, # of connection points: 4
#     Node 10, Type 0, BuildingBlock: CEKHIL_clean_sbu_0, # of connection points: 4
#     Node 11, Type 0, BuildingBlock: CEKHIL_clean_sbu_0, # of connection points: 4
#     Edge 12, Type (0, 0), BuildingBlock: MIFKUJ_clean_linker_0, # of connection points: 2
#     Edge 13, Type (0, 0), BuildingBlock: MIFKUJ_clean_linker_0, # of connection points: 2
#     Edge 14, Type (0, 0), BuildingBlock: MIFKUJ_clean_linker_0, # of connection points: 2
#     Edge 15, Type (0, 0), BuildingBlock: MIFKUJ_clean_linker_0, # of connection points: 2
#     Edge 16, Type (0, 0), BuildingBlock: MIFKUJ_clean_linker_0, # of connection points: 2
#     Edge 17, Type (0, 0), BuildingBlock: MIFKUJ_clean_linker_0, # of connection points: 2
#     Edge 18, Type (0, 0), BuildingBlock: MIFKUJ_clean_linker_0, # of connection points: 2
#     Edge 19, Type (0, 0), BuildingBlock: MIFKUJ_clean_linker_0, # of connection points: 2
#     Edge 20, Type (0, 0), BuildingBlock: MIFKUJ_clean_linker_0, # of connection points: 2
#     Edge 21, Type (0, 0), BuildingBlock: MIFKUJ_clean_linker_0, # of connection points: 2
#     Edge 22, Type (0, 0), BuildingBlock: MIFKUJ_clean_linker_0, # of connection points: 2
#     Edge 23, Type (0, 0), BuildingBlock: MIFKUJ_clean_linker_0, # of connection points: 2
#     Edge 24, Type (0, 0), BuildingBlock: MIFKUJ_clean_linker_0, # of connection points: 2
#     Edge 25, Type (0, 0), BuildingBlock: MIFKUJ_clean_linker_0, # of connection points: 2
#     Edge 26, Type (0, 0), BuildingBlock: MIFKUJ_clean_linker_0, # of connection points: 2
#     Edge 27, Type (0, 0), BuildingBlock: MIFKUJ_clean_linker_0, # of connection points: 2
#     Edge 28, Type (0, 0), BuildingBlock: MIFKUJ_clean_linker_0, # of connection points: 2
#     Edge 29, Type (0, 0), BuildingBlock: MIFKUJ_clean_linker_0, # of connection points: 2
#     Edge 30, Type (0, 0), BuildingBlock: MIFKUJ_clean_linker_0, # of connection points: 2
#     Edge 31, Type (0, 0), BuildingBlock: MIFKUJ_clean_linker_0, # of connection points: 2
#     Edge 32, Type (0, 0), BuildingBlock: MIFKUJ_clean_linker_0, # of connection points: 2
#     Edge 33, Type (0, 0), BuildingBlock: MIFKUJ_clean_linker_0, # of connection points: 2
#     Edge 34, Type (0, 0), BuildingBlock: MIFKUJ_clean_linker_0, # of connection points: 2
#     Edge 35, Type (0, 0), BuildingBlock: MIFKUJ_clean_linker_0, # of connection points: 2
# Relax obj value: 0.151
# Max RMSD: 0.163
# Mean RMSD: 0.160
data_MOF--net-uop--node1-CEKHIL_clean_sbu_0--edge1-MIFKUJ_clean_linker_0
_symmetry_space_group_name_H-M    P1
_symmetry_Int_Tables_number       1
_symmetry_cell_setting            triclinic
loop_
_symmetry_equiv_pos_as_xyz
'x, y, z'
_cell_length_a     42.386616
_cell_length_b     41.43243
_cell_length_c     57.537077
_cell_angle_alpha  90.006456
_cell_angle_beta   89.97945
_cell_angle_gamma 120.70079
loop_
_atom_site_label
_atom_site_type_symbol
_atom_site_fract_x
_atom_site_fract_y
_atom_site_fract_z
_atom_type_partial_charge
Co0 Co 0.23551 0.36733 0.20882 0.0
O1 O 0.1853 0.32989 0.2138 0.0
O2 O 0.21211 0.34626 0.1792 0.0
C3 C 0.25805 0.34836 0.23747 0.0
O4 O 0.28778 0.40375 0.19776 0.0
Co5 Co 0.27755 0.42502 0.24826 0.0
O6 O 0.32038 0.43244 0.22992 0.0
C7 C 0.2267 0.43493 0.21849 0.0
C8 C 0.18265 0.32557 0.19147 0.0
C9 C 0.3185 0.42404 0.20843 0.0
O10 O 0.22173 0.40711 0.20582 0.0
O11 O 0.24614 0.44505 0.23701 0.0
O12 O 0.25113 0.33184 0.21734 0.0
O13 O 0.2479 0.37262 0.2401 0.0
Co14 Co 0.84524 0.2439 0.52355 0.0
O15 O 0.88923 0.25716 0.54049 0.0
O16 O 0.84782 0.27201 0.55089 0.0
C17 C 0.82822 0.18378 0.51763 0.0
O18 O 0.79596 0.23378 0.51167 0.0
Co19 Co 0.83514 0.21918 0.47213 0.0
O20 O 0.78382 0.20737 0.47623 0.0
C21 C 0.88484 0.29842 0.48401 0.0
C22 C 0.87826 0.27284 0.55546 0.0
C23 C 0.77442 0.21824 0.49427 0.0
O24 O 0.87238 0.29126 0.50491 0.0
O25 O 0.87565 0.27295 0.46853 0.0
O26 O 0.82108 0.19427 0.53724 0.0
O27 O 0.84799 0.21026 0.503 0.0
Co28 Co 0.58535 0.82889 0.87293 0.0
O29 O 0.61057 0.80287 0.8803 0.0
O30 O 0.60635 0.8217 0.84493 0.0
C31 C 0.609 0.87035 0.9021 0.0
O32 O 0.56262 0.85772 0.8591 0.0
Co33 Co 0.52962 0.82895 0.90798 0.0
O34 O 0.53666 0.87171 0.88858 0.0
C35 C 0.50865 0.76148 0.87979 0.0
C36 C 0.61854 0.80519 0.85838 0.0
C37 C 0.54814 0.87582 0.86772 0.0
O38 O 0.53876 0.77941 0.86825 0.0
O39 O 0.50071 0.77553 0.89707 0.0
O40 O 0.62729 0.87638 0.88288 0.0
O41 O 0.57892 0.83835 0.90382 0.0
Co42 Co 0.75627 0.62701 0.20885 0.0
O43 O 0.80632 0.65945 0.21785 0.0
O44 O 0.78507 0.65465 0.18203 0.0
C45 C 0.73074 0.64006 0.23885 0.0
O46 O 0.70565 0.59731 0.19385 0.0
Co47 Co 0.70676 0.5599 0.24153 0.0
O48 O 0.66795 0.5527 0.21928 0.0
C49 C 0.76198 0.55669 0.21276 0.0
C50 C 0.81293 0.66944 0.19623 0.0
C51 C 0.67381 0.5702 0.20004 0.0
O52 O 0.76695 0.58589 0.2017 0.0
O53 O 0.74182 0.544 0.2309 0.0
O54 O 0.74278 0.66247 0.221 0.0
O55 O 0.73841 0.61369 0.23894 0.0
Co56 Co 0.14919 0.74248 0.52882 0.0
O57 O 0.10323 0.72349 0.54465 0.0
O58 O 0.14846 0.71502 0.55608 0.0
C59 C 0.16021 0.80082 0.52358 0.0
O60 O 0.20087 0.75918 0.51792 0.0
Co61 Co 0.15918 0.76876 0.47768 0.0
O62 O 0.21211 0.78879 0.48355 0.0
C63 C 0.1192 0.688 0.48801 0.0
C64 C 0.11604 0.71005 0.55994 0.0
C65 C 0.22273 0.77859 0.50133 0.0
O66 O 0.12807 0.69582 0.50949 0.0
O67 O 0.12696 0.7131 0.47248 0.0
O68 O 0.16752 0.79086 0.54331 0.0
O69 O 0.14322 0.77435 0.50838 0.0
Co70 Co 0.40973 0.16939 0.88071 0.0
O71 O 0.38037 0.191 0.88787 0.0
O72 O 0.38819 0.17509 0.85245 0.0
C73 C 0.38831 0.1265 0.90926 0.0
O74 O 0.4371 0.14505 0.86722 0.0
Co75 Co 0.46706 0.17618 0.91714 0.0
O76 O 0.47225 0.14199 0.89551 0.0
C77 C 0.4827 0.24183 0.88893 0.0
C78 C 0.37336 0.18911 0.86582 0.0
C79 C 0.459 0.1346 0.875 0.0
O80 O 0.45388 0.22124 0.87666 0.0
O81 O 0.49125 0.22982 0.90695 0.0
O82 O 0.37023 0.11971 0.88989 0.0
O83 O 0.41612 0.16004 0.9116 0.0
Co84 Co 0.587 0.73791 0.47202 0.0
O85 O 0.60735 0.71243 0.45555 0.0
O86 O 0.55645 0.71192 0.44563 0.0
C87 C 0.63919 0.79321 0.47555 0.0
O88 O 0.55837 0.7616 0.48397 0.0
Co89 Co 0.61052 0.76596 0.52257 0.0
O90 O 0.5802 0.78946 0.51855 0.0
C91 C 0.56131 0.68533 0.51373 0.0
C92 C 0.58029 0.70192 0.4411 0.0
C93 C 0.55885 0.78165 0.50119 0.0
O94 O 0.55839 0.69283 0.49244 0.0
O95 O 0.58302 0.71023 0.52825 0.0
O96 O 0.62055 0.78434 0.45635 0.0
O97 O 0.62783 0.76705 0.49114 0.0
Co98 Co 0.86684 0.61788 0.79424 0.0
O99 O 0.84673 0.64762 0.78389 0.0
O100 O 0.86064 0.64319 0.8205 0.0
C101 C 0.90874 0.63475 0.76583 0.0
O102 O 0.88967 0.59136 0.81103 0.0
Co103 Co 0.86084 0.55368 0.76291 0.0
O104 O 0.90071 0.55941 0.78375 0.0
C105 C 0.79601 0.54232 0.78882 0.0
C106 C 0.84759 0.6569 0.8055 0.0
C107 C 0.90522 0.57331 0.80408 0.0
O108 O 0.81587 0.57382 0.7993 0.0
O109 O 0.80826 0.53032 0.7727 0.0
O110 O 0.91582 0.65651 0.78379 0.0
O111 O 0.87588 0.60619 0.76474 0.0
Co112 Co 0.24235 0.81862 0.12391 0.0
O113 O 0.19188 0.79748 0.11562 0.0
O114 O 0.21382 0.8151 0.15123 0.0
C115 C 0.26516 0.85968 0.09436 0.0
O116 O 0.29369 0.84335 0.13827 0.0
Co117 Co 0.29333 0.80817 0.08988 0.0
O118 O 0.33227 0.84417 0.11099 0.0
C119 C 0.2411 0.74466 0.11865 0.0
C120 C 0.1857 0.80099 0.13726 0.0
C121 C 0.32619 0.85324 0.13095 0.0
O122 O 0.23333 0.76661 0.12982 0.0
O123 O 0.26248 0.75516 0.10101 0.0
O124 O 0.25351 0.8678 0.11308 0.0
O125 O 0.25922 0.82588 0.09318 0.0
Co126 Co 0.39649 0.25081 0.47151 0.0
O127 O 0.36844 0.26688 0.45394 0.0
O128 O 0.42543 0.28141 0.44587 0.0
C129 C 0.35216 0.19065 0.4745 0.0
O130 O 0.43371 0.23842 0.4842 0.0
Co131 Co 0.37667 0.21985 0.52145 0.0
O132 O 0.41384 0.20471 0.51703 0.0
C133 C 0.40754 0.30055 0.51301 0.0
C134 C 0.39688 0.28365 0.44036 0.0
C135 C 0.43661 0.21859 0.5003 0.0
O136 O 0.41481 0.29602 0.49199 0.0
O137 O 0.39033 0.27336 0.52732 0.0
O138 O 0.37211 0.20276 0.45581 0.0
O139 O 0.35773 0.21562 0.49003 0.0
Co140 Co 0.12572 0.37414 0.79182 0.0
O141 O 0.14629 0.34461 0.78187 0.0
O142 O 0.13208 0.3494 0.81834 0.0
C143 C 0.08402 0.35634 0.76324 0.0
O144 O 0.10258 0.40064 0.80823 0.0
Co145 Co 0.13087 0.43728 0.75979 0.0
O146 O 0.0915 0.43237 0.78082 0.0
C147 C 0.19611 0.44966 0.78572 0.0
C148 C 0.14541 0.33565 0.80355 0.0
C149 C 0.08719 0.41882 0.80125 0.0
O150 O 0.17645 0.41861 0.79671 0.0
O151 O 0.18361 0.46077 0.76925 0.0
O152 O 0.07689 0.33503 0.78143 0.0
O153 O 0.11673 0.3851 0.76215 0.0
Co154 Co 0.75683 0.17245 0.12012 0.0
O155 O 0.80847 0.19759 0.11495 0.0
O156 O 0.78182 0.17476 0.14899 0.0
C157 C 0.74128 0.13475 0.08903 0.0
O158 O 0.70329 0.14355 0.13083 0.0
Co159 Co 0.70989 0.18302 0.08267 0.0
O160 O 0.66929 0.14082 0.09996 0.0
C161 C 0.75641 0.24499 0.11425 0.0
C162 C 0.81183 0.1921 0.13671 0.0
C163 C 0.67213 0.13081 0.12047 0.0
O164 O 0.76105 0.22217 0.12692 0.0
O165 O 0.73985 0.23578 0.09464 0.0
O166 O 0.75086 0.12564 0.10824 0.0
O167 O 0.74518 0.16774 0.0886 0.0
H168 H 0.26936 0.69937 0.11223 0.0
H169 H 0.24722 0.63718 0.12826 0.0
H170 H 0.15565 0.63907 0.15971 0.0
H171 H 0.17896 0.70259 0.14457 0.0
H172 H 0.18065 0.61399 0.18941 0.0
H173 H 0.1444 0.57834 0.11241 0.0
H174 H 0.14801 0.57989 0.06963 0.0
H175 H 0.23535 0.55609 0.07241 0.0
H176 H 0.23269 0.55494 0.11521 0.0
H177 H 0.17134 0.41655 0.18703 0.0
H178 H 0.15196 0.45835 0.17078 0.0
H179 H 0.23145 0.54859 0.21398 0.0
H180 H 0.24938 0.50684 0.23096 0.0
H181 H 0.18656 0.51435 0.14532 0.0
H182 H 0.21462 0.61452 0.22506 0.0
H183 H 0.20281 0.60855 0.26723 0.0
H184 H 0.11514 0.49475 0.25801 0.0
H185 H 0.126 0.50015 0.21573 0.0
C186 C 0.24426 0.68642 0.12233 0.0
C187 C 0.2259 0.70585 0.12713 0.0
C188 C 0.23138 0.65061 0.13134 0.0
C189 C 0.19922 0.6329 0.1448 0.0
C190 C 0.18041 0.65202 0.1493 0.0
C191 C 0.19376 0.68829 0.14065 0.0
C192 C 0.18746 0.59587 0.15563 0.0
C193 C 0.18142 0.59195 0.17973 0.0
C194 C 0.18666 0.5662 0.1429 0.0
C195 C 0.18835 0.56662 0.11708 0.0
C196 C 0.16451 0.57362 0.10392 0.0
C197 C 0.16638 0.57442 0.07965 0.0
C198 C 0.1919 0.5681 0.06831 0.0
C199 C 0.21556 0.56092 0.08122 0.0
C200 C 0.21382 0.56011 0.10549 0.0
C201 C 0.18404 0.44511 0.19339 0.0
C202 C 0.21186 0.45838 0.21031 0.0
C203 C 0.17298 0.46898 0.18408 0.0
C204 C 0.18981 0.50659 0.19134 0.0
C205 C 0.21706 0.51947 0.20857 0.0
C206 C 0.22758 0.49555 0.21817 0.0
C207 C 0.18238 0.53377 0.1793 0.0
C208 C 0.18468 0.5358 0.15495 0.0
C209 C 0.17826 0.56093 0.19171 0.0
C210 C 0.17121 0.55774 0.21716 0.0
C211 C 0.1926 0.58831 0.23197 0.0
C212 C 0.18613 0.585 0.25592 0.0
C213 C 0.15827 0.55129 0.2653 0.0
C214 C 0.13676 0.52083 0.25073 0.0
C215 C 0.1431 0.52399 0.22677 0.0
H216 H 0.15333 0.54877 0.28385 0.0
H217 H 0.19332 0.56876 0.04952 0.0
H218 H 0.73132 0.214 0.45772 0.0
H219 H 0.67187 0.21053 0.45948 0.0
H220 H 0.67466 0.20822 0.53433 0.0
H221 H 0.7345 0.21261 0.53281 0.0
H222 H 0.60387 0.15176 0.50942 0.0
H223 H 0.69488 0.28432 0.51657 0.0
H224 H 0.75012 0.34292 0.50417 0.0
H225 H 0.69985 0.33706 0.43831 0.0
H226 H 0.6445 0.27805 0.45019 0.0
H227 H 0.46112 0.19007 0.53429 0.0
H228 H 0.51628 0.18529 0.53334 0.0
H229 H 0.53808 0.22795 0.46312 0.0
H230 H 0.48385 0.23384 0.46418 0.0
H231 H 0.59739 0.26374 0.48665 0.0
H232 H 0.51124 0.13318 0.47494 0.0
H233 H 0.45726 0.07061 0.48191 0.0
H234 H 0.4963 0.06942 0.55062 0.0
H235 H 0.55102 0.13188 0.5438 0.0
C236 C 0.71915 0.21249 0.47454 0.0
C237 C 0.7376 0.21379 0.49514 0.0
C238 C 0.68531 0.21057 0.4755 0.0
C239 C 0.66916 0.20924 0.49703 0.0
C240 C 0.68684 0.20924 0.51759 0.0
C241 C 0.72102 0.21192 0.51667 0.0
C242 C 0.63439 0.20924 0.49805 0.0
C243 C 0.60238 0.17633 0.5048 0.0
C244 C 0.63256 0.24099 0.49127 0.0
C245 C 0.66573 0.27656 0.48417 0.0
C246 C 0.69575 0.29532 0.49935 0.0
C247 C 0.72705 0.32865 0.49244 0.0
C248 C 0.72854 0.34364 0.47044 0.0
C249 C 0.69868 0.32538 0.45533 0.0
C250 C 0.66734 0.29201 0.46215 0.0
C251 C 0.47754 0.19819 0.5186 0.0
C252 C 0.46829 0.21278 0.49943 0.0
C253 C 0.50895 0.1952 0.51801 0.0
C254 C 0.53134 0.20617 0.49812 0.0
C255 C 0.52143 0.21958 0.47873 0.0
C256 C 0.49034 0.22292 0.47938 0.0
C257 C 0.56629 0.20599 0.49789 0.0
C258 C 0.59858 0.23903 0.49137 0.0
C259 C 0.56821 0.17409 0.50439 0.0
C260 C 0.53491 0.13728 0.50896 0.0
C261 C 0.50812 0.11969 0.4916 0.0
C262 C 0.4775 0.08417 0.49549 0.0
C263 C 0.47317 0.0661 0.51677 0.0
C264 C 0.49964 0.08347 0.53416 0.0
C265 C 0.53057 0.11884 0.53025 0.0
H266 H 0.44937 0.03861 0.51978 0.0
H267 H 0.75279 0.36946 0.46512 0.0
H268 H 0.52049 0.71099 0.85658 0.0
H269 H 0.4741 0.64891 0.84224 0.0
H270 H 0.38866 0.66495 0.87049 0.0
H271 H 0.43477 0.72582 0.88582 0.0
H272 H 0.36965 0.59636 0.87627 0.0
H273 H 0.41888 0.68338 0.81081 0.0
H274 H 0.46878 0.72792 0.78503 0.0
H275 H 0.49386 0.64274 0.76737 0.0
H276 H 0.44423 0.59779 0.79319 0.0
H277 H 0.24245 0.52219 0.77241 0.0
H278 H 0.30235 0.56629 0.78848 0.0
H279 H 0.29734 0.47887 0.8319 0.0
H280 H 0.23655 0.43448 0.81633 0.0
H281 H 0.36782 0.57461 0.79135 0.0
H282 H 0.33488 0.51749 0.88441 0.0
H283 H 0.28126 0.47855 0.90947 0.0
H284 H 0.21719 0.51313 0.87045 0.0
H285 H 0.27054 0.55256 0.84538 0.0
C286 C 0.49178 0.70101 0.85988 0.0
C287 C 0.48116 0.72328 0.87215 0.0
C288 C 0.46532 0.66561 0.85165 0.0
C289 C 0.42784 0.65248 0.85495 0.0
C290 C 0.41739 0.67434 0.8678 0.0
C291 C 0.44377 0.70924 0.87647 0.0
C292 C 0.39907 0.61721 0.844 0.0
C293 C 0.36951 0.59139 0.85774 0.0
C294 C 0.39875 0.61062 0.81982 0.0
C295 C 0.42817 0.63742 0.80408 0.0
C296 C 0.43515 0.67424 0.80148 0.0
C297 C 0.46335 0.69953 0.78686 0.0
C298 C 0.48454 0.68819 0.77462 0.0
C299 C 0.47746 0.65149 0.77689 0.0
C300 C 0.44928 0.62609 0.79149 0.0
C301 C 0.25415 0.51207 0.78516 0.0
C302 C 0.23439 0.47493 0.79337 0.0
C303 C 0.28859 0.53734 0.79425 0.0
C304 C 0.30411 0.52601 0.8116 0.0
C305 C 0.28557 0.48834 0.81878 0.0
C306 C 0.25084 0.46304 0.80986 0.0
C307 C 0.33786 0.55473 0.8235 0.0
C308 C 0.36845 0.57909 0.80997 0.0
C309 C 0.3386 0.56074 0.84776 0.0
C310 C 0.30651 0.53751 0.86287 0.0
C311 C 0.30934 0.51679 0.88124 0.0
C312 C 0.27902 0.49466 0.89543 0.0
C313 C 0.2458 0.49325 0.89149 0.0
C314 C 0.24288 0.51412 0.87342 0.0
C315 C 0.27314 0.53634 0.85922 0.0
H316 H 0.22235 0.47606 0.90247 0.0
H317 H 0.50639 0.70782 0.76333 0.0
H318 H 0.76692 0.49999 0.23346 0.0
H319 H 0.78224 0.45684 0.21479 0.0
H320 H 0.80611 0.51941 0.15086 0.0
H321 H 0.79104 0.56295 0.16937 0.0
H322 H 0.75218 0.44406 0.147 0.0
H323 H 0.8739 0.51702 0.17677 0.0
H324 H 0.92116 0.55098 0.20667 0.0
H325 H 0.88195 0.44879 0.24527 0.0
H326 H 0.8341 0.41426 0.21576 0.0
H327 H 0.7736 0.30775 0.08918 0.0
H328 H 0.78978 0.36951 0.10412 0.0
H329 H 0.78319 0.32981 0.17433 0.0
H330 H 0.76856 0.26845 0.15944 0.0
H331 H 0.83627 0.40028 0.17165 0.0
H332 H 0.70974 0.33024 0.14758 0.0
H333 H 0.65864 0.2943 0.12028 0.0
H334 H 0.70252 0.38898 0.07414 0.0
H335 H 0.75416 0.42533 0.10106 0.0
C336 C 0.77616 0.50509 0.21557 0.0
C337 C 0.77723 0.53459 0.20281 0.0
C338 C 0.78517 0.48055 0.20498 0.0
C339 C 0.7953 0.48502 0.18148 0.0
C340 C 0.79842 0.51562 0.16905 0.0
C341 C 0.78977 0.54044 0.17968 0.0
C342 C 0.7974 0.45484 0.16922 0.0
C343 C 0.7712 0.43505 0.15195 0.0
C344 C 0.82139 0.44245 0.17634 0.0
C345 C 0.85023 0.46308 0.1941 0.0
C346 C 0.87515 0.50182 0.19172 0.0
C347 C 0.9021 0.52117 0.20859 0.0
C348 C 0.90452 0.50207 0.22788 0.0
C349 C 0.88004 0.46355 0.23032 0.0
C350 C 0.85304 0.44406 0.2135 0.0
C351 C 0.77597 0.31231 0.10779 0.0
C352 C 0.76926 0.28313 0.12316 0.0
C353 C 0.78522 0.3476 0.11631 0.0
C354 C 0.78687 0.35402 0.14036 0.0
C355 C 0.78197 0.32547 0.1557 0.0
C356 C 0.77344 0.29036 0.14717 0.0
C357 C 0.79077 0.38929 0.14957 0.0
C358 C 0.81782 0.40981 0.16634 0.0
C359 C 0.76707 0.40209 0.14236 0.0
C360 C 0.73602 0.38032 0.12618 0.0
C361 C 0.70862 0.34329 0.13153 0.0
C362 C 0.67955 0.32286 0.11614 0.0
C363 C 0.6774 0.33931 0.09545 0.0
C364 C 0.70427 0.37625 0.09015 0.0
C365 C 0.73343 0.39678 0.10546 0.0
H366 H 0.65487 0.32345 0.08356 0.0
H367 H 0.92539 0.5171 0.24092 0.0
H368 H 0.52373 0.79123 0.46438 0.0
H369 H 0.47208 0.80211 0.46593 0.0
H370 H 0.47889 0.80737 0.54071 0.0
H371 H 0.53103 0.79745 0.53937 0.0
H372 H 0.40816 0.74934 0.51773 0.0
H373 H 0.49818 0.88139 0.51995 0.0
H374 H 0.55224 0.93965 0.50597 0.0
H375 H 0.49793 0.92985 0.44112 0.0
H376 H 0.44372 0.87114 0.45458 0.0
H377 H 0.2593 0.77384 0.53904 0.0
H378 H 0.32133 0.78418 0.5402 0.0
H379 H 0.33538 0.81375 0.46748 0.0
H380 H 0.27363 0.80445 0.46629 0.0
H381 H 0.39768 0.85706 0.49032 0.0
H382 H 0.31119 0.72565 0.48473 0.0
H383 H 0.25697 0.66499 0.49543 0.0
H384 H 0.30422 0.67003 0.5623 0.0
H385 H 0.35853 0.73105 0.55212 0.0
C386 C 0.51467 0.79545 0.48112 0.0
C387 C 0.53125 0.79328 0.50176 0.0
C388 C 0.48535 0.80181 0.48195 0.0
C389 C 0.4719 0.80553 0.50343 0.0
C390 C 0.48916 0.80474 0.524 0.0
C391 C 0.51893 0.79914 0.52317 0.0
C392 C 0.4373 0.80581 0.50449 0.0
C393 C 0.4059 0.77311 0.51217 0.0
C394 C 0.43445 0.83637 0.49633 0.0
C395 C 0.46704 0.87161 0.48818 0.0
C396 C 0.49791 0.89141 0.50261 0.0
C397 C 0.52855 0.92458 0.4948 0.0
C398 C 0.52857 0.93839 0.47264 0.0
C399 C 0.4979 0.91909 0.45827 0.0
C400 C 0.4672 0.88588 0.46598 0.0
C401 C 0.27565 0.78284 0.52332 0.0
C402 C 0.26132 0.78782 0.50249 0.0
C403 C 0.3111 0.78871 0.52401 0.0
C404 C 0.33269 0.79903 0.50381 0.0
C405 C 0.31914 0.80569 0.48325 0.0
C406 C 0.28378 0.80021 0.48259 0.0
C407 C 0.3684 0.80061 0.50383 0.0
C408 C 0.39994 0.83342 0.49615 0.0
C409 C 0.37137 0.76981 0.51155 0.0
C410 C 0.33873 0.73313 0.51776 0.0
C411 C 0.30988 0.71398 0.50179 0.0
C412 C 0.27915 0.67951 0.50775 0.0
C413 C 0.2771 0.66372 0.52956 0.0
C414 C 0.30582 0.68234 0.54543 0.0
C415 C 0.33659 0.71686 0.53957 0.0
H416 H 0.2533 0.63702 0.53413 0.0
H417 H 0.55231 0.96409 0.46664 0.0
H418 H 0.4696 0.28613 0.85977 0.0
H419 H 0.51506 0.34706 0.8434 0.0
H420 H 0.60035 0.34381 0.88248 0.0
H421 H 0.55516 0.28434 0.89962 0.0
H422 H 0.61596 0.41169 0.8809 0.0
H423 H 0.57687 0.31183 0.82347 0.0
H424 H 0.53121 0.26058 0.79869 0.0
H425 H 0.50374 0.33663 0.76658 0.0
H426 H 0.54903 0.38823 0.79136 0.0
H427 H 0.75187 0.46735 0.78088 0.0
H428 H 0.69142 0.42539 0.7971 0.0
H429 H 0.69202 0.51943 0.8299 0.0
H430 H 0.75351 0.56165 0.81438 0.0
H431 H 0.62616 0.41494 0.79494 0.0
H432 H 0.6486 0.49131 0.88195 0.0
H433 H 0.69931 0.53642 0.90706 0.0
H434 H 0.76859 0.4973 0.88048 0.0
H435 H 0.71817 0.45173 0.85544 0.0
C436 C 0.498 0.29879 0.8651 0.0
C437 C 0.50887 0.28028 0.88081 0.0
C438 C 0.52395 0.33354 0.8557 0.0
C439 C 0.56128 0.34974 0.86136 0.0
C440 C 0.57175 0.33203 0.87786 0.0
C441 C 0.54583 0.29784 0.8876 0.0
C442 C 0.59017 0.38329 0.84895 0.0
C443 C 0.6179 0.41264 0.86208 0.0
C444 C 0.59295 0.38458 0.82439 0.0
C445 C 0.56594 0.3537 0.80942 0.0
C446 C 0.56093 0.31753 0.8112 0.0
C447 C 0.53515 0.28844 0.79716 0.0
C448 C 0.5145 0.29532 0.78113 0.0
C449 C 0.51969 0.33133 0.77905 0.0
C450 C 0.54541 0.3605 0.79307 0.0
C451 C 0.73907 0.47926 0.79134 0.0
C452 C 0.75772 0.51776 0.79661 0.0
C453 C 0.70434 0.45521 0.80053 0.0
C454 C 0.68732 0.46915 0.81497 0.0
C455 C 0.70492 0.50794 0.81915 0.0
C456 C 0.74003 0.53202 0.81027 0.0
C457 C 0.65267 0.44233 0.82696 0.0
C458 C 0.62372 0.41452 0.81373 0.0
C459 C 0.64948 0.44159 0.85148 0.0
C460 C 0.67981 0.46854 0.86664 0.0
C461 C 0.67465 0.49234 0.88152 0.0
C462 C 0.70333 0.51797 0.89573 0.0
C463 C 0.7372 0.51984 0.89529 0.0
C464 C 0.7424 0.49594 0.88073 0.0
C465 C 0.7138 0.47023 0.86653 0.0
H466 H 0.75937 0.53973 0.90627 0.0
H467 H 0.49455 0.27277 0.77028 0.0
H468 H 0.61532 0.50022 0.19466 0.0
H469 H 0.55688 0.48258 0.17667 0.0
H470 H 0.60017 0.59672 0.15362 0.0
H471 H 0.65939 0.61463 0.17185 0.0
H472 H 0.54102 0.57464 0.17859 0.0
H473 H 0.56451 0.52543 0.11291 0.0
H474 H 0.58719 0.49271 0.08846 0.0
H475 H 0.51138 0.38799 0.12105 0.0
H476 H 0.4886 0.42007 0.14599 0.0
H477 H 0.3319 0.43741 0.16132 0.0
H478 H 0.3925 0.46889 0.1421 0.0
H479 H 0.44401 0.47511 0.20789 0.0
H480 H 0.38465 0.44446 0.22698 0.0
H481 H 0.45406 0.45243 0.14182 0.0
H482 H 0.50312 0.55896 0.21707 0.0
H483 H 0.47852 0.59091 0.24069 0.0
H484 H 0.40998 0.58449 0.18382 0.0
H485 H 0.4343 0.55266 0.15986 0.0
C486 C 0.61276 0.5214 0.18522 0.0
C487 C 0.64171 0.55887 0.18487 0.0
C488 C 0.57939 0.51118 0.17466 0.0
C489 C 0.57405 0.53822 0.16359 0.0
C490 C 0.60373 0.57532 0.1619 0.0
C491 C 0.63752 0.58552 0.17229 0.0
C492 C 0.53595 0.52858 0.15812 0.0
C493 C 0.52223 0.54857 0.16983 0.0
C494 C 0.51124 0.49505 0.14621 0.0
C495 C 0.52478 0.47527 0.13135 0.0
C496 C 0.55279 0.49545 0.11499 0.0
C497 C 0.56566 0.477 0.10101 0.0
C498 C 0.55072 0.4383 0.10319 0.0
C499 C 0.52287 0.41797 0.11935 0.0
C500 C 0.50989 0.43627 0.13337 0.0
C501 C 0.35621 0.44518 0.17154 0.0
C502 C 0.35361 0.4391 0.19573 0.0
C503 C 0.39067 0.46309 0.16055 0.0
C504 C 0.42264 0.47486 0.1737 0.0
C505 C 0.41969 0.46684 0.19753 0.0
C506 C 0.38569 0.44937 0.20843 0.0
C507 C 0.45986 0.49725 0.16364 0.0
C508 C 0.47322 0.47954 0.14931 0.0
C509 C 0.4844 0.53335 0.17258 0.0
C510 C 0.47084 0.55383 0.18662 0.0
C511 C 0.48319 0.56486 0.20952 0.0
C512 C 0.46914 0.58274 0.223 0.0
C513 C 0.44284 0.58988 0.21373 0.0
C514 C 0.43044 0.57904 0.19097 0.0
C515 C 0.4443 0.56103 0.17745 0.0
H516 H 0.43199 0.6037 0.2242 0.0
H517 H 0.56073 0.42406 0.09235 0.0
H518 H 0.1064 0.65724 0.44409 0.0
H519 H 0.07365 0.59024 0.43403 0.0
H520 H 0.05337 0.56187 0.50682 0.0
H521 H 0.0863 0.62788 0.51696 0.0
H522 H 0.07566 0.52011 0.48611 0.0
H523 H 0.98784 0.56111 0.46905 0.0
H524 H 0.96735 0.59888 0.44779 0.0
H525 H 0.97875 0.55435 0.38299 0.0
H526 H -0.00032 0.51661 0.4039 0.0
H527 H 0.91577 0.35841 0.51334 0.0
H528 H 0.96191 0.4229 0.50438 0.0
H529 H 0.9618 0.39339 0.4325 0.0
H530 H 0.91507 0.32802 0.44126 0.0
H531 H 0.96022 0.46182 0.44044 0.0
H532 H 0.03218 0.4078 0.46108 0.0
H533 H 0.04861 0.36862 0.48443 0.0
H534 H 0.06493 0.43727 0.54432 0.0
H535 H 0.04813 0.47657 0.52144 0.0
C536 C 0.09492 0.63663 0.4579 0.0
C537 C 0.09905 0.64792 0.48133 0.0
C538 C 0.07624 0.59843 0.45212 0.0
C539 C 0.06111 0.5711 0.46969 0.0
C540 C 0.06516 0.58245 0.49299 0.0
C541 C 0.08394 0.62032 0.49875 0.0
C542 C 0.04029 0.53042 0.46442 0.0
C543 C 0.05055 0.50736 0.47599 0.0
C544 C 0.00831 0.51381 0.45047 0.0
C545 C 0.99576 0.53648 0.43798 0.0
C546 C 0.98623 0.55962 0.45026 0.0
C547 C 0.9745 0.58097 0.43828 0.0
C548 C 0.97188 0.57913 0.41405 0.0
C549 C 0.98089 0.55583 0.40175 0.0
C550 C 0.99267 0.53446 0.41365 0.0
C551 C 0.92528 0.36539 0.49556 0.0
C552 C 0.91176 0.3379 0.47803 0.0
C553 C 0.95182 0.40232 0.49051 0.0
C554 C 0.96554 0.41265 0.46787 0.0
C555 C 0.9516 0.38574 0.4501 0.0
C556 C 0.925 0.34849 0.45517 0.0
C557 C 0.99454 0.45186 0.46335 0.0
C558 C 0.986 0.47456 0.44986 0.0
C559 C 0.02799 0.46826 0.47574 0.0
C560 C 0.03885 0.44513 0.48951 0.0
C561 C 0.03914 0.41447 0.47925 0.0
C562 C 0.04853 0.39224 0.49241 0.0
C563 C 0.05781 0.40045 0.51584 0.0
C564 C 0.05781 0.43098 0.52616 0.0
C565 C 0.04844 0.4533 0.51308 0.0
H566 H 0.06502 0.38317 0.52601 0.0
H567 H 0.96278 0.59567 0.4048 0.0
H568 H 0.41976 0.08725 0.83901 0.0
H569 H 0.43328 0.04317 0.81904 0.0
H570 H 0.53426 0.08768 0.85771 0.0
H571 H 0.52114 0.13139 0.87742 0.0
H572 H 0.5422 0.06874 0.81346 0.0
H573 H 0.45435 0.01413 0.87872 0.0
H574 H 0.39505 0.99572 0.89739 0.0
H575 H 0.33769 0.92807 0.83811 0.0
H576 H 0.39675 0.94654 0.81899 0.0
H577 H 0.58315 0.95068 0.87314 0.0
H578 H 0.56742 0.99397 0.85503 0.0
H579 H 0.48565 0.90366 0.81298 0.0
H580 H 0.50217 0.86026 0.83091 0.0
H581 H 0.4579 0.93847 0.84037 0.0
H582 H 0.55082 0.97633 0.78449 0.0
H583 H 0.6116 0.99477 0.76833 0.0
H584 H 0.66119 0.09376 0.81088 0.0
H585 H 0.60084 0.07568 0.8276 0.0
C586 C 0.44523 0.08815 0.84277 0.0
C587 C 0.46911 0.11229 0.86004 0.0
C588 C 0.4529 0.06299 0.83138 0.0
C589 C 0.48464 0.06196 0.83704 0.0
C590 C 0.50968 0.08802 0.853 0.0
C591 C 0.50194 0.11276 0.86444 0.0
C592 C 0.49007 0.031 0.82931 0.0
C593 C 0.52365 0.04009 0.81901 0.0
C594 C 0.46522 0.99336 0.83579 0.0
C595 C 0.42984 0.98206 0.84734 0.0
C596 C 0.42906 0.99551 0.86964 0.0
C597 C 0.39553 0.98506 0.8803 0.0
C598 C 0.36262 0.96084 0.86891 0.0
C599 C 0.3632 0.94692 0.84687 0.0
C600 C 0.39668 0.95737 0.83612 0.0
C601 C 0.56279 0.94048 0.85941 0.0
C602 C 0.54401 0.90249 0.85319 0.0
C603 C 0.55387 0.96517 0.84901 0.0
C604 C 0.52556 0.9521 0.83249 0.0
C605 C 0.50784 0.91435 0.82549 0.0
C606 C 0.5173 0.8897 0.83564 0.0
C607 C 0.51115 0.97675 0.82591 0.0
C608 C 0.47583 0.96653 0.83362 0.0
C609 C 0.53459 0.01338 0.81724 0.0
C610 C 0.57116 0.02458 0.80731 0.0
C611 C 0.57469 0.00192 0.79052 0.0
C612 C 0.60909 0.01234 0.78125 0.0
C613 C 0.64023 0.04542 0.78857 0.0
C614 C 0.63703 0.06817 0.80519 0.0
C615 C 0.60269 0.05788 0.81454 0.0
H616 H 0.66684 0.05343 0.78136 0.0
H617 H 0.33669 0.95277 0.87718 0.0
H618 H 0.51384 0.62484 0.48767 0.0
H619 H 0.47963 0.5595 0.4993 0.0
H620 H 0.52264 0.58999 0.56892 0.0
H621 H 0.55793 0.65611 0.55726 0.0
H622 H 0.52909 0.53349 0.55356 0.0
H623 H 0.43079 0.55491 0.55923 0.0
H624 H 0.39036 0.57911 0.54855 0.0
H625 H 0.35663 0.51099 0.48701 0.0
H626 H 0.39727 0.48678 0.49708 0.0
H627 H 0.41881 0.32879 0.55743 0.0
H628 H 0.43702 0.3932 0.56895 0.0
H629 H 0.43753 0.42237 0.49694 0.0
H630 H 0.42009 0.35889 0.48531 0.0
H631 H 0.40058 0.44707 0.52874 0.0
H632 H 0.51493 0.44382 0.51964 0.0
H633 H 0.55588 0.42031 0.53065 0.0
H634 H 0.55708 0.45457 0.60125 0.0
H635 H 0.51575 0.47787 0.59067 0.0
C636 C 0.51587 0.61794 0.50555 0.0
C637 C 0.53878 0.64585 0.5215 0.0
C638 C 0.49593 0.58045 0.51225 0.0
C639 C 0.498 0.56989 0.53511 0.0
C640 C 0.52042 0.5976 0.55125 0.0
C641 C 0.54057 0.63533 0.54452 0.0
C642 C 0.47921 0.52947 0.54108 0.0
C643 C 0.50061 0.51465 0.54887 0.0
C644 C 0.44199 0.50482 0.5351 0.0
C645 C 0.41718 0.51903 0.52894 0.0
C646 C 0.41491 0.54521 0.54335 0.0
C647 C 0.39193 0.55893 0.5374 0.0
C648 C 0.37094 0.54659 0.51712 0.0
C649 C 0.37286 0.52047 0.50274 0.0
C650 C 0.39581 0.50667 0.50859 0.0
C651 C 0.42276 0.34899 0.54411 0.0
C652 C 0.41835 0.33893 0.52046 0.0
C653 C 0.43304 0.38561 0.55072 0.0
C654 C 0.43836 0.41226 0.53376 0.0
C655 C 0.43327 0.40202 0.51026 0.0
C656 C 0.42366 0.36584 0.50364 0.0
C657 C 0.45114 0.45164 0.53985 0.0
C658 C 0.42854 0.46611 0.53436 0.0
C659 C 0.48704 0.47593 0.54818 0.0
C660 C 0.51192 0.46208 0.55445 0.0
C661 C 0.52369 0.44602 0.53755 0.0
C662 C 0.54701 0.43281 0.5437 0.0
C663 C 0.55897 0.43582 0.56665 0.0
C664 C 0.54772 0.45217 0.58349 0.0
C665 C 0.52436 0.46538 0.57743 0.0
H666 H 0.57703 0.42559 0.57138 0.0
H667 H 0.35318 0.55727 0.51254 0.0
H668 H 0.89188 0.55127 0.84971 0.0
H669 H 0.92502 0.52805 0.87299 0.0
H670 H 0.00317 0.55726 0.8172 0.0
H671 H 0.97013 0.57962 0.79413 0.0
H672 H 0.92967 0.46877 0.85907 0.0
H673 H 0.08331 0.5784 0.83418 0.0
H674 H 0.1244 0.64697 0.83568 0.0
H675 H 0.05589 0.65508 0.8875 0.0
H676 H 0.01461 0.58643 0.88665 0.0
H677 H 0.02353 0.41565 0.7915 0.0
H678 H 0.99134 0.4382 0.81534 0.0
H679 H 0.06846 0.46281 0.87113 0.0
H680 H 0.10068 0.43932 0.84712 0.0
H681 H 0.0646 0.5238 0.85849 0.0
H682 H 0.97977 0.40482 0.88446 0.0
H683 H 0.93845 0.33617 0.88412 0.0
H684 H 0.86972 0.3469 0.8337 0.0
H685 H 0.91085 0.41552 0.8334 0.0
C686 C 0.91683 0.55373 0.84287 0.0
C687 C 0.92845 0.56688 0.82014 0.0
C688 C 0.93568 0.54049 0.85612 0.0
C689 C 0.96681 0.54127 0.84697 0.0
C690 C 0.97972 0.55704 0.8249 0.0
C691 C 0.96064 0.56949 0.81159 0.0
C692 C 0.98227 0.51981 0.85774 0.0
C693 C 0.95916 0.48077 0.85957 0.0
C694 C 0.02066 0.53566 0.85971 0.0
C695 C 0.04585 0.57706 0.86043 0.0
C696 C 0.07716 0.59465 0.84612 0.0
C697 C 0.10045 0.63362 0.84679 0.0
C698 C 0.09278 0.65537 0.86169 0.0
C699 C 0.06179 0.6382 0.87595 0.0
C700 C 0.0384 0.59926 0.87536 0.0
C701 C 0.03302 0.42488 0.80908 0.0
C702 C 0.0646 0.426 0.81747 0.0
C703 C 0.01443 0.43745 0.82281 0.0
C704 C 0.02725 0.45187 0.84515 0.0
C705 C 0.05788 0.4514 0.85405 0.0
C706 C 0.07619 0.43801 0.84037 0.0
C707 C 0.01197 0.47287 0.85675 0.0
C708 C 0.03512 0.5118 0.85923 0.0
C709 C 0.97362 0.45692 0.85904 0.0
C710 C 0.94843 0.41552 0.85903 0.0
C711 C 0.95593 0.39258 0.87322 0.0
C712 C 0.93252 0.35362 0.87314 0.0
C713 C 0.90145 0.33719 0.85893 0.0
C714 C 0.89373 0.35968 0.84476 0.0
C715 C 0.91705 0.39866 0.84477 0.0
H716 H 0.88337 0.30702 0.85889 0.0
H717 H 0.11085 0.68553 0.86216 0.0
H718 H 0.39228 0.85795 0.12956 0.0
H719 H 0.44948 0.90637 0.14625 0.0
H720 H 0.39208 0.95303 0.18181 0.0
H721 H 0.33409 0.90438 0.16445 0.0
H722 H 0.44446 0.00505 0.1586 0.0
H723 H 0.4442 0.92327 0.21327 0.0
H724 H 0.43488 0.86487 0.23095 0.0
H725 H 0.51758 0.86787 0.18639 0.0
H726 H 0.52705 0.92594 0.16813 0.0
H727 H 0.66064 0.11035 0.16692 0.0
H728 H 0.60158 0.06682 0.18573 0.0
H729 H 0.54719 0.04588 0.11939 0.0
H730 H 0.60493 0.0887 0.10075 0.0
H731 H 0.55095 0.99167 0.17906 0.0
H732 H 0.47025 0.04459 0.12326 0.0
H733 H 0.47987 0.10508 0.10905 0.0
H734 H 0.55791 0.16297 0.16355 0.0
H735 H 0.54836 0.10279 0.17835 0.0
C736 C 0.39156 0.87793 0.14137 0.0
C737 C 0.35872 0.87765 0.14542 0.0
C738 C 0.42439 0.90547 0.15121 0.0
C739 C 0.42531 0.9334 0.16551 0.0
C740 C 0.3921 0.93172 0.17091 0.0
C741 C 0.35896 0.90387 0.16105 0.0
C742 C 0.46151 0.96719 0.17094 0.0
C743 C 0.4676 0.00223 0.16359 0.0
C744 C 0.49176 0.96419 0.17849 0.0
C745 C 0.48636 0.92913 0.18932 0.0
C746 C 0.46029 0.9114 0.20712 0.0
C747 C 0.45498 0.87833 0.21727 0.0
C748 C 0.47564 0.86268 0.20981 0.0
C749 C 0.50166 0.88008 0.19219 0.0
C750 C 0.50708 0.91316 0.18197 0.0
C751 C 0.63602 0.0964 0.15642 0.0
C752 C 0.63752 0.10352 0.13238 0.0
C753 C 0.60236 0.07162 0.16718 0.0
C754 C 0.56986 0.05388 0.15405 0.0
C755 C 0.5717 0.06008 0.13001 0.0
C756 C 0.60494 0.08461 0.11935 0.0
C757 C 0.53355 0.02795 0.16464 0.0
C758 C 0.52759 0.99465 0.17499 0.0
C759 C 0.5033 0.03281 0.16055 0.0
C760 C 0.50855 0.06907 0.15193 0.0
C761 C 0.4892 0.07015 0.13238 0.0
C762 C 0.49472 0.10442 0.12417 0.0
C763 C 0.51949 0.13784 0.13538 0.0
C764 C 0.53876 0.13706 0.15486 0.0
C765 C 0.53333 0.10288 0.16315 0.0
H766 H 0.52376 0.16434 0.12898 0.0
H767 H 0.47148 0.83707 0.21768 0.0
H768 H 0.3152 0.33599 0.23213 0.0
H769 H 0.35451 0.33489 0.26318 0.0
H770 H 0.28694 0.34749 0.31438 0.0
H771 H 0.24935 0.35065 0.28352 0.0
H772 H 0.35437 0.3926 0.32446 0.0
H773 H 0.28388 0.26034 0.30049 0.0
H774 H 0.26428 0.20862 0.27232 0.0
H775 H 0.37654 0.23956 0.26153 0.0
H776 H 0.3968 0.2917 0.28948 0.0
H777 H 0.34651 0.30266 0.42829 0.0
H778 H 0.33938 0.32494 0.39054 0.0
H779 H 0.43627 0.32693 0.36542 0.0
H780 H 0.44375 0.3047 0.40338 0.0
H781 H 0.37473 0.28626 0.33722 0.0
H782 H 0.44075 0.40817 0.37043 0.0
H783 H 0.4571 0.45663 0.40047 0.0
H784 H 0.34976 0.44269 0.39551 0.0
H785 H 0.33254 0.39377 0.36569 0.0
C786 C 0.30872 0.33805 0.25008 0.0
C787 C 0.27931 0.34318 0.25562 0.0
C788 C 0.33114 0.33751 0.26777 0.0
C789 C 0.32366 0.34104 0.29115 0.0
C790 C 0.29358 0.34515 0.2965 0.0
C791 C 0.27191 0.34664 0.27891 0.0
C792 C 0.34671 0.34079 0.31045 0.0
C793 C 0.35879 0.3693 0.32725 0.0
C794 C 0.3541 0.31141 0.3136 0.0
C795 C 0.34186 0.28015 0.29681 0.0
C796 C 0.30437 0.25625 0.29197 0.0
C797 C 0.29315 0.22684 0.27608 0.0
C798 C 0.31916 0.22089 0.26508 0.0
C799 C 0.35644 0.24426 0.27001 0.0
C800 C 0.3678 0.27372 0.28588 0.0
C801 C 0.36668 0.30847 0.41488 0.0
C802 C 0.39557 0.30182 0.4187 0.0
C803 C 0.3627 0.32137 0.39337 0.0
C804 C 0.38745 0.32776 0.37529 0.0
C805 C 0.41703 0.32229 0.37924 0.0
C806 C 0.42128 0.30973 0.40091 0.0
C807 C 0.37986 0.33661 0.35183 0.0
C808 C 0.37114 0.31003 0.33415 0.0
C809 C 0.375 0.36745 0.34802 0.0
C810 C 0.38534 0.39719 0.36582 0.0
C811 C 0.42055 0.41528 0.37582 0.0
C812 C 0.42999 0.44286 0.39281 0.0
C813 C 0.40449 0.45272 0.3999 0.0
C814 C 0.36951 0.43506 0.38998 0.0
C815 C 0.35993 0.40746 0.37299 0.0
H816 H 0.41183 0.47406 0.41307 0.0
H817 H 0.31042 0.19811 0.25279 0.0
H818 H 0.85892 0.30163 0.59198 0.0
H819 H 0.88809 0.31908 0.63036 0.0
H820 H 0.97082 0.29519 0.60709 0.0
H821 H 0.94196 0.27765 0.56893 0.0
H822 H 0.93881 0.25915 0.64719 0.0
H823 H 0.99166 0.38354 0.61487 0.0
H824 H 0.99234 0.43829 0.59748 0.0
H825 H 0.93382 0.44518 0.65637 0.0
H826 H 0.93235 0.39011 0.67398 0.0
H827 H 0.0955 0.39637 0.7238 0.0
H828 H 0.05258 0.38413 0.69242 0.0
H829 H 0.96732 0.29027 0.73052 0.0
H830 H 0.01092 0.30191 0.76208 0.0
H831 H 0.99051 0.38237 0.68664 0.0
H832 H 0.91473 0.22199 0.69091 0.0
H833 H 0.92301 0.1711 0.70619 0.0
H834 H 0.03982 0.24129 0.69893 0.0
H835 H 0.03216 0.29238 0.68338 0.0
C836 C 0.88364 0.30064 0.59498 0.0
C837 C 0.89802 0.288 0.57754 0.0
C838 C 0.90023 0.31061 0.61688 0.0
C839 C 0.93139 0.30811 0.62155 0.0
C840 C 0.94656 0.29695 0.60385 0.0
C841 C 0.93011 0.28708 0.58204 0.0
C842 C 0.94739 0.31503 0.64512 0.0
C843 C 0.9498 0.286 0.65592 0.0
C844 C 0.96157 0.34999 0.65648 0.0
C845 C 0.96138 0.38232 0.64557 0.0
C846 C 0.97847 0.39638 0.62396 0.0
C847 C 0.97913 0.42757 0.61411 0.0
C848 C 0.96301 0.44511 0.62577 0.0
C849 C 0.94619 0.4315 0.64732 0.0
C850 C 0.94543 0.40029 0.65724 0.0
C851 C 0.06757 0.37323 0.72565 0.0
C852 C 0.05666 0.34974 0.74525 0.0
C853 C 0.04294 0.36647 0.70774 0.0
C854 C 0.00682 0.33617 0.70903 0.0
C855 C 0.99524 0.31358 0.72908 0.0
C856 C 0.02011 0.32019 0.74704 0.0
C857 C 0.98293 0.32686 0.68836 0.0
C858 C 0.97868 0.35524 0.67816 0.0
C859 C 0.96791 0.29164 0.67718 0.0
C860 C 0.97286 0.26108 0.6863 0.0
C861 C 0.94215 0.22649 0.69256 0.0
C862 C 0.94674 0.19763 0.70125 0.0
C863 C 0.98193 0.20301 0.70361 0.0
C864 C 0.0126 0.23721 0.69718 0.0
C865 C 0.00815 0.26612 0.68844 0.0
H866 H 0.98543 0.18066 0.71037 0.0
H867 H 0.96364 0.46932 0.61815 0.0
H868 H 0.64728 0.94625 0.89711 0.0
H869 H 0.66706 0.9933 0.92799 0.0
H870 H 0.61885 0.90484 0.97929 0.0
H871 H 0.59693 0.85798 0.9483 0.0
H872 H 0.60632 0.95507 0.99204 0.0
H873 H 0.71545 0.9585 0.96586 0.0
H874 H 0.76195 0.96447 0.93763 0.0
H875 H 0.78726 0.07611 0.92063 0.0
H876 H 0.74056 0.07063 0.94856 0.0
H877 H 0.7158 0.05976 0.08913 0.0
H878 H 0.69096 0.01652 0.05615 0.0
H879 H 0.70812 0.10778 0.01156 0.0
H880 H 0.73246 0.15118 0.04457 0.0
H881 H 0.73588 0.0593 0.99499 0.0
H882 H 0.62714 0.05355 0.0262 0.0
H883 H 0.58484 0.0452 0.05816 0.0
H884 H 0.56286 0.93312 0.06943 0.0
H885 H 0.60563 0.94107 0.03783 0.0
C886 C 0.64095 0.93703 0.91502 0.0
C887 C 0.62095 0.8987 0.92049 0.0
C888 C 0.65238 0.96385 0.93265 0.0
C889 C 0.6452 0.95268 0.95606 0.0
C890 C 0.62476 0.91423 0.96141 0.0
C891 C 0.61238 0.88747 0.94374 0.0
C892 C 0.65913 0.98085 0.97504 0.0
C893 C 0.63475 0.9776 0.99272 0.0
C894 C 0.69615 0.01064 0.97592 0.0
C895 C 0.72423 0.01399 0.9591 0.0
C896 C 0.73074 0.98422 0.95597 0.0
C897 C 0.75716 0.98753 0.94005 0.0
C898 C 0.77747 0.0206 0.9273 0.0
C899 C 0.77146 0.05048 0.93049 0.0
C900 C 0.74504 0.0473 0.94637 0.0
C901 C 0.7142 0.07057 0.07231 0.0
C902 C 0.72601 0.10872 0.06932 0.0
C903 C 0.69998 0.04589 0.05356 0.0
C904 C 0.69772 0.05913 0.03158 0.0
C905 C 0.70972 0.09723 0.02848 0.0
C906 C 0.72345 0.12185 0.0473 0.0
C907 C 0.68316 0.03308 0.01176 0.0
C908 C 0.70743 0.03682 0.99403 0.0
C909 C 0.64639 0.00321 0.01119 0.0
C910 C 0.61984 -0.00197 0.02975 0.0
C911 C 0.61349 0.02721 0.03559 0.0
C912 C 0.58941 0.02255 0.05364 0.0
C913 C 0.57123 0.98868 0.06585 0.0
C914 C 0.57698 0.95936 0.05997 0.0
C915 C 0.60112 0.96392 0.04198 0.0
H916 H 0.55264 0.98515 0.07984 0.0
H917 H 0.79792 0.02312 0.91498 0.0
H918 H 0.59653 0.6473 0.43408 0.0
H919 H 0.61104 0.62951 0.39682 0.0
H920 H 0.58248 0.70281 0.3612 0.0
H921 H 0.56532 0.71836 0.39838 0.0
H922 H 0.57147 0.64974 0.33276 0.0
H923 H 0.67111 0.73454 0.38004 0.0
H924 H 0.7088 0.75858 0.41549 0.0
H925 H 0.7281 0.66643 0.4142 0.0
H926 H 0.69 0.6415 0.37893 0.0
H927 H 0.70649 0.68986 0.24202 0.0
H928 H 0.67226 0.69634 0.27436 0.0
H929 H 0.6721 0.60473 0.31007 0.0
H930 H 0.7061 0.5981 0.27808 0.0
H931 H 0.69772 0.67102 0.3366 0.0
H932 H 0.59585 0.5912 0.28415 0.0
H933 H 0.56721 0.58116 0.24545 0.0
H934 H 0.56118 0.68088 0.2536 0.0
H935 H 0.59028 0.69183 0.29219 0.0
C936 C 0.59212 0.65846 0.41818 0.0
C937 C 0.58021 0.68437 0.41895 0.0
C938 C 0.60063 0.64857 0.39694 0.0
C939 C 0.5992 0.66597 0.37631 0.0
C940 C 0.58414 0.68929 0.37688 0.0
C941 C 0.57436 0.69817 0.39812 0.0
C942 C 0.6177 0.66362 0.35501 0.0
C943 C 0.5991 0.65452 0.33361 0.0
C944 C 0.65422 0.67095 0.35586 0.0
C945 C 0.67741 0.68596 0.37698 0.0
C946 C 0.6832 0.71928 0.38741 0.0
C947 C 0.70464 0.73307 0.40746 0.0
C948 C 0.72076 0.71399 0.41712 0.0
C949 C 0.71554 0.68114 0.40671 0.0
C950 C 0.69404 0.66717 0.38669 0.0
C951 C 0.69895 0.67103 0.25673 0.0
C952 C 0.70908 0.64361 0.25762 0.0
C953 C 0.67931 0.67465 0.27509 0.0
C954 C 0.66962 0.65088 0.29448 0.0
C955 C 0.67936 0.62328 0.29521 0.0
C956 C 0.69876 0.61955 0.27692 0.0
C957 C 0.651 0.65568 0.31473 0.0
C958 C 0.66991 0.66581 0.33589 0.0
C959 C 0.61552 0.6508 0.31335 0.0
C960 C 0.59554 0.64252 0.29096 0.0
C961 C 0.58841 0.61098 0.27769 0.0
C962 C 0.57216 0.60516 0.25576 0.0
C963 C 0.56268 0.63055 0.24702 0.0
C964 C 0.56871 0.66135 0.26037 0.0
C965 C 0.58502 0.66734 0.28228 0.0
H966 H 0.55079 0.62646 0.22988 0.0
H967 H 0.73736 0.72472 0.43264 0.0
H968 H 0.14053 0.69101 0.59871 0.0
H969 H 0.11089 0.67429 0.63699 0.0
H970 H 0.01753 0.67613 0.6088 0.0
H971 H 0.04684 0.69295 0.57076 0.0
H972 H 0.04615 0.72137 0.64642 0.0
H973 H 0.00986 0.59473 0.62399 0.0
H974 H 0.0188 0.54292 0.61168 0.0
H975 H 0.08378 0.5587 0.67253 0.0
H976 H 0.07554 0.61091 0.68507 0.0
H977 H 0.90015 0.58901 0.7297 0.0
H978 H 0.94361 0.59969 0.69886 0.0
H979 H 0.0239 0.70342 0.73138 0.0
H980 H 0.97999 0.69299 0.76251 0.0
H981 H 0.01107 0.60917 0.69507 0.0
H982 H 0.06654 0.76697 0.68698 0.0
H983 H 0.04951 0.81396 0.6973 0.0
H984 H 0.93533 0.72932 0.69335 0.0
H985 H 0.95172 0.68202 0.68273 0.0
C986 C 0.11336 0.68708 0.6006 0.0
C987 C 0.09613 0.69367 0.58183 0.0
C988 C 0.09651 0.67755 0.62246 0.0
C989 C 0.06223 0.67438 0.62571 0.0
C990 C 0.04418 0.67885 0.60666 0.0
C991 C 0.06093 0.68835 0.58492 0.0
C992 C 0.04611 0.66945 0.64915 0.0
C993 C 0.03883 0.69699 0.65716 0.0
C994 C 0.03672 0.63775 0.66314 0.0
C995 C 0.04252 0.60707 0.6553 0.0
C996 C 0.02644 0.58747 0.63459 0.0
C997 C 0.03126 0.55793 0.62762 0.0
C998 C 0.05193 0.54759 0.64128 0.0
C999 C 0.06783 0.56678 0.66194 0.0
C1000 C 0.06309 0.59634 0.66899 0.0
C1001 C 0.92716 0.61396 0.73049 0.0
C1002 C 0.93654 0.64046 0.74835 0.0
C1003 C 0.9521 0.61983 0.71293 0.0
C1004 C 0.98687 0.65239 0.71277 0.0
C1005 C -0.00295 0.67819 0.73115 0.0
C1006 C 0.97198 0.67228 0.74884 0.0
C1007 C 0.01039 0.66065 0.69202 0.0
C1008 C 0.0193 0.63398 0.68457 0.0
C1009 C 0.02058 0.69273 0.6782 0.0
C1010 C 0.01039 0.72094 0.68439 0.0
C1011 C 0.03782 0.75846 0.6883 0.0
C1012 C 0.02828 0.78513 0.69418 0.0
C1013 C 0.99136 0.7746 0.69608 0.0
C1014 C 0.96391 0.73741 0.69198 0.0
C1015 C 0.97331 0.71066 0.68604 0.0
H1016 H 0.98403 0.79527 0.70065 0.0
H1017 H 0.05551 0.52463 0.63588 0.0
H1018 H 0.2773 0.84583 0.0499 0.0
H1019 H 0.30137 0.8904 0.0176 0.0
H1020 H 0.3173 0.97957 0.06387 0.0
H1021 H 0.29196 0.93484 0.09596 0.0
H1022 H 0.28529 0.9827 0.02676 0.0
H1023 H 0.39012 0.97153 0.04184 0.0
H1024 H 0.42468 0.93914 0.04792 0.0
H1025 H 0.39679 0.89309 0.97905 0.0
H1026 H 0.36163 0.92483 0.97266 0.0
H1027 H 0.4061 0.13776 0.95501 0.0
H1028 H 0.38707 0.09004 0.98545 0.0
H1029 H 0.33016 0.00276 0.93448 0.0
H1030 H 0.3482 0.05047 0.90393 0.0
H1031 H 0.38281 -0.00217 0.97233 0.0
H1032 H 0.27585 0.01033 0.95938 0.0
H1033 H 0.24549 0.04727 0.95469 0.0
H1034 H 0.28337 0.09607 0.0222 0.0
H1035 H 0.31445 0.0598 0.02712 0.0
C1036 C 0.28627 0.87503 0.05318 0.0
C1037 C 0.28264 0.88693 0.07535 0.0
C1038 C 0.30019 0.9005 0.03475 0.0
C1039 C 0.3114 0.93842 0.03834 0.0
C1040 C 0.30867 0.95044 0.06067 0.0
C1041 C 0.29429 0.9249 0.079 0.0
C1042 C 0.32405 0.9652 0.01863 0.0
C1043 C 0.30691 0.98619 0.01507 0.0
C1044 C 0.35184 0.96942 0.00307 0.0
C1045 C 0.37291 0.95024 0.00686 0.0
C1046 C 0.39109 0.95424 0.02806 0.0
C1047 C 0.41085 0.93605 0.03155 0.0
C1048 C 0.41285 0.91398 0.01391 0.0
C1049 C 0.39517 0.91014 0.99271 0.0
C1050 C 0.37535 0.92826 0.98914 0.0
C1051 C 0.38968 0.1084 0.95028 0.0
C1052 C 0.37831 0.09768 0.92723 0.0
C1053 C 0.37892 0.08128 0.96763 0.0
C1054 C 0.35728 0.04312 0.96208 0.0
C1055 C 0.34691 0.0322 0.93896 0.0
C1056 C 0.35701 0.05938 0.92164 0.0
C1057 C 0.34404 0.01493 0.98077 0.0
C1058 C 0.3611 0.99391 0.98408 0.0
C1059 C 0.31664 0.01106 0.99637 0.0
C1060 C 0.29781 0.0327 0.99349 0.0
C1061 C 0.27803 0.02924 0.97312 0.0
C1062 C 0.26062 0.04998 0.97044 0.0
C1063 C 0.2626 0.0741 0.98811 0.0
C1064 C 0.28191 0.07743 0.00852 0.0
C1065 C 0.2994 0.05677 0.01126 0.0
H1066 H 0.24909 0.09012 0.98601 0.0
H1067 H 0.42817 0.89993 0.01665 0.0
H1068 H 0.83075 0.16039 0.17196 0.0
H1069 H 0.89323 0.17487 0.18159 0.0
H1070 H 0.93752 0.26527 0.13163 0.0
H1071 H 0.87573 0.25038 0.12167 0.0
H1072 H 0.96513 0.22157 0.12469 0.0
H1073 H 0.94421 0.2802 0.19151 0.0
H1074 H 0.91162 0.28103 0.22684 0.0
H1075 H 0.9288 0.19706 0.25801 0.0
H1076 H 0.96113 0.19544 0.22275 0.0
H1077 H 0.1538 0.33787 0.15248 0.0
H1078 H 0.08865 0.30546 0.14221 0.0
H1079 H 0.06474 0.22542 0.19734 0.0
H1080 H 0.12951 0.25887 0.20821 0.0
H1081 H 0.02382 0.25343 0.20235 0.0
H1082 H 0.05161 0.20041 0.13756 0.0
H1083 H 0.08462 0.19962 0.10246 0.0
H1084 H 0.0547 0.27157 0.06736 0.0
H1085 H 0.02192 0.2732 0.10233 0.0
C1086 C 0.85397 0.1838 0.16347 0.0
C1087 C 0.84856 0.20418 0.14603 0.0
C1088 C 0.88958 0.19197 0.16888 0.0
C1089 C 0.92003 0.22099 0.15716 0.0
C1090 C 0.91447 0.24246 0.14065 0.0
C1091 C 0.87915 0.23406 0.13509 0.0
C1092 C 0.95778 0.22848 0.16105 0.0
C1093 C 0.97811 0.22878 0.14165 0.0
C1094 C 0.97422 0.23645 0.18327 0.0
C1095 C 0.95467 0.23737 0.2044 0.0
C1096 C 0.94074 0.26168 0.20582 0.0
C1097 C 0.92239 0.26235 0.22585 0.0
C1098 C 0.91804 0.23902 0.24462 0.0
C1099 C 0.93212 0.21506 0.24344 0.0
C1100 C 0.95047 0.21427 0.22345 0.0
C1101 C 0.13474 0.31259 0.16181 0.0
C1102 C 0.14643 0.30079 0.18111 0.0
C1103 C 0.09748 0.29403 0.15597 0.0
C1104 C 0.07165 0.26293 0.16904 0.0
C1105 C 0.08402 0.24946 0.18712 0.0
C1106 C 0.12102 0.26842 0.19323 0.0
C1107 C 0.03169 0.24755 0.16586 0.0
C1108 C 0.01085 0.24567 0.18539 0.0
C1109 C 0.01478 0.23803 0.14375 0.0
C1110 C 0.03449 0.23711 0.12265 0.0
C1111 C 0.05229 0.21628 0.12242 0.0
C1112 C 0.07092 0.21565 0.10253 0.0
C1113 C 0.07181 0.23558 0.08271 0.0
C1114 C 0.054 0.25614 0.08272 0.0
C1115 C 0.03534 0.25688 0.10256 0.0
H1116 H 0.08625 0.23505 0.06733 0.0
H1117 H 0.90384 0.23959 0.26012 0.0
H1118 H 0.83318 0.1531 0.47679 0.0
H1119 H 0.81013 0.08663 0.46877 0.0
H1120 H 0.7714 0.05882 0.53942 0.0
H1121 H 0.79427 0.12502 0.54757 0.0
H1122 H 0.80619 0.02037 0.52296 0.0
H1123 H 0.71267 0.04825 0.49978 0.0
H1124 H 0.68977 0.08365 0.47825 0.0
H1125 H 0.71816 0.05305 0.41361 0.0
H1126 H 0.74177 0.01793 0.43481 0.0
H1127 H 0.66446 0.82856 0.51732 0.0
H1128 H 0.70655 0.89573 0.52347 0.0
H1129 H 0.72331 0.91192 0.44935 0.0
H1130 H 0.68008 0.84521 0.44316 0.0
H1131 H 0.70543 0.95795 0.46546 0.0
H1132 H 0.79294 0.92395 0.48805 0.0
H1133 H 0.8166 0.88905 0.50934 0.0
H1134 H 0.80116 0.9306 0.57412 0.0
H1135 H 0.77693 0.96537 0.55325 0.0
C1136 C 0.8199 0.13281 0.49061 0.0
C1137 C 0.8152 0.14408 0.51273 0.0
C1138 C 0.80688 0.09498 0.48604 0.0
C1139 C 0.78908 0.06801 0.50353 0.0
C1140 C 0.78526 0.07933 0.52577 0.0
C1141 C 0.79804 0.11707 0.53032 0.0
C1142 C 0.77215 0.02768 0.4983 0.0
C1143 C 0.78404 0.0065 0.51048 0.0
C1144 C 0.74392 0.01009 0.48164 0.0
C1145 C 0.72935 0.03084 0.46888 0.0
C1146 C 0.71429 0.04932 0.48099 0.0
C1147 C 0.70114 0.06929 0.46884 0.0
C1148 C 0.7026 0.07069 0.44458 0.0
C1149 C 0.71711 0.05201 0.43241 0.0
C1150 C 0.73037 0.03206 0.44447 0.0
C1151 C 0.6777 0.8464 0.50242 0.0
C1152 C 0.66881 0.83196 0.47978 0.0
C1153 C 0.70191 0.88473 0.50593 0.0
C1154 C 0.71819 0.90887 0.48685 0.0
C1155 C 0.71092 0.89387 0.46431 0.0
C1156 C 0.68626 0.8558 0.4608 0.0
C1157 C 0.73932 0.95008 0.49012 0.0
C1158 C 0.72802 0.97159 0.47766 0.0
C1159 C 0.7682 0.96786 0.50644 0.0
C1160 C 0.78284 0.94705 0.51907 0.0
C1161 C 0.79432 0.92543 0.50684 0.0
C1162 C 0.80789 0.90571 0.51884 0.0
C1163 C 0.81031 0.90755 0.54307 0.0
C1164 C 0.79925 0.92919 0.55535 0.0
C1165 C 0.78565 0.94895 0.54345 0.0
H1166 H 0.82082 0.89226 0.55232 0.0
H1167 H 0.69242 0.08617 0.43521 0.0
H1168 H 0.84505 0.71091 0.78041 0.0
H1169 H 0.80964 0.74118 0.78934 0.0
H1170 H 0.77556 0.68142 0.85443 0.0
H1171 H 0.81204 0.65198 0.84597 0.0
H1172 H 0.71793 0.67407 0.81692 0.0
H1173 H 0.82066 0.75896 0.86477 0.0
H1174 H 0.88585 0.80394 0.87299 0.0
H1175 H 0.88751 0.87739 0.81974 0.0
H1176 H 0.82238 0.83249 0.81094 0.0
H1177 H 0.62473 0.74899 0.8773 0.0
H1178 H 0.66583 0.72695 0.86544 0.0
H1179 H 0.70568 0.80617 0.80875 0.0
H1180 H 0.6637 0.82797 0.82031 0.0
H1181 H 0.76173 0.80612 0.83911 0.0
H1182 H 0.65812 0.72408 0.7931 0.0
H1183 H 0.5928 0.67975 0.78481 0.0
H1184 H 0.59264 0.60111 0.83348 0.0
H1185 H 0.65784 0.64529 0.84239 0.0
C1186 C 0.83069 0.70496 0.79687 0.0
C1187 C 0.83123 0.67927 0.81256 0.0
C1188 C 0.81056 0.72221 0.80192 0.0
C1189 C 0.79011 0.71338 0.82248 0.0
C1190 C 0.79142 0.68859 0.83852 0.0
C1191 C 0.81234 0.67202 0.83374 0.0
C1192 C 0.76481 0.72745 0.82612 0.0
C1193 C 0.72735 0.70279 0.82205 0.0
C1194 C 0.77757 0.76527 0.83193 0.0
C1195 C 0.81681 0.79209 0.83695 0.0
C1196 C 0.83505 0.78444 0.85458 0.0
C1197 C 0.87195 0.80999 0.85941 0.0
C1198 C 0.89086 0.84343 0.84683 0.0
C1199 C 0.87286 0.85142 0.82942 0.0
C1200 C 0.83594 0.82594 0.82452 0.0
C1201 C 0.64196 0.76147 0.86215 0.0
C1202 C 0.64114 0.79016 0.84969 0.0
C1203 C 0.66536 0.74883 0.85541 0.0
C1204 C 0.6887 0.765 0.83627 0.0
C1205 C 0.68777 0.79344 0.82358 0.0
C1206 C 0.66372 0.80564 0.83008 0.0
C1207 C 0.71468 0.75255 0.83028 0.0
C1208 C 0.75229 0.77746 0.83382 0.0
C1209 C 0.70207 0.71495 0.82387 0.0
C1210 C 0.66282 0.6882 0.8186 0.0
C1211 C 0.64408 0.69751 0.80223 0.0
C1212 C 0.60708 0.67237 0.79738 0.0
C1213 C 0.58855 0.63768 0.80866 0.0
C1214 C 0.60702 0.62803 0.82478 0.0
C1215 C 0.64401 0.6531 0.82973 0.0
H1216 H 0.55991 0.61825 0.80487 0.0
H1217 H 0.91941 0.86321 0.85062 0.0
H1218 H 0.87179 0.71794 0.22207 0.0
H1219 H 0.93644 0.7466 0.2115 0.0
H1220 H 0.90544 0.70105 0.14232 0.0
H1221 H 0.84042 0.67242 0.15278 0.0
H1222 H 0.95096 0.68092 0.16541 0.0
H1223 H 0.94783 0.79287 0.14921 0.0
H1224 H 0.93545 0.84373 0.15759 0.0
H1225 H 0.00966 0.87914 0.21549 0.0
H1226 H 0.02211 0.82813 0.20765 0.0
H1227 H 0.12318 0.76265 0.11217 0.0
H1228 H 0.06111 0.74477 0.12353 0.0
H1229 H 0.10026 0.79515 0.1909 0.0
H1230 H 0.16326 0.81349 0.17953 0.0
H1231 H 0.0515 0.81387 0.17069 0.0
H1232 H 0.05551 0.70373 0.1875 0.0
H1233 H 0.0679 0.65253 0.18052 0.0
H1234 H 0.99161 0.6127 0.12367 0.0
H1235 H 0.97921 0.66408 0.13005 0.0
C1236 C 0.87876 0.71484 0.20442 0.0
C1237 C 0.85116 0.69288 0.18824 0.0
C1238 C 0.9157 0.73129 0.19841 0.0
C1239 C 0.92568 0.72586 0.17616 0.0
C1240 C 0.8982 0.70555 0.15958 0.0
C1241 C 0.86114 0.68945 0.16551 0.0
C1242 C 0.96442 0.73792 0.17114 0.0
C1243 C 0.97289 0.71006 0.16614 0.0
C1244 C 0.99308 0.77574 0.1732 0.0
C1245 C 0.98562 0.80642 0.17797 0.0
C1246 C 0.96125 0.81127 0.16386 0.0
C1247 C 0.95428 0.84018 0.16849 0.0
C1248 C 0.97168 0.86459 0.1871 0.0
C1249 C 0.99616 0.86019 0.20109 0.0
C1250 C 0.00322 0.8313 0.19655 0.0
C1251 C 0.11875 0.76993 0.12946 0.0
C1252 C 0.14814 0.78944 0.14499 0.0
C1253 C 0.08316 0.75956 0.13593 0.0
C1254 C 0.07605 0.76836 0.1581 0.0
C1255 C 0.10527 0.78806 0.17371 0.0
C1256 C 0.14111 0.79833 0.16725 0.0
C1257 C 0.0379 0.75691 0.16454 0.0
C1258 C 0.02955 0.78475 0.16994 0.0
C1259 C 0.00927 0.71897 0.16309 0.0
C1260 C 0.0167 0.68803 0.15912 0.0
C1261 C 0.04163 0.68429 0.17336 0.0
C1262 C 0.04861 0.65518 0.16954 0.0
C1263 C 0.03062 0.62943 0.15162 0.0
C1264 C 0.00556 0.6327 0.13752 0.0
C1265 C -0.00147 0.6618 0.14124 0.0
H1266 H 0.03604 0.6069 0.1487 0.0
H1267 H 0.96625 0.88696 0.19065 0.0
H1268 H 0.19152 0.85875 0.554 0.0
H1269 H 0.21593 0.92508 0.546 0.0
H1270 H 0.18163 0.89902 0.47447 0.0
H1271 H 0.1566 0.83209 0.48244 0.0
H1272 H 0.27098 0.96604 0.51669 0.0
H1273 H 0.16492 0.96815 0.45427 0.0
H1274 H 0.09817 0.93235 0.44715 0.0
H1275 H 0.07902 0.89712 0.51852 0.0
H1276 H 0.14558 0.93309 0.52613 0.0
H1277 H 0.34826 0.13187 0.45096 0.0
H1278 H 0.30741 0.06503 0.45901 0.0
H1279 H 0.25552 0.0922 0.51389 0.0
H1280 H 0.29683 0.15929 0.50627 0.0
H1281 H 0.20644 0.02626 0.48208 0.0
H1282 H 0.31346 0.07951 0.53196 0.0
H1283 H 0.38014 0.1166 0.53903 0.0
H1284 H 0.39542 0.04049 0.49647 0.0
H1285 H 0.32919 0.00389 0.48848 0.0
C1286 C 0.18884 0.86703 0.5366 0.0
C1287 C 0.17245 0.84036 0.51877 0.0
C1288 C 0.20275 0.90492 0.53209 0.0
C1289 C 0.20051 0.91685 0.50969 0.0
C1290 C 0.18322 0.89023 0.49194 0.0
C1291 C 0.16914 0.85212 0.49648 0.0
C1292 C 0.21903 0.95741 0.50466 0.0
C1293 C 0.25676 0.97916 0.50923 0.0
C1294 C 0.2004 0.97446 0.495 0.0
C1295 C 0.16028 0.95303 0.49069 0.0
C1296 C 0.14645 0.95287 0.46846 0.0
C1297 C 0.10865 0.93253 0.46434 0.0
C1298 C 0.08438 0.91237 0.48235 0.0
C1299 C 0.09786 0.91261 0.50455 0.0
C1300 C 0.13563 0.93292 0.50876 0.0
C1301 C 0.32786 0.12359 0.46455 0.0
C1302 C 0.32587 0.15059 0.47819 0.0
C1303 C 0.30451 0.08551 0.46903 0.0
C1304 C 0.2786 0.074 0.48697 0.0
C1305 C 0.27527 0.10079 0.49987 0.0
C1306 C 0.29906 0.13895 0.49566 0.0
C1307 C 0.25815 0.03433 0.49395 0.0
C1308 C 0.22035 0.01291 0.48967 0.0
C1309 C 0.27652 0.01749 0.50415 0.0
C1310 C 0.31639 0.03923 0.50936 0.0
C1311 C 0.33113 0.07099 0.52386 0.0
C1312 C 0.3689 0.09198 0.52805 0.0
C1313 C 0.39214 0.08112 0.51811 0.0
C1314 C 0.37759 0.04916 0.50405 0.0
C1315 C 0.33993 0.0283 0.49966 0.0
H1316 H 0.42136 0.0974 0.52138 0.0
H1317 H 0.05513 0.89663 0.47912 0.0
H1318 H 0.15281 0.28504 0.7778 0.0
H1319 H 0.18808 0.25509 0.78775 0.0
H1320 H 0.21228 0.30802 0.85513 0.0
H1321 H 0.17621 0.33741 0.84549 0.0
H1322 H 0.27512 0.32108 0.82625 0.0
H1323 H 0.16033 0.2218 0.85612 0.0
H1324 H 0.09448 0.17403 0.85452 0.0
H1325 H 0.11462 0.11842 0.79848 0.0
H1326 H 0.18059 0.16623 0.79952 0.0
H1327 H 0.35627 0.23605 0.88757 0.0
H1328 H 0.31571 0.25766 0.87409 0.0
H1329 H 0.29573 0.19463 0.81065 0.0
H1330 H 0.33708 0.17302 0.82401 0.0
H1331 H 0.23072 0.18515 0.83406 0.0
H1332 H 0.34549 0.28173 0.80516 0.0
H1333 H 0.41148 0.32904 0.80638 0.0
H1334 H 0.39176 0.38991 0.85918 0.0
H1335 H 0.32566 0.34256 0.85858 0.0
C1336 C 0.16505 0.28966 0.79491 0.0
C1337 C 0.16189 0.31349 0.81091 0.0
C1338 C 0.1851 0.27254 0.80055 0.0
C1339 C 0.20276 0.2795 0.82211 0.0
C1340 C 0.19873 0.30236 0.83841 0.0
C1341 C 0.17801 0.3189 0.83295 0.0
C1342 C 0.22774 0.2653 0.82685 0.0
C1343 C 0.26543 0.29141 0.82826 0.0
C1344 C 0.21501 0.22651 0.82848 0.0
C1345 C 0.17534 0.19788 0.82769 0.0
C1346 C 0.15067 0.19964 0.84327 0.0
C1347 C 0.11333 0.1725 0.84251 0.0
C1348 C 0.10035 0.14328 0.82635 0.0
C1349 C 0.1247 0.14112 0.81095 0.0
C1350 C 0.16208 0.16822 0.81163 0.0
C1351 C 0.34339 0.22682 0.8707 0.0
C1352 C 0.34977 0.20283 0.85682 0.0
C1353 C 0.3203 0.23928 0.86302 0.0
C1354 C 0.30291 0.22781 0.84139 0.0
C1355 C 0.30903 0.20375 0.82741 0.0
C1356 C 0.3327 0.19162 0.83499 0.0
C1357 C 0.27806 0.24099 0.83387 0.0
C1358 C 0.24044 0.21479 0.83187 0.0
C1359 C 0.29085 0.27973 0.83153 0.0
C1360 C 0.33061 0.30835 0.83198 0.0
C1361 C 0.35524 0.30499 0.81721 0.0
C1362 C 0.39267 0.33186 0.81775 0.0
C1363 C 0.40582 0.36241 0.83289 0.0
C1364 C 0.38154 0.36619 0.84748 0.0
C1365 C 0.34407 0.33935 0.84703 0.0
H1366 H 0.43481 0.3832 0.83328 0.0
H1367 H 0.07144 0.12227 0.82581 0.0
loop_
_geom_bond_atom_site_label_1
_geom_bond_atom_site_label_2
_geom_bond_distance
_geom_bond_site_symmetry_2
_ccdc_geom_bond_type
Co0 O1 2.216 . S
Co0 O2 2.091 . S
Co0 O4 2.004 . S
Co0 O10 2.021 . S
Co0 O12 2.137 . S
Co0 O13 2.244 . S
O1 Co0 2.216 . S
O1 C8 1.247 . S
O2 Co0 2.091 . S
O2 C8 1.261 . S
C3 O12 1.247 . S
C3 O13 1.272 . S
O4 Co0 2.004 . S
O4 C9 1.259 . S
Co5 O6 2.061 . S
Co5 O11 2.052 . S
Co5 O13 2.135 . S
O6 Co5 2.061 . S
O6 C9 1.235 . S
C7 O10 1.238 . S
C7 O11 1.241 . S
C8 O1 1.247 . S
C8 O2 1.261 . S
C9 O4 1.259 . S
C9 O6 1.235 . S
O10 Co0 2.021 . S
O10 C7 1.238 . S
O11 Co5 2.052 . S
O11 C7 1.241 . S
O12 Co0 2.137 . S
O12 C3 1.247 . S
O13 Co0 2.244 . S
O13 C3 1.272 . S
O13 Co5 2.135 . S
Co14 O15 2.216 . S
Co14 O16 2.091 . S
Co14 O18 2.004 . S
Co14 O24 2.021 . S
Co14 O26 2.137 . S
Co14 O27 2.244 . S
O15 Co14 2.216 . S
O15 C22 1.247 . S
O16 Co14 2.091 . S
O16 C22 1.261 . S
C17 O26 1.247 . S
C17 O27 1.272 . S
O18 Co14 2.004 . S
O18 C23 1.259 . S
Co19 O20 2.061 . S
Co19 O25 2.052 . S
Co19 O27 2.135 . S
O20 Co19 2.061 . S
O20 C23 1.235 . S
C21 O24 1.238 . S
C21 O25 1.241 . S
C22 O15 1.247 . S
C22 O16 1.261 . S
C23 O18 1.259 . S
C23 O20 1.235 . S
O24 Co14 2.021 . S
O24 C21 1.238 . S
O25 Co19 2.052 . S
O25 C21 1.241 . S
O26 Co14 2.137 . S
O26 C17 1.247 . S
O27 Co14 2.244 . S
O27 C17 1.272 . S
O27 Co19 2.135 . S
Co28 O29 2.216 . S
Co28 O30 2.091 . S
Co28 O32 2.004 . S
Co28 O38 2.021 . S
Co28 O40 2.137 . S
Co28 O41 2.244 . S
O29 Co28 2.216 . S
O29 C36 1.247 . S
O30 Co28 2.091 . S
O30 C36 1.261 . S
C31 O40 1.247 . S
C31 O41 1.272 . S
O32 Co28 2.004 . S
O32 C37 1.259 . S
Co33 O34 2.061 . S
Co33 O39 2.052 . S
Co33 O41 2.135 . S
O34 Co33 2.061 . S
O34 C37 1.235 . S
C35 O38 1.238 . S
C35 O39 1.241 . S
C36 O29 1.247 . S
C36 O30 1.261 . S
C37 O32 1.259 . S
C37 O34 1.235 . S
O38 Co28 2.021 . S
O38 C35 1.238 . S
O39 Co33 2.052 . S
O39 C35 1.241 . S
O40 Co28 2.137 . S
O40 C31 1.247 . S
O41 Co28 2.244 . S
O41 C31 1.272 . S
O41 Co33 2.135 . S
Co42 O43 2.216 . S
Co42 O44 2.091 . S
Co42 O46 2.004 . S
Co42 O52 2.021 . S
Co42 O54 2.137 . S
Co42 O55 2.244 . S
O43 Co42 2.216 . S
O43 C50 1.247 . S
O44 Co42 2.091 . S
O44 C50 1.261 . S
C45 O54 1.247 . S
C45 O55 1.272 . S
O46 Co42 2.004 . S
O46 C51 1.259 . S
Co47 O48 2.061 . S
Co47 O53 2.052 . S
Co47 O55 2.135 . S
O48 Co47 2.061 . S
O48 C51 1.235 . S
C49 O52 1.238 . S
C49 O53 1.241 . S
C50 O43 1.247 . S
C50 O44 1.261 . S
C51 O46 1.259 . S
C51 O48 1.235 . S
O52 Co42 2.021 . S
O52 C49 1.238 . S
O53 Co47 2.052 . S
O53 C49 1.241 . S
O54 Co42 2.137 . S
O54 C45 1.247 . S
O55 Co42 2.244 . S
O55 C45 1.272 . S
O55 Co47 2.135 . S
Co56 O57 2.216 . S
Co56 O58 2.091 . S
Co56 O60 2.004 . S
Co56 O66 2.021 . S
Co56 O68 2.137 . S
Co56 O69 2.244 . S
O57 Co56 2.216 . S
O57 C64 1.247 . S
O58 Co56 2.091 . S
O58 C64 1.261 . S
C59 O68 1.247 . S
C59 O69 1.272 . S
O60 Co56 2.004 . S
O60 C65 1.259 . S
Co61 O62 2.061 . S
Co61 O67 2.052 . S
Co61 O69 2.135 . S
O62 Co61 2.061 . S
O62 C65 1.235 . S
C63 O66 1.238 . S
C63 O67 1.241 . S
C64 O57 1.247 . S
C64 O58 1.261 . S
C65 O60 1.259 . S
C65 O62 1.235 . S
O66 Co56 2.021 . S
O66 C63 1.238 . S
O67 Co61 2.052 . S
O67 C63 1.241 . S
O68 Co56 2.137 . S
O68 C59 1.247 . S
O69 Co56 2.244 . S
O69 C59 1.272 . S
O69 Co61 2.135 . S
Co70 O71 2.216 . S
Co70 O72 2.091 . S
Co70 O74 2.004 . S
Co70 O80 2.021 . S
Co70 O82 2.137 . S
Co70 O83 2.244 . S
O71 Co70 2.216 . S
O71 C78 1.247 . S
O72 Co70 2.091 . S
O72 C78 1.261 . S
C73 O82 1.247 . S
C73 O83 1.272 . S
O74 Co70 2.004 . S
O74 C79 1.259 . S
Co75 O76 2.061 . S
Co75 O81 2.052 . S
Co75 O83 2.135 . S
O76 Co75 2.061 . S
O76 C79 1.235 . S
C77 O80 1.238 . S
C77 O81 1.241 . S
C78 O71 1.247 . S
C78 O72 1.261 . S
C79 O74 1.259 . S
C79 O76 1.235 . S
O80 Co70 2.021 . S
O80 C77 1.238 . S
O81 Co75 2.052 . S
O81 C77 1.241 . S
O82 Co70 2.137 . S
O82 C73 1.247 . S
O83 Co70 2.244 . S
O83 C73 1.272 . S
O83 Co75 2.135 . S
Co84 O85 2.216 . S
Co84 O86 2.091 . S
Co84 O88 2.004 . S
Co84 O94 2.021 . S
Co84 O96 2.137 . S
Co84 O97 2.244 . S
O85 Co84 2.216 . S
O85 C92 1.247 . S
O86 Co84 2.091 . S
O86 C92 1.261 . S
C87 O96 1.247 . S
C87 O97 1.272 . S
O88 Co84 2.004 . S
O88 C93 1.259 . S
Co89 O90 2.061 . S
Co89 O95 2.052 . S
Co89 O97 2.135 . S
O90 Co89 2.061 . S
O90 C93 1.235 . S
C91 O94 1.238 . S
C91 O95 1.241 . S
C92 O85 1.247 . S
C92 O86 1.261 . S
C93 O88 1.259 . S
C93 O90 1.235 . S
O94 Co84 2.021 . S
O94 C91 1.238 . S
O95 Co89 2.052 . S
O95 C91 1.241 . S
O96 Co84 2.137 . S
O96 C87 1.247 . S
O97 Co84 2.244 . S
O97 C87 1.272 . S
O97 Co89 2.135 . S
Co98 O99 2.216 . S
Co98 O100 2.091 . S
Co98 O102 2.004 . S
Co98 O108 2.021 . S
Co98 O110 2.137 . S
Co98 O111 2.244 . S
O99 Co98 2.216 . S
O99 C106 1.247 . S
O100 Co98 2.091 . S
O100 C106 1.261 . S
C101 O110 1.247 . S
C101 O111 1.272 . S
O102 Co98 2.004 . S
O102 C107 1.259 . S
Co103 O104 2.061 . S
Co103 O109 2.052 . S
Co103 O111 2.135 . S
O104 Co103 2.061 . S
O104 C107 1.235 . S
C105 O108 1.238 . S
C105 O109 1.241 . S
C106 O99 1.247 . S
C106 O100 1.261 . S
C107 O102 1.259 . S
C107 O104 1.235 . S
O108 Co98 2.021 . S
O108 C105 1.238 . S
O109 Co103 2.052 . S
O109 C105 1.241 . S
O110 Co98 2.137 . S
O110 C101 1.247 . S
O111 Co98 2.244 . S
O111 C101 1.272 . S
O111 Co103 2.135 . S
Co112 O113 2.216 . S
Co112 O114 2.091 . S
Co112 O116 2.004 . S
Co112 O122 2.021 . S
Co112 O124 2.137 . S
Co112 O125 2.244 . S
O113 Co112 2.216 . S
O113 C120 1.247 . S
O114 Co112 2.091 . S
O114 C120 1.261 . S
C115 O124 1.247 . S
C115 O125 1.272 . S
O116 Co112 2.004 . S
O116 C121 1.259 . S
Co117 O118 2.061 . S
Co117 O123 2.052 . S
Co117 O125 2.135 . S
O118 Co117 2.061 . S
O118 C121 1.235 . S
C119 O122 1.238 . S
C119 O123 1.241 . S
C120 O113 1.247 . S
C120 O114 1.261 . S
C121 O116 1.259 . S
C121 O118 1.235 . S
O122 Co112 2.021 . S
O122 C119 1.238 . S
O123 Co117 2.052 . S
O123 C119 1.241 . S
O124 Co112 2.137 . S
O124 C115 1.247 . S
O125 Co112 2.244 . S
O125 C115 1.272 . S
O125 Co117 2.135 . S
Co126 O127 2.216 . S
Co126 O128 2.091 . S
Co126 O130 2.004 . S
Co126 O136 2.021 . S
Co126 O138 2.137 . S
Co126 O139 2.244 . S
O127 Co126 2.216 . S
O127 C134 1.247 . S
O128 Co126 2.091 . S
O128 C134 1.261 . S
C129 O138 1.247 . S
C129 O139 1.272 . S
O130 Co126 2.004 . S
O130 C135 1.259 . S
Co131 O132 2.061 . S
Co131 O137 2.052 . S
Co131 O139 2.135 . S
O132 Co131 2.061 . S
O132 C135 1.235 . S
C133 O136 1.238 . S
C133 O137 1.241 . S
C134 O127 1.247 . S
C134 O128 1.261 . S
C135 O130 1.259 . S
C135 O132 1.235 . S
O136 Co126 2.021 . S
O136 C133 1.238 . S
O137 Co131 2.052 . S
O137 C133 1.241 . S
O138 Co126 2.137 . S
O138 C129 1.247 . S
O139 Co126 2.244 . S
O139 C129 1.272 . S
O139 Co131 2.135 . S
Co140 O141 2.216 . S
Co140 O142 2.091 . S
Co140 O144 2.004 . S
Co140 O150 2.021 . S
Co140 O152 2.137 . S
Co140 O153 2.244 . S
O141 Co140 2.216 . S
O141 C148 1.247 . S
O142 Co140 2.091 . S
O142 C148 1.261 . S
C143 O152 1.247 . S
C143 O153 1.272 . S
O144 Co140 2.004 . S
O144 C149 1.259 . S
Co145 O146 2.061 . S
Co145 O151 2.052 . S
Co145 O153 2.135 . S
O146 Co145 2.061 . S
O146 C149 1.235 . S
C147 O150 1.238 . S
C147 O151 1.241 . S
C148 O141 1.247 . S
C148 O142 1.261 . S
C149 O144 1.259 . S
C149 O146 1.235 . S
O150 Co140 2.021 . S
O150 C147 1.238 . S
O151 Co145 2.052 . S
O151 C147 1.241 . S
O152 Co140 2.137 . S
O152 C143 1.247 . S
O153 Co140 2.244 . S
O153 C143 1.272 . S
O153 Co145 2.135 . S
Co154 O155 2.216 . S
Co154 O156 2.091 . S
Co154 O158 2.004 . S
Co154 O164 2.021 . S
Co154 O166 2.137 . S
Co154 O167 2.244 . S
O155 Co154 2.216 . S
O155 C162 1.247 . S
O156 Co154 2.091 . S
O156 C162 1.261 . S
C157 O166 1.247 . S
C157 O167 1.272 . S
O158 Co154 2.004 . S
O158 C163 1.259 . S
Co159 O160 2.061 . S
Co159 O165 2.052 . S
Co159 O167 2.135 . S
O160 Co159 2.061 . S
O160 C163 1.235 . S
C161 O164 1.238 . S
C161 O165 1.241 . S
C162 O155 1.247 . S
C162 O156 1.261 . S
C163 O158 1.259 . S
C163 O160 1.235 . S
O164 Co154 2.021 . S
O164 C161 1.238 . S
O165 Co159 2.052 . S
O165 C161 1.241 . S
O166 Co154 2.137 . S
O166 C157 1.247 . S
O167 Co154 2.244 . S
O167 C157 1.272 . S
O167 Co159 2.135 . S
H168 C186 0.951 . S
H169 C188 0.951 . S
H170 C190 0.950 . S
H171 C191 0.950 . S
H172 C193 0.950 . S
H173 C196 0.950 . S
H174 C197 0.950 . S
H175 C199 0.950 . S
H176 C200 0.950 . S
H177 C201 0.951 . S
H178 C203 0.951 . S
H179 C205 0.950 . S
H180 C206 0.950 . S
H181 C208 0.950 . S
H182 C211 0.950 . S
H183 C212 0.950 . S
H184 C214 0.950 . S
H185 C215 0.950 . S
C186 H168 0.951 . S
C186 C187 1.366 . S
C186 C188 1.388 . S
C187 C186 1.366 . S
C187 C191 1.385 . S
C188 H169 0.951 . S
C188 C186 1.388 . S
C188 C189 1.366 . S
C189 C188 1.366 . S
C189 C190 1.414 . S
C189 C192 1.499 . S
C190 H170 0.950 . S
C190 C189 1.414 . S
C190 C191 1.374 . S
C191 H171 0.950 . S
C191 C187 1.385 . S
C191 C190 1.374 . S
C192 C189 1.499 . S
C192 C193 1.373 . S
C192 C194 1.389 . S
C193 H172 0.950 . S
C193 C192 1.373 . S
C193 C209 1.377 . S
C194 C192 1.389 . S
C194 C195 1.524 . S
C194 C208 1.377 . S
C195 C194 1.524 . S
C195 C196 1.397 . S
C195 C200 1.363 . S
C196 H173 0.950 . S
C196 C195 1.397 . S
C196 C197 1.334 . S
C197 H174 0.950 . S
C197 C196 1.334 . S
C197 C198 1.287 . S
C198 C197 1.287 . S
C198 C199 1.524 . S
C198 H217 0.913 . S
C199 H175 0.950 . S
C199 C198 1.524 . S
C199 C200 1.415 . S
C200 H176 0.950 . S
C200 C195 1.363 . S
C200 C199 1.415 . S
C201 H177 0.951 . S
C201 C202 1.366 . S
C201 C203 1.388 . S
C202 C201 1.366 . S
C202 C206 1.385 . S
C203 H178 0.951 . S
C203 C201 1.388 . S
C203 C204 1.366 . S
C204 C203 1.366 . S
C204 C205 1.414 . S
C204 C207 1.499 . S
C205 H179 0.950 . S
C205 C204 1.414 . S
C205 C206 1.374 . S
C206 H180 0.950 . S
C206 C202 1.385 . S
C206 C205 1.374 . S
C207 C204 1.499 . S
C207 C208 1.373 . S
C207 C209 1.389 . S
C208 H181 0.950 . S
C208 C194 1.377 . S
C208 C207 1.373 . S
C209 C193 1.377 . S
C209 C207 1.389 . S
C209 C210 1.524 . S
C210 C209 1.524 . S
C210 C211 1.397 . S
C210 C215 1.363 . S
C211 H182 0.950 . S
C211 C210 1.397 . S
C211 C212 1.334 . S
C212 H183 0.950 . S
C212 C211 1.334 . S
C212 C213 1.287 . S
C213 C212 1.287 . S
C213 C214 1.524 . S
C213 H216 0.999 . S
C214 H184 0.950 . S
C214 C213 1.524 . S
C214 C215 1.415 . S
C215 H185 0.950 . S
C215 C210 1.363 . S
C215 C214 1.415 . S
H216 C213 0.999 . S
H217 C198 0.913 . S
H218 C236 0.951 . S
H219 C238 0.951 . S
H220 C240 0.950 . S
H221 C241 0.950 . S
H222 C243 0.950 . S
H223 C246 0.950 . S
H224 C247 0.950 . S
H225 C249 0.950 . S
H226 C250 0.950 . S
H227 C251 0.951 . S
H228 C253 0.951 . S
H229 C255 0.950 . S
H230 C256 0.950 . S
H231 C258 0.950 . S
H232 C261 0.950 . S
H233 C262 0.950 . S
H234 C264 0.950 . S
H235 C265 0.950 . S
C236 H218 0.951 . S
C236 C237 1.366 . S
C236 C238 1.388 . S
C237 C236 1.366 . S
C237 C241 1.385 . S
C238 H219 0.951 . S
C238 C236 1.388 . S
C238 C239 1.366 . S
C239 C238 1.366 . S
C239 C240 1.414 . S
C239 C242 1.499 . S
C240 H220 0.950 . S
C240 C239 1.414 . S
C240 C241 1.374 . S
C241 H221 0.950 . S
C241 C237 1.385 . S
C241 C240 1.374 . S
C242 C239 1.499 . S
C242 C243 1.373 . S
C242 C244 1.389 . S
C243 H222 0.950 . S
C243 C242 1.373 . S
C243 C259 1.377 . S
C244 C242 1.389 . S
C244 C245 1.524 . S
C244 C258 1.377 . S
C245 C244 1.524 . S
C245 C246 1.397 . S
C245 C250 1.363 . S
C246 H223 0.950 . S
C246 C245 1.397 . S
C246 C247 1.334 . S
C247 H224 0.950 . S
C247 C246 1.334 . S
C247 C248 1.287 . S
C248 C247 1.287 . S
C248 C249 1.524 . S
C248 H267 0.913 . S
C249 H225 0.950 . S
C249 C248 1.524 . S
C249 C250 1.415 . S
C250 H226 0.950 . S
C250 C245 1.363 . S
C250 C249 1.415 . S
C251 H227 0.951 . S
C251 C252 1.366 . S
C251 C253 1.388 . S
C252 C251 1.366 . S
C252 C256 1.385 . S
C253 H228 0.951 . S
C253 C251 1.388 . S
C253 C254 1.366 . S
C254 C253 1.366 . S
C254 C255 1.414 . S
C254 C257 1.499 . S
C255 H229 0.950 . S
C255 C254 1.414 . S
C255 C256 1.374 . S
C256 H230 0.950 . S
C256 C252 1.385 . S
C256 C255 1.374 . S
C257 C254 1.499 . S
C257 C258 1.373 . S
C257 C259 1.389 . S
C258 H231 0.950 . S
C258 C244 1.377 . S
C258 C257 1.373 . S
C259 C243 1.377 . S
C259 C257 1.389 . S
C259 C260 1.524 . S
C260 C259 1.524 . S
C260 C261 1.397 . S
C260 C265 1.363 . S
C261 H232 0.950 . S
C261 C260 1.397 . S
C261 C262 1.334 . S
C262 H233 0.950 . S
C262 C261 1.334 . S
C262 C263 1.287 . S
C263 C262 1.287 . S
C263 C264 1.524 . S
C263 H266 0.999 . S
C264 H234 0.950 . S
C264 C263 1.524 . S
C264 C265 1.415 . S
C265 H235 0.950 . S
C265 C260 1.363 . S
C265 C264 1.415 . S
H266 C263 0.999 . S
H267 C248 0.913 . S
H268 C286 0.951 . S
H269 C288 0.951 . S
H270 C290 0.950 . S
H271 C291 0.950 . S
H272 C293 0.950 . S
H273 C296 0.950 . S
H274 C297 0.950 . S
H275 C299 0.950 . S
H276 C300 0.950 . S
H277 C301 0.951 . S
H278 C303 0.951 . S
H279 C305 0.950 . S
H280 C306 0.950 . S
H281 C308 0.950 . S
H282 C311 0.950 . S
H283 C312 0.950 . S
H284 C314 0.950 . S
H285 C315 0.950 . S
C286 H268 0.951 . S
C286 C287 1.366 . S
C286 C288 1.388 . S
C287 C286 1.366 . S
C287 C291 1.385 . S
C288 H269 0.951 . S
C288 C286 1.388 . S
C288 C289 1.366 . S
C289 C288 1.366 . S
C289 C290 1.414 . S
C289 C292 1.499 . S
C290 H270 0.950 . S
C290 C289 1.414 . S
C290 C291 1.374 . S
C291 H271 0.950 . S
C291 C287 1.385 . S
C291 C290 1.374 . S
C292 C289 1.499 . S
C292 C293 1.373 . S
C292 C294 1.389 . S
C293 H272 0.950 . S
C293 C292 1.373 . S
C293 C309 1.377 . S
C294 C292 1.389 . S
C294 C295 1.524 . S
C294 C308 1.377 . S
C295 C294 1.524 . S
C295 C296 1.397 . S
C295 C300 1.363 . S
C296 H273 0.950 . S
C296 C295 1.397 . S
C296 C297 1.334 . S
C297 H274 0.950 . S
C297 C296 1.334 . S
C297 C298 1.287 . S
C298 C297 1.287 . S
C298 C299 1.524 . S
C298 H317 0.913 . S
C299 H275 0.950 . S
C299 C298 1.524 . S
C299 C300 1.415 . S
C300 H276 0.950 . S
C300 C295 1.363 . S
C300 C299 1.415 . S
C301 H277 0.951 . S
C301 C302 1.366 . S
C301 C303 1.388 . S
C302 C301 1.366 . S
C302 C306 1.385 . S
C303 H278 0.951 . S
C303 C301 1.388 . S
C303 C304 1.366 . S
C304 C303 1.366 . S
C304 C305 1.414 . S
C304 C307 1.499 . S
C305 H279 0.950 . S
C305 C304 1.414 . S
C305 C306 1.374 . S
C306 H280 0.950 . S
C306 C302 1.385 . S
C306 C305 1.374 . S
C307 C304 1.499 . S
C307 C308 1.373 . S
C307 C309 1.389 . S
C308 H281 0.950 . S
C308 C294 1.377 . S
C308 C307 1.373 . S
C309 C293 1.377 . S
C309 C307 1.389 . S
C309 C310 1.524 . S
C310 C309 1.524 . S
C310 C311 1.397 . S
C310 C315 1.363 . S
C311 H282 0.950 . S
C311 C310 1.397 . S
C311 C312 1.334 . S
C312 H283 0.950 . S
C312 C311 1.334 . S
C312 C313 1.287 . S
C313 C312 1.287 . S
C313 C314 1.524 . S
C313 H316 0.999 . S
C314 H284 0.950 . S
C314 C313 1.524 . S
C314 C315 1.415 . S
C315 H285 0.950 . S
C315 C310 1.363 . S
C315 C314 1.415 . S
H316 C313 0.999 . S
H317 C298 0.913 . S
H318 C336 0.951 . S
H319 C338 0.951 . S
H320 C340 0.950 . S
H321 C341 0.950 . S
H322 C343 0.950 . S
H323 C346 0.950 . S
H324 C347 0.950 . S
H325 C349 0.950 . S
H326 C350 0.950 . S
H327 C351 0.951 . S
H328 C353 0.951 . S
H329 C355 0.950 . S
H330 C356 0.950 . S
H331 C358 0.950 . S
H332 C361 0.950 . S
H333 C362 0.950 . S
H334 C364 0.950 . S
H335 C365 0.950 . S
C336 H318 0.951 . S
C336 C337 1.366 . S
C336 C338 1.388 . S
C337 C336 1.366 . S
C337 C341 1.385 . S
C338 H319 0.951 . S
C338 C336 1.388 . S
C338 C339 1.366 . S
C339 C338 1.366 . S
C339 C340 1.414 . S
C339 C342 1.499 . S
C340 H320 0.950 . S
C340 C339 1.414 . S
C340 C341 1.374 . S
C341 H321 0.950 . S
C341 C337 1.385 . S
C341 C340 1.374 . S
C342 C339 1.499 . S
C342 C343 1.373 . S
C342 C344 1.389 . S
C343 H322 0.950 . S
C343 C342 1.373 . S
C343 C359 1.377 . S
C344 C342 1.389 . S
C344 C345 1.524 . S
C344 C358 1.377 . S
C345 C344 1.524 . S
C345 C346 1.397 . S
C345 C350 1.363 . S
C346 H323 0.950 . S
C346 C345 1.397 . S
C346 C347 1.334 . S
C347 H324 0.950 . S
C347 C346 1.334 . S
C347 C348 1.287 . S
C348 C347 1.287 . S
C348 C349 1.524 . S
C348 H367 0.913 . S
C349 H325 0.950 . S
C349 C348 1.524 . S
C349 C350 1.415 . S
C350 H326 0.950 . S
C350 C345 1.363 . S
C350 C349 1.415 . S
C351 H327 0.951 . S
C351 C352 1.366 . S
C351 C353 1.388 . S
C352 C351 1.366 . S
C352 C356 1.385 . S
C353 H328 0.951 . S
C353 C351 1.388 . S
C353 C354 1.366 . S
C354 C353 1.366 . S
C354 C355 1.414 . S
C354 C357 1.499 . S
C355 H329 0.950 . S
C355 C354 1.414 . S
C355 C356 1.374 . S
C356 H330 0.950 . S
C356 C352 1.385 . S
C356 C355 1.374 . S
C357 C354 1.499 . S
C357 C358 1.373 . S
C357 C359 1.389 . S
C358 H331 0.950 . S
C358 C344 1.377 . S
C358 C357 1.373 . S
C359 C343 1.377 . S
C359 C357 1.389 . S
C359 C360 1.524 . S
C360 C359 1.524 . S
C360 C361 1.397 . S
C360 C365 1.363 . S
C361 H332 0.950 . S
C361 C360 1.397 . S
C361 C362 1.334 . S
C362 H333 0.950 . S
C362 C361 1.334 . S
C362 C363 1.287 . S
C363 C362 1.287 . S
C363 C364 1.524 . S
C363 H366 0.999 . S
C364 H334 0.950 . S
C364 C363 1.524 . S
C364 C365 1.415 . S
C365 H335 0.950 . S
C365 C360 1.363 . S
C365 C364 1.415 . S
H366 C363 0.999 . S
H367 C348 0.913 . S
H368 C386 0.951 . S
H369 C388 0.951 . S
H370 C390 0.950 . S
H371 C391 0.950 . S
H372 C393 0.950 . S
H373 C396 0.950 . S
H374 C397 0.950 . S
H375 C399 0.950 . S
H376 C400 0.950 . S
H377 C401 0.951 . S
H378 C403 0.951 . S
H379 C405 0.950 . S
H380 C406 0.950 . S
H381 C408 0.950 . S
H382 C411 0.950 . S
H383 C412 0.950 . S
H384 C414 0.950 . S
H385 C415 0.950 . S
C386 H368 0.951 . S
C386 C387 1.366 . S
C386 C388 1.388 . S
C387 C386 1.366 . S
C387 C391 1.385 . S
C388 H369 0.951 . S
C388 C386 1.388 . S
C388 C389 1.366 . S
C389 C388 1.366 . S
C389 C390 1.414 . S
C389 C392 1.499 . S
C390 H370 0.950 . S
C390 C389 1.414 . S
C390 C391 1.374 . S
C391 H371 0.950 . S
C391 C387 1.385 . S
C391 C390 1.374 . S
C392 C389 1.499 . S
C392 C393 1.373 . S
C392 C394 1.389 . S
C393 H372 0.950 . S
C393 C392 1.373 . S
C393 C409 1.377 . S
C394 C392 1.389 . S
C394 C395 1.524 . S
C394 C408 1.377 . S
C395 C394 1.524 . S
C395 C396 1.397 . S
C395 C400 1.363 . S
C396 H373 0.950 . S
C396 C395 1.397 . S
C396 C397 1.334 . S
C397 H374 0.950 . S
C397 C396 1.334 . S
C397 C398 1.287 . S
C398 C397 1.287 . S
C398 C399 1.524 . S
C398 H417 0.913 . S
C399 H375 0.950 . S
C399 C398 1.524 . S
C399 C400 1.415 . S
C400 H376 0.950 . S
C400 C395 1.363 . S
C400 C399 1.415 . S
C401 H377 0.951 . S
C401 C402 1.366 . S
C401 C403 1.388 . S
C402 C401 1.366 . S
C402 C406 1.385 . S
C403 H378 0.951 . S
C403 C401 1.388 . S
C403 C404 1.366 . S
C404 C403 1.366 . S
C404 C405 1.414 . S
C404 C407 1.499 . S
C405 H379 0.950 . S
C405 C404 1.414 . S
C405 C406 1.374 . S
C406 H380 0.950 . S
C406 C402 1.385 . S
C406 C405 1.374 . S
C407 C404 1.499 . S
C407 C408 1.373 . S
C407 C409 1.389 . S
C408 H381 0.950 . S
C408 C394 1.377 . S
C408 C407 1.373 . S
C409 C393 1.377 . S
C409 C407 1.389 . S
C409 C410 1.524 . S
C410 C409 1.524 . S
C410 C411 1.397 . S
C410 C415 1.363 . S
C411 H382 0.950 . S
C411 C410 1.397 . S
C411 C412 1.334 . S
C412 H383 0.950 . S
C412 C411 1.334 . S
C412 C413 1.287 . S
C413 C412 1.287 . S
C413 C414 1.524 . S
C413 H416 0.999 . S
C414 H384 0.950 . S
C414 C413 1.524 . S
C414 C415 1.415 . S
C415 H385 0.950 . S
C415 C410 1.363 . S
C415 C414 1.415 . S
H416 C413 0.999 . S
H417 C398 0.913 . S
H418 C436 0.951 . S
H419 C438 0.951 . S
H420 C440 0.950 . S
H421 C441 0.950 . S
H422 C443 0.950 . S
H423 C446 0.950 . S
H424 C447 0.950 . S
H425 C449 0.950 . S
H426 C450 0.950 . S
H427 C451 0.951 . S
H428 C453 0.951 . S
H429 C455 0.950 . S
H430 C456 0.950 . S
H431 C458 0.950 . S
H432 C461 0.950 . S
H433 C462 0.950 . S
H434 C464 0.950 . S
H435 C465 0.950 . S
C436 H418 0.951 . S
C436 C437 1.366 . S
C436 C438 1.388 . S
C437 C436 1.366 . S
C437 C441 1.385 . S
C438 H419 0.951 . S
C438 C436 1.388 . S
C438 C439 1.366 . S
C439 C438 1.366 . S
C439 C440 1.414 . S
C439 C442 1.499 . S
C440 H420 0.950 . S
C440 C439 1.414 . S
C440 C441 1.374 . S
C441 H421 0.950 . S
C441 C437 1.385 . S
C441 C440 1.374 . S
C442 C439 1.499 . S
C442 C443 1.373 . S
C442 C444 1.389 . S
C443 H422 0.950 . S
C443 C442 1.373 . S
C443 C459 1.377 . S
C444 C442 1.389 . S
C444 C445 1.524 . S
C444 C458 1.377 . S
C445 C444 1.524 . S
C445 C446 1.397 . S
C445 C450 1.363 . S
C446 H423 0.950 . S
C446 C445 1.397 . S
C446 C447 1.334 . S
C447 H424 0.950 . S
C447 C446 1.334 . S
C447 C448 1.287 . S
C448 C447 1.287 . S
C448 C449 1.524 . S
C448 H467 0.913 . S
C449 H425 0.950 . S
C449 C448 1.524 . S
C449 C450 1.415 . S
C450 H426 0.950 . S
C450 C445 1.363 . S
C450 C449 1.415 . S
C451 H427 0.951 . S
C451 C452 1.366 . S
C451 C453 1.388 . S
C452 C451 1.366 . S
C452 C456 1.385 . S
C453 H428 0.951 . S
C453 C451 1.388 . S
C453 C454 1.366 . S
C454 C453 1.366 . S
C454 C455 1.414 . S
C454 C457 1.499 . S
C455 H429 0.950 . S
C455 C454 1.414 . S
C455 C456 1.374 . S
C456 H430 0.950 . S
C456 C452 1.385 . S
C456 C455 1.374 . S
C457 C454 1.499 . S
C457 C458 1.373 . S
C457 C459 1.389 . S
C458 H431 0.950 . S
C458 C444 1.377 . S
C458 C457 1.373 . S
C459 C443 1.377 . S
C459 C457 1.389 . S
C459 C460 1.524 . S
C460 C459 1.524 . S
C460 C461 1.397 . S
C460 C465 1.363 . S
C461 H432 0.950 . S
C461 C460 1.397 . S
C461 C462 1.334 . S
C462 H433 0.950 . S
C462 C461 1.334 . S
C462 C463 1.287 . S
C463 C462 1.287 . S
C463 C464 1.524 . S
C463 H466 0.999 . S
C464 H434 0.950 . S
C464 C463 1.524 . S
C464 C465 1.415 . S
C465 H435 0.950 . S
C465 C460 1.363 . S
C465 C464 1.415 . S
H466 C463 0.999 . S
H467 C448 0.913 . S
H468 C486 0.951 . S
H469 C488 0.951 . S
H470 C490 0.950 . S
H471 C491 0.950 . S
H472 C493 0.950 . S
H473 C496 0.950 . S
H474 C497 0.950 . S
H475 C499 0.950 . S
H476 C500 0.950 . S
H477 C501 0.951 . S
H478 C503 0.951 . S
H479 C505 0.950 . S
H480 C506 0.950 . S
H481 C508 0.950 . S
H482 C511 0.950 . S
H483 C512 0.950 . S
H484 C514 0.950 . S
H485 C515 0.950 . S
C486 H468 0.951 . S
C486 C487 1.366 . S
C486 C488 1.388 . S
C487 C486 1.366 . S
C487 C491 1.385 . S
C488 H469 0.951 . S
C488 C486 1.388 . S
C488 C489 1.366 . S
C489 C488 1.366 . S
C489 C490 1.414 . S
C489 C492 1.499 . S
C490 H470 0.950 . S
C490 C489 1.414 . S
C490 C491 1.374 . S
C491 H471 0.950 . S
C491 C487 1.385 . S
C491 C490 1.374 . S
C492 C489 1.499 . S
C492 C493 1.373 . S
C492 C494 1.389 . S
C493 H472 0.950 . S
C493 C492 1.373 . S
C493 C509 1.377 . S
C494 C492 1.389 . S
C494 C495 1.524 . S
C494 C508 1.377 . S
C495 C494 1.524 . S
C495 C496 1.397 . S
C495 C500 1.363 . S
C496 H473 0.950 . S
C496 C495 1.397 . S
C496 C497 1.334 . S
C497 H474 0.950 . S
C497 C496 1.334 . S
C497 C498 1.287 . S
C498 C497 1.287 . S
C498 C499 1.524 . S
C498 H517 0.913 . S
C499 H475 0.950 . S
C499 C498 1.524 . S
C499 C500 1.415 . S
C500 H476 0.950 . S
C500 C495 1.363 . S
C500 C499 1.415 . S
C501 H477 0.951 . S
C501 C502 1.366 . S
C501 C503 1.388 . S
C502 C501 1.366 . S
C502 C506 1.385 . S
C503 H478 0.951 . S
C503 C501 1.388 . S
C503 C504 1.366 . S
C504 C503 1.366 . S
C504 C505 1.414 . S
C504 C507 1.499 . S
C505 H479 0.950 . S
C505 C504 1.414 . S
C505 C506 1.374 . S
C506 H480 0.950 . S
C506 C502 1.385 . S
C506 C505 1.374 . S
C507 C504 1.499 . S
C507 C508 1.373 . S
C507 C509 1.389 . S
C508 H481 0.950 . S
C508 C494 1.377 . S
C508 C507 1.373 . S
C509 C493 1.377 . S
C509 C507 1.389 . S
C509 C510 1.524 . S
C510 C509 1.524 . S
C510 C511 1.397 . S
C510 C515 1.363 . S
C511 H482 0.950 . S
C511 C510 1.397 . S
C511 C512 1.334 . S
C512 H483 0.950 . S
C512 C511 1.334 . S
C512 C513 1.287 . S
C513 C512 1.287 . S
C513 C514 1.524 . S
C513 H516 0.999 . S
C514 H484 0.950 . S
C514 C513 1.524 . S
C514 C515 1.415 . S
C515 H485 0.950 . S
C515 C510 1.363 . S
C515 C514 1.415 . S
H516 C513 0.999 . S
H517 C498 0.913 . S
H518 C536 0.951 . S
H519 C538 0.951 . S
H520 C540 0.950 . S
H521 C541 0.950 . S
H522 C543 0.950 . S
H523 C546 0.950 . S
H524 C547 0.950 . S
H525 C549 0.950 . S
H526 C550 0.950 . S
H527 C551 0.951 . S
H528 C553 0.951 . S
H529 C555 0.950 . S
H530 C556 0.950 . S
H531 C558 0.950 . S
H532 C561 0.950 . S
H533 C562 0.950 . S
H534 C564 0.950 . S
H535 C565 0.950 . S
C536 H518 0.951 . S
C536 C537 1.366 . S
C536 C538 1.388 . S
C537 C536 1.366 . S
C537 C541 1.385 . S
C538 H519 0.951 . S
C538 C536 1.388 . S
C538 C539 1.366 . S
C539 C538 1.366 . S
C539 C540 1.414 . S
C539 C542 1.499 . S
C540 H520 0.950 . S
C540 C539 1.414 . S
C540 C541 1.374 . S
C541 H521 0.950 . S
C541 C537 1.385 . S
C541 C540 1.374 . S
C542 C539 1.499 . S
C542 C543 1.373 . S
C542 C544 1.389 1_455 S
C543 H522 0.950 . S
C543 C542 1.373 . S
C543 C559 1.377 . S
C544 C542 1.389 1_655 S
C544 C545 1.524 . S
C544 C558 1.377 . S
C545 C544 1.524 . S
C545 C546 1.397 . S
C545 C550 1.363 . S
C546 H523 0.950 . S
C546 C545 1.397 . S
C546 C547 1.334 . S
C547 H524 0.950 . S
C547 C546 1.334 . S
C547 C548 1.287 . S
C548 C547 1.287 . S
C548 C549 1.524 . S
C548 H567 0.913 . S
C549 H525 0.950 . S
C549 C548 1.524 . S
C549 C550 1.415 . S
C550 H526 0.950 . S
C550 C545 1.363 . S
C550 C549 1.415 . S
C551 H527 0.951 . S
C551 C552 1.366 . S
C551 C553 1.388 . S
C552 C551 1.366 . S
C552 C556 1.385 . S
C553 H528 0.951 . S
C553 C551 1.388 . S
C553 C554 1.366 . S
C554 C553 1.366 . S
C554 C555 1.414 . S
C554 C557 1.499 . S
C555 H529 0.950 . S
C555 C554 1.414 . S
C555 C556 1.374 . S
C556 H530 0.950 . S
C556 C552 1.385 . S
C556 C555 1.374 . S
C557 C554 1.499 . S
C557 C558 1.373 . S
C557 C559 1.389 1_655 S
C558 H531 0.950 . S
C558 C544 1.377 . S
C558 C557 1.373 . S
C559 C543 1.377 . S
C559 C557 1.389 1_455 S
C559 C560 1.524 . S
C560 C559 1.524 . S
C560 C561 1.397 . S
C560 C565 1.363 . S
C561 H532 0.950 . S
C561 C560 1.397 . S
C561 C562 1.334 . S
C562 H533 0.950 . S
C562 C561 1.334 . S
C562 C563 1.287 . S
C563 C562 1.287 . S
C563 C564 1.524 . S
C563 H566 0.999 . S
C564 H534 0.950 . S
C564 C563 1.524 . S
C564 C565 1.415 . S
C565 H535 0.950 . S
C565 C560 1.363 . S
C565 C564 1.415 . S
H566 C563 0.999 . S
H567 C548 0.913 . S
H568 C586 0.951 . S
H569 C588 0.951 1_565 S
H570 C590 0.950 . S
H571 C591 0.950 . S
H572 C593 0.950 . S
H573 C596 0.950 . S
H574 C597 0.950 1_545 S
H575 C599 0.950 . S
H576 C600 0.950 . S
H577 C601 0.951 . S
H578 C603 0.951 1_545 S
H579 C605 0.950 . S
H580 C606 0.950 . S
H581 C608 0.950 . S
H582 C611 0.950 . S
H583 C612 0.950 1_565 S
H584 C614 0.950 . S
H585 C615 0.950 . S
C586 H568 0.951 . S
C586 C587 1.366 . S
C586 C588 1.388 . S
C587 C586 1.366 . S
C587 C591 1.385 . S
C588 H569 0.951 1_545 S
C588 C586 1.388 . S
C588 C589 1.366 . S
C589 C588 1.366 . S
C589 C590 1.414 . S
C589 C592 1.499 . S
C590 H570 0.950 . S
C590 C589 1.414 . S
C590 C591 1.374 . S
C591 H571 0.950 . S
C591 C587 1.385 . S
C591 C590 1.374 . S
C592 C589 1.499 . S
C592 C593 1.373 . S
C592 C594 1.389 1_545 S
C593 H572 0.950 . S
C593 C592 1.373 . S
C593 C609 1.377 . S
C594 C592 1.389 1_565 S
C594 C595 1.524 . S
C594 C608 1.377 . S
C595 C594 1.524 . S
C595 C596 1.397 1_565 S
C595 C600 1.363 . S
C596 H573 0.950 . S
C596 C595 1.397 1_545 S
C596 C597 1.334 1_545 S
C597 H574 0.950 1_565 S
C597 C596 1.334 1_565 S
C597 C598 1.287 . S
C598 C597 1.287 . S
C598 C599 1.524 . S
C598 H617 0.913 . S
C599 H575 0.950 . S
C599 C598 1.524 . S
C599 C600 1.415 . S
C600 H576 0.950 . S
C600 C595 1.363 . S
C600 C599 1.415 . S
C601 H577 0.951 . S
C601 C602 1.366 . S
C601 C603 1.388 . S
C602 C601 1.366 . S
C602 C606 1.385 . S
C603 H578 0.951 1_565 S
C603 C601 1.388 . S
C603 C604 1.366 . S
C604 C603 1.366 . S
C604 C605 1.414 . S
C604 C607 1.499 . S
C605 H579 0.950 . S
C605 C604 1.414 . S
C605 C606 1.374 . S
C606 H580 0.950 . S
C606 C602 1.385 . S
C606 C605 1.374 . S
C607 C604 1.499 . S
C607 C608 1.373 . S
C607 C609 1.389 1_565 S
C608 H581 0.950 . S
C608 C594 1.377 . S
C608 C607 1.373 . S
C609 C593 1.377 . S
C609 C607 1.389 1_545 S
C609 C610 1.524 . S
C610 C609 1.524 . S
C610 C611 1.397 1_545 S
C610 C615 1.363 . S
C611 H582 0.950 . S
C611 C610 1.397 1_565 S
C611 C612 1.334 1_565 S
C612 H583 0.950 1_545 S
C612 C611 1.334 1_545 S
C612 C613 1.287 . S
C613 C612 1.287 . S
C613 C614 1.524 . S
C613 H616 0.999 . S
C614 H584 0.950 . S
C614 C613 1.524 . S
C614 C615 1.415 . S
C615 H585 0.950 . S
C615 C610 1.363 . S
C615 C614 1.415 . S
H616 C613 0.999 . S
H617 C598 0.913 . S
H618 C636 0.951 . S
H619 C638 0.951 . S
H620 C640 0.950 . S
H621 C641 0.950 . S
H622 C643 0.950 . S
H623 C646 0.950 . S
H624 C647 0.950 . S
H625 C649 0.950 . S
H626 C650 0.950 . S
H627 C651 0.951 . S
H628 C653 0.951 . S
H629 C655 0.950 . S
H630 C656 0.950 . S
H631 C658 0.950 . S
H632 C661 0.950 . S
H633 C662 0.950 . S
H634 C664 0.950 . S
H635 C665 0.950 . S
C636 H618 0.951 . S
C636 C637 1.366 . S
C636 C638 1.388 . S
C637 C636 1.366 . S
C637 C641 1.385 . S
C638 H619 0.951 . S
C638 C636 1.388 . S
C638 C639 1.366 . S
C639 C638 1.366 . S
C639 C640 1.414 . S
C639 C642 1.499 . S
C640 H620 0.950 . S
C640 C639 1.414 . S
C640 C641 1.374 . S
C641 H621 0.950 . S
C641 C637 1.385 . S
C641 C640 1.374 . S
C642 C639 1.499 . S
C642 C643 1.373 . S
C642 C644 1.389 . S
C643 H622 0.950 . S
C643 C642 1.373 . S
C643 C659 1.377 . S
C644 C642 1.389 . S
C644 C645 1.524 . S
C644 C658 1.377 . S
C645 C644 1.524 . S
C645 C646 1.397 . S
C645 C650 1.363 . S
C646 H623 0.950 . S
C646 C645 1.397 . S
C646 C647 1.334 . S
C647 H624 0.950 . S
C647 C646 1.334 . S
C647 C648 1.287 . S
C648 C647 1.287 . S
C648 C649 1.524 . S
C648 H667 0.913 . S
C649 H625 0.950 . S
C649 C648 1.524 . S
C649 C650 1.415 . S
C650 H626 0.950 . S
C650 C645 1.363 . S
C650 C649 1.415 . S
C651 H627 0.951 . S
C651 C652 1.366 . S
C651 C653 1.388 . S
C652 C651 1.366 . S
C652 C656 1.385 . S
C653 H628 0.951 . S
C653 C651 1.388 . S
C653 C654 1.366 . S
C654 C653 1.366 . S
C654 C655 1.414 . S
C654 C657 1.499 . S
C655 H629 0.950 . S
C655 C654 1.414 . S
C655 C656 1.374 . S
C656 H630 0.950 . S
C656 C652 1.385 . S
C656 C655 1.374 . S
C657 C654 1.499 . S
C657 C658 1.373 . S
C657 C659 1.389 . S
C658 H631 0.950 . S
C658 C644 1.377 . S
C658 C657 1.373 . S
C659 C643 1.377 . S
C659 C657 1.389 . S
C659 C660 1.524 . S
C660 C659 1.524 . S
C660 C661 1.397 . S
C660 C665 1.363 . S
C661 H632 0.950 . S
C661 C660 1.397 . S
C661 C662 1.334 . S
C662 H633 0.950 . S
C662 C661 1.334 . S
C662 C663 1.287 . S
C663 C662 1.287 . S
C663 C664 1.524 . S
C663 H666 0.999 . S
C664 H634 0.950 . S
C664 C663 1.524 . S
C664 C665 1.415 . S
C665 H635 0.950 . S
C665 C660 1.363 . S
C665 C664 1.415 . S
H666 C663 0.999 . S
H667 C648 0.913 . S
H668 C686 0.951 . S
H669 C688 0.951 . S
H670 C690 0.950 . S
H671 C691 0.950 . S
H672 C693 0.950 . S
H673 C696 0.950 . S
H674 C697 0.950 . S
H675 C699 0.950 . S
H676 C700 0.950 . S
H677 C701 0.951 . S
H678 C703 0.951 . S
H679 C705 0.950 . S
H680 C706 0.950 . S
H681 C708 0.950 . S
H682 C711 0.950 . S
H683 C712 0.950 . S
H684 C714 0.950 . S
H685 C715 0.950 . S
C686 H668 0.951 . S
C686 C687 1.366 . S
C686 C688 1.388 . S
C687 C686 1.366 . S
C687 C691 1.385 . S
C688 H669 0.951 . S
C688 C686 1.388 . S
C688 C689 1.366 . S
C689 C688 1.366 . S
C689 C690 1.414 . S
C689 C692 1.499 . S
C690 H670 0.950 . S
C690 C689 1.414 . S
C690 C691 1.374 . S
C691 H671 0.950 . S
C691 C687 1.385 . S
C691 C690 1.374 . S
C692 C689 1.499 . S
C692 C693 1.373 . S
C692 C694 1.389 1_655 S
C693 H672 0.950 . S
C693 C692 1.373 . S
C693 C709 1.377 . S
C694 C692 1.389 1_455 S
C694 C695 1.524 . S
C694 C708 1.377 . S
C695 C694 1.524 . S
C695 C696 1.397 . S
C695 C700 1.363 . S
C696 H673 0.950 . S
C696 C695 1.397 . S
C696 C697 1.334 . S
C697 H674 0.950 . S
C697 C696 1.334 . S
C697 C698 1.287 . S
C698 C697 1.287 . S
C698 C699 1.524 . S
C698 H717 0.913 . S
C699 H675 0.950 . S
C699 C698 1.524 . S
C699 C700 1.415 . S
C700 H676 0.950 . S
C700 C695 1.363 . S
C700 C699 1.415 . S
C701 H677 0.951 . S
C701 C702 1.366 . S
C701 C703 1.388 . S
C702 C701 1.366 . S
C702 C706 1.385 . S
C703 H678 0.951 . S
C703 C701 1.388 . S
C703 C704 1.366 . S
C704 C703 1.366 . S
C704 C705 1.414 . S
C704 C707 1.499 . S
C705 H679 0.950 . S
C705 C704 1.414 . S
C705 C706 1.374 . S
C706 H680 0.950 . S
C706 C702 1.385 . S
C706 C705 1.374 . S
C707 C704 1.499 . S
C707 C708 1.373 . S
C707 C709 1.389 1_455 S
C708 H681 0.950 . S
C708 C694 1.377 . S
C708 C707 1.373 . S
C709 C693 1.377 . S
C709 C707 1.389 1_655 S
C709 C710 1.524 . S
C710 C709 1.524 . S
C710 C711 1.397 . S
C710 C715 1.363 . S
C711 H682 0.950 . S
C711 C710 1.397 . S
C711 C712 1.334 . S
C712 H683 0.950 . S
C712 C711 1.334 . S
C712 C713 1.287 . S
C713 C712 1.287 . S
C713 C714 1.524 . S
C713 H716 0.999 . S
C714 H684 0.950 . S
C714 C713 1.524 . S
C714 C715 1.415 . S
C715 H685 0.950 . S
C715 C710 1.363 . S
C715 C714 1.415 . S
H716 C713 0.999 . S
H717 C698 0.913 . S
H718 C736 0.951 . S
H719 C738 0.951 . S
H720 C740 0.950 1_545 S
H721 C741 0.950 . S
H722 C743 0.950 . S
H723 C746 0.950 . S
H724 C747 0.950 . S
H725 C749 0.950 . S
H726 C750 0.950 . S
H727 C751 0.951 . S
H728 C753 0.951 . S
H729 C755 0.950 1_565 S
H730 C756 0.950 . S
H731 C758 0.950 . S
H732 C761 0.950 . S
H733 C762 0.950 . S
H734 C764 0.950 . S
H735 C765 0.950 . S
C736 H718 0.951 . S
C736 C737 1.366 . S
C736 C738 1.388 . S
C737 C736 1.366 . S
C737 C741 1.385 . S
C738 H719 0.951 . S
C738 C736 1.388 . S
C738 C739 1.366 . S
C739 C738 1.366 . S
C739 C740 1.414 . S
C739 C742 1.499 . S
C740 H720 0.950 1_565 S
C740 C739 1.414 . S
C740 C741 1.374 . S
C741 H721 0.950 . S
C741 C737 1.385 . S
C741 C740 1.374 . S
C742 C739 1.499 . S
C742 C743 1.373 1_565 S
C742 C744 1.389 . S
C743 H722 0.950 . S
C743 C742 1.373 1_545 S
C743 C759 1.377 . S
C744 C742 1.389 . S
C744 C745 1.524 . S
C744 C758 1.377 . S
C745 C744 1.524 . S
C745 C746 1.397 . S
C745 C750 1.363 . S
C746 H723 0.950 . S
C746 C745 1.397 . S
C746 C747 1.334 . S
C747 H724 0.950 . S
C747 C746 1.334 . S
C747 C748 1.287 . S
C748 C747 1.287 . S
C748 C749 1.524 . S
C748 H767 0.913 . S
C749 H725 0.950 . S
C749 C748 1.524 . S
C749 C750 1.415 . S
C750 H726 0.950 . S
C750 C745 1.363 . S
C750 C749 1.415 . S
C751 H727 0.951 . S
C751 C752 1.366 . S
C751 C753 1.388 . S
C752 C751 1.366 . S
C752 C756 1.385 . S
C753 H728 0.951 . S
C753 C751 1.388 . S
C753 C754 1.366 . S
C754 C753 1.366 . S
C754 C755 1.414 . S
C754 C757 1.499 . S
C755 H729 0.950 1_545 S
C755 C754 1.414 . S
C755 C756 1.374 . S
C756 H730 0.950 . S
C756 C752 1.385 . S
C756 C755 1.374 . S
C757 C754 1.499 . S
C757 C758 1.373 1_545 S
C757 C759 1.389 . S
C758 H731 0.950 . S
C758 C744 1.377 . S
C758 C757 1.373 1_565 S
C759 C743 1.377 . S
C759 C757 1.389 . S
C759 C760 1.524 . S
C760 C759 1.524 . S
C760 C761 1.397 . S
C760 C765 1.363 . S
C761 H732 0.950 . S
C761 C760 1.397 . S
C761 C762 1.334 . S
C762 H733 0.950 . S
C762 C761 1.334 . S
C762 C763 1.287 . S
C763 C762 1.287 . S
C763 C764 1.524 . S
C763 H766 0.999 . S
C764 H734 0.950 . S
C764 C763 1.524 . S
C764 C765 1.415 . S
C765 H735 0.950 . S
C765 C760 1.363 . S
C765 C764 1.415 . S
H766 C763 0.999 . S
H767 C748 0.913 . S
H768 C786 0.951 . S
H769 C788 0.951 . S
H770 C790 0.950 . S
H771 C791 0.950 . S
H772 C793 0.950 . S
H773 C796 0.950 . S
H774 C797 0.950 . S
H775 C799 0.950 . S
H776 C800 0.950 . S
H777 C801 0.951 . S
H778 C803 0.951 . S
H779 C805 0.950 . S
H780 C806 0.950 . S
H781 C808 0.950 . S
H782 C811 0.950 . S
H783 C812 0.950 . S
H784 C814 0.950 . S
H785 C815 0.950 . S
C786 H768 0.951 . S
C786 C787 1.366 . S
C786 C788 1.388 . S
C787 C786 1.366 . S
C787 C791 1.385 . S
C788 H769 0.951 . S
C788 C786 1.388 . S
C788 C789 1.366 . S
C789 C788 1.366 . S
C789 C790 1.414 . S
C789 C792 1.499 . S
C790 H770 0.950 . S
C790 C789 1.414 . S
C790 C791 1.374 . S
C791 H771 0.950 . S
C791 C787 1.385 . S
C791 C790 1.374 . S
C792 C789 1.499 . S
C792 C793 1.373 . S
C792 C794 1.389 . S
C793 H772 0.950 . S
C793 C792 1.373 . S
C793 C809 1.377 . S
C794 C792 1.389 . S
C794 C795 1.524 . S
C794 C808 1.377 . S
C795 C794 1.524 . S
C795 C796 1.397 . S
C795 C800 1.363 . S
C796 H773 0.950 . S
C796 C795 1.397 . S
C796 C797 1.334 . S
C797 H774 0.950 . S
C797 C796 1.334 . S
C797 C798 1.287 . S
C798 C797 1.287 . S
C798 C799 1.524 . S
C798 H817 0.913 . S
C799 H775 0.950 . S
C799 C798 1.524 . S
C799 C800 1.415 . S
C800 H776 0.950 . S
C800 C795 1.363 . S
C800 C799 1.415 . S
C801 H777 0.951 . S
C801 C802 1.366 . S
C801 C803 1.388 . S
C802 C801 1.366 . S
C802 C806 1.385 . S
C803 H778 0.951 . S
C803 C801 1.388 . S
C803 C804 1.366 . S
C804 C803 1.366 . S
C804 C805 1.414 . S
C804 C807 1.499 . S
C805 H779 0.950 . S
C805 C804 1.414 . S
C805 C806 1.374 . S
C806 H780 0.950 . S
C806 C802 1.385 . S
C806 C805 1.374 . S
C807 C804 1.499 . S
C807 C808 1.373 . S
C807 C809 1.389 . S
C808 H781 0.950 . S
C808 C794 1.377 . S
C808 C807 1.373 . S
C809 C793 1.377 . S
C809 C807 1.389 . S
C809 C810 1.524 . S
C810 C809 1.524 . S
C810 C811 1.397 . S
C810 C815 1.363 . S
C811 H782 0.950 . S
C811 C810 1.397 . S
C811 C812 1.334 . S
C812 H783 0.950 . S
C812 C811 1.334 . S
C812 C813 1.287 . S
C813 C812 1.287 . S
C813 C814 1.524 . S
C813 H816 0.999 . S
C814 H784 0.950 . S
C814 C813 1.524 . S
C814 C815 1.415 . S
C815 H785 0.950 . S
C815 C810 1.363 . S
C815 C814 1.415 . S
H816 C813 0.999 . S
H817 C798 0.913 . S
H818 C836 0.951 . S
H819 C838 0.951 . S
H820 C840 0.942 1_455 S
H821 C841 0.950 . S
H822 C843 0.950 . S
H823 C846 0.977 . S
H824 C847 0.950 1_455 S
H825 C849 0.950 . S
H826 C850 0.950 . S
H827 C851 0.951 . S
H828 C853 0.951 . S
H829 C855 0.950 . S
H830 C856 0.950 . S
H831 C858 0.950 . S
H832 C861 0.950 1_655 S
H833 C862 0.950 1_655 S
H834 C864 0.950 . S
H835 C865 0.950 . S
C836 H818 0.951 . S
C836 C837 1.366 . S
C836 C838 1.388 . S
C837 C836 1.366 . S
C837 C841 1.385 . S
C838 H819 0.951 . S
C838 C836 1.388 . S
C838 C839 1.366 . S
C839 C838 1.366 . S
C839 C840 1.414 . S
C839 C842 1.499 . S
C840 H820 0.942 1_655 S
C840 C839 1.414 . S
C840 C841 1.374 . S
C841 H821 0.950 . S
C841 C837 1.385 . S
C841 C840 1.374 . S
C842 C839 1.499 . S
C842 C843 1.373 . S
C842 C844 1.389 . S
C843 H822 0.950 . S
C843 C842 1.373 . S
C843 C859 1.377 1_655 S
C844 C842 1.389 . S
C844 C845 1.524 . S
C844 C858 1.377 1_655 S
C845 C844 1.524 . S
C845 C846 1.389 1_655 S
C845 C850 1.363 . S
C846 H823 0.977 . S
C846 C845 1.389 1_455 S
C846 C847 1.316 1_455 S
C847 H824 0.950 1_655 S
C847 C846 1.316 1_655 S
C847 C848 1.287 . S
C848 C847 1.287 . S
C848 C849 1.524 . S
C848 H867 0.913 . S
C849 H825 0.950 . S
C849 C848 1.524 . S
C849 C850 1.415 . S
C850 H826 0.950 . S
C850 C845 1.363 . S
C850 C849 1.415 . S
C851 H827 0.951 . S
C851 C852 1.366 . S
C851 C853 1.388 . S
C852 C851 1.366 . S
C852 C856 1.385 . S
C853 H828 0.951 . S
C853 C851 1.388 . S
C853 C854 1.366 . S
C854 C853 1.366 . S
C854 C855 1.414 . S
C854 C857 1.499 . S
C855 H829 0.950 . S
C855 C854 1.414 . S
C855 C856 1.374 . S
C856 H830 0.950 . S
C856 C852 1.385 . S
C856 C855 1.374 . S
C857 C854 1.499 . S
C857 C858 1.373 . S
C857 C859 1.389 . S
C858 H831 0.950 . S
C858 C844 1.377 1_455 S
C858 C857 1.373 . S
C859 C843 1.377 1_455 S
C859 C857 1.389 . S
C859 C860 1.524 . S
C860 C859 1.524 . S
C860 C861 1.397 . S
C860 C865 1.363 . S
C861 H832 0.950 1_455 S
C861 C860 1.397 . S
C861 C862 1.334 . S
C862 H833 0.950 1_455 S
C862 C861 1.334 . S
C862 C863 1.287 . S
C863 C862 1.287 . S
C863 C864 1.524 . S
C863 H866 0.999 . S
C864 H834 0.950 . S
C864 C863 1.524 . S
C864 C865 1.415 . S
C865 H835 0.950 . S
C865 C860 1.363 . S
C865 C864 1.415 . S
H866 C863 0.999 . S
H867 C848 0.913 . S
H868 C886 0.951 . S
H869 C888 0.951 1_545 S
H870 C890 0.950 . S
H871 C891 0.950 . S
H872 C893 0.950 . S
H873 C896 0.950 . S
H874 C897 0.950 . S
H875 C899 0.950 . S
H876 C900 0.950 . S
H877 C901 0.951 . S
H878 C903 0.951 1_565 S
H879 C905 0.950 . S
H880 C906 0.950 . S
H881 C908 0.950 . S
H882 C911 0.950 . S
H883 C912 0.950 . S
H884 C914 0.950 . S
H885 C915 0.950 . S
C886 H868 0.951 . S
C886 C887 1.366 . S
C886 C888 1.388 . S
C887 C886 1.366 . S
C887 C891 1.385 . S
C888 H869 0.951 1_565 S
C888 C886 1.388 . S
C888 C889 1.366 . S
C889 C888 1.366 . S
C889 C890 1.414 . S
C889 C892 1.499 . S
C890 H870 0.950 . S
C890 C889 1.414 . S
C890 C891 1.374 . S
C891 H871 0.950 . S
C891 C887 1.385 . S
C891 C890 1.374 . S
C892 C889 1.499 . S
C892 C893 1.373 . S
C892 C894 1.389 1_565 S
C893 H872 0.950 . S
C893 C892 1.373 . S
C893 C909 1.377 1_556 S
C894 C892 1.389 1_545 S
C894 C895 1.524 . S
C894 C908 1.377 1_556 S
C895 C894 1.524 . S
C895 C896 1.397 . S
C895 C900 1.363 . S
C896 H873 0.950 . S
C896 C895 1.397 . S
C896 C897 1.334 . S
C897 H874 0.950 . S
C897 C896 1.334 . S
C897 C898 1.287 . S
C898 C897 1.287 . S
C898 C899 1.524 . S
C898 H917 0.913 . S
C899 H875 0.950 . S
C899 C898 1.524 . S
C899 C900 1.415 . S
C900 H876 0.950 . S
C900 C895 1.363 . S
C900 C899 1.415 . S
C901 H877 0.951 . S
C901 C902 1.366 . S
C901 C903 1.388 . S
C902 C901 1.366 . S
C902 C906 1.385 . S
C903 H878 0.951 1_545 S
C903 C901 1.388 . S
C903 C904 1.366 . S
C904 C903 1.366 . S
C904 C905 1.414 . S
C904 C907 1.499 . S
C905 H879 0.950 . S
C905 C904 1.414 . S
C905 C906 1.374 . S
C906 H880 0.950 . S
C906 C902 1.385 . S
C906 C905 1.374 . S
C907 C904 1.499 . S
C907 C908 1.373 . S
C907 C909 1.389 1_545 S
C908 H881 0.950 . S
C908 C894 1.377 1_554 S
C908 C907 1.373 . S
C909 C893 1.377 1_554 S
C909 C907 1.389 1_565 S
C909 C910 1.524 . S
C910 C909 1.524 . S
C910 C911 1.397 . S
C910 C915 1.363 . S
C911 H882 0.950 . S
C911 C910 1.397 . S
C911 C912 1.334 . S
C912 H883 0.950 . S
C912 C911 1.334 . S
C912 C913 1.287 . S
C913 C912 1.287 . S
C913 C914 1.524 . S
C913 H916 0.999 . S
C914 H884 0.950 . S
C914 C913 1.524 . S
C914 C915 1.415 . S
C915 H885 0.950 . S
C915 C910 1.363 . S
C915 C914 1.415 . S
H916 C913 0.999 . S
H917 C898 0.913 . S
H918 C936 0.951 . S
H919 C938 0.951 . S
H920 C940 0.950 . S
H921 C941 0.950 . S
H922 C943 0.950 . S
H923 C946 0.950 . S
H924 C947 0.950 . S
H925 C949 0.950 . S
H926 C950 0.950 . S
H927 C951 0.951 . S
H928 C953 0.951 . S
H929 C955 0.950 . S
H930 C956 0.950 . S
H931 C958 0.950 . S
H932 C961 0.950 . S
H933 C962 0.950 . S
H934 C964 0.950 . S
H935 C965 0.950 . S
C936 H918 0.951 . S
C936 C937 1.366 . S
C936 C938 1.388 . S
C937 C936 1.366 . S
C937 C941 1.385 . S
C938 H919 0.951 . S
C938 C936 1.388 . S
C938 C939 1.366 . S
C939 C938 1.366 . S
C939 C940 1.414 . S
C939 C942 1.499 . S
C940 H920 0.950 . S
C940 C939 1.414 . S
C940 C941 1.374 . S
C941 H921 0.950 . S
C941 C937 1.385 . S
C941 C940 1.374 . S
C942 C939 1.499 . S
C942 C943 1.373 . S
C942 C944 1.389 . S
C943 H922 0.950 . S
C943 C942 1.373 . S
C943 C959 1.377 . S
C944 C942 1.389 . S
C944 C945 1.524 . S
C944 C958 1.377 . S
C945 C944 1.524 . S
C945 C946 1.397 . S
C945 C950 1.363 . S
C946 H923 0.950 . S
C946 C945 1.397 . S
C946 C947 1.334 . S
C947 H924 0.950 . S
C947 C946 1.334 . S
C947 C948 1.287 . S
C948 C947 1.287 . S
C948 C949 1.524 . S
C948 H967 0.913 . S
C949 H925 0.950 . S
C949 C948 1.524 . S
C949 C950 1.415 . S
C950 H926 0.950 . S
C950 C945 1.363 . S
C950 C949 1.415 . S
C951 H927 0.951 . S
C951 C952 1.366 . S
C951 C953 1.388 . S
C952 C951 1.366 . S
C952 C956 1.385 . S
C953 H928 0.951 . S
C953 C951 1.388 . S
C953 C954 1.366 . S
C954 C953 1.366 . S
C954 C955 1.414 . S
C954 C957 1.499 . S
C955 H929 0.950 . S
C955 C954 1.414 . S
C955 C956 1.374 . S
C956 H930 0.950 . S
C956 C952 1.385 . S
C956 C955 1.374 . S
C957 C954 1.499 . S
C957 C958 1.373 . S
C957 C959 1.389 . S
C958 H931 0.950 . S
C958 C944 1.377 . S
C958 C957 1.373 . S
C959 C943 1.377 . S
C959 C957 1.389 . S
C959 C960 1.524 . S
C960 C959 1.524 . S
C960 C961 1.397 . S
C960 C965 1.363 . S
C961 H932 0.950 . S
C961 C960 1.397 . S
C961 C962 1.334 . S
C962 H933 0.950 . S
C962 C961 1.334 . S
C962 C963 1.287 . S
C963 C962 1.287 . S
C963 C964 1.524 . S
C963 H966 0.999 . S
C964 H934 0.950 . S
C964 C963 1.524 . S
C964 C965 1.415 . S
C965 H935 0.950 . S
C965 C960 1.363 . S
C965 C964 1.415 . S
H966 C963 0.999 . S
H967 C948 0.913 . S
H968 C986 0.951 . S
H969 C988 0.951 . S
H970 C990 0.950 1_655 S
H971 C991 0.950 . S
H972 C993 0.950 . S
H973 C996 0.950 . S
H974 C997 0.950 . S
H975 C999 0.950 . S
H976 C1000 0.950 . S
H977 C1001 0.951 . S
H978 C1003 0.951 . S
H979 C1005 0.950 1_455 S
H980 C1006 0.950 . S
H981 C1008 0.950 . S
H982 C1011 0.950 . S
H983 C1012 0.950 . S
H984 C1014 0.950 . S
H985 C1015 0.950 . S
C986 H968 0.951 . S
C986 C987 1.366 . S
C986 C988 1.388 . S
C987 C986 1.366 . S
C987 C991 1.385 . S
C988 H969 0.951 . S
C988 C986 1.388 . S
C988 C989 1.366 . S
C989 C988 1.366 . S
C989 C990 1.414 . S
C989 C992 1.499 . S
C990 H970 0.950 1_455 S
C990 C989 1.414 . S
C990 C991 1.374 . S
C991 H971 0.950 . S
C991 C987 1.385 . S
C991 C990 1.374 . S
C992 C989 1.499 . S
C992 C993 1.373 1_455 S
C992 C994 1.389 . S
C993 H972 0.950 . S
C993 C992 1.373 1_655 S
C993 C1009 1.377 . S
C994 C992 1.389 . S
C994 C995 1.524 . S
C994 C1008 1.377 . S
C995 C994 1.524 . S
C995 C996 1.397 . S
C995 C1000 1.363 . S
C996 H973 0.950 . S
C996 C995 1.397 . S
C996 C997 1.334 . S
C997 H974 0.950 . S
C997 C996 1.334 . S
C997 C998 1.287 . S
C998 C997 1.287 . S
C998 C999 1.524 . S
C998 H1017 0.913 . S
C999 H975 0.950 . S
C999 C998 1.524 . S
C999 C1000 1.415 . S
C1000 H976 0.950 . S
C1000 C995 1.363 . S
C1000 C999 1.415 . S
C1001 H977 0.951 . S
C1001 C1002 1.366 . S
C1001 C1003 1.388 . S
C1002 C1001 1.366 . S
C1002 C1006 1.385 . S
C1003 H978 0.951 . S
C1003 C1001 1.388 . S
C1003 C1004 1.366 . S
C1004 C1003 1.366 . S
C1004 C1005 1.414 . S
C1004 C1007 1.499 . S
C1005 H979 0.950 1_655 S
C1005 C1004 1.414 . S
C1005 C1006 1.374 . S
C1006 H980 0.950 . S
C1006 C1002 1.385 . S
C1006 C1005 1.374 . S
C1007 C1004 1.499 . S
C1007 C1008 1.373 1_655 S
C1007 C1009 1.389 . S
C1008 H981 0.950 . S
C1008 C994 1.377 . S
C1008 C1007 1.373 1_455 S
C1009 C993 1.377 . S
C1009 C1007 1.389 . S
C1009 C1010 1.524 . S
C1010 C1009 1.524 . S
C1010 C1011 1.397 . S
C1010 C1015 1.363 . S
C1011 H982 0.950 . S
C1011 C1010 1.397 . S
C1011 C1012 1.334 . S
C1012 H983 0.950 . S
C1012 C1011 1.334 . S
C1012 C1013 1.287 . S
C1013 C1012 1.287 . S
C1013 C1014 1.524 . S
C1013 H1016 0.999 . S
C1014 H984 0.950 . S
C1014 C1013 1.524 . S
C1014 C1015 1.415 . S
C1015 H985 0.950 . S
C1015 C1010 1.363 . S
C1015 C1014 1.415 . S
H1016 C1013 0.999 . S
H1017 C998 0.913 . S
H1018 C1036 0.951 . S
H1019 C1038 0.951 . S
H1020 C1040 0.950 1_545 S
H1021 C1041 0.950 . S
H1022 C1043 0.950 . S
H1023 C1046 0.950 . S
H1024 C1047 0.950 . S
H1025 C1049 0.950 . S
H1026 C1050 0.950 . S
H1027 C1051 0.951 . S
H1028 C1053 0.951 . S
H1029 C1055 0.950 1_565 S
H1030 C1056 0.950 . S
H1031 C1058 0.950 . S
H1032 C1061 0.950 . S
H1033 C1062 0.950 . S
H1034 C1064 0.950 . S
H1035 C1065 0.950 . S
C1036 H1018 0.951 . S
C1036 C1037 1.366 . S
C1036 C1038 1.388 . S
C1037 C1036 1.366 . S
C1037 C1041 1.385 . S
C1038 H1019 0.951 . S
C1038 C1036 1.388 . S
C1038 C1039 1.366 . S
C1039 C1038 1.366 . S
C1039 C1040 1.414 . S
C1039 C1042 1.499 . S
C1040 H1020 0.950 1_565 S
C1040 C1039 1.414 . S
C1040 C1041 1.374 . S
C1041 H1021 0.950 . S
C1041 C1037 1.385 . S
C1041 C1040 1.374 . S
C1042 C1039 1.499 . S
C1042 C1043 1.373 1_565 S
C1042 C1044 1.389 . S
C1043 H1022 0.950 . S
C1043 C1042 1.373 1_545 S
C1043 C1059 1.377 1_554 S
C1044 C1042 1.389 . S
C1044 C1045 1.524 . S
C1044 C1058 1.377 1_554 S
C1045 C1044 1.524 . S
C1045 C1046 1.397 . S
C1045 C1050 1.363 1_554 S
C1046 H1023 0.950 . S
C1046 C1045 1.397 . S
C1046 C1047 1.334 . S
C1047 H1024 0.950 . S
C1047 C1046 1.334 . S
C1047 C1048 1.287 . S
C1048 C1047 1.287 . S
C1048 C1049 1.524 1_554 S
C1048 H1067 0.913 . S
C1049 H1025 0.950 . S
C1049 C1048 1.524 1_556 S
C1049 C1050 1.415 . S
C1050 H1026 0.950 . S
C1050 C1045 1.363 1_556 S
C1050 C1049 1.415 . S
C1051 H1027 0.951 . S
C1051 C1052 1.366 . S
C1051 C1053 1.388 . S
C1052 C1051 1.366 . S
C1052 C1056 1.385 . S
C1053 H1028 0.951 . S
C1053 C1051 1.388 . S
C1053 C1054 1.366 . S
C1054 C1053 1.366 . S
C1054 C1055 1.414 . S
C1054 C1057 1.499 . S
C1055 H1029 0.950 1_545 S
C1055 C1054 1.414 . S
C1055 C1056 1.374 . S
C1056 H1030 0.950 . S
C1056 C1052 1.385 . S
C1056 C1055 1.374 . S
C1057 C1054 1.499 . S
C1057 C1058 1.373 1_545 S
C1057 C1059 1.389 . S
C1058 H1031 0.950 . S
C1058 C1044 1.377 1_556 S
C1058 C1057 1.373 1_565 S
C1059 C1043 1.377 1_556 S
C1059 C1057 1.389 . S
C1059 C1060 1.524 . S
C1060 C1059 1.524 . S
C1060 C1061 1.397 . S
C1060 C1065 1.363 1_556 S
C1061 H1032 0.950 . S
C1061 C1060 1.397 . S
C1061 C1062 1.334 . S
C1062 H1033 0.950 . S
C1062 C1061 1.334 . S
C1062 C1063 1.287 . S
C1063 C1062 1.287 . S
C1063 C1064 1.524 1_556 S
C1063 H1066 0.999 . S
C1064 H1034 0.950 . S
C1064 C1063 1.524 1_554 S
C1064 C1065 1.415 . S
C1065 H1035 0.950 . S
C1065 C1060 1.363 1_554 S
C1065 C1064 1.415 . S
H1066 C1063 0.999 . S
H1067 C1048 0.913 . S
H1068 C1086 0.951 . S
H1069 C1088 0.951 . S
H1070 C1090 0.950 . S
H1071 C1091 0.950 . S
H1072 C1093 0.950 . S
H1073 C1096 0.950 . S
H1074 C1097 0.950 . S
H1075 C1099 0.950 . S
H1076 C1100 0.950 . S
H1077 C1101 0.951 . S
H1078 C1103 0.951 . S
H1079 C1105 0.950 . S
H1080 C1106 0.950 . S
H1081 C1108 0.950 . S
H1082 C1111 0.950 . S
H1083 C1112 0.950 . S
H1084 C1114 0.950 . S
H1085 C1115 0.950 . S
C1086 H1068 0.951 . S
C1086 C1087 1.366 . S
C1086 C1088 1.388 . S
C1087 C1086 1.366 . S
C1087 C1091 1.385 . S
C1088 H1069 0.951 . S
C1088 C1086 1.388 . S
C1088 C1089 1.366 . S
C1089 C1088 1.366 . S
C1089 C1090 1.414 . S
C1089 C1092 1.499 . S
C1090 H1070 0.950 . S
C1090 C1089 1.414 . S
C1090 C1091 1.374 . S
C1091 H1071 0.950 . S
C1091 C1087 1.385 . S
C1091 C1090 1.374 . S
C1092 C1089 1.499 . S
C1092 C1093 1.373 . S
C1092 C1094 1.389 . S
C1093 H1072 0.950 . S
C1093 C1092 1.373 . S
C1093 C1109 1.377 1_655 S
C1094 C1092 1.389 . S
C1094 C1095 1.524 . S
C1094 C1108 1.377 1_655 S
C1095 C1094 1.524 . S
C1095 C1096 1.397 . S
C1095 C1100 1.363 . S
C1096 H1073 0.950 . S
C1096 C1095 1.397 . S
C1096 C1097 1.334 . S
C1097 H1074 0.950 . S
C1097 C1096 1.334 . S
C1097 C1098 1.287 . S
C1098 C1097 1.287 . S
C1098 C1099 1.524 . S
C1098 H1117 0.913 . S
C1099 H1075 0.950 . S
C1099 C1098 1.524 . S
C1099 C1100 1.415 . S
C1100 H1076 0.950 . S
C1100 C1095 1.363 . S
C1100 C1099 1.415 . S
C1101 H1077 0.951 . S
C1101 C1102 1.366 . S
C1101 C1103 1.388 . S
C1102 C1101 1.366 . S
C1102 C1106 1.385 . S
C1103 H1078 0.951 . S
C1103 C1101 1.388 . S
C1103 C1104 1.366 . S
C1104 C1103 1.366 . S
C1104 C1105 1.414 . S
C1104 C1107 1.499 . S
C1105 H1079 0.950 . S
C1105 C1104 1.414 . S
C1105 C1106 1.374 . S
C1106 H1080 0.950 . S
C1106 C1102 1.385 . S
C1106 C1105 1.374 . S
C1107 C1104 1.499 . S
C1107 C1108 1.373 . S
C1107 C1109 1.389 . S
C1108 H1081 0.950 . S
C1108 C1094 1.377 1_455 S
C1108 C1107 1.373 . S
C1109 C1093 1.377 1_455 S
C1109 C1107 1.389 . S
C1109 C1110 1.524 . S
C1110 C1109 1.524 . S
C1110 C1111 1.397 . S
C1110 C1115 1.363 . S
C1111 H1082 0.950 . S
C1111 C1110 1.397 . S
C1111 C1112 1.334 . S
C1112 H1083 0.950 . S
C1112 C1111 1.334 . S
C1112 C1113 1.287 . S
C1113 C1112 1.287 . S
C1113 C1114 1.524 . S
C1113 H1116 0.999 . S
C1114 H1084 0.950 . S
C1114 C1113 1.524 . S
C1114 C1115 1.415 . S
C1115 H1085 0.950 . S
C1115 C1110 1.363 . S
C1115 C1114 1.415 . S
H1116 C1113 0.999 . S
H1117 C1098 0.913 . S
H1118 C1136 0.951 . S
H1119 C1138 0.951 . S
H1120 C1140 0.950 . S
H1121 C1141 0.950 . S
H1122 C1143 0.950 . S
H1123 C1146 0.950 . S
H1124 C1147 0.950 . S
H1125 C1149 0.950 . S
H1126 C1150 0.950 . S
H1127 C1151 0.951 . S
H1128 C1153 0.951 . S
H1129 C1155 0.950 . S
H1130 C1156 0.950 . S
H1131 C1158 0.950 . S
H1132 C1161 0.950 . S
H1133 C1162 0.950 . S
H1134 C1164 0.950 . S
H1135 C1165 0.950 . S
C1136 H1118 0.951 . S
C1136 C1137 1.366 . S
C1136 C1138 1.388 . S
C1137 C1136 1.366 . S
C1137 C1141 1.385 . S
C1138 H1119 0.951 . S
C1138 C1136 1.388 . S
C1138 C1139 1.366 . S
C1139 C1138 1.366 . S
C1139 C1140 1.414 . S
C1139 C1142 1.499 . S
C1140 H1120 0.950 . S
C1140 C1139 1.414 . S
C1140 C1141 1.374 . S
C1141 H1121 0.950 . S
C1141 C1137 1.385 . S
C1141 C1140 1.374 . S
C1142 C1139 1.499 . S
C1142 C1143 1.373 . S
C1142 C1144 1.389 . S
C1143 H1122 0.950 . S
C1143 C1142 1.373 . S
C1143 C1159 1.377 1_545 S
C1144 C1142 1.389 . S
C1144 C1145 1.524 . S
C1144 C1158 1.377 1_545 S
C1145 C1144 1.524 . S
C1145 C1146 1.397 . S
C1145 C1150 1.363 . S
C1146 H1123 0.950 . S
C1146 C1145 1.397 . S
C1146 C1147 1.334 . S
C1147 H1124 0.950 . S
C1147 C1146 1.334 . S
C1147 C1148 1.287 . S
C1148 C1147 1.287 . S
C1148 C1149 1.524 . S
C1148 H1167 0.913 . S
C1149 H1125 0.950 . S
C1149 C1148 1.524 . S
C1149 C1150 1.415 . S
C1150 H1126 0.950 . S
C1150 C1145 1.363 . S
C1150 C1149 1.415 . S
C1151 H1127 0.951 . S
C1151 C1152 1.366 . S
C1151 C1153 1.388 . S
C1152 C1151 1.366 . S
C1152 C1156 1.385 . S
C1153 H1128 0.951 . S
C1153 C1151 1.388 . S
C1153 C1154 1.366 . S
C1154 C1153 1.366 . S
C1154 C1155 1.414 . S
C1154 C1157 1.499 . S
C1155 H1129 0.950 . S
C1155 C1154 1.414 . S
C1155 C1156 1.374 . S
C1156 H1130 0.950 . S
C1156 C1152 1.385 . S
C1156 C1155 1.374 . S
C1157 C1154 1.499 . S
C1157 C1158 1.373 . S
C1157 C1159 1.389 . S
C1158 H1131 0.950 . S
C1158 C1144 1.377 1_565 S
C1158 C1157 1.373 . S
C1159 C1143 1.377 1_565 S
C1159 C1157 1.389 . S
C1159 C1160 1.524 . S
C1160 C1159 1.524 . S
C1160 C1161 1.397 . S
C1160 C1165 1.363 . S
C1161 H1132 0.950 . S
C1161 C1160 1.397 . S
C1161 C1162 1.334 . S
C1162 H1133 0.950 . S
C1162 C1161 1.334 . S
C1162 C1163 1.287 . S
C1163 C1162 1.287 . S
C1163 C1164 1.524 . S
C1163 H1166 0.999 . S
C1164 H1134 0.950 . S
C1164 C1163 1.524 . S
C1164 C1165 1.415 . S
C1165 H1135 0.950 . S
C1165 C1160 1.363 . S
C1165 C1164 1.415 . S
H1166 C1163 0.999 . S
H1167 C1148 0.913 . S
H1168 C1186 0.951 . S
H1169 C1188 0.951 . S
H1170 C1190 0.950 . S
H1171 C1191 0.950 . S
H1172 C1193 0.950 . S
H1173 C1196 0.950 . S
H1174 C1197 0.950 . S
H1175 C1199 0.950 . S
H1176 C1200 0.950 . S
H1177 C1201 0.951 . S
H1178 C1203 0.951 . S
H1179 C1205 0.950 . S
H1180 C1206 0.950 . S
H1181 C1208 0.950 . S
H1182 C1211 0.950 . S
H1183 C1212 0.950 . S
H1184 C1214 0.950 . S
H1185 C1215 0.950 . S
C1186 H1168 0.951 . S
C1186 C1187 1.366 . S
C1186 C1188 1.388 . S
C1187 C1186 1.366 . S
C1187 C1191 1.385 . S
C1188 H1169 0.951 . S
C1188 C1186 1.388 . S
C1188 C1189 1.366 . S
C1189 C1188 1.366 . S
C1189 C1190 1.414 . S
C1189 C1192 1.499 . S
C1190 H1170 0.950 . S
C1190 C1189 1.414 . S
C1190 C1191 1.374 . S
C1191 H1171 0.950 . S
C1191 C1187 1.385 . S
C1191 C1190 1.374 . S
C1192 C1189 1.499 . S
C1192 C1193 1.373 . S
C1192 C1194 1.389 . S
C1193 H1172 0.950 . S
C1193 C1192 1.373 . S
C1193 C1209 1.377 . S
C1194 C1192 1.389 . S
C1194 C1195 1.524 . S
C1194 C1208 1.377 . S
C1195 C1194 1.524 . S
C1195 C1196 1.397 . S
C1195 C1200 1.363 . S
C1196 H1173 0.950 . S
C1196 C1195 1.397 . S
C1196 C1197 1.334 . S
C1197 H1174 0.950 . S
C1197 C1196 1.334 . S
C1197 C1198 1.287 . S
C1198 C1197 1.287 . S
C1198 C1199 1.524 . S
C1198 H1217 0.913 . S
C1199 H1175 0.950 . S
C1199 C1198 1.524 . S
C1199 C1200 1.415 . S
C1200 H1176 0.950 . S
C1200 C1195 1.363 . S
C1200 C1199 1.415 . S
C1201 H1177 0.951 . S
C1201 C1202 1.366 . S
C1201 C1203 1.388 . S
C1202 C1201 1.366 . S
C1202 C1206 1.385 . S
C1203 H1178 0.951 . S
C1203 C1201 1.388 . S
C1203 C1204 1.366 . S
C1204 C1203 1.366 . S
C1204 C1205 1.414 . S
C1204 C1207 1.499 . S
C1205 H1179 0.950 . S
C1205 C1204 1.414 . S
C1205 C1206 1.374 . S
C1206 H1180 0.950 . S
C1206 C1202 1.385 . S
C1206 C1205 1.374 . S
C1207 C1204 1.499 . S
C1207 C1208 1.373 . S
C1207 C1209 1.389 . S
C1208 H1181 0.950 . S
C1208 C1194 1.377 . S
C1208 C1207 1.373 . S
C1209 C1193 1.377 . S
C1209 C1207 1.389 . S
C1209 C1210 1.524 . S
C1210 C1209 1.524 . S
C1210 C1211 1.397 . S
C1210 C1215 1.363 . S
C1211 H1182 0.950 . S
C1211 C1210 1.397 . S
C1211 C1212 1.334 . S
C1212 H1183 0.950 . S
C1212 C1211 1.334 . S
C1212 C1213 1.287 . S
C1213 C1212 1.287 . S
C1213 C1214 1.524 . S
C1213 H1216 0.999 . S
C1214 H1184 0.950 . S
C1214 C1213 1.524 . S
C1214 C1215 1.415 . S
C1215 H1185 0.950 . S
C1215 C1210 1.363 . S
C1215 C1214 1.415 . S
H1216 C1213 0.999 . S
H1217 C1198 0.913 . S
H1218 C1236 0.951 . S
H1219 C1238 0.951 . S
H1220 C1240 0.950 . S
H1221 C1241 0.950 . S
H1222 C1243 0.950 . S
H1223 C1246 0.950 . S
H1224 C1247 0.950 . S
H1225 C1249 0.950 . S
H1226 C1250 0.950 . S
H1227 C1251 0.951 . S
H1228 C1253 0.951 . S
H1229 C1255 0.950 . S
H1230 C1256 0.950 . S
H1231 C1258 0.950 . S
H1232 C1261 0.950 . S
H1233 C1262 0.950 . S
H1234 C1264 0.950 . S
H1235 C1265 0.950 . S
C1236 H1218 0.951 . S
C1236 C1237 1.366 . S
C1236 C1238 1.388 . S
C1237 C1236 1.366 . S
C1237 C1241 1.385 . S
C1238 H1219 0.951 . S
C1238 C1236 1.388 . S
C1238 C1239 1.366 . S
C1239 C1238 1.366 . S
C1239 C1240 1.414 . S
C1239 C1242 1.499 . S
C1240 H1220 0.950 . S
C1240 C1239 1.414 . S
C1240 C1241 1.374 . S
C1241 H1221 0.950 . S
C1241 C1237 1.385 . S
C1241 C1240 1.374 . S
C1242 C1239 1.499 . S
C1242 C1243 1.373 . S
C1242 C1244 1.389 . S
C1243 H1222 0.950 . S
C1243 C1242 1.373 . S
C1243 C1259 1.377 1_655 S
C1244 C1242 1.389 . S
C1244 C1245 1.524 . S
C1244 C1258 1.377 1_655 S
C1245 C1244 1.524 . S
C1245 C1246 1.397 . S
C1245 C1250 1.363 . S
C1246 H1223 0.950 . S
C1246 C1245 1.397 . S
C1246 C1247 1.334 . S
C1247 H1224 0.950 . S
C1247 C1246 1.334 . S
C1247 C1248 1.287 . S
C1248 C1247 1.287 . S
C1248 C1249 1.524 . S
C1248 H1267 0.913 . S
C1249 H1225 0.950 . S
C1249 C1248 1.524 . S
C1249 C1250 1.415 . S
C1250 H1226 0.950 . S
C1250 C1245 1.363 . S
C1250 C1249 1.415 . S
C1251 H1227 0.951 . S
C1251 C1252 1.366 . S
C1251 C1253 1.388 . S
C1252 C1251 1.366 . S
C1252 C1256 1.385 . S
C1253 H1228 0.951 . S
C1253 C1251 1.388 . S
C1253 C1254 1.366 . S
C1254 C1253 1.366 . S
C1254 C1255 1.414 . S
C1254 C1257 1.499 . S
C1255 H1229 0.950 . S
C1255 C1254 1.414 . S
C1255 C1256 1.374 . S
C1256 H1230 0.950 . S
C1256 C1252 1.385 . S
C1256 C1255 1.374 . S
C1257 C1254 1.499 . S
C1257 C1258 1.373 . S
C1257 C1259 1.389 . S
C1258 H1231 0.950 . S
C1258 C1244 1.377 1_455 S
C1258 C1257 1.373 . S
C1259 C1243 1.377 1_455 S
C1259 C1257 1.389 . S
C1259 C1260 1.524 . S
C1260 C1259 1.524 . S
C1260 C1261 1.397 . S
C1260 C1265 1.363 . S
C1261 H1232 0.950 . S
C1261 C1260 1.397 . S
C1261 C1262 1.334 . S
C1262 H1233 0.950 . S
C1262 C1261 1.334 . S
C1262 C1263 1.287 . S
C1263 C1262 1.287 . S
C1263 C1264 1.524 . S
C1263 H1266 0.999 . S
C1264 H1234 0.950 . S
C1264 C1263 1.524 . S
C1264 C1265 1.415 . S
C1265 H1235 0.950 . S
C1265 C1260 1.363 . S
C1265 C1264 1.415 . S
H1266 C1263 0.999 . S
H1267 C1248 0.913 . S
H1268 C1286 0.951 . S
H1269 C1288 0.951 . S
H1270 C1290 0.950 . S
H1271 C1291 0.950 . S
H1272 C1293 0.950 . S
H1273 C1296 0.950 . S
H1274 C1297 0.950 . S
H1275 C1299 0.950 . S
H1276 C1300 0.950 . S
H1277 C1301 0.951 . S
H1278 C1303 0.951 . S
H1279 C1305 0.950 . S
H1280 C1306 0.950 . S
H1281 C1308 0.950 . S
H1282 C1311 0.950 . S
H1283 C1312 0.950 . S
H1284 C1314 0.950 . S
H1285 C1315 0.950 . S
C1286 H1268 0.951 . S
C1286 C1287 1.366 . S
C1286 C1288 1.388 . S
C1287 C1286 1.366 . S
C1287 C1291 1.385 . S
C1288 H1269 0.951 . S
C1288 C1286 1.388 . S
C1288 C1289 1.366 . S
C1289 C1288 1.366 . S
C1289 C1290 1.414 . S
C1289 C1292 1.499 . S
C1290 H1270 0.950 . S
C1290 C1289 1.414 . S
C1290 C1291 1.374 . S
C1291 H1271 0.950 . S
C1291 C1287 1.385 . S
C1291 C1290 1.374 . S
C1292 C1289 1.499 . S
C1292 C1293 1.373 . S
C1292 C1294 1.389 . S
C1293 H1272 0.950 . S
C1293 C1292 1.373 . S
C1293 C1309 1.377 1_565 S
C1294 C1292 1.389 . S
C1294 C1295 1.524 . S
C1294 C1308 1.377 1_565 S
C1295 C1294 1.524 . S
C1295 C1296 1.397 . S
C1295 C1300 1.363 . S
C1296 H1273 0.950 . S
C1296 C1295 1.397 . S
C1296 C1297 1.334 . S
C1297 H1274 0.950 . S
C1297 C1296 1.334 . S
C1297 C1298 1.287 . S
C1298 C1297 1.287 . S
C1298 C1299 1.524 . S
C1298 H1317 0.913 . S
C1299 H1275 0.950 . S
C1299 C1298 1.524 . S
C1299 C1300 1.415 . S
C1300 H1276 0.950 . S
C1300 C1295 1.363 . S
C1300 C1299 1.415 . S
C1301 H1277 0.951 . S
C1301 C1302 1.366 . S
C1301 C1303 1.388 . S
C1302 C1301 1.366 . S
C1302 C1306 1.385 . S
C1303 H1278 0.951 . S
C1303 C1301 1.388 . S
C1303 C1304 1.366 . S
C1304 C1303 1.366 . S
C1304 C1305 1.414 . S
C1304 C1307 1.499 . S
C1305 H1279 0.950 . S
C1305 C1304 1.414 . S
C1305 C1306 1.374 . S
C1306 H1280 0.950 . S
C1306 C1302 1.385 . S
C1306 C1305 1.374 . S
C1307 C1304 1.499 . S
C1307 C1308 1.373 . S
C1307 C1309 1.389 . S
C1308 H1281 0.950 . S
C1308 C1294 1.377 1_545 S
C1308 C1307 1.373 . S
C1309 C1293 1.377 1_545 S
C1309 C1307 1.389 . S
C1309 C1310 1.524 . S
C1310 C1309 1.524 . S
C1310 C1311 1.397 . S
C1310 C1315 1.363 . S
C1311 H1282 0.950 . S
C1311 C1310 1.397 . S
C1311 C1312 1.334 . S
C1312 H1283 0.950 . S
C1312 C1311 1.334 . S
C1312 C1313 1.287 . S
C1313 C1312 1.287 . S
C1313 C1314 1.524 . S
C1313 H1316 0.999 . S
C1314 H1284 0.950 . S
C1314 C1313 1.524 . S
C1314 C1315 1.415 . S
C1315 H1285 0.950 . S
C1315 C1310 1.363 . S
C1315 C1314 1.415 . S
H1316 C1313 0.999 . S
H1317 C1298 0.913 . S
H1318 C1336 0.951 . S
H1319 C1338 0.951 . S
H1320 C1340 0.950 . S
H1321 C1341 0.950 . S
H1322 C1343 0.950 . S
H1323 C1346 0.950 . S
H1324 C1347 0.950 . S
H1325 C1349 0.950 . S
H1326 C1350 0.950 . S
H1327 C1351 0.951 . S
H1328 C1353 0.951 . S
H1329 C1355 0.950 . S
H1330 C1356 0.950 . S
H1331 C1358 0.950 . S
H1332 C1361 0.950 . S
H1333 C1362 0.950 . S
H1334 C1364 0.950 . S
H1335 C1365 0.950 . S
C1336 H1318 0.951 . S
C1336 C1337 1.366 . S
C1336 C1338 1.388 . S
C1337 C1336 1.366 . S
C1337 C1341 1.385 . S
C1338 H1319 0.951 . S
C1338 C1336 1.388 . S
C1338 C1339 1.366 . S
C1339 C1338 1.366 . S
C1339 C1340 1.414 . S
C1339 C1342 1.499 . S
C1340 H1320 0.950 . S
C1340 C1339 1.414 . S
C1340 C1341 1.374 . S
C1341 H1321 0.950 . S
C1341 C1337 1.385 . S
C1341 C1340 1.374 . S
C1342 C1339 1.499 . S
C1342 C1343 1.373 . S
C1342 C1344 1.389 . S
C1343 H1322 0.950 . S
C1343 C1342 1.373 . S
C1343 C1359 1.377 . S
C1344 C1342 1.389 . S
C1344 C1345 1.524 . S
C1344 C1358 1.377 . S
C1345 C1344 1.524 . S
C1345 C1346 1.397 . S
C1345 C1350 1.363 . S
C1346 H1323 0.950 . S
C1346 C1345 1.397 . S
C1346 C1347 1.334 . S
C1347 H1324 0.950 . S
C1347 C1346 1.334 . S
C1347 C1348 1.287 . S
C1348 C1347 1.287 . S
C1348 C1349 1.524 . S
C1348 H1367 0.913 . S
C1349 H1325 0.950 . S
C1349 C1348 1.524 . S
C1349 C1350 1.415 . S
C1350 H1326 0.950 . S
C1350 C1345 1.363 . S
C1350 C1349 1.415 . S
C1351 H1327 0.951 . S
C1351 C1352 1.366 . S
C1351 C1353 1.388 . S
C1352 C1351 1.366 . S
C1352 C1356 1.385 . S
C1353 H1328 0.951 . S
C1353 C1351 1.388 . S
C1353 C1354 1.366 . S
C1354 C1353 1.366 . S
C1354 C1355 1.414 . S
C1354 C1357 1.499 . S
C1355 H1329 0.950 . S
C1355 C1354 1.414 . S
C1355 C1356 1.374 . S
C1356 H1330 0.950 . S
C1356 C1352 1.385 . S
C1356 C1355 1.374 . S
C1357 C1354 1.499 . S
C1357 C1358 1.373 . S
C1357 C1359 1.389 . S
C1358 H1331 0.950 . S
C1358 C1344 1.377 . S
C1358 C1357 1.373 . S
C1359 C1343 1.377 . S
C1359 C1357 1.389 . S
C1359 C1360 1.524 . S
C1360 C1359 1.524 . S
C1360 C1361 1.397 . S
C1360 C1365 1.363 . S
C1361 H1332 0.950 . S
C1361 C1360 1.397 . S
C1361 C1362 1.334 . S
C1362 H1333 0.950 . S
C1362 C1361 1.334 . S
C1362 C1363 1.287 . S
C1363 C1362 1.287 . S
C1363 C1364 1.524 . S
C1363 H1366 0.999 . S
C1364 H1334 0.950 . S
C1364 C1363 1.524 . S
C1364 C1365 1.415 . S
C1365 H1335 0.950 . S
C1365 C1360 1.363 . S
C1365 C1364 1.415 . S
H1366 C1363 0.999 . S
H1367 C1348 0.913 . S
C187 C119 1.809 . S
C202 C7 1.814 . S
C237 C23 1.905 . S
C252 C135 1.905 . S
C287 C35 1.808 . S
C302 C147 1.813 . S
C337 C49 1.814 . S
C352 C161 1.809 . S
C387 C93 1.905 . S
C402 C65 1.905 . S
C437 C77 1.808 . S
C452 C105 1.813 . S
C487 C51 0.820 . S
C502 C9 0.822 . S
C537 C63 0.838 . S
C552 C21 0.838 . S
C587 C79 0.705 . S
C602 C37 0.702 . S
C637 C91 0.839 . S
C652 C133 0.839 . S
C687 C107 0.821 . S
C702 C149 0.820 . S
C737 C121 0.703 . S
C752 C163 0.705 . S
C787 C3 1.570 . S
C802 C134 1.566 . S
C837 C22 1.566 . S
C852 C143 1.570 . S
C887 C31 1.558 . S
C902 C157 1.558 . S
C937 C92 1.566 . S
C952 C45 1.571 . S
C987 C64 1.566 . S
C1002 C101 1.570 . S
C1037 C115 1.558 . S
C1052 C73 1.558 . S
C1087 C162 1.072 . S
C1102 C8 1.071 . S
C1137 C17 1.135 . S
C1152 C87 1.134 . S
C1187 C106 1.071 . S
C1202 C36 1.072 . S
C1237 C50 1.071 . S
C1252 C120 1.072 . S
C1287 C59 1.134 . S
C1302 C129 1.135 . S
C1337 C148 1.071 . S
C1352 C78 1.072 . S
