# Generated by pormake.
# Topology fst, (5)-cn, num edge types: 1
# Building blocks:
#     Node 0, Type 0, BuildingBlock: BEQFEK_clean_sbu_0, # of connection points: 5
#     Node 1, Type 0, BuildingBlock: BEQFEK_clean_sbu_0, # of connection points: 5
#     Node 2, Type 0, BuildingBlock: BEQFEK_clean_sbu_0, # of connection points: 5
#     Node 3, Type 0, BuildingBlock: BEQFEK_clean_sbu_0, # of connection points: 5
#     Node 4, Type 0, BuildingBlock: BEQFEK_clean_sbu_0, # of connection points: 5
#     Node 5, Type 0, BuildingBlock: BEQFEK_clean_sbu_0, # of connection points: 5
#     Node 6, Type 0, BuildingBlock: BEQFEK_clean_sbu_0, # of connection points: 5
#     Node 7, Type 0, BuildingBlock: BEQFEK_clean_sbu_0, # of connection points: 5
#     Node 8, Type 0, BuildingBlock: BEQFEK_clean_sbu_0, # of connection points: 5
#     Node 9, Type 0, BuildingBlock: BEQFEK_clean_sbu_0, # of connection points: 5
#     Node 10, Type 0, BuildingBlock: BEQFEK_clean_sbu_0, # of connection points: 5
#     Node 11, Type 0, BuildingBlock: BEQFEK_clean_sbu_0, # of connection points: 5
#     Edge 12, Type (0, 0), BuildingBlock: ZUJKAS_clean_linker_0, # of connection points: 2
#     Edge 13, Type (0, 0), BuildingBlock: ZUJKAS_clean_linker_0, # of connection points: 2
#     Edge 14, Type (0, 0), BuildingBlock: ZUJKAS_clean_linker_0, # of connection points: 2
#     Edge 15, Type (0, 0), BuildingBlock: ZUJKAS_clean_linker_0, # of connection points: 2
#     Edge 16, Type (0, 0), BuildingBlock: ZUJKAS_clean_linker_0, # of connection points: 2
#     Edge 17, Type (0, 0), BuildingBlock: ZUJKAS_clean_linker_0, # of connection points: 2
#     Edge 18, Type (0, 0), BuildingBlock: ZUJKAS_clean_linker_0, # of connection points: 2
#     Edge 19, Type (0, 0), BuildingBlock: ZUJKAS_clean_linker_0, # of connection points: 2
#     Edge 20, Type (0, 0), BuildingBlock: ZUJKAS_clean_linker_0, # of connection points: 2
#     Edge 21, Type (0, 0), BuildingBlock: ZUJKAS_clean_linker_0, # of connection points: 2
#     Edge 22, Type (0, 0), BuildingBlock: ZUJKAS_clean_linker_0, # of connection points: 2
#     Edge 23, Type (0, 0), BuildingBlock: ZUJKAS_clean_linker_0, # of connection points: 2
#     Edge 24, Type (0, 0), BuildingBlock: ZUJKAS_clean_linker_0, # of connection points: 2
#     Edge 25, Type (0, 0), BuildingBlock: ZUJKAS_clean_linker_0, # of connection points: 2
#     Edge 26, Type (0, 0), BuildingBlock: ZUJKAS_clean_linker_0, # of connection points: 2
#     Edge 27, Type (0, 0), BuildingBlock: ZUJKAS_clean_linker_0, # of connection points: 2
#     Edge 28, Type (0, 0), BuildingBlock: ZUJKAS_clean_linker_0, # of connection points: 2
#     Edge 29, Type (0, 0), BuildingBlock: ZUJKAS_clean_linker_0, # of connection points: 2
#     Edge 30, Type (0, 0), BuildingBlock: ZUJKAS_clean_linker_0, # of connection points: 2
#     Edge 31, Type (0, 0), BuildingBlock: ZUJKAS_clean_linker_0, # of connection points: 2
#     Edge 32, Type (0, 0), BuildingBlock: ZUJKAS_clean_linker_0, # of connection points: 2
#     Edge 33, Type (0, 0), BuildingBlock: ZUJKAS_clean_linker_0, # of connection points: 2
#     Edge 34, Type (0, 0), BuildingBlock: ZUJKAS_clean_linker_0, # of connection points: 2
#     Edge 35, Type (0, 0), BuildingBlock: ZUJKAS_clean_linker_0, # of connection points: 2
#     Edge 36, Type (0, 0), BuildingBlock: ZUJKAS_clean_linker_0, # of connection points: 2
#     Edge 37, Type (0, 0), BuildingBlock: ZUJKAS_clean_linker_0, # of connection points: 2
#     Edge 38, Type (0, 0), BuildingBlock: ZUJKAS_clean_linker_0, # of connection points: 2
#     Edge 39, Type (0, 0), BuildingBlock: ZUJKAS_clean_linker_0, # of connection points: 2
#     Edge 40, Type (0, 0), BuildingBlock: ZUJKAS_clean_linker_0, # of connection points: 2
#     Edge 41, Type (0, 0), BuildingBlock: ZUJKAS_clean_linker_0, # of connection points: 2
# Relax obj value: 0.025
# Max RMSD: 0.072
# Mean RMSD: 0.072
data_MOF--net-fst--node1-BEQFEK_clean_sbu_0--edge1-ZUJKAS_clean_linker_0
_symmetry_space_group_name_H-M    P1
_symmetry_Int_Tables_number       1
_symmetry_cell_setting            triclinic
loop_
_symmetry_equiv_pos_as_xyz
'x, y, z'
_cell_length_a     96.256328
_cell_length_b     96.248191
_cell_length_c     23.994924
_cell_angle_alpha  89.968504
_cell_angle_beta   90.016659
_cell_angle_gamma 119.99078
loop_
_atom_site_label
_atom_site_type_symbol
_atom_site_fract_x
_atom_site_fract_y
_atom_site_fract_z
_atom_type_partial_charge
Co0 Co 0.11502 0.45575 0.24353 0.0
Co1 Co 0.11466 0.45723 0.11208 0.0
C2 C 0.08533 0.43467 0.17542 0.0
O3 O 0.09281 0.43984 0.22134 0.0
O4 O 0.0923 0.44013 0.12878 0.0
C5 C 0.10852 0.44025 0.35075 0.0
O6 O 0.09809 0.42764 0.32243 0.0
C7 C 0.11307 0.44982 0.99025 0.0
C8 C 0.12704 0.47448 0.95703 0.0
C9 C 0.11841 0.45856 0.94092 0.0
N10 N 0.11834 0.46019 0.03333 0.0
N11 N 0.12676 0.47487 0.01294 0.0
C12 C 0.10242 0.43208 0.99622 0.0
H13 H 0.09681 0.42898 0.03803 0.0
H14 H 0.1097 0.42616 0.99106 0.0
H15 H 0.09302 0.42743 0.96346 0.0
C16 C 0.14212 0.45033 0.21902 0.0
N17 N 0.13002 0.45256 0.20233 0.0
N18 N 0.12991 0.45311 0.14749 0.0
C19 C 0.14202 0.45133 0.12754 0.0
C20 C 0.15016 0.44948 0.17223 0.0
C21 C 0.14561 0.44877 0.27875 0.0
H22 H 0.14881 0.46007 0.30111 0.0
H23 H 0.13467 0.439 0.29851 0.0
H24 H 0.15545 0.44601 0.28314 0.0
O25 O 0.11854 0.4777 0.23088 0.0
O26 O 0.11747 0.4779 0.13864 0.0
H27 H 0.1478 0.46413 0.05033 0.0
H28 H 0.15794 0.45289 0.06061 0.0
C29 C 0.14652 0.45283 0.06722 0.0
H30 H 0.1368 0.4427 0.04383 0.0
H31 H 0.13213 0.48524 0.03728 0.0
O32 O 0.11723 0.45339 0.3251 0.0
C33 C 0.11899 0.48474 0.18539 0.0
Co34 Co 0.65879 0.11427 0.23349 0.0
Co35 Co 0.65844 0.11555 0.10341 0.0
C36 C 0.65156 0.0856 0.1609 0.0
O37 O 0.65343 0.09259 0.20765 0.0
O38 O 0.65321 0.093 0.11513 0.0
C39 C 0.65541 0.10296 0.34497 0.0
O40 O 0.64479 0.08931 0.32225 0.0
C41 C 0.66294 0.1139 0.98219 0.0
C42 C 0.66188 0.13521 0.95369 0.0
C43 C 0.6638 0.12266 0.93501 0.0
N44 N 0.66062 0.121 0.02661 0.0
N45 N 0.65994 0.13367 0.00922 0.0
C46 C 0.66535 0.09973 0.98591 0.0
H47 H 0.6716 0.10019 0.02531 0.0
H48 H 0.67242 0.09936 0.95 0.0
H49 H 0.65346 0.08859 0.98612 0.0
C50 C 0.69137 0.14203 0.21572 0.0
N51 N 0.67728 0.13007 0.19656 0.0
N52 N 0.67745 0.13023 0.14177 0.0
C53 C 0.69178 0.14217 0.12421 0.0
C54 C 0.70105 0.15012 0.17044 0.0
C55 C 0.69492 0.14615 0.27613 0.0
H56 H 0.68431 0.14551 0.29681 0.0
H57 H 0.69737 0.13722 0.29635 0.0
H58 H 0.70541 0.15833 0.28203 0.0
O59 O 0.6403 0.11756 0.22091 0.0
O60 O 0.64009 0.11785 0.12858 0.0
H61 H 0.69149 0.15235 0.0454 0.0
H62 H 0.71001 0.15265 0.06025 0.0
C63 C 0.69676 0.14552 0.06438 0.0
H64 H 0.69231 0.13409 0.04139 0.0
H65 H 0.65824 0.14134 0.03546 0.0
O66 O 0.66285 0.11532 0.3144 0.0
C67 C 0.63417 0.11859 0.17515 0.0
Co68 Co 0.54321 0.65817 0.2444 0.0
Co69 Co 0.5432 0.65823 0.11331 0.0
C70 C 0.56503 0.65051 0.1754 0.0
O71 O 0.55944 0.65227 0.22134 0.0
O72 O 0.56001 0.6526 0.12872 0.0
C73 C 0.55847 0.6678 0.35149 0.0
O74 O 0.57168 0.67292 0.32224 0.0
C75 C 0.55086 0.66324 0.99214 0.0
C76 C 0.52881 0.66224 0.96047 0.0
C77 C 0.54348 0.66428 0.94367 0.0
N78 N 0.54094 0.66069 0.03534 0.0
N79 N 0.52778 0.66004 0.01595 0.0
C80 C 0.56741 0.66572 0.99823 0.0
H81 H 0.57248 0.67114 0.03939 0.0
H82 H 0.5754 0.67356 0.9646 0.0
H83 H 0.56682 0.65392 0.99589 0.0
C84 C 0.54802 0.69079 0.22484 0.0
N85 N 0.54651 0.67687 0.20661 0.0
N86 N 0.54749 0.67722 0.15189 0.0
C87 C 0.55023 0.69161 0.13363 0.0
C88 C 0.55045 0.70067 0.17913 0.0
C89 C 0.54571 0.69387 0.28434 0.0
H90 H 0.53677 0.68253 0.30465 0.0
H91 H 0.55728 0.69855 0.30682 0.0
H92 H 0.5416 0.70274 0.28757 0.0
O93 O 0.52155 0.64008 0.22854 0.0
O94 O 0.52203 0.64 0.13616 0.0
H95 H 0.54176 0.692 0.05162 0.0
H96 H 0.55997 0.7101 0.07038 0.0
C97 C 0.55335 0.69683 0.07396 0.0
H98 H 0.56051 0.69211 0.05387 0.0
H99 H 0.51812 0.65822 0.04082 0.0
O100 O 0.54505 0.66143 0.32638 0.0
C101 C 0.51484 0.63411 0.18208 0.0
Co102 Co 0.88503 0.54357 0.24117 0.0
Co103 Co 0.88386 0.54237 0.11025 0.0
C104 C 0.91398 0.56469 0.16963 0.0
O105 O 0.90703 0.55954 0.21649 0.0
O106 O 0.90643 0.55928 0.12386 0.0
C107 C 0.89147 0.55895 0.34866 0.0
O108 O 0.90034 0.57213 0.32005 0.0
C109 C 0.88601 0.54981 0.98928 0.0
C110 C 0.86545 0.52734 0.95779 0.0
C111 C 0.87773 0.54221 0.94087 0.0
N112 N 0.8789 0.53982 0.03255 0.0
N113 N 0.86667 0.52642 0.0133 0.0
C114 C 0.89968 0.56659 0.99528 0.0
H115 H 0.89914 0.57154 0.03647 0.0
H116 H 0.89947 0.57441 0.96168 0.0
H117 H 0.91113 0.56647 0.99278 0.0
C118 C 0.85768 0.54915 0.22325 0.0
N119 N 0.86956 0.54689 0.2041 0.0
N120 N 0.86936 0.54686 0.14925 0.0
C121 C 0.85747 0.54934 0.13174 0.0
C122 C 0.8496 0.55077 0.17799 0.0
C123 C 0.85349 0.54854 0.2836 0.0
H124 H 0.8544 0.53876 0.30463 0.0
H125 H 0.86218 0.56005 0.30361 0.0
H126 H 0.84119 0.54656 0.28927 0.0
O127 O 0.88122 0.52171 0.22646 0.0
O128 O 0.88107 0.52138 0.13409 0.0
H129 H 0.84761 0.53871 0.05284 0.0
H130 H 0.84652 0.55653 0.06755 0.0
C131 C 0.85403 0.55082 0.07188 0.0
H132 H 0.86543 0.55813 0.04906 0.0
H133 H 0.85909 0.51664 0.03824 0.0
O134 O 0.88383 0.54565 0.32304 0.0
C135 C 0.88011 0.51459 0.1806 0.0
Co136 Co 0.34047 0.88501 0.24572 0.0
Co137 Co 0.34109 0.88513 0.11452 0.0
C138 C 0.34772 0.91439 0.17744 0.0
O139 O 0.34591 0.90701 0.22335 0.0
O140 O 0.34604 0.90741 0.1307 0.0
C141 C 0.32955 0.88927 0.35268 0.0
O142 O 0.32394 0.89704 0.324 0.0
C143 C 0.3368 0.88722 0.99138 0.0
C144 C 0.33937 0.86673 0.96364 0.0
C145 C 0.33673 0.87875 0.9442 0.0
N146 N 0.33921 0.88032 0.03646 0.0
N147 N 0.34076 0.86812 0.01931 0.0
C148 C 0.33549 0.90206 0.99348 0.0
H149 H 0.34261 0.9098 0.02855 0.0
H150 H 0.32275 0.8986 7e-05 0.0
H151 H 0.33976 0.90896 0.95406 0.0
C152 C 0.30798 0.85728 0.22467 0.0
N153 N 0.32208 0.86954 0.20689 0.0
N154 N 0.3221 0.86995 0.15206 0.0
C155 C 0.30788 0.85811 0.13323 0.0
C156 C 0.29849 0.84962 0.17857 0.0
C157 C 0.3042 0.85236 0.28443 0.0
H158 H 0.31504 0.85379 0.30591 0.0
H159 H 0.30044 0.86024 0.30526 0.0
H160 H 0.29441 0.83972 0.28834 0.0
O161 O 0.35902 0.88201 0.23104 0.0
O162 O 0.35952 0.88279 0.13874 0.0
H163 H 0.30875 0.84898 0.05298 0.0
H164 H 0.28994 0.84802 0.06821 0.0
C165 C 0.30315 0.85535 0.07309 0.0
H166 H 0.30746 0.86701 0.05171 0.0
H167 H 0.34281 0.86074 0.04583 0.0
O168 O 0.33673 0.88309 0.32728 0.0
C169 C 0.36532 0.88157 0.18495 0.0
Co170 Co 0.45579 0.34122 0.24224 0.0
Co171 Co 0.45701 0.34154 0.11108 0.0
C172 C 0.4344 0.34882 0.1719 0.0
O173 O 0.43956 0.34698 0.21864 0.0
O174 O 0.43996 0.34695 0.12606 0.0
C175 C 0.44043 0.33162 0.34938 0.0
O176 O 0.42719 0.32674 0.32048 0.0
C177 C 0.44993 0.3357 0.98884 0.0
C178 C 0.47422 0.34259 0.95853 0.0
C179 C 0.45871 0.33739 0.9406 0.0
N180 N 0.45989 0.3397 0.03296 0.0
N181 N 0.47434 0.34372 0.0143 0.0
C182 C 0.43267 0.33119 0.99275 0.0
H183 H 0.43013 0.33517 0.03274 0.0
H184 H 0.4251 0.31794 0.99048 0.0
H185 H 0.42937 0.3365 0.95765 0.0
C186 C 0.45072 0.30853 0.22308 0.0
N187 N 0.45273 0.32261 0.20431 0.0
N188 N 0.45293 0.32259 0.14945 0.0
C189 C 0.45091 0.30843 0.13153 0.0
C190 C 0.44947 0.29905 0.17762 0.0
C191 C 0.44976 0.30426 0.28349 0.0
H192 H 0.43912 0.30403 0.30213 0.0
H193 H 0.44868 0.29234 0.28983 0.0
H194 H 0.46056 0.31359 0.30546 0.0
O195 O 0.47756 0.35959 0.22776 0.0
O196 O 0.47778 0.35982 0.13543 0.0
H197 H 0.46364 0.31323 0.05457 0.0
H198 H 0.44972 0.29228 0.06598 0.0
C199 C 0.45168 0.30456 0.07159 0.0
H200 H 0.44252 0.30582 0.04756 0.0
H201 H 0.48438 0.34747 0.03976 0.0
O202 O 0.45381 0.33778 0.32401 0.0
C203 C 0.48458 0.3657 0.18181 0.0
Co204 Co 0.54279 0.88535 0.11127 0.0
Co205 Co 0.54299 0.88551 0.2422 0.0
C206 C 0.56549 0.91466 0.17959 0.0
O207 O 0.55956 0.90732 0.13386 0.0
O208 O 0.56046 0.90766 0.22648 0.0
C209 C 0.55786 0.88975 0.00428 0.0
O210 O 0.57122 0.89736 0.0331 0.0
C211 C 0.54886 0.88813 0.36527 0.0
C212 C 0.52736 0.86573 0.39223 0.0
C213 C 0.54105 0.87902 0.41216 0.0
N214 N 0.5402 0.88038 0.31989 0.0
N215 N 0.52737 0.86706 0.33653 0.0
C216 C 0.56352 0.90441 0.36356 0.0
H217 H 0.56201 0.91191 0.33181 0.0
H218 H 0.57399 0.90319 0.35153 0.0
H219 H 0.56587 0.91052 0.40452 0.0
C220 C 0.54684 0.85711 0.13098 0.0
N221 N 0.54553 0.86964 0.14918 0.0
N222 N 0.54669 0.87038 0.20383 0.0
C223 C 0.5494 0.8587 0.22207 0.0
C224 C 0.54939 0.84973 0.17662 0.0
C225 C 0.54437 0.85164 0.07157 0.0
H226 H 0.53548 0.85412 0.05139 0.0
H227 H 0.55591 0.85835 0.04882 0.0
H228 H 0.5401 0.83861 0.06857 0.0
O229 O 0.52143 0.88254 0.1269 0.0
O230 O 0.52216 0.88341 0.21919 0.0
H231 H 0.54153 0.84948 0.30417 0.0
H232 H 0.56019 0.85078 0.28416 0.0
C233 C 0.55296 0.85683 0.28146 0.0
H234 H 0.55964 0.86874 0.30178 0.0
H235 H 0.51856 0.85887 0.30963 0.0
O236 O 0.54448 0.88359 0.02961 0.0
C237 C 0.51495 0.88222 0.17343 0.0
Co238 Co 0.65823 0.54393 0.11395 0.0
Co239 Co 0.65818 0.54202 0.24408 0.0
C240 C 0.65065 0.56487 0.18734 0.0
O241 O 0.65252 0.55993 0.14021 0.0
O242 O 0.65255 0.55911 0.23273 0.0
C243 C 0.65519 0.55231 0.00219 0.0
O244 O 0.6452 0.5562 0.02492 0.0
C245 C 0.66362 0.54874 0.36475 0.0
C246 C 0.66063 0.52567 0.39481 0.0
C247 C 0.66386 0.54068 0.41248 0.0
N248 N 0.66042 0.53888 0.32098 0.0
N249 N 0.65858 0.52511 0.33931 0.0
C250 C 0.66718 0.5657 0.35995 0.0
H251 H 0.67313 0.57088 0.31952 0.0
H252 H 0.67496 0.57312 0.39472 0.0
H253 H 0.65575 0.56586 0.36128 0.0
C254 C 0.69126 0.54989 0.13054 0.0
N255 N 0.67701 0.54711 0.15037 0.0
N256 N 0.67722 0.54669 0.20513 0.0
C257 C 0.69168 0.54924 0.22202 0.0
C258 C 0.70105 0.55133 0.17524 0.0
C259 C 0.69543 0.55155 0.06989 0.0
H260 H 0.69309 0.56072 0.05102 0.0
H261 H 0.70819 0.55515 0.06302 0.0
H262 H 0.6876 0.53998 0.04859 0.0
O263 O 0.64001 0.52194 0.12691 0.0
O264 O 0.64003 0.52129 0.21917 0.0
H265 H 0.68812 0.53612 0.29743 0.0
H266 H 0.70855 0.55152 0.28662 0.0
C267 C 0.6959 0.54846 0.28155 0.0
H268 H 0.69366 0.55676 0.30698 0.0
H269 H 0.65597 0.51533 0.31377 0.0
O270 O 0.66205 0.54673 0.03275 0.0
C271 C 0.63407 0.51466 0.17264 0.0
Co272 Co 0.11454 0.6582 0.11214 0.0
Co273 Co 0.11478 0.65778 0.24353 0.0
C274 C 0.08521 0.65054 0.18119 0.0
O275 O 0.09249 0.65233 0.1351 0.0
O276 O 0.09237 0.65249 0.22771 0.0
C277 C 0.10827 0.66728 0.00491 0.0
O278 O 0.09876 0.67072 0.03364 0.0
C279 C 0.1137 0.66403 0.36539 0.0
C280 C 0.12912 0.65483 0.39731 0.0
C281 C 0.11985 0.66135 0.41417 0.0
N282 N 0.11914 0.65926 0.32185 0.0
N283 N 0.12843 0.6539 0.34146 0.0
C284 C 0.1022 0.67014 0.36048 0.0
H285 H 0.09609 0.66698 0.31953 0.0
H286 H 0.10891 0.68341 0.36423 0.0
H287 H 0.0932 0.66523 0.39454 0.0
C288 C 0.14188 0.69092 0.13256 0.0
N289 N 0.12986 0.67677 0.15093 0.0
N290 N 0.12988 0.67673 0.2058 0.0
C291 C 0.14194 0.69089 0.22413 0.0
C292 C 0.14996 0.70036 0.1783 0.0
C293 C 0.14517 0.69535 0.07225 0.0
H294 H 0.14743 0.6865 0.05045 0.0
H295 H 0.13443 0.69482 0.05316 0.0
H296 H 0.15551 0.70759 0.06621 0.0
O297 O 0.11796 0.6398 0.12679 0.0
O298 O 0.11727 0.63955 0.21908 0.0
H299 H 0.1486 0.68537 0.30249 0.0
H300 H 0.15732 0.70655 0.28991 0.0
C301 C 0.1464 0.69468 0.28424 0.0
H302 H 0.13626 0.69442 0.30709 0.0
H303 H 0.13412 0.64933 0.31664 0.0
O304 O 0.11633 0.66204 0.03032 0.0
C305 C 0.11853 0.63368 0.17318 0.0
Co306 Co 0.45566 0.11391 0.11463 0.0
Co307 Co 0.45763 0.1154 0.24561 0.0
C308 C 0.4345 0.08533 0.18793 0.0
O309 O 0.43959 0.09209 0.14077 0.0
O310 O 0.44018 0.09298 0.23332 0.0
C311 C 0.44058 0.10513 0.00622 0.0
O312 O 0.42878 0.0932 0.03323 0.0
C313 C 0.45048 0.11418 0.36633 0.0
C314 C 0.47423 0.13241 0.3983 0.0
C315 C 0.45872 0.1216 0.41512 0.0
N316 N 0.46074 0.12035 0.32321 0.0
N317 N 0.4749 0.13121 0.34271 0.0
C318 C 0.43302 0.1023 0.35962 0.0
H319 H 0.42891 0.10325 0.3173 0.0
H320 H 0.42582 0.1043 0.39137 0.0
H321 H 0.4311 0.09001 0.36475 0.0
C322 C 0.45112 0.14181 0.13303 0.0
N323 N 0.45303 0.12973 0.15226 0.0
N324 N 0.45353 0.13021 0.20707 0.0
C325 C 0.45181 0.14257 0.22452 0.0
C326 C 0.45028 0.15038 0.17821 0.0
C327 C 0.45144 0.14573 0.0725 0.0
H328 H 0.46151 0.14531 0.05172 0.0
H329 H 0.44012 0.13656 0.05268 0.0
H330 H 0.45282 0.15777 0.06612 0.0
O331 O 0.47747 0.11727 0.12755 0.0
O332 O 0.47815 0.11748 0.21993 0.0
H333 H 0.4636 0.15188 0.30237 0.0
H334 H 0.44704 0.1553 0.28938 0.0
C335 C 0.45137 0.14664 0.28445 0.0
H336 H 0.44332 0.13558 0.30794 0.0
H337 H 0.48503 0.13781 0.31794 0.0
O338 O 0.45296 0.11525 0.03291 0.0
C339 C 0.48469 0.11823 0.17309 0.0
Co340 Co 0.34194 0.45643 0.10675 0.0
Co341 Co 0.34118 0.45679 0.23787 0.0
C342 C 0.34899 0.43461 0.1778 0.0
O343 O 0.34749 0.44012 0.13126 0.0
O344 O 0.34677 0.43982 0.22387 0.0
C345 C 0.33285 0.44124 0.99931 0.0
O346 O 0.32762 0.42798 0.02845 0.0
C347 C 0.33558 0.44896 0.35865 0.0
C348 C 0.33701 0.47118 0.39059 0.0
C349 C 0.33466 0.45637 0.40721 0.0
N350 N 0.33837 0.459 0.3156 0.0
N351 N 0.33926 0.47226 0.33513 0.0
C352 C 0.33285 0.43232 0.35234 0.0
H353 H 0.32731 0.42733 0.31126 0.0
H354 H 0.32501 0.42438 0.38606 0.0
H355 H 0.34457 0.43273 0.3543 0.0
C356 C 0.30918 0.4514 0.12278 0.0
N357 N 0.32305 0.45317 0.14277 0.0
N358 N 0.32249 0.45273 0.1976 0.0
C359 C 0.3081 0.45041 0.2142 0.0
C360 C 0.29922 0.4496 0.16741 0.0
C361 C 0.30615 0.45276 0.06238 0.0
H362 H 0.31721 0.46234 0.04253 0.0
H363 H 0.30282 0.44125 0.04131 0.0
H364 H 0.29632 0.45549 0.05658 0.0
O365 O 0.36008 0.47808 0.12329 0.0
O366 O 0.3596 0.47782 0.21568 0.0
H367 H 0.30831 0.46063 0.29341 0.0
H368 H 0.28956 0.44285 0.27691 0.0
C369 C 0.3028 0.44861 0.27369 0.0
H370 H 0.30679 0.44123 0.29661 0.0
H371 H 0.34136 0.48204 0.31042 0.0
O372 O 0.33912 0.45463 0.02457 0.0
C373 C 0.3658 0.48488 0.16986 0.0
Co374 Co 0.88539 0.3417 0.11398 0.0
Co375 Co 0.88368 0.34122 0.24513 0.0
C376 C 0.91411 0.34952 0.18646 0.0
O377 O 0.90734 0.34786 0.13934 0.0
O378 O 0.90637 0.34715 0.23193 0.0
C379 C 0.8927 0.33384 0.00592 0.0
O380 O 0.90188 0.32993 0.03453 0.0
C381 C 0.88554 0.33506 0.36551 0.0
C382 C 0.866 0.33841 0.39871 0.0
C383 C 0.87771 0.33484 0.41453 0.0
N384 N 0.87873 0.33861 0.32295 0.0
N385 N 0.86712 0.34065 0.34324 0.0
C386 C 0.89865 0.33115 0.35838 0.0
H387 H 0.89779 0.32579 0.31668 0.0
H388 H 0.89802 0.32275 0.39129 0.0
H389 H 0.91041 0.34238 0.3613 0.0
C390 C 0.85846 0.30849 0.13027 0.0
N391 N 0.87 0.32267 0.1503 0.0
N392 N 0.86943 0.32232 0.20514 0.0
C393 C 0.85755 0.30782 0.22178 0.0
C394 C 0.85018 0.29859 0.17487 0.0
C395 C 0.85572 0.30451 0.06953 0.0
H396 H 0.8667 0.30534 0.05134 0.0
H397 H 0.84552 0.29226 0.06214 0.0
H398 H 0.85351 0.31343 0.04798 0.0
O399 O 0.88128 0.35956 0.12944 0.0
O400 O 0.88069 0.35929 0.2218 0.0
H401 H 0.84834 0.31138 0.29799 0.0
H402 H 0.84286 0.29085 0.28597 0.0
C403 C 0.85262 0.30345 0.28128 0.0
H404 H 0.86313 0.30538 0.30624 0.0
H405 H 0.85991 0.34356 0.31906 0.0
O406 O 0.88445 0.33879 0.03171 0.0
C407 C 0.87986 0.36529 0.1755 0.0
H408 H 0.11963 0.61606 0.08486 0.0
H409 H 0.12115 0.59139 0.08889 0.0
H410 H 0.12311 0.5941 0.26829 0.0
H411 H 0.12146 0.61854 0.26496 0.0
H412 H 0.14489 0.58567 0.13898 0.0
H413 H 0.08489 0.54906 0.23626 0.0
H414 H 0.0911 0.56818 0.20361 0.0
H415 H 0.09805 0.56735 0.27237 0.0
C416 C 0.12042 0.61143 0.12517 0.0
C417 C 0.12027 0.61922 0.17457 0.0
C418 C 0.1213 0.59735 0.12737 0.0
C419 C 0.12196 0.59081 0.17892 0.0
C420 C 0.12228 0.59879 0.22814 0.0
H421 H 0.12085 0.50296 0.27627 0.0
H422 H 0.12288 0.52939 0.27606 0.0
C423 C 0.12139 0.61281 0.22605 0.0
C424 C 0.12221 0.57556 0.1815 0.0
H425 H 0.10099 0.53695 0.22838 0.0
C426 C 0.13529 0.57499 0.15836 0.0
C427 C 0.10968 0.56171 0.20709 0.0
C428 C 0.09506 0.56149 0.23086 0.0
C429 C 0.13627 0.56092 0.16064 0.0
C430 C 0.12368 0.54703 0.18588 0.0
C431 C 0.11066 0.54765 0.20934 0.0
C432 C 0.1234 0.5315 0.1862 0.0
C433 C 0.15087 0.56113 0.13677 0.0
C434 C 0.12293 0.52393 0.13579 0.0
C435 C 0.12176 0.50888 0.13573 0.0
C436 C 0.12093 0.50102 0.18617 0.0
C437 C 0.12151 0.50869 0.23672 0.0
C438 C 0.12266 0.52377 0.23669 0.0
H439 H 0.16124 0.57353 0.13385 0.0
H440 H 0.1544 0.5538 0.16246 0.0
H441 H 0.14809 0.55601 0.0941 0.0
H442 H 0.12312 0.52951 0.09637 0.0
H443 H 0.1213 0.50334 0.09597 0.0
H444 H 0.61822 0.12129 0.08533 0.0
H445 H 0.59372 0.12292 0.08526 0.0
H446 H 0.5925 0.121 0.26482 0.0
H447 H 0.61715 0.1195 0.26553 0.0
H448 H 0.56401 0.09997 0.12986 0.0
H449 H 0.58652 0.15956 0.22918 0.0
H450 H 0.59975 0.15321 0.20015 0.0
H451 H 0.59065 0.14593 0.26714 0.0
C452 C 0.61285 0.12134 0.12494 0.0
C453 C 0.61968 0.12027 0.1755 0.0
C454 C 0.59883 0.12227 0.12474 0.0
C455 C 0.59141 0.12226 0.175 0.0
C456 C 0.59822 0.12132 0.2256 0.0
H457 H 0.50315 0.11979 0.26218 0.0
H458 H 0.52911 0.12105 0.26085 0.0
C459 C 0.61226 0.12038 0.22589 0.0
C460 C 0.5761 0.1224 0.1741 0.0
H461 H 0.5584 0.14385 0.21522 0.0
C462 C 0.56278 0.1096 0.14823 0.0
C463 C 0.57457 0.13497 0.19826 0.0
C464 C 0.58865 0.14928 0.22487 0.0
C465 C 0.54785 0.10885 0.14676 0.0
C466 C 0.54631 0.12142 0.17086 0.0
C467 C 0.55965 0.13425 0.19665 0.0
C468 C 0.53083 0.12125 0.17096 0.0
C469 C 0.53376 0.09439 0.12078 0.0
C470 C 0.52333 0.12125 0.12077 0.0
C471 C 0.50843 0.12046 0.12128 0.0
C472 C 0.50081 0.11978 0.17208 0.0
C473 C 0.50861 0.12023 0.22227 0.0
C474 C 0.52347 0.12098 0.22166 0.0
H475 H 0.53595 0.08413 0.11691 0.0
H476 H 0.52269 0.09048 0.14566 0.0
H477 H 0.53167 0.09755 0.07834 0.0
H478 H 0.52898 0.12179 0.08118 0.0
H479 H 0.50283 0.12026 0.08189 0.0
H480 H 0.38338 0.50337 0.08136 0.0
H481 H 0.408 0.52951 0.08454 0.0
H482 H 0.40539 0.52932 0.26392 0.0
H483 H 0.3809 0.50318 0.26142 0.0
H484 H 0.41391 0.55912 0.13242 0.0
H485 H 0.45032 0.53584 0.23218 0.0
H486 H 0.43112 0.52286 0.20017 0.0
H487 H 0.43212 0.53103 0.26834 0.0
C488 C 0.388 0.50889 0.12152 0.0
C489 C 0.38023 0.50109 0.17116 0.0
C490 C 0.40206 0.52383 0.12321 0.0
C491 C 0.40863 0.53119 0.17448 0.0
C492 C 0.40067 0.52368 0.22398 0.0
H493 H 0.49598 0.6176 0.27123 0.0
H494 H 0.46963 0.59327 0.26934 0.0
C495 C 0.38663 0.50876 0.22239 0.0
C496 C 0.42391 0.54664 0.17631 0.0
H497 H 0.46259 0.564 0.22232 0.0
C498 C 0.42458 0.56021 0.15192 0.0
C499 C 0.43778 0.54798 0.20185 0.0
C500 C 0.43792 0.53364 0.22673 0.0
C501 C 0.43873 0.5752 0.15314 0.0
C502 C 0.4526 0.57652 0.1786 0.0
C503 C 0.4519 0.56295 0.20306 0.0
C504 C 0.4681 0.59179 0.17939 0.0
C505 C 0.43863 0.58953 0.12808 0.0
C506 C 0.47597 0.59898 0.12941 0.0
C507 C 0.49102 0.61288 0.13028 0.0
C508 C 0.49855 0.6198 0.18124 0.0
C509 C 0.49054 0.61261 0.23126 0.0
C510 C 0.47548 0.59871 0.2303 0.0
H511 H 0.42625 0.58749 0.12403 0.0
H512 H 0.44582 0.60044 0.15366 0.0
H513 H 0.444 0.59179 0.08579 0.0
H514 H 0.47063 0.59364 0.08968 0.0
H515 H 0.49685 0.61805 0.09095 0.0
H516 H 0.87654 0.38068 0.26589 0.0
H517 H 0.87449 0.40496 0.26671 0.0
H518 H 0.87664 0.4067 0.0872 0.0
H519 H 0.87857 0.38229 0.08573 0.0
H520 H 0.89741 0.4348 0.22304 0.0
H521 H 0.83798 0.41248 0.12265 0.0
H522 H 0.84433 0.39919 0.15136 0.0
H523 H 0.85166 0.40845 0.0846 0.0
C524 C 0.87643 0.38611 0.22645 0.0
C525 C 0.87773 0.37952 0.17569 0.0
C526 C 0.87526 0.39999 0.22708 0.0
C527 C 0.87524 0.40751 0.17704 0.0
C528 C 0.87634 0.4009 0.12625 0.0
H529 H 0.87846 0.49626 0.09093 0.0
H530 H 0.87684 0.47012 0.09172 0.0
C531 C 0.87753 0.387 0.12553 0.0
C532 C 0.87505 0.42279 0.17833 0.0
H533 H 0.85376 0.44062 0.13666 0.0
C534 C 0.88782 0.43607 0.20449 0.0
C535 C 0.86254 0.42438 0.15388 0.0
C536 C 0.84827 0.41035 0.12692 0.0
C537 C 0.88861 0.45101 0.20594 0.0
C538 C 0.87611 0.45262 0.18152 0.0
C539 C 0.8633 0.43933 0.15545 0.0
C540 C 0.87632 0.46811 0.18157 0.0
C541 C 0.90304 0.46506 0.23225 0.0
C542 C 0.87622 0.47549 0.23188 0.0
C543 C 0.87721 0.49049 0.23167 0.0
C544 C 0.8782 0.49832 0.18105 0.0
C545 C 0.87779 0.49063 0.13069 0.0
C546 C 0.87684 0.47566 0.131 0.0
H547 H 0.91327 0.46283 0.23637 0.0
H548 H 0.90703 0.47616 0.20743 0.0
H549 H 0.89982 0.46712 0.2746 0.0
H550 H 0.8755 0.4697 0.27135 0.0
H551 H 0.87737 0.49599 0.27119 0.0
H552 H 0.38144 0.87949 0.09444 0.0
H553 H 0.40605 0.87805 0.09368 0.0
H554 H 0.40709 0.87905 0.27333 0.0
H555 H 0.38233 0.88032 0.27471 0.0
H556 H 0.43557 0.90071 0.13809 0.0
H557 H 0.41352 0.84104 0.23638 0.0
H558 H 0.40016 0.84739 0.20852 0.0
H559 H 0.40943 0.85452 0.27537 0.0
C560 C 0.3868 0.87928 0.1339 0.0
C561 C 0.37988 0.88002 0.18469 0.0
C562 C 0.40087 0.87845 0.13332 0.0
C563 C 0.40828 0.87825 0.18341 0.0
C564 C 0.40139 0.87888 0.23421 0.0
H565 H 0.49752 0.8814 0.26483 0.0
H566 H 0.47158 0.88026 0.26644 0.0
C567 C 0.38728 0.87969 0.23488 0.0
C568 C 0.42365 0.87822 0.18221 0.0
H569 H 0.44164 0.85696 0.22249 0.0
C570 C 0.43689 0.89111 0.15627 0.0
C571 C 0.42532 0.86571 0.20617 0.0
C572 C 0.41133 0.8513 0.23279 0.0
C573 C 0.45186 0.89194 0.15434 0.0
C574 C 0.45352 0.87941 0.17815 0.0
C575 C 0.44029 0.86653 0.20421 0.0
C576 C 0.46897 0.87955 0.17679 0.0
C577 C 0.46584 0.90642 0.12796 0.0
C578 C 0.47594 0.87922 0.12582 0.0
C579 C 0.49079 0.87991 0.12466 0.0
C580 C 0.4989 0.88084 0.17455 0.0
C581 C 0.49166 0.88077 0.2256 0.0
C582 C 0.47682 0.88009 0.22666 0.0
H583 H 0.4636 0.91664 0.12432 0.0
H584 H 0.47699 0.91036 0.15243 0.0
H585 H 0.46783 0.90324 0.0854 0.0
H586 H 0.46992 0.87849 0.08689 0.0
H587 H 0.49595 0.87983 0.08464 0.0
H588 H 0.61869 0.49576 0.26254 0.0
H589 H 0.59424 0.46963 0.26316 0.0
H590 H 0.59213 0.47059 0.08381 0.0
H591 H 0.61674 0.49679 0.08253 0.0
H592 H 0.56434 0.46314 0.22051 0.0
H593 H 0.58612 0.42586 0.11773 0.0
H594 H 0.59956 0.44537 0.1469 0.0
H595 H 0.59019 0.44373 0.08061 0.0
C596 C 0.61314 0.4904 0.22306 0.0
C597 C 0.6197 0.49841 0.17242 0.0
C598 C 0.59916 0.47545 0.22358 0.0
C599 C 0.59148 0.46811 0.17356 0.0
C600 C 0.59804 0.47593 0.12284 0.0
H601 H 0.50258 0.38229 0.09154 0.0
H602 H 0.5286 0.40691 0.09115 0.0
C603 C 0.61206 0.49094 0.12222 0.0
C604 C 0.57614 0.4527 0.17499 0.0
H605 H 0.55813 0.41351 0.1343 0.0
C606 C 0.56299 0.45225 0.20192 0.0
C607 C 0.57444 0.43857 0.15053 0.0
C608 C 0.58834 0.43829 0.12267 0.0
C609 C 0.54805 0.4381 0.20426 0.0
C610 C 0.54635 0.42393 0.17999 0.0
C611 C 0.55951 0.42438 0.15303 0.0
C612 C 0.53086 0.40864 0.18091 0.0
C613 C 0.53414 0.43855 0.2314 0.0
C614 C 0.52364 0.40128 0.23158 0.0
C615 C 0.50869 0.38721 0.23206 0.0
C616 C 0.50076 0.38019 0.18178 0.0
C617 C 0.50829 0.38739 0.13109 0.0
C618 C 0.52319 0.40146 0.13071 0.0
H619 H 0.53636 0.451 0.23521 0.0
H620 H 0.52291 0.43133 0.20736 0.0
H621 H 0.53231 0.4334 0.27395 0.0
H622 H 0.52953 0.40646 0.27079 0.0
H623 H 0.50331 0.38192 0.27181 0.0
H624 H 0.27289 0.42923 0.10642 0.0
H625 H 0.24691 0.42832 0.10291 0.0
H626 H 0.26424 0.467 0.22198 0.0
H627 H 0.29021 0.46812 0.22478 0.0
H628 H 0.22543 0.42354 0.19417 0.0
H629 H 0.24765 0.48245 0.09011 0.0
H630 H 0.25884 0.47197 0.09049 0.0
H631 H 0.25885 0.48303 0.15084 0.0
C632 C 0.27111 0.43756 0.13154 0.0
C633 C 0.28347 0.44874 0.16583 0.0
C634 C 0.25631 0.437 0.12968 0.0
C635 C 0.25377 0.44773 0.16167 0.0
C636 C 0.26607 0.45878 0.19638 0.0
H637 H 0.17829 0.46874 0.22524 0.0
H638 H 0.20301 0.46732 0.22178 0.0
C639 C 0.28081 0.45931 0.19834 0.0
C640 C 0.23821 0.44733 0.15948 0.0
H641 H 0.22132 0.47021 0.12798 0.0
C642 C 0.22445 0.43366 0.17925 0.0
C643 C 0.23705 0.46057 0.13995 0.0
C644 C 0.25134 0.4753 0.11615 0.0
C645 C 0.2096 0.4331 0.18183 0.0
C646 C 0.2085 0.44647 0.16318 0.0
C647 C 0.22222 0.46001 0.14244 0.0
C648 C 0.19335 0.44689 0.16618 0.0
C649 C 0.19536 0.41846 0.20624 0.0
C650 C 0.17979 0.43593 0.13582 0.0
C651 C 0.16565 0.43667 0.13813 0.0
C652 C 0.16494 0.44843 0.17052 0.0
C653 C 0.17853 0.45944 0.20056 0.0
C654 C 0.19263 0.45869 0.19836 0.0
H655 H 0.19904 0.41099 0.23049 0.0
H656 H 0.18833 0.42192 0.23385 0.0
H657 H 0.18739 0.41099 0.17196 0.0
H658 H 0.18019 0.42693 0.10989 0.0
H659 H 0.15529 0.42809 0.11456 0.0
H660 H 0.82201 0.28996 0.12255 0.0
H661 H 0.79766 0.26346 0.12201 0.0
H662 H 0.82159 0.24462 0.22282 0.0
H663 H 0.84602 0.27113 0.22301 0.0
H664 H 0.79395 0.23312 0.08551 0.0
H665 H 0.77996 0.23348 0.31041 0.0
H666 H 0.7937 0.2515 0.2732 0.0
H667 H 0.79988 0.23751 0.29419 0.0
C668 C 0.82206 0.28009 0.14415 0.0
C669 C 0.83577 0.28248 0.17295 0.0
C670 C 0.80819 0.26503 0.14396 0.0
C671 C 0.8078 0.25217 0.17294 0.0
C672 C 0.82159 0.25447 0.20096 0.0
H673 H 0.72754 0.15506 0.22837 0.0
H674 H 0.7542 0.17929 0.22832 0.0
C675 C 0.83549 0.26954 0.20098 0.0
C676 C 0.79288 0.2364 0.17381 0.0
H677 H 0.76267 0.21029 0.2591 0.0
C678 C 0.78711 0.22808 0.12344 0.0
C679 C 0.78409 0.22987 0.22347 0.0
C680 C 0.7896 0.23855 0.27844 0.0
C681 C 0.77269 0.21338 0.12131 0.0
C682 C 0.76366 0.20704 0.17071 0.0
C683 C 0.76962 0.2152 0.22132 0.0
C684 C 0.74768 0.19233 0.17036 0.0
C685 C 0.76733 0.20471 0.06626 0.0
C686 C 0.73517 0.19176 0.13856 0.0
C687 C 0.72003 0.17801 0.13863 0.0
C688 C 0.7171 0.16464 0.17087 0.0
C689 C 0.72954 0.16527 0.20333 0.0
C690 C 0.74472 0.17904 0.20318 0.0
H691 H 0.77758 0.20848 0.03716 0.0
H692 H 0.76133 0.19151 0.07205 0.0
H693 H 0.75865 0.2076 0.04647 0.0
H694 H 0.73707 0.20203 0.11412 0.0
H695 H 0.71053 0.17788 0.11401 0.0
H696 H 0.53511 0.71071 0.10844 0.0
H697 H 0.53676 0.73681 0.10554 0.0
H698 H 0.56815 0.75197 0.24859 0.0
H699 H 0.56759 0.72626 0.24853 0.0
H700 H 0.5271 0.75011 0.17586 0.0
H701 H 0.59258 0.79007 0.15168 0.0
H702 H 0.58313 0.76858 0.14474 0.0
H703 H 0.58778 0.77776 0.21271 0.0
C704 C 0.54272 0.71976 0.13832 0.0
C705 C 0.55141 0.71653 0.17821 0.0
C706 C 0.54351 0.73463 0.13703 0.0
C707 C 0.55281 0.74652 0.1762 0.0
C708 C 0.56127 0.74321 0.21687 0.0
H709 H 0.53482 0.82454 0.24872 0.0
H710 H 0.53646 0.80007 0.2501 0.0
C711 C 0.56074 0.72841 0.21741 0.0
C712 C 0.55292 0.76202 0.17579 0.0
H713 H 0.57744 0.80271 0.17551 0.0
C714 C 0.53813 0.76161 0.17539 0.0
C715 C 0.56729 0.77705 0.17428 0.0
C716 C 0.58358 0.77842 0.17026 0.0
C717 C 0.53727 0.77572 0.17392 0.0
C718 C 0.55162 0.79075 0.1754 0.0
C719 C 0.56643 0.7912 0.17516 0.0
C720 C 0.5515 0.80612 0.17674 0.0
C721 C 0.52096 0.77429 0.16924 0.0
C722 C 0.56011 0.81809 0.13689 0.0
C723 C 0.55967 0.8324 0.13734 0.0
C724 C 0.5505 0.83491 0.17734 0.0
C725 C 0.54214 0.82304 0.21773 0.0
C726 C 0.54283 0.8089 0.21794 0.0
H727 H 0.51206 0.76268 0.15018 0.0
H728 H 0.51656 0.77478 0.21153 0.0
H729 H 0.52144 0.78416 0.14382 0.0
H730 H 0.56703 0.8163 0.105 0.0
H731 H 0.56647 0.84147 0.10634 0.0
H732 H 0.72826 0.57415 0.22618 0.0
H733 H 0.75481 0.57631 0.226 0.0
H734 H 0.73655 0.53467 0.11982 0.0
H735 H 0.71003 0.53243 0.12038 0.0
H736 H 0.76191 0.55231 0.26225 0.0
H737 H 0.77776 0.56827 0.03996 0.0
H738 H 0.76215 0.57024 0.07441 0.0
H739 H 0.75835 0.55093 0.0508 0.0
C740 C 0.72999 0.56551 0.2028 0.0
C741 C 0.7172 0.55313 0.17333 0.0
C742 C 0.74511 0.56677 0.20258 0.0
C743 C 0.74766 0.55577 0.17234 0.0
C744 C 0.7349 0.54346 0.14254 0.0
H745 H 0.82177 0.53231 0.12218 0.0
H746 H 0.79754 0.53457 0.12259 0.0
C747 C 0.71979 0.54217 0.14294 0.0
C748 C 0.76345 0.55665 0.17386 0.0
H749 H 0.79392 0.56037 0.09092 0.0
C750 C 0.76902 0.55425 0.22498 0.0
C751 C 0.77265 0.55916 0.12509 0.0
C752 C 0.76753 0.56245 0.06949 0.0
C753 C 0.78329 0.55367 0.22829 0.0
C754 C 0.79234 0.55588 0.17929 0.0
C755 C 0.78693 0.55864 0.12838 0.0
C756 C 0.80712 0.55472 0.1794 0.0
C757 C 0.78822 0.55009 0.28376 0.0
C758 C 0.82058 0.5654 0.21084 0.0
C759 C 0.83442 0.5641 0.21063 0.0
C760 C 0.83503 0.55222 0.17857 0.0
C761 C 0.82162 0.54166 0.14682 0.0
C762 C 0.80779 0.54292 0.14714 0.0
H763 H 0.77814 0.545 0.31406 0.0
H764 H 0.79269 0.54153 0.27878 0.0
H765 H 0.79805 0.56137 0.30161 0.0
H766 H 0.82042 0.57479 0.23515 0.0
H767 H 0.84471 0.57247 0.23498 0.0
H768 H 0.17827 0.70909 0.12678 0.0
H769 H 0.20265 0.73555 0.12726 0.0
H770 H 0.17883 0.75397 0.23056 0.0
H771 H 0.15437 0.72748 0.22975 0.0
H772 H 0.20601 0.76586 0.09203 0.0
H773 H 0.22083 0.76527 0.31593 0.0
H774 H 0.20707 0.74726 0.27871 0.0
H775 H 0.20079 0.76108 0.30089 0.0
C776 C 0.17826 0.71884 0.14925 0.0
C777 C 0.16454 0.71635 0.17823 0.0
C778 C 0.19215 0.73389 0.14963 0.0
C779 C 0.19256 0.74663 0.1794 0.0
C780 C 0.17881 0.7442 0.20804 0.0
H781 H 0.27187 0.84388 0.23719 0.0
H782 H 0.24544 0.81939 0.23625 0.0
C783 C 0.16488 0.72914 0.20751 0.0
C784 C 0.20741 0.76246 0.18009 0.0
H785 H 0.2377 0.78867 0.2648 0.0
C786 C 0.21294 0.77089 0.12977 0.0
C787 C 0.21633 0.76898 0.2295 0.0
C788 C 0.21108 0.76018 0.28437 0.0
C789 C 0.22722 0.78572 0.12749 0.0
C790 C 0.23637 0.79207 0.17666 0.0
C791 C 0.23066 0.78377 0.22719 0.0
C792 C 0.25217 0.80701 0.17624 0.0
C793 C 0.23229 0.79452 0.07257 0.0
C794 C 0.26473 0.80806 0.14341 0.0
C795 C 0.27975 0.82199 0.14391 0.0
C796 C 0.2825 0.83502 0.17765 0.0
C797 C 0.27 0.83394 0.21095 0.0
C798 C 0.25494 0.82001 0.21032 0.0
H799 H 0.22191 0.79066 0.044 0.0
H800 H 0.23813 0.80769 0.07867 0.0
H801 H 0.241 0.79183 0.05198 0.0
H802 H 0.26299 0.79802 0.11799 0.0
H803 H 0.2893 0.82246 0.11863 0.0
H804 H 0.42844 0.15571 0.1244 0.0
H805 H 0.4275 0.18077 0.12166 0.0
H806 H 0.46924 0.20344 0.22769 0.0
H807 H 0.47035 0.17856 0.22965 0.0
H808 H 0.42511 0.19852 0.21373 0.0
H809 H 0.4812 0.23395 0.09253 0.0
H810 H 0.47085 0.21231 0.09606 0.0
H811 H 0.48332 0.22412 0.15292 0.0
C812 C 0.43743 0.16611 0.1468 0.0
C813 C 0.44948 0.1653 0.17715 0.0
C814 C 0.43686 0.18034 0.14539 0.0
C815 C 0.44842 0.19398 0.1739 0.0
C816 C 0.46035 0.19311 0.20473 0.0
H817 H 0.4701 0.29135 0.22695 0.0
H818 H 0.46892 0.2653 0.2263 0.0
C819 C 0.4609 0.17889 0.20622 0.0
C820 C 0.44796 0.20911 0.17211 0.0
H821 H 0.46975 0.24841 0.13322 0.0
C822 C 0.43479 0.20942 0.19577 0.0
C823 C 0.46062 0.22326 0.14862 0.0
C824 C 0.47474 0.22344 0.12062 0.0
C825 C 0.43417 0.22368 0.19811 0.0
C826 C 0.44695 0.23789 0.17526 0.0
C827 C 0.46 0.2375 0.15089 0.0
C828 C 0.4472 0.2534 0.17704 0.0
C829 C 0.42012 0.22353 0.22651 0.0
C830 C 0.43542 0.25533 0.14936 0.0
C831 C 0.43604 0.27015 0.15006 0.0
C832 C 0.44849 0.28325 0.1781 0.0
C833 C 0.46029 0.28133 0.2056 0.0
C834 C 0.45966 0.26652 0.20501 0.0
H835 H 0.41342 0.2128 0.25344 0.0
H836 H 0.42414 0.23445 0.25237 0.0
H837 H 0.41172 0.22335 0.19441 0.0
H838 H 0.42588 0.24544 0.12664 0.0
H839 H 0.42685 0.27143 0.1285 0.0
H840 H 0.12962 0.46361 0.42146 0.0
H841 H 0.13035 0.46258 0.52316 0.0
H842 H 0.09076 0.41397 0.5209 0.0
H843 H 0.08984 0.4149 0.41911 0.0
H844 H 0.08643 0.43391 0.59432 0.0
H845 H 0.14582 0.43898 0.62616 0.0
H846 H 0.1465 0.45423 0.58119 0.0
H847 H 0.13553 0.43356 0.5599 0.0
C848 C 0.12116 0.45263 0.44249 0.0
C849 C 0.10966 0.43934 0.41211 0.0
C850 C 0.12167 0.45203 0.50063 0.0
C851 C 0.11075 0.43812 0.52953 0.0
C852 C 0.09937 0.42478 0.49936 0.0
H853 H 0.11756 0.43196 0.89419 0.0
H854 H 0.11401 0.42443 0.79526 0.0
C855 C 0.09887 0.42534 0.44118 0.0
C856 C 0.11054 0.43795 0.59134 0.0
H857 H 0.13414 0.44436 0.70569 0.0
C858 C 0.09678 0.43597 0.61872 0.0
C859 C 0.12396 0.44042 0.62316 0.0
C860 C 0.13874 0.44176 0.59619 0.0
C861 C 0.09639 0.43721 0.67691 0.0
C862 C 0.11016 0.44065 0.7084 0.0
C863 C 0.12363 0.44182 0.68136 0.0
C864 C 0.11128 0.44442 0.76865 0.0
C865 C 0.08133 0.43509 0.70418 0.0
C866 C 0.11099 0.45815 0.78626 0.0
C867 C 0.11297 0.46243 0.84243 0.0
C868 C 0.11521 0.45303 0.88231 0.0
C869 C 0.1154 0.43919 0.86476 0.0
C870 C 0.11353 0.43497 0.80822 0.0
H871 H 0.07064 0.42816 0.67726 0.0
H872 H 0.07922 0.42887 0.74492 0.0
H873 H 0.08263 0.44706 0.71171 0.0
H874 H 0.10957 0.46578 0.75629 0.0
H875 H 0.11287 0.47322 0.85464 0.0
H876 H 0.67519 0.12971 0.40539 0.0
H877 H 0.67865 0.13187 0.50652 0.0
H878 H 0.6455 0.08116 0.52322 0.0
H879 H 0.64197 0.07882 0.42201 0.0
H880 H 0.65232 0.12293 0.58206 0.0
H881 H 0.68462 0.08948 0.62191 0.0
H882 H 0.68425 0.09752 0.55421 0.0
H883 H 0.66702 0.07955 0.57876 0.0
C884 C 0.66875 0.11897 0.43046 0.0
C885 C 0.65824 0.1041 0.40573 0.0
C886 C 0.67077 0.12023 0.48817 0.0
C887 C 0.66246 0.10665 0.52206 0.0
C888 C 0.65222 0.09172 0.49756 0.0
H889 H 0.65005 0.09381 0.88032 0.0
H890 H 0.65062 0.08958 0.77982 0.0
C891 C 0.65014 0.09045 0.4398 0.0
C892 C 0.66351 0.10838 0.58327 0.0
H893 H 0.67586 0.09776 0.70104 0.0
C894 C 0.65753 0.1175 0.60812 0.0
C895 C 0.67016 0.10111 0.61688 0.0
C896 C 0.677 0.09144 0.59177 0.0
C897 C 0.65791 0.11948 0.66598 0.0
C898 C 0.66482 0.11246 0.69968 0.0
C899 C 0.67067 0.10318 0.67492 0.0
C900 C 0.66605 0.11473 0.76073 0.0
C901 C 0.65062 0.12882 0.6906 0.0
C902 C 0.67496 0.1302 0.78317 0.0
C903 C 0.67465 0.13263 0.84031 0.0
C904 C 0.66566 0.1196 0.87606 0.0
C905 C 0.65736 0.10402 0.85388 0.0
C906 C 0.65758 0.1016 0.79652 0.0
H907 H 0.64218 0.12969 0.66114 0.0
H908 H 0.64411 0.12321 0.72984 0.0
H909 H 0.66032 0.14119 0.70026 0.0
H910 H 0.68179 0.14044 0.75624 0.0
H911 H 0.68119 0.14475 0.85646 0.0
H912 H 0.58495 0.67924 0.41877 0.0
H913 H 0.58569 0.67943 0.52083 0.0
H914 H 0.53431 0.65871 0.52567 0.0
H915 H 0.53341 0.65833 0.42392 0.0
H916 H 0.5752 0.6943 0.59763 0.0
H917 H 0.54213 0.62821 0.62338 0.0
H918 H 0.55068 0.63784 0.55764 0.0
H919 H 0.53181 0.63545 0.58043 0.0
C920 C 0.5738 0.67474 0.44153 0.0
C921 C 0.5591 0.66866 0.41316 0.0
C922 C 0.57426 0.67485 0.49983 0.0
C923 C 0.56003 0.66881 0.53074 0.0
C924 C 0.54539 0.6631 0.50258 0.0
H925 H 0.53848 0.68134 0.86439 0.0
H926 H 0.54504 0.68337 0.76534 0.0
C927 C 0.54492 0.66298 0.44438 0.0
C928 C 0.56041 0.66861 0.59248 0.0
H929 H 0.54496 0.6437 0.70481 0.0
C930 C 0.56874 0.68324 0.62114 0.0
C931 C 0.55222 0.65414 0.62306 0.0
C932 C 0.54383 0.638 0.59463 0.0
C933 C 0.56846 0.68382 0.6796 0.0
C934 C 0.55946 0.66943 0.70998 0.0
C935 C 0.55176 0.65475 0.68143 0.0
C936 C 0.55692 0.66937 0.77094 0.0
C937 C 0.57768 0.69986 0.70831 0.0
C938 C 0.56128 0.66068 0.80699 0.0
C939 C 0.55749 0.65946 0.86379 0.0
C940 C 0.54919 0.66684 0.88527 0.0
C941 C 0.545 0.67565 0.8491 0.0
C942 C 0.54885 0.67692 0.79256 0.0
H943 H 0.5876 0.70876 0.6817 0.0
H944 H 0.56946 0.70455 0.71703 0.0
H945 H 0.58277 0.69875 0.7485 0.0
H946 H 0.5673 0.65456 0.79093 0.0
H947 H 0.56045 0.6522 0.89021 0.0
H948 H 0.87416 0.53388 0.41946 0.0
H949 H 0.87368 0.53442 0.52117 0.0
H950 H 0.90679 0.58538 0.51944 0.0
H951 H 0.90728 0.58502 0.41739 0.0
H952 H 0.90029 0.54454 0.5932 0.0
H953 H 0.86997 0.58039 0.62173 0.0
H954 H 0.86963 0.57093 0.55638 0.0
H955 H 0.88732 0.58904 0.57722 0.0
C956 C 0.88128 0.54524 0.44057 0.0
C957 C 0.89076 0.55942 0.41025 0.0
C958 C 0.881 0.54551 0.49873 0.0
C959 C 0.89009 0.55995 0.52776 0.0
C960 C 0.8995 0.57415 0.49776 0.0
H961 H 0.90677 0.56009 0.88804 0.0
H962 H 0.91127 0.56674 0.78864 0.0
C963 C 0.89981 0.5739 0.43946 0.0
C964 C 0.89001 0.5599 0.5895 0.0
H965 H 0.87814 0.57267 0.70319 0.0
C966 C 0.89556 0.55079 0.61734 0.0
C967 C 0.88376 0.568 0.62069 0.0
C968 C 0.8772 0.57756 0.59269 0.0
C969 C 0.89479 0.54932 0.67559 0.0
C970 C 0.88847 0.55736 0.70681 0.0
C971 C 0.88313 0.56667 0.67906 0.0
C972 C 0.88604 0.55506 0.76779 0.0
C973 C 0.90015 0.53868 0.70314 0.0
C974 C 0.8704 0.54676 0.78913 0.0
C975 C 0.86781 0.5431 0.8458 0.0
C976 C 0.88082 0.54783 0.88236 0.0
C977 C 0.89651 0.55662 0.86125 0.0
C978 C 0.8991 0.56024 0.80435 0.0
H979 H 0.90199 0.53111 0.67248 0.0
H980 H 0.91167 0.54626 0.72513 0.0
H981 H 0.89119 0.53074 0.73446 0.0
H982 H 0.86016 0.54265 0.76157 0.0
H983 H 0.85559 0.53629 0.86089 0.0
H984 H 0.35108 0.87358 0.85604 0.0
H985 H 0.34685 0.87604 0.75703 0.0
H986 H 0.31338 0.89189 0.79777 0.0
H987 H 0.31723 0.88907 0.89735 0.0
H988 H 0.31437 0.85928 0.70264 0.0
H989 H 0.34733 0.92594 0.68289 0.0
H990 H 0.35167 0.91591 0.73816 0.0
H991 H 0.33349 0.91675 0.73989 0.0
C992 C 0.34289 0.8777 0.84406 0.0
C993 C 0.33475 0.88145 0.88464 0.0
C994 C 0.3405 0.87911 0.7875 0.0
C995 C 0.32994 0.8843 0.77028 0.0
C996 C 0.32179 0.88813 0.81043 0.0
H997 H 0.31486 0.90094 0.42081 0.0
H998 H 0.31273 0.89916 0.52267 0.0
C999 C 0.32413 0.88665 0.86729 0.0
C1000 C 0.32712 0.88501 0.71005 0.0
H1001 H 0.33709 0.91095 0.60064 0.0
C1002 C 0.31917 0.87056 0.68031 0.0
C1003 C 0.33328 0.89974 0.68139 0.0
C1004 C 0.34199 0.91554 0.71184 0.0
C1005 C 0.31759 0.87045 0.62219 0.0
C1006 C 0.32452 0.8852 0.59303 0.0
C1007 C 0.33187 0.89966 0.62308 0.0
C1008 C 0.32526 0.88586 0.53131 0.0
C1009 C 0.30861 0.85453 0.59258 0.0
C1010 C 0.33315 0.87911 0.50251 0.0
C1011 C 0.33434 0.88006 0.44452 0.0
C1012 C 0.32782 0.88793 0.41407 0.0
C1013 C 0.31998 0.89475 0.443 0.0
C1014 C 0.31876 0.89377 0.50118 0.0
H1015 H 0.2998 0.84503 0.62069 0.0
H1016 H 0.30216 0.85533 0.55544 0.0
H1017 H 0.31726 0.85081 0.57864 0.0
H1018 H 0.3386 0.8733 0.525 0.0
H1019 H 0.34055 0.87476 0.42365 0.0
H1020 H 0.4139 0.31725 0.41675 0.0
H1021 H 0.41327 0.31628 0.519 0.0
H1022 H 0.46494 0.34232 0.52317 0.0
H1023 H 0.46576 0.34327 0.42136 0.0
H1024 H 0.43431 0.30519 0.5954 0.0
H1025 H 0.44418 0.36703 0.61911 0.0
H1026 H 0.43439 0.35476 0.55874 0.0
H1027 H 0.45569 0.36377 0.56683 0.0
C1028 C 0.42513 0.3227 0.43941 0.0
C1029 C 0.43989 0.33039 0.41092 0.0
C1030 C 0.42473 0.32211 0.49771 0.0
C1031 C 0.43905 0.32929 0.52824 0.0
C1032 C 0.45377 0.33676 0.50006 0.0
H1033 H 0.47698 0.35466 0.85334 0.0
H1034 H 0.47 0.35147 0.75476 0.0
C1035 C 0.4542 0.33727 0.44192 0.0
C1036 C 0.43884 0.3294 0.58973 0.0
H1037 H 0.44633 0.35436 0.70043 0.0
C1038 C 0.43669 0.31581 0.61869 0.0
C1039 C 0.44198 0.34332 0.61945 0.0
C1040 C 0.44412 0.35808 0.58975 0.0
C1041 C 0.43838 0.31606 0.67693 0.0
C1042 C 0.442 0.33018 0.70665 0.0
C1043 C 0.44353 0.34355 0.67759 0.0
C1044 C 0.44576 0.33194 0.76703 0.0
C1045 C 0.4371 0.30152 0.70574 0.0
C1046 C 0.43439 0.32207 0.80684 0.0
C1047 C 0.43841 0.32379 0.86354 0.0
C1048 C 0.45379 0.33556 0.88127 0.0
C1049 C 0.46503 0.34548 0.84115 0.0
C1050 C 0.46105 0.34372 0.78476 0.0
H1051 H 0.43749 0.29294 0.67573 0.0
H1052 H 0.44695 0.30511 0.73643 0.0
H1053 H 0.42554 0.2952 0.72858 0.0
H1054 H 0.42246 0.313 0.79409 0.0
H1055 H 0.4296 0.31564 0.89299 0.0
H1056 H 0.52075 0.87173 0.49932 0.0
H1057 H 0.52716 0.87465 0.59862 0.0
H1058 H 0.57742 0.89555 0.55987 0.0
H1059 H 0.57105 0.89238 0.45998 0.0
H1060 H 0.54444 0.86059 0.65385 0.0
H1061 H 0.57431 0.92707 0.67493 0.0
H1062 H 0.56095 0.91648 0.61777 0.0
H1063 H 0.58069 0.91898 0.61932 0.0
C1064 C 0.53319 0.87709 0.51186 0.0
C1065 C 0.54543 0.88213 0.47181 0.0
C1066 C 0.53682 0.87874 0.56856 0.0
C1067 C 0.55276 0.88547 0.58644 0.0
C1068 C 0.56507 0.89061 0.54675 0.0
H1069 H 0.58424 0.90236 0.93604 0.0
H1070 H 0.58464 0.90096 0.83408 0.0
C1071 C 0.56143 0.88891 0.48975 0.0
C1072 C 0.55618 0.88631 0.64681 0.0
H1073 H 0.57091 0.9122 0.75671 0.0
C1074 C 0.55036 0.87188 0.67636 0.0
C1075 C 0.56403 0.90105 0.67575 0.0
C1076 C 0.57033 0.91683 0.64567 0.0
C1077 C 0.55181 0.87176 0.73447 0.0
C1078 C 0.55895 0.88647 0.76384 0.0
C1079 C 0.56538 0.90095 0.73405 0.0
C1080 C 0.55884 0.88699 0.82554 0.0
C1081 C 0.54558 0.85588 0.7639 0.0
C1082 C 0.5442 0.87974 0.85437 0.0
C1083 C 0.54392 0.88049 0.9124 0.0
C1084 C 0.55829 0.88863 0.94284 0.0
C1085 C 0.57296 0.89595 0.91385 0.0
C1086 C 0.57322 0.89518 0.85564 0.0
H1087 H 0.54525 0.8466 0.73554 0.0
H1088 H 0.55308 0.85701 0.80068 0.0
H1089 H 0.53315 0.85165 0.77844 0.0
H1090 H 0.53295 0.87366 0.83188 0.0
H1091 H 0.53241 0.87479 0.93332 0.0
H1092 H 0.67386 0.54385 0.94176 0.0
H1093 H 0.67745 0.54514 0.84068 0.0
H1094 H 0.64664 0.56548 0.82395 0.0
H1095 H 0.64298 0.56429 0.92512 0.0
H1096 H 0.65094 0.52914 0.76424 0.0
H1097 H 0.68677 0.59492 0.72662 0.0
H1098 H 0.68573 0.58606 0.79404 0.0
H1099 H 0.66919 0.58805 0.76946 0.0
C1100 C 0.66796 0.54874 0.9167 0.0
C1101 C 0.65807 0.5539 0.94143 0.0
C1102 C 0.67005 0.54949 0.85901 0.0
C1103 C 0.66244 0.55556 0.82512 0.0
C1104 C 0.65282 0.56101 0.84961 0.0
H1105 H 0.65196 0.5577 0.46597 0.0
H1106 H 0.65257 0.56262 0.56641 0.0
C1107 C 0.65066 0.56021 0.90735 0.0
C1108 C 0.66356 0.55495 0.76389 0.0
H1109 H 0.67757 0.57814 0.64696 0.0
C1110 C 0.65681 0.53984 0.73856 0.0
C1111 C 0.67108 0.56895 0.73075 0.0
C1112 C 0.67873 0.58545 0.75641 0.0
C1113 C 0.65729 0.53831 0.68068 0.0
C1114 C 0.6651 0.55231 0.64746 0.0
C1115 C 0.67169 0.56745 0.6727 0.0
C1116 C 0.66651 0.5513 0.58646 0.0
C1117 C 0.64917 0.52171 0.65554 0.0
C1118 C 0.67465 0.54385 0.56454 0.0
C1119 C 0.6743 0.54102 0.50745 0.0
C1120 C 0.66608 0.54588 0.4712 0.0
C1121 C 0.65866 0.55413 0.4928 0.0
C1122 C 0.65891 0.55684 0.55015 0.0
H1123 H 0.6402 0.51263 0.68443 0.0
H1124 H 0.64306 0.52137 0.61589 0.0
H1125 H 0.65832 0.51822 0.6465 0.0
H1126 H 0.68083 0.53975 0.59186 0.0
H1127 H 0.68015 0.53469 0.49175 0.0
H1128 H 0.11746 0.68621 0.46133 0.0
H1129 H 0.11408 0.68999 0.56068 0.0
H1130 H 0.11265 0.64553 0.59903 0.0
H1131 H 0.11588 0.64161 0.50034 0.0
H1132 H 0.08737 0.65174 0.65103 0.0
H1133 H 0.15115 0.69946 0.68039 0.0
H1134 H 0.14009 0.70086 0.62209 0.0
H1135 H 0.14505 0.68523 0.62379 0.0
C1136 C 0.11608 0.67709 0.49078 0.0
C1137 C 0.11675 0.66352 0.47302 0.0
C1138 C 0.11431 0.67935 0.5475 0.0
C1139 C 0.11315 0.66804 0.58695 0.0
C1140 C 0.1135 0.65437 0.56911 0.0
H1141 H 0.12703 0.66164 0.93344 0.0
H1142 H 0.12776 0.66344 0.83175 0.0
C1143 C 0.11539 0.65218 0.51278 0.0
C1144 C 0.11207 0.67047 0.64727 0.0
H1145 H 0.135 0.69008 0.76049 0.0
C1146 C 0.09767 0.66029 0.67504 0.0
C1147 C 0.12563 0.68151 0.67815 0.0
C1148 C 0.14143 0.6924 0.64998 0.0
C1149 C 0.09659 0.66058 0.73333 0.0
C1150 C 0.11025 0.67141 0.76441 0.0
C1151 C 0.12454 0.68186 0.73644 0.0
C1152 C 0.11026 0.67123 0.82615 0.0
C1153 C 0.08106 0.6488 0.76138 0.0
C1154 C 0.10037 0.67528 0.8567 0.0
C1155 C 0.09988 0.67423 0.91489 0.0
C1156 C 0.10933 0.66915 0.94351 0.0
C1157 C 0.11954 0.66551 0.91274 0.0
C1158 C 0.12001 0.66658 0.85463 0.0
H1159 H 0.07267 0.63934 0.73227 0.0
H1160 H 0.08337 0.64297 0.79732 0.0
H1161 H 0.07507 0.6553 0.77741 0.0
H1162 H 0.09293 0.67913 0.8355 0.0
H1163 H 0.09197 0.67721 0.93733 0.0
H1164 H 0.46978 0.14355 0.49838 0.0
H1165 H 0.46321 0.13919 0.59734 0.0
H1166 H 0.42862 0.08961 0.56446 0.0
H1167 H 0.43578 0.09364 0.46579 0.0
H1168 H 0.4357 0.12946 0.65584 0.0
H1169 H 0.45682 0.08558 0.68038 0.0
H1170 H 0.46053 0.09742 0.6181 0.0
H1171 H 0.44119 0.07999 0.62971 0.0
C1172 C 0.46072 0.13171 0.5121 0.0
C1173 C 0.45319 0.119 0.47387 0.0
C1174 C 0.45693 0.12926 0.56869 0.0
C1175 C 0.44558 0.11403 0.58845 0.0
C1176 C 0.43761 0.10141 0.55026 0.0
H1177 H 0.41897 0.08276 0.93416 0.0
H1178 H 0.41849 0.0845 0.83238 0.0
C1179 C 0.4415 0.10383 0.49352 0.0
C1180 C 0.44263 0.11142 0.64928 0.0
H1181 H 0.44604 0.09102 0.76013 0.0
C1182 C 0.43788 0.121 0.67858 0.0
C1183 C 0.44554 0.10041 0.67897 0.0
C1184 C 0.45144 0.09035 0.65038 0.0
C1185 C 0.43614 0.11997 0.73678 0.0
C1186 C 0.43928 0.10915 0.76633 0.0
C1187 C 0.4436 0.09927 0.73709 0.0
C1188 C 0.43899 0.10846 0.82793 0.0
C1189 C 0.43105 0.13053 0.76639 0.0
C1190 C 0.45072 0.12136 0.8589 0.0
C1191 C 0.45113 0.12037 0.91693 0.0
C1192 C 0.43976 0.10646 0.945 0.0
C1193 C 0.42786 0.09365 0.91382 0.0
C1194 C 0.42756 0.09461 0.85572 0.0
H1195 H 0.42575 0.13558 0.73721 0.0
H1196 H 0.42218 0.12371 0.79957 0.0
H1197 H 0.44168 0.14065 0.78644 0.0
H1198 H 0.45976 0.13207 0.83805 0.0
H1199 H 0.46042 0.13045 0.93973 0.0
H1200 H 0.32107 0.41478 0.9318 0.0
H1201 H 0.32059 0.4141 0.82973 0.0
H1202 H 0.34191 0.46556 0.82535 0.0
H1203 H 0.34259 0.4664 0.9271 0.0
H1204 H 0.30566 0.42501 0.75434 0.0
H1205 H 0.37163 0.45718 0.72533 0.0
H1206 H 0.36221 0.44865 0.79136 0.0
H1207 H 0.36481 0.46767 0.76925 0.0
C1208 C 0.32567 0.42596 0.90914 0.0
C1209 C 0.33198 0.44066 0.93763 0.0
C1210 C 0.32537 0.42554 0.85083 0.0
C1211 C 0.33148 0.4398 0.82004 0.0
C1212 C 0.33746 0.45445 0.84834 0.0
H1213 H 0.3181 0.46175 0.4874 0.0
H1214 H 0.31634 0.45522 0.58647 0.0
C1215 C 0.33775 0.45489 0.90654 0.0
C1216 C 0.33141 0.43944 0.75828 0.0
H1217 H 0.35589 0.4546 0.64485 0.0
C1218 C 0.31664 0.43133 0.73032 0.0
C1219 C 0.34576 0.44745 0.72703 0.0
C1220 C 0.36202 0.4556 0.75469 0.0
C1221 C 0.31582 0.43165 0.67192 0.0
C1222 C 0.33012 0.44046 0.64088 0.0
C1223 C 0.34492 0.44795 0.66874 0.0
C1224 C 0.32998 0.44298 0.57997 0.0
C1225 C 0.29965 0.42265 0.64397 0.0
C1226 C 0.33838 0.43841 0.54341 0.0
C1227 C 0.33944 0.44218 0.48662 0.0
C1228 C 0.3322 0.45067 0.46563 0.0
C1229 C 0.32368 0.45507 0.5023 0.0
C1230 C 0.32256 0.45124 0.55886 0.0
H1231 H 0.29075 0.41283 0.67086 0.0
H1232 H 0.29514 0.43105 0.63574 0.0
H1233 H 0.30047 0.41748 0.60358 0.0
H1234 H 0.3444 0.43224 0.55906 0.0
H1235 H 0.34651 0.43906 0.45982 0.0
H1236 H 0.90751 0.32231 0.93796 0.0
H1237 H 0.90717 0.32138 0.83588 0.0
H1238 H 0.87636 0.34193 0.83242 0.0
H1239 H 0.87661 0.34294 0.93422 0.0
H1240 H 0.87979 0.30571 0.76203 0.0
H1241 H 0.91495 0.37163 0.73047 0.0
H1242 H 0.9146 0.36221 0.79601 0.0
H1243 H 0.89814 0.36506 0.77679 0.0
C1244 C 0.90066 0.32664 0.91551 0.0
C1245 C 0.89216 0.33279 0.94427 0.0
C1246 C 0.90047 0.32607 0.85721 0.0
C1247 C 0.89193 0.3318 0.82671 0.0
C1248 C 0.88324 0.3377 0.85524 0.0
H1249 H 0.85571 0.3194 0.49569 0.0
H1250 H 0.86055 0.31747 0.59463 0.0
C1251 C 0.88334 0.3382 0.91345 0.0
C1252 C 0.89193 0.33151 0.76498 0.0
H1253 H 0.90163 0.35576 0.65074 0.0
C1254 C 0.8847 0.31664 0.73759 0.0
C1255 C 0.89857 0.3458 0.73326 0.0
C1256 C 0.90714 0.3621 0.76048 0.0
C1257 C 0.88331 0.31568 0.67924 0.0
C1258 C 0.8892 0.32995 0.64772 0.0
C1259 C 0.89705 0.34483 0.67501 0.0
C1260 C 0.8864 0.32974 0.5869 0.0
C1261 C 0.87543 0.2994 0.65182 0.0
C1262 C 0.89933 0.33738 0.5497 0.0
C1263 C 0.89659 0.33849 0.49298 0.0
C1264 C 0.88086 0.3321 0.47274 0.0
C1265 C 0.86796 0.3243 0.51004 0.0
C1266 C 0.87069 0.3231 0.5665 0.0
H1267 H 0.87579 0.29026 0.6791 0.0
H1268 H 0.86266 0.29551 0.64334 0.0
H1269 H 0.88132 0.29982 0.61156 0.0
H1270 H 0.91155 0.34278 0.5648 0.0
H1271 H 0.90679 0.34499 0.46566 0.0
H1272 H 0.06681 0.42039 0.26722 0.0
H1273 H 0.03781 0.40274 0.27102 0.0
H1274 H 0.03526 0.40447 0.09195 0.0
H1275 H 0.06438 0.42207 0.08747 0.0
H1276 H 0.01599 0.4116 0.23237 0.0
H1277 H 0.00697 0.35636 0.12696 0.0
H1278 H 0.0262 0.37143 0.15393 0.0
H1279 H 0.01903 0.37458 0.08867 0.0
C1280 C 0.06016 0.41686 0.22845 0.0
C1281 C 0.06795 0.42273 0.17699 0.0
C1282 C 0.04357 0.40676 0.23079 0.0
C1283 C 0.03442 0.40219 0.1818 0.0
C1284 C 0.04215 0.40763 0.1302 0.0
H1285 H 0.93455 0.3572 0.09798 0.0
H1286 H 0.9636 0.36886 0.10026 0.0
C1287 C 0.05879 0.41776 0.12776 0.0
C1288 C 0.01669 0.39294 0.18524 0.0
H1289 H 0.98359 0.35829 0.14356 0.0
C1290 C 0.00889 0.39987 0.21346 0.0
C1291 C 0.00751 0.37769 0.1603 0.0
C1292 C 0.01533 0.36948 0.13114 0.0
C1293 C 0.99211 0.39216 0.21609 0.0
C1294 C 0.98289 0.37695 0.19081 0.0
C1295 C 0.9907 0.36992 0.16311 0.0
C1296 C 0.96513 0.36859 0.19014 0.0
C1297 C 0.9844 0.40067 0.24412 0.0
C1298 C 0.9563 0.36416 0.23997 0.0
C1299 C 0.93964 0.35757 0.23893 0.0
C1300 C 0.93153 0.35517 0.18794 0.0
C1301 C 0.94038 0.35896 0.13804 0.0
C1302 C 0.95701 0.3656 0.13919 0.0
H1303 H 0.993 0.41368 0.24964 0.0
H1304 H 0.97398 0.39927 0.21966 0.0
H1305 H 0.98004 0.39536 0.28597 0.0
H1306 H 0.96233 0.36607 0.27971 0.0
H1307 H 0.93319 0.35464 0.27808 0.0
H1308 H 0.57804 0.93365 0.08742 0.0
H1309 H 0.59593 0.9626 0.08446 0.0
H1310 H 0.59872 0.96395 0.26391 0.0
H1311 H 0.58057 0.93493 0.2675 0.0
H1312 H 0.59045 0.98516 0.22047 0.0
H1313 H 0.64381 0.99128 0.10999 0.0
H1314 H 0.62531 0.97889 0.07389 0.0
H1315 H 0.62878 0.97259 0.14051 0.0
C1316 C 0.58262 0.94002 0.12635 0.0
C1317 C 0.57777 0.93194 0.17778 0.0
C1318 C 0.59298 0.95659 0.12448 0.0
C1319 C 0.59882 0.96541 0.1739 0.0
C1320 C 0.5944 0.95734 0.22525 0.0
H1321 H 0.64964 0.067 0.24977 0.0
H1322 H 0.6381 0.03797 0.25202 0.0
C1323 C 0.58401 0.94075 0.22721 0.0
C1324 C 0.60822 0.98317 0.17216 0.0
H1325 H 0.64195 0.01507 0.11813 0.0
C1326 C 0.6018 0.9917 0.19861 0.0
C1327 C 0.62294 0.99166 0.14312 0.0
C1328 C 0.63071 0.98315 0.11568 0.0
C1329 C 0.60952 0.00848 0.19597 0.0
C1330 C 0.6242 0.01697 0.1668 0.0
C1331 C 0.63069 0.00849 0.1404 0.0
C1332 C 0.63291 0.03469 0.16378 0.0
C1333 C 0.60171 0.01697 0.22333 0.0
C1334 C 0.63442 0.04252 0.11289 0.0
C1335 C 0.64109 0.0592 0.1113 0.0
C1336 C 0.64633 0.06827 0.16067 0.0
C1337 C 0.64553 0.0604 0.21105 0.0
C1338 C 0.63892 0.04379 0.21251 0.0
H1339 H 0.58883 0.00863 0.23261 0.0
H1340 H 0.6079 0.02232 0.26325 0.0
H1341 H 0.60267 0.0268 0.19641 0.0
H1342 H 0.6299 0.03567 0.07479 0.0
H1343 H 0.64159 0.06489 0.0718 0.0
H1344 H 0.64089 0.57539 0.27767 0.0
H1345 H 0.62897 0.59273 0.27634 0.0
H1346 H 0.63622 0.59864 0.0987 0.0
H1347 H 0.64802 0.58137 0.09932 0.0
H1348 H 0.64086 0.62548 0.23252 0.0
H1349 H 0.58695 0.57853 0.1222 0.0
H1350 H 0.60099 0.57427 0.15736 0.0
H1351 H 0.60583 0.58378 0.09018 0.0
C1352 C 0.64012 0.58053 0.23842 0.0
C1353 C 0.64519 0.57679 0.18849 0.0
C1354 C 0.63332 0.59043 0.23778 0.0
C1355 C 0.63149 0.59671 0.18728 0.0
C1356 C 0.63729 0.59368 0.13794 0.0
H1357 H 0.57925 0.64447 0.08682 0.0
H1358 H 0.59702 0.63314 0.08966 0.0
C1359 C 0.64405 0.5838 0.13847 0.0
C1360 C 0.62274 0.60569 0.18532 0.0
H1361 H 0.58871 0.6037 0.13422 0.0
C1362 C 0.62944 0.62075 0.21119 0.0
C1363 C 0.60788 0.59945 0.15733 0.0
C1364 C 0.59987 0.58307 0.13053 0.0
C1365 C 0.62173 0.62988 0.20901 0.0
C1366 C 0.60684 0.6236 0.18107 0.0
C1367 C 0.60019 0.60854 0.15525 0.0
C1368 C 0.59755 0.63208 0.17968 0.0
C1369 C 0.62974 0.64625 0.2357 0.0
C1370 C 0.59205 0.63533 0.22935 0.0
C1371 C 0.58192 0.64182 0.22791 0.0
C1372 C 0.57695 0.64504 0.17669 0.0
C1373 C 0.58281 0.64213 0.12697 0.0
C1374 C 0.59297 0.63565 0.1285 0.0
H1375 H 0.64285 0.65116 0.24066 0.0
H1376 H 0.62776 0.65484 0.21077 0.0
H1377 H 0.62455 0.64532 0.27777 0.0
H1378 H 0.59513 0.63234 0.26926 0.0
H1379 H 0.57763 0.64388 0.26704 0.0
H1380 H 0.06649 0.64602 0.08975 0.0
H1381 H 0.03749 0.6347 0.08665 0.0
H1382 H 0.03538 0.63119 0.26593 0.0
H1383 H 0.06451 0.64269 0.2697 0.0
H1384 H 0.01581 0.60418 0.1269 0.0
H1385 H 0.00691 0.65077 0.23008 0.0
H1386 H 0.0261 0.65486 0.20289 0.0
H1387 H 0.01905 0.64475 0.26856 0.0
C1388 C 0.05994 0.64307 0.12871 0.0
C1389 C 0.06785 0.6452 0.18003 0.0
C1390 C 0.04335 0.63661 0.12677 0.0
C1391 C 0.03431 0.63223 0.17603 0.0
C1392 C 0.04217 0.63476 0.22747 0.0
H1393 H 0.93412 0.57756 0.25886 0.0
H1394 H 0.9632 0.59492 0.25754 0.0
C1395 C 0.05882 0.64125 0.22951 0.0
C1396 C 0.01657 0.62372 0.17302 0.0
H1397 H 0.98351 0.62548 0.21386 0.0
C1398 C 0.00874 0.60889 0.14545 0.0
C1399 C 0.00742 0.62989 0.19753 0.0
C1400 C 0.01527 0.64601 0.22605 0.0
C1401 C 0.99196 0.59984 0.14287 0.0
C1402 C 0.98277 0.60596 0.16752 0.0
C1403 C 0.9906 0.62087 0.19476 0.0
C1404 C 0.965 0.59666 0.16768 0.0
C1405 C 0.98422 0.58355 0.11544 0.0
C1406 C 0.95632 0.59225 0.11755 0.0
C1407 C 0.93966 0.58221 0.11805 0.0
C1408 C 0.93139 0.57652 0.16878 0.0
C1409 C 0.94009 0.58161 0.21898 0.0
C1410 C 0.95673 0.59158 0.21839 0.0
H1411 H 0.99278 0.57906 0.11061 0.0
H1412 H 0.97374 0.57464 0.13992 0.0
H1413 H 0.97995 0.5844 0.07331 0.0
H1414 H 0.96246 0.59632 0.07799 0.0
H1415 H 0.93333 0.57867 0.07866 0.0
H1416 H 0.35114 0.93265 0.26917 0.0
H1417 H 0.3623 0.96163 0.27332 0.0
H1418 H 0.36751 0.96452 0.09455 0.0
H1419 H 0.35622 0.93545 0.08974 0.0
H1420 H 0.39312 0.98346 0.23685 0.0
H1421 H 0.34775 0.99291 0.12713 0.0
H1422 H 0.34336 0.97359 0.15395 0.0
H1423 H 0.35407 0.98091 0.08942 0.0
C1424 C 0.35443 0.93937 0.23054 0.0
C1425 C 0.35285 0.9317 0.17908 0.0
C1426 C 0.36079 0.95595 0.23306 0.0
C1427 C 0.3656 0.9652 0.18426 0.0
C1428 C 0.36359 0.95756 0.13263 0.0
H1429 H 0.42175 0.06479 0.09973 0.0
H1430 H 0.40392 0.03581 0.10248 0.0
C1431 C 0.35721 0.94094 0.13001 0.0
C1432 C 0.37411 0.98293 0.18798 0.0
H1433 H 0.37313 0.0162 0.14437 0.0
C1434 C 0.38868 0.99063 0.21719 0.0
C1435 C 0.36829 0.9922 0.16202 0.0
C1436 C 0.35244 0.98451 0.13175 0.0
C1437 C 0.39787 0.00741 0.21973 0.0
C1438 C 0.39215 0.01672 0.19335 0.0
C1439 C 0.37745 0.00902 0.16476 0.0
C1440 C 0.40174 0.03448 0.1923 0.0
C1441 C 0.41393 0.01499 0.24877 0.0
C1442 C 0.40608 0.04341 0.24189 0.0
C1443 C 0.41639 0.06003 0.24058 0.0
C1444 C 0.42242 0.068 0.18954 0.0
C1445 C 0.41741 0.05906 0.13982 0.0
C1446 C 0.40718 0.04248 0.14124 0.0
H1447 H 0.41818 0.00629 0.25528 0.0
H1448 H 0.42315 0.02532 0.22448 0.0
H1449 H 0.41285 0.01946 0.29024 0.0
H1450 H 0.40173 0.03749 0.28168 0.0
H1451 H 0.41987 0.06655 0.27959 0.0
H1452 H 0.35725 0.42248 0.26747 0.0
H1453 H 0.36899 0.405 0.2652 0.0
H1454 H 0.36457 0.40212 0.08622 0.0
H1455 H 0.35301 0.41962 0.08777 0.0
H1456 H 0.35773 0.37322 0.21738 0.0
H1457 H 0.41316 0.42104 0.11688 0.0
H1458 H 0.39873 0.42506 0.15023 0.0
H1459 H 0.39479 0.41625 0.08194 0.0
C1460 C 0.35862 0.418 0.22766 0.0
C1461 C 0.35439 0.42264 0.17774 0.0
C1462 C 0.36531 0.408 0.22648 0.0
C1463 C 0.36788 0.40253 0.17546 0.0
C1464 C 0.36293 0.40647 0.12592 0.0
H1465 H 0.42131 0.35541 0.08114 0.0
H1466 H 0.40342 0.3666 0.08114 0.0
C1467 C 0.35629 0.41645 0.12698 0.0
C1468 C 0.37649 0.39341 0.17355 0.0
H1469 H 0.41111 0.39571 0.12743 0.0
C1470 C 0.3694 0.3781 0.19778 0.0
C1471 C 0.3917 0.39985 0.14791 0.0
C1472 C 0.40015 0.4165 0.12313 0.0
C1473 C 0.37708 0.36894 0.19637 0.0
C1474 C 0.39234 0.37543 0.17091 0.0
C1475 C 0.39936 0.39072 0.14654 0.0
C1476 C 0.40164 0.36697 0.17096 0.0
C1477 C 0.3687 0.35234 0.22138 0.0
C1478 C 0.40648 0.36336 0.22146 0.0
C1479 C 0.41667 0.35694 0.22165 0.0
C1480 C 0.42238 0.35415 0.17128 0.0
C1481 C 0.41717 0.3574 0.12068 0.0
C1482 C 0.40694 0.36381 0.12057 0.0
H1483 H 0.35553 0.34741 0.22411 0.0
H1484 H 0.37102 0.34397 0.1966 0.0
H1485 H 0.37328 0.3529 0.26425 0.0
H1486 H 0.40283 0.36603 0.26084 0.0
H1487 H 0.42045 0.35462 0.26142 0.0
loop_
_geom_bond_atom_site_label_1
_geom_bond_atom_site_label_2
_geom_bond_distance
_geom_bond_site_symmetry_2
_ccdc_geom_bond_type
Co0 O3 1.970 . S
Co0 N17 1.989 . S
Co0 O25 1.967 . S
Co0 O32 1.920 . S
Co1 O4 1.966 . S
Co1 N10 2.022 . S
Co1 N18 1.993 . S
Co1 O26 1.941 . S
C2 O3 1.258 . S
C2 O4 1.263 . S
O3 Co0 1.970 . S
O3 C2 1.258 . S
O4 Co1 1.966 . S
O4 C2 1.263 . S
C5 O6 1.235 . S
C5 O32 1.289 . S
O6 C5 1.235 . S
C7 C9 1.400 . S
C7 N10 1.351 1_556 S
C7 C12 1.501 . S
C8 C9 1.387 . S
C8 N11 1.341 . S
C9 C7 1.400 . S
C9 C8 1.387 . S
N10 Co1 2.022 . S
N10 C7 1.351 1_554 S
N10 N11 1.365 1_554 S
N11 C8 1.341 . S
N11 N10 1.365 1_556 S
N11 H31 0.862 . S
C12 C7 1.501 . S
C12 H13 0.961 1_556 S
C12 H14 0.961 . S
C12 H15 0.960 . S
H13 C12 0.961 1_554 S
H14 C12 0.961 . S
H15 C12 0.960 . S
C16 N17 1.342 . S
C16 C20 1.401 . S
C16 C21 1.499 . S
N17 Co0 1.989 . S
N17 C16 1.342 . S
N17 N18 1.388 . S
N18 Co1 1.993 . S
N18 N17 1.388 . S
N18 C19 1.346 . S
C19 N18 1.346 . S
C19 C20 1.396 . S
C19 C29 1.510 . S
C20 C16 1.401 . S
C20 C19 1.396 . S
C21 C16 1.499 . S
C21 H22 0.959 . S
C21 H23 0.960 . S
C21 H24 0.961 . S
H22 C21 0.959 . S
H23 C21 0.960 . S
H24 C21 0.961 . S
O25 Co0 1.967 . S
O25 C33 1.258 . S
O26 Co1 1.941 . S
O26 C33 1.266 . S
H27 C29 0.959 . S
H28 C29 0.961 . S
C29 C19 1.510 . S
C29 H27 0.959 . S
C29 H28 0.961 . S
C29 H30 0.960 . S
H30 C29 0.960 . S
H31 N11 0.862 . S
O32 Co0 1.920 . S
O32 C5 1.289 . S
C33 O25 1.258 . S
C33 O26 1.266 . S
Co34 O37 1.970 . S
Co34 N51 1.989 . S
Co34 O59 1.967 . S
Co34 O66 1.920 . S
Co35 O38 1.966 . S
Co35 N44 2.022 . S
Co35 N52 1.993 . S
Co35 O60 1.941 . S
C36 O37 1.258 . S
C36 O38 1.263 . S
O37 Co34 1.970 . S
O37 C36 1.258 . S
O38 Co35 1.966 . S
O38 C36 1.263 . S
C39 O40 1.235 . S
C39 O66 1.289 . S
O40 C39 1.235 . S
C41 C43 1.400 . S
C41 N44 1.351 1_556 S
C41 C46 1.501 . S
C42 C43 1.387 . S
C42 N45 1.341 . S
C43 C41 1.400 . S
C43 C42 1.387 . S
N44 Co35 2.022 . S
N44 C41 1.351 1_554 S
N44 N45 1.365 1_554 S
N45 C42 1.341 . S
N45 N44 1.365 1_556 S
N45 H65 0.862 . S
C46 C41 1.501 . S
C46 H47 0.961 1_556 S
C46 H48 0.961 . S
C46 H49 0.960 . S
H47 C46 0.961 1_554 S
H48 C46 0.961 . S
H49 C46 0.960 . S
C50 N51 1.342 . S
C50 C54 1.401 . S
C50 C55 1.499 . S
N51 Co34 1.989 . S
N51 C50 1.342 . S
N51 N52 1.388 . S
N52 Co35 1.993 . S
N52 N51 1.388 . S
N52 C53 1.346 . S
C53 N52 1.346 . S
C53 C54 1.396 . S
C53 C63 1.510 . S
C54 C50 1.401 . S
C54 C53 1.396 . S
C55 C50 1.499 . S
C55 H56 0.959 . S
C55 H57 0.960 . S
C55 H58 0.961 . S
H56 C55 0.959 . S
H57 C55 0.960 . S
H58 C55 0.961 . S
O59 Co34 1.967 . S
O59 C67 1.258 . S
O60 Co35 1.941 . S
O60 C67 1.266 . S
H61 C63 0.959 . S
H62 C63 0.961 . S
C63 C53 1.510 . S
C63 H61 0.959 . S
C63 H62 0.961 . S
C63 H64 0.960 . S
H64 C63 0.960 . S
H65 N45 0.862 . S
O66 Co34 1.920 . S
O66 C39 1.289 . S
C67 O59 1.258 . S
C67 O60 1.266 . S
Co68 O71 1.970 . S
Co68 N85 1.989 . S
Co68 O93 1.967 . S
Co68 O100 1.920 . S
Co69 O72 1.966 . S
Co69 N78 2.022 . S
Co69 N86 1.993 . S
Co69 O94 1.941 . S
C70 O71 1.258 . S
C70 O72 1.263 . S
O71 Co68 1.970 . S
O71 C70 1.258 . S
O72 Co69 1.966 . S
O72 C70 1.263 . S
C73 O74 1.235 . S
C73 O100 1.289 . S
O74 C73 1.235 . S
C75 C77 1.400 . S
C75 N78 1.351 1_556 S
C75 C80 1.501 . S
C76 C77 1.387 . S
C76 N79 1.341 . S
C77 C75 1.400 . S
C77 C76 1.387 . S
N78 Co69 2.022 . S
N78 C75 1.351 1_554 S
N78 N79 1.365 1_554 S
N79 C76 1.341 . S
N79 N78 1.365 1_556 S
N79 H99 0.862 . S
C80 C75 1.501 . S
C80 H81 0.961 1_556 S
C80 H82 0.961 . S
C80 H83 0.960 . S
H81 C80 0.961 1_554 S
H82 C80 0.961 . S
H83 C80 0.960 . S
C84 N85 1.342 . S
C84 C88 1.401 . S
C84 C89 1.499 . S
N85 Co68 1.989 . S
N85 C84 1.342 . S
N85 N86 1.388 . S
N86 Co69 1.993 . S
N86 N85 1.388 . S
N86 C87 1.346 . S
C87 N86 1.346 . S
C87 C88 1.396 . S
C87 C97 1.510 . S
C88 C84 1.401 . S
C88 C87 1.396 . S
C89 C84 1.499 . S
C89 H90 0.959 . S
C89 H91 0.960 . S
C89 H92 0.961 . S
H90 C89 0.959 . S
H91 C89 0.960 . S
H92 C89 0.961 . S
O93 Co68 1.967 . S
O93 C101 1.258 . S
O94 Co69 1.941 . S
O94 C101 1.266 . S
H95 C97 0.959 . S
H96 C97 0.961 . S
C97 C87 1.510 . S
C97 H95 0.959 . S
C97 H96 0.961 . S
C97 H98 0.960 . S
H98 C97 0.960 . S
H99 N79 0.862 . S
O100 Co68 1.920 . S
O100 C73 1.289 . S
C101 O93 1.258 . S
C101 O94 1.266 . S
Co102 O105 1.970 . S
Co102 N119 1.989 . S
Co102 O127 1.967 . S
Co102 O134 1.920 . S
Co103 O106 1.966 . S
Co103 N112 2.022 . S
Co103 N120 1.993 . S
Co103 O128 1.941 . S
C104 O105 1.258 . S
C104 O106 1.263 . S
O105 Co102 1.970 . S
O105 C104 1.258 . S
O106 Co103 1.966 . S
O106 C104 1.263 . S
C107 O108 1.235 . S
C107 O134 1.289 . S
O108 C107 1.235 . S
C109 C111 1.400 . S
C109 N112 1.351 1_556 S
C109 C114 1.501 . S
C110 C111 1.387 . S
C110 N113 1.341 . S
C111 C109 1.400 . S
C111 C110 1.387 . S
N112 Co103 2.022 . S
N112 C109 1.351 1_554 S
N112 N113 1.365 1_554 S
N113 C110 1.341 . S
N113 N112 1.365 1_556 S
N113 H133 0.862 . S
C114 C109 1.501 . S
C114 H115 0.961 1_556 S
C114 H116 0.961 . S
C114 H117 0.960 . S
H115 C114 0.961 1_554 S
H116 C114 0.961 . S
H117 C114 0.960 . S
C118 N119 1.342 . S
C118 C122 1.401 . S
C118 C123 1.499 . S
N119 Co102 1.989 . S
N119 C118 1.342 . S
N119 N120 1.388 . S
N120 Co103 1.993 . S
N120 N119 1.388 . S
N120 C121 1.346 . S
C121 N120 1.346 . S
C121 C122 1.396 . S
C121 C131 1.510 . S
C122 C118 1.401 . S
C122 C121 1.396 . S
C123 C118 1.499 . S
C123 H124 0.959 . S
C123 H125 0.960 . S
C123 H126 0.961 . S
H124 C123 0.959 . S
H125 C123 0.960 . S
H126 C123 0.961 . S
O127 Co102 1.967 . S
O127 C135 1.258 . S
O128 Co103 1.941 . S
O128 C135 1.266 . S
H129 C131 0.959 . S
H130 C131 0.961 . S
C131 C121 1.510 . S
C131 H129 0.959 . S
C131 H130 0.961 . S
C131 H132 0.960 . S
H132 C131 0.960 . S
H133 N113 0.862 . S
O134 Co102 1.920 . S
O134 C107 1.289 . S
C135 O127 1.258 . S
C135 O128 1.266 . S
Co136 O139 1.970 . S
Co136 N153 1.989 . S
Co136 O161 1.967 . S
Co136 O168 1.920 . S
Co137 O140 1.966 . S
Co137 N146 2.022 . S
Co137 N154 1.993 . S
Co137 O162 1.941 . S
C138 O139 1.258 . S
C138 O140 1.263 . S
O139 Co136 1.970 . S
O139 C138 1.258 . S
O140 Co137 1.966 . S
O140 C138 1.263 . S
C141 O142 1.235 . S
C141 O168 1.289 . S
O142 C141 1.235 . S
C143 C145 1.400 . S
C143 N146 1.351 1_556 S
C143 C148 1.501 . S
C144 C145 1.387 . S
C144 N147 1.341 . S
C145 C143 1.400 . S
C145 C144 1.387 . S
N146 Co137 2.022 . S
N146 C143 1.351 1_554 S
N146 N147 1.365 1_554 S
N147 C144 1.341 . S
N147 N146 1.365 1_556 S
N147 H167 0.862 . S
C148 C143 1.501 . S
C148 H149 0.961 1_556 S
C148 H150 0.961 . S
C148 H151 0.960 . S
H149 C148 0.961 1_554 S
H150 C148 0.961 . S
H151 C148 0.960 . S
C152 N153 1.342 . S
C152 C156 1.401 . S
C152 C157 1.499 . S
N153 Co136 1.989 . S
N153 C152 1.342 . S
N153 N154 1.388 . S
N154 Co137 1.993 . S
N154 N153 1.388 . S
N154 C155 1.346 . S
C155 N154 1.346 . S
C155 C156 1.396 . S
C155 C165 1.510 . S
C156 C152 1.401 . S
C156 C155 1.396 . S
C157 C152 1.499 . S
C157 H158 0.959 . S
C157 H159 0.960 . S
C157 H160 0.961 . S
H158 C157 0.959 . S
H159 C157 0.960 . S
H160 C157 0.961 . S
O161 Co136 1.967 . S
O161 C169 1.258 . S
O162 Co137 1.941 . S
O162 C169 1.266 . S
H163 C165 0.959 . S
H164 C165 0.961 . S
C165 C155 1.510 . S
C165 H163 0.959 . S
C165 H164 0.961 . S
C165 H166 0.960 . S
H166 C165 0.960 . S
H167 N147 0.862 . S
O168 Co136 1.920 . S
O168 C141 1.289 . S
C169 O161 1.258 . S
C169 O162 1.266 . S
Co170 O173 1.970 . S
Co170 N187 1.989 . S
Co170 O195 1.967 . S
Co170 O202 1.920 . S
Co171 O174 1.966 . S
Co171 N180 2.022 . S
Co171 N188 1.993 . S
Co171 O196 1.941 . S
C172 O173 1.258 . S
C172 O174 1.263 . S
O173 Co170 1.970 . S
O173 C172 1.258 . S
O174 Co171 1.966 . S
O174 C172 1.263 . S
C175 O176 1.235 . S
C175 O202 1.289 . S
O176 C175 1.235 . S
C177 C179 1.400 . S
C177 N180 1.351 1_556 S
C177 C182 1.501 . S
C178 C179 1.387 . S
C178 N181 1.341 . S
C179 C177 1.400 . S
C179 C178 1.387 . S
N180 Co171 2.022 . S
N180 C177 1.351 1_554 S
N180 N181 1.365 1_554 S
N181 C178 1.341 . S
N181 N180 1.365 1_556 S
N181 H201 0.862 . S
C182 C177 1.501 . S
C182 H183 0.961 1_556 S
C182 H184 0.961 . S
C182 H185 0.960 . S
H183 C182 0.961 1_554 S
H184 C182 0.961 . S
H185 C182 0.960 . S
C186 N187 1.342 . S
C186 C190 1.401 . S
C186 C191 1.499 . S
N187 Co170 1.989 . S
N187 C186 1.342 . S
N187 N188 1.388 . S
N188 Co171 1.993 . S
N188 N187 1.388 . S
N188 C189 1.346 . S
C189 N188 1.346 . S
C189 C190 1.396 . S
C189 C199 1.510 . S
C190 C186 1.401 . S
C190 C189 1.396 . S
C191 C186 1.499 . S
C191 H192 0.959 . S
C191 H193 0.960 . S
C191 H194 0.961 . S
H192 C191 0.959 . S
H193 C191 0.960 . S
H194 C191 0.961 . S
O195 Co170 1.967 . S
O195 C203 1.258 . S
O196 Co171 1.941 . S
O196 C203 1.266 . S
H197 C199 0.959 . S
H198 C199 0.961 . S
C199 C189 1.510 . S
C199 H197 0.959 . S
C199 H198 0.961 . S
C199 H200 0.960 . S
H200 C199 0.960 . S
H201 N181 0.862 . S
O202 Co170 1.920 . S
O202 C175 1.289 . S
C203 O195 1.258 . S
C203 O196 1.266 . S
Co204 O207 1.970 . S
Co204 N221 1.989 . S
Co204 O229 1.967 . S
Co204 O236 1.920 . S
Co205 O208 1.966 . S
Co205 N214 2.022 . S
Co205 N222 1.993 . S
Co205 O230 1.941 . S
C206 O207 1.258 . S
C206 O208 1.263 . S
O207 Co204 1.970 . S
O207 C206 1.258 . S
O208 Co205 1.966 . S
O208 C206 1.263 . S
C209 O210 1.235 . S
C209 O236 1.289 . S
O210 C209 1.235 . S
C211 C213 1.400 . S
C211 N214 1.351 . S
C211 C216 1.501 . S
C212 C213 1.387 . S
C212 N215 1.341 . S
C213 C211 1.400 . S
C213 C212 1.387 . S
N214 Co205 2.022 . S
N214 C211 1.351 . S
N214 N215 1.365 . S
N215 C212 1.341 . S
N215 N214 1.365 . S
N215 H235 0.862 . S
C216 C211 1.501 . S
C216 H217 0.961 . S
C216 H218 0.961 . S
C216 H219 0.960 . S
H217 C216 0.961 . S
H218 C216 0.961 . S
H219 C216 0.960 . S
C220 N221 1.342 . S
C220 C224 1.401 . S
C220 C225 1.499 . S
N221 Co204 1.989 . S
N221 C220 1.342 . S
N221 N222 1.388 . S
N222 Co205 1.993 . S
N222 N221 1.388 . S
N222 C223 1.346 . S
C223 N222 1.346 . S
C223 C224 1.396 . S
C223 C233 1.510 . S
C224 C220 1.401 . S
C224 C223 1.396 . S
C225 C220 1.499 . S
C225 H226 0.959 . S
C225 H227 0.960 . S
C225 H228 0.961 . S
H226 C225 0.959 . S
H227 C225 0.960 . S
H228 C225 0.961 . S
O229 Co204 1.967 . S
O229 C237 1.258 . S
O230 Co205 1.941 . S
O230 C237 1.266 . S
H231 C233 0.959 . S
H232 C233 0.961 . S
C233 C223 1.510 . S
C233 H231 0.959 . S
C233 H232 0.961 . S
C233 H234 0.960 . S
H234 C233 0.960 . S
H235 N215 0.862 . S
O236 Co204 1.920 . S
O236 C209 1.289 . S
C237 O229 1.258 . S
C237 O230 1.266 . S
Co238 O241 1.970 . S
Co238 N255 1.989 . S
Co238 O263 1.967 . S
Co238 O270 1.920 . S
Co239 O242 1.966 . S
Co239 N248 2.022 . S
Co239 N256 1.993 . S
Co239 O264 1.941 . S
C240 O241 1.258 . S
C240 O242 1.263 . S
O241 Co238 1.970 . S
O241 C240 1.258 . S
O242 Co239 1.966 . S
O242 C240 1.263 . S
C243 O244 1.235 . S
C243 O270 1.289 . S
O244 C243 1.235 . S
C245 C247 1.400 . S
C245 N248 1.351 . S
C245 C250 1.501 . S
C246 C247 1.387 . S
C246 N249 1.341 . S
C247 C245 1.400 . S
C247 C246 1.387 . S
N248 Co239 2.022 . S
N248 C245 1.351 . S
N248 N249 1.365 . S
N249 C246 1.341 . S
N249 N248 1.365 . S
N249 H269 0.862 . S
C250 C245 1.501 . S
C250 H251 0.961 . S
C250 H252 0.961 . S
C250 H253 0.960 . S
H251 C250 0.961 . S
H252 C250 0.961 . S
H253 C250 0.960 . S
C254 N255 1.342 . S
C254 C258 1.401 . S
C254 C259 1.499 . S
N255 Co238 1.989 . S
N255 C254 1.342 . S
N255 N256 1.388 . S
N256 Co239 1.993 . S
N256 N255 1.388 . S
N256 C257 1.346 . S
C257 N256 1.346 . S
C257 C258 1.396 . S
C257 C267 1.510 . S
C258 C254 1.401 . S
C258 C257 1.396 . S
C259 C254 1.499 . S
C259 H260 0.959 . S
C259 H261 0.960 . S
C259 H262 0.961 . S
H260 C259 0.959 . S
H261 C259 0.960 . S
H262 C259 0.961 . S
O263 Co238 1.967 . S
O263 C271 1.258 . S
O264 Co239 1.941 . S
O264 C271 1.266 . S
H265 C267 0.959 . S
H266 C267 0.961 . S
C267 C257 1.510 . S
C267 H265 0.959 . S
C267 H266 0.961 . S
C267 H268 0.960 . S
H268 C267 0.960 . S
H269 N249 0.862 . S
O270 Co238 1.920 . S
O270 C243 1.289 . S
C271 O263 1.258 . S
C271 O264 1.266 . S
Co272 O275 1.970 . S
Co272 N289 1.989 . S
Co272 O297 1.967 . S
Co272 O304 1.920 . S
Co273 O276 1.966 . S
Co273 N282 2.022 . S
Co273 N290 1.993 . S
Co273 O298 1.941 . S
C274 O275 1.258 . S
C274 O276 1.263 . S
O275 Co272 1.970 . S
O275 C274 1.258 . S
O276 Co273 1.966 . S
O276 C274 1.263 . S
C277 O278 1.235 . S
C277 O304 1.289 . S
O278 C277 1.235 . S
C279 C281 1.400 . S
C279 N282 1.351 . S
C279 C284 1.501 . S
C280 C281 1.387 . S
C280 N283 1.341 . S
C281 C279 1.400 . S
C281 C280 1.387 . S
N282 Co273 2.022 . S
N282 C279 1.351 . S
N282 N283 1.365 . S
N283 C280 1.341 . S
N283 N282 1.365 . S
N283 H303 0.862 . S
C284 C279 1.501 . S
C284 H285 0.961 . S
C284 H286 0.961 . S
C284 H287 0.960 . S
H285 C284 0.961 . S
H286 C284 0.961 . S
H287 C284 0.960 . S
C288 N289 1.342 . S
C288 C292 1.401 . S
C288 C293 1.499 . S
N289 Co272 1.989 . S
N289 C288 1.342 . S
N289 N290 1.388 . S
N290 Co273 1.993 . S
N290 N289 1.388 . S
N290 C291 1.346 . S
C291 N290 1.346 . S
C291 C292 1.396 . S
C291 C301 1.510 . S
C292 C288 1.401 . S
C292 C291 1.396 . S
C293 C288 1.499 . S
C293 H294 0.959 . S
C293 H295 0.960 . S
C293 H296 0.961 . S
H294 C293 0.959 . S
H295 C293 0.960 . S
H296 C293 0.961 . S
O297 Co272 1.967 . S
O297 C305 1.258 . S
O298 Co273 1.941 . S
O298 C305 1.266 . S
H299 C301 0.959 . S
H300 C301 0.961 . S
C301 C291 1.510 . S
C301 H299 0.959 . S
C301 H300 0.961 . S
C301 H302 0.960 . S
H302 C301 0.960 . S
H303 N283 0.862 . S
O304 Co272 1.920 . S
O304 C277 1.289 . S
C305 O297 1.258 . S
C305 O298 1.266 . S
Co306 O309 1.970 . S
Co306 N323 1.989 . S
Co306 O331 1.967 . S
Co306 O338 1.920 . S
Co307 O310 1.966 . S
Co307 N316 2.022 . S
Co307 N324 1.993 . S
Co307 O332 1.941 . S
C308 O309 1.258 . S
C308 O310 1.263 . S
O309 Co306 1.970 . S
O309 C308 1.258 . S
O310 Co307 1.966 . S
O310 C308 1.263 . S
C311 O312 1.235 . S
C311 O338 1.289 . S
O312 C311 1.235 . S
C313 C315 1.400 . S
C313 N316 1.351 . S
C313 C318 1.501 . S
C314 C315 1.387 . S
C314 N317 1.341 . S
C315 C313 1.400 . S
C315 C314 1.387 . S
N316 Co307 2.022 . S
N316 C313 1.351 . S
N316 N317 1.365 . S
N317 C314 1.341 . S
N317 N316 1.365 . S
N317 H337 0.862 . S
C318 C313 1.501 . S
C318 H319 0.961 . S
C318 H320 0.961 . S
C318 H321 0.960 . S
H319 C318 0.961 . S
H320 C318 0.961 . S
H321 C318 0.960 . S
C322 N323 1.342 . S
C322 C326 1.401 . S
C322 C327 1.499 . S
N323 Co306 1.989 . S
N323 C322 1.342 . S
N323 N324 1.388 . S
N324 Co307 1.993 . S
N324 N323 1.388 . S
N324 C325 1.346 . S
C325 N324 1.346 . S
C325 C326 1.396 . S
C325 C335 1.510 . S
C326 C322 1.401 . S
C326 C325 1.396 . S
C327 C322 1.499 . S
C327 H328 0.959 . S
C327 H329 0.960 . S
C327 H330 0.961 . S
H328 C327 0.959 . S
H329 C327 0.960 . S
H330 C327 0.961 . S
O331 Co306 1.967 . S
O331 C339 1.258 . S
O332 Co307 1.941 . S
O332 C339 1.266 . S
H333 C335 0.959 . S
H334 C335 0.961 . S
C335 C325 1.510 . S
C335 H333 0.959 . S
C335 H334 0.961 . S
C335 H336 0.960 . S
H336 C335 0.960 . S
H337 N317 0.862 . S
O338 Co306 1.920 . S
O338 C311 1.289 . S
C339 O331 1.258 . S
C339 O332 1.266 . S
Co340 O343 1.970 . S
Co340 N357 1.989 . S
Co340 O365 1.967 . S
Co340 O372 1.920 . S
Co341 O344 1.966 . S
Co341 N350 2.022 . S
Co341 N358 1.993 . S
Co341 O366 1.941 . S
C342 O343 1.258 . S
C342 O344 1.263 . S
O343 Co340 1.970 . S
O343 C342 1.258 . S
O344 Co341 1.966 . S
O344 C342 1.263 . S
C345 O346 1.235 . S
C345 O372 1.289 . S
O346 C345 1.235 . S
C347 C349 1.400 . S
C347 N350 1.351 . S
C347 C352 1.501 . S
C348 C349 1.387 . S
C348 N351 1.341 . S
C349 C347 1.400 . S
C349 C348 1.387 . S
N350 Co341 2.022 . S
N350 C347 1.351 . S
N350 N351 1.365 . S
N351 C348 1.341 . S
N351 N350 1.365 . S
N351 H371 0.862 . S
C352 C347 1.501 . S
C352 H353 0.961 . S
C352 H354 0.961 . S
C352 H355 0.960 . S
H353 C352 0.961 . S
H354 C352 0.961 . S
H355 C352 0.960 . S
C356 N357 1.342 . S
C356 C360 1.401 . S
C356 C361 1.499 . S
N357 Co340 1.989 . S
N357 C356 1.342 . S
N357 N358 1.388 . S
N358 Co341 1.993 . S
N358 N357 1.388 . S
N358 C359 1.346 . S
C359 N358 1.346 . S
C359 C360 1.396 . S
C359 C369 1.510 . S
C360 C356 1.401 . S
C360 C359 1.396 . S
C361 C356 1.499 . S
C361 H362 0.959 . S
C361 H363 0.960 . S
C361 H364 0.961 . S
H362 C361 0.959 . S
H363 C361 0.960 . S
H364 C361 0.961 . S
O365 Co340 1.967 . S
O365 C373 1.258 . S
O366 Co341 1.941 . S
O366 C373 1.266 . S
H367 C369 0.959 . S
H368 C369 0.961 . S
C369 C359 1.510 . S
C369 H367 0.959 . S
C369 H368 0.961 . S
C369 H370 0.960 . S
H370 C369 0.960 . S
H371 N351 0.862 . S
O372 Co340 1.920 . S
O372 C345 1.289 . S
C373 O365 1.258 . S
C373 O366 1.266 . S
Co374 O377 1.970 . S
Co374 N391 1.989 . S
Co374 O399 1.967 . S
Co374 O406 1.920 . S
Co375 O378 1.966 . S
Co375 N384 2.022 . S
Co375 N392 1.993 . S
Co375 O400 1.941 . S
C376 O377 1.258 . S
C376 O378 1.263 . S
O377 Co374 1.970 . S
O377 C376 1.258 . S
O378 Co375 1.966 . S
O378 C376 1.263 . S
C379 O380 1.235 . S
C379 O406 1.289 . S
O380 C379 1.235 . S
C381 C383 1.400 . S
C381 N384 1.351 . S
C381 C386 1.501 . S
C382 C383 1.387 . S
C382 N385 1.341 . S
C383 C381 1.400 . S
C383 C382 1.387 . S
N384 Co375 2.022 . S
N384 C381 1.351 . S
N384 N385 1.365 . S
N385 C382 1.341 . S
N385 N384 1.365 . S
N385 H405 0.862 . S
C386 C381 1.501 . S
C386 H387 0.961 . S
C386 H388 0.961 . S
C386 H389 0.960 . S
H387 C386 0.961 . S
H388 C386 0.961 . S
H389 C386 0.960 . S
C390 N391 1.342 . S
C390 C394 1.401 . S
C390 C395 1.499 . S
N391 Co374 1.989 . S
N391 C390 1.342 . S
N391 N392 1.388 . S
N392 Co375 1.993 . S
N392 N391 1.388 . S
N392 C393 1.346 . S
C393 N392 1.346 . S
C393 C394 1.396 . S
C393 C403 1.510 . S
C394 C390 1.401 . S
C394 C393 1.396 . S
C395 C390 1.499 . S
C395 H396 0.959 . S
C395 H397 0.960 . S
C395 H398 0.961 . S
H396 C395 0.959 . S
H397 C395 0.960 . S
H398 C395 0.961 . S
O399 Co374 1.967 . S
O399 C407 1.258 . S
O400 Co375 1.941 . S
O400 C407 1.266 . S
H401 C403 0.959 . S
H402 C403 0.961 . S
C403 C393 1.510 . S
C403 H401 0.959 . S
C403 H402 0.961 . S
C403 H404 0.960 . S
H404 C403 0.960 . S
H405 N385 0.862 . S
O406 Co374 1.920 . S
O406 C379 1.289 . S
C407 O399 1.258 . S
C407 O400 1.266 . S
H408 C416 0.929 . S
H409 C418 0.930 . S
H410 C420 0.930 . S
H411 C423 0.929 . S
H412 C426 0.930 . S
H413 C428 0.960 . S
H414 C428 0.960 . S
H415 C428 0.960 . S
C416 H408 0.929 . S
C416 C417 1.377 . S
C416 C418 1.384 . S
C417 C416 1.377 . S
C417 C423 1.390 . S
C418 H409 0.930 . S
C418 C416 1.384 . S
C418 C419 1.372 . S
C419 C418 1.372 . S
C419 C420 1.400 . S
C419 C424 1.490 . S
C420 H410 0.930 . S
C420 C419 1.400 . S
C420 C423 1.386 . S
H421 C437 0.930 . S
H422 C438 0.931 . S
C423 H411 0.929 . S
C423 C417 1.390 . S
C423 C420 1.386 . S
C424 C419 1.490 . S
C424 C426 1.395 . S
C424 C427 1.403 . S
H425 C431 0.930 . S
C426 H412 0.930 . S
C426 C424 1.395 . S
C426 C429 1.403 . S
C427 C424 1.403 . S
C427 C428 1.524 . S
C427 C431 1.400 . S
C428 H413 0.960 . S
C428 H414 0.960 . S
C428 H415 0.960 . S
C428 C427 1.524 . S
C429 C426 1.403 . S
C429 C430 1.392 . S
C429 C433 1.495 . S
C430 C429 1.392 . S
C430 C431 1.385 . S
C430 C432 1.478 . S
C431 H425 0.930 . S
C431 C427 1.400 . S
C431 C430 1.385 . S
C432 C430 1.478 . S
C432 C434 1.381 . S
C432 C438 1.383 . S
C433 C429 1.495 . S
C433 H439 0.959 . S
C433 H440 0.961 . S
C433 H441 0.960 . S
C434 C432 1.381 . S
C434 C435 1.394 . S
C434 H442 0.930 . S
C435 C434 1.394 . S
C435 C436 1.383 . S
C435 H443 0.929 . S
C436 C435 1.383 . S
C436 C437 1.377 . S
C437 H421 0.930 . S
C437 C436 1.377 . S
C437 C438 1.379 . S
C438 H422 0.931 . S
C438 C432 1.383 . S
C438 C437 1.379 . S
H439 C433 0.959 . S
H440 C433 0.961 . S
H441 C433 0.960 . S
H442 C434 0.930 . S
H443 C435 0.929 . S
H444 C452 0.929 . S
H445 C454 0.930 . S
H446 C456 0.930 . S
H447 C459 0.929 . S
H448 C462 0.930 . S
H449 C464 0.960 . S
H450 C464 0.960 . S
H451 C464 0.960 . S
C452 H444 0.929 . S
C452 C453 1.377 . S
C452 C454 1.384 . S
C453 C452 1.377 . S
C453 C459 1.390 . S
C454 H445 0.930 . S
C454 C452 1.384 . S
C454 C455 1.372 . S
C455 C454 1.372 . S
C455 C456 1.400 . S
C455 C460 1.490 . S
C456 H446 0.930 . S
C456 C455 1.400 . S
C456 C459 1.386 . S
H457 C473 0.930 . S
H458 C474 0.931 . S
C459 H447 0.929 . S
C459 C453 1.390 . S
C459 C456 1.386 . S
C460 C455 1.490 . S
C460 C462 1.395 . S
C460 C463 1.403 . S
H461 C467 0.930 . S
C462 H448 0.930 . S
C462 C460 1.395 . S
C462 C465 1.403 . S
C463 C460 1.403 . S
C463 C464 1.524 . S
C463 C467 1.400 . S
C464 H449 0.960 . S
C464 H450 0.960 . S
C464 H451 0.960 . S
C464 C463 1.524 . S
C465 C462 1.403 . S
C465 C466 1.392 . S
C465 C469 1.495 . S
C466 C465 1.392 . S
C466 C467 1.385 . S
C466 C468 1.478 . S
C467 H461 0.930 . S
C467 C463 1.400 . S
C467 C466 1.385 . S
C468 C466 1.478 . S
C468 C470 1.381 . S
C468 C474 1.383 . S
C469 C465 1.495 . S
C469 H475 0.959 . S
C469 H476 0.961 . S
C469 H477 0.960 . S
C470 C468 1.381 . S
C470 C471 1.394 . S
C470 H478 0.930 . S
C471 C470 1.394 . S
C471 C472 1.383 . S
C471 H479 0.929 . S
C472 C471 1.383 . S
C472 C473 1.377 . S
C473 H457 0.930 . S
C473 C472 1.377 . S
C473 C474 1.379 . S
C474 H458 0.931 . S
C474 C468 1.383 . S
C474 C473 1.379 . S
H475 C469 0.959 . S
H476 C469 0.961 . S
H477 C469 0.960 . S
H478 C470 0.930 . S
H479 C471 0.929 . S
H480 C488 0.929 . S
H481 C490 0.930 . S
H482 C492 0.930 . S
H483 C495 0.929 . S
H484 C498 0.930 . S
H485 C500 0.960 . S
H486 C500 0.960 . S
H487 C500 0.960 . S
C488 H480 0.929 . S
C488 C489 1.377 . S
C488 C490 1.384 . S
C489 C488 1.377 . S
C489 C495 1.390 . S
C490 H481 0.930 . S
C490 C488 1.384 . S
C490 C491 1.372 . S
C491 C490 1.372 . S
C491 C492 1.400 . S
C491 C496 1.490 . S
C492 H482 0.930 . S
C492 C491 1.400 . S
C492 C495 1.386 . S
H493 C509 0.930 . S
H494 C510 0.931 . S
C495 H483 0.929 . S
C495 C489 1.390 . S
C495 C492 1.386 . S
C496 C491 1.490 . S
C496 C498 1.395 . S
C496 C499 1.403 . S
H497 C503 0.930 . S
C498 H484 0.930 . S
C498 C496 1.395 . S
C498 C501 1.403 . S
C499 C496 1.403 . S
C499 C500 1.524 . S
C499 C503 1.400 . S
C500 H485 0.960 . S
C500 H486 0.960 . S
C500 H487 0.960 . S
C500 C499 1.524 . S
C501 C498 1.403 . S
C501 C502 1.392 . S
C501 C505 1.495 . S
C502 C501 1.392 . S
C502 C503 1.385 . S
C502 C504 1.478 . S
C503 H497 0.930 . S
C503 C499 1.400 . S
C503 C502 1.385 . S
C504 C502 1.478 . S
C504 C506 1.381 . S
C504 C510 1.383 . S
C505 C501 1.495 . S
C505 H511 0.959 . S
C505 H512 0.961 . S
C505 H513 0.960 . S
C506 C504 1.381 . S
C506 C507 1.394 . S
C506 H514 0.930 . S
C507 C506 1.394 . S
C507 C508 1.383 . S
C507 H515 0.929 . S
C508 C507 1.383 . S
C508 C509 1.377 . S
C509 H493 0.930 . S
C509 C508 1.377 . S
C509 C510 1.379 . S
C510 H494 0.931 . S
C510 C504 1.383 . S
C510 C509 1.379 . S
H511 C505 0.959 . S
H512 C505 0.961 . S
H513 C505 0.960 . S
H514 C506 0.930 . S
H515 C507 0.929 . S
H516 C524 0.929 . S
H517 C526 0.930 . S
H518 C528 0.930 . S
H519 C531 0.929 . S
H520 C534 0.930 . S
H521 C536 0.960 . S
H522 C536 0.960 . S
H523 C536 0.960 . S
C524 H516 0.929 . S
C524 C525 1.377 . S
C524 C526 1.384 . S
C525 C524 1.377 . S
C525 C531 1.390 . S
C526 H517 0.930 . S
C526 C524 1.384 . S
C526 C527 1.372 . S
C527 C526 1.372 . S
C527 C528 1.400 . S
C527 C532 1.490 . S
C528 H518 0.930 . S
C528 C527 1.400 . S
C528 C531 1.386 . S
H529 C545 0.930 . S
H530 C546 0.931 . S
C531 H519 0.929 . S
C531 C525 1.390 . S
C531 C528 1.386 . S
C532 C527 1.490 . S
C532 C534 1.395 . S
C532 C535 1.403 . S
H533 C539 0.930 . S
C534 H520 0.930 . S
C534 C532 1.395 . S
C534 C537 1.403 . S
C535 C532 1.403 . S
C535 C536 1.524 . S
C535 C539 1.400 . S
C536 H521 0.960 . S
C536 H522 0.960 . S
C536 H523 0.960 . S
C536 C535 1.524 . S
C537 C534 1.403 . S
C537 C538 1.392 . S
C537 C541 1.495 . S
C538 C537 1.392 . S
C538 C539 1.385 . S
C538 C540 1.478 . S
C539 H533 0.930 . S
C539 C535 1.400 . S
C539 C538 1.385 . S
C540 C538 1.478 . S
C540 C542 1.381 . S
C540 C546 1.383 . S
C541 C537 1.495 . S
C541 H547 0.959 . S
C541 H548 0.961 . S
C541 H549 0.960 . S
C542 C540 1.381 . S
C542 C543 1.394 . S
C542 H550 0.930 . S
C543 C542 1.394 . S
C543 C544 1.383 . S
C543 H551 0.929 . S
C544 C543 1.383 . S
C544 C545 1.377 . S
C545 H529 0.930 . S
C545 C544 1.377 . S
C545 C546 1.379 . S
C546 H530 0.931 . S
C546 C540 1.383 . S
C546 C545 1.379 . S
H547 C541 0.959 . S
H548 C541 0.961 . S
H549 C541 0.960 . S
H550 C542 0.930 . S
H551 C543 0.929 . S
H552 C560 0.929 . S
H553 C562 0.930 . S
H554 C564 0.930 . S
H555 C567 0.929 . S
H556 C570 0.930 . S
H557 C572 0.960 . S
H558 C572 0.960 . S
H559 C572 0.960 . S
C560 H552 0.929 . S
C560 C561 1.377 . S
C560 C562 1.384 . S
C561 C560 1.377 . S
C561 C567 1.390 . S
C562 H553 0.930 . S
C562 C560 1.384 . S
C562 C563 1.372 . S
C563 C562 1.372 . S
C563 C564 1.400 . S
C563 C568 1.490 . S
C564 H554 0.930 . S
C564 C563 1.400 . S
C564 C567 1.386 . S
H565 C581 0.930 . S
H566 C582 0.931 . S
C567 H555 0.929 . S
C567 C561 1.390 . S
C567 C564 1.386 . S
C568 C563 1.490 . S
C568 C570 1.395 . S
C568 C571 1.403 . S
H569 C575 0.930 . S
C570 H556 0.930 . S
C570 C568 1.395 . S
C570 C573 1.403 . S
C571 C568 1.403 . S
C571 C572 1.524 . S
C571 C575 1.400 . S
C572 H557 0.960 . S
C572 H558 0.960 . S
C572 H559 0.960 . S
C572 C571 1.524 . S
C573 C570 1.403 . S
C573 C574 1.392 . S
C573 C577 1.495 . S
C574 C573 1.392 . S
C574 C575 1.385 . S
C574 C576 1.478 . S
C575 H569 0.930 . S
C575 C571 1.400 . S
C575 C574 1.385 . S
C576 C574 1.478 . S
C576 C578 1.381 . S
C576 C582 1.383 . S
C577 C573 1.495 . S
C577 H583 0.959 . S
C577 H584 0.961 . S
C577 H585 0.960 . S
C578 C576 1.381 . S
C578 C579 1.394 . S
C578 H586 0.930 . S
C579 C578 1.394 . S
C579 C580 1.383 . S
C579 H587 0.929 . S
C580 C579 1.383 . S
C580 C581 1.377 . S
C581 H565 0.930 . S
C581 C580 1.377 . S
C581 C582 1.379 . S
C582 H566 0.931 . S
C582 C576 1.383 . S
C582 C581 1.379 . S
H583 C577 0.959 . S
H584 C577 0.961 . S
H585 C577 0.960 . S
H586 C578 0.930 . S
H587 C579 0.929 . S
H588 C596 0.929 . S
H589 C598 0.930 . S
H590 C600 0.930 . S
H591 C603 0.929 . S
H592 C606 0.930 . S
H593 C608 0.960 . S
H594 C608 0.960 . S
H595 C608 0.960 . S
C596 H588 0.929 . S
C596 C597 1.377 . S
C596 C598 1.384 . S
C597 C596 1.377 . S
C597 C603 1.390 . S
C598 H589 0.930 . S
C598 C596 1.384 . S
C598 C599 1.372 . S
C599 C598 1.372 . S
C599 C600 1.400 . S
C599 C604 1.490 . S
C600 H590 0.930 . S
C600 C599 1.400 . S
C600 C603 1.386 . S
H601 C617 0.930 . S
H602 C618 0.931 . S
C603 H591 0.929 . S
C603 C597 1.390 . S
C603 C600 1.386 . S
C604 C599 1.490 . S
C604 C606 1.395 . S
C604 C607 1.403 . S
H605 C611 0.930 . S
C606 H592 0.930 . S
C606 C604 1.395 . S
C606 C609 1.403 . S
C607 C604 1.403 . S
C607 C608 1.524 . S
C607 C611 1.400 . S
C608 H593 0.960 . S
C608 H594 0.960 . S
C608 H595 0.960 . S
C608 C607 1.524 . S
C609 C606 1.403 . S
C609 C610 1.392 . S
C609 C613 1.495 . S
C610 C609 1.392 . S
C610 C611 1.385 . S
C610 C612 1.478 . S
C611 H605 0.930 . S
C611 C607 1.400 . S
C611 C610 1.385 . S
C612 C610 1.478 . S
C612 C614 1.381 . S
C612 C618 1.383 . S
C613 C609 1.495 . S
C613 H619 0.959 . S
C613 H620 0.961 . S
C613 H621 0.960 . S
C614 C612 1.381 . S
C614 C615 1.394 . S
C614 H622 0.930 . S
C615 C614 1.394 . S
C615 C616 1.383 . S
C615 H623 0.929 . S
C616 C615 1.383 . S
C616 C617 1.377 . S
C617 H601 0.930 . S
C617 C616 1.377 . S
C617 C618 1.379 . S
C618 H602 0.931 . S
C618 C612 1.383 . S
C618 C617 1.379 . S
H619 C613 0.959 . S
H620 C613 0.961 . S
H621 C613 0.960 . S
H622 C614 0.930 . S
H623 C615 0.929 . S
H624 C632 0.929 . S
H625 C634 0.930 . S
H626 C636 0.930 . S
H627 C639 0.929 . S
H628 C642 0.930 . S
H629 C644 0.960 . S
H630 C644 0.960 . S
H631 C644 0.960 . S
C632 H624 0.929 . S
C632 C633 1.377 . S
C632 C634 1.384 . S
C633 C632 1.377 . S
C633 C639 1.390 . S
C634 H625 0.930 . S
C634 C632 1.384 . S
C634 C635 1.372 . S
C635 C634 1.372 . S
C635 C636 1.400 . S
C635 C640 1.490 . S
C636 H626 0.930 . S
C636 C635 1.400 . S
C636 C639 1.386 . S
H637 C653 0.930 . S
H638 C654 0.931 . S
C639 H627 0.929 . S
C639 C633 1.390 . S
C639 C636 1.386 . S
C640 C635 1.490 . S
C640 C642 1.395 . S
C640 C643 1.403 . S
H641 C647 0.930 . S
C642 H628 0.930 . S
C642 C640 1.395 . S
C642 C645 1.403 . S
C643 C640 1.403 . S
C643 C644 1.524 . S
C643 C647 1.400 . S
C644 H629 0.960 . S
C644 H630 0.960 . S
C644 H631 0.960 . S
C644 C643 1.524 . S
C645 C642 1.403 . S
C645 C646 1.392 . S
C645 C649 1.495 . S
C646 C645 1.392 . S
C646 C647 1.385 . S
C646 C648 1.478 . S
C647 H641 0.930 . S
C647 C643 1.400 . S
C647 C646 1.385 . S
C648 C646 1.478 . S
C648 C650 1.381 . S
C648 C654 1.383 . S
C649 C645 1.495 . S
C649 H655 0.959 . S
C649 H656 0.961 . S
C649 H657 0.960 . S
C650 C648 1.381 . S
C650 C651 1.394 . S
C650 H658 0.930 . S
C651 C650 1.394 . S
C651 C652 1.383 . S
C651 H659 0.929 . S
C652 C651 1.383 . S
C652 C653 1.377 . S
C653 H637 0.930 . S
C653 C652 1.377 . S
C653 C654 1.379 . S
C654 H638 0.931 . S
C654 C648 1.383 . S
C654 C653 1.379 . S
H655 C649 0.959 . S
H656 C649 0.961 . S
H657 C649 0.960 . S
H658 C650 0.930 . S
H659 C651 0.929 . S
H660 C668 0.929 . S
H661 C670 0.930 . S
H662 C672 0.930 . S
H663 C675 0.929 . S
H664 C678 0.930 . S
H665 C680 0.960 . S
H666 C680 0.960 . S
H667 C680 0.960 . S
C668 H660 0.929 . S
C668 C669 1.377 . S
C668 C670 1.384 . S
C669 C668 1.377 . S
C669 C675 1.390 . S
C670 H661 0.930 . S
C670 C668 1.384 . S
C670 C671 1.372 . S
C671 C670 1.372 . S
C671 C672 1.400 . S
C671 C676 1.490 . S
C672 H662 0.930 . S
C672 C671 1.400 . S
C672 C675 1.386 . S
H673 C689 0.930 . S
H674 C690 0.931 . S
C675 H663 0.929 . S
C675 C669 1.390 . S
C675 C672 1.386 . S
C676 C671 1.490 . S
C676 C678 1.395 . S
C676 C679 1.403 . S
H677 C683 0.930 . S
C678 H664 0.930 . S
C678 C676 1.395 . S
C678 C681 1.403 . S
C679 C676 1.403 . S
C679 C680 1.524 . S
C679 C683 1.400 . S
C680 H665 0.960 . S
C680 H666 0.960 . S
C680 H667 0.960 . S
C680 C679 1.524 . S
C681 C678 1.403 . S
C681 C682 1.392 . S
C681 C685 1.495 . S
C682 C681 1.392 . S
C682 C683 1.385 . S
C682 C684 1.478 . S
C683 H677 0.930 . S
C683 C679 1.400 . S
C683 C682 1.385 . S
C684 C682 1.478 . S
C684 C686 1.381 . S
C684 C690 1.383 . S
C685 C681 1.495 . S
C685 H691 0.959 . S
C685 H692 0.961 . S
C685 H693 0.960 . S
C686 C684 1.381 . S
C686 C687 1.394 . S
C686 H694 0.930 . S
C687 C686 1.394 . S
C687 C688 1.383 . S
C687 H695 0.929 . S
C688 C687 1.383 . S
C688 C689 1.377 . S
C689 H673 0.930 . S
C689 C688 1.377 . S
C689 C690 1.379 . S
C690 H674 0.931 . S
C690 C684 1.383 . S
C690 C689 1.379 . S
H691 C685 0.959 . S
H692 C685 0.961 . S
H693 C685 0.960 . S
H694 C686 0.930 . S
H695 C687 0.929 . S
H696 C704 0.929 . S
H697 C706 0.930 . S
H698 C708 0.930 . S
H699 C711 0.929 . S
H700 C714 0.930 . S
H701 C716 0.960 . S
H702 C716 0.960 . S
H703 C716 0.960 . S
C704 H696 0.929 . S
C704 C705 1.377 . S
C704 C706 1.384 . S
C705 C704 1.377 . S
C705 C711 1.390 . S
C706 H697 0.930 . S
C706 C704 1.384 . S
C706 C707 1.372 . S
C707 C706 1.372 . S
C707 C708 1.400 . S
C707 C712 1.490 . S
C708 H698 0.930 . S
C708 C707 1.400 . S
C708 C711 1.386 . S
H709 C725 0.930 . S
H710 C726 0.931 . S
C711 H699 0.929 . S
C711 C705 1.390 . S
C711 C708 1.386 . S
C712 C707 1.490 . S
C712 C714 1.395 . S
C712 C715 1.403 . S
H713 C719 0.930 . S
C714 H700 0.930 . S
C714 C712 1.395 . S
C714 C717 1.403 . S
C715 C712 1.403 . S
C715 C716 1.524 . S
C715 C719 1.400 . S
C716 H701 0.960 . S
C716 H702 0.960 . S
C716 H703 0.960 . S
C716 C715 1.524 . S
C717 C714 1.403 . S
C717 C718 1.392 . S
C717 C721 1.495 . S
C718 C717 1.392 . S
C718 C719 1.385 . S
C718 C720 1.478 . S
C719 H713 0.930 . S
C719 C715 1.400 . S
C719 C718 1.385 . S
C720 C718 1.478 . S
C720 C722 1.381 . S
C720 C726 1.383 . S
C721 C717 1.495 . S
C721 H727 0.959 . S
C721 H728 0.961 . S
C721 H729 0.960 . S
C722 C720 1.381 . S
C722 C723 1.394 . S
C722 H730 0.930 . S
C723 C722 1.394 . S
C723 C724 1.383 . S
C723 H731 0.929 . S
C724 C723 1.383 . S
C724 C725 1.377 . S
C725 H709 0.930 . S
C725 C724 1.377 . S
C725 C726 1.379 . S
C726 H710 0.931 . S
C726 C720 1.383 . S
C726 C725 1.379 . S
H727 C721 0.959 . S
H728 C721 0.961 . S
H729 C721 0.960 . S
H730 C722 0.930 . S
H731 C723 0.929 . S
H732 C740 0.929 . S
H733 C742 0.930 . S
H734 C744 0.930 . S
H735 C747 0.929 . S
H736 C750 0.930 . S
H737 C752 0.960 . S
H738 C752 0.960 . S
H739 C752 0.960 . S
C740 H732 0.929 . S
C740 C741 1.377 . S
C740 C742 1.384 . S
C741 C740 1.377 . S
C741 C747 1.390 . S
C742 H733 0.930 . S
C742 C740 1.384 . S
C742 C743 1.372 . S
C743 C742 1.372 . S
C743 C744 1.400 . S
C743 C748 1.490 . S
C744 H734 0.930 . S
C744 C743 1.400 . S
C744 C747 1.386 . S
H745 C761 0.930 . S
H746 C762 0.931 . S
C747 H735 0.929 . S
C747 C741 1.390 . S
C747 C744 1.386 . S
C748 C743 1.490 . S
C748 C750 1.395 . S
C748 C751 1.403 . S
H749 C755 0.930 . S
C750 H736 0.930 . S
C750 C748 1.395 . S
C750 C753 1.403 . S
C751 C748 1.403 . S
C751 C752 1.524 . S
C751 C755 1.400 . S
C752 H737 0.960 . S
C752 H738 0.960 . S
C752 H739 0.960 . S
C752 C751 1.524 . S
C753 C750 1.403 . S
C753 C754 1.392 . S
C753 C757 1.495 . S
C754 C753 1.392 . S
C754 C755 1.385 . S
C754 C756 1.478 . S
C755 H749 0.930 . S
C755 C751 1.400 . S
C755 C754 1.385 . S
C756 C754 1.478 . S
C756 C758 1.381 . S
C756 C762 1.383 . S
C757 C753 1.495 . S
C757 H763 0.959 . S
C757 H764 0.961 . S
C757 H765 0.960 . S
C758 C756 1.381 . S
C758 C759 1.394 . S
C758 H766 0.930 . S
C759 C758 1.394 . S
C759 C760 1.383 . S
C759 H767 0.929 . S
C760 C759 1.383 . S
C760 C761 1.377 . S
C761 H745 0.930 . S
C761 C760 1.377 . S
C761 C762 1.379 . S
C762 H746 0.931 . S
C762 C756 1.383 . S
C762 C761 1.379 . S
H763 C757 0.959 . S
H764 C757 0.961 . S
H765 C757 0.960 . S
H766 C758 0.930 . S
H767 C759 0.929 . S
H768 C776 0.929 . S
H769 C778 0.930 . S
H770 C780 0.930 . S
H771 C783 0.929 . S
H772 C786 0.930 . S
H773 C788 0.960 . S
H774 C788 0.960 . S
H775 C788 0.960 . S
C776 H768 0.929 . S
C776 C777 1.377 . S
C776 C778 1.384 . S
C777 C776 1.377 . S
C777 C783 1.390 . S
C778 H769 0.930 . S
C778 C776 1.384 . S
C778 C779 1.372 . S
C779 C778 1.372 . S
C779 C780 1.400 . S
C779 C784 1.490 . S
C780 H770 0.930 . S
C780 C779 1.400 . S
C780 C783 1.386 . S
H781 C797 0.930 . S
H782 C798 0.931 . S
C783 H771 0.929 . S
C783 C777 1.390 . S
C783 C780 1.386 . S
C784 C779 1.490 . S
C784 C786 1.395 . S
C784 C787 1.403 . S
H785 C791 0.930 . S
C786 H772 0.930 . S
C786 C784 1.395 . S
C786 C789 1.403 . S
C787 C784 1.403 . S
C787 C788 1.524 . S
C787 C791 1.400 . S
C788 H773 0.960 . S
C788 H774 0.960 . S
C788 H775 0.960 . S
C788 C787 1.524 . S
C789 C786 1.403 . S
C789 C790 1.392 . S
C789 C793 1.495 . S
C790 C789 1.392 . S
C790 C791 1.385 . S
C790 C792 1.478 . S
C791 H785 0.930 . S
C791 C787 1.400 . S
C791 C790 1.385 . S
C792 C790 1.478 . S
C792 C794 1.381 . S
C792 C798 1.383 . S
C793 C789 1.495 . S
C793 H799 0.959 . S
C793 H800 0.961 . S
C793 H801 0.960 . S
C794 C792 1.381 . S
C794 C795 1.394 . S
C794 H802 0.930 . S
C795 C794 1.394 . S
C795 C796 1.383 . S
C795 H803 0.929 . S
C796 C795 1.383 . S
C796 C797 1.377 . S
C797 H781 0.930 . S
C797 C796 1.377 . S
C797 C798 1.379 . S
C798 H782 0.931 . S
C798 C792 1.383 . S
C798 C797 1.379 . S
H799 C793 0.959 . S
H800 C793 0.961 . S
H801 C793 0.960 . S
H802 C794 0.930 . S
H803 C795 0.929 . S
H804 C812 0.929 . S
H805 C814 0.930 . S
H806 C816 0.930 . S
H807 C819 0.929 . S
H808 C822 0.930 . S
H809 C824 0.960 . S
H810 C824 0.960 . S
H811 C824 0.960 . S
C812 H804 0.929 . S
C812 C813 1.377 . S
C812 C814 1.384 . S
C813 C812 1.377 . S
C813 C819 1.390 . S
C814 H805 0.930 . S
C814 C812 1.384 . S
C814 C815 1.372 . S
C815 C814 1.372 . S
C815 C816 1.400 . S
C815 C820 1.490 . S
C816 H806 0.930 . S
C816 C815 1.400 . S
C816 C819 1.386 . S
H817 C833 0.930 . S
H818 C834 0.931 . S
C819 H807 0.929 . S
C819 C813 1.390 . S
C819 C816 1.386 . S
C820 C815 1.490 . S
C820 C822 1.395 . S
C820 C823 1.403 . S
H821 C827 0.930 . S
C822 H808 0.930 . S
C822 C820 1.395 . S
C822 C825 1.403 . S
C823 C820 1.403 . S
C823 C824 1.524 . S
C823 C827 1.400 . S
C824 H809 0.960 . S
C824 H810 0.960 . S
C824 H811 0.960 . S
C824 C823 1.524 . S
C825 C822 1.403 . S
C825 C826 1.392 . S
C825 C829 1.495 . S
C826 C825 1.392 . S
C826 C827 1.385 . S
C826 C828 1.478 . S
C827 H821 0.930 . S
C827 C823 1.400 . S
C827 C826 1.385 . S
C828 C826 1.478 . S
C828 C830 1.381 . S
C828 C834 1.383 . S
C829 C825 1.495 . S
C829 H835 0.959 . S
C829 H836 0.961 . S
C829 H837 0.960 . S
C830 C828 1.381 . S
C830 C831 1.394 . S
C830 H838 0.930 . S
C831 C830 1.394 . S
C831 C832 1.383 . S
C831 H839 0.929 . S
C832 C831 1.383 . S
C832 C833 1.377 . S
C833 H817 0.930 . S
C833 C832 1.377 . S
C833 C834 1.379 . S
C834 H818 0.931 . S
C834 C828 1.383 . S
C834 C833 1.379 . S
H835 C829 0.959 . S
H836 C829 0.961 . S
H837 C829 0.960 . S
H838 C830 0.930 . S
H839 C831 0.929 . S
H840 C848 0.929 . S
H841 C850 0.930 . S
H842 C852 0.930 . S
H843 C855 0.929 . S
H844 C858 0.930 . S
H845 C860 0.960 . S
H846 C860 0.960 . S
H847 C860 0.960 . S
C848 H840 0.929 . S
C848 C849 1.377 . S
C848 C850 1.384 . S
C849 C848 1.377 . S
C849 C855 1.390 . S
C850 H841 0.930 . S
C850 C848 1.384 . S
C850 C851 1.372 . S
C851 C850 1.372 . S
C851 C852 1.400 . S
C851 C856 1.490 . S
C852 H842 0.930 . S
C852 C851 1.400 . S
C852 C855 1.386 . S
H853 C869 0.930 . S
H854 C870 0.931 . S
C855 H843 0.929 . S
C855 C849 1.390 . S
C855 C852 1.386 . S
C856 C851 1.490 . S
C856 C858 1.395 . S
C856 C859 1.403 . S
H857 C863 0.930 . S
C858 H844 0.930 . S
C858 C856 1.395 . S
C858 C861 1.403 . S
C859 C856 1.403 . S
C859 C860 1.524 . S
C859 C863 1.400 . S
C860 H845 0.960 . S
C860 H846 0.960 . S
C860 H847 0.960 . S
C860 C859 1.524 . S
C861 C858 1.403 . S
C861 C862 1.392 . S
C861 C865 1.495 . S
C862 C861 1.392 . S
C862 C863 1.385 . S
C862 C864 1.478 . S
C863 H857 0.930 . S
C863 C859 1.400 . S
C863 C862 1.385 . S
C864 C862 1.478 . S
C864 C866 1.381 . S
C864 C870 1.383 . S
C865 C861 1.495 . S
C865 H871 0.959 . S
C865 H872 0.961 . S
C865 H873 0.960 . S
C866 C864 1.381 . S
C866 C867 1.394 . S
C866 H874 0.930 . S
C867 C866 1.394 . S
C867 C868 1.383 . S
C867 H875 0.929 . S
C868 C867 1.383 . S
C868 C869 1.377 . S
C869 H853 0.930 . S
C869 C868 1.377 . S
C869 C870 1.379 . S
C870 H854 0.931 . S
C870 C864 1.383 . S
C870 C869 1.379 . S
H871 C865 0.959 . S
H872 C865 0.961 . S
H873 C865 0.960 . S
H874 C866 0.930 . S
H875 C867 0.929 . S
H876 C884 0.929 . S
H877 C886 0.930 . S
H878 C888 0.930 . S
H879 C891 0.929 . S
H880 C894 0.930 . S
H881 C896 0.960 . S
H882 C896 0.960 . S
H883 C896 0.960 . S
C884 H876 0.929 . S
C884 C885 1.377 . S
C884 C886 1.384 . S
C885 C884 1.377 . S
C885 C891 1.390 . S
C886 H877 0.930 . S
C886 C884 1.384 . S
C886 C887 1.372 . S
C887 C886 1.372 . S
C887 C888 1.400 . S
C887 C892 1.490 . S
C888 H878 0.930 . S
C888 C887 1.400 . S
C888 C891 1.386 . S
H889 C905 0.930 . S
H890 C906 0.931 . S
C891 H879 0.929 . S
C891 C885 1.390 . S
C891 C888 1.386 . S
C892 C887 1.490 . S
C892 C894 1.395 . S
C892 C895 1.403 . S
H893 C899 0.930 . S
C894 H880 0.930 . S
C894 C892 1.395 . S
C894 C897 1.403 . S
C895 C892 1.403 . S
C895 C896 1.524 . S
C895 C899 1.400 . S
C896 H881 0.960 . S
C896 H882 0.960 . S
C896 H883 0.960 . S
C896 C895 1.524 . S
C897 C894 1.403 . S
C897 C898 1.392 . S
C897 C901 1.495 . S
C898 C897 1.392 . S
C898 C899 1.385 . S
C898 C900 1.478 . S
C899 H893 0.930 . S
C899 C895 1.400 . S
C899 C898 1.385 . S
C900 C898 1.478 . S
C900 C902 1.381 . S
C900 C906 1.383 . S
C901 C897 1.495 . S
C901 H907 0.959 . S
C901 H908 0.961 . S
C901 H909 0.960 . S
C902 C900 1.381 . S
C902 C903 1.394 . S
C902 H910 0.930 . S
C903 C902 1.394 . S
C903 C904 1.383 . S
C903 H911 0.929 . S
C904 C903 1.383 . S
C904 C905 1.377 . S
C905 H889 0.930 . S
C905 C904 1.377 . S
C905 C906 1.379 . S
C906 H890 0.931 . S
C906 C900 1.383 . S
C906 C905 1.379 . S
H907 C901 0.959 . S
H908 C901 0.961 . S
H909 C901 0.960 . S
H910 C902 0.930 . S
H911 C903 0.929 . S
H912 C920 0.929 . S
H913 C922 0.930 . S
H914 C924 0.930 . S
H915 C927 0.929 . S
H916 C930 0.930 . S
H917 C932 0.960 . S
H918 C932 0.960 . S
H919 C932 0.960 . S
C920 H912 0.929 . S
C920 C921 1.377 . S
C920 C922 1.384 . S
C921 C920 1.377 . S
C921 C927 1.390 . S
C922 H913 0.930 . S
C922 C920 1.384 . S
C922 C923 1.372 . S
C923 C922 1.372 . S
C923 C924 1.400 . S
C923 C928 1.490 . S
C924 H914 0.930 . S
C924 C923 1.400 . S
C924 C927 1.386 . S
H925 C941 0.930 . S
H926 C942 0.931 . S
C927 H915 0.929 . S
C927 C921 1.390 . S
C927 C924 1.386 . S
C928 C923 1.490 . S
C928 C930 1.395 . S
C928 C931 1.403 . S
H929 C935 0.930 . S
C930 H916 0.930 . S
C930 C928 1.395 . S
C930 C933 1.403 . S
C931 C928 1.403 . S
C931 C932 1.524 . S
C931 C935 1.400 . S
C932 H917 0.960 . S
C932 H918 0.960 . S
C932 H919 0.960 . S
C932 C931 1.524 . S
C933 C930 1.403 . S
C933 C934 1.392 . S
C933 C937 1.495 . S
C934 C933 1.392 . S
C934 C935 1.385 . S
C934 C936 1.478 . S
C935 H929 0.930 . S
C935 C931 1.400 . S
C935 C934 1.385 . S
C936 C934 1.478 . S
C936 C938 1.381 . S
C936 C942 1.383 . S
C937 C933 1.495 . S
C937 H943 0.959 . S
C937 H944 0.961 . S
C937 H945 0.960 . S
C938 C936 1.381 . S
C938 C939 1.394 . S
C938 H946 0.930 . S
C939 C938 1.394 . S
C939 C940 1.383 . S
C939 H947 0.929 . S
C940 C939 1.383 . S
C940 C941 1.377 . S
C941 H925 0.930 . S
C941 C940 1.377 . S
C941 C942 1.379 . S
C942 H926 0.931 . S
C942 C936 1.383 . S
C942 C941 1.379 . S
H943 C937 0.959 . S
H944 C937 0.961 . S
H945 C937 0.960 . S
H946 C938 0.930 . S
H947 C939 0.929 . S
H948 C956 0.929 . S
H949 C958 0.930 . S
H950 C960 0.930 . S
H951 C963 0.929 . S
H952 C966 0.930 . S
H953 C968 0.960 . S
H954 C968 0.960 . S
H955 C968 0.960 . S
C956 H948 0.929 . S
C956 C957 1.377 . S
C956 C958 1.384 . S
C957 C956 1.377 . S
C957 C963 1.390 . S
C958 H949 0.930 . S
C958 C956 1.384 . S
C958 C959 1.372 . S
C959 C958 1.372 . S
C959 C960 1.400 . S
C959 C964 1.490 . S
C960 H950 0.930 . S
C960 C959 1.400 . S
C960 C963 1.386 . S
H961 C977 0.930 . S
H962 C978 0.931 . S
C963 H951 0.929 . S
C963 C957 1.390 . S
C963 C960 1.386 . S
C964 C959 1.490 . S
C964 C966 1.395 . S
C964 C967 1.403 . S
H965 C971 0.930 . S
C966 H952 0.930 . S
C966 C964 1.395 . S
C966 C969 1.403 . S
C967 C964 1.403 . S
C967 C968 1.524 . S
C967 C971 1.400 . S
C968 H953 0.960 . S
C968 H954 0.960 . S
C968 H955 0.960 . S
C968 C967 1.524 . S
C969 C966 1.403 . S
C969 C970 1.392 . S
C969 C973 1.495 . S
C970 C969 1.392 . S
C970 C971 1.385 . S
C970 C972 1.478 . S
C971 H965 0.930 . S
C971 C967 1.400 . S
C971 C970 1.385 . S
C972 C970 1.478 . S
C972 C974 1.381 . S
C972 C978 1.383 . S
C973 C969 1.495 . S
C973 H979 0.959 . S
C973 H980 0.961 . S
C973 H981 0.960 . S
C974 C972 1.381 . S
C974 C975 1.394 . S
C974 H982 0.930 . S
C975 C974 1.394 . S
C975 C976 1.383 . S
C975 H983 0.929 . S
C976 C975 1.383 . S
C976 C977 1.377 . S
C977 H961 0.930 . S
C977 C976 1.377 . S
C977 C978 1.379 . S
C978 H962 0.931 . S
C978 C972 1.383 . S
C978 C977 1.379 . S
H979 C973 0.959 . S
H980 C973 0.961 . S
H981 C973 0.960 . S
H982 C974 0.930 . S
H983 C975 0.929 . S
H984 C992 0.929 . S
H985 C994 0.930 . S
H986 C996 0.930 . S
H987 C999 0.929 . S
H988 C1002 0.930 . S
H989 C1004 0.960 . S
H990 C1004 0.960 . S
H991 C1004 0.960 . S
C992 H984 0.929 . S
C992 C993 1.377 . S
C992 C994 1.384 . S
C993 C992 1.377 . S
C993 C999 1.390 . S
C994 H985 0.930 . S
C994 C992 1.384 . S
C994 C995 1.372 . S
C995 C994 1.372 . S
C995 C996 1.400 . S
C995 C1000 1.490 . S
C996 H986 0.930 . S
C996 C995 1.400 . S
C996 C999 1.386 . S
H997 C1013 0.930 . S
H998 C1014 0.931 . S
C999 H987 0.929 . S
C999 C993 1.390 . S
C999 C996 1.386 . S
C1000 C995 1.490 . S
C1000 C1002 1.395 . S
C1000 C1003 1.403 . S
H1001 C1007 0.930 . S
C1002 H988 0.930 . S
C1002 C1000 1.395 . S
C1002 C1005 1.403 . S
C1003 C1000 1.403 . S
C1003 C1004 1.524 . S
C1003 C1007 1.400 . S
C1004 H989 0.960 . S
C1004 H990 0.960 . S
C1004 H991 0.960 . S
C1004 C1003 1.524 . S
C1005 C1002 1.403 . S
C1005 C1006 1.392 . S
C1005 C1009 1.495 . S
C1006 C1005 1.392 . S
C1006 C1007 1.385 . S
C1006 C1008 1.478 . S
C1007 H1001 0.930 . S
C1007 C1003 1.400 . S
C1007 C1006 1.385 . S
C1008 C1006 1.478 . S
C1008 C1010 1.381 . S
C1008 C1014 1.383 . S
C1009 C1005 1.495 . S
C1009 H1015 0.959 . S
C1009 H1016 0.961 . S
C1009 H1017 0.960 . S
C1010 C1008 1.381 . S
C1010 C1011 1.394 . S
C1010 H1018 0.930 . S
C1011 C1010 1.394 . S
C1011 C1012 1.383 . S
C1011 H1019 0.929 . S
C1012 C1011 1.383 . S
C1012 C1013 1.377 . S
C1013 H997 0.930 . S
C1013 C1012 1.377 . S
C1013 C1014 1.379 . S
C1014 H998 0.931 . S
C1014 C1008 1.383 . S
C1014 C1013 1.379 . S
H1015 C1009 0.959 . S
H1016 C1009 0.961 . S
H1017 C1009 0.960 . S
H1018 C1010 0.930 . S
H1019 C1011 0.929 . S
H1020 C1028 0.929 . S
H1021 C1030 0.930 . S
H1022 C1032 0.930 . S
H1023 C1035 0.929 . S
H1024 C1038 0.930 . S
H1025 C1040 0.960 . S
H1026 C1040 0.960 . S
H1027 C1040 0.960 . S
C1028 H1020 0.929 . S
C1028 C1029 1.377 . S
C1028 C1030 1.384 . S
C1029 C1028 1.377 . S
C1029 C1035 1.390 . S
C1030 H1021 0.930 . S
C1030 C1028 1.384 . S
C1030 C1031 1.372 . S
C1031 C1030 1.372 . S
C1031 C1032 1.400 . S
C1031 C1036 1.490 . S
C1032 H1022 0.930 . S
C1032 C1031 1.400 . S
C1032 C1035 1.386 . S
H1033 C1049 0.930 . S
H1034 C1050 0.931 . S
C1035 H1023 0.929 . S
C1035 C1029 1.390 . S
C1035 C1032 1.386 . S
C1036 C1031 1.490 . S
C1036 C1038 1.395 . S
C1036 C1039 1.403 . S
H1037 C1043 0.930 . S
C1038 H1024 0.930 . S
C1038 C1036 1.395 . S
C1038 C1041 1.403 . S
C1039 C1036 1.403 . S
C1039 C1040 1.524 . S
C1039 C1043 1.400 . S
C1040 H1025 0.960 . S
C1040 H1026 0.960 . S
C1040 H1027 0.960 . S
C1040 C1039 1.524 . S
C1041 C1038 1.403 . S
C1041 C1042 1.392 . S
C1041 C1045 1.495 . S
C1042 C1041 1.392 . S
C1042 C1043 1.385 . S
C1042 C1044 1.478 . S
C1043 H1037 0.930 . S
C1043 C1039 1.400 . S
C1043 C1042 1.385 . S
C1044 C1042 1.478 . S
C1044 C1046 1.381 . S
C1044 C1050 1.383 . S
C1045 C1041 1.495 . S
C1045 H1051 0.959 . S
C1045 H1052 0.961 . S
C1045 H1053 0.960 . S
C1046 C1044 1.381 . S
C1046 C1047 1.394 . S
C1046 H1054 0.930 . S
C1047 C1046 1.394 . S
C1047 C1048 1.383 . S
C1047 H1055 0.929 . S
C1048 C1047 1.383 . S
C1048 C1049 1.377 . S
C1049 H1033 0.930 . S
C1049 C1048 1.377 . S
C1049 C1050 1.379 . S
C1050 H1034 0.931 . S
C1050 C1044 1.383 . S
C1050 C1049 1.379 . S
H1051 C1045 0.959 . S
H1052 C1045 0.961 . S
H1053 C1045 0.960 . S
H1054 C1046 0.930 . S
H1055 C1047 0.929 . S
H1056 C1064 0.929 . S
H1057 C1066 0.930 . S
H1058 C1068 0.930 . S
H1059 C1071 0.929 . S
H1060 C1074 0.930 . S
H1061 C1076 0.960 . S
H1062 C1076 0.960 . S
H1063 C1076 0.960 . S
C1064 H1056 0.929 . S
C1064 C1065 1.377 . S
C1064 C1066 1.384 . S
C1065 C1064 1.377 . S
C1065 C1071 1.390 . S
C1066 H1057 0.930 . S
C1066 C1064 1.384 . S
C1066 C1067 1.372 . S
C1067 C1066 1.372 . S
C1067 C1068 1.400 . S
C1067 C1072 1.490 . S
C1068 H1058 0.930 . S
C1068 C1067 1.400 . S
C1068 C1071 1.386 . S
H1069 C1085 0.930 . S
H1070 C1086 0.931 . S
C1071 H1059 0.929 . S
C1071 C1065 1.390 . S
C1071 C1068 1.386 . S
C1072 C1067 1.490 . S
C1072 C1074 1.395 . S
C1072 C1075 1.403 . S
H1073 C1079 0.930 . S
C1074 H1060 0.930 . S
C1074 C1072 1.395 . S
C1074 C1077 1.403 . S
C1075 C1072 1.403 . S
C1075 C1076 1.524 . S
C1075 C1079 1.400 . S
C1076 H1061 0.960 . S
C1076 H1062 0.960 . S
C1076 H1063 0.960 . S
C1076 C1075 1.524 . S
C1077 C1074 1.403 . S
C1077 C1078 1.392 . S
C1077 C1081 1.495 . S
C1078 C1077 1.392 . S
C1078 C1079 1.385 . S
C1078 C1080 1.478 . S
C1079 H1073 0.930 . S
C1079 C1075 1.400 . S
C1079 C1078 1.385 . S
C1080 C1078 1.478 . S
C1080 C1082 1.381 . S
C1080 C1086 1.383 . S
C1081 C1077 1.495 . S
C1081 H1087 0.959 . S
C1081 H1088 0.961 . S
C1081 H1089 0.960 . S
C1082 C1080 1.381 . S
C1082 C1083 1.394 . S
C1082 H1090 0.930 . S
C1083 C1082 1.394 . S
C1083 C1084 1.383 . S
C1083 H1091 0.929 . S
C1084 C1083 1.383 . S
C1084 C1085 1.377 . S
C1085 H1069 0.930 . S
C1085 C1084 1.377 . S
C1085 C1086 1.379 . S
C1086 H1070 0.931 . S
C1086 C1080 1.383 . S
C1086 C1085 1.379 . S
H1087 C1081 0.959 . S
H1088 C1081 0.961 . S
H1089 C1081 0.960 . S
H1090 C1082 0.930 . S
H1091 C1083 0.929 . S
H1092 C1100 0.929 . S
H1093 C1102 0.930 . S
H1094 C1104 0.930 . S
H1095 C1107 0.929 . S
H1096 C1110 0.930 . S
H1097 C1112 0.960 . S
H1098 C1112 0.960 . S
H1099 C1112 0.960 . S
C1100 H1092 0.929 . S
C1100 C1101 1.377 . S
C1100 C1102 1.384 . S
C1101 C1100 1.377 . S
C1101 C1107 1.390 . S
C1102 H1093 0.930 . S
C1102 C1100 1.384 . S
C1102 C1103 1.372 . S
C1103 C1102 1.372 . S
C1103 C1104 1.400 . S
C1103 C1108 1.490 . S
C1104 H1094 0.930 . S
C1104 C1103 1.400 . S
C1104 C1107 1.386 . S
H1105 C1121 0.930 . S
H1106 C1122 0.931 . S
C1107 H1095 0.929 . S
C1107 C1101 1.390 . S
C1107 C1104 1.386 . S
C1108 C1103 1.490 . S
C1108 C1110 1.395 . S
C1108 C1111 1.403 . S
H1109 C1115 0.930 . S
C1110 H1096 0.930 . S
C1110 C1108 1.395 . S
C1110 C1113 1.403 . S
C1111 C1108 1.403 . S
C1111 C1112 1.524 . S
C1111 C1115 1.400 . S
C1112 H1097 0.960 . S
C1112 H1098 0.960 . S
C1112 H1099 0.960 . S
C1112 C1111 1.524 . S
C1113 C1110 1.403 . S
C1113 C1114 1.392 . S
C1113 C1117 1.495 . S
C1114 C1113 1.392 . S
C1114 C1115 1.385 . S
C1114 C1116 1.478 . S
C1115 H1109 0.930 . S
C1115 C1111 1.400 . S
C1115 C1114 1.385 . S
C1116 C1114 1.478 . S
C1116 C1118 1.381 . S
C1116 C1122 1.383 . S
C1117 C1113 1.495 . S
C1117 H1123 0.959 . S
C1117 H1124 0.961 . S
C1117 H1125 0.960 . S
C1118 C1116 1.381 . S
C1118 C1119 1.394 . S
C1118 H1126 0.930 . S
C1119 C1118 1.394 . S
C1119 C1120 1.383 . S
C1119 H1127 0.929 . S
C1120 C1119 1.383 . S
C1120 C1121 1.377 . S
C1121 H1105 0.930 . S
C1121 C1120 1.377 . S
C1121 C1122 1.379 . S
C1122 H1106 0.931 . S
C1122 C1116 1.383 . S
C1122 C1121 1.379 . S
H1123 C1117 0.959 . S
H1124 C1117 0.961 . S
H1125 C1117 0.960 . S
H1126 C1118 0.930 . S
H1127 C1119 0.929 . S
H1128 C1136 0.929 . S
H1129 C1138 0.930 . S
H1130 C1140 0.930 . S
H1131 C1143 0.929 . S
H1132 C1146 0.930 . S
H1133 C1148 0.960 . S
H1134 C1148 0.960 . S
H1135 C1148 0.960 . S
C1136 H1128 0.929 . S
C1136 C1137 1.377 . S
C1136 C1138 1.384 . S
C1137 C1136 1.377 . S
C1137 C1143 1.390 . S
C1138 H1129 0.930 . S
C1138 C1136 1.384 . S
C1138 C1139 1.372 . S
C1139 C1138 1.372 . S
C1139 C1140 1.400 . S
C1139 C1144 1.490 . S
C1140 H1130 0.930 . S
C1140 C1139 1.400 . S
C1140 C1143 1.386 . S
H1141 C1157 0.930 . S
H1142 C1158 0.931 . S
C1143 H1131 0.929 . S
C1143 C1137 1.390 . S
C1143 C1140 1.386 . S
C1144 C1139 1.490 . S
C1144 C1146 1.395 . S
C1144 C1147 1.403 . S
H1145 C1151 0.930 . S
C1146 H1132 0.930 . S
C1146 C1144 1.395 . S
C1146 C1149 1.403 . S
C1147 C1144 1.403 . S
C1147 C1148 1.524 . S
C1147 C1151 1.400 . S
C1148 H1133 0.960 . S
C1148 H1134 0.960 . S
C1148 H1135 0.960 . S
C1148 C1147 1.524 . S
C1149 C1146 1.403 . S
C1149 C1150 1.392 . S
C1149 C1153 1.495 . S
C1150 C1149 1.392 . S
C1150 C1151 1.385 . S
C1150 C1152 1.478 . S
C1151 H1145 0.930 . S
C1151 C1147 1.400 . S
C1151 C1150 1.385 . S
C1152 C1150 1.478 . S
C1152 C1154 1.381 . S
C1152 C1158 1.383 . S
C1153 C1149 1.495 . S
C1153 H1159 0.959 . S
C1153 H1160 0.961 . S
C1153 H1161 0.960 . S
C1154 C1152 1.381 . S
C1154 C1155 1.394 . S
C1154 H1162 0.930 . S
C1155 C1154 1.394 . S
C1155 C1156 1.383 . S
C1155 H1163 0.929 . S
C1156 C1155 1.383 . S
C1156 C1157 1.377 . S
C1157 H1141 0.930 . S
C1157 C1156 1.377 . S
C1157 C1158 1.379 . S
C1158 H1142 0.931 . S
C1158 C1152 1.383 . S
C1158 C1157 1.379 . S
H1159 C1153 0.959 . S
H1160 C1153 0.961 . S
H1161 C1153 0.960 . S
H1162 C1154 0.930 . S
H1163 C1155 0.929 . S
H1164 C1172 0.929 . S
H1165 C1174 0.930 . S
H1166 C1176 0.930 . S
H1167 C1179 0.929 . S
H1168 C1182 0.930 . S
H1169 C1184 0.960 . S
H1170 C1184 0.960 . S
H1171 C1184 0.960 . S
C1172 H1164 0.929 . S
C1172 C1173 1.377 . S
C1172 C1174 1.384 . S
C1173 C1172 1.377 . S
C1173 C1179 1.390 . S
C1174 H1165 0.930 . S
C1174 C1172 1.384 . S
C1174 C1175 1.372 . S
C1175 C1174 1.372 . S
C1175 C1176 1.400 . S
C1175 C1180 1.490 . S
C1176 H1166 0.930 . S
C1176 C1175 1.400 . S
C1176 C1179 1.386 . S
H1177 C1193 0.930 . S
H1178 C1194 0.931 . S
C1179 H1167 0.929 . S
C1179 C1173 1.390 . S
C1179 C1176 1.386 . S
C1180 C1175 1.490 . S
C1180 C1182 1.395 . S
C1180 C1183 1.403 . S
H1181 C1187 0.930 . S
C1182 H1168 0.930 . S
C1182 C1180 1.395 . S
C1182 C1185 1.403 . S
C1183 C1180 1.403 . S
C1183 C1184 1.524 . S
C1183 C1187 1.400 . S
C1184 H1169 0.960 . S
C1184 H1170 0.960 . S
C1184 H1171 0.960 . S
C1184 C1183 1.524 . S
C1185 C1182 1.403 . S
C1185 C1186 1.392 . S
C1185 C1189 1.495 . S
C1186 C1185 1.392 . S
C1186 C1187 1.385 . S
C1186 C1188 1.478 . S
C1187 H1181 0.930 . S
C1187 C1183 1.400 . S
C1187 C1186 1.385 . S
C1188 C1186 1.478 . S
C1188 C1190 1.381 . S
C1188 C1194 1.383 . S
C1189 C1185 1.495 . S
C1189 H1195 0.959 . S
C1189 H1196 0.961 . S
C1189 H1197 0.960 . S
C1190 C1188 1.381 . S
C1190 C1191 1.394 . S
C1190 H1198 0.930 . S
C1191 C1190 1.394 . S
C1191 C1192 1.383 . S
C1191 H1199 0.929 . S
C1192 C1191 1.383 . S
C1192 C1193 1.377 . S
C1193 H1177 0.930 . S
C1193 C1192 1.377 . S
C1193 C1194 1.379 . S
C1194 H1178 0.931 . S
C1194 C1188 1.383 . S
C1194 C1193 1.379 . S
H1195 C1189 0.959 . S
H1196 C1189 0.961 . S
H1197 C1189 0.960 . S
H1198 C1190 0.930 . S
H1199 C1191 0.929 . S
H1200 C1208 0.929 . S
H1201 C1210 0.930 . S
H1202 C1212 0.930 . S
H1203 C1215 0.929 . S
H1204 C1218 0.930 . S
H1205 C1220 0.960 . S
H1206 C1220 0.960 . S
H1207 C1220 0.960 . S
C1208 H1200 0.929 . S
C1208 C1209 1.377 . S
C1208 C1210 1.384 . S
C1209 C1208 1.377 . S
C1209 C1215 1.390 . S
C1210 H1201 0.930 . S
C1210 C1208 1.384 . S
C1210 C1211 1.372 . S
C1211 C1210 1.372 . S
C1211 C1212 1.400 . S
C1211 C1216 1.490 . S
C1212 H1202 0.930 . S
C1212 C1211 1.400 . S
C1212 C1215 1.386 . S
H1213 C1229 0.930 . S
H1214 C1230 0.931 . S
C1215 H1203 0.929 . S
C1215 C1209 1.390 . S
C1215 C1212 1.386 . S
C1216 C1211 1.490 . S
C1216 C1218 1.395 . S
C1216 C1219 1.403 . S
H1217 C1223 0.930 . S
C1218 H1204 0.930 . S
C1218 C1216 1.395 . S
C1218 C1221 1.403 . S
C1219 C1216 1.403 . S
C1219 C1220 1.524 . S
C1219 C1223 1.400 . S
C1220 H1205 0.960 . S
C1220 H1206 0.960 . S
C1220 H1207 0.960 . S
C1220 C1219 1.524 . S
C1221 C1218 1.403 . S
C1221 C1222 1.392 . S
C1221 C1225 1.495 . S
C1222 C1221 1.392 . S
C1222 C1223 1.385 . S
C1222 C1224 1.478 . S
C1223 H1217 0.930 . S
C1223 C1219 1.400 . S
C1223 C1222 1.385 . S
C1224 C1222 1.478 . S
C1224 C1226 1.381 . S
C1224 C1230 1.383 . S
C1225 C1221 1.495 . S
C1225 H1231 0.959 . S
C1225 H1232 0.961 . S
C1225 H1233 0.960 . S
C1226 C1224 1.381 . S
C1226 C1227 1.394 . S
C1226 H1234 0.930 . S
C1227 C1226 1.394 . S
C1227 C1228 1.383 . S
C1227 H1235 0.929 . S
C1228 C1227 1.383 . S
C1228 C1229 1.377 . S
C1229 H1213 0.930 . S
C1229 C1228 1.377 . S
C1229 C1230 1.379 . S
C1230 H1214 0.931 . S
C1230 C1224 1.383 . S
C1230 C1229 1.379 . S
H1231 C1225 0.959 . S
H1232 C1225 0.961 . S
H1233 C1225 0.960 . S
H1234 C1226 0.930 . S
H1235 C1227 0.929 . S
H1236 C1244 0.929 . S
H1237 C1246 0.930 . S
H1238 C1248 0.930 . S
H1239 C1251 0.929 . S
H1240 C1254 0.930 . S
H1241 C1256 0.960 . S
H1242 C1256 0.960 . S
H1243 C1256 0.960 . S
C1244 H1236 0.929 . S
C1244 C1245 1.377 . S
C1244 C1246 1.384 . S
C1245 C1244 1.377 . S
C1245 C1251 1.390 . S
C1246 H1237 0.930 . S
C1246 C1244 1.384 . S
C1246 C1247 1.372 . S
C1247 C1246 1.372 . S
C1247 C1248 1.400 . S
C1247 C1252 1.490 . S
C1248 H1238 0.930 . S
C1248 C1247 1.400 . S
C1248 C1251 1.386 . S
H1249 C1265 0.930 . S
H1250 C1266 0.931 . S
C1251 H1239 0.929 . S
C1251 C1245 1.390 . S
C1251 C1248 1.386 . S
C1252 C1247 1.490 . S
C1252 C1254 1.395 . S
C1252 C1255 1.403 . S
H1253 C1259 0.930 . S
C1254 H1240 0.930 . S
C1254 C1252 1.395 . S
C1254 C1257 1.403 . S
C1255 C1252 1.403 . S
C1255 C1256 1.524 . S
C1255 C1259 1.400 . S
C1256 H1241 0.960 . S
C1256 H1242 0.960 . S
C1256 H1243 0.960 . S
C1256 C1255 1.524 . S
C1257 C1254 1.403 . S
C1257 C1258 1.392 . S
C1257 C1261 1.495 . S
C1258 C1257 1.392 . S
C1258 C1259 1.385 . S
C1258 C1260 1.478 . S
C1259 H1253 0.930 . S
C1259 C1255 1.400 . S
C1259 C1258 1.385 . S
C1260 C1258 1.478 . S
C1260 C1262 1.381 . S
C1260 C1266 1.383 . S
C1261 C1257 1.495 . S
C1261 H1267 0.959 . S
C1261 H1268 0.961 . S
C1261 H1269 0.960 . S
C1262 C1260 1.381 . S
C1262 C1263 1.394 . S
C1262 H1270 0.930 . S
C1263 C1262 1.394 . S
C1263 C1264 1.383 . S
C1263 H1271 0.929 . S
C1264 C1263 1.383 . S
C1264 C1265 1.377 . S
C1265 H1249 0.930 . S
C1265 C1264 1.377 . S
C1265 C1266 1.379 . S
C1266 H1250 0.931 . S
C1266 C1260 1.383 . S
C1266 C1265 1.379 . S
H1267 C1261 0.959 . S
H1268 C1261 0.961 . S
H1269 C1261 0.960 . S
H1270 C1262 0.930 . S
H1271 C1263 0.929 . S
H1272 C1280 0.929 . S
H1273 C1282 0.930 . S
H1274 C1284 0.930 . S
H1275 C1287 0.929 . S
H1276 C1290 0.930 . S
H1277 C1292 0.960 . S
H1278 C1292 0.960 . S
H1279 C1292 0.960 . S
C1280 H1272 0.929 . S
C1280 C1281 1.377 . S
C1280 C1282 1.384 . S
C1281 C1280 1.377 . S
C1281 C1287 1.390 . S
C1282 H1273 0.930 . S
C1282 C1280 1.384 . S
C1282 C1283 1.372 . S
C1283 C1282 1.372 . S
C1283 C1284 1.400 . S
C1283 C1288 1.490 . S
C1284 H1274 0.930 . S
C1284 C1283 1.400 . S
C1284 C1287 1.386 . S
H1285 C1301 0.930 . S
H1286 C1302 0.931 . S
C1287 H1275 0.929 . S
C1287 C1281 1.390 . S
C1287 C1284 1.386 . S
C1288 C1283 1.490 . S
C1288 C1290 1.395 . S
C1288 C1291 1.403 . S
H1289 C1295 0.930 . S
C1290 H1276 0.930 . S
C1290 C1288 1.395 . S
C1290 C1293 1.403 1_455 S
C1291 C1288 1.403 . S
C1291 C1292 1.524 . S
C1291 C1295 1.400 1_455 S
C1292 H1277 0.960 . S
C1292 H1278 0.960 . S
C1292 H1279 0.960 . S
C1292 C1291 1.524 . S
C1293 C1290 1.403 1_655 S
C1293 C1294 1.392 . S
C1293 C1297 1.495 . S
C1294 C1293 1.392 . S
C1294 C1295 1.385 . S
C1294 C1296 1.478 . S
C1295 H1289 0.930 . S
C1295 C1291 1.400 1_655 S
C1295 C1294 1.385 . S
C1296 C1294 1.478 . S
C1296 C1298 1.381 . S
C1296 C1302 1.383 . S
C1297 C1293 1.495 . S
C1297 H1303 0.959 . S
C1297 H1304 0.961 . S
C1297 H1305 0.960 . S
C1298 C1296 1.381 . S
C1298 C1299 1.394 . S
C1298 H1306 0.930 . S
C1299 C1298 1.394 . S
C1299 C1300 1.383 . S
C1299 H1307 0.929 . S
C1300 C1299 1.383 . S
C1300 C1301 1.377 . S
C1301 H1285 0.930 . S
C1301 C1300 1.377 . S
C1301 C1302 1.379 . S
C1302 H1286 0.931 . S
C1302 C1296 1.383 . S
C1302 C1301 1.379 . S
H1303 C1297 0.959 . S
H1304 C1297 0.961 . S
H1305 C1297 0.960 . S
H1306 C1298 0.930 . S
H1307 C1299 0.929 . S
H1308 C1316 0.929 . S
H1309 C1318 0.930 . S
H1310 C1320 0.930 . S
H1311 C1323 0.929 . S
H1312 C1326 0.930 . S
H1313 C1328 0.960 . S
H1314 C1328 0.960 . S
H1315 C1328 0.960 . S
C1316 H1308 0.929 . S
C1316 C1317 1.377 . S
C1316 C1318 1.384 . S
C1317 C1316 1.377 . S
C1317 C1323 1.390 . S
C1318 H1309 0.930 . S
C1318 C1316 1.384 . S
C1318 C1319 1.372 . S
C1319 C1318 1.372 . S
C1319 C1320 1.400 . S
C1319 C1324 1.490 . S
C1320 H1310 0.930 . S
C1320 C1319 1.400 . S
C1320 C1323 1.386 . S
H1321 C1337 0.930 . S
H1322 C1338 0.931 . S
C1323 H1311 0.929 . S
C1323 C1317 1.390 . S
C1323 C1320 1.386 . S
C1324 C1319 1.490 . S
C1324 C1326 1.395 . S
C1324 C1327 1.403 . S
H1325 C1331 0.930 . S
C1326 H1312 0.930 . S
C1326 C1324 1.395 . S
C1326 C1329 1.403 1_565 S
C1327 C1324 1.403 . S
C1327 C1328 1.524 . S
C1327 C1331 1.400 1_565 S
C1328 H1313 0.960 . S
C1328 H1314 0.960 . S
C1328 H1315 0.960 . S
C1328 C1327 1.524 . S
C1329 C1326 1.403 1_545 S
C1329 C1330 1.392 . S
C1329 C1333 1.495 . S
C1330 C1329 1.392 . S
C1330 C1331 1.385 . S
C1330 C1332 1.478 . S
C1331 H1325 0.930 . S
C1331 C1327 1.400 1_545 S
C1331 C1330 1.385 . S
C1332 C1330 1.478 . S
C1332 C1334 1.381 . S
C1332 C1338 1.383 . S
C1333 C1329 1.495 . S
C1333 H1339 0.959 . S
C1333 H1340 0.961 . S
C1333 H1341 0.960 . S
C1334 C1332 1.381 . S
C1334 C1335 1.394 . S
C1334 H1342 0.930 . S
C1335 C1334 1.394 . S
C1335 C1336 1.383 . S
C1335 H1343 0.929 . S
C1336 C1335 1.383 . S
C1336 C1337 1.377 . S
C1337 H1321 0.930 . S
C1337 C1336 1.377 . S
C1337 C1338 1.379 . S
C1338 H1322 0.931 . S
C1338 C1332 1.383 . S
C1338 C1337 1.379 . S
H1339 C1333 0.959 . S
H1340 C1333 0.961 . S
H1341 C1333 0.960 . S
H1342 C1334 0.930 . S
H1343 C1335 0.929 . S
H1344 C1352 0.929 . S
H1345 C1354 0.930 . S
H1346 C1356 0.930 . S
H1347 C1359 0.929 . S
H1348 C1362 0.930 . S
H1349 C1364 0.960 . S
H1350 C1364 0.960 . S
H1351 C1364 0.960 . S
C1352 H1344 0.929 . S
C1352 C1353 1.377 . S
C1352 C1354 1.384 . S
C1353 C1352 1.377 . S
C1353 C1359 1.390 . S
C1354 H1345 0.930 . S
C1354 C1352 1.384 . S
C1354 C1355 1.372 . S
C1355 C1354 1.372 . S
C1355 C1356 1.400 . S
C1355 C1360 1.490 . S
C1356 H1346 0.930 . S
C1356 C1355 1.400 . S
C1356 C1359 1.386 . S
H1357 C1373 0.930 . S
H1358 C1374 0.931 . S
C1359 H1347 0.929 . S
C1359 C1353 1.390 . S
C1359 C1356 1.386 . S
C1360 C1355 1.490 . S
C1360 C1362 1.395 . S
C1360 C1363 1.403 . S
H1361 C1367 0.930 . S
C1362 H1348 0.930 . S
C1362 C1360 1.395 . S
C1362 C1365 1.403 . S
C1363 C1360 1.403 . S
C1363 C1364 1.524 . S
C1363 C1367 1.400 . S
C1364 H1349 0.960 . S
C1364 H1350 0.960 . S
C1364 H1351 0.960 . S
C1364 C1363 1.524 . S
C1365 C1362 1.403 . S
C1365 C1366 1.392 . S
C1365 C1369 1.495 . S
C1366 C1365 1.392 . S
C1366 C1367 1.385 . S
C1366 C1368 1.478 . S
C1367 H1361 0.930 . S
C1367 C1363 1.400 . S
C1367 C1366 1.385 . S
C1368 C1366 1.478 . S
C1368 C1370 1.381 . S
C1368 C1374 1.383 . S
C1369 C1365 1.495 . S
C1369 H1375 0.959 . S
C1369 H1376 0.961 . S
C1369 H1377 0.960 . S
C1370 C1368 1.381 . S
C1370 C1371 1.394 . S
C1370 H1378 0.930 . S
C1371 C1370 1.394 . S
C1371 C1372 1.383 . S
C1371 H1379 0.929 . S
C1372 C1371 1.383 . S
C1372 C1373 1.377 . S
C1373 H1357 0.930 . S
C1373 C1372 1.377 . S
C1373 C1374 1.379 . S
C1374 H1358 0.931 . S
C1374 C1368 1.383 . S
C1374 C1373 1.379 . S
H1375 C1369 0.959 . S
H1376 C1369 0.961 . S
H1377 C1369 0.960 . S
H1378 C1370 0.930 . S
H1379 C1371 0.929 . S
H1380 C1388 0.929 . S
H1381 C1390 0.930 . S
H1382 C1392 0.930 . S
H1383 C1395 0.929 . S
H1384 C1398 0.930 . S
H1385 C1400 0.960 . S
H1386 C1400 0.960 . S
H1387 C1400 0.960 . S
C1388 H1380 0.929 . S
C1388 C1389 1.377 . S
C1388 C1390 1.384 . S
C1389 C1388 1.377 . S
C1389 C1395 1.390 . S
C1390 H1381 0.930 . S
C1390 C1388 1.384 . S
C1390 C1391 1.372 . S
C1391 C1390 1.372 . S
C1391 C1392 1.400 . S
C1391 C1396 1.490 . S
C1392 H1382 0.930 . S
C1392 C1391 1.400 . S
C1392 C1395 1.386 . S
H1393 C1409 0.930 . S
H1394 C1410 0.931 . S
C1395 H1383 0.929 . S
C1395 C1389 1.390 . S
C1395 C1392 1.386 . S
C1396 C1391 1.490 . S
C1396 C1398 1.395 . S
C1396 C1399 1.403 . S
H1397 C1403 0.930 . S
C1398 H1384 0.930 . S
C1398 C1396 1.395 . S
C1398 C1401 1.403 1_455 S
C1399 C1396 1.403 . S
C1399 C1400 1.524 . S
C1399 C1403 1.400 1_455 S
C1400 H1385 0.960 . S
C1400 H1386 0.960 . S
C1400 H1387 0.960 . S
C1400 C1399 1.524 . S
C1401 C1398 1.403 1_655 S
C1401 C1402 1.392 . S
C1401 C1405 1.495 . S
C1402 C1401 1.392 . S
C1402 C1403 1.385 . S
C1402 C1404 1.478 . S
C1403 H1397 0.930 . S
C1403 C1399 1.400 1_655 S
C1403 C1402 1.385 . S
C1404 C1402 1.478 . S
C1404 C1406 1.381 . S
C1404 C1410 1.383 . S
C1405 C1401 1.495 . S
C1405 H1411 0.959 . S
C1405 H1412 0.961 . S
C1405 H1413 0.960 . S
C1406 C1404 1.381 . S
C1406 C1407 1.394 . S
C1406 H1414 0.930 . S
C1407 C1406 1.394 . S
C1407 C1408 1.383 . S
C1407 H1415 0.929 . S
C1408 C1407 1.383 . S
C1408 C1409 1.377 . S
C1409 H1393 0.930 . S
C1409 C1408 1.377 . S
C1409 C1410 1.379 . S
C1410 H1394 0.931 . S
C1410 C1404 1.383 . S
C1410 C1409 1.379 . S
H1411 C1405 0.959 . S
H1412 C1405 0.961 . S
H1413 C1405 0.960 . S
H1414 C1406 0.930 . S
H1415 C1407 0.929 . S
H1416 C1424 0.929 . S
H1417 C1426 0.930 . S
H1418 C1428 0.930 . S
H1419 C1431 0.929 . S
H1420 C1434 0.930 . S
H1421 C1436 0.960 . S
H1422 C1436 0.960 . S
H1423 C1436 0.960 . S
C1424 H1416 0.929 . S
C1424 C1425 1.377 . S
C1424 C1426 1.384 . S
C1425 C1424 1.377 . S
C1425 C1431 1.390 . S
C1426 H1417 0.930 . S
C1426 C1424 1.384 . S
C1426 C1427 1.372 . S
C1427 C1426 1.372 . S
C1427 C1428 1.400 . S
C1427 C1432 1.490 . S
C1428 H1418 0.930 . S
C1428 C1427 1.400 . S
C1428 C1431 1.386 . S
H1429 C1445 0.930 . S
H1430 C1446 0.931 . S
C1431 H1419 0.929 . S
C1431 C1425 1.390 . S
C1431 C1428 1.386 . S
C1432 C1427 1.490 . S
C1432 C1434 1.395 . S
C1432 C1435 1.403 . S
H1433 C1439 0.930 . S
C1434 H1420 0.930 . S
C1434 C1432 1.395 . S
C1434 C1437 1.403 1_565 S
C1435 C1432 1.403 . S
C1435 C1436 1.524 . S
C1435 C1439 1.400 1_565 S
C1436 H1421 0.960 . S
C1436 H1422 0.960 . S
C1436 H1423 0.960 . S
C1436 C1435 1.524 . S
C1437 C1434 1.403 1_545 S
C1437 C1438 1.392 . S
C1437 C1441 1.495 . S
C1438 C1437 1.392 . S
C1438 C1439 1.385 . S
C1438 C1440 1.478 . S
C1439 H1433 0.930 . S
C1439 C1435 1.400 1_545 S
C1439 C1438 1.385 . S
C1440 C1438 1.478 . S
C1440 C1442 1.381 . S
C1440 C1446 1.383 . S
C1441 C1437 1.495 . S
C1441 H1447 0.959 . S
C1441 H1448 0.961 . S
C1441 H1449 0.960 . S
C1442 C1440 1.381 . S
C1442 C1443 1.394 . S
C1442 H1450 0.930 . S
C1443 C1442 1.394 . S
C1443 C1444 1.383 . S
C1443 H1451 0.929 . S
C1444 C1443 1.383 . S
C1444 C1445 1.377 . S
C1445 H1429 0.930 . S
C1445 C1444 1.377 . S
C1445 C1446 1.379 . S
C1446 H1430 0.931 . S
C1446 C1440 1.383 . S
C1446 C1445 1.379 . S
H1447 C1441 0.959 . S
H1448 C1441 0.961 . S
H1449 C1441 0.960 . S
H1450 C1442 0.930 . S
H1451 C1443 0.929 . S
H1452 C1460 0.929 . S
H1453 C1462 0.930 . S
H1454 C1464 0.930 . S
H1455 C1467 0.929 . S
H1456 C1470 0.930 . S
H1457 C1472 0.960 . S
H1458 C1472 0.960 . S
H1459 C1472 0.960 . S
C1460 H1452 0.929 . S
C1460 C1461 1.377 . S
C1460 C1462 1.384 . S
C1461 C1460 1.377 . S
C1461 C1467 1.390 . S
C1462 H1453 0.930 . S
C1462 C1460 1.384 . S
C1462 C1463 1.372 . S
C1463 C1462 1.372 . S
C1463 C1464 1.400 . S
C1463 C1468 1.490 . S
C1464 H1454 0.930 . S
C1464 C1463 1.400 . S
C1464 C1467 1.386 . S
H1465 C1481 0.930 . S
H1466 C1482 0.931 . S
C1467 H1455 0.929 . S
C1467 C1461 1.390 . S
C1467 C1464 1.386 . S
C1468 C1463 1.490 . S
C1468 C1470 1.395 . S
C1468 C1471 1.403 . S
H1469 C1475 0.930 . S
C1470 H1456 0.930 . S
C1470 C1468 1.395 . S
C1470 C1473 1.403 . S
C1471 C1468 1.403 . S
C1471 C1472 1.524 . S
C1471 C1475 1.400 . S
C1472 H1457 0.960 . S
C1472 H1458 0.960 . S
C1472 H1459 0.960 . S
C1472 C1471 1.524 . S
C1473 C1470 1.403 . S
C1473 C1474 1.392 . S
C1473 C1477 1.495 . S
C1474 C1473 1.392 . S
C1474 C1475 1.385 . S
C1474 C1476 1.478 . S
C1475 H1469 0.930 . S
C1475 C1471 1.400 . S
C1475 C1474 1.385 . S
C1476 C1474 1.478 . S
C1476 C1478 1.381 . S
C1476 C1482 1.383 . S
C1477 C1473 1.495 . S
C1477 H1483 0.959 . S
C1477 H1484 0.961 . S
C1477 H1485 0.960 . S
C1478 C1476 1.381 . S
C1478 C1479 1.394 . S
C1478 H1486 0.930 . S
C1479 C1478 1.394 . S
C1479 C1480 1.383 . S
C1479 H1487 0.929 . S
C1480 C1479 1.383 . S
C1480 C1481 1.377 . S
C1481 H1465 0.930 . S
C1481 C1480 1.377 . S
C1481 C1482 1.379 . S
C1482 H1466 0.931 . S
C1482 C1476 1.383 . S
C1482 C1481 1.379 . S
H1483 C1477 0.959 . S
H1484 C1477 0.961 . S
H1485 C1477 0.960 . S
H1486 C1478 0.930 . S
H1487 C1479 0.929 . S
C417 C305 1.492 . S
C436 C33 1.491 . S
C453 C67 1.493 . S
C472 C339 1.493 . S
C489 C373 1.493 . S
C508 C101 1.494 . S
C525 C407 1.493 . S
C544 C135 1.492 . S
C561 C169 1.493 . S
C580 C237 1.492 . S
C597 C271 1.493 . S
C616 C203 1.493 . S
C633 C360 1.472 . S
C652 C20 1.463 . S
C669 C394 1.474 . S
C688 C54 1.476 . S
C705 C88 1.474 . S
C724 C224 1.470 . S
C741 C258 1.472 . S
C760 C122 1.464 . S
C777 C292 1.475 . S
C796 C156 1.478 . S
C813 C326 1.472 . S
C832 C190 1.465 . S
C849 C5 1.484 . S
C868 C9 1.407 . S
C885 C39 1.480 . S
C904 C43 1.353 . S
C921 C73 1.482 . S
C940 C77 1.424 . S
C957 C107 1.481 . S
C976 C111 1.353 . S
C993 C145 1.390 . S
C1012 C141 1.486 . S
C1029 C175 1.480 . S
C1048 C179 1.404 . S
C1065 C213 1.388 . S
C1084 C209 1.484 1_556 S
C1101 C243 1.480 1_556 S
C1120 C247 1.354 . S
C1137 C281 1.396 . S
C1156 C277 1.476 1_556 S
C1173 C315 1.383 . S
C1192 C311 1.473 1_556 S
C1209 C345 1.482 1_556 S
C1228 C349 1.422 . S
C1245 C379 1.481 1_556 S
C1264 C383 1.419 . S
C1281 C2 1.473 . S
C1300 C376 1.465 . S
C1317 C206 1.472 . S
C1336 C36 1.462 . S
C1353 C240 1.475 . S
C1372 C70 1.475 . S
C1389 C274 1.473 . S
C1408 C104 1.464 . S
C1425 C138 1.476 . S
C1444 C308 1.479 . S
C1461 C342 1.474 . S
C1480 C172 1.471 . S
