# Generated by pormake.
# Topology upa, (4)-cn, num edge types: 1
# Building blocks:
#     Node 0, Type 0, BuildingBlock: TATPOV_clean_sbu_0, # of connection points: 4
#     Node 1, Type 0, BuildingBlock: TATPOV_clean_sbu_0, # of connection points: 4
#     Node 2, Type 0, BuildingBlock: TATPOV_clean_sbu_0, # of connection points: 4
#     Node 3, Type 0, BuildingBlock: TATPOV_clean_sbu_0, # of connection points: 4
#     Node 4, Type 0, BuildingBlock: TATPOV_clean_sbu_0, # of connection points: 4
#     Node 5, Type 0, BuildingBlock: TATPOV_clean_sbu_0, # of connection points: 4
#     Node 6, Type 0, BuildingBlock: TATPOV_clean_sbu_0, # of connection points: 4
#     Node 7, Type 0, BuildingBlock: TATPOV_clean_sbu_0, # of connection points: 4
#     Edge 8, Type (0, 0), BuildingBlock: ZUJKAS_clean_linker_0, # of connection points: 2
#     Edge 9, Type (0, 0), BuildingBlock: ZUJKAS_clean_linker_0, # of connection points: 2
#     Edge 10, Type (0, 0), BuildingBlock: ZUJKAS_clean_linker_0, # of connection points: 2
#     Edge 11, Type (0, 0), BuildingBlock: ZUJKAS_clean_linker_0, # of connection points: 2
#     Edge 12, Type (0, 0), BuildingBlock: ZUJKAS_clean_linker_0, # of connection points: 2
#     Edge 13, Type (0, 0), BuildingBlock: ZUJKAS_clean_linker_0, # of connection points: 2
#     Edge 14, Type (0, 0), BuildingBlock: ZUJKAS_clean_linker_0, # of connection points: 2
#     Edge 15, Type (0, 0), BuildingBlock: ZUJKAS_clean_linker_0, # of connection points: 2
#     Edge 16, Type (0, 0), BuildingBlock: ZUJKAS_clean_linker_0, # of connection points: 2
#     Edge 17, Type (0, 0), BuildingBlock: ZUJKAS_clean_linker_0, # of connection points: 2
#     Edge 18, Type (0, 0), BuildingBlock: ZUJKAS_clean_linker_0, # of connection points: 2
#     Edge 19, Type (0, 0), BuildingBlock: ZUJKAS_clean_linker_0, # of connection points: 2
#     Edge 20, Type (0, 0), BuildingBlock: ZUJKAS_clean_linker_0, # of connection points: 2
#     Edge 21, Type (0, 0), BuildingBlock: ZUJKAS_clean_linker_0, # of connection points: 2
#     Edge 22, Type (0, 0), BuildingBlock: ZUJKAS_clean_linker_0, # of connection points: 2
#     Edge 23, Type (0, 0), BuildingBlock: ZUJKAS_clean_linker_0, # of connection points: 2
# Relax obj value: 0.178
# Max RMSD: 0.172
# Mean RMSD: 0.172
data_MOF--net-upa--node1-TATPOV_clean_sbu_0--edge1-ZUJKAS_clean_linker_0
_symmetry_space_group_name_H-M    P1
_symmetry_Int_Tables_number       1
_symmetry_cell_setting            triclinic
loop_
_symmetry_equiv_pos_as_xyz
'x, y, z'
_cell_length_a     34.085261
_cell_length_b     34.097057
_cell_length_c     56.028667
_cell_angle_alpha  90.02461
_cell_angle_beta   89.955428
_cell_angle_gamma 90.01583
loop_
_atom_site_label
_atom_site_type_symbol
_atom_site_fract_x
_atom_site_fract_y
_atom_site_fract_z
_atom_type_partial_charge
Zn0 Zn 0.08795 0.23063 0.36704 0.0
Zn1 Zn 0.1374 0.25221 0.33703 0.0
O2 O 0.08706 0.27719 0.32143 0.0
O3 O 0.04509 0.24926 0.34598 0.0
O4 O 0.18526 0.26365 0.31644 0.0
O5 O 0.10573 0.26153 0.39466 0.0
O6 O 0.15674 0.26963 0.3713 0.0
C7 C 0.05168 0.26891 0.32726 0.0
C8 C 0.11952 0.16542 0.34554 0.0
O9 O 0.13268 0.19278 0.33238 0.0
O10 O 0.10217 0.17371 0.36483 0.0
C11 C 0.19092 0.24488 0.2971 0.0
O12 O 0.16274 0.22234 0.28885 0.0
C13 C 0.14072 0.27274 0.39187 0.0
Zn14 Zn 0.23681 0.54449 0.86827 0.0
Zn15 Zn 0.24315 0.63933 0.83017 0.0
O16 O 0.20668 0.60547 0.80826 0.0
O17 O 0.21954 0.57302 0.83956 0.0
O18 O 0.244 0.696 0.81902 0.0
O19 O 0.23083 0.58646 0.89312 0.0
O20 O 0.23629 0.63797 0.8682 0.0
C21 C 0.20666 0.57252 0.81858 0.0
C22 C 0.30316 0.58285 0.83162 0.0
O23 O 0.29678 0.6164 0.82256 0.0
O24 O 0.2778 0.5683 0.84559 0.0
C25 C 0.25249 0.70314 0.79734 0.0
O26 O 0.2586 0.6735 0.78281 0.0
C27 C 0.23221 0.62346 0.88936 0.0
Zn28 Zn 0.92545 0.74737 0.36576 0.0
Zn29 Zn 0.86939 0.75514 0.33448 0.0
O30 O 0.91325 0.72365 0.31661 0.0
O31 O 0.95777 0.71357 0.34438 0.0
O32 O 0.82103 0.75627 0.31281 0.0
O33 O 0.89318 0.72554 0.39215 0.0
O34 O 0.84508 0.73935 0.36748 0.0
C35 C 0.9468 0.71038 0.3229 0.0
C36 C 0.91601 0.82651 0.34793 0.0
O37 O 0.88956 0.81092 0.3351 0.0
O38 O 0.93426 0.80616 0.36325 0.0
C39 C 0.80582 0.78843 0.30579 0.0
O40 O 0.823 0.82163 0.31138 0.0
C41 C 0.85686 0.72826 0.38805 0.0
Zn42 Zn 0.74301 0.42138 0.87092 0.0
Zn43 Zn 0.74646 0.36633 0.83838 0.0
O44 O 0.77572 0.41375 0.82228 0.0
O45 O 0.7728 0.4586 0.85053 0.0
O46 O 0.75038 0.3192 0.81588 0.0
O47 O 0.76924 0.3909 0.89648 0.0
O48 O 0.7641 0.34206 0.87103 0.0
C49 C 0.78256 0.44868 0.8296 0.0
C50 C 0.66763 0.40114 0.85189 0.0
O51 O 0.68819 0.37895 0.83864 0.0
O52 O 0.68381 0.42123 0.86817 0.0
C53 C 0.72322 0.31096 0.80108 0.0
O54 O 0.69387 0.3355 0.79847 0.0
C55 C 0.77255 0.3548 0.89185 0.0
Zn56 Zn 0.57235 0.24907 0.13476 0.0
Zn57 Zn 0.63098 0.25594 0.16452 0.0
O58 O 0.58879 0.22343 0.18305 0.0
O59 O 0.54281 0.21283 0.15624 0.0
O60 O 0.68068 0.25676 0.1849 0.0
O61 O 0.60323 0.23001 0.10698 0.0
O62 O 0.65314 0.24035 0.13096 0.0
C63 C 0.55528 0.20933 0.1774 0.0
C64 C 0.58223 0.32735 0.15411 0.0
O65 O 0.61079 0.31189 0.16522 0.0
O66 O 0.56243 0.30724 0.13937 0.0
C67 C 0.68939 0.28533 0.19857 0.0
O68 O 0.66422 0.31417 0.20116 0.0
C69 C 0.63984 0.23101 0.1104 0.0
Zn70 Zn 0.23403 0.08286 0.63824 0.0
Zn71 Zn 0.24561 0.14184 0.66578 0.0
O72 O 0.27842 0.09762 0.68227 0.0
O73 O 0.26998 0.04874 0.6571 0.0
O74 O 0.25416 0.19217 0.68429 0.0
O75 O 0.25025 0.10767 0.60809 0.0
O76 O 0.25649 0.16025 0.63043 0.0
C77 C 0.28407 0.06179 0.67642 0.0
C78 C 0.16481 0.10554 0.66332 0.0
O79 O 0.18799 0.13002 0.67301 0.0
O80 O 0.17688 0.08303 0.64693 0.0
C81 C 0.24441 0.19588 0.70608 0.0
O82 O 0.23148 0.16504 0.71775 0.0
C83 C 0.25709 0.14394 0.60988 0.0
Zn84 Zn 0.4149 0.71454 0.1343 0.0
Zn85 Zn 0.3647 0.74349 0.16116 0.0
O86 O 0.41495 0.76904 0.17638 0.0
O87 O 0.4573 0.73546 0.15493 0.0
O88 O 0.31648 0.75983 0.18005 0.0
O89 O 0.40058 0.74094 0.10446 0.0
O90 O 0.34875 0.75697 0.12554 0.0
C91 C 0.45037 0.75884 0.17195 0.0
C92 C 0.37873 0.6548 0.15851 0.0
O93 O 0.36607 0.68481 0.16955 0.0
O94 O 0.39804 0.65901 0.13943 0.0
C95 C 0.31161 0.74644 0.20105 0.0
O96 O 0.34055 0.72721 0.21117 0.0
C97 C 0.36649 0.75525 0.10541 0.0
Zn98 Zn 0.76275 0.92477 0.63528 0.0
Zn99 Zn 0.75734 0.8644 0.66371 0.0
O100 O 0.72847 0.90912 0.68218 0.0
O101 O 0.73035 0.95855 0.65686 0.0
O102 O 0.75092 0.81399 0.68235 0.0
O103 O 0.74015 0.89897 0.60651 0.0
O104 O 0.74289 0.84639 0.62911 0.0
C105 C 0.72085 0.94482 0.67701 0.0
C106 C 0.83636 0.90101 0.65705 0.0
O107 O 0.8151 0.87589 0.66768 0.0
O108 O 0.82158 0.92355 0.64147 0.0
C109 C 0.76183 0.81018 0.70392 0.0
O110 O 0.77486 0.84105 0.7155 0.0
C111 C 0.7365 0.86231 0.60886 0.0
H112 H 0.11898 0.09744 0.37067 0.0
H113 H 0.09102 0.03547 0.35701 0.0
H114 H 0.07966 0.08233 0.28587 0.0
H115 H 0.10881 0.14421 0.29929 0.0
H116 H 0.007 0.06198 0.31243 0.0
H117 H 0.11548 0.94117 0.31057 0.0
H118 H 0.12201 0.97434 0.3352 0.0
H119 H 0.12855 0.99186 0.30519 0.0
C120 C 0.11229 0.09385 0.35189 0.0
C121 C 0.11581 0.12547 0.33606 0.0
C122 C 0.09639 0.05849 0.34408 0.0
C123 C 0.08335 0.05455 0.32047 0.0
C124 C 0.08994 0.08488 0.3041 0.0
H125 H 0.90542 0.86764 0.3066 0.0
H126 H 0.94257 0.92552 0.29391 0.0
C127 C 0.10672 0.12006 0.31179 0.0
C128 C 0.05611 0.02239 0.31485 0.0
H129 H 0.0488 0.92345 0.32096 0.0
C130 C 0.016 0.03151 0.3134 0.0
C131 C 0.06818 0.98295 0.31612 0.0
C132 C 0.11097 0.97188 0.31663 0.0
C133 C 0.98742 0.00218 0.31579 0.0
C134 C 0.99966 0.96315 0.31945 0.0
C135 C 0.03969 0.95366 0.31847 0.0
C136 C 0.97234 0.93263 0.3277 0.0
C137 C 0.94463 0.01337 0.31654 0.0
C138 C 0.97598 0.91861 0.35111 0.0
C139 C 0.95513 0.88561 0.35837 0.0
C140 C 0.93024 0.86621 0.34231 0.0
C141 C 0.9243 0.88214 0.31941 0.0
C142 C 0.94553 0.91507 0.31207 0.0
H143 H 0.94011 0.04535 0.3139 0.0
H144 H 0.92844 0.99733 0.3024 0.0
H145 H 0.93179 0.00476 0.33399 0.0
H146 H 0.99641 0.93216 0.36342 0.0
H147 H 0.96006 0.87413 0.37614 0.0
H148 H 0.33096 0.52182 0.85719 0.0
H149 H 0.39096 0.4851 0.85074 0.0
H150 H 0.41659 0.55511 0.78848 0.0
H151 H 0.35652 0.59341 0.7954 0.0
H152 H 0.4181 0.4404 0.81421 0.0
H153 H 0.51319 0.57132 0.82906 0.0
H154 H 0.46116 0.57239 0.83473 0.0
H155 H 0.47926 0.57404 0.80462 0.0
C156 C 0.34926 0.52951 0.84208 0.0
C157 C 0.33941 0.56082 0.82695 0.0
C158 C 0.38342 0.50825 0.83832 0.0
C159 C 0.4083 0.51755 0.81925 0.0
C160 C 0.39801 0.54795 0.80354 0.0
H161 H 0.62886 0.38346 0.81056 0.0
H162 H 0.5638 0.40686 0.79875 0.0
C163 C 0.36385 0.56978 0.80751 0.0
C164 C 0.44616 0.49682 0.81744 0.0
H165 H 0.54383 0.51022 0.82741 0.0
C166 C 0.44579 0.4556 0.8166 0.0
C167 C 0.48205 0.5169 0.82073 0.0
C168 C 0.48419 0.56106 0.82251 0.0
C169 C 0.4801 0.43386 0.82048 0.0
C170 C 0.51544 0.45403 0.82491 0.0
C171 C 0.51634 0.49511 0.82412 0.0
C172 C 0.55118 0.43375 0.83286 0.0
C173 C 0.47802 0.38971 0.8214 0.0
C174 C 0.56484 0.44036 0.8561 0.0
C175 C 0.60192 0.4274 0.86284 0.0
C176 C 0.62588 0.40756 0.84641 0.0
C177 C 0.61097 0.39856 0.82363 0.0
C178 C 0.57387 0.41185 0.81683 0.0
H179 H 0.44758 0.37863 0.81921 0.0
H180 H 0.49651 0.37713 0.807 0.0
H181 H 0.4898 0.37902 0.83869 0.0
H182 H 0.54749 0.45718 0.86868 0.0
H183 H 0.6125 0.43449 0.88055 0.0
H184 H 0.53413 0.37552 0.12895 0.0
H185 H 0.49657 0.43065 0.14474 0.0
H186 H 0.55673 0.42048 0.21213 0.0
H187 H 0.59504 0.36542 0.19634 0.0
H188 H 0.44823 0.41698 0.18905 0.0
H189 H 0.55367 0.54187 0.19507 0.0
H190 H 0.56155 0.50297 0.17371 0.0
H191 H 0.56756 0.49347 0.20494 0.0
C192 C 0.54017 0.38567 0.1469 0.0
C193 C 0.56731 0.36606 0.16144 0.0
C194 C 0.51858 0.41696 0.15594 0.0
C195 C 0.52367 0.4291 0.17964 0.0
C196 C 0.55255 0.41144 0.19377 0.0
H197 H 0.38972 0.64048 0.20566 0.0
H198 H 0.41717 0.57977 0.22196 0.0
C199 C 0.57452 0.3802 0.18465 0.0
C200 C 0.49622 0.45816 0.18958 0.0
H201 H 0.48641 0.55661 0.19714 0.0
C202 C 0.45659 0.44741 0.19155 0.0
C203 C 0.50748 0.49746 0.19333 0.0
C204 C 0.54984 0.50997 0.19172 0.0
C205 C 0.42738 0.47581 0.19462 0.0
C206 C 0.43827 0.51566 0.19549 0.0
C207 C 0.47819 0.5259 0.1964 0.0
C208 C 0.41021 0.54688 0.18924 0.0
C209 C 0.38498 0.46332 0.19504 0.0
C210 C 0.39551 0.54769 0.16584 0.0
C211 C 0.38059 0.58235 0.15639 0.0
C212 C 0.3797 0.61645 0.17034 0.0
C213 C 0.3898 0.61437 0.19463 0.0
C214 C 0.4056 0.57981 0.20396 0.0
H215 H 0.38179 0.43343 0.2027 0.0
H216 H 0.36681 0.48415 0.20555 0.0
H217 H 0.37358 0.46254 0.17649 0.0
H218 H 0.3994 0.52276 0.15407 0.0
H219 H 0.3731 0.5834 0.13761 0.0
H220 H 0.14555 0.0997 0.71024 0.0
H221 H 0.0877 0.06514 0.72596 0.0
H222 H 0.03997 0.05829 0.65482 0.0
H223 H 0.09788 0.09158 0.63904 0.0
H224 H 0.98437 0.07202 0.70102 0.0
H225 H 0.08556 0.94352 0.69776 0.0
H226 H 0.10011 0.98936 0.71126 0.0
H227 H 0.09589 0.98579 0.67945 0.0
C228 C 0.12182 0.09232 0.69819 0.0
C229 C 0.12591 0.09801 0.67346 0.0
C230 C 0.08903 0.07248 0.70716 0.0
C231 C 0.06 0.05909 0.69145 0.0
C232 C 0.0622 0.06858 0.66715 0.0
H233 H 0.89767 0.93104 0.63208 0.0
H234 H 0.95566 0.96256 0.64912 0.0
C235 C 0.09515 0.08759 0.65816 0.0
C236 C 0.03092 0.02961 0.69879 0.0
H237 H 0.01778 0.93084 0.69339 0.0
C238 C 0.99159 0.04104 0.70051 0.0
C239 C 0.04071 0.98932 0.69803 0.0
C240 C 0.08284 0.97594 0.69659 0.0
C241 C 0.9615 0.01316 0.69908 0.0
C242 C 0.97134 0.97334 0.69543 0.0
C243 C 0.0106 0.9615 0.69617 0.0
C244 C 0.94209 0.94622 0.6855 0.0
C245 C 0.91937 0.02667 0.69902 0.0
C246 C 0.91681 0.92494 0.70033 0.0
C247 C 0.88399 0.9063 0.69056 0.0
C248 C 0.87597 0.90957 0.66599 0.0
C249 C 0.90319 0.92821 0.65104 0.0
C250 C 0.9362 0.9462 0.66074 0.0
H251 H 0.91643 0.0576 0.70502 0.0
H252 H 0.90729 0.0242 0.68069 0.0
H253 H 0.90141 0.00766 0.71085 0.0
H254 H 0.92105 0.92488 0.71949 0.0
H255 H 0.86321 0.89237 0.7025 0.0
H256 H 0.22061 0.28507 0.39586 0.0
H257 H 0.25884 0.28327 0.43295 0.0
H258 H 0.1515 0.27563 0.4736 0.0
H259 H 0.11362 0.28027 0.43725 0.0
H260 H 0.20208 0.31192 0.49882 0.0
H261 H 0.27541 0.17914 0.46193 0.0
H262 H 0.28587 0.22404 0.44656 0.0
H263 H 0.23695 0.20405 0.44607 0.0
C264 C 0.20525 0.28431 0.41278 0.0
C265 C 0.16406 0.28187 0.41352 0.0
C266 C 0.22715 0.2827 0.43397 0.0
C267 C 0.20818 0.27759 0.45609 0.0
C268 C 0.16706 0.27907 0.45685 0.0
H269 H 0.23553 0.12125 0.56553 0.0
H270 H 0.23283 0.16006 0.52952 0.0
C271 C 0.1453 0.28155 0.43589 0.0
C272 C 0.22977 0.26642 0.4782 0.0
H273 H 0.2836 0.19183 0.50226 0.0
C274 C 0.22034 0.28591 0.49958 0.0
C275 C 0.2537 0.23245 0.47921 0.0
C276 C 0.26341 0.20846 0.4573 0.0
C277 C 0.2308 0.27041 0.52194 0.0
C278 C 0.25331 0.23554 0.52294 0.0
C279 C 0.26614 0.2184 0.50149 0.0
C280 C 0.25796 0.21237 0.54532 0.0
C281 C 0.21475 0.28981 0.54412 0.0
C282 C 0.27347 0.22842 0.56646 0.0
C283 C 0.2741 0.20624 0.5876 0.0
C284 C 0.26035 0.16733 0.58767 0.0
C285 C 0.24665 0.151 0.5662 0.0
C286 C 0.24513 0.17327 0.54544 0.0
H287 H 0.19161 0.31168 0.53993 0.0
H288 H 0.20215 0.26769 0.55648 0.0
H289 H 0.23884 0.30533 0.55349 0.0
H290 H 0.28461 0.25813 0.56674 0.0
H291 H 0.28502 0.21954 0.60385 0.0
H292 H 0.22444 0.70407 0.89179 0.0
H293 H 0.23303 0.74564 0.92726 0.0
H294 H 0.25637 0.64259 0.96966 0.0
H295 H 0.2458 0.60138 0.93516 0.0
H296 H 0.21313 0.6899 0.99393 0.0
H297 H 0.33595 0.77609 0.9548 0.0
H298 H 0.28984 0.78029 0.93959 0.0
H299 H 0.31531 0.73409 0.9399 0.0
C300 C 0.23092 0.6904 0.90878 0.0
C301 C 0.23437 0.64939 0.91058 0.0
C302 C 0.2362 0.7142 0.929 0.0
C303 C 0.24606 0.69739 0.95113 0.0
C304 C 0.24864 0.65643 0.95289 0.0
H305 H 0.39593 0.74598 0.06076 0.0
H306 H 0.35995 0.74292 0.02377 0.0
C307 C 0.24261 0.63279 0.933 0.0
C308 C 0.25513 0.7214 0.97263 0.0
H309 H 0.32225 0.78584 0.99515 0.0
C310 C 0.23674 0.71124 0.99421 0.0
C311 C 0.2858 0.74942 0.97293 0.0
C312 C 0.30814 0.7605 0.95065 0.0
C313 C 0.25056 0.72511 0.01624 0.0
C314 C 0.28228 0.75203 0.01666 0.0
C315 C 0.29804 0.76518 0.99487 0.0
C316 C 0.30431 0.76087 0.03901 0.0
C317 C 0.23321 0.7079 0.03874 0.0
C318 C 0.28575 0.77381 0.06005 0.0
C319 C 0.3063 0.77441 0.08178 0.0
C320 C 0.346 0.76324 0.08257 0.0
C321 C 0.36526 0.75432 0.06102 0.0
C322 C 0.34464 0.75274 0.03964 0.0
H323 H 0.21459 0.68185 0.03503 0.0
H324 H 0.25666 0.69894 0.05135 0.0
H325 H 0.2145 0.73019 0.0476 0.0
H326 H 0.25504 0.7818 0.05992 0.0
H327 H 0.29073 0.78192 0.098 0.0
H328 H 0.76325 0.78798 0.60068 0.0
H329 H 0.76963 0.75597 0.56173 0.0
H330 H 0.70405 0.8499 0.52913 0.0
H331 H 0.69913 0.88285 0.56779 0.0
H332 H 0.72427 0.72891 0.52514 0.0
H333 H 0.80851 0.85985 0.49619 0.0
H334 H 0.79363 0.85249 0.52672 0.0
H335 H 0.75933 0.87134 0.50516 0.0
C336 C 0.74933 0.80128 0.58531 0.0
C337 C 0.7312 0.83818 0.58718 0.0
C338 C 0.75309 0.78301 0.56304 0.0
C339 C 0.73837 0.80117 0.5424 0.0
C340 C 0.71671 0.83598 0.5447 0.0
H341 H 0.78351 0.76031 0.39165 0.0
H342 H 0.74729 0.77239 0.4287 0.0
C343 C 0.71363 0.85462 0.56682 0.0
C344 C 0.74908 0.78599 0.51841 0.0
H345 H 0.79663 0.81153 0.46701 0.0
C346 C 0.73992 0.74701 0.51239 0.0
C347 C 0.77013 0.80944 0.50189 0.0
C348 C 0.78387 0.85043 0.50786 0.0
C349 C 0.75103 0.73106 0.49021 0.0
C350 C 0.77145 0.75478 0.47371 0.0
C351 C 0.78027 0.79372 0.47962 0.0
C352 C 0.78716 0.73936 0.45095 0.0
C353 C 0.74118 0.68901 0.4845 0.0
C354 C 0.82079 0.71573 0.45117 0.0
C355 C 0.84173 0.70907 0.43011 0.0
C356 C 0.82932 0.72589 0.40846 0.0
C357 C 0.79372 0.74673 0.40797 0.0
C358 C 0.77303 0.75376 0.42913 0.0
H359 H 0.71995 0.67639 0.49745 0.0
H360 H 0.72878 0.68674 0.46623 0.0
H361 H 0.76842 0.6712 0.48498 0.0
H362 H 0.83243 0.70481 0.46789 0.0
H363 H 0.86903 0.69288 0.43108 0.0
H364 H 0.81599 0.36759 0.93172 0.0
H365 H 0.8098 0.33287 0.96964 0.0
H366 H 0.73279 0.24858 0.93639 0.0
H367 H 0.74031 0.28235 0.8982 0.0
H368 H 0.74132 0.33222 0.99059 0.0
H369 H 0.78959 0.17806 0.98174 0.0
H370 H 0.80285 0.21527 0.96027 0.0
H371 H 0.75564 0.19166 0.95877 0.0
C372 C 0.79916 0.34064 0.93228 0.0
C373 C 0.77862 0.32766 0.91204 0.0
C374 C 0.79549 0.3209 0.95399 0.0
C375 C 0.77081 0.28807 0.95597 0.0
C376 C 0.75269 0.27327 0.9353 0.0
H377 H 0.62206 0.20279 0.06612 0.0
H378 H 0.66015 0.21165 0.02958 0.0
C379 C 0.75696 0.29266 0.91342 0.0
C380 C 0.75877 0.27398 0.98 0.0
H381 H 0.74524 0.19217 0.01434 0.0
C382 C 0.74301 0.30169 0.99592 0.0
C383 C 0.76038 0.23406 0.9869 0.0
C384 C 0.77839 0.20314 0.97108 0.0
C385 C 0.72791 0.29055 0.01815 0.0
C386 C 0.72877 0.25061 0.02483 0.0
C387 C 0.74491 0.22281 0.00917 0.0
C388 C 0.71017 0.23749 0.04731 0.0
C389 C 0.70964 0.32138 0.03402 0.0
C390 C 0.72649 0.24756 0.06947 0.0
C391 C 0.70482 0.24247 0.09048 0.0
C392 C 0.66638 0.22749 0.08955 0.0
C393 C 0.65147 0.21464 0.06746 0.0
C394 C 0.67322 0.21955 0.04654 0.0
H395 H 0.70674 0.35014 0.02486 0.0
H396 H 0.68013 0.31179 0.04007 0.0
H397 H 0.72816 0.32554 0.0501 0.0
H398 H 0.75506 0.26141 0.07036 0.0
H399 H 0.71715 0.2527 0.10717 0.0
H400 H 0.55408 0.23224 0.22421 0.0
H401 H 0.49618 0.23341 0.25012 0.0
H402 H 0.43164 0.16658 0.19793 0.0
H403 H 0.48922 0.16511 0.17209 0.0
H404 H 0.42783 0.27031 0.23422 0.0
H405 H 0.39534 0.1172 0.26048 0.0
H406 H 0.44306 0.13241 0.24989 0.0
H407 H 0.40411 0.12264 0.22907 0.0
C408 C 0.52815 0.21624 0.21873 0.0
C409 C 0.52631 0.19854 0.19606 0.0
C410 C 0.4949 0.21732 0.23346 0.0
C411 C 0.45952 0.2001 0.22599 0.0
C412 C 0.45868 0.17959 0.20428 0.0
H413 H 0.21273 0.20648 0.25638 0.0
H414 H 0.27891 0.1977 0.2405 0.0
C415 C 0.49172 0.17874 0.18949 0.0
C416 C 0.42229 0.2079 0.23904 0.0
H417 H 0.34213 0.16298 0.26339 0.0
C418 C 0.40935 0.24691 0.24098 0.0
C419 C 0.39805 0.17735 0.24763 0.0
C420 C 0.41097 0.13507 0.24689 0.0
C421 C 0.37217 0.25606 0.25036 0.0
C422 C 0.34752 0.22541 0.25844 0.0
C423 C 0.36092 0.18648 0.25708 0.0
C424 C 0.30723 0.23285 0.26764 0.0
C425 C 0.35895 0.2983 0.25055 0.0
C426 C 0.30097 0.25592 0.28807 0.0
C427 C 0.263 0.26126 0.29714 0.0
C428 C 0.23056 0.24333 0.28605 0.0
C429 C 0.23693 0.22083 0.26535 0.0
C430 C 0.27482 0.2156 0.25629 0.0
H431 H 0.37708 0.31685 0.23853 0.0
H432 H 0.32777 0.3008 0.24504 0.0
H433 H 0.36168 0.31016 0.26892 0.0
H434 H 0.32554 0.269 0.29737 0.0
H435 H 0.25925 0.27845 0.31323 0.0
H436 H 0.24969 0.77159 0.82334 0.0
H437 H 0.26293 0.83835 0.80909 0.0
H438 H 0.28108 0.79382 0.73791 0.0
H439 H 0.26833 0.72727 0.75193 0.0
H440 H 0.34129 0.84505 0.75449 0.0
H441 H 0.19239 0.90897 0.7673 0.0
H442 H 0.21419 0.88497 0.79261 0.0
H443 H 0.20076 0.85668 0.76686 0.0
C444 C 0.25617 0.77606 0.80461 0.0
C445 C 0.25798 0.74401 0.78878 0.0
C446 C 0.26363 0.81426 0.79649 0.0
C447 C 0.2728 0.82109 0.7724 0.0
C448 C 0.27414 0.78923 0.75657 0.0
H449 H 0.31458 0.98996 0.6667 0.0
H450 H 0.3187 0.93484 0.69406 0.0
C451 C 0.26674 0.75116 0.76463 0.0
C452 C 0.282 0.86111 0.76349 0.0
H453 H 0.24049 0.94966 0.75045 0.0
C454 C 0.31938 0.8681 0.75383 0.0
C455 C 0.25361 0.89133 0.76294 0.0
C456 C 0.21286 0.8853 0.77282 0.0
C457 C 0.32872 0.90398 0.7429 0.0
C458 C 0.29963 0.93344 0.74109 0.0
C459 C 0.26286 0.92716 0.75183 0.0
C460 C 0.30476 0.96865 0.72566 0.0
C461 C 0.36958 0.90967 0.73314 0.0
C462 C 0.29634 0.0065 0.73425 0.0
C463 C 0.29383 0.03837 0.71847 0.0
C464 C 0.29917 0.03271 0.69381 0.0
C465 C 0.31049 0.99539 0.6856 0.0
C466 C 0.31301 0.96373 0.7013 0.0
H467 H 0.39137 0.89264 0.74362 0.0
H468 H 0.37067 0.89873 0.71449 0.0
H469 H 0.37831 0.94104 0.73325 0.0
H470 H 0.2897 0.01101 0.75296 0.0
H471 H 0.28455 0.06659 0.72533 0.0
H472 H 0.76836 0.85213 0.2872 0.0
H473 H 0.70434 0.85459 0.26785 0.0
H474 H 0.69289 0.72926 0.27547 0.0
H475 H 0.75691 0.72657 0.2953 0.0
H476 H 0.68036 0.82093 0.22711 0.0
H477 H 0.58849 0.76743 0.30187 0.0
H478 H 0.63888 0.78243 0.30584 0.0
H479 H 0.62762 0.73436 0.29447 0.0
C480 C 0.75226 0.82501 0.28486 0.0
C481 C 0.76775 0.78914 0.29293 0.0
C482 C 0.71556 0.82653 0.27381 0.0
C483 C 0.69336 0.79228 0.27066 0.0
C484 C 0.709 0.75625 0.27828 0.0
H485 H 0.52442 0.73046 0.16956 0.0
H486 H 0.57972 0.74453 0.19511 0.0
C487 C 0.74581 0.75468 0.28938 0.0
C488 C 0.65481 0.79418 0.25829 0.0
H489 H 0.55818 0.76824 0.26312 0.0
C490 C 0.65358 0.80992 0.23516 0.0
C491 C 0.61963 0.7805 0.2689 0.0
C492 C 0.61853 0.76561 0.29423 0.0
C493 C 0.61867 0.81047 0.22193 0.0
C494 C 0.58411 0.79443 0.23193 0.0
C495 C 0.58474 0.7805 0.25548 0.0
C496 C 0.54908 0.78685 0.21693 0.0
C497 C 0.61925 0.82725 0.19702 0.0
C498 C 0.51284 0.80545 0.22104 0.0
C499 C 0.48039 0.79728 0.2063 0.0
C500 C 0.48395 0.77038 0.18736 0.0
C501 C 0.52042 0.75186 0.18365 0.0
C502 C 0.55233 0.75981 0.19829 0.0
H503 H 0.64411 0.84793 0.1945 0.0
H504 H 0.62271 0.80303 0.18395 0.0
H505 H 0.59139 0.84278 0.193 0.0
H506 H 0.50976 0.82629 0.23552 0.0
H507 H 0.45269 0.81175 0.20978 0.0
H508 H 0.66118 0.27762 0.77805 0.0
H509 H 0.65713 0.2124 0.76034 0.0
H510 H 0.77847 0.1916 0.77808 0.0
H511 H 0.78233 0.25655 0.79671 0.0
H512 H 0.6945 0.18042 0.72384 0.0
H513 H 0.72946 0.09435 0.80493 0.0
H514 H 0.7192 0.14623 0.80601 0.0
H515 H 0.76699 0.12896 0.79722 0.0
C516 C 0.68709 0.25925 0.7782 0.0
C517 C 0.72207 0.27228 0.78892 0.0
C518 C 0.68467 0.22184 0.76809 0.0
C519 C 0.71719 0.1966 0.76831 0.0
C520 C 0.75258 0.20997 0.77834 0.0
H521 H 0.7727 0.97073 0.70911 0.0
H522 H 0.76834 0.031 0.73255 0.0
C523 C 0.75489 0.24729 0.78877 0.0
C524 C 0.71409 0.15684 0.75739 0.0
H525 H 0.72733 0.05911 0.76831 0.0
C526 C 0.70139 0.15386 0.73362 0.0
C527 C 0.723 0.12212 0.77015 0.0
C528 C 0.73506 0.12294 0.79605 0.0
C529 C 0.69857 0.11742 0.72201 0.0
C530 C 0.70785 0.08264 0.73469 0.0
C531 C 0.72005 0.08562 0.75858 0.0
C532 C 0.70803 0.04332 0.72299 0.0
C533 C 0.68722 0.11692 0.69597 0.0
C534 C 0.67508 0.02898 0.71058 0.0
C535 C 0.67786 0.99478 0.69673 0.0
C536 C 0.71304 0.97351 0.69603 0.0
C537 C 0.7449 0.98613 0.70992 0.0
C538 C 0.7425 0.02076 0.72317 0.0
H539 H 0.69107 0.14614 0.68751 0.0
H540 H 0.70492 0.09521 0.68585 0.0
H541 H 0.6558 0.10882 0.69436 0.0
H542 H 0.64772 0.04508 0.71076 0.0
H543 H 0.65317 0.98589 0.68583 0.0
H544 H 0.04377 0.32466 0.2912 0.0
H545 H 0.98464 0.33659 0.26667 0.0
H546 H 0.92536 0.24178 0.30263 0.0
H547 H 0.98254 0.23058 0.32714 0.0
H548 H 0.94133 0.28695 0.23567 0.0
H549 H 0.84934 0.33157 0.31221 0.0
H550 H 0.90215 0.32892 0.31409 0.0
H551 H 0.87274 0.28536 0.3176 0.0
C552 C 0.01795 0.30668 0.29389 0.0
C553 C 0.01763 0.27737 0.31155 0.0
C554 C 0.98429 0.31341 0.27987 0.0
C555 C 0.95018 0.29073 0.28331 0.0
C556 C 0.95072 0.26053 0.30019 0.0
H557 H 0.74885 0.23083 0.19804 0.0
H558 H 0.81341 0.236 0.21692 0.0
C559 C 0.98369 0.25419 0.31423 0.0
C560 C 0.91353 0.29761 0.26957 0.0
H561 H 0.8148 0.30832 0.27754 0.0
C562 C 0.91372 0.29236 0.24472 0.0
C563 C 0.8775 0.30509 0.28132 0.0
C564 C 0.87544 0.31347 0.30775 0.0
C565 C 0.87856 0.29244 0.23151 0.0
C566 C 0.84229 0.29702 0.24359 0.0
C567 C 0.84244 0.3042 0.26826 0.0
C568 C 0.80369 0.29419 0.23126 0.0
C569 C 0.88068 0.28759 0.20479 0.0
C570 C 0.77613 0.32453 0.23365 0.0
C571 C 0.739 0.32135 0.22325 0.0
C572 C 0.72847 0.28771 0.21019 0.0
C573 C 0.75601 0.2572 0.20789 0.0
C574 C 0.79315 0.26032 0.21845 0.0
H575 H 0.90966 0.297 0.19773 0.0
H576 H 0.87671 0.25617 0.20023 0.0
H577 H 0.85737 0.30475 0.19572 0.0
H578 H 0.78336 0.35081 0.2436 0.0
H579 H 0.71862 0.34547 0.22538 0.0
H580 H 0.25325 0.26741 0.68446 0.0
H581 H 0.24588 0.33238 0.7026 0.0
H582 H 0.2253 0.27874 0.77111 0.0
H583 H 0.23233 0.21363 0.75316 0.0
H584 H 0.17515 0.35865 0.72963 0.0
H585 H 0.3135 0.36378 0.78206 0.0
H586 H 0.30715 0.33195 0.75656 0.0
H587 H 0.28505 0.31952 0.78463 0.0
C588 C 0.2476 0.26938 0.70345 0.0
C589 C 0.24342 0.23526 0.71737 0.0
C590 C 0.24324 0.30655 0.71374 0.0
C591 C 0.23521 0.31034 0.73819 0.0
C592 C 0.23182 0.27644 0.75224 0.0
H593 H 0.20186 0.49965 0.83811 0.0
H594 H 0.20586 0.43672 0.81754 0.0
C595 C 0.23579 0.23925 0.74193 0.0
C596 C 0.22897 0.34965 0.74891 0.0
H597 H 0.26741 0.41434 0.78909 0.0
C598 C 0.19538 0.37103 0.74253 0.0
C599 C 0.25539 0.36556 0.76574 0.0
C600 C 0.29251 0.34428 0.77261 0.0
C601 C 0.18695 0.40755 0.75305 0.0
C602 C 0.21328 0.42342 0.77002 0.0
C603 C 0.24714 0.40214 0.77614 0.0
C604 C 0.20619 0.46169 0.78206 0.0
C605 C 0.14937 0.42822 0.74647 0.0
C606 C 0.20407 0.49681 0.76896 0.0
C607 C 0.20147 0.53305 0.78074 0.0
C608 C 0.20131 0.53477 0.80581 0.0
C609 C 0.20184 0.49944 0.81878 0.0
C610 C 0.20432 0.46337 0.80705 0.0
H611 H 0.12793 0.4079 0.73809 0.0
H612 H 0.13555 0.44179 0.76242 0.0
H613 H 0.15597 0.45186 0.73347 0.0
H614 H 0.20613 0.49635 0.74968 0.0
H615 H 0.20167 0.55972 0.77025 0.0
H616 H 0.29183 0.71996 0.24544 0.0
H617 H 0.22621 0.71259 0.26234 0.0
H618 H 0.17609 0.76537 0.19945 0.0
H619 H 0.24182 0.77247 0.18219 0.0
H620 H 0.16854 0.76782 0.27253 0.0
H621 H 0.11628 0.66113 0.20453 0.0
H622 H 0.16742 0.67375 0.20788 0.0
H623 H 0.13452 0.70681 0.193 0.0
C624 C 0.26695 0.73032 0.23522 0.0
C625 C 0.27217 0.74661 0.21237 0.0
C626 C 0.22939 0.72599 0.24491 0.0
C627 C 0.19614 0.73764 0.23197 0.0
C628 C 0.20125 0.75533 0.20954 0.0
H629 H 0.94946 0.73257 0.27585 0.0
H630 H 0.00897 0.73695 0.25136 0.0
C631 C 0.2389 0.75974 0.19981 0.0
C632 C 0.15635 0.73115 0.24217 0.0
H633 H 0.07074 0.68025 0.23419 0.0
C634 C 0.14716 0.74876 0.2641 0.0
C635 C 0.12837 0.70631 0.23112 0.0
C636 C 0.13708 0.6856 0.20792 0.0
C637 C 0.11096 0.74207 0.27536 0.0
C638 C 0.08337 0.71654 0.26462 0.0
C639 C 0.09205 0.69962 0.24242 0.0
C640 C 0.04588 0.70669 0.27674 0.0
C641 C 0.10248 0.76246 0.29872 0.0
C642 C 0.04641 0.68599 0.29836 0.0
C643 C 0.01251 0.68316 0.31228 0.0
C644 C 0.97733 0.701 0.30486 0.0
C645 C 0.97592 0.71824 0.28204 0.0
C646 C 0.01002 0.72111 0.2681 0.0
H647 H 0.1224 0.78779 0.30172 0.0
H648 H 0.07167 0.77303 0.29931 0.0
H649 H 0.10666 0.74141 0.3136 0.0
H650 H 0.07367 0.67407 0.30515 0.0
H651 H 0.01463 0.66957 0.32971 0.0
H652 H 0.78242 0.44868 0.7804 0.0
H653 H 0.78718 0.5066 0.75452 0.0
H654 H 0.81193 0.57863 0.81599 0.0
H655 H 0.8088 0.52133 0.84153 0.0
H656 H 0.73805 0.56731 0.75699 0.0
H657 H 0.88772 0.62489 0.77018 0.0
H658 H 0.87401 0.57603 0.77934 0.0
H659 H 0.86392 0.61756 0.79832 0.0
C660 C 0.79047 0.4766 0.78822 0.0
C661 C 0.79521 0.48029 0.81305 0.0
C662 C 0.79281 0.50978 0.77344 0.0
C663 C 0.80023 0.54709 0.78322 0.0
C664 C 0.80716 0.55025 0.80782 0.0
H665 H 0.77506 0.79195 0.75077 0.0
H666 H 0.78332 0.72675 0.7683 0.0
C667 C 0.80509 0.51728 0.82249 0.0
C668 C 0.79612 0.58333 0.76859 0.0
H669 H 0.83914 0.67192 0.75723 0.0
C670 C 0.76046 0.5899 0.75666 0.0
C671 C 0.8252 0.61301 0.76826 0.0
C672 C 0.86497 0.60731 0.77953 0.0
C673 C 0.75235 0.62588 0.74545 0.0
C674 C 0.78092 0.65601 0.74587 0.0
C675 C 0.81705 0.64901 0.75712 0.0
C676 C 0.7738 0.69535 0.73522 0.0
C677 C 0.71259 0.63184 0.73417 0.0
C678 C 0.76547 0.69946 0.71082 0.0
C679 C 0.76026 0.7367 0.70081 0.0
C680 C 0.76392 0.77066 0.71493 0.0
C681 C 0.77203 0.76644 0.7394 0.0
C682 C 0.77687 0.72918 0.74943 0.0
H683 H 0.69078 0.61016 0.74076 0.0
H684 H 0.70128 0.6618 0.73777 0.0
H685 H 0.71519 0.62811 0.71456 0.0
H686 H 0.76385 0.67393 0.69937 0.0
H687 H 0.75449 0.73888 0.68185 0.0
loop_
_geom_bond_atom_site_label_1
_geom_bond_atom_site_label_2
_geom_bond_distance
_geom_bond_site_symmetry_2
_ccdc_geom_bond_type
Zn0 O3 2.031 . S
Zn0 O5 2.049 . S
Zn0 O10 2.067 . S
Zn1 O2 1.962 . S
Zn1 O4 1.986 . S
Zn1 O6 1.996 . S
Zn1 O9 1.943 . S
O2 Zn1 1.962 . S
O2 C7 1.254 . S
O3 Zn0 2.031 . S
O3 C7 1.269 . S
O4 Zn1 1.986 . S
O4 C11 1.262 . S
O5 Zn0 2.049 . S
O5 C13 1.260 . S
O6 Zn1 1.996 . S
O6 C13 1.257 . S
C7 O2 1.254 . S
C7 O3 1.269 . S
C8 O9 1.249 . S
C8 O10 1.270 . S
O9 Zn1 1.943 . S
O9 C8 1.249 . S
O10 Zn0 2.067 . S
O10 C8 1.270 . S
C11 O4 1.262 . S
C11 O12 1.232 . S
O12 C11 1.232 . S
C13 O5 1.260 . S
C13 O6 1.257 . S
Zn14 O17 2.031 . S
Zn14 O19 2.049 . S
Zn14 O24 2.067 . S
Zn15 O16 1.962 . S
Zn15 O18 1.986 . S
Zn15 O20 1.996 . S
Zn15 O23 1.943 . S
O16 Zn15 1.962 . S
O16 C21 1.254 . S
O17 Zn14 2.031 . S
O17 C21 1.269 . S
O18 Zn15 1.986 . S
O18 C25 1.262 . S
O19 Zn14 2.049 . S
O19 C27 1.260 . S
O20 Zn15 1.996 . S
O20 C27 1.257 . S
C21 O16 1.254 . S
C21 O17 1.269 . S
C22 O23 1.249 . S
C22 O24 1.270 . S
O23 Zn15 1.943 . S
O23 C22 1.249 . S
O24 Zn14 2.067 . S
O24 C22 1.270 . S
C25 O18 1.262 . S
C25 O26 1.232 . S
O26 C25 1.232 . S
C27 O19 1.260 . S
C27 O20 1.257 . S
Zn28 O31 2.031 . S
Zn28 O33 2.049 . S
Zn28 O38 2.067 . S
Zn29 O30 1.962 . S
Zn29 O32 1.986 . S
Zn29 O34 1.996 . S
Zn29 O37 1.943 . S
O30 Zn29 1.962 . S
O30 C35 1.254 . S
O31 Zn28 2.031 . S
O31 C35 1.269 . S
O32 Zn29 1.986 . S
O32 C39 1.262 . S
O33 Zn28 2.049 . S
O33 C41 1.260 . S
O34 Zn29 1.996 . S
O34 C41 1.257 . S
C35 O30 1.254 . S
C35 O31 1.269 . S
C36 O37 1.249 . S
C36 O38 1.270 . S
O37 Zn29 1.943 . S
O37 C36 1.249 . S
O38 Zn28 2.067 . S
O38 C36 1.270 . S
C39 O32 1.262 . S
C39 O40 1.232 . S
O40 C39 1.232 . S
C41 O33 1.260 . S
C41 O34 1.257 . S
Zn42 O45 2.031 . S
Zn42 O47 2.049 . S
Zn42 O52 2.067 . S
Zn43 O44 1.962 . S
Zn43 O46 1.986 . S
Zn43 O48 1.996 . S
Zn43 O51 1.943 . S
O44 Zn43 1.962 . S
O44 C49 1.254 . S
O45 Zn42 2.031 . S
O45 C49 1.269 . S
O46 Zn43 1.986 . S
O46 C53 1.262 . S
O47 Zn42 2.049 . S
O47 C55 1.260 . S
O48 Zn43 1.996 . S
O48 C55 1.257 . S
C49 O44 1.254 . S
C49 O45 1.269 . S
C50 O51 1.249 . S
C50 O52 1.270 . S
O51 Zn43 1.943 . S
O51 C50 1.249 . S
O52 Zn42 2.067 . S
O52 C50 1.270 . S
C53 O46 1.262 . S
C53 O54 1.232 . S
O54 C53 1.232 . S
C55 O47 1.260 . S
C55 O48 1.257 . S
Zn56 O59 2.031 . S
Zn56 O61 2.049 . S
Zn56 O66 2.067 . S
Zn57 O58 1.962 . S
Zn57 O60 1.986 . S
Zn57 O62 1.996 . S
Zn57 O65 1.943 . S
O58 Zn57 1.962 . S
O58 C63 1.254 . S
O59 Zn56 2.031 . S
O59 C63 1.269 . S
O60 Zn57 1.986 . S
O60 C67 1.262 . S
O61 Zn56 2.049 . S
O61 C69 1.260 . S
O62 Zn57 1.996 . S
O62 C69 1.257 . S
C63 O58 1.254 . S
C63 O59 1.269 . S
C64 O65 1.249 . S
C64 O66 1.270 . S
O65 Zn57 1.943 . S
O65 C64 1.249 . S
O66 Zn56 2.067 . S
O66 C64 1.270 . S
C67 O60 1.262 . S
C67 O68 1.232 . S
O68 C67 1.232 . S
C69 O61 1.260 . S
C69 O62 1.257 . S
Zn70 O73 2.031 . S
Zn70 O75 2.049 . S
Zn70 O80 2.067 . S
Zn71 O72 1.962 . S
Zn71 O74 1.986 . S
Zn71 O76 1.996 . S
Zn71 O79 1.943 . S
O72 Zn71 1.962 . S
O72 C77 1.254 . S
O73 Zn70 2.031 . S
O73 C77 1.269 . S
O74 Zn71 1.986 . S
O74 C81 1.262 . S
O75 Zn70 2.049 . S
O75 C83 1.260 . S
O76 Zn71 1.996 . S
O76 C83 1.257 . S
C77 O72 1.254 . S
C77 O73 1.269 . S
C78 O79 1.249 . S
C78 O80 1.270 . S
O79 Zn71 1.943 . S
O79 C78 1.249 . S
O80 Zn70 2.067 . S
O80 C78 1.270 . S
C81 O74 1.262 . S
C81 O82 1.232 . S
O82 C81 1.232 . S
C83 O75 1.260 . S
C83 O76 1.257 . S
Zn84 O87 2.031 . S
Zn84 O89 2.049 . S
Zn84 O94 2.067 . S
Zn85 O86 1.962 . S
Zn85 O88 1.986 . S
Zn85 O90 1.996 . S
Zn85 O93 1.943 . S
O86 Zn85 1.962 . S
O86 C91 1.254 . S
O87 Zn84 2.031 . S
O87 C91 1.269 . S
O88 Zn85 1.986 . S
O88 C95 1.262 . S
O89 Zn84 2.049 . S
O89 C97 1.260 . S
O90 Zn85 1.996 . S
O90 C97 1.257 . S
C91 O86 1.254 . S
C91 O87 1.269 . S
C92 O93 1.249 . S
C92 O94 1.270 . S
O93 Zn85 1.943 . S
O93 C92 1.249 . S
O94 Zn84 2.067 . S
O94 C92 1.270 . S
C95 O88 1.262 . S
C95 O96 1.232 . S
O96 C95 1.232 . S
C97 O89 1.260 . S
C97 O90 1.257 . S
Zn98 O101 2.031 . S
Zn98 O103 2.049 . S
Zn98 O108 2.067 . S
Zn99 O100 1.962 . S
Zn99 O102 1.986 . S
Zn99 O104 1.996 . S
Zn99 O107 1.943 . S
O100 Zn99 1.962 . S
O100 C105 1.254 . S
O101 Zn98 2.031 . S
O101 C105 1.269 . S
O102 Zn99 1.986 . S
O102 C109 1.262 . S
O103 Zn98 2.049 . S
O103 C111 1.260 . S
O104 Zn99 1.996 . S
O104 C111 1.257 . S
C105 O100 1.254 . S
C105 O101 1.269 . S
C106 O107 1.249 . S
C106 O108 1.270 . S
O107 Zn99 1.943 . S
O107 C106 1.249 . S
O108 Zn98 2.067 . S
O108 C106 1.270 . S
C109 O102 1.262 . S
C109 O110 1.232 . S
O110 C109 1.232 . S
C111 O103 1.260 . S
C111 O104 1.257 . S
H112 C120 0.929 . S
H113 C122 0.930 . S
H114 C124 0.930 . S
H115 C127 0.929 . S
H116 C130 0.930 . S
H117 C132 0.960 . S
H118 C132 0.960 . S
H119 C132 0.960 . S
C120 H112 0.929 . S
C120 C121 1.377 . S
C120 C122 1.384 . S
C121 C120 1.377 . S
C121 C127 1.390 . S
C122 H113 0.930 . S
C122 C120 1.384 . S
C122 C123 1.372 . S
C123 C122 1.372 . S
C123 C124 1.400 . S
C123 C128 1.490 . S
C124 H114 0.930 . S
C124 C123 1.400 . S
C124 C127 1.386 . S
H125 C141 0.930 . S
H126 C142 0.931 . S
C127 H115 0.929 . S
C127 C121 1.390 . S
C127 C124 1.386 . S
C128 C123 1.490 . S
C128 C130 1.395 1_455 S
C128 C131 1.403 1_545 S
H129 C135 0.930 . S
C130 H116 0.930 . S
C130 C128 1.395 1_655 S
C130 C133 1.403 . S
C131 C128 1.403 1_565 S
C131 C132 1.524 . S
C131 C135 1.400 . S
C132 H117 0.960 . S
C132 H118 0.960 . S
C132 H119 0.960 . S
C132 C131 1.524 . S
C133 C130 1.403 . S
C133 C134 1.392 1_545 S
C133 C137 1.495 . S
C134 C133 1.392 1_565 S
C134 C135 1.385 1_655 S
C134 C136 1.478 . S
C135 H129 0.930 . S
C135 C131 1.400 . S
C135 C134 1.385 1_455 S
C136 C134 1.478 . S
C136 C138 1.381 . S
C136 C142 1.383 . S
C137 C133 1.495 . S
C137 H143 0.959 . S
C137 H144 0.961 . S
C137 H145 0.960 . S
C138 C136 1.381 . S
C138 C139 1.394 . S
C138 H146 0.930 . S
C139 C138 1.394 . S
C139 C140 1.383 . S
C139 H147 0.929 . S
C140 C139 1.383 . S
C140 C141 1.377 . S
C141 H125 0.930 . S
C141 C140 1.377 . S
C141 C142 1.379 . S
C142 H126 0.931 . S
C142 C136 1.383 . S
C142 C141 1.379 . S
H143 C137 0.959 . S
H144 C137 0.961 . S
H145 C137 0.960 . S
H146 C138 0.930 . S
H147 C139 0.929 . S
H148 C156 0.929 . S
H149 C158 0.930 . S
H150 C160 0.930 . S
H151 C163 0.929 . S
H152 C166 0.930 . S
H153 C168 0.960 . S
H154 C168 0.960 . S
H155 C168 0.960 . S
C156 H148 0.929 . S
C156 C157 1.377 . S
C156 C158 1.384 . S
C157 C156 1.377 . S
C157 C163 1.390 . S
C158 H149 0.930 . S
C158 C156 1.384 . S
C158 C159 1.372 . S
C159 C158 1.372 . S
C159 C160 1.400 . S
C159 C164 1.490 . S
C160 H150 0.930 . S
C160 C159 1.400 . S
C160 C163 1.386 . S
H161 C177 0.930 . S
H162 C178 0.931 . S
C163 H151 0.929 . S
C163 C157 1.390 . S
C163 C160 1.386 . S
C164 C159 1.490 . S
C164 C166 1.395 . S
C164 C167 1.403 . S
H165 C171 0.930 . S
C166 H152 0.930 . S
C166 C164 1.395 . S
C166 C169 1.403 . S
C167 C164 1.403 . S
C167 C168 1.524 . S
C167 C171 1.400 . S
C168 H153 0.960 . S
C168 H154 0.960 . S
C168 H155 0.960 . S
C168 C167 1.524 . S
C169 C166 1.403 . S
C169 C170 1.392 . S
C169 C173 1.495 . S
C170 C169 1.392 . S
C170 C171 1.385 . S
C170 C172 1.478 . S
C171 H165 0.930 . S
C171 C167 1.400 . S
C171 C170 1.385 . S
C172 C170 1.478 . S
C172 C174 1.381 . S
C172 C178 1.383 . S
C173 C169 1.495 . S
C173 H179 0.959 . S
C173 H180 0.961 . S
C173 H181 0.960 . S
C174 C172 1.381 . S
C174 C175 1.394 . S
C174 H182 0.930 . S
C175 C174 1.394 . S
C175 C176 1.383 . S
C175 H183 0.929 . S
C176 C175 1.383 . S
C176 C177 1.377 . S
C177 H161 0.930 . S
C177 C176 1.377 . S
C177 C178 1.379 . S
C178 H162 0.931 . S
C178 C172 1.383 . S
C178 C177 1.379 . S
H179 C173 0.959 . S
H180 C173 0.961 . S
H181 C173 0.960 . S
H182 C174 0.930 . S
H183 C175 0.929 . S
H184 C192 0.929 . S
H185 C194 0.930 . S
H186 C196 0.930 . S
H187 C199 0.929 . S
H188 C202 0.930 . S
H189 C204 0.960 . S
H190 C204 0.960 . S
H191 C204 0.960 . S
C192 H184 0.929 . S
C192 C193 1.377 . S
C192 C194 1.384 . S
C193 C192 1.377 . S
C193 C199 1.390 . S
C194 H185 0.930 . S
C194 C192 1.384 . S
C194 C195 1.372 . S
C195 C194 1.372 . S
C195 C196 1.400 . S
C195 C200 1.490 . S
C196 H186 0.930 . S
C196 C195 1.400 . S
C196 C199 1.386 . S
H197 C213 0.930 . S
H198 C214 0.931 . S
C199 H187 0.929 . S
C199 C193 1.390 . S
C199 C196 1.386 . S
C200 C195 1.490 . S
C200 C202 1.395 . S
C200 C203 1.403 . S
H201 C207 0.930 . S
C202 H188 0.930 . S
C202 C200 1.395 . S
C202 C205 1.403 . S
C203 C200 1.403 . S
C203 C204 1.524 . S
C203 C207 1.400 . S
C204 H189 0.960 . S
C204 H190 0.960 . S
C204 H191 0.960 . S
C204 C203 1.524 . S
C205 C202 1.403 . S
C205 C206 1.392 . S
C205 C209 1.495 . S
C206 C205 1.392 . S
C206 C207 1.385 . S
C206 C208 1.478 . S
C207 H201 0.930 . S
C207 C203 1.400 . S
C207 C206 1.385 . S
C208 C206 1.478 . S
C208 C210 1.381 . S
C208 C214 1.383 . S
C209 C205 1.495 . S
C209 H215 0.959 . S
C209 H216 0.961 . S
C209 H217 0.960 . S
C210 C208 1.381 . S
C210 C211 1.394 . S
C210 H218 0.930 . S
C211 C210 1.394 . S
C211 C212 1.383 . S
C211 H219 0.929 . S
C212 C211 1.383 . S
C212 C213 1.377 . S
C213 H197 0.930 . S
C213 C212 1.377 . S
C213 C214 1.379 . S
C214 H198 0.931 . S
C214 C208 1.383 . S
C214 C213 1.379 . S
H215 C209 0.959 . S
H216 C209 0.961 . S
H217 C209 0.960 . S
H218 C210 0.930 . S
H219 C211 0.929 . S
H220 C228 0.929 . S
H221 C230 0.930 . S
H222 C232 0.930 . S
H223 C235 0.929 . S
H224 C238 0.930 . S
H225 C240 0.960 . S
H226 C240 0.960 . S
H227 C240 0.960 . S
C228 H220 0.929 . S
C228 C229 1.377 . S
C228 C230 1.384 . S
C229 C228 1.377 . S
C229 C235 1.390 . S
C230 H221 0.930 . S
C230 C228 1.384 . S
C230 C231 1.372 . S
C231 C230 1.372 . S
C231 C232 1.400 . S
C231 C236 1.490 . S
C232 H222 0.930 . S
C232 C231 1.400 . S
C232 C235 1.386 . S
H233 C249 0.930 . S
H234 C250 0.931 . S
C235 H223 0.929 . S
C235 C229 1.390 . S
C235 C232 1.386 . S
C236 C231 1.490 . S
C236 C238 1.395 1_455 S
C236 C239 1.403 1_545 S
H237 C243 0.930 . S
C238 H224 0.930 . S
C238 C236 1.395 1_655 S
C238 C241 1.403 . S
C239 C236 1.403 1_565 S
C239 C240 1.524 . S
C239 C243 1.400 1_455 S
C240 H225 0.960 . S
C240 H226 0.960 . S
C240 H227 0.960 . S
C240 C239 1.524 . S
C241 C238 1.403 . S
C241 C242 1.392 1_545 S
C241 C245 1.495 . S
C242 C241 1.392 1_565 S
C242 C243 1.385 . S
C242 C244 1.478 . S
C243 H237 0.930 . S
C243 C239 1.400 1_655 S
C243 C242 1.385 . S
C244 C242 1.478 . S
C244 C246 1.381 . S
C244 C250 1.383 . S
C245 C241 1.495 . S
C245 H251 0.959 . S
C245 H252 0.961 . S
C245 H253 0.960 . S
C246 C244 1.381 . S
C246 C247 1.394 . S
C246 H254 0.930 . S
C247 C246 1.394 . S
C247 C248 1.383 . S
C247 H255 0.929 . S
C248 C247 1.383 . S
C248 C249 1.377 . S
C249 H233 0.930 . S
C249 C248 1.377 . S
C249 C250 1.379 . S
C250 H234 0.931 . S
C250 C244 1.383 . S
C250 C249 1.379 . S
H251 C245 0.959 . S
H252 C245 0.961 . S
H253 C245 0.960 . S
H254 C246 0.930 . S
H255 C247 0.929 . S
H256 C264 0.929 . S
H257 C266 0.930 . S
H258 C268 0.930 . S
H259 C271 0.929 . S
H260 C274 0.930 . S
H261 C276 0.960 . S
H262 C276 0.960 . S
H263 C276 0.960 . S
C264 H256 0.929 . S
C264 C265 1.377 . S
C264 C266 1.384 . S
C265 C264 1.377 . S
C265 C271 1.390 . S
C266 H257 0.930 . S
C266 C264 1.384 . S
C266 C267 1.372 . S
C267 C266 1.372 . S
C267 C268 1.400 . S
C267 C272 1.490 . S
C268 H258 0.930 . S
C268 C267 1.400 . S
C268 C271 1.386 . S
H269 C285 0.930 . S
H270 C286 0.931 . S
C271 H259 0.929 . S
C271 C265 1.390 . S
C271 C268 1.386 . S
C272 C267 1.490 . S
C272 C274 1.395 . S
C272 C275 1.403 . S
H273 C279 0.930 . S
C274 H260 0.930 . S
C274 C272 1.395 . S
C274 C277 1.403 . S
C275 C272 1.403 . S
C275 C276 1.524 . S
C275 C279 1.400 . S
C276 H261 0.960 . S
C276 H262 0.960 . S
C276 H263 0.960 . S
C276 C275 1.524 . S
C277 C274 1.403 . S
C277 C278 1.392 . S
C277 C281 1.495 . S
C278 C277 1.392 . S
C278 C279 1.385 . S
C278 C280 1.478 . S
C279 H273 0.930 . S
C279 C275 1.400 . S
C279 C278 1.385 . S
C280 C278 1.478 . S
C280 C282 1.381 . S
C280 C286 1.383 . S
C281 C277 1.495 . S
C281 H287 0.959 . S
C281 H288 0.961 . S
C281 H289 0.960 . S
C282 C280 1.381 . S
C282 C283 1.394 . S
C282 H290 0.930 . S
C283 C282 1.394 . S
C283 C284 1.383 . S
C283 H291 0.929 . S
C284 C283 1.383 . S
C284 C285 1.377 . S
C285 H269 0.930 . S
C285 C284 1.377 . S
C285 C286 1.379 . S
C286 H270 0.931 . S
C286 C280 1.383 . S
C286 C285 1.379 . S
H287 C281 0.959 . S
H288 C281 0.961 . S
H289 C281 0.960 . S
H290 C282 0.930 . S
H291 C283 0.929 . S
H292 C300 0.929 . S
H293 C302 0.930 . S
H294 C304 0.930 . S
H295 C307 0.929 . S
H296 C310 0.930 . S
H297 C312 0.960 . S
H298 C312 0.960 . S
H299 C312 0.960 . S
C300 H292 0.929 . S
C300 C301 1.377 . S
C300 C302 1.384 . S
C301 C300 1.377 . S
C301 C307 1.390 . S
C302 H293 0.930 . S
C302 C300 1.384 . S
C302 C303 1.372 . S
C303 C302 1.372 . S
C303 C304 1.400 . S
C303 C308 1.490 . S
C304 H294 0.930 . S
C304 C303 1.400 . S
C304 C307 1.386 . S
H305 C321 0.930 . S
H306 C322 0.931 . S
C307 H295 0.929 . S
C307 C301 1.390 . S
C307 C304 1.386 . S
C308 C303 1.490 . S
C308 C310 1.395 . S
C308 C311 1.403 . S
H309 C315 0.930 . S
C310 H296 0.930 . S
C310 C308 1.395 . S
C310 C313 1.403 1_556 S
C311 C308 1.403 . S
C311 C312 1.524 . S
C311 C315 1.400 1_556 S
C312 H297 0.960 . S
C312 H298 0.960 . S
C312 H299 0.960 . S
C312 C311 1.524 . S
C313 C310 1.403 1_554 S
C313 C314 1.392 . S
C313 C317 1.495 . S
C314 C313 1.392 . S
C314 C315 1.385 . S
C314 C316 1.478 . S
C315 H309 0.930 . S
C315 C311 1.400 1_554 S
C315 C314 1.385 . S
C316 C314 1.478 . S
C316 C318 1.381 . S
C316 C322 1.383 . S
C317 C313 1.495 . S
C317 H323 0.959 . S
C317 H324 0.961 . S
C317 H325 0.960 . S
C318 C316 1.381 . S
C318 C319 1.394 . S
C318 H326 0.930 . S
C319 C318 1.394 . S
C319 C320 1.383 . S
C319 H327 0.929 . S
C320 C319 1.383 . S
C320 C321 1.377 . S
C321 H305 0.930 . S
C321 C320 1.377 . S
C321 C322 1.379 . S
C322 H306 0.931 . S
C322 C316 1.383 . S
C322 C321 1.379 . S
H323 C317 0.959 . S
H324 C317 0.961 . S
H325 C317 0.960 . S
H326 C318 0.930 . S
H327 C319 0.929 . S
H328 C336 0.929 . S
H329 C338 0.930 . S
H330 C340 0.930 . S
H331 C343 0.929 . S
H332 C346 0.930 . S
H333 C348 0.960 . S
H334 C348 0.960 . S
H335 C348 0.960 . S
C336 H328 0.929 . S
C336 C337 1.377 . S
C336 C338 1.384 . S
C337 C336 1.377 . S
C337 C343 1.390 . S
C338 H329 0.930 . S
C338 C336 1.384 . S
C338 C339 1.372 . S
C339 C338 1.372 . S
C339 C340 1.400 . S
C339 C344 1.490 . S
C340 H330 0.930 . S
C340 C339 1.400 . S
C340 C343 1.386 . S
H341 C357 0.930 . S
H342 C358 0.931 . S
C343 H331 0.929 . S
C343 C337 1.390 . S
C343 C340 1.386 . S
C344 C339 1.490 . S
C344 C346 1.395 . S
C344 C347 1.403 . S
H345 C351 0.930 . S
C346 H332 0.930 . S
C346 C344 1.395 . S
C346 C349 1.403 . S
C347 C344 1.403 . S
C347 C348 1.524 . S
C347 C351 1.400 . S
C348 H333 0.960 . S
C348 H334 0.960 . S
C348 H335 0.960 . S
C348 C347 1.524 . S
C349 C346 1.403 . S
C349 C350 1.392 . S
C349 C353 1.495 . S
C350 C349 1.392 . S
C350 C351 1.385 . S
C350 C352 1.478 . S
C351 H345 0.930 . S
C351 C347 1.400 . S
C351 C350 1.385 . S
C352 C350 1.478 . S
C352 C354 1.381 . S
C352 C358 1.383 . S
C353 C349 1.495 . S
C353 H359 0.959 . S
C353 H360 0.961 . S
C353 H361 0.960 . S
C354 C352 1.381 . S
C354 C355 1.394 . S
C354 H362 0.930 . S
C355 C354 1.394 . S
C355 C356 1.383 . S
C355 H363 0.929 . S
C356 C355 1.383 . S
C356 C357 1.377 . S
C357 H341 0.930 . S
C357 C356 1.377 . S
C357 C358 1.379 . S
C358 H342 0.931 . S
C358 C352 1.383 . S
C358 C357 1.379 . S
H359 C353 0.959 . S
H360 C353 0.961 . S
H361 C353 0.960 . S
H362 C354 0.930 . S
H363 C355 0.929 . S
H364 C372 0.929 . S
H365 C374 0.930 . S
H366 C376 0.930 . S
H367 C379 0.929 . S
H368 C382 0.930 . S
H369 C384 0.960 . S
H370 C384 0.960 . S
H371 C384 0.960 . S
C372 H364 0.929 . S
C372 C373 1.377 . S
C372 C374 1.384 . S
C373 C372 1.377 . S
C373 C379 1.390 . S
C374 H365 0.930 . S
C374 C372 1.384 . S
C374 C375 1.372 . S
C375 C374 1.372 . S
C375 C376 1.400 . S
C375 C380 1.490 . S
C376 H366 0.930 . S
C376 C375 1.400 . S
C376 C379 1.386 . S
H377 C393 0.930 . S
H378 C394 0.931 . S
C379 H367 0.929 . S
C379 C373 1.390 . S
C379 C376 1.386 . S
C380 C375 1.490 . S
C380 C382 1.395 . S
C380 C383 1.403 . S
H381 C387 0.930 . S
C382 H368 0.930 . S
C382 C380 1.395 . S
C382 C385 1.403 1_556 S
C383 C380 1.403 . S
C383 C384 1.524 . S
C383 C387 1.400 1_556 S
C384 H369 0.960 . S
C384 H370 0.960 . S
C384 H371 0.960 . S
C384 C383 1.524 . S
C385 C382 1.403 1_554 S
C385 C386 1.392 . S
C385 C389 1.495 . S
C386 C385 1.392 . S
C386 C387 1.385 . S
C386 C388 1.478 . S
C387 H381 0.930 . S
C387 C383 1.400 1_554 S
C387 C386 1.385 . S
C388 C386 1.478 . S
C388 C390 1.381 . S
C388 C394 1.383 . S
C389 C385 1.495 . S
C389 H395 0.959 . S
C389 H396 0.961 . S
C389 H397 0.960 . S
C390 C388 1.381 . S
C390 C391 1.394 . S
C390 H398 0.930 . S
C391 C390 1.394 . S
C391 C392 1.383 . S
C391 H399 0.929 . S
C392 C391 1.383 . S
C392 C393 1.377 . S
C393 H377 0.930 . S
C393 C392 1.377 . S
C393 C394 1.379 . S
C394 H378 0.931 . S
C394 C388 1.383 . S
C394 C393 1.379 . S
H395 C389 0.959 . S
H396 C389 0.961 . S
H397 C389 0.960 . S
H398 C390 0.930 . S
H399 C391 0.929 . S
H400 C408 0.929 . S
H401 C410 0.930 . S
H402 C412 0.930 . S
H403 C415 0.929 . S
H404 C418 0.930 . S
H405 C420 0.960 . S
H406 C420 0.960 . S
H407 C420 0.960 . S
C408 H400 0.929 . S
C408 C409 1.377 . S
C408 C410 1.384 . S
C409 C408 1.377 . S
C409 C415 1.390 . S
C410 H401 0.930 . S
C410 C408 1.384 . S
C410 C411 1.372 . S
C411 C410 1.372 . S
C411 C412 1.400 . S
C411 C416 1.490 . S
C412 H402 0.930 . S
C412 C411 1.400 . S
C412 C415 1.386 . S
H413 C429 0.930 . S
H414 C430 0.931 . S
C415 H403 0.929 . S
C415 C409 1.390 . S
C415 C412 1.386 . S
C416 C411 1.490 . S
C416 C418 1.395 . S
C416 C419 1.403 . S
H417 C423 0.930 . S
C418 H404 0.930 . S
C418 C416 1.395 . S
C418 C421 1.403 . S
C419 C416 1.403 . S
C419 C420 1.524 . S
C419 C423 1.400 . S
C420 H405 0.960 . S
C420 H406 0.960 . S
C420 H407 0.960 . S
C420 C419 1.524 . S
C421 C418 1.403 . S
C421 C422 1.392 . S
C421 C425 1.495 . S
C422 C421 1.392 . S
C422 C423 1.385 . S
C422 C424 1.478 . S
C423 H417 0.930 . S
C423 C419 1.400 . S
C423 C422 1.385 . S
C424 C422 1.478 . S
C424 C426 1.381 . S
C424 C430 1.383 . S
C425 C421 1.495 . S
C425 H431 0.959 . S
C425 H432 0.961 . S
C425 H433 0.960 . S
C426 C424 1.381 . S
C426 C427 1.394 . S
C426 H434 0.930 . S
C427 C426 1.394 . S
C427 C428 1.383 . S
C427 H435 0.929 . S
C428 C427 1.383 . S
C428 C429 1.377 . S
C429 H413 0.930 . S
C429 C428 1.377 . S
C429 C430 1.379 . S
C430 H414 0.931 . S
C430 C424 1.383 . S
C430 C429 1.379 . S
H431 C425 0.959 . S
H432 C425 0.961 . S
H433 C425 0.960 . S
H434 C426 0.930 . S
H435 C427 0.929 . S
H436 C444 0.929 . S
H437 C446 0.930 . S
H438 C448 0.930 . S
H439 C451 0.929 . S
H440 C454 0.930 . S
H441 C456 0.960 . S
H442 C456 0.960 . S
H443 C456 0.960 . S
C444 H436 0.929 . S
C444 C445 1.377 . S
C444 C446 1.384 . S
C445 C444 1.377 . S
C445 C451 1.390 . S
C446 H437 0.930 . S
C446 C444 1.384 . S
C446 C447 1.372 . S
C447 C446 1.372 . S
C447 C448 1.400 . S
C447 C452 1.490 . S
C448 H438 0.930 . S
C448 C447 1.400 . S
C448 C451 1.386 . S
H449 C465 0.930 . S
H450 C466 0.931 . S
C451 H439 0.929 . S
C451 C445 1.390 . S
C451 C448 1.386 . S
C452 C447 1.490 . S
C452 C454 1.395 . S
C452 C455 1.403 . S
H453 C459 0.930 . S
C454 H440 0.930 . S
C454 C452 1.395 . S
C454 C457 1.403 . S
C455 C452 1.403 . S
C455 C456 1.524 . S
C455 C459 1.400 . S
C456 H441 0.960 . S
C456 H442 0.960 . S
C456 H443 0.960 . S
C456 C455 1.524 . S
C457 C454 1.403 . S
C457 C458 1.392 . S
C457 C461 1.495 . S
C458 C457 1.392 . S
C458 C459 1.385 . S
C458 C460 1.478 . S
C459 H453 0.930 . S
C459 C455 1.400 . S
C459 C458 1.385 . S
C460 C458 1.478 . S
C460 C462 1.381 . S
C460 C466 1.383 . S
C461 C457 1.495 . S
C461 H467 0.959 . S
C461 H468 0.961 . S
C461 H469 0.960 . S
C462 C460 1.381 . S
C462 C463 1.394 1_565 S
C462 H470 0.930 . S
C463 C462 1.394 1_545 S
C463 C464 1.383 . S
C463 H471 0.929 . S
C464 C463 1.383 . S
C464 C465 1.377 1_545 S
C465 H449 0.930 . S
C465 C464 1.377 1_565 S
C465 C466 1.379 . S
C466 H450 0.931 . S
C466 C460 1.383 . S
C466 C465 1.379 . S
H467 C461 0.959 . S
H468 C461 0.961 . S
H469 C461 0.960 . S
H470 C462 0.930 . S
H471 C463 0.929 . S
H472 C480 0.929 . S
H473 C482 0.930 . S
H474 C484 0.930 . S
H475 C487 0.929 . S
H476 C490 0.930 . S
H477 C492 0.960 . S
H478 C492 0.960 . S
H479 C492 0.960 . S
C480 H472 0.929 . S
C480 C481 1.377 . S
C480 C482 1.384 . S
C481 C480 1.377 . S
C481 C487 1.390 . S
C482 H473 0.930 . S
C482 C480 1.384 . S
C482 C483 1.372 . S
C483 C482 1.372 . S
C483 C484 1.400 . S
C483 C488 1.490 . S
C484 H474 0.930 . S
C484 C483 1.400 . S
C484 C487 1.386 . S
H485 C501 0.930 . S
H486 C502 0.931 . S
C487 H475 0.929 . S
C487 C481 1.390 . S
C487 C484 1.386 . S
C488 C483 1.490 . S
C488 C490 1.395 . S
C488 C491 1.403 . S
H489 C495 0.930 . S
C490 H476 0.930 . S
C490 C488 1.395 . S
C490 C493 1.403 . S
C491 C488 1.403 . S
C491 C492 1.524 . S
C491 C495 1.400 . S
C492 H477 0.960 . S
C492 H478 0.960 . S
C492 H479 0.960 . S
C492 C491 1.524 . S
C493 C490 1.403 . S
C493 C494 1.392 . S
C493 C497 1.495 . S
C494 C493 1.392 . S
C494 C495 1.385 . S
C494 C496 1.478 . S
C495 H489 0.930 . S
C495 C491 1.400 . S
C495 C494 1.385 . S
C496 C494 1.478 . S
C496 C498 1.381 . S
C496 C502 1.383 . S
C497 C493 1.495 . S
C497 H503 0.959 . S
C497 H504 0.961 . S
C497 H505 0.960 . S
C498 C496 1.381 . S
C498 C499 1.394 . S
C498 H506 0.930 . S
C499 C498 1.394 . S
C499 C500 1.383 . S
C499 H507 0.929 . S
C500 C499 1.383 . S
C500 C501 1.377 . S
C501 H485 0.930 . S
C501 C500 1.377 . S
C501 C502 1.379 . S
C502 H486 0.931 . S
C502 C496 1.383 . S
C502 C501 1.379 . S
H503 C497 0.959 . S
H504 C497 0.961 . S
H505 C497 0.960 . S
H506 C498 0.930 . S
H507 C499 0.929 . S
H508 C516 0.929 . S
H509 C518 0.930 . S
H510 C520 0.930 . S
H511 C523 0.929 . S
H512 C526 0.930 . S
H513 C528 0.960 . S
H514 C528 0.960 . S
H515 C528 0.960 . S
C516 H508 0.929 . S
C516 C517 1.377 . S
C516 C518 1.384 . S
C517 C516 1.377 . S
C517 C523 1.390 . S
C518 H509 0.930 . S
C518 C516 1.384 . S
C518 C519 1.372 . S
C519 C518 1.372 . S
C519 C520 1.400 . S
C519 C524 1.490 . S
C520 H510 0.930 . S
C520 C519 1.400 . S
C520 C523 1.386 . S
H521 C537 0.929 1_565 S
H522 C538 0.931 . S
C523 H511 0.929 . S
C523 C517 1.390 . S
C523 C520 1.386 . S
C524 C519 1.490 . S
C524 C526 1.395 . S
C524 C527 1.403 . S
H525 C531 0.930 . S
C526 H512 0.930 . S
C526 C524 1.395 . S
C526 C529 1.403 . S
C527 C524 1.403 . S
C527 C528 1.524 . S
C527 C531 1.400 . S
C528 H513 0.960 . S
C528 H514 0.960 . S
C528 H515 0.960 . S
C528 C527 1.524 . S
C529 C526 1.403 . S
C529 C530 1.392 . S
C529 C533 1.495 . S
C530 C529 1.392 . S
C530 C531 1.385 . S
C530 C532 1.478 . S
C531 H525 0.930 . S
C531 C527 1.400 . S
C531 C530 1.385 . S
C532 C530 1.478 . S
C532 C534 1.381 . S
C532 C538 1.383 . S
C533 C529 1.495 . S
C533 H539 0.959 . S
C533 H540 0.961 . S
C533 H541 0.960 . S
C534 C532 1.381 . S
C534 C535 1.394 1_545 S
C534 H542 0.930 . S
C535 C534 1.394 1_565 S
C535 C536 1.383 . S
C535 H543 0.929 . S
C536 C535 1.383 . S
C536 C537 1.377 1_565 S
C537 H521 0.929 1_545 S
C537 C536 1.377 1_545 S
C537 C538 1.379 . S
C538 H522 0.931 . S
C538 C532 1.383 . S
C538 C537 1.379 . S
H539 C533 0.959 . S
H540 C533 0.961 . S
H541 C533 0.960 . S
H542 C534 0.930 . S
H543 C535 0.929 . S
H544 C552 0.929 . S
H545 C554 0.930 . S
H546 C556 0.930 . S
H547 C559 0.929 . S
H548 C562 0.930 . S
H549 C564 0.960 . S
H550 C564 0.960 . S
H551 C564 0.960 . S
C552 H544 0.929 . S
C552 C553 1.377 . S
C552 C554 1.384 1_455 S
C553 C552 1.377 . S
C553 C559 1.390 1_455 S
C554 H545 0.930 . S
C554 C552 1.384 1_655 S
C554 C555 1.372 . S
C555 C554 1.372 . S
C555 C556 1.400 . S
C555 C560 1.490 . S
C556 H546 0.930 . S
C556 C555 1.400 . S
C556 C559 1.386 . S
H557 C573 0.930 . S
H558 C574 0.931 . S
C559 H547 0.929 . S
C559 C553 1.390 1_655 S
C559 C556 1.386 . S
C560 C555 1.490 . S
C560 C562 1.395 . S
C560 C563 1.403 . S
H561 C567 0.930 . S
C562 H548 0.930 . S
C562 C560 1.395 . S
C562 C565 1.403 . S
C563 C560 1.403 . S
C563 C564 1.524 . S
C563 C567 1.400 . S
C564 H549 0.960 . S
C564 H550 0.960 . S
C564 H551 0.960 . S
C564 C563 1.524 . S
C565 C562 1.403 . S
C565 C566 1.392 . S
C565 C569 1.495 . S
C566 C565 1.392 . S
C566 C567 1.385 . S
C566 C568 1.478 . S
C567 H561 0.930 . S
C567 C563 1.400 . S
C567 C566 1.385 . S
C568 C566 1.478 . S
C568 C570 1.381 . S
C568 C574 1.383 . S
C569 C565 1.495 . S
C569 H575 0.959 . S
C569 H576 0.961 . S
C569 H577 0.960 . S
C570 C568 1.381 . S
C570 C571 1.394 . S
C570 H578 0.930 . S
C571 C570 1.394 . S
C571 C572 1.383 . S
C571 H579 0.929 . S
C572 C571 1.383 . S
C572 C573 1.377 . S
C573 H557 0.930 . S
C573 C572 1.377 . S
C573 C574 1.379 . S
C574 H558 0.931 . S
C574 C568 1.383 . S
C574 C573 1.379 . S
H575 C569 0.959 . S
H576 C569 0.961 . S
H577 C569 0.960 . S
H578 C570 0.930 . S
H579 C571 0.929 . S
H580 C588 0.929 . S
H581 C590 0.930 . S
H582 C592 0.930 . S
H583 C595 0.929 . S
H584 C598 0.930 . S
H585 C600 0.960 . S
H586 C600 0.960 . S
H587 C600 0.960 . S
C588 H580 0.929 . S
C588 C589 1.377 . S
C588 C590 1.384 . S
C589 C588 1.377 . S
C589 C595 1.390 . S
C590 H581 0.930 . S
C590 C588 1.384 . S
C590 C591 1.372 . S
C591 C590 1.372 . S
C591 C592 1.400 . S
C591 C596 1.490 . S
C592 H582 0.930 . S
C592 C591 1.400 . S
C592 C595 1.386 . S
H593 C609 0.930 . S
H594 C610 0.931 . S
C595 H583 0.929 . S
C595 C589 1.390 . S
C595 C592 1.386 . S
C596 C591 1.490 . S
C596 C598 1.395 . S
C596 C599 1.403 . S
H597 C603 0.930 . S
C598 H584 0.930 . S
C598 C596 1.395 . S
C598 C601 1.403 . S
C599 C596 1.403 . S
C599 C600 1.524 . S
C599 C603 1.400 . S
C600 H585 0.960 . S
C600 H586 0.960 . S
C600 H587 0.960 . S
C600 C599 1.524 . S
C601 C598 1.403 . S
C601 C602 1.392 . S
C601 C605 1.495 . S
C602 C601 1.392 . S
C602 C603 1.385 . S
C602 C604 1.478 . S
C603 H597 0.930 . S
C603 C599 1.400 . S
C603 C602 1.385 . S
C604 C602 1.478 . S
C604 C606 1.381 . S
C604 C610 1.383 . S
C605 C601 1.495 . S
C605 H611 0.959 . S
C605 H612 0.961 . S
C605 H613 0.960 . S
C606 C604 1.381 . S
C606 C607 1.394 . S
C606 H614 0.930 . S
C607 C606 1.394 . S
C607 C608 1.383 . S
C607 H615 0.929 . S
C608 C607 1.383 . S
C608 C609 1.377 . S
C609 H593 0.930 . S
C609 C608 1.377 . S
C609 C610 1.379 . S
C610 H594 0.931 . S
C610 C604 1.383 . S
C610 C609 1.379 . S
H611 C605 0.959 . S
H612 C605 0.961 . S
H613 C605 0.960 . S
H614 C606 0.930 . S
H615 C607 0.929 . S
H616 C624 0.929 . S
H617 C626 0.930 . S
H618 C628 0.930 . S
H619 C631 0.929 . S
H620 C634 0.930 . S
H621 C636 0.960 . S
H622 C636 0.960 . S
H623 C636 0.960 . S
C624 H616 0.929 . S
C624 C625 1.377 . S
C624 C626 1.384 . S
C625 C624 1.377 . S
C625 C631 1.390 . S
C626 H617 0.930 . S
C626 C624 1.384 . S
C626 C627 1.372 . S
C627 C626 1.372 . S
C627 C628 1.400 . S
C627 C632 1.490 . S
C628 H618 0.930 . S
C628 C627 1.400 . S
C628 C631 1.386 . S
H629 C645 0.930 . S
H630 C646 0.931 . S
C631 H619 0.929 . S
C631 C625 1.390 . S
C631 C628 1.386 . S
C632 C627 1.490 . S
C632 C634 1.395 . S
C632 C635 1.403 . S
H633 C639 0.930 . S
C634 H620 0.930 . S
C634 C632 1.395 . S
C634 C637 1.403 . S
C635 C632 1.403 . S
C635 C636 1.524 . S
C635 C639 1.400 . S
C636 H621 0.960 . S
C636 H622 0.960 . S
C636 H623 0.960 . S
C636 C635 1.524 . S
C637 C634 1.403 . S
C637 C638 1.392 . S
C637 C641 1.495 . S
C638 C637 1.392 . S
C638 C639 1.385 . S
C638 C640 1.478 . S
C639 H633 0.930 . S
C639 C635 1.400 . S
C639 C638 1.385 . S
C640 C638 1.478 . S
C640 C642 1.381 . S
C640 C646 1.383 . S
C641 C637 1.495 . S
C641 H647 0.959 . S
C641 H648 0.961 . S
C641 H649 0.960 . S
C642 C640 1.381 . S
C642 C643 1.394 . S
C642 H650 0.930 . S
C643 C642 1.394 . S
C643 C644 1.383 1_455 S
C643 H651 0.929 . S
C644 C643 1.383 1_655 S
C644 C645 1.377 . S
C645 H629 0.930 . S
C645 C644 1.377 . S
C645 C646 1.379 1_655 S
C646 H630 0.931 . S
C646 C640 1.383 . S
C646 C645 1.379 1_455 S
H647 C641 0.959 . S
H648 C641 0.961 . S
H649 C641 0.960 . S
H650 C642 0.930 . S
H651 C643 0.929 . S
H652 C660 0.929 . S
H653 C662 0.930 . S
H654 C664 0.930 . S
H655 C667 0.929 . S
H656 C670 0.930 . S
H657 C672 0.960 . S
H658 C672 0.960 . S
H659 C672 0.960 . S
C660 H652 0.929 . S
C660 C661 1.377 . S
C660 C662 1.384 . S
C661 C660 1.377 . S
C661 C667 1.390 . S
C662 H653 0.930 . S
C662 C660 1.384 . S
C662 C663 1.372 . S
C663 C662 1.372 . S
C663 C664 1.400 . S
C663 C668 1.490 . S
C664 H654 0.930 . S
C664 C663 1.400 . S
C664 C667 1.386 . S
H665 C681 0.930 . S
H666 C682 0.931 . S
C667 H655 0.929 . S
C667 C661 1.390 . S
C667 C664 1.386 . S
C668 C663 1.490 . S
C668 C670 1.395 . S
C668 C671 1.403 . S
H669 C675 0.930 . S
C670 H656 0.930 . S
C670 C668 1.395 . S
C670 C673 1.403 . S
C671 C668 1.403 . S
C671 C672 1.524 . S
C671 C675 1.400 . S
C672 H657 0.960 . S
C672 H658 0.960 . S
C672 H659 0.960 . S
C672 C671 1.524 . S
C673 C670 1.403 . S
C673 C674 1.392 . S
C673 C677 1.495 . S
C674 C673 1.392 . S
C674 C675 1.385 . S
C674 C676 1.478 . S
C675 H669 0.930 . S
C675 C671 1.400 . S
C675 C674 1.385 . S
C676 C674 1.478 . S
C676 C678 1.381 . S
C676 C682 1.383 . S
C677 C673 1.495 . S
C677 H683 0.959 . S
C677 H684 0.961 . S
C677 H685 0.960 . S
C678 C676 1.381 . S
C678 C679 1.394 . S
C678 H686 0.930 . S
C679 C678 1.394 . S
C679 C680 1.383 . S
C679 H687 0.929 . S
C680 C679 1.383 . S
C680 C681 1.377 . S
C681 H665 0.930 . S
C681 C680 1.377 . S
C681 C682 1.379 . S
C682 H666 0.931 . S
C682 C676 1.383 . S
C682 C681 1.379 . S
H683 C677 0.959 . S
H684 C677 0.961 . S
H685 C677 0.960 . S
H686 C678 0.930 . S
H687 C679 0.929 . S
C121 C8 0.437 . S
C140 C36 0.526 . S
C157 C22 0.439 . S
C176 C50 0.521 . S
C193 C64 0.440 . S
C212 C92 0.516 . S
C229 C78 0.454 . S
C248 C106 0.432 . S
C265 C13 1.371 . S
C284 C83 1.394 . S
C301 C27 1.371 . S
C320 C97 1.392 . S
C337 C111 1.360 . S
C356 C41 1.387 . S
C373 C55 1.371 . S
C392 C69 1.342 . S
C409 C63 1.423 . S
C428 C11 1.460 . S
C445 C25 1.465 . S
C464 C77 1.433 . S
C481 C39 1.464 . S
C500 C91 1.424 . S
C517 C53 1.464 . S
C536 C105 1.425 . S
C553 C7 1.424 . S
C572 C67 1.466 . S
C589 C81 1.465 . S
C608 C21 1.443 . S
C625 C95 1.463 . S
C644 C35 1.397 . S
C661 C49 1.426 . S
C680 C109 1.467 . S
