# Generated by pormake.
# Topology wiu, (6)-cn, num edge types: 1
# Building blocks:
#     Node 0, Type 0, BuildingBlock: PAMTOO_clean_sbu_0, # of connection points: 6
#     Node 1, Type 0, BuildingBlock: PAMTOO_clean_sbu_0, # of connection points: 6
#     Node 2, Type 0, BuildingBlock: PAMTOO_clean_sbu_0, # of connection points: 6
#     Node 3, Type 0, BuildingBlock: PAMTOO_clean_sbu_0, # of connection points: 6
#     Node 4, Type 0, BuildingBlock: PAMTOO_clean_sbu_0, # of connection points: 6
#     Node 5, Type 0, BuildingBlock: PAMTOO_clean_sbu_0, # of connection points: 6
#     Node 6, Type 0, BuildingBlock: PAMTOO_clean_sbu_0, # of connection points: 6
#     Node 7, Type 0, BuildingBlock: PAMTOO_clean_sbu_0, # of connection points: 6
#     Node 8, Type 0, BuildingBlock: PAMTOO_clean_sbu_0, # of connection points: 6
#     Node 9, Type 0, BuildingBlock: PAMTOO_clean_sbu_0, # of connection points: 6
#     Node 10, Type 0, BuildingBlock: PAMTOO_clean_sbu_0, # of connection points: 6
#     Node 11, Type 0, BuildingBlock: PAMTOO_clean_sbu_0, # of connection points: 6
#     Node 12, Type 0, BuildingBlock: PAMTOO_clean_sbu_0, # of connection points: 6
#     Node 13, Type 0, BuildingBlock: PAMTOO_clean_sbu_0, # of connection points: 6
#     Node 14, Type 0, BuildingBlock: PAMTOO_clean_sbu_0, # of connection points: 6
#     Node 15, Type 0, BuildingBlock: PAMTOO_clean_sbu_0, # of connection points: 6
#     Edge 16, Type (0, 0), BuildingBlock: KIFKEQ_clean_linker_1, # of connection points: 2
#     Edge 17, Type (0, 0), BuildingBlock: KIFKEQ_clean_linker_1, # of connection points: 2
#     Edge 18, Type (0, 0), BuildingBlock: KIFKEQ_clean_linker_1, # of connection points: 2
#     Edge 19, Type (0, 0), BuildingBlock: KIFKEQ_clean_linker_1, # of connection points: 2
#     Edge 20, Type (0, 0), BuildingBlock: KIFKEQ_clean_linker_1, # of connection points: 2
#     Edge 21, Type (0, 0), BuildingBlock: KIFKEQ_clean_linker_1, # of connection points: 2
#     Edge 22, Type (0, 0), BuildingBlock: KIFKEQ_clean_linker_1, # of connection points: 2
#     Edge 23, Type (0, 0), BuildingBlock: KIFKEQ_clean_linker_1, # of connection points: 2
#     Edge 24, Type (0, 0), BuildingBlock: KIFKEQ_clean_linker_1, # of connection points: 2
#     Edge 25, Type (0, 0), BuildingBlock: KIFKEQ_clean_linker_1, # of connection points: 2
#     Edge 26, Type (0, 0), BuildingBlock: KIFKEQ_clean_linker_1, # of connection points: 2
#     Edge 27, Type (0, 0), BuildingBlock: KIFKEQ_clean_linker_1, # of connection points: 2
#     Edge 28, Type (0, 0), BuildingBlock: KIFKEQ_clean_linker_1, # of connection points: 2
#     Edge 29, Type (0, 0), BuildingBlock: KIFKEQ_clean_linker_1, # of connection points: 2
#     Edge 30, Type (0, 0), BuildingBlock: KIFKEQ_clean_linker_1, # of connection points: 2
#     Edge 31, Type (0, 0), BuildingBlock: KIFKEQ_clean_linker_1, # of connection points: 2
#     Edge 32, Type (0, 0), BuildingBlock: KIFKEQ_clean_linker_1, # of connection points: 2
#     Edge 33, Type (0, 0), BuildingBlock: KIFKEQ_clean_linker_1, # of connection points: 2
#     Edge 34, Type (0, 0), BuildingBlock: KIFKEQ_clean_linker_1, # of connection points: 2
#     Edge 35, Type (0, 0), BuildingBlock: KIFKEQ_clean_linker_1, # of connection points: 2
#     Edge 36, Type (0, 0), BuildingBlock: KIFKEQ_clean_linker_1, # of connection points: 2
#     Edge 37, Type (0, 0), BuildingBlock: KIFKEQ_clean_linker_1, # of connection points: 2
#     Edge 38, Type (0, 0), BuildingBlock: KIFKEQ_clean_linker_1, # of connection points: 2
#     Edge 39, Type (0, 0), BuildingBlock: KIFKEQ_clean_linker_1, # of connection points: 2
#     Edge 40, Type (0, 0), BuildingBlock: KIFKEQ_clean_linker_1, # of connection points: 2
#     Edge 41, Type (0, 0), BuildingBlock: KIFKEQ_clean_linker_1, # of connection points: 2
#     Edge 42, Type (0, 0), BuildingBlock: KIFKEQ_clean_linker_1, # of connection points: 2
#     Edge 43, Type (0, 0), BuildingBlock: KIFKEQ_clean_linker_1, # of connection points: 2
#     Edge 44, Type (0, 0), BuildingBlock: KIFKEQ_clean_linker_1, # of connection points: 2
#     Edge 45, Type (0, 0), BuildingBlock: KIFKEQ_clean_linker_1, # of connection points: 2
#     Edge 46, Type (0, 0), BuildingBlock: KIFKEQ_clean_linker_1, # of connection points: 2
#     Edge 47, Type (0, 0), BuildingBlock: KIFKEQ_clean_linker_1, # of connection points: 2
#     Edge 48, Type (0, 0), BuildingBlock: KIFKEQ_clean_linker_1, # of connection points: 2
#     Edge 49, Type (0, 0), BuildingBlock: KIFKEQ_clean_linker_1, # of connection points: 2
#     Edge 50, Type (0, 0), BuildingBlock: KIFKEQ_clean_linker_1, # of connection points: 2
#     Edge 51, Type (0, 0), BuildingBlock: KIFKEQ_clean_linker_1, # of connection points: 2
#     Edge 52, Type (0, 0), BuildingBlock: KIFKEQ_clean_linker_1, # of connection points: 2
#     Edge 53, Type (0, 0), BuildingBlock: KIFKEQ_clean_linker_1, # of connection points: 2
#     Edge 54, Type (0, 0), BuildingBlock: KIFKEQ_clean_linker_1, # of connection points: 2
#     Edge 55, Type (0, 0), BuildingBlock: KIFKEQ_clean_linker_1, # of connection points: 2
#     Edge 56, Type (0, 0), BuildingBlock: KIFKEQ_clean_linker_1, # of connection points: 2
#     Edge 57, Type (0, 0), BuildingBlock: KIFKEQ_clean_linker_1, # of connection points: 2
#     Edge 58, Type (0, 0), BuildingBlock: KIFKEQ_clean_linker_1, # of connection points: 2
#     Edge 59, Type (0, 0), BuildingBlock: KIFKEQ_clean_linker_1, # of connection points: 2
#     Edge 60, Type (0, 0), BuildingBlock: KIFKEQ_clean_linker_1, # of connection points: 2
#     Edge 61, Type (0, 0), BuildingBlock: KIFKEQ_clean_linker_1, # of connection points: 2
#     Edge 62, Type (0, 0), BuildingBlock: KIFKEQ_clean_linker_1, # of connection points: 2
#     Edge 63, Type (0, 0), BuildingBlock: KIFKEQ_clean_linker_1, # of connection points: 2
# Relax obj value: 0.481
# Max RMSD: 0.301
# Mean RMSD: 0.301
data_MOF--net-wiu--node1-PAMTOO_clean_sbu_0--edge1-KIFKEQ_clean_linker_1
_symmetry_space_group_name_H-M    P1
_symmetry_Int_Tables_number       1
_symmetry_cell_setting            triclinic
loop_
_symmetry_equiv_pos_as_xyz
'x, y, z'
_cell_length_a     39.676626
_cell_length_b     39.653335
_cell_length_c     53.410371
_cell_angle_alpha  90.473312
_cell_angle_beta   90.059723
_cell_angle_gamma 90.116539
loop_
_atom_site_label
_atom_site_type_symbol
_atom_site_fract_x
_atom_site_fract_y
_atom_site_fract_z
_atom_type_partial_charge
Dy0 Dy 0.36421 0.10928 0.24455 0.0
Dy1 Dy 0.32961 0.17084 0.27069 0.0
C2 C 0.40507 0.17904 0.25105 0.0
O3 O 0.36872 0.09339 0.28425 0.0
O4 O 0.34863 0.14025 0.3046 0.0
O5 O 0.39797 0.08837 0.2172 0.0
O6 O 0.36924 0.05532 0.24172 0.0
O7 O 0.29518 0.12968 0.28091 0.0
O8 O 0.30878 0.09699 0.24716 0.0
O9 O 0.29966 0.16443 0.23402 0.0
O10 O 0.33815 0.13376 0.21195 0.0
O11 O 0.28995 0.20742 0.27271 0.0
O12 O 0.33492 0.21337 0.29615 0.0
C13 C 0.36147 0.10929 0.30513 0.0
O14 O 0.40763 0.14597 0.25257 0.0
O15 O 0.37488 0.19222 0.25102 0.0
C16 C 0.37762 0.03682 0.20015 0.0
C17 C 0.39253 0.99146 1.16264 0.0
C18 C 0.38705 0.0255 1.15631 0.0
C19 C 0.38176 0.0487 0.17566 0.0
C20 C 0.36988 1.00259 0.20357 0.0
C21 C 0.37468 0.97994 0.18369 0.0
C22 C 0.3878 0.05763 0.22171 0.0
C23 C 0.2875 0.10589 0.26485 0.0
C24 C 0.30929 0.14999 0.21278 0.0
C25 C 0.28704 0.24823 0.30578 0.0
C26 C 0.2506 0.30282 0.32576 0.0
C27 C 0.23369 0.27341 0.31768 0.0
C28 C 0.25179 0.24636 0.30754 0.0
C29 C 0.30403 0.27605 0.31596 0.0
C30 C 0.28607 0.30315 0.32574 0.0
C31 C 0.30607 0.22592 0.2891 0.0
H32 H 0.39511 0.03538 1.13847 0.0
H33 H 0.385 0.07532 0.17194 0.0
H34 H 0.36422 0.99287 0.222 0.0
H35 H 0.37345 0.95321 0.18762 0.0
H36 H 0.20644 0.27201 0.31787 0.0
H37 H 0.23813 0.22505 0.29972 0.0
H38 H 0.3312 0.27814 0.31446 0.0
H39 H 0.30015 0.32538 0.33132 0.0
Dy40 Dy 0.66222 0.62034 0.49825 0.0
Dy41 Dy 0.60042 0.58182 0.52232 0.0
C42 C 0.59083 0.65991 0.50287 0.0
O43 O 0.66886 0.63238 0.5391 0.0
O44 O 0.6337 0.59332 0.55644 0.0
O45 O 0.68827 0.65301 0.47293 0.0
O46 O 0.71618 0.62513 0.50126 0.0
O47 O 0.64216 0.54813 0.53239 0.0
O48 O 0.67475 0.56505 0.49974 0.0
O49 O 0.60661 0.55519 0.48425 0.0
O50 O 0.64177 0.5923 0.46445 0.0
O51 O 0.56347 0.54208 0.52218 0.0
O52 O 0.5591 0.58445 0.54863 0.0
C53 C 0.65848 0.61553 0.55864 0.0
O54 O 0.62346 0.6626 0.49866 0.0
O55 O 0.57785 0.63081 0.50935 0.0
C56 C 0.74207 0.63271 0.46228 0.0
C57 C 0.7804 0.64167 0.41994 0.0
C58 C 0.75225 0.6199 0.41869 0.0
C59 C 0.73151 0.61755 0.43975 0.0
C60 C 0.77577 0.64229 0.46496 0.0
C61 C 0.79597 0.64439 0.44368 0.0
C62 C 0.7178 0.64353 0.48121 0.0
C63 C 0.66663 0.54263 0.51663 0.0
C64 C 0.62357 0.56439 0.46406 0.0
C65 C 0.52308 0.53658 0.55531 0.0
C66 C 0.46744 0.50043 0.5733 0.0
C67 C 0.49547 0.48323 0.56335 0.0
C68 C 0.52307 0.50123 0.55422 0.0
C69 C 0.49669 0.55348 0.56742 0.0
C70 C 0.46906 0.53561 0.57632 0.0
C71 C 0.54585 0.55662 0.53984 0.0
H72 H 0.74211 0.61184 0.40079 0.0
H73 H 0.70626 0.6074 0.43774 0.0
H74 H 0.7853 0.65159 0.48275 0.0
H75 H 0.82065 0.65563 0.44591 0.0
H76 H 0.49515 0.45605 0.56119 0.0
H77 H 0.54322 0.48766 0.54491 0.0
H78 H 0.49609 0.5808 0.56817 0.0
H79 H 0.44783 0.54973 0.58357 0.0
Dy80 Dy 0.15338 0.91215 0.7463 0.0
Dy81 Dy 0.1908 0.84998 0.76989 0.0
C82 C 0.11429 0.84117 0.75129 0.0
O83 O 0.15056 0.92636 0.78679 0.0
O84 O 0.172 0.87864 0.80483 0.0
O85 O 0.11981 0.93435 0.71954 0.0
O86 O 0.14579 0.96581 0.74722 0.0
O87 O 0.2245 0.89233 0.7803 0.0
O88 O 0.20855 0.92451 0.74724 0.0
O89 O 0.21805 0.85684 0.73235 0.0
O90 O 0.17984 0.89034 0.71244 0.0
O91 O 0.2323 0.81524 0.77124 0.0
O92 O 0.18693 0.80598 0.79341 0.0
C93 C 0.15844 0.90914 0.80674 0.0
O94 O 0.11115 0.87417 0.75309 0.0
O95 O 0.14462 0.82816 0.75116 0.0
C96 C 0.13731 0.98914 0.7073 0.0
C97 C 0.11945 0.03843 0.67396 0.0
C98 C 0.12713 1.0059 0.66472 0.0
C99 C 0.13415 0.98058 0.68188 0.0
C100 C 0.14237 0.02313 0.71393 0.0
C101 C 0.13575 0.04812 0.69631 0.0
C102 C 0.12798 0.96492 0.72673 0.0
C103 C 0.23072 0.91639 0.76439 0.0
C104 C 0.20807 0.87289 0.71202 0.0
C105 C 0.23594 0.77285 0.80287 0.0
C106 C 0.27224 0.71797 0.8221 0.0
C107 C 0.28934 0.74672 0.81335 0.0
C108 C 0.27131 0.77389 0.80361 0.0
C109 C 0.21893 0.7457 0.81369 0.0
C110 C 0.23682 0.71849 0.82313 0.0
C111 C 0.21658 0.79516 0.78653 0.0
H112 H 0.11951 0.99802 0.6461 0.0
H113 H 0.13273 0.95449 0.67577 0.0
H114 H 0.14694 0.03049 0.73322 0.0
H115 H 0.13436 0.07403 0.70281 0.0
H116 H 0.31661 0.74746 0.81274 0.0
H117 H 0.28504 0.7946 0.79528 0.0
H118 H 0.19166 0.74416 0.813 0.0
H119 H 0.22258 0.69677 0.82928 0.0
Dy120 Dy 0.85536 0.40368 0.99498 0.0
Dy121 Dy 0.91683 0.44066 1.02081 0.0
C122 C 0.92641 0.36415 1.00097 0.0
O123 O 0.84061 0.3994 1.03502 0.0
O124 O 0.88653 0.42208 1.05502 0.0
O125 O 0.83337 0.37156 0.96678 0.0
O126 O 0.80183 0.39525 0.99539 0.0
O127 O 0.87432 0.47383 1.03108 0.0
O128 O 0.84328 0.45902 0.99687 0.0
O129 O 0.91234 0.46761 0.98281 0.0
O130 O 0.87582 0.43226 0.96221 0.0
O131 O 0.95116 0.48252 1.02338 0.0
O132 O 0.95996 0.43713 1.04552 0.0
C133 C 0.85615 0.40787 1.05577 0.0
O134 O 0.89331 0.36109 1.00054 0.0
O135 O 0.93975 0.39428 1.00324 0.0
C136 C 0.77841 0.38928 0.95498 0.0
C137 C 0.72768 0.37142 0.92258 0.0
C138 C 0.75979 0.3787 0.91267 0.0
C139 C 0.78598 0.38533 0.92946 0.0
C140 C 0.74482 0.39564 0.96189 0.0
C141 C 0.71909 0.38921 0.94456 0.0
C142 C 0.80278 0.37892 0.97413 0.0
C143 C 0.85085 0.48058 1.01478 0.0
C144 C 0.8951 0.45927 0.96238 0.0
C145 C 0.99297 0.48639 1.05571 0.0
C146 C 0.04771 0.52296 1.07559 0.0
C147 C 0.01903 0.53994 1.06663 0.0
C148 C 0.99193 0.52177 1.05655 0.0
C149 C 0.02001 0.46949 1.06677 0.0
C150 C 0.04715 0.48752 1.07653 0.0
C151 C 0.9708 0.46692 1.03906 0.0
H152 H 0.76667 0.37047 0.89399 0.0
H153 H 0.81177 0.38296 0.92304 0.0
H154 H 0.73818 0.40091 0.9812 0.0
H155 H 0.69338 0.38858 0.95136 0.0
H156 H 0.01831 0.56722 1.06608 0.0
H157 H 0.9713 0.5354 1.04805 0.0
H158 H 0.02152 0.44221 1.06601 0.0
H159 H 0.06882 0.47337 1.08283 0.0
Dy160 Dy 0.68739 0.85218 1.05715 0.0
Dy161 Dy 0.651 0.91521 1.08218 0.0
C162 C 0.72936 0.91739 1.06441 0.0
O163 O 0.71394 0.85767 1.09538 0.0
O164 O 0.67964 0.89575 1.11532 0.0
O165 O 0.72511 0.81382 1.05942 0.0
O166 O 0.68781 0.81193 1.02928 0.0
O167 O 0.60791 0.87691 1.07764 0.0
O168 O 0.63984 0.82988 1.07241 0.0
O169 O 0.64637 0.92822 1.04202 0.0
O170 O 0.67145 0.88311 1.02257 0.0
O171 O 0.61784 0.93868 1.10881 0.0
O172 O 0.64429 0.96909 1.0812 0.0
C173 C 0.70611 0.87582 1.1155 0.0
O174 O 0.72308 0.89288 1.04865 0.0
O175 O 0.70658 0.92756 1.08066 0.0
C176 C 0.73652 0.77599 1.02559 0.0
C177 C 0.77641 0.72139 1.00969 0.0
C178 C 0.79126 0.74919 1.02206 0.0
C179 C 0.77139 0.77623 1.03012 0.0
C180 C 0.72233 0.74996 1.01123 0.0
C181 C 0.74198 0.72286 1.00345 0.0
C182 C 0.71352 0.79747 1.03998 0.0
C183 C 0.6103 0.84374 1.07588 0.0
C184 C 0.65651 0.91307 1.02155 0.0
C185 C 0.63726 0.99241 1.12128 0.0
C186 C 0.62937 0.03044 1.16421 0.0
C187 C 0.6498 1.00139 0.16507 0.0
C188 C 0.65135 0.98082 1.14373 0.0
C189 C 0.6294 0.02659 1.11911 0.0
C190 C 0.62795 0.04653 1.14072 0.0
C191 C 0.62643 0.96897 1.10162 0.0
H192 H 0.81783 0.74925 1.02672 0.0
H193 H 0.78291 0.79611 1.04126 0.0
H194 H 0.6954 0.74909 1.00784 0.0
H195 H 0.72933 0.70188 0.99435 0.0
H196 H 0.65707 0.99063 0.18283 0.0
H197 H 0.66006 0.95509 1.14544 0.0
H198 H 0.62106 0.03686 1.10142 0.0
H199 H 0.61806 0.07177 1.13887 0.0
Dy200 Dy 0.41428 0.44069 0.8046 0.0
Dy201 Dy 0.3547 0.40104 0.83068 0.0
C202 C 0.34753 0.47791 0.81369 0.0
O203 O 0.4106 0.46578 0.84364 0.0
O204 O 0.37623 0.42865 0.86413 0.0
O205 O 0.44351 0.48644 0.80207 0.0
O206 O 0.45676 0.44191 0.77922 0.0
O207 O 0.39455 0.35985 0.82646 0.0
O208 O 0.43997 0.39349 0.8185 0.0
O209 O 0.34049 0.39607 0.7903 0.0
O210 O 0.38405 0.42243 0.77029 0.0
O211 O 0.33181 0.36722 0.85691 0.0
O212 O 0.30097 0.39356 0.82951 0.0
C213 C 0.39485 0.45622 0.86432 0.0
O214 O 0.36895 0.47078 0.79596 0.0
O215 O 0.34201 0.45621 0.83158 0.0
C216 C 0.49173 0.49191 0.77463 0.0
C217 C 0.54999 0.52706 0.76013 0.0
C218 C 0.52202 0.5446 0.76976 0.0
C219 C 0.49324 0.52711 0.77716 0.0
C220 C 0.51863 0.47456 0.76356 0.0
C221 C 0.54759 0.49193 0.75651 0.0
C222 C 0.46363 0.47307 0.78549 0.0
C223 C 0.42742 0.36354 0.82347 0.0
C224 C 0.35468 0.40642 0.76958 0.0
C225 C 0.27829 0.38679 0.86953 0.0
C226 C 0.23788 0.38149 0.91133 0.0
C227 C 0.26917 0.39838 0.91338 0.0
C228 C 0.29035 0.39903 0.89256 0.0
C229 C 0.24357 0.38224 0.86635 0.0
C230 C 0.22273 0.38224 0.88741 0.0
C231 C 0.30141 0.37573 0.84985 0.0
H232 H 0.52272 0.5717 0.77235 0.0
H233 H 0.47258 0.54103 0.78552 0.0
H234 H 0.51804 0.44735 0.76155 0.0
H235 H 0.56873 0.47741 0.74957 0.0
H236 H 0.28018 0.40435 0.9314 0.0
H237 H 0.31661 0.40586 0.895 0.0
H238 H 0.23314 0.37569 0.84819 0.0
H239 H 0.19656 0.37536 0.88483 0.0
Dy240 Dy 0.82569 0.16666 0.55559 0.0
Dy241 Dy 0.86698 0.10758 0.58032 0.0
C242 C 0.78925 0.09937 0.56294 0.0
O243 O 0.80232 0.16293 0.59488 0.0
O244 O 0.83794 0.12561 0.61404 0.0
O245 O 0.78193 0.19892 0.55491 0.0
O246 O 0.824 0.20696 0.52864 0.0
O247 O 0.90575 0.14961 0.58435 0.0
O248 O 0.87669 0.19037 0.56328 0.0
O249 O 0.88091 0.10455 0.53949 0.0
O250 O 0.83579 0.13137 0.52263 0.0
O251 O 0.90082 0.08131 0.60468 0.0
O252 O 0.87328 0.05398 0.57545 0.0
C253 C 0.8111 0.14515 0.61476 0.0
O254 O 0.79473 0.1222 0.54607 0.0
O255 O 0.81196 0.09332 0.58014 0.0
C256 C 0.77637 0.24484 0.52562 0.0
C257 C 0.74234 0.30295 0.50993 0.0
C258 C 0.72417 0.27481 0.5185 0.0
C259 C 0.74112 0.24612 0.52656 0.0
C260 C 0.79449 0.27188 0.51567 0.0
C261 C 0.77767 0.30082 0.50807 0.0
C262 C 0.79434 0.21642 0.53652 0.0
C263 C 0.9041 0.18023 0.57491 0.0
C264 C 0.86128 0.11033 0.52024 0.0
C265 C 0.88095 0.02687 0.6138 0.0
C266 C 0.88709 0.98574 0.65495 0.0
C267 C 0.86663 0.01477 0.65669 0.0
C268 C 0.86552 0.03662 0.63634 0.0
C269 C 0.88956 0.99305 0.61014 0.0
C270 C 0.89015 0.97156 0.63069 0.0
C271 C 0.89174 0.0519 0.59557 0.0
H272 H 0.69694 0.27527 0.5197 0.0
H273 H 0.72671 0.22524 0.534 0.0
H274 H 0.82178 0.27135 0.51492 0.0
H275 H 0.79265 0.3221 0.50205 0.0
H276 H 0.85792 0.02416 0.67462 0.0
H277 H 0.85583 0.06193 0.63896 0.0
H278 H 0.89883 0.98417 0.59219 0.0
H279 H 0.90008 0.94646 0.62783 0.0
Dy280 Dy 0.10168 0.58213 0.30528 0.0
Dy281 Dy 0.16323 0.61888 0.33237 0.0
C282 C 0.16706 0.53953 0.31663 0.0
O283 O 0.10594 0.55346 0.34269 0.0
O284 O 0.14105 0.58952 0.36423 0.0
O285 O 0.04932 0.56854 0.30666 0.0
O286 O 0.07796 0.56027 0.27236 0.0
O287 O 0.1255 0.66196 0.32757 0.0
O288 O 0.07888 0.6304 0.3191 0.0
O289 O 0.1792 0.62083 0.29252 0.0
O290 O 0.13021 0.60674 0.27264 0.0
O291 O 0.18466 0.65105 0.36079 0.0
O292 O 0.21669 0.6285 0.33212 0.0
C293 C 0.12238 0.562 0.36352 0.0
O294 O 0.14062 0.54263 0.30221 0.0
O295 O 0.17759 0.56406 0.33141 0.0
C296 C 0.02552 0.53152 0.27648 0.0
C297 C 0.96992 0.48932 0.26745 0.0
C298 C 0.99262 0.48217 0.28704 0.0
C299 C 0.02015 0.50341 0.2917 0.0
C300 C 1.00467 0.53708 0.25586 0.0
C301 C 0.97702 0.51637 0.25143 0.0
C302 C 0.04876 0.55853 0.28337 0.0
C303 C 0.09256 0.65963 0.32442 0.0
C304 C 0.16202 0.6169 0.27181 0.0
C305 C 0.2391 0.63312 0.37262 0.0
C306 C 0.28033 0.63986 0.41387 0.0
C307 C 0.24978 0.62185 0.41624 0.0
C308 C 0.22783 0.62105 0.39579 0.0
C309 C 0.27372 0.6379 0.36902 0.0
C310 C 0.29506 0.63842 0.38982 0.0
C311 C 0.21541 0.64446 0.35347 0.0
H312 H 0.98829 0.46113 0.29943 0.0
H313 H 0.03616 0.49886 0.30777 0.0
H314 H 1.00844 0.55893 0.2441 0.0
H315 H 0.96 0.5232 0.23646 0.0
H316 H 0.23963 0.61586 0.43446 0.0
H317 H 0.20168 0.61427 0.39866 0.0
H318 H 0.28363 0.64434 0.35077 0.0
H319 H 0.32107 0.64562 0.38694 0.0
Dy320 Dy 0.86761 0.60775 0.74723 0.0
Dy321 Dy 0.82989 0.66999 0.77212 0.0
C322 C 0.90796 0.67908 0.7526 0.0
O323 O 0.87908 0.59992 0.78785 0.0
O324 O 0.84227 0.63707 0.80608 0.0
O325 O 0.9 0.58254 0.72101 0.0
O326 O 0.87243 0.55373 0.74908 0.0
O327 O 0.79568 0.62842 0.78194 0.0
O328 O 0.81223 0.59559 0.74902 0.0
O329 O 0.80397 0.66456 0.73369 0.0
O330 O 0.8394 0.62744 0.71387 0.0
O331 O 0.79082 0.70728 0.77132 0.0
O332 O 0.83113 0.71097 0.79922 0.0
C333 C 0.86351 0.61142 0.80779 0.0
O334 O 0.91013 0.64644 0.74791 0.0
O335 O 0.87915 0.69234 0.75953 0.0
C336 C 0.87958 0.52839 0.70934 0.0
C337 C 0.89636 0.47952 0.67492 0.0
C338 C 0.8869 0.51164 0.66622 0.0
C339 C 0.88051 0.5369 0.68389 0.0
C340 C 0.87569 0.49435 0.71578 0.0
C341 C 0.88153 0.46946 0.6976 0.0
C342 C 0.89023 0.55277 0.72859 0.0
C343 C 0.78995 0.6039 0.76611 0.0
C344 C 0.81243 0.64672 0.71356 0.0
C345 C 0.78235 0.74604 0.80529 0.0
C346 C 0.74405 0.80092 0.82249 0.0
C347 C 0.72814 0.77309 0.81097 0.0
C348 C 0.7472 0.74585 0.8023 0.0
C349 C 0.7977 0.77208 0.81906 0.0
C350 C 0.77874 0.79933 0.8276 0.0
C351 C 0.80402 0.72449 0.78981 0.0
H352 H 0.89297 0.51955 0.6474 0.0
H353 H 0.88081 0.56299 0.678 0.0
H354 H 0.87275 0.48699 0.73515 0.0
H355 H 0.88401 0.44362 0.70375 0.0
H356 H 0.70132 0.77344 0.80714 0.0
H357 H 0.73477 0.72599 0.79171 0.0
H358 H 0.82484 0.77287 0.82131 0.0
H359 H 0.79186 0.82045 0.83616 0.0
Dy360 Dy 0.15946 0.11826 0.9946 0.0
Dy361 Dy 0.09861 0.08163 1.02049 0.0
C362 C 0.08894 0.15824 1.00117 0.0
O363 O 0.17358 0.12516 1.03471 0.0
O364 O 0.12938 0.09982 1.05475 0.0
O365 O 0.18178 0.14971 0.96652 0.0
O366 O 0.21316 0.12554 0.99473 0.0
O367 O 0.1413 0.04944 1.03162 0.0
O368 O 0.17194 0.06301 0.99715 0.0
O369 O 0.10488 0.05282 0.98307 0.0
O370 O 0.13646 0.09108 0.96165 0.0
O371 O 0.06297 0.0409 1.02133 0.0
O372 O 0.05658 0.08444 1.0463 0.0
C373 C 0.15898 0.11555 1.05546 0.0
O374 O 0.12201 0.16127 1.00031 0.0
O375 O 0.0756 0.12819 1.00368 0.0
C376 C 0.23636 0.13112 0.95436 0.0
C377 C 0.28708 0.14779 0.92182 0.0
C378 C 0.25467 0.14108 0.91206 0.0
C379 C 0.22859 0.13494 0.92891 0.0
C380 C 0.26993 0.12445 0.96113 0.0
C381 C 0.29559 0.13035 0.94376 0.0
C382 C 0.2123 0.14187 0.97368 0.0
C383 C 0.16541 0.04272 1.01581 0.0
C384 C 0.11976 0.06242 0.96207 0.0
C385 C 0.02339 0.03495 1.0548 0.0
C386 C 0.96861 0.99769 1.07306 0.0
C387 C 0.99615 0.9811 1.06192 0.0
C388 C 0.02334 0.99963 1.05273 0.0
C389 C 0.99771 0.05108 1.06829 0.0
C390 C 0.97052 0.03263 1.07738 0.0
C391 C 0.04454 0.05558 1.03843 0.0
H392 H 0.24768 0.14925 0.89348 0.0
H393 H 0.20277 0.13759 0.92262 0.0
H394 H 0.27667 0.11933 0.98039 0.0
H395 H 0.32136 0.13071 0.95049 0.0
H396 H 0.99554 0.9541 1.0587 0.0
H397 H 0.04287 0.98655 1.04238 0.0
H398 H 0.99706 0.07835 1.06985 0.0
H399 H 0.94961 0.04622 1.08567 0.0
Dy400 Dy 0.65242 0.41296 0.24634 0.0
Dy401 Dy 0.68813 0.35071 0.27135 0.0
C402 C 0.61142 0.34228 0.25221 0.0
O403 O 0.6468 0.42666 0.28652 0.0
O404 O 0.67096 0.3815 0.30605 0.0
O405 O 0.61916 0.43625 0.21993 0.0
O406 O 0.6476 0.46707 0.24658 0.0
O407 O 0.72126 0.39241 0.28267 0.0
O408 O 0.70808 0.42485 0.24911 0.0
O409 O 0.71673 0.35786 0.23416 0.0
O410 O 0.67867 0.39 0.213 0.0
O411 O 0.72808 0.31435 0.27074 0.0
O412 O 0.68624 0.30867 0.29706 0.0
C413 C 0.65626 0.41162 0.30707 0.0
O414 O 0.60897 0.37549 0.25178 0.0
O415 O 0.64123 0.32851 0.2543 0.0
C416 C 0.63928 0.489 0.20648 0.0
C417 C 0.6293 0.52579 1.16366 0.0
C418 C 0.64877 0.49608 1.16222 0.0
C419 C 0.65147 0.47625 0.18363 0.0
C420 C 0.63261 0.52348 0.20869 0.0
C421 C 0.6302 0.54274 0.18703 0.0
C422 C 0.62884 0.46658 0.22658 0.0
C423 C 0.72918 0.41594 0.26685 0.0
C424 C 0.70716 0.3731 0.21334 0.0
C425 C 0.7354 0.27415 0.30342 0.0
C426 C 0.77349 0.21937 0.32081 0.0
C427 C 0.78964 0.24761 0.31036 0.0
C428 C 0.77069 0.27473 0.30154 0.0
C429 C 0.71962 0.24759 0.3159 0.0
C430 C 0.73838 0.22042 0.32442 0.0
C431 C 0.7142 0.29614 0.28814 0.0
H432 H 0.65458 0.48455 1.14431 0.0
H433 H 0.65962 0.45028 0.18184 0.0
H434 H 0.62587 0.53461 0.22659 0.0
H435 H 0.6214 0.56839 0.18905 0.0
H436 H 0.8167 0.24799 0.30775 0.0
H437 H 0.78346 0.295 0.29189 0.0
H438 H 0.69238 0.24643 0.31724 0.0
H439 H 0.72479 0.19911 0.33196 0.0
Dy440 Dy 0.35705 0.90403 0.49361 0.0
Dy441 Dy 0.41741 0.94114 0.52005 0.0
C442 C 0.42743 0.86485 0.50062 0.0
O443 O 0.34106 0.89972 0.53342 0.0
O444 O 0.38681 0.92204 0.55386 0.0
O445 O 0.33651 0.87093 0.46542 0.0
O446 O 0.30338 0.8966 0.49199 0.0
O447 O 0.37449 0.97383 0.53018 0.0
O448 O 0.34439 0.9592 0.49549 0.0
O449 O 0.41173 0.96974 0.48289 0.0
O450 O 0.3809 0.93078 0.46106 0.0
O451 O 0.45213 0.98257 0.5227 0.0
O452 O 0.45973 0.93761 0.54566 0.0
C453 C 0.35637 0.90801 0.55433 0.0
O454 O 0.39439 0.86158 0.50111 0.0
O455 O 0.44039 0.89527 0.50158 0.0
C456 C 0.28349 0.89011 0.45063 0.0
C457 C 0.2354 0.8758 0.4151 0.0
C458 C 0.26892 0.88118 0.40725 0.0
C459 C 0.29354 0.88596 0.42561 0.0
C460 C 0.24968 0.89828 0.45562 0.0
C461 C 0.2256 0.8938 0.43671 0.0
C462 C 0.30561 0.87946 0.47114 0.0
C463 C 0.35134 0.98063 0.51362 0.0
C464 C 0.39719 0.95972 0.46175 0.0
C465 C 0.49425 0.9865 0.5548 0.0
C466 C 0.54978 0.02277 0.5737 0.0
C467 C 0.52092 0.0399 0.56524 0.0
C468 C 0.49341 0.02187 0.55566 0.0
C469 C 0.52156 0.96943 0.56532 0.0
C470 C 0.5491 0.98732 0.5746 0.0
C471 C 0.47106 0.96709 0.53891 0.0
H472 H 0.27732 0.873 0.38892 0.0
H473 H 0.31977 0.88234 0.42067 0.0
H474 H 0.24132 0.90389 0.4745 0.0
H475 H 0.19924 0.89496 0.44189 0.0
H476 H 0.5203 0.06718 0.56474 0.0
H477 H 0.47251 0.03559 0.5476 0.0
H478 H 0.52286 0.94214 0.56456 0.0
H479 H 0.57089 0.97306 0.58054 0.0
Dy480 Dy 0.18429 0.35159 0.55342 0.0
Dy481 Dy 0.14961 0.41425 0.57772 0.0
C482 C 0.23095 0.41331 0.56346 0.0
O483 O 0.20962 0.35518 0.59254 0.0
O484 O 0.17981 0.39826 0.61098 0.0
O485 O 0.20123 0.30047 0.55845 0.0
O486 O 0.19683 0.32154 0.5209 0.0
O487 O 0.11155 0.37257 0.5866 0.0
O488 O 0.12927 0.33796 0.55541 0.0
O489 O 0.13309 0.41441 0.53731 0.0
O490 O 0.17926 0.38903 0.52137 0.0
O491 O 0.1158 0.4422 0.60132 0.0
O492 O 0.14542 0.46806 0.57298 0.0
C493 C 0.20403 0.37573 0.61194 0.0
O494 O 0.22796 0.3846 0.55162 0.0
O495 O 0.20518 0.42804 0.57469 0.0
C496 C 0.22823 0.27105 0.52513 0.0
C497 C 0.2714 0.21844 0.5106 0.0
C498 C 0.28435 0.2472 0.52309 0.0
C499 C 0.26275 0.27338 0.53049 0.0
C500 C 0.21567 0.24345 0.51172 0.0
C501 C 0.23686 0.21733 0.50469 0.0
C502 C 0.20352 0.29516 0.53437 0.0
C503 C 0.10686 0.3455 0.57251 0.0
C504 C 0.15357 0.4096 0.51839 0.0
C505 C 0.13645 0.49625 0.61116 0.0
C506 C 0.12827 0.53729 0.65273 0.0
C507 C 0.14856 0.50817 0.65461 0.0
C508 C 0.15083 0.48648 0.63397 0.0
C509 C 0.12776 0.53003 0.60777 0.0
C510 C 0.12603 0.55144 0.62859 0.0
C511 C 0.12606 0.47114 0.59253 0.0
H512 H 0.31086 0.24907 0.52771 0.0
H513 H 0.27272 0.2948 0.54084 0.0
H514 H 0.18898 0.24137 0.50759 0.0
H515 H 0.22551 0.19547 0.49581 0.0
H516 H 0.15653 0.49866 0.67257 0.0
H517 H 0.16043 0.46117 0.6365 0.0
H518 H 0.11915 0.53889 0.58972 0.0
H519 H 0.11611 0.5765 0.62582 0.0
Dy520 Dy 0.91777 0.94073 0.30667 0.0
Dy521 Dy 0.85652 0.90199 0.33141 0.0
C522 C 0.85138 0.97976 0.31307 0.0
O523 O 0.91211 0.96694 0.34492 0.0
O524 O 0.87783 0.92929 0.36489 0.0
O525 O 0.95456 0.98038 0.30776 0.0
O526 O 0.95834 0.94023 0.27952 0.0
O527 O 0.89544 0.85993 0.32898 0.0
O528 O 0.94115 0.89263 0.32028 0.0
O529 O 0.84674 0.89141 0.29084 0.0
O530 O 0.88499 0.92698 0.27263 0.0
O531 O 0.83335 0.86803 0.35728 0.0
O532 O 0.80238 0.89723 0.33155 0.0
C533 C 0.89568 0.95728 0.36521 0.0
O534 O 0.87568 0.97438 0.29715 0.0
O535 O 0.84366 0.95731 0.33007 0.0
C536 C 0.99256 0.98975 0.2738 0.0
C537 C 0.04719 0.02848 0.25712 0.0
C538 C 0.01998 0.04405 0.26946 0.0
C539 C 0.99284 0.02477 0.27785 0.0
C540 C 0.01789 0.97488 0.2592 0.0
C541 C 0.04501 0.99407 0.25089 0.0
C542 C 0.97163 0.96756 0.28913 0.0
C543 C 0.92823 0.86312 0.32567 0.0
C544 C 0.85875 0.90632 0.27092 0.0
C545 C 0.78175 0.88982 0.37251 0.0
C546 C 0.73685 0.87845 0.41067 0.0
C547 C 0.77073 0.88568 0.41677 0.0
C548 C 0.79374 0.8892 0.39724 0.0
C549 C 0.74737 0.896 0.36843 0.0
C550 C 0.72491 0.8932 0.38847 0.0
C551 C 0.80315 0.87876 0.35163 0.0
H552 H 0.02083 0.07067 0.27417 0.0
H553 H 0.97356 0.03685 0.2891 0.0
H554 H 0.01833 0.94783 0.25612 0.0
H555 H 0.06568 0.98123 0.24167 0.0
H556 H 0.78081 0.88032 0.43514 0.0
H557 H 0.82044 0.88751 0.4013 0.0
H558 H 0.73756 0.89913 0.34965 0.0
H559 H 0.69816 0.89334 0.3844 0.0
Dy560 Dy 0.32818 0.66859 1.0546 0.0
Dy561 Dy 0.3645 0.61003 1.08339 0.0
C562 C 0.28592 0.60328 1.06722 0.0
O563 O 0.29754 0.66499 1.09121 0.0
O564 O 0.33696 0.63718 1.1143 0.0
O565 O 0.31705 0.72144 1.0543 0.0
O566 O 0.30455 0.69028 1.02181 0.0
O567 O 0.40786 0.64652 1.07558 0.0
O568 O 0.37553 0.69276 1.06954 0.0
O569 O 0.36637 0.59034 1.04414 0.0
O570 O 0.35412 0.63855 1.02301 0.0
O571 O 0.39683 0.59314 1.11302 0.0
O572 O 0.37402 0.55691 1.08721 0.0
C573 C 0.30759 0.6524 1.1129 0.0
O574 O 0.28932 0.62869 1.05197 0.0
O575 O 0.30993 0.59454 1.08284 0.0
C576 C 0.27759 0.74371 1.02591 0.0
C577 C 0.23602 0.80011 1.01917 0.0
C578 C 0.22988 0.77756 1.03895 0.0
C579 C 0.25081 0.74963 1.04246 0.0
C580 C 0.28203 0.76441 1.00516 0.0
C581 C 0.26165 0.79246 1.00187 0.0
C582 C 0.30483 0.72043 1.03167 0.0
C583 C 0.40524 0.67951 1.07341 0.0
C584 C 0.36327 0.6064 1.02295 0.0
C585 C 0.37885 0.54073 1.12951 0.0
C586 C 0.39133 0.49396 0.16611 0.0
C587 C 0.38814 0.52822 0.17307 0.0
C588 C 0.38411 0.55194 1.15419 0.0
C589 C 0.36906 0.50703 1.12547 0.0
C590 C 0.37279 0.48382 1.14484 0.0
C591 C 0.3898 0.56151 1.10836 0.0
H592 H 0.20994 0.78231 1.05234 0.0
H593 H 0.24718 0.73379 1.05867 0.0
H594 H 0.30289 0.76028 0.99241 0.0
H595 H 0.26776 0.80933 0.9867 0.0
H596 H 0.39705 0.53737 0.19103 0.0
H597 H 0.38912 0.57825 1.15842 0.0
H598 H 0.36256 0.49788 1.10691 0.0
H599 H 0.37002 0.45726 1.14037 0.0
Dy600 Dy 0.60015 0.08211 0.8075 0.0
Dy601 Dy 0.66283 0.11829 0.83206 0.0
C602 C 0.66523 0.04031 0.8133 0.0
O603 O 0.607 0.05407 0.84472 0.0
O604 O 0.64104 0.09156 0.86546 0.0
O605 O 0.56327 0.04249 0.80742 0.0
O606 O 0.55753 0.0853 0.7822 0.0
O607 O 0.62538 0.16135 0.82546 0.0
O608 O 0.57883 0.12847 0.82614 0.0
O609 O 0.67677 0.12129 0.79197 0.0
O610 O 0.63012 0.09912 0.77266 0.0
O611 O 0.68642 0.15178 0.85862 0.0
O612 O 0.71672 0.12476 0.831 0.0
C613 C 0.6233 0.06344 0.8653 0.0
O614 O 0.64092 0.04697 0.79763 0.0
O615 O 0.67498 0.06271 0.83011 0.0
C616 C 0.52286 0.0365 0.77453 0.0
C617 C 0.46864 0.99801 0.75601 0.0
C618 C 0.49792 0.98201 0.76489 0.0
C619 C 0.52479 1.00115 0.77428 0.0
C620 C 0.49516 0.05239 0.76359 0.0
C621 C 0.46825 0.03342 0.75452 0.0
C622 C 0.54484 0.05713 0.79049 0.0
C623 C 0.59224 0.15865 0.82657 0.0
C624 C 0.66082 0.11253 0.77151 0.0
C625 C 0.7399 0.13194 0.87098 0.0
C626 C 0.78074 0.13836 0.91262 0.0
C627 C 0.74932 0.1218 0.91487 0.0
C628 C 0.72797 0.12057 0.89412 0.0
C629 C 0.77462 0.1362 0.86767 0.0
C630 C 0.79566 0.13679 0.88865 0.0
C631 C 0.71667 0.14285 0.85142 0.0
H632 H 0.49933 0.95478 0.76586 0.0
H633 H 0.54599 0.98832 0.78272 0.0
H634 H 0.49301 0.07964 0.76394 0.0
H635 H 0.4461 0.04684 0.74828 0.0
H636 H 0.73838 0.11658 0.93296 0.0
H637 H 0.70167 0.11407 0.89671 0.0
H638 H 0.78491 0.14217 0.84944 0.0
H639 H 0.82183 0.14352 0.88595 0.0
H640 H 0.47358 0.16354 0.24654 0.0
H641 H 0.40668 0.2485 0.25332 0.0
H642 H 0.52177 0.20191 0.24528 0.0
H643 H 0.45438 0.28679 0.25333 0.0
H644 H 0.54455 0.3561 0.23882 0.0
H645 H 0.49649 0.31747 0.2369 0.0
H646 H 0.56028 0.23651 0.26249 0.0
H647 H 0.60803 0.27463 0.26302 0.0
C648 C 0.46901 0.19041 0.24788 0.0
C649 C 0.43568 0.20241 0.24995 0.0
C650 C 0.49699 0.21284 0.2474 0.0
C651 C 0.49307 0.24842 0.24929 0.0
C652 C 0.45951 0.26014 0.25134 0.0
C653 C 0.43165 0.23779 0.25153 0.0
C654 C 0.54835 0.33001 0.24393 0.0
C655 C 0.58075 0.31898 0.25097 0.0
C656 C 0.52042 0.30748 0.24304 0.0
C657 C 0.5234 0.2729 0.24956 0.0
C658 C 0.55599 0.26221 0.25672 0.0
C659 C 0.58385 0.28453 0.25723 0.0
H660 H 0.604 0.72586 0.48739 0.0
H661 H 0.52315 0.66321 0.51432 0.0
H662 H 0.56532 0.77369 0.48526 0.0
H663 H 0.48496 0.71082 0.51326 0.0
H664 H 0.41222 0.79641 0.49515 0.0
H665 H 0.45062 0.74832 0.494 0.0
H666 H 0.53518 0.81601 0.50357 0.0
H667 H 0.49688 0.86372 0.50364 0.0
C668 C 0.57802 0.72215 0.49295 0.0
C669 C 0.56719 0.6901 0.50095 0.0
C670 C 0.55554 0.74995 0.49195 0.0
C671 C 0.52118 0.7471 0.49912 0.0
C672 C 0.51057 0.71484 0.50705 0.0
C673 C 0.53291 0.68713 0.50786 0.0
C674 C 0.43902 0.8011 0.49686 0.0
C675 C 0.45096 0.83449 0.49942 0.0
C676 C 0.46141 0.7732 0.49643 0.0
C677 C 0.49684 0.77731 0.49877 0.0
C678 C 0.50858 0.81089 0.50124 0.0
C679 C 0.48626 0.83869 0.50146 0.0
H680 H 0.04623 0.85661 0.74526 0.0
H681 H 0.11258 0.77175 0.75441 0.0
H682 H 0.9979 0.8184 0.74372 0.0
H683 H 0.06456 0.73362 0.75406 0.0
H684 H 0.97402 0.66503 0.73757 0.0
H685 H 0.02233 0.70333 0.73561 0.0
H686 H 0.95978 0.78474 0.76286 0.0
H687 H 0.91178 0.74695 0.76374 0.0
C688 C 0.05064 0.8298 0.74706 0.0
C689 C 0.08382 0.81773 0.7499 0.0
C690 C 0.0226 0.80752 0.74641 0.0
C691 C 0.02635 0.7721 0.74888 0.0
C692 C 0.05974 0.76023 0.75162 0.0
C693 C 0.08771 0.78244 0.75201 0.0
C694 C 0.9705 0.69116 0.74298 0.0
C695 C 0.93843 0.70241 0.75074 0.0
C696 C 0.99856 0.71342 0.74208 0.0
C697 C 0.99593 0.74795 0.74909 0.0
C698 C 0.96365 0.75897 0.75677 0.0
C699 C 0.9357 0.73685 0.75748 0.0
H700 H 0.02037 0.16074 1.00931 0.0
H701 H 0.10351 0.22548 0.99003 0.0
H702 H 0.98233 0.20853 1.00878 0.0
H703 H 0.06516 0.27355 0.98826 0.0
H704 H 0.9955 0.36229 1.00659 0.0
H705 H 0.03353 0.31449 1.00618 0.0
H706 H 0.94955 0.248 0.99064 0.0
H707 H 0.91128 0.29617 0.99224 0.0
C708 C 0.03068 0.18519 1.00464 0.0
C709 C 0.06552 0.18867 0.99975 0.0
C710 C 1.00846 0.21305 1.00413 0.0
C711 C 0.01976 0.24597 0.99843 0.0
C712 C 0.05473 0.24931 0.99324 0.0
C713 C 0.07708 0.22138 0.99404 0.0
C714 C 0.98493 0.33751 1.00303 0.0
C715 C 0.9498 0.33368 0.99947 0.0
C716 C 1.00714 0.30963 1.00259 0.0
C717 C 0.99551 0.27631 0.99835 0.0
C718 C 0.96026 0.2726 0.99447 0.0
C719 C 0.93794 0.30057 0.99516 0.0
H720 H 0.60765 0.77551 1.06634 0.0
H721 H 0.54287 0.8579 1.08776 0.0
H722 H 0.56009 0.73718 1.06642 0.0
H723 H 0.49484 0.81902 1.08892 0.0
H724 H 0.40697 0.74857 1.068 0.0
H725 H 0.45445 0.78718 1.06937 0.0
H726 H 0.52094 0.70392 1.08521 0.0
H727 H 0.4731 0.66502 1.08284 0.0
C728 C 0.58323 0.78562 1.0714 0.0
C729 C 0.57972 0.82036 1.07704 0.0
C730 C 0.55552 0.76318 1.07163 0.0
C731 C 0.52264 0.77411 1.07774 0.0
C732 C 0.51915 0.80896 1.08365 0.0
C733 C 0.54701 0.83158 1.08319 0.0
C734 C 0.43169 0.73823 1.07176 0.0
C735 C 0.43563 0.70311 1.07515 0.0
C736 C 0.45933 0.76079 1.07279 0.0
C737 C 0.49252 0.74953 1.07739 0.0
C738 C 0.49639 0.7143 1.08111 0.0
C739 C 0.46862 0.69163 1.07995 0.0
H740 H 0.52276 0.15992 0.8249 0.0
H741 H 0.60755 0.22756 0.83047 0.0
H742 H 0.48441 0.20742 0.82462 0.0
H743 H 0.56903 0.27563 0.8313 0.0
H744 H 0.49534 0.36067 0.812 0.0
H745 H 0.53399 0.3133 0.81327 0.0
H746 H 0.45396 0.24999 0.84128 0.0
H747 H 0.41499 0.29743 0.83883 0.0
C748 C 0.53345 0.18501 0.82636 0.0
C749 C 0.56882 0.18925 0.82769 0.0
C750 C 0.51104 0.21277 0.82639 0.0
C751 C 0.52266 0.2465 0.82794 0.0
C752 C 0.55821 0.25068 0.82959 0.0
C753 C 0.58071 0.22277 0.82935 0.0
C754 C 0.48578 0.33668 0.81846 0.0
C755 C 0.45147 0.3335 0.82523 0.0
C756 C 0.50838 0.30907 0.8194 0.0
C757 C 0.49806 0.27669 0.82741 0.0
C758 C 0.46366 0.27371 0.83448 0.0
C759 C 0.44093 0.30134 0.83328 0.0
H760 H 0.07853 0.30604 0.53583 0.0
H761 H 0.06512 0.33183 0.61372 0.0
H762 H 0.03098 0.26709 0.5379 0.0
H763 H 0.01757 0.29154 0.61596 0.0
H764 H 0.95792 0.18309 0.60896 0.0
H765 H 1.00534 0.22352 0.61029 0.0
H766 H 0.96626 0.27223 0.54463 0.0
H767 H 0.91875 0.233 0.54376 0.0
C768 C 0.06544 0.30357 0.5535 0.0
C769 C 0.07591 0.32282 0.5745 0.0
C770 C 0.03794 0.28099 0.55467 0.0
C771 C 0.01999 0.27577 0.57707 0.0
C772 C 0.03063 0.29457 0.59833 0.0
C773 C 0.05782 0.31802 0.59699 0.0
C774 C 0.95932 0.20249 0.59485 0.0
C775 C 0.93402 0.2044 0.57625 0.0
C776 C 0.98655 0.22593 0.5957 0.0
C777 C 0.99001 0.25152 0.57756 0.0
C778 C 0.96484 0.25308 0.55893 0.0
C779 C 0.93733 0.2304 0.55848 0.0
H780 H 0.10751 0.72756 0.33431 0.0
H781 H 0.02363 0.66127 0.31899 0.0
H782 H 0.06872 0.77548 0.33653 0.0
H783 H 0.98528 0.70868 0.3203 0.0
H784 H 0.91513 0.7964 0.33916 0.0
H785 H 0.9543 0.7489 0.34086 0.0
H786 H 0.03508 0.81401 0.31657 0.0
H787 H 0.99636 0.86125 0.31585 0.0
C788 C 0.08088 0.72305 0.33135 0.0
C789 C 0.06923 0.69003 0.32642 0.0
C790 C 0.05832 0.75081 0.33242 0.0
C791 C 0.02311 0.7468 0.32855 0.0
C792 C 0.01169 0.71359 0.32385 0.0
C793 C 0.0341 0.68601 0.32287 0.0
C794 C 0.94128 0.80066 0.33431 0.0
C795 C 0.95209 0.83317 0.32738 0.0
C796 C 0.96404 0.77311 0.33508 0.0
C797 C 0.99861 0.77675 0.32876 0.0
C798 C 0.00923 0.80946 0.32203 0.0
C799 C 0.98661 0.83692 0.32143 0.0
H800 H 0.43105 0.95334 0.19574 0.0
H801 H 0.43763 1.0025 1.12373 0.0
H802 H 0.48913 0.96623 0.20371 0.0
H803 H 0.4966 0.01524 1.13212 0.0
H804 H 0.57692 0.0777 0.16637 0.0
H805 H 0.519 0.05843 1.16348 0.0
H806 H 0.54774 0.96247 0.19425 0.0
H807 H 0.60518 0.98114 0.19722 0.0
C808 C 0.44477 0.96602 0.18106 0.0
C809 C 0.4283 0.97983 1.15997 0.0
C810 C 0.47839 0.97365 0.18594 0.0
C811 C 0.49653 0.99387 0.16936 0.0
C812 C 0.48231 1.00146 1.14597 0.0
C813 C 0.44864 0.99364 1.14102 0.0
C814 C 0.57112 0.05259 0.17287 0.0
C815 C 0.5969 0.02948 0.17874 0.0
C816 C 0.53784 0.04148 0.17093 0.0
C817 C 0.52962 1.00797 0.17661 0.0
C818 C 0.55373 0.98789 0.18844 0.0
C819 C 0.58698 0.99896 0.1902 0.0
H820 H 0.82621 0.69552 0.4177 0.0
H821 H 0.73075 0.66307 0.38618 0.0
H822 H 0.80599 0.75316 0.41829 0.0
H823 H 0.71109 0.72012 0.38704 0.0
H824 H 0.69858 0.83523 0.38042 0.0
H825 H 0.71278 0.77696 0.37563 0.0
H826 H 0.76343 0.77889 0.44718 0.0
H827 H 0.74969 0.83832 0.45214 0.0
C828 C 0.80113 0.70031 0.41063 0.0
C829 C 0.77871 0.67362 0.40499 0.0
C830 C 0.78945 0.73346 0.41126 0.0
C831 C 0.75596 0.7406 0.40469 0.0
C832 C 0.73649 0.71518 0.39344 0.0
C833 C 0.74815 0.6821 0.39291 0.0
C834 C 0.71199 0.82362 0.39572 0.0
C835 C 0.726 0.84286 0.41563 0.0
C836 C 0.72035 0.78979 0.39272 0.0
C837 C 0.74134 0.77411 0.41015 0.0
C838 C 0.74909 0.79117 0.4326 0.0
C839 C 0.74069 0.82513 0.43561 0.0
H840 H 0.07598 0.06346 0.71029 0.0
H841 H 0.07903 0.03542 0.63176 0.0
H842 H 0.01823 0.04583 0.71256 0.0
H843 H 0.02027 0.01786 0.63433 0.0
H844 H 0.94309 0.94226 0.65305 0.0
H845 H 0.99911 0.96569 0.65686 0.0
H846 H 0.96 0.04866 0.70055 0.0
H847 H 0.90403 0.02552 0.69713 0.0
C848 C 0.0643 0.05482 0.69309 0.0
C849 C 0.08334 0.04839 0.67116 0.0
C850 C 0.0309 0.04431 0.69463 0.0
C851 C 0.01562 0.02842 0.67409 0.0
C852 C 0.03232 0.02829 0.65088 0.0
C853 C 0.06578 0.03896 0.6493 0.0
C854 C 0.94598 0.96538 0.66369 0.0
C855 C 0.91787 0.9846 0.67147 0.0
C856 C 0.97831 0.97893 0.66563 0.0
C857 C 0.98321 0.01058 0.67698 0.0
C858 C 0.95658 0.02519 0.69035 0.0
C859 C 0.92424 0.01163 0.6883 0.0
H860 H 0.72932 0.32713 0.88236 0.0
H861 H 0.70652 0.33058 0.96164 0.0
H862 H 0.74825 0.26914 0.88696 0.0
H863 H 0.72633 0.27395 0.96607 0.0
H864 H 0.74972 0.15966 0.95742 0.0
H865 H 0.72602 0.21564 0.95895 0.0
H866 H 0.8011 0.24979 0.90654 0.0
H867 H 0.82381 0.19365 0.90385 0.0
C868 C 0.7273 0.31543 0.90055 0.0
C869 C 0.7188 0.33473 0.92183 0.0
C870 C 0.73887 0.28246 0.90331 0.0
C871 C 0.74096 0.26798 0.92723 0.0
C872 C 0.72618 0.2848 0.94754 0.0
C873 C 0.71446 0.31759 0.94476 0.0
C874 C 0.76149 0.17889 0.94616 0.0
C875 C 0.78523 0.17057 0.92742 0.0
C876 C 0.74776 0.21124 0.94715 0.0
C877 C 0.75971 0.23622 0.93096 0.0
C878 C 0.78949 0.23011 0.91756 0.0
C879 C 0.80281 0.19769 0.91639 0.0
H880 H 0.19428 0.32622 0.90341 0.0
H881 H 0.27068 0.36101 0.95545 0.0
H882 H 0.21651 0.26992 0.90594 0.0
H883 H 0.29369 0.30478 0.95691 0.0
H884 H 0.31016 0.18919 0.96044 0.0
H885 H 0.29204 0.24652 0.96466 0.0
H886 H 0.2689 0.24932 0.88571 0.0
H887 H 0.28631 0.19073 0.88129 0.0
C888 C 0.21569 0.32234 0.91557 0.0
C889 C 0.23389 0.34961 0.92619 0.0
C890 C 0.22871 0.28981 0.91666 0.0
C891 C 0.25882 0.28377 0.92962 0.0
C892 C 0.27163 0.30911 0.94545 0.0
C893 C 0.25828 0.3416 0.9445 0.0
C894 C 0.30237 0.20186 0.94354 0.0
C895 C 0.29717 0.18411 0.92074 0.0
C896 C 0.29162 0.23506 0.94619 0.0
C897 C 0.27692 0.25158 0.92591 0.0
C898 C 0.27826 0.2363 0.90205 0.0
C899 C 0.28893 0.20295 0.8994 0.0
H900 H 0.204 0.83659 0.45133 0.0
H901 H 0.24087 0.83107 0.37512 0.0
H902 H 0.22031 0.77933 0.45792 0.0
H903 H 0.25622 0.77243 0.38176 0.0
H904 H 0.32545 0.69401 0.40722 0.0
H905 H 0.30416 0.75094 0.4061 0.0
H906 H 0.21948 0.72148 0.45164 0.0
H907 H 0.24116 0.66505 0.45376 0.0
C908 C 0.21445 0.82309 0.43547 0.0
C909 C 0.22407 0.8398 0.41326 0.0
C910 C 0.22408 0.78987 0.43949 0.0
C911 C 0.24179 0.77218 0.42096 0.0
C912 C 0.24461 0.78637 0.39699 0.0
C913 C 0.23512 0.81978 0.39301 0.0
C914 C 0.30248 0.69935 0.41737 0.0
C915 C 0.2824 0.67331 0.42743 0.0
C916 C 0.29006 0.73216 0.41636 0.0
C917 C 0.25847 0.73982 0.42673 0.0
C918 C 0.24295 0.71595 0.44215 0.0
C919 C 0.25562 0.68324 0.44329 0.0
H920 H 0.11184 0.50066 0.69606 0.0
H921 H 0.07123 0.57925 0.64908 0.0
H922 H 0.05641 0.47664 0.70003 0.0
H923 H 0.01568 0.55548 0.65388 0.0
H924 H 0.9352 0.48411 0.6321 0.0
H925 H 0.99351 0.50336 0.63346 0.0
H926 H 0.99933 0.47739 0.71168 0.0
H927 H 0.94232 0.4576 0.71047 0.0
C928 C 0.0914 0.51332 0.68667 0.0
C929 C 0.09729 0.53903 0.669 0.0
C930 C 0.05931 0.49934 0.68909 0.0
C931 C 0.03233 0.51243 0.67532 0.0
C932 C 0.03671 0.5432 0.66298 0.0
C933 C 0.06883 0.55702 0.66051 0.0
C934 C 0.94924 0.48137 0.64936 0.0
C935 C 0.9329 0.47156 0.67151 0.0
C936 C 0.98243 0.49305 0.65028 0.0
C937 C 1.00008 0.49391 0.67313 0.0
C938 C 0.98602 0.4781 0.69398 0.0
C939 C 0.95299 0.46637 0.69306 0.0
H940 H 0.57694 0.57333 1.1649 0.0
H941 H 0.60259 0.47778 1.13 0.0
H942 H 0.51895 0.55484 0.16817 0.0
H943 H 0.54496 0.45986 1.13345 0.0
H944 H 0.42779 0.45464 1.13217 0.0
H945 H 0.48637 0.46532 1.1247 0.0
H946 H 0.49583 0.51102 0.19796 0.0
H947 H 0.43632 0.50054 0.20579 0.0
C948 C 0.57062 0.54855 1.15769 0.0
C949 C 0.59583 0.52542 1.15033 0.0
C950 C 0.53725 0.53789 1.15985 0.0
C951 C 0.52824 0.50482 1.15306 0.0
C952 C 0.55161 0.48487 1.14012 0.0
C953 C 0.58498 0.49549 1.13811 0.0
C954 C 0.44205 0.46603 1.1473 0.0
C955 C 0.42616 0.47987 0.16877 0.0
C956 C 0.47598 0.4724 1.14273 0.0
C957 C 0.49489 0.49122 1.15999 0.0
C958 C 0.48102 0.49835 0.18365 0.0
C959 C 0.44703 0.4918 0.18827 0.0
H960 H 0.26595 0.35349 0.35929 0.0
H961 H 0.19342 0.32511 0.30233 0.0
H962 H 0.24547 0.41094 0.35825 0.0
H963 H 0.1705 0.38155 0.30335 0.0
H964 H 0.17179 0.49071 0.28106 0.0
H965 H 0.18809 0.43229 0.28679 0.0
H966 H 0.2054 0.45215 0.36561 0.0
H967 H 0.19131 0.51124 0.35923 0.0
C968 C 0.24509 0.35926 0.34698 0.0
C969 C 0.23206 0.33476 0.3304 0.0
C970 C 0.23298 0.39223 0.34662 0.0
C971 C 0.2069 0.40124 0.33018 0.0
C972 C 0.19149 0.37586 0.31557 0.0
C973 C 0.20419 0.34312 0.31543 0.0
C974 C 0.17971 0.4826 0.29948 0.0
C975 C 0.18084 0.50546 0.3196 0.0
C976 C 0.18844 0.44897 0.30293 0.0
C977 C 0.1976 0.43719 0.32678 0.0
C978 C 0.19893 0.4603 0.34692 0.0
C979 C 0.19097 0.4942 0.34328 0.0
H980 H 0.41986 0.51032 0.61004 0.0
H981 H 0.4403 0.45237 0.54283 0.0
H982 H 0.36211 0.48867 0.61025 0.0
H983 H 0.38331 0.43093 0.54311 0.0
H984 H 0.28832 0.37736 0.55821 0.0
H985 H 0.34558 0.39544 0.56516 0.0
H986 H 0.31053 0.49522 0.5851 0.0
H987 H 0.25204 0.47647 0.57905 0.0
C988 C 0.4122 0.49264 0.59554 0.0
C989 C 0.43472 0.48298 0.57647 0.0
C990 C 0.37913 0.48044 0.59559 0.0
C991 C 0.36813 0.45826 0.57664 0.0
C992 C 0.3911 0.44759 0.55822 0.0
C993 C 0.42398 0.45975 0.55815 0.0
C994 C 0.29256 0.40331 0.5639 0.0
C995 C 0.26559 0.42584 0.5674 0.0
C996 C 0.32554 0.4136 0.56796 0.0
C997 C 0.33264 0.44687 0.57526 0.0
C998 C 0.30575 0.46932 0.57955 0.0
C999 C 0.27237 0.45879 0.57581 0.0
H1000 H 0.32728 0.69331 0.797 0.0
H1001 H 0.25794 0.66907 0.85667 0.0
H1002 H 0.34908 0.63637 0.79796 0.0
H1003 H 0.27742 0.61119 0.85587 0.0
H1004 H 0.32968 0.51023 0.85693 0.0
H1005 H 0.31812 0.57005 0.86268 0.0
H1006 H 0.32892 0.58484 0.78289 0.0
H1007 H 0.3423 0.52546 0.7775 0.0
C1008 C 0.31703 0.67612 0.81068 0.0
C1009 C 0.29033 0.68577 0.82647 0.0
C1010 C 0.32909 0.64311 0.81083 0.0
C1011 C 0.31428 0.61877 0.82638 0.0
C1012 C 0.28943 0.62909 0.84354 0.0
C1013 C 0.2779 0.6623 0.84378 0.0
C1014 C 0.32916 0.52625 0.8406 0.0
C1015 C 0.33638 0.51313 0.81668 0.0
C1016 C 0.32266 0.5606 0.8439 0.0
C1017 C 0.32271 0.58246 0.82329 0.0
C1018 C 0.32945 0.56905 0.79933 0.0
C1019 C 0.33655 0.53487 0.79612 0.0
H1020 H 0.09681 0.50899 1.11031 0.0
H1021 H 0.07224 0.57789 1.05066 0.0
H1022 H 0.15478 0.52843 1.10953 0.0
H1023 H 0.12919 0.59969 1.0517 0.0
H1024 H 0.23882 0.59458 1.03105 0.0
H1025 H 0.18006 0.57902 1.03646 0.0
H1026 H 0.19641 0.56923 1.11622 0.0
H1027 H 0.25586 0.58282 1.11033 0.0
C1028 C 0.10353 0.52885 1.09744 0.0
C1029 C 0.07994 0.54115 1.08011 0.0
C1030 C 0.13678 0.54033 1.09721 0.0
C1031 C 0.14698 0.56499 1.08004 0.0
C1032 C 0.12253 0.57977 1.06454 0.0
C1033 C 0.08951 0.56774 1.06435 0.0
C1034 C 0.2299 0.58843 1.04963 0.0
C1035 C 0.25185 0.58935 1.07018 0.0
C1036 C 0.19608 0.58013 1.05287 0.0
C1037 C 0.18322 0.57341 1.07688 0.0
C1038 C 0.20544 0.57388 1.09744 0.0
C1039 C 0.23954 0.58148 1.09407 0.0
H1040 H 0.83947 0.52494 1.05289 0.0
H1041 H 0.83838 0.51549 0.97238 0.0
H1042 H 0.82576 0.5845 1.04956 0.0
H1043 H 0.8278 0.57547 0.96868 0.0
H1044 H 0.77052 0.67486 0.97162 0.0
H1045 H 0.78868 0.6168 0.97242 0.0
H1046 H 0.84541 0.63713 1.04017 0.0
H1047 H 0.82383 0.69412 1.04097 0.0
C1048 C 0.83625 0.53575 1.03448 0.0
C1049 C 0.83931 0.51564 1.01294 0.0
C1050 C 0.82906 0.57005 1.03247 0.0
C1051 C 0.82593 0.5852 1.0088 0.0
C1052 C 0.82926 0.56483 0.98724 0.0
C1053 C 0.83536 0.53035 0.98932 0.0
C1054 C 0.78677 0.66694 0.98676 0.0
C1055 C 0.79487 0.68908 1.00656 0.0
C1056 C 0.79769 0.63357 0.98704 0.0
C1057 C 0.81795 0.62174 1.00673 0.0
C1058 C 0.82878 0.64484 1.0252 0.0
C1059 C 0.81703 0.67797 1.02532 0.0
H1060 H 0.57683 0.57827 0.78851 0.0
H1061 H 0.59782 0.51489 0.72411 0.0
H1062 H 0.63375 0.6 0.78723 0.0
H1063 H 0.65588 0.53404 0.72447 0.0
H1064 H 0.75657 0.58747 0.7233 0.0
H1065 H 0.69677 0.57502 0.71879 0.0
H1066 H 0.68567 0.57944 0.7994 0.0
H1067 H 0.74492 0.5943 0.80353 0.0
C1068 C 0.59337 0.56926 0.77381 0.0
C1069 C 0.5828 0.54433 0.75664 0.0
C1070 C 0.62638 0.58123 0.77343 0.0
C1071 C 0.64985 0.56796 0.75631 0.0
C1072 C 0.63866 0.54479 0.73803 0.0
C1073 C 0.60539 0.5334 0.73804 0.0
C1074 C 0.74131 0.58534 0.74002 0.0
C1075 C 0.75527 0.59138 0.76381 0.0
C1076 C 0.70701 0.5783 0.73746 0.0
C1077 C 0.68619 0.57641 0.7587 0.0
C1078 C 0.7006 0.5816 0.78254 0.0
C1079 C 0.73467 0.5895 0.78502 0.0
H1080 H 0.68849 0.329 0.53554 0.0
H1081 H 0.75756 0.3514 0.47524 0.0
H1082 H 0.66699 0.38588 0.5339 0.0
H1083 H 0.73847 0.40946 0.47547 0.0
H1084 H 0.68555 0.51048 0.47376 0.0
H1085 H 0.69779 0.45069 0.46845 0.0
H1086 H 0.68788 0.43714 0.54847 0.0
H1087 H 0.67352 0.49636 0.55333 0.0
C1088 C 0.69882 0.34581 0.52163 0.0
C1089 C 0.72529 0.33567 0.50582 0.0
C1090 C 0.68693 0.37879 0.52108 0.0
C1091 C 0.70181 0.40264 0.5052 0.0
C1092 C 0.7265 0.39189 0.48808 0.0
C1093 C 0.73784 0.35864 0.4882 0.0
C1094 C 0.68647 0.49469 0.4902 0.0
C1095 C 0.67905 0.50796 0.51403 0.0
C1096 C 0.69334 0.4604 0.48716 0.0
C1097 C 0.69357 0.43893 0.50799 0.0
C1098 C 0.68701 0.45263 0.53188 0.0
C1099 C 0.67939 0.48669 0.53481 0.0
H1100 H 0.78246 0.37649 0.27765 0.0
H1101 H 0.75638 0.47585 0.25121 0.0
H1102 H 0.84211 0.3908 0.27532 0.0
H1103 H 0.8168 0.49011 0.24895 0.0
H1104 H 0.93038 0.46673 0.30578 0.0
H1105 H 0.87246 0.4468 0.30321 0.0
H1106 H 0.87468 0.45579 0.22286 0.0
H1107 H 0.93367 0.4736 0.22492 0.0
C1108 C 0.7895 0.40156 0.27161 0.0
C1109 C 0.76489 0.42552 0.26526 0.0
C1110 C 0.82356 0.40948 0.27006 0.0
C1111 C 0.8336 0.44141 0.26205 0.0
C1112 C 0.80926 0.46519 0.25498 0.0
C1113 C 0.77495 0.45719 0.25644 0.0
C1114 C 0.91917 0.4634 0.28744 0.0
C1115 C 0.9368 0.47202 0.26556 0.0
C1116 C 0.88585 0.45244 0.28607 0.0
C1117 C 0.86939 0.45051 0.26291 0.0
C1118 C 0.88702 0.45774 0.24092 0.0
C1119 C 0.92066 0.46795 0.2422 0.0
H1120 H 0.70159 0.82923 0.78884 0.0
H1121 H 0.74794 0.84711 0.86101 0.0
H1122 H 0.68119 0.88653 0.78842 0.0
H1123 H 0.7268 0.90493 0.86087 0.0
H1124 H 0.7229 0.01571 0.83474 0.0
H1125 H 0.73837 0.95648 0.83989 0.0
H1126 H 0.64434 0.92625 0.80525 0.0
H1127 H 0.63004 0.98483 0.79888 0.0
C1128 C 0.70645 0.84508 0.80507 0.0
C1129 C 0.72633 0.83357 0.825 0.0
C1130 C 0.69482 0.87814 0.8048 0.0
C1131 C 0.70253 0.90053 0.82454 0.0
C1132 C 0.72098 0.88855 0.84512 0.0
C1133 C 0.73284 0.85539 0.84531 0.0
C1134 C 0.70589 0.99628 0.82796 0.0
C1135 C 0.67583 1.00488 0.81573 0.0
C1136 C 0.71444 0.96238 0.83123 0.0
C1137 C 0.6927 0.93653 0.8228 0.0
C1138 C 0.66214 0.94538 0.81134 0.0
C1139 C 0.65398 0.97907 0.80762 0.0
H1140 H 0.78489 0.88214 1.05101 0.0
H1141 H 0.75374 0.97579 1.08576 0.0
H1142 H 0.84334 0.89712 1.05744 0.0
H1143 H 0.81294 0.99196 1.09094 0.0
H1144 H 0.92297 1.00311 1.11153 0.0
H1145 H 0.86512 0.98177 1.11182 0.0
H1146 H 0.88226 0.93385 1.03991 0.0
H1147 H 0.93956 0.95435 1.03997 0.0
C1148 C 0.79056 0.90639 1.05954 0.0
C1149 C 0.7647 0.92829 1.06726 0.0
C1150 C 0.82419 0.91494 1.06329 0.0
C1151 C 0.83296 0.94598 1.07435 0.0
C1152 C 0.80709 0.96771 1.08254 0.0
C1153 C 0.77321 0.95874 1.07926 0.0
C1154 C 0.91439 0.98746 1.09607 0.0
C1155 C 0.93586 0.98022 1.07583 0.0
C1156 C 0.88123 0.97548 1.09611 0.0
C1157 C 0.86891 0.95625 1.07583 0.0
C1158 C 0.89092 0.94802 1.0561 0.0
C1159 C 0.92398 0.95972 1.05615 0.0
H1160 H 0.84182 0.02519 0.27603 0.0
H1161 H 0.83428 0.01268 0.35603 0.0
H1162 H 0.82694 0.08436 0.28061 0.0
H1163 H 0.82184 0.07239 0.36104 0.0
H1164 H 0.76302 0.17161 0.35697 0.0
H1165 H 0.78186 0.11362 0.35587 0.0
H1166 H 0.8468 0.13645 0.2932 0.0
H1167 H 0.8251 0.19338 0.29254 0.0
C1168 C 0.83684 0.03521 0.29459 0.0
C1169 C 0.83859 0.01437 0.31559 0.0
C1170 C 0.82894 0.06928 0.29734 0.0
C1171 C 0.82358 0.0835 0.32127 0.0
C1172 C 0.82523 0.0624 0.34229 0.0
C1173 C 0.83228 0.0281 0.33944 0.0
C1174 C 0.78127 0.16427 0.3429 0.0
C1175 C 0.79175 0.18709 0.32444 0.0
C1176 C 0.7925 0.13097 0.34248 0.0
C1177 C 0.81525 0.11991 0.324 0.0
C1178 C 0.8283 0.14365 0.30712 0.0
C1179 C 0.81639 0.17671 0.30713 0.0
H1180 H 0.75882 0.08039 0.60634 0.0
H1181 H 0.74086 0.09289 0.5272 0.0
H1182 H 0.69928 0.06831 0.61273 0.0
H1183 H 0.68178 0.07889 0.53318 0.0
H1184 H 0.57396 0.07764 0.5485 0.0
H1185 H 0.63103 0.09927 0.54889 0.0
H1186 H 0.65755 0.02782 0.60636 0.0
H1187 H 0.59958 1.00855 0.60777 0.0
C1188 C 0.74226 0.07964 0.5902 0.0
C1189 C 0.75449 0.0871 0.56619 0.0
C1190 C 0.70807 0.07286 0.59387 0.0
C1191 C 0.68552 0.07283 0.57352 0.0
C1192 C 0.69811 0.07955 0.54943 0.0
C1193 C 0.73211 0.08697 0.54587 0.0
C1194 C 0.5915 0.06742 0.56198 0.0
C1195 C 0.58218 0.04083 0.57781 0.0
C1196 C 0.62457 0.07936 0.56179 0.0
C1197 C 0.64929 0.06451 0.57702 0.0
C1198 C 0.63935 0.03982 0.59426 0.0
C1199 C 0.60609 0.02842 0.59485 0.0
H1200 H 0.26728 0.17316 0.4716 0.0
H1201 H 0.32268 0.19382 0.53982 0.0
H1202 H 0.28772 0.11597 0.4715 0.0
H1203 H 0.34683 0.13784 0.53787 0.0
H1204 H 0.34175 0.02564 0.55152 0.0
H1205 H 0.32822 0.08514 0.548 0.0
H1206 H 0.32687 0.07492 0.46717 0.0
H1207 H 0.33745 0.01496 0.4711 0.0
C1208 C 0.28451 0.16577 0.48629 0.0
C1209 C 0.29213 0.18779 0.5063 0.0
C1210 C 0.29679 0.13291 0.486 0.0
C1211 C 0.31821 0.12166 0.50517 0.0
C1212 C 0.32918 0.14505 0.52342 0.0
C1213 C 0.31591 0.17761 0.5242 0.0
C1214 C 0.33786 0.03617 0.53309 0.0
C1215 C 0.33992 0.0157 0.51166 0.0
C1216 C 0.3308 0.07045 0.53095 0.0
C1217 C 0.32672 0.08525 0.50724 0.0
C1218 C 0.32912 0.06456 0.48578 0.0
C1219 C 0.33515 0.03008 0.488 0.0
H1220 H 0.09178 0.02677 0.21789 0.0
H1221 H 0.07733 0.06813 0.29219 0.0
H1222 H 0.14983 0.04746 0.21807 0.0
H1223 H 0.13491 0.08796 0.29269 0.0
H1224 H 0.23309 0.13981 0.28236 0.0
H1225 H 0.17418 0.12584 0.27683 0.0
H1226 H 0.20206 0.03416 0.23765 0.0
H1227 H 0.26156 0.04939 0.242 0.0
C1228 C 0.10088 0.04069 0.23408 0.0
C1229 C 0.07997 0.046 0.25494 0.0
C1230 C 0.13417 0.05226 0.2343 0.0
C1231 C 0.14718 0.06913 0.25548 0.0
C1232 C 0.1257 0.07559 0.27587 0.0
C1233 C 0.0925 0.06429 0.27556 0.0
C1234 C 0.22675 0.11644 0.27281 0.0
C1235 C 0.25198 0.09522 0.26312 0.0
C1236 C 0.19287 0.10847 0.26957 0.0
C1237 C 0.18329 0.0787 0.25703 0.0
C1238 C 0.20853 0.05752 0.24716 0.0
C1239 C 0.2426 0.06591 0.24996 0.0
H1240 H 0.20411 0.01071 1.05011 0.0
H1241 H 0.15207 0.99674 0.98001 0.0
H1242 H 0.21891 0.95096 1.05028 0.0
H1243 H 0.16373 0.93666 0.98092 0.0
H1244 H 0.21816 0.83624 0.97757 0.0
H1245 H 0.20297 0.8952 0.97612 0.0
H1246 H 0.19727 0.89809 1.05703 0.0
H1247 H 0.21636 0.84027 1.05852 0.0
C1248 C 0.196 0.99466 1.03472 0.0
C1249 C 0.1776 1.00802 1.01483 0.0
C1250 C 0.20384 0.96035 1.03495 0.0
C1251 C 0.19221 0.93862 1.01574 0.0
C1252 C 0.17377 0.95244 0.9958 0.0
C1253 C 0.16696 0.98688 0.99522 0.0
C1254 C 0.21392 0.84949 0.99509 0.0
C1255 C 0.21921 0.83351 1.01816 0.0
C1256 C 0.20468 0.88335 0.99425 0.0
C1257 C 0.19946 0.90186 1.01649 0.0
C1258 C 0.20219 0.8851 1.03951 0.0
C1259 C 0.21235 0.85149 1.04036 0.0
H1260 H 0.44568 0.94311 0.78186 0.0
H1261 H 0.41902 1.00988 0.72138 0.0
H1262 H 0.38928 0.91972 0.78122 0.0
H1263 H 0.36169 0.98914 0.72261 0.0
H1264 H 0.26219 0.93538 0.72167 0.0
H1265 H 0.32157 0.94812 0.71611 0.0
H1266 H 0.33731 0.93737 0.79588 0.0
H1267 H 0.27825 0.9222 0.80095 0.0
C1268 C 0.42805 0.95247 0.7681 0.0
C1269 C 0.43686 0.9789 0.75195 0.0
C1270 C 0.39534 0.93954 0.76814 0.0
C1271 C 0.37048 0.95325 0.75247 0.0
C1272 C 0.37998 0.97788 0.73503 0.0
C1273 C 0.41289 0.99018 0.73454 0.0
C1274 C 0.27834 0.9361 0.73804 0.0
C1275 C 0.26563 0.9283 0.76183 0.0
C1276 C 0.31245 0.94335 0.73485 0.0
C1277 C 0.33446 0.94377 0.75551 0.0
C1278 C 0.32143 0.93649 0.7794 0.0
C1279 C 0.28746 0.92838 0.78245 0.0
H1280 H 0.24 0.16215 0.20922 0.0
H1281 H 0.32495 0.13074 1.16461 0.0
H1282 H 0.20271 0.15391 0.17282 0.0
H1283 H 0.28815 0.1222 1.12871 0.0
H1284 H 0.22329 0.14013 1.06055 0.0
H1285 H 0.25695 0.14951 1.09769 0.0
H1286 H 0.17504 0.11422 1.14366 0.0
H1287 H 0.14056 0.10494 1.10576 0.0
C1288 C 0.25095 0.15397 0.19163 0.0
C1289 C 0.28602 0.14786 0.19009 0.0
C1290 C 0.22934 0.14876 0.17068 0.0
C1291 C 0.24194 0.13751 1.14727 0.0
C1292 C 0.27701 0.13148 1.14592 0.0
C1293 C 0.29841 0.13637 0.16678 0.0
C1294 C 0.21196 0.13435 1.07845 0.0
C1295 C 0.17861 0.12173 1.07966 0.0
C1296 C 0.23175 0.13954 1.10006 0.0
C1297 C 0.21938 0.1325 1.12421 0.0
C1298 C 0.1858 0.12027 1.12563 0.0
C1299 C 0.16588 0.11477 1.10376 0.0
H1300 H 0.65922 0.39137 0.35767 0.0
H1301 H 0.64178 0.47873 0.31189 0.0
H1302 H 0.65049 0.42653 0.39549 0.0
H1303 H 0.63295 0.51301 0.34882 0.0
H1304 H 0.65135 0.5776 0.41789 0.0
H1305 H 0.65993 0.54007 0.38229 0.0
H1306 H 0.61159 0.45918 0.42217 0.0
H1307 H 0.6034 0.49708 0.45833 0.0
C1308 C 0.65355 0.41789 0.35552 0.0
C1309 C 0.65122 0.43168 0.33129 0.0
C1310 C 0.64831 0.43821 0.37733 0.0
C1311 C 0.64114 0.4732 0.37572 0.0
C1312 C 0.63893 0.48664 0.35142 0.0
C1313 C 0.64376 0.46651 0.3299 0.0
C1314 C 0.6421 0.55197 0.41919 0.0
C1315 C 0.62599 0.54108 0.44124 0.0
C1316 C 0.64702 0.53013 0.39848 0.0
C1317 C 0.6363 0.49609 0.39872 0.0
C1318 C 0.62046 0.48494 0.42091 0.0
C1319 C 0.6153 0.507 0.44169 0.0
H1320 H 0.19274 0.89839 0.6656 0.0
H1321 H 0.27586 0.85522 0.70619 0.0
H1322 H 0.22907 0.90721 0.62964 0.0
H1323 H 0.31257 0.86369 0.66971 0.0
H1324 H 0.37713 0.91232 0.60475 0.0
H1325 H 0.343 0.90291 0.64264 0.0
H1326 H 0.25656 0.88073 0.59626 0.0
H1327 H 0.28992 0.89029 0.55916 0.0
C1328 C 0.21871 0.89022 0.66685 0.0
C1329 C 0.23072 0.87538 0.68905 0.0
C1330 C 0.23984 0.89528 0.64594 0.0
C1331 C 0.27424 0.88601 0.64614 0.0
C1332 C 0.28648 0.87141 0.66847 0.0
C1333 C 0.26514 0.86609 0.68945 0.0
C1334 C 0.35085 0.90545 0.60266 0.0
C1335 C 0.33677 0.90215 0.57847 0.0
C1336 C 0.33112 0.89983 0.62452 0.0
C1337 C 0.29645 0.89118 0.62302 0.0
C1338 C 0.28271 0.88788 0.59875 0.0
C1339 C 0.30228 0.89315 0.57714 0.0
H1340 H 0.91977 0.57623 0.82253 0.0
H1341 H 0.82042 0.60296 0.84833 0.0
H1342 H 0.92839 0.54199 0.85995 0.0
H1343 H 0.8287 0.56774 0.88556 0.0
H1344 H 0.84234 0.46598 0.92966 0.0
H1345 H 0.83526 0.50449 0.89467 0.0
H1346 H 0.93411 0.54569 0.90863 0.0
H1347 H 0.94081 0.50765 0.94464 0.0
C1348 C 0.89979 0.57521 0.83631 0.0
C1349 C 0.86949 0.5931 0.83228 0.0
C1350 C 0.90482 0.55543 0.85792 0.0
C1351 C 0.87939 0.55183 0.87613 0.0
C1352 C 0.84902 0.56969 0.87212 0.0
C1353 C 0.84431 0.59024 0.85078 0.0
C1354 C 0.86284 0.48305 0.92537 0.0
C1355 C 0.89247 0.48297 0.94014 0.0
C1356 C 0.85853 0.50556 0.90527 0.0
C1357 C 0.88399 0.52855 0.89849 0.0
C1358 C 0.91386 0.5284 0.91305 0.0
C1359 C 0.91778 0.50647 0.93378 0.0
H1360 H 0.82267 0.85035 0.25594 0.0
H1361 H 0.851 0.94926 0.23051 0.0
H1362 H 0.78822 0.84195 0.21833 0.0
H1363 H 0.81571 0.9412 0.19305 0.0
H1364 H 0.71553 0.92966 1.14721 0.0
H1365 H 0.75377 0.93623 0.18267 0.0
H1366 H 0.79046 0.83522 0.17045 0.0
H1367 H 0.75225 0.82883 1.13425 0.0
C1368 C 0.82194 0.87026 0.24219 0.0
C1369 C 0.84032 0.90037 0.24637 0.0
C1370 C 0.80206 0.86536 0.22046 0.0
C1371 C 0.79888 0.89076 0.20229 0.0
C1372 C 0.81728 0.92093 0.20646 0.0
C1373 C 0.83789 0.9255 0.22793 0.0
C1374 C 0.73142 0.90856 1.15206 0.0
C1375 C 0.72992 0.87839 1.1378 0.0
C1376 C 0.75385 0.91256 0.1724 0.0
C1377 C 0.77555 0.88636 0.17978 0.0
C1378 C 0.77413 0.85603 0.16562 0.0
C1379 C 0.75213 0.85231 1.14475 0.0
H1380 H 0.36375 0.62727 0.97272 0.0
H1381 H 0.37723 0.53886 1.01808 0.0
H1382 H 0.37254 0.59264 0.93481 0.0
H1383 H 0.38643 0.5049 0.98091 0.0
H1384 H 0.36889 0.4419 0.91082 0.0
H1385 H 0.36131 0.47847 0.947 0.0
H1386 H 0.40881 0.56027 0.90753 0.0
H1387 H 0.41569 0.52335 0.8707 0.0
C1388 C 0.36874 0.6006 0.97476 0.0
C1389 C 0.36969 0.58635 0.9989 0.0
C1390 C 0.37398 0.58054 0.95287 0.0
C1391 C 0.38006 0.54534 0.95421 0.0
C1392 C 0.38123 0.53144 0.97845 0.0
C1393 C 0.37619 0.55134 1.00013 0.0
C1394 C 0.37818 0.46753 0.90973 0.0
C1395 C 0.39357 0.47896 0.88752 0.0
C1396 C 0.37389 0.48882 0.93082 0.0
C1397 C 0.38465 0.52285 0.93091 0.0
C1398 C 0.39992 0.5345 0.90861 0.0
C1399 C 0.40434 0.51301 0.8874 0.0
H1400 H 0.63892 0.11276 0.72109 0.0
H1401 H 0.72842 0.12319 0.76644 0.0
H1402 H 0.67345 0.12159 0.68322 0.0
H1403 H 0.76201 0.1323 0.72956 0.0
H1404 H 0.82374 0.11466 0.65984 0.0
H1405 H 0.78654 0.10582 0.69519 0.0
H1406 H 0.70749 0.16011 0.65751 0.0
H1407 H 0.74504 0.16839 0.62143 0.0
C1408 C 0.66577 0.11684 0.72313 0.0
C1409 C 0.68039 0.11719 0.74724 0.0
C1410 C 0.68573 0.12218 0.70132 0.0
C1411 C 0.72107 0.12752 0.70283 0.0
C1412 C 0.73531 0.12774 0.72701 0.0
C1413 C 0.7156 0.12275 0.74853 0.0
C1414 C 0.79861 0.1252 0.65898 0.0
C1415 C 0.78814 0.14296 0.63756 0.0
C1416 C 0.77697 0.12012 0.67955 0.0
C1417 C 0.74356 0.13246 0.67985 0.0
C1418 C 0.73278 0.14999 0.65831 0.0
C1419 C 0.75465 0.15521 0.63761 0.0
H1420 H 0.2002 0.42792 0.48232 0.0
H1421 H 0.09459 0.43668 0.49981 0.0
H1422 H 0.19186 0.46302 0.44518 0.0
H1423 H 0.08605 0.47099 0.46232 0.0
H1424 H 0.08046 0.50818 0.37795 0.0
H1425 H 0.08717 0.47041 0.41412 0.0
H1426 H 0.17807 0.52307 0.43523 0.0
H1427 H 0.1711 0.56076 0.39994 0.0
C1428 C 0.17505 0.4368 0.4781 0.0
C1429 C 0.1481 0.42894 0.49426 0.0
C1430 C 0.17025 0.45728 0.45676 0.0
C1431 C 0.13814 0.47012 0.45035 0.0
C1432 C 0.11108 0.46155 0.46623 0.0
C1433 C 0.11605 0.4418 0.4879 0.0
C1434 C 0.1017 0.51193 0.39041 0.0
C1435 C 0.12479 0.53835 0.38587 0.0
C1436 C 0.10561 0.49016 0.41127 0.0
C1437 C 0.1333 0.49331 0.42792 0.0
C1438 C 0.15653 0.51934 0.42303 0.0
C1439 C 0.15222 0.54143 0.4027 0.0
H1440 H 0.68713 0.67397 0.57703 0.0
H1441 H 0.67436 0.56918 0.59542 0.0
H1442 H 0.72213 0.6823 0.61445 0.0
H1443 H 0.71038 0.57721 0.63251 0.0
H1444 H 0.81068 0.59737 0.67711 0.0
H1445 H 0.77203 0.59008 0.64192 0.0
H1446 H 0.72108 0.68191 0.66281 0.0
H1447 H 0.75948 0.68885 0.69879 0.0
C1448 C 0.69141 0.6527 0.58921 0.0
C1449 C 0.67714 0.62098 0.58318 0.0
C1450 C 0.71162 0.65752 0.61079 0.0
C1451 C 0.7194 0.63054 0.62686 0.0
C1452 C 0.70519 0.59873 0.62078 0.0
C1453 C 0.68414 0.59413 0.59954 0.0
C1454 C 0.79147 0.61633 0.67429 0.0
C1455 C 0.78899 0.64412 0.69097 0.0
C1456 C 0.76889 0.61186 0.65405 0.0
C1457 C 0.74308 0.63529 0.64917 0.0
C1458 C 0.74064 0.66332 0.66566 0.0
C1459 C 0.76281 0.66738 0.68639 0.0
H1460 H 0.19889 0.95738 0.82771 0.0
H1461 H 0.10642 0.90384 0.84108 0.0
H1462 H 0.18914 0.99235 0.86472 0.0
H1463 H 0.09541 0.93973 0.87783 0.0
H1464 H 0.0939 0.99717 0.95431 0.0
H1465 H 0.10365 0.95878 0.91882 0.0
H1466 H 0.16149 0.03637 0.88217 0.0
H1467 H 0.1528 0.07365 0.91765 0.0
C1468 C 0.17659 0.95271 0.83887 0.0
C1469 C 0.15406 0.92691 0.83168 0.0
C1470 C 0.1705 0.97337 0.86008 0.0
C1471 C 0.14109 0.96976 0.87486 0.0
C1472 C 0.11863 0.94355 0.86764 0.0
C1473 C 0.12495 0.92265 0.84643 0.0
C1474 C 0.10847 1.00616 0.93858 0.0
C1475 C 0.12225 0.03907 0.93924 0.0
C1476 C 0.11415 0.98394 0.91797 0.0
C1477 C 0.13387 0.99364 0.89706 0.0
C1478 C 0.14693 0.02685 0.8977 0.0
C1479 C 0.14142 0.04883 0.91823 0.0
H1480 H 0.87633 0.41494 1.1063 0.0
H1481 H 0.79068 0.38694 1.06082 0.0
H1482 H 0.84225 0.40547 1.14424 0.0
H1483 H 0.7575 0.37728 1.09791 0.0
H1484 H 0.69178 0.39519 0.16602 0.0
H1485 H 0.72834 0.40392 1.13024 0.0
H1486 H 0.81297 0.36637 0.17234 0.0
H1487 H 0.77592 0.35812 0.20874 0.0
C1488 C 0.85044 0.40672 1.10423 0.0
C1489 C 0.83677 0.40185 1.08003 0.0
C1490 C 0.83074 0.40107 1.12613 0.0
C1491 C 0.7965 0.39077 1.12466 0.0
C1492 C 0.78323 0.38578 1.1004 0.0
C1493 C 0.80275 0.39113 1.07878 0.0
C1494 C 0.71807 0.38836 0.1678 0.0
C1495 C 0.73027 0.3753 0.19057 0.0
C1496 C 0.73935 0.39333 1.14697 0.0
C1497 C 0.77414 0.38569 1.14776 0.0
C1498 C 0.78658 0.37281 0.17063 0.0
C1499 C 0.76507 0.36761 0.19157 0.0
H1500 H 0.41825 0.02685 0.45582 0.0
H1501 H 0.36788 0.94619 0.4161 0.0
H1502 H 0.40971 0.06397 0.41967 0.0
H1503 H 0.35863 0.98291 0.38075 0.0
H1504 H 0.37323 0.04169 0.30986 0.0
H1505 H 0.38315 1.00827 0.34666 0.0
H1506 H 0.37234 0.09694 0.3933 0.0
H1507 H 0.36276 0.13118 0.35559 0.0
C1508 C 0.40572 0.01675 0.43937 0.0
C1509 C 0.39457 0.98282 0.43909 0.0
C1510 C 0.40036 0.03834 0.41858 0.0
C1511 C 0.38367 0.0269 0.39662 0.0
C1512 C 0.37236 0.99306 0.39664 0.0
C1513 C 0.37767 0.97167 0.41726 0.0
C1514 C 0.37297 0.05454 0.32783 0.0
C1515 C 0.36712 0.08969 0.32925 0.0
C1516 C 0.37841 0.03493 0.34932 0.0
C1517 C 0.37838 0.04923 0.3736 0.0
C1518 C 0.37283 0.08455 0.37518 0.0
C1519 C 0.36706 0.10436 0.35343 0.0
H1520 H 0.28808 0.38921 0.76471 0.0
H1521 H 0.37489 0.4114 0.71918 0.0
H1522 H 0.25421 0.38049 0.72747 0.0
H1523 H 0.34036 0.40248 0.68121 0.0
H1524 H 0.27096 0.35408 0.6175 0.0
H1525 H 0.30848 0.36157 0.65398 0.0
H1526 H 0.22758 0.40981 0.69438 0.0
H1527 H 0.19062 0.40227 0.65846 0.0
C1528 C 0.30025 0.39217 0.74672 0.0
C1529 C 0.33477 0.40099 0.74542 0.0
C1530 C 0.28042 0.38735 0.72506 0.0
C1531 C 0.29398 0.3908 0.7008 0.0
C1532 C 0.32867 0.39927 0.69933 0.0
C1533 C 0.34861 0.4046 0.72123 0.0
C1534 C 0.26098 0.36572 0.63433 0.0
C1535 C 0.2271 0.3768 0.63483 0.0
C1536 C 0.28277 0.3705 0.65528 0.0
C1537 C 0.27146 0.38617 0.67767 0.0
C1538 C 0.23759 0.39709 0.678 0.0
C1539 C 0.21612 0.39272 0.65712 0.0
H1540 H 0.81555 0.09294 0.48315 0.0
H1541 H 0.92036 0.08227 0.50276 0.0
H1542 H 0.82446 0.0572 0.446 0.0
H1543 H 0.92947 0.04731 0.46531 0.0
H1544 H 0.93714 0.01057 0.38087 0.0
H1545 H 0.92951 0.04857 0.41715 0.0
H1546 H 0.838 0.99616 0.43638 0.0
H1547 H 0.84598 0.95793 0.40089 0.0
C1548 C 0.84066 0.08353 0.47936 0.0
C1549 C 0.86725 0.09102 0.49607 0.0
C1550 C 0.84576 0.06269 0.45806 0.0
C1551 C 0.8778 0.04914 0.45233 0.0
C1552 C 0.90452 0.05734 0.46875 0.0
C1553 C 0.89924 0.07746 0.49036 0.0
C1554 C 0.9156 1.00687 0.39298 0.0
C1555 C 0.89264 0.98043 0.38791 0.0
C1556 C 0.91116 0.02877 0.41386 0.0
C1557 C 0.88302 0.02574 0.42995 0.0
C1558 C 0.85986 0.99968 0.42456 0.0
C1559 C 0.86473 0.97736 0.40418 0.0
H1560 H 0.22775 0.63655 0.26611 0.0
H1561 H 0.13981 0.61302 0.2217 0.0
H1562 H 0.25989 0.6468 0.22868 0.0
H1563 H 0.17288 0.62267 0.18336 0.0
H1564 H 0.23864 0.66747 1.11786 0.0
H1565 H 0.20223 0.65952 1.15468 0.0
H1566 H 0.28757 0.62177 0.19593 0.0
H1567 H 0.32342 0.63063 1.16004 0.0
C1568 C 0.21498 0.63343 0.2483 0.0
C1569 C 0.18066 0.62383 0.24744 0.0
C1570 C 0.23388 0.63908 0.22645 0.0
C1571 C 0.2197 0.63529 0.20234 0.0
C1572 C 0.18512 0.62615 0.20131 0.0
C1573 C 0.16599 0.62042 0.22344 0.0
C1574 C 0.24977 0.65815 1.13497 0.0
C1575 C 0.28458 0.65058 1.13573 0.0
C1576 C 0.22864 0.65307 1.15616 0.0
C1577 C 0.2415 0.64029 0.17896 0.0
C1578 C 0.27624 0.63253 0.17939 0.0
C1579 C 0.29713 0.63758 1.15843 0.0
H1580 H 0.65989 0.89204 0.97088 0.0
H1581 H 0.64151 0.97995 1.01693 0.0
H1582 H 0.65088 0.92653 0.93316 0.0
H1583 H 0.63232 0.01352 0.98013 0.0
H1584 H 0.65047 0.07731 0.91167 0.0
H1585 H 0.65922 0.04028 0.94702 0.0
H1586 H 0.61184 0.9585 0.90641 0.0
H1587 H 0.60363 0.99593 0.87039 0.0
C1588 C 0.654 0.91854 0.97311 0.0
C1589 C 0.65153 0.9327 0.99738 0.0
C1590 C 0.64857 0.93846 0.95137 0.0
C1591 C 0.64102 0.97339 0.9531 0.0
C1592 C 0.63861 0.98719 0.97744 0.0
C1593 C 0.64367 0.96746 0.99889 0.0
C1594 C 0.6415 0.05158 0.91013 0.0
C1595 C 0.6257 0.04028 0.8879 0.0
C1596 C 0.64649 0.03004 0.93071 0.0
C1597 C 0.63608 0.99591 0.9302 0.0
C1598 C 0.62048 0.98435 0.90786 0.0
C1599 C 0.61532 1.00611 0.88716 0.0
loop_
_geom_bond_atom_site_label_1
_geom_bond_atom_site_label_2
_geom_bond_distance
_geom_bond_site_symmetry_2
_ccdc_geom_bond_type
Dy0 O3 2.307 . S
Dy0 O5 2.395 . S
Dy0 O6 2.379 . S
Dy0 O8 2.339 . S
Dy0 O10 2.298 . S
Dy0 O14 2.275 . S
Dy0 C22 2.738 . S
Dy1 O4 2.298 . S
Dy1 O7 2.275 . S
Dy1 O9 2.307 . S
Dy1 O11 2.395 . S
Dy1 O12 2.379 . S
Dy1 O15 2.339 . S
Dy1 C31 2.738 . S
C2 O14 1.254 . S
C2 O15 1.257 . S
O3 Dy0 2.307 . S
O3 C13 1.266 . S
O4 Dy1 2.298 . S
O4 C13 1.236 . S
O5 Dy0 2.395 . S
O5 C22 1.255 . S
O6 Dy0 2.379 . S
O6 C22 1.249 . S
O7 Dy1 2.275 . S
O7 C23 1.254 . S
O8 Dy0 2.339 . S
O8 C23 1.257 . S
O9 Dy1 2.307 . S
O9 C24 1.266 . S
O10 Dy0 2.298 . S
O10 C24 1.236 . S
O11 Dy1 2.395 . S
O11 C31 1.255 . S
O12 Dy1 2.379 . S
O12 C31 1.249 . S
C13 O3 1.266 . S
C13 O4 1.236 . S
O14 Dy0 2.275 . S
O14 C2 1.254 . S
O15 Dy1 2.339 . S
O15 C2 1.257 . S
C16 C19 1.344 . S
C16 C20 1.328 . S
C16 C22 1.516 . S
C17 C18 1.304 . S
C17 C21 1.323 1_545 S
C18 C17 1.304 . S
C18 C19 1.371 . S
C18 H32 0.930 . S
C19 C16 1.344 . S
C19 C18 1.371 . S
C19 H33 0.931 . S
C20 C16 1.328 . S
C20 C21 1.433 1_545 S
C20 H34 0.931 . S
C21 C17 1.323 1_565 S
C21 C20 1.433 1_565 S
C21 H35 0.933 . S
C22 Dy0 2.738 . S
C22 O5 1.255 . S
C22 O6 1.249 . S
C22 C16 1.516 . S
C23 O7 1.254 . S
C23 O8 1.257 . S
C24 O9 1.266 . S
C24 O10 1.236 . S
C25 C28 1.344 . S
C25 C29 1.328 . S
C25 C31 1.516 . S
C26 C27 1.304 . S
C26 C30 1.323 . S
C27 C26 1.304 . S
C27 C28 1.371 . S
C27 H36 0.930 . S
C28 C25 1.344 . S
C28 C27 1.371 . S
C28 H37 0.931 . S
C29 C25 1.328 . S
C29 C30 1.433 . S
C29 H38 0.931 . S
C30 C26 1.323 . S
C30 C29 1.433 . S
C30 H39 0.933 . S
C31 Dy1 2.738 . S
C31 O11 1.255 . S
C31 O12 1.249 . S
C31 C25 1.516 . S
H32 C18 0.930 . S
H33 C19 0.931 . S
H34 C20 0.931 . S
H35 C21 0.933 . S
H36 C27 0.930 . S
H37 C28 0.931 . S
H38 C29 0.931 . S
H39 C30 0.933 . S
Dy40 O43 2.307 . S
Dy40 O45 2.395 . S
Dy40 O46 2.379 . S
Dy40 O48 2.339 . S
Dy40 O50 2.298 . S
Dy40 O54 2.275 . S
Dy40 C62 2.738 . S
Dy41 O44 2.298 . S
Dy41 O47 2.275 . S
Dy41 O49 2.307 . S
Dy41 O51 2.395 . S
Dy41 O52 2.379 . S
Dy41 O55 2.339 . S
Dy41 C71 2.738 . S
C42 O54 1.254 . S
C42 O55 1.257 . S
O43 Dy40 2.307 . S
O43 C53 1.266 . S
O44 Dy41 2.298 . S
O44 C53 1.236 . S
O45 Dy40 2.395 . S
O45 C62 1.255 . S
O46 Dy40 2.379 . S
O46 C62 1.249 . S
O47 Dy41 2.275 . S
O47 C63 1.254 . S
O48 Dy40 2.339 . S
O48 C63 1.257 . S
O49 Dy41 2.307 . S
O49 C64 1.266 . S
O50 Dy40 2.298 . S
O50 C64 1.236 . S
O51 Dy41 2.395 . S
O51 C71 1.255 . S
O52 Dy41 2.379 . S
O52 C71 1.249 . S
C53 O43 1.266 . S
C53 O44 1.236 . S
O54 Dy40 2.275 . S
O54 C42 1.254 . S
O55 Dy41 2.339 . S
O55 C42 1.257 . S
C56 C59 1.344 . S
C56 C60 1.328 . S
C56 C62 1.516 . S
C57 C58 1.304 . S
C57 C61 1.323 . S
C58 C57 1.304 . S
C58 C59 1.371 . S
C58 H72 0.930 . S
C59 C56 1.344 . S
C59 C58 1.371 . S
C59 H73 0.931 . S
C60 C56 1.328 . S
C60 C61 1.433 . S
C60 H74 0.931 . S
C61 C57 1.323 . S
C61 C60 1.433 . S
C61 H75 0.933 . S
C62 Dy40 2.738 . S
C62 O45 1.255 . S
C62 O46 1.249 . S
C62 C56 1.516 . S
C63 O47 1.254 . S
C63 O48 1.257 . S
C64 O49 1.266 . S
C64 O50 1.236 . S
C65 C68 1.344 . S
C65 C69 1.328 . S
C65 C71 1.516 . S
C66 C67 1.304 . S
C66 C70 1.323 . S
C67 C66 1.304 . S
C67 C68 1.371 . S
C67 H76 0.930 . S
C68 C65 1.344 . S
C68 C67 1.371 . S
C68 H77 0.931 . S
C69 C65 1.328 . S
C69 C70 1.433 . S
C69 H78 0.931 . S
C70 C66 1.323 . S
C70 C69 1.433 . S
C70 H79 0.933 . S
C71 Dy41 2.738 . S
C71 O51 1.255 . S
C71 O52 1.249 . S
C71 C65 1.516 . S
H72 C58 0.930 . S
H73 C59 0.931 . S
H74 C60 0.931 . S
H75 C61 0.933 . S
H76 C67 0.930 . S
H77 C68 0.931 . S
H78 C69 0.931 . S
H79 C70 0.933 . S
Dy80 O83 2.307 . S
Dy80 O85 2.395 . S
Dy80 O86 2.379 . S
Dy80 O88 2.339 . S
Dy80 O90 2.298 . S
Dy80 O94 2.275 . S
Dy80 C102 2.738 . S
Dy81 O84 2.298 . S
Dy81 O87 2.275 . S
Dy81 O89 2.307 . S
Dy81 O91 2.395 . S
Dy81 O92 2.379 . S
Dy81 O95 2.339 . S
Dy81 C111 2.738 . S
C82 O94 1.254 . S
C82 O95 1.257 . S
O83 Dy80 2.307 . S
O83 C93 1.266 . S
O84 Dy81 2.298 . S
O84 C93 1.236 . S
O85 Dy80 2.395 . S
O85 C102 1.255 . S
O86 Dy80 2.379 . S
O86 C102 1.249 . S
O87 Dy81 2.275 . S
O87 C103 1.254 . S
O88 Dy80 2.339 . S
O88 C103 1.257 . S
O89 Dy81 2.307 . S
O89 C104 1.266 . S
O90 Dy80 2.298 . S
O90 C104 1.236 . S
O91 Dy81 2.395 . S
O91 C111 1.255 . S
O92 Dy81 2.379 . S
O92 C111 1.249 . S
C93 O83 1.266 . S
C93 O84 1.236 . S
O94 Dy80 2.275 . S
O94 C82 1.254 . S
O95 Dy81 2.339 . S
O95 C82 1.257 . S
C96 C99 1.344 . S
C96 C100 1.328 . S
C96 C102 1.516 . S
C97 C98 1.304 . S
C97 C101 1.323 1_565 S
C98 C97 1.304 . S
C98 C99 1.371 . S
C98 H112 0.930 . S
C99 C96 1.344 . S
C99 C98 1.371 . S
C99 H113 0.931 . S
C100 C96 1.328 . S
C100 C101 1.433 1_565 S
C100 H114 0.931 . S
C101 C97 1.323 1_545 S
C101 C100 1.433 1_545 S
C101 H115 0.933 . S
C102 Dy80 2.738 . S
C102 O85 1.255 . S
C102 O86 1.249 . S
C102 C96 1.516 . S
C103 O87 1.254 . S
C103 O88 1.257 . S
C104 O89 1.266 . S
C104 O90 1.236 . S
C105 C108 1.344 . S
C105 C109 1.328 . S
C105 C111 1.516 . S
C106 C107 1.304 . S
C106 C110 1.323 . S
C107 C106 1.304 . S
C107 C108 1.371 . S
C107 H116 0.930 . S
C108 C105 1.344 . S
C108 C107 1.371 . S
C108 H117 0.931 . S
C109 C105 1.328 . S
C109 C110 1.433 . S
C109 H118 0.931 . S
C110 C106 1.323 . S
C110 C109 1.433 . S
C110 H119 0.933 . S
C111 Dy81 2.738 . S
C111 O91 1.255 . S
C111 O92 1.249 . S
C111 C105 1.516 . S
H112 C98 0.930 . S
H113 C99 0.931 . S
H114 C100 0.931 . S
H115 C101 0.933 . S
H116 C107 0.930 . S
H117 C108 0.931 . S
H118 C109 0.931 . S
H119 C110 0.933 . S
Dy120 O123 2.307 . S
Dy120 O125 2.395 . S
Dy120 O126 2.379 . S
Dy120 O128 2.339 . S
Dy120 O130 2.298 . S
Dy120 O134 2.275 . S
Dy120 C142 2.738 . S
Dy121 O124 2.298 . S
Dy121 O127 2.275 . S
Dy121 O129 2.307 . S
Dy121 O131 2.395 . S
Dy121 O132 2.379 . S
Dy121 O135 2.339 . S
Dy121 C151 2.738 . S
C122 O134 1.254 . S
C122 O135 1.257 . S
O123 Dy120 2.307 . S
O123 C133 1.266 . S
O124 Dy121 2.298 . S
O124 C133 1.236 . S
O125 Dy120 2.395 . S
O125 C142 1.255 . S
O126 Dy120 2.379 . S
O126 C142 1.249 . S
O127 Dy121 2.275 . S
O127 C143 1.254 . S
O128 Dy120 2.339 . S
O128 C143 1.257 . S
O129 Dy121 2.307 . S
O129 C144 1.266 . S
O130 Dy120 2.298 . S
O130 C144 1.236 . S
O131 Dy121 2.395 . S
O131 C151 1.255 . S
O132 Dy121 2.379 . S
O132 C151 1.249 . S
C133 O123 1.266 . S
C133 O124 1.236 . S
O134 Dy120 2.275 . S
O134 C122 1.254 . S
O135 Dy121 2.339 . S
O135 C122 1.257 . S
C136 C139 1.344 . S
C136 C140 1.328 . S
C136 C142 1.516 . S
C137 C138 1.304 . S
C137 C141 1.323 . S
C138 C137 1.304 . S
C138 C139 1.371 . S
C138 H152 0.930 . S
C139 C136 1.344 . S
C139 C138 1.371 . S
C139 H153 0.931 . S
C140 C136 1.328 . S
C140 C141 1.433 . S
C140 H154 0.931 . S
C141 C137 1.323 . S
C141 C140 1.433 . S
C141 H155 0.933 . S
C142 Dy120 2.738 . S
C142 O125 1.255 . S
C142 O126 1.249 . S
C142 C136 1.516 . S
C143 O127 1.254 . S
C143 O128 1.257 . S
C144 O129 1.266 . S
C144 O130 1.236 . S
C145 C148 1.344 1_455 S
C145 C149 1.328 . S
C145 C151 1.516 1_455 S
C146 C147 1.304 . S
C146 C150 1.323 . S
C147 C146 1.304 . S
C147 C148 1.371 1_455 S
C147 H156 0.930 . S
C148 C145 1.344 1_655 S
C148 C147 1.371 1_655 S
C148 H157 0.931 . S
C149 C145 1.328 . S
C149 C150 1.433 . S
C149 H158 0.931 . S
C150 C146 1.323 . S
C150 C149 1.433 . S
C150 H159 0.933 . S
C151 Dy121 2.738 . S
C151 O131 1.255 . S
C151 O132 1.249 . S
C151 C145 1.516 1_655 S
H152 C138 0.930 . S
H153 C139 0.931 . S
H154 C140 0.931 . S
H155 C141 0.933 . S
H156 C147 0.930 . S
H157 C148 0.931 . S
H158 C149 0.931 . S
H159 C150 0.933 . S
Dy160 O163 2.307 . S
Dy160 O165 2.395 . S
Dy160 O166 2.379 . S
Dy160 O168 2.339 . S
Dy160 O170 2.298 . S
Dy160 O174 2.275 . S
Dy160 C182 2.738 . S
Dy161 O164 2.298 . S
Dy161 O167 2.275 . S
Dy161 O169 2.307 . S
Dy161 O171 2.395 . S
Dy161 O172 2.379 . S
Dy161 O175 2.339 . S
Dy161 C191 2.738 . S
C162 O174 1.254 . S
C162 O175 1.257 . S
O163 Dy160 2.307 . S
O163 C173 1.266 . S
O164 Dy161 2.298 . S
O164 C173 1.236 . S
O165 Dy160 2.395 . S
O165 C182 1.255 . S
O166 Dy160 2.379 . S
O166 C182 1.249 . S
O167 Dy161 2.275 . S
O167 C183 1.254 . S
O168 Dy160 2.339 . S
O168 C183 1.257 . S
O169 Dy161 2.307 . S
O169 C184 1.266 . S
O170 Dy160 2.298 . S
O170 C184 1.236 . S
O171 Dy161 2.395 . S
O171 C191 1.255 . S
O172 Dy161 2.379 . S
O172 C191 1.249 . S
C173 O163 1.266 . S
C173 O164 1.236 . S
O174 Dy160 2.275 . S
O174 C162 1.254 . S
O175 Dy161 2.339 . S
O175 C162 1.257 . S
C176 C179 1.344 . S
C176 C180 1.328 . S
C176 C182 1.516 . S
C177 C178 1.304 . S
C177 C181 1.323 . S
C178 C177 1.304 . S
C178 C179 1.371 . S
C178 H192 0.930 . S
C179 C176 1.344 . S
C179 C178 1.371 . S
C179 H193 0.931 . S
C180 C176 1.328 . S
C180 C181 1.433 . S
C180 H194 0.931 . S
C181 C177 1.323 . S
C181 C180 1.433 . S
C181 H195 0.933 . S
C182 Dy160 2.738 . S
C182 O165 1.255 . S
C182 O166 1.249 . S
C182 C176 1.516 . S
C183 O167 1.254 . S
C183 O168 1.257 . S
C184 O169 1.266 . S
C184 O170 1.236 . S
C185 C188 1.344 . S
C185 C189 1.328 . S
C185 C191 1.516 . S
C186 C187 1.304 . S
C186 C190 1.323 1_565 S
C187 C186 1.304 . S
C187 C188 1.371 . S
C187 H196 0.930 . S
C188 C185 1.344 . S
C188 C187 1.371 . S
C188 H197 0.931 . S
C189 C185 1.328 . S
C189 C190 1.433 1_565 S
C189 H198 0.931 . S
C190 C186 1.323 1_545 S
C190 C189 1.433 1_545 S
C190 H199 0.933 . S
C191 Dy161 2.738 . S
C191 O171 1.255 . S
C191 O172 1.249 . S
C191 C185 1.516 . S
H192 C178 0.930 . S
H193 C179 0.931 . S
H194 C180 0.931 . S
H195 C181 0.933 . S
H196 C187 0.930 . S
H197 C188 0.931 . S
H198 C189 0.931 . S
H199 C190 0.933 . S
Dy200 O203 2.307 . S
Dy200 O205 2.395 . S
Dy200 O206 2.379 . S
Dy200 O208 2.339 . S
Dy200 O210 2.298 . S
Dy200 O214 2.275 . S
Dy200 C222 2.738 . S
Dy201 O204 2.298 . S
Dy201 O207 2.275 . S
Dy201 O209 2.307 . S
Dy201 O211 2.395 . S
Dy201 O212 2.379 . S
Dy201 O215 2.339 . S
Dy201 C231 2.738 . S
C202 O214 1.254 . S
C202 O215 1.257 . S
O203 Dy200 2.307 . S
O203 C213 1.266 . S
O204 Dy201 2.298 . S
O204 C213 1.236 . S
O205 Dy200 2.395 . S
O205 C222 1.255 . S
O206 Dy200 2.379 . S
O206 C222 1.249 . S
O207 Dy201 2.275 . S
O207 C223 1.254 . S
O208 Dy200 2.339 . S
O208 C223 1.257 . S
O209 Dy201 2.307 . S
O209 C224 1.266 . S
O210 Dy200 2.298 . S
O210 C224 1.236 . S
O211 Dy201 2.395 . S
O211 C231 1.255 . S
O212 Dy201 2.379 . S
O212 C231 1.249 . S
C213 O203 1.266 . S
C213 O204 1.236 . S
O214 Dy200 2.275 . S
O214 C202 1.254 . S
O215 Dy201 2.339 . S
O215 C202 1.257 . S
C216 C219 1.344 . S
C216 C220 1.328 . S
C216 C222 1.516 . S
C217 C218 1.304 . S
C217 C221 1.323 . S
C218 C217 1.304 . S
C218 C219 1.371 . S
C218 H232 0.930 . S
C219 C216 1.344 . S
C219 C218 1.371 . S
C219 H233 0.931 . S
C220 C216 1.328 . S
C220 C221 1.433 . S
C220 H234 0.931 . S
C221 C217 1.323 . S
C221 C220 1.433 . S
C221 H235 0.933 . S
C222 Dy200 2.738 . S
C222 O205 1.255 . S
C222 O206 1.249 . S
C222 C216 1.516 . S
C223 O207 1.254 . S
C223 O208 1.257 . S
C224 O209 1.266 . S
C224 O210 1.236 . S
C225 C228 1.344 . S
C225 C229 1.328 . S
C225 C231 1.516 . S
C226 C227 1.304 . S
C226 C230 1.323 . S
C227 C226 1.304 . S
C227 C228 1.371 . S
C227 H236 0.930 . S
C228 C225 1.344 . S
C228 C227 1.371 . S
C228 H237 0.931 . S
C229 C225 1.328 . S
C229 C230 1.433 . S
C229 H238 0.931 . S
C230 C226 1.323 . S
C230 C229 1.433 . S
C230 H239 0.933 . S
C231 Dy201 2.738 . S
C231 O211 1.255 . S
C231 O212 1.249 . S
C231 C225 1.516 . S
H232 C218 0.930 . S
H233 C219 0.931 . S
H234 C220 0.931 . S
H235 C221 0.933 . S
H236 C227 0.930 . S
H237 C228 0.931 . S
H238 C229 0.931 . S
H239 C230 0.933 . S
Dy240 O243 2.307 . S
Dy240 O245 2.395 . S
Dy240 O246 2.379 . S
Dy240 O248 2.339 . S
Dy240 O250 2.298 . S
Dy240 O254 2.275 . S
Dy240 C262 2.738 . S
Dy241 O244 2.298 . S
Dy241 O247 2.275 . S
Dy241 O249 2.307 . S
Dy241 O251 2.395 . S
Dy241 O252 2.379 . S
Dy241 O255 2.339 . S
Dy241 C271 2.738 . S
C242 O254 1.254 . S
C242 O255 1.257 . S
O243 Dy240 2.307 . S
O243 C253 1.266 . S
O244 Dy241 2.298 . S
O244 C253 1.236 . S
O245 Dy240 2.395 . S
O245 C262 1.255 . S
O246 Dy240 2.379 . S
O246 C262 1.249 . S
O247 Dy241 2.275 . S
O247 C263 1.254 . S
O248 Dy240 2.339 . S
O248 C263 1.257 . S
O249 Dy241 2.307 . S
O249 C264 1.266 . S
O250 Dy240 2.298 . S
O250 C264 1.236 . S
O251 Dy241 2.395 . S
O251 C271 1.255 . S
O252 Dy241 2.379 . S
O252 C271 1.249 . S
C253 O243 1.266 . S
C253 O244 1.236 . S
O254 Dy240 2.275 . S
O254 C242 1.254 . S
O255 Dy241 2.339 . S
O255 C242 1.257 . S
C256 C259 1.344 . S
C256 C260 1.328 . S
C256 C262 1.516 . S
C257 C258 1.304 . S
C257 C261 1.323 . S
C258 C257 1.304 . S
C258 C259 1.371 . S
C258 H272 0.930 . S
C259 C256 1.344 . S
C259 C258 1.371 . S
C259 H273 0.931 . S
C260 C256 1.328 . S
C260 C261 1.433 . S
C260 H274 0.931 . S
C261 C257 1.323 . S
C261 C260 1.433 . S
C261 H275 0.933 . S
C262 Dy240 2.738 . S
C262 O245 1.255 . S
C262 O246 1.249 . S
C262 C256 1.516 . S
C263 O247 1.254 . S
C263 O248 1.257 . S
C264 O249 1.266 . S
C264 O250 1.236 . S
C265 C268 1.344 . S
C265 C269 1.328 . S
C265 C271 1.516 . S
C266 C267 1.304 . S
C266 C270 1.323 1_545 S
C267 C266 1.304 . S
C267 C268 1.371 . S
C267 H276 0.930 . S
C268 C265 1.344 . S
C268 C267 1.371 . S
C268 H277 0.931 . S
C269 C265 1.328 . S
C269 C270 1.433 1_545 S
C269 H278 0.931 . S
C270 C266 1.323 1_565 S
C270 C269 1.433 1_565 S
C270 H279 0.933 . S
C271 Dy241 2.738 . S
C271 O251 1.255 . S
C271 O252 1.249 . S
C271 C265 1.516 . S
H272 C258 0.930 . S
H273 C259 0.931 . S
H274 C260 0.931 . S
H275 C261 0.933 . S
H276 C267 0.930 . S
H277 C268 0.931 . S
H278 C269 0.931 . S
H279 C270 0.933 . S
Dy280 O283 2.307 . S
Dy280 O285 2.395 . S
Dy280 O286 2.379 . S
Dy280 O288 2.339 . S
Dy280 O290 2.298 . S
Dy280 O294 2.275 . S
Dy280 C302 2.738 . S
Dy281 O284 2.298 . S
Dy281 O287 2.275 . S
Dy281 O289 2.307 . S
Dy281 O291 2.395 . S
Dy281 O292 2.379 . S
Dy281 O295 2.339 . S
Dy281 C311 2.738 . S
C282 O294 1.254 . S
C282 O295 1.257 . S
O283 Dy280 2.307 . S
O283 C293 1.266 . S
O284 Dy281 2.298 . S
O284 C293 1.236 . S
O285 Dy280 2.395 . S
O285 C302 1.255 . S
O286 Dy280 2.379 . S
O286 C302 1.249 . S
O287 Dy281 2.275 . S
O287 C303 1.254 . S
O288 Dy280 2.339 . S
O288 C303 1.257 . S
O289 Dy281 2.307 . S
O289 C304 1.266 . S
O290 Dy280 2.298 . S
O290 C304 1.236 . S
O291 Dy281 2.395 . S
O291 C311 1.255 . S
O292 Dy281 2.379 . S
O292 C311 1.249 . S
C293 O283 1.266 . S
C293 O284 1.236 . S
O294 Dy280 2.275 . S
O294 C282 1.254 . S
O295 Dy281 2.339 . S
O295 C282 1.257 . S
C296 C299 1.344 1_655 S
C296 C300 1.328 . S
C296 C302 1.516 1_655 S
C297 C298 1.304 . S
C297 C301 1.323 . S
C298 C297 1.304 . S
C298 C299 1.371 1_655 S
C298 H312 0.930 . S
C299 C296 1.344 1_455 S
C299 C298 1.371 1_455 S
C299 H313 0.931 . S
C300 C296 1.328 . S
C300 C301 1.433 . S
C300 H314 0.931 . S
C301 C297 1.323 . S
C301 C300 1.433 . S
C301 H315 0.933 . S
C302 Dy280 2.738 . S
C302 O285 1.255 . S
C302 O286 1.249 . S
C302 C296 1.516 1_455 S
C303 O287 1.254 . S
C303 O288 1.257 . S
C304 O289 1.266 . S
C304 O290 1.236 . S
C305 C308 1.344 . S
C305 C309 1.328 . S
C305 C311 1.516 . S
C306 C307 1.304 . S
C306 C310 1.323 . S
C307 C306 1.304 . S
C307 C308 1.371 . S
C307 H316 0.930 . S
C308 C305 1.344 . S
C308 C307 1.371 . S
C308 H317 0.931 . S
C309 C305 1.328 . S
C309 C310 1.433 . S
C309 H318 0.931 . S
C310 C306 1.323 . S
C310 C309 1.433 . S
C310 H319 0.933 . S
C311 Dy281 2.738 . S
C311 O291 1.255 . S
C311 O292 1.249 . S
C311 C305 1.516 . S
H312 C298 0.930 . S
H313 C299 0.931 . S
H314 C300 0.931 . S
H315 C301 0.933 . S
H316 C307 0.930 . S
H317 C308 0.931 . S
H318 C309 0.931 . S
H319 C310 0.933 . S
Dy320 O323 2.307 . S
Dy320 O325 2.395 . S
Dy320 O326 2.379 . S
Dy320 O328 2.339 . S
Dy320 O330 2.298 . S
Dy320 O334 2.275 . S
Dy320 C342 2.738 . S
Dy321 O324 2.298 . S
Dy321 O327 2.275 . S
Dy321 O329 2.307 . S
Dy321 O331 2.395 . S
Dy321 O332 2.379 . S
Dy321 O335 2.339 . S
Dy321 C351 2.738 . S
C322 O334 1.254 . S
C322 O335 1.257 . S
O323 Dy320 2.307 . S
O323 C333 1.266 . S
O324 Dy321 2.298 . S
O324 C333 1.236 . S
O325 Dy320 2.395 . S
O325 C342 1.255 . S
O326 Dy320 2.379 . S
O326 C342 1.249 . S
O327 Dy321 2.275 . S
O327 C343 1.254 . S
O328 Dy320 2.339 . S
O328 C343 1.257 . S
O329 Dy321 2.307 . S
O329 C344 1.266 . S
O330 Dy320 2.298 . S
O330 C344 1.236 . S
O331 Dy321 2.395 . S
O331 C351 1.255 . S
O332 Dy321 2.379 . S
O332 C351 1.249 . S
C333 O323 1.266 . S
C333 O324 1.236 . S
O334 Dy320 2.275 . S
O334 C322 1.254 . S
O335 Dy321 2.339 . S
O335 C322 1.257 . S
C336 C339 1.344 . S
C336 C340 1.328 . S
C336 C342 1.516 . S
C337 C338 1.304 . S
C337 C341 1.323 . S
C338 C337 1.304 . S
C338 C339 1.371 . S
C338 H352 0.930 . S
C339 C336 1.344 . S
C339 C338 1.371 . S
C339 H353 0.931 . S
C340 C336 1.328 . S
C340 C341 1.433 . S
C340 H354 0.931 . S
C341 C337 1.323 . S
C341 C340 1.433 . S
C341 H355 0.933 . S
C342 Dy320 2.738 . S
C342 O325 1.255 . S
C342 O326 1.249 . S
C342 C336 1.516 . S
C343 O327 1.254 . S
C343 O328 1.257 . S
C344 O329 1.266 . S
C344 O330 1.236 . S
C345 C348 1.344 . S
C345 C349 1.328 . S
C345 C351 1.516 . S
C346 C347 1.304 . S
C346 C350 1.323 . S
C347 C346 1.304 . S
C347 C348 1.371 . S
C347 H356 0.930 . S
C348 C345 1.344 . S
C348 C347 1.371 . S
C348 H357 0.931 . S
C349 C345 1.328 . S
C349 C350 1.433 . S
C349 H358 0.931 . S
C350 C346 1.323 . S
C350 C349 1.433 . S
C350 H359 0.933 . S
C351 Dy321 2.738 . S
C351 O331 1.255 . S
C351 O332 1.249 . S
C351 C345 1.516 . S
H352 C338 0.930 . S
H353 C339 0.931 . S
H354 C340 0.931 . S
H355 C341 0.933 . S
H356 C347 0.930 . S
H357 C348 0.931 . S
H358 C349 0.931 . S
H359 C350 0.933 . S
Dy360 O363 2.307 . S
Dy360 O365 2.395 . S
Dy360 O366 2.379 . S
Dy360 O368 2.339 . S
Dy360 O370 2.298 . S
Dy360 O374 2.275 . S
Dy360 C382 2.738 . S
Dy361 O364 2.298 . S
Dy361 O367 2.275 . S
Dy361 O369 2.307 . S
Dy361 O371 2.395 1_545 S
Dy361 O372 2.379 . S
Dy361 O375 2.339 . S
Dy361 C391 2.738 . S
C362 O374 1.254 . S
C362 O375 1.257 . S
O363 Dy360 2.307 . S
O363 C373 1.266 . S
O364 Dy361 2.298 . S
O364 C373 1.236 . S
O365 Dy360 2.395 . S
O365 C382 1.255 . S
O366 Dy360 2.379 . S
O366 C382 1.249 . S
O367 Dy361 2.275 . S
O367 C383 1.254 . S
O368 Dy360 2.339 . S
O368 C383 1.257 . S
O369 Dy361 2.307 . S
O369 C384 1.266 . S
O370 Dy360 2.298 . S
O370 C384 1.236 . S
O371 Dy361 2.395 1_565 S
O371 C391 1.255 1_565 S
O372 Dy361 2.379 . S
O372 C391 1.249 . S
C373 O363 1.266 . S
C373 O364 1.236 . S
O374 Dy360 2.275 . S
O374 C362 1.254 . S
O375 Dy361 2.339 . S
O375 C362 1.257 . S
C376 C379 1.344 . S
C376 C380 1.328 . S
C376 C382 1.516 . S
C377 C378 1.304 . S
C377 C381 1.323 . S
C378 C377 1.304 . S
C378 C379 1.371 . S
C378 H392 0.930 . S
C379 C376 1.344 . S
C379 C378 1.371 . S
C379 H393 0.931 . S
C380 C376 1.328 . S
C380 C381 1.433 . S
C380 H394 0.931 . S
C381 C377 1.323 . S
C381 C380 1.433 . S
C381 H395 0.933 . S
C382 Dy360 2.738 . S
C382 O365 1.255 . S
C382 O366 1.249 . S
C382 C376 1.516 . S
C383 O367 1.254 . S
C383 O368 1.257 . S
C384 O369 1.266 . S
C384 O370 1.236 . S
C385 C388 1.344 1_655 S
C385 C389 1.328 . S
C385 C391 1.516 1_665 S
C386 C387 1.304 . S
C386 C390 1.323 . S
C387 C386 1.304 . S
C387 C388 1.371 1_655 S
C387 H396 0.930 . S
C388 C385 1.344 1_455 S
C388 C387 1.371 1_455 S
C388 H397 0.931 . S
C389 C385 1.328 . S
C389 C390 1.433 . S
C389 H398 0.931 1_565 S
C390 C386 1.323 . S
C390 C389 1.433 . S
C390 H399 0.933 . S
C391 Dy361 2.738 . S
C391 O371 1.255 1_545 S
C391 O372 1.249 . S
C391 C385 1.516 1_445 S
H392 C378 0.930 . S
H393 C379 0.931 . S
H394 C380 0.931 . S
H395 C381 0.933 . S
H396 C387 0.930 . S
H397 C388 0.931 . S
H398 C389 0.931 1_545 S
H399 C390 0.933 . S
Dy400 O403 2.307 . S
Dy400 O405 2.395 . S
Dy400 O406 2.379 . S
Dy400 O408 2.339 . S
Dy400 O410 2.298 . S
Dy400 O414 2.275 . S
Dy400 C422 2.738 . S
Dy401 O404 2.298 . S
Dy401 O407 2.275 . S
Dy401 O409 2.307 . S
Dy401 O411 2.395 . S
Dy401 O412 2.379 . S
Dy401 O415 2.339 . S
Dy401 C431 2.738 . S
C402 O414 1.254 . S
C402 O415 1.257 . S
O403 Dy400 2.307 . S
O403 C413 1.266 . S
O404 Dy401 2.298 . S
O404 C413 1.236 . S
O405 Dy400 2.395 . S
O405 C422 1.255 . S
O406 Dy400 2.379 . S
O406 C422 1.249 . S
O407 Dy401 2.275 . S
O407 C423 1.254 . S
O408 Dy400 2.339 . S
O408 C423 1.257 . S
O409 Dy401 2.307 . S
O409 C424 1.266 . S
O410 Dy400 2.298 . S
O410 C424 1.236 . S
O411 Dy401 2.395 . S
O411 C431 1.255 . S
O412 Dy401 2.379 . S
O412 C431 1.249 . S
C413 O403 1.266 . S
C413 O404 1.236 . S
O414 Dy400 2.275 . S
O414 C402 1.254 . S
O415 Dy401 2.339 . S
O415 C402 1.257 . S
C416 C419 1.344 . S
C416 C420 1.328 . S
C416 C422 1.516 . S
C417 C418 1.304 . S
C417 C421 1.323 . S
C418 C417 1.304 . S
C418 C419 1.371 . S
C418 H432 0.930 . S
C419 C416 1.344 . S
C419 C418 1.371 . S
C419 H433 0.931 . S
C420 C416 1.328 . S
C420 C421 1.433 . S
C420 H434 0.931 . S
C421 C417 1.323 . S
C421 C420 1.433 . S
C421 H435 0.933 . S
C422 Dy400 2.738 . S
C422 O405 1.255 . S
C422 O406 1.249 . S
C422 C416 1.516 . S
C423 O407 1.254 . S
C423 O408 1.257 . S
C424 O409 1.266 . S
C424 O410 1.236 . S
C425 C428 1.344 . S
C425 C429 1.328 . S
C425 C431 1.516 . S
C426 C427 1.304 . S
C426 C430 1.323 . S
C427 C426 1.304 . S
C427 C428 1.371 . S
C427 H436 0.930 . S
C428 C425 1.344 . S
C428 C427 1.371 . S
C428 H437 0.931 . S
C429 C425 1.328 . S
C429 C430 1.433 . S
C429 H438 0.931 . S
C430 C426 1.323 . S
C430 C429 1.433 . S
C430 H439 0.933 . S
C431 Dy401 2.738 . S
C431 O411 1.255 . S
C431 O412 1.249 . S
C431 C425 1.516 . S
H432 C418 0.930 . S
H433 C419 0.931 . S
H434 C420 0.931 . S
H435 C421 0.933 . S
H436 C427 0.930 . S
H437 C428 0.931 . S
H438 C429 0.931 . S
H439 C430 0.933 . S
Dy440 O443 2.307 . S
Dy440 O445 2.395 . S
Dy440 O446 2.379 . S
Dy440 O448 2.339 . S
Dy440 O450 2.298 . S
Dy440 O454 2.275 . S
Dy440 C462 2.738 . S
Dy441 O444 2.298 . S
Dy441 O447 2.275 . S
Dy441 O449 2.307 . S
Dy441 O451 2.395 1_565 S
Dy441 O452 2.379 . S
Dy441 O455 2.339 . S
Dy441 C471 2.738 . S
C442 O454 1.254 . S
C442 O455 1.257 . S
O443 Dy440 2.307 . S
O443 C453 1.266 . S
O444 Dy441 2.298 . S
O444 C453 1.236 . S
O445 Dy440 2.395 . S
O445 C462 1.255 . S
O446 Dy440 2.379 . S
O446 C462 1.249 . S
O447 Dy441 2.275 . S
O447 C463 1.254 . S
O448 Dy440 2.339 . S
O448 C463 1.257 . S
O449 Dy441 2.307 . S
O449 C464 1.266 . S
O450 Dy440 2.298 . S
O450 C464 1.236 . S
O451 Dy441 2.395 1_545 S
O451 C471 1.255 1_545 S
O452 Dy441 2.379 . S
O452 C471 1.249 . S
C453 O443 1.266 . S
C453 O444 1.236 . S
O454 Dy440 2.275 . S
O454 C442 1.254 . S
O455 Dy441 2.339 . S
O455 C442 1.257 . S
C456 C459 1.344 . S
C456 C460 1.328 . S
C456 C462 1.516 . S
C457 C458 1.304 . S
C457 C461 1.323 . S
C458 C457 1.304 . S
C458 C459 1.371 . S
C458 H472 0.930 . S
C459 C456 1.344 . S
C459 C458 1.371 . S
C459 H473 0.931 . S
C460 C456 1.328 . S
C460 C461 1.433 . S
C460 H474 0.931 . S
C461 C457 1.323 . S
C461 C460 1.433 . S
C461 H475 0.933 . S
C462 Dy440 2.738 . S
C462 O445 1.255 . S
C462 O446 1.249 . S
C462 C456 1.516 . S
C463 O447 1.254 . S
C463 O448 1.257 . S
C464 O449 1.266 . S
C464 O450 1.236 . S
C465 C468 1.344 . S
C465 C469 1.328 . S
C465 C471 1.516 1_545 S
C466 C467 1.304 . S
C466 C470 1.323 . S
C467 C466 1.304 . S
C467 C468 1.371 . S
C467 H476 0.930 . S
C468 C465 1.344 . S
C468 C467 1.371 . S
C468 H477 0.931 . S
C469 C465 1.328 . S
C469 C470 1.433 . S
C469 H478 0.931 1_545 S
C470 C466 1.323 . S
C470 C469 1.433 . S
C470 H479 0.933 . S
C471 Dy441 2.738 . S
C471 O451 1.255 1_565 S
C471 O452 1.249 . S
C471 C465 1.516 1_565 S
H472 C458 0.930 . S
H473 C459 0.931 . S
H474 C460 0.931 . S
H475 C461 0.933 . S
H476 C467 0.930 . S
H477 C468 0.931 . S
H478 C469 0.931 1_565 S
H479 C470 0.933 . S
Dy480 O483 2.307 . S
Dy480 O485 2.395 . S
Dy480 O486 2.379 . S
Dy480 O488 2.339 . S
Dy480 O490 2.298 . S
Dy480 O494 2.275 . S
Dy480 C502 2.738 . S
Dy481 O484 2.298 . S
Dy481 O487 2.275 . S
Dy481 O489 2.307 . S
Dy481 O491 2.395 . S
Dy481 O492 2.379 . S
Dy481 O495 2.339 . S
Dy481 C511 2.738 . S
C482 O494 1.254 . S
C482 O495 1.257 . S
O483 Dy480 2.307 . S
O483 C493 1.266 . S
O484 Dy481 2.298 . S
O484 C493 1.236 . S
O485 Dy480 2.395 . S
O485 C502 1.255 . S
O486 Dy480 2.379 . S
O486 C502 1.249 . S
O487 Dy481 2.275 . S
O487 C503 1.254 . S
O488 Dy480 2.339 . S
O488 C503 1.257 . S
O489 Dy481 2.307 . S
O489 C504 1.266 . S
O490 Dy480 2.298 . S
O490 C504 1.236 . S
O491 Dy481 2.395 . S
O491 C511 1.255 . S
O492 Dy481 2.379 . S
O492 C511 1.249 . S
C493 O483 1.266 . S
C493 O484 1.236 . S
O494 Dy480 2.275 . S
O494 C482 1.254 . S
O495 Dy481 2.339 . S
O495 C482 1.257 . S
C496 C499 1.344 . S
C496 C500 1.328 . S
C496 C502 1.516 . S
C497 C498 1.304 . S
C497 C501 1.323 . S
C498 C497 1.304 . S
C498 C499 1.371 . S
C498 H512 0.930 . S
C499 C496 1.344 . S
C499 C498 1.371 . S
C499 H513 0.931 . S
C500 C496 1.328 . S
C500 C501 1.433 . S
C500 H514 0.931 . S
C501 C497 1.323 . S
C501 C500 1.433 . S
C501 H515 0.933 . S
C502 Dy480 2.738 . S
C502 O485 1.255 . S
C502 O486 1.249 . S
C502 C496 1.516 . S
C503 O487 1.254 . S
C503 O488 1.257 . S
C504 O489 1.266 . S
C504 O490 1.236 . S
C505 C508 1.344 . S
C505 C509 1.328 . S
C505 C511 1.516 . S
C506 C507 1.304 . S
C506 C510 1.323 . S
C507 C506 1.304 . S
C507 C508 1.371 . S
C507 H516 0.930 . S
C508 C505 1.344 . S
C508 C507 1.371 . S
C508 H517 0.931 . S
C509 C505 1.328 . S
C509 C510 1.433 . S
C509 H518 0.931 . S
C510 C506 1.323 . S
C510 C509 1.433 . S
C510 H519 0.933 . S
C511 Dy481 2.738 . S
C511 O491 1.255 . S
C511 O492 1.249 . S
C511 C505 1.516 . S
H512 C498 0.930 . S
H513 C499 0.931 . S
H514 C500 0.931 . S
H515 C501 0.933 . S
H516 C507 0.930 . S
H517 C508 0.931 . S
H518 C509 0.931 . S
H519 C510 0.933 . S
Dy520 O523 2.307 . S
Dy520 O525 2.395 1_565 S
Dy520 O526 2.379 . S
Dy520 O528 2.339 . S
Dy520 O530 2.298 . S
Dy520 O534 2.275 . S
Dy520 C542 2.738 . S
Dy521 O524 2.298 . S
Dy521 O527 2.275 . S
Dy521 O529 2.307 . S
Dy521 O531 2.395 . S
Dy521 O532 2.379 . S
Dy521 O535 2.339 . S
Dy521 C551 2.738 . S
C522 O534 1.254 . S
C522 O535 1.257 . S
O523 Dy520 2.307 . S
O523 C533 1.266 . S
O524 Dy521 2.298 . S
O524 C533 1.236 . S
O525 Dy520 2.395 1_545 S
O525 C542 1.255 1_545 S
O526 Dy520 2.379 . S
O526 C542 1.249 . S
O527 Dy521 2.275 . S
O527 C543 1.254 . S
O528 Dy520 2.339 . S
O528 C543 1.257 . S
O529 Dy521 2.307 . S
O529 C544 1.266 . S
O530 Dy520 2.298 . S
O530 C544 1.236 . S
O531 Dy521 2.395 . S
O531 C551 1.255 . S
O532 Dy521 2.379 . S
O532 C551 1.249 . S
C533 O523 1.266 . S
C533 O524 1.236 . S
O534 Dy520 2.275 . S
O534 C522 1.254 . S
O535 Dy521 2.339 . S
O535 C522 1.257 . S
C536 C539 1.344 1_455 S
C536 C540 1.328 . S
C536 C542 1.516 1_445 S
C537 C538 1.304 . S
C537 C541 1.323 . S
C538 C537 1.304 . S
C538 C539 1.371 1_455 S
C538 H552 0.930 . S
C539 C536 1.344 1_655 S
C539 C538 1.371 1_655 S
C539 H553 0.931 . S
C540 C536 1.328 . S
C540 C541 1.433 . S
C540 H554 0.931 1_545 S
C541 C537 1.323 . S
C541 C540 1.433 . S
C541 H555 0.933 . S
C542 Dy520 2.738 . S
C542 O525 1.255 1_565 S
C542 O526 1.249 . S
C542 C536 1.516 1_665 S
C543 O527 1.254 . S
C543 O528 1.257 . S
C544 O529 1.266 . S
C544 O530 1.236 . S
C545 C548 1.344 . S
C545 C549 1.328 . S
C545 C551 1.516 . S
C546 C547 1.304 . S
C546 C550 1.323 . S
C547 C546 1.304 . S
C547 C548 1.371 . S
C547 H556 0.930 . S
C548 C545 1.344 . S
C548 C547 1.371 . S
C548 H557 0.931 . S
C549 C545 1.328 . S
C549 C550 1.433 . S
C549 H558 0.931 . S
C550 C546 1.323 . S
C550 C549 1.433 . S
C550 H559 0.933 . S
C551 Dy521 2.738 . S
C551 O531 1.255 . S
C551 O532 1.249 . S
C551 C545 1.516 . S
H552 C538 0.930 . S
H553 C539 0.931 . S
H554 C540 0.931 1_565 S
H555 C541 0.933 . S
H556 C547 0.930 . S
H557 C548 0.931 . S
H558 C549 0.931 . S
H559 C550 0.933 . S
Dy560 O563 2.307 . S
Dy560 O565 2.395 . S
Dy560 O566 2.379 . S
Dy560 O568 2.339 . S
Dy560 O570 2.298 . S
Dy560 O574 2.275 . S
Dy560 C582 2.738 . S
Dy561 O564 2.298 . S
Dy561 O567 2.275 . S
Dy561 O569 2.307 . S
Dy561 O571 2.395 . S
Dy561 O572 2.379 . S
Dy561 O575 2.339 . S
Dy561 C591 2.738 . S
C562 O574 1.254 . S
C562 O575 1.257 . S
O563 Dy560 2.307 . S
O563 C573 1.266 . S
O564 Dy561 2.298 . S
O564 C573 1.236 . S
O565 Dy560 2.395 . S
O565 C582 1.255 . S
O566 Dy560 2.379 . S
O566 C582 1.249 . S
O567 Dy561 2.275 . S
O567 C583 1.254 . S
O568 Dy560 2.339 . S
O568 C583 1.257 . S
O569 Dy561 2.307 . S
O569 C584 1.266 . S
O570 Dy560 2.298 . S
O570 C584 1.236 . S
O571 Dy561 2.395 . S
O571 C591 1.255 . S
O572 Dy561 2.379 . S
O572 C591 1.249 . S
C573 O563 1.266 . S
C573 O564 1.236 . S
O574 Dy560 2.275 . S
O574 C562 1.254 . S
O575 Dy561 2.339 . S
O575 C562 1.257 . S
C576 C579 1.344 . S
C576 C580 1.328 . S
C576 C582 1.516 . S
C577 C578 1.304 . S
C577 C581 1.323 . S
C578 C577 1.304 . S
C578 C579 1.371 . S
C578 H592 0.930 . S
C579 C576 1.344 . S
C579 C578 1.371 . S
C579 H593 0.931 . S
C580 C576 1.328 . S
C580 C581 1.433 . S
C580 H594 0.931 . S
C581 C577 1.323 . S
C581 C580 1.433 . S
C581 H595 0.933 . S
C582 Dy560 2.738 . S
C582 O565 1.255 . S
C582 O566 1.249 . S
C582 C576 1.516 . S
C583 O567 1.254 . S
C583 O568 1.257 . S
C584 O569 1.266 . S
C584 O570 1.236 . S
C585 C588 1.344 . S
C585 C589 1.328 . S
C585 C591 1.516 . S
C586 C587 1.304 . S
C586 C590 1.323 . S
C587 C586 1.304 . S
C587 C588 1.371 . S
C587 H596 0.930 . S
C588 C585 1.344 . S
C588 C587 1.371 . S
C588 H597 0.931 . S
C589 C585 1.328 . S
C589 C590 1.433 . S
C589 H598 0.931 . S
C590 C586 1.323 . S
C590 C589 1.433 . S
C590 H599 0.933 . S
C591 Dy561 2.738 . S
C591 O571 1.255 . S
C591 O572 1.249 . S
C591 C585 1.516 . S
H592 C578 0.930 . S
H593 C579 0.931 . S
H594 C580 0.931 . S
H595 C581 0.933 . S
H596 C587 0.930 . S
H597 C588 0.931 . S
H598 C589 0.931 . S
H599 C590 0.933 . S
Dy600 O603 2.307 . S
Dy600 O605 2.395 1_545 S
Dy600 O606 2.379 . S
Dy600 O608 2.339 . S
Dy600 O610 2.298 . S
Dy600 O614 2.275 . S
Dy600 C622 2.738 . S
Dy601 O604 2.298 . S
Dy601 O607 2.275 . S
Dy601 O609 2.307 . S
Dy601 O611 2.395 . S
Dy601 O612 2.379 . S
Dy601 O615 2.339 . S
Dy601 C631 2.738 . S
C602 O614 1.254 . S
C602 O615 1.257 . S
O603 Dy600 2.307 . S
O603 C613 1.266 . S
O604 Dy601 2.298 . S
O604 C613 1.236 . S
O605 Dy600 2.395 1_565 S
O605 C622 1.255 1_565 S
O606 Dy600 2.379 . S
O606 C622 1.249 . S
O607 Dy601 2.275 . S
O607 C623 1.254 . S
O608 Dy600 2.339 . S
O608 C623 1.257 . S
O609 Dy601 2.307 . S
O609 C624 1.266 . S
O610 Dy600 2.298 . S
O610 C624 1.236 . S
O611 Dy601 2.395 . S
O611 C631 1.255 . S
O612 Dy601 2.379 . S
O612 C631 1.249 . S
C613 O603 1.266 . S
C613 O604 1.236 . S
O614 Dy600 2.275 . S
O614 C602 1.254 . S
O615 Dy601 2.339 . S
O615 C602 1.257 . S
C616 C619 1.344 . S
C616 C620 1.328 . S
C616 C622 1.516 1_565 S
C617 C618 1.304 . S
C617 C621 1.323 . S
C618 C617 1.304 . S
C618 C619 1.371 . S
C618 H632 0.930 . S
C619 C616 1.344 . S
C619 C618 1.371 . S
C619 H633 0.931 . S
C620 C616 1.328 . S
C620 C621 1.433 . S
C620 H634 0.931 1_565 S
C621 C617 1.323 . S
C621 C620 1.433 . S
C621 H635 0.933 . S
C622 Dy600 2.738 . S
C622 O605 1.255 1_545 S
C622 O606 1.249 . S
C622 C616 1.516 1_545 S
C623 O607 1.254 . S
C623 O608 1.257 . S
C624 O609 1.266 . S
C624 O610 1.236 . S
C625 C628 1.344 . S
C625 C629 1.328 . S
C625 C631 1.516 . S
C626 C627 1.304 . S
C626 C630 1.323 . S
C627 C626 1.304 . S
C627 C628 1.371 . S
C627 H636 0.930 . S
C628 C625 1.344 . S
C628 C627 1.371 . S
C628 H637 0.931 . S
C629 C625 1.328 . S
C629 C630 1.433 . S
C629 H638 0.931 . S
C630 C626 1.323 . S
C630 C629 1.433 . S
C630 H639 0.933 . S
C631 Dy601 2.738 . S
C631 O611 1.255 . S
C631 O612 1.249 . S
C631 C625 1.516 . S
H632 C618 0.930 . S
H633 C619 0.931 . S
H634 C620 0.931 1_545 S
H635 C621 0.933 . S
H636 C627 0.930 . S
H637 C628 0.931 . S
H638 C629 0.931 . S
H639 C630 0.933 . S
H640 C648 0.950 . S
H641 C653 0.950 . S
H642 C650 0.950 . S
H643 C652 0.950 . S
H644 C654 0.950 . S
H645 C656 0.950 . S
H646 C658 0.950 . S
H647 C659 0.950 . S
C648 H640 0.950 . S
C648 C649 1.386 . S
C648 C650 1.391 . S
C649 C648 1.386 . S
C649 C653 1.393 . S
C650 H642 0.950 . S
C650 C648 1.391 . S
C650 C651 1.400 . S
C651 C650 1.400 . S
C651 C652 1.398 . S
C651 C657 1.491 . S
C652 H643 0.950 . S
C652 C651 1.398 . S
C652 C653 1.391 . S
C653 H641 0.950 . S
C653 C649 1.393 . S
C653 C652 1.391 . S
C654 H644 0.950 . S
C654 C655 1.386 . S
C654 C656 1.391 . S
C655 C654 1.386 . S
C655 C659 1.393 . S
C656 H645 0.950 . S
C656 C654 1.391 . S
C656 C657 1.400 . S
C657 C651 1.491 . S
C657 C656 1.400 . S
C657 C658 1.398 . S
C658 H646 0.950 . S
C658 C657 1.398 . S
C658 C659 1.391 . S
C659 H647 0.950 . S
C659 C655 1.393 . S
C659 C658 1.391 . S
H660 C668 0.950 . S
H661 C673 0.950 . S
H662 C670 0.950 . S
H663 C672 0.950 . S
H664 C674 0.950 . S
H665 C676 0.950 . S
H666 C678 0.950 . S
H667 C679 0.950 . S
C668 H660 0.950 . S
C668 C669 1.386 . S
C668 C670 1.391 . S
C669 C668 1.386 . S
C669 C673 1.393 . S
C670 H662 0.950 . S
C670 C668 1.391 . S
C670 C671 1.400 . S
C671 C670 1.400 . S
C671 C672 1.398 . S
C671 C677 1.491 . S
C672 H663 0.950 . S
C672 C671 1.398 . S
C672 C673 1.391 . S
C673 H661 0.950 . S
C673 C669 1.393 . S
C673 C672 1.391 . S
C674 H664 0.950 . S
C674 C675 1.386 . S
C674 C676 1.391 . S
C675 C674 1.386 . S
C675 C679 1.393 . S
C676 H665 0.950 . S
C676 C674 1.391 . S
C676 C677 1.400 . S
C677 C671 1.491 . S
C677 C676 1.400 . S
C677 C678 1.398 . S
C678 H666 0.950 . S
C678 C677 1.398 . S
C678 C679 1.391 . S
C679 H667 0.950 . S
C679 C675 1.393 . S
C679 C678 1.391 . S
H680 C688 0.950 . S
H681 C693 0.950 . S
H682 C690 0.950 . S
H683 C692 0.950 . S
H684 C694 0.950 . S
H685 C696 0.950 . S
H686 C698 0.950 . S
H687 C699 0.950 . S
C688 H680 0.950 . S
C688 C689 1.386 . S
C688 C690 1.391 . S
C689 C688 1.386 . S
C689 C693 1.393 . S
C690 H682 0.950 . S
C690 C688 1.391 . S
C690 C691 1.400 . S
C691 C690 1.400 . S
C691 C692 1.398 . S
C691 C697 1.491 1_455 S
C692 H683 0.950 . S
C692 C691 1.398 . S
C692 C693 1.391 . S
C693 H681 0.950 . S
C693 C689 1.393 . S
C693 C692 1.391 . S
C694 H684 0.950 . S
C694 C695 1.386 . S
C694 C696 1.391 . S
C695 C694 1.386 . S
C695 C699 1.393 . S
C696 H685 0.950 . S
C696 C694 1.391 . S
C696 C697 1.400 . S
C697 C691 1.491 1_655 S
C697 C696 1.400 . S
C697 C698 1.398 . S
C698 H686 0.950 . S
C698 C697 1.398 . S
C698 C699 1.391 . S
C699 H687 0.950 . S
C699 C695 1.393 . S
C699 C698 1.391 . S
H700 C708 0.950 1_655 S
H701 C713 0.950 . S
H702 C710 0.950 . S
H703 C712 0.950 . S
H704 C714 0.950 1_455 S
H705 C716 0.950 . S
H706 C718 0.950 . S
H707 C719 0.950 . S
C708 H700 0.950 1_455 S
C708 C709 1.386 . S
C708 C710 1.391 1_455 S
C709 C708 1.386 . S
C709 C713 1.393 . S
C710 H702 0.950 . S
C710 C708 1.391 1_655 S
C710 C711 1.400 1_655 S
C711 C710 1.400 1_455 S
C711 C712 1.398 . S
C711 C717 1.491 1_455 S
C712 H703 0.950 . S
C712 C711 1.398 . S
C712 C713 1.391 . S
C713 H701 0.950 . S
C713 C709 1.393 . S
C713 C712 1.391 . S
C714 H704 0.950 1_655 S
C714 C715 1.386 . S
C714 C716 1.391 1_655 S
C715 C714 1.386 . S
C715 C719 1.393 . S
C716 H705 0.950 . S
C716 C714 1.391 1_455 S
C716 C717 1.400 1_455 S
C717 C711 1.491 1_655 S
C717 C716 1.400 1_655 S
C717 C718 1.398 . S
C718 H706 0.950 . S
C718 C717 1.398 . S
C718 C719 1.391 . S
C719 H707 0.950 . S
C719 C715 1.393 . S
C719 C718 1.391 . S
H720 C728 0.950 . S
H721 C733 0.950 . S
H722 C730 0.950 . S
H723 C732 0.950 . S
H724 C734 0.950 . S
H725 C736 0.950 . S
H726 C738 0.950 . S
H727 C739 0.950 . S
C728 H720 0.950 . S
C728 C729 1.386 . S
C728 C730 1.391 . S
C729 C728 1.386 . S
C729 C733 1.393 . S
C730 H722 0.950 . S
C730 C728 1.391 . S
C730 C731 1.400 . S
C731 C730 1.400 . S
C731 C732 1.398 . S
C731 C737 1.491 . S
C732 H723 0.950 . S
C732 C731 1.398 . S
C732 C733 1.391 . S
C733 H721 0.950 . S
C733 C729 1.393 . S
C733 C732 1.391 . S
C734 H724 0.950 . S
C734 C735 1.386 . S
C734 C736 1.391 . S
C735 C734 1.386 . S
C735 C739 1.393 . S
C736 H725 0.950 . S
C736 C734 1.391 . S
C736 C737 1.400 . S
C737 C731 1.491 . S
C737 C736 1.400 . S
C737 C738 1.398 . S
C738 H726 0.950 . S
C738 C737 1.398 . S
C738 C739 1.391 . S
C739 H727 0.950 . S
C739 C735 1.393 . S
C739 C738 1.391 . S
H740 C748 0.950 . S
H741 C753 0.950 . S
H742 C750 0.950 . S
H743 C752 0.950 . S
H744 C754 0.950 . S
H745 C756 0.950 . S
H746 C758 0.950 . S
H747 C759 0.950 . S
C748 H740 0.950 . S
C748 C749 1.386 . S
C748 C750 1.391 . S
C749 C748 1.386 . S
C749 C753 1.393 . S
C750 H742 0.950 . S
C750 C748 1.391 . S
C750 C751 1.400 . S
C751 C750 1.400 . S
C751 C752 1.398 . S
C751 C757 1.491 . S
C752 H743 0.950 . S
C752 C751 1.398 . S
C752 C753 1.391 . S
C753 H741 0.950 . S
C753 C749 1.393 . S
C753 C752 1.391 . S
C754 H744 0.950 . S
C754 C755 1.386 . S
C754 C756 1.391 . S
C755 C754 1.386 . S
C755 C759 1.393 . S
C756 H745 0.950 . S
C756 C754 1.391 . S
C756 C757 1.400 . S
C757 C751 1.491 . S
C757 C756 1.400 . S
C757 C758 1.398 . S
C758 H746 0.950 . S
C758 C757 1.398 . S
C758 C759 1.391 . S
C759 H747 0.950 . S
C759 C755 1.393 . S
C759 C758 1.391 . S
H760 C768 0.950 . S
H761 C773 0.950 . S
H762 C770 0.950 . S
H763 C772 0.950 . S
H764 C774 0.950 . S
H765 C776 0.950 . S
H766 C778 0.950 . S
H767 C779 0.950 . S
C768 H760 0.950 . S
C768 C769 1.386 . S
C768 C770 1.391 . S
C769 C768 1.386 . S
C769 C773 1.393 . S
C770 H762 0.950 . S
C770 C768 1.391 . S
C770 C771 1.400 . S
C771 C770 1.400 . S
C771 C772 1.398 . S
C771 C777 1.491 1_455 S
C772 H763 0.950 . S
C772 C771 1.398 . S
C772 C773 1.391 . S
C773 H761 0.950 . S
C773 C769 1.393 . S
C773 C772 1.391 . S
C774 H764 0.950 . S
C774 C775 1.386 . S
C774 C776 1.391 . S
C775 C774 1.386 . S
C775 C779 1.393 . S
C776 H765 0.950 . S
C776 C774 1.391 . S
C776 C777 1.400 . S
C777 C771 1.491 1_655 S
C777 C776 1.400 . S
C777 C778 1.398 . S
C778 H766 0.950 . S
C778 C777 1.398 . S
C778 C779 1.391 . S
C779 H767 0.950 . S
C779 C775 1.393 . S
C779 C778 1.391 . S
H780 C788 0.950 . S
H781 C793 0.950 1_655 S
H782 C790 0.950 . S
H783 C792 0.950 . S
H784 C794 0.950 . S
H785 C796 0.950 . S
H786 C798 0.950 . S
H787 C799 0.950 1_455 S
C788 H780 0.950 . S
C788 C789 1.386 . S
C788 C790 1.391 . S
C789 C788 1.386 . S
C789 C793 1.393 . S
C790 H782 0.950 . S
C790 C788 1.391 . S
C790 C791 1.400 . S
C791 C790 1.400 . S
C791 C792 1.398 1_455 S
C791 C797 1.491 1_455 S
C792 H783 0.950 . S
C792 C791 1.398 1_655 S
C792 C793 1.391 1_655 S
C793 H781 0.950 1_455 S
C793 C789 1.393 . S
C793 C792 1.391 1_455 S
C794 H784 0.950 . S
C794 C795 1.386 . S
C794 C796 1.391 . S
C795 C794 1.386 . S
C795 C799 1.393 . S
C796 H785 0.950 . S
C796 C794 1.391 . S
C796 C797 1.400 . S
C797 C791 1.491 1_655 S
C797 C796 1.400 . S
C797 C798 1.398 1_655 S
C798 H786 0.950 . S
C798 C797 1.398 1_455 S
C798 C799 1.391 1_455 S
C799 H787 0.950 1_655 S
C799 C795 1.393 . S
C799 C798 1.391 1_655 S
H800 C808 0.950 . S
H801 C813 0.941 1_556 S
H802 C810 0.950 . S
H803 C812 0.950 . S
H804 C814 0.950 . S
H805 C816 0.950 . S
H806 C818 0.950 . S
H807 C819 0.941 1_554 S
C808 H800 0.950 . S
C808 C809 1.386 . S
C808 C810 1.391 . S
C809 C808 1.386 . S
C809 C813 1.393 1_565 S
C810 H802 0.950 . S
C810 C808 1.391 . S
C810 C811 1.400 . S
C811 C810 1.400 . S
C811 C812 1.398 1_564 S
C811 C817 1.491 1_564 S
C812 H803 0.950 . S
C812 C811 1.398 1_546 S
C812 C813 1.391 1_556 S
C813 H801 0.941 1_554 S
C813 C809 1.393 1_545 S
C813 C812 1.391 1_554 S
C814 H804 0.950 . S
C814 C815 1.386 . S
C814 C816 1.391 . S
C815 C814 1.386 . S
C815 C819 1.393 1_545 S
C816 H805 0.950 . S
C816 C814 1.391 . S
C816 C817 1.400 . S
C817 C811 1.491 1_546 S
C817 C816 1.400 . S
C817 C818 1.398 1_546 S
C818 H806 0.950 . S
C818 C817 1.398 1_564 S
C818 C819 1.391 1_554 S
C819 H807 0.941 1_556 S
C819 C815 1.393 1_565 S
C819 C818 1.391 1_556 S
H820 C828 0.950 . S
H821 C833 0.950 . S
H822 C830 0.950 . S
H823 C832 0.950 . S
H824 C834 0.950 . S
H825 C836 0.950 . S
H826 C838 0.950 . S
H827 C839 0.950 . S
C828 H820 0.950 . S
C828 C829 1.386 . S
C828 C830 1.391 . S
C829 C828 1.386 . S
C829 C833 1.393 . S
C830 H822 0.950 . S
C830 C828 1.391 . S
C830 C831 1.400 . S
C831 C830 1.400 . S
C831 C832 1.398 . S
C831 C837 1.491 . S
C832 H823 0.950 . S
C832 C831 1.398 . S
C832 C833 1.391 . S
C833 H821 0.950 . S
C833 C829 1.393 . S
C833 C832 1.391 . S
C834 H824 0.950 . S
C834 C835 1.386 . S
C834 C836 1.391 . S
C835 C834 1.386 . S
C835 C839 1.393 . S
C836 H825 0.950 . S
C836 C834 1.391 . S
C836 C837 1.400 . S
C837 C831 1.491 . S
C837 C836 1.400 . S
C837 C838 1.398 . S
C838 H826 0.950 . S
C838 C837 1.398 . S
C838 C839 1.391 . S
C839 H827 0.950 . S
C839 C835 1.393 . S
C839 C838 1.391 . S
H840 C848 0.953 . S
H841 C853 0.950 . S
H842 C850 0.950 . S
H843 C852 0.950 . S
H844 C854 0.953 . S
H845 C856 0.950 . S
H846 C858 0.950 . S
H847 C859 0.950 . S
C848 H840 0.953 . S
C848 C849 1.380 1_565 S
C848 C850 1.393 . S
C849 C848 1.380 1_545 S
C849 C853 1.393 . S
C850 H842 0.950 . S
C850 C848 1.393 . S
C850 C851 1.400 1_565 S
C851 C850 1.400 1_545 S
C851 C852 1.398 . S
C851 C857 1.491 1_445 S
C852 H843 0.950 . S
C852 C851 1.398 . S
C852 C853 1.391 . S
C853 H841 0.950 . S
C853 C849 1.393 . S
C853 C852 1.391 . S
C854 H844 0.953 . S
C854 C855 1.380 1_545 S
C854 C856 1.393 . S
C855 C854 1.380 1_565 S
C855 C859 1.393 . S
C856 H845 0.950 . S
C856 C854 1.393 . S
C856 C857 1.400 1_545 S
C857 C851 1.491 1_665 S
C857 C856 1.400 1_565 S
C857 C858 1.398 . S
C858 H846 0.950 . S
C858 C857 1.398 . S
C858 C859 1.391 . S
C859 H847 0.950 . S
C859 C855 1.393 . S
C859 C858 1.391 . S
H860 C868 0.950 . S
H861 C873 0.950 . S
H862 C870 0.950 . S
H863 C872 0.950 . S
H864 C874 0.950 . S
H865 C876 0.950 . S
H866 C878 0.950 . S
H867 C879 0.950 . S
C868 H860 0.950 . S
C868 C869 1.386 . S
C868 C870 1.391 . S
C869 C868 1.386 . S
C869 C873 1.393 . S
C870 H862 0.950 . S
C870 C868 1.391 . S
C870 C871 1.400 . S
C871 C870 1.400 . S
C871 C872 1.398 . S
C871 C877 1.491 . S
C872 H863 0.950 . S
C872 C871 1.398 . S
C872 C873 1.391 . S
C873 H861 0.950 . S
C873 C869 1.393 . S
C873 C872 1.391 . S
C874 H864 0.950 . S
C874 C875 1.386 . S
C874 C876 1.391 . S
C875 C874 1.386 . S
C875 C879 1.393 . S
C876 H865 0.950 . S
C876 C874 1.391 . S
C876 C877 1.400 . S
C877 C871 1.491 . S
C877 C876 1.400 . S
C877 C878 1.398 . S
C878 H866 0.950 . S
C878 C877 1.398 . S
C878 C879 1.391 . S
C879 H867 0.950 . S
C879 C875 1.393 . S
C879 C878 1.391 . S
H880 C888 0.950 . S
H881 C893 0.950 . S
H882 C890 0.950 . S
H883 C892 0.950 . S
H884 C894 0.950 . S
H885 C896 0.950 . S
H886 C898 0.950 . S
H887 C899 0.950 . S
C888 H880 0.950 . S
C888 C889 1.386 . S
C888 C890 1.391 . S
C889 C888 1.386 . S
C889 C893 1.393 . S
C890 H882 0.950 . S
C890 C888 1.391 . S
C890 C891 1.400 . S
C891 C890 1.400 . S
C891 C892 1.398 . S
C891 C897 1.491 . S
C892 H883 0.950 . S
C892 C891 1.398 . S
C892 C893 1.391 . S
C893 H881 0.950 . S
C893 C889 1.393 . S
C893 C892 1.391 . S
C894 H884 0.950 . S
C894 C895 1.386 . S
C894 C896 1.391 . S
C895 C894 1.386 . S
C895 C899 1.393 . S
C896 H885 0.950 . S
C896 C894 1.391 . S
C896 C897 1.400 . S
C897 C891 1.491 . S
C897 C896 1.400 . S
C897 C898 1.398 . S
C898 H886 0.950 . S
C898 C897 1.398 . S
C898 C899 1.391 . S
C899 H887 0.950 . S
C899 C895 1.393 . S
C899 C898 1.391 . S
H900 C908 0.950 . S
H901 C913 0.950 . S
H902 C910 0.950 . S
H903 C912 0.950 . S
H904 C914 0.950 . S
H905 C916 0.950 . S
H906 C918 0.950 . S
H907 C919 0.950 . S
C908 H900 0.950 . S
C908 C909 1.386 . S
C908 C910 1.391 . S
C909 C908 1.386 . S
C909 C913 1.393 . S
C910 H902 0.950 . S
C910 C908 1.391 . S
C910 C911 1.400 . S
C911 C910 1.400 . S
C911 C912 1.398 . S
C911 C917 1.491 . S
C912 H903 0.950 . S
C912 C911 1.398 . S
C912 C913 1.391 . S
C913 H901 0.950 . S
C913 C909 1.393 . S
C913 C912 1.391 . S
C914 H904 0.950 . S
C914 C915 1.386 . S
C914 C916 1.391 . S
C915 C914 1.386 . S
C915 C919 1.393 . S
C916 H905 0.950 . S
C916 C914 1.391 . S
C916 C917 1.400 . S
C917 C911 1.491 . S
C917 C916 1.400 . S
C917 C918 1.398 . S
C918 H906 0.950 . S
C918 C917 1.398 . S
C918 C919 1.391 . S
C919 H907 0.950 . S
C919 C915 1.393 . S
C919 C918 1.391 . S
H920 C928 0.950 . S
H921 C933 0.950 . S
H922 C930 0.950 . S
H923 C932 0.950 . S
H924 C934 0.950 . S
H925 C936 0.950 . S
H926 C938 0.950 . S
H927 C939 0.950 . S
C928 H920 0.950 . S
C928 C929 1.386 . S
C928 C930 1.391 . S
C929 C928 1.386 . S
C929 C933 1.393 . S
C930 H922 0.950 . S
C930 C928 1.391 . S
C930 C931 1.400 . S
C931 C930 1.400 . S
C931 C932 1.398 . S
C931 C937 1.491 1_455 S
C932 H923 0.950 . S
C932 C931 1.398 . S
C932 C933 1.391 . S
C933 H921 0.950 . S
C933 C929 1.393 . S
C933 C932 1.391 . S
C934 H924 0.950 . S
C934 C935 1.386 . S
C934 C936 1.391 . S
C935 C934 1.386 . S
C935 C939 1.393 . S
C936 H925 0.950 . S
C936 C934 1.391 . S
C936 C937 1.400 . S
C937 C931 1.491 1_655 S
C937 C936 1.400 . S
C937 C938 1.398 . S
C938 H926 0.950 . S
C938 C937 1.398 . S
C938 C939 1.391 . S
C939 H927 0.950 . S
C939 C935 1.393 . S
C939 C938 1.391 . S
H940 C948 0.950 . S
H941 C953 0.943 1_556 S
H942 C950 0.950 . S
H943 C952 0.950 . S
H944 C954 0.950 . S
H945 C956 0.950 . S
H946 C958 0.950 . S
H947 C959 0.943 1_554 S
C948 H940 0.950 . S
C948 C949 1.386 . S
C948 C950 1.391 . S
C949 C948 1.386 . S
C949 C953 1.405 . S
C950 H942 0.950 . S
C950 C948 1.391 . S
C950 C951 1.400 . S
C951 C950 1.400 . S
C951 C952 1.398 1_554 S
C951 C957 1.491 1_554 S
C952 H943 0.950 . S
C952 C951 1.398 1_556 S
C952 C953 1.385 1_556 S
C953 H941 0.943 1_554 S
C953 C949 1.405 . S
C953 C952 1.385 1_554 S
C954 H944 0.950 . S
C954 C955 1.386 . S
C954 C956 1.391 . S
C955 C954 1.386 . S
C955 C959 1.405 . S
C956 H945 0.950 . S
C956 C954 1.391 . S
C956 C957 1.400 . S
C957 C951 1.491 1_556 S
C957 C956 1.400 . S
C957 C958 1.398 1_556 S
C958 H946 0.950 . S
C958 C957 1.398 1_554 S
C958 C959 1.385 1_554 S
C959 H947 0.943 1_556 S
C959 C955 1.405 . S
C959 C958 1.385 1_556 S
H960 C968 0.950 . S
H961 C973 0.950 . S
H962 C970 0.950 . S
H963 C972 0.950 . S
H964 C974 0.950 . S
H965 C976 0.950 . S
H966 C978 0.950 . S
H967 C979 0.950 . S
C968 H960 0.950 . S
C968 C969 1.386 . S
C968 C970 1.391 . S
C969 C968 1.386 . S
C969 C973 1.393 . S
C970 H962 0.950 . S
C970 C968 1.391 . S
C970 C971 1.400 . S
C971 C970 1.400 . S
C971 C972 1.398 . S
C971 C977 1.491 . S
C972 H963 0.950 . S
C972 C971 1.398 . S
C972 C973 1.391 . S
C973 H961 0.950 . S
C973 C969 1.393 . S
C973 C972 1.391 . S
C974 H964 0.950 . S
C974 C975 1.386 . S
C974 C976 1.391 . S
C975 C974 1.386 . S
C975 C979 1.393 . S
C976 H965 0.950 . S
C976 C974 1.391 . S
C976 C977 1.400 . S
C977 C971 1.491 . S
C977 C976 1.400 . S
C977 C978 1.398 . S
C978 H966 0.950 . S
C978 C977 1.398 . S
C978 C979 1.391 . S
C979 H967 0.950 . S
C979 C975 1.393 . S
C979 C978 1.391 . S
H980 C988 0.950 . S
H981 C993 0.950 . S
H982 C990 0.950 . S
H983 C992 0.950 . S
H984 C994 0.950 . S
H985 C996 0.950 . S
H986 C998 0.950 . S
H987 C999 0.950 . S
C988 H980 0.950 . S
C988 C989 1.386 . S
C988 C990 1.391 . S
C989 C988 1.386 . S
C989 C993 1.393 . S
C990 H982 0.950 . S
C990 C988 1.391 . S
C990 C991 1.400 . S
C991 C990 1.400 . S
C991 C992 1.398 . S
C991 C997 1.491 . S
C992 H983 0.950 . S
C992 C991 1.398 . S
C992 C993 1.391 . S
C993 H981 0.950 . S
C993 C989 1.393 . S
C993 C992 1.391 . S
C994 H984 0.950 . S
C994 C995 1.386 . S
C994 C996 1.391 . S
C995 C994 1.386 . S
C995 C999 1.393 . S
C996 H985 0.950 . S
C996 C994 1.391 . S
C996 C997 1.400 . S
C997 C991 1.491 . S
C997 C996 1.400 . S
C997 C998 1.398 . S
C998 H986 0.950 . S
C998 C997 1.398 . S
C998 C999 1.391 . S
C999 H987 0.950 . S
C999 C995 1.393 . S
C999 C998 1.391 . S
H1000 C1008 0.950 . S
H1001 C1013 0.950 . S
H1002 C1010 0.950 . S
H1003 C1012 0.950 . S
H1004 C1014 0.950 . S
H1005 C1016 0.950 . S
H1006 C1018 0.950 . S
H1007 C1019 0.950 . S
C1008 H1000 0.950 . S
C1008 C1009 1.386 . S
C1008 C1010 1.391 . S
C1009 C1008 1.386 . S
C1009 C1013 1.393 . S
C1010 H1002 0.950 . S
C1010 C1008 1.391 . S
C1010 C1011 1.400 . S
C1011 C1010 1.400 . S
C1011 C1012 1.398 . S
C1011 C1017 1.491 . S
C1012 H1003 0.950 . S
C1012 C1011 1.398 . S
C1012 C1013 1.391 . S
C1013 H1001 0.950 . S
C1013 C1009 1.393 . S
C1013 C1012 1.391 . S
C1014 H1004 0.950 . S
C1014 C1015 1.386 . S
C1014 C1016 1.391 . S
C1015 C1014 1.386 . S
C1015 C1019 1.393 . S
C1016 H1005 0.950 . S
C1016 C1014 1.391 . S
C1016 C1017 1.400 . S
C1017 C1011 1.491 . S
C1017 C1016 1.400 . S
C1017 C1018 1.398 . S
C1018 H1006 0.950 . S
C1018 C1017 1.398 . S
C1018 C1019 1.391 . S
C1019 H1007 0.950 . S
C1019 C1015 1.393 . S
C1019 C1018 1.391 . S
H1020 C1028 0.950 . S
H1021 C1033 0.950 . S
H1022 C1030 0.950 . S
H1023 C1032 0.950 . S
H1024 C1034 0.950 . S
H1025 C1036 0.950 . S
H1026 C1038 0.950 . S
H1027 C1039 0.950 . S
C1028 H1020 0.950 . S
C1028 C1029 1.386 . S
C1028 C1030 1.391 . S
C1029 C1028 1.386 . S
C1029 C1033 1.393 . S
C1030 H1022 0.950 . S
C1030 C1028 1.391 . S
C1030 C1031 1.400 . S
C1031 C1030 1.400 . S
C1031 C1032 1.398 . S
C1031 C1037 1.491 . S
C1032 H1023 0.950 . S
C1032 C1031 1.398 . S
C1032 C1033 1.391 . S
C1033 H1021 0.950 . S
C1033 C1029 1.393 . S
C1033 C1032 1.391 . S
C1034 H1024 0.950 . S
C1034 C1035 1.386 . S
C1034 C1036 1.391 . S
C1035 C1034 1.386 . S
C1035 C1039 1.393 . S
C1036 H1025 0.950 . S
C1036 C1034 1.391 . S
C1036 C1037 1.400 . S
C1037 C1031 1.491 . S
C1037 C1036 1.400 . S
C1037 C1038 1.398 . S
C1038 H1026 0.950 . S
C1038 C1037 1.398 . S
C1038 C1039 1.391 . S
C1039 H1027 0.950 . S
C1039 C1035 1.393 . S
C1039 C1038 1.391 . S
H1040 C1048 0.950 . S
H1041 C1053 0.950 . S
H1042 C1050 0.950 . S
H1043 C1052 0.950 . S
H1044 C1054 0.950 . S
H1045 C1056 0.950 . S
H1046 C1058 0.950 . S
H1047 C1059 0.950 . S
C1048 H1040 0.950 . S
C1048 C1049 1.386 . S
C1048 C1050 1.391 . S
C1049 C1048 1.386 . S
C1049 C1053 1.393 . S
C1050 H1042 0.950 . S
C1050 C1048 1.391 . S
C1050 C1051 1.400 . S
C1051 C1050 1.400 . S
C1051 C1052 1.398 . S
C1051 C1057 1.491 . S
C1052 H1043 0.950 . S
C1052 C1051 1.398 . S
C1052 C1053 1.391 . S
C1053 H1041 0.950 . S
C1053 C1049 1.393 . S
C1053 C1052 1.391 . S
C1054 H1044 0.950 . S
C1054 C1055 1.386 . S
C1054 C1056 1.391 . S
C1055 C1054 1.386 . S
C1055 C1059 1.393 . S
C1056 H1045 0.950 . S
C1056 C1054 1.391 . S
C1056 C1057 1.400 . S
C1057 C1051 1.491 . S
C1057 C1056 1.400 . S
C1057 C1058 1.398 . S
C1058 H1046 0.950 . S
C1058 C1057 1.398 . S
C1058 C1059 1.391 . S
C1059 H1047 0.950 . S
C1059 C1055 1.393 . S
C1059 C1058 1.391 . S
H1060 C1068 0.950 . S
H1061 C1073 0.950 . S
H1062 C1070 0.950 . S
H1063 C1072 0.950 . S
H1064 C1074 0.950 . S
H1065 C1076 0.950 . S
H1066 C1078 0.950 . S
H1067 C1079 0.950 . S
C1068 H1060 0.950 . S
C1068 C1069 1.386 . S
C1068 C1070 1.391 . S
C1069 C1068 1.386 . S
C1069 C1073 1.393 . S
C1070 H1062 0.950 . S
C1070 C1068 1.391 . S
C1070 C1071 1.400 . S
C1071 C1070 1.400 . S
C1071 C1072 1.398 . S
C1071 C1077 1.491 . S
C1072 H1063 0.950 . S
C1072 C1071 1.398 . S
C1072 C1073 1.391 . S
C1073 H1061 0.950 . S
C1073 C1069 1.393 . S
C1073 C1072 1.391 . S
C1074 H1064 0.950 . S
C1074 C1075 1.386 . S
C1074 C1076 1.391 . S
C1075 C1074 1.386 . S
C1075 C1079 1.393 . S
C1076 H1065 0.950 . S
C1076 C1074 1.391 . S
C1076 C1077 1.400 . S
C1077 C1071 1.491 . S
C1077 C1076 1.400 . S
C1077 C1078 1.398 . S
C1078 H1066 0.950 . S
C1078 C1077 1.398 . S
C1078 C1079 1.391 . S
C1079 H1067 0.950 . S
C1079 C1075 1.393 . S
C1079 C1078 1.391 . S
H1080 C1088 0.950 . S
H1081 C1093 0.950 . S
H1082 C1090 0.950 . S
H1083 C1092 0.950 . S
H1084 C1094 0.950 . S
H1085 C1096 0.950 . S
H1086 C1098 0.950 . S
H1087 C1099 0.950 . S
C1088 H1080 0.950 . S
C1088 C1089 1.386 . S
C1088 C1090 1.391 . S
C1089 C1088 1.386 . S
C1089 C1093 1.393 . S
C1090 H1082 0.950 . S
C1090 C1088 1.391 . S
C1090 C1091 1.400 . S
C1091 C1090 1.400 . S
C1091 C1092 1.398 . S
C1091 C1097 1.491 . S
C1092 H1083 0.950 . S
C1092 C1091 1.398 . S
C1092 C1093 1.391 . S
C1093 H1081 0.950 . S
C1093 C1089 1.393 . S
C1093 C1092 1.391 . S
C1094 H1084 0.950 . S
C1094 C1095 1.386 . S
C1094 C1096 1.391 . S
C1095 C1094 1.386 . S
C1095 C1099 1.393 . S
C1096 H1085 0.950 . S
C1096 C1094 1.391 . S
C1096 C1097 1.400 . S
C1097 C1091 1.491 . S
C1097 C1096 1.400 . S
C1097 C1098 1.398 . S
C1098 H1086 0.950 . S
C1098 C1097 1.398 . S
C1098 C1099 1.391 . S
C1099 H1087 0.950 . S
C1099 C1095 1.393 . S
C1099 C1098 1.391 . S
H1100 C1108 0.950 . S
H1101 C1113 0.950 . S
H1102 C1110 0.950 . S
H1103 C1112 0.950 . S
H1104 C1114 0.950 . S
H1105 C1116 0.950 . S
H1106 C1118 0.950 . S
H1107 C1119 0.950 . S
C1108 H1100 0.950 . S
C1108 C1109 1.386 . S
C1108 C1110 1.391 . S
C1109 C1108 1.386 . S
C1109 C1113 1.393 . S
C1110 H1102 0.950 . S
C1110 C1108 1.391 . S
C1110 C1111 1.400 . S
C1111 C1110 1.400 . S
C1111 C1112 1.398 . S
C1111 C1117 1.491 . S
C1112 H1103 0.950 . S
C1112 C1111 1.398 . S
C1112 C1113 1.391 . S
C1113 H1101 0.950 . S
C1113 C1109 1.393 . S
C1113 C1112 1.391 . S
C1114 H1104 0.950 . S
C1114 C1115 1.386 . S
C1114 C1116 1.391 . S
C1115 C1114 1.386 . S
C1115 C1119 1.393 . S
C1116 H1105 0.950 . S
C1116 C1114 1.391 . S
C1116 C1117 1.400 . S
C1117 C1111 1.491 . S
C1117 C1116 1.400 . S
C1117 C1118 1.398 . S
C1118 H1106 0.950 . S
C1118 C1117 1.398 . S
C1118 C1119 1.391 . S
C1119 H1107 0.950 . S
C1119 C1115 1.393 . S
C1119 C1118 1.391 . S
H1120 C1128 0.950 . S
H1121 C1133 0.950 . S
H1122 C1130 0.950 . S
H1123 C1132 0.950 . S
H1124 C1134 0.950 . S
H1125 C1136 0.950 . S
H1126 C1138 0.950 . S
H1127 C1139 0.950 . S
C1128 H1120 0.950 . S
C1128 C1129 1.386 . S
C1128 C1130 1.391 . S
C1129 C1128 1.386 . S
C1129 C1133 1.393 . S
C1130 H1122 0.950 . S
C1130 C1128 1.391 . S
C1130 C1131 1.400 . S
C1131 C1130 1.400 . S
C1131 C1132 1.398 . S
C1131 C1137 1.491 . S
C1132 H1123 0.950 . S
C1132 C1131 1.398 . S
C1132 C1133 1.391 . S
C1133 H1121 0.950 . S
C1133 C1129 1.393 . S
C1133 C1132 1.391 . S
C1134 H1124 0.950 . S
C1134 C1135 1.386 . S
C1134 C1136 1.391 . S
C1135 C1134 1.386 . S
C1135 C1139 1.393 . S
C1136 H1125 0.950 . S
C1136 C1134 1.391 . S
C1136 C1137 1.400 . S
C1137 C1131 1.491 . S
C1137 C1136 1.400 . S
C1137 C1138 1.398 . S
C1138 H1126 0.950 . S
C1138 C1137 1.398 . S
C1138 C1139 1.391 . S
C1139 H1127 0.950 . S
C1139 C1135 1.393 . S
C1139 C1138 1.391 . S
H1140 C1148 0.950 . S
H1141 C1153 0.950 . S
H1142 C1150 0.950 . S
H1143 C1152 0.950 . S
H1144 C1154 0.950 . S
H1145 C1156 0.950 . S
H1146 C1158 0.950 . S
H1147 C1159 0.950 . S
C1148 H1140 0.950 . S
C1148 C1149 1.386 . S
C1148 C1150 1.391 . S
C1149 C1148 1.386 . S
C1149 C1153 1.393 . S
C1150 H1142 0.950 . S
C1150 C1148 1.391 . S
C1150 C1151 1.400 . S
C1151 C1150 1.400 . S
C1151 C1152 1.398 . S
C1151 C1157 1.491 . S
C1152 H1143 0.950 . S
C1152 C1151 1.398 . S
C1152 C1153 1.391 . S
C1153 H1141 0.950 . S
C1153 C1149 1.393 . S
C1153 C1152 1.391 . S
C1154 H1144 0.950 . S
C1154 C1155 1.386 . S
C1154 C1156 1.391 . S
C1155 C1154 1.386 . S
C1155 C1159 1.393 . S
C1156 H1145 0.950 . S
C1156 C1154 1.391 . S
C1156 C1157 1.400 . S
C1157 C1151 1.491 . S
C1157 C1156 1.400 . S
C1157 C1158 1.398 . S
C1158 H1146 0.950 . S
C1158 C1157 1.398 . S
C1158 C1159 1.391 . S
C1159 H1147 0.950 . S
C1159 C1155 1.393 . S
C1159 C1158 1.391 . S
H1160 C1168 0.950 . S
H1161 C1173 0.950 . S
H1162 C1170 0.950 . S
H1163 C1172 0.950 . S
H1164 C1174 0.950 . S
H1165 C1176 0.950 . S
H1166 C1178 0.950 . S
H1167 C1179 0.950 . S
C1168 H1160 0.950 . S
C1168 C1169 1.386 . S
C1168 C1170 1.391 . S
C1169 C1168 1.386 . S
C1169 C1173 1.393 . S
C1170 H1162 0.950 . S
C1170 C1168 1.391 . S
C1170 C1171 1.400 . S
C1171 C1170 1.400 . S
C1171 C1172 1.398 . S
C1171 C1177 1.491 . S
C1172 H1163 0.950 . S
C1172 C1171 1.398 . S
C1172 C1173 1.391 . S
C1173 H1161 0.950 . S
C1173 C1169 1.393 . S
C1173 C1172 1.391 . S
C1174 H1164 0.950 . S
C1174 C1175 1.386 . S
C1174 C1176 1.391 . S
C1175 C1174 1.386 . S
C1175 C1179 1.393 . S
C1176 H1165 0.950 . S
C1176 C1174 1.391 . S
C1176 C1177 1.400 . S
C1177 C1171 1.491 . S
C1177 C1176 1.400 . S
C1177 C1178 1.398 . S
C1178 H1166 0.950 . S
C1178 C1177 1.398 . S
C1178 C1179 1.391 . S
C1179 H1167 0.950 . S
C1179 C1175 1.393 . S
C1179 C1178 1.391 . S
H1180 C1188 0.950 . S
H1181 C1193 0.950 . S
H1182 C1190 0.950 . S
H1183 C1192 0.950 . S
H1184 C1194 0.950 . S
H1185 C1196 0.950 . S
H1186 C1198 0.950 . S
H1187 C1199 0.950 . S
C1188 H1180 0.950 . S
C1188 C1189 1.386 . S
C1188 C1190 1.391 . S
C1189 C1188 1.386 . S
C1189 C1193 1.393 . S
C1190 H1182 0.950 . S
C1190 C1188 1.391 . S
C1190 C1191 1.400 . S
C1191 C1190 1.400 . S
C1191 C1192 1.398 . S
C1191 C1197 1.491 . S
C1192 H1183 0.950 . S
C1192 C1191 1.398 . S
C1192 C1193 1.391 . S
C1193 H1181 0.950 . S
C1193 C1189 1.393 . S
C1193 C1192 1.391 . S
C1194 H1184 0.950 . S
C1194 C1195 1.386 . S
C1194 C1196 1.391 . S
C1195 C1194 1.386 . S
C1195 C1199 1.393 . S
C1196 H1185 0.950 . S
C1196 C1194 1.391 . S
C1196 C1197 1.400 . S
C1197 C1191 1.491 . S
C1197 C1196 1.400 . S
C1197 C1198 1.398 . S
C1198 H1186 0.950 . S
C1198 C1197 1.398 . S
C1198 C1199 1.391 . S
C1199 H1187 0.950 . S
C1199 C1195 1.393 . S
C1199 C1198 1.391 . S
H1200 C1208 0.950 . S
H1201 C1213 0.950 . S
H1202 C1210 0.950 . S
H1203 C1212 0.950 . S
H1204 C1214 0.950 . S
H1205 C1216 0.950 . S
H1206 C1218 0.950 . S
H1207 C1219 0.950 . S
C1208 H1200 0.950 . S
C1208 C1209 1.386 . S
C1208 C1210 1.391 . S
C1209 C1208 1.386 . S
C1209 C1213 1.393 . S
C1210 H1202 0.950 . S
C1210 C1208 1.391 . S
C1210 C1211 1.400 . S
C1211 C1210 1.400 . S
C1211 C1212 1.398 . S
C1211 C1217 1.491 . S
C1212 H1203 0.950 . S
C1212 C1211 1.398 . S
C1212 C1213 1.391 . S
C1213 H1201 0.950 . S
C1213 C1209 1.393 . S
C1213 C1212 1.391 . S
C1214 H1204 0.950 . S
C1214 C1215 1.386 . S
C1214 C1216 1.391 . S
C1215 C1214 1.386 . S
C1215 C1219 1.393 . S
C1216 H1205 0.950 . S
C1216 C1214 1.391 . S
C1216 C1217 1.400 . S
C1217 C1211 1.491 . S
C1217 C1216 1.400 . S
C1217 C1218 1.398 . S
C1218 H1206 0.950 . S
C1218 C1217 1.398 . S
C1218 C1219 1.391 . S
C1219 H1207 0.950 . S
C1219 C1215 1.393 . S
C1219 C1218 1.391 . S
H1220 C1228 0.950 . S
H1221 C1233 0.950 . S
H1222 C1230 0.950 . S
H1223 C1232 0.950 . S
H1224 C1234 0.950 . S
H1225 C1236 0.950 . S
H1226 C1238 0.950 . S
H1227 C1239 0.950 . S
C1228 H1220 0.950 . S
C1228 C1229 1.386 . S
C1228 C1230 1.391 . S
C1229 C1228 1.386 . S
C1229 C1233 1.393 . S
C1230 H1222 0.950 . S
C1230 C1228 1.391 . S
C1230 C1231 1.400 . S
C1231 C1230 1.400 . S
C1231 C1232 1.398 . S
C1231 C1237 1.491 . S
C1232 H1223 0.950 . S
C1232 C1231 1.398 . S
C1232 C1233 1.391 . S
C1233 H1221 0.950 . S
C1233 C1229 1.393 . S
C1233 C1232 1.391 . S
C1234 H1224 0.950 . S
C1234 C1235 1.386 . S
C1234 C1236 1.391 . S
C1235 C1234 1.386 . S
C1235 C1239 1.393 . S
C1236 H1225 0.950 . S
C1236 C1234 1.391 . S
C1236 C1237 1.400 . S
C1237 C1231 1.491 . S
C1237 C1236 1.400 . S
C1237 C1238 1.398 . S
C1238 H1226 0.950 . S
C1238 C1237 1.398 . S
C1238 C1239 1.391 . S
C1239 H1227 0.950 . S
C1239 C1235 1.393 . S
C1239 C1238 1.391 . S
H1240 C1248 0.950 . S
H1241 C1253 0.950 . S
H1242 C1250 0.950 . S
H1243 C1252 0.950 . S
H1244 C1254 0.950 . S
H1245 C1256 0.950 . S
H1246 C1258 0.950 . S
H1247 C1259 0.950 . S
C1248 H1240 0.950 . S
C1248 C1249 1.386 . S
C1248 C1250 1.391 . S
C1249 C1248 1.386 . S
C1249 C1253 1.393 . S
C1250 H1242 0.950 . S
C1250 C1248 1.391 . S
C1250 C1251 1.400 . S
C1251 C1250 1.400 . S
C1251 C1252 1.398 . S
C1251 C1257 1.491 . S
C1252 H1243 0.950 . S
C1252 C1251 1.398 . S
C1252 C1253 1.391 . S
C1253 H1241 0.950 . S
C1253 C1249 1.393 . S
C1253 C1252 1.391 . S
C1254 H1244 0.950 . S
C1254 C1255 1.386 . S
C1254 C1256 1.391 . S
C1255 C1254 1.386 . S
C1255 C1259 1.393 . S
C1256 H1245 0.950 . S
C1256 C1254 1.391 . S
C1256 C1257 1.400 . S
C1257 C1251 1.491 . S
C1257 C1256 1.400 . S
C1257 C1258 1.398 . S
C1258 H1246 0.950 . S
C1258 C1257 1.398 . S
C1258 C1259 1.391 . S
C1259 H1247 0.950 . S
C1259 C1255 1.393 . S
C1259 C1258 1.391 . S
H1260 C1268 0.950 . S
H1261 C1273 0.950 . S
H1262 C1270 0.950 . S
H1263 C1272 0.950 . S
H1264 C1274 0.950 . S
H1265 C1276 0.950 . S
H1266 C1278 0.950 . S
H1267 C1279 0.950 . S
C1268 H1260 0.950 . S
C1268 C1269 1.386 . S
C1268 C1270 1.391 . S
C1269 C1268 1.386 . S
C1269 C1273 1.393 . S
C1270 H1262 0.950 . S
C1270 C1268 1.391 . S
C1270 C1271 1.400 . S
C1271 C1270 1.400 . S
C1271 C1272 1.398 . S
C1271 C1277 1.491 . S
C1272 H1263 0.950 . S
C1272 C1271 1.398 . S
C1272 C1273 1.391 . S
C1273 H1261 0.950 . S
C1273 C1269 1.393 . S
C1273 C1272 1.391 . S
C1274 H1264 0.950 . S
C1274 C1275 1.386 . S
C1274 C1276 1.391 . S
C1275 C1274 1.386 . S
C1275 C1279 1.393 . S
C1276 H1265 0.950 . S
C1276 C1274 1.391 . S
C1276 C1277 1.400 . S
C1277 C1271 1.491 . S
C1277 C1276 1.400 . S
C1277 C1278 1.398 . S
C1278 H1266 0.950 . S
C1278 C1277 1.398 . S
C1278 C1279 1.391 . S
C1279 H1267 0.950 . S
C1279 C1275 1.393 . S
C1279 C1278 1.391 . S
H1280 C1288 0.950 . S
H1281 C1293 0.950 . S
H1282 C1290 0.950 . S
H1283 C1292 0.950 . S
H1284 C1294 0.950 . S
H1285 C1296 0.950 . S
H1286 C1298 0.950 . S
H1287 C1299 0.950 . S
C1288 H1280 0.950 . S
C1288 C1289 1.386 . S
C1288 C1290 1.391 1_554 S
C1289 C1288 1.386 . S
C1289 C1293 1.393 1_554 S
C1290 H1282 0.950 . S
C1290 C1288 1.391 1_556 S
C1290 C1291 1.400 . S
C1291 C1290 1.400 . S
C1291 C1292 1.398 . S
C1291 C1297 1.491 . S
C1292 H1283 0.950 . S
C1292 C1291 1.398 . S
C1292 C1293 1.391 . S
C1293 H1281 0.950 . S
C1293 C1289 1.393 1_556 S
C1293 C1292 1.391 . S
C1294 H1284 0.950 . S
C1294 C1295 1.386 . S
C1294 C1296 1.391 . S
C1295 C1294 1.386 . S
C1295 C1299 1.393 . S
C1296 H1285 0.950 . S
C1296 C1294 1.391 . S
C1296 C1297 1.400 . S
C1297 C1291 1.491 . S
C1297 C1296 1.400 . S
C1297 C1298 1.398 . S
C1298 H1286 0.950 . S
C1298 C1297 1.398 . S
C1298 C1299 1.391 . S
C1299 H1287 0.950 . S
C1299 C1295 1.393 . S
C1299 C1298 1.391 . S
H1300 C1308 0.950 . S
H1301 C1313 0.950 . S
H1302 C1310 0.950 . S
H1303 C1312 0.950 . S
H1304 C1314 0.950 . S
H1305 C1316 0.950 . S
H1306 C1318 0.950 . S
H1307 C1319 0.950 . S
C1308 H1300 0.950 . S
C1308 C1309 1.386 . S
C1308 C1310 1.391 . S
C1309 C1308 1.386 . S
C1309 C1313 1.393 . S
C1310 H1302 0.950 . S
C1310 C1308 1.391 . S
C1310 C1311 1.400 . S
C1311 C1310 1.400 . S
C1311 C1312 1.398 . S
C1311 C1317 1.491 . S
C1312 H1303 0.950 . S
C1312 C1311 1.398 . S
C1312 C1313 1.391 . S
C1313 H1301 0.950 . S
C1313 C1309 1.393 . S
C1313 C1312 1.391 . S
C1314 H1304 0.950 . S
C1314 C1315 1.386 . S
C1314 C1316 1.391 . S
C1315 C1314 1.386 . S
C1315 C1319 1.393 . S
C1316 H1305 0.950 . S
C1316 C1314 1.391 . S
C1316 C1317 1.400 . S
C1317 C1311 1.491 . S
C1317 C1316 1.400 . S
C1317 C1318 1.398 . S
C1318 H1306 0.950 . S
C1318 C1317 1.398 . S
C1318 C1319 1.391 . S
C1319 H1307 0.950 . S
C1319 C1315 1.393 . S
C1319 C1318 1.391 . S
H1320 C1328 0.950 . S
H1321 C1333 0.950 . S
H1322 C1330 0.950 . S
H1323 C1332 0.950 . S
H1324 C1334 0.950 . S
H1325 C1336 0.950 . S
H1326 C1338 0.950 . S
H1327 C1339 0.950 . S
C1328 H1320 0.950 . S
C1328 C1329 1.386 . S
C1328 C1330 1.391 . S
C1329 C1328 1.386 . S
C1329 C1333 1.393 . S
C1330 H1322 0.950 . S
C1330 C1328 1.391 . S
C1330 C1331 1.400 . S
C1331 C1330 1.400 . S
C1331 C1332 1.398 . S
C1331 C1337 1.491 . S
C1332 H1323 0.950 . S
C1332 C1331 1.398 . S
C1332 C1333 1.391 . S
C1333 H1321 0.950 . S
C1333 C1329 1.393 . S
C1333 C1332 1.391 . S
C1334 H1324 0.950 . S
C1334 C1335 1.386 . S
C1334 C1336 1.391 . S
C1335 C1334 1.386 . S
C1335 C1339 1.393 . S
C1336 H1325 0.950 . S
C1336 C1334 1.391 . S
C1336 C1337 1.400 . S
C1337 C1331 1.491 . S
C1337 C1336 1.400 . S
C1337 C1338 1.398 . S
C1338 H1326 0.950 . S
C1338 C1337 1.398 . S
C1338 C1339 1.391 . S
C1339 H1327 0.950 . S
C1339 C1335 1.393 . S
C1339 C1338 1.391 . S
H1340 C1348 0.950 . S
H1341 C1353 0.950 . S
H1342 C1350 0.950 . S
H1343 C1352 0.950 . S
H1344 C1354 0.950 . S
H1345 C1356 0.950 . S
H1346 C1358 0.950 . S
H1347 C1359 0.950 . S
C1348 H1340 0.950 . S
C1348 C1349 1.386 . S
C1348 C1350 1.391 . S
C1349 C1348 1.386 . S
C1349 C1353 1.393 . S
C1350 H1342 0.950 . S
C1350 C1348 1.391 . S
C1350 C1351 1.400 . S
C1351 C1350 1.400 . S
C1351 C1352 1.398 . S
C1351 C1357 1.491 . S
C1352 H1343 0.950 . S
C1352 C1351 1.398 . S
C1352 C1353 1.391 . S
C1353 H1341 0.950 . S
C1353 C1349 1.393 . S
C1353 C1352 1.391 . S
C1354 H1344 0.950 . S
C1354 C1355 1.386 . S
C1354 C1356 1.391 . S
C1355 C1354 1.386 . S
C1355 C1359 1.393 . S
C1356 H1345 0.950 . S
C1356 C1354 1.391 . S
C1356 C1357 1.400 . S
C1357 C1351 1.491 . S
C1357 C1356 1.400 . S
C1357 C1358 1.398 . S
C1358 H1346 0.950 . S
C1358 C1357 1.398 . S
C1358 C1359 1.391 . S
C1359 H1347 0.950 . S
C1359 C1355 1.393 . S
C1359 C1358 1.391 . S
H1360 C1368 0.950 . S
H1361 C1373 0.950 . S
H1362 C1370 0.950 . S
H1363 C1372 0.950 . S
H1364 C1374 0.928 1_556 S
H1365 C1376 0.950 . S
H1366 C1378 0.950 . S
H1367 C1379 0.950 . S
C1368 H1360 0.950 . S
C1368 C1369 1.386 . S
C1368 C1370 1.391 . S
C1369 C1368 1.386 . S
C1369 C1373 1.393 . S
C1370 H1362 0.950 . S
C1370 C1368 1.391 . S
C1370 C1371 1.400 . S
C1371 C1370 1.400 . S
C1371 C1372 1.398 . S
C1371 C1377 1.491 . S
C1372 H1363 0.950 . S
C1372 C1371 1.398 . S
C1372 C1373 1.391 . S
C1373 H1361 0.950 . S
C1373 C1369 1.393 . S
C1373 C1372 1.391 . S
C1374 H1364 0.928 1_554 S
C1374 C1375 1.382 1_554 S
C1374 C1376 1.418 . S
C1375 C1374 1.382 1_556 S
C1375 C1379 1.393 1_556 S
C1376 H1365 0.950 . S
C1376 C1374 1.418 . S
C1376 C1377 1.400 . S
C1377 C1371 1.491 . S
C1377 C1376 1.400 . S
C1377 C1378 1.398 . S
C1378 H1366 0.950 . S
C1378 C1377 1.398 . S
C1378 C1379 1.391 . S
C1379 H1367 0.950 . S
C1379 C1375 1.393 1_554 S
C1379 C1378 1.391 . S
H1380 C1388 0.950 . S
H1381 C1393 0.950 . S
H1382 C1390 0.950 . S
H1383 C1392 0.950 . S
H1384 C1394 0.950 . S
H1385 C1396 0.950 . S
H1386 C1398 0.950 . S
H1387 C1399 0.950 . S
C1388 H1380 0.950 . S
C1388 C1389 1.386 . S
C1388 C1390 1.391 . S
C1389 C1388 1.386 . S
C1389 C1393 1.393 . S
C1390 H1382 0.950 . S
C1390 C1388 1.391 . S
C1390 C1391 1.400 . S
C1391 C1390 1.400 . S
C1391 C1392 1.398 . S
C1391 C1397 1.491 . S
C1392 H1383 0.950 . S
C1392 C1391 1.398 . S
C1392 C1393 1.391 . S
C1393 H1381 0.950 . S
C1393 C1389 1.393 . S
C1393 C1392 1.391 . S
C1394 H1384 0.950 . S
C1394 C1395 1.386 . S
C1394 C1396 1.391 . S
C1395 C1394 1.386 . S
C1395 C1399 1.393 . S
C1396 H1385 0.950 . S
C1396 C1394 1.391 . S
C1396 C1397 1.400 . S
C1397 C1391 1.491 . S
C1397 C1396 1.400 . S
C1397 C1398 1.398 . S
C1398 H1386 0.950 . S
C1398 C1397 1.398 . S
C1398 C1399 1.391 . S
C1399 H1387 0.950 . S
C1399 C1395 1.393 . S
C1399 C1398 1.391 . S
H1400 C1408 0.950 . S
H1401 C1413 0.950 . S
H1402 C1410 0.950 . S
H1403 C1412 0.950 . S
H1404 C1414 0.950 . S
H1405 C1416 0.950 . S
H1406 C1418 0.950 . S
H1407 C1419 0.950 . S
C1408 H1400 0.950 . S
C1408 C1409 1.386 . S
C1408 C1410 1.391 . S
C1409 C1408 1.386 . S
C1409 C1413 1.393 . S
C1410 H1402 0.950 . S
C1410 C1408 1.391 . S
C1410 C1411 1.400 . S
C1411 C1410 1.400 . S
C1411 C1412 1.398 . S
C1411 C1417 1.491 . S
C1412 H1403 0.950 . S
C1412 C1411 1.398 . S
C1412 C1413 1.391 . S
C1413 H1401 0.950 . S
C1413 C1409 1.393 . S
C1413 C1412 1.391 . S
C1414 H1404 0.950 . S
C1414 C1415 1.386 . S
C1414 C1416 1.391 . S
C1415 C1414 1.386 . S
C1415 C1419 1.393 . S
C1416 H1405 0.950 . S
C1416 C1414 1.391 . S
C1416 C1417 1.400 . S
C1417 C1411 1.491 . S
C1417 C1416 1.400 . S
C1417 C1418 1.398 . S
C1418 H1406 0.950 . S
C1418 C1417 1.398 . S
C1418 C1419 1.391 . S
C1419 H1407 0.950 . S
C1419 C1415 1.393 . S
C1419 C1418 1.391 . S
H1420 C1428 0.950 . S
H1421 C1433 0.950 . S
H1422 C1430 0.950 . S
H1423 C1432 0.950 . S
H1424 C1434 0.950 . S
H1425 C1436 0.950 . S
H1426 C1438 0.950 . S
H1427 C1439 0.950 . S
C1428 H1420 0.950 . S
C1428 C1429 1.386 . S
C1428 C1430 1.391 . S
C1429 C1428 1.386 . S
C1429 C1433 1.393 . S
C1430 H1422 0.950 . S
C1430 C1428 1.391 . S
C1430 C1431 1.400 . S
C1431 C1430 1.400 . S
C1431 C1432 1.398 . S
C1431 C1437 1.491 . S
C1432 H1423 0.950 . S
C1432 C1431 1.398 . S
C1432 C1433 1.391 . S
C1433 H1421 0.950 . S
C1433 C1429 1.393 . S
C1433 C1432 1.391 . S
C1434 H1424 0.950 . S
C1434 C1435 1.386 . S
C1434 C1436 1.391 . S
C1435 C1434 1.386 . S
C1435 C1439 1.393 . S
C1436 H1425 0.950 . S
C1436 C1434 1.391 . S
C1436 C1437 1.400 . S
C1437 C1431 1.491 . S
C1437 C1436 1.400 . S
C1437 C1438 1.398 . S
C1438 H1426 0.950 . S
C1438 C1437 1.398 . S
C1438 C1439 1.391 . S
C1439 H1427 0.950 . S
C1439 C1435 1.393 . S
C1439 C1438 1.391 . S
H1440 C1448 0.950 . S
H1441 C1453 0.950 . S
H1442 C1450 0.950 . S
H1443 C1452 0.950 . S
H1444 C1454 0.950 . S
H1445 C1456 0.950 . S
H1446 C1458 0.950 . S
H1447 C1459 0.950 . S
C1448 H1440 0.950 . S
C1448 C1449 1.386 . S
C1448 C1450 1.391 . S
C1449 C1448 1.386 . S
C1449 C1453 1.393 . S
C1450 H1442 0.950 . S
C1450 C1448 1.391 . S
C1450 C1451 1.400 . S
C1451 C1450 1.400 . S
C1451 C1452 1.398 . S
C1451 C1457 1.491 . S
C1452 H1443 0.950 . S
C1452 C1451 1.398 . S
C1452 C1453 1.391 . S
C1453 H1441 0.950 . S
C1453 C1449 1.393 . S
C1453 C1452 1.391 . S
C1454 H1444 0.950 . S
C1454 C1455 1.386 . S
C1454 C1456 1.391 . S
C1455 C1454 1.386 . S
C1455 C1459 1.393 . S
C1456 H1445 0.950 . S
C1456 C1454 1.391 . S
C1456 C1457 1.400 . S
C1457 C1451 1.491 . S
C1457 C1456 1.400 . S
C1457 C1458 1.398 . S
C1458 H1446 0.950 . S
C1458 C1457 1.398 . S
C1458 C1459 1.391 . S
C1459 H1447 0.950 . S
C1459 C1455 1.393 . S
C1459 C1458 1.391 . S
H1460 C1468 0.950 . S
H1461 C1473 0.950 . S
H1462 C1470 0.950 . S
H1463 C1472 0.950 . S
H1464 C1474 0.950 . S
H1465 C1476 0.950 . S
H1466 C1478 0.950 . S
H1467 C1479 0.950 . S
C1468 H1460 0.950 . S
C1468 C1469 1.386 . S
C1468 C1470 1.391 . S
C1469 C1468 1.386 . S
C1469 C1473 1.393 . S
C1470 H1462 0.950 . S
C1470 C1468 1.391 . S
C1470 C1471 1.400 . S
C1471 C1470 1.400 . S
C1471 C1472 1.398 . S
C1471 C1477 1.491 . S
C1472 H1463 0.950 . S
C1472 C1471 1.398 . S
C1472 C1473 1.391 . S
C1473 H1461 0.950 . S
C1473 C1469 1.393 . S
C1473 C1472 1.391 . S
C1474 H1464 0.950 . S
C1474 C1475 1.386 . S
C1474 C1476 1.391 . S
C1475 C1474 1.386 . S
C1475 C1479 1.393 1_565 S
C1476 H1465 0.950 . S
C1476 C1474 1.391 . S
C1476 C1477 1.400 . S
C1477 C1471 1.491 . S
C1477 C1476 1.400 . S
C1477 C1478 1.398 . S
C1478 H1466 0.950 . S
C1478 C1477 1.398 . S
C1478 C1479 1.391 1_565 S
C1479 H1467 0.950 . S
C1479 C1475 1.393 1_545 S
C1479 C1478 1.391 1_545 S
H1480 C1488 0.950 . S
H1481 C1493 0.950 . S
H1482 C1490 0.950 . S
H1483 C1492 0.950 . S
H1484 C1494 0.950 . S
H1485 C1496 0.950 . S
H1486 C1498 0.950 . S
H1487 C1499 0.950 . S
C1488 H1480 0.950 . S
C1488 C1489 1.386 . S
C1488 C1490 1.391 . S
C1489 C1488 1.386 . S
C1489 C1493 1.393 . S
C1490 H1482 0.950 . S
C1490 C1488 1.391 . S
C1490 C1491 1.400 . S
C1491 C1490 1.400 . S
C1491 C1492 1.398 . S
C1491 C1497 1.491 . S
C1492 H1483 0.950 . S
C1492 C1491 1.398 . S
C1492 C1493 1.391 . S
C1493 H1481 0.950 . S
C1493 C1489 1.393 . S
C1493 C1492 1.391 . S
C1494 H1484 0.950 . S
C1494 C1495 1.386 1_556 S
C1494 C1496 1.391 . S
C1495 C1494 1.386 1_554 S
C1495 C1499 1.393 . S
C1496 H1485 0.950 . S
C1496 C1494 1.391 . S
C1496 C1497 1.400 . S
C1497 C1491 1.491 . S
C1497 C1496 1.400 . S
C1497 C1498 1.398 . S
C1498 H1486 0.950 . S
C1498 C1497 1.398 . S
C1498 C1499 1.391 1_556 S
C1499 H1487 0.950 . S
C1499 C1495 1.393 . S
C1499 C1498 1.391 1_554 S
H1500 C1508 0.950 . S
H1501 C1513 0.950 . S
H1502 C1510 0.950 . S
H1503 C1512 0.950 . S
H1504 C1514 0.950 . S
H1505 C1516 0.950 . S
H1506 C1518 0.950 . S
H1507 C1519 0.950 . S
C1508 H1500 0.950 . S
C1508 C1509 1.387 1_545 S
C1508 C1510 1.391 . S
C1509 C1508 1.387 1_565 S
C1509 C1513 1.392 . S
C1510 H1502 0.950 . S
C1510 C1508 1.391 . S
C1510 C1511 1.400 . S
C1511 C1510 1.400 . S
C1511 C1512 1.398 . S
C1511 C1517 1.491 . S
C1512 H1503 0.950 . S
C1512 C1511 1.398 . S
C1512 C1513 1.391 1_545 S
C1513 H1501 0.950 . S
C1513 C1509 1.392 . S
C1513 C1512 1.391 1_565 S
C1514 H1504 0.950 . S
C1514 C1515 1.386 . S
C1514 C1516 1.391 . S
C1515 C1514 1.386 . S
C1515 C1519 1.393 . S
C1516 H1505 0.950 . S
C1516 C1514 1.391 . S
C1516 C1517 1.400 . S
C1517 C1511 1.491 . S
C1517 C1516 1.400 . S
C1517 C1518 1.398 . S
C1518 H1506 0.950 . S
C1518 C1517 1.398 . S
C1518 C1519 1.391 . S
C1519 H1507 0.950 . S
C1519 C1515 1.393 . S
C1519 C1518 1.391 . S
H1520 C1528 0.950 . S
H1521 C1533 0.950 . S
H1522 C1530 0.950 . S
H1523 C1532 0.950 . S
H1524 C1534 0.950 . S
H1525 C1536 0.950 . S
H1526 C1538 0.950 . S
H1527 C1539 0.950 . S
C1528 H1520 0.950 . S
C1528 C1529 1.386 . S
C1528 C1530 1.391 . S
C1529 C1528 1.386 . S
C1529 C1533 1.393 . S
C1530 H1522 0.950 . S
C1530 C1528 1.391 . S
C1530 C1531 1.400 . S
C1531 C1530 1.400 . S
C1531 C1532 1.398 . S
C1531 C1537 1.491 . S
C1532 H1523 0.950 . S
C1532 C1531 1.398 . S
C1532 C1533 1.391 . S
C1533 H1521 0.950 . S
C1533 C1529 1.393 . S
C1533 C1532 1.391 . S
C1534 H1524 0.950 . S
C1534 C1535 1.386 . S
C1534 C1536 1.391 . S
C1535 C1534 1.386 . S
C1535 C1539 1.393 . S
C1536 H1525 0.950 . S
C1536 C1534 1.391 . S
C1536 C1537 1.400 . S
C1537 C1531 1.491 . S
C1537 C1536 1.400 . S
C1537 C1538 1.398 . S
C1538 H1526 0.950 . S
C1538 C1537 1.398 . S
C1538 C1539 1.391 . S
C1539 H1527 0.950 . S
C1539 C1535 1.393 . S
C1539 C1538 1.391 . S
H1540 C1548 0.950 . S
H1541 C1553 0.950 . S
H1542 C1550 0.950 . S
H1543 C1552 0.950 . S
H1544 C1554 0.950 . S
H1545 C1556 0.950 . S
H1546 C1558 0.950 . S
H1547 C1559 0.950 . S
C1548 H1540 0.950 . S
C1548 C1549 1.386 . S
C1548 C1550 1.391 . S
C1549 C1548 1.386 . S
C1549 C1553 1.393 . S
C1550 H1542 0.950 . S
C1550 C1548 1.391 . S
C1550 C1551 1.400 . S
C1551 C1550 1.400 . S
C1551 C1552 1.398 . S
C1551 C1557 1.491 . S
C1552 H1543 0.950 . S
C1552 C1551 1.398 . S
C1552 C1553 1.391 . S
C1553 H1541 0.950 . S
C1553 C1549 1.393 . S
C1553 C1552 1.391 . S
C1554 H1544 0.950 . S
C1554 C1555 1.382 1_545 S
C1554 C1556 1.391 . S
C1555 C1554 1.382 1_565 S
C1555 C1559 1.393 . S
C1556 H1545 0.950 . S
C1556 C1554 1.391 . S
C1556 C1557 1.400 . S
C1557 C1551 1.491 . S
C1557 C1556 1.400 . S
C1557 C1558 1.398 . S
C1558 H1546 0.950 . S
C1558 C1557 1.398 . S
C1558 C1559 1.391 1_545 S
C1559 H1547 0.950 . S
C1559 C1555 1.393 . S
C1559 C1558 1.391 1_565 S
H1560 C1568 0.950 . S
H1561 C1573 0.950 . S
H1562 C1570 0.950 . S
H1563 C1572 0.950 . S
H1564 C1574 0.988 . S
H1565 C1576 0.950 . S
H1566 C1578 0.950 . S
H1567 C1579 0.950 . S
C1568 H1560 0.950 . S
C1568 C1569 1.386 . S
C1568 C1570 1.391 . S
C1569 C1568 1.386 . S
C1569 C1573 1.393 . S
C1570 H1562 0.950 . S
C1570 C1568 1.391 . S
C1570 C1571 1.400 . S
C1571 C1570 1.400 . S
C1571 C1572 1.398 . S
C1571 C1577 1.491 . S
C1572 H1563 0.950 . S
C1572 C1571 1.398 . S
C1572 C1573 1.391 . S
C1573 H1561 0.950 . S
C1573 C1569 1.393 . S
C1573 C1572 1.391 . S
C1574 H1564 0.988 . S
C1574 C1575 1.388 . S
C1574 C1576 1.353 1_556 S
C1575 C1574 1.388 . S
C1575 C1579 1.393 1_556 S
C1576 H1565 0.950 . S
C1576 C1574 1.353 1_554 S
C1576 C1577 1.400 . S
C1577 C1571 1.491 . S
C1577 C1576 1.400 . S
C1577 C1578 1.398 . S
C1578 H1566 0.950 . S
C1578 C1577 1.398 . S
C1578 C1579 1.391 . S
C1579 H1567 0.950 . S
C1579 C1575 1.393 1_554 S
C1579 C1578 1.391 . S
H1580 C1588 0.950 . S
H1581 C1593 0.950 . S
H1582 C1590 0.950 . S
H1583 C1592 0.950 . S
H1584 C1594 0.950 . S
H1585 C1596 0.950 1_545 S
H1586 C1598 0.950 . S
H1587 C1599 0.950 . S
C1588 H1580 0.950 . S
C1588 C1589 1.386 . S
C1588 C1590 1.391 . S
C1589 C1588 1.386 . S
C1589 C1593 1.393 . S
C1590 H1582 0.950 . S
C1590 C1588 1.391 . S
C1590 C1591 1.400 . S
C1591 C1590 1.400 . S
C1591 C1592 1.398 . S
C1591 C1597 1.491 . S
C1592 H1583 0.950 . S
C1592 C1591 1.398 . S
C1592 C1593 1.391 . S
C1593 H1581 0.950 . S
C1593 C1589 1.393 . S
C1593 C1592 1.391 . S
C1594 H1584 0.950 . S
C1594 C1595 1.386 1_545 S
C1594 C1596 1.391 1_545 S
C1595 C1594 1.386 1_565 S
C1595 C1599 1.393 . S
C1596 H1585 0.950 1_565 S
C1596 C1594 1.391 1_565 S
C1596 C1597 1.400 . S
C1597 C1591 1.491 . S
C1597 C1596 1.400 . S
C1597 C1598 1.398 . S
C1598 H1586 0.950 . S
C1598 C1597 1.398 . S
C1598 C1599 1.391 . S
C1599 H1587 0.950 . S
C1599 C1595 1.393 . S
C1599 C1598 1.391 . S
C649 C2 2.765 . S
C655 C402 2.760 . S
C669 C42 2.760 . S
C675 C442 2.754 . S
C689 C82 2.763 . S
C695 C322 2.754 . S
C709 C362 2.759 . S
C715 C122 2.766 . S
C729 C183 2.761 . S
C735 C583 2.754 . S
C749 C623 2.765 . S
C755 C223 2.761 . S
C769 C503 2.756 . S
C775 C263 2.756 . S
C789 C303 2.754 . S
C795 C543 2.762 . S
C809 C17 0.794 1_565 S
C815 C186 0.794 1_545 S
C829 C57 0.794 . S
C835 C546 0.794 . S
C849 C97 0.798 1_545 S
C855 C266 0.798 1_565 S
C869 C137 0.747 . S
C875 C626 0.747 . S
C889 C226 0.748 . S
C895 C377 0.748 . S
C909 C457 0.807 . S
C915 C306 0.807 . S
C929 C506 0.782 . S
C935 C337 0.782 . S
C949 C417 0.797 . S
C955 C586 0.797 . S
C969 C26 0.966 . S
C975 C282 1.000 . S
C989 C66 0.973 . S
C995 C482 0.993 . S
C1009 C106 1.006 . S
C1015 C202 1.014 . S
C1029 C146 0.970 . S
C1035 C562 1.006 . S
C1049 C143 1.017 . S
C1055 C177 0.984 . S
C1069 C217 0.988 . S
C1075 C343 1.019 . S
C1089 C257 0.970 . S
C1095 C63 1.005 . S
C1109 C423 0.996 . S
C1115 C297 0.983 . S
C1129 C346 1.007 . S
C1135 C602 1.025 1_565 S
C1149 C162 1.023 . S
C1155 C386 1.010 . S
C1169 C522 1.001 1_545 S
C1175 C426 0.991 . S
C1189 C242 1.008 . S
C1195 C466 0.972 . S
C1209 C497 1.004 . S
C1215 C463 1.012 1_545 S
C1229 C537 1.010 . S
C1235 C23 1.022 . S
C1249 C383 1.023 1_565 S
C1255 C577 0.996 . S
C1269 C617 0.971 . S
C1275 C103 1.006 . S
C1289 C24 4.005 . S
C1295 C373 4.045 . S
C1309 C413 4.048 . S
C1315 C64 4.008 . S
C1329 C104 3.999 . S
C1335 C453 4.041 . S
C1349 C333 4.047 . S
C1355 C144 4.007 . S
C1369 C544 4.040 . S
C1375 C173 3.999 . S
C1389 C584 4.039 . S
C1395 C213 3.998 . S
C1409 C624 4.040 . S
C1415 C253 3.998 . S
C1429 C504 4.049 . S
C1435 C293 4.009 . S
C1449 C53 4.049 . S
C1455 C344 4.009 . S
C1469 C93 4.039 . S
C1475 C384 3.997 1_565 S
C1489 C133 4.044 . S
C1495 C424 4.004 . S
C1509 C464 4.008 . S
C1515 C13 4.049 . S
C1529 C224 4.048 . S
C1535 C493 4.008 . S
C1549 C264 4.049 . S
C1555 C533 4.012 . S
C1569 C304 4.048 . S
C1575 C573 4.008 . S
C1589 C184 4.039 . S
C1595 C613 3.998 1_565 S
