# Generated by pormake.
# Topology vba, (4)-cn, num edge types: 1
# Building blocks:
#     Node 0, Type 0, BuildingBlock: GALJAG_clean_sbu_0, # of connection points: 4
#     Node 1, Type 0, BuildingBlock: GALJAG_clean_sbu_0, # of connection points: 4
#     Node 2, Type 0, BuildingBlock: GALJAG_clean_sbu_0, # of connection points: 4
#     Node 3, Type 0, BuildingBlock: GALJAG_clean_sbu_0, # of connection points: 4
#     Node 4, Type 0, BuildingBlock: GALJAG_clean_sbu_0, # of connection points: 4
#     Node 5, Type 0, BuildingBlock: GALJAG_clean_sbu_0, # of connection points: 4
#     Node 6, Type 0, BuildingBlock: GALJAG_clean_sbu_0, # of connection points: 4
#     Node 7, Type 0, BuildingBlock: GALJAG_clean_sbu_0, # of connection points: 4
#     Node 8, Type 0, BuildingBlock: GALJAG_clean_sbu_0, # of connection points: 4
#     Node 9, Type 0, BuildingBlock: GALJAG_clean_sbu_0, # of connection points: 4
#     Node 10, Type 0, BuildingBlock: GALJAG_clean_sbu_0, # of connection points: 4
#     Node 11, Type 0, BuildingBlock: GALJAG_clean_sbu_0, # of connection points: 4
#     Node 12, Type 0, BuildingBlock: GALJAG_clean_sbu_0, # of connection points: 4
#     Node 13, Type 0, BuildingBlock: GALJAG_clean_sbu_0, # of connection points: 4
#     Node 14, Type 0, BuildingBlock: GALJAG_clean_sbu_0, # of connection points: 4
#     Node 15, Type 0, BuildingBlock: GALJAG_clean_sbu_0, # of connection points: 4
#     Node 16, Type 0, BuildingBlock: GALJAG_clean_sbu_0, # of connection points: 4
#     Node 17, Type 0, BuildingBlock: GALJAG_clean_sbu_0, # of connection points: 4
#     Node 18, Type 0, BuildingBlock: GALJAG_clean_sbu_0, # of connection points: 4
#     Node 19, Type 0, BuildingBlock: GALJAG_clean_sbu_0, # of connection points: 4
#     Node 20, Type 0, BuildingBlock: GALJAG_clean_sbu_0, # of connection points: 4
#     Node 21, Type 0, BuildingBlock: GALJAG_clean_sbu_0, # of connection points: 4
#     Node 22, Type 0, BuildingBlock: GALJAG_clean_sbu_0, # of connection points: 4
#     Node 23, Type 0, BuildingBlock: GALJAG_clean_sbu_0, # of connection points: 4
#     Node 24, Type 0, BuildingBlock: GALJAG_clean_sbu_0, # of connection points: 4
#     Node 25, Type 0, BuildingBlock: GALJAG_clean_sbu_0, # of connection points: 4
#     Node 26, Type 0, BuildingBlock: GALJAG_clean_sbu_0, # of connection points: 4
#     Node 27, Type 0, BuildingBlock: GALJAG_clean_sbu_0, # of connection points: 4
#     Node 28, Type 0, BuildingBlock: GALJAG_clean_sbu_0, # of connection points: 4
#     Node 29, Type 0, BuildingBlock: GALJAG_clean_sbu_0, # of connection points: 4
#     Node 30, Type 0, BuildingBlock: GALJAG_clean_sbu_0, # of connection points: 4
#     Node 31, Type 0, BuildingBlock: GALJAG_clean_sbu_0, # of connection points: 4
#     Edge 32, Type (0, 0), BuildingBlock: XIVTED_clean_linker_0, # of connection points: 2
#     Edge 33, Type (0, 0), BuildingBlock: XIVTED_clean_linker_0, # of connection points: 2
#     Edge 34, Type (0, 0), BuildingBlock: XIVTED_clean_linker_0, # of connection points: 2
#     Edge 35, Type (0, 0), BuildingBlock: XIVTED_clean_linker_0, # of connection points: 2
#     Edge 36, Type (0, 0), BuildingBlock: XIVTED_clean_linker_0, # of connection points: 2
#     Edge 37, Type (0, 0), BuildingBlock: XIVTED_clean_linker_0, # of connection points: 2
#     Edge 38, Type (0, 0), BuildingBlock: XIVTED_clean_linker_0, # of connection points: 2
#     Edge 39, Type (0, 0), BuildingBlock: XIVTED_clean_linker_0, # of connection points: 2
#     Edge 40, Type (0, 0), BuildingBlock: XIVTED_clean_linker_0, # of connection points: 2
#     Edge 41, Type (0, 0), BuildingBlock: XIVTED_clean_linker_0, # of connection points: 2
#     Edge 42, Type (0, 0), BuildingBlock: XIVTED_clean_linker_0, # of connection points: 2
#     Edge 43, Type (0, 0), BuildingBlock: XIVTED_clean_linker_0, # of connection points: 2
#     Edge 44, Type (0, 0), BuildingBlock: XIVTED_clean_linker_0, # of connection points: 2
#     Edge 45, Type (0, 0), BuildingBlock: XIVTED_clean_linker_0, # of connection points: 2
#     Edge 46, Type (0, 0), BuildingBlock: XIVTED_clean_linker_0, # of connection points: 2
#     Edge 47, Type (0, 0), BuildingBlock: XIVTED_clean_linker_0, # of connection points: 2
#     Edge 48, Type (0, 0), BuildingBlock: XIVTED_clean_linker_0, # of connection points: 2
#     Edge 49, Type (0, 0), BuildingBlock: XIVTED_clean_linker_0, # of connection points: 2
#     Edge 50, Type (0, 0), BuildingBlock: XIVTED_clean_linker_0, # of connection points: 2
#     Edge 51, Type (0, 0), BuildingBlock: XIVTED_clean_linker_0, # of connection points: 2
#     Edge 52, Type (0, 0), BuildingBlock: XIVTED_clean_linker_0, # of connection points: 2
#     Edge 53, Type (0, 0), BuildingBlock: XIVTED_clean_linker_0, # of connection points: 2
#     Edge 54, Type (0, 0), BuildingBlock: XIVTED_clean_linker_0, # of connection points: 2
#     Edge 55, Type (0, 0), BuildingBlock: XIVTED_clean_linker_0, # of connection points: 2
#     Edge 56, Type (0, 0), BuildingBlock: XIVTED_clean_linker_0, # of connection points: 2
#     Edge 57, Type (0, 0), BuildingBlock: XIVTED_clean_linker_0, # of connection points: 2
#     Edge 58, Type (0, 0), BuildingBlock: XIVTED_clean_linker_0, # of connection points: 2
#     Edge 59, Type (0, 0), BuildingBlock: XIVTED_clean_linker_0, # of connection points: 2
#     Edge 60, Type (0, 0), BuildingBlock: XIVTED_clean_linker_0, # of connection points: 2
#     Edge 61, Type (0, 0), BuildingBlock: XIVTED_clean_linker_0, # of connection points: 2
#     Edge 62, Type (0, 0), BuildingBlock: XIVTED_clean_linker_0, # of connection points: 2
#     Edge 63, Type (0, 0), BuildingBlock: XIVTED_clean_linker_0, # of connection points: 2
#     Edge 64, Type (0, 0), BuildingBlock: XIVTED_clean_linker_0, # of connection points: 2
#     Edge 65, Type (0, 0), BuildingBlock: XIVTED_clean_linker_0, # of connection points: 2
#     Edge 66, Type (0, 0), BuildingBlock: XIVTED_clean_linker_0, # of connection points: 2
#     Edge 67, Type (0, 0), BuildingBlock: XIVTED_clean_linker_0, # of connection points: 2
#     Edge 68, Type (0, 0), BuildingBlock: XIVTED_clean_linker_0, # of connection points: 2
#     Edge 69, Type (0, 0), BuildingBlock: XIVTED_clean_linker_0, # of connection points: 2
#     Edge 70, Type (0, 0), BuildingBlock: XIVTED_clean_linker_0, # of connection points: 2
#     Edge 71, Type (0, 0), BuildingBlock: XIVTED_clean_linker_0, # of connection points: 2
#     Edge 72, Type (0, 0), BuildingBlock: XIVTED_clean_linker_0, # of connection points: 2
#     Edge 73, Type (0, 0), BuildingBlock: XIVTED_clean_linker_0, # of connection points: 2
#     Edge 74, Type (0, 0), BuildingBlock: XIVTED_clean_linker_0, # of connection points: 2
#     Edge 75, Type (0, 0), BuildingBlock: XIVTED_clean_linker_0, # of connection points: 2
#     Edge 76, Type (0, 0), BuildingBlock: XIVTED_clean_linker_0, # of connection points: 2
#     Edge 77, Type (0, 0), BuildingBlock: XIVTED_clean_linker_0, # of connection points: 2
#     Edge 78, Type (0, 0), BuildingBlock: XIVTED_clean_linker_0, # of connection points: 2
#     Edge 79, Type (0, 0), BuildingBlock: XIVTED_clean_linker_0, # of connection points: 2
#     Edge 80, Type (0, 0), BuildingBlock: XIVTED_clean_linker_0, # of connection points: 2
#     Edge 81, Type (0, 0), BuildingBlock: XIVTED_clean_linker_0, # of connection points: 2
#     Edge 82, Type (0, 0), BuildingBlock: XIVTED_clean_linker_0, # of connection points: 2
#     Edge 83, Type (0, 0), BuildingBlock: XIVTED_clean_linker_0, # of connection points: 2
#     Edge 84, Type (0, 0), BuildingBlock: XIVTED_clean_linker_0, # of connection points: 2
#     Edge 85, Type (0, 0), BuildingBlock: XIVTED_clean_linker_0, # of connection points: 2
#     Edge 86, Type (0, 0), BuildingBlock: XIVTED_clean_linker_0, # of connection points: 2
#     Edge 87, Type (0, 0), BuildingBlock: XIVTED_clean_linker_0, # of connection points: 2
#     Edge 88, Type (0, 0), BuildingBlock: XIVTED_clean_linker_0, # of connection points: 2
#     Edge 89, Type (0, 0), BuildingBlock: XIVTED_clean_linker_0, # of connection points: 2
#     Edge 90, Type (0, 0), BuildingBlock: XIVTED_clean_linker_0, # of connection points: 2
#     Edge 91, Type (0, 0), BuildingBlock: XIVTED_clean_linker_0, # of connection points: 2
#     Edge 92, Type (0, 0), BuildingBlock: XIVTED_clean_linker_0, # of connection points: 2
#     Edge 93, Type (0, 0), BuildingBlock: XIVTED_clean_linker_0, # of connection points: 2
#     Edge 94, Type (0, 0), BuildingBlock: XIVTED_clean_linker_0, # of connection points: 2
#     Edge 95, Type (0, 0), BuildingBlock: XIVTED_clean_linker_0, # of connection points: 2
# Relax obj value: 0.078
# Max RMSD: 0.280
# Mean RMSD: 0.277
data_MOF--net-vba--node1-GALJAG_clean_sbu_0--edge1-XIVTED_clean_linker_0
_symmetry_space_group_name_H-M    P1
_symmetry_Int_Tables_number       1
_symmetry_cell_setting            triclinic
loop_
_symmetry_equiv_pos_as_xyz
'x, y, z'
_cell_length_a     21.397987
_cell_length_b     94.698599
_cell_length_c     53.793703
_cell_angle_alpha  90.07957
_cell_angle_beta   90.045047
_cell_angle_gamma 90.054284
loop_
_atom_site_label
_atom_site_type_symbol
_atom_site_fract_x
_atom_site_fract_y
_atom_site_fract_z
_atom_type_partial_charge
In0 In 0.2036 0.04272 0.98727 0.0
O1 O 0.16996 0.03485 0.9486 0.0
O2 O 0.23291 0.05225 0.951 0.0
C3 C 0.12737 0.03391 0.02396 0.0
C4 C 0.307 0.02692 0.994 0.0
C5 C 0.18061 0.07023 0.99558 0.0
O6 O 0.10976 0.03402 0.00145 0.0
O7 O 0.18363 0.03739 0.02738 0.0
O8 O 0.23467 0.06501 0.99844 0.0
O9 O 0.13905 0.06154 0.98893 0.0
C10 C 0.20119 0.04422 0.9372 0.0
O11 O 0.30444 0.03985 0.9999 0.0
O12 O 0.25727 0.02196 0.98472 0.0
In13 In 0.08494 0.19999 0.96017 0.0
O14 O 0.12848 0.20573 0.92214 0.0
O15 O 0.06198 0.18898 0.92428 0.0
C16 C 0.14821 0.21086 0.99889 0.0
C17 C 0.98763 0.21796 0.95992 0.0
C18 C 0.10026 0.17322 0.97536 0.0
O19 O 0.17585 0.20803 0.97862 0.0
O20 O 0.0901 0.20869 0.99889 0.0
O21 O 0.0465 0.17883 0.97413 0.0
O22 O 0.14497 0.18112 0.96889 0.0
C23 C 0.09751 0.19629 0.91074 0.0
O24 O 0.98246 0.20531 0.96742 0.0
O25 O 0.0414 0.22133 0.95219 0.0
In26 In 0.25527 0.2068 0.22692 0.0
O27 O 0.28718 0.22921 0.22052 0.0
O28 O 0.21547 0.2261 0.24757 0.0
C29 C 0.17473 0.18478 0.23156 0.0
C30 C 0.34558 0.20276 0.26118 0.0
C31 C 0.25358 0.20915 0.17708 0.0
O32 O 0.23242 0.18335 0.22743 0.0
O33 O 0.15718 0.19745 0.23434 0.0
O34 O 0.20874 0.21272 0.19099 0.0
O35 O 0.30056 0.20403 0.18831 0.0
C36 C 0.25164 0.23469 0.23658 0.0
O37 O 0.29208 0.20755 0.26614 0.0
O38 O 0.35387 0.19926 0.23866 0.0
In39 In 0.83493 0.07411 0.21205 0.0
O40 O 0.73521 0.07969 0.22422 0.0
O41 O 0.74665 0.06872 0.19027 0.0
C42 C 0.90124 0.0986 0.21446 0.0
C43 C 0.83492 0.06086 0.25668 0.0
C44 C 0.88871 0.06061 0.17331 0.0
O45 O 0.84302 0.09856 0.21017 0.0
O46 O 0.92479 0.0865 0.21699 0.0
O47 O 0.8985 0.05697 0.19561 0.0
O48 O 0.85268 0.07106 0.17076 0.0
C49 C 0.70918 0.07318 0.20652 0.0
O50 O 0.8176 0.05474 0.23701 0.0
O51 O 0.85593 0.07315 0.25348 0.0
In52 In 0.80808 0.95628 0.02195 0.0
O53 O 0.70449 0.95638 0.01065 0.0
O54 O 0.7458 0.97533 0.02479 0.0
C55 C 0.86374 0.93168 0.01026 0.0
C56 C 0.80317 0.95473 0.07183 0.0
C57 C 0.87065 0.96961 0.9858 0.0
O58 O 0.80606 0.93371 0.00591 0.0
O59 O 0.89116 0.94173 0.02121 0.0
O60 O 0.89026 0.96969 0.00809 0.0
O61 O 0.81887 0.96349 0.98248 0.0
C62 C 0.69744 0.9693 0.0164 0.0
O63 O 0.83298 0.96453 0.06095 0.0
O64 O 0.77804 0.94578 0.05752 0.0
In65 In 0.17812 0.82204 0.95929 0.0
O66 O 0.20239 0.80527 0.98862 0.0
O67 O 0.13058 0.81985 0.997 0.0
C68 C 0.13449 0.80721 0.9201 0.0
C69 C 0.30429 0.82219 0.95592 0.0
C70 C 0.11651 0.84709 0.95978 0.0
O71 O 0.16537 0.81849 0.91791 0.0
O72 O 0.12463 0.80337 0.94227 0.0
O73 O 0.17542 0.84639 0.96117 0.0
O74 O 0.0898 0.83534 0.9571 0.0
C75 C 0.16445 0.80988 0.00457 0.0
O76 O 0.27544 0.82797 0.97369 0.0
O77 O 0.26929 0.81761 0.93885 0.0
In78 In 0.82363 0.79195 0.73896 0.0
O79 O 0.84605 0.78616 0.69839 0.0
O80 O 0.77898 0.80234 0.70587 0.0
C81 C 0.89956 0.78042 0.77279 0.0
C82 C 0.72483 0.77482 0.7461 0.0
C83 C 0.86867 0.81769 0.75075 0.0
O84 O 0.91485 0.78095 0.74998 0.0
O85 O 0.8455 0.78495 0.77778 0.0
O86 O 0.81331 0.81408 0.7566 0.0
O87 O 0.89864 0.8086 0.73838 0.0
C88 C 0.80756 0.7951 0.68973 0.0
O89 O 0.72373 0.78773 0.75262 0.0
O90 O 0.7753 0.7708 0.73611 0.0
In91 In 0.14015 0.93424 0.79461 0.0
O92 O 0.09344 0.93419 0.75652 0.0
O93 O 0.15549 0.95101 0.76434 0.0
C94 C 0.09049 0.94869 0.83299 0.0
C95 C 0.26545 0.93784 0.79844 0.0
C96 C 0.08957 0.90789 0.79587 0.0
O97 O 0.07757 0.95173 0.81066 0.0
O98 O 0.12696 0.93834 0.83567 0.0
O99 O 0.14786 0.90988 0.79391 0.0
O100 O 0.05819 0.91905 0.79825 0.0
C101 C 0.12164 0.94491 0.74845 0.0
O102 O 0.24064 0.93109 0.78071 0.0
O103 O 0.22771 0.94135 0.81531 0.0
In104 In 0.23232 0.54617 0.48739 0.0
O105 O 0.20902 0.54011 0.44725 0.0
O106 O 0.27058 0.55755 0.45436 0.0
C107 C 0.17075 0.53272 0.52321 0.0
C108 C 0.33682 0.53092 0.49085 0.0
C109 C 0.1791 0.57086 0.49922 0.0
O110 O 0.14904 0.53313 0.50122 0.0
O111 O 0.22306 0.53865 0.52641 0.0
O112 O 0.23654 0.56855 0.50378 0.0
O113 O 0.15054 0.56093 0.48831 0.0
C114 C 0.24403 0.54973 0.43846 0.0
O115 O 0.33452 0.54355 0.4989 0.0
O116 O 0.28668 0.52626 0.48139 0.0
In117 In 0.88736 0.68503 0.54147 0.0
O118 O 0.87048 0.70384 0.51505 0.0
O119 O 0.9104 0.68519 0.50028 0.0
C120 C 0.94495 0.69643 0.58119 0.0
C121 C 0.76244 0.68642 0.54837 0.0
C122 C 0.94824 0.66007 0.53968 0.0
O123 O 0.95758 0.70037 0.55927 0.0
O124 O 0.90329 0.68704 0.5828 0.0
O125 O 0.88962 0.66074 0.54271 0.0
O126 O 0.97517 0.67187 0.53794 0.0
C127 C 0.88872 0.69728 0.49596 0.0
O128 O 0.7868 0.6781 0.53275 0.0
O129 O 0.80125 0.69307 0.56155 0.0
In130 In 0.26416 0.69039 0.77302 0.0
O131 O 0.22145 0.70095 0.80731 0.0
O132 O 0.2859 0.68409 0.81274 0.0
C133 C 0.19768 0.69997 0.73408 0.0
C134 C 0.36749 0.70663 0.76801 0.0
C135 C 0.2322 0.66292 0.76733 0.0
O136 O 0.1776 0.70078 0.75617 0.0
O137 O 0.25131 0.69455 0.73185 0.0
O138 O 0.28877 0.66689 0.76588 0.0
O139 O 0.19374 0.67271 0.77172 0.0
C140 C 0.25106 0.69329 0.82254 0.0
O141 O 0.36859 0.69349 0.76332 0.0
O142 O 0.31519 0.71125 0.77509 0.0
In143 In 0.98286 0.54162 0.74018 0.0
O144 O 0.93838 0.54566 0.77708 0.0
O145 O 0.88072 0.54864 0.74488 0.0
C146 C 0.0088 0.53596 0.69265 0.0
C147 C 0.97923 0.5145 0.75466 0.0
C148 C 0.04842 0.56588 0.74464 0.0
O149 O 0.04796 0.53437 0.71007 0.0
O150 O 0.95598 0.54083 0.69912 0.0
O151 O 0.99616 0.56489 0.73386 0.0
O152 O 0.06945 0.55434 0.75329 0.0
C153 C 0.88558 0.54891 0.76837 0.0
O154 O 0.94625 0.51945 0.73728 0.0
O155 O 0.01616 0.52324 0.76498 0.0
In156 In 0.80796 0.45076 0.51688 0.0
O157 O 0.71208 0.45531 0.5 0.0
O158 O 0.75828 0.47159 0.5207 0.0
C159 C 0.84285 0.42441 0.50489 0.0
C160 C 0.78117 0.44741 0.56523 0.0
C161 C 0.89 0.4633 0.4866 0.0
O162 O 0.78956 0.42921 0.49889 0.0
O163 O 0.87725 0.43286 0.51689 0.0
O164 O 0.90401 0.46082 0.5091 0.0
O165 O 0.83555 0.45976 0.48008 0.0
C166 C 0.71064 0.46785 0.50842 0.0
O167 O 0.82126 0.45645 0.55819 0.0
O168 O 0.7576 0.44001 0.5481 0.0
In169 In 0.00394 0.29631 0.49981 0.0
O170 O 0.97578 0.28799 0.53844 0.0
O171 O 0.04084 0.30505 0.53571 0.0
C172 C 0.92741 0.28746 0.46354 0.0
C173 C 0.10207 0.27932 0.49194 0.0
C174 C 0.97425 0.32353 0.49282 0.0
O175 O 0.91071 0.28723 0.48618 0.0
O176 O 0.98284 0.29151 0.45975 0.0
O177 O 0.02929 0.31903 0.48895 0.0
O178 O 0.93565 0.31434 0.50014 0.0
C179 C 0.01094 0.29674 0.54961 0.0
O180 O 0.10388 0.29234 0.48647 0.0
O181 O 0.05104 0.27507 0.50109 0.0
In182 In 0.62076 0.3233 0.27713 0.0
O183 O 0.64724 0.30862 0.24455 0.0
O184 O 0.61492 0.32934 0.23663 0.0
C185 C 0.67827 0.31089 0.3156 0.0
C186 C 0.50189 0.31393 0.28252 0.0
C187 C 0.67675 0.34875 0.28224 0.0
O188 O 0.69298 0.30822 0.29325 0.0
O189 O 0.63516 0.3199 0.31838 0.0
O190 O 0.61836 0.3473 0.28547 0.0
O191 O 0.70536 0.3375 0.27694 0.0
C192 C 0.6334 0.31767 0.22822 0.0
O193 O 0.51341 0.32619 0.27438 0.0
O194 O 0.54938 0.30698 0.28871 0.0
In195 In 0.01126 0.45994 0.26973 0.0
O196 O 0.99177 0.48355 0.2682 0.0
O197 O 0.98553 0.47228 0.23428 0.0
C198 C 0.92927 0.43813 0.2738 0.0
C199 C 0.11181 0.45314 0.24163 0.0
C200 C 0.02724 0.46649 0.31808 0.0
O201 O 0.98494 0.43777 0.28137 0.0
O202 O 0.91364 0.44971 0.26384 0.0
O203 O 0.98146 0.47059 0.30522 0.0
O204 O 0.06644 0.4589 0.30657 0.0
C205 C 0.98475 0.48415 0.24499 0.0
O206 O 0.06195 0.44606 0.24187 0.0
O207 O 0.113 0.46328 0.25691 0.0
In208 In 0.67981 0.03911 0.48054 0.0
O209 O 0.65826 0.0342 0.43919 0.0
O210 O 0.73562 0.04742 0.44892 0.0
C211 C 0.60113 0.02992 0.51561 0.0
C212 C 0.77092 0.02047 0.48861 0.0
C213 C 0.65819 0.06642 0.48974 0.0
O214 O 0.58282 0.03119 0.49323 0.0
O215 O 0.65786 0.03282 0.51948 0.0
O216 O 0.70942 0.0606 0.49567 0.0
O217 O 0.61873 0.05844 0.47929 0.0
C218 C 0.70476 0.04148 0.43186 0.0
O219 O 0.77474 0.03321 0.49581 0.0
O220 O 0.72061 0.01716 0.47759 0.0
In221 In 0.56787 0.19705 0.46883 0.0
O222 O 0.60263 0.20582 0.43125 0.0
O223 O 0.54585 0.18737 0.43139 0.0
C224 C 0.63833 0.20646 0.50701 0.0
C225 C 0.4677 0.21399 0.47224 0.0
C226 C 0.58056 0.16976 0.48078 0.0
O227 O 0.66252 0.20376 0.48603 0.0
O228 O 0.57984 0.205 0.50797 0.0
O229 O 0.52781 0.17584 0.48126 0.0
O230 O 0.62582 0.17744 0.47408 0.0
C231 C 0.57426 0.19648 0.41865 0.0
O232 O 0.46528 0.20105 0.47816 0.0
O233 O 0.52038 0.21823 0.46471 0.0
In234 In 0.80409 0.18975 0.72789 0.0
O235 O 0.77141 0.21257 0.73195 0.0
O236 O 0.78619 0.20108 0.76512 0.0
C237 C 0.7357 0.16557 0.73072 0.0
C238 C 0.92138 0.18668 0.7464 0.0
C239 C 0.78818 0.19698 0.67981 0.0
O240 O 0.77591 0.16789 0.71413 0.0
O241 O 0.72886 0.17554 0.74615 0.0
O242 O 0.7467 0.1985 0.69628 0.0
O243 O 0.83892 0.19161 0.68745 0.0
C244 C 0.77429 0.21289 0.75532 0.0
O245 O 0.88086 0.17703 0.74706 0.0
O246 O 0.90494 0.19739 0.73414 0.0
In247 In 0.45186 0.04712 0.73603 0.0
O248 O 0.43374 0.02377 0.73603 0.0
O249 O 0.50503 0.031 0.76065 0.0
C250 C 0.51708 0.07158 0.7359 0.0
C251 C 0.35616 0.05242 0.76738 0.0
C252 C 0.4625 0.04155 0.68728 0.0
O253 O 0.46649 0.06988 0.7241 0.0
O254 O 0.53576 0.06081 0.74779 0.0
O255 O 0.50546 0.03927 0.70292 0.0
O256 O 0.4134 0.04719 0.69606 0.0
C257 C 0.47393 0.02064 0.75219 0.0
O258 O 0.41193 0.05587 0.77165 0.0
O259 O 0.34688 0.04676 0.74639 0.0
In260 In 0.22485 0.93613 0.51812 0.0
O261 O 0.12365 0.93917 0.50543 0.0
O262 O 0.1769 0.9571 0.51749 0.0
C263 C 0.26274 0.90916 0.51595 0.0
C264 C 0.21105 0.93904 0.56735 0.0
C265 C 0.28916 0.94575 0.47891 0.0
O266 O 0.20757 0.91266 0.50988 0.0
O267 O 0.29732 0.91921 0.52308 0.0
O268 O 0.30999 0.94735 0.50086 0.0
O269 O 0.23766 0.93928 0.47723 0.0
C270 C 0.12532 0.95239 0.50953 0.0
O271 O 0.25478 0.94537 0.55588 0.0
O272 O 0.17754 0.93104 0.55407 0.0
In273 In 0.50894 0.78799 0.49284 0.0
O274 O 0.53896 0.76546 0.48829 0.0
O275 O 0.46496 0.76943 0.51409 0.0
C276 C 0.44589 0.81222 0.49826 0.0
C277 C 0.59895 0.7936 0.52621 0.0
C278 C 0.487 0.78655 0.44386 0.0
O279 O 0.50069 0.8115 0.48955 0.0
O280 O 0.42156 0.80047 0.50432 0.0
O281 O 0.44742 0.78317 0.46026 0.0
O282 O 0.53965 0.79066 0.45214 0.0
C283 C 0.50093 0.76048 0.50393 0.0
O284 O 0.54139 0.79346 0.53123 0.0
O285 O 0.61271 0.79093 0.50372 0.0
In286 In 0.24482 0.81338 0.23684 0.0
O287 O 0.27876 0.80497 0.19904 0.0
O288 O 0.19746 0.81806 0.20068 0.0
C289 C 0.31185 0.80437 0.27583 0.0
C290 C 0.14816 0.79601 0.24518 0.0
C291 C 0.27655 0.84086 0.23964 0.0
O292 O 0.33253 0.80308 0.25381 0.0
O293 O 0.25894 0.81018 0.27769 0.0
O294 O 0.22198 0.83667 0.24522 0.0
O295 O 0.31355 0.83124 0.2327 0.0
C296 C 0.23395 0.81078 0.1874 0.0
O297 O 0.14443 0.80919 0.24952 0.0
O298 O 0.20036 0.79184 0.23698 0.0
In299 In 0.49591 0.96494 0.26368 0.0
O300 O 0.53562 0.95948 0.22635 0.0
O301 O 0.6016 0.96312 0.25558 0.0
C302 C 0.47047 0.96598 0.31246 0.0
C303 C 0.48257 0.99235 0.25179 0.0
C304 C 0.43807 0.93999 0.25744 0.0
O305 O 0.43102 0.96881 0.29567 0.0
O306 O 0.52463 0.96272 0.30468 0.0
O307 O 0.49192 0.94134 0.26683 0.0
O308 O 0.41193 0.95147 0.25101 0.0
C309 C 0.59215 0.96004 0.23292 0.0
O310 O 0.51931 0.98794 0.26842 0.0
O311 O 0.45053 0.98286 0.24101 0.0
In312 In 0.76419 0.56696 0.98431 0.0
O313 O 0.86592 0.56178 0.99519 0.0
O314 O 0.80812 0.54538 0.9807 0.0
C315 C 0.73975 0.59459 0.992 0.0
C316 C 0.75061 0.56645 0.93464 0.0
C317 C 0.69408 0.55773 0.02231 0.0
O318 O 0.79539 0.58995 0.99267 0.0
O319 O 0.69866 0.58537 0.98753 0.0
O320 O 0.67477 0.55732 1.00005 0.0
O321 O 0.74876 0.56251 0.02511 0.0
C322 C 0.86079 0.54884 0.98933 0.0
O323 O 0.71751 0.55882 0.94875 0.0
O324 O 0.79009 0.57417 0.94563 0.0
In325 In 0.51682 0.71851 0.01659 0.0
O326 O 0.47427 0.72004 0.97837 0.0
O327 O 0.41529 0.71227 0.00722 0.0
C328 C 0.5219 0.72266 0.06588 0.0
C329 C 0.54011 0.74552 0.00451 0.0
C330 C 0.57622 0.69339 0.01211 0.0
O331 O 0.56931 0.72324 0.05191 0.0
O332 O 0.47105 0.71954 0.05508 0.0
O333 O 0.52083 0.69484 0.0196 0.0
O334 O 0.60341 0.70486 0.00654 0.0
C335 C 0.42117 0.71549 0.98452 0.0
O336 O 0.50099 0.74184 0.02082 0.0
O337 O 0.5695 0.73546 0.99418 0.0
In338 In 0.69816 0.70993 0.27505 0.0
O339 O 0.68013 0.71546 0.31599 0.0
O340 O 0.74945 0.7 0.30676 0.0
C341 C 0.63136 0.7229 0.24024 0.0
C342 C 0.79668 0.72687 0.26826 0.0
C343 C 0.64857 0.68469 0.26359 0.0
O344 O 0.61163 0.72242 0.26253 0.0
O345 O 0.68351 0.71709 0.2362 0.0
O346 O 0.70489 0.68771 0.25822 0.0
O347 O 0.61938 0.69415 0.27548 0.0
C348 C 0.72287 0.70717 0.32354 0.0
O349 O 0.79743 0.71405 0.26111 0.0
O350 O 0.74658 0.73087 0.27861 0.0
In351 In 0.36157 0.5711 0.21137 0.0
O352 O 0.38283 0.55722 0.24544 0.0
O353 O 0.32944 0.57611 0.24995 0.0
C354 C 0.42536 0.56249 0.17152 0.0
C355 C 0.25049 0.55955 0.19988 0.0
C356 C 0.41978 0.59621 0.2151 0.0
O357 O 0.43922 0.5583 0.19325 0.0
O358 O 0.37964 0.57093 0.17018 0.0
O359 O 0.36293 0.59532 0.20839 0.0
O360 O 0.44621 0.58454 0.21942 0.0
C361 C 0.35307 0.56534 0.25998 0.0
O362 O 0.25587 0.57276 0.20336 0.0
O363 O 0.30055 0.55261 0.20165 0.0
In364 In 0.28193 0.45577 0.02281 0.0
O365 O 0.31767 0.46195 0.06163 0.0
O366 O 0.24508 0.44648 0.05823 0.0
C367 C 0.34424 0.466 0.98387 0.0
C368 C 0.18632 0.47398 0.01852 0.0
C369 C 0.32065 0.42937 0.01263 0.0
O370 O 0.36741 0.46653 0.00565 0.0
O371 O 0.29006 0.46073 0.98235 0.0
O372 O 0.2635 0.43287 0.01037 0.0
O373 O 0.35645 0.43908 0.02029 0.0
C374 C 0.2803 0.45354 0.07248 0.0
O375 O 0.1807 0.46107 0.01231 0.0
O376 O 0.23921 0.47737 0.02723 0.0
In377 In 0.54885 0.30609 0.99655 0.0
O378 O 0.64604 0.30159 0.98005 0.0
O379 O 0.59537 0.28494 0.9979 0.0
C380 C 0.50405 0.33254 0.9923 0.0
C381 C 0.56991 0.30696 0.04549 0.0
C382 C 0.47328 0.29495 0.96231 0.0
O383 O 0.55945 0.32949 0.98561 0.0
O384 O 0.47266 0.3223 0.00073 0.0
O385 O 0.46104 0.29397 0.98535 0.0
O386 O 0.52312 0.30147 0.95696 0.0
C387 C 0.64433 0.28867 0.98653 0.0
O388 O 0.52741 0.29915 0.03634 0.0
O389 O 0.60044 0.31421 0.02995 0.0
In390 In 0.13366 0.3047 0.77972 0.0
O391 O 0.14895 0.29332 0.74262 0.0
O392 O 0.09284 0.31203 0.74352 0.0
C393 C 0.1958 0.29385 0.81803 0.0
C394 C 0.02545 0.2922 0.79164 0.0
C395 C 0.20443 0.32823 0.78054 0.0
O396 O 0.20807 0.29022 0.79579 0.0
O397 O 0.15212 0.30277 0.82058 0.0
O398 O 0.14787 0.32844 0.78789 0.0
O399 O 0.2231 0.31643 0.7724 0.0
C400 C 0.11514 0.30202 0.73074 0.0
O401 O 0.02929 0.3056 0.7905 0.0
O402 O 0.07534 0.28558 0.78706 0.0
In403 In 0.58425 0.43237 0.78421 0.0
O404 O 0.57311 0.44555 0.74863 0.0
O405 O 0.61278 0.42488 0.74627 0.0
C406 C 0.53831 0.44541 0.82418 0.0
C407 C 0.70249 0.44024 0.79339 0.0
C408 C 0.50507 0.41019 0.78578 0.0
O409 O 0.52231 0.44906 0.80234 0.0
O410 O 0.57582 0.4351 0.82548 0.0
O411 O 0.56244 0.40896 0.79156 0.0
O412 O 0.48867 0.42246 0.77922 0.0
C413 C 0.59823 0.43613 0.73514 0.0
O414 O 0.6883 0.42725 0.79146 0.0
O415 O 0.65764 0.44876 0.79104 0.0
H416 H 0.00041 0.03766 0.02433 0.0
H417 H 0.9853 0.04157 0.17311 0.0
H418 H 0.15643 0.02798 0.07214 0.0
H419 H 0.85759 0.06333 0.12436 0.0
H420 H 0.03678 0.03126 0.13658 0.0
H421 H 0.93519 0.04134 0.06127 0.0
C422 C 0.02044 0.0359 0.04257 0.0
C423 C 0.08399 0.03263 0.04522 0.0
C424 C 0.9971 0.03819 0.13393 0.0
C425 C 0.01012 0.03698 0.08743 0.0
C426 C 0.96775 0.04407 0.15475 0.0
C427 C 0.91765 0.05345 0.15173 0.0
C428 C 0.9757 0.04162 0.10997 0.0
C429 C 0.89658 0.05628 0.12751 0.0
C430 C 0.98342 0.03815 0.06363 0.0
C431 C 0.10772 0.03061 0.0693 0.0
N432 N 0.92583 0.05044 0.10758 0.0
N433 N 0.07097 0.03295 0.08948 0.0
H434 H 0.3303 0.19847 0.14015 0.0
H435 H 0.10703 0.22904 0.0338 0.0
H436 H 0.16909 0.22494 0.1521 0.0
H437 H 0.25902 0.2007 0.0175 0.0
H438 H 0.14327 0.23083 0.07656 0.0
H439 H 0.31706 0.20158 0.09493 0.0
C440 C 0.29257 0.205 0.13329 0.0
C441 C 0.25025 0.21131 0.14987 0.0
C442 C 0.16959 0.22437 0.06367 0.0
C443 C 0.2353 0.21503 0.09851 0.0
C444 C 0.14912 0.22346 0.03917 0.0
C445 C 0.18014 0.21473 0.0222 0.0
C446 C 0.22074 0.21621 0.07154 0.0
C447 C 0.23423 0.20765 0.03008 0.0
C448 C 0.28508 0.20679 0.10754 0.0
C449 C 0.20235 0.21972 0.14004 0.0
N450 N 0.25228 0.20832 0.05439 0.0
N451 N 0.19614 0.22127 0.11513 0.0
H452 H 0.98951 0.96655 0.83458 0.0
H453 H 0.99822 0.97072 0.98309 0.0
H454 H 0.13344 0.94826 0.88056 0.0
H455 H 0.83131 0.97655 0.93933 0.0
H456 H 0.05962 0.96987 0.94465 0.0
H457 H 0.94223 0.97698 0.87194 0.0
C458 C 0.01158 0.9649 0.85247 0.0
C459 C 0.06473 0.95634 0.8546 0.0
C460 C 0.00973 0.97168 0.94352 0.0
C461 C 0.01167 0.96833 0.89716 0.0
C462 C 0.97483 0.97232 0.96545 0.0
C463 C 0.90961 0.97351 0.96429 0.0
C464 C 0.97905 0.97232 0.92042 0.0
C465 C 0.88151 0.97544 0.94095 0.0
C466 C 0.98468 0.97085 0.87374 0.0
C467 C 0.09178 0.9546 0.87817 0.0
N468 N 0.91625 0.97458 0.91989 0.0
N469 N 0.06473 0.96045 0.89854 0.0
H470 H 0.87415 0.77109 0.81943 0.0
H471 H 0.16926 0.81043 0.87174 0.0
H472 H 0.02585 0.78475 0.77257 0.0
H473 H 0.04563 0.78632 0.91869 0.0
H474 H 0.12283 0.79923 0.83523 0.0
H475 H 0.94141 0.7739 0.85581 0.0
C476 C 0.92235 0.77426 0.81677 0.0
C477 C 0.94446 0.77779 0.79304 0.0
C478 C 0.10639 0.79621 0.8535 0.0
C479 C 0.02101 0.78152 0.8346 0.0
C480 C 0.13262 0.80268 0.87436 0.0
C481 C 0.11059 0.79944 0.89824 0.0
C482 C 0.05694 0.7866 0.85649 0.0
C483 C 0.0636 0.78919 0.90058 0.0
C484 C 0.96066 0.77594 0.83755 0.0
C485 C 0.0071 0.78189 0.79056 0.0
N486 N 0.03759 0.7833 0.87993 0.0
N487 N 0.04282 0.78397 0.81118 0.0
H488 H 0.04555 0.53531 0.53274 0.0
H489 H 0.10991 0.52129 0.67669 0.0
H490 H 0.21771 0.51931 0.56326 0.0
H491 H 0.94292 0.54174 0.64984 0.0
H492 H 0.13981 0.5161 0.63408 0.0
H493 H 0.99672 0.53299 0.57394 0.0
C494 C 0.07225 0.53082 0.54791 0.0
C495 C 0.13565 0.52754 0.54481 0.0
C496 C 0.09638 0.52165 0.6374 0.0
C497 C 0.08107 0.52514 0.59171 0.0
C498 C 0.07939 0.52467 0.66177 0.0
C499 C 0.02438 0.53217 0.66677 0.0
C500 C 0.05854 0.5263 0.6177 0.0
C501 C 0.9861 0.53606 0.64672 0.0
C502 C 0.04471 0.52966 0.57143 0.0
C503 C 0.16873 0.52202 0.56502 0.0
N504 N 0.00431 0.53324 0.62297 0.0
N505 N 0.14128 0.52113 0.58765 0.0
H506 H 0.06139 0.70849 0.58356 0.0
H507 H 0.07209 0.70532 0.73232 0.0
H508 H 0.90651 0.69532 0.62929 0.0
H509 H 0.23638 0.70305 0.68605 0.0
H510 H 0.00789 0.7082 0.69491 0.0
H511 H 0.1227 0.71302 0.6214 0.0
C512 C 0.03994 0.70683 0.60155 0.0
C513 C 0.97917 0.70138 0.60337 0.0
C514 C 0.05811 0.70726 0.69301 0.0
C515 C 0.04851 0.70655 0.64649 0.0
C516 C 0.09473 0.70567 0.71433 0.0
C517 C 0.15948 0.70377 0.71221 0.0
C518 C 0.08657 0.70707 0.66948 0.0
C519 C 0.18648 0.70432 0.68845 0.0
C520 C 0.07496 0.70934 0.62308 0.0
C521 C 0.95353 0.69937 0.6271 0.0
N522 N 0.14985 0.70583 0.66798 0.0
N523 N 0.98842 0.70188 0.64773 0.0
H524 H 0.97516 0.48874 0.34184 0.0
H525 H 0.00487 0.45268 0.47478 0.0
H526 H 0.08609 0.45153 0.35522 0.0
H527 H 0.8721 0.48487 0.45478 0.0
H528 H 0.05907 0.45649 0.43499 0.0
H529 H 0.96248 0.49182 0.38649 0.0
C530 C 0.99767 0.48133 0.35428 0.0
C531 C 0.03072 0.46972 0.34489 0.0
C532 C 0.01927 0.46302 0.43968 0.0
C533 C 0.01526 0.47299 0.39614 0.0
C534 C 0.98889 0.46097 0.46247 0.0
C535 C 0.93423 0.46852 0.46789 0.0
C536 C 0.99463 0.47272 0.42249 0.0
C537 C 0.91424 0.47888 0.45118 0.0
C538 C 0.99041 0.48308 0.37979 0.0
C539 C 0.05979 0.46056 0.36179 0.0
N540 N 0.944 0.48057 0.42915 0.0
N541 N 0.05028 0.46221 0.38669 0.0
H542 H 0.78213 0.294 0.3154 0.0
H543 H 0.79975 0.28968 0.46392 0.0
H544 H 0.64501 0.31233 0.36454 0.0
H545 H 0.95613 0.28174 0.41535 0.0
H546 H 0.73235 0.29236 0.42732 0.0
H547 H 0.83669 0.28429 0.35158 0.0
C548 C 0.76325 0.29588 0.33378 0.0
C549 C 0.7095 0.30414 0.33702 0.0
C550 C 0.7812 0.28978 0.42472 0.0
C551 C 0.77126 0.29299 0.37842 0.0
C552 C 0.81948 0.28811 0.44559 0.0
C553 C 0.88363 0.28563 0.44258 0.0
C554 C 0.80735 0.28886 0.40079 0.0
C555 C 0.90696 0.28379 0.41843 0.0
C556 C 0.79434 0.29033 0.35441 0.0
C557 C 0.68679 0.30617 0.36124 0.0
N558 N 0.869 0.28558 0.39845 0.0
N559 N 0.71797 0.3007 0.38103 0.0
H560 H 0.48788 0.0419 0.5268 0.0
H561 H 0.54386 0.02239 0.6689 0.0
H562 H 0.62461 0.01224 0.55361 0.0
H563 H 0.39762 0.05084 0.64589 0.0
H564 H 0.56216 0.01614 0.62577 0.0
H565 H 0.44092 0.04258 0.56859 0.0
C566 C 0.50628 0.03509 0.54122 0.0
C567 C 0.56002 0.02698 0.5369 0.0
C568 C 0.5257 0.0237 0.62997 0.0
C569 C 0.50814 0.02798 0.58458 0.0
C570 C 0.51545 0.02733 0.65468 0.0
C571 C 0.46981 0.03731 0.66096 0.0
C572 C 0.49089 0.03026 0.61109 0.0
C573 C 0.43365 0.04317 0.64177 0.0
C574 C 0.48008 0.03562 0.56512 0.0
C575 C 0.58316 0.01862 0.55625 0.0
N576 N 0.44559 0.03972 0.61759 0.0
N577 N 0.5576 0.01947 0.57926 0.0
H578 H 0.75746 0.19774 0.51888 0.0
H579 H 0.69518 0.21376 0.66265 0.0
H580 H 0.59942 0.22066 0.54781 0.0
H581 H 0.85415 0.18969 0.63754 0.0
H582 H 0.66933 0.21918 0.61974 0.0
H583 H 0.80386 0.19766 0.5608 0.0
C584 C 0.73348 0.20311 0.53388 0.0
C585 C 0.67441 0.20915 0.52997 0.0
C586 C 0.71017 0.21278 0.62346 0.0
C587 C 0.72637 0.20892 0.57779 0.0
C588 C 0.7249 0.20964 0.64804 0.0
C589 C 0.77646 0.20111 0.65368 0.0
C590 C 0.74669 0.2072 0.6041 0.0
C591 C 0.81374 0.19625 0.63396 0.0
C592 C 0.75963 0.20295 0.55782 0.0
C593 C 0.64486 0.21579 0.55006 0.0
N594 N 0.79768 0.19921 0.60997 0.0
N595 N 0.67081 0.21539 0.57306 0.0
H596 H 0.23299 0.95409 0.43663 0.0
H597 H 0.53763 0.95658 0.35317 0.0
H598 H 0.41531 0.94964 0.46989 0.0
H599 H 0.36027 0.97461 0.33203 0.0
H600 H 0.49787 0.95372 0.39588 0.0
H601 H 0.28166 0.96118 0.39785 0.0
C602 C 0.28352 0.95469 0.43576 0.0
C603 C 0.32023 0.95123 0.45642 0.0
C604 C 0.4682 0.95848 0.38189 0.0
C605 C 0.37679 0.9592 0.41175 0.0
C606 C 0.49079 0.9601 0.35757 0.0
C607 C 0.4519 0.96567 0.33895 0.0
C608 C 0.40631 0.96236 0.3874 0.0
C609 C 0.39169 0.97009 0.34565 0.0
C610 C 0.31138 0.9588 0.4136 0.0
C611 C 0.38548 0.95228 0.45432 0.0
N612 N 0.37068 0.96821 0.36916 0.0
N613 N 0.41194 0.95599 0.43217 0.0
H614 H 0.38324 0.77503 0.42335 0.0
H615 H 0.43899 0.80237 0.28446 0.0
H616 H 0.55118 0.79766 0.40367 0.0
H617 H 0.25909 0.79509 0.3182 0.0
H618 H 0.48943 0.79599 0.32429 0.0
H619 H 0.34695 0.77709 0.38072 0.0
C620 C 0.41285 0.78035 0.40998 0.0
C621 C 0.46993 0.78638 0.41719 0.0
C622 C 0.43898 0.79569 0.32275 0.0
C623 C 0.42815 0.78886 0.36811 0.0
C624 C 0.41033 0.79924 0.3001 0.0
C625 C 0.34488 0.79932 0.2982 0.0
C626 C 0.40165 0.79193 0.34321 0.0
C627 C 0.30967 0.79528 0.31895 0.0
C628 C 0.39197 0.78154 0.38561 0.0
C629 C 0.50662 0.79297 0.39889 0.0
N630 N 0.33843 0.79175 0.34049 0.0
N631 N 0.48479 0.79417 0.37513 0.0
H632 H 0.7302 0.55353 0.07033 0.0
H633 H 0.38998 0.56511 0.12315 0.0
H634 H 0.56697 0.55462 0.02325 0.0
H635 H 0.54227 0.55076 0.16921 0.0
H636 H 0.45335 0.5606 0.08626 0.0
H637 H 0.66242 0.55157 0.10671 0.0
C638 C 0.68005 0.55315 0.06764 0.0
C639 C 0.65403 0.55437 0.0438 0.0
C640 C 0.47271 0.55826 0.1044 0.0
C641 C 0.57627 0.55234 0.08532 0.0
C642 C 0.43666 0.56089 0.12546 0.0
C643 C 0.46123 0.55842 0.14924 0.0
C644 C 0.53423 0.55336 0.10713 0.0
C645 C 0.52171 0.55285 0.1512 0.0
C646 C 0.6414 0.55201 0.08841 0.0
C647 C 0.58886 0.55375 0.04133 0.0
N648 N 0.55657 0.55069 0.1304 0.0
N649 N 0.55212 0.55301 0.0619 0.0
H650 H 0.51351 0.71585 0.22498 0.0
H651 H 0.61271 0.73777 0.08865 0.0
H652 H 0.67216 0.74188 0.20691 0.0
H653 H 0.44097 0.7155 0.10369 0.0
H654 H 0.62501 0.74233 0.13281 0.0
H655 H 0.47419 0.71895 0.18234 0.0
C656 C 0.53843 0.72274 0.21233 0.0
C657 C 0.59594 0.72866 0.21925 0.0
C658 C 0.58423 0.73653 0.1266 0.0
C659 C 0.55288 0.73187 0.17062 0.0
C660 C 0.57745 0.73384 0.10134 0.0
C661 C 0.52633 0.72604 0.0926 0.0
C662 C 0.54026 0.73113 0.14349 0.0
C663 C 0.4814 0.72145 0.10979 0.0
C664 C 0.51653 0.72436 0.18794 0.0
C665 C 0.62754 0.73718 0.20216 0.0
N666 N 0.48993 0.72386 0.13456 0.0
N667 N 0.60608 0.73837 0.17856 0.0
H668 H 0.43751 0.46311 0.82928 0.0
H669 H 0.47116 0.46562 0.97746 0.0
H670 H 0.58815 0.44398 0.87056 0.0
H671 H 0.29796 0.47271 0.93839 0.0
H672 H 0.52564 0.46448 0.9374 0.0
H673 H 0.3965 0.47293 0.8683 0.0
C674 C 0.46228 0.46113 0.84649 0.0
C675 C 0.51557 0.45253 0.84683 0.0
C676 C 0.47591 0.46659 0.93766 0.0
C677 C 0.46971 0.46381 0.89123 0.0
C678 C 0.445 0.46737 0.9605 0.0
C679 C 0.37999 0.46907 0.96112 0.0
C680 C 0.44144 0.4676 0.91545 0.0
C681 C 0.34811 0.47119 0.93863 0.0
C682 C 0.43897 0.46672 0.8687 0.0
C683 C 0.54624 0.45035 0.86957 0.0
N684 N 0.37901 0.47022 0.91666 0.0
N685 N 0.52267 0.45587 0.89087 0.0
H686 H 0.31155 0.28155 0.81816 0.0
H687 H 0.34807 0.28913 0.96566 0.0
H688 H 0.16388 0.29548 0.86691 0.0
H689 H 0.50243 0.28944 0.91413 0.0
H690 H 0.27662 0.28453 0.93083 0.0
H691 H 0.37802 0.27744 0.8546 0.0
C692 C 0.29276 0.28347 0.83654 0.0
C693 C 0.23264 0.28907 0.83958 0.0
C694 C 0.32629 0.28538 0.92727 0.0
C695 C 0.30796 0.28441 0.88114 0.0
C696 C 0.36698 0.28794 0.94711 0.0
C697 C 0.43092 0.28987 0.94263 0.0
C698 C 0.35007 0.2846 0.90295 0.0
C699 C 0.4532 0.28823 0.91828 0.0
C700 C 0.33069 0.28119 0.85729 0.0
C701 C 0.2104 0.29136 0.86378 0.0
N702 N 0.41277 0.2858 0.8993 0.0
N703 N 0.24827 0.28914 0.88365 0.0
H704 H 0.4186 0.03517 0.01398 0.0
H705 H 0.58528 0.9598 0.99731 0.0
H706 H 0.32493 0.99897 0.98243 0.0
H707 H 0.67434 0.99668 0.02855 0.0
H708 H 0.4888 0.97356 0.99203 0.0
H709 H 0.51229 0.02087 0.01977 0.0
C710 C 0.41775 0.0242 0.00827 0.0
C711 C 0.36388 0.01827 0.99769 0.0
C712 C 0.52951 0.97861 1.00007 0.0
C713 C 0.47128 1.00176 0.00425 0.0
C714 C 0.5845 0.97076 0.00309 0.0
C715 C 0.63795 0.9771 0.01335 0.0
C716 C 0.52812 0.99288 0.00737 0.0
C717 C 0.63436 0.99134 0.02052 0.0
C718 C 0.47131 0.01602 0.01159 0.0
C719 C 0.3655 0.00397 0.99066 0.0
N720 N 0.58059 0.99872 0.01738 0.0
N721 N 0.41835 0.9962 0.99405 0.0
H722 H 0.64464 0.2607 0.99755 0.0
H723 H 0.98874 0.2457 0.94568 0.0
H724 H 0.75836 0.29301 0.96362 0.0
H725 H 0.8694 0.21393 0.97804 0.0
H726 H 0.90509 0.26309 0.95083 0.0
H727 H 0.72641 0.2435 0.98956 0.0
C728 C 0.68695 0.2642 0.98838 0.0
C729 C 0.69469 0.27836 0.9813 0.0
C730 C 0.8971 0.25231 0.95669 0.0
C731 C 0.78915 0.25856 0.97204 0.0
C732 C 0.94478 0.24236 0.95373 0.0
C733 C 0.93605 0.22833 0.96149 0.0
C734 C 0.84026 0.24821 0.96756 0.0
C735 C 0.8782 0.22461 0.9718 0.0
C736 C 0.73372 0.25432 0.98378 0.0
C737 C 0.75052 0.28221 0.96942 0.0
N738 N 0.83269 0.23449 0.97461 0.0
N739 N 0.79577 0.27236 0.96521 0.0
H740 H 0.28311 0.25687 0.20719 0.0
H741 H 0.45272 0.29467 0.3143 0.0
H742 H 0.24345 0.24595 0.2833 0.0
H743 H 0.41476 0.31642 0.24564 0.0
H744 H 0.3686 0.278 0.30487 0.0
H745 H 0.32306 0.27977 0.22107 0.0
C746 C 0.28124 0.25949 0.22679 0.0
C747 C 0.26013 0.24954 0.24416 0.0
C748 C 0.37722 0.28667 0.2922 0.0
C749 C 0.30764 0.27551 0.26027 0.0
C750 C 0.42511 0.2962 0.29762 0.0
C751 C 0.44051 0.30691 0.28072 0.0
C752 C 0.34597 0.28756 0.2693 0.0
C753 C 0.40393 0.30836 0.25923 0.0
C754 C 0.30402 0.27256 0.23472 0.0
C755 C 0.25902 0.25339 0.26934 0.0
N756 N 0.35939 0.29854 0.25379 0.0
N757 N 0.28403 0.26594 0.27673 0.0
H758 H 0.50005 0.01516 0.2814 0.0
H759 H 0.6442 0.05774 0.17204 0.0
H760 H 0.47132 0.00336 0.20486 0.0
H761 H 0.63159 0.07383 0.24691 0.0
H762 H 0.56226 0.04062 0.18164 0.0
H763 H 0.52916 0.03888 0.26815 0.0
C764 C 0.49838 0.01772 0.26178 0.0
C765 C 0.48386 0.0073 0.24417 0.0
C766 C 0.57599 0.04816 0.19577 0.0
C767 C 0.51922 0.03433 0.22868 0.0
C768 C 0.62261 0.05802 0.19025 0.0
C769 C 0.64581 0.06702 0.20888 0.0
C770 C 0.55317 0.04718 0.2202 0.0
C771 C 0.61581 0.06696 0.23206 0.0
C772 C 0.51507 0.03127 0.25418 0.0
C773 C 0.48227 0.01113 0.219 0.0
N774 N 0.57226 0.05693 0.23727 0.0
N775 N 0.50137 0.02425 0.21193 0.0
H776 H 0.53043 0.76907 0.03283 0.0
H777 H 0.37445 0.80777 0.92178 0.0
H778 H 0.55067 0.75534 0.95689 0.0
H779 H 0.38135 0.82449 0.99635 0.0
H780 H 0.46208 0.79228 0.93171 0.0
H781 H 0.50077 0.79249 0.01822 0.0
C782 C 0.53047 0.77117 0.01303 0.0
C783 C 0.5423 0.76029 0.99601 0.0
C784 C 0.44576 0.79962 0.94571 0.0
C785 C 0.50581 0.78689 0.97903 0.0
C786 C 0.39582 0.80855 0.93999 0.0
C787 C 0.36943 0.81716 0.95848 0.0
C788 C 0.46876 0.79919 0.97018 0.0
C789 C 0.39943 0.81783 0.98165 0.0
C790 C 0.51328 0.78453 0.00464 0.0
C791 C 0.54179 0.76349 0.97058 0.0
N792 N 0.44638 0.80868 0.98705 0.0
N793 N 0.522 0.77642 0.96281 0.0
H794 H 0.60935 0.78028 0.76639 0.0
H795 H 0.48563 0.7005 0.75055 0.0
H796 H 0.7197 0.74676 0.73444 0.0
H797 H 0.37336 0.73467 0.77915 0.0
H798 H 0.57321 0.71705 0.74556 0.0
H799 H 0.52317 0.76353 0.77223 0.0
C800 C 0.61545 0.76941 0.76061 0.0
C801 C 0.6718 0.76494 0.74988 0.0
C802 C 0.52939 0.72091 0.75296 0.0
C803 C 0.57343 0.74566 0.75653 0.0
C804 C 0.47946 0.71145 0.75583 0.0
C805 C 0.42206 0.7162 0.76524 0.0
C806 C 0.52188 0.7352 0.75959 0.0
C807 C 0.41669 0.73053 0.77177 0.0
C808 C 0.56626 0.75983 0.76394 0.0
C809 C 0.67708 0.7507 0.74276 0.0
N810 N 0.46578 0.73949 0.76882 0.0
N811 N 0.62865 0.74159 0.7462 0.0
H812 H 0.34541 0.93732 0.75872 0.0
H813 H 0.48503 0.01147 0.80037 0.0
H814 H 0.32406 0.95504 0.83214 0.0
H815 H 0.46838 0.99674 0.72486 0.0
H816 H 0.45951 0.98755 0.81507 0.0
H817 H 0.42462 0.95517 0.74964 0.0
C818 C 0.35888 0.94465 0.77325 0.0
C819 C 0.32699 0.94489 0.79602 0.0
C820 C 0.46333 0.98947 0.79529 0.0
C821 C 0.41661 0.96557 0.78554 0.0
C822 C 0.47841 0.00307 0.78694 0.0
C823 C 0.47819 0.00603 0.76142 0.0
C824 C 0.44844 0.97884 0.77791 0.0
C825 C 0.46842 0.99486 0.74471 0.0
C826 C 0.4038 0.95494 0.76797 0.0
C827 C 0.34671 0.95463 0.81416 0.0
N828 N 0.45318 0.98183 0.75323 0.0
N829 N 0.38919 0.96479 0.80834 0.0
H830 H 0.69985 0.49511 0.52418 0.0
H831 H 0.3509 0.50416 0.47329 0.0
H832 H 0.59988 0.46258 0.48436 0.0
H833 H 0.4508 0.53716 0.51194 0.0
H834 H 0.44254 0.48904 0.47649 0.0
H835 H 0.6104 0.51084 0.51916 0.0
C836 C 0.65907 0.49128 0.51431 0.0
C837 C 0.65721 0.47749 0.50471 0.0
C838 C 0.44463 0.49958 0.48425 0.0
C839 C 0.55449 0.49546 0.49895 0.0
C840 C 0.39225 0.50825 0.48244 0.0
C841 C 0.39316 0.52195 0.49244 0.0
C842 C 0.49857 0.50461 0.49619 0.0
C843 C 0.44809 0.52667 0.50402 0.0
C844 C 0.608 0.50028 0.51146 0.0
C845 C 0.60325 0.47311 0.49207 0.0
N846 N 0.49862 0.51799 0.50564 0.0
N847 N 0.55396 0.48206 0.48961 0.0
H848 H 0.52439 0.73787 0.47454 0.0
H849 H 0.6963 0.70146 0.58272 0.0
H850 H 0.49212 0.74958 0.55086 0.0
H851 H 0.68041 0.68268 0.50993 0.0
H852 H 0.60463 0.71594 0.57388 0.0
H853 H 0.563 0.71495 0.48826 0.0
C854 C 0.52373 0.7354 0.4942 0.0
C855 C 0.5057 0.74561 0.51164 0.0
C856 C 0.61986 0.70835 0.56009 0.0
C857 C 0.55209 0.71961 0.52763 0.0
C858 C 0.67216 0.70003 0.56519 0.0
C859 C 0.69669 0.69107 0.54683 0.0
C860 C 0.59291 0.70791 0.53628 0.0
C861 C 0.66343 0.68957 0.52451 0.0
C862 C 0.54588 0.72232 0.50207 0.0
C863 C 0.50569 0.74195 0.53687 0.0
N864 N 0.61427 0.69821 0.51958 0.0
N865 N 0.53032 0.72937 0.5442 0.0
H866 H 0.95861 0.49117 0.72664 0.0
H867 H 0.74682 0.45906 0.8269 0.0
H868 H 0.9705 0.50521 0.8027 0.0
H869 H 0.80049 0.43502 0.76239 0.0
H870 H 0.8382 0.47422 0.82117 0.0
H871 H 0.91206 0.46901 0.74069 0.0
C872 C 0.95308 0.48936 0.74641 0.0
C873 C 0.96823 0.49999 0.76357 0.0
C874 C 0.83145 0.46535 0.80873 0.0
C875 C 0.91284 0.47488 0.77976 0.0
C876 C 0.77947 0.45665 0.8121 0.0
C877 C 0.76665 0.44575 0.79519 0.0
C878 C 0.86948 0.46346 0.78772 0.0
C879 C 0.80941 0.44322 0.776 0.0
C880 C 0.92645 0.47672 0.75444 0.0
C881 C 0.95975 0.49721 0.78893 0.0
N882 N 0.85811 0.45226 0.77236 0.0
N883 N 0.93104 0.48506 0.79625 0.0
H884 H 0.10652 0.25118 0.50223 0.0
H885 H 0.46295 0.24197 0.46028 0.0
H886 H 0.21875 0.28532 0.47343 0.0
H887 H 0.34962 0.20797 0.48891 0.0
H888 H 0.37394 0.25793 0.46437 0.0
H889 H 0.19471 0.23519 0.49689 0.0
C890 C 0.14978 0.25532 0.49473 0.0
C891 C 0.15535 0.26962 0.48828 0.0
C892 C 0.36844 0.24698 0.46973 0.0
C893 C 0.25676 0.25131 0.48213 0.0
C894 C 0.41925 0.23785 0.4674 0.0
C895 C 0.41365 0.22362 0.4743 0.0
C896 C 0.31153 0.24186 0.47904 0.0
C897 C 0.35596 0.21887 0.48338 0.0
C898 C 0.20016 0.24616 0.49169 0.0
C899 C 0.21249 0.27437 0.47865 0.0
N900 N 0.30715 0.22797 0.48552 0.0
N901 N 0.26106 0.26524 0.47589 0.0
H902 H 0.97224 0.51091 0.26334 0.0
H903 H 0.2261 0.53678 0.17099 0.0
H904 H 0.01931 0.48808 0.19653 0.0
H905 H 0.14023 0.56484 0.22396 0.0
H906 H 0.13831 0.52052 0.17546 0.0
H907 H 0.01816 0.53223 0.24546 0.0
C908 C 0.99043 0.5105 0.24456 0.0
C909 C 0.99278 0.49765 0.23154 0.0
C910 C 0.13751 0.53039 0.18565 0.0
C911 C 0.04707 0.52192 0.21123 0.0
C912 C 0.18762 0.53969 0.18303 0.0
C913 C 0.19033 0.5521 0.19721 0.0
C914 C 0.09069 0.5333 0.20322 0.0
C915 C 0.1396 0.55538 0.21263 0.0
C916 C 0.01689 0.52268 0.23438 0.0
C917 C 0.01681 0.49773 0.20729 0.0
N918 N 0.09251 0.54584 0.21574 0.0
N919 N 0.04446 0.50958 0.19817 0.0
H920 H 0.00781 0.94593 0.49183 0.0
H921 H 0.88454 0.02522 0.51006 0.0
H922 H 0.12019 0.98047 0.51931 0.0
H923 H 0.77361 0.99249 0.47566 0.0
H924 H 0.96974 0.00839 0.51519 0.0
H925 H 0.91958 0.96231 0.48699 0.0
C926 C 0.0139 0.95694 0.49679 0.0
C927 C 0.07133 0.96186 0.50595 0.0
C928 C 0.9268 0.00486 0.50652 0.0
C929 C 0.97112 0.98055 0.50062 0.0
C930 C 0.87809 0.01447 0.50364 0.0
C931 C 0.82203 0.01024 0.49239 0.0
C932 C 0.91947 0.99089 0.49814 0.0
C933 C 0.81619 0.99618 0.48441 0.0
C934 C 0.96366 0.96627 0.49405 0.0
C935 C 0.0768 0.97621 0.51214 0.0
N936 N 0.86438 0.98698 0.48743 0.0
N937 N 0.02741 0.98501 0.5094 0.0
H938 H 0.81704 0.21708 0.80275 0.0
H939 H 0.91033 0.29651 0.77052 0.0
H940 H 0.75086 0.23958 0.73824 0.0
H941 H 0.01008 0.26929 0.82086 0.0
H942 H 0.82603 0.27884 0.76817 0.0
H943 H 0.85988 0.23917 0.8191 0.0
C944 C 0.80959 0.22674 0.79241 0.0
C945 C 0.78133 0.22643 0.76887 0.0
C946 C 0.86552 0.27694 0.78032 0.0
C947 C 0.83127 0.25171 0.78728 0.0
C948 C 0.91323 0.28708 0.78183 0.0
C949 C 0.96709 0.28426 0.79581 0.0
C950 C 0.8719 0.26404 0.79305 0.0
C951 C 0.96929 0.27179 0.80978 0.0
C952 C 0.83456 0.23935 0.80167 0.0
C953 C 0.77311 0.23931 0.75632 0.0
N954 N 0.92282 0.26207 0.80784 0.0
N955 N 0.79905 0.25138 0.76543 0.0
H956 H 0.03096 0.80153 0.2636 0.0
H957 H 0.91195 0.72154 0.24771 0.0
H958 H 0.14622 0.76778 0.23532 0.0
H959 H 0.80152 0.75474 0.28069 0.0
H960 H 0.99786 0.7384 0.24215 0.0
H961 H 0.94537 0.78462 0.26924 0.0
C962 C 0.03824 0.79057 0.25861 0.0
C963 C 0.09575 0.78605 0.24901 0.0
C964 C 0.95481 0.74198 0.25062 0.0
C965 C 0.9982 0.76665 0.25532 0.0
C966 C 0.90581 0.73236 0.25377 0.0
C967 C 0.84957 0.73674 0.26468 0.0
C968 C 0.94737 0.75608 0.25838 0.0
C969 C 0.8441 0.75089 0.27221 0.0
C970 C 0.98944 0.78091 0.26182 0.0
C971 C 0.10266 0.77172 0.24282 0.0
N972 N 0.89227 0.76004 0.2689 0.0
N973 N 0.05451 0.76255 0.24605 0.0
H974 H 0.06986 0.47047 0.99765 0.0
H975 H 0.97729 0.55247 0.01025 0.0
H976 H 0.1899 0.50195 0.03072 0.0
H977 H 0.85761 0.52088 0.97729 0.0
H978 H 0.05628 0.53418 0.01772 0.0
H979 H 0.99113 0.48879 0.99023 0.0
C980 C 0.07952 0.48121 0.00346 0.0
C981 C 0.13652 0.48467 0.01483 0.0
C982 C 0.01275 0.53126 0.00881 0.0
C983 C 0.04689 0.50573 0.00628 0.0
C984 C 0.96776 0.54172 0.00449 0.0
C985 C 0.91078 0.53821 0.99314 0.0
C986 C 0.00065 0.5172 0.00173 0.0
C987 C 0.90085 0.52408 0.98612 0.0
C988 C 0.03466 0.49168 0.99916 0.0
C989 C 0.14661 0.49879 0.0219 0.0
N990 N 0.94517 0.51412 0.99055 0.0
N991 N 0.10238 0.50878 0.01748 0.0
H992 H 0.17571 0.02465 0.90018 0.0
H993 H 0.33827 0.07394 0.79954 0.0
H994 H 0.23083 0.06794 0.91215 0.0
H995 H 0.2714 0.03226 0.78149 0.0
H996 H 0.28231 0.07289 0.83888 0.0
H997 H 0.19505 0.02777 0.8553 0.0
C998 C 0.19073 0.03485 0.89331 0.0
C999 C 0.20273 0.04598 0.90989 0.0
C1000 C 0.27858 0.06402 0.82623 0.0
C1001 C 0.22473 0.04964 0.85894 0.0
C1002 C 0.31023 0.0647 0.80366 0.0
C1003 C 0.30914 0.05321 0.78732 0.0
C1004 C 0.24708 0.05156 0.83295 0.0
C1005 C 0.27271 0.0414 0.79358 0.0
C1006 C 0.20184 0.03663 0.86776 0.0
C1007 C 0.22207 0.05899 0.90009 0.0
N1008 N 0.24409 0.04073 0.81621 0.0
N1009 N 0.23292 0.0604 0.87542 0.0
H1010 H 0.12063 0.21585 0.87396 0.0
H1011 H 0.97043 0.16456 0.77231 0.0
H1012 H 0.0729 0.17213 0.88568 0.0
H1013 H 0.99079 0.20946 0.76166 0.0
H1014 H 0.03518 0.16621 0.80956 0.0
H1015 H 0.09883 0.2128 0.82931 0.0
C1016 C 0.10718 0.20554 0.86703 0.0
C1017 C 0.09778 0.19427 0.88349 0.0
C1018 C 0.02662 0.17568 0.79884 0.0
C1019 C 0.07274 0.1907 0.83275 0.0
C1020 C 0.98998 0.17471 0.77743 0.0
C1021 C 0.97454 0.18691 0.76403 0.0
C1022 C 0.04733 0.18897 0.80716 0.0
C1023 C 0.00135 0.19979 0.77151 0.0
C1024 C 0.09442 0.20382 0.84161 0.0
C1025 C 0.07993 0.18115 0.87364 0.0
N1026 N 0.03538 0.20054 0.79288 0.0
N1027 N 0.06748 0.17977 0.84902 0.0
H1028 H 0.55131 0.17474 0.38671 0.0
H1029 H 0.36833 0.22276 0.29571 0.0
H1030 H 0.57188 0.22 0.38919 0.0
H1031 H 0.43376 0.18218 0.27049 0.0
H1032 H 0.44194 0.22174 0.33041 0.0
H1033 H 0.5101 0.17661 0.34431 0.0
C1034 C 0.54867 0.18504 0.37805 0.0
C1035 C 0.56485 0.19725 0.39146 0.0
C1036 C 0.44103 0.21314 0.31711 0.0
C1037 C 0.51597 0.19948 0.34336 0.0
C1038 C 0.39878 0.21368 0.29742 0.0
C1039 C 0.39494 0.2025 0.28036 0.0
C1040 C 0.47849 0.20113 0.3203 0.0
C1041 C 0.43554 0.191 0.28328 0.0
C1042 C 0.52513 0.1861 0.35388 0.0
C1043 C 0.56022 0.21034 0.37946 0.0
N1044 N 0.47487 0.19046 0.30325 0.0
N1045 N 0.53478 0.21114 0.35629 0.0
H1046 H 0.8026 0.05672 0.41492 0.0
H1047 H 0.75408 0.03967 0.27046 0.0
H1048 H 0.65359 0.02967 0.38903 0.0
H1049 H 0.88608 0.06972 0.30018 0.0
H1050 H 0.72272 0.03357 0.31313 0.0
H1051 H 0.83857 0.05948 0.37265 0.0
C1052 C 0.77717 0.05134 0.40028 0.0
C1053 C 0.72463 0.043 0.4056 0.0
C1054 C 0.75904 0.04136 0.31025 0.0
C1055 C 0.76619 0.04616 0.35654 0.0
C1056 C 0.77738 0.04475 0.28596 0.0
C1057 C 0.82281 0.05522 0.28183 0.0
C1058 C 0.78672 0.04845 0.33043 0.0
C1059 C 0.85083 0.06162 0.3025 0.0
C1060 C 0.79797 0.05292 0.37601 0.0
C1061 C 0.69408 0.03626 0.38573 0.0
N1062 N 0.83218 0.05818 0.32581 0.0
N1063 N 0.71524 0.03802 0.36197 0.0
H1064 H 0.82392 0.97558 0.10677 0.0
H1065 H 0.60005 0.93747 0.20277 0.0
H1066 H 0.75629 0.9329 0.09863 0.0
H1067 H 0.69385 0.9764 0.22089 0.0
H1068 H 0.66733 0.93474 0.16658 0.0
H1069 H 0.78757 0.97552 0.15015 0.0
C1070 C 0.80261 0.96612 0.11424 0.0
C1071 C 0.79227 0.9543 0.09899 0.0
C1072 C 0.67436 0.94378 0.17861 0.0
C1073 C 0.75034 0.95418 0.14833 0.0
C1074 C 0.63604 0.94529 0.19933 0.0
C1075 C 0.64185 0.95711 0.21476 0.0
C1076 C 0.71772 0.95442 0.17275 0.0
C1077 C 0.68862 0.96705 0.20947 0.0
C1078 C 0.78179 0.9661 0.13897 0.0
C1079 C 0.76443 0.94232 0.10959 0.0
N1080 N 0.72415 0.96563 0.18856 0.0
N1081 N 0.74388 0.94264 0.13342 0.0
H1082 H 0.25497 0.79453 0.02852 0.0
H1083 H 0.13387 0.82022 0.16146 0.0
H1084 H 0.08286 0.81709 0.04121 0.0
H1085 H 0.3054 0.79686 0.15223 0.0
H1086 H 0.11175 0.81726 0.11755 0.0
H1087 H 0.27023 0.79286 0.07365 0.0
C1088 C 0.21966 0.79883 0.0408 0.0
C1089 C 0.16771 0.80604 0.03114 0.0
C1090 C 0.15425 0.81272 0.12499 0.0
C1091 C 0.18541 0.80439 0.0826 0.0
C1092 C 0.16712 0.81447 0.15014 0.0
C1093 C 0.22191 0.80888 0.16052 0.0
C1094 C 0.19659 0.80541 0.10982 0.0
C1095 C 0.26282 0.80141 0.14492 0.0
C1096 C 0.22868 0.79797 0.06653 0.0
C1097 C 0.12373 0.81151 0.04784 0.0
N1098 N 0.24953 0.79996 0.12024 0.0
N1099 N 0.1339 0.81069 0.0727 0.0
H1100 H 0.84063 0.77762 0.65072 0.0
H1101 H 0.59 0.81343 0.56185 0.0
H1102 H 0.73989 0.81586 0.66781 0.0
H1103 H 0.70987 0.77994 0.53617 0.0
H1104 H 0.653 0.81556 0.59932 0.0
H1105 H 0.80213 0.77905 0.60764 0.0
C1106 C 0.81131 0.78642 0.64532 0.0
C1107 C 0.79277 0.79654 0.66295 0.0
C1108 C 0.66652 0.80786 0.58544 0.0
C1109 C 0.74856 0.79821 0.61395 0.0
C1110 C 0.63056 0.80669 0.56398 0.0
C1111 C 0.64494 0.79652 0.54598 0.0
C1112 C 0.71654 0.79852 0.58937 0.0
C1113 C 0.69775 0.78799 0.54962 0.0
C1114 C 0.78933 0.78722 0.62077 0.0
C1115 C 0.75476 0.80771 0.65498 0.0
N1116 N 0.73116 0.789 0.57118 0.0
N1117 N 0.73357 0.80816 0.63123 0.0
H1118 H 0.11437 0.92775 0.59306 0.0
H1119 H 0.20621 0.9617 0.72406 0.0
H1120 H 0.27217 0.95573 0.60194 0.0
H1121 H 0.04761 0.93443 0.71163 0.0
H1122 H 0.22593 0.96193 0.67914 0.0
H1123 H 0.08602 0.93178 0.63611 0.0
C1124 C 0.14336 0.93473 0.60413 0.0
C1125 C 0.19611 0.94132 0.5939 0.0
C1126 C 0.18624 0.9561 0.68622 0.0
C1127 C 0.16345 0.94608 0.6436 0.0
C1128 C 0.17458 0.95607 0.71183 0.0
C1129 C 0.12537 0.94796 0.72157 0.0
C1130 C 0.14839 0.94795 0.67037 0.0
C1131 C 0.08625 0.94076 0.70493 0.0
C1132 C 0.12686 0.93709 0.62878 0.0
C1133 C 0.2314 0.95035 0.60916 0.0
N1134 N 0.09899 0.94081 0.68023 0.0
N1135 N 0.2146 0.95242 0.63335 0.0
H1136 H 0.22825 0.5305 0.40051 0.0
H1137 H 0.33427 0.58475 0.29593 0.0
H1138 H 0.29072 0.57296 0.41587 0.0
H1139 H 0.34816 0.53979 0.28431 0.0
H1140 H 0.30696 0.58058 0.33922 0.0
H1141 H 0.25922 0.53365 0.35673 0.0
C1142 C 0.24781 0.5405 0.39461 0.0
C1143 C 0.25679 0.55152 0.41173 0.0
C1144 C 0.31642 0.57159 0.32732 0.0
C1145 C 0.29223 0.55513 0.36216 0.0
C1146 C 0.33205 0.57397 0.30262 0.0
C1147 C 0.34364 0.56259 0.28664 0.0
C1148 C 0.31114 0.55771 0.3361 0.0
C1149 C 0.34007 0.54883 0.2962 0.0
C1150 C 0.26599 0.54223 0.36978 0.0
C1151 C 0.28297 0.5642 0.40328 0.0
N1152 N 0.3234 0.54674 0.32037 0.0
N1153 N 0.29948 0.56567 0.37912 0.0
H1154 H 0.68495 0.72307 0.36397 0.0
H1155 H 0.93976 0.68728 0.45326 0.0
H1156 H 0.81395 0.69032 0.34212 0.0
H1157 H 0.80345 0.71707 0.48037 0.0
H1158 H 0.90086 0.69081 0.4112 0.0
H1159 H 0.73105 0.7228 0.40594 0.0
C1160 C 0.72251 0.71577 0.36804 0.0
C1161 C 0.7454 0.70665 0.34955 0.0
C1162 C 0.87969 0.69673 0.42623 0.0
C1163 C 0.79892 0.70648 0.39714 0.0
C1164 C 0.90233 0.69479 0.45026 0.0
C1165 C 0.87468 0.70186 0.47032 0.0
C1166 C 0.8284 0.70569 0.42215 0.0
C1167 C 0.82625 0.71146 0.46536 0.0
C1168 C 0.74906 0.71569 0.3919 0.0
C1169 C 0.79455 0.69751 0.35575 0.0
N1170 N 0.80401 0.71298 0.44176 0.0
N1171 N 0.81956 0.69768 0.3789 0.0
H1172 H 0.38729 0.73375 0.94843 0.0
H1173 H 0.28165 0.67483 0.85941 0.0
H1174 H 0.34723 0.6923 0.97724 0.0
H1175 H 0.22379 0.71785 0.84693 0.0
H1176 H 0.30201 0.6806 0.90306 0.0
H1177 H 0.3238 0.72843 0.91175 0.0
C1178 C 0.36368 0.72364 0.94723 0.0
C1179 C 0.37219 0.71343 0.96572 0.0
C1180 C 0.28344 0.68869 0.89092 0.0
C1181 C 0.3016 0.70708 0.92357 0.0
C1182 C 0.27207 0.68542 0.86602 0.0
C1183 C 0.25165 0.69593 0.84956 0.0
C1184 C 0.27603 0.70265 0.89919 0.0
C1185 C 0.2397 0.70946 0.85903 0.0
C1186 C 0.32747 0.72061 0.92635 0.0
C1187 C 0.34123 0.70045 0.96335 0.0
N1188 N 0.25352 0.71254 0.88312 0.0
N1189 N 0.30846 0.69748 0.94227 0.0
H1190 H 0.80466 0.53161 0.79212 0.0
H1191 H 0.79252 0.58606 0.90178 0.0
H1192 H 0.85836 0.57519 0.78457 0.0
H1193 H 0.70127 0.54549 0.90536 0.0
H1194 H 0.80119 0.58353 0.85682 0.0
H1195 H 0.74913 0.53746 0.83059 0.0
C1196 C 0.80225 0.54253 0.79808 0.0
C1197 C 0.83514 0.553 0.78522 0.0
C1198 C 0.77829 0.57525 0.86729 0.0
C1199 C 0.7748 0.55969 0.82961 0.0
C1200 C 0.77358 0.57668 0.893 0.0
C1201 C 0.7471 0.56585 0.90728 0.0
C1202 C 0.75764 0.56276 0.8558 0.0
C1203 C 0.72252 0.55402 0.89498 0.0
C1204 C 0.77117 0.54586 0.82014 0.0
C1205 C 0.83261 0.56691 0.79392 0.0
N1206 N 0.72952 0.55265 0.86995 0.0
N1207 N 0.80396 0.56982 0.81586 0.0
H1208 H 0.78848 0.46671 0.60354 0.0
H1209 H 0.61543 0.41603 0.7 0.0
H1210 H 0.72053 0.42506 0.58527 0.0
H1211 H 0.62569 0.46106 0.71137 0.0
H1212 H 0.66131 0.419 0.65889 0.0
H1213 H 0.73902 0.46462 0.64474 0.0
C1214 C 0.76395 0.45708 0.60833 0.0
C1215 C 0.75868 0.44602 0.59106 0.0
C1216 C 0.65302 0.42828 0.6702 0.0
C1217 C 0.7019 0.44362 0.63772 0.0
C1218 C 0.62659 0.42659 0.69364 0.0
C1219 C 0.61645 0.43832 0.70899 0.0
C1220 C 0.67064 0.4418 0.66213 0.0
C1221 C 0.63213 0.45176 0.69992 0.0
C1222 C 0.73522 0.45596 0.63167 0.0
C1223 C 0.72572 0.43385 0.59802 0.0
N1224 N 0.65919 0.45314 0.67712 0.0
N1225 N 0.69879 0.43297 0.62077 0.0
H1226 H 0.0402 0.31966 0.57715 0.0
H1227 H 0.12337 0.2784 0.70102 0.0
H1228 H 0.00226 0.27509 0.5836 0.0
H1229 H 0.07173 0.32242 0.69994 0.0
H1230 H 0.09245 0.27654 0.65698 0.0
H1231 H 0.06435 0.32055 0.62142 0.0
C1232 C 0.03651 0.31007 0.58801 0.0
C1233 C 0.01901 0.29729 0.57681 0.0
C1234 C 0.0879 0.28656 0.66651 0.0
C1235 C 0.04794 0.29817 0.62742 0.0
C1236 C 0.10601 0.28767 0.69147 0.0
C1237 C 0.10032 0.3006 0.70404 0.0
C1238 C 0.06524 0.29855 0.65407 0.0
C1239 C 0.07694 0.31225 0.69096 0.0
C1240 C 0.05028 0.31058 0.61326 0.0
C1241 C 0.01505 0.28516 0.59168 0.0
N1242 N 0.06072 0.31098 0.66668 0.0
N1243 N 0.0302 0.28584 0.61628 0.0
H1244 H 0.63783 0.32709 0.06919 0.0
H1245 H 0.62267 0.29222 0.20401 0.0
H1246 H 0.53419 0.28874 0.0827 0.0
H1247 H 0.64445 0.33692 0.19133 0.0
H1248 H 0.61086 0.28869 0.15884 0.0
H1249 H 0.6609 0.32875 0.11349 0.0
C1250 C 0.62005 0.31898 0.0815 0.0
C1251 C 0.58364 0.30781 0.07233 0.0
C1252 C 0.61874 0.29923 0.16605 0.0
C1253 C 0.61056 0.30958 0.12303 0.0
C1254 C 0.626 0.30122 0.19169 0.0
C1255 C 0.63435 0.31488 0.20128 0.0
C1256 C 0.62115 0.31095 0.1501 0.0
C1257 C 0.63778 0.32623 0.18465 0.0
C1258 C 0.63321 0.31995 0.10677 0.0
C1259 C 0.56194 0.29759 0.08912 0.0
N1260 N 0.63125 0.32401 0.15988 0.0
N1261 N 0.57588 0.2987 0.11376 0.0
H1262 H 0.13041 0.42981 0.21311 0.0
H1263 H 0.31804 0.47233 0.10876 0.0
H1264 H 0.19693 0.47237 0.22394 0.0
H1265 H 0.22905 0.43187 0.09825 0.0
H1266 H 0.2939 0.47094 0.15345 0.0
H1267 H 0.18803 0.42861 0.17411 0.0
C1268 C 0.15834 0.43881 0.20751 0.0
C1269 C 0.15844 0.45125 0.22165 0.0
C1270 C 0.28054 0.46229 0.14137 0.0
C1271 C 0.22332 0.45012 0.17655 0.0
C1272 C 0.29446 0.46307 0.11592 0.0
C1273 C 0.27477 0.45228 0.09979 0.0
C1274 C 0.24729 0.4506 0.15061 0.0
C1275 C 0.24433 0.44052 0.10997 0.0
C1276 C 0.19099 0.43816 0.18513 0.0
C1277 C 0.19562 0.46258 0.21356 0.0
N1278 N 0.23121 0.44005 0.13462 0.0
N1279 N 0.22572 0.46185 0.19127 0.0
H1280 H 0.21188 0.16052 0.98456 0.0
H1281 H 0.06683 0.0831 0.99376 0.0
H1282 H 0.0136 0.15223 0.98299 0.0
H1283 H 0.26353 0.09205 0.00195 0.0
H1284 H 0.04558 0.10842 0.99274 0.0
H1285 H 0.23087 0.13569 0.9937 0.0
C1286 C 0.17223 0.15347 0.98628 0.0
C1287 C 0.11104 0.15841 0.9828 0.0
C1288 C 0.09334 0.10488 0.995 0.0
C1289 C 0.13255 0.12989 0.99317 0.0
C1290 C 0.10555 0.09041 0.99559 0.0
C1291 C 0.16715 0.08548 0.99775 0.0
C1292 C 0.14315 0.1145 0.99638 0.0
C1293 C 0.21539 0.09541 1.00018 0.0
C1294 C 0.18314 0.13928 0.99156 0.0
C1295 C 0.0615 0.14883 0.98545 0.0
N1296 N 0.20242 0.10945 0.99919 0.0
N1297 N 0.07337 0.13498 0.99026 0.0
H1298 H 0.04562 0.18462 0.23194 0.0
H1299 H 0.02702 0.10016 0.22088 0.0
H1300 H 0.20534 0.15688 0.23007 0.0
H1301 H 0.86377 0.1266 0.21444 0.0
H1302 H 0.09129 0.12111 0.22643 0.0
H1303 H 0.9767 0.16389 0.22812 0.0
C1304 C 0.06616 0.17418 0.23096 0.0
C1305 C 0.13141 0.1725 0.23132 0.0
C1306 C 0.04146 0.12242 0.22377 0.0
C1307 C 0.053 0.14878 0.22681 0.0
C1308 C 0.00457 0.11041 0.22057 0.0
C1309 C 0.93977 0.11159 0.2171 0.0
C1310 C 0.01374 0.13586 0.22363 0.0
C1311 C 0.91357 0.1252 0.21695 0.0
C1312 C 0.02683 0.16237 0.22865 0.0
C1313 C 0.15542 0.15873 0.22984 0.0
N1314 N 0.95063 0.13682 0.2202 0.0
N1315 N 0.11637 0.14748 0.22763 0.0
H1316 H 0.16049 0.87321 0.97338 0.0
H1317 H 0.81914 0.90774 0.98689 0.0
H1318 H 0.99029 0.85085 0.95585 0.0
H1319 H 0.98871 0.92693 0.01433 0.0
H1320 H 0.88083 0.88749 0.97223 0.0
H1321 H 0.09831 0.89398 0.98451 0.0
C1322 C 0.11011 0.87273 0.97158 0.0
C1323 C 0.08056 0.86027 0.96375 0.0
C1324 C 0.90441 0.89614 0.98149 0.0
C1325 C 0.00891 0.88394 0.97671 0.0
C1326 C 0.86919 0.90767 0.98991 0.0
C1327 C 0.89871 0.919 0.00198 0.0
C1328 C 0.96962 0.89602 0.98502 0.0
C1329 C 0.96382 0.9184 0.00526 0.0
C1330 C 0.07454 0.88455 0.97809 0.0
C1331 C 0.01502 0.86023 0.96187 0.0
N1332 N 0.99695 0.90715 0.99681 0.0
N1333 N 0.98141 0.87185 0.9684 0.0
H1334 H 0.81692 0.84044 0.77558 0.0
H1335 H 0.14291 0.88266 0.78238 0.0
H1336 H 0.99017 0.82531 0.74444 0.0
H1337 H 0.96596 0.90141 0.80189 0.0
H1338 H 0.08866 0.8605 0.77285 0.0
H1339 H 0.87121 0.86205 0.78909 0.0
C1340 C 0.86619 0.84167 0.77154 0.0
C1341 C 0.89887 0.83108 0.75872 0.0
C1342 C 0.0617 0.86944 0.77937 0.0
C1343 C 0.96144 0.85564 0.77435 0.0
C1344 C 0.09278 0.88206 0.78496 0.0
C1345 C 0.05897 0.89392 0.79287 0.0
C1346 C 0.99628 0.86862 0.78177 0.0
C1347 C 0.99392 0.89254 0.79577 0.0
C1348 C 0.89721 0.85398 0.77928 0.0
C1349 C 0.96286 0.83321 0.75411 0.0
N1350 N 0.9647 0.88017 0.79014 0.0
N1351 N 0.9919 0.84518 0.76193 0.0
H1352 H 0.07466 0.65644 0.5387 0.0
H1353 H 0.05405 0.57568 0.4974 0.0
H1354 H 0.90132 0.6333 0.53372 0.0
H1355 H 0.2279 0.59564 0.51806 0.0
H1356 H 0.99807 0.59699 0.50945 0.0
H1357 H 0.13206 0.63461 0.53053 0.0
C1358 C 0.04866 0.64673 0.53605 0.0
C1359 C 0.98304 0.64668 0.5368 0.0
C1360 C 0.04841 0.59673 0.51146 0.0
C1361 C 0.04855 0.62168 0.52719 0.0
C1362 C 0.08056 0.58458 0.50446 0.0
C1363 C 0.14588 0.5839 0.50662 0.0
C1364 C 0.08169 0.60843 0.52052 0.0
C1365 C 0.17757 0.59573 0.51605 0.0
C1366 C 0.08152 0.63428 0.53141 0.0
C1367 C 0.95185 0.63381 0.53331 0.0
N1368 N 0.14517 0.60756 0.52253 0.0
N1369 N 0.98487 0.62185 0.52845 0.0
H1370 H 0.30136 0.63814 0.76613 0.0
H1371 H 0.00154 0.59147 0.73218 0.0
H1372 H 0.11309 0.65408 0.76038 0.0
H1373 H 0.16661 0.57213 0.76316 0.0
H1374 H 0.04948 0.61453 0.73716 0.0
H1375 H 0.26027 0.61393 0.76049 0.0
C1376 C 0.25161 0.63656 0.76363 0.0
C1377 C 0.2106 0.64815 0.76374 0.0
C1378 C 0.07549 0.60528 0.74292 0.0
C1379 C 0.1637 0.62068 0.7571 0.0
C1380 C 0.04815 0.59205 0.74 0.0
C1381 C 0.07993 0.57979 0.74735 0.0
C1382 C 0.13563 0.60645 0.75315 0.0
C1383 C 0.14035 0.58131 0.75734 0.0
C1384 C 0.22825 0.62278 0.76052 0.0
C1385 C 0.14656 0.64551 0.76051 0.0
N1386 N 0.16643 0.59442 0.75993 0.0
N1387 N 0.12533 0.63214 0.75722 0.0
H1388 H 0.96089 0.41387 0.50826 0.0
H1389 H 0.85626 0.33403 0.49009 0.0
H1390 H 0.7726 0.40195 0.48854 0.0
H1391 H 0.04959 0.34699 0.48966 0.0
H1392 H 0.8247 0.35879 0.4894 0.0
H1393 H 0.99444 0.38952 0.50155 0.0
C1394 C 0.92662 0.40612 0.50238 0.0
C1395 C 0.86373 0.4099 0.49911 0.0
C1396 C 0.87403 0.35625 0.48921 0.0
C1397 C 0.90184 0.38197 0.49156 0.0
C1398 C 0.89213 0.34211 0.48968 0.0
C1399 C 0.95569 0.33847 0.4901 0.0
C1400 C 0.91979 0.36687 0.48954 0.0
C1401 C 1.00011 0.34935 0.48937 0.0
C1402 C 0.9459 0.39223 0.49847 0.0
C1403 C 0.82148 0.39947 0.49132 0.0
N1404 N 0.98131 0.36309 0.48942 0.0
N1405 N 0.84118 0.38593 0.48806 0.0
H1406 H 0.80105 0.35263 0.28869 0.0
H1407 H 0.80397 0.43558 0.26154 0.0
H1408 H 0.62979 0.37589 0.27846 0.0
H1409 H 0.95954 0.41226 0.29178 0.0
H1410 H 0.73861 0.41422 0.26542 0.0
H1411 H 0.85933 0.37467 0.28779 0.0
C1412 C 0.77559 0.36243 0.28638 0.0
C1413 C 0.71042 0.36241 0.28366 0.0
C1414 C 0.78698 0.41386 0.27131 0.0
C1415 C 0.77736 0.38788 0.28228 0.0
C1416 C 0.82429 0.42601 0.26903 0.0
C1417 C 0.88741 0.4257 0.27625 0.0
C1418 C 0.81331 0.40133 0.28064 0.0
C1419 C 0.91128 0.41304 0.28589 0.0
C1420 C 0.80897 0.37505 0.28589 0.0
C1421 C 0.68 0.37546 0.28077 0.0
N1422 N 0.87445 0.40141 0.28765 0.0
N1423 N 0.71381 0.38769 0.27992 0.0
H1424 H 0.74076 0.08713 0.50351 0.0
H1425 H 0.49079 0.14942 0.4872 0.0
H1426 H 0.54731 0.08018 0.48429 0.0
H1427 H 0.69044 0.1559 0.48787 0.0
H1428 H 0.5081 0.1241 0.49381 0.0
H1429 H 0.72023 0.11256 0.50563 0.0
C1430 C 0.69388 0.09095 0.5 0.0
C1431 C 0.64582 0.08159 0.49345 0.0
C1432 C 0.54804 0.1311 0.49267 0.0
C1433 C 0.622 0.11055 0.49584 0.0
C1434 C 0.53817 0.14553 0.48896 0.0
C1435 C 0.58928 0.1547 0.48671 0.0
C1436 C 0.60941 0.12589 0.49433 0.0
C1437 C 0.64973 0.14915 0.48922 0.0
C1438 C 0.68221 0.10544 0.50113 0.0
C1439 C 0.58585 0.08707 0.48914 0.0
N1440 N 0.65814 0.13509 0.49279 0.0
N1441 N 0.57569 0.1012 0.49029 0.0
H1442 H 0.59618 0.08246 0.77144 0.0
H1443 H 0.70577 0.14829 0.69212 0.0
H1444 H 0.51374 0.09194 0.70023 0.0
H1445 H 0.68738 0.15198 0.77166 0.0
H1446 H 0.65223 0.12542 0.69379 0.0
H1447 H 0.64748 0.10579 0.77108 0.0
C1448 C 0.58929 0.0894 0.75568 0.0
C1449 C 0.55074 0.08528 0.73582 0.0
C1450 C 0.65976 0.13126 0.71086 0.0
C1451 C 0.60963 0.11175 0.73518 0.0
C1452 C 0.69034 0.14428 0.70994 0.0
C1453 C 0.70067 0.15207 0.73178 0.0
C1454 C 0.64089 0.12574 0.73386 0.0
C1455 C 0.67978 0.14636 0.75439 0.0
C1456 C 0.61811 0.10271 0.75559 0.0
C1457 C 0.54295 0.09471 0.71595 0.0
N1458 N 0.65148 0.13344 0.75491 0.0
N1459 N 0.57261 0.10742 0.716 0.0
H1460 H 0.38276 0.90064 0.52177 0.0
H1461 H 0.32152 0.81782 0.50811 0.0
H1462 H 0.198 0.88445 0.50658 0.0
H1463 H 0.4995 0.83809 0.49578 0.0
H1464 H 0.27328 0.84132 0.51299 0.0
H1465 H 0.42439 0.87685 0.51831 0.0
C1466 C 0.3508 0.89205 0.51776 0.0
C1467 C 0.28681 0.89455 0.51434 0.0
C1468 C 0.32283 0.84054 0.50918 0.0
C1469 C 0.33444 0.86714 0.51038 0.0
C1470 C 0.35035 0.82717 0.50649 0.0
C1471 C 0.41456 0.82602 0.50152 0.0
C1472 C 0.36022 0.85271 0.50728 0.0
C1473 C 0.44982 0.83845 0.49952 0.0
C1474 C 0.3747 0.87845 0.5157 0.0
C1475 C 0.24772 0.88297 0.50921 0.0
N1476 N 0.42229 0.85122 0.50252 0.0
N1477 N 0.27215 0.86971 0.50742 0.0
H1478 H 0.31548 0.93292 0.24648 0.0
H1479 H 0.39501 0.85073 0.23532 0.0
H1480 H 0.49687 0.91476 0.26066 0.0
H1481 H 0.20604 0.86489 0.24795 0.0
H1482 H 0.43129 0.87498 0.23877 0.0
H1483 H 0.27249 0.90886 0.24169 0.0
C1484 C 0.34617 0.92391 0.24851 0.0
C1485 C 0.40982 0.92583 0.25399 0.0
C1486 C 0.38184 0.87284 0.24083 0.0
C1487 C 0.36141 0.89849 0.24836 0.0
C1488 C 0.36099 0.85897 0.23878 0.0
C1489 C 0.29737 0.85575 0.24145 0.0
C1490 C 0.33889 0.88373 0.24539 0.0
C1491 C 0.25556 0.86692 0.24589 0.0
C1492 C 0.32163 0.91022 0.24588 0.0
C1493 C 0.44752 0.91381 0.25651 0.0
N1494 N 0.27703 0.88046 0.24767 0.0
N1495 N 0.42287 0.90072 0.25357 0.0
H1496 H 0.52102 0.66836 0.02226 0.0
H1497 H 0.81451 0.61859 0.99293 0.0
H1498 H 0.69638 0.68594 0.99753 0.0
H1499 H 0.62347 0.60461 0.00033 0.0
H1500 H 0.77868 0.64322 0.99841 0.0
H1501 H 0.56448 0.64486 0.01861 0.0
C1502 C 0.56892 0.66729 0.01604 0.0
C1503 C 0.60493 0.67918 0.01006 0.0
C1504 C 0.74491 0.6347 0.99883 0.0
C1505 C 0.65556 0.65198 0.00574 0.0
C1506 C 0.7653 0.62068 0.99582 0.0
C1507 C 0.72189 0.60953 0.99613 0.0
C1508 C 0.68094 0.63746 0.00247 0.0
C1509 C 0.65868 0.61282 0.99984 0.0
C1510 C 0.5938 0.65379 0.01391 0.0
C1511 C 0.66691 0.67704 0.00221 0.0
N1512 N 0.64035 0.6264 0.00289 0.0
N1513 N 0.69039 0.66366 0.00024 0.0
H1514 H 0.70071 0.66073 0.24326 0.0
H1515 H 0.37021 0.62287 0.21946 0.0
H1516 H 0.52396 0.67887 0.26485 0.0
H1517 H 0.54521 0.6003 0.22032 0.0
H1518 H 0.42673 0.64466 0.23001 0.0
H1519 H 0.64523 0.63943 0.22921 0.0
C1520 C 0.65035 0.66022 0.24507 0.0
C1521 C 0.61699 0.67154 0.25542 0.0
C1522 C 0.45273 0.63494 0.22776 0.0
C1523 C 0.55322 0.64736 0.23905 0.0
C1524 C 0.42053 0.62254 0.22159 0.0
C1525 C 0.453 0.60976 0.21913 0.0
C1526 C 0.51792 0.63458 0.23118 0.0
C1527 C 0.51825 0.60991 0.2222 0.0
C1528 C 0.61871 0.64808 0.23705 0.0
C1529 C 0.55167 0.67035 0.2572 0.0
N1530 N 0.54853 0.6221 0.22806 0.0
N1531 N 0.52197 0.65852 0.24904 0.0
H1532 H 0.25536 0.40479 0.00349 0.0
H1533 H 0.56493 0.35784 0.98494 0.0
H1534 H 0.44256 0.42152 0.00837 0.0
H1535 H 0.38217 0.34012 0.99816 0.0
H1536 H 0.51924 0.3816 0.98734 0.0
H1537 H 0.29947 0.38125 0.99561 0.0
C1538 C 0.30562 0.40352 0.00278 0.0
C1539 C 0.34528 0.41511 0.0068 0.0
C1540 C 0.48914 0.37249 0.98958 0.0
C1541 C 0.3961 0.38828 0.99763 0.0
C1542 C 0.51519 0.35894 0.9881 0.0
C1543 C 0.47743 0.34699 0.99152 0.0
C1544 C 0.42479 0.37408 0.99428 0.0
C1545 C 0.41317 0.34904 0.9956 0.0
C1546 C 0.33082 0.3901 0.99833 0.0
C1547 C 0.41016 0.41287 0.0056 0.0
N1548 N 0.38896 0.36229 0.99691 0.0
N1549 N 0.43348 0.39976 0.00115 0.0
H1550 H 0.37771 0.41146 0.78225 0.0
H1551 H 0.33065 0.32798 0.77484 0.0
H1552 H 0.52905 0.38178 0.79053 0.0
H1553 H 0.17758 0.35635 0.78977 0.0
H1554 H 0.40317 0.3478 0.77729 0.0
H1555 H 0.3034 0.39177 0.782 0.0
C1556 C 0.39536 0.40079 0.78405 0.0
C1557 C 0.45985 0.39827 0.78636 0.0
C1558 C 0.3538 0.34973 0.7801 0.0
C1559 C 0.3748 0.37565 0.78588 0.0
C1560 C 0.31215 0.33841 0.77859 0.0
C1561 C 0.24772 0.34049 0.78204 0.0
C1562 C 0.33115 0.36336 0.7848 0.0
C1563 C 0.2268 0.35426 0.78699 0.0
C1564 C 0.35281 0.38956 0.78398 0.0
C1565 C 0.47985 0.38423 0.78872 0.0
N1566 N 0.26836 0.3652 0.78806 0.0
N1567 N 0.43757 0.37346 0.78823 0.0
loop_
_geom_bond_atom_site_label_1
_geom_bond_atom_site_label_2
_geom_bond_distance
_geom_bond_site_symmetry_2
_ccdc_geom_bond_type
In0 O1 2.296 1_554 S
In0 O2 2.329 1_554 S
In0 O6 2.265 . S
In0 O7 2.323 . S
In0 O8 2.265 . S
In0 O9 2.326 1_554 S
In0 O11 2.293 . S
In0 O12 2.326 1_554 S
O1 In0 2.296 1_556 S
O1 C10 1.240 . S
O2 In0 2.329 1_556 S
O2 C10 1.252 . S
C3 O6 1.252 . S
C3 O7 1.260 . S
C4 O11 1.240 . S
C4 O12 1.245 1_554 S
C5 O8 1.252 . S
C5 O9 1.260 1_554 S
O6 In0 2.265 . S
O6 C3 1.252 . S
O7 In0 2.323 . S
O7 C3 1.260 . S
O8 In0 2.265 . S
O8 C5 1.252 . S
O9 In0 2.326 1_556 S
O9 C5 1.260 1_556 S
C10 O1 1.240 . S
C10 O2 1.252 . S
O11 In0 2.293 . S
O11 C4 1.240 . S
O12 In0 2.326 1_556 S
O12 C4 1.245 1_556 S
In13 O14 2.296 1_654 S
In13 O15 2.329 1_554 S
In13 O19 2.265 1_655 S
In13 O20 2.323 1_655 S
In13 O21 2.265 . S
In13 O22 2.326 1_654 S
In13 O24 2.293 . S
In13 O25 2.326 1_554 S
O14 In13 2.296 1_456 S
O14 C23 1.240 1_455 S
O15 In13 2.329 1_556 S
O15 C23 1.252 . S
C16 O19 1.252 . S
C16 O20 1.260 . S
C17 O24 1.240 . S
C17 O25 1.245 1_554 S
C18 O21 1.252 1_455 S
C18 O22 1.260 1_554 S
O19 In13 2.265 1_455 S
O19 C16 1.252 . S
O20 In13 2.323 1_455 S
O20 C16 1.260 . S
O21 In13 2.265 . S
O21 C18 1.252 1_655 S
O22 In13 2.326 1_456 S
O22 C18 1.260 1_556 S
C23 O14 1.240 1_655 S
C23 O15 1.252 . S
O24 In13 2.293 . S
O24 C17 1.240 . S
O25 In13 2.326 1_556 S
O25 C17 1.245 1_556 S
In26 O27 2.294 . S
In26 O28 2.326 . S
In26 O32 2.266 . S
In26 O33 2.326 . S
In26 O34 2.266 . S
In26 O35 2.326 . S
In26 O37 2.294 . S
In26 O38 2.326 . S
O27 In26 2.294 . S
O27 C36 1.240 . S
O28 In26 2.326 . S
O28 C36 1.252 . S
C29 O32 1.252 . S
C29 O33 1.260 . S
C30 O37 1.240 . S
C30 O38 1.252 . S
C31 O34 1.252 . S
C31 O35 1.260 . S
O32 In26 2.266 . S
O32 C29 1.252 . S
O33 In26 2.326 . S
O33 C29 1.260 . S
O34 In26 2.266 . S
O34 C31 1.252 . S
O35 In26 2.326 . S
O35 C31 1.260 . S
C36 O27 1.240 . S
C36 O28 1.252 . S
O37 In26 2.294 . S
O37 C30 1.240 . S
O38 In26 2.326 . S
O38 C30 1.252 . S
In39 O40 2.301 . S
In39 O41 2.330 . S
In39 O45 2.268 . S
In39 O46 2.321 1_655 S
In39 O47 2.260 1_655 S
In39 O48 2.324 1_655 S
In39 O50 2.292 1_655 S
In39 O51 2.329 . S
O40 In39 2.301 . S
O40 C49 1.240 . S
O41 In39 2.330 . S
O41 C49 1.252 . S
C42 O45 1.252 1_455 S
C42 O46 1.260 . S
C43 O50 1.240 1_655 S
C43 O51 1.252 . S
C44 O47 1.252 . S
C44 O48 1.260 . S
O45 In39 2.268 . S
O45 C42 1.252 1_655 S
O46 In39 2.321 1_455 S
O46 C42 1.260 . S
O47 In39 2.260 1_455 S
O47 C44 1.252 . S
O48 In39 2.324 1_455 S
O48 C44 1.260 . S
C49 O40 1.240 . S
C49 O41 1.252 . S
O50 In39 2.292 1_455 S
O50 C43 1.240 1_455 S
O51 In39 2.329 . S
O51 C43 1.252 . S
In52 O53 2.293 . S
In52 O54 2.326 1_556 S
In52 O58 2.265 . S
In52 O59 2.326 1_556 S
In52 O60 2.265 . S
In52 O61 2.323 . S
In52 O63 2.296 1_556 S
In52 O64 2.329 1_556 S
O53 In52 2.293 . S
O53 C62 1.240 . S
O54 In52 2.326 1_554 S
O54 C62 1.245 1_554 S
C55 O58 1.252 . S
C55 O59 1.260 1_556 S
C56 O63 1.240 . S
C56 O64 1.252 . S
C57 O60 1.252 . S
C57 O61 1.260 . S
O58 In52 2.265 . S
O58 C55 1.252 . S
O59 In52 2.326 1_554 S
O59 C55 1.260 1_554 S
O60 In52 2.265 . S
O60 C57 1.252 . S
O61 In52 2.323 . S
O61 C57 1.260 . S
C62 O53 1.240 . S
C62 O54 1.245 1_556 S
O63 In52 2.296 1_554 S
O63 C56 1.240 . S
O64 In52 2.329 1_554 S
O64 C56 1.252 . S
In65 O66 2.296 1_456 S
In65 O67 2.329 1_556 S
In65 O71 2.265 1_455 S
In65 O72 2.323 1_455 S
In65 O73 2.265 . S
In65 O74 2.326 1_456 S
In65 O76 2.293 . S
In65 O77 2.326 1_556 S
O66 In65 2.296 1_654 S
O66 C75 1.240 1_655 S
O67 In65 2.329 1_554 S
O67 C75 1.252 . S
C68 O71 1.252 . S
C68 O72 1.260 . S
C69 O76 1.240 . S
C69 O77 1.245 1_556 S
C70 O73 1.252 1_655 S
C70 O74 1.260 1_556 S
O71 In65 2.265 1_655 S
O71 C68 1.252 . S
O72 In65 2.323 1_655 S
O72 C68 1.260 . S
O73 In65 2.265 . S
O73 C70 1.252 1_455 S
O74 In65 2.326 1_654 S
O74 C70 1.260 1_554 S
C75 O66 1.240 1_455 S
C75 O67 1.252 . S
O76 In65 2.293 . S
O76 C69 1.240 . S
O77 In65 2.326 1_554 S
O77 C69 1.245 1_554 S
In78 O79 2.294 . S
In78 O80 2.326 . S
In78 O84 2.266 . S
In78 O85 2.326 . S
In78 O86 2.266 . S
In78 O87 2.326 . S
In78 O89 2.294 . S
In78 O90 2.326 . S
O79 In78 2.294 . S
O79 C88 1.240 . S
O80 In78 2.326 . S
O80 C88 1.252 . S
C81 O84 1.252 . S
C81 O85 1.260 . S
C82 O89 1.240 . S
C82 O90 1.252 . S
C83 O86 1.252 . S
C83 O87 1.260 . S
O84 In78 2.266 . S
O84 C81 1.252 . S
O85 In78 2.326 . S
O85 C81 1.260 . S
O86 In78 2.266 . S
O86 C83 1.252 . S
O87 In78 2.326 . S
O87 C83 1.260 . S
C88 O79 1.240 . S
C88 O80 1.252 . S
O89 In78 2.294 . S
O89 C82 1.240 . S
O90 In78 2.326 . S
O90 C82 1.252 . S
In91 O92 2.292 1_455 S
In91 O93 2.329 . S
In91 O97 2.260 1_455 S
In91 O98 2.324 1_455 S
In91 O99 2.268 . S
In91 O100 2.321 1_455 S
In91 O102 2.301 . S
In91 O103 2.330 . S
O92 In91 2.292 1_655 S
O92 C101 1.240 1_655 S
O93 In91 2.329 . S
O93 C101 1.252 . S
C94 O97 1.252 . S
C94 O98 1.260 . S
C95 O102 1.240 . S
C95 O103 1.252 . S
C96 O99 1.252 1_655 S
C96 O100 1.260 . S
O97 In91 2.260 1_655 S
O97 C94 1.252 . S
O98 In91 2.324 1_655 S
O98 C94 1.260 . S
O99 In91 2.268 . S
O99 C96 1.252 1_455 S
O100 In91 2.321 1_655 S
O100 C96 1.260 . S
C101 O92 1.240 1_455 S
C101 O93 1.252 . S
O102 In91 2.301 . S
O102 C95 1.240 . S
O103 In91 2.330 . S
O103 C95 1.252 . S
In104 O105 2.294 . S
In104 O106 2.326 . S
In104 O110 2.266 . S
In104 O111 2.326 . S
In104 O112 2.266 . S
In104 O113 2.326 . S
In104 O115 2.294 . S
In104 O116 2.326 . S
O105 In104 2.294 . S
O105 C114 1.240 . S
O106 In104 2.326 . S
O106 C114 1.252 . S
C107 O110 1.252 . S
C107 O111 1.260 . S
C108 O115 1.240 . S
C108 O116 1.252 . S
C109 O112 1.252 . S
C109 O113 1.260 . S
O110 In104 2.266 . S
O110 C107 1.252 . S
O111 In104 2.326 . S
O111 C107 1.260 . S
O112 In104 2.266 . S
O112 C109 1.252 . S
O113 In104 2.326 . S
O113 C109 1.260 . S
C114 O105 1.240 . S
C114 O106 1.252 . S
O115 In104 2.294 . S
O115 C108 1.240 . S
O116 In104 2.326 . S
O116 C108 1.252 . S
In117 O118 2.294 1_655 S
In117 O119 2.326 . S
In117 O123 2.266 1_655 S
In117 O124 2.326 1_655 S
In117 O125 2.266 . S
In117 O126 2.326 1_655 S
In117 O128 2.294 . S
In117 O129 2.326 . S
O118 In117 2.294 1_455 S
O118 C127 1.240 1_455 S
O119 In117 2.326 . S
O119 C127 1.252 . S
C120 O123 1.252 . S
C120 O124 1.260 . S
C121 O128 1.240 . S
C121 O129 1.252 . S
C122 O125 1.252 1_455 S
C122 O126 1.260 . S
O123 In117 2.266 1_455 S
O123 C120 1.252 . S
O124 In117 2.326 1_455 S
O124 C120 1.260 . S
O125 In117 2.266 . S
O125 C122 1.252 1_655 S
O126 In117 2.326 1_455 S
O126 C122 1.260 . S
C127 O118 1.240 1_655 S
C127 O119 1.252 . S
O128 In117 2.294 . S
O128 C121 1.240 . S
O129 In117 2.326 . S
O129 C121 1.252 . S
In130 O131 2.294 . S
In130 O132 2.326 . S
In130 O136 2.266 . S
In130 O137 2.326 . S
In130 O138 2.266 . S
In130 O139 2.326 . S
In130 O141 2.294 . S
In130 O142 2.326 . S
O131 In130 2.294 . S
O131 C140 1.240 . S
O132 In130 2.326 . S
O132 C140 1.252 . S
C133 O136 1.252 . S
C133 O137 1.260 . S
C134 O141 1.240 . S
C134 O142 1.252 . S
C135 O138 1.252 . S
C135 O139 1.260 . S
O136 In130 2.266 . S
O136 C133 1.252 . S
O137 In130 2.326 . S
O137 C133 1.260 . S
O138 In130 2.266 . S
O138 C135 1.252 . S
O139 In130 2.326 . S
O139 C135 1.260 . S
C140 O131 1.240 . S
C140 O132 1.252 . S
O141 In130 2.294 . S
O141 C134 1.240 . S
O142 In130 2.326 . S
O142 C134 1.252 . S
In143 O144 2.294 1_655 S
In143 O145 2.326 . S
In143 O149 2.266 1_655 S
In143 O150 2.326 1_655 S
In143 O151 2.266 . S
In143 O152 2.326 1_655 S
In143 O154 2.294 . S
In143 O155 2.326 . S
O144 In143 2.294 1_455 S
O144 C153 1.240 1_455 S
O145 In143 2.326 . S
O145 C153 1.252 . S
C146 O149 1.252 . S
C146 O150 1.260 . S
C147 O154 1.240 . S
C147 O155 1.252 . S
C148 O151 1.252 1_455 S
C148 O152 1.260 . S
O149 In143 2.266 1_455 S
O149 C146 1.252 . S
O150 In143 2.326 1_455 S
O150 C146 1.260 . S
O151 In143 2.266 . S
O151 C148 1.252 1_655 S
O152 In143 2.326 1_455 S
O152 C148 1.260 . S
C153 O144 1.240 1_655 S
C153 O145 1.252 . S
O154 In143 2.294 . S
O154 C147 1.240 . S
O155 In143 2.326 . S
O155 C147 1.252 . S
In156 O157 2.294 . S
In156 O158 2.326 . S
In156 O162 2.266 . S
In156 O163 2.326 . S
In156 O164 2.266 . S
In156 O165 2.326 . S
In156 O167 2.294 . S
In156 O168 2.326 . S
O157 In156 2.294 . S
O157 C166 1.240 . S
O158 In156 2.326 . S
O158 C166 1.252 . S
C159 O162 1.252 . S
C159 O163 1.260 . S
C160 O167 1.240 . S
C160 O168 1.252 . S
C161 O164 1.252 . S
C161 O165 1.260 . S
O162 In156 2.266 . S
O162 C159 1.252 . S
O163 In156 2.326 . S
O163 C159 1.260 . S
O164 In156 2.266 . S
O164 C161 1.252 . S
O165 In156 2.326 . S
O165 C161 1.260 . S
C166 O157 1.240 . S
C166 O158 1.252 . S
O167 In156 2.294 . S
O167 C160 1.240 . S
O168 In156 2.326 . S
O168 C160 1.252 . S
In169 O170 2.294 1_455 S
In169 O171 2.326 . S
In169 O175 2.266 1_455 S
In169 O176 2.326 1_455 S
In169 O177 2.266 . S
In169 O178 2.326 1_455 S
In169 O180 2.294 . S
In169 O181 2.326 . S
O170 In169 2.294 1_655 S
O170 C179 1.240 1_655 S
O171 In169 2.326 . S
O171 C179 1.252 . S
C172 O175 1.252 . S
C172 O176 1.260 . S
C173 O180 1.240 . S
C173 O181 1.252 . S
C174 O177 1.252 1_655 S
C174 O178 1.260 . S
O175 In169 2.266 1_655 S
O175 C172 1.252 . S
O176 In169 2.326 1_655 S
O176 C172 1.260 . S
O177 In169 2.266 . S
O177 C174 1.252 1_455 S
O178 In169 2.326 1_655 S
O178 C174 1.260 . S
C179 O170 1.240 1_455 S
C179 O171 1.252 . S
O180 In169 2.294 . S
O180 C173 1.240 . S
O181 In169 2.326 . S
O181 C173 1.252 . S
In182 O183 2.294 . S
In182 O184 2.326 . S
In182 O188 2.266 . S
In182 O189 2.326 . S
In182 O190 2.266 . S
In182 O191 2.326 . S
In182 O193 2.294 . S
In182 O194 2.326 . S
O183 In182 2.294 . S
O183 C192 1.240 . S
O184 In182 2.326 . S
O184 C192 1.252 . S
C185 O188 1.252 . S
C185 O189 1.260 . S
C186 O193 1.240 . S
C186 O194 1.252 . S
C187 O190 1.252 . S
C187 O191 1.260 . S
O188 In182 2.266 . S
O188 C185 1.252 . S
O189 In182 2.326 . S
O189 C185 1.260 . S
O190 In182 2.266 . S
O190 C187 1.252 . S
O191 In182 2.326 . S
O191 C187 1.260 . S
C192 O183 1.240 . S
C192 O184 1.252 . S
O193 In182 2.294 . S
O193 C186 1.240 . S
O194 In182 2.326 . S
O194 C186 1.252 . S
In195 O196 2.294 . S
In195 O197 2.326 . S
In195 O201 2.266 . S
In195 O202 2.326 1_455 S
In195 O203 2.266 1_455 S
In195 O204 2.326 1_455 S
In195 O206 2.294 1_455 S
In195 O207 2.326 . S
O196 In195 2.294 . S
O196 C205 1.240 . S
O197 In195 2.326 . S
O197 C205 1.252 . S
C198 O201 1.252 1_655 S
C198 O202 1.260 . S
C199 O206 1.240 1_455 S
C199 O207 1.252 . S
C200 O203 1.252 . S
C200 O204 1.260 . S
O201 In195 2.266 . S
O201 C198 1.252 1_455 S
O202 In195 2.326 1_655 S
O202 C198 1.260 . S
O203 In195 2.266 1_655 S
O203 C200 1.252 . S
O204 In195 2.326 1_655 S
O204 C200 1.260 . S
C205 O196 1.240 . S
C205 O197 1.252 . S
O206 In195 2.294 1_655 S
O206 C199 1.240 1_655 S
O207 In195 2.326 . S
O207 C199 1.252 . S
In208 O209 2.294 . S
In208 O210 2.326 . S
In208 O214 2.266 . S
In208 O215 2.326 . S
In208 O216 2.266 . S
In208 O217 2.326 . S
In208 O219 2.294 . S
In208 O220 2.326 . S
O209 In208 2.294 . S
O209 C218 1.240 . S
O210 In208 2.326 . S
O210 C218 1.252 . S
C211 O214 1.252 . S
C211 O215 1.260 . S
C212 O219 1.240 . S
C212 O220 1.252 . S
C213 O216 1.252 . S
C213 O217 1.260 . S
O214 In208 2.266 . S
O214 C211 1.252 . S
O215 In208 2.326 . S
O215 C211 1.260 . S
O216 In208 2.266 . S
O216 C213 1.252 . S
O217 In208 2.326 . S
O217 C213 1.260 . S
C218 O209 1.240 . S
C218 O210 1.252 . S
O219 In208 2.294 . S
O219 C212 1.240 . S
O220 In208 2.326 . S
O220 C212 1.252 . S
In221 O222 2.294 . S
In221 O223 2.326 . S
In221 O227 2.266 . S
In221 O228 2.326 . S
In221 O229 2.266 . S
In221 O230 2.326 . S
In221 O232 2.294 . S
In221 O233 2.326 . S
O222 In221 2.294 . S
O222 C231 1.240 . S
O223 In221 2.326 . S
O223 C231 1.252 . S
C224 O227 1.252 . S
C224 O228 1.260 . S
C225 O232 1.240 . S
C225 O233 1.252 . S
C226 O229 1.252 . S
C226 O230 1.260 . S
O227 In221 2.266 . S
O227 C224 1.252 . S
O228 In221 2.326 . S
O228 C224 1.260 . S
O229 In221 2.266 . S
O229 C226 1.252 . S
O230 In221 2.326 . S
O230 C226 1.260 . S
C231 O222 1.240 . S
C231 O223 1.252 . S
O232 In221 2.294 . S
O232 C225 1.240 . S
O233 In221 2.326 . S
O233 C225 1.252 . S
In234 O235 2.294 . S
In234 O236 2.326 . S
In234 O240 2.266 . S
In234 O241 2.326 . S
In234 O242 2.266 . S
In234 O243 2.326 . S
In234 O245 2.294 . S
In234 O246 2.326 . S
O235 In234 2.294 . S
O235 C244 1.240 . S
O236 In234 2.326 . S
O236 C244 1.252 . S
C237 O240 1.252 . S
C237 O241 1.260 . S
C238 O245 1.240 . S
C238 O246 1.252 . S
C239 O242 1.252 . S
C239 O243 1.260 . S
O240 In234 2.266 . S
O240 C237 1.252 . S
O241 In234 2.326 . S
O241 C237 1.260 . S
O242 In234 2.266 . S
O242 C239 1.252 . S
O243 In234 2.326 . S
O243 C239 1.260 . S
C244 O235 1.240 . S
C244 O236 1.252 . S
O245 In234 2.294 . S
O245 C238 1.240 . S
O246 In234 2.326 . S
O246 C238 1.252 . S
In247 O248 2.294 . S
In247 O249 2.326 . S
In247 O253 2.266 . S
In247 O254 2.326 . S
In247 O255 2.266 . S
In247 O256 2.326 . S
In247 O258 2.294 . S
In247 O259 2.326 . S
O248 In247 2.294 . S
O248 C257 1.240 . S
O249 In247 2.326 . S
O249 C257 1.252 . S
C250 O253 1.252 . S
C250 O254 1.260 . S
C251 O258 1.240 . S
C251 O259 1.252 . S
C252 O255 1.252 . S
C252 O256 1.260 . S
O253 In247 2.266 . S
O253 C250 1.252 . S
O254 In247 2.326 . S
O254 C250 1.260 . S
O255 In247 2.266 . S
O255 C252 1.252 . S
O256 In247 2.326 . S
O256 C252 1.260 . S
C257 O248 1.240 . S
C257 O249 1.252 . S
O258 In247 2.294 . S
O258 C251 1.240 . S
O259 In247 2.326 . S
O259 C251 1.252 . S
In260 O261 2.294 . S
In260 O262 2.326 . S
In260 O266 2.266 . S
In260 O267 2.326 . S
In260 O268 2.266 . S
In260 O269 2.326 . S
In260 O271 2.294 . S
In260 O272 2.326 . S
O261 In260 2.294 . S
O261 C270 1.240 . S
O262 In260 2.326 . S
O262 C270 1.252 . S
C263 O266 1.252 . S
C263 O267 1.260 . S
C264 O271 1.240 . S
C264 O272 1.252 . S
C265 O268 1.252 . S
C265 O269 1.260 . S
O266 In260 2.266 . S
O266 C263 1.252 . S
O267 In260 2.326 . S
O267 C263 1.260 . S
O268 In260 2.266 . S
O268 C265 1.252 . S
O269 In260 2.326 . S
O269 C265 1.260 . S
C270 O261 1.240 . S
C270 O262 1.252 . S
O271 In260 2.294 . S
O271 C264 1.240 . S
O272 In260 2.326 . S
O272 C264 1.252 . S
In273 O274 2.294 . S
In273 O275 2.326 . S
In273 O279 2.266 . S
In273 O280 2.326 . S
In273 O281 2.266 . S
In273 O282 2.326 . S
In273 O284 2.294 . S
In273 O285 2.326 . S
O274 In273 2.294 . S
O274 C283 1.240 . S
O275 In273 2.326 . S
O275 C283 1.252 . S
C276 O279 1.252 . S
C276 O280 1.260 . S
C277 O284 1.240 . S
C277 O285 1.252 . S
C278 O281 1.252 . S
C278 O282 1.260 . S
O279 In273 2.266 . S
O279 C276 1.252 . S
O280 In273 2.326 . S
O280 C276 1.260 . S
O281 In273 2.266 . S
O281 C278 1.252 . S
O282 In273 2.326 . S
O282 C278 1.260 . S
C283 O274 1.240 . S
C283 O275 1.252 . S
O284 In273 2.294 . S
O284 C277 1.240 . S
O285 In273 2.326 . S
O285 C277 1.252 . S
In286 O287 2.294 . S
In286 O288 2.326 . S
In286 O292 2.266 . S
In286 O293 2.326 . S
In286 O294 2.266 . S
In286 O295 2.326 . S
In286 O297 2.294 . S
In286 O298 2.326 . S
O287 In286 2.294 . S
O287 C296 1.240 . S
O288 In286 2.326 . S
O288 C296 1.252 . S
C289 O292 1.252 . S
C289 O293 1.260 . S
C290 O297 1.240 . S
C290 O298 1.252 . S
C291 O294 1.252 . S
C291 O295 1.260 . S
O292 In286 2.266 . S
O292 C289 1.252 . S
O293 In286 2.326 . S
O293 C289 1.260 . S
O294 In286 2.266 . S
O294 C291 1.252 . S
O295 In286 2.326 . S
O295 C291 1.260 . S
C296 O287 1.240 . S
C296 O288 1.252 . S
O297 In286 2.294 . S
O297 C290 1.240 . S
O298 In286 2.326 . S
O298 C290 1.252 . S
In299 O300 2.294 . S
In299 O301 2.326 . S
In299 O305 2.266 . S
In299 O306 2.326 . S
In299 O307 2.266 . S
In299 O308 2.326 . S
In299 O310 2.294 . S
In299 O311 2.326 . S
O300 In299 2.294 . S
O300 C309 1.240 . S
O301 In299 2.326 . S
O301 C309 1.252 . S
C302 O305 1.252 . S
C302 O306 1.260 . S
C303 O310 1.240 . S
C303 O311 1.252 . S
C304 O307 1.252 . S
C304 O308 1.260 . S
O305 In299 2.266 . S
O305 C302 1.252 . S
O306 In299 2.326 . S
O306 C302 1.260 . S
O307 In299 2.266 . S
O307 C304 1.252 . S
O308 In299 2.326 . S
O308 C304 1.260 . S
C309 O300 1.240 . S
C309 O301 1.252 . S
O310 In299 2.294 . S
O310 C303 1.240 . S
O311 In299 2.326 . S
O311 C303 1.252 . S
In312 O313 2.293 . S
In312 O314 2.326 1_554 S
In312 O318 2.265 . S
In312 O319 2.326 1_554 S
In312 O320 2.265 . S
In312 O321 2.323 . S
In312 O323 2.296 1_554 S
In312 O324 2.329 1_554 S
O313 In312 2.293 . S
O313 C322 1.240 . S
O314 In312 2.326 1_556 S
O314 C322 1.245 1_556 S
C315 O318 1.252 . S
C315 O319 1.260 1_554 S
C316 O323 1.240 . S
C316 O324 1.252 . S
C317 O320 1.252 . S
C317 O321 1.260 . S
O318 In312 2.265 . S
O318 C315 1.252 . S
O319 In312 2.326 1_556 S
O319 C315 1.260 1_556 S
O320 In312 2.265 . S
O320 C317 1.252 . S
O321 In312 2.323 . S
O321 C317 1.260 . S
C322 O313 1.240 . S
C322 O314 1.245 1_554 S
O323 In312 2.296 1_556 S
O323 C316 1.240 . S
O324 In312 2.329 1_556 S
O324 C316 1.252 . S
In325 O326 2.296 1_554 S
In325 O327 2.329 1_554 S
In325 O331 2.265 . S
In325 O332 2.323 . S
In325 O333 2.265 . S
In325 O334 2.326 1_554 S
In325 O336 2.293 . S
In325 O337 2.326 1_554 S
O326 In325 2.296 1_556 S
O326 C335 1.240 . S
O327 In325 2.329 1_556 S
O327 C335 1.252 . S
C328 O331 1.252 . S
C328 O332 1.260 . S
C329 O336 1.240 . S
C329 O337 1.245 1_554 S
C330 O333 1.252 . S
C330 O334 1.260 1_554 S
O331 In325 2.265 . S
O331 C328 1.252 . S
O332 In325 2.323 . S
O332 C328 1.260 . S
O333 In325 2.265 . S
O333 C330 1.252 . S
O334 In325 2.326 1_556 S
O334 C330 1.260 1_556 S
C335 O326 1.240 . S
C335 O327 1.252 . S
O336 In325 2.293 . S
O336 C329 1.240 . S
O337 In325 2.326 1_556 S
O337 C329 1.245 1_556 S
In338 O339 2.294 . S
In338 O340 2.326 . S
In338 O344 2.266 . S
In338 O345 2.326 . S
In338 O346 2.266 . S
In338 O347 2.326 . S
In338 O349 2.294 . S
In338 O350 2.326 . S
O339 In338 2.294 . S
O339 C348 1.240 . S
O340 In338 2.326 . S
O340 C348 1.252 . S
C341 O344 1.252 . S
C341 O345 1.260 . S
C342 O349 1.240 . S
C342 O350 1.252 . S
C343 O346 1.252 . S
C343 O347 1.260 . S
O344 In338 2.266 . S
O344 C341 1.252 . S
O345 In338 2.326 . S
O345 C341 1.260 . S
O346 In338 2.266 . S
O346 C343 1.252 . S
O347 In338 2.326 . S
O347 C343 1.260 . S
C348 O339 1.240 . S
C348 O340 1.252 . S
O349 In338 2.294 . S
O349 C342 1.240 . S
O350 In338 2.326 . S
O350 C342 1.252 . S
In351 O352 2.294 . S
In351 O353 2.326 . S
In351 O357 2.266 . S
In351 O358 2.326 . S
In351 O359 2.266 . S
In351 O360 2.326 . S
In351 O362 2.294 . S
In351 O363 2.326 . S
O352 In351 2.294 . S
O352 C361 1.240 . S
O353 In351 2.326 . S
O353 C361 1.252 . S
C354 O357 1.252 . S
C354 O358 1.260 . S
C355 O362 1.240 . S
C355 O363 1.252 . S
C356 O359 1.252 . S
C356 O360 1.260 . S
O357 In351 2.266 . S
O357 C354 1.252 . S
O358 In351 2.326 . S
O358 C354 1.260 . S
O359 In351 2.266 . S
O359 C356 1.252 . S
O360 In351 2.326 . S
O360 C356 1.260 . S
C361 O352 1.240 . S
C361 O353 1.252 . S
O362 In351 2.294 . S
O362 C355 1.240 . S
O363 In351 2.326 . S
O363 C355 1.252 . S
In364 O365 2.296 1_556 S
In364 O366 2.329 1_556 S
In364 O370 2.265 . S
In364 O371 2.323 . S
In364 O372 2.265 . S
In364 O373 2.326 1_556 S
In364 O375 2.293 . S
In364 O376 2.326 1_556 S
O365 In364 2.296 1_554 S
O365 C374 1.240 . S
O366 In364 2.329 1_554 S
O366 C374 1.252 . S
C367 O370 1.252 . S
C367 O371 1.260 . S
C368 O375 1.240 . S
C368 O376 1.245 1_556 S
C369 O372 1.252 . S
C369 O373 1.260 1_556 S
O370 In364 2.265 . S
O370 C367 1.252 . S
O371 In364 2.323 . S
O371 C367 1.260 . S
O372 In364 2.265 . S
O372 C369 1.252 . S
O373 In364 2.326 1_554 S
O373 C369 1.260 1_554 S
C374 O365 1.240 . S
C374 O366 1.252 . S
O375 In364 2.293 . S
O375 C368 1.240 . S
O376 In364 2.326 1_554 S
O376 C368 1.245 1_554 S
In377 O378 2.293 . S
In377 O379 2.326 1_556 S
In377 O383 2.265 . S
In377 O384 2.326 1_556 S
In377 O385 2.265 . S
In377 O386 2.323 . S
In377 O388 2.296 1_556 S
In377 O389 2.329 1_556 S
O378 In377 2.293 . S
O378 C387 1.240 . S
O379 In377 2.326 1_554 S
O379 C387 1.245 1_554 S
C380 O383 1.252 . S
C380 O384 1.260 1_556 S
C381 O388 1.240 . S
C381 O389 1.252 . S
C382 O385 1.252 . S
C382 O386 1.260 . S
O383 In377 2.265 . S
O383 C380 1.252 . S
O384 In377 2.326 1_554 S
O384 C380 1.260 1_554 S
O385 In377 2.265 . S
O385 C382 1.252 . S
O386 In377 2.323 . S
O386 C382 1.260 . S
C387 O378 1.240 . S
C387 O379 1.245 1_556 S
O388 In377 2.296 1_554 S
O388 C381 1.240 . S
O389 In377 2.329 1_554 S
O389 C381 1.252 . S
In390 O391 2.294 . S
In390 O392 2.326 . S
In390 O396 2.266 . S
In390 O397 2.326 . S
In390 O398 2.266 . S
In390 O399 2.326 . S
In390 O401 2.294 . S
In390 O402 2.326 . S
O391 In390 2.294 . S
O391 C400 1.240 . S
O392 In390 2.326 . S
O392 C400 1.252 . S
C393 O396 1.252 . S
C393 O397 1.260 . S
C394 O401 1.240 . S
C394 O402 1.252 . S
C395 O398 1.252 . S
C395 O399 1.260 . S
O396 In390 2.266 . S
O396 C393 1.252 . S
O397 In390 2.326 . S
O397 C393 1.260 . S
O398 In390 2.266 . S
O398 C395 1.252 . S
O399 In390 2.326 . S
O399 C395 1.260 . S
C400 O391 1.240 . S
C400 O392 1.252 . S
O401 In390 2.294 . S
O401 C394 1.240 . S
O402 In390 2.326 . S
O402 C394 1.252 . S
In403 O404 2.294 . S
In403 O405 2.326 . S
In403 O409 2.266 . S
In403 O410 2.326 . S
In403 O411 2.266 . S
In403 O412 2.326 . S
In403 O414 2.294 . S
In403 O415 2.326 . S
O404 In403 2.294 . S
O404 C413 1.240 . S
O405 In403 2.326 . S
O405 C413 1.252 . S
C406 O409 1.252 . S
C406 O410 1.260 . S
C407 O414 1.240 . S
C407 O415 1.252 . S
C408 O411 1.252 . S
C408 O412 1.260 . S
O409 In403 2.266 . S
O409 C406 1.252 . S
O410 In403 2.326 . S
O410 C406 1.260 . S
O411 In403 2.266 . S
O411 C408 1.252 . S
O412 In403 2.326 . S
O412 C408 1.260 . S
C413 O404 1.240 . S
C413 O405 1.252 . S
O414 In403 2.294 . S
O414 C407 1.240 . S
O415 In403 2.326 . S
O415 C407 1.252 . S
H416 C422 0.930 . S
H417 C426 0.930 . S
H418 C431 0.929 . S
H419 C429 0.929 . S
H420 C424 0.929 . S
H421 C430 0.929 . S
C422 H416 0.930 . S
C422 C423 1.367 . S
C422 C430 1.378 . S
C423 C422 1.367 . S
C423 C431 1.433 . S
C424 H420 0.929 . S
C424 C426 1.378 . S
C424 C428 1.350 . S
C425 C428 1.463 . S
C425 C430 1.350 . S
C425 N433 1.427 . S
C426 H417 0.930 . S
C426 C424 1.378 . S
C426 C427 1.367 . S
C427 C426 1.367 . S
C427 C429 1.433 . S
C428 C424 1.350 . S
C428 C425 1.463 . S
C428 N432 1.427 . S
C429 H419 0.929 . S
C429 C427 1.433 . S
C429 N432 1.384 . S
C430 H421 0.929 . S
C430 C422 1.378 . S
C430 C425 1.350 . S
C431 H418 0.929 . S
C431 C423 1.433 . S
C431 N433 1.384 . S
N432 C428 1.427 . S
N432 C429 1.384 . S
N433 C425 1.427 . S
N433 C431 1.384 . S
H434 C440 0.930 . S
H435 C444 0.930 . S
H436 C449 0.929 . S
H437 C447 0.929 . S
H438 C442 0.929 . S
H439 C448 0.929 . S
C440 H434 0.930 . S
C440 C441 1.367 . S
C440 C448 1.378 . S
C441 C440 1.367 . S
C441 C449 1.433 . S
C442 H438 0.929 . S
C442 C444 1.378 . S
C442 C446 1.350 . S
C443 C446 1.463 . S
C443 C448 1.350 . S
C443 N451 1.427 . S
C444 H435 0.930 . S
C444 C442 1.378 . S
C444 C445 1.367 . S
C445 C444 1.367 . S
C445 C447 1.433 . S
C446 C442 1.350 . S
C446 C443 1.463 . S
C446 N450 1.427 . S
C447 H437 0.929 . S
C447 C445 1.433 . S
C447 N450 1.384 . S
C448 H439 0.929 . S
C448 C440 1.378 . S
C448 C443 1.350 . S
C449 H436 0.929 . S
C449 C441 1.433 . S
C449 N451 1.384 . S
N450 C446 1.427 . S
N450 C447 1.384 . S
N451 C443 1.427 . S
N451 C449 1.384 . S
H452 C458 0.930 . S
H453 C462 0.930 . S
H454 C467 0.929 . S
H455 C465 0.929 . S
H456 C460 0.929 . S
H457 C466 0.929 . S
C458 H452 0.930 . S
C458 C459 1.367 . S
C458 C466 1.378 . S
C459 C458 1.367 . S
C459 C467 1.433 . S
C460 H456 0.929 . S
C460 C462 1.378 . S
C460 C464 1.350 . S
C461 C464 1.463 . S
C461 C466 1.350 . S
C461 N469 1.427 . S
C462 H453 0.930 . S
C462 C460 1.378 . S
C462 C463 1.367 . S
C463 C462 1.367 . S
C463 C465 1.433 . S
C464 C460 1.350 . S
C464 C461 1.463 . S
C464 N468 1.427 . S
C465 H455 0.929 . S
C465 C463 1.433 . S
C465 N468 1.384 . S
C466 H457 0.929 . S
C466 C458 1.378 . S
C466 C461 1.350 . S
C467 H454 0.929 . S
C467 C459 1.433 . S
C467 N469 1.384 . S
N468 C464 1.427 . S
N468 C465 1.384 . S
N469 C461 1.427 . S
N469 C467 1.384 . S
H470 C476 0.930 . S
H471 C480 0.930 . S
H472 C485 0.929 . S
H473 C483 0.929 . S
H474 C478 0.929 . S
H475 C484 0.929 . S
C476 H470 0.930 . S
C476 C477 1.367 . S
C476 C484 1.378 . S
C477 C476 1.367 . S
C477 C485 1.433 . S
C478 H474 0.929 . S
C478 C480 1.378 . S
C478 C482 1.350 . S
C479 C482 1.463 . S
C479 C484 1.350 . S
C479 N487 1.427 . S
C480 H471 0.930 . S
C480 C478 1.378 . S
C480 C481 1.367 . S
C481 C480 1.367 . S
C481 C483 1.433 . S
C482 C478 1.350 . S
C482 C479 1.463 . S
C482 N486 1.427 . S
C483 H473 0.929 . S
C483 C481 1.433 . S
C483 N486 1.384 . S
C484 H475 0.929 . S
C484 C476 1.378 . S
C484 C479 1.350 . S
C485 H472 0.929 . S
C485 C477 1.433 . S
C485 N487 1.384 . S
N486 C482 1.427 . S
N486 C483 1.384 . S
N487 C479 1.427 . S
N487 C485 1.384 . S
H488 C494 0.930 . S
H489 C498 0.930 . S
H490 C503 0.929 . S
H491 C501 0.929 . S
H492 C496 0.929 . S
H493 C502 0.929 . S
C494 H488 0.930 . S
C494 C495 1.367 . S
C494 C502 1.378 . S
C495 C494 1.367 . S
C495 C503 1.433 . S
C496 H492 0.929 . S
C496 C498 1.378 . S
C496 C500 1.350 . S
C497 C500 1.463 . S
C497 C502 1.350 . S
C497 N505 1.427 . S
C498 H489 0.930 . S
C498 C496 1.378 . S
C498 C499 1.367 . S
C499 C498 1.367 . S
C499 C501 1.433 . S
C500 C496 1.350 . S
C500 C497 1.463 . S
C500 N504 1.427 . S
C501 H491 0.929 . S
C501 C499 1.433 . S
C501 N504 1.384 . S
C502 H493 0.929 . S
C502 C494 1.378 . S
C502 C497 1.350 . S
C503 H490 0.929 . S
C503 C495 1.433 . S
C503 N505 1.384 . S
N504 C500 1.427 . S
N504 C501 1.384 . S
N505 C497 1.427 . S
N505 C503 1.384 . S
H506 C512 0.930 . S
H507 C516 0.930 . S
H508 C521 0.929 . S
H509 C519 0.929 . S
H510 C514 0.929 . S
H511 C520 0.929 . S
C512 H506 0.930 . S
C512 C513 1.367 . S
C512 C520 1.378 . S
C513 C512 1.367 . S
C513 C521 1.433 . S
C514 H510 0.929 . S
C514 C516 1.378 . S
C514 C518 1.350 . S
C515 C518 1.463 . S
C515 C520 1.350 . S
C515 N523 1.427 . S
C516 H507 0.930 . S
C516 C514 1.378 . S
C516 C517 1.367 . S
C517 C516 1.367 . S
C517 C519 1.433 . S
C518 C514 1.350 . S
C518 C515 1.463 . S
C518 N522 1.427 . S
C519 H509 0.929 . S
C519 C517 1.433 . S
C519 N522 1.384 . S
C520 H511 0.929 . S
C520 C512 1.378 . S
C520 C515 1.350 . S
C521 H508 0.929 . S
C521 C513 1.433 . S
C521 N523 1.384 . S
N522 C518 1.427 . S
N522 C519 1.384 . S
N523 C515 1.427 . S
N523 C521 1.384 . S
H524 C530 0.930 . S
H525 C534 0.930 . S
H526 C539 0.929 . S
H527 C537 0.929 . S
H528 C532 0.929 . S
H529 C538 0.929 . S
C530 H524 0.930 . S
C530 C531 1.367 . S
C530 C538 1.378 . S
C531 C530 1.367 . S
C531 C539 1.433 . S
C532 H528 0.929 . S
C532 C534 1.378 . S
C532 C536 1.350 . S
C533 C536 1.463 . S
C533 C538 1.350 . S
C533 N541 1.427 . S
C534 H525 0.930 . S
C534 C532 1.378 . S
C534 C535 1.367 . S
C535 C534 1.367 . S
C535 C537 1.433 . S
C536 C532 1.350 . S
C536 C533 1.463 . S
C536 N540 1.427 . S
C537 H527 0.929 . S
C537 C535 1.433 . S
C537 N540 1.384 . S
C538 H529 0.929 . S
C538 C530 1.378 . S
C538 C533 1.350 . S
C539 H526 0.929 . S
C539 C531 1.433 . S
C539 N541 1.384 . S
N540 C536 1.427 . S
N540 C537 1.384 . S
N541 C533 1.427 . S
N541 C539 1.384 . S
H542 C548 0.930 . S
H543 C552 0.930 . S
H544 C557 0.929 . S
H545 C555 0.929 . S
H546 C550 0.929 . S
H547 C556 0.929 . S
C548 H542 0.930 . S
C548 C549 1.367 . S
C548 C556 1.378 . S
C549 C548 1.367 . S
C549 C557 1.433 . S
C550 H546 0.929 . S
C550 C552 1.378 . S
C550 C554 1.350 . S
C551 C554 1.463 . S
C551 C556 1.350 . S
C551 N559 1.427 . S
C552 H543 0.930 . S
C552 C550 1.378 . S
C552 C553 1.367 . S
C553 C552 1.367 . S
C553 C555 1.433 . S
C554 C550 1.350 . S
C554 C551 1.463 . S
C554 N558 1.427 . S
C555 H545 0.929 . S
C555 C553 1.433 . S
C555 N558 1.384 . S
C556 H547 0.929 . S
C556 C548 1.378 . S
C556 C551 1.350 . S
C557 H544 0.929 . S
C557 C549 1.433 . S
C557 N559 1.384 . S
N558 C554 1.427 . S
N558 C555 1.384 . S
N559 C551 1.427 . S
N559 C557 1.384 . S
H560 C566 0.930 . S
H561 C570 0.930 . S
H562 C575 0.929 . S
H563 C573 0.929 . S
H564 C568 0.929 . S
H565 C574 0.929 . S
C566 H560 0.930 . S
C566 C567 1.367 . S
C566 C574 1.378 . S
C567 C566 1.367 . S
C567 C575 1.433 . S
C568 H564 0.929 . S
C568 C570 1.378 . S
C568 C572 1.350 . S
C569 C572 1.463 . S
C569 C574 1.350 . S
C569 N577 1.427 . S
C570 H561 0.930 . S
C570 C568 1.378 . S
C570 C571 1.367 . S
C571 C570 1.367 . S
C571 C573 1.433 . S
C572 C568 1.350 . S
C572 C569 1.463 . S
C572 N576 1.427 . S
C573 H563 0.929 . S
C573 C571 1.433 . S
C573 N576 1.384 . S
C574 H565 0.929 . S
C574 C566 1.378 . S
C574 C569 1.350 . S
C575 H562 0.929 . S
C575 C567 1.433 . S
C575 N577 1.384 . S
N576 C572 1.427 . S
N576 C573 1.384 . S
N577 C569 1.427 . S
N577 C575 1.384 . S
H578 C584 0.930 . S
H579 C588 0.930 . S
H580 C593 0.929 . S
H581 C591 0.929 . S
H582 C586 0.929 . S
H583 C592 0.929 . S
C584 H578 0.930 . S
C584 C585 1.367 . S
C584 C592 1.378 . S
C585 C584 1.367 . S
C585 C593 1.433 . S
C586 H582 0.929 . S
C586 C588 1.378 . S
C586 C590 1.350 . S
C587 C590 1.463 . S
C587 C592 1.350 . S
C587 N595 1.427 . S
C588 H579 0.930 . S
C588 C586 1.378 . S
C588 C589 1.367 . S
C589 C588 1.367 . S
C589 C591 1.433 . S
C590 C586 1.350 . S
C590 C587 1.463 . S
C590 N594 1.427 . S
C591 H581 0.929 . S
C591 C589 1.433 . S
C591 N594 1.384 . S
C592 H583 0.929 . S
C592 C584 1.378 . S
C592 C587 1.350 . S
C593 H580 0.929 . S
C593 C585 1.433 . S
C593 N595 1.384 . S
N594 C590 1.427 . S
N594 C591 1.384 . S
N595 C587 1.427 . S
N595 C593 1.384 . S
H596 C602 0.930 . S
H597 C606 0.930 . S
H598 C611 0.929 . S
H599 C609 0.929 . S
H600 C604 0.929 . S
H601 C610 0.929 . S
C602 H596 0.930 . S
C602 C603 1.367 . S
C602 C610 1.378 . S
C603 C602 1.367 . S
C603 C611 1.433 . S
C604 H600 0.929 . S
C604 C606 1.378 . S
C604 C608 1.350 . S
C605 C608 1.463 . S
C605 C610 1.350 . S
C605 N613 1.427 . S
C606 H597 0.930 . S
C606 C604 1.378 . S
C606 C607 1.367 . S
C607 C606 1.367 . S
C607 C609 1.433 . S
C608 C604 1.350 . S
C608 C605 1.463 . S
C608 N612 1.427 . S
C609 H599 0.929 . S
C609 C607 1.433 . S
C609 N612 1.384 . S
C610 H601 0.929 . S
C610 C602 1.378 . S
C610 C605 1.350 . S
C611 H598 0.929 . S
C611 C603 1.433 . S
C611 N613 1.384 . S
N612 C608 1.427 . S
N612 C609 1.384 . S
N613 C605 1.427 . S
N613 C611 1.384 . S
H614 C620 0.930 . S
H615 C624 0.930 . S
H616 C629 0.929 . S
H617 C627 0.929 . S
H618 C622 0.929 . S
H619 C628 0.929 . S
C620 H614 0.930 . S
C620 C621 1.367 . S
C620 C628 1.378 . S
C621 C620 1.367 . S
C621 C629 1.433 . S
C622 H618 0.929 . S
C622 C624 1.378 . S
C622 C626 1.350 . S
C623 C626 1.463 . S
C623 C628 1.350 . S
C623 N631 1.427 . S
C624 H615 0.930 . S
C624 C622 1.378 . S
C624 C625 1.367 . S
C625 C624 1.367 . S
C625 C627 1.433 . S
C626 C622 1.350 . S
C626 C623 1.463 . S
C626 N630 1.427 . S
C627 H617 0.929 . S
C627 C625 1.433 . S
C627 N630 1.384 . S
C628 H619 0.929 . S
C628 C620 1.378 . S
C628 C623 1.350 . S
C629 H616 0.929 . S
C629 C621 1.433 . S
C629 N631 1.384 . S
N630 C626 1.427 . S
N630 C627 1.384 . S
N631 C623 1.427 . S
N631 C629 1.384 . S
H632 C638 0.930 . S
H633 C642 0.930 . S
H634 C647 0.929 . S
H635 C645 0.929 . S
H636 C640 0.929 . S
H637 C646 0.929 . S
C638 H632 0.930 . S
C638 C639 1.367 . S
C638 C646 1.378 . S
C639 C638 1.367 . S
C639 C647 1.433 . S
C640 H636 0.929 . S
C640 C642 1.378 . S
C640 C644 1.350 . S
C641 C644 1.463 . S
C641 C646 1.350 . S
C641 N649 1.427 . S
C642 H633 0.930 . S
C642 C640 1.378 . S
C642 C643 1.367 . S
C643 C642 1.367 . S
C643 C645 1.433 . S
C644 C640 1.350 . S
C644 C641 1.463 . S
C644 N648 1.427 . S
C645 H635 0.929 . S
C645 C643 1.433 . S
C645 N648 1.384 . S
C646 H637 0.929 . S
C646 C638 1.378 . S
C646 C641 1.350 . S
C647 H634 0.929 . S
C647 C639 1.433 . S
C647 N649 1.384 . S
N648 C644 1.427 . S
N648 C645 1.384 . S
N649 C641 1.427 . S
N649 C647 1.384 . S
H650 C656 0.930 . S
H651 C660 0.930 . S
H652 C665 0.929 . S
H653 C663 0.929 . S
H654 C658 0.929 . S
H655 C664 0.929 . S
C656 H650 0.930 . S
C656 C657 1.367 . S
C656 C664 1.378 . S
C657 C656 1.367 . S
C657 C665 1.433 . S
C658 H654 0.929 . S
C658 C660 1.378 . S
C658 C662 1.350 . S
C659 C662 1.463 . S
C659 C664 1.350 . S
C659 N667 1.427 . S
C660 H651 0.930 . S
C660 C658 1.378 . S
C660 C661 1.367 . S
C661 C660 1.367 . S
C661 C663 1.433 . S
C662 C658 1.350 . S
C662 C659 1.463 . S
C662 N666 1.427 . S
C663 H653 0.929 . S
C663 C661 1.433 . S
C663 N666 1.384 . S
C664 H655 0.929 . S
C664 C656 1.378 . S
C664 C659 1.350 . S
C665 H652 0.929 . S
C665 C657 1.433 . S
C665 N667 1.384 . S
N666 C662 1.427 . S
N666 C663 1.384 . S
N667 C659 1.427 . S
N667 C665 1.384 . S
H668 C674 0.930 . S
H669 C678 0.930 . S
H670 C683 0.929 . S
H671 C681 0.929 . S
H672 C676 0.929 . S
H673 C682 0.929 . S
C674 H668 0.930 . S
C674 C675 1.367 . S
C674 C682 1.378 . S
C675 C674 1.367 . S
C675 C683 1.433 . S
C676 H672 0.929 . S
C676 C678 1.378 . S
C676 C680 1.350 . S
C677 C680 1.463 . S
C677 C682 1.350 . S
C677 N685 1.427 . S
C678 H669 0.930 . S
C678 C676 1.378 . S
C678 C679 1.367 . S
C679 C678 1.367 . S
C679 C681 1.433 . S
C680 C676 1.350 . S
C680 C677 1.463 . S
C680 N684 1.427 . S
C681 H671 0.929 . S
C681 C679 1.433 . S
C681 N684 1.384 . S
C682 H673 0.929 . S
C682 C674 1.378 . S
C682 C677 1.350 . S
C683 H670 0.929 . S
C683 C675 1.433 . S
C683 N685 1.384 . S
N684 C680 1.427 . S
N684 C681 1.384 . S
N685 C677 1.427 . S
N685 C683 1.384 . S
H686 C692 0.930 . S
H687 C696 0.930 . S
H688 C701 0.929 . S
H689 C699 0.929 . S
H690 C694 0.929 . S
H691 C700 0.929 . S
C692 H686 0.930 . S
C692 C693 1.367 . S
C692 C700 1.378 . S
C693 C692 1.367 . S
C693 C701 1.433 . S
C694 H690 0.929 . S
C694 C696 1.378 . S
C694 C698 1.350 . S
C695 C698 1.463 . S
C695 C700 1.350 . S
C695 N703 1.427 . S
C696 H687 0.930 . S
C696 C694 1.378 . S
C696 C697 1.367 . S
C697 C696 1.367 . S
C697 C699 1.433 . S
C698 C694 1.350 . S
C698 C695 1.463 . S
C698 N702 1.427 . S
C699 H689 0.929 . S
C699 C697 1.433 . S
C699 N702 1.384 . S
C700 H691 0.929 . S
C700 C692 1.378 . S
C700 C695 1.350 . S
C701 H688 0.929 . S
C701 C693 1.433 . S
C701 N703 1.384 . S
N702 C698 1.427 . S
N702 C699 1.384 . S
N703 C695 1.427 . S
N703 C701 1.384 . S
H704 C710 0.930 . S
H705 C714 0.930 . S
H706 C719 0.929 . S
H707 C717 0.929 . S
H708 C712 0.929 . S
H709 C718 0.929 . S
C710 H704 0.930 . S
C710 C711 1.367 . S
C710 C718 1.378 . S
C711 C710 1.367 . S
C711 C719 1.433 1_554 S
C712 H708 0.929 . S
C712 C714 1.378 . S
C712 C716 1.350 . S
C713 C716 1.463 1_544 S
C713 C718 1.350 . S
C713 N721 1.427 1_554 S
C714 H705 0.930 . S
C714 C712 1.378 . S
C714 C715 1.367 . S
C715 C714 1.367 . S
C715 C717 1.433 1_556 S
C716 C712 1.350 . S
C716 C713 1.463 1_566 S
C716 N720 1.427 1_556 S
C717 H707 0.929 . S
C717 C715 1.433 1_554 S
C717 N720 1.384 . S
C718 H709 0.929 . S
C718 C710 1.378 . S
C718 C713 1.350 . S
C719 H706 0.929 . S
C719 C711 1.433 1_556 S
C719 N721 1.384 . S
N720 C716 1.427 1_554 S
N720 C717 1.384 . S
N721 C713 1.427 1_556 S
N721 C719 1.384 . S
H722 C728 0.930 . S
H723 C732 0.930 . S
H724 C737 0.929 . S
H725 C735 0.929 . S
H726 C730 0.929 . S
H727 C736 0.929 . S
C728 H722 0.930 . S
C728 C729 1.367 1_554 S
C728 C736 1.378 . S
C729 C728 1.367 1_556 S
C729 C737 1.433 . S
C730 H726 0.929 . S
C730 C732 1.378 . S
C730 C734 1.332 1_556 S
C731 C734 1.461 1_556 S
C731 C736 1.324 1_556 S
C731 N739 1.457 . S
C732 H723 0.930 . S
C732 C730 1.378 . S
C732 C733 1.367 1_556 S
C733 C732 1.367 1_554 S
C733 C735 1.433 . S
C734 C730 1.332 1_554 S
C734 C731 1.461 1_554 S
C734 N738 1.448 . S
C735 H725 0.929 . S
C735 C733 1.433 . S
C735 N738 1.384 . S
C736 H727 0.929 . S
C736 C728 1.378 . S
C736 C731 1.324 1_554 S
C737 H724 0.929 . S
C737 C729 1.433 . S
C737 N739 1.384 . S
N738 C734 1.448 . S
N738 C735 1.384 . S
N739 C731 1.457 . S
N739 C737 1.384 . S
H740 C746 0.930 . S
H741 C750 0.930 . S
H742 C755 0.929 . S
H743 C753 0.929 . S
H744 C748 0.929 . S
H745 C754 0.929 . S
C746 H740 0.930 . S
C746 C747 1.367 . S
C746 C754 1.378 . S
C747 C746 1.367 . S
C747 C755 1.433 . S
C748 H744 0.929 . S
C748 C750 1.378 . S
C748 C752 1.350 . S
C749 C752 1.463 . S
C749 C754 1.350 . S
C749 N757 1.427 . S
C750 H741 0.930 . S
C750 C748 1.378 . S
C750 C751 1.367 . S
C751 C750 1.367 . S
C751 C753 1.433 . S
C752 C748 1.350 . S
C752 C749 1.463 . S
C752 N756 1.427 . S
C753 H743 0.929 . S
C753 C751 1.433 . S
C753 N756 1.384 . S
C754 H745 0.929 . S
C754 C746 1.378 . S
C754 C749 1.350 . S
C755 H742 0.929 . S
C755 C747 1.433 . S
C755 N757 1.384 . S
N756 C752 1.427 . S
N756 C753 1.384 . S
N757 C749 1.427 . S
N757 C755 1.384 . S
H758 C764 0.930 . S
H759 C768 0.930 . S
H760 C773 0.929 . S
H761 C771 0.929 . S
H762 C766 0.929 . S
H763 C772 0.929 . S
C764 H758 0.930 . S
C764 C765 1.367 . S
C764 C772 1.378 . S
C765 C764 1.367 . S
C765 C773 1.433 . S
C766 H762 0.929 . S
C766 C768 1.378 . S
C766 C770 1.350 . S
C767 C770 1.463 1_565 S
C767 C772 1.350 . S
C767 N775 1.427 . S
C768 H759 0.930 . S
C768 C766 1.378 . S
C768 C769 1.367 . S
C769 C768 1.367 . S
C769 C771 1.433 . S
C770 C766 1.350 . S
C770 C767 1.463 1_545 S
C770 N774 1.427 . S
C771 H761 0.929 . S
C771 C769 1.433 . S
C771 N774 1.384 . S
C772 H763 0.929 . S
C772 C764 1.378 . S
C772 C767 1.350 . S
C773 H760 0.929 . S
C773 C765 1.433 . S
C773 N775 1.384 . S
N774 C770 1.427 . S
N774 C771 1.384 . S
N775 C767 1.427 . S
N775 C773 1.384 . S
H776 C782 0.930 . S
H777 C786 0.930 . S
H778 C791 0.929 . S
H779 C789 0.929 . S
H780 C784 0.929 . S
H781 C790 0.929 . S
C782 H776 0.930 . S
C782 C783 1.367 . S
C782 C790 1.378 . S
C783 C782 1.367 . S
C783 C791 1.433 1_554 S
C784 H780 0.929 . S
C784 C786 1.378 . S
C784 C788 1.350 . S
C785 C788 1.463 1_554 S
C785 C790 1.350 . S
C785 N793 1.427 1_554 S
C786 H777 0.930 . S
C786 C784 1.378 . S
C786 C787 1.367 . S
C787 C786 1.367 . S
C787 C789 1.433 1_556 S
C788 C784 1.350 . S
C788 C785 1.463 1_556 S
C788 N792 1.427 1_556 S
C789 H779 0.929 . S
C789 C787 1.433 1_554 S
C789 N792 1.384 . S
C790 H781 0.929 . S
C790 C782 1.378 . S
C790 C785 1.350 . S
C791 H778 0.929 . S
C791 C783 1.433 1_556 S
C791 N793 1.384 . S
N792 C788 1.427 1_554 S
N792 C789 1.384 . S
N793 C785 1.427 1_556 S
N793 C791 1.384 . S
H794 C800 0.930 . S
H795 C804 0.930 . S
H796 C809 0.929 . S
H797 C807 0.929 . S
H798 C802 0.929 . S
H799 C808 0.929 . S
C800 H794 0.930 . S
C800 C801 1.367 . S
C800 C808 1.378 . S
C801 C800 1.367 . S
C801 C809 1.433 . S
C802 H798 0.929 . S
C802 C804 1.378 . S
C802 C806 1.350 . S
C803 C806 1.463 . S
C803 C808 1.350 . S
C803 N811 1.427 . S
C804 H795 0.930 . S
C804 C802 1.378 . S
C804 C805 1.367 . S
C805 C804 1.367 . S
C805 C807 1.433 . S
C806 C802 1.350 . S
C806 C803 1.463 . S
C806 N810 1.427 . S
C807 H797 0.929 . S
C807 C805 1.433 . S
C807 N810 1.384 . S
C808 H799 0.929 . S
C808 C800 1.378 . S
C808 C803 1.350 . S
C809 H796 0.929 . S
C809 C801 1.433 . S
C809 N811 1.384 . S
N810 C806 1.427 . S
N810 C807 1.384 . S
N811 C803 1.427 . S
N811 C809 1.384 . S
H812 C818 0.930 . S
H813 C822 0.930 . S
H814 C827 0.929 . S
H815 C825 0.929 . S
H816 C820 0.929 . S
H817 C826 0.929 . S
C818 H812 0.930 . S
C818 C819 1.367 . S
C818 C826 1.378 . S
C819 C818 1.367 . S
C819 C827 1.433 . S
C820 H816 0.929 . S
C820 C822 1.378 . S
C820 C824 1.350 . S
C821 C824 1.463 1_565 S
C821 C826 1.350 . S
C821 N829 1.427 . S
C822 H813 0.930 . S
C822 C820 1.378 . S
C822 C823 1.367 . S
C823 C822 1.367 . S
C823 C825 1.433 . S
C824 C820 1.350 . S
C824 C821 1.463 1_545 S
C824 N828 1.427 . S
C825 H815 0.929 . S
C825 C823 1.433 . S
C825 N828 1.384 . S
C826 H817 0.929 . S
C826 C818 1.378 . S
C826 C821 1.350 . S
C827 H814 0.929 . S
C827 C819 1.433 . S
C827 N829 1.384 . S
N828 C824 1.427 . S
N828 C825 1.384 . S
N829 C821 1.427 . S
N829 C827 1.384 . S
H830 C836 0.930 . S
H831 C840 0.930 . S
H832 C845 0.929 . S
H833 C843 0.929 . S
H834 C838 0.929 . S
H835 C844 0.929 . S
C836 H830 0.930 . S
C836 C837 1.367 . S
C836 C844 1.378 . S
C837 C836 1.367 . S
C837 C845 1.433 . S
C838 H834 0.929 . S
C838 C840 1.378 . S
C838 C842 1.350 . S
C839 C842 1.463 . S
C839 C844 1.350 . S
C839 N847 1.427 . S
C840 H831 0.930 . S
C840 C838 1.378 . S
C840 C841 1.367 . S
C841 C840 1.367 . S
C841 C843 1.433 . S
C842 C838 1.350 . S
C842 C839 1.463 . S
C842 N846 1.427 . S
C843 H833 0.929 . S
C843 C841 1.433 . S
C843 N846 1.384 . S
C844 H835 0.929 . S
C844 C836 1.378 . S
C844 C839 1.350 . S
C845 H832 0.929 . S
C845 C837 1.433 . S
C845 N847 1.384 . S
N846 C842 1.427 . S
N846 C843 1.384 . S
N847 C839 1.427 . S
N847 C845 1.384 . S
H848 C854 0.930 . S
H849 C858 0.930 . S
H850 C863 0.929 . S
H851 C861 0.929 . S
H852 C856 0.929 . S
H853 C862 0.929 . S
C854 H848 0.930 . S
C854 C855 1.367 . S
C854 C862 1.378 . S
C855 C854 1.367 . S
C855 C863 1.433 . S
C856 H852 0.929 . S
C856 C858 1.378 . S
C856 C860 1.350 . S
C857 C860 1.463 . S
C857 C862 1.350 . S
C857 N865 1.427 . S
C858 H849 0.930 . S
C858 C856 1.378 . S
C858 C859 1.367 . S
C859 C858 1.367 . S
C859 C861 1.433 . S
C860 C856 1.350 . S
C860 C857 1.463 . S
C860 N864 1.427 . S
C861 H851 0.929 . S
C861 C859 1.433 . S
C861 N864 1.384 . S
C862 H853 0.929 . S
C862 C854 1.378 . S
C862 C857 1.350 . S
C863 H850 0.929 . S
C863 C855 1.433 . S
C863 N865 1.384 . S
N864 C860 1.427 . S
N864 C861 1.384 . S
N865 C857 1.427 . S
N865 C863 1.384 . S
H866 C872 0.930 . S
H867 C876 0.930 . S
H868 C881 0.929 . S
H869 C879 0.929 . S
H870 C874 0.929 . S
H871 C880 0.929 . S
C872 H866 0.930 . S
C872 C873 1.367 . S
C872 C880 1.378 . S
C873 C872 1.367 . S
C873 C881 1.433 . S
C874 H870 0.929 . S
C874 C876 1.378 . S
C874 C878 1.350 . S
C875 C878 1.463 . S
C875 C880 1.350 . S
C875 N883 1.427 . S
C876 H867 0.930 . S
C876 C874 1.378 . S
C876 C877 1.367 . S
C877 C876 1.367 . S
C877 C879 1.433 . S
C878 C874 1.350 . S
C878 C875 1.463 . S
C878 N882 1.427 . S
C879 H869 0.929 . S
C879 C877 1.433 . S
C879 N882 1.384 . S
C880 H871 0.929 . S
C880 C872 1.378 . S
C880 C875 1.350 . S
C881 H868 0.929 . S
C881 C873 1.433 . S
C881 N883 1.384 . S
N882 C878 1.427 . S
N882 C879 1.384 . S
N883 C875 1.427 . S
N883 C881 1.384 . S
H884 C890 0.930 . S
H885 C894 0.930 . S
H886 C899 0.929 . S
H887 C897 0.929 . S
H888 C892 0.929 . S
H889 C898 0.929 . S
C890 H884 0.930 . S
C890 C891 1.367 . S
C890 C898 1.378 . S
C891 C890 1.367 . S
C891 C899 1.433 . S
C892 H888 0.929 . S
C892 C894 1.378 . S
C892 C896 1.350 . S
C893 C896 1.463 . S
C893 C898 1.350 . S
C893 N901 1.427 . S
C894 H885 0.930 . S
C894 C892 1.378 . S
C894 C895 1.367 . S
C895 C894 1.367 . S
C895 C897 1.433 . S
C896 C892 1.350 . S
C896 C893 1.463 . S
C896 N900 1.427 . S
C897 H887 0.929 . S
C897 C895 1.433 . S
C897 N900 1.384 . S
C898 H889 0.929 . S
C898 C890 1.378 . S
C898 C893 1.350 . S
C899 H886 0.929 . S
C899 C891 1.433 . S
C899 N901 1.384 . S
N900 C896 1.427 . S
N900 C897 1.384 . S
N901 C893 1.427 . S
N901 C899 1.384 . S
H902 C908 0.930 . S
H903 C912 0.930 . S
H904 C917 0.929 . S
H905 C915 0.929 . S
H906 C910 0.929 . S
H907 C916 0.929 . S
C908 H902 0.930 . S
C908 C909 1.367 . S
C908 C916 1.378 . S
C909 C908 1.367 . S
C909 C917 1.433 . S
C910 H906 0.929 . S
C910 C912 1.378 . S
C910 C914 1.350 . S
C911 C914 1.463 . S
C911 C916 1.350 . S
C911 N919 1.427 . S
C912 H903 0.930 . S
C912 C910 1.378 . S
C912 C913 1.367 . S
C913 C912 1.367 . S
C913 C915 1.433 . S
C914 C910 1.350 . S
C914 C911 1.463 . S
C914 N918 1.427 . S
C915 H905 0.929 . S
C915 C913 1.433 . S
C915 N918 1.384 . S
C916 H907 0.929 . S
C916 C908 1.378 . S
C916 C911 1.350 . S
C917 H904 0.929 . S
C917 C909 1.433 . S
C917 N919 1.384 . S
N918 C914 1.427 . S
N918 C915 1.384 . S
N919 C911 1.427 . S
N919 C917 1.384 . S
H920 C926 0.930 . S
H921 C930 0.930 . S
H922 C935 0.929 . S
H923 C933 0.929 . S
H924 C928 0.929 . S
H925 C934 0.929 . S
C926 H920 0.930 . S
C926 C927 1.367 . S
C926 C934 1.378 . S
C927 C926 1.367 . S
C927 C935 1.433 . S
C928 H924 0.929 . S
C928 C930 1.378 . S
C928 C932 1.350 . S
C929 C932 1.463 1_465 S
C929 C934 1.350 . S
C929 N937 1.427 . S
C930 H921 0.930 . S
C930 C928 1.378 . S
C930 C931 1.367 . S
C931 C930 1.367 . S
C931 C933 1.433 . S
C932 C928 1.350 . S
C932 C929 1.463 1_645 S
C932 N936 1.427 . S
C933 H923 0.929 . S
C933 C931 1.433 . S
C933 N936 1.384 . S
C934 H925 0.929 . S
C934 C926 1.378 . S
C934 C929 1.350 . S
C935 H922 0.929 . S
C935 C927 1.433 . S
C935 N937 1.384 . S
N936 C932 1.427 . S
N936 C933 1.384 . S
N937 C929 1.427 . S
N937 C935 1.384 . S
H938 C944 0.930 . S
H939 C948 0.930 . S
H940 C953 0.929 . S
H941 C951 0.929 . S
H942 C946 0.929 . S
H943 C952 0.929 . S
C944 H938 0.930 . S
C944 C945 1.367 . S
C944 C952 1.378 . S
C945 C944 1.367 . S
C945 C953 1.433 . S
C946 H942 0.929 . S
C946 C948 1.378 . S
C946 C950 1.350 . S
C947 C950 1.463 1_655 S
C947 C952 1.350 . S
C947 N955 1.427 1_655 S
C948 H939 0.930 . S
C948 C946 1.378 . S
C948 C949 1.367 . S
C949 C948 1.367 . S
C949 C951 1.433 . S
C950 C946 1.350 . S
C950 C947 1.463 1_455 S
C950 N954 1.430 . S
C951 H941 0.929 . S
C951 C949 1.433 . S
C951 N954 1.388 . S
C952 H943 0.929 . S
C952 C944 1.378 . S
C952 C947 1.350 . S
C953 H940 0.929 . S
C953 C945 1.433 . S
C953 N955 1.384 1_655 S
N954 C950 1.430 . S
N954 C951 1.388 . S
N955 C947 1.427 1_455 S
N955 C953 1.384 1_455 S
H956 C962 0.930 . S
H957 C966 0.930 . S
H958 C971 0.929 . S
H959 C969 0.929 . S
H960 C964 0.929 1_455 S
H961 C970 0.929 1_655 S
C962 H956 0.930 . S
C962 C963 1.367 . S
C962 C970 1.378 . S
C963 C962 1.367 . S
C963 C971 1.433 . S
C964 H960 0.929 1_655 S
C964 C966 1.378 . S
C964 C968 1.350 . S
C965 C968 1.463 1_455 S
C965 C970 1.350 . S
C965 N973 1.427 . S
C966 H957 0.930 . S
C966 C964 1.378 . S
C966 C967 1.367 . S
C967 C966 1.367 . S
C967 C969 1.433 . S
C968 C964 1.350 . S
C968 C965 1.463 1_655 S
C968 N972 1.427 . S
C969 H959 0.929 . S
C969 C967 1.433 . S
C969 N972 1.384 . S
C970 H961 0.929 1_455 S
C970 C962 1.378 . S
C970 C965 1.350 . S
C971 H958 0.929 . S
C971 C963 1.433 . S
C971 N973 1.384 . S
N972 C968 1.427 . S
N972 C969 1.384 . S
N973 C965 1.427 . S
N973 C971 1.384 . S
H974 C980 0.930 . S
H975 C984 0.930 . S
H976 C989 0.929 . S
H977 C987 0.929 . S
H978 C982 0.929 1_455 S
H979 C988 0.929 1_655 S
C980 H974 0.930 . S
C980 C981 1.367 . S
C980 C988 1.378 . S
C981 C980 1.367 . S
C981 C989 1.433 1_556 S
C982 H978 0.929 1_655 S
C982 C984 1.378 . S
C982 C986 1.350 . S
C983 C986 1.463 1_456 S
C983 C988 1.350 . S
C983 N991 1.427 1_556 S
C984 H975 0.930 . S
C984 C982 1.378 . S
C984 C985 1.367 . S
C985 C984 1.367 . S
C985 C987 1.433 1_554 S
C986 C982 1.350 . S
C986 C983 1.463 1_654 S
C986 N990 1.427 1_554 S
C987 H977 0.929 . S
C987 C985 1.433 1_556 S
C987 N990 1.384 . S
C988 H979 0.929 1_455 S
C988 C980 1.378 . S
C988 C983 1.350 . S
C989 H976 0.929 . S
C989 C981 1.433 1_554 S
C989 N991 1.384 . S
N990 C986 1.427 1_556 S
N990 C987 1.384 . S
N991 C983 1.427 1_554 S
N991 C989 1.384 . S
H992 C998 0.930 . S
H993 C1002 0.930 . S
H994 C1007 0.929 . S
H995 C1005 0.929 . S
H996 C1000 0.929 . S
H997 C1006 0.929 . S
C998 H992 0.930 . S
C998 C999 1.367 . S
C998 C1006 1.378 . S
C999 C998 1.367 . S
C999 C1007 1.433 . S
C1000 H996 0.929 . S
C1000 C1002 1.378 . S
C1000 C1004 1.350 . S
C1001 C1004 1.463 . S
C1001 C1006 1.350 . S
C1001 N1009 1.427 . S
C1002 H993 0.930 . S
C1002 C1000 1.378 . S
C1002 C1003 1.367 . S
C1003 C1002 1.367 . S
C1003 C1005 1.433 . S
C1004 C1000 1.350 . S
C1004 C1001 1.463 . S
C1004 N1008 1.427 . S
C1005 H995 0.929 . S
C1005 C1003 1.433 . S
C1005 N1008 1.384 . S
C1006 H997 0.929 . S
C1006 C998 1.378 . S
C1006 C1001 1.350 . S
C1007 H994 0.929 . S
C1007 C999 1.433 . S
C1007 N1009 1.384 . S
N1008 C1004 1.427 . S
N1008 C1005 1.384 . S
N1009 C1001 1.427 . S
N1009 C1007 1.384 . S
H1010 C1016 0.930 1_455 S
H1011 C1020 0.930 . S
H1012 C1025 0.929 . S
H1013 C1023 0.929 . S
H1014 C1018 0.929 . S
H1015 C1024 0.929 . S
C1016 H1010 0.930 1_655 S
C1016 C1017 1.367 . S
C1016 C1024 1.378 . S
C1017 C1016 1.367 . S
C1017 C1025 1.433 . S
C1018 H1014 0.929 . S
C1018 C1020 1.378 . S
C1018 C1022 1.350 . S
C1019 C1022 1.463 . S
C1019 C1024 1.350 . S
C1019 N1027 1.427 . S
C1020 H1011 0.930 . S
C1020 C1018 1.378 . S
C1020 C1021 1.367 . S
C1021 C1020 1.367 . S
C1021 C1023 1.433 . S
C1022 C1018 1.350 . S
C1022 C1019 1.463 . S
C1022 N1026 1.427 . S
C1023 H1013 0.929 . S
C1023 C1021 1.433 . S
C1023 N1026 1.384 . S
C1024 H1015 0.929 . S
C1024 C1016 1.378 . S
C1024 C1019 1.350 . S
C1025 H1012 0.929 . S
C1025 C1017 1.433 . S
C1025 N1027 1.384 . S
N1026 C1022 1.427 . S
N1026 C1023 1.384 . S
N1027 C1019 1.427 . S
N1027 C1025 1.384 . S
H1028 C1034 0.930 . S
H1029 C1038 0.930 . S
H1030 C1043 0.929 . S
H1031 C1041 0.929 . S
H1032 C1036 0.929 . S
H1033 C1042 0.929 . S
C1034 H1028 0.930 . S
C1034 C1035 1.367 . S
C1034 C1042 1.378 . S
C1035 C1034 1.367 . S
C1035 C1043 1.433 . S
C1036 H1032 0.929 . S
C1036 C1038 1.378 . S
C1036 C1040 1.350 . S
C1037 C1040 1.463 . S
C1037 C1042 1.350 . S
C1037 N1045 1.427 . S
C1038 H1029 0.930 . S
C1038 C1036 1.378 . S
C1038 C1039 1.367 . S
C1039 C1038 1.367 . S
C1039 C1041 1.433 . S
C1040 C1036 1.350 . S
C1040 C1037 1.463 . S
C1040 N1044 1.427 . S
C1041 H1031 0.929 . S
C1041 C1039 1.433 . S
C1041 N1044 1.384 . S
C1042 H1033 0.929 . S
C1042 C1034 1.378 . S
C1042 C1037 1.350 . S
C1043 H1030 0.929 . S
C1043 C1035 1.433 . S
C1043 N1045 1.384 . S
N1044 C1040 1.427 . S
N1044 C1041 1.384 . S
N1045 C1037 1.427 . S
N1045 C1043 1.384 . S
H1046 C1052 0.930 . S
H1047 C1056 0.930 . S
H1048 C1061 0.929 . S
H1049 C1059 0.929 1_455 S
H1050 C1054 0.929 . S
H1051 C1060 0.929 . S
C1052 H1046 0.930 . S
C1052 C1053 1.367 . S
C1052 C1060 1.378 . S
C1053 C1052 1.367 . S
C1053 C1061 1.433 . S
C1054 H1050 0.929 . S
C1054 C1056 1.378 . S
C1054 C1058 1.350 . S
C1055 C1058 1.463 . S
C1055 C1060 1.350 . S
C1055 N1063 1.427 . S
C1056 H1047 0.930 . S
C1056 C1054 1.378 . S
C1056 C1057 1.367 . S
C1057 C1056 1.367 . S
C1057 C1059 1.433 . S
C1058 C1054 1.350 . S
C1058 C1055 1.463 . S
C1058 N1062 1.427 . S
C1059 H1049 0.929 1_655 S
C1059 C1057 1.433 . S
C1059 N1062 1.384 . S
C1060 H1051 0.929 . S
C1060 C1052 1.378 . S
C1060 C1055 1.350 . S
C1061 H1048 0.929 . S
C1061 C1053 1.433 . S
C1061 N1063 1.384 . S
N1062 C1058 1.427 . S
N1062 C1059 1.384 . S
N1063 C1055 1.427 . S
N1063 C1061 1.384 . S
H1064 C1070 0.930 . S
H1065 C1074 0.930 . S
H1066 C1079 0.929 . S
H1067 C1077 0.929 . S
H1068 C1072 0.929 . S
H1069 C1078 0.929 . S
C1070 H1064 0.930 . S
C1070 C1071 1.367 . S
C1070 C1078 1.378 . S
C1071 C1070 1.367 . S
C1071 C1079 1.433 . S
C1072 H1068 0.929 . S
C1072 C1074 1.378 . S
C1072 C1076 1.350 . S
C1073 C1076 1.463 . S
C1073 C1078 1.350 . S
C1073 N1081 1.427 . S
C1074 H1065 0.930 . S
C1074 C1072 1.378 . S
C1074 C1075 1.367 . S
C1075 C1074 1.367 . S
C1075 C1077 1.433 . S
C1076 C1072 1.350 . S
C1076 C1073 1.463 . S
C1076 N1080 1.427 . S
C1077 H1067 0.929 . S
C1077 C1075 1.433 . S
C1077 N1080 1.384 . S
C1078 H1069 0.929 . S
C1078 C1070 1.378 . S
C1078 C1073 1.350 . S
C1079 H1066 0.929 . S
C1079 C1071 1.433 . S
C1079 N1081 1.384 . S
N1080 C1076 1.427 . S
N1080 C1077 1.384 . S
N1081 C1073 1.427 . S
N1081 C1079 1.384 . S
H1082 C1088 0.930 . S
H1083 C1092 0.930 . S
H1084 C1097 0.929 1_655 S
H1085 C1095 0.929 . S
H1086 C1090 0.929 . S
H1087 C1096 0.929 . S
C1088 H1082 0.930 . S
C1088 C1089 1.367 . S
C1088 C1096 1.378 . S
C1089 C1088 1.367 . S
C1089 C1097 1.433 . S
C1090 H1086 0.929 . S
C1090 C1092 1.378 . S
C1090 C1094 1.350 . S
C1091 C1094 1.463 . S
C1091 C1096 1.350 . S
C1091 N1099 1.427 . S
C1092 H1083 0.930 . S
C1092 C1090 1.378 . S
C1092 C1093 1.367 . S
C1093 C1092 1.367 . S
C1093 C1095 1.433 . S
C1094 C1090 1.350 . S
C1094 C1091 1.463 . S
C1094 N1098 1.427 . S
C1095 H1085 0.929 . S
C1095 C1093 1.433 . S
C1095 N1098 1.384 . S
C1096 H1087 0.929 . S
C1096 C1088 1.378 . S
C1096 C1091 1.350 . S
C1097 H1084 0.929 1_455 S
C1097 C1089 1.433 . S
C1097 N1099 1.384 . S
N1098 C1094 1.427 . S
N1098 C1095 1.384 . S
N1099 C1091 1.427 . S
N1099 C1097 1.384 . S
H1100 C1106 0.930 . S
H1101 C1110 0.930 . S
H1102 C1115 0.929 . S
H1103 C1113 0.929 . S
H1104 C1108 0.929 . S
H1105 C1114 0.929 . S
C1106 H1100 0.930 . S
C1106 C1107 1.367 . S
C1106 C1114 1.378 . S
C1107 C1106 1.367 . S
C1107 C1115 1.433 . S
C1108 H1104 0.929 . S
C1108 C1110 1.378 . S
C1108 C1112 1.350 . S
C1109 C1112 1.463 . S
C1109 C1114 1.350 . S
C1109 N1117 1.427 . S
C1110 H1101 0.930 . S
C1110 C1108 1.378 . S
C1110 C1111 1.367 . S
C1111 C1110 1.367 . S
C1111 C1113 1.433 . S
C1112 C1108 1.350 . S
C1112 C1109 1.463 . S
C1112 N1116 1.427 . S
C1113 H1103 0.929 . S
C1113 C1111 1.433 . S
C1113 N1116 1.384 . S
C1114 H1105 0.929 . S
C1114 C1106 1.378 . S
C1114 C1109 1.350 . S
C1115 H1102 0.929 . S
C1115 C1107 1.433 . S
C1115 N1117 1.384 . S
N1116 C1112 1.427 . S
N1116 C1113 1.384 . S
N1117 C1109 1.427 . S
N1117 C1115 1.384 . S
H1118 C1124 0.930 . S
H1119 C1128 0.930 . S
H1120 C1133 0.929 . S
H1121 C1131 0.948 . S
H1122 C1126 0.929 . S
H1123 C1132 0.929 . S
C1124 H1118 0.930 . S
C1124 C1125 1.367 . S
C1124 C1132 1.378 . S
C1125 C1124 1.367 . S
C1125 C1133 1.433 . S
C1126 H1122 0.929 . S
C1126 C1128 1.378 . S
C1126 C1130 1.350 . S
C1127 C1130 1.463 . S
C1127 C1132 1.350 . S
C1127 N1135 1.427 . S
C1128 H1119 0.930 . S
C1128 C1126 1.378 . S
C1128 C1129 1.367 . S
C1129 C1128 1.367 . S
C1129 C1131 1.426 1_455 S
C1130 C1126 1.350 . S
C1130 C1127 1.463 . S
C1130 N1134 1.427 . S
C1131 H1121 0.948 . S
C1131 C1129 1.426 1_655 S
C1131 N1134 1.372 1_655 S
C1132 H1123 0.929 . S
C1132 C1124 1.378 . S
C1132 C1127 1.350 . S
C1133 H1120 0.929 . S
C1133 C1125 1.433 . S
C1133 N1135 1.384 . S
N1134 C1130 1.427 . S
N1134 C1131 1.372 1_455 S
N1135 C1127 1.427 . S
N1135 C1133 1.384 . S
H1136 C1142 0.930 . S
H1137 C1146 0.930 . S
H1138 C1151 0.929 . S
H1139 C1149 0.929 . S
H1140 C1144 0.929 . S
H1141 C1150 0.929 . S
C1142 H1136 0.930 . S
C1142 C1143 1.367 . S
C1142 C1150 1.378 . S
C1143 C1142 1.367 . S
C1143 C1151 1.433 . S
C1144 H1140 0.929 . S
C1144 C1146 1.378 . S
C1144 C1148 1.350 . S
C1145 C1148 1.463 . S
C1145 C1150 1.350 . S
C1145 N1153 1.427 . S
C1146 H1137 0.930 . S
C1146 C1144 1.378 . S
C1146 C1147 1.367 . S
C1147 C1146 1.367 . S
C1147 C1149 1.433 . S
C1148 C1144 1.350 . S
C1148 C1145 1.463 . S
C1148 N1152 1.427 . S
C1149 H1139 0.929 . S
C1149 C1147 1.433 . S
C1149 N1152 1.384 . S
C1150 H1141 0.929 . S
C1150 C1142 1.378 . S
C1150 C1145 1.350 . S
C1151 H1138 0.929 . S
C1151 C1143 1.433 . S
C1151 N1153 1.384 . S
N1152 C1148 1.427 . S
N1152 C1149 1.384 . S
N1153 C1145 1.427 . S
N1153 C1151 1.384 . S
H1154 C1160 0.930 . S
H1155 C1164 0.930 . S
H1156 C1169 0.929 . S
H1157 C1167 0.929 . S
H1158 C1162 0.929 . S
H1159 C1168 0.929 . S
C1160 H1154 0.930 . S
C1160 C1161 1.367 . S
C1160 C1168 1.378 . S
C1161 C1160 1.367 . S
C1161 C1169 1.433 . S
C1162 H1158 0.929 . S
C1162 C1164 1.378 . S
C1162 C1166 1.350 . S
C1163 C1166 1.463 . S
C1163 C1168 1.350 . S
C1163 N1171 1.427 . S
C1164 H1155 0.930 . S
C1164 C1162 1.378 . S
C1164 C1165 1.367 . S
C1165 C1164 1.367 . S
C1165 C1167 1.433 . S
C1166 C1162 1.350 . S
C1166 C1163 1.463 . S
C1166 N1170 1.427 . S
C1167 H1157 0.929 . S
C1167 C1165 1.433 . S
C1167 N1170 1.384 . S
C1168 H1159 0.929 . S
C1168 C1160 1.378 . S
C1168 C1163 1.350 . S
C1169 H1156 0.929 . S
C1169 C1161 1.433 . S
C1169 N1171 1.384 . S
N1170 C1166 1.427 . S
N1170 C1167 1.384 . S
N1171 C1163 1.427 . S
N1171 C1169 1.384 . S
H1172 C1178 0.930 . S
H1173 C1182 0.930 . S
H1174 C1187 0.929 . S
H1175 C1185 0.929 . S
H1176 C1180 0.929 . S
H1177 C1186 0.929 . S
C1178 H1172 0.930 . S
C1178 C1179 1.367 . S
C1178 C1186 1.378 . S
C1179 C1178 1.367 . S
C1179 C1187 1.433 . S
C1180 H1176 0.929 . S
C1180 C1182 1.378 . S
C1180 C1184 1.350 . S
C1181 C1184 1.463 . S
C1181 C1186 1.350 . S
C1181 N1189 1.427 . S
C1182 H1173 0.930 . S
C1182 C1180 1.378 . S
C1182 C1183 1.367 . S
C1183 C1182 1.367 . S
C1183 C1185 1.433 . S
C1184 C1180 1.350 . S
C1184 C1181 1.463 . S
C1184 N1188 1.427 . S
C1185 H1175 0.929 . S
C1185 C1183 1.433 . S
C1185 N1188 1.384 . S
C1186 H1177 0.929 . S
C1186 C1178 1.378 . S
C1186 C1181 1.350 . S
C1187 H1174 0.929 . S
C1187 C1179 1.433 . S
C1187 N1189 1.384 . S
N1188 C1184 1.427 . S
N1188 C1185 1.384 . S
N1189 C1181 1.427 . S
N1189 C1187 1.384 . S
H1190 C1196 0.930 . S
H1191 C1200 0.930 . S
H1192 C1205 0.920 1_455 S
H1193 C1203 0.929 . S
H1194 C1198 0.929 . S
H1195 C1204 0.929 . S
C1196 H1190 0.930 . S
C1196 C1197 1.367 . S
C1196 C1204 1.378 . S
C1197 C1196 1.367 . S
C1197 C1205 1.433 . S
C1198 H1194 0.929 . S
C1198 C1200 1.378 . S
C1198 C1202 1.350 . S
C1199 C1202 1.463 . S
C1199 C1204 1.350 . S
C1199 N1207 1.427 . S
C1200 H1191 0.930 . S
C1200 C1198 1.378 . S
C1200 C1201 1.367 . S
C1201 C1200 1.367 . S
C1201 C1203 1.433 . S
C1202 C1198 1.350 . S
C1202 C1199 1.463 . S
C1202 N1206 1.427 . S
C1203 H1193 0.929 . S
C1203 C1201 1.433 . S
C1203 N1206 1.384 . S
C1204 H1195 0.929 . S
C1204 C1196 1.378 . S
C1204 C1199 1.350 . S
C1205 H1192 0.920 1_655 S
C1205 C1197 1.433 . S
C1205 N1207 1.384 . S
N1206 C1202 1.427 . S
N1206 C1203 1.384 . S
N1207 C1199 1.427 . S
N1207 C1205 1.384 . S
H1208 C1214 0.930 . S
H1209 C1218 0.930 . S
H1210 C1223 0.929 . S
H1211 C1221 0.929 . S
H1212 C1216 0.929 . S
H1213 C1222 0.929 . S
C1214 H1208 0.930 . S
C1214 C1215 1.367 . S
C1214 C1222 1.378 . S
C1215 C1214 1.367 . S
C1215 C1223 1.433 . S
C1216 H1212 0.929 . S
C1216 C1218 1.378 . S
C1216 C1220 1.350 . S
C1217 C1220 1.463 . S
C1217 C1222 1.350 . S
C1217 N1225 1.427 . S
C1218 H1209 0.930 . S
C1218 C1216 1.378 . S
C1218 C1219 1.367 . S
C1219 C1218 1.367 . S
C1219 C1221 1.433 . S
C1220 C1216 1.350 . S
C1220 C1217 1.463 . S
C1220 N1224 1.427 . S
C1221 H1211 0.929 . S
C1221 C1219 1.433 . S
C1221 N1224 1.384 . S
C1222 H1213 0.929 . S
C1222 C1214 1.378 . S
C1222 C1217 1.350 . S
C1223 H1210 0.929 . S
C1223 C1215 1.433 . S
C1223 N1225 1.384 . S
N1224 C1220 1.427 . S
N1224 C1221 1.384 . S
N1225 C1217 1.427 . S
N1225 C1223 1.384 . S
H1226 C1232 0.930 . S
H1227 C1236 0.930 . S
H1228 C1241 0.929 . S
H1229 C1239 0.929 . S
H1230 C1234 0.929 . S
H1231 C1240 0.929 . S
C1232 H1226 0.930 . S
C1232 C1233 1.367 . S
C1232 C1240 1.378 . S
C1233 C1232 1.367 . S
C1233 C1241 1.433 . S
C1234 H1230 0.929 . S
C1234 C1236 1.378 . S
C1234 C1238 1.350 . S
C1235 C1238 1.463 . S
C1235 C1240 1.350 . S
C1235 N1243 1.427 . S
C1236 H1227 0.930 . S
C1236 C1234 1.378 . S
C1236 C1237 1.367 . S
C1237 C1236 1.367 . S
C1237 C1239 1.433 . S
C1238 C1234 1.350 . S
C1238 C1235 1.463 . S
C1238 N1242 1.427 . S
C1239 H1229 0.929 . S
C1239 C1237 1.433 . S
C1239 N1242 1.384 . S
C1240 H1231 0.929 . S
C1240 C1232 1.378 . S
C1240 C1235 1.350 . S
C1241 H1228 0.929 . S
C1241 C1233 1.433 . S
C1241 N1243 1.384 . S
N1242 C1238 1.427 . S
N1242 C1239 1.384 . S
N1243 C1235 1.427 . S
N1243 C1241 1.384 . S
H1244 C1250 0.930 . S
H1245 C1254 0.930 . S
H1246 C1259 0.929 . S
H1247 C1257 0.929 . S
H1248 C1252 0.929 . S
H1249 C1258 0.929 . S
C1250 H1244 0.930 . S
C1250 C1251 1.367 . S
C1250 C1258 1.378 . S
C1251 C1250 1.367 . S
C1251 C1259 1.433 . S
C1252 H1248 0.929 . S
C1252 C1254 1.378 . S
C1252 C1256 1.350 . S
C1253 C1256 1.463 . S
C1253 C1258 1.350 . S
C1253 N1261 1.427 . S
C1254 H1245 0.930 . S
C1254 C1252 1.378 . S
C1254 C1255 1.367 . S
C1255 C1254 1.367 . S
C1255 C1257 1.433 . S
C1256 C1252 1.350 . S
C1256 C1253 1.463 . S
C1256 N1260 1.427 . S
C1257 H1247 0.929 . S
C1257 C1255 1.433 . S
C1257 N1260 1.384 . S
C1258 H1249 0.929 . S
C1258 C1250 1.378 . S
C1258 C1253 1.350 . S
C1259 H1246 0.929 . S
C1259 C1251 1.433 . S
C1259 N1261 1.384 . S
N1260 C1256 1.427 . S
N1260 C1257 1.384 . S
N1261 C1253 1.427 . S
N1261 C1259 1.384 . S
H1262 C1268 0.930 1_655 S
H1263 C1272 0.930 . S
H1264 C1277 0.929 . S
H1265 C1275 0.929 . S
H1266 C1270 0.929 . S
H1267 C1276 0.929 . S
C1268 H1262 0.930 1_455 S
C1268 C1269 1.367 . S
C1268 C1276 1.378 . S
C1269 C1268 1.367 . S
C1269 C1277 1.433 . S
C1270 H1266 0.929 . S
C1270 C1272 1.378 . S
C1270 C1274 1.350 . S
C1271 C1274 1.463 . S
C1271 C1276 1.350 . S
C1271 N1279 1.427 . S
C1272 H1263 0.930 . S
C1272 C1270 1.378 . S
C1272 C1273 1.367 . S
C1273 C1272 1.367 . S
C1273 C1275 1.433 . S
C1274 C1270 1.350 . S
C1274 C1271 1.463 . S
C1274 N1278 1.427 . S
C1275 H1265 0.929 . S
C1275 C1273 1.433 . S
C1275 N1278 1.384 . S
C1276 H1267 0.929 . S
C1276 C1268 1.378 . S
C1276 C1271 1.350 . S
C1277 H1264 0.929 . S
C1277 C1269 1.433 . S
C1277 N1279 1.384 . S
N1278 C1274 1.427 . S
N1278 C1275 1.384 . S
N1279 C1271 1.427 . S
N1279 C1277 1.384 . S
H1280 C1286 0.930 . S
H1281 C1290 0.930 . S
H1282 C1295 0.929 . S
H1283 C1293 0.929 . S
H1284 C1288 0.929 . S
H1285 C1294 0.929 . S
C1286 H1280 0.930 . S
C1286 C1287 1.367 . S
C1286 C1294 1.378 . S
C1287 C1286 1.367 . S
C1287 C1295 1.433 1_554 S
C1288 H1284 0.929 . S
C1288 C1290 1.378 . S
C1288 C1292 1.350 1_556 S
C1289 C1292 1.463 . S
C1289 C1294 1.350 . S
C1289 N1297 1.427 1_554 S
C1290 H1281 0.930 . S
C1290 C1288 1.378 . S
C1290 C1291 1.367 1_556 S
C1291 C1290 1.367 1_554 S
C1291 C1293 1.433 . S
C1292 C1288 1.350 1_554 S
C1292 C1289 1.463 . S
C1292 N1296 1.427 . S
C1293 H1283 0.929 . S
C1293 C1291 1.433 . S
C1293 N1296 1.384 . S
C1294 H1285 0.929 . S
C1294 C1286 1.378 . S
C1294 C1289 1.350 . S
C1295 H1282 0.929 . S
C1295 C1287 1.433 1_556 S
C1295 N1297 1.384 . S
N1296 C1292 1.427 . S
N1296 C1293 1.384 . S
N1297 C1289 1.427 1_556 S
N1297 C1295 1.384 . S
H1298 C1304 0.930 . S
H1299 C1308 0.930 . S
H1300 C1313 0.929 . S
H1301 C1311 0.929 . S
H1302 C1306 0.929 . S
H1303 C1312 0.929 . S
C1304 H1298 0.930 . S
C1304 C1305 1.367 . S
C1304 C1312 1.378 . S
C1305 C1304 1.367 . S
C1305 C1313 1.433 . S
C1306 H1302 0.929 . S
C1306 C1308 1.378 . S
C1306 C1310 1.350 . S
C1307 C1310 1.463 . S
C1307 C1312 1.350 . S
C1307 N1315 1.427 . S
C1308 H1299 0.930 . S
C1308 C1306 1.378 . S
C1308 C1309 1.367 . S
C1309 C1308 1.367 . S
C1309 C1311 1.433 . S
C1310 C1306 1.350 . S
C1310 C1307 1.463 . S
C1310 N1314 1.427 . S
C1311 H1301 0.929 . S
C1311 C1309 1.433 . S
C1311 N1314 1.384 . S
C1312 H1303 0.929 . S
C1312 C1304 1.378 . S
C1312 C1307 1.350 . S
C1313 H1300 0.929 . S
C1313 C1305 1.433 . S
C1313 N1315 1.384 . S
N1314 C1310 1.427 . S
N1314 C1311 1.384 . S
N1315 C1307 1.427 . S
N1315 C1313 1.384 . S
H1316 C1322 0.930 . S
H1317 C1326 0.930 . S
H1318 C1331 0.929 . S
H1319 C1329 0.929 . S
H1320 C1324 0.929 . S
H1321 C1330 0.929 . S
C1322 H1316 0.930 . S
C1322 C1323 1.367 1_554 S
C1322 C1330 1.378 . S
C1323 C1322 1.367 1_556 S
C1323 C1331 1.433 . S
C1324 H1320 0.929 . S
C1324 C1326 1.378 . S
C1324 C1328 1.350 . S
C1325 C1328 1.463 . S
C1325 C1330 1.350 1_556 S
C1325 N1333 1.427 . S
C1326 H1317 0.930 . S
C1326 C1324 1.378 . S
C1326 C1327 1.367 . S
C1327 C1326 1.367 . S
C1327 C1329 1.433 1_556 S
C1328 C1324 1.350 . S
C1328 C1325 1.463 . S
C1328 N1332 1.427 1_556 S
C1329 H1319 0.929 . S
C1329 C1327 1.433 1_554 S
C1329 N1332 1.384 . S
C1330 H1321 0.929 . S
C1330 C1322 1.378 . S
C1330 C1325 1.350 1_554 S
C1331 H1318 0.929 . S
C1331 C1323 1.433 . S
C1331 N1333 1.384 . S
N1332 C1328 1.427 1_554 S
N1332 C1329 1.384 . S
N1333 C1325 1.427 . S
N1333 C1331 1.384 . S
H1334 C1340 0.930 . S
H1335 C1344 0.930 . S
H1336 C1349 0.929 . S
H1337 C1347 0.929 . S
H1338 C1342 0.929 . S
H1339 C1348 0.929 . S
C1340 H1334 0.930 . S
C1340 C1341 1.367 . S
C1340 C1348 1.378 . S
C1341 C1340 1.367 . S
C1341 C1349 1.433 . S
C1342 H1338 0.929 . S
C1342 C1344 1.378 . S
C1342 C1346 1.350 . S
C1343 C1346 1.463 . S
C1343 C1348 1.350 . S
C1343 N1351 1.427 . S
C1344 H1335 0.930 . S
C1344 C1342 1.378 . S
C1344 C1345 1.367 . S
C1345 C1344 1.367 . S
C1345 C1347 1.433 . S
C1346 C1342 1.350 . S
C1346 C1343 1.463 . S
C1346 N1350 1.427 . S
C1347 H1337 0.929 . S
C1347 C1345 1.433 . S
C1347 N1350 1.384 . S
C1348 H1339 0.929 . S
C1348 C1340 1.378 . S
C1348 C1343 1.350 . S
C1349 H1336 0.929 . S
C1349 C1341 1.433 . S
C1349 N1351 1.384 . S
N1350 C1346 1.427 . S
N1350 C1347 1.384 . S
N1351 C1343 1.427 . S
N1351 C1349 1.384 . S
H1352 C1358 0.930 . S
H1353 C1362 0.930 . S
H1354 C1367 0.929 1_655 S
H1355 C1365 0.929 . S
H1356 C1360 0.929 . S
H1357 C1366 0.929 . S
C1358 H1352 0.930 . S
C1358 C1359 1.367 . S
C1358 C1366 1.378 . S
C1359 C1358 1.367 . S
C1359 C1367 1.433 . S
C1360 H1356 0.929 . S
C1360 C1362 1.378 . S
C1360 C1364 1.350 . S
C1361 C1364 1.463 . S
C1361 C1366 1.350 . S
C1361 N1369 1.427 . S
C1362 H1353 0.930 . S
C1362 C1360 1.378 . S
C1362 C1363 1.367 . S
C1363 C1362 1.367 . S
C1363 C1365 1.433 . S
C1364 C1360 1.350 . S
C1364 C1361 1.463 . S
C1364 N1368 1.427 . S
C1365 H1355 0.929 . S
C1365 C1363 1.433 . S
C1365 N1368 1.384 . S
C1366 H1357 0.929 . S
C1366 C1358 1.378 . S
C1366 C1361 1.350 . S
C1367 H1354 0.929 1_455 S
C1367 C1359 1.433 . S
C1367 N1369 1.384 . S
N1368 C1364 1.427 . S
N1368 C1365 1.384 . S
N1369 C1361 1.427 . S
N1369 C1367 1.384 . S
H1370 C1376 0.930 . S
H1371 C1380 0.930 . S
H1372 C1385 0.929 . S
H1373 C1383 0.929 . S
H1374 C1378 0.929 . S
H1375 C1384 0.929 . S
C1376 H1370 0.930 . S
C1376 C1377 1.367 . S
C1376 C1384 1.378 . S
C1377 C1376 1.367 . S
C1377 C1385 1.433 . S
C1378 H1374 0.929 . S
C1378 C1380 1.378 . S
C1378 C1382 1.350 . S
C1379 C1382 1.463 . S
C1379 C1384 1.350 . S
C1379 N1387 1.427 . S
C1380 H1371 0.930 . S
C1380 C1378 1.378 . S
C1380 C1381 1.367 . S
C1381 C1380 1.367 . S
C1381 C1383 1.433 . S
C1382 C1378 1.350 . S
C1382 C1379 1.463 . S
C1382 N1386 1.427 . S
C1383 H1373 0.929 . S
C1383 C1381 1.433 . S
C1383 N1386 1.384 . S
C1384 H1375 0.929 . S
C1384 C1376 1.378 . S
C1384 C1379 1.350 . S
C1385 H1372 0.929 . S
C1385 C1377 1.433 . S
C1385 N1387 1.384 . S
N1386 C1382 1.427 . S
N1386 C1383 1.384 . S
N1387 C1379 1.427 . S
N1387 C1385 1.384 . S
H1388 C1394 0.930 . S
H1389 C1398 0.930 . S
H1390 C1403 0.929 . S
H1391 C1401 0.929 . S
H1392 C1396 0.929 . S
H1393 C1402 0.929 . S
C1394 H1388 0.930 . S
C1394 C1395 1.367 . S
C1394 C1402 1.378 . S
C1395 C1394 1.367 . S
C1395 C1403 1.433 . S
C1396 H1392 0.929 . S
C1396 C1398 1.378 . S
C1396 C1400 1.350 . S
C1397 C1400 1.463 . S
C1397 C1402 1.350 . S
C1397 N1405 1.427 . S
C1398 H1389 0.930 . S
C1398 C1396 1.378 . S
C1398 C1399 1.367 . S
C1399 C1398 1.367 . S
C1399 C1401 1.433 . S
C1400 C1396 1.350 . S
C1400 C1397 1.463 . S
C1400 N1404 1.427 . S
C1401 H1391 0.929 . S
C1401 C1399 1.433 . S
C1401 N1404 1.384 . S
C1402 H1393 0.929 . S
C1402 C1394 1.378 . S
C1402 C1397 1.350 . S
C1403 H1390 0.929 . S
C1403 C1395 1.433 . S
C1403 N1405 1.384 . S
N1404 C1400 1.427 . S
N1404 C1401 1.384 . S
N1405 C1397 1.427 . S
N1405 C1403 1.384 . S
H1406 C1412 0.930 . S
H1407 C1416 0.930 . S
H1408 C1421 0.929 . S
H1409 C1419 0.929 . S
H1410 C1414 0.929 . S
H1411 C1420 0.929 . S
C1412 H1406 0.930 . S
C1412 C1413 1.367 . S
C1412 C1420 1.378 . S
C1413 C1412 1.367 . S
C1413 C1421 1.433 . S
C1414 H1410 0.929 . S
C1414 C1416 1.378 . S
C1414 C1418 1.350 . S
C1415 C1418 1.463 . S
C1415 C1420 1.350 . S
C1415 N1423 1.427 . S
C1416 H1407 0.930 . S
C1416 C1414 1.378 . S
C1416 C1417 1.367 . S
C1417 C1416 1.367 . S
C1417 C1419 1.433 . S
C1418 C1414 1.350 . S
C1418 C1415 1.463 . S
C1418 N1422 1.427 . S
C1419 H1409 0.929 . S
C1419 C1417 1.433 . S
C1419 N1422 1.384 . S
C1420 H1411 0.929 . S
C1420 C1412 1.378 . S
C1420 C1415 1.350 . S
C1421 H1408 0.929 . S
C1421 C1413 1.433 . S
C1421 N1423 1.384 . S
N1422 C1418 1.427 . S
N1422 C1419 1.384 . S
N1423 C1415 1.427 . S
N1423 C1421 1.384 . S
H1424 C1430 0.930 . S
H1425 C1434 0.930 . S
H1426 C1439 0.929 . S
H1427 C1437 0.929 . S
H1428 C1432 0.929 . S
H1429 C1438 0.929 . S
C1430 H1424 0.930 . S
C1430 C1431 1.367 . S
C1430 C1438 1.378 . S
C1431 C1430 1.367 . S
C1431 C1439 1.433 . S
C1432 H1428 0.929 . S
C1432 C1434 1.378 . S
C1432 C1436 1.350 . S
C1433 C1436 1.463 . S
C1433 C1438 1.350 . S
C1433 N1441 1.427 . S
C1434 H1425 0.930 . S
C1434 C1432 1.378 . S
C1434 C1435 1.367 . S
C1435 C1434 1.367 . S
C1435 C1437 1.433 . S
C1436 C1432 1.350 . S
C1436 C1433 1.463 . S
C1436 N1440 1.427 . S
C1437 H1427 0.929 . S
C1437 C1435 1.433 . S
C1437 N1440 1.384 . S
C1438 H1429 0.929 . S
C1438 C1430 1.378 . S
C1438 C1433 1.350 . S
C1439 H1426 0.929 . S
C1439 C1431 1.433 . S
C1439 N1441 1.384 . S
N1440 C1436 1.427 . S
N1440 C1437 1.384 . S
N1441 C1433 1.427 . S
N1441 C1439 1.384 . S
H1442 C1448 0.930 . S
H1443 C1452 0.930 . S
H1444 C1457 0.929 . S
H1445 C1455 0.929 . S
H1446 C1450 0.929 . S
H1447 C1456 0.929 . S
C1448 H1442 0.930 . S
C1448 C1449 1.367 . S
C1448 C1456 1.378 . S
C1449 C1448 1.367 . S
C1449 C1457 1.433 . S
C1450 H1446 0.929 . S
C1450 C1452 1.378 . S
C1450 C1454 1.350 . S
C1451 C1454 1.463 . S
C1451 C1456 1.350 . S
C1451 N1459 1.427 . S
C1452 H1443 0.930 . S
C1452 C1450 1.378 . S
C1452 C1453 1.367 . S
C1453 C1452 1.367 . S
C1453 C1455 1.433 . S
C1454 C1450 1.350 . S
C1454 C1451 1.463 . S
C1454 N1458 1.427 . S
C1455 H1445 0.929 . S
C1455 C1453 1.433 . S
C1455 N1458 1.384 . S
C1456 H1447 0.929 . S
C1456 C1448 1.378 . S
C1456 C1451 1.350 . S
C1457 H1444 0.929 . S
C1457 C1449 1.433 . S
C1457 N1459 1.384 . S
N1458 C1454 1.427 . S
N1458 C1455 1.384 . S
N1459 C1451 1.427 . S
N1459 C1457 1.384 . S
H1460 C1466 0.930 . S
H1461 C1470 0.930 . S
H1462 C1475 0.929 . S
H1463 C1473 0.929 . S
H1464 C1468 0.929 . S
H1465 C1474 0.929 . S
C1466 H1460 0.930 . S
C1466 C1467 1.367 . S
C1466 C1474 1.378 . S
C1467 C1466 1.367 . S
C1467 C1475 1.433 . S
C1468 H1464 0.929 . S
C1468 C1470 1.378 . S
C1468 C1472 1.350 . S
C1469 C1472 1.463 . S
C1469 C1474 1.350 . S
C1469 N1477 1.427 . S
C1470 H1461 0.930 . S
C1470 C1468 1.378 . S
C1470 C1471 1.367 . S
C1471 C1470 1.367 . S
C1471 C1473 1.433 . S
C1472 C1468 1.350 . S
C1472 C1469 1.463 . S
C1472 N1476 1.427 . S
C1473 H1463 0.929 . S
C1473 C1471 1.433 . S
C1473 N1476 1.384 . S
C1474 H1465 0.929 . S
C1474 C1466 1.378 . S
C1474 C1469 1.350 . S
C1475 H1462 0.929 . S
C1475 C1467 1.433 . S
C1475 N1477 1.384 . S
N1476 C1472 1.427 . S
N1476 C1473 1.384 . S
N1477 C1469 1.427 . S
N1477 C1475 1.384 . S
H1478 C1484 0.930 . S
H1479 C1488 0.930 . S
H1480 C1493 0.929 . S
H1481 C1491 0.929 . S
H1482 C1486 0.929 . S
H1483 C1492 0.929 . S
C1484 H1478 0.930 . S
C1484 C1485 1.367 . S
C1484 C1492 1.378 . S
C1485 C1484 1.367 . S
C1485 C1493 1.433 . S
C1486 H1482 0.929 . S
C1486 C1488 1.378 . S
C1486 C1490 1.350 . S
C1487 C1490 1.463 . S
C1487 C1492 1.350 . S
C1487 N1495 1.427 . S
C1488 H1479 0.930 . S
C1488 C1486 1.378 . S
C1488 C1489 1.367 . S
C1489 C1488 1.367 . S
C1489 C1491 1.433 . S
C1490 C1486 1.350 . S
C1490 C1487 1.463 . S
C1490 N1494 1.427 . S
C1491 H1481 0.929 . S
C1491 C1489 1.433 . S
C1491 N1494 1.384 . S
C1492 H1483 0.929 . S
C1492 C1484 1.378 . S
C1492 C1487 1.350 . S
C1493 H1480 0.929 . S
C1493 C1485 1.433 . S
C1493 N1495 1.384 . S
N1494 C1490 1.427 . S
N1494 C1491 1.384 . S
N1495 C1487 1.427 . S
N1495 C1493 1.384 . S
H1496 C1502 0.930 . S
H1497 C1506 0.930 . S
H1498 C1511 0.929 . S
H1499 C1509 0.929 . S
H1500 C1504 0.929 . S
H1501 C1510 0.929 . S
C1502 H1496 0.930 . S
C1502 C1503 1.367 . S
C1502 C1510 1.378 . S
C1503 C1502 1.367 . S
C1503 C1511 1.433 1_554 S
C1504 H1500 0.929 . S
C1504 C1506 1.378 . S
C1504 C1508 1.350 1_556 S
C1505 C1508 1.463 . S
C1505 C1510 1.350 . S
C1505 N1513 1.427 1_554 S
C1506 H1497 0.930 . S
C1506 C1504 1.378 . S
C1506 C1507 1.367 1_556 S
C1507 C1506 1.367 1_554 S
C1507 C1509 1.433 . S
C1508 C1504 1.350 1_554 S
C1508 C1505 1.463 . S
C1508 N1512 1.427 . S
C1509 H1499 0.929 . S
C1509 C1507 1.433 . S
C1509 N1512 1.384 . S
C1510 H1501 0.929 . S
C1510 C1502 1.378 . S
C1510 C1505 1.350 . S
C1511 H1498 0.929 . S
C1511 C1503 1.433 1_556 S
C1511 N1513 1.384 . S
N1512 C1508 1.427 . S
N1512 C1509 1.384 . S
N1513 C1505 1.427 1_556 S
N1513 C1511 1.384 . S
H1514 C1520 0.930 . S
H1515 C1524 0.930 . S
H1516 C1529 0.929 . S
H1517 C1527 0.929 . S
H1518 C1522 0.929 . S
H1519 C1528 0.929 . S
C1520 H1514 0.930 . S
C1520 C1521 1.367 . S
C1520 C1528 1.378 . S
C1521 C1520 1.367 . S
C1521 C1529 1.433 . S
C1522 H1518 0.929 . S
C1522 C1524 1.378 . S
C1522 C1526 1.350 . S
C1523 C1526 1.463 . S
C1523 C1528 1.350 . S
C1523 N1531 1.427 . S
C1524 H1515 0.930 . S
C1524 C1522 1.378 . S
C1524 C1525 1.367 . S
C1525 C1524 1.367 . S
C1525 C1527 1.433 . S
C1526 C1522 1.350 . S
C1526 C1523 1.463 . S
C1526 N1530 1.427 . S
C1527 H1517 0.929 . S
C1527 C1525 1.433 . S
C1527 N1530 1.384 . S
C1528 H1519 0.929 . S
C1528 C1520 1.378 . S
C1528 C1523 1.350 . S
C1529 H1516 0.929 . S
C1529 C1521 1.433 . S
C1529 N1531 1.384 . S
N1530 C1526 1.427 . S
N1530 C1527 1.384 . S
N1531 C1523 1.427 . S
N1531 C1529 1.384 . S
H1532 C1538 0.930 . S
H1533 C1542 0.930 . S
H1534 C1547 0.929 . S
H1535 C1545 0.929 . S
H1536 C1540 0.929 . S
H1537 C1546 0.929 . S
C1538 H1532 0.930 . S
C1538 C1539 1.367 1_554 S
C1538 C1546 1.378 . S
C1539 C1538 1.367 1_556 S
C1539 C1547 1.433 . S
C1540 H1536 0.929 . S
C1540 C1542 1.378 . S
C1540 C1544 1.350 . S
C1541 C1544 1.463 . S
C1541 C1546 1.350 1_556 S
C1541 N1549 1.427 . S
C1542 H1533 0.930 . S
C1542 C1540 1.378 . S
C1542 C1543 1.367 . S
C1543 C1542 1.367 . S
C1543 C1545 1.433 1_556 S
C1544 C1540 1.350 . S
C1544 C1541 1.463 . S
C1544 N1548 1.427 1_556 S
C1545 H1535 0.929 . S
C1545 C1543 1.433 1_554 S
C1545 N1548 1.384 . S
C1546 H1537 0.929 . S
C1546 C1538 1.378 . S
C1546 C1541 1.350 1_554 S
C1547 H1534 0.929 . S
C1547 C1539 1.433 . S
C1547 N1549 1.384 . S
N1548 C1544 1.427 1_554 S
N1548 C1545 1.384 . S
N1549 C1541 1.427 . S
N1549 C1547 1.384 . S
H1550 C1556 0.930 . S
H1551 C1560 0.930 . S
H1552 C1565 0.929 . S
H1553 C1563 0.929 . S
H1554 C1558 0.929 . S
H1555 C1564 0.929 . S
C1556 H1550 0.930 . S
C1556 C1557 1.367 . S
C1556 C1564 1.378 . S
C1557 C1556 1.367 . S
C1557 C1565 1.433 . S
C1558 H1554 0.929 . S
C1558 C1560 1.378 . S
C1558 C1562 1.350 . S
C1559 C1562 1.463 . S
C1559 C1564 1.350 . S
C1559 N1567 1.427 . S
C1560 H1551 0.930 . S
C1560 C1558 1.378 . S
C1560 C1561 1.367 . S
C1561 C1560 1.367 . S
C1561 C1563 1.433 . S
C1562 C1558 1.350 . S
C1562 C1559 1.463 . S
C1562 N1566 1.427 . S
C1563 H1553 0.929 . S
C1563 C1561 1.433 . S
C1563 N1566 1.384 . S
C1564 H1555 0.929 . S
C1564 C1556 1.378 . S
C1564 C1559 1.350 . S
C1565 H1552 0.929 . S
C1565 C1557 1.433 . S
C1565 N1567 1.384 . S
N1566 C1562 1.427 . S
N1566 C1563 1.384 . S
N1567 C1559 1.427 . S
N1567 C1565 1.384 . S
C423 C3 1.515 . S
C427 C44 1.512 . S
C441 C31 1.503 . S
C445 C16 1.506 . S
C459 C94 1.516 . S
C463 C57 1.508 . S
C477 C81 1.503 . S
C481 C68 1.506 . S
C495 C107 1.535 . S
C499 C146 1.541 . S
C513 C120 1.535 . S
C517 C133 1.541 . S
C531 C200 1.541 . S
C535 C161 1.535 . S
C549 C185 1.541 . S
C553 C172 1.535 . S
C567 C211 1.535 . S
C571 C252 1.541 . S
C585 C224 1.540 . S
C589 C239 1.542 . S
C603 C265 1.529 . S
C607 C302 1.535 . S
C621 C278 1.538 . S
C625 C289 1.532 . S
C639 C317 1.512 . S
C643 C354 1.499 . S
C657 C341 1.511 . S
C661 C328 1.513 . S
C675 C406 1.517 . S
C679 C367 1.510 . S
C693 C393 1.515 . S
C697 C382 1.507 . S
C711 C4 1.244 . S
C715 C62 1.243 . S
C729 C387 1.232 . S
C733 C17 1.232 . S
C747 C36 1.257 . S
C751 C186 1.257 . S
C765 C303 1.264 . S
C769 C49 1.264 . S
C783 C329 1.238 . S
C787 C69 1.237 . S
C801 C82 1.265 . S
C805 C134 1.264 . S
C819 C95 1.266 . S
C823 C257 1.265 . S
C837 C166 1.244 . S
C841 C108 1.244 . S
C855 C283 1.257 . S
C859 C121 1.257 . S
C873 C147 1.262 . S
C877 C407 1.262 . S
C891 C173 1.245 . S
C895 C225 1.245 . S
C909 C205 1.261 . S
C913 C355 1.261 . S
C927 C270 1.247 . S
C931 C212 1.247 . S
C945 C244 1.255 . S
C949 C394 1.256 . S
C963 C290 1.265 . S
C967 C342 1.265 . S
C981 C368 1.245 . S
C985 C322 1.244 . S
C999 C10 1.374 . S
C1003 C251 1.380 . S
C1017 C23 1.374 . S
C1021 C238 1.380 . S
C1035 C231 1.348 . S
C1039 C30 1.353 . S
C1053 C218 1.345 . S
C1057 C43 1.350 . S
C1071 C56 1.372 . S
C1075 C309 1.380 . S
C1089 C75 1.361 . S
C1093 C296 1.362 . S
C1107 C88 1.363 . S
C1111 C277 1.359 . S
C1125 C264 1.344 . S
C1129 C101 1.344 . S
C1143 C114 1.360 . S
C1147 C361 1.356 . S
C1161 C348 1.356 . S
C1165 C127 1.350 . S
C1179 C335 1.371 . S
C1183 C140 1.371 . S
C1197 C153 1.364 . S
C1201 C316 1.364 . S
C1215 C160 1.363 . S
C1219 C413 1.360 . S
C1233 C179 1.353 . S
C1237 C400 1.359 . S
C1251 C381 1.357 . S
C1255 C192 1.362 . S
C1269 C199 1.375 . S
C1273 C374 1.380 . S
C1287 C18 1.388 . S
C1291 C5 1.386 . S
C1305 C29 1.389 . S
C1309 C42 1.392 . S
C1323 C70 1.389 . S
C1327 C55 1.392 . S
C1341 C83 1.394 . S
C1345 C96 1.391 . S
C1359 C122 1.386 . S
C1363 C109 1.385 . S
C1377 C135 1.389 . S
C1381 C148 1.386 . S
C1395 C159 1.389 . S
C1399 C174 1.386 . S
C1413 C187 1.386 . S
C1417 C198 1.383 . S
C1431 C213 1.390 . S
C1435 C226 1.393 . S
C1449 C250 1.385 . S
C1453 C237 1.388 . S
C1467 C263 1.389 . S
C1471 C276 1.386 . S
C1485 C304 1.384 . S
C1489 C291 1.382 . S
C1503 C330 1.393 . S
C1507 C315 1.390 . S
C1521 C343 1.394 . S
C1525 C356 1.396 . S
C1539 C369 1.390 . S
C1543 C380 1.393 . S
C1557 C408 1.391 . S
C1561 C395 1.388 . S
