# Generated by pormake.
# Topology rob, (6)-cn, num edge types: 1
# Building blocks:
#     Node 0, Type 0, BuildingBlock: BETFEN_clean_sbu_0, # of connection points: 6
#     Node 1, Type 0, BuildingBlock: BETFEN_clean_sbu_0, # of connection points: 6
#     Node 2, Type 0, BuildingBlock: BETFEN_clean_sbu_0, # of connection points: 6
#     Node 3, Type 0, BuildingBlock: BETFEN_clean_sbu_0, # of connection points: 6
#     Edge 4, Type (0, 0), BuildingBlock: MIFKUJ_clean_linker_0, # of connection points: 2
#     Edge 5, Type (0, 0), BuildingBlock: MIFKUJ_clean_linker_0, # of connection points: 2
#     Edge 6, Type (0, 0), BuildingBlock: MIFKUJ_clean_linker_0, # of connection points: 2
#     Edge 7, Type (0, 0), BuildingBlock: MIFKUJ_clean_linker_0, # of connection points: 2
#     Edge 8, Type (0, 0), BuildingBlock: MIFKUJ_clean_linker_0, # of connection points: 2
#     Edge 9, Type (0, 0), BuildingBlock: MIFKUJ_clean_linker_0, # of connection points: 2
#     Edge 10, Type (0, 0), BuildingBlock: MIFKUJ_clean_linker_0, # of connection points: 2
#     Edge 11, Type (0, 0), BuildingBlock: MIFKUJ_clean_linker_0, # of connection points: 2
#     Edge 12, Type (0, 0), BuildingBlock: MIFKUJ_clean_linker_0, # of connection points: 2
#     Edge 13, Type (0, 0), BuildingBlock: MIFKUJ_clean_linker_0, # of connection points: 2
#     Edge 14, Type (0, 0), BuildingBlock: MIFKUJ_clean_linker_0, # of connection points: 2
#     Edge 15, Type (0, 0), BuildingBlock: MIFKUJ_clean_linker_0, # of connection points: 2
# Relax obj value: 0.048
# Max RMSD: 0.154
# Mean RMSD: 0.154
data_MOF--net-rob--node1-BETFEN_clean_sbu_0--edge1-MIFKUJ_clean_linker_0
_symmetry_space_group_name_H-M    P1
_symmetry_Int_Tables_number       1
_symmetry_cell_setting            triclinic
loop_
_symmetry_equiv_pos_as_xyz
'x, y, z'
_cell_length_a     17.880773
_cell_length_b     33.484276
_cell_length_c     45.86782
_cell_angle_alpha  95.362475
_cell_angle_beta   90.046976
_cell_angle_gamma 89.745927
loop_
_atom_site_label
_atom_site_type_symbol
_atom_site_fract_x
_atom_site_fract_y
_atom_site_fract_z
_atom_type_partial_charge
Pr0 Pr 0.17444 0.27856 0.0148 0.0
Pr1 Pr 0.32801 0.25856 0.98801 0.0
C2 C 0.0502 0.28053 0.04817 0.0
C3 C 0.03516 0.27879 0.07971 0.0
C4 C 0.98455 0.30593 0.09417 0.0
C5 C 0.97226 0.30582 0.1243 0.0
C6 C 0.01049 0.27854 0.14062 0.0
C7 C 0.06087 0.25119 0.12599 0.0
C8 C 0.07304 0.25131 0.09587 0.0
C9 C 0.26446 0.34503 0.00883 0.0
C10 C 0.318 0.25636 0.05777 0.0
C11 C 0.45365 0.25836 0.95564 0.0
C12 C 0.46893 0.25591 0.92401 0.0
C13 C 0.41546 0.23994 0.9038 0.0
C14 C 0.42798 0.24008 0.87373 0.0
C15 C 0.49421 0.25628 0.8633 0.0
C16 C 0.54785 0.27199 0.88369 0.0
C17 C 0.53521 0.27183 0.91379 0.0
C18 C 0.23859 0.19191 0.99423 0.0
C19 C 0.18383 0.27925 0.94443 0.0
O20 O 0.07575 0.24777 0.03369 0.0
O21 O 0.08319 0.31294 0.04094 0.0
O22 O 0.28631 0.31249 0.01784 0.0
O23 O 0.19311 0.34461 1.00329 0.0
O24 O 0.36502 0.26352 0.03679 0.0
O25 O 0.24509 0.25479 0.05307 0.0
O26 O 0.42034 0.29128 0.9665 0.0
O27 O 0.42677 0.22608 0.96575 0.0
O28 O 0.21639 0.22438 0.98519 0.0
O29 O 0.31025 0.19226 0.99914 0.0
O30 O 0.13647 0.27535 0.96603 0.0
O31 O 0.25694 0.27861 0.94865 0.0
H32 H 0.95477 0.3274 0.08216 0.0
H33 H 0.93226 0.3269 0.13477 0.0
H34 H 0.09191 0.23009 0.13789 0.0
H35 H 0.11256 0.23009 0.08528 0.0
H36 H 0.36347 0.22792 0.9113 0.0
H37 H 0.38506 0.22827 0.85867 0.0
H38 H 0.5998 0.28424 0.87639 0.0
H39 H 0.57687 0.28451 0.92909 0.0
Pr40 Pr 0.67702 0.78473 0.02838 0.0
Pr41 Pr 0.82544 0.75746 1.00001 0.0
C42 C 0.55461 0.7895 0.06288 0.0
C43 C 0.54009 0.78711 0.09425 0.0
C44 C 0.47354 0.80274 0.10686 0.0
C45 C 0.45997 0.80098 0.13677 0.0
C46 C 0.51322 0.78391 0.15458 0.0
C47 C 0.57987 0.7683 0.14182 0.0
C48 C 0.59288 0.76964 0.1119 0.0
C49 C 0.76986 0.84748 0.01638 0.0
C50 C 0.826 0.76498 0.07046 0.0
C51 C 0.94299 0.75016 0.96338 0.0
C52 C 0.95137 0.74681 0.93107 0.0
C53 C 0.9316 0.71159 0.91364 0.0
C54 C 0.93871 0.70933 0.88313 0.0
C55 C 0.96572 0.74219 0.86935 0.0
C56 C 0.9843 0.77755 0.88684 0.0
C57 C 0.97759 0.77974 0.91728 0.0
C58 C 0.73039 0.69501 0.01118 0.0
C59 C 0.67947 0.78126 0.9579 0.0
O60 O 0.57698 0.75627 0.04811 0.0
O61 O 0.59123 0.82105 0.05608 0.0
O62 O 0.79132 0.81576 0.02685 0.0
O63 O 0.69756 0.8485 0.01312 0.0
O64 O 0.87118 0.7641 0.04772 0.0
O65 O 0.75265 0.76784 0.06753 0.0
O66 O 0.91918 0.78479 0.97556 0.0
O67 O 0.91399 0.71961 0.97514 0.0
O68 O 0.71053 0.72699 1.00075 0.0
O69 O 0.80234 0.6938 0.0153 0.0
O70 O 0.63372 0.78293 0.98048 0.0
O71 O 0.7521 0.7754 0.96071 0.0
H72 H 0.43217 0.81636 0.09359 0.0
H73 H 0.40834 0.81351 0.14605 0.0
H74 H 0.62149 0.75454 0.1549 0.0
H75 H 0.64408 0.75686 0.10255 0.0
H76 H 0.9109 0.68566 0.92351 0.0
H77 H 0.92473 0.68147 0.87042 0.0
H78 H 0.00416 0.80368 0.87701 0.0
H79 H 0.99281 0.80735 0.93007 0.0
Pr80 Pr 0.1696 0.75142 0.49923 0.0
Pr81 Pr 0.33136 0.77645 0.52886 0.0
C82 C 0.04494 0.76129 0.46809 0.0
C83 C 0.0314 0.761 0.43628 0.0
C84 C 0.97038 0.74012 0.4232 0.0
C85 C 0.95914 0.73868 0.39288 0.0
C86 C 0.00875 0.7582 0.37512 0.0
C87 C 0.06966 0.7792 0.38835 0.0
C88 C 0.08093 0.78053 0.41855 0.0
C89 C 0.26475 0.68431 0.49826 0.0
C90 C 0.31984 0.7682 0.45763 0.0
C91 C 0.45424 0.78411 0.56307 0.0
C92 C 0.47 0.78667 0.59473 0.0
C93 C 0.53292 0.80762 0.606 0.0
C94 C 0.54671 0.81179 0.63618 0.0
C95 C 0.49748 0.79521 0.6557 0.0
C96 C 0.43453 0.77402 0.64419 0.0
C97 C 0.4211 0.76972 0.61402 0.0
C98 C 0.23348 0.83821 0.51811 0.0
C99 C 0.18437 0.74885 0.57013 0.0
O100 O 0.08459 0.79133 0.48003 0.0
O101 O 0.06261 0.72682 0.47777 0.0
O102 O 0.27868 0.71998 0.50771 0.0
O103 O 0.19628 0.68206 0.48856 0.0
O104 O 0.36704 0.7664 0.47974 0.0
O105 O 0.24637 0.7689 0.46109 0.0
O106 O 0.43037 0.74956 0.55092 0.0
O107 O 0.41874 0.81473 0.55381 0.0
O108 O 0.2156 0.80562 0.52795 0.0
O109 O 0.3054 0.84044 0.5142 0.0
O110 O 0.1374 0.74575 0.54771 0.0
O111 O 0.25597 0.75848 0.56775 0.0
H112 H 0.93161 0.72479 0.43642 0.0
H113 H 0.91122 0.72262 0.38338 0.0
H114 H 0.10947 0.7941 0.3753 0.0
H115 H 0.12888 0.79666 0.42794 0.0
H116 H 0.57128 0.82094 0.59144 0.0
H117 H 0.59629 0.82773 0.64416 0.0
H118 H 0.3948 0.76129 0.65851 0.0
H119 H 0.37216 0.75343 0.60579 0.0
Pr120 Pr 0.65872 0.24357 0.48666 0.0
Pr121 Pr 0.82214 0.26577 0.51486 0.0
C122 C 0.53474 0.23702 0.45338 0.0
C123 C 0.51781 0.24132 0.42243 0.0
C124 C 0.47068 0.21352 0.40699 0.0
C125 C 0.45838 0.21522 0.37705 0.0
C126 C 0.49274 0.24497 0.36196 0.0
C127 C 0.53933 0.27313 0.37769 0.0
C128 C 0.55208 0.27119 0.40759 0.0
C129 C 0.75145 0.18003 0.49839 0.0
C130 C 0.80482 0.26672 0.44369 0.0
C131 C 0.94545 0.25536 0.54666 0.0
C132 C 0.95849 0.25686 0.57873 0.0
C133 C 0.00196 0.28755 0.59307 0.0
C134 C 0.01126 0.29019 0.62353 0.0
C135 C 0.97796 0.2619 0.64023 0.0
C136 C 0.93519 0.23096 0.62586 0.0
C137 C 0.92518 0.22858 0.59552 0.0
C138 C 0.73264 0.33504 0.51506 0.0
C139 C 0.67163 0.2519 0.55721 0.0
O140 O 0.55198 0.26975 0.46987 0.0
O141 O 0.57677 0.20627 0.45823 0.0
O142 O 0.77196 0.21151 0.48759 0.0
O143 O 0.67969 0.18012 0.50322 0.0
O144 O 0.85363 0.26723 0.46552 0.0
O145 O 0.73196 0.26147 0.44729 0.0
O146 O 0.90482 0.22551 0.53507 0.0
O147 O 0.93035 0.28945 0.53587 0.0
O148 O 0.7158 0.2996 0.50615 0.0
O149 O 0.80128 0.33593 0.52451 0.0
O150 O 0.62456 0.25629 0.53554 0.0
O151 O 0.74486 0.24866 0.55329 0.0
H152 H 0.44454 0.18995 0.41799 0.0
H153 H 0.42331 0.19257 0.36564 0.0
H154 H 0.56597 0.29676 0.36694 0.0
H155 H 0.58943 0.29274 0.419 0.0
H156 H 0.02824 0.30973 0.58075 0.0
H157 H 0.04519 0.31413 0.63401 0.0
H158 H 0.90837 0.20893 0.63816 0.0
H159 H 0.89065 0.2047 0.58533 0.0
H160 H 0.76822 0.62063 0.02615 0.0
H161 H 0.68771 0.56167 0.026 0.0
H162 H 0.50044 0.63124 0.9992 0.0
H163 H 0.58075 0.69041 0.99944 0.0
H164 H 0.46102 0.58343 0.04163 0.0
H165 H 0.59037 0.5682 0.94977 0.0
H166 H 0.70021 0.56475 0.91716 0.0
H167 H 0.78446 0.46348 0.95811 0.0
H168 H 0.6756 0.46669 0.99129 0.0
H169 H 0.22326 0.41974 0.99543 0.0
H170 H 0.30171 0.47962 0.99622 0.0
H171 H 0.49146 0.41126 0.02227 0.0
H172 H 0.41334 0.35125 0.02134 0.0
H173 H 0.52876 0.45883 0.97996 0.0
H174 H 0.39957 0.47425 0.07198 0.0
H175 H 0.2896 0.47769 0.10452 0.0
H176 H 0.2048 0.5785 0.06317 0.0
H177 H 0.31382 0.5753 0.03006 0.0
C178 C 0.70981 0.62339 0.02035 0.0
C179 C 0.68082 0.66003 0.01264 0.0
C180 C 0.66394 0.58965 0.02016 0.0
C181 C 0.58826 0.59189 0.01221 0.0
C182 C 0.55869 0.62879 1.00532 0.0
C183 C 0.60464 0.66253 1.00542 0.0
C184 C 0.5403 0.55561 0.01068 0.0
C185 C 0.47528 0.55636 0.02785 0.0
C186 C 0.5597 0.52 0.99315 0.0
C187 C 0.62521 0.51796 0.97322 0.0
C188 C 0.63264 0.54541 0.952 0.0
C189 C 0.69467 0.54346 0.93338 0.0
C190 C 0.74939 0.51399 0.93562 0.0
C191 C 0.74209 0.48634 0.95644 0.0
C192 C 0.68021 0.48819 0.97514 0.0
C193 C 0.28173 0.41749 1.00128 0.0
C194 C 0.31215 0.38091 0.00846 0.0
C195 C 0.32642 0.45175 1.00184 0.0
C196 C 0.40228 0.45006 0.00966 0.0
C197 C 0.43306 0.4133 0.01625 0.0
C198 C 0.38835 0.37908 0.01577 0.0
C199 C 0.44958 0.48659 0.01098 0.0
C200 C 0.51448 0.48589 0.99374 0.0
C201 C 0.43003 0.52223 0.02844 0.0
C202 C 0.36448 0.52427 0.04834 0.0
C203 C 0.35716 0.49694 0.06965 0.0
C204 C 0.29506 0.49888 0.08823 0.0
C205 C 0.24014 0.52822 0.08586 0.0
C206 C 0.24732 0.55575 0.06495 0.0
C207 C 0.30929 0.5539 0.04628 0.0
H208 H 0.19211 0.52968 0.10027 0.0
H209 H 0.79735 0.51251 0.92117 0.0
H210 H 0.40674 0.68286 0.52066 0.0
H211 H 0.48696 0.6241 0.52464 0.0
H212 H 0.31636 0.54806 0.48277 0.0
H213 H 0.23542 0.60656 0.47971 0.0
H214 H 0.37277 0.5144 0.52787 0.0
H215 H 0.47519 0.57694 0.44624 0.0
H216 H 0.52738 0.63365 0.4224 0.0
H217 H 0.71159 0.6407 0.48273 0.0
H218 H 0.65963 0.58456 0.50736 0.0
H219 H 0.59122 0.33895 0.49262 0.0
H220 H 0.51314 0.39874 0.48986 0.0
H221 H 0.6874 0.4719 0.53201 0.0
H222 H 0.766 0.41223 0.53415 0.0
H223 H 0.63055 0.50764 0.48776 0.0
H224 H 0.53057 0.44605 0.56936 0.0
H225 H 0.47849 0.39073 0.59481 0.0
H226 H 0.29118 0.38275 0.53594 0.0
H227 H 0.3428 0.43761 0.50982 0.0
C228 C 0.38642 0.65362 0.51246 0.0
C229 C 0.31484 0.64932 0.50001 0.0
C230 C 0.43242 0.62003 0.51454 0.0
C231 C 0.4081 0.58155 0.50373 0.0
C232 C 0.33645 0.57732 0.49131 0.0
C233 C 0.29035 0.61083 0.48945 0.0
C234 C 0.45689 0.54562 0.50533 0.0
C235 C 0.42879 0.51275 0.51875 0.0
C236 C 0.53079 0.54374 0.49414 0.0
C237 C 0.56312 0.57678 0.47882 0.0
C238 C 0.52663 0.59071 0.45452 0.0
C239 C 0.55619 0.62275 0.44085 0.0
C240 C 0.6227 0.64081 0.45107 0.0
C241 C 0.66001 0.62672 0.47487 0.0
C242 C 0.63053 0.59479 0.4887 0.0
C243 C 0.61272 0.36774 0.50126 0.0
C244 C 0.68451 0.37087 0.51362 0.0
C245 C 0.56802 0.40194 0.4998 0.0
C246 C 0.59398 0.4399 0.51103 0.0
C247 C 0.66605 0.44303 0.52319 0.0
C248 C 0.7108 0.40887 0.52451 0.0
C249 C 0.5462 0.47633 0.51011 0.0
C250 C 0.57451 0.50928 0.49685 0.0
C251 C 0.4726 0.47837 0.52157 0.0
C252 C 0.44093 0.4457 0.53746 0.0
C253 C 0.47854 0.43232 0.56171 0.0
C254 C 0.44908 0.40106 0.57627 0.0
C255 C 0.38166 0.38318 0.56696 0.0
C256 C 0.34345 0.3966 0.54311 0.0
C257 C 0.37276 0.42779 0.52843 0.0
H258 H 0.35896 0.35898 0.57825 0.0
H259 H 0.64535 0.66574 0.44057 0.0
H260 H 0.28059 0.11745 0.00777 0.0
H261 H 0.20104 0.05854 0.01046 0.0
H262 H 0.00853 0.12742 0.98793 0.0
H263 H 0.08795 0.18641 0.98504 0.0
H264 H 0.9808 0.08242 0.03408 0.0
H265 H 0.08363 0.06214 0.93747 0.0
H266 H 0.18356 0.05641 0.90031 0.0
H267 H 0.27867 0.9566 0.9399 0.0
H268 H 0.17984 0.96211 0.9776 0.0
H269 H 0.72954 0.92122 1.00098 0.0
H270 H 0.81027 0.97921 0.99667 0.0
H271 H 0.00219 0.90975 0.01901 0.0
H272 H 0.92153 0.85154 0.0234 0.0
H273 H 0.03054 0.95489 0.9729 0.0
H274 H 0.92752 0.97538 0.06958 0.0
H275 H 0.82722 0.98111 0.1066 0.0
H276 H 0.73225 0.08072 0.06672 0.0
H277 H 0.83145 0.0752 0.02917 0.0
C278 C 0.22132 0.12 1.00335 0.0
C279 C 0.19045 0.15646 0.99613 0.0
C280 C 0.17599 0.08631 1.00482 0.0
C281 C 0.09894 0.08849 0.99916 0.0
C282 C 0.06784 0.12506 0.99235 0.0
C283 C 0.11326 0.15869 0.99066 0.0
C284 C 0.0508 0.05265 1.00052 0.0
C285 C 0.99104 0.05471 0.02042 0.0
C286 C 0.06522 0.01621 0.98316 0.0
C287 C 0.12479 1.01282 0.96056 0.0
C288 C 0.12625 0.0392 0.93843 0.0
C289 C 0.18261 0.03595 0.91723 0.0
C290 C 0.23756 1.00623 0.91779 0.0
C291 C 0.23614 0.97964 0.93952 0.0
C292 C 0.17993 0.9828 0.9608 0.0
C293 C 0.78896 0.91828 1.00491 0.0
C294 C 0.81922 0.88196 0.01271 0.0
C295 C 0.83498 0.95146 1.00252 0.0
C296 C 0.91214 0.94895 0.00785 0.0
C297 C 0.94279 0.91237 0.01488 0.0
C298 C 0.89667 0.87921 0.01745 0.0
C299 C 0.96051 0.98469 1.00644 0.0
C300 C 0.02033 0.98261 0.98655 0.0
C301 C 0.94614 0.02114 0.0238 0.0
C302 C 0.88648 0.0246 0.04638 0.0
C303 C 0.88488 0.99828 0.06855 0.0
C304 C 0.8283 1.00153 0.08966 0.0
C305 C 0.77327 0.03119 0.08897 0.0
C306 C 0.77484 0.05772 0.0672 0.0
C307 C 0.83127 0.05456 0.04601 0.0
H308 H 0.72952 0.03367 0.10534 0.0
H309 H 0.28114 1.00374 0.90135 0.0
H310 H 0.72048 0.11268 0.52528 0.0
H311 H 0.80128 0.05396 0.52875 0.0
H312 H 0.97492 0.11004 0.48189 0.0
H313 H 0.89448 0.16889 0.47848 0.0
H314 H 0.95048 0.03058 0.46041 0.0
H315 H -0.00244 0.10551 0.55324 0.0
H316 H 0.96394 0.14255 0.60043 0.0
H317 H 0.85111 0.03874 0.62653 0.0
H318 H 0.88442 1.00096 0.57949 0.0
H319 H 0.25914 0.90636 0.49166 0.0
H320 H 0.17364 0.96306 0.48797 0.0
H321 H 0.00406 0.90258 0.53393 0.0
H322 H 0.08928 0.84561 0.53751 0.0
H323 H 0.0233 0.98285 0.55571 0.0
H324 H 0.98342 0.90642 0.46391 0.0
H325 H 0.02086 0.86893 0.41737 0.0
H326 H 0.11947 0.97536 0.38894 0.0
H327 H 0.0836 1.0134 0.43554 0.0
C328 C 0.77602 0.11254 0.51587 0.0
C329 C 0.80125 0.14533 0.50165 0.0
C330 C 0.82217 0.07903 0.5179 0.0
C331 C 0.89422 0.07765 0.50563 0.0
C332 C 0.9195 0.11043 0.49145 0.0
C333 C 0.87364 0.14409 0.48964 0.0
C334 C 0.94286 0.04182 0.50734 0.0
C335 C 0.96718 0.02042 0.48124 0.0
C336 C 0.9631 0.02797 0.53449 0.0
C337 C 0.94281 0.05056 0.56275 0.0
C338 C 0.96509 0.09068 0.56896 0.0
C339 C 0.9462 0.11179 0.59569 0.0
C340 C 0.90492 0.09314 0.61638 0.0
C341 C 0.88292 0.0532 0.61046 0.0
C342 C 0.90202 0.03187 0.58381 0.0
C343 C 0.20349 0.90508 0.50083 0.0
C344 C 0.18075 0.8716 0.51482 0.0
C345 C 0.15468 0.93743 0.49867 0.0
C346 C 0.08241 0.93698 0.5106 0.0
C347 C 0.05959 0.90354 0.5246 0.0
C348 C 0.10816 0.87099 0.52651 0.0
C349 C 0.03124 0.97173 0.50879 0.0
C350 C 0.00641 0.99292 0.53487 0.0
C351 C 0.01051 0.98532 0.48161 0.0
C352 C 0.03143 0.9627 0.45337 0.0
C353 C 0.01362 0.92178 0.44784 0.0
C354 C 0.03448 0.90042 0.42143 0.0
C355 C 0.07272 0.91971 0.40024 0.0
C356 C 0.08993 0.96044 0.40539 0.0
C357 C 0.06927 0.98193 0.4318 0.0
H358 H 0.08884 0.90312 0.37981 0.0
H359 H 0.89027 0.10958 0.63704 0.0
H360 H 0.59461 0.26355 0.32049 0.0
H361 H 0.57449 0.26492 0.26785 0.0
H362 H 0.34554 0.22875 0.27788 0.0
H363 H 0.36386 0.22892 0.33062 0.0
H364 H 0.42234 0.18401 0.23195 0.0
H365 H 0.37688 0.32036 0.26916 0.0
H366 H 0.40587 0.38552 0.2962 0.0
H367 H 0.59263 0.3999 0.23951 0.0
H368 H 0.56602 0.33411 0.21252 0.0
H369 H 0.24088 0.22938 0.10316 0.0
H370 H 0.28306 0.22566 0.15328 0.0
H371 H 0.50038 0.26887 0.13066 0.0
H372 H 0.45804 0.27317 0.08014 0.0
H373 H 0.44383 0.3084 0.18166 0.0
H374 H 0.4825 0.17279 0.14228 0.0
H375 H 0.44915 0.10824 0.1152 0.0
H376 H 0.27041 0.09355 0.17569 0.0
H377 H 0.30201 0.15832 0.20291 0.0
C378 C 0.53957 0.2565 0.31164 0.0
C379 C 0.48082 0.24615 0.32992 0.0
C380 C 0.52843 0.25701 0.2815 0.0
C381 C 0.45859 0.24688 0.26906 0.0
C382 C 0.40002 0.23636 0.2871 0.0
C383 C 0.41078 0.23631 0.31724 0.0
C384 C 0.44619 0.24723 0.23718 0.0
C385 C 0.42655 0.21123 0.22095 0.0
C386 C 0.45362 0.28261 0.22283 0.0
C387 C 0.47026 0.32196 0.23914 0.0
C388 C 0.42488 0.33708 0.26272 0.0
C389 C 0.44081 0.37414 0.278 0.0
C390 C 0.50146 0.39666 0.2697 0.0
C391 C 0.54614 0.3822 0.24603 0.0
C392 C 0.53071 0.34501 0.23075 0.0
C393 C 0.29774 0.23798 0.1087 0.0
C394 C 0.34602 0.25164 0.08762 0.0
C395 C 0.32193 0.23561 0.13738 0.0
C396 C 0.39505 0.24666 0.14563 0.0
C397 C 0.44377 0.2601 0.12468 0.0
C398 C 0.41961 0.26233 0.09582 0.0
C399 C 0.41907 0.24524 0.17646 0.0
C400 C 0.4408 0.28104 0.19253 0.0
C401 C 0.4133 0.20969 0.19073 0.0
C402 C 0.39434 0.17057 0.17452 0.0
C403 C 0.43574 0.15594 0.14969 0.0
C404 C 0.4172 0.11929 0.13434 0.0
C405 C 0.35761 0.09685 0.14369 0.0
C406 C 0.31654 0.11098 0.16846 0.0
C407 C 0.33481 0.14763 0.18389 0.0
H408 H 0.34334 0.06848 0.13176 0.0
H409 H 0.51359 0.42541 0.2815 0.0
H410 H 0.38541 0.76093 0.18077 0.0
H411 H 0.36141 0.7593 0.23306 0.0
H412 H 0.58501 0.80196 0.25256 0.0
H413 H 0.60986 0.80265 0.20009 0.0
H414 H 0.55015 0.74607 0.2871 0.0
H415 H 0.42736 0.86508 0.25939 0.0
H416 H 0.34343 0.90242 0.22887 0.0
H417 H 0.15674 0.83301 0.25378 0.0
H418 H 0.23972 0.79467 0.28403 0.0
H419 H 0.4595 0.79021 0.43972 0.0
H420 H 0.50093 0.79571 0.38928 0.0
H421 H 0.28587 0.75332 0.35711 0.0
H422 H 0.24369 0.74907 0.40706 0.0
H423 H 0.32511 0.81556 0.3304 0.0
H424 H 0.45368 0.68373 0.33985 0.0
H425 H 0.5346 0.63965 0.3667 0.0
H426 H 0.70118 0.73193 0.37708 0.0
H427 H 0.62079 0.77645 0.35033 0.0
C428 C 0.4293 0.77014 0.19621 0.0
C429 C 0.4992 0.78233 0.18636 0.0
C430 C 0.41556 0.76924 0.22611 0.0
C431 C 0.47082 0.78142 0.24685 0.0
C432 C 0.54135 0.79267 0.23702 0.0
C433 C 0.55547 0.79306 0.20705 0.0
C434 C 0.45449 0.7828 0.27873 0.0
C435 C 0.50164 0.7619 0.29661 0.0
C436 C 0.39052 0.80286 0.29122 0.0
C437 C 0.33996 0.82681 0.27383 0.0
C438 C 0.36846 0.85766 0.25828 0.0
C439 C 0.32105 0.87895 0.24099 0.0
C440 C 0.24485 0.86994 0.23928 0.0
C441 C 0.21581 0.83981 0.25503 0.0
C442 C 0.26299 0.81833 0.2723 0.0
C443 C 0.42143 0.7818 0.42184 0.0
C444 C 0.34825 0.76945 0.42742 0.0
C445 C 0.44526 0.7847 0.39299 0.0
C446 C 0.3968 0.7745 0.36929 0.0
C447 C 0.32424 0.76155 0.37495 0.0
C448 C 0.3002 0.75914 0.40361 0.0
C449 C 0.41993 0.77822 0.33854 0.0
C450 C 0.37413 0.80022 0.32089 0.0
C451 C 0.48461 0.75907 0.32622 0.0
C452 C 0.53183 0.73312 0.34302 0.0
C453 C 0.50753 0.69453 0.34796 0.0
C454 C 0.5532 0.66952 0.36314 0.0
C455 C 0.62304 0.68296 0.37356 0.0
C456 C 0.64715 0.72153 0.36896 0.0
C457 C 0.60172 0.74658 0.35371 0.0
H458 H 0.6585 0.66347 0.38514 0.0
H459 H 0.20828 0.88636 0.2258 0.0
H460 H 0.73718 0.74827 0.90662 0.0
H461 H 0.69626 0.75823 0.85722 0.0
H462 H 0.51773 0.83556 0.89231 0.0
H463 H 0.55657 0.82382 0.94222 0.0
H464 H 0.46845 0.79506 0.8461 0.0
H465 H 0.6839 0.87493 0.86488 0.0
H466 H 0.81268 0.89227 0.88057 0.0
H467 H 0.89976 0.80584 0.81406 0.0
H468 H 0.77148 0.78624 0.79922 0.0
H469 H 0.55147 0.86126 0.68928 0.0
H470 H 0.57397 0.86854 0.74218 0.0
H471 H 0.49638 0.74784 0.74801 0.0
H472 H 0.47639 0.73977 0.69512 0.0
H473 H 0.66497 0.82904 0.77639 0.0
H474 H 0.38931 0.74817 0.81126 0.0
H475 H 0.25648 0.74645 0.79643 0.0
H476 H 0.28344 0.85661 0.75674 0.0
H477 H 0.41539 0.85969 0.77199 0.0
C478 C 0.68887 0.76722 0.90385 0.0
C479 C 0.65042 0.78562 0.92824 0.0
C480 C 0.66578 0.77311 0.87556 0.0
C481 C 0.60524 0.79864 0.87095 0.0
C482 C 0.56496 0.81598 0.89529 0.0
C483 C 0.58714 0.80931 0.92377 0.0
C484 C 0.58561 0.80736 0.84066 0.0
C485 C 0.51155 0.80217 0.83081 0.0
C486 C 0.64083 0.81893 0.821 0.0
C487 C 0.71811 0.82943 0.83071 0.0
C488 C 0.73053 0.8593 0.85383 0.0
C489 C 0.80343 0.86932 0.86272 0.0
C490 C 0.8644 0.85003 0.84839 0.0
C491 C 0.85255 0.82047 0.82532 0.0
C492 C 0.77978 0.80987 0.81668 0.0
C493 C 0.53985 0.83609 0.70175 0.0
C494 C 0.51151 0.79996 0.6879 0.0
C495 C 0.55231 0.84044 0.73203 0.0
C496 C 0.53585 0.80895 0.7491 0.0
C497 C 0.50807 0.77283 0.73535 0.0
C498 C 0.49632 0.76832 0.70511 0.0
C499 C 0.54961 0.81291 0.78119 0.0
C500 C 0.62222 0.82115 0.79149 0.0
C501 C 0.49259 0.80567 0.80139 0.0
C502 C 0.41273 0.80383 0.79245 0.0
C503 C 0.36681 0.77215 0.79953 0.0
C504 C 0.29155 0.77103 0.79114 0.0
C505 C 0.26173 0.80138 0.7756 0.0
C506 C 0.30673 0.83306 0.76866 0.0
C507 C 0.38171 0.83449 0.77718 0.0
H508 H 0.20391 0.80033 0.7687 0.0
H509 H 0.92079 0.85809 0.85511 0.0
H510 H 0.73331 0.21222 0.60017 0.0
H511 H 0.69262 0.2125 0.65081 0.0
H512 H 0.50719 0.28994 0.63345 0.0
H513 H 0.54608 0.28803 0.58204 0.0
H514 H 0.69042 0.26977 0.69027 0.0
H515 H 0.36856 0.28215 0.68593 0.0
H516 H 0.26336 0.26216 0.65296 0.0
H517 H 0.39334 0.16372 0.61296 0.0
H518 H 0.49882 0.18275 0.64599 0.0
H519 H 0.55247 0.31717 0.83451 0.0
H520 H 0.57507 0.31776 0.78197 0.0
H521 H 0.48731 0.19777 0.76715 0.0
H522 H 0.46453 0.197 0.81963 0.0
H523 H 0.43653 0.24203 0.72654 0.0
H524 H 0.67604 0.21642 0.76831 0.0
H525 H 0.78613 0.22785 0.80006 0.0
H526 H 0.8284 0.33921 0.76365 0.0
H527 H 0.71733 0.32868 0.73193 0.0
C528 C 0.68328 0.2289 0.60704 0.0
C529 C 0.64283 0.25011 0.58721 0.0
C530 C 0.66011 0.22914 0.63604 0.0
C531 C 0.59671 0.2512 0.64611 0.0
C532 C 0.55548 0.27208 0.62619 0.0
C533 C 0.57784 0.2711 0.59685 0.0
C534 C 0.57741 0.25385 0.67779 0.0
C535 C 0.63471 0.26376 0.69811 0.0
C536 C 0.50483 0.24604 0.6882 0.0
C537 C 0.44191 0.23423 0.66818 0.0
C538 C 0.37461 0.25621 0.67012 0.0
C539 C 0.31493 0.24504 0.65144 0.0
C540 C 0.3218 0.2118 0.63079 0.0
C541 C 0.38824 0.18957 0.62887 0.0
C542 C 0.44802 0.20057 0.64755 0.0
C543 C 0.53846 0.2908 0.82009 0.0
C544 C 0.5071 0.25694 0.8313 0.0
C545 C 0.55121 0.29123 0.79004 0.0
C546 C 0.53353 0.25767 0.7706 0.0
C547 C 0.50114 0.22408 0.78168 0.0
C548 C 0.48811 0.22369 0.8117 0.0
C549 C 0.54998 0.25714 0.7388 0.0
C550 C 0.49204 0.24815 0.71856 0.0
C551 C 0.62241 0.26493 0.72834 0.0
C552 C 0.68761 0.27207 0.74812 0.0
C553 C 0.70812 0.24364 0.76738 0.0
C554 C 0.77093 0.24993 0.78532 0.0
C555 C 0.8141 0.28444 0.78406 0.0
C556 C 0.79465 0.31263 0.76474 0.0
C557 C 0.73173 0.30653 0.74679 0.0
H558 H 0.8627 0.28937 0.79796 0.0
H559 H 0.27555 0.2032 0.61634 0.0
H560 H 0.75963 0.79488 0.12089 0.0
H561 H 0.80381 0.79243 0.17071 0.0
H562 H 0.00514 0.73185 0.13854 0.0
H563 H 0.96129 0.73517 0.08793 0.0
H564 H 0.82375 0.73115 0.19857 0.0
H565 H 0.1464 0.75156 0.19569 0.0
H566 H 0.24316 0.78545 0.16884 0.0
H567 H 0.07934 0.86913 0.14256 0.0
H568 H 0.98197 0.83637 0.16982 0.0
H569 H 0.96946 0.69353 0.33724 0.0
H570 H 0.95026 0.69147 0.28431 0.0
H571 H 0.00336 0.81737 0.28724 0.0
H572 H 0.02309 0.81953 0.34007 0.0
H573 H 0.06555 0.77952 0.24094 0.0
H574 H 0.81893 0.78379 0.28272 0.0
H575 H 0.71395 0.76236 0.31204 0.0
H576 H 0.71418 0.64698 0.26251 0.0
H577 H 0.8198 0.66785 0.23285 0.0
C578 C 0.81334 0.78096 0.12428 0.0
C579 C 0.85646 0.76465 0.10046 0.0
C580 C 0.83873 0.7797 0.15287 0.0
C581 C 0.90771 0.76178 0.15854 0.0
C582 C 0.95203 0.74616 0.13477 0.0
C583 C 0.92683 0.74791 0.10589 0.0
C584 C 0.92967 0.75792 0.18947 0.0
C585 C 0.87699 0.7416 0.20767 0.0
C586 C -0.00102 0.7716 0.20159 0.0
C587 C 0.05646 0.7909 0.18431 0.0
C588 C 0.13092 0.7771 0.18409 0.0
C589 C 0.18597 0.79621 0.16889 0.0
C590 C 0.1673 0.82924 0.15383 0.0
C591 C 0.09361 0.84334 0.15406 0.0
C592 C 0.03841 0.82446 0.16935 0.0
C593 C 0.97657 0.72082 0.32662 0.0
C594 C 0.99732 0.75675 0.34291 0.0
C595 C 0.9658 0.71958 0.29634 0.0
C596 C 0.97458 0.75436 0.28177 0.0
C597 C 0.9965 0.79009 0.29792 0.0
C598 C 0.00772 0.7913 0.32815 0.0
C599 C 0.95876 0.754 0.24989 0.0
C600 C 0.01281 0.76888 0.23156 0.0
C601 C 0.88986 0.74025 0.23768 0.0
C602 C 0.82782 0.72717 0.25589 0.0
C603 C 0.79708 0.75371 0.27829 0.0
C604 C 0.73727 0.74168 0.29492 0.0
C605 C 0.70748 0.7032 0.28928 0.0
C606 C 0.73742 0.67672 0.26692 0.0
C607 C 0.79721 0.68865 0.25016 0.0
H608 H 0.66103 0.69392 0.30212 0.0
H609 H 0.21 0.84402 0.14209 0.0
H610 H 0.72606 0.25212 0.3929 0.0
H611 H 0.76906 0.25573 0.34304 0.0
H612 H 0.98614 0.29471 0.37527 0.0
H613 H 0.94393 0.28975 0.42565 0.0
H614 H 0.81102 0.31237 0.31377 0.0
H615 H 0.12066 0.26524 0.32364 0.0
H616 H 0.20048 0.22484 0.35364 0.0
H617 H 0.01127 0.15317 0.37275 0.0
H618 H 0.93062 0.19274 0.34249 0.0
H619 H 0.99544 0.34337 0.18139 0.0
H620 H 0.9691 0.3433 0.23368 0.0
H621 H 0.97059 0.21394 0.225 0.0
H622 H 0.99673 0.21374 0.17265 0.0
H623 H 0.04051 0.24278 0.27476 0.0
H624 H 0.80526 0.26409 0.22758 0.0
H625 H 0.72216 0.29813 0.19469 0.0
H626 H 0.75105 0.4095 0.24785 0.0
H627 H 0.83488 0.37615 0.28095 0.0
C628 C 0.78306 0.26151 0.38956 0.0
C629 C 0.83164 0.27052 0.41342 0.0
C630 C 0.80757 0.26365 0.36088 0.0
C631 C 0.88115 0.27512 0.35519 0.0
C632 C 0.92953 0.285 0.37897 0.0
C633 C 0.90523 0.28236 0.40781 0.0
C634 C 0.90615 0.27652 0.32428 0.0
C635 C 0.86145 0.29725 0.3054 0.0
C636 C 0.97152 0.2565 0.313 0.0
C637 C 0.01946 0.23231 0.33111 0.0
C638 C 0.09615 0.2408 0.3342 0.0
C639 C 0.14154 0.21804 0.35124 0.0
C640 C 0.11089 0.18657 0.3652 0.0
C641 C 0.03486 0.17767 0.36203 0.0
C642 C 0.98928 0.20028 0.34496 0.0
C643 C 0.98986 0.31488 0.19056 0.0
C644 C -0.00248 0.27856 0.17272 0.0
C645 C 0.97512 0.3149 0.2205 0.0
C646 C 0.96708 0.27861 0.23324 0.0
C647 C 0.97678 0.24231 0.21569 0.0
C648 C 0.99174 0.24226 0.18574 0.0
C649 C 0.94526 0.27847 0.26453 0.0
C650 C 0.99053 0.25812 0.28338 0.0
C651 C 0.87947 0.29793 0.27568 0.0
C652 C 0.82697 0.31776 0.25651 0.0
C653 C 0.79407 0.29588 0.23218 0.0
C654 C 0.74691 0.31503 0.21351 0.0
C655 C 0.73196 0.35602 0.21903 0.0
C656 C 0.76313 0.37781 0.24351 0.0
C657 C 0.81032 0.35878 0.26227 0.0
H658 H 0.69594 0.37086 0.2044 0.0
H659 H 0.14609 0.16901 0.37841 0.0
H660 H 0.96247 0.32791 0.67963 0.0
H661 H 0.98455 0.33262 0.73253 0.0
H662 H 0.03987 0.20655 0.72649 0.0
H663 H 0.01572 0.20154 0.67373 0.0
H664 H 0.96669 0.22496 0.77531 0.0
H665 H 0.17698 0.27875 0.72843 0.0
H666 H 0.24313 0.32211 0.69642 0.0
H667 H 0.16484 0.42681 0.74894 0.0
H668 H 0.09721 0.38404 0.78105 0.0
H669 H 0.26664 0.27956 0.89452 0.0
H670 H 0.22241 0.27834 0.84435 0.0
H671 H 0.99424 0.28522 0.87505 0.0
H672 H 0.03825 0.28469 0.9256 0.0
H673 H 0.15016 0.32715 0.81445 0.0
H674 H 0.88634 0.24007 0.83341 0.0
H675 H 0.84072 0.18811 0.86372 0.0
H676 H 0.06186 0.13778 0.86557 0.0
H677 H 0.10802 0.18907 0.83471 0.0
C678 C 0.97918 0.30122 0.68964 0.0
C679 C 0.98826 0.26447 0.67251 0.0
C680 C 0.99167 0.30389 0.71987 0.0
C681 C 0.01517 0.27008 0.7335 0.0
C682 C 0.02176 0.23306 0.71655 0.0
C683 C 0.00822 0.23025 0.68638 0.0
C684 C 0.03732 0.27378 0.76495 0.0
C685 C 0.00646 0.24749 0.78383 0.0
C686 C 0.09072 0.3024 0.77615 0.0
C687 C 0.13136 0.32823 0.75694 0.0
C688 C 0.17341 0.31103 0.73303 0.0
C689 C 0.21125 0.33549 0.71489 0.0
C690 C 0.20806 0.37718 0.7206 0.0
C691 C 0.16714 0.3945 0.74451 0.0
C692 C 0.12906 0.37018 0.7627 0.0
C693 C 0.20695 0.28077 0.89075 0.0
C694 C 0.15597 0.28179 0.91418 0.0
C695 C 0.18173 0.28027 0.86193 0.0
C696 C 0.10492 0.28111 0.85576 0.0
C697 C 0.05377 0.28359 0.87916 0.0
C698 C 0.079 0.28359 0.90809 0.0
C699 C 0.07908 0.27866 0.82479 0.0
C700 C 0.10951 0.30506 0.80598 0.0
C701 C 0.02781 0.24914 0.81341 0.0
C702 C 9e-05 0.21793 0.83144 0.0
C703 C 0.92465 0.21741 0.83978 0.0
C704 C 0.89889 0.18826 0.85722 0.0
C705 C 0.94831 0.15955 0.86647 0.0
C706 C 0.02359 0.15996 0.85832 0.0
C707 C 0.04952 0.18902 0.84084 0.0
H708 H 0.92834 0.13707 0.88004 0.0
H709 H 0.23742 0.39607 0.70654 0.0
H710 H 0.24529 0.77525 0.62284 0.0
H711 H 0.19991 0.76433 0.67143 0.0
H712 H 0.01464 0.69592 0.63299 0.0
H713 H 0.05914 0.70765 0.58401 0.0
H714 H 0.96662 0.74406 0.67615 0.0
H715 H 0.16579 0.65097 0.66526 0.0
H716 H 0.29324 0.62588 0.65383 0.0
H717 H 0.38131 0.70577 0.72408 0.0
H718 H 0.25494 0.73233 0.7351 0.0
H719 H 0.87805 0.70485 0.82536 0.0
H720 H 0.90389 0.69772 0.77261 0.0
H721 H 0.1055 0.76665 0.78785 0.0
H722 H 0.08243 0.77225 0.84013 0.0
H723 H 0.13557 0.70293 0.75376 0.0
H724 H 0.93445 0.80733 0.75105 0.0
H725 H 0.80661 0.83583 0.75373 0.0
H726 H 0.72097 0.72823 0.7075 0.0
H727 H 0.84842 0.69956 0.704 0.0
C728 C 0.19534 0.7575 0.62464 0.0
C729 C 0.15618 0.742 0.59955 0.0
C730 C 0.16954 0.75113 0.6525 0.0
C731 C 0.10473 0.72851 0.65593 0.0
C732 C 0.06508 0.71323 0.6309 0.0
C733 C 0.09048 0.72 0.60294 0.0
C734 C 0.07686 0.72276 0.68576 0.0
C735 C 0.0032 0.73424 0.693 0.0
C736 C 0.12436 0.70987 0.70776 0.0
C737 C 0.20073 0.69385 0.70101 0.0
C738 C 0.21242 0.66351 0.67808 0.0
C739 C 0.28458 0.64906 0.67159 0.0
C740 C 0.34549 0.66438 0.68808 0.0
C741 C 0.33431 0.69411 0.71113 0.0
C742 C 0.26241 0.70888 0.71751 0.0
C743 C 0.92815 0.71829 0.81742 0.0
C744 C 0.97821 0.73911 0.83709 0.0
C745 C 0.94226 0.7147 0.78719 0.0
C746 C 0.00656 0.73194 0.7761 0.0
C747 C 0.05562 0.75313 0.79574 0.0
C748 C 0.04191 0.75659 0.82576 0.0
C749 C 0.02651 0.72636 0.74447 0.0
C750 C 0.09873 0.7122 0.73681 0.0
C751 C 0.97738 0.73614 0.72198 0.0
C752 C 0.90049 0.75117 0.72765 0.0
C753 C 0.8881 0.78957 0.74191 0.0
C754 C 0.8159 0.8059 0.74325 0.0
C755 C 0.75581 0.78381 0.73077 0.0
C756 C 0.76756 0.74524 0.71719 0.0
C757 C 0.83969 0.72902 0.71542 0.0
H758 H 0.70022 0.79661 0.73128 0.0
H759 H 0.40129 0.65311 0.68308 0.0
loop_
_geom_bond_atom_site_label_1
_geom_bond_atom_site_label_2
_geom_bond_distance
_geom_bond_site_symmetry_2
_ccdc_geom_bond_type
Pr0 C2 2.880 . S
Pr0 O20 2.562 . S
Pr0 O21 2.490 . S
Pr0 O22 2.695 1_554 S
Pr0 O23 2.512 . S
Pr0 O25 2.437 . S
Pr0 O28 2.436 . S
Pr0 O30 2.438 1_554 S
Pr1 C11 2.880 . S
Pr1 O22 2.436 . S
Pr1 O24 2.438 1_556 S
Pr1 O26 2.562 . S
Pr1 O27 2.490 . S
Pr1 O28 2.695 1_556 S
Pr1 O29 2.512 . S
Pr1 O31 2.437 . S
C2 Pr0 2.880 . S
C2 C3 1.491 . S
C2 O20 1.254 . S
C2 O21 1.225 . S
C3 C2 1.491 . S
C3 C4 1.392 . S
C3 C8 1.356 . S
C4 C3 1.392 . S
C4 C5 1.368 . S
C4 H32 0.929 . S
C5 C4 1.368 . S
C5 C6 1.386 . S
C5 H33 0.929 . S
C6 C5 1.386 . S
C6 C7 1.373 . S
C7 C6 1.373 . S
C7 C8 1.409 . S
C7 H34 0.931 . S
C8 C3 1.356 . S
C8 C7 1.409 . S
C8 H35 0.930 . S
C9 O22 1.270 1_554 S
C9 O23 1.248 . S
C10 O24 1.267 . S
C10 O25 1.278 . S
C11 Pr1 2.880 . S
C11 C12 1.491 . S
C11 O26 1.254 . S
C11 O27 1.225 . S
C12 C11 1.491 . S
C12 C13 1.392 . S
C12 C17 1.356 . S
C13 C12 1.392 . S
C13 C14 1.368 . S
C13 H36 0.929 . S
C14 C13 1.368 . S
C14 C15 1.386 . S
C14 H37 0.929 . S
C15 C14 1.386 . S
C15 C16 1.373 . S
C16 C15 1.373 . S
C16 C17 1.409 . S
C16 H38 0.931 . S
C17 C12 1.356 . S
C17 C16 1.409 . S
C17 H39 0.930 . S
C18 O28 1.270 1_556 S
C18 O29 1.248 . S
C19 O30 1.267 . S
C19 O31 1.278 . S
O20 Pr0 2.562 . S
O20 C2 1.254 . S
O21 Pr0 2.490 . S
O21 C2 1.225 . S
O22 Pr0 2.695 1_556 S
O22 Pr1 2.436 . S
O22 C9 1.270 1_556 S
O23 Pr0 2.512 . S
O23 C9 1.248 . S
O24 Pr1 2.438 1_554 S
O24 C10 1.267 . S
O25 Pr0 2.437 . S
O25 C10 1.278 . S
O26 Pr1 2.562 . S
O26 C11 1.254 . S
O27 Pr1 2.490 . S
O27 C11 1.225 . S
O28 Pr0 2.436 . S
O28 Pr1 2.695 1_554 S
O28 C18 1.270 1_554 S
O29 Pr1 2.512 . S
O29 C18 1.248 . S
O30 Pr0 2.438 1_556 S
O30 C19 1.267 . S
O31 Pr1 2.437 . S
O31 C19 1.278 . S
H32 C4 0.929 . S
H33 C5 0.929 . S
H34 C7 0.931 . S
H35 C8 0.930 . S
H36 C13 0.929 . S
H37 C14 0.929 . S
H38 C16 0.931 . S
H39 C17 0.930 . S
Pr40 C42 2.880 . S
Pr40 O60 2.562 . S
Pr40 O61 2.490 . S
Pr40 O62 2.695 1_554 S
Pr40 O63 2.512 . S
Pr40 O65 2.437 . S
Pr40 O68 2.436 . S
Pr40 O70 2.438 1_554 S
Pr41 C51 2.880 . S
Pr41 O62 2.436 . S
Pr41 O64 2.438 1_556 S
Pr41 O66 2.562 . S
Pr41 O67 2.490 . S
Pr41 O68 2.695 1_556 S
Pr41 O69 2.512 . S
Pr41 O71 2.437 . S
C42 Pr40 2.880 . S
C42 C43 1.491 . S
C42 O60 1.254 . S
C42 O61 1.225 . S
C43 C42 1.491 . S
C43 C44 1.392 . S
C43 C48 1.356 . S
C44 C43 1.392 . S
C44 C45 1.368 . S
C44 H72 0.929 . S
C45 C44 1.368 . S
C45 C46 1.386 . S
C45 H73 0.929 . S
C46 C45 1.386 . S
C46 C47 1.373 . S
C47 C46 1.373 . S
C47 C48 1.409 . S
C47 H74 0.931 . S
C48 C43 1.356 . S
C48 C47 1.409 . S
C48 H75 0.930 . S
C49 O62 1.270 1_554 S
C49 O63 1.248 . S
C50 O64 1.267 . S
C50 O65 1.278 . S
C51 Pr41 2.880 . S
C51 C52 1.491 . S
C51 O66 1.254 . S
C51 O67 1.225 . S
C52 C51 1.491 . S
C52 C53 1.392 . S
C52 C57 1.356 . S
C53 C52 1.392 . S
C53 C54 1.368 . S
C53 H76 0.929 . S
C54 C53 1.368 . S
C54 C55 1.386 . S
C54 H77 0.929 . S
C55 C54 1.386 . S
C55 C56 1.373 . S
C56 C55 1.373 . S
C56 C57 1.409 . S
C56 H78 0.931 . S
C57 C52 1.356 . S
C57 C56 1.409 . S
C57 H79 0.930 . S
C58 O68 1.270 1_556 S
C58 O69 1.248 . S
C59 O70 1.267 . S
C59 O71 1.278 . S
O60 Pr40 2.562 . S
O60 C42 1.254 . S
O61 Pr40 2.490 . S
O61 C42 1.225 . S
O62 Pr40 2.695 1_556 S
O62 Pr41 2.436 . S
O62 C49 1.270 1_556 S
O63 Pr40 2.512 . S
O63 C49 1.248 . S
O64 Pr41 2.438 1_554 S
O64 C50 1.267 . S
O65 Pr40 2.437 . S
O65 C50 1.278 . S
O66 Pr41 2.562 . S
O66 C51 1.254 . S
O67 Pr41 2.490 . S
O67 C51 1.225 . S
O68 Pr40 2.436 . S
O68 Pr41 2.695 1_554 S
O68 C58 1.270 1_554 S
O69 Pr41 2.512 . S
O69 C58 1.248 . S
O70 Pr40 2.438 1_556 S
O70 C59 1.267 . S
O71 Pr41 2.437 . S
O71 C59 1.278 . S
H72 C44 0.929 . S
H73 C45 0.929 . S
H74 C47 0.931 . S
H75 C48 0.930 . S
H76 C53 0.929 . S
H77 C54 0.929 . S
H78 C56 0.931 . S
H79 C57 0.930 . S
Pr80 C82 2.880 . S
Pr80 O100 2.562 . S
Pr80 O101 2.490 . S
Pr80 O102 2.695 . S
Pr80 O103 2.512 . S
Pr80 O105 2.437 . S
Pr80 O108 2.436 . S
Pr80 O110 2.438 . S
Pr81 C91 2.880 . S
Pr81 O102 2.436 . S
Pr81 O104 2.438 . S
Pr81 O106 2.562 . S
Pr81 O107 2.490 . S
Pr81 O108 2.695 . S
Pr81 O109 2.512 . S
Pr81 O111 2.437 . S
C82 Pr80 2.880 . S
C82 C83 1.491 . S
C82 O100 1.254 . S
C82 O101 1.225 . S
C83 C82 1.491 . S
C83 C84 1.392 . S
C83 C88 1.356 . S
C84 C83 1.392 . S
C84 C85 1.368 . S
C84 H112 0.929 . S
C85 C84 1.368 . S
C85 C86 1.386 . S
C85 H113 0.929 . S
C86 C85 1.386 . S
C86 C87 1.373 . S
C87 C86 1.373 . S
C87 C88 1.409 . S
C87 H114 0.931 . S
C88 C83 1.356 . S
C88 C87 1.409 . S
C88 H115 0.930 . S
C89 O102 1.270 . S
C89 O103 1.248 . S
C90 O104 1.267 . S
C90 O105 1.278 . S
C91 Pr81 2.880 . S
C91 C92 1.491 . S
C91 O106 1.254 . S
C91 O107 1.225 . S
C92 C91 1.491 . S
C92 C93 1.392 . S
C92 C97 1.356 . S
C93 C92 1.392 . S
C93 C94 1.368 . S
C93 H116 0.929 . S
C94 C93 1.368 . S
C94 C95 1.386 . S
C94 H117 0.929 . S
C95 C94 1.386 . S
C95 C96 1.373 . S
C96 C95 1.373 . S
C96 C97 1.409 . S
C96 H118 0.931 . S
C97 C92 1.356 . S
C97 C96 1.409 . S
C97 H119 0.930 . S
C98 O108 1.270 . S
C98 O109 1.248 . S
C99 O110 1.267 . S
C99 O111 1.278 . S
O100 Pr80 2.562 . S
O100 C82 1.254 . S
O101 Pr80 2.490 . S
O101 C82 1.225 . S
O102 Pr80 2.695 . S
O102 Pr81 2.436 . S
O102 C89 1.270 . S
O103 Pr80 2.512 . S
O103 C89 1.248 . S
O104 Pr81 2.438 . S
O104 C90 1.267 . S
O105 Pr80 2.437 . S
O105 C90 1.278 . S
O106 Pr81 2.562 . S
O106 C91 1.254 . S
O107 Pr81 2.490 . S
O107 C91 1.225 . S
O108 Pr80 2.436 . S
O108 Pr81 2.695 . S
O108 C98 1.270 . S
O109 Pr81 2.512 . S
O109 C98 1.248 . S
O110 Pr80 2.438 . S
O110 C99 1.267 . S
O111 Pr81 2.437 . S
O111 C99 1.278 . S
H112 C84 0.929 . S
H113 C85 0.929 . S
H114 C87 0.931 . S
H115 C88 0.930 . S
H116 C93 0.929 . S
H117 C94 0.929 . S
H118 C96 0.931 . S
H119 C97 0.930 . S
Pr120 C122 2.880 . S
Pr120 O140 2.562 . S
Pr120 O141 2.490 . S
Pr120 O142 2.695 . S
Pr120 O143 2.512 . S
Pr120 O145 2.437 . S
Pr120 O148 2.436 . S
Pr120 O150 2.438 . S
Pr121 C131 2.880 . S
Pr121 O142 2.436 . S
Pr121 O144 2.438 . S
Pr121 O146 2.562 . S
Pr121 O147 2.490 . S
Pr121 O148 2.695 . S
Pr121 O149 2.512 . S
Pr121 O151 2.437 . S
C122 Pr120 2.880 . S
C122 C123 1.491 . S
C122 O140 1.254 . S
C122 O141 1.225 . S
C123 C122 1.491 . S
C123 C124 1.392 . S
C123 C128 1.356 . S
C124 C123 1.392 . S
C124 C125 1.368 . S
C124 H152 0.929 . S
C125 C124 1.368 . S
C125 C126 1.386 . S
C125 H153 0.929 . S
C126 C125 1.386 . S
C126 C127 1.373 . S
C127 C126 1.373 . S
C127 C128 1.409 . S
C127 H154 0.931 . S
C128 C123 1.356 . S
C128 C127 1.409 . S
C128 H155 0.930 . S
C129 O142 1.270 . S
C129 O143 1.248 . S
C130 O144 1.267 . S
C130 O145 1.278 . S
C131 Pr121 2.880 . S
C131 C132 1.491 . S
C131 O146 1.254 . S
C131 O147 1.225 . S
C132 C131 1.491 . S
C132 C133 1.392 . S
C132 C137 1.356 . S
C133 C132 1.392 . S
C133 C134 1.368 . S
C133 H156 0.929 . S
C134 C133 1.368 . S
C134 C135 1.386 . S
C134 H157 0.929 . S
C135 C134 1.386 . S
C135 C136 1.373 . S
C136 C135 1.373 . S
C136 C137 1.409 . S
C136 H158 0.931 . S
C137 C132 1.356 . S
C137 C136 1.409 . S
C137 H159 0.930 . S
C138 O148 1.270 . S
C138 O149 1.248 . S
C139 O150 1.267 . S
C139 O151 1.278 . S
O140 Pr120 2.562 . S
O140 C122 1.254 . S
O141 Pr120 2.490 . S
O141 C122 1.225 . S
O142 Pr120 2.695 . S
O142 Pr121 2.436 . S
O142 C129 1.270 . S
O143 Pr120 2.512 . S
O143 C129 1.248 . S
O144 Pr121 2.438 . S
O144 C130 1.267 . S
O145 Pr120 2.437 . S
O145 C130 1.278 . S
O146 Pr121 2.562 . S
O146 C131 1.254 . S
O147 Pr121 2.490 . S
O147 C131 1.225 . S
O148 Pr120 2.436 . S
O148 Pr121 2.695 . S
O148 C138 1.270 . S
O149 Pr121 2.512 . S
O149 C138 1.248 . S
O150 Pr120 2.438 . S
O150 C139 1.267 . S
O151 Pr121 2.437 . S
O151 C139 1.278 . S
H152 C124 0.929 . S
H153 C125 0.929 . S
H154 C127 0.931 . S
H155 C128 0.930 . S
H156 C133 0.929 . S
H157 C134 0.929 . S
H158 C136 0.931 . S
H159 C137 0.930 . S
H160 C178 0.951 . S
H161 C180 0.951 . S
H162 C182 0.950 . S
H163 C183 0.950 . S
H164 C185 0.950 . S
H165 C188 0.950 . S
H166 C189 0.950 . S
H167 C191 0.950 . S
H168 C192 0.950 . S
H169 C193 0.951 . S
H170 C195 0.951 . S
H171 C197 0.950 . S
H172 C198 0.950 . S
H173 C200 0.950 . S
H174 C203 0.950 . S
H175 C204 0.950 . S
H176 C206 0.950 . S
H177 C207 0.950 . S
C178 H160 0.951 . S
C178 C179 1.364 . S
C178 C180 1.388 . S
C179 C178 1.364 . S
C179 C183 1.387 1_556 S
C180 H161 0.951 . S
C180 C178 1.388 . S
C180 C181 1.366 . S
C181 C180 1.366 . S
C181 C182 1.414 1_556 S
C181 C184 1.500 . S
C182 H162 0.950 . S
C182 C181 1.414 1_554 S
C182 C183 1.374 . S
C183 H163 0.950 . S
C183 C179 1.387 1_554 S
C183 C182 1.374 . S
C184 C181 1.500 . S
C184 C185 1.357 1_556 S
C184 C186 1.403 . S
C185 H164 0.950 . S
C185 C184 1.357 1_554 S
C185 C201 1.377 . S
C186 C184 1.403 . S
C186 C187 1.524 . S
C186 C200 1.377 . S
C187 C186 1.524 . S
C187 C188 1.397 . S
C187 C192 1.363 . S
C188 H165 0.950 . S
C188 C187 1.397 . S
C188 C189 1.334 . S
C189 H166 0.950 . S
C189 C188 1.334 . S
C189 C190 1.287 . S
C190 C189 1.287 . S
C190 C191 1.524 . S
C190 H209 0.913 . S
C191 H167 0.950 . S
C191 C190 1.524 . S
C191 C192 1.415 . S
C192 H168 0.950 . S
C192 C187 1.363 . S
C192 C191 1.415 . S
C193 H169 0.951 . S
C193 C194 1.371 . S
C193 C195 1.388 . S
C194 C193 1.371 . S
C194 C198 1.379 1_554 S
C195 H170 0.951 . S
C195 C193 1.388 . S
C195 C196 1.366 . S
C196 C195 1.366 . S
C196 C197 1.414 1_554 S
C196 C199 1.502 . S
C197 H171 0.950 . S
C197 C196 1.414 1_556 S
C197 C198 1.374 . S
C198 H172 0.950 . S
C198 C194 1.379 1_556 S
C198 C197 1.374 . S
C199 C196 1.502 . S
C199 C200 1.345 1_554 S
C199 C201 1.414 . S
C200 H173 0.950 . S
C200 C186 1.377 . S
C200 C199 1.345 1_556 S
C201 C185 1.377 . S
C201 C199 1.414 . S
C201 C202 1.524 . S
C202 C201 1.524 . S
C202 C203 1.397 . S
C202 C207 1.363 . S
C203 H174 0.950 . S
C203 C202 1.397 . S
C203 C204 1.334 . S
C204 H175 0.950 . S
C204 C203 1.334 . S
C204 C205 1.287 . S
C205 C204 1.287 . S
C205 C206 1.524 . S
C205 H208 0.999 . S
C206 H176 0.950 . S
C206 C205 1.524 . S
C206 C207 1.415 . S
C207 H177 0.950 . S
C207 C202 1.363 . S
C207 C206 1.415 . S
H208 C205 0.999 . S
H209 C190 0.913 . S
H210 C228 0.951 . S
H211 C230 0.951 . S
H212 C232 0.950 . S
H213 C233 0.950 . S
H214 C235 0.950 . S
H215 C238 0.950 . S
H216 C239 0.950 . S
H217 C241 0.950 . S
H218 C242 0.950 . S
H219 C243 0.951 . S
H220 C245 0.951 . S
H221 C247 0.950 . S
H222 C248 0.950 . S
H223 C250 0.950 . S
H224 C253 0.950 . S
H225 C254 0.950 . S
H226 C256 0.950 . S
H227 C257 0.950 . S
C228 H210 0.951 . S
C228 C229 1.366 . S
C228 C230 1.388 . S
C229 C228 1.366 . S
C229 C233 1.385 . S
C230 H211 0.951 . S
C230 C228 1.388 . S
C230 C231 1.366 . S
C231 C230 1.366 . S
C231 C232 1.414 . S
C231 C234 1.499 . S
C232 H212 0.950 . S
C232 C231 1.414 . S
C232 C233 1.374 . S
C233 H213 0.950 . S
C233 C229 1.385 . S
C233 C232 1.374 . S
C234 C231 1.499 . S
C234 C235 1.373 . S
C234 C236 1.389 . S
C235 H214 0.950 . S
C235 C234 1.373 . S
C235 C251 1.377 . S
C236 C234 1.389 . S
C236 C237 1.524 . S
C236 C250 1.377 . S
C237 C236 1.524 . S
C237 C238 1.397 . S
C237 C242 1.363 . S
C238 H215 0.950 . S
C238 C237 1.397 . S
C238 C239 1.334 . S
C239 H216 0.950 . S
C239 C238 1.334 . S
C239 C240 1.287 . S
C240 C239 1.287 . S
C240 C241 1.524 . S
C240 H259 0.913 . S
C241 H217 0.950 . S
C241 C240 1.524 . S
C241 C242 1.415 . S
C242 H218 0.950 . S
C242 C237 1.363 . S
C242 C241 1.415 . S
C243 H219 0.951 . S
C243 C244 1.366 . S
C243 C245 1.388 . S
C244 C243 1.366 . S
C244 C248 1.385 . S
C245 H220 0.951 . S
C245 C243 1.388 . S
C245 C246 1.366 . S
C246 C245 1.366 . S
C246 C247 1.414 . S
C246 C249 1.499 . S
C247 H221 0.950 . S
C247 C246 1.414 . S
C247 C248 1.374 . S
C248 H222 0.950 . S
C248 C244 1.385 . S
C248 C247 1.374 . S
C249 C246 1.499 . S
C249 C250 1.373 . S
C249 C251 1.389 . S
C250 H223 0.950 . S
C250 C236 1.377 . S
C250 C249 1.373 . S
C251 C235 1.377 . S
C251 C249 1.389 . S
C251 C252 1.524 . S
C252 C251 1.524 . S
C252 C253 1.397 . S
C252 C257 1.363 . S
C253 H224 0.950 . S
C253 C252 1.397 . S
C253 C254 1.334 . S
C254 H225 0.950 . S
C254 C253 1.334 . S
C254 C255 1.287 . S
C255 C254 1.287 . S
C255 C256 1.524 . S
C255 H258 0.999 . S
C256 H226 0.950 . S
C256 C255 1.524 . S
C256 C257 1.415 . S
C257 H227 0.950 . S
C257 C252 1.363 . S
C257 C256 1.415 . S
H258 C255 0.999 . S
H259 C240 0.913 . S
H260 C278 0.951 . S
H261 C280 0.951 . S
H262 C282 0.950 . S
H263 C283 0.950 . S
H264 C285 0.950 . S
H265 C288 0.950 . S
H266 C289 0.950 . S
H267 C291 0.950 . S
H268 C292 0.950 1_565 S
H269 C293 0.951 . S
H270 C295 0.951 . S
H271 C297 0.950 . S
H272 C298 0.950 . S
H273 C300 0.950 . S
H274 C303 0.950 . S
H275 C304 0.950 . S
H276 C306 0.950 . S
H277 C307 0.950 1_545 S
C278 H260 0.951 . S
C278 C279 1.364 . S
C278 C280 1.388 . S
C279 C278 1.364 . S
C279 C283 1.387 1_556 S
C280 H261 0.951 . S
C280 C278 1.388 . S
C280 C281 1.366 . S
C281 C280 1.366 . S
C281 C282 1.414 1_556 S
C281 C284 1.501 . S
C282 H262 0.950 . S
C282 C281 1.414 1_554 S
C282 C283 1.374 . S
C283 H263 0.950 . S
C283 C279 1.387 1_554 S
C283 C282 1.374 . S
C284 C281 1.501 . S
C284 C285 1.356 1_556 S
C284 C286 1.405 . S
C285 H264 0.950 . S
C285 C284 1.356 1_554 S
C285 C301 1.377 1_445 S
C286 C284 1.405 . S
C286 C287 1.524 . S
C286 C300 1.377 1_445 S
C287 C286 1.524 . S
C287 C288 1.397 1_455 S
C287 C292 1.363 . S
C288 H265 0.950 . S
C288 C287 1.397 1_655 S
C288 C289 1.334 . S
C289 H266 0.950 . S
C289 C288 1.334 . S
C289 C290 1.287 1_655 S
C290 C289 1.287 1_455 S
C290 C291 1.524 . S
C290 H309 0.913 . S
C291 H267 0.950 . S
C291 C290 1.524 . S
C291 C292 1.415 . S
C292 H268 0.950 1_545 S
C292 C287 1.363 . S
C292 C291 1.415 . S
C293 H269 0.951 . S
C293 C294 1.370 . S
C293 C295 1.388 . S
C294 C293 1.370 . S
C294 C298 1.379 1_554 S
C295 H270 0.951 . S
C295 C293 1.388 . S
C295 C296 1.366 . S
C296 C295 1.366 . S
C296 C297 1.414 1_554 S
C296 C299 1.502 . S
C297 H271 0.950 . S
C297 C296 1.414 1_556 S
C297 C298 1.374 . S
C298 H272 0.950 . S
C298 C294 1.379 1_556 S
C298 C297 1.374 . S
C299 C296 1.502 . S
C299 C300 1.343 1_554 S
C299 C301 1.416 . S
C300 H273 0.950 . S
C300 C286 1.377 1_665 S
C300 C299 1.343 1_556 S
C301 C285 1.377 1_665 S
C301 C299 1.416 . S
C301 C302 1.524 . S
C302 C301 1.524 . S
C302 C303 1.397 1_655 S
C302 C307 1.363 . S
C303 H274 0.950 . S
C303 C302 1.397 1_455 S
C303 C304 1.334 . S
C304 H275 0.950 . S
C304 C303 1.334 . S
C304 C305 1.287 1_455 S
C305 C304 1.287 1_655 S
C305 C306 1.524 . S
C305 H308 0.999 . S
C306 H276 0.950 . S
C306 C305 1.524 . S
C306 C307 1.415 . S
C307 H277 0.950 1_565 S
C307 C302 1.363 . S
C307 C306 1.415 . S
H308 C305 0.999 . S
H309 C290 0.913 . S
H310 C328 0.951 . S
H311 C330 0.951 . S
H312 C332 0.950 1_455 S
H313 C333 0.950 . S
H314 C335 0.950 . S
H315 C338 0.950 . S
H316 C339 0.950 . S
H317 C341 0.950 . S
H318 C342 0.950 . S
H319 C343 0.951 . S
H320 C345 0.951 . S
H321 C347 0.950 1_655 S
H322 C348 0.950 . S
H323 C350 0.950 . S
H324 C353 0.950 . S
H325 C354 0.950 . S
H326 C356 0.950 . S
H327 C357 0.950 . S
C328 H310 0.951 . S
C328 C329 1.366 . S
C328 C330 1.388 . S
C329 C328 1.366 . S
C329 C333 1.385 . S
C330 H311 0.951 . S
C330 C328 1.388 . S
C330 C331 1.366 . S
C331 C330 1.366 . S
C331 C332 1.414 . S
C331 C334 1.499 . S
C332 H312 0.950 1_655 S
C332 C331 1.414 . S
C332 C333 1.374 . S
C333 H313 0.950 . S
C333 C329 1.385 . S
C333 C332 1.374 . S
C334 C331 1.499 . S
C334 C335 1.373 1_655 S
C334 C336 1.389 . S
C335 H314 0.950 . S
C335 C334 1.373 1_455 S
C335 C351 1.377 1_545 S
C336 C334 1.389 . S
C336 C337 1.524 . S
C336 C350 1.377 1_545 S
C337 C336 1.524 . S
C337 C338 1.397 . S
C337 C342 1.363 1_545 S
C338 H315 0.950 . S
C338 C337 1.397 . S
C338 C339 1.334 . S
C339 H316 0.950 . S
C339 C338 1.334 . S
C339 C340 1.287 . S
C340 C339 1.287 . S
C340 C341 1.524 1_545 S
C340 H359 0.913 . S
C341 H317 0.950 . S
C341 C340 1.524 1_565 S
C341 C342 1.415 . S
C342 H318 0.950 . S
C342 C337 1.363 1_565 S
C342 C341 1.415 . S
C343 H319 0.951 . S
C343 C344 1.366 . S
C343 C345 1.388 . S
C344 C343 1.366 . S
C344 C348 1.385 . S
C345 H320 0.951 . S
C345 C343 1.388 . S
C345 C346 1.366 . S
C346 C345 1.366 . S
C346 C347 1.414 . S
C346 C349 1.499 . S
C347 H321 0.950 1_455 S
C347 C346 1.414 . S
C347 C348 1.374 . S
C348 H322 0.950 . S
C348 C344 1.385 . S
C348 C347 1.374 . S
C349 C346 1.499 . S
C349 C350 1.373 1_455 S
C349 C351 1.389 . S
C350 H323 0.950 . S
C350 C336 1.377 1_565 S
C350 C349 1.373 1_655 S
C351 C335 1.377 1_565 S
C351 C349 1.389 . S
C351 C352 1.524 . S
C352 C351 1.524 . S
C352 C353 1.397 . S
C352 C357 1.363 1_565 S
C353 H324 0.950 . S
C353 C352 1.397 . S
C353 C354 1.334 . S
C354 H325 0.950 . S
C354 C353 1.334 . S
C354 C355 1.287 . S
C355 C354 1.287 . S
C355 C356 1.524 1_565 S
C355 H358 0.999 . S
C356 H326 0.950 . S
C356 C355 1.524 1_545 S
C356 C357 1.415 . S
C357 H327 0.950 . S
C357 C352 1.363 1_545 S
C357 C356 1.415 . S
H358 C355 0.999 . S
H359 C340 0.913 . S
H360 C378 0.951 . S
H361 C380 0.951 . S
H362 C382 0.950 . S
H363 C383 0.950 . S
H364 C385 0.950 . S
H365 C388 0.950 . S
H366 C389 0.950 . S
H367 C391 0.950 . S
H368 C392 0.950 . S
H369 C393 0.951 . S
H370 C395 0.951 . S
H371 C397 0.950 . S
H372 C398 0.950 . S
H373 C400 0.950 . S
H374 C403 0.950 . S
H375 C404 0.950 . S
H376 C406 0.950 . S
H377 C407 0.950 . S
C378 H360 0.951 . S
C378 C379 1.366 . S
C378 C380 1.388 . S
C379 C378 1.366 . S
C379 C383 1.385 . S
C380 H361 0.951 . S
C380 C378 1.388 . S
C380 C381 1.366 . S
C381 C380 1.366 . S
C381 C382 1.414 . S
C381 C384 1.499 . S
C382 H362 0.950 . S
C382 C381 1.414 . S
C382 C383 1.374 . S
C383 H363 0.950 . S
C383 C379 1.385 . S
C383 C382 1.374 . S
C384 C381 1.499 . S
C384 C385 1.373 . S
C384 C386 1.389 . S
C385 H364 0.950 . S
C385 C384 1.373 . S
C385 C401 1.377 . S
C386 C384 1.389 . S
C386 C387 1.524 . S
C386 C400 1.377 . S
C387 C386 1.524 . S
C387 C388 1.397 . S
C387 C392 1.363 . S
C388 H365 0.950 . S
C388 C387 1.397 . S
C388 C389 1.334 . S
C389 H366 0.950 . S
C389 C388 1.334 . S
C389 C390 1.287 . S
C390 C389 1.287 . S
C390 C391 1.524 . S
C390 H409 0.913 . S
C391 H367 0.950 . S
C391 C390 1.524 . S
C391 C392 1.415 . S
C392 H368 0.950 . S
C392 C387 1.363 . S
C392 C391 1.415 . S
C393 H369 0.951 . S
C393 C394 1.366 . S
C393 C395 1.388 . S
C394 C393 1.366 . S
C394 C398 1.385 . S
C395 H370 0.951 . S
C395 C393 1.388 . S
C395 C396 1.366 . S
C396 C395 1.366 . S
C396 C397 1.414 . S
C396 C399 1.499 . S
C397 H371 0.950 . S
C397 C396 1.414 . S
C397 C398 1.374 . S
C398 H372 0.950 . S
C398 C394 1.385 . S
C398 C397 1.374 . S
C399 C396 1.499 . S
C399 C400 1.373 . S
C399 C401 1.389 . S
C400 H373 0.950 . S
C400 C386 1.377 . S
C400 C399 1.373 . S
C401 C385 1.377 . S
C401 C399 1.389 . S
C401 C402 1.524 . S
C402 C401 1.524 . S
C402 C403 1.397 . S
C402 C407 1.363 . S
C403 H374 0.950 . S
C403 C402 1.397 . S
C403 C404 1.334 . S
C404 H375 0.950 . S
C404 C403 1.334 . S
C404 C405 1.287 . S
C405 C404 1.287 . S
C405 C406 1.524 . S
C405 H408 0.999 . S
C406 H376 0.950 . S
C406 C405 1.524 . S
C406 C407 1.415 . S
C407 H377 0.950 . S
C407 C402 1.363 . S
C407 C406 1.415 . S
H408 C405 0.999 . S
H409 C390 0.913 . S
H410 C428 0.951 . S
H411 C430 0.951 . S
H412 C432 0.950 . S
H413 C433 0.950 . S
H414 C435 0.950 . S
H415 C438 0.950 . S
H416 C439 0.950 . S
H417 C441 0.950 . S
H418 C442 0.950 . S
H419 C443 0.951 . S
H420 C445 0.951 . S
H421 C447 0.950 . S
H422 C448 0.950 . S
H423 C450 0.950 . S
H424 C453 0.950 . S
H425 C454 0.950 . S
H426 C456 0.950 . S
H427 C457 0.950 . S
C428 H410 0.951 . S
C428 C429 1.366 . S
C428 C430 1.388 . S
C429 C428 1.366 . S
C429 C433 1.385 . S
C430 H411 0.951 . S
C430 C428 1.388 . S
C430 C431 1.366 . S
C431 C430 1.366 . S
C431 C432 1.414 . S
C431 C434 1.499 . S
C432 H412 0.950 . S
C432 C431 1.414 . S
C432 C433 1.374 . S
C433 H413 0.950 . S
C433 C429 1.385 . S
C433 C432 1.374 . S
C434 C431 1.499 . S
C434 C435 1.373 . S
C434 C436 1.389 . S
C435 H414 0.950 . S
C435 C434 1.373 . S
C435 C451 1.377 . S
C436 C434 1.389 . S
C436 C437 1.524 . S
C436 C450 1.377 . S
C437 C436 1.524 . S
C437 C438 1.397 . S
C437 C442 1.363 . S
C438 H415 0.950 . S
C438 C437 1.397 . S
C438 C439 1.334 . S
C439 H416 0.950 . S
C439 C438 1.334 . S
C439 C440 1.287 . S
C440 C439 1.287 . S
C440 C441 1.524 . S
C440 H459 0.913 . S
C441 H417 0.950 . S
C441 C440 1.524 . S
C441 C442 1.415 . S
C442 H418 0.950 . S
C442 C437 1.363 . S
C442 C441 1.415 . S
C443 H419 0.951 . S
C443 C444 1.366 . S
C443 C445 1.388 . S
C444 C443 1.366 . S
C444 C448 1.385 . S
C445 H420 0.951 . S
C445 C443 1.388 . S
C445 C446 1.366 . S
C446 C445 1.366 . S
C446 C447 1.414 . S
C446 C449 1.499 . S
C447 H421 0.950 . S
C447 C446 1.414 . S
C447 C448 1.374 . S
C448 H422 0.950 . S
C448 C444 1.385 . S
C448 C447 1.374 . S
C449 C446 1.499 . S
C449 C450 1.373 . S
C449 C451 1.389 . S
C450 H423 0.950 . S
C450 C436 1.377 . S
C450 C449 1.373 . S
C451 C435 1.377 . S
C451 C449 1.389 . S
C451 C452 1.524 . S
C452 C451 1.524 . S
C452 C453 1.397 . S
C452 C457 1.363 . S
C453 H424 0.950 . S
C453 C452 1.397 . S
C453 C454 1.334 . S
C454 H425 0.950 . S
C454 C453 1.334 . S
C454 C455 1.287 . S
C455 C454 1.287 . S
C455 C456 1.524 . S
C455 H458 0.999 . S
C456 H426 0.950 . S
C456 C455 1.524 . S
C456 C457 1.415 . S
C457 H427 0.950 . S
C457 C452 1.363 . S
C457 C456 1.415 . S
H458 C455 0.999 . S
H459 C440 0.913 . S
H460 C478 0.951 . S
H461 C480 0.951 . S
H462 C482 0.950 . S
H463 C483 0.950 . S
H464 C485 0.950 . S
H465 C488 0.950 . S
H466 C489 0.950 . S
H467 C491 0.950 . S
H468 C492 0.950 . S
H469 C493 0.951 . S
H470 C495 0.951 . S
H471 C497 0.950 . S
H472 C498 0.950 . S
H473 C500 0.950 . S
H474 C503 0.950 . S
H475 C504 0.950 . S
H476 C506 0.950 . S
H477 C507 0.950 . S
C478 H460 0.951 . S
C478 C479 1.366 . S
C478 C480 1.388 . S
C479 C478 1.366 . S
C479 C483 1.385 . S
C480 H461 0.951 . S
C480 C478 1.388 . S
C480 C481 1.366 . S
C481 C480 1.366 . S
C481 C482 1.414 . S
C481 C484 1.499 . S
C482 H462 0.950 . S
C482 C481 1.414 . S
C482 C483 1.374 . S
C483 H463 0.950 . S
C483 C479 1.385 . S
C483 C482 1.374 . S
C484 C481 1.499 . S
C484 C485 1.373 . S
C484 C486 1.389 . S
C485 H464 0.950 . S
C485 C484 1.373 . S
C485 C501 1.377 . S
C486 C484 1.389 . S
C486 C487 1.524 . S
C486 C500 1.377 . S
C487 C486 1.524 . S
C487 C488 1.397 . S
C487 C492 1.363 . S
C488 H465 0.950 . S
C488 C487 1.397 . S
C488 C489 1.334 . S
C489 H466 0.950 . S
C489 C488 1.334 . S
C489 C490 1.287 . S
C490 C489 1.287 . S
C490 C491 1.524 . S
C490 H509 0.913 . S
C491 H467 0.950 . S
C491 C490 1.524 . S
C491 C492 1.415 . S
C492 H468 0.950 . S
C492 C487 1.363 . S
C492 C491 1.415 . S
C493 H469 0.951 . S
C493 C494 1.366 . S
C493 C495 1.388 . S
C494 C493 1.366 . S
C494 C498 1.385 . S
C495 H470 0.951 . S
C495 C493 1.388 . S
C495 C496 1.366 . S
C496 C495 1.366 . S
C496 C497 1.414 . S
C496 C499 1.499 . S
C497 H471 0.950 . S
C497 C496 1.414 . S
C497 C498 1.374 . S
C498 H472 0.950 . S
C498 C494 1.385 . S
C498 C497 1.374 . S
C499 C496 1.499 . S
C499 C500 1.373 . S
C499 C501 1.389 . S
C500 H473 0.950 . S
C500 C486 1.377 . S
C500 C499 1.373 . S
C501 C485 1.377 . S
C501 C499 1.389 . S
C501 C502 1.524 . S
C502 C501 1.524 . S
C502 C503 1.397 . S
C502 C507 1.363 . S
C503 H474 0.950 . S
C503 C502 1.397 . S
C503 C504 1.334 . S
C504 H475 0.950 . S
C504 C503 1.334 . S
C504 C505 1.287 . S
C505 C504 1.287 . S
C505 C506 1.524 . S
C505 H508 0.999 . S
C506 H476 0.950 . S
C506 C505 1.524 . S
C506 C507 1.415 . S
C507 H477 0.950 . S
C507 C502 1.363 . S
C507 C506 1.415 . S
H508 C505 0.999 . S
H509 C490 0.913 . S
H510 C528 0.951 . S
H511 C530 0.951 . S
H512 C532 0.950 . S
H513 C533 0.950 . S
H514 C535 0.950 . S
H515 C538 0.950 . S
H516 C539 0.950 . S
H517 C541 0.950 . S
H518 C542 0.950 . S
H519 C543 0.951 . S
H520 C545 0.951 . S
H521 C547 0.950 . S
H522 C548 0.950 . S
H523 C550 0.950 . S
H524 C553 0.950 . S
H525 C554 0.950 . S
H526 C556 0.950 . S
H527 C557 0.950 . S
C528 H510 0.951 . S
C528 C529 1.366 . S
C528 C530 1.388 . S
C529 C528 1.366 . S
C529 C533 1.385 . S
C530 H511 0.951 . S
C530 C528 1.388 . S
C530 C531 1.366 . S
C531 C530 1.366 . S
C531 C532 1.414 . S
C531 C534 1.499 . S
C532 H512 0.950 . S
C532 C531 1.414 . S
C532 C533 1.374 . S
C533 H513 0.950 . S
C533 C529 1.385 . S
C533 C532 1.374 . S
C534 C531 1.499 . S
C534 C535 1.373 . S
C534 C536 1.389 . S
C535 H514 0.950 . S
C535 C534 1.373 . S
C535 C551 1.377 . S
C536 C534 1.389 . S
C536 C537 1.524 . S
C536 C550 1.377 . S
C537 C536 1.524 . S
C537 C538 1.397 . S
C537 C542 1.363 . S
C538 H515 0.950 . S
C538 C537 1.397 . S
C538 C539 1.334 . S
C539 H516 0.950 . S
C539 C538 1.334 . S
C539 C540 1.287 . S
C540 C539 1.287 . S
C540 C541 1.524 . S
C540 H559 0.913 . S
C541 H517 0.950 . S
C541 C540 1.524 . S
C541 C542 1.415 . S
C542 H518 0.950 . S
C542 C537 1.363 . S
C542 C541 1.415 . S
C543 H519 0.951 . S
C543 C544 1.366 . S
C543 C545 1.388 . S
C544 C543 1.366 . S
C544 C548 1.385 . S
C545 H520 0.951 . S
C545 C543 1.388 . S
C545 C546 1.366 . S
C546 C545 1.366 . S
C546 C547 1.414 . S
C546 C549 1.499 . S
C547 H521 0.950 . S
C547 C546 1.414 . S
C547 C548 1.374 . S
C548 H522 0.950 . S
C548 C544 1.385 . S
C548 C547 1.374 . S
C549 C546 1.499 . S
C549 C550 1.373 . S
C549 C551 1.389 . S
C550 H523 0.950 . S
C550 C536 1.377 . S
C550 C549 1.373 . S
C551 C535 1.377 . S
C551 C549 1.389 . S
C551 C552 1.524 . S
C552 C551 1.524 . S
C552 C553 1.397 . S
C552 C557 1.363 . S
C553 H524 0.950 . S
C553 C552 1.397 . S
C553 C554 1.334 . S
C554 H525 0.950 . S
C554 C553 1.334 . S
C554 C555 1.287 . S
C555 C554 1.287 . S
C555 C556 1.524 . S
C555 H558 0.999 . S
C556 H526 0.950 . S
C556 C555 1.524 . S
C556 C557 1.415 . S
C557 H527 0.950 . S
C557 C552 1.363 . S
C557 C556 1.415 . S
H558 C555 0.999 . S
H559 C540 0.913 . S
H560 C578 0.951 . S
H561 C580 0.951 . S
H562 C582 0.950 . S
H563 C583 0.950 . S
H564 C585 0.950 . S
H565 C588 0.950 . S
H566 C589 0.950 . S
H567 C591 0.950 . S
H568 C592 0.950 . S
H569 C593 0.951 . S
H570 C595 0.951 . S
H571 C597 0.950 . S
H572 C598 0.951 . S
H573 C600 0.950 1_455 S
H574 C603 0.950 . S
H575 C604 0.950 . S
H576 C606 0.950 . S
H577 C607 0.950 . S
C578 H560 0.951 . S
C578 C579 1.366 . S
C578 C580 1.388 . S
C579 C578 1.366 . S
C579 C583 1.385 . S
C580 H561 0.951 . S
C580 C578 1.388 . S
C580 C581 1.366 . S
C581 C580 1.366 . S
C581 C582 1.414 . S
C581 C584 1.499 . S
C582 H562 0.950 . S
C582 C581 1.414 . S
C582 C583 1.374 . S
C583 H563 0.950 . S
C583 C579 1.385 . S
C583 C582 1.374 . S
C584 C581 1.499 . S
C584 C585 1.373 . S
C584 C586 1.389 . S
C585 H564 0.950 . S
C585 C584 1.373 . S
C585 C601 1.377 . S
C586 C584 1.389 . S
C586 C587 1.524 1_655 S
C586 C600 1.377 . S
C587 C586 1.524 1_455 S
C587 C588 1.397 . S
C587 C592 1.363 . S
C588 H565 0.950 . S
C588 C587 1.397 . S
C588 C589 1.334 . S
C589 H566 0.950 . S
C589 C588 1.334 . S
C589 C590 1.287 . S
C590 C589 1.287 . S
C590 C591 1.524 . S
C590 H609 0.913 . S
C591 H567 0.950 . S
C591 C590 1.524 . S
C591 C592 1.415 . S
C592 H568 0.950 . S
C592 C587 1.363 . S
C592 C591 1.415 . S
C593 H569 0.951 . S
C593 C594 1.366 . S
C593 C595 1.388 1_455 S
C594 C593 1.366 . S
C594 C598 1.386 . S
C595 H570 0.951 . S
C595 C593 1.388 1_655 S
C595 C596 1.366 . S
C596 C595 1.366 . S
C596 C597 1.414 . S
C596 C599 1.499 . S
C597 H571 0.950 . S
C597 C596 1.414 . S
C597 C598 1.371 1_655 S
C598 H572 0.951 . S
C598 C594 1.386 . S
C598 C597 1.371 1_455 S
C599 C596 1.499 . S
C599 C600 1.373 . S
C599 C601 1.389 . S
C600 H573 0.950 1_655 S
C600 C586 1.377 . S
C600 C599 1.373 . S
C601 C585 1.377 . S
C601 C599 1.389 . S
C601 C602 1.524 . S
C602 C601 1.524 . S
C602 C603 1.397 . S
C602 C607 1.363 . S
C603 H574 0.950 . S
C603 C602 1.397 . S
C603 C604 1.334 . S
C604 H575 0.950 . S
C604 C603 1.334 . S
C604 C605 1.287 . S
C605 C604 1.287 . S
C605 C606 1.524 . S
C605 H608 0.999 . S
C606 H576 0.950 . S
C606 C605 1.524 . S
C606 C607 1.415 . S
C607 H577 0.950 . S
C607 C602 1.363 . S
C607 C606 1.415 . S
H608 C605 0.999 . S
H609 C590 0.913 . S
H610 C628 0.951 . S
H611 C630 0.951 . S
H612 C632 0.950 . S
H613 C633 0.950 . S
H614 C635 0.950 . S
H615 C638 0.950 . S
H616 C639 0.950 . S
H617 C641 0.950 . S
H618 C642 0.950 . S
H619 C643 0.951 . S
H620 C645 0.951 . S
H621 C647 0.950 . S
H622 C648 0.950 . S
H623 C650 0.950 1_455 S
H624 C653 0.950 . S
H625 C654 0.950 . S
H626 C656 0.950 . S
H627 C657 0.950 . S
C628 H610 0.951 . S
C628 C629 1.366 . S
C628 C630 1.388 . S
C629 C628 1.366 . S
C629 C633 1.385 . S
C630 H611 0.951 . S
C630 C628 1.388 . S
C630 C631 1.366 . S
C631 C630 1.366 . S
C631 C632 1.414 . S
C631 C634 1.499 . S
C632 H612 0.950 . S
C632 C631 1.414 . S
C632 C633 1.374 . S
C633 H613 0.950 . S
C633 C629 1.385 . S
C633 C632 1.374 . S
C634 C631 1.499 . S
C634 C635 1.373 . S
C634 C636 1.389 . S
C635 H614 0.950 . S
C635 C634 1.373 . S
C635 C651 1.377 . S
C636 C634 1.389 . S
C636 C637 1.524 . S
C636 C650 1.377 . S
C637 C636 1.524 . S
C637 C638 1.397 1_655 S
C637 C642 1.363 . S
C638 H615 0.950 . S
C638 C637 1.397 1_455 S
C638 C639 1.334 . S
C639 H616 0.950 . S
C639 C638 1.334 . S
C639 C640 1.287 . S
C640 C639 1.287 . S
C640 C641 1.524 . S
C640 H659 0.913 . S
C641 H617 0.950 . S
C641 C640 1.524 . S
C641 C642 1.415 1_455 S
C642 H618 0.950 . S
C642 C637 1.363 . S
C642 C641 1.415 1_655 S
C643 H619 0.951 . S
C643 C644 1.366 . S
C643 C645 1.388 1_455 S
C644 C643 1.366 . S
C644 C648 1.385 1_455 S
C645 H620 0.951 . S
C645 C643 1.388 1_655 S
C645 C646 1.366 . S
C646 C645 1.366 . S
C646 C647 1.414 . S
C646 C649 1.499 . S
C647 H621 0.950 . S
C647 C646 1.414 . S
C647 C648 1.374 . S
C648 H622 0.950 . S
C648 C644 1.385 1_655 S
C648 C647 1.374 . S
C649 C646 1.499 . S
C649 C650 1.373 . S
C649 C651 1.389 . S
C650 H623 0.950 1_655 S
C650 C636 1.377 . S
C650 C649 1.373 . S
C651 C635 1.377 . S
C651 C649 1.389 . S
C651 C652 1.524 . S
C652 C651 1.524 . S
C652 C653 1.397 . S
C652 C657 1.363 . S
C653 H624 0.950 . S
C653 C652 1.397 . S
C653 C654 1.334 . S
C654 H625 0.950 . S
C654 C653 1.334 . S
C654 C655 1.287 . S
C655 C654 1.287 . S
C655 C656 1.524 . S
C655 H658 0.999 . S
C656 H626 0.950 . S
C656 C655 1.524 . S
C656 C657 1.415 . S
C657 H627 0.950 . S
C657 C652 1.363 . S
C657 C656 1.415 . S
H658 C655 0.999 . S
H659 C640 0.913 . S
H660 C678 0.951 . S
H661 C680 0.951 . S
H662 C682 0.950 . S
H663 C683 0.950 . S
H664 C685 0.950 1_655 S
H665 C688 0.950 . S
H666 C689 0.950 . S
H667 C691 0.950 . S
H668 C692 0.950 . S
H669 C693 0.951 . S
H670 C695 0.951 . S
H671 C697 0.950 . S
H672 C698 0.950 . S
H673 C700 0.950 . S
H674 C703 0.950 . S
H675 C704 0.950 . S
H676 C706 0.950 . S
H677 C707 0.950 . S
C678 H660 0.951 . S
C678 C679 1.366 . S
C678 C680 1.388 1_655 S
C679 C678 1.366 . S
C679 C683 1.385 . S
C680 H661 0.951 . S
C680 C678 1.388 1_455 S
C680 C681 1.366 . S
C681 C680 1.366 . S
C681 C682 1.414 . S
C681 C684 1.499 . S
C682 H662 0.950 . S
C682 C681 1.414 . S
C682 C683 1.374 1_455 S
C683 H663 0.950 . S
C683 C679 1.385 . S
C683 C682 1.374 1_655 S
C684 C681 1.499 . S
C684 C685 1.373 . S
C684 C686 1.389 . S
C685 H664 0.950 1_455 S
C685 C684 1.373 . S
C685 C701 1.377 . S
C686 C684 1.389 . S
C686 C687 1.524 . S
C686 C700 1.377 . S
C687 C686 1.524 . S
C687 C688 1.397 . S
C687 C692 1.363 . S
C688 H665 0.950 . S
C688 C687 1.397 . S
C688 C689 1.334 . S
C689 H666 0.950 . S
C689 C688 1.334 . S
C689 C690 1.287 . S
C690 C689 1.287 . S
C690 C691 1.524 . S
C690 H709 0.913 . S
C691 H667 0.950 . S
C691 C690 1.524 . S
C691 C692 1.415 . S
C692 H668 0.950 . S
C692 C687 1.363 . S
C692 C691 1.415 . S
C693 H669 0.951 . S
C693 C694 1.366 . S
C693 C695 1.388 . S
C694 C693 1.366 . S
C694 C698 1.385 . S
C695 H670 0.951 . S
C695 C693 1.388 . S
C695 C696 1.366 . S
C696 C695 1.366 . S
C696 C697 1.414 . S
C696 C699 1.499 . S
C697 H671 0.950 . S
C697 C696 1.414 . S
C697 C698 1.374 . S
C698 H672 0.950 . S
C698 C694 1.385 . S
C698 C697 1.374 . S
C699 C696 1.499 . S
C699 C700 1.373 . S
C699 C701 1.389 . S
C700 H673 0.950 . S
C700 C686 1.377 . S
C700 C699 1.373 . S
C701 C685 1.377 . S
C701 C699 1.389 . S
C701 C702 1.524 1_455 S
C702 C701 1.524 1_655 S
C702 C703 1.397 . S
C702 C707 1.363 . S
C703 H674 0.950 . S
C703 C702 1.397 . S
C703 C704 1.334 . S
C704 H675 0.950 . S
C704 C703 1.334 . S
C704 C705 1.287 . S
C705 C704 1.287 . S
C705 C706 1.524 . S
C705 H708 0.999 . S
C706 H676 0.950 . S
C706 C705 1.524 . S
C706 C707 1.415 . S
C707 H677 0.950 . S
C707 C702 1.363 . S
C707 C706 1.415 . S
H708 C705 0.999 . S
H709 C690 0.913 . S
H710 C728 0.951 . S
H711 C730 0.951 . S
H712 C732 0.950 . S
H713 C733 0.950 . S
H714 C735 0.950 1_655 S
H715 C738 0.950 . S
H716 C739 0.950 . S
H717 C741 0.950 . S
H718 C742 0.950 . S
H719 C743 0.951 . S
H720 C745 0.951 . S
H721 C747 0.950 . S
H722 C748 0.950 . S
H723 C750 0.950 . S
H724 C753 0.950 . S
H725 C754 0.950 . S
H726 C756 0.950 . S
H727 C757 0.950 . S
C728 H710 0.951 . S
C728 C729 1.366 . S
C728 C730 1.388 . S
C729 C728 1.366 . S
C729 C733 1.385 . S
C730 H711 0.951 . S
C730 C728 1.388 . S
C730 C731 1.366 . S
C731 C730 1.366 . S
C731 C732 1.414 . S
C731 C734 1.499 . S
C732 H712 0.950 . S
C732 C731 1.414 . S
C732 C733 1.374 . S
C733 H713 0.950 . S
C733 C729 1.385 . S
C733 C732 1.374 . S
C734 C731 1.499 . S
C734 C735 1.373 . S
C734 C736 1.389 . S
C735 H714 0.950 1_455 S
C735 C734 1.373 . S
C735 C751 1.374 1_455 S
C736 C734 1.389 . S
C736 C737 1.524 . S
C736 C750 1.377 . S
C737 C736 1.524 . S
C737 C738 1.397 . S
C737 C742 1.363 . S
C738 H715 0.950 . S
C738 C737 1.397 . S
C738 C739 1.334 . S
C739 H716 0.950 . S
C739 C738 1.334 . S
C739 C740 1.287 . S
C740 C739 1.287 . S
C740 C741 1.524 . S
C740 H759 0.913 . S
C741 H717 0.950 . S
C741 C740 1.524 . S
C741 C742 1.415 . S
C742 H718 0.950 . S
C742 C737 1.363 . S
C742 C741 1.415 . S
C743 H719 0.951 . S
C743 C744 1.366 . S
C743 C745 1.388 . S
C744 C743 1.366 . S
C744 C748 1.385 1_655 S
C745 H720 0.951 . S
C745 C743 1.388 . S
C745 C746 1.366 1_655 S
C746 C745 1.366 1_455 S
C746 C747 1.414 . S
C746 C749 1.499 . S
C747 H721 0.950 . S
C747 C746 1.414 . S
C747 C748 1.374 . S
C748 H722 0.950 . S
C748 C744 1.385 1_455 S
C748 C747 1.374 . S
C749 C746 1.499 . S
C749 C750 1.373 . S
C749 C751 1.385 1_455 S
C750 H723 0.950 . S
C750 C736 1.377 . S
C750 C749 1.373 . S
C751 C735 1.374 1_655 S
C751 C749 1.385 1_655 S
C751 C752 1.532 . S
C752 C751 1.532 . S
C752 C753 1.397 . S
C752 C757 1.363 . S
C753 H724 0.950 . S
C753 C752 1.397 . S
C753 C754 1.334 . S
C754 H725 0.950 . S
C754 C753 1.334 . S
C754 C755 1.287 . S
C755 C754 1.287 . S
C755 C756 1.524 . S
C755 H758 0.999 . S
C756 H726 0.950 . S
C756 C755 1.524 . S
C756 C757 1.415 . S
C757 H727 0.950 . S
C757 C752 1.363 . S
C757 C756 1.415 . S
H758 C755 0.999 . S
H759 C740 0.913 . S
C179 C58 1.501 . S
C194 C9 1.503 . S
C229 C89 1.501 . S
C244 C138 1.501 . S
C279 C18 1.501 . S
C294 C49 1.503 . S
C329 C129 1.501 . S
C344 C98 1.501 . S
C379 C126 1.166 . S
C394 C10 1.166 . S
C429 C46 1.165 . S
C444 C90 1.166 . S
C479 C59 1.166 . S
C494 C95 1.166 . S
C529 C139 1.166 . S
C544 C15 1.166 . S
C579 C50 1.166 . S
C594 C86 1.165 . S
C629 C130 1.166 . S
C644 C6 1.165 . S
C679 C135 1.165 . S
C694 C19 1.166 . S
C729 C99 1.166 . S
C744 C55 1.166 . S
