# Generated by pormake.
# Topology cag, (4)-cn, num edge types: 1
# Building blocks:
#     Node 0, Type 0, BuildingBlock: GALJAG_clean_sbu_0, # of connection points: 4
#     Node 1, Type 0, BuildingBlock: GALJAG_clean_sbu_0, # of connection points: 4
#     Node 2, Type 0, BuildingBlock: GALJAG_clean_sbu_0, # of connection points: 4
#     Node 3, Type 0, BuildingBlock: GALJAG_clean_sbu_0, # of connection points: 4
#     Node 4, Type 0, BuildingBlock: GALJAG_clean_sbu_0, # of connection points: 4
#     Node 5, Type 0, BuildingBlock: GALJAG_clean_sbu_0, # of connection points: 4
#     Node 6, Type 0, BuildingBlock: GALJAG_clean_sbu_0, # of connection points: 4
#     Node 7, Type 0, BuildingBlock: GALJAG_clean_sbu_0, # of connection points: 4
#     Node 8, Type 0, BuildingBlock: GALJAG_clean_sbu_0, # of connection points: 4
#     Node 9, Type 0, BuildingBlock: GALJAG_clean_sbu_0, # of connection points: 4
#     Node 10, Type 0, BuildingBlock: GALJAG_clean_sbu_0, # of connection points: 4
#     Node 11, Type 0, BuildingBlock: GALJAG_clean_sbu_0, # of connection points: 4
#     Node 12, Type 0, BuildingBlock: GALJAG_clean_sbu_0, # of connection points: 4
#     Node 13, Type 0, BuildingBlock: GALJAG_clean_sbu_0, # of connection points: 4
#     Node 14, Type 0, BuildingBlock: GALJAG_clean_sbu_0, # of connection points: 4
#     Node 15, Type 0, BuildingBlock: GALJAG_clean_sbu_0, # of connection points: 4
#     Edge 16, Type (0, 0), BuildingBlock: OJICUG_clean_linker_0, # of connection points: 2
#     Edge 17, Type (0, 0), BuildingBlock: OJICUG_clean_linker_0, # of connection points: 2
#     Edge 18, Type (0, 0), BuildingBlock: OJICUG_clean_linker_0, # of connection points: 2
#     Edge 19, Type (0, 0), BuildingBlock: OJICUG_clean_linker_0, # of connection points: 2
#     Edge 20, Type (0, 0), BuildingBlock: OJICUG_clean_linker_0, # of connection points: 2
#     Edge 21, Type (0, 0), BuildingBlock: OJICUG_clean_linker_0, # of connection points: 2
#     Edge 22, Type (0, 0), BuildingBlock: OJICUG_clean_linker_0, # of connection points: 2
#     Edge 23, Type (0, 0), BuildingBlock: OJICUG_clean_linker_0, # of connection points: 2
#     Edge 24, Type (0, 0), BuildingBlock: OJICUG_clean_linker_0, # of connection points: 2
#     Edge 25, Type (0, 0), BuildingBlock: OJICUG_clean_linker_0, # of connection points: 2
#     Edge 26, Type (0, 0), BuildingBlock: OJICUG_clean_linker_0, # of connection points: 2
#     Edge 27, Type (0, 0), BuildingBlock: OJICUG_clean_linker_0, # of connection points: 2
#     Edge 28, Type (0, 0), BuildingBlock: OJICUG_clean_linker_0, # of connection points: 2
#     Edge 29, Type (0, 0), BuildingBlock: OJICUG_clean_linker_0, # of connection points: 2
#     Edge 30, Type (0, 0), BuildingBlock: OJICUG_clean_linker_0, # of connection points: 2
#     Edge 31, Type (0, 0), BuildingBlock: OJICUG_clean_linker_0, # of connection points: 2
#     Edge 32, Type (0, 0), BuildingBlock: OJICUG_clean_linker_0, # of connection points: 2
#     Edge 33, Type (0, 0), BuildingBlock: OJICUG_clean_linker_0, # of connection points: 2
#     Edge 34, Type (0, 0), BuildingBlock: OJICUG_clean_linker_0, # of connection points: 2
#     Edge 35, Type (0, 0), BuildingBlock: OJICUG_clean_linker_0, # of connection points: 2
#     Edge 36, Type (0, 0), BuildingBlock: OJICUG_clean_linker_0, # of connection points: 2
#     Edge 37, Type (0, 0), BuildingBlock: OJICUG_clean_linker_0, # of connection points: 2
#     Edge 38, Type (0, 0), BuildingBlock: OJICUG_clean_linker_0, # of connection points: 2
#     Edge 39, Type (0, 0), BuildingBlock: OJICUG_clean_linker_0, # of connection points: 2
#     Edge 40, Type (0, 0), BuildingBlock: OJICUG_clean_linker_0, # of connection points: 2
#     Edge 41, Type (0, 0), BuildingBlock: OJICUG_clean_linker_0, # of connection points: 2
#     Edge 42, Type (0, 0), BuildingBlock: OJICUG_clean_linker_0, # of connection points: 2
#     Edge 43, Type (0, 0), BuildingBlock: OJICUG_clean_linker_0, # of connection points: 2
#     Edge 44, Type (0, 0), BuildingBlock: OJICUG_clean_linker_0, # of connection points: 2
#     Edge 45, Type (0, 0), BuildingBlock: OJICUG_clean_linker_0, # of connection points: 2
#     Edge 46, Type (0, 0), BuildingBlock: OJICUG_clean_linker_0, # of connection points: 2
#     Edge 47, Type (0, 0), BuildingBlock: OJICUG_clean_linker_0, # of connection points: 2
# Relax obj value: 0.084
# Max RMSD: 0.168
# Mean RMSD: 0.142
data_MOF--net-cag--node1-GALJAG_clean_sbu_0--edge1-OJICUG_clean_linker_0
_symmetry_space_group_name_H-M    P1
_symmetry_Int_Tables_number       1
_symmetry_cell_setting            triclinic
loop_
_symmetry_equiv_pos_as_xyz
'x, y, z'
_cell_length_a     33.972681
_cell_length_b     36.416478
_cell_length_c     28.670591
_cell_angle_alpha  90.104954
_cell_angle_beta   90.024901
_cell_angle_gamma 90.104624
loop_
_atom_site_label
_atom_site_type_symbol
_atom_site_fract_x
_atom_site_fract_y
_atom_site_fract_z
_atom_type_partial_charge
In0 In 0.33694 0.1358 0.07966 0.0
O1 O 0.28792 0.11517 0.12716 0.0
O2 O 0.32433 0.15817 0.15268 0.0
C3 C 0.3352 0.06946 0.03774 0.0
C4 C 0.29747 0.1903 0.03647 0.0
C5 C 0.41609 0.14424 0.08364 0.0
O6 O 0.33136 0.09907 0.01539 0.0
O7 O 0.34 0.07337 0.0811 0.0
O8 O 0.39608 0.15281 0.04824 0.0
O9 O 0.39614 0.13203 0.11734 0.0
C10 C 0.29532 0.13725 0.1599 0.0
O11 O 0.32836 0.19606 0.05983 0.0
O12 O 0.28712 0.15709 0.03409 0.0
In13 In 0.17019 0.8681 0.57363 0.0
O14 O 0.21793 0.84541 0.52584 0.0
O15 O 0.17882 0.80722 0.55711 0.0
C16 C 0.09133 0.85825 0.57612 0.0
C17 C 0.21122 0.86775 0.65419 0.0
C18 C 0.17157 0.93546 0.53463 0.0
O19 O 0.11146 0.85293 0.53976 0.0
O20 O 0.11099 0.86825 0.61125 0.0
O21 O 0.17595 0.90641 0.51117 0.0
O22 O 0.16638 0.93053 0.57773 0.0
C23 C 0.2082 0.81226 0.53103 0.0
O24 O 0.22205 0.88584 0.619 0.0
O25 O 0.17955 0.85011 0.64887 0.0
In26 In 0.33994 0.86045 0.90687 0.0
O27 O 0.33009 0.79934 0.92149 0.0
O28 O 0.29244 0.8381 0.95461 0.0
C29 C 0.41793 0.8453 0.90249 0.0
C30 C 0.30002 0.86345 0.82558 0.0
C31 C 0.33496 0.92709 0.94886 0.0
O32 O 0.39964 0.84933 0.94034 0.0
O33 O 0.39671 0.84784 0.86658 0.0
O34 O 0.33135 0.92285 0.90549 0.0
O35 O 0.34064 0.8978 0.97108 0.0
C36 C 0.30111 0.80476 0.94828 0.0
O37 O 0.33403 0.87704 0.83015 0.0
O38 O 0.28639 0.8486 0.86178 0.0
In39 In 0.16241 0.14593 0.40952 0.0
O40 O 0.17369 0.12261 0.33638 0.0
O41 O 0.20775 0.16835 0.35849 0.0
C42 C 0.16991 0.07926 0.45033 0.0
C43 C 0.20367 0.1985 0.4542 0.0
C44 C 0.08388 0.15998 0.4069 0.0
O45 O 0.17307 0.08398 0.407 0.0
O46 O 0.16362 0.1082 0.47324 0.0
O47 O 0.10281 0.15522 0.44409 0.0
O48 O 0.10465 0.15859 0.37054 0.0
C49 C 0.20084 0.14512 0.32694 0.0
O50 O 0.17302 0.20549 0.43083 0.0
O51 O 0.21305 0.16496 0.45551 0.0
In52 In 0.66603 0.8583 0.90166 0.0
O53 O 0.71867 0.83887 0.94437 0.0
O54 O 0.67507 0.79947 0.92602 0.0
C55 C 0.66649 0.9243 0.94437 0.0
C56 C 0.70681 0.85991 0.82075 0.0
C57 C 0.58751 0.84568 0.89894 0.0
O58 O 0.67622 0.89511 0.96509 0.0
O59 O 0.65665 0.92012 0.90224 0.0
O60 O 0.6073 0.85237 0.8627 0.0
O61 O 0.6074 0.84478 0.936 0.0
C62 C 0.70745 0.80584 0.94604 0.0
O63 O 0.68852 0.83175 0.83435 0.0
O64 O 0.70371 0.88737 0.84724 0.0
In65 In 0.83632 0.14128 0.40874 0.0
O66 O 0.77877 0.14189 0.36797 0.0
O67 O 0.83175 0.13442 0.32974 0.0
C68 C 0.91423 0.15738 0.40696 0.0
C69 C 0.79852 0.1973 0.45115 0.0
C70 C 0.83495 0.07329 0.44703 0.0
O71 O 0.89368 0.15542 0.37041 0.0
O72 O 0.89533 0.15214 0.44417 0.0
O73 O 0.83404 0.07839 0.40361 0.0
O74 O 0.83628 0.1023 0.4709 0.0
C75 C 0.79473 0.13725 0.3287 0.0
O76 O 0.7913 0.16402 0.45971 0.0
O77 O 0.82526 0.20255 0.42127 0.0
In78 In 0.66505 0.13272 0.07651 0.0
O79 O 0.71092 0.15438 0.02532 0.0
O80 O 0.6789 0.19353 0.06489 0.0
C81 C 0.66589 0.06626 0.0344 0.0
C82 C 0.70543 0.1326 0.15751 0.0
C83 C 0.58617 0.1426 0.08201 0.0
O84 O 0.67093 0.07027 0.07767 0.0
O85 O 0.66049 0.09574 0.01233 0.0
O86 O 0.60573 0.12618 0.11298 0.0
O87 O 0.60646 0.15465 0.04848 0.0
C88 C 0.70552 0.18775 0.03508 0.0
O89 O 0.67105 0.14542 0.1542 0.0
O90 O 0.71922 0.11962 0.12014 0.0
In91 In 0.84246 0.86346 0.57342 0.0
O92 O 0.78862 0.84359 0.53313 0.0
O93 O 0.83394 0.80493 0.54697 0.0
C94 C 0.83886 0.92971 0.53184 0.0
C95 C 0.80319 0.86248 0.6553 0.0
C96 C 0.92149 0.85405 0.57671 0.0
O97 O 0.83311 0.90018 0.50966 0.0
O98 O 0.8463 0.92566 0.57461 0.0
O99 O 0.90119 0.86055 0.61258 0.0
O100 O 0.90188 0.85145 0.53956 0.0
C101 C 0.80048 0.81089 0.52946 0.0
O102 O 0.82116 0.83477 0.63977 0.0
O103 O 0.80587 0.89074 0.63023 0.0
In104 In 0.83936 0.63888 0.07848 0.0
O105 O 0.79553 0.61394 0.12936 0.0
O106 O 0.82099 0.66527 0.1476 0.0
C107 C 0.83879 0.57208 0.03784 0.0
C108 C 0.79907 0.69159 0.03303 0.0
C109 C 0.91813 0.64924 0.08323 0.0
O110 O 0.8331 0.60123 0.01503 0.0
O111 O 0.84485 0.57675 0.08086 0.0
O112 O 0.89849 0.65424 0.04649 0.0
O113 O 0.89798 0.63955 0.11806 0.0
C114 C 0.79731 0.63994 0.15831 0.0
O115 O 0.83048 0.69807 0.05506 0.0
O116 O 0.78839 0.6584 0.03318 0.0
In117 In 0.67189 0.36978 0.58122 0.0
O118 O 0.72569 0.38357 0.62554 0.0
O119 O 0.67834 0.3554 0.65819 0.0
C120 C 0.67258 0.43641 0.53997 0.0
C121 C 0.71109 0.31475 0.5383 0.0
C122 C 0.59304 0.35939 0.58533 0.0
O123 O 0.67055 0.40679 0.51727 0.0
O124 O 0.67438 0.4325 0.5836 0.0
O125 O 0.6136 0.3487 0.55131 0.0
O126 O 0.61228 0.37486 0.61746 0.0
C127 C 0.71222 0.36929 0.66227 0.0
O128 O 0.68392 0.309 0.56741 0.0
O129 O 0.71812 0.34817 0.53048 0.0
In130 In 0.83995 0.35982 0.9156 0.0
O131 O 0.8279 0.29861 0.92776 0.0
O132 O 0.79416 0.33743 0.96597 0.0
C133 C 0.91791 0.34406 0.91345 0.0
C134 C 0.79954 0.36454 0.83482 0.0
C135 C 0.83769 0.42778 0.95411 0.0
O136 O 0.89969 0.35148 0.95055 0.0
O137 O 0.89659 0.34337 0.87745 0.0
O138 O 0.8365 0.42254 0.9107 0.0
O139 O 0.83971 0.39887 0.978 0.0
C140 C 0.80074 0.30409 0.95704 0.0
O141 O 0.83625 0.36974 0.83703 0.0
O142 O 0.78333 0.35729 0.87327 0.0
In143 In 0.66242 0.64322 0.40599 0.0
O144 O 0.67133 0.70174 0.432 0.0
O145 O 0.71683 0.66304 0.44522 0.0
C146 C 0.58346 0.65334 0.40162 0.0
C147 C 0.70107 0.64295 0.32373 0.0
C148 C 0.66787 0.57792 0.44986 0.0
O149 O 0.60267 0.65499 0.43911 0.0
O150 O 0.60412 0.64742 0.36592 0.0
O151 O 0.66197 0.58088 0.40663 0.0
O152 O 0.67123 0.60806 0.47134 0.0
C153 C 0.70498 0.69576 0.44905 0.0
O154 O 0.69271 0.61401 0.34563 0.0
O155 O 0.68907 0.67214 0.34262 0.0
In156 In 0.16608 0.35831 0.90571 0.0
O157 O 0.21842 0.3389 0.94908 0.0
O158 O 0.17348 0.30015 0.93295 0.0
C159 C 0.17038 0.4257 0.94449 0.0
C160 C 0.2049 0.35914 0.82314 0.0
C161 C 0.0876 0.34498 0.90732 0.0
O162 O 0.18602 0.39789 0.96313 0.0
O163 O 0.15258 0.41935 0.90669 0.0
O164 O 0.10692 0.34669 0.86979 0.0
O165 O 0.10794 0.34934 0.94368 0.0
C166 C 0.20625 0.30621 0.95226 0.0
O167 O 0.19392 0.32984 0.84243 0.0
O168 O 0.19525 0.3879 0.84458 0.0
In169 In 0.33515 0.63822 0.40546 0.0
O170 O 0.32228 0.65797 0.3317 0.0
O171 O 0.28551 0.61621 0.35969 0.0
C172 C 0.41374 0.64934 0.40137 0.0
C173 C 0.29582 0.69331 0.44791 0.0
C174 C 0.33662 0.57179 0.44667 0.0
O175 O 0.39397 0.63855 0.36668 0.0
O176 O 0.39381 0.6549 0.43779 0.0
O177 O 0.34012 0.57586 0.40317 0.0
O178 O 0.3322 0.60123 0.46936 0.0
C179 C 0.29313 0.63697 0.32571 0.0
O180 O 0.2863 0.66004 0.45265 0.0
O181 O 0.3255 0.6987 0.42244 0.0
In182 In 0.1662 0.63553 0.07202 0.0
O183 O 0.21565 0.65463 0.02363 0.0
O184 O 0.17684 0.6949 0.05144 0.0
C185 C 0.17314 0.57011 0.02771 0.0
C186 C 0.20202 0.63746 0.15599 0.0
C187 C 0.08783 0.64809 0.0804 0.0
O188 O 0.19089 0.57729 0.06521 0.0
O189 O 0.15272 0.59614 0.01201 0.0
O190 O 0.10842 0.63611 0.1136 0.0
O191 O 0.10686 0.65443 0.04361 0.0
C192 C 0.20662 0.68821 0.02651 0.0
O193 O 0.20622 0.66221 0.12577 0.0
O194 O 0.17882 0.61187 0.14446 0.0
In195 In 0.34406 0.36417 0.57863 0.0
O196 O 0.3256 0.33743 0.64739 0.0
O197 O 0.30178 0.38969 0.63084 0.0
C198 C 0.42311 0.35534 0.58457 0.0
C199 C 0.30147 0.31181 0.53491 0.0
C200 C 0.34226 0.42988 0.53567 0.0
O201 O 0.40258 0.36673 0.61822 0.0
O202 O 0.40371 0.34762 0.54838 0.0
O203 O 0.34092 0.39995 0.51337 0.0
O204 O 0.34463 0.42653 0.57936 0.0
C205 C 0.30285 0.36322 0.65904 0.0
O206 O 0.29222 0.34533 0.53402 0.0
O207 O 0.3328 0.30482 0.55678 0.0
C208 C 0.23837 0.21223 -0.00706 0.0
C209 C 0.2744 0.22009 0.01487 0.0
H210 H 0.18844 0.23337 0.95637 0.0
C211 C 0.28764 0.25664 0.01674 0.0
H212 H 0.22733 0.18434 0.99113 0.0
C213 C 0.26534 0.28477 -0.00324 0.0
C214 C 0.22932 0.27685 0.9748 0.0
H215 H 0.31527 0.2635 0.03354 0.0
H216 H 0.27636 0.31268 -0.00159 0.0
C217 C 0.21602 0.24034 0.97321 0.0
C218 C 0.24009 0.71636 0.49685 0.0
C219 C 0.27347 0.72363 0.46945 0.0
H220 H 0.19312 0.73878 0.53774 0.0
C221 C 0.28497 0.76024 0.46213 0.0
H222 H 0.23047 0.6884 0.50298 0.0
C223 C 0.26356 0.78903 0.48188 0.0
C224 C 0.23022 0.78178 0.50935 0.0
H225 H 0.31053 0.76668 0.44107 0.0
H226 H 0.27322 0.81697 0.47573 0.0
C227 C 0.21866 0.74518 0.51664 0.0
C228 C 0.24364 0.78279 -0.00532 0.0
C229 C 0.27745 0.77467 0.96847 0.0
H230 H 0.19459 0.76184 0.03308 0.0
C231 C 0.28754 0.73776 0.96071 0.0
H232 H 0.23498 0.81097 0.00106 0.0
C233 C 0.26428 0.70951 0.97907 0.0
C234 C 0.23048 0.71772 0.00532 0.0
H235 H 0.31338 0.73071 0.94049 0.0
H236 H 0.27286 0.68128 0.97288 0.0
C237 C 0.22038 0.75463 0.01284 0.0
C238 C 0.28722 0.24576 0.51783 0.0
C239 C 0.27666 0.28289 0.5138 0.0
H240 H 0.27221 0.18993 0.50243 0.0
C241 C 0.24159 0.29206 0.49061 0.0
H242 H 0.314 0.23787 0.53569 0.0
C243 C 0.21759 0.2646 0.47169 0.0
C244 C 0.22819 0.22748 0.47567 0.0
H245 H 0.23263 0.32045 0.48712 0.0
H246 H 0.19083 0.27248 0.45377 0.0
C247 C 0.26321 0.21832 0.49896 0.0
C248 C 0.74023 0.71234 0.98794 0.0
C249 C 0.77597 0.72075 0.01021 0.0
H250 H 0.69044 0.73276 0.95036 0.0
C251 C 0.78896 0.75739 0.0114 0.0
H252 H 0.72944 0.68435 0.98658 0.0
C253 C 0.7666 0.78512 0.99071 0.0
C254 C 0.73082 0.77671 0.96854 0.0
H255 H 0.81635 0.76469 0.02843 0.0
H256 H 0.77735 0.81312 0.9921 0.0
C257 C 0.71786 0.74007 0.96733 0.0
C258 C 0.78492 0.26429 0.46284 0.0
C259 C 0.77652 0.22749 0.4736 0.0
H260 H 0.77069 0.32081 0.47486 0.0
C261 C 0.74638 0.21963 0.50565 0.0
H262 H 0.80794 0.27116 0.43822 0.0
C263 C 0.72502 0.24798 0.52652 0.0
C264 C 0.73338 0.28478 0.51578 0.0
H265 H 0.73918 0.19152 0.51459 0.0
H266 H 0.70199 0.24105 0.55111 0.0
C267 C 0.76355 0.29268 0.48376 0.0
C268 C 0.78355 0.23742 0.96477 0.0
C269 C 0.77697 0.27415 0.97754 0.0
H270 H 0.76589 0.18128 0.97276 0.0
C271 C 0.74652 0.28226 0.00909 0.0
H272 H 0.8067 0.23035 0.94041 0.0
C273 C 0.72309 0.25423 0.02748 0.0
C274 C 0.7296 0.2175 0.01467 0.0
H275 H 0.74066 0.31033 0.0195 0.0
H276 H 0.69993 0.26134 0.05181 0.0
C277 C 0.76008 0.20936 0.98315 0.0
C278 C 0.7386 0.78932 0.49083 0.0
C279 C 0.77634 0.78155 0.50819 0.0
H280 H 0.68633 0.76818 0.45874 0.0
C281 C 0.79034 0.7453 0.50628 0.0
H282 H 0.72698 0.81698 0.49198 0.0
C283 C 0.76702 0.71734 0.48738 0.0
C284 C 0.72926 0.7251 0.47008 0.0
H285 H 0.81928 0.73848 0.51953 0.0
H286 H 0.77862 0.68966 0.48626 0.0
C287 C 0.71528 0.76136 0.47195 0.0
C288 C 0.33969 0.00104 0.04153 0.0
C289 C 0.3343 0.03305 0.01503 0.0
H290 H 0.34403 0.9424 0.04134 0.0
C291 C 0.32829 0.02992 0.9667 0.0
H292 H 0.34434 0.00259 0.07886 0.0
C293 C 0.32806 0.99542 0.94521 0.0
C294 C 0.33385 0.96345 0.97167 0.0
H295 H 0.32395 0.05412 0.94542 0.0
H296 H 0.32362 0.99384 0.90785 0.0
C297 C 0.33947 0.96657 0.02006 0.0
C298 C 0.17868 0.97639 0.46519 0.0
C299 C 0.17221 0.97233 0.51329 0.0
H300 H 0.18322 0.01349 0.40758 0.0
C301 C 0.16604 0.00378 0.54075 0.0
H302 H 0.18363 0.95264 0.44317 0.0
C303 C 0.16586 0.03862 0.52039 0.0
C304 C 0.17185 0.04264 0.4722 0.0
H305 H 0.16102 0.00148 0.57794 0.0
H306 H 0.1606 0.06235 0.54234 0.0
C307 C 0.1785 0.01122 0.44483 0.0
C308 C 0.67495 0.96372 0.01529 0.0
C309 C 0.66653 0.96057 0.96748 0.0
H310 H 0.68121 0.9997 0.07403 0.0
C311 C 0.65801 0.99243 0.94184 0.0
H312 H 0.68159 0.93962 0.03593 0.0
C313 C 0.65794 0.02679 0.96358 0.0
C314 C 0.66621 0.02994 0.01142 0.0
H315 H 0.65144 0.99085 0.90492 0.0
H316 H 0.65127 0.05086 0.94292 0.0
C317 C 0.6747 0.99809 0.03709 0.0
C318 C 0.84007 0.03276 0.51681 0.0
C319 C 0.8352 0.03645 0.46841 0.0
H320 H 0.84516 0.99613 0.57468 0.0
C321 C 0.83112 0.00471 0.44086 0.0
H322 H 0.84335 0.05673 0.53893 0.0
C323 C 0.83199 0.9699 0.46141 0.0
C324 C 0.8372 0.96628 0.5098 0.0
H325 H 0.82729 0.00676 0.40344 0.0
H326 H 0.82886 0.94586 0.43941 0.0
C327 C 0.84116 0.99805 0.53727 0.0
C328 C 0.84173 0.46886 0.02379 0.0
C329 C 0.83744 0.46474 0.97534 0.0
H330 H 0.84566 0.50605 0.08145 0.0
C331 C 0.83341 0.49622 0.94748 0.0
H332 H 0.84495 0.4451 0.04614 0.0
C333 C 0.8337 0.53118 0.96774 0.0
C334 C 0.83822 0.53527 0.01618 0.0
H335 H 0.83005 0.49385 0.91002 0.0
H336 H 0.83056 0.55499 0.94546 0.0
C337 C 0.8422 0.50377 0.04399 0.0
C338 C 0.67458 0.50512 0.54372 0.0
C339 C 0.67231 0.47271 0.51716 0.0
H340 H 0.67505 0.564 0.5432 0.0
C341 C 0.6693 0.47522 0.46843 0.0
H342 H 0.67694 0.50399 0.58137 0.0
C343 C 0.66814 0.50945 0.44667 0.0
C344 C 0.67008 0.54189 0.47319 0.0
H345 H 0.66757 0.45072 0.44704 0.0
H346 H 0.66558 0.51048 0.40904 0.0
C347 C 0.67352 0.53944 0.52191 0.0
C348 C 0.19442 0.50432 0.02647 0.0
C349 C 0.1743 0.53358 0.00533 0.0
H350 H 0.20887 0.44707 0.02384 0.0
C351 C 0.15377 0.52726 0.96355 0.0
H352 H 0.21044 0.50839 0.05874 0.0
C353 C 0.15288 0.49226 0.94363 0.0
C354 C 0.1724 0.46283 0.96515 0.0
H355 H 0.13796 0.54928 0.94648 0.0
H356 H 0.1365 0.4882 0.9116 0.0
C357 C 0.19344 0.46922 0.00658 0.0
C358 C 0.3399 0.50323 0.44233 0.0
C359 C 0.3379 0.53544 0.46928 0.0
H360 H 0.34271 0.44445 0.44224 0.0
C361 C 0.33735 0.53265 0.51812 0.0
H362 H 0.34035 0.50457 0.40459 0.0
C363 C 0.33892 0.49831 0.53961 0.0
C364 C 0.34083 0.46608 0.5127 0.0
H365 H 0.33588 0.55701 0.53978 0.0
H366 H 0.3385 0.49702 0.57736 0.0
C367 C 0.34123 0.46884 0.46385 0.0
C368 C 0.52186 0.13252 0.12265 0.0
C369 C 0.54277 0.14561 0.08377 0.0
H370 H 0.46543 0.12211 0.15324 0.0
C371 C 0.52169 0.16 0.04581 0.0
H372 H 0.53728 0.12134 0.15248 0.0
C373 C 0.48049 0.1603 0.04618 0.0
C374 C 0.45959 0.14639 0.0846 0.0
H375 H 0.53698 0.17027 0.01536 0.0
H376 H 0.46504 0.17086 0.01601 0.0
C377 C 0.4807 0.13299 0.1231 0.0
C378 C 0.98586 0.85916 0.61882 0.0
C379 C 0.96494 0.85217 0.57746 0.0
H380 H 0.04232 0.86656 0.65082 0.0
C381 C 0.98599 0.84538 0.53616 0.0
H382 H 0.97043 0.8645 0.65119 0.0
C383 C 0.02712 0.8465 0.53596 0.0
C384 C 0.048 0.85456 0.57702 0.0
H385 H 0.97068 0.83988 0.50373 0.0
H386 H 0.0425 0.8418 0.50341 0.0
C387 C 0.027 0.8604 0.61859 0.0
C388 C 0.48279 0.83718 0.94201 0.0
C389 C 0.46116 0.84122 0.9006 0.0
H390 H 0.53969 0.83507 0.97382 0.0
C391 C 0.48143 0.84406 0.85803 0.0
H392 H 0.46799 0.83483 0.97534 0.0
C393 C 0.52263 0.8444 0.85716 0.0
C394 C 0.54421 0.84172 0.89884 0.0
H395 H 0.4655 0.84726 0.82556 0.0
H396 H 0.53753 0.84774 0.82404 0.0
C397 C 0.52388 0.83733 0.94113 0.0
C398 C 0.01955 0.16467 0.44847 0.0
C399 C 0.04055 0.16369 0.40628 0.0
H400 H 0.96319 0.16374 0.48168 0.0
C401 C 0.01957 0.16363 0.36402 0.0
H402 H 0.03487 0.16488 0.48162 0.0
C403 C 0.97834 0.16299 0.36407 0.0
C404 C 0.95743 0.16238 0.40638 0.0
H405 H 0.03498 0.16287 0.33097 0.0
H406 H 0.96291 0.16175 0.33103 0.0
C407 C 0.97845 0.16401 0.44852 0.0
C408 C 0.02403 0.64197 0.12363 0.0
C409 C 0.04457 0.65177 0.08296 0.0
H410 H 0.96773 0.63367 0.15572 0.0
C411 C 0.02321 0.66303 0.04356 0.0
H412 H 0.03973 0.6332 0.15454 0.0
C413 C 0.98212 0.66322 0.0442 0.0
C414 C 0.96151 0.65223 0.08429 0.0
H415 H 0.03822 0.67082 0.01173 0.0
H416 H 0.96649 0.67119 0.01287 0.0
C417 C 0.98284 0.64224 0.1243 0.0
C418 C 0.52916 0.34187 0.54771 0.0
C419 C 0.54968 0.35573 0.5865 0.0
H420 H 0.47297 0.3308 0.51674 0.0
C421 C 0.52828 0.36753 0.62568 0.0
H422 H 0.54485 0.33255 0.51702 0.0
C423 C 0.48713 0.36638 0.6256 0.0
C424 C 0.46657 0.35356 0.58627 0.0
H425 H 0.5433 0.37826 0.65614 0.0
H426 H 0.47143 0.37634 0.65595 0.0
C427 C 0.488 0.34087 0.54756 0.0
C428 C 0.02441 0.34188 0.95174 0.0
C429 C 0.0443 0.34078 0.9088 0.0
H430 H 0.96886 0.34352 0.98685 0.0
C431 C 0.02226 0.33781 0.86747 0.0
H432 H 0.04057 0.34406 0.98421 0.0
C433 C 0.98106 0.33736 0.86901 0.0
C434 C 0.9612 0.33999 0.9119 0.0
H435 H 0.03678 0.33683 0.83387 0.0
H436 H 0.9648 0.33614 0.83654 0.0
C437 C 0.98331 0.34154 0.95327 0.0
C438 C 0.51932 0.64816 0.35895 0.0
C439 C 0.54005 0.65554 0.40034 0.0
H440 H 0.46294 0.64038 0.32679 0.0
C441 C 0.51885 0.6629 0.44135 0.0
H442 H 0.5349 0.64236 0.32681 0.0
C443 C 0.47776 0.66188 0.44131 0.0
C444 C 0.45702 0.6533 0.4003 0.0
H445 H 0.53403 0.66874 0.47378 0.0
H446 H 0.46228 0.66696 0.4737 0.0
C447 C 0.47816 0.64697 0.35895 0.0
C448 C 0.23968 0.11459 0.20935 0.0
C449 C 0.27114 0.13915 0.20262 0.0
H450 H 0.19259 0.09727 0.25399 0.0
C451 C 0.27879 0.166 0.23663 0.0
H452 H 0.23303 0.09365 0.18363 0.0
C453 C 0.25553 0.16819 0.27668 0.0
C454 C 0.22421 0.14352 0.28358 0.0
H455 H 0.30272 0.1854 0.23229 0.0
H456 H 0.26229 0.1891 0.30241 0.0
C457 C 0.21646 0.11671 0.24952 0.0
C458 C 0.29146 0.88497 0.7433 0.0
C459 C 0.2776 0.8647 0.78156 0.0
H460 H 0.28107 0.90204 0.67289 0.0
C461 C 0.24181 0.84556 0.77762 0.0
H462 H 0.31892 0.90004 0.74545 0.0
C463 C 0.22027 0.8466 0.73621 0.0
C464 C 0.234 0.86693 0.69797 0.0
H465 H 0.23046 0.8296 0.80652 0.0
H466 H 0.19285 0.83144 0.73417 0.0
C467 C 0.26978 0.88615 0.70187 0.0
C468 C 0.74388 0.89398 0.75935 0.0
C469 C 0.73116 0.86044 0.7782 0.0
H470 H 0.77651 0.92087 0.70538 0.0
C471 C 0.74285 0.82748 0.75682 0.0
H472 H 0.73536 0.9198 0.77521 0.0
C473 C 0.76704 0.82808 0.71738 0.0
C474 C 0.77935 0.86166 0.69823 0.0
H475 H 0.73366 0.80123 0.77085 0.0
H476 H 0.77559 0.8023 0.70148 0.0
C477 C 0.76745 0.8946 0.71947 0.0
C478 C 0.73154 0.14431 0.28498 0.0
C479 C 0.77181 0.13557 0.28501 0.0
H480 H 0.67898 0.15045 0.24445 0.0
C481 C 0.78998 0.12549 0.24293 0.0
H482 H 0.71678 0.15224 0.31692 0.0
C483 C 0.76826 0.12415 0.20155 0.0
C484 C 0.72808 0.13324 0.20144 0.0
H485 H 0.82096 0.11856 0.24195 0.0
H486 H 0.78305 0.11634 0.16958 0.0
C487 C 0.70992 0.14335 0.24352 0.0
C488 C 0.74396 0.67458 0.26545 0.0
C489 C 0.72472 0.6426 0.28068 0.0
H490 H 0.78276 0.69862 0.21505 0.0
C491 C 0.72953 0.60985 0.25546 0.0
H492 H 0.74093 0.70013 0.28451 0.0
C493 C 0.75306 0.60908 0.21557 0.0
C494 C 0.77276 0.64089 0.20066 0.0
H495 H 0.71502 0.58481 0.26649 0.0
H496 H 0.75609 0.58347 0.19663 0.0
C497 C 0.76807 0.67365 0.22596 0.0
C498 C 0.77396 0.38011 0.70789 0.0
C499 C 0.73448 0.36858 0.70646 0.0
H500 H 0.82566 0.38767 0.74971 0.0
C501 C 0.71652 0.35606 0.74758 0.0
H502 H 0.78856 0.38986 0.67668 0.0
C503 C 0.73763 0.35508 0.78936 0.0
C504 C 0.77721 0.36629 0.79073 0.0
H505 H 0.68612 0.34704 0.74752 0.0
H506 H 0.72302 0.34522 0.8205 0.0
C507 C 0.7952 0.37882 0.74963 0.0
C508 C 0.2725 0.32902 0.72554 0.0
C509 C 0.27813 0.36208 0.70127 0.0
H510 H 0.24417 0.30203 0.78283 0.0
C511 C 0.25892 0.39394 0.71684 0.0
H512 H 0.28676 0.304 0.71408 0.0
C513 C 0.23486 0.39288 0.75628 0.0
C514 C 0.22906 0.35982 0.78045 0.0
H515 H 0.26269 0.41978 0.69871 0.0
H516 H 0.22074 0.41796 0.7678 0.0
C517 C 0.24792 0.32784 0.76462 0.0
C518 C 0.23985 0.61068 0.27536 0.0
C519 C 0.26941 0.63713 0.28263 0.0
H520 H 0.19522 0.58997 0.22934 0.0
C521 C 0.27595 0.66404 0.24851 0.0
H522 H 0.23415 0.58964 0.30116 0.0
C523 C 0.25348 0.66443 0.20778 0.0
C524 C 0.22424 0.63775 0.20018 0.0
H525 H 0.29841 0.68487 0.25328 0.0
H526 H 0.25938 0.68543 0.18197 0.0
C527 C 0.21755 0.61089 0.23435 0.0
loop_
_geom_bond_atom_site_label_1
_geom_bond_atom_site_label_2
_geom_bond_distance
_geom_bond_site_symmetry_2
_ccdc_geom_bond_type
In0 O1 2.294 . S
In0 O2 2.326 . S
In0 O6 2.266 . S
In0 O7 2.326 . S
In0 O8 2.266 . S
In0 O9 2.326 . S
In0 O11 2.294 . S
In0 O12 2.326 . S
O1 In0 2.294 . S
O1 C10 1.240 . S
O2 In0 2.326 . S
O2 C10 1.252 . S
C3 O6 1.252 . S
C3 O7 1.260 . S
C4 O11 1.240 . S
C4 O12 1.252 . S
C5 O8 1.252 . S
C5 O9 1.260 . S
O6 In0 2.266 . S
O6 C3 1.252 . S
O7 In0 2.326 . S
O7 C3 1.260 . S
O8 In0 2.266 . S
O8 C5 1.252 . S
O9 In0 2.326 . S
O9 C5 1.260 . S
C10 O1 1.240 . S
C10 O2 1.252 . S
O11 In0 2.294 . S
O11 C4 1.240 . S
O12 In0 2.326 . S
O12 C4 1.252 . S
In13 O14 2.294 . S
In13 O15 2.326 . S
In13 O19 2.266 . S
In13 O20 2.326 . S
In13 O21 2.266 . S
In13 O22 2.326 . S
In13 O24 2.294 . S
In13 O25 2.326 . S
O14 In13 2.294 . S
O14 C23 1.240 . S
O15 In13 2.326 . S
O15 C23 1.252 . S
C16 O19 1.252 . S
C16 O20 1.260 . S
C17 O24 1.240 . S
C17 O25 1.252 . S
C18 O21 1.252 . S
C18 O22 1.260 . S
O19 In13 2.266 . S
O19 C16 1.252 . S
O20 In13 2.326 . S
O20 C16 1.260 . S
O21 In13 2.266 . S
O21 C18 1.252 . S
O22 In13 2.326 . S
O22 C18 1.260 . S
C23 O14 1.240 . S
C23 O15 1.252 . S
O24 In13 2.294 . S
O24 C17 1.240 . S
O25 In13 2.326 . S
O25 C17 1.252 . S
In26 O27 2.294 . S
In26 O28 2.326 . S
In26 O32 2.266 . S
In26 O33 2.326 . S
In26 O34 2.266 . S
In26 O35 2.326 . S
In26 O37 2.294 . S
In26 O38 2.326 . S
O27 In26 2.294 . S
O27 C36 1.240 . S
O28 In26 2.326 . S
O28 C36 1.252 . S
C29 O32 1.252 . S
C29 O33 1.260 . S
C30 O37 1.240 . S
C30 O38 1.252 . S
C31 O34 1.252 . S
C31 O35 1.260 . S
O32 In26 2.266 . S
O32 C29 1.252 . S
O33 In26 2.326 . S
O33 C29 1.260 . S
O34 In26 2.266 . S
O34 C31 1.252 . S
O35 In26 2.326 . S
O35 C31 1.260 . S
C36 O27 1.240 . S
C36 O28 1.252 . S
O37 In26 2.294 . S
O37 C30 1.240 . S
O38 In26 2.326 . S
O38 C30 1.252 . S
In39 O40 2.294 . S
In39 O41 2.326 . S
In39 O45 2.266 . S
In39 O46 2.326 . S
In39 O47 2.266 . S
In39 O48 2.326 . S
In39 O50 2.294 . S
In39 O51 2.326 . S
O40 In39 2.294 . S
O40 C49 1.240 . S
O41 In39 2.326 . S
O41 C49 1.252 . S
C42 O45 1.252 . S
C42 O46 1.260 . S
C43 O50 1.240 . S
C43 O51 1.252 . S
C44 O47 1.252 . S
C44 O48 1.260 . S
O45 In39 2.266 . S
O45 C42 1.252 . S
O46 In39 2.326 . S
O46 C42 1.260 . S
O47 In39 2.266 . S
O47 C44 1.252 . S
O48 In39 2.326 . S
O48 C44 1.260 . S
C49 O40 1.240 . S
C49 O41 1.252 . S
O50 In39 2.294 . S
O50 C43 1.240 . S
O51 In39 2.326 . S
O51 C43 1.252 . S
In52 O53 2.294 . S
In52 O54 2.326 . S
In52 O58 2.266 . S
In52 O59 2.326 . S
In52 O60 2.266 . S
In52 O61 2.326 . S
In52 O63 2.294 . S
In52 O64 2.326 . S
O53 In52 2.294 . S
O53 C62 1.240 . S
O54 In52 2.326 . S
O54 C62 1.252 . S
C55 O58 1.252 . S
C55 O59 1.260 . S
C56 O63 1.240 . S
C56 O64 1.252 . S
C57 O60 1.252 . S
C57 O61 1.260 . S
O58 In52 2.266 . S
O58 C55 1.252 . S
O59 In52 2.326 . S
O59 C55 1.260 . S
O60 In52 2.266 . S
O60 C57 1.252 . S
O61 In52 2.326 . S
O61 C57 1.260 . S
C62 O53 1.240 . S
C62 O54 1.252 . S
O63 In52 2.294 . S
O63 C56 1.240 . S
O64 In52 2.326 . S
O64 C56 1.252 . S
In65 O66 2.294 . S
In65 O67 2.326 . S
In65 O71 2.266 . S
In65 O72 2.326 . S
In65 O73 2.266 . S
In65 O74 2.326 . S
In65 O76 2.294 . S
In65 O77 2.326 . S
O66 In65 2.294 . S
O66 C75 1.240 . S
O67 In65 2.326 . S
O67 C75 1.252 . S
C68 O71 1.252 . S
C68 O72 1.260 . S
C69 O76 1.240 . S
C69 O77 1.252 . S
C70 O73 1.252 . S
C70 O74 1.260 . S
O71 In65 2.266 . S
O71 C68 1.252 . S
O72 In65 2.326 . S
O72 C68 1.260 . S
O73 In65 2.266 . S
O73 C70 1.252 . S
O74 In65 2.326 . S
O74 C70 1.260 . S
C75 O66 1.240 . S
C75 O67 1.252 . S
O76 In65 2.294 . S
O76 C69 1.240 . S
O77 In65 2.326 . S
O77 C69 1.252 . S
In78 O79 2.294 . S
In78 O80 2.326 . S
In78 O84 2.266 . S
In78 O85 2.326 . S
In78 O86 2.266 . S
In78 O87 2.326 . S
In78 O89 2.294 . S
In78 O90 2.326 . S
O79 In78 2.294 . S
O79 C88 1.240 . S
O80 In78 2.326 . S
O80 C88 1.252 . S
C81 O84 1.252 . S
C81 O85 1.260 . S
C82 O89 1.240 . S
C82 O90 1.252 . S
C83 O86 1.252 . S
C83 O87 1.260 . S
O84 In78 2.266 . S
O84 C81 1.252 . S
O85 In78 2.326 . S
O85 C81 1.260 . S
O86 In78 2.266 . S
O86 C83 1.252 . S
O87 In78 2.326 . S
O87 C83 1.260 . S
C88 O79 1.240 . S
C88 O80 1.252 . S
O89 In78 2.294 . S
O89 C82 1.240 . S
O90 In78 2.326 . S
O90 C82 1.252 . S
In91 O92 2.294 . S
In91 O93 2.326 . S
In91 O97 2.266 . S
In91 O98 2.326 . S
In91 O99 2.266 . S
In91 O100 2.326 . S
In91 O102 2.294 . S
In91 O103 2.326 . S
O92 In91 2.294 . S
O92 C101 1.240 . S
O93 In91 2.326 . S
O93 C101 1.252 . S
C94 O97 1.252 . S
C94 O98 1.260 . S
C95 O102 1.240 . S
C95 O103 1.252 . S
C96 O99 1.252 . S
C96 O100 1.260 . S
O97 In91 2.266 . S
O97 C94 1.252 . S
O98 In91 2.326 . S
O98 C94 1.260 . S
O99 In91 2.266 . S
O99 C96 1.252 . S
O100 In91 2.326 . S
O100 C96 1.260 . S
C101 O92 1.240 . S
C101 O93 1.252 . S
O102 In91 2.294 . S
O102 C95 1.240 . S
O103 In91 2.326 . S
O103 C95 1.252 . S
In104 O105 2.294 . S
In104 O106 2.326 . S
In104 O110 2.266 . S
In104 O111 2.326 . S
In104 O112 2.266 . S
In104 O113 2.326 . S
In104 O115 2.294 . S
In104 O116 2.326 . S
O105 In104 2.294 . S
O105 C114 1.240 . S
O106 In104 2.326 . S
O106 C114 1.252 . S
C107 O110 1.252 . S
C107 O111 1.260 . S
C108 O115 1.240 . S
C108 O116 1.252 . S
C109 O112 1.252 . S
C109 O113 1.260 . S
O110 In104 2.266 . S
O110 C107 1.252 . S
O111 In104 2.326 . S
O111 C107 1.260 . S
O112 In104 2.266 . S
O112 C109 1.252 . S
O113 In104 2.326 . S
O113 C109 1.260 . S
C114 O105 1.240 . S
C114 O106 1.252 . S
O115 In104 2.294 . S
O115 C108 1.240 . S
O116 In104 2.326 . S
O116 C108 1.252 . S
In117 O118 2.294 . S
In117 O119 2.326 . S
In117 O123 2.266 . S
In117 O124 2.326 . S
In117 O125 2.266 . S
In117 O126 2.326 . S
In117 O128 2.294 . S
In117 O129 2.326 . S
O118 In117 2.294 . S
O118 C127 1.240 . S
O119 In117 2.326 . S
O119 C127 1.252 . S
C120 O123 1.252 . S
C120 O124 1.260 . S
C121 O128 1.240 . S
C121 O129 1.252 . S
C122 O125 1.252 . S
C122 O126 1.260 . S
O123 In117 2.266 . S
O123 C120 1.252 . S
O124 In117 2.326 . S
O124 C120 1.260 . S
O125 In117 2.266 . S
O125 C122 1.252 . S
O126 In117 2.326 . S
O126 C122 1.260 . S
C127 O118 1.240 . S
C127 O119 1.252 . S
O128 In117 2.294 . S
O128 C121 1.240 . S
O129 In117 2.326 . S
O129 C121 1.252 . S
In130 O131 2.294 . S
In130 O132 2.326 . S
In130 O136 2.266 . S
In130 O137 2.326 . S
In130 O138 2.266 . S
In130 O139 2.326 . S
In130 O141 2.294 . S
In130 O142 2.326 . S
O131 In130 2.294 . S
O131 C140 1.240 . S
O132 In130 2.326 . S
O132 C140 1.252 . S
C133 O136 1.252 . S
C133 O137 1.260 . S
C134 O141 1.240 . S
C134 O142 1.252 . S
C135 O138 1.252 . S
C135 O139 1.260 . S
O136 In130 2.266 . S
O136 C133 1.252 . S
O137 In130 2.326 . S
O137 C133 1.260 . S
O138 In130 2.266 . S
O138 C135 1.252 . S
O139 In130 2.326 . S
O139 C135 1.260 . S
C140 O131 1.240 . S
C140 O132 1.252 . S
O141 In130 2.294 . S
O141 C134 1.240 . S
O142 In130 2.326 . S
O142 C134 1.252 . S
In143 O144 2.294 . S
In143 O145 2.326 . S
In143 O149 2.266 . S
In143 O150 2.326 . S
In143 O151 2.266 . S
In143 O152 2.326 . S
In143 O154 2.294 . S
In143 O155 2.326 . S
O144 In143 2.294 . S
O144 C153 1.240 . S
O145 In143 2.326 . S
O145 C153 1.252 . S
C146 O149 1.252 . S
C146 O150 1.260 . S
C147 O154 1.240 . S
C147 O155 1.252 . S
C148 O151 1.252 . S
C148 O152 1.260 . S
O149 In143 2.266 . S
O149 C146 1.252 . S
O150 In143 2.326 . S
O150 C146 1.260 . S
O151 In143 2.266 . S
O151 C148 1.252 . S
O152 In143 2.326 . S
O152 C148 1.260 . S
C153 O144 1.240 . S
C153 O145 1.252 . S
O154 In143 2.294 . S
O154 C147 1.240 . S
O155 In143 2.326 . S
O155 C147 1.252 . S
In156 O157 2.294 . S
In156 O158 2.326 . S
In156 O162 2.266 . S
In156 O163 2.326 . S
In156 O164 2.266 . S
In156 O165 2.326 . S
In156 O167 2.294 . S
In156 O168 2.326 . S
O157 In156 2.294 . S
O157 C166 1.240 . S
O158 In156 2.326 . S
O158 C166 1.252 . S
C159 O162 1.252 . S
C159 O163 1.260 . S
C160 O167 1.240 . S
C160 O168 1.252 . S
C161 O164 1.252 . S
C161 O165 1.260 . S
O162 In156 2.266 . S
O162 C159 1.252 . S
O163 In156 2.326 . S
O163 C159 1.260 . S
O164 In156 2.266 . S
O164 C161 1.252 . S
O165 In156 2.326 . S
O165 C161 1.260 . S
C166 O157 1.240 . S
C166 O158 1.252 . S
O167 In156 2.294 . S
O167 C160 1.240 . S
O168 In156 2.326 . S
O168 C160 1.252 . S
In169 O170 2.294 . S
In169 O171 2.326 . S
In169 O175 2.266 . S
In169 O176 2.326 . S
In169 O177 2.266 . S
In169 O178 2.326 . S
In169 O180 2.294 . S
In169 O181 2.326 . S
O170 In169 2.294 . S
O170 C179 1.240 . S
O171 In169 2.326 . S
O171 C179 1.252 . S
C172 O175 1.252 . S
C172 O176 1.260 . S
C173 O180 1.240 . S
C173 O181 1.252 . S
C174 O177 1.252 . S
C174 O178 1.260 . S
O175 In169 2.266 . S
O175 C172 1.252 . S
O176 In169 2.326 . S
O176 C172 1.260 . S
O177 In169 2.266 . S
O177 C174 1.252 . S
O178 In169 2.326 . S
O178 C174 1.260 . S
C179 O170 1.240 . S
C179 O171 1.252 . S
O180 In169 2.294 . S
O180 C173 1.240 . S
O181 In169 2.326 . S
O181 C173 1.252 . S
In182 O183 2.294 . S
In182 O184 2.326 . S
In182 O188 2.266 . S
In182 O189 2.326 . S
In182 O190 2.266 . S
In182 O191 2.326 . S
In182 O193 2.294 . S
In182 O194 2.326 . S
O183 In182 2.294 . S
O183 C192 1.240 . S
O184 In182 2.326 . S
O184 C192 1.252 . S
C185 O188 1.252 . S
C185 O189 1.260 . S
C186 O193 1.240 . S
C186 O194 1.252 . S
C187 O190 1.252 . S
C187 O191 1.260 . S
O188 In182 2.266 . S
O188 C185 1.252 . S
O189 In182 2.326 . S
O189 C185 1.260 . S
O190 In182 2.266 . S
O190 C187 1.252 . S
O191 In182 2.326 . S
O191 C187 1.260 . S
C192 O183 1.240 . S
C192 O184 1.252 . S
O193 In182 2.294 . S
O193 C186 1.240 . S
O194 In182 2.326 . S
O194 C186 1.252 . S
In195 O196 2.294 . S
In195 O197 2.326 . S
In195 O201 2.266 . S
In195 O202 2.326 . S
In195 O203 2.266 . S
In195 O204 2.326 . S
In195 O206 2.294 . S
In195 O207 2.326 . S
O196 In195 2.294 . S
O196 C205 1.240 . S
O197 In195 2.326 . S
O197 C205 1.252 . S
C198 O201 1.252 . S
C198 O202 1.260 . S
C199 O206 1.240 . S
C199 O207 1.252 . S
C200 O203 1.252 . S
C200 O204 1.260 . S
O201 In195 2.266 . S
O201 C198 1.252 . S
O202 In195 2.326 . S
O202 C198 1.260 . S
O203 In195 2.266 . S
O203 C200 1.252 . S
O204 In195 2.326 . S
O204 C200 1.260 . S
C205 O196 1.240 . S
C205 O197 1.252 . S
O206 In195 2.294 . S
O206 C199 1.240 . S
O207 In195 2.326 . S
O207 C199 1.252 . S
C208 C209 1.387 1_556 S
C208 H212 0.950 . S
C208 C217 1.390 . S
C209 C208 1.387 1_554 S
C209 C211 1.387 . S
H210 C217 0.950 . S
C211 C209 1.387 . S
C211 C213 1.390 . S
C211 H215 0.950 . S
H212 C208 0.950 . S
C213 C211 1.390 . S
C213 C214 1.387 1_554 S
C213 H216 0.950 . S
C214 C213 1.387 1_556 S
C214 C217 1.387 . S
H215 C211 0.950 . S
H216 C213 0.950 . S
C217 C208 1.390 . S
C217 H210 0.950 . S
C217 C214 1.387 . S
C218 C219 1.387 . S
C218 H222 0.950 . S
C218 C227 1.390 . S
C219 C218 1.387 . S
C219 C221 1.387 . S
H220 C227 0.950 . S
C221 C219 1.387 . S
C221 C223 1.390 . S
C221 H225 0.950 . S
H222 C218 0.950 . S
C223 C221 1.390 . S
C223 C224 1.387 . S
C223 H226 0.950 . S
C224 C223 1.387 . S
C224 C227 1.387 . S
H225 C221 0.950 . S
H226 C223 0.950 . S
C227 C218 1.390 . S
C227 H220 0.950 . S
C227 C224 1.387 . S
C228 C229 1.387 1_554 S
C228 H232 0.950 . S
C228 C237 1.390 . S
C229 C228 1.387 1_556 S
C229 C231 1.387 . S
H230 C237 0.950 . S
C231 C229 1.387 . S
C231 C233 1.390 1_556 S
C231 H235 0.950 . S
H232 C228 0.950 . S
C233 C231 1.390 1_554 S
C233 C234 1.387 . S
C233 H236 0.950 1_554 S
C234 C233 1.387 . S
C234 C237 1.387 . S
H235 C231 0.950 . S
H236 C233 0.950 1_556 S
C237 C228 1.390 . S
C237 H230 0.950 . S
C237 C234 1.387 . S
C238 C239 1.387 . S
C238 H242 0.950 . S
C238 C247 1.390 . S
C239 C238 1.387 . S
C239 C241 1.387 . S
H240 C247 0.950 . S
C241 C239 1.387 . S
C241 C243 1.390 . S
C241 H245 0.950 . S
H242 C238 0.950 . S
C243 C241 1.390 . S
C243 C244 1.387 . S
C243 H246 0.950 . S
C244 C243 1.387 . S
C244 C247 1.387 . S
H245 C241 0.950 . S
H246 C243 0.950 . S
C247 C238 1.390 . S
C247 H240 0.950 . S
C247 C244 1.387 . S
C248 C249 1.387 . S
C248 H252 0.950 . S
C248 C257 1.390 . S
C249 C248 1.387 . S
C249 C251 1.387 1_554 S
H250 C257 0.950 . S
C251 C249 1.387 1_556 S
C251 C253 1.390 . S
C251 H255 0.950 . S
H252 C248 0.950 . S
C253 C251 1.390 . S
C253 C254 1.387 . S
C253 H256 0.950 . S
C254 C253 1.387 . S
C254 C257 1.387 1_556 S
H255 C251 0.950 . S
H256 C253 0.950 . S
C257 C248 1.390 . S
C257 H250 0.950 . S
C257 C254 1.387 1_554 S
C258 C259 1.387 . S
C258 H262 0.950 . S
C258 C267 1.390 . S
C259 C258 1.387 . S
C259 C261 1.387 . S
H260 C267 0.950 . S
C261 C259 1.387 . S
C261 C263 1.390 . S
C261 H265 0.950 . S
H262 C258 0.950 . S
C263 C261 1.390 . S
C263 C264 1.387 . S
C263 H266 0.950 . S
C264 C263 1.387 . S
C264 C267 1.387 . S
H265 C261 0.950 . S
H266 C263 0.950 . S
C267 C258 1.390 . S
C267 H260 0.950 . S
C267 C264 1.387 . S
C268 C269 1.387 . S
C268 H272 0.950 . S
C268 C277 1.390 . S
C269 C268 1.387 . S
C269 C271 1.387 1_556 S
H270 C277 0.950 . S
C271 C269 1.387 1_554 S
C271 C273 1.390 . S
C271 H275 0.950 . S
H272 C268 0.950 . S
C273 C271 1.390 . S
C273 C274 1.387 . S
C273 H276 0.950 . S
C274 C273 1.387 . S
C274 C277 1.387 1_554 S
H275 C271 0.950 . S
H276 C273 0.950 . S
C277 C268 1.390 . S
C277 H270 0.950 . S
C277 C274 1.387 1_556 S
C278 C279 1.387 . S
C278 H282 0.950 . S
C278 C287 1.390 . S
C279 C278 1.387 . S
C279 C281 1.387 . S
H280 C287 0.950 . S
C281 C279 1.387 . S
C281 C283 1.390 . S
C281 H285 0.950 . S
H282 C278 0.950 . S
C283 C281 1.390 . S
C283 C284 1.387 . S
C283 H286 0.950 . S
C284 C283 1.387 . S
C284 C287 1.387 . S
H285 C281 0.950 . S
H286 C283 0.950 . S
C287 C278 1.390 . S
C287 H280 0.950 . S
C287 C284 1.387 . S
C288 C289 1.387 . S
C288 H292 0.950 . S
C288 C297 1.390 1_544 S
C289 C288 1.387 . S
C289 C291 1.387 . S
H290 C297 0.950 . S
C291 C289 1.387 . S
C291 C293 1.390 1_544 S
C291 H295 0.950 . S
H292 C288 0.950 . S
C293 C291 1.390 1_566 S
C293 C294 1.387 . S
C293 H296 0.950 . S
C294 C293 1.387 . S
C294 C297 1.387 . S
H295 C291 0.950 . S
H296 C293 0.950 . S
C297 C288 1.390 1_566 S
C297 H290 0.950 . S
C297 C294 1.387 . S
C298 C299 1.387 . S
C298 H302 0.950 . S
C298 C307 1.390 1_565 S
C299 C298 1.387 . S
C299 C301 1.387 . S
H300 C307 0.950 . S
C301 C299 1.387 . S
C301 C303 1.390 1_565 S
C301 H305 0.950 . S
H302 C298 0.950 . S
C303 C301 1.390 1_545 S
C303 C304 1.387 . S
C303 H306 0.950 . S
C304 C303 1.387 . S
C304 C307 1.387 . S
H305 C301 0.950 . S
H306 C303 0.950 . S
C307 C298 1.390 1_545 S
C307 H300 0.950 . S
C307 C304 1.387 . S
C308 C309 1.387 . S
C308 H312 0.950 . S
C308 C317 1.390 1_566 S
C309 C308 1.387 . S
C309 C311 1.387 . S
H310 C317 0.950 . S
C311 C309 1.387 . S
C311 C313 1.390 1_566 S
C311 H315 0.950 . S
H312 C308 0.950 . S
C313 C311 1.390 1_544 S
C313 C314 1.387 . S
C313 H316 0.950 . S
C314 C313 1.387 . S
C314 C317 1.387 . S
H315 C311 0.950 . S
H316 C313 0.950 . S
C317 C308 1.390 1_544 S
C317 H310 0.950 . S
C317 C314 1.387 . S
C318 C319 1.387 . S
C318 H322 0.950 . S
C318 C327 1.390 1_545 S
C319 C318 1.387 . S
C319 C321 1.387 . S
H320 C327 0.950 . S
C321 C319 1.387 . S
C321 C323 1.390 1_545 S
C321 H325 0.950 . S
H322 C318 0.950 . S
C323 C321 1.390 1_565 S
C323 C324 1.387 . S
C323 H326 0.950 . S
C324 C323 1.387 . S
C324 C327 1.387 . S
H325 C321 0.950 . S
H326 C323 0.950 . S
C327 C318 1.390 1_565 S
C327 H320 0.950 . S
C327 C324 1.387 . S
C328 C329 1.387 . S
C328 H332 0.950 . S
C328 C337 1.390 1_556 S
C329 C328 1.387 . S
C329 C331 1.387 . S
H330 C337 0.950 . S
C331 C329 1.387 . S
C331 C333 1.390 1_556 S
C331 H335 0.950 . S
H332 C328 0.950 . S
C333 C331 1.390 1_554 S
C333 C334 1.387 . S
C333 H336 0.950 . S
C334 C333 1.387 . S
C334 C337 1.387 . S
H335 C331 0.950 . S
H336 C333 0.950 . S
C337 C328 1.390 1_554 S
C337 H330 0.950 . S
C337 C334 1.387 . S
C338 C339 1.387 . S
C338 H342 0.950 . S
C338 C347 1.390 . S
C339 C338 1.387 . S
C339 C341 1.387 . S
H340 C347 0.950 . S
C341 C339 1.387 . S
C341 C343 1.390 . S
C341 H345 0.950 . S
H342 C338 0.950 . S
C343 C341 1.390 . S
C343 C344 1.387 . S
C343 H346 0.950 . S
C344 C343 1.387 . S
C344 C347 1.387 . S
H345 C341 0.950 . S
H346 C343 0.950 . S
C347 C338 1.390 . S
C347 H340 0.950 . S
C347 C344 1.387 . S
C348 C349 1.387 . S
C348 H352 0.950 . S
C348 C357 1.390 1_554 S
C349 C348 1.387 . S
C349 C351 1.387 . S
H350 C357 0.950 . S
C351 C349 1.387 . S
C351 C353 1.390 1_554 S
C351 H355 0.950 . S
H352 C348 0.950 . S
C353 C351 1.390 1_556 S
C353 C354 1.387 . S
C353 H356 0.950 . S
C354 C353 1.387 . S
C354 C357 1.387 . S
H355 C351 0.950 . S
H356 C353 0.950 . S
C357 C348 1.390 1_556 S
C357 H350 0.950 . S
C357 C354 1.387 . S
C358 C359 1.387 . S
C358 H362 0.950 . S
C358 C367 1.390 . S
C359 C358 1.387 . S
C359 C361 1.387 . S
H360 C367 0.950 . S
C361 C359 1.387 . S
C361 C363 1.390 . S
C361 H365 0.950 . S
H362 C358 0.950 . S
C363 C361 1.390 . S
C363 C364 1.387 . S
C363 H366 0.950 . S
C364 C363 1.387 . S
C364 C367 1.387 . S
H365 C361 0.950 . S
H366 C363 0.950 . S
C367 C358 1.390 . S
C367 H360 0.950 . S
C367 C364 1.387 . S
C368 C369 1.387 . S
C368 H372 0.950 . S
C368 C377 1.390 . S
C369 C368 1.387 . S
C369 C371 1.387 . S
H370 C377 0.950 . S
C371 C369 1.387 . S
C371 C373 1.390 . S
C371 H375 0.950 . S
H372 C368 0.950 . S
C373 C371 1.390 . S
C373 C374 1.387 . S
C373 H376 0.950 . S
C374 C373 1.387 . S
C374 C377 1.387 . S
H375 C371 0.950 . S
H376 C373 0.950 . S
C377 C368 1.390 . S
C377 H370 0.950 . S
C377 C374 1.387 . S
C378 C379 1.387 . S
C378 H382 0.950 . S
C378 C387 1.390 1_655 S
C379 C378 1.387 . S
C379 C381 1.387 . S
H380 C387 0.950 . S
C381 C379 1.387 . S
C381 C383 1.390 1_655 S
C381 H385 0.950 . S
H382 C378 0.950 . S
C383 C381 1.390 1_455 S
C383 C384 1.387 . S
C383 H386 0.950 . S
C384 C383 1.387 . S
C384 C387 1.387 . S
H385 C381 0.950 . S
H386 C383 0.950 . S
C387 C378 1.390 1_455 S
C387 H380 0.950 . S
C387 C384 1.387 . S
C388 C389 1.387 . S
C388 H392 0.950 . S
C388 C397 1.390 . S
C389 C388 1.387 . S
C389 C391 1.387 . S
H390 C397 0.950 . S
C391 C389 1.387 . S
C391 C393 1.390 . S
C391 H395 0.950 . S
H392 C388 0.950 . S
C393 C391 1.390 . S
C393 C394 1.387 . S
C393 H396 0.950 . S
C394 C393 1.387 . S
C394 C397 1.387 . S
H395 C391 0.950 . S
H396 C393 0.950 . S
C397 C388 1.390 . S
C397 H390 0.950 . S
C397 C394 1.387 . S
C398 C399 1.387 . S
C398 H402 0.950 . S
C398 C407 1.390 1_455 S
C399 C398 1.387 . S
C399 C401 1.387 . S
H400 C407 0.950 . S
C401 C399 1.387 . S
C401 C403 1.390 1_455 S
C401 H405 0.950 . S
H402 C398 0.950 . S
C403 C401 1.390 1_655 S
C403 C404 1.387 . S
C403 H406 0.950 . S
C404 C403 1.387 . S
C404 C407 1.387 . S
H405 C401 0.950 . S
H406 C403 0.950 . S
C407 C398 1.390 1_655 S
C407 H400 0.950 . S
C407 C404 1.387 . S
C408 C409 1.387 . S
C408 H412 0.950 . S
C408 C417 1.390 1_455 S
C409 C408 1.387 . S
C409 C411 1.387 . S
H410 C417 0.950 . S
C411 C409 1.387 . S
C411 C413 1.390 1_455 S
C411 H415 0.950 . S
H412 C408 0.950 . S
C413 C411 1.390 1_655 S
C413 C414 1.387 . S
C413 H416 0.950 . S
C414 C413 1.387 . S
C414 C417 1.387 . S
H415 C411 0.950 . S
H416 C413 0.950 . S
C417 C408 1.390 1_655 S
C417 H410 0.950 . S
C417 C414 1.387 . S
C418 C419 1.387 . S
C418 H422 0.950 . S
C418 C427 1.390 . S
C419 C418 1.387 . S
C419 C421 1.387 . S
H420 C427 0.950 . S
C421 C419 1.387 . S
C421 C423 1.390 . S
C421 H425 0.950 . S
H422 C418 0.950 . S
C423 C421 1.390 . S
C423 C424 1.387 . S
C423 H426 0.950 . S
C424 C423 1.387 . S
C424 C427 1.387 . S
H425 C421 0.950 . S
H426 C423 0.950 . S
C427 C418 1.390 . S
C427 H420 0.950 . S
C427 C424 1.387 . S
C428 C429 1.387 . S
C428 H432 0.950 . S
C428 C437 1.390 1_455 S
C429 C428 1.387 . S
C429 C431 1.387 . S
H430 C437 0.950 . S
C431 C429 1.387 . S
C431 C433 1.390 1_455 S
C431 H435 0.950 . S
H432 C428 0.950 . S
C433 C431 1.390 1_655 S
C433 C434 1.387 . S
C433 H436 0.950 . S
C434 C433 1.387 . S
C434 C437 1.387 . S
H435 C431 0.950 . S
H436 C433 0.950 . S
C437 C428 1.390 1_655 S
C437 H430 0.950 . S
C437 C434 1.387 . S
C438 C439 1.387 . S
C438 H442 0.950 . S
C438 C447 1.390 . S
C439 C438 1.387 . S
C439 C441 1.387 . S
H440 C447 0.950 . S
C441 C439 1.387 . S
C441 C443 1.390 . S
C441 H445 0.950 . S
H442 C438 0.950 . S
C443 C441 1.390 . S
C443 C444 1.387 . S
C443 H446 0.950 . S
C444 C443 1.387 . S
C444 C447 1.387 . S
H445 C441 0.950 . S
H446 C443 0.950 . S
C447 C438 1.390 . S
C447 H440 0.950 . S
C447 C444 1.387 . S
C448 C449 1.387 . S
C448 H452 0.950 . S
C448 C457 1.390 . S
C449 C448 1.387 . S
C449 C451 1.387 . S
H450 C457 0.950 . S
C451 C449 1.387 . S
C451 C453 1.390 . S
C451 H455 0.950 . S
H452 C448 0.950 . S
C453 C451 1.390 . S
C453 C454 1.387 . S
C453 H456 0.950 . S
C454 C453 1.387 . S
C454 C457 1.387 . S
H455 C451 0.950 . S
H456 C453 0.950 . S
C457 C448 1.390 . S
C457 H450 0.950 . S
C457 C454 1.387 . S
C458 C459 1.387 . S
C458 H462 0.950 . S
C458 C467 1.390 . S
C459 C458 1.387 . S
C459 C461 1.387 . S
H460 C467 0.950 . S
C461 C459 1.387 . S
C461 C463 1.390 . S
C461 H465 0.950 . S
H462 C458 0.950 . S
C463 C461 1.390 . S
C463 C464 1.387 . S
C463 H466 0.950 . S
C464 C463 1.387 . S
C464 C467 1.387 . S
H465 C461 0.950 . S
H466 C463 0.950 . S
C467 C458 1.390 . S
C467 H460 0.950 . S
C467 C464 1.387 . S
C468 C469 1.387 . S
C468 H472 0.950 . S
C468 C477 1.390 . S
C469 C468 1.387 . S
C469 C471 1.387 . S
H470 C477 0.950 . S
C471 C469 1.387 . S
C471 C473 1.390 . S
C471 H475 0.950 . S
H472 C468 0.950 . S
C473 C471 1.390 . S
C473 C474 1.387 . S
C473 H476 0.950 . S
C474 C473 1.387 . S
C474 C477 1.387 . S
H475 C471 0.950 . S
H476 C473 0.950 . S
C477 C468 1.390 . S
C477 H470 0.950 . S
C477 C474 1.387 . S
C478 C479 1.387 . S
C478 H482 0.950 . S
C478 C487 1.390 . S
C479 C478 1.387 . S
C479 C481 1.387 . S
H480 C487 0.950 . S
C481 C479 1.387 . S
C481 C483 1.390 . S
C481 H485 0.950 . S
H482 C478 0.950 . S
C483 C481 1.390 . S
C483 C484 1.387 . S
C483 H486 0.950 . S
C484 C483 1.387 . S
C484 C487 1.387 . S
H485 C481 0.950 . S
H486 C483 0.950 . S
C487 C478 1.390 . S
C487 H480 0.950 . S
C487 C484 1.387 . S
C488 C489 1.387 . S
C488 H492 0.950 . S
C488 C497 1.390 . S
C489 C488 1.387 . S
C489 C491 1.387 . S
H490 C497 0.950 . S
C491 C489 1.387 . S
C491 C493 1.390 . S
C491 H495 0.950 . S
H492 C488 0.950 . S
C493 C491 1.390 . S
C493 C494 1.387 . S
C493 H496 0.950 . S
C494 C493 1.387 . S
C494 C497 1.387 . S
H495 C491 0.950 . S
H496 C493 0.950 . S
C497 C488 1.390 . S
C497 H490 0.950 . S
C497 C494 1.387 . S
C498 C499 1.387 . S
C498 H502 0.950 . S
C498 C507 1.390 . S
C499 C498 1.387 . S
C499 C501 1.387 . S
H500 C507 0.950 . S
C501 C499 1.387 . S
C501 C503 1.390 . S
C501 H505 0.950 . S
H502 C498 0.950 . S
C503 C501 1.390 . S
C503 C504 1.387 . S
C503 H506 0.950 . S
C504 C503 1.387 . S
C504 C507 1.387 . S
H505 C501 0.950 . S
H506 C503 0.950 . S
C507 C498 1.390 . S
C507 H500 0.950 . S
C507 C504 1.387 . S
C508 C509 1.387 . S
C508 H512 0.950 . S
C508 C517 1.390 . S
C509 C508 1.387 . S
C509 C511 1.387 . S
H510 C517 0.950 . S
C511 C509 1.387 . S
C511 C513 1.390 . S
C511 H515 0.950 . S
H512 C508 0.950 . S
C513 C511 1.390 . S
C513 C514 1.387 . S
C513 H516 0.950 . S
C514 C513 1.387 . S
C514 C517 1.387 . S
H515 C511 0.950 . S
H516 C513 0.950 . S
C517 C508 1.390 . S
C517 H510 0.950 . S
C517 C514 1.387 . S
C518 C519 1.387 . S
C518 H522 0.950 . S
C518 C527 1.390 . S
C519 C518 1.387 . S
C519 C521 1.387 . S
H520 C527 0.950 . S
C521 C519 1.387 . S
C521 C523 1.390 . S
C521 H525 0.950 . S
H522 C518 0.950 . S
C523 C521 1.390 . S
C523 C524 1.387 . S
C523 H526 0.950 . S
C524 C523 1.387 . S
C524 C527 1.387 . S
H525 C521 0.950 . S
H526 C523 0.950 . S
C527 C518 1.390 . S
C527 H520 0.950 . S
C527 C524 1.387 . S
C209 C4 1.609 . S
C214 C166 1.597 . S
C219 C173 1.596 . S
C224 C23 1.610 . S
C229 C36 1.609 . S
C234 C192 1.597 . S
C239 C199 1.597 . S
C244 C43 1.609 . S
C249 C108 1.610 . S
C254 C62 1.596 . S
C259 C69 1.597 . S
C264 C121 1.609 . S
C269 C140 1.610 . S
C274 C88 1.596 . S
C279 C101 1.596 . S
C284 C153 1.610 . S
C289 C3 1.654 . S
C294 C31 1.654 . S
C299 C18 1.651 . S
C304 C42 1.651 . S
C309 C55 1.629 . S
C314 C81 1.629 . S
C319 C70 1.631 . S
C324 C94 1.631 . S
C329 C135 1.654 . S
C334 C107 1.654 . S
C339 C120 1.654 . S
C344 C148 1.654 . S
C349 C185 1.629 . S
C354 C159 1.629 . S
C359 C174 1.629 . S
C364 C200 1.629 . S
C369 C83 1.506 . S
C374 C5 1.509 . S
C379 C96 1.506 . S
C384 C16 1.509 . S
C389 C29 1.510 . S
C394 C57 1.508 . S
C399 C44 1.510 . S
C404 C68 1.508 . S
C409 C187 1.506 . S
C414 C109 1.509 . S
C419 C122 1.510 . S
C424 C198 1.508 . S
C429 C161 1.508 . S
C434 C133 1.510 . S
C439 C146 1.510 . S
C444 C172 1.507 . S
C449 C10 1.499 . S
C454 C49 1.499 . S
C459 C30 1.499 . S
C464 C17 1.499 . S
C469 C56 1.674 . S
C474 C95 1.674 . S
C479 C75 1.674 . S
C484 C82 1.674 . S
C489 C147 1.500 . S
C494 C114 1.500 . S
C499 C127 1.499 . S
C504 C134 1.499 . S
C509 C205 1.674 . S
C514 C160 1.674 . S
C519 C179 1.674 . S
C524 C186 1.674 . S
